# Generated by pormake.
# Topology wju, (5)-cn, num edge types: 1
# Building blocks:
#     Node 0, Type 0, BuildingBlock: BEQFEK_clean_sbu_0, # of connection points: 5
#     Node 1, Type 0, BuildingBlock: BEQFEK_clean_sbu_0, # of connection points: 5
#     Node 2, Type 0, BuildingBlock: BEQFEK_clean_sbu_0, # of connection points: 5
#     Node 3, Type 0, BuildingBlock: BEQFEK_clean_sbu_0, # of connection points: 5
#     Node 4, Type 0, BuildingBlock: BEQFEK_clean_sbu_0, # of connection points: 5
#     Node 5, Type 0, BuildingBlock: BEQFEK_clean_sbu_0, # of connection points: 5
#     Node 6, Type 0, BuildingBlock: BEQFEK_clean_sbu_0, # of connection points: 5
#     Node 7, Type 0, BuildingBlock: BEQFEK_clean_sbu_0, # of connection points: 5
#     Node 8, Type 0, BuildingBlock: BEQFEK_clean_sbu_0, # of connection points: 5
#     Node 9, Type 0, BuildingBlock: BEQFEK_clean_sbu_0, # of connection points: 5
#     Node 10, Type 0, BuildingBlock: BEQFEK_clean_sbu_0, # of connection points: 5
#     Node 11, Type 0, BuildingBlock: BEQFEK_clean_sbu_0, # of connection points: 5
#     Edge 12, Type (0, 0), BuildingBlock: ZUJKAS_clean_linker_0, # of connection points: 2
#     Edge 13, Type (0, 0), BuildingBlock: ZUJKAS_clean_linker_0, # of connection points: 2
#     Edge 14, Type (0, 0), BuildingBlock: ZUJKAS_clean_linker_0, # of connection points: 2
#     Edge 15, Type (0, 0), BuildingBlock: ZUJKAS_clean_linker_0, # of connection points: 2
#     Edge 16, Type (0, 0), BuildingBlock: ZUJKAS_clean_linker_0, # of connection points: 2
#     Edge 17, Type (0, 0), BuildingBlock: ZUJKAS_clean_linker_0, # of connection points: 2
#     Edge 18, Type (0, 0), BuildingBlock: ZUJKAS_clean_linker_0, # of connection points: 2
#     Edge 19, Type (0, 0), BuildingBlock: ZUJKAS_clean_linker_0, # of connection points: 2
#     Edge 20, Type (0, 0), BuildingBlock: ZUJKAS_clean_linker_0, # of connection points: 2
#     Edge 21, Type (0, 0), BuildingBlock: ZUJKAS_clean_linker_0, # of connection points: 2
#     Edge 22, Type (0, 0), BuildingBlock: ZUJKAS_clean_linker_0, # of connection points: 2
#     Edge 23, Type (0, 0), BuildingBlock: ZUJKAS_clean_linker_0, # of connection points: 2
#     Edge 24, Type (0, 0), BuildingBlock: ZUJKAS_clean_linker_0, # of connection points: 2
#     Edge 25, Type (0, 0), BuildingBlock: ZUJKAS_clean_linker_0, # of connection points: 2
#     Edge 26, Type (0, 0), BuildingBlock: ZUJKAS_clean_linker_0, # of connection points: 2
#     Edge 27, Type (0, 0), BuildingBlock: ZUJKAS_clean_linker_0, # of connection points: 2
#     Edge 28, Type (0, 0), BuildingBlock: ZUJKAS_clean_linker_0, # of connection points: 2
#     Edge 29, Type (0, 0), BuildingBlock: ZUJKAS_clean_linker_0, # of connection points: 2
#     Edge 30, Type (0, 0), BuildingBlock: ZUJKAS_clean_linker_0, # of connection points: 2
#     Edge 31, Type (0, 0), BuildingBlock: ZUJKAS_clean_linker_0, # of connection points: 2
#     Edge 32, Type (0, 0), BuildingBlock: ZUJKAS_clean_linker_0, # of connection points: 2
#     Edge 33, Type (0, 0), BuildingBlock: ZUJKAS_clean_linker_0, # of connection points: 2
#     Edge 34, Type (0, 0), BuildingBlock: ZUJKAS_clean_linker_0, # of connection points: 2
#     Edge 35, Type (0, 0), BuildingBlock: ZUJKAS_clean_linker_0, # of connection points: 2
#     Edge 36, Type (0, 0), BuildingBlock: ZUJKAS_clean_linker_0, # of connection points: 2
#     Edge 37, Type (0, 0), BuildingBlock: ZUJKAS_clean_linker_0, # of connection points: 2
#     Edge 38, Type (0, 0), BuildingBlock: ZUJKAS_clean_linker_0, # of connection points: 2
#     Edge 39, Type (0, 0), BuildingBlock: ZUJKAS_clean_linker_0, # of connection points: 2
#     Edge 40, Type (0, 0), BuildingBlock: ZUJKAS_clean_linker_0, # of connection points: 2
#     Edge 41, Type (0, 0), BuildingBlock: ZUJKAS_clean_linker_0, # of connection points: 2
# Relax obj value: 0.129
# Max RMSD: 0.142
# Mean RMSD: 0.142
data_MOF--net-wju--node1-BEQFEK_clean_sbu_0--edge1-ZUJKAS_clean_linker_0
_symmetry_space_group_name_H-M    P1
_symmetry_Int_Tables_number       1
_symmetry_cell_setting            triclinic
loop_
_symmetry_equiv_pos_as_xyz
'x, y, z'
_cell_length_a     34.901057
_cell_length_b     34.901402
_cell_length_c     136.58241
_cell_angle_alpha  90.016412
_cell_angle_beta   89.996641
_cell_angle_gamma 119.97533
loop_
_atom_site_label
_atom_site_type_symbol
_atom_site_fract_x
_atom_site_fract_y
_atom_site_fract_z
_atom_type_partial_charge
Co0 Co 0.31146 0.17954 0.10965 0.0
Co1 Co 0.31159 0.16861 0.08671 0.0
C2 C 0.22729 0.13404 0.09796 0.0
O3 O 0.24796 0.14737 0.10605 0.0
O4 O 0.2479 0.14073 0.08989 0.0
C5 C 0.28682 0.18156 0.12963 0.0
O6 O 0.25481 0.18534 0.12553 0.0
C7 C 0.29014 0.12501 0.06735 0.0
C8 C 0.34836 0.17126 0.05862 0.0
C9 C 0.30858 0.13173 0.05803 0.0
N10 N 0.31772 0.15903 0.07311 0.0
N11 N 0.35231 0.18665 0.06782 0.0
C12 C 0.24915 0.08523 0.07102 0.0
H13 H 0.2515 0.08123 0.07901 0.0
H14 H 0.2438 0.05489 0.06719 0.0
H15 H 0.22027 0.08964 0.06962 0.0
C16 C 0.36154 0.13214 0.10852 0.0
N17 N 0.33969 0.15026 0.10423 0.0
N18 N 0.33859 0.14409 0.0947 0.0
C19 C 0.35909 0.12098 0.09264 0.0
C20 C 0.37442 0.11272 0.10134 0.0
C21 C 0.37197 0.13588 0.11923 0.0
H22 H 0.38326 0.17012 0.12174 0.0
H23 H 0.34152 0.11322 0.12335 0.0
H24 H 0.39813 0.12765 0.12089 0.0
O25 O 0.341 0.24135 0.10497 0.0
O26 O 0.34165 0.23375 0.08882 0.0
H27 H 0.38356 0.1335 0.07795 0.0
H28 H 0.37328 0.08083 0.08275 0.0
C29 C 0.36134 0.10487 0.08261 0.0
H30 H 0.32799 0.08844 0.07928 0.0
H31 H 0.3789 0.21578 0.07053 0.0
O32 O 0.3152 0.17927 0.1242 0.0
C33 C 0.35124 0.2581 0.09642 0.0
Co34 Co 0.1223 0.3096 0.44269 0.0
Co35 Co 0.13258 0.3124 0.41971 0.0
C36 C 0.08507 0.22689 0.43067 0.0
O37 O 0.09203 0.24651 0.43889 0.0
O38 O 0.09842 0.24851 0.42271 0.0
C39 C 0.13445 0.28682 0.4621 0.0
O40 O 0.14392 0.25983 0.45736 0.0
C41 C 0.15695 0.29223 0.40058 0.0
C42 C 0.1612 0.34599 0.39129 0.0
C43 C 0.1658 0.30875 0.39107 0.0
N44 N 0.14747 0.3184 0.40609 0.0
N45 N 0.14985 0.35034 0.40048 0.0
C46 C 0.16091 0.25453 0.40466 0.0
H47 H 0.16776 0.25901 0.41263 0.0
H48 H 0.18771 0.25187 0.40091 0.0
H49 H 0.12924 0.22328 0.40352 0.0
C50 C 0.22019 0.36251 0.44135 0.0
N51 N 0.17988 0.33969 0.43721 0.0
N52 N 0.18433 0.34055 0.42762 0.0
C53 C 0.2277 0.36382 0.42536 0.0
C54 C 0.25174 0.37834 0.434 0.0
C55 C 0.22827 0.37121 0.45209 0.0
H56 H 0.20309 0.37802 0.4553 0.0
H57 H 0.22563 0.34154 0.45571 0.0
H58 H 0.26168 0.39979 0.45355 0.0
O59 O 0.08889 0.33837 0.43823 0.0
O60 O 0.09629 0.34078 0.42204 0.0
H61 H 0.23245 0.38786 0.41075 0.0
H62 H 0.28225 0.38927 0.415 0.0
C63 C 0.24562 0.37033 0.41516 0.0
H64 H 0.2345 0.33765 0.41176 0.0
H65 H 0.14407 0.37531 0.40294 0.0
O66 O 0.12458 0.31179 0.45725 0.0
C67 C 0.08156 0.34912 0.42981 0.0
Co68 Co 0.80235 0.12222 0.77631 0.0
Co69 Co 0.81583 0.13436 0.75339 0.0
C70 C 0.85112 0.08606 0.76503 0.0
O71 O 0.83689 0.09293 0.77304 0.0
O72 O 0.84426 0.09943 0.75691 0.0
C73 C 0.83558 0.1366 0.79576 0.0
O74 O 0.87285 0.14916 0.79106 0.0
C75 C 0.86137 0.16021 0.73394 0.0
C76 C 0.81083 0.16488 0.72511 0.0
C77 C 0.8527 0.16988 0.72459 0.0
N78 N 0.82638 0.15061 0.73974 0.0
N79 N 0.79635 0.15341 0.73437 0.0
C80 C 0.90163 0.15866 0.73714 0.0
H81 H 0.89441 0.1367 0.74351 0.0
H82 H 0.92787 0.19231 0.7393 0.0
H83 H 0.91447 0.1471 0.73107 0.0
C84 C 0.84506 0.22014 0.77518 0.0
N85 N 0.83008 0.18022 0.77098 0.0
N86 N 0.83772 0.18549 0.76149 0.0
C87 C 0.85889 0.22905 0.7594 0.0
C88 C 0.86412 0.25249 0.76801 0.0
C89 C 0.83817 0.22693 0.78572 0.0
H90 H 0.80614 0.19937 0.78833 0.0
H91 H 0.86518 0.22778 0.79016 0.0
H92 H 0.83844 0.25859 0.78678 0.0
O93 O 0.74125 0.08787 0.77124 0.0
O94 O 0.7505 0.09795 0.75515 0.0
H95 H 0.84774 0.24032 0.74456 0.0
H96 H 0.89915 0.2838 0.74963 0.0
C97 C 0.87598 0.24765 0.74945 0.0
H98 H 0.8938 0.23166 0.74637 0.0
H99 H 0.76582 0.14743 0.73704 0.0
O100 O 0.80026 0.12389 0.79086 0.0
C101 C 0.72543 0.08172 0.76261 0.0
Co102 Co 0.67099 0.80596 0.11021 0.0
Co103 Co 0.67147 0.8193 0.0873 0.0
C104 C 0.75544 0.85213 0.09857 0.0
O105 O 0.73452 0.83814 0.10661 0.0
O106 O 0.7351 0.84646 0.09049 0.0
C107 C 0.69163 0.83961 0.12967 0.0
O108 O 0.71639 0.87679 0.12494 0.0
C109 C 0.69195 0.86306 0.0678 0.0
C110 C 0.63041 0.81978 0.0597 0.0
C111 C 0.67119 0.85791 0.0588 0.0
N112 N 0.66426 0.82998 0.07377 0.0
N113 N 0.6277 0.80411 0.06883 0.0
C114 C 0.7381 0.89717 0.07059 0.0
H115 H 0.75525 0.88043 0.07363 0.0
H116 H 0.73698 0.91892 0.07638 0.0
H117 H 0.7575 0.91732 0.06425 0.0
C118 C 0.61853 0.85152 0.10934 0.0
N119 N 0.64232 0.83544 0.10505 0.0
N120 N 0.64475 0.84335 0.09557 0.0
C121 C 0.62394 0.86621 0.0936 0.0
C122 C 0.60631 0.87185 0.10224 0.0
C123 C 0.60455 0.84417 0.11985 0.0
H124 H 0.59973 0.81189 0.12239 0.0
H125 H 0.63068 0.87083 0.12437 0.0
H126 H 0.57328 0.84469 0.1209 0.0
O127 O 0.64132 0.74479 0.10523 0.0
O128 O 0.64083 0.75379 0.08913 0.0
H129 H 0.5996 0.8576 0.07893 0.0
H130 H 0.6143 0.91077 0.08419 0.0
C131 C 0.6235 0.88466 0.08373 0.0
H132 H 0.65677 0.89926 0.0804 0.0
H133 H 0.60062 0.77595 0.07174 0.0
O134 O 0.66847 0.80435 0.12478 0.0
C135 C 0.631 0.72879 0.09662 0.0
Co136 Co 0.85387 0.67325 0.443 0.0
Co137 Co 0.84236 0.66993 0.42004 0.0
C138 C 0.89495 0.75548 0.43079 0.0
O139 O 0.88762 0.73599 0.43903 0.0
O140 O 0.87973 0.73381 0.42288 0.0
C141 C 0.8486 0.7005 0.46249 0.0
O142 O 0.84537 0.73164 0.45781 0.0
C143 C 0.81621 0.68992 0.40112 0.0
C144 C 0.81143 0.63628 0.3917 0.0
C145 C 0.80633 0.67322 0.39164 0.0
N146 N 0.82669 0.66409 0.40647 0.0
N147 N 0.82403 0.63225 0.40078 0.0
C148 C 0.81256 0.72757 0.40532 0.0
H149 H 0.80673 0.72323 0.41334 0.0
H150 H 0.7853 0.73007 0.40177 0.0
H151 H 0.84403 0.75886 0.40405 0.0
C152 C 0.75584 0.62692 0.44196 0.0
N153 N 0.79599 0.64652 0.43768 0.0
N154 N 0.79105 0.64496 0.4281 0.0
C155 C 0.74753 0.62423 0.42598 0.0
C156 C 0.7239 0.6124 0.43468 0.0
C157 C 0.74857 0.6242 0.4528 0.0
H158 H 0.76117 0.65802 0.45573 0.0
H159 H 0.71313 0.60408 0.45476 0.0
H160 H 0.76735 0.60997 0.4563 0.0
O161 O 0.88353 0.64068 0.43848 0.0
O162 O 0.8756 0.6384 0.42231 0.0
H163 H 0.69297 0.58889 0.41589 0.0
H164 H 0.73374 0.6442 0.41227 0.0
C165 C 0.72882 0.61356 0.41584 0.0
H166 H 0.74628 0.60017 0.41149 0.0
H167 H 0.83031 0.60745 0.40312 0.0
O168 O 0.85214 0.67142 0.45759 0.0
C169 C 0.88952 0.62891 0.43005 0.0
Co170 Co 0.17747 0.85637 0.77644 0.0
Co171 Co 0.16505 0.84558 0.75352 0.0
C172 C 0.13598 0.89969 0.76482 0.0
O173 O 0.1487 0.89119 0.77286 0.0
O174 O 0.14101 0.88474 0.75671 0.0
C175 C 0.1435 0.84717 0.79576 0.0
O176 O 0.10909 0.84285 0.7909 0.0
C177 C 0.12189 0.82621 0.73408 0.0
C178 C 0.16304 0.80597 0.72571 0.0
C179 C 0.12637 0.81129 0.72494 0.0
N180 N 0.15445 0.82953 0.73994 0.0
N181 N 0.17912 0.81776 0.73485 0.0
C182 C 0.08491 0.83289 0.73751 0.0
H183 H 0.07955 0.82655 0.74549 0.0
H184 H 0.05382 0.81067 0.73354 0.0
H185 H 0.09373 0.86764 0.73609 0.0
C186 C 0.12616 0.7583 0.77522 0.0
N187 N 0.14518 0.79867 0.77105 0.0
N188 N 0.13793 0.7942 0.76155 0.0
C189 C 0.11292 0.75086 0.75941 0.0
C190 C 0.10487 0.7266 0.76799 0.0
C191 C 0.13121 0.7503 0.78578 0.0
H192 H 0.16454 0.77519 0.78843 0.0
H193 H 0.10611 0.75342 0.79015 0.0
H194 H 0.12654 0.71676 0.78692 0.0
O195 O 0.23923 0.88568 0.77166 0.0
O196 O 0.2303 0.8769 0.75554 0.0
H197 H 0.12201 0.73608 0.74469 0.0
H198 H 0.06794 0.69841 0.74966 0.0
C199 C 0.09495 0.73336 0.74942 0.0
H200 H 0.08164 0.75329 0.74615 0.0
H201 H 0.20644 0.8169 0.73769 0.0
O202 O 0.17749 0.85332 0.79102 0.0
C203 C 0.25525 0.89082 0.76306 0.0
Co204 Co 0.80349 0.67233 0.58732 0.0
Co205 Co 0.81525 0.67319 0.61023 0.0
C206 C 0.84439 0.75661 0.59914 0.0
O207 O 0.83199 0.73564 0.59106 0.0
O208 O 0.8392 0.73644 0.60722 0.0
C209 C 0.83889 0.69452 0.56802 0.0
O210 O 0.87556 0.71956 0.57289 0.0
C211 C 0.85745 0.69589 0.6298 0.0
C212 C 0.81639 0.63373 0.6379 0.0
C213 C 0.85271 0.67581 0.63886 0.0
N214 N 0.82538 0.66694 0.6238 0.0
N215 N 0.80076 0.63003 0.62873 0.0
C216 C 0.89426 0.74001 0.62656 0.0
H217 H 0.90024 0.73971 0.6186 0.0
H218 H 0.92518 0.74899 0.63062 0.0
H219 H 0.88485 0.76549 0.62803 0.0
C220 C 0.85435 0.62502 0.58848 0.0
N221 N 0.83562 0.64667 0.59264 0.0
N222 N 0.84284 0.64943 0.60215 0.0
C223 C 0.86782 0.63104 0.60428 0.0
C224 C 0.87569 0.61466 0.5957 0.0
C225 C 0.84845 0.61097 0.57797 0.0
H226 H 0.81591 0.60471 0.57524 0.0
H227 H 0.87493 0.63766 0.57353 0.0
H228 H 0.85059 0.5805 0.57705 0.0
O229 O 0.74185 0.63915 0.592 0.0
O230 O 0.74997 0.63927 0.60814 0.0
H231 H 0.85898 0.60677 0.61896 0.0
H232 H 0.91326 0.62415 0.61398 0.0
C233 C 0.88586 0.63154 0.61426 0.0
H234 H 0.89864 0.6646 0.61759 0.0
H235 H 0.77378 0.60194 0.62577 0.0
O236 O 0.80337 0.6706 0.57275 0.0
C237 C 0.72539 0.62805 0.60055 0.0
Co238 Co 0.12592 0.80911 0.92076 0.0
Co239 Co 0.13371 0.8154 0.94378 0.0
C240 C 0.0837 0.85019 0.9325 0.0
O241 O 0.0921 0.8386 0.92431 0.0
O242 O 0.09746 0.84273 0.94051 0.0
C243 C 0.10146 0.80717 0.90062 0.0
O244 O 0.06447 0.80135 0.9045 0.0
C245 C 0.15847 0.86131 0.96271 0.0
C246 C 0.15784 0.81063 0.97249 0.0
C247 C 0.16562 0.8537 0.97236 0.0
N248 N 0.14696 0.82451 0.95746 0.0
N249 N 0.14642 0.79426 0.96336 0.0
C250 C 0.16548 0.90355 0.95828 0.0
H251 H 0.17206 0.90425 0.95031 0.0
H252 H 0.19348 0.9325 0.96189 0.0
H253 H 0.13508 0.90576 0.95927 0.0
C254 C 0.22309 0.8615 0.92253 0.0
N255 N 0.18255 0.83986 0.92657 0.0
N256 N 0.18627 0.84174 0.93618 0.0
C257 C 0.22952 0.86402 0.93856 0.0
C258 C 0.25421 0.87746 0.92999 0.0
C259 C 0.23134 0.8686 0.91175 0.0
H260 H 0.2232 0.83675 0.90823 0.0
H261 H 0.20939 0.87984 0.90857 0.0
H262 H 0.26619 0.89358 0.91012 0.0
O263 O 0.09511 0.74642 0.92507 0.0
O264 O 0.10043 0.75096 0.94129 0.0
H265 H 0.22694 0.8391 0.95304 0.0
H266 H 0.28199 0.87797 0.94888 0.0
C267 C 0.24693 0.86984 0.94879 0.0
H268 H 0.24458 0.8971 0.95238 0.0
H269 H 0.13868 0.76259 0.96113 0.0
O270 O 0.13207 0.81062 0.90624 0.0
C271 C 0.08762 0.72809 0.93346 0.0
Co272 Co 0.30867 0.13076 0.25382 0.0
Co273 Co 0.3115 0.13947 0.27683 0.0
C274 C 0.22652 0.08415 0.26605 0.0
O275 O 0.24594 0.09345 0.25778 0.0
O276 O 0.24811 0.09937 0.27397 0.0
C277 C 0.28028 0.13713 0.23451 0.0
O278 O 0.24735 0.13632 0.23935 0.0
C279 C 0.28925 0.16003 0.29618 0.0
C280 C 0.34659 0.17078 0.30509 0.0
C281 C 0.30703 0.17107 0.30556 0.0
N282 N 0.31704 0.15362 0.29049 0.0
N283 N 0.35106 0.15974 0.29588 0.0
C284 C 0.24875 0.15944 0.29236 0.0
H285 H 0.25147 0.1654 0.28434 0.0
H286 H 0.24379 0.18493 0.29607 0.0
H287 H 0.21947 0.12647 0.29377 0.0
C288 C 0.35087 0.22836 0.25545 0.0
N289 N 0.33248 0.18777 0.25949 0.0
N290 N 0.33374 0.19159 0.2691 0.0
C291 C 0.35308 0.2348 0.27146 0.0
C292 C 0.36438 0.25941 0.26289 0.0
C293 C 0.358 0.23733 0.24469 0.0
H294 H 0.37063 0.21671 0.24141 0.0
H295 H 0.32595 0.2284 0.24118 0.0
H296 H 0.38184 0.27268 0.24318 0.0
O297 O 0.34455 0.10386 0.25792 0.0
O298 O 0.34637 0.1099 0.27414 0.0
H299 H 0.37973 0.241 0.28586 0.0
H300 H 0.37597 0.28858 0.28198 0.0
C301 C 0.35961 0.25202 0.28173 0.0
H302 H 0.32703 0.23831 0.28536 0.0
H303 H 0.3777 0.15709 0.29324 0.0
O304 O 0.31056 0.13507 0.23926 0.0
C305 C 0.35719 0.09804 0.26627 0.0
Co306 Co 0.17693 0.31162 0.58694 0.0
Co307 Co 0.16493 0.31195 0.60982 0.0
C308 C 0.12822 0.22756 0.59863 0.0
O309 O 0.14255 0.24814 0.59056 0.0
O310 O 0.13524 0.24826 0.60669 0.0
C311 C 0.14223 0.29123 0.5676 0.0
O312 O 0.10527 0.26699 0.57245 0.0
C313 C 0.12062 0.29156 0.62909 0.0
C314 C 0.16734 0.34947 0.63784 0.0
C315 C 0.12731 0.31019 0.63838 0.0
N316 N 0.15513 0.31857 0.62338 0.0
N317 N 0.18303 0.35297 0.62868 0.0
C318 C 0.08043 0.25105 0.62538 0.0
H319 H 0.07659 0.25369 0.61738 0.0
H320 H 0.05025 0.24619 0.62919 0.0
H321 H 0.08419 0.22177 0.62673 0.0
C322 C 0.13441 0.36704 0.58796 0.0
N323 N 0.14968 0.34242 0.5922 0.0
N324 N 0.14261 0.34071 0.6017 0.0
C325 C 0.12139 0.36308 0.60377 0.0
C326 C 0.11569 0.38073 0.59513 0.0
C327 C 0.14067 0.37998 0.57738 0.0
H328 H 0.17247 0.38409 0.57469 0.0
H329 H 0.11331 0.35361 0.57305 0.0
H330 H 0.14048 0.41138 0.57626 0.0
O331 O 0.23836 0.33902 0.59179 0.0
O332 O 0.23002 0.3399 0.60791 0.0
H333 H 0.13283 0.38695 0.61851 0.0
H334 H 0.08068 0.37714 0.6135 0.0
C335 C 0.10454 0.36499 0.61374 0.0
H336 H 0.08759 0.33151 0.61699 0.0
H337 H 0.21256 0.37914 0.626 0.0
O338 O 0.17791 0.31404 0.57237 0.0
C339 C 0.25468 0.3487 0.60038 0.0
Co340 Co 0.85571 0.17718 0.92057 0.0
Co341 Co 0.84594 0.16847 0.94364 0.0
C342 C 0.89461 0.13255 0.93222 0.0
O343 O 0.88668 0.14479 0.92407 0.0
O344 O 0.88151 0.14053 0.94026 0.0
C345 C 0.84228 0.1423 0.90122 0.0
O346 O 0.83284 0.10601 0.90603 0.0
C347 C 0.81948 0.12286 0.96299 0.0
C348 C 0.81867 0.17467 0.97212 0.0
C349 C 0.81112 0.13176 0.97245 0.0
N350 N 0.83074 0.15868 0.95734 0.0
N351 N 0.83026 0.18947 0.96289 0.0
C352 C 0.81833 0.08159 0.95949 0.0
H353 H 0.83849 0.08783 0.95284 0.0
H354 H 0.78382 0.05633 0.95766 0.0
H355 H 0.83042 0.06799 0.9653 0.0
C356 C 0.75793 0.13222 0.92207 0.0
N357 N 0.79832 0.14912 0.92615 0.0
N358 N 0.79409 0.14498 0.93574 0.0
C359 C 0.75078 0.12516 0.93805 0.0
C360 C 0.72657 0.11635 0.92946 0.0
C361 C 0.74962 0.13394 0.91137 0.0
H362 H 0.77494 0.16606 0.90826 0.0
H363 H 0.75173 0.10699 0.90756 0.0
H364 H 0.71633 0.12967 0.91005 0.0
O365 O 0.88899 0.23903 0.92522 0.0
O366 O 0.88151 0.23338 0.94141 0.0
H367 H 0.74667 0.1443 0.95272 0.0
H368 H 0.69645 0.09641 0.94847 0.0
C369 C 0.73305 0.1137 0.94826 0.0
H370 H 0.74384 0.09173 0.95156 0.0
H371 H 0.83785 0.2207 0.96036 0.0
O372 O 0.8528 0.17744 0.90602 0.0
C373 C 0.8962 0.25675 0.93368 0.0
Co374 Co 0.67238 0.85975 0.25458 0.0
Co375 Co 0.66939 0.85183 0.27759 0.0
C376 C 0.755 0.89359 0.26652 0.0
O377 O 0.73545 0.88719 0.25831 0.0
O378 O 0.73337 0.88199 0.27451 0.0
C379 C 0.69524 0.84722 0.23517 0.0
O380 O 0.72384 0.8401 0.23991 0.0
C381 C 0.68654 0.82471 0.29667 0.0
C382 C 0.63799 0.8292 0.30626 0.0
C383 C 0.67141 0.81865 0.30628 0.0
N384 N 0.6633 0.83832 0.29129 0.0
N385 N 0.63447 0.84115 0.29707 0.0
C386 C 0.72009 0.81468 0.29242 0.0
H387 H 0.7138 0.80718 0.28449 0.0
H388 H 0.71936 0.78629 0.29625 0.0
H389 H 0.75352 0.84407 0.29327 0.0
C390 C 0.61532 0.76233 0.2564 0.0
N391 N 0.63961 0.8029 0.26035 0.0
N392 N 0.63821 0.79946 0.26997 0.0
C393 C 0.6129 0.75653 0.27243 0.0
C394 C 0.59775 0.73165 0.26393 0.0
C395 C 0.61132 0.75321 0.24563 0.0
H396 H 0.60073 0.77462 0.2419 0.0
H397 H 0.64415 0.76133 0.24271 0.0
H398 H 0.58764 0.7181 0.24392 0.0
O399 O 0.64687 0.89671 0.25878 0.0
O400 O 0.64465 0.89116 0.275 0.0
H401 H 0.59224 0.76091 0.28696 0.0
H402 H 0.57389 0.70515 0.28295 0.0
C403 C 0.60164 0.7398 0.28272 0.0
H404 H 0.63103 0.74134 0.28622 0.0
H405 H 0.61215 0.85088 0.29473 0.0
O406 O 0.66927 0.85579 0.24001 0.0
C407 C 0.6373 0.90602 0.26713 0.0
H408 H 0.22249 0.08034 0.05175 0.0
H409 H 0.19643 0.03317 0.03721 0.0
H410 H 0.33109 0.07327 0.02948 0.0
H411 H 0.35739 0.12005 0.04409 0.0
H412 H 0.28036 0.0761 1.01379 0.0
H413 H 0.19411 0.91486 0.03328 0.0
H414 H 0.17819 0.9544 0.03694 0.0
H415 H 0.2335 0.96558 0.03926 0.0
C416 C 0.24652 0.07834 0.0471 0.0
C417 C 0.29197 0.10299 0.04924 0.0
C418 C 0.23156 0.05158 0.03874 0.0
C419 C 0.26177 0.0491 0.03236 0.0
C420 C 0.30719 0.07447 0.03435 0.0
H421 H 0.2172 0.85638 0.98754 0.0
H422 H 0.23998 0.90469 1.00191 0.0
C423 C 0.32214 0.10118 0.0427 0.0
C424 C 0.24627 0.02057 0.02352 0.0
H425 H 0.18617 0.91298 0.01605 0.0
C426 C 0.2597 0.04044 1.01427 0.0
C427 C 0.21969 0.97403 0.02419 0.0
C428 C 0.20575 0.95076 0.03394 0.0
C429 C 0.24712 0.01501 1.00566 0.0
C430 C 0.22 0.96853 1.00632 0.0
C431 C 0.2067 0.94866 0.01557 0.0
C432 C 0.20626 0.93973 0.99752 0.0
C433 C 0.26381 0.03796 0.99594 0.0
C434 C 0.17929 0.94303 0.99033 0.0
C435 C 0.16616 0.91539 0.98211 0.0
C436 C 0.1799 0.88404 0.98091 0.0
C437 C 0.20633 0.88041 0.98821 0.0
C438 C 0.21939 0.90798 0.99642 0.0
H439 H 0.29206 0.07213 0.99684 0.0
H440 H 0.27436 0.01912 0.99118 0.0
H441 H 0.23675 0.03999 0.99216 0.0
H442 H 0.16781 0.96651 0.99117 0.0
H443 H 0.14434 0.91791 0.97686 0.0
H444 H 0.13933 0.22268 0.38587 0.0
H445 H 0.16215 0.1973 0.3715 0.0
H446 H 0.24213 0.33216 0.36179 0.0
H447 H 0.22023 0.35796 0.37626 0.0
H448 H 0.18663 0.27167 0.34707 0.0
H449 H 0.28621 0.21157 0.36665 0.0
H450 H 0.2309 0.19094 0.37114 0.0
H451 H 0.27067 0.24879 0.37221 0.0
C452 C 0.16268 0.24709 0.38084 0.0
C453 C 0.17903 0.2925 0.38238 0.0
C454 C 0.17539 0.23245 0.37257 0.0
C455 C 0.20442 0.26291 0.36567 0.0
C456 C 0.21994 0.30813 0.36706 0.0
H457 H 0.35575 0.23061 0.31966 0.0
H458 H 0.32933 0.25176 0.33413 0.0
C459 C 0.20737 0.32279 0.37534 0.0
C460 C 0.21815 0.2477 0.3569 0.0
H461 H 0.27626 0.19779 0.34963 0.0
C462 C 0.20615 0.25543 0.34761 0.0
C463 C 0.24394 0.22691 0.35765 0.0
C464 C 0.25909 0.21929 0.36743 0.0
C465 C 0.21914 0.24273 0.33904 0.0
C466 C 0.24443 0.2214 0.33979 0.0
C467 C 0.25658 0.21385 0.34908 0.0
C468 C 0.25997 0.20806 0.33101 0.0
C469 C 0.20657 0.25315 0.32923 0.0
C470 C 0.22974 0.17594 0.32453 0.0
C471 C 0.24476 0.16371 0.31625 0.0
C472 C 0.29031 0.18353 0.31429 0.0
C473 C 0.32045 0.21496 0.32092 0.0
C474 C 0.30543 0.22712 0.32919 0.0
H475 H 0.19568 0.27801 0.32987 0.0
H476 H 0.23479 0.26578 0.32404 0.0
H477 H 0.17885 0.22247 0.32609 0.0
H478 H 0.19453 0.15997 0.32594 0.0
H479 H 0.22069 0.13811 0.31153 0.0
H480 H 0.94267 0.22515 0.7233 0.0
H481 H 0.9883 0.24696 0.70853 0.0
H482 H 0.87223 0.16805 0.69098 0.0
H483 H 0.82635 0.14571 0.70576 0.0
H484 H 0.00019 0.19494 0.69459 0.0
H485 H 0.92807 0.28983 0.67792 0.0
H486 H 0.91922 0.27263 0.69058 0.0
H487 H 0.88822 0.23379 0.68106 0.0
C488 C 0.92692 0.21164 0.71634 0.0
C489 C 0.88098 0.18291 0.71572 0.0
C490 C 0.95302 0.22453 0.70788 0.0
C491 C 0.93365 0.20942 0.69865 0.0
C492 C 0.8878 0.18066 0.69801 0.0
H493 H 0.07453 0.22438 0.64467 0.0
H494 H 0.02678 0.19917 0.65912 0.0
C495 C 0.86167 0.16781 0.70646 0.0
C496 C 0.96151 0.22373 0.6897 0.0
H497 H 0.97799 0.27916 0.6681 0.0
C498 C -0.00461 0.21337 0.68879 0.0
C499 C 0.9555 0.24823 0.68221 0.0
C500 C 0.92107 0.26219 0.68299 0.0
C501 C 0.02315 0.22647 0.68055 0.0
C502 C 0.01641 0.25001 0.67294 0.0
C503 C 0.98282 0.26074 0.6739 0.0
C504 C 0.04466 0.26496 0.66406 0.0
C505 C 0.06006 0.21584 0.68015 0.0
C506 C 0.06982 0.31024 0.6619 0.0
C507 C 0.09654 0.32469 0.65356 0.0
C508 C 0.09822 0.29412 0.64712 0.0
C509 C 0.07303 0.24875 0.6493 0.0
C510 C 0.04627 0.2343 0.65766 0.0
H511 H 0.06765 0.20775 0.68751 0.0
H512 H 0.05001 0.18672 0.67534 0.0
H513 H 0.09066 0.24399 0.67708 0.0
H514 H 0.06905 0.33448 0.66674 0.0
H515 H 0.11567 0.35986 0.6521 0.0
H516 H 0.8336 0.15747 0.99138 0.0
H517 H 0.81055 0.1111 1.0061 0.0
H518 H 0.73363 -0.00457 0.98831 0.0
H519 H 0.75525 0.04149 0.97365 0.0
H520 H 0.71942 0.0511 1.01248 0.0
H521 H 0.8148 0.96527 1.0055 0.0
H522 H 0.82809 0.01693 0.99967 0.0
H523 H 0.7817 0.96612 0.99549 0.0
C524 C 0.8119 0.12212 0.9906 0.0
C525 C 0.79747 0.10308 0.98128 0.0
C526 C 0.79883 0.09571 0.99901 0.0
C527 C 0.77114 0.04977 0.99826 0.0
C528 C 0.75597 0.03071 0.98901 0.0
H529 H 0.65956 0.83217 0.03974 0.0
H530 H 0.68294 0.87918 0.02512 0.0
C531 C 0.76881 0.05712 0.9806 0.0
C532 C 0.75707 0.02188 1.00719 0.0
H533 H 0.76553 0.94007 0.01893 0.0
C534 C 0.7296 0.02693 1.01394 0.0
C535 C 0.77023 0.99025 1.009 0.0
C536 C 0.8006 0.98433 1.00209 0.0
C537 C 0.71424 0.00057 0.02239 0.0
C538 C 0.72772 0.96913 0.02427 0.0
C539 C 0.75526 0.96418 0.0175 0.0
C540 C 0.71347 0.94086 0.03317 0.0
C541 C 0.68274 0.00584 0.02907 0.0
C542 C 0.72305 0.95984 0.04256 0.0
C543 C 0.70941 0.93303 0.05091 0.0
C544 C 0.68687 0.88671 0.05003 0.0
C545 C 0.67728 0.86778 0.04063 0.0
C546 C 0.6907 0.89458 0.03228 0.0
H547 H 0.66585 0.02132 0.02522 0.0
H548 H 0.65721 0.97345 0.03207 0.0
H549 H 0.70155 0.02763 0.03529 0.0
H550 H 0.74108 -0.00456 0.04344 0.0
H551 H 0.71587 0.94863 0.05803 0.0
H552 H 0.75559 0.83748 0.31112 0.0
H553 H 0.77855 0.81259 0.32555 0.0
H554 H 0.64359 0.74275 0.33574 0.0
H555 H 0.62034 0.76739 0.32128 0.0
H556 H 0.7026 0.7921 0.35022 0.0
H557 H 0.759 0.68906 0.33095 0.0
H558 H 0.7843 0.74504 0.32662 0.0
H559 H 0.72582 0.70874 0.32505 0.0
C560 C 0.7306 0.81593 0.31629 0.0
C561 C 0.68592 0.80339 0.31491 0.0
C562 C 0.74384 0.80192 0.32458 0.0
C563 C 0.71266 0.77506 0.33163 0.0
C564 C 0.66817 0.76319 0.33036 0.0
H565 H 0.74815 0.62341 0.37743 0.0
H566 H 0.72505 0.64879 0.36308 0.0
C567 C 0.65495 0.77728 0.32209 0.0
C568 C 0.72647 0.76021 0.34046 0.0
H569 H 0.77523 0.70126 0.34792 0.0
C570 C 0.71842 0.77217 0.34973 0.0
C571 C 0.74663 0.73378 0.3398 0.0
C572 C 0.75412 0.71799 0.33008 0.0
C573 C 0.73037 0.7588 0.35835 0.0
C574 C 0.75163 0.73339 0.35769 0.0
C575 C 0.75928 0.72106 0.34842 0.0
C576 C 0.76535 0.71838 0.36651 0.0
C577 C 0.71925 0.7712 0.3681 0.0
C578 C 0.79608 0.74906 0.37315 0.0
C579 C 0.80922 0.73461 0.38138 0.0
C580 C 0.79195 0.68919 0.3831 0.0
C581 C 0.7618 0.65861 0.37634 0.0
C582 C 0.74857 0.67305 0.36814 0.0
H583 H 0.69311 0.78035 0.36738 0.0
H584 H 0.70794 0.74358 0.37342 0.0
H585 H 0.74925 0.80017 0.37112 0.0
H586 H 0.81047 0.78423 0.37189 0.0
H587 H 0.83378 0.75909 0.38622 0.0
H588 H 0.08629 0.85563 0.71748 0.0
H589 H 0.03835 0.83579 0.703 0.0
H590 H 0.05436 0.72258 0.6981 0.0
H591 H 0.10209 0.74204 0.71256 0.0
H592 H 0.06522 0.81595 0.682 0.0
H593 H 0.91352 0.68143 0.69958 0.0
H594 H 0.95588 0.72728 0.70647 0.0
H595 H 0.96552 0.6843 0.70217 0.0
C596 C 0.07907 0.82617 0.7134 0.0
C597 C 0.09727 0.7999 0.71625 0.0
C598 C 0.05204 0.81514 0.7051 0.0
C599 C 0.04263 0.77756 0.69957 0.0
C600 C 0.06106 0.75154 0.70234 0.0
H601 H 0.87689 0.6304 0.65111 0.0
H602 H 0.92348 0.65769 0.66572 0.0
C603 C 0.08836 0.76276 0.71057 0.0
C604 C 0.01384 0.76542 0.69083 0.0
H605 H 0.91118 0.68999 0.68249 0.0
C606 C 0.0314 0.78869 0.68208 0.0
C607 C 0.96998 0.72968 0.69101 0.0
C608 C 0.94973 0.70417 0.7003 0.0
C609 C 0.00651 0.77624 0.67338 0.0
C610 C 0.96251 0.74025 0.67354 0.0
C611 C 0.94484 0.71755 0.68237 0.0
C612 C 0.93471 0.7244 0.66457 0.0
C613 C 0.02819 0.80066 0.66406 0.0
C614 C 0.92503 0.75263 0.6591 0.0
C615 C 0.89871 0.73715 0.65068 0.0
C616 C 0.88124 0.69304 0.64765 0.0
C617 C 0.89011 0.66462 0.65325 0.0
C618 C 0.91672 0.68019 0.6616 0.0
H619 H 0.06484 0.81887 0.66465 0.0
H620 H 0.01845 0.77759 0.65775 0.0
H621 H 0.01755 0.82517 0.66252 0.0
H622 H 0.93734 0.78647 0.66141 0.0
H623 H 0.89126 0.75943 0.64669 0.0
H624 H 0.61561 0.93055 0.1165 0.0
H625 H 0.57277 0.96805 0.11859 0.0
H626 H 0.49763 0.90334 0.09262 0.0
H627 H 0.53791 0.86317 0.091 0.0
H628 H 0.56907 0.02565 0.10755 0.0
H629 H 0.39947 0.88366 0.11025 0.0
H630 H 0.44749 0.87712 0.11092 0.0
H631 H 0.42518 0.88004 0.09921 0.0
C632 C 0.58919 0.92356 0.11139 0.0
C633 C 0.58002 0.89402 0.10359 0.0
C634 C 0.56497 0.94523 0.11254 0.0
C635 C 0.53143 0.938 0.10586 0.0
C636 C 0.52241 0.90855 0.09804 0.0
H637 H 0.44586 0.12266 0.09114 0.0
H638 H 0.48375 0.08016 0.09297 0.0
C639 C 0.54601 0.88623 0.09701 0.0
C640 C 0.50797 0.96344 0.10665 0.0
H641 H 0.40565 0.95324 0.10557 0.0
C642 C 0.53329 0.00974 0.10726 0.0
C643 C 0.46126 0.94277 0.1065 0.0
C644 C 0.43185 0.89314 0.1068 0.0
C645 C 0.5133 0.03598 0.10733 0.0
C646 C 0.46681 0.01545 0.10634 0.0
C647 C 0.44137 0.96909 0.10614 0.0
C648 C 0.44393 0.04134 0.10524 0.0
C649 C 0.54234 0.08535 0.10855 0.0
C650 C 0.40774 0.03242 0.11125 0.0
C651 C 0.38505 0.05555 0.10995 0.0
C652 C 0.39844 0.08827 0.1027 0.0
C653 C 0.43471 0.09732 0.09673 0.0
C654 C 0.45683 0.07359 0.09789 0.0
H655 H 0.57295 0.09357 0.11268 0.0
H656 H 0.55249 0.101 0.10123 0.0
H657 H 0.52479 0.09997 0.11246 0.0
H658 H 0.39692 0.00743 0.11691 0.0
H659 H 0.35678 0.04759 0.11456 0.0
H660 H 0.30932 0.45761 0.4258 0.0
H661 H 0.3903 0.498 0.42722 0.0
H662 H 0.38328 0.39682 0.44651 0.0
H663 H 0.3024 0.35603 0.44495 0.0
H664 H 0.44468 0.52947 0.44468 0.0
H665 H 0.46654 0.40454 0.42389 0.0
H666 H 0.41586 0.40655 0.42354 0.0
H667 H 0.42849 0.38364 0.43399 0.0
C668 C 0.32526 0.44407 0.4303 0.0
C669 C 0.30012 0.40364 0.43516 0.0
C670 C 0.37126 0.46716 0.43115 0.0
C671 C 0.39256 0.44997 0.43686 0.0
C672 C 0.36734 0.41018 0.44196 0.0
H673 H 0.67146 0.53572 0.44443 0.0
H674 H 0.59057 0.49713 0.44595 0.0
C675 C 0.32135 0.38713 0.44111 0.0
C676 C 0.44127 0.4733 0.43732 0.0
H677 H 0.53074 0.46469 0.43057 0.0
C678 C 0.46361 0.5154 0.44162 0.0
C679 C 0.46558 0.45459 0.43332 0.0
C680 C 0.44307 0.41 0.42835 0.0
C681 C 0.50993 0.53937 0.44206 0.0
C682 C 0.53427 0.52095 0.43793 0.0
C683 C 0.51186 0.4786 0.43375 0.0
C684 C 0.58307 0.54557 0.43754 0.0
C685 C 0.53238 0.58395 0.44704 0.0
C686 C 0.60537 0.5853 0.43227 0.0
C687 C 0.65135 0.60734 0.43146 0.0
C688 C 0.67555 0.58981 0.43586 0.0
C689 C 0.65331 0.55005 0.44111 0.0
C690 C 0.60731 0.52803 0.44194 0.0
H691 H 0.50965 0.5876 0.45215 0.0
H692 H 0.56204 0.58921 0.45117 0.0
H693 H 0.54318 0.61027 0.44141 0.0
H694 H 0.58714 0.5988 0.42863 0.0
H695 H 0.66802 0.6379 0.42733 0.0
H696 H 0.11181 0.6659 0.75678 0.0
H697 H 0.06822 0.5854 0.75799 0.0
H698 H 0.00191 0.59721 0.78352 0.0
H699 H 0.04305 0.67784 0.78184 0.0
H700 H 0.06342 0.53042 0.77134 0.0
H701 H 0.89752 0.51371 0.76769 0.0
H702 H 0.94779 0.56536 0.76562 0.0
H703 H 0.92818 0.54742 0.77789 0.0
C704 C 0.08732 0.65125 0.76254 0.0
C705 C 0.08018 0.67796 0.76911 0.0
C706 C 0.06275 0.60529 0.76329 0.0
C707 C 0.03106 0.58516 0.77072 0.0
C708 C 0.02516 0.6119 0.77754 0.0
H709 H 0.92397 0.30263 0.78201 0.0
H710 H 0.96226 0.38311 0.78378 0.0
C711 C 0.04915 0.65794 0.77667 0.0
C712 C 0.00482 0.53622 0.77131 0.0
H713 H 0.89941 0.44851 0.77157 0.0
C714 C 0.02754 0.5125 0.77137 0.0
C715 C 0.95798 0.51285 0.77125 0.0
C716 C 0.93142 0.5361 0.77051 0.0
C717 C 0.00487 0.46614 0.77121 0.0
C718 C 0.95804 0.44276 0.77143 0.0
C719 C 0.93529 0.46646 0.7715 0.0
C720 C 0.932 0.39378 0.771 0.0
C721 C 0.03147 0.44294 0.77038 0.0
C722 C 0.90026 0.37282 0.76361 0.0
C723 C 0.87721 0.3268 0.76281 0.0
C724 C 0.88604 0.30098 0.76929 0.0
C725 C 0.91663 0.32181 0.7769 0.0
C726 C 0.939 0.36781 0.77782 0.0
H727 H 0.06511 0.46524 0.76742 0.0
H728 H 0.03538 0.43205 0.77776 0.0
H729 H 0.01478 0.41343 0.76557 0.0
H730 H 0.89389 0.39212 0.75832 0.0
H731 H 0.85291 0.31143 0.75704 0.0
H732 H 0.1275 0.45129 0.606 0.0
H733 H 0.08652 0.49102 0.60476 0.0
H734 H 0.01692 0.41273 0.5795 0.0
H735 H 0.05527 0.37054 0.58123 0.0
H736 H 0.08047 0.54135 0.59144 0.0
H737 H 0.91495 0.39272 0.59614 0.0
H738 H 0.96539 0.39129 0.59788 0.0
H739 H 0.94416 0.38887 0.58574 0.0
C740 C 0.10296 0.44219 0.60028 0.0
C741 C 0.0938 0.4073 0.59384 0.0
C742 C 0.07991 0.46517 0.59951 0.0
C743 C 0.04783 0.45412 0.59218 0.0
C744 C 0.04048 0.42089 0.5854 0.0
H745 H 0.93643 0.62689 0.58166 0.0
H746 H 0.9772 0.58711 0.57984 0.0
C747 C 0.06287 0.39727 0.5863 0.0
C748 C 0.0218 0.47707 0.5918 0.0
H749 H 0.91649 0.45953 0.59228 0.0
C750 C 0.0446 0.52349 0.59163 0.0
C751 C 0.975 0.45369 0.59218 0.0
C752 C 0.94844 0.40394 0.5931 0.0
C753 C 0.02198 0.54725 0.59198 0.0
C754 C 0.97515 0.52384 0.59209 0.0
C755 C 0.95237 0.47742 0.59211 0.0
C756 C 0.94903 0.54663 0.59277 0.0
C757 C 0.04864 0.59707 0.59262 0.0
C758 C 0.91799 0.53556 0.60034 0.0
C759 C 0.89358 0.55709 0.60116 0.0
C760 C 0.90027 0.59063 0.59455 0.0
C761 C 0.93066 0.60114 0.58686 0.0
C762 C 0.95446 0.57893 0.58591 0.0
H763 H 0.08274 0.60862 0.59532 0.0
H764 H 0.05134 0.61134 0.58522 0.0
H765 H 0.03266 0.6102 0.59757 0.0
H766 H 0.9129 0.51044 0.60566 0.0
H767 H 0.86953 0.54759 0.60701 0.0
H768 H 0.67471 0.04417 0.91841 0.0
H769 H 0.59377 0.00515 0.91703 0.0
H770 H 0.58924 0.09929 0.9368 0.0
H771 H 0.67019 0.13885 0.938 0.0
H772 H 0.5351 0.96694 0.9328 0.0
H773 H 0.50981 0.09352 0.91397 0.0
H774 H 0.56258 0.09563 0.91418 0.0
H775 H 0.54435 0.11346 0.92465 0.0
C776 C 0.65629 0.0567 0.92234 0.0
C777 C 0.67821 0.09413 0.92835 0.0
C778 C 0.61028 0.03447 0.92157 0.0
C779 C 0.58572 0.04968 0.92673 0.0
C780 C 0.60772 0.08752 0.93263 0.0
H781 H 0.31086 0.95483 0.93898 0.0
H782 H 0.39183 -0.00386 0.9378 0.0
C783 C 0.65373 0.10975 0.9334 0.0
C784 C 0.53695 0.02433 0.92646 0.0
H785 H 0.44584 0.03208 0.92083 0.0
C786 C 0.5155 0.98095 0.9301 0.0
C787 C 0.51172 0.04293 0.92296 0.0
C788 C 0.53322 0.08881 0.91863 0.0
C789 C 0.46927 0.95595 0.93058 0.0
C790 C 0.44403 0.97472 0.92718 0.0
C791 C 0.46545 0.01793 0.92344 0.0
C792 C 0.39529 0.95028 0.92766 0.0
C793 C 0.44786 0.91022 0.935 0.0
C794 C 0.3707 0.91126 0.92226 0.0
C795 C 0.32467 0.8876 0.92298 0.0
C796 C 0.30271 0.90287 0.92906 0.0
C797 C 0.32729 0.94231 0.93433 0.0
C798 C 0.37331 0.96595 0.93361 0.0
H799 H 0.47183 0.90477 0.93926 0.0
H800 H 0.42003 0.9045 0.93987 0.0
H801 H 0.43441 0.88526 0.92904 0.0
H802 H 0.38714 0.89905 0.91752 0.0
H803 H 0.30625 0.85711 0.91889 0.0
H804 H 0.33625 0.30817 0.25293 0.0
H805 H 0.37396 0.38921 0.25155 0.0
H806 H 0.48108 0.39989 0.26933 0.0
H807 H 0.44377 0.31909 0.27059 0.0
H808 H 0.39956 0.45055 0.26745 0.0
H809 H 0.54317 0.47655 0.24504 0.0
H810 H 0.49317 0.4235 0.24602 0.0
H811 H 0.53372 0.44254 0.25564 0.0
C812 C 0.36802 0.32802 0.25646 0.0
C813 C 0.38724 0.30787 0.2619 0.0
C814 C 0.38939 0.37407 0.25569 0.0
C815 C 0.43045 0.40033 0.26025 0.0
C816 C 0.44972 0.38009 0.26563 0.0
H817 H 0.61673 0.67172 0.2717 0.0
H818 H 0.57325 0.59092 0.27035 0.0
C819 C 0.42832 0.33414 0.26643 0.0
C820 C 0.45257 0.44903 0.25974 0.0
H821 H 0.54882 0.54035 0.25286 0.0
C822 C 0.43195 0.4703 0.26416 0.0
C823 C 0.49472 0.47445 0.25541 0.0
C824 C 0.51739 0.45316 0.25018 0.0
C825 C 0.45334 0.51659 0.26476 0.0
C826 C 0.49608 0.54197 0.26068 0.0
C827 C 0.51612 0.52067 0.25601 0.0
C828 C 0.52149 0.59063 0.26156 0.0
C829 C 0.43086 0.53789 0.27007 0.0
C830 C 0.50672 0.61701 0.25704 0.0
C831 C 0.53139 0.66304 0.25785 0.0
C832 C 0.57124 0.68314 0.26312 0.0
C833 C 0.58596 0.65674 0.26763 0.0
C834 C 0.56132 0.6108 0.26683 0.0
H835 H 0.40236 0.5136 0.27452 0.0
H836 H 0.45454 0.56477 0.27495 0.0
H837 H 0.41837 0.55267 0.26464 0.0
H838 H 0.47635 0.60203 0.25283 0.0
H839 H 0.51939 0.68295 0.25439 0.0
H840 H 0.34467 0.14183 0.22223 0.0
H841 H 0.34911 0.15137 0.20442 0.0
H842 H 0.22633 0.15285 0.20455 0.0
H843 H 0.22173 0.1437 0.22233 0.0
H844 H 0.28773 0.09677 0.18998 0.0
H845 H 0.31096 0.26607 0.18951 0.0
H846 H 0.3186 0.24146 0.20043 0.0
H847 H 0.26386 0.22683 0.19644 0.0
C848 C 0.31863 0.14426 0.21848 0.0
C849 C 0.28292 0.14219 0.22372 0.0
C850 C 0.32124 0.1497 0.2083 0.0
C851 C 0.28841 0.1535 0.20319 0.0
C852 C 0.25248 0.15088 0.20838 0.0
H853 H 0.22915 0.18138 0.1432 0.0
H854 H 0.23143 0.17443 0.16096 0.0
C855 C 0.2498 0.1454 0.21854 0.0
C856 C 0.29115 0.15933 0.1924 0.0
H857 H 0.29582 0.22869 0.17422 0.0
C858 C 0.28986 0.12574 0.18652 0.0
C859 C 0.29393 0.19718 0.18793 0.0
C860 C 0.29734 0.23517 0.19389 0.0
C861 C 0.28986 0.12834 0.17625 0.0
C862 C 0.29208 0.16597 0.17177 0.0
C863 C 0.29401 0.19983 0.17767 0.0
C864 C 0.29132 0.17042 0.16097 0.0
C865 C 0.28603 0.09013 0.1703 0.0
C866 C 0.3246 0.1711 0.15507 0.0
C867 C 0.32333 0.17493 0.14489 0.0
C868 C 0.28892 0.17854 0.14042 0.0
C869 C 0.25608 0.17861 0.14638 0.0
C870 C 0.25733 0.17466 0.15655 0.0
H871 H 0.27355 0.05958 0.17476 0.0
H872 H 0.26357 0.08304 0.16395 0.0
H873 H 0.31916 0.09873 0.16746 0.0
H874 H 0.35168 0.16885 0.15834 0.0
H875 H 0.34929 0.17501 0.14052 0.0
H876 H 0.16527 0.24678 0.47448 0.0
H877 H 0.16722 0.24916 0.49236 0.0
H878 H 0.10849 0.33244 0.49218 0.0
H879 H 0.1075 0.3312 0.47427 0.0
H880 H 0.17603 0.36178 0.5051 0.0
H881 H 0.0632 0.18207 0.51046 0.0
H882 H 0.1104 0.19406 0.50308 0.0
H883 H 0.0706 0.20853 0.49872 0.0
C884 C 0.15266 0.26553 0.47824 0.0
C885 C 0.13592 0.28854 0.47294 0.0
C886 C 0.15356 0.26664 0.48847 0.0
C887 C 0.13715 0.29021 0.49363 0.0
C888 C 0.12108 0.3138 0.48836 0.0
H889 H 0.07042 0.25645 0.55547 0.0
H890 H 0.06976 0.25842 0.5376 0.0
C891 C 0.12049 0.31301 0.47812 0.0
C892 C 0.1372 0.2907 0.50451 0.0
H893 H 0.10105 0.22358 0.5246 0.0
C894 C 0.15949 0.33158 0.50937 0.0
C895 C 0.11503 0.25133 0.51008 0.0
C896 C 0.08807 0.20655 0.50533 0.0
C897 C 0.1608 0.33414 0.51964 0.0
C898 C 0.14014 0.29465 0.52521 0.0
C899 C 0.11731 0.25383 0.52034 0.0
C900 C 0.14102 0.29478 0.53609 0.0
C901 C 0.1835 0.37916 0.52441 0.0
C902 C 0.18131 0.31432 0.54121 0.0
C903 C 0.1818 0.31359 0.55145 0.0
C904 C 0.14197 0.29268 0.55676 0.0
C905 C 0.1017 0.27279 0.55161 0.0
C906 C 0.10125 0.27387 0.54139 0.0
H907 H 0.18595 0.40519 0.51934 0.0
H908 H 0.16566 0.37952 0.53111 0.0
H909 H 0.2176 0.3878 0.52652 0.0
H910 H 0.21243 0.32966 0.53728 0.0
H911 H 0.21338 0.32892 0.55519 0.0
H912 H 0.9064 0.17214 0.80818 0.0
H913 H 0.9056 0.17319 0.82605 0.0
H914 H 0.76298 0.10439 0.82581 0.0
H915 H 0.76348 0.10418 0.80788 0.0
H916 H 0.79691 0.17173 0.83895 0.0
H917 H 0.87612 0.0694 0.84377 0.0
H918 H 0.90862 0.11775 0.83647 0.0
H919 H 0.85549 0.0754 0.8321 0.0
C920 C 0.87482 0.15714 0.81191 0.0
C921 C 0.83498 0.13775 0.8066 0.0
C922 C 0.87443 0.15756 0.82214 0.0
C923 C 0.83422 0.13803 0.82728 0.0
C924 C 0.7944 0.11939 0.822 0.0
H925 H 0.80894 0.07052 0.88909 0.0
H926 H 0.80471 0.06957 0.87123 0.0
C927 C 0.79475 0.11925 0.81175 0.0
C928 C 0.83376 0.13743 0.83815 0.0
H929 H 0.86976 0.10501 0.85804 0.0
C930 C 0.81265 0.15696 0.84314 0.0
C931 C 0.85368 0.11752 0.84361 0.0
C932 C 0.87436 0.09343 0.83872 0.0
C933 C 0.81163 0.15786 0.85342 0.0
C934 C 0.83322 0.13964 0.85886 0.0
C935 C 0.85363 0.11942 0.85387 0.0
C936 C 0.83463 0.14056 0.86974 0.0
C937 C 0.78669 0.17756 0.85832 0.0
C938 C 0.85311 0.18081 0.87486 0.0
C939 C 0.85522 0.18142 0.88509 0.0
C940 C 0.83952 0.14182 0.89039 0.0
C941 C 0.82139 0.10162 0.88524 0.0
C942 C 0.81894 0.10101 0.87502 0.0
H943 H 0.76163 0.17782 0.85335 0.0
H944 H 0.76974 0.15899 0.86506 0.0
H945 H 0.8103 0.2123 0.8604 0.0
H946 H 0.86648 0.21184 0.87094 0.0
H947 H 0.86969 0.21297 0.88884 0.0
H948 H 0.72684 0.91048 0.14208 0.0
H949 H 0.72549 0.90975 0.15996 0.0
H950 H 0.65291 0.7671 0.15974 0.0
H951 H 0.65304 0.76755 0.14181 0.0
H952 H 0.61926 0.7998 0.17295 0.0
H953 H 0.80097 0.88207 0.17761 0.0
H954 H 0.7843 0.91415 0.17039 0.0
H955 H 0.77438 0.8614 0.16594 0.0
C956 C 0.71066 0.87891 0.14582 0.0
C957 C 0.69035 0.83906 0.14051 0.0
C958 C 0.71014 0.87856 0.15606 0.0
C959 C 0.68995 0.83837 0.1612 0.0
C960 C 0.66895 0.79851 0.15592 0.0
H961 H 0.73534 0.81579 0.22299 0.0
H962 H 0.73166 0.81121 0.20514 0.0
C963 C 0.66911 0.79883 0.14568 0.0
C964 C 0.69032 0.83793 0.17208 0.0
H965 H 0.75901 0.87526 0.19192 0.0
C966 C 0.64982 0.8161 0.1771 0.0
C967 C 0.73022 0.85857 0.17751 0.0
C968 C 0.77493 0.87997 0.17259 0.0
C969 C 0.64809 0.81505 0.18738 0.0
C970 C 0.68793 0.83741 0.1928 0.0
C971 C 0.72844 0.85855 0.18778 0.0
C972 C 0.6886 0.83891 0.20368 0.0
C973 C 0.60363 0.78922 0.19232 0.0
C974 C 0.66581 0.85624 0.20884 0.0
C975 C 0.66749 0.85849 0.21907 0.0
C976 C 0.69264 0.84416 0.22434 0.0
C977 C 0.71572 0.82719 0.21916 0.0
C978 C 0.71366 0.82454 0.20895 0.0
H979 H 0.57868 0.76366 0.18737 0.0
H980 H 0.60587 0.77273 0.19907 0.0
H981 H 0.59158 0.81215 0.19436 0.0
H982 H 0.64722 0.86865 0.20494 0.0
H983 H 0.64963 0.87207 0.22284 0.0
H984 H 0.86824 0.65033 0.47467 0.0
H985 H 0.86567 0.64814 0.49257 0.0
H986 H 0.82041 0.74276 0.49269 0.0
H987 H 0.82439 0.74627 0.47483 0.0
H988 H 0.88304 0.76423 0.50591 0.0
H989 H 0.75993 0.5864 0.51011 0.0
H990 H 0.8073 0.59539 0.50316 0.0
H991 H 0.77142 0.6143 0.49845 0.0
C992 C 0.85757 0.67053 0.47851 0.0
C993 C 0.84643 0.69841 0.47333 0.0
C994 C 0.85579 0.66899 0.48875 0.0
C995 C 0.842 0.69462 0.49399 0.0
C996 C 0.83097 0.72253 0.48882 0.0
H997 H 0.76782 0.65989 0.55561 0.0
H998 H 0.76877 0.66078 0.53769 0.0
C999 C 0.83326 0.7245 0.4786 0.0
C1000 C 0.84048 0.69363 0.50488 0.0
H1001 H 0.79782 0.62475 0.52459 0.0
C1002 C 0.86421 0.73373 0.50999 0.0
C1003 C 0.81538 0.65395 0.51022 0.0
C1004 C 0.7867 0.61015 0.50521 0.0
C1005 C 0.864 0.73523 0.52026 0.0
C1006 C 0.84052 0.69532 0.52561 0.0
C1007 C 0.81628 0.65528 0.5205 0.0
C1008 C 0.84015 0.69446 0.53649 0.0
C1009 C 0.88813 0.77975 0.52524 0.0
C1010 C 0.87987 0.71242 0.5418 0.0
C1011 C 0.87943 0.71248 0.55204 0.0
C1012 C 0.83919 0.69378 0.55718 0.0
C1013 C 0.79938 0.67465 0.55186 0.0
C1014 C 0.79987 0.6751 0.54162 0.0
H1015 H 0.89242 0.80679 0.52026 0.0
H1016 H 0.87024 0.78058 0.53189 0.0
H1017 H 0.92155 0.78656 0.52745 0.0
H1018 H 0.91131 0.72634 0.53803 0.0
H1019 H 0.91066 0.72694 0.55591 0.0
H1020 H 0.17368 0.81907 0.89015 0.0
H1021 H 0.18457 0.82752 0.87239 0.0
H1022 H 0.05491 0.8124 0.869 0.0
H1023 H 0.04378 0.80421 0.8867 0.0
H1024 H 0.13292 0.76836 0.8572 0.0
H1025 H 0.13655 0.92876 0.85452 0.0
H1026 H 0.14315 0.90698 0.86599 0.0
H1027 H 0.089 0.88642 0.86081 0.0
C1028 C 0.14747 0.81755 0.88563 0.0
C1029 C 0.10791 0.81116 0.88986 0.0
C1030 C 0.15377 0.82237 0.87548 0.0
C1031 C 0.12083 0.82128 0.8694 0.0
C1032 C 0.08109 0.81421 0.87358 0.0
H1033 H 0.07658 0.83608 0.80791 0.0
H1034 H 0.07356 0.82984 0.82574 0.0
C1035 C 0.07471 0.80929 0.88371 0.0
C1036 C 0.12762 0.82694 0.85866 0.0
H1037 H 0.13098 0.89156 0.83953 0.0
C1038 C 0.13291 0.79548 0.85333 0.0
C1039 C 0.12767 0.86243 0.85364 0.0
C1040 C 0.12421 0.89834 0.85903 0.0
C1041 C 0.1367 0.79772 0.84307 0.0
C1042 C 0.1359 0.83277 0.83805 0.0
C1043 C 0.13142 0.86464 0.8434 0.0
C1044 C 0.13823 0.83628 0.82721 0.0
C1045 C 0.14001 0.76176 0.83767 0.0
C1046 C 0.17583 0.8424 0.82211 0.0
C1047 C 0.17768 0.84599 0.81189 0.0
C1048 C 0.14202 0.8437 0.80659 0.0
C1049 C 0.10459 0.8379 0.81175 0.0
C1050 C 0.10281 0.83437 0.82195 0.0
H1051 H 0.13014 0.73223 0.84235 0.0
H1052 H 0.11888 0.75141 0.83102 0.0
H1053 H 0.17475 0.77455 0.83533 0.0
H1054 H 0.20387 0.84477 0.82605 0.0
H1055 H 0.20705 0.85057 0.80815 0.0
H1056 H 0.60027 0.66595 0.111 0.0
H1057 H 0.55193 0.58631 0.10918 0.0
H1058 H 0.5526 0.60112 0.07784 0.0
H1059 H 0.60118 0.68123 0.07954 0.0
H1060 H 0.46523 0.5462 0.09935 0.0
H1061 H 0.58217 0.49946 0.08284 0.0
H1062 H 0.60107 0.5501 0.08967 0.0
H1063 H 0.57962 0.54536 0.07753 0.0
C1064 C 0.59062 0.65241 0.10369 0.0
C1065 C 0.60464 0.68011 0.09541 0.0
C1066 C 0.5629 0.60685 0.10268 0.0
C1067 C 0.54893 0.58795 0.09339 0.0
C1068 C 0.56346 0.61515 0.08507 0.0
H1069 H 0.38118 0.3066 0.07949 0.0
H1070 H 0.42616 0.38709 0.07794 0.0
C1071 C 0.59113 0.6609 0.08607 0.0
C1072 C 0.51747 0.53998 0.09253 0.0
H1073 H 0.50929 0.4421 0.08571 0.0
C1074 C 0.4747 0.52339 0.09632 0.0
C1075 C 0.52992 0.51057 0.08848 0.0
C1076 C 0.57573 0.52696 0.08443 0.0
C1077 C 0.44416 0.4779 0.09632 0.0
C1078 C 0.45716 0.44822 0.09264 0.0
C1079 C 0.49948 0.46495 0.08855 0.0
C1080 C 0.42828 0.39966 0.0935 0.0
C1081 C 0.39825 0.46209 0.10025 0.0
C1082 C 0.41478 0.38008 0.10276 0.0
C1083 C 0.389 0.33422 0.10368 0.0
C1084 C 0.37651 0.30688 0.09535 0.0
C1085 C 0.39002 0.32663 0.08606 0.0
C1086 C 0.4158 0.37261 0.08515 0.0
H1087 H 0.3893 0.48846 0.09984 0.0
H1088 H 0.37312 0.4327 0.09617 0.0
H1089 H 0.397 0.45278 0.10806 0.0
H1090 H 0.42489 0.40025 0.10932 0.0
H1091 H 0.37952 0.32022 0.11095 0.0
H1092 H 0.05973 0.37845 0.41324 0.0
H1093 H 0.0269 0.4261 0.41234 0.0
H1094 H 0.01772 0.42518 0.44382 0.0
H1095 H 0.05045 0.37773 0.44485 0.0
H1096 H 0.94281 0.4125 0.42067 0.0
H1097 H 0.09233 0.55868 0.43573 0.0
H1098 H 0.09354 0.51148 0.43066 0.0
H1099 H 0.07211 0.50872 0.44276 0.0
C1100 C 0.05042 0.38807 0.41998 0.0
C1101 C 0.05806 0.37451 0.42913 0.0
C1102 C 0.03169 0.41528 0.41943 0.0
C1103 C 0.02063 0.42959 0.42802 0.0
C1104 C 0.02673 0.41494 0.43712 0.0
H1105 H 0.91974 0.59876 0.44496 0.0
H1106 H 0.95174 0.55073 0.44376 0.0
C1107 C 0.04527 0.38766 0.43769 0.0
C1108 C 0.00351 0.46062 0.42752 0.0
H1109 H 0.02784 0.56464 0.43414 0.0
C1110 C 0.96142 0.44591 0.42353 0.0
C1111 C 0.0281 0.50411 0.43125 0.0
C1112 C 0.07421 0.52198 0.43527 0.0
C1113 C 0.94248 0.47318 0.4235 0.0
C1114 C 0.9668 0.51648 0.42739 0.0
C1115 C 0.00929 0.5314 0.43119 0.0
C1116 C 0.94815 0.54629 0.42795 0.0
C1117 C 0.89605 0.45489 0.41964 0.0
C1118 C 0.93631 0.56037 0.41944 0.0
C1119 C 0.91788 0.58781 0.42009 0.0
C1120 C 0.91128 0.60189 0.42928 0.0
C1121 C 0.92425 0.58853 0.43777 0.0
C1122 C 0.94255 0.56105 0.4371 0.0
H1123 H 0.87836 0.41824 0.41907 0.0
H1124 H 0.8766 0.46461 0.42443 0.0
H1125 H 0.89746 0.46849 0.41222 0.0
H1126 H 0.94127 0.55011 0.41229 0.0
H1127 H 0.90849 0.59765 0.4134 0.0
H1128 H 0.31953 0.93692 0.7767 0.0
H1129 H 0.39947 0.96867 0.77485 0.0
H1130 H 0.38105 0.9235 0.74494 0.0
H1131 H 0.30094 0.89189 0.74665 0.0
H1132 H 0.43707 0.90144 0.75949 0.0
H1133 H 0.48457 0.07863 0.75578 0.0
H1134 H 0.44444 0.0466 0.76504 0.0
H1135 H 0.43048 0.034 0.75236 0.0
C1136 C 0.3324 0.93393 0.7697 0.0
C1137 C 0.3038 0.91189 0.76181 0.0
C1138 C 0.37807 0.95216 0.76866 0.0
C1139 C 0.39593 0.94846 0.75976 0.0
C1140 C 0.36771 0.92672 0.75186 0.0
H1141 H 0.67836 0.0778 0.74621 0.0
H1142 H 0.59785 0.04263 0.74458 0.0
C1143 C 0.32202 0.90884 0.75285 0.0
C1144 C 0.44406 0.96625 0.75885 0.0
H1145 H 0.54269 0.06287 0.75781 0.0
C1146 C 0.46024 0.93667 0.75904 0.0
C1147 C 0.47392 0.01217 0.7582 0.0
C1148 C 0.45774 0.04492 0.75777 0.0
C1149 C 0.50588 0.95208 0.75891 0.0
C1150 C 0.53581 -0.00189 0.7586 0.0
C1151 C 0.51955 0.02758 0.75807 0.0
C1152 C 0.58416 0.01651 0.75932 0.0
C1153 C 0.52189 0.91917 0.75919 0.0
C1154 C 0.6029 0.01326 0.76813 0.0
C1155 C 0.64878 0.03353 0.76912 0.0
C1156 C 0.67679 0.05732 0.76129 0.0
C1157 C 0.65776 0.05957 0.75237 0.0
C1158 C 0.61182 0.03961 0.75143 0.0
H1159 H 0.49518 0.88526 0.75729 0.0
H1160 H 0.54998 0.92905 0.75406 0.0
H1161 H 0.53376 0.91834 0.76668 0.0
H1162 H 0.58204 -0.00404 0.77434 0.0
H1163 H 0.6623 0.03111 0.77608 0.0
H1164 H 0.67695 0.59926 0.61752 0.0
H1165 H 0.59712 0.54863 0.61908 0.0
H1166 H 0.58439 0.54162 0.58765 0.0
H1167 H 0.66376 0.59197 0.58598 0.0
H1168 H 0.52474 0.55834 0.61087 0.0
H1169 H 0.52794 0.41044 0.59701 0.0
H1170 H 0.57674 0.45899 0.6015 0.0
H1171 H 0.55633 0.4587 0.58941 0.0
C1172 C 0.65716 0.58709 0.61094 0.0
C1173 C 0.67685 0.59956 0.60162 0.0
C1174 C 0.61161 0.55816 0.61185 0.0
C1175 C 0.58516 0.54093 0.60348 0.0
C1176 C 0.60447 0.55403 0.5942 0.0
H1177 H 0.31747 0.37582 0.58602 0.0
H1178 H 0.39752 0.42071 0.58785 0.0
C1179 C 0.64984 0.58304 0.59326 0.0
C1180 C 0.53719 0.50948 0.60436 0.0
H1181 H 0.45727 0.40497 0.59812 0.0
C1182 C 0.50989 0.5246 0.60821 0.0
C1183 C 0.51818 0.46556 0.60089 0.0
C1184 C 0.54627 0.44719 0.59704 0.0
C1185 C 0.46367 0.4975 0.60825 0.0
C1186 C 0.44454 0.45391 0.60452 0.0
C1187 C 0.47204 0.43841 0.60096 0.0
C1188 C 0.39603 0.42487 0.60364 0.0
C1189 C 0.43567 0.51639 0.61188 0.0
C1190 C 0.36869 0.41148 0.61194 0.0
C1191 C 0.32275 0.38585 0.61092 0.0
C1192 C 0.30341 0.37293 0.60158 0.0
C1193 C 0.33113 0.38524 0.59332 0.0
C1194 C 0.37695 0.4109 0.59435 0.0
H1195 H 0.45499 0.55301 0.61251 0.0
H1196 H 0.40722 0.50725 0.6069 0.0
H1197 H 0.42239 0.50265 0.61923 0.0
H1198 H 0.38285 0.42116 0.61919 0.0
H1199 H 0.30243 0.37675 0.61745 0.0
H1200 H 0.06177 0.6685 0.91841 0.0
H1201 H 0.03006 0.58841 0.91956 0.0
H1202 H 0.03296 0.59695 0.95106 0.0
H1203 H 0.06453 0.67709 0.95003 0.0
H1204 H 0.07103 0.54491 0.9296 0.0
H1205 H 0.90467 0.49814 0.94438 0.0
H1206 H 0.93946 0.55046 0.93839 0.0
H1207 H 0.95131 0.54172 0.95071 0.0
C1208 C 0.05528 0.65339 0.92559 0.0
C1209 C 0.06567 0.67928 0.93413 0.0
C1210 C 0.03726 0.60764 0.92622 0.0
C1211 C 0.02894 0.58688 0.93538 0.0
C1212 C 0.03863 0.61238 0.94392 0.0
H1213 H 0.91498 0.30741 0.95027 0.0
H1214 H 0.95073 0.38809 0.95127 0.0
C1215 C 0.0568 0.65819 0.94331 0.0
C1216 C 0.01178 0.53873 0.93597 0.0
H1217 H 0.92165 0.44099 0.94264 0.0
C1218 C 0.0384 0.52213 0.93246 0.0
C1219 C 0.96941 0.50933 0.9398 0.0
C1220 C 0.93927 0.52557 0.94348 0.0
C1221 C 0.02364 0.47667 0.93262 0.0
C1222 C 0.98077 0.44709 0.93619 0.0
C1223 C 0.95451 0.4638 0.9399 0.0
C1224 C 0.9616 0.39854 0.93567 0.0
C1225 C 0.05422 0.46079 0.92902 0.0
C1226 C 0.95586 0.37779 0.92657 0.0
C1227 C 0.93562 0.33184 0.92596 0.0
C1228 C 0.92032 0.30562 0.93445 0.0
C1229 C 0.92649 0.32658 0.94359 0.0
C1230 C 0.94682 0.37265 0.94418 0.0
H1231 H 0.08941 0.48744 0.92939 0.0
H1232 H 0.05012 0.43208 0.93336 0.0
H1233 H 0.04641 0.45035 0.92126 0.0
H1234 H 0.96616 0.3971 0.91989 0.0
H1235 H 0.93123 0.31688 0.91879 0.0
H1236 H 0.61107 0.93224 0.28352 0.0
H1237 H 0.56711 0.96903 0.28421 0.0
H1238 H 0.56645 0.97438 0.25267 0.0
H1239 H 0.61098 0.93835 0.25188 0.0
H1240 H 0.58095 0.05248 0.26163 0.0
H1241 H 0.43513 0.90541 0.2776 0.0
H1242 H 0.48553 0.92535 0.28443 0.0
H1243 H 0.48128 0.90281 0.27239 0.0
C1244 C 0.60192 0.94155 0.27672 0.0
C1245 C 0.61426 0.93195 0.26763 0.0
C1246 C 0.57655 0.96232 0.27714 0.0
C1247 C 0.56277 0.97356 0.26849 0.0
C1248 C 0.5765 0.96568 0.25943 0.0
H1249 H 0.39209 0.07418 0.25107 0.0
H1250 H 0.44309 0.04548 0.25199 0.0
C1251 C 0.60196 0.94505 0.259 0.0
C1252 C 0.53316 -0.00745 0.26882 0.0
H1253 H 0.42961 0.96967 0.27557 0.0
C1254 C 0.54788 0.03444 0.26469 0.0
C1255 C 0.49003 0.96886 0.27281 0.0
C1256 C 0.47177 0.92296 0.27699 0.0
C1257 C 0.52062 0.05335 0.26446 0.0
C1258 C 0.47733 0.02942 0.26834 0.0
C1259 C 0.46285 0.98787 0.27261 0.0
C1260 C 0.44615 0.04646 0.26782 0.0
C1261 C 0.53845 0.09894 0.26015 0.0
C1262 C 0.43004 0.05531 0.27642 0.0
C1263 C 0.40071 0.07156 0.27593 0.0
C1264 C 0.38666 0.07889 0.26681 0.0
C1265 C 0.40226 0.06907 0.25821 0.0
C1266 C 0.43167 0.05296 0.25872 0.0
H1267 H 0.57516 0.11716 0.25979 0.0
H1268 H 0.52561 0.09589 0.25258 0.0
H1269 H 0.52758 0.1187 0.26449 0.0
H1270 H 0.4406 0.05014 0.28352 0.0
H1271 H 0.38933 0.07867 0.28271 0.0
H1272 H 0.17212 0.10807 0.11385 0.0
H1273 H 0.09189 0.05944 0.11399 0.0
H1274 H 0.09133 0.05209 0.08247 0.0
H1275 H 0.17158 0.10029 0.08223 0.0
H1276 H 0.02457 0.0689 0.10502 0.0
H1277 H 0.0291 0.92182 0.09099 0.0
H1278 H 0.07764 0.97024 0.09559 0.0
H1279 H 0.05761 0.97028 0.08347 0.0
C1280 C 0.15498 0.09633 0.10693 0.0
C1281 C 0.17838 0.10776 0.09802 0.0
C1282 C 0.10914 0.06852 0.10704 0.0
C1283 C 0.08592 0.05153 0.09826 0.0
C1284 C 0.10886 0.06409 0.08934 0.0
H1285 H 0.81206 0.8787 0.08292 0.0
H1286 H 0.8923 0.92684 0.08314 0.0
C1287 C 0.1547 0.09185 0.08922 0.0
C1288 C 0.03767 0.02055 0.09845 0.0
H1289 H 0.95839 0.91547 0.09237 0.0
C1290 C 0.01004 0.03529 0.1023 0.0
C1291 C 0.019 0.97673 0.09491 0.0
C1292 C 0.04733 0.95857 0.09108 0.0
C1293 C 0.96397 0.00759 0.10251 0.0
C1294 C 0.94528 0.96385 0.09892 0.0
C1295 C 0.97293 0.94905 0.09511 0.0
C1296 C 0.89697 0.93318 0.09891 0.0
C1297 C 0.93561 0.02569 0.10635 0.0
C1298 C 0.87327 0.91991 0.10773 0.0
C1299 C 0.82735 0.89255 0.10763 0.0
C1300 C 0.80438 0.87788 0.09871 0.0
C1301 C 0.82855 0.88994 0.08991 0.0
C1302 C 0.87444 0.9173 0.09002 0.0
H1303 H 0.95404 0.06242 0.10664 0.0
H1304 H 0.90575 0.01471 0.10172 0.0
H1305 H 0.92455 0.01316 0.11388 0.0
H1306 H 0.89025 0.9311 0.11468 0.0
H1307 H 0.80983 0.88372 0.11455 0.0
H1308 H 0.0598 0.17007 0.44623 0.0
H1309 H 0.02883 0.08998 0.44579 0.0
H1310 H 0.02982 0.09296 0.41422 0.0
H1311 H 0.06137 0.17316 0.41456 0.0
H1312 H 0.95078 0.02455 0.43736 0.0
H1313 H 0.09768 0.02846 0.42056 0.0
H1314 H 0.0995 0.07699 0.42571 0.0
H1315 H 0.07611 0.05759 0.41377 0.0
C1316 C 0.05331 0.15375 0.43918 0.0
C1317 C 0.06337 0.17809 0.43042 0.0
C1318 C 0.03567 0.10799 0.43895 0.0
C1319 C 0.02788 0.08579 0.42998 0.0
C1320 C 0.0366 0.1097 0.42122 0.0
H1321 H 0.91626 0.80907 0.41469 0.0
H1322 H 0.94956 0.88959 0.41445 0.0
C1323 C 0.05436 0.15549 0.42144 0.0
C1324 C 0.01023 0.03749 0.42981 0.0
H1325 H 0.03363 0.9579 0.42245 0.0
C1326 C 0.96891 0.00994 0.43413 0.0
C1327 C 0.03408 0.0187 0.42558 0.0
C1328 C 0.07948 0.04691 0.42121 0.0
C1329 C 0.95049 0.9639 0.43424 0.0
C1330 C 0.97436 0.94514 0.43004 0.0
C1331 C 0.01554 0.97259 0.42566 0.0
C1332 C 0.957 0.89696 0.43017 0.0
C1333 C 0.90535 0.9356 0.43873 0.0
C1334 C 0.95141 0.87485 0.43907 0.0
C1335 C 0.9325 0.82894 0.43925 0.0
C1336 C 0.91892 0.80438 0.43051 0.0
C1337 C 0.92615 0.82694 0.42156 0.0
C1338 C 0.94516 0.8729 0.42139 0.0
H1339 H 0.88734 0.95413 0.43963 0.0
H1340 H 0.88498 0.90587 0.43417 0.0
H1341 H 0.90914 0.92427 0.44607 0.0
H1342 H 0.96108 0.89308 0.4459 0.0
H1343 H 0.92763 0.81269 0.44627 0.0
H1344 H 0.8832 0.06154 0.74941 0.0
H1345 H 0.9325 0.03074 0.74977 0.0
H1346 H 0.93157 0.03238 0.78134 0.0
H1347 H 0.88183 0.06269 0.78108 0.0
H1348 H 0.01662 0.06934 0.75806 0.0
H1349 H 0.90406 0.90666 0.77517 0.0
H1350 H 0.88441 0.94139 0.77005 0.0
H1351 H 0.90987 0.95337 0.78194 0.0
C1352 C 0.8931 0.05499 0.75644 0.0
C1353 C 0.87845 0.06452 0.76522 0.0
C1354 C 0.92133 0.03744 0.75662 0.0
C1355 C 0.93529 0.02888 0.76557 0.0
C1356 C 0.92049 0.03796 0.77435 0.0
H1357 H 0.11114 0.92926 0.78084 0.0
H1358 H 0.06542 0.96417 0.78111 0.0
C1359 C 0.89215 0.05542 0.77418 0.0
C1360 C 0.96672 0.01209 0.7657 0.0
H1361 H 0.97904 0.92567 0.77326 0.0
C1362 C 0.0084 0.03787 0.76135 0.0
C1363 C 0.95589 0.97112 0.77005 0.0
C1364 C 0.911 0.94128 0.77449 0.0
C1365 C 0.03977 0.02391 0.7613 0.0
C1366 C 0.02883 0.98286 0.7656 0.0
C1367 C 0.9873 0.95723 0.77001 0.0
C1368 C 0.05946 0.96513 0.76536 0.0
C1369 C 0.08453 0.05344 0.75677 0.0
C1370 C 0.07143 0.95443 0.7564 0.0
C1371 C 0.09757 0.9345 0.75621 0.0
C1372 C 0.11201 0.9247 0.76498 0.0
C1373 C 0.10073 0.93644 0.77394 0.0
C1374 C 0.07451 0.95629 0.77412 0.0
H1375 H 0.09171 0.08814 0.75611 0.0
H1376 H 0.11114 0.05307 0.76115 0.0
H1377 H 0.08526 0.04121 0.74931 0.0
H1378 H 0.05951 0.96033 0.74957 0.0
H1379 H 0.10555 0.92587 0.74919 0.0
H1380 H 0.87429 0.81282 0.61485 0.0
H1381 H 0.92018 0.89334 0.61456 0.0
H1382 H 0.91499 0.89191 0.58302 0.0
H1383 H 0.8694 0.81131 0.58319 0.0
H1384 H 0.00142 0.93932 0.59112 0.0
H1385 H 0.88783 0.9891 0.60789 0.0
H1386 H 0.89387 0.94826 0.61464 0.0
H1387 H 0.86859 0.9348 0.60274 0.0
C1388 C 0.88239 0.82959 0.60785 0.0
C1389 C 0.86821 0.80556 0.59904 0.0
C1390 C 0.90844 0.87564 0.60771 0.0
C1391 C 0.92058 0.89847 0.59877 0.0
C1392 C 0.90575 0.87478 0.58998 0.0
H1393 H 0.09789 0.17256 0.58272 0.0
H1394 H 0.04834 0.09254 0.58267 0.0
C1395 C 0.87962 0.82874 0.59011 0.0
C1396 C 0.95119 0.94676 0.59858 0.0
H1397 H 0.96271 0.04546 0.60588 0.0
C1398 C -0.00706 0.96263 0.59428 0.0
C1399 C 0.93996 0.97686 0.60278 0.0
C1400 C 0.895 0.96157 0.60721 0.0
C1401 C 0.02423 0.00792 0.59423 0.0
C1402 C 0.01303 0.03807 0.59842 0.0
C1403 C 0.97118 0.02219 0.60269 0.0
C1404 C 0.04419 0.08631 0.59845 0.0
C1405 C 0.06934 0.02296 0.5899 0.0
C1406 C 0.05777 0.10936 0.60734 0.0
C1407 C 0.08588 0.15514 0.60741 0.0
C1408 C 0.10078 0.17874 0.59857 0.0
C1409 C 0.08738 0.15541 0.58967 0.0
C1410 C 0.05916 0.10963 0.58961 0.0
H1411 H 0.07653 -0.00462 0.5894 0.0
H1412 H 0.07065 0.03565 0.58239 0.0
H1413 H 0.09567 0.05001 0.59432 0.0
H1414 H 0.04644 0.09191 0.61424 0.0
H1415 H 0.09552 0.17204 0.6144 0.0
H1416 H 0.92055 0.10248 0.91649 0.0
H1417 H 0.9522 0.05387 0.91669 0.0
H1418 H 0.95024 0.05323 0.94826 0.0
H1419 H 0.91888 0.10212 0.94818 0.0
H1420 H 0.03092 0.06623 0.93941 0.0
H1421 H 0.88059 0.92089 0.92431 0.0
H1422 H 0.90113 0.97113 0.91737 0.0
H1423 H 0.87972 0.96808 0.92948 0.0
C1424 C 0.92709 0.09229 0.92349 0.0
C1425 C 0.91692 0.10599 0.93232 0.0
C1426 C 0.9449 0.0643 0.92358 0.0
C1427 C 0.95275 0.04948 0.93249 0.0
C1428 C 0.94404 0.06415 0.94131 0.0
H1429 H 0.06064 0.88138 0.94852 0.0
H1430 H 0.02747 0.92863 0.94867 0.0
C1431 C 0.92614 0.09207 0.94124 0.0
C1432 C 0.96992 0.01847 0.9326 0.0
H1433 H 0.94427 0.91385 0.92614 0.0
C1434 C 0.012 0.03284 0.93655 0.0
C1435 C 0.94498 0.97504 0.92885 0.0
C1436 C 0.89893 0.95757 0.92483 0.0
C1437 C 0.03031 0.00508 0.93669 0.0
C1438 C 0.00535 0.96159 0.93295 0.0
C1439 C 0.9632 0.94721 0.92901 0.0
C1440 C 0.0228 0.93078 0.9329 0.0
C1441 C 0.0766 0.0229 0.9406 0.0
C1442 C 0.02941 0.91493 0.924 0.0
C1443 C 0.04799 0.88761 0.92388 0.0
C1444 C 0.06018 0.87558 0.93267 0.0
C1445 C 0.05195 0.89026 0.94161 0.0
C1446 C 0.03328 0.9175 0.94171 0.0
H1447 H 0.09505 0.05963 0.94088 0.0
H1448 H 0.07482 0.01038 0.94815 0.0
H1449 H 0.09551 0.01177 0.93602 0.0
H1450 H 0.02118 0.9246 0.91713 0.0
H1451 H 0.05372 0.8768 0.91687 0.0
H1452 H 0.16858 0.05331 0.25065 0.0
H1453 H 0.08798 0.01751 0.25132 0.0
H1454 H 0.09294 0.01974 0.28288 0.0
H1455 H 0.17358 0.0561 0.28231 0.0
H1456 H 0.02335 0.93854 0.26012 0.0
H1457 H 0.02667 0.08604 0.27647 0.0
H1458 H 0.07502 0.08814 0.27115 0.0
H1459 H 0.05691 0.06554 0.2832 0.0
C1460 C 0.15258 0.04588 0.25774 0.0
C1461 C 0.17762 0.05804 0.26643 0.0
C1462 C 0.10651 0.02542 0.25811 0.0
C1463 C 0.08467 0.01684 0.26714 0.0
C1464 C 0.10931 0.02701 0.27583 0.0
H1465 H 0.80859 0.91354 0.2826 0.0
H1466 H 0.88838 0.94189 0.28286 0.0
C1467 C 0.15539 0.04758 0.27548 0.0
C1468 C 0.03622 -0.00157 0.26745 0.0
H1469 H 0.95651 0.02193 0.27465 0.0
C1470 C 0.00868 0.95672 0.26329 0.0
C1471 C 0.0173 0.02236 0.27159 0.0
C1472 C 0.04543 0.06817 0.27578 0.0
C1473 C 0.96254 0.93806 0.26323 0.0
C1474 C 0.94369 0.96212 0.26731 0.0
C1475 C 0.97119 0.00363 0.27155 0.0
C1476 C 0.89549 0.94512 0.2671 0.0
C1477 C 0.9343 0.89254 0.25891 0.0
C1478 C 0.87336 0.93843 0.25815 0.0
C1479 C 0.82783 0.92237 0.25796 0.0
C1480 C 0.80362 0.91285 0.26673 0.0
C1481 C 0.82615 0.92041 0.2757 0.0
C1482 C 0.87172 0.93656 0.27588 0.0
H1483 H 0.95268 0.87424 0.25835 0.0
H1484 H 0.90411 0.87278 0.26339 0.0
H1485 H 0.92378 0.89572 0.25144 0.0
H1486 H 0.89134 0.94571 0.2513 0.0
H1487 H 0.81159 0.91705 0.25092 0.0
loop_
_geom_bond_atom_site_label_1
_geom_bond_atom_site_label_2
_geom_bond_distance
_geom_bond_site_symmetry_2
_ccdc_geom_bond_type
Co0 O3 1.970 . S
Co0 N17 1.989 . S
Co0 O25 1.967 . S
Co0 O32 1.920 . S
Co1 O4 1.966 . S
Co1 N10 2.022 . S
Co1 N18 1.993 . S
Co1 O26 1.941 . S
C2 O3 1.258 . S
C2 O4 1.263 . S
O3 Co0 1.970 . S
O3 C2 1.258 . S
O4 Co1 1.966 . S
O4 C2 1.263 . S
C5 O6 1.235 . S
C5 O32 1.289 . S
O6 C5 1.235 . S
C7 C9 1.400 . S
C7 N10 1.351 . S
C7 C12 1.501 . S
C8 C9 1.387 . S
C8 N11 1.341 . S
C9 C7 1.400 . S
C9 C8 1.387 . S
N10 Co1 2.022 . S
N10 C7 1.351 . S
N10 N11 1.365 . S
N11 C8 1.341 . S
N11 N10 1.365 . S
N11 H31 0.862 . S
C12 C7 1.501 . S
C12 H13 0.961 . S
C12 H14 0.961 . S
C12 H15 0.960 . S
H13 C12 0.961 . S
H14 C12 0.961 . S
H15 C12 0.960 . S
C16 N17 1.342 . S
C16 C20 1.401 . S
C16 C21 1.499 . S
N17 Co0 1.989 . S
N17 C16 1.342 . S
N17 N18 1.388 . S
N18 Co1 1.993 . S
N18 N17 1.388 . S
N18 C19 1.346 . S
C19 N18 1.346 . S
C19 C20 1.396 . S
C19 C29 1.510 . S
C20 C16 1.401 . S
C20 C19 1.396 . S
C21 C16 1.499 . S
C21 H22 0.959 . S
C21 H23 0.960 . S
C21 H24 0.961 . S
H22 C21 0.959 . S
H23 C21 0.960 . S
H24 C21 0.961 . S
O25 Co0 1.967 . S
O25 C33 1.258 . S
O26 Co1 1.941 . S
O26 C33 1.266 . S
H27 C29 0.959 . S
H28 C29 0.961 . S
C29 C19 1.510 . S
C29 H27 0.959 . S
C29 H28 0.961 . S
C29 H30 0.960 . S
H30 C29 0.960 . S
H31 N11 0.862 . S
O32 Co0 1.920 . S
O32 C5 1.289 . S
C33 O25 1.258 . S
C33 O26 1.266 . S
Co34 O37 1.970 . S
Co34 N51 1.989 . S
Co34 O59 1.967 . S
Co34 O66 1.920 . S
Co35 O38 1.966 . S
Co35 N44 2.022 . S
Co35 N52 1.993 . S
Co35 O60 1.941 . S
C36 O37 1.258 . S
C36 O38 1.263 . S
O37 Co34 1.970 . S
O37 C36 1.258 . S
O38 Co35 1.966 . S
O38 C36 1.263 . S
C39 O40 1.235 . S
C39 O66 1.289 . S
O40 C39 1.235 . S
C41 C43 1.400 . S
C41 N44 1.351 . S
C41 C46 1.501 . S
C42 C43 1.387 . S
C42 N45 1.341 . S
C43 C41 1.400 . S
C43 C42 1.387 . S
N44 Co35 2.022 . S
N44 C41 1.351 . S
N44 N45 1.365 . S
N45 C42 1.341 . S
N45 N44 1.365 . S
N45 H65 0.862 . S
C46 C41 1.501 . S
C46 H47 0.961 . S
C46 H48 0.961 . S
C46 H49 0.960 . S
H47 C46 0.961 . S
H48 C46 0.961 . S
H49 C46 0.960 . S
C50 N51 1.342 . S
C50 C54 1.401 . S
C50 C55 1.499 . S
N51 Co34 1.989 . S
N51 C50 1.342 . S
N51 N52 1.388 . S
N52 Co35 1.993 . S
N52 N51 1.388 . S
N52 C53 1.346 . S
C53 N52 1.346 . S
C53 C54 1.396 . S
C53 C63 1.510 . S
C54 C50 1.401 . S
C54 C53 1.396 . S
C55 C50 1.499 . S
C55 H56 0.959 . S
C55 H57 0.960 . S
C55 H58 0.961 . S
H56 C55 0.959 . S
H57 C55 0.960 . S
H58 C55 0.961 . S
O59 Co34 1.967 . S
O59 C67 1.258 . S
O60 Co35 1.941 . S
O60 C67 1.266 . S
H61 C63 0.959 . S
H62 C63 0.961 . S
C63 C53 1.510 . S
C63 H61 0.959 . S
C63 H62 0.961 . S
C63 H64 0.960 . S
H64 C63 0.960 . S
H65 N45 0.862 . S
O66 Co34 1.920 . S
O66 C39 1.289 . S
C67 O59 1.258 . S
C67 O60 1.266 . S
Co68 O71 1.970 . S
Co68 N85 1.989 . S
Co68 O93 1.967 . S
Co68 O100 1.920 . S
Co69 O72 1.966 . S
Co69 N78 2.022 . S
Co69 N86 1.993 . S
Co69 O94 1.941 . S
C70 O71 1.258 . S
C70 O72 1.263 . S
O71 Co68 1.970 . S
O71 C70 1.258 . S
O72 Co69 1.966 . S
O72 C70 1.263 . S
C73 O74 1.235 . S
C73 O100 1.289 . S
O74 C73 1.235 . S
C75 C77 1.400 . S
C75 N78 1.351 . S
C75 C80 1.501 . S
C76 C77 1.387 . S
C76 N79 1.341 . S
C77 C75 1.400 . S
C77 C76 1.387 . S
N78 Co69 2.022 . S
N78 C75 1.351 . S
N78 N79 1.365 . S
N79 C76 1.341 . S
N79 N78 1.365 . S
N79 H99 0.862 . S
C80 C75 1.501 . S
C80 H81 0.961 . S
C80 H82 0.961 . S
C80 H83 0.960 . S
H81 C80 0.961 . S
H82 C80 0.961 . S
H83 C80 0.960 . S
C84 N85 1.342 . S
C84 C88 1.401 . S
C84 C89 1.499 . S
N85 Co68 1.989 . S
N85 C84 1.342 . S
N85 N86 1.388 . S
N86 Co69 1.993 . S
N86 N85 1.388 . S
N86 C87 1.346 . S
C87 N86 1.346 . S
C87 C88 1.396 . S
C87 C97 1.510 . S
C88 C84 1.401 . S
C88 C87 1.396 . S
C89 C84 1.499 . S
C89 H90 0.959 . S
C89 H91 0.960 . S
C89 H92 0.961 . S
H90 C89 0.959 . S
H91 C89 0.960 . S
H92 C89 0.961 . S
O93 Co68 1.967 . S
O93 C101 1.258 . S
O94 Co69 1.941 . S
O94 C101 1.266 . S
H95 C97 0.959 . S
H96 C97 0.961 . S
C97 C87 1.510 . S
C97 H95 0.959 . S
C97 H96 0.961 . S
C97 H98 0.960 . S
H98 C97 0.960 . S
H99 N79 0.862 . S
O100 Co68 1.920 . S
O100 C73 1.289 . S
C101 O93 1.258 . S
C101 O94 1.266 . S
Co102 O105 1.970 . S
Co102 N119 1.989 . S
Co102 O127 1.967 . S
Co102 O134 1.920 . S
Co103 O106 1.966 . S
Co103 N112 2.022 . S
Co103 N120 1.993 . S
Co103 O128 1.941 . S
C104 O105 1.258 . S
C104 O106 1.263 . S
O105 Co102 1.970 . S
O105 C104 1.258 . S
O106 Co103 1.966 . S
O106 C104 1.263 . S
C107 O108 1.235 . S
C107 O134 1.289 . S
O108 C107 1.235 . S
C109 C111 1.400 . S
C109 N112 1.351 . S
C109 C114 1.501 . S
C110 C111 1.387 . S
C110 N113 1.341 . S
C111 C109 1.400 . S
C111 C110 1.387 . S
N112 Co103 2.022 . S
N112 C109 1.351 . S
N112 N113 1.365 . S
N113 C110 1.341 . S
N113 N112 1.365 . S
N113 H133 0.862 . S
C114 C109 1.501 . S
C114 H115 0.961 . S
C114 H116 0.961 . S
C114 H117 0.960 . S
H115 C114 0.961 . S
H116 C114 0.961 . S
H117 C114 0.960 . S
C118 N119 1.342 . S
C118 C122 1.401 . S
C118 C123 1.499 . S
N119 Co102 1.989 . S
N119 C118 1.342 . S
N119 N120 1.388 . S
N120 Co103 1.993 . S
N120 N119 1.388 . S
N120 C121 1.346 . S
C121 N120 1.346 . S
C121 C122 1.396 . S
C121 C131 1.510 . S
C122 C118 1.401 . S
C122 C121 1.396 . S
C123 C118 1.499 . S
C123 H124 0.959 . S
C123 H125 0.960 . S
C123 H126 0.961 . S
H124 C123 0.959 . S
H125 C123 0.960 . S
H126 C123 0.961 . S
O127 Co102 1.967 . S
O127 C135 1.258 . S
O128 Co103 1.941 . S
O128 C135 1.266 . S
H129 C131 0.959 . S
H130 C131 0.961 . S
C131 C121 1.510 . S
C131 H129 0.959 . S
C131 H130 0.961 . S
C131 H132 0.960 . S
H132 C131 0.960 . S
H133 N113 0.862 . S
O134 Co102 1.920 . S
O134 C107 1.289 . S
C135 O127 1.258 . S
C135 O128 1.266 . S
Co136 O139 1.970 . S
Co136 N153 1.989 . S
Co136 O161 1.967 . S
Co136 O168 1.920 . S
Co137 O140 1.966 . S
Co137 N146 2.022 . S
Co137 N154 1.993 . S
Co137 O162 1.941 . S
C138 O139 1.258 . S
C138 O140 1.263 . S
O139 Co136 1.970 . S
O139 C138 1.258 . S
O140 Co137 1.966 . S
O140 C138 1.263 . S
C141 O142 1.235 . S
C141 O168 1.289 . S
O142 C141 1.235 . S
C143 C145 1.400 . S
C143 N146 1.351 . S
C143 C148 1.501 . S
C144 C145 1.387 . S
C144 N147 1.341 . S
C145 C143 1.400 . S
C145 C144 1.387 . S
N146 Co137 2.022 . S
N146 C143 1.351 . S
N146 N147 1.365 . S
N147 C144 1.341 . S
N147 N146 1.365 . S
N147 H167 0.862 . S
C148 C143 1.501 . S
C148 H149 0.961 . S
C148 H150 0.961 . S
C148 H151 0.960 . S
H149 C148 0.961 . S
H150 C148 0.961 . S
H151 C148 0.960 . S
C152 N153 1.342 . S
C152 C156 1.401 . S
C152 C157 1.499 . S
N153 Co136 1.989 . S
N153 C152 1.342 . S
N153 N154 1.388 . S
N154 Co137 1.993 . S
N154 N153 1.388 . S
N154 C155 1.346 . S
C155 N154 1.346 . S
C155 C156 1.396 . S
C155 C165 1.510 . S
C156 C152 1.401 . S
C156 C155 1.396 . S
C157 C152 1.499 . S
C157 H158 0.959 . S
C157 H159 0.960 . S
C157 H160 0.961 . S
H158 C157 0.959 . S
H159 C157 0.960 . S
H160 C157 0.961 . S
O161 Co136 1.967 . S
O161 C169 1.258 . S
O162 Co137 1.941 . S
O162 C169 1.266 . S
H163 C165 0.959 . S
H164 C165 0.961 . S
C165 C155 1.510 . S
C165 H163 0.959 . S
C165 H164 0.961 . S
C165 H166 0.960 . S
H166 C165 0.960 . S
H167 N147 0.862 . S
O168 Co136 1.920 . S
O168 C141 1.289 . S
C169 O161 1.258 . S
C169 O162 1.266 . S
Co170 O173 1.970 . S
Co170 N187 1.989 . S
Co170 O195 1.967 . S
Co170 O202 1.920 . S
Co171 O174 1.966 . S
Co171 N180 2.022 . S
Co171 N188 1.993 . S
Co171 O196 1.941 . S
C172 O173 1.258 . S
C172 O174 1.263 . S
O173 Co170 1.970 . S
O173 C172 1.258 . S
O174 Co171 1.966 . S
O174 C172 1.263 . S
C175 O176 1.235 . S
C175 O202 1.289 . S
O176 C175 1.235 . S
C177 C179 1.400 . S
C177 N180 1.351 . S
C177 C182 1.501 . S
C178 C179 1.387 . S
C178 N181 1.341 . S
C179 C177 1.400 . S
C179 C178 1.387 . S
N180 Co171 2.022 . S
N180 C177 1.351 . S
N180 N181 1.365 . S
N181 C178 1.341 . S
N181 N180 1.365 . S
N181 H201 0.862 . S
C182 C177 1.501 . S
C182 H183 0.961 . S
C182 H184 0.961 . S
C182 H185 0.960 . S
H183 C182 0.961 . S
H184 C182 0.961 . S
H185 C182 0.960 . S
C186 N187 1.342 . S
C186 C190 1.401 . S
C186 C191 1.499 . S
N187 Co170 1.989 . S
N187 C186 1.342 . S
N187 N188 1.388 . S
N188 Co171 1.993 . S
N188 N187 1.388 . S
N188 C189 1.346 . S
C189 N188 1.346 . S
C189 C190 1.396 . S
C189 C199 1.510 . S
C190 C186 1.401 . S
C190 C189 1.396 . S
C191 C186 1.499 . S
C191 H192 0.959 . S
C191 H193 0.960 . S
C191 H194 0.961 . S
H192 C191 0.959 . S
H193 C191 0.960 . S
H194 C191 0.961 . S
O195 Co170 1.967 . S
O195 C203 1.258 . S
O196 Co171 1.941 . S
O196 C203 1.266 . S
H197 C199 0.959 . S
H198 C199 0.961 . S
C199 C189 1.510 . S
C199 H197 0.959 . S
C199 H198 0.961 . S
C199 H200 0.960 . S
H200 C199 0.960 . S
H201 N181 0.862 . S
O202 Co170 1.920 . S
O202 C175 1.289 . S
C203 O195 1.258 . S
C203 O196 1.266 . S
Co204 O207 1.970 . S
Co204 N221 1.989 . S
Co204 O229 1.967 . S
Co204 O236 1.920 . S
Co205 O208 1.966 . S
Co205 N214 2.022 . S
Co205 N222 1.993 . S
Co205 O230 1.941 . S
C206 O207 1.258 . S
C206 O208 1.263 . S
O207 Co204 1.970 . S
O207 C206 1.258 . S
O208 Co205 1.966 . S
O208 C206 1.263 . S
C209 O210 1.235 . S
C209 O236 1.289 . S
O210 C209 1.235 . S
C211 C213 1.400 . S
C211 N214 1.351 . S
C211 C216 1.501 . S
C212 C213 1.387 . S
C212 N215 1.341 . S
C213 C211 1.400 . S
C213 C212 1.387 . S
N214 Co205 2.022 . S
N214 C211 1.351 . S
N214 N215 1.365 . S
N215 C212 1.341 . S
N215 N214 1.365 . S
N215 H235 0.862 . S
C216 C211 1.501 . S
C216 H217 0.961 . S
C216 H218 0.961 . S
C216 H219 0.960 . S
H217 C216 0.961 . S
H218 C216 0.961 . S
H219 C216 0.960 . S
C220 N221 1.342 . S
C220 C224 1.401 . S
C220 C225 1.499 . S
N221 Co204 1.989 . S
N221 C220 1.342 . S
N221 N222 1.388 . S
N222 Co205 1.993 . S
N222 N221 1.388 . S
N222 C223 1.346 . S
C223 N222 1.346 . S
C223 C224 1.396 . S
C223 C233 1.510 . S
C224 C220 1.401 . S
C224 C223 1.396 . S
C225 C220 1.499 . S
C225 H226 0.959 . S
C225 H227 0.960 . S
C225 H228 0.961 . S
H226 C225 0.959 . S
H227 C225 0.960 . S
H228 C225 0.961 . S
O229 Co204 1.967 . S
O229 C237 1.258 . S
O230 Co205 1.941 . S
O230 C237 1.266 . S
H231 C233 0.959 . S
H232 C233 0.961 . S
C233 C223 1.510 . S
C233 H231 0.959 . S
C233 H232 0.961 . S
C233 H234 0.960 . S
H234 C233 0.960 . S
H235 N215 0.862 . S
O236 Co204 1.920 . S
O236 C209 1.289 . S
C237 O229 1.258 . S
C237 O230 1.266 . S
Co238 O241 1.970 . S
Co238 N255 1.989 . S
Co238 O263 1.967 . S
Co238 O270 1.920 . S
Co239 O242 1.966 . S
Co239 N248 2.022 . S
Co239 N256 1.993 . S
Co239 O264 1.941 . S
C240 O241 1.258 . S
C240 O242 1.263 . S
O241 Co238 1.970 . S
O241 C240 1.258 . S
O242 Co239 1.966 . S
O242 C240 1.263 . S
C243 O244 1.235 . S
C243 O270 1.289 . S
O244 C243 1.235 . S
C245 C247 1.400 . S
C245 N248 1.351 . S
C245 C250 1.501 . S
C246 C247 1.387 . S
C246 N249 1.341 . S
C247 C245 1.400 . S
C247 C246 1.387 . S
N248 Co239 2.022 . S
N248 C245 1.351 . S
N248 N249 1.365 . S
N249 C246 1.341 . S
N249 N248 1.365 . S
N249 H269 0.862 . S
C250 C245 1.501 . S
C250 H251 0.961 . S
C250 H252 0.961 . S
C250 H253 0.960 . S
H251 C250 0.961 . S
H252 C250 0.961 . S
H253 C250 0.960 . S
C254 N255 1.342 . S
C254 C258 1.401 . S
C254 C259 1.499 . S
N255 Co238 1.989 . S
N255 C254 1.342 . S
N255 N256 1.388 . S
N256 Co239 1.993 . S
N256 N255 1.388 . S
N256 C257 1.346 . S
C257 N256 1.346 . S
C257 C258 1.396 . S
C257 C267 1.510 . S
C258 C254 1.401 . S
C258 C257 1.396 . S
C259 C254 1.499 . S
C259 H260 0.959 . S
C259 H261 0.960 . S
C259 H262 0.961 . S
H260 C259 0.959 . S
H261 C259 0.960 . S
H262 C259 0.961 . S
O263 Co238 1.967 . S
O263 C271 1.258 . S
O264 Co239 1.941 . S
O264 C271 1.266 . S
H265 C267 0.959 . S
H266 C267 0.961 . S
C267 C257 1.510 . S
C267 H265 0.959 . S
C267 H266 0.961 . S
C267 H268 0.960 . S
H268 C267 0.960 . S
H269 N249 0.862 . S
O270 Co238 1.920 . S
O270 C243 1.289 . S
C271 O263 1.258 . S
C271 O264 1.266 . S
Co272 O275 1.970 . S
Co272 N289 1.989 . S
Co272 O297 1.967 . S
Co272 O304 1.920 . S
Co273 O276 1.966 . S
Co273 N282 2.022 . S
Co273 N290 1.993 . S
Co273 O298 1.941 . S
C274 O275 1.258 . S
C274 O276 1.263 . S
O275 Co272 1.970 . S
O275 C274 1.258 . S
O276 Co273 1.966 . S
O276 C274 1.263 . S
C277 O278 1.235 . S
C277 O304 1.289 . S
O278 C277 1.235 . S
C279 C281 1.400 . S
C279 N282 1.351 . S
C279 C284 1.501 . S
C280 C281 1.387 . S
C280 N283 1.341 . S
C281 C279 1.400 . S
C281 C280 1.387 . S
N282 Co273 2.022 . S
N282 C279 1.351 . S
N282 N283 1.365 . S
N283 C280 1.341 . S
N283 N282 1.365 . S
N283 H303 0.862 . S
C284 C279 1.501 . S
C284 H285 0.961 . S
C284 H286 0.961 . S
C284 H287 0.960 . S
H285 C284 0.961 . S
H286 C284 0.961 . S
H287 C284 0.960 . S
C288 N289 1.342 . S
C288 C292 1.401 . S
C288 C293 1.499 . S
N289 Co272 1.989 . S
N289 C288 1.342 . S
N289 N290 1.388 . S
N290 Co273 1.993 . S
N290 N289 1.388 . S
N290 C291 1.346 . S
C291 N290 1.346 . S
C291 C292 1.396 . S
C291 C301 1.510 . S
C292 C288 1.401 . S
C292 C291 1.396 . S
C293 C288 1.499 . S
C293 H294 0.959 . S
C293 H295 0.960 . S
C293 H296 0.961 . S
H294 C293 0.959 . S
H295 C293 0.960 . S
H296 C293 0.961 . S
O297 Co272 1.967 . S
O297 C305 1.258 . S
O298 Co273 1.941 . S
O298 C305 1.266 . S
H299 C301 0.959 . S
H300 C301 0.961 . S
C301 C291 1.510 . S
C301 H299 0.959 . S
C301 H300 0.961 . S
C301 H302 0.960 . S
H302 C301 0.960 . S
H303 N283 0.862 . S
O304 Co272 1.920 . S
O304 C277 1.289 . S
C305 O297 1.258 . S
C305 O298 1.266 . S
Co306 O309 1.970 . S
Co306 N323 1.989 . S
Co306 O331 1.967 . S
Co306 O338 1.920 . S
Co307 O310 1.966 . S
Co307 N316 2.022 . S
Co307 N324 1.993 . S
Co307 O332 1.941 . S
C308 O309 1.258 . S
C308 O310 1.263 . S
O309 Co306 1.970 . S
O309 C308 1.258 . S
O310 Co307 1.966 . S
O310 C308 1.263 . S
C311 O312 1.235 . S
C311 O338 1.289 . S
O312 C311 1.235 . S
C313 C315 1.400 . S
C313 N316 1.351 . S
C313 C318 1.501 . S
C314 C315 1.387 . S
C314 N317 1.341 . S
C315 C313 1.400 . S
C315 C314 1.387 . S
N316 Co307 2.022 . S
N316 C313 1.351 . S
N316 N317 1.365 . S
N317 C314 1.341 . S
N317 N316 1.365 . S
N317 H337 0.862 . S
C318 C313 1.501 . S
C318 H319 0.961 . S
C318 H320 0.961 . S
C318 H321 0.960 . S
H319 C318 0.961 . S
H320 C318 0.961 . S
H321 C318 0.960 . S
C322 N323 1.342 . S
C322 C326 1.401 . S
C322 C327 1.499 . S
N323 Co306 1.989 . S
N323 C322 1.342 . S
N323 N324 1.388 . S
N324 Co307 1.993 . S
N324 N323 1.388 . S
N324 C325 1.346 . S
C325 N324 1.346 . S
C325 C326 1.396 . S
C325 C335 1.510 . S
C326 C322 1.401 . S
C326 C325 1.396 . S
C327 C322 1.499 . S
C327 H328 0.959 . S
C327 H329 0.960 . S
C327 H330 0.961 . S
H328 C327 0.959 . S
H329 C327 0.960 . S
H330 C327 0.961 . S
O331 Co306 1.967 . S
O331 C339 1.258 . S
O332 Co307 1.941 . S
O332 C339 1.266 . S
H333 C335 0.959 . S
H334 C335 0.961 . S
C335 C325 1.510 . S
C335 H333 0.959 . S
C335 H334 0.961 . S
C335 H336 0.960 . S
H336 C335 0.960 . S
H337 N317 0.862 . S
O338 Co306 1.920 . S
O338 C311 1.289 . S
C339 O331 1.258 . S
C339 O332 1.266 . S
Co340 O343 1.970 . S
Co340 N357 1.989 . S
Co340 O365 1.967 . S
Co340 O372 1.920 . S
Co341 O344 1.966 . S
Co341 N350 2.022 . S
Co341 N358 1.993 . S
Co341 O366 1.941 . S
C342 O343 1.258 . S
C342 O344 1.263 . S
O343 Co340 1.970 . S
O343 C342 1.258 . S
O344 Co341 1.966 . S
O344 C342 1.263 . S
C345 O346 1.235 . S
C345 O372 1.289 . S
O346 C345 1.235 . S
C347 C349 1.400 . S
C347 N350 1.351 . S
C347 C352 1.501 . S
C348 C349 1.387 . S
C348 N351 1.341 . S
C349 C347 1.400 . S
C349 C348 1.387 . S
N350 Co341 2.022 . S
N350 C347 1.351 . S
N350 N351 1.365 . S
N351 C348 1.341 . S
N351 N350 1.365 . S
N351 H371 0.862 . S
C352 C347 1.501 . S
C352 H353 0.961 . S
C352 H354 0.961 . S
C352 H355 0.960 . S
H353 C352 0.961 . S
H354 C352 0.961 . S
H355 C352 0.960 . S
C356 N357 1.342 . S
C356 C360 1.401 . S
C356 C361 1.499 . S
N357 Co340 1.989 . S
N357 C356 1.342 . S
N357 N358 1.388 . S
N358 Co341 1.993 . S
N358 N357 1.388 . S
N358 C359 1.346 . S
C359 N358 1.346 . S
C359 C360 1.396 . S
C359 C369 1.510 . S
C360 C356 1.401 . S
C360 C359 1.396 . S
C361 C356 1.499 . S
C361 H362 0.959 . S
C361 H363 0.960 . S
C361 H364 0.961 . S
H362 C361 0.959 . S
H363 C361 0.960 . S
H364 C361 0.961 . S
O365 Co340 1.967 . S
O365 C373 1.258 . S
O366 Co341 1.941 . S
O366 C373 1.266 . S
H367 C369 0.959 . S
H368 C369 0.961 . S
C369 C359 1.510 . S
C369 H367 0.959 . S
C369 H368 0.961 . S
C369 H370 0.960 . S
H370 C369 0.960 . S
H371 N351 0.862 . S
O372 Co340 1.920 . S
O372 C345 1.289 . S
C373 O365 1.258 . S
C373 O366 1.266 . S
Co374 O377 1.970 . S
Co374 N391 1.989 . S
Co374 O399 1.967 . S
Co374 O406 1.920 . S
Co375 O378 1.966 . S
Co375 N384 2.022 . S
Co375 N392 1.993 . S
Co375 O400 1.941 . S
C376 O377 1.258 . S
C376 O378 1.263 . S
O377 Co374 1.970 . S
O377 C376 1.258 . S
O378 Co375 1.966 . S
O378 C376 1.263 . S
C379 O380 1.235 . S
C379 O406 1.289 . S
O380 C379 1.235 . S
C381 C383 1.400 . S
C381 N384 1.351 . S
C381 C386 1.501 . S
C382 C383 1.387 . S
C382 N385 1.341 . S
C383 C381 1.400 . S
C383 C382 1.387 . S
N384 Co375 2.022 . S
N384 C381 1.351 . S
N384 N385 1.365 . S
N385 C382 1.341 . S
N385 N384 1.365 . S
N385 H405 0.862 . S
C386 C381 1.501 . S
C386 H387 0.961 . S
C386 H388 0.961 . S
C386 H389 0.960 . S
H387 C386 0.961 . S
H388 C386 0.961 . S
H389 C386 0.960 . S
C390 N391 1.342 . S
C390 C394 1.401 . S
C390 C395 1.499 . S
N391 Co374 1.989 . S
N391 C390 1.342 . S
N391 N392 1.388 . S
N392 Co375 1.993 . S
N392 N391 1.388 . S
N392 C393 1.346 . S
C393 N392 1.346 . S
C393 C394 1.396 . S
C393 C403 1.510 . S
C394 C390 1.401 . S
C394 C393 1.396 . S
C395 C390 1.499 . S
C395 H396 0.959 . S
C395 H397 0.960 . S
C395 H398 0.961 . S
H396 C395 0.959 . S
H397 C395 0.960 . S
H398 C395 0.961 . S
O399 Co374 1.967 . S
O399 C407 1.258 . S
O400 Co375 1.941 . S
O400 C407 1.266 . S
H401 C403 0.959 . S
H402 C403 0.961 . S
C403 C393 1.510 . S
C403 H401 0.959 . S
C403 H402 0.961 . S
C403 H404 0.960 . S
H404 C403 0.960 . S
H405 N385 0.862 . S
O406 Co374 1.920 . S
O406 C379 1.289 . S
C407 O399 1.258 . S
C407 O400 1.266 . S
H408 C416 0.929 . S
H409 C418 0.930 . S
H410 C420 0.930 1_565 S
H411 C423 0.929 . S
H412 C426 0.930 . S
H413 C428 0.960 . S
H414 C428 0.960 . S
H415 C428 0.960 . S
C416 H408 0.929 . S
C416 C417 1.377 . S
C416 C418 1.384 . S
C417 C416 1.377 . S
C417 C423 1.390 . S
C418 H409 0.930 . S
C418 C416 1.384 . S
C418 C419 1.372 . S
C419 C418 1.372 . S
C419 C420 1.400 . S
C419 C424 1.490 . S
C420 H410 0.930 1_545 S
C420 C419 1.400 . S
C420 C423 1.386 . S
H421 C437 0.930 . S
H422 C438 0.931 . S
C423 H411 0.929 . S
C423 C417 1.390 . S
C423 C420 1.386 . S
C424 C419 1.490 . S
C424 C426 1.395 . S
C424 C427 1.403 1_545 S
H425 C431 0.930 . S
C426 H412 0.930 . S
C426 C424 1.395 . S
C426 C429 1.403 1_554 S
C427 C424 1.403 1_565 S
C427 C428 1.524 . S
C427 C431 1.400 1_554 S
C428 H413 0.960 . S
C428 H414 0.960 . S
C428 H415 0.960 . S
C428 C427 1.524 . S
C429 C426 1.403 1_556 S
C429 C430 1.392 1_545 S
C429 C433 1.495 . S
C430 C429 1.392 1_565 S
C430 C431 1.385 . S
C430 C432 1.478 . S
C431 H425 0.930 . S
C431 C427 1.400 1_556 S
C431 C430 1.385 . S
C432 C430 1.478 . S
C432 C434 1.381 . S
C432 C438 1.383 . S
C433 C429 1.495 . S
C433 H439 0.959 . S
C433 H440 0.961 . S
C433 H441 0.960 . S
C434 C432 1.381 . S
C434 C435 1.394 . S
C434 H442 0.930 1_565 S
C435 C434 1.394 . S
C435 C436 1.383 . S
C435 H443 0.929 . S
C436 C435 1.383 . S
C436 C437 1.377 . S
C437 H421 0.930 . S
C437 C436 1.377 . S
C437 C438 1.379 . S
C438 H422 0.931 . S
C438 C432 1.383 . S
C438 C437 1.379 . S
H439 C433 0.959 . S
H440 C433 0.961 . S
H441 C433 0.960 . S
H442 C434 0.930 1_545 S
H443 C435 0.929 . S
H444 C452 0.929 . S
H445 C454 0.930 . S
H446 C456 0.930 . S
H447 C459 0.929 . S
H448 C462 0.930 . S
H449 C464 0.960 . S
H450 C464 0.960 . S
H451 C464 0.960 . S
C452 H444 0.929 . S
C452 C453 1.377 . S
C452 C454 1.384 . S
C453 C452 1.377 . S
C453 C459 1.390 . S
C454 H445 0.930 . S
C454 C452 1.384 . S
C454 C455 1.372 . S
C455 C454 1.372 . S
C455 C456 1.400 . S
C455 C460 1.490 . S
C456 H446 0.930 . S
C456 C455 1.400 . S
C456 C459 1.386 . S
H457 C473 0.930 . S
H458 C474 0.931 . S
C459 H447 0.929 . S
C459 C453 1.390 . S
C459 C456 1.386 . S
C460 C455 1.490 . S
C460 C462 1.395 . S
C460 C463 1.403 . S
H461 C467 0.930 . S
C462 H448 0.930 . S
C462 C460 1.395 . S
C462 C465 1.403 . S
C463 C460 1.403 . S
C463 C464 1.524 . S
C463 C467 1.400 . S
C464 H449 0.960 . S
C464 H450 0.960 . S
C464 H451 0.960 . S
C464 C463 1.524 . S
C465 C462 1.403 . S
C465 C466 1.392 . S
C465 C469 1.495 . S
C466 C465 1.392 . S
C466 C467 1.385 . S
C466 C468 1.478 . S
C467 H461 0.930 . S
C467 C463 1.400 . S
C467 C466 1.385 . S
C468 C466 1.478 . S
C468 C470 1.381 . S
C468 C474 1.383 . S
C469 C465 1.495 . S
C469 H475 0.959 . S
C469 H476 0.961 . S
C469 H477 0.960 . S
C470 C468 1.381 . S
C470 C471 1.394 . S
C470 H478 0.930 . S
C471 C470 1.394 . S
C471 C472 1.383 . S
C471 H479 0.929 . S
C472 C471 1.383 . S
C472 C473 1.377 . S
C473 H457 0.930 . S
C473 C472 1.377 . S
C473 C474 1.379 . S
C474 H458 0.931 . S
C474 C468 1.383 . S
C474 C473 1.379 . S
H475 C469 0.959 . S
H476 C469 0.961 . S
H477 C469 0.960 . S
H478 C470 0.930 . S
H479 C471 0.929 . S
H480 C488 0.929 . S
H481 C490 0.930 1_455 S
H482 C492 0.930 . S
H483 C495 0.929 . S
H484 C498 0.930 . S
H485 C500 0.960 . S
H486 C500 0.960 . S
H487 C500 0.960 . S
C488 H480 0.929 . S
C488 C489 1.377 . S
C488 C490 1.384 . S
C489 C488 1.377 . S
C489 C495 1.390 . S
C490 H481 0.930 1_655 S
C490 C488 1.384 . S
C490 C491 1.372 . S
C491 C490 1.372 . S
C491 C492 1.400 . S
C491 C496 1.490 . S
C492 H482 0.930 . S
C492 C491 1.400 . S
C492 C495 1.386 . S
H493 C509 0.930 . S
H494 C510 0.931 1_655 S
C495 H483 0.929 . S
C495 C489 1.390 . S
C495 C492 1.386 . S
C496 C491 1.490 . S
C496 C498 1.395 1_655 S
C496 C499 1.403 . S
H497 C503 0.930 . S
C498 H484 0.930 . S
C498 C496 1.395 1_455 S
C498 C501 1.403 . S
C499 C496 1.403 . S
C499 C500 1.524 . S
C499 C503 1.400 . S
C500 H485 0.960 . S
C500 H486 0.960 . S
C500 H487 0.960 . S
C500 C499 1.524 . S
C501 C498 1.403 . S
C501 C502 1.392 . S
C501 C505 1.495 . S
C502 C501 1.392 . S
C502 C503 1.385 1_455 S
C502 C504 1.478 . S
C503 H497 0.930 . S
C503 C499 1.400 . S
C503 C502 1.385 1_655 S
C504 C502 1.478 . S
C504 C506 1.381 . S
C504 C510 1.383 . S
C505 C501 1.495 . S
C505 H511 0.959 . S
C505 H512 0.961 . S
C505 H513 0.960 . S
C506 C504 1.381 . S
C506 C507 1.394 . S
C506 H514 0.930 . S
C507 C506 1.394 . S
C507 C508 1.383 . S
C507 H515 0.929 . S
C508 C507 1.383 . S
C508 C509 1.377 . S
C509 H493 0.930 . S
C509 C508 1.377 . S
C509 C510 1.379 . S
C510 H494 0.931 1_455 S
C510 C504 1.383 . S
C510 C509 1.379 . S
H511 C505 0.959 . S
H512 C505 0.961 . S
H513 C505 0.960 . S
H514 C506 0.930 . S
H515 C507 0.929 . S
H516 C524 0.929 . S
H517 C526 0.930 . S
H518 C528 0.930 1_565 S
H519 C531 0.929 . S
H520 C534 0.930 . S
H521 C536 0.960 . S
H522 C536 0.960 . S
H523 C536 0.960 . S
C524 H516 0.929 . S
C524 C525 1.377 . S
C524 C526 1.384 . S
C525 C524 1.377 . S
C525 C531 1.390 . S
C526 H517 0.930 . S
C526 C524 1.384 . S
C526 C527 1.372 . S
C527 C526 1.372 . S
C527 C528 1.400 . S
C527 C532 1.490 . S
C528 H518 0.930 1_545 S
C528 C527 1.400 . S
C528 C531 1.386 . S
H529 C545 0.930 . S
H530 C546 0.931 . S
C531 H519 0.929 . S
C531 C525 1.390 . S
C531 C528 1.386 . S
C532 C527 1.490 . S
C532 C534 1.395 . S
C532 C535 1.403 1_545 S
H533 C539 0.930 . S
C534 H520 0.930 . S
C534 C532 1.395 . S
C534 C537 1.403 1_556 S
C535 C532 1.403 1_565 S
C535 C536 1.524 . S
C535 C539 1.400 1_556 S
C536 H521 0.960 . S
C536 H522 0.960 . S
C536 H523 0.960 . S
C536 C535 1.524 . S
C537 C534 1.403 1_554 S
C537 C538 1.392 1_545 S
C537 C541 1.495 . S
C538 C537 1.392 1_565 S
C538 C539 1.385 . S
C538 C540 1.478 . S
C539 H533 0.930 . S
C539 C535 1.400 1_554 S
C539 C538 1.385 . S
C540 C538 1.478 . S
C540 C542 1.381 . S
C540 C546 1.383 . S
C541 C537 1.495 . S
C541 H547 0.959 . S
C541 H548 0.961 . S
C541 H549 0.960 . S
C542 C540 1.381 . S
C542 C543 1.394 . S
C542 H550 0.930 1_565 S
C543 C542 1.394 . S
C543 C544 1.383 . S
C543 H551 0.929 . S
C544 C543 1.383 . S
C544 C545 1.377 . S
C545 H529 0.930 . S
C545 C544 1.377 . S
C545 C546 1.379 . S
C546 H530 0.931 . S
C546 C540 1.383 . S
C546 C545 1.379 . S
H547 C541 0.959 . S
H548 C541 0.961 . S
H549 C541 0.960 . S
H550 C542 0.930 1_545 S
H551 C543 0.929 . S
H552 C560 0.929 . S
H553 C562 0.930 . S
H554 C564 0.930 . S
H555 C567 0.929 . S
H556 C570 0.930 . S
H557 C572 0.960 . S
H558 C572 0.960 . S
H559 C572 0.960 . S
C560 H552 0.929 . S
C560 C561 1.377 . S
C560 C562 1.384 . S
C561 C560 1.377 . S
C561 C567 1.390 . S
C562 H553 0.930 . S
C562 C560 1.384 . S
C562 C563 1.372 . S
C563 C562 1.372 . S
C563 C564 1.400 . S
C563 C568 1.490 . S
C564 H554 0.930 . S
C564 C563 1.400 . S
C564 C567 1.386 . S
H565 C581 0.930 . S
H566 C582 0.931 . S
C567 H555 0.929 . S
C567 C561 1.390 . S
C567 C564 1.386 . S
C568 C563 1.490 . S
C568 C570 1.395 . S
C568 C571 1.403 . S
H569 C575 0.930 . S
C570 H556 0.930 . S
C570 C568 1.395 . S
C570 C573 1.403 . S
C571 C568 1.403 . S
C571 C572 1.524 . S
C571 C575 1.400 . S
C572 H557 0.960 . S
C572 H558 0.960 . S
C572 H559 0.960 . S
C572 C571 1.524 . S
C573 C570 1.403 . S
C573 C574 1.392 . S
C573 C577 1.495 . S
C574 C573 1.392 . S
C574 C575 1.385 . S
C574 C576 1.478 . S
C575 H569 0.930 . S
C575 C571 1.400 . S
C575 C574 1.385 . S
C576 C574 1.478 . S
C576 C578 1.381 . S
C576 C582 1.383 . S
C577 C573 1.495 . S
C577 H583 0.959 . S
C577 H584 0.961 . S
C577 H585 0.960 . S
C578 C576 1.381 . S
C578 C579 1.394 . S
C578 H586 0.930 . S
C579 C578 1.394 . S
C579 C580 1.383 . S
C579 H587 0.929 . S
C580 C579 1.383 . S
C580 C581 1.377 . S
C581 H565 0.930 . S
C581 C580 1.377 . S
C581 C582 1.379 . S
C582 H566 0.931 . S
C582 C576 1.383 . S
C582 C581 1.379 . S
H583 C577 0.959 . S
H584 C577 0.961 . S
H585 C577 0.960 . S
H586 C578 0.930 . S
H587 C579 0.929 . S
H588 C596 0.929 . S
H589 C598 0.930 . S
H590 C600 0.930 . S
H591 C603 0.929 . S
H592 C606 0.930 . S
H593 C608 0.960 . S
H594 C608 0.960 . S
H595 C608 0.960 . S
C596 H588 0.929 . S
C596 C597 1.377 . S
C596 C598 1.384 . S
C597 C596 1.377 . S
C597 C603 1.390 . S
C598 H589 0.930 . S
C598 C596 1.384 . S
C598 C599 1.372 . S
C599 C598 1.372 . S
C599 C600 1.400 . S
C599 C604 1.490 . S
C600 H590 0.930 . S
C600 C599 1.400 . S
C600 C603 1.386 . S
H601 C617 0.930 . S
H602 C618 0.921 1_455 S
C603 H591 0.929 . S
C603 C597 1.390 . S
C603 C600 1.386 . S
C604 C599 1.490 . S
C604 C606 1.395 . S
C604 C607 1.403 1_455 S
H605 C611 0.930 . S
C606 H592 0.930 . S
C606 C604 1.395 . S
C606 C609 1.403 . S
C607 C604 1.403 1_655 S
C607 C608 1.524 . S
C607 C611 1.400 . S
C608 H593 0.960 . S
C608 H594 0.960 . S
C608 H595 0.960 . S
C608 C607 1.524 . S
C609 C606 1.403 . S
C609 C610 1.392 1_455 S
C609 C613 1.495 . S
C610 C609 1.392 1_655 S
C610 C611 1.385 . S
C610 C612 1.478 . S
C611 H605 0.930 . S
C611 C607 1.400 . S
C611 C610 1.385 . S
C612 C610 1.478 . S
C612 C614 1.381 . S
C612 C618 1.383 . S
C613 C609 1.495 . S
C613 H619 0.959 . S
C613 H620 0.961 . S
C613 H621 0.960 . S
C614 C612 1.381 . S
C614 C615 1.394 . S
C614 H622 0.930 . S
C615 C614 1.394 . S
C615 C616 1.383 . S
C615 H623 0.929 . S
C616 C615 1.383 . S
C616 C617 1.377 . S
C617 H601 0.930 . S
C617 C616 1.377 . S
C617 C618 1.379 . S
C618 H602 0.921 1_655 S
C618 C612 1.383 . S
C618 C617 1.379 . S
H619 C613 0.959 . S
H620 C613 0.961 . S
H621 C613 0.960 . S
H622 C614 0.930 . S
H623 C615 0.929 . S
H624 C632 0.929 . S
H625 C634 0.930 . S
H626 C636 0.930 . S
H627 C639 0.929 . S
H628 C642 0.930 . S
H629 C644 0.960 . S
H630 C644 0.960 . S
H631 C644 0.960 . S
C632 H624 0.929 . S
C632 C633 1.377 . S
C632 C634 1.384 . S
C633 C632 1.377 . S
C633 C639 1.390 . S
C634 H625 0.930 . S
C634 C632 1.384 . S
C634 C635 1.372 . S
C635 C634 1.372 . S
C635 C636 1.400 . S
C635 C640 1.490 . S
C636 H626 0.930 . S
C636 C635 1.400 . S
C636 C639 1.386 . S
H637 C653 0.930 . S
H638 C654 0.931 . S
C639 H627 0.929 . S
C639 C633 1.390 . S
C639 C636 1.386 . S
C640 C635 1.490 . S
C640 C642 1.395 1_565 S
C640 C643 1.403 . S
H641 C647 0.930 . S
C642 H628 0.930 . S
C642 C640 1.395 1_545 S
C642 C645 1.403 . S
C643 C640 1.403 . S
C643 C644 1.524 . S
C643 C647 1.400 . S
C644 H629 0.960 . S
C644 H630 0.960 . S
C644 H631 0.960 . S
C644 C643 1.524 . S
C645 C642 1.403 . S
C645 C646 1.392 . S
C645 C649 1.495 . S
C646 C645 1.392 . S
C646 C647 1.385 1_545 S
C646 C648 1.478 . S
C647 H641 0.930 . S
C647 C643 1.400 . S
C647 C646 1.385 1_565 S
C648 C646 1.478 . S
C648 C650 1.381 . S
C648 C654 1.383 . S
C649 C645 1.495 . S
C649 H655 0.959 . S
C649 H656 0.961 . S
C649 H657 0.960 . S
C650 C648 1.381 . S
C650 C651 1.394 . S
C650 H658 0.930 . S
C651 C650 1.394 . S
C651 C652 1.383 . S
C651 H659 0.929 . S
C652 C651 1.383 . S
C652 C653 1.377 . S
C653 H637 0.930 . S
C653 C652 1.377 . S
C653 C654 1.379 . S
C654 H638 0.931 . S
C654 C648 1.383 . S
C654 C653 1.379 . S
H655 C649 0.959 . S
H656 C649 0.961 . S
H657 C649 0.960 . S
H658 C650 0.930 . S
H659 C651 0.929 . S
H660 C668 0.929 . S
H661 C670 0.930 . S
H662 C672 0.930 . S
H663 C675 0.929 . S
H664 C678 0.930 . S
H665 C680 0.960 . S
H666 C680 0.960 . S
H667 C680 0.960 . S
C668 H660 0.929 . S
C668 C669 1.377 . S
C668 C670 1.384 . S
C669 C668 1.377 . S
C669 C675 1.390 . S
C670 H661 0.930 . S
C670 C668 1.384 . S
C670 C671 1.372 . S
C671 C670 1.372 . S
C671 C672 1.400 . S
C671 C676 1.490 . S
C672 H662 0.930 . S
C672 C671 1.400 . S
C672 C675 1.386 . S
H673 C689 0.930 . S
H674 C690 0.931 . S
C675 H663 0.929 . S
C675 C669 1.390 . S
C675 C672 1.386 . S
C676 C671 1.490 . S
C676 C678 1.395 . S
C676 C679 1.403 . S
H677 C683 0.930 . S
C678 H664 0.930 . S
C678 C676 1.395 . S
C678 C681 1.403 . S
C679 C676 1.403 . S
C679 C680 1.524 . S
C679 C683 1.400 . S
C680 H665 0.960 . S
C680 H666 0.960 . S
C680 H667 0.960 . S
C680 C679 1.524 . S
C681 C678 1.403 . S
C681 C682 1.392 . S
C681 C685 1.495 . S
C682 C681 1.392 . S
C682 C683 1.385 . S
C682 C684 1.478 . S
C683 H677 0.930 . S
C683 C679 1.400 . S
C683 C682 1.385 . S
C684 C682 1.478 . S
C684 C686 1.381 . S
C684 C690 1.383 . S
C685 C681 1.495 . S
C685 H691 0.959 . S
C685 H692 0.961 . S
C685 H693 0.960 . S
C686 C684 1.381 . S
C686 C687 1.394 . S
C686 H694 0.930 . S
C687 C686 1.394 . S
C687 C688 1.383 . S
C687 H695 0.929 . S
C688 C687 1.383 . S
C688 C689 1.377 . S
C689 H673 0.930 . S
C689 C688 1.377 . S
C689 C690 1.379 . S
C690 H674 0.931 . S
C690 C684 1.383 . S
C690 C689 1.379 . S
H691 C685 0.959 . S
H692 C685 0.961 . S
H693 C685 0.960 . S
H694 C686 0.930 . S
H695 C687 0.929 . S
H696 C704 0.929 . S
H697 C706 0.930 . S
H698 C708 0.930 . S
H699 C711 0.929 . S
H700 C714 0.930 . S
H701 C716 0.960 . S
H702 C716 0.960 . S
H703 C716 0.960 . S
C704 H696 0.929 . S
C704 C705 1.377 . S
C704 C706 1.384 . S
C705 C704 1.377 . S
C705 C711 1.390 . S
C706 H697 0.930 . S
C706 C704 1.384 . S
C706 C707 1.372 . S
C707 C706 1.372 . S
C707 C708 1.400 . S
C707 C712 1.490 . S
C708 H698 0.930 . S
C708 C707 1.400 . S
C708 C711 1.386 . S
H709 C725 0.930 . S
H710 C726 0.931 . S
C711 H699 0.929 . S
C711 C705 1.390 . S
C711 C708 1.386 . S
C712 C707 1.490 . S
C712 C714 1.395 . S
C712 C715 1.403 1_455 S
H713 C719 0.930 . S
C714 H700 0.930 . S
C714 C712 1.395 . S
C714 C717 1.403 . S
C715 C712 1.403 1_655 S
C715 C716 1.524 . S
C715 C719 1.400 . S
C716 H701 0.960 . S
C716 H702 0.960 . S
C716 H703 0.960 . S
C716 C715 1.524 . S
C717 C714 1.403 . S
C717 C718 1.392 1_455 S
C717 C721 1.495 . S
C718 C717 1.392 1_655 S
C718 C719 1.385 . S
C718 C720 1.478 . S
C719 H713 0.930 . S
C719 C715 1.400 . S
C719 C718 1.385 . S
C720 C718 1.478 . S
C720 C722 1.381 . S
C720 C726 1.383 . S
C721 C717 1.495 . S
C721 H727 0.959 . S
C721 H728 0.961 . S
C721 H729 0.960 . S
C722 C720 1.381 . S
C722 C723 1.394 . S
C722 H730 0.930 . S
C723 C722 1.394 . S
C723 C724 1.383 . S
C723 H731 0.929 . S
C724 C723 1.383 . S
C724 C725 1.377 . S
C725 H709 0.930 . S
C725 C724 1.377 . S
C725 C726 1.379 . S
C726 H710 0.931 . S
C726 C720 1.383 . S
C726 C725 1.379 . S
H727 C721 0.959 . S
H728 C721 0.961 . S
H729 C721 0.960 . S
H730 C722 0.930 . S
H731 C723 0.929 . S
H732 C740 0.929 . S
H733 C742 0.930 . S
H734 C744 0.930 . S
H735 C747 0.929 . S
H736 C750 0.930 . S
H737 C752 0.960 . S
H738 C752 0.960 . S
H739 C752 0.960 . S
C740 H732 0.929 . S
C740 C741 1.377 . S
C740 C742 1.384 . S
C741 C740 1.377 . S
C741 C747 1.390 . S
C742 H733 0.930 . S
C742 C740 1.384 . S
C742 C743 1.372 . S
C743 C742 1.372 . S
C743 C744 1.400 . S
C743 C748 1.490 . S
C744 H734 0.930 . S
C744 C743 1.400 . S
C744 C747 1.386 . S
H745 C761 0.930 . S
H746 C762 0.931 . S
C747 H735 0.929 . S
C747 C741 1.390 . S
C747 C744 1.386 . S
C748 C743 1.490 . S
C748 C750 1.395 . S
C748 C751 1.403 1_455 S
H749 C755 0.930 . S
C750 H736 0.930 . S
C750 C748 1.395 . S
C750 C753 1.403 . S
C751 C748 1.403 1_655 S
C751 C752 1.524 . S
C751 C755 1.400 . S
C752 H737 0.960 . S
C752 H738 0.960 . S
C752 H739 0.960 . S
C752 C751 1.524 . S
C753 C750 1.403 . S
C753 C754 1.392 1_455 S
C753 C757 1.495 . S
C754 C753 1.392 1_655 S
C754 C755 1.385 . S
C754 C756 1.478 . S
C755 H749 0.930 . S
C755 C751 1.400 . S
C755 C754 1.385 . S
C756 C754 1.478 . S
C756 C758 1.381 . S
C756 C762 1.383 . S
C757 C753 1.495 . S
C757 H763 0.959 . S
C757 H764 0.961 . S
C757 H765 0.960 . S
C758 C756 1.381 . S
C758 C759 1.394 . S
C758 H766 0.930 . S
C759 C758 1.394 . S
C759 C760 1.383 . S
C759 H767 0.929 . S
C760 C759 1.383 . S
C760 C761 1.377 . S
C761 H745 0.930 . S
C761 C760 1.377 . S
C761 C762 1.379 . S
C762 H746 0.931 . S
C762 C756 1.383 . S
C762 C761 1.379 . S
H763 C757 0.959 . S
H764 C757 0.961 . S
H765 C757 0.960 . S
H766 C758 0.930 . S
H767 C759 0.929 . S
H768 C776 0.929 . S
H769 C778 0.930 1_565 S
H770 C780 0.930 . S
H771 C783 0.929 . S
H772 C786 0.930 . S
H773 C788 0.960 . S
H774 C788 0.960 . S
H775 C788 0.960 . S
C776 H768 0.929 . S
C776 C777 1.377 . S
C776 C778 1.384 . S
C777 C776 1.377 . S
C777 C783 1.390 . S
C778 H769 0.930 1_545 S
C778 C776 1.384 . S
C778 C779 1.372 . S
C779 C778 1.372 . S
C779 C780 1.400 . S
C779 C784 1.490 . S
C780 H770 0.930 . S
C780 C779 1.400 . S
C780 C783 1.386 . S
H781 C797 0.930 . S
H782 C798 0.931 1_545 S
C783 H771 0.929 . S
C783 C777 1.390 . S
C783 C780 1.386 . S
C784 C779 1.490 . S
C784 C786 1.395 1_545 S
C784 C787 1.403 . S
H785 C791 0.930 . S
C786 H772 0.930 . S
C786 C784 1.395 1_565 S
C786 C789 1.403 . S
C787 C784 1.403 . S
C787 C788 1.524 . S
C787 C791 1.400 . S
C788 H773 0.960 . S
C788 H774 0.960 . S
C788 H775 0.960 . S
C788 C787 1.524 . S
C789 C786 1.403 . S
C789 C790 1.392 . S
C789 C793 1.495 . S
C790 C789 1.392 . S
C790 C791 1.385 1_565 S
C790 C792 1.478 . S
C791 H785 0.930 . S
C791 C787 1.400 . S
C791 C790 1.385 1_545 S
C792 C790 1.478 . S
C792 C794 1.381 . S
C792 C798 1.383 . S
C793 C789 1.495 . S
C793 H799 0.959 . S
C793 H800 0.961 . S
C793 H801 0.960 . S
C794 C792 1.381 . S
C794 C795 1.394 . S
C794 H802 0.930 . S
C795 C794 1.394 . S
C795 C796 1.383 . S
C795 H803 0.929 . S
C796 C795 1.383 . S
C796 C797 1.377 . S
C797 H781 0.930 . S
C797 C796 1.377 . S
C797 C798 1.379 . S
C798 H782 0.931 1_565 S
C798 C792 1.383 . S
C798 C797 1.379 . S
H799 C793 0.959 . S
H800 C793 0.961 . S
H801 C793 0.960 . S
H802 C794 0.930 . S
H803 C795 0.929 . S
H804 C812 0.929 . S
H805 C814 0.930 . S
H806 C816 0.930 . S
H807 C819 0.929 . S
H808 C822 0.930 . S
H809 C824 0.960 . S
H810 C824 0.960 . S
H811 C824 0.960 . S
C812 H804 0.929 . S
C812 C813 1.377 . S
C812 C814 1.384 . S
C813 C812 1.377 . S
C813 C819 1.390 . S
C814 H805 0.930 . S
C814 C812 1.384 . S
C814 C815 1.372 . S
C815 C814 1.372 . S
C815 C816 1.400 . S
C815 C820 1.490 . S
C816 H806 0.930 . S
C816 C815 1.400 . S
C816 C819 1.386 . S
H817 C833 0.930 . S
H818 C834 0.931 . S
C819 H807 0.929 . S
C819 C813 1.390 . S
C819 C816 1.386 . S
C820 C815 1.490 . S
C820 C822 1.395 . S
C820 C823 1.403 . S
H821 C827 0.930 . S
C822 H808 0.930 . S
C822 C820 1.395 . S
C822 C825 1.403 . S
C823 C820 1.403 . S
C823 C824 1.524 . S
C823 C827 1.400 . S
C824 H809 0.960 . S
C824 H810 0.960 . S
C824 H811 0.960 . S
C824 C823 1.524 . S
C825 C822 1.403 . S
C825 C826 1.392 . S
C825 C829 1.495 . S
C826 C825 1.392 . S
C826 C827 1.385 . S
C826 C828 1.478 . S
C827 H821 0.930 . S
C827 C823 1.400 . S
C827 C826 1.385 . S
C828 C826 1.478 . S
C828 C830 1.381 . S
C828 C834 1.383 . S
C829 C825 1.495 . S
C829 H835 0.959 . S
C829 H836 0.961 . S
C829 H837 0.960 . S
C830 C828 1.381 . S
C830 C831 1.394 . S
C830 H838 0.930 . S
C831 C830 1.394 . S
C831 C832 1.383 . S
C831 H839 0.929 . S
C832 C831 1.383 . S
C832 C833 1.377 . S
C833 H817 0.930 . S
C833 C832 1.377 . S
C833 C834 1.379 . S
C834 H818 0.931 . S
C834 C828 1.383 . S
C834 C833 1.379 . S
H835 C829 0.959 . S
H836 C829 0.961 . S
H837 C829 0.960 . S
H838 C830 0.930 . S
H839 C831 0.929 . S
H840 C848 0.929 . S
H841 C850 0.930 . S
H842 C852 0.930 . S
H843 C855 0.929 . S
H844 C858 0.930 . S
H845 C860 0.960 . S
H846 C860 0.960 . S
H847 C860 0.960 . S
C848 H840 0.929 . S
C848 C849 1.377 . S
C848 C850 1.384 . S
C849 C848 1.377 . S
C849 C855 1.390 . S
C850 H841 0.930 . S
C850 C848 1.384 . S
C850 C851 1.372 . S
C851 C850 1.372 . S
C851 C852 1.400 . S
C851 C856 1.490 . S
C852 H842 0.930 . S
C852 C851 1.400 . S
C852 C855 1.386 . S
H853 C869 0.930 . S
H854 C870 0.931 . S
C855 H843 0.929 . S
C855 C849 1.390 . S
C855 C852 1.386 . S
C856 C851 1.490 . S
C856 C858 1.395 . S
C856 C859 1.403 . S
H857 C863 0.930 . S
C858 H844 0.930 . S
C858 C856 1.395 . S
C858 C861 1.403 . S
C859 C856 1.403 . S
C859 C860 1.524 . S
C859 C863 1.400 . S
C860 H845 0.960 . S
C860 H846 0.960 . S
C860 H847 0.960 . S
C860 C859 1.524 . S
C861 C858 1.403 . S
C861 C862 1.392 . S
C861 C865 1.495 . S
C862 C861 1.392 . S
C862 C863 1.385 . S
C862 C864 1.478 . S
C863 H857 0.930 . S
C863 C859 1.400 . S
C863 C862 1.385 . S
C864 C862 1.478 . S
C864 C866 1.381 . S
C864 C870 1.383 . S
C865 C861 1.495 . S
C865 H871 0.959 . S
C865 H872 0.961 . S
C865 H873 0.960 . S
C866 C864 1.381 . S
C866 C867 1.394 . S
C866 H874 0.930 . S
C867 C866 1.394 . S
C867 C868 1.383 . S
C867 H875 0.929 . S
C868 C867 1.383 . S
C868 C869 1.377 . S
C869 H853 0.930 . S
C869 C868 1.377 . S
C869 C870 1.379 . S
C870 H854 0.931 . S
C870 C864 1.383 . S
C870 C869 1.379 . S
H871 C865 0.959 . S
H872 C865 0.961 . S
H873 C865 0.960 . S
H874 C866 0.930 . S
H875 C867 0.929 . S
H876 C884 0.929 . S
H877 C886 0.930 . S
H878 C888 0.930 . S
H879 C891 0.929 . S
H880 C894 0.930 . S
H881 C896 0.960 . S
H882 C896 0.960 . S
H883 C896 0.960 . S
C884 H876 0.929 . S
C884 C885 1.377 . S
C884 C886 1.384 . S
C885 C884 1.377 . S
C885 C891 1.390 . S
C886 H877 0.930 . S
C886 C884 1.384 . S
C886 C887 1.372 . S
C887 C886 1.372 . S
C887 C888 1.400 . S
C887 C892 1.490 . S
C888 H878 0.930 . S
C888 C887 1.400 . S
C888 C891 1.386 . S
H889 C905 0.930 . S
H890 C906 0.931 . S
C891 H879 0.929 . S
C891 C885 1.390 . S
C891 C888 1.386 . S
C892 C887 1.490 . S
C892 C894 1.395 . S
C892 C895 1.403 . S
H893 C899 0.930 . S
C894 H880 0.930 . S
C894 C892 1.395 . S
C894 C897 1.403 . S
C895 C892 1.403 . S
C895 C896 1.524 . S
C895 C899 1.400 . S
C896 H881 0.960 . S
C896 H882 0.960 . S
C896 H883 0.960 . S
C896 C895 1.524 . S
C897 C894 1.403 . S
C897 C898 1.392 . S
C897 C901 1.495 . S
C898 C897 1.392 . S
C898 C899 1.385 . S
C898 C900 1.478 . S
C899 H893 0.930 . S
C899 C895 1.400 . S
C899 C898 1.385 . S
C900 C898 1.478 . S
C900 C902 1.381 . S
C900 C906 1.383 . S
C901 C897 1.495 . S
C901 H907 0.959 . S
C901 H908 0.961 . S
C901 H909 0.960 . S
C902 C900 1.381 . S
C902 C903 1.394 . S
C902 H910 0.930 . S
C903 C902 1.394 . S
C903 C904 1.383 . S
C903 H911 0.929 . S
C904 C903 1.383 . S
C904 C905 1.377 . S
C905 H889 0.930 . S
C905 C904 1.377 . S
C905 C906 1.379 . S
C906 H890 0.931 . S
C906 C900 1.383 . S
C906 C905 1.379 . S
H907 C901 0.959 . S
H908 C901 0.961 . S
H909 C901 0.960 . S
H910 C902 0.930 . S
H911 C903 0.929 . S
H912 C920 0.929 . S
H913 C922 0.930 . S
H914 C924 0.930 . S
H915 C927 0.929 . S
H916 C930 0.930 . S
H917 C932 0.960 . S
H918 C932 0.960 . S
H919 C932 0.960 . S
C920 H912 0.929 . S
C920 C921 1.377 . S
C920 C922 1.384 . S
C921 C920 1.377 . S
C921 C927 1.390 . S
C922 H913 0.930 . S
C922 C920 1.384 . S
C922 C923 1.372 . S
C923 C922 1.372 . S
C923 C924 1.400 . S
C923 C928 1.490 . S
C924 H914 0.930 . S
C924 C923 1.400 . S
C924 C927 1.386 . S
H925 C941 0.930 . S
H926 C942 0.931 . S
C927 H915 0.929 . S
C927 C921 1.390 . S
C927 C924 1.386 . S
C928 C923 1.490 . S
C928 C930 1.395 . S
C928 C931 1.403 . S
H929 C935 0.930 . S
C930 H916 0.930 . S
C930 C928 1.395 . S
C930 C933 1.403 . S
C931 C928 1.403 . S
C931 C932 1.524 . S
C931 C935 1.400 . S
C932 H917 0.960 . S
C932 H918 0.960 . S
C932 H919 0.960 . S
C932 C931 1.524 . S
C933 C930 1.403 . S
C933 C934 1.392 . S
C933 C937 1.495 . S
C934 C933 1.392 . S
C934 C935 1.385 . S
C934 C936 1.478 . S
C935 H929 0.930 . S
C935 C931 1.400 . S
C935 C934 1.385 . S
C936 C934 1.478 . S
C936 C938 1.381 . S
C936 C942 1.383 . S
C937 C933 1.495 . S
C937 H943 0.959 . S
C937 H944 0.961 . S
C937 H945 0.960 . S
C938 C936 1.381 . S
C938 C939 1.394 . S
C938 H946 0.930 . S
C939 C938 1.394 . S
C939 C940 1.383 . S
C939 H947 0.929 . S
C940 C939 1.383 . S
C940 C941 1.377 . S
C941 H925 0.930 . S
C941 C940 1.377 . S
C941 C942 1.379 . S
C942 H926 0.931 . S
C942 C936 1.383 . S
C942 C941 1.379 . S
H943 C937 0.959 . S
H944 C937 0.961 . S
H945 C937 0.960 . S
H946 C938 0.930 . S
H947 C939 0.929 . S
H948 C956 0.929 . S
H949 C958 0.930 . S
H950 C960 0.930 . S
H951 C963 0.929 . S
H952 C966 0.930 . S
H953 C968 0.960 . S
H954 C968 0.960 . S
H955 C968 0.960 . S
C956 H948 0.929 . S
C956 C957 1.377 . S
C956 C958 1.384 . S
C957 C956 1.377 . S
C957 C963 1.390 . S
C958 H949 0.930 . S
C958 C956 1.384 . S
C958 C959 1.372 . S
C959 C958 1.372 . S
C959 C960 1.400 . S
C959 C964 1.490 . S
C960 H950 0.930 . S
C960 C959 1.400 . S
C960 C963 1.386 . S
H961 C977 0.930 . S
H962 C978 0.931 . S
C963 H951 0.929 . S
C963 C957 1.390 . S
C963 C960 1.386 . S
C964 C959 1.490 . S
C964 C966 1.395 . S
C964 C967 1.403 . S
H965 C971 0.930 . S
C966 H952 0.930 . S
C966 C964 1.395 . S
C966 C969 1.403 . S
C967 C964 1.403 . S
C967 C968 1.524 . S
C967 C971 1.400 . S
C968 H953 0.960 . S
C968 H954 0.960 . S
C968 H955 0.960 . S
C968 C967 1.524 . S
C969 C966 1.403 . S
C969 C970 1.392 . S
C969 C973 1.495 . S
C970 C969 1.392 . S
C970 C971 1.385 . S
C970 C972 1.478 . S
C971 H965 0.930 . S
C971 C967 1.400 . S
C971 C970 1.385 . S
C972 C970 1.478 . S
C972 C974 1.381 . S
C972 C978 1.383 . S
C973 C969 1.495 . S
C973 H979 0.959 . S
C973 H980 0.961 . S
C973 H981 0.960 . S
C974 C972 1.381 . S
C974 C975 1.394 . S
C974 H982 0.930 . S
C975 C974 1.394 . S
C975 C976 1.383 . S
C975 H983 0.929 . S
C976 C975 1.383 . S
C976 C977 1.377 . S
C977 H961 0.930 . S
C977 C976 1.377 . S
C977 C978 1.379 . S
C978 H962 0.931 . S
C978 C972 1.383 . S
C978 C977 1.379 . S
H979 C973 0.959 . S
H980 C973 0.961 . S
H981 C973 0.960 . S
H982 C974 0.930 . S
H983 C975 0.929 . S
H984 C992 0.929 . S
H985 C994 0.930 . S
H986 C996 0.930 . S
H987 C999 0.929 . S
H988 C1002 0.930 . S
H989 C1004 0.960 . S
H990 C1004 0.960 . S
H991 C1004 0.960 . S
C992 H984 0.929 . S
C992 C993 1.377 . S
C992 C994 1.384 . S
C993 C992 1.377 . S
C993 C999 1.390 . S
C994 H985 0.930 . S
C994 C992 1.384 . S
C994 C995 1.372 . S
C995 C994 1.372 . S
C995 C996 1.400 . S
C995 C1000 1.490 . S
C996 H986 0.930 . S
C996 C995 1.400 . S
C996 C999 1.386 . S
H997 C1013 0.930 . S
H998 C1014 0.931 . S
C999 H987 0.929 . S
C999 C993 1.390 . S
C999 C996 1.386 . S
C1000 C995 1.490 . S
C1000 C1002 1.395 . S
C1000 C1003 1.403 . S
H1001 C1007 0.930 . S
C1002 H988 0.930 . S
C1002 C1000 1.395 . S
C1002 C1005 1.403 . S
C1003 C1000 1.403 . S
C1003 C1004 1.524 . S
C1003 C1007 1.400 . S
C1004 H989 0.960 . S
C1004 H990 0.960 . S
C1004 H991 0.960 . S
C1004 C1003 1.524 . S
C1005 C1002 1.403 . S
C1005 C1006 1.392 . S
C1005 C1009 1.495 . S
C1006 C1005 1.392 . S
C1006 C1007 1.385 . S
C1006 C1008 1.478 . S
C1007 H1001 0.930 . S
C1007 C1003 1.400 . S
C1007 C1006 1.385 . S
C1008 C1006 1.478 . S
C1008 C1010 1.381 . S
C1008 C1014 1.383 . S
C1009 C1005 1.495 . S
C1009 H1015 0.959 . S
C1009 H1016 0.961 . S
C1009 H1017 0.960 . S
C1010 C1008 1.381 . S
C1010 C1011 1.394 . S
C1010 H1018 0.930 . S
C1011 C1010 1.394 . S
C1011 C1012 1.383 . S
C1011 H1019 0.929 . S
C1012 C1011 1.383 . S
C1012 C1013 1.377 . S
C1013 H997 0.930 . S
C1013 C1012 1.377 . S
C1013 C1014 1.379 . S
C1014 H998 0.931 . S
C1014 C1008 1.383 . S
C1014 C1013 1.379 . S
H1015 C1009 0.959 . S
H1016 C1009 0.961 . S
H1017 C1009 0.960 . S
H1018 C1010 0.930 . S
H1019 C1011 0.929 . S
H1020 C1028 0.929 . S
H1021 C1030 0.930 . S
H1022 C1032 0.930 . S
H1023 C1035 0.929 . S
H1024 C1038 0.930 . S
H1025 C1040 0.960 . S
H1026 C1040 0.960 . S
H1027 C1040 0.960 . S
C1028 H1020 0.929 . S
C1028 C1029 1.377 . S
C1028 C1030 1.384 . S
C1029 C1028 1.377 . S
C1029 C1035 1.390 . S
C1030 H1021 0.930 . S
C1030 C1028 1.384 . S
C1030 C1031 1.372 . S
C1031 C1030 1.372 . S
C1031 C1032 1.400 . S
C1031 C1036 1.490 . S
C1032 H1022 0.930 . S
C1032 C1031 1.400 . S
C1032 C1035 1.386 . S
H1033 C1049 0.930 . S
H1034 C1050 0.931 . S
C1035 H1023 0.929 . S
C1035 C1029 1.390 . S
C1035 C1032 1.386 . S
C1036 C1031 1.490 . S
C1036 C1038 1.395 . S
C1036 C1039 1.403 . S
H1037 C1043 0.930 . S
C1038 H1024 0.930 . S
C1038 C1036 1.395 . S
C1038 C1041 1.403 . S
C1039 C1036 1.403 . S
C1039 C1040 1.524 . S
C1039 C1043 1.400 . S
C1040 H1025 0.960 . S
C1040 H1026 0.960 . S
C1040 H1027 0.960 . S
C1040 C1039 1.524 . S
C1041 C1038 1.403 . S
C1041 C1042 1.392 . S
C1041 C1045 1.495 . S
C1042 C1041 1.392 . S
C1042 C1043 1.385 . S
C1042 C1044 1.478 . S
C1043 H1037 0.930 . S
C1043 C1039 1.400 . S
C1043 C1042 1.385 . S
C1044 C1042 1.478 . S
C1044 C1046 1.381 . S
C1044 C1050 1.383 . S
C1045 C1041 1.495 . S
C1045 H1051 0.959 . S
C1045 H1052 0.961 . S
C1045 H1053 0.960 . S
C1046 C1044 1.381 . S
C1046 C1047 1.394 . S
C1046 H1054 0.930 . S
C1047 C1046 1.394 . S
C1047 C1048 1.383 . S
C1047 H1055 0.929 . S
C1048 C1047 1.383 . S
C1048 C1049 1.377 . S
C1049 H1033 0.930 . S
C1049 C1048 1.377 . S
C1049 C1050 1.379 . S
C1050 H1034 0.931 . S
C1050 C1044 1.383 . S
C1050 C1049 1.379 . S
H1051 C1045 0.959 . S
H1052 C1045 0.961 . S
H1053 C1045 0.960 . S
H1054 C1046 0.930 . S
H1055 C1047 0.929 . S
H1056 C1064 0.929 . S
H1057 C1066 0.930 . S
H1058 C1068 0.930 . S
H1059 C1071 0.929 . S
H1060 C1074 0.930 . S
H1061 C1076 0.960 . S
H1062 C1076 0.960 . S
H1063 C1076 0.960 . S
C1064 H1056 0.929 . S
C1064 C1065 1.377 . S
C1064 C1066 1.384 . S
C1065 C1064 1.377 . S
C1065 C1071 1.390 . S
C1066 H1057 0.930 . S
C1066 C1064 1.384 . S
C1066 C1067 1.372 . S
C1067 C1066 1.372 . S
C1067 C1068 1.400 . S
C1067 C1072 1.490 . S
C1068 H1058 0.930 . S
C1068 C1067 1.400 . S
C1068 C1071 1.386 . S
H1069 C1085 0.930 . S
H1070 C1086 0.931 . S
C1071 H1059 0.929 . S
C1071 C1065 1.390 . S
C1071 C1068 1.386 . S
C1072 C1067 1.490 . S
C1072 C1074 1.395 . S
C1072 C1075 1.403 . S
H1073 C1079 0.930 . S
C1074 H1060 0.930 . S
C1074 C1072 1.395 . S
C1074 C1077 1.403 . S
C1075 C1072 1.403 . S
C1075 C1076 1.524 . S
C1075 C1079 1.400 . S
C1076 H1061 0.960 . S
C1076 H1062 0.960 . S
C1076 H1063 0.960 . S
C1076 C1075 1.524 . S
C1077 C1074 1.403 . S
C1077 C1078 1.392 . S
C1077 C1081 1.495 . S
C1078 C1077 1.392 . S
C1078 C1079 1.385 . S
C1078 C1080 1.478 . S
C1079 H1073 0.930 . S
C1079 C1075 1.400 . S
C1079 C1078 1.385 . S
C1080 C1078 1.478 . S
C1080 C1082 1.381 . S
C1080 C1086 1.383 . S
C1081 C1077 1.495 . S
C1081 H1087 0.959 . S
C1081 H1088 0.961 . S
C1081 H1089 0.960 . S
C1082 C1080 1.381 . S
C1082 C1083 1.394 . S
C1082 H1090 0.930 . S
C1083 C1082 1.394 . S
C1083 C1084 1.383 . S
C1083 H1091 0.929 . S
C1084 C1083 1.383 . S
C1084 C1085 1.377 . S
C1085 H1069 0.930 . S
C1085 C1084 1.377 . S
C1085 C1086 1.379 . S
C1086 H1070 0.931 . S
C1086 C1080 1.383 . S
C1086 C1085 1.379 . S
H1087 C1081 0.959 . S
H1088 C1081 0.961 . S
H1089 C1081 0.960 . S
H1090 C1082 0.930 . S
H1091 C1083 0.929 . S
H1092 C1100 0.929 . S
H1093 C1102 0.930 . S
H1094 C1104 0.930 . S
H1095 C1107 0.929 . S
H1096 C1110 0.930 . S
H1097 C1112 0.960 . S
H1098 C1112 0.960 . S
H1099 C1112 0.960 . S
C1100 H1092 0.929 . S
C1100 C1101 1.377 . S
C1100 C1102 1.384 . S
C1101 C1100 1.377 . S
C1101 C1107 1.390 . S
C1102 H1093 0.930 . S
C1102 C1100 1.384 . S
C1102 C1103 1.372 . S
C1103 C1102 1.372 . S
C1103 C1104 1.400 . S
C1103 C1108 1.490 . S
C1104 H1094 0.930 . S
C1104 C1103 1.400 . S
C1104 C1107 1.386 . S
H1105 C1121 0.930 . S
H1106 C1122 0.931 . S
C1107 H1095 0.929 . S
C1107 C1101 1.390 . S
C1107 C1104 1.386 . S
C1108 C1103 1.490 . S
C1108 C1110 1.395 1_455 S
C1108 C1111 1.403 . S
H1109 C1115 0.930 . S
C1110 H1096 0.930 . S
C1110 C1108 1.395 1_655 S
C1110 C1113 1.403 . S
C1111 C1108 1.403 . S
C1111 C1112 1.524 . S
C1111 C1115 1.400 . S
C1112 H1097 0.960 . S
C1112 H1098 0.960 . S
C1112 H1099 0.960 . S
C1112 C1111 1.524 . S
C1113 C1110 1.403 . S
C1113 C1114 1.392 . S
C1113 C1117 1.495 . S
C1114 C1113 1.392 . S
C1114 C1115 1.385 1_655 S
C1114 C1116 1.478 . S
C1115 H1109 0.930 . S
C1115 C1111 1.400 . S
C1115 C1114 1.385 1_455 S
C1116 C1114 1.478 . S
C1116 C1118 1.381 . S
C1116 C1122 1.383 . S
C1117 C1113 1.495 . S
C1117 H1123 0.959 . S
C1117 H1124 0.961 . S
C1117 H1125 0.960 . S
C1118 C1116 1.381 . S
C1118 C1119 1.394 . S
C1118 H1126 0.930 . S
C1119 C1118 1.394 . S
C1119 C1120 1.383 . S
C1119 H1127 0.929 . S
C1120 C1119 1.383 . S
C1120 C1121 1.377 . S
C1121 H1105 0.930 . S
C1121 C1120 1.377 . S
C1121 C1122 1.379 . S
C1122 H1106 0.931 . S
C1122 C1116 1.383 . S
C1122 C1121 1.379 . S
H1123 C1117 0.959 . S
H1124 C1117 0.961 . S
H1125 C1117 0.960 . S
H1126 C1118 0.930 . S
H1127 C1119 0.929 . S
H1128 C1136 0.929 . S
H1129 C1138 0.930 . S
H1130 C1140 0.930 . S
H1131 C1143 0.929 . S
H1132 C1146 0.930 . S
H1133 C1148 0.960 . S
H1134 C1148 0.960 . S
H1135 C1148 0.960 . S
C1136 H1128 0.929 . S
C1136 C1137 1.377 . S
C1136 C1138 1.384 . S
C1137 C1136 1.377 . S
C1137 C1143 1.390 . S
C1138 H1129 0.930 . S
C1138 C1136 1.384 . S
C1138 C1139 1.372 . S
C1139 C1138 1.372 . S
C1139 C1140 1.400 . S
C1139 C1144 1.490 . S
C1140 H1130 0.930 . S
C1140 C1139 1.400 . S
C1140 C1143 1.386 . S
H1141 C1157 0.930 . S
H1142 C1158 0.931 . S
C1143 H1131 0.929 . S
C1143 C1137 1.390 . S
C1143 C1140 1.386 . S
C1144 C1139 1.490 . S
C1144 C1146 1.395 . S
C1144 C1147 1.403 1_565 S
H1145 C1151 0.930 . S
C1146 H1132 0.930 . S
C1146 C1144 1.395 . S
C1146 C1149 1.403 . S
C1147 C1144 1.403 1_545 S
C1147 C1148 1.524 . S
C1147 C1151 1.400 . S
C1148 H1133 0.960 . S
C1148 H1134 0.960 . S
C1148 H1135 0.960 . S
C1148 C1147 1.524 . S
C1149 C1146 1.403 . S
C1149 C1150 1.392 1_565 S
C1149 C1153 1.495 . S
C1150 C1149 1.392 1_545 S
C1150 C1151 1.385 . S
C1150 C1152 1.478 . S
C1151 H1145 0.930 . S
C1151 C1147 1.400 . S
C1151 C1150 1.385 . S
C1152 C1150 1.478 . S
C1152 C1154 1.381 . S
C1152 C1158 1.383 . S
C1153 C1149 1.495 . S
C1153 H1159 0.959 . S
C1153 H1160 0.961 . S
C1153 H1161 0.960 . S
C1154 C1152 1.381 . S
C1154 C1155 1.394 . S
C1154 H1162 0.930 . S
C1155 C1154 1.394 . S
C1155 C1156 1.383 . S
C1155 H1163 0.929 . S
C1156 C1155 1.383 . S
C1156 C1157 1.377 . S
C1157 H1141 0.930 . S
C1157 C1156 1.377 . S
C1157 C1158 1.379 . S
C1158 H1142 0.931 . S
C1158 C1152 1.383 . S
C1158 C1157 1.379 . S
H1159 C1153 0.959 . S
H1160 C1153 0.961 . S
H1161 C1153 0.960 . S
H1162 C1154 0.930 . S
H1163 C1155 0.929 . S
H1164 C1172 0.929 . S
H1165 C1174 0.930 . S
H1166 C1176 0.930 . S
H1167 C1179 0.929 . S
H1168 C1182 0.930 . S
H1169 C1184 0.960 . S
H1170 C1184 0.960 . S
H1171 C1184 0.960 . S
C1172 H1164 0.929 . S
C1172 C1173 1.377 . S
C1172 C1174 1.384 . S
C1173 C1172 1.377 . S
C1173 C1179 1.390 . S
C1174 H1165 0.930 . S
C1174 C1172 1.384 . S
C1174 C1175 1.372 . S
C1175 C1174 1.372 . S
C1175 C1176 1.400 . S
C1175 C1180 1.490 . S
C1176 H1166 0.930 . S
C1176 C1175 1.400 . S
C1176 C1179 1.386 . S
H1177 C1193 0.930 . S
H1178 C1194 0.931 . S
C1179 H1167 0.929 . S
C1179 C1173 1.390 . S
C1179 C1176 1.386 . S
C1180 C1175 1.490 . S
C1180 C1182 1.395 . S
C1180 C1183 1.403 . S
H1181 C1187 0.930 . S
C1182 H1168 0.930 . S
C1182 C1180 1.395 . S
C1182 C1185 1.403 . S
C1183 C1180 1.403 . S
C1183 C1184 1.524 . S
C1183 C1187 1.400 . S
C1184 H1169 0.960 . S
C1184 H1170 0.960 . S
C1184 H1171 0.960 . S
C1184 C1183 1.524 . S
C1185 C1182 1.403 . S
C1185 C1186 1.392 . S
C1185 C1189 1.495 . S
C1186 C1185 1.392 . S
C1186 C1187 1.385 . S
C1186 C1188 1.478 . S
C1187 H1181 0.930 . S
C1187 C1183 1.400 . S
C1187 C1186 1.385 . S
C1188 C1186 1.478 . S
C1188 C1190 1.381 . S
C1188 C1194 1.383 . S
C1189 C1185 1.495 . S
C1189 H1195 0.959 . S
C1189 H1196 0.961 . S
C1189 H1197 0.960 . S
C1190 C1188 1.381 . S
C1190 C1191 1.394 . S
C1190 H1198 0.930 . S
C1191 C1190 1.394 . S
C1191 C1192 1.383 . S
C1191 H1199 0.929 . S
C1192 C1191 1.383 . S
C1192 C1193 1.377 . S
C1193 H1177 0.930 . S
C1193 C1192 1.377 . S
C1193 C1194 1.379 . S
C1194 H1178 0.931 . S
C1194 C1188 1.383 . S
C1194 C1193 1.379 . S
H1195 C1189 0.959 . S
H1196 C1189 0.961 . S
H1197 C1189 0.960 . S
H1198 C1190 0.930 . S
H1199 C1191 0.929 . S
H1200 C1208 0.929 . S
H1201 C1210 0.930 . S
H1202 C1212 0.930 . S
H1203 C1215 0.929 . S
H1204 C1218 0.930 . S
H1205 C1220 0.960 . S
H1206 C1220 0.960 . S
H1207 C1220 0.960 . S
C1208 H1200 0.929 . S
C1208 C1209 1.377 . S
C1208 C1210 1.384 . S
C1209 C1208 1.377 . S
C1209 C1215 1.390 . S
C1210 H1201 0.930 . S
C1210 C1208 1.384 . S
C1210 C1211 1.372 . S
C1211 C1210 1.372 . S
C1211 C1212 1.400 . S
C1211 C1216 1.490 . S
C1212 H1202 0.930 . S
C1212 C1211 1.400 . S
C1212 C1215 1.386 . S
H1213 C1229 0.930 . S
H1214 C1230 0.931 . S
C1215 H1203 0.929 . S
C1215 C1209 1.390 . S
C1215 C1212 1.386 . S
C1216 C1211 1.490 . S
C1216 C1218 1.395 . S
C1216 C1219 1.403 1_455 S
H1217 C1223 0.930 . S
C1218 H1204 0.930 . S
C1218 C1216 1.395 . S
C1218 C1221 1.403 . S
C1219 C1216 1.403 1_655 S
C1219 C1220 1.524 . S
C1219 C1223 1.400 . S
C1220 H1205 0.960 . S
C1220 H1206 0.960 . S
C1220 H1207 0.960 . S
C1220 C1219 1.524 . S
C1221 C1218 1.403 . S
C1221 C1222 1.392 1_455 S
C1221 C1225 1.495 . S
C1222 C1221 1.392 1_655 S
C1222 C1223 1.385 . S
C1222 C1224 1.478 . S
C1223 H1217 0.930 . S
C1223 C1219 1.400 . S
C1223 C1222 1.385 . S
C1224 C1222 1.478 . S
C1224 C1226 1.381 . S
C1224 C1230 1.383 . S
C1225 C1221 1.495 . S
C1225 H1231 0.959 . S
C1225 H1232 0.961 . S
C1225 H1233 0.960 . S
C1226 C1224 1.381 . S
C1226 C1227 1.394 . S
C1226 H1234 0.930 . S
C1227 C1226 1.394 . S
C1227 C1228 1.383 . S
C1227 H1235 0.929 . S
C1228 C1227 1.383 . S
C1228 C1229 1.377 . S
C1229 H1213 0.930 . S
C1229 C1228 1.377 . S
C1229 C1230 1.379 . S
C1230 H1214 0.931 . S
C1230 C1224 1.383 . S
C1230 C1229 1.379 . S
H1231 C1225 0.959 . S
H1232 C1225 0.961 . S
H1233 C1225 0.960 . S
H1234 C1226 0.930 . S
H1235 C1227 0.929 . S
H1236 C1244 0.929 . S
H1237 C1246 0.930 1_545 S
H1238 C1248 0.930 . S
H1239 C1251 0.929 . S
H1240 C1254 0.930 . S
H1241 C1256 0.960 . S
H1242 C1256 0.960 . S
H1243 C1256 0.960 . S
C1244 H1236 0.929 . S
C1244 C1245 1.377 . S
C1244 C1246 1.384 . S
C1245 C1244 1.377 . S
C1245 C1251 1.390 . S
C1246 H1237 0.930 1_565 S
C1246 C1244 1.384 . S
C1246 C1247 1.372 . S
C1247 C1246 1.372 . S
C1247 C1248 1.400 . S
C1247 C1252 1.490 . S
C1248 H1238 0.930 . S
C1248 C1247 1.400 . S
C1248 C1251 1.386 . S
H1249 C1265 0.930 . S
H1250 C1266 0.931 1_565 S
C1251 H1239 0.929 . S
C1251 C1245 1.390 . S
C1251 C1248 1.386 . S
C1252 C1247 1.490 . S
C1252 C1254 1.395 1_565 S
C1252 C1255 1.403 . S
H1253 C1259 0.930 . S
C1254 H1240 0.930 . S
C1254 C1252 1.395 1_545 S
C1254 C1257 1.403 . S
C1255 C1252 1.403 . S
C1255 C1256 1.524 . S
C1255 C1259 1.400 . S
C1256 H1241 0.960 . S
C1256 H1242 0.960 . S
C1256 H1243 0.960 . S
C1256 C1255 1.524 . S
C1257 C1254 1.403 . S
C1257 C1258 1.392 . S
C1257 C1261 1.495 . S
C1258 C1257 1.392 . S
C1258 C1259 1.385 1_545 S
C1258 C1260 1.478 . S
C1259 H1253 0.930 . S
C1259 C1255 1.400 . S
C1259 C1258 1.385 1_565 S
C1260 C1258 1.478 . S
C1260 C1262 1.381 . S
C1260 C1266 1.383 . S
C1261 C1257 1.495 . S
C1261 H1267 0.959 . S
C1261 H1268 0.961 . S
C1261 H1269 0.960 . S
C1262 C1260 1.381 . S
C1262 C1263 1.394 . S
C1262 H1270 0.930 . S
C1263 C1262 1.394 . S
C1263 C1264 1.383 . S
C1263 H1271 0.929 . S
C1264 C1263 1.383 . S
C1264 C1265 1.377 . S
C1265 H1249 0.930 . S
C1265 C1264 1.377 . S
C1265 C1266 1.379 . S
C1266 H1250 0.931 1_545 S
C1266 C1260 1.383 . S
C1266 C1265 1.379 . S
H1267 C1261 0.959 . S
H1268 C1261 0.961 . S
H1269 C1261 0.960 . S
H1270 C1262 0.930 . S
H1271 C1263 0.929 . S
H1272 C1280 0.929 . S
H1273 C1282 0.930 . S
H1274 C1284 0.930 . S
H1275 C1287 0.929 . S
H1276 C1290 0.930 . S
H1277 C1292 0.960 . S
H1278 C1292 0.960 . S
H1279 C1292 0.960 . S
C1280 H1272 0.929 . S
C1280 C1281 1.377 . S
C1280 C1282 1.384 . S
C1281 C1280 1.377 . S
C1281 C1287 1.390 . S
C1282 H1273 0.930 . S
C1282 C1280 1.384 . S
C1282 C1283 1.372 . S
C1283 C1282 1.372 . S
C1283 C1284 1.400 . S
C1283 C1288 1.490 . S
C1284 H1274 0.930 . S
C1284 C1283 1.400 . S
C1284 C1287 1.386 . S
H1285 C1301 0.930 . S
H1286 C1302 0.931 . S
C1287 H1275 0.929 . S
C1287 C1281 1.390 . S
C1287 C1284 1.386 . S
C1288 C1283 1.490 . S
C1288 C1290 1.395 . S
C1288 C1291 1.403 1_545 S
H1289 C1295 0.930 . S
C1290 H1276 0.930 . S
C1290 C1288 1.395 . S
C1290 C1293 1.403 1_455 S
C1291 C1288 1.403 1_565 S
C1291 C1292 1.524 . S
C1291 C1295 1.400 1_455 S
C1292 H1277 0.960 . S
C1292 H1278 0.960 . S
C1292 H1279 0.960 . S
C1292 C1291 1.524 . S
C1293 C1290 1.403 1_655 S
C1293 C1294 1.392 1_545 S
C1293 C1297 1.495 . S
C1294 C1293 1.392 1_565 S
C1294 C1295 1.385 . S
C1294 C1296 1.478 . S
C1295 H1289 0.930 . S
C1295 C1291 1.400 1_655 S
C1295 C1294 1.385 . S
C1296 C1294 1.478 . S
C1296 C1298 1.381 . S
C1296 C1302 1.383 . S
C1297 C1293 1.495 . S
C1297 H1303 0.959 . S
C1297 H1304 0.961 . S
C1297 H1305 0.960 . S
C1298 C1296 1.381 . S
C1298 C1299 1.394 . S
C1298 H1306 0.930 . S
C1299 C1298 1.394 . S
C1299 C1300 1.383 . S
C1299 H1307 0.929 . S
C1300 C1299 1.383 . S
C1300 C1301 1.377 . S
C1301 H1285 0.930 . S
C1301 C1300 1.377 . S
C1301 C1302 1.379 . S
C1302 H1286 0.931 . S
C1302 C1296 1.383 . S
C1302 C1301 1.379 . S
H1303 C1297 0.959 . S
H1304 C1297 0.961 . S
H1305 C1297 0.960 . S
H1306 C1298 0.930 . S
H1307 C1299 0.929 . S
H1308 C1316 0.929 . S
H1309 C1318 0.930 . S
H1310 C1320 0.930 . S
H1311 C1323 0.929 . S
H1312 C1326 0.930 . S
H1313 C1328 0.960 . S
H1314 C1328 0.960 . S
H1315 C1328 0.960 . S
C1316 H1308 0.929 . S
C1316 C1317 1.377 . S
C1316 C1318 1.384 . S
C1317 C1316 1.377 . S
C1317 C1323 1.390 . S
C1318 H1309 0.930 . S
C1318 C1316 1.384 . S
C1318 C1319 1.372 . S
C1319 C1318 1.372 . S
C1319 C1320 1.400 . S
C1319 C1324 1.490 . S
C1320 H1310 0.930 . S
C1320 C1319 1.400 . S
C1320 C1323 1.386 . S
H1321 C1337 0.930 . S
H1322 C1338 0.931 . S
C1323 H1311 0.929 . S
C1323 C1317 1.390 . S
C1323 C1320 1.386 . S
C1324 C1319 1.490 . S
C1324 C1326 1.395 1_455 S
C1324 C1327 1.403 . S
H1325 C1331 0.930 . S
C1326 H1312 0.930 . S
C1326 C1324 1.395 1_655 S
C1326 C1329 1.403 1_545 S
C1327 C1324 1.403 . S
C1327 C1328 1.524 . S
C1327 C1331 1.400 1_545 S
C1328 H1313 0.960 . S
C1328 H1314 0.960 . S
C1328 H1315 0.960 . S
C1328 C1327 1.524 . S
C1329 C1326 1.403 1_565 S
C1329 C1330 1.392 . S
C1329 C1333 1.495 . S
C1330 C1329 1.392 . S
C1330 C1331 1.385 1_655 S
C1330 C1332 1.478 . S
C1331 H1325 0.930 . S
C1331 C1327 1.400 1_565 S
C1331 C1330 1.385 1_455 S
C1332 C1330 1.478 . S
C1332 C1334 1.381 . S
C1332 C1338 1.383 . S
C1333 C1329 1.495 . S
C1333 H1339 0.959 . S
C1333 H1340 0.961 . S
C1333 H1341 0.960 . S
C1334 C1332 1.381 . S
C1334 C1335 1.394 . S
C1334 H1342 0.930 . S
C1335 C1334 1.394 . S
C1335 C1336 1.383 . S
C1335 H1343 0.929 . S
C1336 C1335 1.383 . S
C1336 C1337 1.377 . S
C1337 H1321 0.930 . S
C1337 C1336 1.377 . S
C1337 C1338 1.379 . S
C1338 H1322 0.931 . S
C1338 C1332 1.383 . S
C1338 C1337 1.379 . S
H1339 C1333 0.959 . S
H1340 C1333 0.961 . S
H1341 C1333 0.960 . S
H1342 C1334 0.930 . S
H1343 C1335 0.929 . S
H1344 C1352 0.929 . S
H1345 C1354 0.930 1_565 S
H1346 C1356 0.930 . S
H1347 C1359 0.929 . S
H1348 C1362 0.930 . S
H1349 C1364 0.960 . S
H1350 C1364 0.960 . S
H1351 C1364 0.960 . S
C1352 H1344 0.929 . S
C1352 C1353 1.377 . S
C1352 C1354 1.384 . S
C1353 C1352 1.377 . S
C1353 C1359 1.390 . S
C1354 H1345 0.930 1_545 S
C1354 C1352 1.384 . S
C1354 C1355 1.372 . S
C1355 C1354 1.372 . S
C1355 C1356 1.400 . S
C1355 C1360 1.490 . S
C1356 H1346 0.930 . S
C1356 C1355 1.400 . S
C1356 C1359 1.386 . S
H1357 C1373 0.930 . S
H1358 C1374 0.931 1_545 S
C1359 H1347 0.929 . S
C1359 C1353 1.390 . S
C1359 C1356 1.386 . S
C1360 C1355 1.490 . S
C1360 C1362 1.395 . S
C1360 C1363 1.403 . S
H1361 C1367 0.930 . S
C1362 H1348 0.930 . S
C1362 C1360 1.395 . S
C1362 C1365 1.403 1_645 S
C1363 C1360 1.403 . S
C1363 C1364 1.524 . S
C1363 C1367 1.400 1_645 S
C1364 H1349 0.960 . S
C1364 H1350 0.960 . S
C1364 H1351 0.960 . S
C1364 C1363 1.524 . S
C1365 C1362 1.403 1_465 S
C1365 C1366 1.392 . S
C1365 C1369 1.495 . S
C1366 C1365 1.392 . S
C1366 C1367 1.385 . S
C1366 C1368 1.478 . S
C1367 H1361 0.930 . S
C1367 C1363 1.400 1_465 S
C1367 C1366 1.385 . S
C1368 C1366 1.478 . S
C1368 C1370 1.381 . S
C1368 C1374 1.383 . S
C1369 C1365 1.495 . S
C1369 H1375 0.959 1_455 S
C1369 H1376 0.961 . S
C1369 H1377 0.959 1_455 S
C1370 C1368 1.381 . S
C1370 C1371 1.394 . S
C1370 H1378 0.935 . S
C1371 C1370 1.394 . S
C1371 C1372 1.383 . S
C1371 H1379 0.929 . S
C1372 C1371 1.383 . S
C1372 C1373 1.377 . S
C1373 H1357 0.930 . S
C1373 C1372 1.377 . S
C1373 C1374 1.379 . S
C1374 H1358 0.931 1_565 S
C1374 C1368 1.383 . S
C1374 C1373 1.379 . S
H1375 C1369 0.959 1_655 S
H1376 C1369 0.961 . S
H1377 C1369 0.959 1_655 S
H1378 C1370 0.935 . S
H1379 C1371 0.929 . S
H1380 C1388 0.929 . S
H1381 C1390 0.932 . S
H1382 C1392 0.930 . S
H1383 C1395 0.929 . S
H1384 C1398 0.930 . S
H1385 C1400 0.960 . S
H1386 C1400 0.960 . S
H1387 C1400 0.960 . S
C1388 H1380 0.929 . S
C1388 C1389 1.377 . S
C1388 C1390 1.384 . S
C1389 C1388 1.377 . S
C1389 C1395 1.390 . S
C1390 H1381 0.932 . S
C1390 C1388 1.384 . S
C1390 C1391 1.372 . S
C1391 C1390 1.372 . S
C1391 C1392 1.400 . S
C1391 C1396 1.490 . S
C1392 H1382 0.930 . S
C1392 C1391 1.400 . S
C1392 C1395 1.386 . S
H1393 C1409 0.930 . S
H1394 C1410 0.931 . S
C1395 H1383 0.929 . S
C1395 C1389 1.390 . S
C1395 C1392 1.386 . S
C1396 C1391 1.490 . S
C1396 C1398 1.395 1_655 S
C1396 C1399 1.403 . S
H1397 C1403 0.930 . S
C1398 H1384 0.930 . S
C1398 C1396 1.395 1_455 S
C1398 C1401 1.403 1_565 S
C1399 C1396 1.403 . S
C1399 C1400 1.524 . S
C1399 C1403 1.400 1_565 S
C1400 H1385 0.960 . S
C1400 H1386 0.960 . S
C1400 H1387 0.960 . S
C1400 C1399 1.524 . S
C1401 C1398 1.403 1_545 S
C1401 C1402 1.392 . S
C1401 C1405 1.495 . S
C1402 C1401 1.392 . S
C1402 C1403 1.385 1_455 S
C1402 C1404 1.478 . S
C1403 H1397 0.930 . S
C1403 C1399 1.400 1_545 S
C1403 C1402 1.385 1_655 S
C1404 C1402 1.478 . S
C1404 C1406 1.381 . S
C1404 C1410 1.383 . S
C1405 C1401 1.495 . S
C1405 H1411 0.959 . S
C1405 H1412 0.961 . S
C1405 H1413 0.960 . S
C1406 C1404 1.381 . S
C1406 C1407 1.394 . S
C1406 H1414 0.930 . S
C1407 C1406 1.394 . S
C1407 C1408 1.383 . S
C1407 H1415 0.929 . S
C1408 C1407 1.383 . S
C1408 C1409 1.377 . S
C1409 H1393 0.930 . S
C1409 C1408 1.377 . S
C1409 C1410 1.379 . S
C1410 H1394 0.931 . S
C1410 C1404 1.383 . S
C1410 C1409 1.379 . S
H1411 C1405 0.959 . S
H1412 C1405 0.961 . S
H1413 C1405 0.960 . S
H1414 C1406 0.930 . S
H1415 C1407 0.929 . S
H1416 C1424 0.929 . S
H1417 C1426 0.930 . S
H1418 C1428 0.930 . S
H1419 C1431 0.929 . S
H1420 C1434 0.930 . S
H1421 C1436 0.960 . S
H1422 C1436 0.960 . S
H1423 C1436 0.960 . S
C1424 H1416 0.929 . S
C1424 C1425 1.377 . S
C1424 C1426 1.384 . S
C1425 C1424 1.377 . S
C1425 C1431 1.390 . S
C1426 H1417 0.930 . S
C1426 C1424 1.384 . S
C1426 C1427 1.372 . S
C1427 C1426 1.372 . S
C1427 C1428 1.400 . S
C1427 C1432 1.490 . S
C1428 H1418 0.930 . S
C1428 C1427 1.400 . S
C1428 C1431 1.386 . S
H1429 C1445 0.930 . S
H1430 C1446 0.931 . S
C1431 H1419 0.929 . S
C1431 C1425 1.390 . S
C1431 C1428 1.386 . S
C1432 C1427 1.490 . S
C1432 C1434 1.395 1_655 S
C1432 C1435 1.403 1_545 S
H1433 C1439 0.930 . S
C1434 H1420 0.930 . S
C1434 C1432 1.395 1_455 S
C1434 C1437 1.403 . S
C1435 C1432 1.403 1_565 S
C1435 C1436 1.524 . S
C1435 C1439 1.400 . S
C1436 H1421 0.960 . S
C1436 H1422 0.960 . S
C1436 H1423 0.960 . S
C1436 C1435 1.524 . S
C1437 C1434 1.403 . S
C1437 C1438 1.392 1_545 S
C1437 C1441 1.495 . S
C1438 C1437 1.392 1_565 S
C1438 C1439 1.385 1_455 S
C1438 C1440 1.478 . S
C1439 H1433 0.930 . S
C1439 C1435 1.400 . S
C1439 C1438 1.385 1_655 S
C1440 C1438 1.478 . S
C1440 C1442 1.381 . S
C1440 C1446 1.383 . S
C1441 C1437 1.495 . S
C1441 H1447 0.959 . S
C1441 H1448 0.961 . S
C1441 H1449 0.960 . S
C1442 C1440 1.381 . S
C1442 C1443 1.394 . S
C1442 H1450 0.930 . S
C1443 C1442 1.394 . S
C1443 C1444 1.383 . S
C1443 H1451 0.929 . S
C1444 C1443 1.383 . S
C1444 C1445 1.377 . S
C1445 H1429 0.930 . S
C1445 C1444 1.377 . S
C1445 C1446 1.379 . S
C1446 H1430 0.931 . S
C1446 C1440 1.383 . S
C1446 C1445 1.379 . S
H1447 C1441 0.959 . S
H1448 C1441 0.961 . S
H1449 C1441 0.960 . S
H1450 C1442 0.930 . S
H1451 C1443 0.929 . S
H1452 C1460 0.929 . S
H1453 C1462 0.930 . S
H1454 C1464 0.930 . S
H1455 C1467 0.929 . S
H1456 C1470 0.930 . S
H1457 C1472 0.960 . S
H1458 C1472 0.960 . S
H1459 C1472 0.960 . S
C1460 H1452 0.929 . S
C1460 C1461 1.377 . S
C1460 C1462 1.384 . S
C1461 C1460 1.377 . S
C1461 C1467 1.390 . S
C1462 H1453 0.930 . S
C1462 C1460 1.384 . S
C1462 C1463 1.372 . S
C1463 C1462 1.372 . S
C1463 C1464 1.400 . S
C1463 C1468 1.490 . S
C1464 H1454 0.930 . S
C1464 C1463 1.400 . S
C1464 C1467 1.386 . S
H1465 C1481 0.930 . S
H1466 C1482 0.931 . S
C1467 H1455 0.929 . S
C1467 C1461 1.390 . S
C1467 C1464 1.386 . S
C1468 C1463 1.490 . S
C1468 C1470 1.395 1_545 S
C1468 C1471 1.403 . S
H1469 C1475 0.930 . S
C1470 H1456 0.930 . S
C1470 C1468 1.395 1_565 S
C1470 C1473 1.403 1_455 S
C1471 C1468 1.403 . S
C1471 C1472 1.524 . S
C1471 C1475 1.400 1_455 S
C1472 H1457 0.960 . S
C1472 H1458 0.960 . S
C1472 H1459 0.960 . S
C1472 C1471 1.524 . S
C1473 C1470 1.403 1_655 S
C1473 C1474 1.392 . S
C1473 C1477 1.495 . S
C1474 C1473 1.392 . S
C1474 C1475 1.385 1_565 S
C1474 C1476 1.478 . S
C1475 H1469 0.930 . S
C1475 C1471 1.400 1_655 S
C1475 C1474 1.385 1_545 S
C1476 C1474 1.478 . S
C1476 C1478 1.381 . S
C1476 C1482 1.383 . S
C1477 C1473 1.495 . S
C1477 H1483 0.959 . S
C1477 H1484 0.961 . S
C1477 H1485 0.960 . S
C1478 C1476 1.381 . S
C1478 C1479 1.394 . S
C1478 H1486 0.930 . S
C1479 C1478 1.394 . S
C1479 C1480 1.383 . S
C1479 H1487 0.929 . S
C1480 C1479 1.383 . S
C1480 C1481 1.377 . S
C1481 H1465 0.930 . S
C1481 C1480 1.377 . S
C1481 C1482 1.379 . S
C1482 H1466 0.931 . S
C1482 C1476 1.383 . S
C1482 C1481 1.379 . S
H1483 C1477 0.959 . S
H1484 C1477 0.961 . S
H1485 C1477 0.960 . S
H1486 C1478 0.930 . S
H1487 C1479 0.929 . S
C417 C9 1.466 . S
C436 C247 1.479 . S
C453 C43 1.468 . S
C472 C281 1.481 . S
C489 C77 1.461 . S
C508 C315 1.446 . S
C525 C349 1.464 . S
C544 C111 1.469 . S
C561 C383 1.466 . S
C580 C145 1.480 . S
C597 C179 1.468 . S
C616 C213 1.482 . S
C633 C122 0.311 . S
C652 C20 0.356 . S
C669 C54 0.302 . S
C688 C156 0.267 . S
C705 C190 0.298 . S
C724 C88 0.270 . S
C741 C326 0.298 . S
C760 C224 0.269 . S
C777 C360 0.301 . S
C796 C258 0.341 . S
C813 C292 0.301 . S
C832 C394 0.343 . S
C849 C277 1.499 . S
C868 C5 1.487 . S
C885 C39 1.496 . S
C904 C311 1.504 . S
C921 C73 1.496 . S
C940 C345 1.505 . S
C957 C107 1.496 . S
C976 C379 1.506 . S
C993 C141 1.500 . S
C1012 C209 1.484 . S
C1029 C243 1.497 . S
C1048 C175 1.498 . S
C1065 C135 2.402 . S
C1084 C33 2.398 . S
C1101 C67 2.400 . S
C1120 C169 2.392 . S
C1137 C203 2.402 . S
C1156 C101 2.401 . S
C1173 C237 2.401 . S
C1192 C339 2.392 . S
C1209 C271 2.402 . S
C1228 C373 2.402 . S
C1245 C407 2.401 . S
C1264 C305 2.394 . S
C1281 C2 1.355 . S
C1300 C104 1.339 . S
C1317 C36 1.355 . S
C1336 C138 1.339 . S
C1353 C70 1.360 . S
C1372 C172 1.356 . S
C1389 C206 1.357 . S
C1408 C308 1.364 . S
C1425 C342 1.357 . S
C1444 C240 1.341 . S
C1461 C274 1.355 . S
C1480 C376 1.339 . S
