# Generated by pormake.
# Topology bmn, (3)-cn, num edge types: 1
# Building blocks:
#     Node 0, Type 0, BuildingBlock: OLANEW_clean_sbu_2, # of connection points: 3
#     Node 1, Type 0, BuildingBlock: OLANEW_clean_sbu_2, # of connection points: 3
#     Node 2, Type 0, BuildingBlock: OLANEW_clean_sbu_2, # of connection points: 3
#     Node 3, Type 0, BuildingBlock: OLANEW_clean_sbu_2, # of connection points: 3
#     Node 4, Type 0, BuildingBlock: OLANEW_clean_sbu_2, # of connection points: 3
#     Node 5, Type 0, BuildingBlock: OLANEW_clean_sbu_2, # of connection points: 3
#     Node 6, Type 0, BuildingBlock: OLANEW_clean_sbu_2, # of connection points: 3
#     Node 7, Type 0, BuildingBlock: OLANEW_clean_sbu_2, # of connection points: 3
#     Node 8, Type 0, BuildingBlock: OLANEW_clean_sbu_2, # of connection points: 3
#     Node 9, Type 0, BuildingBlock: OLANEW_clean_sbu_2, # of connection points: 3
#     Node 10, Type 0, BuildingBlock: OLANEW_clean_sbu_2, # of connection points: 3
#     Node 11, Type 0, BuildingBlock: OLANEW_clean_sbu_2, # of connection points: 3
#     Node 12, Type 0, BuildingBlock: OLANEW_clean_sbu_2, # of connection points: 3
#     Node 13, Type 0, BuildingBlock: OLANEW_clean_sbu_2, # of connection points: 3
#     Node 14, Type 0, BuildingBlock: OLANEW_clean_sbu_2, # of connection points: 3
#     Node 15, Type 0, BuildingBlock: OLANEW_clean_sbu_2, # of connection points: 3
#     Node 16, Type 0, BuildingBlock: OLANEW_clean_sbu_2, # of connection points: 3
#     Node 17, Type 0, BuildingBlock: OLANEW_clean_sbu_2, # of connection points: 3
#     Node 18, Type 0, BuildingBlock: OLANEW_clean_sbu_2, # of connection points: 3
#     Node 19, Type 0, BuildingBlock: OLANEW_clean_sbu_2, # of connection points: 3
#     Node 20, Type 0, BuildingBlock: OLANEW_clean_sbu_2, # of connection points: 3
#     Node 21, Type 0, BuildingBlock: OLANEW_clean_sbu_2, # of connection points: 3
#     Node 22, Type 0, BuildingBlock: OLANEW_clean_sbu_2, # of connection points: 3
#     Node 23, Type 0, BuildingBlock: OLANEW_clean_sbu_2, # of connection points: 3
#     Edge 24, Type (0, 0), BuildingBlock: OJICUG_clean_linker_0, # of connection points: 2
#     Edge 25, Type (0, 0), BuildingBlock: OJICUG_clean_linker_0, # of connection points: 2
#     Edge 26, Type (0, 0), BuildingBlock: OJICUG_clean_linker_0, # of connection points: 2
#     Edge 27, Type (0, 0), BuildingBlock: OJICUG_clean_linker_0, # of connection points: 2
#     Edge 28, Type (0, 0), BuildingBlock: OJICUG_clean_linker_0, # of connection points: 2
#     Edge 29, Type (0, 0), BuildingBlock: OJICUG_clean_linker_0, # of connection points: 2
#     Edge 30, Type (0, 0), BuildingBlock: OJICUG_clean_linker_0, # of connection points: 2
#     Edge 31, Type (0, 0), BuildingBlock: OJICUG_clean_linker_0, # of connection points: 2
#     Edge 32, Type (0, 0), BuildingBlock: OJICUG_clean_linker_0, # of connection points: 2
#     Edge 33, Type (0, 0), BuildingBlock: OJICUG_clean_linker_0, # of connection points: 2
#     Edge 34, Type (0, 0), BuildingBlock: OJICUG_clean_linker_0, # of connection points: 2
#     Edge 35, Type (0, 0), BuildingBlock: OJICUG_clean_linker_0, # of connection points: 2
#     Edge 36, Type (0, 0), BuildingBlock: OJICUG_clean_linker_0, # of connection points: 2
#     Edge 37, Type (0, 0), BuildingBlock: OJICUG_clean_linker_0, # of connection points: 2
#     Edge 38, Type (0, 0), BuildingBlock: OJICUG_clean_linker_0, # of connection points: 2
#     Edge 39, Type (0, 0), BuildingBlock: OJICUG_clean_linker_0, # of connection points: 2
#     Edge 40, Type (0, 0), BuildingBlock: OJICUG_clean_linker_0, # of connection points: 2
#     Edge 41, Type (0, 0), BuildingBlock: OJICUG_clean_linker_0, # of connection points: 2
#     Edge 42, Type (0, 0), BuildingBlock: OJICUG_clean_linker_0, # of connection points: 2
#     Edge 43, Type (0, 0), BuildingBlock: OJICUG_clean_linker_0, # of connection points: 2
#     Edge 44, Type (0, 0), BuildingBlock: OJICUG_clean_linker_0, # of connection points: 2
#     Edge 45, Type (0, 0), BuildingBlock: OJICUG_clean_linker_0, # of connection points: 2
#     Edge 46, Type (0, 0), BuildingBlock: OJICUG_clean_linker_0, # of connection points: 2
#     Edge 47, Type (0, 0), BuildingBlock: OJICUG_clean_linker_0, # of connection points: 2
#     Edge 48, Type (0, 0), BuildingBlock: OJICUG_clean_linker_0, # of connection points: 2
#     Edge 49, Type (0, 0), BuildingBlock: OJICUG_clean_linker_0, # of connection points: 2
#     Edge 50, Type (0, 0), BuildingBlock: OJICUG_clean_linker_0, # of connection points: 2
#     Edge 51, Type (0, 0), BuildingBlock: OJICUG_clean_linker_0, # of connection points: 2
#     Edge 52, Type (0, 0), BuildingBlock: OJICUG_clean_linker_0, # of connection points: 2
#     Edge 53, Type (0, 0), BuildingBlock: OJICUG_clean_linker_0, # of connection points: 2
#     Edge 54, Type (0, 0), BuildingBlock: OJICUG_clean_linker_0, # of connection points: 2
#     Edge 55, Type (0, 0), BuildingBlock: OJICUG_clean_linker_0, # of connection points: 2
#     Edge 56, Type (0, 0), BuildingBlock: OJICUG_clean_linker_0, # of connection points: 2
#     Edge 57, Type (0, 0), BuildingBlock: OJICUG_clean_linker_0, # of connection points: 2
#     Edge 58, Type (0, 0), BuildingBlock: OJICUG_clean_linker_0, # of connection points: 2
#     Edge 59, Type (0, 0), BuildingBlock: OJICUG_clean_linker_0, # of connection points: 2
# Relax obj value: 0.028
# Max RMSD: 0.069
# Mean RMSD: 0.034
data_MOF--net-bmn--node1-OLANEW_clean_sbu_2--edge1-OJICUG_clean_linker_0
_symmetry_space_group_name_H-M    P1
_symmetry_Int_Tables_number       1
_symmetry_cell_setting            triclinic
loop_
_symmetry_equiv_pos_as_xyz
'x, y, z'
_cell_length_a     47.980972
_cell_length_b     47.904227
_cell_length_c     48.418037
_cell_angle_alpha  100.65838
_cell_angle_beta   96.272758
_cell_angle_gamma 96.773118
loop_
_atom_site_label
_atom_site_type_symbol
_atom_site_fract_x
_atom_site_fract_y
_atom_site_fract_z
_atom_type_partial_charge
O0 O 0.1701 0.52455 0.33617 0.0
Cd1 Cd 0.15137 0.55044 0.37691 0.0
O2 O 0.20873 0.55543 0.33977 0.0
Cd3 Cd 0.19404 0.5851 0.37316 0.0
O4 O 0.16619 0.61458 0.39097 0.0
C5 C 0.16276 0.63589 0.37939 0.0
O6 O 0.17724 0.63996 0.3586 0.0
C7 C 0.1934 0.53199 0.32745 0.0
C8 C 0.14831 0.51928 0.42008 0.0
O9 O 0.12798 0.51582 0.39971 0.0
O10 O 0.17015 0.53747 0.42002 0.0
O11 O 0.95869 0.92985 0.52066 0.0
Cd12 Cd 0.94981 0.89062 0.54572 0.0
O13 O 0.91871 0.94835 0.51984 0.0
Cd14 Cd 0.89576 0.91685 0.53976 0.0
O15 O 0.86032 0.89041 0.55172 0.0
C16 C 0.83558 0.89215 0.5403 0.0
O17 O 0.83279 0.90943 0.52233 0.0
C18 C 0.94394 0.94857 0.51401 0.0
C19 C 0.00344 0.87837 0.56413 0.0
O20 O -0.00994 0.86569 0.53985 0.0
O21 O -0.00907 0.89582 0.58018 0.0
O22 O 0.43574 0.59803 0.74208 0.0
Cd23 Cd 0.44105 0.56666 0.77631 0.0
O24 O 0.4484 0.63462 0.77758 0.0
Cd25 Cd 0.454 0.68031 0.79705 0.0
O26 O 0.46007 0.72639 0.81434 0.0
C27 C 0.47183 0.7361 0.83967 0.0
O28 O 0.48005 0.71802 0.85519 0.0
C29 C 0.4406 0.62501 0.75122 0.0
C30 C 0.48713 0.53629 0.77209 0.0
O31 O 0.4627 0.52562 0.75827 0.0
O32 O 0.48985 0.56152 0.78753 0.0
O33 O 0.7408 0.32448 0.03528 0.0
Cd34 Cd 0.78311 0.33932 0.07044 0.0
O35 O 0.71639 0.33251 0.07082 0.0
Cd36 Cd 0.6784 0.33139 0.09203 0.0
O37 O 0.64706 0.33245 0.12156 0.0
C38 C 0.64919 0.31767 0.14076 0.0
O39 O 0.66962 0.30171 0.14159 0.0
C40 C 0.71694 0.32468 0.04434 0.0
C41 C 0.83284 0.3484 0.04649 0.0
O42 O 0.8234 0.32349 0.0505 0.0
O43 O 0.81861 0.369 0.05361 0.0
O44 O -0.01539 0.05583 0.45469 0.0
Cd45 Cd 0.00277 0.08648 0.42358 0.0
O46 O 0.00715 0.0227 0.43331 0.0
Cd47 Cd 0.01711 0.9788 0.42306 0.0
O48 O 0.02197 0.93338 0.41334 0.0
C49 C 0.03415 0.9236 0.39232 0.0
O50 O 0.04414 0.94127 0.37684 0.0
C51 C -0.00878 0.03063 0.45178 0.0
C52 C 0.03357 0.13887 0.4521 0.0
O53 O 0.0067 0.13625 0.44509 0.0
O54 O 0.04582 0.11657 0.44599 0.0
O55 O 0.4355 0.72728 0.67954 0.0
Cd56 Cd 0.43096 0.76295 0.64974 0.0
O57 O 0.39564 0.69949 0.66032 0.0
Cd58 Cd 0.38025 0.73008 0.63599 0.0
O59 O 0.35174 0.75771 0.62003 0.0
C60 C 0.33072 0.7623 0.63326 0.0
O61 O 0.32759 0.75057 0.65541 0.0
C62 C 0.4185 0.7043 0.6775 0.0
C63 C 0.47599 0.7639 0.6177 0.0
O64 O 0.47817 0.78005 0.64232 0.0
O65 O 0.45237 0.74778 0.60807 0.0
O66 O 0.5924 0.29913 0.96813 0.0
Cd67 Cd 0.54941 0.2861 0.93369 0.0
O68 O 0.61159 0.26218 0.94847 0.0
Cd69 Cd 0.5724 0.23984 0.92251 0.0
O70 O 0.54058 0.20193 0.90755 0.0
C71 C 0.52204 0.1959 0.9232 0.0
O72 O 0.52117 0.21394 0.94699 0.0
C73 C 0.61351 0.28542 0.96662 0.0
C74 C 0.55932 0.30508 0.88395 0.0
O75 O 0.55015 0.32125 0.90412 0.0
O76 O 0.56335 0.27982 0.88712 0.0
O77 O 0.24295 0.47551 0.21277 0.0
Cd78 Cd 0.25534 0.4518 0.16747 0.0
O79 O 0.19954 0.45232 0.20514 0.0
Cd80 Cd 0.2008 0.43416 0.16054 0.0
O81 O 0.18583 0.42385 0.11504 0.0
C82 C 0.16114 0.40995 0.10696 0.0
O83 O 0.14647 0.40145 0.12603 0.0
C84 C 0.21926 0.46969 0.22142 0.0
C85 C 0.30531 0.42842 0.17689 0.0
O86 O 0.30585 0.45397 0.17229 0.0
O87 O 0.2811 0.41376 0.17658 0.0
O88 O 0.23597 0.26516 0.53861 0.0
Cd89 Cd 0.27375 0.23513 0.53549 0.0
O90 O 0.2549 0.29079 0.58038 0.0
Cd91 Cd 0.28549 0.26158 0.58742 0.0
O92 O 0.30984 0.23037 0.60275 0.0
C93 C 0.30767 0.22626 0.62768 0.0
O94 O 0.29139 0.24112 0.64297 0.0
C95 C 0.23604 0.28632 0.55884 0.0
C96 C 0.29362 0.23575 0.48355 0.0
O97 O 0.30297 0.25567 0.50526 0.0
O98 O 0.27544 0.21505 0.48657 0.0
O99 O 0.34655 0.0477 0.6689 0.0
Cd100 Cd 0.38088 0.09057 0.6884 0.0
O101 O 0.32097 0.05678 0.70368 0.0
Cd102 Cd 0.35365 0.08809 0.73162 0.0
O103 O 0.37766 0.0982 0.77407 0.0
C104 C 0.37129 0.11722 0.79344 0.0
O105 O 0.35167 0.13275 0.78693 0.0
C106 C 0.32423 0.04194 0.67992 0.0
C107 C 0.36047 0.13732 0.67033 0.0
O108 O 0.35506 0.13069 0.69384 0.0
O109 O 0.37607 0.12221 0.65565 0.0
O110 O 0.38536 0.014 0.01205 0.0
Cd111 Cd 0.34789 0.03426 0.03606 0.0
O112 O 0.38618 0.04777 -0.01292 0.0
Cd113 Cd 0.39992 0.07039 0.95445 0.0
O114 O 0.40368 0.08377 0.91417 0.0
C115 C 0.39673 0.10751 0.90975 0.0
O116 O 0.3881 0.12493 0.93035 0.0
C117 C 0.39479 0.02491 -0.00768 0.0
C118 C 0.36554 0.0766 0.08469 0.0
O119 O 0.36203 0.04995 0.08601 0.0
O120 O 0.36146 0.08317 0.06021 0.0
O121 O 0.37219 0.26749 0.30842 0.0
Cd122 Cd 0.32429 0.24944 0.31569 0.0
O123 O 0.36503 0.23956 0.26631 0.0
Cd124 Cd 0.3765 0.21895 0.22571 0.0
O125 O 0.37907 0.18932 0.18623 0.0
C126 C 0.38205 0.16352 0.18735 0.0
O127 O 0.38448 0.15606 0.2122 0.0
C128 C 0.38096 0.25867 0.28496 0.0
C129 C 0.319 0.24449 0.37142 0.0
O130 O 0.32211 0.22263 0.35288 0.0
O131 O 0.31879 0.26866 0.36371 0.0
O132 O 0.51063 0.31472 0.28099 0.0
Cd133 Cd 0.55388 0.34683 0.28 0.0
O134 O 0.48713 0.33581 0.25131 0.0
Cd135 Cd 0.44806 0.34626 0.23018 0.0
O136 O 0.4086 0.36013 0.21434 0.0
C137 C 0.40926 0.38435 0.20708 0.0
O138 O 0.43387 0.4003 0.20876 0.0
C139 C 0.48741 0.3172 0.26695 0.0
C140 C 0.58097 0.33308 0.23224 0.0
O141 O 0.58658 0.32229 0.25421 0.0
O142 O 0.56206 0.3499 0.23265 0.0
O143 O 0.04904 0.41514 0.92601 0.0
Cd144 Cd 0.08416 0.3833 0.93397 0.0
O145 O 0.02581 0.40098 0.95869 0.0
Cd146 Cd -0.01144 0.39778 -0.01913 0.0
O147 O 0.94904 0.39238 -0.00103 0.0
C148 C 0.93794 0.3672 -8e-05 0.0
O149 O 0.95076 0.34537 -0.00979 0.0
C150 C 0.02812 0.41626 0.93998 0.0
C151 C 0.10932 0.39209 -0.0098 0.0
O152 O 0.12048 0.40529 0.97249 0.0
O153 O 0.08614 0.37498 -0.01863 0.0
O154 O -0.01826 0.67956 0.36397 0.0
Cd155 Cd 0.0149 0.71597 0.39776 0.0
O156 O -0.00681 0.69756 0.32743 0.0
Cd157 Cd 0.01446 0.7382 0.35351 0.0
O158 O 0.02275 0.78405 0.37198 0.0
C159 C 0.03339 0.80129 0.35764 0.0
O160 O 0.04042 0.79083 0.33271 0.0
C161 C 0.98006 0.67774 0.33727 0.0
C162 C 0.06752 0.69667 0.39826 0.0
O163 O 0.05043 0.69009 0.41538 0.0
O164 O 0.06015 0.71329 0.3817 0.0
O165 O 0.69559 0.73539 0.53536 0.0
Cd166 Cd 0.69078 0.78102 0.56529 0.0
O167 O 0.65082 0.71961 0.51832 0.0
Cd168 Cd 0.63222 0.75242 0.54515 0.0
O169 O 0.59734 0.76557 0.56783 0.0
C170 C 0.57264 0.75339 0.55667 0.0
O171 O 0.56982 0.73511 0.53235 0.0
C172 C 0.67689 0.71675 0.51913 0.0
C173 C 0.73698 0.82053 0.56058 0.0
O174 O 0.73854 0.80501 0.57945 0.0
O175 O 0.71336 0.81796 0.54454 0.0
O176 O 0.16491 0.39318 0.55905 0.0
Cd177 Cd 0.13334 0.42942 0.55658 0.0
O178 O 0.13039 0.35896 0.53879 0.0
Cd179 Cd 0.11001 0.3145 0.52396 0.0
O180 O 0.08606 0.2719 0.50715 0.0
C181 C 0.09832 0.24965 0.50326 0.0
O182 O 0.12597 0.25241 0.50969 0.0
C183 C 0.15612 0.36667 0.54973 0.0
C184 C 0.13946 0.45734 0.51139 0.0
O185 O 0.15521 0.46624 0.5353 0.0
O186 O 0.12096 0.43507 0.50878 0.0
O187 O 0.24629 0.9251 0.60752 0.0
Cd188 Cd 0.21852 0.87817 0.58826 0.0
O189 O 0.21824 0.93895 0.63895 0.0
Cd190 Cd 0.18251 0.90495 0.62269 0.0
O191 O 0.13648 0.89283 0.61436 0.0
C192 C 0.12344 0.87738 0.59133 0.0
O193 O 0.13813 0.86657 0.57161 0.0
C194 C 0.24108 0.94326 0.62832 0.0
C195 C 0.25223 0.83712 0.60048 0.0
O196 O 0.25305 0.84674 0.57755 0.0
O197 O 0.23486 0.84627 0.61719 0.0
O198 O 0.65029 0.43567 0.73279 0.0
Cd199 Cd 0.62451 0.43685 0.77378 0.0
O200 O 0.62772 0.39333 0.71099 0.0
Cd201 Cd 0.60477 0.38699 0.74646 0.0
O202 O 0.58863 0.37274 0.78284 0.0
C203 C 0.58983 0.34683 0.78494 0.0
O204 O 0.60012 0.33 0.76511 0.0
C205 C 0.64581 0.41511 0.71133 0.0
C206 C 0.58032 0.46976 0.77148 0.0
O207 O 0.60516 0.48097 0.78389 0.0
O208 O 0.57641 0.443 0.76006 0.0
O209 O 0.70337 0.40301 0.59446 0.0
Cd210 Cd 0.73371 0.3961 0.55698 0.0
O211 O 0.7406 0.42228 0.62539 0.0
Cd212 Cd 0.76356 0.43782 0.66819 0.0
O213 O 0.78738 0.4522 0.71061 0.0
C214 C 0.81065 0.46894 0.71416 0.0
O215 O 0.81987 0.47744 0.69208 0.0
C216 C 0.71403 0.41406 0.61989 0.0
C217 C 0.73803 0.44004 0.52641 0.0
O218 O 0.71811 0.41874 0.51903 0.0
O219 O 0.75566 0.44076 0.54852 0.0
O220 O 0.94173 0.49526 0.89049 0.0
Cd221 Cd 0.90627 0.52579 0.87963 0.0
O222 O 0.9232 0.49173 0.92918 0.0
Cd223 Cd 0.91551 0.47894 0.96921 0.0
O224 O 0.90587 0.48008 0.01249 0.0
C225 C 0.88402 0.49084 0.01939 0.0
O226 O 0.86776 0.49958 1e-05 0.0
C227 C 0.942 0.48565 0.91327 0.0
C228 C 0.87551 0.50676 0.82572 0.0
O229 O 0.89862 0.52424 0.8296 0.0
O230 O 0.86705 0.49815 0.84734 0.0
O231 O 0.89724 0.56185 0.26981 0.0
Cd232 Cd 0.86239 0.52228 0.24283 0.0
O233 O 0.91371 0.57711 0.23371 0.0
Cd234 Cd 0.89197 0.54176 0.20029 0.0
O235 O 0.88795 0.51779 0.15663 0.0
C236 C 0.87066 0.52382 0.13753 0.0
O237 O 0.85397 0.543 0.1449 0.0
C238 C 0.91315 0.57992 0.26027 0.0
C239 C 0.81426 0.52476 0.27027 0.0
O240 O 0.8333 0.50973 0.27716 0.0
O241 O 0.8174 0.53759 0.24958 0.0
O242 O 0.73695 0.61369 0.45316 0.0
Cd243 Cd 0.75551 0.57191 0.42885 0.0
O244 O 0.6942 0.60243 0.4291 0.0
Cd245 Cd 0.70813 0.56838 0.3994 0.0
O246 O 0.732 0.54689 0.36787 0.0
C247 C 0.73062 0.55381 0.3437 0.0
O248 O 0.71386 0.57246 0.33819 0.0
C249 C 0.71156 0.61875 0.4489 0.0
C250 C 0.75015 0.52837 0.45984 0.0
O251 O 0.7723 0.54725 0.46469 0.0
O252 O 0.73068 0.52984 0.44002 0.0
O253 O 0.47606 0.94053 0.93081 0.0
Cd254 Cd 0.50985 0.91748 0.90322 0.0
O255 O 0.47883 0.97299 0.90443 0.0
Cd256 Cd 0.47307 0.01457 0.89388 0.0
O257 O 0.47845 0.05952 0.89028 0.0
C258 C 0.472 0.0783 0.90981 0.0
O259 O 0.46099 0.0699 0.93111 0.0
C260 C 0.46888 0.96363 0.92481 0.0
C261 C 0.49479 0.85851 0.88378 0.0
O262 O 0.50939 0.8686 0.90813 0.0
O263 O 0.48693 0.87636 0.86881 0.0
C264 C 0.18886 0.47569 0.26038 0.0
C265 C 0.21403 0.48405 0.24983 0.0
H266 H 0.16281 0.48396 0.29322 0.0
C267 C 0.23337 0.50711 0.26609 0.0
H268 H 0.17358 0.4579 0.24851 0.0
C269 C 0.22713 0.52219 0.29177 0.0
C270 C 0.20149 0.51441 0.30181 0.0
H271 H 0.25299 0.51406 0.25861 0.0
H272 H 0.2421 0.54035 0.3034 0.0
C273 C 0.18272 0.49062 0.2861 0.0
C274 C -0.00434 -0.00956 0.47763 0.0
C275 C 0.97951 0.01052 0.46872 0.0
H276 H -0.00283 0.9552 0.49884 0.0
C277 C 0.95198 0.01107 0.47592 0.0
H278 H 0.01733 -0.00972 0.47339 0.0
C279 C 0.94041 -0.00888 0.49083 0.0
C280 C 0.95628 0.97042 0.49904 0.0
H281 H 0.93915 0.0265 0.46947 0.0
H282 H 0.91895 -0.00824 0.49565 0.0
C283 C -0.01584 0.97055 0.49253 0.0
C284 C 0.45338 0.67111 0.73523 0.0
C285 C 0.4358 0.64476 0.73166 0.0
H286 H 0.46184 0.71053 0.7209 0.0
C287 C 0.4133 0.6375 0.70935 0.0
H288 H 0.47146 0.67682 0.75165 0.0
C289 C 0.4078 0.65673 0.69162 0.0
C290 C 0.42495 0.68345 0.6956 0.0
H291 H 0.39952 0.61723 0.70604 0.0
H292 H 0.38997 0.6507 0.67492 0.0
C293 C 0.44804 0.69026 0.71739 0.0
C294 C 0.66484 0.28374 -0.01835 0.0
C295 C 0.64012 0.29606 -0.01377 0.0
H296 H 0.70852 0.28334 -0.00359 0.0
C297 C 0.64103 0.31827 0.00993 0.0
H298 H 0.66492 0.26669 0.96353 0.0
C299 C 0.66598 0.32759 0.02888 0.0
C300 C 0.69053 0.31502 0.02442 0.0
H301 H 0.62242 0.32832 0.014 0.0
H302 H 0.66617 0.34499 0.04672 0.0
C303 C 0.68984 0.29329 0.00042 0.0
C304 C 0.19743 0.35077 0.5754 0.0
C305 C 0.17569 0.3454 0.55239 0.0
H306 H 0.23323 0.33622 0.59572 0.0
C307 C 0.17366 0.32027 0.53164 0.0
H308 H 0.19955 0.37005 0.59166 0.0
C309 C 0.19301 0.30086 0.53389 0.0
C310 C 0.2148 0.30622 0.55693 0.0
H311 H 0.15774 0.31602 0.51319 0.0
H312 H 0.19108 0.28183 0.51737 0.0
C313 C 0.21667 0.33133 0.57775 0.0
C314 C 0.2772 0.01205 0.67735 0.0
C315 C 0.30245 0.01745 0.66578 0.0
H316 H 0.23808 -0.0154 0.67462 0.0
C317 C 0.30697 -0.00129 0.6412 0.0
H318 H 0.27297 0.02607 0.69622 0.0
C319 C 0.28694 0.97478 0.62882 0.0
C320 C 0.26189 0.96915 0.64069 0.0
H321 H 0.3262 0.00224 0.63174 0.0
H322 H 0.29123 0.96057 0.6101 0.0
C323 C 0.25715 -0.01177 0.66493 0.0
C324 C 0.4134 0.01049 0.94616 0.0
C325 C 0.41455 0.01031 0.97524 0.0
H326 H 0.42914 -0.00469 0.90727 0.0
C327 C 0.43337 -0.00576 -0.01253 0.0
H328 H 0.39799 0.0212 0.93572 0.0
C329 C 0.45105 0.97912 0.97105 0.0
C330 C 0.45029 0.97981 0.9421 0.0
H331 H 0.4344 -0.00665 0.00975 0.0
H332 H 0.46546 0.96701 -0.01894 0.0
C333 C 0.43116 -0.00453 0.92978 0.0
C334 C 0.43114 0.28047 0.30208 0.0
C335 C 0.40897 0.27121 0.27958 0.0
H336 H 0.47356 0.30188 0.31548 0.0
C337 C 0.41318 0.27608 0.2525 0.0
H338 H 0.4284 0.27705 0.32318 0.0
C339 C 0.43891 0.29054 0.24817 0.0
C340 C 0.46084 0.30033 0.27082 0.0
H341 H 0.39627 0.26976 0.23492 0.0
H342 H 0.44159 0.29415 0.22713 0.0
C343 C 0.45696 0.29459 0.29766 0.0
C344 C 0.97748 0.4534 0.89894 0.0
C345 C 0.96382 0.46773 0.92048 0.0
H346 H 0.0085 0.42591 0.88831 0.0
C347 C 0.97209 0.46556 0.94867 0.0
H348 H 0.97184 0.45485 0.87702 0.0
C349 C -0.00706 0.44878 0.95506 0.0
C350 C 0.00615 0.43408 0.93343 0.0
H351 H 0.96322 0.47748 0.96594 0.0
H352 H -0.00072 0.44797 -0.02298 0.0
C353 C -0.0015 0.43686 0.90537 0.0
C354 C 0.94721 0.63122 0.32814 0.0
C355 C 0.96306 0.65258 0.31766 0.0
H356 H 0.91906 0.59156 0.31833 0.0
C357 C 0.9626 0.64965 0.28817 0.0
H358 H 0.94711 0.63279 0.35075 0.0
C359 C 0.94661 0.62597 0.2696 0.0
C360 C 0.93061 0.60468 0.28005 0.0
H361 H 0.9746 0.66566 0.27936 0.0
H362 H 0.94668 0.62447 0.247 0.0
C363 C 0.93112 0.60756 0.30955 0.0
C364 C 0.72236 0.66314 0.48698 0.0
C365 C 0.70249 0.64369 0.46688 0.0
H366 H 0.72994 0.70138 0.51907 0.0
C367 C 0.67405 0.64843 0.46411 0.0
H368 H 0.74446 0.66018 0.48966 0.0
C369 C 0.66568 0.67209 0.48111 0.0
C370 C 0.6856 0.69159 0.50113 0.0
H371 H 0.6582 0.63385 0.44885 0.0
H372 H 0.6436 0.67512 0.47845 0.0
C373 C 0.71404 0.68684 0.50384 0.0
C374 C 0.7015 0.43771 0.66674 0.0
C375 C 0.6959 0.41535 0.64276 0.0
H376 H 0.68998 0.45533 0.70718 0.0
C377 C 0.67279 0.39383 0.64078 0.0
H378 H 0.71852 0.45514 0.66838 0.0
C379 C 0.65629 0.394 0.66285 0.0
C380 C 0.66234 0.4159 0.68728 0.0
H381 H 0.66788 0.37642 0.62243 0.0
H382 H 0.63899 0.37675 0.66088 0.0
C383 C 0.6849 0.43799 0.6888 0.0
C384 C 0.11199 0.69041 0.37658 0.0
C385 C 0.09394 0.68373 0.39613 0.0
H386 H 0.14801 0.68074 0.35615 0.0
C387 C 0.10022 0.66292 0.41197 0.0
H388 H 0.10783 0.70642 0.36412 0.0
C389 C 0.12326 0.6481 0.40735 0.0
C390 C 0.14052 0.65384 0.38683 0.0
H391 H 0.08678 0.65732 0.42727 0.0
H392 H 0.12697 0.63153 0.41924 0.0
C393 C 0.13505 0.67565 0.372 0.0
C394 C 0.75958 0.85782 0.53676 0.0
C395 C 0.76201 0.83995 0.55661 0.0
H396 H 0.78077 0.8883 0.51615 0.0
C397 C 0.78878 0.83996 0.57171 0.0
H398 H 0.73929 0.85836 0.52478 0.0
C399 C 0.81268 0.85705 0.56664 0.0
C400 C 0.81029 0.87461 0.54646 0.0
H401 H 0.79139 0.8264 0.58712 0.0
H402 H 0.83305 0.85633 0.57837 0.0
C403 C 0.78341 0.875 0.5318 0.0
C404 C 0.53819 0.53193 0.78538 0.0
C405 C 0.51126 0.51966 0.77092 0.0
H406 H 0.58111 0.52588 0.79681 0.0
C407 C 0.50743 0.49106 0.75604 0.0
H408 H 0.54188 0.55392 0.79702 0.0
C409 C 0.52991 0.47494 0.75601 0.0
C410 C 0.55674 0.4871 0.77077 0.0
H411 H 0.48695 0.48095 0.74469 0.0
H412 H 0.52616 0.45288 0.74457 0.0
C413 C 0.5607 0.51585 0.78525 0.0
C414 C 0.89639 0.38559 0.02082 0.0
C415 C 0.91096 0.36248 0.01171 0.0
H416 H 0.86026 0.39927 0.03885 0.0
C417 C 0.89949 0.33473 0.01393 0.0
H418 H 0.90463 0.40724 0.01937 0.0
C419 C 0.8741 0.33017 0.02514 0.0
C420 C 0.85955 0.35325 0.03429 0.0
H421 H 0.91016 0.31646 0.0071 0.0
H422 H 0.8659 0.30852 0.02664 0.0
C423 C 0.87093 0.38101 0.03195 0.0
C424 C 0.04691 0.88128 0.35985 0.0
C425 C 0.03569 0.89248 0.38451 0.0
H426 H 0.05511 0.84377 0.33209 0.0
C427 C 0.02513 0.87353 0.40111 0.0
H428 H 0.05531 0.89527 0.34662 0.0
C429 C 0.0251 0.84398 0.39282 0.0
C430 C 0.03555 0.83271 0.3677 0.0
H431 H 0.01646 0.88146 0.42032 0.0
H432 H 0.01632 0.82994 0.40581 0.0
C433 C 0.04681 0.85172 0.35151 0.0
C434 C 0.55042 0.77611 0.59834 0.0
C435 C 0.54764 0.75789 0.57156 0.0
H436 H 0.52995 0.79244 0.63389 0.0
C437 C 0.52079 0.74289 0.55953 0.0
H438 H 0.57078 0.78802 0.60817 0.0
C439 C 0.49745 0.74537 0.57426 0.0
C440 C 0.50035 0.76297 0.60135 0.0
H441 H 0.51785 0.72874 0.53891 0.0
H442 H 0.47721 0.73308 0.56456 0.0
C443 C 0.527 0.77865 0.61307 0.0
C444 C 0.56298 0.34376 0.85538 0.0
C445 C 0.56586 0.31548 0.85809 0.0
H446 H 0.56824 0.37588 0.83018 0.0
C447 C 0.57588 0.29743 0.83617 0.0
H448 H 0.55531 0.35822 0.87188 0.0
C449 C 0.58326 0.30753 0.81229 0.0
C450 C 0.58084 0.33594 0.80977 0.0
H451 H 0.57832 0.27551 0.83756 0.0
H452 H 0.59117 0.2931 0.79596 0.0
C453 C 0.5704 0.35389 0.83148 0.0
C454 C 0.12176 0.38791 0.0679 0.0
C455 C 0.1484 0.4047 0.07686 0.0
H456 H 0.08858 0.37074 0.03359 0.0
C457 C 0.16225 0.41707 0.05699 0.0
H458 H 0.11051 0.37805 0.08265 0.0
C459 C 0.14956 0.41301 0.02885 0.0
C460 C 0.12284 0.39636 0.01995 0.0
H461 H 0.18276 0.43017 0.06321 0.0
H462 H 0.16071 0.42296 0.01409 0.0
C463 C 0.10916 0.38372 0.03975 0.0
C464 C 0.33128 0.17754 0.67637 0.0
C465 C 0.34824 0.16107 0.65998 0.0
H466 H 0.30531 0.21102 0.6791 0.0
C467 C 0.35253 0.16686 0.63321 0.0
H468 H 0.32758 0.17366 0.6971 0.0
C469 C 0.33967 0.18827 0.62283 0.0
C470 C 0.32231 0.20439 0.63902 0.0
H471 H 0.36548 0.15456 0.62005 0.0
H472 H 0.34311 0.19194 0.60197 0.0
C473 C 0.3185 0.19897 0.66603 0.0
C474 C 0.39907 0.09796 0.8308 0.0
C475 C 0.38208 0.11819 0.82352 0.0
H476 H 0.41723 0.07886 0.86383 0.0
C477 C 0.37309 0.13733 0.84534 0.0
H478 H 0.40659 0.08305 0.81456 0.0
C479 C 0.3793 0.13497 0.87364 0.0
C480 C 0.39445 0.11331 0.88067 0.0
H481 H 0.36019 0.15333 0.84049 0.0
H482 H 0.37096 0.14919 0.88982 0.0
C483 C 0.40513 0.0955 0.85906 0.0
C484 C 0.37691 0.0916 0.1375 0.0
C485 C 0.37248 0.09912 0.11081 0.0
H486 H 0.38362 0.10601 0.18254 0.0
C487 C 0.37308 0.12824 0.10946 0.0
H488 H 0.37669 0.06937 0.13928 0.0
C489 C 0.37697 0.14929 0.1343 0.0
C490 C 0.38042 0.14165 0.16101 0.0
H491 H 0.36979 0.13476 0.08922 0.0
H492 H 0.37664 0.17146 0.13254 0.0
C493 C 0.38089 0.11264 0.16232 0.0
C494 C 0.30452 0.21505 0.40651 0.0
C495 C 0.31464 0.24178 0.40062 0.0
H496 H 0.28962 0.19222 0.43738 0.0
C497 C 0.31931 0.26615 0.42261 0.0
H498 H 0.30066 0.19591 0.38995 0.0
C499 C 0.3135 0.26394 0.44984 0.0
C500 C 0.30233 0.23743 0.45548 0.0
H501 H 0.32723 0.287 0.41871 0.0
H502 H 0.31688 0.2832 0.46624 0.0
C503 C 0.29813 0.21295 0.43362 0.0
C504 C 0.61775 0.30913 0.20767 0.0
C505 C 0.59684 0.32737 0.20772 0.0
H506 H 0.65052 0.29164 0.18646 0.0
C507 C 0.59224 0.34117 0.18474 0.0
H508 H 0.62177 0.29811 0.22501 0.0
C509 C 0.60879 0.33751 0.16264 0.0
C510 C 0.63026 0.31993 0.16302 0.0
H511 H 0.57626 0.35531 0.18409 0.0
H512 H 0.60508 0.3489 0.14553 0.0
C513 C 0.63424 0.30543 0.18555 0.0
C514 C 0.09523 0.19657 0.48565 0.0
C515 C 0.08169 0.22112 0.49102 0.0
H516 H 0.09069 0.15136 0.46923 0.0
C517 C 0.05211 0.21822 0.48417 0.0
H518 H 0.11797 0.19804 0.49071 0.0
C519 C 0.03647 0.19146 0.4719 0.0
C520 C 0.05004 0.16698 0.46617 0.0
H521 H 0.04099 0.23667 0.48807 0.0
H522 H 0.01375 0.19004 0.46665 0.0
C523 C 0.07958 0.1698 0.47335 0.0
C524 C 0.04833 0.85932 0.553 0.0
C525 C 0.03328 0.87484 0.57245 0.0
H526 H 0.0886 0.84783 0.54369 0.0
C527 C 0.04769 0.88901 0.5991 0.0
H528 H 0.03785 0.84811 0.53229 0.0
C529 C 0.07676 0.8888 0.60565 0.0
C530 C 0.09212 0.87452 0.58566 0.0
H531 H 0.03672 0.90106 0.61463 0.0
H532 H 0.08733 0.90069 0.62608 0.0
C533 C 0.07745 0.85919 0.55952 0.0
C534 C 0.49656 0.80779 0.88953 0.0
C535 C 0.48789 0.82717 0.87292 0.0
H536 H 0.49826 0.7639 0.89211 0.0
C537 C 0.47327 0.81632 0.84554 0.0
H538 H 0.50785 0.81544 0.91072 0.0
C539 C 0.46782 0.78676 0.83484 0.0
C540 C 0.47683 0.76738 0.8513 0.0
H541 H 0.46629 0.83067 0.8322 0.0
H542 H 0.45674 0.77913 0.81356 0.0
C543 C 0.49107 0.77822 0.87885 0.0
C544 C 0.16459 0.49495 0.48956 0.0
C545 C 0.14218 0.47265 0.4877 0.0
H546 H 0.18422 0.52701 0.46962 0.0
C547 C 0.12211 0.46549 0.46319 0.0
H548 H 0.18044 0.50095 0.50814 0.0
C549 C 0.12415 0.48058 0.44121 0.0
C550 C 0.14646 0.50298 0.44314 0.0
H551 H 0.10458 0.44845 0.4611 0.0
H552 H 0.1082 0.47468 0.42271 0.0
C553 C 0.16678 0.50986 0.46747 0.0
C554 C 0.50813 0.14661 0.89314 0.0
C555 C 0.5051 0.167 0.91714 0.0
H556 H 0.49977 0.10262 0.8718 0.0
C557 C 0.48791 0.1586 0.93675 0.0
H558 H 0.52096 0.15242 0.87746 0.0
C559 C 0.47578 0.12998 0.93353 0.0
C560 C 0.48059 0.1092 0.91064 0.0
H561 H 0.48487 0.17382 0.95533 0.0
H562 H 0.46369 0.12396 0.94967 0.0
C563 C 0.49597 0.11802 0.8899 0.0
C564 C 0.35832 0.43299 0.18388 0.0
C565 C 0.33189 0.41654 0.18322 0.0
H566 H 0.4034 0.43572 0.19182 0.0
C567 C 0.33113 0.38899 0.18953 0.0
H568 H 0.35966 0.45427 0.17909 0.0
C569 C 0.35624 0.37835 0.19686 0.0
C570 C 0.38267 0.39501 0.19804 0.0
H571 H 0.31112 0.37575 0.18918 0.0
H572 H 0.3549 0.35718 0.20195 0.0
C573 C 0.38342 0.42234 0.19119 0.0
C574 C 0.26939 0.80544 0.63252 0.0
C575 C 0.27152 0.81692 0.60803 0.0
H576 H 0.28628 0.77921 0.65961 0.0
C577 C 0.29297 0.8098 0.59149 0.0
H578 H 0.25312 0.81048 0.64574 0.0
C579 C 0.31215 0.79197 0.59955 0.0
C580 C 0.31019 0.78076 0.62424 0.0
H581 H 0.29523 0.81834 0.57252 0.0
H582 H 0.32858 0.7871 0.5865 0.0
C583 C 0.28844 0.78751 0.64049 0.0
C584 C 0.85287 0.49727 0.74665 0.0
C585 C 0.82723 0.4786 0.74272 0.0
H586 H 0.88822 0.52077 0.77586 0.0
C587 C 0.81764 0.46921 0.76633 0.0
H588 H 0.86087 0.50491 0.72892 0.0
C589 C 0.83335 0.47828 0.79325 0.0
C590 C 0.85898 0.49697 0.79717 0.0
H591 H 0.79798 0.45482 0.76405 0.0
H592 H 0.82535 0.47067 0.81099 0.0
C593 C 0.86857 0.50636 0.77357 0.0
C594 C 0.89278 0.49538 0.09896 0.0
C595 C 0.87188 0.51228 0.10716 0.0
H596 H 0.91297 0.47521 0.06479 0.0
C597 C 0.8535 0.5199 0.08602 0.0
H598 H 0.90722 0.48903 0.11469 0.0
C599 C 0.85678 0.51194 0.05743 0.0
C600 C 0.87857 0.49628 0.04932 0.0
H601 H 0.83707 0.53275 0.09158 0.0
H602 H 0.84276 0.51891 0.04178 0.0
C603 C 0.89612 0.4875 0.07034 0.0
C604 C 0.77042 0.54647 0.27995 0.0
C605 C 0.7906 0.52909 0.28713 0.0
H606 H 0.73553 0.56771 0.29203 0.0
C607 C 0.78929 0.51787 0.31189 0.0
H608 H 0.77077 0.55538 0.26097 0.0
C609 C 0.76912 0.52502 0.32978 0.0
C610 C 0.74979 0.5435 0.32326 0.0
H611 H 0.80448 0.50435 0.31801 0.0
H612 H 0.76926 0.51675 0.34916 0.0
C613 C 0.75022 0.55356 0.29779 0.0
C614 C 0.7643 0.48467 0.51634 0.0
C615 C 0.74091 0.46285 0.50961 0.0
H616 H 0.78565 0.52234 0.50583 0.0
C617 C 0.72056 0.46277 0.48637 0.0
H618 H 0.78039 0.48533 0.53407 0.0
C619 C 0.72354 0.48404 0.47021 0.0
C620 C 0.74702 0.50576 0.47685 0.0
H621 H 0.70229 0.44626 0.48062 0.0
H622 H 0.70748 0.48337 0.45246 0.0
C623 C 0.76736 0.50585 0.5001 0.0
loop_
_geom_bond_atom_site_label_1
_geom_bond_atom_site_label_2
_geom_bond_distance
_geom_bond_site_symmetry_2
_ccdc_geom_bond_type
O0 Cd1 2.300 . S
O0 C7 1.275 . S
Cd1 O0 2.300 . S
Cd1 O9 2.381 . S
Cd1 O10 2.378 . S
O2 Cd3 2.385 . S
O2 C7 1.255 . S
Cd3 O2 2.385 . S
Cd3 O4 2.317 . S
O4 Cd3 2.317 . S
O4 C5 1.232 . S
C5 O4 1.232 . S
C5 O6 1.218 . S
O6 C5 1.218 . S
C7 O0 1.275 . S
C7 O2 1.255 . S
C8 O9 1.258 . S
C8 O10 1.256 . S
O9 Cd1 2.381 . S
O9 C8 1.258 . S
O10 Cd1 2.378 . S
O10 C8 1.256 . S
O11 Cd12 2.300 . S
O11 C18 1.275 . S
Cd12 O11 2.300 . S
Cd12 O20 2.381 . S
Cd12 O21 2.378 . S
O13 Cd14 2.385 . S
O13 C18 1.255 1_655 S
Cd14 O13 2.385 . S
Cd14 O15 2.317 . S
O15 Cd14 2.317 . S
O15 C16 1.232 . S
C16 O15 1.232 . S
C16 O17 1.218 . S
O17 C16 1.218 . S
C18 O11 1.275 . S
C18 O13 1.255 1_455 S
C19 O20 1.258 . S
C19 O21 1.256 . S
O20 Cd12 2.381 . S
O20 C19 1.258 . S
O21 Cd12 2.378 . S
O21 C19 1.256 . S
O22 Cd23 2.300 . S
O22 C29 1.275 . S
Cd23 O22 2.300 . S
Cd23 O31 2.381 . S
Cd23 O32 2.378 . S
O24 Cd25 2.385 . S
O24 C29 1.255 . S
Cd25 O24 2.385 . S
Cd25 O26 2.317 . S
O26 Cd25 2.317 . S
O26 C27 1.232 . S
C27 O26 1.232 . S
C27 O28 1.218 . S
O28 C27 1.218 . S
C29 O22 1.275 . S
C29 O24 1.255 . S
C30 O31 1.258 . S
C30 O32 1.256 . S
O31 Cd23 2.381 . S
O31 C30 1.258 . S
O32 Cd23 2.378 . S
O32 C30 1.256 . S
O33 Cd34 2.300 . S
O33 C40 1.275 . S
Cd34 O33 2.300 . S
Cd34 O42 2.381 . S
Cd34 O43 2.378 . S
O35 Cd36 2.385 . S
O35 C40 1.255 . S
Cd36 O35 2.385 . S
Cd36 O37 2.317 . S
O37 Cd36 2.317 . S
O37 C38 1.232 . S
C38 O37 1.232 . S
C38 O39 1.218 . S
O39 C38 1.218 . S
C40 O33 1.275 . S
C40 O35 1.255 . S
C41 O42 1.258 . S
C41 O43 1.256 . S
O42 Cd34 2.381 . S
O42 C41 1.258 . S
O43 Cd34 2.378 . S
O43 C41 1.256 . S
O44 Cd45 2.300 1_655 S
O44 C51 1.275 1_545 S
Cd45 O44 2.300 1_455 S
Cd45 O53 2.381 . S
Cd45 O54 2.378 . S
O46 Cd47 2.385 . S
O46 C51 1.255 1_455 S
Cd47 O46 2.385 . S
Cd47 O48 2.317 . S
O48 Cd47 2.317 . S
O48 C49 1.232 . S
C49 O48 1.232 . S
C49 O50 1.218 . S
O50 C49 1.218 . S
C51 O44 1.275 1_565 S
C51 O46 1.255 1_655 S
C52 O53 1.258 . S
C52 O54 1.256 . S
O53 Cd45 2.381 . S
O53 C52 1.258 . S
O54 Cd45 2.378 . S
O54 C52 1.256 . S
O55 Cd56 2.300 . S
O55 C62 1.275 . S
Cd56 O55 2.300 . S
Cd56 O64 2.381 . S
Cd56 O65 2.378 . S
O57 Cd58 2.385 . S
O57 C62 1.255 . S
Cd58 O57 2.385 . S
Cd58 O59 2.317 . S
O59 Cd58 2.317 . S
O59 C60 1.232 . S
C60 O59 1.232 . S
C60 O61 1.218 . S
O61 C60 1.218 . S
C62 O55 1.275 . S
C62 O57 1.255 . S
C63 O64 1.258 . S
C63 O65 1.256 . S
O64 Cd56 2.381 . S
O64 C63 1.258 . S
O65 Cd56 2.378 . S
O65 C63 1.256 . S
O66 Cd67 2.300 . S
O66 C73 1.275 . S
Cd67 O66 2.300 . S
Cd67 O75 2.381 . S
Cd67 O76 2.378 . S
O68 Cd69 2.385 . S
O68 C73 1.255 . S
Cd69 O68 2.385 . S
Cd69 O70 2.317 . S
O70 Cd69 2.317 . S
O70 C71 1.232 . S
C71 O70 1.232 . S
C71 O72 1.218 . S
O72 C71 1.218 . S
C73 O66 1.275 . S
C73 O68 1.255 . S
C74 O75 1.258 . S
C74 O76 1.256 . S
O75 Cd67 2.381 . S
O75 C74 1.258 . S
O76 Cd67 2.378 . S
O76 C74 1.256 . S
O77 Cd78 2.300 . S
O77 C84 1.275 . S
Cd78 O77 2.300 . S
Cd78 O86 2.381 . S
Cd78 O87 2.378 . S
O79 Cd80 2.385 . S
O79 C84 1.255 . S
Cd80 O79 2.385 . S
Cd80 O81 2.317 . S
O81 Cd80 2.317 . S
O81 C82 1.232 . S
C82 O81 1.232 . S
C82 O83 1.218 . S
O83 C82 1.218 . S
C84 O77 1.275 . S
C84 O79 1.255 . S
C85 O86 1.258 . S
C85 O87 1.256 . S
O86 Cd78 2.381 . S
O86 C85 1.258 . S
O87 Cd78 2.378 . S
O87 C85 1.256 . S
O88 Cd89 2.300 . S
O88 C95 1.275 . S
Cd89 O88 2.300 . S
Cd89 O97 2.381 . S
Cd89 O98 2.378 . S
O90 Cd91 2.385 . S
O90 C95 1.255 . S
Cd91 O90 2.385 . S
Cd91 O92 2.317 . S
O92 Cd91 2.317 . S
O92 C93 1.232 . S
C93 O92 1.232 . S
C93 O94 1.218 . S
O94 C93 1.218 . S
C95 O88 1.275 . S
C95 O90 1.255 . S
C96 O97 1.258 . S
C96 O98 1.256 . S
O97 Cd89 2.381 . S
O97 C96 1.258 . S
O98 Cd89 2.378 . S
O98 C96 1.256 . S
O99 Cd100 2.300 . S
O99 C106 1.275 . S
Cd100 O99 2.300 . S
Cd100 O108 2.381 . S
Cd100 O109 2.378 . S
O101 Cd102 2.385 . S
O101 C106 1.255 . S
Cd102 O101 2.385 . S
Cd102 O103 2.317 . S
O103 Cd102 2.317 . S
O103 C104 1.232 . S
C104 O103 1.232 . S
C104 O105 1.218 . S
O105 C104 1.218 . S
C106 O99 1.275 . S
C106 O101 1.255 . S
C107 O108 1.258 . S
C107 O109 1.256 . S
O108 Cd100 2.381 . S
O108 C107 1.258 . S
O109 Cd100 2.378 . S
O109 C107 1.256 . S
O110 Cd111 2.300 . S
O110 C117 1.275 1_554 S
Cd111 O110 2.300 . S
Cd111 O119 2.381 . S
Cd111 O120 2.378 . S
O112 Cd113 2.385 . S
O112 C117 1.255 . S
Cd113 O112 2.385 . S
Cd113 O114 2.317 . S
O114 Cd113 2.317 . S
O114 C115 1.232 . S
C115 O114 1.232 . S
C115 O116 1.218 . S
O116 C115 1.218 . S
C117 O110 1.275 1_556 S
C117 O112 1.255 . S
C118 O119 1.258 . S
C118 O120 1.256 . S
O119 Cd111 2.381 . S
O119 C118 1.258 . S
O120 Cd111 2.378 . S
O120 C118 1.256 . S
O121 Cd122 2.300 . S
O121 C128 1.275 . S
Cd122 O121 2.300 . S
Cd122 O130 2.381 . S
Cd122 O131 2.378 . S
O123 Cd124 2.385 . S
O123 C128 1.255 . S
Cd124 O123 2.385 . S
Cd124 O125 2.317 . S
O125 Cd124 2.317 . S
O125 C126 1.232 . S
C126 O125 1.232 . S
C126 O127 1.218 . S
O127 C126 1.218 . S
C128 O121 1.275 . S
C128 O123 1.255 . S
C129 O130 1.258 . S
C129 O131 1.256 . S
O130 Cd122 2.381 . S
O130 C129 1.258 . S
O131 Cd122 2.378 . S
O131 C129 1.256 . S
O132 Cd133 2.300 . S
O132 C139 1.275 . S
Cd133 O132 2.300 . S
Cd133 O141 2.381 . S
Cd133 O142 2.378 . S
O134 Cd135 2.385 . S
O134 C139 1.255 . S
Cd135 O134 2.385 . S
Cd135 O136 2.317 . S
O136 Cd135 2.317 . S
O136 C137 1.232 . S
C137 O136 1.232 . S
C137 O138 1.218 . S
O138 C137 1.218 . S
C139 O132 1.275 . S
C139 O134 1.255 . S
C140 O141 1.258 . S
C140 O142 1.256 . S
O141 Cd133 2.381 . S
O141 C140 1.258 . S
O142 Cd133 2.378 . S
O142 C140 1.256 . S
O143 Cd144 2.300 . S
O143 C150 1.275 1_455 S
Cd144 O143 2.300 . S
Cd144 O152 2.381 . S
Cd144 O153 2.378 . S
O145 Cd146 2.385 . S
O145 C150 1.255 . S
Cd146 O145 2.385 . S
Cd146 O147 2.317 . S
O147 Cd146 2.317 . S
O147 C148 1.232 . S
C148 O147 1.232 . S
C148 O149 1.218 . S
O149 C148 1.218 . S
C150 O143 1.275 1_655 S
C150 O145 1.255 . S
C151 O152 1.258 . S
C151 O153 1.256 . S
O152 Cd144 2.381 . S
O152 C151 1.258 . S
O153 Cd144 2.378 . S
O153 C151 1.256 . S
O154 Cd155 2.300 . S
O154 C161 1.275 . S
Cd155 O154 2.300 . S
Cd155 O163 2.381 . S
Cd155 O164 2.378 . S
O156 Cd157 2.385 . S
O156 C161 1.255 . S
Cd157 O156 2.385 . S
Cd157 O158 2.317 . S
O158 Cd157 2.317 . S
O158 C159 1.232 . S
C159 O158 1.232 . S
C159 O160 1.218 . S
O160 C159 1.218 . S
C161 O154 1.275 . S
C161 O156 1.255 . S
C162 O163 1.258 . S
C162 O164 1.256 . S
O163 Cd155 2.381 . S
O163 C162 1.258 . S
O164 Cd155 2.378 . S
O164 C162 1.256 . S
O165 Cd166 2.300 . S
O165 C172 1.275 . S
Cd166 O165 2.300 . S
Cd166 O174 2.381 . S
Cd166 O175 2.378 . S
O167 Cd168 2.385 . S
O167 C172 1.255 . S
Cd168 O167 2.385 . S
Cd168 O169 2.317 . S
O169 Cd168 2.317 . S
O169 C170 1.232 . S
C170 O169 1.232 . S
C170 O171 1.218 . S
O171 C170 1.218 . S
C172 O165 1.275 . S
C172 O167 1.255 . S
C173 O174 1.258 . S
C173 O175 1.256 . S
O174 Cd166 2.381 . S
O174 C173 1.258 . S
O175 Cd166 2.378 . S
O175 C173 1.256 . S
O176 Cd177 2.300 . S
O176 C183 1.275 . S
Cd177 O176 2.300 . S
Cd177 O185 2.381 . S
Cd177 O186 2.378 . S
O178 Cd179 2.385 . S
O178 C183 1.255 . S
Cd179 O178 2.385 . S
Cd179 O180 2.317 . S
O180 Cd179 2.317 . S
O180 C181 1.232 . S
C181 O180 1.232 . S
C181 O182 1.218 . S
O182 C181 1.218 . S
C183 O176 1.275 . S
C183 O178 1.255 . S
C184 O185 1.258 . S
C184 O186 1.256 . S
O185 Cd177 2.381 . S
O185 C184 1.258 . S
O186 Cd177 2.378 . S
O186 C184 1.256 . S
O187 Cd188 2.300 . S
O187 C194 1.275 . S
Cd188 O187 2.300 . S
Cd188 O196 2.381 . S
Cd188 O197 2.378 . S
O189 Cd190 2.385 . S
O189 C194 1.255 . S
Cd190 O189 2.385 . S
Cd190 O191 2.317 . S
O191 Cd190 2.317 . S
O191 C192 1.232 . S
C192 O191 1.232 . S
C192 O193 1.218 . S
O193 C192 1.218 . S
C194 O187 1.275 . S
C194 O189 1.255 . S
C195 O196 1.258 . S
C195 O197 1.256 . S
O196 Cd188 2.381 . S
O196 C195 1.258 . S
O197 Cd188 2.378 . S
O197 C195 1.256 . S
O198 Cd199 2.300 . S
O198 C205 1.275 . S
Cd199 O198 2.300 . S
Cd199 O207 2.381 . S
Cd199 O208 2.378 . S
O200 Cd201 2.385 . S
O200 C205 1.255 . S
Cd201 O200 2.385 . S
Cd201 O202 2.317 . S
O202 Cd201 2.317 . S
O202 C203 1.232 . S
C203 O202 1.232 . S
C203 O204 1.218 . S
O204 C203 1.218 . S
C205 O198 1.275 . S
C205 O200 1.255 . S
C206 O207 1.258 . S
C206 O208 1.256 . S
O207 Cd199 2.381 . S
O207 C206 1.258 . S
O208 Cd199 2.378 . S
O208 C206 1.256 . S
O209 Cd210 2.300 . S
O209 C216 1.275 . S
Cd210 O209 2.300 . S
Cd210 O218 2.381 . S
Cd210 O219 2.378 . S
O211 Cd212 2.385 . S
O211 C216 1.255 . S
Cd212 O211 2.385 . S
Cd212 O213 2.317 . S
O213 Cd212 2.317 . S
O213 C214 1.232 . S
C214 O213 1.232 . S
C214 O215 1.218 . S
O215 C214 1.218 . S
C216 O209 1.275 . S
C216 O211 1.255 . S
C217 O218 1.258 . S
C217 O219 1.256 . S
O218 Cd210 2.381 . S
O218 C217 1.258 . S
O219 Cd210 2.378 . S
O219 C217 1.256 . S
O220 Cd221 2.300 . S
O220 C227 1.275 1_556 S
Cd221 O220 2.300 . S
Cd221 O229 2.381 . S
Cd221 O230 2.378 . S
O222 Cd223 2.385 . S
O222 C227 1.255 . S
Cd223 O222 2.385 . S
Cd223 O224 2.317 . S
O224 Cd223 2.317 . S
O224 C225 1.232 . S
C225 O224 1.232 . S
C225 O226 1.218 . S
O226 C225 1.218 . S
C227 O220 1.275 1_554 S
C227 O222 1.255 . S
C228 O229 1.258 . S
C228 O230 1.256 . S
O229 Cd221 2.381 . S
O229 C228 1.258 . S
O230 Cd221 2.378 . S
O230 C228 1.256 . S
O231 Cd232 2.300 . S
O231 C238 1.275 . S
Cd232 O231 2.300 . S
Cd232 O240 2.381 . S
Cd232 O241 2.378 . S
O233 Cd234 2.385 . S
O233 C238 1.255 . S
Cd234 O233 2.385 . S
Cd234 O235 2.317 . S
O235 Cd234 2.317 . S
O235 C236 1.232 . S
C236 O235 1.232 . S
C236 O237 1.218 . S
O237 C236 1.218 . S
C238 O231 1.275 . S
C238 O233 1.255 . S
C239 O240 1.258 . S
C239 O241 1.256 . S
O240 Cd232 2.381 . S
O240 C239 1.258 . S
O241 Cd232 2.378 . S
O241 C239 1.256 . S
O242 Cd243 2.300 . S
O242 C249 1.275 . S
Cd243 O242 2.300 . S
Cd243 O251 2.381 . S
Cd243 O252 2.378 . S
O244 Cd245 2.385 . S
O244 C249 1.255 . S
Cd245 O244 2.385 . S
Cd245 O246 2.317 . S
O246 Cd245 2.317 . S
O246 C247 1.232 . S
C247 O246 1.232 . S
C247 O248 1.218 . S
O248 C247 1.218 . S
C249 O242 1.275 . S
C249 O244 1.255 . S
C250 O251 1.258 . S
C250 O252 1.256 . S
O251 Cd243 2.381 . S
O251 C250 1.258 . S
O252 Cd243 2.378 . S
O252 C250 1.256 . S
O253 Cd254 2.300 . S
O253 C260 1.275 1_565 S
Cd254 O253 2.300 . S
Cd254 O262 2.381 . S
Cd254 O263 2.378 . S
O255 Cd256 2.385 . S
O255 C260 1.255 . S
Cd256 O255 2.385 . S
Cd256 O257 2.317 . S
O257 Cd256 2.317 . S
O257 C258 1.232 . S
C258 O257 1.232 . S
C258 O259 1.218 . S
O259 C258 1.218 . S
C260 O253 1.275 1_545 S
C260 O255 1.255 . S
C261 O262 1.258 . S
C261 O263 1.256 . S
O262 Cd254 2.381 . S
O262 C261 1.258 . S
O263 Cd254 2.378 . S
O263 C261 1.256 . S
C264 C265 1.387 . S
C264 H268 0.950 . S
C264 C273 1.390 . S
C265 C264 1.387 . S
C265 C267 1.387 . S
H266 C273 0.950 . S
C267 C265 1.387 . S
C267 C269 1.390 . S
C267 H271 0.950 . S
H268 C264 0.950 . S
C269 C267 1.390 . S
C269 C270 1.387 . S
C269 H272 0.950 . S
C270 C269 1.387 . S
C270 C273 1.387 . S
H271 C267 0.950 . S
H272 C269 0.950 . S
C273 C264 1.390 . S
C273 H266 0.950 . S
C273 C270 1.387 . S
C274 C275 1.387 1_455 S
C274 H278 0.950 . S
C274 C283 1.390 . S
C275 C274 1.387 1_655 S
C275 C277 1.387 . S
H276 C283 0.950 . S
C277 C275 1.387 . S
C277 C279 1.390 . S
C277 H281 0.948 . S
H278 C274 0.950 . S
C279 C277 1.390 . S
C279 C280 1.387 . S
C279 H282 0.950 . S
C280 C279 1.387 . S
C280 C283 1.387 1_655 S
H281 C277 0.948 . S
H282 C279 0.950 . S
C283 C274 1.390 . S
C283 H276 0.950 . S
C283 C280 1.387 1_455 S
C284 C285 1.387 . S
C284 H288 0.950 . S
C284 C293 1.390 . S
C285 C284 1.387 . S
C285 C287 1.387 . S
H286 C293 0.950 . S
C287 C285 1.387 . S
C287 C289 1.390 . S
C287 H291 0.950 . S
H288 C284 0.950 . S
C289 C287 1.390 . S
C289 C290 1.387 . S
C289 H292 0.950 . S
C290 C289 1.387 . S
C290 C293 1.387 . S
H291 C287 0.950 . S
H292 C289 0.950 . S
C293 C284 1.390 . S
C293 H286 0.950 . S
C293 C290 1.387 . S
C294 C295 1.387 . S
C294 H298 0.950 . S
C294 C303 1.390 1_556 S
C295 C294 1.387 . S
C295 C297 1.387 . S
H296 C303 0.950 . S
C297 C295 1.387 . S
C297 C299 1.390 1_556 S
C297 H301 0.950 . S
H298 C294 0.950 . S
C299 C297 1.390 1_554 S
C299 C300 1.387 . S
C299 H302 0.950 . S
C300 C299 1.387 . S
C300 C303 1.387 . S
H301 C297 0.950 . S
H302 C299 0.950 . S
C303 C294 1.390 1_554 S
C303 H296 0.950 . S
C303 C300 1.387 . S
C304 C305 1.387 . S
C304 H308 0.950 . S
C304 C313 1.390 . S
C305 C304 1.387 . S
C305 C307 1.387 . S
H306 C313 0.950 . S
C307 C305 1.387 . S
C307 C309 1.390 . S
C307 H311 0.950 . S
H308 C304 0.950 . S
C309 C307 1.390 . S
C309 C310 1.387 . S
C309 H312 0.950 . S
C310 C309 1.387 . S
C310 C313 1.387 . S
H311 C307 0.950 . S
H312 C309 0.950 . S
C313 C304 1.390 . S
C313 H306 0.950 . S
C313 C310 1.387 . S
C314 C315 1.387 . S
C314 H318 0.950 . S
C314 C323 1.390 1_545 S
C315 C314 1.387 . S
C315 C317 1.387 . S
H316 C323 0.950 . S
C317 C315 1.387 . S
C317 C319 1.390 1_545 S
C317 H321 0.950 . S
H318 C314 0.950 . S
C319 C317 1.390 1_565 S
C319 C320 1.387 . S
C319 H322 0.950 . S
C320 C319 1.387 . S
C320 C323 1.387 . S
H321 C317 0.950 . S
H322 C319 0.950 . S
C323 C314 1.390 1_565 S
C323 H316 0.950 . S
C323 C320 1.387 . S
C324 C325 1.387 . S
C324 H328 0.950 . S
C324 C333 1.390 . S
C325 C324 1.387 . S
C325 C327 1.387 . S
H326 C333 0.950 . S
C327 C325 1.387 . S
C327 C329 1.390 . S
C327 H331 0.950 1_556 S
H328 C324 0.950 . S
C329 C327 1.390 . S
C329 C330 1.387 . S
C329 H332 0.950 1_556 S
C330 C329 1.387 . S
C330 C333 1.387 . S
H331 C327 0.950 1_554 S
H332 C329 0.950 1_554 S
C333 C324 1.390 . S
C333 H326 0.950 . S
C333 C330 1.387 . S
C334 C335 1.387 . S
C334 H338 0.950 . S
C334 C343 1.390 . S
C335 C334 1.387 . S
C335 C337 1.387 . S
H336 C343 0.950 . S
C337 C335 1.387 . S
C337 C339 1.390 . S
C337 H341 0.950 . S
H338 C334 0.950 . S
C339 C337 1.390 . S
C339 C340 1.387 . S
C339 H342 0.950 . S
C340 C339 1.387 . S
C340 C343 1.387 . S
H341 C337 0.950 . S
H342 C339 0.950 . S
C343 C334 1.390 . S
C343 H336 0.950 . S
C343 C340 1.387 . S
C344 C345 1.400 . S
C344 H348 0.931 1_554 S
C344 C353 1.397 . S
C345 C344 1.400 . S
C345 C347 1.387 . S
H346 C353 0.950 1_556 S
C347 C345 1.387 . S
C347 C349 1.390 . S
C347 H351 0.950 . S
H348 C344 0.931 1_556 S
C349 C347 1.390 . S
C349 C350 1.387 . S
C349 H352 0.950 . S
C350 C349 1.387 . S
C350 C353 1.387 . S
H351 C347 0.950 . S
H352 C349 0.950 . S
C353 C344 1.397 . S
C353 H346 0.950 1_554 S
C353 C350 1.387 . S
C354 C355 1.387 . S
C354 H358 0.950 . S
C354 C363 1.390 . S
C355 C354 1.387 . S
C355 C357 1.387 . S
H356 C363 0.950 . S
C357 C355 1.387 . S
C357 C359 1.390 . S
C357 H361 0.950 . S
H358 C354 0.950 . S
C359 C357 1.390 . S
C359 C360 1.387 . S
C359 H362 0.950 . S
C360 C359 1.387 . S
C360 C363 1.387 . S
H361 C357 0.950 . S
H362 C359 0.950 . S
C363 C354 1.390 . S
C363 H356 0.950 . S
C363 C360 1.387 . S
C364 C365 1.387 . S
C364 H368 0.950 . S
C364 C373 1.390 . S
C365 C364 1.387 . S
C365 C367 1.387 . S
H366 C373 0.950 . S
C367 C365 1.387 . S
C367 C369 1.390 . S
C367 H371 0.950 . S
H368 C364 0.950 . S
C369 C367 1.390 . S
C369 C370 1.387 . S
C369 H372 0.950 . S
C370 C369 1.387 . S
C370 C373 1.387 . S
H371 C367 0.950 . S
H372 C369 0.950 . S
C373 C364 1.390 . S
C373 H366 0.950 . S
C373 C370 1.387 . S
C374 C375 1.387 . S
C374 H378 0.950 . S
C374 C383 1.390 . S
C375 C374 1.387 . S
C375 C377 1.387 . S
H376 C383 0.950 . S
C377 C375 1.387 . S
C377 C379 1.390 . S
C377 H381 0.950 . S
H378 C374 0.950 . S
C379 C377 1.390 . S
C379 C380 1.387 . S
C379 H382 0.950 . S
C380 C379 1.387 . S
C380 C383 1.387 . S
H381 C377 0.950 . S
H382 C379 0.950 . S
C383 C374 1.390 . S
C383 H376 0.950 . S
C383 C380 1.387 . S
C384 C385 1.387 . S
C384 H388 0.950 . S
C384 C393 1.390 . S
C385 C384 1.387 . S
C385 C387 1.387 . S
H386 C393 0.950 . S
C387 C385 1.387 . S
C387 C389 1.390 . S
C387 H391 0.950 . S
H388 C384 0.950 . S
C389 C387 1.390 . S
C389 C390 1.387 . S
C389 H392 0.950 . S
C390 C389 1.387 . S
C390 C393 1.387 . S
H391 C387 0.950 . S
H392 C389 0.950 . S
C393 C384 1.390 . S
C393 H386 0.950 . S
C393 C390 1.387 . S
C394 C395 1.387 . S
C394 H398 0.950 . S
C394 C403 1.390 . S
C395 C394 1.387 . S
C395 C397 1.387 . S
H396 C403 0.950 . S
C397 C395 1.387 . S
C397 C399 1.390 . S
C397 H401 0.950 . S
H398 C394 0.950 . S
C399 C397 1.390 . S
C399 C400 1.387 . S
C399 H402 0.950 . S
C400 C399 1.387 . S
C400 C403 1.387 . S
H401 C397 0.950 . S
H402 C399 0.950 . S
C403 C394 1.390 . S
C403 H396 0.950 . S
C403 C400 1.387 . S
C404 C405 1.387 . S
C404 H408 0.950 . S
C404 C413 1.390 . S
C405 C404 1.387 . S
C405 C407 1.387 . S
H406 C413 0.950 . S
C407 C405 1.387 . S
C407 C409 1.390 . S
C407 H411 0.950 . S
H408 C404 0.950 . S
C409 C407 1.390 . S
C409 C410 1.387 . S
C409 H412 0.950 . S
C410 C409 1.387 . S
C410 C413 1.387 . S
H411 C407 0.950 . S
H412 C409 0.950 . S
C413 C404 1.390 . S
C413 H406 0.950 . S
C413 C410 1.387 . S
C414 C415 1.387 . S
C414 H418 0.950 . S
C414 C423 1.390 . S
C415 C414 1.387 . S
C415 C417 1.387 . S
H416 C423 0.950 . S
C417 C415 1.387 . S
C417 C419 1.390 . S
C417 H421 0.950 . S
H418 C414 0.950 . S
C419 C417 1.390 . S
C419 C420 1.387 . S
C419 H422 0.950 . S
C420 C419 1.387 . S
C420 C423 1.387 . S
H421 C417 0.950 . S
H422 C419 0.950 . S
C423 C414 1.390 . S
C423 H416 0.950 . S
C423 C420 1.387 . S
C424 C425 1.387 . S
C424 H428 0.950 . S
C424 C433 1.390 . S
C425 C424 1.387 . S
C425 C427 1.387 . S
H426 C433 0.950 . S
C427 C425 1.387 . S
C427 C429 1.390 . S
C427 H431 0.950 . S
H428 C424 0.950 . S
C429 C427 1.390 . S
C429 C430 1.387 . S
C429 H432 0.950 . S
C430 C429 1.387 . S
C430 C433 1.387 . S
H431 C427 0.950 . S
H432 C429 0.950 . S
C433 C424 1.390 . S
C433 H426 0.950 . S
C433 C430 1.387 . S
C434 C435 1.387 . S
C434 H438 0.950 . S
C434 C443 1.390 . S
C435 C434 1.387 . S
C435 C437 1.387 . S
H436 C443 0.950 . S
C437 C435 1.387 . S
C437 C439 1.390 . S
C437 H441 0.950 . S
H438 C434 0.950 . S
C439 C437 1.390 . S
C439 C440 1.387 . S
C439 H442 0.950 . S
C440 C439 1.387 . S
C440 C443 1.387 . S
H441 C437 0.950 . S
H442 C439 0.950 . S
C443 C434 1.390 . S
C443 H436 0.950 . S
C443 C440 1.387 . S
C444 C445 1.387 . S
C444 H448 0.950 . S
C444 C453 1.390 . S
C445 C444 1.387 . S
C445 C447 1.387 . S
H446 C453 0.950 . S
C447 C445 1.387 . S
C447 C449 1.390 . S
C447 H451 0.950 . S
H448 C444 0.950 . S
C449 C447 1.390 . S
C449 C450 1.387 . S
C449 H452 0.950 . S
C450 C449 1.387 . S
C450 C453 1.387 . S
H451 C447 0.950 . S
H452 C449 0.950 . S
C453 C444 1.390 . S
C453 H446 0.950 . S
C453 C450 1.387 . S
C454 C455 1.387 . S
C454 H458 0.950 . S
C454 C463 1.390 . S
C455 C454 1.387 . S
C455 C457 1.387 . S
H456 C463 0.950 . S
C457 C455 1.387 . S
C457 C459 1.390 . S
C457 H461 0.950 . S
H458 C454 0.950 . S
C459 C457 1.390 . S
C459 C460 1.387 . S
C459 H462 0.950 . S
C460 C459 1.387 . S
C460 C463 1.387 . S
H461 C457 0.950 . S
H462 C459 0.950 . S
C463 C454 1.390 . S
C463 H456 0.950 . S
C463 C460 1.387 . S
C464 C465 1.387 . S
C464 H468 0.950 . S
C464 C473 1.390 . S
C465 C464 1.387 . S
C465 C467 1.387 . S
H466 C473 0.950 . S
C467 C465 1.387 . S
C467 C469 1.390 . S
C467 H471 0.950 . S
H468 C464 0.950 . S
C469 C467 1.390 . S
C469 C470 1.387 . S
C469 H472 0.950 . S
C470 C469 1.387 . S
C470 C473 1.387 . S
H471 C467 0.950 . S
H472 C469 0.950 . S
C473 C464 1.390 . S
C473 H466 0.950 . S
C473 C470 1.387 . S
C474 C475 1.387 . S
C474 H478 0.950 . S
C474 C483 1.390 . S
C475 C474 1.387 . S
C475 C477 1.387 . S
H476 C483 0.950 . S
C477 C475 1.387 . S
C477 C479 1.390 . S
C477 H481 0.950 . S
H478 C474 0.950 . S
C479 C477 1.390 . S
C479 C480 1.387 . S
C479 H482 0.950 . S
C480 C479 1.387 . S
C480 C483 1.387 . S
H481 C477 0.950 . S
H482 C479 0.950 . S
C483 C474 1.390 . S
C483 H476 0.950 . S
C483 C480 1.387 . S
C484 C485 1.387 . S
C484 H488 0.950 . S
C484 C493 1.390 . S
C485 C484 1.387 . S
C485 C487 1.387 . S
H486 C493 0.950 . S
C487 C485 1.387 . S
C487 C489 1.390 . S
C487 H491 0.950 . S
H488 C484 0.950 . S
C489 C487 1.390 . S
C489 C490 1.387 . S
C489 H492 0.950 . S
C490 C489 1.387 . S
C490 C493 1.387 . S
H491 C487 0.950 . S
H492 C489 0.950 . S
C493 C484 1.390 . S
C493 H486 0.950 . S
C493 C490 1.387 . S
C494 C495 1.387 . S
C494 H498 0.950 . S
C494 C503 1.390 . S
C495 C494 1.387 . S
C495 C497 1.387 . S
H496 C503 0.950 . S
C497 C495 1.387 . S
C497 C499 1.390 . S
C497 H501 0.950 . S
H498 C494 0.950 . S
C499 C497 1.390 . S
C499 C500 1.387 . S
C499 H502 0.950 . S
C500 C499 1.387 . S
C500 C503 1.387 . S
H501 C497 0.950 . S
H502 C499 0.950 . S
C503 C494 1.390 . S
C503 H496 0.950 . S
C503 C500 1.387 . S
C504 C505 1.387 . S
C504 H508 0.950 . S
C504 C513 1.390 . S
C505 C504 1.387 . S
C505 C507 1.387 . S
H506 C513 0.950 . S
C507 C505 1.387 . S
C507 C509 1.390 . S
C507 H511 0.950 . S
H508 C504 0.950 . S
C509 C507 1.390 . S
C509 C510 1.387 . S
C509 H512 0.950 . S
C510 C509 1.387 . S
C510 C513 1.387 . S
H511 C507 0.950 . S
H512 C509 0.950 . S
C513 C504 1.390 . S
C513 H506 0.950 . S
C513 C510 1.387 . S
C514 C515 1.387 . S
C514 H518 0.950 . S
C514 C523 1.390 . S
C515 C514 1.387 . S
C515 C517 1.387 . S
H516 C523 0.950 . S
C517 C515 1.387 . S
C517 C519 1.390 . S
C517 H521 0.950 . S
H518 C514 0.950 . S
C519 C517 1.390 . S
C519 C520 1.387 . S
C519 H522 0.950 . S
C520 C519 1.387 . S
C520 C523 1.387 . S
H521 C517 0.950 . S
H522 C519 0.950 . S
C523 C514 1.390 . S
C523 H516 0.950 . S
C523 C520 1.387 . S
C524 C525 1.387 . S
C524 H528 0.950 . S
C524 C533 1.390 . S
C525 C524 1.387 . S
C525 C527 1.387 . S
H526 C533 0.950 . S
C527 C525 1.387 . S
C527 C529 1.390 . S
C527 H531 0.950 . S
H528 C524 0.950 . S
C529 C527 1.390 . S
C529 C530 1.387 . S
C529 H532 0.950 . S
C530 C529 1.387 . S
C530 C533 1.387 . S
H531 C527 0.950 . S
H532 C529 0.950 . S
C533 C524 1.390 . S
C533 H526 0.950 . S
C533 C530 1.387 . S
C534 C535 1.387 . S
C534 H538 0.950 . S
C534 C543 1.390 . S
C535 C534 1.387 . S
C535 C537 1.387 . S
H536 C543 0.950 . S
C537 C535 1.387 . S
C537 C539 1.390 . S
C537 H541 0.950 . S
H538 C534 0.950 . S
C539 C537 1.390 . S
C539 C540 1.387 . S
C539 H542 0.950 . S
C540 C539 1.387 . S
C540 C543 1.387 . S
H541 C537 0.950 . S
H542 C539 0.950 . S
C543 C534 1.390 . S
C543 H536 0.950 . S
C543 C540 1.387 . S
C544 C545 1.387 . S
C544 H548 0.950 . S
C544 C553 1.390 . S
C545 C544 1.387 . S
C545 C547 1.387 . S
H546 C553 0.950 . S
C547 C545 1.387 . S
C547 C549 1.390 . S
C547 H551 0.950 . S
H548 C544 0.950 . S
C549 C547 1.390 . S
C549 C550 1.387 . S
C549 H552 0.950 . S
C550 C549 1.387 . S
C550 C553 1.387 . S
H551 C547 0.950 . S
H552 C549 0.950 . S
C553 C544 1.390 . S
C553 H546 0.950 . S
C553 C550 1.387 . S
C554 C555 1.387 . S
C554 H558 0.950 . S
C554 C563 1.390 . S
C555 C554 1.387 . S
C555 C557 1.387 . S
H556 C563 0.950 . S
C557 C555 1.387 . S
C557 C559 1.390 . S
C557 H561 0.950 . S
H558 C554 0.950 . S
C559 C557 1.390 . S
C559 C560 1.387 . S
C559 H562 0.950 . S
C560 C559 1.387 . S
C560 C563 1.387 . S
H561 C557 0.950 . S
H562 C559 0.950 . S
C563 C554 1.390 . S
C563 H556 0.950 . S
C563 C560 1.387 . S
C564 C565 1.387 . S
C564 H568 0.950 . S
C564 C573 1.390 . S
C565 C564 1.387 . S
C565 C567 1.387 . S
H566 C573 0.950 . S
C567 C565 1.387 . S
C567 C569 1.390 . S
C567 H571 0.950 . S
H568 C564 0.950 . S
C569 C567 1.390 . S
C569 C570 1.387 . S
C569 H572 0.950 . S
C570 C569 1.387 . S
C570 C573 1.387 . S
H571 C567 0.950 . S
H572 C569 0.950 . S
C573 C564 1.390 . S
C573 H566 0.950 . S
C573 C570 1.387 . S
C574 C575 1.387 . S
C574 H578 0.950 . S
C574 C583 1.390 . S
C575 C574 1.387 . S
C575 C577 1.387 . S
H576 C583 0.950 . S
C577 C575 1.387 . S
C577 C579 1.390 . S
C577 H581 0.950 . S
H578 C574 0.950 . S
C579 C577 1.390 . S
C579 C580 1.387 . S
C579 H582 0.950 . S
C580 C579 1.387 . S
C580 C583 1.387 . S
H581 C577 0.950 . S
H582 C579 0.950 . S
C583 C574 1.390 . S
C583 H576 0.950 . S
C583 C580 1.387 . S
C584 C585 1.387 . S
C584 H588 0.950 . S
C584 C593 1.390 . S
C585 C584 1.387 . S
C585 C587 1.387 . S
H586 C593 0.950 . S
C587 C585 1.387 . S
C587 C589 1.390 . S
C587 H591 0.950 . S
H588 C584 0.950 . S
C589 C587 1.390 . S
C589 C590 1.387 . S
C589 H592 0.950 . S
C590 C589 1.387 . S
C590 C593 1.387 . S
H591 C587 0.950 . S
H592 C589 0.950 . S
C593 C584 1.390 . S
C593 H586 0.950 . S
C593 C590 1.387 . S
C594 C595 1.387 . S
C594 H598 0.950 . S
C594 C603 1.390 . S
C595 C594 1.387 . S
C595 C597 1.387 . S
H596 C603 0.950 . S
C597 C595 1.387 . S
C597 C599 1.390 . S
C597 H601 0.950 . S
H598 C594 0.950 . S
C599 C597 1.390 . S
C599 C600 1.387 . S
C599 H602 0.950 . S
C600 C599 1.387 . S
C600 C603 1.387 . S
H601 C597 0.950 . S
H602 C599 0.950 . S
C603 C594 1.390 . S
C603 H596 0.950 . S
C603 C600 1.387 . S
C604 C605 1.387 . S
C604 H608 0.950 . S
C604 C613 1.390 . S
C605 C604 1.387 . S
C605 C607 1.387 . S
H606 C613 0.950 . S
C607 C605 1.387 . S
C607 C609 1.390 . S
C607 H611 0.950 . S
H608 C604 0.950 . S
C609 C607 1.390 . S
C609 C610 1.387 . S
C609 H612 0.950 . S
C610 C609 1.387 . S
C610 C613 1.387 . S
H611 C607 0.950 . S
H612 C609 0.950 . S
C613 C604 1.390 . S
C613 H606 0.950 . S
C613 C610 1.387 . S
C614 C615 1.387 . S
C614 H618 0.950 . S
C614 C623 1.390 . S
C615 C614 1.387 . S
C615 C617 1.387 . S
H616 C623 0.950 . S
C617 C615 1.387 . S
C617 C619 1.390 . S
C617 H621 0.950 . S
H618 C614 0.950 . S
C619 C617 1.390 . S
C619 C620 1.387 . S
C619 H622 0.950 . S
C620 C619 1.387 . S
C620 C623 1.387 . S
H621 C617 0.950 . S
H622 C619 0.950 . S
C623 C614 1.390 . S
C623 H616 0.950 . S
C623 C620 1.387 . S
C265 C84 1.514 . S
C270 C7 1.623 . S
C275 C51 1.337 . S
C280 C18 1.497 1_655 S
C285 C29 1.332 . S
C290 C62 1.469 . S
C295 C73 1.498 . S
C300 C40 1.368 . S
C305 C183 1.378 . S
C310 C95 1.525 . S
C315 C106 1.431 . S
C320 C194 1.433 . S
C325 C117 1.281 . S
C330 C260 1.283 . S
C335 C128 1.373 . S
C340 C139 1.350 . S
C345 C227 1.383 . S
C350 C150 1.393 . S
C355 C161 1.586 1_655 S
C360 C238 1.595 . S
C365 C249 1.543 . S
C370 C172 1.539 . S
C375 C216 1.428 . S
C380 C205 1.575 . S
C385 C162 1.756 . S
C390 C5 1.582 . S
C395 C173 1.683 . S
C400 C16 1.502 . S
C405 C30 1.501 . S
C410 C206 1.562 . S
C415 C148 1.243 . S
C420 C41 1.529 . S
C425 C49 1.318 . S
C430 C159 1.625 . S
C435 C170 1.479 . S
C440 C63 1.674 . S
C445 C74 1.484 . S
C450 C203 1.309 . S
C455 C82 1.304 . S
C460 C151 1.680 . S
C465 C107 1.543 . S
C470 C93 1.371 . S
C475 C104 1.276 . S
C480 C115 1.122 . S
C485 C118 1.554 . S
C490 C126 1.250 . S
C495 C129 1.505 . S
C500 C96 1.542 . S
C505 C140 1.677 . S
C510 C38 1.325 . S
C515 C181 1.454 . S
C520 C52 1.836 . S
C525 C19 1.537 . S
C530 C192 1.327 . S
C535 C261 1.622 . S
C540 C27 1.241 . S
C545 C184 1.712 . S
C550 C8 1.822 . S
C555 C71 1.308 . S
C560 C258 1.131 . S
C565 C85 1.710 . S
C570 C137 1.403 . S
C575 C195 1.665 . S
C580 C60 1.469 . S
C585 C214 1.422 . S
C590 C228 1.843 . S
C595 C236 1.499 . S
C600 C225 1.285 . S
C605 C239 1.748 . S
C610 C247 1.539 . S
C615 C217 1.781 . S
C620 C250 1.879 . S
