# Generated by pormake.
# Topology ume, (4)-cn, num edge types: 1
# Building blocks:
#     Node 0, Type 0, BuildingBlock: ICAMEG_clean_sbu_1, # of connection points: 4
#     Node 1, Type 0, BuildingBlock: ICAMEG_clean_sbu_1, # of connection points: 4
#     Node 2, Type 0, BuildingBlock: ICAMEG_clean_sbu_1, # of connection points: 4
#     Node 3, Type 0, BuildingBlock: ICAMEG_clean_sbu_1, # of connection points: 4
#     Node 4, Type 0, BuildingBlock: ICAMEG_clean_sbu_1, # of connection points: 4
#     Node 5, Type 0, BuildingBlock: ICAMEG_clean_sbu_1, # of connection points: 4
#     Node 6, Type 0, BuildingBlock: ICAMEG_clean_sbu_1, # of connection points: 4
#     Node 7, Type 0, BuildingBlock: ICAMEG_clean_sbu_1, # of connection points: 4
#     Node 8, Type 0, BuildingBlock: ICAMEG_clean_sbu_1, # of connection points: 4
#     Node 9, Type 0, BuildingBlock: ICAMEG_clean_sbu_1, # of connection points: 4
#     Node 10, Type 0, BuildingBlock: ICAMEG_clean_sbu_1, # of connection points: 4
#     Node 11, Type 0, BuildingBlock: ICAMEG_clean_sbu_1, # of connection points: 4
#     Node 12, Type 0, BuildingBlock: ICAMEG_clean_sbu_1, # of connection points: 4
#     Node 13, Type 0, BuildingBlock: ICAMEG_clean_sbu_1, # of connection points: 4
#     Node 14, Type 0, BuildingBlock: ICAMEG_clean_sbu_1, # of connection points: 4
#     Node 15, Type 0, BuildingBlock: ICAMEG_clean_sbu_1, # of connection points: 4
#     Edge 16, Type (0, 0), BuildingBlock: XIVTED_clean_linker_0, # of connection points: 2
#     Edge 17, Type (0, 0), BuildingBlock: XIVTED_clean_linker_0, # of connection points: 2
#     Edge 18, Type (0, 0), BuildingBlock: XIVTED_clean_linker_0, # of connection points: 2
#     Edge 19, Type (0, 0), BuildingBlock: XIVTED_clean_linker_0, # of connection points: 2
#     Edge 20, Type (0, 0), BuildingBlock: XIVTED_clean_linker_0, # of connection points: 2
#     Edge 21, Type (0, 0), BuildingBlock: XIVTED_clean_linker_0, # of connection points: 2
#     Edge 22, Type (0, 0), BuildingBlock: XIVTED_clean_linker_0, # of connection points: 2
#     Edge 23, Type (0, 0), BuildingBlock: XIVTED_clean_linker_0, # of connection points: 2
#     Edge 24, Type (0, 0), BuildingBlock: XIVTED_clean_linker_0, # of connection points: 2
#     Edge 25, Type (0, 0), BuildingBlock: XIVTED_clean_linker_0, # of connection points: 2
#     Edge 26, Type (0, 0), BuildingBlock: XIVTED_clean_linker_0, # of connection points: 2
#     Edge 27, Type (0, 0), BuildingBlock: XIVTED_clean_linker_0, # of connection points: 2
#     Edge 28, Type (0, 0), BuildingBlock: XIVTED_clean_linker_0, # of connection points: 2
#     Edge 29, Type (0, 0), BuildingBlock: XIVTED_clean_linker_0, # of connection points: 2
#     Edge 30, Type (0, 0), BuildingBlock: XIVTED_clean_linker_0, # of connection points: 2
#     Edge 31, Type (0, 0), BuildingBlock: XIVTED_clean_linker_0, # of connection points: 2
#     Edge 32, Type (0, 0), BuildingBlock: XIVTED_clean_linker_0, # of connection points: 2
#     Edge 33, Type (0, 0), BuildingBlock: XIVTED_clean_linker_0, # of connection points: 2
#     Edge 34, Type (0, 0), BuildingBlock: XIVTED_clean_linker_0, # of connection points: 2
#     Edge 35, Type (0, 0), BuildingBlock: XIVTED_clean_linker_0, # of connection points: 2
#     Edge 36, Type (0, 0), BuildingBlock: XIVTED_clean_linker_0, # of connection points: 2
#     Edge 37, Type (0, 0), BuildingBlock: XIVTED_clean_linker_0, # of connection points: 2
#     Edge 38, Type (0, 0), BuildingBlock: XIVTED_clean_linker_0, # of connection points: 2
#     Edge 39, Type (0, 0), BuildingBlock: XIVTED_clean_linker_0, # of connection points: 2
#     Edge 40, Type (0, 0), BuildingBlock: XIVTED_clean_linker_0, # of connection points: 2
#     Edge 41, Type (0, 0), BuildingBlock: XIVTED_clean_linker_0, # of connection points: 2
#     Edge 42, Type (0, 0), BuildingBlock: XIVTED_clean_linker_0, # of connection points: 2
#     Edge 43, Type (0, 0), BuildingBlock: XIVTED_clean_linker_0, # of connection points: 2
#     Edge 44, Type (0, 0), BuildingBlock: XIVTED_clean_linker_0, # of connection points: 2
#     Edge 45, Type (0, 0), BuildingBlock: XIVTED_clean_linker_0, # of connection points: 2
#     Edge 46, Type (0, 0), BuildingBlock: XIVTED_clean_linker_0, # of connection points: 2
#     Edge 47, Type (0, 0), BuildingBlock: XIVTED_clean_linker_0, # of connection points: 2
# Relax obj value: 0.073
# Max RMSD: 0.096
# Mean RMSD: 0.096
data_MOF--net-ume--node1-ICAMEG_clean_sbu_1--edge1-XIVTED_clean_linker_0
_symmetry_space_group_name_H-M    P1
_symmetry_Int_Tables_number       1
_symmetry_cell_setting            triclinic
loop_
_symmetry_equiv_pos_as_xyz
'x, y, z'
_cell_length_a     29.650544
_cell_length_b     29.627372
_cell_length_c     120.26429
_cell_angle_alpha  89.999715
_cell_angle_beta   89.97838
_cell_angle_gamma 89.951595
loop_
_atom_site_label
_atom_site_type_symbol
_atom_site_fract_x
_atom_site_fract_y
_atom_site_fract_z
_atom_type_partial_charge
Co0 Co 0.27546 0.13789 0.31231 0.0
Co1 Co 0.25486 0.03928 0.29825 0.0
O2 O 0.24034 0.08304 0.30982 0.0
C3 C 0.27357 0.0933 0.33409 0.0
O4 O 0.28587 0.0567 0.32874 0.0
C5 C 0.15839 0.05695 0.2947 0.0
O6 O 0.16738 0.10034 0.29495 0.0
O7 O 0.25401 0.08749 0.28683 0.0
O8 O 0.2849 0.14633 0.29585 0.0
H9 H 0.33664 0.98246 0.26441 0.0
H10 H 0.18504 0.12904 0.32259 0.0
O11 O 0.26728 0.13001 0.32877 0.0
H12 H 0.17566 0.26359 0.29856 0.0
H13 H 0.30965 0.28508 0.33141 0.0
H14 H 0.35982 0.17607 0.30298 0.0
H15 H 0.24665 0.22053 0.30005 0.0
H16 H 0.26573 0.21596 0.32774 0.0
O17 O 0.18969 0.02811 0.29589 0.0
H18 H 0.31904 0.03682 0.27933 0.0
H19 H 0.21882 0.94863 0.29213 0.0
H20 H 0.40455 0.24494 0.30631 0.0
H21 H 0.11346 0.1713 0.32141 0.0
H22 H 0.3795 0.30001 0.32061 0.0
H23 H 0.10845 0.23904 0.3093 0.0
O24 O 0.33238 0.10257 0.31316 0.0
H25 H 0.19524 0.95441 0.3313 0.0
H26 H 0.31938 0.96562 0.30414 0.0
H27 H 0.32251 0.90744 0.31878 0.0
H28 H 0.2601 0.90153 0.33249 0.0
H29 H 0.19369 0.01244 0.3166 0.0
H30 H 0.23511 0.89344 0.27731 0.0
H31 H 0.29453 0.91014 0.26334 0.0
O32 O 0.32043 0.04896 0.3003 0.0
C33 C 0.27239 0.12639 0.28693 0.0
C34 C 0.3108 0.97471 0.27048 0.0
C35 C 0.25377 0.92477 0.27771 0.0
N36 N 0.26826 0.99573 0.28666 0.0
C37 C 0.30078 0.0053 0.27896 0.0
C38 C 0.24465 0.95619 0.28607 0.0
C39 C 0.28712 0.93417 0.26987 0.0
C40 C 0.18321 0.15872 0.31738 0.0
N41 N 0.22 0.17244 0.31144 0.0
C42 C 0.14255 0.18241 0.31671 0.0
C43 C 0.13974 0.22037 0.3099 0.0
C44 C 0.17743 0.23414 0.30387 0.0
C45 C 0.2175 0.20957 0.30473 0.0
C46 C 0.32085 0.2614 0.32513 0.0
C47 C 0.34854 0.20005 0.30916 0.0
C48 C 0.29617 0.22218 0.32303 0.0
N49 N 0.30998 0.19229 0.31507 0.0
C50 C 0.37408 0.23891 0.31103 0.0
C51 C 0.36003 0.26976 0.31907 0.0
C52 C 0.3459 0.07066 0.30691 0.0
C53 C 0.22256 0.95655 0.32536 0.0
C54 C 0.29214 0.96336 0.31009 0.0
C55 C 0.29405 0.93026 0.31835 0.0
C56 C 0.25901 0.92694 0.32603 0.0
N57 N 0.25629 0.99231 0.30949 0.0
C58 C 0.22176 0.98919 0.31698 0.0
Co59 Co 0.87337 0.76669 0.56105 0.0
Co60 Co 0.97429 0.744 0.54766 0.0
O61 O 0.92588 0.7287 0.55802 0.0
C62 C 0.91602 0.75441 0.58297 0.0
O63 O 0.95454 0.76321 0.57805 0.0
C64 C 0.94024 0.65606 0.53994 0.0
O65 O 0.8993 0.67197 0.54131 0.0
O66 O 0.93011 0.7613 0.53592 0.0
O67 O 0.86639 0.78073 0.54489 0.0
H68 H 0.05449 0.84109 0.5197 0.0
H69 H 0.8763 0.67331 0.56987 0.0
O70 O 0.8796 0.75386 0.57735 0.0
H71 H 0.74287 0.6785 0.54544 0.0
H72 H 0.72771 0.8052 0.58037 0.0
H73 H 0.84088 0.85562 0.55301 0.0
H74 H 0.7898 0.74629 0.5482 0.0
H75 H 0.79402 0.75789 0.57611 0.0
O76 O 0.97438 0.6807 0.54196 0.0
H77 H 0.99382 0.82171 0.53291 0.0
H78 H 0.05795 0.69692 0.54019 0.0
H79 H 0.77492 0.90383 0.55695 0.0
H80 H 0.83014 0.6048 0.5674 0.0
H81 H 0.71775 0.87867 0.57072 0.0
H82 H 0.76295 0.60712 0.55508 0.0
O83 O 0.91176 0.82123 0.56283 0.0
H84 H 0.03677 0.64429 0.57775 0.0
H85 H 0.0573 0.78637 0.55702 0.0
H86 H 0.11082 0.76651 0.57194 0.0
H87 H 0.10072 0.69497 0.58242 0.0
H88 H 0.98381 0.66573 0.56284 0.0
H89 H 0.11911 0.71477 0.52699 0.0
H90 H 0.11771 0.7874 0.51668 0.0
O91 O 0.97537 0.80736 0.5532 0.0
C92 C 0.88987 0.77667 0.53606 0.0
C93 C 0.05555 0.8094 0.52417 0.0
C94 C 0.09179 0.73848 0.52825 0.0
N95 N 0.02255 0.75841 0.53737 0.0
C96 C 0.02137 0.79831 0.53169 0.0
C97 C 0.05702 0.72851 0.5357 0.0
C98 C 0.09099 0.77924 0.52247 0.0
C99 C 0.84684 0.67469 0.56459 0.0
N100 N 0.8356 0.71379 0.55924 0.0
C101 C 0.82095 0.63575 0.56318 0.0
C102 C 0.7833 0.63705 0.55626 0.0
C103 C 0.77203 0.67708 0.55084 0.0
C104 C 0.79877 0.71533 0.55242 0.0
C105 C 0.75232 0.81649 0.57433 0.0
C106 C 0.81599 0.84431 0.55896 0.0
C107 C 0.78997 0.78989 0.5719 0.0
N108 N 0.82106 0.80382 0.56425 0.0
C109 C 0.77878 0.87181 0.56118 0.0
C110 C 0.74675 0.8577 0.56891 0.0
C111 C 0.95018 0.83298 0.55904 0.0
C112 C 0.04157 0.67553 0.57324 0.0
C113 C 0.05257 0.75533 0.56158 0.0
C114 C 0.08306 0.74417 0.56999 0.0
C115 C 0.0774 0.704 0.57586 0.0
N116 N 0.01748 0.72726 0.55906 0.0
C117 C 0.01179 0.68776 0.56476 0.0
Co118 Co 0.21963 0.36494 0.81375 0.0
Co119 Co 0.24283 0.46201 0.79925 0.0
O120 O 0.25485 0.41974 0.81133 0.0
C121 C 0.21632 0.41209 0.83523 0.0
O122 O 0.20506 0.44823 0.82956 0.0
C123 C 0.33977 0.44346 0.79716 0.0
O124 O 0.33034 0.4002 0.79764 0.0
O125 O 0.24606 0.41245 0.78822 0.0
O126 O 0.21465 0.35408 0.7973 0.0
H127 H 0.1682 0.51485 0.76407 0.0
H128 H 0.30736 0.37608 0.82522 0.0
O129 O 0.22374 0.37495 0.8302 0.0
H130 H 0.32344 0.23818 0.8026 0.0
H131 H 0.18145 0.22012 0.83349 0.0
H132 H 0.13822 0.32477 0.80343 0.0
H133 H 0.25191 0.28074 0.80268 0.0
H134 H 0.22582 0.28907 0.82994 0.0
O135 O 0.3085 0.47268 0.79765 0.0
H136 H 0.18251 0.46232 0.77958 0.0
H137 H 0.28059 0.55166 0.79289 0.0
H138 H 0.09313 0.25601 0.80662 0.0
H139 H 0.37939 0.33435 0.82545 0.0
H140 H 0.1147 0.20314 0.82174 0.0
H141 H 0.38779 0.26493 0.81405 0.0
O142 O 0.16243 0.4 0.8135 0.0
H143 H 0.29558 0.55082 0.83238 0.0
H144 H 0.17744 0.53654 0.80374 0.0
H145 H 0.1714 0.59655 0.81787 0.0
H146 H 0.23078 0.60401 0.83232 0.0
H147 H 0.30006 0.49097 0.81817 0.0
H148 H 0.26757 0.60502 0.77747 0.0
H149 H 0.21089 0.58681 0.76295 0.0
O150 O 0.17682 0.45274 0.80057 0.0
C151 C 0.22903 0.37296 0.78842 0.0
C152 C 0.19286 0.52325 0.77037 0.0
C153 C 0.24868 0.57383 0.77788 0.0
N154 N 0.23203 0.5041 0.78719 0.0
C155 C 0.20101 0.4937 0.77919 0.0
C156 C 0.25595 0.54345 0.78658 0.0
C157 C 0.21686 0.56359 0.76974 0.0
C158 C 0.31064 0.34567 0.82032 0.0
N159 N 0.27543 0.33075 0.81399 0.0
C160 C 0.35156 0.32229 0.82045 0.0
C161 C 0.35627 0.28337 0.81404 0.0
C162 C 0.32019 0.26837 0.8076 0.0
C163 C 0.2798 0.29266 0.80767 0.0
C164 C 0.17177 0.24284 0.82686 0.0
C165 C 0.14796 0.30176 0.80998 0.0
C166 C 0.19671 0.28197 0.82483 0.0
N167 N 0.18482 0.31066 0.81643 0.0
C168 C 0.12224 0.26296 0.81177 0.0
C169 C 0.13433 0.23333 0.82026 0.0
C170 C 0.15012 0.43157 0.80699 0.0
C171 C 0.26957 0.54801 0.82611 0.0
C172 C 0.20337 0.53947 0.81002 0.0
C173 C 0.19982 0.5736 0.81798 0.0
C174 C 0.23317 0.57779 0.82608 0.0
N175 N 0.23918 0.51037 0.8101 0.0
C176 C 0.27204 0.51432 0.818 0.0
Co177 Co 0.62453 0.72239 0.06221 0.0
Co178 Co 0.52227 0.74617 0.04968 0.0
O179 O 0.57095 0.75975 0.06004 0.0
C180 C 0.58191 0.726 0.08422 0.0
O181 O 0.54419 0.71649 0.07903 0.0
C182 C 0.52153 0.83114 0.03658 0.0
O183 O 0.53081 0.80783 0.02758 0.0
O184 O 0.56666 0.73571 0.03747 0.0
O185 O 0.63087 0.71344 0.04582 0.0
H186 H 0.44543 0.65887 0.0193 0.0
H187 H 0.61973 0.81282 0.07271 0.0
O188 O 0.61846 0.73015 0.07873 0.0
H189 H 0.75278 0.81781 0.04812 0.0
H190 H 0.77189 0.68204 0.08046 0.0
H191 H 0.65907 0.63712 0.05245 0.0
H192 H 0.70692 0.74862 0.04956 0.0
H193 H 0.70413 0.72865 0.07724 0.0
O194 O 0.51891 0.81185 0.04601 0.0
H195 H 0.50609 0.6755 0.03272 0.0
H196 H 0.43441 0.79054 0.04424 0.0
H197 H 0.72649 0.58971 0.05533 0.0
H198 H 0.66488 0.88261 0.0716 0.0
H199 H 0.78348 0.61211 0.06942 0.0
H200 H 0.73191 0.88538 0.05922 0.0
O201 O 0.58782 0.6664 0.0631 0.0
H202 H 0.4581 0.82899 0.08256 0.0
H203 H 0.44204 0.69608 0.05824 0.0
H204 H 0.38923 0.7066 0.07386 0.0
H205 H 0.39706 0.77351 0.08615 0.0
H206 H 0.51052 0.81683 0.06693 0.0
H207 H 0.37308 0.7753 0.03091 0.0
H208 H 0.37834 0.70898 0.01833 0.0
O209 O 0.52444 0.68078 0.05346 0.0
C210 C 0.60701 0.72062 0.03716 0.0
C211 C 0.44271 0.68782 0.02475 0.0
C212 C 0.40212 0.75318 0.03126 0.0
N213 N 0.47371 0.73383 0.03929 0.0
C214 C 0.47691 0.69736 0.03238 0.0
C215 C 0.43697 0.76167 0.03878 0.0
C216 C 0.40509 0.71597 0.02421 0.0
C217 C 0.64902 0.81371 0.06736 0.0
N218 N 0.66083 0.77666 0.06126 0.0
C219 C 0.67437 0.85335 0.06674 0.0
C220 C 0.71196 0.8549 0.05979 0.0
C221 C 0.72367 0.817 0.05355 0.0
C222 C 0.69751 0.77797 0.05438 0.0
C223 C 0.74736 0.67199 0.07427 0.0
C224 C 0.68389 0.64725 0.05854 0.0
C225 C 0.70891 0.6982 0.07243 0.0
N226 N 0.67793 0.68583 0.06459 0.0
C227 C 0.72191 0.6202 0.06016 0.0
C228 C 0.75385 0.63276 0.06808 0.0
C229 C 0.55022 0.65436 0.05891 0.0
C230 C 0.4543 0.79973 0.07726 0.0
C231 C 0.44587 0.72507 0.06359 0.0
C232 C 0.41573 0.73098 0.07239 0.0
C233 C 0.42011 0.76855 0.07928 0.0
N234 N 0.47939 0.75573 0.06166 0.0
C235 C 0.48378 0.79275 0.06836 0.0
Co236 Co 0.2621 0.38774 0.94003 0.0
Co237 Co 0.24696 0.49029 0.95328 0.0
O238 O 0.22776 0.4426 0.94313 0.0
C239 C 0.25061 0.43024 0.91809 0.0
O240 O 0.26186 0.46841 0.92288 0.0
C241 C 0.1581 0.46239 0.96177 0.0
O242 O 0.17217 0.42045 0.96111 0.0
O243 O 0.26219 0.44542 0.96508 0.0
O244 O 0.27708 0.3805 0.95609 0.0
H245 H 0.35096 0.56513 0.9806 0.0
H246 H 0.16826 0.39638 0.93182 0.0
O247 O 0.24824 0.39411 0.9238 0.0
H248 H 0.1675 0.26368 0.95657 0.0
H249 H 0.28959 0.23902 0.92095 0.0
H250 H 0.34961 0.35022 0.94761 0.0
H251 H 0.23784 0.30591 0.95318 0.0
H252 H 0.24692 0.30836 0.92528 0.0
O253 O 0.18426 0.4947 0.95916 0.0
H254 H 0.32674 0.5053 0.96765 0.0
H255 H 0.20596 0.57717 0.96074 0.0
H256 H 0.39323 0.28118 0.94359 0.0
H257 H 0.09719 0.35498 0.93492 0.0
H258 H 0.36322 0.225 0.93017 0.0
H259 H 0.09652 0.28819 0.9474 0.0
O260 O 0.31868 0.42268 0.93781 0.0
H261 H 0.14952 0.55801 0.92344 0.0
H262 H 0.29373 0.57035 0.94359 0.0
H263 H 0.27634 0.62456 0.92863 0.0
H264 H 0.20372 0.61859 0.91844 0.0
H265 H 0.16854 0.50423 0.93837 0.0
H266 H 0.22867 0.63759 0.97369 0.0
H267 H 0.30174 0.63187 0.98369 0.0
O268 O 0.30974 0.48709 0.94747 0.0
C269 C 0.275 0.40426 0.96492 0.0
C270 C 0.3191 0.56808 0.97627 0.0
C271 C 0.25044 0.60871 0.9724 0.0
N272 N 0.26516 0.53791 0.96339 0.0
C273 C 0.30528 0.53437 0.9689 0.0
C274 C 0.23771 0.57434 0.9651 0.0
C275 C 0.29145 0.60549 0.978 0.0
C276 C 0.1683 0.36707 0.93717 0.0
N277 N 0.20718 0.35341 0.94226 0.0
C278 C 0.12793 0.34388 0.93893 0.0
C279 C 0.12757 0.30645 0.94595 0.0
C280 C 0.16738 0.2927 0.9511 0.0
C281 C 0.20709 0.31677 0.94916 0.0
C282 C 0.30297 0.26319 0.92683 0.0
C283 C 0.3362 0.32577 0.94182 0.0
C284 C 0.27901 0.30254 0.9293 0.0
N285 N 0.29559 0.33308 0.93676 0.0
C286 C 0.36111 0.28682 0.93955 0.0
C287 C 0.34428 0.25534 0.93201 0.0
C288 C 0.3331 0.46039 0.94147 0.0
C289 C 0.18125 0.56098 0.92782 0.0
C290 C 0.26224 0.56736 0.93915 0.0
C291 C 0.25247 0.59826 0.93071 0.0
C292 C 0.21171 0.59493 0.92501 0.0
N293 N 0.23226 0.5341 0.94184 0.0
C294 C 0.19215 0.53073 0.93631 0.0
Co295 Co 0.61899 0.76135 0.18932 0.0
Co296 Co 0.51554 0.74557 0.20211 0.0
O297 O 0.56368 0.72709 0.19199 0.0
C298 C 0.5759 0.75504 0.16736 0.0
O299 O 0.53813 0.76543 0.17244 0.0
C300 C 0.54277 0.65619 0.21042 0.0
O301 O 0.58491 0.66946 0.20971 0.0
O302 O 0.5599 0.75978 0.21407 0.0
O303 O 0.62634 0.77248 0.20559 0.0
H304 H 0.43996 0.84778 0.22977 0.0
H305 H 0.60903 0.66952 0.17986 0.0
O306 O 0.61232 0.75119 0.1729 0.0
H307 H 0.74182 0.66135 0.20446 0.0
H308 H 0.76782 0.79091 0.17055 0.0
H309 H 0.65791 0.84623 0.19816 0.0
H310 H 0.70044 0.73296 0.20209 0.0
H311 H 0.69791 0.74841 0.1743 0.0
O312 O 0.51086 0.68272 0.20776 0.0
H313 H 0.50012 0.82435 0.21681 0.0
H314 H 0.42833 0.70429 0.20919 0.0
H315 H 0.72754 0.88961 0.19474 0.0
H316 H 0.64958 0.59726 0.18194 0.0
H317 H 0.78306 0.86196 0.18084 0.0
H318 H 0.71643 0.59285 0.19434 0.0
O319 O 0.58499 0.81905 0.18783 0.0
H320 H 0.44981 0.65034 0.1716 0.0
H321 H 0.43537 0.79264 0.19254 0.0
H322 H 0.38203 0.77631 0.17733 0.0
H323 H 0.38908 0.70466 0.16675 0.0
H324 H 0.5027 0.66832 0.18678 0.0
H325 H 0.36758 0.72622 0.22213 0.0
H326 H 0.3731 0.79853 0.23249 0.0
O327 O 0.5188 0.80852 0.19658 0.0
C328 C 0.60162 0.77039 0.21426 0.0
C329 C 0.4371 0.81626 0.22528 0.0
C330 C 0.39651 0.748 0.221 0.0
N331 N 0.46757 0.76319 0.21219 0.0
C332 C 0.47099 0.80288 0.21791 0.0
C333 C 0.43107 0.7357 0.21371 0.0
C334 C 0.39962 0.78859 0.22681 0.0
C335 C 0.63834 0.66794 0.18519 0.0
N336 N 0.65251 0.70544 0.19079 0.0
C337 C 0.66106 0.6269 0.18637 0.0
C338 C 0.69852 0.62444 0.19334 0.0
C339 C 0.71278 0.66286 0.19902 0.0
C340 C 0.68917 0.70329 0.19766 0.0
C341 C 0.74393 0.80325 0.17664 0.0
C342 C 0.68206 0.83385 0.19216 0.0
C343 C 0.70426 0.77939 0.17878 0.0
N344 N 0.67408 0.79467 0.18651 0.0
C345 C 0.72135 0.85862 0.19023 0.0
C346 C 0.75247 0.84311 0.18242 0.0
C347 C 0.54651 0.83281 0.19115 0.0
C348 C 0.44639 0.68167 0.17615 0.0
C349 C 0.43884 0.76161 0.18792 0.0
C350 C 0.40842 0.75242 0.17935 0.0
C351 C 0.41236 0.71219 0.17342 0.0
N352 N 0.47224 0.7316 0.19052 0.0
C353 C 0.47615 0.69198 0.18478 0.0
Co354 Co 0.22673 0.11953 0.43911 0.0
Co355 Co 0.24401 0.01621 0.45185 0.0
O356 O 0.26201 0.06484 0.44183 0.0
C357 C 0.23664 0.07827 0.41699 0.0
O358 O 0.22604 0.03993 0.42179 0.0
C359 C 0.33373 0.04336 0.46007 0.0
O360 O 0.32018 0.08552 0.45959 0.0
O361 O 0.22958 0.06017 0.46391 0.0
O362 O 0.21304 0.12556 0.4553 0.0
H363 H 0.14293 0.93904 0.47946 0.0
H364 H 0.31992 0.11256 0.43035 0.0
O365 O 0.23928 0.11426 0.42276 0.0
H366 H 0.32122 0.24378 0.45557 0.0
H367 H 0.19589 0.26903 0.42072 0.0
H368 H 0.13954 0.15563 0.44732 0.0
H369 H 0.25116 0.20076 0.45245 0.0
H370 H 0.2397 0.19992 0.42456 0.0
O371 O 0.30713 0.01153 0.4574 0.0
H372 H 0.16568 -0.00015 0.46662 0.0
H373 H 0.28594 0.92886 0.45866 0.0
H374 H 0.09481 0.22441 0.4438 0.0
H375 H 0.39068 0.15478 0.43318 0.0
H376 H 0.12298 0.28169 0.43041 0.0
H377 H 0.39163 0.22084 0.44589 0.0
O378 O 0.17032 0.08417 0.43704 0.0
H379 H 0.33916 0.95166 0.42113 0.0
H380 H 0.19708 0.93636 0.44209 0.0
H381 H 0.21349 0.88351 0.42677 0.0
H382 H 0.28503 0.89098 0.41617 0.0
H383 H 0.32111 0.00406 0.43644 0.0
H384 H 0.26469 0.86748 0.47148 0.0
H385 H 0.19262 0.87226 0.48196 0.0
O386 O 0.18078 0.01932 0.44641 0.0
C387 C 0.21629 0.10119 0.46401 0.0
C388 C 0.17435 0.9365 0.47492 0.0
C389 C 0.24272 0.89637 0.47046 0.0
N390 N 0.22692 0.96774 0.46184 0.0
C391 C 0.18734 0.97076 0.46762 0.0
C392 C 0.25463 0.93129 0.46323 0.0
C393 C 0.20227 0.89907 0.47632 0.0
C394 C 0.31999 0.14153 0.43581 0.0
N395 N 0.28143 0.15435 0.44117 0.0
C396 C 0.36019 0.16519 0.43742 0.0
C397 C 0.36071 0.20221 0.44456 0.0
C398 C 0.32122 0.21509 0.45 0.0
C399 C 0.28168 0.19056 0.44821 0.0
C400 C 0.18332 0.24437 0.42659 0.0
C401 C 0.15215 0.18056 0.44154 0.0
C402 C 0.20793 0.20515 0.42878 0.0
N403 N 0.19236 0.174 0.43623 0.0
C404 C 0.12662 0.21936 0.43956 0.0
C405 C 0.14242 0.25146 0.43203 0.0
C406 C 0.15662 0.04608 0.44063 0.0
C407 C 0.30789 0.94804 0.42569 0.0
C408 C 0.22808 0.94001 0.43747 0.0
C409 C 0.23731 0.90986 0.42883 0.0
C410 C 0.27748 0.91404 0.4229 0.0
N411 N 0.258 0.97335 0.44014 0.0
C412 C 0.29755 0.97752 0.43439 0.0
Co413 Co 0.86306 0.71726 0.68753 0.0
Co414 Co 0.96085 0.73984 0.70174 0.0
O415 O 0.91812 0.75221 0.68979 0.0
C416 C 0.90893 0.71429 0.66585 0.0
O417 O 0.94526 0.70248 0.67137 0.0
C418 C 0.94303 0.83687 0.70402 0.0
O419 O 0.89975 0.82761 0.7037 0.0
O420 O 0.9119 0.74339 0.71293 0.0
O421 O 0.85304 0.71209 0.70404 0.0
H422 H 0.01491 0.66454 0.73673 0.0
H423 H 0.87403 0.80525 0.67612 0.0
O424 O 0.87216 0.7217 0.67104 0.0
H425 H 0.73753 0.82157 0.69922 0.0
H426 H 0.71708 0.68011 0.66826 0.0
H427 H 0.82305 0.63587 0.69793 0.0
H428 H 0.77966 0.74976 0.69891 0.0
H429 H 0.7864 0.72408 0.6716 0.0
O430 O 0.97207 0.80548 0.70333 0.0
H431 H 0.96173 0.67936 0.7214 0.0
H432 H 0.051 0.77696 0.70783 0.0
H433 H 0.75393 0.59116 0.69495 0.0
H434 H 0.83271 0.87756 0.67612 0.0
H435 H 0.70039 0.61324 0.68002 0.0
H436 H 0.76399 0.88607 0.68776 0.0
O437 O 0.89784 0.65979 0.68762 0.0
H438 H 0.04833 0.79207 0.66834 0.0
H439 H 0.03454 0.67381 0.697 0.0
H440 H 0.09373 0.66735 0.68268 0.0
H441 H 0.10093 0.72679 0.66822 0.0
H442 H 0.98931 0.79698 0.68275 0.0
H443 H 0.10503 0.76344 0.72307 0.0
H444 H 0.08718 0.70674 0.73763 0.0
O445 O 0.95097 0.67388 0.70047 0.0
C446 C 0.87237 0.72649 0.71286 0.0
C447 C 0.02315 0.68921 0.73041 0.0
C448 C 0.0737 0.74476 0.72275 0.0
N449 N 0.00344 0.72867 0.71367 0.0
C450 C 0.99323 0.69764 0.72169 0.0
C451 C 0.04295 0.75232 0.71416 0.0
C452 C 0.06367 0.71293 0.73092 0.0
C453 C 0.84392 0.80858 0.68113 0.0
N454 N 0.82916 0.77328 0.68746 0.0
C455 C 0.82077 0.84965 0.68113 0.0
C456 C 0.78225 0.85443 0.68767 0.0
C457 C 0.7674 0.81826 0.69411 0.0
C458 C 0.79146 0.77771 0.69392 0.0
C459 C 0.7401 0.67021 0.67481 0.0
C460 C 0.79976 0.64583 0.69147 0.0
C461 C 0.77944 0.69491 0.67672 0.0
N462 N 0.80851 0.68274 0.68501 0.0
C463 C 0.76075 0.62032 0.68979 0.0
C464 C 0.73075 0.6327 0.68141 0.0
C465 C 0.92939 0.64728 0.69411 0.0
C466 C 0.04563 0.76604 0.67462 0.0
C467 C 0.03737 0.69977 0.69072 0.0
C468 C 0.07103 0.69597 0.68265 0.0
C469 C 0.07508 0.72936 0.67455 0.0
N470 N 0.00859 0.73585 0.69074 0.0
C471 C 0.01241 0.76875 0.68283 0.0
Co472 Co 0.77631 0.63871 0.81286 0.0
Co473 Co 0.75295 0.54099 0.79869 0.0
O474 O 0.74092 0.58391 0.81062 0.0
C475 C 0.77875 0.59292 0.83453 0.0
O476 O 0.79033 0.55652 0.829 0.0
C477 C 0.65598 0.55924 0.79659 0.0
O478 O 0.66538 0.60253 0.79689 0.0
O479 O 0.74955 0.58993 0.7875 0.0
O480 O 0.7818 0.64843 0.79634 0.0
H481 H 0.82753 0.48628 0.76365 0.0
H482 H 0.68822 0.62877 0.82425 0.0
O483 O 0.77164 0.6298 0.82936 0.0
H484 H 0.67343 0.76521 0.80104 0.0
H485 H 0.8147 0.78462 0.83207 0.0
H486 H 0.85816 0.67782 0.80248 0.0
H487 H 0.74474 0.7223 0.8014 0.0
H488 H 0.77009 0.71566 0.82874 0.0
O489 O 0.6873 0.53009 0.79717 0.0
H490 H 0.81319 0.53966 0.77899 0.0
H491 H 0.71531 0.45094 0.79264 0.0
H492 H 0.90349 0.74657 0.80546 0.0
H493 H 0.61641 0.67088 0.8242 0.0
H494 H 0.88181 0.80052 0.82034 0.0
H495 H 0.60866 0.73957 0.81252 0.0
O496 O 0.83334 0.60335 0.81281 0.0
H497 H 0.70068 0.45388 0.83214 0.0
H498 H 0.81857 0.46689 0.80339 0.0
H499 H 0.82488 0.40769 0.81771 0.0
H500 H 0.76562 0.40087 0.83222 0.0
H501 H 0.69593 0.51292 0.81773 0.0
H502 H 0.72835 0.39672 0.77741 0.0
H503 H 0.78494 0.41419 0.7628 0.0
O504 O 0.81896 0.5505 0.79991 0.0
C505 C 0.76715 0.62918 0.78753 0.0
C506 C 0.8029 0.4782 0.76999 0.0
C507 C 0.74719 0.42797 0.7777 0.0
N508 N 0.76376 0.49824 0.78676 0.0
C509 C 0.79473 0.50824 0.77871 0.0
C510 C 0.7399 0.45883 0.7863 0.0
C511 C 0.77896 0.43779 0.76951 0.0
C512 C 0.68523 0.65887 0.81922 0.0
N513 N 0.72068 0.67318 0.81288 0.0
C514 C 0.64443 0.68247 0.81919 0.0
C515 C 0.64009 0.72096 0.81262 0.0
C516 C 0.67641 0.73535 0.80618 0.0
C517 C 0.71666 0.71086 0.80639 0.0
C518 C 0.82442 0.76142 0.82554 0.0
C519 C 0.84836 0.70131 0.80893 0.0
C520 C 0.79936 0.72229 0.82363 0.0
N521 N 0.81131 0.69299 0.81536 0.0
C522 C 0.87423 0.7401 0.81059 0.0
C523 C 0.86207 0.77033 0.81896 0.0
C524 C 0.84565 0.57172 0.80632 0.0
C525 C 0.72663 0.45641 0.82584 0.0
C526 C 0.7927 0.46424 0.80969 0.0
C527 C 0.7964 0.43057 0.81776 0.0
C528 C 0.76312 0.42673 0.82589 0.0
N529 N 0.75681 0.49325 0.80969 0.0
C530 C 0.72401 0.48963 0.81763 0.0
Co531 Co 0.37634 0.26646 0.06162 0.0
Co532 Co 0.47633 0.2438 0.0478 0.0
O533 O 0.42878 0.22862 0.0584 0.0
C534 C 0.42155 0.25625 0.08327 0.0
O535 O 0.45937 0.26454 0.07797 0.0
C536 C 0.44127 0.15615 0.04021 0.0
O537 O 0.40053 0.17223 0.04182 0.0
O538 O 0.43126 0.26129 0.03629 0.0
O539 O 0.36764 0.27944 0.04547 0.0
H540 H 0.55443 0.34076 0.01945 0.0
H541 H 0.38088 0.1737 0.07079 0.0
O542 O 0.38443 0.25485 0.07794 0.0
H543 H 0.24506 0.1763 0.04714 0.0
H544 H 0.23241 0.30513 0.08169 0.0
H545 H 0.34245 0.3547 0.05348 0.0
H546 H 0.29166 0.24463 0.04938 0.0
H547 H 0.29863 0.25803 0.0772 0.0
O548 O 0.47571 0.18057 0.04207 0.0
H549 H 0.49484 0.32151 0.03296 0.0
H550 H 0.5592 0.19652 0.03988 0.0
H551 H 0.27654 0.40267 0.05764 0.0
H552 H 0.3351 0.10465 0.06883 0.0
H553 H 0.22095 0.37793 0.07184 0.0
H554 H 0.26671 0.10567 0.05691 0.0
O555 O 0.41447 0.32137 0.06295 0.0
H556 H 0.54121 0.14376 0.0775 0.0
H557 H 0.56013 0.28602 0.05676 0.0
H558 H 0.61488 0.26595 0.07138 0.0
H559 H 0.6056 0.19432 0.08186 0.0
H560 H 0.48701 0.16539 0.06289 0.0
H561 H 0.61928 0.21423 0.02638 0.0
H562 H 0.61722 0.2869 0.01609 0.0
O563 O 0.47801 0.30709 0.05333 0.0
C564 C 0.39076 0.27589 0.03656 0.0
C565 C 0.55578 0.30906 0.0239 0.0
C566 C 0.59214 0.23801 0.02778 0.0
N567 N 0.52375 0.25812 0.03726 0.0
C568 C 0.52221 0.29804 0.03159 0.0
C569 C 0.55798 0.22812 0.0354 0.0
C570 C 0.59097 0.2788 0.02202 0.0
C571 C 0.35091 0.1745 0.06568 0.0
N572 N 0.3388 0.21318 0.06026 0.0
C573 C 0.32523 0.13527 0.06457 0.0
C574 C 0.2869 0.13584 0.05786 0.0
C575 C 0.27475 0.17545 0.05237 0.0
C576 C 0.3013 0.21401 0.05366 0.0
C577 C 0.25633 0.31622 0.07547 0.0
C578 C 0.31823 0.34356 0.05961 0.0
C579 C 0.29392 0.28974 0.0729 0.0
N580 N 0.32412 0.30343 0.06501 0.0
C581 C 0.28106 0.37094 0.06196 0.0
C582 C 0.24992 0.35706 0.06994 0.0
C583 C 0.45284 0.33296 0.0591 0.0
C584 C 0.54565 0.17503 0.07298 0.0
C585 C 0.55576 0.25493 0.06132 0.0
C586 C 0.58694 0.24365 0.06956 0.0
C587 C 0.58174 0.20344 0.07543 0.0
N588 N 0.52043 0.22691 0.05896 0.0
C589 C 0.51517 0.18737 0.06467 0.0
Co590 Co 0.72199 0.86899 0.31235 0.0
Co591 Co 0.74448 0.96509 0.29745 0.0
O592 O 0.75807 0.9229 0.30945 0.0
C593 C 0.72412 0.91612 0.33382 0.0
O594 O 0.71287 0.95245 0.32822 0.0
C595 C 0.84097 0.94595 0.29431 0.0
O596 O 0.83167 0.9027 0.29497 0.0
O597 O 0.7452 0.9152 0.28648 0.0
O598 O 0.71274 0.8585 0.29597 0.0
H599 H 0.66448 0.01784 0.26298 0.0
H600 H 0.81235 0.87763 0.32264 0.0
O601 O 0.72993 0.87879 0.32874 0.0
H602 H 0.81983 0.7398 0.29972 0.0
H603 H 0.68482 0.72495 0.33254 0.0
H604 H 0.63709 0.83119 0.30325 0.0
H605 H 0.74957 0.78424 0.30079 0.0
H606 H 0.73006 0.79274 0.32838 0.0
O607 O 0.80984 0.97518 0.29513 0.0
H608 H 0.68096 0.9655 0.2784 0.0
H609 H 0.7818 0.05435 0.2906 0.0
H610 H 0.59104 0.76362 0.30706 0.0
H611 H 0.8832 0.83401 0.32188 0.0
H612 H 0.61486 0.70994 0.32181 0.0
H613 H 0.88726 0.76461 0.31033 0.0
O614 O 0.66574 0.90547 0.31286 0.0
H615 H 0.80392 0.05413 0.32984 0.0
H616 H 0.68065 0.04037 0.30254 0.0
H617 H 0.67771 0.10074 0.31663 0.0
H618 H 0.73968 0.10794 0.33041 0.0
H619 H 0.80528 0.99391 0.31569 0.0
H620 H 0.76664 0.10752 0.27526 0.0
H621 H 0.70747 0.08946 0.26134 0.0
O622 O 0.67871 0.95654 0.29945 0.0
C623 C 0.72603 0.87673 0.2869 0.0
C624 C 0.69023 0.02617 0.26902 0.0
C625 C 0.7476 0.07647 0.2759 0.0
N626 N 0.73201 0.00704 0.28545 0.0
C627 C 0.69962 0.99672 0.27778 0.0
C628 C 0.75609 0.0462 0.28456 0.0
C629 C 0.7144 0.06632 0.2681 0.0
C630 C 0.81376 0.84725 0.31768 0.0
N631 N 0.77684 0.83338 0.31181 0.0
C632 C 0.85401 0.82278 0.31725 0.0
C633 C 0.85628 0.78389 0.31075 0.0
C634 C 0.81847 0.76996 0.30479 0.0
C635 C 0.77881 0.79532 0.30541 0.0
C636 C 0.67415 0.74802 0.32608 0.0
C637 C 0.64783 0.80781 0.30962 0.0
C638 C 0.69958 0.78649 0.3237 0.0
N639 N 0.68644 0.81561 0.3155 0.0
C640 C 0.62155 0.76969 0.31177 0.0
C641 C 0.63491 0.73961 0.32005 0.0
C642 C 0.65282 0.93653 0.30628 0.0
C643 C 0.77679 0.05143 0.32386 0.0
C644 C 0.7077 0.04317 0.30852 0.0
C645 C 0.7059 0.07751 0.31647 0.0
C646 C 0.7407 0.08156 0.32419 0.0
N647 N 0.74321 0.01372 0.30826 0.0
C648 C 0.77749 0.01754 0.31579 0.0
Co649 Co 0.12326 0.22166 0.56244 0.0
Co650 Co 0.02166 0.24579 0.54968 0.0
O651 O 0.07012 0.25944 0.5601 0.0
C652 C 0.08136 0.22838 0.58452 0.0
O653 O 0.04326 0.21834 0.57956 0.0
C654 C 0.02152 0.3309 0.53658 0.0
O655 O 0.03135 0.30772 0.5276 0.0
O656 O 0.06635 0.23519 0.53753 0.0
O657 O 0.12934 0.21106 0.54611 0.0
H658 H 0.94535 0.15823 0.51927 0.0
H659 H 0.11971 0.31326 0.57235 0.0
O660 O 0.11765 0.2313 0.57889 0.0
H661 H 0.25271 0.31384 0.54771 0.0
H662 H 0.27035 0.18111 0.5808 0.0
H663 H 0.15654 0.13504 0.55315 0.0
H664 H 0.20594 0.24545 0.5496 0.0
H665 H 0.20319 0.22831 0.57736 0.0
O666 O 0.0184 0.31148 0.546 0.0
H667 H 0.00574 0.17493 0.53276 0.0
H668 H 0.93404 0.29027 0.54408 0.0
H669 H 0.22336 0.08702 0.55625 0.0
H670 H 0.16578 0.38229 0.57077 0.0
H671 H 0.28084 0.10999 0.57016 0.0
H672 H 0.23279 0.38285 0.55837 0.0
O673 O 0.08574 0.16631 0.56369 0.0
H674 H 0.9569 0.32888 0.58246 0.0
H675 H 0.94112 0.19591 0.55814 0.0
H676 H 0.88799 0.20659 0.57369 0.0
H677 H 0.89567 0.27353 0.58598 0.0
H678 H 0.00963 0.31656 0.5669 0.0
H679 H 0.873 0.27498 0.53068 0.0
H680 H 0.8784 0.20847 0.51817 0.0
O681 O 0.02367 0.18035 0.55352 0.0
C682 C 0.10623 0.21886 0.53737 0.0
C683 C 0.94257 0.18726 0.52469 0.0
C684 C 0.90198 0.2528 0.53109 0.0
N685 N 0.97333 0.23341 0.53923 0.0
C686 C 0.97662 0.19684 0.53236 0.0
C687 C 0.93667 0.26133 0.53865 0.0
C688 C 0.90503 0.21548 0.52407 0.0
C689 C 0.14899 0.31319 0.56699 0.0
N690 N 0.16028 0.27533 0.56113 0.0
C691 C 0.17487 0.3524 0.5661 0.0
C692 C 0.21244 0.3527 0.55913 0.0
C693 C 0.22362 0.314 0.55314 0.0
C694 C 0.19694 0.27542 0.55423 0.0
C695 C 0.2456 0.17079 0.5747 0.0
C696 C 0.18157 0.14541 0.55916 0.0
C697 C 0.20747 0.19733 0.57273 0.0
N698 N 0.17621 0.18463 0.56499 0.0
C699 C 0.21926 0.11801 0.56091 0.0
C700 C 0.25147 0.1309 0.56872 0.0
C701 C 0.04857 0.15418 0.55928 0.0
C702 C 0.95317 0.2996 0.57716 0.0
C703 C 0.9449 0.2249 0.56349 0.0
C704 C 0.91457 0.23091 0.57226 0.0
C705 C 0.91887 0.2685 0.57914 0.0
N706 N 0.97852 0.25548 0.56161 0.0
C707 C 0.98282 0.29253 0.5683 0.0
Co708 Co 0.76403 0.88447 0.43898 0.0
Co709 Co 0.74734 0.98735 0.45199 0.0
O710 O 0.729 0.93916 0.44186 0.0
C711 C 0.75398 0.92627 0.41691 0.0
O712 O 0.76463 0.96458 0.42171 0.0
C713 C 0.6578 0.9599 0.46026 0.0
O714 O 0.67133 0.91777 0.45966 0.0
O715 O 0.76211 0.94292 0.46393 0.0
O716 O 0.77805 0.87784 0.45511 0.0
H717 H 0.84936 0.06338 0.47956 0.0
H718 H 0.67069 0.89202 0.43036 0.0
O719 O 0.7512 0.89027 0.42267 0.0
H720 H 0.66946 0.75999 0.45533 0.0
H721 H 0.79395 0.73545 0.42026 0.0
H722 H 0.85132 0.84785 0.44697 0.0
H723 H 0.73961 0.80286 0.45219 0.0
H724 H 0.75046 0.80457 0.4243 0.0
O725 O 0.68438 0.99184 0.45766 0.0
H726 H 0.82615 0.00309 0.46662 0.0
H727 H 0.70565 0.07441 0.4591 0.0
H728 H 0.89573 0.77905 0.44325 0.0
H729 H 0.59984 0.84995 0.43322 0.0
H730 H 0.86706 0.72226 0.42981 0.0
H731 H 0.59893 0.78349 0.44581 0.0
O732 O 0.8205 0.91975 0.4369 0.0
H733 H 0.65133 0.05325 0.42162 0.0
H734 H 0.79401 0.06759 0.44234 0.0
H735 H 0.77717 0.12113 0.4272 0.0
H736 H 0.70533 0.11415 0.41673 0.0
H737 H 0.66982 0.00014 0.43674 0.0
H738 H 0.72735 0.13528 0.47203 0.0
H739 H 0.79978 0.13006 0.48233 0.0
O740 O 0.81039 0.98436 0.4464 0.0
C741 C 0.77526 0.90185 0.46389 0.0
C742 C 0.81779 0.0661 0.47509 0.0
C743 C 0.74928 0.10642 0.47088 0.0
N744 N 0.76477 0.03539 0.46206 0.0
C745 C 0.80454 0.03214 0.46774 0.0
C746 C 0.73711 0.0718 0.4636 0.0
C747 C 0.78993 0.10349 0.47665 0.0
C748 C 0.67063 0.86287 0.43577 0.0
N749 N 0.70926 0.84975 0.44105 0.0
C750 C 0.63038 0.8393 0.43739 0.0
C751 C 0.62989 0.80205 0.44447 0.0
C752 C 0.66944 0.78886 0.44982 0.0
C753 C 0.70904 0.81331 0.44802 0.0
C754 C 0.80675 0.75988 0.42615 0.0
C755 C 0.83848 0.82314 0.44117 0.0
C756 C 0.78232 0.79911 0.42846 0.0
N757 N 0.79816 0.82999 0.43594 0.0
C758 C 0.86385 0.78432 0.43907 0.0
C759 C 0.84776 0.7525 0.43152 0.0
C760 C 0.83435 0.95772 0.44054 0.0
C761 C 0.68274 0.05665 0.42613 0.0
C762 C 0.76289 0.06414 0.43777 0.0
C763 C 0.75341 0.09468 0.42924 0.0
C764 C 0.71308 0.09078 0.42337 0.0
N765 N 0.73304 0.03069 0.4404 0.0
C766 C 0.69333 0.02677 0.43472 0.0
Co767 Co 0.13706 0.27313 0.68897 0.0
Co768 Co 0.0395 0.24994 0.7032 0.0
O769 O 0.08267 0.23727 0.69135 0.0
C770 C 0.09201 0.27279 0.6672 0.0
O771 O 0.0552 0.28441 0.67255 0.0
C772 C 0.05855 0.1532 0.7058 0.0
O773 O 0.10174 0.16284 0.70545 0.0
O774 O 0.08831 0.24797 0.71443 0.0
O775 O 0.14638 0.28028 0.70544 0.0
H776 H 0.98376 0.32704 0.7378 0.0
H777 H 0.12843 0.18374 0.67812 0.0
O778 O 0.12871 0.26673 0.67251 0.0
H779 H 0.26446 0.17292 0.70155 0.0
H780 H 0.28287 0.3115 0.66974 0.0
H781 H 0.17482 0.35653 0.69889 0.0
H782 H 0.22076 0.24371 0.7007 0.0
H783 H 0.21446 0.2663 0.67325 0.0
O784 O 0.02921 0.18429 0.70507 0.0
H785 H 0.03741 0.31186 0.72257 0.0
H786 H 0.94978 0.21199 0.70938 0.0
H787 H 0.24299 0.40249 0.69574 0.0
H788 H 0.17133 0.1124 0.67866 0.0
H789 H 0.29757 0.38002 0.68107 0.0
H790 H 0.23982 0.10665 0.69047 0.0
O791 O 0.10097 0.32974 0.68862 0.0
H792 H 0.95338 0.19375 0.66999 0.0
H793 H 0.96479 0.31438 0.6981 0.0
H794 H 0.9057 0.31876 0.68372 0.0
H795 H 0.89969 0.25811 0.66954 0.0
H796 H 0.0123 0.19094 0.68445 0.0
H797 H 0.89531 0.22585 0.72452 0.0
H798 H 0.9121 0.28387 0.73883 0.0
O799 O 0.04831 0.31598 0.7016 0.0
C800 C 0.12735 0.26597 0.71431 0.0
C801 C 0.97599 0.30179 0.73159 0.0
C802 C 0.92637 0.24495 0.72414 0.0
N803 N 0.99655 0.26139 0.71504 0.0
C804 C 0.00617 0.29314 0.72292 0.0
C805 C 0.95737 0.2372 0.7156 0.0
C806 C 0.93581 0.27752 0.73217 0.0
C807 C 0.15843 0.18162 0.6832 0.0
N808 N 0.17219 0.21789 0.68933 0.0
C809 C 0.18249 0.14108 0.6835 0.0
C810 C 0.22087 0.13786 0.69014 0.0
C811 C 0.23469 0.17502 0.69637 0.0
C812 C 0.20976 0.21498 0.69588 0.0
C813 C 0.25939 0.32158 0.67617 0.0
C814 C 0.19857 0.3464 0.69255 0.0
C815 C 0.22057 0.29618 0.67818 0.0
N816 N 0.19092 0.30859 0.68633 0.0
C817 C 0.23704 0.37262 0.69078 0.0
C818 C 0.26763 0.36002 0.68254 0.0
C819 C 0.06909 0.34232 0.69501 0.0
C820 C 0.95557 0.2203 0.67615 0.0
C821 C 0.96249 0.28791 0.69194 0.0
C822 C 0.92888 0.29052 0.68384 0.0
C823 C 0.9255 0.25647 0.67589 0.0
N824 N 0.99188 0.25234 0.69214 0.0
C825 C 0.98872 0.21878 0.68439 0.0
Co826 Co 0.7276 0.61647 0.93944 0.0
Co827 Co 0.74373 0.51269 0.95204 0.0
O828 O 0.76227 0.56141 0.94212 0.0
C829 C 0.73787 0.57549 0.91729 0.0
O830 O 0.72675 0.53711 0.92199 0.0
C831 C 0.83283 0.5399 0.96052 0.0
O832 O 0.81881 0.58191 0.96008 0.0
O833 O 0.72909 0.55643 0.96413 0.0
O834 O 0.71374 0.62236 0.95563 0.0
H835 H 0.6414 0.43518 0.97931 0.0
H836 H 0.82089 0.60865 0.93078 0.0
O837 O 0.74042 0.61135 0.92311 0.0
H838 H 0.82313 0.73937 0.95616 0.0
H839 H 0.69854 0.76654 0.92117 0.0
H840 H 0.64068 0.65333 0.94762 0.0
H841 H 0.75264 0.69724 0.95289 0.0
H842 H 0.74159 0.69694 0.92499 0.0
O843 O 0.80671 0.50786 0.95771 0.0
H844 H 0.6648 0.49623 0.96661 0.0
H845 H 0.78522 0.42517 0.95885 0.0
H846 H 0.59669 0.7226 0.94413 0.0
H847 H 0.89207 0.64997 0.93376 0.0
H848 H 0.62561 0.77979 0.93081 0.0
H849 H 0.89349 0.71577 0.94656 0.0
O850 O 0.67087 0.58169 0.9373 0.0
H851 H 0.83974 0.44808 0.92149 0.0
H852 H 0.6966 0.43348 0.94204 0.0
H853 H 0.71332 0.38078 0.92671 0.0
H854 H 0.78539 0.3879 0.91632 0.0
H855 H 0.8214 0.50034 0.93681 0.0
H856 H 0.76333 0.36354 0.97153 0.0
H857 H 0.69085 0.36824 0.98184 0.0
O858 O 0.68065 0.51626 0.94647 0.0
C859 C 0.71643 0.59763 0.9643 0.0
C860 C 0.673 0.43268 0.97484 0.0
C861 C 0.74146 0.3925 0.97049 0.0
N862 N 0.72614 0.46409 0.96193 0.0
C863 C 0.68635 0.46707 0.96762 0.0
C864 C 0.75373 0.42755 0.96334 0.0
C865 C 0.70078 0.39515 0.97627 0.0
C866 C 0.82116 0.63752 0.93627 0.0
N867 N 0.78263 0.65069 0.9416 0.0
C868 C 0.8616 0.66067 0.93797 0.0
C869 C 0.86239 0.69754 0.94516 0.0
C870 C 0.82292 0.71079 0.95055 0.0
C871 C 0.78313 0.68677 0.94868 0.0
C872 C 0.68563 0.74193 0.92701 0.0
C873 C 0.65362 0.67822 0.94188 0.0
C874 C 0.70982 0.70243 0.92919 0.0
N875 N 0.69383 0.67133 0.93659 0.0
C876 C 0.6285 0.7173 0.9399 0.0
C877 C 0.64472 0.74935 0.93242 0.0
C878 C 0.65679 0.54355 0.94077 0.0
C879 C 0.80825 0.44461 0.92596 0.0
C880 C 0.72786 0.43696 0.93752 0.0
C881 C 0.73724 0.40691 0.92887 0.0
C882 C 0.77771 0.41089 0.92306 0.0
N883 N 0.75792 0.47001 0.94031 0.0
C884 C 0.79774 0.474 0.93467 0.0
Co885 Co 0.38323 0.22557 0.18843 0.0
Co886 Co 0.48599 0.24368 0.20135 0.0
O887 O 0.43814 0.26063 0.19098 0.0
C888 C 0.427 0.22964 0.16649 0.0
O889 O 0.46467 0.21989 0.17169 0.0
C890 C 0.45826 0.33387 0.20904 0.0
O891 O 0.41615 0.32054 0.20831 0.0
O892 O 0.44122 0.23096 0.21331 0.0
O893 O 0.37534 0.21623 0.20477 0.0
H894 H 0.56074 0.14569 0.23003 0.0
H895 H 0.39265 0.31639 0.17837 0.0
O896 O 0.39042 0.23398 0.17196 0.0
H897 H 0.25874 0.32595 0.20259 0.0
H898 H 0.23542 0.19241 0.16956 0.0
H899 H 0.3448 0.14135 0.19777 0.0
H900 H 0.30104 0.25457 0.20084 0.0
H901 H 0.30475 0.23603 0.17317 0.0
O902 O 0.49026 0.30722 0.20651 0.0
H903 H 0.50103 0.16708 0.21675 0.0
H904 H 0.57289 0.28609 0.20821 0.0
H905 H 0.27575 0.09689 0.1945 0.0
H906 H 0.35117 0.38839 0.17982 0.0
H907 H 0.2205 0.12239 0.1803 0.0
H908 H 0.28376 0.39349 0.19202 0.0
O909 O 0.4178 0.16806 0.18738 0.0
H910 H 0.55262 0.33512 0.17024 0.0
H911 H 0.56643 0.19542 0.19224 0.0
H912 H 0.62021 0.2099 0.17702 0.0
H913 H 0.61349 0.28023 0.16589 0.0
H914 H 0.49928 0.31899 0.18547 0.0
H915 H 0.63319 0.2662 0.22147 0.0
H916 H 0.6274 0.19544 0.23245 0.0
O917 O 0.4832 0.18001 0.19634 0.0
C918 C 0.3996 0.21993 0.21349 0.0
C919 C 0.56371 0.17653 0.22527 0.0
C920 C 0.60434 0.24421 0.22047 0.0
N921 N 0.53365 0.2276 0.21166 0.0
C922 C 0.53008 0.18875 0.21771 0.0
C923 C 0.57004 0.25535 0.213 0.0
C924 C 0.60109 0.20449 0.22663 0.0
C925 C 0.36311 0.31827 0.18362 0.0
N926 N 0.34913 0.28129 0.18946 0.0
C927 C 0.33987 0.35916 0.18444 0.0
C928 C 0.30208 0.36201 0.1913 0.0
C929 C 0.28804 0.32414 0.19724 0.0
C930 C 0.31216 0.28384 0.19622 0.0
C931 C 0.25919 0.18101 0.17578 0.0
C932 C 0.32076 0.1528 0.19164 0.0
C933 C 0.29853 0.20551 0.17785 0.0
N934 N 0.32857 0.19142 0.18574 0.0
C935 C 0.28179 0.12742 0.1898 0.0
C936 C 0.25083 0.14173 0.18182 0.0
C937 C 0.45608 0.1549 0.19096 0.0
C938 C 0.55592 0.30436 0.17503 0.0
C939 C 0.56311 0.2259 0.1874 0.0
C940 C 0.59378 0.23404 0.17881 0.0
C941 C 0.59002 0.27353 0.17259 0.0
N942 N 0.52966 0.25622 0.18973 0.0
C943 C 0.52591 0.29512 0.18369 0.0
H944 H 0.86928 0.03269 0.29168 0.0
H945 H 0.1305 0.96956 0.29329 0.0
H946 H 0.91903 0.89596 0.29426 0.0
H947 H 0.08032 0.10654 0.29336 0.0
H948 H 0.05351 0.94198 0.29212 0.0
H949 H 0.94642 0.05987 0.29073 0.0
C950 C 0.89646 0.00827 0.29201 0.0
C951 C 0.88771 0.9619 0.29312 0.0
C952 C 0.05928 0.97806 0.29235 0.0
C953 C 0.97628 0.99306 0.29205 0.0
C954 C 0.10327 0.99394 0.29302 0.0
C955 C 0.11183 0.04053 0.29348 0.0
C956 C 0.02347 0.00892 0.29215 0.0
C957 C 0.07522 0.07038 0.29304 0.0
C958 C 0.94055 0.02392 0.29146 0.0
C959 C 0.92428 0.93196 0.29343 0.0
N960 N 0.03252 0.05402 0.29244 0.0
N961 N 0.9671 0.94812 0.29294 0.0
H962 H 0.88357 0.58542 0.54408 0.0
H963 H 0.04867 0.39394 0.52125 0.0
H964 H 0.01373 0.61764 0.53011 0.0
H965 H 0.963 0.37597 0.54993 0.0
H966 H 0.02535 0.47371 0.52043 0.0
H967 H 0.90094 0.50493 0.54195 0.0
C968 C 0.9154 0.57555 0.54037 0.0
C969 C 0.94744 0.60803 0.53733 0.0
C970 C 0.01166 0.45203 0.52685 0.0
C971 C 0.96724 0.51658 0.53484 0.0
C972 C 0.02488 0.40674 0.52732 0.0
C973 C 0.00811 0.37866 0.53574 0.0
C974 C 0.98063 0.46864 0.53467 0.0
C975 C 0.97722 0.39669 0.54339 0.0
C976 C 0.92537 0.52976 0.53924 0.0
C977 C 0.98832 0.5935 0.53264 0.0
N978 N 0.96431 0.4405 0.54265 0.0
N979 N 0.99714 0.54872 0.53154 0.0
H980 H 0.57839 0.60975 0.79618 0.0
H981 H 0.41734 0.39288 0.79681 0.0
H982 H 0.62687 0.47218 0.79563 0.0
H983 H 0.3689 0.53042 0.7958 0.0
H984 H 0.49473 0.42128 0.79606 0.0
H985 H 0.50101 0.58128 0.79572 0.0
C986 C 0.57277 0.57364 0.79592 0.0
C987 C 0.60905 0.54333 0.79596 0.0
C988 C 0.46708 0.44518 0.79597 0.0
C989 C 0.52096 0.51055 0.79547 0.0
C990 C 0.42297 0.42896 0.79639 0.0
C991 C 0.3867 0.45928 0.79638 0.0
C992 C 0.47478 0.49199 0.79557 0.0
C993 C 0.39585 0.50575 0.79584 0.0
C994 C 0.52865 0.55738 0.79566 0.0
C995 C 0.5999 0.49683 0.79563 0.0
N996 N 0.43899 0.52066 0.79548 0.0
N997 N 0.55676 0.48189 0.79543 0.0
H998 H 0.38451 0.08578 0.04452 0.0
H999 H 0.5478 0.89392 0.02109 0.0
H1000 H 0.51376 0.11759 0.02998 0.0
H1001 H 0.4637 0.87632 0.05007 0.0
H1002 H 0.52439 0.97366 0.02028 0.0
H1003 H 0.40136 0.00525 0.04227 0.0
C1004 C 0.41602 0.07581 0.04067 0.0
C1005 C 0.44799 0.10817 0.03751 0.0
C1006 C 0.51106 0.95205 0.02676 0.0
C1007 C 0.4672 0.0167 0.03487 0.0
C1008 C 0.52433 0.90679 0.02723 0.0
C1009 C 0.50805 0.87885 0.03573 0.0
C1010 C 0.48046 0.96876 0.03468 0.0
C1011 C 0.47756 0.89696 0.04347 0.0
C1012 C 0.42569 0.03 0.03945 0.0
C1013 C 0.48844 0.09353 0.03261 0.0
N1014 N 0.46459 0.94073 0.04273 0.0
N1015 N 0.49699 0.04874 0.03146 0.0
H1016 H 0.08798 0.40297 0.96436 0.0
H1017 H 0.90258 0.59895 0.96407 0.0
H1018 H 0.11969 0.54523 0.96482 0.0
H1019 H 0.87096 0.45671 0.96317 0.0
H1020 H 0.98208 0.57983 0.96672 0.0
H1021 H 0.0081 0.42184 0.96634 0.0
C1022 C 0.07823 0.43812 0.96502 0.0
C1023 C 0.11048 0.47257 0.9643 0.0
C1024 C 0.95766 0.55282 0.96605 0.0
C1025 C 0.01924 0.49442 0.96647 0.0
C1026 C 0.91226 0.56374 0.96455 0.0
C1027 C 0.88017 0.5294 0.96328 0.0
C1028 C 0.97098 0.50726 0.96623 0.0
C1029 C 0.89461 0.48432 0.96399 0.0
C1030 C 0.03261 0.4489 0.96612 0.0
C1031 C 0.09593 0.51755 0.96522 0.0
N1032 N 0.93899 0.47458 0.96533 0.0
N1033 N 0.05135 0.52717 0.96615 0.0
H1034 H 0.40038 0.4051 0.21212 0.0
H1035 H 0.60059 0.58469 0.21308 0.0
H1036 H 0.54168 0.36949 0.21261 0.0
H1037 H 0.45934 0.62039 0.21392 0.0
H1038 H 0.57972 0.5054 0.21528 0.0
H1039 H 0.42116 0.48404 0.21509 0.0
C1040 C 0.43569 0.4138 0.21297 0.0
C1041 C 0.46935 0.38083 0.21196 0.0
C1042 C 0.55334 0.53068 0.21511 0.0
C1043 C 0.49339 0.47082 0.21529 0.0
C1044 C 0.56527 0.57593 0.21388 0.0
C1045 C 0.53165 0.60906 0.21316 0.0
C1046 C 0.5075 0.51863 0.21557 0.0
C1047 C 0.48638 0.59586 0.21427 0.0
C1048 C 0.44757 0.45883 0.21466 0.0
C1049 C 0.5146 0.3939 0.21318 0.0
N1050 N 0.47562 0.55162 0.2153 0.0
N1051 N 0.5253 0.43794 0.21467 0.0
H1052 H 0.4049 0.10133 0.46305 0.0
H1053 H 0.58655 0.90178 0.46294 0.0
H1054 H 0.37046 0.9597 0.46292 0.0
H1055 H 0.62102 0.04339 0.46338 0.0
H1056 H 0.50711 0.92223 0.46514 0.0
H1057 H 0.48426 0.08077 0.46536 0.0
C1058 C 0.41393 0.06597 0.46364 0.0
C1059 C 0.38108 0.03221 0.46267 0.0
C1060 C 0.53214 0.94879 0.46487 0.0
C1061 C 0.47168 0.00841 0.46524 0.0
C1062 C 0.5775 0.9371 0.46364 0.0
C1063 C 0.61039 0.97092 0.46285 0.0
C1064 C 0.51969 0.99458 0.46528 0.0
C1065 C 0.59675 0.01617 0.46382 0.0
C1066 C 0.45924 0.05422 0.46494 0.0
C1067 C 0.3947 0.9869 0.46351 0.0
N1068 N 0.55243 0.02668 0.46488 0.0
N1069 N 0.43897 0.97634 0.46464 0.0
H1070 H 0.10929 0.07566 0.70575 0.0
H1071 H 0.89267 0.91443 0.70524 0.0
H1072 H 0.97183 0.12378 0.70736 0.0
H1073 H 0.03011 0.86581 0.705 0.0
H1074 H 0.92116 0.99169 0.70648 0.0
H1075 H 0.08104 -0.0019 0.70601 0.0
C1076 C 0.07327 0.06992 0.70622 0.0
C1077 C 0.0429 0.10616 0.70649 0.0
C1078 C 0.94504 0.96404 0.70619 0.0
C1079 C 0.01037 0.01789 0.70673 0.0
C1080 C 0.92876 0.91999 0.70548 0.0
C1081 C 0.95902 0.88371 0.705 0.0
C1082 C 0.99183 0.9717 0.70638 0.0
C1083 C 0.0055 0.89279 0.70533 0.0
C1084 C 0.05713 0.02571 0.70635 0.0
C1085 C 0.99651 0.09686 0.70709 0.0
N1086 N 0.02047 0.93589 0.70598 0.0
N1087 N 0.98169 0.05365 0.70714 0.0
H1088 H 0.6037 0.96509 0.28882 0.0
H1089 H 0.40209 0.06543 0.32498 0.0
H1090 H 0.59676 0.9449 0.32432 0.0
H1091 H 0.39581 0.04191 0.28961 0.0
H1092 H 0.47755 0.03044 0.32528 0.0
H1093 H 0.53015 0.00098 0.2893 0.0
C1094 C 0.58629 0.96786 0.29672 0.0
C1095 C 0.60599 0.95204 0.30654 0.0
C1096 C 0.45953 0.03325 0.31748 0.0
C1097 C 0.52207 0.99369 0.3072 0.0
C1098 C 0.41698 0.05361 0.31729 0.0
C1099 C 0.39308 0.05634 0.30726 0.0
C1100 C 0.47793 0.01638 0.30754 0.0
C1101 C 0.41318 0.04014 0.29752 0.0
C1102 C 0.54437 0.98842 0.297 0.0
C1103 C 0.58219 0.95636 0.31656 0.0
N1104 N 0.45443 0.02084 0.29791 0.0
N1105 N 0.54133 0.97727 0.31666 0.0
H1106 H 0.03654 0.86521 0.55801 0.0
H1107 H 0.96386 0.12 0.55616 0.0
H1108 H 0.8995 0.90688 0.5646 0.0
H1109 H 0.09871 0.0809 0.56578 0.0
H1110 H 0.93995 0.04174 0.55796 0.0
H1111 H 0.06077 0.94365 0.55971 0.0
C1112 C 0.01159 0.89075 0.55991 0.0
C1113 C 0.96586 0.87948 0.5611 0.0
C1114 C 0.97464 0.05041 0.55979 0.0
C1115 C 0.99335 0.96922 0.5629 0.0
C1116 C 0.98842 0.09509 0.55873 0.0
C1117 C 0.0334 0.10714 0.56083 0.0
C1118 C 0.00624 0.0173 0.56273 0.0
C1119 C 0.06369 0.07317 0.5641 0.0
C1120 C 0.02551 0.93546 0.56092 0.0
C1121 C 0.93507 0.91402 0.56361 0.0
N1122 N 0.04967 0.02961 0.56481 0.0
N1123 N 0.94929 0.9575 0.56426 0.0
H1124 H 0.0921 0.43607 0.82469 0.0
H1125 H 0.89387 0.54275 0.78868 0.0
H1126 H 0.10269 0.46407 0.78957 0.0
H1127 H 0.90255 0.56355 0.82413 0.0
H1128 H 0.96726 0.50594 0.78902 0.0
H1129 H 0.01776 0.47316 0.82484 0.0
C1130 C 0.07836 0.44928 0.817 0.0
C1131 C 0.10321 0.44711 0.8071 0.0
C1132 C 0.95343 0.51892 0.79672 0.0
C1133 C 0.01947 0.48954 0.80723 0.0
C1134 C 0.91168 0.54003 0.79652 0.0
C1135 C 0.89254 0.55628 0.80638 0.0
C1136 C 0.97591 0.51338 0.80689 0.0
C1137 C 0.9167 0.55185 0.81634 0.0
C1138 C 0.03644 0.47087 0.81712 0.0
C1139 C 0.08454 0.46524 0.79738 0.0
N1140 N 0.9572 0.53026 0.81637 0.0
N1141 N 0.04376 0.48568 0.79769 0.0
H1142 H 0.46533 0.62005 0.05626 0.0
H1143 H 0.53907 0.36528 0.05774 0.0
H1144 H 0.6013 0.58109 0.0649 0.0
H1145 H 0.40229 0.40682 0.06472 0.0
H1146 H 0.56322 0.44378 0.05928 0.0
H1147 H 0.44182 0.54171 0.05811 0.0
C1148 C 0.49024 0.59514 0.05862 0.0
C1149 C 0.5354 0.60724 0.06043 0.0
C1150 C 0.52804 0.43555 0.0606 0.0
C1151 C 0.50868 0.51735 0.06241 0.0
C1152 C 0.51416 0.39081 0.05969 0.0
C1153 C 0.46852 0.3795 0.06104 0.0
C1154 C 0.49591 0.46927 0.06265 0.0
C1155 C 0.43779 0.41401 0.06361 0.0
C1156 C 0.47669 0.55042 0.05972 0.0
C1157 C 0.56613 0.5733 0.06344 0.0
N1158 N 0.45196 0.45751 0.06418 0.0
N1159 N 0.5523 0.52971 0.06422 0.0
H1160 H 0.36988 0.54487 0.94242 0.0
H1161 H 0.6202 0.45894 0.94133 0.0
H1162 H 0.40322 0.40629 0.93486 0.0
H1163 H 0.58608 0.59827 0.93492 0.0
H1164 H 0.5411 0.43869 0.93918 0.0
H1165 H 0.44875 0.56532 0.93991 0.0
C1166 C 0.39367 0.51877 0.94013 0.0
C1167 C 0.37993 0.4737 0.93893 0.0
C1168 C 0.55102 0.47359 0.93809 0.0
C1169 C 0.47041 0.49693 0.93618 0.0
C1170 C 0.59618 0.48525 0.93937 0.0
C1171 C 0.60978 0.53045 0.93839 0.0
C1172 C 0.51906 0.50746 0.93605 0.0
C1173 C 0.57708 0.56303 0.93577 0.0
C1174 C 0.43869 0.53056 0.93865 0.0
C1175 C 0.41233 0.44141 0.9359 0.0
N1176 N 0.53305 0.55098 0.93486 0.0
N1177 N 0.45627 0.45355 0.93479 0.0
H1178 H 0.4612 0.86727 0.19064 0.0
H1179 H 0.54101 0.1198 0.19255 0.0
H1180 H 0.60069 0.90502 0.18621 0.0
H1181 H 0.40384 0.08303 0.18456 0.0
H1182 H 0.5636 0.04152 0.19025 0.0
H1183 H 0.43932 0.94583 0.18836 0.0
C1184 C 0.48725 0.89202 0.1891 0.0
C1185 C 0.53292 0.87961 0.18873 0.0
C1186 C 0.52868 0.05065 0.18886 0.0
C1187 C 0.508 0.96975 0.18621 0.0
C1188 C 0.51563 0.09538 0.19022 0.0
C1189 C 0.47034 0.10802 0.18882 0.0
C1190 C 0.4961 0.01809 0.18628 0.0
C1191 C 0.43908 0.07476 0.18576 0.0
C1192 C 0.47465 0.93688 0.18774 0.0
C1193 C 0.56512 0.91315 0.1866 0.0
N1194 N 0.45246 0.0311 0.18473 0.0
N1195 N 0.55208 0.95691 0.18558 0.0
H1196 H 0.86965 0.0428 0.44124 0.0
H1197 H 0.12119 0.96106 0.44156 0.0
H1198 H 0.90571 0.90427 0.43443 0.0
H1199 H 0.08535 0.09931 0.43434 0.0
H1200 H 0.04265 0.93937 0.43918 0.0
H1201 H 0.94826 0.06442 0.43893 0.0
C1202 C 0.89399 0.01694 0.43915 0.0
C1203 C 0.88109 0.97156 0.43811 0.0
C1204 C 0.05208 0.97433 0.43797 0.0
C1205 C 0.97129 0.99613 0.43559 0.0
C1206 C 0.09692 0.98684 0.43937 0.0
C1207 C 0.10988 0.03217 0.43823 0.0
C1208 C 0.01973 0.0075 0.43562 0.0
C1209 C 0.07685 0.06401 0.43533 0.0
C1210 C 0.93887 0.0294 0.43779 0.0
C1211 C 0.91418 0.93961 0.43534 0.0
N1212 N 0.03309 0.05116 0.43429 0.0
N1213 N 0.95798 0.95242 0.43434 0.0
H1214 H 0.06557 0.39932 0.67705 0.0
H1215 H 0.95488 0.5988 0.71198 0.0
H1216 H 0.03428 0.39049 0.71204 0.0
H1217 H 0.93937 0.5901 0.67638 0.0
H1218 H 0.991 0.52504 0.712 0.0
H1219 H 0.02807 0.47349 0.67645 0.0
C1220 C 0.0515 0.41337 0.68461 0.0
C1221 C 0.05294 0.38907 0.69461 0.0
C1222 C 0.97931 0.53891 0.70418 0.0
C1223 C 0.01002 0.47263 0.69396 0.0
C1224 C 0.95859 0.58087 0.70418 0.0
C1225 C 0.94406 0.60012 0.69417 0.0
C1226 C 0.98624 0.5163 0.69407 0.0
C1227 C 0.94973 0.57584 0.68427 0.0
C1228 C 0.02969 0.4552 0.68424 0.0
C1229 C 0.03371 0.40817 0.70416 0.0
N1230 N 0.97096 0.53511 0.68444 0.0
N1231 N 0.0131 0.44882 0.70359 0.0
H1232 H 0.25878 0.16409 0.34834 0.0
H1233 H 0.24252 0.00745 0.40245 0.0
H1234 H 0.2754 0.01931 0.34768 0.0
H1235 H 0.24668 0.15303 0.40379 0.0
H1236 H 0.25159 0.01112 0.38228 0.0
H1237 H 0.25075 0.16071 0.36857 0.0
C1238 C 0.26066 0.13158 0.35244 0.0
C1239 C 0.26785 0.09192 0.34631 0.0
C1240 C 0.25064 0.04227 0.38699 0.0
C1241 C 0.25869 0.08783 0.36945 0.0
C1242 C 0.2454 0.0402 0.39851 0.0
C1243 C 0.24375 0.08 0.40483 0.0
C1244 C 0.25396 0.08444 0.38171 0.0
C1245 C 0.24784 0.12148 0.39926 0.0
C1246 C 0.25621 0.1297 0.364 0.0
C1247 C 0.27006 0.05077 0.35207 0.0
N1248 N 0.25256 0.12262 0.38802 0.0
N1249 N 0.26543 0.0498 0.36331 0.0
H1250 H 0.84155 0.74491 0.59624 0.0
H1251 H 0.98313 0.71038 0.6523 0.0
H1252 H 0.98711 0.74593 0.5974 0.0
H1253 H 0.83874 0.72928 0.65151 0.0
H1254 H 0.98514 0.71864 0.63208 0.0
H1255 H 0.8398 0.73412 0.61636 0.0
C1256 C 0.87318 0.74273 0.60071 0.0
C1257 C 0.91456 0.7465 0.59511 0.0
C1258 C 0.95303 0.72097 0.63633 0.0
C1259 C 0.91275 0.73414 0.61819 0.0
C1260 C 0.95182 0.71617 0.64788 0.0
C1261 C 0.91069 0.71913 0.65361 0.0
C1262 C 0.91278 0.72855 0.63046 0.0
C1263 C 0.87124 0.72684 0.64744 0.0
C1264 C 0.87213 0.73669 0.61222 0.0
C1265 C 0.95443 0.74342 0.60137 0.0
N1266 N 0.87327 0.7312 0.63621 0.0
N1267 N 0.95253 0.73742 0.61257 0.0
H1268 H 0.22873 0.34231 0.84983 0.0
H1269 H 0.24525 0.50106 0.90348 0.0
H1270 H 0.21299 0.48713 0.84852 0.0
H1271 H 0.23856 0.3556 0.90503 0.0
H1272 H 0.23568 0.49702 0.8833 0.0
H1273 H 0.23518 0.34687 0.87003 0.0
C1274 C 0.22665 0.37509 0.85379 0.0
C1275 C 0.22028 0.41441 0.84747 0.0
C1276 C 0.23614 0.46602 0.88807 0.0
C1277 C 0.22771 0.41985 0.87062 0.0
C1278 C 0.24166 0.46829 0.89959 0.0
C1279 C 0.24286 0.4286 0.90595 0.0
C1280 C 0.23211 0.42375 0.88287 0.0
C1281 C 0.23784 0.38708 0.90046 0.0
C1282 C 0.2302 0.37765 0.86533 0.0
C1283 C 0.21774 0.45593 0.85306 0.0
N1284 N 0.23292 0.38575 0.88924 0.0
N1285 N 0.2216 0.45758 0.86432 0.0
H1286 H 0.65463 0.73566 0.09812 0.0
H1287 H 0.50375 0.75312 0.1532 0.0
H1288 H 0.50922 0.7275 0.09821 0.0
H1289 H 0.64913 0.74443 0.15366 0.0
H1290 H 0.5053 0.74631 0.13298 0.0
H1291 H 0.6535 0.74204 0.1184 0.0
C1292 C 0.62246 0.73531 0.10239 0.0
C1293 C 0.58195 0.73092 0.09646 0.0
C1294 C 0.53687 0.7458 0.1375 0.0
C1295 C 0.58045 0.73819 0.11966 0.0
C1296 C 0.53602 0.74972 0.14905 0.0
C1297 C 0.57639 0.74943 0.15514 0.0
C1298 C 0.57839 0.74176 0.13195 0.0
C1299 C 0.61718 0.74477 0.14931 0.0
C1300 C 0.62186 0.73882 0.11397 0.0
C1301 C 0.54129 0.73062 0.10244 0.0
N1302 N 0.61714 0.74127 0.13804 0.0
N1303 N 0.54159 0.73423 0.1137 0.0
H1304 H 0.76469 0.66314 0.84896 0.0
H1305 H 0.74449 0.50492 0.90267 0.0
H1306 H 0.78122 0.51837 0.84798 0.0
H1307 H 0.74958 0.65042 0.90425 0.0
H1308 H 0.75544 0.50903 0.88255 0.0
H1309 H 0.75624 0.65902 0.86915 0.0
C1310 C 0.76655 0.63047 0.85299 0.0
C1311 C 0.77372 0.59103 0.84676 0.0
C1312 C 0.75429 0.54005 0.88731 0.0
C1313 C 0.76396 0.5861 0.86988 0.0
C1314 C 0.74796 0.53774 0.89879 0.0
C1315 C 0.74598 0.5774 0.90516 0.0
C1316 C 0.75838 0.58233 0.88212 0.0
C1317 C 0.75091 0.61897 0.89968 0.0
C1318 C 0.76183 0.62817 0.86452 0.0
C1319 C 0.77588 0.54967 0.85244 0.0
N1320 N 0.75667 0.62035 0.88848 0.0
N1321 N 0.7709 0.54827 0.86367 0.0
H1322 H 0.49941 0.2292 0.15236 0.0
H1323 H 0.349 0.24779 0.09723 0.0
H1324 H 0.35417 0.24002 0.15268 0.0
H1325 H 0.49457 0.25193 0.09717 0.0
H1326 H 0.35017 0.24131 0.11748 0.0
H1327 H 0.49823 0.23456 0.13209 0.0
C1328 C 0.46725 0.23274 0.14817 0.0
C1329 C 0.42681 0.23411 0.15423 0.0
C1330 C 0.38186 0.24361 0.11304 0.0
C1331 C 0.42524 0.24013 0.13101 0.0
C1332 C 0.38123 0.24717 0.10147 0.0
C1333 C 0.42176 0.25054 0.09549 0.0
C1334 C 0.42331 0.24322 0.11869 0.0
C1335 C 0.46249 0.2496 0.10143 0.0
C1336 C 0.46662 0.23583 0.13659 0.0
C1337 C 0.38618 0.23888 0.14835 0.0
N1338 N 0.46222 0.24604 0.1127 0.0
N1339 N 0.38643 0.2416 0.13707 0.0
H1340 H 0.72253 0.99114 0.3471 0.0
H1341 H 0.74277 0.85139 0.40385 0.0
H1342 H 0.73593 0.8461 0.34843 0.0
H1343 H 0.75053 0.99677 0.40219 0.0
H1344 H 0.73521 0.84885 0.38364 0.0
H1345 H 0.72842 0.99387 0.36735 0.0
C1346 C 0.72673 0.95985 0.35164 0.0
C1347 C 0.72872 0.91831 0.34605 0.0
C1348 C 0.73854 0.88131 0.3877 0.0
C1349 C 0.73531 0.92122 0.36926 0.0
C1350 C 0.74269 0.88281 0.39925 0.0
C1351 C 0.74743 0.92437 0.40473 0.0
C1352 C 0.73887 0.92165 0.38156 0.0
C1353 C 0.74715 0.96397 0.39832 0.0
C1354 C 0.73014 0.96146 0.36321 0.0
C1355 C 0.73432 0.87889 0.35239 0.0
N1356 N 0.74295 0.96162 0.38708 0.0
N1357 N 0.73729 0.88131 0.36365 0.0
H1358 H 0.16321 0.2578 0.65317 0.0
H1359 H 0.0096 0.23463 0.59877 0.0
H1360 H 0.01841 0.27355 0.65344 0.0
H1361 H 0.15513 0.23918 0.59796 0.0
H1362 H 0.01194 0.24584 0.6189 0.0
H1363 H 0.16069 0.24765 0.63303 0.0
C1364 C 0.13087 0.25912 0.649 0.0
C1365 C 0.09095 0.26661 0.65501 0.0
C1366 C 0.04335 0.24446 0.61431 0.0
C1367 C 0.08784 0.25491 0.63193 0.0
C1368 C 0.04206 0.23795 0.60282 0.0
C1369 C 0.08224 0.23584 0.59667 0.0
C1370 C 0.08514 0.24862 0.61971 0.0
C1371 C 0.1233 0.24061 0.60236 0.0
C1372 C 0.12947 0.25341 0.63749 0.0
C1373 C 0.05004 0.26802 0.64915 0.0
N1374 N 0.12368 0.24662 0.61356 0.0
N1375 N 0.04953 0.26212 0.63794 0.0
H1376 H 0.24148 0.10289 0.26625 0.0
H1377 H 0.43247 0.239 0.2343 0.0
H1378 H 0.33116 0.19594 0.28281 0.0
H1379 H 0.31762 0.18043 0.21759 0.0
H1380 H 0.39718 0.2218 0.25218 0.0
H1381 H 0.26938 0.12988 0.24834 0.0
C1382 C 0.26664 0.12939 0.26613 0.0
C1383 C 0.28416 0.14695 0.27608 0.0
C1384 C 0.37961 0.21301 0.24459 0.0
C1385 C 0.31678 0.17746 0.25557 0.0
C1386 C 0.39983 0.22259 0.23437 0.0
C1387 C 0.37815 0.21092 0.2244 0.0
C1388 C 0.33766 0.19105 0.24487 0.0
C1389 C 0.3357 0.18999 0.22504 0.0
C1390 C 0.28257 0.14476 0.25589 0.0
C1391 C 0.31667 0.18133 0.27538 0.0
N1392 N 0.31707 0.18038 0.23509 0.0
N1393 N 0.33234 0.19503 0.2653 0.0
H1394 H 0.82301 0.82366 0.46691 0.0
H1395 H 0.8152 0.83 0.53312 0.0
H1396 H 0.75993 0.93227 0.48517 0.0
H1397 H 0.9188 0.75942 0.51478 0.0
H1398 H 0.78517 0.85908 0.51561 0.0
H1399 H 0.84888 0.79122 0.48444 0.0
C1400 C 0.81434 0.84063 0.4746 0.0
C1401 C 0.78936 0.88097 0.47454 0.0
C1402 C 0.8144 0.83715 0.51544 0.0
C1403 C 0.81873 0.84358 0.49465 0.0
C1404 C 0.8315 0.82031 0.52543 0.0
C1405 C 0.86979 0.7923 0.52545 0.0
C1406 C 0.83523 0.82536 0.50538 0.0
C1407 C 0.88941 0.78105 0.51518 0.0
C1408 C 0.82931 0.8221 0.4846 0.0
C1409 C 0.77927 0.9013 0.4848 0.0
N1410 N 0.87182 0.79752 0.50556 0.0
N1411 N 0.79388 0.8823 0.49445 0.0
H1412 H 0.20439 0.31463 0.71835 0.0
H1413 H 0.18221 0.29468 0.78446 0.0
H1414 H 0.10213 0.23556 0.73494 0.0
H1415 H 0.2601 0.39771 0.76781 0.0
H1416 H 0.16382 0.26192 0.76639 0.0
H1417 H 0.23604 0.33435 0.73645 0.0
C1418 C 0.18885 0.30095 0.72577 0.0
C1419 C 0.15013 0.2738 0.7251 0.0
C1420 C 0.18527 0.29145 0.76671 0.0
C1421 C 0.18634 0.29632 0.74585 0.0
C1422 C 0.19593 0.31014 0.77703 0.0
C1423 C 0.22232 0.34942 0.77768 0.0
C1424 C 0.20131 0.31196 0.75696 0.0
C1425 C 0.23927 0.36772 0.76774 0.0
C1426 C 0.20692 0.31237 0.73611 0.0
C1427 C 0.13171 0.25696 0.73503 0.0
N1428 N 0.22823 0.34902 0.7578 0.0
N1429 N 0.14981 0.26873 0.74499 0.0
H1430 H 0.73584 0.56683 0.98528 0.0
H1431 H 0.57381 0.73912 0.01629 0.0
H1432 H 0.66727 0.67457 0.96796 0.0
H1433 H 0.68356 0.67136 0.03303 0.0
H1434 H 0.60292 0.71165 0.99851 0.0
H1435 H 0.71198 0.59998 0.00298 0.0
C1436 C 0.71583 0.59744 0.98519 0.0
C1437 C 0.70349 0.61787 0.97511 0.0
C1438 C 0.62078 0.70318 0.00608 0.0
C1439 C 0.67579 0.65566 0.99532 0.0
C1440 C 0.6042 0.71886 0.01625 0.0
C1441 C 0.62619 0.70763 0.02622 0.0
C1442 C 0.65912 0.67536 0.00588 0.0
C1443 C 0.6654 0.68099 0.02559 0.0
C1444 C 0.70242 0.61643 0.9953 0.0
C1445 C 0.67766 0.65765 0.97552 0.0
N1446 N 0.68031 0.66539 0.01562 0.0
N1447 N 0.66433 0.67501 0.98545 0.0
H1448 H 0.31544 0.32853 0.03387 0.0
H1449 H 0.32254 0.32581 0.96764 0.0
H1450 H 0.41901 0.25927 0.01521 0.0
H1451 H 0.2601 0.43368 0.9863 0.0
H1452 H 0.34834 0.29224 0.98504 0.0
H1453 H 0.28497 0.35831 0.01647 0.0
C1454 C 0.33161 0.31925 0.02613 0.0
C1455 C 0.37006 0.29147 0.02603 0.0
C1456 C 0.32893 0.32321 0.98531 0.0
C1457 C 0.33503 0.32531 0.00609 0.0
C1458 C 0.31401 0.34238 0.97539 0.0
C1459 C 0.28923 0.38284 0.97548 0.0
C1460 C 0.31848 0.34417 0.99545 0.0
C1461 C 0.27931 0.40265 0.98581 0.0
C1462 C 0.31427 0.33648 0.01621 0.0
C1463 C 0.3895 0.28072 0.01571 0.0
N1464 N 0.29386 0.38303 0.99539 0.0
N1465 N 0.37171 0.29758 0.00615 0.0
H1466 H 0.75756 0.8967 0.26604 0.0
H1467 H 0.56745 0.75564 0.23517 0.0
H1468 H 0.66698 0.80692 0.2834 0.0
H1469 H 0.68381 0.80969 0.21815 0.0
H1470 H 0.60189 0.77614 0.25293 0.0
H1471 H 0.73027 0.86657 0.24838 0.0
C1472 C 0.73232 0.87029 0.26616 0.0
C1473 C 0.71439 0.85453 0.27624 0.0
C1474 C 0.61998 0.7832 0.2453 0.0
C1475 C 0.6825 0.82042 0.25602 0.0
C1476 C 0.60025 0.77171 0.23515 0.0
C1477 C 0.62261 0.78115 0.22512 0.0
C1478 C 0.6621 0.80484 0.24544 0.0
C1479 C 0.66522 0.8018 0.22565 0.0
C1480 C 0.71675 0.85311 0.25606 0.0
C1481 C 0.68178 0.82017 0.27585 0.0
N1482 N 0.68336 0.8133 0.23562 0.0
N1483 N 0.66648 0.80469 0.2659 0.0
H1484 H 0.16695 0.17818 0.46747 0.0
H1485 H 0.18268 0.16904 0.5336 0.0
H1486 H 0.23471 0.07074 0.4851 0.0
H1487 H 0.07475 0.23753 0.51632 0.0
H1488 H 0.21164 0.14242 0.51577 0.0
H1489 H 0.14236 0.20962 0.48525 0.0
C1490 C 0.17692 0.16129 0.47507 0.0
C1491 C 0.20282 0.12155 0.47477 0.0
C1492 C 0.18173 0.16344 0.5159 0.0
C1493 C 0.175 0.15778 0.49515 0.0
C1494 C 0.16521 0.17889 0.52607 0.0
C1495 C 0.126 0.20556 0.52651 0.0
C1496 C 0.15938 0.1752 0.50604 0.0
C1497 C 0.10498 0.21706 0.51643 0.0
C1498 C 0.16268 0.17923 0.48521 0.0
C1499 C 0.21459 0.10124 0.48492 0.0
N1500 N 0.12197 0.20186 0.50661 0.0
N1501 N 0.2007 0.11967 0.4947 0.0
H1502 H 0.79418 0.67996 0.71714 0.0
H1503 H 0.81613 0.70582 0.78316 0.0
H1504 H 0.89796 0.75833 0.73332 0.0
H1505 H 0.73529 0.60365 0.76707 0.0
H1506 H 0.83559 0.73633 0.7649 0.0
H1507 H 0.7618 0.66282 0.73534 0.0
C1508 C 0.8099 0.69403 0.72449 0.0
C1509 C 0.84924 0.72022 0.72368 0.0
C1510 C 0.81326 0.70749 0.76539 0.0
C1511 C 0.81221 0.70066 0.74454 0.0
C1512 C 0.80197 0.69011 0.77581 0.0
C1513 C 0.77443 0.6517 0.77667 0.0
C1514 C 0.7967 0.68655 0.75574 0.0
C1515 C 0.757 0.633 0.76683 0.0
C1516 C 0.79143 0.68409 0.73488 0.0
C1517 C 0.8679 0.73763 0.73352 0.0
N1518 N 0.76867 0.65042 0.75679 0.0
N1519 N 0.84939 0.7273 0.74354 0.0
loop_
_geom_bond_atom_site_label_1
_geom_bond_atom_site_label_2
_geom_bond_distance
_geom_bond_site_symmetry_2
_ccdc_geom_bond_type
Co0 O2 2.143 . S
Co0 O8 2.074 . S
Co0 O11 2.093 . S
Co0 O24 2.097 . S
Co0 N41 2.151 . S
Co0 N49 2.214 . S
Co1 O2 2.160 . S
Co1 O7 2.058 . S
Co1 O17 2.057 . S
Co1 O32 2.037 . S
Co1 N36 2.145 . S
Co1 N57 2.257 . S
O2 Co0 2.143 . S
O2 Co1 2.160 . S
C3 O4 1.278 . S
C3 O11 1.224 . S
O4 C3 1.278 . S
C5 O6 1.245 . S
C5 O17 1.232 . S
O6 C5 1.245 . S
O7 Co1 2.058 . S
O7 C33 1.269 . S
O8 Co0 2.074 . S
O8 C33 1.257 . S
H9 C34 0.930 . S
H10 C40 0.930 . S
O11 Co0 2.093 . S
O11 C3 1.224 . S
H12 C44 0.929 . S
H13 C46 0.930 . S
H14 C47 0.930 . S
H15 C45 0.929 . S
H16 C48 0.928 . S
O17 Co1 2.057 . S
O17 C5 1.232 . S
H18 C37 0.929 . S
H19 C38 0.929 . S
H20 C50 0.931 . S
H21 C42 0.929 . S
H22 C51 0.930 . S
H23 C43 0.931 . S
O24 Co0 2.097 . S
O24 C52 1.214 . S
H25 C53 0.929 . S
H26 C54 0.929 . S
H27 C55 0.930 . S
H28 C56 0.929 . S
H29 C58 0.930 . S
H30 C35 0.930 . S
H31 C39 0.930 . S
O32 Co1 2.037 . S
O32 C52 1.234 . S
C33 O7 1.269 . S
C33 O8 1.257 . S
C34 H9 0.930 . S
C34 C37 1.388 1_565 S
C34 C39 1.418 . S
C35 H30 0.930 . S
C35 C38 1.404 . S
C35 C39 1.353 . S
N36 Co1 2.145 . S
N36 C37 1.397 . S
N36 C38 1.334 1_545 S
C37 H18 0.929 . S
C37 C34 1.388 1_545 S
C37 N36 1.397 . S
C38 H19 0.929 . S
C38 C35 1.404 . S
C38 N36 1.334 1_565 S
C39 H31 0.930 . S
C39 C34 1.418 . S
C39 C35 1.353 . S
C40 H10 0.930 . S
C40 N41 1.330 . S
C40 C42 1.446 . S
N41 Co0 2.151 . S
N41 C40 1.330 . S
N41 C45 1.418 . S
C42 H21 0.929 . S
C42 C40 1.446 . S
C42 C43 1.332 . S
C43 H23 0.931 . S
C43 C42 1.332 . S
C43 C44 1.267 . S
C44 H12 0.929 . S
C44 C43 1.267 . S
C44 C45 1.251 . S
C45 H15 0.929 . S
C45 N41 1.418 . S
C45 C44 1.251 . S
C46 H13 0.930 . S
C46 C48 1.406 . S
C46 C51 1.261 . S
C47 H14 0.930 . S
C47 N49 1.325 . S
C47 C50 1.357 . S
C48 H16 0.928 . S
C48 C46 1.406 . S
C48 N49 1.261 . S
N49 Co0 2.214 . S
N49 C47 1.325 . S
N49 C48 1.261 . S
C50 H20 0.931 . S
C50 C47 1.357 . S
C50 C51 1.312 . S
C51 H22 0.930 . S
C51 C46 1.261 . S
C51 C50 1.312 . S
C52 O24 1.214 . S
C52 O32 1.234 . S
C53 H25 0.929 . S
C53 C56 1.391 . S
C53 C58 1.391 1_565 S
C54 H26 0.929 . S
C54 C55 1.390 . S
C54 N57 1.391 1_565 S
C55 H27 0.930 . S
C55 C54 1.390 . S
C55 C56 1.392 . S
C56 H28 0.929 . S
C56 C53 1.391 . S
C56 C55 1.392 . S
N57 Co1 2.257 . S
N57 C54 1.391 1_545 S
N57 C58 1.388 . S
C58 H29 0.930 . S
C58 C53 1.391 1_545 S
C58 N57 1.388 . S
Co59 O61 2.143 . S
Co59 O67 2.074 . S
Co59 O70 2.093 . S
Co59 O83 2.097 . S
Co59 N100 2.151 . S
Co59 N108 2.214 . S
Co60 O61 2.160 . S
Co60 O66 2.058 . S
Co60 O76 2.057 . S
Co60 O91 2.037 . S
Co60 N95 2.145 . S
Co60 N116 2.257 . S
O61 Co59 2.143 . S
O61 Co60 2.160 . S
C62 O63 1.278 . S
C62 O70 1.224 . S
O63 C62 1.278 . S
C64 O65 1.245 . S
C64 O76 1.232 . S
O65 C64 1.245 . S
O66 Co60 2.058 . S
O66 C92 1.269 . S
O67 Co59 2.074 . S
O67 C92 1.257 . S
H68 C93 0.930 . S
H69 C99 0.930 . S
O70 Co59 2.093 . S
O70 C62 1.224 . S
H71 C103 0.929 . S
H72 C105 0.930 . S
H73 C106 0.930 . S
H74 C104 0.929 . S
H75 C107 0.928 . S
O76 Co60 2.057 . S
O76 C64 1.232 . S
H77 C96 0.929 . S
H78 C97 0.929 . S
H79 C109 0.931 . S
H80 C101 0.929 . S
H81 C110 0.930 . S
H82 C102 0.931 . S
O83 Co59 2.097 . S
O83 C111 1.214 . S
H84 C112 0.929 . S
H85 C113 0.929 . S
H86 C114 0.930 . S
H87 C115 0.929 . S
H88 C117 0.930 . S
H89 C94 0.930 . S
H90 C98 0.930 . S
O91 Co60 2.037 . S
O91 C111 1.234 . S
C92 O66 1.269 . S
C92 O67 1.257 . S
C93 H68 0.930 . S
C93 C96 1.388 1_455 S
C93 C98 1.418 . S
C94 H89 0.930 . S
C94 C97 1.404 . S
C94 C98 1.353 . S
N95 Co60 2.145 . S
N95 C96 1.397 . S
N95 C97 1.334 1_655 S
C96 H77 0.929 . S
C96 C93 1.388 1_655 S
C96 N95 1.397 . S
C97 H78 0.929 . S
C97 C94 1.404 . S
C97 N95 1.334 1_455 S
C98 H90 0.930 . S
C98 C93 1.418 . S
C98 C94 1.353 . S
C99 H69 0.930 . S
C99 N100 1.330 . S
C99 C101 1.446 . S
N100 Co59 2.151 . S
N100 C99 1.330 . S
N100 C104 1.418 . S
C101 H80 0.929 . S
C101 C99 1.446 . S
C101 C102 1.332 . S
C102 H82 0.931 . S
C102 C101 1.332 . S
C102 C103 1.267 . S
C103 H71 0.929 . S
C103 C102 1.267 . S
C103 C104 1.251 . S
C104 H74 0.929 . S
C104 N100 1.418 . S
C104 C103 1.251 . S
C105 H72 0.930 . S
C105 C107 1.406 . S
C105 C110 1.261 . S
C106 H73 0.930 . S
C106 N108 1.325 . S
C106 C109 1.357 . S
C107 H75 0.928 . S
C107 C105 1.406 . S
C107 N108 1.261 . S
N108 Co59 2.214 . S
N108 C106 1.325 . S
N108 C107 1.261 . S
C109 H79 0.931 . S
C109 C106 1.357 . S
C109 C110 1.312 . S
C110 H81 0.930 . S
C110 C105 1.261 . S
C110 C109 1.312 . S
C111 O83 1.214 . S
C111 O91 1.234 . S
C112 H84 0.929 . S
C112 C115 1.391 . S
C112 C117 1.391 1_455 S
C113 H85 0.929 . S
C113 C114 1.390 . S
C113 N116 1.391 1_455 S
C114 H86 0.930 . S
C114 C113 1.390 . S
C114 C115 1.392 . S
C115 H87 0.929 . S
C115 C112 1.391 . S
C115 C114 1.392 . S
N116 Co60 2.257 . S
N116 C113 1.391 1_655 S
N116 C117 1.388 . S
C117 H88 0.930 . S
C117 C112 1.391 1_655 S
C117 N116 1.388 . S
Co118 O120 2.143 . S
Co118 O126 2.074 . S
Co118 O129 2.093 . S
Co118 O142 2.097 . S
Co118 N159 2.151 . S
Co118 N167 2.214 . S
Co119 O120 2.160 . S
Co119 O125 2.058 . S
Co119 O135 2.057 . S
Co119 O150 2.037 . S
Co119 N154 2.145 . S
Co119 N175 2.257 . S
O120 Co118 2.143 . S
O120 Co119 2.160 . S
C121 O122 1.278 . S
C121 O129 1.224 . S
O122 C121 1.278 . S
C123 O124 1.245 . S
C123 O135 1.232 . S
O124 C123 1.245 . S
O125 Co119 2.058 . S
O125 C151 1.269 . S
O126 Co118 2.074 . S
O126 C151 1.257 . S
H127 C152 0.930 . S
H128 C158 0.930 . S
O129 Co118 2.093 . S
O129 C121 1.224 . S
H130 C162 0.929 . S
H131 C164 0.930 . S
H132 C165 0.930 . S
H133 C163 0.929 . S
H134 C166 0.928 . S
O135 Co119 2.057 . S
O135 C123 1.232 . S
H136 C155 0.929 . S
H137 C156 0.929 . S
H138 C168 0.931 . S
H139 C160 0.929 . S
H140 C169 0.930 . S
H141 C161 0.931 . S
O142 Co118 2.097 . S
O142 C170 1.214 . S
H143 C171 0.929 . S
H144 C172 0.929 . S
H145 C173 0.930 . S
H146 C174 0.929 . S
H147 C176 0.930 . S
H148 C153 0.930 . S
H149 C157 0.930 . S
O150 Co119 2.037 . S
O150 C170 1.234 . S
C151 O125 1.269 . S
C151 O126 1.257 . S
C152 H127 0.930 . S
C152 C155 1.388 . S
C152 C157 1.418 . S
C153 H148 0.930 . S
C153 C156 1.404 . S
C153 C157 1.353 . S
N154 Co119 2.145 . S
N154 C155 1.397 . S
N154 C156 1.334 . S
C155 H136 0.929 . S
C155 C152 1.388 . S
C155 N154 1.397 . S
C156 H137 0.929 . S
C156 C153 1.404 . S
C156 N154 1.334 . S
C157 H149 0.930 . S
C157 C152 1.418 . S
C157 C153 1.353 . S
C158 H128 0.930 . S
C158 N159 1.330 . S
C158 C160 1.446 . S
N159 Co118 2.151 . S
N159 C158 1.330 . S
N159 C163 1.418 . S
C160 H139 0.929 . S
C160 C158 1.446 . S
C160 C161 1.332 . S
C161 H141 0.931 . S
C161 C160 1.332 . S
C161 C162 1.267 . S
C162 H130 0.929 . S
C162 C161 1.267 . S
C162 C163 1.251 . S
C163 H133 0.929 . S
C163 N159 1.418 . S
C163 C162 1.251 . S
C164 H131 0.930 . S
C164 C166 1.406 . S
C164 C169 1.261 . S
C165 H132 0.930 . S
C165 N167 1.325 . S
C165 C168 1.357 . S
C166 H134 0.928 . S
C166 C164 1.406 . S
C166 N167 1.261 . S
N167 Co118 2.214 . S
N167 C165 1.325 . S
N167 C166 1.261 . S
C168 H138 0.931 . S
C168 C165 1.357 . S
C168 C169 1.312 . S
C169 H140 0.930 . S
C169 C164 1.261 . S
C169 C168 1.312 . S
C170 O142 1.214 . S
C170 O150 1.234 . S
C171 H143 0.929 . S
C171 C174 1.391 . S
C171 C176 1.391 . S
C172 H144 0.929 . S
C172 C173 1.390 . S
C172 N175 1.391 . S
C173 H145 0.930 . S
C173 C172 1.390 . S
C173 C174 1.392 . S
C174 H146 0.929 . S
C174 C171 1.391 . S
C174 C173 1.392 . S
N175 Co119 2.257 . S
N175 C172 1.391 . S
N175 C176 1.388 . S
C176 H147 0.930 . S
C176 C171 1.391 . S
C176 N175 1.388 . S
Co177 O179 2.143 . S
Co177 O185 2.074 . S
Co177 O188 2.093 . S
Co177 O201 2.097 . S
Co177 N218 2.151 . S
Co177 N226 2.214 . S
Co178 O179 2.160 . S
Co178 O184 2.058 . S
Co178 O194 2.057 . S
Co178 O209 2.037 . S
Co178 N213 2.145 . S
Co178 N234 2.257 . S
O179 Co177 2.143 . S
O179 Co178 2.160 . S
C180 O181 1.278 . S
C180 O188 1.224 . S
O181 C180 1.278 . S
C182 O183 1.245 . S
C182 O194 1.232 . S
O183 C182 1.245 . S
O184 Co178 2.058 . S
O184 C210 1.269 . S
O185 Co177 2.074 . S
O185 C210 1.257 . S
H186 C211 0.930 . S
H187 C217 0.930 . S
O188 Co177 2.093 . S
O188 C180 1.224 . S
H189 C221 0.929 . S
H190 C223 0.930 . S
H191 C224 0.930 . S
H192 C222 0.929 . S
H193 C225 0.928 . S
O194 Co178 2.057 . S
O194 C182 1.232 . S
H195 C214 0.929 . S
H196 C215 0.929 . S
H197 C227 0.931 . S
H198 C219 0.929 . S
H199 C228 0.930 . S
H200 C220 0.931 . S
O201 Co177 2.097 . S
O201 C229 1.214 . S
H202 C230 0.929 . S
H203 C231 0.929 . S
H204 C232 0.930 . S
H205 C233 0.929 . S
H206 C235 0.930 . S
H207 C212 0.930 . S
H208 C216 0.930 . S
O209 Co178 2.037 . S
O209 C229 1.234 . S
C210 O184 1.269 . S
C210 O185 1.257 . S
C211 H186 0.930 . S
C211 C214 1.388 . S
C211 C216 1.418 . S
C212 H207 0.930 . S
C212 C215 1.404 . S
C212 C216 1.353 . S
N213 Co178 2.145 . S
N213 C214 1.397 . S
N213 C215 1.334 . S
C214 H195 0.929 . S
C214 C211 1.388 . S
C214 N213 1.397 . S
C215 H196 0.929 . S
C215 C212 1.404 . S
C215 N213 1.334 . S
C216 H208 0.930 . S
C216 C211 1.418 . S
C216 C212 1.353 . S
C217 H187 0.930 . S
C217 N218 1.330 . S
C217 C219 1.446 . S
N218 Co177 2.151 . S
N218 C217 1.330 . S
N218 C222 1.418 . S
C219 H198 0.929 . S
C219 C217 1.446 . S
C219 C220 1.332 . S
C220 H200 0.931 . S
C220 C219 1.332 . S
C220 C221 1.267 . S
C221 H189 0.929 . S
C221 C220 1.267 . S
C221 C222 1.251 . S
C222 H192 0.929 . S
C222 N218 1.418 . S
C222 C221 1.251 . S
C223 H190 0.930 . S
C223 C225 1.406 . S
C223 C228 1.261 . S
C224 H191 0.930 . S
C224 N226 1.325 . S
C224 C227 1.357 . S
C225 H193 0.928 . S
C225 C223 1.406 . S
C225 N226 1.261 . S
N226 Co177 2.214 . S
N226 C224 1.325 . S
N226 C225 1.261 . S
C227 H197 0.931 . S
C227 C224 1.357 . S
C227 C228 1.312 . S
C228 H199 0.930 . S
C228 C223 1.261 . S
C228 C227 1.312 . S
C229 O201 1.214 . S
C229 O209 1.234 . S
C230 H202 0.929 . S
C230 C233 1.391 . S
C230 C235 1.391 . S
C231 H203 0.929 . S
C231 C232 1.390 . S
C231 N234 1.391 . S
C232 H204 0.930 . S
C232 C231 1.390 . S
C232 C233 1.392 . S
C233 H205 0.929 . S
C233 C230 1.391 . S
C233 C232 1.392 . S
N234 Co178 2.257 . S
N234 C231 1.391 . S
N234 C235 1.388 . S
C235 H206 0.930 . S
C235 C230 1.391 . S
C235 N234 1.388 . S
Co236 O238 2.143 . S
Co236 O244 2.074 . S
Co236 O247 2.093 . S
Co236 O260 2.097 . S
Co236 N277 2.151 . S
Co236 N285 2.214 . S
Co237 O238 2.160 . S
Co237 O243 2.058 . S
Co237 O253 2.057 . S
Co237 O268 2.037 . S
Co237 N272 2.145 . S
Co237 N293 2.257 . S
O238 Co236 2.143 . S
O238 Co237 2.160 . S
C239 O240 1.278 . S
C239 O247 1.224 . S
O240 C239 1.278 . S
C241 O242 1.245 . S
C241 O253 1.232 . S
O242 C241 1.245 . S
O243 Co237 2.058 . S
O243 C269 1.269 . S
O244 Co236 2.074 . S
O244 C269 1.257 . S
H245 C270 0.930 . S
H246 C276 0.930 . S
O247 Co236 2.093 . S
O247 C239 1.224 . S
H248 C280 0.929 . S
H249 C282 0.930 . S
H250 C283 0.930 . S
H251 C281 0.929 . S
H252 C284 0.928 . S
O253 Co237 2.057 . S
O253 C241 1.232 . S
H254 C273 0.929 . S
H255 C274 0.929 . S
H256 C286 0.931 . S
H257 C278 0.929 . S
H258 C287 0.930 . S
H259 C279 0.931 . S
O260 Co236 2.097 . S
O260 C288 1.214 . S
H261 C289 0.929 . S
H262 C290 0.929 . S
H263 C291 0.930 . S
H264 C292 0.929 . S
H265 C294 0.930 . S
H266 C271 0.930 . S
H267 C275 0.930 . S
O268 Co237 2.037 . S
O268 C288 1.234 . S
C269 O243 1.269 . S
C269 O244 1.257 . S
C270 H245 0.930 . S
C270 C273 1.388 . S
C270 C275 1.418 . S
C271 H266 0.930 . S
C271 C274 1.404 . S
C271 C275 1.353 . S
N272 Co237 2.145 . S
N272 C273 1.397 . S
N272 C274 1.334 . S
C273 H254 0.929 . S
C273 C270 1.388 . S
C273 N272 1.397 . S
C274 H255 0.929 . S
C274 C271 1.404 . S
C274 N272 1.334 . S
C275 H267 0.930 . S
C275 C270 1.418 . S
C275 C271 1.353 . S
C276 H246 0.930 . S
C276 N277 1.330 . S
C276 C278 1.446 . S
N277 Co236 2.151 . S
N277 C276 1.330 . S
N277 C281 1.418 . S
C278 H257 0.929 . S
C278 C276 1.446 . S
C278 C279 1.332 . S
C279 H259 0.931 . S
C279 C278 1.332 . S
C279 C280 1.267 . S
C280 H248 0.929 . S
C280 C279 1.267 . S
C280 C281 1.251 . S
C281 H251 0.929 . S
C281 N277 1.418 . S
C281 C280 1.251 . S
C282 H249 0.930 . S
C282 C284 1.406 . S
C282 C287 1.261 . S
C283 H250 0.930 . S
C283 N285 1.325 . S
C283 C286 1.357 . S
C284 H252 0.928 . S
C284 C282 1.406 . S
C284 N285 1.261 . S
N285 Co236 2.214 . S
N285 C283 1.325 . S
N285 C284 1.261 . S
C286 H256 0.931 . S
C286 C283 1.357 . S
C286 C287 1.312 . S
C287 H258 0.930 . S
C287 C282 1.261 . S
C287 C286 1.312 . S
C288 O260 1.214 . S
C288 O268 1.234 . S
C289 H261 0.929 . S
C289 C292 1.391 . S
C289 C294 1.391 . S
C290 H262 0.929 . S
C290 C291 1.390 . S
C290 N293 1.391 . S
C291 H263 0.930 . S
C291 C290 1.390 . S
C291 C292 1.392 . S
C292 H264 0.929 . S
C292 C289 1.391 . S
C292 C291 1.392 . S
N293 Co237 2.257 . S
N293 C290 1.391 . S
N293 C294 1.388 . S
C294 H265 0.930 . S
C294 C289 1.391 . S
C294 N293 1.388 . S
Co295 O297 2.143 . S
Co295 O303 2.074 . S
Co295 O306 2.093 . S
Co295 O319 2.097 . S
Co295 N336 2.151 . S
Co295 N344 2.214 . S
Co296 O297 2.160 . S
Co296 O302 2.058 . S
Co296 O312 2.057 . S
Co296 O327 2.037 . S
Co296 N331 2.145 . S
Co296 N352 2.257 . S
O297 Co295 2.143 . S
O297 Co296 2.160 . S
C298 O299 1.278 . S
C298 O306 1.224 . S
O299 C298 1.278 . S
C300 O301 1.245 . S
C300 O312 1.232 . S
O301 C300 1.245 . S
O302 Co296 2.058 . S
O302 C328 1.269 . S
O303 Co295 2.074 . S
O303 C328 1.257 . S
H304 C329 0.930 . S
H305 C335 0.930 . S
O306 Co295 2.093 . S
O306 C298 1.224 . S
H307 C339 0.929 . S
H308 C341 0.930 . S
H309 C342 0.930 . S
H310 C340 0.929 . S
H311 C343 0.928 . S
O312 Co296 2.057 . S
O312 C300 1.232 . S
H313 C332 0.929 . S
H314 C333 0.929 . S
H315 C345 0.931 . S
H316 C337 0.929 . S
H317 C346 0.930 . S
H318 C338 0.931 . S
O319 Co295 2.097 . S
O319 C347 1.214 . S
H320 C348 0.929 . S
H321 C349 0.929 . S
H322 C350 0.930 . S
H323 C351 0.929 . S
H324 C353 0.930 . S
H325 C330 0.930 . S
H326 C334 0.930 . S
O327 Co296 2.037 . S
O327 C347 1.234 . S
C328 O302 1.269 . S
C328 O303 1.257 . S
C329 H304 0.930 . S
C329 C332 1.388 . S
C329 C334 1.418 . S
C330 H325 0.930 . S
C330 C333 1.404 . S
C330 C334 1.353 . S
N331 Co296 2.145 . S
N331 C332 1.397 . S
N331 C333 1.334 . S
C332 H313 0.929 . S
C332 C329 1.388 . S
C332 N331 1.397 . S
C333 H314 0.929 . S
C333 C330 1.404 . S
C333 N331 1.334 . S
C334 H326 0.930 . S
C334 C329 1.418 . S
C334 C330 1.353 . S
C335 H305 0.930 . S
C335 N336 1.330 . S
C335 C337 1.446 . S
N336 Co295 2.151 . S
N336 C335 1.330 . S
N336 C340 1.418 . S
C337 H316 0.929 . S
C337 C335 1.446 . S
C337 C338 1.332 . S
C338 H318 0.931 . S
C338 C337 1.332 . S
C338 C339 1.267 . S
C339 H307 0.929 . S
C339 C338 1.267 . S
C339 C340 1.251 . S
C340 H310 0.929 . S
C340 N336 1.418 . S
C340 C339 1.251 . S
C341 H308 0.930 . S
C341 C343 1.406 . S
C341 C346 1.261 . S
C342 H309 0.930 . S
C342 N344 1.325 . S
C342 C345 1.357 . S
C343 H311 0.928 . S
C343 C341 1.406 . S
C343 N344 1.261 . S
N344 Co295 2.214 . S
N344 C342 1.325 . S
N344 C343 1.261 . S
C345 H315 0.931 . S
C345 C342 1.357 . S
C345 C346 1.312 . S
C346 H317 0.930 . S
C346 C341 1.261 . S
C346 C345 1.312 . S
C347 O319 1.214 . S
C347 O327 1.234 . S
C348 H320 0.929 . S
C348 C351 1.391 . S
C348 C353 1.391 . S
C349 H321 0.929 . S
C349 C350 1.390 . S
C349 N352 1.391 . S
C350 H322 0.930 . S
C350 C349 1.390 . S
C350 C351 1.392 . S
C351 H323 0.929 . S
C351 C348 1.391 . S
C351 C350 1.392 . S
N352 Co296 2.257 . S
N352 C349 1.391 . S
N352 C353 1.388 . S
C353 H324 0.930 . S
C353 C348 1.391 . S
C353 N352 1.388 . S
Co354 O356 2.143 . S
Co354 O362 2.074 . S
Co354 O365 2.093 . S
Co354 O378 2.097 . S
Co354 N395 2.151 . S
Co354 N403 2.214 . S
Co355 O356 2.160 . S
Co355 O361 2.058 . S
Co355 O371 2.057 . S
Co355 O386 2.037 . S
Co355 N390 2.145 . S
Co355 N411 2.257 . S
O356 Co354 2.143 . S
O356 Co355 2.160 . S
C357 O358 1.278 . S
C357 O365 1.224 . S
O358 C357 1.278 . S
C359 O360 1.245 . S
C359 O371 1.232 . S
O360 C359 1.245 . S
O361 Co355 2.058 . S
O361 C387 1.269 . S
O362 Co354 2.074 . S
O362 C387 1.257 . S
H363 C388 0.930 . S
H364 C394 0.930 . S
O365 Co354 2.093 . S
O365 C357 1.224 . S
H366 C398 0.929 . S
H367 C400 0.930 . S
H368 C401 0.930 . S
H369 C399 0.929 . S
H370 C402 0.928 . S
O371 Co355 2.057 . S
O371 C359 1.232 . S
H372 C391 0.929 . S
H373 C392 0.929 . S
H374 C404 0.931 . S
H375 C396 0.929 . S
H376 C405 0.930 . S
H377 C397 0.931 . S
O378 Co354 2.097 . S
O378 C406 1.214 . S
H379 C407 0.929 . S
H380 C408 0.929 . S
H381 C409 0.930 . S
H382 C410 0.929 . S
H383 C412 0.930 . S
H384 C389 0.930 . S
H385 C393 0.930 . S
O386 Co355 2.037 . S
O386 C406 1.234 . S
C387 O361 1.269 . S
C387 O362 1.257 . S
C388 H363 0.930 . S
C388 C391 1.388 1_565 S
C388 C393 1.418 . S
C389 H384 0.930 . S
C389 C392 1.404 . S
C389 C393 1.353 . S
N390 Co355 2.145 . S
N390 C391 1.397 . S
N390 C392 1.334 1_545 S
C391 H372 0.929 . S
C391 C388 1.388 1_545 S
C391 N390 1.397 . S
C392 H373 0.929 . S
C392 C389 1.404 . S
C392 N390 1.334 1_565 S
C393 H385 0.930 . S
C393 C388 1.418 . S
C393 C389 1.353 . S
C394 H364 0.930 . S
C394 N395 1.330 . S
C394 C396 1.446 . S
N395 Co354 2.151 . S
N395 C394 1.330 . S
N395 C399 1.418 . S
C396 H375 0.929 . S
C396 C394 1.446 . S
C396 C397 1.332 . S
C397 H377 0.931 . S
C397 C396 1.332 . S
C397 C398 1.267 . S
C398 H366 0.929 . S
C398 C397 1.267 . S
C398 C399 1.251 . S
C399 H369 0.929 . S
C399 N395 1.418 . S
C399 C398 1.251 . S
C400 H367 0.930 . S
C400 C402 1.406 . S
C400 C405 1.261 . S
C401 H368 0.930 . S
C401 N403 1.325 . S
C401 C404 1.357 . S
C402 H370 0.928 . S
C402 C400 1.406 . S
C402 N403 1.261 . S
N403 Co354 2.214 . S
N403 C401 1.325 . S
N403 C402 1.261 . S
C404 H374 0.931 . S
C404 C401 1.357 . S
C404 C405 1.312 . S
C405 H376 0.930 . S
C405 C400 1.261 . S
C405 C404 1.312 . S
C406 O378 1.214 . S
C406 O386 1.234 . S
C407 H379 0.929 . S
C407 C410 1.391 . S
C407 C412 1.391 1_565 S
C408 H380 0.929 . S
C408 C409 1.390 . S
C408 N411 1.391 1_565 S
C409 H381 0.930 . S
C409 C408 1.390 . S
C409 C410 1.392 . S
C410 H382 0.929 . S
C410 C407 1.391 . S
C410 C409 1.392 . S
N411 Co355 2.257 . S
N411 C408 1.391 1_545 S
N411 C412 1.388 . S
C412 H383 0.930 . S
C412 C407 1.391 1_545 S
C412 N411 1.388 . S
Co413 O415 2.143 . S
Co413 O421 2.074 . S
Co413 O424 2.093 . S
Co413 O437 2.097 . S
Co413 N454 2.151 . S
Co413 N462 2.214 . S
Co414 O415 2.160 . S
Co414 O420 2.058 . S
Co414 O430 2.057 . S
Co414 O445 2.037 . S
Co414 N449 2.145 . S
Co414 N470 2.257 . S
O415 Co413 2.143 . S
O415 Co414 2.160 . S
C416 O417 1.278 . S
C416 O424 1.224 . S
O417 C416 1.278 . S
C418 O419 1.245 . S
C418 O430 1.232 . S
O419 C418 1.245 . S
O420 Co414 2.058 . S
O420 C446 1.269 . S
O421 Co413 2.074 . S
O421 C446 1.257 . S
H422 C447 0.930 . S
H423 C453 0.930 . S
O424 Co413 2.093 . S
O424 C416 1.224 . S
H425 C457 0.929 . S
H426 C459 0.930 . S
H427 C460 0.930 . S
H428 C458 0.929 . S
H429 C461 0.928 . S
O430 Co414 2.057 . S
O430 C418 1.232 . S
H431 C450 0.929 . S
H432 C451 0.929 . S
H433 C463 0.931 . S
H434 C455 0.929 . S
H435 C464 0.930 . S
H436 C456 0.931 . S
O437 Co413 2.097 . S
O437 C465 1.214 . S
H438 C466 0.929 . S
H439 C467 0.929 . S
H440 C468 0.930 . S
H441 C469 0.929 . S
H442 C471 0.930 . S
H443 C448 0.930 . S
H444 C452 0.930 . S
O445 Co414 2.037 . S
O445 C465 1.234 . S
C446 O420 1.269 . S
C446 O421 1.257 . S
C447 H422 0.930 . S
C447 C450 1.388 1_455 S
C447 C452 1.418 . S
C448 H443 0.930 . S
C448 C451 1.404 . S
C448 C452 1.353 . S
N449 Co414 2.145 . S
N449 C450 1.397 . S
N449 C451 1.334 1_655 S
C450 H431 0.929 . S
C450 C447 1.388 1_655 S
C450 N449 1.397 . S
C451 H432 0.929 . S
C451 C448 1.404 . S
C451 N449 1.334 1_455 S
C452 H444 0.930 . S
C452 C447 1.418 . S
C452 C448 1.353 . S
C453 H423 0.930 . S
C453 N454 1.330 . S
C453 C455 1.446 . S
N454 Co413 2.151 . S
N454 C453 1.330 . S
N454 C458 1.418 . S
C455 H434 0.929 . S
C455 C453 1.446 . S
C455 C456 1.332 . S
C456 H436 0.931 . S
C456 C455 1.332 . S
C456 C457 1.267 . S
C457 H425 0.929 . S
C457 C456 1.267 . S
C457 C458 1.251 . S
C458 H428 0.929 . S
C458 N454 1.418 . S
C458 C457 1.251 . S
C459 H426 0.930 . S
C459 C461 1.406 . S
C459 C464 1.261 . S
C460 H427 0.930 . S
C460 N462 1.325 . S
C460 C463 1.357 . S
C461 H429 0.928 . S
C461 C459 1.406 . S
C461 N462 1.261 . S
N462 Co413 2.214 . S
N462 C460 1.325 . S
N462 C461 1.261 . S
C463 H433 0.931 . S
C463 C460 1.357 . S
C463 C464 1.312 . S
C464 H435 0.930 . S
C464 C459 1.261 . S
C464 C463 1.312 . S
C465 O437 1.214 . S
C465 O445 1.234 . S
C466 H438 0.929 . S
C466 C469 1.391 . S
C466 C471 1.391 1_455 S
C467 H439 0.929 . S
C467 C468 1.390 . S
C467 N470 1.391 1_455 S
C468 H440 0.930 . S
C468 C467 1.390 . S
C468 C469 1.392 . S
C469 H441 0.929 . S
C469 C466 1.391 . S
C469 C468 1.392 . S
N470 Co414 2.257 . S
N470 C467 1.391 1_655 S
N470 C471 1.388 . S
C471 H442 0.930 . S
C471 C466 1.391 1_655 S
C471 N470 1.388 . S
Co472 O474 2.143 . S
Co472 O480 2.074 . S
Co472 O483 2.093 . S
Co472 O496 2.097 . S
Co472 N513 2.151 . S
Co472 N521 2.214 . S
Co473 O474 2.160 . S
Co473 O479 2.058 . S
Co473 O489 2.057 . S
Co473 O504 2.037 . S
Co473 N508 2.145 . S
Co473 N529 2.257 . S
O474 Co472 2.143 . S
O474 Co473 2.160 . S
C475 O476 1.278 . S
C475 O483 1.224 . S
O476 C475 1.278 . S
C477 O478 1.245 . S
C477 O489 1.232 . S
O478 C477 1.245 . S
O479 Co473 2.058 . S
O479 C505 1.269 . S
O480 Co472 2.074 . S
O480 C505 1.257 . S
H481 C506 0.930 . S
H482 C512 0.930 . S
O483 Co472 2.093 . S
O483 C475 1.224 . S
H484 C516 0.929 . S
H485 C518 0.930 . S
H486 C519 0.930 . S
H487 C517 0.929 . S
H488 C520 0.928 . S
O489 Co473 2.057 . S
O489 C477 1.232 . S
H490 C509 0.929 . S
H491 C510 0.929 . S
H492 C522 0.931 . S
H493 C514 0.929 . S
H494 C523 0.930 . S
H495 C515 0.931 . S
O496 Co472 2.097 . S
O496 C524 1.214 . S
H497 C525 0.929 . S
H498 C526 0.929 . S
H499 C527 0.930 . S
H500 C528 0.929 . S
H501 C530 0.930 . S
H502 C507 0.930 . S
H503 C511 0.930 . S
O504 Co473 2.037 . S
O504 C524 1.234 . S
C505 O479 1.269 . S
C505 O480 1.257 . S
C506 H481 0.930 . S
C506 C509 1.388 . S
C506 C511 1.418 . S
C507 H502 0.930 . S
C507 C510 1.404 . S
C507 C511 1.353 . S
N508 Co473 2.145 . S
N508 C509 1.397 . S
N508 C510 1.334 . S
C509 H490 0.929 . S
C509 C506 1.388 . S
C509 N508 1.397 . S
C510 H491 0.929 . S
C510 C507 1.404 . S
C510 N508 1.334 . S
C511 H503 0.930 . S
C511 C506 1.418 . S
C511 C507 1.353 . S
C512 H482 0.930 . S
C512 N513 1.330 . S
C512 C514 1.446 . S
N513 Co472 2.151 . S
N513 C512 1.330 . S
N513 C517 1.418 . S
C514 H493 0.929 . S
C514 C512 1.446 . S
C514 C515 1.332 . S
C515 H495 0.931 . S
C515 C514 1.332 . S
C515 C516 1.267 . S
C516 H484 0.929 . S
C516 C515 1.267 . S
C516 C517 1.251 . S
C517 H487 0.929 . S
C517 N513 1.418 . S
C517 C516 1.251 . S
C518 H485 0.930 . S
C518 C520 1.406 . S
C518 C523 1.261 . S
C519 H486 0.930 . S
C519 N521 1.325 . S
C519 C522 1.357 . S
C520 H488 0.928 . S
C520 C518 1.406 . S
C520 N521 1.261 . S
N521 Co472 2.214 . S
N521 C519 1.325 . S
N521 C520 1.261 . S
C522 H492 0.931 . S
C522 C519 1.357 . S
C522 C523 1.312 . S
C523 H494 0.930 . S
C523 C518 1.261 . S
C523 C522 1.312 . S
C524 O496 1.214 . S
C524 O504 1.234 . S
C525 H497 0.929 . S
C525 C528 1.391 . S
C525 C530 1.391 . S
C526 H498 0.929 . S
C526 C527 1.390 . S
C526 N529 1.391 . S
C527 H499 0.930 . S
C527 C526 1.390 . S
C527 C528 1.392 . S
C528 H500 0.929 . S
C528 C525 1.391 . S
C528 C527 1.392 . S
N529 Co473 2.257 . S
N529 C526 1.391 . S
N529 C530 1.388 . S
C530 H501 0.930 . S
C530 C525 1.391 . S
C530 N529 1.388 . S
Co531 O533 2.143 . S
Co531 O539 2.074 . S
Co531 O542 2.093 . S
Co531 O555 2.097 . S
Co531 N572 2.151 . S
Co531 N580 2.214 . S
Co532 O533 2.160 . S
Co532 O538 2.058 . S
Co532 O548 2.057 . S
Co532 O563 2.037 . S
Co532 N567 2.145 . S
Co532 N588 2.257 . S
O533 Co531 2.143 . S
O533 Co532 2.160 . S
C534 O535 1.278 . S
C534 O542 1.224 . S
O535 C534 1.278 . S
C536 O537 1.245 . S
C536 O548 1.232 . S
O537 C536 1.245 . S
O538 Co532 2.058 . S
O538 C564 1.269 . S
O539 Co531 2.074 . S
O539 C564 1.257 . S
H540 C565 0.930 . S
H541 C571 0.930 . S
O542 Co531 2.093 . S
O542 C534 1.224 . S
H543 C575 0.929 . S
H544 C577 0.930 . S
H545 C578 0.930 . S
H546 C576 0.929 . S
H547 C579 0.928 . S
O548 Co532 2.057 . S
O548 C536 1.232 . S
H549 C568 0.929 . S
H550 C569 0.929 . S
H551 C581 0.931 . S
H552 C573 0.929 . S
H553 C582 0.930 . S
H554 C574 0.931 . S
O555 Co531 2.097 . S
O555 C583 1.214 . S
H556 C584 0.929 . S
H557 C585 0.929 . S
H558 C586 0.930 . S
H559 C587 0.929 . S
H560 C589 0.930 . S
H561 C566 0.930 . S
H562 C570 0.930 . S
O563 Co532 2.037 . S
O563 C583 1.234 . S
C564 O538 1.269 . S
C564 O539 1.257 . S
C565 H540 0.930 . S
C565 C568 1.388 . S
C565 C570 1.418 . S
C566 H561 0.930 . S
C566 C569 1.404 . S
C566 C570 1.353 . S
N567 Co532 2.145 . S
N567 C568 1.397 . S
N567 C569 1.334 . S
C568 H549 0.929 . S
C568 C565 1.388 . S
C568 N567 1.397 . S
C569 H550 0.929 . S
C569 C566 1.404 . S
C569 N567 1.334 . S
C570 H562 0.930 . S
C570 C565 1.418 . S
C570 C566 1.353 . S
C571 H541 0.930 . S
C571 N572 1.330 . S
C571 C573 1.446 . S
N572 Co531 2.151 . S
N572 C571 1.330 . S
N572 C576 1.418 . S
C573 H552 0.929 . S
C573 C571 1.446 . S
C573 C574 1.332 . S
C574 H554 0.931 . S
C574 C573 1.332 . S
C574 C575 1.267 . S
C575 H543 0.929 . S
C575 C574 1.267 . S
C575 C576 1.251 . S
C576 H546 0.929 . S
C576 N572 1.418 . S
C576 C575 1.251 . S
C577 H544 0.930 . S
C577 C579 1.406 . S
C577 C582 1.261 . S
C578 H545 0.930 . S
C578 N580 1.325 . S
C578 C581 1.357 . S
C579 H547 0.928 . S
C579 C577 1.406 . S
C579 N580 1.261 . S
N580 Co531 2.214 . S
N580 C578 1.325 . S
N580 C579 1.261 . S
C581 H551 0.931 . S
C581 C578 1.357 . S
C581 C582 1.312 . S
C582 H553 0.930 . S
C582 C577 1.261 . S
C582 C581 1.312 . S
C583 O555 1.214 . S
C583 O563 1.234 . S
C584 H556 0.929 . S
C584 C587 1.391 . S
C584 C589 1.391 . S
C585 H557 0.929 . S
C585 C586 1.390 . S
C585 N588 1.391 . S
C586 H558 0.930 . S
C586 C585 1.390 . S
C586 C587 1.392 . S
C587 H559 0.929 . S
C587 C584 1.391 . S
C587 C586 1.392 . S
N588 Co532 2.257 . S
N588 C585 1.391 . S
N588 C589 1.388 . S
C589 H560 0.930 . S
C589 C584 1.391 . S
C589 N588 1.388 . S
Co590 O592 2.143 . S
Co590 O598 2.074 . S
Co590 O601 2.093 . S
Co590 O614 2.097 . S
Co590 N631 2.151 . S
Co590 N639 2.214 . S
Co591 O592 2.160 . S
Co591 O597 2.058 . S
Co591 O607 2.057 . S
Co591 O622 2.037 . S
Co591 N626 2.145 . S
Co591 N647 2.257 . S
O592 Co590 2.143 . S
O592 Co591 2.160 . S
C593 O594 1.278 . S
C593 O601 1.224 . S
O594 C593 1.278 . S
C595 O596 1.245 . S
C595 O607 1.232 . S
O596 C595 1.245 . S
O597 Co591 2.058 . S
O597 C623 1.269 . S
O598 Co590 2.074 . S
O598 C623 1.257 . S
H599 C624 0.930 . S
H600 C630 0.930 . S
O601 Co590 2.093 . S
O601 C593 1.224 . S
H602 C634 0.929 . S
H603 C636 0.930 . S
H604 C637 0.930 . S
H605 C635 0.929 . S
H606 C638 0.928 . S
O607 Co591 2.057 . S
O607 C595 1.232 . S
H608 C627 0.929 . S
H609 C628 0.929 . S
H610 C640 0.931 . S
H611 C632 0.929 . S
H612 C641 0.930 . S
H613 C633 0.931 . S
O614 Co590 2.097 . S
O614 C642 1.214 . S
H615 C643 0.929 . S
H616 C644 0.929 . S
H617 C645 0.930 . S
H618 C646 0.929 . S
H619 C648 0.930 . S
H620 C625 0.930 . S
H621 C629 0.930 . S
O622 Co591 2.037 . S
O622 C642 1.234 . S
C623 O597 1.269 . S
C623 O598 1.257 . S
C624 H599 0.930 . S
C624 C627 1.388 1_545 S
C624 C629 1.418 . S
C625 H620 0.930 . S
C625 C628 1.404 . S
C625 C629 1.353 . S
N626 Co591 2.145 . S
N626 C627 1.397 . S
N626 C628 1.334 1_565 S
C627 H608 0.929 . S
C627 C624 1.388 1_565 S
C627 N626 1.397 . S
C628 H609 0.929 . S
C628 C625 1.404 . S
C628 N626 1.334 1_545 S
C629 H621 0.930 . S
C629 C624 1.418 . S
C629 C625 1.353 . S
C630 H600 0.930 . S
C630 N631 1.330 . S
C630 C632 1.446 . S
N631 Co590 2.151 . S
N631 C630 1.330 . S
N631 C635 1.418 . S
C632 H611 0.929 . S
C632 C630 1.446 . S
C632 C633 1.332 . S
C633 H613 0.931 . S
C633 C632 1.332 . S
C633 C634 1.267 . S
C634 H602 0.929 . S
C634 C633 1.267 . S
C634 C635 1.251 . S
C635 H605 0.929 . S
C635 N631 1.418 . S
C635 C634 1.251 . S
C636 H603 0.930 . S
C636 C638 1.406 . S
C636 C641 1.261 . S
C637 H604 0.930 . S
C637 N639 1.325 . S
C637 C640 1.357 . S
C638 H606 0.928 . S
C638 C636 1.406 . S
C638 N639 1.261 . S
N639 Co590 2.214 . S
N639 C637 1.325 . S
N639 C638 1.261 . S
C640 H610 0.931 . S
C640 C637 1.357 . S
C640 C641 1.312 . S
C641 H612 0.930 . S
C641 C636 1.261 . S
C641 C640 1.312 . S
C642 O614 1.214 . S
C642 O622 1.234 . S
C643 H615 0.929 . S
C643 C646 1.391 . S
C643 C648 1.391 1_545 S
C644 H616 0.929 . S
C644 C645 1.390 . S
C644 N647 1.391 1_545 S
C645 H617 0.930 . S
C645 C644 1.390 . S
C645 C646 1.392 . S
C646 H618 0.929 . S
C646 C643 1.391 . S
C646 C645 1.392 . S
N647 Co591 2.257 . S
N647 C644 1.391 1_565 S
N647 C648 1.388 . S
C648 H619 0.930 . S
C648 C643 1.391 1_565 S
C648 N647 1.388 . S
Co649 O651 2.143 . S
Co649 O657 2.074 . S
Co649 O660 2.093 . S
Co649 O673 2.097 . S
Co649 N690 2.151 . S
Co649 N698 2.214 . S
Co650 O651 2.160 . S
Co650 O656 2.058 . S
Co650 O666 2.057 . S
Co650 O681 2.037 . S
Co650 N685 2.145 . S
Co650 N706 2.257 . S
O651 Co649 2.143 . S
O651 Co650 2.160 . S
C652 O653 1.278 . S
C652 O660 1.224 . S
O653 C652 1.278 . S
C654 O655 1.245 . S
C654 O666 1.232 . S
O655 C654 1.245 . S
O656 Co650 2.058 . S
O656 C682 1.269 . S
O657 Co649 2.074 . S
O657 C682 1.257 . S
H658 C683 0.930 . S
H659 C689 0.930 . S
O660 Co649 2.093 . S
O660 C652 1.224 . S
H661 C693 0.929 . S
H662 C695 0.930 . S
H663 C696 0.930 . S
H664 C694 0.929 . S
H665 C697 0.928 . S
O666 Co650 2.057 . S
O666 C654 1.232 . S
H667 C686 0.929 . S
H668 C687 0.929 . S
H669 C699 0.931 . S
H670 C691 0.929 . S
H671 C700 0.930 . S
H672 C692 0.931 . S
O673 Co649 2.097 . S
O673 C701 1.214 . S
H674 C702 0.929 . S
H675 C703 0.929 . S
H676 C704 0.930 . S
H677 C705 0.929 . S
H678 C707 0.930 . S
H679 C684 0.930 . S
H680 C688 0.930 . S
O681 Co650 2.037 . S
O681 C701 1.234 . S
C682 O656 1.269 . S
C682 O657 1.257 . S
C683 H658 0.930 . S
C683 C686 1.388 1_655 S
C683 C688 1.418 . S
C684 H679 0.930 . S
C684 C687 1.404 . S
C684 C688 1.353 . S
N685 Co650 2.145 . S
N685 C686 1.397 . S
N685 C687 1.334 1_455 S
C686 H667 0.929 . S
C686 C683 1.388 1_455 S
C686 N685 1.397 . S
C687 H668 0.929 . S
C687 C684 1.404 . S
C687 N685 1.334 1_655 S
C688 H680 0.930 . S
C688 C683 1.418 . S
C688 C684 1.353 . S
C689 H659 0.930 . S
C689 N690 1.330 . S
C689 C691 1.446 . S
N690 Co649 2.151 . S
N690 C689 1.330 . S
N690 C694 1.418 . S
C691 H670 0.929 . S
C691 C689 1.446 . S
C691 C692 1.332 . S
C692 H672 0.931 . S
C692 C691 1.332 . S
C692 C693 1.267 . S
C693 H661 0.929 . S
C693 C692 1.267 . S
C693 C694 1.251 . S
C694 H664 0.929 . S
C694 N690 1.418 . S
C694 C693 1.251 . S
C695 H662 0.930 . S
C695 C697 1.406 . S
C695 C700 1.261 . S
C696 H663 0.930 . S
C696 N698 1.325 . S
C696 C699 1.357 . S
C697 H665 0.928 . S
C697 C695 1.406 . S
C697 N698 1.261 . S
N698 Co649 2.214 . S
N698 C696 1.325 . S
N698 C697 1.261 . S
C699 H669 0.931 . S
C699 C696 1.357 . S
C699 C700 1.312 . S
C700 H671 0.930 . S
C700 C695 1.261 . S
C700 C699 1.312 . S
C701 O673 1.214 . S
C701 O681 1.234 . S
C702 H674 0.929 . S
C702 C705 1.391 . S
C702 C707 1.391 1_655 S
C703 H675 0.929 . S
C703 C704 1.390 . S
C703 N706 1.391 1_655 S
C704 H676 0.930 . S
C704 C703 1.390 . S
C704 C705 1.392 . S
C705 H677 0.929 . S
C705 C702 1.391 . S
C705 C704 1.392 . S
N706 Co650 2.257 . S
N706 C703 1.391 1_455 S
N706 C707 1.388 . S
C707 H678 0.930 . S
C707 C702 1.391 1_455 S
C707 N706 1.388 . S
Co708 O710 2.143 . S
Co708 O716 2.074 . S
Co708 O719 2.093 . S
Co708 O732 2.097 . S
Co708 N749 2.151 . S
Co708 N757 2.214 . S
Co709 O710 2.160 . S
Co709 O715 2.058 . S
Co709 O725 2.057 . S
Co709 O740 2.037 . S
Co709 N744 2.145 . S
Co709 N765 2.257 . S
O710 Co708 2.143 . S
O710 Co709 2.160 . S
C711 O712 1.278 . S
C711 O719 1.224 . S
O712 C711 1.278 . S
C713 O714 1.245 . S
C713 O725 1.232 . S
O714 C713 1.245 . S
O715 Co709 2.058 . S
O715 C741 1.269 . S
O716 Co708 2.074 . S
O716 C741 1.257 . S
H717 C742 0.930 . S
H718 C748 0.930 . S
O719 Co708 2.093 . S
O719 C711 1.224 . S
H720 C752 0.929 . S
H721 C754 0.930 . S
H722 C755 0.930 . S
H723 C753 0.929 . S
H724 C756 0.928 . S
O725 Co709 2.057 . S
O725 C713 1.232 . S
H726 C745 0.929 . S
H727 C746 0.929 . S
H728 C758 0.931 . S
H729 C750 0.929 . S
H730 C759 0.930 . S
H731 C751 0.931 . S
O732 Co708 2.097 . S
O732 C760 1.214 . S
H733 C761 0.929 . S
H734 C762 0.929 . S
H735 C763 0.930 . S
H736 C764 0.929 . S
H737 C766 0.930 . S
H738 C743 0.930 . S
H739 C747 0.930 . S
O740 Co709 2.037 . S
O740 C760 1.234 . S
C741 O715 1.269 . S
C741 O716 1.257 . S
C742 H717 0.930 . S
C742 C745 1.388 1_545 S
C742 C747 1.418 . S
C743 H738 0.930 . S
C743 C746 1.404 . S
C743 C747 1.353 . S
N744 Co709 2.145 . S
N744 C745 1.397 . S
N744 C746 1.334 1_565 S
C745 H726 0.929 . S
C745 C742 1.388 1_565 S
C745 N744 1.397 . S
C746 H727 0.929 . S
C746 C743 1.404 . S
C746 N744 1.334 1_545 S
C747 H739 0.930 . S
C747 C742 1.418 . S
C747 C743 1.353 . S
C748 H718 0.930 . S
C748 N749 1.330 . S
C748 C750 1.446 . S
N749 Co708 2.151 . S
N749 C748 1.330 . S
N749 C753 1.418 . S
C750 H729 0.929 . S
C750 C748 1.446 . S
C750 C751 1.332 . S
C751 H731 0.931 . S
C751 C750 1.332 . S
C751 C752 1.267 . S
C752 H720 0.929 . S
C752 C751 1.267 . S
C752 C753 1.251 . S
C753 H723 0.929 . S
C753 N749 1.418 . S
C753 C752 1.251 . S
C754 H721 0.930 . S
C754 C756 1.406 . S
C754 C759 1.261 . S
C755 H722 0.930 . S
C755 N757 1.325 . S
C755 C758 1.357 . S
C756 H724 0.928 . S
C756 C754 1.406 . S
C756 N757 1.261 . S
N757 Co708 2.214 . S
N757 C755 1.325 . S
N757 C756 1.261 . S
C758 H728 0.931 . S
C758 C755 1.357 . S
C758 C759 1.312 . S
C759 H730 0.930 . S
C759 C754 1.261 . S
C759 C758 1.312 . S
C760 O732 1.214 . S
C760 O740 1.234 . S
C761 H733 0.929 . S
C761 C764 1.391 . S
C761 C766 1.391 1_545 S
C762 H734 0.929 . S
C762 C763 1.390 . S
C762 N765 1.391 1_545 S
C763 H735 0.930 . S
C763 C762 1.390 . S
C763 C764 1.392 . S
C764 H736 0.929 . S
C764 C761 1.391 . S
C764 C763 1.392 . S
N765 Co709 2.257 . S
N765 C762 1.391 1_565 S
N765 C766 1.388 . S
C766 H737 0.930 . S
C766 C761 1.391 1_565 S
C766 N765 1.388 . S
Co767 O769 2.143 . S
Co767 O775 2.074 . S
Co767 O778 2.093 . S
Co767 O791 2.097 . S
Co767 N808 2.151 . S
Co767 N816 2.214 . S
Co768 O769 2.160 . S
Co768 O774 2.058 . S
Co768 O784 2.057 . S
Co768 O799 2.037 . S
Co768 N803 2.145 . S
Co768 N824 2.257 . S
O769 Co767 2.143 . S
O769 Co768 2.160 . S
C770 O771 1.278 . S
C770 O778 1.224 . S
O771 C770 1.278 . S
C772 O773 1.245 . S
C772 O784 1.232 . S
O773 C772 1.245 . S
O774 Co768 2.058 . S
O774 C800 1.269 . S
O775 Co767 2.074 . S
O775 C800 1.257 . S
H776 C801 0.930 . S
H777 C807 0.930 . S
O778 Co767 2.093 . S
O778 C770 1.224 . S
H779 C811 0.929 . S
H780 C813 0.930 . S
H781 C814 0.930 . S
H782 C812 0.929 . S
H783 C815 0.928 . S
O784 Co768 2.057 . S
O784 C772 1.232 . S
H785 C804 0.929 . S
H786 C805 0.929 . S
H787 C817 0.931 . S
H788 C809 0.929 . S
H789 C818 0.930 . S
H790 C810 0.931 . S
O791 Co767 2.097 . S
O791 C819 1.214 . S
H792 C820 0.929 . S
H793 C821 0.929 . S
H794 C822 0.930 . S
H795 C823 0.929 . S
H796 C825 0.930 . S
H797 C802 0.930 . S
H798 C806 0.930 . S
O799 Co768 2.037 . S
O799 C819 1.234 . S
C800 O774 1.269 . S
C800 O775 1.257 . S
C801 H776 0.930 . S
C801 C804 1.388 1_655 S
C801 C806 1.418 . S
C802 H797 0.930 . S
C802 C805 1.404 . S
C802 C806 1.353 . S
N803 Co768 2.145 . S
N803 C804 1.397 . S
N803 C805 1.334 1_455 S
C804 H785 0.929 . S
C804 C801 1.388 1_455 S
C804 N803 1.397 . S
C805 H786 0.929 . S
C805 C802 1.404 . S
C805 N803 1.334 1_655 S
C806 H798 0.930 . S
C806 C801 1.418 . S
C806 C802 1.353 . S
C807 H777 0.930 . S
C807 N808 1.330 . S
C807 C809 1.446 . S
N808 Co767 2.151 . S
N808 C807 1.330 . S
N808 C812 1.418 . S
C809 H788 0.929 . S
C809 C807 1.446 . S
C809 C810 1.332 . S
C810 H790 0.931 . S
C810 C809 1.332 . S
C810 C811 1.267 . S
C811 H779 0.929 . S
C811 C810 1.267 . S
C811 C812 1.251 . S
C812 H782 0.929 . S
C812 N808 1.418 . S
C812 C811 1.251 . S
C813 H780 0.930 . S
C813 C815 1.406 . S
C813 C818 1.261 . S
C814 H781 0.930 . S
C814 N816 1.325 . S
C814 C817 1.357 . S
C815 H783 0.928 . S
C815 C813 1.406 . S
C815 N816 1.261 . S
N816 Co767 2.214 . S
N816 C814 1.325 . S
N816 C815 1.261 . S
C817 H787 0.931 . S
C817 C814 1.357 . S
C817 C818 1.312 . S
C818 H789 0.930 . S
C818 C813 1.261 . S
C818 C817 1.312 . S
C819 O791 1.214 . S
C819 O799 1.234 . S
C820 H792 0.929 . S
C820 C823 1.391 . S
C820 C825 1.391 1_655 S
C821 H793 0.929 . S
C821 C822 1.390 . S
C821 N824 1.391 1_655 S
C822 H794 0.930 . S
C822 C821 1.390 . S
C822 C823 1.392 . S
C823 H795 0.929 . S
C823 C820 1.391 . S
C823 C822 1.392 . S
N824 Co768 2.257 . S
N824 C821 1.391 1_455 S
N824 C825 1.388 . S
C825 H796 0.930 . S
C825 C820 1.391 1_455 S
C825 N824 1.388 . S
Co826 O828 2.143 . S
Co826 O834 2.074 . S
Co826 O837 2.093 . S
Co826 O850 2.097 . S
Co826 N867 2.151 . S
Co826 N875 2.214 . S
Co827 O828 2.160 . S
Co827 O833 2.058 . S
Co827 O843 2.057 . S
Co827 O858 2.037 . S
Co827 N862 2.145 . S
Co827 N883 2.257 . S
O828 Co826 2.143 . S
O828 Co827 2.160 . S
C829 O830 1.278 . S
C829 O837 1.224 . S
O830 C829 1.278 . S
C831 O832 1.245 . S
C831 O843 1.232 . S
O832 C831 1.245 . S
O833 Co827 2.058 . S
O833 C859 1.269 . S
O834 Co826 2.074 . S
O834 C859 1.257 . S
H835 C860 0.930 . S
H836 C866 0.930 . S
O837 Co826 2.093 . S
O837 C829 1.224 . S
H838 C870 0.929 . S
H839 C872 0.930 . S
H840 C873 0.930 . S
H841 C871 0.929 . S
H842 C874 0.928 . S
O843 Co827 2.057 . S
O843 C831 1.232 . S
H844 C863 0.929 . S
H845 C864 0.929 . S
H846 C876 0.931 . S
H847 C868 0.929 . S
H848 C877 0.930 . S
H849 C869 0.931 . S
O850 Co826 2.097 . S
O850 C878 1.214 . S
H851 C879 0.929 . S
H852 C880 0.929 . S
H853 C881 0.930 . S
H854 C882 0.929 . S
H855 C884 0.930 . S
H856 C861 0.930 . S
H857 C865 0.930 . S
O858 Co827 2.037 . S
O858 C878 1.234 . S
C859 O833 1.269 . S
C859 O834 1.257 . S
C860 H835 0.930 . S
C860 C863 1.388 . S
C860 C865 1.418 . S
C861 H856 0.930 . S
C861 C864 1.404 . S
C861 C865 1.353 . S
N862 Co827 2.145 . S
N862 C863 1.397 . S
N862 C864 1.334 . S
C863 H844 0.929 . S
C863 C860 1.388 . S
C863 N862 1.397 . S
C864 H845 0.929 . S
C864 C861 1.404 . S
C864 N862 1.334 . S
C865 H857 0.930 . S
C865 C860 1.418 . S
C865 C861 1.353 . S
C866 H836 0.930 . S
C866 N867 1.330 . S
C866 C868 1.446 . S
N867 Co826 2.151 . S
N867 C866 1.330 . S
N867 C871 1.418 . S
C868 H847 0.929 . S
C868 C866 1.446 . S
C868 C869 1.332 . S
C869 H849 0.931 . S
C869 C868 1.332 . S
C869 C870 1.267 . S
C870 H838 0.929 . S
C870 C869 1.267 . S
C870 C871 1.251 . S
C871 H841 0.929 . S
C871 N867 1.418 . S
C871 C870 1.251 . S
C872 H839 0.930 . S
C872 C874 1.406 . S
C872 C877 1.261 . S
C873 H840 0.930 . S
C873 N875 1.325 . S
C873 C876 1.357 . S
C874 H842 0.928 . S
C874 C872 1.406 . S
C874 N875 1.261 . S
N875 Co826 2.214 . S
N875 C873 1.325 . S
N875 C874 1.261 . S
C876 H846 0.931 . S
C876 C873 1.357 . S
C876 C877 1.312 . S
C877 H848 0.930 . S
C877 C872 1.261 . S
C877 C876 1.312 . S
C878 O850 1.214 . S
C878 O858 1.234 . S
C879 H851 0.929 . S
C879 C882 1.391 . S
C879 C884 1.391 . S
C880 H852 0.929 . S
C880 C881 1.390 . S
C880 N883 1.391 . S
C881 H853 0.930 . S
C881 C880 1.390 . S
C881 C882 1.392 . S
C882 H854 0.929 . S
C882 C879 1.391 . S
C882 C881 1.392 . S
N883 Co827 2.257 . S
N883 C880 1.391 . S
N883 C884 1.388 . S
C884 H855 0.930 . S
C884 C879 1.391 . S
C884 N883 1.388 . S
Co885 O887 2.143 . S
Co885 O893 2.074 . S
Co885 O896 2.093 . S
Co885 O909 2.097 . S
Co885 N926 2.151 . S
Co885 N934 2.214 . S
Co886 O887 2.160 . S
Co886 O892 2.058 . S
Co886 O902 2.057 . S
Co886 O917 2.037 . S
Co886 N921 2.145 . S
Co886 N942 2.257 . S
O887 Co885 2.143 . S
O887 Co886 2.160 . S
C888 O889 1.278 . S
C888 O896 1.224 . S
O889 C888 1.278 . S
C890 O891 1.245 . S
C890 O902 1.232 . S
O891 C890 1.245 . S
O892 Co886 2.058 . S
O892 C918 1.269 . S
O893 Co885 2.074 . S
O893 C918 1.257 . S
H894 C919 0.930 . S
H895 C925 0.930 . S
O896 Co885 2.093 . S
O896 C888 1.224 . S
H897 C929 0.929 . S
H898 C931 0.930 . S
H899 C932 0.930 . S
H900 C930 0.929 . S
H901 C933 0.928 . S
O902 Co886 2.057 . S
O902 C890 1.232 . S
H903 C922 0.929 . S
H904 C923 0.929 . S
H905 C935 0.931 . S
H906 C927 0.929 . S
H907 C936 0.930 . S
H908 C928 0.931 . S
O909 Co885 2.097 . S
O909 C937 1.214 . S
H910 C938 0.929 . S
H911 C939 0.929 . S
H912 C940 0.930 . S
H913 C941 0.929 . S
H914 C943 0.930 . S
H915 C920 0.930 . S
H916 C924 0.930 . S
O917 Co886 2.037 . S
O917 C937 1.234 . S
C918 O892 1.269 . S
C918 O893 1.257 . S
C919 H894 0.930 . S
C919 C922 1.388 . S
C919 C924 1.418 . S
C920 H915 0.930 . S
C920 C923 1.404 . S
C920 C924 1.353 . S
N921 Co886 2.145 . S
N921 C922 1.397 . S
N921 C923 1.334 . S
C922 H903 0.929 . S
C922 C919 1.388 . S
C922 N921 1.397 . S
C923 H904 0.929 . S
C923 C920 1.404 . S
C923 N921 1.334 . S
C924 H916 0.930 . S
C924 C919 1.418 . S
C924 C920 1.353 . S
C925 H895 0.930 . S
C925 N926 1.330 . S
C925 C927 1.446 . S
N926 Co885 2.151 . S
N926 C925 1.330 . S
N926 C930 1.418 . S
C927 H906 0.929 . S
C927 C925 1.446 . S
C927 C928 1.332 . S
C928 H908 0.931 . S
C928 C927 1.332 . S
C928 C929 1.267 . S
C929 H897 0.929 . S
C929 C928 1.267 . S
C929 C930 1.251 . S
C930 H900 0.929 . S
C930 N926 1.418 . S
C930 C929 1.251 . S
C931 H898 0.930 . S
C931 C933 1.406 . S
C931 C936 1.261 . S
C932 H899 0.930 . S
C932 N934 1.325 . S
C932 C935 1.357 . S
C933 H901 0.928 . S
C933 C931 1.406 . S
C933 N934 1.261 . S
N934 Co885 2.214 . S
N934 C932 1.325 . S
N934 C933 1.261 . S
C935 H905 0.931 . S
C935 C932 1.357 . S
C935 C936 1.312 . S
C936 H907 0.930 . S
C936 C931 1.261 . S
C936 C935 1.312 . S
C937 O909 1.214 . S
C937 O917 1.234 . S
C938 H910 0.929 . S
C938 C941 1.391 . S
C938 C943 1.391 . S
C939 H911 0.929 . S
C939 C940 1.390 . S
C939 N942 1.391 . S
C940 H912 0.930 . S
C940 C939 1.390 . S
C940 C941 1.392 . S
C941 H913 0.929 . S
C941 C938 1.391 . S
C941 C940 1.392 . S
N942 Co886 2.257 . S
N942 C939 1.391 . S
N942 C943 1.388 . S
C943 H914 0.930 . S
C943 C938 1.391 . S
C943 N942 1.388 . S
H944 C950 0.930 . S
H945 C954 0.930 . S
H946 C959 0.929 . S
H947 C957 0.929 . S
H948 C952 0.929 1_565 S
H949 C958 0.929 1_545 S
C950 H944 0.930 . S
C950 C951 1.367 . S
C950 C958 1.378 . S
C951 C950 1.367 . S
C951 C959 1.433 . S
C952 H948 0.929 1_545 S
C952 C954 1.378 . S
C952 C956 1.350 . S
C953 C956 1.463 1_665 S
C953 C958 1.350 . S
C953 N961 1.427 . S
C954 H945 0.930 . S
C954 C952 1.378 . S
C954 C955 1.367 . S
C955 C954 1.367 . S
C955 C957 1.433 . S
C956 C952 1.350 . S
C956 C953 1.463 1_445 S
C956 N960 1.427 . S
C957 H947 0.929 . S
C957 C955 1.433 . S
C957 N960 1.384 . S
C958 H949 0.929 1_565 S
C958 C950 1.378 . S
C958 C953 1.350 . S
C959 H946 0.929 . S
C959 C951 1.433 . S
C959 N961 1.384 . S
N960 C956 1.427 . S
N960 C957 1.384 . S
N961 C953 1.427 . S
N961 C959 1.384 . S
H962 C968 0.930 . S
H963 C972 0.930 . S
H964 C977 0.929 . S
H965 C975 0.929 . S
H966 C970 0.929 . S
H967 C976 0.929 . S
C968 H962 0.930 . S
C968 C969 1.367 . S
C968 C976 1.378 . S
C969 C968 1.367 . S
C969 C977 1.433 . S
C970 H966 0.929 . S
C970 C972 1.378 . S
C970 C974 1.350 . S
C971 C974 1.463 1_655 S
C971 C976 1.350 . S
C971 N979 1.433 . S
C972 H963 0.930 . S
C972 C970 1.378 . S
C972 C973 1.367 . S
C973 C972 1.367 . S
C973 C975 1.433 . S
C974 C970 1.350 . S
C974 C971 1.463 1_455 S
C974 N978 1.433 . S
C975 H965 0.929 . S
C975 C973 1.433 . S
C975 N978 1.394 . S
C976 H967 0.929 . S
C976 C968 1.378 . S
C976 C971 1.350 . S
C977 H964 0.929 . S
C977 C969 1.433 . S
C977 N979 1.394 . S
N978 C974 1.433 . S
N978 C975 1.394 . S
N979 C971 1.433 . S
N979 C977 1.394 . S
H980 C986 0.930 . S
H981 C990 0.930 . S
H982 C995 0.929 . S
H983 C993 0.929 . S
H984 C988 0.929 . S
H985 C994 0.929 . S
C986 H980 0.930 . S
C986 C987 1.367 . S
C986 C994 1.378 . S
C987 C986 1.367 . S
C987 C995 1.433 . S
C988 H984 0.929 . S
C988 C990 1.378 . S
C988 C992 1.350 . S
C989 C992 1.463 . S
C989 C994 1.350 . S
C989 N997 1.427 . S
C990 H981 0.930 . S
C990 C988 1.378 . S
C990 C991 1.367 . S
C991 C990 1.367 . S
C991 C993 1.433 . S
C992 C988 1.350 . S
C992 C989 1.463 . S
C992 N996 1.427 . S
C993 H983 0.929 . S
C993 C991 1.433 . S
C993 N996 1.384 . S
C994 H985 0.929 . S
C994 C986 1.378 . S
C994 C989 1.350 . S
C995 H982 0.929 . S
C995 C987 1.433 . S
C995 N997 1.384 . S
N996 C992 1.427 . S
N996 C993 1.384 . S
N997 C989 1.427 . S
N997 C995 1.384 . S
H998 C1004 0.930 . S
H999 C1008 0.930 . S
H1000 C1013 0.929 . S
H1001 C1011 0.929 . S
H1002 C1006 0.929 . S
H1003 C1012 0.929 . S
C1004 H998 0.930 . S
C1004 C1005 1.367 . S
C1004 C1012 1.378 . S
C1005 C1004 1.367 . S
C1005 C1013 1.433 . S
C1006 H1002 0.929 . S
C1006 C1008 1.378 . S
C1006 C1010 1.350 . S
C1007 C1010 1.463 1_545 S
C1007 C1012 1.350 . S
C1007 N1015 1.427 . S
C1008 H999 0.930 . S
C1008 C1006 1.378 . S
C1008 C1009 1.367 . S
C1009 C1008 1.367 . S
C1009 C1011 1.433 . S
C1010 C1006 1.350 . S
C1010 C1007 1.463 1_565 S
C1010 N1014 1.427 . S
C1011 H1001 0.929 . S
C1011 C1009 1.433 . S
C1011 N1014 1.384 . S
C1012 H1003 0.929 . S
C1012 C1004 1.378 . S
C1012 C1007 1.350 . S
C1013 H1000 0.929 . S
C1013 C1005 1.433 . S
C1013 N1015 1.384 . S
N1014 C1010 1.427 . S
N1014 C1011 1.384 . S
N1015 C1007 1.427 . S
N1015 C1013 1.384 . S
H1016 C1022 0.930 . S
H1017 C1026 0.930 . S
H1018 C1031 0.929 . S
H1019 C1029 0.929 . S
H1020 C1024 0.929 . S
H1021 C1030 0.929 . S
C1022 H1016 0.930 . S
C1022 C1023 1.367 . S
C1022 C1030 1.378 . S
C1023 C1022 1.367 . S
C1023 C1031 1.433 . S
C1024 H1020 0.929 . S
C1024 C1026 1.378 . S
C1024 C1028 1.350 . S
C1025 C1028 1.463 1_455 S
C1025 C1030 1.350 . S
C1025 N1033 1.427 . S
C1026 H1017 0.930 . S
C1026 C1024 1.378 . S
C1026 C1027 1.367 . S
C1027 C1026 1.367 . S
C1027 C1029 1.433 . S
C1028 C1024 1.350 . S
C1028 C1025 1.463 1_655 S
C1028 N1032 1.427 . S
C1029 H1019 0.929 . S
C1029 C1027 1.433 . S
C1029 N1032 1.384 . S
C1030 H1021 0.929 . S
C1030 C1022 1.378 . S
C1030 C1025 1.350 . S
C1031 H1018 0.929 . S
C1031 C1023 1.433 . S
C1031 N1033 1.384 . S
N1032 C1028 1.427 . S
N1032 C1029 1.384 . S
N1033 C1025 1.427 . S
N1033 C1031 1.384 . S
H1034 C1040 0.930 . S
H1035 C1044 0.930 . S
H1036 C1049 0.929 . S
H1037 C1047 0.929 . S
H1038 C1042 0.929 . S
H1039 C1048 0.929 . S
C1040 H1034 0.930 . S
C1040 C1041 1.367 . S
C1040 C1048 1.378 . S
C1041 C1040 1.367 . S
C1041 C1049 1.433 . S
C1042 H1038 0.929 . S
C1042 C1044 1.378 . S
C1042 C1046 1.350 . S
C1043 C1046 1.463 . S
C1043 C1048 1.350 . S
C1043 N1051 1.427 . S
C1044 H1035 0.930 . S
C1044 C1042 1.378 . S
C1044 C1045 1.367 . S
C1045 C1044 1.367 . S
C1045 C1047 1.433 . S
C1046 C1042 1.350 . S
C1046 C1043 1.463 . S
C1046 N1050 1.427 . S
C1047 H1037 0.929 . S
C1047 C1045 1.433 . S
C1047 N1050 1.384 . S
C1048 H1039 0.929 . S
C1048 C1040 1.378 . S
C1048 C1043 1.350 . S
C1049 H1036 0.929 . S
C1049 C1041 1.433 . S
C1049 N1051 1.384 . S
N1050 C1046 1.427 . S
N1050 C1047 1.384 . S
N1051 C1043 1.427 . S
N1051 C1049 1.384 . S
H1052 C1058 0.930 . S
H1053 C1062 0.930 . S
H1054 C1067 0.929 . S
H1055 C1065 0.929 . S
H1056 C1060 0.929 . S
H1057 C1066 0.929 . S
C1058 H1052 0.930 . S
C1058 C1059 1.367 . S
C1058 C1066 1.378 . S
C1059 C1058 1.367 . S
C1059 C1067 1.433 . S
C1060 H1056 0.929 . S
C1060 C1062 1.378 . S
C1060 C1064 1.350 . S
C1061 C1064 1.463 1_545 S
C1061 C1066 1.350 . S
C1061 N1069 1.427 . S
C1062 H1053 0.930 . S
C1062 C1060 1.378 . S
C1062 C1063 1.367 . S
C1063 C1062 1.367 . S
C1063 C1065 1.433 . S
C1064 C1060 1.350 . S
C1064 C1061 1.463 1_565 S
C1064 N1068 1.427 . S
C1065 H1055 0.929 . S
C1065 C1063 1.433 . S
C1065 N1068 1.384 . S
C1066 H1057 0.929 . S
C1066 C1058 1.378 . S
C1066 C1061 1.350 . S
C1067 H1054 0.929 . S
C1067 C1059 1.433 . S
C1067 N1069 1.384 . S
N1068 C1064 1.427 . S
N1068 C1065 1.384 . S
N1069 C1061 1.427 . S
N1069 C1067 1.384 . S
H1070 C1076 0.930 . S
H1071 C1080 0.930 . S
H1072 C1085 0.929 . S
H1073 C1083 0.929 . S
H1074 C1078 0.929 . S
H1075 C1084 0.929 . S
C1076 H1070 0.930 . S
C1076 C1077 1.367 . S
C1076 C1084 1.378 . S
C1077 C1076 1.367 . S
C1077 C1085 1.433 . S
C1078 H1074 0.929 . S
C1078 C1080 1.378 . S
C1078 C1082 1.350 . S
C1079 C1082 1.463 1_445 S
C1079 C1084 1.350 . S
C1079 N1087 1.427 . S
C1080 H1071 0.930 . S
C1080 C1078 1.378 . S
C1080 C1081 1.367 . S
C1081 C1080 1.367 . S
C1081 C1083 1.433 . S
C1082 C1078 1.350 . S
C1082 C1079 1.463 1_665 S
C1082 N1086 1.427 . S
C1083 H1073 0.929 . S
C1083 C1081 1.433 . S
C1083 N1086 1.384 . S
C1084 H1075 0.929 . S
C1084 C1076 1.378 . S
C1084 C1079 1.350 . S
C1085 H1072 0.929 . S
C1085 C1077 1.433 . S
C1085 N1087 1.384 . S
N1086 C1082 1.427 . S
N1086 C1083 1.384 . S
N1087 C1079 1.427 . S
N1087 C1085 1.384 . S
H1088 C1094 0.930 . S
H1089 C1098 0.930 . S
H1090 C1103 0.929 . S
H1091 C1101 0.929 . S
H1092 C1096 0.929 1_565 S
H1093 C1102 0.929 1_545 S
C1094 H1088 0.930 . S
C1094 C1095 1.367 . S
C1094 C1102 1.378 . S
C1095 C1094 1.367 . S
C1095 C1103 1.433 . S
C1096 H1092 0.929 1_545 S
C1096 C1098 1.378 . S
C1096 C1100 1.350 . S
C1097 C1100 1.463 1_565 S
C1097 C1102 1.350 . S
C1097 N1105 1.427 . S
C1098 H1089 0.930 . S
C1098 C1096 1.378 . S
C1098 C1099 1.367 . S
C1099 C1098 1.367 . S
C1099 C1101 1.433 . S
C1100 C1096 1.350 . S
C1100 C1097 1.463 1_545 S
C1100 N1104 1.427 . S
C1101 H1091 0.929 . S
C1101 C1099 1.433 . S
C1101 N1104 1.384 . S
C1102 H1093 0.929 1_565 S
C1102 C1094 1.378 . S
C1102 C1097 1.350 . S
C1103 H1090 0.929 . S
C1103 C1095 1.433 . S
C1103 N1105 1.384 . S
N1104 C1100 1.427 . S
N1104 C1101 1.384 . S
N1105 C1097 1.427 . S
N1105 C1103 1.384 . S
H1106 C1112 0.930 1_455 S
H1107 C1116 0.930 1_655 S
H1108 C1121 0.929 . S
H1109 C1119 0.929 . S
H1110 C1114 0.929 . S
H1111 C1120 0.929 . S
C1112 H1106 0.930 1_655 S
C1112 C1113 1.367 . S
C1112 C1120 1.378 1_655 S
C1113 C1112 1.367 . S
C1113 C1121 1.433 . S
C1114 H1110 0.929 . S
C1114 C1116 1.378 1_655 S
C1114 C1118 1.350 1_655 S
C1115 C1118 1.463 1_665 S
C1115 C1120 1.350 1_655 S
C1115 N1123 1.427 . S
C1116 H1107 0.930 1_455 S
C1116 C1114 1.378 1_455 S
C1116 C1117 1.367 . S
C1117 C1116 1.367 . S
C1117 C1119 1.433 . S
C1118 C1114 1.350 1_455 S
C1118 C1115 1.463 1_445 S
C1118 N1122 1.427 . S
C1119 H1109 0.929 . S
C1119 C1117 1.433 . S
C1119 N1122 1.384 . S
C1120 H1111 0.929 . S
C1120 C1112 1.378 1_455 S
C1120 C1115 1.350 1_455 S
C1121 H1108 0.929 . S
C1121 C1113 1.433 . S
C1121 N1123 1.384 . S
N1122 C1118 1.427 . S
N1122 C1119 1.384 . S
N1123 C1115 1.427 . S
N1123 C1121 1.384 . S
H1124 C1130 0.930 . S
H1125 C1134 0.930 . S
H1126 C1139 0.929 . S
H1127 C1137 0.929 . S
H1128 C1132 0.929 . S
H1129 C1138 0.929 . S
C1130 H1124 0.930 . S
C1130 C1131 1.367 . S
C1130 C1138 1.378 . S
C1131 C1130 1.367 . S
C1131 C1139 1.433 . S
C1132 H1128 0.929 . S
C1132 C1134 1.378 . S
C1132 C1136 1.350 . S
C1133 C1136 1.463 1_455 S
C1133 C1138 1.350 . S
C1133 N1141 1.427 . S
C1134 H1125 0.930 . S
C1134 C1132 1.378 . S
C1134 C1135 1.367 . S
C1135 C1134 1.367 . S
C1135 C1137 1.433 . S
C1136 C1132 1.350 . S
C1136 C1133 1.463 1_655 S
C1136 N1140 1.427 . S
C1137 H1127 0.929 . S
C1137 C1135 1.433 . S
C1137 N1140 1.384 . S
C1138 H1129 0.929 . S
C1138 C1130 1.378 . S
C1138 C1133 1.350 . S
C1139 H1126 0.929 . S
C1139 C1131 1.433 . S
C1139 N1141 1.384 . S
N1140 C1136 1.427 . S
N1140 C1137 1.384 . S
N1141 C1133 1.427 . S
N1141 C1139 1.384 . S
H1142 C1148 0.930 . S
H1143 C1152 0.930 . S
H1144 C1157 0.929 . S
H1145 C1155 0.929 . S
H1146 C1150 0.929 . S
H1147 C1156 0.929 . S
C1148 H1142 0.930 . S
C1148 C1149 1.367 . S
C1148 C1156 1.378 . S
C1149 C1148 1.367 . S
C1149 C1157 1.433 . S
C1150 H1146 0.929 . S
C1150 C1152 1.378 . S
C1150 C1154 1.350 . S
C1151 C1154 1.463 . S
C1151 C1156 1.350 . S
C1151 N1159 1.427 . S
C1152 H1143 0.930 . S
C1152 C1150 1.378 . S
C1152 C1153 1.367 . S
C1153 C1152 1.367 . S
C1153 C1155 1.433 . S
C1154 C1150 1.350 . S
C1154 C1151 1.463 . S
C1154 N1158 1.427 . S
C1155 H1145 0.929 . S
C1155 C1153 1.433 . S
C1155 N1158 1.384 . S
C1156 H1147 0.929 . S
C1156 C1148 1.378 . S
C1156 C1151 1.350 . S
C1157 H1144 0.929 . S
C1157 C1149 1.433 . S
C1157 N1159 1.384 . S
N1158 C1154 1.427 . S
N1158 C1155 1.384 . S
N1159 C1151 1.427 . S
N1159 C1157 1.384 . S
H1160 C1166 0.930 . S
H1161 C1170 0.930 . S
H1162 C1175 0.929 . S
H1163 C1173 0.929 . S
H1164 C1168 0.929 . S
H1165 C1174 0.929 . S
C1166 H1160 0.930 . S
C1166 C1167 1.367 . S
C1166 C1174 1.378 . S
C1167 C1166 1.367 . S
C1167 C1175 1.433 . S
C1168 H1164 0.929 . S
C1168 C1170 1.378 . S
C1168 C1172 1.350 . S
C1169 C1172 1.463 . S
C1169 C1174 1.350 . S
C1169 N1177 1.427 . S
C1170 H1161 0.930 . S
C1170 C1168 1.378 . S
C1170 C1171 1.367 . S
C1171 C1170 1.367 . S
C1171 C1173 1.433 . S
C1172 C1168 1.350 . S
C1172 C1169 1.463 . S
C1172 N1176 1.427 . S
C1173 H1163 0.929 . S
C1173 C1171 1.433 . S
C1173 N1176 1.384 . S
C1174 H1165 0.929 . S
C1174 C1166 1.378 . S
C1174 C1169 1.350 . S
C1175 H1162 0.929 . S
C1175 C1167 1.433 . S
C1175 N1177 1.384 . S
N1176 C1172 1.427 . S
N1176 C1173 1.384 . S
N1177 C1169 1.427 . S
N1177 C1175 1.384 . S
H1178 C1184 0.930 . S
H1179 C1188 0.930 . S
H1180 C1193 0.929 . S
H1181 C1191 0.929 . S
H1182 C1186 0.929 . S
H1183 C1192 0.929 . S
C1184 H1178 0.930 . S
C1184 C1185 1.367 . S
C1184 C1192 1.378 . S
C1185 C1184 1.367 . S
C1185 C1193 1.433 . S
C1186 H1182 0.929 . S
C1186 C1188 1.378 . S
C1186 C1190 1.350 . S
C1187 C1190 1.463 1_565 S
C1187 C1192 1.350 . S
C1187 N1195 1.427 . S
C1188 H1179 0.930 . S
C1188 C1186 1.378 . S
C1188 C1189 1.367 . S
C1189 C1188 1.367 . S
C1189 C1191 1.433 . S
C1190 C1186 1.350 . S
C1190 C1187 1.463 1_545 S
C1190 N1194 1.427 . S
C1191 H1181 0.929 . S
C1191 C1189 1.433 . S
C1191 N1194 1.384 . S
C1192 H1183 0.929 . S
C1192 C1184 1.378 . S
C1192 C1187 1.350 . S
C1193 H1180 0.929 . S
C1193 C1185 1.433 . S
C1193 N1195 1.384 . S
N1194 C1190 1.427 . S
N1194 C1191 1.384 . S
N1195 C1187 1.427 . S
N1195 C1193 1.384 . S
H1196 C1202 0.930 1_545 S
H1197 C1206 0.930 1_565 S
H1198 C1211 0.929 . S
H1199 C1209 0.929 . S
H1200 C1204 0.929 . S
H1201 C1210 0.929 . S
C1202 H1196 0.930 1_565 S
C1202 C1203 1.367 . S
C1202 C1210 1.378 1_565 S
C1203 C1202 1.367 . S
C1203 C1211 1.433 . S
C1204 H1200 0.929 . S
C1204 C1206 1.378 1_565 S
C1204 C1208 1.350 1_565 S
C1205 C1208 1.463 1_665 S
C1205 C1210 1.350 1_565 S
C1205 N1213 1.427 . S
C1206 H1197 0.930 1_545 S
C1206 C1204 1.378 1_545 S
C1206 C1207 1.367 . S
C1207 C1206 1.367 . S
C1207 C1209 1.433 . S
C1208 C1204 1.350 1_545 S
C1208 C1205 1.463 1_445 S
C1208 N1212 1.427 . S
C1209 H1199 0.929 . S
C1209 C1207 1.433 . S
C1209 N1212 1.384 . S
C1210 H1201 0.929 . S
C1210 C1202 1.378 1_545 S
C1210 C1205 1.350 1_545 S
C1211 H1198 0.929 . S
C1211 C1203 1.433 . S
C1211 N1213 1.384 . S
N1212 C1208 1.427 . S
N1212 C1209 1.384 . S
N1213 C1205 1.427 . S
N1213 C1211 1.384 . S
H1214 C1220 0.930 . S
H1215 C1224 0.930 . S
H1216 C1229 0.929 . S
H1217 C1227 0.929 . S
H1218 C1222 0.929 1_455 S
H1219 C1228 0.929 1_655 S
C1220 H1214 0.930 . S
C1220 C1221 1.367 . S
C1220 C1228 1.378 . S
C1221 C1220 1.367 . S
C1221 C1229 1.433 . S
C1222 H1218 0.929 1_655 S
C1222 C1224 1.378 . S
C1222 C1226 1.350 . S
C1223 C1226 1.463 1_455 S
C1223 C1228 1.350 . S
C1223 N1231 1.427 . S
C1224 H1215 0.930 . S
C1224 C1222 1.378 . S
C1224 C1225 1.367 . S
C1225 C1224 1.367 . S
C1225 C1227 1.433 . S
C1226 C1222 1.350 . S
C1226 C1223 1.463 1_655 S
C1226 N1230 1.427 . S
C1227 H1217 0.929 . S
C1227 C1225 1.433 . S
C1227 N1230 1.384 . S
C1228 H1219 0.929 1_455 S
C1228 C1220 1.378 . S
C1228 C1223 1.350 . S
C1229 H1216 0.929 . S
C1229 C1221 1.433 . S
C1229 N1231 1.384 . S
N1230 C1226 1.427 . S
N1230 C1227 1.384 . S
N1231 C1223 1.427 . S
N1231 C1229 1.384 . S
H1232 C1238 0.930 . S
H1233 C1242 0.930 . S
H1234 C1247 0.929 . S
H1235 C1245 0.929 . S
H1236 C1240 0.929 . S
H1237 C1246 0.929 . S
C1238 H1232 0.930 . S
C1238 C1239 1.367 . S
C1238 C1246 1.378 . S
C1239 C1238 1.367 . S
C1239 C1247 1.433 . S
C1240 H1236 0.929 . S
C1240 C1242 1.378 . S
C1240 C1244 1.350 . S
C1241 C1244 1.463 . S
C1241 C1246 1.350 . S
C1241 N1249 1.427 . S
C1242 H1233 0.930 . S
C1242 C1240 1.378 . S
C1242 C1243 1.367 . S
C1243 C1242 1.367 . S
C1243 C1245 1.433 . S
C1244 C1240 1.350 . S
C1244 C1241 1.463 . S
C1244 N1248 1.427 . S
C1245 H1235 0.929 . S
C1245 C1243 1.433 . S
C1245 N1248 1.384 . S
C1246 H1237 0.929 . S
C1246 C1238 1.378 . S
C1246 C1241 1.350 . S
C1247 H1234 0.929 . S
C1247 C1239 1.433 . S
C1247 N1249 1.384 . S
N1248 C1244 1.427 . S
N1248 C1245 1.384 . S
N1249 C1241 1.427 . S
N1249 C1247 1.384 . S
H1250 C1256 0.930 . S
H1251 C1260 0.930 . S
H1252 C1265 0.929 . S
H1253 C1263 0.929 . S
H1254 C1258 0.929 . S
H1255 C1264 0.929 . S
C1256 H1250 0.930 . S
C1256 C1257 1.367 . S
C1256 C1264 1.378 . S
C1257 C1256 1.367 . S
C1257 C1265 1.433 . S
C1258 H1254 0.929 . S
C1258 C1260 1.378 . S
C1258 C1262 1.350 . S
C1259 C1262 1.463 . S
C1259 C1264 1.350 . S
C1259 N1267 1.427 . S
C1260 H1251 0.930 . S
C1260 C1258 1.378 . S
C1260 C1261 1.367 . S
C1261 C1260 1.367 . S
C1261 C1263 1.433 . S
C1262 C1258 1.350 . S
C1262 C1259 1.463 . S
C1262 N1266 1.427 . S
C1263 H1253 0.929 . S
C1263 C1261 1.433 . S
C1263 N1266 1.384 . S
C1264 H1255 0.929 . S
C1264 C1256 1.378 . S
C1264 C1259 1.350 . S
C1265 H1252 0.929 . S
C1265 C1257 1.433 . S
C1265 N1267 1.384 . S
N1266 C1262 1.427 . S
N1266 C1263 1.384 . S
N1267 C1259 1.427 . S
N1267 C1265 1.384 . S
H1268 C1274 0.930 . S
H1269 C1278 0.930 . S
H1270 C1283 0.929 . S
H1271 C1281 0.929 . S
H1272 C1276 0.929 . S
H1273 C1282 0.929 . S
C1274 H1268 0.930 . S
C1274 C1275 1.367 . S
C1274 C1282 1.378 . S
C1275 C1274 1.367 . S
C1275 C1283 1.433 . S
C1276 H1272 0.929 . S
C1276 C1278 1.378 . S
C1276 C1280 1.350 . S
C1277 C1280 1.463 . S
C1277 C1282 1.350 . S
C1277 N1285 1.427 . S
C1278 H1269 0.930 . S
C1278 C1276 1.378 . S
C1278 C1279 1.367 . S
C1279 C1278 1.367 . S
C1279 C1281 1.433 . S
C1280 C1276 1.350 . S
C1280 C1277 1.463 . S
C1280 N1284 1.427 . S
C1281 H1271 0.929 . S
C1281 C1279 1.433 . S
C1281 N1284 1.384 . S
C1282 H1273 0.929 . S
C1282 C1274 1.378 . S
C1282 C1277 1.350 . S
C1283 H1270 0.929 . S
C1283 C1275 1.433 . S
C1283 N1285 1.384 . S
N1284 C1280 1.427 . S
N1284 C1281 1.384 . S
N1285 C1277 1.427 . S
N1285 C1283 1.384 . S
H1286 C1292 0.930 . S
H1287 C1296 0.930 . S
H1288 C1301 0.929 . S
H1289 C1299 0.929 . S
H1290 C1294 0.929 . S
H1291 C1300 0.929 . S
C1292 H1286 0.930 . S
C1292 C1293 1.367 . S
C1292 C1300 1.378 . S
C1293 C1292 1.367 . S
C1293 C1301 1.433 . S
C1294 H1290 0.929 . S
C1294 C1296 1.378 . S
C1294 C1298 1.350 . S
C1295 C1298 1.463 . S
C1295 C1300 1.350 . S
C1295 N1303 1.427 . S
C1296 H1287 0.930 . S
C1296 C1294 1.378 . S
C1296 C1297 1.367 . S
C1297 C1296 1.367 . S
C1297 C1299 1.433 . S
C1298 C1294 1.350 . S
C1298 C1295 1.463 . S
C1298 N1302 1.427 . S
C1299 H1289 0.929 . S
C1299 C1297 1.433 . S
C1299 N1302 1.384 . S
C1300 H1291 0.929 . S
C1300 C1292 1.378 . S
C1300 C1295 1.350 . S
C1301 H1288 0.929 . S
C1301 C1293 1.433 . S
C1301 N1303 1.384 . S
N1302 C1298 1.427 . S
N1302 C1299 1.384 . S
N1303 C1295 1.427 . S
N1303 C1301 1.384 . S
H1304 C1310 0.930 . S
H1305 C1314 0.930 . S
H1306 C1319 0.929 . S
H1307 C1317 0.929 . S
H1308 C1312 0.929 . S
H1309 C1318 0.929 . S
C1310 H1304 0.930 . S
C1310 C1311 1.367 . S
C1310 C1318 1.378 . S
C1311 C1310 1.367 . S
C1311 C1319 1.433 . S
C1312 H1308 0.929 . S
C1312 C1314 1.378 . S
C1312 C1316 1.350 . S
C1313 C1316 1.463 . S
C1313 C1318 1.350 . S
C1313 N1321 1.427 . S
C1314 H1305 0.930 . S
C1314 C1312 1.378 . S
C1314 C1315 1.367 . S
C1315 C1314 1.367 . S
C1315 C1317 1.433 . S
C1316 C1312 1.350 . S
C1316 C1313 1.463 . S
C1316 N1320 1.427 . S
C1317 H1307 0.929 . S
C1317 C1315 1.433 . S
C1317 N1320 1.384 . S
C1318 H1309 0.929 . S
C1318 C1310 1.378 . S
C1318 C1313 1.350 . S
C1319 H1306 0.929 . S
C1319 C1311 1.433 . S
C1319 N1321 1.384 . S
N1320 C1316 1.427 . S
N1320 C1317 1.384 . S
N1321 C1313 1.427 . S
N1321 C1319 1.384 . S
H1322 C1328 0.930 . S
H1323 C1332 0.930 . S
H1324 C1337 0.929 . S
H1325 C1335 0.929 . S
H1326 C1330 0.929 . S
H1327 C1336 0.929 . S
C1328 H1322 0.930 . S
C1328 C1329 1.367 . S
C1328 C1336 1.378 . S
C1329 C1328 1.367 . S
C1329 C1337 1.433 . S
C1330 H1326 0.929 . S
C1330 C1332 1.378 . S
C1330 C1334 1.350 . S
C1331 C1334 1.463 . S
C1331 C1336 1.350 . S
C1331 N1339 1.427 . S
C1332 H1323 0.930 . S
C1332 C1330 1.378 . S
C1332 C1333 1.367 . S
C1333 C1332 1.367 . S
C1333 C1335 1.433 . S
C1334 C1330 1.350 . S
C1334 C1331 1.463 . S
C1334 N1338 1.427 . S
C1335 H1325 0.929 . S
C1335 C1333 1.433 . S
C1335 N1338 1.384 . S
C1336 H1327 0.929 . S
C1336 C1328 1.378 . S
C1336 C1331 1.350 . S
C1337 H1324 0.929 . S
C1337 C1329 1.433 . S
C1337 N1339 1.384 . S
N1338 C1334 1.427 . S
N1338 C1335 1.384 . S
N1339 C1331 1.427 . S
N1339 C1337 1.384 . S
H1340 C1346 0.930 . S
H1341 C1350 0.930 . S
H1342 C1355 0.929 . S
H1343 C1353 0.929 . S
H1344 C1348 0.929 . S
H1345 C1354 0.929 . S
C1346 H1340 0.930 . S
C1346 C1347 1.367 . S
C1346 C1354 1.378 . S
C1347 C1346 1.367 . S
C1347 C1355 1.433 . S
C1348 H1344 0.929 . S
C1348 C1350 1.378 . S
C1348 C1352 1.350 . S
C1349 C1352 1.463 . S
C1349 C1354 1.350 . S
C1349 N1357 1.427 . S
C1350 H1341 0.930 . S
C1350 C1348 1.378 . S
C1350 C1351 1.367 . S
C1351 C1350 1.367 . S
C1351 C1353 1.433 . S
C1352 C1348 1.350 . S
C1352 C1349 1.463 . S
C1352 N1356 1.427 . S
C1353 H1343 0.929 . S
C1353 C1351 1.433 . S
C1353 N1356 1.384 . S
C1354 H1345 0.929 . S
C1354 C1346 1.378 . S
C1354 C1349 1.350 . S
C1355 H1342 0.929 . S
C1355 C1347 1.433 . S
C1355 N1357 1.384 . S
N1356 C1352 1.427 . S
N1356 C1353 1.384 . S
N1357 C1349 1.427 . S
N1357 C1355 1.384 . S
H1358 C1364 0.930 . S
H1359 C1368 0.930 . S
H1360 C1373 0.929 . S
H1361 C1371 0.929 . S
H1362 C1366 0.929 . S
H1363 C1372 0.929 . S
C1364 H1358 0.930 . S
C1364 C1365 1.367 . S
C1364 C1372 1.378 . S
C1365 C1364 1.367 . S
C1365 C1373 1.433 . S
C1366 H1362 0.929 . S
C1366 C1368 1.378 . S
C1366 C1370 1.350 . S
C1367 C1370 1.463 . S
C1367 C1372 1.350 . S
C1367 N1375 1.427 . S
C1368 H1359 0.930 . S
C1368 C1366 1.378 . S
C1368 C1369 1.367 . S
C1369 C1368 1.367 . S
C1369 C1371 1.433 . S
C1370 C1366 1.350 . S
C1370 C1367 1.463 . S
C1370 N1374 1.427 . S
C1371 H1361 0.929 . S
C1371 C1369 1.433 . S
C1371 N1374 1.384 . S
C1372 H1363 0.929 . S
C1372 C1364 1.378 . S
C1372 C1367 1.350 . S
C1373 H1360 0.929 . S
C1373 C1365 1.433 . S
C1373 N1375 1.384 . S
N1374 C1370 1.427 . S
N1374 C1371 1.384 . S
N1375 C1367 1.427 . S
N1375 C1373 1.384 . S
H1376 C1382 0.930 . S
H1377 C1386 0.930 . S
H1378 C1391 0.929 . S
H1379 C1389 0.929 . S
H1380 C1384 0.929 . S
H1381 C1390 0.929 . S
C1382 H1376 0.930 . S
C1382 C1383 1.367 . S
C1382 C1390 1.378 . S
C1383 C1382 1.367 . S
C1383 C1391 1.433 . S
C1384 H1380 0.929 . S
C1384 C1386 1.378 . S
C1384 C1388 1.350 . S
C1385 C1388 1.463 . S
C1385 C1390 1.350 . S
C1385 N1393 1.427 . S
C1386 H1377 0.930 . S
C1386 C1384 1.378 . S
C1386 C1387 1.367 . S
C1387 C1386 1.367 . S
C1387 C1389 1.433 . S
C1388 C1384 1.350 . S
C1388 C1385 1.463 . S
C1388 N1392 1.427 . S
C1389 H1379 0.929 . S
C1389 C1387 1.433 . S
C1389 N1392 1.384 . S
C1390 H1381 0.929 . S
C1390 C1382 1.378 . S
C1390 C1385 1.350 . S
C1391 H1378 0.929 . S
C1391 C1383 1.433 . S
C1391 N1393 1.384 . S
N1392 C1388 1.427 . S
N1392 C1389 1.384 . S
N1393 C1385 1.427 . S
N1393 C1391 1.384 . S
H1394 C1400 0.930 . S
H1395 C1404 0.930 . S
H1396 C1409 0.929 . S
H1397 C1407 0.929 . S
H1398 C1402 0.929 . S
H1399 C1408 0.929 . S
C1400 H1394 0.930 . S
C1400 C1401 1.367 . S
C1400 C1408 1.378 . S
C1401 C1400 1.367 . S
C1401 C1409 1.433 . S
C1402 H1398 0.929 . S
C1402 C1404 1.378 . S
C1402 C1406 1.350 . S
C1403 C1406 1.463 . S
C1403 C1408 1.350 . S
C1403 N1411 1.427 . S
C1404 H1395 0.930 . S
C1404 C1402 1.378 . S
C1404 C1405 1.367 . S
C1405 C1404 1.367 . S
C1405 C1407 1.433 . S
C1406 C1402 1.350 . S
C1406 C1403 1.463 . S
C1406 N1410 1.427 . S
C1407 H1397 0.929 . S
C1407 C1405 1.433 . S
C1407 N1410 1.384 . S
C1408 H1399 0.929 . S
C1408 C1400 1.378 . S
C1408 C1403 1.350 . S
C1409 H1396 0.929 . S
C1409 C1401 1.433 . S
C1409 N1411 1.384 . S
N1410 C1406 1.427 . S
N1410 C1407 1.384 . S
N1411 C1403 1.427 . S
N1411 C1409 1.384 . S
H1412 C1418 0.930 . S
H1413 C1422 0.930 . S
H1414 C1427 0.929 . S
H1415 C1425 0.929 . S
H1416 C1420 0.929 . S
H1417 C1426 0.929 . S
C1418 H1412 0.930 . S
C1418 C1419 1.367 . S
C1418 C1426 1.378 . S
C1419 C1418 1.367 . S
C1419 C1427 1.433 . S
C1420 H1416 0.929 . S
C1420 C1422 1.378 . S
C1420 C1424 1.350 . S
C1421 C1424 1.463 . S
C1421 C1426 1.350 . S
C1421 N1429 1.427 . S
C1422 H1413 0.930 . S
C1422 C1420 1.378 . S
C1422 C1423 1.367 . S
C1423 C1422 1.367 . S
C1423 C1425 1.433 . S
C1424 C1420 1.350 . S
C1424 C1421 1.463 . S
C1424 N1428 1.427 . S
C1425 H1415 0.929 . S
C1425 C1423 1.433 . S
C1425 N1428 1.384 . S
C1426 H1417 0.929 . S
C1426 C1418 1.378 . S
C1426 C1421 1.350 . S
C1427 H1414 0.929 . S
C1427 C1419 1.433 . S
C1427 N1429 1.384 . S
N1428 C1424 1.427 . S
N1428 C1425 1.384 . S
N1429 C1421 1.427 . S
N1429 C1427 1.384 . S
H1430 C1436 0.930 . S
H1431 C1440 0.930 . S
H1432 C1445 0.929 . S
H1433 C1443 0.929 . S
H1434 C1438 0.929 . S
H1435 C1444 0.929 . S
C1436 H1430 0.930 . S
C1436 C1437 1.367 . S
C1436 C1444 1.378 . S
C1437 C1436 1.367 . S
C1437 C1445 1.433 . S
C1438 H1434 0.929 . S
C1438 C1440 1.378 . S
C1438 C1442 1.350 . S
C1439 C1442 1.463 1_556 S
C1439 C1444 1.350 . S
C1439 N1447 1.427 . S
C1440 H1431 0.930 . S
C1440 C1438 1.378 . S
C1440 C1441 1.367 . S
C1441 C1440 1.367 . S
C1441 C1443 1.433 . S
C1442 C1438 1.350 . S
C1442 C1439 1.463 1_554 S
C1442 N1446 1.427 . S
C1443 H1433 0.929 . S
C1443 C1441 1.433 . S
C1443 N1446 1.384 . S
C1444 H1435 0.929 . S
C1444 C1436 1.378 . S
C1444 C1439 1.350 . S
C1445 H1432 0.929 . S
C1445 C1437 1.433 . S
C1445 N1447 1.384 . S
N1446 C1442 1.427 . S
N1446 C1443 1.384 . S
N1447 C1439 1.427 . S
N1447 C1445 1.384 . S
H1448 C1454 0.930 . S
H1449 C1458 0.930 . S
H1450 C1463 0.929 . S
H1451 C1461 0.929 . S
H1452 C1456 0.929 . S
H1453 C1462 0.929 . S
C1454 H1448 0.930 . S
C1454 C1455 1.367 . S
C1454 C1462 1.378 . S
C1455 C1454 1.367 . S
C1455 C1463 1.433 . S
C1456 H1452 0.929 . S
C1456 C1458 1.378 . S
C1456 C1460 1.350 . S
C1457 C1460 1.463 1_554 S
C1457 C1462 1.350 . S
C1457 N1465 1.427 . S
C1458 H1449 0.930 . S
C1458 C1456 1.378 . S
C1458 C1459 1.367 . S
C1459 C1458 1.367 . S
C1459 C1461 1.433 . S
C1460 C1456 1.350 . S
C1460 C1457 1.463 1_556 S
C1460 N1464 1.427 . S
C1461 H1451 0.929 . S
C1461 C1459 1.433 . S
C1461 N1464 1.384 . S
C1462 H1453 0.929 . S
C1462 C1454 1.378 . S
C1462 C1457 1.350 . S
C1463 H1450 0.929 . S
C1463 C1455 1.433 . S
C1463 N1465 1.384 . S
N1464 C1460 1.427 . S
N1464 C1461 1.384 . S
N1465 C1457 1.427 . S
N1465 C1463 1.384 . S
H1466 C1472 0.930 . S
H1467 C1476 0.930 . S
H1468 C1481 0.929 . S
H1469 C1479 0.929 . S
H1470 C1474 0.929 . S
H1471 C1480 0.929 . S
C1472 H1466 0.930 . S
C1472 C1473 1.367 . S
C1472 C1480 1.378 . S
C1473 C1472 1.367 . S
C1473 C1481 1.433 . S
C1474 H1470 0.929 . S
C1474 C1476 1.378 . S
C1474 C1478 1.350 . S
C1475 C1478 1.463 . S
C1475 C1480 1.350 . S
C1475 N1483 1.427 . S
C1476 H1467 0.930 . S
C1476 C1474 1.378 . S
C1476 C1477 1.367 . S
C1477 C1476 1.367 . S
C1477 C1479 1.433 . S
C1478 C1474 1.350 . S
C1478 C1475 1.463 . S
C1478 N1482 1.427 . S
C1479 H1469 0.929 . S
C1479 C1477 1.433 . S
C1479 N1482 1.384 . S
C1480 H1471 0.929 . S
C1480 C1472 1.378 . S
C1480 C1475 1.350 . S
C1481 H1468 0.929 . S
C1481 C1473 1.433 . S
C1481 N1483 1.384 . S
N1482 C1478 1.427 . S
N1482 C1479 1.384 . S
N1483 C1475 1.427 . S
N1483 C1481 1.384 . S
H1484 C1490 0.930 . S
H1485 C1494 0.930 . S
H1486 C1499 0.929 . S
H1487 C1497 0.929 . S
H1488 C1492 0.929 . S
H1489 C1498 0.929 . S
C1490 H1484 0.930 . S
C1490 C1491 1.367 . S
C1490 C1498 1.378 . S
C1491 C1490 1.367 . S
C1491 C1499 1.433 . S
C1492 H1488 0.929 . S
C1492 C1494 1.378 . S
C1492 C1496 1.350 . S
C1493 C1496 1.463 . S
C1493 C1498 1.350 . S
C1493 N1501 1.427 . S
C1494 H1485 0.930 . S
C1494 C1492 1.378 . S
C1494 C1495 1.367 . S
C1495 C1494 1.367 . S
C1495 C1497 1.433 . S
C1496 C1492 1.350 . S
C1496 C1493 1.463 . S
C1496 N1500 1.427 . S
C1497 H1487 0.929 . S
C1497 C1495 1.433 . S
C1497 N1500 1.384 . S
C1498 H1489 0.929 . S
C1498 C1490 1.378 . S
C1498 C1493 1.350 . S
C1499 H1486 0.929 . S
C1499 C1491 1.433 . S
C1499 N1501 1.384 . S
N1500 C1496 1.427 . S
N1500 C1497 1.384 . S
N1501 C1493 1.427 . S
N1501 C1499 1.384 . S
H1502 C1508 0.930 . S
H1503 C1512 0.930 . S
H1504 C1517 0.929 . S
H1505 C1515 0.929 . S
H1506 C1510 0.929 . S
H1507 C1516 0.929 . S
C1508 H1502 0.930 . S
C1508 C1509 1.367 . S
C1508 C1516 1.378 . S
C1509 C1508 1.367 . S
C1509 C1517 1.433 . S
C1510 H1506 0.929 . S
C1510 C1512 1.378 . S
C1510 C1514 1.350 . S
C1511 C1514 1.463 . S
C1511 C1516 1.350 . S
C1511 N1519 1.427 . S
C1512 H1503 0.930 . S
C1512 C1510 1.378 . S
C1512 C1513 1.367 . S
C1513 C1512 1.367 . S
C1513 C1515 1.433 . S
C1514 C1510 1.350 . S
C1514 C1511 1.463 . S
C1514 N1518 1.427 . S
C1515 H1505 0.929 . S
C1515 C1513 1.433 . S
C1515 N1518 1.384 . S
C1516 H1507 0.929 . S
C1516 C1508 1.378 . S
C1516 C1511 1.350 . S
C1517 H1504 0.929 . S
C1517 C1509 1.433 . S
C1517 N1519 1.384 . S
N1518 C1514 1.427 . S
N1518 C1515 1.384 . S
N1519 C1511 1.427 . S
N1519 C1517 1.384 . S
C951 C595 1.451 . S
C955 C5 1.448 . S
C969 C64 1.451 . S
C973 C654 1.453 . S
C987 C477 1.451 . S
C991 C123 1.448 . S
C1005 C536 1.450 . S
C1009 C182 1.453 . S
C1023 C241 1.451 . S
C1027 C831 1.453 . S
C1041 C890 1.451 . S
C1045 C300 1.448 . S
C1059 C359 1.452 . S
C1063 C713 1.450 . S
C1077 C772 1.450 . S
C1081 C418 1.452 . S
C1095 C642 1.668 . S
C1099 C52 1.665 . S
C1113 C111 1.665 . S
C1117 C701 1.665 . S
C1131 C170 1.665 . S
C1135 C524 1.668 . S
C1149 C229 1.665 . S
C1153 C583 1.667 . S
C1167 C288 1.666 . S
C1171 C878 1.666 . S
C1185 C347 1.665 . S
C1189 C937 1.666 . S
C1203 C760 1.665 . S
C1207 C406 1.666 . S
C1221 C819 1.665 . S
C1225 C465 1.668 . S
C1239 C3 1.413 . S
C1243 C357 1.406 . S
C1257 C62 1.407 . S
C1261 C416 1.404 . S
C1275 C121 1.413 . S
C1279 C239 1.406 . S
C1293 C180 1.409 . S
C1297 C298 1.404 . S
C1311 C475 1.413 . S
C1315 C829 1.406 . S
C1329 C888 1.405 . S
C1333 C534 1.412 . S
C1347 C593 1.404 . S
C1351 C711 1.411 . S
C1365 C770 1.408 . S
C1369 C652 1.404 . S
C1383 C33 1.273 . S
C1387 C918 1.271 . S
C1401 C741 1.274 . S
C1405 C92 1.277 . S
C1419 C800 1.270 . S
C1423 C151 1.278 . S
C1437 C859 1.270 . S
C1441 C210 1.273 . S
C1455 C564 1.272 . S
C1459 C269 1.279 . S
C1473 C623 1.276 . S
C1477 C328 1.269 . S
C1491 C387 1.270 . S
C1495 C682 1.278 . S
C1509 C446 1.270 . S
C1513 C505 1.278 . S
