# Generated by pormake.
# Topology wfa, (4)-cn, num edge types: 1
# Building blocks:
#     Node 0, Type 0, BuildingBlock: ICAMEG_clean_sbu_1, # of connection points: 4
#     Node 1, Type 0, BuildingBlock: ICAMEG_clean_sbu_1, # of connection points: 4
#     Node 2, Type 0, BuildingBlock: ICAMEG_clean_sbu_1, # of connection points: 4
#     Node 3, Type 0, BuildingBlock: ICAMEG_clean_sbu_1, # of connection points: 4
#     Node 4, Type 0, BuildingBlock: ICAMEG_clean_sbu_1, # of connection points: 4
#     Node 5, Type 0, BuildingBlock: ICAMEG_clean_sbu_1, # of connection points: 4
#     Node 6, Type 0, BuildingBlock: ICAMEG_clean_sbu_1, # of connection points: 4
#     Node 7, Type 0, BuildingBlock: ICAMEG_clean_sbu_1, # of connection points: 4
#     Node 8, Type 0, BuildingBlock: ICAMEG_clean_sbu_1, # of connection points: 4
#     Node 9, Type 0, BuildingBlock: ICAMEG_clean_sbu_1, # of connection points: 4
#     Node 10, Type 0, BuildingBlock: ICAMEG_clean_sbu_1, # of connection points: 4
#     Node 11, Type 0, BuildingBlock: ICAMEG_clean_sbu_1, # of connection points: 4
#     Node 12, Type 0, BuildingBlock: ICAMEG_clean_sbu_1, # of connection points: 4
#     Node 13, Type 0, BuildingBlock: ICAMEG_clean_sbu_1, # of connection points: 4
#     Node 14, Type 0, BuildingBlock: ICAMEG_clean_sbu_1, # of connection points: 4
#     Node 15, Type 0, BuildingBlock: ICAMEG_clean_sbu_1, # of connection points: 4
#     Edge 16, Type (0, 0), BuildingBlock: CIFDUS_clean_linker_0, # of connection points: 2
#     Edge 17, Type (0, 0), BuildingBlock: CIFDUS_clean_linker_0, # of connection points: 2
#     Edge 18, Type (0, 0), BuildingBlock: CIFDUS_clean_linker_0, # of connection points: 2
#     Edge 19, Type (0, 0), BuildingBlock: CIFDUS_clean_linker_0, # of connection points: 2
#     Edge 20, Type (0, 0), BuildingBlock: CIFDUS_clean_linker_0, # of connection points: 2
#     Edge 21, Type (0, 0), BuildingBlock: CIFDUS_clean_linker_0, # of connection points: 2
#     Edge 22, Type (0, 0), BuildingBlock: CIFDUS_clean_linker_0, # of connection points: 2
#     Edge 23, Type (0, 0), BuildingBlock: CIFDUS_clean_linker_0, # of connection points: 2
#     Edge 24, Type (0, 0), BuildingBlock: CIFDUS_clean_linker_0, # of connection points: 2
#     Edge 25, Type (0, 0), BuildingBlock: CIFDUS_clean_linker_0, # of connection points: 2
#     Edge 26, Type (0, 0), BuildingBlock: CIFDUS_clean_linker_0, # of connection points: 2
#     Edge 27, Type (0, 0), BuildingBlock: CIFDUS_clean_linker_0, # of connection points: 2
#     Edge 28, Type (0, 0), BuildingBlock: CIFDUS_clean_linker_0, # of connection points: 2
#     Edge 29, Type (0, 0), BuildingBlock: CIFDUS_clean_linker_0, # of connection points: 2
#     Edge 30, Type (0, 0), BuildingBlock: CIFDUS_clean_linker_0, # of connection points: 2
#     Edge 31, Type (0, 0), BuildingBlock: CIFDUS_clean_linker_0, # of connection points: 2
#     Edge 32, Type (0, 0), BuildingBlock: CIFDUS_clean_linker_0, # of connection points: 2
#     Edge 33, Type (0, 0), BuildingBlock: CIFDUS_clean_linker_0, # of connection points: 2
#     Edge 34, Type (0, 0), BuildingBlock: CIFDUS_clean_linker_0, # of connection points: 2
#     Edge 35, Type (0, 0), BuildingBlock: CIFDUS_clean_linker_0, # of connection points: 2
#     Edge 36, Type (0, 0), BuildingBlock: CIFDUS_clean_linker_0, # of connection points: 2
#     Edge 37, Type (0, 0), BuildingBlock: CIFDUS_clean_linker_0, # of connection points: 2
#     Edge 38, Type (0, 0), BuildingBlock: CIFDUS_clean_linker_0, # of connection points: 2
#     Edge 39, Type (0, 0), BuildingBlock: CIFDUS_clean_linker_0, # of connection points: 2
#     Edge 40, Type (0, 0), BuildingBlock: CIFDUS_clean_linker_0, # of connection points: 2
#     Edge 41, Type (0, 0), BuildingBlock: CIFDUS_clean_linker_0, # of connection points: 2
#     Edge 42, Type (0, 0), BuildingBlock: CIFDUS_clean_linker_0, # of connection points: 2
#     Edge 43, Type (0, 0), BuildingBlock: CIFDUS_clean_linker_0, # of connection points: 2
#     Edge 44, Type (0, 0), BuildingBlock: CIFDUS_clean_linker_0, # of connection points: 2
#     Edge 45, Type (0, 0), BuildingBlock: CIFDUS_clean_linker_0, # of connection points: 2
#     Edge 46, Type (0, 0), BuildingBlock: CIFDUS_clean_linker_0, # of connection points: 2
#     Edge 47, Type (0, 0), BuildingBlock: CIFDUS_clean_linker_0, # of connection points: 2
# Relax obj value: 0.081
# Max RMSD: 0.215
# Mean RMSD: 0.187
data_MOF--net-wfa--node1-ICAMEG_clean_sbu_1--edge1-CIFDUS_clean_linker_0
_symmetry_space_group_name_H-M    P1
_symmetry_Int_Tables_number       1
_symmetry_cell_setting            triclinic
loop_
_symmetry_equiv_pos_as_xyz
'x, y, z'
_cell_length_a     42.063965
_cell_length_b     41.972828
_cell_length_c     23.45501
_cell_angle_alpha  89.165252
_cell_angle_beta   89.244887
_cell_angle_gamma 89.035303
loop_
_atom_site_label
_atom_site_type_symbol
_atom_site_fract_x
_atom_site_fract_y
_atom_site_fract_z
_atom_type_partial_charge
Co0 Co 0.67109 0.018 0.05669 0.0
Co1 Co 0.66024 0.08124 0.96247 0.0
O2 O 0.68609 0.04708 0.9968 0.0
C3 C 0.72586 0.0485 0.10921 0.0
O4 O 0.71364 0.07497 0.08781 0.0
C5 C 0.68556 0.04436 0.86394 0.0
O6 O 0.67825 0.0181 0.89189 0.0
O7 O 0.62494 0.0515 0.94847 0.0
O8 O 0.62833 0.01462 0.0189 0.0
H9 H 0.56041 0.14632 0.93061 0.0
H10 H 0.73296 0.00422 0.99998 0.0
O11 O 0.71291 0.02197 0.09814 0.0
H12 H 0.66579 0.91239 0.95876 0.0
H13 H 0.68304 0.92658 0.19643 0.0
H14 H 0.61102 0.01114 0.12327 0.0
H15 H 0.64506 0.95657 0.01762 0.0
H16 H 0.70076 0.96326 0.11965 0.0
O17 O 0.6795 0.07146 0.88582 0.0
H18 H 0.59301 0.1032 0.97386 0.0
H19 H 0.67311 0.13177 0.87478 0.0
H20 H 0.59223 0.97486 0.1997 0.0
H21 H 0.75476 0.96047 0.94122 0.0
H22 H 0.62837 0.93219 0.23679 0.0
H23 H 0.72102 0.91419 0.92017 0.0
O24 O 0.65365 0.05368 0.10175 0.0
H25 H 0.77421 0.11537 0.96248 0.0
H26 H 0.6639 0.14543 0.01486 0.0
H27 H 0.70743 0.18186 0.03635 0.0
H28 H 0.76305 0.16689 0.0101 0.0
H29 H 0.73001 0.07954 0.94216 0.0
H30 H 0.64127 0.17501 0.83003 0.0
H31 H 0.58453 0.18261 0.85817 0.0
O32 O 0.64027 0.09189 0.03796 0.0
C33 C 0.61343 0.02847 0.97787 0.0
C34 C 0.58513 0.14332 0.91814 0.0
C35 C 0.6305 0.1594 0.86164 0.0
N36 N 0.63502 0.11517 0.92732 0.0
C37 C 0.60375 0.11901 0.94262 0.0
C38 C 0.6484 0.13483 0.88704 0.0
C39 C 0.59867 0.16365 0.87743 0.0
C40 C 0.71829 0.98398 0.99142 0.0
N41 N 0.68787 0.98282 0.01235 0.0
C42 C 0.73069 0.95936 0.95796 0.0
C43 C 0.71173 0.93343 0.94608 0.0
C44 C 0.68072 0.93241 0.96768 0.0
C45 C 0.6691 0.95751 1.00086 0.0
C46 C 0.66703 0.94498 0.18045 0.0
C47 C 0.62677 0.99243 0.13876 0.0
C48 C 0.67693 0.96582 0.13701 0.0
N49 N 0.65677 0.98899 0.11642 0.0
C50 C 0.61605 0.97205 0.18224 0.0
C51 C 0.63635 0.94815 0.20308 0.0
C52 C 0.64049 0.08023 0.0885 0.0
C53 C 0.75006 0.12221 0.97394 0.0
C54 C 0.68804 0.13874 1.00333 0.0
C55 C 0.71259 0.15949 0.01553 0.0
C56 C 0.74379 0.15109 1.00075 0.0
N57 N 0.69438 0.11046 0.97697 0.0
C58 C 0.72491 0.10208 0.96229 0.0
Co59 Co 0.49964 0.64452 0.04433 0.0
Co60 Co 0.42967 0.63613 0.97093 0.0
O61 O 0.46739 0.66002 0.99104 0.0
C62 C 0.47833 0.70524 0.0945 0.0
O63 O 0.44949 0.69631 0.08227 0.0
C64 C 0.45951 0.65495 0.8596 0.0
O65 O 0.48708 0.64543 0.87984 0.0
O66 O 0.45578 0.59713 0.9542 0.0
O67 O 0.49714 0.60033 0.01346 0.0
H68 H 0.35702 0.54235 0.97684 0.0
H69 H 0.51301 0.70183 0.97353 0.0
O70 O 0.50216 0.68812 0.07881 0.0
H71 H 0.59514 0.62242 0.91853 0.0
H72 H 0.60119 0.65207 0.15412 0.0
H73 H 0.50768 0.58654 0.11699 0.0
H74 H 0.55523 0.60979 0.99318 0.0
H75 H 0.56039 0.67061 0.08608 0.0
O76 O 0.43427 0.65157 0.88968 0.0
H77 H 0.40499 0.57216 1.00037 0.0
H78 H 0.374 0.65003 0.89636 0.0
H79 H 0.54801 0.56697 0.18498 0.0
H80 H 0.55263 0.7156 0.89897 0.0
H81 H 0.59518 0.59984 0.20394 0.0
H82 H 0.59397 0.67567 0.8709 0.0
O83 O 0.46676 0.63347 0.1022 0.0
H84 H 0.40196 0.75309 0.96255 0.0
H85 H 0.37069 0.64815 0.03991 0.0
H86 H 0.33857 0.69587 0.06407 0.0
H87 H 0.35414 0.74882 0.02526 0.0
H88 H 0.43358 0.70482 0.93985 0.0
H89 H 0.32577 0.62092 0.87136 0.0
H90 H 0.31692 0.56688 0.91257 0.0
O91 O 0.42394 0.62065 0.05157 0.0
C92 C 0.47999 0.58489 0.97916 0.0
C93 C 0.36059 0.56595 0.95893 0.0
C94 C 0.34309 0.61002 0.89958 0.0
N95 N 0.39218 0.6129 0.95013 0.0
C96 C 0.38766 0.58299 0.97219 0.0
C97 C 0.37047 0.62636 0.9138 0.0
C98 C 0.33814 0.57968 0.92259 0.0
C99 C 0.53117 0.6845 0.96195 0.0
N100 N 0.53192 0.65512 0.98776 0.0
C101 C 0.55344 0.69236 0.91956 0.0
C102 C 0.5766 0.66992 0.90376 0.0
C103 C 0.57725 0.64003 0.93044 0.0
C104 C 0.55456 0.63299 0.97257 0.0
C105 C 0.58079 0.63749 0.14611 0.0
C106 C 0.52825 0.60088 0.1247 0.0
C107 C 0.55759 0.64789 0.1077 0.0
N108 N 0.53184 0.62954 0.0972 0.0
C109 C 0.55096 0.58972 0.16339 0.0
C110 C 0.5774 0.60818 0.17404 0.0
C111 C 0.43884 0.62249 0.09844 0.0
C112 C 0.39488 0.73014 0.97958 0.0
C113 C 0.37768 0.67111 0.02293 0.0
C114 C 0.35935 0.69804 0.03667 0.0
C115 C 0.36808 0.72773 0.01484 0.0
N116 N 0.40391 0.67365 0.98823 0.0
C117 C 0.41261 0.70269 0.96664 0.0
Co118 Co 0.86979 0.54301 0.10846 0.0
Co119 Co 0.86565 0.47549 0.02573 0.0
O120 O 0.84919 0.51672 0.05191 0.0
C121 C 0.80748 0.52919 0.1601 0.0
O122 O 0.81213 0.50065 0.13921 0.0
C123 C 0.85367 0.51406 0.92026 0.0
O124 O 0.8658 0.53873 0.94538 0.0
O125 O 0.9088 0.4932 0.01225 0.0
O126 O 0.91285 0.53413 0.0726 0.0
H127 H 0.94432 0.38422 0.01652 0.0
H128 H 0.81447 0.56999 0.04668 0.0
O129 O 0.82745 0.55104 0.14831 0.0
H130 H 0.90417 0.63917 0.99427 0.0
H131 H 0.87859 0.63918 0.23263 0.0
H132 H 0.92849 0.53694 0.17691 0.0
H133 H 0.91166 0.5939 0.06138 0.0
H134 H 0.85349 0.60536 0.16133 0.0
O135 O 0.85323 0.48701 0.94562 0.0
H136 H 0.92308 0.43592 0.04995 0.0
H137 H 0.84295 0.42776 0.94312 0.0
H138 H 0.95458 0.57013 0.24795 0.0
H139 H 0.80581 0.61515 0.97975 0.0
H140 H 0.9296 0.62169 0.2762 0.0
H141 H 0.85093 0.65 0.95296 0.0
O142 O 0.87614 0.50607 0.16025 0.0
H143 H 0.74638 0.47491 0.01423 0.0
H144 H 0.84135 0.41741 0.08562 0.0
H145 H 0.78818 0.39568 0.1055 0.0
H146 H 0.74023 0.42447 0.06963 0.0
H147 H 0.79995 0.49604 0.99595 0.0
H148 H 0.86346 0.37612 0.90815 0.0
H149 H 0.91443 0.35396 0.94509 0.0
O150 O 0.87779 0.46269 0.10517 0.0
C151 C 0.9249 0.51456 0.03653 0.0
C152 C 0.92203 0.39358 1.00024 0.0
C153 C 0.87667 0.38905 0.93936 0.0
N154 N 0.88169 0.43471 0.99886 0.0
C155 C 0.90984 0.42279 0.01913 0.0
C156 C 0.86521 0.41834 0.95923 0.0
C157 C 0.90527 0.37663 0.96012 0.0
C158 C 0.83408 0.5853 0.03569 0.0
N159 N 0.86347 0.57944 0.05799 0.0
C160 C 0.82909 0.61074 0.9976 0.0
C161 C 0.85444 0.63024 0.98251 0.0
C162 C 0.88433 0.62416 0.00563 0.0
C163 C 0.88844 0.59847 0.04349 0.0
C164 C 0.88977 0.61684 0.2205 0.0
C165 C 0.91764 0.55948 0.18862 0.0
C166 C 0.87567 0.59759 0.18019 0.0
N167 N 0.88977 0.56945 0.16439 0.0
C168 C 0.93244 0.5781 0.22905 0.0
C169 C 0.9184 0.60701 0.24493 0.0
C170 C 0.87958 0.47622 0.15337 0.0
C171 C 0.76711 0.4621 0.02993 0.0
C172 C 0.82061 0.43014 0.06997 0.0
C173 C 0.79056 0.41767 0.08126 0.0
C174 C 0.76367 0.43382 0.06109 0.0
N175 N 0.8238 0.45789 0.03936 0.0
C176 C 0.79753 0.47385 0.01942 0.0
Co177 Co 0.97865 0.84138 0.134 0.0
Co178 Co 0.03921 0.84838 0.03342 0.0
O179 O 0.00452 0.82524 0.07069 0.0
C180 C 0.00648 0.78152 0.17908 0.0
O181 O 0.03288 0.79118 0.15448 0.0
C182 C 0.99608 0.82873 0.94079 0.0
O183 O 0.9722 0.8388 0.97269 0.0
O184 O 0.01243 0.88794 0.0256 0.0
O185 O 0.97684 0.88519 0.09791 0.0
H186 H 0.1119 0.94082 1.0001 0.0
H187 H 0.95879 0.78268 0.07684 0.0
O188 O 0.98099 0.79817 0.17321 0.0
H189 H 0.87061 0.86 0.0488 0.0
H190 H 0.89192 0.83475 0.28347 0.0
H191 H 0.97757 0.90066 0.20157 0.0
H192 H 0.91795 0.87459 0.10302 0.0
H193 H 0.92473 0.81531 0.20277 0.0
O194 O 0.02458 0.83265 0.95714 0.0
H195 H 0.06855 0.9115 0.04795 0.0
H196 H 0.08352 0.83358 0.93669 0.0
H197 H 0.94516 0.92114 0.28191 0.0
H198 H 0.91178 0.76695 0.02274 0.0
H199 H 0.90197 0.88809 0.32337 0.0
H200 H 0.86732 0.80581 0.00827 0.0
O201 O 0.017 0.85364 0.17576 0.0
H202 H 0.06464 0.73113 0.01937 0.0
H203 H 0.10471 0.83567 0.07574 0.0
H204 H 0.13904 0.78784 0.08649 0.0
H205 H 0.11922 0.73522 0.05753 0.0
H206 H 0.03094 0.77955 0.0098 0.0
H207 H 0.12689 0.86216 0.88734 0.0
H208 H 0.1414 0.91614 0.91914 0.0
O209 O 0.0546 0.86379 0.10908 0.0
C210 C 0.99069 0.90038 0.05715 0.0
C211 C 0.10585 0.91729 0.98592 0.0
C212 C 0.11422 0.87316 0.92257 0.0
N213 N 0.07357 0.87083 0.99527 0.0
C214 C 0.08137 0.90054 0.01294 0.0
C215 C 0.08957 0.85714 0.95056 0.0
C216 C 0.12237 0.90344 0.94046 0.0
C217 C 0.93937 0.79957 0.07123 0.0
N218 N 0.94101 0.82945 0.09321 0.0
C219 C 0.91288 0.79059 0.04036 0.0
C220 C 0.88797 0.81243 0.03217 0.0
C221 C 0.88982 0.84285 0.05484 0.0
C222 C 0.91671 0.85101 0.08537 0.0
C223 C 0.91062 0.8494 0.26566 0.0
C224 C 0.95867 0.88623 0.21913 0.0
C225 C 0.9293 0.8385 0.22004 0.0
N226 N 0.95282 0.85697 0.19714 0.0
C227 C 0.94047 0.89791 0.26474 0.0
C228 C 0.91626 0.87934 0.28803 0.0
C229 C 0.04451 0.86313 0.16079 0.0
C230 C 0.07362 0.754 0.03176 0.0
C231 C 0.09576 0.8128 0.06351 0.0
C232 C 0.11535 0.78581 0.06957 0.0
C233 C 0.10419 0.75626 0.05339 0.0
N234 N 0.06592 0.81047 0.04172 0.0
C235 C 0.0547 0.78152 0.02621 0.0
Co236 Co 0.17038 0.02288 0.41124 0.0
Co237 Co 0.16882 0.95783 0.50271 0.0
O238 O 0.18945 0.99536 0.46985 0.0
C239 C 0.23165 1.0031 0.36069 0.0
O240 O 0.22471 0.97463 0.38051 0.0
C241 C 0.19022 0.99528 0.60206 0.0
O242 O 0.17865 0.02087 0.57642 0.0
O243 O 0.12936 0.98312 0.51997 0.0
O244 O 0.12696 0.0187 0.44754 0.0
H245 H 0.07917 0.88156 0.53343 0.0
H246 H 0.22727 0.04539 0.47067 0.0
O247 O 0.21299 0.02661 0.3715 0.0
H248 H 0.1423 0.12399 0.51457 0.0
H249 H 0.16743 0.11772 0.27745 0.0
H250 H 0.11134 0.02149 0.34339 0.0
H251 H 0.13184 0.07828 0.45293 0.0
H252 H 0.1904 0.08276 0.35229 0.0
O253 O 0.18694 0.96803 0.57962 0.0
H254 H 0.10557 0.92854 0.49138 0.0
H255 H 0.18852 0.90775 0.58726 0.0
H256 H 0.08738 0.05592 0.26889 0.0
H257 H 0.23887 0.0909 0.5321 0.0
H258 H 0.11548 0.10445 0.23544 0.0
H259 H 0.19616 0.13052 0.55453 0.0
O260 O 0.16142 0.9858 0.36339 0.0
H261 H 0.28671 0.93537 0.49831 0.0
H262 H 0.18148 0.89567 0.44613 0.0
H263 H 0.2296 0.86391 0.4227 0.0
H264 H 0.28262 0.88354 0.44936 0.0
H265 H 0.23798 0.96658 0.52048 0.0
H266 H 0.16292 0.86069 0.63073 0.0
H267 H 0.1079 0.84724 0.60362 0.0
O268 O 0.15077 0.94649 0.42652 0.0
C269 C 0.11415 1.00353 0.48936 0.0
C270 C 0.10319 0.8871 0.54544 0.0
C271 C 0.15018 0.87542 0.60011 0.0
N272 N 0.14864 0.92073 0.53649 0.0
C273 C 0.11829 0.91362 0.52165 0.0
C274 C 0.16452 0.90214 0.57546 0.0
C275 C 0.11931 0.86788 0.58487 0.0
C276 C 0.20868 0.06275 0.47979 0.0
N277 N 0.17897 0.05929 0.45813 0.0
C278 C 0.21534 0.08837 0.51478 0.0
C279 C 0.19134 0.11056 0.52744 0.0
C280 C 0.16111 0.10689 0.50508 0.0
C281 C 0.1553 0.08092 0.47035 0.0
C282 C 0.15491 0.09671 0.29182 0.0
C283 C 0.12358 0.04271 0.32942 0.0
C284 C 0.1678 0.07682 0.33413 0.0
N285 N 0.15202 0.05035 0.35271 0.0
C286 C 0.10996 0.06204 0.28705 0.0
C287 C 0.12575 0.08925 0.26827 0.0
C288 C 0.15142 0.95806 0.37575 0.0
C289 C 0.2637 0.92647 0.48683 0.0
C290 C 0.20449 0.90454 0.45749 0.0
C291 C 0.23165 0.88639 0.44424 0.0
C292 C 0.26141 0.89745 0.45917 0.0
N293 N 0.20687 0.93287 0.48502 0.0
C294 C 0.236 0.94395 0.49952 0.0
Co295 Co 0.46934 0.14568 0.38493 0.0
Co296 Co 0.52712 0.13647 0.48829 0.0
O297 O 0.4922 0.16025 0.45161 0.0
C298 C 0.49526 0.20684 0.34471 0.0
O299 O 0.52138 0.19782 0.37085 0.0
C300 C 0.48163 0.15331 0.58239 0.0
O301 O 0.45788 0.14649 0.54919 0.0
O302 O 0.50228 0.09622 0.49035 0.0
O303 O 0.46851 0.10115 0.41696 0.0
H304 H 0.60379 0.04444 0.51499 0.0
H305 H 0.44464 0.20227 0.44597 0.0
O306 O 0.47056 0.1897 0.3493 0.0
H307 H 0.35941 0.12322 0.46114 0.0
H308 H 0.38732 0.15493 0.23087 0.0
H309 H 0.47372 0.08845 0.31223 0.0
H310 H 0.40927 0.11083 0.40885 0.0
H311 H 0.41629 0.17264 0.31522 0.0
O312 O 0.51018 0.14879 0.56531 0.0
H313 H 0.56017 0.0745 0.46854 0.0
H314 H 0.56846 0.14902 0.58773 0.0
H315 H 0.44517 0.0697 0.2282 0.0
H316 H 0.39505 0.2158 0.49832 0.0
H317 H 0.40162 0.10304 0.18697 0.0
H318 H 0.35206 0.17606 0.50627 0.0
O319 O 0.50975 0.1353 0.34432 0.0
H320 H 0.54442 0.25361 0.51416 0.0
H321 H 0.59306 0.15228 0.45046 0.0
H322 H 0.62419 0.20149 0.44448 0.0
H323 H 0.5999 0.25262 0.47659 0.0
H324 H 0.514 0.20394 0.51878 0.0
H325 H 0.61203 0.11968 0.63572 0.0
H326 H 0.63004 0.06703 0.59926 0.0
O327 O 0.54535 0.12429 0.4128 0.0
C328 C 0.48184 0.08481 0.45664 0.0
C329 C 0.59618 0.06737 0.53126 0.0
C330 C 0.60076 0.10957 0.59906 0.0
N331 N 0.56173 0.11347 0.52536 0.0
C332 C 0.57151 0.08452 0.50508 0.0
C333 C 0.57599 0.12602 0.57183 0.0
C334 C 0.61088 0.08005 0.57856 0.0
C335 C 0.42588 0.18501 0.44883 0.0
N336 N 0.42976 0.15585 0.42431 0.0
C337 C 0.39793 0.19274 0.4787 0.0
C338 C 0.37384 0.1704 0.48323 0.0
C339 C 0.37796 0.14074 0.45797 0.0
C340 C 0.40628 0.13381 0.42857 0.0
C341 C 0.4062 0.14015 0.24853 0.0
C342 C 0.45465 0.103 0.29477 0.0
C343 C 0.42272 0.15008 0.29622 0.0
N344 N 0.44648 0.13146 0.31892 0.0
C345 C 0.43864 0.0923 0.24707 0.0
C346 C 0.41423 0.11103 0.22392 0.0
C347 C 0.53723 0.12621 0.36072 0.0
C348 C 0.5553 0.23146 0.50023 0.0
C349 C 0.58227 0.17444 0.4644 0.0
C350 C 0.60005 0.20222 0.46101 0.0
C351 C 0.58642 0.2309 0.47906 0.0
N352 N 0.55179 0.17516 0.48535 0.0
C353 C 0.53824 0.20321 0.50302 0.0
Co354 Co 0.3661 0.49521 0.45481 0.0
Co355 Co 0.37338 0.5634 0.53423 0.0
O356 O 0.35019 0.52585 0.51068 0.0
C357 C 0.30595 0.51784 0.40506 0.0
O358 O 0.31478 0.54628 0.42036 0.0
C359 C 0.3544 0.52979 0.64241 0.0
O360 O 0.36289 0.50263 0.61917 0.0
O361 O 0.41284 0.53756 0.54806 0.0
O362 O 0.41005 0.49718 0.4865 0.0
H363 H 0.46591 0.63749 0.53603 0.0
H364 H 0.30865 0.47923 0.52296 0.0
O365 O 0.32276 0.49347 0.41935 0.0
H366 H 0.38853 0.39642 0.57274 0.0
H367 H 0.3597 0.39667 0.33605 0.0
H368 H 0.42427 0.48957 0.38239 0.0
H369 H 0.40108 0.43853 0.50188 0.0
H370 H 0.34064 0.43551 0.40725 0.0
O371 O 0.35852 0.55596 0.61513 0.0
H372 H 0.43653 0.59029 0.50654 0.0
H373 H 0.35883 0.61643 0.6145 0.0
H374 H 0.44435 0.4512 0.3113 0.0
H375 H 0.29495 0.43737 0.59373 0.0
H376 H 0.41197 0.40435 0.28771 0.0
H377 H 0.33515 0.3957 0.61924 0.0
O378 O 0.37703 0.52983 0.40013 0.0
H379 H 0.25623 0.58862 0.54653 0.0
H380 H 0.35993 0.62435 0.47142 0.0
H381 H 0.31161 0.65638 0.45105 0.0
H382 H 0.25929 0.63857 0.48878 0.0
H383 H 0.30507 0.55714 0.56543 0.0
H384 H 0.38745 0.66389 0.64535 0.0
H385 H 0.44135 0.67469 0.60561 0.0
O386 O 0.38826 0.57198 0.454 0.0
C387 C 0.4253 0.51395 0.52168 0.0
C388 C 0.44241 0.63306 0.55344 0.0
C389 C 0.3984 0.64784 0.6149 0.0
N390 N 0.39593 0.60069 0.55853 0.0
C391 C 0.42563 0.60641 0.53682 0.0
C392 C 0.38234 0.62089 0.59738 0.0
C393 C 0.42862 0.65392 0.59264 0.0
C394 C 0.32608 0.46091 0.53337 0.0
N395 N 0.35556 0.46123 0.50826 0.0
C396 C 0.31826 0.43738 0.57364 0.0
C397 C 0.34085 0.41404 0.58801 0.0
C398 C 0.37082 0.41445 0.56198 0.0
C399 C 0.37782 0.43839 0.522 0.0
C400 C 0.37406 0.41695 0.34607 0.0
C401 C 0.41014 0.46912 0.37266 0.0
C402 C 0.36338 0.43903 0.38629 0.0
N403 N 0.38147 0.4646 0.39934 0.0
C404 C 0.42159 0.44753 0.33223 0.0
C405 C 0.4034 0.42126 0.31897 0.0
C406 C 0.38689 0.5581 0.40605 0.0
C407 C 0.2789 0.59668 0.53001 0.0
C408 C 0.33724 0.61639 0.48789 0.0
C409 C 0.30997 0.63466 0.47631 0.0
C410 C 0.28063 0.62467 0.49753 0.0
N411 N 0.33537 0.58898 0.51989 0.0
C412 C 0.30667 0.57903 0.54081 0.0
Co413 Co 0.01239 0.34234 0.43673 0.0
Co414 Co 0.94529 0.34764 0.52335 0.0
O415 O 0.9832 0.32531 0.49422 0.0
C416 C 0.98936 0.28365 0.38387 0.0
O417 O 0.96125 0.29257 0.40331 0.0
C418 C 0.98316 0.32935 0.62484 0.0
O419 O 0.00809 0.34044 0.5973 0.0
O420 O 0.9693 0.38763 0.53562 0.0
O421 O 0.01045 0.38565 0.47337 0.0
H422 H 0.86645 0.43856 0.53918 0.0
H423 H 0.03009 0.28253 0.49749 0.0
O424 O 0.01376 0.29981 0.39654 0.0
H425 H 0.11339 0.35885 0.54427 0.0
H426 H 0.10813 0.33781 0.30594 0.0
H427 H 0.01601 0.40281 0.36999 0.0
H428 H 0.06955 0.37467 0.48036 0.0
H429 H 0.07106 0.31719 0.37954 0.0
O430 O 0.9557 0.33177 0.60251 0.0
H431 H 0.91441 0.41077 0.50229 0.0
H432 H 0.89536 0.33074 0.60947 0.0
H433 H 0.05261 0.42447 0.29667 0.0
H434 H 0.07362 0.26559 0.56132 0.0
H435 H 0.09905 0.39188 0.26417 0.0
H436 H 0.1156 0.30394 0.58519 0.0
O437 O 0.97686 0.3554 0.38729 0.0
H438 H 0.9274 0.22947 0.53121 0.0
H439 H 0.88398 0.33364 0.46712 0.0
H440 H 0.85488 0.28469 0.44637 0.0
H441 H 0.87666 0.23212 0.47832 0.0
H442 H 0.95585 0.27895 0.55071 0.0
H443 H 0.8473 0.35778 0.6479 0.0
H444 H 0.8325 0.41204 0.61252 0.0
O445 O 0.93428 0.36356 0.44483 0.0
C446 C 0.99295 0.40043 0.50991 0.0
C447 C 0.87258 0.41489 0.55481 0.0
C448 C 0.86187 0.36957 0.61588 0.0
N449 N 0.90754 0.36907 0.55336 0.0
C450 C 0.89967 0.39899 0.53395 0.0
C451 C 0.88915 0.35441 0.59407 0.0
C452 C 0.85357 0.4 0.596 0.0
C453 C 0.04848 0.29921 0.50729 0.0
N454 N 0.04742 0.32947 0.48511 0.0
C455 C 0.07298 0.28954 0.5436 0.0
C456 C 0.09649 0.31109 0.55706 0.0
C457 C 0.09525 0.34192 0.53415 0.0
C458 C 0.07035 0.35076 0.4981 0.0
C459 C 0.08802 0.35228 0.31986 0.0
C460 C 0.03631 0.38859 0.35638 0.0
C461 C 0.06694 0.34071 0.36145 0.0
N462 N 0.0416 0.35891 0.37941 0.0
C463 C 0.05689 0.40093 0.31471 0.0
C464 C 0.08292 0.38262 0.29645 0.0
C465 C 0.94809 0.36396 0.396 0.0
C466 C 0.91763 0.25225 0.51722 0.0
C467 C 0.89356 0.31087 0.48133 0.0
C468 C 0.87696 0.28323 0.46949 0.0
C469 C 0.88917 0.25374 0.48747 0.0
N470 N 0.92151 0.30921 0.5104 0.0
C471 C 0.93354 0.28038 0.52841 0.0
Co472 Co 0.36863 1.00286 0.912 0.0
Co473 Co 0.37621 0.93955 0.00768 0.0
O474 O 0.35259 0.97581 0.97437 0.0
C475 C 0.30978 0.97728 0.86479 0.0
O476 O 0.31921 0.95018 0.88809 0.0
C477 C 0.3562 0.97913 0.10712 0.0
O478 O 0.36338 0.00489 0.0776 0.0
O479 O 0.4148 0.96577 0.01668 0.0
O480 O 0.4124 1.00281 0.94646 0.0
H481 H 0.47051 0.86568 0.03263 0.0
H482 H 0.30965 0.02287 0.97244 0.0
O483 O 0.32566 1.00243 0.87355 0.0
H484 H 0.3861 0.1083 0.00518 0.0
H485 H 0.36187 0.09364 0.76983 0.0
H486 H 0.42757 1.00354 0.8411 0.0
H487 H 0.40123 0.06196 0.94655 0.0
H488 H 0.34256 0.05941 0.84896 0.0
O489 O 0.3607 0.95167 0.08573 0.0
H490 H 0.44044 0.91078 0.98983 0.0
H491 H 0.36159 0.89166 0.09928 0.0
H492 H 0.44796 0.03733 0.7623 0.0
H493 H 0.29338 0.06891 0.031 0.0
H494 H 0.41501 0.08278 0.72617 0.0
H495 H 0.33181 0.11196 0.04783 0.0
O496 O 0.38117 0.96523 0.86712 0.0
H497 H 0.25944 0.91671 0.02212 0.0
H498 H 0.36448 0.87542 0.9596 0.0
H499 H 0.31691 0.84307 0.94538 0.0
H500 H 0.26392 0.86368 0.97682 0.0
H501 H 0.30757 0.94843 0.03499 0.0
H502 H 0.39093 0.84656 0.14365 0.0
H503 H 0.44574 0.83323 0.11014 0.0
O504 O 0.39197 0.92603 0.93072 0.0
C505 C 0.42722 0.98795 0.98642 0.0
C506 C 0.4466 0.87119 0.04747 0.0
C507 C 0.40195 0.86048 0.10982 0.0
N508 N 0.39921 0.90371 0.0417 0.0
C509 C 0.42942 0.89664 0.02327 0.0
C510 C 0.38548 0.8861 0.08461 0.0
C511 C 0.4327 0.853 0.091 0.0
C512 C 0.32634 0.04171 0.97913 0.0
N513 N 0.35627 0.03985 0.956 0.0
C514 C 0.31706 0.06763 0.0125 0.0
C515 C 0.33866 0.09175 0.022 0.0
C516 C 0.36914 0.0897 0.99813 0.0
C517 C 0.3776 0.06338 0.9651 0.0
C518 C 0.3765 0.07399 0.78535 0.0
C519 C 0.41323 0.02345 0.82595 0.0
C520 C 0.36569 0.05452 0.83009 0.0
N521 N 0.38412 0.02979 0.85012 0.0
C522 C 0.42484 0.04242 0.78116 0.0
C523 C 0.40632 0.06788 0.76086 0.0
C524 C 0.3909 0.93721 0.87994 0.0
C525 C 0.28241 0.90744 0.0084 0.0
C526 C 0.3415 0.8846 0.97327 0.0
C527 C 0.31465 0.86614 0.96521 0.0
C528 C 0.28493 0.8777 0.9829 0.0
N529 N 0.33884 0.91373 0.9984 0.0
C530 C 0.30978 0.92522 0.01583 0.0
Co531 Co 0.47062 0.33633 0.87778 0.0
Co532 Co 0.53016 0.34149 0.97753 0.0
O533 O 0.49518 0.31937 0.94185 0.0
C534 C 0.49627 0.27525 0.83576 0.0
O535 O 0.52317 0.28381 0.85823 0.0
C536 C 0.48669 0.3231 0.07331 0.0
O537 O 0.46268 0.33291 0.04206 0.0
O538 O 0.50407 0.38156 0.98452 0.0
O539 O 0.46979 0.37991 0.91171 0.0
H540 H 0.60452 0.4322 0.00638 0.0
H541 H 0.44832 0.27851 0.93897 0.0
O542 O 0.47166 0.29318 0.84113 0.0
H543 H 0.36207 0.35844 0.9626 0.0
H544 H 0.38519 0.33271 0.72973 0.0
H545 H 0.47221 0.39562 0.80731 0.0
H546 H 0.41049 0.37139 0.90706 0.0
H547 H 0.41653 0.31211 0.81091 0.0
O548 O 0.51509 0.32605 0.05463 0.0
H549 H 0.56068 0.40425 0.96089 0.0
H550 H 0.57411 0.32475 0.07256 0.0
H551 H 0.44129 0.41724 0.72645 0.0
H552 H 0.40021 0.26443 0.99452 0.0
H553 H 0.3974 0.38572 0.68718 0.0
H554 H 0.35671 0.30461 0.00675 0.0
O555 O 0.50999 0.3475 0.83468 0.0
H556 H 0.55149 0.22338 0.99198 0.0
H557 H 0.59555 0.3271 0.93311 0.0
H558 H 0.62781 0.27808 0.91994 0.0
H559 H 0.60581 0.22575 0.94953 0.0
H560 H 0.51992 0.27294 1.00395 0.0
H561 H 0.61798 0.35193 0.11958 0.0
H562 H 0.63352 0.40601 0.08638 0.0
O563 O 0.54621 0.35705 0.9017 0.0
C564 C 0.48311 0.39452 0.95222 0.0
C565 C 0.59802 0.40861 0.02118 0.0
C566 C 0.60553 0.36359 0.08476 0.0
N567 N 0.56488 0.36288 0.0139 0.0
C568 C 0.57324 0.39265 0.9955 0.0
C569 C 0.58061 0.34836 0.05808 0.0
C570 C 0.61426 0.39392 0.06609 0.0
C571 C 0.42934 0.29598 0.94365 0.0
N572 N 0.43213 0.32568 0.91966 0.0
C573 C 0.40222 0.28793 0.97534 0.0
C574 C 0.37785 0.31051 0.98227 0.0
C575 C 0.38085 0.34073 0.95756 0.0
C576 C 0.40835 0.34796 0.92628 0.0
C577 C 0.40421 0.3467 0.74656 0.0
C578 C 0.45303 0.38183 0.79067 0.0
C579 C 0.42207 0.33513 0.79244 0.0
N580 N 0.44599 0.35276 0.81413 0.0
C581 C 0.43566 0.39416 0.74477 0.0
C582 C 0.41107 0.37645 0.7227 0.0
C583 C 0.53718 0.35698 0.84999 0.0
C584 C 0.56139 0.24605 0.97914 0.0
C585 C 0.58579 0.30442 0.94607 0.0
C586 C 0.60419 0.27674 0.93857 0.0
C587 C 0.59184 0.24739 0.95521 0.0
N588 N 0.55594 0.30294 0.96962 0.0
C589 C 0.54368 0.27423 0.98609 0.0
Co590 Co 0.17209 0.49656 0.96117 0.0
Co591 Co 0.16993 0.56788 0.03314 0.0
O592 O 0.19068 0.52781 0.01143 0.0
C593 C 0.23141 0.51436 0.90293 0.0
O594 O 0.22306 0.5434 0.91748 0.0
C595 C 0.1884 0.53672 0.14288 0.0
O596 O 0.17762 0.50983 0.1235 0.0
O597 O 0.13033 0.54546 0.05512 0.0
O598 O 0.12867 0.50289 0.99805 0.0
H599 H 0.07928 0.64717 0.04326 0.0
H600 H 0.23067 0.47884 0.02341 0.0
O601 O 0.21456 0.49097 0.92034 0.0
H602 H 0.14962 0.40337 0.0921 0.0
H603 H 0.17207 0.39369 0.85368 0.0
H604 H 0.11232 0.49283 0.89589 0.0
H605 H 0.13651 0.44417 0.01889 0.0
H606 H 0.1942 0.43358 0.91777 0.0
O607 O 0.18642 0.56215 0.11264 0.0
H608 H 0.10682 0.59797 0.01211 0.0
H609 H 0.18883 0.6226 0.10442 0.0
H610 H 0.08915 0.45349 0.83204 0.0
H611 H 0.24492 0.43828 0.0964 0.0
H612 H 0.1191 0.40348 0.81057 0.0
H613 H 0.20417 0.40027 0.13132 0.0
O614 O 0.16101 0.5298 0.90437 0.0
H615 H 0.28801 0.58485 0.02868 0.0
H616 H 0.18411 0.62536 0.96149 0.0
H617 H 0.23302 0.65304 0.93183 0.0
H618 H 0.28539 0.63293 0.96583 0.0
H619 H 0.23855 0.55769 0.05685 0.0
H620 H 0.16206 0.67197 0.137 0.0
H621 H 0.10675 0.6843 0.10685 0.0
O622 O 0.15311 0.57471 0.95414 0.0
C623 C 0.11569 0.52223 0.03359 0.0
C624 C 0.10337 0.64204 0.05669 0.0
C625 C 0.14982 0.65593 0.10936 0.0
N626 N 0.1495 0.60755 0.05601 0.0
C627 C 0.11915 0.61428 0.03897 0.0
C628 C 0.16485 0.62794 0.09081 0.0
C629 C 0.11883 0.6629 0.0923 0.0
C630 C 0.21295 0.46214 0.03803 0.0
N631 N 0.18287 0.46373 0.01684 0.0
C632 C 0.2211 0.43933 0.0795 0.0
C633 C 0.19821 0.41804 0.09915 0.0
C634 C 0.16758 0.41979 0.0772 0.0
C635 C 0.16028 0.44297 0.03587 0.0
C636 C 0.15873 0.41532 0.86291 0.0
C637 C 0.12533 0.47098 0.88723 0.0
C638 C 0.17114 0.43798 0.89913 0.0
N639 N 0.15433 0.46525 0.91122 0.0
C640 C 0.11217 0.44886 0.85082 0.0
C641 C 0.12901 0.42083 0.83874 0.0
C642 C 0.15256 0.55891 0.90804 0.0
C643 C 0.2653 0.59394 0.01385 0.0
C644 C 0.20683 0.61635 0.97622 0.0
C645 C 0.23444 0.63217 0.95938 0.0
C646 C 0.26383 0.62086 0.97843 0.0
N647 N 0.20844 0.59004 0.01116 0.0
C648 C 0.23719 0.57876 0.02989 0.0
Co649 Co 0.9979 0.15112 0.94142 0.0
Co650 Co 0.93101 0.14055 0.02669 0.0
O651 O 0.96701 0.16547 0.99881 0.0
C652 C 0.97001 0.20954 0.89124 0.0
O653 O 0.94301 0.19839 0.91098 0.0
C654 C 0.96558 0.16088 0.13031 0.0
O655 O 0.9923 0.15271 0.10446 0.0
O656 O 0.95872 0.10218 0.03965 0.0
O657 O 0.99927 0.107 0.97673 0.0
H658 H 0.86181 0.04426 0.03985 0.0
H659 H 0.01043 0.2103 1.00377 0.0
O660 O 0.99593 0.1945 0.90241 0.0
H661 H 0.09922 0.13684 0.05129 0.0
H662 H 0.09368 0.1636 0.81272 0.0
H663 H 0.00688 0.0926 0.87309 0.0
H664 H 0.05723 0.12052 0.9858 0.0
H665 H 0.05467 0.18047 0.88625 0.0
O666 O 0.93904 0.15585 0.10643 0.0
H667 H 0.90668 0.07617 1.00388 0.0
H668 H 0.87891 0.15237 0.11186 0.0
H669 H 0.0455 0.07466 0.7998 0.0
H670 H 0.05202 0.22771 0.0692 0.0
H671 H 0.08928 0.11029 0.76914 0.0
H672 H 0.09675 0.19079 0.09346 0.0
O673 O 0.9638 0.13745 0.89074 0.0
H674 H 0.90057 0.25674 0.03644 0.0
H675 H 0.86878 0.15124 0.96949 0.0
H676 H 0.83427 0.19814 0.95031 0.0
H677 H 0.85011 0.25137 0.98389 0.0
H678 H 0.9345 0.20927 0.05433 0.0
H679 H 0.8338 0.12122 0.1492 0.0
H680 H 0.82502 0.0667 0.11293 0.0
O681 O 0.92202 0.12542 0.94745 0.0
C682 C 0.98309 0.09087 0.01334 0.0
C683 C 0.86535 0.06798 0.05583 0.0
C684 C 0.84966 0.11114 0.11729 0.0
N685 N 0.89531 0.11617 0.0555 0.0
C686 C 0.89066 0.08621 0.03552 0.0
C687 C 0.87529 0.12865 0.09608 0.0
C688 C 0.84472 0.0806 0.09694 0.0
C689 C 0.03002 0.19427 0.01371 0.0
N690 N 0.03152 0.16452 0.9909 0.0
C691 C 0.05341 0.20419 0.05094 0.0
C692 C 0.07847 0.18343 0.06462 0.0
C693 C 0.07986 0.15314 0.04101 0.0
C694 C 0.056 0.14401 1.00407 0.0
C695 C 0.07476 0.14782 0.82585 0.0
C696 C 0.02602 0.10813 0.86031 0.0
C697 C 0.0526 0.15726 0.8674 0.0
N698 N 0.02874 0.1374 0.88434 0.0
C699 C 0.04775 0.09789 0.81864 0.0
C700 C 0.07229 0.11791 0.80142 0.0
C701 C 0.93588 0.12693 0.89864 0.0
C702 C 0.89337 0.23366 0.02175 0.0
C703 C 0.87587 0.17432 0.98419 0.0
C704 C 0.8562 0.20079 0.97328 0.0
C705 C 0.86508 0.23064 0.99218 0.0
N706 N 0.90356 0.17746 0.01331 0.0
C707 C 0.91241 0.20666 0.03201 0.0
Co708 Co 0.86721 1.0024 0.55141 0.0
Co709 Co 0.8682 0.07076 0.46739 0.0
O710 O 0.84851 0.03145 0.4948 0.0
C711 C 0.80586 0.02099 0.60247 0.0
O712 O 0.81269 0.0496 0.58325 0.0
C713 C 0.85143 0.03498 0.36341 0.0
O714 O 0.86446 0.00959 0.3874 0.0
O715 O 0.90928 0.04785 0.4516 0.0
O716 O 0.91084 0.00791 0.51665 0.0
H717 H 0.95387 0.15266 0.45484 0.0
H718 H 0.81101 0.98151 0.48812 0.0
O719 O 0.82432 0.99753 0.59008 0.0
H720 H 0.89708 0.90536 0.43774 0.0
H721 H 0.86951 0.90382 0.6761 0.0
H722 H 0.92546 1.00218 0.62146 0.0
H723 H 0.90645 0.94861 0.50537 0.0
H724 H 0.84711 0.94077 0.60373 0.0
O725 O 0.8527 0.06182 0.38816 0.0
H726 H 0.92927 0.10264 0.4879 0.0
H727 H 0.84862 0.12228 0.38533 0.0
H728 H 0.94888 0.96579 0.69359 0.0
H729 H 0.80047 0.93844 0.42065 0.0
H730 H 0.92084 0.91619 0.72136 0.0
H731 H 0.84378 0.90011 0.39486 0.0
O732 O 0.87542 0.03791 0.60308 0.0
H733 H 0.74949 0.08683 0.46377 0.0
H734 H 0.85075 0.13059 0.52829 0.0
H735 H 0.80039 0.15873 0.55138 0.0
H736 H 0.74929 0.13687 0.519 0.0
H737 H 0.80033 0.05922 0.44221 0.0
H738 H 0.87255 0.17236 0.35061 0.0
H739 H 0.92533 0.18804 0.38623 0.0
O740 O 0.88329 0.08076 0.54628 0.0
C741 C 0.9241 0.02562 0.47867 0.0
C742 C 0.93077 0.14618 0.43934 0.0
C743 C 0.88514 0.15721 0.38079 0.0
N744 N 0.8874 0.10972 0.43904 0.0
C745 C 0.91668 0.11792 0.45801 0.0
C746 C 0.87176 0.12877 0.40044 0.0
C747 C 0.91477 0.16598 0.40068 0.0
C748 C 0.82981 0.96465 0.47759 0.0
N749 N 0.85924 0.96745 0.50074 0.0
C750 C 0.82377 0.94042 0.43919 0.0
C751 C 0.84809 0.91895 0.42466 0.0
C752 C 0.87802 0.92191 0.44867 0.0
C753 C 0.8832 0.94647 0.48683 0.0
C754 C 0.88202 0.92529 0.66418 0.0
C755 C 0.91329 0.98048 0.6329 0.0
C756 C 0.86945 0.94629 0.62326 0.0
N757 N 0.88522 0.97334 0.60779 0.0
C758 C 0.92659 0.96004 0.67396 0.0
C759 C 0.91082 0.93224 0.68956 0.0
C760 C 0.88294 0.06688 0.59519 0.0
C761 C 0.77162 0.09664 0.47795 0.0
C762 C 0.82862 0.12086 0.51415 0.0
C763 C 0.80018 0.13695 0.52726 0.0
C764 C 0.77151 0.12469 0.50903 0.0
N765 N 0.82853 0.09336 0.48364 0.0
C766 C 0.80051 0.08121 0.46558 0.0
Co767 Co 0.49921 0.83237 0.53716 0.0
Co768 Co 0.43073 0.84478 0.45896 0.0
O769 O 0.46763 0.81893 0.48246 0.0
C770 C 0.47494 0.7737 0.59164 0.0
O771 O 0.44659 0.7844 0.57742 0.0
C772 C 0.46351 0.82679 0.35048 0.0
O773 O 0.49063 0.83388 0.37387 0.0
O774 O 0.45736 0.88311 0.44498 0.0
O775 O 0.49882 0.87667 0.50383 0.0
H776 H 0.3598 0.94239 0.45532 0.0
H777 H 0.51204 0.77399 0.47095 0.0
O778 O 0.49953 0.78874 0.57461 0.0
H779 H 0.59818 0.84734 0.41752 0.0
H780 H 0.59789 0.81832 0.65462 0.0
H781 H 0.50754 0.88986 0.60733 0.0
H782 H 0.55695 0.86313 0.48791 0.0
H783 H 0.55808 0.8024 0.58463 0.0
O784 O 0.43749 0.83082 0.37811 0.0
H785 H 0.40537 0.9092 0.4868 0.0
H786 H 0.37742 0.83463 0.3787 0.0
H787 H 0.54692 0.90682 0.6772 0.0
H788 H 0.55288 0.75711 0.40057 0.0
H789 H 0.59249 0.87093 0.70127 0.0
H790 H 0.59629 0.79397 0.37337 0.0
O791 O 0.46561 0.84584 0.59181 0.0
H792 H 0.40331 0.7289 0.4487 0.0
H793 H 0.36977 0.83391 0.52205 0.0
H794 H 0.33707 0.78692 0.54377 0.0
H795 H 0.35382 0.73394 0.50701 0.0
H796 H 0.43541 0.77646 0.4283 0.0
H797 H 0.33169 0.8672 0.34558 0.0
H798 H 0.32269 0.92151 0.38396 0.0
O799 O 0.423 0.85897 0.53898 0.0
C800 C 0.48182 0.89363 0.46986 0.0
C801 C 0.36347 0.91876 0.4383 0.0
C802 C 0.34774 0.87658 0.37665 0.0
N803 N 0.39402 0.86996 0.43479 0.0
C804 C 0.38917 0.89979 0.45613 0.0
C805 C 0.3737 0.85827 0.3955 0.0
C806 C 0.34269 0.90705 0.39818 0.0
C807 C 0.53105 0.79 0.45966 0.0
N808 N 0.53224 0.81942 0.4836 0.0
C809 C 0.55402 0.78038 0.41966 0.0
C810 C 0.57834 0.8011 0.40434 0.0
C811 C 0.5794 0.83106 0.42906 0.0
C812 C 0.55597 0.8399 0.46879 0.0
C813 C 0.57819 0.83421 0.64436 0.0
C814 C 0.52744 0.87421 0.61723 0.0
C815 C 0.55556 0.82531 0.60482 0.0
N816 N 0.5307 0.84532 0.59147 0.0
C817 C 0.5496 0.8839 0.65698 0.0
C818 C 0.57515 0.86373 0.67051 0.0
C819 C 0.43752 0.85713 0.58637 0.0
C820 C 0.39571 0.75188 0.46479 0.0
C821 C 0.3772 0.81095 0.50586 0.0
C822 C 0.35857 0.78443 0.51825 0.0
C823 C 0.36797 0.75471 0.49759 0.0
N824 N 0.40437 0.80798 0.47363 0.0
C825 C 0.41371 0.77893 0.45317 0.0
Co826 Co 0.67328 0.52631 0.62005 0.0
Co827 Co 0.66715 0.46572 0.52243 0.0
O828 O 0.68991 0.50063 0.55712 0.0
C829 C 0.73266 0.49871 0.66502 0.0
O830 O 0.72306 0.472 0.64306 0.0
C831 C 0.68865 0.50701 0.42413 0.0
O832 O 0.68252 0.53248 0.4544 0.0
O833 O 0.62798 0.49278 0.51361 0.0
O834 O 0.62999 0.52798 0.58502 0.0
H835 H 0.57474 0.39336 0.49487 0.0
H836 H 0.73232 0.54666 0.56079 0.0
O837 O 0.71605 0.52415 0.65796 0.0
H838 H 0.65501 0.63474 0.53082 0.0
H839 H 0.6786 0.61306 0.76546 0.0
H840 H 0.61354 0.5273 0.68892 0.0
H841 H 0.64013 0.587 0.58701 0.0
H842 H 0.69869 0.58031 0.6858 0.0
O843 O 0.68307 0.47934 0.44473 0.0
H844 H 0.60358 0.43711 0.53896 0.0
H845 H 0.68321 0.41989 0.42991 0.0
H846 H 0.59243 0.55965 0.76824 0.0
H847 H 0.74834 0.5941 0.50477 0.0
H848 H 0.62503 0.6029 0.80704 0.0
H849 H 0.70948 0.63851 0.48934 0.0
O850 O 0.66052 0.48778 0.66429 0.0
H851 H 0.78451 0.44125 0.51119 0.0
H852 H 0.67961 0.40042 0.56983 0.0
H853 H 0.72764 0.36705 0.58529 0.0
H854 H 0.78055 0.38743 0.55584 0.0
H855 H 0.73591 0.47395 0.49694 0.0
H856 H 0.65515 0.37609 0.3843 0.0
H857 H 0.60055 0.36249 0.41689 0.0
O858 O 0.65075 0.45093 0.59854 0.0
C859 C 0.61529 0.51435 0.54493 0.0
C860 C 0.59854 0.39901 0.48035 0.0
C861 C 0.64366 0.38935 0.41824 0.0
N862 N 0.64507 0.43102 0.48719 0.0
C863 C 0.61502 0.42372 0.50524 0.0
C864 C 0.65939 0.41425 0.44412 0.0
C865 C 0.61303 0.38172 0.43657 0.0
C866 C 0.71542 0.56605 0.55473 0.0
N867 N 0.68538 0.56414 0.57725 0.0
C868 C 0.72456 0.59278 0.52277 0.0
C869 C 0.70273 0.61766 0.51404 0.0
C870 C 0.67215 0.61555 0.53725 0.0
C871 C 0.66383 0.58842 0.56887 0.0
C872 C 0.66413 0.59433 0.74884 0.0
C873 C 0.6278 0.54621 0.70531 0.0
C874 C 0.67541 0.57567 0.70381 0.0
N875 N 0.6572 0.5521 0.68241 0.0
C876 C 0.61575 0.56438 0.75035 0.0
C877 C 0.63408 0.58862 0.77214 0.0
C878 C 0.65041 0.46066 0.64981 0.0
C879 C 0.76157 0.43206 0.52398 0.0
C880 C 0.70255 0.40947 0.5569 0.0
C881 C 0.72966 0.39045 0.5657 0.0
C882 C 0.75934 0.40189 0.54914 0.0
N883 N 0.70491 0.43904 0.53213 0.0
C884 C 0.73394 0.4504 0.51574 0.0
Co885 Co 0.97464 0.64927 0.63337 0.0
Co886 Co 0.0388 0.64337 0.53939 0.0
O887 O 1.0014 0.66553 0.57106 0.0
C888 C 1.00051 0.70868 0.67796 0.0
O889 O 0.02686 0.69933 0.65233 0.0
C890 C 0.99693 0.65886 0.44108 0.0
O891 O 0.97268 0.64933 0.47233 0.0
O892 O 0.01546 0.60247 0.53475 0.0
O893 O 0.97492 0.60549 0.59825 0.0
H894 H 0.11908 0.55382 0.52325 0.0
H895 H 0.95466 0.70843 0.57288 0.0
O896 O 0.97531 0.69239 0.67211 0.0
H897 H 0.86937 0.63184 0.54028 0.0
H898 H 0.88453 0.65577 0.7763 0.0
H899 H 0.9734 0.5895 0.70256 0.0
H900 H 0.91566 0.61664 0.59891 0.0
H901 H 0.9187 0.67544 0.69745 0.0
O902 O 0.02508 0.65617 0.46033 0.0
H903 H 0.07229 0.58203 0.56377 0.0
H904 H 0.08462 0.65829 0.44494 0.0
H905 H 0.93965 0.56877 0.78107 0.0
H906 H 0.90872 0.72474 0.51419 0.0
H907 H 0.89482 0.60199 0.81842 0.0
H908 H 0.86572 0.68624 0.49747 0.0
O909 O 0.0121 0.63679 0.67858 0.0
H910 H 0.05366 0.76138 0.51365 0.0
H911 H 0.10199 0.66084 0.58479 0.0
H912 H 0.13105 0.71101 0.59393 0.0
H913 H 0.1069 0.76175 0.55815 0.0
H914 H 0.02524 0.71077 0.50596 0.0
H915 H 0.13141 0.6308 0.40284 0.0
H916 H 0.14898 0.57823 0.44217 0.0
O917 O 0.0535 0.63095 0.61768 0.0
C918 C 0.99211 0.5901 0.562 0.0
C919 C 0.11171 0.57676 0.50584 0.0
C920 C 0.11859 0.61994 0.4382 0.0
N921 N 0.07584 0.62184 0.50697 0.0
C922 C 0.08528 0.59288 0.52871 0.0
C923 C 0.09203 0.63535 0.46212 0.0
C924 C 0.12846 0.59045 0.46031 0.0
C925 C 0.93585 0.6917 0.5662 0.0
N926 N 0.9377 0.66171 0.58941 0.0
C927 C 0.90998 0.70101 0.53278 0.0
C928 C 0.88589 0.67937 0.52333 0.0
C929 C 0.88794 0.64883 0.5473 0.0
C930 C 0.91421 0.64034 0.58035 0.0
C931 C 0.90393 0.64103 0.76028 0.0
C932 C 0.9538 0.604 0.71832 0.0
C933 C 0.92338 0.65206 0.71572 0.0
N934 N 0.9478 0.6335 0.69508 0.0
C935 C 0.93484 0.59218 0.76291 0.0
C936 C 0.90971 0.61085 0.78389 0.0
C937 C 0.04117 0.63031 0.66771 0.0
C938 C 0.06448 0.73941 0.52923 0.0
C939 C 0.09128 0.68282 0.56918 0.0
C940 C 0.10788 0.71115 0.57439 0.0
C941 C 0.09433 0.73961 0.55428 0.0
N942 N 0.06201 0.68281 0.54451 0.0
C943 C 0.04857 0.71063 0.5247 0.0
H944 H 0.53853 0.14464 0.24931 0.0
H945 H 0.59008 0.08873 0.37475 0.0
H946 H 0.6285 0.07213 0.30199 0.0
H947 H 0.64526 0.07055 0.20225 0.0
H948 H 0.59436 0.12656 0.07615 0.0
H949 H 0.55824 0.14667 0.15019 0.0
C950 C 0.55819 0.12884 0.26067 0.0
C951 C 0.56117 0.1175 0.31707 0.0
C952 C 0.58037 0.11957 0.21874 0.0
C953 C 0.58713 0.09761 0.33153 0.0
C954 C 0.60912 0.08811 0.28999 0.0
C955 C 0.62647 0.08742 0.19093 0.0
C956 C 0.62221 0.09666 0.13369 0.0
C957 C 0.60567 0.09855 0.2334 0.0
C958 C 0.59809 0.11895 0.11989 0.0
C959 C 0.57729 0.13029 0.16213 0.0
H960 H 0.36833 0.5489 0.2975 0.0
H961 H 0.42947 0.60643 0.39883 0.0
H962 H 0.45019 0.63234 0.31238 0.0
H963 H 0.45287 0.63658 0.20787 0.0
H964 H 0.39017 0.58039 0.10702 0.0
H965 H 0.36796 0.55619 0.1936 0.0
C966 C 0.38616 0.56716 0.30065 0.0
C967 C 0.39768 0.57545 0.35435 0.0
C968 C 0.3977 0.58215 0.25094 0.0
C969 C 0.42029 0.59958 0.35794 0.0
C970 C 0.43221 0.61433 0.30855 0.0
C971 C 0.43426 0.61913 0.20484 0.0
C972 C 0.42349 0.61002 0.15103 0.0
C973 C 0.4214 0.60548 0.2548 0.0
C974 C 0.39897 0.58778 0.14785 0.0
C975 C 0.38632 0.57384 0.19735 0.0
H976 H 0.90596 0.41679 0.15772 0.0
H977 H 0.86668 0.49126 0.26391 0.0
H978 H 0.88026 0.46041 0.34929 0.0
H979 H 0.90804 0.41482 0.39375 0.0
H980 H 0.95119 0.34263 0.28763 0.0
H981 H 0.93082 0.36966 0.20226 0.0
C982 C 0.90007 0.42609 0.19952 0.0
C983 C 0.88575 0.45638 0.2045 0.0
C984 C 0.9086 0.4086 0.24847 0.0
C985 C 0.87821 0.46817 0.25897 0.0
C986 C 0.88583 0.45052 0.30784 0.0
C987 C 0.91226 0.4047 0.35198 0.0
C988 C 0.93095 0.37693 0.34661 0.0
C989 C 0.90167 0.42105 0.30312 0.0
C990 C 0.93683 0.36414 0.2924 0.0
C991 C 0.92535 0.37961 0.2437 0.0
H992 H 0.09455 0.90344 0.15047 0.0
H993 H 0.04081 0.84854 0.27412 0.0
H994 H 0.07132 0.87075 0.35124 0.0
H995 H 0.11035 0.90876 0.38439 0.0
H996 H 0.16204 0.96603 0.26141 0.0
H997 H 0.13552 0.93971 0.18355 0.0
C998 C 0.0898 0.89605 0.19421 0.0
C999 C 0.06527 0.87455 0.20643 0.0
C1000 C 0.10698 0.90946 0.23868 0.0
C1001 C 0.05933 0.86533 0.26347 0.0
C1002 C 0.07679 0.87798 0.3077 0.0
C1003 C 0.11617 0.91517 0.34057 0.0
C1004 C 0.13804 0.93943 0.32888 0.0
C1005 C 0.10025 0.90052 0.29593 0.0
C1006 C 0.14511 0.94757 0.27172 0.0
C1007 C 0.12995 0.93256 0.22708 0.0
H1008 H 0.36786 0.93871 0.7735 0.0
H1009 H 0.43541 0.8891 0.88113 0.0
H1010 H 0.45438 0.85789 0.79968 0.0
H1011 H 0.45419 0.84784 0.6969 0.0
H1012 H 0.38559 0.897 0.59025 0.0
H1013 H 0.36425 0.92505 0.6729 0.0
C1014 C 0.38672 0.92101 0.77909 0.0
C1015 C 0.40071 0.91653 0.83269 0.0
C1016 C 0.39723 0.90314 0.73249 0.0
C1017 C 0.42449 0.89302 0.83998 0.0
C1018 C 0.43535 0.87528 0.79351 0.0
C1019 C 0.43439 0.8645 0.69176 0.0
C1020 C 0.42186 0.87071 0.63732 0.0
C1021 C 0.42226 0.88059 0.73939 0.0
C1022 C 0.39584 0.89192 0.63157 0.0
C1023 C 0.38369 0.90808 0.67875 0.0
H1024 H 0.60904 0.41264 0.63447 0.0
H1025 H 0.65777 0.46333 0.76526 0.0
H1026 H 0.62891 0.43337 0.83887 0.0
H1027 H 0.5872 0.39584 0.86573 0.0
H1028 H 0.53546 0.34837 0.73474 0.0
H1029 H 0.56835 0.37401 0.66138 0.0
C1030 C 0.61367 0.41692 0.67902 0.0
C1031 C 0.63549 0.44028 0.69427 0.0
C1032 C 0.59631 0.40035 0.72104 0.0
C1033 C 0.641 0.4456 0.75232 0.0
C1034 C 0.62449 0.42851 0.79444 0.0
C1035 C 0.58329 0.3908 0.82121 0.0
C1036 C 0.55881 0.37028 0.8058 0.0
C1037 C 0.60166 0.40629 0.77925 0.0
C1038 C 0.55401 0.3642 0.74779 0.0
C1039 C 0.57281 0.37885 0.70581 0.0
H1040 H 0.09587 0.59487 0.66901 0.0
H1041 H 0.03238 0.65015 0.77637 0.0
H1042 H 0.06401 0.63621 0.85958 0.0
H1043 H 0.10688 0.60477 0.90316 0.0
H1044 H 0.16809 0.54613 0.79769 0.0
H1045 H 0.14057 0.56529 0.71236 0.0
C1046 C 0.0892 0.60405 0.71056 0.0
C1047 C 0.06169 0.62311 0.71672 0.0
C1048 C 0.10707 0.59536 0.75856 0.0
C1049 C 0.05321 0.63492 0.77075 0.0
C1050 C 0.07134 0.62711 0.81834 0.0
C1051 C 0.11456 0.5967 0.86139 0.0
C1052 C 0.13932 0.57411 0.85654 0.0
C1053 C 0.09793 0.60685 0.81293 0.0
C1054 C 0.14888 0.56346 0.8023 0.0
C1055 C 0.13314 0.57431 0.75359 0.0
H1056 H 0.94574 0.14555 0.78896 0.0
H1057 H 0.8887 0.08296 0.89437 0.0
H1058 H 0.86584 0.06011 0.80901 0.0
H1059 H 0.86525 0.05526 0.70483 0.0
H1060 H 0.92146 0.11863 0.59947 0.0
H1061 H 0.94135 0.14412 0.6848 0.0
C1062 C 0.92817 0.127 0.7933 0.0
C1063 C 0.91927 0.11557 0.84787 0.0
C1064 C 0.91514 0.1141 0.74419 0.0
C1065 C 0.89601 0.09206 0.85287 0.0
C1066 C 0.88306 0.07891 0.80409 0.0
C1067 C 0.88175 0.07477 0.70051 0.0
C1068 C 0.8923 0.08473 0.64595 0.0
C1069 C 0.89296 0.08931 0.74961 0.0
C1070 C 0.91311 0.11046 0.64096 0.0
C1071 C 0.92456 0.12493 0.68972 0.0
H1072 H 0.71744 0.99344 0.81692 0.0
H1073 H 0.69289 0.0925 0.7864 0.0
H1074 H 0.72521 0.0927 0.69954 0.0
H1075 H 0.76362 0.06644 0.63653 0.0
H1076 H 0.79077 0.96816 0.66762 0.0
H1077 H 0.75384 0.96584 0.74915 0.0
C1078 C 0.71885 0.01493 0.79083 0.0
C1079 C 0.7029 0.04298 0.8085 0.0
C1080 C 0.73801 0.01508 0.74104 0.0
C1081 C 0.7051 0.07065 0.77424 0.0
C1082 C 0.72358 0.07081 0.72443 0.0
C1083 C 0.76127 0.04432 0.66061 0.0
C1084 C 0.78017 0.01759 0.64608 0.0
C1085 C 0.74063 0.0434 0.70808 0.0
C1086 C 0.77654 0.98913 0.67774 0.0
C1087 C 0.75555 0.98784 0.72463 0.0
H1088 H 0.42714 0.74216 0.64612 0.0
H1089 H 0.52949 0.74679 0.63568 0.0
H1090 H 0.53393 0.70865 0.71515 0.0
H1091 H 0.50857 0.67709 0.79259 0.0
H1092 H 0.40608 0.67383 0.80293 0.0
H1093 H 0.40206 0.70824 0.71879 0.0
C1094 C 0.45049 0.73464 0.66069 0.0
C1095 C 0.47792 0.74753 0.63487 0.0
C1096 C 0.45289 0.71306 0.70695 0.0
C1097 C 0.50792 0.73731 0.65455 0.0
C1098 C 0.5105 0.71555 0.70023 0.0
C1099 C 0.48536 0.68353 0.77599 0.0
C1100 C 0.45768 0.67294 0.80455 0.0
C1101 C 0.48312 0.7037 0.7275 0.0
C1102 C 0.42782 0.68169 0.78229 0.0
C1103 C 0.42545 0.70145 0.73407 0.0
H1104 H 0.83828 0.46806 0.84617 0.0
H1105 H 0.82862 0.56915 0.87394 0.0
H1106 H 0.79189 0.57402 0.79403 0.0
H1107 H 0.75833 0.54839 0.72253 0.0
H1108 H 0.76929 0.44722 0.69506 0.0
H1109 H 0.80976 0.44372 0.76813 0.0
C1110 C 0.82848 0.49126 0.83428 0.0
C1111 C 0.8359 0.51812 0.86639 0.0
C1112 C 0.80732 0.49385 0.78857 0.0
C1113 C 0.82331 0.54807 0.84996 0.0
C1114 C 0.80213 0.55083 0.80447 0.0
C1115 C 0.76987 0.52567 0.73201 0.0
C1116 C 0.7603 0.49804 0.70382 0.0
C1117 C 0.7933 0.52372 0.7744 0.0
C1118 C 0.77581 0.46885 0.71634 0.0
C1119 C 0.799 0.46676 0.75828 0.0
H1120 H 0.03763 0.81344 0.85488 0.0
H1121 H 0.94098 0.79929 0.91217 0.0
H1122 H 0.93273 0.76233 0.83426 0.0
H1123 H 0.9543 0.7309 0.75307 0.0
H1124 H 0.05078 0.74695 0.69563 0.0
H1125 H 0.05743 0.78612 0.76952 0.0
C1126 C 0.01464 0.80254 0.85004 0.0
C1127 C 0.99007 0.8091 0.88969 0.0
C1128 C 0.00998 0.78136 0.80495 0.0
C1129 C 0.96036 0.79483 0.88233 0.0
C1130 C 0.95564 0.77352 0.83781 0.0
C1131 C 0.9766 0.7433 0.75621 0.0
C1132 C 1.00204 0.73554 0.71884 0.0
C1133 C 0.98044 0.76616 0.79926 0.0
C1134 C 0.03076 0.75203 0.72378 0.0
C1135 C 0.03471 0.77453 0.76626 0.0
H1136 H 0.20813 0.94824 0.67698 0.0
H1137 H 0.21727 0.04902 0.64358 0.0
H1138 H 0.25373 0.05306 0.72347 0.0
H1139 H 0.28572 0.02721 0.79984 0.0
H1140 H 0.2749 0.92651 0.83355 0.0
H1141 H 0.23651 0.92344 0.75733 0.0
C1142 C 0.21787 0.97117 0.6874 0.0
C1143 C 0.21 0.99822 0.65394 0.0
C1144 C 0.23874 0.97338 0.73364 0.0
C1145 C 0.22277 0.02776 0.66854 0.0
C1146 C 0.24377 0.03009 0.7142 0.0
C1147 C 0.27467 0.00469 0.791 0.0
C1148 C 0.28356 0.97712 0.8225 0.0
C1149 C 0.25231 1.00297 0.74669 0.0
C1150 C 0.26882 0.94817 0.81019 0.0
C1151 C 0.2468 0.9463 0.76633 0.0
H1152 H 0.52357 0.16266 0.66707 0.0
H1153 H 0.42773 0.18606 0.61587 0.0
H1154 H 0.42262 0.22411 0.69368 0.0
H1155 H 0.44765 0.25499 0.76945 0.0
H1156 H 0.54395 0.23157 0.81862 0.0
H1157 H 0.54644 0.18923 0.74871 0.0
C1158 C 0.50136 0.17573 0.67336 0.0
C1159 C 0.47619 0.17173 0.63526 0.0
C1160 C 0.49878 0.19787 0.71753 0.0
C1161 C 0.44749 0.18862 0.64452 0.0
C1162 C 0.44463 0.21058 0.6888 0.0
C1163 C 0.46902 0.24034 0.76544 0.0
C1164 C 0.49574 0.24686 0.79876 0.0
C1165 C 0.47046 0.21608 0.72455 0.0
C1166 C 0.52315 0.22744 0.79317 0.0
C1167 C 0.52464 0.20317 0.7531 0.0
H1168 H 0.32667 0.47988 0.70049 0.0
H1169 H 0.34117 0.58139 0.70782 0.0
H1170 H 0.30626 0.58475 0.79102 0.0
H1171 H 0.26849 0.56022 0.8568 0.0
H1172 H 0.25244 0.45906 0.85123 0.0
H1173 H 0.29122 0.45425 0.77264 0.0
C1174 C 0.32261 0.50264 0.72089 0.0
C1175 C 0.33645 0.53039 0.69744 0.0
C1176 C 0.30207 0.50455 0.76889 0.0
C1177 C 0.33075 0.55967 0.72444 0.0
C1178 C 0.31074 0.56166 0.77217 0.0
C1179 C 0.27375 0.53693 0.83921 0.0
C1180 C 0.2575 0.51004 0.86012 0.0
C1181 C 0.29578 0.53443 0.79398 0.0
C1182 C 0.26462 0.48018 0.83622 0.0
C1183 C 0.28674 0.47745 0.79109 0.0
H1184 H 0.93763 0.31332 0.70296 0.0
H1185 H 0.03798 0.30236 0.66655 0.0
H1186 H 0.04361 0.26604 0.74842 0.0
H1187 H 0.01903 0.23392 0.82616 0.0
H1188 H 0.91865 0.2462 0.86232 0.0
H1189 H 0.91427 0.28549 0.78551 0.0
C1190 C 0.96082 0.30325 0.71326 0.0
C1191 C 0.98726 0.31042 0.67834 0.0
C1192 C 0.96391 0.28241 0.76043 0.0
C1193 C 0.01718 0.29734 0.69268 0.0
C1194 C 0.02041 0.27642 0.73943 0.0
C1195 C 0.99632 0.24555 0.81781 0.0
C1196 C 0.96918 0.23671 0.8498 0.0
C1197 C 0.99382 0.26829 0.77306 0.0
C1198 C 0.93995 0.25218 0.83827 0.0
C1199 C 0.93733 0.2747 0.79415 0.0
H1200 H 0.2761 0.9584 0.33216 0.0
H1201 H 0.24683 0.05543 0.29472 0.0
H1202 H 0.28554 0.05786 0.21604 0.0
H1203 H 0.32361 0.03031 0.1514 0.0
H1204 H 0.35063 0.93251 0.188 0.0
H1205 H 0.31707 0.93263 0.27336 0.0
C1206 C 0.27839 0.98026 0.3073 0.0
C1207 C 0.25828 0.00655 0.31901 0.0
C1208 C 0.30019 0.98128 0.26151 0.0
C1209 C 0.2619 0.03476 0.2866 0.0
C1210 C 0.28395 0.03613 0.24137 0.0
C1211 C 0.32258 0.00924 0.17865 0.0
C1212 C 0.3394 0.98135 0.16295 0.0
C1213 C 0.30264 0.00923 0.22744 0.0
C1214 C 0.3377 0.9542 0.19867 0.0
C1215 C 0.31849 0.95422 0.24759 0.0
H1216 H 0.448 0.22886 0.2741 0.0
H1217 H 0.54535 0.24531 0.32043 0.0
H1218 H 0.5505 0.28421 0.24299 0.0
H1219 H 0.52912 0.31025 0.1572 0.0
H1220 H 0.43185 0.29464 0.11024 0.0
H1221 H 0.42491 0.2591 0.19296 0.0
C1222 C 0.4702 0.2413 0.26782 0.0
C1223 C 0.49633 0.23381 0.30291 0.0
C1224 C 0.47314 0.2637 0.22274 0.0
C1225 C 0.52486 0.25032 0.29408 0.0
C1226 C 0.5279 0.27259 0.24959 0.0
C1227 C 0.50627 0.29935 0.16535 0.0
C1228 C 0.48114 0.30493 0.12724 0.0
C1229 C 0.50247 0.27891 0.21286 0.0
C1230 C 0.45161 0.29084 0.13885 0.0
C1231 C 0.44766 0.27036 0.18605 0.0
H1232 H 0.27014 0.56564 0.35844 0.0
H1233 H 0.28372 0.46349 0.35656 0.0
H1234 H 0.24628 0.45993 0.27804 0.0
H1235 H 0.21334 0.48646 0.20417 0.0
H1236 H 0.2023 0.58893 0.2046 0.0
H1237 H 0.23498 0.5916 0.28933 0.0
C1238 C 0.26466 0.54249 0.34148 0.0
C1239 C 0.27994 0.51491 0.3633 0.0
C1240 C 0.24371 0.54068 0.29554 0.0
C1241 C 0.27239 0.48515 0.34064 0.0
C1242 C 0.25106 0.4831 0.2955 0.0
C1243 C 0.21772 0.50932 0.22331 0.0
C1244 C 0.20549 0.53746 0.19777 0.0
C1245 C 0.23712 0.5108 0.27172 0.0
C1246 C 0.21158 0.5669 0.223 0.0
C1247 C 0.23028 0.56848 0.27154 0.0
H1248 H 0.01662 0.1883 0.181 0.0
H1249 H 0.91533 0.17582 0.20029 0.0
H1250 H 0.91438 0.21066 0.28252 0.0
H1251 H 0.94135 0.24731 0.3454 0.0
H1252 H 0.04226 0.26167 0.32534 0.0
H1253 H 0.04431 0.22317 0.24787 0.0
C1254 C 0.9944 0.19281 0.20369 0.0
C1255 C 0.96606 0.17939 0.18409 0.0
C1256 C 0.99391 0.21332 0.25092 0.0
C1257 C 0.9375 0.1858 0.21401 0.0
C1258 C 0.93691 0.20579 0.26118 0.0
C1259 C 0.96393 0.24186 0.3246 0.0
C1260 C 0.9916 0.2576 0.3413 0.0
C1261 C 0.96484 0.22009 0.27947 0.0
C1262 C 0.02057 0.25001 0.31362 0.0
C1263 C 0.02173 0.22803 0.26907 0.0
H1264 H 0.75908 0.99962 0.16277 0.0
H1265 H 0.7513 0.10226 0.15159 0.0
H1266 H 0.78999 0.10707 0.22687 0.0
H1267 H 0.82446 0.08265 0.29918 0.0
H1268 H 0.83337 0.98022 0.31112 0.0
H1269 H 0.79658 0.97501 0.23205 0.0
C1270 C 0.76612 0.02303 0.17636 0.0
C1271 C 0.75197 0.05048 0.15141 0.0
C1272 C 0.78879 0.02578 0.21993 0.0
C1273 C 0.76154 0.08062 0.16977 0.0
C1274 C 0.78373 0.08347 0.21309 0.0
C1275 C 0.81863 0.05915 0.28425 0.0
C1276 C 0.8317 0.0319 0.31145 0.0
C1277 C 0.79729 0.05628 0.2389 0.0
C1278 C 0.82383 1.00168 0.2911 0.0
C1279 C 0.80262 0.99865 0.24591 0.0
H1280 H 0.51285 0.79733 0.29391 0.0
H1281 H 0.41244 0.81902 0.28221 0.0
H1282 H 0.40903 0.7861 0.19784 0.0
H1283 H 0.43312 0.74683 0.13354 0.0
H1284 H 0.53312 0.72342 0.14629 0.0
H1285 H 0.53814 0.76157 0.22327 0.0
C1286 C 0.49035 0.79528 0.27234 0.0
C1287 C 0.46288 0.8104 0.29484 0.0
C1288 C 0.48838 0.77574 0.22418 0.0
C1289 C 0.43389 0.8074 0.26631 0.0
C1290 C 0.43189 0.78852 0.218 0.0
C1291 C 0.45615 0.75033 0.15258 0.0
C1292 C 0.4826 0.73195 0.13445 0.0
C1293 C 0.45876 0.77188 0.19752 0.0
C1294 C 0.51229 0.73711 0.15939 0.0
C1295 C 0.51516 0.75885 0.20369 0.0
H1296 H 0.72331 0.55671 0.38009 0.0
H1297 H 0.69072 0.46256 0.34121 0.0
H1298 H 0.72188 0.46293 0.25302 0.0
H1299 H 0.76176 0.48753 0.19124 0.0
H1300 H 0.79717 0.58048 0.23045 0.0
H1301 H 0.76116 0.58326 0.31332 0.0
C1302 C 0.72266 0.53651 0.35182 0.0
C1303 C 0.70481 0.50955 0.36757 0.0
C1304 C 0.74126 0.53658 0.30125 0.0
C1305 C 0.70442 0.4835 0.33055 0.0
C1306 C 0.72225 0.48368 0.27998 0.0
C1307 C 0.76143 0.50865 0.21739 0.0
C1308 C 0.78239 0.53366 0.2047 0.0
C1309 C 0.7413 0.50973 0.26558 0.0
C1310 C 0.78132 0.56086 0.23906 0.0
C1311 C 0.76084 0.56237 0.28673 0.0
H1312 H 0.95842 0.75709 0.24624 0.0
H1313 H 0.05771 0.74329 0.20235 0.0
H1314 H 0.06277 0.70235 0.27628 0.0
H1315 H 0.0406 0.67382 0.35903 0.0
H1316 H 0.9414 0.68656 0.40355 0.0
H1317 H 0.93472 0.72401 0.32353 0.0
C1318 C 0.98105 0.74482 0.25233 0.0
C1319 C 0.00772 0.75371 0.21909 0.0
C1320 C 0.98392 0.72113 0.29535 0.0
C1321 C 0.0368 0.73732 0.22748 0.0
C1322 C 0.03979 0.71384 0.26992 0.0
C1323 C 0.01739 0.68445 0.35085 0.0
C1324 C 0.99164 0.67756 0.38765 0.0
C1325 C 0.01375 0.70609 0.30499 0.0
C1326 C 0.96167 0.69137 0.37597 0.0
C1327 C 0.95786 0.71297 0.33034 0.0
H1328 H 0.46766 0.02102 0.91556 0.0
H1329 H 0.46502 0.96833 0.07499 0.0
H1330 H 0.52235 0.974 0.08422 0.0
H1331 H 0.57352 0.99373 0.04721 0.0
H1332 H 0.57607 0.04641 0.88776 0.0
H1333 H 0.51888 0.04017 0.878 0.0
C1334 C 0.47948 0.011 0.95265 0.0
C1335 C 0.46169 0.99443 0.99464 0.0
C1336 C 0.51272 0.01384 0.95733 0.0
C1337 C 0.47781 0.98137 0.04203 0.0
C1338 C 0.51075 0.98442 0.04723 0.0
C1339 C 0.56174 1.00352 0.0099 0.0
C1340 C 0.57945 0.02043 0.96823 0.0
C1341 C 0.52853 1.00039 0.00496 0.0
C1342 C 0.56335 0.03314 0.92051 0.0
C1343 C 0.53048 0.02979 0.91503 0.0
H1344 H 0.51926 0.43923 1.00316 0.0
H1345 H 0.43241 0.42866 0.90981 0.0
H1346 H 0.42471 0.48644 0.90683 0.0
H1347 H 0.44308 0.54017 0.92908 0.0
H1348 H 0.53095 0.55049 0.0198 0.0
H1349 H 0.53816 0.4928 0.02365 0.0
C1350 C 0.49848 0.44944 0.98256 0.0
C1351 C 0.4764 0.42936 0.95706 0.0
C1352 C 0.49466 0.48282 0.97941 0.0
C1353 C 0.44976 0.44334 0.93015 0.0
C1354 C 0.44544 0.47648 0.92802 0.0
C1355 C 0.46402 0.52991 0.94915 0.0
C1356 C 0.4864 0.54997 0.97403 0.0
C1357 C 0.46793 0.4965 0.95191 0.0
C1358 C 0.51328 0.53591 1.00009 0.0
C1359 C 0.51736 0.50279 1.00274 0.0
H1360 H 0.9705 0.54373 0.09859 0.0
H1361 H 0.95884 0.48367 0.95273 0.0
H1362 H 0.01647 0.47857 0.94167 0.0
H1363 H 0.07049 0.49107 0.97325 0.0
H1364 H 0.08183 0.55101 0.11939 0.0
H1365 H 0.02428 0.55545 0.13106 0.0
C1366 C 0.98045 0.52974 0.06401 0.0
C1367 C 0.96004 0.51433 0.02639 0.0
C1368 C 0.01376 0.52636 0.05844 0.0
C1369 C 0.97373 0.49601 0.98227 0.0
C1370 C 0.0068 0.49288 0.97606 0.0
C1371 C 0.06046 0.50471 0.00819 0.0
C1372 C 0.08078 0.52053 0.04546 0.0
C1373 C 0.0271 0.50774 0.01415 0.0
C1374 C 0.06702 0.53842 0.09006 0.0
C1375 C 0.03399 0.5412 0.0966 0.0
H1376 H 0.94865 0.04581 0.07177 0.0
H1377 H 0.03381 0.05689 0.96897 0.0
H1378 H 0.04241 0.9992 0.97028 0.0
H1379 H 0.02534 0.94538 0.99887 0.0
H1380 H 0.94054 0.93449 0.1026 0.0
H1381 H 0.93192 0.99215 0.10115 0.0
C1382 C 0.96932 0.03578 0.05005 0.0
C1383 C 0.99057 0.05606 0.02046 0.0
C1384 C 0.97391 1.00241 0.05015 0.0
C1385 C 0.01706 0.04219 0.99238 0.0
C1386 C 0.0219 0.00906 0.99274 0.0
C1387 C 0.00478 0.95548 0.02079 0.0
C1388 C 0.98355 0.93526 0.05053 0.0
C1389 C 1.0003 0.98888 0.02092 0.0
C1390 C 0.95724 0.94918 0.07905 0.0
C1391 C 0.95238 0.98228 0.07858 0.0
H1392 H 0.0714 0.03707 0.42369 0.0
H1393 H 0.07717 0.97632 0.57358 0.0
H1394 H 0.01927 0.97612 0.58107 0.0
H1395 H 0.96687 0.99229 0.54443 0.0
H1396 H 0.96104 0.0534 0.39509 0.0
H1397 H 0.01898 0.05356 0.38746 0.0
C1398 C 0.06013 0.02399 0.45842 0.0
C1399 C 0.07899 0.00683 0.49812 0.0
C1400 C 0.02666 0.02352 0.46205 0.0
C1401 C 0.06357 0.98994 0.54251 0.0
C1402 C 0.03033 0.9896 0.54663 0.0
C1403 C 0.97813 0.00544 0.50981 0.0
C1404 C 0.95928 0.02266 0.47021 0.0
C1405 C 0.01161 0.00602 0.50631 0.0
C1406 C 0.97469 0.03975 0.42607 0.0
C1407 C 0.00793 0.04004 0.42186 0.0
H1408 H 0.44485 0.94091 0.42151 0.0
H1409 H 0.53266 0.92538 0.51202 0.0
H1410 H 0.53898 0.98277 0.51997 0.0
H1411 H 0.51902 0.0375 0.50377 0.0
H1412 H 0.43194 0.05312 0.41138 0.0
H1413 H 0.4255 0.99567 0.40349 0.0
C1414 C 0.46561 0.94995 0.44241 0.0
C1415 C 0.4882 0.9285 0.46608 0.0
C1416 C 0.46891 0.98314 0.44776 0.0
C1417 C 0.51485 0.94105 0.49316 0.0
C1418 C 0.51839 0.97398 0.4982 0.0
C1419 C 0.49846 0.02844 0.48236 0.0
C1420 C 0.47592 0.04987 0.45861 0.0
C1421 C 0.49535 0.99526 0.47643 0.0
C1422 C 0.44961 0.03738 0.43048 0.0
C1423 C 0.44602 0.00444 0.4255 0.0
H1424 H 0.57111 0.47842 0.49221 0.0
H1425 H 0.5806 0.56423 0.58938 0.0
H1426 H 0.5228 0.57061 0.59397 0.0
H1427 H 0.46945 0.55113 0.57259 0.0
H1428 H 0.46037 0.4642 0.47818 0.0
H1429 H 0.51805 0.45845 0.47245 0.0
C1430 C 0.56069 0.49868 0.51409 0.0
C1431 C 0.58046 0.52081 0.54026 0.0
C1432 C 0.52736 0.50165 0.51829 0.0
C1433 C 0.56616 0.54685 0.56853 0.0
C1434 C 0.53303 0.55038 0.57163 0.0
C1435 C 0.47998 0.5307 0.55128 0.0
C1436 C 0.46027 0.50815 0.52593 0.0
C1437 C 0.51336 0.52769 0.54737 0.0
C1438 C 0.47468 0.48196 0.4983 0.0
C1439 C 0.50778 0.47874 0.49455 0.0
H1440 H 0.03013 0.54644 0.50656 0.0
H1441 H 0.94227 0.55438 0.603 0.0
H1442 H 0.93568 0.49673 0.598 0.0
H1443 H 0.95491 0.44379 0.56682 0.0
H1444 H 0.04298 0.43617 0.47084 0.0
H1445 H 0.04953 0.4937 0.4762 0.0
C1446 C 0.00933 0.53575 0.52618 0.0
C1447 C 0.98662 0.55517 0.55481 0.0
C1448 C 0.0059 0.50238 0.52397 0.0
C1449 C 0.9601 0.54038 0.58036 0.0
C1450 C 0.95638 0.50726 0.57778 0.0
C1451 C 0.97575 0.45455 0.5475 0.0
C1452 C 0.99849 0.43522 0.51866 0.0
C1453 C 0.97923 0.48795 0.55003 0.0
C1454 C 0.02511 0.45007 0.49357 0.0
C1455 C 0.02881 0.48313 0.49633 0.0
loop_
_geom_bond_atom_site_label_1
_geom_bond_atom_site_label_2
_geom_bond_distance
_geom_bond_site_symmetry_2
_ccdc_geom_bond_type
Co0 O2 2.143 . S
Co0 O8 2.074 . S
Co0 O11 2.093 . S
Co0 O24 2.097 1_565 S
Co0 N41 2.151 . S
Co0 N49 2.214 . S
Co1 O2 2.160 1_545 S
Co1 O7 2.058 1_545 S
Co1 O17 2.057 1_554 S
Co1 O32 2.037 . S
Co1 N36 2.145 . S
Co1 N57 2.257 . S
O2 Co0 2.143 . S
O2 Co1 2.160 1_565 S
C3 O4 1.278 1_565 S
C3 O11 1.224 . S
O4 C3 1.278 1_545 S
C5 O6 1.230 1_546 S
C5 O17 1.245 . S
O6 C5 1.230 1_564 S
O7 Co1 2.058 1_565 S
O7 C33 1.269 . S
O8 Co0 2.074 . S
O8 C33 1.257 . S
H9 C34 0.930 . S
H10 C40 0.930 . S
O11 Co0 2.093 . S
O11 C3 1.224 . S
H12 C44 0.929 . S
H13 C46 0.930 . S
H14 C47 0.930 . S
H15 C45 0.929 . S
H16 C48 0.928 . S
O17 Co1 2.057 1_556 S
O17 C5 1.245 . S
H18 C37 0.929 . S
H19 C38 0.929 . S
H20 C50 0.931 . S
H21 C42 0.929 . S
H22 C51 0.930 . S
H23 C43 0.931 . S
O24 Co0 2.097 1_545 S
O24 C52 1.214 . S
H25 C53 0.929 . S
H26 C54 0.929 . S
H27 C55 0.930 . S
H28 C56 0.929 . S
H29 C58 0.930 . S
H30 C35 0.930 . S
H31 C39 0.930 . S
O32 Co1 2.037 . S
O32 C52 1.234 . S
C33 O7 1.269 . S
C33 O8 1.257 . S
C34 H9 0.930 . S
C34 C37 1.388 1_556 S
C34 C39 1.418 . S
C35 H30 0.930 . S
C35 C38 1.404 . S
C35 C39 1.353 . S
N36 Co1 2.145 . S
N36 C37 1.397 . S
N36 C38 1.334 1_554 S
C37 H18 0.929 . S
C37 C34 1.388 1_554 S
C37 N36 1.397 . S
C38 H19 0.929 . S
C38 C35 1.404 . S
C38 N36 1.334 1_556 S
C39 H31 0.930 . S
C39 C34 1.418 . S
C39 C35 1.353 . S
C40 H10 0.930 . S
C40 N41 1.330 . S
C40 C42 1.446 . S
N41 Co0 2.151 . S
N41 C40 1.330 . S
N41 C45 1.418 . S
C42 H21 0.929 . S
C42 C40 1.446 . S
C42 C43 1.332 . S
C43 H23 0.931 . S
C43 C42 1.332 . S
C43 C44 1.267 . S
C44 H12 0.929 . S
C44 C43 1.267 . S
C44 C45 1.251 . S
C45 H15 0.929 . S
C45 N41 1.418 . S
C45 C44 1.251 . S
C46 H13 0.930 . S
C46 C48 1.406 . S
C46 C51 1.261 . S
C47 H14 0.930 . S
C47 N49 1.325 . S
C47 C50 1.357 . S
C48 H16 0.928 . S
C48 C46 1.406 . S
C48 N49 1.261 . S
N49 Co0 2.214 . S
N49 C47 1.325 . S
N49 C48 1.261 . S
C50 H20 0.931 . S
C50 C47 1.357 . S
C50 C51 1.312 . S
C51 H22 0.930 . S
C51 C46 1.261 . S
C51 C50 1.312 . S
C52 O24 1.214 . S
C52 O32 1.234 . S
C53 H25 0.929 . S
C53 C56 1.391 . S
C53 C58 1.391 . S
C54 H26 0.929 . S
C54 C55 1.390 . S
C54 N57 1.391 . S
C55 H27 0.930 . S
C55 C54 1.390 . S
C55 C56 1.392 . S
C56 H28 0.929 . S
C56 C53 1.391 . S
C56 C55 1.392 . S
N57 Co1 2.257 . S
N57 C54 1.391 . S
N57 C58 1.388 . S
C58 H29 0.930 . S
C58 C53 1.391 . S
C58 N57 1.388 . S
Co59 O61 2.143 . S
Co59 O67 2.074 . S
Co59 O70 2.093 . S
Co59 O83 2.097 . S
Co59 N100 2.151 . S
Co59 N108 2.214 . S
Co60 O61 2.160 . S
Co60 O66 2.058 . S
Co60 O76 2.060 . S
Co60 O91 2.037 . S
Co60 N95 2.145 . S
Co60 N116 2.257 . S
O61 Co59 2.143 . S
O61 Co60 2.160 . S
C62 O63 1.278 . S
C62 O70 1.224 . S
O63 C62 1.278 . S
C64 O65 1.245 1_556 S
C64 O76 1.231 1_556 S
O65 C64 1.245 1_554 S
O66 Co60 2.058 . S
O66 C92 1.269 . S
O67 Co59 2.074 . S
O67 C92 1.257 . S
H68 C93 0.930 . S
H69 C99 0.930 . S
O70 Co59 2.093 . S
O70 C62 1.224 . S
H71 C103 0.929 . S
H72 C105 0.930 . S
H73 C106 0.930 . S
H74 C104 0.929 . S
H75 C107 0.928 . S
O76 Co60 2.060 . S
O76 C64 1.231 1_554 S
H77 C96 0.929 . S
H78 C97 0.929 . S
H79 C109 0.931 . S
H80 C101 0.929 . S
H81 C110 0.930 . S
H82 C102 0.931 . S
O83 Co59 2.097 . S
O83 C111 1.214 . S
H84 C112 0.929 . S
H85 C113 0.929 . S
H86 C114 0.930 . S
H87 C115 0.929 . S
H88 C117 0.930 . S
H89 C94 0.930 . S
H90 C98 0.930 . S
O91 Co60 2.037 . S
O91 C111 1.234 . S
C92 O66 1.269 . S
C92 O67 1.257 . S
C93 H68 0.930 . S
C93 C96 1.388 1_556 S
C93 C98 1.418 . S
C94 H89 0.930 . S
C94 C97 1.404 . S
C94 C98 1.353 . S
N95 Co60 2.145 . S
N95 C96 1.397 . S
N95 C97 1.334 1_554 S
C96 H77 0.929 . S
C96 C93 1.388 1_554 S
C96 N95 1.397 . S
C97 H78 0.929 . S
C97 C94 1.404 . S
C97 N95 1.334 1_556 S
C98 H90 0.930 . S
C98 C93 1.418 . S
C98 C94 1.353 . S
C99 H69 0.930 . S
C99 N100 1.330 . S
C99 C101 1.446 . S
N100 Co59 2.151 . S
N100 C99 1.330 . S
N100 C104 1.418 . S
C101 H80 0.929 . S
C101 C99 1.446 . S
C101 C102 1.332 . S
C102 H82 0.931 . S
C102 C101 1.332 . S
C102 C103 1.267 . S
C103 H71 0.929 . S
C103 C102 1.267 . S
C103 C104 1.251 . S
C104 H74 0.929 . S
C104 N100 1.418 . S
C104 C103 1.251 . S
C105 H72 0.930 . S
C105 C107 1.406 . S
C105 C110 1.261 . S
C106 H73 0.930 . S
C106 N108 1.325 . S
C106 C109 1.357 . S
C107 H75 0.928 . S
C107 C105 1.406 . S
C107 N108 1.261 . S
N108 Co59 2.214 . S
N108 C106 1.325 . S
N108 C107 1.261 . S
C109 H79 0.931 . S
C109 C106 1.357 . S
C109 C110 1.312 . S
C110 H81 0.930 . S
C110 C105 1.261 . S
C110 C109 1.312 . S
C111 O83 1.214 . S
C111 O91 1.234 . S
C112 H84 0.929 . S
C112 C115 1.391 . S
C112 C117 1.391 . S
C113 H85 0.929 . S
C113 C114 1.390 . S
C113 N116 1.391 . S
C114 H86 0.930 . S
C114 C113 1.390 . S
C114 C115 1.392 . S
C115 H87 0.929 . S
C115 C112 1.391 . S
C115 C114 1.392 . S
N116 Co60 2.257 . S
N116 C113 1.391 . S
N116 C117 1.388 . S
C117 H88 0.930 . S
C117 C112 1.391 . S
C117 N116 1.388 . S
Co118 O120 2.143 . S
Co118 O126 2.074 . S
Co118 O129 2.093 . S
Co118 O142 2.097 . S
Co118 N159 2.151 . S
Co118 N167 2.214 . S
Co119 O120 2.160 . S
Co119 O125 2.058 . S
Co119 O135 2.057 1_554 S
Co119 O150 2.037 . S
Co119 N154 2.145 . S
Co119 N175 2.257 . S
O120 Co118 2.143 . S
O120 Co119 2.160 . S
C121 O122 1.278 . S
C121 O129 1.224 . S
O122 C121 1.278 . S
C123 O124 1.245 1_556 S
C123 O135 1.232 . S
O124 C123 1.245 1_554 S
O125 Co119 2.058 . S
O125 C151 1.269 . S
O126 Co118 2.074 . S
O126 C151 1.257 . S
H127 C152 0.930 . S
H128 C158 0.930 . S
O129 Co118 2.093 . S
O129 C121 1.224 . S
H130 C162 0.929 . S
H131 C164 0.930 . S
H132 C165 0.930 . S
H133 C163 0.929 . S
H134 C166 0.928 . S
O135 Co119 2.057 1_556 S
O135 C123 1.232 . S
H136 C155 0.929 . S
H137 C156 0.929 . S
H138 C168 0.931 . S
H139 C160 0.929 . S
H140 C169 0.930 . S
H141 C161 0.931 . S
O142 Co118 2.097 . S
O142 C170 1.214 . S
H143 C171 0.929 . S
H144 C172 0.929 . S
H145 C173 0.930 . S
H146 C174 0.929 . S
H147 C176 0.930 . S
H148 C153 0.930 . S
H149 C157 0.930 . S
O150 Co119 2.037 . S
O150 C170 1.234 . S
C151 O125 1.269 . S
C151 O126 1.257 . S
C152 H127 0.930 . S
C152 C155 1.388 1_556 S
C152 C157 1.418 . S
C153 H148 0.930 . S
C153 C156 1.404 . S
C153 C157 1.353 . S
N154 Co119 2.145 . S
N154 C155 1.397 . S
N154 C156 1.334 1_554 S
C155 H136 0.929 . S
C155 C152 1.388 1_554 S
C155 N154 1.397 . S
C156 H137 0.929 . S
C156 C153 1.404 . S
C156 N154 1.334 1_556 S
C157 H149 0.930 . S
C157 C152 1.418 . S
C157 C153 1.353 . S
C158 H128 0.930 . S
C158 N159 1.330 . S
C158 C160 1.446 . S
N159 Co118 2.151 . S
N159 C158 1.330 . S
N159 C163 1.418 . S
C160 H139 0.929 . S
C160 C158 1.446 . S
C160 C161 1.332 . S
C161 H141 0.931 . S
C161 C160 1.332 . S
C161 C162 1.267 . S
C162 H130 0.929 . S
C162 C161 1.267 . S
C162 C163 1.251 . S
C163 H133 0.929 . S
C163 N159 1.418 . S
C163 C162 1.251 . S
C164 H131 0.930 . S
C164 C166 1.406 . S
C164 C169 1.261 . S
C165 H132 0.930 . S
C165 N167 1.325 . S
C165 C168 1.357 . S
C166 H134 0.928 . S
C166 C164 1.406 . S
C166 N167 1.261 . S
N167 Co118 2.214 . S
N167 C165 1.325 . S
N167 C166 1.261 . S
C168 H138 0.931 . S
C168 C165 1.357 . S
C168 C169 1.312 . S
C169 H140 0.930 . S
C169 C164 1.261 . S
C169 C168 1.312 . S
C170 O142 1.214 . S
C170 O150 1.234 . S
C171 H143 0.929 . S
C171 C174 1.391 . S
C171 C176 1.391 . S
C172 H144 0.929 . S
C172 C173 1.390 . S
C172 N175 1.391 . S
C173 H145 0.930 . S
C173 C172 1.390 . S
C173 C174 1.392 . S
C174 H146 0.929 . S
C174 C171 1.391 . S
C174 C173 1.392 . S
N175 Co119 2.257 . S
N175 C172 1.391 . S
N175 C176 1.388 . S
C176 H147 0.930 . S
C176 C171 1.391 . S
C176 N175 1.388 . S
Co177 O179 2.143 . S
Co177 O185 2.074 . S
Co177 O188 2.093 . S
Co177 O201 2.097 1_655 S
Co177 N218 2.151 . S
Co177 N226 2.214 . S
Co178 O179 2.160 1_455 S
Co178 O184 2.050 1_455 S
Co178 O194 2.057 1_554 S
Co178 O209 2.037 . S
Co178 N213 2.145 1_554 S
Co178 N234 2.257 . S
O179 Co177 2.143 . S
O179 Co178 2.160 1_655 S
C180 O181 1.255 1_655 S
C180 O188 1.224 . S
O181 C180 1.255 1_455 S
C182 O183 1.245 1_556 S
C182 O194 1.232 1_655 S
O183 C182 1.245 1_554 S
O184 Co178 2.050 1_655 S
O184 C210 1.276 . S
O185 Co177 2.074 . S
O185 C210 1.257 . S
H186 C211 0.930 . S
H187 C217 0.930 . S
O188 Co177 2.093 . S
O188 C180 1.224 . S
H189 C221 0.929 . S
H190 C223 0.930 . S
H191 C224 0.930 . S
H192 C222 0.929 . S
H193 C225 0.928 . S
O194 Co178 2.057 1_556 S
O194 C182 1.232 1_455 S
H195 C214 0.929 . S
H196 C215 0.929 . S
H197 C227 0.931 . S
H198 C219 0.929 . S
H199 C228 0.930 . S
H200 C220 0.931 . S
O201 Co177 2.097 1_455 S
O201 C229 1.214 . S
H202 C230 0.929 . S
H203 C231 0.929 . S
H204 C232 0.930 . S
H205 C233 0.929 . S
H206 C235 0.930 . S
H207 C212 0.930 . S
H208 C216 0.930 . S
O209 Co178 2.037 . S
O209 C229 1.234 . S
C210 O184 1.276 . S
C210 O185 1.257 . S
C211 H186 0.930 . S
C211 C214 1.388 1_556 S
C211 C216 1.418 . S
C212 H207 0.930 . S
C212 C215 1.404 . S
C212 C216 1.353 . S
N213 Co178 2.145 1_556 S
N213 C214 1.397 1_556 S
N213 C215 1.334 . S
C214 H195 0.929 . S
C214 C211 1.388 1_554 S
C214 N213 1.397 1_554 S
C215 H196 0.929 . S
C215 C212 1.404 . S
C215 N213 1.334 . S
C216 H208 0.930 . S
C216 C211 1.418 . S
C216 C212 1.353 . S
C217 H187 0.930 . S
C217 N218 1.330 . S
C217 C219 1.446 . S
N218 Co177 2.151 . S
N218 C217 1.330 . S
N218 C222 1.418 . S
C219 H198 0.929 . S
C219 C217 1.446 . S
C219 C220 1.332 . S
C220 H200 0.931 . S
C220 C219 1.332 . S
C220 C221 1.267 . S
C221 H189 0.929 . S
C221 C220 1.267 . S
C221 C222 1.251 . S
C222 H192 0.929 . S
C222 N218 1.418 . S
C222 C221 1.251 . S
C223 H190 0.930 . S
C223 C225 1.406 . S
C223 C228 1.261 . S
C224 H191 0.930 . S
C224 N226 1.325 . S
C224 C227 1.357 . S
C225 H193 0.928 . S
C225 C223 1.406 . S
C225 N226 1.261 . S
N226 Co177 2.214 . S
N226 C224 1.325 . S
N226 C225 1.261 . S
C227 H197 0.931 . S
C227 C224 1.357 . S
C227 C228 1.312 . S
C228 H199 0.930 . S
C228 C223 1.261 . S
C228 C227 1.312 . S
C229 O201 1.214 . S
C229 O209 1.234 . S
C230 H202 0.929 . S
C230 C233 1.391 . S
C230 C235 1.391 . S
C231 H203 0.929 . S
C231 C232 1.390 . S
C231 N234 1.391 . S
C232 H204 0.930 . S
C232 C231 1.390 . S
C232 C233 1.392 . S
C233 H205 0.929 . S
C233 C230 1.391 . S
C233 C232 1.392 . S
N234 Co178 2.257 . S
N234 C231 1.391 . S
N234 C235 1.388 . S
C235 H206 0.930 . S
C235 C230 1.391 . S
C235 N234 1.388 . S
Co236 O238 2.143 . S
Co236 O244 2.074 . S
Co236 O247 2.093 . S
Co236 O260 2.097 1_545 S
Co236 N277 2.151 . S
Co236 N285 2.214 . S
Co237 O238 2.160 1_565 S
Co237 O243 2.050 1_565 S
Co237 O253 2.057 . S
Co237 O268 2.037 . S
Co237 N272 2.145 . S
Co237 N293 2.257 . S
O238 Co236 2.143 . S
O238 Co237 2.160 1_545 S
C239 O240 1.255 1_545 S
C239 O247 1.224 . S
O240 C239 1.255 1_565 S
C241 O242 1.245 . S
C241 O253 1.232 1_545 S
O242 C241 1.245 . S
O243 Co237 2.050 1_545 S
O243 C269 1.276 . S
O244 Co236 2.074 . S
O244 C269 1.257 . S
H245 C270 0.930 . S
H246 C276 0.930 . S
O247 Co236 2.093 . S
O247 C239 1.224 . S
H248 C280 0.929 . S
H249 C282 0.930 . S
H250 C283 0.930 . S
H251 C281 0.929 . S
H252 C284 0.928 . S
O253 Co237 2.057 . S
O253 C241 1.232 1_565 S
H254 C273 0.929 . S
H255 C274 0.929 . S
H256 C286 0.931 . S
H257 C278 0.929 . S
H258 C287 0.930 . S
H259 C279 0.931 . S
O260 Co236 2.097 1_565 S
O260 C288 1.214 . S
H261 C289 0.929 . S
H262 C290 0.929 . S
H263 C291 0.930 . S
H264 C292 0.929 . S
H265 C294 0.930 . S
H266 C271 0.930 . S
H267 C275 0.930 . S
O268 Co237 2.037 . S
O268 C288 1.234 . S
C269 O243 1.276 . S
C269 O244 1.257 . S
C270 H245 0.930 . S
C270 C273 1.388 . S
C270 C275 1.418 . S
C271 H266 0.930 . S
C271 C274 1.404 . S
C271 C275 1.353 . S
N272 Co237 2.145 . S
N272 C273 1.397 . S
N272 C274 1.334 . S
C273 H254 0.929 . S
C273 C270 1.388 . S
C273 N272 1.397 . S
C274 H255 0.929 . S
C274 C271 1.404 . S
C274 N272 1.334 . S
C275 H267 0.930 . S
C275 C270 1.418 . S
C275 C271 1.353 . S
C276 H246 0.930 . S
C276 N277 1.330 . S
C276 C278 1.446 . S
N277 Co236 2.151 . S
N277 C276 1.330 . S
N277 C281 1.418 . S
C278 H257 0.929 . S
C278 C276 1.446 . S
C278 C279 1.332 . S
C279 H259 0.931 . S
C279 C278 1.332 . S
C279 C280 1.267 . S
C280 H248 0.929 . S
C280 C279 1.267 . S
C280 C281 1.251 . S
C281 H251 0.929 . S
C281 N277 1.418 . S
C281 C280 1.251 . S
C282 H249 0.930 . S
C282 C284 1.406 . S
C282 C287 1.261 . S
C283 H250 0.930 . S
C283 N285 1.325 . S
C283 C286 1.357 . S
C284 H252 0.928 . S
C284 C282 1.406 . S
C284 N285 1.261 . S
N285 Co236 2.214 . S
N285 C283 1.325 . S
N285 C284 1.261 . S
C286 H256 0.931 . S
C286 C283 1.357 . S
C286 C287 1.312 . S
C287 H258 0.930 . S
C287 C282 1.261 . S
C287 C286 1.312 . S
C288 O260 1.214 . S
C288 O268 1.234 . S
C289 H261 0.929 . S
C289 C292 1.391 . S
C289 C294 1.391 . S
C290 H262 0.929 . S
C290 C291 1.390 . S
C290 N293 1.391 . S
C291 H263 0.930 . S
C291 C290 1.390 . S
C291 C292 1.392 . S
C292 H264 0.929 . S
C292 C289 1.391 . S
C292 C291 1.392 . S
N293 Co237 2.257 . S
N293 C290 1.391 . S
N293 C294 1.388 . S
C294 H265 0.930 . S
C294 C289 1.391 . S
C294 N293 1.388 . S
Co295 O297 2.143 . S
Co295 O303 2.074 . S
Co295 O306 2.093 . S
Co295 O319 2.097 . S
Co295 N336 2.151 . S
Co295 N344 2.214 . S
Co296 O297 2.160 . S
Co296 O302 2.058 . S
Co296 O312 2.057 . S
Co296 O327 2.037 . S
Co296 N331 2.145 . S
Co296 N352 2.257 . S
O297 Co295 2.143 . S
O297 Co296 2.160 . S
C298 O299 1.278 . S
C298 O306 1.224 . S
O299 C298 1.278 . S
C300 O301 1.245 . S
C300 O312 1.232 . S
O301 C300 1.245 . S
O302 Co296 2.058 . S
O302 C328 1.269 . S
O303 Co295 2.074 . S
O303 C328 1.257 . S
H304 C329 0.930 . S
H305 C335 0.930 . S
O306 Co295 2.093 . S
O306 C298 1.224 . S
H307 C339 0.929 . S
H308 C341 0.930 . S
H309 C342 0.930 . S
H310 C340 0.929 . S
H311 C343 0.928 . S
O312 Co296 2.057 . S
O312 C300 1.232 . S
H313 C332 0.929 . S
H314 C333 0.929 . S
H315 C345 0.931 . S
H316 C337 0.929 . S
H317 C346 0.930 . S
H318 C338 0.931 . S
O319 Co295 2.097 . S
O319 C347 1.214 . S
H320 C348 0.929 . S
H321 C349 0.929 . S
H322 C350 0.930 . S
H323 C351 0.929 . S
H324 C353 0.930 . S
H325 C330 0.930 . S
H326 C334 0.930 . S
O327 Co296 2.037 . S
O327 C347 1.234 . S
C328 O302 1.269 . S
C328 O303 1.257 . S
C329 H304 0.930 . S
C329 C332 1.388 . S
C329 C334 1.418 . S
C330 H325 0.930 . S
C330 C333 1.404 . S
C330 C334 1.353 . S
N331 Co296 2.145 . S
N331 C332 1.397 . S
N331 C333 1.334 . S
C332 H313 0.929 . S
C332 C329 1.388 . S
C332 N331 1.397 . S
C333 H314 0.929 . S
C333 C330 1.404 . S
C333 N331 1.334 . S
C334 H326 0.930 . S
C334 C329 1.418 . S
C334 C330 1.353 . S
C335 H305 0.930 . S
C335 N336 1.330 . S
C335 C337 1.446 . S
N336 Co295 2.151 . S
N336 C335 1.330 . S
N336 C340 1.418 . S
C337 H316 0.929 . S
C337 C335 1.446 . S
C337 C338 1.332 . S
C338 H318 0.931 . S
C338 C337 1.332 . S
C338 C339 1.267 . S
C339 H307 0.929 . S
C339 C338 1.267 . S
C339 C340 1.251 . S
C340 H310 0.929 . S
C340 N336 1.418 . S
C340 C339 1.251 . S
C341 H308 0.930 . S
C341 C343 1.406 . S
C341 C346 1.261 . S
C342 H309 0.930 . S
C342 N344 1.325 . S
C342 C345 1.357 . S
C343 H311 0.928 . S
C343 C341 1.406 . S
C343 N344 1.261 . S
N344 Co295 2.214 . S
N344 C342 1.325 . S
N344 C343 1.261 . S
C345 H315 0.931 . S
C345 C342 1.357 . S
C345 C346 1.312 . S
C346 H317 0.930 . S
C346 C341 1.261 . S
C346 C345 1.312 . S
C347 O319 1.214 . S
C347 O327 1.234 . S
C348 H320 0.929 . S
C348 C351 1.391 . S
C348 C353 1.391 . S
C349 H321 0.929 . S
C349 C350 1.390 . S
C349 N352 1.391 . S
C350 H322 0.930 . S
C350 C349 1.390 . S
C350 C351 1.392 . S
C351 H323 0.929 . S
C351 C348 1.391 . S
C351 C350 1.392 . S
N352 Co296 2.257 . S
N352 C349 1.391 . S
N352 C353 1.388 . S
C353 H324 0.930 . S
C353 C348 1.391 . S
C353 N352 1.388 . S
Co354 O356 2.143 . S
Co354 O362 2.074 . S
Co354 O365 2.093 . S
Co354 O378 2.097 . S
Co354 N395 2.151 . S
Co354 N403 2.214 . S
Co355 O356 2.160 . S
Co355 O361 2.058 . S
Co355 O371 2.057 . S
Co355 O386 2.037 . S
Co355 N390 2.145 . S
Co355 N411 2.257 . S
O356 Co354 2.143 . S
O356 Co355 2.160 . S
C357 O358 1.278 . S
C357 O365 1.224 . S
O358 C357 1.278 . S
C359 O360 1.245 . S
C359 O371 1.232 . S
O360 C359 1.245 . S
O361 Co355 2.058 . S
O361 C387 1.269 . S
O362 Co354 2.074 . S
O362 C387 1.257 . S
H363 C388 0.930 . S
H364 C394 0.930 . S
O365 Co354 2.093 . S
O365 C357 1.224 . S
H366 C398 0.929 . S
H367 C400 0.930 . S
H368 C401 0.930 . S
H369 C399 0.929 . S
H370 C402 0.928 . S
O371 Co355 2.057 . S
O371 C359 1.232 . S
H372 C391 0.929 . S
H373 C392 0.929 . S
H374 C404 0.931 . S
H375 C396 0.929 . S
H376 C405 0.930 . S
H377 C397 0.931 . S
O378 Co354 2.097 . S
O378 C406 1.214 . S
H379 C407 0.929 . S
H380 C408 0.929 . S
H381 C409 0.930 . S
H382 C410 0.929 . S
H383 C412 0.930 . S
H384 C389 0.930 . S
H385 C393 0.930 . S
O386 Co355 2.037 . S
O386 C406 1.234 . S
C387 O361 1.269 . S
C387 O362 1.257 . S
C388 H363 0.930 . S
C388 C391 1.388 . S
C388 C393 1.418 . S
C389 H384 0.930 . S
C389 C392 1.404 . S
C389 C393 1.353 . S
N390 Co355 2.145 . S
N390 C391 1.397 . S
N390 C392 1.334 . S
C391 H372 0.929 . S
C391 C388 1.388 . S
C391 N390 1.397 . S
C392 H373 0.929 . S
C392 C389 1.404 . S
C392 N390 1.334 . S
C393 H385 0.930 . S
C393 C388 1.418 . S
C393 C389 1.353 . S
C394 H364 0.930 . S
C394 N395 1.330 . S
C394 C396 1.446 . S
N395 Co354 2.151 . S
N395 C394 1.330 . S
N395 C399 1.418 . S
C396 H375 0.929 . S
C396 C394 1.446 . S
C396 C397 1.332 . S
C397 H377 0.931 . S
C397 C396 1.332 . S
C397 C398 1.267 . S
C398 H366 0.929 . S
C398 C397 1.267 . S
C398 C399 1.251 . S
C399 H369 0.929 . S
C399 N395 1.418 . S
C399 C398 1.251 . S
C400 H367 0.930 . S
C400 C402 1.406 . S
C400 C405 1.261 . S
C401 H368 0.930 . S
C401 N403 1.325 . S
C401 C404 1.357 . S
C402 H370 0.928 . S
C402 C400 1.406 . S
C402 N403 1.261 . S
N403 Co354 2.214 . S
N403 C401 1.325 . S
N403 C402 1.261 . S
C404 H374 0.931 . S
C404 C401 1.357 . S
C404 C405 1.312 . S
C405 H376 0.930 . S
C405 C400 1.261 . S
C405 C404 1.312 . S
C406 O378 1.214 . S
C406 O386 1.234 . S
C407 H379 0.929 . S
C407 C410 1.391 . S
C407 C412 1.391 . S
C408 H380 0.929 . S
C408 C409 1.390 . S
C408 N411 1.391 . S
C409 H381 0.930 . S
C409 C408 1.390 . S
C409 C410 1.392 . S
C410 H382 0.929 . S
C410 C407 1.391 . S
C410 C409 1.392 . S
N411 Co355 2.257 . S
N411 C408 1.391 . S
N411 C412 1.388 . S
C412 H383 0.930 . S
C412 C407 1.391 . S
C412 N411 1.388 . S
Co413 O415 2.143 . S
Co413 O421 2.074 . S
Co413 O424 2.093 . S
Co413 O437 2.097 1_455 S
Co413 N454 2.151 . S
Co413 N462 2.214 . S
Co414 O415 2.160 1_655 S
Co414 O420 2.058 1_655 S
Co414 O430 2.057 . S
Co414 O445 2.037 . S
Co414 N449 2.145 . S
Co414 N470 2.257 . S
O415 Co413 2.143 . S
O415 Co414 2.160 1_455 S
C416 O417 1.278 1_455 S
C416 O424 1.224 . S
O417 C416 1.278 1_655 S
C418 O419 1.230 1_655 S
C418 O430 1.245 . S
O419 C418 1.230 1_455 S
O420 Co414 2.058 1_455 S
O420 C446 1.269 . S
O421 Co413 2.074 . S
O421 C446 1.257 . S
H422 C447 0.930 . S
H423 C453 0.930 . S
O424 Co413 2.093 . S
O424 C416 1.224 . S
H425 C457 0.929 . S
H426 C459 0.930 . S
H427 C460 0.930 . S
H428 C458 0.929 . S
H429 C461 0.928 . S
O430 Co414 2.057 . S
O430 C418 1.245 . S
H431 C450 0.929 . S
H432 C451 0.929 . S
H433 C463 0.931 . S
H434 C455 0.929 . S
H435 C464 0.930 . S
H436 C456 0.931 . S
O437 Co413 2.097 1_655 S
O437 C465 1.214 . S
H438 C466 0.929 . S
H439 C467 0.929 . S
H440 C468 0.930 . S
H441 C469 0.929 . S
H442 C471 0.930 . S
H443 C448 0.930 . S
H444 C452 0.930 . S
O445 Co414 2.037 . S
O445 C465 1.234 . S
C446 O420 1.269 . S
C446 O421 1.257 . S
C447 H422 0.930 . S
C447 C450 1.388 . S
C447 C452 1.418 . S
C448 H443 0.930 . S
C448 C451 1.404 . S
C448 C452 1.353 . S
N449 Co414 2.145 . S
N449 C450 1.397 . S
N449 C451 1.334 . S
C450 H431 0.929 . S
C450 C447 1.388 . S
C450 N449 1.397 . S
C451 H432 0.929 . S
C451 C448 1.404 . S
C451 N449 1.334 . S
C452 H444 0.930 . S
C452 C447 1.418 . S
C452 C448 1.353 . S
C453 H423 0.930 . S
C453 N454 1.330 . S
C453 C455 1.446 . S
N454 Co413 2.151 . S
N454 C453 1.330 . S
N454 C458 1.418 . S
C455 H434 0.929 . S
C455 C453 1.446 . S
C455 C456 1.332 . S
C456 H436 0.931 . S
C456 C455 1.332 . S
C456 C457 1.267 . S
C457 H425 0.929 . S
C457 C456 1.267 . S
C457 C458 1.251 . S
C458 H428 0.929 . S
C458 N454 1.418 . S
C458 C457 1.251 . S
C459 H426 0.930 . S
C459 C461 1.406 . S
C459 C464 1.261 . S
C460 H427 0.930 . S
C460 N462 1.325 . S
C460 C463 1.357 . S
C461 H429 0.928 . S
C461 C459 1.406 . S
C461 N462 1.261 . S
N462 Co413 2.214 . S
N462 C460 1.325 . S
N462 C461 1.261 . S
C463 H433 0.931 . S
C463 C460 1.357 . S
C463 C464 1.312 . S
C464 H435 0.930 . S
C464 C459 1.261 . S
C464 C463 1.312 . S
C465 O437 1.214 . S
C465 O445 1.234 . S
C466 H438 0.929 . S
C466 C469 1.391 . S
C466 C471 1.391 . S
C467 H439 0.929 . S
C467 C468 1.390 . S
C467 N470 1.391 . S
C468 H440 0.930 . S
C468 C467 1.390 . S
C468 C469 1.392 . S
C469 H441 0.929 . S
C469 C466 1.391 . S
C469 C468 1.392 . S
N470 Co414 2.257 . S
N470 C467 1.391 . S
N470 C471 1.388 . S
C471 H442 0.930 . S
C471 C466 1.391 . S
C471 N470 1.388 . S
Co472 O474 2.143 . S
Co472 O480 2.074 . S
Co472 O483 2.093 . S
Co472 O496 2.097 1_545 S
Co472 N513 2.151 . S
Co472 N521 2.214 . S
Co473 O474 2.160 1_565 S
Co473 O479 2.058 1_565 S
Co473 O489 2.057 1_556 S
Co473 O504 2.037 . S
Co473 N508 2.145 . S
Co473 N529 2.257 . S
O474 Co472 2.143 . S
O474 Co473 2.160 1_545 S
C475 O476 1.278 1_545 S
C475 O483 1.224 . S
O476 C475 1.278 1_565 S
C477 O478 1.230 1_564 S
C477 O489 1.245 . S
O478 C477 1.230 1_546 S
O479 Co473 2.058 1_545 S
O479 C505 1.269 . S
O480 Co472 2.074 . S
O480 C505 1.257 . S
H481 C506 0.930 . S
H482 C512 0.930 . S
O483 Co472 2.093 . S
O483 C475 1.224 . S
H484 C516 0.929 . S
H485 C518 0.930 . S
H486 C519 0.930 . S
H487 C517 0.929 . S
H488 C520 0.928 . S
O489 Co473 2.057 1_554 S
O489 C477 1.245 . S
H490 C509 0.929 . S
H491 C510 0.929 . S
H492 C522 0.931 . S
H493 C514 0.929 . S
H494 C523 0.930 . S
H495 C515 0.931 . S
O496 Co472 2.097 1_565 S
O496 C524 1.214 . S
H497 C525 0.929 . S
H498 C526 0.929 . S
H499 C527 0.930 . S
H500 C528 0.929 . S
H501 C530 0.930 . S
H502 C507 0.930 . S
H503 C511 0.930 . S
O504 Co473 2.037 . S
O504 C524 1.234 . S
C505 O479 1.269 . S
C505 O480 1.257 . S
C506 H481 0.930 . S
C506 C509 1.388 1_554 S
C506 C511 1.418 . S
C507 H502 0.930 . S
C507 C510 1.404 . S
C507 C511 1.353 . S
N508 Co473 2.145 . S
N508 C509 1.397 . S
N508 C510 1.334 1_556 S
C509 H490 0.929 . S
C509 C506 1.388 1_556 S
C509 N508 1.397 . S
C510 H491 0.929 . S
C510 C507 1.404 . S
C510 N508 1.334 1_554 S
C511 H503 0.930 . S
C511 C506 1.418 . S
C511 C507 1.353 . S
C512 H482 0.930 . S
C512 N513 1.330 . S
C512 C514 1.446 . S
N513 Co472 2.151 . S
N513 C512 1.330 . S
N513 C517 1.418 . S
C514 H493 0.929 . S
C514 C512 1.446 . S
C514 C515 1.332 . S
C515 H495 0.931 . S
C515 C514 1.332 . S
C515 C516 1.267 . S
C516 H484 0.929 . S
C516 C515 1.267 . S
C516 C517 1.251 . S
C517 H487 0.929 . S
C517 N513 1.418 . S
C517 C516 1.251 . S
C518 H485 0.930 . S
C518 C520 1.406 . S
C518 C523 1.261 . S
C519 H486 0.930 . S
C519 N521 1.325 . S
C519 C522 1.357 . S
C520 H488 0.928 . S
C520 C518 1.406 . S
C520 N521 1.261 . S
N521 Co472 2.214 . S
N521 C519 1.325 . S
N521 C520 1.261 . S
C522 H492 0.931 . S
C522 C519 1.357 . S
C522 C523 1.312 . S
C523 H494 0.930 . S
C523 C518 1.261 . S
C523 C522 1.312 . S
C524 O496 1.214 . S
C524 O504 1.234 . S
C525 H497 0.929 . S
C525 C528 1.391 . S
C525 C530 1.391 . S
C526 H498 0.929 . S
C526 C527 1.390 . S
C526 N529 1.391 . S
C527 H499 0.930 . S
C527 C526 1.390 . S
C527 C528 1.392 . S
C528 H500 0.929 . S
C528 C525 1.391 . S
C528 C527 1.392 . S
N529 Co473 2.257 . S
N529 C526 1.391 . S
N529 C530 1.388 . S
C530 H501 0.930 . S
C530 C525 1.391 . S
C530 N529 1.388 . S
Co531 O533 2.143 . S
Co531 O539 2.074 . S
Co531 O542 2.093 . S
Co531 O555 2.097 . S
Co531 N572 2.151 . S
Co531 N580 2.214 . S
Co532 O533 2.160 . S
Co532 O538 2.058 . S
Co532 O548 2.060 . S
Co532 O563 2.037 . S
Co532 N567 2.145 . S
Co532 N588 2.257 . S
O533 Co531 2.143 . S
O533 Co532 2.160 . S
C534 O535 1.278 . S
C534 O542 1.224 . S
O535 C534 1.278 . S
C536 O537 1.245 1_554 S
C536 O548 1.231 1_554 S
O537 C536 1.245 1_556 S
O538 Co532 2.058 . S
O538 C564 1.269 . S
O539 Co531 2.074 . S
O539 C564 1.257 . S
H540 C565 0.930 . S
H541 C571 0.930 . S
O542 Co531 2.093 . S
O542 C534 1.224 . S
H543 C575 0.929 . S
H544 C577 0.930 . S
H545 C578 0.930 . S
H546 C576 0.929 . S
H547 C579 0.928 . S
O548 Co532 2.060 . S
O548 C536 1.231 1_556 S
H549 C568 0.929 . S
H550 C569 0.929 . S
H551 C581 0.931 . S
H552 C573 0.929 . S
H553 C582 0.930 . S
H554 C574 0.931 . S
O555 Co531 2.097 . S
O555 C583 1.214 . S
H556 C584 0.929 . S
H557 C585 0.929 . S
H558 C586 0.930 . S
H559 C587 0.929 . S
H560 C589 0.930 . S
H561 C566 0.930 . S
H562 C570 0.930 . S
O563 Co532 2.037 . S
O563 C583 1.234 . S
C564 O538 1.269 . S
C564 O539 1.257 . S
C565 H540 0.930 . S
C565 C568 1.388 1_554 S
C565 C570 1.418 . S
C566 H561 0.930 . S
C566 C569 1.404 . S
C566 C570 1.353 . S
N567 Co532 2.145 . S
N567 C568 1.397 . S
N567 C569 1.334 1_556 S
C568 H549 0.929 . S
C568 C565 1.388 1_556 S
C568 N567 1.397 . S
C569 H550 0.929 . S
C569 C566 1.404 . S
C569 N567 1.334 1_554 S
C570 H562 0.930 . S
C570 C565 1.418 . S
C570 C566 1.353 . S
C571 H541 0.930 . S
C571 N572 1.330 . S
C571 C573 1.446 . S
N572 Co531 2.151 . S
N572 C571 1.330 . S
N572 C576 1.418 . S
C573 H552 0.929 . S
C573 C571 1.446 . S
C573 C574 1.332 . S
C574 H554 0.931 . S
C574 C573 1.332 . S
C574 C575 1.267 . S
C575 H543 0.929 . S
C575 C574 1.267 . S
C575 C576 1.251 . S
C576 H546 0.929 . S
C576 N572 1.418 . S
C576 C575 1.251 . S
C577 H544 0.930 . S
C577 C579 1.406 . S
C577 C582 1.261 . S
C578 H545 0.930 . S
C578 N580 1.325 . S
C578 C581 1.357 . S
C579 H547 0.928 . S
C579 C577 1.406 . S
C579 N580 1.261 . S
N580 Co531 2.214 . S
N580 C578 1.325 . S
N580 C579 1.261 . S
C581 H551 0.931 . S
C581 C578 1.357 . S
C581 C582 1.312 . S
C582 H553 0.930 . S
C582 C577 1.261 . S
C582 C581 1.312 . S
C583 O555 1.214 . S
C583 O563 1.234 . S
C584 H556 0.929 . S
C584 C587 1.391 . S
C584 C589 1.391 . S
C585 H557 0.929 . S
C585 C586 1.390 . S
C585 N588 1.391 . S
C586 H558 0.930 . S
C586 C585 1.390 . S
C586 C587 1.392 . S
C587 H559 0.929 . S
C587 C584 1.391 . S
C587 C586 1.392 . S
N588 Co532 2.257 . S
N588 C585 1.391 . S
N588 C589 1.388 . S
C589 H560 0.930 . S
C589 C584 1.391 . S
C589 N588 1.388 . S
Co590 O592 2.143 . S
Co590 O598 2.074 . S
Co590 O601 2.093 . S
Co590 O614 2.097 . S
Co590 N631 2.151 . S
Co590 N639 2.214 . S
Co591 O592 2.160 . S
Co591 O597 2.058 . S
Co591 O607 2.057 1_556 S
Co591 O622 2.037 . S
Co591 N626 2.145 . S
Co591 N647 2.257 . S
O592 Co590 2.143 . S
O592 Co591 2.160 . S
C593 O594 1.278 . S
C593 O601 1.224 . S
O594 C593 1.278 . S
C595 O596 1.245 1_554 S
C595 O607 1.232 . S
O596 C595 1.245 1_556 S
O597 Co591 2.058 . S
O597 C623 1.269 . S
O598 Co590 2.074 . S
O598 C623 1.257 . S
H599 C624 0.930 . S
H600 C630 0.930 . S
O601 Co590 2.093 . S
O601 C593 1.224 . S
H602 C634 0.929 . S
H603 C636 0.930 . S
H604 C637 0.930 . S
H605 C635 0.929 . S
H606 C638 0.928 . S
O607 Co591 2.057 1_554 S
O607 C595 1.232 . S
H608 C627 0.929 . S
H609 C628 0.929 . S
H610 C640 0.931 . S
H611 C632 0.929 . S
H612 C641 0.930 . S
H613 C633 0.931 . S
O614 Co590 2.097 . S
O614 C642 1.214 . S
H615 C643 0.929 . S
H616 C644 0.929 . S
H617 C645 0.930 . S
H618 C646 0.929 . S
H619 C648 0.930 . S
H620 C625 0.930 . S
H621 C629 0.930 . S
O622 Co591 2.037 . S
O622 C642 1.234 . S
C623 O597 1.269 . S
C623 O598 1.257 . S
C624 H599 0.930 . S
C624 C627 1.388 1_554 S
C624 C629 1.418 . S
C625 H620 0.930 . S
C625 C628 1.404 . S
C625 C629 1.353 . S
N626 Co591 2.145 . S
N626 C627 1.397 . S
N626 C628 1.334 1_556 S
C627 H608 0.929 . S
C627 C624 1.388 1_556 S
C627 N626 1.397 . S
C628 H609 0.929 . S
C628 C625 1.404 . S
C628 N626 1.334 1_554 S
C629 H621 0.930 . S
C629 C624 1.418 . S
C629 C625 1.353 . S
C630 H600 0.930 . S
C630 N631 1.330 . S
C630 C632 1.446 . S
N631 Co590 2.151 . S
N631 C630 1.330 . S
N631 C635 1.418 . S
C632 H611 0.929 . S
C632 C630 1.446 . S
C632 C633 1.332 . S
C633 H613 0.931 . S
C633 C632 1.332 . S
C633 C634 1.267 . S
C634 H602 0.929 . S
C634 C633 1.267 . S
C634 C635 1.251 . S
C635 H605 0.929 . S
C635 N631 1.418 . S
C635 C634 1.251 . S
C636 H603 0.930 . S
C636 C638 1.406 . S
C636 C641 1.261 . S
C637 H604 0.930 . S
C637 N639 1.325 . S
C637 C640 1.357 . S
C638 H606 0.928 . S
C638 C636 1.406 . S
C638 N639 1.261 . S
N639 Co590 2.214 . S
N639 C637 1.325 . S
N639 C638 1.261 . S
C640 H610 0.931 . S
C640 C637 1.357 . S
C640 C641 1.312 . S
C641 H612 0.930 . S
C641 C636 1.261 . S
C641 C640 1.312 . S
C642 O614 1.214 . S
C642 O622 1.234 . S
C643 H615 0.929 . S
C643 C646 1.391 . S
C643 C648 1.391 . S
C644 H616 0.929 . S
C644 C645 1.390 . S
C644 N647 1.391 . S
C645 H617 0.930 . S
C645 C644 1.390 . S
C645 C646 1.392 . S
C646 H618 0.929 . S
C646 C643 1.391 . S
C646 C645 1.392 . S
N647 Co591 2.257 . S
N647 C644 1.391 . S
N647 C648 1.388 . S
C648 H619 0.930 . S
C648 C643 1.391 . S
C648 N647 1.388 . S
Co649 O651 2.143 . S
Co649 O657 2.074 . S
Co649 O660 2.093 . S
Co649 O673 2.097 1_455 S
Co649 N690 2.151 . S
Co649 N698 2.214 . S
Co650 O651 2.160 1_655 S
Co650 O656 2.050 1_655 S
Co650 O666 2.057 1_556 S
Co650 O681 2.037 . S
Co650 N685 2.145 1_556 S
Co650 N706 2.257 . S
O651 Co649 2.143 . S
O651 Co650 2.160 1_455 S
C652 O653 1.255 1_455 S
C652 O660 1.224 . S
O653 C652 1.255 1_655 S
C654 O655 1.245 1_554 S
C654 O666 1.232 1_455 S
O655 C654 1.245 1_556 S
O656 Co650 2.050 1_455 S
O656 C682 1.276 . S
O657 Co649 2.074 . S
O657 C682 1.257 . S
H658 C683 0.930 . S
H659 C689 0.930 . S
O660 Co649 2.093 . S
O660 C652 1.224 . S
H661 C693 0.929 . S
H662 C695 0.930 . S
H663 C696 0.930 . S
H664 C694 0.929 . S
H665 C697 0.928 . S
O666 Co650 2.057 1_554 S
O666 C654 1.232 1_655 S
H667 C686 0.929 . S
H668 C687 0.929 . S
H669 C699 0.931 . S
H670 C691 0.929 . S
H671 C700 0.930 . S
H672 C692 0.931 . S
O673 Co649 2.097 1_655 S
O673 C701 1.214 . S
H674 C702 0.929 . S
H675 C703 0.929 . S
H676 C704 0.930 . S
H677 C705 0.929 . S
H678 C707 0.930 . S
H679 C684 0.930 . S
H680 C688 0.930 . S
O681 Co650 2.037 . S
O681 C701 1.234 . S
C682 O656 1.276 . S
C682 O657 1.257 . S
C683 H658 0.930 . S
C683 C686 1.388 1_554 S
C683 C688 1.418 . S
C684 H679 0.930 . S
C684 C687 1.404 . S
C684 C688 1.353 . S
N685 Co650 2.145 1_554 S
N685 C686 1.397 1_554 S
N685 C687 1.334 . S
C686 H667 0.929 . S
C686 C683 1.388 1_556 S
C686 N685 1.397 1_556 S
C687 H668 0.929 . S
C687 C684 1.404 . S
C687 N685 1.334 . S
C688 H680 0.930 . S
C688 C683 1.418 . S
C688 C684 1.353 . S
C689 H659 0.930 . S
C689 N690 1.330 . S
C689 C691 1.446 . S
N690 Co649 2.151 . S
N690 C689 1.330 . S
N690 C694 1.418 . S
C691 H670 0.929 . S
C691 C689 1.446 . S
C691 C692 1.332 . S
C692 H672 0.931 . S
C692 C691 1.332 . S
C692 C693 1.267 . S
C693 H661 0.929 . S
C693 C692 1.267 . S
C693 C694 1.251 . S
C694 H664 0.929 . S
C694 N690 1.418 . S
C694 C693 1.251 . S
C695 H662 0.930 . S
C695 C697 1.406 . S
C695 C700 1.261 . S
C696 H663 0.930 . S
C696 N698 1.325 . S
C696 C699 1.357 . S
C697 H665 0.928 . S
C697 C695 1.406 . S
C697 N698 1.261 . S
N698 Co649 2.214 . S
N698 C696 1.325 . S
N698 C697 1.261 . S
C699 H669 0.931 . S
C699 C696 1.357 . S
C699 C700 1.312 . S
C700 H671 0.930 . S
C700 C695 1.261 . S
C700 C699 1.312 . S
C701 O673 1.214 . S
C701 O681 1.234 . S
C702 H674 0.929 . S
C702 C705 1.391 . S
C702 C707 1.391 . S
C703 H675 0.929 . S
C703 C704 1.390 . S
C703 N706 1.391 . S
C704 H676 0.930 . S
C704 C703 1.390 . S
C704 C705 1.392 . S
C705 H677 0.929 . S
C705 C702 1.391 . S
C705 C704 1.392 . S
N706 Co650 2.257 . S
N706 C703 1.391 . S
N706 C707 1.388 . S
C707 H678 0.930 . S
C707 C702 1.391 . S
C707 N706 1.388 . S
Co708 O710 2.143 . S
Co708 O716 2.074 . S
Co708 O719 2.093 . S
Co708 O732 2.097 1_565 S
Co708 N749 2.151 . S
Co708 N757 2.214 . S
Co709 O710 2.160 1_545 S
Co709 O715 2.050 1_545 S
Co709 O725 2.057 . S
Co709 O740 2.037 . S
Co709 N744 2.145 . S
Co709 N765 2.257 . S
O710 Co708 2.143 . S
O710 Co709 2.160 1_565 S
C711 O712 1.255 1_565 S
C711 O719 1.224 . S
O712 C711 1.255 1_545 S
C713 O714 1.245 . S
C713 O725 1.232 1_565 S
O714 C713 1.245 . S
O715 Co709 2.050 1_565 S
O715 C741 1.276 . S
O716 Co708 2.074 . S
O716 C741 1.257 . S
H717 C742 0.930 . S
H718 C748 0.930 . S
O719 Co708 2.093 . S
O719 C711 1.224 . S
H720 C752 0.929 . S
H721 C754 0.930 . S
H722 C755 0.930 . S
H723 C753 0.929 . S
H724 C756 0.928 . S
O725 Co709 2.057 . S
O725 C713 1.232 1_545 S
H726 C745 0.929 . S
H727 C746 0.929 . S
H728 C758 0.931 . S
H729 C750 0.929 . S
H730 C759 0.930 . S
H731 C751 0.931 . S
O732 Co708 2.097 1_545 S
O732 C760 1.214 . S
H733 C761 0.929 . S
H734 C762 0.929 . S
H735 C763 0.930 . S
H736 C764 0.929 . S
H737 C766 0.930 . S
H738 C743 0.930 . S
H739 C747 0.930 . S
O740 Co709 2.037 . S
O740 C760 1.234 . S
C741 O715 1.276 . S
C741 O716 1.257 . S
C742 H717 0.930 . S
C742 C745 1.388 . S
C742 C747 1.418 . S
C743 H738 0.930 . S
C743 C746 1.404 . S
C743 C747 1.353 . S
N744 Co709 2.145 . S
N744 C745 1.397 . S
N744 C746 1.334 . S
C745 H726 0.929 . S
C745 C742 1.388 . S
C745 N744 1.397 . S
C746 H727 0.929 . S
C746 C743 1.404 . S
C746 N744 1.334 . S
C747 H739 0.930 . S
C747 C742 1.418 . S
C747 C743 1.353 . S
C748 H718 0.930 . S
C748 N749 1.330 . S
C748 C750 1.446 . S
N749 Co708 2.151 . S
N749 C748 1.330 . S
N749 C753 1.418 . S
C750 H729 0.929 . S
C750 C748 1.446 . S
C750 C751 1.332 . S
C751 H731 0.931 . S
C751 C750 1.332 . S
C751 C752 1.267 . S
C752 H720 0.929 . S
C752 C751 1.267 . S
C752 C753 1.251 . S
C753 H723 0.929 . S
C753 N749 1.418 . S
C753 C752 1.251 . S
C754 H721 0.930 . S
C754 C756 1.406 . S
C754 C759 1.261 . S
C755 H722 0.930 . S
C755 N757 1.325 . S
C755 C758 1.357 . S
C756 H724 0.928 . S
C756 C754 1.406 . S
C756 N757 1.261 . S
N757 Co708 2.214 . S
N757 C755 1.325 . S
N757 C756 1.261 . S
C758 H728 0.931 . S
C758 C755 1.357 . S
C758 C759 1.312 . S
C759 H730 0.930 . S
C759 C754 1.261 . S
C759 C758 1.312 . S
C760 O732 1.214 . S
C760 O740 1.234 . S
C761 H733 0.929 . S
C761 C764 1.391 . S
C761 C766 1.391 . S
C762 H734 0.929 . S
C762 C763 1.390 . S
C762 N765 1.391 . S
C763 H735 0.930 . S
C763 C762 1.390 . S
C763 C764 1.392 . S
C764 H736 0.929 . S
C764 C761 1.391 . S
C764 C763 1.392 . S
N765 Co709 2.257 . S
N765 C762 1.391 . S
N765 C766 1.388 . S
C766 H737 0.930 . S
C766 C761 1.391 . S
C766 N765 1.388 . S
Co767 O769 2.143 . S
Co767 O775 2.074 . S
Co767 O778 2.093 . S
Co767 O791 2.097 . S
Co767 N808 2.151 . S
Co767 N816 2.214 . S
Co768 O769 2.160 . S
Co768 O774 2.058 . S
Co768 O784 2.057 . S
Co768 O799 2.037 . S
Co768 N803 2.145 . S
Co768 N824 2.257 . S
O769 Co767 2.143 . S
O769 Co768 2.160 . S
C770 O771 1.278 . S
C770 O778 1.224 . S
O771 C770 1.278 . S
C772 O773 1.245 . S
C772 O784 1.232 . S
O773 C772 1.245 . S
O774 Co768 2.058 . S
O774 C800 1.269 . S
O775 Co767 2.074 . S
O775 C800 1.257 . S
H776 C801 0.930 . S
H777 C807 0.930 . S
O778 Co767 2.093 . S
O778 C770 1.224 . S
H779 C811 0.929 . S
H780 C813 0.930 . S
H781 C814 0.930 . S
H782 C812 0.929 . S
H783 C815 0.928 . S
O784 Co768 2.057 . S
O784 C772 1.232 . S
H785 C804 0.929 . S
H786 C805 0.929 . S
H787 C817 0.931 . S
H788 C809 0.929 . S
H789 C818 0.930 . S
H790 C810 0.931 . S
O791 Co767 2.097 . S
O791 C819 1.214 . S
H792 C820 0.929 . S
H793 C821 0.929 . S
H794 C822 0.930 . S
H795 C823 0.929 . S
H796 C825 0.930 . S
H797 C802 0.930 . S
H798 C806 0.930 . S
O799 Co768 2.037 . S
O799 C819 1.234 . S
C800 O774 1.269 . S
C800 O775 1.257 . S
C801 H776 0.930 . S
C801 C804 1.388 . S
C801 C806 1.418 . S
C802 H797 0.930 . S
C802 C805 1.404 . S
C802 C806 1.353 . S
N803 Co768 2.145 . S
N803 C804 1.397 . S
N803 C805 1.334 . S
C804 H785 0.929 . S
C804 C801 1.388 . S
C804 N803 1.397 . S
C805 H786 0.929 . S
C805 C802 1.404 . S
C805 N803 1.334 . S
C806 H798 0.930 . S
C806 C801 1.418 . S
C806 C802 1.353 . S
C807 H777 0.930 . S
C807 N808 1.330 . S
C807 C809 1.446 . S
N808 Co767 2.151 . S
N808 C807 1.330 . S
N808 C812 1.418 . S
C809 H788 0.929 . S
C809 C807 1.446 . S
C809 C810 1.332 . S
C810 H790 0.931 . S
C810 C809 1.332 . S
C810 C811 1.267 . S
C811 H779 0.929 . S
C811 C810 1.267 . S
C811 C812 1.251 . S
C812 H782 0.929 . S
C812 N808 1.418 . S
C812 C811 1.251 . S
C813 H780 0.930 . S
C813 C815 1.406 . S
C813 C818 1.261 . S
C814 H781 0.930 . S
C814 N816 1.325 . S
C814 C817 1.357 . S
C815 H783 0.928 . S
C815 C813 1.406 . S
C815 N816 1.261 . S
N816 Co767 2.214 . S
N816 C814 1.325 . S
N816 C815 1.261 . S
C817 H787 0.931 . S
C817 C814 1.357 . S
C817 C818 1.312 . S
C818 H789 0.930 . S
C818 C813 1.261 . S
C818 C817 1.312 . S
C819 O791 1.214 . S
C819 O799 1.234 . S
C820 H792 0.929 . S
C820 C823 1.391 . S
C820 C825 1.391 . S
C821 H793 0.929 . S
C821 C822 1.390 . S
C821 N824 1.391 . S
C822 H794 0.930 . S
C822 C821 1.390 . S
C822 C823 1.392 . S
C823 H795 0.929 . S
C823 C820 1.391 . S
C823 C822 1.392 . S
N824 Co768 2.257 . S
N824 C821 1.391 . S
N824 C825 1.388 . S
C825 H796 0.930 . S
C825 C820 1.391 . S
C825 N824 1.388 . S
Co826 O828 2.143 . S
Co826 O834 2.074 . S
Co826 O837 2.093 . S
Co826 O850 2.097 . S
Co826 N867 2.151 . S
Co826 N875 2.214 . S
Co827 O828 2.160 . S
Co827 O833 2.058 . S
Co827 O843 2.057 . S
Co827 O858 2.037 . S
Co827 N862 2.145 . S
Co827 N883 2.257 . S
O828 Co826 2.143 . S
O828 Co827 2.160 . S
C829 O830 1.278 . S
C829 O837 1.224 . S
O830 C829 1.278 . S
C831 O832 1.245 . S
C831 O843 1.232 . S
O832 C831 1.245 . S
O833 Co827 2.058 . S
O833 C859 1.269 . S
O834 Co826 2.074 . S
O834 C859 1.257 . S
H835 C860 0.930 . S
H836 C866 0.930 . S
O837 Co826 2.093 . S
O837 C829 1.224 . S
H838 C870 0.929 . S
H839 C872 0.930 . S
H840 C873 0.930 . S
H841 C871 0.929 . S
H842 C874 0.928 . S
O843 Co827 2.057 . S
O843 C831 1.232 . S
H844 C863 0.929 . S
H845 C864 0.929 . S
H846 C876 0.931 . S
H847 C868 0.929 . S
H848 C877 0.930 . S
H849 C869 0.931 . S
O850 Co826 2.097 . S
O850 C878 1.214 . S
H851 C879 0.929 . S
H852 C880 0.929 . S
H853 C881 0.930 . S
H854 C882 0.929 . S
H855 C884 0.930 . S
H856 C861 0.930 . S
H857 C865 0.930 . S
O858 Co827 2.037 . S
O858 C878 1.234 . S
C859 O833 1.269 . S
C859 O834 1.257 . S
C860 H835 0.930 . S
C860 C863 1.388 . S
C860 C865 1.418 . S
C861 H856 0.930 . S
C861 C864 1.404 . S
C861 C865 1.353 . S
N862 Co827 2.145 . S
N862 C863 1.397 . S
N862 C864 1.334 . S
C863 H844 0.929 . S
C863 C860 1.388 . S
C863 N862 1.397 . S
C864 H845 0.929 . S
C864 C861 1.404 . S
C864 N862 1.334 . S
C865 H857 0.930 . S
C865 C860 1.418 . S
C865 C861 1.353 . S
C866 H836 0.930 . S
C866 N867 1.330 . S
C866 C868 1.446 . S
N867 Co826 2.151 . S
N867 C866 1.330 . S
N867 C871 1.418 . S
C868 H847 0.929 . S
C868 C866 1.446 . S
C868 C869 1.332 . S
C869 H849 0.931 . S
C869 C868 1.332 . S
C869 C870 1.267 . S
C870 H838 0.929 . S
C870 C869 1.267 . S
C870 C871 1.251 . S
C871 H841 0.929 . S
C871 N867 1.418 . S
C871 C870 1.251 . S
C872 H839 0.930 . S
C872 C874 1.406 . S
C872 C877 1.261 . S
C873 H840 0.930 . S
C873 N875 1.325 . S
C873 C876 1.357 . S
C874 H842 0.928 . S
C874 C872 1.406 . S
C874 N875 1.261 . S
N875 Co826 2.214 . S
N875 C873 1.325 . S
N875 C874 1.261 . S
C876 H846 0.931 . S
C876 C873 1.357 . S
C876 C877 1.312 . S
C877 H848 0.930 . S
C877 C872 1.261 . S
C877 C876 1.312 . S
C878 O850 1.214 . S
C878 O858 1.234 . S
C879 H851 0.929 . S
C879 C882 1.391 . S
C879 C884 1.391 . S
C880 H852 0.929 . S
C880 C881 1.390 . S
C880 N883 1.391 . S
C881 H853 0.930 . S
C881 C880 1.390 . S
C881 C882 1.392 . S
C882 H854 0.929 . S
C882 C879 1.391 . S
C882 C881 1.392 . S
N883 Co827 2.257 . S
N883 C880 1.391 . S
N883 C884 1.388 . S
C884 H855 0.930 . S
C884 C879 1.391 . S
C884 N883 1.388 . S
Co885 O887 2.143 . S
Co885 O893 2.074 . S
Co885 O896 2.093 . S
Co885 O909 2.097 1_655 S
Co885 N926 2.151 . S
Co885 N934 2.214 . S
Co886 O887 2.160 1_455 S
Co886 O892 2.058 1_455 S
Co886 O902 2.057 . S
Co886 O917 2.037 . S
Co886 N921 2.145 . S
Co886 N942 2.257 . S
O887 Co885 2.143 . S
O887 Co886 2.160 1_655 S
C888 O889 1.278 1_655 S
C888 O896 1.224 . S
O889 C888 1.278 1_455 S
C890 O891 1.230 1_455 S
C890 O902 1.245 . S
O891 C890 1.230 1_655 S
O892 Co886 2.058 1_655 S
O892 C918 1.269 . S
O893 Co885 2.074 . S
O893 C918 1.257 . S
H894 C919 0.930 . S
H895 C925 0.930 . S
O896 Co885 2.093 . S
O896 C888 1.224 . S
H897 C929 0.929 . S
H898 C931 0.930 . S
H899 C932 0.930 . S
H900 C930 0.929 . S
H901 C933 0.928 . S
O902 Co886 2.057 . S
O902 C890 1.245 . S
H903 C922 0.929 . S
H904 C923 0.929 . S
H905 C935 0.931 . S
H906 C927 0.929 . S
H907 C936 0.930 . S
H908 C928 0.931 . S
O909 Co885 2.097 1_455 S
O909 C937 1.214 . S
H910 C938 0.929 . S
H911 C939 0.929 . S
H912 C940 0.930 . S
H913 C941 0.929 . S
H914 C943 0.930 . S
H915 C920 0.930 . S
H916 C924 0.930 . S
O917 Co886 2.037 . S
O917 C937 1.234 . S
C918 O892 1.269 . S
C918 O893 1.257 . S
C919 H894 0.930 . S
C919 C922 1.388 . S
C919 C924 1.418 . S
C920 H915 0.930 . S
C920 C923 1.404 . S
C920 C924 1.353 . S
N921 Co886 2.145 . S
N921 C922 1.397 . S
N921 C923 1.334 . S
C922 H903 0.929 . S
C922 C919 1.388 . S
C922 N921 1.397 . S
C923 H904 0.929 . S
C923 C920 1.404 . S
C923 N921 1.334 . S
C924 H916 0.930 . S
C924 C919 1.418 . S
C924 C920 1.353 . S
C925 H895 0.930 . S
C925 N926 1.330 . S
C925 C927 1.446 . S
N926 Co885 2.151 . S
N926 C925 1.330 . S
N926 C930 1.418 . S
C927 H906 0.929 . S
C927 C925 1.446 . S
C927 C928 1.332 . S
C928 H908 0.931 . S
C928 C927 1.332 . S
C928 C929 1.267 . S
C929 H897 0.929 . S
C929 C928 1.267 . S
C929 C930 1.251 . S
C930 H900 0.929 . S
C930 N926 1.418 . S
C930 C929 1.251 . S
C931 H898 0.930 . S
C931 C933 1.406 . S
C931 C936 1.261 . S
C932 H899 0.930 . S
C932 N934 1.325 . S
C932 C935 1.357 . S
C933 H901 0.928 . S
C933 C931 1.406 . S
C933 N934 1.261 . S
N934 Co885 2.214 . S
N934 C932 1.325 . S
N934 C933 1.261 . S
C935 H905 0.931 . S
C935 C932 1.357 . S
C935 C936 1.312 . S
C936 H907 0.930 . S
C936 C931 1.261 . S
C936 C935 1.312 . S
C937 O909 1.214 . S
C937 O917 1.234 . S
C938 H910 0.929 . S
C938 C941 1.391 . S
C938 C943 1.391 . S
C939 H911 0.929 . S
C939 C940 1.390 . S
C939 N942 1.391 . S
C940 H912 0.930 . S
C940 C939 1.390 . S
C940 C941 1.392 . S
C941 H913 0.929 . S
C941 C938 1.391 . S
C941 C940 1.392 . S
N942 Co886 2.257 . S
N942 C939 1.391 . S
N942 C943 1.388 . S
C943 H914 0.930 . S
C943 C938 1.391 . S
C943 N942 1.388 . S
H944 C950 0.930 . S
H945 C953 0.930 . S
H946 C954 0.930 . S
H947 C955 0.930 . S
H948 C958 0.930 . S
H949 C959 0.930 . S
C950 H944 0.930 . S
C950 C951 1.355 . S
C950 C952 1.415 . S
C951 C950 1.355 . S
C951 C953 1.419 . S
C952 C950 1.415 . S
C952 C957 1.425 . S
C952 C959 1.409 . S
C953 H945 0.930 . S
C953 C951 1.419 . S
C953 C954 1.362 . S
C954 H946 0.930 . S
C954 C953 1.362 . S
C954 C957 1.409 . S
C955 H947 0.930 . S
C955 C956 1.355 . S
C955 C957 1.415 . S
C956 C955 1.355 . S
C956 C958 1.419 . S
C957 C952 1.425 . S
C957 C954 1.409 . S
C957 C955 1.415 . S
C958 H948 0.930 . S
C958 C956 1.419 . S
C958 C959 1.362 . S
C959 H949 0.930 . S
C959 C952 1.409 . S
C959 C958 1.362 . S
H960 C966 0.930 . S
H961 C969 0.930 . S
H962 C970 0.930 . S
H963 C971 0.930 . S
H964 C974 0.930 . S
H965 C975 0.930 . S
C966 H960 0.930 . S
C966 C967 1.355 . S
C966 C968 1.415 . S
C967 C966 1.355 . S
C967 C969 1.419 . S
C968 C966 1.415 . S
C968 C973 1.425 . S
C968 C975 1.409 . S
C969 H961 0.930 . S
C969 C967 1.419 . S
C969 C970 1.362 . S
C970 H962 0.930 . S
C970 C969 1.362 . S
C970 C973 1.409 . S
C971 H963 0.930 . S
C971 C972 1.355 . S
C971 C973 1.415 . S
C972 C971 1.355 . S
C972 C974 1.419 . S
C973 C968 1.425 . S
C973 C970 1.409 . S
C973 C971 1.415 . S
C974 H964 0.930 . S
C974 C972 1.419 . S
C974 C975 1.362 . S
C975 H965 0.930 . S
C975 C968 1.409 . S
C975 C974 1.362 . S
H976 C982 0.930 . S
H977 C985 0.930 . S
H978 C986 0.930 . S
H979 C987 0.930 . S
H980 C990 0.930 . S
H981 C991 0.930 . S
C982 H976 0.930 . S
C982 C983 1.355 . S
C982 C984 1.415 . S
C983 C982 1.355 . S
C983 C985 1.419 . S
C984 C982 1.415 . S
C984 C989 1.425 . S
C984 C991 1.409 . S
C985 H977 0.930 . S
C985 C983 1.419 . S
C985 C986 1.362 . S
C986 H978 0.930 . S
C986 C985 1.362 . S
C986 C989 1.409 . S
C987 H979 0.930 . S
C987 C988 1.355 . S
C987 C989 1.415 . S
C988 C987 1.355 . S
C988 C990 1.419 . S
C989 C984 1.425 . S
C989 C986 1.409 . S
C989 C987 1.415 . S
C990 H980 0.930 . S
C990 C988 1.419 . S
C990 C991 1.362 . S
C991 H981 0.930 . S
C991 C984 1.409 . S
C991 C990 1.362 . S
H992 C998 0.930 . S
H993 C1001 0.930 . S
H994 C1002 0.930 . S
H995 C1003 0.930 . S
H996 C1006 0.930 . S
H997 C1007 0.930 . S
C998 H992 0.930 . S
C998 C999 1.355 . S
C998 C1000 1.415 . S
C999 C998 1.355 . S
C999 C1001 1.419 . S
C1000 C998 1.415 . S
C1000 C1005 1.425 . S
C1000 C1007 1.409 . S
C1001 H993 0.930 . S
C1001 C999 1.419 . S
C1001 C1002 1.362 . S
C1002 H994 0.930 . S
C1002 C1001 1.362 . S
C1002 C1005 1.409 . S
C1003 H995 0.930 . S
C1003 C1004 1.355 . S
C1003 C1005 1.415 . S
C1004 C1003 1.355 . S
C1004 C1006 1.419 . S
C1005 C1000 1.425 . S
C1005 C1002 1.409 . S
C1005 C1003 1.415 . S
C1006 H996 0.930 . S
C1006 C1004 1.419 . S
C1006 C1007 1.362 . S
C1007 H997 0.930 . S
C1007 C1000 1.409 . S
C1007 C1006 1.362 . S
H1008 C1014 0.930 . S
H1009 C1017 0.930 . S
H1010 C1018 0.930 . S
H1011 C1019 0.930 . S
H1012 C1022 0.930 . S
H1013 C1023 0.930 . S
C1014 H1008 0.930 . S
C1014 C1015 1.355 . S
C1014 C1016 1.415 . S
C1015 C1014 1.355 . S
C1015 C1017 1.419 . S
C1016 C1014 1.415 . S
C1016 C1021 1.425 . S
C1016 C1023 1.409 . S
C1017 H1009 0.930 . S
C1017 C1015 1.419 . S
C1017 C1018 1.362 . S
C1018 H1010 0.930 . S
C1018 C1017 1.362 . S
C1018 C1021 1.409 . S
C1019 H1011 0.930 . S
C1019 C1020 1.355 . S
C1019 C1021 1.415 . S
C1020 C1019 1.355 . S
C1020 C1022 1.419 . S
C1021 C1016 1.425 . S
C1021 C1018 1.409 . S
C1021 C1019 1.415 . S
C1022 H1012 0.930 . S
C1022 C1020 1.419 . S
C1022 C1023 1.362 . S
C1023 H1013 0.930 . S
C1023 C1016 1.409 . S
C1023 C1022 1.362 . S
H1024 C1030 0.930 . S
H1025 C1033 0.930 . S
H1026 C1034 0.930 . S
H1027 C1035 0.930 . S
H1028 C1038 0.930 . S
H1029 C1039 0.930 . S
C1030 H1024 0.930 . S
C1030 C1031 1.355 . S
C1030 C1032 1.415 . S
C1031 C1030 1.355 . S
C1031 C1033 1.419 . S
C1032 C1030 1.415 . S
C1032 C1037 1.425 . S
C1032 C1039 1.409 . S
C1033 H1025 0.930 . S
C1033 C1031 1.419 . S
C1033 C1034 1.362 . S
C1034 H1026 0.930 . S
C1034 C1033 1.362 . S
C1034 C1037 1.409 . S
C1035 H1027 0.930 . S
C1035 C1036 1.355 . S
C1035 C1037 1.415 . S
C1036 C1035 1.355 . S
C1036 C1038 1.419 . S
C1037 C1032 1.425 . S
C1037 C1034 1.409 . S
C1037 C1035 1.415 . S
C1038 H1028 0.930 . S
C1038 C1036 1.419 . S
C1038 C1039 1.362 . S
C1039 H1029 0.930 . S
C1039 C1032 1.409 . S
C1039 C1038 1.362 . S
H1040 C1046 0.930 . S
H1041 C1049 0.930 . S
H1042 C1050 0.930 . S
H1043 C1051 0.930 . S
H1044 C1054 0.930 . S
H1045 C1055 0.930 . S
C1046 H1040 0.930 . S
C1046 C1047 1.355 . S
C1046 C1048 1.415 . S
C1047 C1046 1.355 . S
C1047 C1049 1.419 . S
C1048 C1046 1.415 . S
C1048 C1053 1.425 . S
C1048 C1055 1.409 . S
C1049 H1041 0.930 . S
C1049 C1047 1.419 . S
C1049 C1050 1.362 . S
C1050 H1042 0.930 . S
C1050 C1049 1.362 . S
C1050 C1053 1.409 . S
C1051 H1043 0.930 . S
C1051 C1052 1.355 . S
C1051 C1053 1.415 . S
C1052 C1051 1.355 . S
C1052 C1054 1.419 . S
C1053 C1048 1.425 . S
C1053 C1050 1.409 . S
C1053 C1051 1.415 . S
C1054 H1044 0.930 . S
C1054 C1052 1.419 . S
C1054 C1055 1.362 . S
C1055 H1045 0.930 . S
C1055 C1048 1.409 . S
C1055 C1054 1.362 . S
H1056 C1062 0.930 . S
H1057 C1065 0.930 . S
H1058 C1066 0.930 . S
H1059 C1067 0.930 . S
H1060 C1070 0.930 . S
H1061 C1071 0.930 . S
C1062 H1056 0.930 . S
C1062 C1063 1.355 . S
C1062 C1064 1.415 . S
C1063 C1062 1.355 . S
C1063 C1065 1.419 . S
C1064 C1062 1.415 . S
C1064 C1069 1.425 . S
C1064 C1071 1.409 . S
C1065 H1057 0.930 . S
C1065 C1063 1.419 . S
C1065 C1066 1.362 . S
C1066 H1058 0.930 . S
C1066 C1065 1.362 . S
C1066 C1069 1.409 . S
C1067 H1059 0.930 . S
C1067 C1068 1.355 . S
C1067 C1069 1.415 . S
C1068 C1067 1.355 . S
C1068 C1070 1.419 . S
C1069 C1064 1.425 . S
C1069 C1066 1.409 . S
C1069 C1067 1.415 . S
C1070 H1060 0.930 . S
C1070 C1068 1.419 . S
C1070 C1071 1.362 . S
C1071 H1061 0.930 . S
C1071 C1064 1.409 . S
C1071 C1070 1.362 . S
H1072 C1078 0.930 . S
H1073 C1081 0.930 . S
H1074 C1082 0.930 . S
H1075 C1083 0.930 . S
H1076 C1086 0.930 . S
H1077 C1087 0.930 . S
C1078 H1072 0.930 . S
C1078 C1079 1.354 1_565 S
C1078 C1080 1.415 . S
C1079 C1078 1.354 1_545 S
C1079 C1081 1.419 . S
C1080 C1078 1.415 . S
C1080 C1085 1.425 . S
C1080 C1087 1.409 . S
C1081 H1073 0.930 . S
C1081 C1079 1.419 . S
C1081 C1082 1.362 . S
C1082 H1074 0.930 . S
C1082 C1081 1.362 . S
C1082 C1085 1.409 1_545 S
C1083 H1075 0.930 . S
C1083 C1084 1.355 . S
C1083 C1085 1.415 . S
C1084 C1083 1.355 . S
C1084 C1086 1.419 . S
C1085 C1080 1.425 . S
C1085 C1082 1.409 1_565 S
C1085 C1083 1.415 . S
C1086 H1076 0.930 . S
C1086 C1084 1.419 . S
C1086 C1087 1.362 . S
C1087 H1077 0.930 . S
C1087 C1080 1.409 . S
C1087 C1086 1.362 . S
H1088 C1094 0.930 . S
H1089 C1097 0.930 . S
H1090 C1098 0.930 . S
H1091 C1099 0.930 . S
H1092 C1102 0.930 . S
H1093 C1103 0.930 . S
C1094 H1088 0.930 . S
C1094 C1095 1.355 . S
C1094 C1096 1.415 . S
C1095 C1094 1.355 . S
C1095 C1097 1.419 . S
C1096 C1094 1.415 . S
C1096 C1101 1.425 . S
C1096 C1103 1.409 . S
C1097 H1089 0.930 . S
C1097 C1095 1.419 . S
C1097 C1098 1.362 . S
C1098 H1090 0.930 . S
C1098 C1097 1.362 . S
C1098 C1101 1.409 . S
C1099 H1091 0.930 . S
C1099 C1100 1.355 . S
C1099 C1101 1.415 . S
C1100 C1099 1.355 . S
C1100 C1102 1.419 . S
C1101 C1096 1.425 . S
C1101 C1098 1.409 . S
C1101 C1099 1.415 . S
C1102 H1092 0.930 . S
C1102 C1100 1.419 . S
C1102 C1103 1.362 . S
C1103 H1093 0.930 . S
C1103 C1096 1.409 . S
C1103 C1102 1.362 . S
H1104 C1110 0.930 . S
H1105 C1113 0.930 . S
H1106 C1114 0.930 . S
H1107 C1115 0.930 . S
H1108 C1118 0.930 . S
H1109 C1119 0.930 . S
C1110 H1104 0.930 . S
C1110 C1111 1.355 . S
C1110 C1112 1.415 . S
C1111 C1110 1.355 . S
C1111 C1113 1.419 . S
C1112 C1110 1.415 . S
C1112 C1117 1.425 . S
C1112 C1119 1.409 . S
C1113 H1105 0.930 . S
C1113 C1111 1.419 . S
C1113 C1114 1.362 . S
C1114 H1106 0.930 . S
C1114 C1113 1.362 . S
C1114 C1117 1.409 . S
C1115 H1107 0.930 . S
C1115 C1116 1.355 . S
C1115 C1117 1.415 . S
C1116 C1115 1.355 . S
C1116 C1118 1.419 . S
C1117 C1112 1.425 . S
C1117 C1114 1.409 . S
C1117 C1115 1.415 . S
C1118 H1108 0.930 . S
C1118 C1116 1.419 . S
C1118 C1119 1.362 . S
C1119 H1109 0.930 . S
C1119 C1112 1.409 . S
C1119 C1118 1.362 . S
H1120 C1126 0.930 . S
H1121 C1129 0.930 . S
H1122 C1130 0.930 . S
H1123 C1131 0.930 . S
H1124 C1134 0.930 . S
H1125 C1135 0.930 . S
C1126 H1120 0.930 . S
C1126 C1127 1.355 1_455 S
C1126 C1128 1.415 . S
C1127 C1126 1.355 1_655 S
C1127 C1129 1.419 . S
C1128 C1126 1.415 . S
C1128 C1133 1.425 1_455 S
C1128 C1135 1.409 . S
C1129 H1121 0.930 . S
C1129 C1127 1.419 . S
C1129 C1130 1.362 . S
C1130 H1122 0.930 . S
C1130 C1129 1.362 . S
C1130 C1133 1.409 . S
C1131 H1123 0.930 . S
C1131 C1132 1.355 . S
C1131 C1133 1.415 . S
C1132 C1131 1.355 . S
C1132 C1134 1.419 1_655 S
C1133 C1128 1.425 1_655 S
C1133 C1130 1.409 . S
C1133 C1131 1.415 . S
C1134 H1124 0.930 . S
C1134 C1132 1.419 1_455 S
C1134 C1135 1.362 . S
C1135 H1125 0.930 . S
C1135 C1128 1.409 . S
C1135 C1134 1.362 . S
H1136 C1142 0.930 . S
H1137 C1145 0.930 . S
H1138 C1146 0.930 . S
H1139 C1147 0.930 . S
H1140 C1150 0.930 . S
H1141 C1151 0.930 . S
C1142 H1136 0.930 . S
C1142 C1143 1.355 1_565 S
C1142 C1144 1.415 . S
C1143 C1142 1.355 1_545 S
C1143 C1145 1.419 . S
C1144 C1142 1.415 . S
C1144 C1149 1.425 1_565 S
C1144 C1151 1.409 . S
C1145 H1137 0.930 . S
C1145 C1143 1.419 . S
C1145 C1146 1.362 . S
C1146 H1138 0.930 . S
C1146 C1145 1.362 . S
C1146 C1149 1.409 . S
C1147 H1139 0.930 . S
C1147 C1148 1.355 . S
C1147 C1149 1.415 . S
C1148 C1147 1.355 . S
C1148 C1150 1.419 1_545 S
C1149 C1144 1.425 1_545 S
C1149 C1146 1.409 . S
C1149 C1147 1.415 . S
C1150 H1140 0.930 . S
C1150 C1148 1.419 1_565 S
C1150 C1151 1.362 . S
C1151 H1141 0.930 . S
C1151 C1144 1.409 . S
C1151 C1150 1.362 . S
H1152 C1158 0.930 . S
H1153 C1161 0.930 . S
H1154 C1162 0.930 . S
H1155 C1163 0.930 . S
H1156 C1166 0.930 . S
H1157 C1167 0.930 . S
C1158 H1152 0.930 . S
C1158 C1159 1.355 . S
C1158 C1160 1.415 . S
C1159 C1158 1.355 . S
C1159 C1161 1.419 . S
C1160 C1158 1.415 . S
C1160 C1165 1.425 . S
C1160 C1167 1.409 . S
C1161 H1153 0.930 . S
C1161 C1159 1.419 . S
C1161 C1162 1.362 . S
C1162 H1154 0.930 . S
C1162 C1161 1.362 . S
C1162 C1165 1.409 . S
C1163 H1155 0.930 . S
C1163 C1164 1.355 . S
C1163 C1165 1.415 . S
C1164 C1163 1.355 . S
C1164 C1166 1.419 . S
C1165 C1160 1.425 . S
C1165 C1162 1.409 . S
C1165 C1163 1.415 . S
C1166 H1156 0.930 . S
C1166 C1164 1.419 . S
C1166 C1167 1.362 . S
C1167 H1157 0.930 . S
C1167 C1160 1.409 . S
C1167 C1166 1.362 . S
H1168 C1174 0.930 . S
H1169 C1177 0.930 . S
H1170 C1178 0.930 . S
H1171 C1179 0.930 . S
H1172 C1182 0.930 . S
H1173 C1183 0.930 . S
C1174 H1168 0.930 . S
C1174 C1175 1.355 . S
C1174 C1176 1.415 . S
C1175 C1174 1.355 . S
C1175 C1177 1.419 . S
C1176 C1174 1.415 . S
C1176 C1181 1.425 . S
C1176 C1183 1.409 . S
C1177 H1169 0.930 . S
C1177 C1175 1.419 . S
C1177 C1178 1.362 . S
C1178 H1170 0.930 . S
C1178 C1177 1.362 . S
C1178 C1181 1.409 . S
C1179 H1171 0.930 . S
C1179 C1180 1.355 . S
C1179 C1181 1.415 . S
C1180 C1179 1.355 . S
C1180 C1182 1.419 . S
C1181 C1176 1.425 . S
C1181 C1178 1.409 . S
C1181 C1179 1.415 . S
C1182 H1172 0.930 . S
C1182 C1180 1.419 . S
C1182 C1183 1.362 . S
C1183 H1173 0.930 . S
C1183 C1176 1.409 . S
C1183 C1182 1.362 . S
H1184 C1190 0.930 1_655 S
H1185 C1193 0.930 . S
H1186 C1194 0.930 . S
H1187 C1195 0.930 . S
H1188 C1198 0.930 . S
H1189 C1199 0.930 . S
C1190 H1184 0.930 1_455 S
C1190 C1191 1.355 . S
C1190 C1192 1.415 . S
C1191 C1190 1.355 . S
C1191 C1193 1.419 . S
C1192 C1190 1.415 . S
C1192 C1197 1.425 . S
C1192 C1199 1.409 . S
C1193 H1185 0.930 . S
C1193 C1191 1.419 . S
C1193 C1194 1.362 . S
C1194 H1186 0.930 . S
C1194 C1193 1.362 . S
C1194 C1197 1.409 . S
C1195 H1187 0.930 . S
C1195 C1196 1.355 . S
C1195 C1197 1.415 . S
C1196 C1195 1.355 . S
C1196 C1198 1.419 . S
C1197 C1192 1.425 . S
C1197 C1194 1.409 . S
C1197 C1195 1.415 . S
C1198 H1188 0.930 . S
C1198 C1196 1.419 . S
C1198 C1199 1.362 . S
C1199 H1189 0.930 . S
C1199 C1192 1.409 . S
C1199 C1198 1.362 . S
H1200 C1206 0.930 1_565 S
H1201 C1209 0.930 . S
H1202 C1210 0.930 . S
H1203 C1211 0.930 . S
H1204 C1214 0.930 . S
H1205 C1215 0.930 . S
C1206 H1200 0.930 1_545 S
C1206 C1207 1.355 . S
C1206 C1208 1.415 . S
C1207 C1206 1.355 . S
C1207 C1209 1.419 . S
C1208 C1206 1.415 . S
C1208 C1213 1.425 . S
C1208 C1215 1.409 1_545 S
C1209 H1201 0.930 . S
C1209 C1207 1.419 . S
C1209 C1210 1.362 . S
C1210 H1202 0.930 . S
C1210 C1209 1.362 . S
C1210 C1213 1.409 . S
C1211 H1203 0.930 . S
C1211 C1212 1.333 1_545 S
C1211 C1213 1.415 . S
C1212 C1211 1.333 1_565 S
C1212 C1214 1.439 . S
C1213 C1208 1.425 . S
C1213 C1210 1.409 . S
C1213 C1211 1.415 . S
C1214 H1204 0.930 . S
C1214 C1212 1.439 . S
C1214 C1215 1.362 . S
C1215 H1205 0.930 . S
C1215 C1208 1.409 1_565 S
C1215 C1214 1.362 . S
H1216 C1222 0.930 . S
H1217 C1225 0.930 . S
H1218 C1226 0.930 . S
H1219 C1227 0.930 . S
H1220 C1230 0.930 . S
H1221 C1231 0.930 . S
C1222 H1216 0.930 . S
C1222 C1223 1.355 . S
C1222 C1224 1.415 . S
C1223 C1222 1.355 . S
C1223 C1225 1.419 . S
C1224 C1222 1.415 . S
C1224 C1229 1.425 . S
C1224 C1231 1.409 . S
C1225 H1217 0.930 . S
C1225 C1223 1.419 . S
C1225 C1226 1.362 . S
C1226 H1218 0.930 . S
C1226 C1225 1.362 . S
C1226 C1229 1.409 . S
C1227 H1219 0.930 . S
C1227 C1228 1.355 . S
C1227 C1229 1.415 . S
C1228 C1227 1.355 . S
C1228 C1230 1.419 . S
C1229 C1224 1.425 . S
C1229 C1226 1.409 . S
C1229 C1227 1.415 . S
C1230 H1220 0.930 . S
C1230 C1228 1.419 . S
C1230 C1231 1.362 . S
C1231 H1221 0.930 . S
C1231 C1224 1.409 . S
C1231 C1230 1.362 . S
H1232 C1238 0.930 . S
H1233 C1241 0.930 . S
H1234 C1242 0.930 . S
H1235 C1243 0.930 . S
H1236 C1246 0.930 . S
H1237 C1247 0.930 . S
C1238 H1232 0.930 . S
C1238 C1239 1.355 . S
C1238 C1240 1.415 . S
C1239 C1238 1.355 . S
C1239 C1241 1.419 . S
C1240 C1238 1.415 . S
C1240 C1245 1.425 . S
C1240 C1247 1.409 . S
C1241 H1233 0.930 . S
C1241 C1239 1.419 . S
C1241 C1242 1.362 . S
C1242 H1234 0.930 . S
C1242 C1241 1.362 . S
C1242 C1245 1.409 . S
C1243 H1235 0.930 . S
C1243 C1244 1.355 . S
C1243 C1245 1.415 . S
C1244 C1243 1.355 . S
C1244 C1246 1.419 . S
C1245 C1240 1.425 . S
C1245 C1242 1.409 . S
C1245 C1243 1.415 . S
C1246 H1236 0.930 . S
C1246 C1244 1.419 . S
C1246 C1247 1.362 . S
C1247 H1237 0.930 . S
C1247 C1240 1.409 . S
C1247 C1246 1.362 . S
H1248 C1254 0.930 . S
H1249 C1257 0.930 . S
H1250 C1258 0.930 . S
H1251 C1259 0.930 . S
H1252 C1262 0.930 . S
H1253 C1263 0.930 . S
C1254 H1248 0.930 . S
C1254 C1255 1.384 . S
C1254 C1256 1.415 . S
C1255 C1254 1.384 . S
C1255 C1257 1.390 1_455 S
C1256 C1254 1.415 . S
C1256 C1261 1.425 1_455 S
C1256 C1263 1.409 . S
C1257 H1249 0.930 . S
C1257 C1255 1.390 1_655 S
C1257 C1258 1.362 . S
C1258 H1250 0.930 . S
C1258 C1257 1.362 . S
C1258 C1261 1.409 . S
C1259 H1251 0.930 . S
C1259 C1260 1.355 1_655 S
C1259 C1261 1.415 . S
C1260 C1259 1.355 1_455 S
C1260 C1262 1.419 . S
C1261 C1256 1.425 1_655 S
C1261 C1258 1.409 . S
C1261 C1259 1.415 . S
C1262 H1252 0.930 . S
C1262 C1260 1.419 . S
C1262 C1263 1.362 . S
C1263 H1253 0.930 . S
C1263 C1256 1.409 . S
C1263 C1262 1.362 . S
H1264 C1270 0.930 . S
H1265 C1273 0.930 . S
H1266 C1274 0.930 1_545 S
H1267 C1275 0.919 1_545 S
H1268 C1278 0.930 . S
H1269 C1279 0.930 . S
C1270 H1264 0.930 . S
C1270 C1271 1.355 . S
C1270 C1272 1.415 . S
C1271 C1270 1.355 . S
C1271 C1273 1.419 . S
C1272 C1270 1.415 . S
C1272 C1277 1.425 . S
C1272 C1279 1.409 . S
C1273 H1265 0.930 . S
C1273 C1271 1.419 . S
C1273 C1274 1.362 . S
C1274 H1266 0.930 1_565 S
C1274 C1273 1.362 . S
C1274 C1277 1.409 . S
C1275 H1267 0.919 1_565 S
C1275 C1276 1.359 . S
C1275 C1277 1.422 . S
C1276 C1275 1.359 . S
C1276 C1278 1.419 . S
C1277 C1272 1.425 . S
C1277 C1274 1.409 . S
C1277 C1275 1.422 . S
C1278 H1268 0.930 . S
C1278 C1276 1.419 . S
C1278 C1279 1.362 . S
C1279 H1269 0.930 . S
C1279 C1272 1.409 . S
C1279 C1278 1.362 . S
H1280 C1286 0.930 . S
H1281 C1289 0.930 . S
H1282 C1290 0.930 . S
H1283 C1291 0.930 . S
H1284 C1294 0.930 . S
H1285 C1295 0.930 . S
C1286 H1280 0.930 . S
C1286 C1287 1.355 . S
C1286 C1288 1.415 . S
C1287 C1286 1.355 . S
C1287 C1289 1.419 . S
C1288 C1286 1.415 . S
C1288 C1293 1.425 . S
C1288 C1295 1.409 . S
C1289 H1281 0.930 . S
C1289 C1287 1.419 . S
C1289 C1290 1.362 . S
C1290 H1282 0.930 . S
C1290 C1289 1.362 . S
C1290 C1293 1.409 . S
C1291 H1283 0.930 . S
C1291 C1292 1.355 . S
C1291 C1293 1.415 . S
C1292 C1291 1.355 . S
C1292 C1294 1.419 . S
C1293 C1288 1.425 . S
C1293 C1290 1.409 . S
C1293 C1291 1.415 . S
C1294 H1284 0.930 . S
C1294 C1292 1.419 . S
C1294 C1295 1.362 . S
C1295 H1285 0.930 . S
C1295 C1288 1.409 . S
C1295 C1294 1.362 . S
H1296 C1302 0.930 . S
H1297 C1305 0.930 . S
H1298 C1306 0.930 . S
H1299 C1307 0.930 . S
H1300 C1310 0.930 . S
H1301 C1311 0.930 . S
C1302 H1296 0.930 . S
C1302 C1303 1.355 . S
C1302 C1304 1.415 . S
C1303 C1302 1.355 . S
C1303 C1305 1.419 . S
C1304 C1302 1.415 . S
C1304 C1309 1.425 . S
C1304 C1311 1.409 . S
C1305 H1297 0.930 . S
C1305 C1303 1.419 . S
C1305 C1306 1.362 . S
C1306 H1298 0.930 . S
C1306 C1305 1.362 . S
C1306 C1309 1.409 . S
C1307 H1299 0.930 . S
C1307 C1308 1.355 . S
C1307 C1309 1.415 . S
C1308 C1307 1.355 . S
C1308 C1310 1.419 . S
C1309 C1304 1.425 . S
C1309 C1306 1.409 . S
C1309 C1307 1.415 . S
C1310 H1300 0.930 . S
C1310 C1308 1.419 . S
C1310 C1311 1.362 . S
C1311 H1301 0.930 . S
C1311 C1304 1.409 . S
C1311 C1310 1.362 . S
H1312 C1318 0.930 . S
H1313 C1321 0.930 . S
H1314 C1322 0.930 . S
H1315 C1323 0.930 . S
H1316 C1326 0.930 . S
H1317 C1327 0.930 . S
C1318 H1312 0.930 . S
C1318 C1319 1.355 . S
C1318 C1320 1.415 . S
C1319 C1318 1.355 . S
C1319 C1321 1.419 1_655 S
C1320 C1318 1.415 . S
C1320 C1325 1.425 1_655 S
C1320 C1327 1.409 . S
C1321 H1313 0.930 . S
C1321 C1319 1.419 1_455 S
C1321 C1322 1.362 . S
C1322 H1314 0.930 . S
C1322 C1321 1.362 . S
C1322 C1325 1.409 . S
C1323 H1315 0.930 . S
C1323 C1324 1.355 1_455 S
C1323 C1325 1.415 . S
C1324 C1323 1.355 1_655 S
C1324 C1326 1.419 . S
C1325 C1320 1.425 1_455 S
C1325 C1322 1.409 . S
C1325 C1323 1.415 . S
C1326 H1316 0.930 . S
C1326 C1324 1.419 . S
C1326 C1327 1.362 . S
C1327 H1317 0.930 . S
C1327 C1320 1.409 . S
C1327 C1326 1.362 . S
H1328 C1334 0.930 . S
H1329 C1337 0.930 . S
H1330 C1338 0.930 1_565 S
H1331 C1339 0.930 . S
H1332 C1342 0.930 . S
H1333 C1343 0.930 1_545 S
C1334 H1328 0.930 . S
C1334 C1335 1.355 . S
C1334 C1336 1.415 . S
C1335 C1334 1.355 . S
C1335 C1337 1.419 1_556 S
C1336 C1334 1.415 . S
C1336 C1341 1.425 1_546 S
C1336 C1343 1.409 1_545 S
C1337 H1329 0.930 . S
C1337 C1335 1.419 1_554 S
C1337 C1338 1.362 . S
C1338 H1330 0.930 1_545 S
C1338 C1337 1.362 . S
C1338 C1341 1.409 1_545 S
C1339 H1331 0.930 . S
C1339 C1340 1.355 . S
C1339 C1341 1.415 . S
C1340 C1339 1.355 . S
C1340 C1342 1.419 1_554 S
C1341 C1336 1.425 1_564 S
C1341 C1338 1.409 1_565 S
C1341 C1339 1.415 . S
C1342 H1332 0.930 . S
C1342 C1340 1.419 1_556 S
C1342 C1343 1.362 . S
C1343 H1333 0.930 1_565 S
C1343 C1336 1.409 1_565 S
C1343 C1342 1.362 . S
H1344 C1350 0.930 . S
H1345 C1353 0.930 . S
H1346 C1354 0.930 . S
H1347 C1355 0.930 . S
H1348 C1358 0.930 . S
H1349 C1359 0.930 . S
C1350 H1344 0.930 . S
C1350 C1351 1.355 . S
C1350 C1352 1.415 1_556 S
C1351 C1350 1.355 . S
C1351 C1353 1.419 . S
C1352 C1350 1.415 1_554 S
C1352 C1357 1.425 1_554 S
C1352 C1359 1.409 . S
C1353 H1345 0.930 . S
C1353 C1351 1.419 . S
C1353 C1354 1.362 . S
C1354 H1346 0.930 . S
C1354 C1353 1.362 . S
C1354 C1357 1.409 . S
C1355 H1347 0.930 . S
C1355 C1356 1.355 . S
C1355 C1357 1.415 1_554 S
C1356 C1355 1.355 . S
C1356 C1358 1.419 . S
C1357 C1352 1.425 1_556 S
C1357 C1354 1.409 . S
C1357 C1355 1.415 1_556 S
C1358 H1348 0.930 . S
C1358 C1356 1.419 . S
C1358 C1359 1.362 . S
C1359 H1349 0.930 . S
C1359 C1352 1.409 . S
C1359 C1358 1.362 . S
H1360 C1366 0.930 . S
H1361 C1369 0.930 . S
H1362 C1370 0.930 . S
H1363 C1371 0.930 . S
H1364 C1374 0.930 . S
H1365 C1375 0.930 . S
C1366 H1360 0.930 . S
C1366 C1367 1.355 . S
C1366 C1368 1.415 1_655 S
C1367 C1366 1.355 . S
C1367 C1369 1.419 . S
C1368 C1366 1.415 1_455 S
C1368 C1373 1.425 1_454 S
C1368 C1375 1.409 . S
C1369 H1361 0.930 . S
C1369 C1367 1.419 . S
C1369 C1370 1.362 1_554 S
C1370 H1362 0.930 . S
C1370 C1369 1.362 1_556 S
C1370 C1373 1.409 . S
C1371 H1363 0.930 . S
C1371 C1372 1.355 . S
C1371 C1373 1.415 1_455 S
C1372 C1371 1.355 . S
C1372 C1374 1.419 . S
C1373 C1368 1.425 1_656 S
C1373 C1370 1.409 . S
C1373 C1371 1.415 1_655 S
C1374 H1364 0.930 . S
C1374 C1372 1.419 . S
C1374 C1375 1.362 1_556 S
C1375 H1365 0.930 . S
C1375 C1368 1.409 . S
C1375 C1374 1.362 1_554 S
H1376 C1382 0.930 . S
H1377 C1385 0.930 . S
H1378 C1386 0.930 1_565 S
H1379 C1387 0.930 . S
H1380 C1390 0.930 . S
H1381 C1391 0.930 1_545 S
C1382 H1376 0.930 . S
C1382 C1383 1.355 1_554 S
C1382 C1384 1.415 . S
C1383 C1382 1.355 1_556 S
C1383 C1385 1.419 . S
C1384 C1382 1.415 . S
C1384 C1389 1.425 1_444 S
C1384 C1391 1.409 1_445 S
C1385 H1377 0.930 . S
C1385 C1383 1.419 . S
C1385 C1386 1.362 . S
C1386 H1378 0.930 1_545 S
C1386 C1385 1.362 . S
C1386 C1389 1.409 1_445 S
C1387 H1379 0.930 . S
C1387 C1388 1.355 1_556 S
C1387 C1389 1.415 . S
C1388 C1387 1.355 1_554 S
C1388 C1390 1.419 . S
C1389 C1384 1.425 1_666 S
C1389 C1386 1.409 1_665 S
C1389 C1387 1.415 . S
C1390 H1380 0.930 . S
C1390 C1388 1.419 . S
C1390 C1391 1.362 . S
C1391 H1381 0.930 1_565 S
C1391 C1384 1.409 1_665 S
C1391 C1390 1.362 . S
H1392 C1398 0.930 . S
H1393 C1401 0.930 . S
H1394 C1402 0.930 . S
H1395 C1403 0.930 . S
H1396 C1406 0.930 . S
H1397 C1407 0.930 . S
C1398 H1392 0.930 . S
C1398 C1399 1.355 . S
C1398 C1400 1.415 1_545 S
C1399 C1398 1.355 . S
C1399 C1401 1.419 . S
C1400 C1398 1.415 1_565 S
C1400 C1405 1.425 1_465 S
C1400 C1407 1.409 1_455 S
C1401 H1393 0.930 . S
C1401 C1399 1.419 . S
C1401 C1402 1.362 . S
C1402 H1394 0.930 . S
C1402 C1401 1.362 . S
C1402 C1405 1.409 1_455 S
C1403 H1395 0.930 . S
C1403 C1404 1.355 . S
C1403 C1405 1.415 1_565 S
C1404 C1403 1.355 . S
C1404 C1406 1.419 . S
C1405 C1400 1.425 1_645 S
C1405 C1402 1.409 1_655 S
C1405 C1403 1.415 1_545 S
C1406 H1396 0.930 . S
C1406 C1404 1.419 . S
C1406 C1407 1.362 . S
C1407 H1397 0.930 . S
C1407 C1400 1.409 1_655 S
C1407 C1406 1.362 . S
H1408 C1414 0.930 . S
H1409 C1417 0.930 . S
H1410 C1418 0.930 . S
H1411 C1419 0.930 . S
H1412 C1422 0.930 . S
H1413 C1423 0.930 . S
C1414 H1408 0.930 . S
C1414 C1415 1.355 . S
C1414 C1416 1.415 . S
C1415 C1414 1.355 . S
C1415 C1417 1.419 . S
C1416 C1414 1.415 . S
C1416 C1421 1.425 1_565 S
C1416 C1423 1.409 1_565 S
C1417 H1409 0.930 . S
C1417 C1415 1.419 . S
C1417 C1418 1.362 . S
C1418 H1410 0.930 . S
C1418 C1417 1.362 . S
C1418 C1421 1.409 1_565 S
C1419 H1411 0.930 . S
C1419 C1420 1.355 . S
C1419 C1421 1.415 . S
C1420 C1419 1.355 . S
C1420 C1422 1.419 . S
C1421 C1416 1.425 1_545 S
C1421 C1418 1.409 1_545 S
C1421 C1419 1.415 . S
C1422 H1412 0.930 . S
C1422 C1420 1.419 . S
C1422 C1423 1.362 . S
C1423 H1413 0.930 . S
C1423 C1416 1.409 1_545 S
C1423 C1422 1.362 . S
H1424 C1430 0.930 . S
H1425 C1433 0.930 . S
H1426 C1434 0.930 . S
H1427 C1435 0.930 . S
H1428 C1438 0.930 . S
H1429 C1439 0.930 . S
C1430 H1424 0.930 . S
C1430 C1431 1.355 . S
C1430 C1432 1.415 . S
C1431 C1430 1.355 . S
C1431 C1433 1.419 . S
C1432 C1430 1.415 . S
C1432 C1437 1.425 . S
C1432 C1439 1.409 . S
C1433 H1425 0.930 . S
C1433 C1431 1.419 . S
C1433 C1434 1.362 . S
C1434 H1426 0.930 . S
C1434 C1433 1.362 . S
C1434 C1437 1.409 . S
C1435 H1427 0.930 . S
C1435 C1436 1.355 . S
C1435 C1437 1.415 . S
C1436 C1435 1.355 . S
C1436 C1438 1.419 . S
C1437 C1432 1.425 . S
C1437 C1434 1.409 . S
C1437 C1435 1.415 . S
C1438 H1428 0.930 . S
C1438 C1436 1.419 . S
C1438 C1439 1.362 . S
C1439 H1429 0.930 . S
C1439 C1432 1.409 . S
C1439 C1438 1.362 . S
H1440 C1446 0.930 . S
H1441 C1449 0.930 . S
H1442 C1450 0.930 . S
H1443 C1451 0.930 . S
H1444 C1454 0.930 . S
H1445 C1455 0.930 . S
C1446 H1440 0.930 . S
C1446 C1447 1.355 1_455 S
C1446 C1448 1.415 . S
C1447 C1446 1.355 1_655 S
C1447 C1449 1.419 . S
C1448 C1446 1.415 . S
C1448 C1453 1.425 1_455 S
C1448 C1455 1.409 . S
C1449 H1441 0.930 . S
C1449 C1447 1.419 . S
C1449 C1450 1.362 . S
C1450 H1442 0.930 . S
C1450 C1449 1.362 . S
C1450 C1453 1.409 . S
C1451 H1443 0.930 . S
C1451 C1452 1.355 1_655 S
C1451 C1453 1.415 . S
C1452 C1451 1.355 1_455 S
C1452 C1454 1.419 . S
C1453 C1448 1.425 1_655 S
C1453 C1450 1.409 . S
C1453 C1451 1.415 . S
C1454 H1444 0.930 . S
C1454 C1452 1.419 . S
C1454 C1455 1.362 . S
C1455 H1445 0.930 . S
C1455 C1448 1.409 . S
C1455 C1454 1.362 . S
C951 C347 0.717 . S
C956 C52 0.724 . S
C967 C406 0.880 . S
C972 C111 0.872 . S
C983 C170 0.690 . S
C988 C465 0.680 . S
C999 C229 0.487 . S
C1004 C288 0.477 . S
C1015 C524 0.721 . S
C1020 C819 0.708 . S
C1031 C878 0.872 . S
C1036 C583 0.880 . S
C1047 C937 0.694 . S
C1052 C642 0.690 . S
C1063 C701 0.575 . S
C1068 C760 0.562 . S
C1079 C5 1.554 . S
C1084 C711 1.485 . S
C1095 C770 1.642 . S
C1100 C64 1.761 . S
C1111 C123 1.796 . S
C1116 C829 1.696 . S
C1127 C182 1.584 . S
C1132 C888 1.498 . S
C1143 C241 1.586 . S
C1148 C475 1.499 . S
C1159 C300 1.801 . S
C1164 C534 1.724 . S
C1175 C359 1.779 . S
C1180 C593 1.698 . S
C1191 C418 1.546 1_455 S
C1196 C652 1.478 . S
C1207 C239 1.501 . S
C1212 C477 1.560 . S
C1223 C298 1.654 . S
C1228 C536 1.764 . S
C1239 C357 1.744 . S
C1244 C595 1.808 . S
C1255 C654 1.605 . S
C1260 C416 1.553 . S
C1271 C3 1.528 . S
C1276 C713 1.591 . S
C1287 C772 1.806 . S
C1292 C62 1.745 . S
C1303 C831 1.754 . S
C1308 C121 1.621 . S
C1319 C180 1.435 . S
C1324 C890 1.529 1_655 S
C1335 C505 1.519 . S
C1340 C33 1.519 . S
C1351 C564 1.824 . S
C1356 C92 1.824 . S
C1367 C151 1.982 . S
C1372 C623 1.982 . S
C1383 C682 1.696 . S
C1388 C210 1.696 . S
C1399 C269 1.723 . S
C1404 C741 1.723 . S
C1415 C800 1.990 . S
C1420 C328 1.990 . S
C1431 C859 1.748 . S
C1436 C387 1.748 . S
C1447 C918 1.571 . S
C1452 C446 1.572 . S
