# Generated by pormake.
# Topology uoj, (4)-cn, num edge types: 1
# Building blocks:
#     Node 0, Type 0, BuildingBlock: ICAMEG_clean_sbu_1, # of connection points: 4
#     Node 1, Type 0, BuildingBlock: ICAMEG_clean_sbu_1, # of connection points: 4
#     Node 2, Type 0, BuildingBlock: ICAMEG_clean_sbu_1, # of connection points: 4
#     Node 3, Type 0, BuildingBlock: ICAMEG_clean_sbu_1, # of connection points: 4
#     Node 4, Type 0, BuildingBlock: ICAMEG_clean_sbu_1, # of connection points: 4
#     Node 5, Type 0, BuildingBlock: ICAMEG_clean_sbu_1, # of connection points: 4
#     Node 6, Type 0, BuildingBlock: ICAMEG_clean_sbu_1, # of connection points: 4
#     Node 7, Type 0, BuildingBlock: ICAMEG_clean_sbu_1, # of connection points: 4
#     Edge 8, Type (0, 0), None
#     Edge 9, Type (0, 0), None
#     Edge 10, Type (0, 0), None
#     Edge 11, Type (0, 0), None
#     Edge 12, Type (0, 0), None
#     Edge 13, Type (0, 0), None
#     Edge 14, Type (0, 0), None
#     Edge 15, Type (0, 0), None
#     Edge 16, Type (0, 0), None
#     Edge 17, Type (0, 0), None
#     Edge 18, Type (0, 0), None
#     Edge 19, Type (0, 0), None
#     Edge 20, Type (0, 0), None
#     Edge 21, Type (0, 0), None
#     Edge 22, Type (0, 0), None
#     Edge 23, Type (0, 0), None
# Relax obj value: 0.086
# Max RMSD: 0.085
# Mean RMSD: 0.085
data_MOF--net-uoj--node1-ICAMEG_clean_sbu_1--edge1-none
_symmetry_space_group_name_H-M    P1
_symmetry_Int_Tables_number       1
_symmetry_cell_setting            triclinic
loop_
_symmetry_equiv_pos_as_xyz
'x, y, z'
_cell_length_a     17.790946
_cell_length_b     18.162897
_cell_length_c     16.39506
_cell_angle_alpha  90.2867
_cell_angle_beta   89.600748
_cell_angle_gamma 89.740732
loop_
_atom_site_label
_atom_site_type_symbol
_atom_site_fract_x
_atom_site_fract_y
_atom_site_fract_z
_atom_type_partial_charge
Co0 Co 0.9596 0.30847 0.36802 0.0
Co1 Co 0.13997 0.32816 0.42852 0.0
O2 O 0.04931 0.26914 0.41648 0.0
C3 C 0.90027 0.21285 0.50615 0.0
O4 O 0.96628 0.18087 0.50871 0.0
C5 C 0.24371 0.19257 0.38987 0.0
O6 O 0.24634 0.20587 0.31132 0.0
O7 O 0.14968 0.33464 0.3051 0.0
O8 O 0.02631 0.35376 0.27546 0.0
H9 H 0.31432 0.50844 0.56393 0.0
H10 H 0.85577 0.16897 0.36466 0.0
O11 O 0.89059 0.26686 0.45766 0.0
H12 H 0.06442 0.11254 0.17881 0.0
H13 H 0.68023 0.33329 0.34512 0.0
H14 H 0.92306 0.45492 0.30304 0.0
H15 H 0.06502 0.22482 0.25854 0.0
H16 H 0.79749 0.26155 0.33625 0.0
O17 O 0.20278 0.23265 0.43766 0.0
H18 H 0.19511 0.4525 0.53848 0.0
H19 H 0.28589 0.33053 0.34009 0.0
H20 H 0.80724 0.52794 0.32359 0.0
H21 H 0.85407 0.05612 0.28737 0.0
H22 H 0.68764 0.46673 0.35183 0.0
H23 H 0.95502 0.02852 0.18868 0.0
O24 O 0.96693 0.40146 0.43404 0.0
H25 H 0.06113 0.18609 0.67341 0.0
H26 H 0.08276 0.43656 0.56625 0.0
H27 H 0.01156 0.41532 0.68883 0.0
H28 H 0.99789 0.29064 0.7431 0.0
H29 H 0.12452 0.20741 0.54436 0.0
H30 H 0.40615 0.39328 0.35652 0.0
H31 H 0.42227 0.48143 0.47094 0.0
O32 O 0.0877 0.42633 0.4199 0.0
C33 C 0.09738 0.35606 0.25568 0.0
C34 C 0.30915 0.46971 0.51408 0.0
C35 C 0.36056 0.40389 0.39906 0.0
N36 N 0.23309 0.38271 0.44209 0.0
C37 C 0.24079 0.43536 0.501 0.0
C38 C 0.29199 0.36804 0.39036 0.0
C39 C 0.36936 0.45405 0.46248 0.0
C40 C 0.89848 0.16265 0.31907 0.0
N41 N 0.95366 0.21419 0.30624 0.0
C42 C 0.89802 0.09581 0.27676 0.0
C43 C 0.956 0.07916 0.22305 0.0
C44 C 0.01644 0.12672 0.21676 0.0
C45 C 0.01501 0.19283 0.26049 0.0
C46 C 0.73424 0.35932 0.33807 0.0
C47 C 0.87038 0.42708 0.31303 0.0
C48 C 0.8009 0.31886 0.33084 0.0
N49 N 0.86897 0.35247 0.32262 0.0
C50 C 0.80549 0.46916 0.32485 0.0
C51 C 0.73772 0.43491 0.34004 0.0
C52 C 0.02024 0.44753 0.43035 0.0
C53 C 0.068 0.2415 0.65074 0.0
C54 C 0.08215 0.38109 0.58808 0.0
C55 C 0.03967 0.36991 0.65882 0.0
C56 C 0.03208 0.29967 0.68973 0.0
N57 N 0.11634 0.32354 0.54694 0.0
C58 C 0.10841 0.25448 0.57893 0.0
Co59 Co 0.31783 0.03061 0.56814 0.0
Co60 Co 0.35415 0.85853 0.5039 0.0
O61 O 0.29114 0.94281 0.51426 0.0
C62 C 0.29968 0.14097 0.42675 0.0
O63 O 0.37024 0.16118 0.4311 0.0
C64 C 0.20186 0.78962 0.54391 0.0
O65 O 0.20302 0.81944 0.61674 0.0
O66 O 0.35828 0.84931 0.62703 0.0
O67 O 0.36013 0.96994 0.66552 0.0
H68 H 0.53529 0.69695 0.35409 0.0
H69 H 0.16392 0.09792 0.52536 0.0
O70 O 0.27604 0.08755 0.47041 0.0
H71 H 0.10808 0.91572 0.73515 0.0
H72 H 0.29764 0.30195 0.59138 0.0
H73 H 0.45153 0.08373 0.65359 0.0
H74 H 0.23661 0.94074 0.69947 0.0
H75 H 0.24262 0.17829 0.58934 0.0
O76 O 0.25733 0.79858 0.49479 0.0
H77 H 0.48727 0.81717 0.40176 0.0
H78 H 0.34472 0.71165 0.57284 0.0
H79 H 0.50986 0.2054 0.65189 0.0
H80 H 0.03633 0.07263 0.55958 0.0
H81 H 0.43275 0.31652 0.62199 0.0
H82 H 0.00582 0.98147 0.66295 0.0
O83 O 0.42286 0.03233 0.51906 0.0
H84 H 0.32115 0.01432 0.25525 0.0
H85 H 0.32892 0.76267 0.36379 0.0
H86 H 0.28694 0.78265 0.22442 0.0
H87 H 0.27344 0.90978 0.17202 0.0
H88 H 0.36663 -0.00973 0.39331 0.0
H89 H 0.39897 0.59182 0.53499 0.0
H90 H 0.48683 0.5823 0.41768 0.0
O91 O 0.45298 0.91361 0.51082 0.0
C92 C 0.36785 0.90003 0.68153 0.0
C93 C 0.4945 0.69971 0.40318 0.0
C94 C 0.4166 0.6402 0.50332 0.0
N95 N 0.4123 0.77044 0.48891 0.0
C96 C 0.46806 0.76752 0.43126 0.0
C97 C 0.3881 0.70839 0.52656 0.0
C98 C 0.46727 0.63551 0.43871 0.0
C99 C 0.1557 0.06109 0.57479 0.0
N100 N 0.214 0.02639 0.61387 0.0
C101 C 0.08082 0.04611 0.59289 0.0
C102 C 0.06352 -0.00567 0.6511 0.0
C103 C 0.12093 0.95765 0.6905 0.0
C104 C 0.19549 0.97349 0.67002 0.0
C105 C 0.33145 0.25445 0.60677 0.0
C106 C 0.41675 0.1315 0.64244 0.0
C107 C 0.3001 0.18405 0.60656 0.0
N108 N 0.34354 0.12317 0.61995 0.0
C109 C 0.4503 0.20063 0.64161 0.0
C110 C 0.40734 0.26257 0.6236 0.0
C111 C 0.4721 0.98116 0.51262 0.0
C112 C 0.32338 0.95857 0.27821 0.0
C113 C 0.32883 0.81724 0.33922 0.0
C114 C 0.3027 0.829 0.26092 0.0
C115 C 0.29675 0.90033 0.23151 0.0
N116 N 0.34925 0.87448 0.3873 0.0
C117 C 0.35033 0.94433 0.3563 0.0
Co118 Co 0.0599 0.66935 0.37256 0.0
Co119 Co 0.88516 0.64761 0.45213 0.0
O120 O 0.97555 0.70573 0.43462 0.0
C121 C 0.13132 0.75571 0.51347 0.0
O122 O 0.06689 0.78713 0.53178 0.0
C123 C 0.79826 0.79338 0.42529 0.0
O124 O 0.80343 0.78481 0.34592 0.0
O125 O 0.86636 0.6459 0.32928 0.0
O126 O 0.98617 0.62733 0.28475 0.0
H127 H 0.71723 0.44728 0.56794 0.0
H128 H 0.16121 0.80975 0.37243 0.0
O129 O 0.13508 0.70714 0.45672 0.0
H130 H 0.94485 0.87426 0.20486 0.0
H131 H 0.3352 0.65504 0.29972 0.0
H132 H 0.09361 0.52521 0.2973 0.0
H133 H 0.94885 0.75652 0.27374 0.0
H134 H 0.21697 0.72067 0.32551 0.0
O135 O 0.82733 0.74501 0.47266 0.0
H136 H 0.83692 0.49757 0.52765 0.0
H137 H 0.73029 0.66908 0.39867 0.0
H138 H 0.21214 0.45581 0.28873 0.0
H139 H 0.15815 0.92704 0.30671 0.0
H140 H 0.33377 0.5207 0.28745 0.0
H141 H 0.05359 0.95947 0.21732 0.0
O142 O 0.05783 0.57342 0.4326 0.0
H143 H 0.99093 0.7682 0.69981 0.0
H144 H 0.93428 0.52999 0.57899 0.0
H145 H 0.99108 0.53504 0.71122 0.0
H146 H 0.02486 0.65378 0.7709 0.0
H147 H 0.91939 0.76362 0.57299 0.0
H148 H 0.60994 0.61527 0.42896 0.0
H149 H 0.59893 0.50742 0.51969 0.0
O150 O 0.93591 0.54963 0.43333 0.0
C151 C 0.91381 0.62535 0.27296 0.0
C152 C 0.71901 0.49758 0.53308 0.0
C153 C 0.65856 0.59204 0.45607 0.0
N154 N 0.79204 0.59398 0.4714 0.0
C155 C 0.78812 0.5288 0.51293 0.0
C156 C 0.72807 0.62286 0.43925 0.0
C157 C 0.65332 0.5307 0.50581 0.0
C158 C 0.11598 0.81836 0.33122 0.0
N159 N 0.06108 0.76676 0.31736 0.0
C160 C 0.11403 0.88763 0.29525 0.0
C161 C 0.05398 0.90672 0.24669 0.0
C162 C 0.99413 0.85851 0.23913 0.0
C163 C 0.99798 0.7897 0.27678 0.0
C164 C 0.28208 0.62649 0.30094 0.0
C165 C 0.14613 0.55457 0.29921 0.0
C166 C 0.21417 0.66415 0.31303 0.0
N167 N 0.14672 0.62864 0.31372 0.0
C168 C 0.21312 0.5146 0.29329 0.0
C169 C 0.28147 0.55085 0.29361 0.0
C170 C 0.00383 0.52795 0.43482 0.0
C171 C 0.97147 0.71634 0.67648 0.0
C172 C 0.9367 0.58305 0.60692 0.0
C173 C 0.97328 0.5851 0.68184 0.0
C174 C 0.99204 0.65213 0.71587 0.0
N175 N 0.91363 0.64633 0.56842 0.0
C176 C 0.93049 0.71264 0.60404 0.0
Co177 Co 0.69564 0.95305 0.59759 0.0
Co178 Co 0.66956 0.12548 0.52779 0.0
O179 O 0.73232 0.03982 0.54513 0.0
C180 C 0.74246 0.84741 0.45924 0.0
O181 O 0.67242 0.84341 0.43511 0.0
C182 C 0.83463 0.17338 0.54295 0.0
O183 O 0.84912 0.11363 0.5843 0.0
O184 O 0.65435 0.13688 0.64953 0.0
O185 O 0.63341 0.01741 0.68107 0.0
H186 H 0.47218 0.28164 0.39396 0.0
H187 H 0.84471 0.86435 0.62891 0.0
O188 O 0.76016 0.89089 0.51793 0.0
H189 H 0.86057 0.08227 0.80244 0.0
H190 H 0.69486 0.68142 0.60669 0.0
H191 H 0.54748 0.90722 0.65508 0.0
H192 H 0.7623 0.07101 0.70361 0.0
H193 H 0.75673 0.79538 0.634 0.0
O194 O 0.76643 0.18862 0.52279 0.0
H195 H 0.53658 0.16483 0.42485 0.0
H196 H 0.67153 0.27255 0.60102 0.0
H197 H 0.48345 0.79192 0.6246 0.0
H198 H 0.93805 0.86815 0.73669 0.0
H199 H 0.55743 0.68071 0.58754 0.0
H200 H 0.94847 0.97755 0.82381 0.0
O201 O 0.60425 0.95032 0.52349 0.0
H202 H 0.70277 0.97327 0.27024 0.0
H203 H 0.6872 0.22207 0.38727 0.0
H204 H 0.70485 0.20749 0.24003 0.0
H205 H 0.71677 0.08201 0.18022 0.0
H206 H 0.6834 -0.00793 0.41661 0.0
H207 H 0.60319 0.38876 0.57788 0.0
H208 H 0.51072 0.39587 0.46697 0.0
O209 O 0.57177 0.0684 0.52734 0.0
C210 C 0.6277 0.08751 0.69798 0.0
C211 C 0.51522 0.28008 0.44014 0.0
C212 C 0.59003 0.34054 0.54223 0.0
N213 N 0.60957 0.21299 0.51234 0.0
C214 C 0.55167 0.21411 0.458 0.0
C215 C 0.62751 0.27447 0.55595 0.0
C216 C 0.53599 0.34388 0.48155 0.0
C217 C 0.83948 0.90683 0.67398 0.0
N218 N 0.78386 0.95919 0.67102 0.0
C219 C 0.89643 0.91074 0.73214 0.0
C220 C 0.90324 0.97315 0.7805 0.0
C221 C 0.85399 0.03128 0.76896 0.0
C222 C 0.79528 0.02325 0.71385 0.0
C223 C 0.66201 0.73068 0.61811 0.0
C224 C 0.58058 0.85772 0.64697 0.0
C225 C 0.69728 0.79698 0.63603 0.0
N226 N 0.65717 0.86146 0.64326 0.0
C227 C 0.54357 0.79276 0.62754 0.0
C228 C 0.58489 0.72994 0.60868 0.0
C229 C 0.55434 0.00094 0.51756 0.0
C230 C 0.69817 0.02845 0.29509 0.0
C231 C 0.6889 0.16811 0.36126 0.0
C232 C 0.70039 0.15949 0.27785 0.0
C233 C 0.70601 0.08919 0.2446 0.0
N234 N 0.68121 0.10913 0.41082 0.0
C235 C 0.68622 0.0396 0.37852 0.0
Co236 Co 0.52147 0.80551 0.86649 0.0
Co237 Co 0.34864 0.8406 0.94142 0.0
O238 O 0.42961 0.77345 0.91476 0.0
C239 C 0.63486 0.75681 -0.0071 0.0
O240 O 0.65543 0.82502 0.00678 0.0
C241 C 0.27621 0.68511 0.91812 0.0
O242 O 0.33713 0.65655 0.8852 0.0
O243 O 0.33473 0.85891 0.81929 0.0
O244 O 0.45911 0.86517 0.7824 0.0
H245 H 0.23158 0.05617 0.09392 0.0
H246 H 0.61175 0.65988 0.83808 0.0
O247 O 0.57815 0.74309 0.94788 0.0
H248 H 0.38367 0.63332 0.67873 0.0
H249 H 0.79635 0.80926 0.87182 0.0
H250 H 0.56984 0.94727 0.80507 0.0
H251 H 0.40011 0.74007 0.76534 0.0
H252 H 0.68496 0.74375 0.82874 0.0
O253 O 0.27563 0.75248 0.9428 0.0
H254 H 0.33163 -0.00543 0.02024 0.0
H255 H 0.17756 0.83502 0.93044 0.0
H256 H 0.68644 0.01045 0.84401 0.0
H257 H 0.60433 0.5599 0.74 0.0
H258 H 0.79549 0.94081 0.88741 0.0
H259 H 0.4903 0.54831 0.65365 0.0
O260 O 0.52885 0.89451 0.94152 0.0
H261 H 0.43278 0.67302 0.16326 0.0
H262 H 0.41223 0.93258 0.08469 0.0
H263 H 0.48852 0.89969 0.20019 0.0
H264 H 0.50071 0.76925 0.24087 0.0
H265 H 0.36293 0.7074 0.04213 0.0
H266 H 0.07719 0.89575 0.01018 0.0
H267 H 0.10318 0.00529 0.09195 0.0
O268 O 0.41177 0.9313 0.93615 0.0
C269 C 0.388 0.87588 0.76735 0.0
C270 C 0.21979 0.00698 0.05881 0.0
C271 C 0.13326 0.917 0.01065 0.0
N272 N 0.26428 0.90553 -0.02495 0.0
C273 C 0.27716 0.97017 0.01661 0.0
C274 C 0.19157 0.88207 0.9675 0.0
C275 C 0.14793 0.97851 0.05798 0.0
C276 C 0.56679 0.66182 0.79532 0.0
N277 N 0.51426 0.71745 0.79569 0.0
C278 C 0.5605 0.6014 0.74276 0.0
C279 C 0.49599 0.59365 0.69619 0.0
C280 C 0.43722 0.64292 0.70747 0.0
C281 C 0.44764 0.70472 0.75662 0.0
C282 C 0.74782 0.83819 0.85245 0.0
C283 C 0.62016 0.91534 0.81533 0.0
C284 C 0.68253 0.80208 0.8285 0.0
N285 N 0.61648 0.84041 0.82035 0.0
C286 C 0.6849 0.95228 0.83887 0.0
C287 C 0.74747 0.91318 0.86189 0.0
C288 C 0.48043 0.94604 0.94456 0.0
C289 C 0.42722 0.73042 0.14675 0.0
C290 C 0.4142 0.87554 0.10024 0.0
C291 C 0.45909 0.85719 0.16684 0.0
C292 C 0.46571 0.78408 0.18997 0.0
N293 N 0.37761 0.82268 0.05555 0.0
C294 C 0.38448 0.75076 0.07924 0.0
Co295 Co 0.84773 0.6371 0.01407 0.0
Co296 Co 0.80381 0.47081 0.09418 0.0
O297 O 0.77736 0.56009 0.04142 0.0
C298 C 0.68866 0.69562 0.00575 0.0
O299 O 0.66636 0.6287 -0.012 0.0
C300 C 0.75075 0.35264 -0.02511 0.0
O301 O 0.82006 0.32789 0.96959 0.0
O302 O 0.8948 0.4566 0.02036 0.0
O303 O 0.93692 0.57082 0.01307 0.0
H304 H 0.99894 0.28736 0.12316 0.0
H305 H 0.80456 0.50162 0.91833 0.0
O306 O 0.75864 0.70877 0.01748 0.0
H307 H 0.80954 0.69769 0.71439 0.0
H308 H 0.91518 0.90219 -0.02435 0.0
H309 H 0.99349 0.64777 0.91915 0.0
H310 H 0.86004 0.71882 0.84935 0.0
H311 H 0.85185 0.79989 0.04648 0.0
O312 O 0.73685 0.41263 0.0145 0.0
H313 H 0.94749 0.41141 0.1483 0.0
H314 H 0.72799 0.32132 0.15007 0.0
H315 H 0.06273 0.74947 0.85763 0.0
H316 H 0.75967 0.47596 0.78153 0.0
H317 H 0.01862 0.87676 0.87857 0.0
H318 H 0.75842 0.57533 0.67845 0.0
O319 O 0.86913 0.65168 0.13536 0.0
H320 H 0.54635 0.41748 0.22341 0.0
H321 H 0.74474 0.59995 0.18755 0.0
H322 H 0.63508 0.63171 0.2685 0.0
H323 H 0.53431 0.53936 0.28919 0.0
H324 H 0.64778 0.39609 0.12532 0.0
H325 H 0.77813 0.19962 0.12606 0.0
H326 H 0.91439 0.18236 0.10678 0.0
O327 O 0.86889 0.53201 0.17647 0.0
C328 C 0.94811 0.50222 0.0092 0.0
C329 C 0.93947 0.29545 0.13037 0.0
C330 C 0.81554 0.2459 0.13281 0.0
N331 N 0.83349 0.3771 0.14441 0.0
C332 C 0.90948 0.36532 0.14524 0.0
C333 C 0.78723 0.31682 0.14611 0.0
C334 C 0.89192 0.23596 0.12159 0.0
C335 C 0.80483 0.54605 0.87565 0.0
N336 N 0.82813 0.61528 0.89762 0.0
C337 C 0.77944 0.53052 0.79703 0.0
C338 C 0.77892 0.58597 0.73916 0.0
C339 C 0.80709 0.65468 0.75948 0.0
C340 C 0.8335 0.66752 0.8382 0.0
C341 C 0.9331 0.84634 0.96531 0.0
C342 C 0.97768 0.70306 0.93637 0.0
C343 C 0.89743 0.78789 0.00461 0.0
N344 N 0.91636 0.71683 -0.01443 0.0
C345 C 0.01596 0.76049 0.89845 0.0
C346 C 0.99106 0.8321 0.9101 0.0
C347 C 0.88405 0.60152 0.18916 0.0
C348 C 0.59032 0.4576 0.21556 0.0
C349 C 0.70447 0.55749 0.19746 0.0
C350 C 0.64038 0.57708 0.24238 0.0
C351 C 0.5837 0.52587 0.25327 0.0
N352 N 0.71336 0.4887 0.16326 0.0
C353 C 0.65253 0.4425 0.16538 0.0
Co354 Co 0.45612 0.16907 0.87891 0.0
Co355 Co 0.62841 0.13935 0.95966 0.0
O356 O 0.54219 0.20149 0.93881 0.0
C357 C 0.32767 0.19721 -0.00471 0.0
O358 O 0.30351 0.13104 -0.02129 0.0
C359 C 0.68773 0.30201 0.9532 0.0
O360 O 0.62184 0.32967 0.93465 0.0
O361 O 0.64695 0.13039 0.83709 0.0
O362 O 0.5263 0.11908 0.79243 0.0
H363 H 0.76372 0.92626 0.09313 0.0
H364 H 0.35863 0.30876 0.87091 0.0
O365 O 0.38972 0.21915 0.96453 0.0
H366 H 0.59457 0.36873 0.72998 0.0
H367 H 0.19115 0.17888 0.75754 0.0
H368 H 0.40253 0.02303 0.82376 0.0
H369 H 0.57505 0.24624 0.78261 0.0
H370 H 0.31616 0.23428 0.77998 0.0
O371 O 0.69522 0.23244 0.96647 0.0
H372 H 0.65644 0.98569 0.0321 0.0
H373 H 0.79636 0.15449 0.93622 0.0
H374 H 0.27309 0.97428 0.83453 0.0
H375 H 0.3766 0.43157 0.81825 0.0
H376 H 0.1657 0.05622 0.80953 0.0
H377 H 0.49568 0.46235 0.74896 0.0
O378 O 0.45141 0.07492 0.94324 0.0
H379 H 0.55273 0.28487 0.20942 0.0
H380 H 0.56555 0.03603 0.09288 0.0
H381 H 0.50343 0.05498 0.22233 0.0
H382 H 0.49402 0.18029 0.28184 0.0
H383 H 0.61465 0.26479 0.07913 0.0
H384 H 0.90504 0.09548 0.00062 0.0
H385 H 0.88942 0.98263 0.08092 0.0
O386 O 0.5711 0.04376 0.94734 0.0
C387 C 0.5986 0.1121 0.78141 0.0
C388 C 0.77092 0.97739 0.0604 0.0
C389 C 0.85017 0.07203 0.0072 0.0
N390 N 0.71689 0.07896 -0.01383 0.0
C391 C 0.70935 0.01293 0.02595 0.0
C392 C 0.78751 0.10584 -0.02759 0.0
C393 C 0.84139 0.00871 0.05313 0.0
C394 C 0.40924 0.31855 0.83638 0.0
N395 N 0.462 0.26426 0.82234 0.0
C396 C 0.41922 0.3898 0.8076 0.0
C397 C 0.48578 0.40737 0.76822 0.0
C398 C 0.54119 0.35444 0.75757 0.0
C399 C 0.52872 0.28358 0.78626 0.0
C400 C 0.23634 0.14844 0.78472 0.0
C401 C 0.35554 0.06008 0.82007 0.0
C402 C 0.30825 0.17813 0.79549 0.0
N403 N 0.36674 0.1344 0.8197 0.0
C404 C 0.28297 0.03148 0.8233 0.0
C405 C 0.22244 0.0773 0.80892 0.0
C406 C 0.50236 0.02589 0.94809 0.0
C407 C 0.55695 0.22981 0.18437 0.0
C408 C 0.56682 0.09069 0.11721 0.0
C409 C 0.52936 0.10111 0.19163 0.0
C410 C 0.52397 0.17128 0.22503 0.0
N411 N 0.59954 0.14829 0.0762 0.0
C412 C 0.59435 0.2173 0.11027 0.0
Co413 Co 0.13509 0.34691 -0.00946 0.0
Co414 Co 0.18274 0.51254 0.06576 0.0
O415 O 0.20379 0.42564 0.00648 0.0
C416 C 0.2732 0.2517 0.02774 0.0
O417 O 0.26242 0.25799 0.10667 0.0
C418 C 0.21393 0.63554 0.94455 0.0
O419 O 0.14757 0.66411 0.95989 0.0
O420 O 0.07989 0.52375 0.01573 0.0
O421 O 0.04137 0.40811 0.00182 0.0
H422 H 0.00101 0.70308 0.13713 0.0
H423 H 0.12834 0.48642 0.8897 0.0
O424 O 0.22773 0.28154 -0.02242 0.0
H425 H 0.21859 0.2914 0.70765 0.0
H426 H 0.07925 0.07876 0.97092 0.0
H427 H 0.99396 0.32693 0.89647 0.0
H428 H 0.1638 0.2611 0.84403 0.0
H429 H 0.13618 0.18795 0.03556 0.0
O430 O 0.2303 0.57158 -0.02775 0.0
H431 H 0.04724 0.57554 0.1446 0.0
H432 H 0.27072 0.65094 0.12102 0.0
H433 H 0.92954 0.21864 0.83998 0.0
H434 H 0.18089 0.51924 0.75797 0.0
H435 H 0.97899 0.09416 0.87007 0.0
H436 H 0.23438 0.42117 0.6691 0.0
O437 O 0.12701 0.33131 0.11315 0.0
H438 H 0.46377 0.53648 0.04923 0.0
H439 H 0.25697 0.39776 0.17155 0.0
H440 H 0.38237 0.34816 0.177 0.0
H441 H 0.48568 0.41231 0.10527 0.0
H442 H 0.3386 0.58503 0.0439 0.0
H443 H 0.22589 0.77834 0.1097 0.0
H444 H 0.09041 0.80474 0.11736 0.0
O445 O 0.13403 0.45 0.15798 0.0
C446 C 0.02766 0.47656 0.00609 0.0
C447 C 0.06045 0.69175 0.13447 0.0
C448 C 0.18692 0.73401 0.12032 0.0
N449 N 0.16167 0.60426 0.12478 0.0
C450 C 0.08732 0.61967 0.13836 0.0
C451 C 0.21186 0.66101 0.12453 0.0
C452 C 0.11061 0.74902 0.1234 0.0
C453 C 0.1452 0.4425 0.85019 0.0
N454 N 0.14365 0.37061 0.87523 0.0
C455 C 0.17694 0.46198 0.77544 0.0
C456 C 0.20673 0.40721 0.72554 0.0
C457 C 0.19937 0.33407 0.74824 0.0
C458 C 0.16695 0.31679 0.82353 0.0
C459 C 0.0596 0.13312 0.95622 0.0
C460 C 0.01099 0.27276 0.91624 0.0
C461 C 0.09158 0.19518 -0.00792 0.0
N462 N 0.0703 0.26395 0.96803 0.0
C463 C 0.9756 0.21171 0.88206 0.0
C464 C 0.00307 0.14181 0.89901 0.0
C465 C 0.1192 0.38065 0.17005 0.0
C466 C 0.41837 0.50705 0.07871 0.0
C467 C 0.3005 0.43172 0.148 0.0
C468 C 0.37281 0.40167 0.15005 0.0
C469 C 0.43124 0.4382 0.11173 0.0
N470 N 0.28538 0.49729 0.1098 0.0
C471 C 0.34539 0.53543 0.07784 0.0
loop_
_geom_bond_atom_site_label_1
_geom_bond_atom_site_label_2
_geom_bond_distance
_geom_bond_site_symmetry_2
_ccdc_geom_bond_type
Co0 O2 2.143 1_655 S
Co0 O8 2.074 1_655 S
Co0 O11 2.093 . S
Co0 O24 2.097 . S
Co0 N41 2.151 . S
Co0 N49 2.214 . S
Co1 O2 2.160 . S
Co1 O7 2.058 . S
Co1 O17 2.057 . S
Co1 O32 2.037 . S
Co1 N36 2.145 . S
Co1 N57 2.257 . S
O2 Co0 2.143 1_455 S
O2 Co1 2.160 . S
C3 O4 1.278 . S
C3 O11 1.224 . S
O4 C3 1.278 . S
C5 O6 1.245 . S
C5 O17 1.232 . S
O6 C5 1.245 . S
O7 Co1 2.058 . S
O7 C33 1.269 . S
O8 Co0 2.074 1_455 S
O8 C33 1.257 . S
H9 C34 0.930 . S
H10 C40 0.930 . S
O11 Co0 2.093 . S
O11 C3 1.224 . S
H12 C44 0.929 . S
H13 C46 0.930 . S
H14 C47 0.930 . S
H15 C45 0.929 . S
H16 C48 0.928 . S
O17 Co1 2.057 . S
O17 C5 1.232 . S
H18 C37 0.929 . S
H19 C38 0.929 . S
H20 C50 0.931 . S
H21 C42 0.929 . S
H22 C51 0.930 . S
H23 C43 0.931 . S
O24 Co0 2.097 . S
O24 C52 1.214 1_655 S
H25 C53 0.929 . S
H26 C54 0.929 . S
H27 C55 0.930 . S
H28 C56 0.929 . S
H29 C58 0.930 . S
H30 C35 0.930 . S
H31 C39 0.930 . S
O32 Co1 2.037 . S
O32 C52 1.234 . S
C33 O7 1.269 . S
C33 O8 1.257 . S
C34 H9 0.930 . S
C34 C37 1.388 . S
C34 C39 1.418 . S
C35 H30 0.930 . S
C35 C38 1.404 . S
C35 C39 1.353 . S
N36 Co1 2.145 . S
N36 C37 1.397 . S
N36 C38 1.334 . S
C37 H18 0.929 . S
C37 C34 1.388 . S
C37 N36 1.397 . S
C38 H19 0.929 . S
C38 C35 1.404 . S
C38 N36 1.334 . S
C39 H31 0.930 . S
C39 C34 1.418 . S
C39 C35 1.353 . S
C40 H10 0.930 . S
C40 N41 1.330 . S
C40 C42 1.446 . S
N41 Co0 2.151 . S
N41 C40 1.330 . S
N41 C45 1.418 . S
C42 H21 0.929 . S
C42 C40 1.446 . S
C42 C43 1.332 . S
C43 H23 0.931 . S
C43 C42 1.332 . S
C43 C44 1.267 . S
C44 H12 0.929 . S
C44 C43 1.267 . S
C44 C45 1.251 . S
C45 H15 0.929 . S
C45 N41 1.418 . S
C45 C44 1.251 . S
C46 H13 0.930 . S
C46 C48 1.406 . S
C46 C51 1.261 . S
C47 H14 0.930 . S
C47 N49 1.325 . S
C47 C50 1.357 . S
C48 H16 0.928 . S
C48 C46 1.406 . S
C48 N49 1.261 . S
N49 Co0 2.214 . S
N49 C47 1.325 . S
N49 C48 1.261 . S
C50 H20 0.931 . S
C50 C47 1.357 . S
C50 C51 1.312 . S
C51 H22 0.930 . S
C51 C46 1.261 . S
C51 C50 1.312 . S
C52 O24 1.214 1_455 S
C52 O32 1.234 . S
C53 H25 0.929 . S
C53 C56 1.391 . S
C53 C58 1.391 . S
C54 H26 0.929 . S
C54 C55 1.390 . S
C54 N57 1.391 . S
C55 H27 0.930 . S
C55 C54 1.390 . S
C55 C56 1.392 . S
C56 H28 0.929 . S
C56 C53 1.391 . S
C56 C55 1.392 . S
N57 Co1 2.257 . S
N57 C54 1.391 . S
N57 C58 1.388 . S
C58 H29 0.930 . S
C58 C53 1.391 . S
C58 N57 1.388 . S
Co59 O61 2.143 1_545 S
Co59 O67 2.074 1_545 S
Co59 O70 2.093 . S
Co59 O83 2.097 . S
Co59 N100 2.151 . S
Co59 N108 2.214 . S
Co60 O61 2.160 . S
Co60 O66 2.058 . S
Co60 O76 2.057 . S
Co60 O91 2.037 . S
Co60 N95 2.145 . S
Co60 N116 2.257 . S
O61 Co59 2.143 1_565 S
O61 Co60 2.160 . S
C62 O63 1.278 . S
C62 O70 1.224 . S
O63 C62 1.278 . S
C64 O65 1.245 . S
C64 O76 1.232 . S
O65 C64 1.245 . S
O66 Co60 2.058 . S
O66 C92 1.269 . S
O67 Co59 2.074 1_565 S
O67 C92 1.257 . S
H68 C93 0.930 . S
H69 C99 0.930 . S
O70 Co59 2.093 . S
O70 C62 1.224 . S
H71 C103 0.929 . S
H72 C105 0.930 . S
H73 C106 0.930 . S
H74 C104 0.929 . S
H75 C107 0.928 . S
O76 Co60 2.057 . S
O76 C64 1.232 . S
H77 C96 0.929 . S
H78 C97 0.929 . S
H79 C109 0.931 . S
H80 C101 0.929 . S
H81 C110 0.930 . S
H82 C102 0.931 . S
O83 Co59 2.097 . S
O83 C111 1.214 1_545 S
H84 C112 0.929 . S
H85 C113 0.929 . S
H86 C114 0.930 . S
H87 C115 0.929 . S
H88 C117 0.930 . S
H89 C94 0.930 . S
H90 C98 0.930 . S
O91 Co60 2.037 . S
O91 C111 1.234 . S
C92 O66 1.269 . S
C92 O67 1.257 . S
C93 H68 0.930 . S
C93 C96 1.388 . S
C93 C98 1.418 . S
C94 H89 0.930 . S
C94 C97 1.404 . S
C94 C98 1.353 . S
N95 Co60 2.145 . S
N95 C96 1.397 . S
N95 C97 1.334 . S
C96 H77 0.929 . S
C96 C93 1.388 . S
C96 N95 1.397 . S
C97 H78 0.929 . S
C97 C94 1.404 . S
C97 N95 1.334 . S
C98 H90 0.930 . S
C98 C93 1.418 . S
C98 C94 1.353 . S
C99 H69 0.930 . S
C99 N100 1.330 . S
C99 C101 1.446 . S
N100 Co59 2.151 . S
N100 C99 1.330 . S
N100 C104 1.418 . S
C101 H80 0.929 . S
C101 C99 1.446 . S
C101 C102 1.332 . S
C102 H82 0.931 . S
C102 C101 1.332 . S
C102 C103 1.267 . S
C103 H71 0.929 . S
C103 C102 1.267 . S
C103 C104 1.251 . S
C104 H74 0.929 . S
C104 N100 1.418 . S
C104 C103 1.251 . S
C105 H72 0.930 . S
C105 C107 1.406 . S
C105 C110 1.261 . S
C106 H73 0.930 . S
C106 N108 1.325 . S
C106 C109 1.357 . S
C107 H75 0.928 . S
C107 C105 1.406 . S
C107 N108 1.261 . S
N108 Co59 2.214 . S
N108 C106 1.325 . S
N108 C107 1.261 . S
C109 H79 0.931 . S
C109 C106 1.357 . S
C109 C110 1.312 . S
C110 H81 0.930 . S
C110 C105 1.261 . S
C110 C109 1.312 . S
C111 O83 1.214 1_565 S
C111 O91 1.234 . S
C112 H84 0.929 . S
C112 C115 1.391 . S
C112 C117 1.391 . S
C113 H85 0.929 . S
C113 C114 1.390 . S
C113 N116 1.391 . S
C114 H86 0.930 . S
C114 C113 1.390 . S
C114 C115 1.392 . S
C115 H87 0.929 . S
C115 C112 1.391 . S
C115 C114 1.392 . S
N116 Co60 2.257 . S
N116 C113 1.391 . S
N116 C117 1.388 . S
C117 H88 0.930 . S
C117 C112 1.391 . S
C117 N116 1.388 . S
Co118 O120 2.143 1_455 S
Co118 O126 2.074 1_455 S
Co118 O129 2.093 . S
Co118 O142 2.097 . S
Co118 N159 2.151 . S
Co118 N167 2.214 . S
Co119 O120 2.160 . S
Co119 O125 2.058 . S
Co119 O135 2.057 . S
Co119 O150 2.037 . S
Co119 N154 2.145 . S
Co119 N175 2.257 . S
O120 Co118 2.143 1_655 S
O120 Co119 2.160 . S
C121 O122 1.278 . S
C121 O129 1.224 . S
O122 C121 1.278 . S
C123 O124 1.245 . S
C123 O135 1.232 . S
O124 C123 1.245 . S
O125 Co119 2.058 . S
O125 C151 1.269 . S
O126 Co118 2.074 1_655 S
O126 C151 1.257 . S
H127 C152 0.930 . S
H128 C158 0.930 . S
O129 Co118 2.093 . S
O129 C121 1.224 . S
H130 C162 0.929 . S
H131 C164 0.930 . S
H132 C165 0.930 . S
H133 C163 0.929 . S
H134 C166 0.928 . S
O135 Co119 2.057 . S
O135 C123 1.232 . S
H136 C155 0.929 . S
H137 C156 0.929 . S
H138 C168 0.931 . S
H139 C160 0.929 . S
H140 C169 0.930 . S
H141 C161 0.931 . S
O142 Co118 2.097 . S
O142 C170 1.214 1_455 S
H143 C171 0.929 . S
H144 C172 0.929 . S
H145 C173 0.930 . S
H146 C174 0.929 . S
H147 C176 0.930 . S
H148 C153 0.930 . S
H149 C157 0.930 . S
O150 Co119 2.037 . S
O150 C170 1.234 . S
C151 O125 1.269 . S
C151 O126 1.257 . S
C152 H127 0.930 . S
C152 C155 1.388 . S
C152 C157 1.418 . S
C153 H148 0.930 . S
C153 C156 1.404 . S
C153 C157 1.353 . S
N154 Co119 2.145 . S
N154 C155 1.397 . S
N154 C156 1.334 . S
C155 H136 0.929 . S
C155 C152 1.388 . S
C155 N154 1.397 . S
C156 H137 0.929 . S
C156 C153 1.404 . S
C156 N154 1.334 . S
C157 H149 0.930 . S
C157 C152 1.418 . S
C157 C153 1.353 . S
C158 H128 0.930 . S
C158 N159 1.330 . S
C158 C160 1.446 . S
N159 Co118 2.151 . S
N159 C158 1.330 . S
N159 C163 1.418 . S
C160 H139 0.929 . S
C160 C158 1.446 . S
C160 C161 1.332 . S
C161 H141 0.931 . S
C161 C160 1.332 . S
C161 C162 1.267 . S
C162 H130 0.929 . S
C162 C161 1.267 . S
C162 C163 1.251 . S
C163 H133 0.929 . S
C163 N159 1.418 . S
C163 C162 1.251 . S
C164 H131 0.930 . S
C164 C166 1.406 . S
C164 C169 1.261 . S
C165 H132 0.930 . S
C165 N167 1.325 . S
C165 C168 1.357 . S
C166 H134 0.928 . S
C166 C164 1.406 . S
C166 N167 1.261 . S
N167 Co118 2.214 . S
N167 C165 1.325 . S
N167 C166 1.261 . S
C168 H138 0.931 . S
C168 C165 1.357 . S
C168 C169 1.312 . S
C169 H140 0.930 . S
C169 C164 1.261 . S
C169 C168 1.312 . S
C170 O142 1.214 1_655 S
C170 O150 1.234 . S
C171 H143 0.929 . S
C171 C174 1.391 . S
C171 C176 1.391 . S
C172 H144 0.929 . S
C172 C173 1.390 . S
C172 N175 1.391 . S
C173 H145 0.930 . S
C173 C172 1.390 . S
C173 C174 1.392 . S
C174 H146 0.929 . S
C174 C171 1.391 . S
C174 C173 1.392 . S
N175 Co119 2.257 . S
N175 C172 1.391 . S
N175 C176 1.388 . S
C176 H147 0.930 . S
C176 C171 1.391 . S
C176 N175 1.388 . S
Co177 O179 2.143 1_565 S
Co177 O185 2.074 1_565 S
Co177 O188 2.093 . S
Co177 O201 2.097 . S
Co177 N218 2.151 . S
Co177 N226 2.214 . S
Co178 O179 2.160 . S
Co178 O184 2.058 . S
Co178 O194 2.057 . S
Co178 O209 2.037 . S
Co178 N213 2.145 . S
Co178 N234 2.257 . S
O179 Co177 2.143 1_545 S
O179 Co178 2.160 . S
C180 O181 1.278 . S
C180 O188 1.224 . S
O181 C180 1.278 . S
C182 O183 1.245 . S
C182 O194 1.232 . S
O183 C182 1.245 . S
O184 Co178 2.058 . S
O184 C210 1.269 . S
O185 Co177 2.074 1_545 S
O185 C210 1.257 . S
H186 C211 0.930 . S
H187 C217 0.930 . S
O188 Co177 2.093 . S
O188 C180 1.224 . S
H189 C221 0.929 . S
H190 C223 0.930 . S
H191 C224 0.930 . S
H192 C222 0.929 . S
H193 C225 0.928 . S
O194 Co178 2.057 . S
O194 C182 1.232 . S
H195 C214 0.929 . S
H196 C215 0.929 . S
H197 C227 0.931 . S
H198 C219 0.929 . S
H199 C228 0.930 . S
H200 C220 0.931 . S
O201 Co177 2.097 . S
O201 C229 1.214 1_565 S
H202 C230 0.929 . S
H203 C231 0.929 . S
H204 C232 0.930 . S
H205 C233 0.929 . S
H206 C235 0.930 . S
H207 C212 0.930 . S
H208 C216 0.930 . S
O209 Co178 2.037 . S
O209 C229 1.234 . S
C210 O184 1.269 . S
C210 O185 1.257 . S
C211 H186 0.930 . S
C211 C214 1.388 . S
C211 C216 1.418 . S
C212 H207 0.930 . S
C212 C215 1.404 . S
C212 C216 1.353 . S
N213 Co178 2.145 . S
N213 C214 1.397 . S
N213 C215 1.334 . S
C214 H195 0.929 . S
C214 C211 1.388 . S
C214 N213 1.397 . S
C215 H196 0.929 . S
C215 C212 1.404 . S
C215 N213 1.334 . S
C216 H208 0.930 . S
C216 C211 1.418 . S
C216 C212 1.353 . S
C217 H187 0.930 . S
C217 N218 1.330 . S
C217 C219 1.446 . S
N218 Co177 2.151 . S
N218 C217 1.330 . S
N218 C222 1.418 . S
C219 H198 0.929 . S
C219 C217 1.446 . S
C219 C220 1.332 . S
C220 H200 0.931 . S
C220 C219 1.332 . S
C220 C221 1.267 . S
C221 H189 0.929 . S
C221 C220 1.267 . S
C221 C222 1.251 . S
C222 H192 0.929 . S
C222 N218 1.418 . S
C222 C221 1.251 . S
C223 H190 0.930 . S
C223 C225 1.406 . S
C223 C228 1.261 . S
C224 H191 0.930 . S
C224 N226 1.325 . S
C224 C227 1.357 . S
C225 H193 0.928 . S
C225 C223 1.406 . S
C225 N226 1.261 . S
N226 Co177 2.214 . S
N226 C224 1.325 . S
N226 C225 1.261 . S
C227 H197 0.931 . S
C227 C224 1.357 . S
C227 C228 1.312 . S
C228 H199 0.930 . S
C228 C223 1.261 . S
C228 C227 1.312 . S
C229 O201 1.214 1_545 S
C229 O209 1.234 . S
C230 H202 0.929 . S
C230 C233 1.391 . S
C230 C235 1.391 . S
C231 H203 0.929 . S
C231 C232 1.390 . S
C231 N234 1.391 . S
C232 H204 0.930 . S
C232 C231 1.390 . S
C232 C233 1.392 . S
C233 H205 0.929 . S
C233 C230 1.391 . S
C233 C232 1.392 . S
N234 Co178 2.257 . S
N234 C231 1.391 . S
N234 C235 1.388 . S
C235 H206 0.930 . S
C235 C230 1.391 . S
C235 N234 1.388 . S
Co236 O238 2.143 . S
Co236 O244 2.074 . S
Co236 O247 2.093 . S
Co236 O260 2.097 . S
Co236 N277 2.151 . S
Co236 N285 2.214 . S
Co237 O238 2.160 1_554 S
Co237 O243 2.058 1_554 S
Co237 O253 2.057 . S
Co237 O268 2.037 . S
Co237 N272 2.145 . S
Co237 N293 2.257 . S
O238 Co236 2.143 . S
O238 Co237 2.160 1_556 S
C239 O240 1.278 . S
C239 O247 1.224 1_554 S
O240 C239 1.278 . S
C241 O242 1.245 1_554 S
C241 O253 1.232 . S
O242 C241 1.245 1_556 S
O243 Co237 2.058 1_556 S
O243 C269 1.269 . S
O244 Co236 2.074 . S
O244 C269 1.257 . S
H245 C270 0.930 . S
H246 C276 0.930 . S
O247 Co236 2.093 . S
O247 C239 1.224 1_556 S
H248 C280 0.929 . S
H249 C282 0.930 . S
H250 C283 0.930 . S
H251 C281 0.929 . S
H252 C284 0.928 . S
O253 Co237 2.057 . S
O253 C241 1.232 . S
H254 C273 0.929 1_546 S
H255 C274 0.929 . S
H256 C286 0.931 . S
H257 C278 0.929 . S
H258 C287 0.932 . S
H259 C279 0.931 . S
O260 Co236 2.097 . S
O260 C288 1.214 . S
H261 C289 0.929 . S
H262 C290 0.929 . S
H263 C291 0.930 . S
H264 C292 0.929 . S
H265 C294 0.930 . S
H266 C271 0.930 . S
H267 C275 0.924 1_545 S
O268 Co237 2.037 . S
O268 C288 1.234 1_554 S
C269 O243 1.269 . S
C269 O244 1.257 . S
C270 H245 0.930 . S
C270 C273 1.388 1_545 S
C270 C275 1.413 1_545 S
C271 H266 0.930 . S
C271 C274 1.404 . S
C271 C275 1.365 . S
N272 Co237 2.145 . S
N272 C273 1.397 . S
N272 C274 1.334 . S
C273 H254 0.929 1_564 S
C273 C270 1.388 1_565 S
C273 N272 1.397 . S
C274 H255 0.929 . S
C274 C271 1.404 . S
C274 N272 1.334 . S
C275 H267 0.924 1_565 S
C275 C270 1.413 1_565 S
C275 C271 1.365 . S
C276 H246 0.930 . S
C276 N277 1.330 . S
C276 C278 1.446 . S
N277 Co236 2.151 . S
N277 C276 1.330 . S
N277 C281 1.418 . S
C278 H257 0.929 . S
C278 C276 1.446 . S
C278 C279 1.332 . S
C279 H259 0.931 . S
C279 C278 1.332 . S
C279 C280 1.267 . S
C280 H248 0.929 . S
C280 C279 1.267 . S
C280 C281 1.251 . S
C281 H251 0.929 . S
C281 N277 1.418 . S
C281 C280 1.251 . S
C282 H249 0.930 . S
C282 C284 1.406 . S
C282 C287 1.261 . S
C283 H250 0.930 . S
C283 N285 1.325 . S
C283 C286 1.357 1_565 S
C284 H252 0.928 . S
C284 C282 1.406 . S
C284 N285 1.261 . S
N285 Co236 2.214 . S
N285 C283 1.325 . S
N285 C284 1.261 . S
C286 H256 0.931 . S
C286 C283 1.357 1_545 S
C286 C287 1.312 1_545 S
C287 H258 0.932 . S
C287 C282 1.261 . S
C287 C286 1.312 1_565 S
C288 O260 1.214 . S
C288 O268 1.234 1_556 S
C289 H261 0.929 . S
C289 C292 1.391 . S
C289 C294 1.391 . S
C290 H262 0.929 . S
C290 C291 1.390 . S
C290 N293 1.391 . S
C291 H263 0.930 . S
C291 C290 1.390 . S
C291 C292 1.392 . S
C292 H264 0.929 . S
C292 C289 1.391 . S
C292 C291 1.392 . S
N293 Co237 2.257 . S
N293 C290 1.391 . S
N293 C294 1.388 . S
C294 H265 0.930 . S
C294 C289 1.391 . S
C294 N293 1.388 . S
Co295 O297 2.144 . S
Co295 O303 2.074 . S
Co295 O306 2.092 1_554 S
Co295 O319 2.104 . S
Co295 N336 2.144 1_554 S
Co295 N344 2.213 1_554 S
Co296 O297 2.160 . S
Co296 O302 2.058 . S
Co296 O312 2.057 . S
Co296 O327 2.037 . S
Co296 N331 2.145 . S
Co296 N352 2.257 . S
O297 Co295 2.144 . S
O297 Co296 2.160 . S
C298 O299 1.278 1_556 S
C298 O306 1.224 . S
O299 C298 1.278 1_554 S
C300 O301 1.245 . S
C300 O312 1.232 1_556 S
O301 C300 1.245 . S
O302 Co296 2.058 . S
O302 C328 1.269 . S
O303 Co295 2.074 . S
O303 C328 1.257 . S
H304 C329 0.930 . S
H305 C335 0.930 . S
O306 Co295 2.092 1_556 S
O306 C298 1.224 . S
H307 C339 0.929 . S
H308 C341 0.930 . S
H309 C342 0.930 . S
H310 C340 0.929 . S
H311 C343 0.928 . S
O312 Co296 2.057 . S
O312 C300 1.232 1_554 S
H313 C332 0.929 . S
H314 C333 0.929 . S
H315 C345 0.931 . S
H316 C337 0.929 . S
H317 C346 0.930 . S
H318 C338 0.931 . S
O319 Co295 2.104 . S
O319 C347 1.214 . S
H320 C348 0.929 . S
H321 C349 0.929 . S
H322 C350 0.930 . S
H323 C351 0.929 . S
H324 C353 0.930 . S
H325 C330 0.930 . S
H326 C334 0.930 . S
O327 Co296 2.037 . S
O327 C347 1.234 . S
C328 O302 1.269 . S
C328 O303 1.257 . S
C329 H304 0.930 . S
C329 C332 1.388 . S
C329 C334 1.418 . S
C330 H325 0.930 . S
C330 C333 1.404 . S
C330 C334 1.353 . S
N331 Co296 2.145 . S
N331 C332 1.397 . S
N331 C333 1.334 . S
C332 H313 0.929 . S
C332 C329 1.388 . S
C332 N331 1.397 . S
C333 H314 0.929 . S
C333 C330 1.404 . S
C333 N331 1.334 . S
C334 H326 0.930 . S
C334 C329 1.418 . S
C334 C330 1.353 . S
C335 H305 0.930 . S
C335 N336 1.330 . S
C335 C337 1.446 . S
N336 Co295 2.144 1_556 S
N336 C335 1.330 . S
N336 C340 1.418 . S
C337 H316 0.929 . S
C337 C335 1.446 . S
C337 C338 1.332 . S
C338 H318 0.931 . S
C338 C337 1.332 . S
C338 C339 1.267 . S
C339 H307 0.929 . S
C339 C338 1.267 . S
C339 C340 1.251 . S
C340 H310 0.929 . S
C340 N336 1.418 . S
C340 C339 1.251 . S
C341 H308 0.930 . S
C341 C343 1.406 . S
C341 C346 1.261 1_655 S
C342 H309 0.930 . S
C342 N344 1.325 1_554 S
C342 C345 1.357 1_655 S
C343 H311 0.928 . S
C343 C341 1.406 . S
C343 N344 1.261 . S
N344 Co295 2.213 1_556 S
N344 C342 1.325 1_556 S
N344 C343 1.261 . S
C345 H315 0.931 . S
C345 C342 1.357 1_455 S
C345 C346 1.312 1_554 S
C346 H317 0.930 . S
C346 C341 1.261 1_455 S
C346 C345 1.312 1_556 S
C347 O319 1.214 . S
C347 O327 1.234 . S
C348 H320 0.929 . S
C348 C351 1.391 . S
C348 C353 1.391 . S
C349 H321 0.929 . S
C349 C350 1.390 . S
C349 N352 1.391 . S
C350 H322 0.930 . S
C350 C349 1.390 . S
C350 C351 1.392 . S
C351 H323 0.929 . S
C351 C348 1.391 . S
C351 C350 1.392 . S
N352 Co296 2.257 . S
N352 C349 1.391 . S
N352 C353 1.388 . S
C353 H324 0.930 . S
C353 C348 1.391 . S
C353 N352 1.388 . S
Co354 O356 2.143 . S
Co354 O362 2.074 . S
Co354 O365 2.093 . S
Co354 O378 2.097 . S
Co354 N395 2.151 . S
Co354 N403 2.214 . S
Co355 O356 2.160 1_554 S
Co355 O361 2.058 1_554 S
Co355 O371 2.057 . S
Co355 O386 2.037 . S
Co355 N390 2.145 . S
Co355 N411 2.257 . S
O356 Co354 2.143 . S
O356 Co355 2.160 1_556 S
C357 O358 1.278 . S
C357 O365 1.224 1_554 S
O358 C357 1.278 . S
C359 O360 1.245 1_554 S
C359 O371 1.232 . S
O360 C359 1.245 1_556 S
O361 Co355 2.058 1_556 S
O361 C387 1.269 . S
O362 Co354 2.074 . S
O362 C387 1.257 . S
H363 C388 0.930 . S
H364 C394 0.930 . S
O365 Co354 2.093 . S
O365 C357 1.224 1_556 S
H366 C398 0.929 . S
H367 C400 0.930 . S
H368 C401 0.930 . S
H369 C399 0.929 . S
H370 C402 0.928 . S
O371 Co355 2.057 . S
O371 C359 1.232 . S
H372 C391 0.929 1_566 S
H373 C392 0.929 . S
H374 C404 0.931 . S
H375 C396 0.929 . S
H376 C405 0.932 . S
H377 C397 0.931 . S
O378 Co354 2.097 . S
O378 C406 1.214 . S
H379 C407 0.929 . S
H380 C408 0.929 . S
H381 C409 0.930 . S
H382 C410 0.929 . S
H383 C412 0.930 . S
H384 C389 0.930 . S
H385 C393 0.924 1_565 S
O386 Co355 2.037 . S
O386 C406 1.234 1_554 S
C387 O361 1.269 . S
C387 O362 1.257 . S
C388 H363 0.930 . S
C388 C391 1.388 1_565 S
C388 C393 1.413 1_565 S
C389 H384 0.930 . S
C389 C392 1.404 . S
C389 C393 1.365 . S
N390 Co355 2.145 . S
N390 C391 1.397 . S
N390 C392 1.334 . S
C391 H372 0.929 1_544 S
C391 C388 1.388 1_545 S
C391 N390 1.397 . S
C392 H373 0.929 . S
C392 C389 1.404 . S
C392 N390 1.334 . S
C393 H385 0.924 1_545 S
C393 C388 1.413 1_545 S
C393 C389 1.365 . S
C394 H364 0.930 . S
C394 N395 1.330 . S
C394 C396 1.446 . S
N395 Co354 2.151 . S
N395 C394 1.330 . S
N395 C399 1.418 . S
C396 H375 0.929 . S
C396 C394 1.446 . S
C396 C397 1.332 . S
C397 H377 0.931 . S
C397 C396 1.332 . S
C397 C398 1.267 . S
C398 H366 0.929 . S
C398 C397 1.267 . S
C398 C399 1.251 . S
C399 H369 0.929 . S
C399 N395 1.418 . S
C399 C398 1.251 . S
C400 H367 0.930 . S
C400 C402 1.406 . S
C400 C405 1.261 . S
C401 H368 0.930 . S
C401 N403 1.325 . S
C401 C404 1.357 1_545 S
C402 H370 0.928 . S
C402 C400 1.406 . S
C402 N403 1.261 . S
N403 Co354 2.214 . S
N403 C401 1.325 . S
N403 C402 1.261 . S
C404 H374 0.931 . S
C404 C401 1.357 1_565 S
C404 C405 1.312 1_565 S
C405 H376 0.932 . S
C405 C400 1.261 . S
C405 C404 1.312 1_545 S
C406 O378 1.214 . S
C406 O386 1.234 1_556 S
C407 H379 0.929 . S
C407 C410 1.391 . S
C407 C412 1.391 . S
C408 H380 0.929 . S
C408 C409 1.390 . S
C408 N411 1.391 . S
C409 H381 0.930 . S
C409 C408 1.390 . S
C409 C410 1.392 . S
C410 H382 0.929 . S
C410 C407 1.391 . S
C410 C409 1.392 . S
N411 Co355 2.257 . S
N411 C408 1.391 . S
N411 C412 1.388 . S
C412 H383 0.930 . S
C412 C407 1.391 . S
C412 N411 1.388 . S
Co413 O415 2.144 . S
Co413 O421 2.074 . S
Co413 O424 2.092 1_554 S
Co413 O437 2.104 . S
Co413 N454 2.144 1_554 S
Co413 N462 2.213 1_554 S
Co414 O415 2.160 . S
Co414 O420 2.058 . S
Co414 O430 2.057 . S
Co414 O445 2.037 . S
Co414 N449 2.145 . S
Co414 N470 2.257 . S
O415 Co413 2.144 . S
O415 Co414 2.160 . S
C416 O417 1.278 1_556 S
C416 O424 1.224 . S
O417 C416 1.278 1_554 S
C418 O419 1.245 . S
C418 O430 1.232 1_556 S
O419 C418 1.245 . S
O420 Co414 2.058 . S
O420 C446 1.269 . S
O421 Co413 2.074 . S
O421 C446 1.257 . S
H422 C447 0.930 . S
H423 C453 0.930 . S
O424 Co413 2.092 1_556 S
O424 C416 1.224 . S
H425 C457 0.929 . S
H426 C459 0.930 . S
H427 C460 0.930 . S
H428 C458 0.929 . S
H429 C461 0.928 . S
O430 Co414 2.057 . S
O430 C418 1.232 1_554 S
H431 C450 0.929 . S
H432 C451 0.929 . S
H433 C463 0.931 . S
H434 C455 0.929 . S
H435 C464 0.930 . S
H436 C456 0.931 . S
O437 Co413 2.104 . S
O437 C465 1.214 . S
H438 C466 0.929 . S
H439 C467 0.929 . S
H440 C468 0.930 . S
H441 C469 0.929 . S
H442 C471 0.930 . S
H443 C448 0.930 . S
H444 C452 0.930 . S
O445 Co414 2.037 . S
O445 C465 1.234 . S
C446 O420 1.269 . S
C446 O421 1.257 . S
C447 H422 0.930 . S
C447 C450 1.388 . S
C447 C452 1.418 . S
C448 H443 0.930 . S
C448 C451 1.404 . S
C448 C452 1.353 . S
N449 Co414 2.145 . S
N449 C450 1.397 . S
N449 C451 1.334 . S
C450 H431 0.929 . S
C450 C447 1.388 . S
C450 N449 1.397 . S
C451 H432 0.929 . S
C451 C448 1.404 . S
C451 N449 1.334 . S
C452 H444 0.930 . S
C452 C447 1.418 . S
C452 C448 1.353 . S
C453 H423 0.930 . S
C453 N454 1.330 . S
C453 C455 1.446 . S
N454 Co413 2.144 1_556 S
N454 C453 1.330 . S
N454 C458 1.418 . S
C455 H434 0.929 . S
C455 C453 1.446 . S
C455 C456 1.332 . S
C456 H436 0.931 . S
C456 C455 1.332 . S
C456 C457 1.267 . S
C457 H425 0.929 . S
C457 C456 1.267 . S
C457 C458 1.251 . S
C458 H428 0.929 . S
C458 N454 1.418 . S
C458 C457 1.251 . S
C459 H426 0.930 . S
C459 C461 1.406 . S
C459 C464 1.261 1_455 S
C460 H427 0.930 . S
C460 N462 1.325 1_554 S
C460 C463 1.357 1_455 S
C461 H429 0.928 . S
C461 C459 1.406 . S
C461 N462 1.261 . S
N462 Co413 2.213 1_556 S
N462 C460 1.325 1_556 S
N462 C461 1.261 . S
C463 H433 0.931 . S
C463 C460 1.357 1_655 S
C463 C464 1.312 1_554 S
C464 H435 0.930 . S
C464 C459 1.261 1_655 S
C464 C463 1.312 1_556 S
C465 O437 1.214 . S
C465 O445 1.234 . S
C466 H438 0.929 . S
C466 C469 1.391 . S
C466 C471 1.391 . S
C467 H439 0.929 . S
C467 C468 1.390 . S
C467 N470 1.391 . S
C468 H440 0.930 . S
C468 C467 1.390 . S
C468 C469 1.392 . S
C469 H441 0.929 . S
C469 C466 1.391 . S
C469 C468 1.392 . S
N470 Co414 2.257 . S
N470 C467 1.391 . S
N470 C471 1.388 . S
C471 H442 0.930 . S
C471 C466 1.391 . S
C471 N470 1.388 . S
C465 C33 1.880 . S
C92 C269 1.909 . S
C151 C347 1.880 . S
C387 C210 1.909 . S
C62 C5 1.715 . S
C64 C121 1.721 . S
C180 C123 1.715 . S
C182 C3 1.721 . S
C418 C241 1.733 1_556 S
C298 C239 1.701 1_556 S
C300 C359 1.733 1_556 S
C357 C416 1.701 1_554 S
C170 C52 1.352 1_655 S
C229 C111 1.352 1_545 S
C406 C288 1.349 1_545 S
C446 C328 1.340 1_455 S
