# Generated by pormake.
# Topology ull, (4)-cn, num edge types: 1
# Building blocks:
#     Node 0, Type 0, BuildingBlock: GALJAG_clean_sbu_0, # of connection points: 4
#     Node 1, Type 0, BuildingBlock: GALJAG_clean_sbu_0, # of connection points: 4
#     Node 2, Type 0, BuildingBlock: GALJAG_clean_sbu_0, # of connection points: 4
#     Node 3, Type 0, BuildingBlock: GALJAG_clean_sbu_0, # of connection points: 4
#     Node 4, Type 0, BuildingBlock: GALJAG_clean_sbu_0, # of connection points: 4
#     Node 5, Type 0, BuildingBlock: GALJAG_clean_sbu_0, # of connection points: 4
#     Node 6, Type 0, BuildingBlock: GALJAG_clean_sbu_0, # of connection points: 4
#     Node 7, Type 0, BuildingBlock: GALJAG_clean_sbu_0, # of connection points: 4
#     Node 8, Type 0, BuildingBlock: GALJAG_clean_sbu_0, # of connection points: 4
#     Node 9, Type 0, BuildingBlock: GALJAG_clean_sbu_0, # of connection points: 4
#     Node 10, Type 0, BuildingBlock: GALJAG_clean_sbu_0, # of connection points: 4
#     Node 11, Type 0, BuildingBlock: GALJAG_clean_sbu_0, # of connection points: 4
#     Node 12, Type 0, BuildingBlock: GALJAG_clean_sbu_0, # of connection points: 4
#     Node 13, Type 0, BuildingBlock: GALJAG_clean_sbu_0, # of connection points: 4
#     Node 14, Type 0, BuildingBlock: GALJAG_clean_sbu_0, # of connection points: 4
#     Node 15, Type 0, BuildingBlock: GALJAG_clean_sbu_0, # of connection points: 4
#     Node 16, Type 0, BuildingBlock: GALJAG_clean_sbu_0, # of connection points: 4
#     Node 17, Type 0, BuildingBlock: GALJAG_clean_sbu_0, # of connection points: 4
#     Node 18, Type 0, BuildingBlock: GALJAG_clean_sbu_0, # of connection points: 4
#     Node 19, Type 0, BuildingBlock: GALJAG_clean_sbu_0, # of connection points: 4
#     Node 20, Type 0, BuildingBlock: GALJAG_clean_sbu_0, # of connection points: 4
#     Node 21, Type 0, BuildingBlock: GALJAG_clean_sbu_0, # of connection points: 4
#     Node 22, Type 0, BuildingBlock: GALJAG_clean_sbu_0, # of connection points: 4
#     Node 23, Type 0, BuildingBlock: GALJAG_clean_sbu_0, # of connection points: 4
#     Node 24, Type 0, BuildingBlock: GALJAG_clean_sbu_0, # of connection points: 4
#     Node 25, Type 0, BuildingBlock: GALJAG_clean_sbu_0, # of connection points: 4
#     Node 26, Type 0, BuildingBlock: GALJAG_clean_sbu_0, # of connection points: 4
#     Node 27, Type 0, BuildingBlock: GALJAG_clean_sbu_0, # of connection points: 4
#     Node 28, Type 0, BuildingBlock: GALJAG_clean_sbu_0, # of connection points: 4
#     Node 29, Type 0, BuildingBlock: GALJAG_clean_sbu_0, # of connection points: 4
#     Node 30, Type 0, BuildingBlock: GALJAG_clean_sbu_0, # of connection points: 4
#     Node 31, Type 0, BuildingBlock: GALJAG_clean_sbu_0, # of connection points: 4
#     Node 32, Type 0, BuildingBlock: GALJAG_clean_sbu_0, # of connection points: 4
#     Node 33, Type 0, BuildingBlock: GALJAG_clean_sbu_0, # of connection points: 4
#     Node 34, Type 0, BuildingBlock: GALJAG_clean_sbu_0, # of connection points: 4
#     Node 35, Type 0, BuildingBlock: GALJAG_clean_sbu_0, # of connection points: 4
#     Node 36, Type 0, BuildingBlock: GALJAG_clean_sbu_0, # of connection points: 4
#     Node 37, Type 0, BuildingBlock: GALJAG_clean_sbu_0, # of connection points: 4
#     Node 38, Type 0, BuildingBlock: GALJAG_clean_sbu_0, # of connection points: 4
#     Node 39, Type 0, BuildingBlock: GALJAG_clean_sbu_0, # of connection points: 4
#     Node 40, Type 0, BuildingBlock: GALJAG_clean_sbu_0, # of connection points: 4
#     Node 41, Type 0, BuildingBlock: GALJAG_clean_sbu_0, # of connection points: 4
#     Node 42, Type 0, BuildingBlock: GALJAG_clean_sbu_0, # of connection points: 4
#     Node 43, Type 0, BuildingBlock: GALJAG_clean_sbu_0, # of connection points: 4
#     Node 44, Type 0, BuildingBlock: GALJAG_clean_sbu_0, # of connection points: 4
#     Node 45, Type 0, BuildingBlock: GALJAG_clean_sbu_0, # of connection points: 4
#     Node 46, Type 0, BuildingBlock: GALJAG_clean_sbu_0, # of connection points: 4
#     Node 47, Type 0, BuildingBlock: GALJAG_clean_sbu_0, # of connection points: 4
#     Edge 48, Type (0, 0), BuildingBlock: KIFKEQ_clean_linker_1, # of connection points: 2
#     Edge 49, Type (0, 0), BuildingBlock: KIFKEQ_clean_linker_1, # of connection points: 2
#     Edge 50, Type (0, 0), BuildingBlock: KIFKEQ_clean_linker_1, # of connection points: 2
#     Edge 51, Type (0, 0), BuildingBlock: KIFKEQ_clean_linker_1, # of connection points: 2
#     Edge 52, Type (0, 0), BuildingBlock: KIFKEQ_clean_linker_1, # of connection points: 2
#     Edge 53, Type (0, 0), BuildingBlock: KIFKEQ_clean_linker_1, # of connection points: 2
#     Edge 54, Type (0, 0), BuildingBlock: KIFKEQ_clean_linker_1, # of connection points: 2
#     Edge 55, Type (0, 0), BuildingBlock: KIFKEQ_clean_linker_1, # of connection points: 2
#     Edge 56, Type (0, 0), BuildingBlock: KIFKEQ_clean_linker_1, # of connection points: 2
#     Edge 57, Type (0, 0), BuildingBlock: KIFKEQ_clean_linker_1, # of connection points: 2
#     Edge 58, Type (0, 0), BuildingBlock: KIFKEQ_clean_linker_1, # of connection points: 2
#     Edge 59, Type (0, 0), BuildingBlock: KIFKEQ_clean_linker_1, # of connection points: 2
#     Edge 60, Type (0, 0), BuildingBlock: KIFKEQ_clean_linker_1, # of connection points: 2
#     Edge 61, Type (0, 0), BuildingBlock: KIFKEQ_clean_linker_1, # of connection points: 2
#     Edge 62, Type (0, 0), BuildingBlock: KIFKEQ_clean_linker_1, # of connection points: 2
#     Edge 63, Type (0, 0), BuildingBlock: KIFKEQ_clean_linker_1, # of connection points: 2
#     Edge 64, Type (0, 0), BuildingBlock: KIFKEQ_clean_linker_1, # of connection points: 2
#     Edge 65, Type (0, 0), BuildingBlock: KIFKEQ_clean_linker_1, # of connection points: 2
#     Edge 66, Type (0, 0), BuildingBlock: KIFKEQ_clean_linker_1, # of connection points: 2
#     Edge 67, Type (0, 0), BuildingBlock: KIFKEQ_clean_linker_1, # of connection points: 2
#     Edge 68, Type (0, 0), BuildingBlock: KIFKEQ_clean_linker_1, # of connection points: 2
#     Edge 69, Type (0, 0), BuildingBlock: KIFKEQ_clean_linker_1, # of connection points: 2
#     Edge 70, Type (0, 0), BuildingBlock: KIFKEQ_clean_linker_1, # of connection points: 2
#     Edge 71, Type (0, 0), BuildingBlock: KIFKEQ_clean_linker_1, # of connection points: 2
#     Edge 72, Type (0, 0), BuildingBlock: KIFKEQ_clean_linker_1, # of connection points: 2
#     Edge 73, Type (0, 0), BuildingBlock: KIFKEQ_clean_linker_1, # of connection points: 2
#     Edge 74, Type (0, 0), BuildingBlock: KIFKEQ_clean_linker_1, # of connection points: 2
#     Edge 75, Type (0, 0), BuildingBlock: KIFKEQ_clean_linker_1, # of connection points: 2
#     Edge 76, Type (0, 0), BuildingBlock: KIFKEQ_clean_linker_1, # of connection points: 2
#     Edge 77, Type (0, 0), BuildingBlock: KIFKEQ_clean_linker_1, # of connection points: 2
#     Edge 78, Type (0, 0), BuildingBlock: KIFKEQ_clean_linker_1, # of connection points: 2
#     Edge 79, Type (0, 0), BuildingBlock: KIFKEQ_clean_linker_1, # of connection points: 2
#     Edge 80, Type (0, 0), BuildingBlock: KIFKEQ_clean_linker_1, # of connection points: 2
#     Edge 81, Type (0, 0), BuildingBlock: KIFKEQ_clean_linker_1, # of connection points: 2
#     Edge 82, Type (0, 0), BuildingBlock: KIFKEQ_clean_linker_1, # of connection points: 2
#     Edge 83, Type (0, 0), BuildingBlock: KIFKEQ_clean_linker_1, # of connection points: 2
#     Edge 84, Type (0, 0), BuildingBlock: KIFKEQ_clean_linker_1, # of connection points: 2
#     Edge 85, Type (0, 0), BuildingBlock: KIFKEQ_clean_linker_1, # of connection points: 2
#     Edge 86, Type (0, 0), BuildingBlock: KIFKEQ_clean_linker_1, # of connection points: 2
#     Edge 87, Type (0, 0), BuildingBlock: KIFKEQ_clean_linker_1, # of connection points: 2
#     Edge 88, Type (0, 0), BuildingBlock: KIFKEQ_clean_linker_1, # of connection points: 2
#     Edge 89, Type (0, 0), BuildingBlock: KIFKEQ_clean_linker_1, # of connection points: 2
#     Edge 90, Type (0, 0), BuildingBlock: KIFKEQ_clean_linker_1, # of connection points: 2
#     Edge 91, Type (0, 0), BuildingBlock: KIFKEQ_clean_linker_1, # of connection points: 2
#     Edge 92, Type (0, 0), BuildingBlock: KIFKEQ_clean_linker_1, # of connection points: 2
#     Edge 93, Type (0, 0), BuildingBlock: KIFKEQ_clean_linker_1, # of connection points: 2
#     Edge 94, Type (0, 0), BuildingBlock: KIFKEQ_clean_linker_1, # of connection points: 2
#     Edge 95, Type (0, 0), BuildingBlock: KIFKEQ_clean_linker_1, # of connection points: 2
#     Edge 96, Type (0, 0), BuildingBlock: KIFKEQ_clean_linker_1, # of connection points: 2
#     Edge 97, Type (0, 0), BuildingBlock: KIFKEQ_clean_linker_1, # of connection points: 2
#     Edge 98, Type (0, 0), BuildingBlock: KIFKEQ_clean_linker_1, # of connection points: 2
#     Edge 99, Type (0, 0), BuildingBlock: KIFKEQ_clean_linker_1, # of connection points: 2
#     Edge 100, Type (0, 0), BuildingBlock: KIFKEQ_clean_linker_1, # of connection points: 2
#     Edge 101, Type (0, 0), BuildingBlock: KIFKEQ_clean_linker_1, # of connection points: 2
#     Edge 102, Type (0, 0), BuildingBlock: KIFKEQ_clean_linker_1, # of connection points: 2
#     Edge 103, Type (0, 0), BuildingBlock: KIFKEQ_clean_linker_1, # of connection points: 2
#     Edge 104, Type (0, 0), BuildingBlock: KIFKEQ_clean_linker_1, # of connection points: 2
#     Edge 105, Type (0, 0), BuildingBlock: KIFKEQ_clean_linker_1, # of connection points: 2
#     Edge 106, Type (0, 0), BuildingBlock: KIFKEQ_clean_linker_1, # of connection points: 2
#     Edge 107, Type (0, 0), BuildingBlock: KIFKEQ_clean_linker_1, # of connection points: 2
#     Edge 108, Type (0, 0), BuildingBlock: KIFKEQ_clean_linker_1, # of connection points: 2
#     Edge 109, Type (0, 0), BuildingBlock: KIFKEQ_clean_linker_1, # of connection points: 2
#     Edge 110, Type (0, 0), BuildingBlock: KIFKEQ_clean_linker_1, # of connection points: 2
#     Edge 111, Type (0, 0), BuildingBlock: KIFKEQ_clean_linker_1, # of connection points: 2
#     Edge 112, Type (0, 0), BuildingBlock: KIFKEQ_clean_linker_1, # of connection points: 2
#     Edge 113, Type (0, 0), BuildingBlock: KIFKEQ_clean_linker_1, # of connection points: 2
#     Edge 114, Type (0, 0), BuildingBlock: KIFKEQ_clean_linker_1, # of connection points: 2
#     Edge 115, Type (0, 0), BuildingBlock: KIFKEQ_clean_linker_1, # of connection points: 2
#     Edge 116, Type (0, 0), BuildingBlock: KIFKEQ_clean_linker_1, # of connection points: 2
#     Edge 117, Type (0, 0), BuildingBlock: KIFKEQ_clean_linker_1, # of connection points: 2
#     Edge 118, Type (0, 0), BuildingBlock: KIFKEQ_clean_linker_1, # of connection points: 2
#     Edge 119, Type (0, 0), BuildingBlock: KIFKEQ_clean_linker_1, # of connection points: 2
#     Edge 120, Type (0, 0), BuildingBlock: KIFKEQ_clean_linker_1, # of connection points: 2
#     Edge 121, Type (0, 0), BuildingBlock: KIFKEQ_clean_linker_1, # of connection points: 2
#     Edge 122, Type (0, 0), BuildingBlock: KIFKEQ_clean_linker_1, # of connection points: 2
#     Edge 123, Type (0, 0), BuildingBlock: KIFKEQ_clean_linker_1, # of connection points: 2
#     Edge 124, Type (0, 0), BuildingBlock: KIFKEQ_clean_linker_1, # of connection points: 2
#     Edge 125, Type (0, 0), BuildingBlock: KIFKEQ_clean_linker_1, # of connection points: 2
#     Edge 126, Type (0, 0), BuildingBlock: KIFKEQ_clean_linker_1, # of connection points: 2
#     Edge 127, Type (0, 0), BuildingBlock: KIFKEQ_clean_linker_1, # of connection points: 2
#     Edge 128, Type (0, 0), BuildingBlock: KIFKEQ_clean_linker_1, # of connection points: 2
#     Edge 129, Type (0, 0), BuildingBlock: KIFKEQ_clean_linker_1, # of connection points: 2
#     Edge 130, Type (0, 0), BuildingBlock: KIFKEQ_clean_linker_1, # of connection points: 2
#     Edge 131, Type (0, 0), BuildingBlock: KIFKEQ_clean_linker_1, # of connection points: 2
#     Edge 132, Type (0, 0), BuildingBlock: KIFKEQ_clean_linker_1, # of connection points: 2
#     Edge 133, Type (0, 0), BuildingBlock: KIFKEQ_clean_linker_1, # of connection points: 2
#     Edge 134, Type (0, 0), BuildingBlock: KIFKEQ_clean_linker_1, # of connection points: 2
#     Edge 135, Type (0, 0), BuildingBlock: KIFKEQ_clean_linker_1, # of connection points: 2
#     Edge 136, Type (0, 0), BuildingBlock: KIFKEQ_clean_linker_1, # of connection points: 2
#     Edge 137, Type (0, 0), BuildingBlock: KIFKEQ_clean_linker_1, # of connection points: 2
#     Edge 138, Type (0, 0), BuildingBlock: KIFKEQ_clean_linker_1, # of connection points: 2
#     Edge 139, Type (0, 0), BuildingBlock: KIFKEQ_clean_linker_1, # of connection points: 2
#     Edge 140, Type (0, 0), BuildingBlock: KIFKEQ_clean_linker_1, # of connection points: 2
#     Edge 141, Type (0, 0), BuildingBlock: KIFKEQ_clean_linker_1, # of connection points: 2
#     Edge 142, Type (0, 0), BuildingBlock: KIFKEQ_clean_linker_1, # of connection points: 2
#     Edge 143, Type (0, 0), BuildingBlock: KIFKEQ_clean_linker_1, # of connection points: 2
# Relax obj value: 0.015
# Max RMSD: 0.045
# Mean RMSD: 0.045
data_MOF--net-ull--node1-GALJAG_clean_sbu_0--edge1-KIFKEQ_clean_linker_1
_symmetry_space_group_name_H-M    P1
_symmetry_Int_Tables_number       1
_symmetry_cell_setting            triclinic
loop_
_symmetry_equiv_pos_as_xyz
'x, y, z'
_cell_length_a     62.823191
_cell_length_b     62.794003
_cell_length_c     62.822078
_cell_angle_alpha  90.007584
_cell_angle_beta   90.024229
_cell_angle_gamma 90.001522
loop_
_atom_site_label
_atom_site_type_symbol
_atom_site_fract_x
_atom_site_fract_y
_atom_site_fract_z
_atom_type_partial_charge
In0 In 0.02553 0.34302 0.17173 0.0
O1 O 0.02861 0.30884 0.18402 0.0
O2 O 0.01075 0.33093 0.20244 0.0
C3 C 0.05321 0.34316 0.139 0.0
C4 C 0.0452 0.37157 0.19698 0.0
C5 C 0.98833 0.3442 0.15031 0.0
O6 O 0.05184 0.32777 0.1519 0.0
O7 O 0.04048 0.35832 0.14254 0.0
O8 O 0.99536 0.36024 0.16026 0.0
O9 O 0.99996 0.32789 0.15138 0.0
C10 C 0.01764 0.31216 0.20054 0.0
O11 O 0.02594 0.37386 0.19152 0.0
O12 O 0.05416 0.35517 0.18965 0.0
In13 In 0.6568 0.02496 0.17237 0.0
O14 O 0.62915 0.01952 0.19576 0.0
O15 O 0.63897 0.05129 0.1894 0.0
C16 C 0.65556 0.98974 0.14781 0.0
C17 C 0.68924 0.0186 0.19994 0.0
C18 C 0.65618 0.05353 0.14046 0.0
O19 O 0.63969 0.9957 0.15866 0.0
O20 O 0.67171 0.00153 0.14938 0.0
O21 O 0.67312 0.0487 0.15022 0.0
O22 O 0.6397 0.04389 0.14676 0.0
C23 C 0.62647 0.03914 0.19929 0.0
O24 O 0.68723 0.03574 0.18961 0.0
O25 O 0.67493 0.00501 0.19643 0.0
In26 In 0.97537 0.65605 0.17286 0.0
O27 O 0.96573 0.68917 0.1854 0.0
O28 O 0.9906 0.67256 0.20113 0.0
C29 C 0.94861 0.6588 0.1394 0.0
C30 C 0.96179 0.62276 0.19687 0.0
C31 C 0.01276 0.65488 0.15189 0.0
O32 O 0.94433 0.66726 0.15717 0.0
O33 O 0.96632 0.64939 0.13858 0.0
O34 O 0.0028 0.63814 0.15696 0.0
O35 O 0.00392 0.67202 0.15747 0.0
C36 C 0.97949 0.68921 0.20008 0.0
O37 O 0.98051 0.62986 0.19797 0.0
O38 O 0.95017 0.63215 0.18356 0.0
In39 In 0.34056 0.97541 0.1729 0.0
O40 O 0.37208 0.9744 0.19165 0.0
O41 O 0.35212 0.94706 0.19163 0.0
C42 C 0.34334 0.01345 0.15331 0.0
C43 C 0.30963 0.98387 0.20133 0.0
C44 C 0.33904 0.94868 0.13924 0.0
O45 O 0.35967 0.00342 0.15949 0.0
O46 O 0.32584 0.00445 0.15731 0.0
O47 O 0.32601 0.94738 0.15448 0.0
O48 O 0.35243 0.96351 0.14088 0.0
C49 C 0.3691 0.95555 0.19809 0.0
O50 O 0.30594 0.97416 0.18407 0.0
O51 O 0.32879 0.98927 0.20409 0.0
In52 In 0.02548 0.65982 0.82764 0.0
O53 O 0.02525 0.62978 0.80649 0.0
O54 O 0.05348 0.64833 0.80835 0.0
C55 C 0.98905 0.65779 0.85015 0.0
C56 C 0.01711 0.69247 0.80095 0.0
C57 C 0.05287 0.65848 0.86062 0.0
O58 O 0.99543 0.64236 0.83886 0.0
O59 O 0.001 0.67393 0.84992 0.0
O60 O 0.05038 0.67493 0.84929 0.0
O61 O 0.04143 0.6428 0.85538 0.0
C62 C 0.04437 0.63219 0.80069 0.0
O63 O 0.03221 0.69301 0.81421 0.0
O64 O 0.00639 0.67548 0.8011 0.0
In65 In 0.34181 0.02551 0.8283 0.0
O66 O 0.30812 0.03165 0.81581 0.0
O67 O 0.32418 0.0039 0.8051 0.0
C68 C 0.34427 0.05504 0.85928 0.0
C69 C 0.36822 0.04301 0.79927 0.0
C70 C 0.34573 0.99038 0.85254 0.0
O71 O 0.32711 0.05088 0.84959 0.0
O72 O 0.3602 0.04435 0.85324 0.0
O73 O 0.3568 0.99308 0.83594 0.0
O74 O 0.33295 0.00527 0.85673 0.0
C75 C 0.3076 0.01517 0.80432 0.0
O76 O 0.37317 0.02622 0.80922 0.0
O77 O 0.35024 0.05052 0.80394 0.0
In78 In 0.97547 0.34384 0.82771 0.0
O79 O 0.9717 0.30958 0.81566 0.0
O80 O 0.98818 0.33172 0.7961 0.0
C81 C 0.9491 0.34328 0.86149 0.0
C82 C 0.95649 0.37474 0.80468 0.0
C83 C 0.01323 0.34398 0.84802 0.0
O84 O 0.94685 0.33068 0.84595 0.0
O85 O 0.96468 0.35587 0.86002 0.0
O86 O 0.00569 0.36059 0.83947 0.0
O87 O 0.00189 0.32754 0.84597 0.0
C88 C 0.98162 0.31289 0.7985 0.0
O89 O 0.97636 0.37476 0.80792 0.0
O90 O 0.94663 0.35941 0.81305 0.0
In91 In 0.6614 0.97432 0.82883 0.0
O92 O 0.69396 0.96681 0.81445 0.0
O93 O 0.67753 0.99418 0.80316 0.0
C94 C 0.65952 0.94583 0.86083 0.0
C95 C 0.6341 0.95651 0.80092 0.0
C96 C 0.65941 0.0102 0.85231 0.0
O97 O 0.67688 0.95129 0.85226 0.0
O98 O 0.64319 0.95477 0.85331 0.0
O99 O 0.64424 0.00454 0.84031 0.0
O100 O 0.6752 0.99783 0.85228 0.0
C101 C 0.69394 0.98265 0.80206 0.0
O102 O 0.63072 0.9748 0.8087 0.0
O103 O 0.65106 0.94774 0.80709 0.0
In104 In 0.16991 0.023 0.34392 0.0
O105 O 0.18992 0.02388 0.37468 0.0
O106 O 0.18753 0.05193 0.3558 0.0
C107 C 0.1482 0.98593 0.3452 0.0
C108 C 0.19854 0.01493 0.31291 0.0
C109 C 0.13724 0.05074 0.34409 0.0
O110 O 0.1589 0.99249 0.36095 0.0
O111 O 0.14863 0.99798 0.32917 0.0
O112 O 0.14975 0.04889 0.32844 0.0
O113 O 0.14109 0.03841 0.35951 0.0
C114 C 0.19503 0.04322 0.37225 0.0
O115 O 0.18238 0.02648 0.30985 0.0
O116 O 0.20021 0.00757 0.33152 0.0
In117 In 0.97529 0.17346 0.34294 0.0
O118 O 0.97271 0.18597 0.3089 0.0
O119 O 0.99276 0.20262 0.33058 0.0
C120 C 0.94644 0.1417 0.34346 0.0
C121 C 0.95612 0.20012 0.37054 0.0
C122 C 0.01161 0.15065 0.34433 0.0
O123 O 0.94897 0.15366 0.32749 0.0
O124 O 0.95844 0.14579 0.35904 0.0
O125 O 0.00566 0.16202 0.35985 0.0
O126 O 0.99939 0.15105 0.32843 0.0
C127 C 0.98527 0.20139 0.31197 0.0
O128 O 0.97359 0.19111 0.375 0.0
O129 O 0.94871 0.19563 0.35242 0.0
In130 In 0.82717 0.97734 0.34301 0.0
O131 O 0.80766 0.97725 0.37411 0.0
O132 O 0.80571 0.95054 0.35342 0.0
C133 C 0.84975 0.01368 0.34401 0.0
C134 C 0.80072 0.9871 0.31064 0.0
C135 C 0.85964 0.94938 0.34515 0.0
O136 O 0.83824 0.00789 0.3595 0.0
O137 O 0.84973 0.00116 0.32828 0.0
O138 O 0.84666 0.94957 0.32978 0.0
O139 O 0.85624 0.96326 0.35928 0.0
C140 C 0.79973 0.95908 0.37055 0.0
O141 O 0.81469 0.9727 0.30911 0.0
O142 O 0.80013 0.99642 0.32843 0.0
In143 In 0.02147 0.8275 0.3412 0.0
O144 O 0.02703 0.81507 0.30743 0.0
O145 O 0.99863 0.80577 0.3233 0.0
C146 C 0.05264 0.85701 0.34289 0.0
C147 C 0.03765 0.79754 0.36753 0.0
C148 C 0.98673 0.85224 0.34586 0.0
O149 O 0.04738 0.84784 0.32575 0.0
O150 O 0.04233 0.85111 0.35909 0.0
O151 O 0.98861 0.83465 0.35548 0.0
O152 O 0.00225 0.85718 0.33415 0.0
C153 C 0.00996 0.80445 0.30677 0.0
O154 O 0.02435 0.81119 0.37397 0.0
O155 O 0.04233 0.79899 0.3481 0.0
In156 In 0.17029 0.97439 0.66075 0.0
O157 O 0.18295 0.96798 0.69439 0.0
O158 O 0.19674 0.99327 0.67666 0.0
C159 C 0.13775 0.94676 0.65759 0.0
C160 C 0.19678 0.95616 0.6322 0.0
C161 C 0.14706 0.01038 0.66039 0.0
O162 O 0.15041 0.94669 0.67325 0.0
O163 O 0.14152 0.96074 0.64364 0.0
O164 O 0.16121 0.00675 0.64651 0.0
O165 O 0.14486 0.99599 0.67423 0.0
C166 C 0.19648 0.98285 0.6938 0.0
O167 O 0.18988 0.9749 0.62961 0.0
O168 O 0.19043 0.94714 0.64892 0.0
In169 In 0.02409 0.172 0.65803 0.0
O170 O 0.02596 0.18994 0.62606 0.0
O171 O 0.05232 0.1914 0.64724 0.0
C172 C 0.98619 0.15215 0.65539 0.0
C173 C 0.01457 0.20067 0.68847 0.0
C174 C 0.05072 0.13827 0.66014 0.0
O175 O 0.99581 0.1589 0.63904 0.0
O176 O 0.99557 0.15567 0.6728 0.0
O177 O 0.05183 0.15358 0.67313 0.0
O178 O 0.03621 0.13995 0.6464 0.0
C179 C 0.04443 0.1971 0.6297 0.0
O180 O 0.02506 0.18394 0.69241 0.0
O181 O 0.00899 0.20283 0.66927 0.0
In182 In 0.82917 0.02318 0.65661 0.0
O183 O 0.81098 0.02535 0.62478 0.0
O184 O 0.80483 0.04842 0.64877 0.0
C185 C 0.85223 0.98752 0.64984 0.0
C186 C 0.80516 0.01335 0.69102 0.0
C187 C 0.86043 0.0525 0.65607 0.0
O188 O 0.83409 0.99016 0.64156 0.0
O189 O 0.85864 0.00282 0.66111 0.0
O190 O 0.85351 0.04439 0.67314 0.0
O191 O 0.85161 0.04577 0.63928 0.0
C192 C 0.80081 0.04185 0.63025 0.0
O193 O 0.81632 0.03003 0.69009 0.0
O194 O 0.80638 0.00161 0.67481 0.0
In195 In 0.97445 0.82676 0.65587 0.0
O196 O 0.96835 0.81536 0.68994 0.0
O197 O 0.99601 0.80409 0.67395 0.0
C198 C 0.94455 0.85725 0.65156 0.0
C199 C 0.95859 0.79676 0.62943 0.0
C200 C 0.00979 0.85083 0.6535 0.0
O201 O 0.9464 0.84639 0.66842 0.0
O202 O 0.95754 0.8525 0.637 0.0
O203 O 0.00764 0.83403 0.64258 0.0
O204 O 0.99427 0.85527 0.66544 0.0
C205 C 0.9848 0.80377 0.6906 0.0
O206 O 0.97285 0.80961 0.62341 0.0
O207 O 0.95275 0.79908 0.64846 0.0
In208 In 0.34288 0.17169 0.0257 0.0
O209 O 0.30912 0.18497 0.02922 0.0
O210 O 0.33033 0.20065 0.00802 0.0
C211 C 0.34306 0.13964 0.05418 0.0
C212 C 0.36984 0.19833 0.04569 0.0
C213 C 0.34564 0.14896 0.98934 0.0
O214 O 0.32622 0.14937 0.04902 0.0
O215 O 0.35971 0.14602 0.04491 0.0
O216 O 0.36091 0.16037 0.99585 0.0
O217 O 0.32942 0.14918 0.00111 0.0
C218 C 0.31199 0.19998 0.01615 0.0
O219 O 0.3737 0.19135 0.02718 0.0
O220 O 0.3526 0.19191 0.05374 0.0
In221 In 0.3425 0.82936 0.9755 0.0
O222 O 0.30806 0.81765 0.97223 0.0
O223 O 0.32983 0.79883 0.99005 0.0
C224 C 0.34466 0.86213 0.94809 0.0
C225 C 0.37199 0.80497 0.95619 0.0
C226 C 0.34199 0.85153 0.01216 0.0
O227 O 0.33002 0.8483 0.94711 0.0
O228 O 0.35803 0.85937 0.96286 0.0
O229 O 0.35679 0.83853 0.0079 0.0
O230 O 0.32768 0.85297 0.99816 0.0
C231 C 0.31112 0.80103 0.98315 0.0
O232 O 0.37424 0.81091 0.97532 0.0
O233 O 0.35517 0.81133 0.94729 0.0
In234 In 0.1723 0.34186 0.97456 0.0
O235 O 0.18443 0.30758 0.97182 0.0
O236 O 0.20331 0.32993 0.98888 0.0
C237 C 0.13955 0.34178 0.94689 0.0
C238 C 0.19712 0.37073 0.95483 0.0
C239 C 0.15083 0.34322 0.01171 0.0
O240 O 0.15275 0.32662 0.94796 0.0
O241 O 0.14278 0.35675 0.95991 0.0
O242 O 0.16046 0.35934 0.00442 0.0
O243 O 0.1523 0.32672 0.0004 0.0
C244 C 0.20119 0.31104 0.98239 0.0
O245 O 0.19227 0.3726 0.97429 0.0
O246 O 0.18948 0.35454 0.94573 0.0
In247 In 0.65715 0.17189 0.97593 0.0
O248 O 0.62747 0.19337 0.97521 0.0
O249 O 0.64479 0.18848 0.94653 0.0
C250 C 0.65404 0.15234 0.01409 0.0
C251 C 0.68848 0.2004 0.98272 0.0
C252 C 0.65845 0.138 0.94956 0.0
O253 O 0.63779 0.15774 0.00354 0.0
O254 O 0.67154 0.15708 0.00556 0.0
O255 O 0.67383 0.15087 0.95127 0.0
O256 O 0.64272 0.14211 0.96132 0.0
C257 C 0.62921 0.19734 0.95555 0.0
O258 O 0.69167 0.18307 0.97296 0.0
O259 O 0.66956 0.20327 0.98888 0.0
In260 In 0.8291 0.65805 0.97517 0.0
O261 O 0.81111 0.62608 0.97395 0.0
O262 O 0.80861 0.64742 0.94773 0.0
C263 C 0.85237 0.65719 0.01123 0.0
C264 C 0.80107 0.68924 0.98453 0.0
C265 C 0.86072 0.65701 0.94634 0.0
O266 O 0.83868 0.64298 0.00716 0.0
O267 O 0.85408 0.67149 0.99726 0.0
O268 O 0.84872 0.67303 0.94863 0.0
O269 O 0.85673 0.64158 0.95862 0.0
C270 C 0.80336 0.62977 0.95572 0.0
O271 O 0.81662 0.6922 0.97214 0.0
O272 O 0.7998 0.6707 0.99213 0.0
In273 In 0.65764 0.82732 0.02502 0.0
O274 O 0.69203 0.81588 0.02746 0.0
O275 O 0.66999 0.79703 0.00977 0.0
C276 C 0.65772 0.8609 0.05189 0.0
C277 C 0.63115 0.80032 0.04523 0.0
C278 C 0.65502 0.84709 0.98703 0.0
O279 O 0.67362 0.84875 0.04987 0.0
O280 O 0.64202 0.85612 0.04034 0.0
O281 O 0.63867 0.84019 0.99651 0.0
O282 O 0.67234 0.84382 0.99659 0.0
C283 C 0.68884 0.79933 0.01641 0.0
O284 O 0.62658 0.80802 0.02718 0.0
O285 O 0.64872 0.80639 0.0528 0.0
In286 In 0.17181 0.65923 0.02551 0.0
O287 O 0.19152 0.62842 0.02659 0.0
O288 O 0.19229 0.64936 0.05329 0.0
C289 C 0.14879 0.65698 0.98932 0.0
C290 C 0.19991 0.69024 0.01603 0.0
C291 C 0.13982 0.65858 0.05398 0.0
O292 O 0.15996 0.64148 0.99569 0.0
O293 O 0.14944 0.67319 0.0011 0.0
O294 O 0.14957 0.67552 0.04918 0.0
O295 O 0.14619 0.6421 0.04441 0.0
C296 C 0.19867 0.63217 0.04507 0.0
O297 O 0.18502 0.69298 0.02926 0.0
O298 O 0.20057 0.67196 0.00772 0.0
In299 In 0.82882 0.3415 0.02472 0.0
O300 O 0.8166 0.30714 0.02709 0.0
O301 O 0.79997 0.32875 0.00708 0.0
C302 C 0.86016 0.34275 0.05386 0.0
C303 C 0.80289 0.36941 0.04436 0.0
C304 C 0.85259 0.3436 0.9891 0.0
O305 O 0.84846 0.32653 0.05133 0.0
O306 O 0.85601 0.35821 0.04167 0.0
O307 O 0.83804 0.357 0.9929 0.0
O308 O 0.85488 0.32939 0.00308 0.0
C309 C 0.80123 0.31014 0.01448 0.0
O310 O 0.81073 0.37334 0.02622 0.0
O311 O 0.80809 0.35165 0.05214 0.0
In312 In 0.52539 0.8438 0.67239 0.0
O313 O 0.5255 0.87434 0.69295 0.0
O314 O 0.5541 0.85658 0.68969 0.0
C315 C 0.48915 0.84527 0.64945 0.0
C316 C 0.51694 0.81257 0.70071 0.0
C317 C 0.55277 0.84331 0.63946 0.0
O318 O 0.49572 0.86115 0.65998 0.0
O319 O 0.50077 0.82893 0.65071 0.0
O320 O 0.55042 0.82752 0.65173 0.0
O321 O 0.54111 0.85914 0.64368 0.0
C322 C 0.54503 0.87263 0.69754 0.0
O323 O 0.53189 0.81123 0.68735 0.0
O324 O 0.5064 0.82964 0.69983 0.0
In325 In 0.15739 0.52533 0.67069 0.0
O326 O 0.12629 0.52662 0.69001 0.0
O327 O 0.14625 0.55402 0.68917 0.0
C328 C 0.15564 0.48801 0.64947 0.0
C329 C 0.18837 0.51694 0.69926 0.0
C330 C 0.1572 0.55299 0.63791 0.0
O331 O 0.14 0.49489 0.66014 0.0
O332 O 0.17179 0.4999 0.64967 0.0
O333 O 0.17289 0.55114 0.65039 0.0
O334 O 0.14177 0.54073 0.64188 0.0
C335 C 0.12931 0.54565 0.69594 0.0
O336 O 0.19164 0.52808 0.68285 0.0
O337 O 0.16958 0.51014 0.7012 0.0
In338 In 0.47373 0.15672 0.67026 0.0
O339 O 0.47063 0.19114 0.68219 0.0
O340 O 0.48645 0.16869 0.70193 0.0
C341 C 0.44766 0.15742 0.63622 0.0
C342 C 0.45437 0.1261 0.6933 0.0
C343 C 0.51155 0.15579 0.65012 0.0
O344 O 0.44542 0.17016 0.65165 0.0
O345 O 0.46302 0.14458 0.63797 0.0
O346 O 0.50383 0.13943 0.65898 0.0
O347 O 0.50035 0.17238 0.65179 0.0
C348 C 0.48039 0.18766 0.69943 0.0
O349 O 0.47427 0.12604 0.69034 0.0
O350 O 0.4446 0.14134 0.68464 0.0
In351 In 0.84285 0.4773 0.67231 0.0
O352 O 0.87386 0.47742 0.692 0.0
O353 O 0.85352 0.45039 0.69346 0.0
C354 C 0.84394 0.51337 0.64915 0.0
C355 C 0.81106 0.48615 0.69977 0.0
C356 C 0.8439 0.4491 0.63999 0.0
O357 O 0.85953 0.50761 0.66057 0.0
O358 O 0.82816 0.50097 0.64956 0.0
O359 O 0.82724 0.45267 0.65069 0.0
O360 O 0.85996 0.45982 0.64557 0.0
C361 C 0.87051 0.45908 0.69962 0.0
O362 O 0.81032 0.47054 0.6871 0.0
O363 O 0.82777 0.49723 0.69854 0.0
In364 In 0.52631 0.15447 0.3267 0.0
O365 O 0.52199 0.12557 0.30476 0.0
O366 O 0.55326 0.13322 0.31512 0.0
C367 C 0.48818 0.15448 0.34648 0.0
C368 C 0.52253 0.18615 0.29766 0.0
C369 C 0.55314 0.15548 0.36018 0.0
O370 O 0.4962 0.13772 0.33875 0.0
O371 O 0.49924 0.17103 0.34392 0.0
O372 O 0.55691 0.16559 0.34318 0.0
O373 O 0.53597 0.14505 0.36019 0.0
C374 C 0.54158 0.12113 0.30418 0.0
O375 O 0.53071 0.1892 0.31577 0.0
O376 O 0.5168 0.16725 0.29421 0.0
In377 In 0.84731 0.52222 0.32625 0.0
O378 O 0.87538 0.51817 0.30307 0.0
O379 O 0.86586 0.54949 0.31144 0.0
C380 C 0.848 0.48558 0.3486 0.0
C381 C 0.81582 0.51626 0.29762 0.0
C382 C 0.84536 0.54943 0.35935 0.0
O383 O 0.86486 0.49444 0.34214 0.0
O384 O 0.83105 0.49519 0.34381 0.0
O385 O 0.83025 0.54747 0.34618 0.0
O386 O 0.86118 0.53753 0.35589 0.0
C387 C 0.87837 0.53792 0.30092 0.0
O388 O 0.81589 0.53188 0.31031 0.0
O389 O 0.83166 0.50404 0.29924 0.0
In390 In 0.47412 0.8428 0.32894 0.0
O391 O 0.4714 0.80793 0.31857 0.0
O392 O 0.49391 0.82779 0.30284 0.0
C393 C 0.4425 0.84504 0.35784 0.0
C394 C 0.45795 0.86933 0.29938 0.0
C395 C 0.5092 0.8456 0.3535 0.0
O396 O 0.44629 0.82829 0.34732 0.0
O397 O 0.45448 0.8606 0.35354 0.0
O398 O 0.50676 0.8571 0.33717 0.0
O399 O 0.49408 0.83299 0.35727 0.0
C400 C 0.48547 0.80962 0.30428 0.0
O401 O 0.47137 0.87569 0.31299 0.0
O402 O 0.45283 0.84999 0.30095 0.0
In403 In 0.15758 0.47613 0.32934 0.0
O404 O 0.1916 0.47298 0.3167 0.0
O405 O 0.1697 0.49198 0.29921 0.0
C406 C 0.15728 0.44836 0.36203 0.0
C407 C 0.12967 0.45626 0.30356 0.0
C408 C 0.15606 0.51317 0.35101 0.0
O409 O 0.17324 0.45065 0.34998 0.0
O410 O 0.14162 0.46016 0.35763 0.0
O411 O 0.14021 0.50626 0.34068 0.0
O412 O 0.17233 0.50147 0.35022 0.0
C413 C 0.18835 0.48471 0.30068 0.0
O414 O 0.12667 0.47522 0.30973 0.0
O415 O 0.14646 0.44769 0.31045 0.0
In416 In 0.67179 0.52524 0.84246 0.0
O417 O 0.69254 0.52471 0.87281 0.0
O418 O 0.68976 0.55354 0.8553 0.0
C419 C 0.64921 0.48877 0.84324 0.0
C420 C 0.7 0.51741 0.81103 0.0
C421 C 0.63857 0.55234 0.84272 0.0
O422 O 0.65958 0.49519 0.85928 0.0
O423 O 0.65041 0.50067 0.82712 0.0
O424 O 0.65041 0.54995 0.82662 0.0
O425 O 0.64345 0.54095 0.85856 0.0
C426 C 0.69763 0.54413 0.87116 0.0
O427 O 0.68679 0.53255 0.81009 0.0
O428 O 0.69898 0.50638 0.82778 0.0
In429 In 0.47477 0.67286 0.84223 0.0
O430 O 0.46819 0.68808 0.8098 0.0
O431 O 0.49467 0.69937 0.82761 0.0
C432 C 0.4469 0.64026 0.8426 0.0
C433 C 0.45628 0.69937 0.87053 0.0
C434 C 0.51069 0.64949 0.84349 0.0
O435 O 0.4498 0.65178 0.82635 0.0
O436 O 0.45812 0.64516 0.85854 0.0
O437 O 0.50467 0.66057 0.85921 0.0
O438 O 0.49866 0.65038 0.82743 0.0
C439 C 0.48374 0.70078 0.81083 0.0
O440 O 0.4752 0.69293 0.87301 0.0
O441 O 0.44717 0.69247 0.85405 0.0
In442 In 0.32821 0.47518 0.84098 0.0
O443 O 0.31581 0.47247 0.80682 0.0
O444 O 0.2983 0.49141 0.82875 0.0
C445 C 0.36044 0.4469 0.84148 0.0
C446 C 0.30224 0.45561 0.86892 0.0
C447 C 0.35051 0.51183 0.84251 0.0
O448 O 0.34803 0.44881 0.82575 0.0
O449 O 0.35663 0.45933 0.85681 0.0
O450 O 0.33972 0.50532 0.85822 0.0
O451 O 0.34982 0.49996 0.82635 0.0
C452 C 0.29984 0.48428 0.81004 0.0
O453 O 0.30887 0.47438 0.87208 0.0
O454 O 0.30876 0.44709 0.85195 0.0
In455 In 0.52488 0.32774 0.84027 0.0
O456 O 0.52759 0.31489 0.80624 0.0
O457 O 0.50844 0.29784 0.82836 0.0
C458 C 0.55255 0.36053 0.84075 0.0
C459 C 0.5448 0.30206 0.86827 0.0
C460 C 0.48803 0.34964 0.84175 0.0
O461 O 0.55087 0.3481 0.82499 0.0
O462 O 0.54022 0.35642 0.85607 0.0
O463 O 0.49485 0.33926 0.85761 0.0
O464 O 0.49971 0.34875 0.82546 0.0
C465 C 0.51556 0.2991 0.80963 0.0
O466 O 0.52597 0.3085 0.8714 0.0
O467 O 0.55322 0.30859 0.85125 0.0
In468 In 0.67337 0.4755 0.15852 0.0
O469 O 0.69348 0.47529 0.12781 0.0
O470 O 0.69181 0.44714 0.14656 0.0
C471 C 0.65088 0.51193 0.15722 0.0
C472 C 0.70166 0.48447 0.18959 0.0
C473 C 0.64023 0.4483 0.15843 0.0
O474 O 0.66158 0.50551 0.14141 0.0
O475 O 0.65164 0.5 0.17336 0.0
O476 O 0.6521 0.45077 0.17451 0.0
O477 O 0.64503 0.45967 0.14256 0.0
C478 C 0.69906 0.45608 0.13015 0.0
O479 O 0.68848 0.46935 0.19111 0.0
O480 O 0.70059 0.49487 0.17246 0.0
In481 In 0.52559 0.67164 0.16121 0.0
O482 O 0.52783 0.68887 0.12898 0.0
O483 O 0.55015 0.6966 0.15331 0.0
C484 C 0.48912 0.6491 0.15944 0.0
C485 C 0.51542 0.69814 0.19329 0.0
C486 C 0.55517 0.64056 0.15946 0.0
O487 O 0.49465 0.66148 0.14455 0.0
O488 O 0.5019 0.64828 0.17488 0.0
O489 O 0.55266 0.65212 0.17573 0.0
O490 O 0.54284 0.64475 0.14418 0.0
C491 C 0.54367 0.69998 0.13461 0.0
O492 O 0.52798 0.68261 0.1958 0.0
O493 O 0.50795 0.7001 0.17472 0.0
In494 In 0.32814 0.52504 0.15864 0.0
O495 O 0.31549 0.52846 0.19262 0.0
O496 O 0.29755 0.50993 0.17066 0.0
C497 C 0.36105 0.55249 0.1587 0.0
C498 C 0.30314 0.54523 0.13021 0.0
C499 C 0.34975 0.48791 0.15762 0.0
O500 O 0.34848 0.55071 0.17431 0.0
O501 O 0.35708 0.5403 0.14321 0.0
O502 O 0.33995 0.49491 0.14147 0.0
O503 O 0.34839 0.4995 0.17393 0.0
C504 C 0.2992 0.51712 0.18934 0.0
O505 O 0.30821 0.52586 0.12787 0.0
O506 O 0.31064 0.554 0.14664 0.0
In507 In 0.47595 0.32843 0.15977 0.0
O508 O 0.47382 0.31493 0.19364 0.0
O509 O 0.49352 0.299 0.17118 0.0
C510 C 0.44772 0.3607 0.15953 0.0
C511 C 0.45589 0.30282 0.13182 0.0
C512 C 0.51215 0.35139 0.15819 0.0
O513 O 0.44967 0.34826 0.17527 0.0
O514 O 0.46009 0.35689 0.14416 0.0
O515 O 0.50571 0.34062 0.14241 0.0
O516 O 0.50041 0.35037 0.17443 0.0
C517 C 0.48644 0.29968 0.18996 0.0
O518 O 0.47478 0.30908 0.12868 0.0
O519 O 0.44753 0.30941 0.14884 0.0
In520 In 0.84097 0.67171 0.5217 0.0
O521 O 0.80699 0.68452 0.52404 0.0
O522 O 0.82874 0.7004 0.50344 0.0
C523 C 0.84178 0.64026 0.55091 0.0
C524 C 0.86828 0.69878 0.54069 0.0
C525 C 0.84255 0.64867 0.48553 0.0
O526 O 0.82562 0.65194 0.54814 0.0
O527 O 0.85734 0.64445 0.53894 0.0
O528 O 0.8579 0.66033 0.49139 0.0
O529 O 0.82669 0.64884 0.49782 0.0
C530 C 0.81016 0.69957 0.51103 0.0
O531 O 0.87312 0.68914 0.52367 0.0
O532 O 0.84993 0.6947 0.54776 0.0
In533 In 0.84132 0.32807 0.47667 0.0
O534 O 0.80886 0.31349 0.46959 0.0
O535 O 0.8241 0.30499 0.49866 0.0
C536 C 0.8425 0.3582 0.44604 0.0
C537 C 0.86784 0.29813 0.4611 0.0
C538 C 0.84431 0.35239 0.51192 0.0
O539 O 0.82527 0.35085 0.4533 0.0
O540 O 0.85908 0.35018 0.45401 0.0
O541 O 0.85792 0.33814 0.50774 0.0
O542 O 0.82963 0.35422 0.49839 0.0
C543 C 0.80816 0.30278 0.4866 0.0
O544 O 0.87397 0.31147 0.47491 0.0
O545 O 0.84866 0.30001 0.45551 0.0
In546 In 0.6716 0.84401 0.47524 0.0
O547 O 0.69194 0.87454 0.47645 0.0
O548 O 0.68553 0.86027 0.44642 0.0
C549 C 0.65172 0.84411 0.51324 0.0
C550 C 0.70059 0.81265 0.48029 0.0
C551 C 0.63757 0.84393 0.44919 0.0
O552 O 0.66047 0.86064 0.50577 0.0
O553 O 0.65343 0.82774 0.50174 0.0
O554 O 0.653 0.83124 0.44668 0.0
O555 O 0.6393 0.8564 0.46485 0.0
C556 C 0.6945 0.87512 0.45649 0.0
O557 O 0.68296 0.80957 0.47113 0.0
O558 O 0.70355 0.83145 0.48668 0.0
In559 In 0.15766 0.67428 0.47486 0.0
O560 O 0.19171 0.68684 0.47227 0.0
O561 O 0.17001 0.70344 0.49233 0.0
C562 C 0.15682 0.64241 0.4461 0.0
C563 C 0.12996 0.70089 0.45577 0.0
C564 C 0.15651 0.65165 0.51131 0.0
O565 O 0.17278 0.65447 0.44834 0.0
O566 O 0.14144 0.64647 0.45836 0.0
O567 O 0.14102 0.66313 0.50545 0.0
O568 O 0.17227 0.65183 0.4989 0.0
C569 C 0.18862 0.70226 0.48484 0.0
O570 O 0.12549 0.69168 0.47312 0.0
O571 O 0.14815 0.69663 0.44842 0.0
In572 In 0.3286 0.15919 0.47178 0.0
O573 O 0.30972 0.12763 0.47166 0.0
O574 O 0.30615 0.14896 0.44567 0.0
C575 C 0.35277 0.15689 0.50715 0.0
C576 C 0.30307 0.19245 0.4814 0.0
C577 C 0.35996 0.15728 0.4427 0.0
O578 O 0.33725 0.14442 0.50406 0.0
O579 O 0.35593 0.17025 0.4925 0.0
O580 O 0.34914 0.17396 0.44585 0.0
O581 O 0.35494 0.14159 0.45425 0.0
C582 C 0.30102 0.13142 0.45391 0.0
O583 O 0.31537 0.19259 0.46552 0.0
O584 O 0.30376 0.17567 0.49238 0.0
In585 In 0.15864 0.32745 0.52546 0.0
O586 O 0.19196 0.31435 0.53142 0.0
O587 O 0.17538 0.30379 0.50376 0.0
C588 C 0.15659 0.35777 0.5559 0.0
C589 C 0.13221 0.29729 0.54097 0.0
C590 C 0.15686 0.35137 0.48989 0.0
O591 O 0.17338 0.34741 0.55209 0.0
O592 O 0.14086 0.35269 0.54452 0.0
O593 O 0.14269 0.33773 0.49423 0.0
O594 O 0.17158 0.35284 0.50346 0.0
C595 C 0.19207 0.30278 0.51494 0.0
O596 O 0.12609 0.31052 0.52708 0.0
O597 O 0.15128 0.29942 0.54674 0.0
In598 In 0.67159 0.15749 0.52519 0.0
O599 O 0.68527 0.19054 0.53225 0.0
O600 O 0.69825 0.17323 0.50632 0.0
C601 C 0.63921 0.1564 0.55312 0.0
C602 C 0.69718 0.12851 0.54403 0.0
C603 C 0.64821 0.15599 0.48922 0.0
O604 O 0.65092 0.17261 0.55075 0.0
O605 O 0.64375 0.14079 0.54124 0.0
O606 O 0.66221 0.14212 0.49335 0.0
O607 O 0.64618 0.17035 0.5031 0.0
C608 C 0.69857 0.19007 0.51723 0.0
O609 O 0.69162 0.12662 0.52478 0.0
O610 O 0.69007 0.14482 0.55326 0.0
In611 In 0.32796 0.84491 0.52513 0.0
O612 O 0.31598 0.8106 0.52819 0.0
O613 O 0.29717 0.83261 0.51065 0.0
C614 C 0.36126 0.84511 0.55222 0.0
C615 C 0.30279 0.87311 0.54546 0.0
C616 C 0.34844 0.84639 0.48741 0.0
O617 O 0.34855 0.82957 0.55083 0.0
O618 O 0.35724 0.86042 0.53982 0.0
O619 O 0.33826 0.86222 0.49457 0.0
O620 O 0.34814 0.83018 0.49922 0.0
C621 C 0.29931 0.81382 0.51741 0.0
O622 O 0.30836 0.87588 0.5263 0.0
O623 O 0.30996 0.85641 0.55399 0.0
H624 H 0.13045 0.41427 0.29395 0.0
H625 H 0.0964 0.4724 0.28008 0.0
H626 H 0.10883 0.39528 0.26821 0.0
H627 H 0.07487 0.45332 0.25361 0.0
H628 H 0.02854 0.40334 0.22211 0.0
H629 H 0.04772 0.42496 0.24844 0.0
H630 H 0.10664 0.39463 0.23002 0.0
H631 H 0.08758 0.37288 0.20443 0.0
C632 C 0.11831 0.42302 0.28535 0.0
C633 C 0.11525 0.44487 0.28887 0.0
C634 C 0.10599 0.41214 0.27048 0.0
C635 C 0.09039 0.42286 0.25854 0.0
C636 C 0.08676 0.44461 0.26256 0.0
C637 C 0.0991 0.45554 0.27765 0.0
C638 C 0.04561 0.40148 0.22366 0.0
C639 C 0.05654 0.38626 0.21143 0.0
C640 C 0.05659 0.41388 0.23866 0.0
C641 C 0.07865 0.41124 0.24159 0.0
C642 C 0.08958 0.39666 0.2286 0.0
C643 C 0.07866 0.38427 0.21382 0.0
H644 H 0.60623 0.07707 0.19668 0.0
H645 H 0.6109 0.02047 0.23542 0.0
H646 H 0.58214 0.09303 0.22276 0.0
H647 H 0.58729 0.03692 0.26203 0.0
H648 H 0.57911 0.10022 0.30929 0.0
H649 H 0.5965 0.07635 0.28383 0.0
H650 H 0.54244 0.08162 0.24183 0.0
H651 H 0.52463 0.10496 0.26763 0.0
C652 C 0.6019 0.06799 0.21069 0.0
C653 C 0.61038 0.04759 0.21411 0.0
C654 C 0.58807 0.07706 0.2255 0.0
C655 C 0.58289 0.06611 0.24425 0.0
C656 C 0.59102 0.04554 0.24757 0.0
C657 C 0.60444 0.03618 0.2324 0.0
C658 C 0.57073 0.09585 0.29486 0.0
C659 C 0.55058 0.10443 0.29036 0.0
C660 C 0.58062 0.08215 0.2804 0.0
C661 C 0.57072 0.07721 0.261 0.0
C662 C 0.55026 0.08516 0.25679 0.0
C663 C 0.54012 0.09845 0.27152 0.0
H664 H 0.97731 0.61084 0.23564 0.0
H665 H 0.92709 0.59768 0.19056 0.0
H666 H 0.96018 0.58715 0.26152 0.0
H667 H 0.91035 0.57363 0.2162 0.0
H668 H 0.89543 0.52023 0.26501 0.0
H669 H 0.91901 0.53773 0.23915 0.0
H670 H 0.92126 0.59363 0.27905 0.0
H671 H 0.89731 0.57651 0.30446 0.0
C672 C 0.96293 0.60248 0.23109 0.0
C673 C 0.95343 0.60615 0.21118 0.0
C674 C 0.95314 0.58901 0.24588 0.0
C675 C 0.93402 0.57861 0.24076 0.0
C676 C 0.9252 0.58132 0.22041 0.0
C677 C 0.93471 0.59515 0.20582 0.0
C678 C 0.90126 0.53612 0.26835 0.0
C679 C 0.89453 0.5471 0.28662 0.0
C680 C 0.91466 0.5461 0.25359 0.0
C681 C 0.92195 0.56694 0.25724 0.0
C682 C 0.91601 0.57747 0.27601 0.0
C683 C 0.90224 0.56774 0.29046 0.0
H684 H 0.43835 0.85674 0.26323 0.0
H685 H 0.4558 0.91303 0.29863 0.0
H686 H 0.41924 0.87853 0.23768 0.0
H687 H 0.43582 0.93506 0.27328 0.0
H688 H 0.40833 0.9684 0.21291 0.0
H689 H 0.43234 0.94839 0.23641 0.0
H690 H 0.3863 0.89733 0.23945 0.0
H691 H 0.36293 0.91681 0.21581 0.0
C692 C 0.4381 0.87384 0.26552 0.0
C693 C 0.4483 0.88319 0.28306 0.0
C694 C 0.42705 0.88634 0.25093 0.0
C695 C 0.4256 0.90851 0.25368 0.0
C696 C 0.43667 0.91803 0.27069 0.0
C697 C 0.44802 0.90545 0.28524 0.0
C698 C 0.40348 0.95286 0.21859 0.0
C699 C 0.38385 0.94409 0.21239 0.0
C700 C 0.41715 0.94146 0.23211 0.0
C701 C 0.41136 0.92114 0.23959 0.0
C702 C 0.39155 0.91267 0.23357 0.0
C703 C 0.37804 0.92393 0.2201 0.0
H704 H 0.09571 0.53014 0.71938 0.0
H705 H 0.12998 0.58786 0.70445 0.0
H706 H 0.07387 0.54992 0.74506 0.0
H707 H 0.10804 0.60754 0.72936 0.0
H708 H 0.08663 0.63117 0.79271 0.0
H709 H 0.10564 0.60911 0.76742 0.0
H710 H 0.04672 0.57842 0.74951 0.0
H711 H 0.02757 0.60038 0.7756 0.0
C712 C 0.09839 0.54705 0.72141 0.0
C713 C 0.11472 0.55741 0.71014 0.0
C714 C 0.08586 0.55838 0.73603 0.0
C715 C 0.08946 0.58023 0.73952 0.0
C716 C 0.10521 0.59062 0.7275 0.0
C717 C 0.11773 0.57935 0.71311 0.0
C718 C 0.07767 0.61969 0.78346 0.0
C719 C 0.05557 0.61767 0.78597 0.0
C720 C 0.08857 0.6071 0.76885 0.0
C721 C 0.07765 0.59227 0.75613 0.0
C722 C 0.05559 0.58969 0.75909 0.0
C723 C 0.04462 0.60229 0.77394 0.0
H724 H 0.36179 0.08127 0.78063 0.0
H725 H 0.40601 0.02862 0.78231 0.0
H726 H 0.38364 0.09903 0.75433 0.0
H727 H 0.42788 0.04633 0.75517 0.0
H728 H 0.471 0.09957 0.72383 0.0
H729 H 0.45096 0.07759 0.74914 0.0
H730 H 0.39239 0.09517 0.71759 0.0
H731 H 0.41221 0.11751 0.69306 0.0
C732 C 0.37616 0.07339 0.77524 0.0
C733 C 0.38211 0.05347 0.78343 0.0
C734 C 0.38864 0.08353 0.76 0.0
C735 C 0.40734 0.07395 0.75234 0.0
C736 C 0.41357 0.05414 0.76077 0.0
C737 C 0.40104 0.04397 0.77622 0.0
C738 C 0.45386 0.09845 0.72223 0.0
C739 C 0.4431 0.11046 0.70672 0.0
C740 C 0.4424 0.08584 0.73665 0.0
C741 C 0.42003 0.08496 0.73565 0.0
C742 C 0.40954 0.09596 0.71922 0.0
C743 C 0.4209 0.10868 0.70507 0.0
H744 H 0.90655 0.47482 0.71916 0.0
H745 H 0.86689 0.41881 0.71436 0.0
H746 H 0.92868 0.45664 0.74587 0.0
H747 H 0.8889 0.40079 0.74038 0.0
H748 H 0.97357 0.40305 0.77593 0.0
H749 H 0.95384 0.4254 0.75059 0.0
H750 H 0.89464 0.40436 0.77851 0.0
H751 H 0.91411 0.3819 0.8032 0.0
C752 C 0.90265 0.45864 0.7237 0.0
C753 C 0.88486 0.44832 0.71486 0.0
C754 C 0.91533 0.44824 0.7389 0.0
C755 C 0.91031 0.42741 0.74548 0.0
C756 C 0.89289 0.41701 0.73608 0.0
C757 C 0.88032 0.42733 0.72104 0.0
C758 C 0.95635 0.40349 0.77676 0.0
C759 C 0.94534 0.39051 0.79128 0.0
C760 C 0.94508 0.41629 0.76232 0.0
C761 C 0.92268 0.4163 0.7623 0.0
C762 C 0.91186 0.40429 0.77775 0.0
C763 C 0.92304 0.39148 0.79197 0.0
H764 H 0.63692 0.91588 0.787 0.0
H765 H 0.59835 0.97253 0.78109 0.0
H766 H 0.6142 0.89757 0.76181 0.0
H767 H 0.5756 0.95413 0.75509 0.0
H768 H 0.52908 0.90224 0.72572 0.0
H769 H 0.54966 0.92421 0.75076 0.0
H770 H 0.608 0.89929 0.72418 0.0
H771 H 0.58766 0.87714 0.69998 0.0
C772 C 0.6236 0.9245 0.7802 0.0
C773 C 0.61955 0.94573 0.78587 0.0
C774 C 0.61062 0.91401 0.76563 0.0
C775 C 0.59329 0.92449 0.75612 0.0
C776 C 0.58883 0.94562 0.76215 0.0
C777 C 0.60188 0.95617 0.77693 0.0
C778 C 0.54631 0.90168 0.72521 0.0
C779 C 0.55679 0.88775 0.71119 0.0
C780 C 0.55808 0.91428 0.73946 0.0
C781 C 0.58047 0.91318 0.73974 0.0
C782 C 0.59079 0.90008 0.72483 0.0
C783 C 0.57912 0.88744 0.71087 0.0
H784 H 0.19927 0.08593 0.37506 0.0
H785 H 0.22252 0.02731 0.40244 0.0
H786 H 0.22431 0.10608 0.39646 0.0
H787 H 0.24842 0.0476 0.42358 0.0
H788 H 0.28071 0.09618 0.47035 0.0
H789 H 0.25412 0.07382 0.45236 0.0
H790 H 0.26181 0.11128 0.39516 0.0
H791 H 0.2875 0.13371 0.41315 0.0
C792 C 0.20979 0.07734 0.3857 0.0
C793 C 0.20913 0.05504 0.3869 0.0
C794 C 0.22426 0.08889 0.39789 0.0
C795 C 0.23873 0.07844 0.4114 0.0
C796 C 0.23749 0.05613 0.41334 0.0
C797 C 0.22273 0.04452 0.40121 0.0
C798 C 0.27666 0.09951 0.45392 0.0
C799 C 0.28596 0.11684 0.44323 0.0
C800 C 0.26152 0.08669 0.44361 0.0
C801 C 0.25555 0.09098 0.42243 0.0
C802 C 0.26553 0.10787 0.41165 0.0
C803 C 0.2804 0.12068 0.42194 0.0
H804 H 0.91158 0.29613 0.46185 0.0
H805 H 0.85575 0.26404 0.43774 0.0
H806 H 0.93426 0.27185 0.44125 0.0
H807 H 0.87816 0.2397 0.41777 0.0
H808 H 0.91979 0.22181 0.36243 0.0
H809 H 0.89978 0.24466 0.38621 0.0
H810 H 0.94611 0.23398 0.43591 0.0
H811 H 0.96661 0.21112 0.41167 0.0
C812 C 0.9042 0.28369 0.45247 0.0
C813 C 0.88192 0.28215 0.45114 0.0
C814 C 0.91715 0.26977 0.44073 0.0
C815 C 0.90798 0.25411 0.42758 0.0
C816 C 0.88572 0.25193 0.42731 0.0
C817 C 0.87287 0.26583 0.43884 0.0
C818 C 0.9258 0.22431 0.3784 0.0
C819 C 0.9447 0.21454 0.38522 0.0
C820 C 0.91423 0.23732 0.3921 0.0
C821 C 0.92117 0.24087 0.41307 0.0
C822 C 0.94038 0.23154 0.41983 0.0
C823 C 0.95205 0.21842 0.40601 0.0
H824 H 0.69454 0.88394 0.41439 0.0
H825 H 0.72461 0.90197 0.47353 0.0
H826 H 0.71917 0.90642 0.39486 0.0
H827 H 0.74988 0.9243 0.45375 0.0
H828 H 0.78164 0.97422 0.40755 0.0
H829 H 0.75481 0.95625 0.42967 0.0
H830 H 0.75693 0.90186 0.38762 0.0
H831 H 0.7831 0.91968 0.36564 0.0
C832 C 0.70637 0.89285 0.42324 0.0
C833 C 0.70786 0.89099 0.44544 0.0
C834 C 0.72055 0.90566 0.41203 0.0
C835 C 0.73676 0.91678 0.42272 0.0
C836 C 0.73756 0.91591 0.44509 0.0
C837 C 0.72316 0.90311 0.45639 0.0
C838 C 0.77633 0.95841 0.40314 0.0
C839 C 0.78432 0.94843 0.38477 0.0
C840 C 0.76106 0.94813 0.41581 0.0
C841 C 0.75352 0.92778 0.41019 0.0
C842 C 0.762 0.91773 0.39211 0.0
C843 C 0.77713 0.92791 0.37956 0.0
H844 H 0.03687 0.79527 0.41125 0.0
H845 H 0.06233 0.76436 0.35535 0.0
H846 H 0.05805 0.77147 0.43389 0.0
H847 H 0.08295 0.74054 0.37775 0.0
H848 H 0.13818 0.72343 0.41996 0.0
H849 H 0.11417 0.74606 0.39991 0.0
H850 H 0.06407 0.73354 0.4453 0.0
H851 H 0.0885 0.71091 0.46581 0.0
C852 C 0.04671 0.7832 0.40383 0.0
C853 C 0.04816 0.78183 0.38155 0.0
C854 C 0.05877 0.76956 0.41677 0.0
C855 C 0.07245 0.75437 0.40759 0.0
C856 C 0.07298 0.7524 0.38532 0.0
C857 C 0.06106 0.76599 0.37247 0.0
C858 C 0.12207 0.72548 0.42575 0.0
C859 C 0.11518 0.71525 0.44439 0.0
C860 C 0.10825 0.73837 0.41417 0.0
C861 C 0.08711 0.74134 0.42083 0.0
C862 C 0.08028 0.73157 0.43979 0.0
C863 C 0.09422 0.71858 0.45147 0.0
H864 H 0.20551 0.91408 0.63095 0.0
H865 H 0.22084 0.97345 0.59984 0.0
H866 H 0.23104 0.8956 0.60872 0.0
H867 H 0.24719 0.95484 0.57769 0.0
H868 H 0.27853 0.90605 0.52969 0.0
H869 H 0.25237 0.92747 0.54932 0.0
H870 H 0.26921 0.89438 0.60723 0.0
H871 H 0.29462 0.87287 0.58772 0.0
C872 C 0.21441 0.92322 0.61934 0.0
C873 C 0.21137 0.94526 0.61731 0.0
C874 C 0.22916 0.91262 0.60666 0.0
C875 C 0.2415 0.92381 0.59173 0.0
C876 C 0.23793 0.94579 0.58906 0.0
C877 C 0.22292 0.95644 0.60175 0.0
C878 C 0.27667 0.90353 0.54664 0.0
C879 C 0.2884 0.88761 0.55713 0.0
C880 C 0.26176 0.91582 0.55788 0.0
C881 C 0.25843 0.91237 0.57977 0.0
C882 C 0.27094 0.89708 0.59029 0.0
C883 C 0.28562 0.8848 0.57911 0.0
H884 H 0.0332 0.20997 0.5893 0.0
H885 H 0.08209 0.21658 0.63722 0.0
H886 H 0.05369 0.23316 0.5654 0.0
H887 H 0.10203 0.23989 0.61391 0.0
H888 H 0.14469 0.26239 0.56284 0.0
H889 H 0.12263 0.23718 0.58207 0.0
H890 H 0.06614 0.27029 0.56093 0.0
H891 H 0.08848 0.29532 0.5409 0.0
C892 C 0.04824 0.21641 0.59473 0.0
C893 C 0.05613 0.21131 0.61504 0.0
C894 C 0.05992 0.22974 0.58111 0.0
C895 C 0.07965 0.23815 0.58763 0.0
C896 C 0.08719 0.23328 0.60812 0.0
C897 C 0.07566 0.21999 0.62158 0.0
C898 C 0.12755 0.2642 0.5621 0.0
C899 C 0.1183 0.28097 0.5506 0.0
C900 C 0.11489 0.2498 0.57323 0.0
C901 C 0.09262 0.25197 0.57343 0.0
C902 C 0.08325 0.26816 0.56108 0.0
C903 C 0.09601 0.28253 0.54968 0.0
H904 H 0.78496 0.08138 0.63619 0.0
H905 H 0.78285 0.02823 0.59263 0.0
H906 H 0.75988 0.10066 0.61421 0.0
H907 H 0.75672 0.04737 0.57073 0.0
H908 H 0.72594 0.10005 0.52727 0.0
H909 H 0.75112 0.07772 0.54719 0.0
H910 H 0.72333 0.09967 0.6062 0.0
H911 H 0.6992 0.12241 0.58646 0.0
C912 C 0.77894 0.07372 0.62195 0.0
C913 C 0.78571 0.05321 0.61624 0.0
C914 C 0.7644 0.08473 0.60938 0.0
C915 C 0.7559 0.07544 0.59087 0.0
C916 C 0.76298 0.05502 0.58485 0.0
C917 C 0.77784 0.04402 0.59742 0.0
C918 C 0.72524 0.0999 0.54449 0.0
C919 C 0.71091 0.11318 0.55536 0.0
C920 C 0.73957 0.08708 0.55591 0.0
C921 C 0.73957 0.08722 0.57834 0.0
C922 C 0.72431 0.09966 0.58899 0.0
C923 C 0.71035 0.11262 0.57767 0.0
H924 H 0.91013 0.70812 0.53166 0.0
H925 H 0.85909 0.72261 0.57539 0.0
H926 H 0.93414 0.73111 0.55231 0.0
H927 H 0.88267 0.7456 0.59554 0.0
H928 H 0.93303 0.76426 0.64146 0.0
H929 H 0.91296 0.74013 0.61891 0.0
H930 H 0.94038 0.76926 0.56299 0.0
H931 H 0.96105 0.79336 0.58584 0.0
C932 C 0.90403 0.71631 0.54555 0.0
C933 C 0.88281 0.71342 0.55204 0.0
C934 C 0.91772 0.7295 0.5573 0.0
C935 C 0.91038 0.73991 0.57573 0.0
C936 C 0.88898 0.73741 0.58173 0.0
C937 C 0.87541 0.72431 0.57009 0.0
C938 C 0.93497 0.76543 0.62436 0.0
C939 C 0.94842 0.78086 0.61539 0.0
C940 C 0.92337 0.75166 0.61143 0.0
C941 C 0.92476 0.75306 0.58915 0.0
C942 C 0.93899 0.76781 0.58011 0.0
C943 C 0.95077 0.78161 0.59316 0.0
H944 H 0.41344 0.29581 0.13108 0.0
H945 H 0.47181 0.27791 0.09953 0.0
H946 H 0.3937 0.27105 0.10898 0.0
H947 H 0.45203 0.25225 0.07769 0.0
H948 H 0.40375 0.22131 0.03024 0.0
H949 H 0.4254 0.24735 0.04973 0.0
H950 H 0.38985 0.2336 0.107 0.0
H951 H 0.368 0.20845 0.08751 0.0
C952 C 0.42207 0.28648 0.11942 0.0
C953 C 0.44419 0.28862 0.11718 0.0
C954 C 0.41077 0.27216 0.10681 0.0
C955 C 0.42131 0.25931 0.09182 0.0
C956 C 0.4434 0.26193 0.08905 0.0
C957 C 0.45474 0.27655 0.10158 0.0
C958 C 0.40068 0.2239 0.04701 0.0
C959 C 0.38404 0.21306 0.05731 0.0
C960 C 0.41311 0.23872 0.05819 0.0
C961 C 0.40916 0.24283 0.07987 0.0
C962 C 0.39298 0.23133 0.0902 0.0
C963 C 0.38051 0.21677 0.07905 0.0
H964 H 0.37408 0.79853 0.91376 0.0
H965 H 0.40414 0.78016 0.9728 0.0
H966 H 0.39615 0.7734 0.89451 0.0
H967 H 0.42615 0.75427 0.95337 0.0
H968 H 0.47329 0.7228 0.90352 0.0
H969 H 0.4547 0.74932 0.92552 0.0
H970 H 0.39599 0.73492 0.89271 0.0
H971 H 0.41441 0.70915 0.87071 0.0
C972 C 0.38548 0.78911 0.92264 0.0
C973 C 0.38719 0.7911 0.94482 0.0
C974 C 0.39807 0.77461 0.9116 0.0
C975 C 0.41258 0.76149 0.92246 0.0
C976 C 0.41509 0.76414 0.94457 0.0
C977 C 0.40249 0.77889 0.95568 0.0
C978 C 0.45639 0.72531 0.90118 0.0
C979 C 0.44535 0.71414 0.88522 0.0
C980 C 0.44576 0.74041 0.91378 0.0
C981 C 0.42397 0.74449 0.91058 0.0
C982 C 0.4129 0.73259 0.89521 0.0
C983 C 0.42345 0.71771 0.88265 0.0
H984 H 0.29096 0.41409 0.867 0.0
H985 H 0.28042 0.47145 0.90346 0.0
H986 H 0.26542 0.39525 0.88892 0.0
H987 H 0.25414 0.45251 0.92536 0.0
H988 H 0.22364 0.40139 0.97143 0.0
H989 H 0.24943 0.42324 0.9518 0.0
H990 H 0.22731 0.39574 0.89274 0.0
H991 H 0.20227 0.37373 0.91222 0.0
C992 C 0.28313 0.4227 0.87972 0.0
C993 C 0.28754 0.4443 0.88338 0.0
C994 C 0.26836 0.41192 0.89223 0.0
C995 C 0.25743 0.42247 0.90864 0.0
C996 C 0.26231 0.44394 0.91283 0.0
C997 C 0.27728 0.45479 0.90028 0.0
C998 C 0.22425 0.40022 0.95424 0.0
C999 C 0.21119 0.38567 0.94336 0.0
C1000 C 0.23894 0.41275 0.94301 0.0
C1001 C 0.24069 0.41093 0.92074 0.0
C1002 C 0.22681 0.39711 0.90992 0.0
C1003 C 0.21235 0.38457 0.92108 0.0
H1004 H 0.62754 0.20318 0.91289 0.0
H1005 H 0.59844 0.22405 0.97157 0.0
H1006 H 0.60598 0.22836 0.89307 0.0
H1007 H 0.57701 0.24992 0.9516 0.0
H1008 H 0.52906 0.28001 0.90266 0.0
H1009 H 0.54823 0.25415 0.92484 0.0
H1010 H 0.60565 0.26641 0.88904 0.0
H1011 H 0.58656 0.29155 0.86679 0.0
C1012 C 0.6165 0.21319 0.92157 0.0
C1013 C 0.61482 0.21178 0.9438 0.0
C1014 C 0.60422 0.22774 0.91021 0.0
C1015 C 0.59004 0.24144 0.92078 0.0
C1016 C 0.58777 0.23956 0.94299 0.0
C1017 C 0.60006 0.22483 0.95442 0.0
C1018 C 0.5458 0.27718 0.89967 0.0
C1019 C 0.55626 0.2876 0.88286 0.0
C1020 C 0.55678 0.26246 0.91239 0.0
C1021 C 0.57838 0.25798 0.90849 0.0
C1022 C 0.5889 0.26906 0.89214 0.0
C1023 C 0.57797 0.28358 0.87945 0.0
H1024 H 0.70274 0.58666 0.87491 0.0
H1025 H 0.7249 0.527 0.90093 0.0
H1026 H 0.72812 0.60584 0.89677 0.0
H1027 H 0.75108 0.54636 0.92264 0.0
H1028 H 0.78262 0.59436 0.97123 0.0
H1029 H 0.7564 0.5723 0.95231 0.0
H1030 H 0.76608 0.61 0.89559 0.0
H1031 H 0.79148 0.63208 0.91444 0.0
C1032 C 0.71309 0.57762 0.88534 0.0
C1033 C 0.71202 0.55532 0.88603 0.0
C1034 C 0.72775 0.58862 0.89781 0.0
C1035 C 0.74196 0.57761 0.91112 0.0
C1036 C 0.74035 0.55529 0.91253 0.0
C1037 C 0.72543 0.54421 0.90009 0.0
C1038 C 0.77914 0.59777 0.95469 0.0
C1039 C 0.78887 0.6151 0.94438 0.0
C1040 C 0.76421 0.58513 0.94385 0.0
C1041 C 0.75886 0.58964 0.92256 0.0
C1042 C 0.76935 0.60643 0.91215 0.0
C1043 C 0.78404 0.61904 0.92293 0.0
H1044 H 0.54029 0.70434 0.0912 0.0
H1045 H 0.571 0.731 0.14663 0.0
H1046 H 0.56064 0.72865 0.06838 0.0
H1047 H 0.59055 0.75558 0.12421 0.0
H1048 H 0.64174 0.77703 0.07986 0.0
H1049 H 0.6195 0.75296 0.10018 0.0
H1050 H 0.56676 0.76566 0.05783 0.0
H1051 H 0.58956 0.78945 0.03684 0.0
C1052 C 0.55116 0.71557 0.09849 0.0
C1053 C 0.5543 0.71561 0.12063 0.0
C1054 C 0.56274 0.72953 0.08546 0.0
C1055 C 0.57751 0.74384 0.09443 0.0
C1056 C 0.5798 0.74439 0.11668 0.0
C1057 C 0.56848 0.73037 0.12958 0.0
C1058 C 0.62541 0.7747 0.07482 0.0
C1059 C 0.61733 0.78527 0.05687 0.0
C1060 C 0.61258 0.76098 0.08657 0.0
C1061 C 0.59119 0.75764 0.08089 0.0
C1062 C 0.58318 0.76784 0.0626 0.0
C1063 C 0.59617 0.78151 0.05065 0.0
H1064 H 0.21022 0.63459 0.0865 0.0
H1065 H 0.22048 0.5975 0.02952 0.0
H1066 H 0.23549 0.61253 0.10559 0.0
H1067 H 0.24657 0.57556 0.04863 0.0
H1068 H 0.27681 0.52922 0.09908 0.0
H1069 H 0.25125 0.54927 0.07734 0.0
H1070 H 0.27311 0.60783 0.10614 0.0
H1071 H 0.29784 0.58791 0.1281 0.0
C1072 C 0.21798 0.62173 0.07801 0.0
C1073 C 0.21351 0.61789 0.05646 0.0
C1074 C 0.2326 0.60915 0.08893 0.0
C1075 C 0.24338 0.59249 0.07856 0.0
C1076 C 0.23852 0.58823 0.0571 0.0
C1077 C 0.22367 0.60083 0.04614 0.0
C1078 C 0.27616 0.54639 0.10058 0.0
C1079 C 0.28909 0.55699 0.11546 0.0
C1080 C 0.26161 0.55788 0.08811 0.0
C1081 C 0.25986 0.58013 0.09027 0.0
C1082 C 0.27357 0.59067 0.10448 0.0
C1083 C 0.28787 0.57925 0.117 0.0
H1084 H 0.70448 0.41351 0.12749 0.0
H1085 H 0.72543 0.47262 0.09932 0.0
H1086 H 0.72928 0.39393 0.10536 0.0
H1087 H 0.75112 0.4529 0.0774 0.0
H1088 H 0.78172 0.40461 0.02904 0.0
H1089 H 0.75592 0.42677 0.04835 0.0
H1090 H 0.76695 0.3895 0.10513 0.0
H1091 H 0.79185 0.36724 0.08586 0.0
C1092 C 0.71447 0.42234 0.11655 0.0
C1093 C 0.71322 0.44461 0.1153 0.0
C1094 C 0.72881 0.41112 0.10393 0.0
C1095 C 0.74254 0.42187 0.08992 0.0
C1096 C 0.74075 0.44415 0.08803 0.0
C1097 C 0.72613 0.45543 0.1006 0.0
C1098 C 0.77861 0.4013 0.04567 0.0
C1099 C 0.78855 0.38405 0.05588 0.0
C1100 C 0.76392 0.414 0.05673 0.0
C1101 C 0.75908 0.40966 0.07818 0.0
C1102 C 0.7698 0.39293 0.08847 0.0
C1103 C 0.7842 0.38022 0.07745 0.0
H1104 H 0.97613 0.19923 0.26947 0.0
H1105 H 0.00636 0.23894 0.31681 0.0
H1106 H 0.98442 0.22571 0.24207 0.0
H1107 H 0.01451 0.26535 0.2895 0.0
H1108 H 0.00017 0.31748 0.23979 0.0
H1109 H 0.99271 0.29022 0.26642 0.0
H1110 H 0.01733 0.24195 0.22412 0.0
H1111 H 0.02494 0.26932 0.19739 0.0
C1112 C 0.98457 0.21358 0.274 0.0
C1113 C 0.99056 0.21706 0.29526 0.0
C1114 C 0.98939 0.22865 0.25832 0.0
C1115 C 5e-05 0.24758 0.2637 0.0
C1116 C 0.00611 0.25099 0.28496 0.0
C1117 C 0.00152 0.23583 0.30055 0.0
C1118 C 0.00401 0.30106 0.23616 0.0
C1119 C 0.01318 0.29552 0.21654 0.0
C1120 C 0.99983 0.28548 0.25144 0.0
C1121 C 0.00449 0.26399 0.24734 0.0
C1122 C 0.01346 0.25839 0.22763 0.0
C1123 C 0.01791 0.27404 0.21241 0.0
H1124 H 0.77389 0.0211 0.30838 0.0
H1125 H 0.79411 0.96533 0.27357 0.0
H1126 H 0.74823 0.02933 0.28035 0.0
H1127 H 0.76834 0.97357 0.24553 0.0
H1128 H 0.69981 0.98085 0.21823 0.0
H1129 H 0.72816 0.97384 0.24379 0.0
H1130 H 0.74682 0.03997 0.24136 0.0
H1131 H 0.71838 0.04703 0.21559 0.0
C1132 C 0.77292 0.01067 0.29468 0.0
C1133 C 0.78591 0.99251 0.29319 0.0
C1134 C 0.75833 0.01547 0.27858 0.0
C1135 C 0.75628 0.00208 0.2608 0.0
C1136 C 0.76949 0.98407 0.25916 0.0
C1137 C 0.78427 0.9794 0.27515 0.0
C1138 C 0.71001 0.99389 0.22307 0.0
C1139 C 0.70686 0.01451 0.21497 0.0
C1140 C 0.72633 0.98983 0.23759 0.0
C1141 C 0.73971 0.00635 0.24452 0.0
C1142 C 0.73665 0.02698 0.23636 0.0
C1143 C 0.72044 0.031 0.22159 0.0
H1144 H 0.01353 0.69564 0.22584 0.0
H1145 H 0.95386 0.72399 0.20674 0.0
H1146 H 0.02022 0.72551 0.24966 0.0
H1147 H 0.96052 0.75398 0.23096 0.0
H1148 H 0.97198 0.78469 0.29941 0.0
H1149 H 0.96389 0.75834 0.2719 0.0
H1150 H 0.02731 0.76548 0.24647 0.0
H1151 H 0.03538 0.79196 0.27386 0.0
C1152 C 0.00182 0.70827 0.22675 0.0
C1153 C 0.98314 0.70747 0.21447 0.0
C1154 C 0.00575 0.72545 0.24027 0.0
C1155 C 0.99095 0.7421 0.24205 0.0
C1156 C 0.97217 0.74131 0.22989 0.0
C1157 C 0.96839 0.72421 0.21604 0.0
C1158 C 0.98409 0.78084 0.28776 0.0
C1159 C 0.00436 0.79028 0.28884 0.0
C1160 C 0.97941 0.76585 0.27197 0.0
C1161 C 0.99502 0.7598 0.25716 0.0
C1162 C 0.01506 0.76974 0.25783 0.0
C1163 C 0.01964 0.78494 0.27343 0.0
H1164 H 0.19648 0.02504 0.27059 0.0
H1165 H 0.23636 0.99431 0.31745 0.0
H1166 H 0.22306 0.01747 0.2431 0.0
H1167 H 0.26279 0.98675 0.29006 0.0
H1168 H 0.31505 0.00029 0.24103 0.0
H1169 H 0.2878 0.00788 0.26759 0.0
H1170 H 0.23924 0.98571 0.22425 0.0
H1171 H 0.2666 0.9781 0.19754 0.0
C1172 C 0.2109 0.01667 0.275 0.0
C1173 C 0.21439 0.01032 0.29616 0.0
C1174 C 0.22603 0.01223 0.25926 0.0
C1175 C 0.24501 0.00158 0.26446 0.0
C1176 C 0.24842 0.9952 0.28563 0.0
C1177 C 0.23324 0.99945 0.30128 0.0
C1178 C 0.29856 0.99704 0.23714 0.0
C1179 C 0.29295 0.98856 0.21723 0.0
C1180 C 0.28298 0.0013 0.25239 0.0
C1181 C 0.26141 0.99732 0.24801 0.0
C1182 C 0.25574 0.98907 0.228 0.0
C1183 C 0.27138 0.98462 0.21277 0.0
H1184 H 0.0418 0.72718 0.79211 0.0
H1185 H 0.9815 0.69787 0.77682 0.0
H1186 H 0.03411 0.75599 0.76698 0.0
H1187 H 0.97378 0.7267 0.7519 0.0
H1188 H 0.95908 0.79251 0.72383 0.0
H1189 H 0.96691 0.76684 0.75213 0.0
H1190 H 0.03006 0.7579 0.72658 0.0
H1191 H 0.02223 0.78336 0.69827 0.0
C1192 C 0.02687 0.72698 0.78348 0.0
C1193 C 0.01229 0.71026 0.78634 0.0
C1194 C 0.0225 0.74341 0.76909 0.0
C1195 C 0.00333 0.74359 0.75755 0.0
C1196 C 0.98858 0.72709 0.76075 0.0
C1197 C 0.99307 0.71052 0.77489 0.0
C1198 C 0.9747 0.78523 0.72443 0.0
C1199 C 0.99002 0.78985 0.70882 0.0
C1200 C 0.97913 0.77048 0.74053 0.0
C1201 C 0.99907 0.76036 0.74149 0.0
C1202 C 0.01463 0.76558 0.72632 0.0
C1203 C 0.0101 0.78007 0.71007 0.0
H1204 H 0.20533 0.95819 0.72858 0.0
H1205 H 0.22077 0.01831 0.69896 0.0
H1206 H 0.23089 0.96578 0.75709 0.0
H1207 H 0.24606 0.02592 0.72746 0.0
H1208 H 0.27437 0.04081 0.79304 0.0
H1209 H 0.24592 0.03287 0.76761 0.0
H1210 H 0.27163 0.96977 0.75846 0.0
H1211 H 0.30015 0.97772 0.78371 0.0
C1212 C 0.21406 0.97307 0.72826 0.0
C1213 C 0.21113 0.98764 0.71155 0.0
C1214 C 0.2287 0.97736 0.7445 0.0
C1215 C 0.24039 0.99645 0.74447 0.0
C1216 C 0.2371 0.01119 0.72799 0.0
C1217 C 0.22273 0.00676 0.71162 0.0
C1218 C 0.27381 0.02519 0.78573 0.0
C1219 C 0.28951 0.00991 0.79026 0.0
C1220 C 0.25761 0.02069 0.77114 0.0
C1221 C 0.25662 0.00073 0.76106 0.0
C1222 C 0.27192 0.98522 0.76613 0.0
C1223 C 0.28829 0.98982 0.78048 0.0
H1224 H 0.02161 0.19832 0.73141 0.0
H1225 H 0.99523 0.239 0.68263 0.0
H1226 H 0.01299 0.22516 0.75834 0.0
H1227 H 0.98656 0.26566 0.70946 0.0
H1228 H 0.9991 0.31771 0.75919 0.0
H1229 H 0.00671 0.29016 0.73296 0.0
H1230 H 0.98116 0.24249 0.77541 0.0
H1231 H 0.9736 0.27016 0.80183 0.0
C1232 C 0.01394 0.21296 0.72646 0.0
C1233 C 0.00917 0.21661 0.70491 0.0
C1234 C 0.00889 0.22824 0.74188 0.0
C1235 C 0.99916 0.24753 0.73599 0.0
C1236 C 0.99428 0.25106 0.71445 0.0
C1237 C 0.99918 0.23575 0.6991 0.0
C1238 C 0.99505 0.30136 0.76293 0.0
C1239 C 0.98572 0.29609 0.78255 0.0
C1240 C 0.99932 0.2856 0.74786 0.0
C1241 C 0.99449 0.26417 0.75211 0.0
C1242 C 0.98521 0.25885 0.77177 0.0
C1243 C 0.98076 0.27469 0.78682 0.0
H1244 H 0.79387 0.0394 0.72398 0.0
H1245 H 0.78401 0.97625 0.69855 0.0
H1246 H 0.76813 0.03197 0.75225 0.0
H1247 H 0.75838 0.96884 0.72679 0.0
H1248 H 0.7278 0.9572 0.79218 0.0
H1249 H 0.75632 0.96453 0.7667 0.0
H1250 H 0.72837 0.02585 0.75304 0.0
H1251 H 0.69987 0.01854 0.77842 0.0
C1252 C 0.78637 0.02388 0.72456 0.0
C1253 C 0.79089 0.00843 0.70904 0.0
C1254 C 0.77157 0.01968 0.74066 0.0
C1255 C 0.76122 0.99985 0.74168 0.0
C1256 C 0.76624 0.98419 0.72651 0.0
C1257 C 0.78083 0.98848 0.71029 0.0
C1258 C 0.72782 0.97228 0.7838 0.0
C1259 C 0.71158 0.98727 0.78722 0.0
C1260 C 0.74409 0.97643 0.76918 0.0
C1261 C 0.74457 0.99576 0.75791 0.0
C1262 C 0.72854 0.01091 0.76166 0.0
C1263 C 0.71215 0.00666 0.77608 0.0
H1264 H 0.24098 0.31651 0.99853 0.0
H1265 H 0.19735 0.268 0.97674 0.0
H1266 H 0.26745 0.28918 0.00643 0.0
H1267 H 0.2239 0.24057 0.98481 0.0
H1268 H 0.26974 0.19891 0.02666 0.0
H1269 H 0.24248 0.22544 0.01801 0.0
H1270 H 0.28961 0.26309 0.98507 0.0
H1271 H 0.31675 0.23663 0.99358 0.0
C1272 C 0.23705 0.3 0.99543 0.0
C1273 C 0.21713 0.29437 0.98699 0.0
C1274 C 0.25223 0.28438 0.99987 0.0
C1275 C 0.24772 0.26278 0.9962 0.0
C1276 C 0.22772 0.2571 0.98791 0.0
C1277 C 0.21261 0.27279 0.9832 0.0
C1278 C 0.27423 0.21284 0.01755 0.0
C1279 C 0.29536 0.21574 0.01084 0.0
C1280 C 0.25863 0.22794 0.01251 0.0
C1281 C 0.26397 0.24633 0.00093 0.0
C1282 C 0.2851 0.24916 0.99419 0.0
C1283 C 0.3006 0.23397 0.99899 0.0
H1284 H 0.19858 0.73253 0.0265 0.0
H1285 H 0.23658 0.68565 0.99351 0.0
H1286 H 0.22503 0.75992 0.01794 0.0
H1287 H 0.26295 0.71291 0.98514 0.0
H1288 H 0.31616 0.7614 0.99969 0.0
H1289 H 0.2887 0.73504 0.00727 0.0
H1290 H 0.24055 0.77851 0.98453 0.0
H1291 H 0.26817 0.80499 0.97674 0.0
C1292 C 0.21255 0.7281 0.01742 0.0
C1293 C 0.21557 0.70696 0.01073 0.0
C1294 C 0.22759 0.74377 0.01243 0.0
C1295 C 0.24603 0.73848 0.00094 0.0
C1296 C 0.24897 0.71737 0.99418 0.0
C1297 C 0.23384 0.7018 0.99892 0.0
C1298 C 0.29973 0.76535 0.99628 0.0
C1299 C 0.29429 0.78523 0.98758 0.0
C1300 C 0.28403 0.75022 0.00053 0.0
C1301 C 0.26253 0.75473 0.99643 0.0
C1302 C 0.25701 0.77469 0.98794 0.0
C1303 C 0.2728 0.78977 0.98339 0.0
H1304 H 0.76449 0.31501 0.99212 0.0
H1305 H 0.80239 0.26773 0.02467 0.0
H1306 H 0.73778 0.28807 0.98398 0.0
H1307 H 0.77552 0.24064 0.01643 0.0
H1308 H 0.73138 0.19564 0.97677 0.0
H1309 H 0.75938 0.2218 0.98415 0.0
H1310 H 0.71182 0.26659 0.00553 0.0
H1311 H 0.68395 0.24057 0.99824 0.0
C1312 C 0.76715 0.29883 0.99748 0.0
C1313 C 0.7855 0.29348 0.0091 0.0
C1314 C 0.7518 0.28343 0.99289 0.0
C1315 C 0.75453 0.26229 0.99965 0.0
C1316 C 0.77308 0.2568 0.01092 0.0
C1317 C 0.78838 0.2723 0.01572 0.0
C1318 C 0.72695 0.21109 0.98302 0.0
C1319 C 0.70549 0.21609 0.98689 0.0
C1320 C 0.74296 0.22599 0.98735 0.0
C1321 C 0.73775 0.24624 0.99535 0.0
C1322 C 0.71628 0.2512 0.99915 0.0
C1323 C 0.70034 0.23626 0.99506 0.0
H1324 H 0.80284 0.73171 0.97482 0.0
H1325 H 0.76356 0.68432 0.00551 0.0
H1326 H 0.77602 0.75895 0.9827 0.0
H1327 H 0.73686 0.71143 0.01325 0.0
H1328 H 0.68413 0.76008 0.99873 0.0
H1329 H 0.7118 0.73392 0.9911 0.0
H1330 H 0.75945 0.77707 0.01547 0.0
H1331 H 0.73167 0.80333 0.02325 0.0
C1332 C 0.78851 0.72714 0.98326 0.0
C1333 C 0.78525 0.7059 0.98951 0.0
C1334 C 0.77325 0.74272 0.98785 0.0
C1335 C 0.75435 0.73725 0.9985 0.0
C1336 C 0.75118 0.71604 0.00482 0.0
C1337 C 0.76651 0.70055 0.00047 0.0
C1338 C 0.70051 0.76401 0.00245 0.0
C1339 C 0.70575 0.78371 0.01164 0.0
C1340 C 0.71632 0.749 0.99817 0.0
C1341 C 0.73774 0.75346 0.00276 0.0
C1342 C 0.74306 0.77329 0.01167 0.0
C1343 C 0.72718 0.78824 0.01621 0.0
H1344 H 0.45848 0.71304 0.77761 0.0
H1345 H 0.52029 0.72357 0.80586 0.0
H1346 H 0.46652 0.73961 0.75024 0.0
H1347 H 0.52838 0.7499 0.77838 0.0
H1348 H 0.54172 0.77851 0.71155 0.0
H1349 H 0.53371 0.75067 0.73764 0.0
H1350 H 0.47304 0.78023 0.75054 0.0
H1351 H 0.4811 0.80818 0.72469 0.0
C1352 C 0.47381 0.72094 0.77789 0.0
C1353 C 0.48874 0.71629 0.79387 0.0
C1354 C 0.47836 0.73618 0.7623 0.0
C1355 C 0.49807 0.74678 0.76222 0.0
C1356 C 0.51313 0.74184 0.77798 0.0
C1357 C 0.50845 0.72686 0.79375 0.0
C1358 C 0.52667 0.77902 0.71994 0.0
C1359 C 0.51205 0.79552 0.71615 0.0
C1360 C 0.52213 0.76315 0.7349 0.0
C1361 C 0.50275 0.76331 0.74606 0.0
C1362 C 0.48801 0.77964 0.74202 0.0
C1363 C 0.49269 0.79568 0.72733 0.0
H1364 H 0.30219 0.47576 0.76738 0.0
H1365 H 0.26171 0.50413 0.81517 0.0
H1366 H 0.27552 0.48387 0.74009 0.0
H1367 H 0.23515 0.51213 0.78799 0.0
H1368 H 0.18333 0.49848 0.7381 0.0
H1369 H 0.21072 0.49063 0.7645 0.0
H1370 H 0.25865 0.51659 0.72265 0.0
H1371 H 0.23115 0.52454 0.69614 0.0
C1372 C 0.28762 0.48373 0.77203 0.0
C1373 C 0.284 0.48927 0.79339 0.0
C1374 C 0.27244 0.48846 0.75642 0.0
C1375 C 0.25326 0.49856 0.76195 0.0
C1376 C 0.2497 0.50413 0.78331 0.0
C1377 C 0.26495 0.49964 0.79884 0.0
C1378 C 0.19971 0.50252 0.73452 0.0
C1379 C 0.20511 0.51217 0.71509 0.0
C1380 C 0.21536 0.49811 0.74967 0.0
C1381 C 0.23679 0.50305 0.74564 0.0
C1382 C 0.24226 0.51249 0.7261 0.0
C1383 C 0.22653 0.51713 0.71101 0.0
H1384 H 0.49418 0.26184 0.81501 0.0
H1385 H 0.52451 0.30059 0.76698 0.0
H1386 H 0.48514 0.2354 0.78807 0.0
H1387 H 0.51543 0.27399 0.73992 0.0
H1388 H 0.47436 0.23071 0.69566 0.0
H1389 H 0.48275 0.25822 0.72205 0.0
H1390 H 0.50517 0.20973 0.76532 0.0
H1391 H 0.49683 0.18236 0.73911 0.0
C1392 C 0.49891 0.26471 0.79868 0.0
C1393 C 0.51012 0.28325 0.79311 0.0
C1394 C 0.4938 0.24952 0.78327 0.0
C1395 C 0.49962 0.2526 0.76191 0.0
C1396 C 0.5106 0.27128 0.75625 0.0
C1397 C 0.51591 0.28642 0.77174 0.0
C1398 C 0.48102 0.22597 0.71084 0.0
C1399 C 0.48489 0.2044 0.71535 0.0
C1400 C 0.48594 0.2417 0.72587 0.0
C1401 C 0.49458 0.2361 0.74575 0.0
C1402 C 0.49832 0.21451 0.75024 0.0
C1403 C 0.49361 0.19885 0.73519 0.0
H1404 H 0.80563 0.52252 0.72277 0.0
H1405 H 0.77785 0.46063 0.71138 0.0
H1406 H 0.77785 0.53021 0.7489 0.0
H1407 H 0.75017 0.46828 0.73771 0.0
H1408 H 0.72403 0.48168 0.80608 0.0
H1409 H 0.75007 0.47419 0.7782 0.0
H1410 H 0.73719 0.53538 0.74966 0.0
H1411 H 0.71091 0.54284 0.77747 0.0
C1412 C 0.79355 0.5106 0.72582 0.0
C1413 C 0.7939 0.49097 0.71509 0.0
C1414 C 0.77761 0.51505 0.74068 0.0
C1415 C 0.7619 0.49983 0.74531 0.0
C1416 C 0.76219 0.48023 0.73452 0.0
C1417 C 0.77796 0.4759 0.71942 0.0
C1418 C 0.72671 0.49351 0.79382 0.0
C1419 C 0.71548 0.51286 0.79395 0.0
C1420 C 0.74151 0.48916 0.77782 0.0
C1421 C 0.74561 0.5042 0.7618 0.0
C1422 C 0.7344 0.52357 0.76191 0.0
C1423 C 0.71934 0.52779 0.77775 0.0
H1424 H 0.52694 0.22923 0.30331 0.0
H1425 H 0.50943 0.1818 0.25668 0.0
H1426 H 0.51885 0.25743 0.27755 0.0
H1427 H 0.50134 0.20981 0.23112 0.0
H1428 H 0.51039 0.2641 0.18405 0.0
H1429 H 0.52037 0.23739 0.21035 0.0
H1430 H 0.48647 0.27236 0.25886 0.0
H1431 H 0.47651 0.29929 0.23245 0.0
C1432 C 0.52151 0.22484 0.28754 0.0
C1433 C 0.51886 0.20333 0.28198 0.0
C1434 C 0.51674 0.24096 0.27287 0.0
C1435 C 0.50947 0.23583 0.25232 0.0
C1436 C 0.50713 0.21428 0.24674 0.0
C1437 C 0.5117 0.19824 0.26142 0.0
C1438 C 0.50509 0.26614 0.20033 0.0
C1439 C 0.49258 0.28374 0.20617 0.0
C1440 C 0.51075 0.25079 0.21537 0.0
C1441 C 0.50416 0.25273 0.23665 0.0
C1442 C 0.49193 0.27053 0.24261 0.0
C1443 C 0.48612 0.28585 0.22748 0.0
H1444 H 0.78342 0.54296 0.28586 0.0
H1445 H 0.80884 0.47995 0.27514 0.0
H1446 H 0.75473 0.53559 0.26044 0.0
H1447 H 0.78017 0.47258 0.25 0.0
H1448 H 0.71275 0.46026 0.22398 0.0
H1449 H 0.73967 0.46837 0.25098 0.0
H1450 H 0.75256 0.52845 0.22016 0.0
H1451 H 0.72583 0.5203 0.19309 0.0
C1452 C 0.78285 0.52756 0.27812 0.0
C1453 C 0.79838 0.51206 0.28241 0.0
C1454 C 0.76649 0.52337 0.26356 0.0
C1455 C 0.76522 0.50349 0.25334 0.0
C1456 C 0.78064 0.48795 0.25783 0.0
C1457 C 0.79713 0.49224 0.2721 0.0
C1458 C 0.72128 0.47522 0.22304 0.0
C1459 C 0.71729 0.4896 0.2064 0.0
C1460 C 0.73671 0.47982 0.23843 0.0
C1461 C 0.74818 0.49903 0.23762 0.0
C1462 C 0.74383 0.51361 0.22125 0.0
C1463 C 0.72864 0.50888 0.2057 0.0
H1464 H 0.49671 0.73692 0.18917 0.0
H1465 H 0.52299 0.69393 0.23599 0.0
H1466 H 0.48984 0.76311 0.21703 0.0
H1467 H 0.51577 0.72019 0.26401 0.0
H1468 H 0.47441 0.76747 0.30694 0.0
H1469 H 0.48175 0.73941 0.28072 0.0
H1470 H 0.51531 0.78485 0.24162 0.0
H1471 H 0.50833 0.81269 0.26776 0.0
C1472 C 0.50087 0.73301 0.20544 0.0
C1473 C 0.51045 0.71343 0.21042 0.0
C1474 C 0.49702 0.74803 0.22134 0.0
C1475 C 0.50237 0.74366 0.2426 0.0
C1476 C 0.51145 0.72387 0.24773 0.0
C1477 C 0.51564 0.70893 0.23172 0.0
C1478 C 0.4835 0.77137 0.29282 0.0
C1479 C 0.49076 0.79225 0.28935 0.0
C1480 C 0.48773 0.75534 0.2779 0.0
C1481 C 0.49895 0.76007 0.25914 0.0
C1482 C 0.50645 0.78086 0.25587 0.0
C1483 C 0.50253 0.79675 0.27088 0.0
H1484 H 0.30202 0.52517 0.23204 0.0
H1485 H 0.26043 0.49853 0.18417 0.0
H1486 H 0.27545 0.51723 0.25945 0.0
H1487 H 0.23395 0.49072 0.21148 0.0
H1488 H 0.1831 0.50424 0.2624 0.0
H1489 H 0.21024 0.51222 0.23581 0.0
H1490 H 0.25826 0.48432 0.27632 0.0
H1491 H 0.23102 0.47622 0.30301 0.0
C1492 C 0.28721 0.51765 0.22739 0.0
C1493 C 0.28326 0.5125 0.20599 0.0
C1494 C 0.27209 0.51301 0.24307 0.0
C1495 C 0.25264 0.5034 0.23756 0.0
C1496 C 0.24871 0.49831 0.21614 0.0
C1497 C 0.26391 0.50271 0.20054 0.0
C1498 C 0.19944 0.49981 0.26565 0.0
C1499 C 0.20495 0.48956 0.28475 0.0
C1500 C 0.21495 0.5043 0.25039 0.0
C1501 C 0.23633 0.49885 0.25399 0.0
C1502 C 0.24191 0.48883 0.27321 0.0
C1503 C 0.22632 0.4841 0.2884 0.0
H1504 H 0.81518 0.73584 0.48788 0.0
H1505 H 0.7679 0.69899 0.52158 0.0
H1506 H 0.78838 0.76267 0.47952 0.0
H1507 H 0.74101 0.72594 0.51315 0.0
H1508 H 0.69563 0.76977 0.47427 0.0
H1509 H 0.72188 0.7417 0.481 0.0
H1510 H 0.76743 0.7892 0.50092 0.0
H1511 H 0.74131 0.81715 0.49428 0.0
C1512 C 0.79904 0.73343 0.49343 0.0
C1513 C 0.79364 0.71536 0.50545 0.0
C1514 C 0.78373 0.74884 0.48871 0.0
C1515 C 0.76264 0.74642 0.49574 0.0
C1516 C 0.75712 0.72813 0.5074 0.0
C1517 C 0.77252 0.71279 0.51231 0.0
C1518 C 0.71128 0.77418 0.48001 0.0
C1519 C 0.71645 0.79563 0.48373 0.0
C1520 C 0.72623 0.75813 0.48397 0.0
C1521 C 0.74669 0.76329 0.49145 0.0
C1522 C 0.75186 0.78477 0.49496 0.0
C1523 C 0.73688 0.80075 0.49124 0.0
H1524 H 0.72377 0.19502 0.48235 0.0
H1525 H 0.707 0.22483 0.54201 0.0
H1526 H 0.74904 0.22366 0.47515 0.0
H1527 H 0.73243 0.25349 0.53481 0.0
H1528 H 0.80053 0.28237 0.52414 0.0
H1529 H 0.77277 0.25615 0.53167 0.0
H1530 H 0.74857 0.26336 0.46774 0.0
H1531 H 0.77627 0.28965 0.4602 0.0
C1532 C 0.72545 0.20773 0.49389 0.0
C1533 C 0.71346 0.20769 0.51276 0.0
C1534 C 0.73981 0.22418 0.4897 0.0
C1535 C 0.74265 0.24079 0.50441 0.0
C1536 C 0.73063 0.2408 0.52326 0.0
C1537 C 0.71604 0.22446 0.52734 0.0
C1538 C 0.78918 0.27847 0.51176 0.0
C1539 C 0.79059 0.28798 0.49157 0.0
C1540 C 0.77324 0.26356 0.51611 0.0
C1541 C 0.75859 0.25769 0.50026 0.0
C1542 C 0.75979 0.26747 0.48018 0.0
C1543 C 0.77557 0.28257 0.47591 0.0
H1544 H 0.30294 0.77095 0.52444 0.0
H1545 H 0.25992 0.81882 0.50017 0.0
H1546 H 0.27645 0.74334 0.51676 0.0
H1547 H 0.23354 0.79133 0.49263 0.0
H1548 H 0.18366 0.73965 0.50615 0.0
H1549 H 0.21082 0.76619 0.51436 0.0
H1550 H 0.2584 0.72703 0.48392 0.0
H1551 H 0.23113 0.7004 0.47557 0.0
C1552 C 0.28783 0.77556 0.5175 0.0
C1553 C 0.28346 0.79702 0.51294 0.0
C1554 C 0.27275 0.75977 0.51302 0.0
C1555 C 0.25293 0.76522 0.50417 0.0
C1556 C 0.24859 0.7867 0.49966 0.0
C1557 C 0.26373 0.80241 0.50389 0.0
C1558 C 0.19992 0.73666 0.50125 0.0
C1559 C 0.20528 0.71799 0.49017 0.0
C1560 C 0.21543 0.7519 0.50587 0.0
C1561 C 0.23669 0.74868 0.49972 0.0
C1562 C 0.24215 0.72983 0.48896 0.0
C1563 C 0.22655 0.71468 0.4841 0.0
H1564 H 0.19839 0.28111 0.47789 0.0
H1565 H 0.22597 0.29207 0.53993 0.0
H1566 H 0.22681 0.25583 0.46972 0.0
H1567 H 0.25435 0.26669 0.53176 0.0
H1568 H 0.28053 0.19834 0.51791 0.0
H1569 H 0.25509 0.22664 0.52584 0.0
H1570 H 0.26702 0.25476 0.46428 0.0
H1571 H 0.29264 0.22646 0.45635 0.0
C1572 C 0.21061 0.27822 0.48971 0.0
C1573 C 0.20994 0.28849 0.50957 0.0
C1574 C 0.22692 0.26385 0.48499 0.0
C1575 C 0.24274 0.25929 0.50013 0.0
C1576 C 0.24226 0.26981 0.51987 0.0
C1577 C 0.22608 0.28438 0.52449 0.0
C1578 C 0.27784 0.21065 0.50613 0.0
C1579 C 0.28851 0.21019 0.4865 0.0
C1580 C 0.26337 0.2269 0.51072 0.0
C1581 C 0.25909 0.24287 0.49567 0.0
C1582 C 0.26994 0.24255 0.4761 0.0
C1583 C 0.28464 0.22643 0.47162 0.0
H1584 H 0.05826 0.37416 0.10902 0.0
H1585 H 0.08298 0.31315 0.12893 0.0
H1586 H 0.0831 0.37454 0.07919 0.0
H1587 H 0.10816 0.31371 0.09937 0.0
H1588 H 0.12957 0.31011 0.02964 0.0
H1589 H 0.10698 0.31051 0.06103 0.0
H1590 H 0.1208 0.3773 0.07021 0.0
H1591 H 0.1432 0.37698 0.03834 0.0
C1592 C 0.0691 0.36089 0.10709 0.0
C1593 C 0.06859 0.34355 0.12122 0.0
C1594 C 0.08345 0.36119 0.0901 0.0
C1595 C 0.09761 0.34415 0.08688 0.0
C1596 C 0.09727 0.32695 0.10123 0.0
C1597 C 0.0829 0.32665 0.11821 0.0
C1598 C 0.1279 0.32488 0.0384 0.0
C1599 C 0.13812 0.34354 0.0315 0.0
C1600 C 0.11504 0.32507 0.0565 0.0
C1601 C 0.11208 0.34393 0.06816 0.0
C1602 C 0.12256 0.36257 0.06143 0.0
C1603 C 0.13548 0.36236 0.04327 0.0
H1604 H 0.62155 0.07457 0.12511 0.0
H1605 H 0.68934 0.06775 0.11639 0.0
H1606 H 0.62029 0.10037 0.09619 0.0
H1607 H 0.68806 0.09252 0.08663 0.0
H1608 H 0.68436 0.14989 0.04476 0.0
H1609 H 0.68429 0.12771 0.0765 0.0
H1610 H 0.62193 0.1039 0.05945 0.0
H1611 H 0.62163 0.1272 0.02841 0.0
C1612 C 0.63617 0.0785 0.11684 0.0
C1613 C 0.65555 0.0692 0.12297 0.0
C1614 C 0.63545 0.09319 0.10015 0.0
C1615 C 0.65405 0.09862 0.0889 0.0
C1616 C 0.67344 0.08918 0.09512 0.0
C1617 C 0.6742 0.07481 0.11209 0.0
C1618 C 0.67054 0.1401 0.04801 0.0
C1619 C 0.65301 0.14021 0.03416 0.0
C1620 C 0.67056 0.12718 0.06609 0.0
C1621 C 0.65324 0.11367 0.07053 0.0
C1622 C 0.63546 0.11423 0.05683 0.0
C1623 C 0.63528 0.12752 0.03895 0.0
H1624 H 0.95824 0.65018 0.0982 0.0
H1625 H 0.90593 0.6678 0.13918 0.0
H1626 H 0.93421 0.64964 0.06768 0.0
H1627 H 0.88171 0.66687 0.10847 0.0
H1628 H 0.84593 0.63572 0.04873 0.0
H1629 H 0.86861 0.6366 0.08064 0.0
H1630 H 0.91176 0.67948 0.04872 0.0
H1631 H 0.8891 0.67897 0.0172 0.0
C1632 C 0.9416 0.65394 0.10067 0.0
C1633 C 0.93395 0.65914 0.12103 0.0
C1634 C 0.92788 0.65364 0.08321 0.0
C1635 C 0.90615 0.65817 0.08579 0.0
C1636 C 0.89839 0.66319 0.10615 0.0
C1637 C 0.91224 0.66388 0.12363 0.0
C1638 C 0.86025 0.64533 0.04861 0.0
C1639 C 0.86579 0.65725 0.03052 0.0
C1640 C 0.87311 0.64593 0.06685 0.0
C1641 C 0.89189 0.6581 0.06704 0.0
C1642 C 0.89741 0.66991 0.04891 0.0
C1643 C 0.88441 0.66964 0.03092 0.0
H1644 H 0.36324 0.84521 0.04981 0.0
H1645 H 0.3197 0.88798 0.01806 0.0
H1646 H 0.36211 0.86804 0.08166 0.0
H1647 H 0.31915 0.91086 0.04952 0.0
H1648 H 0.35691 0.95505 0.10041 0.0
H1649 H 0.35762 0.93047 0.07017 0.0
H1650 H 0.32293 0.88396 0.10685 0.0
H1651 H 0.32161 0.90881 0.1371 0.0
C1652 C 0.3535 0.85945 0.04964 0.0
C1653 C 0.34155 0.86484 0.03152 0.0
C1654 C 0.3528 0.87238 0.06781 0.0
C1655 C 0.34051 0.89106 0.06786 0.0
C1656 C 0.32868 0.89648 0.04976 0.0
C1657 C 0.32901 0.88338 0.03183 0.0
C1658 C 0.34939 0.93961 0.10203 0.0
C1659 C 0.33911 0.93384 0.12103 0.0
C1660 C 0.34985 0.9256 0.08478 0.0
C1661 C 0.34046 0.90542 0.0864 0.0
C1662 C 0.33038 0.89946 0.10541 0.0
C1663 C 0.32952 0.91367 0.12257 0.0
H1664 H 0.0598 0.6254 0.88797 0.0
H1665 H 0.08008 0.6896 0.87388 0.0
H1666 H 0.08391 0.62445 0.91845 0.0
H1667 H 0.10451 0.6885 0.90402 0.0
H1668 H 0.12401 0.68879 0.97389 0.0
H1669 H 0.10169 0.68853 0.94235 0.0
H1670 H 0.12159 0.62409 0.92867 0.0
H1671 H 0.14379 0.62423 0.96076 0.0
C1672 C 0.06952 0.63925 0.8913 0.0
C1673 C 0.06795 0.65764 0.87865 0.0
C1674 C 0.08344 0.63865 0.90867 0.0
C1675 C 0.09607 0.65642 0.91372 0.0
C1676 C 0.09475 0.67465 0.90077 0.0
C1677 C 0.08082 0.67526 0.88345 0.0
C1678 C 0.1237 0.67455 0.96416 0.0
C1679 C 0.13567 0.65652 0.9698 0.0
C1680 C 0.11099 0.67447 0.94597 0.0
C1681 C 0.10994 0.65635 0.9329 0.0
C1682 C 0.12193 0.63825 0.93851 0.0
C1683 C 0.13471 0.63835 0.9568 0.0
H1684 H 0.31269 0.08106 0.87367 0.0
H1685 H 0.37837 0.06401 0.88475 0.0
H1686 H 0.31383 0.10521 0.90401 0.0
H1687 H 0.37938 0.08779 0.9155 0.0
H1688 H 0.37787 0.14616 0.95992 0.0
H1689 H 0.37816 0.12491 0.9272 0.0
H1690 H 0.31524 0.10142 0.94206 0.0
H1691 H 0.31479 0.12284 0.9742 0.0
C1692 C 0.32739 0.08251 0.88258 0.0
C1693 C 0.34539 0.07055 0.87693 0.0
C1694 C 0.32802 0.09626 0.90004 0.0
C1695 C 0.34664 0.09828 0.91233 0.0
C1696 C 0.36485 0.08675 0.90628 0.0
C1697 C 0.36423 0.07304 0.88874 0.0
C1698 C 0.36413 0.13648 0.9561 0.0
C1699 C 0.3463 0.1362 0.96958 0.0
C1700 C 0.36431 0.12425 0.93743 0.0
C1701 C 0.34666 0.11157 0.93193 0.0
C1702 C 0.32892 0.11131 0.94555 0.0
C1703 C 0.32874 0.12349 0.96409 0.0
H1704 H 0.84435 0.36267 0.95074 0.0
H1705 H 0.89175 0.32616 0.98466 0.0
H1706 H 0.86732 0.36274 0.91902 0.0
H1707 H 0.91476 0.3268 0.95332 0.0
H1708 H 0.95696 0.35945 0.90082 0.0
H1709 H 0.93298 0.36016 0.93149 0.0
H1710 H 0.88418 0.32939 0.89421 0.0
H1711 H 0.90839 0.32811 0.86355 0.0
C1712 C 0.85969 0.35481 0.95143 0.0
C1713 C 0.86631 0.34439 0.97008 0.0
C1714 C 0.87272 0.35477 0.93334 0.0
C1715 C 0.89272 0.34478 0.93388 0.0
C1716 C 0.89941 0.33465 0.95261 0.0
C1717 C 0.88624 0.33426 0.97046 0.0
C1718 C 0.94113 0.35282 0.89917 0.0
C1719 C 0.93454 0.34363 0.87989 0.0
C1720 C 0.92746 0.35323 0.91668 0.0
C1721 C 0.9068 0.3449 0.91507 0.0
C1722 C 0.90003 0.33602 0.89571 0.0
C1723 C 0.91389 0.33517 0.8783 0.0
H1724 H 0.68645 0.8508 0.95778 0.0
H1725 H 0.62208 0.87062 0.97115 0.0
H1726 H 0.68686 0.87294 0.92606 0.0
H1727 H 0.62278 0.89397 0.9401 0.0
H1728 H 0.6248 0.92358 0.8743 0.0
H1729 H 0.62291 0.89776 0.90321 0.0
H1730 H 0.68965 0.90838 0.91663 0.0
H1731 H 0.69164 0.93313 0.88695 0.0
C1732 C 0.67237 0.85997 0.95388 0.0
C1733 C 0.65426 0.85909 0.96689 0.0
C1734 C 0.67265 0.87287 0.93581 0.0
C1735 C 0.655 0.88563 0.93058 0.0
C1736 C 0.63661 0.88424 0.94338 0.0
C1737 C 0.63619 0.87093 0.96125 0.0
C1738 C 0.63905 0.92025 0.88342 0.0
C1739 C 0.65838 0.93028 0.87839 0.0
C1740 C 0.63797 0.90555 0.9001 0.0
C1741 C 0.65612 0.90084 0.91237 0.0
C1742 C 0.67542 0.9111 0.9073 0.0
C1743 C 0.67658 0.92547 0.89038 0.0
H1744 H 0.12601 0.07896 0.31303 0.0
H1745 H 0.10876 0.05779 0.37613 0.0
H1746 H 0.09675 0.1045 0.31359 0.0
H1747 H 0.07925 0.08307 0.37655 0.0
H1748 H 0.03972 0.14455 0.37721 0.0
H1749 H 0.0711 0.12139 0.37747 0.0
H1750 H 0.05811 0.10327 0.31239 0.0
H1751 H 0.02719 0.12652 0.31203 0.0
C1752 C 0.11594 0.07974 0.327 0.0
C1753 C 0.1196 0.0663 0.34448 0.0
C1754 C 0.09914 0.09432 0.3273 0.0
C1755 C 0.08563 0.09578 0.3451 0.0
C1756 C 0.0895 0.08252 0.36271 0.0
C1757 C 0.1063 0.06792 0.36239 0.0
C1758 C 0.0437 0.1357 0.36295 0.0
C1759 C 0.03101 0.13734 0.34462 0.0
C1760 C 0.06157 0.12236 0.36313 0.0
C1761 C 0.06711 0.1105 0.34493 0.0
C1762 C 0.05449 0.1124 0.32656 0.0
C1763 C 0.03667 0.12564 0.32641 0.0
H1764 H 0.93848 0.11428 0.37613 0.0
H1765 H 0.91938 0.12922 0.31178 0.0
H1766 H 0.91396 0.08418 0.37647 0.0
H1767 H 0.89455 0.09931 0.31223 0.0
H1768 H 0.87467 0.02888 0.31209 0.0
H1769 H 0.8969 0.0606 0.31225 0.0
H1770 H 0.87604 0.07499 0.37619 0.0
H1771 H 0.85397 0.04288 0.37615 0.0
C1772 C 0.92891 0.11122 0.36211 0.0
C1773 C 0.93092 0.12403 0.34388 0.0
C1774 C 0.91475 0.09407 0.36236 0.0
C1775 C 0.90233 0.08933 0.34437 0.0
C1776 C 0.9041 0.10238 0.32626 0.0
C1777 C 0.91825 0.11956 0.32602 0.0
C1778 C 0.87476 0.03884 0.32617 0.0
C1779 C 0.86261 0.03337 0.34413 0.0
C1780 C 0.88739 0.05711 0.3262 0.0
C1781 C 0.8882 0.07035 0.34421 0.0
C1782 C 0.87591 0.06498 0.36214 0.0
C1783 C 0.8632 0.04667 0.36209 0.0
H1784 H 0.89524 0.95318 0.36948 0.0
H1785 H 0.86464 0.91174 0.3239 0.0
H1786 H 0.92573 0.92899 0.37099 0.0
H1787 H 0.89502 0.88725 0.32589 0.0
H1788 H 0.94621 0.84079 0.35702 0.0
H1789 H 0.91453 0.86378 0.35767 0.0
H1790 H 0.95321 0.91761 0.33964 0.0
H1791 H 0.98463 0.8947 0.3384 0.0
C1792 C 0.89496 0.93881 0.35994 0.0
C1793 C 0.87765 0.93436 0.34649 0.0
C1794 C 0.91238 0.92503 0.36081 0.0
C1795 C 0.9126 0.90631 0.3486 0.0
C1796 C 0.89509 0.90154 0.33555 0.0
C1797 C 0.87783 0.91558 0.33432 0.0
C1798 C 0.9479 0.85756 0.35332 0.0
C1799 C 0.9678 0.86601 0.34765 0.0
C1800 C 0.92982 0.87062 0.35358 0.0
C1801 C 0.93155 0.89239 0.34871 0.0
C1802 C 0.95154 0.90089 0.34355 0.0
C1803 C 0.96946 0.88778 0.34279 0.0
H1804 H 0.14556 0.95578 0.37673 0.0
H1805 H 0.12259 0.97101 0.31374 0.0
H1806 H 0.12439 0.92305 0.37643 0.0
H1807 H 0.1011 0.93888 0.31364 0.0
H1808 H 0.07825 0.87122 0.31077 0.0
H1809 H 0.1032 0.90097 0.31177 0.0
H1810 H 0.08775 0.91173 0.37794 0.0
H1811 H 0.06333 0.88158 0.37706 0.0
C1812 C 0.13599 0.95214 0.36286 0.0
C1813 C 0.13574 0.96594 0.34527 0.0
C1814 C 0.12378 0.93346 0.36271 0.0
C1815 C 0.11107 0.92826 0.34497 0.0
C1816 C 0.11099 0.9421 0.32739 0.0
C1817 C 0.1232 0.96066 0.32752 0.0
C1818 C 0.08035 0.87983 0.32557 0.0
C1819 C 0.06876 0.87415 0.3438 0.0
C1820 C 0.09455 0.89697 0.32613 0.0
C1821 C 0.09737 0.9089 0.3449 0.0
C1822 C 0.08617 0.90279 0.36329 0.0
C1823 C 0.07206 0.88558 0.36275 0.0
H1824 H 0.0125 0.89262 0.66396 0.0
H1825 H 0.0501 0.83969 0.64131 0.0
H1826 H 0.04412 0.91531 0.66363 0.0
H1827 H 0.08199 0.86241 0.6416 0.0
H1828 H 0.13258 0.90851 0.6776 0.0
H1829 H 0.10197 0.88434 0.67501 0.0
H1830 H 0.0713 0.92781 0.63156 0.0
H1831 H 0.10205 0.95167 0.63361 0.0
C1832 C 0.02755 0.88586 0.65893 0.0
C1833 C 0.02891 0.86443 0.65264 0.0
C1834 C 0.04556 0.89884 0.65869 0.0
C1835 C 0.06537 0.89052 0.65261 0.0
C1836 C 0.06683 0.86909 0.64639 0.0
C1837 C 0.04865 0.85618 0.64614 0.0
C1838 C 0.11934 0.9128 0.6674 0.0
C1839 C 0.11962 0.93194 0.65583 0.0
C1840 C 0.10196 0.89895 0.66584 0.0
C1841 C 0.08441 0.9043 0.65308 0.0
C1842 C 0.0847 0.9234 0.64149 0.0
C1843 C 0.10226 0.93699 0.64266 0.0
H1844 H 0.1549 0.04872 0.64109 0.0
H1845 H 0.10883 0.01543 0.67978 0.0
H1846 H 0.13212 0.08058 0.64162 0.0
H1847 H 0.08598 0.04694 0.67971 0.0
H1848 H 0.044 0.09914 0.64303 0.0
H1849 H 0.0681 0.06853 0.6433 0.0
H1850 H 0.11476 0.10535 0.67769 0.0
H1851 H 0.09035 0.13597 0.67806 0.0
C1852 C 0.13993 0.04821 0.64962 0.0
C1853 C 0.13361 0.02965 0.66039 0.0
C1854 C 0.12702 0.06639 0.65 0.0
C1855 C 0.10742 0.06605 0.66073 0.0
C1856 C 0.10105 0.04749 0.67135 0.0
C1857 C 0.11413 0.02953 0.67139 0.0
C1858 C 0.05937 0.1007 0.6507 0.0
C1859 C 0.06531 0.11987 0.6606 0.0
C1860 C 0.0731 0.08322 0.65083 0.0
C1861 C 0.0932 0.08475 0.66042 0.0
C1862 C 0.09933 0.10394 0.67011 0.0
C1863 C 0.08536 0.12132 0.67042 0.0
H1864 H 0.95799 0.14574 0.68747 0.0
H1865 H 0.96939 0.13081 0.6214 0.0
H1866 H 0.9264 0.12337 0.68721 0.0
H1867 H 0.93838 0.10739 0.6213 0.0
H1868 H 0.87231 0.07818 0.62311 0.0
H1869 H 0.90119 0.10414 0.62245 0.0
H1870 H 0.91735 0.08742 0.68728 0.0
H1871 H 0.88784 0.06238 0.68815 0.0
C1872 C 0.9537 0.13762 0.67287 0.0
C1873 C 0.96615 0.13993 0.65447 0.0
C1874 C 0.93569 0.12461 0.67275 0.0
C1875 C 0.9299 0.11324 0.65433 0.0
C1876 C 0.94212 0.11604 0.63573 0.0
C1877 C 0.95997 0.12939 0.63577 0.0
C1878 C 0.88201 0.08019 0.63723 0.0
C1879 C 0.87783 0.06831 0.6557 0.0
C1880 C 0.89866 0.09497 0.63683 0.0
C1881 C 0.9117 0.09798 0.65481 0.0
C1882 C 0.90744 0.08596 0.67326 0.0
C1883 C 0.8906 0.07145 0.67374 0.0
H1884 H 0.90897 0.86523 0.6754 0.0
H1885 H 0.94605 0.88955 0.62285 0.0
H1886 H 0.88514 0.89613 0.6727 0.0
H1887 H 0.92262 0.92056 0.62064 0.0
H1888 H 0.89503 0.9836 0.65334 0.0
H1889 H 0.91616 0.95095 0.65188 0.0
H1890 H 0.85915 0.91432 0.64065 0.0
H1891 H 0.8379 0.94723 0.64144 0.0
C1892 C 0.91193 0.87708 0.66323 0.0
C1893 C 0.92935 0.87504 0.64936 0.0
C1894 C 0.89827 0.89463 0.66163 0.0
C1895 C 0.90214 0.91059 0.64646 0.0
C1896 C 0.91936 0.90841 0.63244 0.0
C1897 C 0.93271 0.89067 0.63371 0.0
C1898 C 0.88703 0.96862 0.65031 0.0
C1899 C 0.86487 0.96789 0.64744 0.0
C1900 C 0.89911 0.94999 0.64946 0.0
C1901 C 0.8892 0.93024 0.6462 0.0
C1902 C 0.86706 0.92943 0.64322 0.0
C1903 C 0.85499 0.9482 0.64355 0.0
H1904 H 0.37648 0.0284 0.12961 0.0
H1905 H 0.31239 0.04335 0.14919 0.0
H1906 H 0.37658 0.05932 0.10618 0.0
H1907 H 0.31279 0.07503 0.12692 0.0
H1908 H 0.30977 0.11498 0.06692 0.0
H1909 H 0.31048 0.08523 0.09172 0.0
H1910 H 0.37768 0.09598 0.10251 0.0
H1911 H 0.37705 0.12486 0.07663 0.0
C1912 C 0.36259 0.03862 0.12922 0.0
C1913 C 0.3444 0.03346 0.14108 0.0
C1914 C 0.36263 0.05644 0.11586 0.0
C1915 C 0.34461 0.06974 0.11441 0.0
C1916 C 0.32676 0.06494 0.12708 0.0
C1917 C 0.32657 0.04688 0.14005 0.0
C1918 C 0.32466 0.11093 0.07464 0.0
C1919 C 0.34336 0.12213 0.06982 0.0
C1920 C 0.32508 0.09397 0.08902 0.0
C1921 C 0.34415 0.08809 0.09931 0.0
C1922 C 0.36278 0.09966 0.09467 0.0
C1923 C 0.36242 0.11633 0.07993 0.0
H1924 H 0.36003 0.95068 0.84161 0.0
H1925 H 0.33455 0.98712 0.89405 0.0
H1926 H 0.36053 0.91871 0.86421 0.0
H1927 H 0.33563 0.95545 0.91663 0.0
H1928 H 0.36644 0.89904 0.95395 0.0
H1929 H 0.36794 0.92983 0.93016 0.0
H1930 H 0.32795 0.897 0.88496 0.0
H1931 H 0.32596 0.86627 0.90902 0.0
C1932 C 0.35476 0.95187 0.85798 0.0
C1933 C 0.34724 0.9713 0.86612 0.0
C1934 C 0.35495 0.93363 0.87081 0.0
C1935 C 0.34814 0.93475 0.89208 0.0
C1936 C 0.34105 0.95427 0.90029 0.0
C1937 C 0.34039 0.97232 0.88738 0.0
C1938 C 0.35803 0.89836 0.93891 0.0
C1939 C 0.346 0.88034 0.93334 0.0
C1940 C 0.35888 0.91595 0.92535 0.0
C1941 C 0.34811 0.91566 0.90579 0.0
C1942 C 0.3365 0.89747 0.89994 0.0
C1943 C 0.33526 0.88001 0.91372 0.0
H1944 H 0.03154 0.31 0.86761 0.0
H1945 H 0.03971 0.37747 0.85697 0.0
H1946 H 0.06275 0.30972 0.89052 0.0
H1947 H 0.07138 0.37713 0.87964 0.0
H1948 H 0.10901 0.3723 0.94253 0.0
H1949 H 0.07957 0.37304 0.91726 0.0
H1950 H 0.10105 0.31338 0.89052 0.0
H1951 H 0.13026 0.31243 0.91615 0.0
C1952 C 0.04017 0.32475 0.86997 0.0
C1953 C 0.03314 0.34378 0.86055 0.0
C1954 C 0.05816 0.32456 0.88302 0.0
C1955 C 0.06956 0.3434 0.88695 0.0
C1956 C 0.06278 0.36239 0.87715 0.0
C1957 C 0.04474 0.36257 0.86406 0.0
C1958 C 0.10745 0.35935 0.93124 0.0
C1959 C 0.12187 0.34224 0.93138 0.0
C1960 C 0.09068 0.35986 0.91664 0.0
C1961 C 0.08797 0.34329 0.90183 0.0
C1962 C 0.10254 0.32628 0.90187 0.0
C1963 C 0.11931 0.32575 0.91651 0.0
H1964 H 0.62648 0.10955 0.94245 0.0
H1965 H 0.69046 0.12543 0.92294 0.0
H1966 H 0.62646 0.07933 0.91806 0.0
H1967 H 0.69034 0.09535 0.89827 0.0
H1968 H 0.69108 0.02521 0.87762 0.0
H1969 H 0.69066 0.05652 0.90039 0.0
H1970 H 0.62657 0.07067 0.87982 0.0
H1971 H 0.62689 0.03896 0.85712 0.0
C1972 C 0.64052 0.10661 0.93289 0.0
C1973 C 0.65853 0.11978 0.93468 0.0
C1974 C 0.64044 0.0894 0.91879 0.0
C1975 C 0.65838 0.08494 0.90622 0.0
C1976 C 0.67635 0.09822 0.90792 0.0
C1977 C 0.67641 0.11548 0.92199 0.0
C1978 C 0.6769 0.03501 0.87789 0.0
C1979 C 0.65899 0.02961 0.86561 0.0
C1980 C 0.67672 0.05305 0.89085 0.0
C1981 C 0.65861 0.06612 0.89189 0.0
C1982 C 0.6407 0.06079 0.87951 0.0
C1983 C 0.6409 0.04272 0.86645 0.0
H1984 H 0.96092 0.62473 0.8549 0.0
H1985 H 0.97271 0.68964 0.8744 0.0
H1986 H 0.9287 0.6241 0.87682 0.0
H1987 H 0.94093 0.68891 0.89645 0.0
H1988 H 0.87246 0.68816 0.91844 0.0
H1989 H 0.90239 0.68778 0.8937 0.0
H1990 H 0.91896 0.62438 0.91467 0.0
H1991 H 0.88879 0.62463 0.93912 0.0
C1992 C 0.95662 0.63884 0.86384 0.0
C1993 C 0.96933 0.65722 0.86294 0.0
C1994 C 0.93825 0.63845 0.87646 0.0
C1995 C 0.93223 0.65648 0.88834 0.0
C1996 C 0.94491 0.67487 0.88725 0.0
C1997 C 0.96322 0.67524 0.87471 0.0
C1998 C 0.88243 0.67411 0.91767 0.0
C1999 C 0.87836 0.65648 0.93079 0.0
C2000 C 0.89963 0.67392 0.90357 0.0
C2001 C 0.91313 0.65609 0.90229 0.0
C2002 C 0.90875 0.63827 0.9151 0.0
C2003 C 0.89155 0.63847 0.92922 0.0
H2004 H 0.62324 0.96105 0.14188 0.0
H2005 H 0.68797 0.9749 0.1233 0.0
H2006 H 0.62372 0.92917 0.11951 0.0
H2007 H 0.68833 0.94342 0.10072 0.0
H2008 H 0.6892 0.87432 0.07879 0.0
H2009 H 0.68834 0.90484 0.10289 0.0
H2010 H 0.6245 0.91959 0.08193 0.0
H2011 H 0.62522 0.88889 0.05821 0.0
C2012 C 0.63752 0.95731 0.13298 0.0
C2013 C 0.65555 0.97046 0.13433 0.0
C2014 C 0.63778 0.93912 0.12011 0.0
C2015 C 0.65608 0.93373 0.10836 0.0
C2016 C 0.6741 0.94691 0.1098 0.0
C2017 C 0.67383 0.96505 0.12264 0.0
C2018 C 0.67498 0.88407 0.07939 0.0
C2019 C 0.65731 0.87926 0.06659 0.0
C2020 C 0.67451 0.9016 0.09312 0.0
C2021 C 0.65635 0.91467 0.09432 0.0
C2022 C 0.63862 0.9097 0.08161 0.0
C2023 C 0.6391 0.89219 0.0679 0.0
H2024 H 0.04223 0.68641 0.14868 0.0
H2025 H 0.02772 0.62299 0.12656 0.0
H2026 H 0.07403 0.68698 0.12658 0.0
H2027 H 0.05876 0.6239 0.10337 0.0
H2028 H 0.12481 0.62413 0.07548 0.0
H2029 H 0.09551 0.62287 0.10079 0.0
H2030 H 0.08493 0.69034 0.09154 0.0
H2031 H 0.11511 0.69166 0.06727 0.0
C2032 C 0.04586 0.6726 0.13899 0.0
C2033 C 0.03257 0.65465 0.13931 0.0
C2034 C 0.06399 0.67298 0.12614 0.0
C2035 C 0.069 0.65557 0.11293 0.0
C2036 C 0.05573 0.63749 0.11353 0.0
C2037 C 0.03783 0.63696 0.12673 0.0
C2038 C 0.11625 0.63868 0.079 0.0
C2039 C 0.12219 0.65799 0.06945 0.0
C2040 C 0.09933 0.63796 0.0934 0.0
C2041 C 0.08765 0.65648 0.09826 0.0
C2042 C 0.09372 0.67581 0.08862 0.0
C2043 C 0.11093 0.67659 0.07455 0.0
H2044 H 0.96034 0.37722 0.14454 0.0
H2045 H 0.9714 0.31145 0.12771 0.0
H2046 H 0.92801 0.37724 0.12278 0.0
H2047 H 0.93958 0.31158 0.10572 0.0
H2048 H 0.87161 0.31211 0.0825 0.0
H2049 H 0.90128 0.313 0.10757 0.0
H2050 H 0.91818 0.37589 0.08534 0.0
H2051 H 0.88822 0.37518 0.06067 0.0
C2052 C 0.95584 0.36279 0.13623 0.0
C2053 C 0.9684 0.34435 0.13782 0.0
C2054 C 0.93741 0.36282 0.12369 0.0
C2055 C 0.93119 0.3444 0.11252 0.0
C2056 C 0.94368 0.32593 0.11437 0.0
C2057 C 0.96203 0.32591 0.12687 0.0
C2058 C 0.8816 0.32616 0.08307 0.0
C2059 C 0.87766 0.34352 0.06956 0.0
C2060 C 0.89865 0.32665 0.09736 0.0
C2061 C 0.91218 0.34448 0.0984 0.0
C2062 C 0.90794 0.36202 0.08515 0.0
C2063 C 0.89086 0.36154 0.07089 0.0
H2064 H 0.64435 0.87728 0.5406 0.0
H2065 H 0.63057 0.81062 0.53067 0.0
H2066 H 0.62167 0.87718 0.57223 0.0
H2067 H 0.60758 0.81062 0.56177 0.0
H2068 H 0.58164 0.81253 0.62902 0.0
H2069 H 0.60733 0.81303 0.59991 0.0
H2070 H 0.58418 0.87491 0.5806 0.0
H2071 H 0.55893 0.87461 0.61004 0.0
C2072 C 0.63656 0.86261 0.54523 0.0
C2073 C 0.63921 0.84398 0.53316 0.0
C2074 C 0.62345 0.86257 0.56324 0.0
C2075 C 0.61273 0.8439 0.5695 0.0
C2076 C 0.6158 0.8252 0.55761 0.0
C2077 C 0.6289 0.82523 0.53968 0.0
C2078 C 0.58208 0.82624 0.61856 0.0
C2079 C 0.56823 0.84349 0.62175 0.0
C2080 C 0.59675 0.82651 0.60184 0.0
C2081 C 0.59782 0.84401 0.58789 0.0
C2082 C 0.58402 0.86132 0.59122 0.0
C2083 C 0.56942 0.86107 0.60798 0.0
H2084 H 0.12498 0.56006 0.60965 0.0
H2085 H 0.18841 0.58085 0.62617 0.0
H2086 H 0.1245 0.58504 0.5799 0.0
H2087 H 0.18781 0.60609 0.59664 0.0
H2088 H 0.18877 0.62738 0.52676 0.0
H2089 H 0.18859 0.60446 0.55795 0.0
H2090 H 0.12383 0.62329 0.57144 0.0
H2091 H 0.12392 0.64611 0.53982 0.0
C2092 C 0.13878 0.57005 0.60698 0.0
C2093 C 0.15679 0.56841 0.62015 0.0
C2094 C 0.13843 0.58448 0.59004 0.0
C2095 C 0.15612 0.59754 0.58588 0.0
C2096 C 0.17403 0.59606 0.59925 0.0
C2097 C 0.17436 0.58166 0.61621 0.0
C2098 C 0.1745 0.62672 0.53641 0.0
C2099 C 0.15634 0.63852 0.53083 0.0
C2100 C 0.17445 0.61367 0.55438 0.0
C2101 C 0.15622 0.61207 0.56721 0.0
C2102 C 0.13806 0.62403 0.56174 0.0
C2103 C 0.13814 0.63717 0.54373 0.0
H2104 H 0.34324 0.14009 0.54622 0.0
H2105 H 0.39289 0.17227 0.51121 0.0
H2106 H 0.36585 0.14027 0.57818 0.0
H2107 H 0.41552 0.17191 0.54286 0.0
H2108 H 0.45569 0.14041 0.59729 0.0
H2109 H 0.4322 0.1398 0.56623 0.0
H2110 H 0.3837 0.17262 0.6021 0.0
H2111 H 0.40742 0.17374 0.63316 0.0
C2112 C 0.359 0.14704 0.54534 0.0
C2113 C 0.36635 0.15617 0.5263 0.0
C2114 C 0.37183 0.14724 0.56358 0.0
C2115 C 0.39235 0.15611 0.56286 0.0
C2116 C 0.39977 0.16493 0.54374 0.0
C2117 C 0.38681 0.16516 0.5257 0.0
C2118 C 0.44002 0.14752 0.59854 0.0
C2119 C 0.43338 0.15721 0.61757 0.0
C2120 C 0.42664 0.14718 0.5808 0.0
C2121 C 0.4062 0.1561 0.58189 0.0
C2122 C 0.39938 0.16552 0.60098 0.0
C2123 C 0.41296 0.16628 0.61863 0.0
H2124 H 0.87462 0.35312 0.54344 0.0
H2125 H 0.81542 0.38216 0.52389 0.0
H2126 H 0.87493 0.37557 0.57538 0.0
H2127 H 0.81585 0.40457 0.55542 0.0
H2128 H 0.81108 0.42548 0.62419 0.0
H2129 H 0.81179 0.40102 0.59404 0.0
H2130 H 0.87877 0.4138 0.58518 0.0
H2131 H 0.87812 0.43809 0.61556 0.0
C2132 C 0.86173 0.36429 0.54595 0.0
C2133 C 0.84499 0.36586 0.5312 0.0
C2134 C 0.86194 0.37719 0.56416 0.0
C2135 C 0.84534 0.39175 0.56797 0.0
C2136 C 0.82868 0.39328 0.55314 0.0
C2137 C 0.82852 0.38052 0.53498 0.0
C2138 C 0.82597 0.423 0.61587 0.0
C2139 C 0.84451 0.43378 0.62215 0.0
C2140 C 0.82637 0.40906 0.59855 0.0
C2141 C 0.84532 0.40557 0.58715 0.0
C2142 C 0.86397 0.41601 0.59374 0.0
C2143 C 0.86356 0.43002 0.61104 0.0
H2144 H 0.54362 0.14443 0.40085 0.0
H2145 H 0.5953 0.16647 0.36123 0.0
H2146 H 0.56729 0.14434 0.43172 0.0
H2147 H 0.61917 0.1659 0.39222 0.0
H2148 H 0.65572 0.13496 0.45173 0.0
H2149 H 0.63327 0.13502 0.41967 0.0
H2150 H 0.58808 0.17584 0.45144 0.0
H2151 H 0.61057 0.17623 0.48314 0.0
C2152 C 0.56007 0.14918 0.39874 0.0
C2153 C 0.56763 0.15554 0.37869 0.0
C2154 C 0.57356 0.14915 0.41639 0.0
C2155 C 0.59499 0.15508 0.41426 0.0
C2156 C 0.60271 0.16115 0.39418 0.0
C2157 C 0.58906 0.1616 0.37655 0.0
C2158 C 0.641 0.14394 0.45179 0.0
C2159 C 0.63485 0.15557 0.46988 0.0
C2160 C 0.62827 0.14407 0.43347 0.0
C2161 C 0.60899 0.15542 0.43319 0.0
C2162 C 0.60283 0.1669 0.45133 0.0
C2163 C 0.61572 0.16715 0.46941 0.0
H2164 H 0.87654 0.5568 0.38858 0.0
H2165 H 0.81325 0.57665 0.37043 0.0
H2166 H 0.87595 0.5818 0.41826 0.0
H2167 H 0.81277 0.60195 0.39998 0.0
H2168 H 0.81058 0.62407 0.46986 0.0
H2169 H 0.81134 0.60089 0.43882 0.0
H2170 H 0.87612 0.62012 0.42604 0.0
H2171 H 0.87546 0.64318 0.45745 0.0
C2172 C 0.86252 0.56658 0.39089 0.0
C2173 C 0.8449 0.56471 0.37724 0.0
C2174 C 0.86226 0.58102 0.4078 0.0
C2175 C 0.84433 0.5939 0.41147 0.0
C2176 C 0.82674 0.5921 0.39772 0.0
C2177 C 0.82702 0.57766 0.38076 0.0
C2178 C 0.82498 0.62343 0.46039 0.0
C2179 C 0.843 0.63539 0.46612 0.0
C2180 C 0.82535 0.61024 0.44251 0.0
C2181 C 0.84378 0.60866 0.42995 0.0
C2182 C 0.86175 0.62082 0.43554 0.0
C2183 C 0.86135 0.6341 0.45344 0.0
H2184 H 0.35189 0.879 0.45854 0.0
H2185 H 0.37172 0.81421 0.47036 0.0
H2186 H 0.37238 0.87912 0.4254 0.0
H2187 H 0.39247 0.81446 0.43775 0.0
H2188 H 0.41454 0.81397 0.36985 0.0
H2189 H 0.38959 0.81485 0.3996 0.0
H2190 H 0.40933 0.87914 0.41425 0.0
H2191 H 0.43382 0.87842 0.38419 0.0
C2192 C 0.36059 0.86481 0.45404 0.0
C2193 C 0.36023 0.84662 0.46705 0.0
C2194 C 0.3724 0.86489 0.43513 0.0
C2195 C 0.38404 0.84678 0.42888 0.0
C2196 C 0.38341 0.82855 0.44184 0.0
C2197 C 0.37163 0.82847 0.46066 0.0
C2198 C 0.41336 0.82835 0.3793 0.0
C2199 C 0.42622 0.84607 0.37478 0.0
C2200 C 0.39916 0.82883 0.39642 0.0
C2201 C 0.39757 0.84701 0.40944 0.0
C2202 C 0.40996 0.86496 0.40444 0.0
C2203 C 0.42411 0.8645 0.38728 0.0
H2204 H 0.12404 0.43936 0.38846 0.0
H2205 H 0.18962 0.42288 0.37597 0.0
H2206 H 0.12364 0.41491 0.41867 0.0
H2207 H 0.18915 0.39826 0.40605 0.0
H2208 H 0.18742 0.37893 0.47662 0.0
H2209 H 0.18723 0.4014 0.44507 0.0
H2210 H 0.12563 0.37635 0.4275 0.0
H2211 H 0.12574 0.35386 0.45936 0.0
C2212 C 0.13834 0.43043 0.39211 0.0
C2213 C 0.15691 0.43311 0.37994 0.0
C2214 C 0.13805 0.41632 0.40932 0.0
C2215 C 0.15637 0.40469 0.41477 0.0
C2216 C 0.17486 0.40719 0.4024 0.0
C2217 C 0.17511 0.42122 0.38513 0.0
C2218 C 0.17384 0.37816 0.46602 0.0
C2219 C 0.15657 0.36466 0.47048 0.0
C2220 C 0.1738 0.39095 0.44786 0.0
C2221 C 0.15646 0.3906 0.43376 0.0
C2222 C 0.13916 0.37707 0.43818 0.0
C2223 C 0.13925 0.36415 0.45634 0.0
H2224 H 0.61074 0.55945 0.87527 0.0
H2225 H 0.62557 0.57916 0.8111 0.0
H2226 H 0.5804 0.5837 0.87573 0.0
H2227 H 0.5955 0.60375 0.8117 0.0
H2228 H 0.52575 0.62472 0.81139 0.0
H2229 H 0.55703 0.60192 0.81153 0.0
H2230 H 0.57105 0.62144 0.87599 0.0
H2231 H 0.53933 0.64405 0.87598 0.0
C2232 C 0.60758 0.56906 0.86131 0.0
C2233 C 0.62045 0.56734 0.84311 0.0
C2234 C 0.59028 0.58307 0.86163 0.0
C2235 C 0.5855 0.59565 0.84375 0.0
C2236 C 0.59857 0.59407 0.82563 0.0
C2237 C 0.61585 0.58005 0.82531 0.0
C2238 C 0.53553 0.6242 0.82559 0.0
C2239 C 0.53008 0.63616 0.84369 0.0
C2240 C 0.55355 0.61123 0.82561 0.0
C2241 C 0.5666 0.60989 0.84374 0.0
C2242 C 0.56121 0.62195 0.86184 0.0
C2243 C 0.54312 0.63498 0.86181 0.0
H2244 H 0.42012 0.62745 0.81086 0.0
H2245 H 0.43923 0.61264 0.87523 0.0
H2246 H 0.39544 0.59746 0.81129 0.0
H2247 H 0.41493 0.58235 0.87551 0.0
H2248 H 0.35528 0.54045 0.87516 0.0
H2249 H 0.37743 0.57253 0.87544 0.0
H2250 H 0.39739 0.55912 0.81099 0.0
H2251 H 0.37503 0.52755 0.81058 0.0
C2252 C 0.41906 0.61776 0.82508 0.0
C2253 C 0.43167 0.62233 0.84297 0.0
C2254 C 0.405 0.60052 0.82531 0.0
C2255 C 0.40326 0.58744 0.84341 0.0
C2256 C 0.41567 0.59224 0.86141 0.0
C2257 C 0.42971 0.60951 0.86119 0.0
C2258 C 0.36434 0.54447 0.86105 0.0
C2259 C 0.36342 0.53151 0.84286 0.0
C2260 C 0.3771 0.56276 0.86123 0.0
C2261 C 0.38916 0.56842 0.84321 0.0
C2262 C 0.38806 0.55546 0.82501 0.0
C2263 C 0.37533 0.53725 0.82483 0.0
H2264 H 0.38941 0.44074 0.87324 0.0
H2265 H 0.37129 0.41793 0.81094 0.0
H2266 H 0.41929 0.41595 0.87368 0.0
H2267 H 0.40091 0.3928 0.81155 0.0
H2268 H 0.47092 0.37218 0.80906 0.0
H2269 H 0.43935 0.39453 0.80945 0.0
H2270 H 0.42851 0.37816 0.87537 0.0
H2271 H 0.46056 0.35597 0.87507 0.0
C2272 C 0.39173 0.43031 0.8597 0.0
C2273 C 0.3781 0.43137 0.84199 0.0
C2274 C 0.40875 0.41599 0.86003 0.0
C2275 C 0.41252 0.40242 0.84264 0.0
C2276 C 0.39863 0.40325 0.82508 0.0
C2277 C 0.38161 0.41758 0.82475 0.0
C2278 C 0.46177 0.37325 0.82363 0.0
C2279 C 0.46825 0.36236 0.84206 0.0
C2280 C 0.44357 0.38597 0.8238 0.0
C2281 C 0.43137 0.38811 0.84242 0.0
C2282 C 0.4377 0.37701 0.86083 0.0
C2283 C 0.45596 0.36422 0.86064 0.0
H2284 H 0.58106 0.37244 0.81014 0.0
H2285 H 0.55835 0.38917 0.87284 0.0
H2286 H 0.60577 0.40245 0.81114 0.0
H2287 H 0.58271 0.41937 0.87369 0.0
H2288 H 0.64265 0.46065 0.87597 0.0
H2289 H 0.6204 0.42866 0.87556 0.0
H2290 H 0.604 0.441 0.8099 0.0
H2291 H 0.62643 0.47256 0.81022 0.0
C2292 C 0.58133 0.38255 0.82411 0.0
C2293 C 0.56772 0.37851 0.84136 0.0
C2294 C 0.59542 0.39978 0.82467 0.0
C2295 C 0.59619 0.41334 0.84249 0.0
C2296 C 0.58273 0.4091 0.85985 0.0
C2297 C 0.56865 0.39187 0.85928 0.0
C2298 C 0.63436 0.45642 0.86145 0.0
C2299 C 0.63627 0.46911 0.84315 0.0
C2300 C 0.62154 0.43818 0.86123 0.0
C2301 C 0.61043 0.43226 0.84268 0.0
C2302 C 0.61257 0.44489 0.82435 0.0
C2303 C 0.62533 0.46308 0.82458 0.0
H2304 H 0.5278 0.37572 0.19033 0.0
H2305 H 0.54043 0.35693 0.1254 0.0
H2306 H 0.55916 0.39838 0.19003 0.0
H2307 H 0.57229 0.37939 0.12523 0.0
H2308 H 0.61217 0.44127 0.12604 0.0
H2309 H 0.58186 0.41699 0.12566 0.0
H2310 H 0.59752 0.39661 0.18947 0.0
H2311 H 0.62755 0.42125 0.18999 0.0
C2312 C 0.53739 0.37631 0.17601 0.0
C2313 C 0.53164 0.36456 0.15787 0.0
C2314 C 0.55547 0.38921 0.1759 0.0
C2315 C 0.5683 0.39066 0.15764 0.0
C2316 C 0.56262 0.37879 0.13949 0.0
C2317 C 0.54446 0.36585 0.13961 0.0
C2318 C 0.60914 0.43158 0.13997 0.0
C2319 C 0.62215 0.43324 0.1581 0.0
C2320 C 0.59187 0.41755 0.1397 0.0
C2321 C 0.58724 0.40487 0.15754 0.0
C2322 C 0.60046 0.40637 0.17557 0.0
C2323 C 0.61772 0.42042 0.17585 0.0
H2324 H 0.64591 0.54057 0.12467 0.0
H2325 H 0.62714 0.52795 0.1896 0.0
H2326 H 0.6243 0.57302 0.12482 0.0
H2327 H 0.60536 0.55994 0.18963 0.0
H2328 H 0.58337 0.62838 0.19021 0.0
H2329 H 0.60812 0.59843 0.18913 0.0
H2330 H 0.58672 0.58304 0.12558 0.0
H2331 H 0.56233 0.61323 0.12651 0.0
C2332 C 0.63718 0.54473 0.13894 0.0
C2333 C 0.6382 0.53174 0.1571 0.0
C2334 C 0.62475 0.56324 0.13901 0.0
C2335 C 0.61315 0.56909 0.15727 0.0
C2336 C 0.61436 0.55611 0.17544 0.0
C2337 C 0.62673 0.53767 0.17536 0.0
C2338 C 0.58407 0.61867 0.17597 0.0
C2339 C 0.57085 0.62307 0.1585 0.0
C2340 C 0.59817 0.60146 0.17538 0.0
C2341 C 0.5993 0.58827 0.15731 0.0
C2342 C 0.58641 0.59301 0.13965 0.0
C2343 C 0.57233 0.61022 0.14024 0.0
H2344 H 0.46006 0.64523 0.12707 0.0
H2345 H 0.47389 0.62372 0.19092 0.0
H2346 H 0.42806 0.62292 0.12661 0.0
H2347 H 0.44228 0.60139 0.19036 0.0
H2348 H 0.37345 0.57949 0.19041 0.0
H2349 H 0.40341 0.60424 0.19015 0.0
H2350 H 0.41915 0.58451 0.12618 0.0
H2351 H 0.38901 0.55997 0.12634 0.0
C2352 C 0.45623 0.63579 0.14099 0.0
C2353 C 0.46946 0.6362 0.15901 0.0
C2354 C 0.438 0.62296 0.14069 0.0
C2355 C 0.43263 0.61043 0.15847 0.0
C2356 C 0.44579 0.61107 0.17653 0.0
C2357 C 0.46399 0.62378 0.17679 0.0
C2358 C 0.38328 0.58049 0.17628 0.0
C2359 C 0.37897 0.56772 0.15845 0.0
C2360 C 0.40047 0.5946 0.17615 0.0
C2361 C 0.41368 0.59628 0.15816 0.0
C2362 C 0.40913 0.58375 0.14019 0.0
C2363 C 0.39198 0.56959 0.14035 0.0
H2364 H 0.41847 0.37153 0.18987 0.0
H2365 H 0.44173 0.38965 0.12777 0.0
H2366 H 0.39312 0.40099 0.18892 0.0
H2367 H 0.41677 0.41935 0.12699 0.0
H2368 H 0.35687 0.46036 0.12446 0.0
H2369 H 0.37919 0.42841 0.12467 0.0
H2370 H 0.39405 0.43935 0.19094 0.0
H2371 H 0.37153 0.4708 0.19082 0.0
C2372 C 0.41818 0.38183 0.17604 0.0
C2373 C 0.43215 0.37835 0.15895 0.0
C2374 C 0.40372 0.39875 0.17551 0.0
C2375 C 0.40293 0.41258 0.15789 0.0
C2376 C 0.41673 0.40886 0.14068 0.0
C2377 C 0.43117 0.39194 0.1412 0.0
C2378 C 0.3648 0.4558 0.13907 0.0
C2379 C 0.36247 0.46809 0.1576 0.0
C2380 C 0.37768 0.43759 0.13918 0.0
C2381 C 0.38843 0.43131 0.15783 0.0
C2382 C 0.38578 0.4435 0.1764 0.0
C2383 C 0.37296 0.46165 0.17628 0.0
H2384 H 0.87604 0.54255 0.64421 0.0
H2385 H 0.81174 0.52827 0.62443 0.0
H2386 H 0.87573 0.57447 0.62183 0.0
H2387 H 0.81155 0.55975 0.6019 0.0
H2388 H 0.81042 0.6279 0.5784 0.0
H2389 H 0.81135 0.59836 0.60366 0.0
H2390 H 0.87554 0.58348 0.58396 0.0
H2391 H 0.87474 0.61324 0.55905 0.0
C2392 C 0.86186 0.54624 0.63511 0.0
C2393 C 0.84394 0.53292 0.63605 0.0
C2394 C 0.8617 0.56444 0.62223 0.0
C2395 C 0.84359 0.56967 0.61011 0.0
C2396 C 0.82563 0.55639 0.61127 0.0
C2397 C 0.82581 0.53824 0.62408 0.0
C2398 C 0.82475 0.61837 0.57956 0.0
C2399 C 0.84246 0.62281 0.56668 0.0
C2400 C 0.82526 0.6014 0.59396 0.0
C2401 C 0.8435 0.58851 0.59577 0.0
C2402 C 0.86134 0.59324 0.58315 0.0
C2403 C 0.86082 0.6102 0.56876 0.0
H2404 H 0.81498 0.45822 0.3539 0.0
H2405 H 0.8806 0.46828 0.37159 0.0
H2406 H 0.81391 0.42616 0.37557 0.0
H2407 H 0.87932 0.43685 0.39436 0.0
H2408 H 0.87622 0.37031 0.42157 0.0
H2409 H 0.87784 0.39977 0.39635 0.0
H2410 H 0.81235 0.41546 0.41084 0.0
H2411 H 0.81055 0.3853 0.43505 0.0
C2412 C 0.82916 0.45359 0.36257 0.0
C2413 C 0.84786 0.46573 0.36115 0.0
C2414 C 0.82852 0.43528 0.37515 0.0
C2415 C 0.84644 0.42891 0.38699 0.0
C2416 C 0.86527 0.441 0.38528 0.0
C2417 C 0.86602 0.45911 0.37233 0.0
C2418 C 0.86215 0.37999 0.41916 0.0
C2419 C 0.84325 0.37553 0.4302 0.0
C2420 C 0.8631 0.397 0.40484 0.0
C2421 C 0.84526 0.41016 0.40151 0.0
C2422 C 0.82632 0.4055 0.41257 0.0
C2423 C 0.82528 0.38827 0.42659 0.0
H2424 H 0.54873 0.86119 0.34375 0.0
H2425 H 0.51252 0.83167 0.39419 0.0
H2426 H 0.58049 0.86097 0.36661 0.0
H2427 H 0.54398 0.83191 0.41701 0.0
H2428 H 0.59885 0.86149 0.45709 0.0
H2429 H 0.56797 0.86266 0.43342 0.0
H2430 H 0.60364 0.82948 0.385 0.0
H2431 H 0.63453 0.82788 0.40887 0.0
C2432 C 0.54754 0.85483 0.35973 0.0
C2433 C 0.52822 0.84645 0.36723 0.0
C2434 C 0.56567 0.8546 0.37271 0.0
C2435 C 0.56457 0.84643 0.3935 0.0
C2436 C 0.54517 0.83838 0.40107 0.0
C2437 C 0.52722 0.83821 0.38799 0.0
C2438 C 0.6001 0.85444 0.4414 0.0
C2439 C 0.61902 0.84451 0.43481 0.0
C2440 C 0.58245 0.85509 0.42791 0.0
C2441 C 0.58353 0.84621 0.40744 0.0
C2442 C 0.60253 0.83656 0.40068 0.0
C2443 C 0.62009 0.83552 0.41436 0.0
H2444 H 0.12447 0.61428 0.4394 0.0
H2445 H 0.18774 0.6305 0.41795 0.0
H2446 H 0.12393 0.58397 0.41514 0.0
H2447 H 0.18705 0.60043 0.39332 0.0
H2448 H 0.12311 0.54135 0.35615 0.0
H2449 H 0.12296 0.57387 0.37766 0.0
H2450 H 0.18825 0.56201 0.39583 0.0
H2451 H 0.1885 0.52998 0.37412 0.0
C2452 C 0.1382 0.61146 0.42935 0.0
C2453 C 0.15621 0.62467 0.43066 0.0
C2454 C 0.13782 0.59419 0.41534 0.0
C2455 C 0.15546 0.58974 0.40232 0.0
C2456 C 0.17332 0.60324 0.40335 0.0
C2457 C 0.17369 0.62052 0.41738 0.0
C2458 C 0.13743 0.54581 0.36466 0.0
C2459 C 0.1558 0.53313 0.36347 0.0
C2460 C 0.13733 0.56436 0.37705 0.0
C2461 C 0.15562 0.57056 0.38844 0.0
C2462 C 0.17401 0.55792 0.38701 0.0
C2463 C 0.1741 0.53945 0.37467 0.0
H2464 H 0.46056 0.12145 0.35331 0.0
H2465 H 0.47056 0.18803 0.36736 0.0
H2466 H 0.42824 0.12179 0.37497 0.0
H2467 H 0.43882 0.18826 0.38945 0.0
H2468 H 0.37137 0.18758 0.41377 0.0
H2469 H 0.40093 0.18645 0.38867 0.0
H2470 H 0.41809 0.12391 0.41175 0.0
H2471 H 0.38809 0.12481 0.43633 0.0
C2472 C 0.45582 0.13615 0.36099 0.0
C2473 C 0.46807 0.1547 0.35865 0.0
C2474 C 0.43739 0.13633 0.37351 0.0
C2475 C 0.43092 0.15505 0.384 0.0
C2476 C 0.44309 0.17365 0.38135 0.0
C2477 C 0.46139 0.17349 0.36877 0.0
C2478 C 0.3814 0.17355 0.41337 0.0
C2479 C 0.37748 0.15632 0.42706 0.0
C2480 C 0.39841 0.17294 0.39907 0.0
C2481 C 0.41199 0.15513 0.39824 0.0
C2482 C 0.40781 0.13775 0.41173 0.0
C2483 C 0.3907 0.13832 0.42594 0.0
H2484 H 0.18735 0.47163 0.62514 0.0
H2485 H 0.12318 0.45893 0.64629 0.0
H2486 H 0.18698 0.43917 0.60413 0.0
H2487 H 0.12295 0.42594 0.6255 0.0
H2488 H 0.1231 0.38407 0.56447 0.0
H2489 H 0.12243 0.41457 0.58851 0.0
H2490 H 0.18719 0.40102 0.60738 0.0
H2491 H 0.188 0.37086 0.58292 0.0
C2492 C 0.1732 0.46178 0.62544 0.0
C2493 C 0.15527 0.46785 0.63734 0.0
C2494 C 0.17305 0.44305 0.6135 0.0
C2495 C 0.15498 0.42986 0.6132 0.0
C2496 C 0.13706 0.43585 0.62525 0.0
C2497 C 0.13721 0.45467 0.63721 0.0
C2498 C 0.13713 0.38753 0.57387 0.0
C2499 C 0.15566 0.37519 0.5717 0.0
C2500 C 0.1367 0.40494 0.58775 0.0
C2501 C 0.15479 0.41034 0.59978 0.0
C2502 C 0.1731 0.39753 0.59807 0.0
C2503 C 0.17354 0.38018 0.58415 0.0
H2504 H 0.6284 0.18673 0.58222 0.0
H2505 H 0.61021 0.12457 0.55904 0.0
H2506 H 0.59891 0.186 0.6074 0.0
H2507 H 0.58032 0.12406 0.58382 0.0
H2508 H 0.52937 0.18886 0.62872 0.0
H2509 H 0.56086 0.18848 0.60631 0.0
H2510 H 0.5707 0.12199 0.62114 0.0
H2511 H 0.53864 0.12227 0.64325 0.0
C2512 C 0.61805 0.17293 0.58248 0.0
C2513 C 0.62153 0.15576 0.56859 0.0
C2514 C 0.6011 0.17254 0.59684 0.0
C2515 C 0.58717 0.15501 0.59757 0.0
C2516 C 0.59088 0.13769 0.58388 0.0
C2517 C 0.60791 0.13805 0.56956 0.0
C2518 C 0.53831 0.17418 0.62732 0.0
C2519 C 0.53152 0.15558 0.63771 0.0
C2520 C 0.55647 0.17399 0.61456 0.0
C2521 C 0.56835 0.15522 0.61193 0.0
C2522 C 0.56175 0.13666 0.62262 0.0
C2523 C 0.54349 0.13684 0.63539 0.0
H2524 H 0.46171 0.87855 0.64269 0.0
H2525 H 0.47267 0.81266 0.62627 0.0
H2526 H 0.42997 0.8788 0.62007 0.0
H2527 H 0.44137 0.813 0.6035 0.0
H2528 H 0.37285 0.81433 0.58062 0.0
H2529 H 0.40286 0.81486 0.60528 0.0
H2530 H 0.42073 0.87717 0.58223 0.0
H2531 H 0.39047 0.87679 0.55787 0.0
C2532 C 0.45733 0.86415 0.63427 0.0
C2533 C 0.46966 0.8456 0.63625 0.0
C2534 C 0.43924 0.86431 0.62123 0.0
C2535 C 0.43312 0.84591 0.60999 0.0
C2536 C 0.44542 0.82735 0.61216 0.0
C2537 C 0.46346 0.8272 0.62513 0.0
C2538 C 0.38317 0.82815 0.58086 0.0
C2539 C 0.37936 0.84548 0.56726 0.0
C2540 C 0.40041 0.82843 0.59493 0.0
C2541 C 0.41424 0.84604 0.59569 0.0
C2542 C 0.41025 0.86347 0.58223 0.0
C2543 C 0.39301 0.86319 0.56816 0.0
loop_
_geom_bond_atom_site_label_1
_geom_bond_atom_site_label_2
_geom_bond_distance
_geom_bond_site_symmetry_2
_ccdc_geom_bond_type
In0 O1 2.294 . S
In0 O2 2.326 . S
In0 O6 2.266 . S
In0 O7 2.326 . S
In0 O8 2.266 1_455 S
In0 O9 2.326 . S
In0 O11 2.294 . S
In0 O12 2.326 . S
O1 In0 2.294 . S
O1 C10 1.240 . S
O2 In0 2.326 . S
O2 C10 1.252 . S
C3 O6 1.252 . S
C3 O7 1.260 . S
C4 O11 1.240 . S
C4 O12 1.252 . S
C5 O8 1.252 . S
C5 O9 1.260 1_655 S
O6 In0 2.266 . S
O6 C3 1.252 . S
O7 In0 2.326 . S
O7 C3 1.260 . S
O8 In0 2.266 1_655 S
O8 C5 1.252 . S
O9 In0 2.326 . S
O9 C5 1.260 1_455 S
C10 O1 1.240 . S
C10 O2 1.252 . S
O11 In0 2.294 . S
O11 C4 1.240 . S
O12 In0 2.326 . S
O12 C4 1.252 . S
In13 O14 2.294 . S
In13 O15 2.326 . S
In13 O19 2.266 1_545 S
In13 O20 2.326 . S
In13 O21 2.266 . S
In13 O22 2.326 . S
In13 O24 2.294 . S
In13 O25 2.326 . S
O14 In13 2.294 . S
O14 C23 1.240 . S
O15 In13 2.326 . S
O15 C23 1.252 . S
C16 O19 1.252 . S
C16 O20 1.260 1_565 S
C17 O24 1.240 . S
C17 O25 1.252 . S
C18 O21 1.252 . S
C18 O22 1.260 . S
O19 In13 2.266 1_565 S
O19 C16 1.252 . S
O20 In13 2.326 . S
O20 C16 1.260 1_545 S
O21 In13 2.266 . S
O21 C18 1.252 . S
O22 In13 2.326 . S
O22 C18 1.260 . S
C23 O14 1.240 . S
C23 O15 1.252 . S
O24 In13 2.294 . S
O24 C17 1.240 . S
O25 In13 2.326 . S
O25 C17 1.252 . S
In26 O27 2.294 . S
In26 O28 2.326 . S
In26 O32 2.266 . S
In26 O33 2.326 . S
In26 O34 2.266 1_655 S
In26 O35 2.326 . S
In26 O37 2.294 . S
In26 O38 2.326 . S
O27 In26 2.294 . S
O27 C36 1.240 . S
O28 In26 2.326 . S
O28 C36 1.252 . S
C29 O32 1.252 . S
C29 O33 1.260 . S
C30 O37 1.240 . S
C30 O38 1.252 . S
C31 O34 1.252 . S
C31 O35 1.260 1_455 S
O32 In26 2.266 . S
O32 C29 1.252 . S
O33 In26 2.326 . S
O33 C29 1.260 . S
O34 In26 2.266 1_455 S
O34 C31 1.252 . S
O35 In26 2.326 . S
O35 C31 1.260 1_655 S
C36 O27 1.240 . S
C36 O28 1.252 . S
O37 In26 2.294 . S
O37 C30 1.240 . S
O38 In26 2.326 . S
O38 C30 1.252 . S
In39 O40 2.294 . S
In39 O41 2.326 . S
In39 O45 2.266 1_565 S
In39 O46 2.326 . S
In39 O47 2.266 . S
In39 O48 2.326 . S
In39 O50 2.294 . S
In39 O51 2.326 . S
O40 In39 2.294 . S
O40 C49 1.240 . S
O41 In39 2.326 . S
O41 C49 1.252 . S
C42 O45 1.252 . S
C42 O46 1.260 1_545 S
C43 O50 1.240 . S
C43 O51 1.252 . S
C44 O47 1.252 . S
C44 O48 1.260 . S
O45 In39 2.266 1_545 S
O45 C42 1.252 . S
O46 In39 2.326 . S
O46 C42 1.260 1_565 S
O47 In39 2.266 . S
O47 C44 1.252 . S
O48 In39 2.326 . S
O48 C44 1.260 . S
C49 O40 1.240 . S
C49 O41 1.252 . S
O50 In39 2.294 . S
O50 C43 1.240 . S
O51 In39 2.326 . S
O51 C43 1.252 . S
In52 O53 2.294 . S
In52 O54 2.326 . S
In52 O58 2.266 1_455 S
In52 O59 2.326 . S
In52 O60 2.266 . S
In52 O61 2.326 . S
In52 O63 2.294 . S
In52 O64 2.326 . S
O53 In52 2.294 . S
O53 C62 1.240 . S
O54 In52 2.326 . S
O54 C62 1.252 . S
C55 O58 1.252 . S
C55 O59 1.260 1_655 S
C56 O63 1.240 . S
C56 O64 1.252 . S
C57 O60 1.252 . S
C57 O61 1.260 . S
O58 In52 2.266 1_655 S
O58 C55 1.252 . S
O59 In52 2.326 . S
O59 C55 1.260 1_455 S
O60 In52 2.266 . S
O60 C57 1.252 . S
O61 In52 2.326 . S
O61 C57 1.260 . S
C62 O53 1.240 . S
C62 O54 1.252 . S
O63 In52 2.294 . S
O63 C56 1.240 . S
O64 In52 2.326 . S
O64 C56 1.252 . S
In65 O66 2.294 . S
In65 O67 2.326 . S
In65 O71 2.266 . S
In65 O72 2.326 . S
In65 O73 2.266 1_545 S
In65 O74 2.326 . S
In65 O76 2.294 . S
In65 O77 2.326 . S
O66 In65 2.294 . S
O66 C75 1.240 . S
O67 In65 2.326 . S
O67 C75 1.252 . S
C68 O71 1.252 . S
C68 O72 1.260 . S
C69 O76 1.240 . S
C69 O77 1.252 . S
C70 O73 1.252 . S
C70 O74 1.260 1_565 S
O71 In65 2.266 . S
O71 C68 1.252 . S
O72 In65 2.326 . S
O72 C68 1.260 . S
O73 In65 2.266 1_565 S
O73 C70 1.252 . S
O74 In65 2.326 . S
O74 C70 1.260 1_545 S
C75 O66 1.240 . S
C75 O67 1.252 . S
O76 In65 2.294 . S
O76 C69 1.240 . S
O77 In65 2.326 . S
O77 C69 1.252 . S
In78 O79 2.294 . S
In78 O80 2.326 . S
In78 O84 2.266 . S
In78 O85 2.326 . S
In78 O86 2.266 1_655 S
In78 O87 2.326 . S
In78 O89 2.294 . S
In78 O90 2.326 . S
O79 In78 2.294 . S
O79 C88 1.240 . S
O80 In78 2.326 . S
O80 C88 1.252 . S
C81 O84 1.252 . S
C81 O85 1.260 . S
C82 O89 1.240 . S
C82 O90 1.252 . S
C83 O86 1.252 . S
C83 O87 1.260 1_455 S
O84 In78 2.266 . S
O84 C81 1.252 . S
O85 In78 2.326 . S
O85 C81 1.260 . S
O86 In78 2.266 1_455 S
O86 C83 1.252 . S
O87 In78 2.326 . S
O87 C83 1.260 1_655 S
C88 O79 1.240 . S
C88 O80 1.252 . S
O89 In78 2.294 . S
O89 C82 1.240 . S
O90 In78 2.326 . S
O90 C82 1.252 . S
In91 O92 2.294 . S
In91 O93 2.326 . S
In91 O97 2.266 . S
In91 O98 2.326 . S
In91 O99 2.266 1_565 S
In91 O100 2.326 . S
In91 O102 2.294 . S
In91 O103 2.326 . S
O92 In91 2.294 . S
O92 C101 1.240 . S
O93 In91 2.326 . S
O93 C101 1.252 . S
C94 O97 1.252 . S
C94 O98 1.260 . S
C95 O102 1.240 . S
C95 O103 1.252 . S
C96 O99 1.252 . S
C96 O100 1.260 1_545 S
O97 In91 2.266 . S
O97 C94 1.252 . S
O98 In91 2.326 . S
O98 C94 1.260 . S
O99 In91 2.266 1_545 S
O99 C96 1.252 . S
O100 In91 2.326 . S
O100 C96 1.260 1_565 S
C101 O92 1.240 . S
C101 O93 1.252 . S
O102 In91 2.294 . S
O102 C95 1.240 . S
O103 In91 2.326 . S
O103 C95 1.252 . S
In104 O105 2.294 . S
In104 O106 2.326 . S
In104 O110 2.266 1_545 S
In104 O111 2.326 . S
In104 O112 2.266 . S
In104 O113 2.326 . S
In104 O115 2.294 . S
In104 O116 2.326 . S
O105 In104 2.294 . S
O105 C114 1.240 . S
O106 In104 2.326 . S
O106 C114 1.252 . S
C107 O110 1.252 . S
C107 O111 1.260 1_565 S
C108 O115 1.240 . S
C108 O116 1.252 . S
C109 O112 1.252 . S
C109 O113 1.260 . S
O110 In104 2.266 1_565 S
O110 C107 1.252 . S
O111 In104 2.326 . S
O111 C107 1.260 1_545 S
O112 In104 2.266 . S
O112 C109 1.252 . S
O113 In104 2.326 . S
O113 C109 1.260 . S
C114 O105 1.240 . S
C114 O106 1.252 . S
O115 In104 2.294 . S
O115 C108 1.240 . S
O116 In104 2.326 . S
O116 C108 1.252 . S
In117 O118 2.294 . S
In117 O119 2.326 . S
In117 O123 2.266 . S
In117 O124 2.326 . S
In117 O125 2.266 1_655 S
In117 O126 2.326 . S
In117 O128 2.294 . S
In117 O129 2.326 . S
O118 In117 2.294 . S
O118 C127 1.240 . S
O119 In117 2.326 . S
O119 C127 1.252 . S
C120 O123 1.252 . S
C120 O124 1.260 . S
C121 O128 1.240 . S
C121 O129 1.252 . S
C122 O125 1.252 . S
C122 O126 1.260 1_455 S
O123 In117 2.266 . S
O123 C120 1.252 . S
O124 In117 2.326 . S
O124 C120 1.260 . S
O125 In117 2.266 1_455 S
O125 C122 1.252 . S
O126 In117 2.326 . S
O126 C122 1.260 1_655 S
C127 O118 1.240 . S
C127 O119 1.252 . S
O128 In117 2.294 . S
O128 C121 1.240 . S
O129 In117 2.326 . S
O129 C121 1.252 . S
In130 O131 2.294 . S
In130 O132 2.326 . S
In130 O136 2.266 1_565 S
In130 O137 2.326 . S
In130 O138 2.266 . S
In130 O139 2.326 . S
In130 O141 2.294 . S
In130 O142 2.326 . S
O131 In130 2.294 . S
O131 C140 1.240 . S
O132 In130 2.326 . S
O132 C140 1.252 . S
C133 O136 1.252 . S
C133 O137 1.260 1_545 S
C134 O141 1.240 . S
C134 O142 1.252 . S
C135 O138 1.252 . S
C135 O139 1.260 . S
O136 In130 2.266 1_545 S
O136 C133 1.252 . S
O137 In130 2.326 . S
O137 C133 1.260 1_565 S
O138 In130 2.266 . S
O138 C135 1.252 . S
O139 In130 2.326 . S
O139 C135 1.260 . S
C140 O131 1.240 . S
C140 O132 1.252 . S
O141 In130 2.294 . S
O141 C134 1.240 . S
O142 In130 2.326 . S
O142 C134 1.252 . S
In143 O144 2.294 . S
In143 O145 2.326 . S
In143 O149 2.266 . S
In143 O150 2.326 . S
In143 O151 2.266 1_455 S
In143 O152 2.326 . S
In143 O154 2.294 . S
In143 O155 2.326 . S
O144 In143 2.294 . S
O144 C153 1.240 . S
O145 In143 2.326 . S
O145 C153 1.252 . S
C146 O149 1.252 . S
C146 O150 1.260 . S
C147 O154 1.240 . S
C147 O155 1.252 . S
C148 O151 1.252 . S
C148 O152 1.260 1_655 S
O149 In143 2.266 . S
O149 C146 1.252 . S
O150 In143 2.326 . S
O150 C146 1.260 . S
O151 In143 2.266 1_655 S
O151 C148 1.252 . S
O152 In143 2.326 . S
O152 C148 1.260 1_455 S
C153 O144 1.240 . S
C153 O145 1.252 . S
O154 In143 2.294 . S
O154 C147 1.240 . S
O155 In143 2.326 . S
O155 C147 1.252 . S
In156 O157 2.294 . S
In156 O158 2.326 . S
In156 O162 2.266 . S
In156 O163 2.326 . S
In156 O164 2.266 1_565 S
In156 O165 2.326 . S
In156 O167 2.294 . S
In156 O168 2.326 . S
O157 In156 2.294 . S
O157 C166 1.240 . S
O158 In156 2.326 . S
O158 C166 1.252 . S
C159 O162 1.252 . S
C159 O163 1.260 . S
C160 O167 1.240 . S
C160 O168 1.252 . S
C161 O164 1.252 . S
C161 O165 1.260 1_545 S
O162 In156 2.266 . S
O162 C159 1.252 . S
O163 In156 2.326 . S
O163 C159 1.260 . S
O164 In156 2.266 1_545 S
O164 C161 1.252 . S
O165 In156 2.326 . S
O165 C161 1.260 1_565 S
C166 O157 1.240 . S
C166 O158 1.252 . S
O167 In156 2.294 . S
O167 C160 1.240 . S
O168 In156 2.326 . S
O168 C160 1.252 . S
In169 O170 2.294 . S
In169 O171 2.326 . S
In169 O175 2.266 1_455 S
In169 O176 2.326 . S
In169 O177 2.266 . S
In169 O178 2.326 . S
In169 O180 2.294 . S
In169 O181 2.326 . S
O170 In169 2.294 . S
O170 C179 1.240 . S
O171 In169 2.326 . S
O171 C179 1.252 . S
C172 O175 1.252 . S
C172 O176 1.260 1_655 S
C173 O180 1.240 . S
C173 O181 1.252 . S
C174 O177 1.252 . S
C174 O178 1.260 . S
O175 In169 2.266 1_655 S
O175 C172 1.252 . S
O176 In169 2.326 . S
O176 C172 1.260 1_455 S
O177 In169 2.266 . S
O177 C174 1.252 . S
O178 In169 2.326 . S
O178 C174 1.260 . S
C179 O170 1.240 . S
C179 O171 1.252 . S
O180 In169 2.294 . S
O180 C173 1.240 . S
O181 In169 2.326 . S
O181 C173 1.252 . S
In182 O183 2.294 . S
In182 O184 2.326 . S
In182 O188 2.266 1_545 S
In182 O189 2.326 . S
In182 O190 2.266 . S
In182 O191 2.326 . S
In182 O193 2.294 . S
In182 O194 2.326 . S
O183 In182 2.294 . S
O183 C192 1.240 . S
O184 In182 2.326 . S
O184 C192 1.252 . S
C185 O188 1.252 . S
C185 O189 1.260 1_565 S
C186 O193 1.240 . S
C186 O194 1.252 . S
C187 O190 1.252 . S
C187 O191 1.260 . S
O188 In182 2.266 1_565 S
O188 C185 1.252 . S
O189 In182 2.326 . S
O189 C185 1.260 1_545 S
O190 In182 2.266 . S
O190 C187 1.252 . S
O191 In182 2.326 . S
O191 C187 1.260 . S
C192 O183 1.240 . S
C192 O184 1.252 . S
O193 In182 2.294 . S
O193 C186 1.240 . S
O194 In182 2.326 . S
O194 C186 1.252 . S
In195 O196 2.294 . S
In195 O197 2.326 . S
In195 O201 2.266 . S
In195 O202 2.326 . S
In195 O203 2.266 1_655 S
In195 O204 2.326 . S
In195 O206 2.294 . S
In195 O207 2.326 . S
O196 In195 2.294 . S
O196 C205 1.240 . S
O197 In195 2.326 . S
O197 C205 1.252 . S
C198 O201 1.252 . S
C198 O202 1.260 . S
C199 O206 1.240 . S
C199 O207 1.252 . S
C200 O203 1.252 . S
C200 O204 1.260 1_455 S
O201 In195 2.266 . S
O201 C198 1.252 . S
O202 In195 2.326 . S
O202 C198 1.260 . S
O203 In195 2.266 1_455 S
O203 C200 1.252 . S
O204 In195 2.326 . S
O204 C200 1.260 1_655 S
C205 O196 1.240 . S
C205 O197 1.252 . S
O206 In195 2.294 . S
O206 C199 1.240 . S
O207 In195 2.326 . S
O207 C199 1.252 . S
In208 O209 2.294 . S
In208 O210 2.326 . S
In208 O214 2.266 . S
In208 O215 2.326 . S
In208 O216 2.266 1_554 S
In208 O217 2.326 . S
In208 O219 2.294 . S
In208 O220 2.326 . S
O209 In208 2.294 . S
O209 C218 1.240 . S
O210 In208 2.326 . S
O210 C218 1.252 . S
C211 O214 1.252 . S
C211 O215 1.260 . S
C212 O219 1.240 . S
C212 O220 1.252 . S
C213 O216 1.252 . S
C213 O217 1.260 1_556 S
O214 In208 2.266 . S
O214 C211 1.252 . S
O215 In208 2.326 . S
O215 C211 1.260 . S
O216 In208 2.266 1_556 S
O216 C213 1.252 . S
O217 In208 2.326 . S
O217 C213 1.260 1_554 S
C218 O209 1.240 . S
C218 O210 1.252 . S
O219 In208 2.294 . S
O219 C212 1.240 . S
O220 In208 2.326 . S
O220 C212 1.252 . S
In221 O222 2.294 . S
In221 O223 2.326 . S
In221 O227 2.266 . S
In221 O228 2.326 . S
In221 O229 2.266 1_556 S
In221 O230 2.326 . S
In221 O232 2.294 . S
In221 O233 2.326 . S
O222 In221 2.294 . S
O222 C231 1.240 . S
O223 In221 2.326 . S
O223 C231 1.252 . S
C224 O227 1.252 . S
C224 O228 1.260 . S
C225 O232 1.240 . S
C225 O233 1.252 . S
C226 O229 1.252 . S
C226 O230 1.260 1_554 S
O227 In221 2.266 . S
O227 C224 1.252 . S
O228 In221 2.326 . S
O228 C224 1.260 . S
O229 In221 2.266 1_554 S
O229 C226 1.252 . S
O230 In221 2.326 . S
O230 C226 1.260 1_556 S
C231 O222 1.240 . S
C231 O223 1.252 . S
O232 In221 2.294 . S
O232 C225 1.240 . S
O233 In221 2.326 . S
O233 C225 1.252 . S
In234 O235 2.294 . S
In234 O236 2.326 . S
In234 O240 2.266 . S
In234 O241 2.326 . S
In234 O242 2.266 1_556 S
In234 O243 2.326 . S
In234 O245 2.294 . S
In234 O246 2.326 . S
O235 In234 2.294 . S
O235 C244 1.240 . S
O236 In234 2.326 . S
O236 C244 1.252 . S
C237 O240 1.252 . S
C237 O241 1.260 . S
C238 O245 1.240 . S
C238 O246 1.252 . S
C239 O242 1.252 . S
C239 O243 1.260 1_554 S
O240 In234 2.266 . S
O240 C237 1.252 . S
O241 In234 2.326 . S
O241 C237 1.260 . S
O242 In234 2.266 1_554 S
O242 C239 1.252 . S
O243 In234 2.326 . S
O243 C239 1.260 1_556 S
C244 O235 1.240 . S
C244 O236 1.252 . S
O245 In234 2.294 . S
O245 C238 1.240 . S
O246 In234 2.326 . S
O246 C238 1.252 . S
In247 O248 2.294 . S
In247 O249 2.326 . S
In247 O253 2.266 1_556 S
In247 O254 2.326 . S
In247 O255 2.266 . S
In247 O256 2.326 . S
In247 O258 2.294 . S
In247 O259 2.326 . S
O248 In247 2.294 . S
O248 C257 1.240 . S
O249 In247 2.326 . S
O249 C257 1.252 . S
C250 O253 1.252 . S
C250 O254 1.260 1_554 S
C251 O258 1.240 . S
C251 O259 1.252 . S
C252 O255 1.252 . S
C252 O256 1.260 . S
O253 In247 2.266 1_554 S
O253 C250 1.252 . S
O254 In247 2.326 . S
O254 C250 1.260 1_556 S
O255 In247 2.266 . S
O255 C252 1.252 . S
O256 In247 2.326 . S
O256 C252 1.260 . S
C257 O248 1.240 . S
C257 O249 1.252 . S
O258 In247 2.294 . S
O258 C251 1.240 . S
O259 In247 2.326 . S
O259 C251 1.252 . S
In260 O261 2.294 . S
In260 O262 2.326 . S
In260 O266 2.266 1_556 S
In260 O267 2.326 . S
In260 O268 2.266 . S
In260 O269 2.326 . S
In260 O271 2.294 . S
In260 O272 2.326 . S
O261 In260 2.294 . S
O261 C270 1.240 . S
O262 In260 2.326 . S
O262 C270 1.252 . S
C263 O266 1.252 . S
C263 O267 1.260 1_554 S
C264 O271 1.240 . S
C264 O272 1.252 . S
C265 O268 1.252 . S
C265 O269 1.260 . S
O266 In260 2.266 1_554 S
O266 C263 1.252 . S
O267 In260 2.326 . S
O267 C263 1.260 1_556 S
O268 In260 2.266 . S
O268 C265 1.252 . S
O269 In260 2.326 . S
O269 C265 1.260 . S
C270 O261 1.240 . S
C270 O262 1.252 . S
O271 In260 2.294 . S
O271 C264 1.240 . S
O272 In260 2.326 . S
O272 C264 1.252 . S
In273 O274 2.294 . S
In273 O275 2.326 . S
In273 O279 2.266 . S
In273 O280 2.326 . S
In273 O281 2.266 1_554 S
In273 O282 2.326 . S
In273 O284 2.294 . S
In273 O285 2.326 . S
O274 In273 2.294 . S
O274 C283 1.240 . S
O275 In273 2.326 . S
O275 C283 1.252 . S
C276 O279 1.252 . S
C276 O280 1.260 . S
C277 O284 1.240 . S
C277 O285 1.252 . S
C278 O281 1.252 . S
C278 O282 1.260 1_556 S
O279 In273 2.266 . S
O279 C276 1.252 . S
O280 In273 2.326 . S
O280 C276 1.260 . S
O281 In273 2.266 1_556 S
O281 C278 1.252 . S
O282 In273 2.326 . S
O282 C278 1.260 1_554 S
C283 O274 1.240 . S
C283 O275 1.252 . S
O284 In273 2.294 . S
O284 C277 1.240 . S
O285 In273 2.326 . S
O285 C277 1.252 . S
In286 O287 2.294 . S
In286 O288 2.326 . S
In286 O292 2.266 1_554 S
In286 O293 2.326 . S
In286 O294 2.266 . S
In286 O295 2.326 . S
In286 O297 2.294 . S
In286 O298 2.326 . S
O287 In286 2.294 . S
O287 C296 1.240 . S
O288 In286 2.326 . S
O288 C296 1.252 . S
C289 O292 1.252 . S
C289 O293 1.260 1_556 S
C290 O297 1.240 . S
C290 O298 1.252 . S
C291 O294 1.252 . S
C291 O295 1.260 . S
O292 In286 2.266 1_556 S
O292 C289 1.252 . S
O293 In286 2.326 . S
O293 C289 1.260 1_554 S
O294 In286 2.266 . S
O294 C291 1.252 . S
O295 In286 2.326 . S
O295 C291 1.260 . S
C296 O287 1.240 . S
C296 O288 1.252 . S
O297 In286 2.294 . S
O297 C290 1.240 . S
O298 In286 2.326 . S
O298 C290 1.252 . S
In299 O300 2.294 . S
In299 O301 2.326 . S
In299 O305 2.266 . S
In299 O306 2.326 . S
In299 O307 2.266 1_554 S
In299 O308 2.326 . S
In299 O310 2.294 . S
In299 O311 2.326 . S
O300 In299 2.294 . S
O300 C309 1.240 . S
O301 In299 2.326 . S
O301 C309 1.252 . S
C302 O305 1.252 . S
C302 O306 1.260 . S
C303 O310 1.240 . S
C303 O311 1.252 . S
C304 O307 1.252 . S
C304 O308 1.260 1_556 S
O305 In299 2.266 . S
O305 C302 1.252 . S
O306 In299 2.326 . S
O306 C302 1.260 . S
O307 In299 2.266 1_556 S
O307 C304 1.252 . S
O308 In299 2.326 . S
O308 C304 1.260 1_554 S
C309 O300 1.240 . S
C309 O301 1.252 . S
O310 In299 2.294 . S
O310 C303 1.240 . S
O311 In299 2.326 . S
O311 C303 1.252 . S
In312 O313 2.294 . S
In312 O314 2.326 . S
In312 O318 2.266 . S
In312 O319 2.326 . S
In312 O320 2.266 . S
In312 O321 2.326 . S
In312 O323 2.294 . S
In312 O324 2.326 . S
O313 In312 2.294 . S
O313 C322 1.240 . S
O314 In312 2.326 . S
O314 C322 1.252 . S
C315 O318 1.252 . S
C315 O319 1.260 . S
C316 O323 1.240 . S
C316 O324 1.252 . S
C317 O320 1.252 . S
C317 O321 1.260 . S
O318 In312 2.266 . S
O318 C315 1.252 . S
O319 In312 2.326 . S
O319 C315 1.260 . S
O320 In312 2.266 . S
O320 C317 1.252 . S
O321 In312 2.326 . S
O321 C317 1.260 . S
C322 O313 1.240 . S
C322 O314 1.252 . S
O323 In312 2.294 . S
O323 C316 1.240 . S
O324 In312 2.326 . S
O324 C316 1.252 . S
In325 O326 2.294 . S
In325 O327 2.326 . S
In325 O331 2.266 . S
In325 O332 2.326 . S
In325 O333 2.266 . S
In325 O334 2.326 . S
In325 O336 2.294 . S
In325 O337 2.326 . S
O326 In325 2.294 . S
O326 C335 1.240 . S
O327 In325 2.326 . S
O327 C335 1.252 . S
C328 O331 1.252 . S
C328 O332 1.260 . S
C329 O336 1.240 . S
C329 O337 1.252 . S
C330 O333 1.252 . S
C330 O334 1.260 . S
O331 In325 2.266 . S
O331 C328 1.252 . S
O332 In325 2.326 . S
O332 C328 1.260 . S
O333 In325 2.266 . S
O333 C330 1.252 . S
O334 In325 2.326 . S
O334 C330 1.260 . S
C335 O326 1.240 . S
C335 O327 1.252 . S
O336 In325 2.294 . S
O336 C329 1.240 . S
O337 In325 2.326 . S
O337 C329 1.252 . S
In338 O339 2.294 . S
In338 O340 2.326 . S
In338 O344 2.266 . S
In338 O345 2.326 . S
In338 O346 2.266 . S
In338 O347 2.326 . S
In338 O349 2.294 . S
In338 O350 2.326 . S
O339 In338 2.294 . S
O339 C348 1.240 . S
O340 In338 2.326 . S
O340 C348 1.252 . S
C341 O344 1.252 . S
C341 O345 1.260 . S
C342 O349 1.240 . S
C342 O350 1.252 . S
C343 O346 1.252 . S
C343 O347 1.260 . S
O344 In338 2.266 . S
O344 C341 1.252 . S
O345 In338 2.326 . S
O345 C341 1.260 . S
O346 In338 2.266 . S
O346 C343 1.252 . S
O347 In338 2.326 . S
O347 C343 1.260 . S
C348 O339 1.240 . S
C348 O340 1.252 . S
O349 In338 2.294 . S
O349 C342 1.240 . S
O350 In338 2.326 . S
O350 C342 1.252 . S
In351 O352 2.294 . S
In351 O353 2.326 . S
In351 O357 2.266 . S
In351 O358 2.326 . S
In351 O359 2.266 . S
In351 O360 2.326 . S
In351 O362 2.294 . S
In351 O363 2.326 . S
O352 In351 2.294 . S
O352 C361 1.240 . S
O353 In351 2.326 . S
O353 C361 1.252 . S
C354 O357 1.252 . S
C354 O358 1.260 . S
C355 O362 1.240 . S
C355 O363 1.252 . S
C356 O359 1.252 . S
C356 O360 1.260 . S
O357 In351 2.266 . S
O357 C354 1.252 . S
O358 In351 2.326 . S
O358 C354 1.260 . S
O359 In351 2.266 . S
O359 C356 1.252 . S
O360 In351 2.326 . S
O360 C356 1.260 . S
C361 O352 1.240 . S
C361 O353 1.252 . S
O362 In351 2.294 . S
O362 C355 1.240 . S
O363 In351 2.326 . S
O363 C355 1.252 . S
In364 O365 2.294 . S
In364 O366 2.326 . S
In364 O370 2.266 . S
In364 O371 2.326 . S
In364 O372 2.266 . S
In364 O373 2.326 . S
In364 O375 2.294 . S
In364 O376 2.326 . S
O365 In364 2.294 . S
O365 C374 1.240 . S
O366 In364 2.326 . S
O366 C374 1.252 . S
C367 O370 1.252 . S
C367 O371 1.260 . S
C368 O375 1.240 . S
C368 O376 1.252 . S
C369 O372 1.252 . S
C369 O373 1.260 . S
O370 In364 2.266 . S
O370 C367 1.252 . S
O371 In364 2.326 . S
O371 C367 1.260 . S
O372 In364 2.266 . S
O372 C369 1.252 . S
O373 In364 2.326 . S
O373 C369 1.260 . S
C374 O365 1.240 . S
C374 O366 1.252 . S
O375 In364 2.294 . S
O375 C368 1.240 . S
O376 In364 2.326 . S
O376 C368 1.252 . S
In377 O378 2.294 . S
In377 O379 2.326 . S
In377 O383 2.266 . S
In377 O384 2.326 . S
In377 O385 2.266 . S
In377 O386 2.326 . S
In377 O388 2.294 . S
In377 O389 2.326 . S
O378 In377 2.294 . S
O378 C387 1.240 . S
O379 In377 2.326 . S
O379 C387 1.252 . S
C380 O383 1.252 . S
C380 O384 1.260 . S
C381 O388 1.240 . S
C381 O389 1.252 . S
C382 O385 1.252 . S
C382 O386 1.260 . S
O383 In377 2.266 . S
O383 C380 1.252 . S
O384 In377 2.326 . S
O384 C380 1.260 . S
O385 In377 2.266 . S
O385 C382 1.252 . S
O386 In377 2.326 . S
O386 C382 1.260 . S
C387 O378 1.240 . S
C387 O379 1.252 . S
O388 In377 2.294 . S
O388 C381 1.240 . S
O389 In377 2.326 . S
O389 C381 1.252 . S
In390 O391 2.294 . S
In390 O392 2.326 . S
In390 O396 2.266 . S
In390 O397 2.326 . S
In390 O398 2.266 . S
In390 O399 2.326 . S
In390 O401 2.294 . S
In390 O402 2.326 . S
O391 In390 2.294 . S
O391 C400 1.240 . S
O392 In390 2.326 . S
O392 C400 1.252 . S
C393 O396 1.252 . S
C393 O397 1.260 . S
C394 O401 1.240 . S
C394 O402 1.252 . S
C395 O398 1.252 . S
C395 O399 1.260 . S
O396 In390 2.266 . S
O396 C393 1.252 . S
O397 In390 2.326 . S
O397 C393 1.260 . S
O398 In390 2.266 . S
O398 C395 1.252 . S
O399 In390 2.326 . S
O399 C395 1.260 . S
C400 O391 1.240 . S
C400 O392 1.252 . S
O401 In390 2.294 . S
O401 C394 1.240 . S
O402 In390 2.326 . S
O402 C394 1.252 . S
In403 O404 2.294 . S
In403 O405 2.326 . S
In403 O409 2.266 . S
In403 O410 2.326 . S
In403 O411 2.266 . S
In403 O412 2.326 . S
In403 O414 2.294 . S
In403 O415 2.326 . S
O404 In403 2.294 . S
O404 C413 1.240 . S
O405 In403 2.326 . S
O405 C413 1.252 . S
C406 O409 1.252 . S
C406 O410 1.260 . S
C407 O414 1.240 . S
C407 O415 1.252 . S
C408 O411 1.252 . S
C408 O412 1.260 . S
O409 In403 2.266 . S
O409 C406 1.252 . S
O410 In403 2.326 . S
O410 C406 1.260 . S
O411 In403 2.266 . S
O411 C408 1.252 . S
O412 In403 2.326 . S
O412 C408 1.260 . S
C413 O404 1.240 . S
C413 O405 1.252 . S
O414 In403 2.294 . S
O414 C407 1.240 . S
O415 In403 2.326 . S
O415 C407 1.252 . S
In416 O417 2.294 . S
In416 O418 2.326 . S
In416 O422 2.266 . S
In416 O423 2.326 . S
In416 O424 2.266 . S
In416 O425 2.326 . S
In416 O427 2.294 . S
In416 O428 2.326 . S
O417 In416 2.294 . S
O417 C426 1.240 . S
O418 In416 2.326 . S
O418 C426 1.252 . S
C419 O422 1.252 . S
C419 O423 1.260 . S
C420 O427 1.240 . S
C420 O428 1.252 . S
C421 O424 1.252 . S
C421 O425 1.260 . S
O422 In416 2.266 . S
O422 C419 1.252 . S
O423 In416 2.326 . S
O423 C419 1.260 . S
O424 In416 2.266 . S
O424 C421 1.252 . S
O425 In416 2.326 . S
O425 C421 1.260 . S
C426 O417 1.240 . S
C426 O418 1.252 . S
O427 In416 2.294 . S
O427 C420 1.240 . S
O428 In416 2.326 . S
O428 C420 1.252 . S
In429 O430 2.294 . S
In429 O431 2.326 . S
In429 O435 2.266 . S
In429 O436 2.326 . S
In429 O437 2.266 . S
In429 O438 2.326 . S
In429 O440 2.294 . S
In429 O441 2.326 . S
O430 In429 2.294 . S
O430 C439 1.240 . S
O431 In429 2.326 . S
O431 C439 1.252 . S
C432 O435 1.252 . S
C432 O436 1.260 . S
C433 O440 1.240 . S
C433 O441 1.252 . S
C434 O437 1.252 . S
C434 O438 1.260 . S
O435 In429 2.266 . S
O435 C432 1.252 . S
O436 In429 2.326 . S
O436 C432 1.260 . S
O437 In429 2.266 . S
O437 C434 1.252 . S
O438 In429 2.326 . S
O438 C434 1.260 . S
C439 O430 1.240 . S
C439 O431 1.252 . S
O440 In429 2.294 . S
O440 C433 1.240 . S
O441 In429 2.326 . S
O441 C433 1.252 . S
In442 O443 2.294 . S
In442 O444 2.326 . S
In442 O448 2.266 . S
In442 O449 2.326 . S
In442 O450 2.266 . S
In442 O451 2.326 . S
In442 O453 2.294 . S
In442 O454 2.326 . S
O443 In442 2.294 . S
O443 C452 1.240 . S
O444 In442 2.326 . S
O444 C452 1.252 . S
C445 O448 1.252 . S
C445 O449 1.260 . S
C446 O453 1.240 . S
C446 O454 1.252 . S
C447 O450 1.252 . S
C447 O451 1.260 . S
O448 In442 2.266 . S
O448 C445 1.252 . S
O449 In442 2.326 . S
O449 C445 1.260 . S
O450 In442 2.266 . S
O450 C447 1.252 . S
O451 In442 2.326 . S
O451 C447 1.260 . S
C452 O443 1.240 . S
C452 O444 1.252 . S
O453 In442 2.294 . S
O453 C446 1.240 . S
O454 In442 2.326 . S
O454 C446 1.252 . S
In455 O456 2.294 . S
In455 O457 2.326 . S
In455 O461 2.266 . S
In455 O462 2.326 . S
In455 O463 2.266 . S
In455 O464 2.326 . S
In455 O466 2.294 . S
In455 O467 2.326 . S
O456 In455 2.294 . S
O456 C465 1.240 . S
O457 In455 2.326 . S
O457 C465 1.252 . S
C458 O461 1.252 . S
C458 O462 1.260 . S
C459 O466 1.240 . S
C459 O467 1.252 . S
C460 O463 1.252 . S
C460 O464 1.260 . S
O461 In455 2.266 . S
O461 C458 1.252 . S
O462 In455 2.326 . S
O462 C458 1.260 . S
O463 In455 2.266 . S
O463 C460 1.252 . S
O464 In455 2.326 . S
O464 C460 1.260 . S
C465 O456 1.240 . S
C465 O457 1.252 . S
O466 In455 2.294 . S
O466 C459 1.240 . S
O467 In455 2.326 . S
O467 C459 1.252 . S
In468 O469 2.294 . S
In468 O470 2.326 . S
In468 O474 2.266 . S
In468 O475 2.326 . S
In468 O476 2.266 . S
In468 O477 2.326 . S
In468 O479 2.294 . S
In468 O480 2.326 . S
O469 In468 2.294 . S
O469 C478 1.240 . S
O470 In468 2.326 . S
O470 C478 1.252 . S
C471 O474 1.252 . S
C471 O475 1.260 . S
C472 O479 1.240 . S
C472 O480 1.252 . S
C473 O476 1.252 . S
C473 O477 1.260 . S
O474 In468 2.266 . S
O474 C471 1.252 . S
O475 In468 2.326 . S
O475 C471 1.260 . S
O476 In468 2.266 . S
O476 C473 1.252 . S
O477 In468 2.326 . S
O477 C473 1.260 . S
C478 O469 1.240 . S
C478 O470 1.252 . S
O479 In468 2.294 . S
O479 C472 1.240 . S
O480 In468 2.326 . S
O480 C472 1.252 . S
In481 O482 2.294 . S
In481 O483 2.326 . S
In481 O487 2.266 . S
In481 O488 2.326 . S
In481 O489 2.266 . S
In481 O490 2.326 . S
In481 O492 2.294 . S
In481 O493 2.326 . S
O482 In481 2.294 . S
O482 C491 1.240 . S
O483 In481 2.326 . S
O483 C491 1.252 . S
C484 O487 1.252 . S
C484 O488 1.260 . S
C485 O492 1.240 . S
C485 O493 1.252 . S
C486 O489 1.252 . S
C486 O490 1.260 . S
O487 In481 2.266 . S
O487 C484 1.252 . S
O488 In481 2.326 . S
O488 C484 1.260 . S
O489 In481 2.266 . S
O489 C486 1.252 . S
O490 In481 2.326 . S
O490 C486 1.260 . S
C491 O482 1.240 . S
C491 O483 1.252 . S
O492 In481 2.294 . S
O492 C485 1.240 . S
O493 In481 2.326 . S
O493 C485 1.252 . S
In494 O495 2.294 . S
In494 O496 2.326 . S
In494 O500 2.266 . S
In494 O501 2.326 . S
In494 O502 2.266 . S
In494 O503 2.326 . S
In494 O505 2.294 . S
In494 O506 2.326 . S
O495 In494 2.294 . S
O495 C504 1.240 . S
O496 In494 2.326 . S
O496 C504 1.252 . S
C497 O500 1.252 . S
C497 O501 1.260 . S
C498 O505 1.240 . S
C498 O506 1.252 . S
C499 O502 1.252 . S
C499 O503 1.260 . S
O500 In494 2.266 . S
O500 C497 1.252 . S
O501 In494 2.326 . S
O501 C497 1.260 . S
O502 In494 2.266 . S
O502 C499 1.252 . S
O503 In494 2.326 . S
O503 C499 1.260 . S
C504 O495 1.240 . S
C504 O496 1.252 . S
O505 In494 2.294 . S
O505 C498 1.240 . S
O506 In494 2.326 . S
O506 C498 1.252 . S
In507 O508 2.294 . S
In507 O509 2.326 . S
In507 O513 2.266 . S
In507 O514 2.326 . S
In507 O515 2.266 . S
In507 O516 2.326 . S
In507 O518 2.294 . S
In507 O519 2.326 . S
O508 In507 2.294 . S
O508 C517 1.240 . S
O509 In507 2.326 . S
O509 C517 1.252 . S
C510 O513 1.252 . S
C510 O514 1.260 . S
C511 O518 1.240 . S
C511 O519 1.252 . S
C512 O515 1.252 . S
C512 O516 1.260 . S
O513 In507 2.266 . S
O513 C510 1.252 . S
O514 In507 2.326 . S
O514 C510 1.260 . S
O515 In507 2.266 . S
O515 C512 1.252 . S
O516 In507 2.326 . S
O516 C512 1.260 . S
C517 O508 1.240 . S
C517 O509 1.252 . S
O518 In507 2.294 . S
O518 C511 1.240 . S
O519 In507 2.326 . S
O519 C511 1.252 . S
In520 O521 2.294 . S
In520 O522 2.326 . S
In520 O526 2.266 . S
In520 O527 2.326 . S
In520 O528 2.266 . S
In520 O529 2.326 . S
In520 O531 2.294 . S
In520 O532 2.326 . S
O521 In520 2.294 . S
O521 C530 1.240 . S
O522 In520 2.326 . S
O522 C530 1.252 . S
C523 O526 1.252 . S
C523 O527 1.260 . S
C524 O531 1.240 . S
C524 O532 1.252 . S
C525 O528 1.252 . S
C525 O529 1.260 . S
O526 In520 2.266 . S
O526 C523 1.252 . S
O527 In520 2.326 . S
O527 C523 1.260 . S
O528 In520 2.266 . S
O528 C525 1.252 . S
O529 In520 2.326 . S
O529 C525 1.260 . S
C530 O521 1.240 . S
C530 O522 1.252 . S
O531 In520 2.294 . S
O531 C524 1.240 . S
O532 In520 2.326 . S
O532 C524 1.252 . S
In533 O534 2.294 . S
In533 O535 2.326 . S
In533 O539 2.266 . S
In533 O540 2.326 . S
In533 O541 2.266 . S
In533 O542 2.326 . S
In533 O544 2.294 . S
In533 O545 2.326 . S
O534 In533 2.294 . S
O534 C543 1.240 . S
O535 In533 2.326 . S
O535 C543 1.252 . S
C536 O539 1.252 . S
C536 O540 1.260 . S
C537 O544 1.240 . S
C537 O545 1.252 . S
C538 O541 1.252 . S
C538 O542 1.260 . S
O539 In533 2.266 . S
O539 C536 1.252 . S
O540 In533 2.326 . S
O540 C536 1.260 . S
O541 In533 2.266 . S
O541 C538 1.252 . S
O542 In533 2.326 . S
O542 C538 1.260 . S
C543 O534 1.240 . S
C543 O535 1.252 . S
O544 In533 2.294 . S
O544 C537 1.240 . S
O545 In533 2.326 . S
O545 C537 1.252 . S
In546 O547 2.294 . S
In546 O548 2.326 . S
In546 O552 2.266 . S
In546 O553 2.326 . S
In546 O554 2.266 . S
In546 O555 2.326 . S
In546 O557 2.294 . S
In546 O558 2.326 . S
O547 In546 2.294 . S
O547 C556 1.240 . S
O548 In546 2.326 . S
O548 C556 1.252 . S
C549 O552 1.252 . S
C549 O553 1.260 . S
C550 O557 1.240 . S
C550 O558 1.252 . S
C551 O554 1.252 . S
C551 O555 1.260 . S
O552 In546 2.266 . S
O552 C549 1.252 . S
O553 In546 2.326 . S
O553 C549 1.260 . S
O554 In546 2.266 . S
O554 C551 1.252 . S
O555 In546 2.326 . S
O555 C551 1.260 . S
C556 O547 1.240 . S
C556 O548 1.252 . S
O557 In546 2.294 . S
O557 C550 1.240 . S
O558 In546 2.326 . S
O558 C550 1.252 . S
In559 O560 2.294 . S
In559 O561 2.326 . S
In559 O565 2.266 . S
In559 O566 2.326 . S
In559 O567 2.266 . S
In559 O568 2.326 . S
In559 O570 2.294 . S
In559 O571 2.326 . S
O560 In559 2.294 . S
O560 C569 1.240 . S
O561 In559 2.326 . S
O561 C569 1.252 . S
C562 O565 1.252 . S
C562 O566 1.260 . S
C563 O570 1.240 . S
C563 O571 1.252 . S
C564 O567 1.252 . S
C564 O568 1.260 . S
O565 In559 2.266 . S
O565 C562 1.252 . S
O566 In559 2.326 . S
O566 C562 1.260 . S
O567 In559 2.266 . S
O567 C564 1.252 . S
O568 In559 2.326 . S
O568 C564 1.260 . S
C569 O560 1.240 . S
C569 O561 1.252 . S
O570 In559 2.294 . S
O570 C563 1.240 . S
O571 In559 2.326 . S
O571 C563 1.252 . S
In572 O573 2.294 . S
In572 O574 2.326 . S
In572 O578 2.266 . S
In572 O579 2.326 . S
In572 O580 2.266 . S
In572 O581 2.326 . S
In572 O583 2.294 . S
In572 O584 2.326 . S
O573 In572 2.294 . S
O573 C582 1.240 . S
O574 In572 2.326 . S
O574 C582 1.252 . S
C575 O578 1.252 . S
C575 O579 1.260 . S
C576 O583 1.240 . S
C576 O584 1.252 . S
C577 O580 1.252 . S
C577 O581 1.260 . S
O578 In572 2.266 . S
O578 C575 1.252 . S
O579 In572 2.326 . S
O579 C575 1.260 . S
O580 In572 2.266 . S
O580 C577 1.252 . S
O581 In572 2.326 . S
O581 C577 1.260 . S
C582 O573 1.240 . S
C582 O574 1.252 . S
O583 In572 2.294 . S
O583 C576 1.240 . S
O584 In572 2.326 . S
O584 C576 1.252 . S
In585 O586 2.294 . S
In585 O587 2.326 . S
In585 O591 2.266 . S
In585 O592 2.326 . S
In585 O593 2.266 . S
In585 O594 2.326 . S
In585 O596 2.294 . S
In585 O597 2.326 . S
O586 In585 2.294 . S
O586 C595 1.240 . S
O587 In585 2.326 . S
O587 C595 1.252 . S
C588 O591 1.252 . S
C588 O592 1.260 . S
C589 O596 1.240 . S
C589 O597 1.252 . S
C590 O593 1.252 . S
C590 O594 1.260 . S
O591 In585 2.266 . S
O591 C588 1.252 . S
O592 In585 2.326 . S
O592 C588 1.260 . S
O593 In585 2.266 . S
O593 C590 1.252 . S
O594 In585 2.326 . S
O594 C590 1.260 . S
C595 O586 1.240 . S
C595 O587 1.252 . S
O596 In585 2.294 . S
O596 C589 1.240 . S
O597 In585 2.326 . S
O597 C589 1.252 . S
In598 O599 2.294 . S
In598 O600 2.326 . S
In598 O604 2.266 . S
In598 O605 2.326 . S
In598 O606 2.266 . S
In598 O607 2.326 . S
In598 O609 2.294 . S
In598 O610 2.326 . S
O599 In598 2.294 . S
O599 C608 1.240 . S
O600 In598 2.326 . S
O600 C608 1.252 . S
C601 O604 1.252 . S
C601 O605 1.260 . S
C602 O609 1.240 . S
C602 O610 1.252 . S
C603 O606 1.252 . S
C603 O607 1.260 . S
O604 In598 2.266 . S
O604 C601 1.252 . S
O605 In598 2.326 . S
O605 C601 1.260 . S
O606 In598 2.266 . S
O606 C603 1.252 . S
O607 In598 2.326 . S
O607 C603 1.260 . S
C608 O599 1.240 . S
C608 O600 1.252 . S
O609 In598 2.294 . S
O609 C602 1.240 . S
O610 In598 2.326 . S
O610 C602 1.252 . S
In611 O612 2.294 . S
In611 O613 2.326 . S
In611 O617 2.266 . S
In611 O618 2.326 . S
In611 O619 2.266 . S
In611 O620 2.326 . S
In611 O622 2.294 . S
In611 O623 2.326 . S
O612 In611 2.294 . S
O612 C621 1.240 . S
O613 In611 2.326 . S
O613 C621 1.252 . S
C614 O617 1.252 . S
C614 O618 1.260 . S
C615 O622 1.240 . S
C615 O623 1.252 . S
C616 O619 1.252 . S
C616 O620 1.260 . S
O617 In611 2.266 . S
O617 C614 1.252 . S
O618 In611 2.326 . S
O618 C614 1.260 . S
O619 In611 2.266 . S
O619 C616 1.252 . S
O620 In611 2.326 . S
O620 C616 1.260 . S
C621 O612 1.240 . S
C621 O613 1.252 . S
O622 In611 2.294 . S
O622 C615 1.240 . S
O623 In611 2.326 . S
O623 C615 1.252 . S
H624 C632 0.950 . S
H625 C637 0.950 . S
H626 C634 0.950 . S
H627 C636 0.950 . S
H628 C638 0.950 . S
H629 C640 0.950 . S
H630 C642 0.950 . S
H631 C643 0.950 . S
C632 H624 0.950 . S
C632 C633 1.386 . S
C632 C634 1.391 . S
C633 C632 1.386 . S
C633 C637 1.393 . S
C634 H626 0.950 . S
C634 C632 1.391 . S
C634 C635 1.400 . S
C635 C634 1.400 . S
C635 C636 1.398 . S
C635 C641 1.491 . S
C636 H627 0.950 . S
C636 C635 1.398 . S
C636 C637 1.391 . S
C637 H625 0.950 . S
C637 C633 1.393 . S
C637 C636 1.391 . S
C638 H628 0.950 . S
C638 C639 1.386 . S
C638 C640 1.391 . S
C639 C638 1.386 . S
C639 C643 1.393 . S
C640 H629 0.950 . S
C640 C638 1.391 . S
C640 C641 1.400 . S
C641 C635 1.491 . S
C641 C640 1.400 . S
C641 C642 1.398 . S
C642 H630 0.950 . S
C642 C641 1.398 . S
C642 C643 1.391 . S
C643 H631 0.950 . S
C643 C639 1.393 . S
C643 C642 1.391 . S
H644 C652 0.950 . S
H645 C657 0.950 . S
H646 C654 0.950 . S
H647 C656 0.950 . S
H648 C658 0.950 . S
H649 C660 0.950 . S
H650 C662 0.950 . S
H651 C663 0.950 . S
C652 H644 0.950 . S
C652 C653 1.386 . S
C652 C654 1.391 . S
C653 C652 1.386 . S
C653 C657 1.393 . S
C654 H646 0.950 . S
C654 C652 1.391 . S
C654 C655 1.400 . S
C655 C654 1.400 . S
C655 C656 1.398 . S
C655 C661 1.491 . S
C656 H647 0.950 . S
C656 C655 1.398 . S
C656 C657 1.391 . S
C657 H645 0.950 . S
C657 C653 1.393 . S
C657 C656 1.391 . S
C658 H648 0.950 . S
C658 C659 1.386 . S
C658 C660 1.391 . S
C659 C658 1.386 . S
C659 C663 1.393 . S
C660 H649 0.950 . S
C660 C658 1.391 . S
C660 C661 1.400 . S
C661 C655 1.491 . S
C661 C660 1.400 . S
C661 C662 1.398 . S
C662 H650 0.950 . S
C662 C661 1.398 . S
C662 C663 1.391 . S
C663 H651 0.950 . S
C663 C659 1.393 . S
C663 C662 1.391 . S
H664 C672 0.950 . S
H665 C677 0.950 . S
H666 C674 0.950 . S
H667 C676 0.950 . S
H668 C678 0.950 . S
H669 C680 0.950 . S
H670 C682 0.950 . S
H671 C683 0.950 . S
C672 H664 0.950 . S
C672 C673 1.386 . S
C672 C674 1.391 . S
C673 C672 1.386 . S
C673 C677 1.393 . S
C674 H666 0.950 . S
C674 C672 1.391 . S
C674 C675 1.400 . S
C675 C674 1.400 . S
C675 C676 1.398 . S
C675 C681 1.491 . S
C676 H667 0.950 . S
C676 C675 1.398 . S
C676 C677 1.391 . S
C677 H665 0.950 . S
C677 C673 1.393 . S
C677 C676 1.391 . S
C678 H668 0.950 . S
C678 C679 1.386 . S
C678 C680 1.391 . S
C679 C678 1.386 . S
C679 C683 1.393 . S
C680 H669 0.950 . S
C680 C678 1.391 . S
C680 C681 1.400 . S
C681 C675 1.491 . S
C681 C680 1.400 . S
C681 C682 1.398 . S
C682 H670 0.950 . S
C682 C681 1.398 . S
C682 C683 1.391 . S
C683 H671 0.950 . S
C683 C679 1.393 . S
C683 C682 1.391 . S
H684 C692 0.950 . S
H685 C697 0.950 . S
H686 C694 0.950 . S
H687 C696 0.950 . S
H688 C698 0.950 . S
H689 C700 0.950 . S
H690 C702 0.950 . S
H691 C703 0.950 . S
C692 H684 0.950 . S
C692 C693 1.386 . S
C692 C694 1.391 . S
C693 C692 1.386 . S
C693 C697 1.393 . S
C694 H686 0.950 . S
C694 C692 1.391 . S
C694 C695 1.400 . S
C695 C694 1.400 . S
C695 C696 1.398 . S
C695 C701 1.491 . S
C696 H687 0.950 . S
C696 C695 1.398 . S
C696 C697 1.391 . S
C697 H685 0.950 . S
C697 C693 1.393 . S
C697 C696 1.391 . S
C698 H688 0.950 . S
C698 C699 1.386 . S
C698 C700 1.391 . S
C699 C698 1.386 . S
C699 C703 1.393 . S
C700 H689 0.950 . S
C700 C698 1.391 . S
C700 C701 1.400 . S
C701 C695 1.491 . S
C701 C700 1.400 . S
C701 C702 1.398 . S
C702 H690 0.950 . S
C702 C701 1.398 . S
C702 C703 1.391 . S
C703 H691 0.950 . S
C703 C699 1.393 . S
C703 C702 1.391 . S
H704 C712 0.950 . S
H705 C717 0.950 . S
H706 C714 0.950 . S
H707 C716 0.950 . S
H708 C718 0.950 . S
H709 C720 0.950 . S
H710 C722 0.950 . S
H711 C723 0.950 . S
C712 H704 0.950 . S
C712 C713 1.386 . S
C712 C714 1.391 . S
C713 C712 1.386 . S
C713 C717 1.393 . S
C714 H706 0.950 . S
C714 C712 1.391 . S
C714 C715 1.400 . S
C715 C714 1.400 . S
C715 C716 1.398 . S
C715 C721 1.491 . S
C716 H707 0.950 . S
C716 C715 1.398 . S
C716 C717 1.391 . S
C717 H705 0.950 . S
C717 C713 1.393 . S
C717 C716 1.391 . S
C718 H708 0.950 . S
C718 C719 1.386 . S
C718 C720 1.391 . S
C719 C718 1.386 . S
C719 C723 1.393 . S
C720 H709 0.950 . S
C720 C718 1.391 . S
C720 C721 1.400 . S
C721 C715 1.491 . S
C721 C720 1.400 . S
C721 C722 1.398 . S
C722 H710 0.950 . S
C722 C721 1.398 . S
C722 C723 1.391 . S
C723 H711 0.950 . S
C723 C719 1.393 . S
C723 C722 1.391 . S
H724 C732 0.950 . S
H725 C737 0.950 . S
H726 C734 0.950 . S
H727 C736 0.950 . S
H728 C738 0.950 . S
H729 C740 0.950 . S
H730 C742 0.950 . S
H731 C743 0.950 . S
C732 H724 0.950 . S
C732 C733 1.386 . S
C732 C734 1.391 . S
C733 C732 1.386 . S
C733 C737 1.393 . S
C734 H726 0.950 . S
C734 C732 1.391 . S
C734 C735 1.400 . S
C735 C734 1.400 . S
C735 C736 1.398 . S
C735 C741 1.491 . S
C736 H727 0.950 . S
C736 C735 1.398 . S
C736 C737 1.391 . S
C737 H725 0.950 . S
C737 C733 1.393 . S
C737 C736 1.391 . S
C738 H728 0.950 . S
C738 C739 1.386 . S
C738 C740 1.391 . S
C739 C738 1.386 . S
C739 C743 1.393 . S
C740 H729 0.950 . S
C740 C738 1.391 . S
C740 C741 1.400 . S
C741 C735 1.491 . S
C741 C740 1.400 . S
C741 C742 1.398 . S
C742 H730 0.950 . S
C742 C741 1.398 . S
C742 C743 1.391 . S
C743 H731 0.950 . S
C743 C739 1.393 . S
C743 C742 1.391 . S
H744 C752 0.950 . S
H745 C757 0.950 . S
H746 C754 0.950 . S
H747 C756 0.950 . S
H748 C758 0.950 . S
H749 C760 0.950 . S
H750 C762 0.950 . S
H751 C763 0.950 . S
C752 H744 0.950 . S
C752 C753 1.386 . S
C752 C754 1.391 . S
C753 C752 1.386 . S
C753 C757 1.393 . S
C754 H746 0.950 . S
C754 C752 1.391 . S
C754 C755 1.400 . S
C755 C754 1.400 . S
C755 C756 1.398 . S
C755 C761 1.491 . S
C756 H747 0.950 . S
C756 C755 1.398 . S
C756 C757 1.391 . S
C757 H745 0.950 . S
C757 C753 1.393 . S
C757 C756 1.391 . S
C758 H748 0.950 . S
C758 C759 1.386 . S
C758 C760 1.391 . S
C759 C758 1.386 . S
C759 C763 1.393 . S
C760 H749 0.950 . S
C760 C758 1.391 . S
C760 C761 1.400 . S
C761 C755 1.491 . S
C761 C760 1.400 . S
C761 C762 1.398 . S
C762 H750 0.950 . S
C762 C761 1.398 . S
C762 C763 1.391 . S
C763 H751 0.950 . S
C763 C759 1.393 . S
C763 C762 1.391 . S
H764 C772 0.950 . S
H765 C777 0.950 . S
H766 C774 0.950 . S
H767 C776 0.950 . S
H768 C778 0.950 . S
H769 C780 0.950 . S
H770 C782 0.950 . S
H771 C783 0.950 . S
C772 H764 0.950 . S
C772 C773 1.386 . S
C772 C774 1.391 . S
C773 C772 1.386 . S
C773 C777 1.393 . S
C774 H766 0.950 . S
C774 C772 1.391 . S
C774 C775 1.400 . S
C775 C774 1.400 . S
C775 C776 1.398 . S
C775 C781 1.491 . S
C776 H767 0.950 . S
C776 C775 1.398 . S
C776 C777 1.391 . S
C777 H765 0.950 . S
C777 C773 1.393 . S
C777 C776 1.391 . S
C778 H768 0.950 . S
C778 C779 1.386 . S
C778 C780 1.391 . S
C779 C778 1.386 . S
C779 C783 1.393 . S
C780 H769 0.950 . S
C780 C778 1.391 . S
C780 C781 1.400 . S
C781 C775 1.491 . S
C781 C780 1.400 . S
C781 C782 1.398 . S
C782 H770 0.950 . S
C782 C781 1.398 . S
C782 C783 1.391 . S
C783 H771 0.950 . S
C783 C779 1.393 . S
C783 C782 1.391 . S
H784 C792 0.950 . S
H785 C797 0.950 . S
H786 C794 0.950 . S
H787 C796 0.950 . S
H788 C798 0.950 . S
H789 C800 0.950 . S
H790 C802 0.950 . S
H791 C803 0.950 . S
C792 H784 0.950 . S
C792 C793 1.386 . S
C792 C794 1.391 . S
C793 C792 1.386 . S
C793 C797 1.393 . S
C794 H786 0.950 . S
C794 C792 1.391 . S
C794 C795 1.400 . S
C795 C794 1.400 . S
C795 C796 1.398 . S
C795 C801 1.491 . S
C796 H787 0.950 . S
C796 C795 1.398 . S
C796 C797 1.391 . S
C797 H785 0.950 . S
C797 C793 1.393 . S
C797 C796 1.391 . S
C798 H788 0.950 . S
C798 C799 1.386 . S
C798 C800 1.391 . S
C799 C798 1.386 . S
C799 C803 1.393 . S
C800 H789 0.950 . S
C800 C798 1.391 . S
C800 C801 1.400 . S
C801 C795 1.491 . S
C801 C800 1.400 . S
C801 C802 1.398 . S
C802 H790 0.950 . S
C802 C801 1.398 . S
C802 C803 1.391 . S
C803 H791 0.950 . S
C803 C799 1.393 . S
C803 C802 1.391 . S
H804 C812 0.950 . S
H805 C817 0.950 . S
H806 C814 0.950 . S
H807 C816 0.950 . S
H808 C818 0.950 . S
H809 C820 0.950 . S
H810 C822 0.950 . S
H811 C823 0.950 . S
C812 H804 0.950 . S
C812 C813 1.386 . S
C812 C814 1.391 . S
C813 C812 1.386 . S
C813 C817 1.393 . S
C814 H806 0.950 . S
C814 C812 1.391 . S
C814 C815 1.400 . S
C815 C814 1.400 . S
C815 C816 1.398 . S
C815 C821 1.491 . S
C816 H807 0.950 . S
C816 C815 1.398 . S
C816 C817 1.391 . S
C817 H805 0.950 . S
C817 C813 1.393 . S
C817 C816 1.391 . S
C818 H808 0.950 . S
C818 C819 1.386 . S
C818 C820 1.391 . S
C819 C818 1.386 . S
C819 C823 1.393 . S
C820 H809 0.950 . S
C820 C818 1.391 . S
C820 C821 1.400 . S
C821 C815 1.491 . S
C821 C820 1.400 . S
C821 C822 1.398 . S
C822 H810 0.950 . S
C822 C821 1.398 . S
C822 C823 1.391 . S
C823 H811 0.950 . S
C823 C819 1.393 . S
C823 C822 1.391 . S
H824 C832 0.950 . S
H825 C837 0.950 . S
H826 C834 0.950 . S
H827 C836 0.950 . S
H828 C838 0.950 . S
H829 C840 0.950 . S
H830 C842 0.950 . S
H831 C843 0.950 . S
C832 H824 0.950 . S
C832 C833 1.386 . S
C832 C834 1.391 . S
C833 C832 1.386 . S
C833 C837 1.393 . S
C834 H826 0.950 . S
C834 C832 1.391 . S
C834 C835 1.400 . S
C835 C834 1.400 . S
C835 C836 1.398 . S
C835 C841 1.491 . S
C836 H827 0.950 . S
C836 C835 1.398 . S
C836 C837 1.391 . S
C837 H825 0.950 . S
C837 C833 1.393 . S
C837 C836 1.391 . S
C838 H828 0.950 . S
C838 C839 1.386 . S
C838 C840 1.391 . S
C839 C838 1.386 . S
C839 C843 1.393 . S
C840 H829 0.950 . S
C840 C838 1.391 . S
C840 C841 1.400 . S
C841 C835 1.491 . S
C841 C840 1.400 . S
C841 C842 1.398 . S
C842 H830 0.950 . S
C842 C841 1.398 . S
C842 C843 1.391 . S
C843 H831 0.950 . S
C843 C839 1.393 . S
C843 C842 1.391 . S
H844 C852 0.950 . S
H845 C857 0.950 . S
H846 C854 0.950 . S
H847 C856 0.950 . S
H848 C858 0.950 . S
H849 C860 0.950 . S
H850 C862 0.950 . S
H851 C863 0.950 . S
C852 H844 0.950 . S
C852 C853 1.386 . S
C852 C854 1.391 . S
C853 C852 1.386 . S
C853 C857 1.393 . S
C854 H846 0.950 . S
C854 C852 1.391 . S
C854 C855 1.400 . S
C855 C854 1.400 . S
C855 C856 1.398 . S
C855 C861 1.491 . S
C856 H847 0.950 . S
C856 C855 1.398 . S
C856 C857 1.391 . S
C857 H845 0.950 . S
C857 C853 1.393 . S
C857 C856 1.391 . S
C858 H848 0.950 . S
C858 C859 1.386 . S
C858 C860 1.391 . S
C859 C858 1.386 . S
C859 C863 1.393 . S
C860 H849 0.950 . S
C860 C858 1.391 . S
C860 C861 1.400 . S
C861 C855 1.491 . S
C861 C860 1.400 . S
C861 C862 1.398 . S
C862 H850 0.950 . S
C862 C861 1.398 . S
C862 C863 1.391 . S
C863 H851 0.950 . S
C863 C859 1.393 . S
C863 C862 1.391 . S
H864 C872 0.950 . S
H865 C877 0.950 . S
H866 C874 0.950 . S
H867 C876 0.950 . S
H868 C878 0.950 . S
H869 C880 0.950 . S
H870 C882 0.950 . S
H871 C883 0.950 . S
C872 H864 0.950 . S
C872 C873 1.386 . S
C872 C874 1.391 . S
C873 C872 1.386 . S
C873 C877 1.393 . S
C874 H866 0.950 . S
C874 C872 1.391 . S
C874 C875 1.400 . S
C875 C874 1.400 . S
C875 C876 1.398 . S
C875 C881 1.491 . S
C876 H867 0.950 . S
C876 C875 1.398 . S
C876 C877 1.391 . S
C877 H865 0.950 . S
C877 C873 1.393 . S
C877 C876 1.391 . S
C878 H868 0.950 . S
C878 C879 1.386 . S
C878 C880 1.391 . S
C879 C878 1.386 . S
C879 C883 1.393 . S
C880 H869 0.950 . S
C880 C878 1.391 . S
C880 C881 1.400 . S
C881 C875 1.491 . S
C881 C880 1.400 . S
C881 C882 1.398 . S
C882 H870 0.950 . S
C882 C881 1.398 . S
C882 C883 1.391 . S
C883 H871 0.950 . S
C883 C879 1.393 . S
C883 C882 1.391 . S
H884 C892 0.950 . S
H885 C897 0.950 . S
H886 C894 0.950 . S
H887 C896 0.950 . S
H888 C898 0.950 . S
H889 C900 0.950 . S
H890 C902 0.950 . S
H891 C903 0.950 . S
C892 H884 0.950 . S
C892 C893 1.386 . S
C892 C894 1.391 . S
C893 C892 1.386 . S
C893 C897 1.393 . S
C894 H886 0.950 . S
C894 C892 1.391 . S
C894 C895 1.400 . S
C895 C894 1.400 . S
C895 C896 1.398 . S
C895 C901 1.491 . S
C896 H887 0.950 . S
C896 C895 1.398 . S
C896 C897 1.391 . S
C897 H885 0.950 . S
C897 C893 1.393 . S
C897 C896 1.391 . S
C898 H888 0.950 . S
C898 C899 1.386 . S
C898 C900 1.391 . S
C899 C898 1.386 . S
C899 C903 1.393 . S
C900 H889 0.950 . S
C900 C898 1.391 . S
C900 C901 1.400 . S
C901 C895 1.491 . S
C901 C900 1.400 . S
C901 C902 1.398 . S
C902 H890 0.950 . S
C902 C901 1.398 . S
C902 C903 1.391 . S
C903 H891 0.950 . S
C903 C899 1.393 . S
C903 C902 1.391 . S
H904 C912 0.950 . S
H905 C917 0.950 . S
H906 C914 0.950 . S
H907 C916 0.950 . S
H908 C918 0.950 . S
H909 C920 0.950 . S
H910 C922 0.950 . S
H911 C923 0.950 . S
C912 H904 0.950 . S
C912 C913 1.386 . S
C912 C914 1.391 . S
C913 C912 1.386 . S
C913 C917 1.393 . S
C914 H906 0.950 . S
C914 C912 1.391 . S
C914 C915 1.400 . S
C915 C914 1.400 . S
C915 C916 1.398 . S
C915 C921 1.491 . S
C916 H907 0.950 . S
C916 C915 1.398 . S
C916 C917 1.391 . S
C917 H905 0.950 . S
C917 C913 1.393 . S
C917 C916 1.391 . S
C918 H908 0.950 . S
C918 C919 1.386 . S
C918 C920 1.391 . S
C919 C918 1.386 . S
C919 C923 1.393 . S
C920 H909 0.950 . S
C920 C918 1.391 . S
C920 C921 1.400 . S
C921 C915 1.491 . S
C921 C920 1.400 . S
C921 C922 1.398 . S
C922 H910 0.950 . S
C922 C921 1.398 . S
C922 C923 1.391 . S
C923 H911 0.950 . S
C923 C919 1.393 . S
C923 C922 1.391 . S
H924 C932 0.950 . S
H925 C937 0.950 . S
H926 C934 0.950 . S
H927 C936 0.950 . S
H928 C938 0.950 . S
H929 C940 0.950 . S
H930 C942 0.950 . S
H931 C943 0.950 . S
C932 H924 0.950 . S
C932 C933 1.386 . S
C932 C934 1.391 . S
C933 C932 1.386 . S
C933 C937 1.393 . S
C934 H926 0.950 . S
C934 C932 1.391 . S
C934 C935 1.400 . S
C935 C934 1.400 . S
C935 C936 1.398 . S
C935 C941 1.491 . S
C936 H927 0.950 . S
C936 C935 1.398 . S
C936 C937 1.391 . S
C937 H925 0.950 . S
C937 C933 1.393 . S
C937 C936 1.391 . S
C938 H928 0.950 . S
C938 C939 1.386 . S
C938 C940 1.391 . S
C939 C938 1.386 . S
C939 C943 1.393 . S
C940 H929 0.950 . S
C940 C938 1.391 . S
C940 C941 1.400 . S
C941 C935 1.491 . S
C941 C940 1.400 . S
C941 C942 1.398 . S
C942 H930 0.950 . S
C942 C941 1.398 . S
C942 C943 1.391 . S
C943 H931 0.950 . S
C943 C939 1.393 . S
C943 C942 1.391 . S
H944 C952 0.950 . S
H945 C957 0.950 . S
H946 C954 0.950 . S
H947 C956 0.950 . S
H948 C958 0.950 . S
H949 C960 0.950 . S
H950 C962 0.950 . S
H951 C963 0.950 . S
C952 H944 0.950 . S
C952 C953 1.386 . S
C952 C954 1.391 . S
C953 C952 1.386 . S
C953 C957 1.393 . S
C954 H946 0.950 . S
C954 C952 1.391 . S
C954 C955 1.400 . S
C955 C954 1.400 . S
C955 C956 1.398 . S
C955 C961 1.491 . S
C956 H947 0.950 . S
C956 C955 1.398 . S
C956 C957 1.391 . S
C957 H945 0.950 . S
C957 C953 1.393 . S
C957 C956 1.391 . S
C958 H948 0.950 . S
C958 C959 1.386 . S
C958 C960 1.391 . S
C959 C958 1.386 . S
C959 C963 1.393 . S
C960 H949 0.950 . S
C960 C958 1.391 . S
C960 C961 1.400 . S
C961 C955 1.491 . S
C961 C960 1.400 . S
C961 C962 1.398 . S
C962 H950 0.950 . S
C962 C961 1.398 . S
C962 C963 1.391 . S
C963 H951 0.950 . S
C963 C959 1.393 . S
C963 C962 1.391 . S
H964 C972 0.950 . S
H965 C977 0.950 . S
H966 C974 0.950 . S
H967 C976 0.950 . S
H968 C978 0.950 . S
H969 C980 0.950 . S
H970 C982 0.950 . S
H971 C983 0.950 . S
C972 H964 0.950 . S
C972 C973 1.386 . S
C972 C974 1.391 . S
C973 C972 1.386 . S
C973 C977 1.393 . S
C974 H966 0.950 . S
C974 C972 1.391 . S
C974 C975 1.400 . S
C975 C974 1.400 . S
C975 C976 1.398 . S
C975 C981 1.491 . S
C976 H967 0.950 . S
C976 C975 1.398 . S
C976 C977 1.391 . S
C977 H965 0.950 . S
C977 C973 1.393 . S
C977 C976 1.391 . S
C978 H968 0.950 . S
C978 C979 1.386 . S
C978 C980 1.391 . S
C979 C978 1.386 . S
C979 C983 1.393 . S
C980 H969 0.950 . S
C980 C978 1.391 . S
C980 C981 1.400 . S
C981 C975 1.491 . S
C981 C980 1.400 . S
C981 C982 1.398 . S
C982 H970 0.950 . S
C982 C981 1.398 . S
C982 C983 1.391 . S
C983 H971 0.950 . S
C983 C979 1.393 . S
C983 C982 1.391 . S
H984 C992 0.950 . S
H985 C997 0.950 . S
H986 C994 0.950 . S
H987 C996 0.950 . S
H988 C998 0.950 . S
H989 C1000 0.950 . S
H990 C1002 0.950 . S
H991 C1003 0.950 . S
C992 H984 0.950 . S
C992 C993 1.386 . S
C992 C994 1.391 . S
C993 C992 1.386 . S
C993 C997 1.393 . S
C994 H986 0.950 . S
C994 C992 1.391 . S
C994 C995 1.400 . S
C995 C994 1.400 . S
C995 C996 1.398 . S
C995 C1001 1.491 . S
C996 H987 0.950 . S
C996 C995 1.398 . S
C996 C997 1.391 . S
C997 H985 0.950 . S
C997 C993 1.393 . S
C997 C996 1.391 . S
C998 H988 0.950 . S
C998 C999 1.386 . S
C998 C1000 1.391 . S
C999 C998 1.386 . S
C999 C1003 1.393 . S
C1000 H989 0.950 . S
C1000 C998 1.391 . S
C1000 C1001 1.400 . S
C1001 C995 1.491 . S
C1001 C1000 1.400 . S
C1001 C1002 1.398 . S
C1002 H990 0.950 . S
C1002 C1001 1.398 . S
C1002 C1003 1.391 . S
C1003 H991 0.950 . S
C1003 C999 1.393 . S
C1003 C1002 1.391 . S
H1004 C1012 0.950 . S
H1005 C1017 0.950 . S
H1006 C1014 0.950 . S
H1007 C1016 0.950 . S
H1008 C1018 0.950 . S
H1009 C1020 0.950 . S
H1010 C1022 0.950 . S
H1011 C1023 0.950 . S
C1012 H1004 0.950 . S
C1012 C1013 1.386 . S
C1012 C1014 1.391 . S
C1013 C1012 1.386 . S
C1013 C1017 1.393 . S
C1014 H1006 0.950 . S
C1014 C1012 1.391 . S
C1014 C1015 1.400 . S
C1015 C1014 1.400 . S
C1015 C1016 1.398 . S
C1015 C1021 1.491 . S
C1016 H1007 0.950 . S
C1016 C1015 1.398 . S
C1016 C1017 1.391 . S
C1017 H1005 0.950 . S
C1017 C1013 1.393 . S
C1017 C1016 1.391 . S
C1018 H1008 0.950 . S
C1018 C1019 1.386 . S
C1018 C1020 1.391 . S
C1019 C1018 1.386 . S
C1019 C1023 1.393 . S
C1020 H1009 0.950 . S
C1020 C1018 1.391 . S
C1020 C1021 1.400 . S
C1021 C1015 1.491 . S
C1021 C1020 1.400 . S
C1021 C1022 1.398 . S
C1022 H1010 0.950 . S
C1022 C1021 1.398 . S
C1022 C1023 1.391 . S
C1023 H1011 0.950 . S
C1023 C1019 1.393 . S
C1023 C1022 1.391 . S
H1024 C1032 0.950 . S
H1025 C1037 0.950 . S
H1026 C1034 0.950 . S
H1027 C1036 0.950 . S
H1028 C1038 0.950 . S
H1029 C1040 0.950 . S
H1030 C1042 0.950 . S
H1031 C1043 0.950 . S
C1032 H1024 0.950 . S
C1032 C1033 1.386 . S
C1032 C1034 1.391 . S
C1033 C1032 1.386 . S
C1033 C1037 1.393 . S
C1034 H1026 0.950 . S
C1034 C1032 1.391 . S
C1034 C1035 1.400 . S
C1035 C1034 1.400 . S
C1035 C1036 1.398 . S
C1035 C1041 1.491 . S
C1036 H1027 0.950 . S
C1036 C1035 1.398 . S
C1036 C1037 1.391 . S
C1037 H1025 0.950 . S
C1037 C1033 1.393 . S
C1037 C1036 1.391 . S
C1038 H1028 0.950 . S
C1038 C1039 1.386 . S
C1038 C1040 1.391 . S
C1039 C1038 1.386 . S
C1039 C1043 1.393 . S
C1040 H1029 0.950 . S
C1040 C1038 1.391 . S
C1040 C1041 1.400 . S
C1041 C1035 1.491 . S
C1041 C1040 1.400 . S
C1041 C1042 1.398 . S
C1042 H1030 0.950 . S
C1042 C1041 1.398 . S
C1042 C1043 1.391 . S
C1043 H1031 0.950 . S
C1043 C1039 1.393 . S
C1043 C1042 1.391 . S
H1044 C1052 0.950 . S
H1045 C1057 0.950 . S
H1046 C1054 0.950 . S
H1047 C1056 0.950 . S
H1048 C1058 0.950 . S
H1049 C1060 0.950 . S
H1050 C1062 0.950 . S
H1051 C1063 0.950 . S
C1052 H1044 0.950 . S
C1052 C1053 1.386 . S
C1052 C1054 1.391 . S
C1053 C1052 1.386 . S
C1053 C1057 1.393 . S
C1054 H1046 0.950 . S
C1054 C1052 1.391 . S
C1054 C1055 1.400 . S
C1055 C1054 1.400 . S
C1055 C1056 1.398 . S
C1055 C1061 1.491 . S
C1056 H1047 0.950 . S
C1056 C1055 1.398 . S
C1056 C1057 1.391 . S
C1057 H1045 0.950 . S
C1057 C1053 1.393 . S
C1057 C1056 1.391 . S
C1058 H1048 0.950 . S
C1058 C1059 1.386 . S
C1058 C1060 1.391 . S
C1059 C1058 1.386 . S
C1059 C1063 1.393 . S
C1060 H1049 0.950 . S
C1060 C1058 1.391 . S
C1060 C1061 1.400 . S
C1061 C1055 1.491 . S
C1061 C1060 1.400 . S
C1061 C1062 1.398 . S
C1062 H1050 0.950 . S
C1062 C1061 1.398 . S
C1062 C1063 1.391 . S
C1063 H1051 0.950 . S
C1063 C1059 1.393 . S
C1063 C1062 1.391 . S
H1064 C1072 0.950 . S
H1065 C1077 0.950 . S
H1066 C1074 0.950 . S
H1067 C1076 0.950 . S
H1068 C1078 0.950 . S
H1069 C1080 0.950 . S
H1070 C1082 0.950 . S
H1071 C1083 0.950 . S
C1072 H1064 0.950 . S
C1072 C1073 1.386 . S
C1072 C1074 1.391 . S
C1073 C1072 1.386 . S
C1073 C1077 1.393 . S
C1074 H1066 0.950 . S
C1074 C1072 1.391 . S
C1074 C1075 1.400 . S
C1075 C1074 1.400 . S
C1075 C1076 1.398 . S
C1075 C1081 1.491 . S
C1076 H1067 0.950 . S
C1076 C1075 1.398 . S
C1076 C1077 1.391 . S
C1077 H1065 0.950 . S
C1077 C1073 1.393 . S
C1077 C1076 1.391 . S
C1078 H1068 0.950 . S
C1078 C1079 1.386 . S
C1078 C1080 1.391 . S
C1079 C1078 1.386 . S
C1079 C1083 1.393 . S
C1080 H1069 0.950 . S
C1080 C1078 1.391 . S
C1080 C1081 1.400 . S
C1081 C1075 1.491 . S
C1081 C1080 1.400 . S
C1081 C1082 1.398 . S
C1082 H1070 0.950 . S
C1082 C1081 1.398 . S
C1082 C1083 1.391 . S
C1083 H1071 0.950 . S
C1083 C1079 1.393 . S
C1083 C1082 1.391 . S
H1084 C1092 0.950 . S
H1085 C1097 0.950 . S
H1086 C1094 0.950 . S
H1087 C1096 0.950 . S
H1088 C1098 0.950 . S
H1089 C1100 0.950 . S
H1090 C1102 0.950 . S
H1091 C1103 0.950 . S
C1092 H1084 0.950 . S
C1092 C1093 1.386 . S
C1092 C1094 1.391 . S
C1093 C1092 1.386 . S
C1093 C1097 1.393 . S
C1094 H1086 0.950 . S
C1094 C1092 1.391 . S
C1094 C1095 1.400 . S
C1095 C1094 1.400 . S
C1095 C1096 1.398 . S
C1095 C1101 1.491 . S
C1096 H1087 0.950 . S
C1096 C1095 1.398 . S
C1096 C1097 1.391 . S
C1097 H1085 0.950 . S
C1097 C1093 1.393 . S
C1097 C1096 1.391 . S
C1098 H1088 0.950 . S
C1098 C1099 1.386 . S
C1098 C1100 1.391 . S
C1099 C1098 1.386 . S
C1099 C1103 1.393 . S
C1100 H1089 0.950 . S
C1100 C1098 1.391 . S
C1100 C1101 1.400 . S
C1101 C1095 1.491 . S
C1101 C1100 1.400 . S
C1101 C1102 1.398 . S
C1102 H1090 0.950 . S
C1102 C1101 1.398 . S
C1102 C1103 1.391 . S
C1103 H1091 0.950 . S
C1103 C1099 1.393 . S
C1103 C1102 1.391 . S
H1104 C1112 0.950 1_455 S
H1105 C1117 0.950 . S
H1106 C1114 0.950 . S
H1107 C1116 0.950 . S
H1108 C1118 0.950 1_655 S
H1109 C1120 0.950 . S
H1110 C1122 0.950 . S
H1111 C1123 0.950 . S
C1112 H1104 0.950 1_655 S
C1112 C1113 1.386 . S
C1112 C1114 1.391 1_655 S
C1113 C1112 1.386 . S
C1113 C1117 1.393 . S
C1114 H1106 0.950 . S
C1114 C1112 1.391 1_455 S
C1114 C1115 1.400 1_455 S
C1115 C1114 1.400 1_655 S
C1115 C1116 1.398 . S
C1115 C1121 1.491 1_655 S
C1116 H1107 0.950 . S
C1116 C1115 1.398 . S
C1116 C1117 1.391 . S
C1117 H1105 0.950 . S
C1117 C1113 1.393 . S
C1117 C1116 1.391 . S
C1118 H1108 0.950 1_455 S
C1118 C1119 1.386 . S
C1118 C1120 1.391 1_455 S
C1119 C1118 1.386 . S
C1119 C1123 1.393 . S
C1120 H1109 0.950 . S
C1120 C1118 1.391 1_655 S
C1120 C1121 1.400 1_655 S
C1121 C1115 1.491 1_455 S
C1121 C1120 1.400 1_455 S
C1121 C1122 1.398 . S
C1122 H1110 0.950 . S
C1122 C1121 1.398 . S
C1122 C1123 1.391 . S
C1123 H1111 0.950 . S
C1123 C1119 1.393 . S
C1123 C1122 1.391 . S
H1124 C1132 0.950 . S
H1125 C1137 0.950 . S
H1126 C1134 0.950 . S
H1127 C1136 0.950 . S
H1128 C1138 0.950 . S
H1129 C1140 0.950 . S
H1130 C1142 0.950 . S
H1131 C1143 0.950 . S
C1132 H1124 0.950 . S
C1132 C1133 1.386 1_545 S
C1132 C1134 1.391 . S
C1133 C1132 1.386 1_565 S
C1133 C1137 1.393 . S
C1134 H1126 0.950 . S
C1134 C1132 1.391 . S
C1134 C1135 1.400 1_545 S
C1135 C1134 1.400 1_565 S
C1135 C1136 1.398 . S
C1135 C1141 1.491 1_565 S
C1136 H1127 0.950 . S
C1136 C1135 1.398 . S
C1136 C1137 1.391 . S
C1137 H1125 0.950 . S
C1137 C1133 1.393 . S
C1137 C1136 1.391 . S
C1138 H1128 0.950 . S
C1138 C1139 1.386 1_565 S
C1138 C1140 1.391 . S
C1139 C1138 1.386 1_545 S
C1139 C1143 1.393 . S
C1140 H1129 0.950 . S
C1140 C1138 1.391 . S
C1140 C1141 1.400 1_565 S
C1141 C1135 1.491 1_545 S
C1141 C1140 1.400 1_545 S
C1141 C1142 1.398 . S
C1142 H1130 0.950 . S
C1142 C1141 1.398 . S
C1142 C1143 1.391 . S
C1143 H1131 0.950 . S
C1143 C1139 1.393 . S
C1143 C1142 1.391 . S
H1144 C1152 0.950 . S
H1145 C1157 0.950 . S
H1146 C1154 0.950 . S
H1147 C1156 0.950 . S
H1148 C1158 0.950 . S
H1149 C1160 0.950 . S
H1150 C1162 0.950 . S
H1151 C1163 0.950 . S
C1152 H1144 0.950 . S
C1152 C1153 1.386 1_455 S
C1152 C1154 1.391 . S
C1153 C1152 1.386 1_655 S
C1153 C1157 1.393 . S
C1154 H1146 0.950 . S
C1154 C1152 1.391 . S
C1154 C1155 1.400 1_455 S
C1155 C1154 1.400 1_655 S
C1155 C1156 1.398 . S
C1155 C1161 1.491 1_655 S
C1156 H1147 0.950 . S
C1156 C1155 1.398 . S
C1156 C1157 1.391 . S
C1157 H1145 0.950 . S
C1157 C1153 1.393 . S
C1157 C1156 1.391 . S
C1158 H1148 0.950 . S
C1158 C1159 1.386 1_655 S
C1158 C1160 1.391 . S
C1159 C1158 1.386 1_455 S
C1159 C1163 1.393 . S
C1160 H1149 0.950 . S
C1160 C1158 1.391 . S
C1160 C1161 1.400 1_655 S
C1161 C1155 1.491 1_455 S
C1161 C1160 1.400 1_455 S
C1161 C1162 1.398 . S
C1162 H1150 0.950 . S
C1162 C1161 1.398 . S
C1162 C1163 1.391 . S
C1163 H1151 0.950 . S
C1163 C1159 1.393 . S
C1163 C1162 1.391 . S
H1164 C1172 0.950 . S
H1165 C1177 0.950 . S
H1166 C1174 0.941 1_565 S
H1167 C1176 0.950 . S
H1168 C1178 0.950 . S
H1169 C1180 0.941 1_545 S
H1170 C1182 0.950 . S
H1171 C1183 0.950 . S
C1172 H1164 0.950 . S
C1172 C1173 1.386 . S
C1172 C1174 1.391 . S
C1173 C1172 1.386 . S
C1173 C1177 1.393 . S
C1174 H1166 0.941 1_545 S
C1174 C1172 1.391 . S
C1174 C1175 1.400 . S
C1175 C1174 1.400 . S
C1175 C1176 1.398 . S
C1175 C1181 1.491 1_545 S
C1176 H1167 0.950 . S
C1176 C1175 1.398 . S
C1176 C1177 1.391 . S
C1177 H1165 0.950 . S
C1177 C1173 1.393 . S
C1177 C1176 1.391 . S
C1178 H1168 0.950 . S
C1178 C1179 1.386 . S
C1178 C1180 1.391 . S
C1179 C1178 1.386 . S
C1179 C1183 1.393 . S
C1180 H1169 0.941 1_565 S
C1180 C1178 1.391 . S
C1180 C1181 1.400 . S
C1181 C1175 1.491 1_565 S
C1181 C1180 1.400 . S
C1181 C1182 1.398 . S
C1182 H1170 0.950 . S
C1182 C1181 1.398 . S
C1182 C1183 1.391 . S
C1183 H1171 0.950 . S
C1183 C1179 1.393 . S
C1183 C1182 1.391 . S
H1184 C1192 0.950 . S
H1185 C1197 0.950 . S
H1186 C1194 0.950 . S
H1187 C1196 0.950 . S
H1188 C1198 0.950 . S
H1189 C1200 0.950 . S
H1190 C1202 0.950 . S
H1191 C1203 0.950 . S
C1192 H1184 0.950 . S
C1192 C1193 1.386 . S
C1192 C1194 1.391 . S
C1193 C1192 1.386 . S
C1193 C1197 1.393 1_455 S
C1194 H1186 0.950 . S
C1194 C1192 1.391 . S
C1194 C1195 1.400 . S
C1195 C1194 1.400 . S
C1195 C1196 1.398 1_455 S
C1195 C1201 1.491 1_455 S
C1196 H1187 0.950 . S
C1196 C1195 1.398 1_655 S
C1196 C1197 1.391 . S
C1197 H1185 0.950 . S
C1197 C1193 1.393 1_655 S
C1197 C1196 1.391 . S
C1198 H1188 0.950 . S
C1198 C1199 1.386 . S
C1198 C1200 1.391 . S
C1199 C1198 1.386 . S
C1199 C1203 1.393 1_655 S
C1200 H1189 0.950 . S
C1200 C1198 1.391 . S
C1200 C1201 1.400 . S
C1201 C1195 1.491 1_655 S
C1201 C1200 1.400 . S
C1201 C1202 1.398 1_655 S
C1202 H1190 0.950 . S
C1202 C1201 1.398 1_455 S
C1202 C1203 1.391 . S
C1203 H1191 0.950 . S
C1203 C1199 1.393 1_455 S
C1203 C1202 1.391 . S
H1204 C1212 0.950 . S
H1205 C1217 0.950 . S
H1206 C1214 0.950 . S
H1207 C1216 0.950 . S
H1208 C1218 0.950 . S
H1209 C1220 0.950 . S
H1210 C1222 0.950 . S
H1211 C1223 0.950 . S
C1212 H1204 0.950 . S
C1212 C1213 1.386 . S
C1212 C1214 1.391 . S
C1213 C1212 1.386 . S
C1213 C1217 1.393 1_565 S
C1214 H1206 0.950 . S
C1214 C1212 1.391 . S
C1214 C1215 1.400 . S
C1215 C1214 1.400 . S
C1215 C1216 1.398 1_565 S
C1215 C1221 1.491 1_565 S
C1216 H1207 0.950 . S
C1216 C1215 1.398 1_545 S
C1216 C1217 1.391 . S
C1217 H1205 0.950 . S
C1217 C1213 1.393 1_545 S
C1217 C1216 1.391 . S
C1218 H1208 0.950 . S
C1218 C1219 1.386 . S
C1218 C1220 1.391 . S
C1219 C1218 1.386 . S
C1219 C1223 1.393 1_545 S
C1220 H1209 0.950 . S
C1220 C1218 1.391 . S
C1220 C1221 1.400 . S
C1221 C1215 1.491 1_545 S
C1221 C1220 1.400 . S
C1221 C1222 1.398 1_545 S
C1222 H1210 0.950 . S
C1222 C1221 1.398 1_565 S
C1222 C1223 1.391 . S
C1223 H1211 0.950 . S
C1223 C1219 1.393 1_565 S
C1223 C1222 1.391 . S
H1224 C1232 0.950 . S
H1225 C1237 0.950 . S
H1226 C1234 0.950 . S
H1227 C1236 0.940 1_655 S
H1228 C1238 0.950 . S
H1229 C1240 0.950 . S
H1230 C1242 0.940 1_455 S
H1231 C1243 0.950 . S
C1232 H1224 0.950 . S
C1232 C1233 1.386 . S
C1232 C1234 1.391 . S
C1233 C1232 1.386 . S
C1233 C1237 1.393 . S
C1234 H1226 0.950 . S
C1234 C1232 1.391 . S
C1234 C1235 1.400 . S
C1235 C1234 1.400 . S
C1235 C1236 1.402 . S
C1235 C1241 1.491 1_455 S
C1236 H1227 0.940 1_455 S
C1236 C1235 1.402 . S
C1236 C1237 1.398 . S
C1237 H1225 0.950 . S
C1237 C1233 1.393 . S
C1237 C1236 1.398 . S
C1238 H1228 0.950 . S
C1238 C1239 1.386 . S
C1238 C1240 1.391 . S
C1239 C1238 1.386 . S
C1239 C1243 1.393 . S
C1240 H1229 0.950 . S
C1240 C1238 1.391 . S
C1240 C1241 1.400 . S
C1241 C1235 1.491 1_655 S
C1241 C1240 1.400 . S
C1241 C1242 1.402 . S
C1242 H1230 0.940 1_655 S
C1242 C1241 1.402 . S
C1242 C1243 1.398 . S
C1243 H1231 0.950 . S
C1243 C1239 1.393 . S
C1243 C1242 1.398 . S
H1244 C1252 0.950 . S
H1245 C1257 0.950 . S
H1246 C1254 0.950 . S
H1247 C1256 0.950 . S
H1248 C1258 0.950 . S
H1249 C1260 0.950 . S
H1250 C1262 0.950 . S
H1251 C1263 0.950 . S
C1252 H1244 0.950 . S
C1252 C1253 1.386 . S
C1252 C1254 1.391 . S
C1253 C1252 1.386 . S
C1253 C1257 1.393 1_545 S
C1254 H1246 0.950 . S
C1254 C1252 1.391 . S
C1254 C1255 1.400 . S
C1255 C1254 1.400 . S
C1255 C1256 1.398 1_545 S
C1255 C1261 1.491 1_545 S
C1256 H1247 0.950 . S
C1256 C1255 1.398 1_565 S
C1256 C1257 1.391 . S
C1257 H1245 0.950 . S
C1257 C1253 1.393 1_565 S
C1257 C1256 1.391 . S
C1258 H1248 0.950 . S
C1258 C1259 1.386 . S
C1258 C1260 1.391 . S
C1259 C1258 1.386 . S
C1259 C1263 1.393 1_565 S
C1260 H1249 0.950 . S
C1260 C1258 1.391 . S
C1260 C1261 1.400 . S
C1261 C1255 1.491 1_565 S
C1261 C1260 1.400 . S
C1261 C1262 1.398 1_565 S
C1262 H1250 0.950 . S
C1262 C1261 1.398 1_545 S
C1262 C1263 1.391 . S
C1263 H1251 0.950 . S
C1263 C1259 1.393 1_545 S
C1263 C1262 1.391 . S
H1264 C1272 0.950 . S
H1265 C1277 0.958 . S
H1266 C1274 0.950 . S
H1267 C1276 0.950 . S
H1268 C1278 0.950 . S
H1269 C1280 0.950 . S
H1270 C1282 0.950 . S
H1271 C1283 0.958 . S
C1272 H1264 0.950 . S
C1272 C1273 1.386 . S
C1272 C1274 1.391 . S
C1273 C1272 1.386 . S
C1273 C1277 1.379 1_556 S
C1274 H1266 0.950 . S
C1274 C1272 1.391 . S
C1274 C1275 1.400 . S
C1275 C1274 1.400 . S
C1275 C1276 1.398 1_556 S
C1275 C1281 1.491 1_556 S
C1276 H1267 0.950 . S
C1276 C1275 1.398 1_554 S
C1276 C1277 1.397 . S
C1277 H1265 0.958 . S
C1277 C1273 1.379 1_554 S
C1277 C1276 1.397 . S
C1278 H1268 0.950 . S
C1278 C1279 1.386 . S
C1278 C1280 1.391 . S
C1279 C1278 1.386 . S
C1279 C1283 1.379 1_554 S
C1280 H1269 0.950 . S
C1280 C1278 1.391 . S
C1280 C1281 1.400 . S
C1281 C1275 1.491 1_554 S
C1281 C1280 1.400 . S
C1281 C1282 1.398 1_554 S
C1282 H1270 0.950 . S
C1282 C1281 1.398 1_556 S
C1282 C1283 1.397 . S
C1283 H1271 0.958 . S
C1283 C1279 1.379 1_556 S
C1283 C1282 1.397 . S
H1284 C1292 0.950 . S
H1285 C1297 0.950 . S
H1286 C1294 0.950 . S
H1287 C1296 0.950 . S
H1288 C1298 0.950 . S
H1289 C1300 0.950 . S
H1290 C1302 0.950 . S
H1291 C1303 0.950 . S
C1292 H1284 0.950 . S
C1292 C1293 1.386 . S
C1292 C1294 1.391 . S
C1293 C1292 1.386 . S
C1293 C1297 1.393 1_554 S
C1294 H1286 0.950 . S
C1294 C1292 1.391 . S
C1294 C1295 1.400 . S
C1295 C1294 1.400 . S
C1295 C1296 1.398 1_554 S
C1295 C1301 1.491 1_554 S
C1296 H1287 0.950 . S
C1296 C1295 1.398 1_556 S
C1296 C1297 1.391 . S
C1297 H1285 0.950 . S
C1297 C1293 1.393 1_556 S
C1297 C1296 1.391 . S
C1298 H1288 0.950 . S
C1298 C1299 1.386 . S
C1298 C1300 1.391 . S
C1299 C1298 1.386 . S
C1299 C1303 1.393 1_556 S
C1300 H1289 0.950 . S
C1300 C1298 1.391 . S
C1300 C1301 1.400 . S
C1301 C1295 1.491 1_556 S
C1301 C1300 1.400 . S
C1301 C1302 1.398 1_556 S
C1302 H1290 0.950 . S
C1302 C1301 1.398 1_554 S
C1302 C1303 1.391 . S
C1303 H1291 0.950 . S
C1303 C1299 1.393 1_554 S
C1303 C1302 1.391 . S
H1304 C1312 0.950 . S
H1305 C1317 0.938 1_556 S
H1306 C1314 0.950 . S
H1307 C1316 0.950 . S
H1308 C1318 0.950 . S
H1309 C1320 0.950 . S
H1310 C1322 0.950 . S
H1311 C1323 0.938 1_554 S
C1312 H1304 0.950 . S
C1312 C1313 1.386 . S
C1312 C1314 1.391 . S
C1313 C1312 1.386 . S
C1313 C1317 1.416 . S
C1314 H1306 0.950 . S
C1314 C1312 1.391 . S
C1314 C1315 1.400 . S
C1315 C1314 1.400 . S
C1315 C1316 1.398 1_554 S
C1315 C1321 1.491 1_554 S
C1316 H1307 0.950 . S
C1316 C1315 1.398 1_556 S
C1316 C1317 1.381 1_556 S
C1317 H1305 0.938 1_554 S
C1317 C1313 1.416 . S
C1317 C1316 1.381 1_554 S
C1318 H1308 0.950 . S
C1318 C1319 1.386 . S
C1318 C1320 1.391 . S
C1319 C1318 1.386 . S
C1319 C1323 1.416 . S
C1320 H1309 0.950 . S
C1320 C1318 1.391 . S
C1320 C1321 1.400 . S
C1321 C1315 1.491 1_556 S
C1321 C1320 1.400 . S
C1321 C1322 1.398 1_556 S
C1322 H1310 0.950 . S
C1322 C1321 1.398 1_554 S
C1322 C1323 1.381 1_554 S
C1323 H1311 0.938 1_556 S
C1323 C1319 1.416 . S
C1323 C1322 1.381 1_556 S
H1324 C1332 0.950 . S
H1325 C1337 0.950 . S
H1326 C1334 0.950 . S
H1327 C1336 0.950 1_554 S
H1328 C1338 0.950 . S
H1329 C1340 0.950 . S
H1330 C1342 0.950 1_556 S
H1331 C1343 0.950 . S
C1332 H1324 0.950 . S
C1332 C1333 1.386 . S
C1332 C1334 1.391 . S
C1333 C1332 1.386 . S
C1333 C1337 1.393 . S
C1334 H1326 0.950 . S
C1334 C1332 1.391 . S
C1334 C1335 1.400 . S
C1335 C1334 1.400 . S
C1335 C1336 1.398 . S
C1335 C1341 1.491 1_556 S
C1336 H1327 0.950 1_556 S
C1336 C1335 1.398 . S
C1336 C1337 1.391 . S
C1337 H1325 0.950 . S
C1337 C1333 1.393 . S
C1337 C1336 1.391 . S
C1338 H1328 0.950 . S
C1338 C1339 1.386 . S
C1338 C1340 1.391 . S
C1339 C1338 1.386 . S
C1339 C1343 1.393 . S
C1340 H1329 0.950 . S
C1340 C1338 1.391 . S
C1340 C1341 1.400 . S
C1341 C1335 1.491 1_554 S
C1341 C1340 1.400 . S
C1341 C1342 1.398 . S
C1342 H1330 0.950 1_554 S
C1342 C1341 1.398 . S
C1342 C1343 1.391 . S
C1343 H1331 0.950 . S
C1343 C1339 1.393 . S
C1343 C1342 1.391 . S
H1344 C1352 0.950 . S
H1345 C1357 0.950 . S
H1346 C1354 0.950 . S
H1347 C1356 0.950 . S
H1348 C1358 0.950 . S
H1349 C1360 0.950 . S
H1350 C1362 0.950 . S
H1351 C1363 0.950 . S
C1352 H1344 0.950 . S
C1352 C1353 1.386 . S
C1352 C1354 1.391 . S
C1353 C1352 1.386 . S
C1353 C1357 1.393 . S
C1354 H1346 0.950 . S
C1354 C1352 1.391 . S
C1354 C1355 1.400 . S
C1355 C1354 1.400 . S
C1355 C1356 1.398 . S
C1355 C1361 1.491 . S
C1356 H1347 0.950 . S
C1356 C1355 1.398 . S
C1356 C1357 1.391 . S
C1357 H1345 0.950 . S
C1357 C1353 1.393 . S
C1357 C1356 1.391 . S
C1358 H1348 0.950 . S
C1358 C1359 1.386 . S
C1358 C1360 1.391 . S
C1359 C1358 1.386 . S
C1359 C1363 1.393 . S
C1360 H1349 0.950 . S
C1360 C1358 1.391 . S
C1360 C1361 1.400 . S
C1361 C1355 1.491 . S
C1361 C1360 1.400 . S
C1361 C1362 1.398 . S
C1362 H1350 0.950 . S
C1362 C1361 1.398 . S
C1362 C1363 1.391 . S
C1363 H1351 0.950 . S
C1363 C1359 1.393 . S
C1363 C1362 1.391 . S
H1364 C1372 0.950 . S
H1365 C1377 0.950 . S
H1366 C1374 0.950 . S
H1367 C1376 0.950 . S
H1368 C1378 0.950 . S
H1369 C1380 0.950 . S
H1370 C1382 0.950 . S
H1371 C1383 0.950 . S
C1372 H1364 0.950 . S
C1372 C1373 1.386 . S
C1372 C1374 1.391 . S
C1373 C1372 1.386 . S
C1373 C1377 1.393 . S
C1374 H1366 0.950 . S
C1374 C1372 1.391 . S
C1374 C1375 1.400 . S
C1375 C1374 1.400 . S
C1375 C1376 1.398 . S
C1375 C1381 1.491 . S
C1376 H1367 0.950 . S
C1376 C1375 1.398 . S
C1376 C1377 1.391 . S
C1377 H1365 0.950 . S
C1377 C1373 1.393 . S
C1377 C1376 1.391 . S
C1378 H1368 0.950 . S
C1378 C1379 1.386 . S
C1378 C1380 1.391 . S
C1379 C1378 1.386 . S
C1379 C1383 1.393 . S
C1380 H1369 0.950 . S
C1380 C1378 1.391 . S
C1380 C1381 1.400 . S
C1381 C1375 1.491 . S
C1381 C1380 1.400 . S
C1381 C1382 1.398 . S
C1382 H1370 0.950 . S
C1382 C1381 1.398 . S
C1382 C1383 1.391 . S
C1383 H1371 0.950 . S
C1383 C1379 1.393 . S
C1383 C1382 1.391 . S
H1384 C1392 0.950 . S
H1385 C1397 0.950 . S
H1386 C1394 0.950 . S
H1387 C1396 0.950 . S
H1388 C1398 0.950 . S
H1389 C1400 0.950 . S
H1390 C1402 0.950 . S
H1391 C1403 0.950 . S
C1392 H1384 0.950 . S
C1392 C1393 1.386 . S
C1392 C1394 1.391 . S
C1393 C1392 1.386 . S
C1393 C1397 1.393 . S
C1394 H1386 0.950 . S
C1394 C1392 1.391 . S
C1394 C1395 1.400 . S
C1395 C1394 1.400 . S
C1395 C1396 1.398 . S
C1395 C1401 1.491 . S
C1396 H1387 0.950 . S
C1396 C1395 1.398 . S
C1396 C1397 1.391 . S
C1397 H1385 0.950 . S
C1397 C1393 1.393 . S
C1397 C1396 1.391 . S
C1398 H1388 0.950 . S
C1398 C1399 1.386 . S
C1398 C1400 1.391 . S
C1399 C1398 1.386 . S
C1399 C1403 1.393 . S
C1400 H1389 0.950 . S
C1400 C1398 1.391 . S
C1400 C1401 1.400 . S
C1401 C1395 1.491 . S
C1401 C1400 1.400 . S
C1401 C1402 1.398 . S
C1402 H1390 0.950 . S
C1402 C1401 1.398 . S
C1402 C1403 1.391 . S
C1403 H1391 0.950 . S
C1403 C1399 1.393 . S
C1403 C1402 1.391 . S
H1404 C1412 0.950 . S
H1405 C1417 0.950 . S
H1406 C1414 0.950 . S
H1407 C1416 0.950 . S
H1408 C1418 0.950 . S
H1409 C1420 0.950 . S
H1410 C1422 0.950 . S
H1411 C1423 0.950 . S
C1412 H1404 0.950 . S
C1412 C1413 1.386 . S
C1412 C1414 1.391 . S
C1413 C1412 1.386 . S
C1413 C1417 1.393 . S
C1414 H1406 0.950 . S
C1414 C1412 1.391 . S
C1414 C1415 1.400 . S
C1415 C1414 1.400 . S
C1415 C1416 1.398 . S
C1415 C1421 1.491 . S
C1416 H1407 0.950 . S
C1416 C1415 1.398 . S
C1416 C1417 1.391 . S
C1417 H1405 0.950 . S
C1417 C1413 1.393 . S
C1417 C1416 1.391 . S
C1418 H1408 0.950 . S
C1418 C1419 1.386 . S
C1418 C1420 1.391 . S
C1419 C1418 1.386 . S
C1419 C1423 1.393 . S
C1420 H1409 0.950 . S
C1420 C1418 1.391 . S
C1420 C1421 1.400 . S
C1421 C1415 1.491 . S
C1421 C1420 1.400 . S
C1421 C1422 1.398 . S
C1422 H1410 0.950 . S
C1422 C1421 1.398 . S
C1422 C1423 1.391 . S
C1423 H1411 0.950 . S
C1423 C1419 1.393 . S
C1423 C1422 1.391 . S
H1424 C1432 0.950 . S
H1425 C1437 0.950 . S
H1426 C1434 0.950 . S
H1427 C1436 0.950 . S
H1428 C1438 0.950 . S
H1429 C1440 0.950 . S
H1430 C1442 0.950 . S
H1431 C1443 0.950 . S
C1432 H1424 0.950 . S
C1432 C1433 1.386 . S
C1432 C1434 1.391 . S
C1433 C1432 1.386 . S
C1433 C1437 1.393 . S
C1434 H1426 0.950 . S
C1434 C1432 1.391 . S
C1434 C1435 1.400 . S
C1435 C1434 1.400 . S
C1435 C1436 1.398 . S
C1435 C1441 1.491 . S
C1436 H1427 0.950 . S
C1436 C1435 1.398 . S
C1436 C1437 1.391 . S
C1437 H1425 0.950 . S
C1437 C1433 1.393 . S
C1437 C1436 1.391 . S
C1438 H1428 0.950 . S
C1438 C1439 1.386 . S
C1438 C1440 1.391 . S
C1439 C1438 1.386 . S
C1439 C1443 1.393 . S
C1440 H1429 0.950 . S
C1440 C1438 1.391 . S
C1440 C1441 1.400 . S
C1441 C1435 1.491 . S
C1441 C1440 1.400 . S
C1441 C1442 1.398 . S
C1442 H1430 0.950 . S
C1442 C1441 1.398 . S
C1442 C1443 1.391 . S
C1443 H1431 0.950 . S
C1443 C1439 1.393 . S
C1443 C1442 1.391 . S
H1444 C1452 0.950 . S
H1445 C1457 0.950 . S
H1446 C1454 0.950 . S
H1447 C1456 0.950 . S
H1448 C1458 0.950 . S
H1449 C1460 0.950 . S
H1450 C1462 0.950 . S
H1451 C1463 0.950 . S
C1452 H1444 0.950 . S
C1452 C1453 1.386 . S
C1452 C1454 1.391 . S
C1453 C1452 1.386 . S
C1453 C1457 1.393 . S
C1454 H1446 0.950 . S
C1454 C1452 1.391 . S
C1454 C1455 1.400 . S
C1455 C1454 1.400 . S
C1455 C1456 1.398 . S
C1455 C1461 1.491 . S
C1456 H1447 0.950 . S
C1456 C1455 1.398 . S
C1456 C1457 1.391 . S
C1457 H1445 0.950 . S
C1457 C1453 1.393 . S
C1457 C1456 1.391 . S
C1458 H1448 0.950 . S
C1458 C1459 1.386 . S
C1458 C1460 1.391 . S
C1459 C1458 1.386 . S
C1459 C1463 1.393 . S
C1460 H1449 0.950 . S
C1460 C1458 1.391 . S
C1460 C1461 1.400 . S
C1461 C1455 1.491 . S
C1461 C1460 1.400 . S
C1461 C1462 1.398 . S
C1462 H1450 0.950 . S
C1462 C1461 1.398 . S
C1462 C1463 1.391 . S
C1463 H1451 0.950 . S
C1463 C1459 1.393 . S
C1463 C1462 1.391 . S
H1464 C1472 0.950 . S
H1465 C1477 0.950 . S
H1466 C1474 0.950 . S
H1467 C1476 0.950 . S
H1468 C1478 0.950 . S
H1469 C1480 0.950 . S
H1470 C1482 0.950 . S
H1471 C1483 0.950 . S
C1472 H1464 0.950 . S
C1472 C1473 1.386 . S
C1472 C1474 1.391 . S
C1473 C1472 1.386 . S
C1473 C1477 1.393 . S
C1474 H1466 0.950 . S
C1474 C1472 1.391 . S
C1474 C1475 1.400 . S
C1475 C1474 1.400 . S
C1475 C1476 1.398 . S
C1475 C1481 1.491 . S
C1476 H1467 0.950 . S
C1476 C1475 1.398 . S
C1476 C1477 1.391 . S
C1477 H1465 0.950 . S
C1477 C1473 1.393 . S
C1477 C1476 1.391 . S
C1478 H1468 0.950 . S
C1478 C1479 1.386 . S
C1478 C1480 1.391 . S
C1479 C1478 1.386 . S
C1479 C1483 1.393 . S
C1480 H1469 0.950 . S
C1480 C1478 1.391 . S
C1480 C1481 1.400 . S
C1481 C1475 1.491 . S
C1481 C1480 1.400 . S
C1481 C1482 1.398 . S
C1482 H1470 0.950 . S
C1482 C1481 1.398 . S
C1482 C1483 1.391 . S
C1483 H1471 0.950 . S
C1483 C1479 1.393 . S
C1483 C1482 1.391 . S
H1484 C1492 0.950 . S
H1485 C1497 0.950 . S
H1486 C1494 0.950 . S
H1487 C1496 0.950 . S
H1488 C1498 0.950 . S
H1489 C1500 0.950 . S
H1490 C1502 0.950 . S
H1491 C1503 0.950 . S
C1492 H1484 0.950 . S
C1492 C1493 1.386 . S
C1492 C1494 1.391 . S
C1493 C1492 1.386 . S
C1493 C1497 1.393 . S
C1494 H1486 0.950 . S
C1494 C1492 1.391 . S
C1494 C1495 1.400 . S
C1495 C1494 1.400 . S
C1495 C1496 1.398 . S
C1495 C1501 1.491 . S
C1496 H1487 0.950 . S
C1496 C1495 1.398 . S
C1496 C1497 1.391 . S
C1497 H1485 0.950 . S
C1497 C1493 1.393 . S
C1497 C1496 1.391 . S
C1498 H1488 0.950 . S
C1498 C1499 1.386 . S
C1498 C1500 1.391 . S
C1499 C1498 1.386 . S
C1499 C1503 1.393 . S
C1500 H1489 0.950 . S
C1500 C1498 1.391 . S
C1500 C1501 1.400 . S
C1501 C1495 1.491 . S
C1501 C1500 1.400 . S
C1501 C1502 1.398 . S
C1502 H1490 0.950 . S
C1502 C1501 1.398 . S
C1502 C1503 1.391 . S
C1503 H1491 0.950 . S
C1503 C1499 1.393 . S
C1503 C1502 1.391 . S
H1504 C1512 0.950 . S
H1505 C1517 0.950 . S
H1506 C1514 0.950 . S
H1507 C1516 0.950 . S
H1508 C1518 0.950 . S
H1509 C1520 0.950 . S
H1510 C1522 0.950 . S
H1511 C1523 0.950 . S
C1512 H1504 0.950 . S
C1512 C1513 1.386 . S
C1512 C1514 1.391 . S
C1513 C1512 1.386 . S
C1513 C1517 1.393 . S
C1514 H1506 0.950 . S
C1514 C1512 1.391 . S
C1514 C1515 1.400 . S
C1515 C1514 1.400 . S
C1515 C1516 1.398 . S
C1515 C1521 1.491 . S
C1516 H1507 0.950 . S
C1516 C1515 1.398 . S
C1516 C1517 1.391 . S
C1517 H1505 0.950 . S
C1517 C1513 1.393 . S
C1517 C1516 1.391 . S
C1518 H1508 0.950 . S
C1518 C1519 1.386 . S
C1518 C1520 1.391 . S
C1519 C1518 1.386 . S
C1519 C1523 1.393 . S
C1520 H1509 0.950 . S
C1520 C1518 1.391 . S
C1520 C1521 1.400 . S
C1521 C1515 1.491 . S
C1521 C1520 1.400 . S
C1521 C1522 1.398 . S
C1522 H1510 0.950 . S
C1522 C1521 1.398 . S
C1522 C1523 1.391 . S
C1523 H1511 0.950 . S
C1523 C1519 1.393 . S
C1523 C1522 1.391 . S
H1524 C1532 0.950 . S
H1525 C1537 0.950 . S
H1526 C1534 0.950 . S
H1527 C1536 0.950 . S
H1528 C1538 0.950 . S
H1529 C1540 0.950 . S
H1530 C1542 0.950 . S
H1531 C1543 0.950 . S
C1532 H1524 0.950 . S
C1532 C1533 1.386 . S
C1532 C1534 1.391 . S
C1533 C1532 1.386 . S
C1533 C1537 1.393 . S
C1534 H1526 0.950 . S
C1534 C1532 1.391 . S
C1534 C1535 1.400 . S
C1535 C1534 1.400 . S
C1535 C1536 1.398 . S
C1535 C1541 1.491 . S
C1536 H1527 0.950 . S
C1536 C1535 1.398 . S
C1536 C1537 1.391 . S
C1537 H1525 0.950 . S
C1537 C1533 1.393 . S
C1537 C1536 1.391 . S
C1538 H1528 0.950 . S
C1538 C1539 1.386 . S
C1538 C1540 1.391 . S
C1539 C1538 1.386 . S
C1539 C1543 1.393 . S
C1540 H1529 0.950 . S
C1540 C1538 1.391 . S
C1540 C1541 1.400 . S
C1541 C1535 1.491 . S
C1541 C1540 1.400 . S
C1541 C1542 1.398 . S
C1542 H1530 0.950 . S
C1542 C1541 1.398 . S
C1542 C1543 1.391 . S
C1543 H1531 0.950 . S
C1543 C1539 1.393 . S
C1543 C1542 1.391 . S
H1544 C1552 0.950 . S
H1545 C1557 0.950 . S
H1546 C1554 0.950 . S
H1547 C1556 0.950 . S
H1548 C1558 0.950 . S
H1549 C1560 0.950 . S
H1550 C1562 0.950 . S
H1551 C1563 0.950 . S
C1552 H1544 0.950 . S
C1552 C1553 1.386 . S
C1552 C1554 1.391 . S
C1553 C1552 1.386 . S
C1553 C1557 1.393 . S
C1554 H1546 0.950 . S
C1554 C1552 1.391 . S
C1554 C1555 1.400 . S
C1555 C1554 1.400 . S
C1555 C1556 1.398 . S
C1555 C1561 1.491 . S
C1556 H1547 0.950 . S
C1556 C1555 1.398 . S
C1556 C1557 1.391 . S
C1557 H1545 0.950 . S
C1557 C1553 1.393 . S
C1557 C1556 1.391 . S
C1558 H1548 0.950 . S
C1558 C1559 1.386 . S
C1558 C1560 1.391 . S
C1559 C1558 1.386 . S
C1559 C1563 1.393 . S
C1560 H1549 0.950 . S
C1560 C1558 1.391 . S
C1560 C1561 1.400 . S
C1561 C1555 1.491 . S
C1561 C1560 1.400 . S
C1561 C1562 1.398 . S
C1562 H1550 0.950 . S
C1562 C1561 1.398 . S
C1562 C1563 1.391 . S
C1563 H1551 0.950 . S
C1563 C1559 1.393 . S
C1563 C1562 1.391 . S
H1564 C1572 0.950 . S
H1565 C1577 0.950 . S
H1566 C1574 0.950 . S
H1567 C1576 0.950 . S
H1568 C1578 0.950 . S
H1569 C1580 0.950 . S
H1570 C1582 0.950 . S
H1571 C1583 0.950 . S
C1572 H1564 0.950 . S
C1572 C1573 1.386 . S
C1572 C1574 1.391 . S
C1573 C1572 1.386 . S
C1573 C1577 1.393 . S
C1574 H1566 0.950 . S
C1574 C1572 1.391 . S
C1574 C1575 1.400 . S
C1575 C1574 1.400 . S
C1575 C1576 1.398 . S
C1575 C1581 1.491 . S
C1576 H1567 0.950 . S
C1576 C1575 1.398 . S
C1576 C1577 1.391 . S
C1577 H1565 0.950 . S
C1577 C1573 1.393 . S
C1577 C1576 1.391 . S
C1578 H1568 0.950 . S
C1578 C1579 1.386 . S
C1578 C1580 1.391 . S
C1579 C1578 1.386 . S
C1579 C1583 1.393 . S
C1580 H1569 0.950 . S
C1580 C1578 1.391 . S
C1580 C1581 1.400 . S
C1581 C1575 1.491 . S
C1581 C1580 1.400 . S
C1581 C1582 1.398 . S
C1582 H1570 0.950 . S
C1582 C1581 1.398 . S
C1582 C1583 1.391 . S
C1583 H1571 0.950 . S
C1583 C1579 1.393 . S
C1583 C1582 1.391 . S
H1584 C1592 0.950 . S
H1585 C1597 0.950 . S
H1586 C1594 0.950 . S
H1587 C1596 0.950 . S
H1588 C1598 0.950 . S
H1589 C1600 0.950 . S
H1590 C1602 0.950 . S
H1591 C1603 0.950 . S
C1592 H1584 0.950 . S
C1592 C1593 1.386 . S
C1592 C1594 1.391 . S
C1593 C1592 1.386 . S
C1593 C1597 1.393 . S
C1594 H1586 0.950 . S
C1594 C1592 1.391 . S
C1594 C1595 1.400 . S
C1595 C1594 1.400 . S
C1595 C1596 1.398 . S
C1595 C1601 1.491 . S
C1596 H1587 0.950 . S
C1596 C1595 1.398 . S
C1596 C1597 1.391 . S
C1597 H1585 0.950 . S
C1597 C1593 1.393 . S
C1597 C1596 1.391 . S
C1598 H1588 0.950 . S
C1598 C1599 1.386 . S
C1598 C1600 1.391 . S
C1599 C1598 1.386 . S
C1599 C1603 1.393 . S
C1600 H1589 0.950 . S
C1600 C1598 1.391 . S
C1600 C1601 1.400 . S
C1601 C1595 1.491 . S
C1601 C1600 1.400 . S
C1601 C1602 1.398 . S
C1602 H1590 0.950 . S
C1602 C1601 1.398 . S
C1602 C1603 1.391 . S
C1603 H1591 0.950 . S
C1603 C1599 1.393 . S
C1603 C1602 1.391 . S
H1604 C1612 0.950 . S
H1605 C1617 0.950 . S
H1606 C1614 0.950 . S
H1607 C1616 0.950 . S
H1608 C1618 0.950 . S
H1609 C1620 0.950 . S
H1610 C1622 0.950 . S
H1611 C1623 0.950 . S
C1612 H1604 0.950 . S
C1612 C1613 1.386 . S
C1612 C1614 1.391 . S
C1613 C1612 1.386 . S
C1613 C1617 1.393 . S
C1614 H1606 0.950 . S
C1614 C1612 1.391 . S
C1614 C1615 1.400 . S
C1615 C1614 1.400 . S
C1615 C1616 1.398 . S
C1615 C1621 1.491 . S
C1616 H1607 0.950 . S
C1616 C1615 1.398 . S
C1616 C1617 1.391 . S
C1617 H1605 0.950 . S
C1617 C1613 1.393 . S
C1617 C1616 1.391 . S
C1618 H1608 0.950 . S
C1618 C1619 1.386 . S
C1618 C1620 1.391 . S
C1619 C1618 1.386 . S
C1619 C1623 1.393 . S
C1620 H1609 0.950 . S
C1620 C1618 1.391 . S
C1620 C1621 1.400 . S
C1621 C1615 1.491 . S
C1621 C1620 1.400 . S
C1621 C1622 1.398 . S
C1622 H1610 0.950 . S
C1622 C1621 1.398 . S
C1622 C1623 1.391 . S
C1623 H1611 0.950 . S
C1623 C1619 1.393 . S
C1623 C1622 1.391 . S
H1624 C1632 0.950 . S
H1625 C1637 0.950 . S
H1626 C1634 0.950 . S
H1627 C1636 0.950 . S
H1628 C1638 0.950 . S
H1629 C1640 0.950 . S
H1630 C1642 0.950 . S
H1631 C1643 0.950 . S
C1632 H1624 0.950 . S
C1632 C1633 1.386 . S
C1632 C1634 1.391 . S
C1633 C1632 1.386 . S
C1633 C1637 1.393 . S
C1634 H1626 0.950 . S
C1634 C1632 1.391 . S
C1634 C1635 1.400 . S
C1635 C1634 1.400 . S
C1635 C1636 1.398 . S
C1635 C1641 1.491 . S
C1636 H1627 0.950 . S
C1636 C1635 1.398 . S
C1636 C1637 1.391 . S
C1637 H1625 0.950 . S
C1637 C1633 1.393 . S
C1637 C1636 1.391 . S
C1638 H1628 0.950 . S
C1638 C1639 1.386 . S
C1638 C1640 1.391 . S
C1639 C1638 1.386 . S
C1639 C1643 1.393 . S
C1640 H1629 0.950 . S
C1640 C1638 1.391 . S
C1640 C1641 1.400 . S
C1641 C1635 1.491 . S
C1641 C1640 1.400 . S
C1641 C1642 1.398 . S
C1642 H1630 0.950 . S
C1642 C1641 1.398 . S
C1642 C1643 1.391 . S
C1643 H1631 0.950 . S
C1643 C1639 1.393 . S
C1643 C1642 1.391 . S
H1644 C1652 0.950 . S
H1645 C1657 0.950 . S
H1646 C1654 0.950 . S
H1647 C1656 0.950 . S
H1648 C1658 0.950 . S
H1649 C1660 0.950 . S
H1650 C1662 0.950 . S
H1651 C1663 0.950 . S
C1652 H1644 0.950 . S
C1652 C1653 1.386 . S
C1652 C1654 1.391 . S
C1653 C1652 1.386 . S
C1653 C1657 1.393 . S
C1654 H1646 0.950 . S
C1654 C1652 1.391 . S
C1654 C1655 1.400 . S
C1655 C1654 1.400 . S
C1655 C1656 1.398 . S
C1655 C1661 1.491 . S
C1656 H1647 0.950 . S
C1656 C1655 1.398 . S
C1656 C1657 1.391 . S
C1657 H1645 0.950 . S
C1657 C1653 1.393 . S
C1657 C1656 1.391 . S
C1658 H1648 0.950 . S
C1658 C1659 1.386 . S
C1658 C1660 1.391 . S
C1659 C1658 1.386 . S
C1659 C1663 1.393 . S
C1660 H1649 0.950 . S
C1660 C1658 1.391 . S
C1660 C1661 1.400 . S
C1661 C1655 1.491 . S
C1661 C1660 1.400 . S
C1661 C1662 1.398 . S
C1662 H1650 0.950 . S
C1662 C1661 1.398 . S
C1662 C1663 1.391 . S
C1663 H1651 0.950 . S
C1663 C1659 1.393 . S
C1663 C1662 1.391 . S
H1664 C1672 0.950 . S
H1665 C1677 0.950 . S
H1666 C1674 0.950 . S
H1667 C1676 0.950 . S
H1668 C1678 0.950 . S
H1669 C1680 0.950 . S
H1670 C1682 0.950 . S
H1671 C1683 0.950 . S
C1672 H1664 0.950 . S
C1672 C1673 1.386 . S
C1672 C1674 1.391 . S
C1673 C1672 1.386 . S
C1673 C1677 1.393 . S
C1674 H1666 0.950 . S
C1674 C1672 1.391 . S
C1674 C1675 1.400 . S
C1675 C1674 1.400 . S
C1675 C1676 1.398 . S
C1675 C1681 1.491 . S
C1676 H1667 0.950 . S
C1676 C1675 1.398 . S
C1676 C1677 1.391 . S
C1677 H1665 0.950 . S
C1677 C1673 1.393 . S
C1677 C1676 1.391 . S
C1678 H1668 0.950 . S
C1678 C1679 1.386 . S
C1678 C1680 1.391 . S
C1679 C1678 1.386 . S
C1679 C1683 1.393 . S
C1680 H1669 0.950 . S
C1680 C1678 1.391 . S
C1680 C1681 1.400 . S
C1681 C1675 1.491 . S
C1681 C1680 1.400 . S
C1681 C1682 1.398 . S
C1682 H1670 0.950 . S
C1682 C1681 1.398 . S
C1682 C1683 1.391 . S
C1683 H1671 0.950 . S
C1683 C1679 1.393 . S
C1683 C1682 1.391 . S
H1684 C1692 0.950 . S
H1685 C1697 0.950 . S
H1686 C1694 0.950 . S
H1687 C1696 0.950 . S
H1688 C1698 0.950 . S
H1689 C1700 0.950 . S
H1690 C1702 0.950 . S
H1691 C1703 0.950 . S
C1692 H1684 0.950 . S
C1692 C1693 1.386 . S
C1692 C1694 1.391 . S
C1693 C1692 1.386 . S
C1693 C1697 1.393 . S
C1694 H1686 0.950 . S
C1694 C1692 1.391 . S
C1694 C1695 1.400 . S
C1695 C1694 1.400 . S
C1695 C1696 1.398 . S
C1695 C1701 1.491 . S
C1696 H1687 0.950 . S
C1696 C1695 1.398 . S
C1696 C1697 1.391 . S
C1697 H1685 0.950 . S
C1697 C1693 1.393 . S
C1697 C1696 1.391 . S
C1698 H1688 0.950 . S
C1698 C1699 1.386 . S
C1698 C1700 1.391 . S
C1699 C1698 1.386 . S
C1699 C1703 1.393 . S
C1700 H1689 0.950 . S
C1700 C1698 1.391 . S
C1700 C1701 1.400 . S
C1701 C1695 1.491 . S
C1701 C1700 1.400 . S
C1701 C1702 1.398 . S
C1702 H1690 0.950 . S
C1702 C1701 1.398 . S
C1702 C1703 1.391 . S
C1703 H1691 0.950 . S
C1703 C1699 1.393 . S
C1703 C1702 1.391 . S
H1704 C1712 0.950 . S
H1705 C1717 0.950 . S
H1706 C1714 0.950 . S
H1707 C1716 0.950 . S
H1708 C1718 0.950 . S
H1709 C1720 0.950 . S
H1710 C1722 0.950 . S
H1711 C1723 0.950 . S
C1712 H1704 0.950 . S
C1712 C1713 1.386 . S
C1712 C1714 1.391 . S
C1713 C1712 1.386 . S
C1713 C1717 1.393 . S
C1714 H1706 0.950 . S
C1714 C1712 1.391 . S
C1714 C1715 1.400 . S
C1715 C1714 1.400 . S
C1715 C1716 1.398 . S
C1715 C1721 1.491 . S
C1716 H1707 0.950 . S
C1716 C1715 1.398 . S
C1716 C1717 1.391 . S
C1717 H1705 0.950 . S
C1717 C1713 1.393 . S
C1717 C1716 1.391 . S
C1718 H1708 0.950 . S
C1718 C1719 1.386 . S
C1718 C1720 1.391 . S
C1719 C1718 1.386 . S
C1719 C1723 1.393 . S
C1720 H1709 0.950 . S
C1720 C1718 1.391 . S
C1720 C1721 1.400 . S
C1721 C1715 1.491 . S
C1721 C1720 1.400 . S
C1721 C1722 1.398 . S
C1722 H1710 0.950 . S
C1722 C1721 1.398 . S
C1722 C1723 1.391 . S
C1723 H1711 0.950 . S
C1723 C1719 1.393 . S
C1723 C1722 1.391 . S
H1724 C1732 0.950 . S
H1725 C1737 0.950 . S
H1726 C1734 0.950 . S
H1727 C1736 0.950 . S
H1728 C1738 0.950 . S
H1729 C1740 0.950 . S
H1730 C1742 0.950 . S
H1731 C1743 0.950 . S
C1732 H1724 0.950 . S
C1732 C1733 1.386 . S
C1732 C1734 1.391 . S
C1733 C1732 1.386 . S
C1733 C1737 1.393 . S
C1734 H1726 0.950 . S
C1734 C1732 1.391 . S
C1734 C1735 1.400 . S
C1735 C1734 1.400 . S
C1735 C1736 1.398 . S
C1735 C1741 1.491 . S
C1736 H1727 0.950 . S
C1736 C1735 1.398 . S
C1736 C1737 1.391 . S
C1737 H1725 0.950 . S
C1737 C1733 1.393 . S
C1737 C1736 1.391 . S
C1738 H1728 0.950 . S
C1738 C1739 1.386 . S
C1738 C1740 1.391 . S
C1739 C1738 1.386 . S
C1739 C1743 1.393 . S
C1740 H1729 0.950 . S
C1740 C1738 1.391 . S
C1740 C1741 1.400 . S
C1741 C1735 1.491 . S
C1741 C1740 1.400 . S
C1741 C1742 1.398 . S
C1742 H1730 0.950 . S
C1742 C1741 1.398 . S
C1742 C1743 1.391 . S
C1743 H1731 0.950 . S
C1743 C1739 1.393 . S
C1743 C1742 1.391 . S
H1744 C1752 0.950 . S
H1745 C1757 0.950 . S
H1746 C1754 0.950 . S
H1747 C1756 0.950 . S
H1748 C1758 0.950 . S
H1749 C1760 0.950 . S
H1750 C1762 0.950 . S
H1751 C1763 0.950 . S
C1752 H1744 0.950 . S
C1752 C1753 1.386 . S
C1752 C1754 1.391 . S
C1753 C1752 1.386 . S
C1753 C1757 1.393 . S
C1754 H1746 0.950 . S
C1754 C1752 1.391 . S
C1754 C1755 1.400 . S
C1755 C1754 1.400 . S
C1755 C1756 1.398 . S
C1755 C1761 1.491 . S
C1756 H1747 0.950 . S
C1756 C1755 1.398 . S
C1756 C1757 1.391 . S
C1757 H1745 0.950 . S
C1757 C1753 1.393 . S
C1757 C1756 1.391 . S
C1758 H1748 0.950 . S
C1758 C1759 1.386 . S
C1758 C1760 1.391 . S
C1759 C1758 1.386 . S
C1759 C1763 1.393 . S
C1760 H1749 0.950 . S
C1760 C1758 1.391 . S
C1760 C1761 1.400 . S
C1761 C1755 1.491 . S
C1761 C1760 1.400 . S
C1761 C1762 1.398 . S
C1762 H1750 0.950 . S
C1762 C1761 1.398 . S
C1762 C1763 1.391 . S
C1763 H1751 0.950 . S
C1763 C1759 1.393 . S
C1763 C1762 1.391 . S
H1764 C1772 0.950 . S
H1765 C1777 0.950 . S
H1766 C1774 0.950 . S
H1767 C1776 0.950 . S
H1768 C1778 0.950 . S
H1769 C1780 0.950 . S
H1770 C1782 0.950 . S
H1771 C1783 0.950 . S
C1772 H1764 0.950 . S
C1772 C1773 1.386 . S
C1772 C1774 1.391 . S
C1773 C1772 1.386 . S
C1773 C1777 1.393 . S
C1774 H1766 0.950 . S
C1774 C1772 1.391 . S
C1774 C1775 1.400 . S
C1775 C1774 1.400 . S
C1775 C1776 1.398 . S
C1775 C1781 1.491 . S
C1776 H1767 0.950 . S
C1776 C1775 1.398 . S
C1776 C1777 1.391 . S
C1777 H1765 0.950 . S
C1777 C1773 1.393 . S
C1777 C1776 1.391 . S
C1778 H1768 0.950 . S
C1778 C1779 1.386 . S
C1778 C1780 1.391 . S
C1779 C1778 1.386 . S
C1779 C1783 1.393 . S
C1780 H1769 0.950 . S
C1780 C1778 1.391 . S
C1780 C1781 1.400 . S
C1781 C1775 1.491 . S
C1781 C1780 1.400 . S
C1781 C1782 1.398 . S
C1782 H1770 0.950 . S
C1782 C1781 1.398 . S
C1782 C1783 1.391 . S
C1783 H1771 0.950 . S
C1783 C1779 1.393 . S
C1783 C1782 1.391 . S
H1784 C1792 0.950 . S
H1785 C1797 0.950 . S
H1786 C1794 0.950 . S
H1787 C1796 0.950 . S
H1788 C1798 0.950 . S
H1789 C1800 0.950 . S
H1790 C1802 0.950 . S
H1791 C1803 0.950 . S
C1792 H1784 0.950 . S
C1792 C1793 1.386 . S
C1792 C1794 1.391 . S
C1793 C1792 1.386 . S
C1793 C1797 1.393 . S
C1794 H1786 0.950 . S
C1794 C1792 1.391 . S
C1794 C1795 1.400 . S
C1795 C1794 1.400 . S
C1795 C1796 1.398 . S
C1795 C1801 1.491 . S
C1796 H1787 0.950 . S
C1796 C1795 1.398 . S
C1796 C1797 1.391 . S
C1797 H1785 0.950 . S
C1797 C1793 1.393 . S
C1797 C1796 1.391 . S
C1798 H1788 0.950 . S
C1798 C1799 1.386 . S
C1798 C1800 1.391 . S
C1799 C1798 1.386 . S
C1799 C1803 1.393 . S
C1800 H1789 0.950 . S
C1800 C1798 1.391 . S
C1800 C1801 1.400 . S
C1801 C1795 1.491 . S
C1801 C1800 1.400 . S
C1801 C1802 1.398 . S
C1802 H1790 0.950 . S
C1802 C1801 1.398 . S
C1802 C1803 1.391 . S
C1803 H1791 0.950 . S
C1803 C1799 1.393 . S
C1803 C1802 1.391 . S
H1804 C1812 0.950 . S
H1805 C1817 0.950 . S
H1806 C1814 0.950 . S
H1807 C1816 0.950 . S
H1808 C1818 0.950 . S
H1809 C1820 0.950 . S
H1810 C1822 0.950 . S
H1811 C1823 0.950 . S
C1812 H1804 0.950 . S
C1812 C1813 1.386 . S
C1812 C1814 1.391 . S
C1813 C1812 1.386 . S
C1813 C1817 1.393 . S
C1814 H1806 0.950 . S
C1814 C1812 1.391 . S
C1814 C1815 1.400 . S
C1815 C1814 1.400 . S
C1815 C1816 1.398 . S
C1815 C1821 1.491 . S
C1816 H1807 0.950 . S
C1816 C1815 1.398 . S
C1816 C1817 1.391 . S
C1817 H1805 0.950 . S
C1817 C1813 1.393 . S
C1817 C1816 1.391 . S
C1818 H1808 0.950 . S
C1818 C1819 1.386 . S
C1818 C1820 1.391 . S
C1819 C1818 1.386 . S
C1819 C1823 1.393 . S
C1820 H1809 0.950 . S
C1820 C1818 1.391 . S
C1820 C1821 1.400 . S
C1821 C1815 1.491 . S
C1821 C1820 1.400 . S
C1821 C1822 1.398 . S
C1822 H1810 0.950 . S
C1822 C1821 1.398 . S
C1822 C1823 1.391 . S
C1823 H1811 0.950 . S
C1823 C1819 1.393 . S
C1823 C1822 1.391 . S
H1824 C1832 0.950 . S
H1825 C1837 0.950 . S
H1826 C1834 0.950 . S
H1827 C1836 0.950 . S
H1828 C1838 0.950 . S
H1829 C1840 0.950 . S
H1830 C1842 0.950 . S
H1831 C1843 0.950 . S
C1832 H1824 0.950 . S
C1832 C1833 1.386 . S
C1832 C1834 1.391 . S
C1833 C1832 1.386 . S
C1833 C1837 1.393 . S
C1834 H1826 0.950 . S
C1834 C1832 1.391 . S
C1834 C1835 1.400 . S
C1835 C1834 1.400 . S
C1835 C1836 1.398 . S
C1835 C1841 1.491 . S
C1836 H1827 0.950 . S
C1836 C1835 1.398 . S
C1836 C1837 1.391 . S
C1837 H1825 0.950 . S
C1837 C1833 1.393 . S
C1837 C1836 1.391 . S
C1838 H1828 0.950 . S
C1838 C1839 1.386 . S
C1838 C1840 1.391 . S
C1839 C1838 1.386 . S
C1839 C1843 1.393 . S
C1840 H1829 0.950 . S
C1840 C1838 1.391 . S
C1840 C1841 1.400 . S
C1841 C1835 1.491 . S
C1841 C1840 1.400 . S
C1841 C1842 1.398 . S
C1842 H1830 0.950 . S
C1842 C1841 1.398 . S
C1842 C1843 1.391 . S
C1843 H1831 0.950 . S
C1843 C1839 1.393 . S
C1843 C1842 1.391 . S
H1844 C1852 0.950 . S
H1845 C1857 0.950 . S
H1846 C1854 0.950 . S
H1847 C1856 0.950 . S
H1848 C1858 0.950 . S
H1849 C1860 0.950 . S
H1850 C1862 0.950 . S
H1851 C1863 0.950 . S
C1852 H1844 0.950 . S
C1852 C1853 1.386 . S
C1852 C1854 1.391 . S
C1853 C1852 1.386 . S
C1853 C1857 1.393 . S
C1854 H1846 0.950 . S
C1854 C1852 1.391 . S
C1854 C1855 1.400 . S
C1855 C1854 1.400 . S
C1855 C1856 1.398 . S
C1855 C1861 1.491 . S
C1856 H1847 0.950 . S
C1856 C1855 1.398 . S
C1856 C1857 1.391 . S
C1857 H1845 0.950 . S
C1857 C1853 1.393 . S
C1857 C1856 1.391 . S
C1858 H1848 0.950 . S
C1858 C1859 1.386 . S
C1858 C1860 1.391 . S
C1859 C1858 1.386 . S
C1859 C1863 1.393 . S
C1860 H1849 0.950 . S
C1860 C1858 1.391 . S
C1860 C1861 1.400 . S
C1861 C1855 1.491 . S
C1861 C1860 1.400 . S
C1861 C1862 1.398 . S
C1862 H1850 0.950 . S
C1862 C1861 1.398 . S
C1862 C1863 1.391 . S
C1863 H1851 0.950 . S
C1863 C1859 1.393 . S
C1863 C1862 1.391 . S
H1864 C1872 0.950 . S
H1865 C1877 0.950 . S
H1866 C1874 0.950 . S
H1867 C1876 0.950 . S
H1868 C1878 0.950 . S
H1869 C1880 0.950 . S
H1870 C1882 0.950 . S
H1871 C1883 0.950 . S
C1872 H1864 0.950 . S
C1872 C1873 1.386 . S
C1872 C1874 1.391 . S
C1873 C1872 1.386 . S
C1873 C1877 1.393 . S
C1874 H1866 0.950 . S
C1874 C1872 1.391 . S
C1874 C1875 1.400 . S
C1875 C1874 1.400 . S
C1875 C1876 1.398 . S
C1875 C1881 1.491 . S
C1876 H1867 0.950 . S
C1876 C1875 1.398 . S
C1876 C1877 1.391 . S
C1877 H1865 0.950 . S
C1877 C1873 1.393 . S
C1877 C1876 1.391 . S
C1878 H1868 0.950 . S
C1878 C1879 1.386 . S
C1878 C1880 1.391 . S
C1879 C1878 1.386 . S
C1879 C1883 1.393 . S
C1880 H1869 0.950 . S
C1880 C1878 1.391 . S
C1880 C1881 1.400 . S
C1881 C1875 1.491 . S
C1881 C1880 1.400 . S
C1881 C1882 1.398 . S
C1882 H1870 0.950 . S
C1882 C1881 1.398 . S
C1882 C1883 1.391 . S
C1883 H1871 0.950 . S
C1883 C1879 1.393 . S
C1883 C1882 1.391 . S
H1884 C1892 0.950 . S
H1885 C1897 0.950 . S
H1886 C1894 0.950 . S
H1887 C1896 0.950 . S
H1888 C1898 0.950 . S
H1889 C1900 0.950 . S
H1890 C1902 0.950 . S
H1891 C1903 0.950 . S
C1892 H1884 0.950 . S
C1892 C1893 1.386 . S
C1892 C1894 1.391 . S
C1893 C1892 1.386 . S
C1893 C1897 1.393 . S
C1894 H1886 0.950 . S
C1894 C1892 1.391 . S
C1894 C1895 1.400 . S
C1895 C1894 1.400 . S
C1895 C1896 1.398 . S
C1895 C1901 1.491 . S
C1896 H1887 0.950 . S
C1896 C1895 1.398 . S
C1896 C1897 1.391 . S
C1897 H1885 0.950 . S
C1897 C1893 1.393 . S
C1897 C1896 1.391 . S
C1898 H1888 0.950 . S
C1898 C1899 1.386 . S
C1898 C1900 1.391 . S
C1899 C1898 1.386 . S
C1899 C1903 1.393 . S
C1900 H1889 0.950 . S
C1900 C1898 1.391 . S
C1900 C1901 1.400 . S
C1901 C1895 1.491 . S
C1901 C1900 1.400 . S
C1901 C1902 1.398 . S
C1902 H1890 0.950 . S
C1902 C1901 1.398 . S
C1902 C1903 1.391 . S
C1903 H1891 0.950 . S
C1903 C1899 1.393 . S
C1903 C1902 1.391 . S
H1904 C1912 0.950 . S
H1905 C1917 0.950 . S
H1906 C1914 0.950 . S
H1907 C1916 0.950 . S
H1908 C1918 0.950 . S
H1909 C1920 0.950 . S
H1910 C1922 0.950 . S
H1911 C1923 0.950 . S
C1912 H1904 0.950 . S
C1912 C1913 1.386 . S
C1912 C1914 1.391 . S
C1913 C1912 1.386 . S
C1913 C1917 1.393 . S
C1914 H1906 0.950 . S
C1914 C1912 1.391 . S
C1914 C1915 1.400 . S
C1915 C1914 1.400 . S
C1915 C1916 1.398 . S
C1915 C1921 1.491 . S
C1916 H1907 0.950 . S
C1916 C1915 1.398 . S
C1916 C1917 1.391 . S
C1917 H1905 0.950 . S
C1917 C1913 1.393 . S
C1917 C1916 1.391 . S
C1918 H1908 0.950 . S
C1918 C1919 1.386 . S
C1918 C1920 1.391 . S
C1919 C1918 1.386 . S
C1919 C1923 1.393 . S
C1920 H1909 0.950 . S
C1920 C1918 1.391 . S
C1920 C1921 1.400 . S
C1921 C1915 1.491 . S
C1921 C1920 1.400 . S
C1921 C1922 1.398 . S
C1922 H1910 0.950 . S
C1922 C1921 1.398 . S
C1922 C1923 1.391 . S
C1923 H1911 0.950 . S
C1923 C1919 1.393 . S
C1923 C1922 1.391 . S
H1924 C1932 0.950 . S
H1925 C1937 0.950 . S
H1926 C1934 0.950 . S
H1927 C1936 0.950 . S
H1928 C1938 0.950 . S
H1929 C1940 0.950 . S
H1930 C1942 0.950 . S
H1931 C1943 0.950 . S
C1932 H1924 0.950 . S
C1932 C1933 1.386 . S
C1932 C1934 1.391 . S
C1933 C1932 1.386 . S
C1933 C1937 1.393 . S
C1934 H1926 0.950 . S
C1934 C1932 1.391 . S
C1934 C1935 1.400 . S
C1935 C1934 1.400 . S
C1935 C1936 1.398 . S
C1935 C1941 1.491 . S
C1936 H1927 0.950 . S
C1936 C1935 1.398 . S
C1936 C1937 1.391 . S
C1937 H1925 0.950 . S
C1937 C1933 1.393 . S
C1937 C1936 1.391 . S
C1938 H1928 0.950 . S
C1938 C1939 1.386 . S
C1938 C1940 1.391 . S
C1939 C1938 1.386 . S
C1939 C1943 1.393 . S
C1940 H1929 0.950 . S
C1940 C1938 1.391 . S
C1940 C1941 1.400 . S
C1941 C1935 1.491 . S
C1941 C1940 1.400 . S
C1941 C1942 1.398 . S
C1942 H1930 0.950 . S
C1942 C1941 1.398 . S
C1942 C1943 1.391 . S
C1943 H1931 0.950 . S
C1943 C1939 1.393 . S
C1943 C1942 1.391 . S
H1944 C1952 0.950 . S
H1945 C1957 0.950 . S
H1946 C1954 0.950 . S
H1947 C1956 0.950 . S
H1948 C1958 0.950 . S
H1949 C1960 0.950 . S
H1950 C1962 0.950 . S
H1951 C1963 0.950 . S
C1952 H1944 0.950 . S
C1952 C1953 1.386 . S
C1952 C1954 1.391 . S
C1953 C1952 1.386 . S
C1953 C1957 1.393 . S
C1954 H1946 0.950 . S
C1954 C1952 1.391 . S
C1954 C1955 1.400 . S
C1955 C1954 1.400 . S
C1955 C1956 1.398 . S
C1955 C1961 1.491 . S
C1956 H1947 0.950 . S
C1956 C1955 1.398 . S
C1956 C1957 1.391 . S
C1957 H1945 0.950 . S
C1957 C1953 1.393 . S
C1957 C1956 1.391 . S
C1958 H1948 0.950 . S
C1958 C1959 1.386 . S
C1958 C1960 1.391 . S
C1959 C1958 1.386 . S
C1959 C1963 1.393 . S
C1960 H1949 0.950 . S
C1960 C1958 1.391 . S
C1960 C1961 1.400 . S
C1961 C1955 1.491 . S
C1961 C1960 1.400 . S
C1961 C1962 1.398 . S
C1962 H1950 0.950 . S
C1962 C1961 1.398 . S
C1962 C1963 1.391 . S
C1963 H1951 0.950 . S
C1963 C1959 1.393 . S
C1963 C1962 1.391 . S
H1964 C1972 0.950 . S
H1965 C1977 0.950 . S
H1966 C1974 0.950 . S
H1967 C1976 0.950 . S
H1968 C1978 0.950 . S
H1969 C1980 0.950 . S
H1970 C1982 0.950 . S
H1971 C1983 0.950 . S
C1972 H1964 0.950 . S
C1972 C1973 1.386 . S
C1972 C1974 1.391 . S
C1973 C1972 1.386 . S
C1973 C1977 1.393 . S
C1974 H1966 0.950 . S
C1974 C1972 1.391 . S
C1974 C1975 1.400 . S
C1975 C1974 1.400 . S
C1975 C1976 1.398 . S
C1975 C1981 1.491 . S
C1976 H1967 0.950 . S
C1976 C1975 1.398 . S
C1976 C1977 1.391 . S
C1977 H1965 0.950 . S
C1977 C1973 1.393 . S
C1977 C1976 1.391 . S
C1978 H1968 0.950 . S
C1978 C1979 1.386 . S
C1978 C1980 1.391 . S
C1979 C1978 1.386 . S
C1979 C1983 1.393 . S
C1980 H1969 0.950 . S
C1980 C1978 1.391 . S
C1980 C1981 1.400 . S
C1981 C1975 1.491 . S
C1981 C1980 1.400 . S
C1981 C1982 1.398 . S
C1982 H1970 0.950 . S
C1982 C1981 1.398 . S
C1982 C1983 1.391 . S
C1983 H1971 0.950 . S
C1983 C1979 1.393 . S
C1983 C1982 1.391 . S
H1984 C1992 0.950 . S
H1985 C1997 0.950 . S
H1986 C1994 0.950 . S
H1987 C1996 0.950 . S
H1988 C1998 0.950 . S
H1989 C2000 0.950 . S
H1990 C2002 0.950 . S
H1991 C2003 0.950 . S
C1992 H1984 0.950 . S
C1992 C1993 1.386 . S
C1992 C1994 1.391 . S
C1993 C1992 1.386 . S
C1993 C1997 1.393 . S
C1994 H1986 0.950 . S
C1994 C1992 1.391 . S
C1994 C1995 1.400 . S
C1995 C1994 1.400 . S
C1995 C1996 1.398 . S
C1995 C2001 1.491 . S
C1996 H1987 0.950 . S
C1996 C1995 1.398 . S
C1996 C1997 1.391 . S
C1997 H1985 0.950 . S
C1997 C1993 1.393 . S
C1997 C1996 1.391 . S
C1998 H1988 0.950 . S
C1998 C1999 1.386 . S
C1998 C2000 1.391 . S
C1999 C1998 1.386 . S
C1999 C2003 1.393 . S
C2000 H1989 0.950 . S
C2000 C1998 1.391 . S
C2000 C2001 1.400 . S
C2001 C1995 1.491 . S
C2001 C2000 1.400 . S
C2001 C2002 1.398 . S
C2002 H1990 0.950 . S
C2002 C2001 1.398 . S
C2002 C2003 1.391 . S
C2003 H1991 0.950 . S
C2003 C1999 1.393 . S
C2003 C2002 1.391 . S
H2004 C2012 0.950 . S
H2005 C2017 0.950 . S
H2006 C2014 0.950 . S
H2007 C2016 0.950 . S
H2008 C2018 0.950 . S
H2009 C2020 0.950 . S
H2010 C2022 0.950 . S
H2011 C2023 0.950 . S
C2012 H2004 0.950 . S
C2012 C2013 1.386 . S
C2012 C2014 1.391 . S
C2013 C2012 1.386 . S
C2013 C2017 1.393 . S
C2014 H2006 0.950 . S
C2014 C2012 1.391 . S
C2014 C2015 1.400 . S
C2015 C2014 1.400 . S
C2015 C2016 1.398 . S
C2015 C2021 1.491 . S
C2016 H2007 0.950 . S
C2016 C2015 1.398 . S
C2016 C2017 1.391 . S
C2017 H2005 0.950 . S
C2017 C2013 1.393 . S
C2017 C2016 1.391 . S
C2018 H2008 0.950 . S
C2018 C2019 1.386 . S
C2018 C2020 1.391 . S
C2019 C2018 1.386 . S
C2019 C2023 1.393 . S
C2020 H2009 0.950 . S
C2020 C2018 1.391 . S
C2020 C2021 1.400 . S
C2021 C2015 1.491 . S
C2021 C2020 1.400 . S
C2021 C2022 1.398 . S
C2022 H2010 0.950 . S
C2022 C2021 1.398 . S
C2022 C2023 1.391 . S
C2023 H2011 0.950 . S
C2023 C2019 1.393 . S
C2023 C2022 1.391 . S
H2024 C2032 0.950 . S
H2025 C2037 0.950 . S
H2026 C2034 0.950 . S
H2027 C2036 0.950 . S
H2028 C2038 0.950 . S
H2029 C2040 0.950 . S
H2030 C2042 0.950 . S
H2031 C2043 0.950 . S
C2032 H2024 0.950 . S
C2032 C2033 1.386 . S
C2032 C2034 1.391 . S
C2033 C2032 1.386 . S
C2033 C2037 1.393 . S
C2034 H2026 0.950 . S
C2034 C2032 1.391 . S
C2034 C2035 1.400 . S
C2035 C2034 1.400 . S
C2035 C2036 1.398 . S
C2035 C2041 1.491 . S
C2036 H2027 0.950 . S
C2036 C2035 1.398 . S
C2036 C2037 1.391 . S
C2037 H2025 0.950 . S
C2037 C2033 1.393 . S
C2037 C2036 1.391 . S
C2038 H2028 0.950 . S
C2038 C2039 1.386 . S
C2038 C2040 1.391 . S
C2039 C2038 1.386 . S
C2039 C2043 1.393 . S
C2040 H2029 0.950 . S
C2040 C2038 1.391 . S
C2040 C2041 1.400 . S
C2041 C2035 1.491 . S
C2041 C2040 1.400 . S
C2041 C2042 1.398 . S
C2042 H2030 0.950 . S
C2042 C2041 1.398 . S
C2042 C2043 1.391 . S
C2043 H2031 0.950 . S
C2043 C2039 1.393 . S
C2043 C2042 1.391 . S
H2044 C2052 0.950 . S
H2045 C2057 0.950 . S
H2046 C2054 0.950 . S
H2047 C2056 0.950 . S
H2048 C2058 0.950 . S
H2049 C2060 0.950 . S
H2050 C2062 0.950 . S
H2051 C2063 0.950 . S
C2052 H2044 0.950 . S
C2052 C2053 1.386 . S
C2052 C2054 1.391 . S
C2053 C2052 1.386 . S
C2053 C2057 1.393 . S
C2054 H2046 0.950 . S
C2054 C2052 1.391 . S
C2054 C2055 1.400 . S
C2055 C2054 1.400 . S
C2055 C2056 1.398 . S
C2055 C2061 1.491 . S
C2056 H2047 0.950 . S
C2056 C2055 1.398 . S
C2056 C2057 1.391 . S
C2057 H2045 0.950 . S
C2057 C2053 1.393 . S
C2057 C2056 1.391 . S
C2058 H2048 0.950 . S
C2058 C2059 1.386 . S
C2058 C2060 1.391 . S
C2059 C2058 1.386 . S
C2059 C2063 1.393 . S
C2060 H2049 0.950 . S
C2060 C2058 1.391 . S
C2060 C2061 1.400 . S
C2061 C2055 1.491 . S
C2061 C2060 1.400 . S
C2061 C2062 1.398 . S
C2062 H2050 0.950 . S
C2062 C2061 1.398 . S
C2062 C2063 1.391 . S
C2063 H2051 0.950 . S
C2063 C2059 1.393 . S
C2063 C2062 1.391 . S
H2064 C2072 0.950 . S
H2065 C2077 0.950 . S
H2066 C2074 0.950 . S
H2067 C2076 0.950 . S
H2068 C2078 0.950 . S
H2069 C2080 0.950 . S
H2070 C2082 0.950 . S
H2071 C2083 0.950 . S
C2072 H2064 0.950 . S
C2072 C2073 1.386 . S
C2072 C2074 1.391 . S
C2073 C2072 1.386 . S
C2073 C2077 1.393 . S
C2074 H2066 0.950 . S
C2074 C2072 1.391 . S
C2074 C2075 1.400 . S
C2075 C2074 1.400 . S
C2075 C2076 1.398 . S
C2075 C2081 1.491 . S
C2076 H2067 0.950 . S
C2076 C2075 1.398 . S
C2076 C2077 1.391 . S
C2077 H2065 0.950 . S
C2077 C2073 1.393 . S
C2077 C2076 1.391 . S
C2078 H2068 0.950 . S
C2078 C2079 1.386 . S
C2078 C2080 1.391 . S
C2079 C2078 1.386 . S
C2079 C2083 1.393 . S
C2080 H2069 0.950 . S
C2080 C2078 1.391 . S
C2080 C2081 1.400 . S
C2081 C2075 1.491 . S
C2081 C2080 1.400 . S
C2081 C2082 1.398 . S
C2082 H2070 0.950 . S
C2082 C2081 1.398 . S
C2082 C2083 1.391 . S
C2083 H2071 0.950 . S
C2083 C2079 1.393 . S
C2083 C2082 1.391 . S
H2084 C2092 0.950 . S
H2085 C2097 0.950 . S
H2086 C2094 0.950 . S
H2087 C2096 0.950 . S
H2088 C2098 0.950 . S
H2089 C2100 0.950 . S
H2090 C2102 0.950 . S
H2091 C2103 0.950 . S
C2092 H2084 0.950 . S
C2092 C2093 1.386 . S
C2092 C2094 1.391 . S
C2093 C2092 1.386 . S
C2093 C2097 1.393 . S
C2094 H2086 0.950 . S
C2094 C2092 1.391 . S
C2094 C2095 1.400 . S
C2095 C2094 1.400 . S
C2095 C2096 1.398 . S
C2095 C2101 1.491 . S
C2096 H2087 0.950 . S
C2096 C2095 1.398 . S
C2096 C2097 1.391 . S
C2097 H2085 0.950 . S
C2097 C2093 1.393 . S
C2097 C2096 1.391 . S
C2098 H2088 0.950 . S
C2098 C2099 1.386 . S
C2098 C2100 1.391 . S
C2099 C2098 1.386 . S
C2099 C2103 1.393 . S
C2100 H2089 0.950 . S
C2100 C2098 1.391 . S
C2100 C2101 1.400 . S
C2101 C2095 1.491 . S
C2101 C2100 1.400 . S
C2101 C2102 1.398 . S
C2102 H2090 0.950 . S
C2102 C2101 1.398 . S
C2102 C2103 1.391 . S
C2103 H2091 0.950 . S
C2103 C2099 1.393 . S
C2103 C2102 1.391 . S
H2104 C2112 0.950 . S
H2105 C2117 0.950 . S
H2106 C2114 0.950 . S
H2107 C2116 0.950 . S
H2108 C2118 0.950 . S
H2109 C2120 0.950 . S
H2110 C2122 0.950 . S
H2111 C2123 0.950 . S
C2112 H2104 0.950 . S
C2112 C2113 1.386 . S
C2112 C2114 1.391 . S
C2113 C2112 1.386 . S
C2113 C2117 1.393 . S
C2114 H2106 0.950 . S
C2114 C2112 1.391 . S
C2114 C2115 1.400 . S
C2115 C2114 1.400 . S
C2115 C2116 1.398 . S
C2115 C2121 1.491 . S
C2116 H2107 0.950 . S
C2116 C2115 1.398 . S
C2116 C2117 1.391 . S
C2117 H2105 0.950 . S
C2117 C2113 1.393 . S
C2117 C2116 1.391 . S
C2118 H2108 0.950 . S
C2118 C2119 1.386 . S
C2118 C2120 1.391 . S
C2119 C2118 1.386 . S
C2119 C2123 1.393 . S
C2120 H2109 0.950 . S
C2120 C2118 1.391 . S
C2120 C2121 1.400 . S
C2121 C2115 1.491 . S
C2121 C2120 1.400 . S
C2121 C2122 1.398 . S
C2122 H2110 0.950 . S
C2122 C2121 1.398 . S
C2122 C2123 1.391 . S
C2123 H2111 0.950 . S
C2123 C2119 1.393 . S
C2123 C2122 1.391 . S
H2124 C2132 0.950 . S
H2125 C2137 0.950 . S
H2126 C2134 0.950 . S
H2127 C2136 0.950 . S
H2128 C2138 0.950 . S
H2129 C2140 0.950 . S
H2130 C2142 0.950 . S
H2131 C2143 0.950 . S
C2132 H2124 0.950 . S
C2132 C2133 1.386 . S
C2132 C2134 1.391 . S
C2133 C2132 1.386 . S
C2133 C2137 1.393 . S
C2134 H2126 0.950 . S
C2134 C2132 1.391 . S
C2134 C2135 1.400 . S
C2135 C2134 1.400 . S
C2135 C2136 1.398 . S
C2135 C2141 1.491 . S
C2136 H2127 0.950 . S
C2136 C2135 1.398 . S
C2136 C2137 1.391 . S
C2137 H2125 0.950 . S
C2137 C2133 1.393 . S
C2137 C2136 1.391 . S
C2138 H2128 0.950 . S
C2138 C2139 1.386 . S
C2138 C2140 1.391 . S
C2139 C2138 1.386 . S
C2139 C2143 1.393 . S
C2140 H2129 0.950 . S
C2140 C2138 1.391 . S
C2140 C2141 1.400 . S
C2141 C2135 1.491 . S
C2141 C2140 1.400 . S
C2141 C2142 1.398 . S
C2142 H2130 0.950 . S
C2142 C2141 1.398 . S
C2142 C2143 1.391 . S
C2143 H2131 0.950 . S
C2143 C2139 1.393 . S
C2143 C2142 1.391 . S
H2144 C2152 0.950 . S
H2145 C2157 0.950 . S
H2146 C2154 0.950 . S
H2147 C2156 0.950 . S
H2148 C2158 0.950 . S
H2149 C2160 0.950 . S
H2150 C2162 0.950 . S
H2151 C2163 0.950 . S
C2152 H2144 0.950 . S
C2152 C2153 1.386 . S
C2152 C2154 1.391 . S
C2153 C2152 1.386 . S
C2153 C2157 1.393 . S
C2154 H2146 0.950 . S
C2154 C2152 1.391 . S
C2154 C2155 1.400 . S
C2155 C2154 1.400 . S
C2155 C2156 1.398 . S
C2155 C2161 1.491 . S
C2156 H2147 0.950 . S
C2156 C2155 1.398 . S
C2156 C2157 1.391 . S
C2157 H2145 0.950 . S
C2157 C2153 1.393 . S
C2157 C2156 1.391 . S
C2158 H2148 0.950 . S
C2158 C2159 1.386 . S
C2158 C2160 1.391 . S
C2159 C2158 1.386 . S
C2159 C2163 1.393 . S
C2160 H2149 0.950 . S
C2160 C2158 1.391 . S
C2160 C2161 1.400 . S
C2161 C2155 1.491 . S
C2161 C2160 1.400 . S
C2161 C2162 1.398 . S
C2162 H2150 0.950 . S
C2162 C2161 1.398 . S
C2162 C2163 1.391 . S
C2163 H2151 0.950 . S
C2163 C2159 1.393 . S
C2163 C2162 1.391 . S
H2164 C2172 0.950 . S
H2165 C2177 0.950 . S
H2166 C2174 0.950 . S
H2167 C2176 0.950 . S
H2168 C2178 0.950 . S
H2169 C2180 0.950 . S
H2170 C2182 0.950 . S
H2171 C2183 0.950 . S
C2172 H2164 0.950 . S
C2172 C2173 1.386 . S
C2172 C2174 1.391 . S
C2173 C2172 1.386 . S
C2173 C2177 1.393 . S
C2174 H2166 0.950 . S
C2174 C2172 1.391 . S
C2174 C2175 1.400 . S
C2175 C2174 1.400 . S
C2175 C2176 1.398 . S
C2175 C2181 1.491 . S
C2176 H2167 0.950 . S
C2176 C2175 1.398 . S
C2176 C2177 1.391 . S
C2177 H2165 0.950 . S
C2177 C2173 1.393 . S
C2177 C2176 1.391 . S
C2178 H2168 0.950 . S
C2178 C2179 1.386 . S
C2178 C2180 1.391 . S
C2179 C2178 1.386 . S
C2179 C2183 1.393 . S
C2180 H2169 0.950 . S
C2180 C2178 1.391 . S
C2180 C2181 1.400 . S
C2181 C2175 1.491 . S
C2181 C2180 1.400 . S
C2181 C2182 1.398 . S
C2182 H2170 0.950 . S
C2182 C2181 1.398 . S
C2182 C2183 1.391 . S
C2183 H2171 0.950 . S
C2183 C2179 1.393 . S
C2183 C2182 1.391 . S
H2184 C2192 0.950 . S
H2185 C2197 0.950 . S
H2186 C2194 0.950 . S
H2187 C2196 0.950 . S
H2188 C2198 0.950 . S
H2189 C2200 0.950 . S
H2190 C2202 0.950 . S
H2191 C2203 0.950 . S
C2192 H2184 0.950 . S
C2192 C2193 1.386 . S
C2192 C2194 1.391 . S
C2193 C2192 1.386 . S
C2193 C2197 1.393 . S
C2194 H2186 0.950 . S
C2194 C2192 1.391 . S
C2194 C2195 1.400 . S
C2195 C2194 1.400 . S
C2195 C2196 1.398 . S
C2195 C2201 1.491 . S
C2196 H2187 0.950 . S
C2196 C2195 1.398 . S
C2196 C2197 1.391 . S
C2197 H2185 0.950 . S
C2197 C2193 1.393 . S
C2197 C2196 1.391 . S
C2198 H2188 0.950 . S
C2198 C2199 1.386 . S
C2198 C2200 1.391 . S
C2199 C2198 1.386 . S
C2199 C2203 1.393 . S
C2200 H2189 0.950 . S
C2200 C2198 1.391 . S
C2200 C2201 1.400 . S
C2201 C2195 1.491 . S
C2201 C2200 1.400 . S
C2201 C2202 1.398 . S
C2202 H2190 0.950 . S
C2202 C2201 1.398 . S
C2202 C2203 1.391 . S
C2203 H2191 0.950 . S
C2203 C2199 1.393 . S
C2203 C2202 1.391 . S
H2204 C2212 0.950 . S
H2205 C2217 0.950 . S
H2206 C2214 0.950 . S
H2207 C2216 0.950 . S
H2208 C2218 0.950 . S
H2209 C2220 0.950 . S
H2210 C2222 0.950 . S
H2211 C2223 0.950 . S
C2212 H2204 0.950 . S
C2212 C2213 1.386 . S
C2212 C2214 1.391 . S
C2213 C2212 1.386 . S
C2213 C2217 1.393 . S
C2214 H2206 0.950 . S
C2214 C2212 1.391 . S
C2214 C2215 1.400 . S
C2215 C2214 1.400 . S
C2215 C2216 1.398 . S
C2215 C2221 1.491 . S
C2216 H2207 0.950 . S
C2216 C2215 1.398 . S
C2216 C2217 1.391 . S
C2217 H2205 0.950 . S
C2217 C2213 1.393 . S
C2217 C2216 1.391 . S
C2218 H2208 0.950 . S
C2218 C2219 1.386 . S
C2218 C2220 1.391 . S
C2219 C2218 1.386 . S
C2219 C2223 1.393 . S
C2220 H2209 0.950 . S
C2220 C2218 1.391 . S
C2220 C2221 1.400 . S
C2221 C2215 1.491 . S
C2221 C2220 1.400 . S
C2221 C2222 1.398 . S
C2222 H2210 0.950 . S
C2222 C2221 1.398 . S
C2222 C2223 1.391 . S
C2223 H2211 0.950 . S
C2223 C2219 1.393 . S
C2223 C2222 1.391 . S
H2224 C2232 0.950 . S
H2225 C2237 0.950 . S
H2226 C2234 0.950 . S
H2227 C2236 0.950 . S
H2228 C2238 0.950 . S
H2229 C2240 0.950 . S
H2230 C2242 0.950 . S
H2231 C2243 0.950 . S
C2232 H2224 0.950 . S
C2232 C2233 1.386 . S
C2232 C2234 1.391 . S
C2233 C2232 1.386 . S
C2233 C2237 1.393 . S
C2234 H2226 0.950 . S
C2234 C2232 1.391 . S
C2234 C2235 1.400 . S
C2235 C2234 1.400 . S
C2235 C2236 1.398 . S
C2235 C2241 1.491 . S
C2236 H2227 0.950 . S
C2236 C2235 1.398 . S
C2236 C2237 1.391 . S
C2237 H2225 0.950 . S
C2237 C2233 1.393 . S
C2237 C2236 1.391 . S
C2238 H2228 0.950 . S
C2238 C2239 1.386 . S
C2238 C2240 1.391 . S
C2239 C2238 1.386 . S
C2239 C2243 1.393 . S
C2240 H2229 0.950 . S
C2240 C2238 1.391 . S
C2240 C2241 1.400 . S
C2241 C2235 1.491 . S
C2241 C2240 1.400 . S
C2241 C2242 1.398 . S
C2242 H2230 0.950 . S
C2242 C2241 1.398 . S
C2242 C2243 1.391 . S
C2243 H2231 0.950 . S
C2243 C2239 1.393 . S
C2243 C2242 1.391 . S
H2244 C2252 0.950 . S
H2245 C2257 0.950 . S
H2246 C2254 0.950 . S
H2247 C2256 0.950 . S
H2248 C2258 0.950 . S
H2249 C2260 0.950 . S
H2250 C2262 0.950 . S
H2251 C2263 0.950 . S
C2252 H2244 0.950 . S
C2252 C2253 1.386 . S
C2252 C2254 1.391 . S
C2253 C2252 1.386 . S
C2253 C2257 1.393 . S
C2254 H2246 0.950 . S
C2254 C2252 1.391 . S
C2254 C2255 1.400 . S
C2255 C2254 1.400 . S
C2255 C2256 1.398 . S
C2255 C2261 1.491 . S
C2256 H2247 0.950 . S
C2256 C2255 1.398 . S
C2256 C2257 1.391 . S
C2257 H2245 0.950 . S
C2257 C2253 1.393 . S
C2257 C2256 1.391 . S
C2258 H2248 0.950 . S
C2258 C2259 1.386 . S
C2258 C2260 1.391 . S
C2259 C2258 1.386 . S
C2259 C2263 1.393 . S
C2260 H2249 0.950 . S
C2260 C2258 1.391 . S
C2260 C2261 1.400 . S
C2261 C2255 1.491 . S
C2261 C2260 1.400 . S
C2261 C2262 1.398 . S
C2262 H2250 0.950 . S
C2262 C2261 1.398 . S
C2262 C2263 1.391 . S
C2263 H2251 0.950 . S
C2263 C2259 1.393 . S
C2263 C2262 1.391 . S
H2264 C2272 0.950 . S
H2265 C2277 0.950 . S
H2266 C2274 0.950 . S
H2267 C2276 0.950 . S
H2268 C2278 0.950 . S
H2269 C2280 0.950 . S
H2270 C2282 0.950 . S
H2271 C2283 0.950 . S
C2272 H2264 0.950 . S
C2272 C2273 1.386 . S
C2272 C2274 1.391 . S
C2273 C2272 1.386 . S
C2273 C2277 1.393 . S
C2274 H2266 0.950 . S
C2274 C2272 1.391 . S
C2274 C2275 1.400 . S
C2275 C2274 1.400 . S
C2275 C2276 1.398 . S
C2275 C2281 1.491 . S
C2276 H2267 0.950 . S
C2276 C2275 1.398 . S
C2276 C2277 1.391 . S
C2277 H2265 0.950 . S
C2277 C2273 1.393 . S
C2277 C2276 1.391 . S
C2278 H2268 0.950 . S
C2278 C2279 1.386 . S
C2278 C2280 1.391 . S
C2279 C2278 1.386 . S
C2279 C2283 1.393 . S
C2280 H2269 0.950 . S
C2280 C2278 1.391 . S
C2280 C2281 1.400 . S
C2281 C2275 1.491 . S
C2281 C2280 1.400 . S
C2281 C2282 1.398 . S
C2282 H2270 0.950 . S
C2282 C2281 1.398 . S
C2282 C2283 1.391 . S
C2283 H2271 0.950 . S
C2283 C2279 1.393 . S
C2283 C2282 1.391 . S
H2284 C2292 0.950 . S
H2285 C2297 0.950 . S
H2286 C2294 0.950 . S
H2287 C2296 0.950 . S
H2288 C2298 0.950 . S
H2289 C2300 0.950 . S
H2290 C2302 0.950 . S
H2291 C2303 0.950 . S
C2292 H2284 0.950 . S
C2292 C2293 1.386 . S
C2292 C2294 1.391 . S
C2293 C2292 1.386 . S
C2293 C2297 1.393 . S
C2294 H2286 0.950 . S
C2294 C2292 1.391 . S
C2294 C2295 1.400 . S
C2295 C2294 1.400 . S
C2295 C2296 1.398 . S
C2295 C2301 1.491 . S
C2296 H2287 0.950 . S
C2296 C2295 1.398 . S
C2296 C2297 1.391 . S
C2297 H2285 0.950 . S
C2297 C2293 1.393 . S
C2297 C2296 1.391 . S
C2298 H2288 0.950 . S
C2298 C2299 1.386 . S
C2298 C2300 1.391 . S
C2299 C2298 1.386 . S
C2299 C2303 1.393 . S
C2300 H2289 0.950 . S
C2300 C2298 1.391 . S
C2300 C2301 1.400 . S
C2301 C2295 1.491 . S
C2301 C2300 1.400 . S
C2301 C2302 1.398 . S
C2302 H2290 0.950 . S
C2302 C2301 1.398 . S
C2302 C2303 1.391 . S
C2303 H2291 0.950 . S
C2303 C2299 1.393 . S
C2303 C2302 1.391 . S
H2304 C2312 0.950 . S
H2305 C2317 0.950 . S
H2306 C2314 0.950 . S
H2307 C2316 0.950 . S
H2308 C2318 0.950 . S
H2309 C2320 0.950 . S
H2310 C2322 0.950 . S
H2311 C2323 0.950 . S
C2312 H2304 0.950 . S
C2312 C2313 1.386 . S
C2312 C2314 1.391 . S
C2313 C2312 1.386 . S
C2313 C2317 1.393 . S
C2314 H2306 0.950 . S
C2314 C2312 1.391 . S
C2314 C2315 1.400 . S
C2315 C2314 1.400 . S
C2315 C2316 1.398 . S
C2315 C2321 1.491 . S
C2316 H2307 0.950 . S
C2316 C2315 1.398 . S
C2316 C2317 1.391 . S
C2317 H2305 0.950 . S
C2317 C2313 1.393 . S
C2317 C2316 1.391 . S
C2318 H2308 0.950 . S
C2318 C2319 1.386 . S
C2318 C2320 1.391 . S
C2319 C2318 1.386 . S
C2319 C2323 1.393 . S
C2320 H2309 0.950 . S
C2320 C2318 1.391 . S
C2320 C2321 1.400 . S
C2321 C2315 1.491 . S
C2321 C2320 1.400 . S
C2321 C2322 1.398 . S
C2322 H2310 0.950 . S
C2322 C2321 1.398 . S
C2322 C2323 1.391 . S
C2323 H2311 0.950 . S
C2323 C2319 1.393 . S
C2323 C2322 1.391 . S
H2324 C2332 0.950 . S
H2325 C2337 0.950 . S
H2326 C2334 0.950 . S
H2327 C2336 0.950 . S
H2328 C2338 0.950 . S
H2329 C2340 0.950 . S
H2330 C2342 0.950 . S
H2331 C2343 0.950 . S
C2332 H2324 0.950 . S
C2332 C2333 1.386 . S
C2332 C2334 1.391 . S
C2333 C2332 1.386 . S
C2333 C2337 1.393 . S
C2334 H2326 0.950 . S
C2334 C2332 1.391 . S
C2334 C2335 1.400 . S
C2335 C2334 1.400 . S
C2335 C2336 1.398 . S
C2335 C2341 1.491 . S
C2336 H2327 0.950 . S
C2336 C2335 1.398 . S
C2336 C2337 1.391 . S
C2337 H2325 0.950 . S
C2337 C2333 1.393 . S
C2337 C2336 1.391 . S
C2338 H2328 0.950 . S
C2338 C2339 1.386 . S
C2338 C2340 1.391 . S
C2339 C2338 1.386 . S
C2339 C2343 1.393 . S
C2340 H2329 0.950 . S
C2340 C2338 1.391 . S
C2340 C2341 1.400 . S
C2341 C2335 1.491 . S
C2341 C2340 1.400 . S
C2341 C2342 1.398 . S
C2342 H2330 0.950 . S
C2342 C2341 1.398 . S
C2342 C2343 1.391 . S
C2343 H2331 0.950 . S
C2343 C2339 1.393 . S
C2343 C2342 1.391 . S
H2344 C2352 0.950 . S
H2345 C2357 0.950 . S
H2346 C2354 0.950 . S
H2347 C2356 0.950 . S
H2348 C2358 0.950 . S
H2349 C2360 0.950 . S
H2350 C2362 0.950 . S
H2351 C2363 0.950 . S
C2352 H2344 0.950 . S
C2352 C2353 1.386 . S
C2352 C2354 1.391 . S
C2353 C2352 1.386 . S
C2353 C2357 1.393 . S
C2354 H2346 0.950 . S
C2354 C2352 1.391 . S
C2354 C2355 1.400 . S
C2355 C2354 1.400 . S
C2355 C2356 1.398 . S
C2355 C2361 1.491 . S
C2356 H2347 0.950 . S
C2356 C2355 1.398 . S
C2356 C2357 1.391 . S
C2357 H2345 0.950 . S
C2357 C2353 1.393 . S
C2357 C2356 1.391 . S
C2358 H2348 0.950 . S
C2358 C2359 1.386 . S
C2358 C2360 1.391 . S
C2359 C2358 1.386 . S
C2359 C2363 1.393 . S
C2360 H2349 0.950 . S
C2360 C2358 1.391 . S
C2360 C2361 1.400 . S
C2361 C2355 1.491 . S
C2361 C2360 1.400 . S
C2361 C2362 1.398 . S
C2362 H2350 0.950 . S
C2362 C2361 1.398 . S
C2362 C2363 1.391 . S
C2363 H2351 0.950 . S
C2363 C2359 1.393 . S
C2363 C2362 1.391 . S
H2364 C2372 0.950 . S
H2365 C2377 0.950 . S
H2366 C2374 0.950 . S
H2367 C2376 0.950 . S
H2368 C2378 0.950 . S
H2369 C2380 0.950 . S
H2370 C2382 0.950 . S
H2371 C2383 0.950 . S
C2372 H2364 0.950 . S
C2372 C2373 1.386 . S
C2372 C2374 1.391 . S
C2373 C2372 1.386 . S
C2373 C2377 1.393 . S
C2374 H2366 0.950 . S
C2374 C2372 1.391 . S
C2374 C2375 1.400 . S
C2375 C2374 1.400 . S
C2375 C2376 1.398 . S
C2375 C2381 1.491 . S
C2376 H2367 0.950 . S
C2376 C2375 1.398 . S
C2376 C2377 1.391 . S
C2377 H2365 0.950 . S
C2377 C2373 1.393 . S
C2377 C2376 1.391 . S
C2378 H2368 0.950 . S
C2378 C2379 1.386 . S
C2378 C2380 1.391 . S
C2379 C2378 1.386 . S
C2379 C2383 1.393 . S
C2380 H2369 0.950 . S
C2380 C2378 1.391 . S
C2380 C2381 1.400 . S
C2381 C2375 1.491 . S
C2381 C2380 1.400 . S
C2381 C2382 1.398 . S
C2382 H2370 0.950 . S
C2382 C2381 1.398 . S
C2382 C2383 1.391 . S
C2383 H2371 0.950 . S
C2383 C2379 1.393 . S
C2383 C2382 1.391 . S
H2384 C2392 0.950 . S
H2385 C2397 0.950 . S
H2386 C2394 0.950 . S
H2387 C2396 0.950 . S
H2388 C2398 0.950 . S
H2389 C2400 0.950 . S
H2390 C2402 0.950 . S
H2391 C2403 0.950 . S
C2392 H2384 0.950 . S
C2392 C2393 1.386 . S
C2392 C2394 1.391 . S
C2393 C2392 1.386 . S
C2393 C2397 1.393 . S
C2394 H2386 0.950 . S
C2394 C2392 1.391 . S
C2394 C2395 1.400 . S
C2395 C2394 1.400 . S
C2395 C2396 1.398 . S
C2395 C2401 1.491 . S
C2396 H2387 0.950 . S
C2396 C2395 1.398 . S
C2396 C2397 1.391 . S
C2397 H2385 0.950 . S
C2397 C2393 1.393 . S
C2397 C2396 1.391 . S
C2398 H2388 0.950 . S
C2398 C2399 1.386 . S
C2398 C2400 1.391 . S
C2399 C2398 1.386 . S
C2399 C2403 1.393 . S
C2400 H2389 0.950 . S
C2400 C2398 1.391 . S
C2400 C2401 1.400 . S
C2401 C2395 1.491 . S
C2401 C2400 1.400 . S
C2401 C2402 1.398 . S
C2402 H2390 0.950 . S
C2402 C2401 1.398 . S
C2402 C2403 1.391 . S
C2403 H2391 0.950 . S
C2403 C2399 1.393 . S
C2403 C2402 1.391 . S
H2404 C2412 0.950 . S
H2405 C2417 0.950 . S
H2406 C2414 0.950 . S
H2407 C2416 0.950 . S
H2408 C2418 0.950 . S
H2409 C2420 0.950 . S
H2410 C2422 0.950 . S
H2411 C2423 0.950 . S
C2412 H2404 0.950 . S
C2412 C2413 1.386 . S
C2412 C2414 1.391 . S
C2413 C2412 1.386 . S
C2413 C2417 1.393 . S
C2414 H2406 0.950 . S
C2414 C2412 1.391 . S
C2414 C2415 1.400 . S
C2415 C2414 1.400 . S
C2415 C2416 1.398 . S
C2415 C2421 1.491 . S
C2416 H2407 0.950 . S
C2416 C2415 1.398 . S
C2416 C2417 1.391 . S
C2417 H2405 0.950 . S
C2417 C2413 1.393 . S
C2417 C2416 1.391 . S
C2418 H2408 0.950 . S
C2418 C2419 1.386 . S
C2418 C2420 1.391 . S
C2419 C2418 1.386 . S
C2419 C2423 1.393 . S
C2420 H2409 0.950 . S
C2420 C2418 1.391 . S
C2420 C2421 1.400 . S
C2421 C2415 1.491 . S
C2421 C2420 1.400 . S
C2421 C2422 1.398 . S
C2422 H2410 0.950 . S
C2422 C2421 1.398 . S
C2422 C2423 1.391 . S
C2423 H2411 0.950 . S
C2423 C2419 1.393 . S
C2423 C2422 1.391 . S
H2424 C2432 0.950 . S
H2425 C2437 0.950 . S
H2426 C2434 0.950 . S
H2427 C2436 0.950 . S
H2428 C2438 0.950 . S
H2429 C2440 0.950 . S
H2430 C2442 0.950 . S
H2431 C2443 0.950 . S
C2432 H2424 0.950 . S
C2432 C2433 1.386 . S
C2432 C2434 1.391 . S
C2433 C2432 1.386 . S
C2433 C2437 1.393 . S
C2434 H2426 0.950 . S
C2434 C2432 1.391 . S
C2434 C2435 1.400 . S
C2435 C2434 1.400 . S
C2435 C2436 1.398 . S
C2435 C2441 1.491 . S
C2436 H2427 0.950 . S
C2436 C2435 1.398 . S
C2436 C2437 1.391 . S
C2437 H2425 0.950 . S
C2437 C2433 1.393 . S
C2437 C2436 1.391 . S
C2438 H2428 0.950 . S
C2438 C2439 1.386 . S
C2438 C2440 1.391 . S
C2439 C2438 1.386 . S
C2439 C2443 1.393 . S
C2440 H2429 0.950 . S
C2440 C2438 1.391 . S
C2440 C2441 1.400 . S
C2441 C2435 1.491 . S
C2441 C2440 1.400 . S
C2441 C2442 1.398 . S
C2442 H2430 0.950 . S
C2442 C2441 1.398 . S
C2442 C2443 1.391 . S
C2443 H2431 0.950 . S
C2443 C2439 1.393 . S
C2443 C2442 1.391 . S
H2444 C2452 0.950 . S
H2445 C2457 0.950 . S
H2446 C2454 0.950 . S
H2447 C2456 0.950 . S
H2448 C2458 0.950 . S
H2449 C2460 0.950 . S
H2450 C2462 0.950 . S
H2451 C2463 0.950 . S
C2452 H2444 0.950 . S
C2452 C2453 1.386 . S
C2452 C2454 1.391 . S
C2453 C2452 1.386 . S
C2453 C2457 1.393 . S
C2454 H2446 0.950 . S
C2454 C2452 1.391 . S
C2454 C2455 1.400 . S
C2455 C2454 1.400 . S
C2455 C2456 1.398 . S
C2455 C2461 1.491 . S
C2456 H2447 0.950 . S
C2456 C2455 1.398 . S
C2456 C2457 1.391 . S
C2457 H2445 0.950 . S
C2457 C2453 1.393 . S
C2457 C2456 1.391 . S
C2458 H2448 0.950 . S
C2458 C2459 1.386 . S
C2458 C2460 1.391 . S
C2459 C2458 1.386 . S
C2459 C2463 1.393 . S
C2460 H2449 0.950 . S
C2460 C2458 1.391 . S
C2460 C2461 1.400 . S
C2461 C2455 1.491 . S
C2461 C2460 1.400 . S
C2461 C2462 1.398 . S
C2462 H2450 0.950 . S
C2462 C2461 1.398 . S
C2462 C2463 1.391 . S
C2463 H2451 0.950 . S
C2463 C2459 1.393 . S
C2463 C2462 1.391 . S
H2464 C2472 0.950 . S
H2465 C2477 0.950 . S
H2466 C2474 0.950 . S
H2467 C2476 0.950 . S
H2468 C2478 0.950 . S
H2469 C2480 0.950 . S
H2470 C2482 0.950 . S
H2471 C2483 0.950 . S
C2472 H2464 0.950 . S
C2472 C2473 1.386 . S
C2472 C2474 1.391 . S
C2473 C2472 1.386 . S
C2473 C2477 1.393 . S
C2474 H2466 0.950 . S
C2474 C2472 1.391 . S
C2474 C2475 1.400 . S
C2475 C2474 1.400 . S
C2475 C2476 1.398 . S
C2475 C2481 1.491 . S
C2476 H2467 0.950 . S
C2476 C2475 1.398 . S
C2476 C2477 1.391 . S
C2477 H2465 0.950 . S
C2477 C2473 1.393 . S
C2477 C2476 1.391 . S
C2478 H2468 0.950 . S
C2478 C2479 1.386 . S
C2478 C2480 1.391 . S
C2479 C2478 1.386 . S
C2479 C2483 1.393 . S
C2480 H2469 0.950 . S
C2480 C2478 1.391 . S
C2480 C2481 1.400 . S
C2481 C2475 1.491 . S
C2481 C2480 1.400 . S
C2481 C2482 1.398 . S
C2482 H2470 0.950 . S
C2482 C2481 1.398 . S
C2482 C2483 1.391 . S
C2483 H2471 0.950 . S
C2483 C2479 1.393 . S
C2483 C2482 1.391 . S
H2484 C2492 0.950 . S
H2485 C2497 0.950 . S
H2486 C2494 0.950 . S
H2487 C2496 0.950 . S
H2488 C2498 0.950 . S
H2489 C2500 0.950 . S
H2490 C2502 0.950 . S
H2491 C2503 0.950 . S
C2492 H2484 0.950 . S
C2492 C2493 1.386 . S
C2492 C2494 1.391 . S
C2493 C2492 1.386 . S
C2493 C2497 1.393 . S
C2494 H2486 0.950 . S
C2494 C2492 1.391 . S
C2494 C2495 1.400 . S
C2495 C2494 1.400 . S
C2495 C2496 1.398 . S
C2495 C2501 1.491 . S
C2496 H2487 0.950 . S
C2496 C2495 1.398 . S
C2496 C2497 1.391 . S
C2497 H2485 0.950 . S
C2497 C2493 1.393 . S
C2497 C2496 1.391 . S
C2498 H2488 0.950 . S
C2498 C2499 1.386 . S
C2498 C2500 1.391 . S
C2499 C2498 1.386 . S
C2499 C2503 1.393 . S
C2500 H2489 0.950 . S
C2500 C2498 1.391 . S
C2500 C2501 1.400 . S
C2501 C2495 1.491 . S
C2501 C2500 1.400 . S
C2501 C2502 1.398 . S
C2502 H2490 0.950 . S
C2502 C2501 1.398 . S
C2502 C2503 1.391 . S
C2503 H2491 0.950 . S
C2503 C2499 1.393 . S
C2503 C2502 1.391 . S
H2504 C2512 0.950 . S
H2505 C2517 0.950 . S
H2506 C2514 0.950 . S
H2507 C2516 0.950 . S
H2508 C2518 0.950 . S
H2509 C2520 0.950 . S
H2510 C2522 0.950 . S
H2511 C2523 0.950 . S
C2512 H2504 0.950 . S
C2512 C2513 1.386 . S
C2512 C2514 1.391 . S
C2513 C2512 1.386 . S
C2513 C2517 1.393 . S
C2514 H2506 0.950 . S
C2514 C2512 1.391 . S
C2514 C2515 1.400 . S
C2515 C2514 1.400 . S
C2515 C2516 1.398 . S
C2515 C2521 1.491 . S
C2516 H2507 0.950 . S
C2516 C2515 1.398 . S
C2516 C2517 1.391 . S
C2517 H2505 0.950 . S
C2517 C2513 1.393 . S
C2517 C2516 1.391 . S
C2518 H2508 0.950 . S
C2518 C2519 1.386 . S
C2518 C2520 1.391 . S
C2519 C2518 1.386 . S
C2519 C2523 1.393 . S
C2520 H2509 0.950 . S
C2520 C2518 1.391 . S
C2520 C2521 1.400 . S
C2521 C2515 1.491 . S
C2521 C2520 1.400 . S
C2521 C2522 1.398 . S
C2522 H2510 0.950 . S
C2522 C2521 1.398 . S
C2522 C2523 1.391 . S
C2523 H2511 0.950 . S
C2523 C2519 1.393 . S
C2523 C2522 1.391 . S
H2524 C2532 0.950 . S
H2525 C2537 0.950 . S
H2526 C2534 0.950 . S
H2527 C2536 0.950 . S
H2528 C2538 0.950 . S
H2529 C2540 0.950 . S
H2530 C2542 0.950 . S
H2531 C2543 0.950 . S
C2532 H2524 0.950 . S
C2532 C2533 1.386 . S
C2532 C2534 1.391 . S
C2533 C2532 1.386 . S
C2533 C2537 1.393 . S
C2534 H2526 0.950 . S
C2534 C2532 1.391 . S
C2534 C2535 1.400 . S
C2535 C2534 1.400 . S
C2535 C2536 1.398 . S
C2535 C2541 1.491 . S
C2536 H2527 0.950 . S
C2536 C2535 1.398 . S
C2536 C2537 1.391 . S
C2537 H2525 0.950 . S
C2537 C2533 1.393 . S
C2537 C2536 1.391 . S
C2538 H2528 0.950 . S
C2538 C2539 1.386 . S
C2538 C2540 1.391 . S
C2539 C2538 1.386 . S
C2539 C2543 1.393 . S
C2540 H2529 0.950 . S
C2540 C2538 1.391 . S
C2540 C2541 1.400 . S
C2541 C2535 1.491 . S
C2541 C2540 1.400 . S
C2541 C2542 1.398 . S
C2542 H2530 0.950 . S
C2542 C2541 1.398 . S
C2542 C2543 1.391 . S
C2543 H2531 0.950 . S
C2543 C2539 1.393 . S
C2543 C2542 1.391 . S
C633 C407 1.404 . S
C639 C4 1.402 . S
C653 C23 1.406 . S
C659 C374 1.401 . S
C673 C30 1.401 . S
C679 C387 1.406 . S
C693 C394 1.401 . S
C699 C49 1.405 . S
C713 C335 1.404 . S
C719 C62 1.403 . S
C733 C69 1.402 . S
C739 C342 1.404 . S
C753 C361 1.401 . S
C759 C82 1.406 . S
C773 C95 1.402 . S
C779 C322 1.404 . S
C793 C114 1.404 . S
C799 C582 1.402 . S
C813 C537 1.405 . S
C819 C121 1.401 . S
C833 C556 1.406 . S
C839 C140 1.401 . S
C853 C147 1.401 . S
C859 C563 1.406 . S
C873 C160 1.406 . S
C879 C615 1.401 . S
C893 C179 1.402 . S
C899 C589 1.405 . S
C913 C192 1.402 . S
C919 C602 1.404 . S
C933 C524 1.403 . S
C939 C199 1.404 . S
C953 C511 1.404 . S
C959 C212 1.402 . S
C973 C225 1.403 . S
C979 C433 1.403 . S
C993 C446 1.401 . S
C999 C238 1.405 . S
C1013 C257 1.403 . S
C1019 C459 1.403 . S
C1033 C426 1.404 . S
C1039 C270 1.402 . S
C1053 C491 1.403 . S
C1059 C277 1.404 . S
C1073 C296 1.402 . S
C1079 C498 1.404 . S
C1093 C478 1.404 . S
C1099 C303 1.402 . S
C1113 C127 1.736 . S
C1119 C10 1.735 . S
C1133 C134 1.736 . S
C1139 C17 1.736 . S
C1153 C36 1.736 . S
C1159 C153 1.736 . S
C1173 C108 1.736 . S
C1179 C43 1.736 . S
C1193 C56 1.736 . S
C1199 C205 1.736 . S
C1213 C166 1.736 . S
C1219 C75 1.736 . S
C1233 C173 1.735 . S
C1239 C88 1.736 . S
C1253 C186 1.736 . S
C1259 C101 1.736 . S
C1273 C244 1.736 . S
C1279 C218 1.736 . S
C1293 C290 1.736 . S
C1299 C231 1.736 . S
C1313 C309 1.736 . S
C1319 C251 1.736 . S
C1333 C264 1.735 . S
C1339 C283 1.736 . S
C1353 C439 1.736 . S
C1359 C316 1.736 . S
C1373 C452 1.736 . S
C1379 C329 1.736 . S
C1393 C465 1.736 . S
C1399 C348 1.736 . S
C1413 C355 1.736 . S
C1419 C420 1.736 . S
C1433 C368 1.736 . S
C1439 C517 1.735 . S
C1453 C381 1.736 . S
C1459 C472 1.736 . S
C1473 C485 1.736 . S
C1479 C400 1.736 . S
C1493 C504 1.736 . S
C1499 C413 1.736 . S
C1513 C530 1.736 . S
C1519 C550 1.736 . S
C1533 C608 1.736 . S
C1539 C543 1.736 . S
C1553 C621 1.736 . S
C1559 C569 1.735 . S
C1573 C595 1.736 . S
C1579 C576 1.736 . S
C1593 C3 1.421 . S
C1599 C239 1.417 . S
C1613 C18 1.421 . S
C1619 C250 1.415 . S
C1633 C29 1.421 . S
C1639 C263 1.415 . S
C1653 C226 1.422 . S
C1659 C44 1.423 . S
C1673 C57 1.421 . S
C1679 C289 1.417 . S
C1693 C68 1.423 . S
C1699 C213 1.419 . S
C1713 C304 1.423 . S
C1719 C81 1.424 . S
C1733 C278 1.423 . S
C1739 C94 1.424 . S
C1753 C109 1.422 . S
C1759 C122 1.417 . S
C1773 C120 1.423 . S
C1779 C133 1.421 . S
C1793 C135 1.421 . S
C1799 C148 1.415 . S
C1813 C107 1.421 . S
C1819 C146 1.423 . S
C1833 C200 1.416 . S
C1839 C159 1.421 . S
C1853 C161 1.422 . S
C1859 C174 1.423 . S
C1873 C172 1.422 . S
C1879 C187 1.424 . S
C1893 C198 1.424 . S
C1899 C185 1.423 . S
C1913 C42 1.421 . S
C1919 C211 1.423 . S
C1933 C70 1.423 . S
C1939 C224 1.424 . S
C1953 C83 1.421 . S
C1959 C237 1.424 . S
C1973 C252 1.422 . S
C1979 C96 1.420 . S
C1993 C55 1.418 . S
C1999 C265 1.422 . S
C2013 C16 1.420 . S
C2019 C276 1.422 . S
C2033 C31 1.423 . S
C2039 C291 1.424 . S
C2053 C5 1.420 . S
C2059 C302 1.422 . S
C2073 C549 1.418 . S
C2079 C317 1.422 . S
C2093 C330 1.421 . S
C2099 C564 1.416 . S
C2113 C575 1.422 . S
C2119 C341 1.423 . S
C2133 C538 1.421 . S
C2139 C356 1.423 . S
C2153 C369 1.421 . S
C2159 C603 1.415 . S
C2173 C382 1.421 . S
C2179 C525 1.417 . S
C2193 C616 1.420 . S
C2199 C393 1.422 . S
C2213 C406 1.421 . S
C2219 C590 1.417 . S
C2233 C421 1.421 . S
C2239 C434 1.416 . S
C2253 C432 1.422 . S
C2259 C447 1.418 . S
C2273 C445 1.421 . S
C2279 C460 1.416 . S
C2293 C458 1.423 . S
C2299 C419 1.421 . S
C2313 C512 1.420 . S
C2319 C473 1.423 . S
C2333 C471 1.419 . S
C2339 C486 1.422 . S
C2353 C484 1.421 . S
C2359 C497 1.423 . S
C2373 C510 1.424 . S
C2379 C499 1.421 . S
C2393 C354 1.418 . S
C2399 C523 1.422 . S
C2413 C380 1.423 . S
C2419 C536 1.424 . S
C2433 C395 1.421 . S
C2439 C551 1.423 . S
C2453 C562 1.421 . S
C2459 C408 1.415 . S
C2473 C367 1.420 . S
C2479 C577 1.423 . S
C2493 C328 1.420 . S
C2499 C588 1.423 . S
C2513 C601 1.424 . S
C2519 C343 1.422 . S
C2533 C315 1.419 . S
C2539 C614 1.422 . S
