# Generated by pormake.
# Topology svi, (7)-cn, num edge types: 1
# Building blocks:
#     Node 0, Type 0, BuildingBlock: HICVOG_clean_sbu_0, # of connection points: 7
#     Node 1, Type 0, BuildingBlock: HICVOG_clean_sbu_0, # of connection points: 7
#     Node 2, Type 0, BuildingBlock: HICVOG_clean_sbu_0, # of connection points: 7
#     Node 3, Type 0, BuildingBlock: HICVOG_clean_sbu_0, # of connection points: 7
#     Node 4, Type 0, BuildingBlock: HICVOG_clean_sbu_0, # of connection points: 7
#     Node 5, Type 0, BuildingBlock: HICVOG_clean_sbu_0, # of connection points: 7
#     Node 6, Type 0, BuildingBlock: HICVOG_clean_sbu_0, # of connection points: 7
#     Node 7, Type 0, BuildingBlock: HICVOG_clean_sbu_0, # of connection points: 7
#     Edge 8, Type (0, 0), BuildingBlock: CIFDUS_clean_linker_0, # of connection points: 2
#     Edge 9, Type (0, 0), BuildingBlock: CIFDUS_clean_linker_0, # of connection points: 2
#     Edge 10, Type (0, 0), BuildingBlock: CIFDUS_clean_linker_0, # of connection points: 2
#     Edge 11, Type (0, 0), BuildingBlock: CIFDUS_clean_linker_0, # of connection points: 2
#     Edge 12, Type (0, 0), BuildingBlock: CIFDUS_clean_linker_0, # of connection points: 2
#     Edge 13, Type (0, 0), BuildingBlock: CIFDUS_clean_linker_0, # of connection points: 2
#     Edge 14, Type (0, 0), BuildingBlock: CIFDUS_clean_linker_0, # of connection points: 2
#     Edge 15, Type (0, 0), BuildingBlock: CIFDUS_clean_linker_0, # of connection points: 2
#     Edge 16, Type (0, 0), BuildingBlock: CIFDUS_clean_linker_0, # of connection points: 2
#     Edge 17, Type (0, 0), BuildingBlock: CIFDUS_clean_linker_0, # of connection points: 2
#     Edge 18, Type (0, 0), BuildingBlock: CIFDUS_clean_linker_0, # of connection points: 2
#     Edge 19, Type (0, 0), BuildingBlock: CIFDUS_clean_linker_0, # of connection points: 2
#     Edge 20, Type (0, 0), BuildingBlock: CIFDUS_clean_linker_0, # of connection points: 2
#     Edge 21, Type (0, 0), BuildingBlock: CIFDUS_clean_linker_0, # of connection points: 2
#     Edge 22, Type (0, 0), BuildingBlock: CIFDUS_clean_linker_0, # of connection points: 2
#     Edge 23, Type (0, 0), BuildingBlock: CIFDUS_clean_linker_0, # of connection points: 2
#     Edge 24, Type (0, 0), BuildingBlock: CIFDUS_clean_linker_0, # of connection points: 2
#     Edge 25, Type (0, 0), BuildingBlock: CIFDUS_clean_linker_0, # of connection points: 2
#     Edge 26, Type (0, 0), BuildingBlock: CIFDUS_clean_linker_0, # of connection points: 2
#     Edge 27, Type (0, 0), BuildingBlock: CIFDUS_clean_linker_0, # of connection points: 2
#     Edge 28, Type (0, 0), BuildingBlock: CIFDUS_clean_linker_0, # of connection points: 2
#     Edge 29, Type (0, 0), BuildingBlock: CIFDUS_clean_linker_0, # of connection points: 2
#     Edge 30, Type (0, 0), BuildingBlock: CIFDUS_clean_linker_0, # of connection points: 2
#     Edge 31, Type (0, 0), BuildingBlock: CIFDUS_clean_linker_0, # of connection points: 2
#     Edge 32, Type (0, 0), BuildingBlock: CIFDUS_clean_linker_0, # of connection points: 2
#     Edge 33, Type (0, 0), BuildingBlock: CIFDUS_clean_linker_0, # of connection points: 2
#     Edge 34, Type (0, 0), BuildingBlock: CIFDUS_clean_linker_0, # of connection points: 2
#     Edge 35, Type (0, 0), BuildingBlock: CIFDUS_clean_linker_0, # of connection points: 2
# Relax obj value: 0.296
# Max RMSD: 0.292
# Mean RMSD: 0.249
data_MOF--net-svi--node1-HICVOG_clean_sbu_0--edge1-CIFDUS_clean_linker_0
_symmetry_space_group_name_H-M    P1
_symmetry_Int_Tables_number       1
_symmetry_cell_setting            triclinic
loop_
_symmetry_equiv_pos_as_xyz
'x, y, z'
_cell_length_a     27.865447
_cell_length_b     24.569278
_cell_length_c     34.742971
_cell_angle_alpha  95.597125
_cell_angle_beta   95.056794
_cell_angle_gamma 90.597567
loop_
_atom_site_label
_atom_site_type_symbol
_atom_site_fract_x
_atom_site_fract_y
_atom_site_fract_z
_atom_type_partial_charge
Zn0 Zn 0.23249 0.35538 0.04882 0.0
C1 C 0.12552 0.44119 0.09397 0.0
N2 N 0.14738 0.48352 0.08082 0.0
C3 C 0.1891 0.46255 0.07044 0.0
N4 N 0.19256 0.40887 0.07658 0.0
N5 N 0.15259 0.39573 0.09239 0.0
C6 C 0.04366 0.28671 0.09863 0.0
O7 O 0.06428 0.26778 0.06759 0.0
O8 O 0.30481 0.37066 0.05373 0.0
Zn9 Zn 0.1418 0.33432 0.1248 0.0
N10 N 0.21401 0.35281 0.99322 0.0
C11 C 0.16107 0.37593 0.94004 0.0
C12 C 0.17304 0.377 0.97993 0.0
C13 C 0.24339 0.32705 0.9681 0.0
N14 N 0.1902 0.35011 0.91501 0.0
C15 C 0.23122 0.32506 0.92764 0.0
O16 O 0.17459 0.26308 0.10836 0.0
C17 C 0.20452 0.24614 0.08441 0.0
O18 O 0.22419 0.27815 0.06343 0.0
H19 H 0.14993 0.39712 1.00008 0.0
H20 H 0.27607 0.30909 0.97984 0.0
C21 C 0.17542 0.3246 0.2073 0.0
C22 C 0.19151 0.34667 0.24554 0.0
C23 C 0.1905 0.43565 0.22415 0.0
C24 C 0.17458 0.41386 0.18677 0.0
N25 N 0.16695 0.35897 0.17875 0.0
N26 N 0.19837 0.40182 0.25244 0.0
H27 H 0.16878 0.28112 0.20048 0.0
C28 C 0.33294 0.35669 0.08174 0.0
O29 O 0.31431 0.34086 0.11236 0.0
O30 O 0.06884 0.31578 0.12576 0.0
H31 H 0.16816 0.44105 0.16449 0.0
H32 H 0.1287 0.39528 0.92901 0.0
H33 H 0.19643 0.47927 0.23074 0.0
Zn34 Zn 0.67583 0.16473 0.09769 0.0
C35 C 0.56686 0.20788 1.02541 0.0
N36 N 0.54993 0.15672 1.0262 0.0
C37 C 0.58644 0.13179 0.04496 0.0
N38 N 0.62401 0.16671 0.05626 0.0
N39 N 0.61236 0.21353 0.04243 0.0
C40 C 0.62215 0.36161 1.02553 0.0
O41 O 0.60596 0.35043 0.0583 0.0
O42 O 0.68997 0.0873 0.10759 0.0
Zn43 Zn 0.65952 0.24832 1.01528 0.0
N44 N 0.65298 0.20161 0.1442 0.0
C45 C 0.58741 0.23055 0.18026 0.0
C46 C 0.60469 0.20707 0.14619 0.0
C47 C 0.68487 0.22041 0.1746 0.0
N48 N 0.61913 0.24831 0.21088 0.0
C49 C 0.66754 0.24427 0.20893 0.0
O50 O 0.72854 0.25036 0.0397 0.0
C51 C 0.75665 0.23175 0.06602 0.0
O52 O 0.74102 0.1996 0.08896 0.0
H53 H 0.57964 0.19262 0.12177 0.0
H54 H 0.72313 0.21583 0.17227 0.0
C55 C 0.68591 0.23694 0.9393 0.0
C56 C 0.69174 0.2119 0.90194 0.0
C57 C 0.64924 0.13342 0.91692 0.0
C58 C 0.64443 0.15824 0.9542 0.0
N59 N 0.66259 0.20965 0.96449 0.0
N60 N 0.67272 0.16067 0.89176 0.0
H61 H 0.69936 0.27799 0.94858 0.0
C62 C 0.7002 0.05357 0.07962 0.0
O63 O 0.6996 0.07004 0.04471 0.0
O64 O 0.64243 0.32442 1.00522 0.0
H65 H 0.62661 0.13657 0.9746 0.0
H66 H 0.54909 0.23456 0.18239 0.0
H67 H 0.63477 0.09263 0.90812 0.0
Zn68 Zn 0.86872 0.67858 0.12912 0.0
C69 C 0.81215 0.56723 0.043 0.0
N70 N 0.84213 0.53105 0.05805 0.0
C71 C 0.8691 0.56196 0.08636 0.0
N72 N 0.85387 0.6146 0.08983 0.0
N73 N 0.8201 0.61748 0.06089 0.0
C74 C 0.7191 0.69785 0.06929 0.0
O75 O 0.74359 0.67867 0.09892 0.0
O76 O 0.93544 0.70786 0.12367 0.0
Zn77 Zn 0.80635 0.68033 1.03364 0.0
N78 N 0.8586 0.65944 0.18235 0.0
C79 C 0.85353 0.58763 0.22351 0.0
C80 C 0.85916 0.60517 0.18731 0.0
C81 C 0.84927 0.69702 0.21255 0.0
N82 N 0.84554 0.6248 0.25351 0.0
C83 C 0.84258 0.67911 0.24931 0.0
O84 O 0.84835 0.74128 0.05903 0.0
C85 C 0.82882 0.76667 0.08683 0.0
O86 O 0.82695 0.7444 0.11829 0.0
H87 H 0.86349 0.57518 0.16336 0.0
H88 H 0.84723 0.73996 0.20814 0.0
C89 C 0.7931 0.68872 0.94947 0.0
C90 C 0.80492 0.67659 0.91074 0.0
C91 C 0.86764 0.61974 0.93383 0.0
C92 C 0.85622 0.63244 0.97178 0.0
N93 N 0.81907 0.66616 0.97901 0.0
N94 N 0.84197 0.642 0.90449 0.0
H95 H 0.76362 0.71518 0.95623 0.0
C96 C 0.95182 0.69991 0.09056 0.0
O97 O 0.92726 0.66881 0.06263 0.0
O98 O 0.73856 0.70094 0.03788 0.0
H99 H 0.87681 0.61538 0.99542 0.0
H100 H 0.85479 0.54457 0.22763 0.0
H101 H 0.89692 0.59261 0.92769 0.0
Zn102 Zn 0.36178 0.84042 1.02268 0.0
C103 C 0.32875 0.96267 0.09989 0.0
N104 N 0.37419 0.98035 0.09808 0.0
C105 C 0.39365 0.93919 0.07663 0.0
N106 N 0.36099 0.89866 0.06458 0.0
N107 N 0.32104 0.91256 0.0805 0.0
C108 C 0.19187 0.86932 0.07912 0.0
O109 O 0.21108 0.85652 0.04628 0.0
O110 O 0.42945 0.82169 1.01745 0.0
Zn111 Zn 0.28717 0.8587 0.10468 0.0
N112 N 0.33437 0.86743 0.97519 0.0
C113 C 0.31323 0.94178 0.93836 0.0
C114 C 0.33057 0.92225 0.97317 0.0
C115 C 0.31953 0.83119 0.9442 0.0
N116 N 0.29913 0.90567 0.90723 0.0
C117 C 0.30134 0.85069 0.90924 0.0
O118 O 0.2828 0.78106 0.07807 0.0
C119 C 0.29921 0.75014 0.05098 0.0
O120 O 0.32818 0.76814 1.02873 0.0
H121 H 0.34151 0.95069 0.99819 0.0
H122 H 0.32235 0.78775 0.94672 0.0
C123 C 0.2923 0.83009 0.18159 0.0
C124 C 0.31417 0.82146 0.21848 0.0
C125 C 0.38683 0.86121 0.20208 0.0
C126 C 0.36522 0.8683 0.16524 0.0
N127 N 0.31831 0.853 0.15588 0.0
N128 N 0.36098 0.83789 0.22768 0.0
H129 H 0.25502 0.81884 0.17296 0.0
C130 C 0.45165 0.80459 0.04719 0.0
O131 O 0.42843 0.79937 0.07799 0.0
O132 O 0.21965 0.88027 0.10985 0.0
H133 H 0.38586 0.88531 0.14429 0.0
H134 H 0.31072 0.98529 0.93613 0.0
H135 H 0.42406 0.87343 0.2101 0.0
Zn136 Zn 0.18835 0.65178 0.58953 0.0
C137 C 0.07938 0.70797 0.5245 0.0
N138 N 0.05852 0.65844 0.52455 0.0
C139 C 0.0941 0.62874 0.5404 0.0
N140 N 0.13471 0.65944 0.55071 0.0
N141 N 0.12577 0.70804 0.53895 0.0
C142 C 0.13449 0.83485 0.4711 0.0
O143 O 0.11855 0.79884 0.44229 0.0
O144 O 0.20335 0.57273 0.59007 0.0
Zn145 Zn 0.17162 0.74201 0.51099 0.0
N146 N 0.16795 0.68102 0.63943 0.0
C147 C 0.1041 0.70565 0.67863 0.0
C148 C 0.11994 0.68663 0.64297 0.0
C149 C 0.201 0.69657 0.66988 0.0
N150 N 0.13694 0.72025 0.70912 0.0
C151 C 0.18512 0.71688 0.70575 0.0
O152 O 0.24012 0.74471 0.53497 0.0
C153 C 0.26811 0.72407 0.56033 0.0
O154 O 0.25263 0.68955 0.58167 0.0
H155 H 0.09391 0.67607 0.61843 0.0
H156 H 0.23904 0.69298 0.66618 0.0
C157 C 0.20193 0.72554 0.43614 0.0
C158 C 0.20529 0.70047 0.39843 0.0
C159 C 0.15544 0.62728 0.41259 0.0
C160 C 0.15178 0.65288 0.4498 0.0
N161 N 0.17469 0.70179 0.46064 0.0
N162 N 0.18166 0.65178 0.38775 0.0
H163 H 0.21903 0.76477 0.44586 0.0
C164 C 0.21001 0.54635 0.55776 0.0
O165 O 0.2053 0.57165 0.52605 0.0
O166 O 0.15302 0.8187 0.50271 0.0
H167 H 0.13077 0.63391 0.4696 0.0
H168 H 0.06601 0.70937 0.68197 0.0
H169 H 0.13724 0.58848 0.40338 0.0
Zn170 Zn 0.37371 0.16724 0.62395 0.0
C171 C 0.31102 0.05505 0.54308 0.0
N172 N 0.34297 0.01942 0.55651 0.0
C173 C 0.37254 0.05152 0.58234 0.0
N174 N 0.35736 0.10401 0.58576 0.0
N175 N 0.32053 0.10598 0.55934 0.0
C176 C 0.21494 0.1844 0.56506 0.0
O177 O 0.24047 0.17282 0.59673 0.0
O178 O 0.43879 0.19883 0.61666 0.0
Zn179 Zn 0.30347 0.16746 0.53113 0.0
N180 N 0.36627 0.14921 0.67733 0.0
C181 C 0.36233 0.08256 0.72246 0.0
C182 C 0.36955 0.09626 0.68546 0.0
C183 C 0.3537 0.1889 0.70484 0.0
N184 N 0.34979 0.12188 0.74965 0.0
C185 C 0.34447 0.17494 0.74214 0.0
O186 O 0.33903 0.23541 0.55421 0.0
C187 C 0.32548 0.25669 0.58611 0.0
O188 O 0.32956 0.2306 0.61605 0.0
H189 H 0.37673 0.0644 0.66338 0.0
H190 H 0.35041 0.2305 0.69743 0.0
C191 C 0.29042 0.17437 0.44738 0.0
C192 C 0.30159 0.1618 0.40857 0.0
C193 C 0.36432 0.10475 0.43133 0.0
C194 C 0.35355 0.11797 0.46942 0.0
N195 N 0.31674 0.15212 0.47682 0.0
N196 N 0.33835 0.12689 0.40207 0.0
H197 H 0.26107 0.20093 0.45435 0.0
C198 C 0.45222 0.19562 0.58248 0.0
O199 O 0.42515 0.16861 0.55392 0.0
O200 O 0.23428 0.18256 0.53327 0.0
H201 H 0.37433 0.10095 0.49297 0.0
H202 H 0.36544 0.04064 0.72927 0.0
H203 H 0.39333 0.07731 0.42503 0.0
Zn204 Zn 0.86255 0.3417 0.52142 0.0
C205 C 0.84229 0.46019 0.60452 0.0
N206 N 0.88834 0.47434 0.60103 0.0
C207 C 0.90386 0.43303 0.57745 0.0
N208 N 0.86841 0.39539 0.56614 0.0
N209 N 0.83079 0.41075 0.58485 0.0
C210 C 0.69998 0.35423 0.5778 0.0
O211 O 0.72087 0.33784 0.54633 0.0
O212 O 0.92853 0.31957 0.51119 0.0
Zn213 Zn 0.79604 0.35534 0.60819 0.0
N214 N 0.83125 0.37465 0.47778 0.0
C215 C 0.80705 0.45377 0.44719 0.0
C216 C 0.82758 0.42999 0.47938 0.0
C217 C 0.81314 0.34194 0.4459 0.0
N218 N 0.78972 0.42119 0.41507 0.0
C219 C 0.79174 0.36573 0.41366 0.0
O220 O 0.79754 0.27587 0.58389 0.0
C221 C 0.8081 0.24808 0.55302 0.0
O222 O 0.82852 0.26999 0.52696 0.0
H223 H 0.84108 0.45558 0.50523 0.0
H224 H 0.81582 0.29798 0.4456 0.0
C225 C 0.79349 0.33256 0.68614 0.0
C226 C 0.81185 0.32716 0.72458 0.0
C227 C 0.88627 0.36632 0.7113 0.0
C228 C 0.86818 0.37019 0.673 0.0
N229 N 0.82205 0.35373 0.66134 0.0
N230 N 0.85788 0.34483 0.73604 0.0
H231 H 0.75697 0.32013 0.67564 0.0
C232 C 0.94976 0.29803 0.53958 0.0
O233 O 0.92668 0.29293 0.57048 0.0
O234 O 0.72622 0.37096 0.60846 0.0
H235 H 0.89089 0.38563 0.65271 0.0
H236 H 0.80464 0.49775 0.44777 0.0
H237 H 0.92282 0.37955 0.72117 0.0
Zn238 Zn 0.73993 0.84844 0.54813 0.0
C239 C 0.63302 0.93706 0.58601 0.0
N240 N 0.65548 0.97819 0.57183 0.0
C241 C 0.69855 0.95726 0.56502 0.0
N242 N 0.70222 0.90504 0.57453 0.0
N243 N 0.66107 0.89285 0.58881 0.0
C244 C 0.55396 0.78179 0.5935 0.0
O245 O 0.57566 0.76386 0.56278 0.0
O246 O 0.8068 0.87103 0.53629 0.0
Zn247 Zn 0.64939 0.83439 0.62313 0.0
N248 N 0.70642 0.82707 0.49677 0.0
C249 C 0.63233 0.80774 0.45817 0.0
C250 C 0.6577 0.82133 0.49425 0.0
C251 C 0.73099 0.81914 0.46434 0.0
N252 N 0.6567 0.79993 0.42597 0.0
C253 C 0.70561 0.80491 0.42763 0.0
O254 O 0.68915 0.76597 0.61487 0.0
C255 C 0.72663 0.75055 0.59868 0.0
O256 O 0.74742 0.77981 0.57646 0.0
H257 H 0.6387 0.82756 0.52008 0.0
H258 H 0.76961 0.82482 0.46713 0.0
C259 C 0.67906 0.8322 0.70658 0.0
C260 C 0.69074 0.85662 0.74501 0.0
C261 C 0.67899 0.94418 0.72225 0.0
C262 C 0.66754 0.91995 0.68469 0.0
N263 N 0.66759 0.86459 0.67727 0.0
N264 N 0.69015 0.91219 0.75125 0.0
H265 H 0.67819 0.78825 0.70004 0.0
C266 C 0.84506 0.86566 0.55826 0.0
O267 O 0.84152 0.85756 0.59472 0.0
O268 O 0.5776 0.81169 0.62095 0.0
H269 H 0.65847 0.94546 0.66173 0.0
H270 H 0.59348 0.80332 0.45573 0.0
H271 H 0.67893 0.9882 0.7284 0.0
H272 H 0.24987 0.25751 0.40691 0.0
H273 H 0.29665 0.12085 0.33241 0.0
H274 H 0.26358 0.16271 0.27537 0.0
H275 H 0.22686 0.24178 0.24596 0.0
H276 H 0.18002 0.3775 0.32111 0.0
H277 H 0.20673 0.33177 0.378 0.0
C278 C 0.25199 0.23591 0.37844 0.0
C279 C 0.27604 0.18573 0.37449 0.0
C280 C 0.23295 0.26032 0.34542 0.0
C281 C 0.27886 0.15967 0.33674 0.0
C282 C 0.25982 0.18356 0.30388 0.0
C283 C 0.22145 0.26081 0.27469 0.0
C284 C 0.20152 0.31331 0.27897 0.0
C285 C 0.23752 0.23443 0.30774 0.0
C286 C 0.19562 0.33742 0.31672 0.0
C287 C 0.21094 0.31128 0.34945 0.0
H288 H 0.66356 0.22241 0.28301 0.0
H289 H 0.74392 0.31467 0.21016 0.0
H290 H 0.7914 0.35927 0.26756 0.0
H291 H 0.80544 0.37679 0.33885 0.0
H292 H 0.7283 0.28037 0.41132 0.0
H293 H 0.68428 0.23204 0.35374 0.0
C294 C 0.69193 0.25181 0.27984 0.0
C295 C 0.70026 0.26567 0.24273 0.0
C296 C 0.71936 0.27653 0.31282 0.0
C297 C 0.73722 0.30334 0.2386 0.0
C298 C 0.76409 0.32899 0.27136 0.0
C299 C 0.77937 0.3447 0.34184 0.0
C300 C 0.76979 0.33215 0.37901 0.0
C301 C 0.75481 0.31665 0.30864 0.0
C302 C 0.73634 0.29033 0.38284 0.0
C303 C 0.71103 0.26298 0.35 0.0
H304 H 0.79793 0.76845 0.41725 0.0
H305 H 0.66726 0.81635 0.35405 0.0
H306 H 0.70091 0.78984 0.29274 0.0
H307 H 0.76401 0.74346 0.2566 0.0
H308 H 0.89258 0.69185 0.31992 0.0
H309 H 0.86406 0.73085 0.3811 0.0
C310 C 0.77709 0.77449 0.39024 0.0
C311 C 0.72978 0.79445 0.39074 0.0
C312 C 0.79649 0.75846 0.35471 0.0
C313 C 0.70347 0.80065 0.35492 0.0
C314 C 0.72276 0.7856 0.31963 0.0
C315 C 0.78641 0.74257 0.28369 0.0
C316 C 0.83074 0.71566 0.28367 0.0
C317 C 0.76881 0.76325 0.31907 0.0
C318 C 0.85869 0.71314 0.31915 0.0
C319 C 0.84213 0.73492 0.35421 0.0
H320 H 0.18713 0.68841 0.32026 0.0
H321 H 0.28397 0.77142 0.41188 0.0
H322 H 0.32424 0.81708 0.36431 0.0
H323 H 0.33238 0.83353 0.29675 0.0
H324 H 0.23826 0.74665 0.20496 0.0
H325 H 0.19677 0.70285 0.25263 0.0
C326 C 0.21723 0.71623 0.32989 0.0
C327 C 0.23172 0.72695 0.36975 0.0
C328 C 0.24073 0.74204 0.30234 0.0
C329 C 0.27087 0.76327 0.38158 0.0
C330 C 0.29433 0.78919 0.35432 0.0
C331 C 0.30282 0.80499 0.28708 0.0
C332 C 0.28808 0.79458 0.24722 0.0
C333 C 0.27946 0.77901 0.31464 0.0
C334 C 0.24972 0.75718 0.23536 0.0
C335 C 0.22616 0.73143 0.26265 0.0
H336 H 0.75272 0.7721 0.90821 0.0
H337 H 0.80115 0.63523 0.8348 0.0
H338 H 0.76845 0.67612 0.77732 0.0
H339 H 0.7307 0.75362 0.74716 0.0
H340 H 0.6811 0.88944 0.8209 0.0
H341 H 0.70916 0.84567 0.87829 0.0
C342 C 0.75534 0.75035 0.87985 0.0
C343 C 0.77969 0.70029 0.8764 0.0
C344 C 0.73642 0.77418 0.84649 0.0
C345 C 0.78313 0.67395 0.83881 0.0
C346 C 0.7643 0.69729 0.80567 0.0
C347 C 0.725 0.77329 0.77564 0.0
C348 C 0.7037 0.82517 0.77921 0.0
C349 C 0.74149 0.74787 0.80903 0.0
C350 C 0.69772 0.84988 0.81684 0.0
C351 C 0.71374 0.8248 0.84993 0.0
H352 H 0.18134 0.6962 0.7802 0.0
H353 H 0.26301 0.7853 0.70633 0.0
H354 H 0.30896 0.83256 0.76343 0.0
H355 H 0.3196 0.85529 0.83449 0.0
H356 H 0.24009 0.76337 0.90819 0.0
H357 H 0.19977 0.71 0.85111 0.0
C358 C 0.20985 0.72526 0.77672 0.0
C359 C 0.21876 0.73753 0.73931 0.0
C360 C 0.23611 0.75199 0.8096 0.0
C361 C 0.25587 0.77492 0.73491 0.0
C362 C 0.28181 0.80226 0.76753 0.0
C363 C 0.29395 0.82296 0.83792 0.0
C364 C 0.28253 0.81333 0.87529 0.0
C365 C 0.27131 0.79216 0.80501 0.0
C366 C 0.24961 0.77118 0.87963 0.0
C367 C 0.22637 0.74093 0.84703 0.0
H368 H 0.23534 0.34367 0.85186 0.0
H369 H 0.29294 0.23865 0.93683 0.0
H370 H 0.3362 0.18777 0.88779 0.0
H371 H 0.3535 0.16834 0.81997 0.0
H372 H 0.29296 0.26991 0.73392 0.0
H373 H 0.25588 0.3267 0.7842 0.0
C374 C 0.25754 0.30984 0.85982 0.0
C375 C 0.26079 0.29578 0.89844 0.0
C376 C 0.28197 0.27978 0.83114 0.0
C377 C 0.29009 0.25174 0.9079 0.0
C378 C 0.31469 0.22201 0.87963 0.0
C379 C 0.33253 0.20316 0.81208 0.0
C380 C 0.3265 0.21451 0.7729 0.0
C381 C 0.31032 0.23513 0.84107 0.0
C382 C 0.2993 0.26021 0.76363 0.0
C383 C 0.27747 0.29257 0.79245 0.0
H384 H 0.67811 0.19693 0.82334 0.0
H385 H 0.76603 0.28832 0.91694 0.0
H386 H 0.80854 0.33317 0.8703 0.0
H387 H 0.8223 0.34543 0.80304 0.0
H388 H 0.73749 0.25042 0.70935 0.0
H389 H 0.69248 0.20857 0.75593 0.0
C390 C 0.70659 0.22664 0.83359 0.0
C391 C 0.71798 0.23972 0.87372 0.0
C392 C 0.73158 0.25192 0.80656 0.0
C393 C 0.75517 0.27833 0.88637 0.0
C394 C 0.78001 0.30376 0.85965 0.0
C395 C 0.79395 0.31561 0.79271 0.0
C396 C 0.78303 0.30211 0.75257 0.0
C397 C 0.76858 0.2908 0.8197 0.0
C398 C 0.7461 0.26318 0.73988 0.0
C399 C 0.72052 0.23858 0.76659 0.0
H400 H 0.21732 0.17733 0.1418 0.0
H401 H 0.22246 0.18428 1.01864 0.0
H402 H 0.25205 0.091 1.01194 0.0
H403 H 0.2858 1.01217 0.04188 0.0
H404 H 0.29186 1.00863 0.16573 0.0
H405 H 0.24757 0.09474 0.17159 0.0
C406 C 0.22417 0.15791 0.11347 0.0
C407 C 0.21777 0.18767 0.08073 0.0
C408 C 0.24305 0.1047 0.11005 0.0
C409 C 0.22739 0.16237 0.04426 0.0
C410 C 0.24422 0.10898 0.0404 0.0
C411 C 0.27578 0.02938 0.06995 0.0
C412 C 0.29075 1.00369 0.10324 0.0
C413 C 0.25331 0.08031 0.07316 0.0
C414 C 0.27947 0.02717 0.13969 0.0
C415 C 0.25479 0.07672 0.143 0.0
H416 H 0.825 0.24265 0.12911 0.0
H417 H 0.80719 0.249 1.005 0.0
H418 H 0.89349 0.26542 1.0041 0.0
H419 H 0.97473 0.27636 0.03791 0.0
H420 H 0.99335 0.27905 0.16249 0.0
H421 H 0.90667 0.26112 0.16394 0.0
C422 C 0.8401 0.24772 0.10193 0.0
C423 C 0.80943 0.24413 0.06711 0.0
C424 C 0.89011 0.25874 0.10168 0.0
C425 C 0.82965 0.25161 1.03224 0.0
C426 C 0.87918 0.26087 1.03164 0.0
C427 C 0.95986 0.27291 0.06541 0.0
C428 C 0.99071 0.27825 0.10001 0.0
C429 C 0.90983 0.2642 0.06608 0.0
C430 C 0.97054 0.27492 0.13543 0.0
C431 C 0.92092 0.26455 0.13623 0.0
H432 H 0.78626 0.83701 0.13892 0.0
H433 H 0.80815 0.80668 1.01718 0.0
H434 H 0.76667 0.89015 1.00391 0.0
H435 H 0.72931 0.97494 1.02707 0.0
H436 H 0.70836 1.00791 0.14868 0.0
H437 H 0.74376 0.9202 0.16159 0.0
C438 C 0.78169 0.8486 0.10951 0.0
C439 C 0.80099 0.81604 0.0793 0.0
C440 C 0.75806 0.89726 0.10196 0.0
C441 C 0.7944 0.83136 0.04121 0.0
C442 C 0.77051 0.87909 1.03346 0.0
C443 C 0.73208 0.96283 0.05637 0.0
C444 C 0.71678 0.99823 0.08688 0.0
C445 C 0.75304 0.91286 0.06369 0.0
C446 C 0.72027 0.98161 0.12464 0.0
C447 C 0.74059 0.93148 0.1321 0.0
H448 H 0.9995 0.78444 0.1346 0.0
H449 H 1.0014 0.68102 1.02685 0.0
H450 H 0.07223 0.73039 1.01115 0.0
H451 H 0.13591 0.79906 1.02954 0.0
H452 H 0.13683 0.90031 0.13835 0.0
H453 H 0.06148 0.85675 0.15155 0.0
C454 C 0.01554 0.77264 0.10777 0.0
C455 C 0.99558 0.72886 0.08213 0.0
C456 C 0.05617 0.80133 0.0988 0.0
C457 C 0.01629 0.71443 0.0472 0.0
C458 C 0.05664 0.74278 0.03808 0.0
C459 C 0.11907 0.8126 0.05572 0.0
C460 C 0.14177 0.85281 0.08294 0.0
C461 C 0.077 0.78603 0.06376 0.0
C462 C 0.11983 0.86941 0.11695 0.0
C463 C 0.07708 0.8442 0.12466 0.0
H464 H 0.29538 0.99863 0.47199 0.0
H465 H 0.22436 0.06936 0.56955 0.0
H466 H 0.15146 1.01612 0.54713 0.0
H467 H 0.11892 0.93108 0.51126 0.0
H468 H 0.19024 0.85741 0.41477 0.0
H469 H 0.25109 0.93078 0.42408 0.0
C470 C 0.26308 1.00387 0.48717 0.0
C471 C 0.26474 0.03763 0.52217 0.0
C472 C 0.2216 0.97191 0.47453 0.0
C473 C 0.22322 0.04444 0.54203 0.0
C474 C 0.18175 1.01333 0.52952 0.0
C475 C 0.14616 0.93311 0.49093 0.0
C476 C 0.15093 0.88893 0.46297 0.0
C477 C 0.1818 0.97437 0.49733 0.0
C478 C 0.18609 0.89132 0.43657 0.0
C479 C 0.22144 0.93273 0.44235 0.0
H480 H 0.00389 0.25215 0.5958 0.0
H481 H 0.00734 0.30285 0.48044 0.0
H482 H 0.0898 0.27108 0.47818 0.0
H483 H 0.16031 0.2291 0.5088 0.0
H484 H 0.15775 0.1797 0.62456 0.0
H485 H 0.07494 0.21088 0.62677 0.0
C486 C 0.02264 0.25622 0.57014 0.0
C487 C 0.99957 0.27949 0.53826 0.0
C488 C 0.06993 0.23808 0.56907 0.0
C489 C 0.02434 0.28481 0.50529 0.0
C490 C 0.07142 0.26669 0.50396 0.0
C491 C 0.14158 0.22484 0.53447 0.0
C492 C 0.16486 0.20191 0.5664 0.0
C493 C 0.09442 0.24316 0.53564 0.0
C494 C 0.14043 0.19721 0.5996 0.0
C495 C 0.09318 0.215 0.60088 0.0
H496 H 0.83333 0.16149 0.5942 0.0
H497 H 0.74535 0.20534 0.49402 0.0
H498 H 0.70999 0.1129 0.48349 0.0
H499 H 0.69633 0.02402 0.50811 0.0
H500 H 0.78541 0.97776 0.60674 0.0
H501 H 0.82973 0.06534 0.61161 0.0
C502 C 0.8069 0.15033 0.56981 0.0
C503 C 0.79128 0.19026 0.54522 0.0
C504 C 0.78749 0.09644 0.56339 0.0
C505 C 0.7576 0.17532 0.51339 0.0
C506 C 0.73747 0.12246 0.50735 0.0
C507 C 0.727 0.03209 0.5295 0.0
C508 C 0.73785 0.99425 0.55682 0.0
C509 C 0.75128 0.0831 0.53268 0.0
C510 C 0.77704 1.00561 0.58486 0.0
C511 C 0.80165 0.05631 0.58816 0.0
H512 H 1.0016 0.73013 0.47651 0.0
H513 H 0.08897 0.79422 0.57979 0.0
H514 H 0.02475 0.85584 0.598 0.0
H515 H 0.93799 0.87749 0.59073 0.0
H516 H 0.85268 0.81709 0.48528 0.0
H517 H 0.9217 0.76911 0.46152 0.0
C518 C 0.0072 0.75924 0.50213 0.0
C519 C 0.04962 0.75734 0.52691 0.0
C520 C 0.97002 0.79451 0.5125 0.0
C521 C 0.05667 0.79515 0.56008 0.0
C522 C 0.01965 0.82992 0.57082 0.0
C523 C 0.93498 0.85514 0.56209 0.0
C524 C 0.88992 0.85009 0.54024 0.0
C525 C 0.97524 0.82786 0.54826 0.0
C526 C 0.88672 0.82157 0.50291 0.0
C527 C 0.92623 0.79368 0.4893 0.0
H528 H 0.69125 0.64566 0.58349 0.0
H529 H 0.81402 0.74179 0.63674 0.0
H530 H 0.85618 0.65856 0.65164 0.0
H531 H 0.8618 0.55938 0.64322 0.0
H532 H 0.74537 0.46235 0.58019 0.0
H533 H 0.69617 0.54393 0.57714 0.0
C534 C 0.72702 0.64804 0.59871 0.0
C535 C 0.74977 0.69951 0.60898 0.0
C536 C 0.75185 0.59968 0.60584 0.0
C537 C 0.79615 0.70248 0.62841 0.0
C538 C 0.82012 0.65495 0.63702 0.0
C539 C 0.8252 0.5557 0.62958 0.0
C540 C 0.80723 0.50433 0.61242 0.0
C541 C 0.7988 0.60338 0.62509 0.0
C542 C 0.75978 0.50069 0.59472 0.0
C543 C 0.73199 0.54778 0.59216 0.0
H544 H 0.33635 0.7328 0.62325 0.0
H545 H 0.31812 0.74335 0.49959 0.0
H546 H 0.40432 0.76032 0.49872 0.0
H547 H 0.48551 0.77121 0.53255 0.0
H548 H 0.50427 0.77014 0.65688 0.0
H549 H 0.41787 0.75068 0.65813 0.0
C550 C 0.35137 0.73887 0.5962 0.0
C551 C 0.32071 0.73644 0.56151 0.0
C552 C 0.40125 0.75025 0.59599 0.0
C553 C 0.3407 0.74516 0.52675 0.0
C554 C 0.39013 0.75471 0.52616 0.0
C555 C 0.4707 0.76649 0.55991 0.0
C556 C 0.50141 0.7713 0.5945 0.0
C557 C 0.42082 0.7571 0.56051 0.0
C558 C 0.48144 0.7664 0.62982 0.0
C559 C 0.43202 0.7552 0.63052 0.0
H560 H 0.23049 0.48622 0.6185 0.0
H561 H 0.227 0.47879 0.49356 0.0
H562 H 0.26116 0.38764 0.4914 0.0
H563 H 0.29576 0.31245 0.52508 0.0
H564 H 0.30018 0.31986 0.65006 0.0
H565 H 0.26178 0.4089 0.65204 0.0
C566 C 0.2369 0.46455 0.59076 0.0
C567 C 0.22667 0.48946 0.55628 0.0
C568 C 0.25704 0.41245 0.58974 0.0
C569 C 0.23488 0.46069 0.52057 0.0
C570 C 0.2545 0.40862 0.51929 0.0
C571 C 0.28846 0.33355 0.5528 0.0
C572 C 0.30141 0.30994 0.58741 0.0
C573 C 0.26646 0.38457 0.55373 0.0
C574 C 0.2909 0.33737 0.62301 0.0
C575 C 0.26892 0.38824 0.62417 0.0
H576 H 0.50284 0.27537 0.62888 0.0
H577 H 0.50017 0.18015 0.51748 0.0
H578 H 0.57385 0.22649 0.50399 0.0
H579 H 0.64153 0.28944 0.52563 0.0
H580 H 0.64514 0.38364 0.63751 0.0
H581 H 0.5677 0.34331 0.64853 0.0
C582 C 0.51843 0.26475 0.60167 0.0
C583 C 0.49653 0.22395 0.57444 0.0
C584 C 0.56057 0.29175 0.594 0.0
C585 C 0.51659 0.21122 0.53903 0.0
C586 C 0.55862 0.23777 0.53124 0.0
C587 C 0.62497 0.30203 0.5521 0.0
C588 C 0.6492 0.33915 0.58082 0.0
C589 C 0.58116 0.27767 0.55869 0.0
C590 C 0.62726 0.35494 0.61499 0.0
C591 C 0.58318 0.33161 0.62145 0.0
H592 H 0.72327 0.58066 0.06363 0.0
H593 H 0.80371 0.51067 0.97148 0.0
H594 H 0.73627 0.44814 0.94794 0.0
H595 H 0.6689 0.39663 0.96716 0.0
H596 H 0.59856 0.45573 0.06855 0.0
H597 H 0.64511 0.54122 0.0736 0.0
C598 C 0.72465 0.55414 0.03697 0.0
C599 C 0.76785 0.54993 1.01911 0.0
C600 C 0.68761 0.5154 1.02598 0.0
C601 C 0.77044 0.51426 0.98542 0.0
C602 C 0.73212 0.47823 0.97234 0.0
C603 C 0.6626 0.42887 0.9897 0.0
C604 C 0.63229 0.41885 1.01872 0.0
C605 C 0.6925 0.47552 0.99446 0.0
C606 C 0.62294 0.46176 0.04665 0.0
C607 C 0.6499 0.51047 0.04974 0.0
H608 H 0.6664 0.75437 1.01859 0.0
H609 H 0.66102 0.68275 0.12684 0.0
H610 H 0.57766 0.71154 0.1303 0.0
H611 H 0.50587 0.7543 0.10127 0.0
H612 H 0.51196 0.82492 0.99265 0.0
H613 H 0.59598 0.7992 0.99072 0.0
C614 C 0.647 0.74492 0.04293 0.0
C615 C 0.6695 0.71611 0.07223 0.0
C616 C 0.59939 0.76133 0.04464 0.0
C617 C 0.64425 0.70482 0.10386 0.0
C618 C 0.59667 0.72117 0.10584 0.0
C619 C 0.52566 0.76421 0.07727 0.0
C620 C 0.50275 0.7909 0.04699 0.0
C621 C 0.57382 0.74906 0.07621 0.0
C622 C 0.52876 0.80378 1.01612 0.0
C623 C 0.57676 0.78921 1.015 0.0
H624 H 0.17238 0.53554 1.01892 0.0
H625 H 0.28542 0.47477 0.09488 0.0
H626 H 0.33325 0.55881 0.09262 0.0
H627 H 0.33568 0.65663 0.07824 0.0
H628 H 0.21849 0.7176 1.0062 0.0
H629 H 0.1791 0.62725 0.99807 0.0
C630 C 0.20838 0.5398 1.03374 0.0
C631 C 0.22553 0.49874 0.05673 0.0
C632 C 0.23414 0.58934 1.03399 0.0
C633 C 0.27188 0.50505 0.07622 0.0
C634 C 0.29871 0.55377 0.07561 0.0
C635 C 0.302 0.64952 0.06019 0.0
C636 C 0.27979 0.6935 0.0428 0.0
C637 C 0.27916 0.59729 0.05611 0.0
C638 C 0.23608 0.68426 1.01972 0.0
C639 C 0.21363 0.63263 1.01509 0.0
H640 H 0.37384 0.33389 1.01358 0.0
H641 H 0.40723 0.35306 0.13784 0.0
H642 H 0.48808 0.31844 0.13003 0.0
H643 H 0.54415 0.26976 0.08886 0.0
H644 H 0.50769 0.24045 0.96559 0.0
H645 H 0.43375 0.29288 0.97165 0.0
C646 C 0.39926 0.33189 0.03889 0.0
C647 C 0.38444 0.34605 0.07632 0.0
C648 C 0.44516 0.30984 1.03423 0.0
C649 C 0.41763 0.34234 0.10879 0.0
C650 C 0.46385 0.3224 0.10432 0.0
C651 C 0.52088 0.27672 0.06318 0.0
C652 C 0.53186 0.25261 1.02667 0.0
C653 C 0.47738 0.30428 0.06732 0.0
C654 C 0.50056 0.25999 0.99378 0.0
C655 C 0.45803 0.28934 0.99739 0.0
H656 H 0.90423 0.46122 0.0709 0.0
H657 H 0.93829 0.6137 0.14079 0.0
H658 H 0.02049 0.58355 0.15582 0.0
H659 H 0.08572 0.51977 0.13993 0.0
H660 H 0.05248 0.37644 0.06041 0.0
H661 H 0.96666 0.39552 0.05926 0.0
C662 C 0.92919 0.48792 0.08994 0.0
C663 C 0.91526 0.54085 0.10359 0.0
C664 C 0.97667 0.471 0.09709 0.0
C665 C 0.94825 0.57386 0.12871 0.0
C666 C 0.99528 0.55633 0.13749 0.0
C667 C 0.05925 0.49172 0.1237 0.0
C668 C 0.07482 0.44458 0.10229 0.0
C669 C 0.01041 0.5059 0.12048 0.0
C670 C 0.04083 0.41012 0.07959 0.0
C671 C 0.99194 0.4221 0.07804 0.0
H672 H 0.47258 0.97104 0.12305 0.0
H673 H 0.42412 0.92378 1.00323 0.0
H674 H 0.49428 0.96908 0.98266 0.0
H675 H 0.55409 0.04377 0.99871 0.0
H676 H 0.59764 0.09794 0.11835 0.0
H677 H 0.54654 0.02733 0.13927 0.0
C678 C 0.47857 0.9688 0.09249 0.0
C679 C 0.44278 0.94501 0.06463 0.0
C680 C 0.51797 0.99718 0.08095 0.0
C681 C 0.45078 0.94201 1.02522 0.0
C682 C 0.49087 0.96844 1.01345 0.0
C683 C 0.55414 0.03822 1.02933 0.0
C684 C 0.57859 0.07677 0.057 0.0
C685 C 0.52258 0.99942 0.04099 0.0
C686 C 0.57879 0.06933 0.09651 0.0
C687 C 0.54898 0.02923 0.10846 0.0
H688 H 0.98926 0.45618 0.61771 0.0
H689 H 0.92287 0.42537 0.50086 0.0
H690 H 0.9879 0.47563 0.47679 0.0
H691 H 0.04916 0.54919 0.49222 0.0
H692 H 0.11434 0.58247 0.6093 0.0
H693 H 0.06559 0.50955 0.63005 0.0
C694 C 0.99033 0.45834 0.58674 0.0
C695 C 0.95069 0.43826 0.56116 0.0
C696 C 0.02719 0.48898 0.57339 0.0
C697 C 0.95242 0.44095 0.52119 0.0
C698 C 0.98956 0.47024 0.50746 0.0
C699 C 0.05414 0.53885 0.52196 0.0
C700 C 0.08393 0.57249 0.54953 0.0
C701 C 0.02501 0.49772 0.53373 0.0
C702 C 0.09083 0.55831 0.58772 0.0
C703 C 0.06264 0.51663 0.59963 0.0
H704 H 0.41032 0.95247 0.56437 0.0
H705 H 0.44299 0.10568 0.63366 0.0
H706 H 0.52632 0.0787 0.64648 0.0
H707 H 0.59227 1.01675 0.63007 0.0
H708 H 0.56048 0.8707 0.55297 0.0
H709 H 0.47425 0.88825 0.55201 0.0
C710 C 0.43528 0.97987 0.58284 0.0
C711 C 0.42039 0.03204 0.5972 0.0
C712 C 0.48343 0.96455 0.58902 0.0
C713 C 0.45353 0.06633 0.6212 0.0
C714 C 0.50125 0.0506 0.62877 0.0
C715 C 0.56608 0.9879 0.61431 0.0
C716 C 0.58209 0.94064 0.59348 0.0
C717 C 0.51697 1.00063 0.61164 0.0
C718 C 0.54847 0.90488 0.57151 0.0
C719 C 0.49935 0.91583 0.57016 0.0
loop_
_geom_bond_atom_site_label_1
_geom_bond_atom_site_label_2
_geom_bond_distance
_geom_bond_site_symmetry_2
_ccdc_geom_bond_type
Zn0 N4 2.020 . S
Zn0 O8 2.018 1_554 S
Zn0 N10 2.119 1_554 S
Zn0 O18 1.975 . S
C1 N2 1.334 . S
C1 N5 1.336 . S
N2 C1 1.334 . S
N2 C3 1.334 . S
C3 N2 1.334 . S
C3 N4 1.336 . S
N4 Zn0 2.020 . S
N4 C3 1.336 . S
N4 N5 1.354 . S
N5 C1 1.336 . S
N5 N4 1.354 . S
N5 Zn9 2.020 . S
C6 O7 1.244 . S
C6 O30 1.257 . S
O7 C6 1.244 . S
O8 Zn0 2.018 1_556 S
O8 C28 1.254 1_556 S
Zn9 N5 2.020 . S
Zn9 O16 1.975 . S
Zn9 N25 2.119 . S
Zn9 O30 2.019 . S
N10 Zn0 2.119 1_556 S
N10 C12 1.334 . S
N10 C13 1.328 . S
C11 C12 1.391 . S
C11 N14 1.329 . S
C11 H32 0.930 . S
C12 N10 1.334 . S
C12 C11 1.391 . S
C12 H19 0.930 . S
C13 N10 1.328 . S
C13 C15 1.392 . S
C13 H20 0.930 . S
N14 C11 1.329 . S
N14 C15 1.331 . S
C15 C13 1.392 . S
C15 N14 1.331 . S
O16 Zn9 1.975 . S
O16 C17 1.252 . S
C17 O16 1.252 . S
C17 O18 1.252 . S
O18 Zn0 1.975 . S
O18 C17 1.252 . S
H19 C12 0.930 . S
H20 C13 0.930 . S
C21 C22 1.392 . S
C21 N25 1.328 . S
C21 H27 0.930 . S
C22 C21 1.392 . S
C22 N26 1.331 . S
C23 C24 1.391 . S
C23 N26 1.329 . S
C23 H33 0.930 . S
C24 C23 1.391 . S
C24 N25 1.334 . S
C24 H31 0.930 . S
N25 Zn9 2.119 . S
N25 C21 1.328 . S
N25 C24 1.334 . S
N26 C22 1.331 . S
N26 C23 1.329 . S
H27 C21 0.930 . S
C28 O8 1.254 1_554 S
C28 O29 1.244 . S
O29 C28 1.244 . S
O30 C6 1.257 . S
O30 Zn9 2.019 . S
H31 C24 0.930 . S
H32 C11 0.930 . S
H33 C23 0.930 . S
Zn34 N38 2.020 . S
Zn34 O42 2.019 . S
Zn34 N44 2.119 . S
Zn34 O52 1.975 . S
C35 N36 1.334 1_556 S
C35 N39 1.336 1_556 S
N36 C35 1.334 1_554 S
N36 C37 1.334 . S
C37 N36 1.334 . S
C37 N38 1.336 . S
N38 Zn34 2.020 . S
N38 C37 1.336 . S
N38 N39 1.354 . S
N39 C35 1.336 1_554 S
N39 N38 1.354 . S
N39 Zn43 2.020 1_554 S
C40 O41 1.244 . S
C40 O64 1.257 1_554 S
O41 C40 1.244 . S
O42 Zn34 2.019 . S
O42 C62 1.257 . S
Zn43 N39 2.020 1_556 S
Zn43 O50 1.975 1_556 S
Zn43 N59 2.119 . S
Zn43 O64 2.019 . S
N44 Zn34 2.119 . S
N44 C46 1.334 . S
N44 C47 1.328 . S
C45 C46 1.391 . S
C45 N48 1.329 . S
C45 H66 0.930 . S
C46 N44 1.334 . S
C46 C45 1.391 . S
C46 H53 0.930 . S
C47 N44 1.328 . S
C47 C49 1.392 . S
C47 H54 0.930 . S
N48 C45 1.329 . S
N48 C49 1.331 . S
C49 C47 1.392 . S
C49 N48 1.331 . S
O50 Zn43 1.975 1_554 S
O50 C51 1.252 . S
C51 O50 1.252 . S
C51 O52 1.252 . S
O52 Zn34 1.975 . S
O52 C51 1.252 . S
H53 C46 0.930 . S
H54 C47 0.930 . S
C55 C56 1.392 . S
C55 N59 1.328 . S
C55 H61 0.930 . S
C56 C55 1.392 . S
C56 N60 1.331 . S
C57 C58 1.391 . S
C57 N60 1.329 . S
C57 H67 0.930 . S
C58 C57 1.391 . S
C58 N59 1.334 . S
C58 H65 0.930 . S
N59 Zn43 2.119 . S
N59 C55 1.328 . S
N59 C58 1.334 . S
N60 C56 1.331 . S
N60 C57 1.329 . S
H61 C55 0.930 . S
C62 O42 1.257 . S
C62 O63 1.244 . S
O63 C62 1.244 . S
O64 C40 1.257 1_556 S
O64 Zn43 2.019 . S
H65 C58 0.930 . S
H66 C45 0.930 . S
H67 C57 0.930 . S
Zn68 N72 2.020 . S
Zn68 O76 2.019 . S
Zn68 N78 2.119 . S
Zn68 O86 1.975 . S
C69 N70 1.334 . S
C69 N73 1.336 . S
N70 C69 1.334 . S
N70 C71 1.334 . S
C71 N70 1.334 . S
C71 N72 1.336 . S
N72 Zn68 2.020 . S
N72 C71 1.336 . S
N72 N73 1.354 . S
N73 C69 1.336 . S
N73 N72 1.354 . S
N73 Zn77 2.020 . S
C74 O75 1.244 . S
C74 O98 1.257 1_554 S
O75 C74 1.244 . S
O76 Zn68 2.019 . S
O76 C96 1.257 . S
Zn77 N73 2.020 . S
Zn77 O84 1.975 . S
Zn77 N93 2.119 1_554 S
Zn77 O98 2.019 1_554 S
N78 Zn68 2.119 . S
N78 C80 1.334 . S
N78 C81 1.328 . S
C79 C80 1.391 . S
C79 N82 1.329 . S
C79 H100 0.930 . S
C80 N78 1.334 . S
C80 C79 1.391 . S
C80 H87 0.930 . S
C81 N78 1.328 . S
C81 C83 1.392 . S
C81 H88 0.930 . S
N82 C79 1.329 . S
N82 C83 1.331 . S
C83 C81 1.392 . S
C83 N82 1.331 . S
O84 Zn77 1.975 . S
O84 C85 1.252 . S
C85 O84 1.252 . S
C85 O86 1.252 . S
O86 Zn68 1.975 . S
O86 C85 1.252 . S
H87 C80 0.930 . S
H88 C81 0.930 . S
C89 C90 1.392 . S
C89 N93 1.328 . S
C89 H95 0.930 . S
C90 C89 1.392 . S
C90 N94 1.331 . S
C91 C92 1.391 . S
C91 N94 1.329 . S
C91 H101 0.930 . S
C92 C91 1.391 . S
C92 N93 1.334 . S
C92 H99 0.930 . S
N93 Zn77 2.119 1_556 S
N93 C89 1.328 . S
N93 C92 1.334 . S
N94 C90 1.331 . S
N94 C91 1.329 . S
H95 C89 0.930 . S
C96 O76 1.257 . S
C96 O97 1.244 . S
O97 C96 1.244 . S
O98 C74 1.257 1_556 S
O98 Zn77 2.019 1_556 S
H99 C92 0.930 . S
H100 C79 0.930 . S
H101 C91 0.930 . S
Zn102 N106 2.020 . S
Zn102 O110 2.019 1_554 S
Zn102 N112 2.119 1_554 S
Zn102 O120 1.975 . S
C103 N104 1.334 . S
C103 N107 1.336 . S
N104 C103 1.334 . S
N104 C105 1.334 . S
C105 N104 1.334 . S
C105 N106 1.336 . S
N106 Zn102 2.020 . S
N106 C105 1.336 . S
N106 N107 1.354 . S
N107 C103 1.336 . S
N107 N106 1.354 . S
N107 Zn111 2.020 . S
C108 O109 1.244 . S
C108 O132 1.257 . S
O109 C108 1.244 . S
O110 Zn102 2.019 1_556 S
O110 C130 1.257 1_556 S
Zn111 N107 2.020 . S
Zn111 O118 1.975 . S
Zn111 N127 2.119 . S
Zn111 O132 2.019 . S
N112 Zn102 2.119 1_556 S
N112 C114 1.334 . S
N112 C115 1.328 . S
C113 C114 1.391 . S
C113 N116 1.329 . S
C113 H134 0.930 . S
C114 N112 1.334 . S
C114 C113 1.391 . S
C114 H121 0.930 . S
C115 N112 1.328 . S
C115 C117 1.392 . S
C115 H122 0.930 . S
N116 C113 1.329 . S
N116 C117 1.331 . S
C117 C115 1.392 . S
C117 N116 1.331 . S
O118 Zn111 1.975 . S
O118 C119 1.252 . S
C119 O118 1.252 . S
C119 O120 1.252 . S
O120 Zn102 1.975 . S
O120 C119 1.252 . S
H121 C114 0.930 . S
H122 C115 0.930 . S
C123 C124 1.392 . S
C123 N127 1.328 . S
C123 H129 0.930 . S
C124 C123 1.392 . S
C124 N128 1.331 . S
C125 C126 1.391 . S
C125 N128 1.329 . S
C125 H135 0.930 . S
C126 C125 1.391 . S
C126 N127 1.334 . S
C126 H133 0.930 . S
N127 Zn111 2.119 . S
N127 C123 1.328 . S
N127 C126 1.334 . S
N128 C124 1.331 . S
N128 C125 1.329 . S
H129 C123 0.930 . S
C130 O110 1.257 1_554 S
C130 O131 1.244 . S
O131 C130 1.244 . S
O132 C108 1.257 . S
O132 Zn111 2.019 . S
H133 C126 0.930 . S
H134 C113 0.930 . S
H135 C125 0.930 . S
Zn136 N140 2.020 . S
Zn136 O144 2.019 . S
Zn136 N146 2.119 . S
Zn136 O154 1.975 . S
C137 N138 1.334 . S
C137 N141 1.336 . S
N138 C137 1.334 . S
N138 C139 1.334 . S
C139 N138 1.334 . S
C139 N140 1.336 . S
N140 Zn136 2.020 . S
N140 C139 1.336 . S
N140 N141 1.354 . S
N141 C137 1.336 . S
N141 N140 1.354 . S
N141 Zn145 2.020 . S
C142 O143 1.244 . S
C142 O166 1.257 . S
O143 C142 1.244 . S
O144 Zn136 2.019 . S
O144 C164 1.257 . S
Zn145 N141 2.020 . S
Zn145 O152 1.975 . S
Zn145 N161 2.119 . S
Zn145 O166 2.019 . S
N146 Zn136 2.119 . S
N146 C148 1.334 . S
N146 C149 1.328 . S
C147 C148 1.391 . S
C147 N150 1.329 . S
C147 H168 0.930 . S
C148 N146 1.334 . S
C148 C147 1.391 . S
C148 H155 0.930 . S
C149 N146 1.328 . S
C149 C151 1.392 . S
C149 H156 0.930 . S
N150 C147 1.329 . S
N150 C151 1.331 . S
C151 C149 1.392 . S
C151 N150 1.331 . S
O152 Zn145 1.975 . S
O152 C153 1.252 . S
C153 O152 1.252 . S
C153 O154 1.252 . S
O154 Zn136 1.975 . S
O154 C153 1.252 . S
H155 C148 0.930 . S
H156 C149 0.930 . S
C157 C158 1.392 . S
C157 N161 1.328 . S
C157 H163 0.930 . S
C158 C157 1.392 . S
C158 N162 1.331 . S
C159 C160 1.391 . S
C159 N162 1.329 . S
C159 H169 0.930 . S
C160 C159 1.391 . S
C160 N161 1.334 . S
C160 H167 0.930 . S
N161 Zn145 2.119 . S
N161 C157 1.328 . S
N161 C160 1.334 . S
N162 C158 1.331 . S
N162 C159 1.329 . S
H163 C157 0.930 . S
C164 O144 1.257 . S
C164 O165 1.244 . S
O165 C164 1.244 . S
O166 C142 1.257 . S
O166 Zn145 2.019 . S
H167 C160 0.930 . S
H168 C147 0.930 . S
H169 C159 0.930 . S
Zn170 N174 2.020 . S
Zn170 O178 2.019 . S
Zn170 N180 2.119 . S
Zn170 O188 1.975 . S
C171 N172 1.334 . S
C171 N175 1.336 . S
N172 C171 1.334 . S
N172 C173 1.334 . S
C173 N172 1.334 . S
C173 N174 1.336 . S
N174 Zn170 2.020 . S
N174 C173 1.336 . S
N174 N175 1.354 . S
N175 C171 1.336 . S
N175 N174 1.354 . S
N175 Zn179 2.020 . S
C176 O177 1.244 . S
C176 O200 1.257 . S
O177 C176 1.244 . S
O178 Zn170 2.019 . S
O178 C198 1.257 . S
Zn179 N175 2.020 . S
Zn179 O186 1.975 . S
Zn179 N195 2.119 . S
Zn179 O200 2.019 . S
N180 Zn170 2.119 . S
N180 C182 1.334 . S
N180 C183 1.328 . S
C181 C182 1.391 . S
C181 N184 1.329 . S
C181 H202 0.930 . S
C182 N180 1.334 . S
C182 C181 1.391 . S
C182 H189 0.930 . S
C183 N180 1.328 . S
C183 C185 1.392 . S
C183 H190 0.930 . S
N184 C181 1.329 . S
N184 C185 1.331 . S
C185 C183 1.392 . S
C185 N184 1.331 . S
O186 Zn179 1.975 . S
O186 C187 1.252 . S
C187 O186 1.252 . S
C187 O188 1.252 . S
O188 Zn170 1.975 . S
O188 C187 1.252 . S
H189 C182 0.930 . S
H190 C183 0.930 . S
C191 C192 1.392 . S
C191 N195 1.328 . S
C191 H197 0.930 . S
C192 C191 1.392 . S
C192 N196 1.331 . S
C193 C194 1.391 . S
C193 N196 1.329 . S
C193 H203 0.930 . S
C194 C193 1.391 . S
C194 N195 1.334 . S
C194 H201 0.930 . S
N195 Zn179 2.119 . S
N195 C191 1.328 . S
N195 C194 1.334 . S
N196 C192 1.331 . S
N196 C193 1.329 . S
H197 C191 0.930 . S
C198 O178 1.257 . S
C198 O199 1.244 . S
O199 C198 1.244 . S
O200 C176 1.257 . S
O200 Zn179 2.019 . S
H201 C194 0.930 . S
H202 C181 0.930 . S
H203 C193 0.930 . S
Zn204 N208 2.020 . S
Zn204 O212 2.019 . S
Zn204 N214 2.119 . S
Zn204 O222 1.975 . S
C205 N206 1.334 . S
C205 N209 1.336 . S
N206 C205 1.334 . S
N206 C207 1.334 . S
C207 N206 1.334 . S
C207 N208 1.336 . S
N208 Zn204 2.020 . S
N208 C207 1.336 . S
N208 N209 1.354 . S
N209 C205 1.336 . S
N209 N208 1.354 . S
N209 Zn213 2.020 . S
C210 O211 1.244 . S
C210 O234 1.257 . S
O211 C210 1.244 . S
O212 Zn204 2.019 . S
O212 C232 1.257 . S
Zn213 N209 2.020 . S
Zn213 O220 1.975 . S
Zn213 N229 2.119 . S
Zn213 O234 2.019 . S
N214 Zn204 2.119 . S
N214 C216 1.334 . S
N214 C217 1.328 . S
C215 C216 1.391 . S
C215 N218 1.329 . S
C215 H236 0.930 . S
C216 N214 1.334 . S
C216 C215 1.391 . S
C216 H223 0.930 . S
C217 N214 1.328 . S
C217 C219 1.392 . S
C217 H224 0.930 . S
N218 C215 1.329 . S
N218 C219 1.331 . S
C219 C217 1.392 . S
C219 N218 1.331 . S
O220 Zn213 1.975 . S
O220 C221 1.252 . S
C221 O220 1.252 . S
C221 O222 1.252 . S
O222 Zn204 1.975 . S
O222 C221 1.252 . S
H223 C216 0.930 . S
H224 C217 0.930 . S
C225 C226 1.392 . S
C225 N229 1.328 . S
C225 H231 0.930 . S
C226 C225 1.392 . S
C226 N230 1.331 . S
C227 C228 1.391 . S
C227 N230 1.329 . S
C227 H237 0.930 . S
C228 C227 1.391 . S
C228 N229 1.334 . S
C228 H235 0.930 . S
N229 Zn213 2.119 . S
N229 C225 1.328 . S
N229 C228 1.334 . S
N230 C226 1.331 . S
N230 C227 1.329 . S
H231 C225 0.930 . S
C232 O212 1.257 . S
C232 O233 1.244 . S
O233 C232 1.244 . S
O234 C210 1.257 . S
O234 Zn213 2.019 . S
H235 C228 0.930 . S
H236 C215 0.930 . S
H237 C227 0.930 . S
Zn238 N242 2.020 . S
Zn238 O246 2.019 . S
Zn238 N248 2.119 . S
Zn238 O256 1.975 . S
C239 N240 1.334 . S
C239 N243 1.336 . S
N240 C239 1.334 . S
N240 C241 1.334 . S
C241 N240 1.334 . S
C241 N242 1.336 . S
N242 Zn238 2.020 . S
N242 C241 1.336 . S
N242 N243 1.354 . S
N243 C239 1.336 . S
N243 N242 1.354 . S
N243 Zn247 2.020 . S
C244 O245 1.244 . S
C244 O268 1.257 . S
O245 C244 1.244 . S
O246 Zn238 2.019 . S
O246 C266 1.257 . S
Zn247 N243 2.020 . S
Zn247 O254 1.975 . S
Zn247 N263 2.119 . S
Zn247 O268 2.019 . S
N248 Zn238 2.119 . S
N248 C250 1.334 . S
N248 C251 1.328 . S
C249 C250 1.391 . S
C249 N252 1.329 . S
C249 H270 0.930 . S
C250 N248 1.334 . S
C250 C249 1.391 . S
C250 H257 0.930 . S
C251 N248 1.328 . S
C251 C253 1.392 . S
C251 H258 0.930 . S
N252 C249 1.329 . S
N252 C253 1.331 . S
C253 C251 1.392 . S
C253 N252 1.331 . S
O254 Zn247 1.975 . S
O254 C255 1.252 . S
C255 O254 1.252 . S
C255 O256 1.252 . S
O256 Zn238 1.975 . S
O256 C255 1.252 . S
H257 C250 0.930 . S
H258 C251 0.930 . S
C259 C260 1.392 . S
C259 N263 1.328 . S
C259 H265 0.930 . S
C260 C259 1.392 . S
C260 N264 1.331 . S
C261 C262 1.391 . S
C261 N264 1.329 . S
C261 H271 0.930 . S
C262 C261 1.391 . S
C262 N263 1.334 . S
C262 H269 0.930 . S
N263 Zn247 2.119 . S
N263 C259 1.328 . S
N263 C262 1.334 . S
N264 C260 1.331 . S
N264 C261 1.329 . S
H265 C259 0.930 . S
C266 O246 1.257 . S
C266 O267 1.244 . S
O267 C266 1.244 . S
O268 C244 1.257 . S
O268 Zn247 2.019 . S
H269 C262 0.930 . S
H270 C249 0.930 . S
H271 C261 0.930 . S
H272 C278 0.930 . S
H273 C281 0.930 . S
H274 C282 0.930 . S
H275 C283 0.930 . S
H276 C286 0.930 . S
H277 C287 0.930 . S
C278 H272 0.930 . S
C278 C279 1.355 . S
C278 C280 1.415 . S
C279 C278 1.355 . S
C279 C281 1.419 . S
C280 C278 1.415 . S
C280 C285 1.425 . S
C280 C287 1.409 . S
C281 H273 0.930 . S
C281 C279 1.419 . S
C281 C282 1.362 . S
C282 H274 0.930 . S
C282 C281 1.362 . S
C282 C285 1.409 . S
C283 H275 0.930 . S
C283 C284 1.355 . S
C283 C285 1.415 . S
C284 C283 1.355 . S
C284 C286 1.419 . S
C285 C280 1.425 . S
C285 C282 1.409 . S
C285 C283 1.415 . S
C286 H276 0.930 . S
C286 C284 1.419 . S
C286 C287 1.362 . S
C287 H277 0.930 . S
C287 C280 1.409 . S
C287 C286 1.362 . S
H288 C294 0.930 . S
H289 C297 0.930 . S
H290 C298 0.930 . S
H291 C299 0.930 . S
H292 C302 0.930 . S
H293 C303 0.930 . S
C294 H288 0.930 . S
C294 C295 1.355 . S
C294 C296 1.415 . S
C295 C294 1.355 . S
C295 C297 1.419 . S
C296 C294 1.415 . S
C296 C301 1.425 . S
C296 C303 1.409 . S
C297 H289 0.930 . S
C297 C295 1.419 . S
C297 C298 1.362 . S
C298 H290 0.930 . S
C298 C297 1.362 . S
C298 C301 1.409 . S
C299 H291 0.930 . S
C299 C300 1.355 . S
C299 C301 1.415 . S
C300 C299 1.355 . S
C300 C302 1.419 . S
C301 C296 1.425 . S
C301 C298 1.409 . S
C301 C299 1.415 . S
C302 H292 0.930 . S
C302 C300 1.419 . S
C302 C303 1.362 . S
C303 H293 0.930 . S
C303 C296 1.409 . S
C303 C302 1.362 . S
H304 C310 0.930 . S
H305 C313 0.930 . S
H306 C314 0.930 . S
H307 C315 0.930 . S
H308 C318 0.930 . S
H309 C319 0.930 . S
C310 H304 0.930 . S
C310 C311 1.355 . S
C310 C312 1.415 . S
C311 C310 1.355 . S
C311 C313 1.419 . S
C312 C310 1.415 . S
C312 C317 1.425 . S
C312 C319 1.409 . S
C313 H305 0.930 . S
C313 C311 1.419 . S
C313 C314 1.362 . S
C314 H306 0.930 . S
C314 C313 1.362 . S
C314 C317 1.409 . S
C315 H307 0.930 . S
C315 C316 1.355 . S
C315 C317 1.415 . S
C316 C315 1.355 . S
C316 C318 1.419 . S
C317 C312 1.425 . S
C317 C314 1.409 . S
C317 C315 1.415 . S
C318 H308 0.930 . S
C318 C316 1.419 . S
C318 C319 1.362 . S
C319 H309 0.930 . S
C319 C312 1.409 . S
C319 C318 1.362 . S
H320 C326 0.930 . S
H321 C329 0.930 . S
H322 C330 0.930 . S
H323 C331 0.930 . S
H324 C334 0.930 . S
H325 C335 0.930 . S
C326 H320 0.930 . S
C326 C327 1.355 . S
C326 C328 1.415 . S
C327 C326 1.355 . S
C327 C329 1.419 . S
C328 C326 1.415 . S
C328 C333 1.425 . S
C328 C335 1.409 . S
C329 H321 0.930 . S
C329 C327 1.419 . S
C329 C330 1.362 . S
C330 H322 0.930 . S
C330 C329 1.362 . S
C330 C333 1.409 . S
C331 H323 0.930 . S
C331 C332 1.355 . S
C331 C333 1.415 . S
C332 C331 1.355 . S
C332 C334 1.419 . S
C333 C328 1.425 . S
C333 C330 1.409 . S
C333 C331 1.415 . S
C334 H324 0.930 . S
C334 C332 1.419 . S
C334 C335 1.362 . S
C335 H325 0.930 . S
C335 C328 1.409 . S
C335 C334 1.362 . S
H336 C342 0.930 . S
H337 C345 0.930 . S
H338 C346 0.930 . S
H339 C347 0.930 . S
H340 C350 0.930 . S
H341 C351 0.930 . S
C342 H336 0.930 . S
C342 C343 1.355 . S
C342 C344 1.415 . S
C343 C342 1.355 . S
C343 C345 1.419 . S
C344 C342 1.415 . S
C344 C349 1.425 . S
C344 C351 1.409 . S
C345 H337 0.930 . S
C345 C343 1.419 . S
C345 C346 1.362 . S
C346 H338 0.930 . S
C346 C345 1.362 . S
C346 C349 1.409 . S
C347 H339 0.930 . S
C347 C348 1.355 . S
C347 C349 1.415 . S
C348 C347 1.355 . S
C348 C350 1.419 . S
C349 C344 1.425 . S
C349 C346 1.409 . S
C349 C347 1.415 . S
C350 H340 0.930 . S
C350 C348 1.419 . S
C350 C351 1.362 . S
C351 H341 0.930 . S
C351 C344 1.409 . S
C351 C350 1.362 . S
H352 C358 0.930 . S
H353 C361 0.930 . S
H354 C362 0.930 . S
H355 C363 0.930 . S
H356 C366 0.930 . S
H357 C367 0.930 . S
C358 H352 0.930 . S
C358 C359 1.355 . S
C358 C360 1.415 . S
C359 C358 1.355 . S
C359 C361 1.419 . S
C360 C358 1.415 . S
C360 C365 1.425 . S
C360 C367 1.409 . S
C361 H353 0.930 . S
C361 C359 1.419 . S
C361 C362 1.362 . S
C362 H354 0.930 . S
C362 C361 1.362 . S
C362 C365 1.409 . S
C363 H355 0.930 . S
C363 C364 1.355 . S
C363 C365 1.415 . S
C364 C363 1.355 . S
C364 C366 1.419 . S
C365 C360 1.425 . S
C365 C362 1.409 . S
C365 C363 1.415 . S
C366 H356 0.930 . S
C366 C364 1.419 . S
C366 C367 1.362 . S
C367 H357 0.930 . S
C367 C360 1.409 . S
C367 C366 1.362 . S
H368 C374 0.930 . S
H369 C377 0.930 . S
H370 C378 0.930 . S
H371 C379 0.930 . S
H372 C382 0.930 . S
H373 C383 0.930 . S
C374 H368 0.930 . S
C374 C375 1.355 . S
C374 C376 1.415 . S
C375 C374 1.355 . S
C375 C377 1.419 . S
C376 C374 1.415 . S
C376 C381 1.425 . S
C376 C383 1.409 . S
C377 H369 0.930 . S
C377 C375 1.419 . S
C377 C378 1.362 . S
C378 H370 0.930 . S
C378 C377 1.362 . S
C378 C381 1.409 . S
C379 H371 0.930 . S
C379 C380 1.355 . S
C379 C381 1.415 . S
C380 C379 1.355 . S
C380 C382 1.419 . S
C381 C376 1.425 . S
C381 C378 1.409 . S
C381 C379 1.415 . S
C382 H372 0.930 . S
C382 C380 1.419 . S
C382 C383 1.362 . S
C383 H373 0.930 . S
C383 C376 1.409 . S
C383 C382 1.362 . S
H384 C390 0.930 . S
H385 C393 0.930 . S
H386 C394 0.930 . S
H387 C395 0.930 . S
H388 C398 0.930 . S
H389 C399 0.930 . S
C390 H384 0.930 . S
C390 C391 1.355 . S
C390 C392 1.415 . S
C391 C390 1.355 . S
C391 C393 1.419 . S
C392 C390 1.415 . S
C392 C397 1.425 . S
C392 C399 1.409 . S
C393 H385 0.930 . S
C393 C391 1.419 . S
C393 C394 1.362 . S
C394 H386 0.930 . S
C394 C393 1.362 . S
C394 C397 1.409 . S
C395 H387 0.930 . S
C395 C396 1.355 . S
C395 C397 1.415 . S
C396 C395 1.355 . S
C396 C398 1.419 . S
C397 C392 1.425 . S
C397 C394 1.409 . S
C397 C395 1.415 . S
C398 H388 0.930 . S
C398 C396 1.419 . S
C398 C399 1.362 . S
C399 H389 0.930 . S
C399 C392 1.409 . S
C399 C398 1.362 . S
H400 C406 0.930 . S
H401 C409 0.930 1_556 S
H402 C410 0.931 . S
H403 C411 0.930 . S
H404 C414 0.930 . S
H405 C415 0.930 . S
C406 H400 0.930 . S
C406 C407 1.355 . S
C406 C408 1.415 . S
C407 C406 1.355 . S
C407 C409 1.419 . S
C408 C406 1.415 . S
C408 C413 1.425 . S
C408 C415 1.409 . S
C409 H401 0.930 1_554 S
C409 C407 1.419 . S
C409 C410 1.362 1_554 S
C410 H402 0.931 . S
C410 C409 1.362 1_556 S
C410 C413 1.409 1_556 S
C411 H403 0.930 . S
C411 C412 1.355 . S
C411 C413 1.415 1_565 S
C412 C411 1.355 . S
C412 C414 1.419 . S
C413 C408 1.425 . S
C413 C410 1.409 1_554 S
C413 C411 1.415 1_545 S
C414 H404 0.930 . S
C414 C412 1.419 . S
C414 C415 1.362 1_565 S
C415 H405 0.930 . S
C415 C408 1.409 . S
C415 C414 1.362 1_545 S
H416 C422 0.930 . S
H417 C425 0.930 . S
H418 C426 0.930 . S
H419 C427 0.930 . S
H420 C430 0.930 1_455 S
H421 C431 0.930 . S
C422 H416 0.930 . S
C422 C423 1.355 . S
C422 C424 1.415 . S
C423 C422 1.355 . S
C423 C425 1.419 . S
C424 C422 1.415 . S
C424 C429 1.425 . S
C424 C431 1.409 . S
C425 H417 0.930 . S
C425 C423 1.419 . S
C425 C426 1.362 . S
C426 H418 0.930 . S
C426 C425 1.362 . S
C426 C429 1.409 . S
C427 H419 0.930 . S
C427 C428 1.355 1_655 S
C427 C429 1.415 . S
C428 C427 1.355 1_455 S
C428 C430 1.419 1_455 S
C429 C424 1.425 . S
C429 C426 1.409 . S
C429 C427 1.415 . S
C430 H420 0.930 1_655 S
C430 C428 1.419 1_655 S
C430 C431 1.362 . S
C431 H421 0.930 . S
C431 C424 1.409 . S
C431 C430 1.362 . S
H432 C438 0.930 . S
H433 C441 0.930 . S
H434 C442 0.929 . S
H435 C443 0.930 . S
H436 C446 0.930 . S
H437 C447 0.930 . S
C438 H432 0.930 . S
C438 C439 1.355 . S
C438 C440 1.415 . S
C439 C438 1.355 . S
C439 C441 1.419 . S
C440 C438 1.415 . S
C440 C445 1.425 . S
C440 C447 1.409 . S
C441 H433 0.930 . S
C441 C439 1.419 . S
C441 C442 1.362 . S
C442 H434 0.929 . S
C442 C441 1.362 . S
C442 C445 1.409 . S
C443 H435 0.930 . S
C443 C444 1.355 1_565 S
C443 C445 1.415 . S
C444 C443 1.355 1_545 S
C444 C446 1.419 . S
C445 C440 1.425 . S
C445 C442 1.409 . S
C445 C443 1.415 . S
C446 H436 0.930 . S
C446 C444 1.419 . S
C446 C447 1.362 1_545 S
C447 H437 0.930 . S
C447 C440 1.409 . S
C447 C446 1.362 1_565 S
H448 C454 0.930 1_655 S
H449 C457 0.930 . S
H450 C458 0.930 1_556 S
H451 C459 0.930 . S
H452 C462 0.930 . S
H453 C463 0.930 . S
C454 H448 0.930 1_455 S
C454 C455 1.355 1_455 S
C454 C456 1.415 . S
C455 C454 1.355 1_655 S
C455 C457 1.419 . S
C456 C454 1.415 . S
C456 C461 1.425 . S
C456 C463 1.409 . S
C457 H449 0.930 . S
C457 C455 1.419 . S
C457 C458 1.362 1_655 S
C458 H450 0.930 1_554 S
C458 C457 1.362 1_455 S
C458 C461 1.409 . S
C459 H451 0.930 . S
C459 C460 1.355 . S
C459 C461 1.415 . S
C460 C459 1.355 . S
C460 C462 1.419 . S
C461 C456 1.425 . S
C461 C458 1.409 . S
C461 C459 1.415 . S
C462 H452 0.930 . S
C462 C460 1.419 . S
C462 C463 1.362 . S
C463 H453 0.930 . S
C463 C456 1.409 . S
C463 C462 1.362 . S
H464 C470 0.930 . S
H465 C473 0.930 . S
H466 C474 0.930 . S
H467 C475 0.930 . S
H468 C478 0.930 . S
H469 C479 0.930 . S
C470 H464 0.930 . S
C470 C471 1.355 . S
C470 C472 1.415 1_545 S
C471 C470 1.355 . S
C471 C473 1.419 . S
C472 C470 1.415 1_565 S
C472 C477 1.425 . S
C472 C479 1.409 . S
C473 H465 0.930 . S
C473 C471 1.419 . S
C473 C474 1.362 . S
C474 H466 0.930 . S
C474 C473 1.362 . S
C474 C477 1.409 1_545 S
C475 H467 0.930 . S
C475 C476 1.355 . S
C475 C477 1.415 . S
C476 C475 1.355 . S
C476 C478 1.419 . S
C477 C472 1.425 . S
C477 C474 1.409 1_565 S
C477 C475 1.415 . S
C478 H468 0.930 . S
C478 C476 1.419 . S
C478 C479 1.362 . S
C479 H469 0.930 . S
C479 C472 1.409 . S
C479 C478 1.362 . S
H480 C486 0.930 . S
H481 C489 0.930 . S
H482 C490 0.930 . S
H483 C491 0.930 . S
H484 C494 0.930 . S
H485 C495 0.930 . S
C486 H480 0.930 . S
C486 C487 1.355 . S
C486 C488 1.415 1_655 S
C487 C486 1.355 . S
C487 C489 1.419 . S
C488 C486 1.415 1_455 S
C488 C493 1.425 . S
C488 C495 1.409 . S
C489 H481 0.930 . S
C489 C487 1.419 . S
C489 C490 1.362 1_655 S
C490 H482 0.930 . S
C490 C489 1.362 1_455 S
C490 C493 1.409 . S
C491 H483 0.930 . S
C491 C492 1.355 . S
C491 C493 1.415 . S
C492 C491 1.355 . S
C492 C494 1.419 . S
C493 C488 1.425 . S
C493 C490 1.409 . S
C493 C491 1.415 . S
C494 H484 0.930 . S
C494 C492 1.419 . S
C494 C495 1.362 . S
C495 H485 0.930 . S
C495 C488 1.409 . S
C495 C494 1.362 . S
H496 C502 0.930 . S
H497 C505 0.930 . S
H498 C506 0.930 . S
H499 C507 0.930 . S
H500 C510 0.930 . S
H501 C511 0.930 . S
C502 H496 0.930 . S
C502 C503 1.355 . S
C502 C504 1.415 . S
C503 C502 1.355 . S
C503 C505 1.419 . S
C504 C502 1.415 . S
C504 C509 1.425 . S
C504 C511 1.409 . S
C505 H497 0.930 . S
C505 C503 1.419 . S
C505 C506 1.362 . S
C506 H498 0.930 . S
C506 C505 1.362 . S
C506 C509 1.409 . S
C507 H499 0.930 . S
C507 C508 1.355 . S
C507 C509 1.415 1_565 S
C508 C507 1.355 . S
C508 C510 1.419 . S
C509 C504 1.425 . S
C509 C506 1.409 . S
C509 C507 1.415 1_545 S
C510 H500 0.930 . S
C510 C508 1.419 . S
C510 C511 1.362 1_565 S
C511 H501 0.930 . S
C511 C504 1.409 . S
C511 C510 1.362 1_545 S
H512 C518 0.930 . S
H513 C521 0.930 . S
H514 C522 0.930 . S
H515 C523 0.930 . S
H516 C526 0.930 . S
H517 C527 0.930 . S
C518 H512 0.930 . S
C518 C519 1.355 . S
C518 C520 1.415 1_455 S
C519 C518 1.355 . S
C519 C521 1.419 . S
C520 C518 1.415 1_655 S
C520 C525 1.425 . S
C520 C527 1.409 . S
C521 H513 0.930 . S
C521 C519 1.419 . S
C521 C522 1.362 . S
C522 H514 0.930 . S
C522 C521 1.362 . S
C522 C525 1.409 1_455 S
C523 H515 0.930 . S
C523 C524 1.355 . S
C523 C525 1.415 . S
C524 C523 1.355 . S
C524 C526 1.419 . S
C525 C520 1.425 . S
C525 C522 1.409 1_655 S
C525 C523 1.415 . S
C526 H516 0.930 . S
C526 C524 1.419 . S
C526 C527 1.362 . S
C527 H517 0.930 . S
C527 C520 1.409 . S
C527 C526 1.362 . S
H528 C534 0.930 . S
H529 C537 0.930 . S
H530 C538 0.930 . S
H531 C539 0.930 . S
H532 C542 0.930 . S
H533 C543 0.930 . S
C534 H528 0.930 . S
C534 C535 1.355 . S
C534 C536 1.415 . S
C535 C534 1.355 . S
C535 C537 1.419 . S
C536 C534 1.415 . S
C536 C541 1.425 . S
C536 C543 1.409 . S
C537 H529 0.930 . S
C537 C535 1.419 . S
C537 C538 1.362 . S
C538 H530 0.930 . S
C538 C537 1.362 . S
C538 C541 1.409 . S
C539 H531 0.930 . S
C539 C540 1.355 . S
C539 C541 1.415 . S
C540 C539 1.355 . S
C540 C542 1.419 . S
C541 C536 1.425 . S
C541 C538 1.409 . S
C541 C539 1.415 . S
C542 H532 0.930 . S
C542 C540 1.419 . S
C542 C543 1.362 . S
C543 H533 0.930 . S
C543 C536 1.409 . S
C543 C542 1.362 . S
H544 C550 0.930 . S
H545 C553 0.930 . S
H546 C554 0.930 . S
H547 C555 0.930 . S
H548 C558 0.930 . S
H549 C559 0.930 . S
C550 H544 0.930 . S
C550 C551 1.355 . S
C550 C552 1.415 . S
C551 C550 1.355 . S
C551 C553 1.419 . S
C552 C550 1.415 . S
C552 C557 1.425 . S
C552 C559 1.409 . S
C553 H545 0.930 . S
C553 C551 1.419 . S
C553 C554 1.362 . S
C554 H546 0.930 . S
C554 C553 1.362 . S
C554 C557 1.409 . S
C555 H547 0.930 . S
C555 C556 1.355 . S
C555 C557 1.415 . S
C556 C555 1.355 . S
C556 C558 1.419 . S
C557 C552 1.425 . S
C557 C554 1.409 . S
C557 C555 1.415 . S
C558 H548 0.930 . S
C558 C556 1.419 . S
C558 C559 1.362 . S
C559 H549 0.930 . S
C559 C552 1.409 . S
C559 C558 1.362 . S
H560 C566 0.930 . S
H561 C569 0.930 . S
H562 C570 0.930 . S
H563 C571 0.930 . S
H564 C574 0.930 . S
H565 C575 0.930 . S
C566 H560 0.930 . S
C566 C567 1.355 . S
C566 C568 1.415 . S
C567 C566 1.355 . S
C567 C569 1.419 . S
C568 C566 1.415 . S
C568 C573 1.425 . S
C568 C575 1.409 . S
C569 H561 0.930 . S
C569 C567 1.419 . S
C569 C570 1.362 . S
C570 H562 0.930 . S
C570 C569 1.362 . S
C570 C573 1.409 . S
C571 H563 0.930 . S
C571 C572 1.355 . S
C571 C573 1.415 . S
C572 C571 1.355 . S
C572 C574 1.419 . S
C573 C568 1.425 . S
C573 C570 1.409 . S
C573 C571 1.415 . S
C574 H564 0.930 . S
C574 C572 1.419 . S
C574 C575 1.362 . S
C575 H565 0.930 . S
C575 C568 1.409 . S
C575 C574 1.362 . S
H576 C582 0.930 . S
H577 C585 0.930 . S
H578 C586 0.930 . S
H579 C587 0.930 . S
H580 C590 0.930 . S
H581 C591 0.930 . S
C582 H576 0.930 . S
C582 C583 1.355 . S
C582 C584 1.415 . S
C583 C582 1.355 . S
C583 C585 1.419 . S
C584 C582 1.415 . S
C584 C589 1.425 . S
C584 C591 1.409 . S
C585 H577 0.930 . S
C585 C583 1.419 . S
C585 C586 1.362 . S
C586 H578 0.930 . S
C586 C585 1.362 . S
C586 C589 1.409 . S
C587 H579 0.930 . S
C587 C588 1.355 . S
C587 C589 1.415 . S
C588 C587 1.355 . S
C588 C590 1.419 . S
C589 C584 1.425 . S
C589 C586 1.409 . S
C589 C587 1.415 . S
C590 H580 0.930 . S
C590 C588 1.419 . S
C590 C591 1.362 . S
C591 H581 0.930 . S
C591 C584 1.409 . S
C591 C590 1.362 . S
H592 C598 0.930 . S
H593 C601 0.930 . S
H594 C602 0.930 . S
H595 C603 0.930 . S
H596 C606 0.929 . S
H597 C607 0.930 . S
C598 H592 0.930 . S
C598 C599 1.355 . S
C598 C600 1.415 . S
C599 C598 1.355 . S
C599 C601 1.419 . S
C600 C598 1.415 . S
C600 C605 1.425 . S
C600 C607 1.409 . S
C601 H593 0.930 . S
C601 C599 1.419 . S
C601 C602 1.362 . S
C602 H594 0.930 . S
C602 C601 1.362 . S
C602 C605 1.409 . S
C603 H595 0.930 . S
C603 C604 1.353 . S
C603 C605 1.415 . S
C604 C603 1.353 . S
C604 C606 1.420 . S
C605 C600 1.425 . S
C605 C602 1.409 . S
C605 C603 1.415 . S
C606 H596 0.929 . S
C606 C604 1.420 . S
C606 C607 1.362 . S
C607 H597 0.930 . S
C607 C600 1.409 . S
C607 C606 1.362 . S
H608 C614 0.930 . S
H609 C617 0.930 . S
H610 C618 0.930 . S
H611 C619 0.930 . S
H612 C622 0.930 . S
H613 C623 0.930 . S
C614 H608 0.930 . S
C614 C615 1.355 . S
C614 C616 1.415 . S
C615 C614 1.355 . S
C615 C617 1.419 . S
C616 C614 1.415 . S
C616 C621 1.425 . S
C616 C623 1.409 . S
C617 H609 0.930 . S
C617 C615 1.419 . S
C617 C618 1.362 . S
C618 H610 0.930 . S
C618 C617 1.362 . S
C618 C621 1.409 . S
C619 H611 0.930 . S
C619 C620 1.355 . S
C619 C621 1.415 . S
C620 C619 1.355 . S
C620 C622 1.419 . S
C621 C616 1.425 . S
C621 C618 1.409 . S
C621 C619 1.415 . S
C622 H612 0.930 . S
C622 C620 1.419 . S
C622 C623 1.362 . S
C623 H613 0.930 . S
C623 C616 1.409 . S
C623 C622 1.362 . S
H624 C630 0.930 1_556 S
H625 C633 0.930 . S
H626 C634 0.930 . S
H627 C635 0.930 . S
H628 C638 0.930 . S
H629 C639 0.930 . S
C630 H624 0.930 1_554 S
C630 C631 1.355 . S
C630 C632 1.415 . S
C631 C630 1.355 . S
C631 C633 1.419 . S
C632 C630 1.415 . S
C632 C637 1.425 . S
C632 C639 1.409 1_554 S
C633 H625 0.930 . S
C633 C631 1.419 . S
C633 C634 1.362 . S
C634 H626 0.930 . S
C634 C633 1.362 . S
C634 C637 1.409 . S
C635 H627 0.930 . S
C635 C636 1.355 . S
C635 C637 1.415 . S
C636 C635 1.355 . S
C636 C638 1.419 1_554 S
C637 C632 1.425 . S
C637 C634 1.409 . S
C637 C635 1.415 . S
C638 H628 0.930 . S
C638 C636 1.419 1_556 S
C638 C639 1.362 . S
C639 H629 0.930 . S
C639 C632 1.409 1_556 S
C639 C638 1.362 . S
H640 C646 0.930 . S
H641 C649 0.930 . S
H642 C650 0.930 . S
H643 C651 0.930 . S
H644 C654 0.930 . S
H645 C655 0.930 . S
C646 H640 0.930 . S
C646 C647 1.355 1_556 S
C646 C648 1.415 . S
C647 C646 1.355 1_554 S
C647 C649 1.419 . S
C648 C646 1.415 . S
C648 C653 1.425 1_556 S
C648 C655 1.409 . S
C649 H641 0.930 . S
C649 C647 1.419 . S
C649 C650 1.362 . S
C650 H642 0.930 . S
C650 C649 1.362 . S
C650 C653 1.409 . S
C651 H643 0.930 . S
C651 C652 1.355 1_554 S
C651 C653 1.415 . S
C652 C651 1.355 1_556 S
C652 C654 1.419 . S
C653 C648 1.425 1_554 S
C653 C650 1.409 . S
C653 C651 1.415 . S
C654 H644 0.930 . S
C654 C652 1.419 . S
C654 C655 1.362 . S
C655 H645 0.930 . S
C655 C648 1.409 . S
C655 C654 1.362 . S
H656 C662 0.930 . S
H657 C665 0.930 . S
H658 C666 0.930 . S
H659 C667 0.930 . S
H660 C670 0.930 . S
H661 C671 0.930 . S
C662 H656 0.930 . S
C662 C663 1.355 . S
C662 C664 1.415 . S
C663 C662 1.355 . S
C663 C665 1.419 . S
C664 C662 1.415 . S
C664 C669 1.425 1_655 S
C664 C671 1.409 . S
C665 H657 0.930 . S
C665 C663 1.419 . S
C665 C666 1.362 1_655 S
C666 H658 0.930 . S
C666 C665 1.362 1_455 S
C666 C669 1.409 . S
C667 H659 0.930 . S
C667 C668 1.355 . S
C667 C669 1.415 . S
C668 C667 1.355 . S
C668 C670 1.419 . S
C669 C664 1.425 1_455 S
C669 C666 1.409 . S
C669 C667 1.415 . S
C670 H660 0.930 . S
C670 C668 1.419 . S
C670 C671 1.362 1_455 S
C671 H661 0.930 . S
C671 C664 1.409 . S
C671 C670 1.362 1_655 S
H672 C678 0.930 1_556 S
H673 C681 0.930 . S
H674 C682 0.930 . S
H675 C683 0.930 . S
H676 C686 0.930 . S
H677 C687 0.930 1_556 S
C678 H672 0.930 1_554 S
C678 C679 1.355 . S
C678 C680 1.415 . S
C679 C678 1.355 . S
C679 C681 1.419 . S
C680 C678 1.415 . S
C680 C685 1.425 1_565 S
C680 C687 1.409 . S
C681 H673 0.930 . S
C681 C679 1.419 . S
C681 C682 1.362 1_565 S
C682 H674 0.930 . S
C682 C681 1.362 1_545 S
C682 C685 1.409 . S
C683 H675 0.930 . S
C683 C684 1.355 . S
C683 C685 1.415 . S
C684 C683 1.355 . S
C684 C686 1.419 . S
C685 C680 1.425 1_545 S
C685 C682 1.409 . S
C685 C683 1.415 . S
C686 H676 0.930 . S
C686 C684 1.419 . S
C686 C687 1.362 1_545 S
C687 H677 0.930 1_554 S
C687 C680 1.409 . S
C687 C686 1.362 1_565 S
H688 C694 0.930 . S
H689 C697 0.930 . S
H690 C698 0.930 1_455 S
H691 C699 0.930 . S
H692 C702 0.930 . S
H693 C703 0.930 . S
C694 H688 0.930 . S
C694 C695 1.355 . S
C694 C696 1.415 . S
C695 C694 1.355 . S
C695 C697 1.419 . S
C696 C694 1.415 . S
C696 C701 1.425 1_655 S
C696 C703 1.409 . S
C697 H689 0.930 . S
C697 C695 1.419 . S
C697 C698 1.362 . S
C698 H690 0.930 1_655 S
C698 C697 1.362 . S
C698 C701 1.409 1_655 S
C699 H691 0.930 . S
C699 C700 1.355 . S
C699 C701 1.415 . S
C700 C699 1.355 . S
C700 C702 1.419 . S
C701 C696 1.425 1_455 S
C701 C698 1.409 1_455 S
C701 C699 1.415 . S
C702 H692 0.930 . S
C702 C700 1.419 . S
C702 C703 1.362 1_455 S
C703 H693 0.930 . S
C703 C696 1.409 . S
C703 C702 1.362 1_655 S
H704 C710 0.930 . S
H705 C713 0.930 . S
H706 C714 0.930 . S
H707 C715 0.930 . S
H708 C718 0.930 . S
H709 C719 0.930 . S
C710 H704 0.930 . S
C710 C711 1.355 . S
C710 C712 1.415 . S
C711 C710 1.355 . S
C711 C713 1.419 . S
C712 C710 1.415 . S
C712 C717 1.425 1_545 S
C712 C719 1.409 . S
C713 H705 0.930 . S
C713 C711 1.419 . S
C713 C714 1.362 1_545 S
C714 H706 0.930 . S
C714 C713 1.362 1_565 S
C714 C717 1.409 . S
C715 H707 0.930 . S
C715 C716 1.355 . S
C715 C717 1.415 . S
C716 C715 1.355 . S
C716 C718 1.419 . S
C717 C712 1.425 1_565 S
C717 C714 1.409 . S
C717 C715 1.415 . S
C718 H708 0.930 . S
C718 C716 1.419 . S
C718 C719 1.362 1_565 S
C719 H709 0.930 . S
C719 C712 1.409 . S
C719 C718 1.362 1_545 S
C279 C192 1.881 . S
C284 C22 1.707 . S
C295 C49 1.865 . S
C300 C219 1.828 . S
C311 C253 2.033 . S
C316 C83 1.753 . S
C327 C158 1.652 . S
C332 C124 1.598 . S
C343 C90 1.884 . S
C348 C260 1.710 . S
C359 C151 1.851 . S
C364 C117 1.859 . S
C375 C15 2.028 . S
C380 C185 1.745 . S
C391 C56 1.652 . S
C396 C226 1.601 . S
C407 C17 1.663 . S
C412 C103 1.492 . S
C423 C51 1.349 . S
C428 C6 1.353 . S
C439 C85 0.631 . S
C444 C62 0.645 . S
C455 C96 0.531 . S
C460 C108 0.569 . S
C471 C171 0.860 . S
C476 C142 0.719 . S
C487 C232 0.423 . S
C492 C176 0.537 . S
C503 C221 1.417 . S
C508 C241 1.203 . S
C519 C137 1.302 . S
C524 C266 1.377 . S
C535 C255 1.651 . S
C540 C205 1.373 . S
C551 C153 1.360 . S
C556 C244 1.361 . S
C567 C164 0.648 . S
C572 C187 0.664 . S
C583 C198 0.558 . S
C588 C210 0.521 . S
C599 C69 0.681 . S
C604 C40 0.836 . S
C615 C74 0.372 . S
C620 C130 0.397 . S
C631 C3 1.288 . S
C636 C119 1.410 . S
C647 C28 1.400 . S
C652 C35 1.304 . S
C663 C71 2.435 . S
C668 C1 2.414 . S
C679 C105 2.255 . S
C684 C37 2.256 . S
C695 C207 2.316 . S
C700 C139 2.269 . S
C711 C173 2.386 . S
C716 C239 2.429 . S
