# Generated by pormake.
# Topology fnq, (5)-cn, num edge types: 1
# Building blocks:
#     Node 0, Type 0, BuildingBlock: BEQFEK_clean_sbu_0, # of connection points: 5
#     Node 1, Type 0, BuildingBlock: BEQFEK_clean_sbu_0, # of connection points: 5
#     Node 2, Type 0, BuildingBlock: BEQFEK_clean_sbu_0, # of connection points: 5
#     Node 3, Type 0, BuildingBlock: BEQFEK_clean_sbu_0, # of connection points: 5
#     Node 4, Type 0, BuildingBlock: BEQFEK_clean_sbu_0, # of connection points: 5
#     Node 5, Type 0, BuildingBlock: BEQFEK_clean_sbu_0, # of connection points: 5
#     Node 6, Type 0, BuildingBlock: BEQFEK_clean_sbu_0, # of connection points: 5
#     Node 7, Type 0, BuildingBlock: BEQFEK_clean_sbu_0, # of connection points: 5
#     Node 8, Type 0, BuildingBlock: BEQFEK_clean_sbu_0, # of connection points: 5
#     Node 9, Type 0, BuildingBlock: BEQFEK_clean_sbu_0, # of connection points: 5
#     Node 10, Type 0, BuildingBlock: BEQFEK_clean_sbu_0, # of connection points: 5
#     Node 11, Type 0, BuildingBlock: BEQFEK_clean_sbu_0, # of connection points: 5
#     Node 12, Type 0, BuildingBlock: BEQFEK_clean_sbu_0, # of connection points: 5
#     Node 13, Type 0, BuildingBlock: BEQFEK_clean_sbu_0, # of connection points: 5
#     Node 14, Type 0, BuildingBlock: BEQFEK_clean_sbu_0, # of connection points: 5
#     Node 15, Type 0, BuildingBlock: BEQFEK_clean_sbu_0, # of connection points: 5
#     Node 16, Type 0, BuildingBlock: BEQFEK_clean_sbu_0, # of connection points: 5
#     Node 17, Type 0, BuildingBlock: BEQFEK_clean_sbu_0, # of connection points: 5
#     Edge 18, Type (0, 0), BuildingBlock: AJUNOK_clean_linker_0, # of connection points: 2
#     Edge 19, Type (0, 0), BuildingBlock: AJUNOK_clean_linker_0, # of connection points: 2
#     Edge 20, Type (0, 0), BuildingBlock: AJUNOK_clean_linker_0, # of connection points: 2
#     Edge 21, Type (0, 0), BuildingBlock: AJUNOK_clean_linker_0, # of connection points: 2
#     Edge 22, Type (0, 0), BuildingBlock: AJUNOK_clean_linker_0, # of connection points: 2
#     Edge 23, Type (0, 0), BuildingBlock: AJUNOK_clean_linker_0, # of connection points: 2
#     Edge 24, Type (0, 0), BuildingBlock: AJUNOK_clean_linker_0, # of connection points: 2
#     Edge 25, Type (0, 0), BuildingBlock: AJUNOK_clean_linker_0, # of connection points: 2
#     Edge 26, Type (0, 0), BuildingBlock: AJUNOK_clean_linker_0, # of connection points: 2
#     Edge 27, Type (0, 0), BuildingBlock: AJUNOK_clean_linker_0, # of connection points: 2
#     Edge 28, Type (0, 0), BuildingBlock: AJUNOK_clean_linker_0, # of connection points: 2
#     Edge 29, Type (0, 0), BuildingBlock: AJUNOK_clean_linker_0, # of connection points: 2
#     Edge 30, Type (0, 0), BuildingBlock: AJUNOK_clean_linker_0, # of connection points: 2
#     Edge 31, Type (0, 0), BuildingBlock: AJUNOK_clean_linker_0, # of connection points: 2
#     Edge 32, Type (0, 0), BuildingBlock: AJUNOK_clean_linker_0, # of connection points: 2
#     Edge 33, Type (0, 0), BuildingBlock: AJUNOK_clean_linker_0, # of connection points: 2
#     Edge 34, Type (0, 0), BuildingBlock: AJUNOK_clean_linker_0, # of connection points: 2
#     Edge 35, Type (0, 0), BuildingBlock: AJUNOK_clean_linker_0, # of connection points: 2
#     Edge 36, Type (0, 0), BuildingBlock: AJUNOK_clean_linker_0, # of connection points: 2
#     Edge 37, Type (0, 0), BuildingBlock: AJUNOK_clean_linker_0, # of connection points: 2
#     Edge 38, Type (0, 0), BuildingBlock: AJUNOK_clean_linker_0, # of connection points: 2
#     Edge 39, Type (0, 0), BuildingBlock: AJUNOK_clean_linker_0, # of connection points: 2
#     Edge 40, Type (0, 0), BuildingBlock: AJUNOK_clean_linker_0, # of connection points: 2
#     Edge 41, Type (0, 0), BuildingBlock: AJUNOK_clean_linker_0, # of connection points: 2
#     Edge 42, Type (0, 0), BuildingBlock: AJUNOK_clean_linker_0, # of connection points: 2
#     Edge 43, Type (0, 0), BuildingBlock: AJUNOK_clean_linker_0, # of connection points: 2
#     Edge 44, Type (0, 0), BuildingBlock: AJUNOK_clean_linker_0, # of connection points: 2
#     Edge 45, Type (0, 0), BuildingBlock: AJUNOK_clean_linker_0, # of connection points: 2
#     Edge 46, Type (0, 0), BuildingBlock: AJUNOK_clean_linker_0, # of connection points: 2
#     Edge 47, Type (0, 0), BuildingBlock: AJUNOK_clean_linker_0, # of connection points: 2
#     Edge 48, Type (0, 0), BuildingBlock: AJUNOK_clean_linker_0, # of connection points: 2
#     Edge 49, Type (0, 0), BuildingBlock: AJUNOK_clean_linker_0, # of connection points: 2
#     Edge 50, Type (0, 0), BuildingBlock: AJUNOK_clean_linker_0, # of connection points: 2
#     Edge 51, Type (0, 0), BuildingBlock: AJUNOK_clean_linker_0, # of connection points: 2
#     Edge 52, Type (0, 0), BuildingBlock: AJUNOK_clean_linker_0, # of connection points: 2
#     Edge 53, Type (0, 0), BuildingBlock: AJUNOK_clean_linker_0, # of connection points: 2
#     Edge 54, Type (0, 0), BuildingBlock: AJUNOK_clean_linker_0, # of connection points: 2
#     Edge 55, Type (0, 0), BuildingBlock: AJUNOK_clean_linker_0, # of connection points: 2
#     Edge 56, Type (0, 0), BuildingBlock: AJUNOK_clean_linker_0, # of connection points: 2
#     Edge 57, Type (0, 0), BuildingBlock: AJUNOK_clean_linker_0, # of connection points: 2
#     Edge 58, Type (0, 0), BuildingBlock: AJUNOK_clean_linker_0, # of connection points: 2
#     Edge 59, Type (0, 0), BuildingBlock: AJUNOK_clean_linker_0, # of connection points: 2
#     Edge 60, Type (0, 0), BuildingBlock: AJUNOK_clean_linker_0, # of connection points: 2
#     Edge 61, Type (0, 0), BuildingBlock: AJUNOK_clean_linker_0, # of connection points: 2
#     Edge 62, Type (0, 0), BuildingBlock: AJUNOK_clean_linker_0, # of connection points: 2
# Relax obj value: 0.455
# Max RMSD: 0.234
# Mean RMSD: 0.215
data_MOF--net-fnq--node1-BEQFEK_clean_sbu_0--edge1-AJUNOK_clean_linker_0
_symmetry_space_group_name_H-M    P1
_symmetry_Int_Tables_number       1
_symmetry_cell_setting            triclinic
loop_
_symmetry_equiv_pos_as_xyz
'x, y, z'
_cell_length_a     38.52644
_cell_length_b     38.554673
_cell_length_c     27.520466
_cell_angle_alpha  90.055898
_cell_angle_beta   89.921509
_cell_angle_gamma 119.79597
loop_
_atom_site_label
_atom_site_type_symbol
_atom_site_fract_x
_atom_site_fract_y
_atom_site_fract_z
_atom_type_partial_charge
Co0 Co 0.2489 0.42537 0.15486 0.0
Co1 Co 0.23159 0.33967 0.16769 0.0
C2 C 0.31829 0.41208 0.16325 0.0
O3 O 0.30496 0.43517 0.15112 0.0
O4 O 0.29376 0.37483 0.16962 0.0
C5 C 0.27094 0.50184 0.18194 0.0
O6 O 0.28937 0.49213 0.21465 0.0
C7 C 0.22591 0.27671 0.10984 0.0
C8 C 0.19213 0.22157 0.15298 0.0
C9 C 0.20783 0.23564 0.10716 0.0
N10 N 0.2199 0.28676 0.15429 0.0
N11 N 0.19989 0.2538 0.18034 0.0
C12 C 0.24792 0.30637 0.07033 0.0
H13 H 0.22622 0.30993 0.04746 0.0
H14 H 0.26433 0.29592 0.04682 0.0
H15 H 0.26908 0.33597 0.08603 0.0
C16 C 0.18055 0.38651 0.08231 0.0
N17 N 0.20895 0.38667 0.11182 0.0
N18 N 0.19949 0.34964 0.12099 0.0
C19 C 0.16377 0.32479 0.09958 0.0
C20 C 0.1506 0.34698 0.07304 0.0
C21 C 0.1791 0.42337 0.06919 0.0
H22 H 0.16932 0.43364 0.10143 0.0
H23 H 0.20946 0.44754 0.05898 0.0
H24 H 0.15784 0.41758 0.03898 0.0
O25 O 0.23227 0.40948 0.22418 0.0
O26 O 0.21446 0.34541 0.23338 0.0
H27 H 0.14385 0.27462 0.1476 0.0
H28 H 0.10796 0.26826 0.10128 0.0
C29 C 0.14017 0.2808 0.10917 0.0
H30 H 0.15135 0.26532 0.0856 0.0
H31 H 0.19037 0.25315 0.21602 0.0
O32 O 0.25179 0.47717 0.1482 0.0
C33 C 0.21921 0.37826 0.25055 0.0
Co34 Co 0.68435 0.8302 0.16877 0.0
Co35 Co 0.76697 0.90249 0.16939 0.0
C36 C 0.69072 0.9097 0.16919 0.0
O37 O 0.66954 0.87258 0.16037 0.0
O38 O 0.7285 0.92509 0.17298 0.0
C39 C 0.59973 0.77626 0.16415 0.0
O40 O 0.59544 0.80543 0.14625 0.0
C41 C 0.81579 0.96097 0.10275 0.0
C42 C 0.87598 0.99402 0.1355 0.0
C43 C 0.85424 0.99167 0.09417 0.0
N44 N 0.81459 0.94625 0.14706 0.0
N45 N 0.85049 0.96599 0.1669 0.0
C46 C 0.78092 0.94326 0.0683 0.0
H47 H 0.76156 0.91096 0.07428 0.0
H48 H 0.79098 0.94812 0.02987 0.0
H49 H 0.76191 0.9569 0.07516 0.0
C50 C 0.72224 0.79774 0.09843 0.0
N51 N 0.72115 0.82708 0.12467 0.0
N52 N 0.7573 0.85806 0.12674 0.0
C53 C 0.78253 0.84965 0.1015 0.0
C54 C 0.76142 0.81108 0.08224 0.0
C55 C 0.68706 0.75677 0.09216 0.0
H56 H 0.65959 0.75871 0.0862 0.0
H57 H 0.69173 0.74093 0.06134 0.0
H58 H 0.68279 0.73939 0.12595 0.0
O59 O 0.70633 0.83708 0.23547 0.0
O60 O 0.76923 0.88667 0.23714 0.0
H61 H 0.84244 0.85942 0.09079 0.0
H62 H 0.83475 0.90001 0.07282 0.0
C63 C 0.82698 0.87629 0.10039 0.0
H64 H 0.83771 0.8907 0.13632 0.0
H65 H 0.85771 0.95988 0.20117 0.0
O66 O 0.63417 0.78054 0.17177 0.0
C67 C 0.73874 0.85866 0.25858 0.0
Co68 Co 0.26578 0.8765 0.16013 0.0
Co69 Co 0.1948 0.89011 0.17156 0.0
C70 C 0.18278 0.80524 0.1649 0.0
O71 O 0.21977 0.82049 0.155 0.0
O72 O 0.16822 0.82832 0.17122 0.0
C73 C 0.31412 0.84359 0.17251 0.0
O74 O 0.28509 0.82153 0.20286 0.0
C75 C 0.12479 0.88526 0.13065 0.0
C76 C 0.12161 0.93647 0.16175 0.0
C77 C 0.10455 0.90632 0.12739 0.0
N78 N 0.15273 0.902 0.16514 0.0
N79 N 0.15027 0.93212 0.18456 0.0
C80 C 0.12192 0.85357 0.0966 0.0
H81 H 0.15202 0.85722 0.09034 0.0
H82 H 0.10848 0.85435 0.06127 0.0
H83 H 0.10281 0.82386 0.11345 0.0
C84 C 0.29604 0.94841 0.09355 0.0
N85 N 0.2669 0.91759 0.1194 0.0
N86 N 0.23554 0.92234 0.1225 0.0
C87 C 0.2435 0.9559 0.09735 0.0
C88 C 0.28255 0.97451 0.07857 0.0
C89 C 0.33765 0.95522 0.08864 0.0
H90 H 0.34729 0.94828 0.12351 0.0
H91 H 0.33786 0.93457 0.06067 0.0
H92 H 0.3591 0.98645 0.07794 0.0
O93 O 0.26814 0.89175 0.22952 0.0
O94 O 0.21903 0.90576 0.23786 0.0
H95 H 0.20981 0.98208 0.12461 0.0
H96 H 0.22332 0.99252 0.06112 0.0
C97 C 0.21383 0.96961 0.09013 0.0
H98 H 0.18493 0.94371 0.07945 0.0
H99 H 0.16993 0.95139 0.21083 0.0
O100 O 0.31233 0.87071 0.14833 0.0
C101 C 0.24807 0.90281 0.25572 0.0
Co102 Co 0.44471 0.22627 0.89047 0.0
Co103 Co 0.36107 0.21424 0.87858 0.0
C104 C 0.43552 0.29865 0.88335 0.0
O105 O 0.45682 0.28301 0.89419 0.0
O106 O 0.39784 0.27606 0.87761 0.0
C107 C 0.52272 0.2491 0.86895 0.0
O108 O 0.51489 0.26748 0.83424 0.0
C109 C 0.29804 0.21126 0.93358 0.0
C110 C 0.24351 0.17781 0.88926 0.0
C111 C 0.25694 0.19388 0.9351 0.0
N112 N 0.30862 0.20465 0.88978 0.0
N113 N 0.27607 0.185 0.86294 0.0
C114 C 0.32718 0.23283 0.97373 0.0
H115 H 0.35763 0.25213 0.95894 0.0
H116 H 0.3283 0.21077 0.99857 0.0
H117 H 0.31768 0.25116 0.99504 0.0
C118 C 0.40333 0.15724 0.96112 0.0
N119 N 0.40496 0.18697 0.93288 0.0
N120 N 0.36859 0.18081 0.92647 0.0
C121 C 0.34263 0.14654 0.95016 0.0
C122 C 0.36354 0.13048 0.9738 0.0
C123 C 0.4388 0.15264 0.97213 0.0
H124 H 0.46456 0.18203 0.98244 0.0
H125 H 0.43215 0.13067 1.00174 0.0
H126 H 0.4473 0.14227 0.93891 0.0
O127 O 0.42955 0.20968 0.8214 0.0
O128 O 0.36705 0.19711 0.81244 0.0
H129 H 0.28463 0.09288 0.95126 0.0
H130 H 0.2852 0.13761 0.97026 0.0
C131 C 0.29816 0.12538 0.94404 0.0
H132 H 0.29037 0.12961 0.90664 0.0
H133 H 0.27587 0.17496 0.82765 0.0
O134 O 0.49582 0.22873 0.9 0.0
C135 C 0.39875 0.19915 0.79493 0.0
Co136 Co 0.89361 0.24891 0.89188 0.0
Co137 Co 0.91232 0.18337 0.87204 0.0
C138 C 0.8251 0.16743 0.88699 0.0
O139 O 0.83892 0.20289 0.90257 0.0
O140 O 0.8498 0.15609 0.87409 0.0
C141 C 0.86142 0.2987 0.87899 0.0
O142 O 0.83637 0.26866 0.85174 0.0
C143 C 0.91833 0.12562 0.92708 0.0
C144 C 0.91799 0.08246 0.87402 0.0
C145 C 0.91569 0.08867 0.92327 0.0
N146 N 0.92191 0.14062 0.88241 0.0
N147 N 0.92268 0.1153 0.85061 0.0
C148 C 0.9112 0.14386 0.97175 0.0
H149 H 0.93993 0.16859 0.98499 0.0
H150 H 0.89849 0.12274 1.0025 0.0
H151 H 0.89136 0.15619 0.96287 0.0
C152 C 0.96605 0.28001 0.9588 0.0
N153 N 0.93705 0.25208 0.92979 0.0
N154 N 0.94733 0.22566 0.9171 0.0
C155 C 0.98418 0.23705 0.93568 0.0
C156 C 0.99726 0.27146 0.96402 0.0
C157 C 0.96624 0.31683 0.97617 0.0
H158 H 0.93548 0.30958 0.98637 0.0
H159 H 0.98677 0.33032 1.00751 0.0
H160 H 0.97647 0.33894 0.94614 0.0
O161 O 0.90589 0.24957 0.82041 0.0
O162 O 0.92597 0.20546 0.80639 0.0
H163 H 1.03997 0.23924 0.91905 0.0
H164 H 1.00593 0.19743 0.95478 0.0
C165 C 1.00792 0.21691 0.92404 0.0
H166 H 0.99652 0.19863 0.89062 0.0
H167 H 0.92306 0.11888 0.813 0.0
O168 O 0.88848 0.29593 0.90218 0.0
C169 C 0.91859 0.23242 0.79138 0.0
Co170 Co 0.86641 0.66108 0.89671 0.0
Co171 Co 0.93748 0.74585 0.89175 0.0
C172 C 0.94838 0.67194 0.89558 0.0
O173 O 0.91131 0.65009 0.90452 0.0
O174 O 0.96282 0.70952 0.88996 0.0
C175 C 0.81571 0.58267 0.87187 0.0
O176 O 0.84601 0.59059 0.84312 0.0
C177 C 1.00098 0.80814 0.94565 0.0
C178 C 1.00845 0.86367 0.91274 0.0
C179 C 1.01883 0.84904 0.95285 0.0
N180 N 0.97946 0.79873 0.90468 0.0
N181 N 0.98492 0.83209 0.8842 0.0
C182 C 1.00091 0.7776 0.97937 0.0
H183 H 1.00382 0.75473 0.95826 0.0
H184 H 0.972 0.7623 0.99917 0.0
H185 H 1.02591 0.79141 1.00579 0.0
C186 C 0.83327 0.69873 0.96486 0.0
N187 N 0.86365 0.69878 0.93964 0.0
N188 N 0.89421 0.73528 0.93802 0.0
C189 C 0.88413 0.75962 0.96278 0.0
C190 C 0.84503 0.73756 0.98088 0.0
C191 C 0.79195 0.66338 0.96689 0.0
H192 H 0.78283 0.65023 0.93006 0.0
H193 H 0.79203 0.64027 0.99082 0.0
H194 H 0.76989 0.67154 0.98071 0.0
O195 O 0.86809 0.6782 0.8282 0.0
O196 O 0.91657 0.74158 0.82465 0.0
H197 H 0.91707 0.81771 0.9309 0.0
H198 H 0.89763 0.8178 0.99076 0.0
C199 C 0.91072 0.80382 0.96745 0.0
H200 H 0.93903 0.80989 0.98453 0.0
H201 H 0.97005 0.83304 0.85299 0.0
O202 O 0.81841 0.6092 0.90145 0.0
C203 C 0.88863 0.71039 0.80429 0.0
Co204 Co 0.91014 0.75057 0.49807 0.0
Co205 Co 0.89895 0.66697 0.50768 0.0
C206 C 0.98313 0.742 0.50283 0.0
O207 O 0.96719 0.76325 0.49299 0.0
O208 O 0.9607 0.70427 0.50809 0.0
C209 C 0.93287 0.82948 0.5186 0.0
O210 O 0.95384 0.82353 0.5517 0.0
C211 C 0.8964 0.60587 0.44938 0.0
C212 C 0.86339 0.55003 0.49147 0.0
C213 C 0.87917 0.56489 0.44587 0.0
N214 N 0.88995 0.61504 0.4941 0.0
N215 N 0.87056 0.58169 0.5196 0.0
C216 C 0.9176 0.63624 0.41027 0.0
H217 H 0.89528 0.63815 0.3867 0.0
H218 H 0.93574 0.62748 0.38737 0.0
H219 H 0.93707 0.66619 0.4262 0.0
C220 C 0.8407 0.70957 0.42811 0.0
N221 N 0.87072 0.71107 0.45565 0.0
N222 N 0.86476 0.67474 0.46127 0.0
C223 C 0.83028 0.6489 0.43786 0.0
C224 C 0.81385 0.66987 0.41518 0.0
C225 C 0.83612 0.74513 0.41776 0.0
H226 H 0.82591 0.75345 0.45127 0.0
H227 H 0.8655 0.77089 0.40739 0.0
H228 H 0.81404 0.73873 0.38835 0.0
O229 O 0.8946 0.73439 0.56717 0.0
O230 O 0.88247 0.67193 0.57469 0.0
H231 H 0.77663 0.5909 0.43749 0.0
H232 H 0.82105 0.59168 0.41643 0.0
C233 C 0.8093 0.60443 0.44359 0.0
H234 H 0.8143 0.59645 0.48055 0.0
H235 H 0.8606 0.58032 0.5552 0.0
O236 O 0.91129 0.8013 0.48958 0.0
C237 C 0.88468 0.70342 0.59311 0.0
Co238 Co 0.3554 0.17157 0.49255 0.0
Co239 Co 0.43901 0.24441 0.49478 0.0
C240 C 0.36347 0.25241 0.49143 0.0
O241 O 0.34283 0.21514 0.48325 0.0
O242 O 0.40131 0.26832 0.49627 0.0
C243 C 0.27814 0.12137 0.52021 0.0
O244 O 0.28754 0.15176 0.54936 0.0
C245 C 0.49971 0.30909 0.44047 0.0
C246 C 0.55615 0.31663 0.47068 0.0
C247 C 0.5405 0.32732 0.43189 0.0
N248 N 0.49132 0.28706 0.48091 0.0
N249 N 0.52523 0.29258 0.49984 0.0
C250 C 0.46832 0.3092 0.40847 0.0
H251 H 0.44674 0.31329 0.43088 0.0
H252 H 0.45162 0.27992 0.38973 0.0
H253 H 0.48148 0.33361 0.38123 0.0
C254 C 0.39382 0.13872 0.42527 0.0
N255 N 0.39311 0.16906 0.44956 0.0
N256 N 0.42904 0.20062 0.44937 0.0
C257 C 0.45366 0.1913 0.4239 0.0
C258 C 0.4325 0.15159 0.40765 0.0
C259 C 0.35961 0.0967 0.42554 0.0
H260 H 0.34556 0.08924 0.46207 0.0
H261 H 0.33668 0.09418 0.39921 0.0
H262 H 0.36938 0.07495 0.41571 0.0
O263 O 0.37346 0.17525 0.56071 0.0
O264 O 0.43622 0.22515 0.5627 0.0
H265 H 0.5131 0.22594 0.45154 0.0
H266 H 0.51087 0.2075 0.39047 0.0
C267 C 0.49729 0.21945 0.41621 0.0
H268 H 0.50125 0.24748 0.40058 0.0
H269 H 0.52697 0.27738 0.53025 0.0
O270 O 0.30372 0.12327 0.48957 0.0
C271 C 0.40567 0.19709 0.58397 0.0
Co272 Co 0.93045 0.20971 0.48862 0.0
Co273 Co 0.8583 0.2213 0.49638 0.0
C274 C 0.84929 0.13707 0.49442 0.0
O275 O 0.88645 0.15277 0.48533 0.0
O276 O 0.83392 0.15965 0.49852 0.0
C277 C 0.98331 0.17754 0.47658 0.0
O278 O 0.95173 0.14243 0.469 0.0
C279 C 0.79693 0.22145 0.44128 0.0
C280 C 0.77532 0.25538 0.48425 0.0
C281 C 0.77203 0.23754 0.43943 0.0
N282 N 0.81543 0.23048 0.48425 0.0
N283 N 0.80232 0.2505 0.51028 0.0
C284 C 0.8042 0.1987 0.40219 0.0
H285 H 0.81814 0.18193 0.41735 0.0
H286 H 0.82487 0.21989 0.37463 0.0
H287 H 0.77571 0.17779 0.38379 0.0
C288 C 0.95944 0.27846 0.41786 0.0
N289 N 0.9304 0.24838 0.44462 0.0
N290 N 0.90004 0.25457 0.44939 0.0
C291 C 0.90915 0.28932 0.4263 0.0
C292 C 0.94716 0.30591 0.4049 0.0
C293 C 1.00046 0.28396 0.41166 0.0
H294 H 0.99816 0.25663 0.39513 0.0
H295 H 1.01973 0.31032 0.38879 0.0
H296 H 1.01451 0.28785 0.44792 0.0
O297 O 0.93033 0.2272 0.55681 0.0
O298 O 0.87972 0.23908 0.56241 0.0
H299 H 0.89881 0.33926 0.41418 0.0
H300 H 0.85686 0.29088 0.40427 0.0
C301 C 0.88324 0.30814 0.42778 0.0
H302 H 0.8728 0.30764 0.46546 0.0
H303 H 0.81269 0.26191 0.54495 0.0
O304 O 0.97998 0.20841 0.48281 0.0
C305 C 0.90927 0.23797 0.58157 0.0
Co306 Co 0.11109 0.56309 0.22923 0.0
Co307 Co 1.02637 0.547 0.21162 0.0
C308 C 0.09892 0.6331 0.22027 0.0
O309 O 0.12132 0.61917 0.23315 0.0
O310 O 1.06187 0.60896 0.21189 0.0
C311 C 0.1909 0.58801 0.21291 0.0
O312 O 0.18592 0.61017 0.18052 0.0
C313 C 0.96233 0.54041 0.2676 0.0
C314 C 0.90777 0.50667 0.2235 0.0
C315 C 0.9212 0.52179 0.26968 0.0
N316 N 0.97312 0.53538 0.2231 0.0
N317 N 0.94049 0.51542 0.19644 0.0
C318 C 0.99132 0.56166 0.30798 0.0
H319 H 0.99435 0.53954 0.33063 0.0
H320 H 0.98044 0.57767 0.33154 0.0
H321 H 1.02124 0.58303 0.29322 0.0
C322 C 0.06911 0.49332 0.29881 0.0
N323 N 0.0707 0.52271 0.26994 0.0
N324 N 1.03416 0.51387 0.25878 0.0
C325 C 1.00825 0.47777 0.27854 0.0
C326 C 1.02915 0.46376 0.30604 0.0
C327 C 0.1051 0.49084 0.31367 0.0
H328 H 0.1162 0.48141 0.2819 0.0
H329 H 0.12927 0.52075 0.32528 0.0
H330 H 0.09778 0.46886 0.34345 0.0
O331 O 0.09805 0.54704 0.15936 0.0
O332 O 1.03486 0.53116 0.14639 0.0
H333 H 0.96176 0.45874 0.22514 0.0
H334 H 0.95383 0.42097 0.26967 0.0
C335 C 0.96529 0.45336 0.26393 0.0
H336 H 0.94702 0.46215 0.28605 0.0
H337 H 0.94038 0.50632 0.16069 0.0
O338 O 0.16204 0.5657 0.24073 0.0
C339 C 0.06801 0.53521 0.13108 0.0
Co340 Co 0.56085 0.57366 0.22719 0.0
Co341 Co 0.57422 0.50279 0.21545 0.0
C342 C 0.48949 0.49067 0.22232 0.0
O343 O 0.50555 0.52758 0.23247 0.0
O344 O 0.51201 0.47556 0.21502 0.0
C345 C 0.52547 0.62001 0.21457 0.0
O346 O 0.50236 0.58963 0.18651 0.0
C347 C 0.57068 0.43253 0.2542 0.0
C348 C 0.62349 0.43223 0.22325 0.0
C349 C 0.59296 0.41348 0.2569 0.0
N350 N 0.58711 0.46136 0.22068 0.0
N351 N 0.61816 0.46057 0.20129 0.0
C352 C 0.53838 0.42807 0.28838 0.0
H353 H 0.53955 0.41441 0.32337 0.0
H354 H 0.50889 0.40852 0.27125 0.0
H355 H 0.54098 0.45763 0.29534 0.0
C356 C 0.63163 0.60347 0.29525 0.0
N357 N 0.60129 0.57459 0.26863 0.0
N358 N 0.60607 0.54326 0.26548 0.0
C359 C 0.63924 0.55103 0.29146 0.0
C360 C 0.65728 0.58972 0.31124 0.0
C361 C 0.63892 0.64529 0.29907 0.0
H362 H 0.62976 0.6538 0.26494 0.0
H363 H 0.62042 0.64678 0.32905 0.0
H364 H 0.67087 0.66687 0.30648 0.0
O365 O 0.57727 0.57712 0.15829 0.0
O366 O 0.59054 0.52772 0.14959 0.0
H367 H 0.66803 0.52016 0.26323 0.0
H368 H 0.6756 0.53051 0.32765 0.0
C369 C 0.65381 0.52195 0.29746 0.0
H370 H 0.62805 0.49229 0.30579 0.0
H371 H 0.63743 0.48123 0.17582 0.0
O372 O 0.55355 0.61933 0.23809 0.0
C373 C 0.5884 0.55724 0.13195 0.0
Co374 Co 0.52619 0.98873 0.22793 0.0
Co375 Co 0.59677 0.07272 0.21743 0.0
C376 C 0.60742 0.99848 0.22587 0.0
O377 O 0.57058 0.97749 0.23636 0.0
O378 O 0.62218 1.03592 0.21796 0.0
C379 C 0.47546 0.9099 0.20686 0.0
O380 O 0.50589 0.91685 0.17885 0.0
C381 C 0.65415 0.13809 0.27285 0.0
C382 C 0.67396 0.19104 0.2258 0.0
C383 C 0.67618 0.17935 0.27279 0.0
N384 N 0.63806 0.12581 0.22878 0.0
N385 N 0.65015 0.15745 0.20043 0.0
C386 C 0.64768 0.11026 0.31419 0.0
H387 H 0.64181 0.08084 0.30021 0.0
H388 H 0.62111 0.10535 0.33538 0.0
H389 H 0.67401 0.12298 0.33874 0.0
C390 C 0.49604 1.02902 0.29694 0.0
N391 N 0.52483 1.02779 0.26964 0.0
N392 N 0.55433 0.06433 0.26291 0.0
C393 C 0.5445 0.09007 0.28434 0.0
C394 C 0.50773 0.06879 0.308 0.0
C395 C 0.45655 0.99313 0.3082 0.0
H396 H 0.43741 0.98467 0.2753 0.0
H397 H 0.46087 0.96759 0.31786 0.0
H398 H 0.44122 0.99937 0.33831 0.0
O399 O 0.52693 1.00404 0.15812 0.0
O400 O 0.57532 0.06732 0.15145 0.0
H401 H 0.57621 0.13961 0.23577 0.0
H402 H 0.54442 0.14603 0.27879 0.0
C403 C 0.56495 0.1339 0.27366 0.0
H404 H 0.59042 0.14989 0.29863 0.0
H405 H 0.6409 0.15627 0.16455 0.0
O406 O 0.47808 0.93738 0.23473 0.0
C407 C 0.54691 1.03563 0.13285 0.0
Co408 Co 0.57703 0.08152 0.82952 0.0
Co409 Co 0.56752 0.99875 0.83777 0.0
C410 C 0.65135 0.07488 0.83513 0.0
O411 O 0.63421 0.09517 0.82658 0.0
O412 O 0.62994 1.03678 0.83862 0.0
C413 C 0.5985 0.15917 0.85246 0.0
O414 O 0.6167 0.15149 0.88757 0.0
C415 C 0.56103 0.93532 0.7796 0.0
C416 C 0.52967 0.88109 0.82491 0.0
C417 C 0.54291 0.89419 0.77805 0.0
N418 N 0.55723 0.94628 0.82452 0.0
N419 N 0.53866 0.91386 0.85182 0.0
C420 C 0.58106 0.96418 0.73875 0.0
H421 H 0.55816 0.96635 0.71667 0.0
H422 H 0.59725 0.95376 0.71478 0.0
H423 H 0.60211 0.99436 0.75315 0.0
C424 C 0.50945 1.04125 0.75739 0.0
N425 N 0.53943 1.04287 0.78512 0.0
N426 N 0.53295 1.00651 0.79207 0.0
C427 C 0.49756 0.98046 0.77069 0.0
C428 C 0.48184 1.00138 0.74641 0.0
C429 C 0.50469 0.07666 0.74679 0.0
H430 H 0.53403 0.1025 0.73644 0.0
H431 H 0.48256 0.06998 0.71737 0.0
H432 H 0.4943 0.08492 0.78019 0.0
O433 O 0.55865 0.06356 0.89769 0.0
O434 O 0.54973 1.00224 0.90402 0.0
H435 H 0.44193 0.92451 0.77688 0.0
H436 H 0.48412 0.92058 0.75733 0.0
C437 C 0.47454 0.93675 0.78197 0.0
H438 H 0.48029 0.9314 0.81993 0.0
H439 H 0.53075 0.91391 0.88809 0.0
O440 O 0.57848 0.13216 0.8214 0.0
C441 C 0.54904 1.03219 0.92272 0.0
Co442 Co 1.02876 0.50905 0.83034 0.0
Co443 Co 0.11254 0.58184 0.83272 0.0
C444 C 1.03614 0.58901 0.83407 0.0
O445 O 1.01517 0.55213 0.82375 0.0
O446 O 0.07406 0.60477 0.83785 0.0
C447 C 0.94375 0.45566 0.82446 0.0
O448 O 0.93975 0.48552 0.80843 0.0
C449 C 0.17038 0.64495 0.77446 0.0
C450 C 0.22841 0.65582 0.80331 0.0
C451 C 0.21094 0.66384 0.76407 0.0
N452 N 0.16388 0.62502 0.81635 0.0
N453 N 0.19873 0.63252 0.8344 0.0
C454 C 0.13741 0.64258 0.74325 0.0
H455 H 0.11481 0.64452 0.76615 0.0
H456 H 0.12237 0.61332 0.72425 0.0
H457 H 0.1489 0.66713 0.71618 0.0
C458 C 0.06622 0.47718 0.76025 0.0
N459 N 0.06585 0.50718 0.78579 0.0
N460 N 0.10205 0.53831 0.78671 0.0
C461 C 0.1266 0.52896 0.76115 0.0
C462 C 0.10503 0.48978 0.74332 0.0
C463 C 1.03143 0.43552 0.75878 0.0
H464 H 1.01989 0.42576 0.79616 0.0
H465 H 1.00702 0.43526 0.73713 0.0
H466 H 1.03967 0.41416 0.74282 0.0
O467 O 1.04883 0.51355 0.89743 0.0
O468 O 0.11188 0.56269 0.90012 0.0
H469 H 0.18499 0.56417 0.79157 0.0
H470 H 0.18497 0.54335 0.73264 0.0
C471 C 0.1706 0.55641 0.75533 0.0
H472 H 0.17558 0.5839 0.73695 0.0
H473 H 0.20197 0.61908 0.86565 0.0
O474 O 0.9781 0.45952 0.83127 0.0
C475 C 0.08106 0.53466 0.92099 0.0
Co476 Co 0.60293 0.54235 0.82516 0.0
Co477 Co 0.53193 0.55571 0.83818 0.0
C478 C 0.52078 0.47109 0.82876 0.0
O479 O 0.55753 0.48679 0.8175 0.0
O480 O 0.50621 0.49387 0.83746 0.0
C481 C 0.6531 0.5112 0.83767 0.0
O482 O 0.62439 0.48841 0.86802 0.0
C483 C 0.46151 0.54936 0.79629 0.0
C484 C 0.4561 0.59908 0.82814 0.0
C485 C 0.44015 0.56932 0.79317 0.0
N486 N 0.48896 0.56631 0.83133 0.0
N487 N 0.48519 0.59555 0.85114 0.0
C488 C 0.45994 0.5184 0.76199 0.0
H489 H 0.49065 0.52408 0.75452 0.0
H490 H 0.445 0.5178 0.72731 0.0
H491 H 0.44291 0.4886 0.7794 0.0
C492 C 0.63297 0.61438 0.7595 0.0
N493 N 0.60388 0.58364 0.78541 0.0
N494 N 0.57284 0.58882 0.78962 0.0
C495 C 0.58111 0.62289 0.76546 0.0
C496 C 0.61971 0.64083 0.74533 0.0
C497 C 0.67464 0.62125 0.75496 0.0
H498 H 0.68382 0.61346 0.78959 0.0
H499 H 0.67529 0.60137 0.72622 0.0
H500 H 0.69629 0.65277 0.74566 0.0
O501 O 0.60417 0.55596 0.8951 0.0
O502 O 0.55601 0.57132 0.9044 0.0
H503 H 0.55202 0.65193 0.7981 0.0
H504 H 0.56156 0.66167 0.73368 0.0
C505 C 0.5529 0.6388 0.76256 0.0
H506 H 0.52277 0.61393 0.75425 0.0
H507 H 0.50417 0.6148 0.8779 0.0
O508 O 0.65013 0.53762 0.81345 0.0
C509 C 0.58461 0.56736 0.92173 0.0
Co510 Co 0.77967 0.89585 0.56263 0.0
Co511 Co 0.69467 0.87965 0.54936 0.0
C512 C 0.76688 0.96573 0.55333 0.0
O513 O 0.78959 0.95191 0.56513 0.0
O514 O 0.72957 0.94153 0.54694 0.0
C515 C 0.85787 0.92058 0.54028 0.0
O516 O 0.84951 0.93936 0.50651 0.0
C517 C 0.63004 0.87364 0.60299 0.0
C518 C 0.57604 0.83634 0.5592 0.0
C519 C 0.58885 0.85333 0.60475 0.0
N520 N 0.64146 0.86777 0.55939 0.0
N521 N 0.60922 0.84591 0.53278 0.0
C522 C 0.65858 0.89671 0.64307 0.0
H523 H 0.66161 0.87571 0.66788 0.0
H524 H 0.64722 0.91345 0.66442 0.0
H525 H 0.68857 0.9177 0.62817 0.0
C526 C 0.73994 0.82689 0.63381 0.0
N527 N 0.74059 0.85613 0.6055 0.0
N528 N 0.70373 0.8482 0.59814 0.0
C529 C 0.67847 0.81322 0.62089 0.0
C530 C 0.70029 0.79865 0.64536 0.0
C531 C 0.7762 0.82373 0.64508 0.0
H532 H 0.8013 0.85354 0.65536 0.0
H533 H 0.77012 0.80196 0.67477 0.0
H534 H 0.7853 0.81377 0.61199 0.0
O535 O 0.7649 0.87765 0.49396 0.0
O536 O 0.70119 0.86131 0.48509 0.0
H537 H 0.62242 0.75729 0.61875 0.0
H538 H 0.6189 0.80006 0.63676 0.0
C539 C 0.63436 0.78963 0.6119 0.0
H540 H 0.6277 0.79358 0.57384 0.0
H541 H 0.60976 0.83569 0.49781 0.0
O542 O 0.83154 0.90007 0.57186 0.0
C543 C 0.73339 0.86435 0.46811 0.0
Co544 Co 0.22793 0.90776 0.56388 0.0
Co545 Co 0.24072 0.83687 0.54723 0.0
C546 C 0.15603 0.82564 0.55711 0.0
O547 O 0.1721 0.86232 0.56869 0.0
O548 O 0.17855 0.81068 0.54857 0.0
C549 C 0.198 0.95877 0.55333 0.0
O550 O 0.17565 0.93099 0.52178 0.0
C551 C 0.23712 0.76653 0.58531 0.0
C552 C 0.28759 0.76399 0.55069 0.0
C553 C 0.25856 0.74656 0.58636 0.0
N554 N 0.25256 0.7946 0.55079 0.0
N555 N 0.28219 0.79249 0.52926 0.0
C556 C 0.20664 0.76351 0.62152 0.0
H557 H 0.20977 0.79337 0.62778 0.0
H558 H 0.20941 0.75092 0.6566 0.0
H559 H 0.17633 0.74356 0.60664 0.0
C560 C 0.29841 0.93503 0.63133 0.0
N561 N 0.26824 0.907 0.60371 0.0
N562 N 0.27387 0.87645 0.59714 0.0
C563 C 0.30794 0.8842 0.62097 0.0
C564 C 0.32528 0.92184 0.64341 0.0
C565 C 0.30399 0.97578 0.64022 0.0
H566 H 0.30424 0.98979 0.60491 0.0
H567 H 0.27821 0.97297 0.66145 0.0
H568 H 0.33218 0.99529 0.65999 0.0
O569 O 0.24327 0.91201 0.49408 0.0
O570 O 0.25608 0.86258 0.4819 0.0
H571 H 0.3354 0.85486 0.58511 0.0
H572 H 0.34893 0.86579 0.64854 0.0
C573 C 0.32433 0.85636 0.62181 0.0
H574 H 0.30003 0.82636 0.63196 0.0
H575 H 0.30059 0.81239 0.50259 0.0
O576 O 0.22354 0.95466 0.57803 0.0
C577 C 0.25361 0.8924 0.46601 0.0
Co578 Co 0.19753 0.33266 0.5509 0.0
Co579 Co 0.27112 0.41563 0.54888 0.0
C580 C 0.27764 0.339 0.54825 0.0
O581 O 0.24034 0.31857 0.55662 0.0
O582 O 0.29409 0.377 0.54498 0.0
C583 C 0.14362 0.25562 0.52221 0.0
O584 O 0.17265 0.26361 0.4913 0.0
C585 C 0.33028 0.47334 0.61087 0.0
C586 C 0.34953 0.53136 0.57516 0.0
C587 C 0.35215 0.51427 0.61841 0.0
N588 N 0.31417 0.46654 0.56639 0.0
N589 N 0.32629 0.50124 0.54462 0.0
C590 C 0.32294 0.44058 0.6458 0.0
H591 H 0.31784 0.41348 0.62589 0.0
H592 H 0.29562 0.43259 0.66733 0.0
H593 H 0.34864 0.45006 0.67087 0.0
C594 C 0.16758 0.37012 0.6235 0.0
N595 N 0.19685 0.36959 0.59651 0.0
N596 N 0.22802 0.40571 0.59493 0.0
C597 C 0.21927 0.43046 0.62095 0.0
C598 C 0.18077 0.4089 0.64054 0.0
C599 C 0.1266 0.33482 0.6293 0.0
H600 H 0.12881 0.30776 0.63718 0.0
H601 H 0.10985 0.33974 0.65882 0.0
H602 H 0.11001 0.32958 0.59465 0.0
O603 O 0.2007 0.35329 0.48405 0.0
O604 O 0.25174 0.41537 0.48157 0.0
H605 H 0.22634 0.48937 0.63102 0.0
H606 H 0.26866 0.4844 0.64771 0.0
C607 C 0.2442 0.47508 0.62089 0.0
H608 H 0.25716 0.48573 0.58435 0.0
H609 H 0.31668 0.50444 0.51033 0.0
O610 O 0.14808 0.28192 0.55331 0.0
C611 C 0.22241 0.38556 0.46079 0.0
C612 C 0.2415 0.18203 1.02336 0.0
C613 C 0.23318 0.19262 0.97765 0.0
C614 C 0.22902 0.19208 0.06624 0.0
C615 C 0.20769 0.21272 0.06437 0.0
H616 H 0.26028 0.16859 0.0262 0.0
H617 H 0.23925 0.18699 0.10076 0.0
S618 S 0.16978 0.23785 0.95382 0.0
N619 N 0.19634 0.21809 0.93294 0.0
N620 N 0.17184 0.2361 1.01364 0.0
C621 C 0.19469 0.21859 1.01896 0.0
C622 C 0.20762 0.20859 0.97536 0.0
C623 C 0.90665 1.02375 0.02989 0.0
C624 C 0.86945 1.0154 0.0493 0.0
C625 C 0.92084 0.04525 0.98636 0.0
C626 C 0.89754 0.05764 0.9606 0.0
H627 H 0.92503 1.01409 0.04874 0.0
H628 H 0.95061 0.05345 0.97379 0.0
S629 S 0.79961 0.04553 0.99678 0.0
N630 N 0.81228 1.02578 0.04173 0.0
N631 N 0.83538 0.0591 0.9559 0.0
C632 C 0.85954 0.04762 0.97828 0.0
C633 C 0.8466 1.02874 1.02405 0.0
C634 C 1.03945 0.86839 0.08702 0.0
C635 C 0.07767 0.90216 0.08735 0.0
C636 C 1.01898 0.85332 0.04334 0.0
C637 C 1.03677 0.87076 0.99851 0.0
H638 H 1.02675 0.85163 0.12016 0.0
H639 H 0.99019 0.82627 0.04465 0.0
S640 S 0.13306 0.96432 0.98137 0.0
N641 N 0.12964 0.95674 0.04069 0.0
N642 N 0.09179 0.92724 0.95789 0.0
C643 C 0.07299 0.90703 0.99892 0.0
C644 C 0.09345 0.92294 0.04366 0.0
C645 C 0.81871 0.78653 0.98613 0.0
C646 C 0.82028 0.75338 1.0055 0.0
C647 C 0.79898 0.8042 1.0105 0.0
C648 C 0.77871 0.78902 0.05488 0.0
H649 H 0.83354 0.79949 0.95203 0.0
H650 H 0.79993 0.83036 0.99462 0.0
S651 S 0.77205 0.702 0.12089 0.0
N652 N 0.79884 0.70589 0.07213 0.0
N653 N 0.76078 0.73803 0.11666 0.0
C654 C 0.77869 0.75504 0.07385 0.0
C655 C 0.79946 0.73745 0.04947 0.0
C656 C 0.34771 0.05798 0.98579 0.0
C657 C 0.34585 0.0917 1.00251 0.0
C658 C 0.32797 1.02066 1.01064 0.0
C659 C 0.30565 1.01524 0.05368 0.0
H660 H 0.36361 0.06011 0.95245 0.0
H661 H 0.32947 0.99555 0.99534 0.0
S662 S 0.29569 0.09561 0.11583 0.0
N663 N 0.32178 0.11756 0.06645 0.0
N664 N 0.28703 0.04916 0.11407 0.0
C665 C 0.30525 0.04943 0.07168 0.0
C666 C 0.32462 0.08699 0.04595 0.0
C667 C 1.03752 0.29299 0.04264 0.0
C668 C 1.03649 0.29437 0.99142 0.0
C669 C 0.07413 0.311 0.06879 0.0
C670 C 0.11162 0.33146 0.04509 0.0
H671 H 1.00976 0.27689 0.06268 0.0
H672 H 0.07309 0.30826 0.10799 0.0
S673 S 0.12575 0.34643 0.91179 0.0
N674 N 0.07666 0.32017 0.91841 0.0
N675 N 0.14479 0.35343 0.96708 0.0
C676 C 0.11088 0.33425 0.99406 0.0
C677 C 0.07366 0.31585 0.96745 0.0
C678 C 0.87735 0.54144 0.31302 0.0
C679 C 0.8977 0.5198 0.31283 0.0
C680 C 0.86729 0.55248 0.357 0.0
C681 C 0.87771 0.5425 0.4018 0.0
H682 H 0.87254 0.55302 0.27938 0.0
H683 H 0.85403 0.57148 0.35582 0.0
S684 S 0.92209 0.47766 0.42001 0.0
N685 N 0.92052 0.48187 0.36045 0.0
N686 N 0.90258 0.5037 0.44321 0.0
C687 C 0.89332 0.5166 0.40189 0.0
C688 C 0.90326 0.50508 0.35717 0.0
C689 C 0.55652 0.34832 0.29752 0.0
C690 C 0.58992 0.38677 0.29659 0.0
C691 C 0.54273 0.32768 0.34133 0.0
C692 C 0.56107 0.34553 0.38575 0.0
H693 H 0.53906 0.33551 0.26486 0.0
H694 H 0.51588 0.29869 0.3406 0.0
S695 S 0.65428 0.4424 0.40097 0.0
N696 N 0.64529 0.43903 0.34196 0.0
N697 N 0.61808 0.40086 0.42512 0.0
C698 C 0.59703 0.38202 0.38458 0.0
C699 C 0.61168 0.40265 0.33966 0.0
C700 C 0.76416 0.24432 0.35112 0.0
C701 C 0.74702 0.23486 0.39783 0.0
C702 C 0.74032 0.22946 0.30961 0.0
C703 C 0.69881 0.20497 0.31394 0.0
H704 H 0.79636 0.26053 0.34678 0.0
H705 H 0.75472 0.23416 0.27448 0.0
S706 S 0.63914 0.18106 0.4274 0.0
N707 N 0.68612 0.20635 0.44571 0.0
N708 N 0.64097 0.17931 0.36755 0.0
C709 C 0.6811 0.20006 0.36003 0.0
C710 C 0.70539 0.215 0.40222 0.0
C711 C 0.5027 0.10986 0.37664 0.0
C712 C 0.48559 0.0862 0.33492 0.0
C713 C 0.48467 0.12939 0.40064 0.0
C714 C 0.44921 0.12746 0.38333 0.0
H715 H 0.53055 0.11352 0.3908 0.0
H716 H 0.49909 0.14668 0.43288 0.0
S717 S 0.39259 0.07002 0.27465 0.0
N718 N 0.43061 0.06159 0.27761 0.0
N719 N 0.3978 0.09945 0.32108 0.0
C720 C 0.43157 0.10349 0.34183 0.0
C721 C 0.44953 0.08284 0.31798 0.0
C722 C 0.998 0.41969 0.38018 0.0
C723 C 1.01199 0.4239 0.33196 0.0
C724 C 0.97835 0.38202 0.40381 0.0
C725 C 0.97105 0.34641 0.38018 0.0
H726 H 1.00172 0.44575 0.39966 0.0
H727 H 0.96824 0.38069 0.44085 0.0
S728 S 1.00185 0.34091 0.25378 0.0
N729 N 1.01764 0.38898 0.26176 0.0
N730 N 0.9804 0.31862 0.3054 0.0
C731 C 0.98557 0.35042 0.33221 0.0
C732 C 1.00586 0.38885 0.3083 0.0
C733 C 0.76832 0.62916 0.34559 0.0
C734 C 0.77441 0.65229 0.38781 0.0
C735 C 0.73117 0.61022 0.32077 0.0
C736 C 0.69751 0.61239 0.3374 0.0
H737 H 0.79264 0.62561 0.33151 0.0
H738 H 0.72884 0.59351 0.28814 0.0
S739 S 0.69673 0.66763 0.44788 0.0
N740 N 0.74307 0.67583 0.44547 0.0
N741 N 0.67334 0.63933 0.40042 0.0
C742 C 0.70327 0.63551 0.37971 0.0
C743 C 0.74143 0.65543 0.4045 0.0
C744 C 0.57452 0.84002 0.69285 0.0
C745 C 0.56466 0.84993 0.64766 0.0
C746 C 0.56297 0.85021 0.7363 0.0
C747 C 0.54113 0.87034 0.73547 0.0
H748 H 0.59421 0.82758 0.69477 0.0
H749 H 0.57459 0.84598 0.77026 0.0
S750 S 0.49852 0.89233 0.62685 0.0
N751 N 0.52527 0.87324 0.6047 0.0
N752 N 0.50255 0.89163 0.68652 0.0
C753 C 0.52627 0.87502 0.69076 0.0
C754 C 0.53821 0.8648 0.64658 0.0
C755 C 0.21016 0.66237 0.67333 0.0
C756 C 0.23003 0.68093 0.7168 0.0
C757 C 0.2227 0.68213 0.62879 0.0
C758 C 0.25649 0.72025 0.62608 0.0
H759 H 0.18323 0.63345 0.67392 0.0
H760 H 0.20409 0.66892 0.59705 0.0
S761 S 0.32515 0.77677 0.72688 0.0
N762 N 0.2891 0.73623 0.75303 0.0
N763 N 0.31414 0.77243 0.66839 0.0
C764 C 0.27987 0.73653 0.66796 0.0
C765 C 0.2664 0.71694 0.71368 0.0
C766 C 0.37454 0.53301 0.75273 0.0
C767 C 0.4137 0.56528 0.7526 0.0
C768 C 0.3533 0.51883 0.70927 0.0
C769 C 0.3713 0.5353 0.66416 0.0
H770 H 0.36129 0.51697 0.78614 0.0
H771 H 0.32333 0.4935 0.71107 0.0
S772 S 0.47059 0.62525 0.64599 0.0
N773 N 0.46716 0.61783 0.70531 0.0
N774 N 0.42812 0.58967 0.62301 0.0
C775 C 0.40887 0.57017 0.66421 0.0
C776 C 0.43002 0.58535 0.70869 0.0
C777 C 0.15497 0.46469 0.7374 0.0
C778 C 0.12145 0.46572 0.7183 0.0
C779 C 0.17319 0.44565 0.71267 0.0
C780 C 0.15826 0.42562 0.66812 0.0
H781 H 0.1678 0.47942 0.77157 0.0
H782 H 0.19957 0.44695 0.72841 0.0
S783 S 0.07053 0.41792 0.6026 0.0
N784 N 0.07389 0.4441 0.65173 0.0
N785 N 0.10715 0.40745 0.6064 0.0
C786 C 0.12396 0.42514 0.64935 0.0
C787 C 0.10578 0.44515 0.67416 0.0
C788 C 0.66114 0.75279 0.71525 0.0
C789 C 0.68343 0.75916 0.6722 0.0
C790 C 0.64188 0.71522 0.73903 0.0
C791 C 0.64283 0.68148 0.7204 0.0
H792 H 0.65834 0.77716 0.73064 0.0
H793 H 0.62579 0.7126 0.77235 0.0
S794 S 0.69558 0.68151 0.60713 0.0
N795 N 0.705 0.72814 0.61166 0.0
N796 N 0.66775 0.65759 0.65473 0.0
C797 C 0.66514 0.68756 0.67726 0.0
C798 C 0.68544 0.72613 0.65356 0.0
C799 C 0.36997 0.96064 0.71567 0.0
C800 C 0.36588 0.94452 0.66843 0.0
C801 C 0.40739 0.97987 0.74029 0.0
C802 C 0.44258 0.98393 0.71887 0.0
H803 H 0.3438 0.9576 0.73424 0.0
H804 H 0.40862 0.9909 0.77681 0.0
S805 S 0.4496 0.95082 0.59447 0.0
N806 N 0.40185 0.93732 0.60021 0.0
N807 N 0.47096 0.97192 0.64656 0.0
C808 C 0.43908 0.96886 0.67142 0.0
C809 C 0.40124 0.94969 0.64626 0.0
C810 C 0.24392 0.41858 0.37902 0.0
C811 C 0.21632 0.38606 0.40733 0.0
C812 C 0.24305 0.41666 0.32806 0.0
C813 C 0.2149 0.38196 0.30344 0.0
H814 H 0.26757 0.44509 0.39622 0.0
H815 H 0.26606 0.44171 0.30794 0.0
S816 S 0.13139 0.29173 0.35932 0.0
N817 N 0.15607 0.32035 0.40593 0.0
N818 N 0.15567 0.31669 0.31033 0.0
C819 C 0.18552 0.35041 0.33086 0.0
C820 C 0.18586 0.35251 0.38272 0.0
C821 C 0.77171 0.88051 0.39033 0.0
C822 C 0.73578 0.85698 0.41583 0.0
C823 C 0.7731 0.87928 0.33947 0.0
C824 C 0.73873 0.85407 0.31225 0.0
H825 H 0.79846 0.90176 0.40952 0.0
H826 H 0.8009 0.89955 0.32139 0.0
S827 S 0.63906 0.78106 0.36303 0.0
N828 N 0.66644 0.80429 0.41105 0.0
N829 N 0.66888 0.80089 0.31574 0.0
C830 C 0.70342 0.82791 0.33786 0.0
C831 C 0.70196 0.8297 0.38956 0.0
C832 C 0.27207 0.88553 0.33147 0.0
C833 C 0.25521 0.9066 0.30909 0.0
C834 C 0.27325 0.88275 0.38221 0.0
C835 C 0.25816 0.9014 0.41289 0.0
H836 H 0.28262 0.86919 0.3097 0.0
H837 H 0.28485 0.86462 0.39737 0.0
S838 S 0.2164 0.96532 0.3725 0.0
N839 N 0.22684 0.94983 0.32148 0.0
N840 N 0.22968 0.94545 0.41675 0.0
C841 C 0.24384 0.925 0.39097 0.0
C842 C 0.24214 0.92733 0.33917 0.0
C843 C 0.36649 0.17474 0.7135 0.0
C844 C 0.40147 0.19359 0.74175 0.0
C845 C 0.36832 0.17406 0.66264 0.0
C846 C 0.40522 0.19278 0.63771 0.0
H847 H 0.33735 0.16136 0.73068 0.0
H848 H 0.34038 0.16032 0.64273 0.0
S849 S 0.50575 0.24295 0.69448 0.0
N850 N 0.47438 0.22864 0.74079 0.0
N851 N 0.47757 0.22788 0.64531 0.0
C852 C 0.44044 0.21003 0.66547 0.0
C853 C 0.43863 0.21026 0.71738 0.0
C854 C 0.94266 0.23359 0.65755 0.0
C855 C 0.91626 0.24396 0.63487 0.0
C856 C 0.94463 0.23178 0.70826 0.0
C857 C 0.92078 0.24083 0.73851 0.0
H858 H 0.96063 0.22484 0.63608 0.0
H859 H 0.96411 0.22194 0.72381 0.0
S860 S 0.84962 0.27348 0.69785 0.0
N861 N 0.86797 0.26641 0.64701 0.0
N862 N 0.87198 0.26338 0.74223 0.0
C863 C 0.89618 0.25377 0.71653 0.0
C864 C 0.89385 0.25524 0.66479 0.0
C865 C 0.86284 0.67094 0.67501 0.0
C866 C 0.88047 0.70592 0.64665 0.0
C867 C 0.86368 0.67276 0.72596 0.0
C868 C 0.88273 0.70965 0.75079 0.0
H869 H 0.84928 0.64183 0.65778 0.0
H870 H 0.85087 0.64488 0.7459 0.0
S871 S 0.93041 0.81005 0.69403 0.0
N872 N 0.91499 0.77877 0.64767 0.0
N873 N 0.91692 0.78189 0.74319 0.0
C874 C 0.89877 0.74481 0.72302 0.0
C875 C 0.89751 0.74302 0.6711 0.0
C876 C 1.039 0.50941 0.04886 0.0
C877 C 0.07296 0.5301 0.07841 0.0
C878 C 1.04236 0.50902 0.99823 0.0
C879 C 0.07981 0.52985 0.97472 0.0
H880 H 1.00936 0.49437 0.06481 0.0
H881 H 1.01496 0.49381 0.97737 0.0
S882 S 0.17848 0.58499 0.03559 0.0
N883 N 0.14579 0.56891 0.0806 0.0
N884 N 0.15187 0.56867 0.98529 0.0
C885 C 0.11423 0.54879 1.00389 0.0
C886 C 0.11086 0.54876 0.05569 0.0
C887 C 0.60237 0.54429 0.99764 0.0
C888 C 0.59169 0.57037 0.97494 0.0
C889 C 0.60331 0.54174 0.04841 0.0
C890 C 0.5941 0.56553 0.0787 0.0
H891 H 0.60802 0.52407 0.97608 0.0
H892 H 0.60977 0.51974 0.06389 0.0
S893 S 0.57184 0.64414 0.03672 0.0
N894 N 0.57658 0.62387 0.98609 0.0
N895 N 0.57929 0.62014 0.08151 0.0
C896 C 0.58644 0.59403 0.05624 0.0
C897 C 0.5849 0.5961 1.00443 0.0
C898 C 0.52938 0.99733 1.0034 0.0
C899 C 0.54146 1.03227 0.9758 0.0
C900 C 0.5286 0.9981 0.05433 0.0
C901 C 0.54037 1.03396 0.0797 0.0
H902 H 0.52199 0.96939 0.9857 0.0
H903 H 0.52095 0.97085 0.07392 0.0
S904 S 0.56802 0.13219 0.02539 0.0
N905 N 0.56037 0.10275 0.97825 0.0
N906 N 0.55961 0.10401 0.0739 0.0
C907 C 0.54979 0.06842 0.05278 0.0
C908 C 0.55009 0.06762 1.00089 0.0
C909 C 0.38494 0.41187 0.17265 0.0
C910 C 0.3617 0.43067 0.17911 0.0
C911 C 0.42563 0.43026 0.1881 0.0
C912 C 0.44471 0.46782 0.21201 0.0
H913 H 0.37195 0.38321 0.15445 0.0
H914 H 0.44246 0.41528 0.18026 0.0
S915 S 0.39517 0.52668 0.24439 0.0
N916 N 0.36047 0.48758 0.21491 0.0
N917 N 0.43463 0.52067 0.24534 0.0
C918 C 0.42081 0.48558 0.22087 0.0
C919 C 0.38016 0.46749 0.20416 0.0
C920 C 0.66878 0.99626 0.19281 0.0
C921 C 0.63082 0.97704 0.21572 0.0
C922 C 0.6882 0.97484 0.17773 0.0
C923 C 0.6702 0.93299 0.18377 0.0
H924 H 0.68336 1.02803 0.18554 0.0
H925 H 0.71721 0.9911 0.16038 0.0
S926 S 0.57316 0.86855 0.24598 0.0
N927 N 0.5779 0.91347 0.2469 0.0
N928 N 0.61343 0.87398 0.21801 0.0
C929 C 0.63286 0.91374 0.20774 0.0
C930 C 0.61353 0.93544 0.22377 0.0
C931 C 0.16 0.69927 0.1995 0.0
C932 C 0.11831 0.67727 0.2077 0.0
C933 C 0.17958 0.73948 0.18415 0.0
C934 C 0.15901 0.76084 0.17666 0.0
H935 H 0.17803 0.68513 0.2042 0.0
H936 H 0.21164 0.75411 0.1789 0.0
S937 S 1.04935 0.71792 0.1927 0.0
N938 N 1.05681 0.68034 0.20611 0.0
N939 N 0.09371 0.75614 0.17896 0.0
C940 C 0.11722 0.73941 0.18483 0.0
C941 C 0.09698 0.69786 0.19977 0.0
C942 C 0.43789 0.36632 0.87269 0.0
C943 C 0.45641 0.34261 0.8693 0.0
C944 C 0.45796 0.40728 0.85836 0.0
C945 C 0.49716 0.4263 0.83864 0.0
H946 H 0.40791 0.35339 0.88739 0.0
H947 H 0.44278 0.42428 0.86347 0.0
S948 S 0.55731 0.37632 0.81664 0.0
N949 N 0.51567 0.34134 0.84167 0.0
N950 N 0.55205 0.41615 0.81347 0.0
C951 C 0.5151 0.40221 0.83326 0.0
C952 C 0.49519 0.36118 0.84883 0.0
C953 C 0.72109 0.08071 0.84478 0.0
C954 C 0.69572 0.09741 0.84857 0.0
C955 C 0.76237 0.10263 0.85812 0.0
C956 C 0.7802 0.14196 0.87733 0.0
H957 H 0.70921 0.05074 0.83053 0.0
H958 H 0.78052 0.08867 0.85289 0.0
S959 S 0.72623 0.19833 0.89904 0.0
N960 N 0.69209 0.15562 0.87536 0.0
N961 N 0.7673 0.19518 0.9017 0.0
C962 C 0.75457 0.15816 0.88287 0.0
C963 C 0.71324 0.13645 0.86827 0.0
C964 C 1.01098 0.67273 0.86199 0.0
C965 C 0.97292 0.65193 0.88456 0.0
C966 C 1.03161 0.65281 0.84582 0.0
C967 C 1.01481 0.61102 0.85056 0.0
H968 H 1.02464 0.70457 0.8557 0.0
H969 H 1.06053 0.67016 0.82856 0.0
S970 S 0.91834 0.54299 0.91204 0.0
N971 N 0.92136 0.58715 0.91425 0.0
N972 N 0.95924 0.55038 0.88384 0.0
C973 C 0.97749 0.59025 0.87452 0.0
C974 C 0.95688 0.61043 0.89143 0.0
C975 C 0.70687 0.51354 0.88867 0.0
C976 C 0.69266 0.51489 0.84212 0.0
C977 C 0.74793 0.53172 0.89748 0.0
C978 C 0.77553 0.55059 0.85972 0.0
H979 H 0.68667 0.50265 0.91946 0.0
H980 H 0.75817 0.53436 0.93467 0.0
S981 S 0.75256 0.5534 0.72957 0.0
N982 N 0.70845 0.5302 0.7566 0.0
N983 N 0.78585 0.56325 0.77286 0.0
C984 C 0.76142 0.5469 0.81193 0.0
C985 C 0.7197 0.52926 0.80316 0.0
C986 C 0.56094 0.22803 0.81719 0.0
C987 C 0.55539 0.24061 0.86293 0.0
C988 C 0.57935 0.20484 0.81319 0.0
C989 C 0.59324 0.19433 0.85474 0.0
H990 H 0.54709 0.23213 0.78517 0.0
H991 H 0.57947 0.19218 0.77805 0.0
S992 S 0.59705 0.23154 0.98008 0.0
N993 N 0.57258 0.24894 0.9485 0.0
N994 N 0.60906 0.20666 0.94098 0.0
C995 C 0.59361 0.21232 0.89936 0.0
C996 C 0.57402 0.23517 0.9035 0.0
C997 C 0.91228 0.40852 0.89123 0.0
C998 C 0.90962 0.41958 0.84344 0.0
C999 C 0.89088 0.36866 0.90548 0.0
C1000 C 0.86679 0.33886 0.87196 0.0
H1001 H 0.93423 0.43011 0.91607 0.0
H1002 H 0.897 0.36072 0.94095 0.0
S1003 S 0.84031 0.3553 0.74781 0.0
N1004 N 0.87425 0.40022 0.76669 0.0
N1005 N 0.83335 0.32449 0.79327 0.0
C1006 C 0.85865 0.35061 0.82688 0.0
C1007 C 0.88056 0.39145 0.81247 0.0
C1008 C 0.56756 0.72862 0.22999 0.0
C1009 C 0.56559 0.73975 0.18201 0.0
C1010 C 0.54847 0.68848 0.2431 0.0
C1011 C 0.52734 0.65868 0.2083 0.0
H1012 H 0.58783 0.75063 0.25579 0.0
H1013 H 0.55449 0.68074 0.27875 0.0
S1014 S 0.50239 0.67422 0.08295 0.0
N1015 N 0.53307 0.71968 0.10353 0.0
N1016 N 0.49636 0.64344 0.12805 0.0
C1017 C 0.51914 0.66995 0.16295 0.0
C1018 C 0.53878 0.71103 0.14965 0.0
C1019 C 0.36655 0.84301 0.22327 0.0
C1020 C 0.35284 0.84542 0.1768 0.0
C1021 C 0.40745 0.85974 0.23215 0.0
C1022 C 0.43529 0.87812 0.19451 0.0
H1023 H 0.34628 0.83261 0.25402 0.0
H1024 H 0.41753 0.86191 0.26936 0.0
S1025 S 0.41324 0.88272 0.06446 0.0
N1026 N 0.36905 0.86076 0.09136 0.0
N1027 N 0.44613 0.89109 0.10777 0.0
C1028 C 0.42144 0.87516 0.14671 0.0
C1029 C 0.37993 0.85903 0.13787 0.0
C1030 C 0.23476 0.57448 0.16011 0.0
C1031 C 0.22333 0.57888 0.2072 0.0
C1032 C 0.25384 0.55218 0.15224 0.0
C1033 C 0.26291 0.53467 0.19134 0.0
H1034 H 0.22535 0.58469 0.1288 0.0
H1035 H 0.25884 0.54617 0.11518 0.0
S1036 S 0.24686 0.54528 0.32225 0.0
N1037 N 0.22772 0.56958 0.29374 0.0
N1038 N 0.26493 0.52874 0.2793 0.0
C1039 C 0.25624 0.54331 0.23897 0.0
C1040 C 0.23605 0.56525 0.24684 0.0
C1041 C 0.09131 0.76297 0.52884 0.0
C1042 C 0.1112 0.80271 0.54673 0.0
C1043 C 1.05031 0.74333 0.51456 0.0
C1044 C 1.02736 0.76279 0.51604 0.0
H1045 H 0.10761 0.74692 0.52538 0.0
H1046 H 1.03667 0.71283 0.50158 0.0
S1047 S 1.06373 0.86593 0.56253 0.0
N1048 N 0.10275 0.85947 0.5676 0.0
N1049 N 1.028 0.82393 0.53919 0.0
C1050 C 1.04688 0.80228 0.5343 0.0
C1051 C 0.08793 0.82176 0.54995 0.0
C1052 C 0.36252 0.31669 0.51407 0.0
C1053 C 0.34183 0.27538 0.50287 0.0
C1054 C 0.34213 0.33713 0.52925 0.0
C1055 C 0.30009 0.31712 0.53521 0.0
H1056 H 0.39482 0.33344 0.51136 0.0
H1057 H 0.35955 0.36887 0.5366 0.0
S1058 S 0.23131 0.20895 0.5104 0.0
N1059 N 0.2761 0.21579 0.49782 0.0
N1060 N 0.2388 0.25299 0.52801 0.0
C1061 C 0.27923 0.27579 0.52429 0.0
C1062 C 0.29972 0.25537 0.50774 0.0
C1063 C 0.82779 1.03239 0.53351 0.0
C1064 C 0.78593 1.00976 0.54012 0.0
C1065 C 0.8471 0.07243 0.51749 0.0
C1066 C 0.82602 0.09291 0.50746 0.0
H1067 H 0.84621 1.01891 0.54008 0.0
H1068 H 0.87932 0.08763 0.51374 0.0
S1069 S 0.7158 0.04826 0.51896 0.0
N1070 N 0.7238 1.01147 0.53476 0.0
N1071 N 0.76013 0.08684 0.50597 0.0
C1072 C 0.78408 0.07091 0.51418 0.0
C1073 C 0.76416 1.02959 0.53001 0.0
C1074 C 0.20398 1.01392 0.50223 0.0
C1075 C 0.20337 0.99895 0.54893 0.0
C1076 C 0.22486 0.05503 0.4936 0.0
C1077 C 0.24444 0.08197 0.5317 0.0
H1078 H 0.19258 0.99398 0.47129 0.0
H1079 H 0.22884 0.06555 0.4564 0.0
S1080 S 0.24246 0.05753 0.6622 0.0
N1081 N 0.21734 1.01376 0.63483 0.0
N1082 N 0.25548 0.0914 0.61891 0.0
C1083 C 0.23874 0.06752 0.57953 0.0
C1084 C 0.21832 1.02567 0.58813 0.0
C1085 C 0.07425 0.21271 0.55034 0.0
C1086 C 0.10319 0.22173 0.51404 0.0
C1087 C 1.03373 0.19265 0.53881 0.0
C1088 C 1.02114 0.18083 0.49088 0.0
H1089 H 0.08297 0.22472 0.58672 0.0
H1090 H 1.01249 0.19021 0.56638 0.0
S1091 S 0.08375 0.18592 0.38638 0.0
N1092 N 0.11589 0.20865 0.43099 0.0
N1093 N 1.03896 0.17127 0.40949 0.0
C1094 C 1.04899 0.18405 0.45605 0.0
C1095 C 0.09047 0.20439 0.46773 0.0
C1096 C 0.89317 0.89747 0.48622 0.0
C1097 C 0.88983 0.91127 0.53225 0.0
C1098 C 0.91112 0.8739 0.48103 0.0
C1099 C 0.92682 0.86419 0.52155 0.0
H1100 H 0.87804 0.9011 0.45511 0.0
H1101 H 0.90975 0.86055 0.4459 0.0
S1102 S 0.93468 0.90261 0.64707 0.0
N1103 N 0.90967 0.92017 0.61694 0.0
N1104 N 0.94526 0.87725 0.60703 0.0
C1105 C 0.92874 0.88275 0.56627 0.0
C1106 C 0.90962 0.90597 0.5717 0.0
loop_
_geom_bond_atom_site_label_1
_geom_bond_atom_site_label_2
_geom_bond_distance
_geom_bond_site_symmetry_2
_ccdc_geom_bond_type
Co0 O3 1.970 . S
Co0 N17 1.989 . S
Co0 O25 1.967 . S
Co0 O32 1.920 . S
Co1 O4 1.966 . S
Co1 N10 2.022 . S
Co1 N18 1.993 . S
Co1 O26 1.941 . S
C2 O3 1.258 . S
C2 O4 1.263 . S
O3 Co0 1.970 . S
O3 C2 1.258 . S
O4 Co1 1.966 . S
O4 C2 1.263 . S
C5 O6 1.235 . S
C5 O32 1.289 . S
O6 C5 1.235 . S
C7 C9 1.400 . S
C7 N10 1.351 . S
C7 C12 1.501 . S
C8 C9 1.387 . S
C8 N11 1.341 . S
C9 C7 1.400 . S
C9 C8 1.387 . S
N10 Co1 2.022 . S
N10 C7 1.351 . S
N10 N11 1.365 . S
N11 C8 1.341 . S
N11 N10 1.365 . S
N11 H31 0.862 . S
C12 C7 1.501 . S
C12 H13 0.961 . S
C12 H14 0.961 . S
C12 H15 0.960 . S
H13 C12 0.961 . S
H14 C12 0.961 . S
H15 C12 0.960 . S
C16 N17 1.342 . S
C16 C20 1.401 . S
C16 C21 1.499 . S
N17 Co0 1.989 . S
N17 C16 1.342 . S
N17 N18 1.388 . S
N18 Co1 1.993 . S
N18 N17 1.388 . S
N18 C19 1.346 . S
C19 N18 1.346 . S
C19 C20 1.396 . S
C19 C29 1.510 . S
C20 C16 1.401 . S
C20 C19 1.396 . S
C21 C16 1.499 . S
C21 H22 0.959 . S
C21 H23 0.960 . S
C21 H24 0.961 . S
H22 C21 0.959 . S
H23 C21 0.960 . S
H24 C21 0.961 . S
O25 Co0 1.967 . S
O25 C33 1.258 . S
O26 Co1 1.941 . S
O26 C33 1.266 . S
H27 C29 0.959 . S
H28 C29 0.961 . S
C29 C19 1.510 . S
C29 H27 0.959 . S
C29 H28 0.961 . S
C29 H30 0.960 . S
H30 C29 0.960 . S
H31 N11 0.862 . S
O32 Co0 1.920 . S
O32 C5 1.289 . S
C33 O25 1.258 . S
C33 O26 1.266 . S
Co34 O37 1.970 . S
Co34 N51 1.989 . S
Co34 O59 1.967 . S
Co34 O66 1.920 . S
Co35 O38 1.966 . S
Co35 N44 2.022 . S
Co35 N52 1.993 . S
Co35 O60 1.941 . S
C36 O37 1.258 . S
C36 O38 1.263 . S
O37 Co34 1.970 . S
O37 C36 1.258 . S
O38 Co35 1.966 . S
O38 C36 1.263 . S
C39 O40 1.235 . S
C39 O66 1.289 . S
O40 C39 1.235 . S
C41 C43 1.400 . S
C41 N44 1.351 . S
C41 C46 1.501 . S
C42 C43 1.387 . S
C42 N45 1.341 . S
C43 C41 1.400 . S
C43 C42 1.387 . S
N44 Co35 2.022 . S
N44 C41 1.351 . S
N44 N45 1.365 . S
N45 C42 1.341 . S
N45 N44 1.365 . S
N45 H65 0.862 . S
C46 C41 1.501 . S
C46 H47 0.961 . S
C46 H48 0.961 . S
C46 H49 0.960 . S
H47 C46 0.961 . S
H48 C46 0.961 . S
H49 C46 0.960 . S
C50 N51 1.342 . S
C50 C54 1.401 . S
C50 C55 1.499 . S
N51 Co34 1.989 . S
N51 C50 1.342 . S
N51 N52 1.388 . S
N52 Co35 1.993 . S
N52 N51 1.388 . S
N52 C53 1.346 . S
C53 N52 1.346 . S
C53 C54 1.396 . S
C53 C63 1.510 . S
C54 C50 1.401 . S
C54 C53 1.396 . S
C55 C50 1.499 . S
C55 H56 0.959 . S
C55 H57 0.960 . S
C55 H58 0.961 . S
H56 C55 0.959 . S
H57 C55 0.960 . S
H58 C55 0.961 . S
O59 Co34 1.967 . S
O59 C67 1.258 . S
O60 Co35 1.941 . S
O60 C67 1.266 . S
H61 C63 0.959 . S
H62 C63 0.961 . S
C63 C53 1.510 . S
C63 H61 0.959 . S
C63 H62 0.961 . S
C63 H64 0.960 . S
H64 C63 0.960 . S
H65 N45 0.862 . S
O66 Co34 1.920 . S
O66 C39 1.289 . S
C67 O59 1.258 . S
C67 O60 1.266 . S
Co68 O71 1.970 . S
Co68 N85 1.989 . S
Co68 O93 1.967 . S
Co68 O100 1.920 . S
Co69 O72 1.966 . S
Co69 N78 2.022 . S
Co69 N86 1.993 . S
Co69 O94 1.941 . S
C70 O71 1.258 . S
C70 O72 1.263 . S
O71 Co68 1.970 . S
O71 C70 1.258 . S
O72 Co69 1.966 . S
O72 C70 1.263 . S
C73 O74 1.235 . S
C73 O100 1.289 . S
O74 C73 1.235 . S
C75 C77 1.400 . S
C75 N78 1.351 . S
C75 C80 1.501 . S
C76 C77 1.387 . S
C76 N79 1.341 . S
C77 C75 1.400 . S
C77 C76 1.387 . S
N78 Co69 2.022 . S
N78 C75 1.351 . S
N78 N79 1.365 . S
N79 C76 1.341 . S
N79 N78 1.365 . S
N79 H99 0.862 . S
C80 C75 1.501 . S
C80 H81 0.961 . S
C80 H82 0.961 . S
C80 H83 0.960 . S
H81 C80 0.961 . S
H82 C80 0.961 . S
H83 C80 0.960 . S
C84 N85 1.342 . S
C84 C88 1.401 . S
C84 C89 1.499 . S
N85 Co68 1.989 . S
N85 C84 1.342 . S
N85 N86 1.388 . S
N86 Co69 1.993 . S
N86 N85 1.388 . S
N86 C87 1.346 . S
C87 N86 1.346 . S
C87 C88 1.396 . S
C87 C97 1.510 . S
C88 C84 1.401 . S
C88 C87 1.396 . S
C89 C84 1.499 . S
C89 H90 0.959 . S
C89 H91 0.960 . S
C89 H92 0.961 . S
H90 C89 0.959 . S
H91 C89 0.960 . S
H92 C89 0.961 . S
O93 Co68 1.967 . S
O93 C101 1.258 . S
O94 Co69 1.941 . S
O94 C101 1.266 . S
H95 C97 0.959 . S
H96 C97 0.961 . S
C97 C87 1.510 . S
C97 H95 0.959 . S
C97 H96 0.961 . S
C97 H98 0.960 . S
H98 C97 0.960 . S
H99 N79 0.862 . S
O100 Co68 1.920 . S
O100 C73 1.289 . S
C101 O93 1.258 . S
C101 O94 1.266 . S
Co102 O105 1.970 . S
Co102 N119 1.989 . S
Co102 O127 1.967 . S
Co102 O134 1.920 . S
Co103 O106 1.966 . S
Co103 N112 2.022 . S
Co103 N120 1.993 . S
Co103 O128 1.941 . S
C104 O105 1.258 . S
C104 O106 1.263 . S
O105 Co102 1.970 . S
O105 C104 1.258 . S
O106 Co103 1.966 . S
O106 C104 1.263 . S
C107 O108 1.235 . S
C107 O134 1.289 . S
O108 C107 1.235 . S
C109 C111 1.400 . S
C109 N112 1.351 . S
C109 C114 1.501 . S
C110 C111 1.387 . S
C110 N113 1.341 . S
C111 C109 1.400 . S
C111 C110 1.387 . S
N112 Co103 2.022 . S
N112 C109 1.351 . S
N112 N113 1.365 . S
N113 C110 1.341 . S
N113 N112 1.365 . S
N113 H133 0.862 . S
C114 C109 1.501 . S
C114 H115 0.961 . S
C114 H116 0.961 . S
C114 H117 0.960 . S
H115 C114 0.961 . S
H116 C114 0.961 . S
H117 C114 0.960 . S
C118 N119 1.342 . S
C118 C122 1.401 . S
C118 C123 1.499 . S
N119 Co102 1.989 . S
N119 C118 1.342 . S
N119 N120 1.388 . S
N120 Co103 1.993 . S
N120 N119 1.388 . S
N120 C121 1.346 . S
C121 N120 1.346 . S
C121 C122 1.396 . S
C121 C131 1.510 . S
C122 C118 1.401 . S
C122 C121 1.396 . S
C123 C118 1.499 . S
C123 H124 0.959 . S
C123 H125 0.960 . S
C123 H126 0.961 . S
H124 C123 0.959 . S
H125 C123 0.960 . S
H126 C123 0.961 . S
O127 Co102 1.967 . S
O127 C135 1.258 . S
O128 Co103 1.941 . S
O128 C135 1.266 . S
H129 C131 0.959 . S
H130 C131 0.961 . S
C131 C121 1.510 . S
C131 H129 0.959 . S
C131 H130 0.961 . S
C131 H132 0.960 . S
H132 C131 0.960 . S
H133 N113 0.862 . S
O134 Co102 1.920 . S
O134 C107 1.289 . S
C135 O127 1.258 . S
C135 O128 1.266 . S
Co136 O139 1.970 . S
Co136 N153 1.989 . S
Co136 O161 1.967 . S
Co136 O168 1.920 . S
Co137 O140 1.966 . S
Co137 N146 2.022 . S
Co137 N154 1.993 . S
Co137 O162 1.941 . S
C138 O139 1.258 . S
C138 O140 1.263 . S
O139 Co136 1.970 . S
O139 C138 1.258 . S
O140 Co137 1.966 . S
O140 C138 1.263 . S
C141 O142 1.235 . S
C141 O168 1.289 . S
O142 C141 1.235 . S
C143 C145 1.400 . S
C143 N146 1.351 . S
C143 C148 1.501 . S
C144 C145 1.387 . S
C144 N147 1.341 . S
C145 C143 1.400 . S
C145 C144 1.387 . S
N146 Co137 2.022 . S
N146 C143 1.351 . S
N146 N147 1.365 . S
N147 C144 1.341 . S
N147 N146 1.365 . S
N147 H167 0.862 . S
C148 C143 1.501 . S
C148 H149 0.961 . S
C148 H150 0.961 . S
C148 H151 0.960 . S
H149 C148 0.961 . S
H150 C148 0.961 . S
H151 C148 0.960 . S
C152 N153 1.342 . S
C152 C156 1.401 . S
C152 C157 1.499 . S
N153 Co136 1.989 . S
N153 C152 1.342 . S
N153 N154 1.388 . S
N154 Co137 1.993 . S
N154 N153 1.388 . S
N154 C155 1.346 . S
C155 N154 1.346 . S
C155 C156 1.396 . S
C155 C165 1.510 . S
C156 C152 1.401 . S
C156 C155 1.396 . S
C157 C152 1.499 . S
C157 H158 0.959 . S
C157 H159 0.960 . S
C157 H160 0.961 . S
H158 C157 0.959 . S
H159 C157 0.960 . S
H160 C157 0.961 . S
O161 Co136 1.967 . S
O161 C169 1.258 . S
O162 Co137 1.941 . S
O162 C169 1.266 . S
H163 C165 0.959 . S
H164 C165 0.961 . S
C165 C155 1.510 . S
C165 H163 0.959 . S
C165 H164 0.961 . S
C165 H166 0.960 . S
H166 C165 0.960 . S
H167 N147 0.862 . S
O168 Co136 1.920 . S
O168 C141 1.289 . S
C169 O161 1.258 . S
C169 O162 1.266 . S
Co170 O173 1.970 . S
Co170 N187 1.989 . S
Co170 O195 1.967 . S
Co170 O202 1.920 . S
Co171 O174 1.966 . S
Co171 N180 2.022 . S
Co171 N188 1.993 . S
Co171 O196 1.941 . S
C172 O173 1.258 . S
C172 O174 1.263 . S
O173 Co170 1.970 . S
O173 C172 1.258 . S
O174 Co171 1.966 . S
O174 C172 1.263 . S
C175 O176 1.235 . S
C175 O202 1.289 . S
O176 C175 1.235 . S
C177 C179 1.400 . S
C177 N180 1.351 . S
C177 C182 1.501 . S
C178 C179 1.387 . S
C178 N181 1.341 . S
C179 C177 1.400 . S
C179 C178 1.387 . S
N180 Co171 2.022 . S
N180 C177 1.351 . S
N180 N181 1.365 . S
N181 C178 1.341 . S
N181 N180 1.365 . S
N181 H201 0.862 . S
C182 C177 1.501 . S
C182 H183 0.961 . S
C182 H184 0.961 . S
C182 H185 0.960 . S
H183 C182 0.961 . S
H184 C182 0.961 . S
H185 C182 0.960 . S
C186 N187 1.342 . S
C186 C190 1.401 . S
C186 C191 1.499 . S
N187 Co170 1.989 . S
N187 C186 1.342 . S
N187 N188 1.388 . S
N188 Co171 1.993 . S
N188 N187 1.388 . S
N188 C189 1.346 . S
C189 N188 1.346 . S
C189 C190 1.396 . S
C189 C199 1.510 . S
C190 C186 1.401 . S
C190 C189 1.396 . S
C191 C186 1.499 . S
C191 H192 0.959 . S
C191 H193 0.960 . S
C191 H194 0.961 . S
H192 C191 0.959 . S
H193 C191 0.960 . S
H194 C191 0.961 . S
O195 Co170 1.967 . S
O195 C203 1.258 . S
O196 Co171 1.941 . S
O196 C203 1.266 . S
H197 C199 0.959 . S
H198 C199 0.961 . S
C199 C189 1.510 . S
C199 H197 0.959 . S
C199 H198 0.961 . S
C199 H200 0.960 . S
H200 C199 0.960 . S
H201 N181 0.862 . S
O202 Co170 1.920 . S
O202 C175 1.289 . S
C203 O195 1.258 . S
C203 O196 1.266 . S
Co204 O207 1.970 . S
Co204 N221 1.989 . S
Co204 O229 1.967 . S
Co204 O236 1.920 . S
Co205 O208 1.966 . S
Co205 N214 2.022 . S
Co205 N222 1.993 . S
Co205 O230 1.941 . S
C206 O207 1.258 . S
C206 O208 1.263 . S
O207 Co204 1.970 . S
O207 C206 1.258 . S
O208 Co205 1.966 . S
O208 C206 1.263 . S
C209 O210 1.235 . S
C209 O236 1.289 . S
O210 C209 1.235 . S
C211 C213 1.400 . S
C211 N214 1.351 . S
C211 C216 1.501 . S
C212 C213 1.387 . S
C212 N215 1.341 . S
C213 C211 1.400 . S
C213 C212 1.387 . S
N214 Co205 2.022 . S
N214 C211 1.351 . S
N214 N215 1.365 . S
N215 C212 1.341 . S
N215 N214 1.365 . S
N215 H235 0.862 . S
C216 C211 1.501 . S
C216 H217 0.961 . S
C216 H218 0.961 . S
C216 H219 0.960 . S
H217 C216 0.961 . S
H218 C216 0.961 . S
H219 C216 0.960 . S
C220 N221 1.342 . S
C220 C224 1.401 . S
C220 C225 1.499 . S
N221 Co204 1.989 . S
N221 C220 1.342 . S
N221 N222 1.388 . S
N222 Co205 1.993 . S
N222 N221 1.388 . S
N222 C223 1.346 . S
C223 N222 1.346 . S
C223 C224 1.396 . S
C223 C233 1.510 . S
C224 C220 1.401 . S
C224 C223 1.396 . S
C225 C220 1.499 . S
C225 H226 0.959 . S
C225 H227 0.960 . S
C225 H228 0.961 . S
H226 C225 0.959 . S
H227 C225 0.960 . S
H228 C225 0.961 . S
O229 Co204 1.967 . S
O229 C237 1.258 . S
O230 Co205 1.941 . S
O230 C237 1.266 . S
H231 C233 0.959 . S
H232 C233 0.961 . S
C233 C223 1.510 . S
C233 H231 0.959 . S
C233 H232 0.961 . S
C233 H234 0.960 . S
H234 C233 0.960 . S
H235 N215 0.862 . S
O236 Co204 1.920 . S
O236 C209 1.289 . S
C237 O229 1.258 . S
C237 O230 1.266 . S
Co238 O241 1.970 . S
Co238 N255 1.989 . S
Co238 O263 1.967 . S
Co238 O270 1.920 . S
Co239 O242 1.966 . S
Co239 N248 2.022 . S
Co239 N256 1.993 . S
Co239 O264 1.941 . S
C240 O241 1.258 . S
C240 O242 1.263 . S
O241 Co238 1.970 . S
O241 C240 1.258 . S
O242 Co239 1.966 . S
O242 C240 1.263 . S
C243 O244 1.235 . S
C243 O270 1.289 . S
O244 C243 1.235 . S
C245 C247 1.400 . S
C245 N248 1.351 . S
C245 C250 1.501 . S
C246 C247 1.387 . S
C246 N249 1.341 . S
C247 C245 1.400 . S
C247 C246 1.387 . S
N248 Co239 2.022 . S
N248 C245 1.351 . S
N248 N249 1.365 . S
N249 C246 1.341 . S
N249 N248 1.365 . S
N249 H269 0.862 . S
C250 C245 1.501 . S
C250 H251 0.961 . S
C250 H252 0.961 . S
C250 H253 0.960 . S
H251 C250 0.961 . S
H252 C250 0.961 . S
H253 C250 0.960 . S
C254 N255 1.342 . S
C254 C258 1.401 . S
C254 C259 1.499 . S
N255 Co238 1.989 . S
N255 C254 1.342 . S
N255 N256 1.388 . S
N256 Co239 1.993 . S
N256 N255 1.388 . S
N256 C257 1.346 . S
C257 N256 1.346 . S
C257 C258 1.396 . S
C257 C267 1.510 . S
C258 C254 1.401 . S
C258 C257 1.396 . S
C259 C254 1.499 . S
C259 H260 0.959 . S
C259 H261 0.960 . S
C259 H262 0.961 . S
H260 C259 0.959 . S
H261 C259 0.960 . S
H262 C259 0.961 . S
O263 Co238 1.967 . S
O263 C271 1.258 . S
O264 Co239 1.941 . S
O264 C271 1.266 . S
H265 C267 0.959 . S
H266 C267 0.961 . S
C267 C257 1.510 . S
C267 H265 0.959 . S
C267 H266 0.961 . S
C267 H268 0.960 . S
H268 C267 0.960 . S
H269 N249 0.862 . S
O270 Co238 1.920 . S
O270 C243 1.289 . S
C271 O263 1.258 . S
C271 O264 1.266 . S
Co272 O275 1.970 . S
Co272 N289 1.989 . S
Co272 O297 1.967 . S
Co272 O304 1.920 . S
Co273 O276 1.966 . S
Co273 N282 2.022 . S
Co273 N290 1.993 . S
Co273 O298 1.941 . S
C274 O275 1.258 . S
C274 O276 1.263 . S
O275 Co272 1.970 . S
O275 C274 1.258 . S
O276 Co273 1.966 . S
O276 C274 1.263 . S
C277 O278 1.235 . S
C277 O304 1.289 . S
O278 C277 1.235 . S
C279 C281 1.400 . S
C279 N282 1.351 . S
C279 C284 1.501 . S
C280 C281 1.387 . S
C280 N283 1.341 . S
C281 C279 1.400 . S
C281 C280 1.387 . S
N282 Co273 2.022 . S
N282 C279 1.351 . S
N282 N283 1.365 . S
N283 C280 1.341 . S
N283 N282 1.365 . S
N283 H303 0.862 . S
C284 C279 1.501 . S
C284 H285 0.961 . S
C284 H286 0.961 . S
C284 H287 0.960 . S
H285 C284 0.961 . S
H286 C284 0.961 . S
H287 C284 0.960 . S
C288 N289 1.342 . S
C288 C292 1.401 . S
C288 C293 1.499 . S
N289 Co272 1.989 . S
N289 C288 1.342 . S
N289 N290 1.388 . S
N290 Co273 1.993 . S
N290 N289 1.388 . S
N290 C291 1.346 . S
C291 N290 1.346 . S
C291 C292 1.396 . S
C291 C301 1.510 . S
C292 C288 1.401 . S
C292 C291 1.396 . S
C293 C288 1.499 . S
C293 H294 0.959 . S
C293 H295 0.960 . S
C293 H296 0.961 . S
H294 C293 0.959 . S
H295 C293 0.960 . S
H296 C293 0.961 . S
O297 Co272 1.967 . S
O297 C305 1.258 . S
O298 Co273 1.941 . S
O298 C305 1.266 . S
H299 C301 0.959 . S
H300 C301 0.961 . S
C301 C291 1.510 . S
C301 H299 0.959 . S
C301 H300 0.961 . S
C301 H302 0.960 . S
H302 C301 0.960 . S
H303 N283 0.862 . S
O304 Co272 1.920 . S
O304 C277 1.289 . S
C305 O297 1.258 . S
C305 O298 1.266 . S
Co306 O309 1.970 . S
Co306 N323 1.989 1_455 S
Co306 O331 1.967 . S
Co306 O338 1.920 . S
Co307 O310 1.966 1_655 S
Co307 N316 2.022 . S
Co307 N324 1.993 . S
Co307 O332 1.941 . S
C308 O309 1.258 . S
C308 O310 1.263 . S
O309 Co306 1.970 . S
O309 C308 1.258 . S
O310 Co307 1.966 1_455 S
O310 C308 1.263 . S
C311 O312 1.235 . S
C311 O338 1.289 . S
O312 C311 1.235 . S
C313 C315 1.400 . S
C313 N316 1.351 . S
C313 C318 1.501 . S
C314 C315 1.387 . S
C314 N317 1.341 . S
C315 C313 1.400 . S
C315 C314 1.387 . S
N316 Co307 2.022 . S
N316 C313 1.351 . S
N316 N317 1.365 . S
N317 C314 1.341 . S
N317 N316 1.365 . S
N317 H337 0.862 . S
C318 C313 1.501 . S
C318 H319 0.961 . S
C318 H320 0.961 . S
C318 H321 0.960 . S
H319 C318 0.961 . S
H320 C318 0.961 . S
H321 C318 0.960 . S
C322 N323 1.342 . S
C322 C326 1.401 . S
C322 C327 1.499 1_655 S
N323 Co306 1.989 1_655 S
N323 C322 1.342 . S
N323 N324 1.388 . S
N324 Co307 1.993 . S
N324 N323 1.388 . S
N324 C325 1.346 . S
C325 N324 1.346 . S
C325 C326 1.396 . S
C325 C335 1.510 . S
C326 C322 1.401 . S
C326 C325 1.396 . S
C327 C322 1.499 1_455 S
C327 H328 0.959 . S
C327 H329 0.960 . S
C327 H330 0.961 1_455 S
H328 C327 0.959 . S
H329 C327 0.960 . S
H330 C327 0.961 1_655 S
O331 Co306 1.967 . S
O331 C339 1.258 1_455 S
O332 Co307 1.941 . S
O332 C339 1.266 . S
H333 C335 0.959 . S
H334 C335 0.961 . S
C335 C325 1.510 . S
C335 H333 0.959 . S
C335 H334 0.961 . S
C335 H336 0.960 . S
H336 C335 0.960 . S
H337 N317 0.862 . S
O338 Co306 1.920 . S
O338 C311 1.289 . S
C339 O331 1.258 1_655 S
C339 O332 1.266 . S
Co340 O343 1.970 . S
Co340 N357 1.989 . S
Co340 O365 1.967 . S
Co340 O372 1.920 . S
Co341 O344 1.966 . S
Co341 N350 2.022 . S
Co341 N358 1.993 . S
Co341 O366 1.941 . S
C342 O343 1.258 . S
C342 O344 1.263 . S
O343 Co340 1.970 . S
O343 C342 1.258 . S
O344 Co341 1.966 . S
O344 C342 1.263 . S
C345 O346 1.235 . S
C345 O372 1.289 . S
O346 C345 1.235 . S
C347 C349 1.400 . S
C347 N350 1.351 . S
C347 C352 1.501 . S
C348 C349 1.387 . S
C348 N351 1.341 . S
C349 C347 1.400 . S
C349 C348 1.387 . S
N350 Co341 2.022 . S
N350 C347 1.351 . S
N350 N351 1.365 . S
N351 C348 1.341 . S
N351 N350 1.365 . S
N351 H371 0.862 . S
C352 C347 1.501 . S
C352 H353 0.961 . S
C352 H354 0.961 . S
C352 H355 0.960 . S
H353 C352 0.961 . S
H354 C352 0.961 . S
H355 C352 0.960 . S
C356 N357 1.342 . S
C356 C360 1.401 . S
C356 C361 1.499 . S
N357 Co340 1.989 . S
N357 C356 1.342 . S
N357 N358 1.388 . S
N358 Co341 1.993 . S
N358 N357 1.388 . S
N358 C359 1.346 . S
C359 N358 1.346 . S
C359 C360 1.396 . S
C359 C369 1.510 . S
C360 C356 1.401 . S
C360 C359 1.396 . S
C361 C356 1.499 . S
C361 H362 0.959 . S
C361 H363 0.960 . S
C361 H364 0.961 . S
H362 C361 0.959 . S
H363 C361 0.960 . S
H364 C361 0.961 . S
O365 Co340 1.967 . S
O365 C373 1.258 . S
O366 Co341 1.941 . S
O366 C373 1.266 . S
H367 C369 0.959 . S
H368 C369 0.961 . S
C369 C359 1.510 . S
C369 H367 0.959 . S
C369 H368 0.961 . S
C369 H370 0.960 . S
H370 C369 0.960 . S
H371 N351 0.862 . S
O372 Co340 1.920 . S
O372 C345 1.289 . S
C373 O365 1.258 . S
C373 O366 1.266 . S
Co374 O377 1.970 . S
Co374 N391 1.989 1_565 S
Co374 O399 1.967 . S
Co374 O406 1.920 . S
Co375 O378 1.966 1_545 S
Co375 N384 2.022 . S
Co375 N392 1.993 . S
Co375 O400 1.941 . S
C376 O377 1.258 . S
C376 O378 1.263 . S
O377 Co374 1.970 . S
O377 C376 1.258 . S
O378 Co375 1.966 1_565 S
O378 C376 1.263 . S
C379 O380 1.235 . S
C379 O406 1.289 . S
O380 C379 1.235 . S
C381 C383 1.400 . S
C381 N384 1.351 . S
C381 C386 1.501 . S
C382 C383 1.387 . S
C382 N385 1.341 . S
C383 C381 1.400 . S
C383 C382 1.387 . S
N384 Co375 2.022 . S
N384 C381 1.351 . S
N384 N385 1.365 . S
N385 C382 1.341 . S
N385 N384 1.365 . S
N385 H405 0.862 . S
C386 C381 1.501 . S
C386 H387 0.961 . S
C386 H388 0.961 . S
C386 H389 0.960 . S
H387 C386 0.961 . S
H388 C386 0.961 . S
H389 C386 0.960 . S
C390 N391 1.342 . S
C390 C394 1.401 . S
C390 C395 1.499 1_545 S
N391 Co374 1.989 1_545 S
N391 C390 1.342 . S
N391 N392 1.388 . S
N392 Co375 1.993 . S
N392 N391 1.388 . S
N392 C393 1.346 . S
C393 N392 1.346 . S
C393 C394 1.396 . S
C393 C403 1.510 . S
C394 C390 1.401 . S
C394 C393 1.396 . S
C395 C390 1.499 1_565 S
C395 H396 0.959 . S
C395 H397 0.960 . S
C395 H398 0.961 1_565 S
H396 C395 0.959 . S
H397 C395 0.960 . S
H398 C395 0.961 1_545 S
O399 Co374 1.967 . S
O399 C407 1.258 1_565 S
O400 Co375 1.941 . S
O400 C407 1.266 . S
H401 C403 0.959 . S
H402 C403 0.961 . S
C403 C393 1.510 . S
C403 H401 0.959 . S
C403 H402 0.961 . S
C403 H404 0.960 . S
H404 C403 0.960 . S
H405 N385 0.862 . S
O406 Co374 1.920 . S
O406 C379 1.289 . S
C407 O399 1.258 1_545 S
C407 O400 1.266 . S
Co408 O411 1.970 . S
Co408 N425 1.989 1_545 S
Co408 O433 1.967 . S
Co408 O440 1.920 . S
Co409 O412 1.966 1_565 S
Co409 N418 2.022 . S
Co409 N426 1.993 . S
Co409 O434 1.941 . S
C410 O411 1.258 . S
C410 O412 1.263 . S
O411 Co408 1.970 . S
O411 C410 1.258 . S
O412 Co409 1.966 1_545 S
O412 C410 1.263 . S
C413 O414 1.235 . S
C413 O440 1.289 . S
O414 C413 1.235 . S
C415 C417 1.400 . S
C415 N418 1.351 . S
C415 C420 1.501 . S
C416 C417 1.387 . S
C416 N419 1.341 . S
C417 C415 1.400 . S
C417 C416 1.387 . S
N418 Co409 2.022 . S
N418 C415 1.351 . S
N418 N419 1.365 . S
N419 C416 1.341 . S
N419 N418 1.365 . S
N419 H439 0.862 . S
C420 C415 1.501 . S
C420 H421 0.961 . S
C420 H422 0.961 . S
C420 H423 0.960 . S
H421 C420 0.961 . S
H422 C420 0.961 . S
H423 C420 0.960 . S
C424 N425 1.342 . S
C424 C428 1.401 . S
C424 C429 1.499 1_565 S
N425 Co408 1.989 1_565 S
N425 C424 1.342 . S
N425 N426 1.388 . S
N426 Co409 1.993 . S
N426 N425 1.388 . S
N426 C427 1.346 . S
C427 N426 1.346 . S
C427 C428 1.396 . S
C427 C437 1.510 . S
C428 C424 1.401 . S
C428 C427 1.396 . S
C429 C424 1.499 1_545 S
C429 H430 0.959 . S
C429 H431 0.960 . S
C429 H432 0.961 1_545 S
H430 C429 0.959 . S
H431 C429 0.960 . S
H432 C429 0.961 1_565 S
O433 Co408 1.967 . S
O433 C441 1.258 1_545 S
O434 Co409 1.941 . S
O434 C441 1.266 . S
H435 C437 0.959 . S
H436 C437 0.961 . S
C437 C427 1.510 . S
C437 H435 0.959 . S
C437 H436 0.961 . S
C437 H438 0.960 . S
H438 C437 0.960 . S
H439 N419 0.862 . S
O440 Co408 1.920 . S
O440 C413 1.289 . S
C441 O433 1.258 1_565 S
C441 O434 1.266 . S
Co442 O445 1.970 . S
Co442 N459 1.989 1_655 S
Co442 O467 1.967 . S
Co442 O474 1.920 . S
Co443 O446 1.966 1_455 S
Co443 N452 2.022 . S
Co443 N460 1.993 . S
Co443 O468 1.941 . S
C444 O445 1.258 . S
C444 O446 1.263 . S
O445 Co442 1.970 . S
O445 C444 1.258 . S
O446 Co443 1.966 1_655 S
O446 C444 1.263 . S
C447 O448 1.235 . S
C447 O474 1.289 . S
O448 C447 1.235 . S
C449 C451 1.400 . S
C449 N452 1.351 . S
C449 C454 1.501 . S
C450 C451 1.387 . S
C450 N453 1.341 . S
C451 C449 1.400 . S
C451 C450 1.387 . S
N452 Co443 2.022 . S
N452 C449 1.351 . S
N452 N453 1.365 . S
N453 C450 1.341 . S
N453 N452 1.365 . S
N453 H473 0.862 . S
C454 C449 1.501 . S
C454 H455 0.961 . S
C454 H456 0.961 . S
C454 H457 0.960 . S
H455 C454 0.961 . S
H456 C454 0.961 . S
H457 C454 0.960 . S
C458 N459 1.342 . S
C458 C462 1.401 . S
C458 C463 1.499 1_455 S
N459 Co442 1.989 1_455 S
N459 C458 1.342 . S
N459 N460 1.388 . S
N460 Co443 1.993 . S
N460 N459 1.388 . S
N460 C461 1.346 . S
C461 N460 1.346 . S
C461 C462 1.396 . S
C461 C471 1.510 . S
C462 C458 1.401 . S
C462 C461 1.396 . S
C463 C458 1.499 1_655 S
C463 H464 0.959 . S
C463 H465 0.960 . S
C463 H466 0.961 1_655 S
H464 C463 0.959 . S
H465 C463 0.960 . S
H466 C463 0.961 1_455 S
O467 Co442 1.967 . S
O467 C475 1.258 1_655 S
O468 Co443 1.941 . S
O468 C475 1.266 . S
H469 C471 0.959 . S
H470 C471 0.961 . S
C471 C461 1.510 . S
C471 H469 0.959 . S
C471 H470 0.961 . S
C471 H472 0.960 . S
H472 C471 0.960 . S
H473 N453 0.862 . S
O474 Co442 1.920 . S
O474 C447 1.289 . S
C475 O467 1.258 1_455 S
C475 O468 1.266 . S
Co476 O479 1.970 . S
Co476 N493 1.989 . S
Co476 O501 1.967 . S
Co476 O508 1.920 . S
Co477 O480 1.966 . S
Co477 N486 2.022 . S
Co477 N494 1.993 . S
Co477 O502 1.941 . S
C478 O479 1.258 . S
C478 O480 1.263 . S
O479 Co476 1.970 . S
O479 C478 1.258 . S
O480 Co477 1.966 . S
O480 C478 1.263 . S
C481 O482 1.235 . S
C481 O508 1.289 . S
O482 C481 1.235 . S
C483 C485 1.400 . S
C483 N486 1.351 . S
C483 C488 1.501 . S
C484 C485 1.387 . S
C484 N487 1.341 . S
C485 C483 1.400 . S
C485 C484 1.387 . S
N486 Co477 2.022 . S
N486 C483 1.351 . S
N486 N487 1.365 . S
N487 C484 1.341 . S
N487 N486 1.365 . S
N487 H507 0.862 . S
C488 C483 1.501 . S
C488 H489 0.961 . S
C488 H490 0.961 . S
C488 H491 0.960 . S
H489 C488 0.961 . S
H490 C488 0.961 . S
H491 C488 0.960 . S
C492 N493 1.342 . S
C492 C496 1.401 . S
C492 C497 1.499 . S
N493 Co476 1.989 . S
N493 C492 1.342 . S
N493 N494 1.388 . S
N494 Co477 1.993 . S
N494 N493 1.388 . S
N494 C495 1.346 . S
C495 N494 1.346 . S
C495 C496 1.396 . S
C495 C505 1.510 . S
C496 C492 1.401 . S
C496 C495 1.396 . S
C497 C492 1.499 . S
C497 H498 0.959 . S
C497 H499 0.960 . S
C497 H500 0.961 . S
H498 C497 0.959 . S
H499 C497 0.960 . S
H500 C497 0.961 . S
O501 Co476 1.967 . S
O501 C509 1.258 . S
O502 Co477 1.941 . S
O502 C509 1.266 . S
H503 C505 0.959 . S
H504 C505 0.961 . S
C505 C495 1.510 . S
C505 H503 0.959 . S
C505 H504 0.961 . S
C505 H506 0.960 . S
H506 C505 0.960 . S
H507 N487 0.862 . S
O508 Co476 1.920 . S
O508 C481 1.289 . S
C509 O501 1.258 . S
C509 O502 1.266 . S
Co510 O513 1.970 . S
Co510 N527 1.989 . S
Co510 O535 1.967 . S
Co510 O542 1.920 . S
Co511 O514 1.966 . S
Co511 N520 2.022 . S
Co511 N528 1.993 . S
Co511 O536 1.941 . S
C512 O513 1.258 . S
C512 O514 1.263 . S
O513 Co510 1.970 . S
O513 C512 1.258 . S
O514 Co511 1.966 . S
O514 C512 1.263 . S
C515 O516 1.235 . S
C515 O542 1.289 . S
O516 C515 1.235 . S
C517 C519 1.400 . S
C517 N520 1.351 . S
C517 C522 1.501 . S
C518 C519 1.387 . S
C518 N521 1.341 . S
C519 C517 1.400 . S
C519 C518 1.387 . S
N520 Co511 2.022 . S
N520 C517 1.351 . S
N520 N521 1.365 . S
N521 C518 1.341 . S
N521 N520 1.365 . S
N521 H541 0.862 . S
C522 C517 1.501 . S
C522 H523 0.961 . S
C522 H524 0.961 . S
C522 H525 0.960 . S
H523 C522 0.961 . S
H524 C522 0.961 . S
H525 C522 0.960 . S
C526 N527 1.342 . S
C526 C530 1.401 . S
C526 C531 1.499 . S
N527 Co510 1.989 . S
N527 C526 1.342 . S
N527 N528 1.388 . S
N528 Co511 1.993 . S
N528 N527 1.388 . S
N528 C529 1.346 . S
C529 N528 1.346 . S
C529 C530 1.396 . S
C529 C539 1.510 . S
C530 C526 1.401 . S
C530 C529 1.396 . S
C531 C526 1.499 . S
C531 H532 0.959 . S
C531 H533 0.960 . S
C531 H534 0.961 . S
H532 C531 0.959 . S
H533 C531 0.960 . S
H534 C531 0.961 . S
O535 Co510 1.967 . S
O535 C543 1.258 . S
O536 Co511 1.941 . S
O536 C543 1.266 . S
H537 C539 0.959 . S
H538 C539 0.961 . S
C539 C529 1.510 . S
C539 H537 0.959 . S
C539 H538 0.961 . S
C539 H540 0.960 . S
H540 C539 0.960 . S
H541 N521 0.862 . S
O542 Co510 1.920 . S
O542 C515 1.289 . S
C543 O535 1.258 . S
C543 O536 1.266 . S
Co544 O547 1.970 . S
Co544 N561 1.989 . S
Co544 O569 1.967 . S
Co544 O576 1.920 . S
Co545 O548 1.966 . S
Co545 N554 2.022 . S
Co545 N562 1.993 . S
Co545 O570 1.941 . S
C546 O547 1.258 . S
C546 O548 1.263 . S
O547 Co544 1.970 . S
O547 C546 1.258 . S
O548 Co545 1.966 . S
O548 C546 1.263 . S
C549 O550 1.235 . S
C549 O576 1.289 . S
O550 C549 1.235 . S
C551 C553 1.400 . S
C551 N554 1.351 . S
C551 C556 1.501 . S
C552 C553 1.387 . S
C552 N555 1.341 . S
C553 C551 1.400 . S
C553 C552 1.387 . S
N554 Co545 2.022 . S
N554 C551 1.351 . S
N554 N555 1.365 . S
N555 C552 1.341 . S
N555 N554 1.365 . S
N555 H575 0.862 . S
C556 C551 1.501 . S
C556 H557 0.961 . S
C556 H558 0.961 . S
C556 H559 0.960 . S
H557 C556 0.961 . S
H558 C556 0.961 . S
H559 C556 0.960 . S
C560 N561 1.342 . S
C560 C564 1.401 . S
C560 C565 1.499 . S
N561 Co544 1.989 . S
N561 C560 1.342 . S
N561 N562 1.388 . S
N562 Co545 1.993 . S
N562 N561 1.388 . S
N562 C563 1.346 . S
C563 N562 1.346 . S
C563 C564 1.396 . S
C563 C573 1.510 . S
C564 C560 1.401 . S
C564 C563 1.396 . S
C565 C560 1.499 . S
C565 H566 0.959 . S
C565 H567 0.960 . S
C565 H568 0.961 . S
H566 C565 0.959 . S
H567 C565 0.960 . S
H568 C565 0.961 . S
O569 Co544 1.967 . S
O569 C577 1.258 . S
O570 Co545 1.941 . S
O570 C577 1.266 . S
H571 C573 0.959 . S
H572 C573 0.961 . S
C573 C563 1.510 . S
C573 H571 0.959 . S
C573 H572 0.961 . S
C573 H574 0.960 . S
H574 C573 0.960 . S
H575 N555 0.862 . S
O576 Co544 1.920 . S
O576 C549 1.289 . S
C577 O569 1.258 . S
C577 O570 1.266 . S
Co578 O581 1.970 . S
Co578 N595 1.989 . S
Co578 O603 1.967 . S
Co578 O610 1.920 . S
Co579 O582 1.966 . S
Co579 N588 2.022 . S
Co579 N596 1.993 . S
Co579 O604 1.941 . S
C580 O581 1.258 . S
C580 O582 1.263 . S
O581 Co578 1.970 . S
O581 C580 1.258 . S
O582 Co579 1.966 . S
O582 C580 1.263 . S
C583 O584 1.235 . S
C583 O610 1.289 . S
O584 C583 1.235 . S
C585 C587 1.400 . S
C585 N588 1.351 . S
C585 C590 1.501 . S
C586 C587 1.387 . S
C586 N589 1.341 . S
C587 C585 1.400 . S
C587 C586 1.387 . S
N588 Co579 2.022 . S
N588 C585 1.351 . S
N588 N589 1.365 . S
N589 C586 1.341 . S
N589 N588 1.365 . S
N589 H609 0.862 . S
C590 C585 1.501 . S
C590 H591 0.961 . S
C590 H592 0.961 . S
C590 H593 0.960 . S
H591 C590 0.961 . S
H592 C590 0.961 . S
H593 C590 0.960 . S
C594 N595 1.342 . S
C594 C598 1.401 . S
C594 C599 1.499 . S
N595 Co578 1.989 . S
N595 C594 1.342 . S
N595 N596 1.388 . S
N596 Co579 1.993 . S
N596 N595 1.388 . S
N596 C597 1.346 . S
C597 N596 1.346 . S
C597 C598 1.396 . S
C597 C607 1.510 . S
C598 C594 1.401 . S
C598 C597 1.396 . S
C599 C594 1.499 . S
C599 H600 0.959 . S
C599 H601 0.960 . S
C599 H602 0.961 . S
H600 C599 0.959 . S
H601 C599 0.960 . S
H602 C599 0.961 . S
O603 Co578 1.967 . S
O603 C611 1.258 . S
O604 Co579 1.941 . S
O604 C611 1.266 . S
H605 C607 0.959 . S
H606 C607 0.961 . S
C607 C597 1.510 . S
C607 H605 0.959 . S
C607 H606 0.961 . S
C607 H608 0.960 . S
H608 C607 0.960 . S
H609 N589 0.862 . S
O610 Co578 1.920 . S
O610 C583 1.289 . S
C611 O603 1.258 . S
C611 O604 1.266 . S
C612 C613 1.369 1_554 S
C612 C614 1.419 . S
C612 H616 0.930 . S
C613 C612 1.369 1_556 S
C613 C622 1.429 . S
C614 C612 1.419 . S
C614 C615 1.363 . S
C614 H617 0.929 . S
C615 C614 1.363 . S
C615 C621 1.428 1_554 S
H616 C612 0.930 . S
H617 C614 0.929 . S
S618 N619 1.613 . S
S618 N620 1.610 . S
N619 S618 1.613 . S
N619 C622 1.350 . S
N620 S618 1.610 . S
N620 C621 1.351 . S
C621 C615 1.428 1_556 S
C621 N620 1.351 . S
C621 C622 1.434 . S
C622 C613 1.429 . S
C622 N619 1.350 . S
C622 C621 1.434 . S
C623 C624 1.369 . S
C623 C625 1.419 1_564 S
C623 H627 0.930 . S
C624 C623 1.369 . S
C624 C633 1.429 . S
C625 C623 1.419 1_546 S
C625 C626 1.363 . S
C625 H628 0.929 . S
C626 C625 1.363 . S
C626 C632 1.428 . S
H627 C623 0.930 . S
H628 C625 0.929 . S
S629 N630 1.613 1_556 S
S629 N631 1.610 1_565 S
N630 S629 1.613 1_554 S
N630 C633 1.350 . S
N631 S629 1.610 1_545 S
N631 C632 1.351 . S
C632 C626 1.428 . S
C632 N631 1.351 . S
C632 C633 1.434 1_546 S
C633 C624 1.429 . S
C633 N630 1.350 . S
C633 C632 1.434 1_564 S
C634 C635 1.369 1_655 S
C634 C636 1.419 . S
C634 H638 0.930 . S
C635 C634 1.369 1_455 S
C635 C644 1.429 1_554 S
C636 C634 1.419 . S
C636 C637 1.363 1_554 S
C636 H639 0.929 . S
C637 C636 1.363 1_556 S
C637 C643 1.428 1_655 S
H638 C634 0.930 . S
H639 C636 0.929 . S
S640 N641 1.613 . S
S640 N642 1.610 . S
N641 S640 1.613 . S
N641 C644 1.350 . S
N642 S640 1.610 . S
N642 C643 1.351 . S
C643 C637 1.428 1_455 S
C643 N642 1.351 . S
C643 C644 1.434 . S
C644 C635 1.429 1_556 S
C644 N641 1.350 . S
C644 C643 1.434 . S
C645 C646 1.369 . S
C645 C647 1.419 . S
C645 H649 0.930 . S
C646 C645 1.369 . S
C646 C655 1.429 1_556 S
C647 C645 1.419 . S
C647 C648 1.363 1_556 S
C647 H650 0.929 . S
C648 C647 1.363 1_554 S
C648 C654 1.428 . S
H649 C645 0.930 . S
H650 C647 0.929 . S
S651 N652 1.613 . S
S651 N653 1.610 . S
N652 S651 1.613 . S
N652 C655 1.350 . S
N653 S651 1.610 . S
N653 C654 1.351 . S
C654 C648 1.428 . S
C654 N653 1.351 . S
C654 C655 1.434 . S
C655 C646 1.429 1_554 S
C655 N652 1.350 . S
C655 C654 1.434 . S
C656 C657 1.369 . S
C656 C658 1.419 1_545 S
C656 H660 0.930 . S
C657 C656 1.369 . S
C657 C666 1.429 1_556 S
C658 C656 1.419 1_565 S
C658 C659 1.363 1_556 S
C658 H661 0.929 . S
C659 C658 1.363 1_554 S
C659 C665 1.428 . S
H660 C656 0.930 . S
H661 C658 0.929 . S
S662 N663 1.613 . S
S662 N664 1.610 1_545 S
N663 S662 1.613 . S
N663 C666 1.350 . S
N664 S662 1.610 1_565 S
N664 C665 1.351 . S
C665 C659 1.428 . S
C665 N664 1.351 . S
C665 C666 1.434 1_565 S
C666 C657 1.429 1_554 S
C666 N663 1.350 . S
C666 C665 1.434 1_545 S
C667 C668 1.369 . S
C667 C669 1.419 1_656 S
C667 H671 0.930 . S
C668 C667 1.369 . S
C668 C677 1.429 . S
C669 C667 1.419 1_454 S
C669 C670 1.363 . S
C669 H672 0.929 . S
C670 C669 1.363 . S
C670 C676 1.433 . S
H671 C667 0.930 . S
H672 C669 0.929 . S
S673 N674 1.613 1_455 S
S673 N675 1.610 . S
N674 S673 1.613 1_655 S
N674 C677 1.350 . S
N675 S673 1.610 . S
N675 C676 1.350 1_556 S
C676 C670 1.433 . S
C676 N675 1.350 1_554 S
C676 C677 1.429 1_454 S
C677 C668 1.429 . S
C677 N674 1.350 . S
C677 C676 1.429 1_656 S
C678 C679 1.369 . S
C678 C680 1.419 . S
C678 H682 0.930 . S
C679 C678 1.369 . S
C679 C688 1.429 . S
C680 C678 1.419 . S
C680 C681 1.363 . S
C680 H683 0.929 . S
C681 C680 1.363 . S
C681 C687 1.428 . S
H682 C678 0.930 . S
H683 C680 0.929 . S
S684 N685 1.613 . S
S684 N686 1.610 . S
N685 S684 1.613 . S
N685 C688 1.350 . S
N686 S684 1.610 . S
N686 C687 1.351 . S
C687 C681 1.428 . S
C687 N686 1.351 . S
C687 C688 1.434 . S
C688 C679 1.429 . S
C688 N685 1.350 . S
C688 C687 1.434 . S
C689 C690 1.369 . S
C689 C691 1.419 . S
C689 H693 0.930 . S
C690 C689 1.369 . S
C690 C699 1.429 . S
C691 C689 1.419 . S
C691 C692 1.363 . S
C691 H694 0.929 . S
C692 C691 1.363 . S
C692 C698 1.428 . S
H693 C689 0.930 . S
H694 C691 0.929 . S
S695 N696 1.613 . S
S695 N697 1.610 . S
N696 S695 1.613 . S
N696 C699 1.350 . S
N697 S695 1.610 . S
N697 C698 1.351 . S
C698 C692 1.428 . S
C698 N697 1.351 . S
C698 C699 1.434 . S
C699 C690 1.429 . S
C699 N696 1.350 . S
C699 C698 1.434 . S
C700 C701 1.369 . S
C700 C702 1.419 . S
C700 H704 0.930 . S
C701 C700 1.369 . S
C701 C710 1.429 . S
C702 C700 1.419 . S
C702 C703 1.363 . S
C702 H705 0.929 . S
C703 C702 1.363 . S
C703 C709 1.428 . S
H704 C700 0.930 . S
H705 C702 0.929 . S
S706 N707 1.613 . S
S706 N708 1.610 . S
N707 S706 1.613 . S
N707 C710 1.350 . S
N708 S706 1.610 . S
N708 C709 1.351 . S
C709 C703 1.428 . S
C709 N708 1.351 . S
C709 C710 1.434 . S
C710 C701 1.429 . S
C710 N707 1.350 . S
C710 C709 1.434 . S
C711 C712 1.369 . S
C711 C713 1.419 . S
C711 H715 0.930 . S
C712 C711 1.369 . S
C712 C721 1.429 . S
C713 C711 1.419 . S
C713 C714 1.363 . S
C713 H716 0.929 . S
C714 C713 1.363 . S
C714 C720 1.428 . S
H715 C711 0.930 . S
H716 C713 0.929 . S
S717 N718 1.613 . S
S717 N719 1.610 . S
N718 S717 1.613 . S
N718 C721 1.350 . S
N719 S717 1.610 . S
N719 C720 1.351 . S
C720 C714 1.428 . S
C720 N719 1.351 . S
C720 C721 1.434 . S
C721 C712 1.429 . S
C721 N718 1.350 . S
C721 C720 1.434 . S
C722 C723 1.369 . S
C722 C724 1.419 . S
C722 H726 0.930 . S
C723 C722 1.369 . S
C723 C732 1.429 . S
C724 C722 1.419 . S
C724 C725 1.363 . S
C724 H727 0.929 . S
C725 C724 1.363 . S
C725 C731 1.428 . S
H726 C722 0.930 . S
H727 C724 0.929 . S
S728 N729 1.613 . S
S728 N730 1.610 . S
N729 S728 1.613 . S
N729 C732 1.350 . S
N730 S728 1.610 . S
N730 C731 1.351 . S
C731 C725 1.428 . S
C731 N730 1.351 . S
C731 C732 1.434 . S
C732 C723 1.429 . S
C732 N729 1.350 . S
C732 C731 1.434 . S
C733 C734 1.369 . S
C733 C735 1.419 . S
C733 H737 0.930 . S
C734 C733 1.369 . S
C734 C743 1.429 . S
C735 C733 1.419 . S
C735 C736 1.363 . S
C735 H738 0.929 . S
C736 C735 1.363 . S
C736 C742 1.428 . S
H737 C733 0.930 . S
H738 C735 0.929 . S
S739 N740 1.613 . S
S739 N741 1.610 . S
N740 S739 1.613 . S
N740 C743 1.350 . S
N741 S739 1.610 . S
N741 C742 1.351 . S
C742 C736 1.428 . S
C742 N741 1.351 . S
C742 C743 1.434 . S
C743 C734 1.429 . S
C743 N740 1.350 . S
C743 C742 1.434 . S
C744 C745 1.369 . S
C744 C746 1.419 . S
C744 H748 0.930 . S
C745 C744 1.369 . S
C745 C754 1.429 . S
C746 C744 1.419 . S
C746 C747 1.363 . S
C746 H749 0.929 . S
C747 C746 1.363 . S
C747 C753 1.428 . S
H748 C744 0.930 . S
H749 C746 0.929 . S
S750 N751 1.613 . S
S750 N752 1.610 . S
N751 S750 1.613 . S
N751 C754 1.350 . S
N752 S750 1.610 . S
N752 C753 1.351 . S
C753 C747 1.428 . S
C753 N752 1.351 . S
C753 C754 1.434 . S
C754 C745 1.429 . S
C754 N751 1.350 . S
C754 C753 1.434 . S
C755 C756 1.369 . S
C755 C757 1.419 . S
C755 H759 0.930 . S
C756 C755 1.369 . S
C756 C765 1.429 . S
C757 C755 1.419 . S
C757 C758 1.363 . S
C757 H760 0.929 . S
C758 C757 1.363 . S
C758 C764 1.428 . S
H759 C755 0.930 . S
H760 C757 0.929 . S
S761 N762 1.613 . S
S761 N763 1.610 . S
N762 S761 1.613 . S
N762 C765 1.350 . S
N763 S761 1.610 . S
N763 C764 1.351 . S
C764 C758 1.428 . S
C764 N763 1.351 . S
C764 C765 1.434 . S
C765 C756 1.429 . S
C765 N762 1.350 . S
C765 C764 1.434 . S
C766 C767 1.369 . S
C766 C768 1.419 . S
C766 H770 0.930 . S
C767 C766 1.369 . S
C767 C776 1.429 . S
C768 C766 1.419 . S
C768 C769 1.363 . S
C768 H771 0.929 . S
C769 C768 1.363 . S
C769 C775 1.428 . S
H770 C766 0.930 . S
H771 C768 0.929 . S
S772 N773 1.613 . S
S772 N774 1.610 . S
N773 S772 1.613 . S
N773 C776 1.350 . S
N774 S772 1.610 . S
N774 C775 1.351 . S
C775 C769 1.428 . S
C775 N774 1.351 . S
C775 C776 1.434 . S
C776 C767 1.429 . S
C776 N773 1.350 . S
C776 C775 1.434 . S
C777 C778 1.369 . S
C777 C779 1.419 . S
C777 H781 0.930 . S
C778 C777 1.369 . S
C778 C787 1.429 . S
C779 C777 1.419 . S
C779 C780 1.363 . S
C779 H782 0.929 . S
C780 C779 1.363 . S
C780 C786 1.428 . S
H781 C777 0.930 . S
H782 C779 0.929 . S
S783 N784 1.613 . S
S783 N785 1.610 . S
N784 S783 1.613 . S
N784 C787 1.350 . S
N785 S783 1.610 . S
N785 C786 1.351 . S
C786 C780 1.428 . S
C786 N785 1.351 . S
C786 C787 1.434 . S
C787 C778 1.429 . S
C787 N784 1.350 . S
C787 C786 1.434 . S
C788 C789 1.369 . S
C788 C790 1.419 . S
C788 H792 0.930 . S
C789 C788 1.369 . S
C789 C798 1.429 . S
C790 C788 1.419 . S
C790 C791 1.363 . S
C790 H793 0.929 . S
C791 C790 1.363 . S
C791 C797 1.428 . S
H792 C788 0.930 . S
H793 C790 0.929 . S
S794 N795 1.613 . S
S794 N796 1.610 . S
N795 S794 1.613 . S
N795 C798 1.350 . S
N796 S794 1.610 . S
N796 C797 1.351 . S
C797 C791 1.428 . S
C797 N796 1.351 . S
C797 C798 1.434 . S
C798 C789 1.429 . S
C798 N795 1.350 . S
C798 C797 1.434 . S
C799 C800 1.369 . S
C799 C801 1.419 . S
C799 H803 0.930 . S
C800 C799 1.369 . S
C800 C809 1.429 . S
C801 C799 1.419 . S
C801 C802 1.363 . S
C801 H804 0.929 . S
C802 C801 1.363 . S
C802 C808 1.428 . S
H803 C799 0.930 . S
H804 C801 0.929 . S
S805 N806 1.613 . S
S805 N807 1.610 . S
N806 S805 1.613 . S
N806 C809 1.350 . S
N807 S805 1.610 . S
N807 C808 1.351 . S
C808 C802 1.428 . S
C808 N807 1.351 . S
C808 C809 1.434 . S
C809 C800 1.429 . S
C809 N806 1.350 . S
C809 C808 1.434 . S
C810 C811 1.369 . S
C810 C812 1.419 . S
C810 H814 0.930 . S
C811 C810 1.369 . S
C811 C820 1.429 . S
C812 C810 1.419 . S
C812 C813 1.363 . S
C812 H815 0.929 . S
C813 C812 1.363 . S
C813 C819 1.428 . S
H814 C810 0.930 . S
H815 C812 0.929 . S
S816 N817 1.613 . S
S816 N818 1.610 . S
N817 S816 1.613 . S
N817 C820 1.350 . S
N818 S816 1.610 . S
N818 C819 1.351 . S
C819 C813 1.428 . S
C819 N818 1.351 . S
C819 C820 1.434 . S
C820 C811 1.429 . S
C820 N817 1.350 . S
C820 C819 1.434 . S
C821 C822 1.369 . S
C821 C823 1.419 . S
C821 H825 0.930 . S
C822 C821 1.369 . S
C822 C831 1.429 . S
C823 C821 1.419 . S
C823 C824 1.363 . S
C823 H826 0.929 . S
C824 C823 1.363 . S
C824 C830 1.428 . S
H825 C821 0.930 . S
H826 C823 0.929 . S
S827 N828 1.613 . S
S827 N829 1.610 . S
N828 S827 1.613 . S
N828 C831 1.350 . S
N829 S827 1.610 . S
N829 C830 1.351 . S
C830 C824 1.428 . S
C830 N829 1.351 . S
C830 C831 1.434 . S
C831 C822 1.429 . S
C831 N828 1.350 . S
C831 C830 1.434 . S
C832 C833 1.369 . S
C832 C834 1.419 . S
C832 H836 0.930 . S
C833 C832 1.369 . S
C833 C842 1.429 . S
C834 C832 1.419 . S
C834 C835 1.363 . S
C834 H837 0.929 . S
C835 C834 1.363 . S
C835 C841 1.428 . S
H836 C832 0.930 . S
H837 C834 0.929 . S
S838 N839 1.613 . S
S838 N840 1.610 . S
N839 S838 1.613 . S
N839 C842 1.350 . S
N840 S838 1.610 . S
N840 C841 1.351 . S
C841 C835 1.428 . S
C841 N840 1.351 . S
C841 C842 1.434 . S
C842 C833 1.429 . S
C842 N839 1.350 . S
C842 C841 1.434 . S
C843 C844 1.369 . S
C843 C845 1.419 . S
C843 H847 0.930 . S
C844 C843 1.369 . S
C844 C853 1.429 . S
C845 C843 1.419 . S
C845 C846 1.363 . S
C845 H848 0.929 . S
C846 C845 1.363 . S
C846 C852 1.428 . S
H847 C843 0.930 . S
H848 C845 0.929 . S
S849 N850 1.613 . S
S849 N851 1.610 . S
N850 S849 1.613 . S
N850 C853 1.350 . S
N851 S849 1.610 . S
N851 C852 1.351 . S
C852 C846 1.428 . S
C852 N851 1.351 . S
C852 C853 1.434 . S
C853 C844 1.429 . S
C853 N850 1.350 . S
C853 C852 1.434 . S
C854 C855 1.369 . S
C854 C856 1.419 . S
C854 H858 0.930 . S
C855 C854 1.369 . S
C855 C864 1.429 . S
C856 C854 1.419 . S
C856 C857 1.363 . S
C856 H859 0.929 . S
C857 C856 1.363 . S
C857 C863 1.428 . S
H858 C854 0.930 . S
H859 C856 0.929 . S
S860 N861 1.613 . S
S860 N862 1.610 . S
N861 S860 1.613 . S
N861 C864 1.350 . S
N862 S860 1.610 . S
N862 C863 1.351 . S
C863 C857 1.428 . S
C863 N862 1.351 . S
C863 C864 1.434 . S
C864 C855 1.429 . S
C864 N861 1.350 . S
C864 C863 1.434 . S
C865 C866 1.369 . S
C865 C867 1.419 . S
C865 H869 0.930 . S
C866 C865 1.369 . S
C866 C875 1.429 . S
C867 C865 1.419 . S
C867 C868 1.363 . S
C867 H870 0.929 . S
C868 C867 1.363 . S
C868 C874 1.428 . S
H869 C865 0.930 . S
H870 C867 0.929 . S
S871 N872 1.613 . S
S871 N873 1.610 . S
N872 S871 1.613 . S
N872 C875 1.350 . S
N873 S871 1.610 . S
N873 C874 1.351 . S
C874 C868 1.428 . S
C874 N873 1.351 . S
C874 C875 1.434 . S
C875 C866 1.429 . S
C875 N872 1.350 . S
C875 C874 1.434 . S
C876 C877 1.369 . S
C876 C878 1.419 1_554 S
C876 H880 0.930 . S
C877 C876 1.369 . S
C877 C886 1.429 1_655 S
C878 C876 1.419 1_556 S
C878 C879 1.363 1_655 S
C878 H881 0.929 . S
C879 C878 1.363 1_455 S
C879 C885 1.428 . S
H880 C876 0.930 . S
H881 C878 0.929 . S
S882 N883 1.613 . S
S882 N884 1.610 1_554 S
N883 S882 1.613 . S
N883 C886 1.350 . S
N884 S882 1.610 1_556 S
N884 C885 1.351 . S
C885 C879 1.428 . S
C885 N884 1.351 . S
C885 C886 1.434 1_556 S
C886 C877 1.429 1_455 S
C886 N883 1.350 . S
C886 C885 1.434 1_554 S
C887 C888 1.369 . S
C887 C889 1.419 1_556 S
C887 H891 0.930 . S
C888 C887 1.369 . S
C888 C897 1.429 . S
C889 C887 1.419 1_554 S
C889 C890 1.363 . S
C889 H892 0.929 . S
C890 C889 1.363 . S
C890 C896 1.428 . S
H891 C887 0.930 . S
H892 C889 0.929 . S
S893 N894 1.613 1_554 S
S893 N895 1.610 . S
N894 S893 1.613 1_556 S
N894 C897 1.350 . S
N895 S893 1.610 . S
N895 C896 1.351 . S
C896 C890 1.428 . S
C896 N895 1.351 . S
C896 C897 1.434 1_554 S
C897 C888 1.429 . S
C897 N894 1.350 . S
C897 C896 1.434 1_556 S
C898 C899 1.369 . S
C898 C900 1.419 1_556 S
C898 H902 0.930 . S
C899 C898 1.369 . S
C899 C908 1.429 1_565 S
C900 C898 1.419 1_554 S
C900 C901 1.363 1_565 S
C900 H903 0.929 . S
C901 C900 1.363 1_545 S
C901 C907 1.428 . S
H902 C898 0.930 . S
H903 C900 0.929 . S
S904 N905 1.613 . S
S904 N906 1.610 1_556 S
N905 S904 1.613 . S
N905 C908 1.350 . S
N906 S904 1.610 1_554 S
N906 C907 1.351 . S
C907 C901 1.428 . S
C907 N906 1.351 . S
C907 C908 1.434 1_554 S
C908 C899 1.429 1_545 S
C908 N905 1.350 . S
C908 C907 1.434 1_556 S
C909 C910 1.369 . S
C909 C911 1.419 . S
C909 H913 0.930 . S
C910 C909 1.369 . S
C910 C919 1.429 . S
C911 C909 1.419 . S
C911 C912 1.363 . S
C911 H914 0.929 . S
C912 C911 1.363 . S
C912 C918 1.428 . S
H913 C909 0.930 . S
H914 C911 0.929 . S
S915 N916 1.613 . S
S915 N917 1.610 . S
N916 S915 1.613 . S
N916 C919 1.350 . S
N917 S915 1.610 . S
N917 C918 1.351 . S
C918 C912 1.428 . S
C918 N917 1.351 . S
C918 C919 1.434 . S
C919 C910 1.429 . S
C919 N916 1.350 . S
C919 C918 1.434 . S
C920 C921 1.369 . S
C920 C922 1.419 . S
C920 H924 0.930 . S
C921 C920 1.369 . S
C921 C930 1.429 . S
C922 C920 1.419 . S
C922 C923 1.363 . S
C922 H925 0.929 . S
C923 C922 1.363 . S
C923 C929 1.428 . S
H924 C920 0.930 . S
H925 C922 0.929 . S
S926 N927 1.613 . S
S926 N928 1.610 . S
N927 S926 1.613 . S
N927 C930 1.350 . S
N928 S926 1.610 . S
N928 C929 1.351 . S
C929 C923 1.428 . S
C929 N928 1.351 . S
C929 C930 1.434 . S
C930 C921 1.429 . S
C930 N927 1.350 . S
C930 C929 1.434 . S
C931 C932 1.369 . S
C931 C933 1.419 . S
C931 H935 0.930 . S
C932 C931 1.369 . S
C932 C941 1.429 . S
C933 C931 1.419 . S
C933 C934 1.363 . S
C933 H936 0.929 . S
C934 C933 1.363 . S
C934 C940 1.428 . S
H935 C931 0.930 . S
H936 C933 0.929 . S
S937 N938 1.613 . S
S937 N939 1.610 . S
N938 S937 1.613 . S
N938 C941 1.350 . S
N939 S937 1.610 . S
N939 C940 1.351 . S
C940 C934 1.428 . S
C940 N939 1.351 . S
C940 C941 1.434 . S
C941 C932 1.429 . S
C941 N938 1.350 . S
C941 C940 1.434 . S
C942 C943 1.369 . S
C942 C944 1.419 . S
C942 H946 0.930 . S
C943 C942 1.369 . S
C943 C952 1.429 . S
C944 C942 1.419 . S
C944 C945 1.363 . S
C944 H947 0.929 . S
C945 C944 1.363 . S
C945 C951 1.428 . S
H946 C942 0.930 . S
H947 C944 0.929 . S
S948 N949 1.613 . S
S948 N950 1.610 . S
N949 S948 1.613 . S
N949 C952 1.350 . S
N950 S948 1.610 . S
N950 C951 1.351 . S
C951 C945 1.428 . S
C951 N950 1.351 . S
C951 C952 1.434 . S
C952 C943 1.429 . S
C952 N949 1.350 . S
C952 C951 1.434 . S
C953 C954 1.369 . S
C953 C955 1.419 . S
C953 H957 0.930 . S
C954 C953 1.369 . S
C954 C963 1.429 . S
C955 C953 1.419 . S
C955 C956 1.363 . S
C955 H958 0.929 . S
C956 C955 1.363 . S
C956 C962 1.428 . S
H957 C953 0.930 . S
H958 C955 0.929 . S
S959 N960 1.613 . S
S959 N961 1.610 . S
N960 S959 1.613 . S
N960 C963 1.350 . S
N961 S959 1.610 . S
N961 C962 1.351 . S
C962 C956 1.428 . S
C962 N961 1.351 . S
C962 C963 1.434 . S
C963 C954 1.429 . S
C963 N960 1.350 . S
C963 C962 1.434 . S
C964 C965 1.369 . S
C964 C966 1.419 . S
C964 H968 0.930 . S
C965 C964 1.369 . S
C965 C974 1.429 . S
C966 C964 1.419 . S
C966 C967 1.363 . S
C966 H969 0.929 . S
C967 C966 1.363 . S
C967 C973 1.428 . S
H968 C964 0.930 . S
H969 C966 0.929 . S
S970 N971 1.613 . S
S970 N972 1.610 . S
N971 S970 1.613 . S
N971 C974 1.350 . S
N972 S970 1.610 . S
N972 C973 1.351 . S
C973 C967 1.428 . S
C973 N972 1.351 . S
C973 C974 1.434 . S
C974 C965 1.429 . S
C974 N971 1.350 . S
C974 C973 1.434 . S
C975 C976 1.369 . S
C975 C977 1.419 . S
C975 H979 0.930 . S
C976 C975 1.369 . S
C976 C985 1.429 . S
C977 C975 1.419 . S
C977 C978 1.363 . S
C977 H980 0.929 . S
C978 C977 1.363 . S
C978 C984 1.428 . S
H979 C975 0.930 . S
H980 C977 0.929 . S
S981 N982 1.613 . S
S981 N983 1.610 . S
N982 S981 1.613 . S
N982 C985 1.350 . S
N983 S981 1.610 . S
N983 C984 1.351 . S
C984 C978 1.428 . S
C984 N983 1.351 . S
C984 C985 1.434 . S
C985 C976 1.429 . S
C985 N982 1.350 . S
C985 C984 1.434 . S
C986 C987 1.369 . S
C986 C988 1.419 . S
C986 H990 0.930 . S
C987 C986 1.369 . S
C987 C996 1.429 . S
C988 C986 1.419 . S
C988 C989 1.363 . S
C988 H991 0.929 . S
C989 C988 1.363 . S
C989 C995 1.428 . S
H990 C986 0.930 . S
H991 C988 0.929 . S
S992 N993 1.613 . S
S992 N994 1.610 . S
N993 S992 1.613 . S
N993 C996 1.350 . S
N994 S992 1.610 . S
N994 C995 1.351 . S
C995 C989 1.428 . S
C995 N994 1.351 . S
C995 C996 1.434 . S
C996 C987 1.429 . S
C996 N993 1.350 . S
C996 C995 1.434 . S
C997 C998 1.369 . S
C997 C999 1.419 . S
C997 H1001 0.930 . S
C998 C997 1.369 . S
C998 C1007 1.429 . S
C999 C997 1.419 . S
C999 C1000 1.363 . S
C999 H1002 0.929 . S
C1000 C999 1.363 . S
C1000 C1006 1.428 . S
H1001 C997 0.930 . S
H1002 C999 0.929 . S
S1003 N1004 1.613 . S
S1003 N1005 1.610 . S
N1004 S1003 1.613 . S
N1004 C1007 1.350 . S
N1005 S1003 1.610 . S
N1005 C1006 1.351 . S
C1006 C1000 1.428 . S
C1006 N1005 1.351 . S
C1006 C1007 1.434 . S
C1007 C998 1.429 . S
C1007 N1004 1.350 . S
C1007 C1006 1.434 . S
C1008 C1009 1.369 . S
C1008 C1010 1.419 . S
C1008 H1012 0.930 . S
C1009 C1008 1.369 . S
C1009 C1018 1.429 . S
C1010 C1008 1.419 . S
C1010 C1011 1.363 . S
C1010 H1013 0.929 . S
C1011 C1010 1.363 . S
C1011 C1017 1.428 . S
H1012 C1008 0.930 . S
H1013 C1010 0.929 . S
S1014 N1015 1.613 . S
S1014 N1016 1.610 . S
N1015 S1014 1.613 . S
N1015 C1018 1.350 . S
N1016 S1014 1.610 . S
N1016 C1017 1.351 . S
C1017 C1011 1.428 . S
C1017 N1016 1.351 . S
C1017 C1018 1.434 . S
C1018 C1009 1.429 . S
C1018 N1015 1.350 . S
C1018 C1017 1.434 . S
C1019 C1020 1.369 . S
C1019 C1021 1.419 . S
C1019 H1023 0.930 . S
C1020 C1019 1.369 . S
C1020 C1029 1.429 . S
C1021 C1019 1.419 . S
C1021 C1022 1.363 . S
C1021 H1024 0.929 . S
C1022 C1021 1.363 . S
C1022 C1028 1.428 . S
H1023 C1019 0.930 . S
H1024 C1021 0.929 . S
S1025 N1026 1.613 . S
S1025 N1027 1.610 . S
N1026 S1025 1.613 . S
N1026 C1029 1.350 . S
N1027 S1025 1.610 . S
N1027 C1028 1.351 . S
C1028 C1022 1.428 . S
C1028 N1027 1.351 . S
C1028 C1029 1.434 . S
C1029 C1020 1.429 . S
C1029 N1026 1.350 . S
C1029 C1028 1.434 . S
C1030 C1031 1.369 . S
C1030 C1032 1.419 . S
C1030 H1034 0.930 . S
C1031 C1030 1.369 . S
C1031 C1040 1.429 . S
C1032 C1030 1.419 . S
C1032 C1033 1.363 . S
C1032 H1035 0.929 . S
C1033 C1032 1.363 . S
C1033 C1039 1.428 . S
H1034 C1030 0.930 . S
H1035 C1032 0.929 . S
S1036 N1037 1.613 . S
S1036 N1038 1.610 . S
N1037 S1036 1.613 . S
N1037 C1040 1.350 . S
N1038 S1036 1.610 . S
N1038 C1039 1.351 . S
C1039 C1033 1.428 . S
C1039 N1038 1.351 . S
C1039 C1040 1.434 . S
C1040 C1031 1.429 . S
C1040 N1037 1.350 . S
C1040 C1039 1.434 . S
C1041 C1042 1.369 . S
C1041 C1043 1.419 1_455 S
C1041 H1045 0.930 . S
C1042 C1041 1.369 . S
C1042 C1051 1.429 . S
C1043 C1041 1.419 1_655 S
C1043 C1044 1.363 . S
C1043 H1046 0.929 . S
C1044 C1043 1.363 . S
C1044 C1050 1.428 . S
H1045 C1041 0.930 . S
H1046 C1043 0.929 . S
S1047 N1048 1.613 1_655 S
S1047 N1049 1.610 . S
N1048 S1047 1.613 1_455 S
N1048 C1051 1.350 . S
N1049 S1047 1.610 . S
N1049 C1050 1.351 . S
C1050 C1044 1.428 . S
C1050 N1049 1.351 . S
C1050 C1051 1.434 1_655 S
C1051 C1042 1.429 . S
C1051 N1048 1.350 . S
C1051 C1050 1.434 1_455 S
C1052 C1053 1.369 . S
C1052 C1054 1.419 . S
C1052 H1056 0.930 . S
C1053 C1052 1.369 . S
C1053 C1062 1.429 . S
C1054 C1052 1.419 . S
C1054 C1055 1.363 . S
C1054 H1057 0.929 . S
C1055 C1054 1.363 . S
C1055 C1061 1.428 . S
H1056 C1052 0.930 . S
H1057 C1054 0.929 . S
S1058 N1059 1.613 . S
S1058 N1060 1.610 . S
N1059 S1058 1.613 . S
N1059 C1062 1.350 . S
N1060 S1058 1.610 . S
N1060 C1061 1.351 . S
C1061 C1055 1.428 . S
C1061 N1060 1.351 . S
C1061 C1062 1.434 . S
C1062 C1053 1.429 . S
C1062 N1059 1.350 . S
C1062 C1061 1.434 . S
C1063 C1064 1.369 . S
C1063 C1065 1.419 1_565 S
C1063 H1067 0.930 . S
C1064 C1063 1.369 . S
C1064 C1073 1.429 . S
C1065 C1063 1.419 1_545 S
C1065 C1066 1.363 . S
C1065 H1068 0.929 . S
C1066 C1065 1.363 . S
C1066 C1072 1.428 . S
H1067 C1063 0.930 . S
H1068 C1065 0.929 . S
S1069 N1070 1.613 . S
S1069 N1071 1.610 1_565 S
N1070 S1069 1.613 . S
N1070 C1073 1.350 . S
N1071 S1069 1.610 1_545 S
N1071 C1072 1.351 . S
C1072 C1066 1.428 . S
C1072 N1071 1.351 . S
C1072 C1073 1.434 1_545 S
C1073 C1064 1.429 . S
C1073 N1070 1.350 . S
C1073 C1072 1.434 1_565 S
C1074 C1075 1.369 . S
C1074 C1076 1.419 1_565 S
C1074 H1078 0.930 . S
C1075 C1074 1.369 . S
C1075 C1084 1.429 . S
C1076 C1074 1.419 1_545 S
C1076 C1077 1.363 . S
C1076 H1079 0.929 . S
C1077 C1076 1.363 . S
C1077 C1083 1.428 . S
H1078 C1074 0.930 . S
H1079 C1076 0.929 . S
S1080 N1081 1.613 1_545 S
S1080 N1082 1.610 . S
N1081 S1080 1.613 1_565 S
N1081 C1084 1.350 . S
N1082 S1080 1.610 . S
N1082 C1083 1.351 . S
C1083 C1077 1.428 . S
C1083 N1082 1.351 . S
C1083 C1084 1.434 1_545 S
C1084 C1075 1.429 . S
C1084 N1081 1.350 . S
C1084 C1083 1.434 1_565 S
C1085 C1086 1.369 . S
C1085 C1087 1.419 1_455 S
C1085 H1089 0.930 . S
C1086 C1085 1.369 . S
C1086 C1095 1.429 . S
C1087 C1085 1.419 1_655 S
C1087 C1088 1.363 . S
C1087 H1090 0.929 . S
C1088 C1087 1.363 . S
C1088 C1094 1.428 . S
H1089 C1085 0.930 . S
H1090 C1087 0.929 . S
S1091 N1092 1.613 . S
S1091 N1093 1.610 1_455 S
N1092 S1091 1.613 . S
N1092 C1095 1.350 . S
N1093 S1091 1.610 1_655 S
N1093 C1094 1.351 . S
C1094 C1088 1.428 . S
C1094 N1093 1.351 . S
C1094 C1095 1.434 1_655 S
C1095 C1086 1.429 . S
C1095 N1092 1.350 . S
C1095 C1094 1.434 1_455 S
C1096 C1097 1.369 . S
C1096 C1098 1.419 . S
C1096 H1100 0.930 . S
C1097 C1096 1.369 . S
C1097 C1106 1.429 . S
C1098 C1096 1.419 . S
C1098 C1099 1.363 . S
C1098 H1101 0.929 . S
C1099 C1098 1.363 . S
C1099 C1105 1.428 . S
H1100 C1096 0.930 . S
H1101 C1098 0.929 . S
S1102 N1103 1.613 . S
S1102 N1104 1.610 . S
N1103 S1102 1.613 . S
N1103 C1106 1.350 . S
N1104 S1102 1.610 . S
N1104 C1105 1.351 . S
C1105 C1099 1.428 . S
C1105 N1104 1.351 . S
C1105 C1106 1.434 . S
C1106 C1097 1.429 . S
C1106 N1103 1.350 . S
C1106 C1105 1.434 . S
C613 C111 0.748 . S
C615 C9 0.751 . S
C624 C43 0.675 . S
C626 C145 0.676 . S
C635 C77 0.668 . S
C637 C179 0.668 . S
C646 C190 2.450 . S
C648 C54 2.450 . S
C657 C122 2.365 . S
C659 C88 2.364 . S
C668 C156 2.363 . S
C670 C20 2.363 . S
C679 C315 0.676 . S
C681 C213 0.677 . S
C690 C349 0.683 . S
C692 C247 0.683 . S
C701 C281 0.705 . S
C703 C383 0.693 . S
C712 C394 2.299 . S
C714 C258 2.306 . S
C723 C326 2.287 . S
C725 C292 2.298 . S
C734 C224 2.392 . S
C736 C360 2.395 . S
C745 C519 0.685 . S
C747 C417 0.676 . S
C756 C451 0.691 . S
C758 C553 0.690 . S
C767 C485 0.682 . S
C769 C587 0.685 . S
C778 C462 2.299 . S
C780 C598 2.304 . S
C789 C530 2.392 . S
C791 C496 2.395 . S
C800 C564 2.298 . S
C802 C428 2.286 . S
C811 C611 1.741 . S
C813 C33 1.745 . S
C822 C543 1.746 . S
C824 C67 1.742 . S
C833 C101 1.692 . S
C835 C577 1.693 . S
C844 C135 1.740 . S
C846 C271 1.746 . S
C855 C305 1.695 . S
C857 C169 1.690 . S
C866 C237 1.741 . S
C868 C203 1.746 . S
C877 C339 1.680 . S
C879 C475 1.688 . S
C888 C509 1.800 . S
C890 C373 1.798 . S
C899 C441 1.680 . S
C901 C407 1.688 . S
C910 C2 2.033 . S
C912 C342 2.031 . S
C921 C376 2.162 . S
C923 C36 2.151 . S
C932 C308 2.171 . S
C934 C70 2.153 . S
C943 C104 2.034 . S
C945 C478 2.031 . S
C954 C410 2.173 . S
C956 C138 2.153 . S
C965 C172 2.151 . S
C967 C444 2.164 . S
C976 C481 0.257 . S
C978 C175 0.255 . S
C987 C107 0.349 . S
C989 C413 0.311 . S
C998 C447 0.349 . S
C1000 C141 0.426 . S
C1009 C39 0.231 . S
C1011 C345 0.287 . S
C1020 C73 0.403 . S
C1022 C379 0.373 . S
C1031 C311 0.298 . S
C1033 C5 0.360 . S
C1042 C546 2.075 . S
C1044 C206 2.070 . S
C1053 C240 1.982 . S
C1055 C580 1.979 . S
C1064 C512 2.069 . S
C1066 C274 2.074 . S
C1075 C549 0.246 . S
C1077 C243 0.267 . S
C1086 C583 0.273 . S
C1088 C277 0.251 . S
C1097 C515 0.277 . S
C1099 C209 0.279 . S
