# Generated by pormake.
# Topology bsn, (6)-cn, num edge types: 1
# Building blocks:
#     Node 0, Type 0, BuildingBlock: UKALOJ_clean_sbu_0, # of connection points: 6
#     Node 1, Type 0, BuildingBlock: UKALOJ_clean_sbu_0, # of connection points: 6
#     Node 2, Type 0, BuildingBlock: UKALOJ_clean_sbu_0, # of connection points: 6
#     Node 3, Type 0, BuildingBlock: UKALOJ_clean_sbu_0, # of connection points: 6
#     Edge 4, Type (0, 0), BuildingBlock: KIFKEQ_clean_linker_1, # of connection points: 2
#     Edge 5, Type (0, 0), BuildingBlock: KIFKEQ_clean_linker_1, # of connection points: 2
#     Edge 6, Type (0, 0), BuildingBlock: KIFKEQ_clean_linker_1, # of connection points: 2
#     Edge 7, Type (0, 0), BuildingBlock: KIFKEQ_clean_linker_1, # of connection points: 2
#     Edge 8, Type (0, 0), BuildingBlock: KIFKEQ_clean_linker_1, # of connection points: 2
#     Edge 9, Type (0, 0), BuildingBlock: KIFKEQ_clean_linker_1, # of connection points: 2
#     Edge 10, Type (0, 0), BuildingBlock: KIFKEQ_clean_linker_1, # of connection points: 2
#     Edge 11, Type (0, 0), BuildingBlock: KIFKEQ_clean_linker_1, # of connection points: 2
#     Edge 12, Type (0, 0), BuildingBlock: KIFKEQ_clean_linker_1, # of connection points: 2
#     Edge 13, Type (0, 0), BuildingBlock: KIFKEQ_clean_linker_1, # of connection points: 2
#     Edge 14, Type (0, 0), BuildingBlock: KIFKEQ_clean_linker_1, # of connection points: 2
#     Edge 15, Type (0, 0), BuildingBlock: KIFKEQ_clean_linker_1, # of connection points: 2
# Relax obj value: 0.177
# Max RMSD: 0.166
# Mean RMSD: 0.152
data_MOF--net-bsn--node1-UKALOJ_clean_sbu_0--edge1-KIFKEQ_clean_linker_1
_symmetry_space_group_name_H-M    P1
_symmetry_Int_Tables_number       1
_symmetry_cell_setting            triclinic
loop_
_symmetry_equiv_pos_as_xyz
'x, y, z'
_cell_length_a     31.376173
_cell_length_b     36.471008
_cell_length_c     15.558683
_cell_angle_alpha  89.630587
_cell_angle_beta   96.852689
_cell_angle_gamma 89.934627
loop_
_atom_site_label
_atom_site_type_symbol
_atom_site_fract_x
_atom_site_fract_y
_atom_site_fract_z
_atom_type_partial_charge
Zn0 Zn 0.04663 0.31875 0.32369 0.0
O1 O 0.9788 0.32393 0.31994 0.0
C2 C 0.05261 0.2926 0.50244 0.0
Zn3 Zn 0.04468 0.25701 0.32582 0.0
C4 C 0.9572 0.2944 0.31935 0.0
O5 O 0.97671 0.26376 0.32011 0.0
C6 C 0.13411 0.28145 0.32876 0.0
O7 O 0.03944 0.25283 0.18939 0.0
O8 O 0.03967 0.31311 0.18747 0.0
N9 N 0.03584 0.20124 0.34361 0.0
C10 C 0.04928 0.16913 0.31264 0.0
C11 C 1.00531 0.15609 0.40246 0.0
N12 N 1.00872 0.19275 0.39953 0.0
N13 N 0.03034 0.14022 0.34866 0.0
C14 C 0.04199 0.40511 0.34795 0.0
C15 C 0.06906 0.42304 0.23566 0.0
N16 N 0.05325 0.37474 0.30649 0.0
N17 N 0.07019 0.38616 0.23707 0.0
N18 N 0.05161 0.43577 0.3046 0.0
H19 H 0.99937 0.3797 0.42909 0.0
H20 H 0.99954 0.42945 0.43097 0.0
H21 H 0.04407 0.40387 0.48539 0.0
C22 C 1.01961 0.40454 0.42767 0.0
C23 C 0.07937 0.16655 0.24519 0.0
H24 H 0.08107 0.19294 0.2102 0.0
H25 H 0.06913 0.14439 0.19871 0.0
H26 H 0.11202 0.15998 0.27716 0.0
O27 O 0.11278 0.25181 0.3318 0.0
O28 O 0.11442 0.31212 0.32594 0.0
C29 C 0.03821 0.28287 0.14708 0.0
O30 O 0.05345 0.32281 0.46117 0.0
O31 O 0.04981 0.26266 0.46094 0.0
Zn32 Zn 1.00153 0.78675 0.34094 0.0
O33 O 1.00319 0.72802 0.34452 0.0
C34 C 0.03917 0.7878 0.52712 0.0
Zn35 Zn 0.07272 0.78645 0.35952 0.0
C36 C 0.03831 0.71016 0.35348 0.0
O37 O 0.07351 0.72778 0.36065 0.0
C38 C 0.03633 0.86305 0.34401 0.0
O39 O 0.07018 0.78691 0.22324 0.0
O40 O 0.99955 0.78468 0.20554 0.0
N41 N 0.13801 0.78699 0.37298 0.0
C42 C 0.16579 0.80132 0.43659 0.0
C43 C 0.20257 0.77141 0.35399 0.0
N44 N 0.1609 0.76863 0.32124 0.0
N45 N 0.20625 0.79168 0.42648 0.0
C46 C 0.91173 0.77159 0.3923 0.0
C47 C 0.87218 0.80955 0.31493 0.0
N48 N 0.93605 0.78659 0.33544 0.0
N49 N 0.91121 0.80987 0.28654 0.0
N50 N 0.87176 0.78552 0.38091 0.0
H51 H 0.95718 0.73159 0.45475 0.0
H52 H 0.90211 0.7252 0.47345 0.0
H53 H 0.93288 0.76143 0.52649 0.0
C54 C 0.92729 0.74586 0.46522 0.0
C55 C 0.15393 0.82543 0.50795 0.0
H56 H 0.12397 0.84081 0.48802 0.0
H57 H 0.18011 0.8452 0.52761 0.0
H58 H 0.14937 0.80829 0.56523 0.0
O59 O 0.07141 0.84527 0.35752 0.0
O60 O 1.00114 0.84539 0.33422 0.0
C61 C 0.03497 0.7857 0.17336 0.0
O62 O 1.00435 0.78979 0.47708 0.0
O63 O 0.07417 0.78521 0.49481 0.0
Zn64 Zn 0.5771 0.82217 0.80327 0.0
O65 O 0.51029 0.82862 0.79132 0.0
C66 C 0.5785 0.79112 -0.01939 0.0
Zn67 Zn 0.56989 0.76147 0.80288 0.0
C68 C 0.48623 0.80065 0.78885 0.0
O69 O 0.50309 0.769 0.79627 0.0
C70 C 0.66029 0.78283 0.80281 0.0
O71 O 0.56526 0.7626 0.66667 0.0
O72 O 0.57348 0.82261 0.66693 0.0
N73 N 0.55928 0.70619 0.80439 0.0
C74 C 0.57364 0.68066 0.86403 0.0
C75 C 0.52066 0.65751 0.78445 0.0
N76 N 0.52661 0.69163 0.75457 0.0
N77 N 0.54931 0.65 0.85407 0.0
C78 C 0.56741 0.90269 0.85609 0.0
C79 C 0.62491 0.927 0.82245 0.0
N80 N 0.5869 0.87765 0.81065 0.0
N81 N 0.62245 0.89292 0.78917 0.0
N82 N 0.591 0.93365 0.8657 0.0
H83 H 0.50014 0.89248 0.82831 0.0
H84 H 0.51257 0.92228 0.91714 0.0
H85 H 0.52413 0.87373 0.93002 0.0
C86 C 0.52387 0.89761 0.88552 0.0
C87 C 0.61271 0.68528 0.92881 0.0
H88 H 0.63639 0.70348 0.90328 0.0
H89 H 0.62824 0.6584 0.94537 0.0
H90 H 0.60351 0.69776 -0.01129 0.0
O91 O 0.63655 0.75465 0.80369 0.0
O92 O 0.64384 0.8144 0.80922 0.0
C93 C 0.56855 0.79259 0.62563 0.0
O94 O 0.58089 0.82109 0.93976 0.0
O95 O 0.57437 0.7614 0.93874 0.0
Zn96 Zn 0.54601 0.25778 0.30809 0.0
O97 O 0.54945 0.25914 0.44433 0.0
C98 C 0.45595 0.28374 0.30012 0.0
Zn99 Zn 0.54359 0.31882 0.30788 0.0
C100 C 0.5491 0.28922 0.48534 0.0
O101 O 0.54729 0.31952 0.44398 0.0
C102 C 0.54045 0.28724 0.1307 0.0
O103 O 0.61188 0.322 0.31835 0.0
O104 O 0.6141 0.26204 0.31514 0.0
N105 N 0.53742 0.37477 0.29893 0.0
C106 C 0.55166 0.39838 0.24156 0.0
C107 C 0.50637 0.42721 0.30758 0.0
N108 N 0.50949 0.39283 0.34023 0.0
N109 N 0.53205 0.43128 0.2446 0.0
C110 C 0.53889 0.17716 0.24914 0.0
C111 C 0.58872 0.15178 0.33408 0.0
N112 N 0.55318 0.2021 0.30939 0.0
N113 N 0.58384 0.18615 0.3626 0.0
N114 N 0.56133 0.14552 0.26214 0.0
H115 H 0.47792 0.20222 0.20356 0.0
H116 H 0.48535 0.15693 0.1625 0.0
H117 H 0.51283 0.19552 0.12206 0.0
C118 C 0.50156 0.18327 0.18065 0.0
C119 C 0.58585 0.38969 0.18474 0.0
H120 H 0.60915 0.36957 0.21531 0.0
H121 H 0.60372 0.41481 0.17055 0.0
H122 H 0.57095 0.37805 0.12273 0.0
O123 O 0.53946 0.3172 0.17124 0.0
O124 O 0.54297 0.25735 0.17281 0.0
C125 C 0.63364 0.29259 0.3185 0.0
O126 O 0.47776 0.25426 0.30151 0.0
O127 O 0.47536 0.31439 0.30072 0.0
H128 H 1.01186 0.48448 0.19266 0.0
H129 H 0.07632 0.47339 0.4518 0.0
H130 H 1.00627 0.5508 0.21175 0.0
H131 H 0.07144 0.5402 0.47122 0.0
H132 H 0.10535 0.66332 0.4035 0.0
H133 H 0.10508 0.5962 0.40065 0.0
H134 H 0.97058 0.59746 0.30213 0.0
H135 H 0.97058 0.66445 0.30592 0.0
C136 C 1.02424 0.49636 0.25423 0.0
C137 C 0.04406 0.47393 0.32108 0.0
C138 C 1.02102 0.53425 0.26529 0.0
C139 C 0.03843 0.55078 0.34298 0.0
C140 C 0.05783 0.52825 0.41054 0.0
C141 C 0.06028 0.4901 0.39992 0.0
C142 C 0.07565 0.64929 0.3817 0.0
C143 C 0.03805 0.66934 0.35447 0.0
C144 C 0.07545 0.61083 0.3807 0.0
C145 C 0.03782 0.59151 0.35116 0.0
C146 C 1.00013 0.61154 0.32483 0.0
C147 C 1.00015 0.64994 0.32715 0.0
H148 H 0.71749 0.83783 0.78475 0.0
H149 H 0.69724 0.72183 0.74162 0.0
H150 H 0.77174 0.83788 0.68583 0.0
H151 H 0.75238 0.7218 0.64382 0.0
H152 H 0.79661 0.74989 0.37832 0.0
H153 H 0.7516 0.74656 0.49701 0.0
H154 H 0.84045 0.81777 0.65024 0.0
H155 H 0.88407 0.82165 0.53027 0.0
C156 C 0.72571 0.81203 0.75668 0.0
C157 C 0.70246 0.77998 0.76994 0.0
C158 C 0.7568 0.81209 0.6996 0.0
C159 C 0.76548 0.78003 0.65509 0.0
C160 C 0.74545 0.74716 0.67528 0.0
C161 C 0.71434 0.74708 0.73247 0.0
C162 C 0.80574 0.76513 0.43713 0.0
C163 C 0.84306 0.78634 0.44573 0.0
C164 C 0.78064 0.76283 0.50549 0.0
C165 C 0.79275 0.78162 0.5835 0.0
C166 C 0.83005 0.80319 0.59103 0.0
C167 C 0.85489 0.80556 0.52266 0.0
H168 H 0.52514 0.50234 0.28757 0.0
H169 H 0.53709 0.4314 0.07122 0.0
H170 H 0.52597 0.55554 0.19253 0.0
H171 H 0.54439 0.48374 -0.02078 0.0
H172 H 0.52215 0.58229 0.80685 0.0
H173 H 0.51346 0.53007 0.90053 0.0
H174 H 0.56602 0.59374 0.12219 0.0
H175 H 0.56827 0.64671 0.03022 0.0
C176 C 0.5291 0.4982 0.22012 0.0
C177 C 0.53329 0.46268 0.18818 0.0
C178 C 0.5302 0.52872 0.16549 0.0
C179 C 0.53632 0.52447 0.07767 0.0
C180 C 0.53944 0.48868 0.04578 0.0
C181 C 0.53676 0.4583 0.09966 0.0
C182 C 0.53181 0.58496 0.87569 0.0
C183 C 0.54788 0.61838 0.90996 0.0
C184 C 0.52732 0.55482 0.92978 0.0
C185 C 0.53973 0.55699 0.01977 0.0
C186 C 0.55568 0.5906 0.0538 0.0
C187 C 0.55861 0.62103 5e-05 0.0
H188 H 0.90161 0.35198 0.27957 0.0
H189 H 0.90581 0.23859 0.36151 0.0
H190 H 0.82368 0.35217 0.27821 0.0
H191 H 0.8287 0.23914 0.3647 0.0
H192 H 0.68644 0.23718 0.27994 0.0
H193 H 0.76363 0.2387 0.27779 0.0
H194 H 0.76598 0.35167 0.36105 0.0
H195 H 0.68806 0.35051 0.35862 0.0
C196 C 0.88592 0.32719 0.29796 0.0
C197 C 0.90991 0.2952 0.31988 0.0
C198 C 0.84118 0.32732 0.29784 0.0
C199 C 0.81941 0.29559 0.3209 0.0
C200 C 0.84381 0.26387 0.34435 0.0
C201 C 0.88828 0.26359 0.34312 0.0
C202 C 0.70341 0.26235 0.29794 0.0
C203 C 0.68103 0.29367 0.31982 0.0
C204 C 0.74792 0.2632 0.29729 0.0
C205 C 0.77159 0.29523 0.31996 0.0
C206 C 0.74907 0.32661 0.342 0.0
C207 C 0.70433 0.32591 0.34133 0.0
H208 H 0.4039 0.33946 0.34001 0.0
H209 H 0.4011 0.22553 0.2661 0.0
H210 H 0.32732 0.33783 0.34967 0.0
H211 H 0.32363 0.22421 0.27132 0.0
H212 H 0.19074 0.22425 0.3666 0.0
H213 H 0.2682 0.22419 0.36026 0.0
H214 H 0.26056 0.33661 0.26961 0.0
H215 H 0.18413 0.33708 0.28037 0.0
C216 C 0.38676 0.31413 0.32453 0.0
C217 C 0.4087 0.28268 0.30195 0.0
C218 C 0.34257 0.3132 0.32958 0.0
C219 C 0.3187 0.28094 0.31072 0.0
C220 C 0.34073 0.24945 0.28763 0.0
C221 C 0.3852 0.25025 0.28386 0.0
C222 C 0.20578 0.24896 0.34582 0.0
C223 C 0.18124 0.28076 0.32488 0.0
C224 C 0.25023 0.24889 0.34144 0.0
C225 C 0.27116 0.28048 0.3148 0.0
C226 C 0.2462 0.312 0.29258 0.0
C227 C 0.20207 0.31223 0.29824 0.0
H228 H 0.42469 0.74814 0.79254 0.0
H229 H 0.44351 0.86088 0.71824 0.0
H230 H 0.35309 0.74923 0.71219 0.0
H231 H 0.37186 0.8618 0.6379 0.0
H232 H 0.28166 0.82025 0.39447 0.0
H233 H 0.34636 0.82706 0.49871 0.0
H234 H 0.27957 0.77866 0.6986 0.0
H235 H 0.21545 0.77165 0.59391 0.0
C236 C 0.41309 0.77345 0.76115 0.0
C237 C 0.43987 0.80427 0.76085 0.0
C238 C 0.37211 0.77406 0.7152 0.0
C239 C 0.35743 0.80541 0.66774 0.0
C240 C 0.38284 0.83713 0.67295 0.0
C241 C 0.42365 0.83667 0.71968 0.0
C242 C 0.28111 0.81135 0.46087 0.0
C243 C 0.24391 0.79593 0.48708 0.0
C244 C 0.31769 0.81553 0.52054 0.0
C245 C 0.31763 0.80376 0.60685 0.0
C246 C 0.28033 0.78811 0.63264 0.0
C247 C 0.24374 0.78429 0.57319 0.0
H248 H 0.60717 1.0047 0.83506 0.0
H249 H 0.57 0.9304 0.0291 0.0
H250 H 0.60228 0.05599 0.93331 0.0
H251 H 0.56012 0.98144 0.12375 0.0
H252 H 0.581 0.07586 0.30968 0.0
H253 H 0.59158 1.0245 0.21528 0.0
H254 H 0.55613 0.09405 -0.00841 0.0
H255 H 0.55116 0.14564 0.08569 0.0
C256 C 0.59698 0.99959 0.89814 0.0
C257 C 0.58702 0.96393 0.92296 0.0
C258 C 0.59366 1.02894 0.95434 0.0
C259 C 0.57981 1.02327 0.03642 0.0
C260 C 0.57102 0.98722 0.06167 0.0
C261 C 0.57556 0.9579 0.00642 0.0
C262 C 0.57537 0.07993 0.24024 0.0
C263 C 0.56336 0.11456 0.20561 0.0
C264 C 0.58106 0.05042 0.1858 0.0
C265 C 0.57427 0.05471 0.09507 0.0
C266 C 0.56214 0.08945 0.06075 0.0
C267 C 0.55771 0.11907 0.11518 0.0
H268 H 0.1022 0.91019 0.39735 0.0
H269 H 0.9711 0.90826 0.27632 0.0
H270 H 0.10174 0.97706 0.3907 0.0
H271 H 0.97113 0.97478 0.26543 0.0
H272 H 0.96542 0.09272 0.35315 0.0
H273 H 0.96801 1.02646 0.34896 0.0
H274 H 0.10172 1.03128 0.30765 0.0
H275 H 0.09958 0.09806 0.31819 0.0
C276 C 0.07338 0.92405 0.36853 0.0
C277 C 0.03652 0.90382 0.33824 0.0
C278 C 0.07321 0.96251 0.36393 0.0
C279 C 0.03633 0.9818 0.32787 0.0
C280 C 0.99988 0.96128 0.29562 0.0
C281 C 0.99986 0.92294 0.30144 0.0
C282 C 0.99537 0.07971 0.34256 0.0
C283 C 0.03207 0.10102 0.33471 0.0
C284 C 0.9968 0.04148 0.33928 0.0
C285 C 0.035 1.02299 0.32727 0.0
C286 C 0.07171 0.04431 0.31768 0.0
C287 C 0.07034 0.08283 0.32186 0.0
H288 H 1.01513 0.33935 0.03588 0.0
H289 H 0.06174 0.22777 0.04429 0.0
H290 H 1.01901 0.3419 0.88072 0.0
H291 H 0.0677 0.23075 0.88975 0.0
H292 H 0.03276 0.23438 0.59953 0.0
H293 H 1.02774 0.23202 0.75341 0.0
H294 H 0.06728 0.34547 0.77589 0.0
H295 H 0.07026 0.34826 0.61969 0.0
C296 C 1.02628 0.31535 0.00442 0.0
C297 C 0.03791 0.28327 0.0521 0.0
C298 C 0.02897 0.31694 0.91554 0.0
C299 C 0.04396 0.28666 0.87235 0.0
C300 C 0.05534 0.25446 0.92028 0.0
C301 C 0.05201 0.25269 0.00901 0.0
C302 C 0.04061 0.25886 0.63718 0.0
C303 C 0.05205 0.29153 0.59734 0.0
C304 C 0.03795 0.25742 0.72588 0.0
C305 C 0.04725 0.28846 0.77766 0.0
C306 C 0.05922 0.32113 0.73794 0.0
C307 C 0.0613 0.32272 0.64855 0.0
H308 H 0.9744 0.81037 0.61645 0.0
H309 H 0.10294 0.76565 0.65094 0.0
H310 H 0.97341 0.81033 0.77266 0.0
H311 H 0.10153 0.76442 0.80702 0.0
H312 H 0.10224 0.80207 0.08436 0.0
H313 H 0.10305 0.80357 0.92833 0.0
H314 H 0.96998 0.77004 0.89239 0.0
H315 H 0.96877 0.77001 0.04867 0.0
C316 C 1.00231 0.80025 0.65749 0.0
C317 C 0.03876 0.78802 0.62165 0.0
C318 C 1.00168 0.80005 0.747 0.0
C319 C 0.03735 0.78729 0.8025 0.0
C320 C 0.07378 0.77501 0.76634 0.0
C321 C 0.07456 0.77557 0.67687 0.0
C322 C 0.07316 0.79501 0.04312 0.0
C323 C 0.03543 0.78593 0.0787 0.0
C324 C 0.07369 0.79566 0.95363 0.0
C325 C 0.03662 0.78683 0.89771 0.0
C326 C 0.99892 0.77757 0.93349 0.0
C327 C 0.99827 0.77732 0.02306 0.0
H328 H 0.60324 0.8462 0.09358 0.0
H329 H 0.55299 0.73586 0.08117 0.0
H330 H 0.60144 0.84631 0.24965 0.0
H331 H 0.54903 0.73653 0.23611 0.0
H332 H 0.58604 0.73476 0.52606 0.0
H333 H 0.59037 0.73449 0.37117 0.0
H334 H 0.55434 0.84911 0.356 0.0
H335 H 0.55228 0.84966 0.51208 0.0
C336 C 0.59166 0.82203 0.12427 0.0
C337 C 0.57849 0.79096 0.07535 0.0
C338 C 0.59023 0.82218 0.21363 0.0
C339 C 0.57495 0.79147 0.25578 0.0
C340 C 0.56176 0.76042 0.2064 0.0
C341 C 0.56384 0.76007 0.11736 0.0
C342 C 0.57888 0.75984 0.48947 0.0
C343 C 0.56876 0.79222 0.53098 0.0
C344 C 0.58117 0.75968 0.4005 0.0
C345 C 0.57266 0.79177 0.35069 0.0
C346 C 0.56193 0.82406 0.39237 0.0
C347 C 0.56037 0.82435 0.48171 0.0
H348 H 0.53055 0.23163 0.58653 0.0
H349 H 0.56694 0.34587 0.59781 0.0
H350 H 0.52688 0.23129 0.74163 0.0
H351 H 0.56532 0.34519 0.754 0.0
H352 H 0.51592 0.34261 0.01657 0.0
H353 H 0.51774 0.34292 0.86048 0.0
H354 H 0.56929 0.23268 0.87629 0.0
H355 H 0.56561 0.23193 0.03144 0.0
C356 C 0.53835 0.25656 0.62247 0.0
C357 C 0.54904 0.28878 0.5801 0.0
C358 C 0.53645 0.25634 0.71157 0.0
C359 C 0.54583 0.2882 0.76062 0.0
C360 C 0.5571 0.32032 0.71816 0.0
C361 C 0.55838 0.32067 0.62874 0.0
C362 C 0.52747 0.31844 -0.01356 0.0
C363 C 0.5405 0.28722 0.03602 0.0
C364 C 0.52883 0.31867 0.89706 0.0
C365 C 0.54381 0.28787 0.85558 0.0
C366 C 0.55684 0.25666 0.90559 0.0
C367 C 0.5549 0.25626 -0.00531 0.0
loop_
_geom_bond_atom_site_label_1
_geom_bond_atom_site_label_2
_geom_bond_distance
_geom_bond_site_symmetry_2
_ccdc_geom_bond_type
Zn0 O1 2.055 1_455 S
Zn0 O8 2.046 . S
Zn0 N16 2.036 . S
Zn0 O28 2.053 . S
Zn0 O30 2.066 . S
O1 Zn0 2.055 1_655 S
O1 C4 1.259 . S
C2 O30 1.256 . S
C2 O31 1.244 . S
Zn3 O5 2.046 1_455 S
Zn3 O7 2.055 . S
Zn3 N9 2.036 . S
Zn3 O27 2.066 . S
Zn3 O31 2.053 . S
C4 O1 1.259 . S
C4 O5 1.254 . S
O5 Zn3 2.046 1_655 S
O5 C4 1.254 . S
C6 O27 1.256 . S
C6 O28 1.244 . S
O7 Zn3 2.055 . S
O7 C29 1.259 . S
O8 Zn0 2.046 . S
O8 C29 1.254 . S
N9 Zn3 2.036 . S
N9 C10 1.298 . S
N9 N12 1.398 . S
C10 N9 1.298 . S
C10 N13 1.367 . S
C10 C23 1.481 . S
C11 N12 1.299 . S
C11 N13 1.379 . S
N12 N9 1.398 . S
N12 C11 1.299 . S
N13 C10 1.367 . S
N13 C11 1.379 . S
C14 N16 1.298 . S
C14 N18 1.367 . S
C14 C22 1.481 1_455 S
C15 N17 1.299 . S
C15 N18 1.379 . S
N16 Zn0 2.036 . S
N16 C14 1.298 . S
N16 N17 1.398 . S
N17 C15 1.299 . S
N17 N16 1.398 . S
N18 C14 1.367 . S
N18 C15 1.379 . S
H19 C22 0.980 . S
H20 C22 0.981 . S
H21 C22 0.981 . S
C22 C14 1.481 1_655 S
C22 H19 0.980 . S
C22 H20 0.981 . S
C22 H21 0.981 . S
C23 C10 1.481 . S
C23 H24 0.980 . S
C23 H25 0.981 . S
C23 H26 0.981 . S
H24 C23 0.980 . S
H25 C23 0.981 . S
H26 C23 0.981 . S
O27 Zn3 2.066 . S
O27 C6 1.256 . S
O28 Zn0 2.053 . S
O28 C6 1.244 . S
C29 O7 1.259 . S
C29 O8 1.254 . S
O30 Zn0 2.066 . S
O30 C2 1.256 . S
O31 C2 1.244 . S
O31 Zn3 2.053 . S
Zn32 O33 2.055 . S
Zn32 O40 2.046 . S
Zn32 N48 2.036 . S
Zn32 O60 2.053 . S
Zn32 O62 2.066 . S
O33 Zn32 2.055 . S
O33 C36 1.259 1_655 S
C34 O62 1.256 1_455 S
C34 O63 1.244 . S
Zn35 O37 2.046 . S
Zn35 O39 2.055 . S
Zn35 N41 2.036 . S
Zn35 O59 2.066 . S
Zn35 O63 2.053 . S
C36 O33 1.259 1_455 S
C36 O37 1.254 . S
O37 Zn35 2.046 . S
O37 C36 1.254 . S
C38 O59 1.256 . S
C38 O60 1.244 1_455 S
O39 Zn35 2.055 . S
O39 C61 1.259 . S
O40 Zn32 2.046 . S
O40 C61 1.254 1_655 S
N41 Zn35 2.036 . S
N41 C42 1.298 . S
N41 N44 1.398 . S
C42 N41 1.298 . S
C42 N45 1.367 . S
C42 C55 1.481 . S
C43 N44 1.299 . S
C43 N45 1.379 . S
N44 N41 1.398 . S
N44 C43 1.299 . S
N45 C42 1.367 . S
N45 C43 1.379 . S
C46 N48 1.298 . S
C46 N50 1.367 . S
C46 C54 1.481 . S
C47 N49 1.299 . S
C47 N50 1.379 . S
N48 Zn32 2.036 . S
N48 C46 1.298 . S
N48 N49 1.398 . S
N49 C47 1.299 . S
N49 N48 1.398 . S
N50 C46 1.367 . S
N50 C47 1.379 . S
H51 C54 0.980 . S
H52 C54 0.981 . S
H53 C54 0.981 . S
C54 C46 1.481 . S
C54 H51 0.980 . S
C54 H52 0.981 . S
C54 H53 0.981 . S
C55 C42 1.481 . S
C55 H56 0.980 . S
C55 H57 0.981 . S
C55 H58 0.981 . S
H56 C55 0.980 . S
H57 C55 0.981 . S
H58 C55 0.981 . S
O59 Zn35 2.066 . S
O59 C38 1.256 . S
O60 Zn32 2.053 . S
O60 C38 1.244 1_655 S
C61 O39 1.259 . S
C61 O40 1.254 1_455 S
O62 Zn32 2.066 . S
O62 C34 1.256 1_655 S
O63 C34 1.244 . S
O63 Zn35 2.053 . S
Zn64 O65 2.055 . S
Zn64 O72 2.046 . S
Zn64 N80 2.036 . S
Zn64 O92 2.053 . S
Zn64 O94 2.066 . S
O65 Zn64 2.055 . S
O65 C68 1.259 . S
C66 O94 1.256 1_554 S
C66 O95 1.244 1_554 S
Zn67 O69 2.046 . S
Zn67 O71 2.055 . S
Zn67 N73 2.036 . S
Zn67 O91 2.066 . S
Zn67 O95 2.053 . S
C68 O65 1.259 . S
C68 O69 1.254 . S
O69 Zn67 2.046 . S
O69 C68 1.254 . S
C70 O91 1.256 . S
C70 O92 1.244 . S
O71 Zn67 2.055 . S
O71 C93 1.259 . S
O72 Zn64 2.046 . S
O72 C93 1.254 . S
N73 Zn67 2.036 . S
N73 C74 1.298 . S
N73 N76 1.398 . S
C74 N73 1.298 . S
C74 N77 1.367 . S
C74 C87 1.481 . S
C75 N76 1.299 . S
C75 N77 1.379 . S
N76 N73 1.398 . S
N76 C75 1.299 . S
N77 C74 1.367 . S
N77 C75 1.379 . S
C78 N80 1.298 . S
C78 N82 1.367 . S
C78 C86 1.481 . S
C79 N81 1.299 . S
C79 N82 1.379 . S
N80 Zn64 2.036 . S
N80 C78 1.298 . S
N80 N81 1.398 . S
N81 C79 1.299 . S
N81 N80 1.398 . S
N82 C78 1.367 . S
N82 C79 1.379 . S
H83 C86 0.980 . S
H84 C86 0.981 . S
H85 C86 0.981 . S
C86 C78 1.481 . S
C86 H83 0.980 . S
C86 H84 0.981 . S
C86 H85 0.981 . S
C87 C74 1.481 . S
C87 H88 0.980 . S
C87 H89 0.981 . S
C87 H90 0.981 . S
H88 C87 0.980 . S
H89 C87 0.981 . S
H90 C87 0.981 . S
O91 Zn67 2.066 . S
O91 C70 1.256 . S
O92 Zn64 2.053 . S
O92 C70 1.244 . S
C93 O71 1.259 . S
C93 O72 1.254 . S
O94 Zn64 2.066 . S
O94 C66 1.256 1_556 S
O95 C66 1.244 1_556 S
O95 Zn67 2.053 . S
Zn96 O97 2.055 . S
Zn96 O104 2.046 . S
Zn96 N112 2.036 . S
Zn96 O124 2.053 . S
Zn96 O126 2.066 . S
O97 Zn96 2.055 . S
O97 C100 1.259 . S
C98 O126 1.256 . S
C98 O127 1.244 . S
Zn99 O101 2.046 . S
Zn99 O103 2.055 . S
Zn99 N105 2.036 . S
Zn99 O123 2.066 . S
Zn99 O127 2.053 . S
C100 O97 1.259 . S
C100 O101 1.254 . S
O101 Zn99 2.046 . S
O101 C100 1.254 . S
C102 O123 1.256 1_556 S
C102 O124 1.244 1_556 S
O103 Zn99 2.055 . S
O103 C125 1.259 . S
O104 Zn96 2.046 . S
O104 C125 1.254 . S
N105 Zn99 2.036 . S
N105 C106 1.298 . S
N105 N108 1.398 . S
C106 N105 1.298 . S
C106 N109 1.367 . S
C106 C119 1.481 . S
C107 N108 1.299 . S
C107 N109 1.379 . S
N108 N105 1.398 . S
N108 C107 1.299 . S
N109 C106 1.367 . S
N109 C107 1.379 . S
C110 N112 1.298 . S
C110 N114 1.367 . S
C110 C118 1.481 . S
C111 N113 1.299 . S
C111 N114 1.379 . S
N112 Zn96 2.036 . S
N112 C110 1.298 . S
N112 N113 1.398 . S
N113 C111 1.299 . S
N113 N112 1.398 . S
N114 C110 1.367 . S
N114 C111 1.379 . S
H115 C118 0.980 . S
H116 C118 0.981 . S
H117 C118 0.981 . S
C118 C110 1.481 . S
C118 H115 0.980 . S
C118 H116 0.981 . S
C118 H117 0.981 . S
C119 C106 1.481 . S
C119 H120 0.980 . S
C119 H121 0.981 . S
C119 H122 0.981 . S
H120 C119 0.980 . S
H121 C119 0.981 . S
H122 C119 0.981 . S
O123 Zn99 2.066 . S
O123 C102 1.256 1_554 S
O124 Zn96 2.053 . S
O124 C102 1.244 1_554 S
C125 O103 1.259 . S
C125 O104 1.254 . S
O126 Zn96 2.066 . S
O126 C98 1.256 . S
O127 C98 1.244 . S
O127 Zn99 2.053 . S
H128 C136 0.950 . S
H129 C141 0.950 . S
H130 C138 0.950 . S
H131 C140 0.950 . S
H132 C142 0.950 . S
H133 C144 0.950 . S
H134 C146 0.950 . S
H135 C147 0.950 . S
C136 H128 0.950 . S
C136 C137 1.386 . S
C136 C138 1.391 . S
C137 C136 1.386 . S
C137 C141 1.393 . S
C138 H130 0.950 . S
C138 C136 1.391 . S
C138 C139 1.400 . S
C139 C138 1.400 . S
C139 C140 1.398 . S
C139 C145 1.491 . S
C140 H131 0.950 . S
C140 C139 1.398 . S
C140 C141 1.391 . S
C141 H129 0.950 . S
C141 C137 1.393 . S
C141 C140 1.391 . S
C142 H132 0.950 . S
C142 C143 1.386 . S
C142 C144 1.391 . S
C143 C142 1.386 . S
C143 C147 1.393 . S
C144 H133 0.950 . S
C144 C142 1.391 . S
C144 C145 1.400 . S
C145 C139 1.491 . S
C145 C144 1.400 . S
C145 C146 1.398 . S
C146 H134 0.950 . S
C146 C145 1.398 . S
C146 C147 1.391 . S
C147 H135 0.950 . S
C147 C143 1.393 . S
C147 C146 1.391 . S
H148 C156 0.950 . S
H149 C161 0.950 . S
H150 C158 0.950 . S
H151 C160 0.950 . S
H152 C162 0.950 . S
H153 C164 0.950 . S
H154 C166 0.950 . S
H155 C167 0.950 . S
C156 H148 0.950 . S
C156 C157 1.386 . S
C156 C158 1.391 . S
C157 C156 1.386 . S
C157 C161 1.393 . S
C158 H150 0.950 . S
C158 C156 1.391 . S
C158 C159 1.400 . S
C159 C158 1.400 . S
C159 C160 1.398 . S
C159 C165 1.491 . S
C160 H151 0.950 . S
C160 C159 1.398 . S
C160 C161 1.391 . S
C161 H149 0.950 . S
C161 C157 1.393 . S
C161 C160 1.391 . S
C162 H152 0.950 . S
C162 C163 1.386 . S
C162 C164 1.391 . S
C163 C162 1.386 . S
C163 C167 1.393 . S
C164 H153 0.950 . S
C164 C162 1.391 . S
C164 C165 1.400 . S
C165 C159 1.491 . S
C165 C164 1.400 . S
C165 C166 1.398 . S
C166 H154 0.950 . S
C166 C165 1.398 . S
C166 C167 1.391 . S
C167 H155 0.950 . S
C167 C163 1.393 . S
C167 C166 1.391 . S
H168 C176 0.950 . S
H169 C181 0.950 1_556 S
H170 C178 0.950 . S
H171 C180 0.950 . S
H172 C182 0.950 . S
H173 C184 0.950 . S
H174 C186 0.950 . S
H175 C187 0.950 1_554 S
C176 H168 0.950 . S
C176 C177 1.386 . S
C176 C178 1.391 . S
C177 C176 1.386 . S
C177 C181 1.393 . S
C178 H170 0.950 . S
C178 C176 1.391 . S
C178 C179 1.400 . S
C179 C178 1.400 . S
C179 C180 1.398 1_554 S
C179 C185 1.491 1_554 S
C180 H171 0.950 . S
C180 C179 1.398 1_556 S
C180 C181 1.391 1_556 S
C181 H169 0.950 1_554 S
C181 C177 1.393 . S
C181 C180 1.391 1_554 S
C182 H172 0.950 . S
C182 C183 1.386 . S
C182 C184 1.391 . S
C183 C182 1.386 . S
C183 C187 1.393 . S
C184 H173 0.950 . S
C184 C182 1.391 . S
C184 C185 1.400 . S
C185 C179 1.491 1_556 S
C185 C184 1.400 . S
C185 C186 1.398 1_556 S
C186 H174 0.950 . S
C186 C185 1.398 1_554 S
C186 C187 1.391 1_554 S
C187 H175 0.950 1_556 S
C187 C183 1.393 . S
C187 C186 1.391 1_556 S
H188 C196 0.950 . S
H189 C201 0.950 . S
H190 C198 0.950 . S
H191 C200 0.950 . S
H192 C202 0.950 . S
H193 C204 0.950 . S
H194 C206 0.950 . S
H195 C207 0.950 . S
C196 H188 0.950 . S
C196 C197 1.386 . S
C196 C198 1.391 . S
C197 C196 1.386 . S
C197 C201 1.393 . S
C198 H190 0.950 . S
C198 C196 1.391 . S
C198 C199 1.400 . S
C199 C198 1.400 . S
C199 C200 1.398 . S
C199 C205 1.491 . S
C200 H191 0.950 . S
C200 C199 1.398 . S
C200 C201 1.391 . S
C201 H189 0.950 . S
C201 C197 1.393 . S
C201 C200 1.391 . S
C202 H192 0.950 . S
C202 C203 1.386 . S
C202 C204 1.391 . S
C203 C202 1.386 . S
C203 C207 1.393 . S
C204 H193 0.950 . S
C204 C202 1.391 . S
C204 C205 1.400 . S
C205 C199 1.491 . S
C205 C204 1.400 . S
C205 C206 1.398 . S
C206 H194 0.950 . S
C206 C205 1.398 . S
C206 C207 1.391 . S
C207 H195 0.950 . S
C207 C203 1.393 . S
C207 C206 1.391 . S
H208 C216 0.950 . S
H209 C221 0.950 . S
H210 C218 0.950 . S
H211 C220 0.950 . S
H212 C222 0.950 . S
H213 C224 0.950 . S
H214 C226 0.950 . S
H215 C227 0.950 . S
C216 H208 0.950 . S
C216 C217 1.386 . S
C216 C218 1.391 . S
C217 C216 1.386 . S
C217 C221 1.393 . S
C218 H210 0.950 . S
C218 C216 1.391 . S
C218 C219 1.400 . S
C219 C218 1.400 . S
C219 C220 1.398 . S
C219 C225 1.491 . S
C220 H211 0.950 . S
C220 C219 1.398 . S
C220 C221 1.391 . S
C221 H209 0.950 . S
C221 C217 1.393 . S
C221 C220 1.391 . S
C222 H212 0.950 . S
C222 C223 1.386 . S
C222 C224 1.391 . S
C223 C222 1.386 . S
C223 C227 1.393 . S
C224 H213 0.950 . S
C224 C222 1.391 . S
C224 C225 1.400 . S
C225 C219 1.491 . S
C225 C224 1.400 . S
C225 C226 1.398 . S
C226 H214 0.950 . S
C226 C225 1.398 . S
C226 C227 1.391 . S
C227 H215 0.950 . S
C227 C223 1.393 . S
C227 C226 1.391 . S
H228 C236 0.950 . S
H229 C241 0.950 . S
H230 C238 0.950 . S
H231 C240 0.950 . S
H232 C242 0.950 . S
H233 C244 0.950 . S
H234 C246 0.950 . S
H235 C247 0.950 . S
C236 H228 0.950 . S
C236 C237 1.386 . S
C236 C238 1.391 . S
C237 C236 1.386 . S
C237 C241 1.393 . S
C238 H230 0.950 . S
C238 C236 1.391 . S
C238 C239 1.400 . S
C239 C238 1.400 . S
C239 C240 1.398 . S
C239 C245 1.491 . S
C240 H231 0.950 . S
C240 C239 1.398 . S
C240 C241 1.391 . S
C241 H229 0.950 . S
C241 C237 1.393 . S
C241 C240 1.391 . S
C242 H232 0.950 . S
C242 C243 1.386 . S
C242 C244 1.391 . S
C243 C242 1.386 . S
C243 C247 1.393 . S
C244 H233 0.950 . S
C244 C242 1.391 . S
C244 C245 1.400 . S
C245 C239 1.491 . S
C245 C244 1.400 . S
C245 C246 1.398 . S
C246 H234 0.950 . S
C246 C245 1.398 . S
C246 C247 1.391 . S
C247 H235 0.950 . S
C247 C243 1.393 . S
C247 C246 1.391 . S
H248 C256 0.950 . S
H249 C261 0.950 . S
H250 C258 0.950 1_545 S
H251 C260 0.950 . S
H252 C262 0.950 . S
H253 C264 0.950 . S
H254 C266 0.950 1_556 S
H255 C267 0.950 . S
C256 H248 0.950 . S
C256 C257 1.386 . S
C256 C258 1.391 . S
C257 C256 1.386 . S
C257 C261 1.393 1_556 S
C258 H250 0.950 1_565 S
C258 C256 1.391 . S
C258 C259 1.400 1_556 S
C259 C258 1.400 1_554 S
C259 C260 1.398 . S
C259 C265 1.491 1_565 S
C260 H251 0.950 . S
C260 C259 1.398 . S
C260 C261 1.391 . S
C261 H249 0.950 . S
C261 C257 1.393 1_554 S
C261 C260 1.391 . S
C262 H252 0.950 . S
C262 C263 1.386 . S
C262 C264 1.391 . S
C263 C262 1.386 . S
C263 C267 1.393 . S
C264 H253 0.950 . S
C264 C262 1.391 . S
C264 C265 1.400 . S
C265 C259 1.491 1_545 S
C265 C264 1.400 . S
C265 C266 1.398 . S
C266 H254 0.950 1_554 S
C266 C265 1.398 . S
C266 C267 1.391 . S
C267 H255 0.950 . S
C267 C263 1.393 . S
C267 C266 1.391 . S
H268 C276 0.950 . S
H269 C281 0.950 . S
H270 C278 0.950 . S
H271 C280 0.950 . S
H272 C282 0.950 1_655 S
H273 C284 0.950 1_655 S
H274 C286 0.950 . S
H275 C287 0.950 . S
C276 H268 0.950 . S
C276 C277 1.386 . S
C276 C278 1.391 . S
C277 C276 1.386 . S
C277 C281 1.393 1_455 S
C278 H270 0.950 . S
C278 C276 1.391 . S
C278 C279 1.400 . S
C279 C278 1.400 . S
C279 C280 1.398 1_455 S
C279 C285 1.491 . S
C280 H271 0.950 . S
C280 C279 1.398 1_655 S
C280 C281 1.391 . S
C281 H269 0.950 . S
C281 C277 1.393 1_655 S
C281 C280 1.391 . S
C282 H272 0.950 1_455 S
C282 C283 1.386 . S
C282 C284 1.391 1_545 S
C283 C282 1.386 . S
C283 C287 1.393 . S
C284 H273 0.950 1_455 S
C284 C282 1.391 1_565 S
C284 C285 1.400 . S
C285 C279 1.491 . S
C285 C284 1.400 . S
C285 C286 1.398 . S
C286 H274 0.950 . S
C286 C285 1.398 . S
C286 C287 1.391 1_565 S
C287 H275 0.950 . S
C287 C283 1.393 . S
C287 C286 1.391 1_545 S
H288 C296 0.950 . S
H289 C301 0.950 . S
H290 C298 0.950 . S
H291 C300 0.950 . S
H292 C302 0.950 . S
H293 C304 0.950 . S
H294 C306 0.950 . S
H295 C307 0.950 . S
C296 H288 0.950 . S
C296 C297 1.386 1_655 S
C296 C298 1.391 1_554 S
C297 C296 1.386 1_455 S
C297 C301 1.393 . S
C298 H290 0.950 . S
C298 C296 1.391 1_556 S
C298 C299 1.400 1_655 S
C299 C298 1.400 1_455 S
C299 C300 1.398 . S
C299 C305 1.491 . S
C300 H291 0.950 . S
C300 C299 1.398 . S
C300 C301 1.391 1_556 S
C301 H289 0.950 . S
C301 C297 1.393 . S
C301 C300 1.391 1_554 S
C302 H292 0.950 . S
C302 C303 1.386 . S
C302 C304 1.391 . S
C303 C302 1.386 . S
C303 C307 1.393 1_455 S
C304 H293 0.950 . S
C304 C302 1.391 . S
C304 C305 1.400 . S
C305 C299 1.491 . S
C305 C304 1.400 . S
C305 C306 1.398 1_455 S
C306 H294 0.950 . S
C306 C305 1.398 1_655 S
C306 C307 1.391 . S
C307 H295 0.950 . S
C307 C303 1.393 1_655 S
C307 C306 1.391 . S
H308 C316 0.950 . S
H309 C321 0.950 . S
H310 C318 0.950 . S
H311 C320 0.950 1_554 S
H312 C322 0.950 . S
H313 C324 0.950 . S
H314 C326 0.950 . S
H315 C327 0.950 . S
C316 H308 0.950 . S
C316 C317 1.386 1_655 S
C316 C318 1.391 . S
C317 C316 1.386 1_455 S
C317 C321 1.393 . S
C318 H310 0.950 . S
C318 C316 1.391 . S
C318 C319 1.400 1_656 S
C319 C318 1.400 1_454 S
C319 C320 1.398 1_554 S
C319 C325 1.491 . S
C320 H311 0.950 1_556 S
C320 C319 1.398 1_556 S
C320 C321 1.391 . S
C321 H309 0.950 . S
C321 C317 1.393 . S
C321 C320 1.391 . S
C322 H312 0.950 . S
C322 C323 1.386 . S
C322 C324 1.391 . S
C323 C322 1.386 . S
C323 C327 1.393 1_455 S
C324 H313 0.950 . S
C324 C322 1.391 . S
C324 C325 1.400 . S
C325 C319 1.491 . S
C325 C324 1.400 . S
C325 C326 1.398 1_455 S
C326 H314 0.950 . S
C326 C325 1.398 1_655 S
C326 C327 1.391 . S
C327 H315 0.950 . S
C327 C323 1.393 1_655 S
C327 C326 1.391 . S
H328 C336 0.950 . S
H329 C341 0.950 . S
H330 C338 0.950 . S
H331 C340 0.950 . S
H332 C342 0.950 . S
H333 C344 0.950 . S
H334 C346 0.950 . S
H335 C347 0.950 . S
C336 H328 0.950 . S
C336 C337 1.386 . S
C336 C338 1.391 . S
C337 C336 1.386 . S
C337 C341 1.393 . S
C338 H330 0.950 . S
C338 C336 1.391 . S
C338 C339 1.400 . S
C339 C338 1.400 . S
C339 C340 1.398 . S
C339 C345 1.491 . S
C340 H331 0.950 . S
C340 C339 1.398 . S
C340 C341 1.391 . S
C341 H329 0.950 . S
C341 C337 1.393 . S
C341 C340 1.391 . S
C342 H332 0.950 . S
C342 C343 1.386 . S
C342 C344 1.391 . S
C343 C342 1.386 . S
C343 C347 1.393 . S
C344 H333 0.950 . S
C344 C342 1.391 . S
C344 C345 1.400 . S
C345 C339 1.491 . S
C345 C344 1.400 . S
C345 C346 1.398 . S
C346 H334 0.950 . S
C346 C345 1.398 . S
C346 C347 1.391 . S
C347 H335 0.950 . S
C347 C343 1.393 . S
C347 C346 1.391 . S
H348 C356 0.950 . S
H349 C361 0.950 . S
H350 C358 0.950 . S
H351 C360 0.950 . S
H352 C362 0.950 . S
H353 C364 0.950 . S
H354 C366 0.950 . S
H355 C367 0.950 . S
C356 H348 0.950 . S
C356 C357 1.386 . S
C356 C358 1.391 . S
C357 C356 1.386 . S
C357 C361 1.393 . S
C358 H350 0.950 . S
C358 C356 1.391 . S
C358 C359 1.400 . S
C359 C358 1.400 . S
C359 C360 1.398 . S
C359 C365 1.491 . S
C360 H351 0.950 . S
C360 C359 1.398 . S
C360 C361 1.391 . S
C361 H349 0.950 . S
C361 C357 1.393 . S
C361 C360 1.391 . S
C362 H352 0.950 . S
C362 C363 1.386 . S
C362 C364 1.391 . S
C363 C362 1.386 . S
C363 C367 1.393 . S
C364 H353 0.950 . S
C364 C362 1.391 . S
C364 C365 1.400 . S
C365 C359 1.491 . S
C365 C364 1.400 . S
C365 C366 1.398 . S
C366 H354 0.950 . S
C366 C365 1.398 . S
C366 C367 1.391 . S
C367 H355 0.950 . S
C367 C363 1.393 . S
C367 C366 1.391 . S
C137 N18 2.317 . S
C143 C36 2.270 . S
C157 C70 1.332 . S
C163 N50 1.330 . S
C177 N109 1.238 . S
C183 N77 1.094 . S
C197 C4 2.088 . S
C203 C125 2.086 . S
C217 C98 2.689 . S
C223 C6 2.689 . S
C237 C68 0.871 . S
C243 N45 0.832 . S
C257 N82 1.113 . S
C263 N114 0.983 . S
C277 C38 2.547 . S
C283 N13 2.383 . S
C297 C29 1.007 . S
C303 C2 1.011 . S
C317 C34 1.023 . S
C323 C61 1.022 . S
C337 C66 1.015 . S
C343 C93 1.016 . S
C357 C100 1.006 . S
C363 C102 1.012 . S
