# Generated by pormake.
# Topology lcs-e, (6)-cn, num edge types: 1
# Building blocks:
#     Node 0, Type 0, BuildingBlock: GEDQOX_clean_sbu_0, # of connection points: 6
#     Node 1, Type 0, BuildingBlock: GEDQOX_clean_sbu_0, # of connection points: 6
#     Node 2, Type 0, BuildingBlock: GEDQOX_clean_sbu_0, # of connection points: 6
#     Node 3, Type 0, BuildingBlock: GEDQOX_clean_sbu_0, # of connection points: 6
#     Node 4, Type 0, BuildingBlock: GEDQOX_clean_sbu_0, # of connection points: 6
#     Node 5, Type 0, BuildingBlock: GEDQOX_clean_sbu_0, # of connection points: 6
#     Node 6, Type 0, BuildingBlock: GEDQOX_clean_sbu_0, # of connection points: 6
#     Node 7, Type 0, BuildingBlock: GEDQOX_clean_sbu_0, # of connection points: 6
#     Node 8, Type 0, BuildingBlock: GEDQOX_clean_sbu_0, # of connection points: 6
#     Node 9, Type 0, BuildingBlock: GEDQOX_clean_sbu_0, # of connection points: 6
#     Node 10, Type 0, BuildingBlock: GEDQOX_clean_sbu_0, # of connection points: 6
#     Node 11, Type 0, BuildingBlock: GEDQOX_clean_sbu_0, # of connection points: 6
#     Node 12, Type 0, BuildingBlock: GEDQOX_clean_sbu_0, # of connection points: 6
#     Node 13, Type 0, BuildingBlock: GEDQOX_clean_sbu_0, # of connection points: 6
#     Node 14, Type 0, BuildingBlock: GEDQOX_clean_sbu_0, # of connection points: 6
#     Node 15, Type 0, BuildingBlock: GEDQOX_clean_sbu_0, # of connection points: 6
#     Node 16, Type 0, BuildingBlock: GEDQOX_clean_sbu_0, # of connection points: 6
#     Node 17, Type 0, BuildingBlock: GEDQOX_clean_sbu_0, # of connection points: 6
#     Node 18, Type 0, BuildingBlock: GEDQOX_clean_sbu_0, # of connection points: 6
#     Node 19, Type 0, BuildingBlock: GEDQOX_clean_sbu_0, # of connection points: 6
#     Node 20, Type 0, BuildingBlock: GEDQOX_clean_sbu_0, # of connection points: 6
#     Node 21, Type 0, BuildingBlock: GEDQOX_clean_sbu_0, # of connection points: 6
#     Node 22, Type 0, BuildingBlock: GEDQOX_clean_sbu_0, # of connection points: 6
#     Node 23, Type 0, BuildingBlock: GEDQOX_clean_sbu_0, # of connection points: 6
#     Node 24, Type 0, BuildingBlock: GEDQOX_clean_sbu_0, # of connection points: 6
#     Node 25, Type 0, BuildingBlock: GEDQOX_clean_sbu_0, # of connection points: 6
#     Node 26, Type 0, BuildingBlock: GEDQOX_clean_sbu_0, # of connection points: 6
#     Node 27, Type 0, BuildingBlock: GEDQOX_clean_sbu_0, # of connection points: 6
#     Node 28, Type 0, BuildingBlock: GEDQOX_clean_sbu_0, # of connection points: 6
#     Node 29, Type 0, BuildingBlock: GEDQOX_clean_sbu_0, # of connection points: 6
#     Node 30, Type 0, BuildingBlock: GEDQOX_clean_sbu_0, # of connection points: 6
#     Node 31, Type 0, BuildingBlock: GEDQOX_clean_sbu_0, # of connection points: 6
#     Node 32, Type 0, BuildingBlock: GEDQOX_clean_sbu_0, # of connection points: 6
#     Node 33, Type 0, BuildingBlock: GEDQOX_clean_sbu_0, # of connection points: 6
#     Node 34, Type 0, BuildingBlock: GEDQOX_clean_sbu_0, # of connection points: 6
#     Node 35, Type 0, BuildingBlock: GEDQOX_clean_sbu_0, # of connection points: 6
#     Node 36, Type 0, BuildingBlock: GEDQOX_clean_sbu_0, # of connection points: 6
#     Node 37, Type 0, BuildingBlock: GEDQOX_clean_sbu_0, # of connection points: 6
#     Node 38, Type 0, BuildingBlock: GEDQOX_clean_sbu_0, # of connection points: 6
#     Node 39, Type 0, BuildingBlock: GEDQOX_clean_sbu_0, # of connection points: 6
#     Node 40, Type 0, BuildingBlock: GEDQOX_clean_sbu_0, # of connection points: 6
#     Node 41, Type 0, BuildingBlock: GEDQOX_clean_sbu_0, # of connection points: 6
#     Node 42, Type 0, BuildingBlock: GEDQOX_clean_sbu_0, # of connection points: 6
#     Node 43, Type 0, BuildingBlock: GEDQOX_clean_sbu_0, # of connection points: 6
#     Node 44, Type 0, BuildingBlock: GEDQOX_clean_sbu_0, # of connection points: 6
#     Node 45, Type 0, BuildingBlock: GEDQOX_clean_sbu_0, # of connection points: 6
#     Node 46, Type 0, BuildingBlock: GEDQOX_clean_sbu_0, # of connection points: 6
#     Node 47, Type 0, BuildingBlock: GEDQOX_clean_sbu_0, # of connection points: 6
#     Edge 48, Type (0, 0), BuildingBlock: EZIPEK_clean_linker_0, # of connection points: 2
#     Edge 49, Type (0, 0), BuildingBlock: EZIPEK_clean_linker_0, # of connection points: 2
#     Edge 50, Type (0, 0), BuildingBlock: EZIPEK_clean_linker_0, # of connection points: 2
#     Edge 51, Type (0, 0), BuildingBlock: EZIPEK_clean_linker_0, # of connection points: 2
#     Edge 52, Type (0, 0), BuildingBlock: EZIPEK_clean_linker_0, # of connection points: 2
#     Edge 53, Type (0, 0), BuildingBlock: EZIPEK_clean_linker_0, # of connection points: 2
#     Edge 54, Type (0, 0), BuildingBlock: EZIPEK_clean_linker_0, # of connection points: 2
#     Edge 55, Type (0, 0), BuildingBlock: EZIPEK_clean_linker_0, # of connection points: 2
#     Edge 56, Type (0, 0), BuildingBlock: EZIPEK_clean_linker_0, # of connection points: 2
#     Edge 57, Type (0, 0), BuildingBlock: EZIPEK_clean_linker_0, # of connection points: 2
#     Edge 58, Type (0, 0), BuildingBlock: EZIPEK_clean_linker_0, # of connection points: 2
#     Edge 59, Type (0, 0), BuildingBlock: EZIPEK_clean_linker_0, # of connection points: 2
#     Edge 60, Type (0, 0), BuildingBlock: EZIPEK_clean_linker_0, # of connection points: 2
#     Edge 61, Type (0, 0), BuildingBlock: EZIPEK_clean_linker_0, # of connection points: 2
#     Edge 62, Type (0, 0), BuildingBlock: EZIPEK_clean_linker_0, # of connection points: 2
#     Edge 63, Type (0, 0), BuildingBlock: EZIPEK_clean_linker_0, # of connection points: 2
#     Edge 64, Type (0, 0), BuildingBlock: EZIPEK_clean_linker_0, # of connection points: 2
#     Edge 65, Type (0, 0), BuildingBlock: EZIPEK_clean_linker_0, # of connection points: 2
#     Edge 66, Type (0, 0), BuildingBlock: EZIPEK_clean_linker_0, # of connection points: 2
#     Edge 67, Type (0, 0), BuildingBlock: EZIPEK_clean_linker_0, # of connection points: 2
#     Edge 68, Type (0, 0), BuildingBlock: EZIPEK_clean_linker_0, # of connection points: 2
#     Edge 69, Type (0, 0), BuildingBlock: EZIPEK_clean_linker_0, # of connection points: 2
#     Edge 70, Type (0, 0), BuildingBlock: EZIPEK_clean_linker_0, # of connection points: 2
#     Edge 71, Type (0, 0), BuildingBlock: EZIPEK_clean_linker_0, # of connection points: 2
#     Edge 72, Type (0, 0), BuildingBlock: EZIPEK_clean_linker_0, # of connection points: 2
#     Edge 73, Type (0, 0), BuildingBlock: EZIPEK_clean_linker_0, # of connection points: 2
#     Edge 74, Type (0, 0), BuildingBlock: EZIPEK_clean_linker_0, # of connection points: 2
#     Edge 75, Type (0, 0), BuildingBlock: EZIPEK_clean_linker_0, # of connection points: 2
#     Edge 76, Type (0, 0), BuildingBlock: EZIPEK_clean_linker_0, # of connection points: 2
#     Edge 77, Type (0, 0), BuildingBlock: EZIPEK_clean_linker_0, # of connection points: 2
#     Edge 78, Type (0, 0), BuildingBlock: EZIPEK_clean_linker_0, # of connection points: 2
#     Edge 79, Type (0, 0), BuildingBlock: EZIPEK_clean_linker_0, # of connection points: 2
#     Edge 80, Type (0, 0), BuildingBlock: EZIPEK_clean_linker_0, # of connection points: 2
#     Edge 81, Type (0, 0), BuildingBlock: EZIPEK_clean_linker_0, # of connection points: 2
#     Edge 82, Type (0, 0), BuildingBlock: EZIPEK_clean_linker_0, # of connection points: 2
#     Edge 83, Type (0, 0), BuildingBlock: EZIPEK_clean_linker_0, # of connection points: 2
#     Edge 84, Type (0, 0), BuildingBlock: EZIPEK_clean_linker_0, # of connection points: 2
#     Edge 85, Type (0, 0), BuildingBlock: EZIPEK_clean_linker_0, # of connection points: 2
#     Edge 86, Type (0, 0), BuildingBlock: EZIPEK_clean_linker_0, # of connection points: 2
#     Edge 87, Type (0, 0), BuildingBlock: EZIPEK_clean_linker_0, # of connection points: 2
#     Edge 88, Type (0, 0), BuildingBlock: EZIPEK_clean_linker_0, # of connection points: 2
#     Edge 89, Type (0, 0), BuildingBlock: EZIPEK_clean_linker_0, # of connection points: 2
#     Edge 90, Type (0, 0), BuildingBlock: EZIPEK_clean_linker_0, # of connection points: 2
#     Edge 91, Type (0, 0), BuildingBlock: EZIPEK_clean_linker_0, # of connection points: 2
#     Edge 92, Type (0, 0), BuildingBlock: EZIPEK_clean_linker_0, # of connection points: 2
#     Edge 93, Type (0, 0), BuildingBlock: EZIPEK_clean_linker_0, # of connection points: 2
#     Edge 94, Type (0, 0), BuildingBlock: EZIPEK_clean_linker_0, # of connection points: 2
#     Edge 95, Type (0, 0), BuildingBlock: EZIPEK_clean_linker_0, # of connection points: 2
#     Edge 96, Type (0, 0), BuildingBlock: EZIPEK_clean_linker_0, # of connection points: 2
#     Edge 97, Type (0, 0), BuildingBlock: EZIPEK_clean_linker_0, # of connection points: 2
#     Edge 98, Type (0, 0), BuildingBlock: EZIPEK_clean_linker_0, # of connection points: 2
#     Edge 99, Type (0, 0), BuildingBlock: EZIPEK_clean_linker_0, # of connection points: 2
#     Edge 100, Type (0, 0), BuildingBlock: EZIPEK_clean_linker_0, # of connection points: 2
#     Edge 101, Type (0, 0), BuildingBlock: EZIPEK_clean_linker_0, # of connection points: 2
#     Edge 102, Type (0, 0), BuildingBlock: EZIPEK_clean_linker_0, # of connection points: 2
#     Edge 103, Type (0, 0), BuildingBlock: EZIPEK_clean_linker_0, # of connection points: 2
#     Edge 104, Type (0, 0), BuildingBlock: EZIPEK_clean_linker_0, # of connection points: 2
#     Edge 105, Type (0, 0), BuildingBlock: EZIPEK_clean_linker_0, # of connection points: 2
#     Edge 106, Type (0, 0), BuildingBlock: EZIPEK_clean_linker_0, # of connection points: 2
#     Edge 107, Type (0, 0), BuildingBlock: EZIPEK_clean_linker_0, # of connection points: 2
#     Edge 108, Type (0, 0), BuildingBlock: EZIPEK_clean_linker_0, # of connection points: 2
#     Edge 109, Type (0, 0), BuildingBlock: EZIPEK_clean_linker_0, # of connection points: 2
#     Edge 110, Type (0, 0), BuildingBlock: EZIPEK_clean_linker_0, # of connection points: 2
#     Edge 111, Type (0, 0), BuildingBlock: EZIPEK_clean_linker_0, # of connection points: 2
#     Edge 112, Type (0, 0), BuildingBlock: EZIPEK_clean_linker_0, # of connection points: 2
#     Edge 113, Type (0, 0), BuildingBlock: EZIPEK_clean_linker_0, # of connection points: 2
#     Edge 114, Type (0, 0), BuildingBlock: EZIPEK_clean_linker_0, # of connection points: 2
#     Edge 115, Type (0, 0), BuildingBlock: EZIPEK_clean_linker_0, # of connection points: 2
#     Edge 116, Type (0, 0), BuildingBlock: EZIPEK_clean_linker_0, # of connection points: 2
#     Edge 117, Type (0, 0), BuildingBlock: EZIPEK_clean_linker_0, # of connection points: 2
#     Edge 118, Type (0, 0), BuildingBlock: EZIPEK_clean_linker_0, # of connection points: 2
#     Edge 119, Type (0, 0), BuildingBlock: EZIPEK_clean_linker_0, # of connection points: 2
#     Edge 120, Type (0, 0), BuildingBlock: EZIPEK_clean_linker_0, # of connection points: 2
#     Edge 121, Type (0, 0), BuildingBlock: EZIPEK_clean_linker_0, # of connection points: 2
#     Edge 122, Type (0, 0), BuildingBlock: EZIPEK_clean_linker_0, # of connection points: 2
#     Edge 123, Type (0, 0), BuildingBlock: EZIPEK_clean_linker_0, # of connection points: 2
#     Edge 124, Type (0, 0), BuildingBlock: EZIPEK_clean_linker_0, # of connection points: 2
#     Edge 125, Type (0, 0), BuildingBlock: EZIPEK_clean_linker_0, # of connection points: 2
#     Edge 126, Type (0, 0), BuildingBlock: EZIPEK_clean_linker_0, # of connection points: 2
#     Edge 127, Type (0, 0), BuildingBlock: EZIPEK_clean_linker_0, # of connection points: 2
#     Edge 128, Type (0, 0), BuildingBlock: EZIPEK_clean_linker_0, # of connection points: 2
#     Edge 129, Type (0, 0), BuildingBlock: EZIPEK_clean_linker_0, # of connection points: 2
#     Edge 130, Type (0, 0), BuildingBlock: EZIPEK_clean_linker_0, # of connection points: 2
#     Edge 131, Type (0, 0), BuildingBlock: EZIPEK_clean_linker_0, # of connection points: 2
#     Edge 132, Type (0, 0), BuildingBlock: EZIPEK_clean_linker_0, # of connection points: 2
#     Edge 133, Type (0, 0), BuildingBlock: EZIPEK_clean_linker_0, # of connection points: 2
#     Edge 134, Type (0, 0), BuildingBlock: EZIPEK_clean_linker_0, # of connection points: 2
#     Edge 135, Type (0, 0), BuildingBlock: EZIPEK_clean_linker_0, # of connection points: 2
#     Edge 136, Type (0, 0), BuildingBlock: EZIPEK_clean_linker_0, # of connection points: 2
#     Edge 137, Type (0, 0), BuildingBlock: EZIPEK_clean_linker_0, # of connection points: 2
#     Edge 138, Type (0, 0), BuildingBlock: EZIPEK_clean_linker_0, # of connection points: 2
#     Edge 139, Type (0, 0), BuildingBlock: EZIPEK_clean_linker_0, # of connection points: 2
#     Edge 140, Type (0, 0), BuildingBlock: EZIPEK_clean_linker_0, # of connection points: 2
#     Edge 141, Type (0, 0), BuildingBlock: EZIPEK_clean_linker_0, # of connection points: 2
#     Edge 142, Type (0, 0), BuildingBlock: EZIPEK_clean_linker_0, # of connection points: 2
#     Edge 143, Type (0, 0), BuildingBlock: EZIPEK_clean_linker_0, # of connection points: 2
#     Edge 144, Type (0, 0), BuildingBlock: EZIPEK_clean_linker_0, # of connection points: 2
#     Edge 145, Type (0, 0), BuildingBlock: EZIPEK_clean_linker_0, # of connection points: 2
#     Edge 146, Type (0, 0), BuildingBlock: EZIPEK_clean_linker_0, # of connection points: 2
#     Edge 147, Type (0, 0), BuildingBlock: EZIPEK_clean_linker_0, # of connection points: 2
#     Edge 148, Type (0, 0), BuildingBlock: EZIPEK_clean_linker_0, # of connection points: 2
#     Edge 149, Type (0, 0), BuildingBlock: EZIPEK_clean_linker_0, # of connection points: 2
#     Edge 150, Type (0, 0), BuildingBlock: EZIPEK_clean_linker_0, # of connection points: 2
#     Edge 151, Type (0, 0), BuildingBlock: EZIPEK_clean_linker_0, # of connection points: 2
#     Edge 152, Type (0, 0), BuildingBlock: EZIPEK_clean_linker_0, # of connection points: 2
#     Edge 153, Type (0, 0), BuildingBlock: EZIPEK_clean_linker_0, # of connection points: 2
#     Edge 154, Type (0, 0), BuildingBlock: EZIPEK_clean_linker_0, # of connection points: 2
#     Edge 155, Type (0, 0), BuildingBlock: EZIPEK_clean_linker_0, # of connection points: 2
#     Edge 156, Type (0, 0), BuildingBlock: EZIPEK_clean_linker_0, # of connection points: 2
#     Edge 157, Type (0, 0), BuildingBlock: EZIPEK_clean_linker_0, # of connection points: 2
#     Edge 158, Type (0, 0), BuildingBlock: EZIPEK_clean_linker_0, # of connection points: 2
#     Edge 159, Type (0, 0), BuildingBlock: EZIPEK_clean_linker_0, # of connection points: 2
#     Edge 160, Type (0, 0), BuildingBlock: EZIPEK_clean_linker_0, # of connection points: 2
#     Edge 161, Type (0, 0), BuildingBlock: EZIPEK_clean_linker_0, # of connection points: 2
#     Edge 162, Type (0, 0), BuildingBlock: EZIPEK_clean_linker_0, # of connection points: 2
#     Edge 163, Type (0, 0), BuildingBlock: EZIPEK_clean_linker_0, # of connection points: 2
#     Edge 164, Type (0, 0), BuildingBlock: EZIPEK_clean_linker_0, # of connection points: 2
#     Edge 165, Type (0, 0), BuildingBlock: EZIPEK_clean_linker_0, # of connection points: 2
#     Edge 166, Type (0, 0), BuildingBlock: EZIPEK_clean_linker_0, # of connection points: 2
#     Edge 167, Type (0, 0), BuildingBlock: EZIPEK_clean_linker_0, # of connection points: 2
#     Edge 168, Type (0, 0), BuildingBlock: EZIPEK_clean_linker_0, # of connection points: 2
#     Edge 169, Type (0, 0), BuildingBlock: EZIPEK_clean_linker_0, # of connection points: 2
#     Edge 170, Type (0, 0), BuildingBlock: EZIPEK_clean_linker_0, # of connection points: 2
#     Edge 171, Type (0, 0), BuildingBlock: EZIPEK_clean_linker_0, # of connection points: 2
#     Edge 172, Type (0, 0), BuildingBlock: EZIPEK_clean_linker_0, # of connection points: 2
#     Edge 173, Type (0, 0), BuildingBlock: EZIPEK_clean_linker_0, # of connection points: 2
#     Edge 174, Type (0, 0), BuildingBlock: EZIPEK_clean_linker_0, # of connection points: 2
#     Edge 175, Type (0, 0), BuildingBlock: EZIPEK_clean_linker_0, # of connection points: 2
#     Edge 176, Type (0, 0), BuildingBlock: EZIPEK_clean_linker_0, # of connection points: 2
#     Edge 177, Type (0, 0), BuildingBlock: EZIPEK_clean_linker_0, # of connection points: 2
#     Edge 178, Type (0, 0), BuildingBlock: EZIPEK_clean_linker_0, # of connection points: 2
#     Edge 179, Type (0, 0), BuildingBlock: EZIPEK_clean_linker_0, # of connection points: 2
#     Edge 180, Type (0, 0), BuildingBlock: EZIPEK_clean_linker_0, # of connection points: 2
#     Edge 181, Type (0, 0), BuildingBlock: EZIPEK_clean_linker_0, # of connection points: 2
#     Edge 182, Type (0, 0), BuildingBlock: EZIPEK_clean_linker_0, # of connection points: 2
#     Edge 183, Type (0, 0), BuildingBlock: EZIPEK_clean_linker_0, # of connection points: 2
#     Edge 184, Type (0, 0), BuildingBlock: EZIPEK_clean_linker_0, # of connection points: 2
#     Edge 185, Type (0, 0), BuildingBlock: EZIPEK_clean_linker_0, # of connection points: 2
#     Edge 186, Type (0, 0), BuildingBlock: EZIPEK_clean_linker_0, # of connection points: 2
#     Edge 187, Type (0, 0), BuildingBlock: EZIPEK_clean_linker_0, # of connection points: 2
#     Edge 188, Type (0, 0), BuildingBlock: EZIPEK_clean_linker_0, # of connection points: 2
#     Edge 189, Type (0, 0), BuildingBlock: EZIPEK_clean_linker_0, # of connection points: 2
#     Edge 190, Type (0, 0), BuildingBlock: EZIPEK_clean_linker_0, # of connection points: 2
#     Edge 191, Type (0, 0), BuildingBlock: EZIPEK_clean_linker_0, # of connection points: 2
# Relax obj value: 0.471
# Max RMSD: 0.479
# Mean RMSD: 0.337
data_MOF--net-lcs-e--node1-GEDQOX_clean_sbu_0--edge1-EZIPEK_clean_linker_0
_symmetry_space_group_name_H-M    P1
_symmetry_Int_Tables_number       1
_symmetry_cell_setting            triclinic
loop_
_symmetry_equiv_pos_as_xyz
'x, y, z'
_cell_length_a     51.542956
_cell_length_b     59.056629
_cell_length_c     50.7121
_cell_angle_alpha  96.145044
_cell_angle_beta   85.182232
_cell_angle_gamma 87.030784
loop_
_atom_site_label
_atom_site_type_symbol
_atom_site_fract_x
_atom_site_fract_y
_atom_site_fract_z
_atom_type_partial_charge
Nd0 Nd 0.08458 0.44768 0.18202 0.0
Nd1 Nd 0.04225 0.47737 0.16268 0.0
C2 C 0.11668 0.41798 0.19954 0.0
C3 C 0.11038 0.40252 0.219 0.0
C4 C 0.08424 0.39741 0.22417 0.0
C5 C 0.0765 0.38746 0.24683 0.0
C6 C 0.09514 0.38175 0.26375 0.0
C7 C 0.12154 0.3857 0.25785 0.0
C8 C 0.12912 0.39632 0.23559 0.0
C9 C 0.08703 0.494 0.19675 0.0
C10 C 0.02772 0.45242 0.21594 0.0
C11 C 0.01452 0.51312 0.148 0.0
C12 C 0.01392 0.53789 0.14268 0.0
C13 C 0.02774 0.5543 0.15714 0.0
C14 C 0.02419 0.57785 0.15435 0.0
C15 C 1.00605 0.58595 0.1376 0.0
C16 C 0.99268 0.56944 0.12271 0.0
C17 C 0.99668 0.54589 0.12509 0.0
C18 C 0.03762 0.42981 0.15071 0.0
C19 C 0.10081 0.46723 0.13034 0.0
O20 O 0.10607 0.414 0.17725 0.0
O21 O 0.11416 0.43941 0.20922 0.0
O22 O 0.10701 0.48031 0.18772 0.0
O23 O 0.06666 0.48314 0.19703 0.0
O24 O 0.04956 0.43986 0.20932 0.0
O25 O 0.02121 0.47004 0.2031 0.0
O26 O 0.01597 0.50872 0.17256 0.0
O27 O 0.02705 0.49721 0.13087 0.0
O28 O 0.01811 0.44505 0.15553 0.0
O29 O 0.05813 0.44069 0.14969 0.0
O30 O 0.08261 0.4836 0.13947 0.0
O31 O 0.10001 0.44761 0.13968 0.0
H32 H 0.06964 0.40185 0.21124 0.0
H33 H 0.05612 0.38446 0.25128 0.0
H34 H 0.13605 0.38123 0.271 0.0
H35 H 0.14924 0.40053 0.23197 0.0
H36 H 0.04061 0.54904 0.17139 0.0
H37 H 0.03485 0.58989 0.1662 0.0
H38 H 0.9785 0.57484 0.10971 0.0
H39 H 0.9854 0.53393 0.11387 0.0
Nd40 Nd 0.96472 0.75409 0.47031 0.0
Nd41 Nd 0.9318 0.7327 0.50337 0.0
C42 C 0.99239 0.7794 0.44016 0.0
C43 C 0.98357 0.79489 0.42157 0.0
C44 C 0.96159 0.79012 0.4077 0.0
C45 C 0.94946 0.80692 0.39489 0.0
C46 C 0.9594 0.82855 0.39563 0.0
C47 C 0.98261 0.83271 0.40746 0.0
C48 C 0.99462 0.81595 0.42048 0.0
C49 C 0.9879 0.71102 0.47646 0.0
C50 C 0.90768 0.74206 0.44804 0.0
C51 C 0.91166 0.69598 0.51859 0.0
C52 C 0.92158 0.67953 0.53518 0.0
C53 C 0.94717 0.68079 0.54264 0.0
C54 C 0.95453 0.66999 0.56418 0.0
C55 C 0.93612 0.65826 0.57835 0.0
C56 C 0.91171 0.65471 0.56883 0.0
C57 C 0.90439 0.66543 0.54726 0.0
C58 C 0.91593 0.77842 0.50854 0.0
C59 C 0.97187 0.75961 0.53538 0.0
O60 O 0.98511 0.78579 0.46531 0.0
O61 O 0.98934 0.75784 0.43333 0.0
O62 O 0.98331 0.71793 0.45379 0.0
O63 O 0.97589 0.72534 0.49412 0.0
O64 O 0.92955 0.7523 0.44364 0.0
O65 O 0.9049 0.73116 0.46917 0.0
O66 O 0.92507 0.69614 0.49545 0.0
O67 O 0.90557 0.71641 0.53123 0.0
O68 O 0.91343 0.76552 0.52785 0.0
O69 O 0.92405 0.76655 0.48681 0.0
O70 O 0.95648 0.74272 0.53681 0.0
O71 O 0.97699 0.76835 0.51248 0.0
H72 H 0.95281 0.7739 0.40806 0.0
H73 H 0.93141 0.80359 0.38607 0.0
H74 H 0.99029 0.84948 0.4083 0.0
H75 H 0.0115 0.8199 0.43109 0.0
H76 H 0.96058 0.69179 0.53343 0.0
H77 H 0.97334 0.67294 0.57155 0.0
H78 H 0.89739 0.64566 0.57979 0.0
H79 H 0.88465 0.66435 0.54159 0.0
Nd80 Nd 0.47649 0.71553 0.83509 0.0
Nd81 Nd 0.50618 0.73532 0.79238 0.0
C82 C 0.44446 0.69475 0.86627 0.0
C83 C 0.429 0.67494 0.86326 0.0
C84 C 0.42982 0.66149 0.83863 0.0
C85 C 0.41585 0.64192 0.83627 0.0
C86 C 0.40151 0.63557 0.85871 0.0
C87 C 0.40021 0.64933 0.88312 0.0
C88 C 0.4139 0.66903 0.88537 0.0
C89 C 0.47572 0.76265 0.84708 0.0
C90 C 0.45175 0.71764 0.77796 0.0
C91 C 0.53059 0.76293 0.76096 0.0
C92 C 0.5344 0.78561 0.75067 0.0
C93 C 0.54075 0.80506 0.76697 0.0
C94 C 0.54578 0.82562 0.75608 0.0
C95 C 0.54476 0.82725 0.72863 0.0
C96 C 0.53879 0.80776 0.71236 0.0
C97 C 0.53375 0.78728 0.72321 0.0
C98 C 0.51458 0.68615 0.78108 0.0
C99 C 0.5329 0.72796 0.848 0.0
O100 O 0.46973 0.69035 0.86368 0.0
O101 O 0.43695 0.71194 0.85392 0.0
O102 O 0.48095 0.74771 0.86286 0.0
O103 O 0.47306 0.75242 0.82385 0.0
O104 O 0.45576 0.70506 0.79737 0.0
O105 O 0.46679 0.73462 0.7749 0.0
O106 O 0.51067 0.75142 0.75437 0.0
O107 O 0.53737 0.75937 0.78455 0.0
O108 O 0.52466 0.70127 0.76727 0.0
O109 O 0.50124 0.69787 0.80029 0.0
O110 O 0.53043 0.74112 0.82878 0.0
O111 O 0.51645 0.71191 0.8508 0.0
H112 H 0.44163 0.6659 0.82147 0.0
H113 H 0.41684 0.63137 0.81734 0.0
H114 H 0.38918 0.64445 0.90055 0.0
H115 H 0.41317 0.67934 0.90446 0.0
H116 H 0.54187 0.80441 0.78811 0.0
H117 H 0.55028 0.84035 0.76913 0.0
H118 H 0.5378 0.80845 0.69121 0.0
H119 H 0.52948 0.77258 0.70996 0.0
Nd120 Nd 0.58925 0.16753 0.0784 0.0
Nd121 Nd 0.62129 0.19934 0.0458 0.0
C122 C 0.55796 0.1448 0.10913 0.0
C123 C 0.55788 0.13264 0.13334 0.0
C124 C 0.53696 0.13704 0.15319 0.0
C125 C 0.5352 0.12444 0.1751 0.0
C126 C 0.55426 0.10709 0.17758 0.0
C127 C 0.57556 0.10303 0.15814 0.0
C128 C 0.57744 0.11576 0.13628 0.0
C129 C 0.64256 0.15846 0.07619 0.0
C130 C 0.60474 0.21596 0.10788 0.0
C131 C 0.65932 0.21317 0.01176 0.0
C132 C 0.68766 0.20973 0.99956 0.0
C133 C 0.69884 0.18822 0.98801 0.0
C134 C 0.72458 0.18562 0.97519 0.0
C135 C 0.74047 0.20437 0.97321 0.0
C136 C 0.72923 0.22591 0.98464 0.0
C137 C 0.7034 0.22852 0.9974 0.0
C138 C 0.56632 0.20867 0.04668 0.0
C139 C 0.60412 0.15274 0.01863 0.0
O140 O 0.55879 0.167 0.11232 0.0
O141 O 0.57199 0.1354 0.08771 0.0
O142 O 0.62551 0.14314 0.07542 0.0
O143 O 0.63122 0.17807 0.07872 0.0
O144 O 0.58791 0.19999 0.10704 0.0
O145 O 0.62234 0.2181 0.08784 0.0
O146 O 0.65375 0.22256 0.03631 0.0
O147 O 0.64299 0.19773 1.00542 0.0
O148 O 0.58392 0.22359 0.04431 0.0
O149 O 0.57831 0.18928 0.04582 0.0
O150 O 0.62513 0.16265 0.02553 0.0
O151 O 0.58348 0.15507 0.03585 0.0
H152 H 0.52159 0.14986 0.15139 0.0
H153 H 0.5185 0.12772 0.18974 0.0
H154 H 0.59039 0.08965 0.1596 0.0
H155 H 0.59386 0.11201 0.12139 0.0
H156 H 0.68765 0.17324 0.98885 0.0
H157 H 0.73231 0.16868 0.96706 0.0
H158 H 0.74059 0.2408 0.98401 0.0
H159 H 0.69564 0.24545 1.00558 0.0
Nd160 Nd 0.01129 0.70331 0.08174 0.0
Nd161 Nd 0.98679 0.73336 0.13331 0.0
C162 C 0.03112 0.67088 0.04491 0.0
C163 C 0.0572 0.66542 0.03137 0.0
C164 C 0.06609 0.64247 0.02695 0.0
C165 C 0.09269 0.63663 0.02269 0.0
C166 C 0.11072 0.65367 0.0226 0.0
C167 C 0.10174 0.67661 0.024 0.0
C168 C 0.07498 0.68252 0.02874 0.0
C169 C 0.0296 0.74796 0.08195 0.0
C170 C 0.04254 0.7067 0.13613 0.0
C171 C 0.96636 0.77098 0.16348 0.0
C172 C 0.96459 0.79611 0.16077 0.0
C173 C 0.95551 0.8048 0.13808 0.0
C174 C 0.9543 0.82845 0.13588 0.0
C175 C 0.96227 0.84399 0.15623 0.0
C176 C 0.97122 0.83531 0.17884 0.0
C177 C 0.97234 0.81175 0.18108 0.0
C178 C 0.98375 0.68608 0.13535 0.0
C179 C 0.94933 0.72037 0.08395 0.0
O180 O 0.02996 0.66896 0.07044 0.0
O181 O 0.01813 0.68915 0.0392 0.0
O182 O 0.03659 0.73076 0.06441 0.0
O183 O 0.01386 0.74026 0.09879 0.0
O184 O 0.03745 0.69405 0.11421 0.0
O185 O 0.02819 0.72568 0.14467 0.0
O186 O 0.98928 0.76144 0.16636 0.0
O187 O 0.95308 0.75782 0.148 0.0
O188 O 0.98488 0.70116 0.15603 0.0
O189 O 0.98162 0.6971 0.11531 0.0
O190 O 0.95283 0.73276 0.10654 0.0
O191 O 0.96863 0.70735 0.07025 0.0
H192 H 0.05268 0.62912 0.02918 0.0
H193 H 0.09929 0.61879 0.0215 0.0
H194 H 0.11541 0.68992 0.02358 0.0
H195 H 0.06845 0.70038 0.03226 0.0
H196 H 0.94943 0.79334 0.12193 0.0
H197 H 0.94721 0.83462 0.11829 0.0
H198 H 0.97734 0.84687 0.19487 0.0
H199 H 0.97939 0.80571 0.19877 0.0
Nd200 Nd 0.75721 0.77418 0.38846 0.0
Nd201 Nd 0.74666 0.76517 0.44783 0.0
C202 C 0.77588 0.78916 0.3436 0.0
C203 C 0.78098 0.8118 0.33459 0.0
C204 C 0.80653 0.81915 0.33255 0.0
C205 C 0.81122 0.84116 0.32618 0.0
C206 C 0.79046 0.85618 0.32163 0.0
C207 C 0.76512 0.84857 0.32238 0.0
C208 C 0.76041 0.82657 0.32872 0.0
C209 C 0.70473 0.77073 0.40466 0.0
C210 C 0.74953 0.81716 0.43648 0.0
C211 C 0.72346 0.75191 0.49127 0.0
C212 C 0.69844 0.74142 0.49611 0.0
C213 C 0.6747 0.75335 0.49329 0.0
C214 C 0.65164 0.74204 0.49353 0.0
C215 C 0.65198 0.7187 0.49648 0.0
C216 C 0.67543 0.70684 0.50005 0.0
C217 C 0.6985 0.7182 0.50011 0.0
C218 C 0.80041 0.76035 0.43469 0.0
C219 C 0.74765 0.72432 0.40051 0.0
O220 O 0.79075 0.78194 0.36106 0.0
O221 O 0.7515 0.78464 0.34856 0.0
O222 O 0.7158 0.76336 0.38108 0.0
O223 O 0.72141 0.78026 0.41846 0.0
O224 O 0.75709 0.81002 0.41129 0.0
O225 O 0.74299 0.80345 0.45442 0.0
O226 O 0.72265 0.77332 0.48645 0.0
O227 O 0.74089 0.73907 0.47539 0.0
O228 O 0.78936 0.75964 0.45839 0.0
O229 O 0.78312 0.7653 0.41964 0.0
O230 O 0.73466 0.7345 0.42227 0.0
O231 O 0.76288 0.73539 0.38482 0.0
H232 H 0.82281 0.80814 0.33669 0.0
H233 H 0.83088 0.84685 0.326 0.0
H234 H 0.74885 0.86001 0.31919 0.0
H235 H 0.74052 0.82144 0.32981 0.0
H236 H 0.67401 0.77115 0.48987 0.0
H237 H 0.63361 0.75133 0.49061 0.0
H238 H 0.67592 0.68876 0.50214 0.0
H239 H 0.71659 0.7086 0.50209 0.0
Nd240 Nd 0.43572 0.44849 0.65878 0.0
Nd241 Nd 0.47212 0.47781 0.68924 0.0
C242 C 0.40747 0.42014 0.62947 0.0
C243 C 0.39792 0.39734 0.61994 0.0
C244 C 0.41313 0.38102 0.60191 0.0
C245 C 0.40246 0.36076 0.59146 0.0
C246 C 0.37625 0.35648 0.59851 0.0
C247 C 0.36123 0.37267 0.61661 0.0
C248 C 0.37187 0.39276 0.62711 0.0
C249 C 0.42843 0.49451 0.65223 0.0
C250 C 0.50168 0.43998 0.64393 0.0
C251 C 0.4952 0.5148 0.71097 0.0
C252 C 0.49506 0.5399 0.72274 0.0
C253 C 0.48679 0.55828 0.70903 0.0
C254 C 0.48972 0.58144 0.71896 0.0
C255 C 0.5013 0.58734 0.74294 0.0
C256 C 0.50936 0.56896 0.75668 0.0
C257 C 0.50629 0.54586 0.74685 0.0
C258 C 0.47397 0.43099 0.69979 0.0
C259 C 0.41362 0.47314 0.71776 0.0
O260 O 0.43058 0.42611 0.62104 0.0
O261 O 0.39994 0.42931 0.65367 0.0
O262 O 0.4104 0.48047 0.65459 0.0
O263 O 0.45064 0.48383 0.65218 0.0
O264 O 0.47815 0.4315 0.64314 0.0
O265 O 0.50346 0.46062 0.65655 0.0
O266 O 0.493 0.50983 0.68551 0.0
O267 O 0.4857 0.49913 0.72487 0.0
O268 O 0.49335 0.44434 0.70115 0.0
O269 O 0.45412 0.44348 0.69626 0.0
O270 O 0.4325 0.48709 0.7141 0.0
O271 O 0.41263 0.4543 0.70099 0.0
H272 H 0.43315 0.38401 0.59564 0.0
H273 H 0.41454 0.34853 0.57763 0.0
H274 H 0.34106 0.36985 0.62246 0.0
H275 H 0.35942 0.40504 0.64054 0.0
H276 H 0.47844 0.5548 0.69023 0.0
H277 H 0.4833 0.59483 0.70756 0.0
H278 H 0.51853 0.57245 0.77501 0.0
H279 H 0.51343 0.53249 0.75791 0.0
Nd280 Nd 0.89163 0.15951 0.88293 0.0
Nd281 Nd 0.9086 0.17499 0.92656 0.0
C282 C 0.86209 0.14261 0.84581 0.0
C283 C 0.83394 0.14306 0.84253 0.0
C284 C 0.81681 0.16023 0.85678 0.0
C285 C 0.79052 0.16179 0.85187 0.0
C286 C 0.78092 0.14609 0.83286 0.0
C287 C 0.79775 0.12821 0.81958 0.0
C288 C 0.82415 0.12678 0.82432 0.0
C289 C 0.94424 0.14256 0.87871 0.0
C290 C 0.8886 0.12885 0.93259 0.0
C291 C 0.93268 0.19502 0.96578 0.0
C292 C 0.96015 0.19878 0.96947 0.0
C293 C 0.97633 0.20772 0.94986 0.0
C294 C 1.00216 0.21176 0.95408 0.0
C295 C 0.0121 0.20678 0.97781 0.0
C296 C 0.99634 0.197 0.9969 0.0
C297 C 0.97047 0.19307 0.99276 0.0
C298 C 0.85335 0.18376 0.9327 0.0
C299 C 0.9261 0.20301 0.87932 0.0
O300 O 0.87285 0.16207 0.8455 0.0
O301 O 0.87011 0.13107 0.86435 0.0
O302 O 0.93253 0.15084 0.86 0.0
O303 O 0.92838 0.14382 0.89951 0.0
O304 O 0.87428 0.13691 0.91486 0.0
O305 O 0.91048 0.13842 0.93534 0.0
O306 O 0.92622 0.17393 0.96487 0.0
O307 O 0.92215 0.20611 0.94805 0.0
O308 O 0.86784 0.1761 0.94974 0.0
O309 O 0.86832 0.18699 0.9121 0.0
O310 O 0.93511 0.19391 0.89916 0.0
O311 O 0.90461 0.19494 0.87054 0.0
H312 H 0.82392 0.17278 0.87117 0.0
H313 H 0.77779 0.1756 0.86241 0.0
H314 H 0.79064 0.11589 0.80493 0.0
H315 H 0.83705 0.11331 0.81331 0.0
H316 H 0.96897 0.21207 0.93156 0.0
H317 H 0.0141 0.21949 0.93929 0.0
H318 H 1.0038 0.19327 0.01541 0.0
H319 H 0.95836 0.18596 1.00794 0.0
Nd320 Nd 0.32661 0.03122 0.43191 0.0
Nd321 Nd 0.28973 0.04918 0.40448 0.0
C322 C 0.36675 0.01543 0.45392 0.0
C323 C 0.37224 0.99156 0.4578 0.0
C324 C 0.39482 0.97996 0.4446 0.0
C325 C 0.3989 0.95662 0.44529 0.0
C326 C 0.38052 0.9447 0.45932 0.0
C327 C 0.35745 0.95594 0.47169 0.0
C328 C 0.3533 0.97933 0.47094 0.0
C329 C 0.27952 0.01893 0.45681 0.0
C330 C 0.31776 1.00298 0.3717 0.0
C331 C 0.24962 0.06832 0.38406 0.0
C332 C 0.23274 0.08943 0.38693 0.0
C333 C 0.21398 0.09517 0.40847 0.0
C334 C 0.19814 0.11528 0.40993 0.0
C335 C 0.19964 0.12968 0.3892 0.0
C336 C 0.22055 0.12461 0.36924 0.0
C337 C 0.23617 0.10454 0.36767 0.0
C338 C 0.34037 0.05782 0.38525 0.0
C339 C 0.30667 0.08504 0.45344 0.0
O340 O 0.3681 0.01921 0.42898 0.0
O341 O 0.34645 0.02596 0.46804 0.0
O342 O 0.29904 1.00476 0.44757 0.0
O343 O 0.28343 0.03771 0.4472 0.0
O344 O 0.33485 0.00828 0.38935 0.0
O345 O 0.29471 0.01412 0.37745 0.0
O346 O 0.24679 0.05383 0.40178 0.0
O347 O 0.27394 0.07068 0.37627 0.0
O348 O 0.32315 0.04927 0.37062 0.0
O349 O 0.33044 0.06046 0.40875 0.0
O350 O 0.29107 0.08197 0.4341 0.0
O351 O 0.32422 0.06813 0.45547 0.0
H352 H 0.40919 0.98896 0.43363 0.0
H353 H 0.41689 0.94798 0.43581 0.0
H354 H 0.34335 0.94684 0.48285 0.0
H355 H 0.3353 0.98775 0.48064 0.0
H356 H 0.21174 0.08436 0.42438 0.0
H357 H 0.18533 0.1195 0.42792 0.0
H358 H 0.2259 0.13606 0.35485 0.0
H359 H 0.25136 0.10101 0.35139 0.0
Nd360 Nd 0.1891 0.01673 0.60143 0.0
Nd361 Nd 0.23882 1.00223 0.62663 0.0
C362 C 0.15936 0.03247 0.56731 0.0
C363 C 0.14625 0.05527 0.57027 0.0
C364 C 0.14135 0.06627 0.5479 0.0
C365 C 0.13342 0.08949 0.55104 0.0
C366 C 0.13053 0.10171 0.57654 0.0
C367 C 0.13485 0.09061 0.59887 0.0
C368 C 0.14265 0.06755 0.59575 0.0
C369 C 0.17657 0.02395 0.65632 0.0
C370 C 0.22881 0.05574 0.62108 0.0
C371 C 0.26974 0.98533 0.65991 0.0
C372 C 0.26556 0.97448 0.68506 0.0
C373 C 0.24473 0.98214 0.70426 0.0
C374 C 0.24249 0.97347 0.72904 0.0
C375 C 0.26082 0.95677 0.73508 0.0
C376 C 0.28088 0.94827 0.71545 0.0
C377 C 0.28323 0.95706 0.6907 0.0
C378 C 0.24746 1.00551 0.57127 0.0
C379 C 0.19244 0.96677 0.61902 0.0
O380 O 0.18484 0.03259 0.56437 0.0
O381 O 0.15091 0.01885 0.58452 0.0
O382 O 0.1606 0.02777 0.63868 0.0
O383 O 0.19865 0.01625 0.64452 0.0
O384 O 0.20729 0.05069 0.61013 0.0
O385 O 0.24397 0.04041 0.6304 0.0
O386 O 0.26226 0.00701 0.66121 0.0
O387 O 0.26429 0.97365 0.63779 0.0
O388 O 0.26498 0.00756 0.58826 0.0
O389 O 0.22735 0.99827 0.58355 0.0
O390 O 0.21286 0.97263 0.63134 0.0
O391 O 0.18182 0.97929 0.60234 0.0
H392 H 0.14464 0.05718 0.52808 0.0
H393 H 0.1303 0.09806 0.53362 0.0
H394 H 0.13291 0.09996 0.61859 0.0
H395 H 0.14699 0.05961 0.6132 0.0
H396 H 0.23059 0.99535 0.70045 0.0
H397 H 0.22692 0.98035 0.74386 0.0
H398 H 0.29532 0.93549 0.71969 0.0
H399 H 0.29935 0.95074 0.67626 0.0
Nd400 Nd 0.21418 0.90751 0.87852 0.0
Nd401 Nd 0.22973 0.95028 0.89966 0.0
C402 C 0.19883 0.87321 0.84588 0.0
C403 C 0.17756 0.86141 0.83295 0.0
C404 C 0.16269 0.87213 0.81521 0.0
C405 C 0.14699 0.85946 0.79861 0.0
C406 C 0.14579 0.83583 0.79939 0.0
C407 C 0.15926 0.82533 0.81822 0.0
C408 C 0.17503 0.83801 0.83482 0.0
C409 C 0.1998 0.9134 0.93254 0.0
C410 C 0.17515 0.95527 0.87484 0.0
C411 C 0.24722 0.98524 0.92813 0.0
C412 C 0.25992 0.98679 0.95288 0.0
C413 C 0.25649 0.97001 0.9703 0.0
C414 C 0.26834 0.97152 0.99406 0.0
C415 C 0.2836 0.98989 1.00064 0.0
C416 C 0.2876 1.00634 0.98295 0.0
C417 C 0.27583 1.00476 0.95908 0.0
C418 C 0.24248 0.94237 0.84514 0.0
C419 C 0.26898 0.90697 0.9085 0.0
O420 O 0.20439 0.89311 0.83889 0.0
O421 O 0.20213 0.87148 0.87085 0.0
O422 O 0.2069 0.89407 0.91865 0.0
O423 O 0.1983 0.92914 0.91727 0.0
O424 O 0.17923 0.93271 0.86911 0.0
O425 O 0.19175 0.96652 0.88859 0.0
O426 O 0.22286 0.97995 0.93031 0.0
O427 O 0.26085 0.97396 0.90756 0.0
O428 O 0.23153 0.96111 0.85769 0.0
O429 O 0.24626 0.92787 0.86144 0.0
O430 O 0.25989 0.92776 0.9177 0.0
O431 O 0.25626 0.89553 0.88992 0.0
H432 H 0.16418 0.89009 0.81312 0.0
H433 H 0.13674 0.86789 0.78423 0.0
H434 H 0.15862 0.80713 0.81913 0.0
H435 H 0.18637 0.82923 0.8481 0.0
H436 H 0.24435 0.95595 0.96568 0.0
H437 H 0.26518 0.95869 1.00755 0.0
H438 H 0.29946 0.02055 0.98787 0.0
H439 H 0.27886 0.01765 0.94564 0.0
Nd440 Nd 0.37622 0.92243 0.20815 0.0
Nd441 Nd 0.36031 0.96523 0.20081 0.0
C442 C 0.3861 0.88378 0.22906 0.0
C443 C 0.39734 0.87395 0.25153 0.0
C444 C 0.40612 0.88765 0.27302 0.0
C445 C 0.41979 0.8776 0.29212 0.0
C446 C 0.42491 0.85377 0.28987 0.0
C447 C 0.41529 0.84018 0.26891 0.0
C448 C 0.40163 0.85017 0.24997 0.0
C449 C 0.38582 0.92008 0.15085 0.0
C450 C 0.41787 0.96066 0.22021 0.0
C451 C 0.35084 1.00368 0.18072 0.0
C452 C 0.34399 1.00416 0.15333 0.0
C453 C 0.34741 0.98372 0.13618 0.0
C454 C 0.33811 0.98225 0.11122 0.0
C455 C 0.32566 1.0014 0.10268 0.0
C456 C 0.32283 0.02216 0.11939 0.0
C457 C 0.33177 0.02348 0.14483 0.0
C458 C 0.34557 0.96135 0.25555 0.0
C459 C 0.31977 0.92882 0.18767 0.0
O460 O 0.36366 0.89562 0.23353 0.0
O461 O 0.4025 0.89246 0.21242 0.0
O462 O 0.39129 0.9044 0.16577 0.0
O463 O 0.37599 0.93772 0.16643 0.0
O464 O 0.41238 0.93953 0.22272 0.0
O465 O 0.40128 0.97392 0.20987 0.0
O466 O 0.3745 0.99543 0.18279 0.0
O467 O 0.33346 0.99483 0.19611 0.0
O468 O 0.33128 0.97006 0.23888 0.0
O469 O 0.36699 0.95312 0.24204 0.0
O470 O 0.33004 0.94654 0.17888 0.0
O471 O 0.33236 0.91756 0.20411 0.0
H472 H 0.40326 0.90606 0.27445 0.0
H473 H 0.4275 0.88844 0.30785 0.0
H474 H 0.41944 0.82187 0.26649 0.0
H475 H 0.39532 0.83931 0.23341 0.0
H476 H 0.35668 0.96861 0.14237 0.0
H477 H 0.34034 0.9661 0.09866 0.0
H478 H 0.31312 0.03706 0.11298 0.0
H479 H 0.32867 0.03929 0.15795 0.0
Nd480 Nd 0.43076 0.27391 0.03774 0.0
Nd481 Nd 0.39929 0.25063 0.06715 0.0
C482 C 0.46065 0.29994 0.01082 0.0
C483 C 0.45471 0.30975 0.9868 0.0
C484 C 0.42853 0.31286 0.98173 0.0
C485 C 0.42204 0.32294 0.95962 0.0
C486 C 0.44171 0.33084 0.94295 0.0
C487 C 0.46806 0.32571 0.94629 0.0
C488 C 0.47458 0.315 0.96829 0.0
C489 C 0.45419 0.23007 0.03257 0.0
C490 C 0.37322 0.26405 0.01445 0.0
C491 C 0.37739 0.21886 0.09174 0.0
C492 C 0.39013 0.2025 0.10612 0.0
C493 C 0.41727 0.2024 0.10552 0.0
C494 C 0.43082 0.18692 0.11852 0.0
C495 C 0.41708 0.17207 0.13314 0.0
C496 C 0.38976 0.17206 0.1339 0.0
C497 C 0.37619 0.18731 0.12015 0.0
C498 C 0.37818 0.29479 0.07218 0.0
C499 C 0.44465 0.27359 0.10014 0.0
O500 O 0.44588 0.30775 0.03238 0.0
O501 O 0.46334 0.27785 1.00762 0.0
O502 O 0.44587 0.24002 0.01307 0.0
O503 O 0.44295 0.24075 0.0539 0.0
O504 O 0.39299 0.27746 0.01414 0.0
O505 O 0.37472 0.24779 0.03021 0.0
O506 O 0.3849 0.21617 0.0662 0.0
O507 O 0.37769 0.23994 0.10266 0.0
O508 O 0.365 0.27694 0.06904 0.0
O509 O 0.40211 0.28909 0.07191 0.0
O510 O 0.42375 0.26157 0.1024 0.0
O511 O 0.45228 0.27994 0.07655 0.0
H512 H 0.41299 0.30893 0.99575 0.0
H513 H 0.40166 0.32713 0.95742 0.0
H514 H 0.48334 0.33205 0.93358 0.0
H515 H 0.49489 0.312 0.97163 0.0
H516 H 0.42781 0.21454 0.09503 0.0
H517 H 0.4518 0.1872 0.1184 0.0
H518 H 0.37909 0.16053 0.14536 0.0
H519 H 0.35512 0.18744 0.12069 0.0
Nd520 Nd 0.91742 0.95067 0.11653 0.0
Nd521 Nd 0.95047 0.98745 0.13788 0.0
C522 C 0.89183 0.91503 0.09977 0.0
C523 C 0.88707 0.89524 0.08112 0.0
C524 C 0.90651 0.87789 0.07298 0.0
C525 C 0.89965 0.85663 0.0619 0.0
C526 C 0.87329 0.8523 0.05915 0.0
C527 C 0.85442 0.87056 0.06443 0.0
C528 C 0.86129 0.89189 0.07535 0.0
C529 C 0.90381 0.99202 0.10025 0.0
C530 C 0.97895 0.95275 0.0921 0.0
C531 C 0.97402 0.02516 0.15353 0.0
C532 C 0.97982 0.0482 0.16614 0.0
C533 C 0.96124 0.06688 0.16963 0.0
C534 C 0.96838 0.08902 0.17839 0.0
C535 C 0.99436 0.09305 0.18342 0.0
C536 C 0.01264 0.07421 0.18061 0.0
C537 C 1.00543 0.05213 0.17225 0.0
C538 C 0.95909 0.94381 0.15522 0.0
C539 C 0.89633 0.98095 0.1722 0.0
O540 O 0.91129 0.91374 0.11461 0.0
O541 O 0.88656 0.93546 0.09344 0.0
O542 O 0.88756 0.97814 0.10908 0.0
O543 O 0.92741 0.98453 0.1008 0.0
O544 O 0.95919 0.9396 0.09603 0.0
O545 O 0.97609 0.97464 0.10008 0.0
O546 O 0.95899 0.02346 0.13399 0.0
O547 O 0.97582 0.00673 0.16561 0.0
O548 O 0.97743 0.9571 0.14896 0.0
O549 O 0.93779 0.95441 0.15302 0.0
O550 O 0.91205 0.99635 0.16447 0.0
O551 O 0.89707 0.96039 0.15884 0.0
H552 H 0.92658 0.88014 0.07701 0.0
H553 H 0.91468 0.84288 0.05787 0.0
H554 H 0.83401 0.86777 0.06277 0.0
H555 H 0.84602 0.90517 0.08151 0.0
H556 H 0.94137 0.06447 0.16496 0.0
H557 H 0.95384 0.10315 0.18036 0.0
H558 H 0.03277 0.0767 0.18424 0.0
H559 H 0.02023 0.03816 0.16957 0.0
Nd560 Nd 0.11623 0.6321 0.5255 0.0
Nd561 Nd 0.14985 0.67043 0.49794 0.0
C562 C 0.07953 0.61067 0.55331 0.0
C563 C 0.06855 0.60583 0.58121 0.0
C564 C 0.04194 0.61142 0.58983 0.0
C565 C 0.03047 0.606 0.61468 0.0
C566 C 0.04489 0.59461 0.6324 0.0
C567 C 0.07172 0.58936 0.62406 0.0
C568 C 0.08324 0.5947 0.59901 0.0
C569 C 0.16961 0.63011 0.53777 0.0
C570 C 0.11791 0.68509 0.55855 0.0
C571 C 0.19017 0.69373 0.48249 0.0
C572 C 0.21757 0.68994 0.47083 0.0
C573 C 0.23064 0.66826 0.46834 0.0
C574 C 0.25735 0.66547 0.4599 0.0
C575 C 0.2714 0.6843 0.45363 0.0
C576 C 0.25794 0.70571 0.45458 0.0
C577 C 0.23124 0.70849 0.46312 0.0
C578 C 0.09692 0.67833 0.49063 0.0
C579 C 0.13919 0.62361 0.4581 0.0
O580 O 0.07613 0.63133 0.54651 0.0
O581 O 0.10173 0.60065 0.5422 0.0
O582 O 0.15186 0.6174 0.54665 0.0
O583 O 0.15801 0.64264 0.5231 0.0
O584 O 0.1084 0.66451 0.55679 0.0
O585 O 0.13466 0.69111 0.53924 0.0
O586 O 0.18514 0.68884 0.50695 0.0
O587 O 0.17213 0.68748 0.46706 0.0
O588 O 0.11606 0.68913 0.48063 0.0
O589 O 0.10702 0.66234 0.50246 0.0
O590 O 0.15483 0.6404 0.46354 0.0
O591 O 0.12174 0.61784 0.47773 0.0
H592 H 0.02969 0.61989 0.57706 0.0
H593 H 0.01004 0.61081 0.62008 0.0
H594 H 0.08385 0.58092 0.63694 0.0
H595 H 0.10371 0.58997 0.59355 0.0
H596 H 0.22039 0.65371 0.47387 0.0
H597 H 0.26739 0.64886 0.45968 0.0
H598 H 0.26841 0.72051 0.45025 0.0
H599 H 0.22149 0.72534 0.46471 0.0
Nd600 Nd 0.97654 0.55326 0.79523 0.0
Nd601 Nd 0.92961 0.57808 0.77241 0.0
C602 C 1.00576 0.51795 0.80941 0.0
C603 C 0.00825 0.4927 0.81342 0.0
C604 C 0.99733 0.48383 0.83645 0.0
C605 C 1.00183 0.46048 0.84032 0.0
C606 C 0.01759 0.44518 0.82143 0.0
C607 C 0.02832 0.45405 0.79849 0.0
C608 C 0.02387 0.47725 0.79464 0.0
C609 C 0.98009 0.59999 0.798 0.0
C610 C 0.91717 0.56587 0.83282 0.0
C611 C 0.89684 0.60508 0.75177 0.0
C612 C 0.9009 0.61874 0.72958 0.0
C613 C 0.91979 0.63507 0.73 0.0
C614 C 0.928 0.64424 0.70686 0.0
C615 C 0.91758 0.63693 0.6831 0.0
C616 C 0.89766 0.62168 0.68281 0.0
C617 C 0.8892 0.61271 0.70606 0.0
C618 C 0.93245 0.53106 0.76565 0.0
C619 C 0.98663 0.57341 0.73484 0.0
O620 O 1.00554 0.52347 0.78514 0.0
O621 O 0.99141 0.53268 0.82652 0.0
O622 O 0.99968 0.58581 0.80104 0.0
O623 O 0.95926 0.58943 0.80024 0.0
O624 O 0.94035 0.55379 0.82895 0.0
O625 O 0.90955 0.5782 0.8144 0.0
O626 O 0.90825 0.61155 0.77323 0.0
O627 O 0.89935 0.58302 0.74495 0.0
O628 O 0.9106 0.54334 0.77055 0.0
O629 O 0.95096 0.54377 0.76345 0.0
O630 O 0.96204 0.58183 0.7386 0.0
O631 O 0.99635 0.5609 0.75288 0.0
H632 H 0.98537 0.49496 0.85159 0.0
H633 H 0.99294 0.45434 0.8581 0.0
H634 H 0.0404 0.44293 0.78343 0.0
H635 H 0.03305 0.4832 0.77687 0.0
H636 H 0.92932 0.63978 0.74774 0.0
H637 H 0.9431 0.65634 0.70723 0.0
H638 H 0.88938 0.61615 0.66442 0.0
H639 H 0.87471 0.60005 0.70532 0.0
Nd640 Nd 0.13685 0.266 0.42374 0.0
Nd641 Nd 0.10596 0.24177 0.45127 0.0
C642 C 0.15768 0.29743 0.39714 0.0
C643 C 0.14472 0.31331 0.38212 0.0
C644 C 0.11773 0.31246 0.38161 0.0
C645 C 0.10442 0.32587 0.3659 0.0
C646 C 0.11823 0.33983 0.35006 0.0
C647 C 0.14526 0.34128 0.35092 0.0
C648 C 0.1586 0.32795 0.36712 0.0
C649 C 0.15673 0.22078 0.41757 0.0
C650 C 0.09454 0.24019 0.38868 0.0
C651 C 0.08077 0.22136 0.48881 0.0
C652 C 0.08832 0.20858 0.51034 0.0
C653 C 0.11461 0.20475 0.51416 0.0
C654 C 0.1219 0.19365 0.53543 0.0
C655 C 0.10304 0.18648 0.55419 0.0
C656 C 0.07645 0.1903 0.54966 0.0
C657 C 0.06926 0.20143 0.52821 0.0
C658 C 0.07466 0.27913 0.44211 0.0
C659 C 0.16616 0.25278 0.47317 0.0
O660 O 0.15085 0.30065 0.42273 0.0
O661 O 0.15713 0.27617 0.38717 0.0
O662 O 0.17099 0.23809 0.42031 0.0
O663 O 0.13338 0.2273 0.41726 0.0
O664 O 0.11007 0.25729 0.38988 0.0
O665 O 0.09139 0.2286 0.4098 0.0
O666 O 0.08637 0.2116 0.46447 0.0
O667 O 0.08636 0.2427 0.49163 0.0
O668 O 0.06964 0.25807 0.43782 0.0
O669 O 0.09807 0.28042 0.44987 0.0
O670 O 0.14556 0.24001 0.4741 0.0
O671 O 0.16547 0.2683 0.45663 0.0
H672 H 0.1072 0.30068 0.39267 0.0
H673 H 0.08373 0.32429 0.36462 0.0
H674 H 0.15601 0.35196 0.33835 0.0
H675 H 0.17957 0.32847 0.36726 0.0
H676 H 0.12969 0.21014 0.50062 0.0
H677 H 0.14256 0.19012 0.53603 0.0
H678 H 0.06073 0.18419 0.56177 0.0
H679 H 0.04877 0.20428 0.52547 0.0
Nd680 Nd 0.53002 0.28576 0.25082 0.0
Nd681 Nd 0.55469 0.32145 0.21757 0.0
C682 C 0.51667 0.24783 0.27182 0.0
C683 C 0.50911 0.22638 0.28364 0.0
C684 C 0.50052 0.20767 0.26765 0.0
C685 C 0.49851 0.18599 0.27707 0.0
C686 C 0.50543 0.18217 0.30269 0.0
C687 C 0.51308 0.20112 0.31896 0.0
C688 C 0.51492 0.22279 0.30962 0.0
C689 C 0.5238 0.33217 0.27349 0.0
C690 C 0.50316 0.29603 0.19514 0.0
C691 C 0.57061 0.35823 0.19659 0.0
C692 C 0.59515 0.36977 0.19107 0.0
C693 C 0.61066 0.3773 0.21147 0.0
C694 C 0.63156 0.39102 0.20628 0.0
C695 C 0.63755 0.39714 0.18052 0.0
C696 C 0.62331 0.38815 0.1598 0.0
C697 C 0.60226 0.37474 0.16505 0.0
C698 C 0.57603 0.27777 0.20252 0.0
C699 C 0.58657 0.30232 0.2644 0.0
O700 O 0.5399 0.25014 0.2603 0.0
O701 O 0.50033 0.26577 0.272 0.0
O702 O 0.52763 0.31492 0.28694 0.0
O703 O 0.52205 0.32432 0.24965 0.0
O704 O 0.50212 0.28472 0.21657 0.0
O705 O 0.52022 0.31198 0.19231 0.0
O706 O 0.56117 0.35849 0.22143 0.0
O707 O 0.56798 0.33888 0.18238 0.0
O708 O 0.58934 0.29583 0.20521 0.0
O709 O 0.55215 0.28327 0.20952 0.0
O710 O 0.58172 0.31999 0.25126 0.0
O711 O 0.57207 0.28464 0.26281 0.0
H712 H 0.49638 0.20956 0.24738 0.0
H713 H 0.4926 0.17192 0.26387 0.0
H714 H 0.51858 0.19895 0.33873 0.0
H715 H 0.52203 0.23656 0.32239 0.0
H716 H 0.60599 0.37341 0.23164 0.0
H717 H 0.64215 0.39785 0.2226 0.0
H718 H 0.62737 0.39285 0.13986 0.0
H719 H 0.59076 0.36909 0.14892 0.0
Nd720 Nd 0.39371 0.84687 0.98579 0.0
Nd721 Nd 0.42529 0.88825 0.96106 0.0
C722 C 0.35224 0.82422 0.99893 0.0
C723 C 0.32434 0.82842 1.0091 0.0
C724 C 0.3093 0.84763 1.00351 0.0
C725 C 0.28234 0.84998 0.01109 0.0
C726 C 0.26998 0.83318 0.02437 0.0
C727 C 0.28522 0.81454 0.03094 0.0
C728 C 0.31213 0.81221 0.0234 0.0
C729 C 0.44701 0.84057 0.99125 0.0
C730 C 0.40231 0.89354 0.02875 0.0
C731 C 0.46176 0.91002 0.93331 0.0
C732 C 0.47345 0.91379 0.90525 0.0
C733 C 0.5007 0.91068 0.8985 0.0
C734 C 0.51253 0.91537 0.87345 0.0
C735 C 0.49779 0.92329 0.8536 0.0
C736 C 0.47042 0.92617 0.86017 0.0
C737 C 0.45854 0.92167 0.88543 0.0
C738 C 0.3725 0.88849 0.94824 0.0
C739 C 0.4262 0.83484 0.92654 0.0
O740 O 0.35879 0.829 0.97468 0.0
O741 O 0.36971 0.82969 0.01545 0.0
O742 O 0.42936 0.82692 0.99888 0.0
O743 O 0.43535 0.85705 0.98163 0.0
O744 O 0.39096 0.87409 0.02291 0.0
O745 O 0.41731 0.90213 1.00899 0.0
O746 O 0.46612 0.8902 0.94204 0.0
O747 O 0.43863 0.91923 0.9426 0.0
O748 O 0.38898 0.90307 0.94128 0.0
O749 O 0.38475 0.87543 0.96184 0.0
O750 O 0.433 0.85644 0.92844 0.0
O751 O 0.41048 0.82714 0.94534 0.0
H752 H 0.31825 0.86045 0.99262 0.0
H753 H 0.27097 0.86446 1.00572 0.0
H754 H 0.27611 0.80135 0.04107 0.0
H755 H 0.32329 0.79731 0.02802 0.0
H756 H 0.51313 0.90481 0.91289 0.0
H757 H 0.53348 0.91272 0.86953 0.0
H758 H 0.4581 0.93206 0.8457 0.0
H759 H 0.43759 0.92447 0.88943 0.0
Nd760 Nd 0.03609 0.29848 0.82357 0.0
Nd761 Nd 0.00984 0.32244 0.87003 0.0
C762 C 0.05942 0.25939 0.79842 0.0
C763 C 0.0574 0.23377 0.79564 0.0
C764 C 0.06034 0.22113 0.81753 0.0
C765 C 0.06053 0.19711 0.81465 0.0
C766 C 0.05808 0.1848 0.78977 0.0
C767 C 0.05503 0.19726 0.76789 0.0
C768 C 0.05474 0.22137 0.77077 0.0
C769 C 0.04141 0.34496 0.82262 0.0
C770 C 0.07116 0.30856 0.87745 0.0
C771 C 0.98105 0.35133 0.90485 0.0
C772 C 0.95367 0.36009 0.90886 0.0
C773 C 0.94745 0.3824 0.90339 0.0
C774 C 0.92428 0.39374 0.91473 0.0
C775 C 0.90746 0.38288 0.93179 0.0
C776 C 0.911 0.35934 0.93281 0.0
C777 C 0.93446 0.34797 0.92172 0.0
C778 C 0.99472 0.27731 0.86342 0.0
C779 C 0.98175 0.32612 0.81312 0.0
O780 O 0.06424 0.2688 0.82177 0.0
O781 O 0.04374 0.27268 0.78688 0.0
O782 O 0.04388 0.33008 0.80137 0.0
O783 O 0.04209 0.33414 0.84312 0.0
O784 O 0.07066 0.30001 0.85211 0.0
O785 O 0.04922 0.31856 0.88978 0.0
O786 O 0.99497 0.35763 0.88454 0.0
O787 O 0.98629 0.33017 0.90878 0.0
O788 O 1.00188 0.28752 0.88532 0.0
O789 O 0.99774 0.29059 0.84554 0.0
O790 O 0.98319 0.33438 0.83825 0.0
O791 O 0.99987 0.31017 0.80224 0.0
H792 H 0.06264 0.22978 0.83704 0.0
H793 H 0.06276 0.18809 0.83191 0.0
H794 H 0.053 0.18829 0.74848 0.0
H795 H 0.0528 0.23031 0.75341 0.0
H796 H 0.9616 0.3919 0.89282 0.0
H797 H 0.92133 0.41186 0.91324 0.0
H798 H 0.89784 0.35074 0.94563 0.0
H799 H 0.93853 0.33057 0.92571 0.0
Nd800 Nd 0.32954 0.23053 0.51 0.0
Nd801 Nd 0.31022 0.2235 0.55534 0.0
C802 C 0.3575 0.24708 0.47143 0.0
C803 C 0.38177 0.25856 0.47446 0.0
C804 C 0.39582 0.25484 0.49634 0.0
C805 C 0.41798 0.26657 0.50091 0.0
C806 C 0.42657 0.28207 0.48355 0.0
C807 C 0.41244 0.28614 0.46185 0.0
C808 C 0.38995 0.27448 0.4574 0.0
C809 C 0.27418 0.23526 0.50915 0.0
C810 C 0.33004 0.27275 0.55588 0.0
C811 C 0.28008 0.21272 0.59655 0.0
C812 C 0.27087 0.19163 0.60593 0.0
C813 C 0.24482 0.18639 0.60362 0.0
C814 C 0.23668 0.1651 0.60897 0.0
C815 C 0.25451 0.14901 0.61685 0.0
C816 C 0.28004 0.15465 0.62078 0.0
C817 C 0.28821 0.17588 0.61539 0.0
C818 C 0.36466 0.22172 0.56011 0.0
C819 C 0.31717 0.17858 0.50809 0.0
O820 O 0.3587 0.22546 0.47482 0.0
O821 O 0.33692 0.25809 0.48432 0.0
O822 O 0.29039 0.22336 0.49153 0.0
O823 O 0.2874 0.24374 0.52766 0.0
O824 O 0.34387 0.26162 0.53529 0.0
O825 O 0.31008 0.26265 0.56595 0.0
O826 O 0.2712 0.21817 0.57463 0.0
O827 O 0.30481 0.21598 0.59723 0.0
O828 O 0.34675 0.23219 0.57706 0.0
O829 O 0.35362 0.21258 0.5399 0.0
O830 O 0.30649 0.18671 0.53219 0.0
O831 O 0.33043 0.19243 0.49444 0.0
H832 H 0.38963 0.24283 0.50996 0.0
H833 H 0.42878 0.2632 0.51765 0.0
H834 H 0.41904 0.29802 0.44824 0.0
H835 H 0.37903 0.27784 0.44075 0.0
H836 H 0.23108 0.19837 0.59658 0.0
H837 H 0.21691 0.16079 0.60583 0.0
H838 H 0.29391 0.14223 0.62685 0.0
H839 H 0.30835 0.17952 0.6176 0.0
Nd840 Nd 0.58797 0.53194 0.34169 0.0
Nd841 Nd 0.62173 0.55771 0.37205 0.0
C842 C 0.55428 0.50119 0.32566 0.0
C843 C 0.54981 0.47672 0.31668 0.0
C844 C 0.55878 0.4588 0.33042 0.0
C845 C 0.55242 0.43619 0.32324 0.0
C846 C 0.53721 0.4306 0.30184 0.0
C847 C 0.52823 0.44855 0.28807 0.0
C848 C 0.53428 0.47128 0.29554 0.0
C849 C 0.58871 0.57742 0.32839 0.0
C850 C 0.6425 0.53665 0.31135 0.0
C851 C 0.6583 0.58065 0.39457 0.0
C852 C 0.67137 0.60192 0.39698 0.0
C853 C 0.65794 0.62316 0.40499 0.0
C854 C 0.67149 0.64302 0.4051 0.0
C855 C 0.69832 0.64152 0.3971 0.0
C856 C 0.71169 0.62034 0.38979 0.0
C857 C 0.6983 0.60063 0.38987 0.0
C858 C 0.62438 0.51393 0.38563 0.0
C859 C 0.56179 0.56428 0.39377 0.0
O860 O 0.55923 0.50638 0.35036 0.0
O861 O 0.56695 0.51345 0.30947 0.0
O862 O 0.58572 0.55969 0.31166 0.0
O863 O 0.58873 0.57108 0.35118 0.0
O864 O 0.6253 0.52132 0.31476 0.0
O865 O 0.64274 0.55453 0.32927 0.0
O866 O 0.63479 0.57993 0.40609 0.0
O867 O 0.66169 0.56908 0.37111 0.0
O868 O 0.61717 0.53176 0.40203 0.0
O869 O 0.62356 0.51906 0.36197 0.0
O870 O 0.5828 0.57582 0.39056 0.0
O871 O 0.562 0.54355 0.38119 0.0
H872 H 0.57054 0.46224 0.34694 0.0
H873 H 0.55974 0.42289 0.3343 0.0
H874 H 0.51657 0.44498 0.2715 0.0
H875 H 0.5266 0.48471 0.28487 0.0
H876 H 0.63712 0.62441 0.41058 0.0
H877 H 0.66115 0.65947 0.41101 0.0
H878 H 0.73245 0.61912 0.38384 0.0
H879 H 0.70892 0.58431 0.38383 0.0
Nd880 Nd 0.10606 0.85999 0.03148 0.0
Nd881 Nd 0.12204 0.87454 0.08294 0.0
C882 C 0.07901 0.84658 0.99142 0.0
C883 C 0.05088 0.84394 0.99071 0.0
C884 C 0.03653 0.83522 0.01179 0.0
C885 C 0.00942 0.83569 0.01295 0.0
C886 C 0.99629 0.84432 0.99272 0.0
C887 C 0.01051 0.85259 0.97136 0.0
C888 C 0.03768 0.85263 0.97053 0.0
C889 C 0.15722 0.84438 0.03534 0.0
C890 C 0.08611 0.83194 0.07971 0.0
C891 C 0.14413 0.89101 0.12604 0.0
C892 C 0.16974 0.89659 0.13489 0.0
C893 C 0.19141 0.89757 0.11664 0.0
C894 C 0.21514 0.90433 0.12542 0.0
C895 C 0.21752 0.91196 0.15258 0.0
C896 C 0.1962 0.90813 0.17081 0.0
C897 C 0.17252 0.90123 0.16205 0.0
C898 C 0.07247 0.89281 0.07608 0.0
C899 C 0.14353 0.89946 0.03064 0.0
O900 O 0.08541 0.86759 0.99657 0.0
O901 O 0.09175 0.83232 1.00443 0.0
O902 O 0.14823 0.85089 0.01411 0.0
O903 O 0.13884 0.84472 0.05368 0.0
O904 O 0.07883 0.84173 0.0593 0.0
O905 O 0.10612 0.83963 0.09187 0.0
O906 O 0.1399 0.8695 0.12065 0.0
O907 O 0.13493 0.90358 0.10894 0.0
O908 O 0.07861 0.88396 0.09716 0.0
O909 O 0.09212 0.89139 0.05936 0.0
O910 O 0.14995 0.89178 0.05302 0.0
O911 O 0.12212 0.89296 0.02069 0.0
H912 H 0.04612 0.82839 0.02762 0.0
H913 H 0.99869 0.82882 0.02928 0.0
H914 H 1.00059 0.85884 0.95533 0.0
H915 H 0.04839 0.8596 0.95427 0.0
H916 H 0.19003 0.89302 0.09556 0.0
H917 H 0.23149 0.9031 0.11051 0.0
H918 H 0.1974 0.90991 0.19203 0.0
H919 H 0.15631 0.89952 0.17661 0.0
Nd920 Nd 0.7573 0.94748 0.5267 0.0
Nd921 Nd 0.71386 0.95702 0.50365 0.0
C922 C 0.80048 0.92619 0.54103 0.0
C923 C 0.81927 0.90557 0.53367 0.0
C924 C 0.83835 0.90362 0.51176 0.0
C925 C 0.85517 0.8837 0.50547 0.0
C926 C 0.8535 0.8653 0.52104 0.0
C927 C 0.83458 0.86737 0.54293 0.0
C928 C 0.81791 0.88716 0.54922 0.0
C929 C 0.71211 0.94485 0.56249 0.0
C930 C 0.73945 0.90986 0.4843 0.0
C931 C 0.66749 0.97195 0.49328 0.0
C932 C 0.6587 0.99605 0.4972 0.0
C933 C 0.6404 1.00349 0.51885 0.0
C934 C 0.63864 0.02618 0.52962 0.0
C935 C 0.65463 0.04171 0.51839 0.0
C936 C 0.67159 0.03483 0.49567 0.0
C937 C 0.67372 0.01204 0.48513 0.0
C938 C 0.75455 0.96454 0.46677 0.0
C939 C 0.73382 0.99688 0.54658 0.0
O940 O 0.80106 0.94354 0.52696 0.0
O941 O 0.77667 0.92219 0.54914 0.0
O942 O 0.73255 0.95587 0.5673 0.0
O943 O 0.71557 0.93589 0.53823 0.0
O944 O 0.75916 0.92206 0.48923 0.0
O945 O 0.71612 0.91855 0.4929 0.0
O946 O 0.67186 0.96378 0.51542 0.0
O947 O 0.68614 0.96584 0.47447 0.0
O948 O 0.73404 0.95354 0.4622 0.0
O949 O 0.75457 0.97051 0.49204 0.0
O950 O 0.71645 0.99101 0.53001 0.0
O951 O 0.75532 0.98388 0.54673 0.0
H952 H 0.84015 0.91736 0.49933 0.0
H953 H 0.86943 0.8826 0.48836 0.0
H954 H 0.83263 0.85354 0.55523 0.0
H955 H 0.80364 0.88795 0.56629 0.0
H956 H 0.62899 0.99141 0.52872 0.0
H957 H 0.62499 0.03163 0.54685 0.0
H958 H 0.68343 0.047 0.48651 0.0
H959 H 0.68826 0.00678 0.46863 0.0
Nd960 Nd 0.79514 1.00629 0.31115 0.0
Nd961 Nd 0.84424 0.99529 0.33645 0.0
C962 C 0.76221 0.02237 0.27853 0.0
C963 C 0.76346 0.03042 0.25139 0.0
C964 C 0.78554 0.04054 0.24056 0.0
C965 C 0.78671 0.04689 0.21445 0.0
C966 C 0.76561 0.04379 0.19875 0.0
C967 C 0.74325 0.03439 0.20993 0.0
C968 C 0.74226 0.02769 0.23581 0.0
C969 C 0.78521 1.00246 0.36571 0.0
C970 C 0.83933 0.04482 0.31942 0.0
C971 C 0.87942 0.98009 0.36612 0.0
C972 C 0.88951 0.95692 0.36963 0.0
C973 C 0.87298 0.9413 0.38018 0.0
C974 C 0.88218 0.91894 0.38175 0.0
C975 C 0.90832 0.9121 0.37366 0.0
C976 C 0.92494 0.92758 0.36309 0.0
C977 C 0.91555 0.94985 0.36096 0.0
C978 C 0.8523 0.99382 0.28192 0.0
C979 C 0.80857 0.9526 0.31837 0.0
O980 O 0.7672 1.00059 0.27986 0.0
O981 O 0.77214 0.03506 0.29744 0.0
O982 O 0.76799 1.00101 0.34847 0.0
O983 O 0.80516 0.01089 0.35471 0.0
O984 O 0.82189 0.03613 0.30424 0.0
O985 O 0.84749 0.0338 0.33865 0.0
O986 O 0.85521 0.98591 0.3753 0.0
O987 O 0.88543 0.98672 0.34275 0.0
O988 O 0.86801 1.00228 0.29858 0.0
O989 O 0.83274 0.98626 0.29423 0.0
O990 O 0.82951 0.95952 0.32924 0.0
O991 O 0.79265 0.96695 0.30794 0.0
H992 H 0.80218 0.043 0.25201 0.0
H993 H 0.80422 0.05402 0.20639 0.0
H994 H 0.72671 0.03178 0.19836 0.0
H995 H 0.72493 0.02014 0.24361 0.0
H996 H 0.85302 0.9464 0.38748 0.0
H997 H 0.86922 0.90721 0.3902 0.0
H998 H 0.94524 0.92252 0.35694 0.0
H999 H 0.92863 0.96156 0.35265 0.0
Nd1000 Nd 0.77957 0.07288 0.03331 0.0
Nd1001 Nd 0.80482 0.10818 0.07802 0.0
C1002 C 0.75505 0.05753 0.99022 0.0
C1003 C 0.74129 0.06384 0.96603 0.0
C1004 C 0.74827 0.08191 0.95118 0.0
C1005 C 0.73558 0.08648 0.92819 0.0
C1006 C 0.71534 0.0732 0.91896 0.0
C1007 C 0.7082 0.05534 0.93404 0.0
C1008 C 0.72077 0.05087 0.95703 0.0
C1009 C 0.77079 0.06419 0.08652 0.0
C1010 C 0.74802 0.12103 0.05961 0.0
C1011 C 0.82032 0.13094 0.12112 0.0
C1012 C 0.84312 0.14308 0.13046 0.0
C1013 C 0.86495 0.13119 0.13861 0.0
C1014 C 0.88496 0.1431 0.14989 0.0
C1015 C 0.8835 0.16708 0.15333 0.0
C1016 C 0.86223 0.17895 0.14445 0.0
C1017 C 0.84226 0.1671 0.13318 0.0
C1018 C 0.82413 0.11518 0.02675 0.0
C1019 C 0.8341 0.05689 0.05978 0.0
O1020 O 0.7805 0.05806 0.99028 0.0
O1021 O 0.74334 0.06315 0.01414 0.0
O1022 O 0.76909 0.04908 0.06605 0.0
O1023 O 0.77309 0.08342 0.07787 0.0
O1024 O 0.75336 0.1062 0.0382 0.0
O1025 O 0.76322 0.12318 0.07921 0.0
O1026 O 0.82245 0.10854 0.11658 0.0
O1027 O 0.80684 0.14052 0.10399 0.0
O1028 O 0.83023 0.12606 0.04866 0.0
O1029 O 0.80775 0.10096 0.03301 0.0
O1030 O 0.83258 0.07685 0.07441 0.0
O1031 O 0.81789 0.05161 0.04084 0.0
H1032 H 0.76367 0.09255 0.95718 0.0
H1033 H 0.74191 0.1003 0.91729 0.0
H1034 H 0.69294 0.04457 0.92783 0.0
H1035 H 0.71459 0.03684 0.96768 0.0
H1036 H 0.86624 0.11273 0.137 0.0
H1037 H 0.90108 0.13362 0.15688 0.0
H1038 H 0.8606 0.19743 0.14717 0.0
H1039 H 0.8257 0.17681 0.12736 0.0
Nd1040 Nd 0.66468 0.10461 0.76464 0.0
Nd1041 Nd 0.62531 0.12131 0.79308 0.0
C1042 C 0.70032 0.08327 0.72825 0.0
C1043 C 0.70418 0.07303 0.70038 0.0
C1044 C 0.69092 0.08199 0.68035 0.0
C1045 C 0.69548 0.07204 0.65393 0.0
C1046 C 0.71326 0.05304 0.64734 0.0
C1047 C 0.72631 0.04403 0.6674 0.0
C1048 C 0.7218 0.05397 0.69375 0.0
C1049 C 0.67337 0.09481 0.81717 0.0
C1050 C 0.61544 0.07463 0.76288 0.0
C1051 C 0.59095 0.14487 0.82809 0.0
C1052 C 0.59169 0.15253 0.85632 0.0
C1053 C 0.60879 0.16906 0.86503 0.0
C1054 C 0.61297 0.17273 0.89189 0.0
C1055 C 0.60054 0.15951 0.90984 0.0
C1056 C 0.58247 0.14402 0.90135 0.0
C1057 C 0.57777 0.14079 0.87483 0.0
C1058 C 0.61425 0.13039 0.74187 0.0
C1059 C 0.67841 0.14725 0.79847 0.0
O1060 O 0.69657 0.10542 0.73266 0.0
O1061 O 0.68562 0.07274 0.74455 0.0
O1062 O 0.6903 0.10136 0.79982 0.0
O1063 O 0.65163 0.09325 0.80683 0.0
O1064 O 0.63413 0.08209 0.74772 0.0
O1065 O 0.61033 0.08541 0.78681 0.0
O1066 O 0.59089 0.1228 0.82225 0.0
O1067 O 0.60667 0.15435 0.81164 0.0
O1068 O 0.59962 0.12106 0.75888 0.0
O1069 O 0.6365 0.13279 0.75135 0.0
O1070 O 0.65825 0.14042 0.81221 0.0
O1071 O 0.68191 0.13881 0.77351 0.0
H1072 H 0.67703 0.09656 0.68514 0.0
H1073 H 0.6849 0.0789 0.6387 0.0
H1074 H 0.73971 0.02911 0.66269 0.0
H1075 H 0.73205 0.04675 0.70899 0.0
H1076 H 0.61967 0.17846 0.85109 0.0
H1077 H 0.62646 0.18516 0.89849 0.0
H1078 H 0.57234 0.13407 0.91528 0.0
H1079 H 0.56434 0.12818 0.86859 0.0
Nd1080 Nd 0.61154 0.78968 0.98146 0.0
Nd1081 Nd 0.58045 0.76553 0.01242 0.0
C1082 C 0.62887 0.82737 0.96561 0.0
C1083 C 0.61893 0.84255 0.94757 0.0
C1084 C 0.59331 0.8409 0.94027 0.0
C1085 C 0.58605 0.85036 0.91777 0.0
C1086 C 0.60461 0.86106 0.90247 0.0
C1087 C 0.62909 0.86499 0.9116 0.0
C1088 C 0.63628 0.85568 0.93414 0.0
C1089 C 0.6333 0.74582 0.97574 0.0
C1090 C 0.57432 0.75834 0.94813 0.0
C1091 C 0.55566 0.73804 0.04155 0.0
C1092 C 0.56796 0.72291 0.0584 0.0
C1093 C 0.59491 0.71749 0.05366 0.0
C1094 C 0.60721 0.70283 0.06898 0.0
C1095 C 0.59266 0.6934 0.08914 0.0
C1096 C 0.56606 0.69996 0.09516 0.0
C1097 C 0.5537 0.7148 0.07979 0.0
C1098 C 0.55424 0.80742 1.0063 0.0
C1099 C 0.63305 0.78296 0.03893 0.0
O1100 O 0.61427 0.82697 0.98796 0.0
O1101 O 0.63734 0.80706 0.95421 0.0
O1102 O 0.63464 0.7593 0.95703 0.0
O1103 O 0.62289 0.75628 0.99762 0.0
O1104 O 0.58891 0.77597 0.94713 0.0
O1105 O 0.56921 0.74995 0.97107 0.0
O1106 O 0.56178 0.73294 0.01592 0.0
O1107 O 0.55716 0.75967 0.04944 0.0
O1108 O 0.55805 0.80021 0.02901 0.0
O1109 O 0.56738 0.79385 0.98868 0.0
O1110 O 0.61518 0.76782 0.03923 0.0
O1111 O 0.63342 0.79587 0.01942 0.0
H1112 H 0.57974 0.8307 0.95057 0.0
H1113 H 0.56715 0.84718 0.91074 0.0
H1114 H 0.6435 0.87332 0.89985 0.0
H1115 H 0.65604 0.85706 0.93967 0.0
H1116 H 0.60632 0.72396 0.03749 0.0
H1117 H 0.62769 0.69769 0.06401 0.0
H1118 H 0.55465 0.69247 0.11053 0.0
H1119 H 0.53303 0.71933 0.08401 0.0
Nd1120 Nd 0.06553 0.03863 0.79734 0.0
Nd1121 Nd 0.10418 0.07076 0.82409 0.0
C1122 C 0.04222 1.00082 0.77861 0.0
C1123 C 0.04164 0.97569 0.76779 0.0
C1124 C 0.06399 0.96196 0.75668 0.0
C1125 C 0.06223 0.9387 0.74643 0.0
C1126 C 0.03803 0.92831 0.74654 0.0
C1127 C 0.01576 0.94217 0.75741 0.0
C1128 C 0.01755 0.96527 0.76781 0.0
C1129 C 0.06136 0.08383 0.78479 0.0
C1130 C 0.12417 0.04288 0.76495 0.0
C1131 C 0.13245 0.10298 0.84627 0.0
C1132 C 0.14231 0.1243 0.85958 0.0
C1133 C 0.12612 0.14413 0.86814 0.0
C1134 C 0.13667 0.16414 0.87965 0.0
C1135 C 0.16363 0.16475 0.88264 0.0
C1136 C 0.17956 0.14479 0.8744 0.0
C1137 C 0.16905 0.1249 0.86308 0.0
C1138 C 0.11294 0.02504 0.8324 0.0
C1139 C 0.03887 0.07987 0.84251 0.0
O1140 O 0.0525 0.01536 0.76361 0.0
O1141 O 0.04444 0.00684 0.80395 0.0
O1142 O 0.04258 0.06983 0.78376 0.0
O1143 O 0.08185 0.07231 0.78865 0.0
O1144 O 0.1022 0.03223 0.76723 0.0
O1145 O 0.12893 0.05926 0.78371 0.0
O1146 O 0.12782 0.10125 0.82116 0.0
O1147 O 0.12072 0.08821 0.85989 0.0
O1148 O 0.13064 0.03944 0.8289 0.0
O1149 O 0.09038 0.03542 0.83295 0.0
O1150 O 0.06331 0.08549 0.84517 0.0
O1151 O 0.03447 0.06091 0.82706 0.0
H1152 H 0.0829 0.96916 0.756 0.0
H1153 H 0.07991 0.92872 0.73849 0.0
H1154 H 0.99683 0.93499 0.75822 0.0
H1155 H 0.99983 0.97512 0.77595 0.0
H1156 H 0.10543 0.14422 0.86571 0.0
H1157 H 0.12388 0.17924 0.88585 0.0
H1158 H 0.20032 0.14468 0.87644 0.0
H1159 H 0.18201 0.10993 0.85669 0.0
Nd1160 Nd 0.91022 0.31447 0.43422 0.0
Nd1161 Nd 0.94768 0.35052 0.40442 0.0
C1162 C 0.86431 0.30059 0.45518 0.0
C1163 C 0.83874 0.30525 0.47321 0.0
C1164 C 0.81786 0.31955 0.4667 0.0
C1165 C 0.79312 0.32163 0.48173 0.0
C1166 C 0.78793 0.30935 0.50386 0.0
C1167 C 0.8088 0.29516 0.5105 0.0
C1168 C 0.83359 0.29315 0.49552 0.0
C1169 C 0.96503 0.30534 0.43855 0.0
C1170 C 0.93563 0.35517 0.46718 0.0
C1171 C 0.98197 0.37195 0.37558 0.0
C1172 C 0.98419 0.38414 0.3513 0.0
C1173 C 1.0031 0.37625 0.33021 0.0
C1174 C 0.00683 0.38828 0.30792 0.0
C1175 C 0.99177 0.40851 0.30629 0.0
C1176 C 0.97249 0.4162 0.327 0.0
C1177 C 0.96869 0.40414 0.34928 0.0
C1178 C 0.89487 0.36061 0.41076 0.0
C1179 C 0.93194 0.30166 0.37171 0.0
O1180 O 0.86735 0.31033 0.4332 0.0
O1181 O 0.88663 0.29692 0.46509 0.0
O1182 O 0.94653 0.29252 0.44671 0.0
O1183 O 0.95331 0.32076 0.42763 0.0
O1184 O 0.91284 0.34752 0.46178 0.0
O1185 O 0.95492 0.35558 0.44832 0.0
O1186 O 0.97975 0.34987 0.37204 0.0
O1187 O 0.96771 0.38187 0.39672 0.0
O1188 O 0.91159 0.37624 0.40971 0.0
O1189 O 0.9063 0.34113 0.40601 0.0
O1190 O 0.94402 0.32096 0.37183 0.0
O1191 O 0.91762 0.29531 0.39239 0.0
H1192 H 0.82039 0.32878 0.44944 0.0
H1193 H 0.77778 0.33263 0.47569 0.0
H1194 H 0.80578 0.2852 0.5271 0.0
H1195 H 0.84863 0.28154 0.50106 0.0
H1196 H 0.01541 0.36099 0.33123 0.0
H1197 H 0.0219 0.3821 0.29224 0.0
H1198 H 0.96075 0.43182 0.32616 0.0
H1199 H 0.95393 0.41071 0.36509 0.0
Nd1200 Nd 0.61259 0.93514 0.71252 0.0
Nd1201 Nd 0.56718 0.9632 0.68855 0.0
C1202 C 0.64702 0.90473 0.72439 0.0
C1203 C 0.64413 0.89186 0.74759 0.0
C1204 C 0.62508 0.87566 0.74872 0.0
C1205 C 0.61593 0.8688 0.77294 0.0
C1206 C 0.62616 0.87764 0.79625 0.0
C1207 C 0.64666 0.89228 0.79511 0.0
C1208 C 0.65571 0.89933 0.77083 0.0
C1209 C 0.60702 0.98121 0.72785 0.0
C1210 C 0.55683 0.94174 0.74979 0.0
C1211 C 0.53807 1.00011 0.67936 0.0
C1212 C 0.53394 0.02429 0.67213 0.0
C1213 C 0.55071 0.04165 0.67921 0.0
C1214 C 0.54447 0.06479 0.67572 0.0
C1215 C 0.52106 0.07144 0.6652 0.0
C1216 C 0.5046 0.05399 0.65759 0.0
C1217 C 0.51092 0.0309 0.66097 0.0
C1218 C 0.55932 0.91693 0.68883 0.0
C1219 C 0.62577 0.94989 0.65136 0.0
O1220 O 0.6307 0.90013 0.70637 0.0
O1221 O 0.64942 0.92669 0.7299 0.0
O1222 O 0.61486 0.96663 0.7434 0.0
O1223 O 0.60441 0.97123 0.70516 0.0
O1224 O 0.58022 0.93103 0.74535 0.0
O1225 O 0.5491 0.95614 0.73249 0.0
O1226 O 0.54748 0.99728 0.70214 0.0
O1227 O 0.54418 0.98258 0.66112 0.0
O1228 O 0.54104 0.93208 0.68502 0.0
O1229 O 0.58082 0.92633 0.68655 0.0
O1230 O 0.60134 0.95962 0.65258 0.0
O1231 O 0.63395 0.94019 0.67182 0.0
H1232 H 0.61581 0.86953 0.73124 0.0
H1233 H 0.60028 0.85725 0.77366 0.0
H1234 H 0.65489 0.89893 0.81313 0.0
H1235 H 0.67039 0.9118 0.77053 0.0
H1236 H 0.56838 0.03737 0.68808 0.0
H1237 H 0.55768 0.07762 0.68185 0.0
H1238 H 0.48641 0.05832 0.64952 0.0
H1239 H 0.49725 0.01823 0.65563 0.0
Nd1240 Nd 0.99034 0.19268 0.26817 0.0
Nd1241 Nd 0.01184 0.23231 0.23632 0.0
C1242 C 0.97711 0.15567 0.29017 0.0
C1243 C 0.95347 0.1428 0.29424 0.0
C1244 C 0.93648 0.13898 0.27411 0.0
C1245 C 0.91521 0.12542 0.27777 0.0
C1246 C 0.91062 0.11541 0.30155 0.0
C1247 C 0.92698 0.12001 0.32201 0.0
C1248 C 0.9482 0.1336 0.31838 0.0
C1249 C 0.96505 0.23524 0.28207 0.0
C1250 C 0.96056 0.20612 0.21777 0.0
C1251 C 0.02285 0.2716 0.21722 0.0
C1252 C 0.02847 0.29436 0.20727 0.0
C1253 C 0.01752 0.31508 0.22125 0.0
C1254 C 0.02053 0.33619 0.21084 0.0
C1255 C 0.03404 0.33741 0.18567 0.0
C1256 C 0.04534 0.3167 0.17185 0.0
C1257 C 0.04287 0.29563 0.18259 0.0
C1258 C 0.02338 0.18699 0.21267 0.0
C1259 C 0.03925 0.21991 0.29169 0.0
O1260 O 0.98747 0.15533 0.26568 0.0
O1261 O 0.97715 0.17572 0.30379 0.0
O1262 O 0.95359 0.21617 0.28035 0.0
O1263 O 0.98914 0.23113 0.27601 0.0
O1264 O 0.96751 0.18936 0.23141 0.0
O1265 O 0.97136 0.22612 0.2203 0.0
O1266 O 1.00046 0.26825 0.23009 0.0
O1267 O 0.03993 0.25397 0.21506 0.0
O1268 O 0.01944 0.20452 0.19975 0.0
O1269 O 0.02305 0.19456 0.23694 0.0
O1270 O 0.03767 0.2339 0.27268 0.0
O1271 O 0.02521 0.20173 0.29226 0.0
H1272 H 0.93994 0.14606 0.25537 0.0
H1273 H 0.90283 0.1221 0.26172 0.0
H1274 H 0.92378 0.11251 0.3405 0.0
H1275 H 0.96089 0.13648 0.33423 0.0
H1276 H 0.00625 0.31495 0.24024 0.0
H1277 H 0.01155 0.35162 0.22216 0.0
H1278 H 0.05575 0.31675 0.1524 0.0
H1279 H 0.05142 0.28015 0.17104 0.0
Nd1280 Nd 0.5277 0.19827 0.61904 0.0
Nd1281 Nd 0.50076 0.21789 0.66441 0.0
C1282 C 0.56369 0.18009 0.58192 0.0
C1283 C 0.58588 0.16384 0.58156 0.0
C1284 C 0.58365 0.14413 0.5945 0.0
C1285 C 0.60333 0.12685 0.58963 0.0
C1286 C 0.62505 0.12943 0.57191 0.0
C1287 C 0.62943 0.15071 0.5631 0.0
C1288 C 0.60956 0.16791 0.56769 0.0
C1289 C 0.53636 0.24416 0.62732 0.0
C1290 C 0.55122 0.1873 0.67632 0.0
C1291 C 0.47825 0.2558 0.69308 0.0
C1292 C 0.48264 0.28102 0.69679 0.0
C1293 C 0.49219 0.29255 0.67533 0.0
C1294 C 0.49338 0.3165 0.67804 0.0
C1295 C 0.48467 0.32989 0.70218 0.0
C1296 C 0.47566 0.31838 0.72383 0.0
C1297 C 0.47474 0.29433 0.72119 0.0
C1298 C 0.49478 0.17067 0.66134 0.0
C1299 C 0.46719 0.21049 0.60925 0.0
O1300 O 0.54038 0.17243 0.58474 0.0
O1301 O 0.56588 0.19921 0.59643 0.0
O1302 O 0.52325 0.23548 0.60844 0.0
O1303 O 0.53774 0.22982 0.644 0.0
O1304 O 0.54999 0.18005 0.65076 0.0
O1305 O 0.53518 0.20473 0.68712 0.0
O1306 O 0.47203 0.24769 0.66968 0.0
O1307 O 0.49389 0.24134 0.70289 0.0
O1308 O 0.49285 0.1846 0.68335 0.0
O1309 O 0.4952 0.18266 0.64192 0.0
O1310 O 0.46693 0.21839 0.63492 0.0
O1311 O 0.4895 0.20097 0.59713 0.0
H1312 H 0.56598 0.14131 0.60651 0.0
H1313 H 0.60003 0.11052 0.59683 0.0
H1314 H 0.64629 0.15281 0.54951 0.0
H1315 H 0.61182 0.18356 0.55856 0.0
H1316 H 0.49812 0.28307 0.6561 0.0
H1317 H 0.50008 0.32472 0.66084 0.0
H1318 H 0.4683 0.3281 0.74253 0.0
H1319 H 0.46687 0.2862 0.73801 0.0
Nd1320 Nd 0.22999 0.29944 0.92755 0.0
Nd1321 Nd 0.21127 0.28749 0.97677 0.0
C1322 C 0.26346 0.308 0.88782 0.0
C1323 C 0.27306 0.32915 0.87862 0.0
C1324 C 0.29197 0.34099 0.89204 0.0
C1325 C 0.29833 0.36253 0.8857 0.0
C1326 C 0.28594 0.37242 0.86584 0.0
C1327 C 0.26826 0.36021 0.85133 0.0
C1328 C 0.26193 0.33862 0.85759 0.0
C1329 C 0.17616 0.30446 0.92288 0.0
C1330 C 0.22297 0.34159 0.97679 0.0
C1331 C 0.18005 0.27516 0.01536 0.0
C1332 C 0.15494 0.26505 0.0126 0.0
C1333 C 0.13963 0.27123 0.99254 0.0
C1334 C 0.11765 0.25953 0.98701 0.0
C1335 C 0.11084 0.24134 1.00122 0.0
C1336 C 0.12621 0.23485 0.02101 0.0
C1337 C 0.14826 0.24667 0.02666 0.0
C1338 C 0.26553 0.27886 0.97849 0.0
C1339 C 0.20972 0.24868 0.92631 0.0
O1340 O 0.27036 0.30309 0.9108 0.0
O1341 O 0.23908 0.30429 0.88499 0.0
O1342 O 0.19448 0.30986 0.90614 0.0
O1343 O 0.18607 0.29758 0.9435 0.0
O1344 O 0.22984 0.33586 0.95109 0.0
O1345 O 0.21432 0.32587 0.99139 0.0
O1346 O 0.18118 0.29654 0.01064 0.0
O1347 O 0.19987 0.26206 1.00376 0.0
O1348 O 0.24766 0.27529 0.99659 0.0
O1349 O 0.25467 0.28649 0.95906 0.0
O1350 O 0.1979 0.25725 0.94941 0.0
O1351 O 0.22774 0.26054 0.9153 0.0
H1352 H 0.30113 0.33408 0.90815 0.0
H1353 H 0.31204 0.37188 0.89702 0.0
H1354 H 0.25863 0.36777 0.83592 0.0
H1355 H 0.24755 0.32976 0.84673 0.0
H1356 H 0.14492 0.28483 0.98077 0.0
H1357 H 0.10585 0.2647 0.97172 0.0
H1358 H 0.12097 0.22086 0.03218 0.0
H1359 H 0.16034 0.24124 0.04159 0.0
Nd1360 Nd 0.41938 0.63909 0.40842 0.0
Nd1361 Nd 0.43882 0.66477 0.45425 0.0
C1362 C 0.39764 0.62388 0.36474 0.0
C1363 C 0.37299 0.61599 0.35581 0.0
C1364 C 0.35166 0.61332 0.37407 0.0
C1365 C 0.32786 0.60715 0.36491 0.0
C1366 C 0.32521 0.60375 0.33743 0.0
C1367 C 0.3468 0.60578 0.31927 0.0
C1368 C 0.37055 0.61185 0.32842 0.0
C1369 C 0.46427 0.61808 0.42292 0.0
C1370 C 0.40569 0.62377 0.46645 0.0
C1371 C 0.46662 0.68266 0.49135 0.0
C1372 C 0.49468 0.68504 0.49153 0.0
C1373 C 0.51239 0.66903 0.47597 0.0
C1374 C 0.53914 0.67143 0.47592 0.0
C1375 C 0.54838 0.69017 0.49089 0.0
C1376 C 0.53069 0.70627 0.50618 0.0
C1377 C 0.50393 0.70367 0.50656 0.0
C1378 C 0.38571 0.67562 0.4509 0.0
C1379 C 0.46127 0.67919 0.39772 0.0
O1380 O 0.39776 0.64543 0.37363 0.0
O1381 O 0.41034 0.6107 0.37893 0.0
O1382 O 0.44379 0.60763 0.41667 0.0
O1383 O 0.46037 0.63931 0.42186 0.0
O1384 O 0.39432 0.628 0.44483 0.0
O1385 O 0.42905 0.63088 0.46922 0.0
O1386 O 0.45947 0.66166 0.49013 0.0
O1387 O 0.45476 0.695 0.47549 0.0
O1388 O 0.39726 0.67721 0.47257 0.0
O1389 O 0.40308 0.67175 0.43162 0.0
O1390 O 0.46079 0.68342 0.4236 0.0
O1391 O 0.4475 0.66291 0.38655 0.0
H1392 H 0.35329 0.61646 0.3953 0.0
H1393 H 0.31133 0.60568 0.37915 0.0
H1394 H 0.34503 0.60325 0.29803 0.0
H1395 H 0.38688 0.6138 0.3141 0.0
H1396 H 0.50552 0.65473 0.46382 0.0
H1397 H 0.5526 0.65891 0.46401 0.0
H1398 H 0.53764 0.72083 0.51779 0.0
H1399 H 0.49048 0.71624 0.51841 0.0
Nd1400 Nd 0.8257 0.55298 0.97927 0.0
Nd1401 Nd 0.78519 0.57179 0.95689 0.0
C1402 C 0.86919 0.5361 0.99501 0.0
C1403 C 0.87574 0.51202 0.99759 0.0
C1404 C 0.89451 0.50007 0.9789 0.0
C1405 C 0.8954 0.4764 0.97493 0.0
C1406 C 0.87791 0.46439 0.98996 0.0
C1407 C 0.86075 0.47605 0.01034 0.0
C1408 C 0.85949 0.49983 0.01403 0.0
C1409 C 0.78178 0.54074 1.00847 0.0
C1410 C 0.79371 0.52146 0.93732 0.0
C1411 C 0.74783 0.59877 0.941 0.0
C1412 C 0.73031 0.61965 0.94978 0.0
C1413 C 0.70988 0.62054 0.97026 0.0
C1414 C 0.69328 0.64044 0.97695 0.0
C1415 C 0.69686 0.65977 0.96333 0.0
C1416 C 0.71733 0.65889 0.94314 0.0
C1417 C 0.73377 0.63913 0.93643 0.0
C1418 C 0.83251 0.56678 0.92192 0.0
C1419 C 0.80571 0.60417 1.00285 0.0
O1420 O 0.86692 0.54037 0.97056 0.0
O1421 O 0.85051 0.54634 0.0117 0.0
O1422 O 0.80044 0.52668 0.99708 0.0
O1423 O 0.78459 0.56045 1.00027 0.0
O1424 O 0.81697 0.52553 0.94518 0.0
O1425 O 0.77402 0.53565 0.94659 0.0
O1426 O 0.74322 0.5796 0.95087 0.0
O1427 O 0.7727 0.60187 0.9375 0.0
O1428 O 0.80985 0.56088 0.91567 0.0
O1429 O 0.82979 0.57524 0.94617 0.0
O1430 O 0.78491 0.59898 0.99142 0.0
O1431 O 0.82661 0.59007 0.99916 0.0
H1432 H 0.90709 0.50909 0.96593 0.0
H1433 H 0.90907 0.46744 0.9594 0.0
H1434 H 0.84751 0.46682 0.02235 0.0
H1435 H 0.84471 0.50859 0.02854 0.0
H1436 H 0.70658 0.60586 0.9809 0.0
H1437 H 0.67749 0.64068 0.9925 0.0
H1438 H 0.72037 0.67348 0.93224 0.0
H1439 H 0.74914 0.63898 0.92045 0.0
Nd1440 Nd 0.70132 0.52351 0.15022 0.0
Nd1441 Nd 0.74828 0.50794 0.1726 0.0
C1442 C 0.66505 0.54318 0.1256 0.0
C1443 C 0.65604 0.56703 0.12556 0.0
C1444 C 0.67374 0.58378 0.12073 0.0
C1445 C 0.66458 0.60619 0.11945 0.0
C1446 C 0.63776 0.612 0.12334 0.0
C1447 C 0.62029 0.5957 0.13013 0.0
C1448 C 0.6294 0.57325 0.1311 0.0
C1449 C 0.69345 0.5201 0.20459 0.0
C1450 C 0.74038 0.56227 0.17103 0.0
C1451 C 0.77972 0.48866 0.20431 0.0
C1452 C 0.77765 0.4822 0.23226 0.0
C1453 C 0.76698 0.49765 0.25411 0.0
C1454 C 0.76599 0.49157 0.28029 0.0
C1455 C 0.77584 0.46995 0.28546 0.0
C1456 C 0.78626 0.45444 0.26362 0.0
C1457 C 0.78708 0.46046 0.23742 0.0
C1458 C 0.75716 0.51425 0.11799 0.0
C1459 C 0.70249 0.47236 0.15784 0.0
O1460 O 0.68846 0.53712 0.11425 0.0
O1461 O 0.66005 0.53476 0.14808 0.0
O1462 O 0.67733 0.51413 0.1874 0.0
O1463 O 0.71284 0.5284 0.19307 0.0
O1464 O 0.72268 0.55678 0.15456 0.0
O1465 O 0.75112 0.54667 0.18425 0.0
O1466 O 0.77859 0.51038 0.20136 0.0
O1467 O 0.76719 0.47692 0.18666 0.0
O1468 O 0.77418 0.51689 0.13543 0.0
O1469 O 0.73773 0.50534 0.129 0.0
O1470 O 0.71904 0.47886 0.17534 0.0
O1471 O 0.69769 0.4855 0.13938 0.0
H1472 H 0.69451 0.57946 0.11707 0.0
H1473 H 0.67819 0.61865 0.11399 0.0
H1474 H 0.59948 0.60006 0.13294 0.0
H1475 H 0.61559 0.56062 0.13539 0.0
H1476 H 0.7594 0.51451 0.251 0.0
H1477 H 0.75778 0.50388 0.29661 0.0
H1478 H 0.79405 0.43768 0.26689 0.0
H1479 H 0.79544 0.44816 0.22114 0.0
Nd1480 Nd 0.73223 0.40831 0.40725 0.0
Nd1481 Nd 0.76156 0.44267 0.45069 0.0
C1482 C 0.71336 0.38512 0.36623 0.0
C1483 C 0.69212 0.37068 0.35769 0.0
C1484 C 0.67332 0.37932 0.34222 0.0
C1485 C 0.65598 0.36489 0.33011 0.0
C1486 C 0.6572 0.34151 0.33311 0.0
C1487 C 0.67502 0.33299 0.3496 0.0
C1488 C 0.69232 0.34744 0.36181 0.0
C1489 C 0.71399 0.40692 0.46013 0.0
C1490 C 0.70871 0.46098 0.42401 0.0
C1491 C 0.7825 0.45546 0.49674 0.0
C1492 C 0.79784 0.44831 0.51952 0.0
C1493 C 0.78893 0.43237 0.53668 0.0
C1494 C 0.80179 0.42811 0.55962 0.0
C1495 C 0.82415 0.43955 0.56649 0.0
C1496 C 0.83336 0.4551 0.54906 0.0
C1497 C 0.8205 0.45939 0.52618 0.0
C1498 C 0.77214 0.44812 0.39672 0.0
C1499 C 0.78775 0.39068 0.42638 0.0
O1500 O 0.70797 0.40708 0.37283 0.0
O1501 O 0.73064 0.37641 0.38047 0.0
O1502 O 0.70613 0.39375 0.44062 0.0
O1503 O 0.73008 0.41924 0.45025 0.0
O1504 O 0.71232 0.44326 0.40558 0.0
O1505 O 0.72317 0.4642 0.4448 0.0
O1506 O 0.75847 0.44939 0.49521 0.0
O1507 O 0.79446 0.45665 0.47303 0.0
O1508 O 0.77299 0.46434 0.41645 0.0
O1509 O 0.76788 0.42957 0.40652 0.0
O1510 O 0.78604 0.40841 0.44499 0.0
O1511 O 0.77116 0.38853 0.40804 0.0
H1512 H 0.67278 0.39705 0.33846 0.0
H1513 H 0.64237 0.37176 0.3174 0.0
H1514 H 0.67627 0.31499 0.35209 0.0
H1515 H 0.70659 0.34014 0.37349 0.0
H1516 H 0.77156 0.42349 0.53276 0.0
H1517 H 0.79389 0.41609 0.57238 0.0
H1518 H 0.85028 0.46445 0.55353 0.0
H1519 H 0.82796 0.472 0.51399 0.0
Nd1520 Nd 0.91291 0.39292 0.69437 0.0
Nd1521 Nd 0.8763 0.41331 0.72202 0.0
C1522 C 0.94629 0.36742 0.65993 0.0
C1523 C 0.9493 0.3639 0.63114 0.0
C1524 C 0.92712 0.3618 0.61711 0.0
C1525 C 0.92937 0.36185 0.58983 0.0
C1526 C 0.95377 0.36394 0.57633 0.0
C1527 C 0.97617 0.36537 0.59004 0.0
C1528 C 0.97389 0.36545 0.61759 0.0
C1529 C 0.92246 0.38304 0.74578 0.0
C1530 C 0.85737 0.37066 0.69564 0.0
C1531 C 0.84273 0.43937 0.75649 0.0
C1532 C 0.83553 0.44871 0.78433 0.0
C1533 C 0.85401 0.45728 0.80108 0.0
C1534 C 0.84587 0.46779 0.82674 0.0
C1535 C 0.81925 0.46973 0.83583 0.0
C1536 C 0.80095 0.46091 0.8192 0.0
C1537 C 0.80904 0.4505 0.79365 0.0
C1538 C 0.86716 0.42117 0.66882 0.0
C1539 C 0.92548 0.44055 0.71901 0.0
O1540 O 0.95077 0.38789 0.67 0.0
O1541 O 0.92532 0.35981 0.67121 0.0
O1542 O 0.9385 0.39179 0.72948 0.0
O1543 O 0.9002 0.38286 0.73627 0.0
O1544 O 0.87658 0.37564 0.67892 0.0
O1545 O 0.85937 0.37884 0.72016 0.0
O1546 O 0.8402 0.41773 0.74989 0.0
O1547 O 0.86315 0.44689 0.7441 0.0
O1548 O 0.85019 0.41637 0.68717 0.0
O1549 O 0.8893 0.42172 0.67844 0.0
O1550 O 0.90981 0.43299 0.73706 0.0
O1551 O 0.92818 0.42886 0.69547 0.0
H1552 H 0.90789 0.36088 0.62722 0.0
H1553 H 0.91207 0.36024 0.57917 0.0
H1554 H 0.99515 0.36633 0.57945 0.0
H1555 H 0.99109 0.36721 0.62837 0.0
H1556 H 0.87456 0.45623 0.79418 0.0
H1557 H 0.86018 0.47476 0.83932 0.0
H1558 H 0.78034 0.46252 0.82585 0.0
H1559 H 0.79451 0.44425 0.78089 0.0
Nd1560 Nd 0.50813 0.04047 0.32286 0.0
Nd1561 Nd 0.4664 0.07153 0.30602 0.0
C1562 C 0.53648 1.00483 0.33751 0.0
C1563 C 0.5384 0.97995 0.34289 0.0
C1564 C 0.52878 0.96241 0.32591 0.0
C1565 C 0.53329 0.93909 0.32948 0.0
C1566 C 0.54809 0.93228 0.34979 0.0
C1567 C 0.55755 0.94979 0.36695 0.0
C1568 C 0.55278 0.97315 0.36355 0.0
C1569 C 0.51252 0.08827 0.33593 0.0
C1570 C 0.45015 0.0499 0.35599 0.0
C1571 C 0.43591 0.10271 0.28923 0.0
C1572 C 0.43524 0.1072 0.26188 0.0
C1573 C 0.45416 0.09581 0.24284 0.0
C1574 C 0.45711 0.10218 0.2174 0.0
C1575 C 0.44049 0.11951 0.21068 0.0
C1576 C 0.42031 0.12993 0.2291 0.0
C1577 C 0.41782 0.12389 0.25489 0.0
C1578 C 0.46245 0.02596 0.28757 0.0
C1579 C 0.52221 0.06408 0.26906 0.0
O1580 O 0.53472 0.00924 0.313 0.0
O1581 O 0.52369 0.02058 0.35464 0.0
O1582 O 0.53196 0.07327 0.32873 0.0
O1583 O 0.49253 0.07694 0.33821 0.0
O1584 O 0.4677 0.03355 0.34516 0.0
O1585 O 0.45183 0.07032 0.3487 0.0
O1586 O 0.458 0.1072 0.2989 0.0
O1587 O 0.42792 0.08285 0.29415 0.0
O1588 O 0.44298 0.04025 0.29621 0.0
O1589 O 0.48337 0.0361 0.28812 0.0
O1590 O 0.50107 0.07741 0.27664 0.0
O1591 O 0.52842 0.04638 0.28178 0.0
H1592 H 0.51812 0.96666 0.30944 0.0
H1593 H 0.52537 0.92625 0.31607 0.0
H1594 H 0.56869 0.94538 0.38305 0.0
H1595 H 0.56088 0.98597 0.37686 0.0
H1596 H 0.46749 0.08274 0.24795 0.0
H1597 H 0.47282 0.09429 0.20337 0.0
H1598 H 0.40745 0.14352 0.22385 0.0
H1599 H 0.40315 0.13274 0.26947 0.0
Nd1600 Nd 0.03552 0.77965 0.69415 0.0
Nd1601 Nd 0.06784 0.80326 0.65922 0.0
C1602 C 0.01231 0.75097 0.72435 0.0
C1603 C 1.00044 0.73049 0.73405 0.0
C1604 C 1.00068 0.70965 0.71775 0.0
C1605 C 0.99419 0.68952 0.72877 0.0
C1606 C 0.98785 0.6896 0.75642 0.0
C1607 C 0.9865 0.71067 0.77245 0.0
C1608 C 0.99257 0.73083 0.76137 0.0
C1609 C 0.033 0.82784 0.71091 0.0
C1610 C 0.01577 0.7838 0.63508 0.0
C1611 C 0.0887 0.8317 0.62817 0.0
C1612 C 0.10206 0.85272 0.632 0.0
C1613 C 0.11902 0.85607 0.65215 0.0
C1614 C 0.13392 0.87508 0.65355 0.0
C1615 C 0.13143 0.89099 0.63518 0.0
C1616 C 0.11309 0.88843 0.61633 0.0
C1617 C 0.09855 0.86925 0.61465 0.0
C1618 C 0.08178 0.7565 0.64885 0.0
C1619 C 0.08876 0.79636 0.71453 0.0
O1620 O 0.03732 0.74985 0.71709 0.0
O1621 O 0.99901 0.76677 0.71388 0.0
O1622 O 0.03118 0.81181 0.72637 0.0
O1623 O 0.03351 0.81801 0.68736 0.0
O1624 O 0.01045 0.77548 0.65804 0.0
O1625 O 0.0365 0.79535 0.63088 0.0
O1626 O 0.06401 0.83311 0.63656 0.0
O1627 O 0.1012 0.81338 0.634 0.0
O1628 O 0.0979 0.77241 0.65272 0.0
O1629 O 0.05863 0.76555 0.65397 0.0
O1630 O 0.08576 0.81214 0.69849 0.0
O1631 O 0.07585 0.7778 0.71095 0.0
H1632 H 0.00693 0.70875 0.69671 0.0
H1633 H 0.99536 0.67365 0.71588 0.0
H1634 H 0.98189 0.71137 0.79376 0.0
H1635 H 0.99253 0.74657 0.77451 0.0
H1636 H 0.1215 0.84359 0.66608 0.0
H1637 H 0.14802 0.87696 0.6682 0.0
H1638 H 0.11105 0.9007 0.60209 0.0
H1639 H 0.08524 0.86693 0.59926 0.0
Nd1640 Nd 0.55858 0.78218 0.34345 0.0
Nd1641 Nd 0.5313 0.79873 0.40197 0.0
C1642 C 0.57497 0.74825 0.30623 0.0
C1643 C 0.57893 0.72319 0.30801 0.0
C1644 C 0.58269 0.71497 0.33254 0.0
C1645 C 0.58451 0.6914 0.33477 0.0
C1646 C 0.58261 0.67532 0.31252 0.0
C1647 C 0.57944 0.68354 0.28782 0.0
C1648 C 0.5775 0.70718 0.28563 0.0
C1649 C 0.55831 0.83089 0.35276 0.0
C1650 C 0.59434 0.78332 0.39514 0.0
C1651 C 0.51055 0.82151 0.44671 0.0
C1652 C 0.48802 0.83772 0.45276 0.0
C1653 C 0.48462 0.85571 0.43723 0.0
C1654 C 0.46168 0.86945 0.44097 0.0
C1655 C 0.44195 0.8653 0.46022 0.0
C1656 C 0.44498 0.84712 0.4755 0.0
C1657 C 0.4681 0.83342 0.47187 0.0
C1658 C 0.52302 0.75277 0.38837 0.0
C1659 C 0.49943 0.8047 0.34768 0.0
O1660 O 0.59086 0.76159 0.31845 0.0
O1661 O 0.55076 0.75666 0.30988 0.0
O1662 O 0.56918 0.81838 0.33128 0.0
O1663 O 0.54962 0.81679 0.36841 0.0
O1664 O 0.59237 0.77731 0.36958 0.0
O1665 O 0.57406 0.79187 0.41168 0.0
O1666 O 0.53093 0.82818 0.43299 0.0
O1667 O 0.50454 0.80094 0.43843 0.0
O1668 O 0.51453 0.76422 0.41081 0.0
O1669 O 0.53634 0.76602 0.37538 0.0
O1670 O 0.50014 0.80918 0.37397 0.0
O1671 O 0.51721 0.79081 0.33289 0.0
H1672 H 0.58394 0.72687 0.35007 0.0
H1673 H 0.58736 0.68566 0.35395 0.0
H1674 H 0.57821 0.67163 0.27024 0.0
H1675 H 0.57459 0.71295 0.26647 0.0
H1676 H 0.49956 0.8591 0.42214 0.0
H1677 H 0.45948 0.88358 0.42918 0.0
H1678 H 0.42982 0.844 0.49057 0.0
H1679 H 0.47031 0.81929 0.48364 0.0
Nd1680 Nd 0.78865 0.74877 0.04277 0.0
Nd1681 Nd 0.78542 0.74131 0.09314 0.0
C1682 C 0.81198 0.76908 1.00606 0.0
C1683 C 0.82903 0.78719 0.01389 0.0
C1684 C 0.86118 0.77758 0.02945 0.0
C1685 C 0.89201 0.7972 0.02827 0.0
C1686 C 0.88943 0.82642 0.01209 0.0
C1687 C 0.85621 0.83659 0.99904 0.0
C1688 C 0.82644 0.81702 0.9991 0.0
C1689 C 0.73661 0.75319 0.05946 0.0
C1690 C 0.80011 0.79198 0.08054 0.0
C1691 C 0.76598 0.72493 0.13694 0.0
C1692 C 0.76288 0.70135 0.14422 0.0
C1693 C 0.74604 0.68668 0.13127 0.0
C1694 C 0.74386 0.66433 0.13775 0.0
C1695 C 0.75833 0.65615 0.15741 0.0
C1696 C 0.77502 0.67075 0.17049 0.0
C1697 C 0.77731 0.6931 0.16392 0.0
C1698 C 0.83775 0.73689 0.07823 0.0
C1699 C 0.78587 0.69781 0.0449 0.0
O1700 O 0.82047 0.74887 0.01088 0.0
O1701 O 0.78705 0.7733 0.01228 0.0
O1702 O 0.74635 0.74179 0.03701 0.0
O1703 O 0.75462 0.76101 0.07321 0.0
O1704 O 0.78902 0.78546 0.05949 0.0
O1705 O 0.80033 0.77811 0.09937 0.0
O1706 O 0.75164 0.73174 0.11891 0.0
O1707 O 0.78971 0.73145 0.13388 0.0
O1708 O 0.82742 0.74656 0.10124 0.0
O1709 O 0.82012 0.72957 0.06362 0.0
O1710 O 0.78739 0.70477 0.07034 0.0
O1711 O 0.78347 0.7125 0.02763 0.0
H1712 H 0.87901 0.78411 0.03169 0.0
H1713 H 0.91263 0.79331 0.03404 0.0
H1714 H 0.85534 0.85134 0.98818 0.0
H1715 H 0.80961 0.82155 0.98894 0.0
H1716 H 0.73454 0.69239 0.11606 0.0
H1717 H 0.73075 0.65341 0.12752 0.0
H1718 H 0.78625 0.66484 0.18581 0.0
H1719 H 0.79041 0.70395 0.17425 0.0
Nd1720 Nd 0.62804 0.34148 0.56112 0.0
Nd1721 Nd 0.64665 0.3563 0.60605 0.0
C1722 C 0.60448 0.32964 0.51771 0.0
C1723 C 0.57714 0.32688 0.513 0.0
C1724 C 0.55891 0.32338 0.53415 0.0
C1725 C 0.53333 0.31893 0.5294 0.0
C1726 C 0.52578 0.31783 0.50343 0.0
C1727 C 0.54371 0.32209 0.4824 0.0
C1728 C 0.56932 0.32665 0.4872 0.0
C1729 C 0.68013 0.32135 0.56058 0.0
C1730 C 0.60899 0.31524 0.60789 0.0
C1731 C 0.67453 0.37009 0.64572 0.0
C1732 C 0.70153 0.37553 0.65003 0.0
C1733 C 0.72109 0.37404 0.62895 0.0
C1734 C 0.74722 0.37681 0.63386 0.0
C1735 C 0.75446 0.38252 0.66005 0.0
C1736 C 0.73409 0.38348 0.68093 0.0
C1737 C 0.70821 0.38041 0.67597 0.0
C1738 C 0.59456 0.37506 0.60893 0.0
C1739 C 0.66165 0.38241 0.55341 0.0
O1740 O 0.61445 0.31506 0.53215 0.0
O1741 O 0.61082 0.35037 0.52449 0.0
O1742 O 0.6596 0.31057 0.55589 0.0
O1743 O 0.6721 0.34164 0.56856 0.0
O1744 O 0.59925 0.32654 0.59001 0.0
O1745 O 0.63257 0.32019 0.61421 0.0
O1746 O 0.67087 0.34865 0.63845 0.0
O1747 O 0.6611 0.38408 0.63301 0.0
O1748 O 0.60545 0.36626 0.6278 0.0
O1749 O 0.61122 0.37338 0.58875 0.0
O1750 O 0.67017 0.37623 0.57558 0.0
O1751 O 0.6405 0.37396 0.54536 0.0
H1752 H 0.56467 0.32329 0.55417 0.0
H1753 H 0.51975 0.3154 0.54573 0.0
H1754 H 0.5381 0.32103 0.46221 0.0
H1755 H 0.58319 0.32928 0.47071 0.0
H1756 H 0.71628 0.36997 0.60868 0.0
H1757 H 0.76122 0.37333 0.6168 0.0
H1758 H 0.73779 0.38543 0.70165 0.0
H1759 H 0.69348 0.38106 0.69264 0.0
Nd1760 Nd 0.25596 0.47303 0.07727 0.0
Nd1761 Nd 0.21392 0.48929 0.05668 0.0
C1762 C 0.30316 0.45577 0.08434 0.0
C1763 C 0.31695 0.43307 0.08314 0.0
C1764 C 0.33215 0.42352 0.05985 0.0
C1765 C 0.34403 0.40153 0.05841 0.0
C1766 C 0.34093 0.38899 0.08028 0.0
C1767 C 0.32672 0.39878 0.10383 0.0
C1768 C 0.31491 0.42067 0.10532 0.0
C1769 C 0.20961 0.46027 0.10261 0.0
C1770 C 0.22976 0.43595 0.03316 0.0
C1771 C 0.17132 0.51309 0.04897 0.0
C1772 C 0.17002 0.53758 0.04693 0.0
C1773 C 0.14671 0.5508 0.05387 0.0
C1774 C 0.1461 0.57422 0.05205 0.0
C1775 C 0.1688 0.5845 0.04331 0.0
C1776 C 0.19239 0.57144 0.03763 0.0
C1777 C 0.19302 0.54809 0.03965 0.0
C1778 C 0.25642 0.4974 0.02222 0.0
C1779 C 0.2281 0.51551 0.1173 0.0
O1780 O 0.29697 0.46257 0.0619 0.0
O1781 O 0.28468 0.46102 0.10353 0.0
O1782 O 0.22866 0.46808 0.11523 0.0
O1783 O 0.21601 0.45904 0.07822 0.0
O1784 O 0.24963 0.43988 0.04793 0.0
O1785 O 0.21112 0.45256 0.03486 0.0
O1786 O 0.17625 0.50769 0.07231 0.0
O1787 O 0.18542 0.50063 0.02969 0.0
O1788 O 0.23485 0.48956 0.01555 0.0
O1789 O 0.25585 0.50106 0.04794 0.0
O1790 O 0.21061 0.51184 0.09962 0.0
O1791 O 0.25077 0.50393 0.11083 0.0
H1792 H 0.33443 0.43283 0.04261 0.0
H1793 H 0.355 0.39409 0.04011 0.0
H1794 H 0.32422 0.3892 0.12085 0.0
H1795 H 0.30374 0.42766 0.12369 0.0
H1796 H 0.12903 0.543 0.06026 0.0
H1797 H 0.1277 0.5842 0.05639 0.0
H1798 H 0.21 0.57915 0.03085 0.0
H1799 H 0.21135 0.5381 0.03506 0.0
Nd1800 Nd 0.30458 0.51895 0.8602 0.0
Nd1801 Nd 0.35037 0.50194 0.87702 0.0
C1802 C 0.2709 0.54282 0.83533 0.0
C1803 C 0.27329 0.55436 0.81063 0.0
C1804 C 0.29583 0.56557 0.80337 0.0
C1805 C 0.2996 0.57318 0.77812 0.0
C1806 C 0.28082 0.56992 0.75974 0.0
C1807 C 0.25765 0.55993 0.76753 0.0
C1808 C 0.25396 0.55219 0.79272 0.0
C1809 C 0.2981 0.51414 0.91549 0.0
C1810 C 0.35133 0.55213 0.8687 0.0
C1811 C 0.3865 0.48013 0.89957 0.0
C1812 C 0.39455 0.45594 0.89666 0.0
C1813 C 0.37581 0.43945 0.89557 0.0
C1814 C 0.38342 0.41653 0.8952 0.0
C1815 C 0.40974 0.41009 0.89626 0.0
C1816 C 0.42869 0.42621 0.89475 0.0
C1817 C 0.42108 0.44916 0.89497 0.0
C1818 C 0.35738 0.50246 0.82193 0.0
C1819 C 0.30701 0.46572 0.85949 0.0
O1820 O 0.27396 0.52061 0.8319 0.0
O1821 O 0.28254 0.55154 0.85561 0.0
O1822 O 0.28108 0.5096 0.89861 0.0
O1823 O 0.3175 0.5223 0.90332 0.0
O1824 O 0.33486 0.54516 0.85171 0.0
O1825 O 0.35713 0.53926 0.88696 0.0
O1826 O 0.36312 0.48563 0.91125 0.0
O1827 O 0.39176 0.4905 0.87852 0.0
O1828 O 0.37391 0.50894 0.83855 0.0
O1829 O 0.33702 0.49638 0.83473 0.0
O1830 O 0.32826 0.46927 0.87149 0.0
O1831 O 0.29422 0.48233 0.85004 0.0
H1832 H 0.3111 0.56753 0.81667 0.0
H1833 H 0.31778 0.58052 0.7724 0.0
H1834 H 0.24311 0.55693 0.75354 0.0
H1835 H 0.23648 0.54355 0.79775 0.0
H1836 H 0.3552 0.44426 0.8967 0.0
H1837 H 0.36864 0.40422 0.89686 0.0
H1838 H 0.44907 0.42128 0.89593 0.0
H1839 H 0.43572 0.46168 0.89526 0.0
Nd1840 Nd 0.30851 0.56646 0.59034 0.0
Nd1841 Nd 0.32565 0.61042 0.60966 0.0
C1842 C 0.28728 0.53211 0.5644 0.0
C1843 C 0.27602 0.52992 0.53868 0.0
C1844 C 0.28766 0.54023 0.51748 0.0
C1845 C 0.27835 0.53748 0.49258 0.0
C1846 C 0.25585 0.52571 0.48882 0.0
C1847 C 0.24282 0.51676 0.51055 0.0
C1848 C 0.25318 0.51847 0.53529 0.0
C1849 C 0.30112 0.57401 0.64528 0.0
C1850 C 0.27185 0.61126 0.57933 0.0
C1851 C 0.34243 0.64696 0.63735 0.0
C1852 C 0.36089 0.65506 0.65688 0.0
C1853 C 0.35074 0.66537 0.68212 0.0
C1854 C 0.36711 0.67511 0.70022 0.0
C1855 C 0.39415 0.6748 0.69366 0.0
C1856 C 0.4046 0.66419 0.66858 0.0
C1857 C 0.38809 0.65453 0.65025 0.0
C1858 C 0.34016 0.59973 0.55562 0.0
C1859 C 0.36459 0.56361 0.61383 0.0
O1860 O 0.27426 0.5462 0.58306 0.0
O1861 O 0.31252 0.53424 0.56342 0.0
O1862 O 0.30622 0.55438 0.63148 0.0
O1863 O 0.2968 0.58896 0.62965 0.0
O1864 O 0.28099 0.59042 0.57004 0.0
O1865 O 0.28432 0.62279 0.59786 0.0
O1866 O 0.32273 0.63577 0.6458 0.0
O1867 O 0.3517 0.63931 0.61317 0.0
O1868 O 0.32918 0.61912 0.56667 0.0
O1869 O 0.34155 0.58604 0.57312 0.0
O1870 O 0.3588 0.58561 0.62189 0.0
O1871 O 0.34909 0.55228 0.59838 0.0
H1872 H 0.304 0.55038 0.52015 0.0
H1873 H 0.28858 0.54481 0.47628 0.0
H1874 H 0.22516 0.50788 0.50809 0.0
H1875 H 0.24342 0.51095 0.55168 0.0
H1876 H 0.32993 0.66631 0.68772 0.0
H1877 H 0.3586 0.68314 0.71943 0.0
H1878 H 0.42541 0.66369 0.66308 0.0
H1879 H 0.39657 0.64694 0.63084 0.0
Nd1880 Nd 0.17927 0.55378 0.28789 0.0
Nd1881 Nd 0.1691 0.59447 0.28126 0.0
C1882 C 0.19571 0.51581 0.30598 0.0
C1883 C 0.20274 0.51277 0.33282 0.0
C1884 C 0.18847 0.52523 0.35501 0.0
C1885 C 0.19761 0.52571 0.38008 0.0
C1886 C 0.22126 0.51399 0.38326 0.0
C1887 C 0.23538 0.50122 0.36127 0.0
C1888 C 0.22608 0.50056 0.33613 0.0
C1889 C 0.18813 0.55363 0.23136 0.0
C1890 C 0.22457 0.58773 0.29867 0.0
C1891 C 0.14976 0.63341 0.26638 0.0
C1892 C 0.13481 0.64203 0.24549 0.0
C1893 C 0.13461 0.63006 0.22013 0.0
C1894 C 0.11895 0.63828 0.20137 0.0
C1895 C 0.1018 0.65811 0.2079 0.0
C1896 C 0.10459 0.67093 0.23271 0.0
C1897 C 0.1202 0.66279 0.25131 0.0
C1898 C 0.16263 0.59337 0.33838 0.0
C1899 C 0.12509 0.5598 0.26898 0.0
O1900 O 0.17116 0.52101 0.30373 0.0
O1901 O 0.21113 0.52842 0.29308 0.0
O1902 O 0.17588 0.53884 0.24384 0.0
O1903 O 0.19464 0.56918 0.24909 0.0
O1904 O 0.21292 0.57063 0.30772 0.0
O1905 O 0.2125 0.59986 0.28283 0.0
O1906 O 0.17367 0.6252 0.25971 0.0
O1907 O 0.13716 0.62143 0.28275 0.0
O1908 O 0.17492 0.60802 0.32565 0.0
O1909 O 0.15465 0.57874 0.32051 0.0
O1910 O 0.13818 0.57559 0.2587 0.0
O1911 O 0.1358 0.55015 0.28762 0.0
H1912 H 0.1708 0.53537 0.35285 0.0
H1913 H 0.18668 0.53583 0.39687 0.0
H1914 H 0.25383 0.49231 0.36349 0.0
H1915 H 0.23763 0.49135 0.31911 0.0
H1916 H 0.14666 0.61439 0.21475 0.0
H1917 H 0.12136 0.62891 0.18191 0.0
H1918 H 0.09489 0.68764 0.23813 0.0
H1919 H 0.12083 0.67283 0.2704 0.0
C1920 C 1.00185 0.62165 0.11285 0.0
C1921 C 0.9996 0.61153 0.13709 0.0
C1922 C 0.98429 0.64977 0.16033 0.0
C1923 C 0.98594 0.65984 0.13572 0.0
N1924 N 0.98433 0.65069 0.08818 0.0
N1925 N 0.9815 0.61544 0.1828 0.0
C1926 C 0.99128 0.64447 0.11185 0.0
C1927 C 0.98903 0.62552 0.16056 0.0
N1928 N 0.01468 0.60972 0.09058 0.0
N1929 N 0.9769 0.66301 0.18374 0.0
H1930 H 0.98329 0.59788 0.18359 0.0
H1931 H 0.97101 0.6241 0.19964 0.0
H1932 H 0.96622 0.67856 0.18487 0.0
H1933 H 0.98067 0.65803 0.20222 0.0
H1934 H 0.01909 0.61711 0.07309 0.0
H1935 H 0.02323 0.59331 0.09052 0.0
H1936 H 0.98566 0.63936 0.07081 0.0
H1937 H 0.97408 0.66597 0.08655 0.0
C1938 C 0.86755 0.72937 0.42655 0.0
C1939 C 0.8833 0.74755 0.43458 0.0
C1940 C 0.84558 0.77505 0.43231 0.0
C1941 C 0.82939 0.75663 0.42799 0.0
N1942 N 0.82578 0.71733 0.41247 0.0
N1943 N 0.88792 0.78839 0.44207 0.0
C1944 C 0.84075 0.73408 0.42238 0.0
C1945 C 0.87268 0.77065 0.43586 0.0
N1946 N 0.87819 0.70747 0.42387 0.0
N1947 N 0.83481 0.79675 0.43271 0.0
H1948 H 0.90794 0.7866 0.44287 0.0
H1949 H 0.88095 0.8053 0.44669 0.0
H1950 H 0.81525 0.80004 0.42968 0.0
H1951 H 0.84513 0.81142 0.4341 0.0
H1952 H 0.86753 0.69305 0.42122 0.0
H1953 H 0.89808 0.70371 0.42485 0.0
H1954 H 0.8326 0.70054 0.40641 0.0
H1955 H 0.80675 0.72095 0.40795 0.0
C1956 C 0.49363 0.62302 0.77801 0.0
C1957 C 0.50584 0.61242 0.75313 0.0
C1958 C 0.52705 0.64908 0.74768 0.0
C1959 C 0.51446 0.65986 0.77264 0.0
N1960 N 0.49533 0.65201 0.81551 0.0
N1961 N 0.53943 0.61426 0.71772 0.0
C1962 C 0.50043 0.64535 0.78889 0.0
C1963 C 0.52386 0.62527 0.73888 0.0
N1964 N 0.47491 0.61193 0.79129 0.0
N1965 N 0.54287 0.66124 0.7323 0.0
H1966 H 0.53816 0.59708 0.711 0.0
H1967 H 0.55518 0.62141 0.70821 0.0
H1968 H 0.55149 0.67581 0.73975 0.0
H1969 H 0.54807 0.65644 0.71211 0.0
H1970 H 0.46364 0.6194 0.80827 0.0
H1971 H 0.46905 0.59599 0.78401 0.0
H1972 H 0.48732 0.6415 0.82888 0.0
H1973 H 0.50272 0.66652 0.82488 0.0
C1974 C 0.8105 0.17714 0.95929 0.0
C1975 C 0.82347 0.18928 0.93973 0.0
C1976 C 0.78012 0.21054 0.93891 0.0
C1977 C 0.76936 0.20068 0.9618 0.0
N1978 N 0.7793 0.17913 0.99777 0.0
N1979 N 0.81904 0.21979 0.91198 0.0
C1980 C 0.78618 0.18556 0.9732 0.0
C1981 C 0.80778 0.20666 0.92973 0.0
N1982 N 0.81994 0.15597 0.96294 0.0
N1983 N 0.76384 0.22295 0.9253 0.0
H1984 H 0.83856 0.21735 0.90462 0.0
H1985 H 0.80946 0.23408 0.906 0.0
H1986 H 0.74398 0.22592 0.93126 0.0
H1987 H 0.76955 0.22858 0.90704 0.0
H1988 H 0.80934 0.14558 0.97464 0.0
H1989 H 0.83538 0.14772 0.95058 0.0
H1990 H 0.79201 0.16939 1.00767 0.0
H1991 H 0.76234 0.18568 0.00929 0.0
C1992 C 0.25375 0.99746 0.49225 0.0
C1993 C 0.26646 0.01735 0.48551 0.0
C1994 C 0.26667 0.02889 0.53435 0.0
C1995 C 0.25244 0.00983 0.54146 0.0
N1996 N 0.22836 0.97806 0.52497 0.0
N1997 N 0.27351 0.05621 0.50265 0.0
C1998 C 0.24455 0.99491 0.51971 0.0
C1999 C 0.26957 0.03424 0.50723 0.0
N2000 N 0.25052 0.9807 0.47229 0.0
N2001 N 0.27758 0.04254 0.55336 0.0
H2002 H 0.27182 0.06213 0.48431 0.0
H2003 H 0.27384 0.06946 0.51793 0.0
H2004 H 0.27384 0.04205 0.57373 0.0
H2005 H 0.29129 0.05418 0.54855 0.0
H2006 H 0.2445 0.96461 0.47564 0.0
H2007 H 0.25514 0.98257 0.45225 0.0
H2008 H 0.21927 0.96855 0.5103 0.0
H2009 H 0.22243 0.97455 0.54414 0.0
C2010 C 0.27199 0.96495 0.78251 0.0
C2011 C 0.26076 0.9504 0.76297 0.0
C2012 C 0.24972 0.9248 0.79695 0.0
C2013 C 0.25513 0.94187 0.81719 0.0
N2014 N 0.27661 0.97609 0.8294 0.0
N2015 N 0.23876 0.91614 0.75147 0.0
C2016 C 0.26805 0.96126 0.80991 0.0
C2017 C 0.24977 0.93007 0.7701 0.0
N2018 N 0.28681 0.98202 0.77472 0.0
N2019 N 0.246 0.90328 0.80317 0.0
H2020 H 0.23892 0.91926 0.7316 0.0
H2021 H 0.22799 0.90243 0.75618 0.0
H2022 H 0.24926 0.89871 0.82197 0.0
H2023 H 0.24347 0.88958 0.78908 0.0
H2024 H 0.29759 0.992 0.78738 0.0
H2025 H 0.28996 0.98524 0.75491 0.0
H2026 H 0.28304 0.99211 0.82642 0.0
H2027 H 0.27708 0.97224 0.84897 0.0
C2028 C 0.28745 1.00037 0.07522 0.0
C2029 C 0.31487 0.9991 0.07648 0.0
C2030 C 0.32142 0.98828 0.02833 0.0
C2031 C 0.29434 0.99255 0.02678 0.0
N2032 N 0.25186 1.00614 0.04802 0.0
N2033 N 0.35833 0.99516 0.05395 0.0
C2034 C 0.27739 0.9996 0.05002 0.0
C2035 C 0.33201 0.99396 0.05293 0.0
N2036 N 0.271 1.00123 0.09796 0.0
N2037 N 0.33683 0.97817 1.00656 0.0
H2038 H 0.3668 0.99976 0.07156 0.0
H2039 H 0.37152 0.99366 0.03705 0.0
H2040 H 0.32963 0.97366 0.98822 0.0
H2041 H 0.35615 0.97235 1.00735 0.0
H2042 H 0.25098 0.99963 0.09786 0.0
H2043 H 0.27757 1.0013 0.11687 0.0
H2044 H 0.23941 0.01372 0.06415 0.0
H2045 H 0.24366 1.00586 0.02988 0.0
C2046 C 0.313 0.97145 0.29827 0.0
C2047 C 0.33958 0.9684 0.2868 0.0
C2048 C 0.35163 0.97994 0.33374 0.0
C2049 C 0.32522 0.98785 0.3436 0.0
N2050 N 0.28017 0.986 0.33418 0.0
N2051 N 0.38468 0.96917 0.29611 0.0
C2052 C 0.30593 0.98219 0.32539 0.0
C2053 C 0.35896 0.97246 0.30536 0.0
N2054 N 0.29414 0.96207 0.28392 0.0
N2055 N 0.36967 0.97792 0.35173 0.0
H2056 H 0.39106 0.96432 0.2763 0.0
H2057 H 0.40017 0.97204 0.3076 0.0
H2058 H 0.36476 0.97969 0.37216 0.0
H2059 H 0.38865 0.97102 0.34688 0.0
H2060 H 0.27486 0.96111 0.29145 0.0
H2061 H 0.29828 0.95264 0.26538 0.0
H2062 H 0.26547 0.98753 0.32147 0.0
H2063 H 0.2734 0.98675 0.3542 0.0
C2064 C 0.49037 0.20789 0.05294 0.0
C2065 C 0.48281 0.22022 0.032 0.0
C2066 C 0.53033 0.22197 0.01778 0.0
C2067 C 0.53756 0.21238 0.04106 0.0
N2068 N 0.52292 0.19933 0.08282 0.0
N2069 N 0.49702 0.22868 0.98772 0.0
C2070 C 0.51712 0.20595 0.05894 0.0
C2071 C 0.5032 0.22459 0.01252 0.0
N2072 N 0.47221 0.19587 0.06547 0.0
N2073 N 0.54939 0.22867 1.00044 0.0
H2074 H 0.47851 0.22671 0.98142 0.0
H2075 H 0.51076 0.23035 0.97192 0.0
H2076 H 0.56915 0.22442 1.00118 0.0
H2077 H 0.54572 0.23918 0.98579 0.0
H2078 H 0.47707 0.18392 0.07821 0.0
H2079 H 0.45332 0.19519 0.05958 0.0
H2080 H 0.50872 0.19675 0.09791 0.0
H2081 H 0.54185 0.19885 0.0885 0.0
C2082 C 0.06109 0.20268 0.97222 0.0
C2083 C 0.03778 0.21466 0.98428 0.0
C2084 C 0.06285 0.24124 0.01058 0.0
C2085 C 0.0861 0.2307 0.99677 0.0
N2086 N 0.10809 0.20294 0.9628 0.0
N2087 N 0.01617 0.24773 0.01091 0.0
C2088 C 0.08548 0.21177 0.97712 0.0
C2089 C 0.03855 0.23455 1.00245 0.0
N2090 N 0.05983 0.1825 0.95655 0.0
N2091 N 0.06401 0.25756 0.03166 0.0
H2092 H 0.99785 0.24366 1.00522 0.0
H2093 H 0.016 0.26381 0.02163 0.0
H2094 H 0.0815 0.26334 0.03795 0.0
H2095 H 0.04777 0.26397 0.04438 0.0
H2096 H 0.07611 0.17183 0.94917 0.0
H2097 H 0.04221 0.17558 0.95239 0.0
H2098 H 0.10872 0.19082 0.94623 0.0
H2099 H 0.12634 0.20876 0.96659 0.0
C2100 C 0.98237 0.87985 0.14256 0.0
C2101 C 0.96093 0.86943 0.15462 0.0
C2102 C 0.94024 0.90766 0.17045 0.0
C2103 C 0.96164 0.91829 0.15805 0.0
N2104 N 0.00739 0.91327 0.14216 0.0
N2105 N 0.91722 0.87321 0.17576 0.0
C2106 C 0.98391 0.90409 0.1467 0.0
C2107 C 0.93925 0.88333 0.16737 0.0
N2108 N 1.001 0.86661 0.1263 0.0
N2109 N 0.92206 0.92075 0.18745 0.0
H2110 H 0.91595 0.85555 0.17401 0.0
H2111 H 0.8995 0.88217 0.18215 0.0
H2112 H 0.92392 0.93802 0.19286 0.0
H2113 H 0.90719 0.91422 0.19899 0.0
H2114 H 0.01548 0.87332 0.11437 0.0
H2115 H 1.00024 0.84897 0.12251 0.0
H2116 H 0.02465 0.90345 0.13612 0.0
H2117 H 0.01068 0.9301 0.14852 0.0
C2118 C 0.61355 0.70043 0.51715 0.0
C2119 C 0.62774 0.70668 0.49416 0.0
C2120 C 0.59091 0.69944 0.46789 0.0
C2121 C 0.57665 0.69315 0.49085 0.0
N2122 N 0.57667 0.68108 0.53476 0.0
N2123 N 0.63345 0.70497 0.44632 0.0
C2124 C 0.58878 0.69144 0.51468 0.0
C2125 C 0.61757 0.70374 0.46903 0.0
N2126 N 0.62309 0.70411 0.54148 0.0
N2127 N 0.5787 0.70276 0.4456 0.0
H2128 H 0.65316 0.70818 0.44656 0.0
H2129 H 0.62777 0.70029 0.42737 0.0
H2130 H 0.55897 0.70036 0.44413 0.0
H2131 H 0.58766 0.70978 0.42944 0.0
H2132 H 0.61222 0.70231 0.55932 0.0
H2133 H 0.64131 0.71048 0.54406 0.0
H2134 H 0.5856 0.67744 0.55162 0.0
H2135 H 0.55858 0.67409 0.53332 0.0
C2136 C 0.03625 0.71673 0.47929 0.0
C2137 C 0.01541 0.70193 0.48051 0.0
C2138 C 0.04752 0.6708 0.48832 0.0
C2139 C 0.06819 0.68612 0.48883 0.0
N2140 N 0.07886 0.72611 0.49101 0.0
N2141 N 1.00062 0.6657 0.49064 0.0
C2142 C 0.06162 0.70965 0.48587 0.0
C2143 C 0.02091 0.67924 0.48647 0.0
N2144 N 0.03198 0.7381 0.47193 0.0
N2145 N 0.05325 0.64794 0.48809 0.0
H2146 H 0.98138 0.67101 0.48839 0.0
H2147 H 1.00257 0.65005 0.49821 0.0
H2148 H 0.07206 0.6409 0.48874 0.0
H2149 H 0.03971 0.63569 0.48486 0.0
H2150 H 0.04695 0.74793 0.4654 0.0
H2151 H 0.01353 0.74569 0.47108 0.0
H2152 H 0.07353 0.74352 0.49325 0.0
H2153 H 0.09763 0.72335 0.49631 0.0
C2154 C 0.05897 0.36929 0.16563 0.0
C2155 C 0.03484 0.36 0.17324 0.0
C2156 C 0.01193 0.39388 0.15802 0.0
C2157 C 0.03618 0.4041 0.15339 0.0
N2158 N 0.08075 0.39399 0.13678 0.0
N2159 N 0.98857 0.36071 0.16947 0.0
C2160 C 0.05921 0.38963 0.15248 0.0
C2161 C 0.01131 0.37161 0.16742 0.0
N2162 N 0.08185 0.35932 0.17174 0.0
N2163 N 0.98967 0.40478 0.1517 0.0
H2164 H 0.98773 0.34408 0.17446 0.0
H2165 H 0.97066 0.36723 0.16471 0.0
H2166 H 0.99002 0.4181 0.13978 0.0
H2167 H 0.97089 0.40035 0.1572 0.0
H2168 H 0.09972 0.36655 0.16862 0.0
H2169 H 0.08267 0.3451 0.18225 0.0
H2170 H 0.09734 0.38284 0.13327 0.0
H2171 H 0.08062 0.40715 0.12461 0.0
C2172 C 0.53147 0.88909 0.71319 0.0
C2173 C 0.55488 0.89335 0.69756 0.0
C2174 C 0.5717 0.85382 0.70217 0.0
C2175 C 0.54816 0.84968 0.71714 0.0
N2176 N 0.50406 0.86334 0.73376 0.0
N2177 N 0.5937 0.87666 0.67107 0.0
C2178 C 0.52768 0.86705 0.7213 0.0
C2179 C 0.57405 0.87483 0.69043 0.0
N2180 N 0.51282 0.90619 0.72183 0.0
N2181 N 0.59216 0.83784 0.69964 0.0
H2182 H 0.59523 0.89088 0.66066 0.0
H2183 H 0.60681 0.86316 0.66316 0.0
H2184 H 0.59107 0.82232 0.70763 0.0
H2185 H 0.61082 0.84069 0.69161 0.0
H2186 H 0.49557 0.90344 0.73305 0.0
H2187 H 0.51487 0.92332 0.71993 0.0
H2188 H 0.49908 0.84782 0.74026 0.0
H2189 H 0.49908 0.84782 0.74026 0.0
C2190 C 0.01798 0.37988 0.80527 0.0
C2191 C 0.03564 0.37098 0.82271 0.0
C2192 C 0.04144 0.41155 0.84034 0.0
C2193 C 0.02219 0.41973 0.8245 0.0
N2194 N 0.98641 0.41036 0.79902 0.0
N2195 N 0.06269 0.37972 0.85876 0.0
C2196 C 0.00883 0.40345 0.80916 0.0
C2197 C 0.04664 0.38727 0.84102 0.0
N2198 N 0.01012 0.36638 0.78421 0.0
N2199 N 0.05552 0.42703 0.85409 0.0
H2200 H 0.06987 0.36283 0.85789 0.0
H2201 H 0.06828 0.39011 0.87495 0.0
H2202 H 0.05174 0.4446 0.85461 0.0
H2203 H 0.07187 0.42259 0.86359 0.0
H2204 H 1.00001 0.37295 0.76947 0.0
H2205 H 0.01543 0.3492 0.7795 0.0
H2206 H 0.97427 0.39911 0.78964 0.0
H2207 H 0.97826 0.42701 0.8032 0.0
C2208 C 0.20394 0.22527 0.48657 0.0
C2209 C 0.1921 0.24792 0.48668 0.0
C2210 C 0.2326 0.26263 0.50605 0.0
C2211 C 0.2447 0.24008 0.50479 0.0
N2212 N 0.24019 0.19981 0.49642 0.0
N2213 N 0.19398 0.28773 0.502 0.0
C2214 C 0.22957 0.22149 0.49604 0.0
C2215 C 0.20627 0.26639 0.498 0.0
N2216 N 0.19077 0.20707 0.47722 0.0
N2217 N 0.24666 0.2807 0.51414 0.0
H2218 H 0.17465 0.29088 0.49814 0.0
H2219 H 0.20172 0.30212 0.51116 0.0
H2220 H 0.26526 0.27878 0.52043 0.0
H2221 H 0.24073 0.29772 0.51367 0.0
H2222 H 0.19578 0.19011 0.47915 0.0
H2223 H 0.17423 0.20868 0.46725 0.0
H2224 H 0.23297 0.18504 0.48759 0.0
H2225 H 0.25681 0.19634 0.50604 0.0
C2226 C 0.55025 0.36628 0.28789 0.0
C2227 C 0.52573 0.35746 0.28322 0.0
C2228 C 0.50687 0.39734 0.29371 0.0
C2229 C 0.53242 0.40579 0.29325 0.0
N2230 N 0.57876 0.39674 0.28366 0.0
N2231 N 0.47981 0.36587 0.28113 0.0
C2232 C 0.55407 0.38976 0.28777 0.0
C2233 C 0.50375 0.37346 0.28569 0.0
N2234 N 0.56973 0.35316 0.29568 0.0
N2235 N 0.48575 0.41164 0.30331 0.0
H2236 H 0.47676 0.34858 0.27684 0.0
H2237 H 0.46343 0.37678 0.28029 0.0
H2238 H 0.48733 0.42878 0.31 0.0
H2239 H 0.46709 0.40601 0.3069 0.0
H2240 H 0.56661 0.33707 0.30138 0.0
H2241 H 0.56661 0.33707 0.30138 0.0
H2242 H 0.59499 0.38513 0.28008 0.0
H2243 H 0.58261 0.4137 0.28177 0.0
C2244 C 0.22769 0.84178 0.05409 0.0
C2245 C 0.24081 0.83365 0.0288 0.0
C2246 C 0.19865 0.82537 0.01166 0.0
C2247 C 0.18536 0.83612 0.03575 0.0
N2248 N 0.18726 0.84533 0.08291 0.0
N2249 N 0.23905 0.81791 0.98316 0.0
C2250 C 0.19985 0.84165 0.05797 0.0
C2251 C 0.22634 0.82531 1.00757 0.0
N2252 N 0.24178 0.85048 0.07406 0.0
N2253 N 0.18473 0.81365 0.99348 0.0
H2254 H 0.25932 0.81639 0.9796 0.0
H2255 H 0.22958 0.81458 0.96595 0.0
H2256 H 0.16478 0.81169 0.99709 0.0
H2257 H 0.19315 0.80359 0.97652 0.0
H2258 H 0.23342 0.85898 0.09204 0.0
H2259 H 0.26209 0.85055 0.07198 0.0
H2260 H 0.19674 0.84748 0.10025 0.0
H2261 H 0.1675 0.84304 0.08653 0.0
C2262 C 0.76958 0.9709 0.39363 0.0
C2263 C 0.782 0.99198 0.39239 0.0
C2264 C 0.78142 0.99465 0.44227 0.0
C2265 C 0.76966 0.97327 0.44267 0.0
N2266 N 0.76511 0.93741 0.41676 0.0
N2267 N 0.80448 0.02138 0.41643 0.0
C2268 C 0.76777 0.9604 0.4177 0.0
C2269 C 0.78965 1.00293 0.41699 0.0
N2270 N 0.75965 0.96011 0.37184 0.0
N2271 N 0.7842 0.00744 0.46578 0.0
H2272 H 0.80973 0.02853 0.39901 0.0
H2273 H 0.81314 0.02859 0.4329 0.0
H2274 H 0.78036 1.0014 0.48416 0.0
H2275 H 0.78949 0.02427 0.4671 0.0
H2276 H 0.74672 0.9472 0.37329 0.0
H2277 H 0.76364 0.9638 0.35247 0.0
H2278 H 0.76446 0.92678 0.39911 0.0
H2279 H 0.7667 0.92858 0.43338 0.0
C2280 C 0.76154 0.07178 0.16407 0.0
C2281 C 0.76728 0.04925 0.17018 0.0
C2282 C 0.7781 0.03718 0.12219 0.0
C2283 C 0.76943 0.05917 0.11558 0.0
N2284 N 0.74646 0.09548 0.13172 0.0
N2285 N 0.77693 0.00956 0.15439 0.0
C2286 C 0.75957 0.07602 0.13696 0.0
C2287 C 0.7741 0.03169 0.149 0.0
N2288 N 0.75775 0.08926 0.1842 0.0
N2289 N 0.79215 0.02195 0.10346 0.0
H2290 H 0.77559 1.00485 0.17368 0.0
H2291 H 0.77854 0.99572 0.13964 0.0
H2292 H 0.7981 0.02557 0.08436 0.0
H2293 H 0.8012 0.00682 0.10792 0.0
H2294 H 0.7566 0.10638 0.18086 0.0
H2295 H 0.75792 0.08674 0.20424 0.0
H2296 H 0.73688 0.10733 0.14649 0.0
H2297 H 0.74205 0.0984 0.11274 0.0
C2298 C 0.70485 0.07253 0.84322 0.0
C2299 C 0.68118 0.08627 0.84338 0.0
C2300 C 0.67716 0.08755 0.89309 0.0
C2301 C 0.70289 0.07708 0.89288 0.0
N2302 N 0.74135 0.05986 0.86665 0.0
N2303 N 0.64484 0.10722 0.86949 0.0
C2304 C 0.71667 0.06971 0.86758 0.0
C2305 C 0.66719 0.0936 0.86865 0.0
N2306 N 0.7153 0.06081 0.81971 0.0
N2307 N 0.66202 0.09155 0.91672 0.0
H2308 H 0.637 0.11184 0.85242 0.0
H2309 H 0.63474 0.11498 0.88701 0.0
H2310 H 0.6689 0.08845 0.93483 0.0
H2311 H 0.6422 0.09642 0.91823 0.0
H2312 H 0.73084 0.04863 0.81827 0.0
H2313 H 0.70645 0.0612 0.802 0.0
H2314 H 0.75383 0.05681 0.84925 0.0
H2315 H 0.75003 0.05596 0.88359 0.0
C2316 C 0.74448 0.03047 0.57802 0.0
C2317 C 0.72619 0.01454 0.56971 0.0
C2318 C 0.69846 0.02555 0.61164 0.0
C2319 C 0.71676 0.04125 0.61981 0.0
N2320 N 0.7548 0.06179 0.60997 0.0
N2321 N 0.6824 1.00073 0.57694 0.0
C2322 C 0.73907 0.04467 0.60268 0.0
C2323 C 0.70207 0.01342 0.58577 0.0
N2324 N 0.7671 0.03187 0.5623 0.0
N2325 N 0.67838 0.02096 0.62939 0.0
H2326 H 0.68395 0.98856 0.56055 0.0
H2327 H 0.66325 1.00311 0.58559 0.0
H2328 H 0.6746 0.02965 0.64844 0.0
H2329 H 0.6666 0.00732 0.62617 0.0
H2330 H 0.78284 0.04077 0.56841 0.0
H2331 H 0.77045 0.02353 0.54301 0.0
H2332 H 0.77017 0.06672 0.59767 0.0
H2333 H 0.75136 0.07229 0.62796 0.0
C2334 C 0.4842 0.81037 0.9851 0.0
C2335 C 0.4761 0.83395 0.99059 0.0
C2336 C 0.52127 0.84095 1.00193 0.0
C2337 C 0.52738 0.81703 1.00113 0.0
N2338 N 0.5118 0.77905 0.9961 0.0
N2339 N 0.48756 0.87201 1.00516 0.0
C2340 C 0.50802 0.80182 0.99386 0.0
C2341 C 0.49494 0.84941 0.99899 0.0
N2342 N 0.46961 0.79609 0.97028 0.0
N2343 N 0.54069 0.85559 1.00511 0.0
H2344 H 0.46894 0.87874 1.00275 0.0
H2345 H 0.4994 0.8838 0.01407 0.0
H2346 H 0.55973 0.84996 1.00774 0.0
H2347 H 0.53841 0.87293 1.00309 0.0
H2348 H 0.47575 0.77921 0.96356 0.0
H2349 H 0.45318 0.80192 0.96172 0.0
H2350 H 0.49718 0.76765 0.99375 0.0
H2351 H 0.52847 0.77192 1.00304 0.0
C2352 C 0.92243 0.85639 1.00341 0.0
C2353 C 0.91476 0.83364 1.00009 0.0
C2354 C 0.95961 0.81957 0.98518 0.0
C2355 C 0.96797 0.84161 0.99227 0.0
N2356 N 0.9582 0.88155 1.00648 0.0
N2357 N 0.92382 0.79752 0.97307 0.0
C2358 C 0.94955 0.86035 1.00033 0.0
C2359 C 0.9327 0.81628 0.98673 0.0
N2360 N 0.90396 0.87405 1.00878 0.0
N2361 N 0.9774 0.80159 0.97736 0.0
H2362 H 0.90438 0.7966 0.96965 0.0
H2363 H 0.93586 0.78499 0.9613 0.0
H2364 H 0.99735 0.80343 0.97368 0.0
H2365 H 0.97247 0.78464 0.97597 0.0
H2366 H 0.90797 0.89116 0.00921 0.0
H2367 H 0.88416 0.8715 0.0113 0.0
H2368 H 0.94644 0.89548 0.01575 0.0
H2369 H 0.97773 0.88493 1.00302 0.0
C2370 C 0.03498 0.12333 0.78978 0.0
C2371 C 0.05913 0.1097 0.7833 0.0
C2372 C 0.08198 0.1455 0.77985 0.0
C2373 C 0.05826 0.15892 0.7868 0.0
N2374 N 0.01246 0.16106 0.80046 0.0
N2375 N 0.10299 0.10881 0.76206 0.0
C2376 C 0.03481 0.14787 0.79191 0.0
C2377 C 0.08192 0.12111 0.77569 0.0
N2378 N 0.01189 0.11316 0.79342 0.0
N2379 N 0.10493 0.15605 0.77786 0.0
H2380 H 0.10276 0.09155 0.75532 0.0
H2381 H 0.1193 0.11621 0.75396 0.0
H2382 H 0.10581 0.17376 0.77986 0.0
H2383 H 0.12315 0.1473 0.77647 0.0
H2384 H 0.99367 0.12164 0.7937 0.0
H2385 H 0.01008 0.09602 0.79517 0.0
H2386 H 0.99528 0.15491 0.80835 0.0
H2387 H 0.01144 0.17879 0.80133 0.0
C2388 C 0.47502 0.27809 0.48015 0.0
C2389 C 0.45183 0.29219 0.48703 0.0
C2390 C 0.47731 0.32406 0.50257 0.0
C2391 C 0.50019 0.30927 0.49778 0.0
N2392 N 0.52043 0.27122 0.48717 0.0
N2393 N 0.42995 0.32742 0.50806 0.0
C2394 C 0.49895 0.28599 0.48799 0.0
C2395 C 0.45266 0.31493 0.49909 0.0
N2396 N 0.47421 0.25728 0.46561 0.0
N2397 N 0.47925 0.3468 0.51002 0.0
H2398 H 0.41159 0.32132 0.50549 0.0
H2399 H 0.42923 0.34313 0.51966 0.0
H2400 H 0.497 0.3539 0.51319 0.0
H2401 H 0.46362 0.35888 0.51125 0.0
H2402 H 0.49084 0.2473 0.45764 0.0
H2403 H 0.45699 0.25086 0.45937 0.0
H2404 H 0.5198 0.25359 0.4833 0.0
H2405 H 0.53849 0.27629 0.49265 0.0
C2406 C 1.00355 0.29458 0.46619 0.0
C2407 C 0.99455 0.30246 0.44246 0.0
C2408 C 0.04121 0.30788 0.42851 0.0
C2409 C 0.0502 0.29543 0.44859 0.0
N2410 N 0.03954 0.28003 0.4894 0.0
N2411 N 0.00749 0.31364 0.39901 0.0
C2412 C 0.03107 0.29009 0.46844 0.0
C2413 C 0.01415 0.3086 0.42325 0.0
N2414 N 0.98603 0.29187 0.48711 0.0
N2415 N 0.05847 0.32023 0.41535 0.0
H2416 H 0.98872 0.31223 0.39321 0.0
H2417 H 0.02125 0.31658 0.38367 0.0
H2418 H 0.07732 0.32146 0.42119 0.0
H2419 H 0.05286 0.33163 0.40224 0.0
H2420 H 0.99126 0.2891 0.50593 0.0
H2421 H 0.96605 0.29387 0.48646 0.0
H2422 H 0.02757 0.27215 0.50275 0.0
H2423 H 0.05922 0.2794 0.49287 0.0
C2424 C 0.96177 0.64093 0.79495 0.0
C2425 C 0.98269 0.62378 0.78913 0.0
C2426 C 0.00833 0.65226 0.7675 0.0
C2427 C 0.98593 0.66744 0.76882 0.0
N2428 N 0.94017 0.67528 0.78236 0.0
N2429 N 0.02501 0.61324 0.76422 0.0
C2430 C 0.96233 0.66153 0.78223 0.0
C2431 C 1.00589 0.62955 0.77422 0.0
N2432 N 0.94196 0.63823 0.81374 0.0
N2433 N 0.03235 0.65961 0.76027 0.0
H2434 H 0.02424 0.59599 0.76603 0.0
H2435 H 0.04043 0.61641 0.75073 0.0
H2436 H 0.03517 0.67613 0.75556 0.0
H2437 H 0.04967 0.65016 0.76188 0.0
H2438 H 0.92736 0.65088 0.82046 0.0
H2439 H 0.94192 0.62452 0.82502 0.0
H2440 H 0.92178 0.67073 0.78934 0.0
H2441 H 0.93979 0.69028 0.77322 0.0
C2442 C 0.52909 0.14315 0.30388 0.0
C2443 C 0.50677 0.15826 0.31189 0.0
C2444 C 0.48956 0.12903 0.33977 0.0
C2445 C 0.512 0.1138 0.33125 0.0
N2446 N 0.55774 0.11322 0.31635 0.0
N2447 N 0.46695 0.16665 0.34023 0.0
C2448 C 0.53306 0.12273 0.31638 0.0
C2449 C 0.48735 0.15145 0.3307 0.0
N2450 N 0.54691 0.14824 0.28425 0.0
N2451 N 0.47061 0.1223 0.35721 0.0
H2452 H 0.46422 0.18248 0.33317 0.0
H2453 H 0.45324 0.16421 0.35575 0.0
H2454 H 0.47363 0.10848 0.36798 0.0
H2455 H 0.45212 0.13045 0.36142 0.0
H2456 H 0.56186 0.13659 0.27553 0.0
H2457 H 0.54558 0.16324 0.27521 0.0
H2458 H 0.57412 0.12034 0.30794 0.0
H2459 H 0.56239 0.1006 0.32829 0.0
C2460 C 0.49034 0.13339 0.68319 0.0
C2461 C 0.49768 0.14425 0.66005 0.0
C2462 C 0.51792 0.10642 0.63896 0.0
C2463 C 0.51304 0.09656 0.66323 0.0
N2464 N 0.49631 0.10155 0.7093 0.0
N2465 N 0.50991 0.13777 0.6126 0.0
C2466 C 0.49969 0.11035 0.68548 0.0
C2467 C 0.50917 0.12983 0.63696 0.0
N2468 N 0.47222 0.14436 0.70211 0.0
N2469 N 0.53153 0.09341 0.61785 0.0
H2470 H 0.50058 0.15308 0.60937 0.0
H2471 H 0.51662 0.12812 0.59475 0.0
H2472 H 0.5373 0.07628 0.61834 0.0
H2473 H 0.53874 0.09971 0.60048 0.0
H2474 H 0.46412 0.13687 0.7183 0.0
H2475 H 0.46238 0.15975 0.69968 0.0
H2476 H 0.49012 0.11142 0.72719 0.0
H2477 H 0.5018 0.08468 0.71166 0.0
C2478 C 0.30891 0.29428 0.99293 0.0
C2479 C 0.29507 0.27566 0.98238 0.0
C2480 C 0.33431 0.24998 0.98818 0.0
C2481 C 0.34768 0.2686 1.00038 0.0
N2482 N 0.34593 0.31012 0.0112 0.0
N2483 N 0.29593 0.23581 0.96725 0.0
C2484 C 0.33475 0.291 1.00141 0.0
C2485 C 0.30829 0.25351 0.97929 0.0
N2486 N 0.2971 0.31575 0.99566 0.0
N2487 N 0.34687 0.22877 0.98462 0.0
H2488 H 0.27764 0.23808 0.96016 0.0
H2489 H 0.30364 0.21908 0.96326 0.0
H2490 H 0.36642 0.22604 0.98793 0.0
H2491 H 0.33858 0.21382 0.9779 0.0
H2492 H 0.30613 0.33019 1.00315 0.0
H2493 H 0.2783 0.31908 0.9903 0.0
H2494 H 0.36427 0.31052 0.01829 0.0
H2495 H 0.36427 0.31052 0.01829 0.0
C2496 C 0.01106 0.15548 0.17695 0.0
C2497 C 0.02052 0.16205 0.20223 0.0
C2498 C 0.01341 0.12332 0.21459 0.0
C2499 C 1.00304 0.11698 0.18996 0.0
N2500 N 0.99814 0.12519 0.14508 0.0
N2501 N 0.04166 0.14813 0.23849 0.0
C2502 C 1.00344 0.13263 0.17045 0.0
C2503 C 0.02506 0.14469 0.21902 0.0
N2504 N 0.0101 0.17069 0.15857 0.0
N2505 N 0.01141 0.10924 0.23427 0.0
H2506 H 0.05244 0.16257 0.2407 0.0
H2507 H 0.04736 0.13547 0.24999 0.0
H2508 H 1.00242 0.0938 0.23214 0.0
H2509 H 0.01639 0.11388 0.25351 0.0
H2510 H 0.99886 0.16884 0.14244 0.0
H2511 H 0.02137 0.18478 0.15873 0.0
H2512 H 1.00068 0.13466 0.12901 0.0
H2513 H 0.99319 0.10861 0.13933 0.0
C2514 C 0.33986 0.6744 0.47353 0.0
C2515 C 0.35625 0.67733 0.45006 0.0
C2516 C 0.31602 0.68203 0.42712 0.0
C2517 C 0.30058 0.68252 0.45173 0.0
N2518 N 0.29899 0.68526 0.49962 0.0
N2519 N 0.35813 0.68846 0.40515 0.0
C2520 C 0.31292 0.68081 0.47528 0.0
C2521 C 0.34388 0.6823 0.42688 0.0
N2522 N 0.34922 0.66379 0.49366 0.0
N2523 N 0.30416 0.68107 0.40397 0.0
H2524 H 0.37806 0.69057 0.40436 0.0
H2525 H 0.34965 0.69405 0.38887 0.0
H2526 H 0.28393 0.68132 0.40365 0.0
H2527 H 0.31444 0.67808 0.38522 0.0
H2528 H 0.33734 0.65955 0.50985 0.0
H2529 H 0.36769 0.65595 0.49229 0.0
H2530 H 0.30787 0.68649 0.51742 0.0
H2531 H 0.27909 0.69003 0.50204 0.0
C2532 C 0.78278 0.54715 0.05948 0.0
C2533 C 0.77149 0.53677 0.03686 0.0
C2534 C 0.75015 0.51083 0.06696 0.0
C2535 C 0.76012 0.52247 0.08988 0.0
N2536 N 0.77845 0.55727 0.10697 0.0
N2537 N 0.74047 0.51098 0.02054 0.0
C2538 C 0.77423 0.5422 0.08574 0.0
C2539 C 0.75387 0.51936 0.04119 0.0
N2540 N 0.80286 0.56106 0.0562 0.0
N2541 N 0.73834 0.49087 0.06923 0.0
H2542 H 0.74292 0.51668 1.00175 0.0
H2543 H 0.72534 0.50011 0.02265 0.0
H2544 H 0.73578 0.4837 0.08706 0.0
H2545 H 0.73315 0.48032 0.05297 0.0
H2546 H 0.81399 0.56659 0.07162 0.0
H2547 H 0.80977 0.56569 0.03785 0.0
H2548 H 0.78612 0.57307 0.10504 0.0
H2549 H 0.77098 0.55538 0.12613 0.0
C2550 C 0.79245 0.47482 0.33168 0.0
C2551 C 0.7761 0.46379 0.31371 0.0
C2552 C 0.76528 0.43753 0.34706 0.0
C2553 C 0.77675 0.45143 0.36714 0.0
N2554 N 0.80546 0.48183 0.37655 0.0
N2555 N 0.7437 0.43634 0.30638 0.0
C2556 C 0.79139 0.46979 0.35885 0.0
C2557 C 0.76155 0.44569 0.32207 0.0
N2558 N 0.81028 0.48909 0.32234 0.0
N2559 N 0.76012 0.41562 0.35045 0.0
H2560 H 0.74006 0.44196 0.28815 0.0
H2561 H 0.73082 0.42459 0.31283 0.0
H2562 H 0.766 0.40766 0.36639 0.0
H2563 H 0.75416 0.40429 0.33524 0.0
H2564 H 0.82485 0.49574 0.33334 0.0
H2565 H 0.8121 0.49274 0.30263 0.0
H2566 H 0.81258 0.49762 0.37352 0.0
H2567 H 0.81043 0.47584 0.39415 0.0
C2568 C 0.83603 0.44369 0.64212 0.0
C2569 C 0.85919 0.42919 0.64232 0.0
C2570 C 0.86024 0.42244 0.59268 0.0
C2571 C 0.83678 0.43639 0.59258 0.0
N2572 N 0.80571 0.4642 0.61713 0.0
N2573 N 0.89706 0.41072 0.6163 0.0
C2574 C 0.82567 0.44806 0.61736 0.0
C2575 C 0.8724 0.42043 0.61714 0.0
N2576 N 0.82407 0.45382 0.66582 0.0
N2577 N 0.87053 0.41024 0.56941 0.0
H2578 H 0.90641 0.40857 0.63336 0.0
H2579 H 0.90922 0.40717 0.59873 0.0
H2580 H 0.86256 0.41146 0.55133 0.0
H2581 H 0.8857 0.39773 0.56834 0.0
H2582 H 0.80526 0.46149 0.66807 0.0
H2583 H 0.833 0.45443 0.68356 0.0
H2584 H 0.79837 0.47535 0.63365 0.0
H2585 H 0.7976 0.46772 0.59974 0.0
C2586 C 0.80118 0.48323 0.91064 0.0
C2587 C 0.79253 0.50642 0.91201 0.0
C2588 C 0.79951 0.50497 0.86345 0.0
C2589 C 0.80999 0.48219 0.86217 0.0
N2590 N 0.82136 0.44925 0.88398 0.0
N2591 N 0.77266 0.53573 0.88882 0.0
C2592 C 0.81061 0.47105 0.88559 0.0
C2593 C 0.78833 0.51625 0.88818 0.0
N2594 N 0.79852 0.47258 0.93319 0.0
N2595 N 0.80145 0.51629 0.84127 0.0
H2596 H 0.76252 0.54394 0.90606 0.0
H2597 H 0.76704 0.54227 0.87175 0.0
H2598 H 0.80946 0.50867 0.82266 0.0
H2599 H 0.79733 0.53381 0.84182 0.0
H2600 H 0.80039 0.45495 0.9331 0.0
H2601 H 0.79136 0.4813 0.95159 0.0
H2602 H 0.8253 0.4411 0.90052 0.0
H2603 H 0.82775 0.43964 0.86592 0.0
C2604 C 0.46021 0.38936 0.68699 0.0
C2605 C 0.47526 0.40494 0.70222 0.0
C2606 C 0.49749 0.37066 0.71748 0.0
C2607 C 0.48128 0.35578 0.70333 0.0
N2608 N 0.44261 0.35209 0.68021 0.0
N2609 N 0.50354 0.40904 0.73782 0.0
C2610 C 0.46134 0.36553 0.68985 0.0
C2611 C 0.49268 0.39513 0.71905 0.0
N2612 N 0.44555 0.3968 0.66838 0.0
N2613 N 0.51791 0.36145 0.72909 0.0
H2614 H 0.49918 0.42659 0.74103 0.0
H2615 H 0.51434 0.40295 0.75231 0.0
H2616 H 0.52162 0.34388 0.72871 0.0
H2617 H 0.53224 0.37113 0.73717 0.0
H2618 H 0.43845 0.38595 0.65344 0.0
H2619 H 0.44221 0.41374 0.66677 0.0
H2620 H 0.42572 0.35863 0.67307 0.0
H2621 H 0.44249 0.33463 0.68176 0.0
C2622 C 0.57862 0.86983 0.34847 0.0
C2623 C 0.55648 0.85766 0.3564 0.0
C2624 C 0.5315 0.89575 0.3659 0.0
C2625 C 0.55213 0.90698 0.35382 0.0
N2626 N 0.59574 0.90422 0.33246 0.0
N2627 N 0.51027 0.86111 0.36985 0.0
C2628 C 0.57586 0.89386 0.34493 0.0
C2629 C 0.53265 0.87133 0.36459 0.0
N2630 N 0.60272 0.85864 0.34539 0.0
N2631 N 0.51068 0.90847 0.37947 0.0
H2632 H 0.51085 0.84427 0.37242 0.0
H2633 H 0.4917 0.86928 0.37107 0.0
H2634 H 0.50901 0.92626 0.38089 0.0
H2635 H 0.49645 0.90155 0.39151 0.0
H2636 H 0.61999 0.86677 0.3423 0.0
H2637 H 0.60565 0.84164 0.34885 0.0
H2638 H 0.61245 0.89537 0.32276 0.0
H2639 H 0.59468 0.9216 0.33026 0.0
C2640 C 0.6876 0.75271 0.07117 0.0
C2641 C 0.70932 0.7643 0.06139 0.0
C2642 C 0.67861 0.79417 0.04905 0.0
C2643 C 0.65735 0.78036 0.05392 0.0
N2644 N 0.6406 0.75335 0.08221 0.0
N2645 N 0.72529 0.79633 0.04041 0.0
C2646 C 0.6615 0.76159 0.06881 0.0
C2647 C 0.70473 0.78534 0.05063 0.0
N2648 N 0.69194 0.7326 0.0816 0.0
N2649 N 0.67366 0.81629 0.0445 0.0
H2650 H 0.7446 0.79095 0.04178 0.0
H2651 H 0.72321 0.80989 0.02905 0.0
H2652 H 0.65471 0.82376 0.04611 0.0
H2653 H 0.68802 0.82795 0.04287 0.0
H2654 H 0.6773 0.72175 0.08608 0.0
H2655 H 0.7106 0.72615 0.08445 0.0
H2656 H 0.64211 0.74076 0.09497 0.0
H2657 H 0.62196 0.76136 0.0834 0.0
C2658 C 0.04365 0.88595 0.75365 0.0
C2659 C 0.03618 0.90272 0.73721 0.0
C2660 C 0.02272 0.87099 0.70535 0.0
C2661 C 0.03354 0.85391 0.72008 0.0
N2662 N 0.0585 0.84711 0.75721 0.0
N2663 N 0.02076 0.91065 0.69553 0.0
C2664 C 0.04495 0.86203 0.744 0.0
C2665 C 0.02635 0.895 0.71252 0.0
N2666 N 0.04886 0.89277 0.77918 0.0
N2667 N 0.00745 0.86458 0.68543 0.0
H2668 H 0.0226 0.92809 0.70026 0.0
H2669 H 0.01639 0.9062 0.67604 0.0
H2670 H 1.00287 0.84777 0.68055 0.0
H2671 H 0.99686 0.87616 0.67576 0.0
H2672 H 0.05103 0.88149 0.79341 0.0
H2673 H 0.04851 0.90987 0.78697 0.0
H2674 H 0.07014 0.85221 0.77234 0.0
H2675 H 0.06036 0.82978 0.75145 0.0
C2676 C 0.73017 0.32159 0.55998 0.0
C2677 C 0.70797 0.31505 0.54658 0.0
C2678 C 0.73926 0.30044 0.5071 0.0
C2679 C 0.76054 0.31057 0.51911 0.0
N2680 N 0.77519 0.33249 0.5572 0.0
N2681 N 0.69254 0.2987 0.50509 0.0
C2682 C 0.75565 0.32148 0.54567 0.0
C2683 C 0.71289 0.30431 0.51964 0.0
N2684 N 0.72725 0.32679 0.58698 0.0
N2685 N 0.74434 0.28639 0.48381 0.0
H2686 H 0.67306 0.30105 0.51231 0.0
H2687 H 0.69475 0.29379 0.48465 0.0
H2688 H 0.76301 0.28327 0.47404 0.0
H2689 H 0.73066 0.27607 0.47553 0.0
H2690 H 0.74294 0.32898 0.59849 0.0
H2691 H 0.70936 0.32648 0.59816 0.0
H2692 H 0.77227 0.3429 0.57525 0.0
H2693 H 0.7939 0.33272 0.54768 0.0
C2694 C 0.28833 0.48592 0.98176 0.0
C2695 C 0.27582 0.50396 0.99996 0.0
C2696 C 0.28533 0.53008 0.96501 0.0
C2697 C 0.29366 0.51124 0.94549 0.0
N2698 N 0.30218 0.47058 0.93611 0.0
N2699 N 0.26338 0.54383 1.00903 0.0
C2700 C 0.29513 0.48904 0.95429 0.0
C2701 C 0.275 0.5263 0.99166 0.0
N2702 N 0.29396 0.46556 0.99106 0.0
N2703 N 0.28713 0.55167 0.95802 0.0
H2704 H 0.25759 0.54169 0.02879 0.0
H2705 H 0.25892 0.56008 1.00388 0.0
H2706 H 0.29407 0.55484 0.93892 0.0
H2707 H 0.28366 0.56633 0.97145 0.0
H2708 H 0.30518 0.45206 0.98004 0.0
H2709 H 0.28966 0.46322 0.01102 0.0
H2710 H 0.30044 0.45375 0.94005 0.0
H2711 H 0.30835 0.47218 0.91645 0.0
C2712 C 0.27886 0.59289 0.72015 0.0
C2713 C 0.28741 0.57294 0.73107 0.0
C2714 C 0.31092 0.55877 0.68815 0.0
C2715 C 0.29844 0.57635 0.67549 0.0
N2716 N 0.26929 0.61057 0.68078 0.0
N2717 N 0.30852 0.53512 0.72414 0.0
C2718 C 0.28228 0.59375 0.69186 0.0
C2719 C 0.3025 0.5554 0.71467 0.0
N2720 N 0.2678 0.61115 0.73687 0.0
N2721 N 0.33188 0.54576 0.67541 0.0
H2722 H 0.30344 0.53191 0.74367 0.0
H2723 H 0.31657 0.52075 0.71187 0.0
H2724 H 0.34046 0.54857 0.65691 0.0
H2725 H 0.34305 0.53428 0.68469 0.0
H2726 H 0.26386 0.62715 0.73074 0.0
H2727 H 0.26465 0.61078 0.75741 0.0
H2728 H 0.25482 0.62171 0.69139 0.0
H2729 H 0.27163 0.6129 0.66076 0.0
C2730 C 0.24272 0.54162 0.44761 0.0
C2731 C 0.24667 0.52245 0.46182 0.0
C2732 C 0.23309 0.49746 0.42454 0.0
C2733 C 0.23173 0.51631 0.40956 0.0
N2734 N 0.24333 0.55468 0.40404 0.0
N2735 N 0.25325 0.4814 0.46015 0.0
C2736 C 0.23908 0.53793 0.42022 0.0
C2737 C 0.24403 0.50009 0.44929 0.0
N2738 N 0.2416 0.56327 0.4604 0.0
N2739 N 0.22345 0.47723 0.41554 0.0
H2740 H 0.26297 0.48251 0.47741 0.0
H2741 H 0.25389 0.46492 0.45035 0.0
H2742 H 0.21517 0.47461 0.39747 0.0
H2743 H 0.22165 0.46376 0.42714 0.0
H2744 H 0.23756 0.57775 0.45105 0.0
H2745 H 0.24214 0.56665 0.48095 0.0
H2746 H 0.25128 0.56997 0.41043 0.0
H2747 H 0.24148 0.55228 0.3836 0.0
C2748 C 0.18618 0.55115 0.17948 0.0
C2749 C 0.20055 0.54738 0.2018 0.0
C2750 C 0.23593 0.52769 0.16835 0.0
C2751 C 0.22051 0.52939 0.14603 0.0
N2752 N 0.18508 0.55168 0.13142 0.0
N2753 N 0.23811 0.52838 0.21646 0.0
C2754 C 0.1967 0.54356 0.15205 0.0
C2755 C 0.22514 0.5347 0.19575 0.0
N2756 N 0.16169 0.56149 0.18451 0.0
N2757 N 0.26191 0.52138 0.16361 0.0
H2758 H 0.23168 0.53366 0.23632 0.0
H2759 H 0.25394 0.51642 0.21407 0.0
H2760 H 0.27185 0.51986 0.14477 0.0
H2761 H 0.27464 0.52149 0.1785 0.0
H2762 H 0.14834 0.56208 0.17025 0.0
H2763 H 0.15402 0.56821 0.20359 0.0
H2764 H 0.16909 0.56344 0.13386 0.0
H2765 H 0.19363 0.5493 0.1119 0.0
C2766 C 0.60742 0.63953 0.32298 0.0
C2767 C 0.58429 0.64998 0.31523 0.0
C2768 C 0.56505 0.61224 0.31244 0.0
C2769 C 0.58714 0.60236 0.32317 0.0
N2770 N 0.627 0.60903 0.34405 0.0
N2771 N 0.53907 0.64687 0.30751 0.0
C2772 C 0.60755 0.61676 0.33007 0.0
C2773 C 0.56259 0.63645 0.31115 0.0
N2774 N 0.62972 0.6511 0.32278 0.0
N2775 N 0.54612 0.5987 0.30376 0.0
H2776 H 0.53629 0.66444 0.30704 0.0
H2777 H 0.52178 0.6385 0.30751 0.0
H2778 H 0.54618 0.58133 0.30565 0.0
H2779 H 0.53123 0.60442 0.29299 0.0
H2780 H 0.64792 0.64346 0.32517 0.0
H2781 H 0.63062 0.6676 0.31735 0.0
H2782 H 0.6408 0.61946 0.35192 0.0
H2783 H 0.62787 0.59284 0.35006 0.0
C2784 C 0.08814 0.34801 0.28656 0.0
C2785 C 0.08781 0.37193 0.28825 0.0
C2786 C 0.09832 0.37449 0.33427 0.0
C2787 C 0.10468 0.35068 0.33021 0.0
N2788 N 0.1057 0.31418 0.30312 0.0
N2789 N 0.08671 0.40859 0.31378 0.0
C2790 C 0.09893 0.3371 0.30682 0.0
C2791 C 0.09038 0.3854 0.31252 0.0
N2792 N 0.07916 0.33592 0.26504 0.0
N2793 N 0.10055 0.38641 0.35854 0.0
H2794 H 0.07991 0.41645 0.29797 0.0
H2795 H 0.09037 0.41996 0.32997 0.0
H2796 H 0.10649 0.37859 0.37473 0.0
H2797 H 0.09532 0.4037 0.36323 0.0
H2798 H 0.07688 0.31843 0.26363 0.0
H2799 H 0.07144 0.34385 0.24978 0.0
H2800 H 0.1046 0.30401 0.28522 0.0
H2801 H 0.11424 0.3054 0.31726 0.0
C2802 C 0.98439 0.79284 0.60163 0.0
C2803 C 1.00169 0.77687 0.61135 0.0
C2804 C 1.00336 0.75246 0.56878 0.0
C2805 C 0.98437 0.7674 0.55987 0.0
N2806 N 0.95374 0.80008 0.56922 0.0
N2807 N 0.02399 0.73953 0.60613 0.0
C2808 C 0.97406 0.78718 0.57667 0.0
C2809 C 0.01004 0.75607 0.59549 0.0
N2810 N 0.97811 0.81355 0.61612 0.0
N2811 N 0.01551 0.7351 0.55138 0.0
H2812 H 0.0286 0.74129 0.62582 0.0
H2813 H 0.02875 0.72322 0.59641 0.0
H2814 H 0.01118 0.73217 0.53165 0.0
H2815 H 0.0315 0.72505 0.55563 0.0
H2816 H 0.9681 0.82698 0.60884 0.0
H2817 H 0.98418 0.81769 0.63507 0.0
H2818 H 0.94336 0.81319 0.58175 0.0
H2819 H 0.94611 0.79663 0.55096 0.0
C2820 C 0.47637 0.80181 0.87223 0.0
C2821 C 0.4614 0.78467 0.86031 0.0
C2822 C 0.42229 0.80328 0.88793 0.0
C2823 C 0.43809 0.81817 0.9028 0.0
N2824 N 0.48179 0.82831 0.91108 0.0
N2825 N 0.41969 0.76836 0.85827 0.0
C2826 C 0.46555 0.81676 0.89521 0.0
C2827 C 0.43417 0.78539 0.8684 0.0
N2828 N 0.50126 0.80368 0.86153 0.0
N2829 N 0.39576 0.80655 0.89184 0.0
H2830 H 0.42707 0.75601 0.84287 0.0
H2831 H 0.40081 0.76586 0.86595 0.0
H2832 H 0.38633 0.81937 0.90554 0.0
H2833 H 0.38314 0.79797 0.87984 0.0
H2834 H 0.51267 0.81703 0.86746 0.0
H2835 H 0.50929 0.79314 0.84465 0.0
H2836 H 0.50204 0.82633 0.90802 0.0
H2837 H 0.47532 0.83799 0.92903 0.0
C2838 C 0.56463 0.09502 0.22227 0.0
C2839 C 0.55051 0.09197 0.19932 0.0
C2840 C 0.52529 0.06306 0.21966 0.0
C2841 C 0.53683 0.06845 0.24369 0.0
N2842 N 0.57285 0.08291 0.26551 0.0
N2843 N 0.51912 0.07178 0.17473 0.0
C2844 C 0.55831 0.08236 0.24421 0.0
C2845 C 0.53157 0.07531 0.19747 0.0
N2846 N 0.58305 0.11085 0.22356 0.0
N2847 N 0.50892 0.0456 0.21812 0.0
H2848 H 0.52432 0.07942 0.1576 0.0
H2849 H 0.50315 0.06186 0.17283 0.0
H2850 H 0.50557 0.03575 0.23383 0.0
H2851 H 0.50058 0.0395 0.201 0.0
H2852 H 0.59267 0.11537 0.24038 0.0
H2853 H 0.5881 0.12032 0.20789 0.0
H2854 H 0.59011 0.09119 0.26671 0.0
H2855 H 0.56864 0.07319 0.28117 0.0
C2856 C 0.0602 0.7747 0.06058 0.0
C2857 C 0.04247 0.77093 0.08266 0.0
C2858 C 0.05471 0.80806 0.10529 0.0
C2859 C 0.07434 0.8097 0.08433 0.0
N2860 N 0.10036 0.79091 0.04594 0.0
N2861 N 0.0217 0.78597 0.12581 0.0
C2862 C 0.07862 0.7917 0.06346 0.0
C2863 C 0.03958 0.78812 0.10511 0.0
N2864 N 0.05797 0.76371 0.03584 0.0
N2865 N 0.04992 0.82595 0.12482 0.0
H2866 H 0.00682 0.77495 0.12397 0.0
H2867 H 0.02126 0.79542 0.14439 0.0
H2868 H 0.06105 0.84024 0.12553 0.0
H2869 H 0.03468 0.82711 0.13979 0.0
H2870 H 0.0694 0.76708 0.01892 0.0
H2871 H 0.04201 0.75438 0.03131 0.0
H2872 H 0.10572 0.77698 0.03175 0.0
H2873 H 0.11443 0.80296 0.04762 0.0
C2874 C 0.66131 0.7931 0.42195 0.0
C2875 C 0.67528 0.77237 0.41064 0.0
C2876 C 0.6333 0.75695 0.39952 0.0
C2877 C 0.62074 0.77911 0.40505 0.0
N2878 N 0.62308 0.81881 0.42121 0.0
N2879 N 0.67362 0.73312 0.39263 0.0
C2880 C 0.63467 0.79725 0.41667 0.0
C2881 C 0.66085 0.75384 0.40075 0.0
N2882 N 0.67306 0.80866 0.4381 0.0
N2883 N 0.61857 0.73881 0.39358 0.0
H2884 H 0.69276 0.7295 0.39659 0.0
H2885 H 0.66557 0.71965 0.38186 0.0
H2886 H 0.59829 0.74057 0.39423 0.0
H2887 H 0.62582 0.7219 0.39016 0.0
H2888 H 0.66316 0.82312 0.4486 0.0
H2889 H 0.69165 0.80577 0.44396 0.0
H2890 H 0.63317 0.83321 0.42645 0.0
H2891 H 0.60376 0.82262 0.41783 0.0
C2892 C 0.36059 0.31703 0.60362 0.0
C2893 C 0.36425 0.33504 0.58746 0.0
C2894 C 0.34279 0.31323 0.55178 0.0
C2895 C 0.33894 0.29525 0.56808 0.0
N2896 N 0.33975 0.28221 0.61163 0.0
N2897 N 0.3609 0.34987 0.54543 0.0
C2898 C 0.34649 0.29783 0.59463 0.0
C2899 C 0.35586 0.333 0.56131 0.0
N2900 N 0.37195 0.31772 0.62711 0.0
N2901 N 0.33252 0.31187 0.52767 0.0
H2902 H 0.36933 0.36485 0.5521 0.0
H2903 H 0.35801 0.34883 0.52532 0.0
H2904 H 0.32178 0.2983 0.5208 0.0
H2905 H 0.33269 0.3247 0.51517 0.0
H2906 H 0.37321 0.304 0.63831 0.0
H2907 H 0.38235 0.33139 0.63436 0.0
H2908 H 0.34201 0.28438 0.63192 0.0
H2909 H 0.32961 0.26795 0.60625 0.0
C2910 C 0.01662 0.12095 0.85757 0.0
C2911 C 0.01553 0.09642 0.8552 0.0
C2912 C 0.96808 0.10243 0.87124 0.0
C2913 C 0.9691 0.12663 0.87287 0.0
N2914 N 0.99428 0.15896 0.86667 0.0
N2915 N 0.99132 0.06528 0.86919 0.0
C2916 C 0.99351 0.13577 0.8662 0.0
C2917 C 0.99148 0.08766 0.8646 0.0
N2918 N 0.03973 0.13054 0.85189 0.0
N2919 N 0.94439 0.09327 0.87469 0.0
H2920 H 0.00812 0.05439 0.86686 0.0
H2921 H 0.97539 0.05823 0.87855 0.0
H2922 H 0.92698 0.10316 0.87976 0.0
H2923 H 0.94165 0.07597 0.87033 0.0
H2924 H 0.04333 0.14729 0.85841 0.0
H2925 H 0.05582 0.12217 0.8407 0.0
H2926 H 0.00988 0.16726 0.85864 0.0
H2927 H 0.9785 0.17025 0.87408 0.0
C2928 C 0.38658 0.06545 0.39673 0.0
C2929 C 0.36936 0.05667 0.37792 0.0
C2930 C 0.4065 0.03502 0.35206 0.0
C2931 C 0.42404 0.04545 0.36878 0.0
N2932 N 0.43134 0.0699 0.40785 0.0
N2933 N 0.36609 0.04091 0.33235 0.0
C2934 C 0.41407 0.06015 0.39172 0.0
C2935 C 0.38014 0.04365 0.35402 0.0
N2936 N 0.37686 0.07989 0.41858 0.0
N2937 N 0.41508 0.01696 0.33398 0.0
H2938 H 0.34842 0.05 0.33131 0.0
H2939 H 0.37388 0.03279 0.31392 0.0
H2940 H 0.4336 0.00901 0.33384 0.0
H2941 H 0.40291 0.00861 0.32136 0.0
H2942 H 0.38708 0.08387 0.43513 0.0
H2943 H 0.35866 0.08865 0.41975 0.0
H2944 H 0.42633 0.08271 0.42344 0.0
H2945 H 0.45127 0.06514 0.4051 0.0
C2946 C 0.09852 0.13539 0.58792 0.0
C2947 C 0.12441 0.12651 0.57988 0.0
C2948 C 0.13775 0.16508 0.57607 0.0
C2949 C 0.1112 0.17196 0.57524 0.0
N2950 N 0.07162 0.16995 0.60299 0.0
N2951 N 0.1701 0.13335 0.57125 0.0
C2952 C 0.09284 0.1591 0.58825 0.0
C2953 C 0.14467 0.14155 0.57596 0.0
N2954 N 0.07929 0.12129 0.59405 0.0
N2955 N 0.15556 0.18122 0.57902 0.0
H2956 H 0.17589 0.11625 0.57195 0.0
H2957 H 0.18519 0.1434 0.56558 0.0
H2958 H 0.14974 0.19859 0.58099 0.0
H2959 H 0.17502 0.17747 0.58193 0.0
H2960 H 0.05968 0.12698 0.59745 0.0
H2961 H 0.08279 0.10376 0.59423 0.0
H2962 H 0.0586 0.16162 0.61488 0.0
H2963 H 0.06908 0.18776 0.60525 0.0
C2964 C 0.10806 0.81331 0.78445 0.0
C2965 C 0.13282 0.82187 0.77847 0.0
C2966 C 0.13113 0.80842 0.73106 0.0
C2967 C 0.10593 0.8005 0.73683 0.0
N2968 N 0.07391 0.78942 0.77012 0.0
N2969 N 0.17093 0.82224 0.74766 0.0
C2970 C 0.09575 0.80064 0.76391 0.0
C2971 C 0.14528 0.81773 0.75221 0.0
N2972 N 0.09553 0.81852 0.80938 0.0
N2973 N 0.14143 0.80725 0.70518 0.0
H2974 H 0.18191 0.82895 0.76268 0.0
H2975 H 0.18204 0.81755 0.72963 0.0
H2976 H 0.13309 0.79826 0.68951 0.0
H2977 H 0.15775 0.81568 0.69909 0.0
H2978 H 0.07607 0.8155 0.81418 0.0
H2979 H 0.10401 0.82755 0.82492 0.0
H2980 H 0.0673 0.78704 0.78954 0.0
H2981 H 0.06343 0.78077 0.75603 0.0
C2982 C 0.37593 0.89641 0.07603 0.0
C2983 C 0.39698 0.9043 0.05945 0.0
C2984 C 0.4064 0.9278 0.10254 0.0
C2985 C 0.38881 0.91602 0.11911 0.0
N2986 N 0.3613 0.88411 0.11867 0.0
N2987 N 0.43399 0.92786 0.06069 0.0
C2988 C 0.37533 0.89869 0.10489 0.0
C2989 C 0.41256 0.92026 0.07383 0.0
N2990 N 0.3547 0.88831 0.06457 0.0
N2991 N 0.41758 0.94629 0.11418 0.0
H2992 H 0.43923 0.92335 0.04052 0.0
H2993 H 0.44768 0.93728 0.07028 0.0
H2994 H 0.41422 0.95168 0.13452 0.0
H2995 H 0.42821 0.95729 0.10338 0.0
H2996 H 0.33824 0.88373 0.0757 0.0
H2997 H 0.35168 0.88985 0.04475 0.0
H2998 H 0.35342 0.86983 0.1092 0.0
H2999 H 0.35898 0.88538 0.1394 0.0
C3000 C 0.45312 0.82126 0.34374 0.0
C3001 C 0.47992 0.81798 0.33365 0.0
C3002 C 0.47055 0.84065 0.29672 0.0
C3003 C 0.44389 0.84308 0.30633 0.0
N3004 N 0.41045 0.84054 0.34159 0.0
N3005 N 0.51394 0.82486 0.2997 0.0
C3006 C 0.43539 0.83482 0.33066 0.0
C3007 C 0.4885 0.82782 0.30998 0.0
N3008 N 0.44415 0.81017 0.36469 0.0
N3009 N 0.47906 0.85194 0.27568 0.0
H3010 H 0.52909 0.82043 0.31059 0.0
H3011 H 0.52019 0.82663 0.28001 0.0
H3012 H 0.46661 0.86112 0.26496 0.0
H3013 H 0.49859 0.8539 0.2699 0.0
H3014 H 0.42454 0.80996 0.37142 0.0
H3015 H 0.45595 0.79937 0.37416 0.0
H3016 H 0.40359 0.83759 0.36073 0.0
H3017 H 0.39707 0.85007 0.33224 0.0
C3018 C 0.32482 0.13473 0.50554 0.0
C3019 C 0.31318 0.15424 0.49571 0.0
C3020 C 0.29127 0.12787 0.46446 0.0
C3021 C 0.30611 0.10841 0.4709 0.0
N3022 N 0.32783 0.09346 0.50629 0.0
N3023 N 0.28894 0.16845 0.46154 0.0
C3024 C 0.32058 0.11188 0.49382 0.0
C3025 C 0.29764 0.15047 0.47388 0.0
N3026 N 0.34098 0.13808 0.52544 0.0
N3027 N 0.26895 0.12511 0.45201 0.0
H3028 H 0.29272 0.18521 0.46754 0.0
H3029 H 0.28014 0.1664 0.44373 0.0
H3030 H 0.26007 0.10967 0.44998 0.0
H3031 H 0.25652 0.13874 0.44851 0.0
H3032 H 0.35299 0.12525 0.53143 0.0
H3033 H 0.3438 0.15422 0.53484 0.0
H3034 H 0.33651 0.09457 0.52412 0.0
H3035 H 0.32187 0.07717 0.501 0.0
C3036 C 0.14702 0.01331 0.69544 0.0
C3037 C 0.1677 0.02608 0.68585 0.0
C3038 C 0.16195 0.05063 0.72903 0.0
C3039 C 0.14257 0.0364 0.7394 0.0
N3040 N 0.12856 0.99771 0.73425 0.0
N3041 N 0.19944 0.05291 0.69704 0.0
C3042 C 0.13871 0.01577 0.72315 0.0
C3043 C 0.1768 0.04327 0.70394 0.0
N3044 N 0.13496 0.99875 0.67837 0.0
N3045 N 0.16562 0.07169 0.74165 0.0
H3046 H 0.21033 0.04772 0.679 0.0
H3047 H 0.20859 0.06394 0.71025 0.0
H3048 H 0.15567 0.07885 0.7594 0.0
H3049 H 0.17729 0.08327 0.73296 0.0
H3050 H 0.11813 0.9909 0.68444 0.0
H3051 H 0.1409 0.99541 0.6581 0.0
H3052 H 0.12671 0.98202 0.72322 0.0
H3053 H 0.12597 0.99727 0.75481 0.0
C3054 C 0.18784 0.90095 1.00567 0.0
C3055 C 0.16219 0.91057 0.01239 0.0
C3056 C 0.16315 0.92658 0.96938 0.0
C3057 C 0.18764 0.91433 0.9609 0.0
N3058 N 0.22154 0.88712 0.97105 0.0
N3059 N 0.13021 0.9397 1.00593 0.0
C3060 C 0.19964 0.901 0.97919 0.0
C3061 C 0.15158 0.92585 0.99589 0.0
N3062 N 0.20151 0.89264 0.02487 0.0
N3063 N 0.14923 0.9366 0.95148 0.0
H3064 H 0.12185 0.93936 0.02538 0.0
H3065 H 0.12268 0.95301 0.9964 0.0
H3066 H 0.15502 0.9357 0.93127 0.0
H3067 H 0.13025 0.94368 0.95589 0.0
H3068 H 0.22118 0.88717 0.02188 0.0
H3069 H 0.19442 0.89435 0.04485 0.0
H3070 H 0.22841 0.87448 0.982 0.0
H3071 H 0.23212 0.88686 0.95265 0.0
C3072 C 0.37524 0.35912 0.08681 0.0
C3073 C 0.35054 0.36482 0.07829 0.0
C3074 C 0.34048 0.32462 0.07414 0.0
C3075 C 0.36649 0.31861 0.07943 0.0
N3076 N 0.40207 0.33062 0.10436 0.0
N3077 N 0.31046 0.35344 0.06105 0.0
C3078 C 0.38225 0.33599 0.08945 0.0
C3079 C 0.33339 0.34768 0.07116 0.0
N3080 N 0.3922 0.37576 0.09186 0.0
N3081 N 0.3219 0.30893 0.07437 0.0
H3082 H 0.30433 0.37022 0.05899 0.0
H3083 H 0.29854 0.34151 0.05257 0.0
H3084 H 0.32472 0.29311 0.08122 0.0
H3085 H 0.30231 0.31278 0.07221 0.0
H3086 H 0.41163 0.37229 0.0951 0.0
H3087 H 0.38747 0.39298 0.09058 0.0
H3088 H 0.41277 0.34279 0.11429 0.0
H3089 H 0.40504 0.31441 0.11033 0.0
C3090 C 0.70664 0.14908 0.83734 0.0
C3091 C 0.70182 0.15525 0.81171 0.0
C3092 C 0.74888 0.15898 0.80179 0.0
C3093 C 0.75366 0.14945 0.82567 0.0
N3094 N 0.73694 0.13513 0.86626 0.0
N3095 N 0.71696 0.17432 0.7745 0.0
C3096 C 0.73252 0.14452 0.84343 0.0
C3097 C 0.72266 0.16277 0.79545 0.0
N3098 N 0.68714 0.14824 0.85696 0.0
N3099 N 0.76943 0.16381 0.78487 0.0
H3100 H 0.69773 0.17836 0.7708 0.0
H3101 H 0.73069 0.18177 0.76252 0.0
H3102 H 0.78875 0.16249 0.78946 0.0
H3103 H 0.76764 0.16813 0.76573 0.0
H3104 H 0.66785 0.15401 0.85585 0.0
H3105 H 0.66785 0.15401 0.85585 0.0
H3106 H 0.72177 0.13081 0.87943 0.0
H3107 H 0.7556 0.13087 0.87144 0.0
C3108 C 0.1462 0.64589 0.05071 0.0
C3109 C 0.13833 0.64662 0.02471 0.0
C3110 C 0.16412 0.61125 0.00949 0.0
C3111 C 0.16634 0.60808 0.03642 0.0
N3112 N 0.16577 0.62408 0.08216 0.0
N3113 N 0.14735 0.63576 0.97803 0.0
C3114 C 0.15999 0.62619 0.05675 0.0
C3115 C 0.15064 0.63142 1.00345 0.0
N3116 N 0.1391 0.663 0.07051 0.0
N3117 N 0.17281 0.59366 0.99071 0.0
H3118 H 0.13683 0.65051 0.9743 0.0
H3119 H 0.15614 0.62598 0.96105 0.0
H3120 H 0.17085 0.59335 0.9704 0.0
H3121 H 0.17085 0.59335 0.9704 0.0
H3122 H 0.12899 0.67814 0.06753 0.0
H3123 H 0.12899 0.67814 0.06753 0.0
H3124 H 0.16065 0.63691 0.09784 0.0
H3125 H 0.17618 0.6097 0.08706 0.0
C3126 C 0.79776 0.89472 0.34419 0.0
C3127 C 0.79467 0.88083 0.32028 0.0
C3128 C 0.79882 0.91406 0.29498 0.0
C3129 C 0.80313 0.9279 0.31883 0.0
N3130 N 0.81056 0.93019 0.36573 0.0
N3131 N 0.79521 0.87585 0.27259 0.0
C3132 C 0.80386 0.91783 0.34323 0.0
C3133 C 0.79581 0.89015 0.29558 0.0
N3134 N 0.79386 0.88596 0.36809 0.0
N3135 N 0.79827 0.92359 0.2716 0.0
H3136 H 0.79285 0.8584 0.27247 0.0
H3137 H 0.79871 0.88075 0.25359 0.0
H3138 H 0.80353 0.94012 0.26942 0.0
H3139 H 0.79187 0.9154 0.25435 0.0
H3140 H 0.79361 0.89545 0.38659 0.0
H3141 H 0.78893 0.86925 0.36981 0.0
H3142 H 0.81579 0.92288 0.38246 0.0
H3143 H 0.81199 0.94774 0.36778 0.0
C3144 C 0.88118 0.02987 0.10363 0.0
C3145 C 0.89388 0.01155 0.08674 0.0
C3146 C 0.87055 0.02442 0.0497 0.0
C3147 C 0.85411 0.03993 0.06814 0.0
N3148 N 0.84079 0.05187 0.11514 0.0
N3149 N 0.89984 0.99013 0.04339 0.0
C3150 C 0.85872 0.04122 0.09578 0.0
C3151 C 0.88844 0.00851 0.05957 0.0
N3152 N 0.89017 0.03603 0.12775 0.0
N3153 N 0.86991 0.02529 0.02299 0.0
H3154 H 0.9138 0.97901 0.04981 0.0
H3155 H 0.89456 0.98544 0.02427 0.0
H3156 H 0.85792 0.0371 0.0151 0.0
H3157 H 0.88306 0.01576 1.0088 0.0
H3158 H 0.88288 0.05056 0.14021 0.0
H3159 H 0.90696 0.02806 0.13357 0.0
H3160 H 0.84235 0.05114 0.13541 0.0
H3161 H 0.82276 0.05881 0.11133 0.0
C3162 C 0.22431 0.62911 0.58561 0.0
C3163 C 0.24697 0.6209 0.56841 0.0
C3164 C 0.21984 0.62265 0.52983 0.0
C3165 C 0.19728 0.63067 0.54713 0.0
N3166 N 0.18076 0.64808 0.59055 0.0
N3167 N 0.26723 0.61581 0.52345 0.0
C3168 C 0.20049 0.63589 0.57472 0.0
C3169 C 0.24493 0.61951 0.54028 0.0
N3170 N 0.22484 0.62923 0.61251 0.0
N3171 N 0.21714 0.61718 0.5034 0.0
H3172 H 0.28568 0.61413 0.53033 0.0
H3173 H 0.26782 0.6167 0.50302 0.0
H3174 H 0.1995 0.61985 0.49518 0.0
H3175 H 0.23194 0.60919 0.48986 0.0
H3176 H 0.20828 0.63241 0.62591 0.0
H3177 H 0.2414 0.62434 0.62144 0.0
H3178 H 0.18236 0.65457 0.61023 0.0
H3179 H 0.16389 0.65394 0.58282 0.0
C3180 C 0.09263 0.53567 0.20953 0.0
C3181 C 0.08994 0.51339 0.2171 0.0
C3182 C 0.0958 0.52761 0.26315 0.0
C3183 C 0.10482 0.5479 0.25431 0.0
N3184 N 0.09948 0.57556 0.22342 0.0
N3185 N 0.08957 0.48778 0.25137 0.0
C3186 C 0.09947 0.55335 0.22867 0.0
C3187 C 0.09113 0.50932 0.2441 0.0
N3188 N 0.08927 0.53961 0.18397 0.0
N3189 N 0.09092 0.52624 0.28978 0.0
H3190 H 0.08585 0.47374 0.23828 0.0
H3191 H 0.09357 0.48358 0.27012 0.0
H3192 H 0.09241 0.54027 0.30384 0.0
H3193 H 0.08229 0.51249 0.29747 0.0
H3194 H 0.0938 0.55457 0.17597 0.0
H3195 H 0.08196 0.52748 0.17053 0.0
H3196 H 0.09504 0.58116 0.20548 0.0
H3197 H 0.10126 0.58884 0.23835 0.0
C3198 C 0.4047 0.59362 0.86069 0.0
C3199 C 0.38937 0.61358 0.8576 0.0
C3200 C 0.34943 0.59371 0.86372 0.0
C3201 C 0.36466 0.57329 0.86548 0.0
N3202 N 0.40706 0.55269 0.8602 0.0
N3203 N 0.34827 0.6317 0.84978 0.0
C3204 C 0.3924 0.57287 0.8624 0.0
C3205 C 0.36205 0.61328 0.85696 0.0
N3206 N 0.4309 0.59465 0.86299 0.0
N3207 N 0.32307 0.59483 0.87016 0.0
H3208 H 0.35712 0.64636 0.84479 0.0
H3209 H 0.32864 0.63159 0.84631 0.0
H3210 H 0.31327 0.58128 0.87693 0.0
H3211 H 0.31133 0.60988 0.87158 0.0
H3212 H 0.44247 0.58136 0.8687 0.0
H3213 H 0.4409 0.60935 0.86094 0.0
H3214 H 0.42697 0.55116 0.85426 0.0
H3215 H 0.39925 0.53708 0.86237 0.0
C3216 C 0.94882 0.63393 0.61307 0.0
C3217 C 0.93899 0.65511 0.60628 0.0
C3218 C 0.91949 0.66621 0.65154 0.0
C3219 C 0.92807 0.64457 0.65808 0.0
N3220 N 0.9558 0.61003 0.64832 0.0
N3221 N 0.9224 0.69398 0.61989 0.0
C3222 C 0.9446 0.62916 0.63986 0.0
C3223 C 0.927 0.67219 0.62594 0.0
N3224 N 0.96121 0.61828 0.59369 0.0
N3225 N 0.90275 0.68035 0.66912 0.0
H3226 H 0.92722 0.69892 0.60106 0.0
H3227 H 0.91605 0.70764 0.63407 0.0
H3228 H 0.897 0.6767 0.68834 0.0
H3229 H 0.89313 0.69502 0.66413 0.0
H3230 H 0.96664 0.60158 0.59658 0.0
H3231 H 0.96546 0.62199 0.57418 0.0
H3232 H 0.96892 0.59846 0.63649 0.0
H3233 H 0.95321 0.60643 0.66805 0.0
C3234 C 0.08429 0.21311 0.34825 0.0
C3235 C 0.08037 0.23482 0.36375 0.0
C3236 C 0.0498 0.24692 0.33176 0.0
C3237 C 0.05505 0.2258 0.31527 0.0
N3238 N 0.08059 0.19015 0.30593 0.0
N3239 N 0.06197 0.27363 0.36756 0.0
C3240 C 0.07312 0.20924 0.32315 0.0
C3241 C 0.0641 0.25208 0.3545 0.0
N3242 N 0.09895 0.19612 0.35733 0.0
N3243 N 0.02972 0.26156 0.32698 0.0
H3244 H 0.06926 0.27777 0.38583 0.0
H3245 H 0.05421 0.28769 0.35944 0.0
H3246 H 0.01831 0.25859 0.31112 0.0
H3247 H 0.02264 0.27569 0.34018 0.0
H3248 H 0.09996 0.17917 0.34902 0.0
H3249 H 0.1091 0.19865 0.37423 0.0
H3250 H 0.09549 0.17837 0.30886 0.0
H3251 H 0.07347 0.18711 0.28729 0.0
C3252 C 0.59485 0.23956 0.1805 0.0
C3253 C 0.5835 0.26155 0.17831 0.0
C3254 C 0.58928 0.25439 0.12941 0.0
C3255 C 0.60157 0.23285 0.13161 0.0
N3256 N 0.61912 0.20538 0.15821 0.0
N3257 N 0.57132 0.29068 0.15081 0.0
C3258 C 0.60525 0.22556 0.15693 0.0
C3259 C 0.58121 0.26914 0.15278 0.0
N3260 N 0.59502 0.23197 0.20504 0.0
N3261 N 0.58368 0.26019 0.10498 0.0
H3262 H 0.56159 0.30079 0.16683 0.0
H3263 H 0.57339 0.29877 0.13356 0.0
H3264 H 0.59046 0.25056 0.08712 0.0
H3265 H 0.57106 0.27392 0.10226 0.0
H3266 H 0.60078 0.21538 0.20808 0.0
H3267 H 0.58767 0.24202 0.22252 0.0
H3268 H 0.62434 0.19963 0.17582 0.0
H3269 H 0.62722 0.19506 0.1412 0.0
C3270 C 0.52526 0.91017 0.80895 0.0
C3271 C 0.51108 0.928 0.82616 0.0
C3272 C 0.52317 0.95443 0.79189 0.0
C3273 C 0.53956 0.93694 0.77548 0.0
N3274 N 0.55399 0.89612 0.77122 0.0
N3275 N 0.50041 0.96828 0.83533 0.0
C3276 C 0.54011 0.91457 0.7849 0.0
C3277 C 0.51088 0.95034 0.81774 0.0
N3278 N 0.52457 0.88825 0.8153 0.0
N3279 N 0.5189 0.97527 0.78314 0.0
H3280 H 0.49164 0.96626 0.85415 0.0
H3281 H 0.50255 0.9853 0.83244 0.0
H3282 H 0.52867 0.9805 0.76636 0.0
H3283 H 0.50416 0.98715 0.79178 0.0
H3284 H 0.53483 0.87441 0.8038 0.0
H3285 H 0.51294 0.88369 0.83148 0.0
H3286 H 0.56498 0.89579 0.75303 0.0
H3287 H 0.56498 0.89579 0.75303 0.0
C3288 C 0.95836 0.22161 0.84849 0.0
C3289 C 0.939 0.22379 0.87045 0.0
C3290 C 0.95153 0.2633 0.88227 0.0
C3291 C 0.97401 0.25964 0.86362 0.0
N3292 N 0.99695 0.23625 0.82642 0.0
N3293 N 0.91679 0.2471 0.90826 0.0
C3294 C 0.97661 0.23915 0.8457 0.0
C3295 C 0.93543 0.24484 0.88719 0.0
N3296 N 0.95913 0.20275 0.83027 0.0
N3297 N 0.94454 0.28487 0.89408 0.0
H3298 H 0.90334 0.2348 0.91125 0.0
H3299 H 0.91544 0.26062 0.92338 0.0
H3300 H 0.95455 0.29898 0.88928 0.0
H3301 H 0.92716 0.28924 0.90595 0.0
H3302 H 0.97073 0.20075 0.81231 0.0
H3303 H 0.94629 0.18981 0.83219 0.0
H3304 H 1.00183 0.22115 0.81407 0.0
H3305 H 0.00952 0.24913 0.82324 0.0
C3306 C 0.42924 0.23483 0.5931 0.0
C3307 C 0.44213 0.21295 0.59407 0.0
C3308 C 0.40569 0.19605 0.56957 0.0
C3309 C 0.39319 0.21805 0.56812 0.0
N3310 N 0.39801 0.25851 0.57303 0.0
N3311 N 0.44375 0.17274 0.57904 0.0
C3312 C 0.40643 0.23737 0.57851 0.0
C3313 C 0.43076 0.19366 0.58078 0.0
N3314 N 0.43888 0.25363 0.60608 0.0
N3315 N 0.39293 0.17717 0.56162 0.0
H3316 H 0.46058 0.16982 0.58852 0.0
H3317 H 0.4388 0.15853 0.56695 0.0
H3318 H 0.37527 0.17817 0.55315 0.0
H3319 H 0.39885 0.16068 0.56493 0.0
H3320 H 0.42856 0.26944 0.60989 0.0
H3321 H 0.45672 0.25325 0.61433 0.0
H3322 H 0.40785 0.27323 0.57725 0.0
H3323 H 0.38275 0.26091 0.56129 0.0
C3324 C 0.74482 0.68651 0.41549 0.0
C3325 C 0.74276 0.70023 0.39437 0.0
C3326 C 0.71335 0.67419 0.37371 0.0
C3327 C 0.71304 0.66202 0.39636 0.0
N3328 N 0.72594 0.65762 0.44025 0.0
N3329 N 0.72693 0.70631 0.35197 0.0
C3330 C 0.72834 0.66827 0.41756 0.0
C3331 C 0.72801 0.6936 0.37287 0.0
N3332 N 0.76239 0.69135 0.43373 0.0
N3333 N 0.69922 0.66807 0.35283 0.0
H3334 H 0.73771 0.72057 0.35009 0.0
H3335 H 0.71551 0.70223 0.33628 0.0
H3336 H 0.68751 0.65416 0.35172 0.0
H3337 H 0.68751 0.65416 0.35172 0.0
H3338 H 0.76667 0.68094 0.4483 0.0
H3339 H 0.77437 0.70499 0.43281 0.0
H3340 H 0.73423 0.66316 0.45764 0.0
H3341 H 0.71383 0.64422 0.44255 0.0
C3342 C 0.03093 0.90822 0.05925 0.0
C3343 C 0.05079 0.91087 0.0769 0.0
C3344 C 0.02755 0.94637 0.09889 0.0
C3345 C 1.00581 0.94171 0.08368 0.0
N3346 N 0.99187 0.92435 0.04286 0.0
N3347 N 0.06948 0.93327 0.11217 0.0
C3348 C 0.00903 0.92438 0.06194 0.0
C3349 C 0.04966 0.93039 0.09602 0.0
N3350 N 0.03222 0.88946 0.04088 0.0
N3351 N 0.02787 0.96627 0.11539 0.0
H3352 H 0.08739 0.92398 0.10849 0.0
H3353 H 0.06802 0.9442 0.12981 0.0
H3354 H 0.01295 0.97893 0.11883 0.0
H3355 H 0.0443 0.97171 0.12419 0.0
H3356 H 0.01699 0.88504 0.0295 0.0
H3357 H 0.0481 0.87755 0.03818 0.0
H3358 H 0.99548 0.91484 0.02433 0.0
H3359 H 0.9759 0.93616 0.04415 0.0
C3360 C 0.69355 0.94892 0.61154 0.0
C3361 C 0.6891 0.94338 0.58423 0.0
C3362 C 0.64191 0.94073 0.60058 0.0
C3363 C 0.64626 0.94987 0.62706 0.0
N3364 N 0.6771 0.96721 0.65508 0.0
N3365 N 0.65738 0.93261 0.5535 0.0
C3366 C 0.6723 0.95536 0.63154 0.0
C3367 C 0.66275 0.93896 0.57899 0.0
N3368 N 0.7182 0.94611 0.6192 0.0
N3369 N 0.61826 0.93234 0.59623 0.0
H3370 H 0.67182 0.9276 0.53814 0.0
H3371 H 0.63856 0.93269 0.54748 0.0
H3372 H 0.6029 0.93321 0.61111 0.0
H3373 H 0.61439 0.92301 0.57855 0.0
H3374 H 0.72232 0.94808 0.63906 0.0
H3375 H 0.73373 0.93824 0.60642 0.0
H3376 H 0.69505 0.97393 0.65821 0.0
H3377 H 0.66255 0.97246 0.67029 0.0
C3378 C 0.93043 0.8631 0.41042 0.0
C3379 C 0.94308 0.84804 0.38908 0.0
C3380 C 0.92746 0.87264 0.35719 0.0
C3381 C 0.91897 0.88945 0.37878 0.0
N3382 N 0.91581 0.902 0.42603 0.0
N3383 N 0.9543 0.8379 0.34207 0.0
C3384 C 0.92115 0.88499 0.40546 0.0
C3385 C 0.9416 0.8525 0.36233 0.0
N3386 N 0.92708 0.85635 0.43541 0.0
N3387 N 0.92154 0.87579 0.33201 0.0
H3388 H 0.96424 0.82273 0.34527 0.0
H3389 H 0.95627 0.8414 0.32233 0.0
H3390 H 0.91105 0.89033 0.32773 0.0
H3391 H 0.92504 0.86326 0.31583 0.0
H3392 H 0.91559 0.86581 0.45108 0.0
H3393 H 0.93349 0.84025 0.4398 0.0
H3394 H 0.91982 0.90015 0.44551 0.0
H3395 H 0.90975 0.91866 0.42339 0.0
C3396 C 0.92529 0.18777 0.1564 0.0
C3397 C 0.90241 0.17979 0.16918 0.0
C3398 C 0.91463 0.19629 0.21256 0.0
C3399 C 0.93888 0.20182 0.20039 0.0
N3400 N 0.96531 0.20776 0.1607 0.0
N3401 N 0.87594 0.17493 0.20949 0.0
C3402 C 0.94359 0.19913 0.1722 0.0
C3403 C 0.89718 0.18379 0.19727 0.0
N3404 N 0.92984 0.18362 0.12931 0.0
N3405 N 0.90776 0.20419 0.23863 0.0
H3406 H 0.86206 0.16641 0.19908 0.0
H3407 H 0.87295 0.17458 0.23 0.0
H3408 H 0.91932 0.21501 0.24945 0.0
H3409 H 0.88951 0.20257 0.24845 0.0
H3410 H 0.94677 0.18734 0.11842 0.0
H3411 H 0.91667 0.17562 0.11742 0.0
H3412 H 0.96971 0.20767 0.14032 0.0
H3413 H 0.97864 0.21631 0.17182 0.0
C3414 C 0.57952 0.16057 0.9803 0.0
C3415 C 0.60131 0.14942 0.98986 0.0
C3416 C 0.62628 0.14943 0.94659 0.0
C3417 C 0.60483 0.16177 0.93812 0.0
N3418 N 0.56514 0.18519 0.94855 0.0
N3419 N 0.6434 0.12927 0.98145 0.0
C3420 C 0.58294 0.16959 0.95579 0.0
C3421 C 0.62422 0.1427 0.97269 0.0
N3422 N 0.55523 0.16109 0.99346 0.0
N3423 N 0.64859 0.14482 0.92991 0.0
H3424 H 0.64122 0.12311 1.00002 0.0
H3425 H 0.6605 0.12298 0.97013 0.0
H3426 H 0.65053 0.14994 0.91085 0.0
H3427 H 0.66582 0.13741 0.93528 0.0
H3428 H 0.53861 0.16835 0.98654 0.0
H3429 H 0.55082 0.15103 1.00868 0.0
H3430 H 0.54948 0.19275 0.96133 0.0
H3431 H 0.56772 0.19218 0.93051 0.0
C3432 C 0.55774 0.15836 0.70983 0.0
C3433 C 0.56875 0.17393 0.6933 0.0
C3434 C 0.61234 0.16101 0.70704 0.0
C3435 C 0.60087 0.14382 0.72141 0.0
N3436 N 0.56325 0.1207 0.72301 0.0
N3437 N 0.60813 0.18741 0.67322 0.0
C3438 C 0.57383 0.14081 0.71859 0.0
C3439 C 0.5966 0.17435 0.69094 0.0
N3440 N 0.5319 0.16053 0.7183 0.0
N3441 N 0.6381 0.16469 0.70841 0.0
H3442 H 0.59734 0.19784 0.66224 0.0
H3443 H 0.62819 0.1868 0.66824 0.0
H3444 H 0.65073 0.15403 0.71714 0.0
H3445 H 0.64677 0.17871 0.70143 0.0
H3446 H 0.52337 0.15017 0.73161 0.0
H3447 H 0.52027 0.1748 0.71558 0.0
H3448 H 0.54406 0.11752 0.71954 0.0
H3449 H 0.57442 0.10619 0.72608 0.0
C3450 C 0.73005 0.88054 0.44728 0.0
C3451 C 0.74388 0.88683 0.46974 0.0
C3452 C 0.76402 0.84822 0.46707 0.0
C3453 C 0.74926 0.84153 0.44567 0.0
N3454 N 0.71567 0.84995 0.41712 0.0
N3455 N 0.77898 0.87792 0.49663 0.0
C3456 C 0.73185 0.85737 0.43586 0.0
C3457 C 0.76237 0.87113 0.47818 0.0
N3458 N 0.71641 0.89693 0.43604 0.0
N3459 N 0.77809 0.83228 0.47854 0.0
H3460 H 0.77617 0.89296 0.50922 0.0
H3461 H 0.79601 0.86844 0.49909 0.0
H3462 H 0.78348 0.81587 0.46937 0.0
H3463 H 0.78251 0.83506 0.49827 0.0
H3464 H 0.70811 0.89394 0.41808 0.0
H3465 H 0.7154 0.91415 0.44335 0.0
H3466 H 0.70034 0.85999 0.41151 0.0
H3467 H 0.71621 0.83309 0.40845 0.0
C3468 C 0.88798 0.97966 0.24684 0.0
C3469 C 0.86149 0.98725 0.25317 0.0
C3470 C 0.85678 0.98903 0.20534 0.0
C3471 C 0.88405 0.98416 0.19993 0.0
N3472 N 0.92649 0.97975 0.2166 0.0
N3473 N 0.81915 0.99442 0.23808 0.0
C3474 C 0.89989 0.98093 0.22096 0.0
C3475 C 0.84536 0.99054 0.23226 0.0
N3476 N 0.90136 0.96953 0.26506 0.0
N3477 N 0.84227 0.99361 0.18494 0.0
H3478 H 0.81068 0.99643 0.2575 0.0
H3479 H 0.80566 0.99428 0.22395 0.0
H3480 H 0.85029 0.99274 0.16524 0.0
H3481 H 0.82277 0.9995 0.18741 0.0
H3482 H 0.91998 0.96161 0.26057 0.0
H3483 H 0.89252 0.96624 0.28343 0.0
H3484 H 0.9387 0.98008 0.232 0.0
H3485 H 0.93647 0.98047 0.19804 0.0
C3486 C 0.88083 0.12794 0.98141 0.0
C3487 C 0.87613 0.1182 0.95571 0.0
C3488 C 0.83579 0.10388 0.97602 0.0
C3489 C 0.83899 0.11751 1.00038 0.0
N3490 N 0.85843 0.15192 0.0179 0.0
N3491 N 0.84976 0.09486 0.9285 0.0
C3492 C 0.85969 0.13236 1.00075 0.0
C3493 C 0.85389 0.10515 0.95306 0.0
N3494 N 0.90517 0.13313 0.98769 0.0
N3495 N 0.81437 0.09158 0.97416 0.0
H3496 H 0.86368 0.09454 0.91224 0.0
H3497 H 0.83285 0.08692 0.92411 0.0
H3498 H 0.79832 0.09486 0.98816 0.0
H3499 H 0.81207 0.0793 0.95836 0.0
H3500 H 0.90863 0.14017 1.00676 0.0
H3501 H 0.92189 0.12718 0.97538 0.0
H3502 H 0.87311 0.16344 0.01739 0.0
H3503 H 0.84119 0.15836 0.02907 0.0
C3504 C 0.66982 0.72032 0.98969 0.0
C3505 C 0.64906 0.7234 0.97335 0.0
C3506 C 0.65827 0.68383 0.9521 0.0
C3507 C 0.67868 0.68077 0.96876 0.0
N3508 N 0.70083 0.69439 1.00673 0.0
N3509 N 0.62733 0.70966 0.93501 0.0
C3510 C 0.68344 0.6985 0.98862 0.0
C3511 C 0.64427 0.70552 0.95352 0.0
N3512 N 0.67852 0.73886 1.00401 0.0
N3513 N 0.6517 0.66562 0.93551 0.0
H3514 H 0.61668 0.72514 0.93528 0.0
H3515 H 0.62521 0.69852 0.91811 0.0
H3516 H 0.66161 0.6496 0.93388 0.0
H3517 H 0.63518 0.66566 0.92504 0.0
H3518 H 0.69559 0.73835 0.01356 0.0
H3519 H 0.67069 0.75539 1.00341 0.0
H3520 H 0.70296 0.70559 0.02361 0.0
H3521 H 0.71159 0.67885 1.00611 0.0
C3522 C 0.27167 0.92458 0.19804 0.0
C3523 C 0.29376 0.92303 0.17907 0.0
C3524 C 0.26426 0.92454 0.14359 0.0
C3525 C 0.24279 0.92127 0.16188 0.0
N3526 N 0.22681 0.93884 0.20561 0.0
N3527 N 0.31078 0.92036 0.13284 0.0
C3528 C 0.24631 0.92687 0.18923 0.0
C3529 C 0.28992 0.9226 0.15156 0.0
N3530 N 0.27457 0.9245 0.22451 0.0
N3531 N 0.26005 0.93373 0.12064 0.0
H3532 H 0.32995 0.91937 0.13779 0.0
H3533 H 0.30882 0.9176 0.11246 0.0
H3534 H 0.24146 0.93973 0.11687 0.0
H3535 H 0.27505 0.93858 0.10771 0.0
H3536 H 0.25874 0.92388 0.23861 0.0
H3537 H 0.29265 0.92292 0.23204 0.0
H3538 H 0.22914 0.94544 0.22513 0.0
H3539 H 0.20996 0.94523 0.19819 0.0
C3540 C 0.86182 0.43025 0.96466 0.0
C3541 C 0.87818 0.43947 0.98367 0.0
C3542 C 0.9064 0.40457 0.97647 0.0
C3543 C 0.89286 0.39757 0.95394 0.0
N3544 N 0.85514 0.40099 0.92946 0.0
N3545 N 0.914 0.43523 0.01039 0.0
C3546 C 0.86949 0.40932 0.94934 0.0
C3547 C 0.89944 0.4262 0.99097 0.0
N3548 N 0.83961 0.44178 0.95961 0.0
N3549 N 0.9265 0.39095 0.98324 0.0
H3550 H 0.90833 0.45059 0.02212 0.0
H3551 H 0.93187 0.42811 0.01456 0.0
H3552 H 0.93263 0.37521 0.97282 0.0
H3553 H 0.93605 0.39426 1.00037 0.0
H3554 H 0.83252 0.45735 0.97007 0.0
H3555 H 0.83252 0.45735 0.97007 0.0
H3556 H 0.8379 0.40937 0.92524 0.0
H3557 H 0.8603 0.38542 0.91794 0.0
C3558 C 0.24644 0.11099 0.59407 0.0
C3559 C 0.24749 0.12534 0.61808 0.0
C3560 C 0.24176 0.09307 0.64378 0.0
C3561 C 0.23708 0.07926 0.62009 0.0
N3562 N 0.23211 0.07622 0.5725 0.0
N3563 N 0.24155 0.13152 0.66594 0.0
C3564 C 0.2384 0.08859 0.59521 0.0
C3565 C 0.24375 0.11683 0.64301 0.0
N3566 N 0.25431 0.11837 0.57015 0.0
N3567 N 0.24498 0.08368 0.66683 0.0
H3568 H 0.24299 0.14908 0.66602 0.0
H3569 H 0.23585 0.12659 0.68458 0.0
H3570 H 0.24509 0.06629 0.66825 0.0
H3571 H 0.25065 0.09287 0.68387 0.0
H3572 H 0.25708 0.10762 0.55233 0.0
H3573 H 0.26046 0.13472 0.5683 0.0
H3574 H 0.22891 0.08353 0.55515 0.0
H3575 H 0.22907 0.05888 0.57093 0.0
C3576 C 0.12673 0.00662 0.87267 0.0
C3577 C 0.11998 1.00408 0.84595 0.0
C3578 C 0.1447 0.96635 0.83899 0.0
C3579 C 0.1523 0.96925 0.86564 0.0
N3580 N 0.14193 0.98859 0.90989 0.0
N3581 N 0.1156 0.97861 0.80682 0.0
C3582 C 0.14051 0.98828 0.88308 0.0
C3583 C 0.12658 0.98286 0.83028 0.0
N3584 N 0.12082 0.027 0.88796 0.0
N3585 N 0.156 0.94889 0.82122 0.0
H3586 H 0.10245 0.99043 0.80036 0.0
H3587 H 0.11732 0.96278 0.79539 0.0
H3588 H 0.16937 0.93659 0.82608 0.0
H3589 H 0.15351 0.94747 0.80096 0.0
H3590 H 0.12821 0.03118 0.90623 0.0
H3591 H 0.10949 0.0402 0.88163 0.0
H3592 H 0.13199 1.00089 0.9239 0.0
H3593 H 0.15065 0.97508 0.91827 0.0
C3594 C 0.82753 0.37684 0.4457 0.0
C3595 C 0.81193 0.3751 0.42405 0.0
C3596 C 0.85006 0.35771 0.39516 0.0
C3597 C 0.86625 0.36502 0.41539 0.0
N3598 N 0.87013 0.3842 0.4594 0.0
N3599 N 0.80708 0.3581 0.37922 0.0
C3600 C 0.85495 0.37519 0.4406 0.0
C3601 C 0.8227 0.36346 0.39914 0.0
N3602 N 0.81595 0.37964 0.47114 0.0
N3603 N 0.86083 0.34543 0.3721 0.0
H3604 H 0.78721 0.35609 0.38292 0.0
H3605 H 0.81401 0.35442 0.35926 0.0
H3606 H 0.88087 0.3427 0.3674 0.0
H3607 H 0.85002 0.33712 0.35799 0.0
H3608 H 0.82643 0.37924 0.48782 0.0
H3609 H 0.79575 0.37936 0.47514 0.0
H3610 H 0.86235 0.39341 0.47725 0.0
H3611 H 0.89028 0.38468 0.45605 0.0
C3612 C 0.92859 0.50459 0.72441 0.0
C3613 C 0.93439 0.50788 0.75138 0.0
C3614 C 0.94705 0.46733 0.74945 0.0
C3615 C 0.93555 0.46333 0.72519 0.0
N3616 N 0.91606 0.47834 0.6884 0.0
N3617 N 0.94929 0.49248 0.78997 0.0
C3618 C 0.92702 0.48202 0.71197 0.0
C3619 C 0.94408 0.48934 0.76391 0.0
N3620 N 0.92506 0.52298 0.71056 0.0
N3621 N 0.96114 0.45 0.7584 0.0
H3622 H 0.94772 0.50848 0.80111 0.0
H3623 H 0.95332 0.47901 0.80099 0.0
H3624 H 0.96358 0.43369 0.74797 0.0
H3625 H 0.97285 0.45275 0.77404 0.0
H3626 H 0.92367 0.52154 0.69008 0.0
H3627 H 0.92588 0.53979 0.71903 0.0
H3628 H 0.90615 0.49114 0.67992 0.0
H3629 H 0.91597 0.46234 0.67764 0.0
C3630 C 0.65814 0.4563 0.16712 0.0
C3631 C 0.68586 0.45258 0.16217 0.0
C3632 C 0.68228 0.41263 0.17202 0.0
C3633 C 0.65471 0.41635 0.17604 0.0
N3634 N 0.61603 0.44133 0.17803 0.0
N3635 N 0.72407 0.42674 0.15718 0.0
C3636 C 0.64266 0.43815 0.174 0.0
C3637 C 0.69787 0.43061 0.16413 0.0
N3638 N 0.6464 0.47744 0.16611 0.0
N3639 N 0.69345 0.39191 0.17604 0.0
H3640 H 0.7358 0.43928 0.15066 0.0
H3641 H 0.73408 0.41087 0.15595 0.0
H3642 H 0.68249 0.3784 0.18107 0.0
H3643 H 0.71342 0.38833 0.17595 0.0
H3644 H 0.62785 0.48272 0.175 0.0
H3645 H 0.65501 0.4901 0.15647 0.0
H3646 H 0.60528 0.45535 0.17295 0.0
H3647 H 0.60413 0.42942 0.18577 0.0
C3648 C 0.59437 0.88487 0.86654 0.0
C3649 C 0.60157 0.86334 0.87434 0.0
C3650 C 0.62144 0.85 0.82976 0.0
C3651 C 0.61515 0.87181 0.82209 0.0
N3652 N 0.58979 0.90778 0.83006 0.0
N3653 N 0.61408 0.82338 0.86222 0.0
C3654 C 0.59953 0.88855 0.83949 0.0
C3655 C 0.61221 0.84514 0.85541 0.0
N3656 N 0.58379 0.90194 0.88525 0.0
N3657 N 0.63769 0.83454 0.81331 0.0
H3658 H 0.6079 0.81923 0.88111 0.0
H3659 H 0.61935 0.80914 0.84849 0.0
H3660 H 0.64508 0.83745 0.79427 0.0
H3661 H 0.64553 0.81949 0.81925 0.0
H3662 H 0.58098 0.91885 0.88153 0.0
H3663 H 0.57866 0.89917 0.90495 0.0
H3664 H 0.57651 0.91971 0.8412 0.0
H3665 H 0.59335 0.91086 0.81023 0.0
C3666 C 0.4659 0.30209 0.13271 0.0
C3667 C 0.46 0.27925 0.12429 0.0
C3668 C 0.4813 0.26677 0.16316 0.0
C3669 C 0.48627 0.28991 0.17214 0.0
N3670 N 0.47552 0.32968 0.16896 0.0
N3671 N 0.46787 0.23936 0.12827 0.0
C3672 C 0.47658 0.30751 0.1577 0.0
C3673 C 0.46875 0.26153 0.13906 0.0
N3674 N 0.46204 0.31884 0.1166 0.0
N3675 N 0.48868 0.24947 0.17733 0.0
H3676 H 0.46158 0.23496 0.10954 0.0
H3677 H 0.47598 0.22533 0.13611 0.0
H3678 H 0.50233 0.2508 0.19126 0.0
H3679 H 0.48076 0.23357 0.17563 0.0
H3680 H 0.4695 0.33487 0.11977 0.0
H3681 H 0.45341 0.31639 0.09881 0.0
H3682 H 0.46629 0.34311 0.16092 0.0
H3683 H 0.48072 0.33437 0.18812 0.0
C3684 C 0.93149 0.28804 0.32301 0.0
C3685 C 0.93912 0.28453 0.34861 0.0
C3686 C 0.96264 0.2486 0.33056 0.0
C3687 C 0.95619 0.25251 0.30464 0.0
N3688 N 0.93777 0.27698 0.27515 0.0
N3689 N 0.96723 0.26463 0.3755 0.0
C3690 C 0.94153 0.27256 0.30052 0.0
C3691 C 0.95607 0.26566 0.35207 0.0
N3692 N 0.91428 0.30587 0.32039 0.0
N3693 N 0.97475 0.22837 0.33489 0.0
H3694 H 0.96291 0.27659 0.3921 0.0
H3695 H 0.98266 0.2531 0.37777 0.0
H3696 H 0.98156 0.21578 0.31971 0.0
H3697 H 0.97648 0.22338 0.35379 0.0
H3698 H 0.90595 0.30828 0.30283 0.0
H3699 H 0.90696 0.31756 0.33647 0.0
H3700 H 0.92956 0.29234 0.27046 0.0
H3701 H 0.94454 0.26569 0.25844 0.0
C3702 C 0.03027 0.566 0.66604 0.0
C3703 C 0.03182 0.58891 0.65952 0.0
C3704 C 1.00349 0.60147 0.70153 0.0
C3705 C 1.00336 0.57873 0.70932 0.0
N3706 N 0.02005 0.53955 0.69871 0.0
N3707 N 0.02509 0.62868 0.67569 0.0
C3708 C 0.01808 0.56119 0.69161 0.0
C3709 C 0.01982 0.6066 0.67861 0.0
N3710 N 0.03903 0.54848 0.64706 0.0
N3711 N 0.98773 0.61862 0.71565 0.0
H3712 H 0.03725 0.63322 0.65987 0.0
H3713 H 0.01999 0.64217 0.69049 0.0
H3714 H 0.9769 0.61708 0.73348 0.0
H3715 H 0.98418 0.63433 0.70867 0.0
H3716 H 0.03597 0.53142 0.64892 0.0
H3717 H 0.04738 0.55109 0.62828 0.0
H3718 H 0.03336 0.52687 0.68901 0.0
H3719 H 0.00938 0.53442 0.71513 0.0
C3720 C 0.56279 0.27738 0.64502 0.0
C3721 C 0.55696 0.26146 0.62324 0.0
C3722 C 0.59264 0.27674 0.59563 0.0
C3723 C 0.59499 0.29485 0.6157 0.0
N3724 N 0.58102 0.3135 0.65932 0.0
N3725 N 0.56669 0.24809 0.57583 0.0
C3726 C 0.57987 0.29535 0.64046 0.0
C3727 C 0.57191 0.26175 0.59802 0.0
N3728 N 0.55219 0.27543 0.67023 0.0
N3729 N 0.61105 0.2733 0.57435 0.0
H3730 H 0.55458 0.23466 0.57551 0.0
H3731 H 0.57385 0.25088 0.55668 0.0
H3732 H 0.62684 0.28351 0.5725 0.0
H3733 H 0.61247 0.25889 0.5604 0.0
H3734 H 0.55795 0.28479 0.68711 0.0
H3735 H 0.53888 0.26342 0.67465 0.0
H3736 H 0.56812 0.31658 0.67644 0.0
H3737 H 0.59403 0.32625 0.65697 0.0
C3738 C 0.11457 0.28689 0.88619 0.0
C3739 C 0.09692 0.30669 0.89184 0.0
C3740 C 0.12825 0.32161 0.92437 0.0
C3741 C 0.14747 0.30359 0.91529 0.0
N3742 N 0.15908 0.27055 0.88374 0.0
N3743 N 0.09047 0.34493 0.91482 0.0
C3744 C 0.14055 0.28676 0.89508 0.0
C3745 C 0.10461 0.32447 0.91084 0.0
N3746 N 0.10616 0.26739 0.87355 0.0
N3747 N 0.13261 0.33629 0.94597 0.0
H3748 H 0.07442 0.34857 0.90452 0.0
H3749 H 0.0963 0.3592 0.9262 0.0
H3750 H 0.14955 0.33481 0.95576 0.0
H3751 H 0.11854 0.34835 0.95562 0.0
H3752 H 0.11715 0.25187 0.87094 0.0
H3753 H 0.08699 0.26589 0.86887 0.0
H3754 H 0.15657 0.25956 0.86676 0.0
H3755 H 0.17764 0.26935 0.89024 0.0
C3756 C 0.86099 0.82296 0.08597 0.0
C3757 C 0.86469 0.82845 0.05892 0.0
C3758 C 0.8237 0.81863 0.0518 0.0
C3759 C 0.81939 0.80997 0.07711 0.0
N3760 N 0.83231 0.81184 0.12155 0.0
N3761 N 0.86464 0.80061 0.9992 0.0
C3762 C 0.83742 0.81481 0.09535 0.0
C3763 C 0.85058 0.81676 0.03619 0.0
N3764 N 0.87931 0.82629 0.10362 0.0
N3765 N 0.80391 0.83232 0.04485 0.0
H3766 H 0.86149 0.79115 0.98073 0.0
H3767 H 0.86149 0.79115 0.98073 0.0
H3768 H 0.78586 0.83513 0.05611 0.0
H3769 H 0.78586 0.83513 0.05611 0.0
H3770 H 0.89844 0.83019 0.09858 0.0
H3771 H 0.89844 0.83019 0.09858 0.0
H3772 H 0.84595 0.81472 0.13546 0.0
H3773 H 0.81387 0.80818 0.12949 0.0
C3774 C 0.51981 0.58267 0.38217 0.0
C3775 C 0.53639 0.57736 0.40207 0.0
C3776 C 0.5058 0.59967 0.43629 0.0
C3777 C 0.49034 0.60601 0.41608 0.0
N3778 N 0.48589 0.60806 0.36943 0.0
N3779 N 0.54716 0.5832 0.44751 0.0
C3780 C 0.49834 0.59884 0.38895 0.0
C3781 C 0.53001 0.58667 0.42899 0.0
N3782 N 0.52406 0.57206 0.35672 0.0
N3783 N 0.497 0.60556 0.46241 0.0
H3784 H 0.56438 0.57291 0.44306 0.0
H3785 H 0.54511 0.5915 0.46681 0.0
H3786 H 0.47991 0.61572 0.46826 0.0
H3787 H 0.50577 0.59943 0.47821 0.0
H3788 H 0.51047 0.57294 0.34272 0.0
H3789 H 0.53994 0.56085 0.34982 0.0
H3790 H 0.49301 0.60586 0.34942 0.0
H3791 H 0.46988 0.6198 0.37339 0.0
C3792 C 0.872 0.54649 0.89166 0.0
C3793 C 0.85661 0.56701 0.90158 0.0
C3794 C 0.88522 0.58708 0.87072 0.0
C3795 C 0.89814 0.56605 0.85822 0.0
N3796 N 0.89944 0.52499 0.8551 0.0
N3797 N 0.84726 0.60665 0.89717 0.0
C3798 C 0.89042 0.54559 0.8684 0.0
C3799 C 0.86296 0.58722 0.89012 0.0
N3800 N 0.86981 0.52778 0.90501 0.0
N3801 N 0.89495 0.60721 0.86494 0.0
H3802 H 0.8315 0.60766 0.91166 0.0
H3803 H 0.84867 0.62116 0.88725 0.0
H3804 H 0.91185 0.60789 0.85235 0.0
H3805 H 0.88816 0.62301 0.87491 0.0
H3806 H 0.88216 0.51308 0.90071 0.0
H3807 H 0.85778 0.52809 0.92246 0.0
H3808 H 0.89221 0.50956 0.85957 0.0
H3809 H 0.91229 0.52336 0.83794 0.0
C3810 C 0.61634 0.63231 0.09014 0.0
C3811 C 0.62742 0.63342 0.11483 0.0
C3812 C 0.6177 0.67468 0.12212 0.0
C3813 C 0.60388 0.67292 0.09904 0.0
N3814 N 0.58694 0.64993 0.06273 0.0
N3815 N 0.63779 0.65473 0.15543 0.0
C3816 C 0.60225 0.65168 0.08356 0.0
C3817 C 0.62799 0.65439 0.13117 0.0
N3818 N 0.62022 0.61297 0.07245 0.0
N3819 N 0.62139 0.69569 0.13489 0.0
H3820 H 0.64591 0.64015 0.16229 0.0
H3821 H 0.6365 0.66908 0.16941 0.0
H3822 H 0.61349 0.71078 0.129 0.0
H3823 H 0.63359 0.6983 0.15015 0.0
H3824 H 0.61515 0.61213 0.05294 0.0
H3825 H 0.63086 0.59835 0.07625 0.0
H3826 H 0.58252 0.63438 0.05295 0.0
H3827 H 0.57684 0.66383 0.05643 0.0
C3828 C 0.65013 0.31983 0.28919 0.0
C3829 C 0.64174 0.32573 0.31661 0.0
C3830 C 0.60189 0.30541 0.31071 0.0
C3831 C 0.60789 0.30374 0.28266 0.0
N3832 N 0.6405 0.30162 0.24591 0.0
N3833 N 0.60995 0.32436 0.35394 0.0
C3834 C 0.63303 0.30855 0.27214 0.0
C3835 C 0.61799 0.31807 0.32766 0.0
N3836 N 0.67409 0.32578 0.27948 0.0
N3837 N 0.58036 0.2957 0.32106 0.0
H3838 H 0.62142 0.33331 0.36696 0.0
H3839 H 0.59137 0.32202 0.36254 0.0
H3840 H 0.56794 0.28665 0.30932 0.0
H3841 H 0.57602 0.29481 0.34132 0.0
H3842 H 0.6809 0.32389 0.25945 0.0
H3843 H 0.68747 0.33303 0.2917 0.0
H3844 H 0.65879 0.30357 0.23645 0.0
H3845 H 0.6286 0.29209 0.2339 0.0
C3846 C 0.95078 0.37876 0.5062 0.0
C3847 C 0.94163 0.35791 0.49506 0.0
C3848 C 0.95005 0.34021 0.53495 0.0
C3849 C 0.95539 0.36164 0.54736 0.0
N3850 N 0.95875 0.40209 0.54675 0.0
N3851 N 0.92704 0.32021 0.50196 0.0
C3852 C 0.95553 0.38118 0.53349 0.0
C3853 C 0.93963 0.33904 0.51027 0.0
N3854 N 0.95423 0.39633 0.49103 0.0
N3855 N 0.95462 0.32095 0.54708 0.0
H3856 H 0.92145 0.3168 0.48299 0.0
H3857 H 0.92137 0.30812 0.5145 0.0
H3858 H 0.96269 0.32131 0.56531 0.0
H3859 H 0.9528 0.30452 0.53794 0.0
H3860 H 0.96353 0.41094 0.4973 0.0
H3861 H 0.94895 0.39585 0.47158 0.0
H3862 H 0.95591 0.41736 0.53857 0.0
H3863 H 0.96286 0.40423 0.56663 0.0
C3864 C 0.9426 0.35507 0.80819 0.0
C3865 C 0.96135 0.33717 0.79651 0.0
C3866 C 0.94901 0.34603 0.75209 0.0
C3867 C 0.93309 0.3658 0.76358 0.0
N3868 N 0.91623 0.38968 0.80321 0.0
N3869 N 0.97016 0.30944 0.75792 0.0
C3870 C 0.93016 0.37027 0.79183 0.0
C3871 C 0.96121 0.33093 0.76856 0.0
N3872 N 0.93442 0.35613 0.83465 0.0
N3873 N 0.95298 0.34169 0.72506 0.0
H3874 H 0.97468 0.29661 0.76964 0.0
H3875 H 0.96892 0.30308 0.73814 0.0
H3876 H 0.94252 0.35054 0.71241 0.0
H3877 H 0.96754 0.33017 0.71526 0.0
H3878 H 0.9197 0.36762 0.84415 0.0
H3879 H 0.93912 0.3432 0.84618 0.0
H3880 H 0.91619 0.39584 0.82324 0.0
H3881 H 0.90614 0.40053 0.79212 0.0
C3882 C 0.81915 0.64418 1.00593 0.0
C3883 C 0.80511 0.62716 0.01743 0.0
C3884 C 0.77736 0.65658 0.04604 0.0
C3885 C 0.79224 0.67351 0.0354 0.0
N3886 N 0.8314 0.68319 0.01021 0.0
N3887 N 0.77399 0.61653 0.05141 0.0
C3888 C 0.81437 0.66727 0.01684 0.0
C3889 C 0.7853 0.63323 0.03861 0.0
N3890 N 0.83586 0.6386 0.98348 0.0
N3891 N 0.75485 0.66281 0.06202 0.0
H3892 H 0.77893 0.59926 0.04586 0.0
H3893 H 0.76144 0.61977 0.06876 0.0
H3894 H 0.74803 0.67978 0.06714 0.0
H3895 H 0.74173 0.65125 0.06832 0.0
H3896 H 0.8437 0.65072 0.97214 0.0
H3897 H 0.84049 0.62188 0.97496 0.0
H3898 H 0.8493 0.67897 0.99919 0.0
H3899 H 0.82917 0.7003 0.01792 0.0
C3900 C 0.65442 0.55037 0.2667 0.0
C3901 C 0.65943 0.53495 0.28569 0.0
C3902 C 0.6901 0.51167 0.25242 0.0
C3903 C 0.68396 0.52637 0.23311 0.0
N3904 N 0.66182 0.56033 0.22149 0.0
N3905 N 0.68544 0.50372 0.29865 0.0
C3906 C 0.66665 0.54597 0.24024 0.0
C3907 C 0.67833 0.51641 0.2791 0.0
N3908 N 0.63715 0.56879 0.27375 0.0
N3909 N 0.70629 0.4926 0.24484 0.0
H3910 H 0.67698 0.50671 0.3182 0.0
H3911 H 0.70086 0.49139 0.29624 0.0
H3912 H 0.71623 0.48935 0.22595 0.0
H3913 H 0.70937 0.4796 0.25675 0.0
H3914 H 0.62936 0.579 0.26054 0.0
H3915 H 0.63044 0.57421 0.29335 0.0
H3916 H 0.65176 0.57619 0.22542 0.0
H3917 H 0.66873 0.55678 0.20149 0.0
C3918 C 0.69763 0.42001 0.50822 0.0
C3919 C 0.7094 0.40297 0.4883 0.0
C3920 C 0.69196 0.37327 0.51215 0.0
C3921 C 0.68024 0.3898 0.53275 0.0
N3922 N 0.67717 0.42858 0.55353 0.0
N3923 N 0.72772 0.36453 0.47824 0.0
C3924 C 0.68514 0.41314 0.53205 0.0
C3925 C 0.71029 0.38004 0.49304 0.0
N3926 N 0.69699 0.44236 0.50373 0.0
N3927 N 0.68392 0.35161 0.50874 0.0
H3928 H 0.74165 0.36939 0.46408 0.0
H3929 H 0.72996 0.3476 0.48223 0.0
H3930 H 0.66906 0.3456 0.52066 0.0
H3931 H 0.68982 0.34057 0.49159 0.0
H3932 H 0.68622 0.45529 0.51619 0.0
H3933 H 0.70652 0.44768 0.48678 0.0
H3934 H 0.68196 0.44556 0.55491 0.0
H3935 H 0.66751 0.42384 0.57084 0.0
C3936 C 0.91316 0.82169 0.51197 0.0
C3937 C 0.90058 0.8008 0.50939 0.0
C3938 C 0.85917 0.82263 0.50682 0.0
C3939 C 0.87067 0.84343 0.51443 0.0
N3940 N 0.90903 0.86235 0.52644 0.0
N3941 N 0.86081 0.7814 0.50546 0.0
C3942 C 0.89788 0.84288 0.51738 0.0
C3943 C 0.8733 0.80129 0.50728 0.0
N3944 N 0.93973 0.82136 0.50872 0.0
N3945 N 0.83523 0.82337 0.49742 0.0
H3946 H 0.87057 0.76535 0.50413 0.0
H3947 H 0.84057 0.78089 0.50688 0.0
H3948 H 0.82597 0.8388 0.49435 0.0
H3949 H 0.82648 0.809 0.48944 0.0
H3950 H 0.94999 0.83601 0.50755 0.0
H3951 H 0.95138 0.80623 0.50472 0.0
H3952 H 0.92812 0.86252 0.53173 0.0
H3953 H 0.89858 0.8781 0.5307 0.0
C3954 C 0.2551 0.61412 0.32105 0.0
C3955 C 0.25083 0.5928 0.30679 0.0
C3956 C 0.29444 0.57796 0.315 0.0
C3957 C 0.29938 0.59976 0.32748 0.0
N3958 N 0.28644 0.63976 0.33825 0.0
N3959 N 0.26827 0.55612 0.28523 0.0
C3960 C 0.28028 0.61818 0.32934 0.0
C3961 C 0.27105 0.57517 0.30238 0.0
N3962 N 0.23493 0.63019 0.3277 0.0
N3963 N 0.3118 0.5598 0.31582 0.0
H3964 H 0.25182 0.55391 0.27482 0.0
H3965 H 0.28325 0.54367 0.2792 0.0
H3966 H 0.32918 0.56125 0.32487 0.0
H3967 H 0.30796 0.54301 0.30962 0.0
H3968 H 0.23603 0.64466 0.34115 0.0
H3969 H 0.21644 0.62841 0.32129 0.0
H3970 H 0.27435 0.65426 0.33722 0.0
H3971 H 0.3046 0.64352 0.34463 0.0
C3972 C 0.65789 0.09623 0.56356 0.0
C3973 C 0.63643 0.10885 0.5555 0.0
C3974 C 0.62987 0.07864 0.52041 0.0
C3975 C 0.65095 0.06581 0.52874 0.0
N3976 N 0.68813 0.06279 0.55421 0.0
N3977 N 0.60474 0.11448 0.52361 0.0
C3978 C 0.66611 0.07482 0.549 0.0
C3979 C 0.62344 0.10087 0.53294 0.0
N3980 N 0.66962 0.10443 0.58553 0.0
N3981 N 0.61506 0.06898 0.5015 0.0
H3982 H 0.59756 0.1303 0.53313 0.0
H3983 H 0.59734 0.11082 0.50527 0.0
H3984 H 0.62005 0.05318 0.4905 0.0
H3985 H 0.59699 0.07593 0.49761 0.0
H3986 H 0.68383 0.09523 0.59408 0.0
H3987 H 0.66432 0.12043 0.59596 0.0
H3988 H 0.70116 0.06895 0.56743 0.0
H3989 H 0.69437 0.047 0.54377 0.0
C3990 C 0.30903 0.40199 0.84277 0.0
C3991 C 0.28953 0.3965 0.86207 0.0
C3992 C 0.27748 0.43701 0.87544 0.0
C3993 C 0.2979 0.44245 0.85717 0.0
N3994 N 0.32862 0.43144 0.81915 0.0
N3995 N 0.2563 0.40788 0.89817 0.0
C3996 C 0.31243 0.42527 0.83956 0.0
C3997 C 0.27383 0.41378 0.87863 0.0
N3998 N 0.32493 0.38495 0.82843 0.0
N3999 N 0.26129 0.45411 0.88924 0.0
H4000 H 0.25237 0.39103 0.90053 0.0
H4001 H 0.24657 0.41944 0.91311 0.0
H4002 H 0.26322 0.47123 0.88685 0.0
H4003 H 0.24466 0.45151 0.90135 0.0
H4004 H 0.34139 0.38776 0.81616 0.0
H4005 H 0.32259 0.36769 0.82997 0.0
H4006 H 0.33861 0.41997 0.80428 0.0
H4007 H 0.33011 0.44844 0.81568 0.0
C4008 C 0.40186 0.53322 0.60382 0.0
C4009 C 0.3883 0.55054 0.62243 0.0
C4010 C 0.41406 0.53623 0.65726 0.0
C4011 C 0.4222 0.51616 0.64008 0.0
N4012 N 0.42487 0.49578 0.59625 0.0
N4013 N 0.38397 0.56957 0.66769 0.0
C4014 C 0.41675 0.51495 0.61301 0.0
C4015 C 0.39563 0.55275 0.64925 0.0
N4016 N 0.40107 0.53464 0.57718 0.0
N4017 N 0.42386 0.53924 0.68151 0.0
H4018 H 0.37104 0.58241 0.66335 0.0
H4019 H 0.3858 0.5701 0.68803 0.0
H4020 H 0.43717 0.52727 0.68746 0.0
H4021 H 0.42104 0.55427 0.6944 0.0
H4022 H 0.41214 0.5237 0.56251 0.0
H4023 H 0.39165 0.54843 0.56988 0.0
H4024 H 0.41873 0.49236 0.57726 0.0
H4025 H 0.43694 0.48278 0.60198 0.0
C4026 C 0.7016 0.11963 0.07608 0.0
C4027 C 0.72155 0.13205 0.0646 0.0
C4028 C 0.69098 0.16559 0.06678 0.0
C4029 C 0.67092 0.15262 0.07753 0.0
N4030 N 0.66154 0.12246 0.10466 0.0
N4031 N 0.73732 0.16778 0.05358 0.0
C4032 C 0.6776 0.13119 0.08596 0.0
C4033 C 0.7169 0.15541 0.06139 0.0
N4034 N 0.70525 0.09668 0.07718 0.0
N4035 N 0.68547 0.18749 0.06195 0.0
H4036 H 0.7562 0.16046 0.04861 0.0
H4037 H 0.73608 0.18539 0.05333 0.0
H4038 H 0.66836 0.19669 0.0697 0.0
H4039 H 0.69817 0.19688 0.0511 0.0
H4040 H 0.69023 0.08665 0.08312 0.0
H4041 H 0.7225 0.08727 0.06991 0.0
H4042 H 0.66657 0.10772 0.11316 0.0
H4043 H 0.64493 0.13167 0.11426 0.0
C4044 C 0.59061 0.01498 0.76092 0.0
C4045 C 0.60313 1.00632 0.73541 0.0
C4046 C 0.60829 0.04551 0.72542 0.0
C4047 C 0.60306 0.05336 0.7528 0.0
N4048 N 0.58108 0.04719 0.79505 0.0
N4049 N 0.62509 0.01432 0.69333 0.0
C4050 C 0.59146 0.03864 0.77011 0.0
C4051 C 0.61181 0.02183 0.71739 0.0
N4052 N 0.57709 1.00077 0.77582 0.0
N4053 N 0.60969 0.0608 0.70702 0.0
H4054 H 0.62907 0.99728 0.68624 0.0
H4055 H 0.63444 0.0252 0.68127 0.0
H4056 H 0.60583 0.07826 0.71229 0.0
H4057 H 0.61142 0.05601 0.68653 0.0
H4058 H 0.56561 1.00618 0.79345 0.0
H4059 H 0.57549 0.98361 0.76946 0.0
H4060 H 0.5763 0.03718 0.81021 0.0
H4061 H 0.57625 0.06452 0.80027 0.0
C4062 C 0.85104 0.08592 0.32852 0.0
C4063 C 0.85365 0.06491 0.31182 0.0
C4064 C 0.89315 0.07719 0.28838 0.0
C4065 C 0.89013 0.09858 0.30428 0.0
N4066 N 0.86259 0.12543 0.33485 0.0
N4067 N 0.87113 0.04522 0.26931 0.0
C4068 C 0.86791 0.10363 0.32298 0.0
C4069 C 0.8728 0.06197 0.28968 0.0
N4070 N 0.83251 0.08889 0.34967 0.0
N4071 N 0.91585 0.07089 0.27279 0.0
H4072 H 0.85485 0.03566 0.26798 0.0
H4073 H 0.88377 0.04326 0.25196 0.0
H4074 H 0.93161 0.08122 0.27163 0.0
H4075 H 0.91996 0.05446 0.26309 0.0
H4076 H 0.83132 0.10283 0.36424 0.0
H4077 H 0.81898 0.07677 0.35322 0.0
H4078 H 0.84538 0.13073 0.34663 0.0
H4079 H 0.8744 0.13873 0.33093 0.0
C4080 C 0.44331 0.1667 0.17117 0.0
C4081 C 0.43127 0.15716 0.14875 0.0
C4082 C 0.43599 0.11916 0.16244 0.0
C4083 C 0.44583 0.12919 0.18576 0.0
N4084 N 0.46935 0.15896 0.20709 0.0
N4085 N 0.42469 0.12434 0.11796 0.0
C4086 C 0.45363 0.15175 0.1879 0.0
C4087 C 0.43072 0.13325 0.14252 0.0
N4088 N 0.44266 0.18979 0.17798 0.0
N4089 N 0.43008 0.0968 0.16027 0.0
H4090 H 0.42088 0.13458 0.10301 0.0
H4091 H 0.42581 0.10692 0.11168 0.0
H4092 H 0.43456 0.08598 0.17442 0.0
H4093 H 0.41998 0.08925 0.14504 0.0
H4094 H 0.44884 0.19721 0.19576 0.0
H4095 H 0.43393 0.20165 0.16717 0.0
H4096 H 0.47717 0.17493 0.20843 0.0
H4097 H 0.47661 0.14791 0.21986 0.0
C4098 C 0.55521 0.7653 0.90577 0.0
C4099 C 0.5629 0.74927 0.92302 0.0
C4100 C 0.55625 0.71822 0.88782 0.0
C4101 C 0.54911 0.73466 0.87076 0.0
N4102 N 0.55576 0.77312 0.86024 0.0
N4103 N 0.56725 0.70965 0.93151 0.0
C4104 C 0.55268 0.758 0.87865 0.0
C4105 C 0.5625 0.72543 0.91438 0.0
N4106 N 0.54884 0.78755 0.91557 0.0
N4107 N 0.55926 0.69576 0.8776 0.0
H4108 H 0.57316 0.71359 0.95043 0.0
H4109 H 0.56398 0.69243 0.9277 0.0
H4110 H 0.55712 0.69047 0.85763 0.0
H4111 H 0.56663 0.6827 0.88759 0.0
H4112 H 0.54117 0.79945 0.9041 0.0
H4113 H 0.5479 0.79331 0.93584 0.0
H4114 H 0.5601 0.79 0.86529 0.0
H4115 H 0.55869 0.76808 0.83987 0.0
C4116 C 0.1058 0.69779 0.60933 0.0
C4117 C 0.10737 0.70284 0.58221 0.0
C4118 C 0.09124 0.74271 0.59897 0.0
C4119 C 0.08897 0.73757 0.62589 0.0
N4120 N 0.08902 0.70873 0.65579 0.0
N4121 N 0.09202 0.72836 0.55236 0.0
C4122 C 0.09472 0.71462 0.63072 0.0
C4123 C 0.09758 0.7249 0.57745 0.0
N4124 N 0.11564 0.67714 0.61498 0.0
N4125 N 0.08732 0.76474 0.59362 0.0
H4126 H 0.09364 0.71501 0.53711 0.0
H4127 H 0.0824 0.74316 0.54768 0.0
H4128 H 0.08108 0.77809 0.60819 0.0
H4129 H 0.09198 0.76997 0.57491 0.0
H4130 H 0.11815 0.67333 0.63421 0.0
H4131 H 0.12296 0.66419 0.60037 0.0
H4132 H 0.08977 0.69196 0.66038 0.0
H4133 H 0.0813 0.72056 0.67164 0.0
C4134 C 0.98552 0.41792 0.25959 0.0
C4135 C 0.99744 0.42243 0.28374 0.0
C4136 C 0.02046 0.45336 0.26511 0.0
C4137 C 0.01178 0.4466 0.23991 0.0
N4138 N 0.98453 0.42413 0.21293 0.0
N4139 N 0.02755 0.44349 0.30924 0.0
C4140 C 0.99358 0.42949 0.23719 0.0
C4141 C 0.01507 0.44008 0.28653 0.0
N4142 N 0.96652 0.40263 0.25821 0.0
N4143 N 0.03359 0.4728 0.26847 0.0
H4144 H 0.02385 0.43441 0.32556 0.0
H4145 H 0.0429 0.45414 0.31125 0.0
H4146 H 0.03675 0.48309 0.25315 0.0
H4147 H 0.03883 0.47993 0.28678 0.0
H4148 H 0.95551 0.39963 0.24206 0.0
H4149 H 0.96063 0.39367 0.27411 0.0
H4150 H 0.97348 0.41026 0.20825 0.0
H4151 H 0.9885 0.43383 0.19722 0.0
C4152 C 0.48428 0.73292 0.37195 0.0
C4153 C 0.5106 0.73122 0.37852 0.0
C4154 C 0.50578 0.69037 0.38276 0.0
C4155 C 0.47841 0.69364 0.3821 0.0
N4156 N 0.44144 0.71719 0.37372 0.0
N4157 N 0.54662 0.7079 0.38993 0.0
C4158 C 0.46774 0.71453 0.37527 0.0
C4159 C 0.52161 0.70961 0.38316 0.0
N4160 N 0.47502 0.75246 0.36312 0.0
N4161 N 0.51633 0.66883 0.38375 0.0
H4162 H 0.55844 0.72171 0.39051 0.0
H4163 H 0.55525 0.6932 0.3959 0.0
H4164 H 0.50478 0.65481 0.3836 0.0
H4165 H 0.53632 0.66462 0.38208 0.0
H4166 H 0.45679 0.75465 0.35603 0.0
H4167 H 0.48692 0.76582 0.36073 0.0
H4168 H 0.43151 0.73272 0.3722 0.0
H4169 H 0.42933 0.70362 0.37485 0.0
C4170 C 0.91157 0.74532 0.07533 0.0
C4171 C 0.92259 0.72291 0.07414 0.0
C4172 C 0.87861 0.7087 0.0679 0.0
C4173 C 0.86717 0.73145 0.0734 0.0
N4174 N 0.87401 0.77062 0.08765 0.0
N4175 N 0.91653 0.68257 0.06983 0.0
C4176 C 0.88412 0.74941 0.07836 0.0
C4177 C 0.90619 0.70433 0.06997 0.0
N4178 N 0.92755 0.76302 0.0738 0.0
N4179 N 0.86313 0.69112 0.06205 0.0
H4180 H 0.93639 0.6788 0.07032 0.0
H4181 H 0.90545 0.66836 0.07039 0.0
H4182 H 0.84289 0.6932 0.06328 0.0
H4183 H 0.87035 0.67466 0.05476 0.0
H4184 H 0.92072 0.77991 0.07369 0.0
H4185 H 0.9478 0.76048 0.07025 0.0
H4186 H 0.88494 0.78271 0.09734 0.0
H4187 H 0.85441 0.77503 0.08754 0.0
C4188 C 0.19543 0.20845 0.93019 0.0
C4189 C 0.2016 0.2258 0.91351 0.0
C4190 C 0.18313 0.20276 0.87643 0.0
C4191 C 0.17576 0.18623 0.89359 0.0
N4192 N 0.17192 0.17465 0.93768 0.0
N4193 N 0.20854 0.235 0.868 0.0
C4194 C 0.18123 0.18942 0.92068 0.0
C4195 C 0.19756 0.2217 0.88584 0.0
N4196 N 0.20514 0.2092 0.95454 0.0
N4197 N 0.1753 0.20092 0.85122 0.0
H4198 H 0.21911 0.24902 0.87313 0.0
H4199 H 0.20918 0.23101 0.84745 0.0
H4200 H 0.16561 0.18706 0.84325 0.0
H4201 H 0.17637 0.21395 0.83895 0.0
H4202 H 0.20365 0.19623 0.96683 0.0
H4203 H 0.21755 0.22157 0.96117 0.0
H4204 H 0.1722 0.17738 0.95827 0.0
H4205 H 0.16182 0.16048 0.93141 0.0
C4206 C 0.55044 0.4256 0.64604 0.0
C4207 C 0.52673 0.42496 0.63286 0.0
C4208 C 0.54824 0.39175 0.60244 0.0
C4209 C 0.5719 0.39335 0.61497 0.0
N4210 N 0.59732 0.41714 0.64285 0.0
N4211 N 0.50732 0.41053 0.59318 0.0
C4212 C 0.57344 0.41189 0.63494 0.0
C4213 C 0.52689 0.40884 0.60955 0.0
N4214 N 0.55126 0.4382 0.67013 0.0
N4215 N 0.54588 0.3736 0.58393 0.0
H4216 H 0.4926 0.42356 0.59638 0.0
H4217 H 0.50736 0.40076 0.57482 0.0
H4218 H 0.56128 0.36158 0.57761 0.0
H4219 H 0.52832 0.36971 0.57624 0.0
H4220 H 0.56668 0.43643 0.68196 0.0
H4221 H 0.53614 0.4489 0.67985 0.0
H4222 H 0.60028 0.43196 0.65506 0.0
H4223 H 0.61459 0.40822 0.63462 0.0
C4224 C 0.14302 0.48582 0.13052 0.0
C4225 C 0.12671 0.47104 0.11677 0.0
C4226 C 0.16526 0.44663 0.09798 0.0
C4227 C 0.18145 0.46107 0.11253 0.0
N4228 N 0.18373 0.48887 0.15058 0.0
N4229 N 0.12263 0.44088 0.08217 0.0
C4230 C 0.16988 0.47921 0.13104 0.0
C4231 C 0.13813 0.45261 0.09867 0.0
N4232 N 0.13297 0.50657 0.14228 0.0
N4233 N 0.17563 0.42614 0.08544 0.0
H4234 H 0.10272 0.44538 0.08249 0.0
H4235 H 0.12977 0.42843 0.0668 0.0
H4236 H 0.19523 0.42084 0.08583 0.0
H4237 H 0.16444 0.41347 0.07724 0.0
H4238 H 0.14425 0.5188 0.15128 0.0
H4239 H 0.11417 0.51251 0.1394 0.0
H4240 H 0.17525 0.50057 0.16615 0.0
H4241 H 0.20245 0.48276 0.15351 0.0
C4242 C 0.41882 0.39054 0.93513 0.0
C4243 C 0.41641 0.38897 0.90741 0.0
C4244 C 0.42881 0.34821 0.90269 0.0
C4245 C 0.43455 0.35068 0.92963 0.0
N4246 N 0.43858 0.37465 0.97085 0.0
N4247 N 0.41915 0.36729 0.86418 0.0
C4248 C 0.43063 0.37199 0.94565 0.0
C4249 C 0.42132 0.36803 0.89092 0.0
N4250 N 0.40906 0.40954 0.95157 0.0
N4251 N 0.43 0.327 0.88877 0.0
H4252 H 0.41286 0.38151 0.85531 0.0
H4253 H 0.42477 0.35302 0.85063 0.0
H4254 H 0.43611 0.31231 0.89687 0.0
H4255 H 0.42354 0.32375 0.86991 0.0
H4256 H 0.40733 0.41028 0.97226 0.0
H4257 H 0.40028 0.42385 0.94479 0.0
H4258 H 0.43901 0.39049 0.98198 0.0
H4259 H 0.44691 0.36145 0.98002 0.0
C4260 C 0.41927 0.69017 0.76057 0.0
C4261 C 0.43345 0.70988 0.75719 0.0
C4262 C 0.42087 0.70736 0.71078 0.0
C4263 C 0.41087 0.68567 0.71369 0.0
N4264 N 0.40406 0.65509 0.74098 0.0
N4265 N 0.44359 0.73952 0.72899 0.0
C4266 C 0.4117 0.67658 0.73829 0.0
C4267 C 0.43319 0.71911 0.73218 0.0
N4268 N 0.41045 0.68482 0.78503 0.0
N4269 N 0.41706 0.71745 0.68824 0.0
H4270 H 0.44523 0.75191 0.74487 0.0
H4271 H 0.44916 0.74471 0.71045 0.0
H4272 H 0.40841 0.70943 0.67219 0.0
H4273 H 0.42099 0.73426 0.68589 0.0
H4274 H 0.41108 0.69562 0.80262 0.0
H4275 H 0.41108 0.69562 0.80262 0.0
H4276 H 0.40455 0.64794 0.75892 0.0
H4277 H 0.399 0.64411 0.72494 0.0
C4278 C 0.16677 0.60031 0.4172 0.0
C4279 C 0.14247 0.61179 0.4282 0.0
C4280 C 0.12916 0.60716 0.38076 0.0
C4281 C 0.15447 0.59761 0.3696 0.0
N4282 N 0.19853 0.58879 0.37901 0.0
N4283 N 0.1014 0.62828 0.41821 0.0
C4284 C 0.17339 0.59521 0.38849 0.0
C4285 C 0.12386 0.61553 0.40924 0.0
N4286 N 0.18365 0.59335 0.43446 0.0
N4287 N 0.10993 0.60851 0.36397 0.0
H4288 H 0.09676 0.63407 0.43831 0.0
H4289 H 0.08822 0.63435 0.40577 0.0
H4290 H 0.11323 0.60344 0.34357 0.0
H4291 H 0.09046 0.61303 0.37038 0.0
H4292 H 0.19999 0.58239 0.42836 0.0
H4293 H 0.1797 0.5965 0.45509 0.0
H4294 H 0.21409 0.59054 0.39074 0.0
H4295 H 0.20409 0.58356 0.35897 0.0
C4296 C 0.07741 0.67684 0.14381 0.0
C4297 C 0.06085 0.69642 0.15407 0.0
C4298 C 0.06387 0.68505 0.19886 0.0
C4299 C 0.08294 0.66729 0.18908 0.0
N4300 N 0.08889 0.63834 0.1515 0.0
N4301 N 0.04725 0.7228 0.19351 0.0
C4302 C 0.0851 0.66079 0.16116 0.0
C4303 C 0.05655 0.70162 0.1822 0.0
N4304 N 0.08653 0.67374 0.11756 0.0
N4305 N 0.05057 0.68468 0.22321 0.0
H4306 H 0.04631 0.73686 0.18282 0.0
H4307 H 0.04508 0.72717 0.21409 0.0
H4308 H 0.05334 0.67112 0.23452 0.0
H4309 H 0.03477 0.69611 0.23022 0.0
H4310 H 0.09976 0.66028 0.10967 0.0
H4311 H 0.08353 0.68616 0.10475 0.0
H4312 H 0.08885 0.63253 0.13134 0.0
H4313 H 0.0864 0.62558 0.16406 0.0
C4314 C 0.20189 0.37863 1.00302 0.0
C4315 C 0.22452 0.36623 0.98966 0.0
C4316 C 0.25032 0.39942 1.00382 0.0
C4317 C 0.22749 0.41225 0.01698 0.0
N4318 N 0.17992 0.41425 0.02289 0.0
N4319 N 0.26991 0.36661 0.97413 0.0
C4320 C 0.2029 0.40192 0.01474 0.0
C4321 C 0.24855 0.3772 0.98918 0.0
N4322 N 0.17892 0.36805 1.00487 0.0
N4323 N 0.2741 0.40848 1.00489 0.0
H4324 H 0.27016 0.35014 0.96444 0.0
H4325 H 0.28703 0.37455 0.96964 0.0
H4326 H 0.27638 0.42567 0.01028 0.0
H4327 H 0.29177 0.39889 1.00075 0.0
H4328 H 0.16294 0.37418 0.01813 0.0
H4329 H 0.17611 0.35241 0.99421 0.0
H4330 H 0.16193 0.40916 0.01731 0.0
H4331 H 0.1781 0.43012 0.03388 0.0
C4332 C 0.38195 0.47138 0.78927 0.0
C4333 C 0.36739 0.49284 0.79381 0.0
C4334 C 0.3788 0.49877 0.74664 0.0
C4335 C 0.3951 0.47824 0.74276 0.0
N4336 N 0.41378 0.44572 0.76095 0.0
N4337 N 0.35241 0.52739 0.77732 0.0
C4338 C 0.39672 0.46454 0.76412 0.0
C4339 C 0.36579 0.50655 0.77249 0.0
N4340 N 0.38187 0.45757 0.80927 0.0
N4341 N 0.37566 0.51072 0.72534 0.0
H4342 H 0.34191 0.53298 0.79553 0.0
H4343 H 0.35233 0.53956 0.76395 0.0
H4344 H 0.38438 0.50521 0.70625 0.0
H4345 H 0.36336 0.52529 0.7259 0.0
H4346 H 0.38941 0.44072 0.80679 0.0
H4347 H 0.37243 0.46236 0.8282 0.0
H4348 H 0.41864 0.43649 0.77637 0.0
H4349 H 0.42451 0.43987 0.74297 0.0
C4350 C 0.3754 0.59559 0.4858 0.0
C4351 C 0.39144 0.61444 0.48968 0.0
C4352 C 0.38135 0.61534 0.53814 0.0
C4353 C 0.3615 0.60035 0.53382 0.0
N4354 N 0.34793 0.56872 0.50653 0.0
N4355 N 0.40609 0.64449 0.52105 0.0
C4356 C 0.36069 0.58833 0.50833 0.0
C4357 C 0.39402 0.62457 0.51629 0.0
N4358 N 0.3745 0.58455 0.46083 0.0
N4359 N 0.38865 0.62024 0.56328 0.0
H4360 H 0.41301 0.65407 0.50634 0.0
H4361 H 0.40587 0.65345 0.53993 0.0
H4362 H 0.38066 0.61236 0.57926 0.0
H4363 H 0.40486 0.62938 0.56748 0.0
H4364 H 0.36142 0.57226 0.45604 0.0
H4365 H 0.38697 0.58775 0.44457 0.0
H4366 H 0.34636 0.55823 0.489 0.0
H4367 H 0.34179 0.56175 0.52386 0.0
C4368 C 0.18686 0.16831 0.37347 0.0
C4369 C 0.18183 0.15113 0.39036 0.0
C4370 C 0.15468 0.17885 0.42086 0.0
C4371 C 0.16607 0.19691 0.4083 0.0
N4372 N 0.19114 0.20834 0.36978 0.0
N4373 N 0.1456 0.13929 0.41767 0.0
C4374 C 0.1818 0.19156 0.38381 0.0
C4375 C 0.16098 0.15607 0.41033 0.0
N4376 N 0.19117 0.16245 0.34666 0.0
N4377 N 0.13801 0.18267 0.44327 0.0
H4378 H 0.1474 0.12294 0.40731 0.0
H4379 H 0.12984 0.1424 0.43219 0.0
H4380 H 0.13305 0.19878 0.45334 0.0
H4381 H 0.13305 0.19878 0.45334 0.0
H4382 H 0.19242 0.17438 0.33294 0.0
H4383 H 0.18951 0.14571 0.33824 0.0
H4384 H 0.20486 0.20486 0.35333 0.0
H4385 H 0.18621 0.22564 0.3751 0.0
C4386 C 0.78793 0.39054 0.69336 0.0
C4387 C 0.78277 0.38436 0.66674 0.0
C4388 C 0.82745 0.36669 0.65833 0.0
C4389 C 0.83043 0.36945 0.68615 0.0
N4390 N 0.80757 0.37711 0.73032 0.0
N4391 N 0.80613 0.38279 0.62342 0.0
C4392 C 0.80887 0.37924 0.70375 0.0
C4393 C 0.80473 0.37655 0.64858 0.0
N4394 N 0.77464 0.40892 0.70788 0.0
N4395 N 0.84601 0.35425 0.64122 0.0
H4396 H 0.7928 0.39504 0.6181 0.0
H4397 H 0.82263 0.37931 0.60994 0.0
H4398 H 0.86184 0.34552 0.64798 0.0
H4399 H 0.84389 0.35043 0.62099 0.0
H4400 H 0.77943 0.41523 0.72676 0.0
H4401 H 0.76104 0.41907 0.69948 0.0
H4402 H 0.79151 0.38367 0.74331 0.0
H4403 H 0.82047 0.3661 0.73835 0.0
C4404 C 0.40011 0.88206 0.44774 0.0
C4405 C 0.41957 0.88191 0.46589 0.0
C4406 C 0.4049 0.92002 0.48595 0.0
C4407 C 0.3884 0.92174 0.46522 0.0
N4408 N 0.36744 0.90461 0.42809 0.0
N4409 N 0.43904 0.89944 0.5042 0.0
C4410 C 0.38467 0.90258 0.4469 0.0
C4411 C 0.42103 0.90023 0.48594 0.0
N4412 N 0.39712 0.86273 0.43114 0.0
N4413 N 0.40698 0.93771 0.50511 0.0
H4414 H 0.45183 0.88534 0.50501 0.0
H4415 H 0.44105 0.91302 0.5187 0.0
H4416 H 0.39597 0.95322 0.50681 0.0
H4417 H 0.39597 0.95322 0.50681 0.0
H4418 H 0.38285 0.86111 0.41786 0.0
H4419 H 0.40831 0.84759 0.43185 0.0
H4420 H 0.36499 0.89201 0.4127 0.0
H4421 H 0.35551 0.91941 0.42785 0.0
C4422 C 0.77242 0.59295 0.16569 0.0
C4423 C 0.74714 0.58675 0.1744 0.0
C4424 C 0.73141 0.62722 0.17832 0.0
C4425 C 0.7552 0.63251 0.16483 0.0
N4426 N 0.79767 0.61981 0.14306 0.0
N4427 N 0.70277 0.59815 0.1909 0.0
C4428 C 0.77568 0.61528 0.15812 0.0
C4429 C 0.72674 0.60404 0.18139 0.0
N4430 N 0.79335 0.57762 0.16456 0.0
N4431 N 0.71356 0.64447 0.18881 0.0
H4432 H 0.69977 0.58192 0.19631 0.0
H4433 H 0.68596 0.60897 0.19279 0.0
H4434 H 0.71651 0.66163 0.18721 0.0
H4435 H 0.6969 0.64207 0.201 0.0
H4436 H 0.81255 0.58192 0.16076 0.0
H4437 H 0.79176 0.56113 0.16974 0.0
H4438 H 0.81183 0.60723 0.13484 0.0
H4439 H 0.80069 0.63579 0.13679 0.0
C4440 C 0.67304 0.50492 0.38876 0.0
C4441 C 0.64653 0.49922 0.39387 0.0
C4442 C 0.66117 0.47304 0.42541 0.0
C4443 C 0.68756 0.47784 0.41899 0.0
N4444 N 0.71907 0.49688 0.39328 0.0
N4445 N 0.61578 0.47625 0.41519 0.0
C4446 C 0.69349 0.49358 0.40056 0.0
C4447 C 0.64077 0.48286 0.41183 0.0
N4448 N 0.6789 0.52166 0.37311 0.0
N4449 N 0.6558 0.45903 0.44469 0.0
H4450 H 0.6007 0.48286 0.4052 0.0
H4451 H 0.61017 0.46314 0.42616 0.0
H4452 H 0.67039 0.45183 0.45484 0.0
H4453 H 0.63708 0.45583 0.45212 0.0
H4454 H 0.69652 0.52953 0.37259 0.0
H4455 H 0.66603 0.52815 0.36084 0.0
H4456 H 0.72535 0.505 0.37687 0.0
H4457 H 0.73432 0.4905 0.40316 0.0
C4458 C 0.32382 0.90091 0.9566 0.0
C4459 C 0.34444 0.88825 0.94026 0.0
C4460 C 0.31526 0.88533 0.90319 0.0
C4461 C 0.29414 0.89774 0.91972 0.0
N4462 N 0.27771 0.91187 0.96506 0.0
N4463 N 0.35769 0.86415 0.89978 0.0
C4464 C 0.29832 0.90383 0.94725 0.0
C4465 C 0.33932 0.87902 0.91421 0.0
N4466 N 0.32879 0.9111 0.981 0.0
N4467 N 0.31343 0.88094 0.87644 0.0
H4468 H 0.37547 0.85982 0.90695 0.0
H4469 H 0.35441 0.85457 0.88204 0.0
H4470 H 0.29712 0.88569 0.86712 0.0
H4471 H 0.32902 0.87436 0.86293 0.0
H4472 H 0.31607 0.92335 0.99241 0.0
H4473 H 0.34647 0.90835 0.98913 0.0
H4474 H 0.27869 0.91374 0.9856 0.0
H4475 H 0.2589 0.91467 0.95976 0.0
C4476 C 0.44748 0.96662 0.2581 0.0
C4477 C 0.44001 0.97171 0.23283 0.0
C4478 C 0.45373 0.01052 0.24133 0.0
C4479 C 0.45876 1.00645 0.26754 0.0
N4480 N 0.46737 0.97962 0.29861 0.0
N4481 N 0.44864 0.99388 0.19646 0.0
C4482 C 0.45799 0.98406 0.27516 0.0
C4483 C 0.44768 0.99212 0.22314 0.0
N4484 N 0.44413 0.94551 0.26599 0.0
N4485 N 0.45298 0.03218 0.23424 0.0
H4486 H 0.44477 0.98016 0.18286 0.0
H4487 H 0.45597 0.00776 0.18785 0.0
H4488 H 0.4574 0.04616 0.24698 0.0
H4489 H 0.44641 0.03638 0.2164 0.0
H4490 H 0.44489 0.94178 0.28551 0.0
H4491 H 0.44134 0.93136 0.25268 0.0
H4492 H 0.46892 0.96347 0.30494 0.0
H4493 H 0.4755 0.99208 0.31099 0.0
C4494 C 0.16722 0.94454 0.65044 0.0
C4495 C 0.18054 0.94567 0.62497 0.0
C4496 C 0.16805 0.9075 0.61032 0.0
C4497 C 0.15009 0.90883 0.63328 0.0
N4498 N 0.13093 0.92934 0.67468 0.0
N4499 N 0.19475 0.92808 0.58064 0.0
C4500 C 0.1494 0.9274 0.65344 0.0
C4501 C 0.18136 0.92705 0.60487 0.0
N4502 N 0.17175 0.95948 0.67179 0.0
N4503 N 0.17285 0.88735 0.59424 0.0
H4504 H 0.20621 0.94156 0.57656 0.0
H4505 H 0.19347 0.91611 0.56423 0.0
H4506 H 0.16391 0.87246 0.59818 0.0
H4507 H 0.18754 0.88477 0.57864 0.0
H4508 H 0.16462 0.95759 0.69123 0.0
H4509 H 0.18421 0.97272 0.67056 0.0
H4510 H 0.12782 0.94394 0.68833 0.0
H4511 H 0.11729 0.91718 0.67749 0.0
loop_
_geom_bond_atom_site_label_1
_geom_bond_atom_site_label_2
_geom_bond_distance
_geom_bond_site_symmetry_2
_ccdc_geom_bond_type
Nd0 C2 2.836 . S
Nd0 O20 2.500 . S
Nd0 O21 2.492 . S
Nd0 O22 2.487 . S
Nd0 O23 2.682 . S
Nd0 O24 2.410 . S
Nd0 O29 2.414 . S
Nd0 O31 2.424 . S
Nd1 C11 2.836 . S
Nd1 O23 2.414 . S
Nd1 O25 2.424 . S
Nd1 O26 2.500 . S
Nd1 O27 2.492 . S
Nd1 O28 2.487 . S
Nd1 O29 2.682 . S
Nd1 O30 2.410 . S
C2 Nd0 2.836 . S
C2 C3 1.498 . S
C2 O20 1.258 . S
C2 O21 1.239 . S
C3 C2 1.498 . S
C3 C4 1.366 . S
C3 C8 1.407 . S
C4 C3 1.366 . S
C4 C5 1.392 . S
C4 H32 0.930 . S
C5 C4 1.392 . S
C5 C6 1.398 . S
C5 H33 0.929 . S
C6 C5 1.398 . S
C6 C7 1.352 . S
C7 C6 1.352 . S
C7 C8 1.384 . S
C7 H34 0.930 . S
C8 C3 1.407 . S
C8 C7 1.384 . S
C8 H35 0.929 . S
C9 O22 1.241 . S
C9 O23 1.273 . S
C10 O24 1.251 . S
C10 O25 1.268 . S
C11 Nd1 2.836 . S
C11 C12 1.498 . S
C11 O26 1.258 . S
C11 O27 1.239 . S
C12 C11 1.498 . S
C12 C13 1.366 . S
C12 C17 1.387 1_455 S
C13 C12 1.366 . S
C13 C14 1.392 . S
C13 H36 0.930 . S
C14 C13 1.392 . S
C14 C15 1.398 . S
C14 H37 0.929 . S
C15 C14 1.398 . S
C15 C16 1.352 1_455 S
C16 C15 1.352 1_655 S
C16 C17 1.388 . S
C16 H38 0.930 . S
C17 C12 1.387 1_655 S
C17 C16 1.388 . S
C17 H39 0.946 . S
C18 O28 1.241 . S
C18 O29 1.273 . S
C19 O30 1.251 . S
C19 O31 1.268 . S
O20 Nd0 2.500 . S
O20 C2 1.258 . S
O21 Nd0 2.492 . S
O21 C2 1.239 . S
O22 Nd0 2.487 . S
O22 C9 1.241 . S
O23 Nd0 2.682 . S
O23 Nd1 2.414 . S
O23 C9 1.273 . S
O24 Nd0 2.410 . S
O24 C10 1.251 . S
O25 Nd1 2.424 . S
O25 C10 1.268 . S
O26 Nd1 2.500 . S
O26 C11 1.258 . S
O27 Nd1 2.492 . S
O27 C11 1.239 . S
O28 Nd1 2.487 . S
O28 C18 1.241 . S
O29 Nd0 2.414 . S
O29 Nd1 2.682 . S
O29 C18 1.273 . S
O30 Nd1 2.410 . S
O30 C19 1.251 . S
O31 Nd0 2.424 . S
O31 C19 1.268 . S
H32 C4 0.930 . S
H33 C5 0.929 . S
H34 C7 0.930 . S
H35 C8 0.929 . S
H36 C13 0.930 . S
H37 C14 0.929 . S
H38 C16 0.930 . S
H39 C17 0.946 . S
Nd40 C42 2.836 . S
Nd40 O60 2.500 . S
Nd40 O61 2.492 . S
Nd40 O62 2.487 . S
Nd40 O63 2.682 . S
Nd40 O64 2.410 . S
Nd40 O69 2.414 . S
Nd40 O71 2.424 . S
Nd41 C51 2.836 . S
Nd41 O63 2.414 . S
Nd41 O65 2.424 . S
Nd41 O66 2.500 . S
Nd41 O67 2.492 . S
Nd41 O68 2.487 . S
Nd41 O69 2.682 . S
Nd41 O70 2.410 . S
C42 Nd40 2.836 . S
C42 C43 1.498 . S
C42 O60 1.258 . S
C42 O61 1.239 . S
C43 C42 1.498 . S
C43 C44 1.366 . S
C43 C48 1.407 . S
C44 C43 1.366 . S
C44 C45 1.392 . S
C44 H72 0.930 . S
C45 C44 1.392 . S
C45 C46 1.398 . S
C45 H73 0.929 . S
C46 C45 1.398 . S
C46 C47 1.352 . S
C47 C46 1.352 . S
C47 C48 1.384 . S
C47 H74 0.930 . S
C48 C43 1.407 . S
C48 C47 1.384 . S
C48 H75 0.929 . S
C49 O62 1.241 . S
C49 O63 1.273 . S
C50 O64 1.251 . S
C50 O65 1.268 . S
C51 Nd41 2.836 . S
C51 C52 1.498 . S
C51 O66 1.258 . S
C51 O67 1.239 . S
C52 C51 1.498 . S
C52 C53 1.366 . S
C52 C57 1.407 . S
C53 C52 1.366 . S
C53 C54 1.392 . S
C53 H76 0.930 . S
C54 C53 1.392 . S
C54 C55 1.398 . S
C54 H77 0.929 . S
C55 C54 1.398 . S
C55 C56 1.352 . S
C56 C55 1.352 . S
C56 C57 1.384 . S
C56 H78 0.930 . S
C57 C52 1.407 . S
C57 C56 1.384 . S
C57 H79 0.929 . S
C58 O68 1.241 . S
C58 O69 1.273 . S
C59 O70 1.251 . S
C59 O71 1.268 . S
O60 Nd40 2.500 . S
O60 C42 1.258 . S
O61 Nd40 2.492 . S
O61 C42 1.239 . S
O62 Nd40 2.487 . S
O62 C49 1.241 . S
O63 Nd40 2.682 . S
O63 Nd41 2.414 . S
O63 C49 1.273 . S
O64 Nd40 2.410 . S
O64 C50 1.251 . S
O65 Nd41 2.424 . S
O65 C50 1.268 . S
O66 Nd41 2.500 . S
O66 C51 1.258 . S
O67 Nd41 2.492 . S
O67 C51 1.239 . S
O68 Nd41 2.487 . S
O68 C58 1.241 . S
O69 Nd40 2.414 . S
O69 Nd41 2.682 . S
O69 C58 1.273 . S
O70 Nd41 2.410 . S
O70 C59 1.251 . S
O71 Nd40 2.424 . S
O71 C59 1.268 . S
H72 C44 0.930 . S
H73 C45 0.929 . S
H74 C47 0.930 . S
H75 C48 0.929 . S
H76 C53 0.930 . S
H77 C54 0.929 . S
H78 C56 0.930 . S
H79 C57 0.929 . S
Nd80 C82 2.836 . S
Nd80 O100 2.500 . S
Nd80 O101 2.492 . S
Nd80 O102 2.487 . S
Nd80 O103 2.682 . S
Nd80 O104 2.410 . S
Nd80 O109 2.414 . S
Nd80 O111 2.424 . S
Nd81 C91 2.836 . S
Nd81 O103 2.414 . S
Nd81 O105 2.424 . S
Nd81 O106 2.500 . S
Nd81 O107 2.492 . S
Nd81 O108 2.487 . S
Nd81 O109 2.682 . S
Nd81 O110 2.410 . S
C82 Nd80 2.836 . S
C82 C83 1.498 . S
C82 O100 1.258 . S
C82 O101 1.239 . S
C83 C82 1.498 . S
C83 C84 1.366 . S
C83 C88 1.407 . S
C84 C83 1.366 . S
C84 C85 1.392 . S
C84 H112 0.930 . S
C85 C84 1.392 . S
C85 C86 1.398 . S
C85 H113 0.929 . S
C86 C85 1.398 . S
C86 C87 1.352 . S
C87 C86 1.352 . S
C87 C88 1.384 . S
C87 H114 0.930 . S
C88 C83 1.407 . S
C88 C87 1.384 . S
C88 H115 0.929 . S
C89 O102 1.241 . S
C89 O103 1.273 . S
C90 O104 1.251 . S
C90 O105 1.268 . S
C91 Nd81 2.836 . S
C91 C92 1.498 . S
C91 O106 1.258 . S
C91 O107 1.239 . S
C92 C91 1.498 . S
C92 C93 1.366 . S
C92 C97 1.407 . S
C93 C92 1.366 . S
C93 C94 1.392 . S
C93 H116 0.930 . S
C94 C93 1.392 . S
C94 C95 1.398 . S
C94 H117 0.929 . S
C95 C94 1.398 . S
C95 C96 1.352 . S
C96 C95 1.352 . S
C96 C97 1.384 . S
C96 H118 0.930 . S
C97 C92 1.407 . S
C97 C96 1.384 . S
C97 H119 0.929 . S
C98 O108 1.241 . S
C98 O109 1.273 . S
C99 O110 1.251 . S
C99 O111 1.268 . S
O100 Nd80 2.500 . S
O100 C82 1.258 . S
O101 Nd80 2.492 . S
O101 C82 1.239 . S
O102 Nd80 2.487 . S
O102 C89 1.241 . S
O103 Nd80 2.682 . S
O103 Nd81 2.414 . S
O103 C89 1.273 . S
O104 Nd80 2.410 . S
O104 C90 1.251 . S
O105 Nd81 2.424 . S
O105 C90 1.268 . S
O106 Nd81 2.500 . S
O106 C91 1.258 . S
O107 Nd81 2.492 . S
O107 C91 1.239 . S
O108 Nd81 2.487 . S
O108 C98 1.241 . S
O109 Nd80 2.414 . S
O109 Nd81 2.682 . S
O109 C98 1.273 . S
O110 Nd81 2.410 . S
O110 C99 1.251 . S
O111 Nd80 2.424 . S
O111 C99 1.268 . S
H112 C84 0.930 . S
H113 C85 0.929 . S
H114 C87 0.930 . S
H115 C88 0.929 . S
H116 C93 0.930 . S
H117 C94 0.929 . S
H118 C96 0.930 . S
H119 C97 0.929 . S
Nd120 C122 2.836 . S
Nd120 O140 2.500 . S
Nd120 O141 2.492 . S
Nd120 O142 2.487 . S
Nd120 O143 2.682 . S
Nd120 O144 2.410 . S
Nd120 O149 2.414 . S
Nd120 O151 2.424 . S
Nd121 C131 2.836 . S
Nd121 O143 2.414 . S
Nd121 O145 2.424 . S
Nd121 O146 2.500 . S
Nd121 O147 2.492 . S
Nd121 O148 2.487 . S
Nd121 O149 2.682 . S
Nd121 O150 2.410 . S
C122 Nd120 2.836 . S
C122 C123 1.498 . S
C122 O140 1.258 . S
C122 O141 1.239 . S
C123 C122 1.498 . S
C123 C124 1.366 . S
C123 C128 1.407 . S
C124 C123 1.366 . S
C124 C125 1.392 . S
C124 H152 0.930 . S
C125 C124 1.392 . S
C125 C126 1.398 . S
C125 H153 0.929 . S
C126 C125 1.398 . S
C126 C127 1.352 . S
C127 C126 1.352 . S
C127 C128 1.384 . S
C127 H154 0.930 . S
C128 C123 1.407 . S
C128 C127 1.384 . S
C128 H155 0.929 . S
C129 O142 1.241 . S
C129 O143 1.273 . S
C130 O144 1.251 . S
C130 O145 1.268 . S
C131 Nd121 2.836 . S
C131 C132 1.498 1_554 S
C131 O146 1.258 . S
C131 O147 1.239 . S
C132 C131 1.498 1_556 S
C132 C133 1.366 . S
C132 C137 1.407 . S
C133 C132 1.366 . S
C133 C134 1.392 . S
C133 H156 0.930 . S
C134 C133 1.392 . S
C134 C135 1.398 . S
C134 H157 0.929 . S
C135 C134 1.398 . S
C135 C136 1.352 . S
C136 C135 1.352 . S
C136 C137 1.384 . S
C136 H158 0.930 . S
C137 C132 1.407 . S
C137 C136 1.384 . S
C137 H159 0.929 . S
C138 O148 1.241 . S
C138 O149 1.273 . S
C139 O150 1.251 . S
C139 O151 1.268 . S
O140 Nd120 2.500 . S
O140 C122 1.258 . S
O141 Nd120 2.492 . S
O141 C122 1.239 . S
O142 Nd120 2.487 . S
O142 C129 1.241 . S
O143 Nd120 2.682 . S
O143 Nd121 2.414 . S
O143 C129 1.273 . S
O144 Nd120 2.410 . S
O144 C130 1.251 . S
O145 Nd121 2.424 . S
O145 C130 1.268 . S
O146 Nd121 2.500 . S
O146 C131 1.258 . S
O147 Nd121 2.492 . S
O147 C131 1.239 . S
O148 Nd121 2.487 . S
O148 C138 1.241 . S
O149 Nd120 2.414 . S
O149 Nd121 2.682 . S
O149 C138 1.273 . S
O150 Nd121 2.410 . S
O150 C139 1.251 . S
O151 Nd120 2.424 . S
O151 C139 1.268 . S
H152 C124 0.930 . S
H153 C125 0.929 . S
H154 C127 0.930 . S
H155 C128 0.929 . S
H156 C133 0.930 . S
H157 C134 0.929 . S
H158 C136 0.930 . S
H159 C137 0.929 . S
Nd160 C162 2.836 . S
Nd160 O180 2.500 . S
Nd160 O181 2.492 . S
Nd160 O182 2.487 . S
Nd160 O183 2.682 . S
Nd160 O184 2.410 . S
Nd160 O189 2.414 1_455 S
Nd160 O191 2.424 1_455 S
Nd161 C171 2.836 . S
Nd161 O183 2.414 1_655 S
Nd161 O185 2.424 1_655 S
Nd161 O186 2.500 . S
Nd161 O187 2.492 . S
Nd161 O188 2.487 . S
Nd161 O189 2.682 . S
Nd161 O190 2.410 . S
C162 Nd160 2.836 . S
C162 C163 1.498 . S
C162 O180 1.258 . S
C162 O181 1.239 . S
C163 C162 1.498 . S
C163 C164 1.366 . S
C163 C168 1.407 . S
C164 C163 1.366 . S
C164 C165 1.392 . S
C164 H192 0.930 . S
C165 C164 1.392 . S
C165 C166 1.398 . S
C165 H193 0.929 . S
C166 C165 1.398 . S
C166 C167 1.352 . S
C167 C166 1.352 . S
C167 C168 1.384 . S
C167 H194 0.930 1_554 S
C168 C163 1.407 . S
C168 C167 1.384 . S
C168 H195 0.929 . S
C169 O182 1.241 . S
C169 O183 1.273 . S
C170 O184 1.251 . S
C170 O185 1.268 . S
C171 Nd161 2.836 . S
C171 C172 1.498 . S
C171 O186 1.258 . S
C171 O187 1.239 . S
C172 C171 1.498 . S
C172 C173 1.366 . S
C172 C177 1.407 . S
C173 C172 1.366 . S
C173 C174 1.392 . S
C173 H196 0.930 . S
C174 C173 1.392 . S
C174 C175 1.398 . S
C174 H197 0.929 . S
C175 C174 1.398 . S
C175 C176 1.352 . S
C176 C175 1.352 . S
C176 C177 1.384 . S
C176 H198 0.930 . S
C177 C172 1.407 . S
C177 C176 1.384 . S
C177 H199 0.929 . S
C178 O188 1.241 . S
C178 O189 1.273 . S
C179 O190 1.251 . S
C179 O191 1.268 . S
O180 Nd160 2.500 . S
O180 C162 1.258 . S
O181 Nd160 2.492 . S
O181 C162 1.239 . S
O182 Nd160 2.487 . S
O182 C169 1.241 . S
O183 Nd160 2.682 . S
O183 Nd161 2.414 1_455 S
O183 C169 1.273 . S
O184 Nd160 2.410 . S
O184 C170 1.251 . S
O185 Nd161 2.424 1_455 S
O185 C170 1.268 . S
O186 Nd161 2.500 . S
O186 C171 1.258 . S
O187 Nd161 2.492 . S
O187 C171 1.239 . S
O188 Nd161 2.487 . S
O188 C178 1.241 . S
O189 Nd160 2.414 1_655 S
O189 Nd161 2.682 . S
O189 C178 1.273 . S
O190 Nd161 2.410 . S
O190 C179 1.251 . S
O191 Nd160 2.424 1_655 S
O191 C179 1.268 . S
H192 C164 0.930 . S
H193 C165 0.929 . S
H194 C167 0.930 1_556 S
H195 C168 0.929 . S
H196 C173 0.930 . S
H197 C174 0.929 . S
H198 C176 0.930 . S
H199 C177 0.929 . S
Nd200 C202 2.836 . S
Nd200 O220 2.500 . S
Nd200 O221 2.492 . S
Nd200 O222 2.487 . S
Nd200 O223 2.682 . S
Nd200 O224 2.410 . S
Nd200 O229 2.414 . S
Nd200 O231 2.424 . S
Nd201 C211 2.836 . S
Nd201 O223 2.414 . S
Nd201 O225 2.424 . S
Nd201 O226 2.500 . S
Nd201 O227 2.492 . S
Nd201 O228 2.487 . S
Nd201 O229 2.682 . S
Nd201 O230 2.410 . S
C202 Nd200 2.836 . S
C202 C203 1.498 . S
C202 O220 1.258 . S
C202 O221 1.239 . S
C203 C202 1.498 . S
C203 C204 1.366 . S
C203 C208 1.407 . S
C204 C203 1.366 . S
C204 C205 1.392 . S
C204 H232 0.930 . S
C205 C204 1.392 . S
C205 C206 1.398 . S
C205 H233 0.929 . S
C206 C205 1.398 . S
C206 C207 1.352 . S
C207 C206 1.352 . S
C207 C208 1.384 . S
C207 H234 0.930 . S
C208 C203 1.407 . S
C208 C207 1.384 . S
C208 H235 0.929 . S
C209 O222 1.241 . S
C209 O223 1.273 . S
C210 O224 1.251 . S
C210 O225 1.268 . S
C211 Nd201 2.836 . S
C211 C212 1.498 . S
C211 O226 1.258 . S
C211 O227 1.239 . S
C212 C211 1.498 . S
C212 C213 1.366 . S
C212 C217 1.407 . S
C213 C212 1.366 . S
C213 C214 1.392 . S
C213 H236 0.930 . S
C214 C213 1.392 . S
C214 C215 1.398 . S
C214 H237 0.929 . S
C215 C214 1.398 . S
C215 C216 1.352 . S
C216 C215 1.352 . S
C216 C217 1.384 . S
C216 H238 0.930 . S
C217 C212 1.407 . S
C217 C216 1.384 . S
C217 H239 0.929 . S
C218 O228 1.241 . S
C218 O229 1.273 . S
C219 O230 1.251 . S
C219 O231 1.268 . S
O220 Nd200 2.500 . S
O220 C202 1.258 . S
O221 Nd200 2.492 . S
O221 C202 1.239 . S
O222 Nd200 2.487 . S
O222 C209 1.241 . S
O223 Nd200 2.682 . S
O223 Nd201 2.414 . S
O223 C209 1.273 . S
O224 Nd200 2.410 . S
O224 C210 1.251 . S
O225 Nd201 2.424 . S
O225 C210 1.268 . S
O226 Nd201 2.500 . S
O226 C211 1.258 . S
O227 Nd201 2.492 . S
O227 C211 1.239 . S
O228 Nd201 2.487 . S
O228 C218 1.241 . S
O229 Nd200 2.414 . S
O229 Nd201 2.682 . S
O229 C218 1.273 . S
O230 Nd201 2.410 . S
O230 C219 1.251 . S
O231 Nd200 2.424 . S
O231 C219 1.268 . S
H232 C204 0.930 . S
H233 C205 0.929 . S
H234 C207 0.930 . S
H235 C208 0.929 . S
H236 C213 0.930 . S
H237 C214 0.929 . S
H238 C216 0.930 . S
H239 C217 0.929 . S
Nd240 C242 2.836 . S
Nd240 O260 2.500 . S
Nd240 O261 2.492 . S
Nd240 O262 2.487 . S
Nd240 O263 2.682 . S
Nd240 O264 2.410 . S
Nd240 O269 2.414 . S
Nd240 O271 2.424 . S
Nd241 C251 2.836 . S
Nd241 O263 2.414 . S
Nd241 O265 2.424 . S
Nd241 O266 2.500 . S
Nd241 O267 2.492 . S
Nd241 O268 2.487 . S
Nd241 O269 2.682 . S
Nd241 O270 2.410 . S
C242 Nd240 2.836 . S
C242 C243 1.498 . S
C242 O260 1.258 . S
C242 O261 1.239 . S
C243 C242 1.498 . S
C243 C244 1.366 . S
C243 C248 1.407 . S
C244 C243 1.366 . S
C244 C245 1.392 . S
C244 H272 0.930 . S
C245 C244 1.392 . S
C245 C246 1.398 . S
C245 H273 0.929 . S
C246 C245 1.398 . S
C246 C247 1.352 . S
C247 C246 1.352 . S
C247 C248 1.384 . S
C247 H274 0.930 . S
C248 C243 1.407 . S
C248 C247 1.384 . S
C248 H275 0.929 . S
C249 O262 1.241 . S
C249 O263 1.273 . S
C250 O264 1.251 . S
C250 O265 1.268 . S
C251 Nd241 2.836 . S
C251 C252 1.498 . S
C251 O266 1.258 . S
C251 O267 1.239 . S
C252 C251 1.498 . S
C252 C253 1.366 . S
C252 C257 1.407 . S
C253 C252 1.366 . S
C253 C254 1.392 . S
C253 H276 0.930 . S
C254 C253 1.392 . S
C254 C255 1.398 . S
C254 H277 0.929 . S
C255 C254 1.398 . S
C255 C256 1.352 . S
C256 C255 1.352 . S
C256 C257 1.384 . S
C256 H278 0.930 . S
C257 C252 1.407 . S
C257 C256 1.384 . S
C257 H279 0.929 . S
C258 O268 1.241 . S
C258 O269 1.273 . S
C259 O270 1.251 . S
C259 O271 1.268 . S
O260 Nd240 2.500 . S
O260 C242 1.258 . S
O261 Nd240 2.492 . S
O261 C242 1.239 . S
O262 Nd240 2.487 . S
O262 C249 1.241 . S
O263 Nd240 2.682 . S
O263 Nd241 2.414 . S
O263 C249 1.273 . S
O264 Nd240 2.410 . S
O264 C250 1.251 . S
O265 Nd241 2.424 . S
O265 C250 1.268 . S
O266 Nd241 2.500 . S
O266 C251 1.258 . S
O267 Nd241 2.492 . S
O267 C251 1.239 . S
O268 Nd241 2.487 . S
O268 C258 1.241 . S
O269 Nd240 2.414 . S
O269 Nd241 2.682 . S
O269 C258 1.273 . S
O270 Nd241 2.410 . S
O270 C259 1.251 . S
O271 Nd240 2.424 . S
O271 C259 1.268 . S
H272 C244 0.930 . S
H273 C245 0.929 . S
H274 C247 0.930 . S
H275 C248 0.929 . S
H276 C253 0.930 . S
H277 C254 0.929 . S
H278 C256 0.930 . S
H279 C257 0.929 . S
Nd280 C282 2.836 . S
Nd280 O300 2.500 . S
Nd280 O301 2.492 . S
Nd280 O302 2.487 . S
Nd280 O303 2.682 . S
Nd280 O304 2.410 . S
Nd280 O309 2.414 . S
Nd280 O311 2.424 . S
Nd281 C291 2.836 . S
Nd281 O303 2.414 . S
Nd281 O305 2.424 . S
Nd281 O306 2.500 . S
Nd281 O307 2.492 . S
Nd281 O308 2.487 . S
Nd281 O309 2.682 . S
Nd281 O310 2.410 . S
C282 Nd280 2.836 . S
C282 C283 1.498 . S
C282 O300 1.258 . S
C282 O301 1.239 . S
C283 C282 1.498 . S
C283 C284 1.366 . S
C283 C288 1.407 . S
C284 C283 1.366 . S
C284 C285 1.392 . S
C284 H312 0.930 . S
C285 C284 1.392 . S
C285 C286 1.398 . S
C285 H313 0.929 . S
C286 C285 1.398 . S
C286 C287 1.352 . S
C287 C286 1.352 . S
C287 C288 1.384 . S
C287 H314 0.930 . S
C288 C283 1.407 . S
C288 C287 1.384 . S
C288 H315 0.929 . S
C289 O302 1.241 . S
C289 O303 1.273 . S
C290 O304 1.251 . S
C290 O305 1.268 . S
C291 Nd281 2.836 . S
C291 C292 1.498 . S
C291 O306 1.258 . S
C291 O307 1.239 . S
C292 C291 1.498 . S
C292 C293 1.366 . S
C292 C297 1.407 . S
C293 C292 1.366 . S
C293 C294 1.392 1_655 S
C293 H316 0.930 . S
C294 C293 1.392 1_455 S
C294 C295 1.398 . S
C294 H317 0.929 . S
C295 C294 1.398 . S
C295 C296 1.352 1_455 S
C296 C295 1.352 1_655 S
C296 C297 1.384 . S
C296 H318 0.930 . S
C297 C292 1.407 . S
C297 C296 1.384 . S
C297 H319 0.929 . S
C298 O308 1.241 . S
C298 O309 1.273 . S
C299 O310 1.251 . S
C299 O311 1.268 . S
O300 Nd280 2.500 . S
O300 C282 1.258 . S
O301 Nd280 2.492 . S
O301 C282 1.239 . S
O302 Nd280 2.487 . S
O302 C289 1.241 . S
O303 Nd280 2.682 . S
O303 Nd281 2.414 . S
O303 C289 1.273 . S
O304 Nd280 2.410 . S
O304 C290 1.251 . S
O305 Nd281 2.424 . S
O305 C290 1.268 . S
O306 Nd281 2.500 . S
O306 C291 1.258 . S
O307 Nd281 2.492 . S
O307 C291 1.239 . S
O308 Nd281 2.487 . S
O308 C298 1.241 . S
O309 Nd280 2.414 . S
O309 Nd281 2.682 . S
O309 C298 1.273 . S
O310 Nd281 2.410 . S
O310 C299 1.251 . S
O311 Nd280 2.424 . S
O311 C299 1.268 . S
H312 C284 0.930 . S
H313 C285 0.929 . S
H314 C287 0.930 . S
H315 C288 0.929 . S
H316 C293 0.930 . S
H317 C294 0.929 . S
H318 C296 0.930 . S
H319 C297 0.929 . S
Nd320 C322 2.836 1_545 S
Nd320 O340 2.500 1_545 S
Nd320 O341 2.492 1_545 S
Nd320 O342 2.487 . S
Nd320 O343 2.682 . S
Nd320 O344 2.410 1_545 S
Nd320 O349 2.414 . S
Nd320 O351 2.424 . S
Nd321 C331 2.836 . S
Nd321 O343 2.414 . S
Nd321 O345 2.424 . S
Nd321 O346 2.500 . S
Nd321 O347 2.492 . S
Nd321 O348 2.487 . S
Nd321 O349 2.682 . S
Nd321 O350 2.410 . S
C322 Nd320 2.836 1_565 S
C322 C323 1.498 . S
C322 O340 1.258 . S
C322 O341 1.239 . S
C323 C322 1.498 . S
C323 C324 1.366 . S
C323 C328 1.407 . S
C324 C323 1.366 . S
C324 C325 1.392 . S
C324 H352 0.930 . S
C325 C324 1.392 . S
C325 C326 1.398 . S
C325 H353 0.929 . S
C326 C325 1.398 . S
C326 C327 1.352 . S
C327 C326 1.352 . S
C327 C328 1.384 . S
C327 H354 0.930 . S
C328 C323 1.407 . S
C328 C327 1.384 . S
C328 H355 0.929 . S
C329 O342 1.241 . S
C329 O343 1.273 . S
C330 O344 1.251 . S
C330 O345 1.268 1_565 S
C331 Nd321 2.836 . S
C331 C332 1.498 . S
C331 O346 1.258 . S
C331 O347 1.239 . S
C332 C331 1.498 . S
C332 C333 1.366 . S
C332 C337 1.407 . S
C333 C332 1.366 . S
C333 C334 1.392 . S
C333 H356 0.930 . S
C334 C333 1.392 . S
C334 C335 1.398 . S
C334 H357 0.929 . S
C335 C334 1.398 . S
C335 C336 1.352 . S
C336 C335 1.352 . S
C336 C337 1.384 . S
C336 H358 0.930 . S
C337 C332 1.407 . S
C337 C336 1.384 . S
C337 H359 0.929 . S
C338 O348 1.241 . S
C338 O349 1.273 . S
C339 O350 1.251 . S
C339 O351 1.268 . S
O340 Nd320 2.500 1_565 S
O340 C322 1.258 . S
O341 Nd320 2.492 1_565 S
O341 C322 1.239 . S
O342 Nd320 2.487 . S
O342 C329 1.241 . S
O343 Nd320 2.682 . S
O343 Nd321 2.414 . S
O343 C329 1.273 . S
O344 Nd320 2.410 1_565 S
O344 C330 1.251 . S
O345 Nd321 2.424 . S
O345 C330 1.268 1_545 S
O346 Nd321 2.500 . S
O346 C331 1.258 . S
O347 Nd321 2.492 . S
O347 C331 1.239 . S
O348 Nd321 2.487 . S
O348 C338 1.241 . S
O349 Nd320 2.414 . S
O349 Nd321 2.682 . S
O349 C338 1.273 . S
O350 Nd321 2.410 . S
O350 C339 1.251 . S
O351 Nd320 2.424 . S
O351 C339 1.268 . S
H352 C324 0.930 . S
H353 C325 0.929 . S
H354 C327 0.930 . S
H355 C328 0.929 . S
H356 C333 0.930 . S
H357 C334 0.929 . S
H358 C336 0.930 . S
H359 C337 0.929 . S
Nd360 C362 2.836 . S
Nd360 O380 2.500 . S
Nd360 O381 2.492 . S
Nd360 O382 2.487 . S
Nd360 O383 2.682 . S
Nd360 O384 2.410 . S
Nd360 O389 2.414 1_545 S
Nd360 O391 2.424 1_545 S
Nd361 C371 2.836 . S
Nd361 O383 2.414 1_565 S
Nd361 O385 2.424 1_565 S
Nd361 O386 2.500 . S
Nd361 O387 2.492 . S
Nd361 O388 2.487 . S
Nd361 O389 2.682 . S
Nd361 O390 2.410 . S
C362 Nd360 2.836 . S
C362 C363 1.498 . S
C362 O380 1.258 . S
C362 O381 1.239 . S
C363 C362 1.498 . S
C363 C364 1.366 . S
C363 C368 1.407 . S
C364 C363 1.366 . S
C364 C365 1.392 . S
C364 H392 0.930 . S
C365 C364 1.392 . S
C365 C366 1.398 . S
C365 H393 0.929 . S
C366 C365 1.398 . S
C366 C367 1.352 . S
C367 C366 1.352 . S
C367 C368 1.384 . S
C367 H394 0.930 . S
C368 C363 1.407 . S
C368 C367 1.384 . S
C368 H395 0.929 . S
C369 O382 1.241 . S
C369 O383 1.273 . S
C370 O384 1.251 . S
C370 O385 1.268 . S
C371 Nd361 2.836 . S
C371 C372 1.498 . S
C371 O386 1.258 . S
C371 O387 1.239 . S
C372 C371 1.498 . S
C372 C373 1.366 . S
C372 C377 1.407 . S
C373 C372 1.366 . S
C373 C374 1.392 . S
C373 H396 0.930 . S
C374 C373 1.392 . S
C374 C375 1.398 . S
C374 H397 0.929 . S
C375 C374 1.398 . S
C375 C376 1.352 . S
C376 C375 1.352 . S
C376 C377 1.384 . S
C376 H398 0.930 . S
C377 C372 1.407 . S
C377 C376 1.384 . S
C377 H399 0.929 . S
C378 O388 1.241 . S
C378 O389 1.273 . S
C379 O390 1.251 . S
C379 O391 1.268 . S
O380 Nd360 2.500 . S
O380 C362 1.258 . S
O381 Nd360 2.492 . S
O381 C362 1.239 . S
O382 Nd360 2.487 . S
O382 C369 1.241 . S
O383 Nd360 2.682 . S
O383 Nd361 2.414 1_545 S
O383 C369 1.273 . S
O384 Nd360 2.410 . S
O384 C370 1.251 . S
O385 Nd361 2.424 1_545 S
O385 C370 1.268 . S
O386 Nd361 2.500 . S
O386 C371 1.258 . S
O387 Nd361 2.492 . S
O387 C371 1.239 . S
O388 Nd361 2.487 . S
O388 C378 1.241 . S
O389 Nd360 2.414 1_565 S
O389 Nd361 2.682 . S
O389 C378 1.273 . S
O390 Nd361 2.410 . S
O390 C379 1.251 . S
O391 Nd360 2.424 1_565 S
O391 C379 1.268 . S
H392 C364 0.930 . S
H393 C365 0.929 . S
H394 C367 0.930 . S
H395 C368 0.929 . S
H396 C373 0.930 . S
H397 C374 0.929 . S
H398 C376 0.930 . S
H399 C377 0.929 . S
Nd400 C402 2.836 . S
Nd400 O420 2.500 . S
Nd400 O421 2.492 . S
Nd400 O422 2.487 . S
Nd400 O423 2.682 . S
Nd400 O424 2.410 . S
Nd400 O429 2.414 . S
Nd400 O431 2.424 . S
Nd401 C411 2.836 . S
Nd401 O423 2.414 . S
Nd401 O425 2.424 . S
Nd401 O426 2.500 . S
Nd401 O427 2.492 . S
Nd401 O428 2.487 . S
Nd401 O429 2.682 . S
Nd401 O430 2.410 . S
C402 Nd400 2.836 . S
C402 C403 1.498 . S
C402 O420 1.258 . S
C402 O421 1.239 . S
C403 C402 1.498 . S
C403 C404 1.366 . S
C403 C408 1.407 . S
C404 C403 1.366 . S
C404 C405 1.392 . S
C404 H432 0.930 . S
C405 C404 1.392 . S
C405 C406 1.398 . S
C405 H433 0.929 . S
C406 C405 1.398 . S
C406 C407 1.352 . S
C407 C406 1.352 . S
C407 C408 1.384 . S
C407 H434 0.930 . S
C408 C403 1.407 . S
C408 C407 1.384 . S
C408 H435 0.929 . S
C409 O422 1.241 . S
C409 O423 1.273 . S
C410 O424 1.251 . S
C410 O425 1.268 . S
C411 Nd401 2.836 . S
C411 C412 1.498 . S
C411 O426 1.258 . S
C411 O427 1.239 . S
C412 C411 1.498 . S
C412 C413 1.366 . S
C412 C417 1.407 . S
C413 C412 1.366 . S
C413 C414 1.392 . S
C413 H436 0.930 . S
C414 C413 1.392 . S
C414 C415 1.398 . S
C414 H437 0.929 1_556 S
C415 C414 1.398 . S
C415 C416 1.352 . S
C416 C415 1.352 . S
C416 C417 1.384 . S
C416 H438 0.930 . S
C417 C412 1.407 . S
C417 C416 1.384 . S
C417 H439 0.929 . S
C418 O428 1.241 . S
C418 O429 1.273 . S
C419 O430 1.251 . S
C419 O431 1.268 . S
O420 Nd400 2.500 . S
O420 C402 1.258 . S
O421 Nd400 2.492 . S
O421 C402 1.239 . S
O422 Nd400 2.487 . S
O422 C409 1.241 . S
O423 Nd400 2.682 . S
O423 Nd401 2.414 . S
O423 C409 1.273 . S
O424 Nd400 2.410 . S
O424 C410 1.251 . S
O425 Nd401 2.424 . S
O425 C410 1.268 . S
O426 Nd401 2.500 . S
O426 C411 1.258 . S
O427 Nd401 2.492 . S
O427 C411 1.239 . S
O428 Nd401 2.487 . S
O428 C418 1.241 . S
O429 Nd400 2.414 . S
O429 Nd401 2.682 . S
O429 C418 1.273 . S
O430 Nd401 2.410 . S
O430 C419 1.251 . S
O431 Nd400 2.424 . S
O431 C419 1.268 . S
H432 C404 0.930 . S
H433 C405 0.929 . S
H434 C407 0.930 . S
H435 C408 0.929 . S
H436 C413 0.930 . S
H437 C414 0.929 1_554 S
H438 C416 0.930 . S
H439 C417 0.929 . S
Nd440 C442 2.836 . S
Nd440 O460 2.500 . S
Nd440 O461 2.492 . S
Nd440 O462 2.487 . S
Nd440 O463 2.682 . S
Nd440 O464 2.410 . S
Nd440 O469 2.414 . S
Nd440 O471 2.424 . S
Nd441 C451 2.836 . S
Nd441 O463 2.414 . S
Nd441 O465 2.424 . S
Nd441 O466 2.500 . S
Nd441 O467 2.492 . S
Nd441 O468 2.487 . S
Nd441 O469 2.682 . S
Nd441 O470 2.410 . S
C442 Nd440 2.836 . S
C442 C443 1.498 . S
C442 O460 1.258 . S
C442 O461 1.239 . S
C443 C442 1.498 . S
C443 C444 1.366 . S
C443 C448 1.407 . S
C444 C443 1.366 . S
C444 C445 1.392 . S
C444 H472 0.930 . S
C445 C444 1.392 . S
C445 C446 1.398 . S
C445 H473 0.929 . S
C446 C445 1.398 . S
C446 C447 1.352 . S
C447 C446 1.352 . S
C447 C448 1.384 . S
C447 H474 0.930 . S
C448 C443 1.407 . S
C448 C447 1.384 . S
C448 H475 0.929 . S
C449 O462 1.241 . S
C449 O463 1.273 . S
C450 O464 1.251 . S
C450 O465 1.268 . S
C451 Nd441 2.836 . S
C451 C452 1.498 . S
C451 O466 1.258 . S
C451 O467 1.239 . S
C452 C451 1.498 . S
C452 C453 1.366 . S
C452 C457 1.407 . S
C453 C452 1.366 . S
C453 C454 1.392 . S
C453 H476 0.930 . S
C454 C453 1.392 . S
C454 C455 1.398 . S
C454 H477 0.929 . S
C455 C454 1.398 . S
C455 C456 1.337 1_565 S
C456 C455 1.337 1_545 S
C456 C457 1.375 1_545 S
C456 H478 0.956 . S
C457 C452 1.407 . S
C457 C456 1.375 1_565 S
C457 H479 0.929 1_565 S
C458 O468 1.241 . S
C458 O469 1.273 . S
C459 O470 1.251 . S
C459 O471 1.268 . S
O460 Nd440 2.500 . S
O460 C442 1.258 . S
O461 Nd440 2.492 . S
O461 C442 1.239 . S
O462 Nd440 2.487 . S
O462 C449 1.241 . S
O463 Nd440 2.682 . S
O463 Nd441 2.414 . S
O463 C449 1.273 . S
O464 Nd440 2.410 . S
O464 C450 1.251 . S
O465 Nd441 2.424 . S
O465 C450 1.268 . S
O466 Nd441 2.500 . S
O466 C451 1.258 . S
O467 Nd441 2.492 . S
O467 C451 1.239 . S
O468 Nd441 2.487 . S
O468 C458 1.241 . S
O469 Nd440 2.414 . S
O469 Nd441 2.682 . S
O469 C458 1.273 . S
O470 Nd441 2.410 . S
O470 C459 1.251 . S
O471 Nd440 2.424 . S
O471 C459 1.268 . S
H472 C444 0.930 . S
H473 C445 0.929 . S
H474 C447 0.930 . S
H475 C448 0.929 . S
H476 C453 0.930 . S
H477 C454 0.929 . S
H478 C456 0.956 . S
H479 C457 0.929 1_545 S
Nd480 C482 2.836 1_554 S
Nd480 O500 2.500 1_554 S
Nd480 O501 2.492 1_554 S
Nd480 O502 2.487 1_554 S
Nd480 O503 2.682 . S
Nd480 O504 2.410 1_554 S
Nd480 O509 2.414 . S
Nd480 O511 2.424 . S
Nd481 C491 2.836 . S
Nd481 O503 2.414 . S
Nd481 O505 2.424 . S
Nd481 O506 2.500 . S
Nd481 O507 2.492 . S
Nd481 O508 2.487 . S
Nd481 O509 2.682 . S
Nd481 O510 2.410 . S
C482 Nd480 2.836 1_556 S
C482 C483 1.498 . S
C482 O500 1.258 . S
C482 O501 1.239 . S
C483 C482 1.498 . S
C483 C484 1.366 . S
C483 C488 1.407 . S
C484 C483 1.366 . S
C484 C485 1.392 . S
C484 H512 0.930 . S
C485 C484 1.392 . S
C485 C486 1.398 . S
C485 H513 0.929 . S
C486 C485 1.398 . S
C486 C487 1.352 . S
C487 C486 1.352 . S
C487 C488 1.384 . S
C487 H514 0.930 . S
C488 C483 1.407 . S
C488 C487 1.384 . S
C488 H515 0.929 . S
C489 O502 1.241 1_554 S
C489 O503 1.273 . S
C490 O504 1.251 . S
C490 O505 1.268 1_556 S
C491 Nd481 2.836 . S
C491 C492 1.498 . S
C491 O506 1.258 . S
C491 O507 1.239 . S
C492 C491 1.498 . S
C492 C493 1.366 . S
C492 C497 1.407 . S
C493 C492 1.366 . S
C493 C494 1.392 . S
C493 H516 0.930 . S
C494 C493 1.392 . S
C494 C495 1.398 . S
C494 H517 0.929 . S
C495 C494 1.398 . S
C495 C496 1.352 . S
C496 C495 1.352 . S
C496 C497 1.384 . S
C496 H518 0.930 . S
C497 C492 1.407 . S
C497 C496 1.384 . S
C497 H519 0.929 . S
C498 O508 1.241 . S
C498 O509 1.273 . S
C499 O510 1.251 . S
C499 O511 1.268 . S
O500 Nd480 2.500 1_556 S
O500 C482 1.258 . S
O501 Nd480 2.492 1_556 S
O501 C482 1.239 . S
O502 Nd480 2.487 1_556 S
O502 C489 1.241 1_556 S
O503 Nd480 2.682 . S
O503 Nd481 2.414 . S
O503 C489 1.273 . S
O504 Nd480 2.410 1_556 S
O504 C490 1.251 . S
O505 Nd481 2.424 . S
O505 C490 1.268 1_554 S
O506 Nd481 2.500 . S
O506 C491 1.258 . S
O507 Nd481 2.492 . S
O507 C491 1.239 . S
O508 Nd481 2.487 . S
O508 C498 1.241 . S
O509 Nd480 2.414 . S
O509 Nd481 2.682 . S
O509 C498 1.273 . S
O510 Nd481 2.410 . S
O510 C499 1.251 . S
O511 Nd480 2.424 . S
O511 C499 1.268 . S
H512 C484 0.930 . S
H513 C485 0.929 . S
H514 C487 0.930 . S
H515 C488 0.929 . S
H516 C493 0.930 . S
H517 C494 0.929 . S
H518 C496 0.930 . S
H519 C497 0.929 . S
Nd520 C522 2.836 . S
Nd520 O540 2.500 . S
Nd520 O541 2.492 . S
Nd520 O542 2.487 . S
Nd520 O543 2.682 . S
Nd520 O544 2.410 . S
Nd520 O549 2.414 . S
Nd520 O551 2.424 . S
Nd521 C531 2.836 1_565 S
Nd521 O543 2.414 . S
Nd521 O545 2.424 . S
Nd521 O546 2.500 1_565 S
Nd521 O547 2.492 1_565 S
Nd521 O548 2.487 . S
Nd521 O549 2.682 . S
Nd521 O550 2.410 . S
C522 Nd520 2.836 . S
C522 C523 1.498 . S
C522 O540 1.258 . S
C522 O541 1.239 . S
C523 C522 1.498 . S
C523 C524 1.366 . S
C523 C528 1.407 . S
C524 C523 1.366 . S
C524 C525 1.392 . S
C524 H552 0.930 . S
C525 C524 1.392 . S
C525 C526 1.398 . S
C525 H553 0.929 . S
C526 C525 1.398 . S
C526 C527 1.352 . S
C527 C526 1.352 . S
C527 C528 1.384 . S
C527 H554 0.930 . S
C528 C523 1.407 . S
C528 C527 1.384 . S
C528 H555 0.929 . S
C529 O542 1.241 . S
C529 O543 1.273 . S
C530 O544 1.251 . S
C530 O545 1.268 . S
C531 Nd521 2.836 1_545 S
C531 C532 1.498 . S
C531 O546 1.258 . S
C531 O547 1.239 . S
C532 C531 1.498 . S
C532 C533 1.366 . S
C532 C537 1.407 . S
C533 C532 1.366 . S
C533 C534 1.392 . S
C533 H556 0.930 . S
C534 C533 1.392 . S
C534 C535 1.398 . S
C534 H557 0.929 . S
C535 C534 1.398 . S
C535 C536 1.352 . S
C536 C535 1.352 . S
C536 C537 1.384 . S
C536 H558 0.943 . S
C537 C532 1.407 . S
C537 C536 1.384 . S
C537 H559 0.929 . S
C538 O548 1.241 . S
C538 O549 1.273 . S
C539 O550 1.251 . S
C539 O551 1.268 . S
O540 Nd520 2.500 . S
O540 C522 1.258 . S
O541 Nd520 2.492 . S
O541 C522 1.239 . S
O542 Nd520 2.487 . S
O542 C529 1.241 . S
O543 Nd520 2.682 . S
O543 Nd521 2.414 . S
O543 C529 1.273 . S
O544 Nd520 2.410 . S
O544 C530 1.251 . S
O545 Nd521 2.424 . S
O545 C530 1.268 . S
O546 Nd521 2.500 1_545 S
O546 C531 1.258 . S
O547 Nd521 2.492 1_545 S
O547 C531 1.239 . S
O548 Nd521 2.487 . S
O548 C538 1.241 . S
O549 Nd520 2.414 . S
O549 Nd521 2.682 . S
O549 C538 1.273 . S
O550 Nd521 2.410 . S
O550 C539 1.251 . S
O551 Nd520 2.424 . S
O551 C539 1.268 . S
H552 C524 0.930 . S
H553 C525 0.929 . S
H554 C527 0.930 . S
H555 C528 0.929 . S
H556 C533 0.930 . S
H557 C534 0.929 . S
H558 C536 0.943 . S
H559 C537 0.929 . S
Nd560 C562 2.836 . S
Nd560 O580 2.500 . S
Nd560 O581 2.492 . S
Nd560 O582 2.487 . S
Nd560 O583 2.682 . S
Nd560 O584 2.410 . S
Nd560 O589 2.414 . S
Nd560 O591 2.424 . S
Nd561 C571 2.836 . S
Nd561 O583 2.414 . S
Nd561 O585 2.424 . S
Nd561 O586 2.500 . S
Nd561 O587 2.492 . S
Nd561 O588 2.487 . S
Nd561 O589 2.682 . S
Nd561 O590 2.410 . S
C562 Nd560 2.836 . S
C562 C563 1.498 . S
C562 O580 1.258 . S
C562 O581 1.239 . S
C563 C562 1.498 . S
C563 C564 1.366 . S
C563 C568 1.407 . S
C564 C563 1.366 . S
C564 C565 1.392 . S
C564 H592 0.930 . S
C565 C564 1.392 . S
C565 C566 1.398 . S
C565 H593 0.929 . S
C566 C565 1.398 . S
C566 C567 1.352 . S
C567 C566 1.352 . S
C567 C568 1.384 . S
C567 H594 0.930 . S
C568 C563 1.407 . S
C568 C567 1.384 . S
C568 H595 0.929 . S
C569 O582 1.241 . S
C569 O583 1.273 . S
C570 O584 1.251 . S
C570 O585 1.268 . S
C571 Nd561 2.836 . S
C571 C572 1.498 . S
C571 O586 1.258 . S
C571 O587 1.239 . S
C572 C571 1.498 . S
C572 C573 1.366 . S
C572 C577 1.407 . S
C573 C572 1.366 . S
C573 C574 1.392 . S
C573 H596 0.930 . S
C574 C573 1.392 . S
C574 C575 1.398 . S
C574 H597 0.929 . S
C575 C574 1.398 . S
C575 C576 1.352 . S
C576 C575 1.352 . S
C576 C577 1.384 . S
C576 H598 0.930 . S
C577 C572 1.407 . S
C577 C576 1.384 . S
C577 H599 0.929 . S
C578 O588 1.241 . S
C578 O589 1.273 . S
C579 O590 1.251 . S
C579 O591 1.268 . S
O580 Nd560 2.500 . S
O580 C562 1.258 . S
O581 Nd560 2.492 . S
O581 C562 1.239 . S
O582 Nd560 2.487 . S
O582 C569 1.241 . S
O583 Nd560 2.682 . S
O583 Nd561 2.414 . S
O583 C569 1.273 . S
O584 Nd560 2.410 . S
O584 C570 1.251 . S
O585 Nd561 2.424 . S
O585 C570 1.268 . S
O586 Nd561 2.500 . S
O586 C571 1.258 . S
O587 Nd561 2.492 . S
O587 C571 1.239 . S
O588 Nd561 2.487 . S
O588 C578 1.241 . S
O589 Nd560 2.414 . S
O589 Nd561 2.682 . S
O589 C578 1.273 . S
O590 Nd561 2.410 . S
O590 C579 1.251 . S
O591 Nd560 2.424 . S
O591 C579 1.268 . S
H592 C564 0.930 . S
H593 C565 0.929 . S
H594 C567 0.930 . S
H595 C568 0.929 . S
H596 C573 0.930 . S
H597 C574 0.929 . S
H598 C576 0.930 . S
H599 C577 0.929 . S
Nd600 C602 2.836 . S
Nd600 O620 2.500 . S
Nd600 O621 2.492 1_655 S
Nd600 O622 2.487 . S
Nd600 O623 2.682 . S
Nd600 O624 2.410 . S
Nd600 O629 2.414 . S
Nd600 O631 2.424 1_655 S
Nd601 C611 2.836 . S
Nd601 O623 2.414 . S
Nd601 O625 2.424 . S
Nd601 O626 2.500 . S
Nd601 O627 2.492 . S
Nd601 O628 2.487 . S
Nd601 O629 2.682 . S
Nd601 O630 2.410 . S
C602 Nd600 2.836 . S
C602 C603 1.498 . S
C602 O620 1.258 . S
C602 O621 1.239 1_655 S
C603 C602 1.498 . S
C603 C604 1.366 . S
C603 C608 1.407 1_655 S
C604 C603 1.366 . S
C604 C605 1.392 . S
C604 H632 0.930 . S
C605 C604 1.392 . S
C605 C606 1.398 1_655 S
C605 H633 0.929 . S
C606 C605 1.398 1_455 S
C606 C607 1.352 . S
C607 C606 1.352 . S
C607 C608 1.384 . S
C607 H634 0.930 . S
C608 C603 1.407 1_455 S
C608 C607 1.384 . S
C608 H635 0.929 . S
C609 O622 1.241 . S
C609 O623 1.273 . S
C610 O624 1.251 . S
C610 O625 1.268 . S
C611 Nd601 2.836 . S
C611 C612 1.498 . S
C611 O626 1.258 . S
C611 O627 1.239 . S
C612 C611 1.498 . S
C612 C613 1.366 . S
C612 C617 1.407 . S
C613 C612 1.366 . S
C613 C614 1.392 . S
C613 H636 0.930 . S
C614 C613 1.392 . S
C614 C615 1.398 . S
C614 H637 0.929 . S
C615 C614 1.398 . S
C615 C616 1.352 . S
C616 C615 1.352 . S
C616 C617 1.384 . S
C616 H638 0.930 . S
C617 C612 1.407 . S
C617 C616 1.384 . S
C617 H639 0.929 . S
C618 O628 1.241 . S
C618 O629 1.273 . S
C619 O630 1.251 . S
C619 O631 1.268 1_655 S
O620 Nd600 2.500 . S
O620 C602 1.258 . S
O621 Nd600 2.492 1_455 S
O621 C602 1.239 1_455 S
O622 Nd600 2.487 . S
O622 C609 1.241 . S
O623 Nd600 2.682 . S
O623 Nd601 2.414 . S
O623 C609 1.273 . S
O624 Nd600 2.410 . S
O624 C610 1.251 . S
O625 Nd601 2.424 . S
O625 C610 1.268 . S
O626 Nd601 2.500 . S
O626 C611 1.258 . S
O627 Nd601 2.492 . S
O627 C611 1.239 . S
O628 Nd601 2.487 . S
O628 C618 1.241 . S
O629 Nd600 2.414 . S
O629 Nd601 2.682 . S
O629 C618 1.273 . S
O630 Nd601 2.410 . S
O630 C619 1.251 . S
O631 Nd600 2.424 1_455 S
O631 C619 1.268 1_455 S
H632 C604 0.930 . S
H633 C605 0.929 . S
H634 C607 0.930 . S
H635 C608 0.929 . S
H636 C613 0.930 . S
H637 C614 0.929 . S
H638 C616 0.930 . S
H639 C617 0.929 . S
Nd640 C642 2.836 . S
Nd640 O660 2.500 . S
Nd640 O661 2.492 . S
Nd640 O662 2.487 . S
Nd640 O663 2.682 . S
Nd640 O664 2.410 . S
Nd640 O669 2.414 . S
Nd640 O671 2.424 . S
Nd641 C651 2.836 . S
Nd641 O663 2.414 . S
Nd641 O665 2.424 . S
Nd641 O666 2.500 . S
Nd641 O667 2.492 . S
Nd641 O668 2.487 . S
Nd641 O669 2.682 . S
Nd641 O670 2.410 . S
C642 Nd640 2.836 . S
C642 C643 1.498 . S
C642 O660 1.258 . S
C642 O661 1.239 . S
C643 C642 1.498 . S
C643 C644 1.366 . S
C643 C648 1.407 . S
C644 C643 1.366 . S
C644 C645 1.392 . S
C644 H672 0.930 . S
C645 C644 1.392 . S
C645 C646 1.398 . S
C645 H673 0.929 . S
C646 C645 1.398 . S
C646 C647 1.352 . S
C647 C646 1.352 . S
C647 C648 1.384 . S
C647 H674 0.930 . S
C648 C643 1.407 . S
C648 C647 1.384 . S
C648 H675 0.929 . S
C649 O662 1.241 . S
C649 O663 1.273 . S
C650 O664 1.251 . S
C650 O665 1.268 . S
C651 Nd641 2.836 . S
C651 C652 1.498 . S
C651 O666 1.258 . S
C651 O667 1.239 . S
C652 C651 1.498 . S
C652 C653 1.366 . S
C652 C657 1.407 . S
C653 C652 1.366 . S
C653 C654 1.392 . S
C653 H676 0.930 . S
C654 C653 1.392 . S
C654 C655 1.398 . S
C654 H677 0.929 . S
C655 C654 1.398 . S
C655 C656 1.352 . S
C656 C655 1.352 . S
C656 C657 1.384 . S
C656 H678 0.930 . S
C657 C652 1.407 . S
C657 C656 1.384 . S
C657 H679 0.929 . S
C658 O668 1.241 . S
C658 O669 1.273 . S
C659 O670 1.251 . S
C659 O671 1.268 . S
O660 Nd640 2.500 . S
O660 C642 1.258 . S
O661 Nd640 2.492 . S
O661 C642 1.239 . S
O662 Nd640 2.487 . S
O662 C649 1.241 . S
O663 Nd640 2.682 . S
O663 Nd641 2.414 . S
O663 C649 1.273 . S
O664 Nd640 2.410 . S
O664 C650 1.251 . S
O665 Nd641 2.424 . S
O665 C650 1.268 . S
O666 Nd641 2.500 . S
O666 C651 1.258 . S
O667 Nd641 2.492 . S
O667 C651 1.239 . S
O668 Nd641 2.487 . S
O668 C658 1.241 . S
O669 Nd640 2.414 . S
O669 Nd641 2.682 . S
O669 C658 1.273 . S
O670 Nd641 2.410 . S
O670 C659 1.251 . S
O671 Nd640 2.424 . S
O671 C659 1.268 . S
H672 C644 0.930 . S
H673 C645 0.929 . S
H674 C647 0.930 . S
H675 C648 0.929 . S
H676 C653 0.930 . S
H677 C654 0.929 . S
H678 C656 0.930 . S
H679 C657 0.929 . S
Nd680 C682 2.836 . S
Nd680 O700 2.500 . S
Nd680 O701 2.492 . S
Nd680 O702 2.487 . S
Nd680 O703 2.682 . S
Nd680 O704 2.410 . S
Nd680 O709 2.414 . S
Nd680 O711 2.424 . S
Nd681 C691 2.836 . S
Nd681 O703 2.414 . S
Nd681 O705 2.424 . S
Nd681 O706 2.500 . S
Nd681 O707 2.492 . S
Nd681 O708 2.487 . S
Nd681 O709 2.682 . S
Nd681 O710 2.410 . S
C682 Nd680 2.836 . S
C682 C683 1.498 . S
C682 O700 1.258 . S
C682 O701 1.239 . S
C683 C682 1.498 . S
C683 C684 1.366 . S
C683 C688 1.407 . S
C684 C683 1.366 . S
C684 C685 1.392 . S
C684 H712 0.930 . S
C685 C684 1.392 . S
C685 C686 1.398 . S
C685 H713 0.929 . S
C686 C685 1.398 . S
C686 C687 1.352 . S
C687 C686 1.352 . S
C687 C688 1.384 . S
C687 H714 0.930 . S
C688 C683 1.407 . S
C688 C687 1.384 . S
C688 H715 0.929 . S
C689 O702 1.241 . S
C689 O703 1.273 . S
C690 O704 1.251 . S
C690 O705 1.268 . S
C691 Nd681 2.836 . S
C691 C692 1.498 . S
C691 O706 1.258 . S
C691 O707 1.239 . S
C692 C691 1.498 . S
C692 C693 1.366 . S
C692 C697 1.407 . S
C693 C692 1.366 . S
C693 C694 1.392 . S
C693 H716 0.930 . S
C694 C693 1.392 . S
C694 C695 1.398 . S
C694 H717 0.929 . S
C695 C694 1.398 . S
C695 C696 1.352 . S
C696 C695 1.352 . S
C696 C697 1.384 . S
C696 H718 0.930 . S
C697 C692 1.407 . S
C697 C696 1.384 . S
C697 H719 0.929 . S
C698 O708 1.241 . S
C698 O709 1.273 . S
C699 O710 1.251 . S
C699 O711 1.268 . S
O700 Nd680 2.500 . S
O700 C682 1.258 . S
O701 Nd680 2.492 . S
O701 C682 1.239 . S
O702 Nd680 2.487 . S
O702 C689 1.241 . S
O703 Nd680 2.682 . S
O703 Nd681 2.414 . S
O703 C689 1.273 . S
O704 Nd680 2.410 . S
O704 C690 1.251 . S
O705 Nd681 2.424 . S
O705 C690 1.268 . S
O706 Nd681 2.500 . S
O706 C691 1.258 . S
O707 Nd681 2.492 . S
O707 C691 1.239 . S
O708 Nd681 2.487 . S
O708 C698 1.241 . S
O709 Nd680 2.414 . S
O709 Nd681 2.682 . S
O709 C698 1.273 . S
O710 Nd681 2.410 . S
O710 C699 1.251 . S
O711 Nd680 2.424 . S
O711 C699 1.268 . S
H712 C684 0.930 . S
H713 C685 0.929 . S
H714 C687 0.930 . S
H715 C688 0.929 . S
H716 C693 0.930 . S
H717 C694 0.929 . S
H718 C696 0.930 . S
H719 C697 0.929 . S
Nd720 C722 2.836 1_556 S
Nd720 O740 2.500 . S
Nd720 O741 2.492 1_556 S
Nd720 O742 2.487 . S
Nd720 O743 2.682 . S
Nd720 O744 2.410 1_556 S
Nd720 O749 2.414 . S
Nd720 O751 2.424 . S
Nd721 C731 2.836 . S
Nd721 O743 2.414 . S
Nd721 O745 2.424 . S
Nd721 O746 2.500 . S
Nd721 O747 2.492 . S
Nd721 O748 2.487 . S
Nd721 O749 2.682 . S
Nd721 O750 2.410 . S
C722 Nd720 2.836 1_554 S
C722 C723 1.498 . S
C722 O740 1.258 1_554 S
C722 O741 1.239 . S
C723 C722 1.498 . S
C723 C724 1.366 . S
C723 C728 1.407 . S
C724 C723 1.366 . S
C724 C725 1.392 . S
C724 H752 0.930 . S
C725 C724 1.392 . S
C725 C726 1.398 . S
C725 H753 0.929 . S
C726 C725 1.398 . S
C726 C727 1.352 . S
C727 C726 1.352 . S
C727 C728 1.384 . S
C727 H754 0.930 . S
C728 C723 1.407 . S
C728 C727 1.384 . S
C728 H755 0.929 . S
C729 O742 1.241 . S
C729 O743 1.273 . S
C730 O744 1.251 . S
C730 O745 1.268 1_554 S
C731 Nd721 2.836 . S
C731 C732 1.498 . S
C731 O746 1.258 . S
C731 O747 1.239 . S
C732 C731 1.498 . S
C732 C733 1.366 . S
C732 C737 1.407 . S
C733 C732 1.366 . S
C733 C734 1.392 . S
C733 H756 0.930 . S
C734 C733 1.392 . S
C734 C735 1.398 . S
C734 H757 0.929 . S
C735 C734 1.398 . S
C735 C736 1.352 . S
C736 C735 1.352 . S
C736 C737 1.384 . S
C736 H758 0.930 . S
C737 C732 1.407 . S
C737 C736 1.384 . S
C737 H759 0.929 . S
C738 O748 1.241 . S
C738 O749 1.273 . S
C739 O750 1.251 . S
C739 O751 1.268 . S
O740 Nd720 2.500 . S
O740 C722 1.258 1_556 S
O741 Nd720 2.492 1_554 S
O741 C722 1.239 . S
O742 Nd720 2.487 . S
O742 C729 1.241 . S
O743 Nd720 2.682 . S
O743 Nd721 2.414 . S
O743 C729 1.273 . S
O744 Nd720 2.410 1_554 S
O744 C730 1.251 . S
O745 Nd721 2.424 . S
O745 C730 1.268 1_556 S
O746 Nd721 2.500 . S
O746 C731 1.258 . S
O747 Nd721 2.492 . S
O747 C731 1.239 . S
O748 Nd721 2.487 . S
O748 C738 1.241 . S
O749 Nd720 2.414 . S
O749 Nd721 2.682 . S
O749 C738 1.273 . S
O750 Nd721 2.410 . S
O750 C739 1.251 . S
O751 Nd720 2.424 . S
O751 C739 1.268 . S
H752 C724 0.930 . S
H753 C725 0.929 . S
H754 C727 0.930 . S
H755 C728 0.929 . S
H756 C733 0.930 . S
H757 C734 0.929 . S
H758 C736 0.930 . S
H759 C737 0.929 . S
Nd760 C762 2.836 . S
Nd760 O780 2.500 . S
Nd760 O781 2.492 . S
Nd760 O782 2.487 . S
Nd760 O783 2.682 . S
Nd760 O784 2.410 . S
Nd760 O789 2.414 1_455 S
Nd760 O791 2.424 1_455 S
Nd761 C771 2.836 . S
Nd761 O783 2.414 1_655 S
Nd761 O785 2.424 1_655 S
Nd761 O786 2.500 . S
Nd761 O787 2.492 . S
Nd761 O788 2.487 . S
Nd761 O789 2.682 . S
Nd761 O790 2.410 . S
C762 Nd760 2.836 . S
C762 C763 1.498 . S
C762 O780 1.258 . S
C762 O781 1.239 . S
C763 C762 1.498 . S
C763 C764 1.366 . S
C763 C768 1.407 . S
C764 C763 1.366 . S
C764 C765 1.392 . S
C764 H792 0.930 . S
C765 C764 1.392 . S
C765 C766 1.398 . S
C765 H793 0.929 . S
C766 C765 1.398 . S
C766 C767 1.352 . S
C767 C766 1.352 . S
C767 C768 1.384 . S
C767 H794 0.930 . S
C768 C763 1.407 . S
C768 C767 1.384 . S
C768 H795 0.929 . S
C769 O782 1.241 . S
C769 O783 1.273 . S
C770 O784 1.251 . S
C770 O785 1.268 . S
C771 Nd761 2.836 . S
C771 C772 1.498 . S
C771 O786 1.258 . S
C771 O787 1.239 . S
C772 C771 1.498 . S
C772 C773 1.366 . S
C772 C777 1.407 . S
C773 C772 1.366 . S
C773 C774 1.392 . S
C773 H796 0.930 . S
C774 C773 1.392 . S
C774 C775 1.398 . S
C774 H797 0.929 . S
C775 C774 1.398 . S
C775 C776 1.352 . S
C776 C775 1.352 . S
C776 C777 1.384 . S
C776 H798 0.930 . S
C777 C772 1.407 . S
C777 C776 1.384 . S
C777 H799 0.929 . S
C778 O788 1.241 . S
C778 O789 1.273 . S
C779 O790 1.251 . S
C779 O791 1.268 . S
O780 Nd760 2.500 . S
O780 C762 1.258 . S
O781 Nd760 2.492 . S
O781 C762 1.239 . S
O782 Nd760 2.487 . S
O782 C769 1.241 . S
O783 Nd760 2.682 . S
O783 Nd761 2.414 1_455 S
O783 C769 1.273 . S
O784 Nd760 2.410 . S
O784 C770 1.251 . S
O785 Nd761 2.424 1_455 S
O785 C770 1.268 . S
O786 Nd761 2.500 . S
O786 C771 1.258 . S
O787 Nd761 2.492 . S
O787 C771 1.239 . S
O788 Nd761 2.487 . S
O788 C778 1.241 . S
O789 Nd760 2.414 1_655 S
O789 Nd761 2.682 . S
O789 C778 1.273 . S
O790 Nd761 2.410 . S
O790 C779 1.251 . S
O791 Nd760 2.424 1_655 S
O791 C779 1.268 . S
H792 C764 0.930 . S
H793 C765 0.929 . S
H794 C767 0.930 . S
H795 C768 0.929 . S
H796 C773 0.930 . S
H797 C774 0.929 . S
H798 C776 0.930 . S
H799 C777 0.929 . S
Nd800 C802 2.836 . S
Nd800 O820 2.500 . S
Nd800 O821 2.492 . S
Nd800 O822 2.487 . S
Nd800 O823 2.682 . S
Nd800 O824 2.410 . S
Nd800 O829 2.414 . S
Nd800 O831 2.424 . S
Nd801 C811 2.836 . S
Nd801 O823 2.414 . S
Nd801 O825 2.424 . S
Nd801 O826 2.500 . S
Nd801 O827 2.492 . S
Nd801 O828 2.487 . S
Nd801 O829 2.682 . S
Nd801 O830 2.410 . S
C802 Nd800 2.836 . S
C802 C803 1.498 . S
C802 O820 1.258 . S
C802 O821 1.239 . S
C803 C802 1.498 . S
C803 C804 1.366 . S
C803 C808 1.407 . S
C804 C803 1.366 . S
C804 C805 1.392 . S
C804 H832 0.930 . S
C805 C804 1.392 . S
C805 C806 1.398 . S
C805 H833 0.929 . S
C806 C805 1.398 . S
C806 C807 1.352 . S
C807 C806 1.352 . S
C807 C808 1.384 . S
C807 H834 0.930 . S
C808 C803 1.407 . S
C808 C807 1.384 . S
C808 H835 0.929 . S
C809 O822 1.241 . S
C809 O823 1.273 . S
C810 O824 1.251 . S
C810 O825 1.268 . S
C811 Nd801 2.836 . S
C811 C812 1.498 . S
C811 O826 1.258 . S
C811 O827 1.239 . S
C812 C811 1.498 . S
C812 C813 1.366 . S
C812 C817 1.407 . S
C813 C812 1.366 . S
C813 C814 1.392 . S
C813 H836 0.930 . S
C814 C813 1.392 . S
C814 C815 1.398 . S
C814 H837 0.929 . S
C815 C814 1.398 . S
C815 C816 1.352 . S
C816 C815 1.352 . S
C816 C817 1.384 . S
C816 H838 0.930 . S
C817 C812 1.407 . S
C817 C816 1.384 . S
C817 H839 0.929 . S
C818 O828 1.241 . S
C818 O829 1.273 . S
C819 O830 1.251 . S
C819 O831 1.268 . S
O820 Nd800 2.500 . S
O820 C802 1.258 . S
O821 Nd800 2.492 . S
O821 C802 1.239 . S
O822 Nd800 2.487 . S
O822 C809 1.241 . S
O823 Nd800 2.682 . S
O823 Nd801 2.414 . S
O823 C809 1.273 . S
O824 Nd800 2.410 . S
O824 C810 1.251 . S
O825 Nd801 2.424 . S
O825 C810 1.268 . S
O826 Nd801 2.500 . S
O826 C811 1.258 . S
O827 Nd801 2.492 . S
O827 C811 1.239 . S
O828 Nd801 2.487 . S
O828 C818 1.241 . S
O829 Nd800 2.414 . S
O829 Nd801 2.682 . S
O829 C818 1.273 . S
O830 Nd801 2.410 . S
O830 C819 1.251 . S
O831 Nd800 2.424 . S
O831 C819 1.268 . S
H832 C804 0.930 . S
H833 C805 0.929 . S
H834 C807 0.930 . S
H835 C808 0.929 . S
H836 C813 0.930 . S
H837 C814 0.929 . S
H838 C816 0.930 . S
H839 C817 0.929 . S
Nd840 C842 2.836 . S
Nd840 O860 2.500 . S
Nd840 O861 2.492 . S
Nd840 O862 2.487 . S
Nd840 O863 2.682 . S
Nd840 O864 2.410 . S
Nd840 O869 2.414 . S
Nd840 O871 2.424 . S
Nd841 C851 2.836 . S
Nd841 O863 2.414 . S
Nd841 O865 2.424 . S
Nd841 O866 2.500 . S
Nd841 O867 2.492 . S
Nd841 O868 2.487 . S
Nd841 O869 2.682 . S
Nd841 O870 2.410 . S
C842 Nd840 2.836 . S
C842 C843 1.498 . S
C842 O860 1.258 . S
C842 O861 1.239 . S
C843 C842 1.498 . S
C843 C844 1.366 . S
C843 C848 1.407 . S
C844 C843 1.366 . S
C844 C845 1.392 . S
C844 H872 0.930 . S
C845 C844 1.392 . S
C845 C846 1.398 . S
C845 H873 0.929 . S
C846 C845 1.398 . S
C846 C847 1.352 . S
C847 C846 1.352 . S
C847 C848 1.384 . S
C847 H874 0.930 . S
C848 C843 1.407 . S
C848 C847 1.384 . S
C848 H875 0.929 . S
C849 O862 1.241 . S
C849 O863 1.273 . S
C850 O864 1.251 . S
C850 O865 1.268 . S
C851 Nd841 2.836 . S
C851 C852 1.498 . S
C851 O866 1.258 . S
C851 O867 1.239 . S
C852 C851 1.498 . S
C852 C853 1.366 . S
C852 C857 1.407 . S
C853 C852 1.366 . S
C853 C854 1.392 . S
C853 H876 0.930 . S
C854 C853 1.392 . S
C854 C855 1.398 . S
C854 H877 0.929 . S
C855 C854 1.398 . S
C855 C856 1.352 . S
C856 C855 1.352 . S
C856 C857 1.384 . S
C856 H878 0.930 . S
C857 C852 1.407 . S
C857 C856 1.384 . S
C857 H879 0.929 . S
C858 O868 1.241 . S
C858 O869 1.273 . S
C859 O870 1.251 . S
C859 O871 1.268 . S
O860 Nd840 2.500 . S
O860 C842 1.258 . S
O861 Nd840 2.492 . S
O861 C842 1.239 . S
O862 Nd840 2.487 . S
O862 C849 1.241 . S
O863 Nd840 2.682 . S
O863 Nd841 2.414 . S
O863 C849 1.273 . S
O864 Nd840 2.410 . S
O864 C850 1.251 . S
O865 Nd841 2.424 . S
O865 C850 1.268 . S
O866 Nd841 2.500 . S
O866 C851 1.258 . S
O867 Nd841 2.492 . S
O867 C851 1.239 . S
O868 Nd841 2.487 . S
O868 C858 1.241 . S
O869 Nd840 2.414 . S
O869 Nd841 2.682 . S
O869 C858 1.273 . S
O870 Nd841 2.410 . S
O870 C859 1.251 . S
O871 Nd840 2.424 . S
O871 C859 1.268 . S
H872 C844 0.930 . S
H873 C845 0.929 . S
H874 C847 0.930 . S
H875 C848 0.929 . S
H876 C853 0.930 . S
H877 C854 0.929 . S
H878 C856 0.930 . S
H879 C857 0.929 . S
Nd880 C882 2.836 . S
Nd880 O900 2.500 . S
Nd880 O901 2.492 . S
Nd880 O902 2.487 . S
Nd880 O903 2.682 . S
Nd880 O904 2.410 . S
Nd880 O909 2.414 . S
Nd880 O911 2.424 . S
Nd881 C891 2.836 . S
Nd881 O903 2.414 . S
Nd881 O905 2.424 . S
Nd881 O906 2.500 . S
Nd881 O907 2.492 . S
Nd881 O908 2.487 . S
Nd881 O909 2.682 . S
Nd881 O910 2.410 . S
C882 Nd880 2.836 . S
C882 C883 1.498 . S
C882 O900 1.258 . S
C882 O901 1.239 . S
C883 C882 1.498 . S
C883 C884 1.366 . S
C883 C888 1.407 . S
C884 C883 1.366 . S
C884 C885 1.392 1_455 S
C884 H912 0.930 . S
C885 C884 1.392 1_655 S
C885 C886 1.398 . S
C885 H913 0.929 . S
C886 C885 1.398 . S
C886 C887 1.352 1_654 S
C887 C886 1.352 1_456 S
C887 C888 1.384 1_556 S
C887 H914 0.930 . S
C888 C883 1.407 . S
C888 C887 1.384 1_554 S
C888 H915 0.929 1_554 S
C889 O902 1.241 . S
C889 O903 1.273 . S
C890 O904 1.251 . S
C890 O905 1.268 . S
C891 Nd881 2.836 . S
C891 C892 1.498 . S
C891 O906 1.258 . S
C891 O907 1.239 . S
C892 C891 1.498 . S
C892 C893 1.366 . S
C892 C897 1.407 . S
C893 C892 1.366 . S
C893 C894 1.392 . S
C893 H916 0.930 . S
C894 C893 1.392 . S
C894 C895 1.398 . S
C894 H917 0.929 . S
C895 C894 1.398 . S
C895 C896 1.352 . S
C896 C895 1.352 . S
C896 C897 1.384 . S
C896 H918 0.930 . S
C897 C892 1.407 . S
C897 C896 1.384 . S
C897 H919 0.929 . S
C898 O908 1.241 . S
C898 O909 1.273 . S
C899 O910 1.251 . S
C899 O911 1.268 . S
O900 Nd880 2.500 . S
O900 C882 1.258 . S
O901 Nd880 2.492 . S
O901 C882 1.239 . S
O902 Nd880 2.487 . S
O902 C889 1.241 . S
O903 Nd880 2.682 . S
O903 Nd881 2.414 . S
O903 C889 1.273 . S
O904 Nd880 2.410 . S
O904 C890 1.251 . S
O905 Nd881 2.424 . S
O905 C890 1.268 . S
O906 Nd881 2.500 . S
O906 C891 1.258 . S
O907 Nd881 2.492 . S
O907 C891 1.239 . S
O908 Nd881 2.487 . S
O908 C898 1.241 . S
O909 Nd880 2.414 . S
O909 Nd881 2.682 . S
O909 C898 1.273 . S
O910 Nd881 2.410 . S
O910 C899 1.251 . S
O911 Nd880 2.424 . S
O911 C899 1.268 . S
H912 C884 0.930 . S
H913 C885 0.929 . S
H914 C887 0.930 . S
H915 C888 0.929 1_556 S
H916 C893 0.930 . S
H917 C894 0.929 . S
H918 C896 0.930 . S
H919 C897 0.929 . S
Nd920 C922 2.836 . S
Nd920 O940 2.500 . S
Nd920 O941 2.492 . S
Nd920 O942 2.487 . S
Nd920 O943 2.682 . S
Nd920 O944 2.410 . S
Nd920 O949 2.414 . S
Nd920 O951 2.424 . S
Nd921 C931 2.836 . S
Nd921 O943 2.414 . S
Nd921 O945 2.424 . S
Nd921 O946 2.500 . S
Nd921 O947 2.492 . S
Nd921 O948 2.487 . S
Nd921 O949 2.682 . S
Nd921 O950 2.410 . S
C922 Nd920 2.836 . S
C922 C923 1.498 . S
C922 O940 1.258 . S
C922 O941 1.239 . S
C923 C922 1.498 . S
C923 C924 1.366 . S
C923 C928 1.407 . S
C924 C923 1.366 . S
C924 C925 1.392 . S
C924 H952 0.930 . S
C925 C924 1.392 . S
C925 C926 1.398 . S
C925 H953 0.929 . S
C926 C925 1.398 . S
C926 C927 1.352 . S
C927 C926 1.352 . S
C927 C928 1.384 . S
C927 H954 0.930 . S
C928 C923 1.407 . S
C928 C927 1.384 . S
C928 H955 0.929 . S
C929 O942 1.241 . S
C929 O943 1.273 . S
C930 O944 1.251 . S
C930 O945 1.268 . S
C931 Nd921 2.836 . S
C931 C932 1.498 1_565 S
C931 O946 1.258 . S
C931 O947 1.239 . S
C932 C931 1.498 1_545 S
C932 C933 1.366 . S
C932 C937 1.407 . S
C933 C932 1.366 . S
C933 C934 1.392 . S
C933 H956 0.930 . S
C934 C933 1.392 . S
C934 C935 1.398 . S
C934 H957 0.929 . S
C935 C934 1.398 . S
C935 C936 1.352 . S
C936 C935 1.352 . S
C936 C937 1.384 . S
C936 H958 0.930 . S
C937 C932 1.407 . S
C937 C936 1.384 . S
C937 H959 0.929 . S
C938 O948 1.241 . S
C938 O949 1.273 . S
C939 O950 1.251 . S
C939 O951 1.268 . S
O940 Nd920 2.500 . S
O940 C922 1.258 . S
O941 Nd920 2.492 . S
O941 C922 1.239 . S
O942 Nd920 2.487 . S
O942 C929 1.241 . S
O943 Nd920 2.682 . S
O943 Nd921 2.414 . S
O943 C929 1.273 . S
O944 Nd920 2.410 . S
O944 C930 1.251 . S
O945 Nd921 2.424 . S
O945 C930 1.268 . S
O946 Nd921 2.500 . S
O946 C931 1.258 . S
O947 Nd921 2.492 . S
O947 C931 1.239 . S
O948 Nd921 2.487 . S
O948 C938 1.241 . S
O949 Nd920 2.414 . S
O949 Nd921 2.682 . S
O949 C938 1.273 . S
O950 Nd921 2.410 . S
O950 C939 1.251 . S
O951 Nd920 2.424 . S
O951 C939 1.268 . S
H952 C924 0.930 . S
H953 C925 0.929 . S
H954 C927 0.930 . S
H955 C928 0.929 . S
H956 C933 0.930 . S
H957 C934 0.929 . S
H958 C936 0.930 . S
H959 C937 0.929 . S
Nd960 C962 2.836 . S
Nd960 O980 2.500 . S
Nd960 O981 2.492 . S
Nd960 O982 2.487 . S
Nd960 O983 2.682 . S
Nd960 O984 2.410 . S
Nd960 O989 2.414 1_545 S
Nd960 O991 2.424 1_545 S
Nd961 C971 2.836 . S
Nd961 O983 2.414 1_565 S
Nd961 O985 2.424 1_565 S
Nd961 O986 2.500 . S
Nd961 O987 2.492 . S
Nd961 O988 2.487 . S
Nd961 O989 2.682 . S
Nd961 O990 2.410 . S
C962 Nd960 2.836 . S
C962 C963 1.498 . S
C962 O980 1.258 . S
C962 O981 1.239 . S
C963 C962 1.498 . S
C963 C964 1.366 . S
C963 C968 1.407 . S
C964 C963 1.366 . S
C964 C965 1.392 . S
C964 H992 0.930 . S
C965 C964 1.392 . S
C965 C966 1.398 . S
C965 H993 0.929 . S
C966 C965 1.398 . S
C966 C967 1.352 . S
C967 C966 1.352 . S
C967 C968 1.384 . S
C967 H994 0.930 . S
C968 C963 1.407 . S
C968 C967 1.384 . S
C968 H995 0.929 . S
C969 O982 1.241 . S
C969 O983 1.273 . S
C970 O984 1.251 . S
C970 O985 1.268 . S
C971 Nd961 2.836 . S
C971 C972 1.498 . S
C971 O986 1.258 . S
C971 O987 1.239 . S
C972 C971 1.498 . S
C972 C973 1.366 . S
C972 C977 1.407 . S
C973 C972 1.366 . S
C973 C974 1.392 . S
C973 H996 0.930 . S
C974 C973 1.392 . S
C974 C975 1.398 . S
C974 H997 0.929 . S
C975 C974 1.398 . S
C975 C976 1.352 . S
C976 C975 1.352 . S
C976 C977 1.384 . S
C976 H998 0.930 . S
C977 C972 1.407 . S
C977 C976 1.384 . S
C977 H999 0.929 . S
C978 O988 1.241 . S
C978 O989 1.273 . S
C979 O990 1.251 . S
C979 O991 1.268 . S
O980 Nd960 2.500 . S
O980 C962 1.258 . S
O981 Nd960 2.492 . S
O981 C962 1.239 . S
O982 Nd960 2.487 . S
O982 C969 1.241 . S
O983 Nd960 2.682 . S
O983 Nd961 2.414 1_545 S
O983 C969 1.273 . S
O984 Nd960 2.410 . S
O984 C970 1.251 . S
O985 Nd961 2.424 1_545 S
O985 C970 1.268 . S
O986 Nd961 2.500 . S
O986 C971 1.258 . S
O987 Nd961 2.492 . S
O987 C971 1.239 . S
O988 Nd961 2.487 . S
O988 C978 1.241 . S
O989 Nd960 2.414 1_565 S
O989 Nd961 2.682 . S
O989 C978 1.273 . S
O990 Nd961 2.410 . S
O990 C979 1.251 . S
O991 Nd960 2.424 1_565 S
O991 C979 1.268 . S
H992 C964 0.930 . S
H993 C965 0.929 . S
H994 C967 0.930 . S
H995 C968 0.929 . S
H996 C973 0.930 . S
H997 C974 0.929 . S
H998 C976 0.930 . S
H999 C977 0.929 . S
Nd1000 C1002 2.836 1_554 S
Nd1000 O1020 2.500 1_554 S
Nd1000 O1021 2.496 . S
Nd1000 O1022 2.487 . S
Nd1000 O1023 2.682 . S
Nd1000 O1024 2.410 . S
Nd1000 O1029 2.414 . S
Nd1000 O1031 2.424 . S
Nd1001 C1011 2.836 . S
Nd1001 O1023 2.414 . S
Nd1001 O1025 2.424 . S
Nd1001 O1026 2.500 . S
Nd1001 O1027 2.492 . S
Nd1001 O1028 2.487 . S
Nd1001 O1029 2.682 . S
Nd1001 O1030 2.410 . S
C1002 Nd1000 2.836 1_556 S
C1002 C1003 1.498 . S
C1002 O1020 1.258 . S
C1002 O1021 1.224 1_556 S
C1003 C1002 1.498 . S
C1003 C1004 1.366 . S
C1003 C1008 1.407 . S
C1004 C1003 1.366 . S
C1004 C1005 1.392 . S
C1004 H1032 0.930 . S
C1005 C1004 1.392 . S
C1005 C1006 1.398 . S
C1005 H1033 0.929 . S
C1006 C1005 1.398 . S
C1006 C1007 1.352 . S
C1007 C1006 1.352 . S
C1007 C1008 1.384 . S
C1007 H1034 0.930 . S
C1008 C1003 1.407 . S
C1008 C1007 1.384 . S
C1008 H1035 0.929 . S
C1009 O1022 1.241 . S
C1009 O1023 1.273 . S
C1010 O1024 1.251 . S
C1010 O1025 1.268 . S
C1011 Nd1001 2.836 . S
C1011 C1012 1.498 . S
C1011 O1026 1.258 . S
C1011 O1027 1.239 . S
C1012 C1011 1.498 . S
C1012 C1013 1.366 . S
C1012 C1017 1.407 . S
C1013 C1012 1.366 . S
C1013 C1014 1.392 . S
C1013 H1036 0.930 . S
C1014 C1013 1.392 . S
C1014 C1015 1.398 . S
C1014 H1037 0.929 . S
C1015 C1014 1.398 . S
C1015 C1016 1.352 . S
C1016 C1015 1.352 . S
C1016 C1017 1.384 . S
C1016 H1038 0.930 . S
C1017 C1012 1.407 . S
C1017 C1016 1.384 . S
C1017 H1039 0.929 . S
C1018 O1028 1.241 1_556 S
C1018 O1029 1.273 1_556 S
C1019 O1030 1.251 . S
C1019 O1031 1.268 . S
O1020 Nd1000 2.500 1_556 S
O1020 C1002 1.258 . S
O1021 Nd1000 2.496 . S
O1021 C1002 1.224 1_554 S
O1022 Nd1000 2.487 . S
O1022 C1009 1.241 . S
O1023 Nd1000 2.682 . S
O1023 Nd1001 2.414 . S
O1023 C1009 1.273 . S
O1024 Nd1000 2.410 . S
O1024 C1010 1.251 . S
O1025 Nd1001 2.424 . S
O1025 C1010 1.268 . S
O1026 Nd1001 2.500 . S
O1026 C1011 1.258 . S
O1027 Nd1001 2.492 . S
O1027 C1011 1.239 . S
O1028 Nd1001 2.487 . S
O1028 C1018 1.241 1_554 S
O1029 Nd1000 2.414 . S
O1029 Nd1001 2.682 . S
O1029 C1018 1.273 1_554 S
O1030 Nd1001 2.410 . S
O1030 C1019 1.251 . S
O1031 Nd1000 2.424 . S
O1031 C1019 1.268 . S
H1032 C1004 0.930 . S
H1033 C1005 0.929 . S
H1034 C1007 0.930 . S
H1035 C1008 0.929 . S
H1036 C1013 0.930 . S
H1037 C1014 0.929 . S
H1038 C1016 0.930 . S
H1039 C1017 0.929 . S
Nd1040 C1042 2.836 . S
Nd1040 O1060 2.500 . S
Nd1040 O1061 2.492 . S
Nd1040 O1062 2.487 . S
Nd1040 O1063 2.682 . S
Nd1040 O1064 2.410 . S
Nd1040 O1069 2.414 . S
Nd1040 O1071 2.424 . S
Nd1041 C1051 2.836 . S
Nd1041 O1063 2.414 . S
Nd1041 O1065 2.424 . S
Nd1041 O1066 2.500 . S
Nd1041 O1067 2.492 . S
Nd1041 O1068 2.487 . S
Nd1041 O1069 2.682 . S
Nd1041 O1070 2.410 . S
C1042 Nd1040 2.836 . S
C1042 C1043 1.498 . S
C1042 O1060 1.258 . S
C1042 O1061 1.239 . S
C1043 C1042 1.498 . S
C1043 C1044 1.366 . S
C1043 C1048 1.407 . S
C1044 C1043 1.366 . S
C1044 C1045 1.392 . S
C1044 H1072 0.930 . S
C1045 C1044 1.392 . S
C1045 C1046 1.398 . S
C1045 H1073 0.929 . S
C1046 C1045 1.398 . S
C1046 C1047 1.352 . S
C1047 C1046 1.352 . S
C1047 C1048 1.384 . S
C1047 H1074 0.930 1_545 S
C1048 C1043 1.407 . S
C1048 C1047 1.384 . S
C1048 H1075 0.929 . S
C1049 O1062 1.241 . S
C1049 O1063 1.273 . S
C1050 O1064 1.251 . S
C1050 O1065 1.268 . S
C1051 Nd1041 2.836 . S
C1051 C1052 1.498 . S
C1051 O1066 1.258 . S
C1051 O1067 1.239 . S
C1052 C1051 1.498 . S
C1052 C1053 1.366 . S
C1052 C1057 1.407 . S
C1053 C1052 1.366 . S
C1053 C1054 1.392 . S
C1053 H1076 0.930 . S
C1054 C1053 1.392 . S
C1054 C1055 1.398 . S
C1054 H1077 0.929 . S
C1055 C1054 1.398 . S
C1055 C1056 1.352 . S
C1056 C1055 1.352 . S
C1056 C1057 1.384 . S
C1056 H1078 0.930 . S
C1057 C1052 1.407 . S
C1057 C1056 1.384 . S
C1057 H1079 0.929 . S
C1058 O1068 1.241 . S
C1058 O1069 1.273 . S
C1059 O1070 1.251 . S
C1059 O1071 1.268 . S
O1060 Nd1040 2.500 . S
O1060 C1042 1.258 . S
O1061 Nd1040 2.492 . S
O1061 C1042 1.239 . S
O1062 Nd1040 2.487 . S
O1062 C1049 1.241 . S
O1063 Nd1040 2.682 . S
O1063 Nd1041 2.414 . S
O1063 C1049 1.273 . S
O1064 Nd1040 2.410 . S
O1064 C1050 1.251 . S
O1065 Nd1041 2.424 . S
O1065 C1050 1.268 . S
O1066 Nd1041 2.500 . S
O1066 C1051 1.258 . S
O1067 Nd1041 2.492 . S
O1067 C1051 1.239 . S
O1068 Nd1041 2.487 . S
O1068 C1058 1.241 . S
O1069 Nd1040 2.414 . S
O1069 Nd1041 2.682 . S
O1069 C1058 1.273 . S
O1070 Nd1041 2.410 . S
O1070 C1059 1.251 . S
O1071 Nd1040 2.424 . S
O1071 C1059 1.268 . S
H1072 C1044 0.930 . S
H1073 C1045 0.929 . S
H1074 C1047 0.930 1_565 S
H1075 C1048 0.929 . S
H1076 C1053 0.930 . S
H1077 C1054 0.929 . S
H1078 C1056 0.930 . S
H1079 C1057 0.929 . S
Nd1080 C1082 2.836 . S
Nd1080 O1100 2.500 . S
Nd1080 O1101 2.492 . S
Nd1080 O1102 2.487 . S
Nd1080 O1103 2.682 . S
Nd1080 O1104 2.410 . S
Nd1080 O1109 2.414 1_556 S
Nd1080 O1111 2.424 1_556 S
Nd1081 C1091 2.836 . S
Nd1081 O1103 2.414 1_554 S
Nd1081 O1105 2.424 1_554 S
Nd1081 O1106 2.500 . S
Nd1081 O1107 2.492 . S
Nd1081 O1108 2.487 . S
Nd1081 O1109 2.682 . S
Nd1081 O1110 2.410 . S
C1082 Nd1080 2.836 . S
C1082 C1083 1.498 . S
C1082 O1100 1.258 . S
C1082 O1101 1.239 . S
C1083 C1082 1.498 . S
C1083 C1084 1.366 . S
C1083 C1088 1.407 . S
C1084 C1083 1.366 . S
C1084 C1085 1.392 . S
C1084 H1112 0.930 . S
C1085 C1084 1.392 . S
C1085 C1086 1.398 . S
C1085 H1113 0.929 . S
C1086 C1085 1.398 . S
C1086 C1087 1.352 . S
C1087 C1086 1.352 . S
C1087 C1088 1.384 . S
C1087 H1114 0.930 . S
C1088 C1083 1.407 . S
C1088 C1087 1.384 . S
C1088 H1115 0.929 . S
C1089 O1102 1.241 . S
C1089 O1103 1.273 . S
C1090 O1104 1.251 . S
C1090 O1105 1.268 . S
C1091 Nd1081 2.836 . S
C1091 C1092 1.498 . S
C1091 O1106 1.258 . S
C1091 O1107 1.239 . S
C1092 C1091 1.498 . S
C1092 C1093 1.366 . S
C1092 C1097 1.407 . S
C1093 C1092 1.366 . S
C1093 C1094 1.392 . S
C1093 H1116 0.930 . S
C1094 C1093 1.392 . S
C1094 C1095 1.398 . S
C1094 H1117 0.929 . S
C1095 C1094 1.398 . S
C1095 C1096 1.352 . S
C1096 C1095 1.352 . S
C1096 C1097 1.384 . S
C1096 H1118 0.930 . S
C1097 C1092 1.407 . S
C1097 C1096 1.384 . S
C1097 H1119 0.929 . S
C1098 O1108 1.241 . S
C1098 O1109 1.273 . S
C1099 O1110 1.251 . S
C1099 O1111 1.268 . S
O1100 Nd1080 2.500 . S
O1100 C1082 1.258 . S
O1101 Nd1080 2.492 . S
O1101 C1082 1.239 . S
O1102 Nd1080 2.487 . S
O1102 C1089 1.241 . S
O1103 Nd1080 2.682 . S
O1103 Nd1081 2.414 1_556 S
O1103 C1089 1.273 . S
O1104 Nd1080 2.410 . S
O1104 C1090 1.251 . S
O1105 Nd1081 2.424 1_556 S
O1105 C1090 1.268 . S
O1106 Nd1081 2.500 . S
O1106 C1091 1.258 . S
O1107 Nd1081 2.492 . S
O1107 C1091 1.239 . S
O1108 Nd1081 2.487 . S
O1108 C1098 1.241 . S
O1109 Nd1080 2.414 1_554 S
O1109 Nd1081 2.682 . S
O1109 C1098 1.273 . S
O1110 Nd1081 2.410 . S
O1110 C1099 1.251 . S
O1111 Nd1080 2.424 1_554 S
O1111 C1099 1.268 . S
H1112 C1084 0.930 . S
H1113 C1085 0.929 . S
H1114 C1087 0.930 . S
H1115 C1088 0.929 . S
H1116 C1093 0.930 . S
H1117 C1094 0.929 . S
H1118 C1096 0.930 . S
H1119 C1097 0.929 . S
Nd1120 C1122 2.836 1_545 S
Nd1120 O1140 2.500 1_545 S
Nd1120 O1141 2.492 . S
Nd1120 O1142 2.487 . S
Nd1120 O1143 2.682 . S
Nd1120 O1144 2.410 . S
Nd1120 O1149 2.414 . S
Nd1120 O1151 2.424 . S
Nd1121 C1131 2.836 . S
Nd1121 O1143 2.414 . S
Nd1121 O1145 2.424 . S
Nd1121 O1146 2.500 . S
Nd1121 O1147 2.492 . S
Nd1121 O1148 2.487 . S
Nd1121 O1149 2.682 . S
Nd1121 O1150 2.410 . S
C1122 Nd1120 2.836 1_565 S
C1122 C1123 1.498 . S
C1122 O1140 1.258 . S
C1122 O1141 1.239 1_565 S
C1123 C1122 1.498 . S
C1123 C1124 1.366 . S
C1123 C1128 1.407 . S
C1124 C1123 1.366 . S
C1124 C1125 1.392 . S
C1124 H1152 0.930 . S
C1125 C1124 1.392 . S
C1125 C1126 1.398 . S
C1125 H1153 0.929 . S
C1126 C1125 1.398 . S
C1126 C1127 1.352 . S
C1127 C1126 1.352 . S
C1127 C1128 1.384 . S
C1127 H1154 0.930 . S
C1128 C1123 1.407 . S
C1128 C1127 1.384 . S
C1128 H1155 0.929 . S
C1129 O1142 1.241 . S
C1129 O1143 1.273 . S
C1130 O1144 1.251 . S
C1130 O1145 1.268 . S
C1131 Nd1121 2.836 . S
C1131 C1132 1.498 . S
C1131 O1146 1.258 . S
C1131 O1147 1.239 . S
C1132 C1131 1.498 . S
C1132 C1133 1.366 . S
C1132 C1137 1.407 . S
C1133 C1132 1.366 . S
C1133 C1134 1.392 . S
C1133 H1156 0.930 . S
C1134 C1133 1.392 . S
C1134 C1135 1.398 . S
C1134 H1157 0.929 . S
C1135 C1134 1.398 . S
C1135 C1136 1.352 . S
C1136 C1135 1.352 . S
C1136 C1137 1.384 . S
C1136 H1158 0.930 . S
C1137 C1132 1.407 . S
C1137 C1136 1.384 . S
C1137 H1159 0.929 . S
C1138 O1148 1.241 . S
C1138 O1149 1.273 . S
C1139 O1150 1.251 . S
C1139 O1151 1.268 . S
O1140 Nd1120 2.500 1_565 S
O1140 C1122 1.258 . S
O1141 Nd1120 2.492 . S
O1141 C1122 1.239 1_545 S
O1142 Nd1120 2.487 . S
O1142 C1129 1.241 . S
O1143 Nd1120 2.682 . S
O1143 Nd1121 2.414 . S
O1143 C1129 1.273 . S
O1144 Nd1120 2.410 . S
O1144 C1130 1.251 . S
O1145 Nd1121 2.424 . S
O1145 C1130 1.268 . S
O1146 Nd1121 2.500 . S
O1146 C1131 1.258 . S
O1147 Nd1121 2.492 . S
O1147 C1131 1.239 . S
O1148 Nd1121 2.487 . S
O1148 C1138 1.241 . S
O1149 Nd1120 2.414 . S
O1149 Nd1121 2.682 . S
O1149 C1138 1.273 . S
O1150 Nd1121 2.410 . S
O1150 C1139 1.251 . S
O1151 Nd1120 2.424 . S
O1151 C1139 1.268 . S
H1152 C1124 0.930 . S
H1153 C1125 0.929 . S
H1154 C1127 0.930 . S
H1155 C1128 0.929 . S
H1156 C1133 0.930 . S
H1157 C1134 0.929 . S
H1158 C1136 0.930 . S
H1159 C1137 0.929 . S
Nd1160 C1162 2.836 . S
Nd1160 O1180 2.500 . S
Nd1160 O1181 2.492 . S
Nd1160 O1182 2.487 . S
Nd1160 O1183 2.682 . S
Nd1160 O1184 2.410 . S
Nd1160 O1189 2.414 . S
Nd1160 O1191 2.424 . S
Nd1161 C1171 2.836 . S
Nd1161 O1183 2.414 . S
Nd1161 O1185 2.424 . S
Nd1161 O1186 2.500 . S
Nd1161 O1187 2.492 . S
Nd1161 O1188 2.487 . S
Nd1161 O1189 2.682 . S
Nd1161 O1190 2.410 . S
C1162 Nd1160 2.836 . S
C1162 C1163 1.498 . S
C1162 O1180 1.258 . S
C1162 O1181 1.239 . S
C1163 C1162 1.498 . S
C1163 C1164 1.366 . S
C1163 C1168 1.407 . S
C1164 C1163 1.366 . S
C1164 C1165 1.392 . S
C1164 H1192 0.930 . S
C1165 C1164 1.392 . S
C1165 C1166 1.398 . S
C1165 H1193 0.929 . S
C1166 C1165 1.398 . S
C1166 C1167 1.352 . S
C1167 C1166 1.352 . S
C1167 C1168 1.384 . S
C1167 H1194 0.930 . S
C1168 C1163 1.407 . S
C1168 C1167 1.384 . S
C1168 H1195 0.929 . S
C1169 O1182 1.241 . S
C1169 O1183 1.273 . S
C1170 O1184 1.251 . S
C1170 O1185 1.268 . S
C1171 Nd1161 2.836 . S
C1171 C1172 1.498 . S
C1171 O1186 1.258 . S
C1171 O1187 1.239 . S
C1172 C1171 1.498 . S
C1172 C1173 1.366 . S
C1172 C1177 1.407 . S
C1173 C1172 1.366 . S
C1173 C1174 1.392 1_655 S
C1173 H1196 0.923 1_655 S
C1174 C1173 1.392 1_455 S
C1174 C1175 1.398 . S
C1174 H1197 0.929 . S
C1175 C1174 1.398 . S
C1175 C1176 1.352 1_455 S
C1176 C1175 1.352 1_655 S
C1176 C1177 1.384 . S
C1176 H1198 0.930 . S
C1177 C1172 1.407 . S
C1177 C1176 1.384 . S
C1177 H1199 0.929 . S
C1178 O1188 1.241 . S
C1178 O1189 1.273 . S
C1179 O1190 1.251 . S
C1179 O1191 1.268 . S
O1180 Nd1160 2.500 . S
O1180 C1162 1.258 . S
O1181 Nd1160 2.492 . S
O1181 C1162 1.239 . S
O1182 Nd1160 2.487 . S
O1182 C1169 1.241 . S
O1183 Nd1160 2.682 . S
O1183 Nd1161 2.414 . S
O1183 C1169 1.273 . S
O1184 Nd1160 2.410 . S
O1184 C1170 1.251 . S
O1185 Nd1161 2.424 . S
O1185 C1170 1.268 . S
O1186 Nd1161 2.500 . S
O1186 C1171 1.258 . S
O1187 Nd1161 2.492 . S
O1187 C1171 1.239 . S
O1188 Nd1161 2.487 . S
O1188 C1178 1.241 . S
O1189 Nd1160 2.414 . S
O1189 Nd1161 2.682 . S
O1189 C1178 1.273 . S
O1190 Nd1161 2.410 . S
O1190 C1179 1.251 . S
O1191 Nd1160 2.424 . S
O1191 C1179 1.268 . S
H1192 C1164 0.930 . S
H1193 C1165 0.929 . S
H1194 C1167 0.930 . S
H1195 C1168 0.929 . S
H1196 C1173 0.923 1_455 S
H1197 C1174 0.929 . S
H1198 C1176 0.930 . S
H1199 C1177 0.929 . S
Nd1200 C1202 2.836 . S
Nd1200 O1220 2.500 . S
Nd1200 O1221 2.492 . S
Nd1200 O1222 2.487 . S
Nd1200 O1223 2.682 . S
Nd1200 O1224 2.410 . S
Nd1200 O1229 2.414 . S
Nd1200 O1231 2.424 . S
Nd1201 C1211 2.836 . S
Nd1201 O1223 2.414 . S
Nd1201 O1225 2.424 . S
Nd1201 O1226 2.500 . S
Nd1201 O1227 2.492 . S
Nd1201 O1228 2.487 . S
Nd1201 O1229 2.682 . S
Nd1201 O1230 2.410 . S
C1202 Nd1200 2.836 . S
C1202 C1203 1.498 . S
C1202 O1220 1.258 . S
C1202 O1221 1.239 . S
C1203 C1202 1.498 . S
C1203 C1204 1.366 . S
C1203 C1208 1.407 . S
C1204 C1203 1.366 . S
C1204 C1205 1.392 . S
C1204 H1232 0.930 . S
C1205 C1204 1.392 . S
C1205 C1206 1.398 . S
C1205 H1233 0.929 . S
C1206 C1205 1.398 . S
C1206 C1207 1.352 . S
C1207 C1206 1.352 . S
C1207 C1208 1.384 . S
C1207 H1234 0.930 . S
C1208 C1203 1.407 . S
C1208 C1207 1.384 . S
C1208 H1235 0.929 . S
C1209 O1222 1.241 . S
C1209 O1223 1.273 . S
C1210 O1224 1.251 . S
C1210 O1225 1.268 . S
C1211 Nd1201 2.836 . S
C1211 C1212 1.501 . S
C1211 O1226 1.258 . S
C1211 O1227 1.239 . S
C1212 C1211 1.501 . S
C1212 C1213 1.362 1_565 S
C1212 C1217 1.409 . S
C1213 C1212 1.362 1_545 S
C1213 C1214 1.392 . S
C1213 H1236 0.930 . S
C1214 C1213 1.392 . S
C1214 C1215 1.398 . S
C1214 H1237 0.929 . S
C1215 C1214 1.398 . S
C1215 C1216 1.352 . S
C1216 C1215 1.352 . S
C1216 C1217 1.384 1_545 S
C1216 H1238 0.929 1_545 S
C1217 C1212 1.409 . S
C1217 C1216 1.384 1_565 S
C1217 H1239 0.929 . S
C1218 O1228 1.241 . S
C1218 O1229 1.273 . S
C1219 O1230 1.251 . S
C1219 O1231 1.268 . S
O1220 Nd1200 2.500 . S
O1220 C1202 1.258 . S
O1221 Nd1200 2.492 . S
O1221 C1202 1.239 . S
O1222 Nd1200 2.487 . S
O1222 C1209 1.241 . S
O1223 Nd1200 2.682 . S
O1223 Nd1201 2.414 . S
O1223 C1209 1.273 . S
O1224 Nd1200 2.410 . S
O1224 C1210 1.251 . S
O1225 Nd1201 2.424 . S
O1225 C1210 1.268 . S
O1226 Nd1201 2.500 . S
O1226 C1211 1.258 . S
O1227 Nd1201 2.492 . S
O1227 C1211 1.239 . S
O1228 Nd1201 2.487 . S
O1228 C1218 1.241 . S
O1229 Nd1200 2.414 . S
O1229 Nd1201 2.682 . S
O1229 C1218 1.273 . S
O1230 Nd1201 2.410 . S
O1230 C1219 1.251 . S
O1231 Nd1200 2.424 . S
O1231 C1219 1.268 . S
H1232 C1204 0.930 . S
H1233 C1205 0.929 . S
H1234 C1207 0.930 . S
H1235 C1208 0.929 . S
H1236 C1213 0.930 . S
H1237 C1214 0.929 . S
H1238 C1216 0.929 1_565 S
H1239 C1217 0.929 . S
Nd1240 C1242 2.836 . S
Nd1240 O1260 2.500 . S
Nd1240 O1261 2.492 . S
Nd1240 O1262 2.487 . S
Nd1240 O1263 2.682 . S
Nd1240 O1264 2.410 . S
Nd1240 O1269 2.414 . S
Nd1240 O1271 2.424 1_655 S
Nd1241 C1251 2.836 1_655 S
Nd1241 O1263 2.414 . S
Nd1241 O1265 2.424 . S
Nd1241 O1266 2.500 1_655 S
Nd1241 O1267 2.492 1_655 S
Nd1241 O1268 2.487 1_655 S
Nd1241 O1269 2.682 . S
Nd1241 O1270 2.410 1_655 S
C1242 Nd1240 2.836 . S
C1242 C1243 1.498 . S
C1242 O1260 1.258 . S
C1242 O1261 1.239 . S
C1243 C1242 1.498 . S
C1243 C1244 1.366 . S
C1243 C1248 1.407 . S
C1244 C1243 1.366 . S
C1244 C1245 1.392 . S
C1244 H1272 0.930 . S
C1245 C1244 1.392 . S
C1245 C1246 1.398 . S
C1245 H1273 0.929 . S
C1246 C1245 1.398 . S
C1246 C1247 1.352 . S
C1247 C1246 1.352 . S
C1247 C1248 1.384 . S
C1247 H1274 0.930 . S
C1248 C1243 1.407 . S
C1248 C1247 1.384 . S
C1248 H1275 0.929 . S
C1249 O1262 1.241 . S
C1249 O1263 1.273 . S
C1250 O1264 1.251 . S
C1250 O1265 1.268 . S
C1251 Nd1241 2.836 1_455 S
C1251 C1252 1.498 . S
C1251 O1266 1.258 . S
C1251 O1267 1.239 . S
C1252 C1251 1.498 . S
C1252 C1253 1.366 . S
C1252 C1257 1.407 . S
C1253 C1252 1.366 . S
C1253 C1254 1.392 . S
C1253 H1276 0.930 . S
C1254 C1253 1.392 . S
C1254 C1255 1.398 . S
C1254 H1277 0.929 . S
C1255 C1254 1.398 . S
C1255 C1256 1.352 . S
C1256 C1255 1.352 . S
C1256 C1257 1.384 . S
C1256 H1278 0.930 . S
C1257 C1252 1.407 . S
C1257 C1256 1.384 . S
C1257 H1279 0.929 . S
C1258 O1268 1.241 . S
C1258 O1269 1.273 1_455 S
C1259 O1270 1.251 . S
C1259 O1271 1.268 . S
O1260 Nd1240 2.500 . S
O1260 C1242 1.258 . S
O1261 Nd1240 2.492 . S
O1261 C1242 1.239 . S
O1262 Nd1240 2.487 . S
O1262 C1249 1.241 . S
O1263 Nd1240 2.682 . S
O1263 Nd1241 2.414 . S
O1263 C1249 1.273 . S
O1264 Nd1240 2.410 . S
O1264 C1250 1.251 . S
O1265 Nd1241 2.424 . S
O1265 C1250 1.268 . S
O1266 Nd1241 2.500 1_455 S
O1266 C1251 1.258 . S
O1267 Nd1241 2.492 1_455 S
O1267 C1251 1.239 . S
O1268 Nd1241 2.487 1_455 S
O1268 C1258 1.241 . S
O1269 Nd1240 2.414 . S
O1269 Nd1241 2.682 . S
O1269 C1258 1.273 1_655 S
O1270 Nd1241 2.410 1_455 S
O1270 C1259 1.251 . S
O1271 Nd1240 2.424 1_455 S
O1271 C1259 1.268 . S
H1272 C1244 0.930 . S
H1273 C1245 0.929 . S
H1274 C1247 0.930 . S
H1275 C1248 0.929 . S
H1276 C1253 0.930 . S
H1277 C1254 0.929 . S
H1278 C1256 0.930 . S
H1279 C1257 0.929 . S
Nd1280 C1282 2.836 . S
Nd1280 O1300 2.500 . S
Nd1280 O1301 2.492 . S
Nd1280 O1302 2.487 . S
Nd1280 O1303 2.682 . S
Nd1280 O1304 2.410 . S
Nd1280 O1309 2.414 . S
Nd1280 O1311 2.424 . S
Nd1281 C1291 2.836 . S
Nd1281 O1303 2.414 . S
Nd1281 O1305 2.424 . S
Nd1281 O1306 2.500 . S
Nd1281 O1307 2.492 . S
Nd1281 O1308 2.487 . S
Nd1281 O1309 2.682 . S
Nd1281 O1310 2.410 . S
C1282 Nd1280 2.836 . S
C1282 C1283 1.498 . S
C1282 O1300 1.258 . S
C1282 O1301 1.239 . S
C1283 C1282 1.498 . S
C1283 C1284 1.366 . S
C1283 C1288 1.407 . S
C1284 C1283 1.366 . S
C1284 C1285 1.392 . S
C1284 H1312 0.930 . S
C1285 C1284 1.392 . S
C1285 C1286 1.398 . S
C1285 H1313 0.929 . S
C1286 C1285 1.398 . S
C1286 C1287 1.352 . S
C1287 C1286 1.352 . S
C1287 C1288 1.384 . S
C1287 H1314 0.930 . S
C1288 C1283 1.407 . S
C1288 C1287 1.384 . S
C1288 H1315 0.929 . S
C1289 O1302 1.241 . S
C1289 O1303 1.273 . S
C1290 O1304 1.251 . S
C1290 O1305 1.268 . S
C1291 Nd1281 2.836 . S
C1291 C1292 1.498 . S
C1291 O1306 1.258 . S
C1291 O1307 1.239 . S
C1292 C1291 1.498 . S
C1292 C1293 1.366 . S
C1292 C1297 1.407 . S
C1293 C1292 1.366 . S
C1293 C1294 1.392 . S
C1293 H1316 0.930 . S
C1294 C1293 1.392 . S
C1294 C1295 1.398 . S
C1294 H1317 0.929 . S
C1295 C1294 1.398 . S
C1295 C1296 1.352 . S
C1296 C1295 1.352 . S
C1296 C1297 1.384 . S
C1296 H1318 0.930 . S
C1297 C1292 1.407 . S
C1297 C1296 1.384 . S
C1297 H1319 0.929 . S
C1298 O1308 1.241 . S
C1298 O1309 1.273 . S
C1299 O1310 1.251 . S
C1299 O1311 1.268 . S
O1300 Nd1280 2.500 . S
O1300 C1282 1.258 . S
O1301 Nd1280 2.492 . S
O1301 C1282 1.239 . S
O1302 Nd1280 2.487 . S
O1302 C1289 1.241 . S
O1303 Nd1280 2.682 . S
O1303 Nd1281 2.414 . S
O1303 C1289 1.273 . S
O1304 Nd1280 2.410 . S
O1304 C1290 1.251 . S
O1305 Nd1281 2.424 . S
O1305 C1290 1.268 . S
O1306 Nd1281 2.500 . S
O1306 C1291 1.258 . S
O1307 Nd1281 2.492 . S
O1307 C1291 1.239 . S
O1308 Nd1281 2.487 . S
O1308 C1298 1.241 . S
O1309 Nd1280 2.414 . S
O1309 Nd1281 2.682 . S
O1309 C1298 1.273 . S
O1310 Nd1281 2.410 . S
O1310 C1299 1.251 . S
O1311 Nd1280 2.424 . S
O1311 C1299 1.268 . S
H1312 C1284 0.930 . S
H1313 C1285 0.929 . S
H1314 C1287 0.930 . S
H1315 C1288 0.929 . S
H1316 C1293 0.930 . S
H1317 C1294 0.929 . S
H1318 C1296 0.930 . S
H1319 C1297 0.929 . S
Nd1320 C1322 2.836 . S
Nd1320 O1340 2.500 . S
Nd1320 O1341 2.492 . S
Nd1320 O1342 2.487 . S
Nd1320 O1343 2.682 . S
Nd1320 O1344 2.410 . S
Nd1320 O1349 2.414 . S
Nd1320 O1351 2.424 . S
Nd1321 C1331 2.836 . S
Nd1321 O1343 2.414 . S
Nd1321 O1345 2.424 . S
Nd1321 O1346 2.500 . S
Nd1321 O1347 2.492 . S
Nd1321 O1348 2.487 . S
Nd1321 O1349 2.682 . S
Nd1321 O1350 2.410 . S
C1322 Nd1320 2.836 . S
C1322 C1323 1.498 . S
C1322 O1340 1.258 . S
C1322 O1341 1.239 . S
C1323 C1322 1.498 . S
C1323 C1324 1.366 . S
C1323 C1328 1.407 . S
C1324 C1323 1.366 . S
C1324 C1325 1.392 . S
C1324 H1352 0.930 . S
C1325 C1324 1.392 . S
C1325 C1326 1.398 . S
C1325 H1353 0.929 . S
C1326 C1325 1.398 . S
C1326 C1327 1.352 . S
C1327 C1326 1.352 . S
C1327 C1328 1.384 . S
C1327 H1354 0.930 . S
C1328 C1323 1.407 . S
C1328 C1327 1.384 . S
C1328 H1355 0.929 . S
C1329 O1342 1.241 . S
C1329 O1343 1.273 . S
C1330 O1344 1.251 . S
C1330 O1345 1.268 . S
C1331 Nd1321 2.836 . S
C1331 C1332 1.498 . S
C1331 O1346 1.258 . S
C1331 O1347 1.239 . S
C1332 C1331 1.498 . S
C1332 C1333 1.366 . S
C1332 C1337 1.407 . S
C1333 C1332 1.366 . S
C1333 C1334 1.392 . S
C1333 H1356 0.930 . S
C1334 C1333 1.392 . S
C1334 C1335 1.398 . S
C1334 H1357 0.929 . S
C1335 C1334 1.398 . S
C1335 C1336 1.352 1_556 S
C1336 C1335 1.352 1_554 S
C1336 C1337 1.384 1_554 S
C1336 H1358 0.930 . S
C1337 C1332 1.407 . S
C1337 C1336 1.384 1_556 S
C1337 H1359 0.929 1_556 S
C1338 O1348 1.241 . S
C1338 O1349 1.273 . S
C1339 O1350 1.251 . S
C1339 O1351 1.268 . S
O1340 Nd1320 2.500 . S
O1340 C1322 1.258 . S
O1341 Nd1320 2.492 . S
O1341 C1322 1.239 . S
O1342 Nd1320 2.487 . S
O1342 C1329 1.241 . S
O1343 Nd1320 2.682 . S
O1343 Nd1321 2.414 . S
O1343 C1329 1.273 . S
O1344 Nd1320 2.410 . S
O1344 C1330 1.251 . S
O1345 Nd1321 2.424 . S
O1345 C1330 1.268 . S
O1346 Nd1321 2.500 . S
O1346 C1331 1.258 . S
O1347 Nd1321 2.492 . S
O1347 C1331 1.239 . S
O1348 Nd1321 2.487 . S
O1348 C1338 1.241 . S
O1349 Nd1320 2.414 . S
O1349 Nd1321 2.682 . S
O1349 C1338 1.273 . S
O1350 Nd1321 2.410 . S
O1350 C1339 1.251 . S
O1351 Nd1320 2.424 . S
O1351 C1339 1.268 . S
H1352 C1324 0.930 . S
H1353 C1325 0.929 . S
H1354 C1327 0.930 . S
H1355 C1328 0.929 . S
H1356 C1333 0.930 . S
H1357 C1334 0.929 . S
H1358 C1336 0.930 . S
H1359 C1337 0.929 1_554 S
Nd1360 C1362 2.836 . S
Nd1360 O1380 2.500 . S
Nd1360 O1381 2.492 . S
Nd1360 O1382 2.487 . S
Nd1360 O1383 2.682 . S
Nd1360 O1384 2.410 . S
Nd1360 O1389 2.414 . S
Nd1360 O1391 2.424 . S
Nd1361 C1371 2.836 . S
Nd1361 O1383 2.414 . S
Nd1361 O1385 2.424 . S
Nd1361 O1386 2.500 . S
Nd1361 O1387 2.492 . S
Nd1361 O1388 2.487 . S
Nd1361 O1389 2.682 . S
Nd1361 O1390 2.410 . S
C1362 Nd1360 2.836 . S
C1362 C1363 1.498 . S
C1362 O1380 1.258 . S
C1362 O1381 1.239 . S
C1363 C1362 1.498 . S
C1363 C1364 1.366 . S
C1363 C1368 1.407 . S
C1364 C1363 1.366 . S
C1364 C1365 1.392 . S
C1364 H1392 0.930 . S
C1365 C1364 1.392 . S
C1365 C1366 1.398 . S
C1365 H1393 0.929 . S
C1366 C1365 1.398 . S
C1366 C1367 1.352 . S
C1367 C1366 1.352 . S
C1367 C1368 1.384 . S
C1367 H1394 0.930 . S
C1368 C1363 1.407 . S
C1368 C1367 1.384 . S
C1368 H1395 0.929 . S
C1369 O1382 1.241 . S
C1369 O1383 1.273 . S
C1370 O1384 1.251 . S
C1370 O1385 1.268 . S
C1371 Nd1361 2.836 . S
C1371 C1372 1.498 . S
C1371 O1386 1.258 . S
C1371 O1387 1.239 . S
C1372 C1371 1.498 . S
C1372 C1373 1.366 . S
C1372 C1377 1.407 . S
C1373 C1372 1.366 . S
C1373 C1374 1.392 . S
C1373 H1396 0.930 . S
C1374 C1373 1.392 . S
C1374 C1375 1.398 . S
C1374 H1397 0.929 . S
C1375 C1374 1.398 . S
C1375 C1376 1.352 . S
C1376 C1375 1.352 . S
C1376 C1377 1.384 . S
C1376 H1398 0.930 . S
C1377 C1372 1.407 . S
C1377 C1376 1.384 . S
C1377 H1399 0.929 . S
C1378 O1388 1.241 . S
C1378 O1389 1.273 . S
C1379 O1390 1.251 . S
C1379 O1391 1.268 . S
O1380 Nd1360 2.500 . S
O1380 C1362 1.258 . S
O1381 Nd1360 2.492 . S
O1381 C1362 1.239 . S
O1382 Nd1360 2.487 . S
O1382 C1369 1.241 . S
O1383 Nd1360 2.682 . S
O1383 Nd1361 2.414 . S
O1383 C1369 1.273 . S
O1384 Nd1360 2.410 . S
O1384 C1370 1.251 . S
O1385 Nd1361 2.424 . S
O1385 C1370 1.268 . S
O1386 Nd1361 2.500 . S
O1386 C1371 1.258 . S
O1387 Nd1361 2.492 . S
O1387 C1371 1.239 . S
O1388 Nd1361 2.487 . S
O1388 C1378 1.241 . S
O1389 Nd1360 2.414 . S
O1389 Nd1361 2.682 . S
O1389 C1378 1.273 . S
O1390 Nd1361 2.410 . S
O1390 C1379 1.251 . S
O1391 Nd1360 2.424 . S
O1391 C1379 1.268 . S
H1392 C1364 0.930 . S
H1393 C1365 0.929 . S
H1394 C1367 0.930 . S
H1395 C1368 0.929 . S
H1396 C1373 0.930 . S
H1397 C1374 0.929 . S
H1398 C1376 0.930 . S
H1399 C1377 0.929 . S
Nd1400 C1402 2.836 . S
Nd1400 O1420 2.500 . S
Nd1400 O1421 2.492 . S
Nd1400 O1422 2.487 1_556 S
Nd1400 O1423 2.682 . S
Nd1400 O1424 2.410 . S
Nd1400 O1429 2.414 . S
Nd1400 O1431 2.424 1_556 S
Nd1401 C1411 2.836 . S
Nd1401 O1423 2.414 . S
Nd1401 O1425 2.424 . S
Nd1401 O1426 2.500 . S
Nd1401 O1427 2.492 . S
Nd1401 O1428 2.487 . S
Nd1401 O1429 2.682 . S
Nd1401 O1430 2.410 . S
C1402 Nd1400 2.836 . S
C1402 C1403 1.498 . S
C1402 O1420 1.258 . S
C1402 O1421 1.239 . S
C1403 C1402 1.498 . S
C1403 C1404 1.366 . S
C1403 C1408 1.407 . S
C1404 C1403 1.366 . S
C1404 C1405 1.392 . S
C1404 H1432 0.930 . S
C1405 C1404 1.392 . S
C1405 C1406 1.398 . S
C1405 H1433 0.929 . S
C1406 C1405 1.398 . S
C1406 C1407 1.352 . S
C1407 C1406 1.352 . S
C1407 C1408 1.384 . S
C1407 H1434 0.930 . S
C1408 C1403 1.407 . S
C1408 C1407 1.384 . S
C1408 H1435 0.929 . S
C1409 O1422 1.241 . S
C1409 O1423 1.273 1_554 S
C1410 O1424 1.251 . S
C1410 O1425 1.268 . S
C1411 Nd1401 2.836 . S
C1411 C1412 1.498 . S
C1411 O1426 1.258 . S
C1411 O1427 1.239 . S
C1412 C1411 1.498 . S
C1412 C1413 1.366 . S
C1412 C1417 1.407 . S
C1413 C1412 1.366 . S
C1413 C1414 1.392 1_556 S
C1413 H1436 0.930 1_556 S
C1414 C1413 1.392 1_554 S
C1414 C1415 1.398 1_554 S
C1414 H1437 0.929 . S
C1415 C1414 1.398 1_556 S
C1415 C1416 1.352 . S
C1416 C1415 1.352 . S
C1416 C1417 1.384 . S
C1416 H1438 0.930 . S
C1417 C1412 1.407 . S
C1417 C1416 1.384 . S
C1417 H1439 0.929 . S
C1418 O1428 1.241 . S
C1418 O1429 1.273 . S
C1419 O1430 1.251 . S
C1419 O1431 1.268 1_556 S
O1420 Nd1400 2.500 . S
O1420 C1402 1.258 . S
O1421 Nd1400 2.492 . S
O1421 C1402 1.239 . S
O1422 Nd1400 2.487 1_554 S
O1422 C1409 1.241 . S
O1423 Nd1400 2.682 . S
O1423 Nd1401 2.414 . S
O1423 C1409 1.273 1_556 S
O1424 Nd1400 2.410 . S
O1424 C1410 1.251 . S
O1425 Nd1401 2.424 . S
O1425 C1410 1.268 . S
O1426 Nd1401 2.500 . S
O1426 C1411 1.258 . S
O1427 Nd1401 2.492 . S
O1427 C1411 1.239 . S
O1428 Nd1401 2.487 . S
O1428 C1418 1.241 . S
O1429 Nd1400 2.414 . S
O1429 Nd1401 2.682 . S
O1429 C1418 1.273 . S
O1430 Nd1401 2.410 . S
O1430 C1419 1.251 . S
O1431 Nd1400 2.424 1_554 S
O1431 C1419 1.268 1_554 S
H1432 C1404 0.930 . S
H1433 C1405 0.929 . S
H1434 C1407 0.930 . S
H1435 C1408 0.929 . S
H1436 C1413 0.930 1_554 S
H1437 C1414 0.929 . S
H1438 C1416 0.930 . S
H1439 C1417 0.929 . S
Nd1440 C1442 2.836 . S
Nd1440 O1460 2.500 . S
Nd1440 O1461 2.492 . S
Nd1440 O1462 2.487 . S
Nd1440 O1463 2.682 . S
Nd1440 O1464 2.410 . S
Nd1440 O1469 2.414 . S
Nd1440 O1471 2.424 . S
Nd1441 C1451 2.836 . S
Nd1441 O1463 2.414 . S
Nd1441 O1465 2.424 . S
Nd1441 O1466 2.500 . S
Nd1441 O1467 2.492 . S
Nd1441 O1468 2.487 . S
Nd1441 O1469 2.682 . S
Nd1441 O1470 2.410 . S
C1442 Nd1440 2.836 . S
C1442 C1443 1.498 . S
C1442 O1460 1.258 . S
C1442 O1461 1.239 . S
C1443 C1442 1.498 . S
C1443 C1444 1.366 . S
C1443 C1448 1.407 . S
C1444 C1443 1.366 . S
C1444 C1445 1.392 . S
C1444 H1472 0.930 . S
C1445 C1444 1.392 . S
C1445 C1446 1.398 . S
C1445 H1473 0.929 . S
C1446 C1445 1.398 . S
C1446 C1447 1.352 . S
C1447 C1446 1.352 . S
C1447 C1448 1.384 . S
C1447 H1474 0.930 . S
C1448 C1443 1.407 . S
C1448 C1447 1.384 . S
C1448 H1475 0.929 . S
C1449 O1462 1.241 . S
C1449 O1463 1.273 . S
C1450 O1464 1.251 . S
C1450 O1465 1.268 . S
C1451 Nd1441 2.836 . S
C1451 C1452 1.498 . S
C1451 O1466 1.258 . S
C1451 O1467 1.239 . S
C1452 C1451 1.498 . S
C1452 C1453 1.366 . S
C1452 C1457 1.407 . S
C1453 C1452 1.366 . S
C1453 C1454 1.392 . S
C1453 H1476 0.930 . S
C1454 C1453 1.392 . S
C1454 C1455 1.398 . S
C1454 H1477 0.929 . S
C1455 C1454 1.398 . S
C1455 C1456 1.352 . S
C1456 C1455 1.352 . S
C1456 C1457 1.384 . S
C1456 H1478 0.930 . S
C1457 C1452 1.407 . S
C1457 C1456 1.384 . S
C1457 H1479 0.929 . S
C1458 O1468 1.241 . S
C1458 O1469 1.273 . S
C1459 O1470 1.251 . S
C1459 O1471 1.268 . S
O1460 Nd1440 2.500 . S
O1460 C1442 1.258 . S
O1461 Nd1440 2.492 . S
O1461 C1442 1.239 . S
O1462 Nd1440 2.487 . S
O1462 C1449 1.241 . S
O1463 Nd1440 2.682 . S
O1463 Nd1441 2.414 . S
O1463 C1449 1.273 . S
O1464 Nd1440 2.410 . S
O1464 C1450 1.251 . S
O1465 Nd1441 2.424 . S
O1465 C1450 1.268 . S
O1466 Nd1441 2.500 . S
O1466 C1451 1.258 . S
O1467 Nd1441 2.492 . S
O1467 C1451 1.239 . S
O1468 Nd1441 2.487 . S
O1468 C1458 1.241 . S
O1469 Nd1440 2.414 . S
O1469 Nd1441 2.682 . S
O1469 C1458 1.273 . S
O1470 Nd1441 2.410 . S
O1470 C1459 1.251 . S
O1471 Nd1440 2.424 . S
O1471 C1459 1.268 . S
H1472 C1444 0.930 . S
H1473 C1445 0.929 . S
H1474 C1447 0.930 . S
H1475 C1448 0.929 . S
H1476 C1453 0.930 . S
H1477 C1454 0.929 . S
H1478 C1456 0.930 . S
H1479 C1457 0.929 . S
Nd1480 C1482 2.836 . S
Nd1480 O1500 2.500 . S
Nd1480 O1501 2.492 . S
Nd1480 O1502 2.487 . S
Nd1480 O1503 2.682 . S
Nd1480 O1504 2.410 . S
Nd1480 O1509 2.414 . S
Nd1480 O1511 2.424 . S
Nd1481 C1491 2.836 . S
Nd1481 O1503 2.414 . S
Nd1481 O1505 2.424 . S
Nd1481 O1506 2.500 . S
Nd1481 O1507 2.492 . S
Nd1481 O1508 2.487 . S
Nd1481 O1509 2.682 . S
Nd1481 O1510 2.410 . S
C1482 Nd1480 2.836 . S
C1482 C1483 1.498 . S
C1482 O1500 1.258 . S
C1482 O1501 1.239 . S
C1483 C1482 1.498 . S
C1483 C1484 1.366 . S
C1483 C1488 1.407 . S
C1484 C1483 1.366 . S
C1484 C1485 1.392 . S
C1484 H1512 0.930 . S
C1485 C1484 1.392 . S
C1485 C1486 1.398 . S
C1485 H1513 0.929 . S
C1486 C1485 1.398 . S
C1486 C1487 1.352 . S
C1487 C1486 1.352 . S
C1487 C1488 1.384 . S
C1487 H1514 0.930 . S
C1488 C1483 1.407 . S
C1488 C1487 1.384 . S
C1488 H1515 0.929 . S
C1489 O1502 1.241 . S
C1489 O1503 1.273 . S
C1490 O1504 1.251 . S
C1490 O1505 1.268 . S
C1491 Nd1481 2.836 . S
C1491 C1492 1.498 . S
C1491 O1506 1.258 . S
C1491 O1507 1.239 . S
C1492 C1491 1.498 . S
C1492 C1493 1.366 . S
C1492 C1497 1.407 . S
C1493 C1492 1.366 . S
C1493 C1494 1.392 . S
C1493 H1516 0.930 . S
C1494 C1493 1.392 . S
C1494 C1495 1.398 . S
C1494 H1517 0.929 . S
C1495 C1494 1.398 . S
C1495 C1496 1.352 . S
C1496 C1495 1.352 . S
C1496 C1497 1.384 . S
C1496 H1518 0.930 . S
C1497 C1492 1.407 . S
C1497 C1496 1.384 . S
C1497 H1519 0.929 . S
C1498 O1508 1.241 . S
C1498 O1509 1.273 . S
C1499 O1510 1.251 . S
C1499 O1511 1.268 . S
O1500 Nd1480 2.500 . S
O1500 C1482 1.258 . S
O1501 Nd1480 2.492 . S
O1501 C1482 1.239 . S
O1502 Nd1480 2.487 . S
O1502 C1489 1.241 . S
O1503 Nd1480 2.682 . S
O1503 Nd1481 2.414 . S
O1503 C1489 1.273 . S
O1504 Nd1480 2.410 . S
O1504 C1490 1.251 . S
O1505 Nd1481 2.424 . S
O1505 C1490 1.268 . S
O1506 Nd1481 2.500 . S
O1506 C1491 1.258 . S
O1507 Nd1481 2.492 . S
O1507 C1491 1.239 . S
O1508 Nd1481 2.487 . S
O1508 C1498 1.241 . S
O1509 Nd1480 2.414 . S
O1509 Nd1481 2.682 . S
O1509 C1498 1.273 . S
O1510 Nd1481 2.410 . S
O1510 C1499 1.251 . S
O1511 Nd1480 2.424 . S
O1511 C1499 1.268 . S
H1512 C1484 0.930 . S
H1513 C1485 0.929 . S
H1514 C1487 0.930 . S
H1515 C1488 0.929 . S
H1516 C1493 0.930 . S
H1517 C1494 0.929 . S
H1518 C1496 0.930 . S
H1519 C1497 0.929 . S
Nd1520 C1522 2.836 . S
Nd1520 O1540 2.500 . S
Nd1520 O1541 2.492 . S
Nd1520 O1542 2.487 . S
Nd1520 O1543 2.682 . S
Nd1520 O1544 2.410 . S
Nd1520 O1549 2.414 . S
Nd1520 O1551 2.424 . S
Nd1521 C1531 2.836 . S
Nd1521 O1543 2.414 . S
Nd1521 O1545 2.424 . S
Nd1521 O1546 2.500 . S
Nd1521 O1547 2.492 . S
Nd1521 O1548 2.487 . S
Nd1521 O1549 2.682 . S
Nd1521 O1550 2.410 . S
C1522 Nd1520 2.836 . S
C1522 C1523 1.498 . S
C1522 O1540 1.258 . S
C1522 O1541 1.239 . S
C1523 C1522 1.498 . S
C1523 C1524 1.366 . S
C1523 C1528 1.407 . S
C1524 C1523 1.366 . S
C1524 C1525 1.392 . S
C1524 H1552 0.930 . S
C1525 C1524 1.392 . S
C1525 C1526 1.398 . S
C1525 H1553 0.929 . S
C1526 C1525 1.398 . S
C1526 C1527 1.352 . S
C1527 C1526 1.352 . S
C1527 C1528 1.384 . S
C1527 H1554 0.930 . S
C1528 C1523 1.407 . S
C1528 C1527 1.384 . S
C1528 H1555 0.929 . S
C1529 O1542 1.241 . S
C1529 O1543 1.273 . S
C1530 O1544 1.251 . S
C1530 O1545 1.268 . S
C1531 Nd1521 2.836 . S
C1531 C1532 1.498 . S
C1531 O1546 1.258 . S
C1531 O1547 1.239 . S
C1532 C1531 1.498 . S
C1532 C1533 1.366 . S
C1532 C1537 1.407 . S
C1533 C1532 1.366 . S
C1533 C1534 1.392 . S
C1533 H1556 0.930 . S
C1534 C1533 1.392 . S
C1534 C1535 1.398 . S
C1534 H1557 0.929 . S
C1535 C1534 1.398 . S
C1535 C1536 1.352 . S
C1536 C1535 1.352 . S
C1536 C1537 1.384 . S
C1536 H1558 0.930 . S
C1537 C1532 1.407 . S
C1537 C1536 1.384 . S
C1537 H1559 0.929 . S
C1538 O1548 1.241 . S
C1538 O1549 1.273 . S
C1539 O1550 1.251 . S
C1539 O1551 1.268 . S
O1540 Nd1520 2.500 . S
O1540 C1522 1.258 . S
O1541 Nd1520 2.492 . S
O1541 C1522 1.239 . S
O1542 Nd1520 2.487 . S
O1542 C1529 1.241 . S
O1543 Nd1520 2.682 . S
O1543 Nd1521 2.414 . S
O1543 C1529 1.273 . S
O1544 Nd1520 2.410 . S
O1544 C1530 1.251 . S
O1545 Nd1521 2.424 . S
O1545 C1530 1.268 . S
O1546 Nd1521 2.500 . S
O1546 C1531 1.258 . S
O1547 Nd1521 2.492 . S
O1547 C1531 1.239 . S
O1548 Nd1521 2.487 . S
O1548 C1538 1.241 . S
O1549 Nd1520 2.414 . S
O1549 Nd1521 2.682 . S
O1549 C1538 1.273 . S
O1550 Nd1521 2.410 . S
O1550 C1539 1.251 . S
O1551 Nd1520 2.424 . S
O1551 C1539 1.268 . S
H1552 C1524 0.930 . S
H1553 C1525 0.929 . S
H1554 C1527 0.930 . S
H1555 C1528 0.929 . S
H1556 C1533 0.930 . S
H1557 C1534 0.929 . S
H1558 C1536 0.930 . S
H1559 C1537 0.929 . S
Nd1560 C1562 2.836 1_545 S
Nd1560 O1580 2.500 1_545 S
Nd1560 O1581 2.492 . S
Nd1560 O1582 2.487 . S
Nd1560 O1583 2.682 . S
Nd1560 O1584 2.410 . S
Nd1560 O1589 2.414 . S
Nd1560 O1591 2.424 . S
Nd1561 C1571 2.836 . S
Nd1561 O1583 2.414 . S
Nd1561 O1585 2.424 . S
Nd1561 O1586 2.500 . S
Nd1561 O1587 2.492 . S
Nd1561 O1588 2.487 . S
Nd1561 O1589 2.682 . S
Nd1561 O1590 2.410 . S
C1562 Nd1560 2.836 1_565 S
C1562 C1563 1.498 . S
C1562 O1580 1.258 . S
C1562 O1581 1.239 1_565 S
C1563 C1562 1.498 . S
C1563 C1564 1.366 . S
C1563 C1568 1.407 . S
C1564 C1563 1.366 . S
C1564 C1565 1.392 . S
C1564 H1592 0.930 . S
C1565 C1564 1.392 . S
C1565 C1566 1.398 . S
C1565 H1593 0.929 . S
C1566 C1565 1.398 . S
C1566 C1567 1.352 . S
C1567 C1566 1.352 . S
C1567 C1568 1.384 . S
C1567 H1594 0.930 . S
C1568 C1563 1.407 . S
C1568 C1567 1.384 . S
C1568 H1595 0.929 1_565 S
C1569 O1582 1.241 . S
C1569 O1583 1.273 . S
C1570 O1584 1.251 . S
C1570 O1585 1.268 . S
C1571 Nd1561 2.836 . S
C1571 C1572 1.498 . S
C1571 O1586 1.258 . S
C1571 O1587 1.239 . S
C1572 C1571 1.498 . S
C1572 C1573 1.366 . S
C1572 C1577 1.407 . S
C1573 C1572 1.366 . S
C1573 C1574 1.392 . S
C1573 H1596 0.930 . S
C1574 C1573 1.392 . S
C1574 C1575 1.398 . S
C1574 H1597 0.929 . S
C1575 C1574 1.398 . S
C1575 C1576 1.352 . S
C1576 C1575 1.352 . S
C1576 C1577 1.384 . S
C1576 H1598 0.930 . S
C1577 C1572 1.407 . S
C1577 C1576 1.384 . S
C1577 H1599 0.929 . S
C1578 O1588 1.241 . S
C1578 O1589 1.273 . S
C1579 O1590 1.251 . S
C1579 O1591 1.268 . S
O1580 Nd1560 2.500 1_565 S
O1580 C1562 1.258 . S
O1581 Nd1560 2.492 . S
O1581 C1562 1.239 1_545 S
O1582 Nd1560 2.487 . S
O1582 C1569 1.241 . S
O1583 Nd1560 2.682 . S
O1583 Nd1561 2.414 . S
O1583 C1569 1.273 . S
O1584 Nd1560 2.410 . S
O1584 C1570 1.251 . S
O1585 Nd1561 2.424 . S
O1585 C1570 1.268 . S
O1586 Nd1561 2.500 . S
O1586 C1571 1.258 . S
O1587 Nd1561 2.492 . S
O1587 C1571 1.239 . S
O1588 Nd1561 2.487 . S
O1588 C1578 1.241 . S
O1589 Nd1560 2.414 . S
O1589 Nd1561 2.682 . S
O1589 C1578 1.273 . S
O1590 Nd1561 2.410 . S
O1590 C1579 1.251 . S
O1591 Nd1560 2.424 . S
O1591 C1579 1.268 . S
H1592 C1564 0.930 . S
H1593 C1565 0.929 . S
H1594 C1567 0.930 . S
H1595 C1568 0.929 1_545 S
H1596 C1573 0.930 . S
H1597 C1574 0.929 . S
H1598 C1576 0.930 . S
H1599 C1577 0.929 . S
Nd1600 C1602 2.836 1_455 S
Nd1600 O1620 2.500 . S
Nd1600 O1621 2.492 1_455 S
Nd1600 O1622 2.487 1_455 S
Nd1600 O1623 2.682 . S
Nd1600 O1624 2.410 1_455 S
Nd1600 O1629 2.414 . S
Nd1600 O1631 2.424 . S
Nd1601 C1611 2.836 . S
Nd1601 O1623 2.414 . S
Nd1601 O1625 2.424 . S
Nd1601 O1626 2.500 . S
Nd1601 O1627 2.492 . S
Nd1601 O1628 2.487 . S
Nd1601 O1629 2.682 . S
Nd1601 O1630 2.410 . S
C1602 Nd1600 2.836 1_655 S
C1602 C1603 1.498 . S
C1602 O1620 1.258 1_655 S
C1602 O1621 1.239 . S
C1603 C1602 1.498 . S
C1603 C1604 1.366 . S
C1603 C1608 1.407 . S
C1604 C1603 1.366 . S
C1604 C1605 1.392 . S
C1604 H1632 0.930 . S
C1605 C1604 1.392 . S
C1605 C1606 1.398 . S
C1605 H1633 0.929 . S
C1606 C1605 1.398 . S
C1606 C1607 1.352 . S
C1607 C1606 1.352 . S
C1607 C1608 1.384 . S
C1607 H1634 0.930 . S
C1608 C1603 1.407 . S
C1608 C1607 1.384 . S
C1608 H1635 0.929 . S
C1609 O1622 1.225 1_455 S
C1609 O1623 1.299 . S
C1610 O1624 1.251 . S
C1610 O1625 1.268 1_655 S
C1611 Nd1601 2.836 . S
C1611 C1612 1.498 . S
C1611 O1626 1.258 . S
C1611 O1627 1.239 . S
C1612 C1611 1.498 . S
C1612 C1613 1.366 . S
C1612 C1617 1.407 . S
C1613 C1612 1.366 . S
C1613 C1614 1.392 . S
C1613 H1636 0.930 . S
C1614 C1613 1.392 . S
C1614 C1615 1.398 . S
C1614 H1637 0.929 . S
C1615 C1614 1.398 . S
C1615 C1616 1.352 . S
C1616 C1615 1.352 . S
C1616 C1617 1.384 . S
C1616 H1638 0.930 . S
C1617 C1612 1.407 . S
C1617 C1616 1.384 . S
C1617 H1639 0.929 . S
C1618 O1628 1.241 . S
C1618 O1629 1.273 . S
C1619 O1630 1.251 . S
C1619 O1631 1.268 . S
O1620 Nd1600 2.500 . S
O1620 C1602 1.258 1_455 S
O1621 Nd1600 2.492 1_655 S
O1621 C1602 1.239 . S
O1622 Nd1600 2.487 1_655 S
O1622 C1609 1.225 1_655 S
O1623 Nd1600 2.682 . S
O1623 Nd1601 2.414 . S
O1623 C1609 1.299 . S
O1624 Nd1600 2.410 1_655 S
O1624 C1610 1.251 . S
O1625 Nd1601 2.424 . S
O1625 C1610 1.268 1_455 S
O1626 Nd1601 2.500 . S
O1626 C1611 1.258 . S
O1627 Nd1601 2.492 . S
O1627 C1611 1.239 . S
O1628 Nd1601 2.487 . S
O1628 C1618 1.241 . S
O1629 Nd1600 2.414 . S
O1629 Nd1601 2.682 . S
O1629 C1618 1.273 . S
O1630 Nd1601 2.410 . S
O1630 C1619 1.251 . S
O1631 Nd1600 2.424 . S
O1631 C1619 1.268 . S
H1632 C1604 0.930 . S
H1633 C1605 0.929 . S
H1634 C1607 0.930 . S
H1635 C1608 0.929 . S
H1636 C1613 0.930 . S
H1637 C1614 0.929 . S
H1638 C1616 0.930 . S
H1639 C1617 0.929 . S
Nd1640 C1642 2.836 . S
Nd1640 O1660 2.500 . S
Nd1640 O1661 2.492 . S
Nd1640 O1662 2.487 . S
Nd1640 O1663 2.682 . S
Nd1640 O1664 2.410 . S
Nd1640 O1669 2.414 . S
Nd1640 O1671 2.424 . S
Nd1641 C1651 2.836 . S
Nd1641 O1663 2.414 . S
Nd1641 O1665 2.424 . S
Nd1641 O1666 2.500 . S
Nd1641 O1667 2.492 . S
Nd1641 O1668 2.487 . S
Nd1641 O1669 2.682 . S
Nd1641 O1670 2.410 . S
C1642 Nd1640 2.836 . S
C1642 C1643 1.498 . S
C1642 O1660 1.258 . S
C1642 O1661 1.239 . S
C1643 C1642 1.498 . S
C1643 C1644 1.366 . S
C1643 C1648 1.407 . S
C1644 C1643 1.366 . S
C1644 C1645 1.392 . S
C1644 H1672 0.930 . S
C1645 C1644 1.392 . S
C1645 C1646 1.398 . S
C1645 H1673 0.929 . S
C1646 C1645 1.398 . S
C1646 C1647 1.352 . S
C1647 C1646 1.352 . S
C1647 C1648 1.384 . S
C1647 H1674 0.930 . S
C1648 C1643 1.407 . S
C1648 C1647 1.384 . S
C1648 H1675 0.929 . S
C1649 O1662 1.241 . S
C1649 O1663 1.273 . S
C1650 O1664 1.251 . S
C1650 O1665 1.268 . S
C1651 Nd1641 2.836 . S
C1651 C1652 1.498 . S
C1651 O1666 1.258 . S
C1651 O1667 1.239 . S
C1652 C1651 1.498 . S
C1652 C1653 1.366 . S
C1652 C1657 1.407 . S
C1653 C1652 1.366 . S
C1653 C1654 1.392 . S
C1653 H1676 0.930 . S
C1654 C1653 1.392 . S
C1654 C1655 1.398 . S
C1654 H1677 0.929 . S
C1655 C1654 1.398 . S
C1655 C1656 1.352 . S
C1656 C1655 1.352 . S
C1656 C1657 1.384 . S
C1656 H1678 0.930 . S
C1657 C1652 1.407 . S
C1657 C1656 1.384 . S
C1657 H1679 0.929 . S
C1658 O1668 1.241 . S
C1658 O1669 1.273 . S
C1659 O1670 1.251 . S
C1659 O1671 1.268 . S
O1660 Nd1640 2.500 . S
O1660 C1642 1.258 . S
O1661 Nd1640 2.492 . S
O1661 C1642 1.239 . S
O1662 Nd1640 2.487 . S
O1662 C1649 1.241 . S
O1663 Nd1640 2.682 . S
O1663 Nd1641 2.414 . S
O1663 C1649 1.273 . S
O1664 Nd1640 2.410 . S
O1664 C1650 1.251 . S
O1665 Nd1641 2.424 . S
O1665 C1650 1.268 . S
O1666 Nd1641 2.500 . S
O1666 C1651 1.258 . S
O1667 Nd1641 2.492 . S
O1667 C1651 1.239 . S
O1668 Nd1641 2.487 . S
O1668 C1658 1.241 . S
O1669 Nd1640 2.414 . S
O1669 Nd1641 2.682 . S
O1669 C1658 1.273 . S
O1670 Nd1641 2.410 . S
O1670 C1659 1.251 . S
O1671 Nd1640 2.424 . S
O1671 C1659 1.268 . S
H1672 C1644 0.930 . S
H1673 C1645 0.929 . S
H1674 C1647 0.930 . S
H1675 C1648 0.929 . S
H1676 C1653 0.930 . S
H1677 C1654 0.929 . S
H1678 C1656 0.930 . S
H1679 C1657 0.929 . S
Nd1680 C1682 2.836 . S
Nd1680 O1700 2.500 . S
Nd1680 O1701 2.492 . S
Nd1680 O1702 2.487 . S
Nd1680 O1703 2.682 . S
Nd1680 O1704 2.410 . S
Nd1680 O1709 2.414 . S
Nd1680 O1711 2.424 . S
Nd1681 C1691 2.836 . S
Nd1681 O1703 2.414 . S
Nd1681 O1705 2.424 . S
Nd1681 O1706 2.500 . S
Nd1681 O1707 2.492 . S
Nd1681 O1708 2.487 . S
Nd1681 O1709 2.682 . S
Nd1681 O1710 2.410 . S
C1682 Nd1680 2.836 . S
C1682 C1683 1.498 . S
C1682 O1700 1.258 . S
C1682 O1701 1.239 . S
C1683 C1682 1.498 . S
C1683 C1684 1.366 . S
C1683 C1688 1.407 1_554 S
C1684 C1683 1.366 . S
C1684 C1685 1.392 . S
C1684 H1712 0.930 . S
C1685 C1684 1.392 . S
C1685 C1686 1.398 1_554 S
C1685 H1713 0.929 . S
C1686 C1685 1.398 1_556 S
C1686 C1687 1.352 . S
C1687 C1686 1.352 . S
C1687 C1688 1.384 . S
C1687 H1714 0.930 . S
C1688 C1683 1.407 1_556 S
C1688 C1687 1.384 . S
C1688 H1715 0.929 . S
C1689 O1702 1.241 . S
C1689 O1703 1.273 . S
C1690 O1704 1.251 . S
C1690 O1705 1.268 . S
C1691 Nd1681 2.836 . S
C1691 C1692 1.498 . S
C1691 O1706 1.258 . S
C1691 O1707 1.239 . S
C1692 C1691 1.498 . S
C1692 C1693 1.366 . S
C1692 C1697 1.407 . S
C1693 C1692 1.366 . S
C1693 C1694 1.392 . S
C1693 H1716 0.930 . S
C1694 C1693 1.392 . S
C1694 C1695 1.398 . S
C1694 H1717 0.929 . S
C1695 C1694 1.398 . S
C1695 C1696 1.352 . S
C1696 C1695 1.352 . S
C1696 C1697 1.384 . S
C1696 H1718 0.930 . S
C1697 C1692 1.407 . S
C1697 C1696 1.384 . S
C1697 H1719 0.929 . S
C1698 O1708 1.241 . S
C1698 O1709 1.273 . S
C1699 O1710 1.251 . S
C1699 O1711 1.268 . S
O1700 Nd1680 2.500 . S
O1700 C1682 1.258 . S
O1701 Nd1680 2.492 . S
O1701 C1682 1.239 . S
O1702 Nd1680 2.487 . S
O1702 C1689 1.241 . S
O1703 Nd1680 2.682 . S
O1703 Nd1681 2.414 . S
O1703 C1689 1.273 . S
O1704 Nd1680 2.410 . S
O1704 C1690 1.251 . S
O1705 Nd1681 2.424 . S
O1705 C1690 1.268 . S
O1706 Nd1681 2.500 . S
O1706 C1691 1.258 . S
O1707 Nd1681 2.492 . S
O1707 C1691 1.239 . S
O1708 Nd1681 2.487 . S
O1708 C1698 1.241 . S
O1709 Nd1680 2.414 . S
O1709 Nd1681 2.682 . S
O1709 C1698 1.273 . S
O1710 Nd1681 2.410 . S
O1710 C1699 1.251 . S
O1711 Nd1680 2.424 . S
O1711 C1699 1.268 . S
H1712 C1684 0.930 . S
H1713 C1685 0.929 . S
H1714 C1687 0.930 . S
H1715 C1688 0.929 . S
H1716 C1693 0.930 . S
H1717 C1694 0.929 . S
H1718 C1696 0.930 . S
H1719 C1697 0.929 . S
Nd1720 C1722 2.836 . S
Nd1720 O1740 2.500 . S
Nd1720 O1741 2.492 . S
Nd1720 O1742 2.487 . S
Nd1720 O1743 2.682 . S
Nd1720 O1744 2.410 . S
Nd1720 O1749 2.414 . S
Nd1720 O1751 2.424 . S
Nd1721 C1731 2.836 . S
Nd1721 O1743 2.414 . S
Nd1721 O1745 2.424 . S
Nd1721 O1746 2.500 . S
Nd1721 O1747 2.492 . S
Nd1721 O1748 2.487 . S
Nd1721 O1749 2.682 . S
Nd1721 O1750 2.410 . S
C1722 Nd1720 2.836 . S
C1722 C1723 1.498 . S
C1722 O1740 1.258 . S
C1722 O1741 1.239 . S
C1723 C1722 1.498 . S
C1723 C1724 1.366 . S
C1723 C1728 1.407 . S
C1724 C1723 1.366 . S
C1724 C1725 1.392 . S
C1724 H1752 0.930 . S
C1725 C1724 1.392 . S
C1725 C1726 1.398 . S
C1725 H1753 0.929 . S
C1726 C1725 1.398 . S
C1726 C1727 1.352 . S
C1727 C1726 1.352 . S
C1727 C1728 1.384 . S
C1727 H1754 0.930 . S
C1728 C1723 1.407 . S
C1728 C1727 1.384 . S
C1728 H1755 0.929 . S
C1729 O1742 1.241 . S
C1729 O1743 1.273 . S
C1730 O1744 1.251 . S
C1730 O1745 1.268 . S
C1731 Nd1721 2.836 . S
C1731 C1732 1.498 . S
C1731 O1746 1.258 . S
C1731 O1747 1.239 . S
C1732 C1731 1.498 . S
C1732 C1733 1.366 . S
C1732 C1737 1.407 . S
C1733 C1732 1.366 . S
C1733 C1734 1.392 . S
C1733 H1756 0.930 . S
C1734 C1733 1.392 . S
C1734 C1735 1.398 . S
C1734 H1757 0.929 . S
C1735 C1734 1.398 . S
C1735 C1736 1.352 . S
C1736 C1735 1.352 . S
C1736 C1737 1.384 . S
C1736 H1758 0.930 . S
C1737 C1732 1.407 . S
C1737 C1736 1.384 . S
C1737 H1759 0.929 . S
C1738 O1748 1.241 . S
C1738 O1749 1.273 . S
C1739 O1750 1.251 . S
C1739 O1751 1.268 . S
O1740 Nd1720 2.500 . S
O1740 C1722 1.258 . S
O1741 Nd1720 2.492 . S
O1741 C1722 1.239 . S
O1742 Nd1720 2.487 . S
O1742 C1729 1.241 . S
O1743 Nd1720 2.682 . S
O1743 Nd1721 2.414 . S
O1743 C1729 1.273 . S
O1744 Nd1720 2.410 . S
O1744 C1730 1.251 . S
O1745 Nd1721 2.424 . S
O1745 C1730 1.268 . S
O1746 Nd1721 2.500 . S
O1746 C1731 1.258 . S
O1747 Nd1721 2.492 . S
O1747 C1731 1.239 . S
O1748 Nd1721 2.487 . S
O1748 C1738 1.241 . S
O1749 Nd1720 2.414 . S
O1749 Nd1721 2.682 . S
O1749 C1738 1.273 . S
O1750 Nd1721 2.410 . S
O1750 C1739 1.251 . S
O1751 Nd1720 2.424 . S
O1751 C1739 1.268 . S
H1752 C1724 0.930 . S
H1753 C1725 0.929 . S
H1754 C1727 0.930 . S
H1755 C1728 0.929 . S
H1756 C1733 0.930 . S
H1757 C1734 0.929 . S
H1758 C1736 0.930 . S
H1759 C1737 0.929 . S
Nd1760 C1762 2.836 . S
Nd1760 O1780 2.500 . S
Nd1760 O1781 2.492 . S
Nd1760 O1782 2.487 . S
Nd1760 O1783 2.682 . S
Nd1760 O1784 2.410 . S
Nd1760 O1789 2.414 . S
Nd1760 O1791 2.424 . S
Nd1761 C1771 2.836 . S
Nd1761 O1783 2.414 . S
Nd1761 O1785 2.424 . S
Nd1761 O1786 2.500 . S
Nd1761 O1787 2.492 . S
Nd1761 O1788 2.487 . S
Nd1761 O1789 2.682 . S
Nd1761 O1790 2.410 . S
C1762 Nd1760 2.836 . S
C1762 C1763 1.498 . S
C1762 O1780 1.258 . S
C1762 O1781 1.239 . S
C1763 C1762 1.498 . S
C1763 C1764 1.366 . S
C1763 C1768 1.407 . S
C1764 C1763 1.366 . S
C1764 C1765 1.392 . S
C1764 H1792 0.930 . S
C1765 C1764 1.392 . S
C1765 C1766 1.398 . S
C1765 H1793 0.929 . S
C1766 C1765 1.398 . S
C1766 C1767 1.352 . S
C1767 C1766 1.352 . S
C1767 C1768 1.384 . S
C1767 H1794 0.930 . S
C1768 C1763 1.407 . S
C1768 C1767 1.384 . S
C1768 H1795 0.929 . S
C1769 O1782 1.241 . S
C1769 O1783 1.273 . S
C1770 O1784 1.251 . S
C1770 O1785 1.268 . S
C1771 Nd1761 2.836 . S
C1771 C1772 1.498 . S
C1771 O1786 1.258 . S
C1771 O1787 1.239 . S
C1772 C1771 1.498 . S
C1772 C1773 1.366 . S
C1772 C1777 1.407 . S
C1773 C1772 1.366 . S
C1773 C1774 1.392 . S
C1773 H1796 0.930 . S
C1774 C1773 1.392 . S
C1774 C1775 1.398 . S
C1774 H1797 0.929 . S
C1775 C1774 1.398 . S
C1775 C1776 1.352 . S
C1776 C1775 1.352 . S
C1776 C1777 1.384 . S
C1776 H1798 0.930 . S
C1777 C1772 1.407 . S
C1777 C1776 1.384 . S
C1777 H1799 0.929 . S
C1778 O1788 1.241 . S
C1778 O1789 1.273 . S
C1779 O1790 1.251 . S
C1779 O1791 1.268 . S
O1780 Nd1760 2.500 . S
O1780 C1762 1.258 . S
O1781 Nd1760 2.492 . S
O1781 C1762 1.239 . S
O1782 Nd1760 2.487 . S
O1782 C1769 1.241 . S
O1783 Nd1760 2.682 . S
O1783 Nd1761 2.414 . S
O1783 C1769 1.273 . S
O1784 Nd1760 2.410 . S
O1784 C1770 1.251 . S
O1785 Nd1761 2.424 . S
O1785 C1770 1.268 . S
O1786 Nd1761 2.500 . S
O1786 C1771 1.258 . S
O1787 Nd1761 2.492 . S
O1787 C1771 1.239 . S
O1788 Nd1761 2.487 . S
O1788 C1778 1.241 . S
O1789 Nd1760 2.414 . S
O1789 Nd1761 2.682 . S
O1789 C1778 1.273 . S
O1790 Nd1761 2.410 . S
O1790 C1779 1.251 . S
O1791 Nd1760 2.424 . S
O1791 C1779 1.268 . S
H1792 C1764 0.930 . S
H1793 C1765 0.929 . S
H1794 C1767 0.930 . S
H1795 C1768 0.929 . S
H1796 C1773 0.930 . S
H1797 C1774 0.929 . S
H1798 C1776 0.930 . S
H1799 C1777 0.929 . S
Nd1800 C1802 2.836 . S
Nd1800 O1820 2.500 . S
Nd1800 O1821 2.492 . S
Nd1800 O1822 2.487 . S
Nd1800 O1823 2.682 . S
Nd1800 O1824 2.410 . S
Nd1800 O1829 2.414 . S
Nd1800 O1831 2.424 . S
Nd1801 C1811 2.836 . S
Nd1801 O1823 2.414 . S
Nd1801 O1825 2.424 . S
Nd1801 O1826 2.500 . S
Nd1801 O1827 2.492 . S
Nd1801 O1828 2.487 . S
Nd1801 O1829 2.682 . S
Nd1801 O1830 2.410 . S
C1802 Nd1800 2.836 . S
C1802 C1803 1.498 . S
C1802 O1820 1.258 . S
C1802 O1821 1.239 . S
C1803 C1802 1.498 . S
C1803 C1804 1.366 . S
C1803 C1808 1.407 . S
C1804 C1803 1.366 . S
C1804 C1805 1.392 . S
C1804 H1832 0.930 . S
C1805 C1804 1.392 . S
C1805 C1806 1.398 . S
C1805 H1833 0.929 . S
C1806 C1805 1.398 . S
C1806 C1807 1.352 . S
C1807 C1806 1.352 . S
C1807 C1808 1.384 . S
C1807 H1834 0.930 . S
C1808 C1803 1.407 . S
C1808 C1807 1.384 . S
C1808 H1835 0.929 . S
C1809 O1822 1.241 . S
C1809 O1823 1.273 . S
C1810 O1824 1.251 . S
C1810 O1825 1.268 . S
C1811 Nd1801 2.836 . S
C1811 C1812 1.498 . S
C1811 O1826 1.258 . S
C1811 O1827 1.239 . S
C1812 C1811 1.498 . S
C1812 C1813 1.366 . S
C1812 C1817 1.407 . S
C1813 C1812 1.366 . S
C1813 C1814 1.392 . S
C1813 H1836 0.930 . S
C1814 C1813 1.392 . S
C1814 C1815 1.398 . S
C1814 H1837 0.929 . S
C1815 C1814 1.398 . S
C1815 C1816 1.352 . S
C1816 C1815 1.352 . S
C1816 C1817 1.384 . S
C1816 H1838 0.930 . S
C1817 C1812 1.407 . S
C1817 C1816 1.384 . S
C1817 H1839 0.929 . S
C1818 O1828 1.241 . S
C1818 O1829 1.273 . S
C1819 O1830 1.251 . S
C1819 O1831 1.268 . S
O1820 Nd1800 2.500 . S
O1820 C1802 1.258 . S
O1821 Nd1800 2.492 . S
O1821 C1802 1.239 . S
O1822 Nd1800 2.487 . S
O1822 C1809 1.241 . S
O1823 Nd1800 2.682 . S
O1823 Nd1801 2.414 . S
O1823 C1809 1.273 . S
O1824 Nd1800 2.410 . S
O1824 C1810 1.251 . S
O1825 Nd1801 2.424 . S
O1825 C1810 1.268 . S
O1826 Nd1801 2.500 . S
O1826 C1811 1.258 . S
O1827 Nd1801 2.492 . S
O1827 C1811 1.239 . S
O1828 Nd1801 2.487 . S
O1828 C1818 1.241 . S
O1829 Nd1800 2.414 . S
O1829 Nd1801 2.682 . S
O1829 C1818 1.273 . S
O1830 Nd1801 2.410 . S
O1830 C1819 1.251 . S
O1831 Nd1800 2.424 . S
O1831 C1819 1.268 . S
H1832 C1804 0.930 . S
H1833 C1805 0.929 . S
H1834 C1807 0.930 . S
H1835 C1808 0.929 . S
H1836 C1813 0.930 . S
H1837 C1814 0.929 . S
H1838 C1816 0.930 . S
H1839 C1817 0.929 . S
Nd1840 C1842 2.836 . S
Nd1840 O1860 2.500 . S
Nd1840 O1861 2.492 . S
Nd1840 O1862 2.487 . S
Nd1840 O1863 2.682 . S
Nd1840 O1864 2.410 . S
Nd1840 O1869 2.414 . S
Nd1840 O1871 2.424 . S
Nd1841 C1851 2.836 . S
Nd1841 O1863 2.414 . S
Nd1841 O1865 2.424 . S
Nd1841 O1866 2.500 . S
Nd1841 O1867 2.492 . S
Nd1841 O1868 2.487 . S
Nd1841 O1869 2.682 . S
Nd1841 O1870 2.410 . S
C1842 Nd1840 2.836 . S
C1842 C1843 1.498 . S
C1842 O1860 1.258 . S
C1842 O1861 1.239 . S
C1843 C1842 1.498 . S
C1843 C1844 1.366 . S
C1843 C1848 1.407 . S
C1844 C1843 1.366 . S
C1844 C1845 1.392 . S
C1844 H1872 0.930 . S
C1845 C1844 1.392 . S
C1845 C1846 1.398 . S
C1845 H1873 0.929 . S
C1846 C1845 1.398 . S
C1846 C1847 1.352 . S
C1847 C1846 1.352 . S
C1847 C1848 1.384 . S
C1847 H1874 0.930 . S
C1848 C1843 1.407 . S
C1848 C1847 1.384 . S
C1848 H1875 0.929 . S
C1849 O1862 1.241 . S
C1849 O1863 1.273 . S
C1850 O1864 1.251 . S
C1850 O1865 1.268 . S
C1851 Nd1841 2.836 . S
C1851 C1852 1.498 . S
C1851 O1866 1.258 . S
C1851 O1867 1.239 . S
C1852 C1851 1.498 . S
C1852 C1853 1.366 . S
C1852 C1857 1.407 . S
C1853 C1852 1.366 . S
C1853 C1854 1.392 . S
C1853 H1876 0.930 . S
C1854 C1853 1.392 . S
C1854 C1855 1.398 . S
C1854 H1877 0.929 . S
C1855 C1854 1.398 . S
C1855 C1856 1.352 . S
C1856 C1855 1.352 . S
C1856 C1857 1.384 . S
C1856 H1878 0.930 . S
C1857 C1852 1.407 . S
C1857 C1856 1.384 . S
C1857 H1879 0.929 . S
C1858 O1868 1.241 . S
C1858 O1869 1.273 . S
C1859 O1870 1.251 . S
C1859 O1871 1.268 . S
O1860 Nd1840 2.500 . S
O1860 C1842 1.258 . S
O1861 Nd1840 2.492 . S
O1861 C1842 1.239 . S
O1862 Nd1840 2.487 . S
O1862 C1849 1.241 . S
O1863 Nd1840 2.682 . S
O1863 Nd1841 2.414 . S
O1863 C1849 1.273 . S
O1864 Nd1840 2.410 . S
O1864 C1850 1.251 . S
O1865 Nd1841 2.424 . S
O1865 C1850 1.268 . S
O1866 Nd1841 2.500 . S
O1866 C1851 1.258 . S
O1867 Nd1841 2.492 . S
O1867 C1851 1.239 . S
O1868 Nd1841 2.487 . S
O1868 C1858 1.241 . S
O1869 Nd1840 2.414 . S
O1869 Nd1841 2.682 . S
O1869 C1858 1.273 . S
O1870 Nd1841 2.410 . S
O1870 C1859 1.251 . S
O1871 Nd1840 2.424 . S
O1871 C1859 1.268 . S
H1872 C1844 0.930 . S
H1873 C1845 0.929 . S
H1874 C1847 0.930 . S
H1875 C1848 0.929 . S
H1876 C1853 0.930 . S
H1877 C1854 0.929 . S
H1878 C1856 0.930 . S
H1879 C1857 0.929 . S
Nd1880 C1882 2.836 . S
Nd1880 O1900 2.500 . S
Nd1880 O1901 2.492 . S
Nd1880 O1902 2.487 . S
Nd1880 O1903 2.682 . S
Nd1880 O1904 2.410 . S
Nd1880 O1909 2.414 . S
Nd1880 O1911 2.424 . S
Nd1881 C1891 2.836 . S
Nd1881 O1903 2.414 . S
Nd1881 O1905 2.424 . S
Nd1881 O1906 2.500 . S
Nd1881 O1907 2.492 . S
Nd1881 O1908 2.487 . S
Nd1881 O1909 2.682 . S
Nd1881 O1910 2.410 . S
C1882 Nd1880 2.836 . S
C1882 C1883 1.498 . S
C1882 O1900 1.258 . S
C1882 O1901 1.239 . S
C1883 C1882 1.498 . S
C1883 C1884 1.366 . S
C1883 C1888 1.407 . S
C1884 C1883 1.366 . S
C1884 C1885 1.392 . S
C1884 H1912 0.930 . S
C1885 C1884 1.392 . S
C1885 C1886 1.398 . S
C1885 H1913 0.929 . S
C1886 C1885 1.398 . S
C1886 C1887 1.352 . S
C1887 C1886 1.352 . S
C1887 C1888 1.384 . S
C1887 H1914 0.930 . S
C1888 C1883 1.407 . S
C1888 C1887 1.384 . S
C1888 H1915 0.929 . S
C1889 O1902 1.241 . S
C1889 O1903 1.273 . S
C1890 O1904 1.251 . S
C1890 O1905 1.268 . S
C1891 Nd1881 2.836 . S
C1891 C1892 1.498 . S
C1891 O1906 1.258 . S
C1891 O1907 1.239 . S
C1892 C1891 1.498 . S
C1892 C1893 1.366 . S
C1892 C1897 1.407 . S
C1893 C1892 1.366 . S
C1893 C1894 1.392 . S
C1893 H1916 0.930 . S
C1894 C1893 1.392 . S
C1894 C1895 1.398 . S
C1894 H1917 0.929 . S
C1895 C1894 1.398 . S
C1895 C1896 1.352 . S
C1896 C1895 1.352 . S
C1896 C1897 1.384 . S
C1896 H1918 0.930 . S
C1897 C1892 1.407 . S
C1897 C1896 1.384 . S
C1897 H1919 0.929 . S
C1898 O1908 1.241 . S
C1898 O1909 1.273 . S
C1899 O1910 1.251 . S
C1899 O1911 1.268 . S
O1900 Nd1880 2.500 . S
O1900 C1882 1.258 . S
O1901 Nd1880 2.492 . S
O1901 C1882 1.239 . S
O1902 Nd1880 2.487 . S
O1902 C1889 1.241 . S
O1903 Nd1880 2.682 . S
O1903 Nd1881 2.414 . S
O1903 C1889 1.273 . S
O1904 Nd1880 2.410 . S
O1904 C1890 1.251 . S
O1905 Nd1881 2.424 . S
O1905 C1890 1.268 . S
O1906 Nd1881 2.500 . S
O1906 C1891 1.258 . S
O1907 Nd1881 2.492 . S
O1907 C1891 1.239 . S
O1908 Nd1881 2.487 . S
O1908 C1898 1.241 . S
O1909 Nd1880 2.414 . S
O1909 Nd1881 2.682 . S
O1909 C1898 1.273 . S
O1910 Nd1881 2.410 . S
O1910 C1899 1.251 . S
O1911 Nd1880 2.424 . S
O1911 C1899 1.268 . S
H1912 C1884 0.930 . S
H1913 C1885 0.929 . S
H1914 C1887 0.930 . S
H1915 C1888 0.929 . S
H1916 C1893 0.930 . S
H1917 C1894 0.929 . S
H1918 C1896 0.930 . S
H1919 C1897 0.929 . S
C1920 C1921 1.363 . S
C1920 C1926 1.379 . S
C1920 N1928 1.355 1_655 S
C1921 C1920 1.363 . S
C1921 C1927 1.363 . S
C1922 C1923 1.363 . S
C1922 C1927 1.379 . S
C1922 N1929 1.356 . S
C1923 C1922 1.363 . S
C1923 C1926 1.363 . S
N1924 C1926 1.356 . S
N1924 H1936 0.994 . S
N1924 H1937 0.985 . S
N1925 C1927 1.356 . S
N1925 H1930 0.984 . S
N1925 H1931 0.985 . S
C1926 C1920 1.379 . S
C1926 C1923 1.363 . S
C1926 N1924 1.356 . S
C1927 C1921 1.363 . S
C1927 C1922 1.379 . S
C1927 N1925 1.356 . S
N1928 C1920 1.355 1_455 S
N1928 H1934 0.984 . S
N1928 H1935 0.984 . S
N1929 C1922 1.356 . S
N1929 H1932 0.984 . S
N1929 H1933 0.985 . S
H1930 N1925 0.984 . S
H1931 N1925 0.985 . S
H1932 N1929 0.984 . S
H1933 N1929 0.985 . S
H1934 N1928 0.984 . S
H1935 N1928 0.984 . S
H1936 N1924 0.994 . S
H1937 N1924 0.985 . S
C1938 C1939 1.363 . S
C1938 C1944 1.379 . S
C1938 N1946 1.356 . S
C1939 C1938 1.363 . S
C1939 C1945 1.363 . S
C1940 C1941 1.363 . S
C1940 C1945 1.379 . S
C1940 N1947 1.356 . S
C1941 C1940 1.363 . S
C1941 C1944 1.363 . S
N1942 C1944 1.356 . S
N1942 H1954 0.984 . S
N1942 H1955 0.985 . S
N1943 C1945 1.356 . S
N1943 H1948 0.984 . S
N1943 H1949 0.985 . S
C1944 C1938 1.379 . S
C1944 C1941 1.363 . S
C1944 N1942 1.356 . S
C1945 C1939 1.363 . S
C1945 C1940 1.379 . S
C1945 N1943 1.356 . S
N1946 C1938 1.356 . S
N1946 H1952 0.984 . S
N1946 H1953 0.984 . S
N1947 C1940 1.356 . S
N1947 H1950 0.984 . S
N1947 H1951 0.985 . S
H1948 N1943 0.984 . S
H1949 N1943 0.985 . S
H1950 N1947 0.984 . S
H1951 N1947 0.985 . S
H1952 N1946 0.984 . S
H1953 N1946 0.984 . S
H1954 N1942 0.984 . S
H1955 N1942 0.985 . S
C1956 C1957 1.363 . S
C1956 C1962 1.379 . S
C1956 N1964 1.356 . S
C1957 C1956 1.363 . S
C1957 C1963 1.363 . S
C1958 C1959 1.363 . S
C1958 C1963 1.379 . S
C1958 N1965 1.356 . S
C1959 C1958 1.363 . S
C1959 C1962 1.363 . S
N1960 C1962 1.356 . S
N1960 H1972 0.984 . S
N1960 H1973 0.985 . S
N1961 C1963 1.356 . S
N1961 H1966 0.984 . S
N1961 H1967 0.985 . S
C1962 C1956 1.379 . S
C1962 C1959 1.363 . S
C1962 N1960 1.356 . S
C1963 C1957 1.363 . S
C1963 C1958 1.379 . S
C1963 N1961 1.356 . S
N1964 C1956 1.356 . S
N1964 H1970 0.984 . S
N1964 H1971 0.984 . S
N1965 C1958 1.356 . S
N1965 H1968 0.984 . S
N1965 H1969 0.985 . S
H1966 N1961 0.984 . S
H1967 N1961 0.985 . S
H1968 N1965 0.984 . S
H1969 N1965 0.985 . S
H1970 N1964 0.984 . S
H1971 N1964 0.984 . S
H1972 N1960 0.984 . S
H1973 N1960 0.985 . S
C1974 C1975 1.363 . S
C1974 C1980 1.379 . S
C1974 N1982 1.356 . S
C1975 C1974 1.363 . S
C1975 C1981 1.363 . S
C1976 C1977 1.363 . S
C1976 C1981 1.379 . S
C1976 N1983 1.356 . S
C1977 C1976 1.363 . S
C1977 C1980 1.363 . S
N1978 C1980 1.356 . S
N1978 H1990 0.984 . S
N1978 H1991 0.985 . S
N1979 C1981 1.356 . S
N1979 H1984 0.984 . S
N1979 H1985 0.985 . S
C1980 C1974 1.379 . S
C1980 C1977 1.363 . S
C1980 N1978 1.356 . S
C1981 C1975 1.363 . S
C1981 C1976 1.379 . S
C1981 N1979 1.356 . S
N1982 C1974 1.356 . S
N1982 H1988 0.984 . S
N1982 H1989 0.984 . S
N1983 C1976 1.356 . S
N1983 H1986 0.984 . S
N1983 H1987 0.985 . S
H1984 N1979 0.984 . S
H1985 N1979 0.985 . S
H1986 N1983 0.984 . S
H1987 N1983 0.985 . S
H1988 N1982 0.984 . S
H1989 N1982 0.984 . S
H1990 N1978 0.984 . S
H1991 N1978 0.985 . S
C1992 C1993 1.363 1_565 S
C1992 C1998 1.379 . S
C1992 N2000 1.356 . S
C1993 C1992 1.363 1_545 S
C1993 C1999 1.363 . S
C1994 C1995 1.363 1_545 S
C1994 C1999 1.379 . S
C1994 N2001 1.356 . S
C1995 C1994 1.363 1_565 S
C1995 C1998 1.363 . S
N1996 C1998 1.356 . S
N1996 H2008 0.984 . S
N1996 H2009 0.985 . S
N1997 C1999 1.356 . S
N1997 H2002 0.984 . S
N1997 H2003 0.985 . S
C1998 C1992 1.379 . S
C1998 C1995 1.363 . S
C1998 N1996 1.356 . S
C1999 C1993 1.363 . S
C1999 C1994 1.379 . S
C1999 N1997 1.356 . S
N2000 C1992 1.356 . S
N2000 H2006 0.984 . S
N2000 H2007 0.984 . S
N2001 C1994 1.356 . S
N2001 H2004 0.984 . S
N2001 H2005 0.985 . S
H2002 N1997 0.984 . S
H2003 N1997 0.985 . S
H2004 N2001 0.984 . S
H2005 N2001 0.985 . S
H2006 N2000 0.984 . S
H2007 N2000 0.984 . S
H2008 N1996 0.984 . S
H2009 N1996 0.985 . S
C2010 C2011 1.363 . S
C2010 C2016 1.379 . S
C2010 N2018 1.356 . S
C2011 C2010 1.363 . S
C2011 C2017 1.363 . S
C2012 C2013 1.363 . S
C2012 C2017 1.379 . S
C2012 N2019 1.356 . S
C2013 C2012 1.363 . S
C2013 C2016 1.363 . S
N2014 C2016 1.356 . S
N2014 H2026 0.984 . S
N2014 H2027 0.985 . S
N2015 C2017 1.356 . S
N2015 H2020 0.984 . S
N2015 H2021 0.985 . S
C2016 C2010 1.379 . S
C2016 C2013 1.363 . S
C2016 N2014 1.356 . S
C2017 C2011 1.363 . S
C2017 C2012 1.379 . S
C2017 N2015 1.356 . S
N2018 C2010 1.356 . S
N2018 H2024 0.984 . S
N2018 H2025 0.984 . S
N2019 C2012 1.356 . S
N2019 H2022 0.984 . S
N2019 H2023 0.985 . S
H2020 N2015 0.984 . S
H2021 N2015 0.985 . S
H2022 N2019 0.984 . S
H2023 N2019 0.985 . S
H2024 N2018 0.984 . S
H2025 N2018 0.984 . S
H2026 N2014 0.984 . S
H2027 N2014 0.985 . S
C2028 C2029 1.363 . S
C2028 C2034 1.379 . S
C2028 N2036 1.356 . S
C2029 C2028 1.363 . S
C2029 C2035 1.363 . S
C2030 C2031 1.363 . S
C2030 C2035 1.379 . S
C2030 N2037 1.356 . S
C2031 C2030 1.363 . S
C2031 C2034 1.363 . S
N2032 C2034 1.356 1_556 S
N2032 H2044 0.984 . S
N2032 H2045 0.985 . S
N2033 C2035 1.356 . S
N2033 H2038 0.984 . S
N2033 H2039 0.985 . S
C2034 C2028 1.379 . S
C2034 C2031 1.363 . S
C2034 N2032 1.356 1_554 S
C2035 C2029 1.363 . S
C2035 C2030 1.379 . S
C2035 N2033 1.356 . S
N2036 C2028 1.356 . S
N2036 H2042 0.984 . S
N2036 H2043 0.984 . S
N2037 C2030 1.356 . S
N2037 H2040 0.984 . S
N2037 H2041 0.985 . S
H2038 N2033 0.984 . S
H2039 N2033 0.985 . S
H2040 N2037 0.984 . S
H2041 N2037 0.985 . S
H2042 N2036 0.984 . S
H2043 N2036 0.984 . S
H2044 N2032 0.984 . S
H2045 N2032 0.985 . S
C2046 C2047 1.363 . S
C2046 C2052 1.379 . S
C2046 N2054 1.356 . S
C2047 C2046 1.363 . S
C2047 C2053 1.363 . S
C2048 C2049 1.363 . S
C2048 C2053 1.379 . S
C2048 N2055 1.356 1_565 S
C2049 C2048 1.363 . S
C2049 C2052 1.363 . S
N2050 C2052 1.356 . S
N2050 H2062 0.984 . S
N2050 H2063 0.985 . S
N2051 C2053 1.356 . S
N2051 H2056 0.984 . S
N2051 H2057 0.985 1_565 S
C2052 C2046 1.379 . S
C2052 C2049 1.363 . S
C2052 N2050 1.356 . S
C2053 C2047 1.363 . S
C2053 C2048 1.379 . S
C2053 N2051 1.356 . S
N2054 C2046 1.356 . S
N2054 H2060 0.984 . S
N2054 H2061 0.984 . S
N2055 C2048 1.356 1_545 S
N2055 H2058 0.984 . S
N2055 H2059 0.985 . S
H2056 N2051 0.984 . S
H2057 N2051 0.985 1_545 S
H2058 N2055 0.984 . S
H2059 N2055 0.985 . S
H2060 N2054 0.984 . S
H2061 N2054 0.984 . S
H2062 N2050 0.984 . S
H2063 N2050 0.985 . S
C2064 C2065 1.363 . S
C2064 C2070 1.379 . S
C2064 N2072 1.356 . S
C2065 C2064 1.363 . S
C2065 C2071 1.363 . S
C2066 C2067 1.363 . S
C2066 C2071 1.379 . S
C2066 N2073 1.356 . S
C2067 C2066 1.363 . S
C2067 C2070 1.363 . S
N2068 C2070 1.356 . S
N2068 H2080 0.984 . S
N2068 H2081 0.985 . S
N2069 C2071 1.356 1_556 S
N2069 H2074 0.984 . S
N2069 H2075 0.985 . S
C2070 C2064 1.379 . S
C2070 C2067 1.363 . S
C2070 N2068 1.356 . S
C2071 C2065 1.363 . S
C2071 C2066 1.379 . S
C2071 N2069 1.356 1_554 S
N2072 C2064 1.356 . S
N2072 H2078 0.984 . S
N2072 H2079 0.984 . S
N2073 C2066 1.356 . S
N2073 H2076 0.984 . S
N2073 H2077 0.985 1_554 S
H2074 N2069 0.984 . S
H2075 N2069 0.985 . S
H2076 N2073 0.984 . S
H2077 N2073 0.985 1_556 S
H2078 N2072 0.984 . S
H2079 N2072 0.984 . S
H2080 N2068 0.984 . S
H2081 N2068 0.985 . S
C2082 C2083 1.363 . S
C2082 C2088 1.379 . S
C2082 N2090 1.356 . S
C2083 C2082 1.363 . S
C2083 C2089 1.363 . S
C2084 C2085 1.363 . S
C2084 C2089 1.379 . S
C2084 N2091 1.356 1_556 S
C2085 C2084 1.363 . S
C2085 C2088 1.363 . S
N2086 C2088 1.356 . S
N2086 H2098 0.984 . S
N2086 H2099 0.985 . S
N2087 C2089 1.356 . S
N2087 H2092 0.984 . S
N2087 H2093 0.985 1_556 S
C2088 C2082 1.379 . S
C2088 C2085 1.363 . S
C2088 N2086 1.356 . S
C2089 C2083 1.363 . S
C2089 C2084 1.379 . S
C2089 N2087 1.356 . S
N2090 C2082 1.356 . S
N2090 H2096 0.984 . S
N2090 H2097 0.984 . S
N2091 C2084 1.356 1_554 S
N2091 H2094 0.984 . S
N2091 H2095 0.985 . S
H2092 N2087 0.984 . S
H2093 N2087 0.985 1_554 S
H2094 N2091 0.984 . S
H2095 N2091 0.985 . S
H2096 N2090 0.984 . S
H2097 N2090 0.984 . S
H2098 N2086 0.984 . S
H2099 N2086 0.985 . S
C2100 C2101 1.363 . S
C2100 C2106 1.379 . S
C2100 N2108 1.356 . S
C2101 C2100 1.363 . S
C2101 C2107 1.363 . S
C2102 C2103 1.363 . S
C2102 C2107 1.379 . S
C2102 N2109 1.356 . S
C2103 C2102 1.363 . S
C2103 C2106 1.363 . S
N2104 C2106 1.356 . S
N2104 H2116 0.984 . S
N2104 H2117 0.985 . S
N2105 C2107 1.356 . S
N2105 H2110 0.984 . S
N2105 H2111 0.985 . S
C2106 C2100 1.379 . S
C2106 C2103 1.363 . S
C2106 N2104 1.356 . S
C2107 C2101 1.363 . S
C2107 C2102 1.379 . S
C2107 N2105 1.356 . S
N2108 C2100 1.356 . S
N2108 H2114 0.984 . S
N2108 H2115 0.984 . S
N2109 C2102 1.356 . S
N2109 H2112 0.984 . S
N2109 H2113 0.985 . S
H2110 N2105 0.984 . S
H2111 N2105 0.985 . S
H2112 N2109 0.984 . S
H2113 N2109 0.985 . S
H2114 N2108 0.984 . S
H2115 N2108 0.984 . S
H2116 N2104 0.984 . S
H2117 N2104 0.985 . S
C2118 C2119 1.363 . S
C2118 C2124 1.379 . S
C2118 N2126 1.356 . S
C2119 C2118 1.363 . S
C2119 C2125 1.363 . S
C2120 C2121 1.363 . S
C2120 C2125 1.379 . S
C2120 N2127 1.356 . S
C2121 C2120 1.363 . S
C2121 C2124 1.363 . S
N2122 C2124 1.356 . S
N2122 H2134 0.984 . S
N2122 H2135 0.985 . S
N2123 C2125 1.356 . S
N2123 H2128 0.984 . S
N2123 H2129 0.985 . S
C2124 C2118 1.379 . S
C2124 C2121 1.363 . S
C2124 N2122 1.356 . S
C2125 C2119 1.363 . S
C2125 C2120 1.379 . S
C2125 N2123 1.356 . S
N2126 C2118 1.356 . S
N2126 H2132 0.984 . S
N2126 H2133 0.984 . S
N2127 C2120 1.356 . S
N2127 H2130 0.984 . S
N2127 H2131 0.985 . S
H2128 N2123 0.984 . S
H2129 N2123 0.985 . S
H2130 N2127 0.984 . S
H2131 N2127 0.985 . S
H2132 N2126 0.984 . S
H2133 N2126 0.984 . S
H2134 N2122 0.984 . S
H2135 N2122 0.985 . S
C2136 C2137 1.363 . S
C2136 C2142 1.379 . S
C2136 N2144 1.356 . S
C2137 C2136 1.363 . S
C2137 C2143 1.363 . S
C2138 C2139 1.363 . S
C2138 C2143 1.379 . S
C2138 N2145 1.356 . S
C2139 C2138 1.363 . S
C2139 C2142 1.363 . S
N2140 C2142 1.356 . S
N2140 H2152 0.984 . S
N2140 H2153 0.985 . S
N2141 C2143 1.356 1_655 S
N2141 H2146 0.984 . S
N2141 H2147 0.985 . S
C2142 C2136 1.379 . S
C2142 C2139 1.363 . S
C2142 N2140 1.356 . S
C2143 C2137 1.363 . S
C2143 C2138 1.379 . S
C2143 N2141 1.356 1_455 S
N2144 C2136 1.356 . S
N2144 H2150 0.984 . S
N2144 H2151 0.984 1_455 S
N2145 C2138 1.356 . S
N2145 H2148 0.984 . S
N2145 H2149 0.985 . S
H2146 N2141 0.984 . S
H2147 N2141 0.985 . S
H2148 N2145 0.984 . S
H2149 N2145 0.985 . S
H2150 N2144 0.984 . S
H2151 N2144 0.984 1_655 S
H2152 N2140 0.984 . S
H2153 N2140 0.985 . S
C2154 C2155 1.363 . S
C2154 C2160 1.379 . S
C2154 N2162 1.356 . S
C2155 C2154 1.363 . S
C2155 C2161 1.363 . S
C2156 C2157 1.363 . S
C2156 C2161 1.379 . S
C2156 N2163 1.356 . S
C2157 C2156 1.363 . S
C2157 C2160 1.363 . S
N2158 C2160 1.356 . S
N2158 H2170 0.984 . S
N2158 H2171 0.985 . S
N2159 C2161 1.356 . S
N2159 H2164 0.984 . S
N2159 H2165 0.985 . S
C2160 C2154 1.379 . S
C2160 C2157 1.363 . S
C2160 N2158 1.356 . S
C2161 C2155 1.363 . S
C2161 C2156 1.379 . S
C2161 N2159 1.356 . S
N2162 C2154 1.356 . S
N2162 H2168 0.984 . S
N2162 H2169 0.984 . S
N2163 C2156 1.356 . S
N2163 H2166 0.984 . S
N2163 H2167 0.985 . S
H2164 N2159 0.984 . S
H2165 N2159 0.985 . S
H2166 N2163 0.984 . S
H2167 N2163 0.985 . S
H2168 N2162 0.984 . S
H2169 N2162 0.984 . S
H2170 N2158 0.984 . S
H2171 N2158 0.985 . S
C2172 C2173 1.363 . S
C2172 C2178 1.379 . S
C2172 N2180 1.356 . S
C2173 C2172 1.363 . S
C2173 C2179 1.363 . S
C2174 C2175 1.363 . S
C2174 C2179 1.379 . S
C2174 N2181 1.356 . S
C2175 C2174 1.363 . S
C2175 C2178 1.363 . S
N2176 C2178 1.356 . S
N2176 H2188 0.984 . S
N2176 H2189 0.985 . S
N2177 C2179 1.356 . S
N2177 H2182 0.984 . S
N2177 H2183 0.985 . S
C2178 C2172 1.379 . S
C2178 C2175 1.363 . S
C2178 N2176 1.356 . S
C2179 C2173 1.363 . S
C2179 C2174 1.379 . S
C2179 N2177 1.356 . S
N2180 C2172 1.356 . S
N2180 H2186 0.984 . S
N2180 H2187 0.984 . S
N2181 C2174 1.356 . S
N2181 H2184 0.984 . S
N2181 H2185 0.985 . S
H2182 N2177 0.984 . S
H2183 N2177 0.985 . S
H2184 N2181 0.984 . S
H2185 N2181 0.985 . S
H2186 N2180 0.984 . S
H2187 N2180 0.984 . S
H2188 N2176 0.984 . S
H2189 N2176 0.985 . S
C2190 C2191 1.363 . S
C2190 C2196 1.379 1_455 S
C2190 N2198 1.356 1_455 S
C2191 C2190 1.363 . S
C2191 C2197 1.363 . S
C2192 C2193 1.363 . S
C2192 C2197 1.379 . S
C2192 N2199 1.356 . S
C2193 C2192 1.363 . S
C2193 C2196 1.363 1_455 S
N2194 C2196 1.356 . S
N2194 H2206 0.984 . S
N2194 H2207 0.985 . S
N2195 C2197 1.356 . S
N2195 H2200 0.984 . S
N2195 H2201 0.985 . S
C2196 C2190 1.379 1_655 S
C2196 C2193 1.363 1_655 S
C2196 N2194 1.356 . S
C2197 C2191 1.363 . S
C2197 C2192 1.379 . S
C2197 N2195 1.356 . S
N2198 C2190 1.356 1_655 S
N2198 H2204 0.984 . S
N2198 H2205 0.984 . S
N2199 C2192 1.356 . S
N2199 H2202 0.984 . S
N2199 H2203 0.985 . S
H2200 N2195 0.984 . S
H2201 N2195 0.985 . S
H2202 N2199 0.984 . S
H2203 N2199 0.985 . S
H2204 N2198 0.984 . S
H2205 N2198 0.984 . S
H2206 N2194 0.984 . S
H2207 N2194 0.985 . S
C2208 C2209 1.363 . S
C2208 C2214 1.379 . S
C2208 N2216 1.356 . S
C2209 C2208 1.363 . S
C2209 C2215 1.363 . S
C2210 C2211 1.363 . S
C2210 C2215 1.379 . S
C2210 N2217 1.356 . S
C2211 C2210 1.363 . S
C2211 C2214 1.363 . S
N2212 C2214 1.356 . S
N2212 H2224 0.984 . S
N2212 H2225 0.985 . S
N2213 C2215 1.356 . S
N2213 H2218 0.984 . S
N2213 H2219 0.985 . S
C2214 C2208 1.379 . S
C2214 C2211 1.363 . S
C2214 N2212 1.356 . S
C2215 C2209 1.363 . S
C2215 C2210 1.379 . S
C2215 N2213 1.356 . S
N2216 C2208 1.356 . S
N2216 H2222 0.984 . S
N2216 H2223 0.984 . S
N2217 C2210 1.356 . S
N2217 H2220 0.984 . S
N2217 H2221 0.985 . S
H2218 N2213 0.984 . S
H2219 N2213 0.985 . S
H2220 N2217 0.984 . S
H2221 N2217 0.985 . S
H2222 N2216 0.984 . S
H2223 N2216 0.984 . S
H2224 N2212 0.984 . S
H2225 N2212 0.985 . S
C2226 C2227 1.363 . S
C2226 C2232 1.379 . S
C2226 N2234 1.356 . S
C2227 C2226 1.363 . S
C2227 C2233 1.363 . S
C2228 C2229 1.363 . S
C2228 C2233 1.379 . S
C2228 N2235 1.356 . S
C2229 C2228 1.363 . S
C2229 C2232 1.363 . S
N2230 C2232 1.356 . S
N2230 H2242 0.984 . S
N2230 H2243 0.985 . S
N2231 C2233 1.356 . S
N2231 H2236 0.984 . S
N2231 H2237 0.985 . S
C2232 C2226 1.379 . S
C2232 C2229 1.363 . S
C2232 N2230 1.356 . S
C2233 C2227 1.363 . S
C2233 C2228 1.379 . S
C2233 N2231 1.356 . S
N2234 C2226 1.356 . S
N2234 H2240 0.984 . S
N2234 H2241 0.984 . S
N2235 C2228 1.356 . S
N2235 H2238 0.984 . S
N2235 H2239 0.985 . S
H2236 N2231 0.984 . S
H2237 N2231 0.985 . S
H2238 N2235 0.984 . S
H2239 N2235 0.985 . S
H2240 N2234 0.984 . S
H2241 N2234 0.984 . S
H2242 N2230 0.984 . S
H2243 N2230 0.985 . S
C2244 C2245 1.363 . S
C2244 C2250 1.379 . S
C2244 N2252 1.356 . S
C2245 C2244 1.363 . S
C2245 C2251 1.363 . S
C2246 C2247 1.363 . S
C2246 C2251 1.379 . S
C2246 N2253 1.356 . S
C2247 C2246 1.363 . S
C2247 C2250 1.363 . S
N2248 C2250 1.356 . S
N2248 H2260 0.984 . S
N2248 H2261 0.985 . S
N2249 C2251 1.356 . S
N2249 H2254 0.984 . S
N2249 H2255 0.985 . S
C2250 C2244 1.379 . S
C2250 C2247 1.363 . S
C2250 N2248 1.356 . S
C2251 C2245 1.363 . S
C2251 C2246 1.379 . S
C2251 N2249 1.356 . S
N2252 C2244 1.356 . S
N2252 H2258 0.984 . S
N2252 H2259 0.984 . S
N2253 C2246 1.356 . S
N2253 H2256 0.984 . S
N2253 H2257 0.985 . S
H2254 N2249 0.984 . S
H2255 N2249 0.985 . S
H2256 N2253 0.984 . S
H2257 N2253 0.985 . S
H2258 N2252 0.984 . S
H2259 N2252 0.984 . S
H2260 N2248 0.984 . S
H2261 N2248 0.985 . S
C2262 C2263 1.363 . S
C2262 C2268 1.379 . S
C2262 N2270 1.356 . S
C2263 C2262 1.363 . S
C2263 C2269 1.363 1_565 S
C2264 C2265 1.363 . S
C2264 C2269 1.379 1_565 S
C2264 N2271 1.356 1_565 S
C2265 C2264 1.363 . S
C2265 C2268 1.363 . S
N2266 C2268 1.356 . S
N2266 H2278 0.984 . S
N2266 H2279 0.985 . S
N2267 C2269 1.356 . S
N2267 H2272 0.984 . S
N2267 H2273 0.985 . S
C2268 C2262 1.379 . S
C2268 C2265 1.363 . S
C2268 N2266 1.356 . S
C2269 C2263 1.363 1_545 S
C2269 C2264 1.379 1_545 S
C2269 N2267 1.356 . S
N2270 C2262 1.356 . S
N2270 H2276 0.984 . S
N2270 H2277 0.984 . S
N2271 C2264 1.356 1_545 S
N2271 H2274 0.984 1_545 S
N2271 H2275 0.985 . S
H2272 N2267 0.984 . S
H2273 N2267 0.985 . S
H2274 N2271 0.984 1_565 S
H2275 N2271 0.985 . S
H2276 N2270 0.984 . S
H2277 N2270 0.984 . S
H2278 N2266 0.984 . S
H2279 N2266 0.985 . S
C2280 C2281 1.363 . S
C2280 C2286 1.379 . S
C2280 N2288 1.356 . S
C2281 C2280 1.363 . S
C2281 C2287 1.363 . S
C2282 C2283 1.363 . S
C2282 C2287 1.379 . S
C2282 N2289 1.356 . S
C2283 C2282 1.363 . S
C2283 C2286 1.363 . S
N2284 C2286 1.356 . S
N2284 H2296 0.984 . S
N2284 H2297 0.985 . S
N2285 C2287 1.356 . S
N2285 H2290 0.984 . S
N2285 H2291 0.985 . S
C2286 C2280 1.379 . S
C2286 C2283 1.363 . S
C2286 N2284 1.356 . S
C2287 C2281 1.363 . S
C2287 C2282 1.379 . S
C2287 N2285 1.356 . S
N2288 C2280 1.356 . S
N2288 H2294 0.984 . S
N2288 H2295 0.984 . S
N2289 C2282 1.356 . S
N2289 H2292 0.984 . S
N2289 H2293 0.985 . S
H2290 N2285 0.984 . S
H2291 N2285 0.985 . S
H2292 N2289 0.984 . S
H2293 N2289 0.985 . S
H2294 N2288 0.984 . S
H2295 N2288 0.984 . S
H2296 N2284 0.984 . S
H2297 N2284 0.985 . S
C2298 C2299 1.363 . S
C2298 C2304 1.379 . S
C2298 N2306 1.356 . S
C2299 C2298 1.363 . S
C2299 C2305 1.363 . S
C2300 C2301 1.363 . S
C2300 C2305 1.379 . S
C2300 N2307 1.356 . S
C2301 C2300 1.363 . S
C2301 C2304 1.363 . S
N2302 C2304 1.356 . S
N2302 H2314 0.984 . S
N2302 H2315 0.985 . S
N2303 C2305 1.356 . S
N2303 H2308 0.984 . S
N2303 H2309 0.985 . S
C2304 C2298 1.379 . S
C2304 C2301 1.363 . S
C2304 N2302 1.356 . S
C2305 C2299 1.363 . S
C2305 C2300 1.379 . S
C2305 N2303 1.356 . S
N2306 C2298 1.356 . S
N2306 H2312 0.984 . S
N2306 H2313 0.984 . S
N2307 C2300 1.356 . S
N2307 H2310 0.984 . S
N2307 H2311 0.985 . S
H2308 N2303 0.984 . S
H2309 N2303 0.985 . S
H2310 N2307 0.984 . S
H2311 N2307 0.985 . S
H2312 N2306 0.984 . S
H2313 N2306 0.984 . S
H2314 N2302 0.984 . S
H2315 N2302 0.985 . S
C2316 C2317 1.363 1_545 S
C2316 C2322 1.379 . S
C2316 N2324 1.356 . S
C2317 C2316 1.363 1_565 S
C2317 C2323 1.363 . S
C2318 C2319 1.363 . S
C2318 C2323 1.379 . S
C2318 N2325 1.356 . S
C2319 C2318 1.363 . S
C2319 C2322 1.363 1_565 S
N2320 C2322 1.356 . S
N2320 H2332 0.984 . S
N2320 H2333 0.985 . S
N2321 C2323 1.356 . S
N2321 H2326 0.984 . S
N2321 H2327 0.985 . S
C2322 C2316 1.379 . S
C2322 C2319 1.363 1_545 S
C2322 N2320 1.356 . S
C2323 C2317 1.363 . S
C2323 C2318 1.379 . S
C2323 N2321 1.356 . S
N2324 C2316 1.356 . S
N2324 H2330 0.984 . S
N2324 H2331 0.984 . S
N2325 C2318 1.356 . S
N2325 H2328 0.984 . S
N2325 H2329 0.985 . S
H2326 N2321 0.984 . S
H2327 N2321 0.985 . S
H2328 N2325 0.984 . S
H2329 N2325 0.985 . S
H2330 N2324 0.984 . S
H2331 N2324 0.984 . S
H2332 N2320 0.984 . S
H2333 N2320 0.985 . S
C2334 C2335 1.363 1_554 S
C2334 C2340 1.379 . S
C2334 N2342 1.356 . S
C2335 C2334 1.363 1_556 S
C2335 C2341 1.363 . S
C2336 C2337 1.363 1_556 S
C2336 C2341 1.379 . S
C2336 N2343 1.358 . S
C2337 C2336 1.363 1_554 S
C2337 C2340 1.363 . S
N2338 C2340 1.356 . S
N2338 H2350 0.984 . S
N2338 H2351 0.985 . S
N2339 C2341 1.356 . S
N2339 H2344 0.984 . S
N2339 H2345 0.985 . S
C2340 C2334 1.379 . S
C2340 C2337 1.363 . S
C2340 N2338 1.356 . S
C2341 C2335 1.363 . S
C2341 C2336 1.379 . S
C2341 N2339 1.356 . S
N2342 C2334 1.356 . S
N2342 H2348 0.984 . S
N2342 H2349 0.984 1_554 S
N2343 C2336 1.358 . S
N2343 H2346 0.965 1_556 S
N2343 H2347 1.004 . S
H2344 N2339 0.984 . S
H2345 N2339 0.985 . S
H2346 N2343 0.965 1_554 S
H2347 N2343 1.004 . S
H2348 N2342 0.984 . S
H2349 N2342 0.984 1_556 S
H2350 N2338 0.984 . S
H2351 N2338 0.985 . S
C2352 C2353 1.363 1_554 S
C2352 C2358 1.379 . S
C2352 N2360 1.356 . S
C2353 C2352 1.363 1_556 S
C2353 C2359 1.363 . S
C2354 C2355 1.363 1_556 S
C2354 C2359 1.379 . S
C2354 N2361 1.356 . S
C2355 C2354 1.363 1_554 S
C2355 C2358 1.363 . S
N2356 C2358 1.356 . S
N2356 H2368 0.984 . S
N2356 H2369 0.985 . S
N2357 C2359 1.356 . S
N2357 H2362 0.984 . S
N2357 H2363 0.985 . S
C2358 C2352 1.379 . S
C2358 C2355 1.363 . S
C2358 N2356 1.356 . S
C2359 C2353 1.363 . S
C2359 C2354 1.379 . S
C2359 N2357 1.356 . S
N2360 C2352 1.356 . S
N2360 H2366 0.984 . S
N2360 H2367 0.984 . S
N2361 C2354 1.356 . S
N2361 H2364 0.984 . S
N2361 H2365 0.985 . S
H2362 N2357 0.984 . S
H2363 N2357 0.985 . S
H2364 N2361 0.984 . S
H2365 N2361 0.985 . S
H2366 N2360 0.984 . S
H2367 N2360 0.984 . S
H2368 N2356 0.984 . S
H2369 N2356 0.985 . S
C2370 C2371 1.363 . S
C2370 C2376 1.379 . S
C2370 N2378 1.356 . S
C2371 C2370 1.363 . S
C2371 C2377 1.363 . S
C2372 C2373 1.363 . S
C2372 C2377 1.379 . S
C2372 N2379 1.356 . S
C2373 C2372 1.363 . S
C2373 C2376 1.363 . S
N2374 C2376 1.356 . S
N2374 H2386 0.984 . S
N2374 H2387 0.985 . S
N2375 C2377 1.356 . S
N2375 H2380 0.984 . S
N2375 H2381 0.985 . S
C2376 C2370 1.379 . S
C2376 C2373 1.363 . S
C2376 N2374 1.356 . S
C2377 C2371 1.363 . S
C2377 C2372 1.379 . S
C2377 N2375 1.356 . S
N2378 C2370 1.356 . S
N2378 H2384 0.984 . S
N2378 H2385 0.984 . S
N2379 C2372 1.356 . S
N2379 H2382 0.984 . S
N2379 H2383 0.985 . S
H2380 N2375 0.984 . S
H2381 N2375 0.985 . S
H2382 N2379 0.984 . S
H2383 N2379 0.985 . S
H2384 N2378 0.984 . S
H2385 N2378 0.984 . S
H2386 N2374 0.984 . S
H2387 N2374 0.985 . S
C2388 C2389 1.363 . S
C2388 C2394 1.379 . S
C2388 N2396 1.356 . S
C2389 C2388 1.363 . S
C2389 C2395 1.363 . S
C2390 C2391 1.363 . S
C2390 C2395 1.379 . S
C2390 N2397 1.356 . S
C2391 C2390 1.363 . S
C2391 C2394 1.363 . S
N2392 C2394 1.356 . S
N2392 H2404 0.984 . S
N2392 H2405 0.985 . S
N2393 C2395 1.356 . S
N2393 H2398 0.984 . S
N2393 H2399 0.985 . S
C2394 C2388 1.379 . S
C2394 C2391 1.363 . S
C2394 N2392 1.356 . S
C2395 C2389 1.363 . S
C2395 C2390 1.379 . S
C2395 N2393 1.356 . S
N2396 C2388 1.356 . S
N2396 H2402 0.984 . S
N2396 H2403 0.984 . S
N2397 C2390 1.356 . S
N2397 H2400 0.984 . S
N2397 H2401 0.985 . S
H2398 N2393 0.984 . S
H2399 N2393 0.985 . S
H2400 N2397 0.984 . S
H2401 N2397 0.985 . S
H2402 N2396 0.984 . S
H2403 N2396 0.984 . S
H2404 N2392 0.984 . S
H2405 N2392 0.985 . S
C2406 C2407 1.363 . S
C2406 C2412 1.379 1_655 S
C2406 N2414 1.356 . S
C2407 C2406 1.363 . S
C2407 C2413 1.363 1_655 S
C2408 C2409 1.363 . S
C2408 C2413 1.379 . S
C2408 N2415 1.356 . S
C2409 C2408 1.363 . S
C2409 C2412 1.363 . S
N2410 C2412 1.356 . S
N2410 H2422 0.984 . S
N2410 H2423 0.985 . S
N2411 C2413 1.356 . S
N2411 H2416 0.984 1_455 S
N2411 H2417 0.985 . S
C2412 C2406 1.379 1_455 S
C2412 C2409 1.363 . S
C2412 N2410 1.356 . S
C2413 C2407 1.363 1_455 S
C2413 C2408 1.379 . S
C2413 N2411 1.356 . S
N2414 C2406 1.356 . S
N2414 H2420 0.984 . S
N2414 H2421 0.984 . S
N2415 C2408 1.356 . S
N2415 H2418 0.984 . S
N2415 H2419 0.985 . S
H2416 N2411 0.984 1_655 S
H2417 N2411 0.985 . S
H2418 N2415 0.984 . S
H2419 N2415 0.985 . S
H2420 N2414 0.984 . S
H2421 N2414 0.984 . S
H2422 N2410 0.984 . S
H2423 N2410 0.985 . S
C2424 C2425 1.363 . S
C2424 C2430 1.379 . S
C2424 N2432 1.356 . S
C2425 C2424 1.363 . S
C2425 C2431 1.363 . S
C2426 C2427 1.363 . S
C2426 C2431 1.379 . S
C2426 N2433 1.356 . S
C2427 C2426 1.363 . S
C2427 C2430 1.363 . S
N2428 C2430 1.356 . S
N2428 H2440 0.984 . S
N2428 H2441 0.985 . S
N2429 C2431 1.367 . S
N2429 H2434 0.981 1_655 S
N2429 H2435 0.977 1_655 S
C2430 C2424 1.379 . S
C2430 C2427 1.363 . S
C2430 N2428 1.356 . S
C2431 C2425 1.363 . S
C2431 C2426 1.379 . S
C2431 N2429 1.367 . S
N2432 C2424 1.356 . S
N2432 H2438 0.984 . S
N2432 H2439 0.984 . S
N2433 C2426 1.356 . S
N2433 H2436 0.984 . S
N2433 H2437 0.985 . S
H2434 N2429 0.981 1_455 S
H2435 N2429 0.977 1_455 S
H2436 N2433 0.984 . S
H2437 N2433 0.985 . S
H2438 N2432 0.984 . S
H2439 N2432 0.984 . S
H2440 N2428 0.984 . S
H2441 N2428 0.985 . S
C2442 C2443 1.363 . S
C2442 C2448 1.379 . S
C2442 N2450 1.356 . S
C2443 C2442 1.363 . S
C2443 C2449 1.363 . S
C2444 C2445 1.363 . S
C2444 C2449 1.379 . S
C2444 N2451 1.356 . S
C2445 C2444 1.363 . S
C2445 C2448 1.363 . S
N2446 C2448 1.356 . S
N2446 H2458 0.984 . S
N2446 H2459 0.985 . S
N2447 C2449 1.356 . S
N2447 H2452 0.984 . S
N2447 H2453 0.985 . S
C2448 C2442 1.379 . S
C2448 C2445 1.363 . S
C2448 N2446 1.356 . S
C2449 C2443 1.363 . S
C2449 C2444 1.379 . S
C2449 N2447 1.356 . S
N2450 C2442 1.356 . S
N2450 H2456 0.984 . S
N2450 H2457 0.984 . S
N2451 C2444 1.356 . S
N2451 H2454 0.984 . S
N2451 H2455 0.985 . S
H2452 N2447 0.984 . S
H2453 N2447 0.985 . S
H2454 N2451 0.984 . S
H2455 N2451 0.985 . S
H2456 N2450 0.984 . S
H2457 N2450 0.984 . S
H2458 N2446 0.984 . S
H2459 N2446 0.985 . S
C2460 C2461 1.363 . S
C2460 C2466 1.379 . S
C2460 N2468 1.356 . S
C2461 C2460 1.363 . S
C2461 C2467 1.363 . S
C2462 C2463 1.363 . S
C2462 C2467 1.379 . S
C2462 N2469 1.356 . S
C2463 C2462 1.363 . S
C2463 C2466 1.363 . S
N2464 C2466 1.356 . S
N2464 H2476 0.984 . S
N2464 H2477 0.985 . S
N2465 C2467 1.356 . S
N2465 H2470 0.984 . S
N2465 H2471 0.985 . S
C2466 C2460 1.379 . S
C2466 C2463 1.363 . S
C2466 N2464 1.356 . S
C2467 C2461 1.363 . S
C2467 C2462 1.379 . S
C2467 N2465 1.356 . S
N2468 C2460 1.356 . S
N2468 H2474 0.984 . S
N2468 H2475 0.984 . S
N2469 C2462 1.356 . S
N2469 H2472 0.984 . S
N2469 H2473 0.985 . S
H2470 N2465 0.984 . S
H2471 N2465 0.985 . S
H2472 N2469 0.984 . S
H2473 N2469 0.985 . S
H2474 N2468 0.984 . S
H2475 N2468 0.984 . S
H2476 N2464 0.984 . S
H2477 N2464 0.985 . S
C2478 C2479 1.363 . S
C2478 C2484 1.379 . S
C2478 N2486 1.360 . S
C2479 C2478 1.363 . S
C2479 C2485 1.363 . S
C2480 C2481 1.363 . S
C2480 C2485 1.379 . S
C2480 N2487 1.356 . S
C2481 C2480 1.363 . S
C2481 C2484 1.363 . S
N2482 C2484 1.356 1_554 S
N2482 H2494 0.984 . S
N2482 H2495 0.985 . S
N2483 C2485 1.356 . S
N2483 H2488 0.984 . S
N2483 H2489 0.985 . S
C2484 C2478 1.379 . S
C2484 C2481 1.363 . S
C2484 N2482 1.356 1_556 S
C2485 C2479 1.363 . S
C2485 C2480 1.379 . S
C2485 N2483 1.356 . S
N2486 C2478 1.360 . S
N2486 H2492 0.976 1_556 S
N2486 H2493 0.989 . S
N2487 C2480 1.356 . S
N2487 H2490 0.984 . S
N2487 H2491 0.985 . S
H2488 N2483 0.984 . S
H2489 N2483 0.985 . S
H2490 N2487 0.984 . S
H2491 N2487 0.985 . S
H2492 N2486 0.976 1_554 S
H2493 N2486 0.989 . S
H2494 N2482 0.984 . S
H2495 N2482 0.985 . S
C2496 C2497 1.341 1_655 S
C2496 C2502 1.379 . S
C2496 N2504 1.356 . S
C2497 C2496 1.341 1_455 S
C2497 C2503 1.372 . S
C2498 C2499 1.363 . S
C2498 C2503 1.379 1_655 S
C2498 N2505 1.356 . S
C2499 C2498 1.363 . S
C2499 C2502 1.363 . S
N2500 C2502 1.356 . S
N2500 H2512 0.984 . S
N2500 H2513 0.985 . S
N2501 C2503 1.356 . S
N2501 H2506 0.984 . S
N2501 H2507 0.985 . S
C2502 C2496 1.379 . S
C2502 C2499 1.363 . S
C2502 N2500 1.356 . S
C2503 C2497 1.372 . S
C2503 C2498 1.379 1_455 S
C2503 N2501 1.356 . S
N2504 C2496 1.356 . S
N2504 H2510 0.984 . S
N2504 H2511 0.984 . S
N2505 C2498 1.356 . S
N2505 H2508 0.984 . S
N2505 H2509 0.985 1_655 S
H2506 N2501 0.984 . S
H2507 N2501 0.985 . S
H2508 N2505 0.984 . S
H2509 N2505 0.985 1_455 S
H2510 N2504 0.984 . S
H2511 N2504 0.984 . S
H2512 N2500 0.984 . S
H2513 N2500 0.985 . S
C2514 C2515 1.363 . S
C2514 C2520 1.379 . S
C2514 N2522 1.356 . S
C2515 C2514 1.363 . S
C2515 C2521 1.363 . S
C2516 C2517 1.363 . S
C2516 C2521 1.379 . S
C2516 N2523 1.356 . S
C2517 C2516 1.363 . S
C2517 C2520 1.363 . S
N2518 C2520 1.356 . S
N2518 H2530 0.984 . S
N2518 H2531 0.985 . S
N2519 C2521 1.356 . S
N2519 H2524 0.984 . S
N2519 H2525 0.985 . S
C2520 C2514 1.379 . S
C2520 C2517 1.363 . S
C2520 N2518 1.356 . S
C2521 C2515 1.363 . S
C2521 C2516 1.379 . S
C2521 N2519 1.356 . S
N2522 C2514 1.356 . S
N2522 H2528 0.984 . S
N2522 H2529 0.984 . S
N2523 C2516 1.356 . S
N2523 H2526 0.984 . S
N2523 H2527 0.985 . S
H2524 N2519 0.984 . S
H2525 N2519 0.985 . S
H2526 N2523 0.984 . S
H2527 N2523 0.985 . S
H2528 N2522 0.984 . S
H2529 N2522 0.984 . S
H2530 N2518 0.984 . S
H2531 N2518 0.985 . S
C2532 C2533 1.363 . S
C2532 C2538 1.379 . S
C2532 N2540 1.356 . S
C2533 C2532 1.363 . S
C2533 C2539 1.363 . S
C2534 C2535 1.363 . S
C2534 C2539 1.379 . S
C2534 N2541 1.356 . S
C2535 C2534 1.363 . S
C2535 C2538 1.363 . S
N2536 C2538 1.356 . S
N2536 H2548 0.984 . S
N2536 H2549 0.985 . S
N2537 C2539 1.356 . S
N2537 H2542 0.984 . S
N2537 H2543 0.985 . S
C2538 C2532 1.379 . S
C2538 C2535 1.363 . S
C2538 N2536 1.356 . S
C2539 C2533 1.363 . S
C2539 C2534 1.379 . S
C2539 N2537 1.356 . S
N2540 C2532 1.356 . S
N2540 H2546 0.984 . S
N2540 H2547 0.984 . S
N2541 C2534 1.356 . S
N2541 H2544 0.984 . S
N2541 H2545 0.985 . S
H2542 N2537 0.984 . S
H2543 N2537 0.985 . S
H2544 N2541 0.984 . S
H2545 N2541 0.985 . S
H2546 N2540 0.984 . S
H2547 N2540 0.984 . S
H2548 N2536 0.984 . S
H2549 N2536 0.985 . S
C2550 C2551 1.363 . S
C2550 C2556 1.379 . S
C2550 N2558 1.356 . S
C2551 C2550 1.363 . S
C2551 C2557 1.363 . S
C2552 C2553 1.363 . S
C2552 C2557 1.379 . S
C2552 N2559 1.356 . S
C2553 C2552 1.363 . S
C2553 C2556 1.363 . S
N2554 C2556 1.356 . S
N2554 H2566 0.984 . S
N2554 H2567 0.985 . S
N2555 C2557 1.356 . S
N2555 H2560 0.984 . S
N2555 H2561 0.985 . S
C2556 C2550 1.379 . S
C2556 C2553 1.363 . S
C2556 N2554 1.356 . S
C2557 C2551 1.363 . S
C2557 C2552 1.379 . S
C2557 N2555 1.356 . S
N2558 C2550 1.356 . S
N2558 H2564 0.984 . S
N2558 H2565 0.984 . S
N2559 C2552 1.356 . S
N2559 H2562 0.984 . S
N2559 H2563 0.985 . S
H2560 N2555 0.984 . S
H2561 N2555 0.985 . S
H2562 N2559 0.984 . S
H2563 N2559 0.985 . S
H2564 N2558 0.984 . S
H2565 N2558 0.984 . S
H2566 N2554 0.984 . S
H2567 N2554 0.985 . S
C2568 C2569 1.363 . S
C2568 C2574 1.379 . S
C2568 N2576 1.356 . S
C2569 C2568 1.363 . S
C2569 C2575 1.363 . S
C2570 C2571 1.363 . S
C2570 C2575 1.379 . S
C2570 N2577 1.356 . S
C2571 C2570 1.363 . S
C2571 C2574 1.363 . S
N2572 C2574 1.356 . S
N2572 H2584 0.984 . S
N2572 H2585 0.985 . S
N2573 C2575 1.356 . S
N2573 H2578 0.984 . S
N2573 H2579 0.985 . S
C2574 C2568 1.379 . S
C2574 C2571 1.363 . S
C2574 N2572 1.356 . S
C2575 C2569 1.363 . S
C2575 C2570 1.379 . S
C2575 N2573 1.356 . S
N2576 C2568 1.356 . S
N2576 H2582 0.984 . S
N2576 H2583 0.984 . S
N2577 C2570 1.356 . S
N2577 H2580 0.984 . S
N2577 H2581 0.985 . S
H2578 N2573 0.984 . S
H2579 N2573 0.985 . S
H2580 N2577 0.984 . S
H2581 N2577 0.985 . S
H2582 N2576 0.984 . S
H2583 N2576 0.984 . S
H2584 N2572 0.984 . S
H2585 N2572 0.985 . S
C2586 C2587 1.363 . S
C2586 C2592 1.379 . S
C2586 N2594 1.356 . S
C2587 C2586 1.363 . S
C2587 C2593 1.363 . S
C2588 C2589 1.363 . S
C2588 C2593 1.379 . S
C2588 N2595 1.356 . S
C2589 C2588 1.363 . S
C2589 C2592 1.363 . S
N2590 C2592 1.356 . S
N2590 H2602 0.984 . S
N2590 H2603 0.985 . S
N2591 C2593 1.356 . S
N2591 H2596 0.984 . S
N2591 H2597 0.985 . S
C2592 C2586 1.379 . S
C2592 C2589 1.363 . S
C2592 N2590 1.356 . S
C2593 C2587 1.363 . S
C2593 C2588 1.379 . S
C2593 N2591 1.356 . S
N2594 C2586 1.356 . S
N2594 H2600 0.984 . S
N2594 H2601 0.984 . S
N2595 C2588 1.356 . S
N2595 H2598 0.984 . S
N2595 H2599 0.985 . S
H2596 N2591 0.984 . S
H2597 N2591 0.985 . S
H2598 N2595 0.984 . S
H2599 N2595 0.985 . S
H2600 N2594 0.984 . S
H2601 N2594 0.984 . S
H2602 N2590 0.984 . S
H2603 N2590 0.985 . S
C2604 C2605 1.363 . S
C2604 C2610 1.379 . S
C2604 N2612 1.356 . S
C2605 C2604 1.363 . S
C2605 C2611 1.363 . S
C2606 C2607 1.363 . S
C2606 C2611 1.379 . S
C2606 N2613 1.356 . S
C2607 C2606 1.363 . S
C2607 C2610 1.363 . S
N2608 C2610 1.356 . S
N2608 H2620 0.984 . S
N2608 H2621 0.985 . S
N2609 C2611 1.356 . S
N2609 H2614 0.984 . S
N2609 H2615 0.985 . S
C2610 C2604 1.379 . S
C2610 C2607 1.363 . S
C2610 N2608 1.356 . S
C2611 C2605 1.363 . S
C2611 C2606 1.379 . S
C2611 N2609 1.356 . S
N2612 C2604 1.356 . S
N2612 H2618 0.984 . S
N2612 H2619 0.984 . S
N2613 C2606 1.356 . S
N2613 H2616 0.984 . S
N2613 H2617 0.985 . S
H2614 N2609 0.984 . S
H2615 N2609 0.985 . S
H2616 N2613 0.984 . S
H2617 N2613 0.985 . S
H2618 N2612 0.984 . S
H2619 N2612 0.984 . S
H2620 N2608 0.984 . S
H2621 N2608 0.985 . S
C2622 C2623 1.363 . S
C2622 C2628 1.379 . S
C2622 N2630 1.356 . S
C2623 C2622 1.363 . S
C2623 C2629 1.363 . S
C2624 C2625 1.363 . S
C2624 C2629 1.379 . S
C2624 N2631 1.356 . S
C2625 C2624 1.363 . S
C2625 C2628 1.363 . S
N2626 C2628 1.356 . S
N2626 H2638 0.984 . S
N2626 H2639 0.985 . S
N2627 C2629 1.356 . S
N2627 H2632 0.984 . S
N2627 H2633 0.985 . S
C2628 C2622 1.379 . S
C2628 C2625 1.363 . S
C2628 N2626 1.356 . S
C2629 C2623 1.363 . S
C2629 C2624 1.379 . S
C2629 N2627 1.356 . S
N2630 C2622 1.356 . S
N2630 H2636 0.984 . S
N2630 H2637 0.984 . S
N2631 C2624 1.356 . S
N2631 H2634 0.984 . S
N2631 H2635 0.985 . S
H2632 N2627 0.984 . S
H2633 N2627 0.985 . S
H2634 N2631 0.984 . S
H2635 N2631 0.985 . S
H2636 N2630 0.984 . S
H2637 N2630 0.984 . S
H2638 N2626 0.984 . S
H2639 N2626 0.985 . S
C2640 C2641 1.363 . S
C2640 C2646 1.379 . S
C2640 N2648 1.356 . S
C2641 C2640 1.363 . S
C2641 C2647 1.363 . S
C2642 C2643 1.363 . S
C2642 C2647 1.379 . S
C2642 N2649 1.356 . S
C2643 C2642 1.363 . S
C2643 C2646 1.363 . S
N2644 C2646 1.356 . S
N2644 H2656 0.984 . S
N2644 H2657 0.985 . S
N2645 C2647 1.356 . S
N2645 H2650 0.984 . S
N2645 H2651 0.985 1_554 S
C2646 C2640 1.379 . S
C2646 C2643 1.363 . S
C2646 N2644 1.356 . S
C2647 C2641 1.363 . S
C2647 C2642 1.379 . S
C2647 N2645 1.356 . S
N2648 C2640 1.356 . S
N2648 H2654 0.984 . S
N2648 H2655 0.984 . S
N2649 C2642 1.356 . S
N2649 H2652 0.984 . S
N2649 H2653 0.985 1_554 S
H2650 N2645 0.984 . S
H2651 N2645 0.985 1_556 S
H2652 N2649 0.984 . S
H2653 N2649 0.985 1_556 S
H2654 N2648 0.984 . S
H2655 N2648 0.984 . S
H2656 N2644 0.984 . S
H2657 N2644 0.985 . S
C2658 C2659 1.363 . S
C2658 C2664 1.379 . S
C2658 N2666 1.356 . S
C2659 C2658 1.363 . S
C2659 C2665 1.337 1_455 S
C2660 C2661 1.363 1_655 S
C2660 C2665 1.388 . S
C2660 N2667 1.356 . S
C2661 C2660 1.363 1_455 S
C2661 C2664 1.363 . S
N2662 C2664 1.356 . S
N2662 H2674 0.984 . S
N2662 H2675 0.985 . S
N2663 C2665 1.368 . S
N2663 H2668 0.988 . S
N2663 H2669 0.985 . S
C2664 C2658 1.379 . S
C2664 C2661 1.363 . S
C2664 N2662 1.356 . S
C2665 C2659 1.337 1_655 S
C2665 C2660 1.388 . S
C2665 N2663 1.368 . S
N2666 C2658 1.356 . S
N2666 H2672 0.984 . S
N2666 H2673 0.984 . S
N2667 C2660 1.356 . S
N2667 H2670 0.984 . S
N2667 H2671 0.985 . S
H2668 N2663 0.988 . S
H2669 N2663 0.985 . S
H2670 N2667 0.984 . S
H2671 N2667 0.985 . S
H2672 N2666 0.984 . S
H2673 N2666 0.984 . S
H2674 N2662 0.984 . S
H2675 N2662 0.985 . S
C2676 C2677 1.363 . S
C2676 C2682 1.379 . S
C2676 N2684 1.356 . S
C2677 C2676 1.363 . S
C2677 C2683 1.363 . S
C2678 C2679 1.363 . S
C2678 C2683 1.379 . S
C2678 N2685 1.356 . S
C2679 C2678 1.363 . S
C2679 C2682 1.363 . S
N2680 C2682 1.356 . S
N2680 H2692 0.984 . S
N2680 H2693 0.985 . S
N2681 C2683 1.356 . S
N2681 H2686 0.984 . S
N2681 H2687 0.985 . S
C2682 C2676 1.379 . S
C2682 C2679 1.363 . S
C2682 N2680 1.356 . S
C2683 C2677 1.363 . S
C2683 C2678 1.379 . S
C2683 N2681 1.356 . S
N2684 C2676 1.356 . S
N2684 H2690 0.984 . S
N2684 H2691 0.984 . S
N2685 C2678 1.356 . S
N2685 H2688 0.984 . S
N2685 H2689 0.985 . S
H2686 N2681 0.984 . S
H2687 N2681 0.985 . S
H2688 N2685 0.984 . S
H2689 N2685 0.985 . S
H2690 N2684 0.984 . S
H2691 N2684 0.984 . S
H2692 N2680 0.984 . S
H2693 N2680 0.985 . S
C2694 C2695 1.363 . S
C2694 C2700 1.379 . S
C2694 N2702 1.356 . S
C2695 C2694 1.363 . S
C2695 C2701 1.363 . S
C2696 C2697 1.363 . S
C2696 C2701 1.379 . S
C2696 N2703 1.356 . S
C2697 C2696 1.363 . S
C2697 C2700 1.363 . S
N2698 C2700 1.356 . S
N2698 H2710 0.984 . S
N2698 H2711 0.985 . S
N2699 C2701 1.392 . S
N2699 H2704 0.955 1_556 S
N2699 H2705 0.980 1_556 S
C2700 C2694 1.379 . S
C2700 C2697 1.363 . S
C2700 N2698 1.356 . S
C2701 C2695 1.363 . S
C2701 C2696 1.379 . S
C2701 N2699 1.392 . S
N2702 C2694 1.356 . S
N2702 H2708 0.984 . S
N2702 H2709 0.984 . S
N2703 C2696 1.356 . S
N2703 H2706 0.984 . S
N2703 H2707 0.985 . S
H2704 N2699 0.955 1_554 S
H2705 N2699 0.980 1_554 S
H2706 N2703 0.984 . S
H2707 N2703 0.985 . S
H2708 N2702 0.984 . S
H2709 N2702 0.984 . S
H2710 N2698 0.984 . S
H2711 N2698 0.985 . S
C2712 C2713 1.363 . S
C2712 C2718 1.379 . S
C2712 N2720 1.356 . S
C2713 C2712 1.363 . S
C2713 C2719 1.363 . S
C2714 C2715 1.363 . S
C2714 C2719 1.379 . S
C2714 N2721 1.356 . S
C2715 C2714 1.363 . S
C2715 C2718 1.363 . S
N2716 C2718 1.356 . S
N2716 H2728 0.984 . S
N2716 H2729 0.985 . S
N2717 C2719 1.356 . S
N2717 H2722 0.984 . S
N2717 H2723 0.985 . S
C2718 C2712 1.379 . S
C2718 C2715 1.363 . S
C2718 N2716 1.356 . S
C2719 C2713 1.363 . S
C2719 C2714 1.379 . S
C2719 N2717 1.356 . S
N2720 C2712 1.356 . S
N2720 H2726 0.984 . S
N2720 H2727 0.984 . S
N2721 C2714 1.356 . S
N2721 H2724 0.984 . S
N2721 H2725 0.985 . S
H2722 N2717 0.984 . S
H2723 N2717 0.985 . S
H2724 N2721 0.984 . S
H2725 N2721 0.985 . S
H2726 N2720 0.984 . S
H2727 N2720 0.984 . S
H2728 N2716 0.984 . S
H2729 N2716 0.985 . S
C2730 C2731 1.363 . S
C2730 C2736 1.379 . S
C2730 N2738 1.356 . S
C2731 C2730 1.363 . S
C2731 C2737 1.363 . S
C2732 C2733 1.363 . S
C2732 C2737 1.379 . S
C2732 N2739 1.356 . S
C2733 C2732 1.363 . S
C2733 C2736 1.363 . S
N2734 C2736 1.356 . S
N2734 H2746 0.984 . S
N2734 H2747 0.985 . S
N2735 C2737 1.356 . S
N2735 H2740 0.984 . S
N2735 H2741 0.985 . S
C2736 C2730 1.379 . S
C2736 C2733 1.363 . S
C2736 N2734 1.356 . S
C2737 C2731 1.363 . S
C2737 C2732 1.379 . S
C2737 N2735 1.356 . S
N2738 C2730 1.356 . S
N2738 H2744 0.984 . S
N2738 H2745 0.984 . S
N2739 C2732 1.356 . S
N2739 H2742 0.984 . S
N2739 H2743 0.985 . S
H2740 N2735 0.984 . S
H2741 N2735 0.985 . S
H2742 N2739 0.984 . S
H2743 N2739 0.985 . S
H2744 N2738 0.984 . S
H2745 N2738 0.984 . S
H2746 N2734 0.984 . S
H2747 N2734 0.985 . S
C2748 C2749 1.363 . S
C2748 C2754 1.379 . S
C2748 N2756 1.356 . S
C2749 C2748 1.363 . S
C2749 C2755 1.363 . S
C2750 C2751 1.363 . S
C2750 C2755 1.379 . S
C2750 N2757 1.356 . S
C2751 C2750 1.363 . S
C2751 C2754 1.363 . S
N2752 C2754 1.356 . S
N2752 H2764 0.984 . S
N2752 H2765 0.985 . S
N2753 C2755 1.356 . S
N2753 H2758 0.984 . S
N2753 H2759 0.985 . S
C2754 C2748 1.379 . S
C2754 C2751 1.363 . S
C2754 N2752 1.356 . S
C2755 C2749 1.363 . S
C2755 C2750 1.379 . S
C2755 N2753 1.356 . S
N2756 C2748 1.356 . S
N2756 H2762 0.984 . S
N2756 H2763 0.984 . S
N2757 C2750 1.356 . S
N2757 H2760 0.984 . S
N2757 H2761 0.985 . S
H2758 N2753 0.984 . S
H2759 N2753 0.985 . S
H2760 N2757 0.984 . S
H2761 N2757 0.985 . S
H2762 N2756 0.984 . S
H2763 N2756 0.984 . S
H2764 N2752 0.984 . S
H2765 N2752 0.985 . S
C2766 C2767 1.363 . S
C2766 C2772 1.379 . S
C2766 N2774 1.356 . S
C2767 C2766 1.363 . S
C2767 C2773 1.363 . S
C2768 C2769 1.363 . S
C2768 C2773 1.379 . S
C2768 N2775 1.356 . S
C2769 C2768 1.363 . S
C2769 C2772 1.363 . S
N2770 C2772 1.356 . S
N2770 H2782 0.984 . S
N2770 H2783 0.985 . S
N2771 C2773 1.356 . S
N2771 H2776 0.984 . S
N2771 H2777 0.985 . S
C2772 C2766 1.379 . S
C2772 C2769 1.363 . S
C2772 N2770 1.356 . S
C2773 C2767 1.363 . S
C2773 C2768 1.379 . S
C2773 N2771 1.356 . S
N2774 C2766 1.356 . S
N2774 H2780 0.984 . S
N2774 H2781 0.984 . S
N2775 C2768 1.356 . S
N2775 H2778 0.984 . S
N2775 H2779 0.985 . S
H2776 N2771 0.984 . S
H2777 N2771 0.985 . S
H2778 N2775 0.984 . S
H2779 N2775 0.985 . S
H2780 N2774 0.984 . S
H2781 N2774 0.984 . S
H2782 N2770 0.984 . S
H2783 N2770 0.985 . S
C2784 C2785 1.363 . S
C2784 C2790 1.379 . S
C2784 N2792 1.356 . S
C2785 C2784 1.363 . S
C2785 C2791 1.363 . S
C2786 C2787 1.363 . S
C2786 C2791 1.379 . S
C2786 N2793 1.356 . S
C2787 C2786 1.363 . S
C2787 C2790 1.363 . S
N2788 C2790 1.356 . S
N2788 H2800 0.984 . S
N2788 H2801 0.985 . S
N2789 C2791 1.356 . S
N2789 H2794 0.984 . S
N2789 H2795 0.985 . S
C2790 C2784 1.379 . S
C2790 C2787 1.363 . S
C2790 N2788 1.356 . S
C2791 C2785 1.363 . S
C2791 C2786 1.379 . S
C2791 N2789 1.356 . S
N2792 C2784 1.356 . S
N2792 H2798 0.984 . S
N2792 H2799 0.984 . S
N2793 C2786 1.356 . S
N2793 H2796 0.984 . S
N2793 H2797 0.985 . S
H2794 N2789 0.984 . S
H2795 N2789 0.985 . S
H2796 N2793 0.984 . S
H2797 N2793 0.985 . S
H2798 N2792 0.984 . S
H2799 N2792 0.984 . S
H2800 N2788 0.984 . S
H2801 N2788 0.985 . S
C2802 C2803 1.363 . S
C2802 C2808 1.379 . S
C2802 N2810 1.356 . S
C2803 C2802 1.363 . S
C2803 C2809 1.363 . S
C2804 C2805 1.363 . S
C2804 C2809 1.379 . S
C2804 N2811 1.356 1_655 S
C2805 C2804 1.363 . S
C2805 C2808 1.363 . S
N2806 C2808 1.356 . S
N2806 H2818 0.984 . S
N2806 H2819 0.985 . S
N2807 C2809 1.356 1_455 S
N2807 H2812 0.984 . S
N2807 H2813 0.985 . S
C2808 C2802 1.379 . S
C2808 C2805 1.363 . S
C2808 N2806 1.356 . S
C2809 C2803 1.363 . S
C2809 C2804 1.379 . S
C2809 N2807 1.356 1_655 S
N2810 C2802 1.356 . S
N2810 H2816 0.984 . S
N2810 H2817 0.984 . S
N2811 C2804 1.356 1_455 S
N2811 H2814 0.984 1_455 S
N2811 H2815 0.985 . S
H2812 N2807 0.984 . S
H2813 N2807 0.985 . S
H2814 N2811 0.984 1_655 S
H2815 N2811 0.985 . S
H2816 N2810 0.984 . S
H2817 N2810 0.984 . S
H2818 N2806 0.984 . S
H2819 N2806 0.985 . S
C2820 C2821 1.363 . S
C2820 C2826 1.379 . S
C2820 N2828 1.356 . S
C2821 C2820 1.363 . S
C2821 C2827 1.363 . S
C2822 C2823 1.363 . S
C2822 C2827 1.379 . S
C2822 N2829 1.356 . S
C2823 C2822 1.363 . S
C2823 C2826 1.363 . S
N2824 C2826 1.356 . S
N2824 H2836 0.984 . S
N2824 H2837 0.985 . S
N2825 C2827 1.356 . S
N2825 H2830 0.984 . S
N2825 H2831 0.985 . S
C2826 C2820 1.379 . S
C2826 C2823 1.363 . S
C2826 N2824 1.356 . S
C2827 C2821 1.363 . S
C2827 C2822 1.379 . S
C2827 N2825 1.356 . S
N2828 C2820 1.356 . S
N2828 H2834 0.984 . S
N2828 H2835 0.984 . S
N2829 C2822 1.356 . S
N2829 H2832 0.984 . S
N2829 H2833 0.985 . S
H2830 N2825 0.984 . S
H2831 N2825 0.985 . S
H2832 N2829 0.984 . S
H2833 N2829 0.985 . S
H2834 N2828 0.984 . S
H2835 N2828 0.984 . S
H2836 N2824 0.984 . S
H2837 N2824 0.985 . S
C2838 C2839 1.363 . S
C2838 C2844 1.379 . S
C2838 N2846 1.356 . S
C2839 C2838 1.363 . S
C2839 C2845 1.363 . S
C2840 C2841 1.363 . S
C2840 C2845 1.379 . S
C2840 N2847 1.356 . S
C2841 C2840 1.363 . S
C2841 C2844 1.363 . S
N2842 C2844 1.356 . S
N2842 H2854 0.984 . S
N2842 H2855 0.985 . S
N2843 C2845 1.356 . S
N2843 H2848 0.984 . S
N2843 H2849 0.985 . S
C2844 C2838 1.379 . S
C2844 C2841 1.363 . S
C2844 N2842 1.356 . S
C2845 C2839 1.363 . S
C2845 C2840 1.379 . S
C2845 N2843 1.356 . S
N2846 C2838 1.356 . S
N2846 H2852 0.984 . S
N2846 H2853 0.984 . S
N2847 C2840 1.356 . S
N2847 H2850 0.984 . S
N2847 H2851 0.985 . S
H2848 N2843 0.984 . S
H2849 N2843 0.985 . S
H2850 N2847 0.984 . S
H2851 N2847 0.985 . S
H2852 N2846 0.984 . S
H2853 N2846 0.984 . S
H2854 N2842 0.984 . S
H2855 N2842 0.985 . S
C2856 C2857 1.363 . S
C2856 C2862 1.379 . S
C2856 N2864 1.356 . S
C2857 C2856 1.363 . S
C2857 C2863 1.363 . S
C2858 C2859 1.363 . S
C2858 C2863 1.379 . S
C2858 N2865 1.356 . S
C2859 C2858 1.363 . S
C2859 C2862 1.363 . S
N2860 C2862 1.356 . S
N2860 H2872 0.984 . S
N2860 H2873 0.985 . S
N2861 C2863 1.356 . S
N2861 H2866 0.984 . S
N2861 H2867 0.985 . S
C2862 C2856 1.379 . S
C2862 C2859 1.363 . S
C2862 N2860 1.356 . S
C2863 C2857 1.363 . S
C2863 C2858 1.379 . S
C2863 N2861 1.356 . S
N2864 C2856 1.356 . S
N2864 H2870 0.984 . S
N2864 H2871 0.984 . S
N2865 C2858 1.356 . S
N2865 H2868 0.984 . S
N2865 H2869 0.985 . S
H2866 N2861 0.984 . S
H2867 N2861 0.985 . S
H2868 N2865 0.984 . S
H2869 N2865 0.985 . S
H2870 N2864 0.984 . S
H2871 N2864 0.984 . S
H2872 N2860 0.984 . S
H2873 N2860 0.985 . S
C2874 C2875 1.363 . S
C2874 C2880 1.379 . S
C2874 N2882 1.356 . S
C2875 C2874 1.363 . S
C2875 C2881 1.363 . S
C2876 C2877 1.363 . S
C2876 C2881 1.379 . S
C2876 N2883 1.356 . S
C2877 C2876 1.363 . S
C2877 C2880 1.363 . S
N2878 C2880 1.356 . S
N2878 H2890 0.984 . S
N2878 H2891 0.985 . S
N2879 C2881 1.356 . S
N2879 H2884 0.984 . S
N2879 H2885 0.985 . S
C2880 C2874 1.379 . S
C2880 C2877 1.363 . S
C2880 N2878 1.356 . S
C2881 C2875 1.363 . S
C2881 C2876 1.379 . S
C2881 N2879 1.356 . S
N2882 C2874 1.356 . S
N2882 H2888 0.984 . S
N2882 H2889 0.984 . S
N2883 C2876 1.356 . S
N2883 H2886 0.984 . S
N2883 H2887 0.985 . S
H2884 N2879 0.984 . S
H2885 N2879 0.985 . S
H2886 N2883 0.984 . S
H2887 N2883 0.985 . S
H2888 N2882 0.984 . S
H2889 N2882 0.984 . S
H2890 N2878 0.984 . S
H2891 N2878 0.985 . S
C2892 C2893 1.363 . S
C2892 C2898 1.379 . S
C2892 N2900 1.356 . S
C2893 C2892 1.363 . S
C2893 C2899 1.363 . S
C2894 C2895 1.363 . S
C2894 C2899 1.379 . S
C2894 N2901 1.356 . S
C2895 C2894 1.363 . S
C2895 C2898 1.363 . S
N2896 C2898 1.356 . S
N2896 H2908 0.984 . S
N2896 H2909 0.985 . S
N2897 C2899 1.356 . S
N2897 H2902 0.984 . S
N2897 H2903 0.985 . S
C2898 C2892 1.379 . S
C2898 C2895 1.363 . S
C2898 N2896 1.356 . S
C2899 C2893 1.363 . S
C2899 C2894 1.379 . S
C2899 N2897 1.356 . S
N2900 C2892 1.356 . S
N2900 H2906 0.984 . S
N2900 H2907 0.984 . S
N2901 C2894 1.356 . S
N2901 H2904 0.984 . S
N2901 H2905 0.985 . S
H2902 N2897 0.984 . S
H2903 N2897 0.985 . S
H2904 N2901 0.984 . S
H2905 N2901 0.985 . S
H2906 N2900 0.984 . S
H2907 N2900 0.984 . S
H2908 N2896 0.984 . S
H2909 N2896 0.985 . S
C2910 C2911 1.370 . S
C2910 C2916 1.338 1_455 S
C2910 N2918 1.399 . S
C2911 C2910 1.370 . S
C2911 C2917 1.363 1_455 S
C2912 C2913 1.363 . S
C2912 C2917 1.379 . S
C2912 N2919 1.356 . S
C2913 C2912 1.363 . S
C2913 C2916 1.363 . S
N2914 C2916 1.356 . S
N2914 H2926 0.984 . S
N2914 H2927 0.985 . S
N2915 C2917 1.356 . S
N2915 H2920 0.984 1_655 S
N2915 H2921 0.985 . S
C2916 C2910 1.338 1_655 S
C2916 C2913 1.363 . S
C2916 N2914 1.356 . S
C2917 C2911 1.363 1_655 S
C2917 C2912 1.379 . S
C2917 N2915 1.356 . S
N2918 C2910 1.399 . S
N2918 H2924 0.984 . S
N2918 H2925 0.984 . S
N2919 C2912 1.356 . S
N2919 H2922 0.984 . S
N2919 H2923 0.985 . S
H2920 N2915 0.984 1_455 S
H2921 N2915 0.985 . S
H2922 N2919 0.984 . S
H2923 N2919 0.985 . S
H2924 N2918 0.984 . S
H2925 N2918 0.984 . S
H2926 N2914 0.984 . S
H2927 N2914 0.985 . S
C2928 C2929 1.363 . S
C2928 C2934 1.379 . S
C2928 N2936 1.356 . S
C2929 C2928 1.363 . S
C2929 C2935 1.363 . S
C2930 C2931 1.363 . S
C2930 C2935 1.379 . S
C2930 N2937 1.356 . S
C2931 C2930 1.363 . S
C2931 C2934 1.363 . S
N2932 C2934 1.356 . S
N2932 H2944 0.984 . S
N2932 H2945 0.985 . S
N2933 C2935 1.356 . S
N2933 H2938 0.984 . S
N2933 H2939 0.985 . S
C2934 C2928 1.379 . S
C2934 C2931 1.363 . S
C2934 N2932 1.356 . S
C2935 C2929 1.363 . S
C2935 C2930 1.379 . S
C2935 N2933 1.356 . S
N2936 C2928 1.356 . S
N2936 H2942 0.984 . S
N2936 H2943 0.984 . S
N2937 C2930 1.356 . S
N2937 H2940 0.984 . S
N2937 H2941 0.985 . S
H2938 N2933 0.984 . S
H2939 N2933 0.985 . S
H2940 N2937 0.984 . S
H2941 N2937 0.985 . S
H2942 N2936 0.984 . S
H2943 N2936 0.984 . S
H2944 N2932 0.984 . S
H2945 N2932 0.985 . S
C2946 C2947 1.363 . S
C2946 C2952 1.379 . S
C2946 N2954 1.356 . S
C2947 C2946 1.363 . S
C2947 C2953 1.363 . S
C2948 C2949 1.363 . S
C2948 C2953 1.379 . S
C2948 N2955 1.356 . S
C2949 C2948 1.363 . S
C2949 C2952 1.363 . S
N2950 C2952 1.356 . S
N2950 H2962 0.984 . S
N2950 H2963 0.985 . S
N2951 C2953 1.356 . S
N2951 H2956 0.984 . S
N2951 H2957 0.985 . S
C2952 C2946 1.379 . S
C2952 C2949 1.363 . S
C2952 N2950 1.356 . S
C2953 C2947 1.363 . S
C2953 C2948 1.379 . S
C2953 N2951 1.356 . S
N2954 C2946 1.356 . S
N2954 H2960 0.984 . S
N2954 H2961 0.984 . S
N2955 C2948 1.356 . S
N2955 H2958 0.984 . S
N2955 H2959 0.985 . S
H2956 N2951 0.984 . S
H2957 N2951 0.985 . S
H2958 N2955 0.984 . S
H2959 N2955 0.985 . S
H2960 N2954 0.984 . S
H2961 N2954 0.984 . S
H2962 N2950 0.984 . S
H2963 N2950 0.985 . S
C2964 C2965 1.363 . S
C2964 C2970 1.379 . S
C2964 N2972 1.356 . S
C2965 C2964 1.363 . S
C2965 C2971 1.363 . S
C2966 C2967 1.363 . S
C2966 C2971 1.379 . S
C2966 N2973 1.356 . S
C2967 C2966 1.363 . S
C2967 C2970 1.363 . S
N2968 C2970 1.356 . S
N2968 H2980 0.984 . S
N2968 H2981 0.985 . S
N2969 C2971 1.356 . S
N2969 H2974 0.984 . S
N2969 H2975 0.985 . S
C2970 C2964 1.379 . S
C2970 C2967 1.363 . S
C2970 N2968 1.356 . S
C2971 C2965 1.363 . S
C2971 C2966 1.379 . S
C2971 N2969 1.356 . S
N2972 C2964 1.356 . S
N2972 H2978 0.984 . S
N2972 H2979 0.984 . S
N2973 C2966 1.356 . S
N2973 H2976 0.984 . S
N2973 H2977 0.985 . S
H2974 N2969 0.984 . S
H2975 N2969 0.985 . S
H2976 N2973 0.984 . S
H2977 N2973 0.985 . S
H2978 N2972 0.984 . S
H2979 N2972 0.984 . S
H2980 N2968 0.984 . S
H2981 N2968 0.985 . S
C2982 C2983 1.363 . S
C2982 C2988 1.379 . S
C2982 N2990 1.356 . S
C2983 C2982 1.363 . S
C2983 C2989 1.363 . S
C2984 C2985 1.363 . S
C2984 C2989 1.379 . S
C2984 N2991 1.356 . S
C2985 C2984 1.363 . S
C2985 C2988 1.363 . S
N2986 C2988 1.356 . S
N2986 H2998 0.984 . S
N2986 H2999 0.985 . S
N2987 C2989 1.356 . S
N2987 H2992 0.984 . S
N2987 H2993 0.985 . S
C2988 C2982 1.379 . S
C2988 C2985 1.363 . S
C2988 N2986 1.356 . S
C2989 C2983 1.363 . S
C2989 C2984 1.379 . S
C2989 N2987 1.356 . S
N2990 C2982 1.356 . S
N2990 H2996 0.984 . S
N2990 H2997 0.984 . S
N2991 C2984 1.356 . S
N2991 H2994 0.984 . S
N2991 H2995 0.985 . S
H2992 N2987 0.984 . S
H2993 N2987 0.985 . S
H2994 N2991 0.984 . S
H2995 N2991 0.985 . S
H2996 N2990 0.984 . S
H2997 N2990 0.984 . S
H2998 N2986 0.984 . S
H2999 N2986 0.985 . S
C3000 C3001 1.363 . S
C3000 C3006 1.379 . S
C3000 N3008 1.356 . S
C3001 C3000 1.363 . S
C3001 C3007 1.363 . S
C3002 C3003 1.363 . S
C3002 C3007 1.379 . S
C3002 N3009 1.356 . S
C3003 C3002 1.363 . S
C3003 C3006 1.363 . S
N3004 C3006 1.356 . S
N3004 H3016 0.984 . S
N3004 H3017 0.985 . S
N3005 C3007 1.356 . S
N3005 H3010 0.984 . S
N3005 H3011 0.985 . S
C3006 C3000 1.379 . S
C3006 C3003 1.363 . S
C3006 N3004 1.356 . S
C3007 C3001 1.363 . S
C3007 C3002 1.379 . S
C3007 N3005 1.356 . S
N3008 C3000 1.356 . S
N3008 H3014 0.984 . S
N3008 H3015 0.984 . S
N3009 C3002 1.356 . S
N3009 H3012 0.984 . S
N3009 H3013 0.985 . S
H3010 N3005 0.984 . S
H3011 N3005 0.985 . S
H3012 N3009 0.984 . S
H3013 N3009 0.985 . S
H3014 N3008 0.984 . S
H3015 N3008 0.984 . S
H3016 N3004 0.984 . S
H3017 N3004 0.985 . S
C3018 C3019 1.363 . S
C3018 C3024 1.379 . S
C3018 N3026 1.356 . S
C3019 C3018 1.363 . S
C3019 C3025 1.363 . S
C3020 C3021 1.363 . S
C3020 C3025 1.379 . S
C3020 N3027 1.356 . S
C3021 C3020 1.363 . S
C3021 C3024 1.363 . S
N3022 C3024 1.356 . S
N3022 H3034 0.984 . S
N3022 H3035 0.985 . S
N3023 C3025 1.356 . S
N3023 H3028 0.984 . S
N3023 H3029 0.985 . S
C3024 C3018 1.379 . S
C3024 C3021 1.363 . S
C3024 N3022 1.356 . S
C3025 C3019 1.363 . S
C3025 C3020 1.379 . S
C3025 N3023 1.356 . S
N3026 C3018 1.356 . S
N3026 H3032 0.984 . S
N3026 H3033 0.984 . S
N3027 C3020 1.356 . S
N3027 H3030 0.984 . S
N3027 H3031 0.985 . S
H3028 N3023 0.984 . S
H3029 N3023 0.985 . S
H3030 N3027 0.984 . S
H3031 N3027 0.985 . S
H3032 N3026 0.984 . S
H3033 N3026 0.984 . S
H3034 N3022 0.984 . S
H3035 N3022 0.985 . S
C3036 C3037 1.363 . S
C3036 C3042 1.379 . S
C3036 N3044 1.356 1_545 S
C3037 C3036 1.363 . S
C3037 C3043 1.363 . S
C3038 C3039 1.363 . S
C3038 C3043 1.379 . S
C3038 N3045 1.356 . S
C3039 C3038 1.363 . S
C3039 C3042 1.363 . S
N3040 C3042 1.356 1_565 S
N3040 H3052 0.984 . S
N3040 H3053 0.985 . S
N3041 C3043 1.356 . S
N3041 H3046 0.984 . S
N3041 H3047 0.985 . S
C3042 C3036 1.379 . S
C3042 C3039 1.363 . S
C3042 N3040 1.356 1_545 S
C3043 C3037 1.363 . S
C3043 C3038 1.379 . S
C3043 N3041 1.356 . S
N3044 C3036 1.356 1_565 S
N3044 H3050 0.984 . S
N3044 H3051 0.984 . S
N3045 C3038 1.356 . S
N3045 H3048 0.984 . S
N3045 H3049 0.985 . S
H3046 N3041 0.984 . S
H3047 N3041 0.985 . S
H3048 N3045 0.984 . S
H3049 N3045 0.985 . S
H3050 N3044 0.984 . S
H3051 N3044 0.984 . S
H3052 N3040 0.984 . S
H3053 N3040 0.985 . S
C3054 C3055 1.363 . S
C3054 C3060 1.379 1_554 S
C3054 N3062 1.356 . S
C3055 C3054 1.363 . S
C3055 C3061 1.363 1_554 S
C3056 C3057 1.363 . S
C3056 C3061 1.379 . S
C3056 N3063 1.356 . S
C3057 C3056 1.363 . S
C3057 C3060 1.363 . S
N3058 C3060 1.356 . S
N3058 H3070 0.984 . S
N3058 H3071 0.985 . S
N3059 C3061 1.356 1_554 S
N3059 H3064 0.984 . S
N3059 H3065 0.985 1_554 S
C3060 C3054 1.379 1_556 S
C3060 C3057 1.363 . S
C3060 N3058 1.356 . S
C3061 C3055 1.363 1_556 S
C3061 C3056 1.379 . S
C3061 N3059 1.356 1_556 S
N3062 C3054 1.356 . S
N3062 H3068 0.984 . S
N3062 H3069 0.984 . S
N3063 C3056 1.356 . S
N3063 H3066 0.984 . S
N3063 H3067 0.985 . S
H3064 N3059 0.984 . S
H3065 N3059 0.985 1_556 S
H3066 N3063 0.984 . S
H3067 N3063 0.985 . S
H3068 N3062 0.984 . S
H3069 N3062 0.984 . S
H3070 N3058 0.984 . S
H3071 N3058 0.985 . S
C3072 C3073 1.363 . S
C3072 C3078 1.379 . S
C3072 N3080 1.356 . S
C3073 C3072 1.363 . S
C3073 C3079 1.363 . S
C3074 C3075 1.363 . S
C3074 C3079 1.379 . S
C3074 N3081 1.356 . S
C3075 C3074 1.363 . S
C3075 C3078 1.363 . S
N3076 C3078 1.356 . S
N3076 H3088 0.984 . S
N3076 H3089 0.985 . S
N3077 C3079 1.356 . S
N3077 H3082 0.984 . S
N3077 H3083 0.985 . S
C3078 C3072 1.379 . S
C3078 C3075 1.363 . S
C3078 N3076 1.356 . S
C3079 C3073 1.363 . S
C3079 C3074 1.379 . S
C3079 N3077 1.356 . S
N3080 C3072 1.356 . S
N3080 H3086 0.984 . S
N3080 H3087 0.984 . S
N3081 C3074 1.356 . S
N3081 H3084 0.984 . S
N3081 H3085 0.985 . S
H3082 N3077 0.984 . S
H3083 N3077 0.985 . S
H3084 N3081 0.984 . S
H3085 N3081 0.985 . S
H3086 N3080 0.984 . S
H3087 N3080 0.984 . S
H3088 N3076 0.984 . S
H3089 N3076 0.985 . S
C3090 C3091 1.363 . S
C3090 C3096 1.379 . S
C3090 N3098 1.356 . S
C3091 C3090 1.363 . S
C3091 C3097 1.363 . S
C3092 C3093 1.363 . S
C3092 C3097 1.379 . S
C3092 N3099 1.356 . S
C3093 C3092 1.363 . S
C3093 C3096 1.363 . S
N3094 C3096 1.356 . S
N3094 H3106 0.984 . S
N3094 H3107 0.985 . S
N3095 C3097 1.356 . S
N3095 H3100 0.984 . S
N3095 H3101 0.985 . S
C3096 C3090 1.379 . S
C3096 C3093 1.363 . S
C3096 N3094 1.356 . S
C3097 C3091 1.363 . S
C3097 C3092 1.379 . S
C3097 N3095 1.356 . S
N3098 C3090 1.356 . S
N3098 H3104 0.984 . S
N3098 H3105 0.984 . S
N3099 C3092 1.356 . S
N3099 H3102 0.984 . S
N3099 H3103 0.985 . S
H3100 N3095 0.984 . S
H3101 N3095 0.985 . S
H3102 N3099 0.984 . S
H3103 N3099 0.985 . S
H3104 N3098 0.984 . S
H3105 N3098 0.984 . S
H3106 N3094 0.984 . S
H3107 N3094 0.985 . S
C3108 C3109 1.363 . S
C3108 C3114 1.379 . S
C3108 N3116 1.356 . S
C3109 C3108 1.363 . S
C3109 C3115 1.363 . S
C3110 C3111 1.363 . S
C3110 C3115 1.379 . S
C3110 N3117 1.356 . S
C3111 C3110 1.363 . S
C3111 C3114 1.363 . S
N3112 C3114 1.356 . S
N3112 H3124 0.984 . S
N3112 H3125 0.985 . S
N3113 C3115 1.356 1_556 S
N3113 H3118 0.984 . S
N3113 H3119 0.985 . S
C3114 C3108 1.379 . S
C3114 C3111 1.363 . S
C3114 N3112 1.356 . S
C3115 C3109 1.363 . S
C3115 C3110 1.379 . S
C3115 N3113 1.356 1_554 S
N3116 C3108 1.356 . S
N3116 H3122 0.984 . S
N3116 H3123 0.984 . S
N3117 C3110 1.356 . S
N3117 H3120 0.984 . S
N3117 H3121 0.985 . S
H3118 N3113 0.984 . S
H3119 N3113 0.985 . S
H3120 N3117 0.984 . S
H3121 N3117 0.985 . S
H3122 N3116 0.984 . S
H3123 N3116 0.984 . S
H3124 N3112 0.984 . S
H3125 N3112 0.985 . S
C3126 C3127 1.363 . S
C3126 C3132 1.379 . S
C3126 N3134 1.356 . S
C3127 C3126 1.363 . S
C3127 C3133 1.363 . S
C3128 C3129 1.363 . S
C3128 C3133 1.379 . S
C3128 N3135 1.356 . S
C3129 C3128 1.363 . S
C3129 C3132 1.363 . S
N3130 C3132 1.356 . S
N3130 H3142 0.984 . S
N3130 H3143 0.985 . S
N3131 C3133 1.356 . S
N3131 H3136 0.984 . S
N3131 H3137 0.985 . S
C3132 C3126 1.379 . S
C3132 C3129 1.363 . S
C3132 N3130 1.356 . S
C3133 C3127 1.363 . S
C3133 C3128 1.379 . S
C3133 N3131 1.356 . S
N3134 C3126 1.356 . S
N3134 H3140 0.984 . S
N3134 H3141 0.984 . S
N3135 C3128 1.356 . S
N3135 H3138 0.984 . S
N3135 H3139 0.985 . S
H3136 N3131 0.984 . S
H3137 N3131 0.985 . S
H3138 N3135 0.984 . S
H3139 N3135 0.985 . S
H3140 N3134 0.984 . S
H3141 N3134 0.984 . S
H3142 N3130 0.984 . S
H3143 N3130 0.985 . S
C3144 C3145 1.363 . S
C3144 C3150 1.379 . S
C3144 N3152 1.356 . S
C3145 C3144 1.363 . S
C3145 C3151 1.363 . S
C3146 C3147 1.363 . S
C3146 C3151 1.379 . S
C3146 N3153 1.356 . S
C3147 C3146 1.363 . S
C3147 C3150 1.363 . S
N3148 C3150 1.356 . S
N3148 H3160 0.984 . S
N3148 H3161 0.985 . S
N3149 C3151 1.356 . S
N3149 H3154 0.985 . S
N3149 H3155 0.985 . S
C3150 C3144 1.379 . S
C3150 C3147 1.363 . S
C3150 N3148 1.356 . S
C3151 C3145 1.363 . S
C3151 C3146 1.379 . S
C3151 N3149 1.356 . S
N3152 C3144 1.356 . S
N3152 H3158 0.984 . S
N3152 H3159 0.984 . S
N3153 C3146 1.356 . S
N3153 H3156 0.984 . S
N3153 H3157 0.986 . S
H3154 N3149 0.985 . S
H3155 N3149 0.985 . S
H3156 N3153 0.984 . S
H3157 N3153 0.986 . S
H3158 N3152 0.984 . S
H3159 N3152 0.984 . S
H3160 N3148 0.984 . S
H3161 N3148 0.985 . S
C3162 C3163 1.363 . S
C3162 C3168 1.379 . S
C3162 N3170 1.356 . S
C3163 C3162 1.363 . S
C3163 C3169 1.363 . S
C3164 C3165 1.363 . S
C3164 C3169 1.379 . S
C3164 N3171 1.356 . S
C3165 C3164 1.363 . S
C3165 C3168 1.363 . S
N3166 C3168 1.356 . S
N3166 H3178 0.984 . S
N3166 H3179 0.985 . S
N3167 C3169 1.356 . S
N3167 H3172 0.984 . S
N3167 H3173 0.985 . S
C3168 C3162 1.379 . S
C3168 C3165 1.363 . S
C3168 N3166 1.356 . S
C3169 C3163 1.363 . S
C3169 C3164 1.379 . S
C3169 N3167 1.356 . S
N3170 C3162 1.356 . S
N3170 H3176 0.984 . S
N3170 H3177 0.984 . S
N3171 C3164 1.356 . S
N3171 H3174 0.984 . S
N3171 H3175 0.985 . S
H3172 N3167 0.984 . S
H3173 N3167 0.985 . S
H3174 N3171 0.984 . S
H3175 N3171 0.985 . S
H3176 N3170 0.984 . S
H3177 N3170 0.984 . S
H3178 N3166 0.984 . S
H3179 N3166 0.985 . S
C3180 C3181 1.363 . S
C3180 C3186 1.379 . S
C3180 N3188 1.356 . S
C3181 C3180 1.363 . S
C3181 C3187 1.363 . S
C3182 C3183 1.363 . S
C3182 C3187 1.379 . S
C3182 N3189 1.356 . S
C3183 C3182 1.363 . S
C3183 C3186 1.363 . S
N3184 C3186 1.356 . S
N3184 H3196 0.984 . S
N3184 H3197 0.985 . S
N3185 C3187 1.356 . S
N3185 H3190 0.984 . S
N3185 H3191 0.985 . S
C3186 C3180 1.379 . S
C3186 C3183 1.363 . S
C3186 N3184 1.356 . S
C3187 C3181 1.363 . S
C3187 C3182 1.379 . S
C3187 N3185 1.356 . S
N3188 C3180 1.356 . S
N3188 H3194 0.984 . S
N3188 H3195 0.984 . S
N3189 C3182 1.356 . S
N3189 H3192 0.984 . S
N3189 H3193 0.985 . S
H3190 N3185 0.984 . S
H3191 N3185 0.985 . S
H3192 N3189 0.984 . S
H3193 N3189 0.985 . S
H3194 N3188 0.984 . S
H3195 N3188 0.984 . S
H3196 N3184 0.984 . S
H3197 N3184 0.985 . S
C3198 C3199 1.363 . S
C3198 C3204 1.379 . S
C3198 N3206 1.356 . S
C3199 C3198 1.363 . S
C3199 C3205 1.363 . S
C3200 C3201 1.363 . S
C3200 C3205 1.379 . S
C3200 N3207 1.356 . S
C3201 C3200 1.363 . S
C3201 C3204 1.363 . S
N3202 C3204 1.356 . S
N3202 H3214 0.984 . S
N3202 H3215 0.985 . S
N3203 C3205 1.356 . S
N3203 H3208 0.984 . S
N3203 H3209 0.985 . S
C3204 C3198 1.379 . S
C3204 C3201 1.363 . S
C3204 N3202 1.356 . S
C3205 C3199 1.363 . S
C3205 C3200 1.379 . S
C3205 N3203 1.356 . S
N3206 C3198 1.356 . S
N3206 H3212 0.984 . S
N3206 H3213 0.984 . S
N3207 C3200 1.356 . S
N3207 H3210 0.984 . S
N3207 H3211 0.985 . S
H3208 N3203 0.984 . S
H3209 N3203 0.985 . S
H3210 N3207 0.984 . S
H3211 N3207 0.985 . S
H3212 N3206 0.984 . S
H3213 N3206 0.984 . S
H3214 N3202 0.984 . S
H3215 N3202 0.985 . S
C3216 C3217 1.363 . S
C3216 C3222 1.379 . S
C3216 N3224 1.356 . S
C3217 C3216 1.363 . S
C3217 C3223 1.363 . S
C3218 C3219 1.363 . S
C3218 C3223 1.379 . S
C3218 N3225 1.356 . S
C3219 C3218 1.363 . S
C3219 C3222 1.363 . S
N3220 C3222 1.356 . S
N3220 H3232 0.984 . S
N3220 H3233 0.985 . S
N3221 C3223 1.356 . S
N3221 H3226 0.984 . S
N3221 H3227 0.985 . S
C3222 C3216 1.379 . S
C3222 C3219 1.363 . S
C3222 N3220 1.356 . S
C3223 C3217 1.363 . S
C3223 C3218 1.379 . S
C3223 N3221 1.356 . S
N3224 C3216 1.356 . S
N3224 H3230 0.984 . S
N3224 H3231 0.984 . S
N3225 C3218 1.356 . S
N3225 H3228 0.984 . S
N3225 H3229 0.985 . S
H3226 N3221 0.984 . S
H3227 N3221 0.985 . S
H3228 N3225 0.984 . S
H3229 N3225 0.985 . S
H3230 N3224 0.984 . S
H3231 N3224 0.984 . S
H3232 N3220 0.984 . S
H3233 N3220 0.985 . S
C3234 C3235 1.363 . S
C3234 C3240 1.379 . S
C3234 N3242 1.356 . S
C3235 C3234 1.363 . S
C3235 C3241 1.363 . S
C3236 C3237 1.363 . S
C3236 C3241 1.379 . S
C3236 N3243 1.356 . S
C3237 C3236 1.363 . S
C3237 C3240 1.363 . S
N3238 C3240 1.356 . S
N3238 H3250 0.984 . S
N3238 H3251 0.985 . S
N3239 C3241 1.356 . S
N3239 H3244 0.984 . S
N3239 H3245 0.985 . S
C3240 C3234 1.379 . S
C3240 C3237 1.363 . S
C3240 N3238 1.356 . S
C3241 C3235 1.363 . S
C3241 C3236 1.379 . S
C3241 N3239 1.356 . S
N3242 C3234 1.356 . S
N3242 H3248 0.984 . S
N3242 H3249 0.984 . S
N3243 C3236 1.356 . S
N3243 H3246 0.984 . S
N3243 H3247 0.985 . S
H3244 N3239 0.984 . S
H3245 N3239 0.985 . S
H3246 N3243 0.984 . S
H3247 N3243 0.985 . S
H3248 N3242 0.984 . S
H3249 N3242 0.984 . S
H3250 N3238 0.984 . S
H3251 N3238 0.985 . S
C3252 C3253 1.363 . S
C3252 C3258 1.379 . S
C3252 N3260 1.356 . S
C3253 C3252 1.363 . S
C3253 C3259 1.363 . S
C3254 C3255 1.363 . S
C3254 C3259 1.379 . S
C3254 N3261 1.356 . S
C3255 C3254 1.363 . S
C3255 C3258 1.363 . S
N3256 C3258 1.356 . S
N3256 H3268 0.984 . S
N3256 H3269 0.985 . S
N3257 C3259 1.356 . S
N3257 H3262 0.984 . S
N3257 H3263 0.985 . S
C3258 C3252 1.379 . S
C3258 C3255 1.363 . S
C3258 N3256 1.356 . S
C3259 C3253 1.363 . S
C3259 C3254 1.379 . S
C3259 N3257 1.356 . S
N3260 C3252 1.356 . S
N3260 H3266 0.984 . S
N3260 H3267 0.984 . S
N3261 C3254 1.356 . S
N3261 H3264 0.984 . S
N3261 H3265 0.985 . S
H3262 N3257 0.984 . S
H3263 N3257 0.985 . S
H3264 N3261 0.984 . S
H3265 N3261 0.985 . S
H3266 N3260 0.984 . S
H3267 N3260 0.984 . S
H3268 N3256 0.984 . S
H3269 N3256 0.985 . S
C3270 C3271 1.363 . S
C3270 C3276 1.379 . S
C3270 N3278 1.356 . S
C3271 C3270 1.363 . S
C3271 C3277 1.363 . S
C3272 C3273 1.363 . S
C3272 C3277 1.379 . S
C3272 N3279 1.356 . S
C3273 C3272 1.363 . S
C3273 C3276 1.363 . S
N3274 C3276 1.356 . S
N3274 H3286 0.984 . S
N3274 H3287 0.985 . S
N3275 C3277 1.356 . S
N3275 H3280 0.984 . S
N3275 H3281 0.985 . S
C3276 C3270 1.379 . S
C3276 C3273 1.363 . S
C3276 N3274 1.356 . S
C3277 C3271 1.363 . S
C3277 C3272 1.379 . S
C3277 N3275 1.356 . S
N3278 C3270 1.356 . S
N3278 H3284 0.984 . S
N3278 H3285 0.984 . S
N3279 C3272 1.356 . S
N3279 H3282 0.984 . S
N3279 H3283 0.985 . S
H3280 N3275 0.984 . S
H3281 N3275 0.985 . S
H3282 N3279 0.984 . S
H3283 N3279 0.985 . S
H3284 N3278 0.984 . S
H3285 N3278 0.984 . S
H3286 N3274 0.984 . S
H3287 N3274 0.985 . S
C3288 C3289 1.363 . S
C3288 C3294 1.379 . S
C3288 N3296 1.356 . S
C3289 C3288 1.363 . S
C3289 C3295 1.363 . S
C3290 C3291 1.363 . S
C3290 C3295 1.379 . S
C3290 N3297 1.356 . S
C3291 C3290 1.363 . S
C3291 C3294 1.363 . S
N3292 C3294 1.356 . S
N3292 H3304 0.984 . S
N3292 H3305 0.985 . S
N3293 C3295 1.356 . S
N3293 H3298 0.984 . S
N3293 H3299 0.985 . S
C3294 C3288 1.379 . S
C3294 C3291 1.363 . S
C3294 N3292 1.356 . S
C3295 C3289 1.363 . S
C3295 C3290 1.379 . S
C3295 N3293 1.356 . S
N3296 C3288 1.356 . S
N3296 H3302 0.984 . S
N3296 H3303 0.984 . S
N3297 C3290 1.356 . S
N3297 H3300 0.984 . S
N3297 H3301 0.985 . S
H3298 N3293 0.984 . S
H3299 N3293 0.985 . S
H3300 N3297 0.984 . S
H3301 N3297 0.985 . S
H3302 N3296 0.984 . S
H3303 N3296 0.984 . S
H3304 N3292 0.984 . S
H3305 N3292 0.985 . S
C3306 C3307 1.363 . S
C3306 C3312 1.379 . S
C3306 N3314 1.356 . S
C3307 C3306 1.363 . S
C3307 C3313 1.363 . S
C3308 C3309 1.363 . S
C3308 C3313 1.379 . S
C3308 N3315 1.356 . S
C3309 C3308 1.363 . S
C3309 C3312 1.363 . S
N3310 C3312 1.356 . S
N3310 H3322 0.984 . S
N3310 H3323 0.985 . S
N3311 C3313 1.356 . S
N3311 H3316 0.984 . S
N3311 H3317 0.985 . S
C3312 C3306 1.379 . S
C3312 C3309 1.363 . S
C3312 N3310 1.356 . S
C3313 C3307 1.363 . S
C3313 C3308 1.379 . S
C3313 N3311 1.356 . S
N3314 C3306 1.356 . S
N3314 H3320 0.984 . S
N3314 H3321 0.984 . S
N3315 C3308 1.356 . S
N3315 H3318 0.984 . S
N3315 H3319 0.985 . S
H3316 N3311 0.984 . S
H3317 N3311 0.985 . S
H3318 N3315 0.984 . S
H3319 N3315 0.985 . S
H3320 N3314 0.984 . S
H3321 N3314 0.984 . S
H3322 N3310 0.984 . S
H3323 N3310 0.985 . S
C3324 C3325 1.363 . S
C3324 C3330 1.379 . S
C3324 N3332 1.356 . S
C3325 C3324 1.363 . S
C3325 C3331 1.363 . S
C3326 C3327 1.363 . S
C3326 C3331 1.379 . S
C3326 N3333 1.356 . S
C3327 C3326 1.363 . S
C3327 C3330 1.363 . S
N3328 C3330 1.356 . S
N3328 H3340 0.984 . S
N3328 H3341 0.985 . S
N3329 C3331 1.356 . S
N3329 H3334 0.984 . S
N3329 H3335 0.985 . S
C3330 C3324 1.379 . S
C3330 C3327 1.363 . S
C3330 N3328 1.356 . S
C3331 C3325 1.363 . S
C3331 C3326 1.379 . S
C3331 N3329 1.356 . S
N3332 C3324 1.356 . S
N3332 H3338 0.984 . S
N3332 H3339 0.984 . S
N3333 C3326 1.356 . S
N3333 H3336 0.984 . S
N3333 H3337 0.985 . S
H3334 N3329 0.984 . S
H3335 N3329 0.985 . S
H3336 N3333 0.984 . S
H3337 N3333 0.985 . S
H3338 N3332 0.984 . S
H3339 N3332 0.984 . S
H3340 N3328 0.984 . S
H3341 N3328 0.985 . S
C3342 C3343 1.363 . S
C3342 C3348 1.379 . S
C3342 N3350 1.356 . S
C3343 C3342 1.363 . S
C3343 C3349 1.363 . S
C3344 C3345 1.363 . S
C3344 C3349 1.379 1_655 S
C3344 N3351 1.356 . S
C3345 C3344 1.363 . S
C3345 C3348 1.363 1_655 S
N3346 C3348 1.356 1_655 S
N3346 H3358 0.984 1_655 S
N3346 H3359 0.985 . S
N3347 C3349 1.356 . S
N3347 H3352 0.984 . S
N3347 H3353 0.985 . S
C3348 C3342 1.379 . S
C3348 C3345 1.363 1_455 S
C3348 N3346 1.356 1_455 S
C3349 C3343 1.363 . S
C3349 C3344 1.379 1_455 S
C3349 N3347 1.356 . S
N3350 C3342 1.356 . S
N3350 H3356 0.984 . S
N3350 H3357 0.984 . S
N3351 C3344 1.356 . S
N3351 H3354 0.984 . S
N3351 H3355 0.985 . S
H3352 N3347 0.984 . S
H3353 N3347 0.985 . S
H3354 N3351 0.984 . S
H3355 N3351 0.985 . S
H3356 N3350 0.984 . S
H3357 N3350 0.984 . S
H3358 N3346 0.984 1_455 S
H3359 N3346 0.985 . S
C3360 C3361 1.363 . S
C3360 C3366 1.379 . S
C3360 N3368 1.356 . S
C3361 C3360 1.363 . S
C3361 C3367 1.363 . S
C3362 C3363 1.363 . S
C3362 C3367 1.379 . S
C3362 N3369 1.356 . S
C3363 C3362 1.363 . S
C3363 C3366 1.363 . S
N3364 C3366 1.356 . S
N3364 H3376 0.984 . S
N3364 H3377 0.985 . S
N3365 C3367 1.356 . S
N3365 H3370 0.984 . S
N3365 H3371 0.985 . S
C3366 C3360 1.379 . S
C3366 C3363 1.363 . S
C3366 N3364 1.356 . S
C3367 C3361 1.363 . S
C3367 C3362 1.379 . S
C3367 N3365 1.356 . S
N3368 C3360 1.356 . S
N3368 H3374 0.984 . S
N3368 H3375 0.984 . S
N3369 C3362 1.356 . S
N3369 H3372 0.984 . S
N3369 H3373 0.985 . S
H3370 N3365 0.984 . S
H3371 N3365 0.985 . S
H3372 N3369 0.984 . S
H3373 N3369 0.985 . S
H3374 N3368 0.984 . S
H3375 N3368 0.984 . S
H3376 N3364 0.984 . S
H3377 N3364 0.985 . S
C3378 C3379 1.363 . S
C3378 C3384 1.379 . S
C3378 N3386 1.356 . S
C3379 C3378 1.363 . S
C3379 C3385 1.363 . S
C3380 C3381 1.363 . S
C3380 C3385 1.379 . S
C3380 N3387 1.356 . S
C3381 C3380 1.363 . S
C3381 C3384 1.363 . S
N3382 C3384 1.356 . S
N3382 H3394 0.984 . S
N3382 H3395 0.985 . S
N3383 C3385 1.356 . S
N3383 H3388 0.984 . S
N3383 H3389 0.985 . S
C3384 C3378 1.379 . S
C3384 C3381 1.363 . S
C3384 N3382 1.356 . S
C3385 C3379 1.363 . S
C3385 C3380 1.379 . S
C3385 N3383 1.356 . S
N3386 C3378 1.356 . S
N3386 H3392 0.984 . S
N3386 H3393 0.984 . S
N3387 C3380 1.356 . S
N3387 H3390 0.984 . S
N3387 H3391 0.985 . S
H3388 N3383 0.984 . S
H3389 N3383 0.985 . S
H3390 N3387 0.984 . S
H3391 N3387 0.985 . S
H3392 N3386 0.984 . S
H3393 N3386 0.984 . S
H3394 N3382 0.984 . S
H3395 N3382 0.985 . S
C3396 C3397 1.363 . S
C3396 C3402 1.379 . S
C3396 N3404 1.356 . S
C3397 C3396 1.363 . S
C3397 C3403 1.363 . S
C3398 C3399 1.363 . S
C3398 C3403 1.379 . S
C3398 N3405 1.356 . S
C3399 C3398 1.363 . S
C3399 C3402 1.363 . S
N3400 C3402 1.356 . S
N3400 H3412 0.984 . S
N3400 H3413 0.985 . S
N3401 C3403 1.356 . S
N3401 H3406 0.984 . S
N3401 H3407 0.985 . S
C3402 C3396 1.379 . S
C3402 C3399 1.363 . S
C3402 N3400 1.356 . S
C3403 C3397 1.363 . S
C3403 C3398 1.379 . S
C3403 N3401 1.356 . S
N3404 C3396 1.356 . S
N3404 H3410 0.984 . S
N3404 H3411 0.984 . S
N3405 C3398 1.356 . S
N3405 H3408 0.984 . S
N3405 H3409 0.985 . S
H3406 N3401 0.984 . S
H3407 N3401 0.985 . S
H3408 N3405 0.984 . S
H3409 N3405 0.985 . S
H3410 N3404 0.984 . S
H3411 N3404 0.984 . S
H3412 N3400 0.984 . S
H3413 N3400 0.985 . S
C3414 C3415 1.363 . S
C3414 C3420 1.379 . S
C3414 N3422 1.356 1_556 S
C3415 C3414 1.363 . S
C3415 C3421 1.363 . S
C3416 C3417 1.363 . S
C3416 C3421 1.379 . S
C3416 N3423 1.356 . S
C3417 C3416 1.363 . S
C3417 C3420 1.363 . S
N3418 C3420 1.356 . S
N3418 H3430 0.984 . S
N3418 H3431 0.985 . S
N3419 C3421 1.356 . S
N3419 H3424 0.984 . S
N3419 H3425 0.985 . S
C3420 C3414 1.379 . S
C3420 C3417 1.363 . S
C3420 N3418 1.356 . S
C3421 C3415 1.363 . S
C3421 C3416 1.379 . S
C3421 N3419 1.356 . S
N3422 C3414 1.356 1_554 S
N3422 H3428 0.984 . S
N3422 H3429 0.984 . S
N3423 C3416 1.356 . S
N3423 H3426 0.984 . S
N3423 H3427 0.985 . S
H3424 N3419 0.984 . S
H3425 N3419 0.985 . S
H3426 N3423 0.984 . S
H3427 N3423 0.985 . S
H3428 N3422 0.984 . S
H3429 N3422 0.984 . S
H3430 N3418 0.984 . S
H3431 N3418 0.985 . S
C3432 C3433 1.363 . S
C3432 C3438 1.379 . S
C3432 N3440 1.356 . S
C3433 C3432 1.363 . S
C3433 C3439 1.363 . S
C3434 C3435 1.363 . S
C3434 C3439 1.379 . S
C3434 N3441 1.356 . S
C3435 C3434 1.363 . S
C3435 C3438 1.363 . S
N3436 C3438 1.356 . S
N3436 H3448 0.984 . S
N3436 H3449 0.985 . S
N3437 C3439 1.356 . S
N3437 H3442 0.984 . S
N3437 H3443 0.985 . S
C3438 C3432 1.379 . S
C3438 C3435 1.363 . S
C3438 N3436 1.356 . S
C3439 C3433 1.363 . S
C3439 C3434 1.379 . S
C3439 N3437 1.356 . S
N3440 C3432 1.356 . S
N3440 H3446 0.984 . S
N3440 H3447 0.984 . S
N3441 C3434 1.356 . S
N3441 H3444 0.984 . S
N3441 H3445 0.985 . S
H3442 N3437 0.984 . S
H3443 N3437 0.985 . S
H3444 N3441 0.984 . S
H3445 N3441 0.985 . S
H3446 N3440 0.984 . S
H3447 N3440 0.984 . S
H3448 N3436 0.984 . S
H3449 N3436 0.985 . S
C3450 C3451 1.363 . S
C3450 C3456 1.379 . S
C3450 N3458 1.356 . S
C3451 C3450 1.363 . S
C3451 C3457 1.363 . S
C3452 C3453 1.363 . S
C3452 C3457 1.379 . S
C3452 N3459 1.356 . S
C3453 C3452 1.363 . S
C3453 C3456 1.363 . S
N3454 C3456 1.356 . S
N3454 H3466 0.984 . S
N3454 H3467 0.985 . S
N3455 C3457 1.356 . S
N3455 H3460 0.984 . S
N3455 H3461 0.985 . S
C3456 C3450 1.379 . S
C3456 C3453 1.363 . S
C3456 N3454 1.356 . S
C3457 C3451 1.363 . S
C3457 C3452 1.379 . S
C3457 N3455 1.356 . S
N3458 C3450 1.356 . S
N3458 H3464 0.984 . S
N3458 H3465 0.984 . S
N3459 C3452 1.356 . S
N3459 H3462 0.984 . S
N3459 H3463 0.985 . S
H3460 N3455 0.984 . S
H3461 N3455 0.985 . S
H3462 N3459 0.984 . S
H3463 N3459 0.985 . S
H3464 N3458 0.984 . S
H3465 N3458 0.984 . S
H3466 N3454 0.984 . S
H3467 N3454 0.985 . S
C3468 C3469 1.363 . S
C3468 C3474 1.379 . S
C3468 N3476 1.356 . S
C3469 C3468 1.363 . S
C3469 C3475 1.363 1_565 S
C3470 C3471 1.363 1_545 S
C3470 C3475 1.379 . S
C3470 N3477 1.356 . S
C3471 C3470 1.363 1_565 S
C3471 C3474 1.363 . S
N3472 C3474 1.356 . S
N3472 H3484 0.984 . S
N3472 H3485 0.985 . S
N3473 C3475 1.356 . S
N3473 H3478 0.999 . S
N3473 H3479 0.985 . S
C3474 C3468 1.379 . S
C3474 C3471 1.363 . S
C3474 N3472 1.356 . S
C3475 C3469 1.363 1_545 S
C3475 C3470 1.379 . S
C3475 N3473 1.356 . S
N3476 C3468 1.356 . S
N3476 H3482 0.984 . S
N3476 H3483 0.984 . S
N3477 C3470 1.356 . S
N3477 H3480 0.984 . S
N3477 H3481 0.985 . S
H3478 N3473 0.999 . S
H3479 N3473 0.985 . S
H3480 N3477 0.984 . S
H3481 N3477 0.985 . S
H3482 N3476 0.984 . S
H3483 N3476 0.984 . S
H3484 N3472 0.984 . S
H3485 N3472 0.985 . S
C3486 C3487 1.363 . S
C3486 C3492 1.379 . S
C3486 N3494 1.356 . S
C3487 C3486 1.363 . S
C3487 C3493 1.363 . S
C3488 C3489 1.363 . S
C3488 C3493 1.379 . S
C3488 N3495 1.356 . S
C3489 C3488 1.363 . S
C3489 C3492 1.363 . S
N3490 C3492 1.356 . S
N3490 H3502 0.984 . S
N3490 H3503 0.985 1_556 S
N3491 C3493 1.356 . S
N3491 H3496 0.984 . S
N3491 H3497 0.985 . S
C3492 C3486 1.379 . S
C3492 C3489 1.363 . S
C3492 N3490 1.356 . S
C3493 C3487 1.363 . S
C3493 C3488 1.379 . S
C3493 N3491 1.356 . S
N3494 C3486 1.356 . S
N3494 H3500 0.984 . S
N3494 H3501 0.984 . S
N3495 C3488 1.356 . S
N3495 H3498 0.984 . S
N3495 H3499 0.985 . S
H3496 N3491 0.984 . S
H3497 N3491 0.985 . S
H3498 N3495 0.984 . S
H3499 N3495 0.985 . S
H3500 N3494 0.984 . S
H3501 N3494 0.984 . S
H3502 N3490 0.984 . S
H3503 N3490 0.985 1_554 S
C3504 C3505 1.363 . S
C3504 C3510 1.381 . S
C3504 N3512 1.356 1_556 S
C3505 C3504 1.363 . S
C3505 C3511 1.363 . S
C3506 C3507 1.363 . S
C3506 C3511 1.379 . S
C3506 N3513 1.356 . S
C3507 C3506 1.363 . S
C3507 C3510 1.367 . S
N3508 C3510 1.351 1_554 S
N3508 H3520 0.984 . S
N3508 H3521 0.985 . S
N3509 C3511 1.356 . S
N3509 H3514 0.984 . S
N3509 H3515 0.985 . S
C3510 C3504 1.381 . S
C3510 C3507 1.367 . S
C3510 N3508 1.351 1_556 S
C3511 C3505 1.363 . S
C3511 C3506 1.379 . S
C3511 N3509 1.356 . S
N3512 C3504 1.356 1_554 S
N3512 H3518 0.984 . S
N3512 H3519 0.984 1_554 S
N3513 C3506 1.356 . S
N3513 H3516 0.984 . S
N3513 H3517 0.985 . S
H3514 N3509 0.984 . S
H3515 N3509 0.985 . S
H3516 N3513 0.984 . S
H3517 N3513 0.985 . S
H3518 N3512 0.984 . S
H3519 N3512 0.984 1_556 S
H3520 N3508 0.984 . S
H3521 N3508 0.985 . S
C3522 C3523 1.363 . S
C3522 C3528 1.379 . S
C3522 N3530 1.356 . S
C3523 C3522 1.363 . S
C3523 C3529 1.363 . S
C3524 C3525 1.363 . S
C3524 C3529 1.379 . S
C3524 N3531 1.356 . S
C3525 C3524 1.363 . S
C3525 C3528 1.363 . S
N3526 C3528 1.356 . S
N3526 H3538 0.984 . S
N3526 H3539 0.985 . S
N3527 C3529 1.356 . S
N3527 H3532 0.984 . S
N3527 H3533 0.985 . S
C3528 C3522 1.379 . S
C3528 C3525 1.363 . S
C3528 N3526 1.356 . S
C3529 C3523 1.363 . S
C3529 C3524 1.379 . S
C3529 N3527 1.356 . S
N3530 C3522 1.356 . S
N3530 H3536 0.984 . S
N3530 H3537 0.984 . S
N3531 C3524 1.356 . S
N3531 H3534 0.984 . S
N3531 H3535 0.985 . S
H3532 N3527 0.984 . S
H3533 N3527 0.985 . S
H3534 N3531 0.984 . S
H3535 N3531 0.985 . S
H3536 N3530 0.984 . S
H3537 N3530 0.984 . S
H3538 N3526 0.984 . S
H3539 N3526 0.985 . S
C3540 C3541 1.363 . S
C3540 C3546 1.379 . S
C3540 N3548 1.356 . S
C3541 C3540 1.363 . S
C3541 C3547 1.363 . S
C3542 C3543 1.363 . S
C3542 C3547 1.379 . S
C3542 N3549 1.356 . S
C3543 C3542 1.363 . S
C3543 C3546 1.363 . S
N3544 C3546 1.356 . S
N3544 H3556 0.984 . S
N3544 H3557 0.985 . S
N3545 C3547 1.356 . S
N3545 H3550 0.984 . S
N3545 H3551 0.985 . S
C3546 C3540 1.379 . S
C3546 C3543 1.363 . S
C3546 N3544 1.356 . S
C3547 C3541 1.363 . S
C3547 C3542 1.379 . S
C3547 N3545 1.356 . S
N3548 C3540 1.356 . S
N3548 H3554 0.984 . S
N3548 H3555 0.984 . S
N3549 C3542 1.356 . S
N3549 H3552 0.984 . S
N3549 H3553 0.985 . S
H3550 N3545 0.984 . S
H3551 N3545 0.985 . S
H3552 N3549 0.984 . S
H3553 N3549 0.985 . S
H3554 N3548 0.984 . S
H3555 N3548 0.984 . S
H3556 N3544 0.984 . S
H3557 N3544 0.985 . S
C3558 C3559 1.363 . S
C3558 C3564 1.379 . S
C3558 N3566 1.356 . S
C3559 C3558 1.363 . S
C3559 C3565 1.363 . S
C3560 C3561 1.363 . S
C3560 C3565 1.379 . S
C3560 N3567 1.356 . S
C3561 C3560 1.363 . S
C3561 C3564 1.363 . S
N3562 C3564 1.356 . S
N3562 H3574 0.984 . S
N3562 H3575 0.985 . S
N3563 C3565 1.356 . S
N3563 H3568 0.984 . S
N3563 H3569 0.985 . S
C3564 C3558 1.379 . S
C3564 C3561 1.363 . S
C3564 N3562 1.356 . S
C3565 C3559 1.363 . S
C3565 C3560 1.379 . S
C3565 N3563 1.356 . S
N3566 C3558 1.356 . S
N3566 H3572 0.984 . S
N3566 H3573 0.984 . S
N3567 C3560 1.356 . S
N3567 H3570 0.984 . S
N3567 H3571 0.985 . S
H3568 N3563 0.984 . S
H3569 N3563 0.985 . S
H3570 N3567 0.984 . S
H3571 N3567 0.985 . S
H3572 N3566 0.984 . S
H3573 N3566 0.984 . S
H3574 N3562 0.984 . S
H3575 N3562 0.985 . S
C3576 C3577 1.363 . S
C3576 C3582 1.379 . S
C3576 N3584 1.356 1_565 S
C3577 C3576 1.363 . S
C3577 C3583 1.363 . S
C3578 C3579 1.363 . S
C3578 C3583 1.379 . S
C3578 N3585 1.356 . S
C3579 C3578 1.363 . S
C3579 C3582 1.363 . S
N3580 C3582 1.356 . S
N3580 H3592 0.984 . S
N3580 H3593 0.985 . S
N3581 C3583 1.356 . S
N3581 H3586 0.984 . S
N3581 H3587 0.985 . S
C3582 C3576 1.379 . S
C3582 C3579 1.363 . S
C3582 N3580 1.356 . S
C3583 C3577 1.363 . S
C3583 C3578 1.379 . S
C3583 N3581 1.356 . S
N3584 C3576 1.356 1_545 S
N3584 H3590 0.984 . S
N3584 H3591 0.984 . S
N3585 C3578 1.356 . S
N3585 H3588 0.984 . S
N3585 H3589 0.985 . S
H3586 N3581 0.984 . S
H3587 N3581 0.985 . S
H3588 N3585 0.984 . S
H3589 N3585 0.985 . S
H3590 N3584 0.984 . S
H3591 N3584 0.984 . S
H3592 N3580 0.984 . S
H3593 N3580 0.985 . S
C3594 C3595 1.363 . S
C3594 C3600 1.379 . S
C3594 N3602 1.356 . S
C3595 C3594 1.363 . S
C3595 C3601 1.363 . S
C3596 C3597 1.363 . S
C3596 C3601 1.379 . S
C3596 N3603 1.356 . S
C3597 C3596 1.363 . S
C3597 C3600 1.363 . S
N3598 C3600 1.356 . S
N3598 H3610 0.984 . S
N3598 H3611 0.985 . S
N3599 C3601 1.356 . S
N3599 H3604 0.984 . S
N3599 H3605 0.985 . S
C3600 C3594 1.379 . S
C3600 C3597 1.363 . S
C3600 N3598 1.356 . S
C3601 C3595 1.363 . S
C3601 C3596 1.379 . S
C3601 N3599 1.356 . S
N3602 C3594 1.356 . S
N3602 H3608 0.984 . S
N3602 H3609 0.984 . S
N3603 C3596 1.356 . S
N3603 H3606 0.984 . S
N3603 H3607 0.985 . S
H3604 N3599 0.984 . S
H3605 N3599 0.985 . S
H3606 N3603 0.984 . S
H3607 N3603 0.985 . S
H3608 N3602 0.984 . S
H3609 N3602 0.984 . S
H3610 N3598 0.984 . S
H3611 N3598 0.985 . S
C3612 C3613 1.363 . S
C3612 C3618 1.379 . S
C3612 N3620 1.356 . S
C3613 C3612 1.363 . S
C3613 C3619 1.363 . S
C3614 C3615 1.363 . S
C3614 C3619 1.379 . S
C3614 N3621 1.356 . S
C3615 C3614 1.363 . S
C3615 C3618 1.363 . S
N3616 C3618 1.356 . S
N3616 H3628 0.984 . S
N3616 H3629 0.985 . S
N3617 C3619 1.356 . S
N3617 H3622 0.984 . S
N3617 H3623 0.985 . S
C3618 C3612 1.379 . S
C3618 C3615 1.363 . S
C3618 N3616 1.356 . S
C3619 C3613 1.363 . S
C3619 C3614 1.379 . S
C3619 N3617 1.356 . S
N3620 C3612 1.356 . S
N3620 H3626 0.984 . S
N3620 H3627 0.984 . S
N3621 C3614 1.356 . S
N3621 H3624 0.984 . S
N3621 H3625 0.985 . S
H3622 N3617 0.984 . S
H3623 N3617 0.985 . S
H3624 N3621 0.984 . S
H3625 N3621 0.985 . S
H3626 N3620 0.984 . S
H3627 N3620 0.984 . S
H3628 N3616 0.984 . S
H3629 N3616 0.985 . S
C3630 C3631 1.363 . S
C3630 C3636 1.379 . S
C3630 N3638 1.356 . S
C3631 C3630 1.363 . S
C3631 C3637 1.363 . S
C3632 C3633 1.363 . S
C3632 C3637 1.379 . S
C3632 N3639 1.356 . S
C3633 C3632 1.363 . S
C3633 C3636 1.363 . S
N3634 C3636 1.356 . S
N3634 H3646 0.984 . S
N3634 H3647 0.985 . S
N3635 C3637 1.356 . S
N3635 H3640 0.984 . S
N3635 H3641 0.985 . S
C3636 C3630 1.379 . S
C3636 C3633 1.363 . S
C3636 N3634 1.356 . S
C3637 C3631 1.363 . S
C3637 C3632 1.379 . S
C3637 N3635 1.356 . S
N3638 C3630 1.356 . S
N3638 H3644 0.984 . S
N3638 H3645 0.984 . S
N3639 C3632 1.356 . S
N3639 H3642 0.984 . S
N3639 H3643 0.985 . S
H3640 N3635 0.984 . S
H3641 N3635 0.985 . S
H3642 N3639 0.984 . S
H3643 N3639 0.985 . S
H3644 N3638 0.984 . S
H3645 N3638 0.984 . S
H3646 N3634 0.984 . S
H3647 N3634 0.985 . S
C3648 C3649 1.363 . S
C3648 C3654 1.379 . S
C3648 N3656 1.356 . S
C3649 C3648 1.363 . S
C3649 C3655 1.363 . S
C3650 C3651 1.363 . S
C3650 C3655 1.379 . S
C3650 N3657 1.356 . S
C3651 C3650 1.363 . S
C3651 C3654 1.363 . S
N3652 C3654 1.356 . S
N3652 H3664 0.984 . S
N3652 H3665 0.985 . S
N3653 C3655 1.356 . S
N3653 H3658 0.984 . S
N3653 H3659 0.985 . S
C3654 C3648 1.379 . S
C3654 C3651 1.363 . S
C3654 N3652 1.356 . S
C3655 C3649 1.363 . S
C3655 C3650 1.379 . S
C3655 N3653 1.356 . S
N3656 C3648 1.356 . S
N3656 H3662 0.984 . S
N3656 H3663 0.984 . S
N3657 C3650 1.356 . S
N3657 H3660 0.984 . S
N3657 H3661 0.985 . S
H3658 N3653 0.984 . S
H3659 N3653 0.985 . S
H3660 N3657 0.984 . S
H3661 N3657 0.985 . S
H3662 N3656 0.984 . S
H3663 N3656 0.984 . S
H3664 N3652 0.984 . S
H3665 N3652 0.985 . S
C3666 C3667 1.363 . S
C3666 C3672 1.379 . S
C3666 N3674 1.356 . S
C3667 C3666 1.363 . S
C3667 C3673 1.363 . S
C3668 C3669 1.363 . S
C3668 C3673 1.379 . S
C3668 N3675 1.356 . S
C3669 C3668 1.363 . S
C3669 C3672 1.363 . S
N3670 C3672 1.356 . S
N3670 H3682 0.984 . S
N3670 H3683 0.985 . S
N3671 C3673 1.356 . S
N3671 H3676 0.984 . S
N3671 H3677 0.985 . S
C3672 C3666 1.379 . S
C3672 C3669 1.363 . S
C3672 N3670 1.356 . S
C3673 C3667 1.363 . S
C3673 C3668 1.379 . S
C3673 N3671 1.356 . S
N3674 C3666 1.356 . S
N3674 H3680 0.984 . S
N3674 H3681 0.984 . S
N3675 C3668 1.356 . S
N3675 H3678 0.984 . S
N3675 H3679 0.985 . S
H3676 N3671 0.984 . S
H3677 N3671 0.985 . S
H3678 N3675 0.984 . S
H3679 N3675 0.985 . S
H3680 N3674 0.984 . S
H3681 N3674 0.984 . S
H3682 N3670 0.984 . S
H3683 N3670 0.985 . S
C3684 C3685 1.363 . S
C3684 C3690 1.379 . S
C3684 N3692 1.356 . S
C3685 C3684 1.363 . S
C3685 C3691 1.363 . S
C3686 C3687 1.363 . S
C3686 C3691 1.379 . S
C3686 N3693 1.356 . S
C3687 C3686 1.363 . S
C3687 C3690 1.363 . S
N3688 C3690 1.356 . S
N3688 H3700 0.984 . S
N3688 H3701 0.985 . S
N3689 C3691 1.356 . S
N3689 H3694 0.984 . S
N3689 H3695 0.985 . S
C3690 C3684 1.379 . S
C3690 C3687 1.363 . S
C3690 N3688 1.356 . S
C3691 C3685 1.363 . S
C3691 C3686 1.379 . S
C3691 N3689 1.356 . S
N3692 C3684 1.356 . S
N3692 H3698 0.984 . S
N3692 H3699 0.984 . S
N3693 C3686 1.356 . S
N3693 H3696 0.984 . S
N3693 H3697 0.985 . S
H3694 N3689 0.984 . S
H3695 N3689 0.985 . S
H3696 N3693 0.984 . S
H3697 N3693 0.985 . S
H3698 N3692 0.984 . S
H3699 N3692 0.984 . S
H3700 N3688 0.984 . S
H3701 N3688 0.985 . S
C3702 C3703 1.363 . S
C3702 C3708 1.379 . S
C3702 N3710 1.356 . S
C3703 C3702 1.363 . S
C3703 C3709 1.363 1_455 S
C3704 C3705 1.363 1_655 S
C3704 C3709 1.379 . S
C3704 N3711 1.356 . S
C3705 C3704 1.363 1_455 S
C3705 C3708 1.363 . S
N3706 C3708 1.356 . S
N3706 H3718 0.984 . S
N3706 H3719 0.985 . S
N3707 C3709 1.356 . S
N3707 H3712 0.984 . S
N3707 H3713 0.985 . S
C3708 C3702 1.379 . S
C3708 C3705 1.363 . S
C3708 N3706 1.356 . S
C3709 C3703 1.363 1_655 S
C3709 C3704 1.379 . S
C3709 N3707 1.356 . S
N3710 C3702 1.356 . S
N3710 H3716 0.984 . S
N3710 H3717 0.984 . S
N3711 C3704 1.356 . S
N3711 H3714 0.984 . S
N3711 H3715 0.985 . S
H3712 N3707 0.984 . S
H3713 N3707 0.985 . S
H3714 N3711 0.984 . S
H3715 N3711 0.985 . S
H3716 N3710 0.984 . S
H3717 N3710 0.984 . S
H3718 N3706 0.984 . S
H3719 N3706 0.985 . S
C3720 C3721 1.363 . S
C3720 C3726 1.379 . S
C3720 N3728 1.356 . S
C3721 C3720 1.363 . S
C3721 C3727 1.363 . S
C3722 C3723 1.363 . S
C3722 C3727 1.379 . S
C3722 N3729 1.356 . S
C3723 C3722 1.363 . S
C3723 C3726 1.363 . S
N3724 C3726 1.356 . S
N3724 H3736 0.984 . S
N3724 H3737 0.985 . S
N3725 C3727 1.356 . S
N3725 H3730 0.984 . S
N3725 H3731 0.985 . S
C3726 C3720 1.379 . S
C3726 C3723 1.363 . S
C3726 N3724 1.356 . S
C3727 C3721 1.363 . S
C3727 C3722 1.379 . S
C3727 N3725 1.356 . S
N3728 C3720 1.356 . S
N3728 H3734 0.984 . S
N3728 H3735 0.984 . S
N3729 C3722 1.356 . S
N3729 H3732 0.984 . S
N3729 H3733 0.985 . S
H3730 N3725 0.984 . S
H3731 N3725 0.985 . S
H3732 N3729 0.984 . S
H3733 N3729 0.985 . S
H3734 N3728 0.984 . S
H3735 N3728 0.984 . S
H3736 N3724 0.984 . S
H3737 N3724 0.985 . S
C3738 C3739 1.363 . S
C3738 C3744 1.379 . S
C3738 N3746 1.356 . S
C3739 C3738 1.363 . S
C3739 C3745 1.363 . S
C3740 C3741 1.363 . S
C3740 C3745 1.379 . S
C3740 N3747 1.356 . S
C3741 C3740 1.363 . S
C3741 C3744 1.363 . S
N3742 C3744 1.356 . S
N3742 H3754 0.984 . S
N3742 H3755 0.985 . S
N3743 C3745 1.356 . S
N3743 H3748 0.984 . S
N3743 H3749 0.985 . S
C3744 C3738 1.379 . S
C3744 C3741 1.363 . S
C3744 N3742 1.356 . S
C3745 C3739 1.363 . S
C3745 C3740 1.379 . S
C3745 N3743 1.356 . S
N3746 C3738 1.356 . S
N3746 H3752 0.984 . S
N3746 H3753 0.984 . S
N3747 C3740 1.356 . S
N3747 H3750 0.984 . S
N3747 H3751 0.985 . S
H3748 N3743 0.984 . S
H3749 N3743 0.985 . S
H3750 N3747 0.984 . S
H3751 N3747 0.985 . S
H3752 N3746 0.984 . S
H3753 N3746 0.984 . S
H3754 N3742 0.984 . S
H3755 N3742 0.985 . S
C3756 C3757 1.363 . S
C3756 C3762 1.379 . S
C3756 N3764 1.356 . S
C3757 C3756 1.363 . S
C3757 C3763 1.363 . S
C3758 C3759 1.363 . S
C3758 C3763 1.379 . S
C3758 N3765 1.356 . S
C3759 C3758 1.363 . S
C3759 C3762 1.363 . S
N3760 C3762 1.356 . S
N3760 H3772 0.984 . S
N3760 H3773 0.985 . S
N3761 C3763 1.356 . S
N3761 H3766 0.984 1_554 S
N3761 H3767 0.985 1_554 S
C3762 C3756 1.379 . S
C3762 C3759 1.363 . S
C3762 N3760 1.356 . S
C3763 C3757 1.363 . S
C3763 C3758 1.379 . S
C3763 N3761 1.356 . S
N3764 C3756 1.356 . S
N3764 H3770 0.984 . S
N3764 H3771 0.984 . S
N3765 C3758 1.356 . S
N3765 H3768 0.984 . S
N3765 H3769 0.985 . S
H3766 N3761 0.984 1_556 S
H3767 N3761 0.985 1_556 S
H3768 N3765 0.984 . S
H3769 N3765 0.985 . S
H3770 N3764 0.984 . S
H3771 N3764 0.984 . S
H3772 N3760 0.984 . S
H3773 N3760 0.985 . S
C3774 C3775 1.363 . S
C3774 C3780 1.379 . S
C3774 N3782 1.356 . S
C3775 C3774 1.363 . S
C3775 C3781 1.363 . S
C3776 C3777 1.363 . S
C3776 C3781 1.379 . S
C3776 N3783 1.356 . S
C3777 C3776 1.363 . S
C3777 C3780 1.363 . S
N3778 C3780 1.356 . S
N3778 H3790 0.984 . S
N3778 H3791 0.985 . S
N3779 C3781 1.356 . S
N3779 H3784 0.984 . S
N3779 H3785 0.985 . S
C3780 C3774 1.379 . S
C3780 C3777 1.363 . S
C3780 N3778 1.356 . S
C3781 C3775 1.363 . S
C3781 C3776 1.379 . S
C3781 N3779 1.356 . S
N3782 C3774 1.356 . S
N3782 H3788 0.984 . S
N3782 H3789 0.984 . S
N3783 C3776 1.356 . S
N3783 H3786 0.984 . S
N3783 H3787 0.985 . S
H3784 N3779 0.984 . S
H3785 N3779 0.985 . S
H3786 N3783 0.984 . S
H3787 N3783 0.985 . S
H3788 N3782 0.984 . S
H3789 N3782 0.984 . S
H3790 N3778 0.984 . S
H3791 N3778 0.985 . S
C3792 C3793 1.363 . S
C3792 C3798 1.379 . S
C3792 N3800 1.356 . S
C3793 C3792 1.363 . S
C3793 C3799 1.363 . S
C3794 C3795 1.363 . S
C3794 C3799 1.379 . S
C3794 N3801 1.356 . S
C3795 C3794 1.363 . S
C3795 C3798 1.363 . S
N3796 C3798 1.356 . S
N3796 H3808 0.984 . S
N3796 H3809 0.985 . S
N3797 C3799 1.356 . S
N3797 H3802 0.984 . S
N3797 H3803 0.985 . S
C3798 C3792 1.379 . S
C3798 C3795 1.363 . S
C3798 N3796 1.356 . S
C3799 C3793 1.363 . S
C3799 C3794 1.379 . S
C3799 N3797 1.356 . S
N3800 C3792 1.356 . S
N3800 H3806 0.984 . S
N3800 H3807 0.984 . S
N3801 C3794 1.356 . S
N3801 H3804 0.984 . S
N3801 H3805 0.985 . S
H3802 N3797 0.984 . S
H3803 N3797 0.985 . S
H3804 N3801 0.984 . S
H3805 N3801 0.985 . S
H3806 N3800 0.984 . S
H3807 N3800 0.984 . S
H3808 N3796 0.984 . S
H3809 N3796 0.985 . S
C3810 C3811 1.363 . S
C3810 C3816 1.379 . S
C3810 N3818 1.356 . S
C3811 C3810 1.363 . S
C3811 C3817 1.363 . S
C3812 C3813 1.363 . S
C3812 C3817 1.379 . S
C3812 N3819 1.356 . S
C3813 C3812 1.363 . S
C3813 C3816 1.363 . S
N3814 C3816 1.356 . S
N3814 H3826 0.984 . S
N3814 H3827 0.985 . S
N3815 C3817 1.356 . S
N3815 H3820 0.984 . S
N3815 H3821 0.985 . S
C3816 C3810 1.379 . S
C3816 C3813 1.363 . S
C3816 N3814 1.356 . S
C3817 C3811 1.363 . S
C3817 C3812 1.379 . S
C3817 N3815 1.356 . S
N3818 C3810 1.356 . S
N3818 H3824 0.984 . S
N3818 H3825 0.984 . S
N3819 C3812 1.356 . S
N3819 H3822 0.984 . S
N3819 H3823 0.985 . S
H3820 N3815 0.984 . S
H3821 N3815 0.985 . S
H3822 N3819 0.984 . S
H3823 N3819 0.985 . S
H3824 N3818 0.984 . S
H3825 N3818 0.984 . S
H3826 N3814 0.984 . S
H3827 N3814 0.985 . S
C3828 C3829 1.363 . S
C3828 C3834 1.379 . S
C3828 N3836 1.356 . S
C3829 C3828 1.363 . S
C3829 C3835 1.363 . S
C3830 C3831 1.363 . S
C3830 C3835 1.379 . S
C3830 N3837 1.356 . S
C3831 C3830 1.363 . S
C3831 C3834 1.363 . S
N3832 C3834 1.356 . S
N3832 H3844 0.984 . S
N3832 H3845 0.985 . S
N3833 C3835 1.356 . S
N3833 H3838 0.984 . S
N3833 H3839 0.985 . S
C3834 C3828 1.379 . S
C3834 C3831 1.363 . S
C3834 N3832 1.356 . S
C3835 C3829 1.363 . S
C3835 C3830 1.379 . S
C3835 N3833 1.356 . S
N3836 C3828 1.356 . S
N3836 H3842 0.984 . S
N3836 H3843 0.984 . S
N3837 C3830 1.356 . S
N3837 H3840 0.984 . S
N3837 H3841 0.985 . S
H3838 N3833 0.984 . S
H3839 N3833 0.985 . S
H3840 N3837 0.984 . S
H3841 N3837 0.985 . S
H3842 N3836 0.984 . S
H3843 N3836 0.984 . S
H3844 N3832 0.984 . S
H3845 N3832 0.985 . S
C3846 C3847 1.363 . S
C3846 C3852 1.379 . S
C3846 N3854 1.356 . S
C3847 C3846 1.363 . S
C3847 C3853 1.363 . S
C3848 C3849 1.363 . S
C3848 C3853 1.379 . S
C3848 N3855 1.356 . S
C3849 C3848 1.363 . S
C3849 C3852 1.363 . S
N3850 C3852 1.356 . S
N3850 H3862 0.984 . S
N3850 H3863 0.985 . S
N3851 C3853 1.356 . S
N3851 H3856 0.984 . S
N3851 H3857 0.985 . S
C3852 C3846 1.379 . S
C3852 C3849 1.363 . S
C3852 N3850 1.356 . S
C3853 C3847 1.363 . S
C3853 C3848 1.379 . S
C3853 N3851 1.356 . S
N3854 C3846 1.356 . S
N3854 H3860 0.984 . S
N3854 H3861 0.984 . S
N3855 C3848 1.356 . S
N3855 H3858 0.984 . S
N3855 H3859 0.985 . S
H3856 N3851 0.984 . S
H3857 N3851 0.985 . S
H3858 N3855 0.984 . S
H3859 N3855 0.985 . S
H3860 N3854 0.984 . S
H3861 N3854 0.984 . S
H3862 N3850 0.984 . S
H3863 N3850 0.985 . S
C3864 C3865 1.363 . S
C3864 C3870 1.379 . S
C3864 N3872 1.356 . S
C3865 C3864 1.363 . S
C3865 C3871 1.363 . S
C3866 C3867 1.363 . S
C3866 C3871 1.379 . S
C3866 N3873 1.356 . S
C3867 C3866 1.363 . S
C3867 C3870 1.363 . S
N3868 C3870 1.356 . S
N3868 H3880 0.984 . S
N3868 H3881 0.985 . S
N3869 C3871 1.356 . S
N3869 H3874 0.984 . S
N3869 H3875 0.985 . S
C3870 C3864 1.379 . S
C3870 C3867 1.363 . S
C3870 N3868 1.356 . S
C3871 C3865 1.363 . S
C3871 C3866 1.379 . S
C3871 N3869 1.356 . S
N3872 C3864 1.356 . S
N3872 H3878 0.984 . S
N3872 H3879 0.984 . S
N3873 C3866 1.356 . S
N3873 H3876 0.984 . S
N3873 H3877 0.985 . S
H3874 N3869 0.984 . S
H3875 N3869 0.985 . S
H3876 N3873 0.984 . S
H3877 N3873 0.985 . S
H3878 N3872 0.984 . S
H3879 N3872 0.984 . S
H3880 N3868 0.984 . S
H3881 N3868 0.985 . S
C3882 C3883 1.363 1_556 S
C3882 C3888 1.379 1_556 S
C3882 N3890 1.356 . S
C3883 C3882 1.363 1_554 S
C3883 C3889 1.363 . S
C3884 C3885 1.363 . S
C3884 C3889 1.379 . S
C3884 N3891 1.356 . S
C3885 C3884 1.363 . S
C3885 C3888 1.363 . S
N3886 C3888 1.356 1_556 S
N3886 H3898 0.984 . S
N3886 H3899 0.985 1_556 S
N3887 C3889 1.356 . S
N3887 H3892 0.984 . S
N3887 H3893 0.985 . S
C3888 C3882 1.379 1_554 S
C3888 C3885 1.363 . S
C3888 N3886 1.356 1_554 S
C3889 C3883 1.363 . S
C3889 C3884 1.379 . S
C3889 N3887 1.356 . S
N3890 C3882 1.356 . S
N3890 H3896 0.984 . S
N3890 H3897 0.984 . S
N3891 C3884 1.356 . S
N3891 H3894 0.984 . S
N3891 H3895 0.985 . S
H3892 N3887 0.984 . S
H3893 N3887 0.985 . S
H3894 N3891 0.984 . S
H3895 N3891 0.985 . S
H3896 N3890 0.984 . S
H3897 N3890 0.984 . S
H3898 N3886 0.984 . S
H3899 N3886 0.985 1_554 S
C3900 C3901 1.363 . S
C3900 C3906 1.379 . S
C3900 N3908 1.356 . S
C3901 C3900 1.363 . S
C3901 C3907 1.363 . S
C3902 C3903 1.363 . S
C3902 C3907 1.379 . S
C3902 N3909 1.356 . S
C3903 C3902 1.363 . S
C3903 C3906 1.363 . S
N3904 C3906 1.356 . S
N3904 H3916 0.984 . S
N3904 H3917 0.985 . S
N3905 C3907 1.356 . S
N3905 H3910 0.984 . S
N3905 H3911 0.985 . S
C3906 C3900 1.379 . S
C3906 C3903 1.363 . S
C3906 N3904 1.356 . S
C3907 C3901 1.363 . S
C3907 C3902 1.379 . S
C3907 N3905 1.356 . S
N3908 C3900 1.356 . S
N3908 H3914 0.984 . S
N3908 H3915 0.984 . S
N3909 C3902 1.356 . S
N3909 H3912 0.984 . S
N3909 H3913 0.985 . S
H3910 N3905 0.984 . S
H3911 N3905 0.985 . S
H3912 N3909 0.984 . S
H3913 N3909 0.985 . S
H3914 N3908 0.984 . S
H3915 N3908 0.984 . S
H3916 N3904 0.984 . S
H3917 N3904 0.985 . S
C3918 C3919 1.363 . S
C3918 C3924 1.379 . S
C3918 N3926 1.356 . S
C3919 C3918 1.363 . S
C3919 C3925 1.363 . S
C3920 C3921 1.363 . S
C3920 C3925 1.379 . S
C3920 N3927 1.356 . S
C3921 C3920 1.363 . S
C3921 C3924 1.363 . S
N3922 C3924 1.356 . S
N3922 H3934 0.984 . S
N3922 H3935 0.985 . S
N3923 C3925 1.356 . S
N3923 H3928 0.984 . S
N3923 H3929 0.985 . S
C3924 C3918 1.379 . S
C3924 C3921 1.363 . S
C3924 N3922 1.356 . S
C3925 C3919 1.363 . S
C3925 C3920 1.379 . S
C3925 N3923 1.356 . S
N3926 C3918 1.356 . S
N3926 H3932 0.984 . S
N3926 H3933 0.984 . S
N3927 C3920 1.356 . S
N3927 H3930 0.984 . S
N3927 H3931 0.985 . S
H3928 N3923 0.984 . S
H3929 N3923 0.985 . S
H3930 N3927 0.984 . S
H3931 N3927 0.985 . S
H3932 N3926 0.984 . S
H3933 N3926 0.984 . S
H3934 N3922 0.984 . S
H3935 N3922 0.985 . S
C3936 C3937 1.363 . S
C3936 C3942 1.379 . S
C3936 N3944 1.356 . S
C3937 C3936 1.363 . S
C3937 C3943 1.363 . S
C3938 C3939 1.363 . S
C3938 C3943 1.379 . S
C3938 N3945 1.356 . S
C3939 C3938 1.363 . S
C3939 C3942 1.363 . S
N3940 C3942 1.356 . S
N3940 H3952 0.984 . S
N3940 H3953 0.985 . S
N3941 C3943 1.356 . S
N3941 H3946 0.984 . S
N3941 H3947 0.985 . S
C3942 C3936 1.379 . S
C3942 C3939 1.363 . S
C3942 N3940 1.356 . S
C3943 C3937 1.363 . S
C3943 C3938 1.379 . S
C3943 N3941 1.356 . S
N3944 C3936 1.356 . S
N3944 H3950 0.984 . S
N3944 H3951 0.984 . S
N3945 C3938 1.356 . S
N3945 H3948 0.984 . S
N3945 H3949 0.985 . S
H3946 N3941 0.984 . S
H3947 N3941 0.985 . S
H3948 N3945 0.984 . S
H3949 N3945 0.985 . S
H3950 N3944 0.984 . S
H3951 N3944 0.984 . S
H3952 N3940 0.984 . S
H3953 N3940 0.985 . S
C3954 C3955 1.363 . S
C3954 C3960 1.379 . S
C3954 N3962 1.356 . S
C3955 C3954 1.363 . S
C3955 C3961 1.363 . S
C3956 C3957 1.363 . S
C3956 C3961 1.379 . S
C3956 N3963 1.356 . S
C3957 C3956 1.363 . S
C3957 C3960 1.363 . S
N3958 C3960 1.356 . S
N3958 H3970 0.984 . S
N3958 H3971 0.985 . S
N3959 C3961 1.356 . S
N3959 H3964 0.984 . S
N3959 H3965 0.985 . S
C3960 C3954 1.379 . S
C3960 C3957 1.363 . S
C3960 N3958 1.356 . S
C3961 C3955 1.363 . S
C3961 C3956 1.379 . S
C3961 N3959 1.356 . S
N3962 C3954 1.356 . S
N3962 H3968 0.984 . S
N3962 H3969 0.984 . S
N3963 C3956 1.356 . S
N3963 H3966 0.984 . S
N3963 H3967 0.985 . S
H3964 N3959 0.984 . S
H3965 N3959 0.985 . S
H3966 N3963 0.984 . S
H3967 N3963 0.985 . S
H3968 N3962 0.984 . S
H3969 N3962 0.984 . S
H3970 N3958 0.984 . S
H3971 N3958 0.985 . S
C3972 C3973 1.363 . S
C3972 C3978 1.379 . S
C3972 N3980 1.356 . S
C3973 C3972 1.363 . S
C3973 C3979 1.363 . S
C3974 C3975 1.363 . S
C3974 C3979 1.379 . S
C3974 N3981 1.356 . S
C3975 C3974 1.363 . S
C3975 C3978 1.363 . S
N3976 C3978 1.356 . S
N3976 H3988 0.984 . S
N3976 H3989 0.985 . S
N3977 C3979 1.356 . S
N3977 H3982 0.984 . S
N3977 H3983 0.985 . S
C3978 C3972 1.379 . S
C3978 C3975 1.363 . S
C3978 N3976 1.356 . S
C3979 C3973 1.363 . S
C3979 C3974 1.379 . S
C3979 N3977 1.356 . S
N3980 C3972 1.356 . S
N3980 H3986 0.984 . S
N3980 H3987 0.984 . S
N3981 C3974 1.356 . S
N3981 H3984 0.984 . S
N3981 H3985 0.985 . S
H3982 N3977 0.984 . S
H3983 N3977 0.985 . S
H3984 N3981 0.984 . S
H3985 N3981 0.985 . S
H3986 N3980 0.984 . S
H3987 N3980 0.984 . S
H3988 N3976 0.984 . S
H3989 N3976 0.985 . S
C3990 C3991 1.363 . S
C3990 C3996 1.379 . S
C3990 N3998 1.356 . S
C3991 C3990 1.363 . S
C3991 C3997 1.363 . S
C3992 C3993 1.363 . S
C3992 C3997 1.379 . S
C3992 N3999 1.356 . S
C3993 C3992 1.363 . S
C3993 C3996 1.363 . S
N3994 C3996 1.356 . S
N3994 H4006 0.984 . S
N3994 H4007 0.985 . S
N3995 C3997 1.356 . S
N3995 H4000 0.984 . S
N3995 H4001 0.985 . S
C3996 C3990 1.379 . S
C3996 C3993 1.363 . S
C3996 N3994 1.356 . S
C3997 C3991 1.363 . S
C3997 C3992 1.379 . S
C3997 N3995 1.356 . S
N3998 C3990 1.356 . S
N3998 H4004 0.984 . S
N3998 H4005 0.984 . S
N3999 C3992 1.356 . S
N3999 H4002 0.984 . S
N3999 H4003 0.985 . S
H4000 N3995 0.984 . S
H4001 N3995 0.985 . S
H4002 N3999 0.984 . S
H4003 N3999 0.985 . S
H4004 N3998 0.984 . S
H4005 N3998 0.984 . S
H4006 N3994 0.984 . S
H4007 N3994 0.985 . S
C4008 C4009 1.363 . S
C4008 C4014 1.379 . S
C4008 N4016 1.356 . S
C4009 C4008 1.363 . S
C4009 C4015 1.363 . S
C4010 C4011 1.363 . S
C4010 C4015 1.379 . S
C4010 N4017 1.356 . S
C4011 C4010 1.363 . S
C4011 C4014 1.363 . S
N4012 C4014 1.356 . S
N4012 H4024 0.984 . S
N4012 H4025 0.985 . S
N4013 C4015 1.356 . S
N4013 H4018 0.984 . S
N4013 H4019 0.985 . S
C4014 C4008 1.379 . S
C4014 C4011 1.363 . S
C4014 N4012 1.356 . S
C4015 C4009 1.363 . S
C4015 C4010 1.379 . S
C4015 N4013 1.356 . S
N4016 C4008 1.356 . S
N4016 H4022 0.984 . S
N4016 H4023 0.984 . S
N4017 C4010 1.356 . S
N4017 H4020 0.984 . S
N4017 H4021 0.985 . S
H4018 N4013 0.984 . S
H4019 N4013 0.985 . S
H4020 N4017 0.984 . S
H4021 N4017 0.985 . S
H4022 N4016 0.984 . S
H4023 N4016 0.984 . S
H4024 N4012 0.984 . S
H4025 N4012 0.985 . S
C4026 C4027 1.363 . S
C4026 C4032 1.379 . S
C4026 N4034 1.356 . S
C4027 C4026 1.363 . S
C4027 C4033 1.363 . S
C4028 C4029 1.363 . S
C4028 C4033 1.379 . S
C4028 N4035 1.356 . S
C4029 C4028 1.363 . S
C4029 C4032 1.363 . S
N4030 C4032 1.356 . S
N4030 H4042 0.984 . S
N4030 H4043 0.985 . S
N4031 C4033 1.356 . S
N4031 H4036 0.984 . S
N4031 H4037 0.985 . S
C4032 C4026 1.379 . S
C4032 C4029 1.363 . S
C4032 N4030 1.356 . S
C4033 C4027 1.363 . S
C4033 C4028 1.379 . S
C4033 N4031 1.356 . S
N4034 C4026 1.356 . S
N4034 H4040 0.984 . S
N4034 H4041 0.984 . S
N4035 C4028 1.356 . S
N4035 H4038 0.984 . S
N4035 H4039 0.985 . S
H4036 N4031 0.984 . S
H4037 N4031 0.985 . S
H4038 N4035 0.984 . S
H4039 N4035 0.985 . S
H4040 N4034 0.984 . S
H4041 N4034 0.984 . S
H4042 N4030 0.984 . S
H4043 N4030 0.985 . S
C4044 C4045 1.363 . S
C4044 C4050 1.379 . S
C4044 N4052 1.356 1_545 S
C4045 C4044 1.363 . S
C4045 C4051 1.363 . S
C4046 C4047 1.363 . S
C4046 C4051 1.379 . S
C4046 N4053 1.356 . S
C4047 C4046 1.363 . S
C4047 C4050 1.363 . S
N4048 C4050 1.356 . S
N4048 H4060 0.984 . S
N4048 H4061 0.985 . S
N4049 C4051 1.358 1_565 S
N4049 H4054 0.982 . S
N4049 H4055 0.985 1_565 S
C4050 C4044 1.379 . S
C4050 C4047 1.363 . S
C4050 N4048 1.356 . S
C4051 C4045 1.363 . S
C4051 C4046 1.379 . S
C4051 N4049 1.358 1_545 S
N4052 C4044 1.356 1_565 S
N4052 H4058 0.984 . S
N4052 H4059 0.984 . S
N4053 C4046 1.356 . S
N4053 H4056 0.984 . S
N4053 H4057 0.985 . S
H4054 N4049 0.982 . S
H4055 N4049 0.985 1_545 S
H4056 N4053 0.984 . S
H4057 N4053 0.985 . S
H4058 N4052 0.984 . S
H4059 N4052 0.984 . S
H4060 N4048 0.984 . S
H4061 N4048 0.985 . S
C4062 C4063 1.363 . S
C4062 C4068 1.379 . S
C4062 N4070 1.356 . S
C4063 C4062 1.363 . S
C4063 C4069 1.363 . S
C4064 C4065 1.363 . S
C4064 C4069 1.379 . S
C4064 N4071 1.356 . S
C4065 C4064 1.363 . S
C4065 C4068 1.363 . S
N4066 C4068 1.356 . S
N4066 H4078 0.984 . S
N4066 H4079 0.985 . S
N4067 C4069 1.356 . S
N4067 H4072 0.984 . S
N4067 H4073 0.985 . S
C4068 C4062 1.379 . S
C4068 C4065 1.363 . S
C4068 N4066 1.356 . S
C4069 C4063 1.363 . S
C4069 C4064 1.379 . S
C4069 N4067 1.356 . S
N4070 C4062 1.356 . S
N4070 H4076 0.984 . S
N4070 H4077 0.984 . S
N4071 C4064 1.356 . S
N4071 H4074 0.984 . S
N4071 H4075 0.985 . S
H4072 N4067 0.984 . S
H4073 N4067 0.985 . S
H4074 N4071 0.984 . S
H4075 N4071 0.985 . S
H4076 N4070 0.984 . S
H4077 N4070 0.984 . S
H4078 N4066 0.984 . S
H4079 N4066 0.985 . S
C4080 C4081 1.363 . S
C4080 C4086 1.379 . S
C4080 N4088 1.356 . S
C4081 C4080 1.363 . S
C4081 C4087 1.363 . S
C4082 C4083 1.363 . S
C4082 C4087 1.379 . S
C4082 N4089 1.356 . S
C4083 C4082 1.363 . S
C4083 C4086 1.363 . S
N4084 C4086 1.356 . S
N4084 H4096 0.984 . S
N4084 H4097 0.985 . S
N4085 C4087 1.356 . S
N4085 H4090 0.984 . S
N4085 H4091 0.985 . S
C4086 C4080 1.379 . S
C4086 C4083 1.363 . S
C4086 N4084 1.356 . S
C4087 C4081 1.363 . S
C4087 C4082 1.379 . S
C4087 N4085 1.356 . S
N4088 C4080 1.356 . S
N4088 H4094 0.984 . S
N4088 H4095 0.984 . S
N4089 C4082 1.356 . S
N4089 H4092 0.984 . S
N4089 H4093 0.985 . S
H4090 N4085 0.984 . S
H4091 N4085 0.985 . S
H4092 N4089 0.984 . S
H4093 N4089 0.985 . S
H4094 N4088 0.984 . S
H4095 N4088 0.984 . S
H4096 N4084 0.984 . S
H4097 N4084 0.985 . S
C4098 C4099 1.363 . S
C4098 C4104 1.379 . S
C4098 N4106 1.356 . S
C4099 C4098 1.363 . S
C4099 C4105 1.363 . S
C4100 C4101 1.363 . S
C4100 C4105 1.379 . S
C4100 N4107 1.356 . S
C4101 C4100 1.363 . S
C4101 C4104 1.363 . S
N4102 C4104 1.356 . S
N4102 H4114 0.984 . S
N4102 H4115 0.985 . S
N4103 C4105 1.356 . S
N4103 H4108 0.984 . S
N4103 H4109 0.985 . S
C4104 C4098 1.379 . S
C4104 C4101 1.363 . S
C4104 N4102 1.356 . S
C4105 C4099 1.363 . S
C4105 C4100 1.379 . S
C4105 N4103 1.356 . S
N4106 C4098 1.356 . S
N4106 H4112 0.984 . S
N4106 H4113 0.984 . S
N4107 C4100 1.356 . S
N4107 H4110 0.984 . S
N4107 H4111 0.985 . S
H4108 N4103 0.984 . S
H4109 N4103 0.985 . S
H4110 N4107 0.984 . S
H4111 N4107 0.985 . S
H4112 N4106 0.984 . S
H4113 N4106 0.984 . S
H4114 N4102 0.984 . S
H4115 N4102 0.985 . S
C4116 C4117 1.363 . S
C4116 C4122 1.379 . S
C4116 N4124 1.356 . S
C4117 C4116 1.363 . S
C4117 C4123 1.363 . S
C4118 C4119 1.363 . S
C4118 C4123 1.379 . S
C4118 N4125 1.356 . S
C4119 C4118 1.363 . S
C4119 C4122 1.363 . S
N4120 C4122 1.356 . S
N4120 H4132 0.984 . S
N4120 H4133 0.985 . S
N4121 C4123 1.356 . S
N4121 H4126 0.984 . S
N4121 H4127 0.985 . S
C4122 C4116 1.379 . S
C4122 C4119 1.363 . S
C4122 N4120 1.356 . S
C4123 C4117 1.363 . S
C4123 C4118 1.379 . S
C4123 N4121 1.356 . S
N4124 C4116 1.356 . S
N4124 H4130 0.984 . S
N4124 H4131 0.984 . S
N4125 C4118 1.356 . S
N4125 H4128 0.984 . S
N4125 H4129 0.985 . S
H4126 N4121 0.984 . S
H4127 N4121 0.985 . S
H4128 N4125 0.984 . S
H4129 N4125 0.985 . S
H4130 N4124 0.984 . S
H4131 N4124 0.984 . S
H4132 N4120 0.984 . S
H4133 N4120 0.985 . S
C4134 C4135 1.363 1_655 S
C4134 C4140 1.379 . S
C4134 N4142 1.356 . S
C4135 C4134 1.363 1_455 S
C4135 C4141 1.363 . S
C4136 C4137 1.363 . S
C4136 C4141 1.379 . S
C4136 N4143 1.356 . S
C4137 C4136 1.363 . S
C4137 C4140 1.363 1_455 S
N4138 C4140 1.356 . S
N4138 H4150 0.984 . S
N4138 H4151 0.985 . S
N4139 C4141 1.356 . S
N4139 H4144 0.984 . S
N4139 H4145 0.985 . S
C4140 C4134 1.379 . S
C4140 C4137 1.363 1_655 S
C4140 N4138 1.356 . S
C4141 C4135 1.363 . S
C4141 C4136 1.379 . S
C4141 N4139 1.356 . S
N4142 C4134 1.356 . S
N4142 H4148 0.984 . S
N4142 H4149 0.984 . S
N4143 C4136 1.356 . S
N4143 H4146 0.984 . S
N4143 H4147 0.985 . S
H4144 N4139 0.984 . S
H4145 N4139 0.985 . S
H4146 N4143 0.984 . S
H4147 N4143 0.985 . S
H4148 N4142 0.984 . S
H4149 N4142 0.984 . S
H4150 N4138 0.984 . S
H4151 N4138 0.985 . S
C4152 C4153 1.363 . S
C4152 C4158 1.379 . S
C4152 N4160 1.356 . S
C4153 C4152 1.363 . S
C4153 C4159 1.363 . S
C4154 C4155 1.363 . S
C4154 C4159 1.379 . S
C4154 N4161 1.356 . S
C4155 C4154 1.363 . S
C4155 C4158 1.363 . S
N4156 C4158 1.356 . S
N4156 H4168 0.984 . S
N4156 H4169 0.985 . S
N4157 C4159 1.356 . S
N4157 H4162 0.984 . S
N4157 H4163 0.985 . S
C4158 C4152 1.379 . S
C4158 C4155 1.363 . S
C4158 N4156 1.356 . S
C4159 C4153 1.363 . S
C4159 C4154 1.379 . S
C4159 N4157 1.356 . S
N4160 C4152 1.356 . S
N4160 H4166 0.984 . S
N4160 H4167 0.984 . S
N4161 C4154 1.356 . S
N4161 H4164 0.984 . S
N4161 H4165 0.985 . S
H4162 N4157 0.984 . S
H4163 N4157 0.985 . S
H4164 N4161 0.984 . S
H4165 N4161 0.985 . S
H4166 N4160 0.984 . S
H4167 N4160 0.984 . S
H4168 N4156 0.984 . S
H4169 N4156 0.985 . S
C4170 C4171 1.363 . S
C4170 C4176 1.379 . S
C4170 N4178 1.356 . S
C4171 C4170 1.363 . S
C4171 C4177 1.363 . S
C4172 C4173 1.363 . S
C4172 C4177 1.379 . S
C4172 N4179 1.356 . S
C4173 C4172 1.363 . S
C4173 C4176 1.363 . S
N4174 C4176 1.356 . S
N4174 H4186 0.984 . S
N4174 H4187 0.985 . S
N4175 C4177 1.356 . S
N4175 H4180 0.984 . S
N4175 H4181 0.985 . S
C4176 C4170 1.379 . S
C4176 C4173 1.363 . S
C4176 N4174 1.356 . S
C4177 C4171 1.363 . S
C4177 C4172 1.379 . S
C4177 N4175 1.356 . S
N4178 C4170 1.356 . S
N4178 H4184 0.984 . S
N4178 H4185 0.984 . S
N4179 C4172 1.356 . S
N4179 H4182 0.984 . S
N4179 H4183 0.985 . S
H4180 N4175 0.984 . S
H4181 N4175 0.985 . S
H4182 N4179 0.984 . S
H4183 N4179 0.985 . S
H4184 N4178 0.984 . S
H4185 N4178 0.984 . S
H4186 N4174 0.984 . S
H4187 N4174 0.985 . S
C4188 C4189 1.363 . S
C4188 C4194 1.379 . S
C4188 N4196 1.356 . S
C4189 C4188 1.363 . S
C4189 C4195 1.363 . S
C4190 C4191 1.363 . S
C4190 C4195 1.379 . S
C4190 N4197 1.356 . S
C4191 C4190 1.363 . S
C4191 C4194 1.363 . S
N4192 C4194 1.356 . S
N4192 H4204 0.984 . S
N4192 H4205 0.985 . S
N4193 C4195 1.356 . S
N4193 H4198 0.984 . S
N4193 H4199 0.985 . S
C4194 C4188 1.379 . S
C4194 C4191 1.363 . S
C4194 N4192 1.356 . S
C4195 C4189 1.363 . S
C4195 C4190 1.379 . S
C4195 N4193 1.356 . S
N4196 C4188 1.356 . S
N4196 H4202 0.984 . S
N4196 H4203 0.984 . S
N4197 C4190 1.356 . S
N4197 H4200 0.984 . S
N4197 H4201 0.985 . S
H4198 N4193 0.984 . S
H4199 N4193 0.985 . S
H4200 N4197 0.984 . S
H4201 N4197 0.985 . S
H4202 N4196 0.984 . S
H4203 N4196 0.984 . S
H4204 N4192 0.984 . S
H4205 N4192 0.985 . S
C4206 C4207 1.363 . S
C4206 C4212 1.379 . S
C4206 N4214 1.356 . S
C4207 C4206 1.363 . S
C4207 C4213 1.363 . S
C4208 C4209 1.363 . S
C4208 C4213 1.379 . S
C4208 N4215 1.356 . S
C4209 C4208 1.363 . S
C4209 C4212 1.363 . S
N4210 C4212 1.356 . S
N4210 H4222 0.984 . S
N4210 H4223 0.985 . S
N4211 C4213 1.356 . S
N4211 H4216 0.984 . S
N4211 H4217 0.985 . S
C4212 C4206 1.379 . S
C4212 C4209 1.363 . S
C4212 N4210 1.356 . S
C4213 C4207 1.363 . S
C4213 C4208 1.379 . S
C4213 N4211 1.356 . S
N4214 C4206 1.356 . S
N4214 H4220 0.984 . S
N4214 H4221 0.984 . S
N4215 C4208 1.356 . S
N4215 H4218 0.984 . S
N4215 H4219 0.985 . S
H4216 N4211 0.984 . S
H4217 N4211 0.985 . S
H4218 N4215 0.984 . S
H4219 N4215 0.985 . S
H4220 N4214 0.984 . S
H4221 N4214 0.984 . S
H4222 N4210 0.984 . S
H4223 N4210 0.985 . S
C4224 C4225 1.363 . S
C4224 C4230 1.379 . S
C4224 N4232 1.356 . S
C4225 C4224 1.363 . S
C4225 C4231 1.363 . S
C4226 C4227 1.363 . S
C4226 C4231 1.379 . S
C4226 N4233 1.356 . S
C4227 C4226 1.363 . S
C4227 C4230 1.363 . S
N4228 C4230 1.356 . S
N4228 H4240 0.984 . S
N4228 H4241 0.985 . S
N4229 C4231 1.356 . S
N4229 H4234 0.984 . S
N4229 H4235 0.985 . S
C4230 C4224 1.379 . S
C4230 C4227 1.363 . S
C4230 N4228 1.356 . S
C4231 C4225 1.363 . S
C4231 C4226 1.379 . S
C4231 N4229 1.356 . S
N4232 C4224 1.356 . S
N4232 H4238 0.984 . S
N4232 H4239 0.984 . S
N4233 C4226 1.356 . S
N4233 H4236 0.984 . S
N4233 H4237 0.985 . S
H4234 N4229 0.984 . S
H4235 N4229 0.985 . S
H4236 N4233 0.984 . S
H4237 N4233 0.985 . S
H4238 N4232 0.984 . S
H4239 N4232 0.984 . S
H4240 N4228 0.984 . S
H4241 N4228 0.985 . S
C4242 C4243 1.363 . S
C4242 C4248 1.379 . S
C4242 N4250 1.356 . S
C4243 C4242 1.363 . S
C4243 C4249 1.363 . S
C4244 C4245 1.363 . S
C4244 C4249 1.379 . S
C4244 N4251 1.356 . S
C4245 C4244 1.363 . S
C4245 C4248 1.363 . S
N4246 C4248 1.356 . S
N4246 H4258 0.984 . S
N4246 H4259 0.985 . S
N4247 C4249 1.356 . S
N4247 H4252 0.984 . S
N4247 H4253 0.985 . S
C4248 C4242 1.379 . S
C4248 C4245 1.363 . S
C4248 N4246 1.356 . S
C4249 C4243 1.363 . S
C4249 C4244 1.379 . S
C4249 N4247 1.356 . S
N4250 C4242 1.356 . S
N4250 H4256 0.984 . S
N4250 H4257 0.984 . S
N4251 C4244 1.356 . S
N4251 H4254 0.984 . S
N4251 H4255 0.985 . S
H4252 N4247 0.984 . S
H4253 N4247 0.985 . S
H4254 N4251 0.984 . S
H4255 N4251 0.985 . S
H4256 N4250 0.984 . S
H4257 N4250 0.984 . S
H4258 N4246 0.984 . S
H4259 N4246 0.985 . S
C4260 C4261 1.363 . S
C4260 C4266 1.379 . S
C4260 N4268 1.356 . S
C4261 C4260 1.363 . S
C4261 C4267 1.363 . S
C4262 C4263 1.363 . S
C4262 C4267 1.379 . S
C4262 N4269 1.356 . S
C4263 C4262 1.363 . S
C4263 C4266 1.363 . S
N4264 C4266 1.356 . S
N4264 H4276 0.984 . S
N4264 H4277 0.985 . S
N4265 C4267 1.356 . S
N4265 H4270 0.984 . S
N4265 H4271 0.985 . S
C4266 C4260 1.379 . S
C4266 C4263 1.363 . S
C4266 N4264 1.356 . S
C4267 C4261 1.363 . S
C4267 C4262 1.379 . S
C4267 N4265 1.356 . S
N4268 C4260 1.356 . S
N4268 H4274 0.984 . S
N4268 H4275 0.984 . S
N4269 C4262 1.356 . S
N4269 H4272 0.984 . S
N4269 H4273 0.985 . S
H4270 N4265 0.984 . S
H4271 N4265 0.985 . S
H4272 N4269 0.984 . S
H4273 N4269 0.985 . S
H4274 N4268 0.984 . S
H4275 N4268 0.984 . S
H4276 N4264 0.984 . S
H4277 N4264 0.985 . S
C4278 C4279 1.363 . S
C4278 C4284 1.379 . S
C4278 N4286 1.356 . S
C4279 C4278 1.363 . S
C4279 C4285 1.363 . S
C4280 C4281 1.363 . S
C4280 C4285 1.379 . S
C4280 N4287 1.356 . S
C4281 C4280 1.363 . S
C4281 C4284 1.363 . S
N4282 C4284 1.356 . S
N4282 H4294 0.984 . S
N4282 H4295 0.985 . S
N4283 C4285 1.356 . S
N4283 H4288 0.984 . S
N4283 H4289 0.985 . S
C4284 C4278 1.379 . S
C4284 C4281 1.363 . S
C4284 N4282 1.356 . S
C4285 C4279 1.363 . S
C4285 C4280 1.379 . S
C4285 N4283 1.356 . S
N4286 C4278 1.356 . S
N4286 H4292 0.984 . S
N4286 H4293 0.984 . S
N4287 C4280 1.356 . S
N4287 H4290 0.984 . S
N4287 H4291 0.985 . S
H4288 N4283 0.984 . S
H4289 N4283 0.985 . S
H4290 N4287 0.984 . S
H4291 N4287 0.985 . S
H4292 N4286 0.984 . S
H4293 N4286 0.984 . S
H4294 N4282 0.984 . S
H4295 N4282 0.985 . S
C4296 C4297 1.363 . S
C4296 C4302 1.379 . S
C4296 N4304 1.356 . S
C4297 C4296 1.363 . S
C4297 C4303 1.363 . S
C4298 C4299 1.363 . S
C4298 C4303 1.379 . S
C4298 N4305 1.356 . S
C4299 C4298 1.363 . S
C4299 C4302 1.363 . S
N4300 C4302 1.356 . S
N4300 H4312 0.984 . S
N4300 H4313 0.985 . S
N4301 C4303 1.356 . S
N4301 H4306 0.984 . S
N4301 H4307 0.985 . S
C4302 C4296 1.379 . S
C4302 C4299 1.363 . S
C4302 N4300 1.356 . S
C4303 C4297 1.363 . S
C4303 C4298 1.379 . S
C4303 N4301 1.356 . S
N4304 C4296 1.356 . S
N4304 H4310 0.984 . S
N4304 H4311 0.984 . S
N4305 C4298 1.356 . S
N4305 H4308 0.984 . S
N4305 H4309 0.985 . S
H4306 N4301 0.984 . S
H4307 N4301 0.985 . S
H4308 N4305 0.984 . S
H4309 N4305 0.985 . S
H4310 N4304 0.984 . S
H4311 N4304 0.984 . S
H4312 N4300 0.984 . S
H4313 N4300 0.985 . S
C4314 C4315 1.363 . S
C4314 C4320 1.379 1_556 S
C4314 N4322 1.356 . S
C4315 C4314 1.363 . S
C4315 C4321 1.363 . S
C4316 C4317 1.363 . S
C4316 C4321 1.379 . S
C4316 N4323 1.356 . S
C4317 C4316 1.363 . S
C4317 C4320 1.363 1_556 S
N4318 C4320 1.356 . S
N4318 H4330 0.984 . S
N4318 H4331 0.985 . S
N4319 C4321 1.356 . S
N4319 H4324 0.984 . S
N4319 H4325 0.985 . S
C4320 C4314 1.379 1_554 S
C4320 C4317 1.363 1_554 S
C4320 N4318 1.356 . S
C4321 C4315 1.363 . S
C4321 C4316 1.379 . S
C4321 N4319 1.356 . S
N4322 C4314 1.356 . S
N4322 H4328 0.984 1_556 S
N4322 H4329 0.984 . S
N4323 C4316 1.356 . S
N4323 H4326 0.984 . S
N4323 H4327 0.985 . S
H4324 N4319 0.984 . S
H4325 N4319 0.985 . S
H4326 N4323 0.984 . S
H4327 N4323 0.985 . S
H4328 N4322 0.984 1_554 S
H4329 N4322 0.984 . S
H4330 N4318 0.984 . S
H4331 N4318 0.985 . S
C4332 C4333 1.363 . S
C4332 C4338 1.379 . S
C4332 N4340 1.356 . S
C4333 C4332 1.363 . S
C4333 C4339 1.363 . S
C4334 C4335 1.363 . S
C4334 C4339 1.379 . S
C4334 N4341 1.356 . S
C4335 C4334 1.363 . S
C4335 C4338 1.363 . S
N4336 C4338 1.356 . S
N4336 H4348 0.984 . S
N4336 H4349 0.985 . S
N4337 C4339 1.356 . S
N4337 H4342 0.984 . S
N4337 H4343 0.985 . S
C4338 C4332 1.379 . S
C4338 C4335 1.363 . S
C4338 N4336 1.356 . S
C4339 C4333 1.363 . S
C4339 C4334 1.379 . S
C4339 N4337 1.356 . S
N4340 C4332 1.356 . S
N4340 H4346 0.984 . S
N4340 H4347 0.984 . S
N4341 C4334 1.356 . S
N4341 H4344 0.984 . S
N4341 H4345 0.985 . S
H4342 N4337 0.984 . S
H4343 N4337 0.985 . S
H4344 N4341 0.984 . S
H4345 N4341 0.985 . S
H4346 N4340 0.984 . S
H4347 N4340 0.984 . S
H4348 N4336 0.984 . S
H4349 N4336 0.985 . S
C4350 C4351 1.363 . S
C4350 C4356 1.379 . S
C4350 N4358 1.356 . S
C4351 C4350 1.363 . S
C4351 C4357 1.363 . S
C4352 C4353 1.363 . S
C4352 C4357 1.379 . S
C4352 N4359 1.356 . S
C4353 C4352 1.363 . S
C4353 C4356 1.363 . S
N4354 C4356 1.356 . S
N4354 H4366 0.984 . S
N4354 H4367 0.985 . S
N4355 C4357 1.356 . S
N4355 H4360 0.984 . S
N4355 H4361 0.985 . S
C4356 C4350 1.379 . S
C4356 C4353 1.363 . S
C4356 N4354 1.356 . S
C4357 C4351 1.363 . S
C4357 C4352 1.379 . S
C4357 N4355 1.356 . S
N4358 C4350 1.356 . S
N4358 H4364 0.984 . S
N4358 H4365 0.984 . S
N4359 C4352 1.356 . S
N4359 H4362 0.984 . S
N4359 H4363 0.985 . S
H4360 N4355 0.984 . S
H4361 N4355 0.985 . S
H4362 N4359 0.984 . S
H4363 N4359 0.985 . S
H4364 N4358 0.984 . S
H4365 N4358 0.984 . S
H4366 N4354 0.984 . S
H4367 N4354 0.985 . S
C4368 C4369 1.363 . S
C4368 C4374 1.379 . S
C4368 N4376 1.356 . S
C4369 C4368 1.363 . S
C4369 C4375 1.363 . S
C4370 C4371 1.363 . S
C4370 C4375 1.379 . S
C4370 N4377 1.356 . S
C4371 C4370 1.363 . S
C4371 C4374 1.363 . S
N4372 C4374 1.356 . S
N4372 H4384 0.984 . S
N4372 H4385 0.985 . S
N4373 C4375 1.356 . S
N4373 H4378 0.984 . S
N4373 H4379 0.985 . S
C4374 C4368 1.379 . S
C4374 C4371 1.363 . S
C4374 N4372 1.356 . S
C4375 C4369 1.363 . S
C4375 C4370 1.379 . S
C4375 N4373 1.356 . S
N4376 C4368 1.356 . S
N4376 H4382 0.984 . S
N4376 H4383 0.984 . S
N4377 C4370 1.356 . S
N4377 H4380 0.984 . S
N4377 H4381 0.985 . S
H4378 N4373 0.984 . S
H4379 N4373 0.985 . S
H4380 N4377 0.984 . S
H4381 N4377 0.985 . S
H4382 N4376 0.984 . S
H4383 N4376 0.984 . S
H4384 N4372 0.984 . S
H4385 N4372 0.985 . S
C4386 C4387 1.363 . S
C4386 C4392 1.379 . S
C4386 N4394 1.356 . S
C4387 C4386 1.363 . S
C4387 C4393 1.363 . S
C4388 C4389 1.363 . S
C4388 C4393 1.379 . S
C4388 N4395 1.356 . S
C4389 C4388 1.363 . S
C4389 C4392 1.363 . S
N4390 C4392 1.356 . S
N4390 H4402 0.984 . S
N4390 H4403 0.985 . S
N4391 C4393 1.356 . S
N4391 H4396 0.984 . S
N4391 H4397 0.985 . S
C4392 C4386 1.379 . S
C4392 C4389 1.363 . S
C4392 N4390 1.356 . S
C4393 C4387 1.363 . S
C4393 C4388 1.379 . S
C4393 N4391 1.356 . S
N4394 C4386 1.356 . S
N4394 H4400 0.984 . S
N4394 H4401 0.984 . S
N4395 C4388 1.356 . S
N4395 H4398 0.984 . S
N4395 H4399 0.985 . S
H4396 N4391 0.984 . S
H4397 N4391 0.985 . S
H4398 N4395 0.984 . S
H4399 N4395 0.985 . S
H4400 N4394 0.984 . S
H4401 N4394 0.984 . S
H4402 N4390 0.984 . S
H4403 N4390 0.985 . S
C4404 C4405 1.363 . S
C4404 C4410 1.379 . S
C4404 N4412 1.356 . S
C4405 C4404 1.363 . S
C4405 C4411 1.363 . S
C4406 C4407 1.363 . S
C4406 C4411 1.379 . S
C4406 N4413 1.356 . S
C4407 C4406 1.363 . S
C4407 C4410 1.363 . S
N4408 C4410 1.356 . S
N4408 H4420 0.984 . S
N4408 H4421 0.985 . S
N4409 C4411 1.356 . S
N4409 H4414 0.984 . S
N4409 H4415 0.985 . S
C4410 C4404 1.379 . S
C4410 C4407 1.363 . S
C4410 N4408 1.356 . S
C4411 C4405 1.363 . S
C4411 C4406 1.379 . S
C4411 N4409 1.356 . S
N4412 C4404 1.356 . S
N4412 H4418 0.984 . S
N4412 H4419 0.984 . S
N4413 C4406 1.356 . S
N4413 H4416 0.984 . S
N4413 H4417 0.985 . S
H4414 N4409 0.984 . S
H4415 N4409 0.985 . S
H4416 N4413 0.984 . S
H4417 N4413 0.985 . S
H4418 N4412 0.984 . S
H4419 N4412 0.984 . S
H4420 N4408 0.984 . S
H4421 N4408 0.985 . S
C4422 C4423 1.363 . S
C4422 C4428 1.379 . S
C4422 N4430 1.356 . S
C4423 C4422 1.363 . S
C4423 C4429 1.363 . S
C4424 C4425 1.363 . S
C4424 C4429 1.379 . S
C4424 N4431 1.356 . S
C4425 C4424 1.363 . S
C4425 C4428 1.363 . S
N4426 C4428 1.356 . S
N4426 H4438 0.984 . S
N4426 H4439 0.985 . S
N4427 C4429 1.356 . S
N4427 H4432 0.984 . S
N4427 H4433 0.985 . S
C4428 C4422 1.379 . S
C4428 C4425 1.363 . S
C4428 N4426 1.356 . S
C4429 C4423 1.363 . S
C4429 C4424 1.379 . S
C4429 N4427 1.356 . S
N4430 C4422 1.356 . S
N4430 H4436 0.984 . S
N4430 H4437 0.984 . S
N4431 C4424 1.356 . S
N4431 H4434 0.984 . S
N4431 H4435 0.985 . S
H4432 N4427 0.984 . S
H4433 N4427 0.985 . S
H4434 N4431 0.984 . S
H4435 N4431 0.985 . S
H4436 N4430 0.984 . S
H4437 N4430 0.984 . S
H4438 N4426 0.984 . S
H4439 N4426 0.985 . S
C4440 C4441 1.363 . S
C4440 C4446 1.379 . S
C4440 N4448 1.356 . S
C4441 C4440 1.363 . S
C4441 C4447 1.363 . S
C4442 C4443 1.363 . S
C4442 C4447 1.379 . S
C4442 N4449 1.356 . S
C4443 C4442 1.363 . S
C4443 C4446 1.363 . S
N4444 C4446 1.356 . S
N4444 H4456 0.984 . S
N4444 H4457 0.985 . S
N4445 C4447 1.356 . S
N4445 H4450 0.984 . S
N4445 H4451 0.985 . S
C4446 C4440 1.379 . S
C4446 C4443 1.363 . S
C4446 N4444 1.356 . S
C4447 C4441 1.363 . S
C4447 C4442 1.379 . S
C4447 N4445 1.356 . S
N4448 C4440 1.356 . S
N4448 H4454 0.984 . S
N4448 H4455 0.984 . S
N4449 C4442 1.356 . S
N4449 H4452 0.984 . S
N4449 H4453 0.985 . S
H4450 N4445 0.984 . S
H4451 N4445 0.985 . S
H4452 N4449 0.984 . S
H4453 N4449 0.985 . S
H4454 N4448 0.984 . S
H4455 N4448 0.984 . S
H4456 N4444 0.984 . S
H4457 N4444 0.985 . S
C4458 C4459 1.363 . S
C4458 C4464 1.379 . S
C4458 N4466 1.356 . S
C4459 C4458 1.363 . S
C4459 C4465 1.363 . S
C4460 C4461 1.363 . S
C4460 C4465 1.379 . S
C4460 N4467 1.356 . S
C4461 C4460 1.363 . S
C4461 C4464 1.363 . S
N4462 C4464 1.356 . S
N4462 H4474 0.984 . S
N4462 H4475 0.985 . S
N4463 C4465 1.356 . S
N4463 H4468 0.984 . S
N4463 H4469 0.985 . S
C4464 C4458 1.379 . S
C4464 C4461 1.363 . S
C4464 N4462 1.356 . S
C4465 C4459 1.363 . S
C4465 C4460 1.379 . S
C4465 N4463 1.356 . S
N4466 C4458 1.356 . S
N4466 H4472 0.984 . S
N4466 H4473 0.984 . S
N4467 C4460 1.356 . S
N4467 H4470 0.984 . S
N4467 H4471 0.985 . S
H4468 N4463 0.984 . S
H4469 N4463 0.985 . S
H4470 N4467 0.984 . S
H4471 N4467 0.985 . S
H4472 N4466 0.984 . S
H4473 N4466 0.984 . S
H4474 N4462 0.984 . S
H4475 N4462 0.985 . S
C4476 C4477 1.363 . S
C4476 C4482 1.379 . S
C4476 N4484 1.356 . S
C4477 C4476 1.363 . S
C4477 C4483 1.363 . S
C4478 C4479 1.363 . S
C4478 C4483 1.379 . S
C4478 N4485 1.356 1_565 S
C4479 C4478 1.363 . S
C4479 C4482 1.363 . S
N4480 C4482 1.356 . S
N4480 H4492 0.984 . S
N4480 H4493 0.985 . S
N4481 C4483 1.356 . S
N4481 H4486 0.984 . S
N4481 H4487 0.985 . S
C4482 C4476 1.379 . S
C4482 C4479 1.363 . S
C4482 N4480 1.356 . S
C4483 C4477 1.363 . S
C4483 C4478 1.379 . S
C4483 N4481 1.356 . S
N4484 C4476 1.356 . S
N4484 H4490 0.984 . S
N4484 H4491 0.984 . S
N4485 C4478 1.356 1_545 S
N4485 H4488 0.984 . S
N4485 H4489 0.985 . S
H4486 N4481 0.984 . S
H4487 N4481 0.985 . S
H4488 N4485 0.984 . S
H4489 N4485 0.985 . S
H4490 N4484 0.984 . S
H4491 N4484 0.984 . S
H4492 N4480 0.984 . S
H4493 N4480 0.985 . S
C4494 C4495 1.363 . S
C4494 C4500 1.379 . S
C4494 N4502 1.356 . S
C4495 C4494 1.363 . S
C4495 C4501 1.363 . S
C4496 C4497 1.363 . S
C4496 C4501 1.379 . S
C4496 N4503 1.356 . S
C4497 C4496 1.363 . S
C4497 C4500 1.363 . S
N4498 C4500 1.356 . S
N4498 H4510 0.984 . S
N4498 H4511 0.985 . S
N4499 C4501 1.356 . S
N4499 H4504 0.984 . S
N4499 H4505 0.985 . S
C4500 C4494 1.379 . S
C4500 C4497 1.363 . S
C4500 N4498 1.356 . S
C4501 C4495 1.363 . S
C4501 C4496 1.379 . S
C4501 N4499 1.356 . S
N4502 C4494 1.356 . S
N4502 H4508 0.984 . S
N4502 H4509 0.984 . S
N4503 C4496 1.356 . S
N4503 H4506 0.984 . S
N4503 H4507 0.985 . S
H4504 N4499 0.984 . S
H4505 N4499 0.985 . S
H4506 N4503 0.984 . S
H4507 N4503 0.985 . S
H4508 N4502 0.984 . S
H4509 N4502 0.984 . S
H4510 N4498 0.984 . S
H4511 N4498 0.985 . S
C1921 C15 2.802 1_655 S
C1923 C178 3.143 . S
C1939 C50 1.857 . S
C1941 C218 1.975 . S
C1957 C255 2.439 . S
C1959 C98 2.579 . S
C1975 C298 2.883 . S
C1977 C135 2.444 . S
C1993 C329 2.428 . S
C1995 C378 2.819 . S
C2011 C375 1.636 . S
C2013 C418 2.049 . S
C2029 C455 1.579 . S
C2031 C415 1.620 1_554 S
C2047 C458 2.641 . S
C2049 C330 2.543 . S
C2065 C489 1.921 . S
C2067 C138 2.289 . S
C2083 C295 1.966 . S
C2085 C1335 1.698 . S
C2101 C175 2.907 . S
C2103 C538 3.299 . S
C2119 C215 1.792 . S
C2121 C1375 2.029 . S
C2137 C49 1.864 1_455 S
C2139 C578 2.116 . S
C2155 C1255 2.173 . S
C2157 C18 2.388 . S
C2173 C1218 2.583 . S
C2175 C95 2.344 . S
C2191 C769 3.846 . S
C2193 C606 3.340 . S
C2209 C659 2.223 . S
C2211 C809 2.329 . S
C2227 C689 2.151 . S
C2229 C846 2.073 . S
C2245 C726 2.698 . S
C2247 C889 3.184 . S
C2263 C969 2.724 1_565 S
C2265 C938 2.447 . S
C2281 C966 2.040 . S
C2283 C1009 2.438 . S
C2299 C1049 2.577 . S
C2301 C1006 2.294 . S
C2317 C939 1.477 . S
C2319 C1046 1.503 1_565 S
C2335 C729 2.135 . S
C2337 C1098 1.877 . S
C2353 C1686 1.834 . S
C2355 C886 2.074 . S
C2371 C1129 2.983 . S
C2373 C766 2.579 . S
C2389 C806 1.649 . S
C2391 C1726 1.916 . S
C2407 C1169 2.279 . S
C2409 C658 1.918 . S
C2425 C609 2.555 . S
C2427 C1606 2.326 . S
C2443 C686 2.193 . S
C2445 C1569 2.420 . S
C2461 C1298 3.851 . S
C2463 C1215 3.359 . S
C2479 C1338 2.361 . S
C2481 C490 2.259 . S
C2497 C1258 2.129 . S
C2499 C535 2.046 . S
C2515 C1378 3.220 . S
C2517 C575 2.737 . S
C2533 C1409 2.449 . S
C2535 C1458 2.736 . S
C2551 C1455 2.140 . S
C2553 C1498 2.566 . S
C2569 C1538 2.552 . S
C2571 C1495 2.272 . S
C2587 C1410 1.481 . S
C2589 C1535 1.508 . S
C2605 C258 3.138 . S
C2607 C1295 2.714 . S
C2623 C1649 3.184 . S
C2625 C1566 2.851 . S
C2641 C1689 2.008 . S
C2643 C1099 1.894 . S
C2659 C1126 2.409 . S
C2661 C1609 2.548 . S
C2677 C1729 2.915 . S
C2679 C1166 2.479 . S
C2695 C1778 2.415 1_556 S
C2697 C1809 2.823 . S
C2713 C1806 1.726 . S
C2715 C1849 2.168 . S
C2731 C1846 1.619 . S
C2733 C1886 1.574 . S
C2749 C1889 2.637 . S
C2751 C1779 2.540 . S
C2767 C1646 3.032 . S
C2769 C849 3.450 . S
C2785 C6 0.470 . S
C2787 C646 0.508 . S
C2803 C1610 2.569 . S
C2805 C59 2.612 . S
C2821 C89 1.842 . S
C2823 C739 2.000 . S
C2839 C126 2.126 . S
C2841 C1579 2.175 . S
C2857 C169 2.415 . S
C2859 C890 2.267 . S
C2875 C209 2.112 . S
C2877 C1650 1.794 . S
C2893 C246 2.281 . S
C2895 C810 2.411 . S
C2911 C1139 2.274 . S
C2913 C289 2.473 . S
C2929 C338 2.748 . S
C2931 C1570 2.491 . S
C2947 C366 1.329 . S
C2949 C655 1.165 . S
C2965 C406 0.948 . S
C2967 C1619 0.977 . S
C2983 C730 2.763 . S
C2985 C449 2.884 . S
C3001 C1659 1.402 . S
C3003 C446 1.352 . S
C3019 C819 2.260 . S
C3021 C339 2.177 . S
C3037 C369 1.303 . S
C3039 C1130 1.287 . S
C3055 C899 1.717 . S
C3057 C409 2.044 . S
C3073 C1766 1.299 . S
C3075 C498 1.328 . S
C3091 C1059 1.501 . S
C3093 C286 1.546 . S
C3109 C166 0.749 . S
C3111 C1775 0.746 . S
C3127 C206 1.553 . S
C3129 C979 1.624 . S
C3145 C529 1.831 1_545 S
C3147 C1019 1.906 . S
C3163 C1850 2.117 . S
C3165 C569 2.162 . S
C3181 C9 1.233 . S
C3183 C1899 1.296 . S
C3199 C86 1.107 . S
C3201 C1810 1.110 . S
C3217 C55 0.411 . S
C3219 C615 0.447 . S
C3235 C650 3.059 . S
C3237 C1259 2.984 . S
C3253 C698 1.357 . S
C3255 C130 1.541 . S
C3271 C735 2.182 . S
C3273 C1210 2.246 . S
C3289 C299 1.710 . S
C3291 C778 1.702 . S
C3307 C1299 2.357 . S
C3309 C818 2.504 . S
C3325 C219 2.641 . S
C3327 C855 2.464 . S
C3343 C898 2.191 . S
C3345 C530 1.864 . S
C3361 C929 2.874 . S
C3363 C1219 2.759 . S
C3379 C46 1.539 . S
C3381 C975 1.757 . S
C3397 C1015 1.415 . S
C3399 C1250 1.488 . S
C3415 C139 1.527 1_556 S
C3417 C1055 1.510 . S
C3433 C1290 2.260 . S
C3435 C1058 2.203 . S
C3451 C930 1.502 . S
C3453 C210 1.509 . S
C3469 C978 1.122 . S
C3471 C539 1.051 . S
C3487 C290 1.087 . S
C3489 C1018 1.143 . S
C3505 C1089 1.050 . S
C3507 C1415 1.020 . S
C3523 C459 2.380 . S
C3525 C895 2.222 . S
C3541 C1406 0.693 . S
C3543 C775 0.701 . S
C3559 C815 1.598 . S
C3561 C370 1.687 . S
C3577 C1138 1.782 1_565 S
C3579 C410 1.781 . S
C3595 C1499 1.222 . S
C3597 C1178 1.287 . S
C3613 C618 1.164 . S
C3615 C1539 1.165 . S
C3631 C1459 1.161 . S
C3633 C695 1.148 . S
C3649 C1086 0.407 . S
C3651 C1206 0.446 . S
C3667 C499 3.064 . S
C3669 C690 2.992 . S
C3685 C1179 1.573 . S
C3687 C1249 1.388 . S
C3703 C566 2.207 . S
C3705 C619 2.267 1_455 S
C3721 C1289 1.856 . S
C3723 C1730 1.874 . S
C3739 C770 2.536 . S
C3741 C1329 2.699 . S
C3757 C526 2.473 . S
C3759 C1690 2.652 . S
C3775 C859 1.823 . S
C3777 C1369 2.136 . S
C3793 C1418 2.884 . S
C3795 C610 2.769 . S
C3811 C1446 1.846 . S
C3813 C1095 1.614 . S
C3829 C1486 1.403 . S
C3831 C699 1.475 . S
C3847 C1170 1.543 . S
C3849 C1526 1.522 . S
C3865 C779 2.209 . S
C3867 C1529 2.164 . S
C3883 C1419 1.472 1_554 S
C3885 C1699 1.493 . S
C3901 C850 1.074 . S
C3903 C1449 1.140 . S
C3919 C1489 1.167 . S
C3921 C1739 1.109 . S
C3937 C58 1.111 . S
C3939 C926 1.078 . S
C3955 C1890 2.376 . S
C3957 C1366 2.219 . S
C3973 C1286 0.684 . S
C3975 C935 0.678 . S
C3991 C1326 1.615 . S
C3993 C1819 1.702 . S
C4009 C1859 1.738 . S
C4011 C249 1.743 . S
C4027 C1010 1.255 . S
C4029 C129 1.314 . S
C4045 C1209 1.124 1_545 S
C4047 C1050 1.121 . S
C4063 C970 1.198 . S
C4065 C1246 1.188 . S
C4081 C495 0.498 . S
C4083 C1575 0.458 . S
C4099 C1090 2.614 . S
C4101 C99 2.574 . S
C4117 C570 2.033 . S
C4119 C1618 1.874 . S
C4135 C1175 2.146 . S
C4137 C10 2.191 . S
C4153 C1658 2.505 . S
C4155 C1379 2.382 . S
C4171 C179 1.982 . S
C4173 C1698 2.324 . S
C4189 C1339 2.396 . S
C4191 C1135 2.263 . S
C4207 C250 2.237 . S
C4209 C1738 2.428 . S
C4225 C19 2.499 . S
C4227 C1769 2.751 . S
C4243 C1815 1.410 . S
C4245 C486 1.241 . S
C4261 C90 0.959 . S
C4263 C1855 0.932 . S
C4279 C579 2.768 . S
C4281 C1898 2.889 . S
C4297 C170 1.405 . S
C4299 C1895 1.356 . S
C4315 C1330 2.271 . S
C4317 C1770 2.175 1_556 S
C4333 C1818 1.336 . S
C4335 C259 1.329 . S
C4351 C1370 1.722 . S
C4353 C1858 2.042 . S
C4369 C335 1.356 . S
C4371 C649 1.386 . S
C4387 C1735 1.523 . S
C4389 C1530 1.478 . S
C4405 C1655 0.749 . S
C4407 C326 0.749 . S
C4423 C1450 1.636 . S
C4425 C1695 1.566 . S
C4441 C858 1.773 . S
C4443 C1490 1.844 . S
C4459 C738 2.178 . S
C4461 C419 2.138 . S
C4477 C450 1.243 . S
C4479 C1578 1.186 1_565 S
C4495 C379 1.145 . S
C4497 C1615 1.147 . S
