# Generated by pormake.
# Topology wjr, (5)-cn, num edge types: 1
# Building blocks:
#     Node 0, Type 0, BuildingBlock: XOMCOT_clean_sbu_1, # of connection points: 5
#     Node 1, Type 0, BuildingBlock: XOMCOT_clean_sbu_1, # of connection points: 5
#     Node 2, Type 0, BuildingBlock: XOMCOT_clean_sbu_1, # of connection points: 5
#     Node 3, Type 0, BuildingBlock: XOMCOT_clean_sbu_1, # of connection points: 5
#     Node 4, Type 0, BuildingBlock: XOMCOT_clean_sbu_1, # of connection points: 5
#     Node 5, Type 0, BuildingBlock: XOMCOT_clean_sbu_1, # of connection points: 5
#     Node 6, Type 0, BuildingBlock: XOMCOT_clean_sbu_1, # of connection points: 5
#     Node 7, Type 0, BuildingBlock: XOMCOT_clean_sbu_1, # of connection points: 5
#     Node 8, Type 0, BuildingBlock: XOMCOT_clean_sbu_1, # of connection points: 5
#     Node 9, Type 0, BuildingBlock: XOMCOT_clean_sbu_1, # of connection points: 5
#     Node 10, Type 0, BuildingBlock: XOMCOT_clean_sbu_1, # of connection points: 5
#     Node 11, Type 0, BuildingBlock: XOMCOT_clean_sbu_1, # of connection points: 5
#     Node 12, Type 0, BuildingBlock: XOMCOT_clean_sbu_1, # of connection points: 5
#     Node 13, Type 0, BuildingBlock: XOMCOT_clean_sbu_1, # of connection points: 5
#     Node 14, Type 0, BuildingBlock: XOMCOT_clean_sbu_1, # of connection points: 5
#     Node 15, Type 0, BuildingBlock: XOMCOT_clean_sbu_1, # of connection points: 5
#     Node 16, Type 0, BuildingBlock: XOMCOT_clean_sbu_1, # of connection points: 5
#     Node 17, Type 0, BuildingBlock: XOMCOT_clean_sbu_1, # of connection points: 5
#     Node 18, Type 0, BuildingBlock: XOMCOT_clean_sbu_1, # of connection points: 5
#     Node 19, Type 0, BuildingBlock: XOMCOT_clean_sbu_1, # of connection points: 5
#     Node 20, Type 0, BuildingBlock: XOMCOT_clean_sbu_1, # of connection points: 5
#     Node 21, Type 0, BuildingBlock: XOMCOT_clean_sbu_1, # of connection points: 5
#     Node 22, Type 0, BuildingBlock: XOMCOT_clean_sbu_1, # of connection points: 5
#     Node 23, Type 0, BuildingBlock: XOMCOT_clean_sbu_1, # of connection points: 5
#     Edge 24, Type (0, 0), BuildingBlock: MIFKUJ_clean_linker_0, # of connection points: 2
#     Edge 25, Type (0, 0), BuildingBlock: MIFKUJ_clean_linker_0, # of connection points: 2
#     Edge 26, Type (0, 0), BuildingBlock: MIFKUJ_clean_linker_0, # of connection points: 2
#     Edge 27, Type (0, 0), BuildingBlock: MIFKUJ_clean_linker_0, # of connection points: 2
#     Edge 28, Type (0, 0), BuildingBlock: MIFKUJ_clean_linker_0, # of connection points: 2
#     Edge 29, Type (0, 0), BuildingBlock: MIFKUJ_clean_linker_0, # of connection points: 2
#     Edge 30, Type (0, 0), BuildingBlock: MIFKUJ_clean_linker_0, # of connection points: 2
#     Edge 31, Type (0, 0), BuildingBlock: MIFKUJ_clean_linker_0, # of connection points: 2
#     Edge 32, Type (0, 0), BuildingBlock: MIFKUJ_clean_linker_0, # of connection points: 2
#     Edge 33, Type (0, 0), BuildingBlock: MIFKUJ_clean_linker_0, # of connection points: 2
#     Edge 34, Type (0, 0), BuildingBlock: MIFKUJ_clean_linker_0, # of connection points: 2
#     Edge 35, Type (0, 0), BuildingBlock: MIFKUJ_clean_linker_0, # of connection points: 2
#     Edge 36, Type (0, 0), BuildingBlock: MIFKUJ_clean_linker_0, # of connection points: 2
#     Edge 37, Type (0, 0), BuildingBlock: MIFKUJ_clean_linker_0, # of connection points: 2
#     Edge 38, Type (0, 0), BuildingBlock: MIFKUJ_clean_linker_0, # of connection points: 2
#     Edge 39, Type (0, 0), BuildingBlock: MIFKUJ_clean_linker_0, # of connection points: 2
#     Edge 40, Type (0, 0), BuildingBlock: MIFKUJ_clean_linker_0, # of connection points: 2
#     Edge 41, Type (0, 0), BuildingBlock: MIFKUJ_clean_linker_0, # of connection points: 2
#     Edge 42, Type (0, 0), BuildingBlock: MIFKUJ_clean_linker_0, # of connection points: 2
#     Edge 43, Type (0, 0), BuildingBlock: MIFKUJ_clean_linker_0, # of connection points: 2
#     Edge 44, Type (0, 0), BuildingBlock: MIFKUJ_clean_linker_0, # of connection points: 2
#     Edge 45, Type (0, 0), BuildingBlock: MIFKUJ_clean_linker_0, # of connection points: 2
#     Edge 46, Type (0, 0), BuildingBlock: MIFKUJ_clean_linker_0, # of connection points: 2
#     Edge 47, Type (0, 0), BuildingBlock: MIFKUJ_clean_linker_0, # of connection points: 2
#     Edge 48, Type (0, 0), BuildingBlock: MIFKUJ_clean_linker_0, # of connection points: 2
#     Edge 49, Type (0, 0), BuildingBlock: MIFKUJ_clean_linker_0, # of connection points: 2
#     Edge 50, Type (0, 0), BuildingBlock: MIFKUJ_clean_linker_0, # of connection points: 2
#     Edge 51, Type (0, 0), BuildingBlock: MIFKUJ_clean_linker_0, # of connection points: 2
#     Edge 52, Type (0, 0), BuildingBlock: MIFKUJ_clean_linker_0, # of connection points: 2
#     Edge 53, Type (0, 0), BuildingBlock: MIFKUJ_clean_linker_0, # of connection points: 2
#     Edge 54, Type (0, 0), BuildingBlock: MIFKUJ_clean_linker_0, # of connection points: 2
#     Edge 55, Type (0, 0), BuildingBlock: MIFKUJ_clean_linker_0, # of connection points: 2
#     Edge 56, Type (0, 0), BuildingBlock: MIFKUJ_clean_linker_0, # of connection points: 2
#     Edge 57, Type (0, 0), BuildingBlock: MIFKUJ_clean_linker_0, # of connection points: 2
#     Edge 58, Type (0, 0), BuildingBlock: MIFKUJ_clean_linker_0, # of connection points: 2
#     Edge 59, Type (0, 0), BuildingBlock: MIFKUJ_clean_linker_0, # of connection points: 2
#     Edge 60, Type (0, 0), BuildingBlock: MIFKUJ_clean_linker_0, # of connection points: 2
#     Edge 61, Type (0, 0), BuildingBlock: MIFKUJ_clean_linker_0, # of connection points: 2
#     Edge 62, Type (0, 0), BuildingBlock: MIFKUJ_clean_linker_0, # of connection points: 2
#     Edge 63, Type (0, 0), BuildingBlock: MIFKUJ_clean_linker_0, # of connection points: 2
#     Edge 64, Type (0, 0), BuildingBlock: MIFKUJ_clean_linker_0, # of connection points: 2
#     Edge 65, Type (0, 0), BuildingBlock: MIFKUJ_clean_linker_0, # of connection points: 2
#     Edge 66, Type (0, 0), BuildingBlock: MIFKUJ_clean_linker_0, # of connection points: 2
#     Edge 67, Type (0, 0), BuildingBlock: MIFKUJ_clean_linker_0, # of connection points: 2
#     Edge 68, Type (0, 0), BuildingBlock: MIFKUJ_clean_linker_0, # of connection points: 2
#     Edge 69, Type (0, 0), BuildingBlock: MIFKUJ_clean_linker_0, # of connection points: 2
#     Edge 70, Type (0, 0), BuildingBlock: MIFKUJ_clean_linker_0, # of connection points: 2
#     Edge 71, Type (0, 0), BuildingBlock: MIFKUJ_clean_linker_0, # of connection points: 2
#     Edge 72, Type (0, 0), BuildingBlock: MIFKUJ_clean_linker_0, # of connection points: 2
#     Edge 73, Type (0, 0), BuildingBlock: MIFKUJ_clean_linker_0, # of connection points: 2
#     Edge 74, Type (0, 0), BuildingBlock: MIFKUJ_clean_linker_0, # of connection points: 2
#     Edge 75, Type (0, 0), BuildingBlock: MIFKUJ_clean_linker_0, # of connection points: 2
#     Edge 76, Type (0, 0), BuildingBlock: MIFKUJ_clean_linker_0, # of connection points: 2
#     Edge 77, Type (0, 0), BuildingBlock: MIFKUJ_clean_linker_0, # of connection points: 2
#     Edge 78, Type (0, 0), BuildingBlock: MIFKUJ_clean_linker_0, # of connection points: 2
#     Edge 79, Type (0, 0), BuildingBlock: MIFKUJ_clean_linker_0, # of connection points: 2
#     Edge 80, Type (0, 0), BuildingBlock: MIFKUJ_clean_linker_0, # of connection points: 2
#     Edge 81, Type (0, 0), BuildingBlock: MIFKUJ_clean_linker_0, # of connection points: 2
#     Edge 82, Type (0, 0), BuildingBlock: MIFKUJ_clean_linker_0, # of connection points: 2
#     Edge 83, Type (0, 0), BuildingBlock: MIFKUJ_clean_linker_0, # of connection points: 2
# Relax obj value: 0.608
# Max RMSD: 0.257
# Mean RMSD: 0.257
data_MOF--net-wjr--node1-XOMCOT_clean_sbu_1--edge1-MIFKUJ_clean_linker_0
_symmetry_space_group_name_H-M    P1
_symmetry_Int_Tables_number       1
_symmetry_cell_setting            triclinic
loop_
_symmetry_equiv_pos_as_xyz
'x, y, z'
_cell_length_a     79.415012
_cell_length_b     79.425378
_cell_length_c     61.215704
_cell_angle_alpha  90.002059
_cell_angle_beta   90.002759
_cell_angle_gamma 120.00696
loop_
_atom_site_label
_atom_site_type_symbol
_atom_site_fract_x
_atom_site_fract_y
_atom_site_fract_z
_atom_type_partial_charge
C0 C 0.46684 0.1552 0.13761 0.0
C1 C 0.46985 0.17195 0.14779 0.0
N2 N 0.47378 0.17102 0.16903 0.0
N3 N 0.46897 0.14376 0.15228 0.0
C4 C 0.47329 0.15384 0.17126 0.0
H5 H 0.4627 0.15131 0.12073 0.0
Co6 Co 0.46413 0.11862 0.14669 0.0
C7 C 0.48357 0.10968 0.18229 0.0
O8 O 0.46871 0.09185 0.18323 0.0
N9 N 0.45917 0.09291 0.14034 0.0
C10 C 0.44479 0.06129 0.13263 0.0
C11 C 0.44195 0.07675 0.13621 0.0
C12 C 0.47235 0.08685 0.13814 0.0
N13 N 0.46394 0.06754 0.134 0.0
O14 O 0.48407 0.12859 0.12485 0.0
H15 H 0.42799 0.0759 0.13565 0.0
H16 H 0.48784 0.09647 0.13996 0.0
O17 O 0.48331 0.12188 0.16885 0.0
C18 C 0.47677 0.12456 0.10573 0.0
O19 O 0.45774 0.11468 0.10374 0.0
N20 N 0.44336 0.10907 0.16678 0.0
C21 C 0.40892 0.08972 0.19035 0.0
C22 C 0.42687 0.09901 0.2012 0.0
C23 C 0.44399 0.10896 0.1891 0.0
C24 C 0.42603 0.10278 0.15646 0.0
C25 C 0.40854 0.09253 0.16782 0.0
H26 H 0.45756 0.11603 0.19784 0.0
H27 H 0.42578 0.10452 0.13895 0.0
H28 H 0.47574 0.14858 0.18653 0.0
H29 H 0.46835 0.18349 0.14034 0.0
H30 H 0.43341 0.04645 0.12977 0.0
H31 H 0.42776 0.09761 0.21871 0.0
H32 H 0.39492 0.08607 0.15895 0.0
C33 C 0.3179 0.45586 0.13399 0.0
C34 C 0.30306 0.45848 0.14158 0.0
N35 N 0.30824 0.46729 0.16123 0.0
N36 N 0.33244 0.46296 0.14873 0.0
C37 C 0.32624 0.47006 0.16504 0.0
H38 H 0.31771 0.44836 0.11917 0.0
Co39 Co 0.35359 0.45885 0.14731 0.0
C40 C 0.38151 0.48543 0.18032 0.0
O41 O 0.38546 0.47193 0.18653 0.0
N42 N 0.37499 0.45431 0.14515 0.0
C43 C 0.39244 0.43959 0.14118 0.0
C44 C 0.37409 0.4369 0.14368 0.0
C45 C 0.39422 0.46739 0.14261 0.0
N46 N 0.40519 0.4588 0.1406 0.0
O47 O 0.36295 0.47491 0.12184 0.0
H48 H 0.36102 0.42291 0.14384 0.0
H49 H 0.40006 0.48296 0.14211 0.0
O50 O 0.36883 0.48173 0.16544 0.0
C51 C 0.36006 0.46528 0.10426 0.0
O52 O 0.35122 0.44621 0.10548 0.0
N53 N 0.34317 0.44184 0.17135 0.0
C54 C 0.32883 0.41223 0.20243 0.0
C55 C 0.33672 0.43173 0.20881 0.0
C56 C 0.3436 0.44633 0.19297 0.0
C57 C 0.33278 0.42294 0.16486 0.0
C58 C 0.32599 0.40787 0.18005 0.0
H59 H 0.34941 0.46111 0.19835 0.0
H60 H 0.33075 0.41955 0.14761 0.0
H61 H 0.3342 0.47604 0.18005 0.0
H62 H 0.28924 0.45367 0.13355 0.0
H63 H 0.39609 0.42818 0.14012 0.0
H64 H 0.33818 0.43575 0.22589 0.0
H65 H 0.31969 0.3931 0.17412 0.0
C66 C 0.84627 0.31118 0.14539 0.0
C67 C 0.82903 0.29746 0.15464 0.0
N68 N 0.82746 0.30363 0.17468 0.0
N69 N 0.85568 0.32612 0.15936 0.0
C70 C 0.84383 0.32119 0.177 0.0
H71 H 0.85203 0.30986 0.1299 0.0
Co72 Co 0.88127 0.3462 0.15523 0.0
C73 C 0.88665 0.37819 0.18447 0.0
O74 O 0.90447 0.38219 0.18891 0.0
N75 N 0.90754 0.36636 0.1502 0.0
C76 C 0.93955 0.38216 0.14438 0.0
C77 C 0.92356 0.36453 0.14922 0.0
C78 C 0.91428 0.38529 0.14486 0.0
N79 N 0.93377 0.39532 0.14179 0.0
O80 O 0.87391 0.35394 0.12887 0.0
H81 H 0.92391 0.35126 0.15142 0.0
H82 H 0.90503 0.39164 0.1434 0.0
O83 O 0.87574 0.36387 0.17207 0.0
C84 C 0.87969 0.34868 0.11217 0.0
O85 O 0.88815 0.33825 0.11524 0.0
N86 N 0.88867 0.33741 0.18002 0.0
C87 C 0.90747 0.32691 0.21094 0.0
C88 C 0.89695 0.336 0.21737 0.0
C89 C 0.88745 0.34099 0.20162 0.0
C90 C 0.89568 0.32554 0.17419 0.0
C91 C 0.90567 0.3206 0.18919 0.0
H92 H 0.87969 0.34814 0.20693 0.0
H93 H 0.89505 0.32138 0.15725 0.0
H94 H 0.84751 0.33002 0.19156 0.0
H95 H 0.81904 0.28349 0.14752 0.0
H96 H 0.95438 0.3851 0.14323 0.0
H97 H 0.89681 0.34007 0.23422 0.0
H98 H 0.91314 0.31326 0.18322 0.0
C99 C 0.54342 0.85597 0.14878 0.0
C100 C 0.54014 0.83866 0.15758 0.0
N101 N 0.53367 0.83736 0.17822 0.0
N102 N 0.53898 0.86562 0.16367 0.0
C103 C 0.53285 0.85381 0.18139 0.0
H104 H 0.54948 0.86154 0.13283 0.0
Co105 Co 0.54452 0.89119 0.15973 0.0
C106 C 0.51912 0.89702 0.19028 0.0
O107 O 0.53341 0.91455 0.19496 0.0
N108 N 0.5505 0.9174 0.15478 0.0
C109 C 0.56629 0.94944 0.14929 0.0
C110 C 0.56824 0.93355 0.15366 0.0
C111 C 0.53805 0.92395 0.14994 0.0
N112 N 0.54725 0.94348 0.14715 0.0
O113 O 0.52838 0.88349 0.13439 0.0
H114 H 0.58198 0.93406 0.15536 0.0
H115 H 0.52244 0.91457 0.1491 0.0
O116 O 0.52197 0.88603 0.17739 0.0
C117 C 0.53801 0.8888 0.11666 0.0
O118 O 0.5571 0.89824 0.1177 0.0
N119 N 0.56154 0.89868 0.18378 0.0
C120 C 0.59152 0.91598 0.21423 0.0
C121 C 0.57203 0.90552 0.22107 0.0
C122 C 0.55721 0.89687 0.20555 0.0
C123 C 0.58026 0.90574 0.17728 0.0
C124 C 0.59554 0.91503 0.19206 0.0
H125 H 0.54239 0.88914 0.21124 0.0
H126 H 0.58341 0.90551 0.16012 0.0
H127 H 0.52889 0.85763 0.19672 0.0
H128 H 0.54287 0.82813 0.14954 0.0
H129 H 0.5781 0.96424 0.14753 0.0
H130 H 0.56816 0.90471 0.23815 0.0
H131 H 0.61024 0.92251 0.18575 0.0
C132 C 0.68404 0.50479 0.15255 0.0
C133 C 0.70017 0.50461 0.16052 0.0
N134 N 0.70663 0.51629 0.1781 0.0
N135 N 0.68069 0.51718 0.16446 0.0
C136 C 0.69454 0.52355 0.1802 0.0
H137 H 0.67449 0.49518 0.14001 0.0
Co138 Co 0.65769 0.51887 0.16553 0.0
C139 C 0.64394 0.48913 0.19301 0.0
O140 O 0.65464 0.50405 0.20574 0.0
N141 N 0.63494 0.52018 0.16843 0.0
C142 C 0.61492 0.52794 0.18507 0.0
C143 C 0.63231 0.5283 0.18647 0.0
C144 C 0.61869 0.51461 0.15632 0.0
N145 N 0.60628 0.51936 0.16611 0.0
O146 O 0.65234 0.51227 0.13432 0.0
H147 H 0.64247 0.53407 0.19992 0.0
H148 H 0.61606 0.5074 0.14067 0.0
O149 O 0.64353 0.49214 0.17267 0.0
C150 C 0.66398 0.51806 0.118 0.0
O151 O 0.6825 0.53069 0.12109 0.0
N152 N 0.67119 0.5459 0.16003 0.0
C153 C 0.67453 0.58234 0.1652 0.0
C154 C 0.68164 0.57489 0.18122 0.0
C155 C 0.67963 0.55656 0.17838 0.0
C156 C 0.66638 0.55404 0.14316 0.0
C157 C 0.66848 0.57248 0.14523 0.0
H158 H 0.6816 0.5497 0.19252 0.0
H159 H 0.65819 0.54556 0.12931 0.0
H160 H 0.69489 0.53203 0.1941 0.0
H161 H 0.70567 0.49531 0.15499 0.0
H162 H 0.60887 0.53318 0.19738 0.0
H163 H 0.68601 0.58169 0.19713 0.0
H164 H 0.66288 0.57774 0.1324 0.0
C165 C 0.15689 0.68605 0.13496 0.0
C166 C 0.17396 0.69963 0.14465 0.0
N167 N 0.17466 0.69344 0.16491 0.0
N168 N 0.14683 0.67117 0.1489 0.0
C169 C 0.15814 0.67608 0.16702 0.0
H170 H 0.1518 0.68742 0.11907 0.0
Co171 Co 0.12157 0.65064 0.14352 0.0
C172 C 0.11425 0.62199 0.17842 0.0
O173 O 0.09659 0.6192 0.18096 0.0
N174 N 0.09591 0.62996 0.13711 0.0
C175 C 0.0649 0.61366 0.12651 0.0
C176 C 0.08063 0.63171 0.13043 0.0
C177 C 0.08914 0.61051 0.13597 0.0
N178 N 0.07016 0.60022 0.13012 0.0
O179 O 0.1311 0.64146 0.12041 0.0
H180 H 0.08071 0.64515 0.12787 0.0
H181 H 0.09803 0.604 0.13922 0.0
O182 O 0.12564 0.63423 0.16426 0.0
C183 C 0.12946 0.64781 0.10191 0.0
O184 O 0.12167 0.65901 0.10102 0.0
N185 N 0.11224 0.66089 0.16529 0.0
C186 C 0.09309 0.67368 0.19309 0.0
C187 C 0.10497 0.6668 0.20157 0.0
C188 C 0.11455 0.66062 0.18739 0.0
C189 C 0.10379 0.67079 0.15698 0.0
C190 C 0.09349 0.67666 0.17044 0.0
H191 H 0.12336 0.65525 0.19445 0.0
H192 H 0.10432 0.67337 0.13959 0.0
H193 H 0.15422 0.66736 0.18169 0.0
H194 H 0.1845 0.71353 0.13776 0.0
H195 H 0.0506 0.61073 0.1216 0.0
H196 H 0.10634 0.66551 0.219 0.0
H197 H 0.08516 0.68249 0.16291 0.0
C198 C 0.86616 0.54591 0.3666 0.0
C199 C 0.84913 0.5428 0.35704 0.0
N200 N 0.84689 0.53354 0.33787 0.0
N201 N 0.87463 0.53859 0.35363 0.0
C202 C 0.86244 0.53095 0.33638 0.0
H203 H 0.87248 0.55391 0.38151 0.0
Co204 Co 0.89963 0.54257 0.35766 0.0
C205 C 0.9032 0.51735 0.32457 0.0
O206 O 0.92109 0.53112 0.32029 0.0
N207 N 0.92526 0.54686 0.36246 0.0
C208 C 0.95692 0.56092 0.37 0.0
C209 C 0.94164 0.56401 0.36622 0.0
C210 C 0.93101 0.53349 0.36503 0.0
N211 N 0.95029 0.5417 0.36911 0.0
O212 O 0.89104 0.52594 0.38275 0.0
H213 H 0.94268 0.57805 0.36677 0.0
H214 H 0.9212 0.51796 0.36401 0.0
O215 O 0.89324 0.5202 0.33897 0.0
C216 C 0.89658 0.53595 0.40024 0.0
O217 O 0.90616 0.55501 0.3986 0.0
N218 N 0.90811 0.56028 0.33404 0.0
C219 C 0.92545 0.59036 0.30359 0.0
C220 C 0.91344 0.57106 0.29675 0.0
C221 C 0.90472 0.55624 0.31225 0.0
C222 C 0.91703 0.57911 0.34086 0.0
C223 C 0.92638 0.59438 0.32603 0.0
H224 H 0.89551 0.54164 0.30644 0.0
H225 H 0.91763 0.58228 0.35811 0.0
H226 H 0.8652 0.52417 0.3226 0.0
H227 H 0.83978 0.54801 0.36315 0.0
H228 H 0.97186 0.57207 0.37288 0.0
H229 H 0.91121 0.5673 0.27958 0.0
H230 H 0.93502 0.609 0.33231 0.0
C231 C 0.30292 0.85791 0.34473 0.0
C232 C 0.2887 0.84157 0.33452 0.0
N233 N 0.29729 0.83415 0.32183 0.0
N234 N 0.32052 0.86094 0.33863 0.0
C235 C 0.31666 0.8462 0.32465 0.0
H236 H 0.30064 0.8673 0.35564 0.0
Co237 Co 0.3437 0.88228 0.34867 0.0
C238 C 0.36809 0.89079 0.30906 0.0
O239 O 0.37101 0.9086 0.30841 0.0
N240 N 0.36694 0.90363 0.36018 0.0
C241 C 0.38497 0.92651 0.3846 0.0
C242 C 0.36672 0.91143 0.37971 0.0
C243 C 0.38602 0.91355 0.35428 0.0
N244 N 0.39715 0.92787 0.36857 0.0
O245 O 0.34881 0.8654 0.36603 0.0
H246 H 0.35391 0.9065 0.38977 0.0
H247 H 0.39195 0.91039 0.34007 0.0
O248 O 0.35789 0.87927 0.32439 0.0
C249 C 0.33866 0.8597 0.38338 0.0
O250 O 0.32552 0.86488 0.38666 0.0
N251 N 0.33771 0.89905 0.33247 0.0
C252 C 0.32925 0.9247 0.31012 0.0
C253 C 0.32702 0.90788 0.29987 0.0
C254 C 0.33117 0.89518 0.31136 0.0
C255 C 0.33801 0.91423 0.34323 0.0
C256 C 0.33439 0.92747 0.3323 0.0
H257 H 0.32963 0.88249 0.30304 0.0
H258 H 0.34105 0.91629 0.36043 0.0
H259 H 0.32779 0.84442 0.31659 0.0
H260 H 0.2732 0.83597 0.33581 0.0
H261 H 0.38905 0.93559 0.39903 0.0
H262 H 0.32234 0.9046 0.28303 0.0
H263 H 0.33616 0.94002 0.34119 0.0
C264 C 0.46009 0.30613 0.36429 0.0
C265 C 0.46249 0.2917 0.35495 0.0
N266 N 0.46848 0.29673 0.33411 0.0
N267 N 0.46463 0.32035 0.34957 0.0
C268 C 0.46982 0.31429 0.33142 0.0
H269 H 0.4549 0.306 0.38064 0.0
Co270 Co 0.46168 0.34205 0.35404 0.0
C271 C 0.48545 0.36966 0.31903 0.0
O272 O 0.47236 0.37495 0.31601 0.0
N273 N 0.45854 0.36406 0.35942 0.0
C274 C 0.44553 0.38197 0.36994 0.0
C275 C 0.44202 0.36348 0.36606 0.0
C276 C 0.47212 0.38329 0.36035 0.0
N277 N 0.46446 0.39448 0.3662 0.0
O278 O 0.4801 0.35053 0.37752 0.0
H279 H 0.42823 0.35051 0.36875 0.0
H280 H 0.48742 0.38902 0.35706 0.0
O281 O 0.48266 0.35676 0.33329 0.0
C282 C 0.47118 0.34673 0.39573 0.0
O283 O 0.45206 0.33722 0.39557 0.0
N284 N 0.44226 0.33264 0.33223 0.0
C285 C 0.41017 0.32184 0.30525 0.0
C286 C 0.42865 0.32803 0.29628 0.0
C287 C 0.44451 0.33326 0.31007 0.0
C288 C 0.42404 0.32345 0.3409 0.0
C289 C 0.40783 0.31853 0.32787 0.0
H290 H 0.45849 0.33812 0.30267 0.0
H291 H 0.4222 0.32096 0.35832 0.0
H292 H 0.47386 0.32231 0.31628 0.0
H293 H 0.45975 0.27844 0.36297 0.0
H294 H 0.4349 0.38593 0.37496 0.0
H295 H 0.43103 0.32957 0.27881 0.0
H296 H 0.3939 0.31332 0.33576 0.0
C297 C 0.15906 0.45781 0.3509 0.0
C298 C 0.17572 0.46033 0.34108 0.0
N299 N 0.17678 0.46743 0.32082 0.0
N300 N 0.14957 0.46335 0.33704 0.0
C301 C 0.16083 0.46935 0.31887 0.0
H302 H 0.15378 0.4515 0.36683 0.0
Co303 Co 0.1245 0.45882 0.34257 0.0
C304 C 0.11818 0.48431 0.31262 0.0
O305 O 0.10022 0.47029 0.30928 0.0
N306 N 0.09883 0.45381 0.34917 0.0
C307 C 0.06699 0.43916 0.35584 0.0
C308 C 0.08231 0.43641 0.35099 0.0
C309 C 0.09314 0.46687 0.35437 0.0
N310 N 0.07375 0.45834 0.35776 0.0
O311 O 0.13364 0.47517 0.36783 0.0
H312 H 0.08111 0.42237 0.34929 0.0
H313 H 0.10292 0.48243 0.35471 0.0
O314 O 0.12962 0.48142 0.32473 0.0
C315 C 0.12875 0.46519 0.38535 0.0
O316 O 0.11976 0.44613 0.38372 0.0
N317 N 0.11536 0.4415 0.3187 0.0
C318 C 0.09339 0.41171 0.28934 0.0
C319 C 0.10513 0.43092 0.28196 0.0
C320 C 0.11617 0.44565 0.29694 0.0
C321 C 0.1074 0.42268 0.32523 0.0
C322 C 0.09576 0.40753 0.31107 0.0
H323 H 0.12464 0.46033 0.29098 0.0
H324 H 0.10847 0.41951 0.3422 0.0
H325 H 0.15691 0.474 0.30407 0.0
H326 H 0.18599 0.45668 0.34813 0.0
H327 H 0.05197 0.42785 0.35782 0.0
H328 H 0.10502 0.43476 0.26502 0.0
H329 H 0.08754 0.39302 0.31775 0.0
C330 C 0.68697 0.1526 0.36378 0.0
C331 C 0.70081 0.16988 0.35473 0.0
N332 N 0.6951 0.17126 0.33438 0.0
N333 N 0.67245 0.14301 0.34935 0.0
C334 C 0.67771 0.1548 0.33164 0.0
H335 H 0.68789 0.14693 0.37952 0.0
Co336 Co 0.65241 0.11745 0.3536 0.0
C337 C 0.62254 0.11059 0.32058 0.0
O338 O 0.62033 0.09334 0.31656 0.0
N339 N 0.63214 0.09118 0.3588 0.0
C340 C 0.61655 0.05932 0.3655 0.0
C341 C 0.63437 0.07561 0.36242 0.0
C342 C 0.61265 0.08389 0.36103 0.0
N343 N 0.60276 0.06439 0.36432 0.0
O344 O 0.64333 0.12563 0.37813 0.0
H345 H 0.648 0.07582 0.36332 0.0
H346 H 0.60579 0.09266 0.35956 0.0
O347 O 0.63532 0.12193 0.33434 0.0
C348 C 0.64761 0.12069 0.39617 0.0
O349 O 0.65701 0.11098 0.39564 0.0
N350 N 0.66279 0.10962 0.33064 0.0
C351 C 0.67688 0.09232 0.30195 0.0
C352 C 0.66837 0.10293 0.29398 0.0
C353 C 0.66159 0.11169 0.30863 0.0
C354 C 0.67402 0.10245 0.33835 0.0
C355 C 0.68066 0.09313 0.32445 0.0
H356 H 0.65507 0.11967 0.30208 0.0
H357 H 0.67678 0.10288 0.3557 0.0
H358 H 0.66925 0.15113 0.31679 0.0
H359 H 0.71454 0.18008 0.3622 0.0
H360 H 0.61405 0.04483 0.36861 0.0
H361 H 0.66624 0.10383 0.27664 0.0
H362 H 0.68753 0.08563 0.33161 0.0
C363 C 0.55585 0.6871 0.33637 0.0
C364 C 0.55904 0.70487 0.32928 0.0
N365 N 0.54172 0.70357 0.3257 0.0
N366 N 0.53655 0.67427 0.33674 0.0
C367 C 0.52837 0.68516 0.33125 0.0
H368 H 0.56717 0.68401 0.34071 0.0
Co369 Co 0.52367 0.64718 0.34337 0.0
C370 C 0.50297 0.6484 0.30312 0.0
O371 O 0.51937 0.66176 0.29435 0.0
N372 N 0.51069 0.62056 0.35041 0.0
C373 C 0.48669 0.59126 0.35983 0.0
C374 C 0.49166 0.61018 0.35566 0.0
C375 C 0.51696 0.60751 0.35138 0.0
N376 N 0.50258 0.58954 0.35707 0.0
O377 O 0.50945 0.65129 0.3659 0.0
H378 H 0.48189 0.61596 0.35621 0.0
H379 H 0.53176 0.61106 0.34805 0.0
O380 O 0.50305 0.6419 0.32224 0.0
C381 C 0.51933 0.65956 0.38293 0.0
O382 O 0.53813 0.666 0.38276 0.0
N383 N 0.53851 0.64278 0.32244 0.0
C384 C 0.56349 0.63713 0.29512 0.0
C385 C 0.54405 0.63031 0.28917 0.0
C386 C 0.53164 0.63259 0.30341 0.0
C387 C 0.55682 0.64806 0.32928 0.0
C388 C 0.56963 0.64563 0.31582 0.0
H389 H 0.51646 0.62562 0.29922 0.0
H390 H 0.56137 0.65377 0.34558 0.0
H391 H 0.51284 0.67935 0.32997 0.0
H392 H 0.57308 0.71764 0.32644 0.0
H393 H 0.47233 0.57952 0.36403 0.0
H394 H 0.53828 0.62313 0.27369 0.0
H395 H 0.58405 0.65001 0.32187 0.0
C396 C 0.52252 0.83886 0.8618 0.0
C397 C 0.52001 0.82184 0.85286 0.0
N398 N 0.51137 0.81921 0.83319 0.0
N399 N 0.51542 0.84697 0.84798 0.0
C400 C 0.50854 0.83456 0.83081 0.0
H401 H 0.53011 0.84546 0.87683 0.0
Co402 Co 0.51925 0.87213 0.85057 0.0
C403 C 0.48599 0.8708 0.82647 0.0
O404 O 0.49653 0.8889 0.81989 0.0
N405 N 0.52388 0.89808 0.85379 0.0
C406 C 0.54035 0.93034 0.85728 0.0
C407 C 0.5417 0.91414 0.85285 0.0
C408 C 0.51202 0.90508 0.85979 0.0
N409 N 0.52167 0.92472 0.86146 0.0
O410 O 0.50762 0.86619 0.87886 0.0
H411 H 0.55514 0.91431 0.84978 0.0
H412 H 0.49663 0.89597 0.86297 0.0
O413 O 0.49371 0.86298 0.83783 0.0
C414 C 0.52007 0.87375 0.89413 0.0
O415 O 0.53862 0.88342 0.88895 0.0
N416 N 0.53197 0.87825 0.82332 0.0
C417 C 0.55641 0.89374 0.78731 0.0
C418 C 0.53615 0.88309 0.78461 0.0
C419 C 0.52414 0.8754 0.80284 0.0
C420 C 0.55148 0.88581 0.82574 0.0
C421 C 0.56405 0.89413 0.80809 0.0
H422 H 0.5087 0.86735 0.80019 0.0
H423 H 0.55741 0.88661 0.84187 0.0
H424 H 0.50228 0.83712 0.81642 0.0
H425 H 0.52535 0.81284 0.85972 0.0
H426 H 0.55224 0.94521 0.85723 0.0
H427 H 0.52959 0.88145 0.76867 0.0
H428 H 0.57955 0.90193 0.81114 0.0
C429 C 0.68591 0.54352 0.86441 0.0
C430 C 0.69954 0.54017 0.85456 0.0
N431 N 0.69568 0.53755 0.83299 0.0
N432 N 0.67329 0.54288 0.84925 0.0
C433 C 0.67963 0.53918 0.83025 0.0
H434 H 0.68573 0.54695 0.88146 0.0
Co435 Co 0.65348 0.54889 0.8541 0.0
C436 C 0.62282 0.52581 0.82142 0.0
O437 O 0.619 0.54002 0.81916 0.0
N438 N 0.63345 0.55513 0.85944 0.0
C439 C 0.61704 0.57097 0.86298 0.0
C440 C 0.63495 0.57284 0.85922 0.0
C441 C 0.61442 0.54281 0.86427 0.0
N442 N 0.60397 0.55202 0.86603 0.0
O443 O 0.64405 0.53134 0.87847 0.0
H444 H 0.64807 0.58645 0.85625 0.0
H445 H 0.60828 0.52726 0.86579 0.0
O446 O 0.63642 0.52782 0.83427 0.0
C447 C 0.64997 0.5414 0.89594 0.0
O448 O 0.66083 0.56038 0.89405 0.0
N449 N 0.66423 0.56766 0.8319 0.0
C450 C 0.67792 0.60125 0.8071 0.0
C451 C 0.66695 0.58287 0.79733 0.0
C452 C 0.66061 0.56615 0.80997 0.0
C453 C 0.67748 0.5851 0.84065 0.0
C454 C 0.68441 0.60217 0.82859 0.0
H455 H 0.65234 0.55226 0.8021 0.0
H456 H 0.68126 0.58591 0.85774 0.0
H457 H 0.67283 0.5381 0.81461 0.0
H458 H 0.71189 0.54057 0.86256 0.0
H459 H 0.61389 0.58274 0.8627 0.0
H460 H 0.66208 0.58133 0.78056 0.0
H461 H 0.69359 0.616 0.83653 0.0
C462 C 0.15321 0.69785 0.85046 0.0
C463 C 0.16962 0.71114 0.83951 0.0
N464 N 0.17427 0.70157 0.8247 0.0
N465 N 0.14746 0.67986 0.84284 0.0
C466 C 0.16059 0.68258 0.82707 0.0
H467 H 0.14553 0.70115 0.86279 0.0
Co468 Co 0.1247 0.65783 0.85272 0.0
C469 C 0.11343 0.63249 0.81371 0.0
O470 O 0.09592 0.63036 0.81438 0.0
N471 N 0.10183 0.63565 0.86391 0.0
C472 C 0.07716 0.61825 0.88673 0.0
C473 C 0.09252 0.63641 0.88203 0.0
C474 C 0.09254 0.61636 0.85897 0.0
N475 N 0.07709 0.60559 0.8721 0.0
O476 O 0.13965 0.65035 0.8704 0.0
H477 H 0.09696 0.64933 0.89175 0.0
H478 H 0.09713 0.61004 0.8464 0.0
O479 O 0.126 0.64268 0.82825 0.0
C480 C 0.14449 0.65968 0.88835 0.0
O481 O 0.14011 0.67342 0.89137 0.0
N482 N 0.10994 0.66622 0.83643 0.0
C483 C 0.08581 0.67657 0.81418 0.0
C484 C 0.10089 0.67575 0.8032 0.0
C485 C 0.1131 0.67099 0.81475 0.0
C486 C 0.09702 0.66943 0.84772 0.0
C487 C 0.08452 0.67416 0.8369 0.0
H488 H 0.12457 0.67032 0.80601 0.0
H489 H 0.09618 0.66822 0.86522 0.0
H490 H 0.15996 0.67098 0.81723 0.0
H491 H 0.17707 0.72675 0.84164 0.0
H492 H 0.06719 0.61457 0.90031 0.0
H493 H 0.10291 0.67827 0.78576 0.0
H494 H 0.07341 0.67509 0.84622 0.0
C495 C 0.45264 0.14432 0.85073 0.0
C496 C 0.45092 0.15951 0.8425 0.0
N497 N 0.46798 0.17238 0.8334 0.0
N498 N 0.47061 0.14719 0.84649 0.0
C499 C 0.4798 0.16494 0.83674 0.0
H500 H 0.44136 0.13215 0.85952 0.0
Co501 Co 0.48069 0.13053 0.85412 0.0
C502 C 0.50192 0.1476 0.81224 0.0
O503 O 0.48598 0.14458 0.80225 0.0
N504 N 0.49106 0.11458 0.86201 0.0
C505 C 0.51349 0.10663 0.8701 0.0
C506 C 0.51011 0.12168 0.8662 0.0
C507 C 0.48311 0.09498 0.86356 0.0
N508 N 0.49654 0.08975 0.8684 0.0
O509 O 0.49696 0.14906 0.87555 0.0
H510 H 0.52105 0.13693 0.8658 0.0
H511 H 0.46786 0.08475 0.86081 0.0
O512 O 0.50128 0.14283 0.8323 0.0
C513 C 0.48797 0.14819 0.8931 0.0
O514 O 0.469 0.13676 0.89365 0.0
N515 N 0.46369 0.1112 0.83455 0.0
C516 C 0.43583 0.07918 0.81125 0.0
C517 C 0.45536 0.08878 0.80473 0.0
C518 C 0.46918 0.10442 0.81699 0.0
C519 C 0.44496 0.10126 0.84176 0.0
C520 C 0.43071 0.08547 0.83014 0.0
H521 H 0.4843 0.11028 0.81295 0.0
H522 H 0.44122 0.10485 0.85731 0.0
H523 H 0.49499 0.17251 0.83224 0.0
H524 H 0.43792 0.16069 0.84267 0.0
H525 H 0.52759 0.10807 0.87306 0.0
H526 H 0.46008 0.08359 0.79096 0.0
H527 H 0.41592 0.07794 0.83623 0.0
C528 C 0.30713 0.46221 0.84983 0.0
C529 C 0.29352 0.46513 0.83938 0.0
N530 N 0.30128 0.47487 0.82065 0.0
N531 N 0.32364 0.47015 0.838 0.0
C532 C 0.31964 0.47778 0.82023 0.0
H533 H 0.30473 0.45393 0.86464 0.0
Co534 Co 0.34468 0.46674 0.84537 0.0
C535 C 0.37454 0.48788 0.81206 0.0
O536 O 0.37717 0.47284 0.81045 0.0
N537 N 0.36594 0.46311 0.85389 0.0
C538 C 0.38337 0.45009 0.86611 0.0
C539 C 0.36505 0.44658 0.86099 0.0
C540 C 0.38508 0.47673 0.85615 0.0
N541 N 0.3961 0.46906 0.86281 0.0
O542 O 0.35218 0.48557 0.86808 0.0
H543 H 0.35201 0.43273 0.86302 0.0
H544 H 0.39092 0.49198 0.8525 0.0
O545 O 0.36154 0.4872 0.82495 0.0
C546 C 0.34487 0.47713 0.88613 0.0
O547 O 0.3337 0.45812 0.88624 0.0
N548 N 0.33602 0.44696 0.82408 0.0
C549 C 0.32389 0.41459 0.79715 0.0
C550 C 0.33074 0.43317 0.78814 0.0
C551 C 0.33641 0.44915 0.80191 0.0
C552 C 0.32647 0.42878 0.83282 0.0
C553 C 0.32087 0.41242 0.81981 0.0
H554 H 0.34138 0.46321 0.7946 0.0
H555 H 0.32369 0.427 0.85019 0.0
H556 H 0.32976 0.4848 0.80695 0.0
H557 H 0.27865 0.4595 0.84467 0.0
H558 H 0.38696 0.43945 0.87211 0.0
H559 H 0.33214 0.43545 0.77064 0.0
H560 H 0.3151 0.39841 0.82769 0.0
C561 C 0.85726 0.31389 0.85735 0.0
C562 C 0.84017 0.30017 0.84768 0.0
N563 N 0.83969 0.30599 0.82714 0.0
N564 N 0.8675 0.3284 0.84306 0.0
C565 C 0.85628 0.32324 0.82488 0.0
H566 H 0.86232 0.31287 0.87342 0.0
Co567 Co 0.89305 0.34873 0.84731 0.0
C568 C 0.89871 0.3778 0.81379 0.0
O569 O 0.91594 0.3802 0.8091 0.0
N570 N 0.91911 0.36945 0.85221 0.0
C571 C 0.95097 0.38634 0.85879 0.0
C572 C 0.93525 0.36814 0.85548 0.0
C573 C 0.92547 0.38873 0.85472 0.0
N574 N 0.94491 0.39941 0.85811 0.0
O575 O 0.8849 0.35762 0.87205 0.0
H576 H 0.93583 0.35489 0.85603 0.0
H577 H 0.91603 0.39488 0.85362 0.0
O578 O 0.88808 0.36549 0.82831 0.0
C579 C 0.88992 0.35266 0.88959 0.0
O580 O 0.89862 0.34233 0.888 0.0
N581 N 0.90112 0.33857 0.82423 0.0
C582 C 0.91898 0.32501 0.79559 0.0
C583 C 0.90776 0.33284 0.7876 0.0
C584 C 0.8988 0.3394 0.8022 0.0
C585 C 0.90895 0.32794 0.83202 0.0
C586 C 0.91855 0.32159 0.81814 0.0
H587 H 0.89053 0.34556 0.79554 0.0
H588 H 0.90884 0.32548 0.84942 0.0
H589 H 0.86035 0.33166 0.81 0.0
H590 H 0.82952 0.28642 0.85476 0.0
H591 H 0.96572 0.3896 0.86187 0.0
H592 H 0.90655 0.33464 0.77024 0.0
H593 H 0.92654 0.31524 0.82531 0.0
C594 C 0.14691 0.46219 0.63507 0.0
C595 C 0.16449 0.46543 0.64306 0.0
N596 N 0.16728 0.47357 0.66304 0.0
N597 N 0.13856 0.4683 0.64981 0.0
C598 C 0.15138 0.47533 0.66661 0.0
H599 H 0.14021 0.45497 0.6199 0.0
Co600 Co 0.11307 0.46364 0.64738 0.0
C601 C 0.10834 0.48683 0.68147 0.0
O602 O 0.09132 0.4717 0.68616 0.0
N603 N 0.08692 0.45879 0.64425 0.0
C604 C 0.05469 0.44488 0.64165 0.0
C605 C 0.07005 0.44164 0.64377 0.0
C606 C 0.08122 0.47221 0.64143 0.0
N607 N 0.06163 0.46417 0.64033 0.0
O608 O 0.12043 0.4806 0.62258 0.0
H609 H 0.0686 0.42744 0.64486 0.0
H610 H 0.09134 0.48768 0.64061 0.0
O611 O 0.11912 0.48548 0.66685 0.0
C612 C 0.11407 0.47059 0.60515 0.0
O613 O 0.10435 0.45153 0.60682 0.0
N614 N 0.10593 0.44555 0.67037 0.0
C615 C 0.09058 0.41439 0.69947 0.0
C616 C 0.10197 0.43355 0.70707 0.0
C617 C 0.10979 0.44895 0.6922 0.0
C618 C 0.09764 0.42703 0.66264 0.0
C619 C 0.08932 0.41121 0.67683 0.0
H620 H 0.11853 0.46349 0.69846 0.0
H621 H 0.09641 0.42454 0.64519 0.0
H622 H 0.14887 0.48111 0.68144 0.0
H623 H 0.17393 0.46109 0.63519 0.0
H624 H 0.03949 0.43375 0.64168 0.0
H625 H 0.10428 0.43668 0.72438 0.0
H626 H 0.08099 0.39676 0.66996 0.0
C627 C 0.69549 0.13783 0.65693 0.0
C628 C 0.71239 0.15266 0.66569 0.0
N629 N 0.70888 0.16666 0.67264 0.0
N630 N 0.68113 0.14222 0.65856 0.0
C631 C 0.69009 0.16027 0.66753 0.0
H632 H 0.69401 0.12471 0.64993 0.0
Co633 Co 0.65455 0.12696 0.64984 0.0
C634 C 0.65087 0.14401 0.69213 0.0
O635 O 0.66334 0.14063 0.70259 0.0
N636 N 0.62815 0.11232 0.6412 0.0
C637 C 0.59828 0.10623 0.63313 0.0
C638 C 0.61713 0.12049 0.63694 0.0
C639 C 0.61548 0.09289 0.63982 0.0
N640 N 0.59713 0.08878 0.63501 0.0
O641 O 0.65816 0.14685 0.62966 0.0
H642 H 0.62229 0.13592 0.63746 0.0
H643 H 0.61949 0.08193 0.64274 0.0
O644 O 0.6467 0.13895 0.67218 0.0
C645 C 0.66771 0.14757 0.61266 0.0
O646 O 0.67597 0.13679 0.61197 0.0
N647 N 0.65105 0.1064 0.66784 0.0
C648 C 0.64522 0.07202 0.68661 0.0
C649 C 0.63786 0.08282 0.69668 0.0
C650 C 0.64043 0.09977 0.68664 0.0
C651 C 0.65763 0.09557 0.65758 0.0
C652 C 0.65503 0.07841 0.66675 0.0
H653 H 0.63298 0.10675 0.69344 0.0
H654 H 0.66418 0.09987 0.64158 0.0
H655 H 0.68297 0.16863 0.67052 0.0
H656 H 0.72601 0.15279 0.66756 0.0
H657 H 0.58618 0.10859 0.63023 0.0
H658 H 0.62937 0.07768 0.71155 0.0
H659 H 0.66026 0.06999 0.65817 0.0
C660 C 0.5396 0.69573 0.63823 0.0
C661 C 0.53559 0.70843 0.64914 0.0
N662 N 0.5258 0.6998 0.6676 0.0
N663 N 0.53233 0.67899 0.64953 0.0
C664 C 0.52399 0.68189 0.6674 0.0
H665 H 0.54804 0.69887 0.62341 0.0
Co666 Co 0.53683 0.65876 0.64171 0.0
C667 C 0.51707 0.62897 0.67591 0.0
O668 O 0.53241 0.62679 0.67714 0.0
N669 N 0.54162 0.63835 0.6329 0.0
C670 C 0.55631 0.62262 0.62037 0.0
C671 C 0.55829 0.64052 0.62442 0.0
C672 C 0.52934 0.61879 0.6324 0.0
N673 N 0.53813 0.60878 0.62578 0.0
O674 O 0.51767 0.65082 0.61915 0.0
H675 H 0.57117 0.65418 0.62091 0.0
H676 H 0.51429 0.61199 0.6374 0.0
O677 O 0.51699 0.64136 0.66261 0.0
C678 C 0.52625 0.65886 0.60137 0.0
O679 O 0.5453 0.66975 0.60155 0.0
N680 N 0.55696 0.66817 0.66261 0.0
C681 C 0.58982 0.68087 0.68871 0.0
C682 C 0.57131 0.67317 0.69819 0.0
C683 C 0.5551 0.66748 0.68483 0.0
C684 C 0.57498 0.67847 0.65355 0.0
C685 C 0.59164 0.68459 0.6662 0.0
H686 H 0.54111 0.66207 0.69251 0.0
H687 H 0.57642 0.68158 0.63625 0.0
H688 H 0.51718 0.67128 0.68028 0.0
H689 H 0.54043 0.72327 0.64431 0.0
H690 H 0.56751 0.62014 0.61377 0.0
H691 H 0.56916 0.67065 0.71561 0.0
H692 H 0.60574 0.69165 0.65832 0.0
C693 C 0.85019 0.54432 0.6479 0.0
C694 C 0.83297 0.5418 0.65615 0.0
N695 N 0.83238 0.53837 0.6778 0.0
N696 N 0.86056 0.54238 0.66412 0.0
C697 C 0.84923 0.53856 0.68212 0.0
H698 H 0.85513 0.54806 0.63123 0.0
Co699 Co 0.88633 0.54774 0.66112 0.0
C700 C 0.89231 0.52621 0.69664 0.0
O701 O 0.90961 0.54121 0.70055 0.0
N702 N 0.91258 0.55325 0.65742 0.0
C703 C 0.94455 0.56835 0.65157 0.0
C704 C 0.92872 0.57075 0.65452 0.0
C705 C 0.91907 0.5404 0.65527 0.0
N706 N 0.93858 0.54922 0.65222 0.0
O707 O 0.87883 0.52952 0.6375 0.0
H708 H 0.92919 0.58453 0.65392 0.0
H709 H 0.90962 0.52481 0.6563 0.0
O710 O 0.88138 0.52704 0.68187 0.0
C711 C 0.88453 0.53883 0.61956 0.0
O712 O 0.89293 0.5579 0.62013 0.0
N713 N 0.89389 0.5671 0.68281 0.0
C714 C 0.9126 0.60029 0.70868 0.0
C715 C 0.9026 0.58174 0.71828 0.0
C716 C 0.89282 0.56532 0.70504 0.0
C717 C 0.90059 0.58494 0.67362 0.0
C718 C 0.91023 0.60179 0.68619 0.0
H719 H 0.88515 0.55133 0.71285 0.0
H720 H 0.8997 0.58613 0.6561 0.0
H721 H 0.85364 0.53686 0.69826 0.0
H722 H 0.82195 0.54286 0.64685 0.0
H723 H 0.95929 0.57992 0.64867 0.0
H724 H 0.90333 0.57969 0.73566 0.0
H725 H 0.91674 0.6158 0.67814 0.0
C726 C 0.31738 0.8383 0.63198 0.0
C727 C 0.30314 0.82143 0.64144 0.0
N728 N 0.31005 0.81865 0.66038 0.0
N729 N 0.33334 0.84619 0.64475 0.0
C730 C 0.32849 0.83374 0.66184 0.0
H731 H 0.3158 0.84493 0.61728 0.0
Co732 Co 0.35481 0.87104 0.64004 0.0
C733 C 0.38459 0.87279 0.67071 0.0
O734 O 0.38962 0.89068 0.67632 0.0
N735 N 0.37634 0.89662 0.63432 0.0
C736 C 0.39175 0.9278 0.62424 0.0
C737 C 0.37402 0.91156 0.62767 0.0
C738 C 0.39597 0.90416 0.63348 0.0
N739 N 0.4057 0.92329 0.62805 0.0
O740 O 0.36113 0.86212 0.61404 0.0
H741 H 0.3603 0.91081 0.6247 0.0
H742 H 0.40308 0.8958 0.63644 0.0
O743 O 0.37107 0.86376 0.65672 0.0
C744 C 0.35568 0.86703 0.59684 0.0
O745 O 0.34621 0.87659 0.59895 0.0
N746 N 0.34754 0.87996 0.66503 0.0
C747 C 0.34157 0.90049 0.69806 0.0
C748 C 0.34633 0.88613 0.70316 0.0
C749 C 0.34918 0.87596 0.68639 0.0
C750 C 0.33895 0.89066 0.66026 0.0
C751 C 0.33652 0.90168 0.67636 0.0
H752 H 0.35344 0.86552 0.69083 0.0
H753 H 0.33482 0.8914 0.64365 0.0
H754 H 0.33802 0.83591 0.67544 0.0
H755 H 0.28842 0.81258 0.63549 0.0
H756 H 0.39412 0.94196 0.61954 0.0
H757 H 0.34889 0.88348 0.71985 0.0
H758 H 0.33196 0.91187 0.67142 0.0
C759 C 0.46565 0.31753 0.64649 0.0
C760 C 0.46897 0.30407 0.65689 0.0
N761 N 0.47367 0.30962 0.67784 0.0
N762 N 0.46836 0.33162 0.66073 0.0
C763 C 0.4734 0.32645 0.67967 0.0
H764 H 0.46084 0.31669 0.6298 0.0
Co765 Co 0.46324 0.35178 0.65486 0.0
C766 C 0.4844 0.381 0.68929 0.0
O767 O 0.46941 0.3836 0.69183 0.0
N768 N 0.45799 0.37229 0.64819 0.0
C769 C 0.44311 0.38849 0.63795 0.0
C770 C 0.44079 0.37049 0.6422 0.0
C771 C 0.47073 0.39168 0.64633 0.0
N772 N 0.46195 0.40196 0.64078 0.0
O773 O 0.48192 0.36085 0.6316 0.0
H774 H 0.42732 0.35702 0.64022 0.0
H775 H 0.48616 0.39816 0.64934 0.0
O776 O 0.48361 0.36858 0.67542 0.0
C777 C 0.47318 0.35628 0.61325 0.0
O778 O 0.45408 0.34607 0.61312 0.0
N779 N 0.44353 0.34151 0.67642 0.0
C780 C 0.41044 0.32848 0.70241 0.0
C781 C 0.42896 0.33624 0.71193 0.0
C782 C 0.44533 0.34256 0.69865 0.0
C783 C 0.42556 0.3309 0.66734 0.0
C784 C 0.40881 0.32482 0.67984 0.0
H785 H 0.45931 0.34868 0.70646 0.0
H786 H 0.42425 0.32818 0.64994 0.0
H787 H 0.47652 0.33464 0.69466 0.0
H788 H 0.46708 0.29073 0.64987 0.0
H789 H 0.43175 0.39131 0.63268 0.0
H790 H 0.43095 0.33812 0.72944 0.0
H791 H 0.39495 0.31842 0.67152 0.0
H792 H 0.49929 0.07588 0.15033 0.0
H793 H 0.5134 0.05467 0.15048 0.0
H794 H 0.46316 0.01045 0.11648 0.0
H795 H 0.44919 0.03164 0.11565 0.0
H796 H 0.47334 0.99564 0.15206 0.0
H797 H 0.50408 0.03577 0.0895 0.0
H798 H 0.52272 0.06681 0.06981 0.0
H799 H 0.57182 0.08274 0.11167 0.0
H800 H 0.55332 0.05193 0.13193 0.0
H801 H 0.51207 0.9335 0.1291 0.0
H802 H 0.4978 0.95443 0.12466 0.0
H803 H 0.54885 0.00222 0.15363 0.0
H804 H 0.56309 0.98152 0.15815 0.0
H805 H 0.53757 0.01471 0.11924 0.0
H806 H 0.5072 0.97613 0.18284 0.0
H807 H 0.4894 0.94523 0.203 0.0
H808 H 0.44029 0.92688 0.16046 0.0
H809 H 0.45796 0.95759 0.13974 0.0
C810 C 0.49134 0.0618 0.14254 0.0
C811 C 0.473 0.05558 0.13302 0.0
C812 C 0.4994 0.04961 0.14277 0.0
C813 C 0.48932 0.03092 0.13353 0.0
C814 C 0.47114 0.02472 0.12388 0.0
C815 C 0.46315 0.03693 0.12347 0.0
C816 C 0.49765 0.01775 0.134 0.0
C817 C 0.48726 0.9997 0.14462 0.0
C818 C 0.51599 0.02317 0.12468 0.0
C819 C 0.52724 0.04161 0.11237 0.0
C820 C 0.5188 0.04595 0.09463 0.0
C821 C 0.52935 0.0635 0.08334 0.0
C822 C 0.54844 0.07676 0.08949 0.0
C823 C 0.55702 0.07247 0.10693 0.0
C824 C 0.54651 0.05496 0.11833 0.0
C825 C 0.52022 0.94843 0.1346 0.0
C826 C 0.53877 0.95575 0.14398 0.0
C827 C 0.51206 0.96043 0.132 0.0
C828 C 0.52218 0.97993 0.13894 0.0
C829 C 0.54078 0.9873 0.14801 0.0
C830 C 0.54894 0.97539 0.15054 0.0
C831 C 0.51332 0.99262 0.13739 0.0
C832 C 0.52361 0.0106 0.1266 0.0
C833 C 0.49496 0.98721 0.14671 0.0
C834 C 0.48399 0.96906 0.15958 0.0
C835 C 0.49264 0.96547 0.17771 0.0
C836 C 0.48258 0.94799 0.18922 0.0
C837 C 0.46378 0.93406 0.18292 0.0
C838 C 0.4549 0.93767 0.16524 0.0
C839 C 0.46492 0.95511 0.15361 0.0
H840 H 0.45611 0.92049 0.19175 0.0
H841 H 0.55658 0.09033 0.08073 0.0
H842 H 0.58985 0.54138 0.17437 0.0
H843 H 0.55645 0.53323 0.16685 0.0
H844 H 0.54602 0.48075 0.13421 0.0
H845 H 0.57968 0.48889 0.14182 0.0
H846 H 0.52838 0.49851 0.11291 0.0
H847 H 0.53097 0.47839 0.18628 0.0
H848 H 0.54349 0.48253 0.22393 0.0
H849 H 0.52982 0.52776 0.23499 0.0
H850 H 0.51738 0.52401 0.1973 0.0
H851 H 0.42573 0.44413 0.12114 0.0
H852 H 0.46074 0.4572 0.12249 0.0
H853 H 0.46767 0.50714 0.15811 0.0
H854 H 0.43232 0.49372 0.1574 0.0
H855 H 0.48763 0.49238 0.17722 0.0
H856 H 0.48262 0.51065 0.10433 0.0
H857 H 0.46976 0.50596 0.06681 0.0
H858 H 0.48775 0.46404 0.05464 0.0
H859 H 0.50048 0.46827 0.09221 0.0
C860 C 0.58049 0.52811 0.16555 0.0
C861 C 0.58735 0.51561 0.15902 0.0
C862 C 0.56137 0.52348 0.16123 0.0
C863 C 0.54855 0.50617 0.15037 0.0
C864 C 0.55561 0.49414 0.14273 0.0
C865 C 0.57486 0.49882 0.14702 0.0
C866 C 0.52763 0.50033 0.14793 0.0
C867 C 0.5194 0.49695 0.12697 0.0
C868 C 0.516 0.49878 0.16623 0.0
C869 C 0.52342 0.50104 0.18891 0.0
C870 C 0.53077 0.48932 0.19669 0.0
C871 C 0.53781 0.49157 0.21805 0.0
C872 C 0.53747 0.50542 0.23183 0.0
C873 C 0.53007 0.51704 0.22429 0.0
C874 C 0.523 0.51484 0.20294 0.0
C875 C 0.43465 0.45792 0.12923 0.0
C876 C 0.42613 0.46779 0.13929 0.0
C877 C 0.45477 0.46551 0.12978 0.0
C878 C 0.46698 0.48326 0.14024 0.0
C879 C 0.45859 0.49343 0.14988 0.0
C880 C 0.43839 0.48583 0.14931 0.0
C881 C 0.48826 0.49048 0.14216 0.0
C882 C 0.4966 0.49409 0.16309 0.0
C883 C 0.49994 0.4922 0.12382 0.0
C884 C 0.49237 0.48967 0.10117 0.0
C885 C 0.48371 0.50032 0.09372 0.0
C886 C 0.47646 0.49776 0.07242 0.0
C887 C 0.4779 0.48468 0.05837 0.0
C888 C 0.48663 0.47416 0.06556 0.0
C889 C 0.49389 0.47665 0.08684 0.0
H890 H 0.47228 0.48272 0.04189 0.0
H891 H 0.54291 0.50712 0.24837 0.0
H892 H 0.03748 0.58022 0.10573 0.0
H893 H 0.01421 0.54549 0.107 0.0
H894 H 0.05089 0.5375 0.15282 0.0
H895 H 0.07395 0.57255 0.15231 0.0
H896 H 0.01463 0.51397 0.09677 0.0
H897 H 0.02242 0.50038 0.18795 0.0
H898 H 0.03193 0.51836 0.22283 0.0
H899 H 0.01492 0.55828 0.19817 0.0
H900 H 0.00506 0.54038 0.16328 0.0
H901 H 0.96814 0.4129 0.12017 0.0
H902 H 0.9909 0.44775 0.11709 0.0
H903 H 0.95089 0.45968 0.15211 0.0
H904 H 0.92814 0.42465 0.15562 0.0
H905 H 0.98756 0.48141 0.16772 0.0
H906 H 0.95701 0.46737 0.09763 0.0
H907 H 0.94537 0.44986 0.06268 0.0
H908 H 0.00392 0.46634 0.04486 0.0
H909 H 0.01589 0.48372 0.07987 0.0
C910 C 0.04062 0.57115 0.11619 0.0
C911 C 0.05754 0.57933 0.12914 0.0
C912 C 0.02733 0.55119 0.11675 0.0
C913 C 0.03056 0.53881 0.13026 0.0
C914 C 0.04784 0.54676 0.14254 0.0
C915 C 0.06116 0.56681 0.14205 0.0
C916 C 0.01557 0.51773 0.1317 0.0
C917 C 0.00879 0.50687 0.11232 0.0
C918 C 0.00757 0.50842 0.15191 0.0
C919 C 0.01321 0.51916 0.17292 0.0
C920 C 0.02065 0.51296 0.19001 0.0
C921 C 0.02611 0.52314 0.20977 0.0
C922 C 0.02411 0.5395 0.21268 0.0
C923 C 0.01655 0.54566 0.19586 0.0
C924 C 0.01103 0.5355 0.17608 0.0
C925 C 0.96414 0.42291 0.1272 0.0
C926 C 0.9463 0.41594 0.13819 0.0
C927 C 0.97714 0.44287 0.1253 0.0
C928 C 0.97263 0.45641 0.13428 0.0
C929 C 0.95472 0.44954 0.14504 0.0
C930 C 0.94163 0.42951 0.14685 0.0
C931 C 0.98684 0.47766 0.13283 0.0
C932 C 0.99347 0.48853 0.1522 0.0
C933 C 0.99446 0.48706 0.11259 0.0
C934 C 0.98733 0.4767 0.09147 0.0
C935 C 0.96739 0.46714 0.08634 0.0
C936 C 0.96074 0.45725 0.0665 0.0
C937 C 0.97389 0.45695 0.05158 0.0
C938 C 0.99374 0.46657 0.05644 0.0
C939 C 1.00047 0.47645 0.07627 0.0
H940 H 0.96871 0.44929 0.03623 0.0
H941 H 0.02836 0.54738 0.22798 0.0
H942 H 0.03776 0.44565 0.34173 0.0
H943 H 0.01789 0.46098 0.34543 0.0
H944 H 0.06331 0.50738 0.38305 0.0
H945 H 0.08342 0.49192 0.37936 0.0
H946 H 0.02545 0.49284 0.40091 0.0
H947 H 0.05804 0.51675 0.33305 0.0
H948 H 0.06981 0.51486 0.29639 0.0
H949 H 0.01097 0.47987 0.2741 0.0
H950 H 0.99882 0.48123 0.31077 0.0
H951 H 0.98362 0.55409 0.3921 0.0
H952 H 0.00505 0.54028 0.3917 0.0
H953 H 0.96494 0.4943 0.34925 0.0
H954 H 0.94361 0.50836 0.3492 0.0
H955 H 1.00193 0.51044 0.3344 0.0
H956 H 0.96953 0.48583 0.40301 0.0
H957 H 0.95809 0.48795 0.43979 0.0
H958 H 0.01707 0.52488 0.4607 0.0
H959 H 0.02886 0.52322 0.42392 0.0
C960 C 0.04349 0.45903 0.35095 0.0
C961 C 0.06215 0.46756 0.3603 0.0
C962 C 0.03216 0.46786 0.35292 0.0
C963 C 0.03915 0.48541 0.36435 0.0
C964 C 0.05766 0.49387 0.37407 0.0
C965 C 0.06917 0.48512 0.37186 0.0
C966 C 0.02697 0.49476 0.36583 0.0
C967 C 0.02056 0.49702 0.38641 0.0
C968 C 0.02028 0.49983 0.34686 0.0
C969 C 0.02751 0.49894 0.32475 0.0
C970 C 0.0476 0.50849 0.3204 0.0
C971 C 0.05435 0.50754 0.29961 0.0
C972 C 0.04115 0.49722 0.28294 0.0
C973 C 0.02117 0.48784 0.28704 0.0
C974 C 0.01435 0.4887 0.30783 0.0
C975 C 0.97931 0.54101 0.38272 0.0
C976 C 0.96189 0.53237 0.37063 0.0
C977 C 0.99153 0.53303 0.38264 0.0
C978 C 0.98661 0.51618 0.37054 0.0
C979 C 0.96906 0.5073 0.35874 0.0
C980 C 0.95677 0.51524 0.35888 0.0
C981 C 1.00013 0.50829 0.36948 0.0
C982 C 0.00684 0.50634 0.34894 0.0
C983 C 0.00713 0.50358 0.38849 0.0
C984 C 1.00007 0.50457 0.41063 0.0
C985 C 0.98006 0.49455 0.41539 0.0
C986 C 0.97351 0.49564 0.43625 0.0
C987 C 0.98684 0.50659 0.45255 0.0
C988 C 0.00675 0.51643 0.44804 0.0
C989 C 0.01338 0.51541 0.42719 0.0
H990 H 0.98174 0.50741 0.4687 0.0
H991 H 0.0464 0.49652 0.26684 0.0
H992 H 0.42592 0.92259 0.35201 0.0
H993 H 0.46084 0.94658 0.3508 0.0
H994 H 0.44968 0.98932 0.38033 0.0
H995 H 0.41488 0.96538 0.38174 0.0
H996 H 0.47645 0.00406 0.34438 0.0
H997 H 0.46692 0.96947 0.41204 0.0
H998 H 0.456 0.94066 0.43553 0.0
H999 H 0.49174 0.92402 0.39938 0.0
H1000 H 0.50281 0.95275 0.37558 0.0
H1001 H 0.57443 0.07289 0.37497 0.0
H1002 H 0.53922 0.05037 0.37545 0.0
H1003 H 0.5485 0.00367 0.35503 0.0
H1004 H 0.5834 0.02591 0.35444 0.0
H1005 H 0.5223 0.99139 0.38662 0.0
H1006 H 0.53274 0.02601 0.31947 0.0
H1007 H 0.54573 0.05588 0.29735 0.0
H1008 H 0.50889 0.07234 0.33138 0.0
H1009 H 0.49595 0.04272 0.35407 0.0
C1010 C 0.43092 0.93713 0.35808 0.0
C1011 C 0.41765 0.94204 0.36708 0.0
C1012 C 0.45087 0.95082 0.35746 0.0
C1013 C 0.45791 0.96977 0.36553 0.0
C1014 C 0.44462 0.97483 0.37399 0.0
C1015 C 0.42475 0.96108 0.37495 0.0
C1016 C 0.47918 0.98409 0.36588 0.0
C1017 C 0.48646 0.0014 0.35379 0.0
C1018 C 0.49233 0.98053 0.37784 0.0
C1019 C 0.48552 0.96313 0.3919 0.0
C1020 C 0.4723 0.95957 0.40897 0.0
C1021 C 0.46613 0.94328 0.42238 0.0
C1022 C 0.47312 0.93047 0.4189 0.0
C1023 C 0.48632 0.93395 0.40203 0.0
C1024 C 0.49258 0.95025 0.38861 0.0
C1025 C 0.56898 0.05786 0.37049 0.0
C1026 C 0.58191 0.05129 0.36482 0.0
C1027 C 0.54881 0.04497 0.37078 0.0
C1028 C 0.54111 0.02526 0.36517 0.0
C1029 C 0.554 0.01872 0.35958 0.0
C1030 C 0.57407 0.03153 0.35934 0.0
C1031 C 0.51969 0.01136 0.36499 0.0
C1032 C 0.51235 0.9941 0.37714 0.0
C1033 C 0.50654 0.01494 0.35293 0.0
C1034 C 0.51354 0.03226 0.33864 0.0
C1035 C 0.52745 0.03603 0.3223 0.0
C1036 C 0.53483 0.05292 0.30968 0.0
C1037 C 0.52822 0.06603 0.31306 0.0
C1038 C 0.51405 0.06218 0.32887 0.0
C1039 C 0.50668 0.04534 0.34161 0.0
H1040 H 0.53412 0.07917 0.30342 0.0
H1041 H 0.46835 0.91788 0.42932 0.0
H1042 H 0.45755 0.41583 0.39521 0.0
H1043 H 0.46874 0.45057 0.39307 0.0
H1044 H 0.50299 0.45547 0.33623 0.0
H1045 H 0.49196 0.42051 0.33861 0.0
H1046 H 0.52141 0.4885 0.36226 0.0
H1047 H 0.45929 0.45045 0.32906 0.0
H1048 H 0.42527 0.42383 0.32655 0.0
H1049 H 0.41008 0.44717 0.38148 0.0
H1050 H 0.44409 0.47377 0.38455 0.0
H1051 H 0.52321 0.57798 0.332 0.0
H1052 H 0.52099 0.54598 0.33263 0.0
H1053 H 0.48131 0.52907 0.38712 0.0
H1054 H 0.48321 0.5607 0.38613 0.0
H1055 H 0.46695 0.50206 0.35738 0.0
H1056 H 0.53068 0.53976 0.39096 0.0
H1057 H 0.56482 0.56633 0.39193 0.0
H1058 H 0.57701 0.54404 0.33383 0.0
H1059 H 0.54285 0.51748 0.33233 0.0
C1060 C 0.46768 0.42436 0.38245 0.0
C1061 C 0.47368 0.41542 0.36692 0.0
C1062 C 0.47408 0.44422 0.38121 0.0
C1063 C 0.48637 0.45559 0.36418 0.0
C1064 C 0.49345 0.447 0.34945 0.0
C1065 C 0.48717 0.42705 0.35084 0.0
C1066 C 0.4903 0.47588 0.36094 0.0
C1067 C 0.50953 0.49149 0.36092 0.0
C1068 C 0.47484 0.47984 0.3591 0.0
C1069 C 0.45428 0.46403 0.35713 0.0
C1070 C 0.44872 0.44984 0.34069 0.0
C1071 C 0.42943 0.43476 0.33916 0.0
C1072 C 0.41553 0.43379 0.35387 0.0
C1073 C 0.42087 0.44794 0.37011 0.0
C1074 C 0.44015 0.46303 0.37174 0.0
C1075 C 0.5143 0.5675 0.34431 0.0
C1076 C 0.50327 0.57178 0.35893 0.0
C1077 C 0.51302 0.54921 0.34469 0.0
C1078 C 0.50097 0.53499 0.35995 0.0
C1079 C 0.49058 0.53964 0.37505 0.0
C1080 C 0.49167 0.55774 0.3745 0.0
C1081 C 0.49805 0.51488 0.35966 0.0
C1082 C 0.4789 0.49918 0.35873 0.0
C1083 C 0.51361 0.51094 0.36038 0.0
C1084 C 0.53417 0.52675 0.36143 0.0
C1085 C 0.54061 0.5406 0.37832 0.0
C1086 C 0.55997 0.55565 0.37896 0.0
C1087 C 0.57305 0.55691 0.3629 0.0
C1088 C 0.56684 0.54307 0.34621 0.0
C1089 C 0.54749 0.52801 0.34548 0.0
H1090 H 0.58803 0.56858 0.36341 0.0
H1091 H 0.4006 0.4221 0.35267 0.0
H1092 H 0.46906 0.05637 0.84854 0.0
H1093 H 0.46812 0.02493 0.84779 0.0
H1094 H 0.51819 0.04824 0.89007 0.0
H1095 H 0.51892 0.07922 0.89138 0.0
H1096 H 0.52256 0.03171 0.85152 0.0
H1097 H 0.47511 0.01598 0.90944 0.0
H1098 H 0.44443 0.01159 0.92473 0.0
H1099 H 0.41203 0.96883 0.87566 0.0
H1100 H 0.44255 0.97316 0.85989 0.0
H1101 H 0.53897 0.95817 0.88431 0.0
H1102 H 0.52961 0.98311 0.88545 0.0
H1103 H 0.47825 0.94627 0.84772 0.0
H1104 H 0.48763 0.921 0.84672 0.0
H1105 H 0.47113 0.96758 0.87889 0.0
H1106 H 0.51589 0.98155 0.82096 0.0
H1107 H 0.54531 0.98583 0.80242 0.0
H1108 H 0.58119 0.03133 0.84736 0.0
H1109 H 0.5519 0.02735 0.86613 0.0
C1110 C 0.4796 0.05466 0.85804 0.0
C1111 C 0.49425 0.07049 0.86978 0.0
C1112 C 0.47909 0.03669 0.85753 0.0
C1113 C 0.49319 0.03426 0.86875 0.0
C1114 C 0.50727 0.04979 0.88112 0.0
C1115 C 0.50772 0.06758 0.88175 0.0
C1116 C 0.49438 0.01616 0.86669 0.0
C1117 C 0.51135 0.01774 0.85767 0.0
C1118 C 0.47943 0.99771 0.8738 0.0
C1119 C 0.46111 0.99506 0.88334 0.0
C1120 C 0.46145 0.00577 0.90179 0.0
C1121 C 0.44409 0.00327 0.91057 0.0
C1122 C 0.4263 0.98998 0.90113 0.0
C1123 C 0.42582 0.97913 0.88293 0.0
C1124 C 0.44314 0.9816 0.87408 0.0
C1125 C 0.52555 0.95526 0.87649 0.0
C1126 C 0.51416 0.93771 0.86523 0.0
C1127 C 0.52021 0.96954 0.87711 0.0
C1128 C 0.50344 0.9668 0.86625 0.0
C1129 C 0.49131 0.94878 0.85613 0.0
C1130 C 0.49662 0.93433 0.85563 0.0
C1131 C 0.49964 0.98337 0.86445 0.0
C1132 C 0.48223 0.98152 0.87258 0.0
C1133 C 0.51402 0.0016 0.85612 0.0
C1134 C 0.53172 0.00404 0.84504 0.0
C1135 C 0.53006 0.99238 0.82698 0.0
C1136 C 0.54672 0.99478 0.8164 0.0
C1137 C 0.56513 0.00877 0.82378 0.0
C1138 C 0.56692 0.02047 0.84168 0.0
C1139 C 0.55029 0.01821 0.85224 0.0
H1140 H 0.57802 0.01059 0.81559 0.0
H1141 H 0.41287 0.98806 0.90796 0.0
H1142 H 0.4183 0.45227 0.85776 0.0
H1143 H 0.45346 0.46758 0.86049 0.0
H1144 H 0.45742 0.52272 0.87407 0.0
H1145 H 0.42186 0.50732 0.87124 0.0
H1146 H 0.48548 0.52762 0.84617 0.0
H1147 H 0.46373 0.4966 0.91497 0.0
H1148 H 0.44417 0.47003 0.94075 0.0
H1149 H 0.46739 0.43603 0.9136 0.0
H1150 H 0.48698 0.46233 0.8875 0.0
H1151 H 0.58451 0.57023 0.8798 0.0
H1152 H 0.54945 0.55706 0.88072 0.0
H1153 H 0.54034 0.50144 0.85928 0.0
H1154 H 0.57553 0.51462 0.85775 0.0
H1155 H 0.5152 0.49856 0.8932 0.0
H1156 H 0.537 0.53132 0.82377 0.0
H1157 H 0.55747 0.55953 0.80031 0.0
H1158 H 0.53444 0.59221 0.83131 0.0
H1159 H 0.51411 0.56432 0.85528 0.0
C1160 C 0.42652 0.4676 0.86162 0.0
C1161 C 0.4171 0.47846 0.86454 0.0
C1162 C 0.44674 0.47639 0.86314 0.0
C1163 C 0.45821 0.49629 0.86787 0.0
C1164 C 0.44894 0.50733 0.87047 0.0
C1165 C 0.42859 0.49851 0.86883 0.0
C1166 C 0.47983 0.50534 0.86984 0.0
C1167 C 0.49196 0.52145 0.85674 0.0
C1168 C 0.48844 0.49724 0.88344 0.0
C1169 C 0.47672 0.48139 0.89915 0.0
C1170 C 0.46458 0.48341 0.91439 0.0
C1171 C 0.4535 0.4684 0.92908 0.0
C1172 C 0.45449 0.45133 0.92876 0.0
C1173 C 0.46662 0.44926 0.91381 0.0
C1174 C 0.47775 0.46422 0.89909 0.0
C1175 C 0.57517 0.55522 0.87513 0.0
C1176 C 0.58309 0.54362 0.86846 0.0
C1177 C 0.55503 0.54768 0.87576 0.0
C1178 C 0.5422 0.52832 0.8698 0.0
C1179 C 0.54994 0.51645 0.86392 0.0
C1180 C 0.57014 0.52402 0.86315 0.0
C1181 C 0.52075 0.5206 0.86931 0.0
C1182 C 0.50868 0.50476 0.88271 0.0
C1183 C 0.51226 0.52915 0.85625 0.0
C1184 C 0.52418 0.54579 0.8415 0.0
C1185 C 0.5364 0.54457 0.8257 0.0
C1186 C 0.54797 0.5605 0.8123 0.0
C1187 C 0.54729 0.57767 0.81436 0.0
C1188 C 0.53498 0.57891 0.82977 0.0
C1189 C 0.52343 0.56305 0.84326 0.0
H1190 H 0.55628 0.58999 0.80399 0.0
H1191 H 0.44589 0.43973 0.94014 0.0
H1192 H 0.98316 0.42099 0.84791 0.0
H1193 H 0.00407 0.456 0.85125 0.0
H1194 H 0.9556 0.46106 0.87473 0.0
H1195 H 0.9344 0.42569 0.87146 0.0
H1196 H 0.97696 0.48972 0.8461 0.0
H1197 H 0.99039 0.46489 0.91011 0.0
H1198 H 0.99831 0.44373 0.93202 0.0
H1199 H 0.05309 0.46654 0.89887 0.0
H1200 H 0.04538 0.48766 0.87653 0.0
H1201 H 0.03921 0.58726 0.88441 0.0
H1202 H 0.01559 0.55248 0.88215 0.0
H1203 H 0.05944 0.54218 0.85415 0.0
H1204 H 0.08322 0.57697 0.85658 0.0
H1205 H 0.03901 0.51632 0.88705 0.0
H1206 H 0.02384 0.54156 0.82276 0.0
H1207 H 0.0142 0.56199 0.80194 0.0
H1208 H 0.96099 0.53838 0.83839 0.0
H1209 H 0.97042 0.51802 0.85965 0.0
C1210 C 0.97689 0.42942 0.85405 0.0
C1211 C 0.95707 0.42035 0.85971 0.0
C1212 C 0.98893 0.44954 0.8559 0.0
C1213 C 0.98157 0.46124 0.86362 0.0
C1214 C 0.96168 0.45237 0.86881 0.0
C1215 C 0.94955 0.43213 0.8669 0.0
C1216 C 0.99482 0.48266 0.86618 0.0
C1217 C 0.99037 0.49555 0.85536 0.0
C1218 C 0.01246 0.49036 0.87805 0.0
C1219 C 0.01723 0.47775 0.89151 0.0
C1220 C 0.00407 0.4653 0.90737 0.0
C1221 C 0.00853 0.45332 0.91989 0.0
C1222 C 0.02617 0.45376 0.9168 0.0
C1223 C 0.03942 0.46621 0.90123 0.0
C1224 C 0.03502 0.4782 0.88865 0.0
C1225 C 0.04389 0.5776 0.87788 0.0
C1226 C 0.06318 0.58498 0.87072 0.0
C1227 C 0.03029 0.55771 0.8764 0.0
C1228 C 0.03564 0.54467 0.86779 0.0
C1229 C 0.05492 0.55194 0.86077 0.0
C1230 C 0.0685 0.57188 0.86206 0.0
C1231 C 0.02132 0.52339 0.86667 0.0
C1232 C 0.02557 0.51051 0.87784 0.0
C1233 C 0.00335 0.51578 0.85543 0.0
C1234 C 0.99794 0.52841 0.84297 0.0
C1235 C 0.01019 0.54089 0.82652 0.0
C1236 C 0.00473 0.55241 0.81458 0.0
C1237 C 0.987 0.55148 0.81884 0.0
C1238 C 0.97472 0.53909 0.83511 0.0
C1239 C 0.98011 0.52755 0.84709 0.0
H1240 H 0.98271 0.56029 0.80952 0.0
H1241 H 0.0296 0.44447 0.92651 0.0
H1242 H 0.97735 0.56643 0.66043 0.0
H1243 H 0.99815 0.55219 0.65714 0.0
H1244 H 0.94883 0.49764 0.63755 0.0
H1245 H 0.92778 0.51193 0.64054 0.0
H1246 H 0.97116 0.49215 0.66717 0.0
H1247 H 0.98213 0.52657 0.60026 0.0
H1248 H 0.98979 0.55446 0.57633 0.0
H1249 H 0.04629 0.5869 0.60574 0.0
H1250 H 0.03884 0.55925 0.63006 0.0
H1251 H 0.02417 0.44889 0.6268 0.0
H1252 H 0.00389 0.46383 0.62878 0.0
H1253 H 0.05238 0.51656 0.65369 0.0
H1254 H 0.07281 0.5015 0.65239 0.0
H1255 H 0.03067 0.52304 0.62132 0.0
H1256 H 0.01902 0.48766 0.68828 0.0
H1257 H 0.01086 0.45902 0.71113 0.0
H1258 H 0.95493 0.42757 0.68025 0.0
H1259 H 0.96288 0.45595 0.65696 0.0
C1260 C 0.97084 0.55148 0.65513 0.0
C1261 C 0.95078 0.54046 0.65053 0.0
C1262 C 0.98283 0.54331 0.65331 0.0
C1263 C 0.97519 0.52389 0.64681 0.0
C1264 C 0.95512 0.51268 0.64257 0.0
C1265 C 0.94306 0.52087 0.64434 0.0
C1266 C 0.9882 0.51539 0.64469 0.0
C1267 C 0.98399 0.49875 0.65687 0.0
C1268 C 0.00527 0.5242 0.63167 0.0
C1269 C 0.00983 0.5409 0.61713 0.0
C1270 C 0.99612 0.53971 0.60175 0.0
C1271 C 1.00044 0.55546 0.58809 0.0
C1272 C 0.0185 0.57247 0.58955 0.0
C1273 C 0.03229 0.57373 0.60465 0.0
C1274 C 0.02803 0.55801 0.61836 0.0
C1275 C 0.03061 0.46362 0.63286 0.0
C1276 C 0.05019 0.47382 0.63967 0.0
C1277 C 0.01894 0.47218 0.63389 0.0
C1278 C 0.02649 0.49124 0.64165 0.0
C1279 C 0.0462 0.50182 0.64769 0.0
C1280 C 0.05791 0.49318 0.64683 0.0
C1281 C 0.01359 0.49983 0.64377 0.0
C1282 C 0.01783 0.51647 0.63161 0.0
C1283 C 0.99649 0.49095 0.65669 0.0
C1284 C 0.99163 0.47387 0.67072 0.0
C1285 C 0.00505 0.47458 0.68622 0.0
C1286 C 1.00045 0.4584 0.69928 0.0
C1287 C 0.98241 0.44147 0.6971 0.0
C1288 C 0.96891 0.44069 0.6819 0.0
C1289 C 0.97345 0.45683 0.66877 0.0
H1290 H 0.97887 0.42896 0.70723 0.0
H1291 H 0.02183 0.58466 0.57896 0.0
H1292 H 0.58941 0.055 0.65527 0.0
H1293 H 0.55828 0.0243 0.65569 0.0
H1294 H 0.53351 0.04943 0.61305 0.0
H1295 H 0.56434 0.07987 0.6125 0.0
H1296 H 0.51002 0.03189 0.6469 0.0
H1297 H 0.54583 0.01544 0.59516 0.0
H1298 H 0.57324 0.01118 0.58366 0.0
H1299 H 0.5602 0.9697 0.63513 0.0
H1300 H 0.53283 0.97389 0.64708 0.0
H1301 H 0.42482 0.95605 0.60374 0.0
H1302 H 0.45865 0.98157 0.60727 0.0
H1303 H 0.46821 0.94737 0.65505 0.0
H1304 H 0.43389 0.92169 0.65197 0.0
H1305 H 0.49989 0.96749 0.62425 0.0
H1306 H 0.46298 0.9817 0.67453 0.0
H1307 H 0.43593 0.98605 0.68727 0.0
H1308 H 0.45146 0.03174 0.64045 0.0
H1309 H 0.47849 0.02754 0.62726 0.0
C1310 C 0.57743 0.05388 0.6457 0.0
C1311 C 0.57944 0.07004 0.63394 0.0
C1312 C 0.55959 0.0363 0.646 0.0
C1313 C 0.54344 0.03448 0.63442 0.0
C1314 C 0.54563 0.05045 0.62229 0.0
C1315 C 0.56334 0.06793 0.62201 0.0
C1316 C 0.524 0.01633 0.6353 0.0
C1317 C 0.50785 0.01787 0.64177 0.0
C1318 C 0.52112 0.99779 0.62947 0.0
C1319 C 0.53743 0.99514 0.62215 0.0
C1320 C 0.5489 0.00551 0.60411 0.0
C1321 C 0.5644 0.00309 0.5975 0.0
C1322 C 0.56849 0.99022 0.6087 0.0
C1323 C 0.55703 0.97969 0.62649 0.0
C1324 C 0.54151 0.98207 0.63318 0.0
C1325 C 0.43403 0.95384 0.61501 0.0
C1326 C 0.42645 0.93687 0.62783 0.0
C1327 C 0.45346 0.96847 0.61695 0.0
C1328 C 0.46593 0.96657 0.63168 0.0
C1329 C 0.45883 0.9492 0.64363 0.0
C1330 C 0.43923 0.93449 0.64178 0.0
C1331 C 0.48597 0.98331 0.63515 0.0
C1332 C 0.50216 0.9815 0.62958 0.0
C1333 C 0.48898 0.00164 0.64199 0.0
C1334 C 0.47267 0.00418 0.64977 0.0
C1335 C 0.46053 0.99256 0.66681 0.0
C1336 C 0.44522 0.99502 0.67415 0.0
C1337 C 0.44194 0.00911 0.66462 0.0
C1338 C 0.454 0.02081 0.64779 0.0
C1339 C 0.46934 0.01842 0.6404 0.0
H1340 H 0.43009 0.011 0.67033 0.0
H1341 H 0.58051 0.98837 0.60356 0.0
H1342 H 0.50005 0.42926 0.63381 0.0
H1343 H 0.51385 0.46452 0.63092 0.0
H1344 H 0.45694 0.45751 0.64088 0.0
H1345 H 0.44315 0.42255 0.64405 0.0
H1346 H 0.4752 0.48208 0.60777 0.0
H1347 H 0.49088 0.47382 0.68155 0.0
H1348 H 0.50509 0.46256 0.70984 0.0
H1349 H 0.5618 0.49774 0.68188 0.0
H1350 H 0.54787 0.50898 0.65319 0.0
H1351 H 0.50014 0.57977 0.62919 0.0
H1352 H 0.48791 0.54488 0.63172 0.0
H1353 H 0.54633 0.55497 0.62572 0.0
H1354 H 0.55878 0.58976 0.62416 0.0
H1355 H 0.52822 0.52884 0.65601 0.0
H1356 H 0.51309 0.53734 0.58249 0.0
H1357 H 0.49916 0.54814 0.55339 0.0
H1358 H 0.442 0.51232 0.57999 0.0
H1359 H 0.45563 0.50149 0.60943 0.0
C1360 C 0.49048 0.4352 0.63554 0.0
C1361 C 0.4704 0.42287 0.63903 0.0
C1362 C 0.4984 0.45541 0.63385 0.0
C1363 C 0.48645 0.46375 0.63575 0.0
C1364 C 0.46647 0.45148 0.6392 0.0
C1365 C 0.45857 0.43137 0.64091 0.0
C1366 C 0.49456 0.4852 0.63408 0.0
C1367 C 0.48665 0.49228 0.61849 0.0
C1368 C 0.50984 0.49861 0.64767 0.0
C1369 C 0.51829 0.49208 0.66508 0.0
C1370 C 0.50636 0.47905 0.68134 0.0
C1371 C 0.51437 0.47268 0.69746 0.0
C1372 C 0.53432 0.47938 0.69762 0.0
C1373 C 0.54634 0.49253 0.68171 0.0
C1374 C 0.53839 0.49891 0.66552 0.0
C1375 C 0.51047 0.57469 0.62847 0.0
C1376 C 0.53054 0.5879 0.62627 0.0
C1377 C 0.50339 0.55461 0.62975 0.0
C1378 C 0.51614 0.54715 0.62865 0.0
C1379 C 0.53613 0.56026 0.62656 0.0
C1380 C 0.54323 0.58029 0.62539 0.0
C1381 C 0.50875 0.52576 0.62977 0.0
C1382 C 0.5168 0.51867 0.64524 0.0
C1383 C 0.49366 0.51231 0.61599 0.0
C1384 C 0.48541 0.51875 0.59828 0.0
C1385 C 0.49757 0.53188 0.58222 0.0
C1386 C 0.48973 0.53799 0.56566 0.0
C1387 C 0.46972 0.53096 0.56488 0.0
C1388 C 0.4575 0.51777 0.58063 0.0
C1389 C 0.46527 0.51163 0.59725 0.0
H1390 H 0.46367 0.53571 0.55204 0.0
H1391 H 0.54048 0.47442 0.71011 0.0
H1392 H 0.45603 0.25788 0.33571 0.0
H1393 H 0.45983 0.23822 0.30787 0.0
H1394 H 0.49041 0.28871 0.26679 0.0
H1395 H 0.48714 0.30877 0.2948 0.0
H1396 H 0.46184 0.25706 0.24447 0.0
H1397 H 0.51515 0.27039 0.29178 0.0
H1398 H 0.53105 0.27201 0.32694 0.0
H1399 H 0.49516 0.21022 0.33456 0.0
H1400 H 0.47884 0.20826 0.29958 0.0
H1401 H 0.48855 0.20988 0.16495 0.0
H1402 H 0.49009 0.23248 0.19307 0.0
H1403 H 0.46493 0.18554 0.23976 0.0
H1404 H 0.46365 0.16297 0.21175 0.0
H1405 H 0.49238 0.21684 0.2589 0.0
H1406 H 0.43772 0.20323 0.21356 0.0
H1407 H 0.42064 0.20085 0.17905 0.0
H1408 H 0.45751 0.26215 0.16847 0.0
H1409 H 0.475 0.26485 0.2028 0.0
C1410 C 0.46386 0.26503 0.321 0.0
C1411 C 0.47128 0.28511 0.31776 0.0
C1412 C 0.46597 0.25365 0.30499 0.0
C1413 C 0.47552 0.26197 0.28527 0.0
C1414 C 0.48296 0.28195 0.28187 0.0
C1415 C 0.48099 0.29341 0.29796 0.0
C1416 C 0.4772 0.24965 0.26801 0.0
C1417 C 0.46882 0.24853 0.24749 0.0
C1418 C 0.48583 0.23808 0.27213 0.0
C1419 C 0.49565 0.23921 0.29315 0.0
C1420 C 0.51053 0.25717 0.30104 0.0
C1421 C 0.51964 0.25814 0.32092 0.0
C1422 C 0.51409 0.24124 0.333 0.0
C1423 C 0.49944 0.22331 0.3252 0.0
C1424 C 0.49027 0.22225 0.30533 0.0
C1425 C 0.48336 0.20438 0.18121 0.0
C1426 C 0.47588 0.18458 0.18604 0.0
C1427 C 0.48421 0.21732 0.1973 0.0
C1428 C 0.47729 0.2107 0.21851 0.0
C1429 C 0.47035 0.19104 0.22354 0.0
C1430 C 0.46967 0.17813 0.20751 0.0
C1431 C 0.47692 0.22415 0.23532 0.0
C1432 C 0.48551 0.22546 0.25579 0.0
C1433 C 0.46832 0.23577 0.23123 0.0
C1434 C 0.4578 0.2342 0.21062 0.0
C1435 C 0.44228 0.21617 0.20379 0.0
C1436 C 0.43251 0.21477 0.18428 0.0
C1437 C 0.43802 0.23133 0.17155 0.0
C1438 C 0.45328 0.24933 0.17833 0.0
C1439 C 0.46312 0.25081 0.19782 0.0
H1440 H 0.43044 0.23021 0.15645 0.0
H1441 H 0.52116 0.24202 0.34839 0.0
H1442 H 0.26904 0.44579 0.16497 0.0
H1443 H 0.24842 0.45009 0.19116 0.0
H1444 H 0.2988 0.50017 0.21804 0.0
H1445 H 0.31964 0.49555 0.19202 0.0
H1446 H 0.27753 0.48 0.24976 0.0
H1447 H 0.26382 0.50379 0.18525 0.0
H1448 H 0.25512 0.50403 0.14664 0.0
H1449 H 0.19945 0.45319 0.15745 0.0
H1450 H 0.20791 0.45247 0.19608 0.0
H1451 H 0.18955 0.49334 0.28722 0.0
H1452 H 0.21381 0.49782 0.25945 0.0
H1453 H 0.2192 0.45122 0.28842 0.0
H1454 H 0.19545 0.44699 0.31615 0.0
H1455 H 0.21555 0.47643 0.22844 0.0
H1456 H 0.26371 0.45783 0.284 0.0
H1457 H 0.27431 0.46185 0.32246 0.0
H1458 H 0.26483 0.5103 0.32913 0.0
H1459 H 0.25444 0.50675 0.29064 0.0
C1460 C 0.27574 0.4579 0.17621 0.0
C1461 C 0.29602 0.47043 0.17625 0.0
C1462 C 0.26388 0.46039 0.19122 0.0
C1463 C 0.2719 0.4757 0.20643 0.0
C1464 C 0.29218 0.48827 0.20649 0.0
C1465 C 0.30411 0.48563 0.19161 0.0
C1466 C 0.25917 0.47794 0.22279 0.0
C1467 C 0.26404 0.47932 0.24503 0.0
C1468 C 0.24176 0.47763 0.21676 0.0
C1469 C 0.23657 0.47801 0.19354 0.0
C1470 C 0.24977 0.49258 0.17937 0.0
C1471 C 0.24488 0.49281 0.15748 0.0
C1472 C 0.22676 0.47862 0.14959 0.0
C1473 C 0.21348 0.46418 0.16359 0.0
C1474 C 0.21831 0.46386 0.18549 0.0
C1475 C 0.19596 0.4841 0.28762 0.0
C1476 C 0.19077 0.47002 0.30413 0.0
C1477 C 0.20983 0.48666 0.27176 0.0
C1478 C 0.21872 0.47515 0.27205 0.0
C1479 C 0.21309 0.46073 0.28816 0.0
C1480 C 0.19944 0.45831 0.30407 0.0
C1481 C 0.2336 0.47777 0.25538 0.0
C1482 C 0.22914 0.4773 0.23312 0.0
C1483 C 0.25167 0.47952 0.26135 0.0
C1484 C 0.25815 0.48191 0.28446 0.0
C1485 C 0.26399 0.46941 0.29364 0.0
C1486 C 0.26994 0.47159 0.31545 0.0
C1487 C 0.2702 0.48629 0.32825 0.0
C1488 C 0.26456 0.49888 0.31923 0.0
C1489 C 0.25862 0.49677 0.29742 0.0
H1490 H 0.27479 0.48794 0.34514 0.0
H1491 H 0.223 0.47882 0.13263 0.0
H1492 H 0.82922 0.30972 0.21886 0.0
H1493 H 0.80533 0.28929 0.2461 0.0
H1494 H 0.76841 0.2511 0.19525 0.0
H1495 H 0.79161 0.27201 0.16781 0.0
H1496 H 0.74646 0.25371 0.22482 0.0
H1497 H 0.79969 0.24117 0.22696 0.0
H1498 H 0.83404 0.24977 0.23018 0.0
H1499 H 0.8367 0.27243 0.29457 0.0
H1500 H 0.80242 0.26419 0.29161 0.0
H1501 H 0.69219 0.16811 0.28995 0.0
H1502 H 0.71329 0.1923 0.26315 0.0
H1503 H 0.74553 0.23207 0.31516 0.0
H1504 H 0.72432 0.20816 0.34205 0.0
H1505 H 0.7696 0.22921 0.28567 0.0
H1506 H 0.71542 0.24029 0.2834 0.0
H1507 H 0.68076 0.23042 0.27991 0.0
H1508 H 0.6795 0.20872 0.21533 0.0
H1509 H 0.71416 0.21832 0.21851 0.0
C1510 C 0.81593 0.29721 0.2133 0.0
C1511 C 0.81268 0.2925 0.19092 0.0
C1512 C 0.80229 0.28535 0.22903 0.0
C1513 C 0.7852 0.26829 0.22287 0.0
C1514 C 0.78152 0.26403 0.20054 0.0
C1515 C 0.79501 0.27598 0.18479 0.0
C1516 C 0.77151 0.25452 0.23961 0.0
C1517 C 0.75154 0.24823 0.23798 0.0
C1518 C 0.77801 0.24746 0.25706 0.0
C1519 C 0.79855 0.25224 0.25897 0.0
C1520 C 0.80764 0.24809 0.24175 0.0
C1521 C 0.82709 0.25289 0.24354 0.0
C1522 C 0.83756 0.26169 0.26254 0.0
C1523 C 0.82858 0.26564 0.27984 0.0
C1524 C 0.80914 0.2609 0.27813 0.0
C1525 C 0.7035 0.1821 0.29576 0.0
C1526 C 0.70651 0.18604 0.31831 0.0
C1527 C 0.71564 0.19594 0.28035 0.0
C1528 C 0.73104 0.21406 0.2871 0.0
C1529 C 0.73385 0.21817 0.30953 0.0
C1530 C 0.7217 0.20441 0.32492 0.0
C1531 C 0.74464 0.22847 0.27087 0.0
C1532 C 0.76457 0.2348 0.27257 0.0
C1533 C 0.73808 0.23539 0.2534 0.0
C1534 C 0.71734 0.2299 0.25126 0.0
C1535 C 0.70773 0.23332 0.26849 0.0
C1536 C 0.6881 0.2278 0.26656 0.0
C1537 C 0.67793 0.21893 0.24743 0.0
C1538 C 0.6874 0.21561 0.23014 0.0
C1539 C 0.70706 0.22112 0.23198 0.0
H1540 H 0.66274 0.21469 0.24599 0.0
H1541 H 0.85262 0.2654 0.26389 0.0
H1542 H 0.51009 0.82613 0.21397 0.0
H1543 H 0.50634 0.80198 0.24146 0.0
H1544 H 0.5476 0.79184 0.20648 0.0
H1545 H 0.55126 0.81562 0.17914 0.0
H1546 H 0.51837 0.75844 0.21922 0.0
H1547 H 0.55964 0.82119 0.25348 0.0
H1548 H 0.56707 0.85351 0.26679 0.0
H1549 H 0.51765 0.82688 0.30959 0.0
H1550 H 0.50981 0.7944 0.29634 0.0
H1551 H 0.56427 0.72812 0.29397 0.0
H1552 H 0.55761 0.74965 0.27187 0.0
H1553 H 0.50476 0.73198 0.30794 0.0
H1554 H 0.51129 0.71 0.33023 0.0
H1555 H 0.533 0.77659 0.29737 0.0
H1556 H 0.49422 0.71331 0.26569 0.0
H1557 H 0.48821 0.68137 0.2528 0.0
H1558 H 0.53375 0.70934 0.20529 0.0
H1559 H 0.54023 0.7415 0.21815 0.0
C1560 C 0.51836 0.81875 0.21218 0.0
C1561 C 0.53092 0.82281 0.19425 0.0
C1562 C 0.51621 0.80494 0.22791 0.0
C1563 C 0.52678 0.79512 0.22617 0.0
C1564 C 0.53915 0.79906 0.20816 0.0
C1565 C 0.54119 0.81269 0.19244 0.0
C1566 C 0.52549 0.78099 0.24309 0.0
C1567 C 0.52155 0.76246 0.23629 0.0
C1568 C 0.52913 0.78592 0.26554 0.0
C1569 C 0.53403 0.8054 0.27376 0.0
C1570 C 0.55031 0.82224 0.26565 0.0
C1571 C 0.5546 0.84058 0.27319 0.0
C1572 C 0.54281 0.84225 0.28898 0.0
C1573 C 0.52675 0.82557 0.29734 0.0
C1574 C 0.52239 0.80719 0.28983 0.0
C1575 C 0.55141 0.72903 0.29756 0.0
C1576 C 0.53836 0.7174 0.31397 0.0
C1577 C 0.54757 0.74129 0.28481 0.0
C1578 C 0.53072 0.74241 0.28828 0.0
C1579 C 0.51789 0.73134 0.30508 0.0
C1580 C 0.52158 0.71876 0.31769 0.0
C1581 C 0.52632 0.75439 0.27328 0.0
C1582 C 0.52932 0.77247 0.28039 0.0
C1583 C 0.52185 0.74911 0.25109 0.0
C1584 C 0.51781 0.72982 0.24301 0.0
C1585 C 0.50306 0.71266 0.25261 0.0
C1586 C 0.49955 0.69451 0.24529 0.0
C1587 C 0.51063 0.69332 0.22828 0.0
C1588 C 0.52519 0.71029 0.21849 0.0
C1589 C 0.52877 0.72848 0.22576 0.0
H1590 H 0.5079 0.67925 0.22265 0.0
H1591 H 0.54614 0.85646 0.29478 0.0
H1592 H 0.70563 0.51889 0.22216 0.0
H1593 H 0.72986 0.52111 0.24828 0.0
H1594 H 0.76494 0.51967 0.19526 0.0
H1595 H 0.74028 0.51688 0.16904 0.0
H1596 H 0.76549 0.49814 0.22678 0.0
H1597 H 0.77619 0.5628 0.22369 0.0
H1598 H 0.76745 0.58853 0.22486 0.0
H1599 H 0.74825 0.57351 0.29123 0.0
H1600 H 0.75664 0.54751 0.29037 0.0
H1601 H 0.8505 0.53128 0.29387 0.0
H1602 H 0.82694 0.5274 0.26585 0.0
H1603 H 0.78701 0.52381 0.31585 0.0
H1604 H 0.8105 0.52763 0.34398 0.0
H1605 H 0.79036 0.54873 0.28453 0.0
H1606 H 0.78044 0.48354 0.28643 0.0
H1607 H 0.79081 0.45905 0.28425 0.0
H1608 H 0.81078 0.47683 0.21857 0.0
H1609 H 0.80083 0.50167 0.22049 0.0
C1610 C 0.71861 0.51928 0.21603 0.0
C1611 C 0.72118 0.51799 0.1935 0.0
C1612 C 0.73249 0.52054 0.23101 0.0
C1613 C 0.74952 0.52097 0.22381 0.0
C1614 C 0.752 0.51944 0.20129 0.0
C1615 C 0.73794 0.51788 0.1863 0.0
C1616 C 0.76457 0.52288 0.23982 0.0
C1617 C 0.77113 0.50939 0.2392 0.0
C1618 C 0.77186 0.53739 0.25627 0.0
C1619 C 0.76689 0.55309 0.25689 0.0
C1620 C 0.76998 0.5649 0.23849 0.0
C1621 C 0.76511 0.57954 0.2391 0.0
C1622 C 0.75726 0.58262 0.25809 0.0
C1623 C 0.75432 0.5711 0.27653 0.0
C1624 C 0.75915 0.55642 0.27599 0.0
C1625 C 0.83659 0.52931 0.29898 0.0
C1626 C 0.83244 0.52977 0.32128 0.0
C1627 C 0.82311 0.52714 0.28288 0.0
C1628 C 0.80511 0.52521 0.28869 0.0
C1629 C 0.80082 0.52535 0.31092 0.0
C1630 C 0.81429 0.52757 0.32702 0.0
C1631 C 0.79103 0.52383 0.27169 0.0
C1632 C 0.78472 0.53749 0.27209 0.0
C1633 C 0.78422 0.50965 0.2549 0.0
C1634 C 0.79004 0.49459 0.25368 0.0
C1635 C 0.78717 0.48233 0.27158 0.0
C1636 C 0.79295 0.46837 0.27038 0.0
C1637 C 0.80146 0.4664 0.25129 0.0
C1638 C 0.80416 0.47836 0.23334 0.0
C1639 C 0.79846 0.49239 0.23448 0.0
H1640 H 0.80595 0.45561 0.2504 0.0
H1641 H 0.75349 0.59396 0.25853 0.0
H1642 H 0.31087 0.82763 0.28376 0.0
H1643 H 0.2926 0.80123 0.25765 0.0
H1644 H 0.24288 0.77716 0.30057 0.0
H1645 H 0.26119 0.80304 0.32691 0.0
H1646 H 0.24636 0.74851 0.28187 0.0
H1647 H 0.2468 0.80664 0.25741 0.0
H1648 H 0.26245 0.8411 0.24643 0.0
H1649 H 0.29193 0.83037 0.19416 0.0
H1650 H 0.27661 0.79587 0.20501 0.0
H1651 H 0.1681 0.69439 0.20823 0.0
H1652 H 0.19125 0.71622 0.2355 0.0
H1653 H 0.23641 0.73973 0.18656 0.0
H1654 H 0.21308 0.71828 0.15916 0.0
H1655 H 0.23748 0.76809 0.20775 0.0
H1656 H 0.23472 0.709 0.23021 0.0
H1657 H 0.21858 0.67447 0.24098 0.0
H1658 H 0.19339 0.68651 0.29663 0.0
H1659 H 0.20921 0.7211 0.28606 0.0
C1660 C 0.29618 0.81652 0.28782 0.0
C1661 C 0.28743 0.81764 0.30733 0.0
C1662 C 0.28568 0.8015 0.27279 0.0
C1663 C 0.2662 0.78734 0.27694 0.0
C1664 C 0.25781 0.78791 0.29689 0.0
C1665 C 0.26827 0.80287 0.31187 0.0
C1666 C 0.25411 0.77261 0.26012 0.0
C1667 C 0.24434 0.75278 0.26569 0.0
C1668 C 0.2517 0.77808 0.23884 0.0
C1669 C 0.26073 0.79875 0.23216 0.0
C1670 C 0.25672 0.81167 0.24366 0.0
C1671 C 0.26551 0.8312 0.23745 0.0
C1672 C 0.27822 0.83793 0.21965 0.0
C1673 C 0.28211 0.82514 0.20797 0.0
C1674 C 0.27336 0.8056 0.21413 0.0
C1675 C 0.18305 0.70394 0.20341 0.0
C1676 C 0.18878 0.70459 0.18155 0.0
C1677 C 0.19633 0.71644 0.21903 0.0
C1678 C 0.21574 0.72958 0.21324 0.0
C1679 C 0.22156 0.72982 0.19151 0.0
C1680 C 0.20823 0.71753 0.17585 0.0
C1681 C 0.22964 0.74388 0.22943 0.0
C1682 C 0.23968 0.76369 0.22379 0.0
C1683 C 0.2323 0.73835 0.25061 0.0
C1684 C 0.22306 0.71763 0.25725 0.0
C1685 C 0.22567 0.70427 0.2447 0.0
C1686 C 0.21659 0.6847 0.25077 0.0
C1687 C 0.20495 0.6783 0.26946 0.0
C1688 C 0.20242 0.69149 0.28216 0.0
C1689 C 0.21147 0.71109 0.27616 0.0
H1690 H 0.19791 0.66313 0.27412 0.0
H1691 H 0.28502 0.85306 0.21487 0.0
H1692 H 0.50981 0.82204 0.7889 0.0
H1693 H 0.50841 0.79894 0.76169 0.0
H1694 H 0.50597 0.76059 0.81301 0.0
H1695 H 0.50724 0.78358 0.84038 0.0
H1696 H 0.53239 0.76509 0.78376 0.0
H1697 H 0.46603 0.7497 0.78062 0.0
H1698 H 0.43858 0.75571 0.77666 0.0
H1699 H 0.45804 0.77854 0.71223 0.0
H1700 H 0.48578 0.77291 0.7159 0.0
H1701 H 0.51969 0.69007 0.71083 0.0
H1702 H 0.51325 0.70731 0.73981 0.0
H1703 H 0.51405 0.74789 0.69243 0.0
H1704 H 0.51953 0.73025 0.66336 0.0
H1705 H 0.48671 0.74023 0.72113 0.0
H1706 H 0.55431 0.75807 0.72538 0.0
H1707 H 0.58154 0.75164 0.72881 0.0
H1708 H 0.5598 0.72453 0.79111 0.0
H1709 H 0.53229 0.73058 0.7879 0.0
C1710 C 0.50858 0.80855 0.7945 0.0
C1711 C 0.50872 0.80478 0.81697 0.0
C1712 C 0.50782 0.79531 0.77883 0.0
C1713 C 0.50701 0.77792 0.78522 0.0
C1714 C 0.50668 0.77392 0.80762 0.0
C1715 C 0.50745 0.78714 0.82328 0.0
C1716 C 0.50755 0.7644 0.76864 0.0
C1717 C 0.52217 0.7594 0.77028 0.0
C1718 C 0.49453 0.75726 0.75072 0.0
C1719 C 0.47806 0.76098 0.7486 0.0
C1720 C 0.46456 0.75616 0.76568 0.0
C1721 C 0.44892 0.75946 0.76346 0.0
C1722 C 0.44654 0.76744 0.74418 0.0
C1723 C 0.45987 0.77228 0.72712 0.0
C1724 C 0.47555 0.76904 0.72926 0.0
C1725 C 0.51816 0.70244 0.70648 0.0
C1726 C 0.52042 0.70886 0.68467 0.0
C1727 C 0.51468 0.71245 0.72315 0.0
C1728 C 0.51356 0.72921 0.71844 0.0
C1729 C 0.51498 0.73512 0.69659 0.0
C1730 C 0.51833 0.72509 0.67995 0.0
C1731 C 0.51163 0.74107 0.73618 0.0
C1732 C 0.49681 0.74581 0.73472 0.0
C1733 C 0.52451 0.74805 0.75425 0.0
C1734 C 0.54114 0.74459 0.7563 0.0
C1735 C 0.55528 0.75063 0.73975 0.0
C1736 C 0.57077 0.74706 0.74166 0.0
C1737 C 0.57237 0.73763 0.76014 0.0
C1738 C 0.55852 0.73181 0.77678 0.0
C1739 C 0.54299 0.73531 0.77494 0.0
H1740 H 0.58436 0.73487 0.76158 0.0
H1741 H 0.43435 0.76985 0.74244 0.0
H1742 H 0.80669 0.55131 0.67234 0.0
H1743 H 0.78267 0.54951 0.69825 0.0
H1744 H 0.80092 0.52118 0.74489 0.0
H1745 H 0.82473 0.52229 0.7186 0.0
H1746 H 0.7618 0.50435 0.74451 0.0
H1747 H 0.81511 0.5695 0.74983 0.0
H1748 H 0.84001 0.60163 0.73613 0.0
H1749 H 0.79536 0.61158 0.71062 0.0
H1750 H 0.77018 0.57937 0.72391 0.0
H1751 H 0.71855 0.52141 0.83786 0.0
H1752 H 0.74065 0.52022 0.81094 0.0
H1753 H 0.72205 0.54762 0.76344 0.0
H1754 H 0.70014 0.5492 0.79051 0.0
H1755 H 0.76127 0.56465 0.76435 0.0
H1756 H 0.70791 0.49942 0.75958 0.0
H1757 H 0.68319 0.46731 0.77352 0.0
H1758 H 0.72817 0.45763 0.79852 0.0
H1759 H 0.75317 0.48982 0.78499 0.0
C1760 C 0.80555 0.54443 0.68793 0.0
C1761 C 0.81782 0.53694 0.69322 0.0
C1762 C 0.79185 0.54362 0.70291 0.0
C1763 C 0.7901 0.53547 0.72373 0.0
C1764 C 0.80202 0.52763 0.72899 0.0
C1765 C 0.81577 0.52842 0.71396 0.0
C1766 C 0.77593 0.53535 0.73993 0.0
C1767 C 0.76188 0.51759 0.74908 0.0
C1768 C 0.77565 0.55252 0.74561 0.0
C1769 C 0.79076 0.57194 0.73769 0.0
C1770 C 0.8106 0.57848 0.74116 0.0
C1771 C 0.82477 0.59671 0.73349 0.0
C1772 C 0.81928 0.60862 0.72246 0.0
C1773 C 0.7996 0.60233 0.71914 0.0
C1774 C 0.78537 0.58409 0.72675 0.0
C1775 C 0.71911 0.52716 0.82168 0.0
C1776 C 0.70754 0.53544 0.81643 0.0
C1777 C 0.73167 0.52633 0.80621 0.0
C1778 C 0.73299 0.53371 0.78504 0.0
C1779 C 0.7213 0.54178 0.77963 0.0
C1780 C 0.70863 0.54253 0.79509 0.0
C1781 C 0.74708 0.53365 0.76887 0.0
C1782 C 0.76117 0.55141 0.75977 0.0
C1783 C 0.74741 0.51649 0.76331 0.0
C1784 C 0.73241 0.49712 0.77146 0.0
C1785 C 0.71253 0.49051 0.76821 0.0
C1786 C 0.69847 0.47228 0.77601 0.0
C1787 C 0.70411 0.46046 0.78695 0.0
C1788 C 0.72382 0.46682 0.79007 0.0
C1789 C 0.73795 0.48505 0.78232 0.0
H1790 H 0.6932 0.44634 0.79297 0.0
H1791 H 0.83027 0.62273 0.71654 0.0
H1792 H 0.3145 0.82275 0.70445 0.0
H1793 H 0.29317 0.79996 0.73227 0.0
H1794 H 0.25849 0.75948 0.6818 0.0
H1795 H 0.27975 0.7823 0.65395 0.0
H1796 H 0.23569 0.76352 0.709 0.0
H1797 H 0.28791 0.75064 0.71738 0.0
H1798 H 0.32125 0.75693 0.72357 0.0
H1799 H 0.32265 0.78218 0.78603 0.0
H1800 H 0.28937 0.77623 0.78013 0.0
H1801 H 0.17436 0.68896 0.7834 0.0
H1802 H 0.19908 0.7061 0.75516 0.0
H1803 H 0.23347 0.75166 0.80115 0.0
H1804 H 0.20902 0.73449 0.82941 0.0
H1805 H 0.25636 0.74299 0.77548 0.0
H1806 H 0.2045 0.75726 0.76538 0.0
H1807 H 0.17043 0.74887 0.75975 0.0
H1808 H 0.16845 0.71983 0.69982 0.0
H1809 H 0.20245 0.72782 0.70527 0.0
C1810 C 0.3026 0.80883 0.69928 0.0
C1811 C 0.29885 0.80437 0.67693 0.0
C1812 C 0.29036 0.79576 0.71525 0.0
C1813 C 0.27418 0.77786 0.70924 0.0
C1814 C 0.27078 0.77318 0.68693 0.0
C1815 C 0.28295 0.78626 0.67099 0.0
C1816 C 0.26002 0.76468 0.726 0.0
C1817 C 0.24024 0.75877 0.72331 0.0
C1818 C 0.26586 0.75874 0.74502 0.0
C1819 C 0.28617 0.76309 0.74825 0.0
C1820 C 0.29539 0.75771 0.73235 0.0
C1821 C 0.31424 0.76112 0.73585 0.0
C1822 C 0.32399 0.76981 0.75525 0.0
C1823 C 0.31501 0.77531 0.77109 0.0
C1824 C 0.29615 0.77193 0.76767 0.0
C1825 C 0.18734 0.70244 0.78758 0.0
C1826 C 0.18962 0.71044 0.80862 0.0
C1827 C 0.20141 0.71232 0.77139 0.0
C1828 C 0.21806 0.73034 0.77592 0.0
C1829 C 0.22076 0.73785 0.79719 0.0
C1830 C 0.20668 0.72807 0.8133 0.0
C1831 C 0.23218 0.74193 0.75837 0.0
C1832 C 0.2519 0.74763 0.76101 0.0
C1833 C 0.22632 0.74763 0.73923 0.0
C1834 C 0.20594 0.74295 0.73586 0.0
C1835 C 0.19675 0.74896 0.75109 0.0
C1836 C 0.17746 0.7443 0.74792 0.0
C1837 C 0.16726 0.73378 0.72947 0.0
C1838 C 0.17636 0.72795 0.71412 0.0
C1839 C 0.19564 0.73255 0.71724 0.0
H1840 H 0.15233 0.73018 0.72704 0.0
H1841 H 0.33858 0.77242 0.75794 0.0
H1842 H 0.4532 0.19627 0.83929 0.0
H1843 H 0.45666 0.2222 0.81486 0.0
H1844 H 0.49402 0.21166 0.7728 0.0
H1845 H 0.49102 0.18611 0.79759 0.0
H1846 H 0.50694 0.24884 0.77375 0.0
H1847 H 0.44413 0.19302 0.76206 0.0
H1848 H 0.41167 0.16625 0.77236 0.0
H1849 H 0.39596 0.20748 0.79587 0.0
H1850 H 0.42844 0.2345 0.78598 0.0
H1851 H 0.48957 0.28648 0.67469 0.0
H1852 H 0.49113 0.26569 0.70333 0.0
H1853 H 0.46389 0.28628 0.74863 0.0
H1854 H 0.46242 0.30718 0.72009 0.0
H1855 H 0.44629 0.24517 0.74671 0.0
H1856 H 0.50976 0.30118 0.75551 0.0
H1857 H 0.542 0.32696 0.74318 0.0
H1858 H 0.55608 0.28384 0.72233 0.0
H1859 H 0.52378 0.25777 0.73425 0.0
C1860 C 0.46228 0.19961 0.82493 0.0
C1861 C 0.47173 0.18905 0.82032 0.0
C1862 C 0.46419 0.21439 0.81089 0.0
C1863 C 0.47523 0.21866 0.79161 0.0
C1864 C 0.48536 0.20867 0.78748 0.0
C1865 C 0.48368 0.19407 0.80171 0.0
C1866 C 0.47564 0.23295 0.77541 0.0
C1867 C 0.49365 0.24788 0.7677 0.0
C1868 C 0.45835 0.23198 0.7676 0.0
C1869 C 0.43878 0.21577 0.77349 0.0
C1870 C 0.4338 0.19637 0.76957 0.0
C1871 C 0.41539 0.18115 0.77531 0.0
C1872 C 0.40178 0.18516 0.78482 0.0
C1873 C 0.40653 0.2044 0.78854 0.0
C1874 C 0.42493 0.21967 0.78286 0.0
C1875 C 0.48405 0.28667 0.6908 0.0
C1876 C 0.47592 0.2985 0.69513 0.0
C1877 C 0.48503 0.27486 0.70718 0.0
C1878 C 0.47768 0.27446 0.72816 0.0
C1879 C 0.4697 0.28639 0.73259 0.0
C1880 C 0.469 0.29843 0.71631 0.0
C1881 C 0.47754 0.26097 0.74515 0.0
C1882 C 0.45956 0.24616 0.75291 0.0
C1883 C 0.49482 0.26188 0.75271 0.0
C1884 C 0.51427 0.27752 0.74558 0.0
C1885 C 0.51966 0.29719 0.74812 0.0
C1886 C 0.53796 0.31186 0.74124 0.0
C1887 C 0.55107 0.30704 0.73192 0.0
C1888 C 0.54591 0.28755 0.72952 0.0
C1889 C 0.52761 0.27282 0.73636 0.0
H1890 H 0.56523 0.31842 0.72661 0.0
H1891 H 0.38754 0.17335 0.78925 0.0
H1892 H 0.16648 0.47501 0.70753 0.0
H1893 H 0.19188 0.47881 0.7329 0.0
H1894 H 0.22871 0.4837 0.67869 0.0
H1895 H 0.20347 0.48012 0.65318 0.0
H1896 H 0.22808 0.45868 0.70867 0.0
H1897 H 0.23818 0.52343 0.70966 0.0
H1898 H 0.22861 0.54843 0.71346 0.0
H1899 H 0.21062 0.53039 0.77959 0.0
H1900 H 0.21984 0.5051 0.7761 0.0
H1901 H 0.30882 0.47959 0.77684 0.0
H1902 H 0.28907 0.4833 0.74858 0.0
H1903 H 0.24997 0.48237 0.79809 0.0
H1904 H 0.27007 0.47965 0.8263 0.0
H1905 H 0.25388 0.50735 0.76843 0.0
H1906 H 0.24064 0.4411 0.76691 0.0
H1907 H 0.24917 0.4153 0.76371 0.0
H1908 H 0.27184 0.43523 0.69932 0.0
H1909 H 0.26367 0.46133 0.70225 0.0
C1910 C 0.18008 0.47725 0.70092 0.0
C1911 C 0.18281 0.47723 0.67818 0.0
C1912 C 0.19463 0.47938 0.71551 0.0
C1913 C 0.21233 0.48165 0.70777 0.0
C1914 C 0.21519 0.48189 0.68511 0.0
C1915 C 0.20068 0.4798 0.67052 0.0
C1916 C 0.22754 0.48308 0.72326 0.0
C1917 C 0.23396 0.46955 0.7215 0.0
C1918 C 0.23498 0.49697 0.74034 0.0
C1919 C 0.22955 0.51226 0.74255 0.0
C1920 C 0.23205 0.5247 0.72496 0.0
C1921 C 0.22671 0.53894 0.72707 0.0
C1922 C 0.21897 0.54096 0.74674 0.0
C1923 C 0.21661 0.52879 0.76436 0.0
C1924 C 0.2219 0.51452 0.76233 0.0
C1925 C 0.29624 0.48055 0.78176 0.0
C1926 C 0.29094 0.47902 0.80393 0.0
C1927 C 0.28479 0.48245 0.76553 0.0
C1928 C 0.2677 0.48268 0.77108 0.0
C1929 C 0.26295 0.48208 0.79326 0.0
C1930 C 0.2744 0.48032 0.80943 0.0
C1931 C 0.25427 0.4828 0.754 0.0
C1932 C 0.24815 0.4966 0.75547 0.0
C1933 C 0.24697 0.46905 0.73675 0.0
C1934 C 0.25174 0.45329 0.73489 0.0
C1935 C 0.24756 0.44006 0.75212 0.0
C1936 C 0.25231 0.42537 0.75036 0.0
C1937 C 0.26109 0.42367 0.73135 0.0
C1938 C 0.26507 0.4366 0.71404 0.0
C1939 C 0.26038 0.45133 0.71574 0.0
H1940 H 0.26477 0.41229 0.73001 0.0
H1941 H 0.21484 0.55199 0.74834 0.0
H1942 H 0.69899 0.18091 0.70738 0.0
H1943 H 0.72104 0.20666 0.73219 0.0
H1944 H 0.76986 0.21613 0.6923 0.0
H1945 H 0.74778 0.18963 0.66813 0.0
H1946 H 0.77958 0.21636 0.73125 0.0
H1947 H 0.75059 0.24912 0.69579 0.0
H1948 H 0.72401 0.25382 0.68214 0.0
H1949 H 0.70332 0.25059 0.74767 0.0
H1950 H 0.72964 0.24562 0.7617 0.0
H1951 H 0.84733 0.30455 0.78425 0.0
H1952 H 0.82465 0.28296 0.75637 0.0
H1953 H 0.77831 0.25976 0.80378 0.0
H1954 H 0.80103 0.28126 0.83182 0.0
H1955 H 0.76805 0.26799 0.76046 0.0
H1956 H 0.79788 0.23428 0.79456 0.0
H1957 H 0.82583 0.23124 0.80676 0.0
H1958 H 0.84663 0.23864 0.74073 0.0
H1959 H 0.81893 0.24202 0.72818 0.0
C1960 C 0.7144 0.18873 0.70373 0.0
C1961 C 0.72167 0.18334 0.68575 0.0
C1962 C 0.72704 0.20354 0.71791 0.0
C1963 C 0.74723 0.2137 0.71409 0.0
C1964 C 0.75441 0.20858 0.69576 0.0
C1965 C 0.7418 0.19348 0.68187 0.0
C1966 C 0.76093 0.22886 0.72978 0.0
C1967 C 0.77714 0.22782 0.73725 0.0
C1968 C 0.75778 0.24375 0.73813 0.0
C1969 C 0.74199 0.24683 0.72977 0.0
C1970 C 0.74029 0.24929 0.70728 0.0
C1971 C 0.72529 0.25202 0.69947 0.0
C1972 C 0.71196 0.25246 0.71402 0.0
C1973 C 0.71364 0.25023 0.73642 0.0
C1974 C 0.72862 0.24748 0.74431 0.0
C1975 C 0.83224 0.2951 0.78865 0.0
C1976 C 0.82596 0.29461 0.81026 0.0
C1977 C 0.81933 0.28269 0.77273 0.0
C1978 C 0.79981 0.26969 0.77801 0.0
C1979 C 0.7933 0.26969 0.79934 0.0
C1980 C 0.80629 0.28189 0.81536 0.0
C1981 C 0.78648 0.25537 0.76162 0.0
C1982 C 0.7704 0.25656 0.75418 0.0
C1983 C 0.78991 0.24084 0.75298 0.0
C1984 C 0.80645 0.23861 0.76047 0.0
C1985 C 0.8085 0.23543 0.78267 0.0
C1986 C 0.82428 0.23361 0.78964 0.0
C1987 C 0.83803 0.2348 0.77454 0.0
C1988 C 0.83598 0.23775 0.75242 0.0
C1989 C 0.82024 0.2396 0.74536 0.0
H1990 H 0.85024 0.23339 0.77997 0.0
H1991 H 0.70034 0.25457 0.70795 0.0
H1992 H 0.39446 0.09277 0.22997 0.0
H1993 H 0.37014 0.06575 0.25205 0.0
H1994 H 0.36083 0.02606 0.19914 0.0
H1995 H 0.38431 0.05296 0.17691 0.0
H1996 H 0.3289 0.01233 0.22096 0.0
H1997 H 0.39679 0.03819 0.23927 0.0
H1998 H 0.42949 0.06381 0.25068 0.0
H1999 H 0.40596 0.0712 0.31072 0.0
H2000 H 0.37304 0.04579 0.29948 0.0
H2001 H 0.33879 0.93514 0.26721 0.0
H2002 H 0.34109 0.96324 0.24852 0.0
H2003 H 0.32008 0.97816 0.30601 0.0
H2004 H 0.3163 0.94922 0.32455 0.0
H2005 H 0.36091 0.00625 0.2877 0.0
H2006 H 0.29329 0.97107 0.26949 0.0
H2007 H 0.26318 0.94307 0.25549 0.0
H2008 H 0.28939 0.95036 0.19228 0.0
H2009 H 0.31977 0.97823 0.20597 0.0
C2010 C 0.38672 0.07835 0.2229 0.0
C2011 C 0.39137 0.07488 0.20186 0.0
C2012 C 0.37288 0.06293 0.2355 0.0
C2013 C 0.36404 0.04379 0.22747 0.0
C2014 C 0.36744 0.04066 0.20575 0.0
C2015 C 0.38092 0.05608 0.19303 0.0
C2016 C 0.35376 0.02682 0.24226 0.0
C2017 C 0.33582 0.01105 0.23565 0.0
C2018 C 0.36269 0.02515 0.26156 0.0
C2019 C 0.38245 0.04031 0.26842 0.0
C2020 C 0.39859 0.04537 0.25484 0.0
C2021 C 0.41715 0.05984 0.26128 0.0
C2022 C 0.41978 0.06917 0.28139 0.0
C2023 C 0.40387 0.064 0.29513 0.0
C2024 C 0.38526 0.04958 0.28873 0.0
C2025 C 0.33386 0.94383 0.27572 0.0
C2026 C 0.32762 0.93993 0.29761 0.0
C2027 C 0.3353 0.95999 0.26498 0.0
C2028 C 0.33078 0.9727 0.27595 0.0
C2029 C 0.32361 0.96844 0.29733 0.0
C2030 C 0.32173 0.95201 0.30796 0.0
C2031 C 0.3364 0.99173 0.26606 0.0
C2032 C 0.3536 0.00781 0.27351 0.0
C2033 C 0.32714 0.9934 0.24718 0.0
C2034 C 0.30886 0.9767 0.23882 0.0
C2035 C 0.29269 0.96661 0.25265 0.0
C2036 C 0.27556 0.95078 0.24476 0.0
C2037 C 0.27438 0.94493 0.22302 0.0
C2038 C 0.29032 0.95492 0.20912 0.0
C2039 C 0.30749 0.97076 0.21693 0.0
H2040 H 0.2611 0.93266 0.21694 0.0
H2041 H 0.43416 0.08036 0.28634 0.0
H2042 H 0.35106 0.41656 0.23831 0.0
H2043 H 0.35226 0.39108 0.25871 0.0
H2044 H 0.30268 0.3476 0.22306 0.0
H2045 H 0.30087 0.37323 0.20281 0.0
H2046 H 0.33016 0.35827 0.28369 0.0
H2047 H 0.31705 0.31555 0.2051 0.0
H2048 H 0.31544 0.31962 0.16528 0.0
H2049 H 0.35759 0.38037 0.17098 0.0
H2050 H 0.35965 0.37654 0.21073 0.0
H2051 H 0.3703 0.29801 0.30967 0.0
H2052 H 0.34517 0.30302 0.29289 0.0
H2053 H 0.38871 0.34901 0.25317 0.0
H2054 H 0.41387 0.34498 0.27039 0.0
H2055 H 0.35352 0.3269 0.23107 0.0
H2056 H 0.37922 0.36088 0.30067 0.0
H2057 H 0.38558 0.36143 0.34019 0.0
H2058 H 0.32451 0.32432 0.35216 0.0
H2059 H 0.31786 0.32337 0.31262 0.0
C2060 C 0.33979 0.40169 0.23537 0.0
C2061 C 0.32612 0.39701 0.2185 0.0
C2062 C 0.34054 0.38706 0.24712 0.0
C2063 C 0.32777 0.36747 0.24213 0.0
C2064 C 0.3128 0.36267 0.22696 0.0
C2065 C 0.31193 0.37735 0.21526 0.0
C2066 C 0.33276 0.35282 0.24974 0.0
C2067 C 0.33469 0.35087 0.27223 0.0
C2068 C 0.33898 0.34345 0.23477 0.0
C2069 C 0.33829 0.34579 0.21084 0.0
C2070 C 0.326 0.32974 0.1978 0.0
C2071 C 0.32503 0.33201 0.17526 0.0
C2072 C 0.33635 0.35026 0.16562 0.0
C2073 C 0.34879 0.36625 0.17847 0.0
C2074 C 0.34988 0.36404 0.20099 0.0
C2075 C 0.37455 0.30908 0.29722 0.0
C2076 C 0.39428 0.3213 0.29175 0.0
C2077 C 0.3601 0.31175 0.28749 0.0
C2078 C 0.36514 0.32646 0.27192 0.0
C2079 C 0.38451 0.33746 0.26505 0.0
C2080 C 0.39893 0.33503 0.27493 0.0
C2081 C 0.35124 0.33265 0.26499 0.0
C2082 C 0.34785 0.3332 0.2426 0.0
C2083 C 0.34412 0.34115 0.28003 0.0
C2084 C 0.34808 0.34185 0.30374 0.0
C2085 C 0.36718 0.35273 0.31174 0.0
C2086 C 0.37084 0.35313 0.33413 0.0
C2087 C 0.35547 0.34286 0.34868 0.0
C2088 C 0.33641 0.33222 0.34086 0.0
C2089 C 0.33268 0.33174 0.31848 0.0
H2090 H 0.35832 0.34318 0.366 0.0
H2091 H 0.33552 0.35199 0.14818 0.0
H2092 H 0.07223 0.41844 0.2587 0.0
H2093 H 0.04068 0.3952 0.24415 0.0
H2094 H 0.04371 0.34847 0.27611 0.0
H2095 H 0.07617 0.3715 0.28974 0.0
H2096 H 0.02186 0.35853 0.22068 0.0
H2097 H 0.99998 0.32644 0.30605 0.0
H2098 H 0.01183 0.33435 0.34406 0.0
H2099 H 0.03761 0.3953 0.33007 0.0
H2100 H 0.02559 0.38771 0.29216 0.0
H2101 H 0.91994 0.30004 0.21281 0.0
H2102 H 0.95089 0.30583 0.2279 0.0
H2103 H 0.9598 0.35883 0.25769 0.0
H2104 H 0.92973 0.35393 0.24182 0.0
H2105 H 0.97525 0.33863 0.28254 0.0
H2106 H 0.97498 0.36343 0.20949 0.0
H2107 H 0.96309 0.35887 0.17151 0.0
H2108 H 0.98236 0.31778 0.16047 0.0
H2109 H 0.99401 0.32183 0.19858 0.0
C2110 C 0.06685 0.40318 0.26188 0.0
C2111 C 0.0768 0.39705 0.27593 0.0
C2112 C 0.04862 0.38987 0.25354 0.0
C2113 C 0.03979 0.37022 0.25936 0.0
C2114 C 0.05028 0.36366 0.27164 0.0
C2115 C 0.06876 0.37694 0.27963 0.0
C2116 C 0.01868 0.35766 0.25566 0.0
C2117 C 0.01165 0.3537 0.23419 0.0
C2118 C 0.00541 0.3518 0.27331 0.0
C2119 C 0.01212 0.3565 0.29625 0.0
C2120 C 0.00811 0.34151 0.31115 0.0
C2121 C 0.01484 0.34594 0.33267 0.0
C2122 C 0.02553 0.36532 0.33945 0.0
C2123 C 0.02939 0.38031 0.32478 0.0
C2124 C 0.02262 0.37594 0.30329 0.0
C2125 C 0.9283 0.3128 0.22284 0.0
C2126 C 0.92249 0.32679 0.22547 0.0
C2127 C 0.94588 0.31593 0.23166 0.0
C2128 C 0.95769 0.33288 0.24362 0.0
C2129 C 0.95083 0.34562 0.24852 0.0
C2130 C 0.93348 0.34271 0.23942 0.0
C2131 C 0.97841 0.33936 0.24756 0.0
C2132 C 0.9854 0.3425 0.26906 0.0
C2133 C 0.99167 0.34482 0.22992 0.0
C2134 C 0.98514 0.34275 0.2069 0.0
C2135 C 0.97655 0.35332 0.19899 0.0
C2136 C 0.96986 0.35084 0.17746 0.0
C2137 C 0.97192 0.338 0.1636 0.0
C2138 C 0.98074 0.32768 0.17124 0.0
C2139 C 0.98737 0.33005 0.19281 0.0
H2140 H 0.96674 0.33609 0.14693 0.0
H2141 H 0.03078 0.36872 0.35609 0.0
H2142 H 0.58778 0.93681 0.24762 0.0
H2143 H 0.61346 0.96565 0.26477 0.0
H2144 H 0.65656 0.95762 0.23102 0.0
H2145 H 0.6308 0.92779 0.21444 0.0
H2146 H 0.64834 0.97965 0.2886 0.0
H2147 H 0.68509 0.00236 0.20594 0.0
H2148 H 0.6785 0.99251 0.16718 0.0
H2149 H 0.61781 0.97251 0.17691 0.0
H2150 H 0.62414 0.98257 0.21557 0.0
H2151 H 0.70457 0.0809 0.30424 0.0
H2152 H 0.7016 0.05127 0.28837 0.0
H2153 H 0.65179 0.04269 0.25125 0.0
H2154 H 0.65391 0.07141 0.26759 0.0
H2155 H 0.6738 0.02904 0.22943 0.0
H2156 H 0.64379 0.02568 0.3007 0.0
H2157 H 0.64582 0.03564 0.33924 0.0
H2158 H 0.68668 0.01641 0.35229 0.0
H2159 H 0.68511 0.00666 0.31368 0.0
C2160 C 0.60263 0.94042 0.24453 0.0
C2161 C 0.60708 0.93007 0.2291 0.0
C2162 C 0.61739 0.95708 0.25441 0.0
C2163 C 0.63686 0.96392 0.24886 0.0
C2164 C 0.64156 0.95263 0.23532 0.0
C2165 C 0.62677 0.93571 0.22566 0.0
C2166 C 0.65126 0.98439 0.25384 0.0
C2167 C 0.6545 0.99043 0.2757 0.0
C2168 C 0.65893 0.99847 0.23698 0.0
C2169 C 0.65507 0.99298 0.21363 0.0
C2170 C 0.67038 0.99594 0.19974 0.0
C2171 C 0.66668 0.99033 0.17781 0.0
C2172 C 0.64774 0.98183 0.16961 0.0
C2173 C 0.63247 0.97905 0.18329 0.0
C2174 C 0.6361 0.98472 0.20519 0.0
C2175 C 0.69316 0.07291 0.29242 0.0
C2176 C 0.67914 0.07835 0.28774 0.0
C2177 C 0.69166 0.05611 0.28318 0.0
C2178 C 0.67632 0.0447 0.2689 0.0
C2179 C 0.66379 0.05134 0.2622 0.0
C2180 C 0.66508 0.06792 0.27162 0.0
C2181 C 0.67071 0.0243 0.26419 0.0
C2182 C 0.66884 0.01827 0.24237 0.0
C2183 C 0.66388 0.01022 0.28108 0.0
C2184 C 0.66451 0.01567 0.30433 0.0
C2185 C 0.65328 0.02368 0.31178 0.0
C2186 C 0.65435 0.02929 0.33362 0.0
C2187 C 0.66641 0.0267 0.34819 0.0
C2188 C 0.67738 0.01845 0.34097 0.0
C2189 C 0.67642 0.0129 0.31911 0.0
H2190 H 0.66723 0.03105 0.36509 0.0
H2191 H 0.6449 0.97743 0.15265 0.0
H2192 H 0.5548 0.60754 0.26588 0.0
H2193 H 0.57677 0.60381 0.24156 0.0
H2194 H 0.62521 0.6562 0.26747 0.0
H2195 H 0.60298 0.66121 0.29041 0.0
H2196 H 0.63066 0.65506 0.22626 0.0
H2197 H 0.61428 0.60896 0.28386 0.0
H2198 H 0.59272 0.58251 0.30886 0.0
H2199 H 0.56669 0.5441 0.2543 0.0
H2200 H 0.58785 0.57035 0.22895 0.0
H2201 H 0.69365 0.6152 0.19087 0.0
H2202 H 0.67812 0.63073 0.21072 0.0
H2203 H 0.62489 0.59546 0.17533 0.0
H2204 H 0.6399 0.57983 0.15581 0.0
H2205 H 0.62561 0.59027 0.22377 0.0
H2206 H 0.64256 0.63854 0.16654 0.0
H2207 H 0.66562 0.66548 0.14306 0.0
H2208 H 0.69334 0.70019 0.1998 0.0
H2209 H 0.67061 0.67333 0.22364 0.0
C2210 C 0.57001 0.61859 0.26617 0.0
C2211 C 0.57701 0.63468 0.2803 0.0
C2212 C 0.58268 0.61622 0.25245 0.0
C2213 C 0.60275 0.62943 0.25309 0.0
C2214 C 0.60981 0.6457 0.26683 0.0
C2215 C 0.59706 0.64837 0.28019 0.0
C2216 C 0.61627 0.62599 0.23959 0.0
C2217 C 0.62975 0.64097 0.22599 0.0
C2218 C 0.61518 0.60764 0.23922 0.0
C2219 C 0.60258 0.5917 0.25448 0.0
C2220 C 0.60389 0.5949 0.27718 0.0
C2221 C 0.59173 0.57994 0.29142 0.0
C2222 C 0.5783 0.56165 0.28316 0.0
C2223 C 0.57707 0.55827 0.26067 0.0
C2224 C 0.58916 0.57318 0.24636 0.0
C2225 C 0.67886 0.61128 0.18678 0.0
C2226 C 0.66803 0.59619 0.17182 0.0
C2227 C 0.67005 0.62018 0.19809 0.0
C2228 C 0.65037 0.61407 0.19451 0.0
C2229 C 0.64013 0.60037 0.1782 0.0
C2230 C 0.64887 0.59158 0.16688 0.0
C2231 C 0.63941 0.61908 0.2101 0.0
C2232 C 0.62656 0.60438 0.22425 0.0
C2233 C 0.64139 0.63773 0.21123 0.0
C2234 C 0.65505 0.65383 0.19688 0.0
C2235 C 0.65372 0.65183 0.17402 0.0
C2236 C 0.66669 0.66711 0.16064 0.0
C2237 C 0.68098 0.68451 0.16993 0.0
C2238 C 0.68229 0.68669 0.19262 0.0
C2239 C 0.66936 0.67145 0.20608 0.0
H2240 H 0.69101 0.69632 0.15954 0.0
H2241 H 0.56887 0.5501 0.29418 0.0
H2242 H 0.94311 0.58575 0.26761 0.0
H2243 H 0.9697 0.61088 0.24679 0.0
H2244 H 0.96568 0.65505 0.28351 0.0
H2245 H 0.93821 0.62981 0.3041 0.0
H2246 H 0.97935 0.64372 0.2217 0.0
H2247 H 0.01351 0.68704 0.29854 0.0
H2248 H 0.00985 0.68384 0.33865 0.0
H2249 H 0.98972 0.62273 0.33372 0.0
H2250 H 0.99355 0.62567 0.29366 0.0
H2251 H 0.07883 0.6991 0.18938 0.0
H2252 H 0.05032 0.69644 0.20805 0.0
H2253 H 0.04674 0.65 0.24787 0.0
H2254 H 0.07424 0.65175 0.22891 0.0
H2255 H 0.03673 0.67401 0.27086 0.0
H2256 H 0.02333 0.6389 0.20076 0.0
H2257 H 0.02709 0.63816 0.16081 0.0
H2258 H 0.0055 0.67769 0.15238 0.0
H2259 H 1.00187 0.67884 0.19235 0.0
C2260 C 0.94716 0.60072 0.27076 0.0
C2261 C 0.9386 0.60565 0.2879 0.0
C2262 C 0.96249 0.61514 0.25878 0.0
C2263 C 0.9698 0.63481 0.26378 0.0
C2264 C 0.96031 0.63992 0.27953 0.0
C2265 C 0.94476 0.62544 0.29144 0.0
C2266 C 0.98913 0.6492 0.25512 0.0
C2267 C 0.99187 0.65091 0.23242 0.0
C2268 C 0.00548 0.65841 0.26911 0.0
C2269 C 0.00358 0.65655 0.29317 0.0
C2270 C 0.00836 0.67296 0.30607 0.0
C2271 C 0.00627 0.67119 0.32877 0.0
C2272 C 0.99949 0.65308 0.33872 0.0
C2273 C 0.99492 0.63673 0.326 0.0
C2274 C 0.99706 0.63844 0.3033 0.0
C2275 C 0.07211 0.68843 0.20225 0.0
C2276 C 0.0788 0.67545 0.2073 0.0
C2277 C 0.05595 0.68711 0.21305 0.0
C2278 C 0.0464 0.67296 0.22924 0.0
C2279 C 0.05401 0.66115 0.23556 0.0
C2280 C 0.06991 0.66226 0.22464 0.0
C2281 C 0.02696 0.66807 0.23746 0.0
C2282 C 0.0242 0.66798 0.26009 0.0
C2283 C 0.01061 0.66003 0.22343 0.0
C2284 C 0.01256 0.65915 0.19947 0.0
C2285 C 0.0195 0.64752 0.19037 0.0
C2286 C 0.0216 0.64702 0.16774 0.0
C2287 C 0.01659 0.65792 0.15407 0.0
C2288 C 0.00942 0.66929 0.16299 0.0
C2289 C 0.00735 0.66989 0.18562 0.0
H2290 H 0.01822 0.65751 0.13655 0.0
H2291 H 0.99783 0.65173 0.35629 0.0
H2292 H 0.59436 0.90405 0.77735 0.0
H2293 H 0.61732 0.93287 0.75653 0.0
H2294 H 0.5704 0.94201 0.7369 0.0
H2295 H 0.54763 0.91404 0.758 0.0
H2296 H 0.61683 0.95165 0.70858 0.0
H2297 H 0.58243 0.98116 0.76789 0.0
H2298 H 0.5682 0.97362 0.80495 0.0
H2299 H 0.60723 0.95352 0.82358 0.0
H2300 H 0.62174 0.961 0.78672 0.0
H2301 H 0.62373 0.03666 0.66809 0.0
H2302 H 0.61607 0.00516 0.6832 0.0
H2303 H 0.65096 0.03382 0.74009 0.0
H2304 H 0.65766 0.06534 0.72536 0.0
H2305 H 0.62023 0.00549 0.75323 0.0
H2306 H 0.66481 0.01017 0.69971 0.0
H2307 H 0.68079 0.01643 0.66374 0.0
H2308 H 0.62881 0.96961 0.63584 0.0
H2309 H 0.61239 0.96324 0.67156 0.0
C2310 C 0.58885 0.91192 0.76816 0.0
C2311 C 0.56918 0.90692 0.7698 0.0
C2312 C 0.60196 0.92821 0.75606 0.0
C2313 C 0.59547 0.93953 0.74543 0.0
C2314 C 0.57559 0.93332 0.745 0.0
C2315 C 0.56255 0.91721 0.75709 0.0
C2316 C 0.60919 0.9597 0.73891 0.0
C2317 C 0.61795 0.96358 0.71831 0.0
C2318 C 0.61114 0.97514 0.75211 0.0
C2319 C 0.60311 0.9716 0.77458 0.0
C2320 C 0.58808 0.97531 0.77997 0.0
C2321 C 0.57994 0.97101 0.80091 0.0
C2322 C 0.58684 0.96317 0.81661 0.0
C2323 C 0.6019 0.9596 0.81142 0.0
C2324 C 0.61006 0.96383 0.79051 0.0
C2325 C 0.62981 0.03614 0.68376 0.0
C2326 C 0.64123 0.05323 0.69566 0.0
C2327 C 0.62566 0.0182 0.69228 0.0
C2328 C 0.63332 0.01707 0.71258 0.0
C2329 C 0.64496 0.03429 0.72435 0.0
C2330 C 0.64876 0.05224 0.71602 0.0
C2331 C 0.6276 0.99779 0.72225 0.0
C2332 C 0.62001 0.99395 0.74354 0.0
C2333 C 0.62756 0.98261 0.70992 0.0
C2334 C 0.63734 0.98627 0.68835 0.0
C2335 C 0.65674 1.00128 0.68588 0.0
C2336 C 0.66588 0.00484 0.66553 0.0
C2337 C 0.65582 0.99344 0.64751 0.0
C2338 C 0.63659 0.97842 0.64982 0.0
C2339 C 0.62737 0.9748 0.67013 0.0
H2340 H 0.66292 0.99622 0.63177 0.0
H2341 H 0.58055 0.95988 0.83279 0.0
H2342 H 0.67478 0.63048 0.82642 0.0
H2343 H 0.66879 0.65423 0.80842 0.0
H2344 H 0.67711 0.63493 0.74561 0.0
H2345 H 0.68391 0.61142 0.76355 0.0
H2346 H 0.68863 0.67505 0.74663 0.0
H2347 H 0.63417 0.61249 0.76635 0.0
H2348 H 0.61384 0.5857 0.79157 0.0
H2349 H 0.60337 0.62456 0.83039 0.0
H2350 H 0.62404 0.65171 0.80565 0.0
H2351 H 0.61781 0.67277 0.67566 0.0
H2352 H 0.64135 0.67 0.69839 0.0
H2353 H 0.62297 0.68986 0.75423 0.0
H2354 H 0.59943 0.69306 0.73137 0.0
H2355 H 0.61958 0.65494 0.76098 0.0
H2356 H 0.66959 0.71629 0.73566 0.0
H2357 H 0.68896 0.74176 0.70868 0.0
H2358 H 0.7065 0.70422 0.67834 0.0
H2359 H 0.68701 0.67839 0.70493 0.0
C2360 C 0.67625 0.63179 0.80883 0.0
C2361 C 0.67953 0.61878 0.7964 0.0
C2362 C 0.67267 0.64534 0.79857 0.0
C2363 C 0.67211 0.646 0.77573 0.0
C2364 C 0.67737 0.63452 0.76329 0.0
C2365 C 0.68105 0.62096 0.77356 0.0
C2366 C 0.66293 0.65605 0.765 0.0
C2367 C 0.67355 0.67072 0.74969 0.0
C2368 C 0.64333 0.65053 0.7694 0.0
C2369 C 0.6309 0.63421 0.78433 0.0
C2370 C 0.62773 0.61538 0.7804 0.0
C2371 C 0.61611 0.60012 0.79459 0.0
C2372 C 0.60737 0.60344 0.81261 0.0
C2373 C 0.61021 0.62203 0.81646 0.0
C2374 C 0.62189 0.63737 0.80238 0.0
C2375 C 0.61922 0.6773 0.69257 0.0
C2376 C 0.60657 0.68299 0.70171 0.0
C2377 C 0.63274 0.67569 0.70558 0.0
C2378 C 0.63397 0.67978 0.72799 0.0
C2379 C 0.62224 0.68663 0.73694 0.0
C2380 C 0.60871 0.68832 0.72389 0.0
C2381 C 0.64518 0.67396 0.74234 0.0
C2382 C 0.63484 0.65981 0.75828 0.0
C2383 C 0.66492 0.67983 0.73829 0.0
C2384 C 0.67674 0.69535 0.72226 0.0
C2385 C 0.67746 0.7134 0.72314 0.0
C2386 C 0.68849 0.72792 0.70793 0.0
C2387 C 0.69893 0.72461 0.69179 0.0
C2388 C 0.69841 0.70677 0.69086 0.0
C2389 C 0.6874 0.6922 0.70603 0.0
H2390 H 0.70746 0.73587 0.68002 0.0
H2391 H 0.59834 0.5916 0.82355 0.0
H2392 H 0.06741 0.69702 0.82486 0.0
H2393 H 0.03693 0.69235 0.80921 0.0
H2394 H 0.03854 0.65391 0.76061 0.0
H2395 H 0.06856 0.65805 0.77631 0.0
H2396 H 0.02234 0.69383 0.76368 0.0
H2397 H 0.99642 0.61263 0.76677 0.0
H2398 H 0.00416 0.5903 0.78656 0.0
H2399 H 0.02092 0.62737 0.84297 0.0
H2400 H 0.01315 0.64985 0.82353 0.0
H2401 H 0.94766 0.62933 0.69392 0.0
H2402 H 0.97531 0.65167 0.71574 0.0
H2403 H 0.94038 0.63147 0.77411 0.0
H2404 H 0.91211 0.60934 0.75219 0.0
H2405 H 0.97092 0.62505 0.77451 0.0
H2406 H 0.96205 0.67894 0.76168 0.0
H2407 H 0.95565 0.7014 0.74021 0.0
H2408 H 0.00764 0.71898 0.70295 0.0
H2409 H 0.01422 0.69641 0.72395 0.0
C2410 C 0.06145 0.68787 0.81057 0.0
C2411 C 0.07025 0.67768 0.80201 0.0
C2412 C 0.04416 0.68538 0.80156 0.0
C2413 C 0.03548 0.67264 0.78397 0.0
C2414 C 0.04507 0.66378 0.77426 0.0
C2415 C 0.0623 0.66625 0.7832 0.0
C2416 C 0.01522 0.6662 0.77765 0.0
C2417 C 0.01096 0.67889 0.76617 0.0
C2418 C 1.00041 0.64682 0.78145 0.0
C2419 C 0.00425 0.63293 0.79367 0.0
C2420 C 1.00158 0.61591 0.78346 0.0
C2421 C 0.00602 0.60325 0.7946 0.0
C2422 C 0.01301 0.60739 0.81603 0.0
C2423 C 0.01552 0.62418 0.82637 0.0
C2424 C 0.01113 0.6369 0.81529 0.0
C2425 C 0.94543 0.63017 0.71124 0.0
C2426 C 0.92761 0.6172 0.72128 0.0
C2427 C 0.9614 0.64303 0.72375 0.0
C2428 C 0.95993 0.64318 0.74655 0.0
C2429 C 0.94179 0.63152 0.7565 0.0
C2430 C 0.9257 0.61875 0.74395 0.0
C2431 C 0.97795 0.65247 0.75977 0.0
C2432 C 0.98196 0.64021 0.77251 0.0
C2433 C 0.99242 0.67222 0.75705 0.0
C2434 C 0.9886 0.6859 0.74438 0.0
C2435 C 0.97206 0.68749 0.74881 0.0
C2436 C 0.96841 0.70026 0.73674 0.0
C2437 C 0.98122 0.7116 0.72022 0.0
C2438 C 0.99773 0.7102 0.71577 0.0
C2439 C 1.00145 0.69745 0.72779 0.0
H2440 H 0.97836 0.72147 0.71089 0.0
H2441 H 0.01648 0.59759 0.82461 0.0
H2442 H 0.40938 0.04448 0.82913 0.0
H2443 H 0.38814 0.01416 0.80997 0.0
H2444 H 0.40821 0.04359 0.74809 0.0
H2445 H 0.4298 0.07399 0.76726 0.0
H2446 H 0.35886 1.00018 0.78102 0.0
H2447 H 0.41494 0.0134 0.71364 0.0
H2448 H 0.4503 0.03289 0.70709 0.0
H2449 H 0.461 0.03449 0.77602 0.0
H2450 H 0.42576 0.01479 0.78295 0.0
H2451 H 0.32253 0.92164 0.70181 0.0
H2452 H 0.33396 0.9519 0.72215 0.0
H2453 H 0.37867 0.94396 0.75209 0.0
H2454 H 0.36855 0.91486 0.73085 0.0
H2455 H 0.39405 0.9777 0.73307 0.0
H2456 H 0.33955 0.94073 0.78108 0.0
H2457 H 0.3049 0.91964 0.79024 0.0
H2458 H 0.29211 0.96241 0.76486 0.0
H2459 H 0.32666 0.98366 0.75528 0.0
C2460 C 0.40896 0.04458 0.81145 0.0
C2461 C 0.42134 0.06151 0.79964 0.0
C2462 C 0.39679 0.02726 0.80052 0.0
C2463 C 0.39678 0.0266 0.77763 0.0
C2464 C 0.40823 0.04376 0.76578 0.0
C2465 C 0.42057 0.06106 0.77671 0.0
C2466 C 0.38641 0.00758 0.76641 0.0
C2467 C 0.36648 0.99526 0.7704 0.0
C2468 C 0.39645 1.00112 0.75279 0.0
C2469 C 0.4177 0.01288 0.74882 0.0
C2470 C 0.42485 0.0179 0.72738 0.0
C2471 C 0.44487 0.02896 0.7236 0.0
C2472 C 0.45788 0.03499 0.74113 0.0
C2473 C 0.45091 0.02989 0.76247 0.0
C2474 C 0.43091 0.01879 0.76633 0.0
C2475 C 0.33473 0.92624 0.7128 0.0
C2476 C 0.34478 0.91583 0.71424 0.0
C2477 C 0.34109 0.94345 0.72464 0.0
C2478 C 0.35731 0.95028 0.73844 0.0
C2479 C 0.36623 0.93904 0.74135 0.0
C2480 C 0.36016 0.92213 0.72932 0.0
C2481 C 0.36653 0.97002 0.74802 0.0
C2482 C 0.38629 0.9826 0.74351 0.0
C2483 C 0.35641 0.97645 0.7615 0.0
C2484 C 0.33565 0.96369 0.76725 0.0
C2485 C 0.32932 0.94556 0.77728 0.0
C2486 C 0.30971 0.93359 0.78258 0.0
C2487 C 0.2963 0.93965 0.77807 0.0
C2488 C 0.3025 0.95772 0.76831 0.0
C2489 C 0.3221 0.96974 0.76295 0.0
H2490 H 0.28112 0.93037 0.7822 0.0
H2491 H 0.47336 0.04357 0.73816 0.0
H2492 H 0.34612 0.41639 0.76219 0.0
H2493 H 0.34719 0.38973 0.74436 0.0
H2494 H 0.29934 0.34854 0.78396 0.0
H2495 H 0.29752 0.37529 0.80147 0.0
H2496 H 0.33135 0.34455 0.78779 0.0
H2497 H 0.29293 0.34539 0.73001 0.0
H2498 H 0.28112 0.35943 0.70217 0.0
H2499 H 0.33608 0.38436 0.66908 0.0
H2500 H 0.34836 0.37075 0.69689 0.0
H2501 H 0.37112 0.30221 0.69682 0.0
H2502 H 0.344 0.30428 0.71293 0.0
H2503 H 0.38418 0.35185 0.75351 0.0
H2504 H 0.41124 0.3508 0.73689 0.0
H2505 H 0.34102 0.33776 0.70892 0.0
H2506 H 0.36364 0.35061 0.80107 0.0
H2507 H 0.3756 0.33667 0.82886 0.0
H2508 H 0.35071 0.28297 0.79319 0.0
H2509 H 0.33832 0.29646 0.76534 0.0
C2510 C 0.33523 0.40171 0.76659 0.0
C2511 C 0.32185 0.39812 0.78351 0.0
C2512 C 0.33592 0.3864 0.75635 0.0
C2513 C 0.32332 0.36713 0.7628 0.0
C2514 C 0.30919 0.36332 0.77877 0.0
C2515 C 0.30832 0.37867 0.78888 0.0
C2516 C 0.32715 0.3517 0.75505 0.0
C2517 C 0.33308 0.34269 0.77054 0.0
C2518 C 0.32886 0.34883 0.73254 0.0
C2519 C 0.32156 0.357 0.71559 0.0
C2520 C 0.30254 0.35394 0.71686 0.0
C2521 C 0.29576 0.36183 0.70107 0.0
C2522 C 0.30783 0.37277 0.68386 0.0
C2523 C 0.32672 0.37584 0.6824 0.0
C2524 C 0.33359 0.368 0.69815 0.0
C2525 C 0.37423 0.31306 0.70927 0.0
C2526 C 0.39357 0.3265 0.71525 0.0
C2527 C 0.35865 0.31406 0.71859 0.0
C2528 C 0.36209 0.32814 0.73447 0.0
C2529 C 0.38117 0.34064 0.74154 0.0
C2530 C 0.39671 0.33991 0.73201 0.0
C2531 C 0.34654 0.33196 0.74171 0.0
C2532 C 0.33851 0.33889 0.72614 0.0
C2533 C 0.34285 0.33286 0.76414 0.0
C2534 C 0.35003 0.32458 0.78107 0.0
C2535 C 0.36054 0.33577 0.79923 0.0
C2536 C 0.36745 0.32796 0.81498 0.0
C2537 C 0.36392 0.30896 0.81279 0.0
C2538 C 0.35346 0.29771 0.79485 0.0
C2539 C 0.34651 0.30544 0.77906 0.0
H2540 H 0.36929 0.30295 0.82499 0.0
H2541 H 0.30255 0.37887 0.67166 0.0
H2542 H 0.07986 0.37554 0.69709 0.0
H2543 H 0.05181 0.34874 0.71528 0.0
H2544 H 0.04464 0.38995 0.75424 0.0
H2545 H 0.07195 0.41661 0.73589 0.0
H2546 H 0.03255 0.3554 0.77634 0.0
H2547 H 0.0247 0.37909 0.70498 0.0
H2548 H 0.03248 0.38571 0.66578 0.0
H2549 H 0.01389 0.32547 0.65486 0.0
H2550 H 0.00631 0.3186 0.69412 0.0
H2551 H 0.93889 0.34787 0.76078 0.0
H2552 H 0.96734 0.35038 0.74333 0.0
H2553 H 0.96117 0.30172 0.78093 0.0
H2554 H 0.9318 0.29839 0.79803 0.0
H2555 H 0.98013 0.3288 0.72056 0.0
H2556 H 0.00748 0.31843 0.80215 0.0
H2557 H 0.9999 0.31686 0.8415 0.0
H2558 H 0.97894 0.35678 0.83195 0.0
H2559 H 0.98669 0.35879 0.79267 0.0
C2560 C 0.07257 0.37889 0.70986 0.0
C2561 C 0.0779 0.3983 0.71457 0.0
C2562 C 0.05667 0.36353 0.72039 0.0
C2563 C 0.04599 0.3674 0.73583 0.0
C2564 C 0.05271 0.38664 0.74239 0.0
C2565 C 0.06845 0.40195 0.73182 0.0
C2566 C 0.02599 0.35243 0.74195 0.0
C2567 C 0.02112 0.34901 0.76415 0.0
C2568 C 0.01104 0.34437 0.72604 0.0
C2569 C 0.01516 0.34838 0.70244 0.0
C2570 C 0.02236 0.36729 0.69421 0.0
C2571 C 0.02674 0.37109 0.67201 0.0
C2572 C 0.02372 0.35602 0.65785 0.0
C2573 C 0.01626 0.33713 0.66586 0.0
C2574 C 0.01194 0.33328 0.68808 0.0
C2575 C 0.94285 0.33703 0.76474 0.0
C2576 C 0.93311 0.32314 0.78124 0.0
C2577 C 0.95928 0.33856 0.7547 0.0
C2578 C 0.96651 0.32643 0.76108 0.0
C2579 C 0.95588 0.31134 0.77596 0.0
C2580 C 0.93922 0.30962 0.78588 0.0
C2581 C 0.98669 0.33213 0.75496 0.0
C2582 C 0.99158 0.33401 0.73274 0.0
C2583 C 1.00164 0.33922 0.77086 0.0
C2584 C 0.99742 0.33854 0.79451 0.0
C2585 C 1.00131 0.3269 0.80851 0.0
C2586 C 0.997 0.32595 0.83078 0.0
C2587 C 0.98888 0.33666 0.8392 0.0
C2588 C 0.98518 0.34845 0.8254 0.0
C2589 C 0.98954 0.34951 0.80315 0.0
H2590 H 0.9855 0.33585 0.85643 0.0
H2591 H 0.02712 0.35898 0.64066 0.0
H2592 H 0.48868 0.08666 0.21109 0.0
H2593 H 0.51453 0.09612 0.23767 0.0
H2594 H 0.54097 0.15572 0.21616 0.0
H2595 H 0.51491 0.14627 0.18903 0.0
H2596 H 0.56782 0.144 0.22164 0.0
H2597 H 0.52027 0.14577 0.26548 0.0
H2598 H 0.48752 0.13547 0.27982 0.0
H2599 H 0.48312 0.08274 0.30425 0.0
H2600 H 0.51567 0.09256 0.28966 0.0
H2601 H 0.62924 0.14749 0.31273 0.0
H2602 H 0.60797 0.15641 0.2926 0.0
H2603 H 0.56609 0.09566 0.28354 0.0
H2604 H 0.58706 0.08669 0.30331 0.0
H2605 H 0.55028 0.12012 0.29782 0.0
H2606 H 0.59657 0.11817 0.2454 0.0
H2607 H 0.62974 0.13032 0.2312 0.0
H2608 H 0.63701 0.18733 0.22359 0.0
H2609 H 0.60406 0.17563 0.23833 0.0
C2610 C 0.4999 0.10182 0.21197 0.0
C2611 C 0.49967 0.11574 0.19803 0.0
C2612 C 0.51464 0.10723 0.2273 0.0
C2613 C 0.52943 0.12669 0.2292 0.0
C2614 C 0.52955 0.14066 0.21506 0.0
C2615 C 0.5147 0.13523 0.1996 0.0
C2616 C 0.54491 0.13181 0.24565 0.0
C2617 C 0.56415 0.13938 0.23849 0.0
C2618 C 0.54015 0.12601 0.26768 0.0
C2619 C 0.52051 0.11997 0.27658 0.0
C2620 C 0.5123 0.13195 0.27384 0.0
C2621 C 0.49375 0.12619 0.282 0.0
C2622 C 0.48326 0.10849 0.29299 0.0
C2623 C 0.49129 0.09649 0.29581 0.0
C2624 C 0.50982 0.10218 0.28766 0.0
C2625 C 0.6154 0.1361 0.30657 0.0
C2626 C 0.60983 0.11642 0.3094 0.0
C2627 C 0.60333 0.14121 0.29513 0.0
C2628 C 0.58547 0.12666 0.28676 0.0
C2629 C 0.57974 0.10706 0.2901 0.0
C2630 C 0.59183 0.10198 0.30119 0.0
C2631 C 0.57285 0.13133 0.27345 0.0
C2632 C 0.55412 0.12554 0.28123 0.0
C2633 C 0.57823 0.13919 0.25218 0.0
C2634 C 0.598 0.14611 0.24332 0.0
C2635 C 0.60534 0.13336 0.24099 0.0
C2636 C 0.6241 0.14017 0.23283 0.0
C2637 C 0.63555 0.15963 0.22667 0.0
C2638 C 0.62821 0.17231 0.22856 0.0
C2639 C 0.60951 0.1656 0.23684 0.0
H2640 H 0.65005 0.16488 0.22033 0.0
H2641 H 0.46893 0.10408 0.29933 0.0
H2642 H 0.49937 0.65482 0.25996 0.0
H2643 H 0.47457 0.63223 0.23468 0.0
H2644 H 0.44351 0.59403 0.28839 0.0
H2645 H 0.46809 0.61658 0.3138 0.0
H2646 H 0.46994 0.59691 0.2288 0.0
H2647 H 0.39615 0.56524 0.27544 0.0
H2648 H 0.37891 0.57716 0.2986 0.0
H2649 H 0.41161 0.63385 0.26978 0.0
H2650 H 0.42884 0.62222 0.2462 0.0
H2651 H 0.40995 0.49817 0.21116 0.0
H2652 H 0.42719 0.53019 0.22808 0.0
H2653 H 0.39309 0.54843 0.19068 0.0
H2654 H 0.37546 0.51617 0.17371 0.0
H2655 H 0.39795 0.56055 0.2343 0.0
H2656 H 0.43741 0.56311 0.17411 0.0
H2657 H 0.45413 0.55071 0.15078 0.0
H2658 H 0.4901 0.55391 0.20479 0.0
H2659 H 0.47338 0.56602 0.22857 0.0
C2660 C 0.48697 0.64189 0.26651 0.0
C2661 C 0.48586 0.63733 0.28886 0.0
C2662 C 0.47282 0.62899 0.252 0.0
C2663 C 0.45726 0.61142 0.25963 0.0
C2664 C 0.45529 0.6076 0.28216 0.0
C2665 C 0.46943 0.62048 0.29667 0.0
C2666 C 0.44492 0.59578 0.24407 0.0
C2667 C 0.45419 0.58916 0.22977 0.0
C2668 C 0.42438 0.5858 0.24517 0.0
C2669 C 0.41387 0.59285 0.25912 0.0
C2670 C 0.39958 0.58022 0.27393 0.0
C2671 C 0.38983 0.58694 0.28716 0.0
C2672 C 0.39419 0.60626 0.2857 0.0
C2673 C 0.40829 0.6189 0.27095 0.0
C2674 C 0.41808 0.61225 0.25767 0.0
C2675 C 0.40601 0.50892 0.20655 0.0
C2676 C 0.39144 0.50468 0.19097 0.0
C2677 C 0.41592 0.52723 0.21621 0.0
C2678 C 0.41157 0.54171 0.21038 0.0
C2679 C 0.39668 0.53743 0.19529 0.0
C2680 C 0.38671 0.51905 0.18557 0.0
C2681 C 0.42307 0.56139 0.21984 0.0
C2682 C 0.41367 0.56866 0.23299 0.0
C2683 C 0.44353 0.57211 0.21759 0.0
C2684 C 0.45407 0.56542 0.20315 0.0
C2685 C 0.44884 0.56111 0.18104 0.0
C2686 C 0.45831 0.55412 0.16774 0.0
C2687 C 0.47315 0.55151 0.1763 0.0
C2688 C 0.47861 0.55595 0.19817 0.0
C2689 C 0.46916 0.56291 0.21157 0.0
H2690 H 0.48044 0.54605 0.16598 0.0
H2691 H 0.38663 0.61144 0.29597 0.0
H2692 H 0.91808 0.51065 0.2878 0.0
H2693 H 0.90259 0.48278 0.26347 0.0
H2694 H 0.85183 0.45641 0.30482 0.0
H2695 H 0.86726 0.48465 0.32944 0.0
H2696 H 0.86646 0.43102 0.29123 0.0
H2697 H 0.84463 0.47049 0.26045 0.0
H2698 H 0.84629 0.50086 0.24831 0.0
H2699 H 0.88781 0.50813 0.19896 0.0
H2700 H 0.88689 0.47813 0.2112 0.0
H2701 H 0.85029 0.3658 0.20113 0.0
H2702 H 0.84029 0.38513 0.22348 0.0
H2703 H 0.89655 0.43599 0.21332 0.0
H2704 H 0.90669 0.41677 0.19174 0.0
H2705 H 0.86329 0.44266 0.21204 0.0
H2706 H 0.89227 0.41033 0.25554 0.0
H2707 H 0.89133 0.38039 0.2683 0.0
H2708 H 0.83369 0.35918 0.29346 0.0
H2709 H 0.83424 0.38892 0.28055 0.0
C2710 C 0.90364 0.49897 0.29185 0.0
C2711 C 0.8939 0.49988 0.31056 0.0
C2712 C 0.89475 0.48309 0.27783 0.0
C2713 C 0.87598 0.46771 0.28222 0.0
C2714 C 0.86628 0.46825 0.30112 0.0
C2715 C 0.87512 0.48435 0.31512 0.0
C2716 C 0.86721 0.45105 0.26699 0.0
C2717 C 0.865 0.43326 0.274 0.0
C2718 C 0.86518 0.45398 0.24456 0.0
C2719 C 0.86568 0.47198 0.23679 0.0
C2720 C 0.85422 0.47861 0.24709 0.0
C2721 C 0.85503 0.49577 0.24019 0.0
C2722 C 0.86709 0.50638 0.22283 0.0
C2723 C 0.87842 0.49986 0.21237 0.0
C2724 C 0.87776 0.48276 0.21929 0.0
C2725 C 0.86029 0.38121 0.20335 0.0
C2726 C 0.87928 0.38987 0.19495 0.0
C2727 C 0.85457 0.39218 0.21603 0.0
C2728 C 0.86769 0.41196 0.21994 0.0
C2729 C 0.88618 0.42079 0.21033 0.0
C2730 C 0.89201 0.40979 0.19816 0.0
C2731 C 0.86365 0.4232 0.23623 0.0
C2732 C 0.86362 0.44003 0.22938 0.0
C2733 C 0.86335 0.41931 0.25881 0.0
C2734 C 0.86321 0.40168 0.2669 0.0
C2735 C 0.87937 0.39922 0.26369 0.0
C2736 C 0.87891 0.3823 0.27095 0.0
C2737 C 0.86244 0.36787 0.28163 0.0
C2738 C 0.84642 0.37035 0.28514 0.0
C2739 C 0.8468 0.38723 0.27786 0.0
H2740 H 0.8621 0.35478 0.28723 0.0
H2741 H 0.86768 0.51965 0.21749 0.0
H2742 H 0.39284 0.9129 0.27687 0.0
H2743 H 0.41146 0.90443 0.25238 0.0
H2744 H 0.38471 0.84679 0.28011 0.0
H2745 H 0.36616 0.85538 0.30531 0.0
H2746 H 0.42246 0.86143 0.27771 0.0
H2747 H 0.37502 0.85279 0.22637 0.0
H2748 H 0.35184 0.85924 0.20647 0.0
H2749 H 0.39909 0.91261 0.18169 0.0
H2750 H 0.42248 0.90666 0.20178 0.0
H2751 H 0.48951 0.85966 0.19679 0.0
H2752 H 0.45732 0.84947 0.21266 0.0
H2753 H 0.4728 0.90955 0.21939 0.0
H2754 H 0.50481 0.91982 0.20393 0.0
H2755 H 0.43337 0.88163 0.19988 0.0
H2756 H 0.47806 0.8915 0.26147 0.0
H2757 H 0.50033 0.88333 0.28073 0.0
H2758 H 0.45524 0.82348 0.28428 0.0
H2759 H 0.43278 0.83129 0.26476 0.0
C2760 C 0.39069 0.89832 0.27766 0.0
C2761 C 0.37808 0.88484 0.29311 0.0
C2762 C 0.40124 0.89343 0.26346 0.0
C2763 C 0.39924 0.87484 0.26411 0.0
C2764 C 0.38637 0.86116 0.27923 0.0
C2765 C 0.37581 0.8661 0.2936 0.0
C2766 C 0.41206 0.87073 0.25025 0.0
C2767 C 0.42439 0.86522 0.26051 0.0
C2768 C 0.41456 0.87551 0.22775 0.0
C2769 C 0.40055 0.87923 0.21555 0.0
C2770 C 0.38047 0.86595 0.21676 0.0
C2771 C 0.36728 0.86952 0.20545 0.0
C2772 C 0.37399 0.88631 0.1928 0.0
C2773 C 0.3939 0.89957 0.19144 0.0
C2774 C 0.40715 0.89608 0.20275 0.0
C2775 C 0.48593 0.87064 0.20156 0.0
C2776 C 0.49964 0.89052 0.19932 0.0
C2777 C 0.46761 0.86481 0.21053 0.0
C2778 C 0.46275 0.87881 0.21692 0.0
C2779 C 0.47627 0.89859 0.21425 0.0
C2780 C 0.49461 0.90441 0.20567 0.0
C2781 C 0.4441 0.87329 0.22769 0.0
C2782 C 0.43079 0.87705 0.21683 0.0
C2783 C 0.44044 0.8665 0.24945 0.0
C2784 C 0.45385 0.86192 0.26144 0.0
C2785 C 0.47296 0.87658 0.26621 0.0
C2786 C 0.4856 0.87202 0.27719 0.0
C2787 C 0.47923 0.85288 0.28365 0.0
C2788 C 0.46017 0.83828 0.27922 0.0
C2789 C 0.44748 0.84277 0.26821 0.0
H2790 H 0.48904 0.84938 0.29214 0.0
H2791 H 0.36375 0.88905 0.18406 0.0
H2792 H 0.63884 0.48005 0.23614 0.0
H2793 H 0.61282 0.45107 0.25286 0.0
H2794 H 0.59247 0.42562 0.18913 0.0
H2795 H 0.61825 0.45528 0.17211 0.0
H2796 H 0.56402 0.42312 0.20994 0.0
H2797 H 0.60945 0.40451 0.22835 0.0
H2798 H 0.64037 0.4076 0.24085 0.0
H2799 H 0.63109 0.42326 0.305 0.0
H2800 H 0.60026 0.42058 0.29285 0.0
H2801 H 0.50714 0.3528 0.3084 0.0
H2802 H 0.53382 0.36465 0.28193 0.0
H2803 H 0.52886 0.4157 0.27084 0.0
H2804 H 0.50175 0.40351 0.29639 0.0
H2805 H 0.56796 0.39405 0.28012 0.0
H2806 H 0.5393 0.4325 0.22135 0.0
H2807 H 0.50787 0.42665 0.20686 0.0
H2808 H 0.48269 0.36548 0.219 0.0
H2809 H 0.51405 0.3709 0.23326 0.0
C2810 C 0.62911 0.46817 0.22562 0.0
C2811 C 0.63045 0.47006 0.20278 0.0
C2812 C 0.6143 0.45142 0.23526 0.0
C2813 C 0.60073 0.43599 0.22231 0.0
C2814 C 0.60277 0.43733 0.19947 0.0
C2815 C 0.61751 0.45426 0.18976 0.0
C2816 C 0.58303 0.42006 0.23272 0.0
C2817 C 0.56487 0.4165 0.22509 0.0
C2818 C 0.58398 0.41081 0.25208 0.0
C2819 C 0.60249 0.41235 0.25964 0.0
C2820 C 0.61403 0.40871 0.2451 0.0
C2821 C 0.63155 0.41038 0.25213 0.0
C2822 C 0.63769 0.41562 0.27371 0.0
C2823 C 0.6263 0.41917 0.2883 0.0
C2824 C 0.60877 0.41753 0.28136 0.0
C2825 C 0.51177 0.36653 0.30024 0.0
C2826 C 0.50231 0.37718 0.30426 0.0
C2827 C 0.52696 0.37326 0.28511 0.0
C2828 C 0.53304 0.39082 0.27396 0.0
C2829 C 0.524 0.40176 0.27862 0.0
C2830 C 0.50862 0.39489 0.29338 0.0
C2831 C 0.54929 0.39833 0.25805 0.0
C2832 C 0.56708 0.40021 0.26464 0.0
C2833 C 0.54792 0.40553 0.23736 0.0
C2834 C 0.52906 0.40213 0.22845 0.0
C2835 C 0.52712 0.41778 0.22077 0.0
C2836 C 0.50929 0.41454 0.21264 0.0
C2837 C 0.49328 0.39571 0.21204 0.0
C2838 C 0.49509 0.38007 0.21952 0.0
C2839 C 0.51288 0.38321 0.22765 0.0
H2840 H 0.47949 0.39324 0.20576 0.0
H2841 H 0.65127 0.41692 0.27911 0.0
H2842 H 0.09482 0.59851 0.21269 0.0
H2843 H 0.10594 0.58223 0.2375 0.0
H2844 H 0.16049 0.6065 0.20294 0.0
H2845 H 0.1494 0.62307 0.17776 0.0
H2846 H 0.14408 0.56693 0.21114 0.0
H2847 H 0.16215 0.62341 0.25212 0.0
H2848 H 0.15928 0.65034 0.26815 0.0
H2849 H 0.11073 0.60972 0.3068 0.0
H2850 H 0.11304 0.5825 0.29073 0.0
H2851 H 0.15474 0.51037 0.29786 0.0
H2852 H 0.16432 0.54057 0.27739 0.0
H2853 H 0.10607 0.53095 0.28395 0.0
H2854 H 0.09638 0.5008 0.30377 0.0
H2855 H 0.13746 0.57097 0.29132 0.0
H2856 H 0.11535 0.51567 0.24013 0.0
H2857 H 0.11844 0.48894 0.2238 0.0
H2858 H 0.17721 0.52938 0.20487 0.0
H2859 H 0.1745 0.5563 0.22139 0.0
C2860 C 0.10923 0.60051 0.21032 0.0
C2861 C 0.12124 0.61211 0.19325 0.0
C2862 C 0.11562 0.59128 0.22464 0.0
C2863 C 0.13416 0.59343 0.22228 0.0
C2864 C 0.14619 0.60482 0.20513 0.0
C2865 C 0.13983 0.61423 0.19078 0.0
C2866 C 0.14015 0.58279 0.23732 0.0
C2867 C 0.1433 0.56823 0.2287 0.0
C2868 C 0.13922 0.58456 0.26024 0.0
C2869 C 0.13776 0.60087 0.27016 0.0
C2870 C 0.15078 0.62019 0.26394 0.0
C2871 C 0.14927 0.63552 0.27305 0.0
C2872 C 0.13485 0.63174 0.28849 0.0
C2873 C 0.12191 0.61263 0.29486 0.0
C2874 C 0.12334 0.59723 0.28578 0.0
C2875 C 0.14412 0.51492 0.29512 0.0
C2876 C 0.1248 0.50327 0.30216 0.0
C2877 C 0.14959 0.5321 0.2835 0.0
C2878 C 0.13587 0.53793 0.27927 0.0
C2879 C 0.11686 0.52672 0.28719 0.0
C2880 C 0.11131 0.50945 0.29833 0.0
C2881 C 0.1404 0.55467 0.26502 0.0
C2882 C 0.13914 0.57029 0.27381 0.0
C2883 C 0.14331 0.55404 0.24232 0.0
C2884 C 0.14482 0.53792 0.23221 0.0
C2885 C 0.12897 0.51882 0.23263 0.0
C2886 C 0.13064 0.50365 0.22332 0.0
C2887 C 0.14803 0.50745 0.21337 0.0
C2888 C 0.16376 0.52645 0.21264 0.0
C2889 C 0.16217 0.54166 0.22196 0.0
H2890 H 0.14931 0.49569 0.20617 0.0
H2891 H 0.1337 0.64363 0.29553 0.0
H2892 H 0.4664 0.83126 0.82072 0.0
H2893 H 0.43837 0.81276 0.79665 0.0
H2894 H 0.43445 0.86435 0.78581 0.0
H2895 H 0.46221 0.88281 0.80977 0.0
H2896 H 0.39669 0.82578 0.78489 0.0
H2897 H 0.46524 0.86385 0.74277 0.0
H2898 H 0.49882 0.86968 0.74465 0.0
H2899 H 0.47695 0.8092 0.75825 0.0
H2900 H 0.44323 0.80309 0.75634 0.0
H2901 H 0.41221 0.88741 0.70236 0.0
H2902 H 0.42087 0.86928 0.72754 0.0
H2903 H 0.38292 0.81602 0.69343 0.0
H2904 H 0.37367 0.83407 0.66816 0.0
H2905 H 0.43145 0.83374 0.71491 0.0
H2906 H 0.3621 0.80402 0.72689 0.0
H2907 H 0.33178 0.80533 0.72626 0.0
H2908 H 0.35531 0.8512 0.77381 0.0
H2909 H 0.38609 0.85064 0.77414 0.0
C2910 C 0.45911 0.83847 0.81378 0.0
C2911 C 0.46669 0.85857 0.81665 0.0
C2912 C 0.44311 0.82786 0.80009 0.0
C2913 C 0.43455 0.83728 0.78933 0.0
C2914 C 0.44084 0.85682 0.79407 0.0
C2915 C 0.45684 0.86741 0.80756 0.0
C2916 C 0.42251 0.82893 0.76962 0.0
C2917 C 0.40375 0.82643 0.76949 0.0
C2918 C 0.43177 0.8297 0.74962 0.0
C2919 C 0.45183 0.83299 0.7492 0.0
C2920 C 0.46764 0.85178 0.74586 0.0
C2921 C 0.48667 0.85515 0.74704 0.0
C2922 C 0.49002 0.8398 0.75152 0.0
C2923 C 0.47433 0.82104 0.75469 0.0
C2924 C 0.45527 0.81761 0.75349 0.0
C2925 C 0.40585 0.8719 0.69994 0.0
C2926 C 0.39203 0.86214 0.68348 0.0
C2927 C 0.41089 0.86158 0.71429 0.0
C2928 C 0.40234 0.84137 0.71239 0.0
C2929 C 0.38952 0.83163 0.69515 0.0
C2930 C 0.3843 0.84198 0.68078 0.0
C2931 C 0.40573 0.83093 0.73016 0.0
C2932 C 0.42328 0.83076 0.73001 0.0
C2933 C 0.39515 0.82734 0.74985 0.0
C2934 C 0.37645 0.82733 0.75043 0.0
C2935 C 0.36089 0.81453 0.73704 0.0
C2936 C 0.34363 0.81517 0.7367 0.0
C2937 C 0.3416 0.82835 0.74997 0.0
C2938 C 0.35688 0.84097 0.76356 0.0
C2939 C 0.37427 0.84051 0.76381 0.0
H2940 H 0.32818 0.82876 0.74975 0.0
H2941 H 0.50475 0.84246 0.75259 0.0
H2942 H 0.52075 0.38568 0.68361 0.0
H2943 H 0.54977 0.40549 0.70601 0.0
H2944 H 0.51601 0.42065 0.7484 0.0
H2945 H 0.48721 0.4012 0.72622 0.0
H2946 H 0.5666 0.44546 0.71375 0.0
H2947 H 0.53113 0.42259 0.80013 0.0
H2948 H 0.50681 0.39271 0.81874 0.0
H2949 H 0.51792 0.35807 0.77353 0.0
H2950 H 0.54253 0.38773 0.75485 0.0
H2951 H 0.59716 0.51987 0.78887 0.0
H2952 H 0.57982 0.49138 0.76574 0.0
H2953 H 0.60745 0.46365 0.79882 0.0
H2954 H 0.62508 0.49239 0.82231 0.0
H2955 H 0.56772 0.43968 0.79441 0.0
H2956 H 0.62103 0.47811 0.74818 0.0
H2957 H 0.64542 0.50781 0.72933 0.0
H2958 H 0.6001 0.51027 0.69376 0.0
H2959 H 0.57542 0.48077 0.71263 0.0
C2960 C 0.51953 0.39311 0.69784 0.0
C2961 C 0.50175 0.39197 0.70313 0.0
C2962 C 0.53608 0.40439 0.71057 0.0
C2963 C 0.53493 0.4143 0.72896 0.0
C2964 C 0.51711 0.41285 0.73446 0.0
C2965 C 0.5007 0.40184 0.72165 0.0
C2966 C 0.55245 0.42747 0.74172 0.0
C2967 C 0.56709 0.44409 0.73134 0.0
C2968 C 0.55322 0.42535 0.76457 0.0
C2969 C 0.53866 0.40743 0.77603 0.0
C2970 C 0.52851 0.40862 0.79425 0.0
C2971 C 0.51464 0.3917 0.80479 0.0
C2972 C 0.5108 0.3735 0.79731 0.0
C2973 C 0.52087 0.37217 0.77929 0.0
C2974 C 0.53477 0.38904 0.76869 0.0
C2975 C 0.59968 0.5078 0.79126 0.0
C2976 C 0.61252 0.5084 0.80744 0.0
C2977 C 0.58984 0.49156 0.77788 0.0
C2978 C 0.5926 0.47555 0.78035 0.0
C2979 C 0.60528 0.47596 0.79657 0.0
C2980 C 0.6153 0.49235 0.80995 0.0
C2981 C 0.58122 0.45817 0.76656 0.0
C2982 C 0.56766 0.44079 0.77676 0.0
C2983 C 0.58154 0.45953 0.7435 0.0
C2984 C 0.59634 0.47722 0.7319 0.0
C2985 C 0.61625 0.48504 0.73643 0.0
C2986 C 0.63014 0.50184 0.72573 0.0
C2987 C 0.62432 0.51092 0.71037 0.0
C2988 C 0.60459 0.50321 0.70565 0.0
C2989 C 0.59064 0.48642 0.71632 0.0
H2990 H 0.63509 0.52393 0.70211 0.0
H2991 H 0.50004 0.36043 0.80548 0.0
H2992 H 0.08475 0.49708 0.70214 0.0
H2993 H 0.09366 0.52778 0.71998 0.0
H2994 H 0.15389 0.5496 0.70357 0.0
H2995 H 0.14501 0.5186 0.68529 0.0
H2996 H 0.14393 0.55422 0.75013 0.0
H2997 H 0.13544 0.56875 0.67619 0.0
H2998 H 0.11825 0.56074 0.64085 0.0
H2999 H 0.06756 0.55578 0.67207 0.0
H3000 H 0.08434 0.56351 0.70767 0.0
H3001 H 0.14901 0.63686 0.80324 0.0
H3002 H 0.15582 0.6184 0.77604 0.0
H3003 H 0.09477 0.58571 0.75983 0.0
H3004 H 0.08803 0.60442 0.78622 0.0
H3005 H 0.11491 0.59332 0.72421 0.0
H3006 H 0.11719 0.5689 0.79616 0.0
H3007 H 0.12954 0.57152 0.83371 0.0
H3008 H 0.18675 0.59016 0.80874 0.0
H3009 H 0.17476 0.58788 0.77102 0.0
C3010 C 0.09992 0.50832 0.70236 0.0
C3011 C 0.11421 0.50546 0.69239 0.0
C3012 C 0.10496 0.52589 0.71246 0.0
C3013 C 0.12437 0.5409 0.71289 0.0
C3014 C 0.13882 0.53811 0.70325 0.0
C3015 C 0.13373 0.5205 0.69282 0.0
C3016 C 0.12908 0.55929 0.72379 0.0
C3017 C 0.1382 0.56325 0.74423 0.0
C3018 C 0.12108 0.57058 0.71617 0.0
C3019 C 0.11118 0.56672 0.69463 0.0
C3020 C 0.12062 0.56593 0.67554 0.0
C3021 C 0.11094 0.56142 0.65545 0.0
C3022 C 0.09183 0.55776 0.65422 0.0
C3023 C 0.08238 0.55868 0.67305 0.0
C3024 C 0.09199 0.56317 0.69318 0.0
C3025 C 0.1371 0.62584 0.79372 0.0
C3026 C 0.11797 0.62201 0.79694 0.0
C3027 C 0.14101 0.6153 0.77822 0.0
C3028 C 0.12579 0.60056 0.76602 0.0
C3029 C 0.10678 0.59709 0.76893 0.0
C3030 C 0.10292 0.60774 0.78415 0.0
C3031 C 0.1291 0.58783 0.75105 0.0
C3032 C 0.12141 0.5849 0.72983 0.0
C3033 C 0.13794 0.57711 0.7582 0.0
C3034 C 0.14516 0.5785 0.78082 0.0
C3035 C 0.13244 0.57371 0.7987 0.0
C3036 C 0.13936 0.57511 0.82 0.0
C3037 C 0.15894 0.58108 0.82361 0.0
C3038 C 0.17161 0.5856 0.80592 0.0
C3039 C 0.16476 0.58426 0.78458 0.0
H3040 H 0.16427 0.58214 0.84012 0.0
H3041 H 0.08433 0.55419 0.63867 0.0
H3042 H 0.53628 0.15159 0.82666 0.0
H3043 H 0.56445 0.15791 0.80471 0.0
H3044 H 0.53663 0.16419 0.74722 0.0
H3045 H 0.50818 0.15758 0.76905 0.0
H3046 H 0.54921 0.13922 0.74035 0.0
H3047 H 0.57657 0.20337 0.7691 0.0
H3048 H 0.58571 0.22847 0.7975 0.0
H3049 H 0.62245 0.20999 0.82798 0.0
H3050 H 0.61332 0.18457 0.79995 0.0
H3051 H 0.62835 0.15747 0.67453 0.0
H3052 H 0.60649 0.16558 0.6939 0.0
H3053 H 0.62635 0.15557 0.75554 0.0
H3054 H 0.64862 0.14782 0.73628 0.0
H3055 H 0.61837 0.1858 0.75763 0.0
H3056 H 0.5876 0.11931 0.73168 0.0
H3057 H 0.57948 0.09472 0.70285 0.0
H3058 H 0.54914 0.11794 0.66713 0.0
H3059 H 0.5574 0.14292 0.69559 0.0
C3060 C 0.53625 0.15462 0.80942 0.0
C3061 C 0.51993 0.15393 0.79956 0.0
C3062 C 0.55243 0.15834 0.7969 0.0
C3063 C 0.55268 0.16163 0.77435 0.0
C3064 C 0.53671 0.16168 0.76461 0.0
C3065 C 0.52049 0.15793 0.77711 0.0
C3066 C 0.56883 0.16325 0.76074 0.0
C3067 C 0.56431 0.14971 0.74384 0.0
C3068 C 0.58854 0.17664 0.76561 0.0
C3069 C 0.59414 0.19196 0.78249 0.0
C3070 C 0.58648 0.20455 0.78195 0.0
C3071 C 0.59169 0.21886 0.79797 0.0
C3072 C 0.60463 0.2208 0.81456 0.0
C3073 C 0.61242 0.20847 0.81513 0.0
C3074 C 0.60726 0.19412 0.79916 0.0
C3075 C 0.62832 0.1573 0.69222 0.0
C3076 C 0.63991 0.15164 0.7039 0.0
C3077 C 0.61586 0.16199 0.70324 0.0
C3078 C 0.61457 0.16079 0.72609 0.0
C3079 C 0.62712 0.15651 0.73787 0.0
C3080 C 0.63975 0.15199 0.72685 0.0
C3081 C 0.59866 0.16173 0.73749 0.0
C3082 C 0.60323 0.1756 0.75399 0.0
C3083 C 0.57896 0.14862 0.73232 0.0
C3084 C 0.57327 0.13309 0.71566 0.0
C3085 C 0.57925 0.11921 0.71764 0.0
C3086 C 0.57465 0.10522 0.70136 0.0
C3087 C 0.56385 0.1048 0.68313 0.0
C3088 C 0.55754 0.11831 0.68123 0.0
C3089 C 0.56217 0.13238 0.69744 0.0
H3090 H 0.56036 0.094 0.67051 0.0
H3091 H 0.60863 0.23189 0.82695 0.0
H3092 H 0.36922 0.51881 0.80324 0.0
H3093 H 0.39132 0.54846 0.78279 0.0
H3094 H 0.43087 0.52672 0.77337 0.0
H3095 H 0.40906 0.4973 0.7934 0.0
H3096 H 0.44879 0.56575 0.78798 0.0
H3097 H 0.40147 0.52228 0.73366 0.0
H3098 H 0.36813 0.50311 0.71916 0.0
H3099 H 0.36307 0.55444 0.71725 0.0
H3100 H 0.39632 0.57387 0.73204 0.0
H3101 H 0.51064 0.59792 0.70045 0.0
H3102 H 0.48442 0.5798 0.7262 0.0
H3103 H 0.4599 0.61621 0.71131 0.0
H3104 H 0.4862 0.63443 0.68491 0.0
H3105 H 0.43205 0.5779 0.71375 0.0
H3106 H 0.4831 0.62255 0.7594 0.0
H3107 H 0.51657 0.64135 0.77357 0.0
H3108 H 0.51486 0.58847 0.79254 0.0
H3109 H 0.48149 0.56932 0.77823 0.0
C3110 C 0.38265 0.52044 0.79679 0.0
C3111 C 0.3874 0.50574 0.7998 0.0
C3112 C 0.3952 0.53732 0.78516 0.0
C3113 C 0.41269 0.53972 0.77669 0.0
C3114 C 0.41747 0.52514 0.7799 0.0
C3115 C 0.40491 0.50827 0.79122 0.0
C3116 C 0.42616 0.55709 0.76397 0.0
C3117 C 0.44517 0.56855 0.7718 0.0
C3118 C 0.42112 0.56111 0.74326 0.0
C3119 C 0.40124 0.54946 0.73422 0.0
C3120 C 0.39318 0.52944 0.73032 0.0
C3121 C 0.37432 0.51853 0.72202 0.0
C3122 C 0.36346 0.52754 0.71736 0.0
C3123 C 0.37147 0.54748 0.72092 0.0
C3124 C 0.39032 0.55845 0.72926 0.0
C3125 C 0.49973 0.60217 0.70262 0.0
C3126 C 0.50058 0.61772 0.6908 0.0
C3127 C 0.48479 0.59184 0.71745 0.0
C3128 C 0.4705 0.59698 0.72107 0.0
C3129 C 0.47093 0.61217 0.7089 0.0
C3130 C 0.48592 0.62252 0.69385 0.0
C3131 C 0.45502 0.58591 0.7373 0.0
C3132 C 0.43562 0.57566 0.7302 0.0
C3133 C 0.45969 0.58302 0.75879 0.0
C3134 C 0.47975 0.59449 0.76769 0.0
C3135 C 0.48988 0.61492 0.76651 0.0
C3136 C 0.50885 0.62564 0.77458 0.0
C3137 C 0.51783 0.61611 0.78397 0.0
C3138 C 0.50786 0.59584 0.78532 0.0
C3139 C 0.4889 0.58504 0.77727 0.0
H3140 H 0.53252 0.62443 0.79019 0.0
H3141 H 0.34886 0.51907 0.71094 0.0
H3142 H 0.89138 0.52425 0.74066 0.0
H3143 H 0.88505 0.49622 0.76316 0.0
H3144 H 0.87373 0.46151 0.70486 0.0
H3145 H 0.8787 0.48927 0.68252 0.0
H3146 H 0.85237 0.43896 0.73525 0.0
H3147 H 0.92013 0.48717 0.73057 0.0
H3148 H 0.94944 0.51951 0.73418 0.0
H3149 H 0.93976 0.5188 0.80327 0.0
H3150 H 0.91025 0.48655 0.80002 0.0
H3151 H 0.90889 0.39305 0.7731 0.0
H3152 H 0.90031 0.41524 0.75513 0.0
H3153 H 0.86558 0.41206 0.81079 0.0
H3154 H 0.87356 0.38922 0.82864 0.0
H3155 H 0.90693 0.45252 0.78523 0.0
H3156 H 0.83704 0.40133 0.78625 0.0
H3157 H 0.8112 0.3676 0.77898 0.0
H3158 H 0.82959 0.37319 0.7121 0.0
H3159 H 0.85574 0.40688 0.71912 0.0
C3160 C 0.88706 0.51045 0.7328 0.0
C3161 C 0.88559 0.50875 0.71001 0.0
C3162 C 0.88358 0.49451 0.74559 0.0
C3163 C 0.87951 0.47691 0.73567 0.0
C3164 C 0.87693 0.47494 0.7129 0.0
C3165 C 0.87979 0.49075 0.70014 0.0
C3166 C 0.87962 0.46123 0.74874 0.0
C3167 C 0.86428 0.44201 0.74624 0.0
C3168 C 0.8952 0.46506 0.76306 0.0
C3169 C 0.91284 0.48456 0.765 0.0
C3170 C 0.92416 0.49399 0.7465 0.0
C3171 C 0.94083 0.51229 0.74849 0.0
C3172 C 0.94644 0.52123 0.76894 0.0
C3173 C 0.93539 0.51188 0.78744 0.0
C3174 C 0.91869 0.49359 0.78553 0.0
C3175 C 0.89913 0.39679 0.78134 0.0
C3176 C 0.89191 0.38951 0.80225 0.0
C3177 C 0.89418 0.40935 0.77103 0.0
C3178 C 0.88214 0.415 0.78157 0.0
C3179 C 0.87456 0.40748 0.80227 0.0
C3180 C 0.87918 0.39454 0.81244 0.0
C3181 C 0.87967 0.43058 0.77187 0.0
C3182 C 0.89477 0.44971 0.77474 0.0
C3183 C 0.86422 0.42661 0.75754 0.0
C3184 C 0.84846 0.40648 0.75329 0.0
C3185 C 0.83571 0.39527 0.77008 0.0
C3186 C 0.82097 0.37619 0.76598 0.0
C3187 C 0.8188 0.36823 0.74511 0.0
C3188 C 0.83131 0.37936 0.72827 0.0
C3189 C 0.84608 0.39844 0.7323 0.0
H3190 H 0.80738 0.35346 0.74197 0.0
H3191 H 0.95936 0.53539 0.77047 0.0
H3192 H 0.46733 0.10684 0.06648 0.0
H3193 H 0.48424 0.11892 0.03197 0.0
H3194 H 0.53018 0.16892 0.06479 0.0
H3195 H 0.51306 0.15665 0.09987 0.0
H3196 H 0.51619 0.17928 0.03004 0.0
H3197 H 0.54156 0.13797 0.04036 0.0
H3198 H 0.54242 0.10842 0.05075 0.0
H3199 H 0.50121 0.07622 0.00027 0.0
H3200 H 0.49978 0.10543 0.98982 0.0
H3201 H 0.52478 0.15656 0.90459 0.0
H3202 H 0.53822 0.16268 0.94176 0.0
H3203 H 0.48753 0.16368 0.9654 0.0
H3204 H 0.47426 0.15773 0.92861 0.0
H3205 H 0.52193 0.13757 0.97367 0.0
H3206 H 0.49485 0.18843 0.01002 0.0
H3207 H 0.49536 0.21865 0.99962 0.0
H3208 H 0.54386 0.23385 0.95706 0.0
H3209 H 0.54388 0.20389 0.96744 0.0
C3210 C 0.48121 0.12023 0.06648 0.0
C3211 C 0.48885 0.13087 0.08581 0.0
C3212 C 0.49097 0.12706 0.04673 0.0
C3213 C 0.5086 0.14474 0.04578 0.0
C3214 C 0.51667 0.15516 0.0652 0.0
C3215 C 0.50695 0.14813 0.08518 0.0
C3216 C 0.51689 0.15294 0.02401 0.0
C3217 C 0.51784 0.17039 0.01773 0.0
C3218 C 0.51984 0.14172 0.00813 0.0
C3219 C 0.52061 0.12399 0.01426 0.0
C3220 C 0.53259 0.12457 0.03153 0.0
C3221 C 0.53318 0.10787 0.03744 0.0
C3222 C 0.52191 0.09047 0.02614 0.0
C3223 C 0.50998 0.08973 0.00896 0.0
C3224 C 0.50931 0.10638 0.003 0.0
C3225 C 0.5169 0.15882 0.91762 0.0
C3226 C 0.49843 0.15658 0.91377 0.0
C3227 C 0.52454 0.16221 0.93886 0.0
C3228 C 0.51397 0.16375 0.95642 0.0
C3229 C 0.49619 0.16293 0.95217 0.0
C3230 C 0.48852 0.15938 0.9311 0.0
C3231 C 0.51948 0.163 0.97947 0.0
C3232 C 0.52109 0.14692 0.986 0.0
C3233 C 0.51917 0.17563 0.9956 0.0
C3234 C 0.51936 0.19385 0.98954 0.0
C3235 C 0.50576 0.19829 0.9986 0.0
C3236 C 0.50591 0.21536 0.99266 0.0
C3237 C 0.51962 0.22816 0.97769 0.0
C3238 C 0.53322 0.22391 0.96863 0.0
C3239 C 0.53314 0.20687 0.97452 0.0
H3240 H 0.5197 0.24136 0.9731 0.0
H3241 H 0.52241 0.07757 0.03068 0.0
H3242 H 0.37357 0.50373 0.09387 0.0
H3243 H 0.38005 0.51811 0.05711 0.0
H3244 H 0.36594 0.46263 0.02937 0.0
H3245 H 0.35979 0.4484 0.06565 0.0
H3246 H 0.39527 0.49118 0.00717 0.0
H3247 H 0.33142 0.4766 0.03507 0.0
H3248 H 0.31001 0.48055 0.06123 0.0
H3249 H 0.3392 0.54182 0.04783 0.0
H3250 H 0.36094 0.53822 0.02177 0.0
H3251 H 0.32233 0.4678 0.92195 0.0
H3252 H 0.33275 0.47911 0.95906 0.0
H3253 H 0.3899 0.52083 0.93541 0.0
H3254 H 0.37939 0.50929 0.89784 0.0
H3255 H 0.34833 0.51157 0.98372 0.0
H3256 H 0.42173 0.51762 0.97145 0.0
H3257 H 0.43928 0.50968 0.94366 0.0
H3258 H 0.38579 0.45932 0.92443 0.0
H3259 H 0.36803 0.46677 0.95236 0.0
C3260 C 0.37216 0.49473 0.07992 0.0
C3261 C 0.3659 0.47486 0.08264 0.0
C3262 C 0.37588 0.50295 0.05895 0.0
C3263 C 0.37336 0.49141 0.04044 0.0
C3264 C 0.3681 0.47187 0.04335 0.0
C3265 C 0.36438 0.46369 0.06416 0.0
C3266 C 0.37393 0.49861 0.01789 0.0
C3267 C 0.38537 0.49613 0.00211 0.0
C3268 C 0.36102 0.50505 0.01118 0.0
C3269 C 0.34794 0.50719 0.02674 0.0
C3270 C 0.33334 0.49092 0.03783 0.0
C3271 C 0.32114 0.4931 0.05261 0.0
C3272 C 0.32329 0.51144 0.05625 0.0
C3273 C 0.33759 0.52764 0.04505 0.0
C3274 C 0.34986 0.52554 0.03028 0.0
C3275 C 0.33696 0.47976 0.92457 0.0
C3276 C 0.35013 0.48753 0.90715 0.0
C3277 C 0.34288 0.48633 0.94579 0.0
C3278 C 0.36217 0.50066 0.95007 0.0
C3279 C 0.37497 0.50968 0.93246 0.0
C3280 C 0.36895 0.50315 0.91104 0.0
C3281 C 0.36909 0.50341 0.97301 0.0
C3282 C 0.35902 0.50769 0.98888 0.0
C3283 C 0.3829 0.49814 0.97975 0.0
C3284 C 0.39357 0.49289 0.96379 0.0
C3285 C 0.41377 0.50478 0.96139 0.0
C3286 C 0.42374 0.50038 0.94561 0.0
C3287 C 0.41364 0.48407 0.93222 0.0
C3288 C 0.39359 0.47198 0.93478 0.0
C3289 C 0.38358 0.47626 0.9506 0.0
H3290 H 0.42134 0.48079 0.91988 0.0
H3291 H 0.31383 0.5131 0.06769 0.0
H3292 H 0.85566 0.36164 0.096 0.0
H3293 H 0.85411 0.371 0.05791 0.0
H3294 H 0.90053 0.36026 0.0405 0.0
H3295 H 0.90198 0.3508 0.07785 0.0
H3296 H 0.90515 0.39482 0.02268 0.0
H3297 H 0.85456 0.32595 0.03214 0.0
H3298 H 0.82423 0.30013 0.04865 0.0
H3299 H 0.79362 0.32862 0.02603 0.0
H3300 H 0.82388 0.35473 0.0096 0.0
H3301 H 0.90913 0.354 0.92649 0.0
H3302 H 0.90424 0.36231 0.96316 0.0
H3303 H 0.85957 0.37349 0.9396 0.0
H3304 H 0.86455 0.36517 0.90219 0.0
H3305 H 0.84895 0.34893 0.97738 0.0
H3306 H 0.89888 0.41111 0.9565 0.0
H3307 H 0.9295 0.43524 0.93899 0.0
H3308 H 0.96187 0.41972 0.98262 0.0
H3309 H 0.93145 0.39521 0.00013 0.0
C3310 C 0.86557 0.36143 0.084 0.0
C3311 C 0.87881 0.35531 0.08984 0.0
C3312 C 0.86469 0.36678 0.06232 0.0
C3313 C 0.87726 0.36637 0.04641 0.0
C3314 C 0.89079 0.36081 0.0525 0.0
C3315 C 0.89148 0.35524 0.07387 0.0
C3316 C 0.87599 0.37042 0.02299 0.0
C3317 C 0.89279 0.385 0.01272 0.0
C3318 C 0.85959 0.35807 0.01012 0.0
C3319 C 0.84148 0.34239 0.01994 0.0
C3320 C 0.84139 0.32677 0.03086 0.0
C3321 C 0.82422 0.31208 0.04016 0.0
C3322 C 0.80702 0.31277 0.03846 0.0
C3323 C 0.80696 0.32813 0.02739 0.0
C3324 C 0.82411 0.34288 0.01809 0.0
C3325 C 0.89831 0.35833 0.92895 0.0
C3326 C 0.88716 0.35886 0.91144 0.0
C3327 C 0.89564 0.36322 0.94996 0.0
C3328 C 0.88171 0.36874 0.95409 0.0
C3329 C 0.8705 0.3694 0.93669 0.0
C3330 C 0.87338 0.3647 0.91539 0.0
C3331 C 0.87857 0.37258 0.97702 0.0
C3332 C 0.861 0.35945 0.98723 0.0
C3333 C 0.8943 0.38628 0.98986 0.0
C3334 C 0.91279 0.40127 0.97966 0.0
C3335 C 0.91251 0.41276 0.96232 0.0
C3336 C 0.92984 0.42651 0.95237 0.0
C3337 C 0.94762 0.42901 0.95969 0.0
C3338 C 0.94809 0.41779 0.97699 0.0
C3339 C 0.93079 0.40398 0.98696 0.0
H3340 H 0.96102 0.43965 0.95194 0.0
H3341 H 0.79374 0.30138 0.04566 0.0
H3342 H 0.55426 0.9071 0.07869 0.0
H3343 H 0.53941 0.90084 0.0427 0.0
H3344 H 0.48518 0.85588 0.06947 0.0
H3345 H 0.50007 0.86227 0.10609 0.0
H3346 H 0.49868 0.84513 0.03072 0.0
H3347 H 0.4839 0.89303 0.05299 0.0
H3348 H 0.48962 0.92332 0.07069 0.0
H3349 H 0.53528 0.95688 0.02494 0.0
H3350 H 0.53011 0.9268 0.0072 0.0
H3351 H 0.48481 0.84884 0.91332 0.0
H3352 H 0.47632 0.84767 0.95224 0.0
H3353 H 0.5336 0.89605 0.96524 0.0
H3354 H 0.54216 0.89717 0.92694 0.0
H3355 H 0.50367 0.89942 0.98572 0.0
H3356 H 0.52476 0.85126 0.97386 0.0
H3357 H 0.52103 0.8213 0.95717 0.0
H3358 H 0.4635 0.78854 0.98397 0.0
H3359 H 0.46685 0.8184 0.00059 0.0
C3360 C 0.53914 0.89593 0.07705 0.0
C3361 C 0.52834 0.88514 0.0952 0.0
C3362 C 0.53064 0.89245 0.05646 0.0
C3363 C 0.51116 0.87804 0.05349 0.0
C3364 C 0.50021 0.86715 0.07153 0.0
C3365 C 0.5087 0.87084 0.09236 0.0
C3366 C 0.50307 0.87418 0.0311 0.0
C3367 C 0.49903 0.85671 0.02097 0.0
C3368 C 0.50359 0.88933 0.01843 0.0
C3369 C 0.50659 0.90759 0.02874 0.0
C3370 C 0.49522 0.90685 0.04674 0.0
C3371 C 0.49837 0.924 0.0568 0.0
C3372 C 0.51279 0.94201 0.04894 0.0
C3373 C 0.52408 0.94291 0.03098 0.0
C3374 C 0.52102 0.92581 0.02089 0.0
C3375 C 0.49549 0.85926 0.92453 0.0
C3376 C 0.5142 0.87299 0.91716 0.0
C3377 C 0.49062 0.85859 0.94668 0.0
C3378 C 0.50433 0.87183 0.96155 0.0
C3379 C 0.52277 0.8858 0.95401 0.0
C3380 C 0.52769 0.8863 0.93212 0.0
C3381 C 0.50042 0.87084 0.98529 0.0
C3382 C 0.50229 0.88746 0.99563 0.0
C3383 C 0.4979 0.85493 0.99813 0.0
C3384 C 0.49594 0.83706 0.98818 0.0
C3385 C 0.51126 0.83769 0.97602 0.0
C3386 C 0.50923 0.82073 0.96661 0.0
C3387 C 0.49201 0.80304 0.96944 0.0
C3388 C 0.47681 0.80226 0.98174 0.0
C3389 C 0.47876 0.81919 0.99115 0.0
H3390 H 0.49046 0.78992 0.96215 0.0
H3391 H 0.51522 0.95526 0.05676 0.0
H3392 H 0.62615 0.50026 0.10343 0.0
H3393 H 0.61495 0.49405 0.06536 0.0
H3394 H 0.67414 0.51705 0.04364 0.0
H3395 H 0.68532 0.52314 0.08134 0.0
H3396 H 0.62361 0.52038 0.03423 0.0
H3397 H 0.6767 0.49653 0.99756 0.0
H3398 H 0.68995 0.47544 0.00792 0.0
H3399 H 0.6416 0.44317 0.05103 0.0
H3400 H 0.62789 0.46385 0.0407 0.0
H3401 H 0.66077 0.56061 0.93448 0.0
H3402 H 0.65427 0.54736 0.9711 0.0
H3403 H 0.62215 0.48919 0.94504 0.0
H3404 H 0.62891 0.50254 0.90764 0.0
H3405 H 0.64681 0.49191 0.97774 0.0
H3406 H 0.59729 0.50771 0.97019 0.0
H3407 H 0.58254 0.52742 0.95959 0.0
H3408 H 0.61953 0.5719 0.00492 0.0
H3409 H 0.63474 0.55263 0.01556 0.0
C3410 C 0.63671 0.50367 0.09054 0.0
C3411 C 0.65664 0.5123 0.09541 0.0
C3412 C 0.63029 0.50013 0.0688 0.0
C3413 C 0.64366 0.50488 0.05162 0.0
C3414 C 0.66347 0.5129 0.05657 0.0
C3415 C 0.66988 0.51655 0.07819 0.0
C3416 C 0.63754 0.50349 0.02841 0.0
C3417 C 0.62839 0.51388 0.0219 0.0
C3418 C 0.64321 0.49448 0.01232 0.0
C3419 C 0.6513 0.48182 0.01839 0.0
C3420 C 0.66881 0.48485 0.00913 0.0
C3421 C 0.67642 0.47298 0.01503 0.0
C3422 C 0.66664 0.45799 0.03015 0.0
C3423 C 0.6492 0.45481 0.03937 0.0
C3424 C 0.64151 0.46663 0.03351 0.0
C3425 C 0.65222 0.54497 0.93634 0.0
C3426 C 0.64531 0.53263 0.91805 0.0
C3427 C 0.6484 0.53741 0.95741 0.0
C3428 C 0.6374 0.5173 0.96088 0.0
C3429 C 0.63053 0.50479 0.94272 0.0
C3430 C 0.63438 0.51241 0.92141 0.0
C3431 C 0.63407 0.50986 0.98367 0.0
C3432 C 0.64147 0.49787 0.99009 0.0
C3433 C 0.62648 0.5171 0.99972 0.0
C3434 C 0.61717 0.52869 0.99367 0.0
C3435 C 0.60234 0.52173 0.97784 0.0
C3436 C 0.5939 0.53283 0.97182 0.0
C3437 C 0.60009 0.5509 0.98158 0.0
C3438 C 0.61472 0.55789 0.9974 0.0
C3439 C 0.62323 0.54686 0.00347 0.0
H3440 H 0.59355 0.55948 0.97687 0.0
H3441 H 0.67257 0.44883 0.0347 0.0
H3442 H 0.1376 0.623 0.89813 0.0
H3443 H 0.14183 0.61201 0.9342 0.0
H3444 H 0.17059 0.67132 0.95722 0.0
H3445 H 0.16668 0.68224 0.92146 0.0
H3446 H 0.1848 0.65144 0.97793 0.0
H3447 H 0.12017 0.64211 0.95922 0.0
H3448 H 0.09075 0.62764 0.93613 0.0
H3449 H 0.08067 0.57046 0.95088 0.0
H3450 H 0.11018 0.58467 0.97392 0.0
H3451 H 0.14803 0.67292 0.06917 0.0
H3452 H 0.15684 0.66603 0.03347 0.0
H3453 H 0.13512 0.60635 0.05238 0.0
H3454 H 0.12673 0.61344 0.0888 0.0
H3455 H 0.11932 0.61389 0.01138 0.0
H3456 H 0.1793 0.62763 0.04293 0.0
H3457 H 0.20841 0.64527 0.06609 0.0
H3458 H 0.22719 0.69678 0.02754 0.0
H3459 H 0.19805 0.67957 0.00435 0.0
C3460 C 0.14552 0.63371 0.91067 0.0
C3461 C 0.1516 0.65343 0.90717 0.0
C3462 C 0.14783 0.62742 0.9313 0.0
C3463 C 0.15619 0.64081 0.94855 0.0
C3464 C 0.16406 0.66069 0.94424 0.0
C3465 C 0.16172 0.66693 0.9238 0.0
C3466 C 0.15405 0.63446 0.97172 0.0
C3467 C 0.17053 0.64294 0.98526 0.0
C3468 C 0.13545 0.62299 0.98128 0.0
C3469 C 0.11742 0.61442 0.96807 0.0
C3470 C 0.11167 0.62645 0.9575 0.0
C3471 C 0.09501 0.61831 0.94441 0.0
C3472 C 0.08388 0.59814 0.94197 0.0
C3473 C 0.08933 0.58608 0.95274 0.0
C3474 C 0.10601 0.59416 0.96582 0.0
C3475 C 0.14547 0.65841 0.06589 0.0
C3476 C 0.13673 0.6437 0.08164 0.0
C3477 C 0.15057 0.65451 0.04553 0.0
C3478 C 0.14673 0.63572 0.04035 0.0
C3479 C 0.13833 0.62098 0.05619 0.0
C3480 C 0.13362 0.62504 0.07691 0.0
C3481 C 0.15001 0.63169 0.01759 0.0
C3482 C 0.1337 0.62143 0.0041 0.0
C3483 C 0.16874 0.64181 0.00812 0.0
C3484 C 0.18645 0.65227 0.02187 0.0
C3485 C 0.18958 0.64275 0.03945 0.0
C3486 C 0.2061 0.65267 0.05259 0.0
C3487 C 0.21964 0.67213 0.04829 0.0
C3488 C 0.2167 0.6817 0.03083 0.0
C3489 C 0.2002 0.67184 0.01764 0.0
H3490 H 0.23241 0.67979 0.05849 0.0
H3491 H 0.07102 0.59186 0.93177 0.0
H3492 H 0.86855 0.49916 0.41335 0.0
H3493 H 0.8624 0.48633 0.45099 0.0
H3494 H 0.91154 0.53986 0.47355 0.0
H3495 H 0.91758 0.5526 0.43657 0.0
H3496 H 0.90974 0.50779 0.49327 0.0
H3497 H 0.86602 0.53336 0.47514 0.0
H3498 H 0.83922 0.53265 0.45397 0.0
H3499 H 0.80136 0.47333 0.47311 0.0
H3500 H 0.82805 0.47366 0.49419 0.0
H3501 H 0.9081 0.55501 0.58495 0.0
H3502 H 0.90596 0.54105 0.5491 0.0
H3503 H 0.85638 0.48714 0.56997 0.0
H3504 H 0.85862 0.50121 0.60661 0.0
H3505 H 0.85148 0.50289 0.52927 0.0
H3506 H 0.89443 0.48433 0.55921 0.0
H3507 H 0.92189 0.48789 0.58149 0.0
H3508 H 0.96191 0.53512 0.5409 0.0
H3509 H 0.9347 0.53212 0.51858 0.0
C3510 C 0.87813 0.508 0.42637 0.0
C3511 C 0.89341 0.52695 0.4221 0.0
C3512 C 0.87461 0.50068 0.44781 0.0
C3513 C 0.88651 0.51216 0.46508 0.0
C3514 C 0.90223 0.53069 0.46051 0.0
C3515 C 0.90557 0.53803 0.43935 0.0
C3516 C 0.88212 0.50615 0.4883 0.0
C3517 C 0.89687 0.50638 0.50118 0.0
C3518 C 0.86502 0.5036 0.49854 0.0
C3519 C 0.84905 0.50345 0.48595 0.0
C3520 C 0.85201 0.52013 0.47468 0.0
C3521 C 0.83685 0.51981 0.46273 0.0
C3522 C 0.81862 0.50293 0.46213 0.0
C3523 C 0.8155 0.48637 0.47353 0.0
C3524 C 0.83063 0.48661 0.48548 0.0
C3525 C 0.89679 0.54012 0.58207 0.0
C3526 C 0.88345 0.52922 0.59854 0.0
C3527 C 0.89568 0.5321 0.56158 0.0
C3528 C 0.88114 0.513 0.55692 0.0
C3529 C 0.8678 0.50187 0.57334 0.0
C3530 C 0.86911 0.50988 0.59418 0.0
C3531 C 0.87965 0.50578 0.53427 0.0
C3532 C 0.86387 0.50316 0.52145 0.0
C3533 C 0.89588 0.50624 0.52408 0.0
C3534 C 0.91245 0.50794 0.53715 0.0
C3535 C 0.90907 0.49552 0.55505 0.0
C3536 C 0.9246 0.49745 0.5677 0.0
C3537 C 0.94362 0.5117 0.56258 0.0
C3538 C 0.94716 0.52405 0.5448 0.0
C3539 C 0.93168 0.52221 0.5321 0.0
H3540 H 0.95561 0.51316 0.57239 0.0
H3541 H 0.80689 0.5027 0.45287 0.0
H3542 H 0.316 0.84072 0.41813 0.0
H3543 H 0.32649 0.8335 0.45235 0.0
H3544 H 0.38244 0.85011 0.42405 0.0
H3545 H 0.37213 0.85806 0.38964 0.0
H3546 H 0.34168 0.81351 0.47153 0.0
H3547 H 0.41391 0.87624 0.45582 0.0
H3548 H 0.43077 0.90392 0.43045 0.0
H3549 H 0.38145 0.91244 0.43097 0.0
H3550 H 0.3642 0.88453 0.45595 0.0
H3551 H 0.36848 0.84183 0.58482 0.0
H3552 H 0.37397 0.83425 0.54735 0.0
H3553 H 0.35833 0.87528 0.52203 0.0
H3554 H 0.35291 0.88283 0.55884 0.0
H3555 H 0.38983 0.87823 0.50089 0.0
H3556 H 0.32487 0.82711 0.52555 0.0
H3557 H 0.30333 0.79984 0.54967 0.0
H3558 H 0.33317 0.76936 0.53157 0.0
H3559 H 0.35502 0.79659 0.50751 0.0
C3560 C 0.3304 0.8424 0.41896 0.0
C3561 C 0.34343 0.85045 0.40142 0.0
C3562 C 0.33632 0.83805 0.43852 0.0
C3563 C 0.35541 0.84165 0.44096 0.0
C3564 C 0.36775 0.84754 0.42264 0.0
C3565 C 0.36183 0.85201 0.40297 0.0
C3566 C 0.36297 0.84306 0.46347 0.0
C3567 C 0.35272 0.82746 0.47793 0.0
C3568 C 0.3773 0.86124 0.4719 0.0
C3569 C 0.38787 0.87845 0.4577 0.0
C3570 C 0.40678 0.88415 0.45059 0.0
C3571 C 0.41635 0.89981 0.4362 0.0
C3572 C 0.40725 0.91002 0.42911 0.0
C3573 C 0.38851 0.90455 0.4364 0.0
C3574 C 0.37881 0.88879 0.45063 0.0
C3575 C 0.36642 0.84932 0.5712 0.0
C3576 C 0.36011 0.8628 0.57475 0.0
C3577 C 0.36957 0.845 0.54987 0.0
C3578 C 0.36662 0.85426 0.53192 0.0
C3579 C 0.36088 0.86809 0.53561 0.0
C3580 C 0.35761 0.87226 0.55672 0.0
C3581 C 0.36788 0.84892 0.50902 0.0
C3582 C 0.37978 0.86388 0.49452 0.0
C3583 C 0.35482 0.83024 0.50063 0.0
C3584 C 0.3417 0.81393 0.51501 0.0
C3585 C 0.3269 0.81464 0.52685 0.0
C3586 C 0.31463 0.7992 0.54048 0.0
C3587 C 0.31692 0.78291 0.54221 0.0
C3588 C 0.33145 0.78201 0.53026 0.0
C3589 C 0.34378 0.79744 0.51664 0.0
H3590 H 0.30741 0.77096 0.55277 0.0
H3591 H 0.41469 0.92213 0.41796 0.0
H3592 H 0.45749 0.35607 0.43111 0.0
H3593 H 0.47235 0.36612 0.46693 0.0
H3594 H 0.52264 0.36383 0.44444 0.0
H3595 H 0.50772 0.35391 0.40782 0.0
H3596 H 0.50451 0.34283 0.48537 0.0
H3597 H 0.5321 0.40625 0.45666 0.0
H3598 H 0.53306 0.43283 0.4349 0.0
H3599 H 0.48871 0.43232 0.47545 0.0
H3600 H 0.48722 0.40553 0.49725 0.0
H3601 H 0.50908 0.36153 0.60166 0.0
H3602 H 0.52323 0.36833 0.56457 0.0
H3603 H 0.47436 0.37273 0.54096 0.0
H3604 H 0.46032 0.36583 0.57738 0.0
H3605 H 0.50907 0.4005 0.52248 0.0
H3606 H 0.4737 0.32992 0.53873 0.0
H3607 H 0.4696 0.30142 0.55938 0.0
H3608 H 0.52738 0.31505 0.54156 0.0
H3609 H 0.53186 0.34377 0.521 0.0
C3610 C 0.47179 0.35783 0.43363 0.0
C3611 C 0.48142 0.35411 0.41672 0.0
C3612 C 0.48033 0.36371 0.45411 0.0
C3613 C 0.49866 0.36587 0.45829 0.0
C3614 C 0.50853 0.36236 0.44144 0.0
C3615 C 0.50005 0.35676 0.4206 0.0
C3616 C 0.5063 0.37057 0.48091 0.0
C3617 C 0.50634 0.3558 0.49344 0.0
C3618 C 0.50856 0.38744 0.49142 0.0
C3619 C 0.50959 0.40386 0.47865 0.0
C3620 C 0.5225 0.41175 0.46091 0.0
C3621 C 0.52313 0.42686 0.44855 0.0
C3622 C 0.51096 0.43427 0.45379 0.0
C3623 C 0.49816 0.4266 0.47144 0.0
C3624 C 0.49745 0.41148 0.48384 0.0
C3625 C 0.50166 0.36435 0.58855 0.0
C3626 C 0.48354 0.36298 0.59225 0.0
C3627 C 0.5097 0.36819 0.56743 0.0
C3628 C 0.49982 0.37101 0.54999 0.0
C3629 C 0.48231 0.37072 0.55413 0.0
C3630 C 0.47421 0.36662 0.57495 0.0
C3631 C 0.50606 0.37224 0.52691 0.0
C3632 C 0.50848 0.38808 0.51434 0.0
C3633 C 0.50594 0.35633 0.51636 0.0
C3634 C 0.50321 0.33908 0.52862 0.0
C3635 C 0.48556 0.3269 0.53936 0.0
C3636 C 0.48317 0.31071 0.55102 0.0
C3637 C 0.49825 0.30647 0.55185 0.0
C3638 C 0.51573 0.31838 0.54096 0.0
C3639 C 0.51821 0.33462 0.52931 0.0
H3640 H 0.49636 0.29392 0.56087 0.0
H3641 H 0.51145 0.44594 0.44418 0.0
H3642 H 0.11078 0.44688 0.42272 0.0
H3643 H 0.11305 0.46093 0.45859 0.0
H3644 H 0.15396 0.51781 0.43383 0.0
H3645 H 0.15148 0.50376 0.39717 0.0
H3646 H 0.16215 0.50123 0.478 0.0
H3647 H 0.11928 0.51874 0.44379 0.0
H3648 H 0.09241 0.5134 0.41928 0.0
H3649 H 0.0522 0.46534 0.45879 0.0
H3650 H 0.07888 0.47011 0.48329 0.0
H3651 H 0.14241 0.50712 0.5917 0.0
H3652 H 0.14911 0.51929 0.55382 0.0
H3653 H 0.09936 0.46598 0.53179 0.0
H3654 H 0.09266 0.45399 0.56904 0.0
H3655 H 0.1023 0.49647 0.50936 0.0
H3656 H 0.1454 0.47181 0.53285 0.0
H3657 H 0.17131 0.47289 0.55611 0.0
H3658 H 0.21006 0.53178 0.53613 0.0
H3659 H 0.18426 0.53108 0.51294 0.0
C3660 C 0.12035 0.46238 0.42476 0.0
C3661 C 0.13099 0.47421 0.40708 0.0
C3662 C 0.12156 0.47039 0.4453 0.0
C3663 C 0.13358 0.49037 0.44877 0.0
C3664 C 0.14457 0.50233 0.43136 0.0
C3665 C 0.14312 0.49431 0.41051 0.0
C3666 C 0.13417 0.49806 0.47092 0.0
C3667 C 0.14944 0.50103 0.48483 0.0
C3668 C 0.11743 0.49747 0.47973 0.0
C3669 C 0.10114 0.49479 0.46539 0.0
C3670 C 0.10473 0.50697 0.4472 0.0
C3671 C 0.08952 0.50404 0.4333 0.0
C3672 C 0.07061 0.48904 0.43747 0.0
C3673 C 0.06686 0.47697 0.45559 0.0
C3674 C 0.08202 0.47981 0.46952 0.0
C3675 C 0.13275 0.49824 0.57875 0.0
C3676 C 0.11717 0.47952 0.58326 0.0
C3677 C 0.13659 0.50517 0.55716 0.0
C3678 C 0.12479 0.49349 0.53993 0.0
C3679 C 0.10863 0.47531 0.54474 0.0
C3680 C 0.10491 0.46838 0.56609 0.0
C3681 C 0.12991 0.49873 0.5166 0.0
C3682 C 0.11556 0.49792 0.5025 0.0
C3683 C 0.14741 0.50111 0.50761 0.0
C3684 C 0.16288 0.50149 0.52144 0.0
C3685 C 0.15942 0.48502 0.53355 0.0
C3686 C 0.17407 0.48556 0.54669 0.0
C3687 C 0.1923 0.50242 0.54766 0.0
C3688 C 0.19592 0.51876 0.53542 0.0
C3689 C 0.18129 0.5183 0.52229 0.0
H3690 H 0.20363 0.50281 0.55784 0.0
H3691 H 0.05886 0.48679 0.42667 0.0
H3692 H 0.6403 0.15037 0.40564 0.0
H3693 H 0.63769 0.16168 0.44228 0.0
H3694 H 0.64278 0.11487 0.47116 0.0
H3695 H 0.64525 0.10359 0.43506 0.0
H3696 H 0.61726 0.12088 0.49366 0.0
H3697 H 0.68272 0.15958 0.46277 0.0
H3698 H 0.70594 0.1818 0.43529 0.0
H3699 H 0.68841 0.22383 0.44912 0.0
H3700 H 0.66489 0.2017 0.4765 0.0
H3701 H 0.69195 0.15874 0.57783 0.0
H3702 H 0.68403 0.16312 0.54062 0.0
H3703 H 0.6311 0.15994 0.5634 0.0
H3704 H 0.63894 0.15536 0.60088 0.0
H3705 H 0.67393 0.18443 0.51445 0.0
H3706 H 0.59533 0.12724 0.53017 0.0
H3707 H 0.57536 0.10339 0.55851 0.0
H3708 H 0.62353 0.09572 0.5757 0.0
H3709 H 0.64363 0.11925 0.54723 0.0
C3710 C 0.64044 0.14232 0.41985 0.0
C3711 C 0.6432 0.12625 0.41754 0.0
C3712 C 0.63899 0.1488 0.44073 0.0
C3713 C 0.64017 0.13919 0.45948 0.0
C3714 C 0.64175 0.12248 0.45699 0.0
C3715 C 0.64333 0.11614 0.4363 0.0
C3716 C 0.64188 0.14726 0.48178 0.0
C3717 C 0.62933 0.13501 0.49813 0.0
C3718 C 0.65771 0.16562 0.48772 0.0
C3719 C 0.67191 0.17893 0.47142 0.0
C3720 C 0.68374 0.17351 0.45983 0.0
C3721 C 0.69696 0.18608 0.44429 0.0
C3722 C 0.6986 0.20419 0.44041 0.0
C3723 C 0.68708 0.20978 0.45211 0.0
C3724 C 0.6738 0.19723 0.46762 0.0
C3725 C 0.67896 0.15966 0.57505 0.0
C3726 C 0.66588 0.15632 0.59216 0.0
C3727 C 0.67449 0.16229 0.55376 0.0
C3728 C 0.65679 0.16148 0.54917 0.0
C3729 C 0.64476 0.16043 0.56658 0.0
C3730 C 0.64928 0.15786 0.588 0.0
C3731 C 0.64963 0.15782 0.52629 0.0
C3732 C 0.66122 0.17079 0.50988 0.0
C3733 C 0.63319 0.1399 0.52029 0.0
C3734 C 0.62099 0.12513 0.53677 0.0
C3735 C 0.60159 0.12036 0.53992 0.0
C3736 C 0.59027 0.10692 0.55601 0.0
C3737 C 0.5982 0.0981 0.56894 0.0
C3738 C 0.61742 0.10258 0.5657 0.0
C3739 C 0.62876 0.11594 0.54958 0.0
H3740 H 0.58945 0.08776 0.58141 0.0
H3741 H 0.70884 0.2139 0.42838 0.0
H3742 H 0.5384 0.68448 0.56817 0.0
H3743 H 0.52384 0.68064 0.53236 0.0
H3744 H 0.47593 0.62481 0.55136 0.0
H3745 H 0.49069 0.62868 0.58786 0.0
H3746 H 0.49253 0.62357 0.51209 0.0
H3747 H 0.46591 0.66016 0.54031 0.0
H3748 H 0.46455 0.68586 0.56145 0.0
H3749 H 0.50882 0.7295 0.52063 0.0
H3750 H 0.5107 0.70411 0.49944 0.0
H3751 H 0.48286 0.63276 0.39718 0.0
H3752 H 0.47067 0.62901 0.43483 0.0
H3753 H 0.52266 0.68192 0.45314 0.0
H3754 H 0.53491 0.68557 0.41588 0.0
H3755 H 0.48892 0.67702 0.47446 0.0
H3756 H 0.52192 0.63984 0.457 0.0
H3757 H 0.52415 0.61459 0.43582 0.0
H3758 H 0.46682 0.57194 0.45689 0.0
H3759 H 0.46418 0.59704 0.47796 0.0
C3760 C 0.52462 0.67147 0.56492 0.0
C3761 C 0.51571 0.65683 0.58077 0.0
C3762 C 0.5162 0.66937 0.54445 0.0
C3763 C 0.49865 0.65256 0.53922 0.0
C3764 C 0.4894 0.63799 0.55515 0.0
C3765 C 0.49778 0.64022 0.57594 0.0
C3766 C 0.4915 0.64998 0.51636 0.0
C3767 C 0.49098 0.63486 0.50396 0.0
C3768 C 0.48953 0.66472 0.50569 0.0
C3769 C 0.48842 0.68017 0.51824 0.0
C3770 C 0.47543 0.67523 0.53588 0.0
C3771 C 0.47456 0.68976 0.54788 0.0
C3772 C 0.48658 0.7093 0.54238 0.0
C3773 C 0.49948 0.71435 0.52484 0.0
C3774 C 0.50042 0.69989 0.51279 0.0
C3775 C 0.49136 0.64388 0.40912 0.0
C3776 C 0.50988 0.6594 0.40373 0.0
C3777 C 0.48442 0.64168 0.4306 0.0
C3778 C 0.49584 0.65512 0.44679 0.0
C3779 C 0.51359 0.67142 0.4409 0.0
C3780 C 0.52062 0.67345 0.41963 0.0
C3781 C 0.49103 0.65126 0.47032 0.0
C3782 C 0.48943 0.66522 0.48276 0.0
C3783 C 0.49097 0.63544 0.48104 0.0
C3784 C 0.49276 0.62032 0.46881 0.0
C3785 C 0.50976 0.62509 0.45702 0.0
C3786 C 0.5111 0.61082 0.44504 0.0
C3787 C 0.49561 0.59168 0.44494 0.0
C3788 C 0.47879 0.58677 0.45693 0.0
C3789 C 0.47736 0.60101 0.46889 0.0
H3790 H 0.49666 0.58066 0.43563 0.0
H3791 H 0.4859 0.72052 0.55169 0.0
loop_
_geom_bond_atom_site_label_1
_geom_bond_atom_site_label_2
_geom_bond_distance
_geom_bond_site_symmetry_2
_ccdc_geom_bond_type
C0 C1 1.351 . S
C0 N3 1.368 . S
C0 H5 0.931 . S
C1 C0 1.351 . S
C1 N2 1.373 . S
C1 H29 0.930 . S
N2 C1 1.373 . S
N2 C4 1.340 . S
N3 C0 1.368 . S
N3 C4 1.321 . S
N3 Co6 2.135 . S
C4 N2 1.340 . S
C4 N3 1.321 . S
C4 H28 0.930 . S
H5 C0 0.931 . S
Co6 N3 2.135 . S
Co6 N9 2.121 . S
Co6 O14 2.055 . S
Co6 O17 2.039 . S
Co6 N20 2.140 . S
C7 O8 1.227 . S
C7 O17 1.265 . S
O8 C7 1.227 . S
N9 Co6 2.121 . S
N9 C11 1.375 . S
N9 C12 1.313 . S
C10 C11 1.338 . S
C10 N13 1.377 . S
C10 H30 0.930 . S
C11 N9 1.375 . S
C11 C10 1.338 . S
C11 H15 0.931 . S
C12 N9 1.313 . S
C12 N13 1.344 . S
C12 H16 0.930 . S
N13 C10 1.377 . S
N13 C12 1.344 . S
O14 Co6 2.055 . S
O14 C18 1.253 . S
H15 C11 0.931 . S
H16 C12 0.930 . S
O17 Co6 2.039 . S
O17 C7 1.265 . S
C18 O14 1.253 . S
C18 O19 1.227 . S
O19 C18 1.227 . S
N20 Co6 2.140 . S
N20 C23 1.346 . S
N20 C24 1.345 . S
C21 C22 1.387 . S
C21 C25 1.391 . S
C22 C21 1.387 . S
C22 C23 1.369 . S
C22 H31 0.929 . S
C23 N20 1.346 . S
C23 C22 1.369 . S
C23 H26 0.928 . S
C24 N20 1.345 . S
C24 C25 1.371 . S
C24 H27 0.931 . S
C25 C21 1.391 . S
C25 C24 1.371 . S
C25 H32 0.930 . S
H26 C23 0.928 . S
H27 C24 0.931 . S
H28 C4 0.930 . S
H29 C1 0.930 . S
H30 C10 0.930 . S
H31 C22 0.929 . S
H32 C25 0.930 . S
C33 C34 1.351 . S
C33 N36 1.368 . S
C33 H38 0.931 . S
C34 C33 1.351 . S
C34 N35 1.373 . S
C34 H62 0.930 . S
N35 C34 1.373 . S
N35 C37 1.340 . S
N36 C33 1.368 . S
N36 C37 1.321 . S
N36 Co39 2.135 . S
C37 N35 1.340 . S
C37 N36 1.321 . S
C37 H61 0.930 . S
H38 C33 0.931 . S
Co39 N36 2.135 . S
Co39 N42 2.121 . S
Co39 O47 2.055 . S
Co39 O50 2.039 . S
Co39 N53 2.140 . S
C40 O41 1.227 . S
C40 O50 1.265 . S
O41 C40 1.227 . S
N42 Co39 2.121 . S
N42 C44 1.375 . S
N42 C45 1.313 . S
C43 C44 1.338 . S
C43 N46 1.377 . S
C43 H63 0.930 . S
C44 N42 1.375 . S
C44 C43 1.338 . S
C44 H48 0.931 . S
C45 N42 1.313 . S
C45 N46 1.344 . S
C45 H49 0.930 . S
N46 C43 1.377 . S
N46 C45 1.344 . S
O47 Co39 2.055 . S
O47 C51 1.253 . S
H48 C44 0.931 . S
H49 C45 0.930 . S
O50 Co39 2.039 . S
O50 C40 1.265 . S
C51 O47 1.253 . S
C51 O52 1.227 . S
O52 C51 1.227 . S
N53 Co39 2.140 . S
N53 C56 1.346 . S
N53 C57 1.345 . S
C54 C55 1.387 . S
C54 C58 1.391 . S
C55 C54 1.387 . S
C55 C56 1.369 . S
C55 H64 0.929 . S
C56 N53 1.346 . S
C56 C55 1.369 . S
C56 H59 0.928 . S
C57 N53 1.345 . S
C57 C58 1.371 . S
C57 H60 0.931 . S
C58 C54 1.391 . S
C58 C57 1.371 . S
C58 H65 0.930 . S
H59 C56 0.928 . S
H60 C57 0.931 . S
H61 C37 0.930 . S
H62 C34 0.930 . S
H63 C43 0.930 . S
H64 C55 0.929 . S
H65 C58 0.930 . S
C66 C67 1.351 . S
C66 N69 1.368 . S
C66 H71 0.931 . S
C67 C66 1.351 . S
C67 N68 1.373 . S
C67 H95 0.930 . S
N68 C67 1.373 . S
N68 C70 1.340 . S
N69 C66 1.368 . S
N69 C70 1.321 . S
N69 Co72 2.135 . S
C70 N68 1.340 . S
C70 N69 1.321 . S
C70 H94 0.930 . S
H71 C66 0.931 . S
Co72 N69 2.135 . S
Co72 N75 2.121 . S
Co72 O80 2.055 . S
Co72 O83 2.039 . S
Co72 N86 2.140 . S
C73 O74 1.227 . S
C73 O83 1.265 . S
O74 C73 1.227 . S
N75 Co72 2.121 . S
N75 C77 1.375 . S
N75 C78 1.313 . S
C76 C77 1.338 . S
C76 N79 1.377 . S
C76 H96 0.930 . S
C77 N75 1.375 . S
C77 C76 1.338 . S
C77 H81 0.931 . S
C78 N75 1.313 . S
C78 N79 1.344 . S
C78 H82 0.930 . S
N79 C76 1.377 . S
N79 C78 1.344 . S
O80 Co72 2.055 . S
O80 C84 1.253 . S
H81 C77 0.931 . S
H82 C78 0.930 . S
O83 Co72 2.039 . S
O83 C73 1.265 . S
C84 O80 1.253 . S
C84 O85 1.227 . S
O85 C84 1.227 . S
N86 Co72 2.140 . S
N86 C89 1.346 . S
N86 C90 1.345 . S
C87 C88 1.387 . S
C87 C91 1.391 . S
C88 C87 1.387 . S
C88 C89 1.369 . S
C88 H97 0.929 . S
C89 N86 1.346 . S
C89 C88 1.369 . S
C89 H92 0.928 . S
C90 N86 1.345 . S
C90 C91 1.371 . S
C90 H93 0.931 . S
C91 C87 1.391 . S
C91 C90 1.371 . S
C91 H98 0.930 . S
H92 C89 0.928 . S
H93 C90 0.931 . S
H94 C70 0.930 . S
H95 C67 0.930 . S
H96 C76 0.930 . S
H97 C88 0.929 . S
H98 C91 0.930 . S
C99 C100 1.351 . S
C99 N102 1.368 . S
C99 H104 0.931 . S
C100 C99 1.351 . S
C100 N101 1.373 . S
C100 H128 0.930 . S
N101 C100 1.373 . S
N101 C103 1.340 . S
N102 C99 1.368 . S
N102 C103 1.321 . S
N102 Co105 2.135 . S
C103 N101 1.340 . S
C103 N102 1.321 . S
C103 H127 0.930 . S
H104 C99 0.931 . S
Co105 N102 2.135 . S
Co105 N108 2.121 . S
Co105 O113 2.055 . S
Co105 O116 2.039 . S
Co105 N119 2.140 . S
C106 O107 1.227 . S
C106 O116 1.265 . S
O107 C106 1.227 . S
N108 Co105 2.121 . S
N108 C110 1.375 . S
N108 C111 1.313 . S
C109 C110 1.338 . S
C109 N112 1.377 . S
C109 H129 0.930 . S
C110 N108 1.375 . S
C110 C109 1.338 . S
C110 H114 0.931 . S
C111 N108 1.313 . S
C111 N112 1.344 . S
C111 H115 0.930 . S
N112 C109 1.377 . S
N112 C111 1.344 . S
O113 Co105 2.055 . S
O113 C117 1.253 . S
H114 C110 0.931 . S
H115 C111 0.930 . S
O116 Co105 2.039 . S
O116 C106 1.265 . S
C117 O113 1.253 . S
C117 O118 1.227 . S
O118 C117 1.227 . S
N119 Co105 2.140 . S
N119 C122 1.346 . S
N119 C123 1.345 . S
C120 C121 1.387 . S
C120 C124 1.391 . S
C121 C120 1.387 . S
C121 C122 1.369 . S
C121 H130 0.929 . S
C122 N119 1.346 . S
C122 C121 1.369 . S
C122 H125 0.928 . S
C123 N119 1.345 . S
C123 C124 1.371 . S
C123 H126 0.931 . S
C124 C120 1.391 . S
C124 C123 1.371 . S
C124 H131 0.930 . S
H125 C122 0.928 . S
H126 C123 0.931 . S
H127 C103 0.930 . S
H128 C100 0.930 . S
H129 C109 0.930 . S
H130 C121 0.929 . S
H131 C124 0.930 . S
C132 C133 1.351 . S
C132 N135 1.368 . S
C132 H137 0.931 . S
C133 C132 1.351 . S
C133 N134 1.373 . S
C133 H161 0.930 . S
N134 C133 1.373 . S
N134 C136 1.340 . S
N135 C132 1.368 . S
N135 C136 1.321 . S
N135 Co138 2.135 . S
C136 N134 1.340 . S
C136 N135 1.321 . S
C136 H160 0.930 . S
H137 C132 0.931 . S
Co138 N135 2.135 . S
Co138 N141 2.121 . S
Co138 O146 2.055 . S
Co138 O149 2.039 . S
Co138 N152 2.140 . S
C139 O140 1.227 . S
C139 O149 1.265 . S
O140 C139 1.227 . S
N141 Co138 2.121 . S
N141 C143 1.375 . S
N141 C144 1.313 . S
C142 C143 1.338 . S
C142 N145 1.377 . S
C142 H162 0.930 . S
C143 N141 1.375 . S
C143 C142 1.338 . S
C143 H147 0.931 . S
C144 N141 1.313 . S
C144 N145 1.344 . S
C144 H148 0.930 . S
N145 C142 1.377 . S
N145 C144 1.344 . S
O146 Co138 2.055 . S
O146 C150 1.253 . S
H147 C143 0.931 . S
H148 C144 0.930 . S
O149 Co138 2.039 . S
O149 C139 1.265 . S
C150 O146 1.253 . S
C150 O151 1.227 . S
O151 C150 1.227 . S
N152 Co138 2.140 . S
N152 C155 1.346 . S
N152 C156 1.345 . S
C153 C154 1.387 . S
C153 C157 1.391 . S
C154 C153 1.387 . S
C154 C155 1.369 . S
C154 H163 0.929 . S
C155 N152 1.346 . S
C155 C154 1.369 . S
C155 H158 0.928 . S
C156 N152 1.345 . S
C156 C157 1.371 . S
C156 H159 0.931 . S
C157 C153 1.391 . S
C157 C156 1.371 . S
C157 H164 0.930 . S
H158 C155 0.928 . S
H159 C156 0.931 . S
H160 C136 0.930 . S
H161 C133 0.930 . S
H162 C142 0.930 . S
H163 C154 0.929 . S
H164 C157 0.930 . S
C165 C166 1.351 . S
C165 N168 1.368 . S
C165 H170 0.931 . S
C166 C165 1.351 . S
C166 N167 1.373 . S
C166 H194 0.930 . S
N167 C166 1.373 . S
N167 C169 1.340 . S
N168 C165 1.368 . S
N168 C169 1.321 . S
N168 Co171 2.135 . S
C169 N167 1.340 . S
C169 N168 1.321 . S
C169 H193 0.930 . S
H170 C165 0.931 . S
Co171 N168 2.135 . S
Co171 N174 2.121 . S
Co171 O179 2.055 . S
Co171 O182 2.039 . S
Co171 N185 2.140 . S
C172 O173 1.227 . S
C172 O182 1.265 . S
O173 C172 1.227 . S
N174 Co171 2.121 . S
N174 C176 1.375 . S
N174 C177 1.313 . S
C175 C176 1.338 . S
C175 N178 1.377 . S
C175 H195 0.930 . S
C176 N174 1.375 . S
C176 C175 1.338 . S
C176 H180 0.931 . S
C177 N174 1.313 . S
C177 N178 1.344 . S
C177 H181 0.930 . S
N178 C175 1.377 . S
N178 C177 1.344 . S
O179 Co171 2.055 . S
O179 C183 1.253 . S
H180 C176 0.931 . S
H181 C177 0.930 . S
O182 Co171 2.039 . S
O182 C172 1.265 . S
C183 O179 1.253 . S
C183 O184 1.227 . S
O184 C183 1.227 . S
N185 Co171 2.140 . S
N185 C188 1.346 . S
N185 C189 1.345 . S
C186 C187 1.387 . S
C186 C190 1.391 . S
C187 C186 1.387 . S
C187 C188 1.369 . S
C187 H196 0.929 . S
C188 N185 1.346 . S
C188 C187 1.369 . S
C188 H191 0.928 . S
C189 N185 1.345 . S
C189 C190 1.371 . S
C189 H192 0.931 . S
C190 C186 1.391 . S
C190 C189 1.371 . S
C190 H197 0.930 . S
H191 C188 0.928 . S
H192 C189 0.931 . S
H193 C169 0.930 . S
H194 C166 0.930 . S
H195 C175 0.930 . S
H196 C187 0.929 . S
H197 C190 0.930 . S
C198 C199 1.351 . S
C198 N201 1.368 . S
C198 H203 0.931 . S
C199 C198 1.351 . S
C199 N200 1.373 . S
C199 H227 0.930 . S
N200 C199 1.373 . S
N200 C202 1.340 . S
N201 C198 1.368 . S
N201 C202 1.321 . S
N201 Co204 2.135 . S
C202 N200 1.340 . S
C202 N201 1.321 . S
C202 H226 0.930 . S
H203 C198 0.931 . S
Co204 N201 2.135 . S
Co204 N207 2.121 . S
Co204 O212 2.055 . S
Co204 O215 2.039 . S
Co204 N218 2.140 . S
C205 O206 1.227 . S
C205 O215 1.265 . S
O206 C205 1.227 . S
N207 Co204 2.121 . S
N207 C209 1.375 . S
N207 C210 1.313 . S
C208 C209 1.338 . S
C208 N211 1.377 . S
C208 H228 0.930 . S
C209 N207 1.375 . S
C209 C208 1.338 . S
C209 H213 0.931 . S
C210 N207 1.313 . S
C210 N211 1.344 . S
C210 H214 0.930 . S
N211 C208 1.377 . S
N211 C210 1.344 . S
O212 Co204 2.055 . S
O212 C216 1.253 . S
H213 C209 0.931 . S
H214 C210 0.930 . S
O215 Co204 2.039 . S
O215 C205 1.265 . S
C216 O212 1.253 . S
C216 O217 1.227 . S
O217 C216 1.227 . S
N218 Co204 2.140 . S
N218 C221 1.346 . S
N218 C222 1.345 . S
C219 C220 1.387 . S
C219 C223 1.391 . S
C220 C219 1.387 . S
C220 C221 1.369 . S
C220 H229 0.929 . S
C221 N218 1.346 . S
C221 C220 1.369 . S
C221 H224 0.928 . S
C222 N218 1.345 . S
C222 C223 1.371 . S
C222 H225 0.931 . S
C223 C219 1.391 . S
C223 C222 1.371 . S
C223 H230 0.930 . S
H224 C221 0.928 . S
H225 C222 0.931 . S
H226 C202 0.930 . S
H227 C199 0.930 . S
H228 C208 0.930 . S
H229 C220 0.929 . S
H230 C223 0.930 . S
C231 C232 1.351 . S
C231 N234 1.368 . S
C231 H236 0.931 . S
C232 C231 1.351 . S
C232 N233 1.373 . S
C232 H260 0.930 . S
N233 C232 1.373 . S
N233 C235 1.340 . S
N234 C231 1.368 . S
N234 C235 1.321 . S
N234 Co237 2.135 . S
C235 N233 1.340 . S
C235 N234 1.321 . S
C235 H259 0.930 . S
H236 C231 0.931 . S
Co237 N234 2.135 . S
Co237 N240 2.121 . S
Co237 O245 2.055 . S
Co237 O248 2.039 . S
Co237 N251 2.140 . S
C238 O239 1.227 . S
C238 O248 1.265 . S
O239 C238 1.227 . S
N240 Co237 2.121 . S
N240 C242 1.375 . S
N240 C243 1.313 . S
C241 C242 1.338 . S
C241 N244 1.377 . S
C241 H261 0.930 . S
C242 N240 1.375 . S
C242 C241 1.338 . S
C242 H246 0.931 . S
C243 N240 1.313 . S
C243 N244 1.344 . S
C243 H247 0.930 . S
N244 C241 1.377 . S
N244 C243 1.344 . S
O245 Co237 2.055 . S
O245 C249 1.253 . S
H246 C242 0.931 . S
H247 C243 0.930 . S
O248 Co237 2.039 . S
O248 C238 1.265 . S
C249 O245 1.253 . S
C249 O250 1.227 . S
O250 C249 1.227 . S
N251 Co237 2.140 . S
N251 C254 1.346 . S
N251 C255 1.345 . S
C252 C253 1.387 . S
C252 C256 1.391 . S
C253 C252 1.387 . S
C253 C254 1.369 . S
C253 H262 0.929 . S
C254 N251 1.346 . S
C254 C253 1.369 . S
C254 H257 0.928 . S
C255 N251 1.345 . S
C255 C256 1.371 . S
C255 H258 0.931 . S
C256 C252 1.391 . S
C256 C255 1.371 . S
C256 H263 0.930 . S
H257 C254 0.928 . S
H258 C255 0.931 . S
H259 C235 0.930 . S
H260 C232 0.930 . S
H261 C241 0.930 . S
H262 C253 0.929 . S
H263 C256 0.930 . S
C264 C265 1.351 . S
C264 N267 1.368 . S
C264 H269 0.931 . S
C265 C264 1.351 . S
C265 N266 1.373 . S
C265 H293 0.930 . S
N266 C265 1.373 . S
N266 C268 1.340 . S
N267 C264 1.368 . S
N267 C268 1.321 . S
N267 Co270 2.135 . S
C268 N266 1.340 . S
C268 N267 1.321 . S
C268 H292 0.930 . S
H269 C264 0.931 . S
Co270 N267 2.135 . S
Co270 N273 2.121 . S
Co270 O278 2.055 . S
Co270 O281 2.039 . S
Co270 N284 2.140 . S
C271 O272 1.227 . S
C271 O281 1.265 . S
O272 C271 1.227 . S
N273 Co270 2.121 . S
N273 C275 1.375 . S
N273 C276 1.313 . S
C274 C275 1.338 . S
C274 N277 1.377 . S
C274 H294 0.930 . S
C275 N273 1.375 . S
C275 C274 1.338 . S
C275 H279 0.931 . S
C276 N273 1.313 . S
C276 N277 1.344 . S
C276 H280 0.930 . S
N277 C274 1.377 . S
N277 C276 1.344 . S
O278 Co270 2.055 . S
O278 C282 1.253 . S
H279 C275 0.931 . S
H280 C276 0.930 . S
O281 Co270 2.039 . S
O281 C271 1.265 . S
C282 O278 1.253 . S
C282 O283 1.227 . S
O283 C282 1.227 . S
N284 Co270 2.140 . S
N284 C287 1.346 . S
N284 C288 1.345 . S
C285 C286 1.387 . S
C285 C289 1.391 . S
C286 C285 1.387 . S
C286 C287 1.369 . S
C286 H295 0.929 . S
C287 N284 1.346 . S
C287 C286 1.369 . S
C287 H290 0.928 . S
C288 N284 1.345 . S
C288 C289 1.371 . S
C288 H291 0.931 . S
C289 C285 1.391 . S
C289 C288 1.371 . S
C289 H296 0.930 . S
H290 C287 0.928 . S
H291 C288 0.931 . S
H292 C268 0.930 . S
H293 C265 0.930 . S
H294 C274 0.930 . S
H295 C286 0.929 . S
H296 C289 0.930 . S
C297 C298 1.351 . S
C297 N300 1.368 . S
C297 H302 0.931 . S
C298 C297 1.351 . S
C298 N299 1.373 . S
C298 H326 0.930 . S
N299 C298 1.373 . S
N299 C301 1.340 . S
N300 C297 1.368 . S
N300 C301 1.321 . S
N300 Co303 2.135 . S
C301 N299 1.340 . S
C301 N300 1.321 . S
C301 H325 0.930 . S
H302 C297 0.931 . S
Co303 N300 2.135 . S
Co303 N306 2.121 . S
Co303 O311 2.055 . S
Co303 O314 2.039 . S
Co303 N317 2.140 . S
C304 O305 1.227 . S
C304 O314 1.265 . S
O305 C304 1.227 . S
N306 Co303 2.121 . S
N306 C308 1.375 . S
N306 C309 1.313 . S
C307 C308 1.338 . S
C307 N310 1.377 . S
C307 H327 0.930 . S
C308 N306 1.375 . S
C308 C307 1.338 . S
C308 H312 0.931 . S
C309 N306 1.313 . S
C309 N310 1.344 . S
C309 H313 0.930 . S
N310 C307 1.377 . S
N310 C309 1.344 . S
O311 Co303 2.055 . S
O311 C315 1.253 . S
H312 C308 0.931 . S
H313 C309 0.930 . S
O314 Co303 2.039 . S
O314 C304 1.265 . S
C315 O311 1.253 . S
C315 O316 1.227 . S
O316 C315 1.227 . S
N317 Co303 2.140 . S
N317 C320 1.346 . S
N317 C321 1.345 . S
C318 C319 1.387 . S
C318 C322 1.391 . S
C319 C318 1.387 . S
C319 C320 1.369 . S
C319 H328 0.929 . S
C320 N317 1.346 . S
C320 C319 1.369 . S
C320 H323 0.928 . S
C321 N317 1.345 . S
C321 C322 1.371 . S
C321 H324 0.931 . S
C322 C318 1.391 . S
C322 C321 1.371 . S
C322 H329 0.930 . S
H323 C320 0.928 . S
H324 C321 0.931 . S
H325 C301 0.930 . S
H326 C298 0.930 . S
H327 C307 0.930 . S
H328 C319 0.929 . S
H329 C322 0.930 . S
C330 C331 1.351 . S
C330 N333 1.368 . S
C330 H335 0.931 . S
C331 C330 1.351 . S
C331 N332 1.373 . S
C331 H359 0.930 . S
N332 C331 1.373 . S
N332 C334 1.340 . S
N333 C330 1.368 . S
N333 C334 1.321 . S
N333 Co336 2.135 . S
C334 N332 1.340 . S
C334 N333 1.321 . S
C334 H358 0.930 . S
H335 C330 0.931 . S
Co336 N333 2.135 . S
Co336 N339 2.121 . S
Co336 O344 2.055 . S
Co336 O347 2.039 . S
Co336 N350 2.140 . S
C337 O338 1.227 . S
C337 O347 1.265 . S
O338 C337 1.227 . S
N339 Co336 2.121 . S
N339 C341 1.375 . S
N339 C342 1.313 . S
C340 C341 1.338 . S
C340 N343 1.377 . S
C340 H360 0.930 . S
C341 N339 1.375 . S
C341 C340 1.338 . S
C341 H345 0.931 . S
C342 N339 1.313 . S
C342 N343 1.344 . S
C342 H346 0.930 . S
N343 C340 1.377 . S
N343 C342 1.344 . S
O344 Co336 2.055 . S
O344 C348 1.253 . S
H345 C341 0.931 . S
H346 C342 0.930 . S
O347 Co336 2.039 . S
O347 C337 1.265 . S
C348 O344 1.253 . S
C348 O349 1.227 . S
O349 C348 1.227 . S
N350 Co336 2.140 . S
N350 C353 1.346 . S
N350 C354 1.345 . S
C351 C352 1.387 . S
C351 C355 1.391 . S
C352 C351 1.387 . S
C352 C353 1.369 . S
C352 H361 0.929 . S
C353 N350 1.346 . S
C353 C352 1.369 . S
C353 H356 0.928 . S
C354 N350 1.345 . S
C354 C355 1.371 . S
C354 H357 0.931 . S
C355 C351 1.391 . S
C355 C354 1.371 . S
C355 H362 0.930 . S
H356 C353 0.928 . S
H357 C354 0.931 . S
H358 C334 0.930 . S
H359 C331 0.930 . S
H360 C340 0.930 . S
H361 C352 0.929 . S
H362 C355 0.930 . S
C363 C364 1.351 . S
C363 N366 1.368 . S
C363 H368 0.931 . S
C364 C363 1.351 . S
C364 N365 1.373 . S
C364 H392 0.930 . S
N365 C364 1.373 . S
N365 C367 1.340 . S
N366 C363 1.368 . S
N366 C367 1.321 . S
N366 Co369 2.135 . S
C367 N365 1.340 . S
C367 N366 1.321 . S
C367 H391 0.930 . S
H368 C363 0.931 . S
Co369 N366 2.135 . S
Co369 N372 2.121 . S
Co369 O377 2.055 . S
Co369 O380 2.039 . S
Co369 N383 2.140 . S
C370 O371 1.227 . S
C370 O380 1.265 . S
O371 C370 1.227 . S
N372 Co369 2.121 . S
N372 C374 1.375 . S
N372 C375 1.313 . S
C373 C374 1.338 . S
C373 N376 1.377 . S
C373 H393 0.930 . S
C374 N372 1.375 . S
C374 C373 1.338 . S
C374 H378 0.931 . S
C375 N372 1.313 . S
C375 N376 1.344 . S
C375 H379 0.930 . S
N376 C373 1.377 . S
N376 C375 1.344 . S
O377 Co369 2.055 . S
O377 C381 1.253 . S
H378 C374 0.931 . S
H379 C375 0.930 . S
O380 Co369 2.039 . S
O380 C370 1.265 . S
C381 O377 1.253 . S
C381 O382 1.227 . S
O382 C381 1.227 . S
N383 Co369 2.140 . S
N383 C386 1.346 . S
N383 C387 1.345 . S
C384 C385 1.387 . S
C384 C388 1.391 . S
C385 C384 1.387 . S
C385 C386 1.369 . S
C385 H394 0.929 . S
C386 N383 1.346 . S
C386 C385 1.369 . S
C386 H389 0.928 . S
C387 N383 1.345 . S
C387 C388 1.371 . S
C387 H390 0.931 . S
C388 C384 1.391 . S
C388 C387 1.371 . S
C388 H395 0.930 . S
H389 C386 0.928 . S
H390 C387 0.931 . S
H391 C367 0.930 . S
H392 C364 0.930 . S
H393 C373 0.930 . S
H394 C385 0.929 . S
H395 C388 0.930 . S
C396 C397 1.351 . S
C396 N399 1.368 . S
C396 H401 0.931 . S
C397 C396 1.351 . S
C397 N398 1.373 . S
C397 H425 0.930 . S
N398 C397 1.373 . S
N398 C400 1.340 . S
N399 C396 1.368 . S
N399 C400 1.321 . S
N399 Co402 2.135 . S
C400 N398 1.340 . S
C400 N399 1.321 . S
C400 H424 0.930 . S
H401 C396 0.931 . S
Co402 N399 2.135 . S
Co402 N405 2.121 . S
Co402 O410 2.055 . S
Co402 O413 2.039 . S
Co402 N416 2.140 . S
C403 O404 1.227 . S
C403 O413 1.265 . S
O404 C403 1.227 . S
N405 Co402 2.121 . S
N405 C407 1.375 . S
N405 C408 1.313 . S
C406 C407 1.338 . S
C406 N409 1.377 . S
C406 H426 0.930 . S
C407 N405 1.375 . S
C407 C406 1.338 . S
C407 H411 0.931 . S
C408 N405 1.313 . S
C408 N409 1.344 . S
C408 H412 0.930 . S
N409 C406 1.377 . S
N409 C408 1.344 . S
O410 Co402 2.055 . S
O410 C414 1.253 . S
H411 C407 0.931 . S
H412 C408 0.930 . S
O413 Co402 2.039 . S
O413 C403 1.265 . S
C414 O410 1.253 . S
C414 O415 1.227 . S
O415 C414 1.227 . S
N416 Co402 2.140 . S
N416 C419 1.346 . S
N416 C420 1.345 . S
C417 C418 1.387 . S
C417 C421 1.391 . S
C418 C417 1.387 . S
C418 C419 1.369 . S
C418 H427 0.929 . S
C419 N416 1.346 . S
C419 C418 1.369 . S
C419 H422 0.928 . S
C420 N416 1.345 . S
C420 C421 1.371 . S
C420 H423 0.931 . S
C421 C417 1.391 . S
C421 C420 1.371 . S
C421 H428 0.930 . S
H422 C419 0.928 . S
H423 C420 0.931 . S
H424 C400 0.930 . S
H425 C397 0.930 . S
H426 C406 0.930 . S
H427 C418 0.929 . S
H428 C421 0.930 . S
C429 C430 1.351 . S
C429 N432 1.368 . S
C429 H434 0.931 . S
C430 C429 1.351 . S
C430 N431 1.373 . S
C430 H458 0.930 . S
N431 C430 1.373 . S
N431 C433 1.340 . S
N432 C429 1.368 . S
N432 C433 1.321 . S
N432 Co435 2.135 . S
C433 N431 1.340 . S
C433 N432 1.321 . S
C433 H457 0.930 . S
H434 C429 0.931 . S
Co435 N432 2.135 . S
Co435 N438 2.121 . S
Co435 O443 2.055 . S
Co435 O446 2.039 . S
Co435 N449 2.140 . S
C436 O437 1.227 . S
C436 O446 1.265 . S
O437 C436 1.227 . S
N438 Co435 2.121 . S
N438 C440 1.375 . S
N438 C441 1.313 . S
C439 C440 1.338 . S
C439 N442 1.377 . S
C439 H459 0.930 . S
C440 N438 1.375 . S
C440 C439 1.338 . S
C440 H444 0.931 . S
C441 N438 1.313 . S
C441 N442 1.344 . S
C441 H445 0.930 . S
N442 C439 1.377 . S
N442 C441 1.344 . S
O443 Co435 2.055 . S
O443 C447 1.253 . S
H444 C440 0.931 . S
H445 C441 0.930 . S
O446 Co435 2.039 . S
O446 C436 1.265 . S
C447 O443 1.253 . S
C447 O448 1.227 . S
O448 C447 1.227 . S
N449 Co435 2.140 . S
N449 C452 1.346 . S
N449 C453 1.345 . S
C450 C451 1.387 . S
C450 C454 1.391 . S
C451 C450 1.387 . S
C451 C452 1.369 . S
C451 H460 0.929 . S
C452 N449 1.346 . S
C452 C451 1.369 . S
C452 H455 0.928 . S
C453 N449 1.345 . S
C453 C454 1.371 . S
C453 H456 0.931 . S
C454 C450 1.391 . S
C454 C453 1.371 . S
C454 H461 0.930 . S
H455 C452 0.928 . S
H456 C453 0.931 . S
H457 C433 0.930 . S
H458 C430 0.930 . S
H459 C439 0.930 . S
H460 C451 0.929 . S
H461 C454 0.930 . S
C462 C463 1.351 . S
C462 N465 1.368 . S
C462 H467 0.931 . S
C463 C462 1.351 . S
C463 N464 1.373 . S
C463 H491 0.930 . S
N464 C463 1.373 . S
N464 C466 1.340 . S
N465 C462 1.368 . S
N465 C466 1.321 . S
N465 Co468 2.135 . S
C466 N464 1.340 . S
C466 N465 1.321 . S
C466 H490 0.930 . S
H467 C462 0.931 . S
Co468 N465 2.135 . S
Co468 N471 2.121 . S
Co468 O476 2.055 . S
Co468 O479 2.039 . S
Co468 N482 2.140 . S
C469 O470 1.227 . S
C469 O479 1.265 . S
O470 C469 1.227 . S
N471 Co468 2.121 . S
N471 C473 1.375 . S
N471 C474 1.313 . S
C472 C473 1.338 . S
C472 N475 1.377 . S
C472 H492 0.930 . S
C473 N471 1.375 . S
C473 C472 1.338 . S
C473 H477 0.931 . S
C474 N471 1.313 . S
C474 N475 1.344 . S
C474 H478 0.930 . S
N475 C472 1.377 . S
N475 C474 1.344 . S
O476 Co468 2.055 . S
O476 C480 1.253 . S
H477 C473 0.931 . S
H478 C474 0.930 . S
O479 Co468 2.039 . S
O479 C469 1.265 . S
C480 O476 1.253 . S
C480 O481 1.227 . S
O481 C480 1.227 . S
N482 Co468 2.140 . S
N482 C485 1.346 . S
N482 C486 1.345 . S
C483 C484 1.387 . S
C483 C487 1.391 . S
C484 C483 1.387 . S
C484 C485 1.369 . S
C484 H493 0.929 . S
C485 N482 1.346 . S
C485 C484 1.369 . S
C485 H488 0.928 . S
C486 N482 1.345 . S
C486 C487 1.371 . S
C486 H489 0.931 . S
C487 C483 1.391 . S
C487 C486 1.371 . S
C487 H494 0.930 . S
H488 C485 0.928 . S
H489 C486 0.931 . S
H490 C466 0.930 . S
H491 C463 0.930 . S
H492 C472 0.930 . S
H493 C484 0.929 . S
H494 C487 0.930 . S
C495 C496 1.351 . S
C495 N498 1.368 . S
C495 H500 0.931 . S
C496 C495 1.351 . S
C496 N497 1.373 . S
C496 H524 0.930 . S
N497 C496 1.373 . S
N497 C499 1.340 . S
N498 C495 1.368 . S
N498 C499 1.321 . S
N498 Co501 2.135 . S
C499 N497 1.340 . S
C499 N498 1.321 . S
C499 H523 0.930 . S
H500 C495 0.931 . S
Co501 N498 2.135 . S
Co501 N504 2.121 . S
Co501 O509 2.055 . S
Co501 O512 2.039 . S
Co501 N515 2.140 . S
C502 O503 1.227 . S
C502 O512 1.265 . S
O503 C502 1.227 . S
N504 Co501 2.121 . S
N504 C506 1.375 . S
N504 C507 1.313 . S
C505 C506 1.338 . S
C505 N508 1.377 . S
C505 H525 0.930 . S
C506 N504 1.375 . S
C506 C505 1.338 . S
C506 H510 0.931 . S
C507 N504 1.313 . S
C507 N508 1.344 . S
C507 H511 0.930 . S
N508 C505 1.377 . S
N508 C507 1.344 . S
O509 Co501 2.055 . S
O509 C513 1.253 . S
H510 C506 0.931 . S
H511 C507 0.930 . S
O512 Co501 2.039 . S
O512 C502 1.265 . S
C513 O509 1.253 . S
C513 O514 1.227 . S
O514 C513 1.227 . S
N515 Co501 2.140 . S
N515 C518 1.346 . S
N515 C519 1.345 . S
C516 C517 1.387 . S
C516 C520 1.391 . S
C517 C516 1.387 . S
C517 C518 1.369 . S
C517 H526 0.929 . S
C518 N515 1.346 . S
C518 C517 1.369 . S
C518 H521 0.928 . S
C519 N515 1.345 . S
C519 C520 1.371 . S
C519 H522 0.931 . S
C520 C516 1.391 . S
C520 C519 1.371 . S
C520 H527 0.930 . S
H521 C518 0.928 . S
H522 C519 0.931 . S
H523 C499 0.930 . S
H524 C496 0.930 . S
H525 C505 0.930 . S
H526 C517 0.929 . S
H527 C520 0.930 . S
C528 C529 1.351 . S
C528 N531 1.368 . S
C528 H533 0.931 . S
C529 C528 1.351 . S
C529 N530 1.373 . S
C529 H557 0.930 . S
N530 C529 1.373 . S
N530 C532 1.340 . S
N531 C528 1.368 . S
N531 C532 1.321 . S
N531 Co534 2.135 . S
C532 N530 1.340 . S
C532 N531 1.321 . S
C532 H556 0.930 . S
H533 C528 0.931 . S
Co534 N531 2.135 . S
Co534 N537 2.121 . S
Co534 O542 2.055 . S
Co534 O545 2.039 . S
Co534 N548 2.140 . S
C535 O536 1.227 . S
C535 O545 1.265 . S
O536 C535 1.227 . S
N537 Co534 2.121 . S
N537 C539 1.375 . S
N537 C540 1.313 . S
C538 C539 1.338 . S
C538 N541 1.377 . S
C538 H558 0.930 . S
C539 N537 1.375 . S
C539 C538 1.338 . S
C539 H543 0.931 . S
C540 N537 1.313 . S
C540 N541 1.344 . S
C540 H544 0.930 . S
N541 C538 1.377 . S
N541 C540 1.344 . S
O542 Co534 2.055 . S
O542 C546 1.253 . S
H543 C539 0.931 . S
H544 C540 0.930 . S
O545 Co534 2.039 . S
O545 C535 1.265 . S
C546 O542 1.253 . S
C546 O547 1.227 . S
O547 C546 1.227 . S
N548 Co534 2.140 . S
N548 C551 1.346 . S
N548 C552 1.345 . S
C549 C550 1.387 . S
C549 C553 1.391 . S
C550 C549 1.387 . S
C550 C551 1.369 . S
C550 H559 0.929 . S
C551 N548 1.346 . S
C551 C550 1.369 . S
C551 H554 0.928 . S
C552 N548 1.345 . S
C552 C553 1.371 . S
C552 H555 0.931 . S
C553 C549 1.391 . S
C553 C552 1.371 . S
C553 H560 0.930 . S
H554 C551 0.928 . S
H555 C552 0.931 . S
H556 C532 0.930 . S
H557 C529 0.930 . S
H558 C538 0.930 . S
H559 C550 0.929 . S
H560 C553 0.930 . S
C561 C562 1.351 . S
C561 N564 1.368 . S
C561 H566 0.931 . S
C562 C561 1.351 . S
C562 N563 1.373 . S
C562 H590 0.930 . S
N563 C562 1.373 . S
N563 C565 1.340 . S
N564 C561 1.368 . S
N564 C565 1.321 . S
N564 Co567 2.135 . S
C565 N563 1.340 . S
C565 N564 1.321 . S
C565 H589 0.930 . S
H566 C561 0.931 . S
Co567 N564 2.135 . S
Co567 N570 2.121 . S
Co567 O575 2.055 . S
Co567 O578 2.039 . S
Co567 N581 2.140 . S
C568 O569 1.227 . S
C568 O578 1.265 . S
O569 C568 1.227 . S
N570 Co567 2.121 . S
N570 C572 1.375 . S
N570 C573 1.313 . S
C571 C572 1.338 . S
C571 N574 1.377 . S
C571 H591 0.930 . S
C572 N570 1.375 . S
C572 C571 1.338 . S
C572 H576 0.931 . S
C573 N570 1.313 . S
C573 N574 1.344 . S
C573 H577 0.930 . S
N574 C571 1.377 . S
N574 C573 1.344 . S
O575 Co567 2.055 . S
O575 C579 1.253 . S
H576 C572 0.931 . S
H577 C573 0.930 . S
O578 Co567 2.039 . S
O578 C568 1.265 . S
C579 O575 1.253 . S
C579 O580 1.227 . S
O580 C579 1.227 . S
N581 Co567 2.140 . S
N581 C584 1.346 . S
N581 C585 1.345 . S
C582 C583 1.387 . S
C582 C586 1.391 . S
C583 C582 1.387 . S
C583 C584 1.369 . S
C583 H592 0.929 . S
C584 N581 1.346 . S
C584 C583 1.369 . S
C584 H587 0.928 . S
C585 N581 1.345 . S
C585 C586 1.371 . S
C585 H588 0.931 . S
C586 C582 1.391 . S
C586 C585 1.371 . S
C586 H593 0.930 . S
H587 C584 0.928 . S
H588 C585 0.931 . S
H589 C565 0.930 . S
H590 C562 0.930 . S
H591 C571 0.930 . S
H592 C583 0.929 . S
H593 C586 0.930 . S
C594 C595 1.351 . S
C594 N597 1.368 . S
C594 H599 0.931 . S
C595 C594 1.351 . S
C595 N596 1.373 . S
C595 H623 0.930 . S
N596 C595 1.373 . S
N596 C598 1.340 . S
N597 C594 1.368 . S
N597 C598 1.321 . S
N597 Co600 2.135 . S
C598 N596 1.340 . S
C598 N597 1.321 . S
C598 H622 0.930 . S
H599 C594 0.931 . S
Co600 N597 2.135 . S
Co600 N603 2.121 . S
Co600 O608 2.055 . S
Co600 O611 2.039 . S
Co600 N614 2.140 . S
C601 O602 1.227 . S
C601 O611 1.265 . S
O602 C601 1.227 . S
N603 Co600 2.121 . S
N603 C605 1.375 . S
N603 C606 1.313 . S
C604 C605 1.338 . S
C604 N607 1.377 . S
C604 H624 0.930 . S
C605 N603 1.375 . S
C605 C604 1.338 . S
C605 H609 0.931 . S
C606 N603 1.313 . S
C606 N607 1.344 . S
C606 H610 0.930 . S
N607 C604 1.377 . S
N607 C606 1.344 . S
O608 Co600 2.055 . S
O608 C612 1.253 . S
H609 C605 0.931 . S
H610 C606 0.930 . S
O611 Co600 2.039 . S
O611 C601 1.265 . S
C612 O608 1.253 . S
C612 O613 1.227 . S
O613 C612 1.227 . S
N614 Co600 2.140 . S
N614 C617 1.346 . S
N614 C618 1.345 . S
C615 C616 1.387 . S
C615 C619 1.391 . S
C616 C615 1.387 . S
C616 C617 1.369 . S
C616 H625 0.929 . S
C617 N614 1.346 . S
C617 C616 1.369 . S
C617 H620 0.928 . S
C618 N614 1.345 . S
C618 C619 1.371 . S
C618 H621 0.931 . S
C619 C615 1.391 . S
C619 C618 1.371 . S
C619 H626 0.930 . S
H620 C617 0.928 . S
H621 C618 0.931 . S
H622 C598 0.930 . S
H623 C595 0.930 . S
H624 C604 0.930 . S
H625 C616 0.929 . S
H626 C619 0.930 . S
C627 C628 1.351 . S
C627 N630 1.368 . S
C627 H632 0.931 . S
C628 C627 1.351 . S
C628 N629 1.373 . S
C628 H656 0.930 . S
N629 C628 1.373 . S
N629 C631 1.340 . S
N630 C627 1.368 . S
N630 C631 1.321 . S
N630 Co633 2.135 . S
C631 N629 1.340 . S
C631 N630 1.321 . S
C631 H655 0.930 . S
H632 C627 0.931 . S
Co633 N630 2.135 . S
Co633 N636 2.121 . S
Co633 O641 2.055 . S
Co633 O644 2.039 . S
Co633 N647 2.140 . S
C634 O635 1.227 . S
C634 O644 1.265 . S
O635 C634 1.227 . S
N636 Co633 2.121 . S
N636 C638 1.375 . S
N636 C639 1.313 . S
C637 C638 1.338 . S
C637 N640 1.377 . S
C637 H657 0.930 . S
C638 N636 1.375 . S
C638 C637 1.338 . S
C638 H642 0.931 . S
C639 N636 1.313 . S
C639 N640 1.344 . S
C639 H643 0.930 . S
N640 C637 1.377 . S
N640 C639 1.344 . S
O641 Co633 2.055 . S
O641 C645 1.253 . S
H642 C638 0.931 . S
H643 C639 0.930 . S
O644 Co633 2.039 . S
O644 C634 1.265 . S
C645 O641 1.253 . S
C645 O646 1.227 . S
O646 C645 1.227 . S
N647 Co633 2.140 . S
N647 C650 1.346 . S
N647 C651 1.345 . S
C648 C649 1.387 . S
C648 C652 1.391 . S
C649 C648 1.387 . S
C649 C650 1.369 . S
C649 H658 0.929 . S
C650 N647 1.346 . S
C650 C649 1.369 . S
C650 H653 0.928 . S
C651 N647 1.345 . S
C651 C652 1.371 . S
C651 H654 0.931 . S
C652 C648 1.391 . S
C652 C651 1.371 . S
C652 H659 0.930 . S
H653 C650 0.928 . S
H654 C651 0.931 . S
H655 C631 0.930 . S
H656 C628 0.930 . S
H657 C637 0.930 . S
H658 C649 0.929 . S
H659 C652 0.930 . S
C660 C661 1.351 . S
C660 N663 1.368 . S
C660 H665 0.931 . S
C661 C660 1.351 . S
C661 N662 1.373 . S
C661 H689 0.930 . S
N662 C661 1.373 . S
N662 C664 1.340 . S
N663 C660 1.368 . S
N663 C664 1.321 . S
N663 Co666 2.135 . S
C664 N662 1.340 . S
C664 N663 1.321 . S
C664 H688 0.930 . S
H665 C660 0.931 . S
Co666 N663 2.135 . S
Co666 N669 2.121 . S
Co666 O674 2.055 . S
Co666 O677 2.039 . S
Co666 N680 2.140 . S
C667 O668 1.227 . S
C667 O677 1.265 . S
O668 C667 1.227 . S
N669 Co666 2.121 . S
N669 C671 1.375 . S
N669 C672 1.313 . S
C670 C671 1.338 . S
C670 N673 1.377 . S
C670 H690 0.930 . S
C671 N669 1.375 . S
C671 C670 1.338 . S
C671 H675 0.931 . S
C672 N669 1.313 . S
C672 N673 1.344 . S
C672 H676 0.930 . S
N673 C670 1.377 . S
N673 C672 1.344 . S
O674 Co666 2.055 . S
O674 C678 1.253 . S
H675 C671 0.931 . S
H676 C672 0.930 . S
O677 Co666 2.039 . S
O677 C667 1.265 . S
C678 O674 1.253 . S
C678 O679 1.227 . S
O679 C678 1.227 . S
N680 Co666 2.140 . S
N680 C683 1.346 . S
N680 C684 1.345 . S
C681 C682 1.387 . S
C681 C685 1.391 . S
C682 C681 1.387 . S
C682 C683 1.369 . S
C682 H691 0.929 . S
C683 N680 1.346 . S
C683 C682 1.369 . S
C683 H686 0.928 . S
C684 N680 1.345 . S
C684 C685 1.371 . S
C684 H687 0.931 . S
C685 C681 1.391 . S
C685 C684 1.371 . S
C685 H692 0.930 . S
H686 C683 0.928 . S
H687 C684 0.931 . S
H688 C664 0.930 . S
H689 C661 0.930 . S
H690 C670 0.930 . S
H691 C682 0.929 . S
H692 C685 0.930 . S
C693 C694 1.351 . S
C693 N696 1.368 . S
C693 H698 0.931 . S
C694 C693 1.351 . S
C694 N695 1.373 . S
C694 H722 0.930 . S
N695 C694 1.373 . S
N695 C697 1.340 . S
N696 C693 1.368 . S
N696 C697 1.321 . S
N696 Co699 2.135 . S
C697 N695 1.340 . S
C697 N696 1.321 . S
C697 H721 0.930 . S
H698 C693 0.931 . S
Co699 N696 2.135 . S
Co699 N702 2.121 . S
Co699 O707 2.055 . S
Co699 O710 2.039 . S
Co699 N713 2.140 . S
C700 O701 1.227 . S
C700 O710 1.265 . S
O701 C700 1.227 . S
N702 Co699 2.121 . S
N702 C704 1.375 . S
N702 C705 1.313 . S
C703 C704 1.338 . S
C703 N706 1.377 . S
C703 H723 0.930 . S
C704 N702 1.375 . S
C704 C703 1.338 . S
C704 H708 0.931 . S
C705 N702 1.313 . S
C705 N706 1.344 . S
C705 H709 0.930 . S
N706 C703 1.377 . S
N706 C705 1.344 . S
O707 Co699 2.055 . S
O707 C711 1.253 . S
H708 C704 0.931 . S
H709 C705 0.930 . S
O710 Co699 2.039 . S
O710 C700 1.265 . S
C711 O707 1.253 . S
C711 O712 1.227 . S
O712 C711 1.227 . S
N713 Co699 2.140 . S
N713 C716 1.346 . S
N713 C717 1.345 . S
C714 C715 1.387 . S
C714 C718 1.391 . S
C715 C714 1.387 . S
C715 C716 1.369 . S
C715 H724 0.929 . S
C716 N713 1.346 . S
C716 C715 1.369 . S
C716 H719 0.928 . S
C717 N713 1.345 . S
C717 C718 1.371 . S
C717 H720 0.931 . S
C718 C714 1.391 . S
C718 C717 1.371 . S
C718 H725 0.930 . S
H719 C716 0.928 . S
H720 C717 0.931 . S
H721 C697 0.930 . S
H722 C694 0.930 . S
H723 C703 0.930 . S
H724 C715 0.929 . S
H725 C718 0.930 . S
C726 C727 1.351 . S
C726 N729 1.368 . S
C726 H731 0.931 . S
C727 C726 1.351 . S
C727 N728 1.373 . S
C727 H755 0.930 . S
N728 C727 1.373 . S
N728 C730 1.340 . S
N729 C726 1.368 . S
N729 C730 1.321 . S
N729 Co732 2.135 . S
C730 N728 1.340 . S
C730 N729 1.321 . S
C730 H754 0.930 . S
H731 C726 0.931 . S
Co732 N729 2.135 . S
Co732 N735 2.121 . S
Co732 O740 2.055 . S
Co732 O743 2.039 . S
Co732 N746 2.140 . S
C733 O734 1.227 . S
C733 O743 1.265 . S
O734 C733 1.227 . S
N735 Co732 2.121 . S
N735 C737 1.375 . S
N735 C738 1.313 . S
C736 C737 1.338 . S
C736 N739 1.377 . S
C736 H756 0.930 . S
C737 N735 1.375 . S
C737 C736 1.338 . S
C737 H741 0.931 . S
C738 N735 1.313 . S
C738 N739 1.344 . S
C738 H742 0.930 . S
N739 C736 1.377 . S
N739 C738 1.344 . S
O740 Co732 2.055 . S
O740 C744 1.253 . S
H741 C737 0.931 . S
H742 C738 0.930 . S
O743 Co732 2.039 . S
O743 C733 1.265 . S
C744 O740 1.253 . S
C744 O745 1.227 . S
O745 C744 1.227 . S
N746 Co732 2.140 . S
N746 C749 1.346 . S
N746 C750 1.345 . S
C747 C748 1.387 . S
C747 C751 1.391 . S
C748 C747 1.387 . S
C748 C749 1.369 . S
C748 H757 0.929 . S
C749 N746 1.346 . S
C749 C748 1.369 . S
C749 H752 0.928 . S
C750 N746 1.345 . S
C750 C751 1.371 . S
C750 H753 0.931 . S
C751 C747 1.391 . S
C751 C750 1.371 . S
C751 H758 0.930 . S
H752 C749 0.928 . S
H753 C750 0.931 . S
H754 C730 0.930 . S
H755 C727 0.930 . S
H756 C736 0.930 . S
H757 C748 0.929 . S
H758 C751 0.930 . S
C759 C760 1.351 . S
C759 N762 1.368 . S
C759 H764 0.931 . S
C760 C759 1.351 . S
C760 N761 1.373 . S
C760 H788 0.930 . S
N761 C760 1.373 . S
N761 C763 1.340 . S
N762 C759 1.368 . S
N762 C763 1.321 . S
N762 Co765 2.135 . S
C763 N761 1.340 . S
C763 N762 1.321 . S
C763 H787 0.930 . S
H764 C759 0.931 . S
Co765 N762 2.135 . S
Co765 N768 2.121 . S
Co765 O773 2.055 . S
Co765 O776 2.039 . S
Co765 N779 2.140 . S
C766 O767 1.227 . S
C766 O776 1.265 . S
O767 C766 1.227 . S
N768 Co765 2.121 . S
N768 C770 1.375 . S
N768 C771 1.313 . S
C769 C770 1.338 . S
C769 N772 1.377 . S
C769 H789 0.930 . S
C770 N768 1.375 . S
C770 C769 1.338 . S
C770 H774 0.931 . S
C771 N768 1.313 . S
C771 N772 1.344 . S
C771 H775 0.930 . S
N772 C769 1.377 . S
N772 C771 1.344 . S
O773 Co765 2.055 . S
O773 C777 1.253 . S
H774 C770 0.931 . S
H775 C771 0.930 . S
O776 Co765 2.039 . S
O776 C766 1.265 . S
C777 O773 1.253 . S
C777 O778 1.227 . S
O778 C777 1.227 . S
N779 Co765 2.140 . S
N779 C782 1.346 . S
N779 C783 1.345 . S
C780 C781 1.387 . S
C780 C784 1.391 . S
C781 C780 1.387 . S
C781 C782 1.369 . S
C781 H790 0.929 . S
C782 N779 1.346 . S
C782 C781 1.369 . S
C782 H785 0.928 . S
C783 N779 1.345 . S
C783 C784 1.371 . S
C783 H786 0.931 . S
C784 C780 1.391 . S
C784 C783 1.371 . S
C784 H791 0.930 . S
H785 C782 0.928 . S
H786 C783 0.931 . S
H787 C763 0.930 . S
H788 C760 0.930 . S
H789 C769 0.930 . S
H790 C781 0.929 . S
H791 C784 0.930 . S
H792 C810 0.951 . S
H793 C812 0.951 . S
H794 C814 0.950 . S
H795 C815 0.950 . S
H796 C817 0.950 . S
H797 C820 0.950 . S
H798 C821 0.950 . S
H799 C823 0.950 . S
H800 C824 0.950 . S
H801 C825 0.951 . S
H802 C827 0.951 . S
H803 C829 0.950 . S
H804 C830 0.950 . S
H805 C832 0.950 . S
H806 C835 0.950 . S
H807 C836 0.950 . S
H808 C838 0.950 . S
H809 C839 0.950 . S
C810 H792 0.951 . S
C810 C811 1.366 . S
C810 C812 1.388 . S
C811 C810 1.366 . S
C811 C815 1.385 . S
C812 H793 0.951 . S
C812 C810 1.388 . S
C812 C813 1.366 . S
C813 C812 1.366 . S
C813 C814 1.414 . S
C813 C816 1.499 . S
C814 H794 0.950 . S
C814 C813 1.414 . S
C814 C815 1.374 . S
C815 H795 0.950 . S
C815 C811 1.385 . S
C815 C814 1.374 . S
C816 C813 1.499 . S
C816 C817 1.373 1_545 S
C816 C818 1.389 . S
C817 H796 0.950 . S
C817 C816 1.373 1_565 S
C817 C833 1.377 . S
C818 C816 1.389 . S
C818 C819 1.524 . S
C818 C832 1.377 . S
C819 C818 1.524 . S
C819 C820 1.397 . S
C819 C824 1.363 . S
C820 H797 0.950 . S
C820 C819 1.397 . S
C820 C821 1.334 . S
C821 H798 0.950 . S
C821 C820 1.334 . S
C821 C822 1.287 . S
C822 C821 1.287 . S
C822 C823 1.524 . S
C822 H841 0.913 . S
C823 H799 0.950 . S
C823 C822 1.524 . S
C823 C824 1.415 . S
C824 H800 0.950 . S
C824 C819 1.363 . S
C824 C823 1.415 . S
C825 H801 0.951 . S
C825 C826 1.366 . S
C825 C827 1.388 . S
C826 C825 1.366 . S
C826 C830 1.385 . S
C827 H802 0.951 . S
C827 C825 1.388 . S
C827 C828 1.366 . S
C828 C827 1.366 . S
C828 C829 1.414 . S
C828 C831 1.499 . S
C829 H803 0.950 . S
C829 C828 1.414 . S
C829 C830 1.374 . S
C830 H804 0.950 . S
C830 C826 1.385 . S
C830 C829 1.374 . S
C831 C828 1.499 . S
C831 C832 1.373 1_565 S
C831 C833 1.389 . S
C832 H805 0.950 . S
C832 C818 1.377 . S
C832 C831 1.373 1_545 S
C833 C817 1.377 . S
C833 C831 1.389 . S
C833 C834 1.524 . S
C834 C833 1.524 . S
C834 C835 1.397 . S
C834 C839 1.363 . S
C835 H806 0.950 . S
C835 C834 1.397 . S
C835 C836 1.334 . S
C836 H807 0.950 . S
C836 C835 1.334 . S
C836 C837 1.287 . S
C837 C836 1.287 . S
C837 C838 1.524 . S
C837 H840 0.999 . S
C838 H808 0.950 . S
C838 C837 1.524 . S
C838 C839 1.415 . S
C839 H809 0.950 . S
C839 C834 1.363 . S
C839 C838 1.415 . S
H840 C837 0.999 . S
H841 C822 0.913 . S
H842 C860 0.951 . S
H843 C862 0.951 . S
H844 C864 0.950 . S
H845 C865 0.950 . S
H846 C867 0.950 . S
H847 C870 0.950 . S
H848 C871 0.950 . S
H849 C873 0.950 . S
H850 C874 0.950 . S
H851 C875 0.951 . S
H852 C877 0.951 . S
H853 C879 0.950 . S
H854 C880 0.950 . S
H855 C882 0.950 . S
H856 C885 0.950 . S
H857 C886 0.950 . S
H858 C888 0.950 . S
H859 C889 0.950 . S
C860 H842 0.951 . S
C860 C861 1.366 . S
C860 C862 1.388 . S
C861 C860 1.366 . S
C861 C865 1.385 . S
C862 H843 0.951 . S
C862 C860 1.388 . S
C862 C863 1.366 . S
C863 C862 1.366 . S
C863 C864 1.414 . S
C863 C866 1.499 . S
C864 H844 0.950 . S
C864 C863 1.414 . S
C864 C865 1.374 . S
C865 H845 0.950 . S
C865 C861 1.385 . S
C865 C864 1.374 . S
C866 C863 1.499 . S
C866 C867 1.373 . S
C866 C868 1.389 . S
C867 H846 0.950 . S
C867 C866 1.373 . S
C867 C883 1.377 . S
C868 C866 1.389 . S
C868 C869 1.524 . S
C868 C882 1.377 . S
C869 C868 1.524 . S
C869 C870 1.397 . S
C869 C874 1.363 . S
C870 H847 0.950 . S
C870 C869 1.397 . S
C870 C871 1.334 . S
C871 H848 0.950 . S
C871 C870 1.334 . S
C871 C872 1.287 . S
C872 C871 1.287 . S
C872 C873 1.524 . S
C872 H891 0.913 . S
C873 H849 0.950 . S
C873 C872 1.524 . S
C873 C874 1.415 . S
C874 H850 0.950 . S
C874 C869 1.363 . S
C874 C873 1.415 . S
C875 H851 0.951 . S
C875 C876 1.366 . S
C875 C877 1.388 . S
C876 C875 1.366 . S
C876 C880 1.385 . S
C877 H852 0.951 . S
C877 C875 1.388 . S
C877 C878 1.366 . S
C878 C877 1.366 . S
C878 C879 1.414 . S
C878 C881 1.499 . S
C879 H853 0.950 . S
C879 C878 1.414 . S
C879 C880 1.374 . S
C880 H854 0.950 . S
C880 C876 1.385 . S
C880 C879 1.374 . S
C881 C878 1.499 . S
C881 C882 1.373 . S
C881 C883 1.389 . S
C882 H855 0.950 . S
C882 C868 1.377 . S
C882 C881 1.373 . S
C883 C867 1.377 . S
C883 C881 1.389 . S
C883 C884 1.524 . S
C884 C883 1.524 . S
C884 C885 1.397 . S
C884 C889 1.363 . S
C885 H856 0.950 . S
C885 C884 1.397 . S
C885 C886 1.334 . S
C886 H857 0.950 . S
C886 C885 1.334 . S
C886 C887 1.287 . S
C887 C886 1.287 . S
C887 C888 1.524 . S
C887 H890 0.999 . S
C888 H858 0.950 . S
C888 C887 1.524 . S
C888 C889 1.415 . S
C889 H859 0.950 . S
C889 C884 1.363 . S
C889 C888 1.415 . S
H890 C887 0.999 . S
H891 C872 0.913 . S
H892 C910 0.951 . S
H893 C912 0.951 . S
H894 C914 0.950 . S
H895 C915 0.950 . S
H896 C917 0.950 . S
H897 C920 0.950 . S
H898 C921 0.950 . S
H899 C923 0.950 1_655 S
H900 C924 0.950 . S
H901 C925 0.951 . S
H902 C927 0.951 . S
H903 C929 0.950 . S
H904 C930 0.950 . S
H905 C932 0.950 . S
H906 C935 0.950 . S
H907 C936 0.950 . S
H908 C938 0.950 1_455 S
H909 C939 0.950 . S
C910 H892 0.951 . S
C910 C911 1.366 . S
C910 C912 1.388 . S
C911 C910 1.366 . S
C911 C915 1.385 . S
C912 H893 0.951 . S
C912 C910 1.388 . S
C912 C913 1.366 . S
C913 C912 1.366 . S
C913 C914 1.414 . S
C913 C916 1.499 . S
C914 H894 0.950 . S
C914 C913 1.414 . S
C914 C915 1.374 . S
C915 H895 0.950 . S
C915 C911 1.385 . S
C915 C914 1.374 . S
C916 C913 1.499 . S
C916 C917 1.373 . S
C916 C918 1.389 . S
C917 H896 0.950 . S
C917 C916 1.373 . S
C917 C933 1.377 1_455 S
C918 C916 1.389 . S
C918 C919 1.524 . S
C918 C932 1.377 1_455 S
C919 C918 1.524 . S
C919 C920 1.397 . S
C919 C924 1.363 1_455 S
C920 H897 0.950 . S
C920 C919 1.397 . S
C920 C921 1.334 . S
C921 H898 0.950 . S
C921 C920 1.334 . S
C921 C922 1.287 . S
C922 C921 1.287 . S
C922 C923 1.524 . S
C922 H941 0.913 . S
C923 H899 0.950 1_455 S
C923 C922 1.524 . S
C923 C924 1.415 1_455 S
C924 H900 0.950 . S
C924 C919 1.363 1_655 S
C924 C923 1.415 1_655 S
C925 H901 0.951 . S
C925 C926 1.366 . S
C925 C927 1.388 . S
C926 C925 1.366 . S
C926 C930 1.385 . S
C927 H902 0.951 . S
C927 C925 1.388 . S
C927 C928 1.366 . S
C928 C927 1.366 . S
C928 C929 1.414 . S
C928 C931 1.499 . S
C929 H903 0.950 . S
C929 C928 1.414 . S
C929 C930 1.374 . S
C930 H904 0.950 . S
C930 C926 1.385 . S
C930 C929 1.374 . S
C931 C928 1.499 . S
C931 C932 1.373 . S
C931 C933 1.389 . S
C932 H905 0.950 . S
C932 C918 1.377 1_655 S
C932 C931 1.373 . S
C933 C917 1.377 1_655 S
C933 C931 1.389 . S
C933 C934 1.524 . S
C934 C933 1.524 . S
C934 C935 1.397 . S
C934 C939 1.363 1_655 S
C935 H906 0.950 . S
C935 C934 1.397 . S
C935 C936 1.334 . S
C936 H907 0.950 . S
C936 C935 1.334 . S
C936 C937 1.287 . S
C937 C936 1.287 . S
C937 C938 1.524 . S
C937 H940 0.999 . S
C938 H908 0.950 1_655 S
C938 C937 1.524 . S
C938 C939 1.415 1_655 S
C939 H909 0.950 . S
C939 C934 1.363 1_455 S
C939 C938 1.415 1_455 S
H940 C937 0.999 . S
H941 C922 0.913 . S
H942 C960 0.951 . S
H943 C962 0.951 . S
H944 C964 0.950 . S
H945 C965 0.950 . S
H946 C967 0.950 . S
H947 C970 0.950 . S
H948 C971 0.950 . S
H949 C973 0.950 . S
H950 C974 0.950 . S
H951 C975 0.951 . S
H952 C977 0.951 . S
H953 C979 0.950 . S
H954 C980 0.950 . S
H955 C982 0.950 . S
H956 C985 0.950 . S
H957 C986 0.950 . S
H958 C988 0.950 . S
H959 C989 0.950 . S
C960 H942 0.951 . S
C960 C961 1.366 . S
C960 C962 1.388 . S
C961 C960 1.366 . S
C961 C965 1.385 . S
C962 H943 0.951 . S
C962 C960 1.388 . S
C962 C963 1.366 . S
C963 C962 1.366 . S
C963 C964 1.414 . S
C963 C966 1.499 . S
C964 H944 0.950 . S
C964 C963 1.414 . S
C964 C965 1.374 . S
C965 H945 0.950 . S
C965 C961 1.385 . S
C965 C964 1.374 . S
C966 C963 1.499 . S
C966 C967 1.373 . S
C966 C968 1.389 . S
C967 H946 0.950 . S
C967 C966 1.373 . S
C967 C983 1.377 1_455 S
C968 C966 1.389 . S
C968 C969 1.524 . S
C968 C982 1.377 1_455 S
C969 C968 1.524 . S
C969 C970 1.397 . S
C969 C974 1.363 1_455 S
C970 H947 0.950 . S
C970 C969 1.397 . S
C970 C971 1.334 . S
C971 H948 0.950 . S
C971 C970 1.334 . S
C971 C972 1.287 . S
C972 C971 1.287 . S
C972 C973 1.524 1_455 S
C972 H991 0.913 . S
C973 H949 0.950 . S
C973 C972 1.524 1_655 S
C973 C974 1.415 . S
C974 H950 0.950 . S
C974 C969 1.363 1_655 S
C974 C973 1.415 . S
C975 H951 0.951 . S
C975 C976 1.366 . S
C975 C977 1.388 . S
C976 C975 1.366 . S
C976 C980 1.385 . S
C977 H952 0.951 . S
C977 C975 1.388 . S
C977 C978 1.366 . S
C978 C977 1.366 . S
C978 C979 1.414 . S
C978 C981 1.499 . S
C979 H953 0.950 . S
C979 C978 1.414 . S
C979 C980 1.374 . S
C980 H954 0.950 . S
C980 C976 1.385 . S
C980 C979 1.374 . S
C981 C978 1.499 . S
C981 C982 1.373 . S
C981 C983 1.389 . S
C982 H955 0.950 . S
C982 C968 1.377 1_655 S
C982 C981 1.373 . S
C983 C967 1.377 1_655 S
C983 C981 1.389 . S
C983 C984 1.524 . S
C984 C983 1.524 . S
C984 C985 1.397 . S
C984 C989 1.363 1_655 S
C985 H956 0.950 . S
C985 C984 1.397 . S
C985 C986 1.334 . S
C986 H957 0.950 . S
C986 C985 1.334 . S
C986 C987 1.287 . S
C987 C986 1.287 . S
C987 C988 1.524 1_655 S
C987 H990 0.999 . S
C988 H958 0.950 . S
C988 C987 1.524 1_455 S
C988 C989 1.415 . S
C989 H959 0.950 . S
C989 C984 1.363 1_455 S
C989 C988 1.415 . S
H990 C987 0.999 . S
H991 C972 0.913 . S
H992 C1010 0.951 . S
H993 C1012 0.951 . S
H994 C1014 0.950 . S
H995 C1015 0.950 . S
H996 C1017 0.950 . S
H997 C1020 0.950 . S
H998 C1021 0.950 . S
H999 C1023 0.950 . S
H1000 C1024 0.950 . S
H1001 C1025 0.951 . S
H1002 C1027 0.951 . S
H1003 C1029 0.950 . S
H1004 C1030 0.950 . S
H1005 C1032 0.950 . S
H1006 C1035 0.950 . S
H1007 C1036 0.950 . S
H1008 C1038 0.950 . S
H1009 C1039 0.950 . S
C1010 H992 0.951 . S
C1010 C1011 1.366 . S
C1010 C1012 1.388 . S
C1011 C1010 1.366 . S
C1011 C1015 1.385 . S
C1012 H993 0.951 . S
C1012 C1010 1.388 . S
C1012 C1013 1.366 . S
C1013 C1012 1.366 . S
C1013 C1014 1.414 . S
C1013 C1016 1.499 . S
C1014 H994 0.950 . S
C1014 C1013 1.414 . S
C1014 C1015 1.374 . S
C1015 H995 0.950 . S
C1015 C1011 1.385 . S
C1015 C1014 1.374 . S
C1016 C1013 1.499 . S
C1016 C1017 1.373 . S
C1016 C1018 1.389 . S
C1017 H996 0.950 . S
C1017 C1016 1.373 . S
C1017 C1033 1.377 1_565 S
C1018 C1016 1.389 . S
C1018 C1019 1.524 . S
C1018 C1032 1.377 1_565 S
C1019 C1018 1.524 . S
C1019 C1020 1.397 . S
C1019 C1024 1.363 . S
C1020 H997 0.950 . S
C1020 C1019 1.397 . S
C1020 C1021 1.334 . S
C1021 H998 0.950 . S
C1021 C1020 1.334 . S
C1021 C1022 1.287 . S
C1022 C1021 1.287 . S
C1022 C1023 1.524 . S
C1022 H1041 0.913 . S
C1023 H999 0.950 . S
C1023 C1022 1.524 . S
C1023 C1024 1.415 . S
C1024 H1000 0.950 . S
C1024 C1019 1.363 . S
C1024 C1023 1.415 . S
C1025 H1001 0.951 . S
C1025 C1026 1.366 . S
C1025 C1027 1.388 . S
C1026 C1025 1.366 . S
C1026 C1030 1.385 . S
C1027 H1002 0.951 . S
C1027 C1025 1.388 . S
C1027 C1028 1.366 . S
C1028 C1027 1.366 . S
C1028 C1029 1.414 . S
C1028 C1031 1.499 . S
C1029 H1003 0.950 . S
C1029 C1028 1.414 . S
C1029 C1030 1.374 . S
C1030 H1004 0.950 . S
C1030 C1026 1.385 . S
C1030 C1029 1.374 . S
C1031 C1028 1.499 . S
C1031 C1032 1.373 . S
C1031 C1033 1.389 . S
C1032 H1005 0.950 . S
C1032 C1018 1.377 1_545 S
C1032 C1031 1.373 . S
C1033 C1017 1.377 1_545 S
C1033 C1031 1.389 . S
C1033 C1034 1.524 . S
C1034 C1033 1.524 . S
C1034 C1035 1.397 . S
C1034 C1039 1.363 . S
C1035 H1006 0.950 . S
C1035 C1034 1.397 . S
C1035 C1036 1.334 . S
C1036 H1007 0.950 . S
C1036 C1035 1.334 . S
C1036 C1037 1.287 . S
C1037 C1036 1.287 . S
C1037 C1038 1.524 . S
C1037 H1040 0.999 . S
C1038 H1008 0.950 . S
C1038 C1037 1.524 . S
C1038 C1039 1.415 . S
C1039 H1009 0.950 . S
C1039 C1034 1.363 . S
C1039 C1038 1.415 . S
H1040 C1037 0.999 . S
H1041 C1022 0.913 . S
H1042 C1060 0.951 . S
H1043 C1062 0.951 . S
H1044 C1064 0.950 . S
H1045 C1065 0.950 . S
H1046 C1067 0.950 . S
H1047 C1070 0.950 . S
H1048 C1071 0.950 . S
H1049 C1073 0.950 . S
H1050 C1074 0.950 . S
H1051 C1075 0.951 . S
H1052 C1077 0.951 . S
H1053 C1079 0.950 . S
H1054 C1080 0.950 . S
H1055 C1082 0.950 . S
H1056 C1085 0.950 . S
H1057 C1086 0.950 . S
H1058 C1088 0.950 . S
H1059 C1089 0.950 . S
C1060 H1042 0.951 . S
C1060 C1061 1.366 . S
C1060 C1062 1.388 . S
C1061 C1060 1.366 . S
C1061 C1065 1.385 . S
C1062 H1043 0.951 . S
C1062 C1060 1.388 . S
C1062 C1063 1.366 . S
C1063 C1062 1.366 . S
C1063 C1064 1.414 . S
C1063 C1066 1.499 . S
C1064 H1044 0.950 . S
C1064 C1063 1.414 . S
C1064 C1065 1.374 . S
C1065 H1045 0.950 . S
C1065 C1061 1.385 . S
C1065 C1064 1.374 . S
C1066 C1063 1.499 . S
C1066 C1067 1.373 . S
C1066 C1068 1.389 . S
C1067 H1046 0.950 . S
C1067 C1066 1.373 . S
C1067 C1083 1.377 . S
C1068 C1066 1.389 . S
C1068 C1069 1.524 . S
C1068 C1082 1.377 . S
C1069 C1068 1.524 . S
C1069 C1070 1.397 . S
C1069 C1074 1.363 . S
C1070 H1047 0.950 . S
C1070 C1069 1.397 . S
C1070 C1071 1.334 . S
C1071 H1048 0.950 . S
C1071 C1070 1.334 . S
C1071 C1072 1.287 . S
C1072 C1071 1.287 . S
C1072 C1073 1.524 . S
C1072 H1091 0.913 . S
C1073 H1049 0.950 . S
C1073 C1072 1.524 . S
C1073 C1074 1.415 . S
C1074 H1050 0.950 . S
C1074 C1069 1.363 . S
C1074 C1073 1.415 . S
C1075 H1051 0.951 . S
C1075 C1076 1.366 . S
C1075 C1077 1.388 . S
C1076 C1075 1.366 . S
C1076 C1080 1.385 . S
C1077 H1052 0.951 . S
C1077 C1075 1.388 . S
C1077 C1078 1.366 . S
C1078 C1077 1.366 . S
C1078 C1079 1.414 . S
C1078 C1081 1.499 . S
C1079 H1053 0.950 . S
C1079 C1078 1.414 . S
C1079 C1080 1.374 . S
C1080 H1054 0.950 . S
C1080 C1076 1.385 . S
C1080 C1079 1.374 . S
C1081 C1078 1.499 . S
C1081 C1082 1.373 . S
C1081 C1083 1.389 . S
C1082 H1055 0.950 . S
C1082 C1068 1.377 . S
C1082 C1081 1.373 . S
C1083 C1067 1.377 . S
C1083 C1081 1.389 . S
C1083 C1084 1.524 . S
C1084 C1083 1.524 . S
C1084 C1085 1.397 . S
C1084 C1089 1.363 . S
C1085 H1056 0.950 . S
C1085 C1084 1.397 . S
C1085 C1086 1.334 . S
C1086 H1057 0.950 . S
C1086 C1085 1.334 . S
C1086 C1087 1.287 . S
C1087 C1086 1.287 . S
C1087 C1088 1.524 . S
C1087 H1090 0.999 . S
C1088 H1058 0.950 . S
C1088 C1087 1.524 . S
C1088 C1089 1.415 . S
C1089 H1059 0.950 . S
C1089 C1084 1.363 . S
C1089 C1088 1.415 . S
H1090 C1087 0.999 . S
H1091 C1072 0.913 . S
H1092 C1110 0.951 . S
H1093 C1112 0.951 . S
H1094 C1114 0.950 . S
H1095 C1115 0.950 . S
H1096 C1117 0.950 . S
H1097 C1120 0.950 . S
H1098 C1121 0.950 . S
H1099 C1123 0.950 . S
H1100 C1124 0.950 . S
H1101 C1125 0.951 . S
H1102 C1127 0.951 . S
H1103 C1129 0.950 . S
H1104 C1130 0.950 . S
H1105 C1132 0.950 . S
H1106 C1135 0.950 . S
H1107 C1136 0.950 . S
H1108 C1138 0.950 . S
H1109 C1139 0.950 . S
C1110 H1092 0.951 . S
C1110 C1111 1.366 . S
C1110 C1112 1.388 . S
C1111 C1110 1.366 . S
C1111 C1115 1.385 . S
C1112 H1093 0.951 . S
C1112 C1110 1.388 . S
C1112 C1113 1.366 . S
C1113 C1112 1.366 . S
C1113 C1114 1.414 . S
C1113 C1116 1.499 . S
C1114 H1094 0.950 . S
C1114 C1113 1.414 . S
C1114 C1115 1.374 . S
C1115 H1095 0.950 . S
C1115 C1111 1.385 . S
C1115 C1114 1.374 . S
C1116 C1113 1.499 . S
C1116 C1117 1.373 . S
C1116 C1118 1.389 1_545 S
C1117 H1096 0.950 . S
C1117 C1116 1.373 . S
C1117 C1133 1.377 . S
C1118 C1116 1.389 1_565 S
C1118 C1119 1.524 . S
C1118 C1132 1.377 . S
C1119 C1118 1.524 . S
C1119 C1120 1.397 1_565 S
C1119 C1124 1.363 . S
C1120 H1097 0.950 . S
C1120 C1119 1.397 1_545 S
C1120 C1121 1.334 . S
C1121 H1098 0.950 . S
C1121 C1120 1.334 . S
C1121 C1122 1.287 1_545 S
C1122 C1121 1.287 1_565 S
C1122 C1123 1.524 . S
C1122 H1141 0.913 . S
C1123 H1099 0.950 . S
C1123 C1122 1.524 . S
C1123 C1124 1.415 . S
C1124 H1100 0.950 . S
C1124 C1119 1.363 . S
C1124 C1123 1.415 . S
C1125 H1101 0.951 . S
C1125 C1126 1.366 . S
C1125 C1127 1.388 . S
C1126 C1125 1.366 . S
C1126 C1130 1.385 . S
C1127 H1102 0.951 . S
C1127 C1125 1.388 . S
C1127 C1128 1.366 . S
C1128 C1127 1.366 . S
C1128 C1129 1.414 . S
C1128 C1131 1.499 . S
C1129 H1103 0.950 . S
C1129 C1128 1.414 . S
C1129 C1130 1.374 . S
C1130 H1104 0.950 . S
C1130 C1126 1.385 . S
C1130 C1129 1.374 . S
C1131 C1128 1.499 . S
C1131 C1132 1.373 . S
C1131 C1133 1.389 1_565 S
C1132 H1105 0.950 . S
C1132 C1118 1.377 . S
C1132 C1131 1.373 . S
C1133 C1117 1.377 . S
C1133 C1131 1.389 1_545 S
C1133 C1134 1.524 . S
C1134 C1133 1.524 . S
C1134 C1135 1.397 1_545 S
C1134 C1139 1.363 . S
C1135 H1106 0.950 . S
C1135 C1134 1.397 1_565 S
C1135 C1136 1.334 . S
C1136 H1107 0.950 . S
C1136 C1135 1.334 . S
C1136 C1137 1.287 1_565 S
C1137 C1136 1.287 1_545 S
C1137 C1138 1.524 . S
C1137 H1140 0.999 . S
C1138 H1108 0.950 . S
C1138 C1137 1.524 . S
C1138 C1139 1.415 . S
C1139 H1109 0.950 . S
C1139 C1134 1.363 . S
C1139 C1138 1.415 . S
H1140 C1137 0.999 . S
H1141 C1122 0.913 . S
H1142 C1160 0.951 . S
H1143 C1162 0.951 . S
H1144 C1164 0.950 . S
H1145 C1165 0.950 . S
H1146 C1167 0.950 . S
H1147 C1170 0.950 . S
H1148 C1171 0.950 . S
H1149 C1173 0.950 . S
H1150 C1174 0.950 . S
H1151 C1175 0.951 . S
H1152 C1177 0.951 . S
H1153 C1179 0.950 . S
H1154 C1180 0.950 . S
H1155 C1182 0.950 . S
H1156 C1185 0.950 . S
H1157 C1186 0.950 . S
H1158 C1188 0.950 . S
H1159 C1189 0.950 . S
C1160 H1142 0.951 . S
C1160 C1161 1.366 . S
C1160 C1162 1.388 . S
C1161 C1160 1.366 . S
C1161 C1165 1.385 . S
C1162 H1143 0.951 . S
C1162 C1160 1.388 . S
C1162 C1163 1.366 . S
C1163 C1162 1.366 . S
C1163 C1164 1.414 . S
C1163 C1166 1.499 . S
C1164 H1144 0.950 . S
C1164 C1163 1.414 . S
C1164 C1165 1.374 . S
C1165 H1145 0.950 . S
C1165 C1161 1.385 . S
C1165 C1164 1.374 . S
C1166 C1163 1.499 . S
C1166 C1167 1.373 . S
C1166 C1168 1.389 . S
C1167 H1146 0.950 . S
C1167 C1166 1.373 . S
C1167 C1183 1.377 . S
C1168 C1166 1.389 . S
C1168 C1169 1.524 . S
C1168 C1182 1.377 . S
C1169 C1168 1.524 . S
C1169 C1170 1.397 . S
C1169 C1174 1.363 . S
C1170 H1147 0.950 . S
C1170 C1169 1.397 . S
C1170 C1171 1.334 . S
C1171 H1148 0.950 . S
C1171 C1170 1.334 . S
C1171 C1172 1.287 . S
C1172 C1171 1.287 . S
C1172 C1173 1.524 . S
C1172 H1191 0.913 . S
C1173 H1149 0.950 . S
C1173 C1172 1.524 . S
C1173 C1174 1.415 . S
C1174 H1150 0.950 . S
C1174 C1169 1.363 . S
C1174 C1173 1.415 . S
C1175 H1151 0.951 . S
C1175 C1176 1.366 . S
C1175 C1177 1.388 . S
C1176 C1175 1.366 . S
C1176 C1180 1.385 . S
C1177 H1152 0.951 . S
C1177 C1175 1.388 . S
C1177 C1178 1.366 . S
C1178 C1177 1.366 . S
C1178 C1179 1.414 . S
C1178 C1181 1.499 . S
C1179 H1153 0.950 . S
C1179 C1178 1.414 . S
C1179 C1180 1.374 . S
C1180 H1154 0.950 . S
C1180 C1176 1.385 . S
C1180 C1179 1.374 . S
C1181 C1178 1.499 . S
C1181 C1182 1.373 . S
C1181 C1183 1.389 . S
C1182 H1155 0.950 . S
C1182 C1168 1.377 . S
C1182 C1181 1.373 . S
C1183 C1167 1.377 . S
C1183 C1181 1.389 . S
C1183 C1184 1.524 . S
C1184 C1183 1.524 . S
C1184 C1185 1.397 . S
C1184 C1189 1.363 . S
C1185 H1156 0.950 . S
C1185 C1184 1.397 . S
C1185 C1186 1.334 . S
C1186 H1157 0.950 . S
C1186 C1185 1.334 . S
C1186 C1187 1.287 . S
C1187 C1186 1.287 . S
C1187 C1188 1.524 . S
C1187 H1190 0.999 . S
C1188 H1158 0.950 . S
C1188 C1187 1.524 . S
C1188 C1189 1.415 . S
C1189 H1159 0.950 . S
C1189 C1184 1.363 . S
C1189 C1188 1.415 . S
H1190 C1187 0.999 . S
H1191 C1172 0.913 . S
H1192 C1210 0.951 . S
H1193 C1212 0.951 . S
H1194 C1214 0.950 . S
H1195 C1215 0.950 . S
H1196 C1217 0.950 . S
H1197 C1220 0.950 1_655 S
H1198 C1221 0.950 . S
H1199 C1223 0.950 . S
H1200 C1224 0.950 . S
H1201 C1225 0.951 . S
H1202 C1227 0.951 . S
H1203 C1229 0.950 . S
H1204 C1230 0.950 . S
H1205 C1232 0.950 . S
H1206 C1235 0.950 1_455 S
H1207 C1236 0.950 . S
H1208 C1238 0.950 . S
H1209 C1239 0.950 . S
C1210 H1192 0.951 . S
C1210 C1211 1.366 . S
C1210 C1212 1.388 . S
C1211 C1210 1.366 . S
C1211 C1215 1.385 . S
C1212 H1193 0.951 . S
C1212 C1210 1.388 . S
C1212 C1213 1.366 . S
C1213 C1212 1.366 . S
C1213 C1214 1.414 . S
C1213 C1216 1.499 . S
C1214 H1194 0.950 . S
C1214 C1213 1.414 . S
C1214 C1215 1.374 . S
C1215 H1195 0.950 . S
C1215 C1211 1.385 . S
C1215 C1214 1.374 . S
C1216 C1213 1.499 . S
C1216 C1217 1.373 . S
C1216 C1218 1.389 1_655 S
C1217 H1196 0.950 . S
C1217 C1216 1.373 . S
C1217 C1233 1.377 . S
C1218 C1216 1.389 1_455 S
C1218 C1219 1.524 . S
C1218 C1232 1.377 . S
C1219 C1218 1.524 . S
C1219 C1220 1.397 . S
C1219 C1224 1.363 . S
C1220 H1197 0.950 1_455 S
C1220 C1219 1.397 . S
C1220 C1221 1.334 . S
C1221 H1198 0.950 . S
C1221 C1220 1.334 . S
C1221 C1222 1.287 . S
C1222 C1221 1.287 . S
C1222 C1223 1.524 . S
C1222 H1241 0.913 . S
C1223 H1199 0.950 . S
C1223 C1222 1.524 . S
C1223 C1224 1.415 . S
C1224 H1200 0.950 . S
C1224 C1219 1.363 . S
C1224 C1223 1.415 . S
C1225 H1201 0.951 . S
C1225 C1226 1.366 . S
C1225 C1227 1.388 . S
C1226 C1225 1.366 . S
C1226 C1230 1.385 . S
C1227 H1202 0.951 . S
C1227 C1225 1.388 . S
C1227 C1228 1.366 . S
C1228 C1227 1.366 . S
C1228 C1229 1.414 . S
C1228 C1231 1.499 . S
C1229 H1203 0.950 . S
C1229 C1228 1.414 . S
C1229 C1230 1.374 . S
C1230 H1204 0.950 . S
C1230 C1226 1.385 . S
C1230 C1229 1.374 . S
C1231 C1228 1.499 . S
C1231 C1232 1.373 . S
C1231 C1233 1.389 1_455 S
C1232 H1205 0.950 . S
C1232 C1218 1.377 . S
C1232 C1231 1.373 . S
C1233 C1217 1.377 . S
C1233 C1231 1.389 1_655 S
C1233 C1234 1.524 . S
C1234 C1233 1.524 . S
C1234 C1235 1.397 . S
C1234 C1239 1.363 . S
C1235 H1206 0.950 1_655 S
C1235 C1234 1.397 . S
C1235 C1236 1.334 . S
C1236 H1207 0.950 . S
C1236 C1235 1.334 . S
C1236 C1237 1.287 . S
C1237 C1236 1.287 . S
C1237 C1238 1.524 . S
C1237 H1240 0.999 . S
C1238 H1208 0.950 . S
C1238 C1237 1.524 . S
C1238 C1239 1.415 . S
C1239 H1209 0.950 . S
C1239 C1234 1.363 . S
C1239 C1238 1.415 . S
H1240 C1237 0.999 . S
H1241 C1222 0.913 . S
H1242 C1260 0.951 . S
H1243 C1262 0.951 . S
H1244 C1264 0.950 . S
H1245 C1265 0.950 . S
H1246 C1267 0.950 . S
H1247 C1270 0.950 . S
H1248 C1271 0.950 . S
H1249 C1273 0.950 . S
H1250 C1274 0.950 . S
H1251 C1275 0.951 . S
H1252 C1277 0.951 . S
H1253 C1279 0.950 . S
H1254 C1280 0.950 . S
H1255 C1282 0.950 . S
H1256 C1285 0.950 . S
H1257 C1286 0.950 . S
H1258 C1288 0.950 . S
H1259 C1289 0.950 . S
C1260 H1242 0.951 . S
C1260 C1261 1.366 . S
C1260 C1262 1.388 . S
C1261 C1260 1.366 . S
C1261 C1265 1.385 . S
C1262 H1243 0.951 . S
C1262 C1260 1.388 . S
C1262 C1263 1.366 . S
C1263 C1262 1.366 . S
C1263 C1264 1.414 . S
C1263 C1266 1.499 . S
C1264 H1244 0.950 . S
C1264 C1263 1.414 . S
C1264 C1265 1.374 . S
C1265 H1245 0.950 . S
C1265 C1261 1.385 . S
C1265 C1264 1.374 . S
C1266 C1263 1.499 . S
C1266 C1267 1.373 . S
C1266 C1268 1.371 1_655 S
C1267 H1246 0.950 . S
C1267 C1266 1.373 . S
C1267 C1283 1.406 . S
C1268 C1266 1.371 1_455 S
C1268 C1269 1.516 . S
C1268 C1282 1.406 . S
C1269 C1268 1.516 . S
C1269 C1270 1.397 1_455 S
C1269 C1274 1.363 . S
C1270 H1247 0.950 . S
C1270 C1269 1.397 1_655 S
C1270 C1271 1.334 . S
C1271 H1248 0.950 . S
C1271 C1270 1.334 . S
C1271 C1272 1.287 1_655 S
C1272 C1271 1.287 1_455 S
C1272 C1273 1.524 . S
C1272 H1291 0.913 . S
C1273 H1249 0.950 . S
C1273 C1272 1.524 . S
C1273 C1274 1.415 . S
C1274 H1250 0.950 . S
C1274 C1269 1.363 . S
C1274 C1273 1.415 . S
C1275 H1251 0.951 . S
C1275 C1276 1.366 . S
C1275 C1277 1.388 . S
C1276 C1275 1.366 . S
C1276 C1280 1.385 . S
C1277 H1252 0.951 . S
C1277 C1275 1.388 . S
C1277 C1278 1.366 . S
C1278 C1277 1.366 . S
C1278 C1279 1.414 . S
C1278 C1281 1.499 . S
C1279 H1253 0.950 . S
C1279 C1278 1.414 . S
C1279 C1280 1.374 . S
C1280 H1254 0.950 . S
C1280 C1276 1.385 . S
C1280 C1279 1.374 . S
C1281 C1278 1.499 . S
C1281 C1282 1.373 . S
C1281 C1283 1.371 1_455 S
C1282 H1255 0.950 . S
C1282 C1268 1.406 . S
C1282 C1281 1.373 . S
C1283 C1267 1.406 . S
C1283 C1281 1.371 1_655 S
C1283 C1284 1.516 . S
C1284 C1283 1.516 . S
C1284 C1285 1.397 1_655 S
C1284 C1289 1.363 . S
C1285 H1256 0.950 . S
C1285 C1284 1.397 1_455 S
C1285 C1286 1.334 . S
C1286 H1257 0.950 . S
C1286 C1285 1.334 . S
C1286 C1287 1.287 1_455 S
C1287 C1286 1.287 1_655 S
C1287 C1288 1.524 . S
C1287 H1290 0.999 . S
C1288 H1258 0.950 . S
C1288 C1287 1.524 . S
C1288 C1289 1.415 . S
C1289 H1259 0.950 . S
C1289 C1284 1.363 . S
C1289 C1288 1.415 . S
H1290 C1287 0.999 . S
H1291 C1272 0.913 . S
H1292 C1310 0.951 . S
H1293 C1312 0.951 . S
H1294 C1314 0.950 . S
H1295 C1315 0.950 . S
H1296 C1317 0.950 . S
H1297 C1320 0.950 . S
H1298 C1321 0.950 . S
H1299 C1323 0.950 . S
H1300 C1324 0.950 . S
H1301 C1325 0.951 . S
H1302 C1327 0.951 . S
H1303 C1329 0.950 . S
H1304 C1330 0.950 . S
H1305 C1332 0.950 . S
H1306 C1335 0.950 . S
H1307 C1336 0.950 . S
H1308 C1338 0.950 . S
H1309 C1339 0.950 . S
C1310 H1292 0.951 . S
C1310 C1311 1.366 . S
C1310 C1312 1.388 . S
C1311 C1310 1.366 . S
C1311 C1315 1.385 . S
C1312 H1293 0.951 . S
C1312 C1310 1.388 . S
C1312 C1313 1.366 . S
C1313 C1312 1.366 . S
C1313 C1314 1.414 . S
C1313 C1316 1.499 . S
C1314 H1294 0.950 . S
C1314 C1313 1.414 . S
C1314 C1315 1.374 . S
C1315 H1295 0.950 . S
C1315 C1311 1.385 . S
C1315 C1314 1.374 . S
C1316 C1313 1.499 . S
C1316 C1317 1.373 . S
C1316 C1318 1.389 . S
C1317 H1296 0.950 . S
C1317 C1316 1.373 . S
C1317 C1333 1.377 1_545 S
C1318 C1316 1.389 . S
C1318 C1319 1.524 . S
C1318 C1332 1.377 1_545 S
C1319 C1318 1.524 . S
C1319 C1320 1.397 . S
C1319 C1324 1.363 1_545 S
C1320 H1297 0.950 . S
C1320 C1319 1.397 . S
C1320 C1321 1.334 . S
C1321 H1298 0.950 . S
C1321 C1320 1.334 . S
C1321 C1322 1.287 . S
C1322 C1321 1.287 . S
C1322 C1323 1.524 1_545 S
C1322 H1341 0.913 . S
C1323 H1299 0.950 . S
C1323 C1322 1.524 1_565 S
C1323 C1324 1.415 . S
C1324 H1300 0.950 . S
C1324 C1319 1.363 1_565 S
C1324 C1323 1.415 . S
C1325 H1301 0.951 . S
C1325 C1326 1.366 . S
C1325 C1327 1.388 . S
C1326 C1325 1.366 . S
C1326 C1330 1.385 . S
C1327 H1302 0.951 . S
C1327 C1325 1.388 . S
C1327 C1328 1.366 . S
C1328 C1327 1.366 . S
C1328 C1329 1.414 . S
C1328 C1331 1.499 . S
C1329 H1303 0.950 . S
C1329 C1328 1.414 . S
C1329 C1330 1.374 . S
C1330 H1304 0.950 . S
C1330 C1326 1.385 . S
C1330 C1329 1.374 . S
C1331 C1328 1.499 . S
C1331 C1332 1.373 . S
C1331 C1333 1.389 . S
C1332 H1305 0.950 . S
C1332 C1318 1.377 1_565 S
C1332 C1331 1.373 . S
C1333 C1317 1.377 1_565 S
C1333 C1331 1.389 . S
C1333 C1334 1.524 . S
C1334 C1333 1.524 . S
C1334 C1335 1.397 . S
C1334 C1339 1.363 1_565 S
C1335 H1306 0.950 . S
C1335 C1334 1.397 . S
C1335 C1336 1.334 . S
C1336 H1307 0.950 . S
C1336 C1335 1.334 . S
C1336 C1337 1.287 . S
C1337 C1336 1.287 . S
C1337 C1338 1.524 1_565 S
C1337 H1340 0.999 . S
C1338 H1308 0.950 . S
C1338 C1337 1.524 1_545 S
C1338 C1339 1.415 . S
C1339 H1309 0.950 . S
C1339 C1334 1.363 1_545 S
C1339 C1338 1.415 . S
H1340 C1337 0.999 . S
H1341 C1322 0.913 . S
H1342 C1360 0.951 . S
H1343 C1362 0.951 . S
H1344 C1364 0.950 . S
H1345 C1365 0.950 . S
H1346 C1367 0.950 . S
H1347 C1370 0.950 . S
H1348 C1371 0.950 . S
H1349 C1373 0.950 . S
H1350 C1374 0.950 . S
H1351 C1375 0.951 . S
H1352 C1377 0.951 . S
H1353 C1379 0.950 . S
H1354 C1380 0.950 . S
H1355 C1382 0.950 . S
H1356 C1385 0.950 . S
H1357 C1386 0.950 . S
H1358 C1388 0.950 . S
H1359 C1389 0.950 . S
C1360 H1342 0.951 . S
C1360 C1361 1.366 . S
C1360 C1362 1.388 . S
C1361 C1360 1.366 . S
C1361 C1365 1.385 . S
C1362 H1343 0.951 . S
C1362 C1360 1.388 . S
C1362 C1363 1.366 . S
C1363 C1362 1.366 . S
C1363 C1364 1.414 . S
C1363 C1366 1.499 . S
C1364 H1344 0.950 . S
C1364 C1363 1.414 . S
C1364 C1365 1.374 . S
C1365 H1345 0.950 . S
C1365 C1361 1.385 . S
C1365 C1364 1.374 . S
C1366 C1363 1.499 . S
C1366 C1367 1.373 . S
C1366 C1368 1.389 . S
C1367 H1346 0.950 . S
C1367 C1366 1.373 . S
C1367 C1383 1.377 . S
C1368 C1366 1.389 . S
C1368 C1369 1.524 . S
C1368 C1382 1.377 . S
C1369 C1368 1.524 . S
C1369 C1370 1.397 . S
C1369 C1374 1.363 . S
C1370 H1347 0.950 . S
C1370 C1369 1.397 . S
C1370 C1371 1.334 . S
C1371 H1348 0.950 . S
C1371 C1370 1.334 . S
C1371 C1372 1.287 . S
C1372 C1371 1.287 . S
C1372 C1373 1.524 . S
C1372 H1391 0.913 . S
C1373 H1349 0.950 . S
C1373 C1372 1.524 . S
C1373 C1374 1.415 . S
C1374 H1350 0.950 . S
C1374 C1369 1.363 . S
C1374 C1373 1.415 . S
C1375 H1351 0.951 . S
C1375 C1376 1.366 . S
C1375 C1377 1.388 . S
C1376 C1375 1.366 . S
C1376 C1380 1.385 . S
C1377 H1352 0.951 . S
C1377 C1375 1.388 . S
C1377 C1378 1.366 . S
C1378 C1377 1.366 . S
C1378 C1379 1.414 . S
C1378 C1381 1.499 . S
C1379 H1353 0.950 . S
C1379 C1378 1.414 . S
C1379 C1380 1.374 . S
C1380 H1354 0.950 . S
C1380 C1376 1.385 . S
C1380 C1379 1.374 . S
C1381 C1378 1.499 . S
C1381 C1382 1.373 . S
C1381 C1383 1.389 . S
C1382 H1355 0.950 . S
C1382 C1368 1.377 . S
C1382 C1381 1.373 . S
C1383 C1367 1.377 . S
C1383 C1381 1.389 . S
C1383 C1384 1.524 . S
C1384 C1383 1.524 . S
C1384 C1385 1.397 . S
C1384 C1389 1.363 . S
C1385 H1356 0.950 . S
C1385 C1384 1.397 . S
C1385 C1386 1.334 . S
C1386 H1357 0.950 . S
C1386 C1385 1.334 . S
C1386 C1387 1.287 . S
C1387 C1386 1.287 . S
C1387 C1388 1.524 . S
C1387 H1390 0.999 . S
C1388 H1358 0.950 . S
C1388 C1387 1.524 . S
C1388 C1389 1.415 . S
C1389 H1359 0.950 . S
C1389 C1384 1.363 . S
C1389 C1388 1.415 . S
H1390 C1387 0.999 . S
H1391 C1372 0.913 . S
H1392 C1410 0.951 . S
H1393 C1412 0.951 . S
H1394 C1414 0.950 . S
H1395 C1415 0.950 . S
H1396 C1417 0.950 . S
H1397 C1420 0.950 . S
H1398 C1421 0.950 . S
H1399 C1423 0.950 . S
H1400 C1424 0.950 . S
H1401 C1425 0.951 . S
H1402 C1427 0.951 . S
H1403 C1429 0.950 . S
H1404 C1430 0.950 . S
H1405 C1432 0.950 . S
H1406 C1435 0.950 . S
H1407 C1436 0.950 . S
H1408 C1438 0.950 . S
H1409 C1439 0.950 . S
C1410 H1392 0.951 . S
C1410 C1411 1.366 . S
C1410 C1412 1.388 . S
C1411 C1410 1.366 . S
C1411 C1415 1.385 . S
C1412 H1393 0.951 . S
C1412 C1410 1.388 . S
C1412 C1413 1.366 . S
C1413 C1412 1.366 . S
C1413 C1414 1.414 . S
C1413 C1416 1.499 . S
C1414 H1394 0.950 . S
C1414 C1413 1.414 . S
C1414 C1415 1.374 . S
C1415 H1395 0.950 . S
C1415 C1411 1.385 . S
C1415 C1414 1.374 . S
C1416 C1413 1.499 . S
C1416 C1417 1.373 . S
C1416 C1418 1.389 . S
C1417 H1396 0.950 . S
C1417 C1416 1.373 . S
C1417 C1433 1.377 . S
C1418 C1416 1.389 . S
C1418 C1419 1.524 . S
C1418 C1432 1.377 . S
C1419 C1418 1.524 . S
C1419 C1420 1.397 . S
C1419 C1424 1.363 . S
C1420 H1397 0.950 . S
C1420 C1419 1.397 . S
C1420 C1421 1.334 . S
C1421 H1398 0.950 . S
C1421 C1420 1.334 . S
C1421 C1422 1.287 . S
C1422 C1421 1.287 . S
C1422 C1423 1.524 . S
C1422 H1441 0.913 . S
C1423 H1399 0.950 . S
C1423 C1422 1.524 . S
C1423 C1424 1.415 . S
C1424 H1400 0.950 . S
C1424 C1419 1.363 . S
C1424 C1423 1.415 . S
C1425 H1401 0.951 . S
C1425 C1426 1.366 . S
C1425 C1427 1.388 . S
C1426 C1425 1.366 . S
C1426 C1430 1.385 . S
C1427 H1402 0.951 . S
C1427 C1425 1.388 . S
C1427 C1428 1.366 . S
C1428 C1427 1.366 . S
C1428 C1429 1.414 . S
C1428 C1431 1.499 . S
C1429 H1403 0.950 . S
C1429 C1428 1.414 . S
C1429 C1430 1.374 . S
C1430 H1404 0.950 . S
C1430 C1426 1.385 . S
C1430 C1429 1.374 . S
C1431 C1428 1.499 . S
C1431 C1432 1.373 . S
C1431 C1433 1.389 . S
C1432 H1405 0.950 . S
C1432 C1418 1.377 . S
C1432 C1431 1.373 . S
C1433 C1417 1.377 . S
C1433 C1431 1.389 . S
C1433 C1434 1.524 . S
C1434 C1433 1.524 . S
C1434 C1435 1.397 . S
C1434 C1439 1.363 . S
C1435 H1406 0.950 . S
C1435 C1434 1.397 . S
C1435 C1436 1.334 . S
C1436 H1407 0.950 . S
C1436 C1435 1.334 . S
C1436 C1437 1.287 . S
C1437 C1436 1.287 . S
C1437 C1438 1.524 . S
C1437 H1440 0.999 . S
C1438 H1408 0.950 . S
C1438 C1437 1.524 . S
C1438 C1439 1.415 . S
C1439 H1409 0.950 . S
C1439 C1434 1.363 . S
C1439 C1438 1.415 . S
H1440 C1437 0.999 . S
H1441 C1422 0.913 . S
H1442 C1460 0.951 . S
H1443 C1462 0.951 . S
H1444 C1464 0.950 . S
H1445 C1465 0.950 . S
H1446 C1467 0.950 . S
H1447 C1470 0.950 . S
H1448 C1471 0.950 . S
H1449 C1473 0.950 . S
H1450 C1474 0.950 . S
H1451 C1475 0.951 . S
H1452 C1477 0.951 . S
H1453 C1479 0.950 . S
H1454 C1480 0.950 . S
H1455 C1482 0.950 . S
H1456 C1485 0.950 . S
H1457 C1486 0.950 . S
H1458 C1488 0.950 . S
H1459 C1489 0.950 . S
C1460 H1442 0.951 . S
C1460 C1461 1.366 . S
C1460 C1462 1.388 . S
C1461 C1460 1.366 . S
C1461 C1465 1.385 . S
C1462 H1443 0.951 . S
C1462 C1460 1.388 . S
C1462 C1463 1.366 . S
C1463 C1462 1.366 . S
C1463 C1464 1.414 . S
C1463 C1466 1.499 . S
C1464 H1444 0.950 . S
C1464 C1463 1.414 . S
C1464 C1465 1.374 . S
C1465 H1445 0.950 . S
C1465 C1461 1.385 . S
C1465 C1464 1.374 . S
C1466 C1463 1.499 . S
C1466 C1467 1.373 . S
C1466 C1468 1.389 . S
C1467 H1446 0.950 . S
C1467 C1466 1.373 . S
C1467 C1483 1.377 . S
C1468 C1466 1.389 . S
C1468 C1469 1.524 . S
C1468 C1482 1.377 . S
C1469 C1468 1.524 . S
C1469 C1470 1.397 . S
C1469 C1474 1.363 . S
C1470 H1447 0.950 . S
C1470 C1469 1.397 . S
C1470 C1471 1.334 . S
C1471 H1448 0.950 . S
C1471 C1470 1.334 . S
C1471 C1472 1.287 . S
C1472 C1471 1.287 . S
C1472 C1473 1.524 . S
C1472 H1491 0.913 . S
C1473 H1449 0.950 . S
C1473 C1472 1.524 . S
C1473 C1474 1.415 . S
C1474 H1450 0.950 . S
C1474 C1469 1.363 . S
C1474 C1473 1.415 . S
C1475 H1451 0.951 . S
C1475 C1476 1.366 . S
C1475 C1477 1.388 . S
C1476 C1475 1.366 . S
C1476 C1480 1.385 . S
C1477 H1452 0.951 . S
C1477 C1475 1.388 . S
C1477 C1478 1.366 . S
C1478 C1477 1.366 . S
C1478 C1479 1.414 . S
C1478 C1481 1.499 . S
C1479 H1453 0.950 . S
C1479 C1478 1.414 . S
C1479 C1480 1.374 . S
C1480 H1454 0.950 . S
C1480 C1476 1.385 . S
C1480 C1479 1.374 . S
C1481 C1478 1.499 . S
C1481 C1482 1.373 . S
C1481 C1483 1.389 . S
C1482 H1455 0.950 . S
C1482 C1468 1.377 . S
C1482 C1481 1.373 . S
C1483 C1467 1.377 . S
C1483 C1481 1.389 . S
C1483 C1484 1.524 . S
C1484 C1483 1.524 . S
C1484 C1485 1.397 . S
C1484 C1489 1.363 . S
C1485 H1456 0.950 . S
C1485 C1484 1.397 . S
C1485 C1486 1.334 . S
C1486 H1457 0.950 . S
C1486 C1485 1.334 . S
C1486 C1487 1.287 . S
C1487 C1486 1.287 . S
C1487 C1488 1.524 . S
C1487 H1490 0.999 . S
C1488 H1458 0.950 . S
C1488 C1487 1.524 . S
C1488 C1489 1.415 . S
C1489 H1459 0.950 . S
C1489 C1484 1.363 . S
C1489 C1488 1.415 . S
H1490 C1487 0.999 . S
H1491 C1472 0.913 . S
H1492 C1510 0.951 . S
H1493 C1512 0.951 . S
H1494 C1514 0.950 . S
H1495 C1515 0.950 . S
H1496 C1517 0.950 . S
H1497 C1520 0.950 . S
H1498 C1521 0.950 . S
H1499 C1523 0.950 . S
H1500 C1524 0.950 . S
H1501 C1525 0.951 . S
H1502 C1527 0.951 . S
H1503 C1529 0.950 . S
H1504 C1530 0.950 . S
H1505 C1532 0.950 . S
H1506 C1535 0.950 . S
H1507 C1536 0.950 . S
H1508 C1538 0.950 . S
H1509 C1539 0.950 . S
C1510 H1492 0.951 . S
C1510 C1511 1.366 . S
C1510 C1512 1.388 . S
C1511 C1510 1.366 . S
C1511 C1515 1.385 . S
C1512 H1493 0.951 . S
C1512 C1510 1.388 . S
C1512 C1513 1.366 . S
C1513 C1512 1.366 . S
C1513 C1514 1.414 . S
C1513 C1516 1.499 . S
C1514 H1494 0.950 . S
C1514 C1513 1.414 . S
C1514 C1515 1.374 . S
C1515 H1495 0.950 . S
C1515 C1511 1.385 . S
C1515 C1514 1.374 . S
C1516 C1513 1.499 . S
C1516 C1517 1.373 . S
C1516 C1518 1.389 . S
C1517 H1496 0.950 . S
C1517 C1516 1.373 . S
C1517 C1533 1.377 . S
C1518 C1516 1.389 . S
C1518 C1519 1.524 . S
C1518 C1532 1.377 . S
C1519 C1518 1.524 . S
C1519 C1520 1.397 . S
C1519 C1524 1.363 . S
C1520 H1497 0.950 . S
C1520 C1519 1.397 . S
C1520 C1521 1.334 . S
C1521 H1498 0.950 . S
C1521 C1520 1.334 . S
C1521 C1522 1.287 . S
C1522 C1521 1.287 . S
C1522 C1523 1.524 . S
C1522 H1541 0.913 . S
C1523 H1499 0.950 . S
C1523 C1522 1.524 . S
C1523 C1524 1.415 . S
C1524 H1500 0.950 . S
C1524 C1519 1.363 . S
C1524 C1523 1.415 . S
C1525 H1501 0.951 . S
C1525 C1526 1.366 . S
C1525 C1527 1.388 . S
C1526 C1525 1.366 . S
C1526 C1530 1.385 . S
C1527 H1502 0.951 . S
C1527 C1525 1.388 . S
C1527 C1528 1.366 . S
C1528 C1527 1.366 . S
C1528 C1529 1.414 . S
C1528 C1531 1.499 . S
C1529 H1503 0.950 . S
C1529 C1528 1.414 . S
C1529 C1530 1.374 . S
C1530 H1504 0.950 . S
C1530 C1526 1.385 . S
C1530 C1529 1.374 . S
C1531 C1528 1.499 . S
C1531 C1532 1.373 . S
C1531 C1533 1.389 . S
C1532 H1505 0.950 . S
C1532 C1518 1.377 . S
C1532 C1531 1.373 . S
C1533 C1517 1.377 . S
C1533 C1531 1.389 . S
C1533 C1534 1.524 . S
C1534 C1533 1.524 . S
C1534 C1535 1.397 . S
C1534 C1539 1.363 . S
C1535 H1506 0.950 . S
C1535 C1534 1.397 . S
C1535 C1536 1.334 . S
C1536 H1507 0.950 . S
C1536 C1535 1.334 . S
C1536 C1537 1.287 . S
C1537 C1536 1.287 . S
C1537 C1538 1.524 . S
C1537 H1540 0.999 . S
C1538 H1508 0.950 . S
C1538 C1537 1.524 . S
C1538 C1539 1.415 . S
C1539 H1509 0.950 . S
C1539 C1534 1.363 . S
C1539 C1538 1.415 . S
H1540 C1537 0.999 . S
H1541 C1522 0.913 . S
H1542 C1560 0.951 . S
H1543 C1562 0.951 . S
H1544 C1564 0.950 . S
H1545 C1565 0.950 . S
H1546 C1567 0.950 . S
H1547 C1570 0.950 . S
H1548 C1571 0.950 . S
H1549 C1573 0.950 . S
H1550 C1574 0.950 . S
H1551 C1575 0.951 . S
H1552 C1577 0.951 . S
H1553 C1579 0.950 . S
H1554 C1580 0.950 . S
H1555 C1582 0.950 . S
H1556 C1585 0.950 . S
H1557 C1586 0.950 . S
H1558 C1588 0.950 . S
H1559 C1589 0.950 . S
C1560 H1542 0.951 . S
C1560 C1561 1.366 . S
C1560 C1562 1.388 . S
C1561 C1560 1.366 . S
C1561 C1565 1.385 . S
C1562 H1543 0.951 . S
C1562 C1560 1.388 . S
C1562 C1563 1.366 . S
C1563 C1562 1.366 . S
C1563 C1564 1.414 . S
C1563 C1566 1.499 . S
C1564 H1544 0.950 . S
C1564 C1563 1.414 . S
C1564 C1565 1.374 . S
C1565 H1545 0.950 . S
C1565 C1561 1.385 . S
C1565 C1564 1.374 . S
C1566 C1563 1.499 . S
C1566 C1567 1.373 . S
C1566 C1568 1.389 . S
C1567 H1546 0.950 . S
C1567 C1566 1.373 . S
C1567 C1583 1.377 . S
C1568 C1566 1.389 . S
C1568 C1569 1.524 . S
C1568 C1582 1.377 . S
C1569 C1568 1.524 . S
C1569 C1570 1.397 . S
C1569 C1574 1.363 . S
C1570 H1547 0.950 . S
C1570 C1569 1.397 . S
C1570 C1571 1.334 . S
C1571 H1548 0.950 . S
C1571 C1570 1.334 . S
C1571 C1572 1.287 . S
C1572 C1571 1.287 . S
C1572 C1573 1.524 . S
C1572 H1591 0.913 . S
C1573 H1549 0.950 . S
C1573 C1572 1.524 . S
C1573 C1574 1.415 . S
C1574 H1550 0.950 . S
C1574 C1569 1.363 . S
C1574 C1573 1.415 . S
C1575 H1551 0.951 . S
C1575 C1576 1.366 . S
C1575 C1577 1.388 . S
C1576 C1575 1.366 . S
C1576 C1580 1.385 . S
C1577 H1552 0.951 . S
C1577 C1575 1.388 . S
C1577 C1578 1.366 . S
C1578 C1577 1.366 . S
C1578 C1579 1.414 . S
C1578 C1581 1.499 . S
C1579 H1553 0.950 . S
C1579 C1578 1.414 . S
C1579 C1580 1.374 . S
C1580 H1554 0.950 . S
C1580 C1576 1.385 . S
C1580 C1579 1.374 . S
C1581 C1578 1.499 . S
C1581 C1582 1.373 . S
C1581 C1583 1.389 . S
C1582 H1555 0.950 . S
C1582 C1568 1.377 . S
C1582 C1581 1.373 . S
C1583 C1567 1.377 . S
C1583 C1581 1.389 . S
C1583 C1584 1.524 . S
C1584 C1583 1.524 . S
C1584 C1585 1.397 . S
C1584 C1589 1.363 . S
C1585 H1556 0.950 . S
C1585 C1584 1.397 . S
C1585 C1586 1.334 . S
C1586 H1557 0.950 . S
C1586 C1585 1.334 . S
C1586 C1587 1.287 . S
C1587 C1586 1.287 . S
C1587 C1588 1.524 . S
C1587 H1590 0.999 . S
C1588 H1558 0.950 . S
C1588 C1587 1.524 . S
C1588 C1589 1.415 . S
C1589 H1559 0.950 . S
C1589 C1584 1.363 . S
C1589 C1588 1.415 . S
H1590 C1587 0.999 . S
H1591 C1572 0.913 . S
H1592 C1610 0.951 . S
H1593 C1612 0.951 . S
H1594 C1614 0.950 . S
H1595 C1615 0.950 . S
H1596 C1617 0.950 . S
H1597 C1620 0.950 . S
H1598 C1621 0.950 . S
H1599 C1623 0.950 . S
H1600 C1624 0.950 . S
H1601 C1625 0.951 . S
H1602 C1627 0.951 . S
H1603 C1629 0.950 . S
H1604 C1630 0.950 . S
H1605 C1632 0.950 . S
H1606 C1635 0.950 . S
H1607 C1636 0.950 . S
H1608 C1638 0.950 . S
H1609 C1639 0.950 . S
C1610 H1592 0.951 . S
C1610 C1611 1.366 . S
C1610 C1612 1.388 . S
C1611 C1610 1.366 . S
C1611 C1615 1.385 . S
C1612 H1593 0.951 . S
C1612 C1610 1.388 . S
C1612 C1613 1.366 . S
C1613 C1612 1.366 . S
C1613 C1614 1.414 . S
C1613 C1616 1.499 . S
C1614 H1594 0.950 . S
C1614 C1613 1.414 . S
C1614 C1615 1.374 . S
C1615 H1595 0.950 . S
C1615 C1611 1.385 . S
C1615 C1614 1.374 . S
C1616 C1613 1.499 . S
C1616 C1617 1.373 . S
C1616 C1618 1.389 . S
C1617 H1596 0.950 . S
C1617 C1616 1.373 . S
C1617 C1633 1.377 . S
C1618 C1616 1.389 . S
C1618 C1619 1.524 . S
C1618 C1632 1.377 . S
C1619 C1618 1.524 . S
C1619 C1620 1.397 . S
C1619 C1624 1.363 . S
C1620 H1597 0.950 . S
C1620 C1619 1.397 . S
C1620 C1621 1.334 . S
C1621 H1598 0.950 . S
C1621 C1620 1.334 . S
C1621 C1622 1.287 . S
C1622 C1621 1.287 . S
C1622 C1623 1.524 . S
C1622 H1641 0.913 . S
C1623 H1599 0.950 . S
C1623 C1622 1.524 . S
C1623 C1624 1.415 . S
C1624 H1600 0.950 . S
C1624 C1619 1.363 . S
C1624 C1623 1.415 . S
C1625 H1601 0.951 . S
C1625 C1626 1.366 . S
C1625 C1627 1.388 . S
C1626 C1625 1.366 . S
C1626 C1630 1.385 . S
C1627 H1602 0.951 . S
C1627 C1625 1.388 . S
C1627 C1628 1.366 . S
C1628 C1627 1.366 . S
C1628 C1629 1.414 . S
C1628 C1631 1.499 . S
C1629 H1603 0.950 . S
C1629 C1628 1.414 . S
C1629 C1630 1.374 . S
C1630 H1604 0.950 . S
C1630 C1626 1.385 . S
C1630 C1629 1.374 . S
C1631 C1628 1.499 . S
C1631 C1632 1.373 . S
C1631 C1633 1.389 . S
C1632 H1605 0.950 . S
C1632 C1618 1.377 . S
C1632 C1631 1.373 . S
C1633 C1617 1.377 . S
C1633 C1631 1.389 . S
C1633 C1634 1.524 . S
C1634 C1633 1.524 . S
C1634 C1635 1.397 . S
C1634 C1639 1.363 . S
C1635 H1606 0.950 . S
C1635 C1634 1.397 . S
C1635 C1636 1.334 . S
C1636 H1607 0.950 . S
C1636 C1635 1.334 . S
C1636 C1637 1.287 . S
C1637 C1636 1.287 . S
C1637 C1638 1.524 . S
C1637 H1640 0.999 . S
C1638 H1608 0.950 . S
C1638 C1637 1.524 . S
C1638 C1639 1.415 . S
C1639 H1609 0.950 . S
C1639 C1634 1.363 . S
C1639 C1638 1.415 . S
H1640 C1637 0.999 . S
H1641 C1622 0.913 . S
H1642 C1660 0.951 . S
H1643 C1662 0.951 . S
H1644 C1664 0.950 . S
H1645 C1665 0.950 . S
H1646 C1667 0.950 . S
H1647 C1670 0.950 . S
H1648 C1671 0.950 . S
H1649 C1673 0.950 . S
H1650 C1674 0.950 . S
H1651 C1675 0.951 . S
H1652 C1677 0.951 . S
H1653 C1679 0.950 . S
H1654 C1680 0.950 . S
H1655 C1682 0.950 . S
H1656 C1685 0.950 . S
H1657 C1686 0.950 . S
H1658 C1688 0.950 . S
H1659 C1689 0.950 . S
C1660 H1642 0.951 . S
C1660 C1661 1.366 . S
C1660 C1662 1.388 . S
C1661 C1660 1.366 . S
C1661 C1665 1.385 . S
C1662 H1643 0.951 . S
C1662 C1660 1.388 . S
C1662 C1663 1.366 . S
C1663 C1662 1.366 . S
C1663 C1664 1.414 . S
C1663 C1666 1.499 . S
C1664 H1644 0.950 . S
C1664 C1663 1.414 . S
C1664 C1665 1.374 . S
C1665 H1645 0.950 . S
C1665 C1661 1.385 . S
C1665 C1664 1.374 . S
C1666 C1663 1.499 . S
C1666 C1667 1.373 . S
C1666 C1668 1.389 . S
C1667 H1646 0.950 . S
C1667 C1666 1.373 . S
C1667 C1683 1.377 . S
C1668 C1666 1.389 . S
C1668 C1669 1.524 . S
C1668 C1682 1.377 . S
C1669 C1668 1.524 . S
C1669 C1670 1.397 . S
C1669 C1674 1.363 . S
C1670 H1647 0.950 . S
C1670 C1669 1.397 . S
C1670 C1671 1.334 . S
C1671 H1648 0.950 . S
C1671 C1670 1.334 . S
C1671 C1672 1.287 . S
C1672 C1671 1.287 . S
C1672 C1673 1.524 . S
C1672 H1691 0.913 . S
C1673 H1649 0.950 . S
C1673 C1672 1.524 . S
C1673 C1674 1.415 . S
C1674 H1650 0.950 . S
C1674 C1669 1.363 . S
C1674 C1673 1.415 . S
C1675 H1651 0.951 . S
C1675 C1676 1.366 . S
C1675 C1677 1.388 . S
C1676 C1675 1.366 . S
C1676 C1680 1.385 . S
C1677 H1652 0.951 . S
C1677 C1675 1.388 . S
C1677 C1678 1.366 . S
C1678 C1677 1.366 . S
C1678 C1679 1.414 . S
C1678 C1681 1.499 . S
C1679 H1653 0.950 . S
C1679 C1678 1.414 . S
C1679 C1680 1.374 . S
C1680 H1654 0.950 . S
C1680 C1676 1.385 . S
C1680 C1679 1.374 . S
C1681 C1678 1.499 . S
C1681 C1682 1.373 . S
C1681 C1683 1.389 . S
C1682 H1655 0.950 . S
C1682 C1668 1.377 . S
C1682 C1681 1.373 . S
C1683 C1667 1.377 . S
C1683 C1681 1.389 . S
C1683 C1684 1.524 . S
C1684 C1683 1.524 . S
C1684 C1685 1.397 . S
C1684 C1689 1.363 . S
C1685 H1656 0.950 . S
C1685 C1684 1.397 . S
C1685 C1686 1.334 . S
C1686 H1657 0.950 . S
C1686 C1685 1.334 . S
C1686 C1687 1.287 . S
C1687 C1686 1.287 . S
C1687 C1688 1.524 . S
C1687 H1690 0.999 . S
C1688 H1658 0.950 . S
C1688 C1687 1.524 . S
C1688 C1689 1.415 . S
C1689 H1659 0.950 . S
C1689 C1684 1.363 . S
C1689 C1688 1.415 . S
H1690 C1687 0.999 . S
H1691 C1672 0.913 . S
H1692 C1710 0.951 . S
H1693 C1712 0.951 . S
H1694 C1714 0.950 . S
H1695 C1715 0.950 . S
H1696 C1717 0.950 . S
H1697 C1720 0.950 . S
H1698 C1721 0.950 . S
H1699 C1723 0.950 . S
H1700 C1724 0.950 . S
H1701 C1725 0.951 . S
H1702 C1727 0.951 . S
H1703 C1729 0.950 . S
H1704 C1730 0.950 . S
H1705 C1732 0.950 . S
H1706 C1735 0.950 . S
H1707 C1736 0.950 . S
H1708 C1738 0.950 . S
H1709 C1739 0.950 . S
C1710 H1692 0.951 . S
C1710 C1711 1.366 . S
C1710 C1712 1.388 . S
C1711 C1710 1.366 . S
C1711 C1715 1.385 . S
C1712 H1693 0.951 . S
C1712 C1710 1.388 . S
C1712 C1713 1.366 . S
C1713 C1712 1.366 . S
C1713 C1714 1.414 . S
C1713 C1716 1.499 . S
C1714 H1694 0.950 . S
C1714 C1713 1.414 . S
C1714 C1715 1.374 . S
C1715 H1695 0.950 . S
C1715 C1711 1.385 . S
C1715 C1714 1.374 . S
C1716 C1713 1.499 . S
C1716 C1717 1.373 . S
C1716 C1718 1.389 . S
C1717 H1696 0.950 . S
C1717 C1716 1.373 . S
C1717 C1733 1.377 . S
C1718 C1716 1.389 . S
C1718 C1719 1.524 . S
C1718 C1732 1.377 . S
C1719 C1718 1.524 . S
C1719 C1720 1.397 . S
C1719 C1724 1.363 . S
C1720 H1697 0.950 . S
C1720 C1719 1.397 . S
C1720 C1721 1.334 . S
C1721 H1698 0.950 . S
C1721 C1720 1.334 . S
C1721 C1722 1.287 . S
C1722 C1721 1.287 . S
C1722 C1723 1.524 . S
C1722 H1741 0.913 . S
C1723 H1699 0.950 . S
C1723 C1722 1.524 . S
C1723 C1724 1.415 . S
C1724 H1700 0.950 . S
C1724 C1719 1.363 . S
C1724 C1723 1.415 . S
C1725 H1701 0.951 . S
C1725 C1726 1.366 . S
C1725 C1727 1.388 . S
C1726 C1725 1.366 . S
C1726 C1730 1.385 . S
C1727 H1702 0.951 . S
C1727 C1725 1.388 . S
C1727 C1728 1.366 . S
C1728 C1727 1.366 . S
C1728 C1729 1.414 . S
C1728 C1731 1.499 . S
C1729 H1703 0.950 . S
C1729 C1728 1.414 . S
C1729 C1730 1.374 . S
C1730 H1704 0.950 . S
C1730 C1726 1.385 . S
C1730 C1729 1.374 . S
C1731 C1728 1.499 . S
C1731 C1732 1.373 . S
C1731 C1733 1.389 . S
C1732 H1705 0.950 . S
C1732 C1718 1.377 . S
C1732 C1731 1.373 . S
C1733 C1717 1.377 . S
C1733 C1731 1.389 . S
C1733 C1734 1.524 . S
C1734 C1733 1.524 . S
C1734 C1735 1.397 . S
C1734 C1739 1.363 . S
C1735 H1706 0.950 . S
C1735 C1734 1.397 . S
C1735 C1736 1.334 . S
C1736 H1707 0.950 . S
C1736 C1735 1.334 . S
C1736 C1737 1.287 . S
C1737 C1736 1.287 . S
C1737 C1738 1.524 . S
C1737 H1740 0.999 . S
C1738 H1708 0.950 . S
C1738 C1737 1.524 . S
C1738 C1739 1.415 . S
C1739 H1709 0.950 . S
C1739 C1734 1.363 . S
C1739 C1738 1.415 . S
H1740 C1737 0.999 . S
H1741 C1722 0.913 . S
H1742 C1760 0.951 . S
H1743 C1762 0.951 . S
H1744 C1764 0.950 . S
H1745 C1765 0.950 . S
H1746 C1767 0.950 . S
H1747 C1770 0.950 . S
H1748 C1771 0.950 . S
H1749 C1773 0.950 . S
H1750 C1774 0.950 . S
H1751 C1775 0.951 . S
H1752 C1777 0.951 . S
H1753 C1779 0.950 . S
H1754 C1780 0.950 . S
H1755 C1782 0.950 . S
H1756 C1785 0.950 . S
H1757 C1786 0.950 . S
H1758 C1788 0.950 . S
H1759 C1789 0.950 . S
C1760 H1742 0.951 . S
C1760 C1761 1.366 . S
C1760 C1762 1.388 . S
C1761 C1760 1.366 . S
C1761 C1765 1.385 . S
C1762 H1743 0.951 . S
C1762 C1760 1.388 . S
C1762 C1763 1.366 . S
C1763 C1762 1.366 . S
C1763 C1764 1.414 . S
C1763 C1766 1.499 . S
C1764 H1744 0.950 . S
C1764 C1763 1.414 . S
C1764 C1765 1.374 . S
C1765 H1745 0.950 . S
C1765 C1761 1.385 . S
C1765 C1764 1.374 . S
C1766 C1763 1.499 . S
C1766 C1767 1.373 . S
C1766 C1768 1.389 . S
C1767 H1746 0.950 . S
C1767 C1766 1.373 . S
C1767 C1783 1.377 . S
C1768 C1766 1.389 . S
C1768 C1769 1.524 . S
C1768 C1782 1.377 . S
C1769 C1768 1.524 . S
C1769 C1770 1.397 . S
C1769 C1774 1.363 . S
C1770 H1747 0.950 . S
C1770 C1769 1.397 . S
C1770 C1771 1.334 . S
C1771 H1748 0.950 . S
C1771 C1770 1.334 . S
C1771 C1772 1.287 . S
C1772 C1771 1.287 . S
C1772 C1773 1.524 . S
C1772 H1791 0.913 . S
C1773 H1749 0.950 . S
C1773 C1772 1.524 . S
C1773 C1774 1.415 . S
C1774 H1750 0.950 . S
C1774 C1769 1.363 . S
C1774 C1773 1.415 . S
C1775 H1751 0.951 . S
C1775 C1776 1.366 . S
C1775 C1777 1.388 . S
C1776 C1775 1.366 . S
C1776 C1780 1.385 . S
C1777 H1752 0.951 . S
C1777 C1775 1.388 . S
C1777 C1778 1.366 . S
C1778 C1777 1.366 . S
C1778 C1779 1.414 . S
C1778 C1781 1.499 . S
C1779 H1753 0.950 . S
C1779 C1778 1.414 . S
C1779 C1780 1.374 . S
C1780 H1754 0.950 . S
C1780 C1776 1.385 . S
C1780 C1779 1.374 . S
C1781 C1778 1.499 . S
C1781 C1782 1.373 . S
C1781 C1783 1.389 . S
C1782 H1755 0.950 . S
C1782 C1768 1.377 . S
C1782 C1781 1.373 . S
C1783 C1767 1.377 . S
C1783 C1781 1.389 . S
C1783 C1784 1.524 . S
C1784 C1783 1.524 . S
C1784 C1785 1.397 . S
C1784 C1789 1.363 . S
C1785 H1756 0.950 . S
C1785 C1784 1.397 . S
C1785 C1786 1.334 . S
C1786 H1757 0.950 . S
C1786 C1785 1.334 . S
C1786 C1787 1.287 . S
C1787 C1786 1.287 . S
C1787 C1788 1.524 . S
C1787 H1790 0.999 . S
C1788 H1758 0.950 . S
C1788 C1787 1.524 . S
C1788 C1789 1.415 . S
C1789 H1759 0.950 . S
C1789 C1784 1.363 . S
C1789 C1788 1.415 . S
H1790 C1787 0.999 . S
H1791 C1772 0.913 . S
H1792 C1810 0.951 . S
H1793 C1812 0.951 . S
H1794 C1814 0.950 . S
H1795 C1815 0.950 . S
H1796 C1817 0.950 . S
H1797 C1820 0.950 . S
H1798 C1821 0.950 . S
H1799 C1823 0.950 . S
H1800 C1824 0.950 . S
H1801 C1825 0.951 . S
H1802 C1827 0.951 . S
H1803 C1829 0.950 . S
H1804 C1830 0.950 . S
H1805 C1832 0.950 . S
H1806 C1835 0.950 . S
H1807 C1836 0.950 . S
H1808 C1838 0.950 . S
H1809 C1839 0.950 . S
C1810 H1792 0.951 . S
C1810 C1811 1.366 . S
C1810 C1812 1.388 . S
C1811 C1810 1.366 . S
C1811 C1815 1.385 . S
C1812 H1793 0.951 . S
C1812 C1810 1.388 . S
C1812 C1813 1.366 . S
C1813 C1812 1.366 . S
C1813 C1814 1.414 . S
C1813 C1816 1.499 . S
C1814 H1794 0.950 . S
C1814 C1813 1.414 . S
C1814 C1815 1.374 . S
C1815 H1795 0.950 . S
C1815 C1811 1.385 . S
C1815 C1814 1.374 . S
C1816 C1813 1.499 . S
C1816 C1817 1.373 . S
C1816 C1818 1.389 . S
C1817 H1796 0.950 . S
C1817 C1816 1.373 . S
C1817 C1833 1.377 . S
C1818 C1816 1.389 . S
C1818 C1819 1.524 . S
C1818 C1832 1.377 . S
C1819 C1818 1.524 . S
C1819 C1820 1.397 . S
C1819 C1824 1.363 . S
C1820 H1797 0.950 . S
C1820 C1819 1.397 . S
C1820 C1821 1.334 . S
C1821 H1798 0.950 . S
C1821 C1820 1.334 . S
C1821 C1822 1.287 . S
C1822 C1821 1.287 . S
C1822 C1823 1.524 . S
C1822 H1841 0.913 . S
C1823 H1799 0.950 . S
C1823 C1822 1.524 . S
C1823 C1824 1.415 . S
C1824 H1800 0.950 . S
C1824 C1819 1.363 . S
C1824 C1823 1.415 . S
C1825 H1801 0.951 . S
C1825 C1826 1.366 . S
C1825 C1827 1.388 . S
C1826 C1825 1.366 . S
C1826 C1830 1.385 . S
C1827 H1802 0.951 . S
C1827 C1825 1.388 . S
C1827 C1828 1.366 . S
C1828 C1827 1.366 . S
C1828 C1829 1.414 . S
C1828 C1831 1.499 . S
C1829 H1803 0.950 . S
C1829 C1828 1.414 . S
C1829 C1830 1.374 . S
C1830 H1804 0.950 . S
C1830 C1826 1.385 . S
C1830 C1829 1.374 . S
C1831 C1828 1.499 . S
C1831 C1832 1.373 . S
C1831 C1833 1.389 . S
C1832 H1805 0.950 . S
C1832 C1818 1.377 . S
C1832 C1831 1.373 . S
C1833 C1817 1.377 . S
C1833 C1831 1.389 . S
C1833 C1834 1.524 . S
C1834 C1833 1.524 . S
C1834 C1835 1.397 . S
C1834 C1839 1.363 . S
C1835 H1806 0.950 . S
C1835 C1834 1.397 . S
C1835 C1836 1.334 . S
C1836 H1807 0.950 . S
C1836 C1835 1.334 . S
C1836 C1837 1.287 . S
C1837 C1836 1.287 . S
C1837 C1838 1.524 . S
C1837 H1840 0.999 . S
C1838 H1808 0.950 . S
C1838 C1837 1.524 . S
C1838 C1839 1.415 . S
C1839 H1809 0.950 . S
C1839 C1834 1.363 . S
C1839 C1838 1.415 . S
H1840 C1837 0.999 . S
H1841 C1822 0.913 . S
H1842 C1860 0.951 . S
H1843 C1862 0.951 . S
H1844 C1864 0.950 . S
H1845 C1865 0.950 . S
H1846 C1867 0.950 . S
H1847 C1870 0.950 . S
H1848 C1871 0.950 . S
H1849 C1873 0.950 . S
H1850 C1874 0.950 . S
H1851 C1875 0.951 . S
H1852 C1877 0.951 . S
H1853 C1879 0.950 . S
H1854 C1880 0.950 . S
H1855 C1882 0.950 . S
H1856 C1885 0.950 . S
H1857 C1886 0.950 . S
H1858 C1888 0.950 . S
H1859 C1889 0.950 . S
C1860 H1842 0.951 . S
C1860 C1861 1.366 . S
C1860 C1862 1.388 . S
C1861 C1860 1.366 . S
C1861 C1865 1.385 . S
C1862 H1843 0.951 . S
C1862 C1860 1.388 . S
C1862 C1863 1.366 . S
C1863 C1862 1.366 . S
C1863 C1864 1.414 . S
C1863 C1866 1.499 . S
C1864 H1844 0.950 . S
C1864 C1863 1.414 . S
C1864 C1865 1.374 . S
C1865 H1845 0.950 . S
C1865 C1861 1.385 . S
C1865 C1864 1.374 . S
C1866 C1863 1.499 . S
C1866 C1867 1.373 . S
C1866 C1868 1.389 . S
C1867 H1846 0.950 . S
C1867 C1866 1.373 . S
C1867 C1883 1.377 . S
C1868 C1866 1.389 . S
C1868 C1869 1.524 . S
C1868 C1882 1.377 . S
C1869 C1868 1.524 . S
C1869 C1870 1.397 . S
C1869 C1874 1.363 . S
C1870 H1847 0.950 . S
C1870 C1869 1.397 . S
C1870 C1871 1.334 . S
C1871 H1848 0.950 . S
C1871 C1870 1.334 . S
C1871 C1872 1.287 . S
C1872 C1871 1.287 . S
C1872 C1873 1.524 . S
C1872 H1891 0.913 . S
C1873 H1849 0.950 . S
C1873 C1872 1.524 . S
C1873 C1874 1.415 . S
C1874 H1850 0.950 . S
C1874 C1869 1.363 . S
C1874 C1873 1.415 . S
C1875 H1851 0.951 . S
C1875 C1876 1.366 . S
C1875 C1877 1.388 . S
C1876 C1875 1.366 . S
C1876 C1880 1.385 . S
C1877 H1852 0.951 . S
C1877 C1875 1.388 . S
C1877 C1878 1.366 . S
C1878 C1877 1.366 . S
C1878 C1879 1.414 . S
C1878 C1881 1.499 . S
C1879 H1853 0.950 . S
C1879 C1878 1.414 . S
C1879 C1880 1.374 . S
C1880 H1854 0.950 . S
C1880 C1876 1.385 . S
C1880 C1879 1.374 . S
C1881 C1878 1.499 . S
C1881 C1882 1.373 . S
C1881 C1883 1.389 . S
C1882 H1855 0.950 . S
C1882 C1868 1.377 . S
C1882 C1881 1.373 . S
C1883 C1867 1.377 . S
C1883 C1881 1.389 . S
C1883 C1884 1.524 . S
C1884 C1883 1.524 . S
C1884 C1885 1.397 . S
C1884 C1889 1.363 . S
C1885 H1856 0.950 . S
C1885 C1884 1.397 . S
C1885 C1886 1.334 . S
C1886 H1857 0.950 . S
C1886 C1885 1.334 . S
C1886 C1887 1.287 . S
C1887 C1886 1.287 . S
C1887 C1888 1.524 . S
C1887 H1890 0.999 . S
C1888 H1858 0.950 . S
C1888 C1887 1.524 . S
C1888 C1889 1.415 . S
C1889 H1859 0.950 . S
C1889 C1884 1.363 . S
C1889 C1888 1.415 . S
H1890 C1887 0.999 . S
H1891 C1872 0.913 . S
H1892 C1910 0.951 . S
H1893 C1912 0.951 . S
H1894 C1914 0.950 . S
H1895 C1915 0.950 . S
H1896 C1917 0.950 . S
H1897 C1920 0.950 . S
H1898 C1921 0.950 . S
H1899 C1923 0.950 . S
H1900 C1924 0.950 . S
H1901 C1925 0.951 . S
H1902 C1927 0.951 . S
H1903 C1929 0.950 . S
H1904 C1930 0.950 . S
H1905 C1932 0.950 . S
H1906 C1935 0.950 . S
H1907 C1936 0.950 . S
H1908 C1938 0.950 . S
H1909 C1939 0.950 . S
C1910 H1892 0.951 . S
C1910 C1911 1.366 . S
C1910 C1912 1.388 . S
C1911 C1910 1.366 . S
C1911 C1915 1.385 . S
C1912 H1893 0.951 . S
C1912 C1910 1.388 . S
C1912 C1913 1.366 . S
C1913 C1912 1.366 . S
C1913 C1914 1.414 . S
C1913 C1916 1.499 . S
C1914 H1894 0.950 . S
C1914 C1913 1.414 . S
C1914 C1915 1.374 . S
C1915 H1895 0.950 . S
C1915 C1911 1.385 . S
C1915 C1914 1.374 . S
C1916 C1913 1.499 . S
C1916 C1917 1.373 . S
C1916 C1918 1.389 . S
C1917 H1896 0.950 . S
C1917 C1916 1.373 . S
C1917 C1933 1.377 . S
C1918 C1916 1.389 . S
C1918 C1919 1.524 . S
C1918 C1932 1.377 . S
C1919 C1918 1.524 . S
C1919 C1920 1.397 . S
C1919 C1924 1.363 . S
C1920 H1897 0.950 . S
C1920 C1919 1.397 . S
C1920 C1921 1.334 . S
C1921 H1898 0.950 . S
C1921 C1920 1.334 . S
C1921 C1922 1.287 . S
C1922 C1921 1.287 . S
C1922 C1923 1.524 . S
C1922 H1941 0.913 . S
C1923 H1899 0.950 . S
C1923 C1922 1.524 . S
C1923 C1924 1.415 . S
C1924 H1900 0.950 . S
C1924 C1919 1.363 . S
C1924 C1923 1.415 . S
C1925 H1901 0.951 . S
C1925 C1926 1.366 . S
C1925 C1927 1.388 . S
C1926 C1925 1.366 . S
C1926 C1930 1.385 . S
C1927 H1902 0.951 . S
C1927 C1925 1.388 . S
C1927 C1928 1.366 . S
C1928 C1927 1.366 . S
C1928 C1929 1.414 . S
C1928 C1931 1.499 . S
C1929 H1903 0.950 . S
C1929 C1928 1.414 . S
C1929 C1930 1.374 . S
C1930 H1904 0.950 . S
C1930 C1926 1.385 . S
C1930 C1929 1.374 . S
C1931 C1928 1.499 . S
C1931 C1932 1.373 . S
C1931 C1933 1.389 . S
C1932 H1905 0.950 . S
C1932 C1918 1.377 . S
C1932 C1931 1.373 . S
C1933 C1917 1.377 . S
C1933 C1931 1.389 . S
C1933 C1934 1.524 . S
C1934 C1933 1.524 . S
C1934 C1935 1.397 . S
C1934 C1939 1.363 . S
C1935 H1906 0.950 . S
C1935 C1934 1.397 . S
C1935 C1936 1.334 . S
C1936 H1907 0.950 . S
C1936 C1935 1.334 . S
C1936 C1937 1.287 . S
C1937 C1936 1.287 . S
C1937 C1938 1.524 . S
C1937 H1940 0.999 . S
C1938 H1908 0.950 . S
C1938 C1937 1.524 . S
C1938 C1939 1.415 . S
C1939 H1909 0.950 . S
C1939 C1934 1.363 . S
C1939 C1938 1.415 . S
H1940 C1937 0.999 . S
H1941 C1922 0.913 . S
H1942 C1960 0.951 . S
H1943 C1962 0.951 . S
H1944 C1964 0.950 . S
H1945 C1965 0.950 . S
H1946 C1967 0.950 . S
H1947 C1970 0.950 . S
H1948 C1971 0.950 . S
H1949 C1973 0.950 . S
H1950 C1974 0.950 . S
H1951 C1975 0.951 . S
H1952 C1977 0.951 . S
H1953 C1979 0.950 . S
H1954 C1980 0.950 . S
H1955 C1982 0.950 . S
H1956 C1985 0.950 . S
H1957 C1986 0.950 . S
H1958 C1988 0.950 . S
H1959 C1989 0.950 . S
C1960 H1942 0.951 . S
C1960 C1961 1.366 . S
C1960 C1962 1.388 . S
C1961 C1960 1.366 . S
C1961 C1965 1.385 . S
C1962 H1943 0.951 . S
C1962 C1960 1.388 . S
C1962 C1963 1.366 . S
C1963 C1962 1.366 . S
C1963 C1964 1.414 . S
C1963 C1966 1.499 . S
C1964 H1944 0.950 . S
C1964 C1963 1.414 . S
C1964 C1965 1.374 . S
C1965 H1945 0.950 . S
C1965 C1961 1.385 . S
C1965 C1964 1.374 . S
C1966 C1963 1.499 . S
C1966 C1967 1.373 . S
C1966 C1968 1.389 . S
C1967 H1946 0.950 . S
C1967 C1966 1.373 . S
C1967 C1983 1.377 . S
C1968 C1966 1.389 . S
C1968 C1969 1.524 . S
C1968 C1982 1.377 . S
C1969 C1968 1.524 . S
C1969 C1970 1.397 . S
C1969 C1974 1.363 . S
C1970 H1947 0.950 . S
C1970 C1969 1.397 . S
C1970 C1971 1.334 . S
C1971 H1948 0.950 . S
C1971 C1970 1.334 . S
C1971 C1972 1.287 . S
C1972 C1971 1.287 . S
C1972 C1973 1.524 . S
C1972 H1991 0.913 . S
C1973 H1949 0.950 . S
C1973 C1972 1.524 . S
C1973 C1974 1.415 . S
C1974 H1950 0.950 . S
C1974 C1969 1.363 . S
C1974 C1973 1.415 . S
C1975 H1951 0.951 . S
C1975 C1976 1.366 . S
C1975 C1977 1.388 . S
C1976 C1975 1.366 . S
C1976 C1980 1.385 . S
C1977 H1952 0.951 . S
C1977 C1975 1.388 . S
C1977 C1978 1.366 . S
C1978 C1977 1.366 . S
C1978 C1979 1.414 . S
C1978 C1981 1.499 . S
C1979 H1953 0.950 . S
C1979 C1978 1.414 . S
C1979 C1980 1.374 . S
C1980 H1954 0.950 . S
C1980 C1976 1.385 . S
C1980 C1979 1.374 . S
C1981 C1978 1.499 . S
C1981 C1982 1.373 . S
C1981 C1983 1.389 . S
C1982 H1955 0.950 . S
C1982 C1968 1.377 . S
C1982 C1981 1.373 . S
C1983 C1967 1.377 . S
C1983 C1981 1.389 . S
C1983 C1984 1.524 . S
C1984 C1983 1.524 . S
C1984 C1985 1.397 . S
C1984 C1989 1.363 . S
C1985 H1956 0.950 . S
C1985 C1984 1.397 . S
C1985 C1986 1.334 . S
C1986 H1957 0.950 . S
C1986 C1985 1.334 . S
C1986 C1987 1.287 . S
C1987 C1986 1.287 . S
C1987 C1988 1.524 . S
C1987 H1990 0.999 . S
C1988 H1958 0.950 . S
C1988 C1987 1.524 . S
C1988 C1989 1.415 . S
C1989 H1959 0.950 . S
C1989 C1984 1.363 . S
C1989 C1988 1.415 . S
H1990 C1987 0.999 . S
H1991 C1972 0.913 . S
H1992 C2010 0.951 . S
H1993 C2012 0.951 . S
H1994 C2014 0.950 . S
H1995 C2015 0.950 . S
H1996 C2017 0.950 . S
H1997 C2020 0.950 . S
H1998 C2021 0.950 . S
H1999 C2023 0.950 . S
H2000 C2024 0.950 . S
H2001 C2025 0.951 . S
H2002 C2027 0.951 . S
H2003 C2029 0.950 . S
H2004 C2030 0.950 . S
H2005 C2032 0.950 . S
H2006 C2035 0.950 . S
H2007 C2036 0.950 . S
H2008 C2038 0.950 . S
H2009 C2039 0.950 . S
C2010 H1992 0.951 . S
C2010 C2011 1.366 . S
C2010 C2012 1.388 . S
C2011 C2010 1.366 . S
C2011 C2015 1.385 . S
C2012 H1993 0.951 . S
C2012 C2010 1.388 . S
C2012 C2013 1.366 . S
C2013 C2012 1.366 . S
C2013 C2014 1.414 . S
C2013 C2016 1.499 . S
C2014 H1994 0.950 . S
C2014 C2013 1.414 . S
C2014 C2015 1.374 . S
C2015 H1995 0.950 . S
C2015 C2011 1.385 . S
C2015 C2014 1.374 . S
C2016 C2013 1.499 . S
C2016 C2017 1.373 1_545 S
C2016 C2018 1.389 . S
C2017 H1996 0.950 . S
C2017 C2016 1.373 1_565 S
C2017 C2033 1.377 . S
C2018 C2016 1.389 . S
C2018 C2019 1.524 . S
C2018 C2032 1.377 . S
C2019 C2018 1.524 . S
C2019 C2020 1.397 . S
C2019 C2024 1.363 . S
C2020 H1997 0.950 . S
C2020 C2019 1.397 . S
C2020 C2021 1.334 . S
C2021 H1998 0.950 . S
C2021 C2020 1.334 . S
C2021 C2022 1.287 . S
C2022 C2021 1.287 . S
C2022 C2023 1.524 . S
C2022 H2041 0.913 . S
C2023 H1999 0.950 . S
C2023 C2022 1.524 . S
C2023 C2024 1.415 . S
C2024 H2000 0.950 . S
C2024 C2019 1.363 . S
C2024 C2023 1.415 . S
C2025 H2001 0.951 . S
C2025 C2026 1.366 . S
C2025 C2027 1.388 . S
C2026 C2025 1.366 . S
C2026 C2030 1.385 . S
C2027 H2002 0.951 . S
C2027 C2025 1.388 . S
C2027 C2028 1.366 . S
C2028 C2027 1.366 . S
C2028 C2029 1.414 . S
C2028 C2031 1.499 . S
C2029 H2003 0.950 . S
C2029 C2028 1.414 . S
C2029 C2030 1.374 . S
C2030 H2004 0.950 . S
C2030 C2026 1.385 . S
C2030 C2029 1.374 . S
C2031 C2028 1.499 . S
C2031 C2032 1.373 1_565 S
C2031 C2033 1.389 . S
C2032 H2005 0.950 . S
C2032 C2018 1.377 . S
C2032 C2031 1.373 1_545 S
C2033 C2017 1.377 . S
C2033 C2031 1.389 . S
C2033 C2034 1.524 . S
C2034 C2033 1.524 . S
C2034 C2035 1.397 . S
C2034 C2039 1.363 . S
C2035 H2006 0.950 . S
C2035 C2034 1.397 . S
C2035 C2036 1.334 . S
C2036 H2007 0.950 . S
C2036 C2035 1.334 . S
C2036 C2037 1.287 . S
C2037 C2036 1.287 . S
C2037 C2038 1.524 . S
C2037 H2040 0.999 . S
C2038 H2008 0.950 . S
C2038 C2037 1.524 . S
C2038 C2039 1.415 . S
C2039 H2009 0.950 . S
C2039 C2034 1.363 . S
C2039 C2038 1.415 . S
H2040 C2037 0.999 . S
H2041 C2022 0.913 . S
H2042 C2060 0.951 . S
H2043 C2062 0.951 . S
H2044 C2064 0.950 . S
H2045 C2065 0.950 . S
H2046 C2067 0.950 . S
H2047 C2070 0.950 . S
H2048 C2071 0.950 . S
H2049 C2073 0.950 . S
H2050 C2074 0.950 . S
H2051 C2075 0.951 . S
H2052 C2077 0.951 . S
H2053 C2079 0.950 . S
H2054 C2080 0.950 . S
H2055 C2082 0.950 . S
H2056 C2085 0.950 . S
H2057 C2086 0.950 . S
H2058 C2088 0.950 . S
H2059 C2089 0.950 . S
C2060 H2042 0.951 . S
C2060 C2061 1.366 . S
C2060 C2062 1.388 . S
C2061 C2060 1.366 . S
C2061 C2065 1.385 . S
C2062 H2043 0.951 . S
C2062 C2060 1.388 . S
C2062 C2063 1.366 . S
C2063 C2062 1.366 . S
C2063 C2064 1.414 . S
C2063 C2066 1.499 . S
C2064 H2044 0.950 . S
C2064 C2063 1.414 . S
C2064 C2065 1.374 . S
C2065 H2045 0.950 . S
C2065 C2061 1.385 . S
C2065 C2064 1.374 . S
C2066 C2063 1.499 . S
C2066 C2067 1.373 . S
C2066 C2068 1.389 . S
C2067 H2046 0.950 . S
C2067 C2066 1.373 . S
C2067 C2083 1.377 . S
C2068 C2066 1.389 . S
C2068 C2069 1.524 . S
C2068 C2082 1.377 . S
C2069 C2068 1.524 . S
C2069 C2070 1.397 . S
C2069 C2074 1.363 . S
C2070 H2047 0.950 . S
C2070 C2069 1.397 . S
C2070 C2071 1.334 . S
C2071 H2048 0.950 . S
C2071 C2070 1.334 . S
C2071 C2072 1.287 . S
C2072 C2071 1.287 . S
C2072 C2073 1.524 . S
C2072 H2091 0.913 . S
C2073 H2049 0.950 . S
C2073 C2072 1.524 . S
C2073 C2074 1.415 . S
C2074 H2050 0.950 . S
C2074 C2069 1.363 . S
C2074 C2073 1.415 . S
C2075 H2051 0.951 . S
C2075 C2076 1.366 . S
C2075 C2077 1.388 . S
C2076 C2075 1.366 . S
C2076 C2080 1.385 . S
C2077 H2052 0.951 . S
C2077 C2075 1.388 . S
C2077 C2078 1.366 . S
C2078 C2077 1.366 . S
C2078 C2079 1.414 . S
C2078 C2081 1.499 . S
C2079 H2053 0.950 . S
C2079 C2078 1.414 . S
C2079 C2080 1.374 . S
C2080 H2054 0.950 . S
C2080 C2076 1.385 . S
C2080 C2079 1.374 . S
C2081 C2078 1.499 . S
C2081 C2082 1.373 . S
C2081 C2083 1.389 . S
C2082 H2055 0.950 . S
C2082 C2068 1.377 . S
C2082 C2081 1.373 . S
C2083 C2067 1.377 . S
C2083 C2081 1.389 . S
C2083 C2084 1.524 . S
C2084 C2083 1.524 . S
C2084 C2085 1.397 . S
C2084 C2089 1.363 . S
C2085 H2056 0.950 . S
C2085 C2084 1.397 . S
C2085 C2086 1.334 . S
C2086 H2057 0.950 . S
C2086 C2085 1.334 . S
C2086 C2087 1.287 . S
C2087 C2086 1.287 . S
C2087 C2088 1.524 . S
C2087 H2090 0.999 . S
C2088 H2058 0.950 . S
C2088 C2087 1.524 . S
C2088 C2089 1.415 . S
C2089 H2059 0.950 . S
C2089 C2084 1.363 . S
C2089 C2088 1.415 . S
H2090 C2087 0.999 . S
H2091 C2072 0.913 . S
H2092 C2110 0.951 . S
H2093 C2112 0.951 . S
H2094 C2114 0.950 . S
H2095 C2115 0.950 . S
H2096 C2117 0.950 . S
H2097 C2120 0.942 1_455 S
H2098 C2121 0.950 1_455 S
H2099 C2123 0.950 . S
H2100 C2124 0.950 . S
H2101 C2125 0.951 . S
H2102 C2127 0.951 . S
H2103 C2129 0.950 . S
H2104 C2130 0.950 . S
H2105 C2132 0.950 . S
H2106 C2135 0.942 1_655 S
H2107 C2136 0.950 1_655 S
H2108 C2138 0.950 . S
H2109 C2139 0.950 . S
C2110 H2092 0.951 . S
C2110 C2111 1.366 . S
C2110 C2112 1.388 . S
C2111 C2110 1.366 . S
C2111 C2115 1.385 . S
C2112 H2093 0.951 . S
C2112 C2110 1.388 . S
C2112 C2113 1.366 . S
C2113 C2112 1.366 . S
C2113 C2114 1.414 . S
C2113 C2116 1.499 . S
C2114 H2094 0.950 . S
C2114 C2113 1.414 . S
C2114 C2115 1.374 . S
C2115 H2095 0.950 . S
C2115 C2111 1.385 . S
C2115 C2114 1.374 . S
C2116 C2113 1.499 . S
C2116 C2117 1.373 . S
C2116 C2118 1.389 1_455 S
C2117 H2096 0.950 . S
C2117 C2116 1.373 . S
C2117 C2133 1.377 . S
C2118 C2116 1.389 1_655 S
C2118 C2119 1.524 . S
C2118 C2132 1.377 . S
C2119 C2118 1.524 . S
C2119 C2120 1.403 . S
C2119 C2124 1.363 . S
C2120 H2097 0.942 1_655 S
C2120 C2119 1.403 . S
C2120 C2121 1.335 . S
C2121 H2098 0.950 1_655 S
C2121 C2120 1.335 . S
C2121 C2122 1.287 . S
C2122 C2121 1.287 . S
C2122 C2123 1.524 . S
C2122 H2141 0.913 . S
C2123 H2099 0.950 . S
C2123 C2122 1.524 . S
C2123 C2124 1.415 . S
C2124 H2100 0.950 . S
C2124 C2119 1.363 . S
C2124 C2123 1.415 . S
C2125 H2101 0.951 . S
C2125 C2126 1.366 . S
C2125 C2127 1.388 . S
C2126 C2125 1.366 . S
C2126 C2130 1.385 . S
C2127 H2102 0.951 . S
C2127 C2125 1.388 . S
C2127 C2128 1.366 . S
C2128 C2127 1.366 . S
C2128 C2129 1.414 . S
C2128 C2131 1.499 . S
C2129 H2103 0.950 . S
C2129 C2128 1.414 . S
C2129 C2130 1.374 . S
C2130 H2104 0.950 . S
C2130 C2126 1.385 . S
C2130 C2129 1.374 . S
C2131 C2128 1.499 . S
C2131 C2132 1.373 . S
C2131 C2133 1.389 1_655 S
C2132 H2105 0.950 . S
C2132 C2118 1.377 . S
C2132 C2131 1.373 . S
C2133 C2117 1.377 . S
C2133 C2131 1.389 1_455 S
C2133 C2134 1.524 . S
C2134 C2133 1.524 . S
C2134 C2135 1.403 . S
C2134 C2139 1.363 . S
C2135 H2106 0.942 1_455 S
C2135 C2134 1.403 . S
C2135 C2136 1.335 . S
C2136 H2107 0.950 1_455 S
C2136 C2135 1.335 . S
C2136 C2137 1.287 . S
C2137 C2136 1.287 . S
C2137 C2138 1.524 . S
C2137 H2140 0.999 . S
C2138 H2108 0.950 . S
C2138 C2137 1.524 . S
C2138 C2139 1.415 . S
C2139 H2109 0.950 . S
C2139 C2134 1.363 . S
C2139 C2138 1.415 . S
H2140 C2137 0.999 . S
H2141 C2122 0.913 . S
H2142 C2160 0.951 . S
H2143 C2162 0.951 . S
H2144 C2164 0.950 . S
H2145 C2165 0.950 . S
H2146 C2167 0.950 . S
H2147 C2170 0.902 1_565 S
H2148 C2171 0.923 1_565 S
H2149 C2173 0.950 . S
H2150 C2174 0.950 . S
H2151 C2175 0.951 . S
H2152 C2177 0.951 . S
H2153 C2179 0.950 . S
H2154 C2180 0.950 . S
H2155 C2182 0.950 . S
H2156 C2185 0.903 1_545 S
H2157 C2186 0.923 1_545 S
H2158 C2188 0.950 . S
H2159 C2189 0.950 . S
C2160 H2142 0.951 . S
C2160 C2161 1.366 . S
C2160 C2162 1.388 . S
C2161 C2160 1.366 . S
C2161 C2165 1.385 . S
C2162 H2143 0.951 . S
C2162 C2160 1.388 . S
C2162 C2163 1.366 . S
C2163 C2162 1.366 . S
C2163 C2164 1.414 . S
C2163 C2166 1.499 . S
C2164 H2144 0.950 . S
C2164 C2163 1.414 . S
C2164 C2165 1.374 . S
C2165 H2145 0.950 . S
C2165 C2161 1.385 . S
C2165 C2164 1.374 . S
C2166 C2163 1.499 . S
C2166 C2167 1.373 . S
C2166 C2168 1.389 1_565 S
C2167 H2146 0.950 . S
C2167 C2166 1.373 . S
C2167 C2183 1.377 . S
C2168 C2166 1.389 1_545 S
C2168 C2169 1.524 . S
C2168 C2182 1.377 . S
C2169 C2168 1.524 . S
C2169 C2170 1.436 . S
C2169 C2174 1.363 . S
C2170 H2147 0.902 1_545 S
C2170 C2169 1.436 . S
C2170 C2171 1.343 . S
C2171 H2148 0.923 1_545 S
C2171 C2170 1.343 . S
C2171 C2172 1.287 . S
C2172 C2171 1.287 . S
C2172 C2173 1.524 . S
C2172 H2191 0.913 . S
C2173 H2149 0.950 . S
C2173 C2172 1.524 . S
C2173 C2174 1.415 . S
C2174 H2150 0.950 . S
C2174 C2169 1.363 . S
C2174 C2173 1.415 . S
C2175 H2151 0.951 . S
C2175 C2176 1.366 . S
C2175 C2177 1.388 . S
C2176 C2175 1.366 . S
C2176 C2180 1.385 . S
C2177 H2152 0.951 . S
C2177 C2175 1.388 . S
C2177 C2178 1.366 . S
C2178 C2177 1.366 . S
C2178 C2179 1.414 . S
C2178 C2181 1.499 . S
C2179 H2153 0.950 . S
C2179 C2178 1.414 . S
C2179 C2180 1.374 . S
C2180 H2154 0.950 . S
C2180 C2176 1.385 . S
C2180 C2179 1.374 . S
C2181 C2178 1.499 . S
C2181 C2182 1.373 . S
C2181 C2183 1.389 1_545 S
C2182 H2155 0.950 . S
C2182 C2168 1.377 . S
C2182 C2181 1.373 . S
C2183 C2167 1.377 . S
C2183 C2181 1.389 1_565 S
C2183 C2184 1.524 . S
C2184 C2183 1.524 . S
C2184 C2185 1.436 . S
C2184 C2189 1.363 . S
C2185 H2156 0.903 1_565 S
C2185 C2184 1.436 . S
C2185 C2186 1.343 . S
C2186 H2157 0.923 1_565 S
C2186 C2185 1.343 . S
C2186 C2187 1.287 . S
C2187 C2186 1.287 . S
C2187 C2188 1.524 . S
C2187 H2190 0.999 . S
C2188 H2158 0.950 . S
C2188 C2187 1.524 . S
C2188 C2189 1.415 . S
C2189 H2159 0.950 . S
C2189 C2184 1.363 . S
C2189 C2188 1.415 . S
H2190 C2187 0.999 . S
H2191 C2172 0.913 . S
H2192 C2210 0.951 . S
H2193 C2212 0.951 . S
H2194 C2214 0.950 . S
H2195 C2215 0.950 . S
H2196 C2217 0.950 . S
H2197 C2220 0.950 . S
H2198 C2221 0.950 . S
H2199 C2223 0.950 . S
H2200 C2224 0.950 . S
H2201 C2225 0.951 . S
H2202 C2227 0.951 . S
H2203 C2229 0.950 . S
H2204 C2230 0.950 . S
H2205 C2232 0.950 . S
H2206 C2235 0.950 . S
H2207 C2236 0.950 . S
H2208 C2238 0.950 . S
H2209 C2239 0.950 . S
C2210 H2192 0.951 . S
C2210 C2211 1.366 . S
C2210 C2212 1.388 . S
C2211 C2210 1.366 . S
C2211 C2215 1.385 . S
C2212 H2193 0.951 . S
C2212 C2210 1.388 . S
C2212 C2213 1.366 . S
C2213 C2212 1.366 . S
C2213 C2214 1.414 . S
C2213 C2216 1.499 . S
C2214 H2194 0.950 . S
C2214 C2213 1.414 . S
C2214 C2215 1.374 . S
C2215 H2195 0.950 . S
C2215 C2211 1.385 . S
C2215 C2214 1.374 . S
C2216 C2213 1.499 . S
C2216 C2217 1.373 . S
C2216 C2218 1.389 . S
C2217 H2196 0.950 . S
C2217 C2216 1.373 . S
C2217 C2233 1.377 . S
C2218 C2216 1.389 . S
C2218 C2219 1.524 . S
C2218 C2232 1.377 . S
C2219 C2218 1.524 . S
C2219 C2220 1.397 . S
C2219 C2224 1.363 . S
C2220 H2197 0.950 . S
C2220 C2219 1.397 . S
C2220 C2221 1.334 . S
C2221 H2198 0.950 . S
C2221 C2220 1.334 . S
C2221 C2222 1.287 . S
C2222 C2221 1.287 . S
C2222 C2223 1.524 . S
C2222 H2241 0.913 . S
C2223 H2199 0.950 . S
C2223 C2222 1.524 . S
C2223 C2224 1.415 . S
C2224 H2200 0.950 . S
C2224 C2219 1.363 . S
C2224 C2223 1.415 . S
C2225 H2201 0.951 . S
C2225 C2226 1.366 . S
C2225 C2227 1.388 . S
C2226 C2225 1.366 . S
C2226 C2230 1.385 . S
C2227 H2202 0.951 . S
C2227 C2225 1.388 . S
C2227 C2228 1.366 . S
C2228 C2227 1.366 . S
C2228 C2229 1.414 . S
C2228 C2231 1.499 . S
C2229 H2203 0.950 . S
C2229 C2228 1.414 . S
C2229 C2230 1.374 . S
C2230 H2204 0.950 . S
C2230 C2226 1.385 . S
C2230 C2229 1.374 . S
C2231 C2228 1.499 . S
C2231 C2232 1.373 . S
C2231 C2233 1.389 . S
C2232 H2205 0.950 . S
C2232 C2218 1.377 . S
C2232 C2231 1.373 . S
C2233 C2217 1.377 . S
C2233 C2231 1.389 . S
C2233 C2234 1.524 . S
C2234 C2233 1.524 . S
C2234 C2235 1.397 . S
C2234 C2239 1.363 . S
C2235 H2206 0.950 . S
C2235 C2234 1.397 . S
C2235 C2236 1.334 . S
C2236 H2207 0.950 . S
C2236 C2235 1.334 . S
C2236 C2237 1.287 . S
C2237 C2236 1.287 . S
C2237 C2238 1.524 . S
C2237 H2240 0.999 . S
C2238 H2208 0.950 . S
C2238 C2237 1.524 . S
C2238 C2239 1.415 . S
C2239 H2209 0.950 . S
C2239 C2234 1.363 . S
C2239 C2238 1.415 . S
H2240 C2237 0.999 . S
H2241 C2222 0.913 . S
H2242 C2260 0.951 . S
H2243 C2262 0.951 . S
H2244 C2264 0.950 . S
H2245 C2265 0.950 . S
H2246 C2267 0.950 . S
H2247 C2270 0.950 1_655 S
H2248 C2271 0.950 . S
H2249 C2273 0.950 . S
H2250 C2274 0.950 . S
H2251 C2275 0.951 . S
H2252 C2277 0.951 . S
H2253 C2279 0.950 . S
H2254 C2280 0.950 . S
H2255 C2282 0.950 . S
H2256 C2285 0.950 1_455 S
H2257 C2286 0.950 . S
H2258 C2288 0.950 . S
H2259 C2289 0.950 . S
C2260 H2242 0.951 . S
C2260 C2261 1.366 . S
C2260 C2262 1.388 . S
C2261 C2260 1.366 . S
C2261 C2265 1.385 . S
C2262 H2243 0.951 . S
C2262 C2260 1.388 . S
C2262 C2263 1.366 . S
C2263 C2262 1.366 . S
C2263 C2264 1.414 . S
C2263 C2266 1.499 . S
C2264 H2244 0.950 . S
C2264 C2263 1.414 . S
C2264 C2265 1.374 . S
C2265 H2245 0.950 . S
C2265 C2261 1.385 . S
C2265 C2264 1.374 . S
C2266 C2263 1.499 . S
C2266 C2267 1.373 . S
C2266 C2268 1.389 1_655 S
C2267 H2246 0.950 . S
C2267 C2266 1.373 . S
C2267 C2283 1.377 . S
C2268 C2266 1.389 1_455 S
C2268 C2269 1.524 . S
C2268 C2282 1.377 . S
C2269 C2268 1.524 . S
C2269 C2270 1.397 . S
C2269 C2274 1.363 . S
C2270 H2247 0.950 1_455 S
C2270 C2269 1.397 . S
C2270 C2271 1.334 . S
C2271 H2248 0.950 . S
C2271 C2270 1.334 . S
C2271 C2272 1.287 . S
C2272 C2271 1.287 . S
C2272 C2273 1.524 . S
C2272 H2291 0.913 . S
C2273 H2249 0.950 . S
C2273 C2272 1.524 . S
C2273 C2274 1.415 . S
C2274 H2250 0.950 . S
C2274 C2269 1.363 . S
C2274 C2273 1.415 . S
C2275 H2251 0.951 . S
C2275 C2276 1.366 . S
C2275 C2277 1.388 . S
C2276 C2275 1.366 . S
C2276 C2280 1.385 . S
C2277 H2252 0.951 . S
C2277 C2275 1.388 . S
C2277 C2278 1.366 . S
C2278 C2277 1.366 . S
C2278 C2279 1.414 . S
C2278 C2281 1.499 . S
C2279 H2253 0.950 . S
C2279 C2278 1.414 . S
C2279 C2280 1.374 . S
C2280 H2254 0.950 . S
C2280 C2276 1.385 . S
C2280 C2279 1.374 . S
C2281 C2278 1.499 . S
C2281 C2282 1.373 . S
C2281 C2283 1.389 1_455 S
C2282 H2255 0.950 . S
C2282 C2268 1.377 . S
C2282 C2281 1.373 . S
C2283 C2267 1.377 . S
C2283 C2281 1.389 1_655 S
C2283 C2284 1.524 . S
C2284 C2283 1.524 . S
C2284 C2285 1.397 . S
C2284 C2289 1.363 . S
C2285 H2256 0.950 1_655 S
C2285 C2284 1.397 . S
C2285 C2286 1.334 . S
C2286 H2257 0.950 . S
C2286 C2285 1.334 . S
C2286 C2287 1.287 . S
C2287 C2286 1.287 . S
C2287 C2288 1.524 . S
C2287 H2290 0.999 . S
C2288 H2258 0.950 . S
C2288 C2287 1.524 . S
C2288 C2289 1.415 . S
C2289 H2259 0.950 . S
C2289 C2284 1.363 . S
C2289 C2288 1.415 . S
H2290 C2287 0.999 . S
H2291 C2272 0.913 . S
H2292 C2310 0.951 . S
H2293 C2312 0.951 . S
H2294 C2314 0.950 . S
H2295 C2315 0.950 . S
H2296 C2317 0.950 . S
H2297 C2320 0.950 . S
H2298 C2321 0.950 1_565 S
H2299 C2323 0.950 . S
H2300 C2324 0.950 . S
H2301 C2325 0.951 . S
H2302 C2327 0.951 . S
H2303 C2329 0.950 . S
H2304 C2330 0.950 . S
H2305 C2332 0.950 . S
H2306 C2335 0.950 . S
H2307 C2336 0.950 1_545 S
H2308 C2338 0.950 . S
H2309 C2339 0.950 . S
C2310 H2292 0.951 . S
C2310 C2311 1.366 . S
C2310 C2312 1.388 . S
C2311 C2310 1.366 . S
C2311 C2315 1.385 . S
C2312 H2293 0.951 . S
C2312 C2310 1.388 . S
C2312 C2313 1.366 . S
C2313 C2312 1.366 . S
C2313 C2314 1.414 . S
C2313 C2316 1.499 . S
C2314 H2294 0.950 . S
C2314 C2313 1.414 . S
C2314 C2315 1.374 . S
C2315 H2295 0.950 . S
C2315 C2311 1.385 . S
C2315 C2314 1.374 . S
C2316 C2313 1.499 . S
C2316 C2317 1.373 . S
C2316 C2318 1.389 1_565 S
C2317 H2296 0.950 . S
C2317 C2316 1.373 . S
C2317 C2333 1.377 . S
C2318 C2316 1.389 1_545 S
C2318 C2319 1.524 . S
C2318 C2332 1.377 . S
C2319 C2318 1.524 . S
C2319 C2320 1.397 1_545 S
C2319 C2324 1.363 . S
C2320 H2297 0.950 . S
C2320 C2319 1.397 1_565 S
C2320 C2321 1.334 1_565 S
C2321 H2298 0.950 1_545 S
C2321 C2320 1.334 1_545 S
C2321 C2322 1.287 . S
C2322 C2321 1.287 . S
C2322 C2323 1.524 . S
C2322 H2341 0.913 . S
C2323 H2299 0.950 . S
C2323 C2322 1.524 . S
C2323 C2324 1.415 . S
C2324 H2300 0.950 . S
C2324 C2319 1.363 . S
C2324 C2323 1.415 . S
C2325 H2301 0.951 . S
C2325 C2326 1.366 . S
C2325 C2327 1.388 . S
C2326 C2325 1.366 . S
C2326 C2330 1.385 . S
C2327 H2302 0.951 . S
C2327 C2325 1.388 . S
C2327 C2328 1.366 . S
C2328 C2327 1.366 . S
C2328 C2329 1.414 . S
C2328 C2331 1.499 . S
C2329 H2303 0.950 . S
C2329 C2328 1.414 . S
C2329 C2330 1.374 . S
C2330 H2304 0.950 . S
C2330 C2326 1.385 . S
C2330 C2329 1.374 . S
C2331 C2328 1.499 . S
C2331 C2332 1.373 . S
C2331 C2333 1.389 1_545 S
C2332 H2305 0.950 . S
C2332 C2318 1.377 . S
C2332 C2331 1.373 . S
C2333 C2317 1.377 . S
C2333 C2331 1.389 1_565 S
C2333 C2334 1.524 . S
C2334 C2333 1.524 . S
C2334 C2335 1.397 1_565 S
C2334 C2339 1.363 . S
C2335 H2306 0.950 . S
C2335 C2334 1.397 1_545 S
C2335 C2336 1.334 1_545 S
C2336 H2307 0.950 1_565 S
C2336 C2335 1.334 1_565 S
C2336 C2337 1.287 . S
C2337 C2336 1.287 . S
C2337 C2338 1.524 . S
C2337 H2340 0.999 . S
C2338 H2308 0.950 . S
C2338 C2337 1.524 . S
C2338 C2339 1.415 . S
C2339 H2309 0.950 . S
C2339 C2334 1.363 . S
C2339 C2338 1.415 . S
H2340 C2337 0.999 . S
H2341 C2322 0.913 . S
H2342 C2360 0.951 . S
H2343 C2362 0.951 . S
H2344 C2364 0.950 . S
H2345 C2365 0.950 . S
H2346 C2367 0.950 . S
H2347 C2370 0.950 . S
H2348 C2371 0.950 . S
H2349 C2373 0.950 . S
H2350 C2374 0.950 . S
H2351 C2375 0.951 . S
H2352 C2377 0.951 . S
H2353 C2379 0.950 . S
H2354 C2380 0.950 . S
H2355 C2382 0.950 . S
H2356 C2385 0.950 . S
H2357 C2386 0.950 . S
H2358 C2388 0.950 . S
H2359 C2389 0.950 . S
C2360 H2342 0.951 . S
C2360 C2361 1.366 . S
C2360 C2362 1.388 . S
C2361 C2360 1.366 . S
C2361 C2365 1.385 . S
C2362 H2343 0.951 . S
C2362 C2360 1.388 . S
C2362 C2363 1.366 . S
C2363 C2362 1.366 . S
C2363 C2364 1.414 . S
C2363 C2366 1.499 . S
C2364 H2344 0.950 . S
C2364 C2363 1.414 . S
C2364 C2365 1.374 . S
C2365 H2345 0.950 . S
C2365 C2361 1.385 . S
C2365 C2364 1.374 . S
C2366 C2363 1.499 . S
C2366 C2367 1.373 . S
C2366 C2368 1.389 . S
C2367 H2346 0.950 . S
C2367 C2366 1.373 . S
C2367 C2383 1.377 . S
C2368 C2366 1.389 . S
C2368 C2369 1.524 . S
C2368 C2382 1.377 . S
C2369 C2368 1.524 . S
C2369 C2370 1.397 . S
C2369 C2374 1.363 . S
C2370 H2347 0.950 . S
C2370 C2369 1.397 . S
C2370 C2371 1.334 . S
C2371 H2348 0.950 . S
C2371 C2370 1.334 . S
C2371 C2372 1.287 . S
C2372 C2371 1.287 . S
C2372 C2373 1.524 . S
C2372 H2391 0.913 . S
C2373 H2349 0.950 . S
C2373 C2372 1.524 . S
C2373 C2374 1.415 . S
C2374 H2350 0.950 . S
C2374 C2369 1.363 . S
C2374 C2373 1.415 . S
C2375 H2351 0.951 . S
C2375 C2376 1.366 . S
C2375 C2377 1.388 . S
C2376 C2375 1.366 . S
C2376 C2380 1.385 . S
C2377 H2352 0.951 . S
C2377 C2375 1.388 . S
C2377 C2378 1.366 . S
C2378 C2377 1.366 . S
C2378 C2379 1.414 . S
C2378 C2381 1.499 . S
C2379 H2353 0.950 . S
C2379 C2378 1.414 . S
C2379 C2380 1.374 . S
C2380 H2354 0.950 . S
C2380 C2376 1.385 . S
C2380 C2379 1.374 . S
C2381 C2378 1.499 . S
C2381 C2382 1.373 . S
C2381 C2383 1.389 . S
C2382 H2355 0.950 . S
C2382 C2368 1.377 . S
C2382 C2381 1.373 . S
C2383 C2367 1.377 . S
C2383 C2381 1.389 . S
C2383 C2384 1.524 . S
C2384 C2383 1.524 . S
C2384 C2385 1.397 . S
C2384 C2389 1.363 . S
C2385 H2356 0.950 . S
C2385 C2384 1.397 . S
C2385 C2386 1.334 . S
C2386 H2357 0.950 . S
C2386 C2385 1.334 . S
C2386 C2387 1.287 . S
C2387 C2386 1.287 . S
C2387 C2388 1.524 . S
C2387 H2390 0.999 . S
C2388 H2358 0.950 . S
C2388 C2387 1.524 . S
C2388 C2389 1.415 . S
C2389 H2359 0.950 . S
C2389 C2384 1.363 . S
C2389 C2388 1.415 . S
H2390 C2387 0.999 . S
H2391 C2372 0.913 . S
H2392 C2410 0.951 . S
H2393 C2412 0.951 . S
H2394 C2414 0.950 . S
H2395 C2415 0.950 . S
H2396 C2417 0.950 . S
H2397 C2420 0.950 . S
H2398 C2421 0.950 . S
H2399 C2423 0.950 . S
H2400 C2424 0.950 . S
H2401 C2425 0.951 . S
H2402 C2427 0.951 . S
H2403 C2429 0.950 . S
H2404 C2430 0.950 . S
H2405 C2432 0.950 . S
H2406 C2435 0.950 . S
H2407 C2436 0.950 . S
H2408 C2438 0.950 . S
H2409 C2439 0.950 . S
C2410 H2392 0.951 . S
C2410 C2411 1.366 . S
C2410 C2412 1.388 . S
C2411 C2410 1.366 . S
C2411 C2415 1.385 . S
C2412 H2393 0.951 . S
C2412 C2410 1.388 . S
C2412 C2413 1.366 . S
C2413 C2412 1.366 . S
C2413 C2414 1.414 . S
C2413 C2416 1.499 . S
C2414 H2394 0.950 . S
C2414 C2413 1.414 . S
C2414 C2415 1.374 . S
C2415 H2395 0.950 . S
C2415 C2411 1.385 . S
C2415 C2414 1.374 . S
C2416 C2413 1.499 . S
C2416 C2417 1.373 . S
C2416 C2418 1.393 1_455 S
C2417 H2396 0.950 . S
C2417 C2416 1.373 . S
C2417 C2433 1.371 . S
C2418 C2416 1.393 1_655 S
C2418 C2419 1.546 . S
C2418 C2432 1.371 . S
C2419 C2418 1.546 . S
C2419 C2420 1.338 1_655 S
C2419 C2424 1.404 . S
C2420 H2397 0.950 . S
C2420 C2419 1.338 1_455 S
C2420 C2421 1.334 . S
C2421 H2398 0.950 . S
C2421 C2420 1.334 . S
C2421 C2422 1.263 1_455 S
C2422 C2421 1.263 1_655 S
C2422 C2423 1.561 . S
C2422 H2441 0.902 . S
C2423 H2399 0.950 . S
C2423 C2422 1.561 . S
C2423 C2424 1.415 . S
C2424 H2400 0.950 . S
C2424 C2419 1.404 . S
C2424 C2423 1.415 . S
C2425 H2401 0.951 . S
C2425 C2426 1.366 . S
C2425 C2427 1.388 . S
C2426 C2425 1.366 . S
C2426 C2430 1.385 . S
C2427 H2402 0.951 . S
C2427 C2425 1.388 . S
C2427 C2428 1.366 . S
C2428 C2427 1.366 . S
C2428 C2429 1.414 . S
C2428 C2431 1.499 . S
C2429 H2403 0.950 . S
C2429 C2428 1.414 . S
C2429 C2430 1.374 . S
C2430 H2404 0.950 . S
C2430 C2426 1.385 . S
C2430 C2429 1.374 . S
C2431 C2428 1.499 . S
C2431 C2432 1.373 . S
C2431 C2433 1.393 1_655 S
C2432 H2405 0.950 . S
C2432 C2418 1.371 . S
C2432 C2431 1.373 . S
C2433 C2417 1.371 . S
C2433 C2431 1.393 1_455 S
C2433 C2434 1.546 . S
C2434 C2433 1.546 . S
C2434 C2435 1.338 1_455 S
C2434 C2439 1.404 . S
C2435 H2406 0.950 . S
C2435 C2434 1.338 1_655 S
C2435 C2436 1.334 . S
C2436 H2407 0.950 . S
C2436 C2435 1.334 . S
C2436 C2437 1.263 1_655 S
C2437 C2436 1.263 1_455 S
C2437 C2438 1.561 . S
C2437 H2440 0.988 . S
C2438 H2408 0.950 . S
C2438 C2437 1.561 . S
C2438 C2439 1.415 . S
C2439 H2409 0.950 . S
C2439 C2434 1.404 . S
C2439 C2438 1.415 . S
H2440 C2437 0.988 . S
H2441 C2422 0.902 . S
H2442 C2460 0.951 . S
H2443 C2462 0.951 . S
H2444 C2464 0.950 . S
H2445 C2465 0.950 . S
H2446 C2467 0.950 . S
H2447 C2470 0.950 . S
H2448 C2471 0.950 . S
H2449 C2473 0.950 1_565 S
H2450 C2474 0.949 . S
H2451 C2475 0.951 . S
H2452 C2477 0.951 . S
H2453 C2479 0.950 . S
H2454 C2480 0.950 . S
H2455 C2482 0.950 . S
H2456 C2485 0.950 . S
H2457 C2486 0.950 . S
H2458 C2488 0.950 1_545 S
H2459 C2489 0.949 . S
C2460 H2442 0.951 . S
C2460 C2461 1.366 . S
C2460 C2462 1.388 . S
C2461 C2460 1.366 . S
C2461 C2465 1.385 . S
C2462 H2443 0.951 . S
C2462 C2460 1.388 . S
C2462 C2463 1.366 . S
C2463 C2462 1.366 . S
C2463 C2464 1.414 . S
C2463 C2466 1.499 . S
C2464 H2444 0.950 . S
C2464 C2463 1.414 . S
C2464 C2465 1.374 . S
C2465 H2445 0.950 . S
C2465 C2461 1.385 . S
C2465 C2464 1.374 . S
C2466 C2463 1.499 . S
C2466 C2467 1.373 . S
C2466 C2468 1.389 . S
C2467 H2446 0.950 . S
C2467 C2466 1.373 . S
C2467 C2483 1.377 1_545 S
C2468 C2466 1.389 . S
C2468 C2469 1.524 . S
C2468 C2482 1.377 1_545 S
C2469 C2468 1.524 . S
C2469 C2470 1.397 . S
C2469 C2474 1.365 1_545 S
C2470 H2447 0.950 . S
C2470 C2469 1.397 . S
C2470 C2471 1.334 . S
C2471 H2448 0.950 . S
C2471 C2470 1.334 . S
C2471 C2472 1.287 . S
C2472 C2471 1.287 . S
C2472 C2473 1.524 . S
C2472 H2491 0.913 . S
C2473 H2449 0.950 1_545 S
C2473 C2472 1.524 . S
C2473 C2474 1.414 1_545 S
C2474 H2450 0.949 . S
C2474 C2469 1.365 1_565 S
C2474 C2473 1.414 1_565 S
C2475 H2451 0.951 . S
C2475 C2476 1.366 . S
C2475 C2477 1.388 . S
C2476 C2475 1.366 . S
C2476 C2480 1.385 . S
C2477 H2452 0.951 . S
C2477 C2475 1.388 . S
C2477 C2478 1.366 . S
C2478 C2477 1.366 . S
C2478 C2479 1.414 . S
C2478 C2481 1.499 . S
C2479 H2453 0.950 . S
C2479 C2478 1.414 . S
C2479 C2480 1.374 . S
C2480 H2454 0.950 . S
C2480 C2476 1.385 . S
C2480 C2479 1.374 . S
C2481 C2478 1.499 . S
C2481 C2482 1.373 . S
C2481 C2483 1.389 . S
C2482 H2455 0.950 . S
C2482 C2468 1.377 1_565 S
C2482 C2481 1.373 . S
C2483 C2467 1.377 1_565 S
C2483 C2481 1.389 . S
C2483 C2484 1.524 . S
C2484 C2483 1.524 . S
C2484 C2485 1.397 . S
C2484 C2489 1.365 1_565 S
C2485 H2456 0.950 . S
C2485 C2484 1.397 . S
C2485 C2486 1.334 . S
C2486 H2457 0.950 . S
C2486 C2485 1.334 . S
C2486 C2487 1.287 . S
C2487 C2486 1.287 . S
C2487 C2488 1.524 . S
C2487 H2490 0.999 . S
C2488 H2458 0.950 1_565 S
C2488 C2487 1.524 . S
C2488 C2489 1.414 1_565 S
C2489 H2459 0.949 . S
C2489 C2484 1.365 1_545 S
C2489 C2488 1.414 1_545 S
H2490 C2487 0.999 . S
H2491 C2472 0.913 . S
H2492 C2510 0.951 . S
H2493 C2512 0.951 . S
H2494 C2514 0.950 . S
H2495 C2515 0.950 . S
H2496 C2517 0.950 . S
H2497 C2520 0.950 . S
H2498 C2521 0.950 . S
H2499 C2523 0.950 . S
H2500 C2524 0.950 . S
H2501 C2525 0.951 . S
H2502 C2527 0.951 . S
H2503 C2529 0.950 . S
H2504 C2530 0.950 . S
H2505 C2532 0.950 . S
H2506 C2535 0.950 . S
H2507 C2536 0.950 . S
H2508 C2538 0.950 . S
H2509 C2539 0.950 . S
C2510 H2492 0.951 . S
C2510 C2511 1.366 . S
C2510 C2512 1.388 . S
C2511 C2510 1.366 . S
C2511 C2515 1.385 . S
C2512 H2493 0.951 . S
C2512 C2510 1.388 . S
C2512 C2513 1.366 . S
C2513 C2512 1.366 . S
C2513 C2514 1.414 . S
C2513 C2516 1.499 . S
C2514 H2494 0.950 . S
C2514 C2513 1.414 . S
C2514 C2515 1.374 . S
C2515 H2495 0.950 . S
C2515 C2511 1.385 . S
C2515 C2514 1.374 . S
C2516 C2513 1.499 . S
C2516 C2517 1.373 . S
C2516 C2518 1.389 . S
C2517 H2496 0.950 . S
C2517 C2516 1.373 . S
C2517 C2533 1.377 . S
C2518 C2516 1.389 . S
C2518 C2519 1.524 . S
C2518 C2532 1.377 . S
C2519 C2518 1.524 . S
C2519 C2520 1.397 . S
C2519 C2524 1.363 . S
C2520 H2497 0.950 . S
C2520 C2519 1.397 . S
C2520 C2521 1.334 . S
C2521 H2498 0.950 . S
C2521 C2520 1.334 . S
C2521 C2522 1.287 . S
C2522 C2521 1.287 . S
C2522 C2523 1.524 . S
C2522 H2541 0.913 . S
C2523 H2499 0.950 . S
C2523 C2522 1.524 . S
C2523 C2524 1.415 . S
C2524 H2500 0.950 . S
C2524 C2519 1.363 . S
C2524 C2523 1.415 . S
C2525 H2501 0.951 . S
C2525 C2526 1.366 . S
C2525 C2527 1.388 . S
C2526 C2525 1.366 . S
C2526 C2530 1.385 . S
C2527 H2502 0.951 . S
C2527 C2525 1.388 . S
C2527 C2528 1.366 . S
C2528 C2527 1.366 . S
C2528 C2529 1.414 . S
C2528 C2531 1.499 . S
C2529 H2503 0.950 . S
C2529 C2528 1.414 . S
C2529 C2530 1.374 . S
C2530 H2504 0.950 . S
C2530 C2526 1.385 . S
C2530 C2529 1.374 . S
C2531 C2528 1.499 . S
C2531 C2532 1.373 . S
C2531 C2533 1.389 . S
C2532 H2505 0.950 . S
C2532 C2518 1.377 . S
C2532 C2531 1.373 . S
C2533 C2517 1.377 . S
C2533 C2531 1.389 . S
C2533 C2534 1.524 . S
C2534 C2533 1.524 . S
C2534 C2535 1.397 . S
C2534 C2539 1.363 . S
C2535 H2506 0.950 . S
C2535 C2534 1.397 . S
C2535 C2536 1.334 . S
C2536 H2507 0.950 . S
C2536 C2535 1.334 . S
C2536 C2537 1.287 . S
C2537 C2536 1.287 . S
C2537 C2538 1.524 . S
C2537 H2540 0.999 . S
C2538 H2508 0.950 . S
C2538 C2537 1.524 . S
C2538 C2539 1.415 . S
C2539 H2509 0.950 . S
C2539 C2534 1.363 . S
C2539 C2538 1.415 . S
H2540 C2537 0.999 . S
H2541 C2522 0.913 . S
H2542 C2560 0.951 . S
H2543 C2562 0.951 . S
H2544 C2564 0.950 . S
H2545 C2565 0.950 . S
H2546 C2567 0.950 . S
H2547 C2570 0.950 . S
H2548 C2571 0.950 . S
H2549 C2573 0.950 . S
H2550 C2574 0.950 . S
H2551 C2575 0.951 . S
H2552 C2577 0.951 . S
H2553 C2579 0.950 . S
H2554 C2580 0.950 . S
H2555 C2582 0.950 . S
H2556 C2585 0.950 . S
H2557 C2586 0.950 . S
H2558 C2588 0.950 . S
H2559 C2589 0.950 . S
C2560 H2542 0.951 . S
C2560 C2561 1.366 . S
C2560 C2562 1.388 . S
C2561 C2560 1.366 . S
C2561 C2565 1.385 . S
C2562 H2543 0.951 . S
C2562 C2560 1.388 . S
C2562 C2563 1.366 . S
C2563 C2562 1.366 . S
C2563 C2564 1.414 . S
C2563 C2566 1.499 . S
C2564 H2544 0.950 . S
C2564 C2563 1.414 . S
C2564 C2565 1.374 . S
C2565 H2545 0.950 . S
C2565 C2561 1.385 . S
C2565 C2564 1.374 . S
C2566 C2563 1.499 . S
C2566 C2567 1.373 . S
C2566 C2568 1.389 . S
C2567 H2546 0.950 . S
C2567 C2566 1.373 . S
C2567 C2583 1.377 1_455 S
C2568 C2566 1.389 . S
C2568 C2569 1.524 . S
C2568 C2582 1.377 1_455 S
C2569 C2568 1.524 . S
C2569 C2570 1.397 . S
C2569 C2574 1.363 . S
C2570 H2547 0.950 . S
C2570 C2569 1.397 . S
C2570 C2571 1.334 . S
C2571 H2548 0.950 . S
C2571 C2570 1.334 . S
C2571 C2572 1.287 . S
C2572 C2571 1.287 . S
C2572 C2573 1.524 . S
C2572 H2591 0.913 . S
C2573 H2549 0.950 . S
C2573 C2572 1.524 . S
C2573 C2574 1.415 . S
C2574 H2550 0.950 . S
C2574 C2569 1.363 . S
C2574 C2573 1.415 . S
C2575 H2551 0.951 . S
C2575 C2576 1.366 . S
C2575 C2577 1.388 . S
C2576 C2575 1.366 . S
C2576 C2580 1.385 . S
C2577 H2552 0.951 . S
C2577 C2575 1.388 . S
C2577 C2578 1.366 . S
C2578 C2577 1.366 . S
C2578 C2579 1.414 . S
C2578 C2581 1.499 . S
C2579 H2553 0.950 . S
C2579 C2578 1.414 . S
C2579 C2580 1.374 . S
C2580 H2554 0.950 . S
C2580 C2576 1.385 . S
C2580 C2579 1.374 . S
C2581 C2578 1.499 . S
C2581 C2582 1.373 . S
C2581 C2583 1.389 . S
C2582 H2555 0.950 . S
C2582 C2568 1.377 1_655 S
C2582 C2581 1.373 . S
C2583 C2567 1.377 1_655 S
C2583 C2581 1.389 . S
C2583 C2584 1.524 . S
C2584 C2583 1.524 . S
C2584 C2585 1.397 . S
C2584 C2589 1.363 . S
C2585 H2556 0.950 . S
C2585 C2584 1.397 . S
C2585 C2586 1.334 . S
C2586 H2557 0.950 . S
C2586 C2585 1.334 . S
C2586 C2587 1.287 . S
C2587 C2586 1.287 . S
C2587 C2588 1.524 . S
C2587 H2590 0.999 . S
C2588 H2558 0.950 . S
C2588 C2587 1.524 . S
C2588 C2589 1.415 . S
C2589 H2559 0.950 . S
C2589 C2584 1.363 . S
C2589 C2588 1.415 . S
H2590 C2587 0.999 . S
H2591 C2572 0.913 . S
H2592 C2610 0.951 . S
H2593 C2612 0.951 . S
H2594 C2614 0.950 . S
H2595 C2615 0.950 . S
H2596 C2617 0.950 . S
H2597 C2620 0.950 . S
H2598 C2621 0.950 . S
H2599 C2623 0.950 . S
H2600 C2624 0.950 . S
H2601 C2625 0.951 . S
H2602 C2627 0.951 . S
H2603 C2629 0.950 . S
H2604 C2630 0.950 . S
H2605 C2632 0.950 . S
H2606 C2635 0.950 . S
H2607 C2636 0.950 . S
H2608 C2638 0.950 . S
H2609 C2639 0.950 . S
C2610 H2592 0.951 . S
C2610 C2611 1.366 . S
C2610 C2612 1.388 . S
C2611 C2610 1.366 . S
C2611 C2615 1.385 . S
C2612 H2593 0.951 . S
C2612 C2610 1.388 . S
C2612 C2613 1.366 . S
C2613 C2612 1.366 . S
C2613 C2614 1.414 . S
C2613 C2616 1.499 . S
C2614 H2594 0.950 . S
C2614 C2613 1.414 . S
C2614 C2615 1.374 . S
C2615 H2595 0.950 . S
C2615 C2611 1.385 . S
C2615 C2614 1.374 . S
C2616 C2613 1.499 . S
C2616 C2617 1.373 . S
C2616 C2618 1.389 . S
C2617 H2596 0.950 . S
C2617 C2616 1.373 . S
C2617 C2633 1.377 . S
C2618 C2616 1.389 . S
C2618 C2619 1.524 . S
C2618 C2632 1.377 . S
C2619 C2618 1.524 . S
C2619 C2620 1.397 . S
C2619 C2624 1.363 . S
C2620 H2597 0.950 . S
C2620 C2619 1.397 . S
C2620 C2621 1.334 . S
C2621 H2598 0.950 . S
C2621 C2620 1.334 . S
C2621 C2622 1.287 . S
C2622 C2621 1.287 . S
C2622 C2623 1.524 . S
C2622 H2641 0.913 . S
C2623 H2599 0.950 . S
C2623 C2622 1.524 . S
C2623 C2624 1.415 . S
C2624 H2600 0.950 . S
C2624 C2619 1.363 . S
C2624 C2623 1.415 . S
C2625 H2601 0.951 . S
C2625 C2626 1.366 . S
C2625 C2627 1.388 . S
C2626 C2625 1.366 . S
C2626 C2630 1.385 . S
C2627 H2602 0.951 . S
C2627 C2625 1.388 . S
C2627 C2628 1.366 . S
C2628 C2627 1.366 . S
C2628 C2629 1.414 . S
C2628 C2631 1.499 . S
C2629 H2603 0.950 . S
C2629 C2628 1.414 . S
C2629 C2630 1.374 . S
C2630 H2604 0.950 . S
C2630 C2626 1.385 . S
C2630 C2629 1.374 . S
C2631 C2628 1.499 . S
C2631 C2632 1.373 . S
C2631 C2633 1.389 . S
C2632 H2605 0.950 . S
C2632 C2618 1.377 . S
C2632 C2631 1.373 . S
C2633 C2617 1.377 . S
C2633 C2631 1.389 . S
C2633 C2634 1.524 . S
C2634 C2633 1.524 . S
C2634 C2635 1.397 . S
C2634 C2639 1.363 . S
C2635 H2606 0.950 . S
C2635 C2634 1.397 . S
C2635 C2636 1.334 . S
C2636 H2607 0.950 . S
C2636 C2635 1.334 . S
C2636 C2637 1.287 . S
C2637 C2636 1.287 . S
C2637 C2638 1.524 . S
C2637 H2640 0.999 . S
C2638 H2608 0.950 . S
C2638 C2637 1.524 . S
C2638 C2639 1.415 . S
C2639 H2609 0.950 . S
C2639 C2634 1.363 . S
C2639 C2638 1.415 . S
H2640 C2637 0.999 . S
H2641 C2622 0.913 . S
H2642 C2660 0.951 . S
H2643 C2662 0.951 . S
H2644 C2664 0.950 . S
H2645 C2665 0.950 . S
H2646 C2667 0.950 . S
H2647 C2670 0.950 . S
H2648 C2671 0.950 . S
H2649 C2673 0.950 . S
H2650 C2674 0.950 . S
H2651 C2675 0.951 . S
H2652 C2677 0.951 . S
H2653 C2679 0.950 . S
H2654 C2680 0.950 . S
H2655 C2682 0.950 . S
H2656 C2685 0.950 . S
H2657 C2686 0.950 . S
H2658 C2688 0.950 . S
H2659 C2689 0.950 . S
C2660 H2642 0.951 . S
C2660 C2661 1.366 . S
C2660 C2662 1.388 . S
C2661 C2660 1.366 . S
C2661 C2665 1.385 . S
C2662 H2643 0.951 . S
C2662 C2660 1.388 . S
C2662 C2663 1.366 . S
C2663 C2662 1.366 . S
C2663 C2664 1.414 . S
C2663 C2666 1.499 . S
C2664 H2644 0.950 . S
C2664 C2663 1.414 . S
C2664 C2665 1.374 . S
C2665 H2645 0.950 . S
C2665 C2661 1.385 . S
C2665 C2664 1.374 . S
C2666 C2663 1.499 . S
C2666 C2667 1.373 . S
C2666 C2668 1.389 . S
C2667 H2646 0.950 . S
C2667 C2666 1.373 . S
C2667 C2683 1.377 . S
C2668 C2666 1.389 . S
C2668 C2669 1.524 . S
C2668 C2682 1.377 . S
C2669 C2668 1.524 . S
C2669 C2670 1.397 . S
C2669 C2674 1.363 . S
C2670 H2647 0.950 . S
C2670 C2669 1.397 . S
C2670 C2671 1.334 . S
C2671 H2648 0.950 . S
C2671 C2670 1.334 . S
C2671 C2672 1.287 . S
C2672 C2671 1.287 . S
C2672 C2673 1.524 . S
C2672 H2691 0.913 . S
C2673 H2649 0.950 . S
C2673 C2672 1.524 . S
C2673 C2674 1.415 . S
C2674 H2650 0.950 . S
C2674 C2669 1.363 . S
C2674 C2673 1.415 . S
C2675 H2651 0.951 . S
C2675 C2676 1.366 . S
C2675 C2677 1.388 . S
C2676 C2675 1.366 . S
C2676 C2680 1.385 . S
C2677 H2652 0.951 . S
C2677 C2675 1.388 . S
C2677 C2678 1.366 . S
C2678 C2677 1.366 . S
C2678 C2679 1.414 . S
C2678 C2681 1.499 . S
C2679 H2653 0.950 . S
C2679 C2678 1.414 . S
C2679 C2680 1.374 . S
C2680 H2654 0.950 . S
C2680 C2676 1.385 . S
C2680 C2679 1.374 . S
C2681 C2678 1.499 . S
C2681 C2682 1.373 . S
C2681 C2683 1.389 . S
C2682 H2655 0.950 . S
C2682 C2668 1.377 . S
C2682 C2681 1.373 . S
C2683 C2667 1.377 . S
C2683 C2681 1.389 . S
C2683 C2684 1.524 . S
C2684 C2683 1.524 . S
C2684 C2685 1.397 . S
C2684 C2689 1.363 . S
C2685 H2656 0.950 . S
C2685 C2684 1.397 . S
C2685 C2686 1.334 . S
C2686 H2657 0.950 . S
C2686 C2685 1.334 . S
C2686 C2687 1.287 . S
C2687 C2686 1.287 . S
C2687 C2688 1.524 . S
C2687 H2690 0.999 . S
C2688 H2658 0.950 . S
C2688 C2687 1.524 . S
C2688 C2689 1.415 . S
C2689 H2659 0.950 . S
C2689 C2684 1.363 . S
C2689 C2688 1.415 . S
H2690 C2687 0.999 . S
H2691 C2672 0.913 . S
H2692 C2710 0.951 . S
H2693 C2712 0.951 . S
H2694 C2714 0.950 . S
H2695 C2715 0.950 . S
H2696 C2717 0.950 . S
H2697 C2720 0.950 . S
H2698 C2721 0.950 . S
H2699 C2723 0.950 . S
H2700 C2724 0.950 . S
H2701 C2725 0.951 . S
H2702 C2727 0.951 . S
H2703 C2729 0.950 . S
H2704 C2730 0.950 . S
H2705 C2732 0.950 . S
H2706 C2735 0.950 . S
H2707 C2736 0.950 . S
H2708 C2738 0.950 . S
H2709 C2739 0.950 . S
C2710 H2692 0.951 . S
C2710 C2711 1.366 . S
C2710 C2712 1.388 . S
C2711 C2710 1.366 . S
C2711 C2715 1.385 . S
C2712 H2693 0.951 . S
C2712 C2710 1.388 . S
C2712 C2713 1.366 . S
C2713 C2712 1.366 . S
C2713 C2714 1.414 . S
C2713 C2716 1.499 . S
C2714 H2694 0.950 . S
C2714 C2713 1.414 . S
C2714 C2715 1.374 . S
C2715 H2695 0.950 . S
C2715 C2711 1.385 . S
C2715 C2714 1.374 . S
C2716 C2713 1.499 . S
C2716 C2717 1.373 . S
C2716 C2718 1.389 . S
C2717 H2696 0.950 . S
C2717 C2716 1.373 . S
C2717 C2733 1.377 . S
C2718 C2716 1.389 . S
C2718 C2719 1.524 . S
C2718 C2732 1.377 . S
C2719 C2718 1.524 . S
C2719 C2720 1.397 . S
C2719 C2724 1.363 . S
C2720 H2697 0.950 . S
C2720 C2719 1.397 . S
C2720 C2721 1.334 . S
C2721 H2698 0.950 . S
C2721 C2720 1.334 . S
C2721 C2722 1.287 . S
C2722 C2721 1.287 . S
C2722 C2723 1.524 . S
C2722 H2741 0.913 . S
C2723 H2699 0.950 . S
C2723 C2722 1.524 . S
C2723 C2724 1.415 . S
C2724 H2700 0.950 . S
C2724 C2719 1.363 . S
C2724 C2723 1.415 . S
C2725 H2701 0.951 . S
C2725 C2726 1.366 . S
C2725 C2727 1.388 . S
C2726 C2725 1.366 . S
C2726 C2730 1.385 . S
C2727 H2702 0.951 . S
C2727 C2725 1.388 . S
C2727 C2728 1.366 . S
C2728 C2727 1.366 . S
C2728 C2729 1.414 . S
C2728 C2731 1.499 . S
C2729 H2703 0.950 . S
C2729 C2728 1.414 . S
C2729 C2730 1.374 . S
C2730 H2704 0.950 . S
C2730 C2726 1.385 . S
C2730 C2729 1.374 . S
C2731 C2728 1.499 . S
C2731 C2732 1.373 . S
C2731 C2733 1.389 . S
C2732 H2705 0.950 . S
C2732 C2718 1.377 . S
C2732 C2731 1.373 . S
C2733 C2717 1.377 . S
C2733 C2731 1.389 . S
C2733 C2734 1.524 . S
C2734 C2733 1.524 . S
C2734 C2735 1.397 . S
C2734 C2739 1.363 . S
C2735 H2706 0.950 . S
C2735 C2734 1.397 . S
C2735 C2736 1.334 . S
C2736 H2707 0.950 . S
C2736 C2735 1.334 . S
C2736 C2737 1.287 . S
C2737 C2736 1.287 . S
C2737 C2738 1.524 . S
C2737 H2740 0.999 . S
C2738 H2708 0.950 . S
C2738 C2737 1.524 . S
C2738 C2739 1.415 . S
C2739 H2709 0.950 . S
C2739 C2734 1.363 . S
C2739 C2738 1.415 . S
H2740 C2737 0.999 . S
H2741 C2722 0.913 . S
H2742 C2760 0.951 . S
H2743 C2762 0.951 . S
H2744 C2764 0.950 . S
H2745 C2765 0.950 . S
H2746 C2767 0.950 . S
H2747 C2770 0.950 . S
H2748 C2771 0.950 . S
H2749 C2773 0.950 . S
H2750 C2774 0.950 . S
H2751 C2775 0.951 . S
H2752 C2777 0.951 . S
H2753 C2779 0.950 . S
H2754 C2780 0.950 . S
H2755 C2782 0.950 . S
H2756 C2785 0.950 . S
H2757 C2786 0.950 . S
H2758 C2788 0.950 . S
H2759 C2789 0.950 . S
C2760 H2742 0.951 . S
C2760 C2761 1.366 . S
C2760 C2762 1.388 . S
C2761 C2760 1.366 . S
C2761 C2765 1.385 . S
C2762 H2743 0.951 . S
C2762 C2760 1.388 . S
C2762 C2763 1.366 . S
C2763 C2762 1.366 . S
C2763 C2764 1.414 . S
C2763 C2766 1.499 . S
C2764 H2744 0.950 . S
C2764 C2763 1.414 . S
C2764 C2765 1.374 . S
C2765 H2745 0.950 . S
C2765 C2761 1.385 . S
C2765 C2764 1.374 . S
C2766 C2763 1.499 . S
C2766 C2767 1.373 . S
C2766 C2768 1.389 . S
C2767 H2746 0.950 . S
C2767 C2766 1.373 . S
C2767 C2783 1.377 . S
C2768 C2766 1.389 . S
C2768 C2769 1.524 . S
C2768 C2782 1.377 . S
C2769 C2768 1.524 . S
C2769 C2770 1.397 . S
C2769 C2774 1.363 . S
C2770 H2747 0.950 . S
C2770 C2769 1.397 . S
C2770 C2771 1.334 . S
C2771 H2748 0.950 . S
C2771 C2770 1.334 . S
C2771 C2772 1.287 . S
C2772 C2771 1.287 . S
C2772 C2773 1.524 . S
C2772 H2791 0.913 . S
C2773 H2749 0.950 . S
C2773 C2772 1.524 . S
C2773 C2774 1.415 . S
C2774 H2750 0.950 . S
C2774 C2769 1.363 . S
C2774 C2773 1.415 . S
C2775 H2751 0.951 . S
C2775 C2776 1.366 . S
C2775 C2777 1.388 . S
C2776 C2775 1.366 . S
C2776 C2780 1.385 . S
C2777 H2752 0.951 . S
C2777 C2775 1.388 . S
C2777 C2778 1.366 . S
C2778 C2777 1.366 . S
C2778 C2779 1.414 . S
C2778 C2781 1.499 . S
C2779 H2753 0.950 . S
C2779 C2778 1.414 . S
C2779 C2780 1.374 . S
C2780 H2754 0.950 . S
C2780 C2776 1.385 . S
C2780 C2779 1.374 . S
C2781 C2778 1.499 . S
C2781 C2782 1.373 . S
C2781 C2783 1.389 . S
C2782 H2755 0.950 . S
C2782 C2768 1.377 . S
C2782 C2781 1.373 . S
C2783 C2767 1.377 . S
C2783 C2781 1.389 . S
C2783 C2784 1.524 . S
C2784 C2783 1.524 . S
C2784 C2785 1.397 . S
C2784 C2789 1.363 . S
C2785 H2756 0.950 . S
C2785 C2784 1.397 . S
C2785 C2786 1.334 . S
C2786 H2757 0.950 . S
C2786 C2785 1.334 . S
C2786 C2787 1.287 . S
C2787 C2786 1.287 . S
C2787 C2788 1.524 . S
C2787 H2790 0.999 . S
C2788 H2758 0.950 . S
C2788 C2787 1.524 . S
C2788 C2789 1.415 . S
C2789 H2759 0.950 . S
C2789 C2784 1.363 . S
C2789 C2788 1.415 . S
H2790 C2787 0.999 . S
H2791 C2772 0.913 . S
H2792 C2810 0.951 . S
H2793 C2812 0.951 . S
H2794 C2814 0.950 . S
H2795 C2815 0.950 . S
H2796 C2817 0.950 . S
H2797 C2820 0.950 . S
H2798 C2821 0.950 . S
H2799 C2823 0.950 . S
H2800 C2824 0.950 . S
H2801 C2825 0.951 . S
H2802 C2827 0.951 . S
H2803 C2829 0.950 . S
H2804 C2830 0.950 . S
H2805 C2832 0.950 . S
H2806 C2835 0.950 . S
H2807 C2836 0.950 . S
H2808 C2838 0.950 . S
H2809 C2839 0.950 . S
C2810 H2792 0.951 . S
C2810 C2811 1.366 . S
C2810 C2812 1.388 . S
C2811 C2810 1.366 . S
C2811 C2815 1.385 . S
C2812 H2793 0.951 . S
C2812 C2810 1.388 . S
C2812 C2813 1.366 . S
C2813 C2812 1.366 . S
C2813 C2814 1.414 . S
C2813 C2816 1.499 . S
C2814 H2794 0.950 . S
C2814 C2813 1.414 . S
C2814 C2815 1.374 . S
C2815 H2795 0.950 . S
C2815 C2811 1.385 . S
C2815 C2814 1.374 . S
C2816 C2813 1.499 . S
C2816 C2817 1.373 . S
C2816 C2818 1.389 . S
C2817 H2796 0.950 . S
C2817 C2816 1.373 . S
C2817 C2833 1.377 . S
C2818 C2816 1.389 . S
C2818 C2819 1.524 . S
C2818 C2832 1.377 . S
C2819 C2818 1.524 . S
C2819 C2820 1.397 . S
C2819 C2824 1.363 . S
C2820 H2797 0.950 . S
C2820 C2819 1.397 . S
C2820 C2821 1.334 . S
C2821 H2798 0.950 . S
C2821 C2820 1.334 . S
C2821 C2822 1.287 . S
C2822 C2821 1.287 . S
C2822 C2823 1.524 . S
C2822 H2841 0.913 . S
C2823 H2799 0.950 . S
C2823 C2822 1.524 . S
C2823 C2824 1.415 . S
C2824 H2800 0.950 . S
C2824 C2819 1.363 . S
C2824 C2823 1.415 . S
C2825 H2801 0.951 . S
C2825 C2826 1.366 . S
C2825 C2827 1.388 . S
C2826 C2825 1.366 . S
C2826 C2830 1.385 . S
C2827 H2802 0.951 . S
C2827 C2825 1.388 . S
C2827 C2828 1.366 . S
C2828 C2827 1.366 . S
C2828 C2829 1.414 . S
C2828 C2831 1.499 . S
C2829 H2803 0.950 . S
C2829 C2828 1.414 . S
C2829 C2830 1.374 . S
C2830 H2804 0.950 . S
C2830 C2826 1.385 . S
C2830 C2829 1.374 . S
C2831 C2828 1.499 . S
C2831 C2832 1.373 . S
C2831 C2833 1.389 . S
C2832 H2805 0.950 . S
C2832 C2818 1.377 . S
C2832 C2831 1.373 . S
C2833 C2817 1.377 . S
C2833 C2831 1.389 . S
C2833 C2834 1.524 . S
C2834 C2833 1.524 . S
C2834 C2835 1.397 . S
C2834 C2839 1.363 . S
C2835 H2806 0.950 . S
C2835 C2834 1.397 . S
C2835 C2836 1.334 . S
C2836 H2807 0.950 . S
C2836 C2835 1.334 . S
C2836 C2837 1.287 . S
C2837 C2836 1.287 . S
C2837 C2838 1.524 . S
C2837 H2840 0.999 . S
C2838 H2808 0.950 . S
C2838 C2837 1.524 . S
C2838 C2839 1.415 . S
C2839 H2809 0.950 . S
C2839 C2834 1.363 . S
C2839 C2838 1.415 . S
H2840 C2837 0.999 . S
H2841 C2822 0.913 . S
H2842 C2860 0.951 . S
H2843 C2862 0.951 . S
H2844 C2864 0.950 . S
H2845 C2865 0.950 . S
H2846 C2867 0.950 . S
H2847 C2870 0.950 . S
H2848 C2871 0.950 . S
H2849 C2873 0.950 . S
H2850 C2874 0.950 . S
H2851 C2875 0.951 . S
H2852 C2877 0.951 . S
H2853 C2879 0.950 . S
H2854 C2880 0.950 . S
H2855 C2882 0.950 . S
H2856 C2885 0.950 . S
H2857 C2886 0.950 . S
H2858 C2888 0.950 . S
H2859 C2889 0.950 . S
C2860 H2842 0.951 . S
C2860 C2861 1.366 . S
C2860 C2862 1.388 . S
C2861 C2860 1.366 . S
C2861 C2865 1.385 . S
C2862 H2843 0.951 . S
C2862 C2860 1.388 . S
C2862 C2863 1.366 . S
C2863 C2862 1.366 . S
C2863 C2864 1.414 . S
C2863 C2866 1.499 . S
C2864 H2844 0.950 . S
C2864 C2863 1.414 . S
C2864 C2865 1.374 . S
C2865 H2845 0.950 . S
C2865 C2861 1.385 . S
C2865 C2864 1.374 . S
C2866 C2863 1.499 . S
C2866 C2867 1.373 . S
C2866 C2868 1.389 . S
C2867 H2846 0.950 . S
C2867 C2866 1.373 . S
C2867 C2883 1.377 . S
C2868 C2866 1.389 . S
C2868 C2869 1.524 . S
C2868 C2882 1.377 . S
C2869 C2868 1.524 . S
C2869 C2870 1.397 . S
C2869 C2874 1.363 . S
C2870 H2847 0.950 . S
C2870 C2869 1.397 . S
C2870 C2871 1.334 . S
C2871 H2848 0.950 . S
C2871 C2870 1.334 . S
C2871 C2872 1.287 . S
C2872 C2871 1.287 . S
C2872 C2873 1.524 . S
C2872 H2891 0.913 . S
C2873 H2849 0.950 . S
C2873 C2872 1.524 . S
C2873 C2874 1.415 . S
C2874 H2850 0.950 . S
C2874 C2869 1.363 . S
C2874 C2873 1.415 . S
C2875 H2851 0.951 . S
C2875 C2876 1.366 . S
C2875 C2877 1.388 . S
C2876 C2875 1.366 . S
C2876 C2880 1.385 . S
C2877 H2852 0.951 . S
C2877 C2875 1.388 . S
C2877 C2878 1.366 . S
C2878 C2877 1.366 . S
C2878 C2879 1.414 . S
C2878 C2881 1.499 . S
C2879 H2853 0.950 . S
C2879 C2878 1.414 . S
C2879 C2880 1.374 . S
C2880 H2854 0.950 . S
C2880 C2876 1.385 . S
C2880 C2879 1.374 . S
C2881 C2878 1.499 . S
C2881 C2882 1.373 . S
C2881 C2883 1.389 . S
C2882 H2855 0.950 . S
C2882 C2868 1.377 . S
C2882 C2881 1.373 . S
C2883 C2867 1.377 . S
C2883 C2881 1.389 . S
C2883 C2884 1.524 . S
C2884 C2883 1.524 . S
C2884 C2885 1.397 . S
C2884 C2889 1.363 . S
C2885 H2856 0.950 . S
C2885 C2884 1.397 . S
C2885 C2886 1.334 . S
C2886 H2857 0.950 . S
C2886 C2885 1.334 . S
C2886 C2887 1.287 . S
C2887 C2886 1.287 . S
C2887 C2888 1.524 . S
C2887 H2890 0.999 . S
C2888 H2858 0.950 . S
C2888 C2887 1.524 . S
C2888 C2889 1.415 . S
C2889 H2859 0.950 . S
C2889 C2884 1.363 . S
C2889 C2888 1.415 . S
H2890 C2887 0.999 . S
H2891 C2872 0.913 . S
H2892 C2910 0.951 . S
H2893 C2912 0.951 . S
H2894 C2914 0.950 . S
H2895 C2915 0.950 . S
H2896 C2917 0.950 . S
H2897 C2920 0.950 . S
H2898 C2921 0.950 . S
H2899 C2923 0.950 . S
H2900 C2924 0.950 . S
H2901 C2925 0.951 . S
H2902 C2927 0.951 . S
H2903 C2929 0.950 . S
H2904 C2930 0.950 . S
H2905 C2932 0.950 . S
H2906 C2935 0.950 . S
H2907 C2936 0.950 . S
H2908 C2938 0.950 . S
H2909 C2939 0.950 . S
C2910 H2892 0.951 . S
C2910 C2911 1.366 . S
C2910 C2912 1.388 . S
C2911 C2910 1.366 . S
C2911 C2915 1.385 . S
C2912 H2893 0.951 . S
C2912 C2910 1.388 . S
C2912 C2913 1.366 . S
C2913 C2912 1.366 . S
C2913 C2914 1.414 . S
C2913 C2916 1.499 . S
C2914 H2894 0.950 . S
C2914 C2913 1.414 . S
C2914 C2915 1.374 . S
C2915 H2895 0.950 . S
C2915 C2911 1.385 . S
C2915 C2914 1.374 . S
C2916 C2913 1.499 . S
C2916 C2917 1.373 . S
C2916 C2918 1.389 . S
C2917 H2896 0.950 . S
C2917 C2916 1.373 . S
C2917 C2933 1.377 . S
C2918 C2916 1.389 . S
C2918 C2919 1.524 . S
C2918 C2932 1.377 . S
C2919 C2918 1.524 . S
C2919 C2920 1.397 . S
C2919 C2924 1.363 . S
C2920 H2897 0.950 . S
C2920 C2919 1.397 . S
C2920 C2921 1.334 . S
C2921 H2898 0.950 . S
C2921 C2920 1.334 . S
C2921 C2922 1.287 . S
C2922 C2921 1.287 . S
C2922 C2923 1.524 . S
C2922 H2941 0.913 . S
C2923 H2899 0.950 . S
C2923 C2922 1.524 . S
C2923 C2924 1.415 . S
C2924 H2900 0.950 . S
C2924 C2919 1.363 . S
C2924 C2923 1.415 . S
C2925 H2901 0.951 . S
C2925 C2926 1.366 . S
C2925 C2927 1.388 . S
C2926 C2925 1.366 . S
C2926 C2930 1.385 . S
C2927 H2902 0.951 . S
C2927 C2925 1.388 . S
C2927 C2928 1.366 . S
C2928 C2927 1.366 . S
C2928 C2929 1.414 . S
C2928 C2931 1.499 . S
C2929 H2903 0.950 . S
C2929 C2928 1.414 . S
C2929 C2930 1.374 . S
C2930 H2904 0.950 . S
C2930 C2926 1.385 . S
C2930 C2929 1.374 . S
C2931 C2928 1.499 . S
C2931 C2932 1.373 . S
C2931 C2933 1.389 . S
C2932 H2905 0.950 . S
C2932 C2918 1.377 . S
C2932 C2931 1.373 . S
C2933 C2917 1.377 . S
C2933 C2931 1.389 . S
C2933 C2934 1.524 . S
C2934 C2933 1.524 . S
C2934 C2935 1.397 . S
C2934 C2939 1.363 . S
C2935 H2906 0.950 . S
C2935 C2934 1.397 . S
C2935 C2936 1.334 . S
C2936 H2907 0.950 . S
C2936 C2935 1.334 . S
C2936 C2937 1.287 . S
C2937 C2936 1.287 . S
C2937 C2938 1.524 . S
C2937 H2940 0.999 . S
C2938 H2908 0.950 . S
C2938 C2937 1.524 . S
C2938 C2939 1.415 . S
C2939 H2909 0.950 . S
C2939 C2934 1.363 . S
C2939 C2938 1.415 . S
H2940 C2937 0.999 . S
H2941 C2922 0.913 . S
H2942 C2960 0.951 . S
H2943 C2962 0.951 . S
H2944 C2964 0.950 . S
H2945 C2965 0.950 . S
H2946 C2967 0.950 . S
H2947 C2970 0.950 . S
H2948 C2971 0.950 . S
H2949 C2973 0.950 . S
H2950 C2974 0.950 . S
H2951 C2975 0.951 . S
H2952 C2977 0.951 . S
H2953 C2979 0.950 . S
H2954 C2980 0.950 . S
H2955 C2982 0.950 . S
H2956 C2985 0.950 . S
H2957 C2986 0.950 . S
H2958 C2988 0.950 . S
H2959 C2989 0.950 . S
C2960 H2942 0.951 . S
C2960 C2961 1.366 . S
C2960 C2962 1.388 . S
C2961 C2960 1.366 . S
C2961 C2965 1.385 . S
C2962 H2943 0.951 . S
C2962 C2960 1.388 . S
C2962 C2963 1.366 . S
C2963 C2962 1.366 . S
C2963 C2964 1.414 . S
C2963 C2966 1.499 . S
C2964 H2944 0.950 . S
C2964 C2963 1.414 . S
C2964 C2965 1.374 . S
C2965 H2945 0.950 . S
C2965 C2961 1.385 . S
C2965 C2964 1.374 . S
C2966 C2963 1.499 . S
C2966 C2967 1.373 . S
C2966 C2968 1.389 . S
C2967 H2946 0.950 . S
C2967 C2966 1.373 . S
C2967 C2983 1.377 . S
C2968 C2966 1.389 . S
C2968 C2969 1.524 . S
C2968 C2982 1.377 . S
C2969 C2968 1.524 . S
C2969 C2970 1.397 . S
C2969 C2974 1.363 . S
C2970 H2947 0.950 . S
C2970 C2969 1.397 . S
C2970 C2971 1.334 . S
C2971 H2948 0.950 . S
C2971 C2970 1.334 . S
C2971 C2972 1.287 . S
C2972 C2971 1.287 . S
C2972 C2973 1.524 . S
C2972 H2991 0.913 . S
C2973 H2949 0.950 . S
C2973 C2972 1.524 . S
C2973 C2974 1.415 . S
C2974 H2950 0.950 . S
C2974 C2969 1.363 . S
C2974 C2973 1.415 . S
C2975 H2951 0.951 . S
C2975 C2976 1.366 . S
C2975 C2977 1.388 . S
C2976 C2975 1.366 . S
C2976 C2980 1.385 . S
C2977 H2952 0.951 . S
C2977 C2975 1.388 . S
C2977 C2978 1.366 . S
C2978 C2977 1.366 . S
C2978 C2979 1.414 . S
C2978 C2981 1.499 . S
C2979 H2953 0.950 . S
C2979 C2978 1.414 . S
C2979 C2980 1.374 . S
C2980 H2954 0.950 . S
C2980 C2976 1.385 . S
C2980 C2979 1.374 . S
C2981 C2978 1.499 . S
C2981 C2982 1.373 . S
C2981 C2983 1.389 . S
C2982 H2955 0.950 . S
C2982 C2968 1.377 . S
C2982 C2981 1.373 . S
C2983 C2967 1.377 . S
C2983 C2981 1.389 . S
C2983 C2984 1.524 . S
C2984 C2983 1.524 . S
C2984 C2985 1.397 . S
C2984 C2989 1.363 . S
C2985 H2956 0.950 . S
C2985 C2984 1.397 . S
C2985 C2986 1.334 . S
C2986 H2957 0.950 . S
C2986 C2985 1.334 . S
C2986 C2987 1.287 . S
C2987 C2986 1.287 . S
C2987 C2988 1.524 . S
C2987 H2990 0.999 . S
C2988 H2958 0.950 . S
C2988 C2987 1.524 . S
C2988 C2989 1.415 . S
C2989 H2959 0.950 . S
C2989 C2984 1.363 . S
C2989 C2988 1.415 . S
H2990 C2987 0.999 . S
H2991 C2972 0.913 . S
H2992 C3010 0.951 . S
H2993 C3012 0.951 . S
H2994 C3014 0.950 . S
H2995 C3015 0.950 . S
H2996 C3017 0.950 . S
H2997 C3020 0.950 . S
H2998 C3021 0.950 . S
H2999 C3023 0.950 . S
H3000 C3024 0.950 . S
H3001 C3025 0.951 . S
H3002 C3027 0.951 . S
H3003 C3029 0.950 . S
H3004 C3030 0.950 . S
H3005 C3032 0.950 . S
H3006 C3035 0.950 . S
H3007 C3036 0.950 . S
H3008 C3038 0.950 . S
H3009 C3039 0.950 . S
C3010 H2992 0.951 . S
C3010 C3011 1.366 . S
C3010 C3012 1.388 . S
C3011 C3010 1.366 . S
C3011 C3015 1.385 . S
C3012 H2993 0.951 . S
C3012 C3010 1.388 . S
C3012 C3013 1.366 . S
C3013 C3012 1.366 . S
C3013 C3014 1.414 . S
C3013 C3016 1.499 . S
C3014 H2994 0.950 . S
C3014 C3013 1.414 . S
C3014 C3015 1.374 . S
C3015 H2995 0.950 . S
C3015 C3011 1.385 . S
C3015 C3014 1.374 . S
C3016 C3013 1.499 . S
C3016 C3017 1.373 . S
C3016 C3018 1.389 . S
C3017 H2996 0.950 . S
C3017 C3016 1.373 . S
C3017 C3033 1.377 . S
C3018 C3016 1.389 . S
C3018 C3019 1.524 . S
C3018 C3032 1.377 . S
C3019 C3018 1.524 . S
C3019 C3020 1.397 . S
C3019 C3024 1.363 . S
C3020 H2997 0.950 . S
C3020 C3019 1.397 . S
C3020 C3021 1.334 . S
C3021 H2998 0.950 . S
C3021 C3020 1.334 . S
C3021 C3022 1.287 . S
C3022 C3021 1.287 . S
C3022 C3023 1.524 . S
C3022 H3041 0.913 . S
C3023 H2999 0.950 . S
C3023 C3022 1.524 . S
C3023 C3024 1.415 . S
C3024 H3000 0.950 . S
C3024 C3019 1.363 . S
C3024 C3023 1.415 . S
C3025 H3001 0.951 . S
C3025 C3026 1.366 . S
C3025 C3027 1.388 . S
C3026 C3025 1.366 . S
C3026 C3030 1.385 . S
C3027 H3002 0.951 . S
C3027 C3025 1.388 . S
C3027 C3028 1.366 . S
C3028 C3027 1.366 . S
C3028 C3029 1.414 . S
C3028 C3031 1.499 . S
C3029 H3003 0.950 . S
C3029 C3028 1.414 . S
C3029 C3030 1.374 . S
C3030 H3004 0.950 . S
C3030 C3026 1.385 . S
C3030 C3029 1.374 . S
C3031 C3028 1.499 . S
C3031 C3032 1.373 . S
C3031 C3033 1.389 . S
C3032 H3005 0.950 . S
C3032 C3018 1.377 . S
C3032 C3031 1.373 . S
C3033 C3017 1.377 . S
C3033 C3031 1.389 . S
C3033 C3034 1.524 . S
C3034 C3033 1.524 . S
C3034 C3035 1.397 . S
C3034 C3039 1.363 . S
C3035 H3006 0.950 . S
C3035 C3034 1.397 . S
C3035 C3036 1.334 . S
C3036 H3007 0.950 . S
C3036 C3035 1.334 . S
C3036 C3037 1.287 . S
C3037 C3036 1.287 . S
C3037 C3038 1.524 . S
C3037 H3040 0.999 . S
C3038 H3008 0.950 . S
C3038 C3037 1.524 . S
C3038 C3039 1.415 . S
C3039 H3009 0.950 . S
C3039 C3034 1.363 . S
C3039 C3038 1.415 . S
H3040 C3037 0.999 . S
H3041 C3022 0.913 . S
H3042 C3060 0.951 . S
H3043 C3062 0.951 . S
H3044 C3064 0.950 . S
H3045 C3065 0.950 . S
H3046 C3067 0.950 . S
H3047 C3070 0.950 . S
H3048 C3071 0.950 . S
H3049 C3073 0.950 . S
H3050 C3074 0.950 . S
H3051 C3075 0.951 . S
H3052 C3077 0.951 . S
H3053 C3079 0.950 . S
H3054 C3080 0.950 . S
H3055 C3082 0.950 . S
H3056 C3085 0.950 . S
H3057 C3086 0.950 . S
H3058 C3088 0.950 . S
H3059 C3089 0.950 . S
C3060 H3042 0.951 . S
C3060 C3061 1.366 . S
C3060 C3062 1.388 . S
C3061 C3060 1.366 . S
C3061 C3065 1.385 . S
C3062 H3043 0.951 . S
C3062 C3060 1.388 . S
C3062 C3063 1.366 . S
C3063 C3062 1.366 . S
C3063 C3064 1.414 . S
C3063 C3066 1.499 . S
C3064 H3044 0.950 . S
C3064 C3063 1.414 . S
C3064 C3065 1.374 . S
C3065 H3045 0.950 . S
C3065 C3061 1.385 . S
C3065 C3064 1.374 . S
C3066 C3063 1.499 . S
C3066 C3067 1.373 . S
C3066 C3068 1.389 . S
C3067 H3046 0.950 . S
C3067 C3066 1.373 . S
C3067 C3083 1.377 . S
C3068 C3066 1.389 . S
C3068 C3069 1.524 . S
C3068 C3082 1.377 . S
C3069 C3068 1.524 . S
C3069 C3070 1.397 . S
C3069 C3074 1.363 . S
C3070 H3047 0.950 . S
C3070 C3069 1.397 . S
C3070 C3071 1.334 . S
C3071 H3048 0.950 . S
C3071 C3070 1.334 . S
C3071 C3072 1.287 . S
C3072 C3071 1.287 . S
C3072 C3073 1.524 . S
C3072 H3091 0.913 . S
C3073 H3049 0.950 . S
C3073 C3072 1.524 . S
C3073 C3074 1.415 . S
C3074 H3050 0.950 . S
C3074 C3069 1.363 . S
C3074 C3073 1.415 . S
C3075 H3051 0.951 . S
C3075 C3076 1.366 . S
C3075 C3077 1.388 . S
C3076 C3075 1.366 . S
C3076 C3080 1.385 . S
C3077 H3052 0.951 . S
C3077 C3075 1.388 . S
C3077 C3078 1.366 . S
C3078 C3077 1.366 . S
C3078 C3079 1.414 . S
C3078 C3081 1.499 . S
C3079 H3053 0.950 . S
C3079 C3078 1.414 . S
C3079 C3080 1.374 . S
C3080 H3054 0.950 . S
C3080 C3076 1.385 . S
C3080 C3079 1.374 . S
C3081 C3078 1.499 . S
C3081 C3082 1.373 . S
C3081 C3083 1.389 . S
C3082 H3055 0.950 . S
C3082 C3068 1.377 . S
C3082 C3081 1.373 . S
C3083 C3067 1.377 . S
C3083 C3081 1.389 . S
C3083 C3084 1.524 . S
C3084 C3083 1.524 . S
C3084 C3085 1.397 . S
C3084 C3089 1.363 . S
C3085 H3056 0.950 . S
C3085 C3084 1.397 . S
C3085 C3086 1.334 . S
C3086 H3057 0.950 . S
C3086 C3085 1.334 . S
C3086 C3087 1.287 . S
C3087 C3086 1.287 . S
C3087 C3088 1.524 . S
C3087 H3090 0.999 . S
C3088 H3058 0.950 . S
C3088 C3087 1.524 . S
C3088 C3089 1.415 . S
C3089 H3059 0.950 . S
C3089 C3084 1.363 . S
C3089 C3088 1.415 . S
H3090 C3087 0.999 . S
H3091 C3072 0.913 . S
H3092 C3110 0.951 . S
H3093 C3112 0.951 . S
H3094 C3114 0.950 . S
H3095 C3115 0.950 . S
H3096 C3117 0.950 . S
H3097 C3120 0.950 . S
H3098 C3121 0.950 . S
H3099 C3123 0.950 . S
H3100 C3124 0.950 . S
H3101 C3125 0.951 . S
H3102 C3127 0.951 . S
H3103 C3129 0.950 . S
H3104 C3130 0.950 . S
H3105 C3132 0.950 . S
H3106 C3135 0.950 . S
H3107 C3136 0.950 . S
H3108 C3138 0.950 . S
H3109 C3139 0.950 . S
C3110 H3092 0.951 . S
C3110 C3111 1.366 . S
C3110 C3112 1.388 . S
C3111 C3110 1.366 . S
C3111 C3115 1.385 . S
C3112 H3093 0.951 . S
C3112 C3110 1.388 . S
C3112 C3113 1.366 . S
C3113 C3112 1.366 . S
C3113 C3114 1.414 . S
C3113 C3116 1.499 . S
C3114 H3094 0.950 . S
C3114 C3113 1.414 . S
C3114 C3115 1.374 . S
C3115 H3095 0.950 . S
C3115 C3111 1.385 . S
C3115 C3114 1.374 . S
C3116 C3113 1.499 . S
C3116 C3117 1.373 . S
C3116 C3118 1.389 . S
C3117 H3096 0.950 . S
C3117 C3116 1.373 . S
C3117 C3133 1.377 . S
C3118 C3116 1.389 . S
C3118 C3119 1.524 . S
C3118 C3132 1.377 . S
C3119 C3118 1.524 . S
C3119 C3120 1.397 . S
C3119 C3124 1.363 . S
C3120 H3097 0.950 . S
C3120 C3119 1.397 . S
C3120 C3121 1.334 . S
C3121 H3098 0.950 . S
C3121 C3120 1.334 . S
C3121 C3122 1.287 . S
C3122 C3121 1.287 . S
C3122 C3123 1.524 . S
C3122 H3141 0.913 . S
C3123 H3099 0.950 . S
C3123 C3122 1.524 . S
C3123 C3124 1.415 . S
C3124 H3100 0.950 . S
C3124 C3119 1.363 . S
C3124 C3123 1.415 . S
C3125 H3101 0.951 . S
C3125 C3126 1.366 . S
C3125 C3127 1.388 . S
C3126 C3125 1.366 . S
C3126 C3130 1.385 . S
C3127 H3102 0.951 . S
C3127 C3125 1.388 . S
C3127 C3128 1.366 . S
C3128 C3127 1.366 . S
C3128 C3129 1.414 . S
C3128 C3131 1.499 . S
C3129 H3103 0.950 . S
C3129 C3128 1.414 . S
C3129 C3130 1.374 . S
C3130 H3104 0.950 . S
C3130 C3126 1.385 . S
C3130 C3129 1.374 . S
C3131 C3128 1.499 . S
C3131 C3132 1.373 . S
C3131 C3133 1.389 . S
C3132 H3105 0.950 . S
C3132 C3118 1.377 . S
C3132 C3131 1.373 . S
C3133 C3117 1.377 . S
C3133 C3131 1.389 . S
C3133 C3134 1.524 . S
C3134 C3133 1.524 . S
C3134 C3135 1.397 . S
C3134 C3139 1.363 . S
C3135 H3106 0.950 . S
C3135 C3134 1.397 . S
C3135 C3136 1.334 . S
C3136 H3107 0.950 . S
C3136 C3135 1.334 . S
C3136 C3137 1.287 . S
C3137 C3136 1.287 . S
C3137 C3138 1.524 . S
C3137 H3140 0.999 . S
C3138 H3108 0.950 . S
C3138 C3137 1.524 . S
C3138 C3139 1.415 . S
C3139 H3109 0.950 . S
C3139 C3134 1.363 . S
C3139 C3138 1.415 . S
H3140 C3137 0.999 . S
H3141 C3122 0.913 . S
H3142 C3160 0.951 . S
H3143 C3162 0.951 . S
H3144 C3164 0.950 . S
H3145 C3165 0.950 . S
H3146 C3167 0.950 . S
H3147 C3170 0.950 . S
H3148 C3171 0.950 . S
H3149 C3173 0.950 . S
H3150 C3174 0.950 . S
H3151 C3175 0.951 . S
H3152 C3177 0.951 . S
H3153 C3179 0.950 . S
H3154 C3180 0.950 . S
H3155 C3182 0.950 . S
H3156 C3185 0.950 . S
H3157 C3186 0.950 . S
H3158 C3188 0.950 . S
H3159 C3189 0.950 . S
C3160 H3142 0.951 . S
C3160 C3161 1.366 . S
C3160 C3162 1.388 . S
C3161 C3160 1.366 . S
C3161 C3165 1.385 . S
C3162 H3143 0.951 . S
C3162 C3160 1.388 . S
C3162 C3163 1.366 . S
C3163 C3162 1.366 . S
C3163 C3164 1.414 . S
C3163 C3166 1.499 . S
C3164 H3144 0.950 . S
C3164 C3163 1.414 . S
C3164 C3165 1.374 . S
C3165 H3145 0.950 . S
C3165 C3161 1.385 . S
C3165 C3164 1.374 . S
C3166 C3163 1.499 . S
C3166 C3167 1.373 . S
C3166 C3168 1.389 . S
C3167 H3146 0.950 . S
C3167 C3166 1.373 . S
C3167 C3183 1.377 . S
C3168 C3166 1.389 . S
C3168 C3169 1.524 . S
C3168 C3182 1.377 . S
C3169 C3168 1.524 . S
C3169 C3170 1.397 . S
C3169 C3174 1.363 . S
C3170 H3147 0.950 . S
C3170 C3169 1.397 . S
C3170 C3171 1.334 . S
C3171 H3148 0.950 . S
C3171 C3170 1.334 . S
C3171 C3172 1.287 . S
C3172 C3171 1.287 . S
C3172 C3173 1.524 . S
C3172 H3191 0.913 . S
C3173 H3149 0.950 . S
C3173 C3172 1.524 . S
C3173 C3174 1.415 . S
C3174 H3150 0.950 . S
C3174 C3169 1.363 . S
C3174 C3173 1.415 . S
C3175 H3151 0.951 . S
C3175 C3176 1.366 . S
C3175 C3177 1.388 . S
C3176 C3175 1.366 . S
C3176 C3180 1.385 . S
C3177 H3152 0.951 . S
C3177 C3175 1.388 . S
C3177 C3178 1.366 . S
C3178 C3177 1.366 . S
C3178 C3179 1.414 . S
C3178 C3181 1.499 . S
C3179 H3153 0.950 . S
C3179 C3178 1.414 . S
C3179 C3180 1.374 . S
C3180 H3154 0.950 . S
C3180 C3176 1.385 . S
C3180 C3179 1.374 . S
C3181 C3178 1.499 . S
C3181 C3182 1.373 . S
C3181 C3183 1.389 . S
C3182 H3155 0.950 . S
C3182 C3168 1.377 . S
C3182 C3181 1.373 . S
C3183 C3167 1.377 . S
C3183 C3181 1.389 . S
C3183 C3184 1.524 . S
C3184 C3183 1.524 . S
C3184 C3185 1.397 . S
C3184 C3189 1.363 . S
C3185 H3156 0.950 . S
C3185 C3184 1.397 . S
C3185 C3186 1.334 . S
C3186 H3157 0.950 . S
C3186 C3185 1.334 . S
C3186 C3187 1.287 . S
C3187 C3186 1.287 . S
C3187 C3188 1.524 . S
C3187 H3190 0.999 . S
C3188 H3158 0.950 . S
C3188 C3187 1.524 . S
C3188 C3189 1.415 . S
C3189 H3159 0.950 . S
C3189 C3184 1.363 . S
C3189 C3188 1.415 . S
H3190 C3187 0.999 . S
H3191 C3172 0.913 . S
H3192 C3210 0.951 . S
H3193 C3212 0.951 . S
H3194 C3214 0.950 . S
H3195 C3215 0.950 . S
H3196 C3217 0.950 . S
H3197 C3220 0.950 . S
H3198 C3221 0.950 . S
H3199 C3223 0.950 . S
H3200 C3224 0.950 . S
H3201 C3225 0.951 . S
H3202 C3227 0.951 . S
H3203 C3229 0.950 . S
H3204 C3230 0.950 . S
H3205 C3232 0.950 . S
H3206 C3235 0.950 . S
H3207 C3236 0.950 . S
H3208 C3238 0.950 . S
H3209 C3239 0.950 . S
C3210 H3192 0.951 . S
C3210 C3211 1.366 . S
C3210 C3212 1.388 . S
C3211 C3210 1.366 . S
C3211 C3215 1.385 . S
C3212 H3193 0.951 . S
C3212 C3210 1.388 . S
C3212 C3213 1.366 . S
C3213 C3212 1.366 . S
C3213 C3214 1.414 . S
C3213 C3216 1.499 . S
C3214 H3194 0.950 . S
C3214 C3213 1.414 . S
C3214 C3215 1.374 . S
C3215 H3195 0.950 . S
C3215 C3211 1.385 . S
C3215 C3214 1.374 . S
C3216 C3213 1.499 . S
C3216 C3217 1.373 . S
C3216 C3218 1.389 . S
C3217 H3196 0.950 . S
C3217 C3216 1.373 . S
C3217 C3233 1.377 1_554 S
C3218 C3216 1.389 . S
C3218 C3219 1.524 . S
C3218 C3232 1.377 1_554 S
C3219 C3218 1.524 . S
C3219 C3220 1.397 . S
C3219 C3224 1.363 . S
C3220 H3197 0.950 . S
C3220 C3219 1.397 . S
C3220 C3221 1.334 . S
C3221 H3198 0.950 . S
C3221 C3220 1.334 . S
C3221 C3222 1.287 . S
C3222 C3221 1.287 . S
C3222 C3223 1.524 . S
C3222 H3241 0.913 . S
C3223 H3199 0.950 . S
C3223 C3222 1.524 . S
C3223 C3224 1.415 . S
C3224 H3200 0.950 . S
C3224 C3219 1.363 . S
C3224 C3223 1.415 . S
C3225 H3201 0.951 . S
C3225 C3226 1.366 . S
C3225 C3227 1.388 . S
C3226 C3225 1.366 . S
C3226 C3230 1.385 . S
C3227 H3202 0.951 . S
C3227 C3225 1.388 . S
C3227 C3228 1.366 . S
C3228 C3227 1.366 . S
C3228 C3229 1.414 . S
C3228 C3231 1.499 . S
C3229 H3203 0.950 . S
C3229 C3228 1.414 . S
C3229 C3230 1.374 . S
C3230 H3204 0.950 . S
C3230 C3226 1.385 . S
C3230 C3229 1.374 . S
C3231 C3228 1.499 . S
C3231 C3232 1.373 . S
C3231 C3233 1.389 . S
C3232 H3205 0.950 . S
C3232 C3218 1.377 1_556 S
C3232 C3231 1.373 . S
C3233 C3217 1.377 1_556 S
C3233 C3231 1.389 . S
C3233 C3234 1.524 . S
C3234 C3233 1.524 . S
C3234 C3235 1.397 . S
C3234 C3239 1.363 . S
C3235 H3206 0.950 . S
C3235 C3234 1.397 . S
C3235 C3236 1.334 . S
C3236 H3207 0.950 . S
C3236 C3235 1.334 . S
C3236 C3237 1.287 . S
C3237 C3236 1.287 . S
C3237 C3238 1.524 . S
C3237 H3240 0.999 . S
C3238 H3208 0.950 . S
C3238 C3237 1.524 . S
C3238 C3239 1.415 . S
C3239 H3209 0.950 . S
C3239 C3234 1.363 . S
C3239 C3238 1.415 . S
H3240 C3237 0.999 . S
H3241 C3222 0.913 . S
H3242 C3260 0.951 . S
H3243 C3262 0.951 . S
H3244 C3264 0.950 . S
H3245 C3265 0.950 . S
H3246 C3267 0.950 . S
H3247 C3270 0.950 . S
H3248 C3271 0.950 . S
H3249 C3273 0.950 . S
H3250 C3274 0.950 . S
H3251 C3275 0.951 . S
H3252 C3277 0.951 . S
H3253 C3279 0.950 . S
H3254 C3280 0.950 . S
H3255 C3282 0.950 . S
H3256 C3285 0.950 . S
H3257 C3286 0.950 . S
H3258 C3288 0.950 . S
H3259 C3289 0.950 . S
C3260 H3242 0.951 . S
C3260 C3261 1.366 . S
C3260 C3262 1.388 . S
C3261 C3260 1.366 . S
C3261 C3265 1.385 . S
C3262 H3243 0.951 . S
C3262 C3260 1.388 . S
C3262 C3263 1.366 . S
C3263 C3262 1.366 . S
C3263 C3264 1.414 . S
C3263 C3266 1.499 . S
C3264 H3244 0.950 . S
C3264 C3263 1.414 . S
C3264 C3265 1.374 . S
C3265 H3245 0.950 . S
C3265 C3261 1.385 . S
C3265 C3264 1.374 . S
C3266 C3263 1.499 . S
C3266 C3267 1.373 . S
C3266 C3268 1.389 . S
C3267 H3246 0.950 . S
C3267 C3266 1.373 . S
C3267 C3283 1.377 1_554 S
C3268 C3266 1.389 . S
C3268 C3269 1.524 . S
C3268 C3282 1.377 1_554 S
C3269 C3268 1.524 . S
C3269 C3270 1.397 . S
C3269 C3274 1.363 . S
C3270 H3247 0.950 . S
C3270 C3269 1.397 . S
C3270 C3271 1.334 . S
C3271 H3248 0.950 . S
C3271 C3270 1.334 . S
C3271 C3272 1.287 . S
C3272 C3271 1.287 . S
C3272 C3273 1.524 . S
C3272 H3291 0.913 . S
C3273 H3249 0.950 . S
C3273 C3272 1.524 . S
C3273 C3274 1.415 . S
C3274 H3250 0.950 . S
C3274 C3269 1.363 . S
C3274 C3273 1.415 . S
C3275 H3251 0.951 . S
C3275 C3276 1.366 . S
C3275 C3277 1.388 . S
C3276 C3275 1.366 . S
C3276 C3280 1.385 . S
C3277 H3252 0.951 . S
C3277 C3275 1.388 . S
C3277 C3278 1.366 . S
C3278 C3277 1.366 . S
C3278 C3279 1.414 . S
C3278 C3281 1.499 . S
C3279 H3253 0.950 . S
C3279 C3278 1.414 . S
C3279 C3280 1.374 . S
C3280 H3254 0.950 . S
C3280 C3276 1.385 . S
C3280 C3279 1.374 . S
C3281 C3278 1.499 . S
C3281 C3282 1.373 . S
C3281 C3283 1.389 . S
C3282 H3255 0.950 . S
C3282 C3268 1.377 1_556 S
C3282 C3281 1.373 . S
C3283 C3267 1.377 1_556 S
C3283 C3281 1.389 . S
C3283 C3284 1.524 . S
C3284 C3283 1.524 . S
C3284 C3285 1.397 . S
C3284 C3289 1.363 . S
C3285 H3256 0.950 . S
C3285 C3284 1.397 . S
C3285 C3286 1.334 . S
C3286 H3257 0.950 . S
C3286 C3285 1.334 . S
C3286 C3287 1.287 . S
C3287 C3286 1.287 . S
C3287 C3288 1.524 . S
C3287 H3290 0.999 . S
C3288 H3258 0.950 . S
C3288 C3287 1.524 . S
C3288 C3289 1.415 . S
C3289 H3259 0.950 . S
C3289 C3284 1.363 . S
C3289 C3288 1.415 . S
H3290 C3287 0.999 . S
H3291 C3272 0.913 . S
H3292 C3310 0.951 . S
H3293 C3312 0.951 . S
H3294 C3314 0.950 . S
H3295 C3315 0.950 . S
H3296 C3317 0.950 . S
H3297 C3320 0.950 . S
H3298 C3321 0.950 . S
H3299 C3323 0.950 . S
H3300 C3324 0.950 . S
H3301 C3325 0.951 . S
H3302 C3327 0.951 . S
H3303 C3329 0.950 . S
H3304 C3330 0.950 . S
H3305 C3332 0.950 . S
H3306 C3335 0.950 . S
H3307 C3336 0.950 . S
H3308 C3338 0.950 . S
H3309 C3339 0.950 . S
C3310 H3292 0.951 . S
C3310 C3311 1.366 . S
C3310 C3312 1.388 . S
C3311 C3310 1.366 . S
C3311 C3315 1.385 . S
C3312 H3293 0.951 . S
C3312 C3310 1.388 . S
C3312 C3313 1.366 . S
C3313 C3312 1.366 . S
C3313 C3314 1.414 . S
C3313 C3316 1.499 . S
C3314 H3294 0.950 . S
C3314 C3313 1.414 . S
C3314 C3315 1.374 . S
C3315 H3295 0.950 . S
C3315 C3311 1.385 . S
C3315 C3314 1.374 . S
C3316 C3313 1.499 . S
C3316 C3317 1.373 . S
C3316 C3318 1.389 . S
C3317 H3296 0.950 . S
C3317 C3316 1.373 . S
C3317 C3333 1.377 1_554 S
C3318 C3316 1.389 . S
C3318 C3319 1.524 . S
C3318 C3332 1.377 1_554 S
C3319 C3318 1.524 . S
C3319 C3320 1.397 . S
C3319 C3324 1.363 . S
C3320 H3297 0.950 . S
C3320 C3319 1.397 . S
C3320 C3321 1.334 . S
C3321 H3298 0.950 . S
C3321 C3320 1.334 . S
C3321 C3322 1.287 . S
C3322 C3321 1.287 . S
C3322 C3323 1.524 . S
C3322 H3341 0.913 . S
C3323 H3299 0.950 . S
C3323 C3322 1.524 . S
C3323 C3324 1.415 . S
C3324 H3300 0.950 . S
C3324 C3319 1.363 . S
C3324 C3323 1.415 . S
C3325 H3301 0.951 . S
C3325 C3326 1.366 . S
C3325 C3327 1.388 . S
C3326 C3325 1.366 . S
C3326 C3330 1.385 . S
C3327 H3302 0.951 . S
C3327 C3325 1.388 . S
C3327 C3328 1.366 . S
C3328 C3327 1.366 . S
C3328 C3329 1.414 . S
C3328 C3331 1.499 . S
C3329 H3303 0.950 . S
C3329 C3328 1.414 . S
C3329 C3330 1.374 . S
C3330 H3304 0.950 . S
C3330 C3326 1.385 . S
C3330 C3329 1.374 . S
C3331 C3328 1.499 . S
C3331 C3332 1.373 . S
C3331 C3333 1.389 . S
C3332 H3305 0.950 . S
C3332 C3318 1.377 1_556 S
C3332 C3331 1.373 . S
C3333 C3317 1.377 1_556 S
C3333 C3331 1.389 . S
C3333 C3334 1.524 . S
C3334 C3333 1.524 . S
C3334 C3335 1.397 . S
C3334 C3339 1.363 . S
C3335 H3306 0.950 . S
C3335 C3334 1.397 . S
C3335 C3336 1.334 . S
C3336 H3307 0.950 . S
C3336 C3335 1.334 . S
C3336 C3337 1.287 . S
C3337 C3336 1.287 . S
C3337 C3338 1.524 . S
C3337 H3340 0.999 . S
C3338 H3308 0.950 . S
C3338 C3337 1.524 . S
C3338 C3339 1.415 . S
C3339 H3309 0.950 . S
C3339 C3334 1.363 . S
C3339 C3338 1.415 . S
H3340 C3337 0.999 . S
H3341 C3322 0.913 . S
H3342 C3360 0.951 . S
H3343 C3362 0.951 . S
H3344 C3364 0.950 . S
H3345 C3365 0.950 . S
H3346 C3367 0.950 . S
H3347 C3370 0.950 . S
H3348 C3371 0.950 . S
H3349 C3373 0.950 . S
H3350 C3374 0.950 . S
H3351 C3375 0.951 . S
H3352 C3377 0.951 . S
H3353 C3379 0.950 . S
H3354 C3380 0.950 . S
H3355 C3382 0.950 . S
H3356 C3385 0.950 . S
H3357 C3386 0.950 . S
H3358 C3388 0.950 . S
H3359 C3389 0.950 . S
C3360 H3342 0.951 . S
C3360 C3361 1.366 . S
C3360 C3362 1.388 . S
C3361 C3360 1.366 . S
C3361 C3365 1.385 . S
C3362 H3343 0.951 . S
C3362 C3360 1.388 . S
C3362 C3363 1.366 . S
C3363 C3362 1.366 . S
C3363 C3364 1.414 . S
C3363 C3366 1.499 . S
C3364 H3344 0.950 . S
C3364 C3363 1.414 . S
C3364 C3365 1.374 . S
C3365 H3345 0.950 . S
C3365 C3361 1.385 . S
C3365 C3364 1.374 . S
C3366 C3363 1.499 . S
C3366 C3367 1.373 . S
C3366 C3368 1.389 . S
C3367 H3346 0.950 . S
C3367 C3366 1.373 . S
C3367 C3383 1.377 1_554 S
C3368 C3366 1.389 . S
C3368 C3369 1.524 . S
C3368 C3382 1.377 1_554 S
C3369 C3368 1.524 . S
C3369 C3370 1.397 . S
C3369 C3374 1.363 . S
C3370 H3347 0.950 . S
C3370 C3369 1.397 . S
C3370 C3371 1.334 . S
C3371 H3348 0.950 . S
C3371 C3370 1.334 . S
C3371 C3372 1.287 . S
C3372 C3371 1.287 . S
C3372 C3373 1.524 . S
C3372 H3391 0.913 . S
C3373 H3349 0.950 . S
C3373 C3372 1.524 . S
C3373 C3374 1.415 . S
C3374 H3350 0.950 . S
C3374 C3369 1.363 . S
C3374 C3373 1.415 . S
C3375 H3351 0.951 . S
C3375 C3376 1.366 . S
C3375 C3377 1.388 . S
C3376 C3375 1.366 . S
C3376 C3380 1.385 . S
C3377 H3352 0.951 . S
C3377 C3375 1.388 . S
C3377 C3378 1.366 . S
C3378 C3377 1.366 . S
C3378 C3379 1.414 . S
C3378 C3381 1.499 . S
C3379 H3353 0.950 . S
C3379 C3378 1.414 . S
C3379 C3380 1.374 . S
C3380 H3354 0.950 . S
C3380 C3376 1.385 . S
C3380 C3379 1.374 . S
C3381 C3378 1.499 . S
C3381 C3382 1.373 . S
C3381 C3383 1.389 . S
C3382 H3355 0.950 . S
C3382 C3368 1.377 1_556 S
C3382 C3381 1.373 . S
C3383 C3367 1.377 1_556 S
C3383 C3381 1.389 . S
C3383 C3384 1.524 . S
C3384 C3383 1.524 . S
C3384 C3385 1.397 . S
C3384 C3389 1.363 . S
C3385 H3356 0.950 . S
C3385 C3384 1.397 . S
C3385 C3386 1.334 . S
C3386 H3357 0.950 . S
C3386 C3385 1.334 . S
C3386 C3387 1.287 . S
C3387 C3386 1.287 . S
C3387 C3388 1.524 . S
C3387 H3390 0.999 . S
C3388 H3358 0.950 . S
C3388 C3387 1.524 . S
C3388 C3389 1.415 . S
C3389 H3359 0.950 . S
C3389 C3384 1.363 . S
C3389 C3388 1.415 . S
H3390 C3387 0.999 . S
H3391 C3372 0.913 . S
H3392 C3410 0.951 . S
H3393 C3412 0.951 . S
H3394 C3414 0.950 . S
H3395 C3415 0.950 . S
H3396 C3417 0.950 . S
H3397 C3420 0.950 . S
H3398 C3421 0.950 . S
H3399 C3423 0.950 . S
H3400 C3424 0.950 . S
H3401 C3425 0.951 . S
H3402 C3427 0.951 . S
H3403 C3429 0.950 . S
H3404 C3430 0.950 . S
H3405 C3432 0.950 . S
H3406 C3435 0.950 . S
H3407 C3436 0.950 . S
H3408 C3438 0.950 . S
H3409 C3439 0.950 . S
C3410 H3392 0.951 . S
C3410 C3411 1.366 . S
C3410 C3412 1.388 . S
C3411 C3410 1.366 . S
C3411 C3415 1.385 . S
C3412 H3393 0.951 . S
C3412 C3410 1.388 . S
C3412 C3413 1.366 . S
C3413 C3412 1.366 . S
C3413 C3414 1.414 . S
C3413 C3416 1.499 . S
C3414 H3394 0.950 . S
C3414 C3413 1.414 . S
C3414 C3415 1.374 . S
C3415 H3395 0.950 . S
C3415 C3411 1.385 . S
C3415 C3414 1.374 . S
C3416 C3413 1.499 . S
C3416 C3417 1.373 . S
C3416 C3418 1.389 . S
C3417 H3396 0.950 . S
C3417 C3416 1.373 . S
C3417 C3433 1.377 1_554 S
C3418 C3416 1.389 . S
C3418 C3419 1.524 . S
C3418 C3432 1.377 1_554 S
C3419 C3418 1.524 . S
C3419 C3420 1.397 . S
C3419 C3424 1.363 . S
C3420 H3397 0.950 . S
C3420 C3419 1.397 . S
C3420 C3421 1.334 . S
C3421 H3398 0.950 . S
C3421 C3420 1.334 . S
C3421 C3422 1.287 . S
C3422 C3421 1.287 . S
C3422 C3423 1.524 . S
C3422 H3441 0.913 . S
C3423 H3399 0.950 . S
C3423 C3422 1.524 . S
C3423 C3424 1.415 . S
C3424 H3400 0.950 . S
C3424 C3419 1.363 . S
C3424 C3423 1.415 . S
C3425 H3401 0.951 . S
C3425 C3426 1.366 . S
C3425 C3427 1.388 . S
C3426 C3425 1.366 . S
C3426 C3430 1.385 . S
C3427 H3402 0.951 . S
C3427 C3425 1.388 . S
C3427 C3428 1.366 . S
C3428 C3427 1.366 . S
C3428 C3429 1.414 . S
C3428 C3431 1.499 . S
C3429 H3403 0.950 . S
C3429 C3428 1.414 . S
C3429 C3430 1.374 . S
C3430 H3404 0.950 . S
C3430 C3426 1.385 . S
C3430 C3429 1.374 . S
C3431 C3428 1.499 . S
C3431 C3432 1.373 . S
C3431 C3433 1.389 . S
C3432 H3405 0.950 . S
C3432 C3418 1.377 1_556 S
C3432 C3431 1.373 . S
C3433 C3417 1.377 1_556 S
C3433 C3431 1.389 . S
C3433 C3434 1.524 . S
C3434 C3433 1.524 . S
C3434 C3435 1.397 . S
C3434 C3439 1.363 . S
C3435 H3406 0.950 . S
C3435 C3434 1.397 . S
C3435 C3436 1.334 . S
C3436 H3407 0.950 . S
C3436 C3435 1.334 . S
C3436 C3437 1.287 . S
C3437 C3436 1.287 . S
C3437 C3438 1.524 . S
C3437 H3440 0.999 . S
C3438 H3408 0.950 . S
C3438 C3437 1.524 . S
C3438 C3439 1.415 . S
C3439 H3409 0.950 . S
C3439 C3434 1.363 . S
C3439 C3438 1.415 . S
H3440 C3437 0.999 . S
H3441 C3422 0.913 . S
H3442 C3460 0.951 . S
H3443 C3462 0.951 . S
H3444 C3464 0.950 . S
H3445 C3465 0.950 . S
H3446 C3467 0.950 . S
H3447 C3470 0.950 . S
H3448 C3471 0.950 . S
H3449 C3473 0.950 . S
H3450 C3474 0.950 . S
H3451 C3475 0.951 . S
H3452 C3477 0.951 . S
H3453 C3479 0.950 . S
H3454 C3480 0.950 . S
H3455 C3482 0.950 . S
H3456 C3485 0.950 . S
H3457 C3486 0.950 . S
H3458 C3488 0.950 . S
H3459 C3489 0.950 . S
C3460 H3442 0.951 . S
C3460 C3461 1.366 . S
C3460 C3462 1.388 . S
C3461 C3460 1.366 . S
C3461 C3465 1.385 . S
C3462 H3443 0.951 . S
C3462 C3460 1.388 . S
C3462 C3463 1.366 . S
C3463 C3462 1.366 . S
C3463 C3464 1.414 . S
C3463 C3466 1.499 . S
C3464 H3444 0.950 . S
C3464 C3463 1.414 . S
C3464 C3465 1.374 . S
C3465 H3445 0.950 . S
C3465 C3461 1.385 . S
C3465 C3464 1.374 . S
C3466 C3463 1.499 . S
C3466 C3467 1.373 . S
C3466 C3468 1.389 . S
C3467 H3446 0.950 . S
C3467 C3466 1.373 . S
C3467 C3483 1.377 1_556 S
C3468 C3466 1.389 . S
C3468 C3469 1.524 . S
C3468 C3482 1.377 1_556 S
C3469 C3468 1.524 . S
C3469 C3470 1.397 . S
C3469 C3474 1.363 . S
C3470 H3447 0.950 . S
C3470 C3469 1.397 . S
C3470 C3471 1.334 . S
C3471 H3448 0.950 . S
C3471 C3470 1.334 . S
C3471 C3472 1.287 . S
C3472 C3471 1.287 . S
C3472 C3473 1.524 . S
C3472 H3491 0.913 . S
C3473 H3449 0.950 . S
C3473 C3472 1.524 . S
C3473 C3474 1.415 . S
C3474 H3450 0.950 . S
C3474 C3469 1.363 . S
C3474 C3473 1.415 . S
C3475 H3451 0.951 . S
C3475 C3476 1.366 . S
C3475 C3477 1.388 . S
C3476 C3475 1.366 . S
C3476 C3480 1.385 . S
C3477 H3452 0.951 . S
C3477 C3475 1.388 . S
C3477 C3478 1.366 . S
C3478 C3477 1.366 . S
C3478 C3479 1.414 . S
C3478 C3481 1.499 . S
C3479 H3453 0.950 . S
C3479 C3478 1.414 . S
C3479 C3480 1.374 . S
C3480 H3454 0.950 . S
C3480 C3476 1.385 . S
C3480 C3479 1.374 . S
C3481 C3478 1.499 . S
C3481 C3482 1.373 . S
C3481 C3483 1.389 . S
C3482 H3455 0.950 . S
C3482 C3468 1.377 1_554 S
C3482 C3481 1.373 . S
C3483 C3467 1.377 1_554 S
C3483 C3481 1.389 . S
C3483 C3484 1.524 . S
C3484 C3483 1.524 . S
C3484 C3485 1.397 . S
C3484 C3489 1.363 . S
C3485 H3456 0.950 . S
C3485 C3484 1.397 . S
C3485 C3486 1.334 . S
C3486 H3457 0.950 . S
C3486 C3485 1.334 . S
C3486 C3487 1.287 . S
C3487 C3486 1.287 . S
C3487 C3488 1.524 . S
C3487 H3490 0.999 . S
C3488 H3458 0.950 . S
C3488 C3487 1.524 . S
C3488 C3489 1.415 . S
C3489 H3459 0.950 . S
C3489 C3484 1.363 . S
C3489 C3488 1.415 . S
H3490 C3487 0.999 . S
H3491 C3472 0.913 . S
H3492 C3510 0.951 . S
H3493 C3512 0.951 . S
H3494 C3514 0.950 . S
H3495 C3515 0.950 . S
H3496 C3517 0.950 . S
H3497 C3520 0.950 . S
H3498 C3521 0.950 . S
H3499 C3523 0.950 . S
H3500 C3524 0.950 . S
H3501 C3525 0.951 . S
H3502 C3527 0.951 . S
H3503 C3529 0.950 . S
H3504 C3530 0.950 . S
H3505 C3532 0.950 . S
H3506 C3535 0.950 . S
H3507 C3536 0.950 . S
H3508 C3538 0.950 . S
H3509 C3539 0.950 . S
C3510 H3492 0.951 . S
C3510 C3511 1.366 . S
C3510 C3512 1.388 . S
C3511 C3510 1.366 . S
C3511 C3515 1.385 . S
C3512 H3493 0.951 . S
C3512 C3510 1.388 . S
C3512 C3513 1.366 . S
C3513 C3512 1.366 . S
C3513 C3514 1.414 . S
C3513 C3516 1.499 . S
C3514 H3494 0.950 . S
C3514 C3513 1.414 . S
C3514 C3515 1.374 . S
C3515 H3495 0.950 . S
C3515 C3511 1.385 . S
C3515 C3514 1.374 . S
C3516 C3513 1.499 . S
C3516 C3517 1.373 . S
C3516 C3518 1.389 . S
C3517 H3496 0.950 . S
C3517 C3516 1.373 . S
C3517 C3533 1.377 . S
C3518 C3516 1.389 . S
C3518 C3519 1.524 . S
C3518 C3532 1.377 . S
C3519 C3518 1.524 . S
C3519 C3520 1.397 . S
C3519 C3524 1.363 . S
C3520 H3497 0.950 . S
C3520 C3519 1.397 . S
C3520 C3521 1.334 . S
C3521 H3498 0.950 . S
C3521 C3520 1.334 . S
C3521 C3522 1.287 . S
C3522 C3521 1.287 . S
C3522 C3523 1.524 . S
C3522 H3541 0.913 . S
C3523 H3499 0.950 . S
C3523 C3522 1.524 . S
C3523 C3524 1.415 . S
C3524 H3500 0.950 . S
C3524 C3519 1.363 . S
C3524 C3523 1.415 . S
C3525 H3501 0.951 . S
C3525 C3526 1.366 . S
C3525 C3527 1.388 . S
C3526 C3525 1.366 . S
C3526 C3530 1.385 . S
C3527 H3502 0.951 . S
C3527 C3525 1.388 . S
C3527 C3528 1.366 . S
C3528 C3527 1.366 . S
C3528 C3529 1.414 . S
C3528 C3531 1.499 . S
C3529 H3503 0.950 . S
C3529 C3528 1.414 . S
C3529 C3530 1.374 . S
C3530 H3504 0.950 . S
C3530 C3526 1.385 . S
C3530 C3529 1.374 . S
C3531 C3528 1.499 . S
C3531 C3532 1.373 . S
C3531 C3533 1.389 . S
C3532 H3505 0.950 . S
C3532 C3518 1.377 . S
C3532 C3531 1.373 . S
C3533 C3517 1.377 . S
C3533 C3531 1.389 . S
C3533 C3534 1.524 . S
C3534 C3533 1.524 . S
C3534 C3535 1.397 . S
C3534 C3539 1.363 . S
C3535 H3506 0.950 . S
C3535 C3534 1.397 . S
C3535 C3536 1.334 . S
C3536 H3507 0.950 . S
C3536 C3535 1.334 . S
C3536 C3537 1.287 . S
C3537 C3536 1.287 . S
C3537 C3538 1.524 . S
C3537 H3540 0.999 . S
C3538 H3508 0.950 . S
C3538 C3537 1.524 . S
C3538 C3539 1.415 . S
C3539 H3509 0.950 . S
C3539 C3534 1.363 . S
C3539 C3538 1.415 . S
H3540 C3537 0.999 . S
H3541 C3522 0.913 . S
H3542 C3560 0.951 . S
H3543 C3562 0.951 . S
H3544 C3564 0.950 . S
H3545 C3565 0.950 . S
H3546 C3567 0.950 . S
H3547 C3570 0.950 . S
H3548 C3571 0.950 . S
H3549 C3573 0.950 . S
H3550 C3574 0.950 . S
H3551 C3575 0.951 . S
H3552 C3577 0.951 . S
H3553 C3579 0.950 . S
H3554 C3580 0.950 . S
H3555 C3582 0.950 . S
H3556 C3585 0.950 . S
H3557 C3586 0.950 . S
H3558 C3588 0.950 . S
H3559 C3589 0.950 . S
C3560 H3542 0.951 . S
C3560 C3561 1.366 . S
C3560 C3562 1.388 . S
C3561 C3560 1.366 . S
C3561 C3565 1.385 . S
C3562 H3543 0.951 . S
C3562 C3560 1.388 . S
C3562 C3563 1.366 . S
C3563 C3562 1.366 . S
C3563 C3564 1.414 . S
C3563 C3566 1.499 . S
C3564 H3544 0.950 . S
C3564 C3563 1.414 . S
C3564 C3565 1.374 . S
C3565 H3545 0.950 . S
C3565 C3561 1.385 . S
C3565 C3564 1.374 . S
C3566 C3563 1.499 . S
C3566 C3567 1.373 . S
C3566 C3568 1.389 . S
C3567 H3546 0.950 . S
C3567 C3566 1.373 . S
C3567 C3583 1.377 . S
C3568 C3566 1.389 . S
C3568 C3569 1.524 . S
C3568 C3582 1.377 . S
C3569 C3568 1.524 . S
C3569 C3570 1.397 . S
C3569 C3574 1.363 . S
C3570 H3547 0.950 . S
C3570 C3569 1.397 . S
C3570 C3571 1.334 . S
C3571 H3548 0.950 . S
C3571 C3570 1.334 . S
C3571 C3572 1.287 . S
C3572 C3571 1.287 . S
C3572 C3573 1.524 . S
C3572 H3591 0.913 . S
C3573 H3549 0.950 . S
C3573 C3572 1.524 . S
C3573 C3574 1.415 . S
C3574 H3550 0.950 . S
C3574 C3569 1.363 . S
C3574 C3573 1.415 . S
C3575 H3551 0.951 . S
C3575 C3576 1.366 . S
C3575 C3577 1.388 . S
C3576 C3575 1.366 . S
C3576 C3580 1.385 . S
C3577 H3552 0.951 . S
C3577 C3575 1.388 . S
C3577 C3578 1.366 . S
C3578 C3577 1.366 . S
C3578 C3579 1.414 . S
C3578 C3581 1.499 . S
C3579 H3553 0.950 . S
C3579 C3578 1.414 . S
C3579 C3580 1.374 . S
C3580 H3554 0.950 . S
C3580 C3576 1.385 . S
C3580 C3579 1.374 . S
C3581 C3578 1.499 . S
C3581 C3582 1.373 . S
C3581 C3583 1.389 . S
C3582 H3555 0.950 . S
C3582 C3568 1.377 . S
C3582 C3581 1.373 . S
C3583 C3567 1.377 . S
C3583 C3581 1.389 . S
C3583 C3584 1.524 . S
C3584 C3583 1.524 . S
C3584 C3585 1.397 . S
C3584 C3589 1.363 . S
C3585 H3556 0.950 . S
C3585 C3584 1.397 . S
C3585 C3586 1.334 . S
C3586 H3557 0.950 . S
C3586 C3585 1.334 . S
C3586 C3587 1.287 . S
C3587 C3586 1.287 . S
C3587 C3588 1.524 . S
C3587 H3590 0.999 . S
C3588 H3558 0.950 . S
C3588 C3587 1.524 . S
C3588 C3589 1.415 . S
C3589 H3559 0.950 . S
C3589 C3584 1.363 . S
C3589 C3588 1.415 . S
H3590 C3587 0.999 . S
H3591 C3572 0.913 . S
H3592 C3610 0.951 . S
H3593 C3612 0.951 . S
H3594 C3614 0.950 . S
H3595 C3615 0.950 . S
H3596 C3617 0.950 . S
H3597 C3620 0.950 . S
H3598 C3621 0.950 . S
H3599 C3623 0.950 . S
H3600 C3624 0.950 . S
H3601 C3625 0.951 . S
H3602 C3627 0.951 . S
H3603 C3629 0.950 . S
H3604 C3630 0.950 . S
H3605 C3632 0.950 . S
H3606 C3635 0.950 . S
H3607 C3636 0.950 . S
H3608 C3638 0.950 . S
H3609 C3639 0.950 . S
C3610 H3592 0.951 . S
C3610 C3611 1.366 . S
C3610 C3612 1.388 . S
C3611 C3610 1.366 . S
C3611 C3615 1.385 . S
C3612 H3593 0.951 . S
C3612 C3610 1.388 . S
C3612 C3613 1.366 . S
C3613 C3612 1.366 . S
C3613 C3614 1.414 . S
C3613 C3616 1.499 . S
C3614 H3594 0.950 . S
C3614 C3613 1.414 . S
C3614 C3615 1.374 . S
C3615 H3595 0.950 . S
C3615 C3611 1.385 . S
C3615 C3614 1.374 . S
C3616 C3613 1.499 . S
C3616 C3617 1.373 . S
C3616 C3618 1.389 . S
C3617 H3596 0.950 . S
C3617 C3616 1.373 . S
C3617 C3633 1.377 . S
C3618 C3616 1.389 . S
C3618 C3619 1.524 . S
C3618 C3632 1.377 . S
C3619 C3618 1.524 . S
C3619 C3620 1.397 . S
C3619 C3624 1.363 . S
C3620 H3597 0.950 . S
C3620 C3619 1.397 . S
C3620 C3621 1.334 . S
C3621 H3598 0.950 . S
C3621 C3620 1.334 . S
C3621 C3622 1.287 . S
C3622 C3621 1.287 . S
C3622 C3623 1.524 . S
C3622 H3641 0.913 . S
C3623 H3599 0.950 . S
C3623 C3622 1.524 . S
C3623 C3624 1.415 . S
C3624 H3600 0.950 . S
C3624 C3619 1.363 . S
C3624 C3623 1.415 . S
C3625 H3601 0.951 . S
C3625 C3626 1.366 . S
C3625 C3627 1.388 . S
C3626 C3625 1.366 . S
C3626 C3630 1.385 . S
C3627 H3602 0.951 . S
C3627 C3625 1.388 . S
C3627 C3628 1.366 . S
C3628 C3627 1.366 . S
C3628 C3629 1.414 . S
C3628 C3631 1.499 . S
C3629 H3603 0.950 . S
C3629 C3628 1.414 . S
C3629 C3630 1.374 . S
C3630 H3604 0.950 . S
C3630 C3626 1.385 . S
C3630 C3629 1.374 . S
C3631 C3628 1.499 . S
C3631 C3632 1.373 . S
C3631 C3633 1.389 . S
C3632 H3605 0.950 . S
C3632 C3618 1.377 . S
C3632 C3631 1.373 . S
C3633 C3617 1.377 . S
C3633 C3631 1.389 . S
C3633 C3634 1.524 . S
C3634 C3633 1.524 . S
C3634 C3635 1.397 . S
C3634 C3639 1.363 . S
C3635 H3606 0.950 . S
C3635 C3634 1.397 . S
C3635 C3636 1.334 . S
C3636 H3607 0.950 . S
C3636 C3635 1.334 . S
C3636 C3637 1.287 . S
C3637 C3636 1.287 . S
C3637 C3638 1.524 . S
C3637 H3640 0.999 . S
C3638 H3608 0.950 . S
C3638 C3637 1.524 . S
C3638 C3639 1.415 . S
C3639 H3609 0.950 . S
C3639 C3634 1.363 . S
C3639 C3638 1.415 . S
H3640 C3637 0.999 . S
H3641 C3622 0.913 . S
H3642 C3660 0.951 . S
H3643 C3662 0.951 . S
H3644 C3664 0.950 . S
H3645 C3665 0.950 . S
H3646 C3667 0.950 . S
H3647 C3670 0.950 . S
H3648 C3671 0.950 . S
H3649 C3673 0.950 . S
H3650 C3674 0.950 . S
H3651 C3675 0.951 . S
H3652 C3677 0.951 . S
H3653 C3679 0.950 . S
H3654 C3680 0.950 . S
H3655 C3682 0.950 . S
H3656 C3685 0.950 . S
H3657 C3686 0.950 . S
H3658 C3688 0.950 . S
H3659 C3689 0.950 . S
C3660 H3642 0.951 . S
C3660 C3661 1.366 . S
C3660 C3662 1.388 . S
C3661 C3660 1.366 . S
C3661 C3665 1.385 . S
C3662 H3643 0.951 . S
C3662 C3660 1.388 . S
C3662 C3663 1.366 . S
C3663 C3662 1.366 . S
C3663 C3664 1.414 . S
C3663 C3666 1.499 . S
C3664 H3644 0.950 . S
C3664 C3663 1.414 . S
C3664 C3665 1.374 . S
C3665 H3645 0.950 . S
C3665 C3661 1.385 . S
C3665 C3664 1.374 . S
C3666 C3663 1.499 . S
C3666 C3667 1.373 . S
C3666 C3668 1.389 . S
C3667 H3646 0.950 . S
C3667 C3666 1.373 . S
C3667 C3683 1.377 . S
C3668 C3666 1.389 . S
C3668 C3669 1.524 . S
C3668 C3682 1.377 . S
C3669 C3668 1.524 . S
C3669 C3670 1.397 . S
C3669 C3674 1.363 . S
C3670 H3647 0.950 . S
C3670 C3669 1.397 . S
C3670 C3671 1.334 . S
C3671 H3648 0.950 . S
C3671 C3670 1.334 . S
C3671 C3672 1.287 . S
C3672 C3671 1.287 . S
C3672 C3673 1.524 . S
C3672 H3691 0.913 . S
C3673 H3649 0.950 . S
C3673 C3672 1.524 . S
C3673 C3674 1.415 . S
C3674 H3650 0.950 . S
C3674 C3669 1.363 . S
C3674 C3673 1.415 . S
C3675 H3651 0.951 . S
C3675 C3676 1.366 . S
C3675 C3677 1.388 . S
C3676 C3675 1.366 . S
C3676 C3680 1.385 . S
C3677 H3652 0.951 . S
C3677 C3675 1.388 . S
C3677 C3678 1.366 . S
C3678 C3677 1.366 . S
C3678 C3679 1.414 . S
C3678 C3681 1.499 . S
C3679 H3653 0.950 . S
C3679 C3678 1.414 . S
C3679 C3680 1.374 . S
C3680 H3654 0.950 . S
C3680 C3676 1.385 . S
C3680 C3679 1.374 . S
C3681 C3678 1.499 . S
C3681 C3682 1.373 . S
C3681 C3683 1.389 . S
C3682 H3655 0.950 . S
C3682 C3668 1.377 . S
C3682 C3681 1.373 . S
C3683 C3667 1.377 . S
C3683 C3681 1.389 . S
C3683 C3684 1.524 . S
C3684 C3683 1.524 . S
C3684 C3685 1.397 . S
C3684 C3689 1.363 . S
C3685 H3656 0.950 . S
C3685 C3684 1.397 . S
C3685 C3686 1.334 . S
C3686 H3657 0.950 . S
C3686 C3685 1.334 . S
C3686 C3687 1.287 . S
C3687 C3686 1.287 . S
C3687 C3688 1.524 . S
C3687 H3690 0.999 . S
C3688 H3658 0.950 . S
C3688 C3687 1.524 . S
C3688 C3689 1.415 . S
C3689 H3659 0.950 . S
C3689 C3684 1.363 . S
C3689 C3688 1.415 . S
H3690 C3687 0.999 . S
H3691 C3672 0.913 . S
H3692 C3710 0.951 . S
H3693 C3712 0.951 . S
H3694 C3714 0.950 . S
H3695 C3715 0.950 . S
H3696 C3717 0.950 . S
H3697 C3720 0.950 . S
H3698 C3721 0.950 . S
H3699 C3723 0.950 . S
H3700 C3724 0.950 . S
H3701 C3725 0.951 . S
H3702 C3727 0.951 . S
H3703 C3729 0.950 . S
H3704 C3730 0.950 . S
H3705 C3732 0.950 . S
H3706 C3735 0.950 . S
H3707 C3736 0.950 . S
H3708 C3738 0.950 . S
H3709 C3739 0.950 . S
C3710 H3692 0.951 . S
C3710 C3711 1.366 . S
C3710 C3712 1.388 . S
C3711 C3710 1.366 . S
C3711 C3715 1.385 . S
C3712 H3693 0.951 . S
C3712 C3710 1.388 . S
C3712 C3713 1.366 . S
C3713 C3712 1.366 . S
C3713 C3714 1.414 . S
C3713 C3716 1.499 . S
C3714 H3694 0.950 . S
C3714 C3713 1.414 . S
C3714 C3715 1.374 . S
C3715 H3695 0.950 . S
C3715 C3711 1.385 . S
C3715 C3714 1.374 . S
C3716 C3713 1.499 . S
C3716 C3717 1.373 . S
C3716 C3718 1.389 . S
C3717 H3696 0.950 . S
C3717 C3716 1.373 . S
C3717 C3733 1.377 . S
C3718 C3716 1.389 . S
C3718 C3719 1.524 . S
C3718 C3732 1.377 . S
C3719 C3718 1.524 . S
C3719 C3720 1.397 . S
C3719 C3724 1.363 . S
C3720 H3697 0.950 . S
C3720 C3719 1.397 . S
C3720 C3721 1.334 . S
C3721 H3698 0.950 . S
C3721 C3720 1.334 . S
C3721 C3722 1.287 . S
C3722 C3721 1.287 . S
C3722 C3723 1.524 . S
C3722 H3741 0.913 . S
C3723 H3699 0.950 . S
C3723 C3722 1.524 . S
C3723 C3724 1.415 . S
C3724 H3700 0.950 . S
C3724 C3719 1.363 . S
C3724 C3723 1.415 . S
C3725 H3701 0.951 . S
C3725 C3726 1.366 . S
C3725 C3727 1.388 . S
C3726 C3725 1.366 . S
C3726 C3730 1.385 . S
C3727 H3702 0.951 . S
C3727 C3725 1.388 . S
C3727 C3728 1.366 . S
C3728 C3727 1.366 . S
C3728 C3729 1.414 . S
C3728 C3731 1.499 . S
C3729 H3703 0.950 . S
C3729 C3728 1.414 . S
C3729 C3730 1.374 . S
C3730 H3704 0.950 . S
C3730 C3726 1.385 . S
C3730 C3729 1.374 . S
C3731 C3728 1.499 . S
C3731 C3732 1.373 . S
C3731 C3733 1.389 . S
C3732 H3705 0.950 . S
C3732 C3718 1.377 . S
C3732 C3731 1.373 . S
C3733 C3717 1.377 . S
C3733 C3731 1.389 . S
C3733 C3734 1.524 . S
C3734 C3733 1.524 . S
C3734 C3735 1.397 . S
C3734 C3739 1.363 . S
C3735 H3706 0.950 . S
C3735 C3734 1.397 . S
C3735 C3736 1.334 . S
C3736 H3707 0.950 . S
C3736 C3735 1.334 . S
C3736 C3737 1.287 . S
C3737 C3736 1.287 . S
C3737 C3738 1.524 . S
C3737 H3740 0.999 . S
C3738 H3708 0.950 . S
C3738 C3737 1.524 . S
C3738 C3739 1.415 . S
C3739 H3709 0.950 . S
C3739 C3734 1.363 . S
C3739 C3738 1.415 . S
H3740 C3737 0.999 . S
H3741 C3722 0.913 . S
H3742 C3760 0.951 . S
H3743 C3762 0.951 . S
H3744 C3764 0.950 . S
H3745 C3765 0.950 . S
H3746 C3767 0.950 . S
H3747 C3770 0.950 . S
H3748 C3771 0.950 . S
H3749 C3773 0.950 . S
H3750 C3774 0.950 . S
H3751 C3775 0.951 . S
H3752 C3777 0.951 . S
H3753 C3779 0.950 . S
H3754 C3780 0.950 . S
H3755 C3782 0.950 . S
H3756 C3785 0.950 . S
H3757 C3786 0.950 . S
H3758 C3788 0.950 . S
H3759 C3789 0.950 . S
C3760 H3742 0.951 . S
C3760 C3761 1.366 . S
C3760 C3762 1.388 . S
C3761 C3760 1.366 . S
C3761 C3765 1.385 . S
C3762 H3743 0.951 . S
C3762 C3760 1.388 . S
C3762 C3763 1.366 . S
C3763 C3762 1.366 . S
C3763 C3764 1.414 . S
C3763 C3766 1.499 . S
C3764 H3744 0.950 . S
C3764 C3763 1.414 . S
C3764 C3765 1.374 . S
C3765 H3745 0.950 . S
C3765 C3761 1.385 . S
C3765 C3764 1.374 . S
C3766 C3763 1.499 . S
C3766 C3767 1.373 . S
C3766 C3768 1.389 . S
C3767 H3746 0.950 . S
C3767 C3766 1.373 . S
C3767 C3783 1.377 . S
C3768 C3766 1.389 . S
C3768 C3769 1.524 . S
C3768 C3782 1.377 . S
C3769 C3768 1.524 . S
C3769 C3770 1.397 . S
C3769 C3774 1.363 . S
C3770 H3747 0.950 . S
C3770 C3769 1.397 . S
C3770 C3771 1.334 . S
C3771 H3748 0.950 . S
C3771 C3770 1.334 . S
C3771 C3772 1.287 . S
C3772 C3771 1.287 . S
C3772 C3773 1.524 . S
C3772 H3791 0.913 . S
C3773 H3749 0.950 . S
C3773 C3772 1.524 . S
C3773 C3774 1.415 . S
C3774 H3750 0.950 . S
C3774 C3769 1.363 . S
C3774 C3773 1.415 . S
C3775 H3751 0.951 . S
C3775 C3776 1.366 . S
C3775 C3777 1.388 . S
C3776 C3775 1.366 . S
C3776 C3780 1.385 . S
C3777 H3752 0.951 . S
C3777 C3775 1.388 . S
C3777 C3778 1.366 . S
C3778 C3777 1.366 . S
C3778 C3779 1.414 . S
C3778 C3781 1.499 . S
C3779 H3753 0.950 . S
C3779 C3778 1.414 . S
C3779 C3780 1.374 . S
C3780 H3754 0.950 . S
C3780 C3776 1.385 . S
C3780 C3779 1.374 . S
C3781 C3778 1.499 . S
C3781 C3782 1.373 . S
C3781 C3783 1.389 . S
C3782 H3755 0.950 . S
C3782 C3768 1.377 . S
C3782 C3781 1.373 . S
C3783 C3767 1.377 . S
C3783 C3781 1.389 . S
C3783 C3784 1.524 . S
C3784 C3783 1.524 . S
C3784 C3785 1.397 . S
C3784 C3789 1.363 . S
C3785 H3756 0.950 . S
C3785 C3784 1.397 . S
C3785 C3786 1.334 . S
C3786 H3757 0.950 . S
C3786 C3785 1.334 . S
C3786 C3787 1.287 . S
C3787 C3786 1.287 . S
C3787 C3788 1.524 . S
C3787 H3790 0.999 . S
C3788 H3758 0.950 . S
C3788 C3787 1.524 . S
C3788 C3789 1.415 . S
C3789 H3759 0.950 . S
C3789 C3784 1.363 . S
C3789 C3788 1.415 . S
H3790 C3787 0.999 . S
H3791 C3772 0.913 . S
C811 N13 0.687 . S
C826 N112 0.689 . S
C861 N145 0.689 . S
C876 N46 0.686 . S
C911 N178 0.689 . S
C926 N79 0.686 . S
C961 N310 0.689 . S
C976 N211 0.686 . S
C1011 N244 0.686 . S
C1026 N343 0.689 . S
C1061 N277 0.687 . S
C1076 N376 0.687 . S
C1111 N508 0.686 . S
C1126 N409 0.689 . S
C1161 N541 0.686 . S
C1176 N442 0.689 . S
C1211 N574 0.687 . S
C1226 N475 0.688 . S
C1261 N706 0.686 . S
C1276 N607 0.689 . S
C1311 N640 0.686 . S
C1326 N739 0.689 . S
C1361 N772 0.689 . S
C1376 N673 0.686 . S
C1411 N266 1.782 . S
C1426 N2 1.782 . S
C1461 N35 1.782 . S
C1476 N299 1.782 . S
C1511 N68 1.782 . S
C1526 N332 1.782 . S
C1561 N101 1.782 . S
C1576 N365 1.782 . S
C1611 N134 1.782 . S
C1626 N200 1.782 . S
C1661 N233 1.782 . S
C1676 N167 1.782 . S
C1711 N398 1.782 . S
C1726 N662 1.782 . S
C1761 N695 1.782 . S
C1776 N431 1.782 . S
C1811 N728 1.782 . S
C1826 N464 1.782 . S
C1861 N497 1.782 . S
C1876 N761 1.782 . S
C1911 N596 1.782 . S
C1926 N530 1.782 . S
C1961 N629 1.782 . S
C1976 N563 1.782 . S
C2011 C21 0.425 . S
C2026 C252 0.422 . S
C2061 C54 0.423 . S
C2076 C285 0.425 . S
C2111 C318 0.423 . S
C2126 C87 0.425 . S
C2161 C120 0.423 . S
C2176 C351 0.425 . S
C2211 C384 0.425 . S
C2226 C153 0.422 . S
C2261 C219 0.424 . S
C2276 C186 0.424 . S
C2311 C417 0.425 . S
C2326 C648 0.423 . S
C2361 C450 0.426 . S
C2376 C681 0.422 . S
C2411 C483 0.426 . S
C2426 C714 0.422 . S
C2461 C516 0.426 . S
C2476 C747 0.422 . S
C2511 C549 0.424 . S
C2526 C780 0.424 . S
C2561 C615 0.423 . S
C2576 C582 0.425 . S
C2611 C7 0.628 . S
C2626 C337 0.630 . S
C2661 C370 0.628 . S
C2676 C40 0.629 . S
C2711 C205 0.630 . S
C2726 C73 0.629 . S
C2761 C238 0.628 . S
C2776 C106 0.630 . S
C2811 C139 0.629 . S
C2826 C271 0.630 . S
C2861 C172 0.630 . S
C2876 C304 0.629 . S
C2911 C403 0.630 . S
C2926 C733 0.628 . S
C2961 C766 0.630 . S
C2976 C436 0.628 . S
C3011 C601 0.628 . S
C3026 C469 0.629 . S
C3061 C502 0.628 . S
C3076 C634 0.629 . S
C3111 C535 0.629 . S
C3126 C667 0.630 . S
C3161 C700 0.630 . S
C3176 C568 0.628 . S
C3211 C18 1.077 . S
C3226 C513 1.076 . S
C3261 C51 1.076 . S
C3276 C546 1.076 . S
C3311 C84 1.076 . S
C3326 C579 1.076 . S
C3361 C117 1.077 . S
C3376 C414 1.076 . S
C3411 C150 1.076 . S
C3426 C447 1.076 . S
C3461 C480 1.076 . S
C3476 C183 1.076 . S
C3511 C216 1.076 . S
C3526 C711 1.076 . S
C3561 C249 1.076 . S
C3576 C744 1.076 . S
C3611 C282 1.076 . S
C3626 C777 1.076 . S
C3661 C315 1.077 . S
C3676 C612 1.076 . S
C3711 C348 1.076 . S
C3726 C645 1.076 . S
C3761 C678 1.076 . S
C3776 C381 1.076 . S
