# Generated by pormake.
# Topology pcb, (4)-cn, num edge types: 1
# Building blocks:
#     Node 0, Type 0, BuildingBlock: QUQFOY_clean_sbu_3, # of connection points: 4
#     Node 1, Type 0, BuildingBlock: QUQFOY_clean_sbu_3, # of connection points: 4
#     Node 2, Type 0, BuildingBlock: QUQFOY_clean_sbu_3, # of connection points: 4
#     Node 3, Type 0, BuildingBlock: QUQFOY_clean_sbu_3, # of connection points: 4
#     Node 4, Type 0, BuildingBlock: QUQFOY_clean_sbu_3, # of connection points: 4
#     Node 5, Type 0, BuildingBlock: QUQFOY_clean_sbu_3, # of connection points: 4
#     Node 6, Type 0, BuildingBlock: QUQFOY_clean_sbu_3, # of connection points: 4
#     Node 7, Type 0, BuildingBlock: QUQFOY_clean_sbu_3, # of connection points: 4
#     Node 8, Type 0, BuildingBlock: QUQFOY_clean_sbu_3, # of connection points: 4
#     Node 9, Type 0, BuildingBlock: QUQFOY_clean_sbu_3, # of connection points: 4
#     Node 10, Type 0, BuildingBlock: QUQFOY_clean_sbu_3, # of connection points: 4
#     Node 11, Type 0, BuildingBlock: QUQFOY_clean_sbu_3, # of connection points: 4
#     Node 12, Type 0, BuildingBlock: QUQFOY_clean_sbu_3, # of connection points: 4
#     Node 13, Type 0, BuildingBlock: QUQFOY_clean_sbu_3, # of connection points: 4
#     Node 14, Type 0, BuildingBlock: QUQFOY_clean_sbu_3, # of connection points: 4
#     Node 15, Type 0, BuildingBlock: QUQFOY_clean_sbu_3, # of connection points: 4
#     Edge 16, Type (0, 0), BuildingBlock: CIFDUS_clean_linker_0, # of connection points: 2
#     Edge 17, Type (0, 0), BuildingBlock: CIFDUS_clean_linker_0, # of connection points: 2
#     Edge 18, Type (0, 0), BuildingBlock: CIFDUS_clean_linker_0, # of connection points: 2
#     Edge 19, Type (0, 0), BuildingBlock: CIFDUS_clean_linker_0, # of connection points: 2
#     Edge 20, Type (0, 0), BuildingBlock: CIFDUS_clean_linker_0, # of connection points: 2
#     Edge 21, Type (0, 0), BuildingBlock: CIFDUS_clean_linker_0, # of connection points: 2
#     Edge 22, Type (0, 0), BuildingBlock: CIFDUS_clean_linker_0, # of connection points: 2
#     Edge 23, Type (0, 0), BuildingBlock: CIFDUS_clean_linker_0, # of connection points: 2
#     Edge 24, Type (0, 0), BuildingBlock: CIFDUS_clean_linker_0, # of connection points: 2
#     Edge 25, Type (0, 0), BuildingBlock: CIFDUS_clean_linker_0, # of connection points: 2
#     Edge 26, Type (0, 0), BuildingBlock: CIFDUS_clean_linker_0, # of connection points: 2
#     Edge 27, Type (0, 0), BuildingBlock: CIFDUS_clean_linker_0, # of connection points: 2
#     Edge 28, Type (0, 0), BuildingBlock: CIFDUS_clean_linker_0, # of connection points: 2
#     Edge 29, Type (0, 0), BuildingBlock: CIFDUS_clean_linker_0, # of connection points: 2
#     Edge 30, Type (0, 0), BuildingBlock: CIFDUS_clean_linker_0, # of connection points: 2
#     Edge 31, Type (0, 0), BuildingBlock: CIFDUS_clean_linker_0, # of connection points: 2
#     Edge 32, Type (0, 0), BuildingBlock: CIFDUS_clean_linker_0, # of connection points: 2
#     Edge 33, Type (0, 0), BuildingBlock: CIFDUS_clean_linker_0, # of connection points: 2
#     Edge 34, Type (0, 0), BuildingBlock: CIFDUS_clean_linker_0, # of connection points: 2
#     Edge 35, Type (0, 0), BuildingBlock: CIFDUS_clean_linker_0, # of connection points: 2
#     Edge 36, Type (0, 0), BuildingBlock: CIFDUS_clean_linker_0, # of connection points: 2
#     Edge 37, Type (0, 0), BuildingBlock: CIFDUS_clean_linker_0, # of connection points: 2
#     Edge 38, Type (0, 0), BuildingBlock: CIFDUS_clean_linker_0, # of connection points: 2
#     Edge 39, Type (0, 0), BuildingBlock: CIFDUS_clean_linker_0, # of connection points: 2
#     Edge 40, Type (0, 0), BuildingBlock: CIFDUS_clean_linker_0, # of connection points: 2
#     Edge 41, Type (0, 0), BuildingBlock: CIFDUS_clean_linker_0, # of connection points: 2
#     Edge 42, Type (0, 0), BuildingBlock: CIFDUS_clean_linker_0, # of connection points: 2
#     Edge 43, Type (0, 0), BuildingBlock: CIFDUS_clean_linker_0, # of connection points: 2
#     Edge 44, Type (0, 0), BuildingBlock: CIFDUS_clean_linker_0, # of connection points: 2
#     Edge 45, Type (0, 0), BuildingBlock: CIFDUS_clean_linker_0, # of connection points: 2
#     Edge 46, Type (0, 0), BuildingBlock: CIFDUS_clean_linker_0, # of connection points: 2
#     Edge 47, Type (0, 0), BuildingBlock: CIFDUS_clean_linker_0, # of connection points: 2
# Relax obj value: 0.312
# Max RMSD: 0.171
# Mean RMSD: 0.171
data_MOF--net-pcb--node1-QUQFOY_clean_sbu_3--edge1-CIFDUS_clean_linker_0
_symmetry_space_group_name_H-M    P1
_symmetry_Int_Tables_number       1
_symmetry_cell_setting            triclinic
loop_
_symmetry_equiv_pos_as_xyz
'x, y, z'
_cell_length_a     36.593072
_cell_length_b     45.12418
_cell_length_c     45.204681
_cell_angle_alpha  89.893728
_cell_angle_beta   90.042709
_cell_angle_gamma 89.762761
loop_
_atom_site_label
_atom_site_type_symbol
_atom_site_fract_x
_atom_site_fract_y
_atom_site_fract_z
_atom_type_partial_charge
C0 C 0.0913 0.10635 0.10831 0.0
O1 O 0.09766 0.08417 0.09182 0.0
Cd2 Cd 0.15252 0.05601 0.08884 0.0
O3 O 0.11637 0.11705 0.12477 0.0
Cd4 Cd 0.18361 0.10513 0.13034 0.0
C5 C 0.20157 0.11075 0.05671 0.0
O6 O 0.17359 0.05258 0.13866 0.0
O7 O 0.22892 0.06354 0.12847 0.0
O8 O 0.17961 0.13023 0.17871 0.0
C9 C 0.20627 0.04389 0.13634 0.0
O10 O 0.19137 0.08389 0.05475 0.0
C11 C 0.21138 0.14137 0.17737 0.0
O12 O 0.19808 0.12489 0.08093 0.0
O13 O 0.23 0.13567 0.1544 0.0
C14 C 0.88082 0.13703 0.07817 0.0
O15 O 0.86519 0.12472 0.05638 0.0
Cd16 Cd 0.80166 0.12193 0.04756 0.0
O17 O 0.86176 0.1492 0.09854 0.0
Cd18 Cd 0.79271 0.15304 0.10287 0.0
C19 C 0.78102 0.08027 0.10723 0.0
O20 O 0.78105 0.17231 0.05389 0.0
O21 O 0.73993 0.14244 0.06909 0.0
O22 O 0.7942 0.19961 0.13138 0.0
C23 C 0.75058 0.1602 0.04911 0.0
O24 O 0.77749 0.08213 0.07928 0.0
C25 C 0.76621 0.19331 0.14676 0.0
O26 O 0.79127 0.10262 0.1221 0.0
O27 O 0.75178 0.16823 0.14232 0.0
C28 C 0.87142 0.85047 0.10756 0.0
O29 O 0.86276 0.87377 0.0934 0.0
Cd30 Cd 0.8082 0.90198 0.09705 0.0
O31 O 0.8492 0.83856 0.12579 0.0
Cd32 Cd 0.78356 0.85021 0.13876 0.0
C33 C 0.75723 0.84746 0.06687 0.0
O34 O 0.79355 0.90234 0.14829 0.0
O35 O 0.73766 0.89121 0.1408 0.0
O36 O 0.79254 0.82265 0.18549 0.0
C37 C 0.76069 0.91092 0.14768 0.0
O38 O 0.7661 0.87468 0.06521 0.0
C39 C 0.76045 0.81202 0.18567 0.0
O40 O 0.76396 0.8325 0.09017 0.0
O41 O 0.73969 0.81901 0.16428 0.0
C42 C 0.08143 0.81165 0.09385 0.0
O43 O 0.09052 0.8233 0.06937 0.0
Cd44 Cd 0.15058 0.83032 0.05096 0.0
O45 O 0.10575 0.80161 0.11154 0.0
Cd46 Cd 0.17441 0.79787 0.10922 0.0
C47 C 0.18413 0.87237 0.10777 0.0
O48 O 0.17973 0.78388 0.05809 0.0
O49 O 0.22845 0.80328 0.07528 0.0
O50 O 0.17751 0.74716 0.12805 0.0
C51 C 0.21281 0.79032 0.05385 0.0
O52 O 0.17763 0.87048 0.08016 0.0
C53 C 0.19636 0.75319 0.15081 0.0
O54 O 0.18162 0.84974 0.12454 0.0
O55 O 0.20478 0.78019 0.15463 0.0
C56 C 0.09169 0.84937 0.85711 0.0
O57 O 0.09671 0.87443 0.8691 0.0
Cd58 Cd 0.14834 0.90574 0.86299 0.0
O59 O 0.11585 0.8377 0.84045 0.0
Cd60 Cd 0.17922 0.8511 0.82464 0.0
C61 C 0.20736 0.85706 0.8962 0.0
O62 O 0.1649 0.90203 0.81241 0.0
O63 O 0.22213 0.89304 0.81616 0.0
O64 O 0.16438 0.82269 0.78013 0.0
C65 C 0.19712 0.91175 0.81054 0.0
O66 O 0.19346 0.88298 0.89568 0.0
C67 C 0.19527 0.80995 0.77814 0.0
O68 O 0.20336 0.83943 0.8744 0.0
O69 O 0.21893 0.81648 0.79764 0.0
C70 C 0.08122 0.15496 0.85785 0.0
O71 O 0.08994 0.14278 0.88222 0.0
Cd72 Cd 0.14911 0.12861 0.89901 0.0
O73 O 0.1057 0.16186 0.83894 0.0
Cd74 Cd 0.17438 0.1581 0.83759 0.0
C75 C 0.17308 0.08317 0.84112 0.0
O76 O 0.1863 0.16993 0.88862 0.0
O77 O 0.23 0.14638 0.86787 0.0
O78 O 0.18792 0.20686 0.81581 0.0
C79 C 0.2179 0.15889 0.89104 0.0
O80 O 0.16831 0.08593 0.8689 0.0
C81 C 0.20066 0.19655 0.7918 0.0
O82 O 0.17282 0.1056 0.82399 0.0
O83 O 0.20115 0.16855 0.78912 0.0
C84 C 0.87319 0.11907 0.85201 0.0
O85 O 0.8701 0.09472 0.86593 0.0
Cd86 Cd 0.82469 0.05759 0.86074 0.0
O87 O 0.84871 0.12789 0.83379 0.0
Cd88 Cd 0.78628 0.10924 0.81911 0.0
C89 C 0.75695 0.09995 0.89058 0.0
O90 O 0.81142 0.06134 0.80988 0.0
O91 O 0.7537 0.06251 0.80359 0.0
O92 O 0.79414 0.14215 0.77638 0.0
C93 C 0.78285 0.04728 0.80347 0.0
O94 O 0.77482 0.07569 0.8912 0.0
C95 C 0.76044 0.14861 0.77403 0.0
O96 O 0.75914 0.11751 0.86851 0.0
O97 O 0.7389 0.13692 0.79266 0.0
C98 C 0.88533 0.80595 0.87199 0.0
O99 O 0.87736 0.81302 0.89839 0.0
Cd100 Cd 0.8194 0.8303 0.91388 0.0
O101 O 0.86035 0.80387 0.85235 0.0
Cd102 Cd 0.79162 0.80664 0.84975 0.0
C103 C 0.80306 0.88002 0.85593 0.0
O104 O 0.77748 0.79333 0.89962 0.0
O105 O 0.73439 0.81706 0.87778 0.0
O106 O 0.78448 0.75775 0.8282 0.0
C107 C 0.74569 0.80427 0.90111 0.0
O108 O 0.81207 0.87457 0.88266 0.0
C109 C 0.77106 0.76689 0.80393 0.0
O110 O 0.79423 0.85934 0.83823 0.0
O111 O 0.76683 0.7947 0.80096 0.0
C112 C 0.59062 0.60292 0.6376 0.0
O113 O 0.59001 0.57724 0.62624 0.0
Cd114 Cd 0.64426 0.55001 0.61466 0.0
O115 O 0.62056 0.61459 0.64585 0.0
Cd116 Cd 0.68576 0.59955 0.64991 0.0
C117 C 0.69115 0.60355 0.57579 0.0
O118 O 0.67781 0.54756 0.65972 0.0
O119 O 0.7307 0.55854 0.64251 0.0
O120 O 0.69113 0.61564 0.70112 0.0
C121 C 0.70968 0.53895 0.65324 0.0
O122 O 0.6759 0.5782 0.57538 0.0
C123 C 0.714 0.63602 0.69576 0.0
O124 O 0.6959 0.61737 0.59996 0.0
O125 O 0.72455 0.63895 0.66915 0.0
C126 C 0.39027 0.65497 0.60763 0.0
O127 O 0.39287 0.66007 0.58012 0.0
Cd128 Cd 0.34232 0.6445 0.55137 0.0
O129 O 0.35909 0.65147 0.61974 0.0
Cd130 Cd 0.29277 0.66022 0.60821 0.0
C131 C 0.30782 0.58878 0.5993 0.0
O132 O 0.29601 0.67975 0.55876 0.0
O133 O 0.24717 0.65539 0.568 0.0
O134 O 0.29933 0.70495 0.63696 0.0
C135 C 0.26621 0.6694 0.54917 0.0
O136 O 0.3259 0.59796 0.57695 0.0
C137 C 0.27088 0.70149 0.65262 0.0
O138 O 0.29081 0.60682 0.61609 0.0
O139 O 0.25136 0.67881 0.64725 0.0
C140 C 0.4013 0.34878 0.61147 0.0
O141 O 0.39741 0.37142 0.59499 0.0
Cd142 Cd 0.34808 0.40599 0.59237 0.0
O143 O 0.37556 0.33992 0.62837 0.0
Cd144 Cd 0.3098 0.35548 0.63569 0.0
C145 C 0.28599 0.35885 0.56182 0.0
O146 O 0.3265 0.40604 0.64138 0.0
O147 O 0.26854 0.40015 0.64228 0.0
O148 O 0.30689 0.33776 0.68704 0.0
C149 C 0.29535 0.41785 0.64355 0.0
O150 O 0.30323 0.38324 0.56014 0.0
C151 C 0.28269 0.31827 0.68219 0.0
O152 O 0.28675 0.34319 0.58536 0.0
O153 O 0.27117 0.31602 0.65579 0.0
C154 C 0.60618 0.31212 0.57237 0.0
O155 O 0.61839 0.32077 0.54754 0.0
Cd156 Cd 0.67945 0.32834 0.53225 0.0
O157 O 0.62807 0.30543 0.59346 0.0
Cd158 Cd 0.69728 0.30326 0.59788 0.0
C159 C 0.70557 0.37704 0.58714 0.0
O160 O 0.7099 0.28527 0.54875 0.0
O161 O 0.75572 0.30542 0.56945 0.0
O162 O 0.69382 0.25831 0.62858 0.0
C163 C 0.74289 0.293 0.54661 0.0
O164 O 0.70144 0.37166 0.55966 0.0
C165 C 0.7177 0.26684 0.64708 0.0
O166 O 0.70179 0.35663 0.60643 0.0
O167 O 0.73118 0.29239 0.64306 0.0
C168 C 0.59541 0.33646 0.34677 0.0
O169 O 0.60159 0.35731 0.36493 0.0
Cd170 Cd 0.64937 0.39291 0.36455 0.0
O171 O 0.61796 0.33018 0.32609 0.0
Cd172 Cd 0.68145 0.34871 0.31439 0.0
C173 C 0.71324 0.34334 0.38579 0.0
O174 O 0.65764 0.39802 0.31286 0.0
O175 O 0.71492 0.39672 0.30426 0.0
O176 O 0.67534 0.32057 0.26807 0.0
C177 C 0.68617 0.41223 0.30672 0.0
O178 O 0.69891 0.36847 0.39126 0.0
C179 C 0.70932 0.31483 0.26612 0.0
O180 O 0.708 0.33064 0.36104 0.0
O181 O 0.72983 0.32508 0.28624 0.0
C182 C 0.58686 0.65686 0.35969 0.0
O183 O 0.58819 0.65524 0.38767 0.0
Cd184 Cd 0.63963 0.63301 0.41077 0.0
O185 O 0.6157 0.65361 0.34409 0.0
Cd186 Cd 0.68413 0.65208 0.35196 0.0
C187 C 0.66435 0.58057 0.35644 0.0
O188 O 0.68875 0.66554 0.40347 0.0
O189 O 0.73303 0.63885 0.38742 0.0
O190 O 0.68836 0.69949 0.32645 0.0
C191 C 0.71817 0.65184 0.4092 0.0
O192 O 0.64989 0.58783 0.38111 0.0
C193 C 0.71487 0.69211 0.30988 0.0
O194 O 0.67949 0.59981 0.33988 0.0
O195 O 0.72746 0.66597 0.31287 0.0
C196 C 0.39522 0.59472 0.32118 0.0
O197 O 0.39306 0.56854 0.33132 0.0
Cd198 Cd 0.3381 0.54405 0.34556 0.0
O199 O 0.36655 0.61012 0.31614 0.0
Cd200 Cd 0.29878 0.60186 0.31774 0.0
C201 C 0.29797 0.59571 0.39225 0.0
O202 O 0.29863 0.54997 0.30453 0.0
O203 O 0.24923 0.56476 0.32521 0.0
O204 O 0.28503 0.62303 0.26895 0.0
C205 C 0.26692 0.54359 0.31346 0.0
O206 O 0.31169 0.56994 0.38857 0.0
C207 C 0.26789 0.64545 0.27882 0.0
O208 O 0.29303 0.6131 0.37037 0.0
O209 O 0.26455 0.64734 0.3067 0.0
C210 C 0.38557 0.30762 0.35699 0.0
O211 O 0.37937 0.31919 0.38206 0.0
Cd212 Cd 0.32118 0.32859 0.40278 0.0
O213 O 0.35923 0.29927 0.34044 0.0
Cd214 Cd 0.29045 0.29779 0.34695 0.0
C215 C 0.28502 0.37226 0.34778 0.0
O216 O 0.29198 0.28183 0.39804 0.0
O217 O 0.24219 0.30335 0.3863 0.0
O218 O 0.2913 0.25165 0.31798 0.0
C219 C 0.26026 0.28939 0.40584 0.0
O220 O 0.29356 0.37014 0.37504 0.0
C221 C 0.26113 0.25654 0.30494 0.0
O222 O 0.28511 0.34949 0.3312 0.0
O223 O 0.24468 0.28047 0.31136 0.0
H224 H 0.29855 0.2177 0.2705 0.0
H225 H 0.18968 0.24875 0.29018 0.0
H226 H 0.16432 0.21455 0.25367 0.0
H227 H 0.17328 0.17654 0.2152 0.0
H228 H 0.28264 0.14895 0.19244 0.0
H229 H 0.30766 0.18091 0.23103 0.0
C230 C 0.26927 0.21683 0.26686 0.0
C231 C 0.24598 0.23556 0.28308 0.0
C232 C 0.255 0.19775 0.24522 0.0
C233 C 0.20815 0.23456 0.2779 0.0
C234 C 0.19363 0.21498 0.25707 0.0
C235 C 0.20255 0.17744 0.21887 0.0
C236 C 0.22609 0.16032 0.20117 0.0
C237 C 0.21681 0.19658 0.24048 0.0
C238 C 0.264 0.16198 0.20579 0.0
C239 C 0.27831 0.18022 0.22785 0.0
H240 H 0.67483 0.27117 0.23612 0.0
H241 H 0.77817 0.3161 0.24363 0.0
H242 H 0.80478 0.28321 0.2064 0.0
H243 H 0.79917 0.24051 0.17286 0.0
H244 H 0.69706 0.19326 0.1685 0.0
H245 H 0.66954 0.22802 0.20335 0.0
C246 C 0.70305 0.2739 0.22934 0.0
C247 C 0.72446 0.29608 0.24236 0.0
C248 C 0.71848 0.25431 0.20868 0.0
C249 C 0.76117 0.29913 0.23383 0.0
C250 C 0.77641 0.28033 0.2126 0.0
C251 C 0.77089 0.23792 0.17952 0.0
C252 C 0.75019 0.21439 0.16814 0.0
C253 C 0.75542 0.25764 0.20008 0.0
C254 C 0.71365 0.21111 0.17711 0.0
C255 C 0.69783 0.23103 0.19695 0.0
H256 H 0.79929 0.77072 0.21649 0.0
H257 H 0.69193 0.80955 0.20795 0.0
H258 H 0.66882 0.77687 0.24677 0.0
H259 H 0.67869 0.73649 0.28227 0.0
H260 H 0.78419 0.69395 0.28764 0.0
H261 H 0.80857 0.72867 0.25094 0.0
C262 C 0.77093 0.77206 0.22334 0.0
C263 C 0.74735 0.79257 0.20964 0.0
C264 C 0.75752 0.75245 0.24497 0.0
C265 C 0.71052 0.79387 0.21824 0.0
C266 C 0.69731 0.77522 0.24042 0.0
C267 C 0.70707 0.73494 0.27547 0.0
C268 C 0.72972 0.7129 0.28772 0.0
C269 C 0.72049 0.75433 0.25379 0.0
C270 C 0.76626 0.71076 0.27844 0.0
C271 C 0.7802 0.73063 0.25753 0.0
H272 H 0.25009 0.63994 0.2208 0.0
H273 H 0.25341 0.70312 0.29222 0.0
H274 H 0.23228 0.74232 0.25883 0.0
H275 H 0.21369 0.75881 0.20901 0.0
H276 H 0.20616 0.69476 0.13859 0.0
H277 H 0.22804 0.65576 0.17183 0.0
C278 C 0.24612 0.66229 0.22902 0.0
C279 C 0.2535 0.6687 0.25884 0.0
C280 C 0.23326 0.68456 0.20986 0.0
C281 C 0.24782 0.69764 0.26934 0.0
C282 C 0.23586 0.72008 0.25025 0.0
C283 C 0.21686 0.7363 0.20101 0.0
C284 C 0.20859 0.72968 0.17139 0.0
C285 C 0.22865 0.71383 0.22043 0.0
C286 C 0.21232 0.70037 0.16134 0.0
C287 C 0.2249 0.67808 0.1803 0.0
H288 H 0.20396 0.71451 0.67599 0.0
H289 H 0.31845 0.73581 0.68293 0.0
H290 H 0.30542 0.77045 0.72296 0.0
H291 H 0.26158 0.79499 0.75595 0.0
H292 H 0.14652 0.777 0.74674 0.0
H293 H 0.15954 0.74093 0.70773 0.0
C294 C 0.22597 0.72673 0.68636 0.0
C295 C 0.2621 0.72253 0.67663 0.0
C296 C 0.21817 0.74725 0.70893 0.0
C297 C 0.29038 0.73874 0.68997 0.0
C298 C 0.28298 0.75851 0.71291 0.0
C299 C 0.2394 0.7831 0.74543 0.0
C300 C 0.2032 0.78847 0.75431 0.0
C301 C 0.24701 0.76298 0.72256 0.0
C302 C 0.17464 0.77325 0.74023 0.0
C303 C 0.18207 0.75258 0.71797 0.0
H304 H 0.22808 0.25216 0.79725 0.0
H305 H 0.20402 0.18446 0.73297 0.0
H306 H 0.22612 0.21652 0.69323 0.0
H307 H 0.25265 0.26372 0.67674 0.0
H308 H 0.28141 0.32988 0.74133 0.0
H309 H 0.25722 0.29858 0.78095 0.0
C310 C 0.2276 0.24452 0.77451 0.0
C311 C 0.21423 0.2161 0.76798 0.0
C312 C 0.24126 0.26278 0.75187 0.0
C313 C 0.21422 0.20626 0.73852 0.0
C314 C 0.2268 0.22459 0.71579 0.0
C315 C 0.25352 0.27128 0.6995 0.0
C316 C 0.26854 0.29911 0.70612 0.0
C317 C 0.24042 0.25287 0.7222 0.0
C318 C 0.27 0.30849 0.73571 0.0
C319 C 0.25612 0.29064 0.75835 0.0
H320 H 0.7972 0.19309 0.74704 0.0
H321 H 0.69287 0.14906 0.74888 0.0
H322 H 0.67038 0.18143 0.70931 0.0
H323 H 0.6807 0.22207 0.6738 0.0
H324 H 0.78343 0.26857 0.67492 0.0
H325 H 0.80621 0.23558 0.71374 0.0
C326 C 0.76957 0.19061 0.73871 0.0
C327 C 0.7468 0.16863 0.75061 0.0
C328 C 0.75654 0.20978 0.71654 0.0
C329 C 0.71088 0.16588 0.74001 0.0
C330 C 0.69804 0.18432 0.71738 0.0
C331 C 0.70803 0.22495 0.68262 0.0
C332 C 0.73044 0.24756 0.67145 0.0
C333 C 0.72066 0.20631 0.70542 0.0
C334 C 0.76564 0.25135 0.68326 0.0
C335 C 0.77873 0.23244 0.70537 0.0
H336 H 0.75632 0.70845 0.8096 0.0
H337 H 0.76376 0.77872 0.74508 0.0
H338 H 0.74902 0.74382 0.70552 0.0
H339 H 0.73329 0.69342 0.68945 0.0
H340 H 0.72086 0.62418 0.7545 0.0
H341 H 0.73857 0.65851 0.79378 0.0
C342 C 0.75478 0.71608 0.78686 0.0
C343 C 0.76127 0.74602 0.78018 0.0
C344 C 0.74555 0.69606 0.76439 0.0
C345 C 0.75876 0.75575 0.75072 0.0
C346 C 0.75046 0.73581 0.72811 0.0
C347 C 0.73482 0.68585 0.71221 0.0
C348 C 0.72622 0.65634 0.71916 0.0
C349 C 0.74381 0.70593 0.73471 0.0
C350 C 0.7275 0.64684 0.74873 0.0
C351 C 0.73757 0.66643 0.77114 0.0
H352 H 0.20998 0.18881 0.94233 0.0
H353 H 0.25153 0.10693 0.90635 0.0
H354 H 0.25402 0.08536 0.95592 0.0
H355 H 0.23454 0.08726 0.00812 0.0
H356 H 0.1941 0.16953 0.04422 0.0
H357 H 0.20143 0.19356 -0.00386 0.0
C358 C 0.22069 0.16658 0.94552 0.0
C359 C 0.23025 0.14942 0.92074 0.0
C360 C 0.2216 0.1542 0.97405 0.0
C361 C 0.24419 0.12067 0.92507 0.0
C362 C 0.24519 0.10818 0.9534 0.0
C363 C 0.22803 0.1106 0.00557 0.0
C364 C 0.21317 0.12645 0.02953 0.0
C365 C 0.23241 0.12432 -0.02215 0.0
C366 C 0.20543 0.1568 0.02609 0.0
C367 C 0.20944 0.17053 -0.00145 0.0
H368 H 0.75219 0.15574 0.91229 0.0
H369 H 0.72283 0.06523 0.93117 0.0
H370 H 0.70907 0.07837 -0.01763 0.0
H371 H 0.7184 0.11283 0.02345 0.0
H372 H 0.75535 0.20166 0.00564 0.0
H373 H 0.75221 0.19235 0.95244 0.0
C374 C 0.74152 0.13917 0.92737 0.0
C375 C 0.73883 0.10954 0.91814 0.0
C376 C 0.73554 0.14658 0.95717 0.0
C377 C 0.72538 0.08816 0.93793 0.0
C378 C 0.71769 0.09564 0.96723 0.0
C379 C 0.7244 0.13048 0.0079 0.0
C380 C 0.73734 0.15781 0.01836 0.0
C381 C 0.72457 0.1244 -0.02256 0.0
C382 C 0.74546 0.1804 -0.002 0.0
C383 C 0.74396 0.175 0.96761 0.0
H384 H 0.75066 0.77245 0.95147 0.0
H385 H 0.71032 0.85533 0.91655 0.0
H386 H 0.70515 0.87522 0.96662 0.0
H387 H 0.72332 0.87191 0.01904 0.0
H388 H 0.76339 0.78877 0.05381 0.0
H389 H 0.75682 0.76596 0.00524 0.0
C390 C 0.73958 0.79451 0.95496 0.0
C391 C 0.73134 0.81253 0.93045 0.0
C392 C 0.73724 0.80593 -0.01626 0.0
C393 C 0.71679 0.84101 0.9351 0.0
C394 C 0.71424 0.85251 0.96372 0.0
C395 C 0.72978 0.84862 0.01611 0.0
C396 C 0.74458 0.83224 0.03981 0.0
C397 C 0.72613 0.83565 -0.01196 0.0
C398 C 0.7522 0.80194 0.03588 0.0
C399 C 0.74866 0.78891 0.00805 0.0
H400 H 0.24423 0.83884 0.02977 0.0
H401 H 0.20608 0.75113 0.00898 0.0
H402 H 0.2082 0.76263 0.95612 0.0
H403 H 0.20912 0.80059 0.91712 0.0
H404 H 0.24037 0.88998 0.93888 0.0
H405 H 0.25326 0.87495 -0.01025 0.0
C406 C 0.23784 0.82192 0.01356 0.0
C407 C 0.22525 0.79413 0.02309 0.0
C408 C 0.23711 0.82929 -0.01666 0.0
C409 C 0.2161 0.77259 0.00201 0.0
C410 C 0.21696 0.77928 0.97183 0.0
C411 C 0.21983 0.81654 0.93277 0.0
C412 C 0.22344 0.84639 0.92434 0.0
C413 C 0.22565 0.80801 0.96234 0.0
C414 C 0.23703 0.86691 0.94494 0.0
C415 C 0.2443 0.85835 0.97407 0.0
H416 H 0.04776 0.11061 0.06102 0.0
H417 H 0.05158 0.13083 0.15404 0.0
H418 H 0.98649 0.14477 0.15294 0.0
H419 H 0.92689 0.14621 0.12584 0.0
H420 H 0.92618 0.12572 0.03247 0.0
H421 H -0.00849 0.11714 0.03343 0.0
C422 C 0.03444 0.11837 0.08103 0.0
C423 C 0.05415 0.11932 0.10762 0.0
C424 C -0.00259 0.12611 0.08019 0.0
C425 C 0.03684 0.12991 0.13328 0.0
C426 C -0.00039 0.13768 0.13266 0.0
C427 C 0.94119 0.1403 0.10569 0.0
C428 C 0.92136 0.13609 0.07926 0.0
C429 C 0.97932 0.13515 0.10632 0.0
C430 C 0.94043 0.1286 0.05327 0.0
C431 C 0.97793 0.12371 0.05371 0.0
H432 H 0.79575 0.95749 0.172 0.0
H433 H 0.70886 0.93534 0.11158 0.0
H434 H 0.70592 -0.01324 0.09463 0.0
H435 H 0.73337 0.0366 0.09277 0.0
H436 H 0.81818 0.05927 0.15493 0.0
H437 H 0.81654 0.00919 0.17554 0.0
C438 C 0.77559 0.96415 0.15565 0.0
C439 C 0.75277 0.94269 0.14291 0.0
C440 C 0.77408 -0.00628 0.14601 0.0
C441 C 0.72661 0.95149 0.12184 0.0
C442 C 0.72517 -0.01916 0.11191 0.0
C443 C 0.75112 0.03061 0.11107 0.0
C444 C 0.77624 0.05136 0.12204 0.0
C445 C 0.74962 0.0019 0.12313 0.0
C446 C 0.79868 0.0436 0.14608 0.0
C447 C 0.79785 0.01495 0.15781 0.0
H448 H 0.92261 0.82856 0.14639 0.0
H449 H 0.90034 0.84279 0.05371 0.0
H450 H 0.96257 0.82835 0.04118 0.0
H451 H 0.02456 0.81743 0.05656 0.0
H452 H 0.05004 0.80559 0.149 0.0
H453 H 0.98538 0.81288 0.16166 0.0
C454 C 0.93137 0.82784 0.12349 0.0
C455 C 0.90717 0.83688 0.10097 0.0
C456 C 0.9678 0.82031 0.11644 0.0
C457 C 0.9187 0.83615 0.07137 0.0
C458 C 0.95425 0.82795 0.06419 0.0
C459 C 0.01603 0.81616 0.07952 0.0
C460 C 0.04216 0.81145 0.10183 0.0
C461 C 0.97928 0.82095 0.08657 0.0
C462 C 0.03047 0.80932 0.13139 0.0
C463 C -0.00647 0.81364 0.13863 0.0
H464 H 0.17793 -0.00198 0.16715 0.0
H465 H 0.25033 0.01862 0.09488 0.0
H466 H 0.25183 0.96641 0.08045 0.0
H467 H 0.22648 0.91597 0.085 0.0
H468 H 0.15737 0.8947 0.15916 0.0
H469 H 0.16085 0.94597 0.1765 0.0
C470 C 0.19471 -0.00913 0.1487 0.0
C471 C 0.21381 0.01204 0.13199 0.0
C472 C 0.19565 0.96079 0.1407 0.0
C473 C 0.2356 0.00265 0.10818 0.0
C474 C 0.23618 0.97285 0.09976 0.0
C475 C 0.21272 0.92254 0.10521 0.0
C476 C 0.19133 0.90183 0.12062 0.0
C477 C 0.21539 0.9519 0.11531 0.0
C478 C 0.17399 0.91034 0.14698 0.0
C479 C 0.17583 0.93966 0.1568 0.0
H480 H 0.94331 0.80684 0.90897 0.0
H481 H 0.9155 0.80253 0.81628 0.0
H482 H 0.97949 0.81127 0.80316 0.0
H483 H 0.04146 0.82775 0.81835 0.0
H484 H 0.06582 0.8368 0.91119 0.0
H485 H 0.00521 0.81844 0.92401 0.0
C486 C 0.9512 0.80732 0.88585 0.0
C487 C 0.92448 0.80452 0.86367 0.0
C488 C 0.98751 0.81354 0.87853 0.0
C489 C 0.93544 0.80478 0.83384 0.0
C490 C 0.97201 0.81 0.82632 0.0
C491 C 0.03357 0.82498 0.84131 0.0
C492 C 0.05771 0.83357 0.86389 0.0
C493 C -0.00199 0.81555 0.84849 0.0
C494 C 0.04739 0.83036 0.89358 0.0
C495 C 0.0128 0.81994 0.90088 0.0
H496 H 0.15963 0.95651 0.78448 0.0
H497 H 0.2477 0.93863 0.84544 0.0
H498 H 0.24891 -0.00919 0.85984 0.0
H499 H 0.22033 0.04047 0.85884 0.0
H500 H 0.13547 0.05931 0.79536 0.0
H501 H 0.1375 0.00788 0.77804 0.0
C502 C 0.17964 0.96427 0.80038 0.0
C503 C 0.20343 0.94384 0.81395 0.0
C504 C 0.18033 -0.00567 0.80839 0.0
C505 C 0.22932 0.95402 0.83449 0.0
C506 C 0.22976 -0.01621 0.84297 0.0
C507 C 0.20265 0.03327 0.84099 0.0
C508 C 0.17742 0.05327 0.8286 0.0
C509 C 0.20468 0.00395 0.83069 0.0
C510 C 0.15499 0.04409 0.80519 0.0
C511 C 0.15611 0.01474 0.79537 0.0
H512 H 0.02575 0.15793 0.89691 0.0
H513 H 0.04824 0.15891 0.80329 0.0
H514 H 0.98291 0.15327 0.79272 0.0
H515 H 0.92104 0.13945 0.81066 0.0
H516 H 0.9012 0.13506 0.90454 0.0
H517 H 0.96356 0.15113 0.91452 0.0
C518 C 0.01634 0.15744 0.87415 0.0
C519 C 0.04184 0.15827 0.85093 0.0
C520 C 0.9791 0.15341 0.86834 0.0
C521 C 0.02915 0.15816 0.82158 0.0
C522 C -0.00819 0.15473 0.81554 0.0
C523 C 0.93019 0.14304 0.8332 0.0
C524 C 0.9068 0.13616 0.85689 0.0
C525 C 0.96671 0.15112 0.83878 0.0
C526 C 0.91889 0.1403 0.88605 0.0
C527 C 0.95457 0.14928 0.89175 0.0
H528 H 0.75323 0.91055 0.82279 0.0
H529 H 0.8584 0.91791 0.86519 0.0
H530 H 0.86318 0.9694 0.84909 0.0
H531 H 0.83635 0.01271 0.82578 0.0
H532 H 0.72789 0.00861 0.78858 0.0
H533 H 0.72561 0.95525 0.79927 0.0
C534 C 0.77719 0.92351 0.82823 0.0
C535 C 0.80547 0.91068 0.84509 0.0
C536 C 0.77913 0.95353 0.81982 0.0
C537 C 0.83628 0.92754 0.85238 0.0
C538 C 0.83906 0.95688 0.84313 0.0
C539 C 0.81222 0.00021 0.81974 0.0
C540 C 0.78228 0.01462 0.80643 0.0
C541 C 0.81047 0.97018 0.82723 0.0
C542 C 0.75128 -0.00201 0.79885 0.0
C543 C 0.74994 0.96756 0.80509 0.0
H544 H 0.70341 0.68063 0.46032 0.0
H545 H 0.74609 0.59832 0.42612 0.0
H546 H 0.74293 0.57611 0.47533 0.0
H547 H 0.72124 0.57843 0.52697 0.0
H548 H 0.68218 0.66155 0.56187 0.0
H549 H 0.69075 0.68515 0.51364 0.0
C550 C 0.71284 0.65807 0.46386 0.0
C551 C 0.7247 0.64111 0.43964 0.0
C552 C 0.71103 0.64544 0.49224 0.0
C553 C 0.73702 0.61193 0.44444 0.0
C554 C 0.73486 0.59909 0.47253 0.0
C555 C 0.71505 0.60178 0.52399 0.0
C556 C 0.70063 0.61818 0.54766 0.0
C557 C 0.7208 0.61535 0.49638 0.0
C558 C 0.69325 0.64852 0.54385 0.0
C559 C 0.69805 0.66199 0.51629 0.0
H560 H 0.25731 0.61492 0.52642 0.0
H561 H 0.2736 0.70617 0.50181 0.0
H562 H 0.28226 0.69154 0.45002 0.0
H563 H 0.29071 0.65219 0.41279 0.0
H564 H 0.28092 0.56061 0.43923 0.0
H565 H 0.26445 0.57586 0.48927 0.0
C566 C 0.26168 0.63164 0.50951 0.0
C567 C 0.26392 0.66163 0.5176 0.0
C568 C 0.26859 0.62289 0.48026 0.0
C569 C 0.27105 0.68303 0.49583 0.0
C570 C 0.27635 0.67462 0.46635 0.0
C571 C 0.28468 0.6356 0.42947 0.0
C572 C 0.28718 0.6053 0.42232 0.0
C573 C 0.27609 0.64453 0.45845 0.0
C574 C 0.27956 0.58406 0.44422 0.0
C575 C 0.26996 0.59276 0.47281 0.0
H576 H 0.2332 0.33864 0.43195 0.0
H577 H 0.27473 0.25115 0.45076 0.0
H578 H 0.28015 0.26361 0.50327 0.0
H579 H 0.28344 0.30216 0.54176 0.0
H580 H 0.24927 0.3913 0.52086 0.0
H581 H 0.23021 0.37556 0.47155 0.0
C582 C 0.24211 0.32199 0.44775 0.0
C583 C 0.25326 0.29395 0.43765 0.0
C584 C 0.24718 0.3299 0.47752 0.0
C585 C 0.26572 0.2728 0.45818 0.0
C586 C 0.26915 0.28002 0.48813 0.0
C587 C 0.27086 0.31787 0.52665 0.0
C588 C 0.26785 0.34783 0.5348 0.0
C589 C 0.26153 0.30892 0.49781 0.0
C590 C 0.25202 0.36814 0.51493 0.0
C591 C 0.2412 0.35917 0.48673 0.0
H592 H 0.75288 0.36555 0.43142 0.0
H593 H 0.7111 0.28396 0.3955 0.0
H594 H 0.72406 0.2585 0.44206 0.0
H595 H 0.73522 0.26249 0.49565 0.0
H596 H 0.77817 0.3438 0.53127 0.0
H597 H 0.77789 0.36603 0.48207 0.0
C598 C 0.74764 0.342 0.43357 0.0
C599 C 0.73041 0.32677 0.41037 0.0
C600 C 0.75515 0.32749 0.46042 0.0
C601 C 0.72422 0.29618 0.41314 0.0
C602 C 0.73139 0.28164 0.43984 0.0
C603 C 0.74595 0.28463 0.49236 0.0
C604 C 0.75623 0.30157 0.51702 0.0
C605 C 0.74517 0.29746 0.46405 0.0
C606 C 0.77019 0.33023 0.51262 0.0
C607 C 0.76955 0.34314 0.48451 0.0
H608 H 0.5243 0.5856 0.65715 0.0
H609 H 0.58149 0.65915 0.61803 0.0
H610 H 0.52338 0.68445 0.60833 0.0
H611 H 0.45625 0.68171 0.60435 0.0
H612 H 0.39916 0.60949 0.6461 0.0
H613 H 0.45723 0.58782 0.66212 0.0
C614 C 0.5239 0.60749 0.64717 0.0
C615 C 0.55674 0.62046 0.63792 0.0
C616 C 0.4905 0.62199 0.64206 0.0
C617 C 0.55632 0.64889 0.62529 0.0
C618 C 0.52316 0.66323 0.61959 0.0
C619 C 0.45662 0.66171 0.61771 0.0
C620 C 0.42375 0.64701 0.62385 0.0
C621 C 0.49006 0.64948 0.62692 0.0
C622 C 0.42425 0.62123 0.64129 0.0
C623 C 0.45743 0.60868 0.65018 0.0
H624 H 0.25544 0.55364 0.62484 0.0
H625 H 0.36587 0.55289 0.59131 0.0
H626 H 0.37212 0.50071 0.604 0.0
H627 H 0.34654 0.45536 0.62348 0.0
H628 H 0.23464 0.45294 0.65322 0.0
H629 H 0.22862 0.50637 0.64342 0.0
C630 C 0.28078 0.54194 0.62041 0.0
C631 C 0.31013 0.55703 0.6071 0.0
C632 C 0.28395 0.51149 0.62712 0.0
C633 C 0.34278 0.54168 0.60124 0.0
C634 C 0.34647 0.51188 0.60861 0.0
C635 C 0.32078 0.46642 0.62799 0.0
C636 C 0.29112 0.45022 0.6392 0.0
C637 C 0.31725 0.49658 0.6214 0.0
C638 C 0.2579 0.46497 0.64463 0.0
C639 C 0.25447 0.49547 0.63898 0.0
H640 H 0.56609 0.31135 0.62412 0.0
H641 H 0.55544 0.31122 0.5289 0.0
H642 H 0.49004 0.3187 0.53306 0.0
H643 H 0.43723 0.33198 0.56296 0.0
H644 H 0.44521 0.33231 0.65794 0.0
H645 H 0.50991 0.31759 0.65479 0.0
C646 C 0.54931 0.31239 0.60437 0.0
C647 C 0.56592 0.31141 0.57624 0.0
C648 C 0.51122 0.31695 0.60684 0.0
C649 C 0.54366 0.31255 0.55084 0.0
C650 C 0.50612 0.31679 0.55313 0.0
C651 C 0.45299 0.32814 0.58297 0.0
C652 C 0.43685 0.33334 0.61057 0.0
C653 C 0.48987 0.32006 0.5809 0.0
C654 C 0.45722 0.32822 0.63643 0.0
C655 C 0.49424 0.3201 0.63459 0.0
H656 H 0.7374 0.51317 0.60423 0.0
H657 H 0.69342 0.49389 0.69048 0.0
H658 H 0.6916 0.441 0.6786 0.0
H659 H 0.69604 0.40124 0.64171 0.0
H660 H 0.7343 0.42156 0.55371 0.0
H661 H 0.74474 0.47294 0.56811 0.0
C662 C 0.72847 0.49721 0.62066 0.0
C663 C 0.71609 0.50714 0.64832 0.0
C664 C 0.72574 0.46712 0.61309 0.0
C665 C 0.70347 0.48652 0.66918 0.0
C666 C 0.70214 0.45638 0.66229 0.0
C667 C 0.70707 0.41683 0.62579 0.0
C668 C 0.71412 0.40762 0.59663 0.0
C669 C 0.71215 0.44655 0.634 0.0
C670 C 0.72824 0.42815 0.57622 0.0
C671 C 0.73435 0.45753 0.58445 0.0
H672 H 0.44327 0.29673 0.3919 0.0
H673 H 0.41408 0.31277 0.3009 0.0
H674 H 0.47898 0.3182 0.28807 0.0
H675 H 0.54308 0.32621 0.30492 0.0
H676 H 0.56973 0.31235 0.39684 0.0
H677 H 0.50699 0.2976 0.40711 0.0
C678 C 0.45116 0.30091 0.36913 0.0
C679 C 0.42406 0.30487 0.34746 0.0
C680 C 0.48814 0.30446 0.36217 0.0
C681 C 0.43455 0.30974 0.31797 0.0
C682 C 0.47162 0.31303 0.31071 0.0
C683 C 0.53525 0.31898 0.3269 0.0
C684 C 0.56077 0.32033 0.35017 0.0
C685 C 0.49858 0.31151 0.33288 0.0
C686 C 0.5504 0.31143 0.37869 0.0
C687 C 0.51452 0.3032 0.38459 0.0
H688 H 0.63415 0.44602 0.33197 0.0
H689 H 0.74036 0.45131 0.29099 0.0
H690 H 0.74211 0.50477 0.30102 0.0
H691 H 0.71419 0.54952 0.32377 0.0
H692 H 0.61026 0.54171 0.36812 0.0
H693 H 0.60685 0.48959 0.3544 0.0
C694 C 0.65764 0.45883 0.32494 0.0
C695 C 0.68706 0.44475 0.31065 0.0
C696 C 0.65888 0.48907 0.33158 0.0
C697 C 0.71737 0.46168 0.30201 0.0
C698 C 0.71838 0.49219 0.30779 0.0
C699 C 0.69075 0.53636 0.33018 0.0
C700 C 0.6625 0.54936 0.34693 0.0
C701 C 0.68943 0.50606 0.3229 0.0
C702 C 0.63243 0.53211 0.35542 0.0
C703 C 0.63041 0.50235 0.34753 0.0
H704 H 0.56321 0.61833 0.31885 0.0
H705 H 0.52886 0.69273 0.37162 0.0
H706 H 0.46488 0.68302 0.3591 0.0
H707 H 0.41869 0.64806 0.34051 0.0
H708 H 0.45367 0.56939 0.29451 0.0
H709 H 0.51718 0.58595 0.29654 0.0
C710 C 0.54173 0.633 0.32664 0.0
C711 C 0.5505 0.65638 0.34578 0.0
C712 C 0.50502 0.62606 0.32096 0.0
C713 C 0.52254 0.67479 0.35659 0.0
C714 C 0.48602 0.66906 0.34965 0.0
C715 C 0.44021 0.63507 0.33024 0.0
C716 C 0.43178 0.60766 0.31732 0.0
C717 C 0.47684 0.64397 0.33295 0.0
C718 C 0.45975 0.59058 0.30457 0.0
C719 C 0.49601 0.6 0.30581 0.0
H720 H 0.25124 0.41914 0.37395 0.0
H721 H 0.3027 0.39159 0.29268 0.0
H722 H 0.29813 0.4421 0.27331 0.0
H723 H 0.28542 0.49508 0.28173 0.0
H724 H 0.23097 0.52226 0.36182 0.0
H725 H 0.23006 0.47091 0.37917 0.0
C726 C 0.26102 0.4242 0.35187 0.0
C727 C 0.27776 0.40185 0.33491 0.0
C728 C 0.25772 0.45319 0.34067 0.0
C729 C 0.28979 0.40847 0.30615 0.0
C730 C 0.28729 0.43736 0.29511 0.0
C731 C 0.27256 0.48959 0.30264 0.0
C732 C 0.25845 0.51237 0.32052 0.0
C733 C 0.2721 0.46002 0.31245 0.0
C734 C 0.24176 0.50507 0.34754 0.0
C735 C 0.24159 0.47575 0.35762 0.0
loop_
_geom_bond_atom_site_label_1
_geom_bond_atom_site_label_2
_geom_bond_distance
_geom_bond_site_symmetry_2
_ccdc_geom_bond_type
C0 O1 1.306 . S
C0 O3 1.160 . S
O1 C0 1.306 . S
O1 Cd2 2.228 . S
Cd2 O1 2.228 . S
Cd2 O6 2.273 . S
Cd2 O10 2.277 . S
O3 C0 1.160 . S
O3 Cd4 2.203 . S
Cd4 O3 2.203 . S
Cd4 O6 2.411 . S
Cd4 O7 2.333 . S
Cd4 O8 2.352 . S
Cd4 O12 2.277 . S
Cd4 O13 2.356 . S
C5 O10 1.209 . S
C5 O12 1.226 . S
O6 Cd2 2.273 . S
O6 Cd4 2.411 . S
O6 C9 1.320 . S
O7 Cd4 2.333 . S
O7 C9 1.214 . S
O8 Cd4 2.352 . S
O8 C11 1.258 . S
C9 O6 1.320 . S
C9 O7 1.214 . S
O10 Cd2 2.277 . S
O10 C5 1.209 . S
C11 O8 1.258 . S
C11 O13 1.282 . S
O12 Cd4 2.277 . S
O12 C5 1.226 . S
O13 Cd4 2.356 . S
O13 C11 1.282 . S
C14 O15 1.306 . S
C14 O17 1.160 . S
O15 C14 1.306 . S
O15 Cd16 2.228 . S
Cd16 O15 2.228 . S
Cd16 O20 2.273 . S
Cd16 O24 2.277 . S
O17 C14 1.160 . S
O17 Cd18 2.203 . S
Cd18 O17 2.203 . S
Cd18 O20 2.411 . S
Cd18 O21 2.333 . S
Cd18 O22 2.352 . S
Cd18 O26 2.277 . S
Cd18 O27 2.356 . S
C19 O24 1.209 . S
C19 O26 1.226 . S
O20 Cd16 2.273 . S
O20 Cd18 2.411 . S
O20 C23 1.320 . S
O21 Cd18 2.333 . S
O21 C23 1.214 . S
O22 Cd18 2.352 . S
O22 C25 1.258 . S
C23 O20 1.320 . S
C23 O21 1.214 . S
O24 Cd16 2.277 . S
O24 C19 1.209 . S
C25 O22 1.258 . S
C25 O27 1.282 . S
O26 Cd18 2.277 . S
O26 C19 1.226 . S
O27 Cd18 2.356 . S
O27 C25 1.282 . S
C28 O29 1.306 . S
C28 O31 1.160 . S
O29 C28 1.306 . S
O29 Cd30 2.228 . S
Cd30 O29 2.228 . S
Cd30 O34 2.273 . S
Cd30 O38 2.277 . S
O31 C28 1.160 . S
O31 Cd32 2.203 . S
Cd32 O31 2.203 . S
Cd32 O34 2.411 . S
Cd32 O35 2.333 . S
Cd32 O36 2.352 . S
Cd32 O40 2.277 . S
Cd32 O41 2.356 . S
C33 O38 1.209 . S
C33 O40 1.226 . S
O34 Cd30 2.273 . S
O34 Cd32 2.411 . S
O34 C37 1.320 . S
O35 Cd32 2.333 . S
O35 C37 1.214 . S
O36 Cd32 2.352 . S
O36 C39 1.258 . S
C37 O34 1.320 . S
C37 O35 1.214 . S
O38 Cd30 2.277 . S
O38 C33 1.209 . S
C39 O36 1.258 . S
C39 O41 1.282 . S
O40 Cd32 2.277 . S
O40 C33 1.226 . S
O41 Cd32 2.356 . S
O41 C39 1.282 . S
C42 O43 1.306 . S
C42 O45 1.160 . S
O43 C42 1.306 . S
O43 Cd44 2.228 . S
Cd44 O43 2.228 . S
Cd44 O48 2.273 . S
Cd44 O52 2.277 . S
O45 C42 1.160 . S
O45 Cd46 2.203 . S
Cd46 O45 2.203 . S
Cd46 O48 2.411 . S
Cd46 O49 2.333 . S
Cd46 O50 2.352 . S
Cd46 O54 2.277 . S
Cd46 O55 2.356 . S
C47 O52 1.209 . S
C47 O54 1.226 . S
O48 Cd44 2.273 . S
O48 Cd46 2.411 . S
O48 C51 1.320 . S
O49 Cd46 2.333 . S
O49 C51 1.214 . S
O50 Cd46 2.352 . S
O50 C53 1.258 . S
C51 O48 1.320 . S
C51 O49 1.214 . S
O52 Cd44 2.277 . S
O52 C47 1.209 . S
C53 O50 1.258 . S
C53 O55 1.282 . S
O54 Cd46 2.277 . S
O54 C47 1.226 . S
O55 Cd46 2.356 . S
O55 C53 1.282 . S
C56 O57 1.306 . S
C56 O59 1.160 . S
O57 C56 1.306 . S
O57 Cd58 2.228 . S
Cd58 O57 2.228 . S
Cd58 O62 2.273 . S
Cd58 O66 2.277 . S
O59 C56 1.160 . S
O59 Cd60 2.203 . S
Cd60 O59 2.203 . S
Cd60 O62 2.411 . S
Cd60 O63 2.333 . S
Cd60 O64 2.352 . S
Cd60 O68 2.277 . S
Cd60 O69 2.356 . S
C61 O66 1.209 . S
C61 O68 1.226 . S
O62 Cd58 2.273 . S
O62 Cd60 2.411 . S
O62 C65 1.320 . S
O63 Cd60 2.333 . S
O63 C65 1.214 . S
O64 Cd60 2.352 . S
O64 C67 1.258 . S
C65 O62 1.320 . S
C65 O63 1.214 . S
O66 Cd58 2.277 . S
O66 C61 1.209 . S
C67 O64 1.258 . S
C67 O69 1.282 . S
O68 Cd60 2.277 . S
O68 C61 1.226 . S
O69 Cd60 2.356 . S
O69 C67 1.282 . S
C70 O71 1.306 . S
C70 O73 1.160 . S
O71 C70 1.306 . S
O71 Cd72 2.228 . S
Cd72 O71 2.228 . S
Cd72 O76 2.273 . S
Cd72 O80 2.277 . S
O73 C70 1.160 . S
O73 Cd74 2.203 . S
Cd74 O73 2.203 . S
Cd74 O76 2.411 . S
Cd74 O77 2.333 . S
Cd74 O78 2.352 . S
Cd74 O82 2.277 . S
Cd74 O83 2.356 . S
C75 O80 1.209 . S
C75 O82 1.226 . S
O76 Cd72 2.273 . S
O76 Cd74 2.411 . S
O76 C79 1.320 . S
O77 Cd74 2.333 . S
O77 C79 1.214 . S
O78 Cd74 2.352 . S
O78 C81 1.258 . S
C79 O76 1.320 . S
C79 O77 1.214 . S
O80 Cd72 2.277 . S
O80 C75 1.209 . S
C81 O78 1.258 . S
C81 O83 1.282 . S
O82 Cd74 2.277 . S
O82 C75 1.226 . S
O83 Cd74 2.356 . S
O83 C81 1.282 . S
C84 O85 1.306 . S
C84 O87 1.160 . S
O85 C84 1.306 . S
O85 Cd86 2.228 . S
Cd86 O85 2.228 . S
Cd86 O90 2.273 . S
Cd86 O94 2.277 . S
O87 C84 1.160 . S
O87 Cd88 2.203 . S
Cd88 O87 2.203 . S
Cd88 O90 2.411 . S
Cd88 O91 2.333 . S
Cd88 O92 2.352 . S
Cd88 O96 2.277 . S
Cd88 O97 2.356 . S
C89 O94 1.209 . S
C89 O96 1.226 . S
O90 Cd86 2.273 . S
O90 Cd88 2.411 . S
O90 C93 1.320 . S
O91 Cd88 2.333 . S
O91 C93 1.214 . S
O92 Cd88 2.352 . S
O92 C95 1.258 . S
C93 O90 1.320 . S
C93 O91 1.214 . S
O94 Cd86 2.277 . S
O94 C89 1.209 . S
C95 O92 1.258 . S
C95 O97 1.282 . S
O96 Cd88 2.277 . S
O96 C89 1.226 . S
O97 Cd88 2.356 . S
O97 C95 1.282 . S
C98 O99 1.306 . S
C98 O101 1.160 . S
O99 C98 1.306 . S
O99 Cd100 2.228 . S
Cd100 O99 2.228 . S
Cd100 O104 2.273 . S
Cd100 O108 2.277 . S
O101 C98 1.160 . S
O101 Cd102 2.203 . S
Cd102 O101 2.203 . S
Cd102 O104 2.411 . S
Cd102 O105 2.333 . S
Cd102 O106 2.352 . S
Cd102 O110 2.277 . S
Cd102 O111 2.356 . S
C103 O108 1.209 . S
C103 O110 1.226 . S
O104 Cd100 2.273 . S
O104 Cd102 2.411 . S
O104 C107 1.320 . S
O105 Cd102 2.333 . S
O105 C107 1.214 . S
O106 Cd102 2.352 . S
O106 C109 1.258 . S
C107 O104 1.320 . S
C107 O105 1.214 . S
O108 Cd100 2.277 . S
O108 C103 1.209 . S
C109 O106 1.258 . S
C109 O111 1.282 . S
O110 Cd102 2.277 . S
O110 C103 1.226 . S
O111 Cd102 2.356 . S
O111 C109 1.282 . S
C112 O113 1.306 . S
C112 O115 1.160 . S
O113 C112 1.306 . S
O113 Cd114 2.228 . S
Cd114 O113 2.228 . S
Cd114 O118 2.273 . S
Cd114 O122 2.277 . S
O115 C112 1.160 . S
O115 Cd116 2.203 . S
Cd116 O115 2.203 . S
Cd116 O118 2.411 . S
Cd116 O119 2.333 . S
Cd116 O120 2.352 . S
Cd116 O124 2.277 . S
Cd116 O125 2.356 . S
C117 O122 1.209 . S
C117 O124 1.226 . S
O118 Cd114 2.273 . S
O118 Cd116 2.411 . S
O118 C121 1.320 . S
O119 Cd116 2.333 . S
O119 C121 1.214 . S
O120 Cd116 2.352 . S
O120 C123 1.258 . S
C121 O118 1.320 . S
C121 O119 1.214 . S
O122 Cd114 2.277 . S
O122 C117 1.209 . S
C123 O120 1.258 . S
C123 O125 1.282 . S
O124 Cd116 2.277 . S
O124 C117 1.226 . S
O125 Cd116 2.356 . S
O125 C123 1.282 . S
C126 O127 1.306 . S
C126 O129 1.160 . S
O127 C126 1.306 . S
O127 Cd128 2.228 . S
Cd128 O127 2.228 . S
Cd128 O132 2.273 . S
Cd128 O136 2.277 . S
O129 C126 1.160 . S
O129 Cd130 2.203 . S
Cd130 O129 2.203 . S
Cd130 O132 2.411 . S
Cd130 O133 2.333 . S
Cd130 O134 2.352 . S
Cd130 O138 2.277 . S
Cd130 O139 2.356 . S
C131 O136 1.209 . S
C131 O138 1.226 . S
O132 Cd128 2.273 . S
O132 Cd130 2.411 . S
O132 C135 1.320 . S
O133 Cd130 2.333 . S
O133 C135 1.214 . S
O134 Cd130 2.352 . S
O134 C137 1.258 . S
C135 O132 1.320 . S
C135 O133 1.214 . S
O136 Cd128 2.277 . S
O136 C131 1.209 . S
C137 O134 1.258 . S
C137 O139 1.282 . S
O138 Cd130 2.277 . S
O138 C131 1.226 . S
O139 Cd130 2.356 . S
O139 C137 1.282 . S
C140 O141 1.306 . S
C140 O143 1.160 . S
O141 C140 1.306 . S
O141 Cd142 2.228 . S
Cd142 O141 2.228 . S
Cd142 O146 2.273 . S
Cd142 O150 2.277 . S
O143 C140 1.160 . S
O143 Cd144 2.203 . S
Cd144 O143 2.203 . S
Cd144 O146 2.411 . S
Cd144 O147 2.333 . S
Cd144 O148 2.352 . S
Cd144 O152 2.277 . S
Cd144 O153 2.356 . S
C145 O150 1.209 . S
C145 O152 1.226 . S
O146 Cd142 2.273 . S
O146 Cd144 2.411 . S
O146 C149 1.320 . S
O147 Cd144 2.333 . S
O147 C149 1.214 . S
O148 Cd144 2.352 . S
O148 C151 1.258 . S
C149 O146 1.320 . S
C149 O147 1.214 . S
O150 Cd142 2.277 . S
O150 C145 1.209 . S
C151 O148 1.258 . S
C151 O153 1.282 . S
O152 Cd144 2.277 . S
O152 C145 1.226 . S
O153 Cd144 2.356 . S
O153 C151 1.282 . S
C154 O155 1.306 . S
C154 O157 1.160 . S
O155 C154 1.306 . S
O155 Cd156 2.228 . S
Cd156 O155 2.228 . S
Cd156 O160 2.273 . S
Cd156 O164 2.277 . S
O157 C154 1.160 . S
O157 Cd158 2.203 . S
Cd158 O157 2.203 . S
Cd158 O160 2.411 . S
Cd158 O161 2.333 . S
Cd158 O162 2.352 . S
Cd158 O166 2.277 . S
Cd158 O167 2.356 . S
C159 O164 1.209 . S
C159 O166 1.226 . S
O160 Cd156 2.273 . S
O160 Cd158 2.411 . S
O160 C163 1.320 . S
O161 Cd158 2.333 . S
O161 C163 1.214 . S
O162 Cd158 2.352 . S
O162 C165 1.258 . S
C163 O160 1.320 . S
C163 O161 1.214 . S
O164 Cd156 2.277 . S
O164 C159 1.209 . S
C165 O162 1.258 . S
C165 O167 1.282 . S
O166 Cd158 2.277 . S
O166 C159 1.226 . S
O167 Cd158 2.356 . S
O167 C165 1.282 . S
C168 O169 1.306 . S
C168 O171 1.160 . S
O169 C168 1.306 . S
O169 Cd170 2.228 . S
Cd170 O169 2.228 . S
Cd170 O174 2.273 . S
Cd170 O178 2.277 . S
O171 C168 1.160 . S
O171 Cd172 2.203 . S
Cd172 O171 2.203 . S
Cd172 O174 2.411 . S
Cd172 O175 2.333 . S
Cd172 O176 2.352 . S
Cd172 O180 2.277 . S
Cd172 O181 2.356 . S
C173 O178 1.209 . S
C173 O180 1.226 . S
O174 Cd170 2.273 . S
O174 Cd172 2.411 . S
O174 C177 1.320 . S
O175 Cd172 2.333 . S
O175 C177 1.214 . S
O176 Cd172 2.352 . S
O176 C179 1.258 . S
C177 O174 1.320 . S
C177 O175 1.214 . S
O178 Cd170 2.277 . S
O178 C173 1.209 . S
C179 O176 1.258 . S
C179 O181 1.282 . S
O180 Cd172 2.277 . S
O180 C173 1.226 . S
O181 Cd172 2.356 . S
O181 C179 1.282 . S
C182 O183 1.306 . S
C182 O185 1.160 . S
O183 C182 1.306 . S
O183 Cd184 2.228 . S
Cd184 O183 2.228 . S
Cd184 O188 2.273 . S
Cd184 O192 2.277 . S
O185 C182 1.160 . S
O185 Cd186 2.203 . S
Cd186 O185 2.203 . S
Cd186 O188 2.411 . S
Cd186 O189 2.333 . S
Cd186 O190 2.352 . S
Cd186 O194 2.277 . S
Cd186 O195 2.356 . S
C187 O192 1.209 . S
C187 O194 1.226 . S
O188 Cd184 2.273 . S
O188 Cd186 2.411 . S
O188 C191 1.320 . S
O189 Cd186 2.333 . S
O189 C191 1.214 . S
O190 Cd186 2.352 . S
O190 C193 1.258 . S
C191 O188 1.320 . S
C191 O189 1.214 . S
O192 Cd184 2.277 . S
O192 C187 1.209 . S
C193 O190 1.258 . S
C193 O195 1.282 . S
O194 Cd186 2.277 . S
O194 C187 1.226 . S
O195 Cd186 2.356 . S
O195 C193 1.282 . S
C196 O197 1.306 . S
C196 O199 1.160 . S
O197 C196 1.306 . S
O197 Cd198 2.228 . S
Cd198 O197 2.228 . S
Cd198 O202 2.273 . S
Cd198 O206 2.277 . S
O199 C196 1.160 . S
O199 Cd200 2.203 . S
Cd200 O199 2.203 . S
Cd200 O202 2.411 . S
Cd200 O203 2.333 . S
Cd200 O204 2.352 . S
Cd200 O208 2.277 . S
Cd200 O209 2.356 . S
C201 O206 1.209 . S
C201 O208 1.226 . S
O202 Cd198 2.273 . S
O202 Cd200 2.411 . S
O202 C205 1.320 . S
O203 Cd200 2.333 . S
O203 C205 1.214 . S
O204 Cd200 2.352 . S
O204 C207 1.258 . S
C205 O202 1.320 . S
C205 O203 1.214 . S
O206 Cd198 2.277 . S
O206 C201 1.209 . S
C207 O204 1.258 . S
C207 O209 1.282 . S
O208 Cd200 2.277 . S
O208 C201 1.226 . S
O209 Cd200 2.356 . S
O209 C207 1.282 . S
C210 O211 1.306 . S
C210 O213 1.160 . S
O211 C210 1.306 . S
O211 Cd212 2.228 . S
Cd212 O211 2.228 . S
Cd212 O216 2.273 . S
Cd212 O220 2.277 . S
O213 C210 1.160 . S
O213 Cd214 2.203 . S
Cd214 O213 2.203 . S
Cd214 O216 2.411 . S
Cd214 O217 2.333 . S
Cd214 O218 2.352 . S
Cd214 O222 2.277 . S
Cd214 O223 2.356 . S
C215 O220 1.209 . S
C215 O222 1.226 . S
O216 Cd212 2.273 . S
O216 Cd214 2.411 . S
O216 C219 1.320 . S
O217 Cd214 2.333 . S
O217 C219 1.214 . S
O218 Cd214 2.352 . S
O218 C221 1.258 . S
C219 O216 1.320 . S
C219 O217 1.214 . S
O220 Cd212 2.277 . S
O220 C215 1.209 . S
C221 O218 1.258 . S
C221 O223 1.282 . S
O222 Cd214 2.277 . S
O222 C215 1.226 . S
O223 Cd214 2.356 . S
O223 C221 1.282 . S
H224 C230 0.930 . S
H225 C233 0.930 . S
H226 C234 0.930 . S
H227 C235 0.930 . S
H228 C238 0.930 . S
H229 C239 0.930 . S
C230 H224 0.930 . S
C230 C231 1.355 . S
C230 C232 1.415 . S
C231 C230 1.355 . S
C231 C233 1.419 . S
C232 C230 1.415 . S
C232 C237 1.425 . S
C232 C239 1.409 . S
C233 H225 0.930 . S
C233 C231 1.419 . S
C233 C234 1.362 . S
C234 H226 0.930 . S
C234 C233 1.362 . S
C234 C237 1.409 . S
C235 H227 0.930 . S
C235 C236 1.355 . S
C235 C237 1.415 . S
C236 C235 1.355 . S
C236 C238 1.419 . S
C237 C232 1.425 . S
C237 C234 1.409 . S
C237 C235 1.415 . S
C238 H228 0.930 . S
C238 C236 1.419 . S
C238 C239 1.362 . S
C239 H229 0.930 . S
C239 C232 1.409 . S
C239 C238 1.362 . S
H240 C246 0.930 . S
H241 C249 0.930 . S
H242 C250 0.930 . S
H243 C251 0.930 . S
H244 C254 0.930 . S
H245 C255 0.930 . S
C246 H240 0.930 . S
C246 C247 1.355 . S
C246 C248 1.415 . S
C247 C246 1.355 . S
C247 C249 1.419 . S
C248 C246 1.415 . S
C248 C253 1.425 . S
C248 C255 1.409 . S
C249 H241 0.930 . S
C249 C247 1.419 . S
C249 C250 1.362 . S
C250 H242 0.930 . S
C250 C249 1.362 . S
C250 C253 1.409 . S
C251 H243 0.930 . S
C251 C252 1.355 . S
C251 C253 1.415 . S
C252 C251 1.355 . S
C252 C254 1.419 . S
C253 C248 1.425 . S
C253 C250 1.409 . S
C253 C251 1.415 . S
C254 H244 0.930 . S
C254 C252 1.419 . S
C254 C255 1.362 . S
C255 H245 0.930 . S
C255 C248 1.409 . S
C255 C254 1.362 . S
H256 C262 0.930 . S
H257 C265 0.930 . S
H258 C266 0.930 . S
H259 C267 0.930 . S
H260 C270 0.930 . S
H261 C271 0.930 . S
C262 H256 0.930 . S
C262 C263 1.355 . S
C262 C264 1.415 . S
C263 C262 1.355 . S
C263 C265 1.419 . S
C264 C262 1.415 . S
C264 C269 1.425 . S
C264 C271 1.409 . S
C265 H257 0.930 . S
C265 C263 1.419 . S
C265 C266 1.362 . S
C266 H258 0.930 . S
C266 C265 1.362 . S
C266 C269 1.409 . S
C267 H259 0.930 . S
C267 C268 1.355 . S
C267 C269 1.415 . S
C268 C267 1.355 . S
C268 C270 1.419 . S
C269 C264 1.425 . S
C269 C266 1.409 . S
C269 C267 1.415 . S
C270 H260 0.930 . S
C270 C268 1.419 . S
C270 C271 1.362 . S
C271 H261 0.930 . S
C271 C264 1.409 . S
C271 C270 1.362 . S
H272 C278 0.930 . S
H273 C281 0.930 . S
H274 C282 0.930 . S
H275 C283 0.930 . S
H276 C286 0.930 . S
H277 C287 0.930 . S
C278 H272 0.930 . S
C278 C279 1.355 . S
C278 C280 1.415 . S
C279 C278 1.355 . S
C279 C281 1.419 . S
C280 C278 1.415 . S
C280 C285 1.425 . S
C280 C287 1.409 . S
C281 H273 0.930 . S
C281 C279 1.419 . S
C281 C282 1.362 . S
C282 H274 0.930 . S
C282 C281 1.362 . S
C282 C285 1.409 . S
C283 H275 0.930 . S
C283 C284 1.355 . S
C283 C285 1.415 . S
C284 C283 1.355 . S
C284 C286 1.419 . S
C285 C280 1.425 . S
C285 C282 1.409 . S
C285 C283 1.415 . S
C286 H276 0.930 . S
C286 C284 1.419 . S
C286 C287 1.362 . S
C287 H277 0.930 . S
C287 C280 1.409 . S
C287 C286 1.362 . S
H288 C294 0.930 . S
H289 C297 0.930 . S
H290 C298 0.930 . S
H291 C299 0.930 . S
H292 C302 0.930 . S
H293 C303 0.930 . S
C294 H288 0.930 . S
C294 C295 1.355 . S
C294 C296 1.415 . S
C295 C294 1.355 . S
C295 C297 1.419 . S
C296 C294 1.415 . S
C296 C301 1.425 . S
C296 C303 1.409 . S
C297 H289 0.930 . S
C297 C295 1.419 . S
C297 C298 1.362 . S
C298 H290 0.930 . S
C298 C297 1.362 . S
C298 C301 1.409 . S
C299 H291 0.930 . S
C299 C300 1.355 . S
C299 C301 1.415 . S
C300 C299 1.355 . S
C300 C302 1.419 . S
C301 C296 1.425 . S
C301 C298 1.409 . S
C301 C299 1.415 . S
C302 H292 0.930 . S
C302 C300 1.419 . S
C302 C303 1.362 . S
C303 H293 0.930 . S
C303 C296 1.409 . S
C303 C302 1.362 . S
H304 C310 0.930 . S
H305 C313 0.930 . S
H306 C314 0.930 . S
H307 C315 0.930 . S
H308 C318 0.930 . S
H309 C319 0.930 . S
C310 H304 0.930 . S
C310 C311 1.355 . S
C310 C312 1.415 . S
C311 C310 1.355 . S
C311 C313 1.419 . S
C312 C310 1.415 . S
C312 C317 1.425 . S
C312 C319 1.409 . S
C313 H305 0.930 . S
C313 C311 1.419 . S
C313 C314 1.362 . S
C314 H306 0.930 . S
C314 C313 1.362 . S
C314 C317 1.409 . S
C315 H307 0.930 . S
C315 C316 1.355 . S
C315 C317 1.415 . S
C316 C315 1.355 . S
C316 C318 1.419 . S
C317 C312 1.425 . S
C317 C314 1.409 . S
C317 C315 1.415 . S
C318 H308 0.930 . S
C318 C316 1.419 . S
C318 C319 1.362 . S
C319 H309 0.930 . S
C319 C312 1.409 . S
C319 C318 1.362 . S
H320 C326 0.930 . S
H321 C329 0.930 . S
H322 C330 0.930 . S
H323 C331 0.930 . S
H324 C334 0.930 . S
H325 C335 0.930 . S
C326 H320 0.930 . S
C326 C327 1.355 . S
C326 C328 1.415 . S
C327 C326 1.355 . S
C327 C329 1.419 . S
C328 C326 1.415 . S
C328 C333 1.425 . S
C328 C335 1.409 . S
C329 H321 0.930 . S
C329 C327 1.419 . S
C329 C330 1.362 . S
C330 H322 0.930 . S
C330 C329 1.362 . S
C330 C333 1.409 . S
C331 H323 0.930 . S
C331 C332 1.355 . S
C331 C333 1.415 . S
C332 C331 1.355 . S
C332 C334 1.419 . S
C333 C328 1.425 . S
C333 C330 1.409 . S
C333 C331 1.415 . S
C334 H324 0.930 . S
C334 C332 1.419 . S
C334 C335 1.362 . S
C335 H325 0.930 . S
C335 C328 1.409 . S
C335 C334 1.362 . S
H336 C342 0.930 . S
H337 C345 0.930 . S
H338 C346 0.930 . S
H339 C347 0.930 . S
H340 C350 0.930 . S
H341 C351 0.930 . S
C342 H336 0.930 . S
C342 C343 1.355 . S
C342 C344 1.415 . S
C343 C342 1.355 . S
C343 C345 1.419 . S
C344 C342 1.415 . S
C344 C349 1.425 . S
C344 C351 1.409 . S
C345 H337 0.930 . S
C345 C343 1.419 . S
C345 C346 1.362 . S
C346 H338 0.930 . S
C346 C345 1.362 . S
C346 C349 1.409 . S
C347 H339 0.930 . S
C347 C348 1.355 . S
C347 C349 1.415 . S
C348 C347 1.355 . S
C348 C350 1.419 . S
C349 C344 1.425 . S
C349 C346 1.409 . S
C349 C347 1.415 . S
C350 H340 0.930 . S
C350 C348 1.419 . S
C350 C351 1.362 . S
C351 H341 0.930 . S
C351 C344 1.409 . S
C351 C350 1.362 . S
H352 C358 0.930 . S
H353 C361 0.930 . S
H354 C362 0.930 . S
H355 C363 0.930 . S
H356 C366 0.930 . S
H357 C367 0.930 . S
C358 H352 0.930 . S
C358 C359 1.355 . S
C358 C360 1.415 . S
C359 C358 1.355 . S
C359 C361 1.419 . S
C360 C358 1.415 . S
C360 C365 1.425 1_556 S
C360 C367 1.409 1_556 S
C361 H353 0.930 . S
C361 C359 1.419 . S
C361 C362 1.362 . S
C362 H354 0.930 . S
C362 C361 1.362 . S
C362 C365 1.409 1_556 S
C363 H355 0.930 . S
C363 C364 1.355 . S
C363 C365 1.415 . S
C364 C363 1.355 . S
C364 C366 1.419 . S
C365 C360 1.425 1_554 S
C365 C362 1.409 1_554 S
C365 C363 1.415 . S
C366 H356 0.930 . S
C366 C364 1.419 . S
C366 C367 1.362 . S
C367 H357 0.930 . S
C367 C360 1.409 1_554 S
C367 C366 1.362 . S
H368 C374 0.930 . S
H369 C377 0.930 . S
H370 C378 0.917 1_554 S
H371 C379 0.930 . S
H372 C382 0.930 . S
H373 C383 0.930 1_556 S
C374 H368 0.930 . S
C374 C375 1.355 . S
C374 C376 1.415 . S
C375 C374 1.355 . S
C375 C377 1.419 . S
C376 C374 1.415 . S
C376 C381 1.425 1_556 S
C376 C383 1.409 1_556 S
C377 H369 0.930 . S
C377 C375 1.419 . S
C377 C378 1.362 . S
C378 H370 0.917 1_556 S
C378 C377 1.362 . S
C378 C381 1.409 1_556 S
C379 H371 0.930 . S
C379 C380 1.355 . S
C379 C381 1.415 . S
C380 C379 1.355 . S
C380 C382 1.419 . S
C381 C376 1.425 1_554 S
C381 C378 1.409 1_554 S
C381 C379 1.415 . S
C382 H372 0.930 . S
C382 C380 1.419 . S
C382 C383 1.362 . S
C383 H373 0.930 1_554 S
C383 C376 1.409 1_554 S
C383 C382 1.362 . S
H384 C390 0.930 . S
H385 C393 0.930 . S
H386 C394 0.930 . S
H387 C395 0.930 . S
H388 C398 0.930 . S
H389 C399 0.930 . S
C390 H384 0.930 . S
C390 C391 1.355 . S
C390 C392 1.415 . S
C391 C390 1.355 . S
C391 C393 1.419 . S
C392 C390 1.415 . S
C392 C397 1.425 1_556 S
C392 C399 1.409 1_556 S
C393 H385 0.930 . S
C393 C391 1.419 . S
C393 C394 1.362 . S
C394 H386 0.930 . S
C394 C393 1.362 . S
C394 C397 1.409 1_556 S
C395 H387 0.930 . S
C395 C396 1.355 . S
C395 C397 1.415 . S
C396 C395 1.355 . S
C396 C398 1.419 . S
C397 C392 1.425 1_554 S
C397 C394 1.409 1_554 S
C397 C395 1.415 . S
C398 H388 0.930 . S
C398 C396 1.419 . S
C398 C399 1.362 . S
C399 H389 0.930 . S
C399 C392 1.409 1_554 S
C399 C398 1.362 . S
H400 C406 0.930 . S
H401 C409 0.930 . S
H402 C410 0.930 . S
H403 C411 0.930 . S
H404 C414 0.930 . S
H405 C415 0.930 . S
C406 H400 0.930 . S
C406 C407 1.355 . S
C406 C408 1.415 . S
C407 C406 1.355 . S
C407 C409 1.419 . S
C408 C406 1.415 . S
C408 C413 1.425 1_554 S
C408 C415 1.409 1_554 S
C409 H401 0.930 . S
C409 C407 1.419 . S
C409 C410 1.362 . S
C410 H402 0.930 . S
C410 C409 1.362 . S
C410 C413 1.409 1_554 S
C411 H403 0.930 . S
C411 C412 1.355 . S
C411 C413 1.415 . S
C412 C411 1.355 . S
C412 C414 1.419 . S
C413 C408 1.425 1_556 S
C413 C410 1.409 1_556 S
C413 C411 1.415 . S
C414 H404 0.930 . S
C414 C412 1.419 . S
C414 C415 1.362 . S
C415 H405 0.930 . S
C415 C408 1.409 1_556 S
C415 C414 1.362 . S
H416 C422 0.930 . S
H417 C425 0.930 . S
H418 C426 0.930 . S
H419 C427 0.930 . S
H420 C430 0.930 . S
H421 C431 0.930 . S
C422 H416 0.930 . S
C422 C423 1.355 . S
C422 C424 1.415 . S
C423 C422 1.355 . S
C423 C425 1.419 . S
C424 C422 1.415 . S
C424 C429 1.425 1_455 S
C424 C431 1.409 1_455 S
C425 H417 0.930 . S
C425 C423 1.419 . S
C425 C426 1.362 . S
C426 H418 0.930 . S
C426 C425 1.362 . S
C426 C429 1.409 1_455 S
C427 H419 0.930 . S
C427 C428 1.355 . S
C427 C429 1.415 . S
C428 C427 1.355 . S
C428 C430 1.419 . S
C429 C424 1.425 1_655 S
C429 C426 1.409 1_655 S
C429 C427 1.415 . S
C430 H420 0.930 . S
C430 C428 1.419 . S
C430 C431 1.362 . S
C431 H421 0.930 . S
C431 C424 1.409 1_655 S
C431 C430 1.362 . S
H432 C438 0.930 . S
H433 C441 0.930 . S
H434 C442 0.930 . S
H435 C443 0.930 . S
H436 C446 0.930 . S
H437 C447 0.930 . S
C438 H432 0.930 . S
C438 C439 1.355 . S
C438 C440 1.415 . S
C439 C438 1.355 . S
C439 C441 1.419 . S
C440 C438 1.415 . S
C440 C445 1.425 1_565 S
C440 C447 1.409 1_565 S
C441 H433 0.930 . S
C441 C439 1.419 . S
C441 C442 1.362 . S
C442 H434 0.930 . S
C442 C441 1.362 . S
C442 C445 1.409 1_565 S
C443 H435 0.930 . S
C443 C444 1.355 . S
C443 C445 1.415 . S
C444 C443 1.355 . S
C444 C446 1.419 . S
C445 C440 1.425 1_545 S
C445 C442 1.409 1_545 S
C445 C443 1.415 . S
C446 H436 0.930 . S
C446 C444 1.419 . S
C446 C447 1.362 . S
C447 H437 0.930 . S
C447 C440 1.409 1_545 S
C447 C446 1.362 . S
H448 C454 0.930 . S
H449 C457 0.930 . S
H450 C458 0.930 . S
H451 C459 0.930 . S
H452 C462 0.930 . S
H453 C463 0.930 . S
C454 H448 0.930 . S
C454 C455 1.355 . S
C454 C456 1.415 . S
C455 C454 1.355 . S
C455 C457 1.419 . S
C456 C454 1.415 . S
C456 C461 1.425 1_655 S
C456 C463 1.409 1_655 S
C457 H449 0.930 . S
C457 C455 1.419 . S
C457 C458 1.362 . S
C458 H450 0.930 . S
C458 C457 1.362 . S
C458 C461 1.409 1_655 S
C459 H451 0.930 . S
C459 C460 1.355 . S
C459 C461 1.415 . S
C460 C459 1.355 . S
C460 C462 1.419 . S
C461 C456 1.425 1_455 S
C461 C458 1.409 1_455 S
C461 C459 1.415 . S
C462 H452 0.930 . S
C462 C460 1.419 . S
C462 C463 1.362 . S
C463 H453 0.930 . S
C463 C456 1.409 1_455 S
C463 C462 1.362 . S
H464 C470 0.930 . S
H465 C473 0.930 . S
H466 C474 0.930 . S
H467 C475 0.930 . S
H468 C478 0.930 . S
H469 C479 0.930 . S
C470 H464 0.930 . S
C470 C471 1.355 . S
C470 C472 1.415 . S
C471 C470 1.355 . S
C471 C473 1.419 . S
C472 C470 1.415 . S
C472 C477 1.425 1_545 S
C472 C479 1.409 1_545 S
C473 H465 0.930 . S
C473 C471 1.419 . S
C473 C474 1.362 . S
C474 H466 0.930 . S
C474 C473 1.362 . S
C474 C477 1.409 1_545 S
C475 H467 0.930 . S
C475 C476 1.355 . S
C475 C477 1.415 . S
C476 C475 1.355 . S
C476 C478 1.419 . S
C477 C472 1.425 1_565 S
C477 C474 1.409 1_565 S
C477 C475 1.415 . S
C478 H468 0.930 . S
C478 C476 1.419 . S
C478 C479 1.362 . S
C479 H469 0.930 . S
C479 C472 1.409 1_565 S
C479 C478 1.362 . S
H480 C486 0.930 . S
H481 C489 0.930 . S
H482 C490 0.930 . S
H483 C491 0.930 . S
H484 C494 0.930 . S
H485 C495 0.930 . S
C486 H480 0.930 . S
C486 C487 1.355 . S
C486 C488 1.415 . S
C487 C486 1.355 . S
C487 C489 1.419 . S
C488 C486 1.415 . S
C488 C493 1.425 1_655 S
C488 C495 1.409 1_655 S
C489 H481 0.930 . S
C489 C487 1.419 . S
C489 C490 1.362 . S
C490 H482 0.930 . S
C490 C489 1.362 . S
C490 C493 1.409 1_655 S
C491 H483 0.930 . S
C491 C492 1.355 . S
C491 C493 1.415 . S
C492 C491 1.355 . S
C492 C494 1.419 . S
C493 C488 1.425 1_455 S
C493 C490 1.409 1_455 S
C493 C491 1.415 . S
C494 H484 0.930 . S
C494 C492 1.419 . S
C494 C495 1.362 . S
C495 H485 0.930 . S
C495 C488 1.409 1_455 S
C495 C494 1.362 . S
H496 C502 0.930 . S
H497 C505 0.930 . S
H498 C506 0.930 . S
H499 C507 0.930 . S
H500 C510 0.930 . S
H501 C511 0.930 . S
C502 H496 0.930 . S
C502 C503 1.355 . S
C502 C504 1.415 . S
C503 C502 1.355 . S
C503 C505 1.419 . S
C504 C502 1.415 . S
C504 C509 1.425 1_565 S
C504 C511 1.409 1_565 S
C505 H497 0.930 . S
C505 C503 1.419 . S
C505 C506 1.362 . S
C506 H498 0.930 . S
C506 C505 1.362 . S
C506 C509 1.409 1_565 S
C507 H499 0.930 . S
C507 C508 1.355 . S
C507 C509 1.415 . S
C508 C507 1.355 . S
C508 C510 1.419 . S
C509 C504 1.425 1_545 S
C509 C506 1.409 1_545 S
C509 C507 1.415 . S
C510 H500 0.930 . S
C510 C508 1.419 . S
C510 C511 1.362 . S
C511 H501 0.930 . S
C511 C504 1.409 1_545 S
C511 C510 1.362 . S
H512 C518 0.930 . S
H513 C521 0.930 . S
H514 C522 0.930 . S
H515 C523 0.930 . S
H516 C526 0.930 . S
H517 C527 0.930 . S
C518 H512 0.930 . S
C518 C519 1.355 . S
C518 C520 1.415 . S
C519 C518 1.355 . S
C519 C521 1.419 . S
C520 C518 1.415 . S
C520 C525 1.425 1_455 S
C520 C527 1.409 1_455 S
C521 H513 0.930 . S
C521 C519 1.419 . S
C521 C522 1.362 . S
C522 H514 0.930 . S
C522 C521 1.362 . S
C522 C525 1.409 1_455 S
C523 H515 0.930 . S
C523 C524 1.355 . S
C523 C525 1.415 . S
C524 C523 1.355 . S
C524 C526 1.419 . S
C525 C520 1.425 1_655 S
C525 C522 1.409 1_655 S
C525 C523 1.415 . S
C526 H516 0.930 . S
C526 C524 1.419 . S
C526 C527 1.362 . S
C527 H517 0.930 . S
C527 C520 1.409 1_655 S
C527 C526 1.362 . S
H528 C534 0.930 . S
H529 C537 0.930 . S
H530 C538 0.932 . S
H531 C539 0.930 . S
H532 C542 0.930 . S
H533 C543 0.930 1_565 S
C534 H528 0.930 . S
C534 C535 1.355 . S
C534 C536 1.415 . S
C535 C534 1.355 . S
C535 C537 1.419 . S
C536 C534 1.415 . S
C536 C541 1.425 1_565 S
C536 C543 1.409 1_565 S
C537 H529 0.930 . S
C537 C535 1.419 . S
C537 C538 1.362 . S
C538 H530 0.932 . S
C538 C537 1.362 . S
C538 C541 1.409 1_565 S
C539 H531 0.930 . S
C539 C540 1.355 . S
C539 C541 1.415 . S
C540 C539 1.355 . S
C540 C542 1.419 . S
C541 C536 1.425 1_545 S
C541 C538 1.409 1_545 S
C541 C539 1.415 . S
C542 H532 0.930 . S
C542 C540 1.419 . S
C542 C543 1.362 . S
C543 H533 0.930 1_545 S
C543 C536 1.409 1_545 S
C543 C542 1.362 . S
H544 C550 0.930 . S
H545 C553 0.930 . S
H546 C554 0.930 . S
H547 C555 0.930 . S
H548 C558 0.930 . S
H549 C559 0.930 . S
C550 H544 0.930 . S
C550 C551 1.355 . S
C550 C552 1.415 . S
C551 C550 1.355 . S
C551 C553 1.419 . S
C552 C550 1.415 . S
C552 C557 1.425 . S
C552 C559 1.409 . S
C553 H545 0.930 . S
C553 C551 1.419 . S
C553 C554 1.362 . S
C554 H546 0.930 . S
C554 C553 1.362 . S
C554 C557 1.409 . S
C555 H547 0.930 . S
C555 C556 1.355 . S
C555 C557 1.415 . S
C556 C555 1.355 . S
C556 C558 1.419 . S
C557 C552 1.425 . S
C557 C554 1.409 . S
C557 C555 1.415 . S
C558 H548 0.930 . S
C558 C556 1.419 . S
C558 C559 1.362 . S
C559 H549 0.930 . S
C559 C552 1.409 . S
C559 C558 1.362 . S
H560 C566 0.930 . S
H561 C569 0.930 . S
H562 C570 0.930 . S
H563 C571 0.930 . S
H564 C574 0.930 . S
H565 C575 0.930 . S
C566 H560 0.930 . S
C566 C567 1.355 . S
C566 C568 1.415 . S
C567 C566 1.355 . S
C567 C569 1.419 . S
C568 C566 1.415 . S
C568 C573 1.425 . S
C568 C575 1.409 . S
C569 H561 0.930 . S
C569 C567 1.419 . S
C569 C570 1.362 . S
C570 H562 0.930 . S
C570 C569 1.362 . S
C570 C573 1.409 . S
C571 H563 0.930 . S
C571 C572 1.355 . S
C571 C573 1.415 . S
C572 C571 1.355 . S
C572 C574 1.419 . S
C573 C568 1.425 . S
C573 C570 1.409 . S
C573 C571 1.415 . S
C574 H564 0.930 . S
C574 C572 1.419 . S
C574 C575 1.362 . S
C575 H565 0.930 . S
C575 C568 1.409 . S
C575 C574 1.362 . S
H576 C582 0.930 . S
H577 C585 0.930 . S
H578 C586 0.930 . S
H579 C587 0.930 . S
H580 C590 0.930 . S
H581 C591 0.930 . S
C582 H576 0.930 . S
C582 C583 1.355 . S
C582 C584 1.415 . S
C583 C582 1.355 . S
C583 C585 1.419 . S
C584 C582 1.415 . S
C584 C589 1.425 . S
C584 C591 1.409 . S
C585 H577 0.930 . S
C585 C583 1.419 . S
C585 C586 1.362 . S
C586 H578 0.930 . S
C586 C585 1.362 . S
C586 C589 1.409 . S
C587 H579 0.930 . S
C587 C588 1.355 . S
C587 C589 1.415 . S
C588 C587 1.355 . S
C588 C590 1.419 . S
C589 C584 1.425 . S
C589 C586 1.409 . S
C589 C587 1.415 . S
C590 H580 0.930 . S
C590 C588 1.419 . S
C590 C591 1.362 . S
C591 H581 0.930 . S
C591 C584 1.409 . S
C591 C590 1.362 . S
H592 C598 0.930 . S
H593 C601 0.930 . S
H594 C602 0.930 . S
H595 C603 0.930 . S
H596 C606 0.930 . S
H597 C607 0.930 . S
C598 H592 0.930 . S
C598 C599 1.355 . S
C598 C600 1.415 . S
C599 C598 1.355 . S
C599 C601 1.419 . S
C600 C598 1.415 . S
C600 C605 1.425 . S
C600 C607 1.409 . S
C601 H593 0.930 . S
C601 C599 1.419 . S
C601 C602 1.362 . S
C602 H594 0.930 . S
C602 C601 1.362 . S
C602 C605 1.409 . S
C603 H595 0.930 . S
C603 C604 1.355 . S
C603 C605 1.415 . S
C604 C603 1.355 . S
C604 C606 1.419 . S
C605 C600 1.425 . S
C605 C602 1.409 . S
C605 C603 1.415 . S
C606 H596 0.930 . S
C606 C604 1.419 . S
C606 C607 1.362 . S
C607 H597 0.930 . S
C607 C600 1.409 . S
C607 C606 1.362 . S
H608 C614 0.930 . S
H609 C617 0.930 . S
H610 C618 0.930 . S
H611 C619 0.930 . S
H612 C622 0.930 . S
H613 C623 0.930 . S
C614 H608 0.930 . S
C614 C615 1.355 . S
C614 C616 1.415 . S
C615 C614 1.355 . S
C615 C617 1.419 . S
C616 C614 1.415 . S
C616 C621 1.425 . S
C616 C623 1.409 . S
C617 H609 0.930 . S
C617 C615 1.419 . S
C617 C618 1.362 . S
C618 H610 0.930 . S
C618 C617 1.362 . S
C618 C621 1.409 . S
C619 H611 0.930 . S
C619 C620 1.355 . S
C619 C621 1.415 . S
C620 C619 1.355 . S
C620 C622 1.419 . S
C621 C616 1.425 . S
C621 C618 1.409 . S
C621 C619 1.415 . S
C622 H612 0.930 . S
C622 C620 1.419 . S
C622 C623 1.362 . S
C623 H613 0.930 . S
C623 C616 1.409 . S
C623 C622 1.362 . S
H624 C630 0.930 . S
H625 C633 0.930 . S
H626 C634 0.930 . S
H627 C635 0.930 . S
H628 C638 0.930 . S
H629 C639 0.930 . S
C630 H624 0.930 . S
C630 C631 1.355 . S
C630 C632 1.415 . S
C631 C630 1.355 . S
C631 C633 1.419 . S
C632 C630 1.415 . S
C632 C637 1.425 . S
C632 C639 1.409 . S
C633 H625 0.930 . S
C633 C631 1.419 . S
C633 C634 1.362 . S
C634 H626 0.930 . S
C634 C633 1.362 . S
C634 C637 1.409 . S
C635 H627 0.930 . S
C635 C636 1.355 . S
C635 C637 1.415 . S
C636 C635 1.355 . S
C636 C638 1.419 . S
C637 C632 1.425 . S
C637 C634 1.409 . S
C637 C635 1.415 . S
C638 H628 0.930 . S
C638 C636 1.419 . S
C638 C639 1.362 . S
C639 H629 0.930 . S
C639 C632 1.409 . S
C639 C638 1.362 . S
H640 C646 0.930 . S
H641 C649 0.930 . S
H642 C650 0.930 . S
H643 C651 0.930 . S
H644 C654 0.930 . S
H645 C655 0.930 . S
C646 H640 0.930 . S
C646 C647 1.355 . S
C646 C648 1.415 . S
C647 C646 1.355 . S
C647 C649 1.419 . S
C648 C646 1.415 . S
C648 C653 1.425 . S
C648 C655 1.409 . S
C649 H641 0.930 . S
C649 C647 1.419 . S
C649 C650 1.362 . S
C650 H642 0.930 . S
C650 C649 1.362 . S
C650 C653 1.409 . S
C651 H643 0.930 . S
C651 C652 1.355 . S
C651 C653 1.415 . S
C652 C651 1.355 . S
C652 C654 1.419 . S
C653 C648 1.425 . S
C653 C650 1.409 . S
C653 C651 1.415 . S
C654 H644 0.930 . S
C654 C652 1.419 . S
C654 C655 1.362 . S
C655 H645 0.930 . S
C655 C648 1.409 . S
C655 C654 1.362 . S
H656 C662 0.930 . S
H657 C665 0.930 . S
H658 C666 0.930 . S
H659 C667 0.930 . S
H660 C670 0.930 . S
H661 C671 0.930 . S
C662 H656 0.930 . S
C662 C663 1.355 . S
C662 C664 1.415 . S
C663 C662 1.355 . S
C663 C665 1.419 . S
C664 C662 1.415 . S
C664 C669 1.425 . S
C664 C671 1.409 . S
C665 H657 0.930 . S
C665 C663 1.419 . S
C665 C666 1.362 . S
C666 H658 0.930 . S
C666 C665 1.362 . S
C666 C669 1.409 . S
C667 H659 0.930 . S
C667 C668 1.355 . S
C667 C669 1.415 . S
C668 C667 1.355 . S
C668 C670 1.419 . S
C669 C664 1.425 . S
C669 C666 1.409 . S
C669 C667 1.415 . S
C670 H660 0.930 . S
C670 C668 1.419 . S
C670 C671 1.362 . S
C671 H661 0.930 . S
C671 C664 1.409 . S
C671 C670 1.362 . S
H672 C678 0.930 . S
H673 C681 0.930 . S
H674 C682 0.930 . S
H675 C683 0.930 . S
H676 C686 0.930 . S
H677 C687 0.930 . S
C678 H672 0.930 . S
C678 C679 1.355 . S
C678 C680 1.415 . S
C679 C678 1.355 . S
C679 C681 1.419 . S
C680 C678 1.415 . S
C680 C685 1.425 . S
C680 C687 1.409 . S
C681 H673 0.930 . S
C681 C679 1.419 . S
C681 C682 1.362 . S
C682 H674 0.930 . S
C682 C681 1.362 . S
C682 C685 1.409 . S
C683 H675 0.930 . S
C683 C684 1.355 . S
C683 C685 1.415 . S
C684 C683 1.355 . S
C684 C686 1.419 . S
C685 C680 1.425 . S
C685 C682 1.409 . S
C685 C683 1.415 . S
C686 H676 0.930 . S
C686 C684 1.419 . S
C686 C687 1.362 . S
C687 H677 0.930 . S
C687 C680 1.409 . S
C687 C686 1.362 . S
H688 C694 0.930 . S
H689 C697 0.930 . S
H690 C698 0.930 . S
H691 C699 0.930 . S
H692 C702 0.930 . S
H693 C703 0.930 . S
C694 H688 0.930 . S
C694 C695 1.355 . S
C694 C696 1.415 . S
C695 C694 1.355 . S
C695 C697 1.419 . S
C696 C694 1.415 . S
C696 C701 1.425 . S
C696 C703 1.409 . S
C697 H689 0.930 . S
C697 C695 1.419 . S
C697 C698 1.362 . S
C698 H690 0.930 . S
C698 C697 1.362 . S
C698 C701 1.409 . S
C699 H691 0.930 . S
C699 C700 1.355 . S
C699 C701 1.415 . S
C700 C699 1.355 . S
C700 C702 1.419 . S
C701 C696 1.425 . S
C701 C698 1.409 . S
C701 C699 1.415 . S
C702 H692 0.930 . S
C702 C700 1.419 . S
C702 C703 1.362 . S
C703 H693 0.930 . S
C703 C696 1.409 . S
C703 C702 1.362 . S
H704 C710 0.930 . S
H705 C713 0.930 . S
H706 C714 0.930 . S
H707 C715 0.930 . S
H708 C718 0.930 . S
H709 C719 0.930 . S
C710 H704 0.930 . S
C710 C711 1.355 . S
C710 C712 1.415 . S
C711 C710 1.355 . S
C711 C713 1.419 . S
C712 C710 1.415 . S
C712 C717 1.425 . S
C712 C719 1.409 . S
C713 H705 0.930 . S
C713 C711 1.419 . S
C713 C714 1.362 . S
C714 H706 0.930 . S
C714 C713 1.362 . S
C714 C717 1.409 . S
C715 H707 0.930 . S
C715 C716 1.355 . S
C715 C717 1.415 . S
C716 C715 1.355 . S
C716 C718 1.419 . S
C717 C712 1.425 . S
C717 C714 1.409 . S
C717 C715 1.415 . S
C718 H708 0.930 . S
C718 C716 1.419 . S
C718 C719 1.362 . S
C719 H709 0.930 . S
C719 C712 1.409 . S
C719 C718 1.362 . S
H720 C726 0.930 . S
H721 C729 0.930 . S
H722 C730 0.930 . S
H723 C731 0.930 . S
H724 C734 0.930 . S
H725 C735 0.930 . S
C726 H720 0.930 . S
C726 C727 1.355 . S
C726 C728 1.415 . S
C727 C726 1.355 . S
C727 C729 1.419 . S
C728 C726 1.415 . S
C728 C733 1.425 . S
C728 C735 1.409 . S
C729 H721 0.930 . S
C729 C727 1.419 . S
C729 C730 1.362 . S
C730 H722 0.930 . S
C730 C729 1.362 . S
C730 C733 1.409 . S
C731 H723 0.930 . S
C731 C732 1.355 . S
C731 C733 1.415 . S
C732 C731 1.355 . S
C732 C734 1.419 . S
C733 C728 1.425 . S
C733 C730 1.409 . S
C733 C731 1.415 . S
C734 H724 0.930 . S
C734 C732 1.419 . S
C734 C735 1.362 . S
C735 H725 0.930 . S
C735 C728 1.409 . S
C735 C734 1.362 . S
C231 C221 1.099 . S
C236 C11 1.135 . S
C247 C179 1.130 . S
C252 C25 1.112 . S
C263 C39 1.119 . S
C268 C193 1.125 . S
C279 C207 1.091 . S
C284 C53 1.124 . S
C295 C137 1.118 . S
C300 C67 1.093 . S
C311 C81 1.092 . S
C316 C151 1.119 . S
C327 C95 1.120 . S
C332 C165 1.124 . S
C343 C109 1.091 . S
C348 C123 1.124 . S
C359 C79 1.485 . S
C364 C5 1.510 . S
C375 C89 1.511 . S
C380 C23 1.503 . S
C391 C107 1.492 . S
C396 C33 1.510 . S
C407 C51 1.471 . S
C412 C61 1.511 . S
C423 C0 1.554 . S
C428 C14 1.503 . S
C439 C37 1.449 . S
C444 C19 1.509 . S
C455 C28 1.504 . S
C460 C42 1.558 . S
C471 C9 1.501 . S
C476 C47 1.510 . S
C487 C98 1.535 . S
C492 C56 1.560 . S
C503 C65 1.457 . S
C508 C75 1.509 . S
C519 C70 1.507 . S
C524 C84 1.562 . S
C535 C103 1.510 . S
C540 C93 1.499 . S
C551 C191 1.474 . S
C556 C117 1.509 . S
C567 C135 1.461 . S
C572 C201 1.510 . S
C583 C219 1.453 . S
C588 C145 1.510 . S
C599 C173 1.510 . S
C604 C163 1.497 . S
C615 C112 1.537 . S
C620 C126 1.559 . S
C631 C131 1.510 . S
C636 C149 1.496 . S
C647 C154 1.521 . S
C652 C140 1.518 . S
C663 C121 1.499 . S
C668 C159 1.511 . S
C679 C210 1.521 . S
C684 C168 1.565 . S
C695 C177 1.503 . S
C700 C187 1.511 . S
C711 C182 1.537 . S
C716 C196 1.507 . S
C727 C215 1.510 . S
C732 C205 1.486 . S
