# Generated by pormake.
# Topology acs-a, (4)-cn, num edge types: 1
# Building blocks:
#     Node 0, Type 0, BuildingBlock: ICAMEG_clean_sbu_1, # of connection points: 4
#     Node 1, Type 0, BuildingBlock: ICAMEG_clean_sbu_1, # of connection points: 4
#     Node 2, Type 0, BuildingBlock: ICAMEG_clean_sbu_1, # of connection points: 4
#     Node 3, Type 0, BuildingBlock: ICAMEG_clean_sbu_1, # of connection points: 4
#     Node 4, Type 0, BuildingBlock: ICAMEG_clean_sbu_1, # of connection points: 4
#     Node 5, Type 0, BuildingBlock: ICAMEG_clean_sbu_1, # of connection points: 4
#     Node 6, Type 0, BuildingBlock: ICAMEG_clean_sbu_1, # of connection points: 4
#     Node 7, Type 0, BuildingBlock: ICAMEG_clean_sbu_1, # of connection points: 4
#     Node 8, Type 0, BuildingBlock: ICAMEG_clean_sbu_1, # of connection points: 4
#     Node 9, Type 0, BuildingBlock: ICAMEG_clean_sbu_1, # of connection points: 4
#     Node 10, Type 0, BuildingBlock: ICAMEG_clean_sbu_1, # of connection points: 4
#     Node 11, Type 0, BuildingBlock: ICAMEG_clean_sbu_1, # of connection points: 4
#     Edge 12, Type (0, 0), BuildingBlock: EZIPEK_clean_linker_0, # of connection points: 2
#     Edge 13, Type (0, 0), BuildingBlock: EZIPEK_clean_linker_0, # of connection points: 2
#     Edge 14, Type (0, 0), BuildingBlock: EZIPEK_clean_linker_0, # of connection points: 2
#     Edge 15, Type (0, 0), BuildingBlock: EZIPEK_clean_linker_0, # of connection points: 2
#     Edge 16, Type (0, 0), BuildingBlock: EZIPEK_clean_linker_0, # of connection points: 2
#     Edge 17, Type (0, 0), BuildingBlock: EZIPEK_clean_linker_0, # of connection points: 2
#     Edge 18, Type (0, 0), BuildingBlock: EZIPEK_clean_linker_0, # of connection points: 2
#     Edge 19, Type (0, 0), BuildingBlock: EZIPEK_clean_linker_0, # of connection points: 2
#     Edge 20, Type (0, 0), BuildingBlock: EZIPEK_clean_linker_0, # of connection points: 2
#     Edge 21, Type (0, 0), BuildingBlock: EZIPEK_clean_linker_0, # of connection points: 2
#     Edge 22, Type (0, 0), BuildingBlock: EZIPEK_clean_linker_0, # of connection points: 2
#     Edge 23, Type (0, 0), BuildingBlock: EZIPEK_clean_linker_0, # of connection points: 2
#     Edge 24, Type (0, 0), BuildingBlock: EZIPEK_clean_linker_0, # of connection points: 2
#     Edge 25, Type (0, 0), BuildingBlock: EZIPEK_clean_linker_0, # of connection points: 2
#     Edge 26, Type (0, 0), BuildingBlock: EZIPEK_clean_linker_0, # of connection points: 2
#     Edge 27, Type (0, 0), BuildingBlock: EZIPEK_clean_linker_0, # of connection points: 2
#     Edge 28, Type (0, 0), BuildingBlock: EZIPEK_clean_linker_0, # of connection points: 2
#     Edge 29, Type (0, 0), BuildingBlock: EZIPEK_clean_linker_0, # of connection points: 2
#     Edge 30, Type (0, 0), BuildingBlock: EZIPEK_clean_linker_0, # of connection points: 2
#     Edge 31, Type (0, 0), BuildingBlock: EZIPEK_clean_linker_0, # of connection points: 2
#     Edge 32, Type (0, 0), BuildingBlock: EZIPEK_clean_linker_0, # of connection points: 2
#     Edge 33, Type (0, 0), BuildingBlock: EZIPEK_clean_linker_0, # of connection points: 2
#     Edge 34, Type (0, 0), BuildingBlock: EZIPEK_clean_linker_0, # of connection points: 2
#     Edge 35, Type (0, 0), BuildingBlock: EZIPEK_clean_linker_0, # of connection points: 2
# Relax obj value: 0.490
# Max RMSD: 0.324
# Mean RMSD: 0.250
data_MOF--net-acs-a--node1-ICAMEG_clean_sbu_1--edge1-EZIPEK_clean_linker_0
_symmetry_space_group_name_H-M    P1
_symmetry_Int_Tables_number       1
_symmetry_cell_setting            triclinic
loop_
_symmetry_equiv_pos_as_xyz
'x, y, z'
_cell_length_a     40.249414
_cell_length_b     33.113854
_cell_length_c     33.192469
_cell_angle_alpha  89.93082
_cell_angle_beta   89.977591
_cell_angle_gamma 114.16389
loop_
_atom_site_label
_atom_site_type_symbol
_atom_site_fract_x
_atom_site_fract_y
_atom_site_fract_z
_atom_type_partial_charge
Co0 Co 0.61691 0.20405 0.1135 0.0
Co1 Co 0.58847 0.1502 0.02255 0.0
O2 O 0.58795 0.15126 0.08192 0.0
C3 C 0.61578 0.12565 0.16121 0.0
O4 O 0.60328 0.09898 0.13042 0.0
C5 C 0.50877 0.11028 0.04338 0.0
O6 O 0.51388 0.1421 0.06935 0.0
O7 O 0.57607 0.20329 0.01991 0.0
O8 O 0.60763 0.24186 0.07311 0.0
H9 H 0.62579 0.2114 0.88276 0.0
H10 H 0.55094 0.12999 0.14507 0.0
O11 O 0.62556 0.16732 0.15748 0.0
H12 H 0.53332 0.26466 0.17812 0.0
H13 H 0.66239 0.29908 0.23772 0.0
H14 H 0.66869 0.29405 0.08984 0.0
H15 H 0.58716 0.26938 0.1399 0.0
H16 H 0.62802 0.22928 0.20138 0.0
O17 O 0.5351 0.10978 0.02242 0.0
H18 H 0.62655 0.21373 0.95686 0.0
H19 H 0.55069 0.07956 0.96204 0.0
H20 H 0.70308 0.36358 0.12501 0.0
H21 H 0.49657 0.12343 0.1833 0.0
H22 H 0.70009 0.36666 0.19991 0.0
H23 H 0.48752 0.19129 0.2003 0.0
O24 O 0.66235 0.20931 0.08428 0.0
H25 H 0.57044 0.99765 0.06789 0.0
H26 H 0.64506 0.12612 0.98436 0.0
H27 H 0.65997 0.06104 0.98676 0.0
H28 H 0.6224 0.99606 0.02856 0.0
H29 H 0.55692 0.06377 0.06531 0.0
H30 H 0.54894 0.07562 0.88805 0.0
H31 H 0.58664 0.14187 0.84774 0.0
O32 O 0.64244 0.19012 0.02099 0.0
C33 C 0.58816 0.23787 0.0421 0.0
C34 C 0.60894 0.18242 0.89994 0.0
C35 C 0.56581 0.10627 0.9029 0.0
N36 N 0.58794 0.14748 0.96399 0.0
C37 C 0.60911 0.18374 0.94199 0.0
C38 C 0.56671 0.10887 0.94491 0.0
C39 C 0.58701 0.14341 0.88032 0.0
C40 C 0.54764 0.15953 0.15305 0.0
N41 N 0.57309 0.19993 0.14158 0.0
C42 C 0.51656 0.15569 0.17436 0.0
C43 C 0.51145 0.19372 0.18377 0.0
C44 C 0.53715 0.23486 0.17139 0.0
C45 C 0.56773 0.2373 0.14985 0.0
C46 C 0.66394 0.29794 0.20532 0.0
C47 C 0.66673 0.29485 0.12228 0.0
C48 C 0.64479 0.25849 0.18453 0.0
N49 N 0.64608 0.25739 0.14339 0.0
C50 C 0.68651 0.33455 0.14215 0.0
C51 C 0.685 0.3361 0.18399 0.0
C52 C 0.66824 0.20745 0.04655 0.0
C53 C 0.58703 0.02576 0.04957 0.0
C54 C 0.62888 0.0983 0.00312 0.0
C55 C 0.63733 0.06139 0.00413 0.0
C56 C 0.61621 0.02491 0.02754 0.0
N57 N 0.60027 0.09896 0.02491 0.0
C58 C 0.57942 0.06327 0.04787 0.0
Co59 Co 0.35001 0.50276 0.62785 0.0
Co60 Co 0.37844 0.50713 0.52875 0.0
O61 O 0.37244 0.48269 0.58378 0.0
C62 C 0.4085 0.48019 0.66837 0.0
O63 O 0.41792 0.46683 0.63486 0.0
C64 C 0.36688 0.41135 0.51986 0.0
O65 O 0.34268 0.39656 0.54867 0.0
O66 O 0.32393 0.49188 0.52544 0.0
O67 O 0.31403 0.50786 0.58919 0.0
H68 H 0.36919 0.6074 0.41883 0.0
H69 H 0.35398 0.41458 0.6238 0.0
O70 O 0.38491 0.4968 0.66878 0.0
H71 H 0.22818 0.38173 0.66495 0.0
H72 H 0.30286 0.50159 0.76905 0.0
H73 H 0.31566 0.56726 0.63345 0.0
H74 H 0.27136 0.45822 0.65208 0.0
H75 H 0.33594 0.48162 0.71602 0.0
O76 O 0.37424 0.44937 0.50471 0.0
H77 H 0.35987 0.57513 0.48673 0.0
H78 H 0.4145 0.49433 0.45364 0.0
H79 H 0.27893 0.58417 0.68477 0.0
H80 H 0.31151 0.33743 0.63549 0.0
H81 H 0.27308 0.55223 0.75331 0.0
H82 H 0.24799 0.32038 0.65663 0.0
O83 O 0.38403 0.56657 0.61716 0.0
H84 H 0.49174 0.48463 0.56323 0.0
H85 H 0.44423 0.58954 0.50987 0.0
H86 H 0.51051 0.61224 0.51447 0.0
H87 H 0.53478 0.55948 0.54096 0.0
H88 H 0.42592 0.46375 0.55879 0.0
H89 H 0.42371 0.52502 0.38517 0.0
H90 H 0.40111 0.58213 0.3672 0.0
O91 O 0.38526 0.56531 0.54969 0.0
C92 C 0.3043 0.50008 0.5524 0.0
C93 C 0.37878 0.58212 0.42609 0.0
C94 C 0.40923 0.5358 0.40718 0.0
N95 N 0.3851 0.53137 0.47419 0.0
C96 C 0.37344 0.56355 0.46462 0.0
C97 C 0.40337 0.518 0.44604 0.0
C98 C 0.39668 0.56796 0.39716 0.0
C99 C 0.32663 0.40783 0.63293 0.0
N100 N 0.31591 0.44157 0.63798 0.0
C101 C 0.30254 0.36383 0.63951 0.0
C102 C 0.26695 0.35428 0.65137 0.0
C103 C 0.25588 0.38866 0.65613 0.0
C104 C 0.28073 0.43217 0.649 0.0
C105 C 0.30544 0.51602 0.73931 0.0
C106 C 0.31279 0.55246 0.66297 0.0
C107 C 0.32486 0.50554 0.7092 0.0
N108 N 0.3279 0.52314 0.67128 0.0
C109 C 0.29222 0.56257 0.69203 0.0
C110 C 0.28867 0.54434 0.73046 0.0
C111 C 0.39118 0.58596 0.58281 0.0
C112 C 0.4816 0.5078 0.55122 0.0
C113 C 0.45443 0.56628 0.52146 0.0
C114 C 0.49208 0.57939 0.52398 0.0
C115 C 0.50569 0.54981 0.53882 0.0
N116 N 0.43087 0.52471 0.53311 0.0
C117 C 0.44416 0.49593 0.54832 0.0
Co118 Co 0.87138 0.40804 0.00489 0.0
Co119 Co 0.83746 0.36758 0.10013 0.0
O120 O 0.8778 0.4003 0.06314 0.0
C121 C 0.9444 0.39855 0.01184 0.0
O122 O 0.94068 0.39452 0.05103 0.0
C123 C 0.87897 0.44583 0.15914 0.0
O124 O 0.89039 0.47957 0.13418 0.0
O125 O 0.81142 0.40637 0.08341 0.0
O126 O 0.82765 0.41989 0.01786 0.0
H127 H 0.71204 0.25586 0.13031 0.0
H128 H 0.9357 0.46504 0.05643 0.0
O129 O 0.91808 0.39937 0.9902 0.0
H130 H 0.90112 0.56921 0.97994 0.0
H131 H 0.91096 0.4538 0.86063 0.0
H132 H 0.80681 0.38961 0.95285 0.0
H133 H 0.86682 0.48914 0.97161 0.0
H134 H 0.92044 0.44391 0.93202 0.0
O135 O 0.8609 0.40665 0.1468 0.0
H136 H 0.75661 0.31802 0.09185 0.0
H137 H 0.83315 0.34082 0.18683 0.0
H138 H 0.79573 0.3992 0.88161 0.0
H139 H 0.97034 0.5446 0.06568 0.0
H140 H 0.84811 0.43153 0.83461 0.0
H141 H 0.95355 0.59767 0.02703 0.0
O142 O 0.83844 0.34216 0.99718 0.0
H143 H 0.94688 0.34183 0.14321 0.0
H144 H 0.81634 0.27029 0.10989 0.0
H145 H 0.84907 0.22399 0.12738 0.0
H146 H 0.91492 0.25981 0.14424 0.0
H147 H 0.91302 0.38666 0.12494 0.0
H148 H 0.78676 0.28471 0.2284 0.0
H149 H 0.72613 0.23967 0.19899 0.0
O150 O 0.81167 0.32537 0.05748 0.0
C151 C 0.80924 0.42227 0.04841 0.0
C152 C 0.73773 0.2764 0.14364 0.0
C153 C 0.77988 0.29207 0.19856 0.0
N154 N 0.79787 0.33346 0.13667 0.0
C155 C 0.76351 0.3112 0.12181 0.0
C156 C 0.80586 0.32481 0.17503 0.0
C157 C 0.74586 0.26699 0.18225 0.0
C158 C 0.92827 0.48723 0.03874 0.0
N159 N 0.90034 0.47158 0.01149 0.0
C160 C 0.94802 0.53264 0.04442 0.0
C161 C 0.93856 0.5624 0.02281 0.0
C162 C 0.90927 0.54645 0.99628 0.0
C163 C 0.8902 0.50083 0.99131 0.0
C164 C 0.88785 0.43958 0.88073 0.0
C165 C 0.82974 0.40375 0.93305 0.0
C166 C 0.89314 0.43368 0.92154 0.0
N167 N 0.8643 0.41594 0.94743 0.0
C168 C 0.8233 0.40908 0.89247 0.0
C169 C 0.85264 0.42716 0.86615 0.0
C170 C 0.8136 0.3161 0.02094 0.0
C171 C 0.91828 0.32578 0.13559 0.0
C172 C 0.84511 0.28599 0.11617 0.0
C173 C 0.86344 0.25966 0.12658 0.0
C174 C 0.90034 0.27978 0.13615 0.0
N175 N 0.86297 0.33104 0.11505 0.0
C176 C 0.89898 0.35099 0.12513 0.0
Co177 Co 0.39966 0.80385 0.61505 0.0
Co178 Co 0.42637 0.8469 0.5197 0.0
O179 O 0.42734 0.85285 0.57887 0.0
C180 C 0.40149 0.8852 0.6593 0.0
O181 O 0.41893 0.91365 0.63099 0.0
C182 C 0.50661 0.88798 0.53775 0.0
O183 O 0.50183 0.85858 0.5662 0.0
O184 O 0.4388 0.79365 0.52333 0.0
O185 O 0.41058 0.7626 0.58089 0.0
H186 H 0.38977 0.76915 0.38625 0.0
H187 H 0.46599 0.88406 0.64 0.0
O188 O 0.38885 0.84365 0.65291 0.0
H189 H 0.48537 0.75633 0.69245 0.0
H190 H 0.34903 0.72973 0.74792 0.0
H191 H 0.35056 0.70979 0.60089 0.0
H192 H 0.43099 0.74501 0.65233 0.0
H193 H 0.38826 0.79116 0.70464 0.0
O194 O 0.47973 0.88742 0.51716 0.0
H195 H 0.3895 0.77544 0.46014 0.0
H196 H 0.46245 0.91075 0.45328 0.0
H197 H 0.31253 0.64727 0.64319 0.0
H198 H 0.52051 0.89676 0.67997 0.0
H199 H 0.31033 0.65739 0.71722 0.0
H200 H 0.53061 0.83266 0.7068 0.0
O201 O 0.35355 0.7924 0.5842 0.0
H202 H 0.44084 1.00088 0.55441 0.0
H203 H 0.37048 0.86712 0.47521 0.0
H204 H 0.35412 0.93111 0.47198 0.0
H205 H 0.38944 0.99863 0.51177 0.0
H206 H 0.45633 0.93615 0.55672 0.0
H207 H 0.46379 0.90609 0.37934 0.0
H208 H 0.42727 0.8349 0.34523 0.0
O209 O 0.37243 0.807 0.52003 0.0
C210 C 0.42861 0.76262 0.54966 0.0
C211 C 0.40603 0.80029 0.40073 0.0
C212 C 0.44757 0.8771 0.39687 0.0
N213 N 0.42646 0.84293 0.46127 0.0
C214 C 0.40606 0.80389 0.44265 0.0
C215 C 0.44688 0.87941 0.43885 0.0
C216 C 0.42704 0.83718 0.37775 0.0
C217 C 0.46936 0.85588 0.65215 0.0
N218 N 0.44404 0.81386 0.64514 0.0
C219 C 0.50072 0.86333 0.67451 0.0
C220 C 0.50642 0.82738 0.68945 0.0
C221 C 0.48104 0.78459 0.68147 0.0
C222 C 0.45008 0.77844 0.65886 0.0
C223 C 0.34936 0.72512 0.71569 0.0
C224 C 0.35113 0.7142 0.63317 0.0
C225 C 0.3713 0.75993 0.69091 0.0
N226 N 0.37149 0.75447 0.65006 0.0
C227 C 0.32911 0.67862 0.65703 0.0
C228 C 0.32776 0.68446 0.69847 0.0
C229 C 0.34706 0.79128 0.54634 0.0
C230 C 0.42526 0.97165 0.53693 0.0
C231 C 0.38593 0.89631 0.49272 0.0
C232 C 0.37658 0.93249 0.49069 0.0
C233 C 0.3964 0.97036 0.51301 0.0
N234 N 0.41431 0.89785 0.51621 0.0
C235 C 0.43396 0.93494 0.53803 0.0
Co236 Co 0.67069 0.49986 0.11085 0.0
Co237 Co 0.63425 0.49497 0.01487 0.0
O238 O 0.64252 0.51652 0.07096 0.0
C239 C 0.61597 0.46682 0.17717 0.0
O240 O 0.60448 0.42619 0.16363 0.0
C241 C 0.64475 0.59101 0.00946 0.0
O242 O 0.65377 0.59721 0.04755 0.0
O243 O 0.68792 0.5063 0.00662 0.0
O244 O 0.70594 0.50108 0.06944 0.0
H245 H 0.63901 0.39988 0.8987 0.0
H246 H 0.65113 0.57519 0.12841 0.0
O247 O 0.63682 0.49931 0.15577 0.0
H248 H 0.78534 0.63913 0.12818 0.0
H249 H 0.74605 0.52292 0.23658 0.0
H250 H 0.70695 0.43807 0.11048 0.0
H251 H 0.74997 0.55922 0.11733 0.0
H252 H 0.69915 0.53109 0.19376 0.0
O253 O 0.64213 0.55517 0.99262 0.0
H254 H 0.65061 0.42888 0.96794 0.0
H255 H 0.59506 0.51096 0.94416 0.0
H256 H 0.7546 0.42984 0.1519 0.0
H257 H 0.68521 0.65505 0.14069 0.0
H258 H 0.77526 0.47352 0.21473 0.0
H259 H 0.75286 0.68766 0.14024 0.0
O260 O 0.64161 0.43459 0.09872 0.0
H261 H 0.5262 0.52166 0.06536 0.0
H262 H 0.56547 0.41781 0.99478 0.0
H263 H 0.50012 0.39779 0.00533 0.0
H264 H 0.48006 0.4499 0.0409 0.0
H265 H 0.59095 0.53978 0.05545 0.0
H266 H 0.58332 0.48357 0.87447 0.0
H267 H 0.60527 0.42746 0.85124 0.0
O268 O 0.62466 0.43515 0.03406 0.0
C269 C 0.71143 0.50395 0.03182 0.0
C270 C 0.62964 0.42467 0.90827 0.0
C271 C 0.59847 0.47169 0.89466 0.0
N272 N 0.62475 0.47274 0.95988 0.0
C273 C 0.6363 0.44134 0.94747 0.0
C274 C 0.60565 0.48755 0.93409 0.0
C275 C 0.6107 0.44014 0.88169 0.0
C276 C 0.68056 0.58904 0.12835 0.0
N277 N 0.69859 0.56267 0.12101 0.0
C278 C 0.69971 0.63434 0.13524 0.0
C279 C 0.73765 0.65263 0.1349 0.0
C280 C 0.75588 0.62547 0.12798 0.0
C281 C 0.73577 0.58035 0.12114 0.0
C282 C 0.7375 0.50402 0.20904 0.0
C283 C 0.71495 0.45616 0.13844 0.0
C284 C 0.71068 0.50817 0.18483 0.0
N285 N 0.70022 0.48503 0.14957 0.0
C286 C 0.74215 0.4516 0.16163 0.0
C287 C 0.7537 0.47606 0.19692 0.0
C288 C 0.62627 0.41505 0.06602 0.0
C289 C 0.5346 0.49892 0.04938 0.0
C290 C 0.55713 0.44112 0.00974 0.0
C291 C 0.51998 0.42941 0.0158 0.0
C292 C 0.50872 0.45863 0.0357 0.0
N293 N 0.58254 0.4811 0.02265 0.0
C294 C 0.57151 0.50939 0.04299 0.0
Co295 Co 0.14106 0.59052 0.51761 0.0
Co296 Co 0.17578 0.63975 0.60938 0.0
O297 O 0.1353 0.6047 0.57414 0.0
C298 C 0.08052 0.62372 0.51518 0.0
O299 O 0.09735 0.65479 0.54165 0.0
C300 C 0.13497 0.56548 0.67182 0.0
O301 O 0.12536 0.53068 0.64834 0.0
O302 O 0.20174 0.59978 0.59689 0.0
O303 O 0.18396 0.57796 0.53299 0.0
H304 H 0.30296 0.74939 0.63538 0.0
H305 H 0.07006 0.54602 0.56015 0.0
O306 O 0.0961 0.60001 0.50115 0.0
H307 H 0.10522 0.42592 0.51908 0.0
H308 H 0.0931 0.52139 0.38271 0.0
H309 H 0.20301 0.60253 0.46315 0.0
H310 H 0.14457 0.50357 0.5028 0.0
H311 H 0.088 0.54144 0.45305 0.0
O312 O 0.15219 0.60438 0.65816 0.0
H313 H 0.25645 0.68684 0.59942 0.0
H314 H 0.18071 0.67421 0.69322 0.0
H315 H 0.20957 0.58279 0.39303 0.0
H316 H 0.02971 0.46883 0.57654 0.0
H317 H 0.15423 0.54199 0.35213 0.0
H318 H 0.0472 0.40808 0.556 0.0
O319 O 0.17611 0.65444 0.50407 0.0
H320 H 0.06713 0.66969 0.64729 0.0
H321 H 0.19732 0.73762 0.61146 0.0
H322 H 0.16506 0.78552 0.6245 0.0
H323 H 0.09944 0.75153 0.64276 0.0
H324 H 0.10039 0.62314 0.63297 0.0
H325 H 0.22855 0.7314 0.73237 0.0
H326 H 0.29019 0.76923 0.70352 0.0
O327 O 0.20137 0.67817 0.56423 0.0
C328 C 0.20332 0.57984 0.56402 0.0
C329 C 0.27687 0.73105 0.64914 0.0
C330 C 0.23492 0.72134 0.70348 0.0
N331 N 0.21564 0.67631 0.64407 0.0
C332 C 0.25006 0.69612 0.62867 0.0
C333 C 0.20808 0.68827 0.68131 0.0
C334 C 0.26945 0.74295 0.6871 0.0
C335 C 0.07773 0.51984 0.55068 0.0
N336 N 0.10945 0.52939 0.53004 0.0
C337 C 0.05482 0.47615 0.56025 0.0
C338 C 0.06468 0.44209 0.54877 0.0
C339 C 0.09722 0.45208 0.52805 0.0
C340 C 0.11942 0.49615 0.51896 0.0
C341 C 0.11744 0.53954 0.40006 0.0
C342 C 0.17896 0.58521 0.44558 0.0
C343 C 0.11475 0.55142 0.4399 0.0
N344 N 0.14536 0.57437 0.4621 0.0
C345 C 0.18276 0.57391 0.40586 0.0
C346 C 0.15172 0.55102 0.38295 0.0
C347 C 0.20037 0.68317 0.52661 0.0
C348 C 0.09567 0.68491 0.63918 0.0
C349 C 0.16863 0.72263 0.61833 0.0
C350 C 0.15057 0.7499 0.62621 0.0
C351 C 0.11379 0.73081 0.63657 0.0
N352 N 0.15061 0.67764 0.62049 0.0
C353 C 0.11466 0.65873 0.63108 0.0
Co354 Co 0.82054 0.45111 0.39366 0.0
Co355 Co 0.86403 0.45923 0.48511 0.0
O356 O 0.86525 0.47089 0.42621 0.0
C357 C 0.87504 0.4407 0.33374 0.0
O358 O 0.90085 0.44568 0.3599 0.0
C359 C 0.92594 0.55135 0.4732 0.0
O360 O 0.91037 0.56072 0.44201 0.0
O361 O 0.82779 0.48736 0.49487 0.0
O362 O 0.79483 0.46448 0.43857 0.0
H363 H 0.80526 0.40008 0.61909 0.0
H364 H 0.89017 0.52227 0.3658 0.0
O365 O 0.84433 0.43893 0.34522 0.0
H366 H 0.79869 0.58469 0.35194 0.0
H367 H 0.74237 0.42677 0.26881 0.0
H368 H 0.74261 0.40534 0.41543 0.0
H369 H 0.78132 0.50941 0.37863 0.0
H370 H 0.80045 0.45343 0.30577 0.0
O371 O 0.9086 0.51667 0.49413 0.0
H372 H 0.80637 0.41445 0.5463 0.0
H373 H 0.92187 0.47663 0.54787 0.0
H374 H 0.68537 0.3871 0.38082 0.0
H375 H 0.9087 0.5976 0.33889 0.0
H376 H 0.68415 0.39405 0.30637 0.0
H377 H 0.86282 0.62945 0.3318 0.0
O378 O 0.8056 0.38873 0.41377 0.0
H379 H 0.9736 0.44456 0.42531 0.0
H380 H 0.86588 0.37428 0.51251 0.0
H381 H 0.90663 0.33665 0.50095 0.0
H382 H 0.96113 0.37193 0.45732 0.0
H383 H 0.93178 0.48057 0.43706 0.0
H384 H 0.92203 0.46325 0.62066 0.0
H385 H 0.86345 0.42471 0.65694 0.0
O386 O 0.82188 0.40047 0.47882 0.0
C387 C 0.79914 0.48054 0.47367 0.0
C388 C 0.83097 0.41741 0.60376 0.0
C389 C 0.89646 0.45288 0.60464 0.0
N390 N 0.86393 0.44789 0.54277 0.0
C391 C 0.83171 0.42595 0.56248 0.0
C392 C 0.89612 0.46083 0.56334 0.0
C393 C 0.8636 0.43117 0.62496 0.0
C394 C 0.86995 0.53564 0.36276 0.0
N395 N 0.83466 0.5112 0.37389 0.0
C396 C 0.88066 0.57847 0.34753 0.0
C397 C 0.85493 0.59631 0.34359 0.0
C398 C 0.81897 0.57124 0.35491 0.0
C399 C 0.80931 0.52858 0.37012 0.0
C400 C 0.74249 0.42305 0.3011 0.0
C401 C 0.74321 0.41195 0.38352 0.0
C402 C 0.77532 0.43706 0.32223 0.0
N403 N 0.77542 0.43098 0.36304 0.0
C404 C 0.71019 0.40015 0.36372 0.0
C405 C 0.70976 0.40471 0.32214 0.0
C406 C 0.80479 0.37511 0.45004 0.0
C407 C 0.95009 0.42897 0.44462 0.0
C408 C 0.88947 0.38992 0.49341 0.0
C409 C 0.91248 0.36841 0.48701 0.0
C410 C 0.94305 0.3882 0.46253 0.0
N411 N 0.8967 0.43013 0.47602 0.0
C412 C 0.92641 0.44943 0.45163 0.0
Co413 Co 0.34229 0.84396 0.89637 0.0
Co414 Co 0.39588 0.86336 0.98173 0.0
O415 O 0.38145 0.88321 0.9314 0.0
C416 C 0.39898 0.88156 0.83127 0.0
O417 O 0.42326 0.87318 0.85192 0.0
C418 C 0.38919 0.94853 0.00417 0.0
O419 O 0.3586 0.93727 0.98414 0.0
O420 O 0.34373 0.83285 0.00145 0.0
O421 O 0.31386 0.81035 0.94334 0.0
H422 H 0.4408 0.77007 0.07032 0.0
H423 H 0.36858 0.94071 0.88599 0.0
O424 O 0.36844 0.8756 0.84681 0.0
H425 H 0.23794 0.88878 0.91752 0.0
H426 H 0.25104 0.81381 0.78462 0.0
H427 H 0.29278 0.74811 0.89642 0.0
H428 H 0.26663 0.83596 0.91149 0.0
H429 H 0.30559 0.85896 0.82345 0.0
O430 O 0.40401 0.92141 0.00826 0.0
H431 H 0.42361 0.79272 0.00713 0.0
H432 H 0.39184 0.88371 0.06879 0.0
H433 H 0.23689 0.70225 0.85948 0.0
H434 H 0.3411 0.99492 0.89062 0.0
H435 H 0.2155 0.73566 0.8035 0.0
H436 H 0.27534 0.96904 0.90693 0.0
O437 O 0.36646 0.80107 0.89294 0.0
H438 H 0.50658 0.99197 0.9298 0.0
H439 H 0.45672 0.83312 0.96115 0.0
H440 H 0.51953 0.87012 0.93879 0.0
H441 H 0.54553 0.95047 0.92322 0.0
H442 H 0.4435 0.9536 0.95224 0.0
H443 H 0.40921 0.86189 0.13276 0.0
H444 H 0.43424 0.80479 0.13426 0.0
O445 O 0.39018 0.8074 0.95521 0.0
C446 C 0.31543 0.80823 0.98141 0.0
C447 C 0.43126 0.79625 0.06999 0.0
C448 C 0.41358 0.84769 0.10497 0.0
N449 N 0.41025 0.84372 0.03236 0.0
C450 C 0.42205 0.81028 0.0336 0.0
C451 C 0.4046 0.86084 0.06803 0.0
C452 C 0.4274 0.81552 0.10584 0.0
C453 C 0.34004 0.92934 0.89337 0.0
N454 N 0.31952 0.88544 0.90027 0.0
C455 C 0.32459 0.96012 0.89581 0.0
C456 C 0.28771 0.94559 0.90497 0.0
C457 C 0.26675 0.90061 0.91108 0.0
C458 C 0.2832 0.87088 0.90836 0.0
C459 C 0.26015 0.79902 0.80892 0.0
C460 C 0.28406 0.76244 0.87157 0.0
C461 C 0.29128 0.82429 0.83083 0.0
N462 N 0.30282 0.80603 0.86192 0.0
C463 C 0.25235 0.73634 0.85078 0.0
C464 C 0.24035 0.75495 0.81939 0.0
C465 C 0.38292 0.78915 0.92065 0.0
C466 C 0.49602 0.95725 0.93781 0.0
C467 C 0.46738 0.86817 0.95662 0.0
C468 C 0.50327 0.88898 0.9429 0.0
C469 C 0.51779 0.93396 0.93395 0.0
N470 N 0.44644 0.89153 0.96238 0.0
C471 C 0.46024 0.93529 0.95148 0.0
Co472 Co 0.57607 0.42714 0.48997 0.0
Co473 Co 0.5905 0.39117 0.39591 0.0
O474 O 0.5714 0.42429 0.43072 0.0
C475 C 0.49517 0.38606 0.47713 0.0
O476 O 0.49957 0.36016 0.44969 0.0
C477 C 0.61098 0.47727 0.34746 0.0
O478 O 0.60609 0.50177 0.37594 0.0
O479 O 0.64007 0.41947 0.42318 0.0
O480 O 0.62949 0.44087 0.48487 0.0
H481 H 0.63522 0.273 0.36997 0.0
H482 H 0.5413 0.47922 0.44831 0.0
O483 O 0.52258 0.41391 0.49597 0.0
H484 H 0.64908 0.58936 0.51648 0.0
H485 H 0.55038 0.4714 0.6276 0.0
H486 H 0.61748 0.40116 0.55137 0.0
H487 H 0.63484 0.50967 0.52179 0.0
H488 H 0.54536 0.46524 0.55369 0.0
O489 O 0.6068 0.43776 0.35407 0.0
H490 H 0.62464 0.32789 0.41107 0.0
H491 H 0.59318 0.37799 0.30655 0.0
H492 H 0.62371 0.40692 0.62522 0.0
H493 H 0.5542 0.5585 0.44275 0.0
H494 H 0.58988 0.4422 0.66392 0.0
H495 H 0.60847 0.6142 0.47695 0.0
O496 O 0.56484 0.36183 0.49599 0.0
H497 H 0.47905 0.39399 0.32976 0.0
H498 H 0.54033 0.2991 0.37225 0.0
H499 H 0.48032 0.26536 0.33948 0.0
H500 H 0.44932 0.31296 0.31769 0.0
H501 H 0.53859 0.42617 0.36371 0.0
H502 H 0.60712 0.32623 0.26404 0.0
H503 H 0.62682 0.27169 0.29603 0.0
O504 O 0.57439 0.34255 0.43421 0.0
C505 C 0.65095 0.43721 0.458 0.0
C506 C 0.62697 0.29664 0.35569 0.0
C507 C 0.61107 0.32649 0.29632 0.0
N508 N 0.60817 0.35644 0.36158 0.0
C509 C 0.62027 0.32751 0.37895 0.0
C510 C 0.6039 0.35643 0.32062 0.0
C511 C 0.62223 0.29603 0.31416 0.0
C512 C 0.56483 0.50321 0.46352 0.0
N513 N 0.58719 0.48979 0.48552 0.0
C514 C 0.57208 0.54808 0.46011 0.0
C515 C 0.60255 0.57932 0.47928 0.0
C516 C 0.62535 0.5654 0.50145 0.0
C517 C 0.61723 0.52024 0.50423 0.0
C518 C 0.56513 0.45575 0.61113 0.0
C519 C 0.6027 0.4164 0.56793 0.0
C520 C 0.56221 0.4519 0.56926 0.0
N521 N 0.58078 0.43225 0.54819 0.0
C522 C 0.60631 0.41964 0.60979 0.0
C523 C 0.58732 0.43942 0.63148 0.0
C524 C 0.56551 0.33327 0.4705 0.0
C525 C 0.49231 0.37291 0.33901 0.0
C526 C 0.52689 0.32001 0.36338 0.0
C527 C 0.49296 0.30072 0.34458 0.0
C528 C 0.47561 0.32744 0.33232 0.0
N529 N 0.54315 0.36466 0.36989 0.0
C530 C 0.52618 0.391 0.35808 0.0
Co531 Co 0.20054 0.58234 0.89981 0.0
Co532 Co 0.15936 0.54091 0.9884 0.0
O533 O 0.15623 0.54607 0.92932 0.0
C534 C 0.13877 0.58053 0.84535 0.0
O535 O 0.11375 0.55519 0.87039 0.0
C536 C 0.09571 0.45624 0.96024 0.0
O537 O 0.11018 0.45726 0.92467 0.0
O538 O 0.19544 0.51263 0.97901 0.0
O539 O 0.2306 0.56831 0.93957 0.0
H540 H 0.22173 0.53968 0.11971 0.0
H541 H 0.14096 0.50289 0.86119 0.0
O542 O 0.1721 0.59697 0.85657 0.0
H543 H 0.25496 0.48722 0.83223 0.0
H544 H 0.27911 0.65222 0.77893 0.0
H545 H 0.27316 0.64624 0.92711 0.0
H546 H 0.2557 0.54951 0.87278 0.0
H547 H 0.22447 0.59901 0.81347 0.0
O548 O 0.11455 0.48211 0.98809 0.0
H549 H 0.21816 0.54965 0.04664 0.0
H550 H 0.10427 0.5117 0.05476 0.0
H551 H 0.32912 0.69643 0.89383 0.0
H552 H 0.13906 0.44043 0.82044 0.0
H553 H 0.33207 0.70189 0.81941 0.0
H554 H 0.19638 0.43215 0.80536 0.0
O555 O 0.20387 0.63419 0.93341 0.0
H556 H 0.05109 0.57431 0.95546 0.0
H557 H 0.15782 0.61135 0.04394 0.0
H558 H 0.11764 0.65026 0.05263 0.0
H559 H 0.06357 0.63153 0.00845 0.0
H560 H 0.09234 0.53674 0.94765 0.0
H561 H 0.10627 0.50054 0.12788 0.0
H562 H 0.16537 0.51498 0.16101 0.0
O563 O 0.20168 0.60186 0.9929 0.0
C564 C 0.22533 0.53343 0.95941 0.0
C565 C 0.19586 0.53386 0.10575 0.0
C566 C 0.1311 0.51181 0.11032 0.0
N567 N 0.1615 0.53304 0.04638 0.0
C568 C 0.19385 0.53992 0.06432 0.0
C569 C 0.1302 0.51828 0.06882 0.0
C570 C 0.16424 0.51988 0.12888 0.0
C571 C 0.16612 0.5005 0.85442 0.0
N572 N 0.19847 0.53136 0.86838 0.0
C573 C 0.16484 0.46455 0.83146 0.0
C574 C 0.19697 0.45985 0.82309 0.0
C575 C 0.22981 0.49075 0.83806 0.0
C576 C 0.23 0.52617 0.86097 0.0
C577 C 0.27807 0.6509 0.81144 0.0
C578 C 0.27433 0.64687 0.8946 0.0
C579 C 0.24694 0.62137 0.83115 0.0
N580 N 0.24499 0.62043 0.87227 0.0
C581 C 0.30626 0.67563 0.87591 0.0
C582 C 0.3078 0.67852 0.83411 0.0
C583 C 0.20981 0.63695 0.9715 0.0
C584 C 0.07425 0.58233 0.97529 0.0
C585 C 0.13428 0.60278 0.02466 0.0
C586 C 0.11164 0.62503 0.02972 0.0
C587 C 0.08134 0.61454 0.00492 0.0
N588 N 0.12682 0.57061 0.99594 0.0
C589 C 0.09752 0.56082 0.97114 0.0
Co590 Co 0.6591 0.17354 0.38977 0.0
Co591 Co 0.63055 0.13073 0.48474 0.0
O592 O 0.63573 0.12335 0.42663 0.0
C593 C 0.61888 0.10127 0.331 0.0
O594 O 0.62298 0.07118 0.35362 0.0
C595 C 0.62091 0.03799 0.47696 0.0
O596 O 0.60779 0.04004 0.44117 0.0
O597 O 0.68475 0.16871 0.4891 0.0
O598 O 0.69323 0.20752 0.43189 0.0
H599 H 0.57974 0.17386 0.60833 0.0
H600 H 0.67158 0.08952 0.40699 0.0
O601 O 0.6254 0.13974 0.34489 0.0
H602 H 0.77791 0.18321 0.32709 0.0
H603 H 0.69473 0.24935 0.25405 0.0
H604 H 0.70046 0.2726 0.40057 0.0
H605 H 0.73333 0.21083 0.34599 0.0
H606 H 0.66459 0.18726 0.29863 0.0
O607 O 0.6367 0.07404 0.49682 0.0
H608 H 0.58316 0.1603 0.53578 0.0
H609 H 0.67056 0.12246 0.55656 0.0
H610 H 0.73595 0.33356 0.35621 0.0
H611 H 0.71742 0.06292 0.3907 0.0
H612 H 0.73187 0.32365 0.28213 0.0
H613 H 0.77094 0.10874 0.34937 0.0
O614 O 0.62326 0.19833 0.40806 0.0
H615 H 0.50809 0.07142 0.41579 0.0
H616 H 0.57479 0.06303 0.53762 0.0
H617 H 0.50969 0.01503 0.53185 0.0
H618 H 0.47566 0.01899 0.47054 0.0
H619 H 0.57342 0.118 0.42234 0.0
H620 H 0.66756 0.13466 0.62956 0.0
H621 H 0.62193 0.16065 0.65584 0.0
O622 O 0.62203 0.18495 0.47471 0.0
C623 C 0.70366 0.20144 0.46639 0.0
C624 C 0.59962 0.16231 0.59728 0.0
C625 C 0.64884 0.14019 0.60921 0.0
N626 N 0.62662 0.13973 0.54204 0.0
C627 C 0.60178 0.1547 0.55619 0.0
C628 C 0.65023 0.133 0.56791 0.0
C629 C 0.62328 0.15487 0.62392 0.0
C630 C 0.69378 0.11072 0.38862 0.0
N631 N 0.69613 0.15083 0.3743 0.0
C632 C 0.72025 0.09494 0.37965 0.0
C633 C 0.75024 0.12057 0.35654 0.0
C634 C 0.75393 0.16208 0.34374 0.0
C635 C 0.72721 0.1771 0.35373 0.0
C636 C 0.6964 0.25455 0.2862 0.0
C637 C 0.69967 0.26621 0.36867 0.0
C638 C 0.67836 0.21917 0.31217 0.0
N639 N 0.68056 0.22467 0.35323 0.0
C640 C 0.71915 0.30186 0.34349 0.0
C641 C 0.71723 0.2961 0.30198 0.0
C642 C 0.61507 0.20396 0.44449 0.0
C643 C 0.52246 0.06977 0.44287 0.0
C644 C 0.56029 0.06574 0.51113 0.0
C645 C 0.52331 0.03814 0.50795 0.0
C646 C 0.50428 0.04032 0.47358 0.0
N647 N 0.57808 0.09484 0.48096 0.0
C648 C 0.55954 0.09664 0.447 0.0
Co649 Co 0.44295 0.57692 0.95652 0.0
Co650 Co 0.42584 0.58342 0.85502 0.0
O651 O 0.45067 0.56861 0.89963 0.0
C652 C 0.52463 0.62026 0.94815 0.0
O653 O 0.52125 0.64143 0.91603 0.0
C654 C 0.43303 0.49918 0.82852 0.0
O655 O 0.45078 0.4961 0.86064 0.0
O656 O 0.37637 0.55022 0.88104 0.0
O657 O 0.38954 0.55809 0.94713 0.0
H658 H 0.34401 0.64402 0.78632 0.0
H659 H 0.48266 0.52158 0.93511 0.0
O660 O 0.49653 0.59496 0.96768 0.0
H661 H 0.37342 0.4221 0.00894 0.0
H662 H 0.46544 0.56934 0.10505 0.0
H663 H 0.39451 0.60801 0.00293 0.0
H664 H 0.38518 0.50051 0.99843 0.0
H665 H 0.47436 0.55996 0.0329 0.0
O666 O 0.42061 0.5287 0.82516 0.0
H667 H 0.37024 0.6216 0.84539 0.0
H668 H 0.43006 0.57499 0.76643 0.0
H669 H 0.38437 0.61735 0.07476 0.0
H670 H 0.47193 0.44345 0.94493 0.0
H671 H 0.42013 0.59817 0.12651 0.0
H672 H 0.41694 0.39306 0.98202 0.0
O673 O 0.45077 0.64039 0.94633 0.0
H674 H 0.55418 0.61189 0.81284 0.0
H675 H 0.45895 0.66907 0.8104 0.0
H676 H 0.51778 0.71174 0.77767 0.0
H677 H 0.56597 0.68307 0.77842 0.0
H678 H 0.49515 0.57102 0.84579 0.0
H679 H 0.40423 0.59647 0.70768 0.0
H680 H 0.36201 0.63248 0.71737 0.0
O681 O 0.43055 0.63905 0.88286 0.0
C682 C 0.36669 0.54622 0.91819 0.0
C683 C 0.36285 0.62887 0.78214 0.0
C684 C 0.39654 0.60202 0.73774 0.0
N685 N 0.40182 0.59719 0.80957 0.0
C686 C 0.37766 0.61595 0.81528 0.0
C687 C 0.41064 0.58933 0.77133 0.0
C688 C 0.37282 0.62234 0.74329 0.0
C689 C 0.45876 0.49999 0.95148 0.0
N690 N 0.43453 0.51564 0.96603 0.0
C691 C 0.45274 0.45569 0.95679 0.0
C692 C 0.42186 0.42743 0.97755 0.0
C693 C 0.39744 0.44371 0.99266 0.0
C694 C 0.40422 0.48814 0.98653 0.0
C695 C 0.44991 0.57819 0.08281 0.0
C696 C 0.41024 0.59967 0.0251 0.0
C697 C 0.45507 0.57333 0.04178 0.0
N698 N 0.43558 0.58443 0.01344 0.0
C699 C 0.40436 0.60501 0.06583 0.0
C700 C 0.42443 0.59426 0.09483 0.0
C701 C 0.44207 0.65878 0.91643 0.0
C702 C 0.53336 0.62464 0.81203 0.0
C703 C 0.47968 0.6563 0.81116 0.0
C704 C 0.513 0.68066 0.79239 0.0
C705 C 0.53999 0.66459 0.7928 0.0
N706 N 0.47308 0.61679 0.82966 0.0
C707 C 0.49964 0.60126 0.83045 0.0
C708 C 0.64817 0.10528 0.26354 0.0
C709 C 0.61595 0.0954 0.28651 0.0
C710 C 0.582 0.08766 0.22374 0.0
C711 C 0.61542 0.10764 0.20227 0.0
N712 N 0.68094 0.13688 0.20199 0.0
N713 N 0.55177 0.0778 0.28864 0.0
C714 C 0.64872 0.11666 0.22223 0.0
C715 C 0.58261 0.08647 0.26662 0.0
N716 N 0.67807 0.10325 0.28104 0.0
N717 N 0.54985 0.06917 0.20331 0.0
H718 H 0.55114 0.07475 0.31998 0.0
H719 H 0.52755 0.07615 0.27604 0.0
H720 H 0.54867 0.06662 0.17204 0.0
H721 H 0.5249 0.05162 0.21735 0.0
H722 H 0.70154 0.1072 0.26517 0.0
H723 H 0.67753 0.09197 0.31033 0.0
H724 H 0.70618 0.14939 0.2163 0.0
H725 H 0.68228 0.14337 0.17111 0.0
C726 C 0.45627 0.49955 0.72256 0.0
C727 C 0.42162 0.47129 0.70768 0.0
C728 C 0.40075 0.44477 0.77566 0.0
C729 C 0.43394 0.47618 0.79087 0.0
N730 N 0.49786 0.51771 0.77939 0.0
N731 N 0.36918 0.40297 0.71735 0.0
C732 C 0.46344 0.49804 0.76433 0.0
C733 C 0.39642 0.43916 0.73344 0.0
N734 N 0.48134 0.52918 0.69746 0.0
N735 N 0.37298 0.42207 0.80152 0.0
H736 H 0.36911 0.39609 0.68678 0.0
H737 H 0.35067 0.37727 0.73457 0.0
H738 H 0.37647 0.42461 0.83275 0.0
H739 H 0.34662 0.40241 0.79195 0.0
H740 H 0.50557 0.554 0.70764 0.0
H741 H 0.47695 0.52994 0.66653 0.0
H742 H 0.52092 0.53234 0.76137 0.0
H743 H 0.50321 0.51473 0.80975 0.0
C744 C 0.91307 0.47209 0.22565 0.0
C745 C 0.88006 0.45134 0.20384 0.0
C746 C 0.84932 0.4153 0.26566 0.0
C747 C 0.88041 0.44063 0.28902 0.0
N748 N 0.94028 0.50173 0.2901 0.0
N749 N 0.81444 0.41647 0.20713 0.0
C750 C 0.91207 0.47145 0.26883 0.0
C751 C 0.84744 0.4273 0.22524 0.0
N752 N 0.94534 0.49144 0.20552 0.0
N753 N 0.82166 0.37916 0.28182 0.0
H754 H 0.81203 0.42666 0.17792 0.0
H755 H 0.78984 0.40161 0.22267 0.0
H756 H 0.82314 0.36718 0.31057 0.0
H757 H 0.79937 0.35847 0.26494 0.0
H758 H 0.97049 0.50291 0.22003 0.0
H759 H 0.94696 0.49296 0.17416 0.0
H760 H 0.96198 0.52739 0.27629 0.0
H761 H 0.94061 0.50413 0.32133 0.0
C762 C 0.37219 0.85852 0.7633 0.0
C763 C 0.40187 0.88694 0.7867 0.0
C764 C 0.43164 0.92487 0.72435 0.0
C765 C 0.39975 0.89822 0.70206 0.0
N766 N 0.33539 0.85084 0.70543 0.0
N767 N 0.45739 0.9531 0.79021 0.0
C768 C 0.36852 0.87002 0.72349 0.0
C769 C 0.43094 0.92212 0.7675 0.0
N770 N 0.34835 0.81877 0.7781 0.0
N771 N 0.46299 0.951 0.70492 0.0
H772 H 0.45771 0.95155 0.8216 0.0
H773 H 0.47725 0.98191 0.77808 0.0
H774 H 0.46456 0.95676 0.67406 0.0
H775 H 0.48798 0.96587 0.71956 0.0
H776 H 0.32656 0.79703 0.76114 0.0
H777 H 0.35255 0.80608 0.80548 0.0
H778 H 0.33041 0.85816 0.67602 0.0
H779 H 0.33041 0.85816 0.67602 0.0
C780 C 0.6448 0.47762 0.28616 0.0
C781 C 0.61993 0.49191 0.30497 0.0
C782 C 0.59594 0.49733 0.23791 0.0
C783 C 0.61563 0.4742 0.2212 0.0
N784 N 0.656 0.43719 0.23217 0.0
N785 N 0.57036 0.51467 0.29835 0.0
C786 C 0.63904 0.46271 0.24613 0.0
C787 C 0.59548 0.5025 0.28068 0.0
N788 N 0.67301 0.47505 0.30699 0.0
N789 N 0.57738 0.51376 0.2131 0.0
H790 H 0.57021 0.52077 0.32909 0.0
H791 H 0.5488 0.51701 0.28268 0.0
H792 H 0.57585 0.50872 0.182 0.0
H793 H 0.56559 0.53472 0.22304 0.0
H794 H 0.6794 0.48601 0.33663 0.0
H795 H 0.6794 0.48601 0.33663 0.0
H796 H 0.67328 0.4285 0.25016 0.0
H797 H 0.65242 0.42377 0.20335 0.0
C798 C 0.1651 0.58856 0.73766 0.0
C799 C 0.13306 0.56205 0.71669 0.0
C800 C 0.09925 0.55035 0.78093 0.0
C801 C 0.13171 0.58046 0.80045 0.0
N802 N 0.18743 0.64456 0.78854 0.0
N803 N 0.06782 0.52266 0.71723 0.0
C804 C 0.16211 0.60474 0.77596 0.0
C805 C 0.09949 0.54389 0.73803 0.0
N806 N 0.19854 0.59882 0.72081 0.0
N807 N 0.06802 0.52924 0.80247 0.0
H808 H 0.06732 0.51697 0.6863 0.0
H809 H 0.0421 0.51297 0.73008 0.0
H810 H 0.0638 0.53988 0.83072 0.0
H811 H 0.04581 0.50199 0.79156 0.0
H812 H 0.2227 0.61647 0.73631 0.0
H813 H 0.20177 0.58594 0.6931 0.0
H814 H 0.20982 0.66384 0.77104 0.0
H815 H 0.18348 0.65979 0.8145 0.0
C816 C 0.456 0.06988 0.99812 0.0
C817 C 0.47195 0.07443 0.0368 0.0
C818 C 0.42288 0.00386 0.05715 0.0
C819 C 0.41141 0.99533 0.01646 0.0
N820 N 0.41828 0.02017 0.9472 0.0
N821 N 0.47146 0.04536 0.10354 0.0
C822 C 0.42773 0.02873 0.98677 0.0
C823 C 0.45525 0.0417 0.06676 0.0
N824 N 0.46803 0.1051 0.97221 0.0
N825 N 0.40259 0.97558 0.08651 0.0
H826 H 0.49495 0.07265 0.11175 0.0
H827 H 0.46304 0.02015 0.12496 0.0
H828 H 0.37833 0.94843 0.08004 0.0
H829 H 0.40763 0.98147 0.11719 0.0
H830 H 0.45527 0.10548 0.94501 0.0
H831 H 0.48866 0.13565 0.97981 0.0
H832 H 0.43261 0.04074 0.92366 0.0
H833 H 0.39762 0.9909 0.9375 0.0
C834 C 0.40286 0.39332 0.4669 0.0
C835 C 0.39135 0.389 0.50776 0.0
C836 C 0.44355 0.37153 0.52586 0.0
C837 C 0.458 0.38336 0.48651 0.0
N838 N 0.45297 0.40982 0.42008 0.0
N839 N 0.39909 0.36479 0.57547 0.0
C840 C 0.43776 0.3946 0.45689 0.0
C841 C 0.41066 0.37493 0.53677 0.0
N842 N 0.37998 0.39588 0.4376 0.0
N843 N 0.46148 0.35734 0.55365 0.0
H844 H 0.3747 0.36383 0.58686 0.0
H845 H 0.3747 0.36383 0.58686 0.0
H846 H 0.48509 0.35286 0.54697 0.0
H847 H 0.45218 0.34901 0.58315 0.0
H848 H 0.38509 0.39527 0.4069 0.0
H849 H 0.35395 0.39377 0.44425 0.0
H850 H 0.44139 0.42331 0.39883 0.0
H851 H 0.47891 0.41279 0.41211 0.0
C852 C 0.04043 0.40076 0.99777 0.0
C853 C 0.0551 0.43268 0.96659 0.0
C854 C 0.99805 0.44262 0.96548 0.0
C855 C 0.98151 0.40775 0.99378 0.0
N856 N 0.98587 0.3465 0.02945 0.0
N857 N 0.04113 0.47075 0.91113 0.0
C858 C 1.00241 0.38456 0.00768 0.0
C859 C 0.03153 0.4486 0.94688 0.0
N860 N 0.06277 0.38604 0.01814 0.0
N861 N 0.98457 0.47376 0.95963 0.0
H862 H 0.06499 0.47553 0.8958 0.0
H863 H 0.02329 0.48013 0.8948 0.0
H864 H 0.96361 0.47495 0.97705 0.0
H865 H 0.99749 0.50168 0.94163 0.0
H866 H 0.05478 0.36675 0.04413 0.0
H867 H 0.08996 0.39517 0.01007 0.0
H868 H 0.99895 0.32631 0.0376 0.0
H869 H 0.95801 0.33266 0.03559 0.0
C870 C 0.58942 0.9552 0.47371 0.0
C871 C 0.60518 0.99369 0.4978 0.0
C872 C 0.56388 0.95587 0.55325 0.0
C873 C 0.54384 0.92062 0.52672 0.0
N874 N 0.53973 0.88294 0.46362 0.0
N875 N 0.62081 0.01937 0.56571 0.0
C876 C 0.55774 0.91877 0.48768 0.0
C877 C 0.59674 0.99052 0.53942 0.0
N878 N 0.60565 0.95375 0.43792 0.0
N879 N 0.55041 0.95786 0.59061 0.0
H880 H 0.64675 0.04121 0.5565 0.0
H881 H 0.61729 0.01735 0.59684 0.0
H882 H 0.52661 0.93309 0.6019 0.0
H883 H 0.5615 0.98543 0.60928 0.0
H884 H 0.5973 0.92628 0.41912 0.0
H885 H 0.62998 0.97952 0.42889 0.0
H886 H 0.54566 0.88122 0.43334 0.0
H887 H 0.5179 0.85472 0.47393 0.0
C888 C 0.58102 0.60634 0.93537 0.0
C889 C 0.5612 0.62312 0.96084 0.0
C890 C 0.60864 0.63889 0.01286 0.0
C891 C 0.62483 0.61572 0.98964 0.0
N892 N 0.63812 0.60021 0.92248 0.0
N893 N 0.5565 0.65697 0.02364 0.0
C894 C 0.61478 0.60698 0.9487 0.0
C895 C 0.57537 0.64034 0.99943 0.0
N896 N 0.56612 0.58592 0.90005 0.0
N897 N 0.62652 0.66227 0.04586 0.0
H898 H 0.53352 0.66126 0.01388 0.0
H899 H 0.5625 0.66459 0.05392 0.0
H900 H 0.65315 0.66698 0.05261 0.0
H901 H 0.61749 0.68207 0.06303 0.0
H902 H 0.57742 0.56867 0.88251 0.0
H903 H 0.54052 0.58228 0.89039 0.0
H904 H 0.63391 0.59718 0.89146 0.0
H905 H 0.66377 0.60285 0.93159 0.0
C906 C 0.97679 0.58915 0.52297 0.0
C907 C 0.96579 0.57758 0.48238 0.0
C908 C 0.03079 0.60731 0.46289 0.0
C909 C 0.04132 0.61202 0.50407 0.0
N910 N 0.02251 0.59925 0.57386 0.0
N911 N 0.98362 0.56985 0.41401 0.0
C912 C 0.01387 0.60119 0.53431 0.0
C913 C 0.99312 0.58554 0.45227 0.0
N914 N 0.95178 0.58916 0.55081 0.0
N915 N 0.05681 0.62429 0.43371 0.0
H916 H 0.95686 0.55305 0.40441 0.0
H917 H 1.00252 0.5699 0.39253 0.0
H918 H 0.08446 0.64095 0.44032 0.0
H919 H 0.05067 0.62593 0.40342 0.0
H920 H 0.95877 0.60129 0.57997 0.0
H921 H 0.92467 0.58157 0.54343 0.0
H922 H 1.003 0.58675 0.5965 0.0
H923 H 0.04874 0.60567 0.58366 0.0
C924 C 0.56302 0.29201 0.05999 0.0
C925 C 0.58299 0.27838 0.03203 0.0
C926 C 0.63107 0.352 0.03138 0.0
C927 C 0.61283 0.36645 0.06073 0.0
N928 N 0.55596 0.35328 0.0939 0.0
N929 N 0.62471 0.30267 0.9767 0.0
C930 C 0.5769 0.33738 0.0724 0.0
C931 C 0.61283 0.31085 0.01269 0.0
N932 N 0.53136 0.26095 0.07504 0.0
N933 N 0.66591 0.37791 0.02061 0.0
H934 H 0.61073 0.27335 0.96089 0.0
H935 H 0.61073 0.27335 0.96089 0.0
H936 H 0.68133 0.40707 0.0359 0.0
H937 H 0.67935 0.368 0.9985 0.0
H938 H 0.51628 0.26712 0.09781 0.0
H939 H 0.52095 0.22833 0.06469 0.0
H940 H 0.52866 0.33464 0.10067 0.0
H941 H 0.56544 0.38633 0.10267 0.0
C942 C 0.24163 0.49102 0.57173 0.0
C943 C 0.26996 0.50618 0.54279 0.0
C944 C 0.25294 0.56736 0.52647 0.0
C945 C 0.22843 0.55655 0.55978 0.0
N946 N 0.19889 0.50614 0.61419 0.0
N947 N 0.28813 0.54564 0.48018 0.0
C948 C 0.22243 0.51757 0.58235 0.0
C949 C 0.27118 0.54006 0.51636 0.0
N950 N 0.23178 0.44944 0.58678 0.0
N951 N 0.25963 0.60459 0.50442 0.0
H952 H 0.29821 0.52339 0.46905 0.0
H953 H 0.29821 0.52339 0.46905 0.0
H954 H 0.25 0.62807 0.51313 0.0
H955 H 0.27645 0.61275 0.47905 0.0
H956 H 0.20934 0.4336 0.6054 0.0
H957 H 0.24453 0.42939 0.57683 0.0
H958 H 0.19622 0.48088 0.63433 0.0
H959 H 0.18374 0.52392 0.62213 0.0
C960 C 0.7708 0.2375 0.0329 0.0
C961 C 0.78141 0.27524 0.00759 0.0
C962 C 0.71711 0.26214 0.00074 0.0
C963 C 0.70695 0.22848 0.03096 0.0
N964 N 0.72444 0.17877 0.07024 0.0
N965 N 0.76258 0.3045 0.95094 0.0
C966 C 0.73381 0.21427 0.04499 0.0
C967 C 0.75373 0.28134 0.98605 0.0
N968 N 0.79612 0.22319 0.04584 0.0
N969 N 0.69261 0.27812 0.9881 0.0
H970 H 0.78876 0.31468 0.93901 0.0
H971 H 0.74349 0.30826 0.93186 0.0
H972 H 0.66704 0.26824 0.00124 0.0
H973 H 0.69883 0.30393 0.96754 0.0
H974 H 0.82342 0.2383 0.03704 0.0
H975 H 0.82342 0.2383 0.03704 0.0
H976 H 0.74364 0.16809 0.08168 0.0
H977 H 0.69761 0.15982 0.07899 0.0
C978 C 0.4529 0.70929 0.57411 0.0
C979 C 0.43303 0.7208 0.54417 0.0
C980 C 0.38427 0.64815 0.54917 0.0
C981 C 0.40378 0.63458 0.57778 0.0
N982 N 0.46063 0.65054 0.61196 0.0
N983 N 0.39146 0.69269 0.48964 0.0
C984 C 0.43953 0.66464 0.58869 0.0
C985 C 0.40267 0.68716 0.52701 0.0
N986 N 0.48392 0.7416 0.58899 0.0
N987 N 0.34799 0.624 0.54349 0.0
H988 H 0.4068 0.72054 0.47252 0.0
H989 H 0.37005 0.66762 0.47481 0.0
H990 H 0.33324 0.59643 0.56124 0.0
H991 H 0.33262 0.63458 0.52435 0.0
H992 H 0.49836 0.737 0.61329 0.0
H993 H 0.49427 0.77363 0.57714 0.0
H994 H 0.48801 0.66978 0.61786 0.0
H995 H 0.45101 0.61855 0.62376 0.0
C996 C 0.77543 0.51532 0.04597 0.0
C997 C 0.74511 0.49737 0.01991 0.0
C998 C 0.75976 0.43324 0.00864 0.0
C999 C 0.78543 0.44685 0.04101 0.0
N1000 N 0.81959 0.50364 0.08877 0.0
N1001 N 0.72238 0.45332 0.96135 0.0
C1002 C 0.79407 0.48898 0.05896 0.0
C1003 C 0.74182 0.46073 0.99618 0.0
N1004 N 0.78706 0.5587 0.05648 0.0
N1005 N 0.75139 0.39301 0.99114 0.0
H1006 H 0.71249 0.47607 0.951 0.0
H1007 H 0.71961 0.42836 0.94091 0.0
H1008 H 0.76049 0.37012 0.00287 0.0
H1009 H 0.73395 0.38113 0.96674 0.0
H1010 H 0.81085 0.57617 0.07255 0.0
H1011 H 0.77386 0.57791 0.04563 0.0
H1012 H 0.82421 0.53168 0.106 0.0
H1013 H 0.8347 0.48625 0.09804 0.0
C1014 C 0.26002 0.71405 0.49027 0.0
C1015 C 0.23308 0.72231 0.51119 0.0
C1016 C 0.28171 0.78562 0.54491 0.0
C1017 C 0.30798 0.76982 0.53177 0.0
N1018 N 0.32097 0.71683 0.49224 0.0
N1019 N 0.21827 0.77699 0.54319 0.0
C1020 C 0.29696 0.73406 0.5037 0.0
C1021 C 0.24421 0.76207 0.53359 0.0
N1022 N 0.25014 0.6879 0.45699 0.0
N1023 N 0.29249 0.82231 0.56885 0.0
H1024 H 0.19128 0.75973 0.53397 0.0
H1025 H 0.22337 0.80669 0.55782 0.0
H1026 H 0.31976 0.84161 0.57548 0.0
H1027 H 0.27466 0.83352 0.58266 0.0
H1028 H 0.26865 0.68241 0.43827 0.0
H1029 H 0.22362 0.67658 0.44585 0.0
H1030 H 0.31414 0.68947 0.47347 0.0
H1031 H 0.3468 0.72736 0.5048 0.0
C1032 C 0.7539 0.51222 0.46146 0.0
C1033 C 0.76656 0.48796 0.4878 0.0
C1034 C 0.7033 0.4358 0.50022 0.0
C1035 C 0.69095 0.45546 0.46861 0.0
N1036 N 0.70415 0.51602 0.42204 0.0
N1037 N 0.75244 0.44367 0.5469 0.0
C1038 C 0.71614 0.49525 0.45046 0.0
C1039 C 0.74079 0.45507 0.51198 0.0
N1040 N 0.77867 0.55194 0.44767 0.0
N1041 N 0.67964 0.39739 0.51747 0.0
H1042 H 0.7792 0.46123 0.55657 0.0
H1043 H 0.73524 0.42164 0.56794 0.0
H1044 H 0.65305 0.38065 0.50716 0.0
H1045 H 0.68699 0.38044 0.53967 0.0
H1046 H 0.77212 0.57395 0.4305 0.0
H1047 H 0.80603 0.56379 0.45619 0.0
H1048 H 0.72128 0.5426 0.40473 0.0
H1049 H 0.6767 0.50554 0.41465 0.0
C1050 C 0.24843 0.76274 0.98447 0.0
C1051 C 0.28333 0.77083 8e-05 0.0
C1052 C 0.25893 0.69188 0.01854 0.0
C1053 C 0.2303 0.6826 0.98976 0.0
N1054 N 0.19153 0.71192 0.95645 0.0
N1055 N 0.31893 0.74321 0.04092 0.0
C1056 C 0.22316 0.7189 0.97613 0.0
C1057 C 0.28759 0.73551 0.02039 0.0
N1058 N 0.23879 0.79689 0.97754 0.0
N1059 N 0.25739 0.66078 0.04624 0.0
H1060 H 0.3386 0.77498 0.04617 0.0
H1061 H 0.32557 0.71801 0.052 0.0
H1062 H 0.23437 0.63153 0.05013 0.0
H1063 H 0.2763 0.66672 0.06935 0.0
H1064 H 0.25553 0.8295 0.98531 0.0
H1065 H 0.25553 0.8295 0.98531 0.0
H1066 H 0.18597 0.73795 0.94519 0.0
H1067 H 0.1707 0.68043 0.95281 0.0
C1068 C 0.56173 0.22657 0.44014 0.0
C1069 C 0.59723 0.23446 0.45456 0.0
C1070 C 0.59246 0.2879 0.50311 0.0
C1071 C 0.56266 0.28857 0.48193 0.0
N1072 N 0.51182 0.2508 0.43925 0.0
N1073 N 0.64785 0.27691 0.49768 0.0
C1074 C 0.54454 0.25429 0.45395 0.0
C1075 C 0.61277 0.26593 0.48595 0.0
N1076 N 0.54472 0.19307 0.41346 0.0
N1077 N 0.60136 0.3088 0.53933 0.0
H1078 H 0.66482 0.26495 0.4829 0.0
H1079 H 0.66103 0.30142 0.51883 0.0
H1080 H 0.58512 0.32312 0.55224 0.0
H1081 H 0.62167 0.30726 0.55793 0.0
H1082 H 0.51802 0.18347 0.40376 0.0
H1083 H 0.5572 0.1739 0.40124 0.0
H1084 H 0.49728 0.22924 0.41653 0.0
H1085 H 0.49951 0.27088 0.45033 0.0
C1086 C 0.2912 0.56395 0.97135 0.0
C1087 C 0.25926 0.52533 0.96354 0.0
C1088 C 0.29849 0.49546 0.92756 0.0
C1089 C 0.32822 0.53781 0.92955 0.0
N1090 N 0.34681 0.61518 0.94589 0.0
N1091 N 0.23258 0.45341 0.93291 0.0
C1092 C 0.32287 0.57233 0.94948 0.0
C1093 C 0.26303 0.4903 0.94183 0.0
N1094 N 0.29087 0.59672 0.99568 0.0
N1095 N 0.30407 0.46054 0.91229 0.0
H1096 H 0.207 0.44876 0.94406 0.0
H1097 H 0.23253 0.42876 0.91343 0.0
H1098 H 0.32929 0.46408 0.90088 0.0
H1099 H 0.28447 0.42808 0.9131 0.0
H1100 H 0.26825 0.59389 0.01256 0.0
H1101 H 0.26825 0.59389 0.01256 0.0
H1102 H 0.36863 0.62544 0.9259 0.0
H1103 H 0.36863 0.62544 0.9259 0.0
C1104 C 0.76848 0.24838 0.45256 0.0
C1105 C 0.73846 0.23792 0.47908 0.0
C1106 C 0.7551 0.31661 0.49074 0.0
C1107 C 0.78267 0.32757 0.46058 0.0
N1108 N 0.8224 0.30475 0.42136 0.0
N1109 N 0.71364 0.26014 0.53575 0.0
C1110 C 0.79164 0.29363 0.44422 0.0
C1111 C 0.73575 0.27163 0.50273 0.0
N1112 N 0.77341 0.21435 0.43431 0.0
N1113 N 0.74568 0.34875 0.50592 0.0
H1114 H 0.69937 0.22707 0.54409 0.0
H1115 H 0.71219 0.28289 0.55653 0.0
H1116 H 0.75681 0.38115 0.4952 0.0
H1117 H 0.7249 0.34268 0.52672 0.0
H1118 H 0.79259 0.21831 0.41194 0.0
H1119 H 0.75732 0.18143 0.44189 0.0
H1120 H 0.832 0.28205 0.4106 0.0
H1121 H 0.83991 0.33748 0.41513 0.0
C1122 C 0.44179 0.72901 0.88764 0.0
C1123 C 0.43765 0.7015 0.92174 0.0
C1124 C 0.39274 0.72555 0.94923 0.0
C1125 C 0.39588 0.75289 0.91517 0.0
N1126 N 0.41944 0.77438 0.8479 0.0
N1127 N 0.42465 0.69508 0.99265 0.0
C1128 C 0.41949 0.75315 0.88313 0.0
C1129 C 0.41796 0.70639 0.95505 0.0
N1130 N 0.46934 0.73439 0.86141 0.0
N1131 N 0.36449 0.7165 0.97545 0.0
H1132 H 0.44653 0.68676 0.99838 0.0
H1133 H 0.41215 0.70045 0.01838 0.0
H1134 H 0.34395 0.72738 0.97008 0.0
H1135 H 0.35934 0.69396 0.99909 0.0
H1136 H 0.47654 0.75623 0.83715 0.0
H1137 H 0.48765 0.72007 0.86723 0.0
H1138 H 0.43392 0.77298 0.82236 0.0
H1139 H 0.40171 0.78936 0.84246 0.0
loop_
_geom_bond_atom_site_label_1
_geom_bond_atom_site_label_2
_geom_bond_distance
_geom_bond_site_symmetry_2
_ccdc_geom_bond_type
Co0 O2 2.143 . S
Co0 O8 2.074 . S
Co0 O11 2.093 . S
Co0 O24 2.097 . S
Co0 N41 2.151 . S
Co0 N49 2.214 . S
Co1 O2 2.160 . S
Co1 O7 2.058 . S
Co1 O17 2.057 1_554 S
Co1 O32 2.037 . S
Co1 N36 2.145 1_554 S
Co1 N57 2.257 . S
O2 Co0 2.143 . S
O2 Co1 2.160 . S
C3 O4 1.278 . S
C3 O11 1.224 . S
O4 C3 1.278 . S
C5 O6 1.245 . S
C5 O17 1.232 1_554 S
O6 C5 1.245 . S
O7 Co1 2.058 . S
O7 C33 1.269 . S
O8 Co0 2.074 . S
O8 C33 1.257 . S
H9 C34 0.930 . S
H10 C40 0.930 . S
O11 Co0 2.093 . S
O11 C3 1.224 . S
H12 C44 0.929 . S
H13 C46 0.930 . S
H14 C47 0.930 . S
H15 C45 0.929 . S
H16 C48 0.928 . S
O17 Co1 2.057 1_556 S
O17 C5 1.232 1_556 S
H18 C37 0.929 . S
H19 C38 0.929 . S
H20 C50 0.931 . S
H21 C42 0.929 . S
H22 C51 0.930 . S
H23 C43 0.931 . S
O24 Co0 2.097 . S
O24 C52 1.214 . S
H25 C53 0.929 1_565 S
H26 C54 0.929 1_556 S
H27 C55 0.930 . S
H28 C56 0.929 . S
H29 C58 0.930 . S
H30 C35 0.930 . S
H31 C39 0.930 . S
O32 Co1 2.037 . S
O32 C52 1.234 . S
C33 O7 1.269 . S
C33 O8 1.257 . S
C34 H9 0.930 . S
C34 C37 1.388 . S
C34 C39 1.418 . S
C35 H30 0.930 . S
C35 C38 1.404 . S
C35 C39 1.353 . S
N36 Co1 2.145 1_556 S
N36 C37 1.397 . S
N36 C38 1.334 . S
C37 H18 0.929 . S
C37 C34 1.388 . S
C37 N36 1.397 . S
C38 H19 0.929 . S
C38 C35 1.404 . S
C38 N36 1.334 . S
C39 H31 0.930 . S
C39 C34 1.418 . S
C39 C35 1.353 . S
C40 H10 0.930 . S
C40 N41 1.330 . S
C40 C42 1.446 . S
N41 Co0 2.151 . S
N41 C40 1.330 . S
N41 C45 1.418 . S
C42 H21 0.929 . S
C42 C40 1.446 . S
C42 C43 1.332 . S
C43 H23 0.931 . S
C43 C42 1.332 . S
C43 C44 1.267 . S
C44 H12 0.929 . S
C44 C43 1.267 . S
C44 C45 1.251 . S
C45 H15 0.929 . S
C45 N41 1.418 . S
C45 C44 1.251 . S
C46 H13 0.930 . S
C46 C48 1.406 . S
C46 C51 1.261 . S
C47 H14 0.930 . S
C47 N49 1.325 . S
C47 C50 1.357 . S
C48 H16 0.928 . S
C48 C46 1.406 . S
C48 N49 1.261 . S
N49 Co0 2.214 . S
N49 C47 1.325 . S
N49 C48 1.261 . S
C50 H20 0.931 . S
C50 C47 1.357 . S
C50 C51 1.312 . S
C51 H22 0.930 . S
C51 C46 1.261 . S
C51 C50 1.312 . S
C52 O24 1.214 . S
C52 O32 1.234 . S
C53 H25 0.929 1_545 S
C53 C56 1.391 . S
C53 C58 1.391 . S
C54 H26 0.929 1_554 S
C54 C55 1.390 . S
C54 N57 1.391 . S
C55 H27 0.930 . S
C55 C54 1.390 . S
C55 C56 1.392 . S
C56 H28 0.929 . S
C56 C53 1.391 . S
C56 C55 1.392 . S
N57 Co1 2.257 . S
N57 C54 1.391 . S
N57 C58 1.388 . S
C58 H29 0.930 . S
C58 C53 1.391 . S
C58 N57 1.388 . S
Co59 O61 2.143 . S
Co59 O67 2.074 . S
Co59 O70 2.093 . S
Co59 O83 2.097 . S
Co59 N100 2.151 . S
Co59 N108 2.214 . S
Co60 O61 2.160 . S
Co60 O66 2.058 . S
Co60 O76 2.057 . S
Co60 O91 2.037 . S
Co60 N95 2.145 . S
Co60 N116 2.257 . S
O61 Co59 2.143 . S
O61 Co60 2.160 . S
C62 O63 1.278 . S
C62 O70 1.224 . S
O63 C62 1.278 . S
C64 O65 1.245 . S
C64 O76 1.232 . S
O65 C64 1.245 . S
O66 Co60 2.058 . S
O66 C92 1.269 . S
O67 Co59 2.074 . S
O67 C92 1.257 . S
H68 C93 0.930 . S
H69 C99 0.930 . S
O70 Co59 2.093 . S
O70 C62 1.224 . S
H71 C103 0.929 . S
H72 C105 0.930 . S
H73 C106 0.930 . S
H74 C104 0.929 . S
H75 C107 0.928 . S
O76 Co60 2.057 . S
O76 C64 1.232 . S
H77 C96 0.929 . S
H78 C97 0.929 . S
H79 C109 0.931 . S
H80 C101 0.929 . S
H81 C110 0.930 . S
H82 C102 0.931 . S
O83 Co59 2.097 . S
O83 C111 1.214 . S
H84 C112 0.929 . S
H85 C113 0.929 . S
H86 C114 0.930 . S
H87 C115 0.929 . S
H88 C117 0.930 . S
H89 C94 0.930 . S
H90 C98 0.930 . S
O91 Co60 2.037 . S
O91 C111 1.234 . S
C92 O66 1.269 . S
C92 O67 1.257 . S
C93 H68 0.930 . S
C93 C96 1.388 . S
C93 C98 1.418 . S
C94 H89 0.930 . S
C94 C97 1.404 . S
C94 C98 1.353 . S
N95 Co60 2.145 . S
N95 C96 1.397 . S
N95 C97 1.334 . S
C96 H77 0.929 . S
C96 C93 1.388 . S
C96 N95 1.397 . S
C97 H78 0.929 . S
C97 C94 1.404 . S
C97 N95 1.334 . S
C98 H90 0.930 . S
C98 C93 1.418 . S
C98 C94 1.353 . S
C99 H69 0.930 . S
C99 N100 1.330 . S
C99 C101 1.446 . S
N100 Co59 2.151 . S
N100 C99 1.330 . S
N100 C104 1.418 . S
C101 H80 0.929 . S
C101 C99 1.446 . S
C101 C102 1.332 . S
C102 H82 0.931 . S
C102 C101 1.332 . S
C102 C103 1.267 . S
C103 H71 0.929 . S
C103 C102 1.267 . S
C103 C104 1.251 . S
C104 H74 0.929 . S
C104 N100 1.418 . S
C104 C103 1.251 . S
C105 H72 0.930 . S
C105 C107 1.406 . S
C105 C110 1.261 . S
C106 H73 0.930 . S
C106 N108 1.325 . S
C106 C109 1.357 . S
C107 H75 0.928 . S
C107 C105 1.406 . S
C107 N108 1.261 . S
N108 Co59 2.214 . S
N108 C106 1.325 . S
N108 C107 1.261 . S
C109 H79 0.931 . S
C109 C106 1.357 . S
C109 C110 1.312 . S
C110 H81 0.930 . S
C110 C105 1.261 . S
C110 C109 1.312 . S
C111 O83 1.214 . S
C111 O91 1.234 . S
C112 H84 0.929 . S
C112 C115 1.391 . S
C112 C117 1.391 . S
C113 H85 0.929 . S
C113 C114 1.390 . S
C113 N116 1.391 . S
C114 H86 0.930 . S
C114 C113 1.390 . S
C114 C115 1.392 . S
C115 H87 0.929 . S
C115 C112 1.391 . S
C115 C114 1.392 . S
N116 Co60 2.257 . S
N116 C113 1.391 . S
N116 C117 1.388 . S
C117 H88 0.930 . S
C117 C112 1.391 . S
C117 N116 1.388 . S
Co118 O120 2.143 . S
Co118 O126 2.074 . S
Co118 O129 2.093 1_554 S
Co118 O142 2.097 1_554 S
Co118 N159 2.151 . S
Co118 N167 2.214 1_554 S
Co119 O120 2.160 . S
Co119 O125 2.058 . S
Co119 O135 2.057 . S
Co119 O150 2.037 . S
Co119 N154 2.145 . S
Co119 N175 2.257 . S
O120 Co118 2.143 . S
O120 Co119 2.160 . S
C121 O122 1.278 . S
C121 O129 1.224 1_554 S
O122 C121 1.278 . S
C123 O124 1.245 . S
C123 O135 1.232 . S
O124 C123 1.245 . S
O125 Co119 2.058 . S
O125 C151 1.269 . S
O126 Co118 2.074 . S
O126 C151 1.257 . S
H127 C152 0.930 . S
H128 C158 0.930 . S
O129 Co118 2.093 1_556 S
O129 C121 1.224 1_556 S
H130 C162 0.929 . S
H131 C164 0.930 . S
H132 C165 0.930 . S
H133 C163 0.929 . S
H134 C166 0.928 . S
O135 Co119 2.057 . S
O135 C123 1.232 . S
H136 C155 0.929 . S
H137 C156 0.929 . S
H138 C168 0.931 . S
H139 C160 0.929 . S
H140 C169 0.930 . S
H141 C161 0.930 1_556 S
O142 Co118 2.097 1_556 S
O142 C170 1.214 1_556 S
H143 C171 0.929 . S
H144 C172 0.929 . S
H145 C173 0.930 . S
H146 C174 0.929 . S
H147 C176 0.930 . S
H148 C153 0.930 . S
H149 C157 0.930 . S
O150 Co119 2.037 . S
O150 C170 1.234 . S
C151 O125 1.269 . S
C151 O126 1.257 . S
C152 H127 0.930 . S
C152 C155 1.388 . S
C152 C157 1.418 . S
C153 H148 0.930 . S
C153 C156 1.404 . S
C153 C157 1.353 . S
N154 Co119 2.145 . S
N154 C155 1.397 . S
N154 C156 1.334 . S
C155 H136 0.929 . S
C155 C152 1.388 . S
C155 N154 1.397 . S
C156 H137 0.929 . S
C156 C153 1.404 . S
C156 N154 1.334 . S
C157 H149 0.930 . S
C157 C152 1.418 . S
C157 C153 1.353 . S
C158 H128 0.930 . S
C158 N159 1.330 . S
C158 C160 1.446 . S
N159 Co118 2.151 . S
N159 C158 1.330 . S
N159 C163 1.418 1_554 S
C160 H139 0.929 . S
C160 C158 1.446 . S
C160 C161 1.332 . S
C161 H141 0.930 1_554 S
C161 C160 1.332 . S
C161 C162 1.267 1_554 S
C162 H130 0.929 . S
C162 C161 1.267 1_556 S
C162 C163 1.251 . S
C163 H133 0.929 . S
C163 N159 1.418 1_556 S
C163 C162 1.251 . S
C164 H131 0.930 . S
C164 C166 1.406 . S
C164 C169 1.261 . S
C165 H132 0.930 . S
C165 N167 1.325 . S
C165 C168 1.357 . S
C166 H134 0.928 . S
C166 C164 1.406 . S
C166 N167 1.261 . S
N167 Co118 2.214 1_556 S
N167 C165 1.325 . S
N167 C166 1.261 . S
C168 H138 0.931 . S
C168 C165 1.357 . S
C168 C169 1.312 . S
C169 H140 0.930 . S
C169 C164 1.261 . S
C169 C168 1.312 . S
C170 O142 1.214 1_554 S
C170 O150 1.234 . S
C171 H143 0.929 . S
C171 C174 1.391 . S
C171 C176 1.391 . S
C172 H144 0.929 . S
C172 C173 1.390 . S
C172 N175 1.391 . S
C173 H145 0.930 . S
C173 C172 1.390 . S
C173 C174 1.392 . S
C174 H146 0.929 . S
C174 C171 1.391 . S
C174 C173 1.392 . S
N175 Co119 2.257 . S
N175 C172 1.391 . S
N175 C176 1.388 . S
C176 H147 0.930 . S
C176 C171 1.391 . S
C176 N175 1.388 . S
Co177 O179 2.143 . S
Co177 O185 2.074 . S
Co177 O188 2.093 . S
Co177 O201 2.097 . S
Co177 N218 2.151 . S
Co177 N226 2.214 . S
Co178 O179 2.160 . S
Co178 O184 2.058 . S
Co178 O194 2.057 . S
Co178 O209 2.037 . S
Co178 N213 2.145 . S
Co178 N234 2.257 . S
O179 Co177 2.143 . S
O179 Co178 2.160 . S
C180 O181 1.278 . S
C180 O188 1.224 . S
O181 C180 1.278 . S
C182 O183 1.245 . S
C182 O194 1.232 . S
O183 C182 1.245 . S
O184 Co178 2.058 . S
O184 C210 1.269 . S
O185 Co177 2.074 . S
O185 C210 1.257 . S
H186 C211 0.930 . S
H187 C217 0.930 . S
O188 Co177 2.093 . S
O188 C180 1.224 . S
H189 C221 0.929 . S
H190 C223 0.930 . S
H191 C224 0.930 . S
H192 C222 0.929 . S
H193 C225 0.928 . S
O194 Co178 2.057 . S
O194 C182 1.232 . S
H195 C214 0.929 . S
H196 C215 0.929 . S
H197 C227 0.931 . S
H198 C219 0.929 . S
H199 C228 0.930 . S
H200 C220 0.931 . S
O201 Co177 2.097 . S
O201 C229 1.214 . S
H202 C230 0.929 1_545 S
H203 C231 0.929 . S
H204 C232 0.930 . S
H205 C233 0.929 . S
H206 C235 0.930 . S
H207 C212 0.930 . S
H208 C216 0.930 . S
O209 Co178 2.037 . S
O209 C229 1.234 . S
C210 O184 1.269 . S
C210 O185 1.257 . S
C211 H186 0.930 . S
C211 C214 1.388 . S
C211 C216 1.418 . S
C212 H207 0.930 . S
C212 C215 1.404 . S
C212 C216 1.353 . S
N213 Co178 2.145 . S
N213 C214 1.397 . S
N213 C215 1.334 . S
C214 H195 0.929 . S
C214 C211 1.388 . S
C214 N213 1.397 . S
C215 H196 0.929 . S
C215 C212 1.404 . S
C215 N213 1.334 . S
C216 H208 0.930 . S
C216 C211 1.418 . S
C216 C212 1.353 . S
C217 H187 0.930 . S
C217 N218 1.330 . S
C217 C219 1.446 . S
N218 Co177 2.151 . S
N218 C217 1.330 . S
N218 C222 1.418 . S
C219 H198 0.929 . S
C219 C217 1.446 . S
C219 C220 1.332 . S
C220 H200 0.931 . S
C220 C219 1.332 . S
C220 C221 1.267 . S
C221 H189 0.929 . S
C221 C220 1.267 . S
C221 C222 1.251 . S
C222 H192 0.929 . S
C222 N218 1.418 . S
C222 C221 1.251 . S
C223 H190 0.930 . S
C223 C225 1.406 . S
C223 C228 1.261 . S
C224 H191 0.930 . S
C224 N226 1.325 . S
C224 C227 1.357 . S
C225 H193 0.928 . S
C225 C223 1.406 . S
C225 N226 1.261 . S
N226 Co177 2.214 . S
N226 C224 1.325 . S
N226 C225 1.261 . S
C227 H197 0.931 . S
C227 C224 1.357 . S
C227 C228 1.312 . S
C228 H199 0.930 . S
C228 C223 1.261 . S
C228 C227 1.312 . S
C229 O201 1.214 . S
C229 O209 1.234 . S
C230 H202 0.929 1_565 S
C230 C233 1.391 . S
C230 C235 1.391 . S
C231 H203 0.929 . S
C231 C232 1.390 . S
C231 N234 1.391 . S
C232 H204 0.930 . S
C232 C231 1.390 . S
C232 C233 1.392 . S
C233 H205 0.929 . S
C233 C230 1.391 . S
C233 C232 1.392 . S
N234 Co178 2.257 . S
N234 C231 1.391 . S
N234 C235 1.388 . S
C235 H206 0.930 . S
C235 C230 1.391 . S
C235 N234 1.388 . S
Co236 O238 2.143 . S
Co236 O244 2.074 . S
Co236 O247 2.093 . S
Co236 O260 2.097 . S
Co236 N277 2.151 . S
Co236 N285 2.214 . S
Co237 O238 2.160 . S
Co237 O243 2.058 1_554 S
Co237 O253 2.057 1_554 S
Co237 O268 2.037 . S
Co237 N272 2.145 1_554 S
Co237 N293 2.257 . S
O238 Co236 2.143 . S
O238 Co237 2.160 . S
C239 O240 1.278 . S
C239 O247 1.224 . S
O240 C239 1.278 . S
C241 O242 1.245 . S
C241 O253 1.232 1_554 S
O242 C241 1.245 . S
O243 Co237 2.058 1_556 S
O243 C269 1.269 1_556 S
O244 Co236 2.074 . S
O244 C269 1.257 . S
H245 C270 0.930 . S
H246 C276 0.930 . S
O247 Co236 2.093 . S
O247 C239 1.224 . S
H248 C280 0.929 . S
H249 C282 0.930 . S
H250 C283 0.930 . S
H251 C281 0.929 . S
H252 C284 0.928 . S
O253 Co237 2.057 1_556 S
O253 C241 1.232 1_556 S
H254 C273 0.929 . S
H255 C274 0.929 . S
H256 C286 0.931 . S
H257 C278 0.929 . S
H258 C287 0.930 . S
H259 C279 0.931 . S
O260 Co236 2.097 . S
O260 C288 1.214 . S
H261 C289 0.929 . S
H262 C290 0.929 . S
H263 C291 0.930 . S
H264 C292 0.929 . S
H265 C294 0.930 . S
H266 C271 0.930 . S
H267 C275 0.930 . S
O268 Co237 2.037 . S
O268 C288 1.234 . S
C269 O243 1.269 1_554 S
C269 O244 1.257 . S
C270 H245 0.930 . S
C270 C273 1.388 . S
C270 C275 1.418 . S
C271 H266 0.930 . S
C271 C274 1.404 . S
C271 C275 1.353 . S
N272 Co237 2.145 1_556 S
N272 C273 1.397 . S
N272 C274 1.334 . S
C273 H254 0.929 . S
C273 C270 1.388 . S
C273 N272 1.397 . S
C274 H255 0.929 . S
C274 C271 1.404 . S
C274 N272 1.334 . S
C275 H267 0.930 . S
C275 C270 1.418 . S
C275 C271 1.353 . S
C276 H246 0.930 . S
C276 N277 1.330 . S
C276 C278 1.446 . S
N277 Co236 2.151 . S
N277 C276 1.330 . S
N277 C281 1.418 . S
C278 H257 0.929 . S
C278 C276 1.446 . S
C278 C279 1.332 . S
C279 H259 0.931 . S
C279 C278 1.332 . S
C279 C280 1.267 . S
C280 H248 0.929 . S
C280 C279 1.267 . S
C280 C281 1.251 . S
C281 H251 0.929 . S
C281 N277 1.418 . S
C281 C280 1.251 . S
C282 H249 0.930 . S
C282 C284 1.406 . S
C282 C287 1.261 . S
C283 H250 0.930 . S
C283 N285 1.325 . S
C283 C286 1.357 . S
C284 H252 0.928 . S
C284 C282 1.406 . S
C284 N285 1.261 . S
N285 Co236 2.214 . S
N285 C283 1.325 . S
N285 C284 1.261 . S
C286 H256 0.931 . S
C286 C283 1.357 . S
C286 C287 1.312 . S
C287 H258 0.930 . S
C287 C282 1.261 . S
C287 C286 1.312 . S
C288 O260 1.214 . S
C288 O268 1.234 . S
C289 H261 0.929 . S
C289 C292 1.391 . S
C289 C294 1.391 . S
C290 H262 0.929 . S
C290 C291 1.390 . S
C290 N293 1.391 . S
C291 H263 0.930 . S
C291 C290 1.390 . S
C291 C292 1.392 . S
C292 H264 0.929 . S
C292 C289 1.391 . S
C292 C291 1.392 . S
N293 Co237 2.257 . S
N293 C290 1.391 . S
N293 C294 1.388 . S
C294 H265 0.930 . S
C294 C289 1.391 . S
C294 N293 1.388 . S
Co295 O297 2.143 . S
Co295 O303 2.074 . S
Co295 O306 2.093 . S
Co295 O319 2.097 . S
Co295 N336 2.151 . S
Co295 N344 2.214 . S
Co296 O297 2.160 . S
Co296 O302 2.058 . S
Co296 O312 2.057 . S
Co296 O327 2.037 . S
Co296 N331 2.145 . S
Co296 N352 2.257 . S
O297 Co295 2.143 . S
O297 Co296 2.160 . S
C298 O299 1.278 . S
C298 O306 1.224 . S
O299 C298 1.278 . S
C300 O301 1.245 . S
C300 O312 1.232 . S
O301 C300 1.245 . S
O302 Co296 2.058 . S
O302 C328 1.269 . S
O303 Co295 2.074 . S
O303 C328 1.257 . S
H304 C329 0.930 . S
H305 C335 0.930 . S
O306 Co295 2.093 . S
O306 C298 1.224 . S
H307 C339 0.929 . S
H308 C341 0.930 . S
H309 C342 0.930 . S
H310 C340 0.929 . S
H311 C343 0.928 . S
O312 Co296 2.057 . S
O312 C300 1.232 . S
H313 C332 0.929 . S
H314 C333 0.929 . S
H315 C345 0.931 . S
H316 C337 0.929 . S
H317 C346 0.930 . S
H318 C338 0.931 . S
O319 Co295 2.097 . S
O319 C347 1.214 . S
H320 C348 0.929 . S
H321 C349 0.929 . S
H322 C350 0.930 . S
H323 C351 0.929 . S
H324 C353 0.930 . S
H325 C330 0.930 . S
H326 C334 0.930 . S
O327 Co296 2.037 . S
O327 C347 1.234 . S
C328 O302 1.269 . S
C328 O303 1.257 . S
C329 H304 0.930 . S
C329 C332 1.388 . S
C329 C334 1.418 . S
C330 H325 0.930 . S
C330 C333 1.404 . S
C330 C334 1.353 . S
N331 Co296 2.145 . S
N331 C332 1.397 . S
N331 C333 1.334 . S
C332 H313 0.929 . S
C332 C329 1.388 . S
C332 N331 1.397 . S
C333 H314 0.929 . S
C333 C330 1.404 . S
C333 N331 1.334 . S
C334 H326 0.930 . S
C334 C329 1.418 . S
C334 C330 1.353 . S
C335 H305 0.930 . S
C335 N336 1.330 . S
C335 C337 1.446 . S
N336 Co295 2.151 . S
N336 C335 1.330 . S
N336 C340 1.418 . S
C337 H316 0.929 . S
C337 C335 1.446 . S
C337 C338 1.332 . S
C338 H318 0.931 . S
C338 C337 1.332 . S
C338 C339 1.267 . S
C339 H307 0.929 . S
C339 C338 1.267 . S
C339 C340 1.251 . S
C340 H310 0.929 . S
C340 N336 1.418 . S
C340 C339 1.251 . S
C341 H308 0.930 . S
C341 C343 1.406 . S
C341 C346 1.261 . S
C342 H309 0.930 . S
C342 N344 1.325 . S
C342 C345 1.357 . S
C343 H311 0.928 . S
C343 C341 1.406 . S
C343 N344 1.261 . S
N344 Co295 2.214 . S
N344 C342 1.325 . S
N344 C343 1.261 . S
C345 H315 0.931 . S
C345 C342 1.357 . S
C345 C346 1.312 . S
C346 H317 0.930 . S
C346 C341 1.261 . S
C346 C345 1.312 . S
C347 O319 1.214 . S
C347 O327 1.234 . S
C348 H320 0.929 . S
C348 C351 1.391 . S
C348 C353 1.391 . S
C349 H321 0.929 . S
C349 C350 1.390 . S
C349 N352 1.391 . S
C350 H322 0.930 . S
C350 C349 1.390 . S
C350 C351 1.392 . S
C351 H323 0.929 . S
C351 C348 1.391 . S
C351 C350 1.392 . S
N352 Co296 2.257 . S
N352 C349 1.391 . S
N352 C353 1.388 . S
C353 H324 0.930 . S
C353 C348 1.391 . S
C353 N352 1.388 . S
Co354 O356 2.143 . S
Co354 O362 2.074 . S
Co354 O365 2.093 . S
Co354 O378 2.097 . S
Co354 N395 2.151 . S
Co354 N403 2.214 . S
Co355 O356 2.160 . S
Co355 O361 2.058 . S
Co355 O371 2.057 . S
Co355 O386 2.037 . S
Co355 N390 2.145 . S
Co355 N411 2.257 . S
O356 Co354 2.143 . S
O356 Co355 2.160 . S
C357 O358 1.278 . S
C357 O365 1.224 . S
O358 C357 1.278 . S
C359 O360 1.245 . S
C359 O371 1.232 . S
O360 C359 1.245 . S
O361 Co355 2.058 . S
O361 C387 1.269 . S
O362 Co354 2.074 . S
O362 C387 1.257 . S
H363 C388 0.930 . S
H364 C394 0.930 . S
O365 Co354 2.093 . S
O365 C357 1.224 . S
H366 C398 0.929 . S
H367 C400 0.930 . S
H368 C401 0.930 . S
H369 C399 0.929 . S
H370 C402 0.928 . S
O371 Co355 2.057 . S
O371 C359 1.232 . S
H372 C391 0.929 . S
H373 C392 0.929 . S
H374 C404 0.931 . S
H375 C396 0.929 . S
H376 C405 0.930 . S
H377 C397 0.931 . S
O378 Co354 2.097 . S
O378 C406 1.214 . S
H379 C407 0.929 . S
H380 C408 0.929 . S
H381 C409 0.930 . S
H382 C410 0.929 . S
H383 C412 0.930 . S
H384 C389 0.930 . S
H385 C393 0.930 . S
O386 Co355 2.037 . S
O386 C406 1.234 . S
C387 O361 1.269 . S
C387 O362 1.257 . S
C388 H363 0.930 . S
C388 C391 1.388 . S
C388 C393 1.418 . S
C389 H384 0.930 . S
C389 C392 1.404 . S
C389 C393 1.353 . S
N390 Co355 2.145 . S
N390 C391 1.397 . S
N390 C392 1.334 . S
C391 H372 0.929 . S
C391 C388 1.388 . S
C391 N390 1.397 . S
C392 H373 0.929 . S
C392 C389 1.404 . S
C392 N390 1.334 . S
C393 H385 0.930 . S
C393 C388 1.418 . S
C393 C389 1.353 . S
C394 H364 0.930 . S
C394 N395 1.330 . S
C394 C396 1.446 . S
N395 Co354 2.151 . S
N395 C394 1.330 . S
N395 C399 1.418 . S
C396 H375 0.929 . S
C396 C394 1.446 . S
C396 C397 1.332 . S
C397 H377 0.931 . S
C397 C396 1.332 . S
C397 C398 1.267 . S
C398 H366 0.929 . S
C398 C397 1.267 . S
C398 C399 1.251 . S
C399 H369 0.929 . S
C399 N395 1.418 . S
C399 C398 1.251 . S
C400 H367 0.930 . S
C400 C402 1.406 . S
C400 C405 1.261 . S
C401 H368 0.930 . S
C401 N403 1.325 . S
C401 C404 1.357 . S
C402 H370 0.928 . S
C402 C400 1.406 . S
C402 N403 1.261 . S
N403 Co354 2.214 . S
N403 C401 1.325 . S
N403 C402 1.261 . S
C404 H374 0.931 . S
C404 C401 1.357 . S
C404 C405 1.312 . S
C405 H376 0.930 . S
C405 C400 1.261 . S
C405 C404 1.312 . S
C406 O378 1.214 . S
C406 O386 1.234 . S
C407 H379 0.929 . S
C407 C410 1.391 . S
C407 C412 1.391 . S
C408 H380 0.929 . S
C408 C409 1.390 . S
C408 N411 1.391 . S
C409 H381 0.930 . S
C409 C408 1.390 . S
C409 C410 1.392 . S
C410 H382 0.929 . S
C410 C407 1.391 . S
C410 C409 1.392 . S
N411 Co355 2.257 . S
N411 C408 1.391 . S
N411 C412 1.388 . S
C412 H383 0.930 . S
C412 C407 1.391 . S
C412 N411 1.388 . S
Co413 O415 2.143 . S
Co413 O421 2.074 . S
Co413 O424 2.093 . S
Co413 O437 2.097 . S
Co413 N454 2.151 . S
Co413 N462 2.214 . S
Co414 O415 2.160 . S
Co414 O420 2.058 1_556 S
Co414 O430 2.057 1_556 S
Co414 O445 2.037 . S
Co414 N449 2.145 1_556 S
Co414 N470 2.257 . S
O415 Co413 2.143 . S
O415 Co414 2.160 . S
C416 O417 1.278 . S
C416 O424 1.224 . S
O417 C416 1.278 . S
C418 O419 1.245 . S
C418 O430 1.232 1_556 S
O419 C418 1.245 . S
O420 Co414 2.058 1_554 S
O420 C446 1.269 1_554 S
O421 Co413 2.074 . S
O421 C446 1.257 . S
H422 C447 0.930 . S
H423 C453 0.930 . S
O424 Co413 2.093 . S
O424 C416 1.224 . S
H425 C457 0.929 . S
H426 C459 0.930 . S
H427 C460 0.930 . S
H428 C458 0.929 . S
H429 C461 0.928 . S
O430 Co414 2.057 1_554 S
O430 C418 1.232 1_554 S
H431 C450 0.929 . S
H432 C451 0.929 . S
H433 C463 0.931 . S
H434 C455 0.929 . S
H435 C464 0.930 . S
H436 C456 0.931 . S
O437 Co413 2.097 . S
O437 C465 1.214 . S
H438 C466 0.929 . S
H439 C467 0.929 . S
H440 C468 0.930 . S
H441 C469 0.929 . S
H442 C471 0.930 . S
H443 C448 0.930 . S
H444 C452 0.930 . S
O445 Co414 2.037 . S
O445 C465 1.234 . S
C446 O420 1.269 1_556 S
C446 O421 1.257 . S
C447 H422 0.930 . S
C447 C450 1.388 . S
C447 C452 1.418 . S
C448 H443 0.930 . S
C448 C451 1.404 . S
C448 C452 1.353 . S
N449 Co414 2.145 1_554 S
N449 C450 1.397 . S
N449 C451 1.334 . S
C450 H431 0.929 . S
C450 C447 1.388 . S
C450 N449 1.397 . S
C451 H432 0.929 . S
C451 C448 1.404 . S
C451 N449 1.334 . S
C452 H444 0.930 . S
C452 C447 1.418 . S
C452 C448 1.353 . S
C453 H423 0.930 . S
C453 N454 1.330 . S
C453 C455 1.446 . S
N454 Co413 2.151 . S
N454 C453 1.330 . S
N454 C458 1.418 . S
C455 H434 0.929 . S
C455 C453 1.446 . S
C455 C456 1.332 . S
C456 H436 0.931 . S
C456 C455 1.332 . S
C456 C457 1.267 . S
C457 H425 0.929 . S
C457 C456 1.267 . S
C457 C458 1.251 . S
C458 H428 0.929 . S
C458 N454 1.418 . S
C458 C457 1.251 . S
C459 H426 0.930 . S
C459 C461 1.406 . S
C459 C464 1.261 . S
C460 H427 0.930 . S
C460 N462 1.325 . S
C460 C463 1.357 . S
C461 H429 0.928 . S
C461 C459 1.406 . S
C461 N462 1.261 . S
N462 Co413 2.214 . S
N462 C460 1.325 . S
N462 C461 1.261 . S
C463 H433 0.931 . S
C463 C460 1.357 . S
C463 C464 1.312 . S
C464 H435 0.930 . S
C464 C459 1.261 . S
C464 C463 1.312 . S
C465 O437 1.214 . S
C465 O445 1.234 . S
C466 H438 0.929 . S
C466 C469 1.391 . S
C466 C471 1.391 . S
C467 H439 0.929 . S
C467 C468 1.390 . S
C467 N470 1.391 . S
C468 H440 0.930 . S
C468 C467 1.390 . S
C468 C469 1.392 . S
C469 H441 0.929 . S
C469 C466 1.391 . S
C469 C468 1.392 . S
N470 Co414 2.257 . S
N470 C467 1.391 . S
N470 C471 1.388 . S
C471 H442 0.930 . S
C471 C466 1.391 . S
C471 N470 1.388 . S
Co472 O474 2.143 . S
Co472 O480 2.074 . S
Co472 O483 2.093 . S
Co472 O496 2.097 . S
Co472 N513 2.151 . S
Co472 N521 2.214 . S
Co473 O474 2.160 . S
Co473 O479 2.058 . S
Co473 O489 2.057 . S
Co473 O504 2.037 . S
Co473 N508 2.145 . S
Co473 N529 2.257 . S
O474 Co472 2.143 . S
O474 Co473 2.160 . S
C475 O476 1.278 . S
C475 O483 1.224 . S
O476 C475 1.278 . S
C477 O478 1.245 . S
C477 O489 1.232 . S
O478 C477 1.245 . S
O479 Co473 2.058 . S
O479 C505 1.269 . S
O480 Co472 2.074 . S
O480 C505 1.257 . S
H481 C506 0.930 . S
H482 C512 0.930 . S
O483 Co472 2.093 . S
O483 C475 1.224 . S
H484 C516 0.929 . S
H485 C518 0.930 . S
H486 C519 0.930 . S
H487 C517 0.929 . S
H488 C520 0.928 . S
O489 Co473 2.057 . S
O489 C477 1.232 . S
H490 C509 0.929 . S
H491 C510 0.929 . S
H492 C522 0.931 . S
H493 C514 0.929 . S
H494 C523 0.930 . S
H495 C515 0.931 . S
O496 Co472 2.097 . S
O496 C524 1.214 . S
H497 C525 0.929 . S
H498 C526 0.929 . S
H499 C527 0.930 . S
H500 C528 0.929 . S
H501 C530 0.930 . S
H502 C507 0.930 . S
H503 C511 0.930 . S
O504 Co473 2.037 . S
O504 C524 1.234 . S
C505 O479 1.269 . S
C505 O480 1.257 . S
C506 H481 0.930 . S
C506 C509 1.388 . S
C506 C511 1.418 . S
C507 H502 0.930 . S
C507 C510 1.404 . S
C507 C511 1.353 . S
N508 Co473 2.145 . S
N508 C509 1.397 . S
N508 C510 1.334 . S
C509 H490 0.929 . S
C509 C506 1.388 . S
C509 N508 1.397 . S
C510 H491 0.929 . S
C510 C507 1.404 . S
C510 N508 1.334 . S
C511 H503 0.930 . S
C511 C506 1.418 . S
C511 C507 1.353 . S
C512 H482 0.930 . S
C512 N513 1.330 . S
C512 C514 1.446 . S
N513 Co472 2.151 . S
N513 C512 1.330 . S
N513 C517 1.418 . S
C514 H493 0.929 . S
C514 C512 1.446 . S
C514 C515 1.332 . S
C515 H495 0.931 . S
C515 C514 1.332 . S
C515 C516 1.267 . S
C516 H484 0.929 . S
C516 C515 1.267 . S
C516 C517 1.251 . S
C517 H487 0.929 . S
C517 N513 1.418 . S
C517 C516 1.251 . S
C518 H485 0.930 . S
C518 C520 1.406 . S
C518 C523 1.261 . S
C519 H486 0.930 . S
C519 N521 1.325 . S
C519 C522 1.357 . S
C520 H488 0.928 . S
C520 C518 1.406 . S
C520 N521 1.261 . S
N521 Co472 2.214 . S
N521 C519 1.325 . S
N521 C520 1.261 . S
C522 H492 0.931 . S
C522 C519 1.357 . S
C522 C523 1.312 . S
C523 H494 0.930 . S
C523 C518 1.261 . S
C523 C522 1.312 . S
C524 O496 1.214 . S
C524 O504 1.234 . S
C525 H497 0.929 . S
C525 C528 1.391 . S
C525 C530 1.391 . S
C526 H498 0.929 . S
C526 C527 1.390 . S
C526 N529 1.391 . S
C527 H499 0.930 . S
C527 C526 1.390 . S
C527 C528 1.392 . S
C528 H500 0.929 . S
C528 C525 1.391 . S
C528 C527 1.392 . S
N529 Co473 2.257 . S
N529 C526 1.391 . S
N529 C530 1.388 . S
C530 H501 0.930 . S
C530 C525 1.391 . S
C530 N529 1.388 . S
Co531 O533 2.143 . S
Co531 O539 2.074 . S
Co531 O542 2.093 . S
Co531 O555 2.097 . S
Co531 N572 2.151 . S
Co531 N580 2.214 . S
Co532 O533 2.160 . S
Co532 O538 2.058 1_556 S
Co532 O548 2.057 1_556 S
Co532 O563 2.037 . S
Co532 N567 2.145 1_556 S
Co532 N588 2.257 . S
O533 Co531 2.143 . S
O533 Co532 2.160 . S
C534 O535 1.278 . S
C534 O542 1.224 . S
O535 C534 1.278 . S
C536 O537 1.245 . S
C536 O548 1.232 1_556 S
O537 C536 1.245 . S
O538 Co532 2.058 1_554 S
O538 C564 1.269 1_554 S
O539 Co531 2.074 . S
O539 C564 1.257 . S
H540 C565 0.930 . S
H541 C571 0.930 . S
O542 Co531 2.093 . S
O542 C534 1.224 . S
H543 C575 0.929 . S
H544 C577 0.930 . S
H545 C578 0.930 . S
H546 C576 0.929 . S
H547 C579 0.928 . S
O548 Co532 2.057 1_554 S
O548 C536 1.232 1_554 S
H549 C568 0.929 . S
H550 C569 0.929 . S
H551 C581 0.931 . S
H552 C573 0.929 . S
H553 C582 0.930 . S
H554 C574 0.931 . S
O555 Co531 2.097 . S
O555 C583 1.214 . S
H556 C584 0.929 . S
H557 C585 0.929 . S
H558 C586 0.930 . S
H559 C587 0.929 . S
H560 C589 0.930 . S
H561 C566 0.930 . S
H562 C570 0.930 . S
O563 Co532 2.037 . S
O563 C583 1.234 . S
C564 O538 1.269 1_556 S
C564 O539 1.257 . S
C565 H540 0.930 . S
C565 C568 1.388 . S
C565 C570 1.418 . S
C566 H561 0.930 . S
C566 C569 1.404 . S
C566 C570 1.353 . S
N567 Co532 2.145 1_554 S
N567 C568 1.397 . S
N567 C569 1.334 . S
C568 H549 0.929 . S
C568 C565 1.388 . S
C568 N567 1.397 . S
C569 H550 0.929 . S
C569 C566 1.404 . S
C569 N567 1.334 . S
C570 H562 0.930 . S
C570 C565 1.418 . S
C570 C566 1.353 . S
C571 H541 0.930 . S
C571 N572 1.330 . S
C571 C573 1.446 . S
N572 Co531 2.151 . S
N572 C571 1.330 . S
N572 C576 1.418 . S
C573 H552 0.929 . S
C573 C571 1.446 . S
C573 C574 1.332 . S
C574 H554 0.931 . S
C574 C573 1.332 . S
C574 C575 1.267 . S
C575 H543 0.929 . S
C575 C574 1.267 . S
C575 C576 1.251 . S
C576 H546 0.929 . S
C576 N572 1.418 . S
C576 C575 1.251 . S
C577 H544 0.930 . S
C577 C579 1.406 . S
C577 C582 1.261 . S
C578 H545 0.930 . S
C578 N580 1.325 . S
C578 C581 1.357 . S
C579 H547 0.928 . S
C579 C577 1.406 . S
C579 N580 1.261 . S
N580 Co531 2.214 . S
N580 C578 1.325 . S
N580 C579 1.261 . S
C581 H551 0.931 . S
C581 C578 1.357 . S
C581 C582 1.312 . S
C582 H553 0.930 . S
C582 C577 1.261 . S
C582 C581 1.312 . S
C583 O555 1.214 . S
C583 O563 1.234 . S
C584 H556 0.929 . S
C584 C587 1.391 . S
C584 C589 1.391 . S
C585 H557 0.929 . S
C585 C586 1.390 . S
C585 N588 1.391 . S
C586 H558 0.930 . S
C586 C585 1.390 . S
C586 C587 1.392 . S
C587 H559 0.929 . S
C587 C584 1.391 . S
C587 C586 1.392 . S
N588 Co532 2.257 . S
N588 C585 1.391 . S
N588 C589 1.388 . S
C589 H560 0.930 . S
C589 C584 1.391 . S
C589 N588 1.388 . S
Co590 O592 2.143 . S
Co590 O598 2.074 . S
Co590 O601 2.093 . S
Co590 O614 2.097 . S
Co590 N631 2.151 . S
Co590 N639 2.214 . S
Co591 O592 2.160 . S
Co591 O597 2.058 . S
Co591 O607 2.057 . S
Co591 O622 2.037 . S
Co591 N626 2.145 . S
Co591 N647 2.257 . S
O592 Co590 2.143 . S
O592 Co591 2.160 . S
C593 O594 1.278 . S
C593 O601 1.224 . S
O594 C593 1.278 . S
C595 O596 1.245 . S
C595 O607 1.232 . S
O596 C595 1.245 . S
O597 Co591 2.058 . S
O597 C623 1.269 . S
O598 Co590 2.074 . S
O598 C623 1.257 . S
H599 C624 0.930 . S
H600 C630 0.930 . S
O601 Co590 2.093 . S
O601 C593 1.224 . S
H602 C634 0.929 . S
H603 C636 0.930 . S
H604 C637 0.930 . S
H605 C635 0.929 . S
H606 C638 0.928 . S
O607 Co591 2.057 . S
O607 C595 1.232 . S
H608 C627 0.929 . S
H609 C628 0.929 . S
H610 C640 0.931 . S
H611 C632 0.929 . S
H612 C641 0.930 . S
H613 C633 0.931 . S
O614 Co590 2.097 . S
O614 C642 1.214 . S
H615 C643 0.929 . S
H616 C644 0.929 . S
H617 C645 0.930 . S
H618 C646 0.929 . S
H619 C648 0.930 . S
H620 C625 0.930 . S
H621 C629 0.930 . S
O622 Co591 2.037 . S
O622 C642 1.234 . S
C623 O597 1.269 . S
C623 O598 1.257 . S
C624 H599 0.930 . S
C624 C627 1.388 . S
C624 C629 1.418 . S
C625 H620 0.930 . S
C625 C628 1.404 . S
C625 C629 1.353 . S
N626 Co591 2.145 . S
N626 C627 1.397 . S
N626 C628 1.334 . S
C627 H608 0.929 . S
C627 C624 1.388 . S
C627 N626 1.397 . S
C628 H609 0.929 . S
C628 C625 1.404 . S
C628 N626 1.334 . S
C629 H621 0.930 . S
C629 C624 1.418 . S
C629 C625 1.353 . S
C630 H600 0.930 . S
C630 N631 1.330 . S
C630 C632 1.446 . S
N631 Co590 2.151 . S
N631 C630 1.330 . S
N631 C635 1.418 . S
C632 H611 0.929 . S
C632 C630 1.446 . S
C632 C633 1.332 . S
C633 H613 0.931 . S
C633 C632 1.332 . S
C633 C634 1.267 . S
C634 H602 0.929 . S
C634 C633 1.267 . S
C634 C635 1.251 . S
C635 H605 0.929 . S
C635 N631 1.418 . S
C635 C634 1.251 . S
C636 H603 0.930 . S
C636 C638 1.406 . S
C636 C641 1.261 . S
C637 H604 0.930 . S
C637 N639 1.325 . S
C637 C640 1.357 . S
C638 H606 0.928 . S
C638 C636 1.406 . S
C638 N639 1.261 . S
N639 Co590 2.214 . S
N639 C637 1.325 . S
N639 C638 1.261 . S
C640 H610 0.931 . S
C640 C637 1.357 . S
C640 C641 1.312 . S
C641 H612 0.930 . S
C641 C636 1.261 . S
C641 C640 1.312 . S
C642 O614 1.214 . S
C642 O622 1.234 . S
C643 H615 0.929 . S
C643 C646 1.391 . S
C643 C648 1.391 . S
C644 H616 0.929 . S
C644 C645 1.390 . S
C644 N647 1.391 . S
C645 H617 0.930 . S
C645 C644 1.390 . S
C645 C646 1.392 . S
C646 H618 0.929 . S
C646 C643 1.391 . S
C646 C645 1.392 . S
N647 Co591 2.257 . S
N647 C644 1.391 . S
N647 C648 1.388 . S
C648 H619 0.930 . S
C648 C643 1.391 . S
C648 N647 1.388 . S
Co649 O651 2.143 . S
Co649 O657 2.074 . S
Co649 O660 2.093 1_556 S
Co649 O673 2.097 . S
Co649 N690 2.151 . S
Co649 N698 2.214 1_556 S
Co650 O651 2.160 . S
Co650 O656 2.058 . S
Co650 O666 2.057 . S
Co650 O681 2.037 . S
Co650 N685 2.145 . S
Co650 N706 2.257 . S
O651 Co649 2.143 . S
O651 Co650 2.160 . S
C652 O653 1.278 . S
C652 O660 1.224 1_556 S
O653 C652 1.278 . S
C654 O655 1.245 . S
C654 O666 1.232 . S
O655 C654 1.245 . S
O656 Co650 2.058 . S
O656 C682 1.269 . S
O657 Co649 2.074 . S
O657 C682 1.257 . S
H658 C683 0.930 . S
H659 C689 0.930 . S
O660 Co649 2.093 1_554 S
O660 C652 1.224 1_554 S
H661 C693 0.929 . S
H662 C695 0.930 . S
H663 C696 0.930 . S
H664 C694 0.929 . S
H665 C697 0.928 . S
O666 Co650 2.057 . S
O666 C654 1.232 . S
H667 C686 0.929 . S
H668 C687 0.929 . S
H669 C699 0.931 . S
H670 C691 0.929 . S
H671 C700 0.930 . S
H672 C692 0.931 . S
O673 Co649 2.097 . S
O673 C701 1.214 . S
H674 C702 0.929 . S
H675 C703 0.929 . S
H676 C704 0.930 . S
H677 C705 0.929 . S
H678 C707 0.930 . S
H679 C684 0.930 . S
H680 C688 0.930 . S
O681 Co650 2.037 . S
O681 C701 1.234 . S
C682 O656 1.269 . S
C682 O657 1.257 . S
C683 H658 0.930 . S
C683 C686 1.388 . S
C683 C688 1.418 . S
C684 H679 0.930 . S
C684 C687 1.404 . S
C684 C688 1.353 . S
N685 Co650 2.145 . S
N685 C686 1.397 . S
N685 C687 1.334 . S
C686 H667 0.929 . S
C686 C683 1.388 . S
C686 N685 1.397 . S
C687 H668 0.929 . S
C687 C684 1.404 . S
C687 N685 1.334 . S
C688 H680 0.930 . S
C688 C683 1.418 . S
C688 C684 1.353 . S
C689 H659 0.930 . S
C689 N690 1.330 . S
C689 C691 1.446 . S
N690 Co649 2.151 . S
N690 C689 1.330 . S
N690 C694 1.418 1_556 S
C691 H670 0.929 . S
C691 C689 1.446 . S
C691 C692 1.332 1_556 S
C692 H672 0.931 . S
C692 C691 1.332 1_554 S
C692 C693 1.267 . S
C693 H661 0.929 . S
C693 C692 1.267 . S
C693 C694 1.251 . S
C694 H664 0.929 . S
C694 N690 1.418 1_554 S
C694 C693 1.251 . S
C695 H662 0.930 . S
C695 C697 1.406 . S
C695 C700 1.261 . S
C696 H663 0.930 . S
C696 N698 1.325 . S
C696 C699 1.357 . S
C697 H665 0.928 . S
C697 C695 1.406 . S
C697 N698 1.261 . S
N698 Co649 2.214 1_554 S
N698 C696 1.325 . S
N698 C697 1.261 . S
C699 H669 0.931 . S
C699 C696 1.357 . S
C699 C700 1.312 . S
C700 H671 0.930 . S
C700 C695 1.261 . S
C700 C699 1.312 . S
C701 O673 1.214 . S
C701 O681 1.234 . S
C702 H674 0.929 . S
C702 C705 1.391 . S
C702 C707 1.391 . S
C703 H675 0.929 . S
C703 C704 1.390 . S
C703 N706 1.391 . S
C704 H676 0.930 . S
C704 C703 1.390 . S
C704 C705 1.392 . S
C705 H677 0.929 . S
C705 C702 1.391 . S
C705 C704 1.392 . S
N706 Co650 2.257 . S
N706 C703 1.391 . S
N706 C707 1.388 . S
C707 H678 0.930 . S
C707 C702 1.391 . S
C707 N706 1.388 . S
C708 C709 1.363 . S
C708 C714 1.379 . S
C708 N716 1.356 . S
C709 C708 1.363 . S
C709 C715 1.363 . S
C710 C711 1.363 . S
C710 C715 1.379 . S
C710 N717 1.356 . S
C711 C710 1.363 . S
C711 C714 1.363 . S
N712 C714 1.356 . S
N712 H724 0.984 . S
N712 H725 0.985 . S
N713 C715 1.356 . S
N713 H718 0.984 . S
N713 H719 0.985 . S
C714 C708 1.379 . S
C714 C711 1.363 . S
C714 N712 1.356 . S
C715 C709 1.363 . S
C715 C710 1.379 . S
C715 N713 1.356 . S
N716 C708 1.356 . S
N716 H722 0.984 . S
N716 H723 0.984 . S
N717 C710 1.356 . S
N717 H720 0.984 . S
N717 H721 0.985 . S
H718 N713 0.984 . S
H719 N713 0.985 . S
H720 N717 0.984 . S
H721 N717 0.985 . S
H722 N716 0.984 . S
H723 N716 0.984 . S
H724 N712 0.984 . S
H725 N712 0.985 . S
C726 C727 1.363 . S
C726 C732 1.379 . S
C726 N734 1.356 . S
C727 C726 1.363 . S
C727 C733 1.363 . S
C728 C729 1.363 . S
C728 C733 1.379 . S
C728 N735 1.356 . S
C729 C728 1.363 . S
C729 C732 1.363 . S
N730 C732 1.356 . S
N730 H742 0.984 . S
N730 H743 0.985 . S
N731 C733 1.356 . S
N731 H736 0.984 . S
N731 H737 0.985 . S
C732 C726 1.379 . S
C732 C729 1.363 . S
C732 N730 1.356 . S
C733 C727 1.363 . S
C733 C728 1.379 . S
C733 N731 1.356 . S
N734 C726 1.356 . S
N734 H740 0.984 . S
N734 H741 0.984 . S
N735 C728 1.356 . S
N735 H738 0.984 . S
N735 H739 0.985 . S
H736 N731 0.984 . S
H737 N731 0.985 . S
H738 N735 0.984 . S
H739 N735 0.985 . S
H740 N734 0.984 . S
H741 N734 0.984 . S
H742 N730 0.984 . S
H743 N730 0.985 . S
C744 C745 1.363 . S
C744 C750 1.379 . S
C744 N752 1.356 . S
C745 C744 1.363 . S
C745 C751 1.363 . S
C746 C747 1.363 . S
C746 C751 1.379 . S
C746 N753 1.356 . S
C747 C746 1.363 . S
C747 C750 1.363 . S
N748 C750 1.356 . S
N748 H760 0.984 . S
N748 H761 0.985 . S
N749 C751 1.356 . S
N749 H754 0.984 . S
N749 H755 0.985 . S
C750 C744 1.379 . S
C750 C747 1.363 . S
C750 N748 1.356 . S
C751 C745 1.363 . S
C751 C746 1.379 . S
C751 N749 1.356 . S
N752 C744 1.356 . S
N752 H758 0.984 . S
N752 H759 0.984 . S
N753 C746 1.356 . S
N753 H756 0.984 . S
N753 H757 0.985 . S
H754 N749 0.984 . S
H755 N749 0.985 . S
H756 N753 0.984 . S
H757 N753 0.985 . S
H758 N752 0.984 . S
H759 N752 0.984 . S
H760 N748 0.984 . S
H761 N748 0.985 . S
C762 C763 1.363 . S
C762 C768 1.379 . S
C762 N770 1.356 . S
C763 C762 1.363 . S
C763 C769 1.363 . S
C764 C765 1.363 . S
C764 C769 1.379 . S
C764 N771 1.356 . S
C765 C764 1.363 . S
C765 C768 1.363 . S
N766 C768 1.356 . S
N766 H778 0.984 . S
N766 H779 0.985 . S
N767 C769 1.356 . S
N767 H772 0.984 . S
N767 H773 0.985 . S
C768 C762 1.379 . S
C768 C765 1.363 . S
C768 N766 1.356 . S
C769 C763 1.363 . S
C769 C764 1.379 . S
C769 N767 1.356 . S
N770 C762 1.356 . S
N770 H776 0.984 . S
N770 H777 0.984 . S
N771 C764 1.356 . S
N771 H774 0.984 . S
N771 H775 0.985 . S
H772 N767 0.984 . S
H773 N767 0.985 . S
H774 N771 0.984 . S
H775 N771 0.985 . S
H776 N770 0.984 . S
H777 N770 0.984 . S
H778 N766 0.984 . S
H779 N766 0.985 . S
C780 C781 1.363 . S
C780 C786 1.379 . S
C780 N788 1.356 . S
C781 C780 1.363 . S
C781 C787 1.363 . S
C782 C783 1.363 . S
C782 C787 1.379 . S
C782 N789 1.356 . S
C783 C782 1.363 . S
C783 C786 1.363 . S
N784 C786 1.356 . S
N784 H796 0.984 . S
N784 H797 0.985 . S
N785 C787 1.356 . S
N785 H790 0.984 . S
N785 H791 0.985 . S
C786 C780 1.379 . S
C786 C783 1.363 . S
C786 N784 1.356 . S
C787 C781 1.363 . S
C787 C782 1.379 . S
C787 N785 1.356 . S
N788 C780 1.356 . S
N788 H794 0.984 . S
N788 H795 0.984 . S
N789 C782 1.356 . S
N789 H792 0.984 . S
N789 H793 0.985 . S
H790 N785 0.984 . S
H791 N785 0.985 . S
H792 N789 0.984 . S
H793 N789 0.985 . S
H794 N788 0.984 . S
H795 N788 0.984 . S
H796 N784 0.984 . S
H797 N784 0.985 . S
C798 C799 1.363 . S
C798 C804 1.379 . S
C798 N806 1.356 . S
C799 C798 1.363 . S
C799 C805 1.363 . S
C800 C801 1.363 . S
C800 C805 1.379 . S
C800 N807 1.356 . S
C801 C800 1.363 . S
C801 C804 1.363 . S
N802 C804 1.356 . S
N802 H814 0.984 . S
N802 H815 0.985 . S
N803 C805 1.356 . S
N803 H808 0.984 . S
N803 H809 0.985 . S
C804 C798 1.379 . S
C804 C801 1.363 . S
C804 N802 1.356 . S
C805 C799 1.363 . S
C805 C800 1.379 . S
C805 N803 1.356 . S
N806 C798 1.356 . S
N806 H812 0.984 . S
N806 H813 0.984 . S
N807 C800 1.356 . S
N807 H810 0.984 . S
N807 H811 0.985 . S
H808 N803 0.984 . S
H809 N803 0.985 . S
H810 N807 0.984 . S
H811 N807 0.985 . S
H812 N806 0.984 . S
H813 N806 0.984 . S
H814 N802 0.984 . S
H815 N802 0.985 . S
C816 C817 1.363 1_556 S
C816 C822 1.379 . S
C816 N824 1.356 . S
C817 C816 1.363 1_554 S
C817 C823 1.363 1_545 S
C818 C819 1.369 . S
C818 C823 1.379 . S
C818 N825 1.356 . S
C819 C818 1.369 . S
C819 C822 1.358 1_564 S
N820 C822 1.356 . S
N820 H832 0.984 . S
N820 H833 0.985 . S
N821 C823 1.356 . S
N821 H826 0.984 1_565 S
N821 H827 0.985 . S
C822 C816 1.379 . S
C822 C819 1.358 1_546 S
C822 N820 1.356 . S
C823 C817 1.363 1_565 S
C823 C818 1.379 . S
C823 N821 1.356 . S
N824 C816 1.356 . S
N824 H830 0.984 . S
N824 H831 0.984 . S
N825 C818 1.356 . S
N825 H828 0.984 . S
N825 H829 0.985 . S
H826 N821 0.984 1_545 S
H827 N821 0.985 . S
H828 N825 0.984 . S
H829 N825 0.985 . S
H830 N824 0.984 . S
H831 N824 0.984 . S
H832 N820 0.984 . S
H833 N820 0.985 . S
C834 C835 1.363 . S
C834 C840 1.379 . S
C834 N842 1.356 . S
C835 C834 1.363 . S
C835 C841 1.363 . S
C836 C837 1.363 . S
C836 C841 1.379 . S
C836 N843 1.356 . S
C837 C836 1.363 . S
C837 C840 1.363 . S
N838 C840 1.356 . S
N838 H850 0.984 . S
N838 H851 0.985 . S
N839 C841 1.356 . S
N839 H844 0.984 . S
N839 H845 0.985 . S
C840 C834 1.379 . S
C840 C837 1.363 . S
C840 N838 1.356 . S
C841 C835 1.363 . S
C841 C836 1.379 . S
C841 N839 1.356 . S
N842 C834 1.356 . S
N842 H848 0.984 . S
N842 H849 0.984 . S
N843 C836 1.356 . S
N843 H846 0.984 . S
N843 H847 0.985 . S
H844 N839 0.984 . S
H845 N839 0.985 . S
H846 N843 0.984 . S
H847 N843 0.985 . S
H848 N842 0.984 . S
H849 N842 0.984 . S
H850 N838 0.984 . S
H851 N838 0.985 . S
C852 C853 1.363 1_554 S
C852 C858 1.379 1_455 S
C852 N860 1.356 . S
C853 C852 1.363 1_556 S
C853 C859 1.363 . S
C854 C855 1.363 1_556 S
C854 C859 1.379 1_655 S
C854 N861 1.356 . S
C855 C854 1.363 1_554 S
C855 C858 1.363 . S
N856 C858 1.356 . S
N856 H868 0.984 . S
N856 H869 0.985 . S
N857 C859 1.356 . S
N857 H862 0.984 . S
N857 H863 0.985 . S
C858 C852 1.379 1_655 S
C858 C855 1.363 . S
C858 N856 1.356 . S
C859 C853 1.363 . S
C859 C854 1.379 1_455 S
C859 N857 1.356 . S
N860 C852 1.356 . S
N860 H866 0.984 . S
N860 H867 0.984 . S
N861 C854 1.356 . S
N861 H864 0.984 . S
N861 H865 0.985 . S
H862 N857 0.984 . S
H863 N857 0.985 . S
H864 N861 0.984 . S
H865 N861 0.985 . S
H866 N860 0.984 . S
H867 N860 0.984 . S
H868 N856 0.984 . S
H869 N856 0.985 . S
C870 C871 1.363 1_565 S
C870 C876 1.379 . S
C870 N878 1.356 . S
C871 C870 1.363 1_545 S
C871 C877 1.363 . S
C872 C873 1.363 1_545 S
C872 C877 1.379 . S
C872 N879 1.356 . S
C873 C872 1.363 1_565 S
C873 C876 1.363 . S
N874 C876 1.356 . S
N874 H886 0.984 . S
N874 H887 0.985 . S
N875 C877 1.356 . S
N875 H880 0.984 . S
N875 H881 0.985 . S
C876 C870 1.379 . S
C876 C873 1.363 . S
C876 N874 1.356 . S
C877 C871 1.363 . S
C877 C872 1.379 . S
C877 N875 1.356 . S
N878 C870 1.356 . S
N878 H884 0.984 . S
N878 H885 0.984 . S
N879 C872 1.356 . S
N879 H882 0.984 1_545 S
N879 H883 0.985 . S
H880 N875 0.984 . S
H881 N875 0.985 . S
H882 N879 0.984 1_565 S
H883 N879 0.985 . S
H884 N878 0.984 . S
H885 N878 0.984 . S
H886 N874 0.984 . S
H887 N874 0.985 . S
C888 C889 1.363 . S
C888 C894 1.379 . S
C888 N896 1.356 . S
C889 C888 1.363 . S
C889 C895 1.363 1_556 S
C890 C891 1.363 1_554 S
C890 C895 1.379 . S
C890 N897 1.356 . S
C891 C890 1.363 1_556 S
C891 C894 1.363 . S
N892 C894 1.356 . S
N892 H904 0.984 . S
N892 H905 0.985 . S
N893 C895 1.356 . S
N893 H898 0.984 . S
N893 H899 0.985 . S
C894 C888 1.379 . S
C894 C891 1.363 . S
C894 N892 1.356 . S
C895 C889 1.363 1_554 S
C895 C890 1.379 . S
C895 N893 1.356 . S
N896 C888 1.356 . S
N896 H902 0.984 . S
N896 H903 0.984 . S
N897 C890 1.356 . S
N897 H900 0.984 . S
N897 H901 0.985 . S
H898 N893 0.984 . S
H899 N893 0.985 . S
H900 N897 0.984 . S
H901 N897 0.985 . S
H902 N896 0.984 . S
H903 N896 0.984 . S
H904 N892 0.984 . S
H905 N892 0.985 . S
C906 C907 1.363 . S
C906 C912 1.379 1_655 S
C906 N914 1.356 . S
C907 C906 1.363 . S
C907 C913 1.363 . S
C908 C909 1.363 . S
C908 C913 1.379 1_455 S
C908 N915 1.356 . S
C909 C908 1.363 . S
C909 C912 1.363 . S
N910 C912 1.356 . S
N910 H922 0.984 . S
N910 H923 0.985 . S
N911 C913 1.356 . S
N911 H916 0.984 . S
N911 H917 0.985 . S
C912 C906 1.379 1_455 S
C912 C909 1.363 . S
C912 N910 1.356 . S
C913 C907 1.363 . S
C913 C908 1.379 1_655 S
C913 N911 1.356 . S
N914 C906 1.356 . S
N914 H920 0.984 . S
N914 H921 0.984 . S
N915 C908 1.356 . S
N915 H918 0.984 . S
N915 H919 0.985 . S
H916 N911 0.984 . S
H917 N911 0.985 . S
H918 N915 0.984 . S
H919 N915 0.985 . S
H920 N914 0.984 . S
H921 N914 0.984 . S
H922 N910 0.984 . S
H923 N910 0.985 . S
C924 C925 1.363 . S
C924 C930 1.379 . S
C924 N932 1.356 1_554 S
C925 C924 1.363 . S
C925 C931 1.363 . S
C926 C927 1.363 . S
C926 C931 1.379 . S
C926 N933 1.356 . S
C927 C926 1.363 . S
C927 C930 1.363 . S
N928 C930 1.356 . S
N928 H940 0.984 1_554 S
N928 H941 0.985 . S
N929 C931 1.356 . S
N929 H934 0.984 . S
N929 H935 0.985 . S
C930 C924 1.379 . S
C930 C927 1.363 . S
C930 N928 1.356 . S
C931 C925 1.363 . S
C931 C926 1.379 . S
C931 N929 1.356 . S
N932 C924 1.356 1_556 S
N932 H938 0.984 . S
N932 H939 0.984 . S
N933 C926 1.356 . S
N933 H936 0.984 . S
N933 H937 0.985 . S
H934 N929 0.984 . S
H935 N929 0.985 . S
H936 N933 0.984 . S
H937 N933 0.985 . S
H938 N932 0.984 . S
H939 N932 0.984 . S
H940 N928 0.984 1_556 S
H941 N928 0.985 . S
C942 C943 1.363 . S
C942 C948 1.379 . S
C942 N950 1.356 . S
C943 C942 1.363 . S
C943 C949 1.363 . S
C944 C945 1.363 . S
C944 C949 1.379 . S
C944 N951 1.356 . S
C945 C944 1.363 . S
C945 C948 1.363 . S
N946 C948 1.356 . S
N946 H958 0.984 . S
N946 H959 0.985 . S
N947 C949 1.356 . S
N947 H952 0.984 . S
N947 H953 0.985 . S
C948 C942 1.379 . S
C948 C945 1.363 . S
C948 N946 1.356 . S
C949 C943 1.363 . S
C949 C944 1.379 . S
C949 N947 1.356 . S
N950 C942 1.356 . S
N950 H956 0.984 . S
N950 H957 0.984 . S
N951 C944 1.356 . S
N951 H954 0.984 . S
N951 H955 0.985 . S
H952 N947 0.984 . S
H953 N947 0.985 . S
H954 N951 0.984 . S
H955 N951 0.985 . S
H956 N950 0.984 . S
H957 N950 0.984 . S
H958 N946 0.984 . S
H959 N946 0.985 . S
C960 C961 1.363 . S
C960 C966 1.379 . S
C960 N968 1.356 . S
C961 C960 1.363 . S
C961 C967 1.363 1_554 S
C962 C963 1.363 . S
C962 C967 1.379 1_554 S
C962 N969 1.356 1_554 S
C963 C962 1.363 . S
C963 C966 1.363 . S
N964 C966 1.356 . S
N964 H976 0.984 . S
N964 H977 0.985 . S
N965 C967 1.356 . S
N965 H970 0.984 . S
N965 H971 0.985 . S
C966 C960 1.379 . S
C966 C963 1.363 . S
C966 N964 1.356 . S
C967 C961 1.363 1_556 S
C967 C962 1.379 1_556 S
C967 N965 1.356 . S
N968 C960 1.356 . S
N968 H974 0.984 . S
N968 H975 0.984 . S
N969 C962 1.356 1_556 S
N969 H972 0.984 1_556 S
N969 H973 0.985 . S
H970 N965 0.984 . S
H971 N965 0.985 . S
H972 N969 0.984 1_554 S
H973 N969 0.985 . S
H974 N968 0.984 . S
H975 N968 0.984 . S
H976 N964 0.984 . S
H977 N964 0.985 . S
C978 C979 1.363 . S
C978 C984 1.379 . S
C978 N986 1.356 . S
C979 C978 1.363 . S
C979 C985 1.363 . S
C980 C981 1.363 . S
C980 C985 1.379 . S
C980 N987 1.356 . S
C981 C980 1.363 . S
C981 C984 1.363 . S
N982 C984 1.356 . S
N982 H994 0.984 . S
N982 H995 0.985 . S
N983 C985 1.356 . S
N983 H988 0.984 . S
N983 H989 0.985 . S
C984 C978 1.379 . S
C984 C981 1.363 . S
C984 N982 1.356 . S
C985 C979 1.363 . S
C985 C980 1.379 . S
C985 N983 1.356 . S
N986 C978 1.356 . S
N986 H992 0.984 . S
N986 H993 0.984 . S
N987 C980 1.356 . S
N987 H990 0.984 . S
N987 H991 0.985 . S
H988 N983 0.984 . S
H989 N983 0.985 . S
H990 N987 0.984 . S
H991 N987 0.985 . S
H992 N986 0.984 . S
H993 N986 0.984 . S
H994 N982 0.984 . S
H995 N982 0.985 . S
C996 C997 1.363 . S
C996 C1002 1.379 . S
C996 N1004 1.356 . S
C997 C996 1.363 . S
C997 C1003 1.363 1_554 S
C998 C999 1.363 . S
C998 C1003 1.379 1_554 S
C998 N1005 1.356 1_554 S
C999 C998 1.363 . S
C999 C1002 1.363 . S
N1000 C1002 1.356 . S
N1000 H1012 0.984 . S
N1000 H1013 0.985 . S
N1001 C1003 1.356 . S
N1001 H1006 0.984 . S
N1001 H1007 0.985 . S
C1002 C996 1.379 . S
C1002 C999 1.363 . S
C1002 N1000 1.356 . S
C1003 C997 1.363 1_556 S
C1003 C998 1.379 1_556 S
C1003 N1001 1.356 . S
N1004 C996 1.356 . S
N1004 H1010 0.984 . S
N1004 H1011 0.984 . S
N1005 C998 1.356 1_556 S
N1005 H1008 0.984 1_556 S
N1005 H1009 0.985 . S
H1006 N1001 0.984 . S
H1007 N1001 0.985 . S
H1008 N1005 0.984 1_554 S
H1009 N1005 0.985 . S
H1010 N1004 0.984 . S
H1011 N1004 0.984 . S
H1012 N1000 0.984 . S
H1013 N1000 0.985 . S
C1014 C1015 1.363 . S
C1014 C1020 1.379 . S
C1014 N1022 1.356 . S
C1015 C1014 1.363 . S
C1015 C1021 1.363 . S
C1016 C1017 1.363 . S
C1016 C1021 1.379 . S
C1016 N1023 1.356 . S
C1017 C1016 1.363 . S
C1017 C1020 1.363 . S
N1018 C1020 1.356 . S
N1018 H1030 0.984 . S
N1018 H1031 0.985 . S
N1019 C1021 1.356 . S
N1019 H1024 0.984 . S
N1019 H1025 0.985 . S
C1020 C1014 1.379 . S
C1020 C1017 1.363 . S
C1020 N1018 1.356 . S
C1021 C1015 1.363 . S
C1021 C1016 1.379 . S
C1021 N1019 1.356 . S
N1022 C1014 1.356 . S
N1022 H1028 0.984 . S
N1022 H1029 0.984 . S
N1023 C1016 1.356 . S
N1023 H1026 0.984 . S
N1023 H1027 0.985 . S
H1024 N1019 0.984 . S
H1025 N1019 0.985 . S
H1026 N1023 0.984 . S
H1027 N1023 0.985 . S
H1028 N1022 0.984 . S
H1029 N1022 0.984 . S
H1030 N1018 0.984 . S
H1031 N1018 0.985 . S
C1032 C1033 1.363 . S
C1032 C1038 1.379 . S
C1032 N1040 1.356 . S
C1033 C1032 1.363 . S
C1033 C1039 1.363 . S
C1034 C1035 1.363 . S
C1034 C1039 1.379 . S
C1034 N1041 1.356 . S
C1035 C1034 1.363 . S
C1035 C1038 1.363 . S
N1036 C1038 1.356 . S
N1036 H1048 0.984 . S
N1036 H1049 0.985 . S
N1037 C1039 1.356 . S
N1037 H1042 0.984 . S
N1037 H1043 0.985 . S
C1038 C1032 1.379 . S
C1038 C1035 1.363 . S
C1038 N1036 1.356 . S
C1039 C1033 1.363 . S
C1039 C1034 1.379 . S
C1039 N1037 1.356 . S
N1040 C1032 1.356 . S
N1040 H1046 0.984 . S
N1040 H1047 0.984 . S
N1041 C1034 1.356 . S
N1041 H1044 0.984 . S
N1041 H1045 0.985 . S
H1042 N1037 0.984 . S
H1043 N1037 0.985 . S
H1044 N1041 0.984 . S
H1045 N1041 0.985 . S
H1046 N1040 0.984 . S
H1047 N1040 0.984 . S
H1048 N1036 0.984 . S
H1049 N1036 0.985 . S
C1050 C1051 1.363 . S
C1050 C1056 1.379 . S
C1050 N1058 1.356 . S
C1051 C1050 1.363 . S
C1051 C1057 1.363 1_556 S
C1052 C1053 1.363 . S
C1052 C1057 1.379 1_556 S
C1052 N1059 1.356 1_556 S
C1053 C1052 1.363 . S
C1053 C1056 1.363 . S
N1054 C1056 1.356 . S
N1054 H1066 0.984 . S
N1054 H1067 0.985 . S
N1055 C1057 1.356 . S
N1055 H1060 0.984 . S
N1055 H1061 0.985 . S
C1056 C1050 1.379 . S
C1056 C1053 1.363 . S
C1056 N1054 1.356 . S
C1057 C1051 1.363 1_554 S
C1057 C1052 1.379 1_554 S
C1057 N1055 1.356 . S
N1058 C1050 1.356 . S
N1058 H1064 0.984 . S
N1058 H1065 0.984 . S
N1059 C1052 1.356 1_554 S
N1059 H1062 0.984 1_554 S
N1059 H1063 0.985 . S
H1060 N1055 0.984 . S
H1061 N1055 0.985 . S
H1062 N1059 0.984 1_556 S
H1063 N1059 0.985 . S
H1064 N1058 0.984 . S
H1065 N1058 0.984 . S
H1066 N1054 0.984 . S
H1067 N1054 0.985 . S
C1068 C1069 1.363 . S
C1068 C1074 1.379 . S
C1068 N1076 1.356 . S
C1069 C1068 1.363 . S
C1069 C1075 1.363 . S
C1070 C1071 1.363 . S
C1070 C1075 1.379 . S
C1070 N1077 1.356 . S
C1071 C1070 1.363 . S
C1071 C1074 1.363 . S
N1072 C1074 1.356 . S
N1072 H1084 0.984 . S
N1072 H1085 0.985 . S
N1073 C1075 1.356 . S
N1073 H1078 0.984 . S
N1073 H1079 0.985 . S
C1074 C1068 1.379 . S
C1074 C1071 1.363 . S
C1074 N1072 1.356 . S
C1075 C1069 1.363 . S
C1075 C1070 1.379 . S
C1075 N1073 1.356 . S
N1076 C1068 1.356 . S
N1076 H1082 0.984 . S
N1076 H1083 0.984 . S
N1077 C1070 1.356 . S
N1077 H1080 0.984 . S
N1077 H1081 0.985 . S
H1078 N1073 0.984 . S
H1079 N1073 0.985 . S
H1080 N1077 0.984 . S
H1081 N1077 0.985 . S
H1082 N1076 0.984 . S
H1083 N1076 0.984 . S
H1084 N1072 0.984 . S
H1085 N1072 0.985 . S
C1086 C1087 1.363 . S
C1086 C1092 1.379 . S
C1086 N1094 1.356 . S
C1087 C1086 1.363 . S
C1087 C1093 1.363 1_556 S
C1088 C1089 1.363 . S
C1088 C1093 1.379 1_556 S
C1088 N1095 1.356 . S
C1089 C1088 1.363 . S
C1089 C1092 1.363 . S
N1090 C1092 1.356 . S
N1090 H1102 0.984 . S
N1090 H1103 0.985 . S
N1091 C1093 1.356 . S
N1091 H1096 0.984 . S
N1091 H1097 0.985 . S
C1092 C1086 1.379 . S
C1092 C1089 1.363 . S
C1092 N1090 1.356 . S
C1093 C1087 1.363 1_554 S
C1093 C1088 1.379 1_554 S
C1093 N1091 1.356 . S
N1094 C1086 1.356 . S
N1094 H1100 0.984 . S
N1094 H1101 0.984 . S
N1095 C1088 1.356 . S
N1095 H1098 0.984 . S
N1095 H1099 0.985 1_556 S
H1096 N1091 0.984 . S
H1097 N1091 0.985 . S
H1098 N1095 0.984 . S
H1099 N1095 0.985 1_554 S
H1100 N1094 0.984 . S
H1101 N1094 0.984 . S
H1102 N1090 0.984 . S
H1103 N1090 0.985 . S
C1104 C1105 1.363 . S
C1104 C1110 1.379 . S
C1104 N1112 1.356 . S
C1105 C1104 1.363 . S
C1105 C1111 1.363 . S
C1106 C1107 1.363 . S
C1106 C1111 1.379 . S
C1106 N1113 1.356 . S
C1107 C1106 1.363 . S
C1107 C1110 1.363 . S
N1108 C1110 1.356 . S
N1108 H1120 0.984 . S
N1108 H1121 0.985 . S
N1109 C1111 1.356 . S
N1109 H1114 0.984 . S
N1109 H1115 0.985 . S
C1110 C1104 1.379 . S
C1110 C1107 1.363 . S
C1110 N1108 1.356 . S
C1111 C1105 1.363 . S
C1111 C1106 1.379 . S
C1111 N1109 1.356 . S
N1112 C1104 1.356 . S
N1112 H1118 0.984 . S
N1112 H1119 0.984 . S
N1113 C1106 1.356 . S
N1113 H1116 0.984 . S
N1113 H1117 0.985 . S
H1114 N1109 0.984 . S
H1115 N1109 0.985 . S
H1116 N1113 0.984 . S
H1117 N1113 0.985 . S
H1118 N1112 0.984 . S
H1119 N1112 0.984 . S
H1120 N1108 0.984 . S
H1121 N1108 0.985 . S
C1122 C1123 1.363 . S
C1122 C1128 1.379 . S
C1122 N1130 1.356 . S
C1123 C1122 1.363 . S
C1123 C1129 1.380 . S
C1124 C1125 1.363 . S
C1124 C1129 1.389 . S
C1124 N1131 1.356 . S
C1125 C1124 1.363 . S
C1125 C1128 1.363 . S
N1126 C1128 1.356 . S
N1126 H1138 0.984 . S
N1126 H1139 0.985 . S
N1127 C1129 1.331 1_554 S
N1127 H1132 0.984 . S
N1127 H1133 0.985 . S
C1128 C1122 1.379 . S
C1128 C1125 1.363 . S
C1128 N1126 1.356 . S
C1129 C1123 1.380 . S
C1129 C1124 1.389 . S
C1129 N1127 1.331 1_556 S
N1130 C1122 1.356 . S
N1130 H1136 0.984 . S
N1130 H1137 0.984 . S
N1131 C1124 1.356 . S
N1131 H1134 0.984 . S
N1131 H1135 0.985 1_556 S
H1132 N1127 0.984 . S
H1133 N1127 0.985 . S
H1134 N1131 0.984 . S
H1135 N1131 0.985 1_554 S
H1136 N1130 0.984 . S
H1137 N1130 0.984 . S
H1138 N1126 0.984 . S
H1139 N1126 0.985 . S
C709 C593 1.744 . S
C711 C3 1.715 . S
C727 C62 1.743 . S
C729 C654 1.724 . S
C745 C123 1.734 . S
C747 C357 1.720 . S
C763 C416 1.744 . S
C765 C180 1.715 . S
C781 C477 1.724 . S
C783 C239 1.743 . S
C799 C300 1.734 . S
C801 C534 1.720 . S
C817 C5 1.553 . S
C819 C418 1.482 1_554 S
C835 C64 1.487 . S
C837 C475 1.550 . S
C853 C536 1.247 . S
C855 C121 1.262 . S
C871 C595 1.485 . S
C873 C182 1.553 . S
C889 C652 1.549 . S
C891 C241 1.487 1_556 S
C907 C359 1.247 . S
C909 C298 1.262 . S
C925 C33 1.507 . S
C927 C288 1.623 . S
C943 C92 1.355 . S
C945 C328 1.657 . S
C961 C170 1.163 . S
C963 C52 1.261 . S
C979 C210 1.507 . S
C981 C111 1.623 . S
C997 C269 1.355 . S
C999 C151 1.657 . S
C1015 C347 1.163 . S
C1017 C229 1.261 . S
C1033 C387 1.165 . S
C1035 C505 1.250 . S
C1051 C446 1.355 . S
C1053 C583 1.652 . S
C1069 C642 1.621 . S
C1071 C524 1.508 . S
C1087 C564 1.165 . S
C1089 C682 1.250 . S
C1105 C623 1.355 . S
C1107 C406 1.652 . S
C1123 C701 1.508 . S
C1125 C465 1.621 . S
