# Generated by pormake.
# Topology wji, (4)-cn, num edge types: 1
# Building blocks:
#     Node 0, Type 0, BuildingBlock: NAHDIM_clean_sbu_0, # of connection points: 4
#     Node 1, Type 0, BuildingBlock: NAHDIM_clean_sbu_0, # of connection points: 4
#     Node 2, Type 0, BuildingBlock: NAHDIM_clean_sbu_0, # of connection points: 4
#     Node 3, Type 0, BuildingBlock: NAHDIM_clean_sbu_0, # of connection points: 4
#     Node 4, Type 0, BuildingBlock: NAHDIM_clean_sbu_0, # of connection points: 4
#     Node 5, Type 0, BuildingBlock: NAHDIM_clean_sbu_0, # of connection points: 4
#     Node 6, Type 0, BuildingBlock: NAHDIM_clean_sbu_0, # of connection points: 4
#     Node 7, Type 0, BuildingBlock: NAHDIM_clean_sbu_0, # of connection points: 4
#     Node 8, Type 0, BuildingBlock: NAHDIM_clean_sbu_0, # of connection points: 4
#     Node 9, Type 0, BuildingBlock: NAHDIM_clean_sbu_0, # of connection points: 4
#     Node 10, Type 0, BuildingBlock: NAHDIM_clean_sbu_0, # of connection points: 4
#     Node 11, Type 0, BuildingBlock: NAHDIM_clean_sbu_0, # of connection points: 4
#     Edge 12, Type (0, 0), BuildingBlock: XUDNAN_clean_linker_2, # of connection points: 2
#     Edge 13, Type (0, 0), BuildingBlock: XUDNAN_clean_linker_2, # of connection points: 2
#     Edge 14, Type (0, 0), BuildingBlock: XUDNAN_clean_linker_2, # of connection points: 2
#     Edge 15, Type (0, 0), BuildingBlock: XUDNAN_clean_linker_2, # of connection points: 2
#     Edge 16, Type (0, 0), BuildingBlock: XUDNAN_clean_linker_2, # of connection points: 2
#     Edge 17, Type (0, 0), BuildingBlock: XUDNAN_clean_linker_2, # of connection points: 2
#     Edge 18, Type (0, 0), BuildingBlock: XUDNAN_clean_linker_2, # of connection points: 2
#     Edge 19, Type (0, 0), BuildingBlock: XUDNAN_clean_linker_2, # of connection points: 2
#     Edge 20, Type (0, 0), BuildingBlock: XUDNAN_clean_linker_2, # of connection points: 2
#     Edge 21, Type (0, 0), BuildingBlock: XUDNAN_clean_linker_2, # of connection points: 2
#     Edge 22, Type (0, 0), BuildingBlock: XUDNAN_clean_linker_2, # of connection points: 2
#     Edge 23, Type (0, 0), BuildingBlock: XUDNAN_clean_linker_2, # of connection points: 2
#     Edge 24, Type (0, 0), BuildingBlock: XUDNAN_clean_linker_2, # of connection points: 2
#     Edge 25, Type (0, 0), BuildingBlock: XUDNAN_clean_linker_2, # of connection points: 2
#     Edge 26, Type (0, 0), BuildingBlock: XUDNAN_clean_linker_2, # of connection points: 2
#     Edge 27, Type (0, 0), BuildingBlock: XUDNAN_clean_linker_2, # of connection points: 2
#     Edge 28, Type (0, 0), BuildingBlock: XUDNAN_clean_linker_2, # of connection points: 2
#     Edge 29, Type (0, 0), BuildingBlock: XUDNAN_clean_linker_2, # of connection points: 2
#     Edge 30, Type (0, 0), BuildingBlock: XUDNAN_clean_linker_2, # of connection points: 2
#     Edge 31, Type (0, 0), BuildingBlock: XUDNAN_clean_linker_2, # of connection points: 2
#     Edge 32, Type (0, 0), BuildingBlock: XUDNAN_clean_linker_2, # of connection points: 2
#     Edge 33, Type (0, 0), BuildingBlock: XUDNAN_clean_linker_2, # of connection points: 2
#     Edge 34, Type (0, 0), BuildingBlock: XUDNAN_clean_linker_2, # of connection points: 2
#     Edge 35, Type (0, 0), BuildingBlock: XUDNAN_clean_linker_2, # of connection points: 2
# Relax obj value: 0.154
# Max RMSD: 0.090
# Mean RMSD: 0.090
data_MOF--net-wji--node1-NAHDIM_clean_sbu_0--edge1-XUDNAN_clean_linker_2
_symmetry_space_group_name_H-M    P1
_symmetry_Int_Tables_number       1
_symmetry_cell_setting            triclinic
loop_
_symmetry_equiv_pos_as_xyz
'x, y, z'
_cell_length_a     57.606062
_cell_length_b     57.597656
_cell_length_c     23.056748
_cell_angle_alpha  90.016515
_cell_angle_beta   89.928319
_cell_angle_gamma 120.02281
loop_
_atom_site_label
_atom_site_type_symbol
_atom_site_fract_x
_atom_site_fract_y
_atom_site_fract_z
_atom_type_partial_charge
C0 C 0.39712 0.27775 0.4528 0.0
O1 O 0.38118 0.2877 0.46016 0.0
O2 O 0.46596 0.34886 0.37989 0.0
Zn3 Zn 0.426 0.32535 0.38531 0.0
O4 O 0.41305 0.34263 0.44222 0.0
C5 C 0.41896 0.3433 0.27596 0.0
O6 O 0.44208 0.3639 0.29126 0.0
O7 O 0.41707 0.28959 0.41873 0.0
C8 C 0.42387 0.36778 0.44958 0.0
O9 O 0.4446 0.3841 0.41766 0.0
C10 C 0.47979 0.35187 0.42507 0.0
O11 O 0.46768 0.33804 0.47184 0.0
O12 O 0.40803 0.32289 0.30893 0.0
C13 C 0.12242 0.41371 0.65693 0.0
O14 O 0.11953 0.43372 0.67529 0.0
O15 O 0.09416 0.44379 0.56589 0.0
Zn16 Zn 0.07752 0.40627 0.59706 0.0
O17 O 0.05882 0.4063 0.6706 0.0
C18 C 0.02979 0.3588 0.55502 0.0
O19 O 0.02591 0.35245 0.61024 0.0
O20 O 0.10634 0.39798 0.61874 0.0
C21 C 0.05485 0.39034 0.71231 0.0
O22 O 0.0622 0.3722 0.70722 0.0
C23 C 0.07878 0.45361 0.56195 0.0
O24 O 0.05321 0.43826 0.57421 0.0
O25 O 0.05079 0.38021 0.53947 0.0
C26 C 0.70458 0.14571 0.83254 0.0
O27 O 0.67975 0.13167 0.85125 0.0
O28 O 0.64705 0.11358 0.74297 0.0
Zn29 Zn 0.67817 0.10698 0.75185 0.0
O30 O 0.66933 0.08014 0.8152 0.0
C31 C 0.6692 0.08612 0.63559 0.0
O32 O 0.65254 0.09545 0.63488 0.0
O33 O 0.7103 0.14013 0.78302 0.0
C34 C 0.68344 0.06904 0.82135 0.0
O35 O 0.70251 0.07404 0.78365 0.0
C36 C 0.62334 0.09443 0.75179 0.0
O37 O 0.61965 0.07064 0.76523 0.0
O38 O 0.68422 0.0908 0.67948 0.0
C39 C 0.57702 0.7126 0.99584 0.0
O40 O 0.57073 0.69463 0.03694 0.0
O41 O 0.53106 0.64491 0.91153 0.0
Zn42 Zn 0.57047 0.66872 0.927 0.0
O43 O 0.58343 0.65694 0.99555 0.0
C44 C 0.59023 0.64571 0.8476 0.0
O45 O 0.5744 0.62488 0.87979 0.0
O46 O 0.57807 0.70614 0.94353 0.0
C47 C 0.57343 0.63442 0.02106 0.0
O48 O 0.55074 0.61412 0.00277 0.0
C49 C 0.51304 0.63558 0.95055 0.0
O50 O 0.5198 0.64108 0.00532 0.0
O51 O 0.59172 0.66808 0.8582 0.0
C52 C 0.84792 0.57157 0.09144 0.0
O53 O 0.84121 0.54677 0.07864 0.0
O54 O 0.88952 0.54322 0.06505 0.0
Zn55 Zn 0.90209 0.58279 0.06761 0.0
O56 O 0.92582 0.59678 0.13698 0.0
C57 C 0.94455 0.59845 0.99012 0.0
O58 O 0.94716 0.5815 0.02382 0.0
O59 O 0.87198 0.59015 0.08363 0.0
C60 C 0.93023 0.61818 0.16225 0.0
O61 O 0.91994 0.6322 0.14087 0.0
C62 C 0.88219 0.53079 0.11316 0.0
O63 O 0.88167 0.54381 0.1595 0.0
O64 O 0.92492 0.6023 -0.00141 0.0
C65 C 0.28427 0.85213 0.28959 0.0
O66 O 0.30256 0.86535 0.32927 0.0
O67 O 0.35373 0.88767 0.22097 0.0
Zn68 Zn 0.3231 0.89522 0.22426 0.0
O69 O 0.32847 0.9194 0.29164 0.0
C70 C 0.34029 0.93894 0.14701 0.0
O71 O 0.35761 0.95009 0.18936 0.0
O72 O 0.28852 0.86091 0.2378 0.0
C73 C 0.31616 0.9325 0.29455 0.0
O74 O 0.29958 0.9301 0.25286 0.0
C75 C 0.37687 0.90541 0.23814 0.0
O76 O 0.38033 0.92813 0.25905 0.0
O77 O 0.32251 0.91427 0.15097 0.0
C78 C 0.72225 0.56857 0.38161 0.0
O79 O 0.70372 0.54351 0.39048 0.0
O80 O 0.65705 0.53945 0.44086 0.0
Zn81 Zn 0.68223 0.5792 0.43024 0.0
O82 O 0.66795 0.59305 0.36852 0.0
C83 C 0.67 0.58738 0.5472 0.0
O84 O 0.6567 0.56104 0.54757 0.0
O85 O 0.7184 0.58719 0.40001 0.0
C86 C 0.64353 0.58556 0.35845 0.0
O87 O 0.62458 0.56662 0.39026 0.0
C88 C 0.64453 0.52396 0.39876 0.0
O89 O 0.64864 0.53373 0.34587 0.0
O90 O 0.68398 0.59958 0.50293 0.0
C91 C 0.12767 0.70116 0.47333 0.0
O92 O 0.10873 0.67889 0.44995 0.0
O93 O 0.0973 0.64033 0.56069 0.0
Zn94 Zn 0.09453 0.67382 0.56521 0.0
O95 O 0.06324 0.66854 0.51729 0.0
C96 C 0.08065 0.66301 0.68582 0.0
O97 O 0.08494 0.64302 0.67564 0.0
O98 O 0.127 0.70457 0.52774 0.0
C99 C 0.04665 0.64638 0.494 0.0
O100 O 0.04922 0.62522 0.5024 0.0
C101 C 0.11906 0.6401 0.55337 0.0
O102 O 0.14178 0.66291 0.54976 0.0
O103 O 0.08603 0.6804 0.64636 0.0
C104 C 0.41202 0.13908 0.66811 0.0
O105 O 0.42788 0.13319 0.63839 0.0
O106 O 0.44164 0.10189 0.72394 0.0
Zn107 Zn 0.40261 0.09152 0.71838 0.0
O108 O 0.38708 0.07085 0.6452 0.0
C109 C 0.3901 0.07115 0.83616 0.0
O110 O 0.41351 0.09214 0.84822 0.0
O111 O 0.39892 0.12417 0.71056 0.0
C112 C 0.38063 0.04644 0.63939 0.0
O113 O 0.38473 0.03395 0.68233 0.0
C114 C 0.44849 0.08514 0.74062 0.0
O115 O 0.42983 0.06095 0.75608 0.0
O116 O 0.38128 0.06778 0.78462 0.0
C117 C 0.27196 0.41796 0.86762 0.0
O118 O 0.28253 0.4387 0.90274 0.0
O119 O 0.34115 0.45857 0.90659 0.0
Zn120 Zn 0.32303 0.42004 0.88142 0.0
O121 O 0.34386 0.4197 0.81241 0.0
C122 C 0.34981 0.40482 0.96006 0.0
O123 O 0.36974 0.42645 0.93672 0.0
O124 O 0.28514 0.40637 0.85521 0.0
C125 C 0.33754 0.39844 0.78424 0.0
O126 O 0.31683 0.3757 0.80121 0.0
C127 C 0.34468 0.47581 0.86805 0.0
O128 O 0.33393 0.46738 0.8166 0.0
O129 O 0.32604 0.39729 0.94356 0.0
C130 C 0.86336 0.28216 0.03999 0.0
O131 O 0.88215 0.29697 0.00239 0.0
O132 O 0.88726 0.35012 0.13549 0.0
Zn133 Zn 0.89879 0.32305 0.12003 0.0
O134 O 0.92736 0.33741 0.05888 0.0
C135 C 0.90336 0.30202 0.23338 0.0
O136 O 0.8773 0.28589 0.23076 0.0
O137 O 0.8666 0.2889 0.09318 0.0
C138 C 0.94502 0.36212 0.05722 0.0
O139 O 0.94462 0.37851 0.09632 0.0
C140 C 0.88299 0.36184 0.09363 0.0
O141 O 0.88577 0.35574 0.04013 0.0
O142 O 0.91536 0.3182 0.19197 0.0
C143 C 0.59489 0.87681 0.16461 0.0
O144 O 0.58717 0.89208 0.13845 0.0
O145 O 0.56039 0.90331 0.23759 0.0
Zn146 Zn 0.59964 0.9138 0.24266 0.0
O147 O 0.62171 0.9414 0.18248 0.0
C148 C 0.60621 0.94421 0.34267 0.0
O149 O 0.58593 0.94418 0.31678 0.0
O150 O 0.60162 0.8812 0.21785 0.0
C151 C 0.6302 0.96641 0.18173 0.0
O152 O 0.62429 0.97767 0.2244 0.0
C153 C 0.55226 0.91753 0.21227 0.0
O154 O 0.56971 0.94028 0.18798 0.0
O155 O 0.61552 0.93019 0.32107 0.0
H156 H 0.39745 0.41979 0.01381 0.0
H157 H 0.31437 0.3559 0.00761 0.0
H158 H 0.3238 0.33122 0.08313 0.0
H159 H 0.42709 0.37777 0.03804 0.0
H160 H 0.45223 0.40149 0.08676 0.0
H161 H 0.43924 0.41314 0.0297 0.0
H162 H 0.42595 0.43775 0.10539 0.0
H163 H 0.43898 0.42629 0.16256 0.0
H164 H 0.40477 0.41919 0.16561 0.0
H165 H 0.34222 0.31441 0.16213 0.0
H166 H 0.36737 0.3081 0.24151 0.0
H167 H 0.43797 0.38354 0.19564 0.0
C168 C 0.38125 0.40049 0.02786 0.0
C169 C 0.35519 0.38971 0.00469 0.0
C170 C 0.3345 0.36453 0.02479 0.0
C171 C 0.33969 0.35033 0.06745 0.0
C172 C 0.36564 0.3616 0.08947 0.0
C173 C 0.38603 0.38617 0.07045 0.0
C174 C 0.41181 0.39463 0.10303 0.0
C175 C 0.43389 0.39688 0.06192 0.0
C176 C 0.42089 0.42102 0.13611 0.0
C177 C 0.40268 0.37118 0.14405 0.0
C178 C 0.37609 0.35216 0.13521 0.0
C179 C 0.3631 0.3291 0.16921 0.0
C180 C 0.37756 0.32567 0.21411 0.0
C181 C 0.40463 0.34532 0.22478 0.0
C182 C 0.41734 0.3681 0.18854 0.0
H183 H 0.03098 0.367 0.43781 0.0
H184 H 0.98029 0.31506 0.57585 0.0
H185 H 0.94314 0.29175 0.50618 0.0
H186 H 0.98274 0.3764 0.37057 0.0
H187 H 0.9938 0.37624 0.29749 0.0
H188 H 0.01731 0.3865 0.3564 0.0
H189 H 0.02971 0.35056 0.3273 0.0
H190 H 0.00629 0.34026 0.26794 0.0
H191 H 0.00363 0.316 0.32083 0.0
H192 H 0.91009 0.27736 0.42337 0.0
H193 H 0.88438 0.27273 0.33399 0.0
H194 H 0.95717 0.33396 0.25114 0.0
C195 C 0.01226 0.35037 0.45324 0.0
C196 C 0.00857 0.34285 0.51227 0.0
C197 C 0.98365 0.32113 0.53076 0.0
C198 C 0.96241 0.30773 0.49149 0.0
C199 C 0.96653 0.3161 0.43384 0.0
C200 C 0.99094 0.33676 0.41469 0.0
C201 C 0.98976 0.34308 0.35149 0.0
C202 C 0.99628 0.37228 0.34357 0.0
C203 C 0.00846 0.33711 0.31472 0.0
C204 C 0.96064 0.32341 0.33859 0.0
C205 C 0.94759 0.30778 0.38632 0.0
C206 C 0.92019 0.28922 0.38544 0.0
C207 C 0.90574 0.28677 0.33455 0.0
C208 C 0.91874 0.30293 0.28552 0.0
C209 C 0.94662 0.32116 0.28766 0.0
H210 H 0.59409 0.98091 0.38499 0.0
H211 H 0.64957 0.95134 0.40791 0.0
H212 H 0.67356 0.98598 0.48337 0.0
H213 H 0.64226 0.05031 0.39891 0.0
H214 H 0.6196 0.05817 0.43649 0.0
H215 H 0.60669 0.03069 0.38589 0.0
H216 H 0.57557 -0.00177 0.46559 0.0
H217 H 0.58811 0.02565 0.5162 0.0
H218 H 0.58984 0.99604 0.53351 0.0
H219 H 0.69102 0.02433 0.55758 0.0
H220 H 0.69929 0.06127 0.62469 0.0
H221 H 0.63288 0.06563 0.54753 0.0
C222 C 0.61116 0.98145 0.406 0.0
C223 C 0.61988 0.9633 0.39073 0.0
C224 C 0.64246 0.96497 0.41915 0.0
C225 C 0.65625 0.98464 0.46183 0.0
C226 C 0.64727 0.0025 0.47507 0.0
C227 C 0.62518 0.00095 0.44789 0.0
C228 C 0.61943 0.02238 0.46911 0.0
C229 C 0.62217 0.04152 0.41965 0.0
C230 C 0.5916 0.00982 0.49782 0.0
C231 C 0.6416 0.03623 0.51307 0.0
C232 C 0.65753 0.0246 0.51606 0.0
C233 C 0.67873 0.03364 0.55526 0.0
C234 C 0.68334 0.0547 0.59306 0.0
C235 C 0.66684 0.06648 0.59117 0.0
C236 C 0.64607 0.05732 0.54981 0.0
H237 H 0.6389 0.56683 0.64415 0.0
H238 H 0.68938 0.64167 0.55351 0.0
H239 H 0.67615 0.66547 0.62352 0.0
H240 H 0.58561 0.57757 0.67045 0.0
H241 H 0.5777 0.56237 0.74138 0.0
H242 H 0.5934 0.55176 0.68835 0.0
H243 H 0.63224 0.56247 0.75968 0.0
H244 H 0.61648 0.57281 0.81333 0.0
H245 H 0.65061 0.59541 0.79155 0.0
H246 H 0.65401 0.68025 0.69848 0.0
H247 H 0.62663 0.68508 0.77514 0.0
H248 H 0.59084 0.60037 0.81538 0.0
C249 C 0.64764 0.58832 0.6396 0.0
C250 C 0.66522 0.60238 0.59336 0.0
C251 C 0.67598 0.63047 0.58875 0.0
C252 C 0.66854 0.64417 0.62825 0.0
C253 C 0.65051 0.62951 0.67229 0.0
C254 C 0.64046 0.60226 0.67852 0.0
C255 C 0.62041 0.59086 0.72768 0.0
C256 C 0.59264 0.56938 0.70561 0.0
C257 C 0.63055 0.57974 0.77592 0.0
C258 C 0.62025 0.61583 0.74733 0.0
C259 C 0.63784 0.63797 0.71517 0.0
C260 C 0.64039 0.66309 0.72434 0.0
C261 C 0.62468 0.66561 0.7678 0.0
C262 C 0.60661 0.64312 0.80132 0.0
C263 C 0.60451 0.61799 0.79072 0.0
H264 H 0.06443 0.62753 0.77624 0.0
H265 H 0.05892 0.69497 0.70875 0.0
H266 H 0.02494 0.68733 0.78311 0.0
H267 H -0.00308 0.58563 0.80032 0.0
H268 H 0.00039 0.57104 0.86656 0.0
H269 H 0.02685 0.58388 0.81351 0.0
H270 H 0.06089 0.61509 0.8906 0.0
H271 H 0.03461 0.602 0.9443 0.0
H272 H 0.05388 0.63761 0.93136 0.0
H273 H 0.98725 0.6685 0.85636 0.0
H274 H 0.95212 0.64273 0.92943 0.0
H275 H 0.98313 0.58831 0.94943 0.0
C276 C 0.05664 0.64117 0.77798 0.0
C277 C 0.06437 0.66185 0.73663 0.0
C278 C 0.05345 0.67907 0.74014 0.0
C279 C 0.03405 0.67484 0.78212 0.0
C280 C 0.02606 0.65353 0.82067 0.0
C281 C 0.03738 0.63729 0.81965 0.0
C282 C 0.02435 0.61491 0.86376 0.0
C283 C 0.01136 0.58724 0.83425 0.0
C284 C 0.04464 0.61758 0.91027 0.0
C285 C 0.0034 0.62062 0.8886 0.0
C286 C 0.0047 0.64299 0.86335 0.0
C287 C 0.98633 0.65121 0.87712 0.0
C288 C 0.96634 0.63635 0.91832 0.0
C289 C 0.96497 0.6136 0.94528 0.0
C290 C 0.98381 0.60576 0.93005 0.0
H291 H 0.40668 0.06844 0.94601 0.0
H292 H 0.34176 0.02492 0.82378 0.0
H293 H 0.32054 0.98687 0.89202 0.0
H294 H 0.41253 0.01363 0.99058 0.0
H295 H 0.41967 0.02379 0.06541 0.0
H296 H 0.42841 0.04864 0.00959 0.0
H297 H 0.40064 0.06668 0.06138 0.0
H298 H 0.392 0.04202 0.11775 0.0
H299 H 0.36593 0.04393 0.07865 0.0
H300 H 0.30835 0.95203 0.97049 0.0
H301 H 0.30539 0.9241 0.05488 0.0
H302 H 0.3783 0.99079 0.12469 0.0
C303 C 0.38774 0.05115 0.93398 0.0
C304 C 0.37586 0.04971 0.87962 0.0
C305 C 0.35122 0.02653 0.8653 0.0
C306 C 0.339 0.00479 0.90376 0.0
C307 C 0.3516 0.0066 0.95642 0.0
C308 C 0.3753 0.02929 0.97176 0.0
C309 C 0.38544 0.02573 0.02964 0.0
C310 C 0.41315 0.02808 0.02339 0.0
C311 C 0.38602 0.04577 0.07451 0.0
C312 C 0.364 0.99734 0.04398 0.0
C313 C 0.34458 0.98663 0.00143 0.0
C314 C 0.32331 0.9603 0.0044 0.0
C315 C 0.32184 0.94457 0.05232 0.0
C316 C 0.34156 0.95527 0.09641 0.0
C317 C 0.36279 0.98203 0.09195 0.0
H318 H 0.60523 0.48917 0.3253 0.0
H319 H 0.63769 0.49516 0.49796 0.0
H320 H 0.60158 0.44902 0.51927 0.0
H321 H 0.53844 0.45649 0.36716 0.0
H322 H 0.52586 0.43542 0.30388 0.0
H323 H 0.5563 0.46728 0.29928 0.0
H324 H 0.58162 0.44378 0.26075 0.0
H325 H 0.55118 0.41177 0.26521 0.0
H326 H 0.58096 0.41687 0.30202 0.0
H327 H 0.55979 0.40417 0.52504 0.0
H328 H 0.51448 0.36468 0.51628 0.0
H329 H 0.50893 0.38832 0.34033 0.0
C330 C 0.60512 0.48055 0.3671 0.0
C331 C 0.62436 0.49564 0.40983 0.0
C332 C 0.62318 0.48389 0.46452 0.0
C333 C 0.60283 0.45767 0.47692 0.0
C334 C 0.58387 0.44349 0.43417 0.0
C335 C 0.58483 0.45451 0.38035 0.0
C336 C 0.56067 0.43605 0.34399 0.0
C337 C 0.54436 0.44962 0.32766 0.0
C338 C 0.56912 0.42656 0.28979 0.0
C339 C 0.54559 0.41327 0.38638 0.0
C340 C 0.5595 0.41774 0.4378 0.0
C341 C 0.54885 0.40027 0.48472 0.0
C342 C 0.52308 0.3779 0.47933 0.0
C343 C 0.50819 0.37336 0.42757 0.0
C344 C 0.51991 0.39104 0.38022 0.0
H345 H 0.05172 0.48132 0.56258 0.0
H346 H 0.13093 0.49139 0.53711 0.0
H347 H 0.1498 0.54034 0.52744 0.0
H348 H 0.05946 0.53431 0.46295 0.0
H349 H 0.04072 0.54425 0.50929 0.0
H350 H 0.03332 0.50993 0.50905 0.0
H351 H 0.04063 0.51218 0.6203 0.0
H352 H 0.04826 0.54653 0.62083 0.0
H353 H 0.07195 0.53789 0.65016 0.0
H354 H 0.16036 0.58856 0.52742 0.0
H355 H 0.16155 0.63198 0.5347 0.0
H356 H 0.07533 0.58971 0.56098 0.0
C357 C 0.07297 0.49371 0.55399 0.0
C358 C 0.08984 0.48251 0.55042 0.0
C359 C 0.1176 0.49952 0.5398 0.0
C360 C 0.1285 0.52734 0.53426 0.0
C361 C 0.11135 0.53776 0.53928 0.0
C362 C 0.08415 0.52143 0.54854 0.0
C363 C 0.07021 0.53763 0.55505 0.0
C364 C 0.04972 0.53114 0.50616 0.0
C365 C 0.057 0.5333 0.61516 0.0
C366 C 0.09388 0.56569 0.54895 0.0
C367 C 0.11742 0.5654 0.53956 0.0
C368 C 0.14201 0.58902 0.5343 0.0
C369 C 0.14249 0.61357 0.53866 0.0
C370 C 0.11855 0.61426 0.54838 0.0
C371 C 0.09399 0.58992 0.55335 0.0
H372 H 0.46912 0.05271 0.76686 0.0
H373 H 0.49237 0.13388 0.71426 0.0
H374 H 0.53986 0.14538 0.71212 0.0
H375 H 0.52583 0.06989 0.85955 0.0
H376 H 0.52822 0.04098 0.83884 0.0
H377 H 0.49624 0.03947 0.83736 0.0
H378 H 0.49042 0.02516 0.72932 0.0
H379 H 0.52242 0.0267 0.73041 0.0
H380 H 0.51599 0.04587 0.67763 0.0
H381 H 0.58485 0.14772 0.71455 0.0
H382 H 0.62373 0.14072 0.72161 0.0
H383 H 0.5705 0.05788 0.77173 0.0
C384 C 0.48416 0.07297 0.75517 0.0
C385 C 0.47702 0.09242 0.74083 0.0
C386 C 0.49737 0.11865 0.72548 0.0
C387 C 0.52439 0.12537 0.72414 0.0
C388 C 0.53069 0.10564 0.73818 0.0
C389 C 0.51115 0.07998 0.75344 0.0
C390 C 0.5231 0.06233 0.76584 0.0
C391 C 0.51805 0.05261 0.82916 0.0
C392 C 0.51234 0.03862 0.72325 0.0
C393 C 0.55244 0.08205 0.75506 0.0
C394 C 0.55646 0.10693 0.73924 0.0
C395 C 0.58194 0.12832 0.72696 0.0
C396 C 0.60389 0.12414 0.73106 0.0
C397 C 0.60017 0.09876 0.74719 0.0
C398 C 0.57405 0.07752 0.75925 0.0
H399 H 0.4748 0.59344 0.01298 0.0
H400 H 0.48853 0.63585 0.84991 0.0
H401 H 0.44277 0.60273 0.81799 0.0
H402 H 0.44351 0.53043 0.95266 0.0
H403 H 0.41978 0.51395 0.01055 0.0
H404 H 0.45124 0.54367 0.02537 0.0
H405 H 0.42605 0.56643 0.06871 0.0
H406 H 0.39441 0.53668 0.05386 0.0
H407 H 0.40108 0.56866 0.02588 0.0
H408 H 0.39816 0.56278 0.79921 0.0
H409 H 0.35955 0.51699 0.79114 0.0
H410 H 0.37536 0.49917 0.96474 0.0
C411 C 0.4678 0.59615 0.97135 0.0
C412 C 0.48492 0.61732 0.93413 0.0
C413 C 0.47555 0.6198 0.8791 0.0
C414 C 0.44956 0.60122 0.86082 0.0
C415 C 0.4333 0.5802 0.89798 0.0
C416 C 0.44207 0.57746 0.95201 0.0
C417 C 0.4221 0.55115 0.98018 0.0
C418 C 0.43492 0.53379 0.99289 0.0
C419 C 0.41021 0.55603 0.03544 0.0
C420 C 0.40127 0.53909 0.93261 0.0
C421 C 0.40778 0.55647 0.88624 0.0
C422 C 0.39263 0.54912 0.83553 0.0
C423 C 0.37073 0.52302 0.83135 0.0
C424 C 0.36443 0.50448 0.87728 0.0
C425 C 0.37947 0.51296 0.92914 0.0
H426 H 0.88763 0.4007 0.01834 0.0
H427 H 0.86593 0.37257 0.19553 0.0
H428 H 0.8592 0.41081 0.2169 0.0
H429 H 0.92581 0.4688 0.05303 0.0
H430 H 0.91599 0.4806 0.99049 0.0
H431 H 0.91599 0.44939 0.98707 0.0
H432 H 0.86605 0.42479 0.95616 0.0
H433 H 0.86589 0.45598 0.95941 0.0
H434 H 0.84176 0.42748 0.00073 0.0
H435 H 0.85809 0.45354 0.22111 0.0
H436 H 0.86407 0.49873 0.20905 0.0
H437 H 0.88739 0.49967 0.02949 0.0
C438 C 0.88092 0.40228 0.0613 0.0
C439 C 0.87709 0.38357 0.10519 0.0
C440 C 0.8689 0.38665 0.16123 0.0
C441 C 0.86493 0.40823 0.17371 0.0
C442 C 0.86927 0.42654 0.1297 0.0
C443 C 0.87711 0.42383 0.07463 0.0
C444 C 0.88249 0.44743 0.0365 0.0
C445 C 0.91181 0.46244 0.01557 0.0
C446 C 0.86287 0.43837 0.98517 0.0
C447 C 0.87697 0.4641 0.07911 0.0
C448 C 0.86905 0.45151 0.13238 0.0
C449 C 0.86402 0.4635 0.17946 0.0
C450 C 0.86752 0.4892 0.17216 0.0
C451 C 0.87615 0.50272 0.11829 0.0
C452 C 0.88052 0.48976 0.07102 0.0
H453 H 0.42948 0.94369 0.22965 0.0
H454 H 0.37624 0.85752 0.23442 0.0
H455 H 0.41546 0.85086 0.22766 0.0
H456 H 0.47533 0.94272 0.12449 0.0
H457 H 0.5044 0.97034 0.15744 0.0
H458 H 0.47217 0.96807 0.16377 0.0
H459 H 0.47663 0.97025 0.2758 0.0
H460 H 0.50888 0.97254 0.26983 0.0
H461 H 0.48285 0.94638 0.31307 0.0
H462 H 0.46106 0.85412 0.2258 0.0
H463 H 0.50897 0.86686 0.22077 0.0
H464 H 0.53134 0.95069 0.20993 0.0
C465 C 0.42607 0.9234 0.22945 0.0
C466 C 0.39993 0.90109 0.23306 0.0
C467 C 0.39618 0.87486 0.23173 0.0
C468 C 0.4183 0.87091 0.22803 0.0
C469 C 0.44388 0.89341 0.22473 0.0
C470 C 0.44779 0.91913 0.22465 0.0
C471 C 0.47716 0.93994 0.21912 0.0
C472 C 0.48257 0.95622 0.16285 0.0
C473 C 0.48694 0.95835 0.27265 0.0
C474 C 0.48926 0.92197 0.21672 0.0
C475 C 0.46982 0.8952 0.22059 0.0
C476 C 0.47642 0.87499 0.22204 0.0
C477 C 0.50361 0.88239 0.21933 0.0
C478 C 0.5237 0.90969 0.21429 0.0
C479 C 0.51634 0.92963 0.21271 0.0
H480 H 0.33123 0.35643 0.7169 0.0
H481 H 0.37956 0.44291 0.73519 0.0
H482 H 0.40611 0.44478 0.64945 0.0
H483 H 0.38464 0.34552 0.67518 0.0
H484 H 0.3647 0.31927 0.62426 0.0
H485 H 0.34898 0.32488 0.686 0.0
H486 H 0.31642 0.33051 0.61763 0.0
H487 H 0.33209 0.32495 0.55565 0.0
H488 H 0.32983 0.355 0.56016 0.0
H489 H 0.42794 0.43712 0.56261 0.0
H490 H 0.44389 0.42021 0.48229 0.0
H491 H 0.38124 0.33889 0.52174 0.0
C492 C 0.34732 0.37578 0.70279 0.0
C493 C 0.3533 0.39951 0.73271 0.0
C494 C 0.37461 0.42444 0.71296 0.0
C495 C 0.38978 0.42573 0.66424 0.0
C496 C 0.38338 0.40195 0.63579 0.0
C497 C 0.36269 0.37745 0.65436 0.0
C498 C 0.36028 0.35479 0.6169 0.0
C499 C 0.36494 0.33496 0.65273 0.0
C500 C 0.33304 0.34048 0.58574 0.0
C501 C 0.38297 0.37037 0.57466 0.0
C502 C 0.39599 0.39754 0.58603 0.0
C503 C 0.41785 0.41587 0.55315 0.0
C504 C 0.42675 0.40609 0.50763 0.0
C505 C 0.41382 0.37826 0.49572 0.0
C506 C 0.39155 0.3603 0.52961 0.0
H507 H 0.96057 0.3335 0.9893 0.0
H508 H 0.97408 0.41379 0.01837 0.0
H509 H 0.00524 0.4303 0.93488 0.0
H510 H 0.02951 0.35429 0.94715 0.0
H511 H 0.01915 0.32803 0.8939 0.0
H512 H -0.00121 0.32291 0.95726 0.0
H513 H 0.95793 0.31133 0.89151 0.0
H514 H 0.97816 0.31651 0.828 0.0
H515 H 0.96066 0.33492 0.83676 0.0
H516 H 0.03156 0.43699 0.84328 0.0
H517 H 0.05425 0.43426 0.75459 0.0
H518 H 0.02558 0.35017 0.78942 0.0
C519 C 0.97025 0.3546 0.97836 0.0
C520 C 0.96491 0.37239 0.00998 0.0
C521 C 0.97802 0.39987 0.9947 0.0
C522 C 0.99568 0.4094 0.94736 0.0
C523 C 0.00025 0.39124 0.91659 0.0
C524 C 0.98821 0.3645 0.93195 0.0
C525 C 0.99634 0.34908 0.8916 0.0
C526 C 0.01188 0.33793 0.92445 0.0
C527 C 0.97181 0.32664 0.86011 0.0
C528 C 0.01439 0.37121 0.8503 0.0
C529 C 0.0163 0.39535 0.86529 0.0
C530 C 0.03055 0.41831 0.83158 0.0
C531 C 0.04324 0.41654 0.78125 0.0
C532 C 0.04179 0.39207 0.76568 0.0
C533 C 0.02735 0.36923 0.80093 0.0
H534 H 0.62936 0.00977 0.13615 0.0
H535 H 0.66138 0.95663 0.10869 0.0
H536 H 0.68088 0.97898 0.01535 0.0
H537 H 0.60877 0.00784 0.99283 0.0
H538 H 0.61671 0.04233 0.99009 0.0
H539 H 0.60833 0.02477 0.05828 0.0
H540 H 0.65325 0.06144 0.10226 0.0
H541 H 0.66165 0.0793 0.03432 0.0
H542 H 0.68433 0.06994 0.06634 0.0
H543 H 0.69473 0.00534 0.92301 0.0
H544 H 0.701 0.03326 0.83649 0.0
H545 H 0.65756 0.0672 0.92199 0.0
C546 C 0.64109 0.00337 0.11113 0.0
C547 C 0.64423 0.98178 0.12967 0.0
C548 C 0.65895 0.9733 0.09515 0.0
C549 C 0.67012 0.98588 0.04223 0.0
C550 C 0.66613 0.0067 0.02439 0.0
C551 C 0.65196 0.01539 0.0577 0.0
C552 C 0.64865 0.03662 0.02636 0.0
C553 C 0.61885 0.02732 0.0163 0.0
C554 C 0.66282 0.06341 0.05928 0.0
C555 C 0.66283 0.0382 0.96999 0.0
C556 C 0.6731 0.02108 0.97001 0.0
C557 C 0.68687 0.01891 0.92248 0.0
C558 C 0.69028 0.03478 0.87359 0.0
C559 C 0.67961 0.05219 0.87251 0.0
C560 C 0.66573 0.05386 0.9214 0.0
H561 H 0.55493 0.59312 0.10042 0.0
H562 H 0.62466 0.66932 0.05415 0.0
H563 H 0.64934 0.66532 0.13683 0.0
H564 H 0.56282 0.60292 0.25602 0.0
H565 H 0.55206 0.5683 0.27145 0.0
H566 H 0.53948 0.57687 0.20835 0.0
H567 H 0.5561 0.55154 0.14291 0.0
H568 H 0.56866 0.54283 0.20578 0.0
H569 H 0.5908 0.56022 0.14597 0.0
H570 H 0.66708 0.65294 0.22129 0.0
H571 H 0.67684 0.63301 0.30558 0.0
H572 H 0.5955 0.56543 0.30071 0.0
C573 C 0.57539 0.60892 0.1077 0.0
C574 C 0.58787 0.6315 0.07078 0.0
C575 C 0.61464 0.65185 0.08191 0.0
C576 C 0.62886 0.64979 0.12875 0.0
C577 C 0.616 0.62738 0.16437 0.0
C578 C 0.58988 0.60732 0.15476 0.0
C579 C 0.58092 0.58542 0.20012 0.0
C580 C 0.55743 0.58326 0.23611 0.0
C581 C 0.5737 0.55841 0.172 0.0
C582 C 0.60623 0.59625 0.23616 0.0
C583 C 0.62616 0.62046 0.21454 0.0
C584 C 0.65162 0.63408 0.23898 0.0
C585 C 0.65696 0.62256 0.28674 0.0
C586 C 0.63689 0.59776 0.30977 0.0
C587 C 0.61111 0.58457 0.28441 0.0
H588 H 0.01617 0.60627 0.41754 0.0
H589 H 0.03247 0.68462 0.47647 0.0
H590 H 0.00225 0.68489 0.40103 0.0
H591 H 0.01714 0.6193 0.2696 0.0
H592 H 0.99059 0.58624 0.2504 0.0
H593 H 0.01104 0.59075 0.31299 0.0
H594 H 0.96859 0.56766 0.37784 0.0
H595 H 0.94794 0.56285 0.31527 0.0
H596 H 0.94546 0.58014 0.37805 0.0
H597 H 0.97286 0.67804 0.31484 0.0
H598 H 0.94607 0.66425 0.2247 0.0
H599 H 0.95004 0.59091 0.22186 0.0
C600 C 0.01297 0.62324 0.41539 0.0
C601 C 0.02656 0.64537 0.45295 0.0
C602 C 0.0222 0.66742 0.44812 0.0
C603 C 0.00505 0.66775 0.40551 0.0
C604 C 0.99244 0.64588 0.36825 0.0
C605 C 0.99608 0.62398 0.37295 0.0
C606 C 0.98154 0.6038 0.32535 0.0
C607 C 0.00126 0.59981 0.28735 0.0
C608 C 0.95958 0.57703 0.35065 0.0
C609 C 0.9696 0.61802 0.29249 0.0
C610 C 0.97587 0.64213 0.31815 0.0
C611 C 0.96763 0.6591 0.29456 0.0
C612 C 0.95251 0.65114 0.24332 0.0
C613 C 0.94603 0.62656 0.21623 0.0
C614 C 0.95467 0.60985 0.24145 0.0
H615 H 0.3394 0.9337 0.39838 0.0
H616 H 0.30569 0.97385 0.29934 0.0
H617 H 0.31765 0.00702 0.3782 0.0
H618 H 0.31712 0.94306 0.53985 0.0
H619 H 0.347 0.94803 0.57598 0.0
H620 H 0.335 0.92711 0.51242 0.0
H621 H 0.38125 0.95601 0.46302 0.0
H622 H 0.39335 0.97708 0.52626 0.0
H623 H 0.39486 0.99169 0.45623 0.0
H624 H 0.33615 0.03743 0.46464 0.0
H625 H 0.35691 0.06119 0.55591 0.0
H626 H 0.37664 -0.0002 0.59989 0.0
C627 C 0.33439 0.94938 0.39341 0.0
C628 C 0.32172 0.95133 0.34279 0.0
C629 C 0.31532 0.97199 0.33795 0.0
C630 C 0.32209 0.99092 0.38238 0.0
C631 C 0.33488 0.98861 0.43146 0.0
C632 C 0.34067 0.96818 0.43752 0.0
C633 C 0.35457 0.97019 0.49445 0.0
C634 C 0.33739 0.94564 0.53295 0.0
C635 C 0.38267 0.97398 0.48435 0.0
C636 C 0.35613 0.99525 0.51911 0.0
C637 C 0.34476 0.00563 0.48203 0.0
C638 C 0.34484 0.02934 0.49434 0.0
C639 C 0.35677 0.04272 0.54611 0.0
C640 C 0.36821 0.03221 0.58501 0.0
C641 C 0.36776 0.00812 0.57128 0.0
H642 H 0.42756 0.25336 0.45112 0.0
H643 H 0.36004 0.25193 0.5386 0.0
H644 H 0.35745 0.21737 0.60587 0.0
H645 H 0.40338 0.18227 0.46158 0.0
H646 H 0.43636 0.18686 0.47323 0.0
H647 H 0.43241 0.21113 0.4317 0.0
H648 H 0.46546 0.24875 0.50064 0.0
H649 H 0.46923 0.22454 0.54283 0.0
H650 H 0.45874 0.24584 0.57748 0.0
H651 H 0.36312 0.18382 0.66547 0.0
H652 H 0.37436 0.15122 0.70771 0.0
H653 H 0.43795 0.1748 0.58055 0.0
C654 C 0.41206 0.24563 0.48406 0.0
C655 C 0.39399 0.25534 0.48954 0.0
C656 C 0.37406 0.24473 0.53339 0.0
C657 C 0.37249 0.22519 0.57201 0.0
C658 C 0.39095 0.21644 0.56607 0.0
C659 C 0.41018 0.22612 0.52284 0.0
C660 C 0.42753 0.2133 0.52549 0.0
C661 C 0.42474 0.19745 0.4697 0.0
C662 C 0.45698 0.23437 0.53733 0.0
C663 C 0.41503 0.19484 0.57692 0.0
C664 C 0.39408 0.19706 0.60002 0.0
C665 C 0.37945 0.18187 0.64768 0.0
C666 C 0.38606 0.16351 0.67152 0.0
C667 C 0.407 0.16045 0.64741 0.0
C668 C 0.42184 0.17665 0.60003 0.0
H669 H 0.24336 0.44422 0.86855 0.0
H670 H 0.24399 0.37513 0.795 0.0
H671 H 0.2047 0.36546 0.73495 0.0
H672 H 0.17031 0.4151 0.87108 0.0
H673 H 0.17246 0.44644 0.85176 0.0
H674 H 0.19912 0.44637 0.89241 0.0
H675 H 0.23328 0.47667 0.81426 0.0
H676 H 0.20673 0.47659 0.77308 0.0
H677 H 0.22809 0.46585 0.73966 0.0
H678 H 0.16711 0.36514 0.67814 0.0
H679 H 0.13321 0.3734 0.63172 0.0
H680 H 0.158 0.44299 0.74211 0.0
C681 C 0.23496 0.42675 0.84067 0.0
C682 C 0.2467 0.41039 0.83663 0.0
C683 C 0.23529 0.38793 0.79894 0.0
C684 C 0.21298 0.38227 0.76463 0.0
C685 C 0.20231 0.39922 0.76862 0.0
C686 C 0.21281 0.42089 0.80601 0.0
C687 C 0.19844 0.4367 0.8003 0.0
C688 C 0.18424 0.4361 0.85727 0.0
C689 C 0.21779 0.46566 0.78064 0.0
C690 C 0.17848 0.42078 0.75327 0.0
C691 C 0.1809 0.39916 0.73569 0.0
C692 C 0.16491 0.38191 0.69184 0.0
C693 C 0.14579 0.38681 0.6656 0.0
C694 C 0.14297 0.40884 0.68324 0.0
C695 C 0.15962 0.42597 0.7276 0.0
H696 H 0.85079 0.2604 0.93062 0.0
H697 H 0.81771 0.25274 0.10362 0.0
H698 H 0.77375 0.21718 0.06856 0.0
H699 H 0.79369 0.25116 0.85259 0.0
H700 H 0.79688 0.23175 0.79502 0.0
H701 H 0.82621 0.25602 0.83369 0.0
H702 H 0.83785 0.21925 0.85957 0.0
H703 H 0.80868 0.1949 0.82052 0.0
H704 H 0.81316 0.18908 0.89541 0.0
H705 H 0.73315 0.18463 0.01452 0.0
H706 H 0.69858 0.15407 0.9463 0.0
H707 H 0.75781 0.18147 0.80802 0.0
C708 C 0.83436 0.25109 0.96126 0.0
C709 C 0.83767 0.2594 0.01988 0.0
C710 C 0.81568 0.24669 0.05858 0.0
C711 C 0.79061 0.22652 0.03906 0.0
C712 C 0.78793 0.21914 0.98087 0.0
C713 C 0.80922 0.23076 0.94261 0.0
C714 C 0.80081 0.21907 0.88224 0.0
C715 C 0.80463 0.2408 0.83831 0.0
C716 C 0.81603 0.20472 0.86334 0.0
C717 C 0.77137 0.19929 0.89249 0.0
C718 C 0.76443 0.19981 0.94969 0.0
C719 C 0.73835 0.18388 0.96971 0.0
C720 C 0.71883 0.16666 0.93042 0.0
C721 C 0.72548 0.16535 0.87174 0.0
C722 C 0.75213 0.18199 0.85259 0.0
H723 H 0.59176 0.83012 0.20432 0.0
H724 H 0.60024 0.87583 0.04818 0.0
H725 H 0.59916 0.83985 0.98867 0.0
H726 H 0.63139 0.79975 0.15411 0.0
H727 H 0.60934 0.76791 0.18785 0.0
H728 H 0.6133 0.79836 0.2191 0.0
H729 H 0.56189 0.77886 0.21424 0.0
H730 H 0.5578 0.74844 0.18275 0.0
H731 H 0.54488 0.76715 0.14575 0.0
H732 H 0.59479 0.79845 0.94535 0.0
H733 H 0.5867 0.7533 0.92079 0.0
H734 H 0.57979 0.73352 0.10415 0.0
C735 C 0.59387 0.83268 0.15772 0.0
C736 C 0.59617 0.85575 0.13083 0.0
C737 C 0.59838 0.85825 0.06965 0.0
C738 C 0.5979 0.83799 0.03543 0.0
C739 C 0.5951 0.81527 0.06298 0.0
C740 C 0.59311 0.81241 0.12265 0.0
C741 C 0.58858 0.78516 0.14069 0.0
C742 C 0.61206 0.78797 0.17762 0.0
C743 C 0.56169 0.76895 0.17274 0.0
C744 C 0.58795 0.77314 0.08182 0.0
C745 C 0.59203 0.79097 0.03768 0.0
C746 C 0.59174 0.7843 0.9795 0.0
C747 C 0.58709 0.75861 0.96598 0.0
C748 C 0.5826 0.73988 0.01048 0.0
C749 C 0.58318 0.74738 0.06912 0.0
H750 H 0.73128 0.53311 0.32066 0.0
H751 H 0.76362 0.61825 0.35071 0.0
H752 H 0.79801 0.62849 0.2754 0.0
H753 H 0.7946 0.53604 0.29507 0.0
H754 H 0.78099 0.51053 0.23975 0.0
H755 H 0.75975 0.51033 0.2973 0.0
H756 H 0.72697 0.51072 0.22085 0.0
H757 H 0.74839 0.51145 0.16308 0.0
H758 H 0.73926 0.53711 0.16743 0.0
H759 H 0.82849 0.62927 0.19561 0.0
H760 H 0.85466 0.6205 0.12276 0.0
H761 H 0.80111 0.53485 0.14371 0.0
C762 C 0.74577 0.55393 0.31205 0.0
C763 C 0.74479 0.57488 0.34174 0.0
C764 C 0.76403 0.60185 0.32868 0.0
C765 C 0.78355 0.60787 0.28577 0.0
C766 C 0.78346 0.5867 0.25627 0.0
C767 C 0.76521 0.56028 0.26922 0.0
C768 C 0.7693 0.5412 0.23124 0.0
C769 C 0.7766 0.52349 0.26804 0.0
C770 C 0.7445 0.52412 0.19341 0.0
C771 C 0.7928 0.56101 0.19494 0.0
C772 C 0.80065 0.58716 0.20987 0.0
C773 C 0.82247 0.60888 0.18344 0.0
C774 C 0.83713 0.60369 0.14193 0.0
C775 C 0.82985 0.577 0.12723 0.0
C776 C 0.807 0.55549 0.15328 0.0
H777 H 0.17458 0.74594 0.50688 0.0
H778 H 0.12855 0.70273 0.35524 0.0
H779 H 0.16344 0.73668 0.29178 0.0
H780 H 0.19941 0.8125 0.44998 0.0
H781 H 0.23205 0.82585 0.48263 0.0
H782 H 0.20324 0.79829 0.51646 0.0
H783 H 0.22698 0.77013 0.51431 0.0
H784 H 0.25585 0.79761 0.48044 0.0
H785 H 0.23934 0.76509 0.44635 0.0
H786 H 0.20289 0.77551 0.24451 0.0
H787 H 0.2452 0.8161 0.21687 0.0
H788 H 0.26608 0.83332 0.3989 0.0
C789 C 0.17183 0.74368 0.46035 0.0
C790 C 0.14883 0.72172 0.43605 0.0
C791 C 0.14604 0.71936 0.37491 0.0
C792 C 0.16571 0.73856 0.33842 0.0
C793 C 0.18815 0.75993 0.36368 0.0
C794 C 0.1914 0.76257 0.42318 0.0
C795 C 0.21766 0.78724 0.43906 0.0
C796 C 0.21279 0.80715 0.47409 0.0
C797 C 0.23604 0.77955 0.47197 0.0
C798 C 0.22856 0.79804 0.3792 0.0
C799 C 0.21118 0.78206 0.33633 0.0
C800 C 0.21674 0.78816 0.27766 0.0
C801 C 0.24078 0.81125 0.26239 0.0
C802 C 0.25897 0.82779 0.30567 0.0
C803 C 0.25268 0.82099 0.36476 0.0
loop_
_geom_bond_atom_site_label_1
_geom_bond_atom_site_label_2
_geom_bond_distance
_geom_bond_site_symmetry_2
_ccdc_geom_bond_type
C0 O1 1.160 . S
C0 O7 1.185 . S
O1 C0 1.160 . S
O2 Zn3 1.899 . S
O2 C10 1.284 . S
Zn3 O2 1.899 . S
Zn3 O4 2.032 . S
Zn3 O7 2.086 . S
Zn3 O12 1.977 . S
O4 Zn3 2.032 . S
O4 C8 1.278 . S
C5 O6 1.203 . S
C5 O12 1.267 . S
O6 C5 1.203 . S
O7 C0 1.185 . S
O7 Zn3 2.086 . S
C8 O4 1.278 . S
C8 O9 1.211 . S
O9 C8 1.211 . S
C10 O2 1.284 . S
C10 O11 1.273 . S
O11 C10 1.273 . S
O12 Zn3 1.977 . S
O12 C5 1.267 . S
C13 O14 1.160 . S
C13 O20 1.185 . S
O14 C13 1.160 . S
O15 Zn16 1.899 . S
O15 C23 1.284 . S
Zn16 O15 1.899 . S
Zn16 O17 2.032 . S
Zn16 O20 2.086 . S
Zn16 O25 1.977 . S
O17 Zn16 2.032 . S
O17 C21 1.278 . S
C18 O19 1.203 . S
C18 O25 1.267 . S
O19 C18 1.203 . S
O20 C13 1.185 . S
O20 Zn16 2.086 . S
C21 O17 1.278 . S
C21 O22 1.211 . S
O22 C21 1.211 . S
C23 O15 1.284 . S
C23 O24 1.273 . S
O24 C23 1.273 . S
O25 Zn16 1.977 . S
O25 C18 1.267 . S
C26 O27 1.160 . S
C26 O33 1.185 . S
O27 C26 1.160 . S
O28 Zn29 1.899 . S
O28 C36 1.284 . S
Zn29 O28 1.899 . S
Zn29 O30 2.032 . S
Zn29 O33 2.086 . S
Zn29 O38 1.977 . S
O30 Zn29 2.032 . S
O30 C34 1.278 . S
C31 O32 1.203 . S
C31 O38 1.267 . S
O32 C31 1.203 . S
O33 C26 1.185 . S
O33 Zn29 2.086 . S
C34 O30 1.278 . S
C34 O35 1.211 . S
O35 C34 1.211 . S
C36 O28 1.284 . S
C36 O37 1.273 . S
O37 C36 1.273 . S
O38 Zn29 1.977 . S
O38 C31 1.267 . S
C39 O40 1.160 . S
C39 O46 1.185 . S
O40 C39 1.160 . S
O41 Zn42 1.899 . S
O41 C49 1.284 . S
Zn42 O41 1.899 . S
Zn42 O43 2.032 1_556 S
Zn42 O46 2.086 . S
Zn42 O51 1.977 . S
O43 Zn42 2.032 1_554 S
O43 C47 1.278 . S
C44 O45 1.203 . S
C44 O51 1.267 . S
O45 C44 1.203 . S
O46 C39 1.185 . S
O46 Zn42 2.086 . S
C47 O43 1.278 . S
C47 O48 1.211 1_554 S
O48 C47 1.211 1_556 S
C49 O41 1.284 . S
C49 O50 1.273 . S
O50 C49 1.273 . S
O51 Zn42 1.977 . S
O51 C44 1.267 . S
C52 O53 1.160 . S
C52 O59 1.185 . S
O53 C52 1.160 . S
O54 Zn55 1.899 . S
O54 C62 1.284 . S
Zn55 O54 1.899 . S
Zn55 O56 2.032 . S
Zn55 O59 2.086 . S
Zn55 O64 1.977 . S
O56 Zn55 2.032 . S
O56 C60 1.278 . S
C57 O58 1.203 . S
C57 O64 1.267 1_556 S
O58 C57 1.203 . S
O59 C52 1.185 . S
O59 Zn55 2.086 . S
C60 O56 1.278 . S
C60 O61 1.211 . S
O61 C60 1.211 . S
C62 O54 1.284 . S
C62 O63 1.273 . S
O63 C62 1.273 . S
O64 Zn55 1.977 . S
O64 C57 1.267 1_554 S
C65 O66 1.160 . S
C65 O72 1.185 . S
O66 C65 1.160 . S
O67 Zn68 1.899 . S
O67 C75 1.284 . S
Zn68 O67 1.899 . S
Zn68 O69 2.032 . S
Zn68 O72 2.086 . S
Zn68 O77 1.977 . S
O69 Zn68 2.032 . S
O69 C73 1.278 . S
C70 O71 1.203 . S
C70 O77 1.267 . S
O71 C70 1.203 . S
O72 C65 1.185 . S
O72 Zn68 2.086 . S
C73 O69 1.278 . S
C73 O74 1.211 . S
O74 C73 1.211 . S
C75 O67 1.284 . S
C75 O76 1.273 . S
O76 C75 1.273 . S
O77 Zn68 1.977 . S
O77 C70 1.267 . S
C78 O79 1.160 . S
C78 O85 1.185 . S
O79 C78 1.160 . S
O80 Zn81 1.899 . S
O80 C88 1.284 . S
Zn81 O80 1.899 . S
Zn81 O82 2.032 . S
Zn81 O85 2.086 . S
Zn81 O90 1.977 . S
O82 Zn81 2.032 . S
O82 C86 1.278 . S
C83 O84 1.203 . S
C83 O90 1.267 . S
O84 C83 1.203 . S
O85 C78 1.185 . S
O85 Zn81 2.086 . S
C86 O82 1.278 . S
C86 O87 1.211 . S
O87 C86 1.211 . S
C88 O80 1.284 . S
C88 O89 1.273 . S
O89 C88 1.273 . S
O90 Zn81 1.977 . S
O90 C83 1.267 . S
C91 O92 1.160 . S
C91 O98 1.185 . S
O92 C91 1.160 . S
O93 Zn94 1.899 . S
O93 C101 1.284 . S
Zn94 O93 1.899 . S
Zn94 O95 2.032 . S
Zn94 O98 2.086 . S
Zn94 O103 1.977 . S
O95 Zn94 2.032 . S
O95 C99 1.278 . S
C96 O97 1.203 . S
C96 O103 1.267 . S
O97 C96 1.203 . S
O98 C91 1.185 . S
O98 Zn94 2.086 . S
C99 O95 1.278 . S
C99 O100 1.211 . S
O100 C99 1.211 . S
C101 O93 1.284 . S
C101 O102 1.273 . S
O102 C101 1.273 . S
O103 Zn94 1.977 . S
O103 C96 1.267 . S
C104 O105 1.160 . S
C104 O111 1.185 . S
O105 C104 1.160 . S
O106 Zn107 1.899 . S
O106 C114 1.284 . S
Zn107 O106 1.899 . S
Zn107 O108 2.032 . S
Zn107 O111 2.086 . S
Zn107 O116 1.977 . S
O108 Zn107 2.032 . S
O108 C112 1.278 . S
C109 O110 1.203 . S
C109 O116 1.267 . S
O110 C109 1.203 . S
O111 C104 1.185 . S
O111 Zn107 2.086 . S
C112 O108 1.278 . S
C112 O113 1.211 . S
O113 C112 1.211 . S
C114 O106 1.284 . S
C114 O115 1.273 . S
O115 C114 1.273 . S
O116 Zn107 1.977 . S
O116 C109 1.267 . S
C117 O118 1.160 . S
C117 O124 1.185 . S
O118 C117 1.160 . S
O119 Zn120 1.899 . S
O119 C127 1.284 . S
Zn120 O119 1.899 . S
Zn120 O121 2.032 . S
Zn120 O124 2.086 . S
Zn120 O129 1.977 . S
O121 Zn120 2.032 . S
O121 C125 1.278 . S
C122 O123 1.203 1_554 S
C122 O129 1.267 1_554 S
O123 C122 1.203 1_556 S
O124 C117 1.185 . S
O124 Zn120 2.086 . S
C125 O121 1.278 . S
C125 O126 1.211 . S
O126 C125 1.211 . S
C127 O119 1.284 . S
C127 O128 1.273 . S
O128 C127 1.273 . S
O129 Zn120 1.977 . S
O129 C122 1.267 1_556 S
C130 O131 1.160 . S
C130 O137 1.185 . S
O131 C130 1.160 . S
O132 Zn133 1.899 . S
O132 C140 1.284 . S
Zn133 O132 1.899 . S
Zn133 O134 2.032 1_554 S
Zn133 O137 2.086 . S
Zn133 O142 1.977 . S
O134 Zn133 2.032 1_556 S
O134 C138 1.278 . S
C135 O136 1.203 . S
C135 O142 1.267 . S
O136 C135 1.203 . S
O137 C130 1.185 . S
O137 Zn133 2.086 . S
C138 O134 1.278 . S
C138 O139 1.211 1_556 S
O139 C138 1.211 1_554 S
C140 O132 1.284 . S
C140 O141 1.273 . S
O141 C140 1.273 . S
O142 Zn133 1.977 . S
O142 C135 1.267 . S
C143 O144 1.160 . S
C143 O150 1.185 . S
O144 C143 1.160 . S
O145 Zn146 1.899 . S
O145 C153 1.284 . S
Zn146 O145 1.899 . S
Zn146 O147 2.032 . S
Zn146 O150 2.086 . S
Zn146 O155 1.977 . S
O147 Zn146 2.032 . S
O147 C151 1.278 . S
C148 O149 1.203 . S
C148 O155 1.267 . S
O149 C148 1.203 . S
O150 C143 1.185 . S
O150 Zn146 2.086 . S
C151 O147 1.278 . S
C151 O152 1.211 . S
O152 C151 1.211 . S
C153 O145 1.284 . S
C153 O154 1.273 . S
O154 C153 1.273 . S
O155 Zn146 1.977 . S
O155 C148 1.267 . S
H156 C168 0.930 . S
H157 C170 0.930 . S
H158 C171 0.930 . S
H159 C175 0.959 . S
H160 C175 0.959 . S
H161 C175 0.961 . S
H162 C176 0.960 . S
H163 C176 0.961 . S
H164 C176 0.959 . S
H165 C179 0.929 . S
H166 C180 0.931 . S
H167 C182 0.930 . S
C168 H156 0.930 . S
C168 C169 1.399 . S
C168 C173 1.399 . S
C169 C168 1.399 . S
C169 C170 1.376 . S
C170 H157 0.930 . S
C170 C169 1.376 . S
C170 C171 1.388 . S
C171 H158 0.930 . S
C171 C170 1.388 . S
C171 C172 1.390 . S
C172 C171 1.390 . S
C172 C173 1.394 . S
C172 C178 1.465 . S
C173 C168 1.399 . S
C173 C172 1.394 . S
C173 C174 1.516 . S
C174 C173 1.516 . S
C174 C175 1.502 . S
C174 C176 1.561 . S
C174 C177 1.526 . S
C175 H159 0.959 . S
C175 H160 0.959 . S
C175 H161 0.961 . S
C175 C174 1.502 . S
C176 H162 0.960 . S
C176 H163 0.961 . S
C176 H164 0.959 . S
C176 C174 1.561 . S
C177 C174 1.526 . S
C177 C178 1.396 . S
C177 C182 1.390 . S
C178 C172 1.465 . S
C178 C177 1.396 . S
C178 C179 1.399 . S
C179 H165 0.929 . S
C179 C178 1.399 . S
C179 C180 1.385 . S
C180 H166 0.931 . S
C180 C179 1.385 . S
C180 C181 1.389 . S
C181 C180 1.389 . S
C181 C182 1.387 . S
C182 H167 0.930 . S
C182 C177 1.390 . S
C182 C181 1.387 . S
H183 C195 0.930 . S
H184 C197 0.930 . S
H185 C198 0.955 . S
H186 C202 0.959 . S
H187 C202 0.959 . S
H188 C202 0.961 . S
H189 C203 0.960 . S
H190 C203 0.961 . S
H191 C203 0.959 1_655 S
H192 C206 0.929 . S
H193 C207 0.931 . S
H194 C209 0.930 . S
C195 H183 0.930 . S
C195 C196 1.399 . S
C195 C200 1.399 . S
C196 C195 1.399 . S
C196 C197 1.376 . S
C197 H184 0.930 . S
C197 C196 1.376 . S
C197 C198 1.369 1_455 S
C198 H185 0.955 . S
C198 C197 1.369 1_655 S
C198 C199 1.383 1_655 S
C199 C198 1.383 1_455 S
C199 C200 1.396 . S
C199 C205 1.464 1_455 S
C200 C195 1.399 . S
C200 C199 1.396 . S
C200 C201 1.516 . S
C201 C200 1.516 . S
C201 C202 1.502 . S
C201 C203 1.561 . S
C201 C204 1.526 1_455 S
C202 H186 0.959 . S
C202 H187 0.959 . S
C202 H188 0.961 . S
C202 C201 1.502 . S
C203 H189 0.960 . S
C203 H190 0.961 . S
C203 H191 0.959 1_455 S
C203 C201 1.561 . S
C204 C201 1.526 1_655 S
C204 C205 1.396 . S
C204 C209 1.390 . S
C205 C199 1.464 1_655 S
C205 C204 1.396 . S
C205 C206 1.399 . S
C206 H192 0.929 . S
C206 C205 1.399 . S
C206 C207 1.385 . S
C207 H193 0.931 . S
C207 C206 1.385 . S
C207 C208 1.389 . S
C208 C207 1.389 . S
C208 C209 1.387 . S
C209 H194 0.930 . S
C209 C204 1.390 . S
C209 C208 1.387 . S
H210 C222 0.930 . S
H211 C224 0.930 . S
H212 C225 0.930 . S
H213 C229 0.959 . S
H214 C229 0.959 . S
H215 C229 0.961 . S
H216 C230 0.960 . S
H217 C230 0.961 . S
H218 C230 0.959 . S
H219 C233 0.929 . S
H220 C234 0.931 . S
H221 C236 0.930 . S
C222 H210 0.930 . S
C222 C223 1.399 . S
C222 C227 1.399 . S
C223 C222 1.399 . S
C223 C224 1.376 . S
C224 H211 0.930 . S
C224 C223 1.376 . S
C224 C225 1.388 . S
C225 H212 0.930 . S
C225 C224 1.388 . S
C225 C226 1.390 . S
C226 C225 1.390 . S
C226 C227 1.394 . S
C226 C232 1.491 . S
C227 C222 1.399 . S
C227 C226 1.394 . S
C227 C228 1.516 1_565 S
C228 C227 1.516 1_545 S
C228 C229 1.502 . S
C228 C230 1.561 . S
C228 C231 1.526 . S
C229 H213 0.959 . S
C229 H214 0.959 . S
C229 H215 0.961 . S
C229 C228 1.502 . S
C230 H216 0.960 . S
C230 H217 0.961 . S
C230 H218 0.959 . S
C230 C228 1.561 . S
C231 C228 1.526 . S
C231 C232 1.356 1_545 S
C231 C236 1.390 . S
C232 C226 1.491 . S
C232 C231 1.356 1_565 S
C232 C233 1.408 . S
C233 H219 0.929 . S
C233 C232 1.408 . S
C233 C234 1.385 1_565 S
C234 H220 0.931 . S
C234 C233 1.385 1_545 S
C234 C235 1.389 . S
C235 C234 1.389 . S
C235 C236 1.387 . S
C236 H221 0.930 . S
C236 C231 1.390 . S
C236 C235 1.387 . S
H237 C249 0.930 . S
H238 C251 0.930 . S
H239 C252 0.930 . S
H240 C256 0.959 . S
H241 C256 0.959 . S
H242 C256 0.961 . S
H243 C257 0.960 . S
H244 C257 0.961 . S
H245 C257 0.959 . S
H246 C260 0.929 . S
H247 C261 0.931 . S
H248 C263 0.930 . S
C249 H237 0.930 . S
C249 C250 1.399 . S
C249 C254 1.399 . S
C250 C249 1.399 . S
C250 C251 1.376 . S
C251 H238 0.930 . S
C251 C250 1.376 . S
C251 C252 1.388 . S
C252 H239 0.930 . S
C252 C251 1.388 . S
C252 C253 1.390 . S
C253 C252 1.390 . S
C253 C254 1.394 . S
C253 C259 1.465 . S
C254 C249 1.399 . S
C254 C253 1.394 . S
C254 C255 1.516 . S
C255 C254 1.516 . S
C255 C256 1.502 . S
C255 C257 1.561 . S
C255 C258 1.526 . S
C256 H240 0.959 . S
C256 H241 0.959 . S
C256 H242 0.961 . S
C256 C255 1.502 . S
C257 H243 0.960 . S
C257 H244 0.961 . S
C257 H245 0.959 . S
C257 C255 1.561 . S
C258 C255 1.526 . S
C258 C259 1.396 . S
C258 C263 1.390 . S
C259 C253 1.465 . S
C259 C258 1.396 . S
C259 C260 1.399 . S
C260 H246 0.929 . S
C260 C259 1.399 . S
C260 C261 1.385 . S
C261 H247 0.931 . S
C261 C260 1.385 . S
C261 C262 1.389 . S
C262 C261 1.389 . S
C262 C263 1.387 . S
C263 H248 0.930 . S
C263 C258 1.390 . S
C263 C262 1.387 . S
H264 C276 0.930 . S
H265 C278 0.930 . S
H266 C279 0.930 . S
H267 C283 0.959 . S
H268 C283 0.959 . S
H269 C283 0.961 . S
H270 C284 0.960 1_455 S
H271 C284 0.961 . S
H272 C284 0.959 1_455 S
H273 C287 0.929 1_455 S
H274 C288 0.931 . S
H275 C290 0.930 . S
C276 H264 0.930 . S
C276 C277 1.399 . S
C276 C281 1.399 . S
C277 C276 1.399 . S
C277 C278 1.376 . S
C278 H265 0.930 . S
C278 C277 1.376 . S
C278 C279 1.388 . S
C279 H266 0.930 . S
C279 C278 1.388 . S
C279 C280 1.390 . S
C280 C279 1.390 . S
C280 C281 1.394 . S
C280 C286 1.465 1_455 S
C281 C276 1.399 . S
C281 C280 1.394 . S
C281 C282 1.516 1_455 S
C282 C281 1.516 1_655 S
C282 C283 1.502 . S
C282 C284 1.561 . S
C282 C285 1.526 . S
C283 H267 0.959 . S
C283 H268 0.959 . S
C283 H269 0.961 . S
C283 C282 1.502 . S
C284 H270 0.960 1_655 S
C284 H271 0.961 . S
C284 H272 0.959 1_655 S
C284 C282 1.561 . S
C285 C282 1.526 . S
C285 C286 1.396 . S
C285 C290 1.390 . S
C286 C280 1.465 1_655 S
C286 C285 1.396 . S
C286 C287 1.399 . S
C287 H273 0.929 1_655 S
C287 C286 1.399 . S
C287 C288 1.385 . S
C288 H274 0.931 . S
C288 C287 1.385 . S
C288 C289 1.389 . S
C289 C288 1.389 . S
C289 C290 1.387 . S
C290 H275 0.930 . S
C290 C285 1.390 . S
C290 C289 1.387 . S
H291 C303 0.930 . S
H292 C305 0.930 . S
H293 C306 0.930 1_565 S
H294 C310 0.959 . S
H295 C310 0.959 . S
H296 C310 0.961 . S
H297 C311 0.960 . S
H298 C311 0.961 . S
H299 C311 0.959 . S
H300 C314 0.929 1_556 S
H301 C315 0.931 . S
H302 C317 0.930 . S
C303 H291 0.930 . S
C303 C304 1.399 . S
C303 C308 1.399 . S
C304 C303 1.399 . S
C304 C305 1.376 . S
C305 H292 0.930 . S
C305 C304 1.376 . S
C305 C306 1.388 . S
C306 H293 0.930 1_545 S
C306 C305 1.388 . S
C306 C307 1.390 . S
C307 C306 1.390 . S
C307 C308 1.394 . S
C307 C313 1.465 1_546 S
C308 C303 1.399 . S
C308 C307 1.394 . S
C308 C309 1.516 1_556 S
C309 C308 1.516 1_554 S
C309 C310 1.502 . S
C309 C311 1.561 . S
C309 C312 1.526 1_545 S
C310 H294 0.959 . S
C310 H295 0.959 . S
C310 H296 0.961 . S
C310 C309 1.502 . S
C311 H297 0.960 . S
C311 H298 0.961 . S
C311 H299 0.959 . S
C311 C309 1.561 . S
C312 C309 1.526 1_565 S
C312 C313 1.396 . S
C312 C317 1.390 . S
C313 C307 1.465 1_564 S
C313 C312 1.396 . S
C313 C314 1.399 . S
C314 H300 0.929 1_554 S
C314 C313 1.399 . S
C314 C315 1.385 . S
C315 H301 0.931 . S
C315 C314 1.385 . S
C315 C316 1.389 . S
C316 C315 1.389 . S
C316 C317 1.387 . S
C317 H302 0.930 . S
C317 C312 1.390 . S
C317 C316 1.387 . S
H318 C330 0.930 . S
H319 C332 0.930 . S
H320 C333 0.930 . S
H321 C337 0.959 . S
H322 C337 0.959 . S
H323 C337 0.961 . S
H324 C338 0.960 . S
H325 C338 0.961 . S
H326 C338 0.959 . S
H327 C341 0.929 . S
H328 C342 0.931 . S
H329 C344 0.930 . S
C330 H318 0.930 . S
C330 C331 1.399 . S
C330 C335 1.399 . S
C331 C330 1.399 . S
C331 C332 1.376 . S
C332 H319 0.930 . S
C332 C331 1.376 . S
C332 C333 1.388 . S
C333 H320 0.930 . S
C333 C332 1.388 . S
C333 C334 1.390 . S
C334 C333 1.390 . S
C334 C335 1.394 . S
C334 C340 1.465 . S
C335 C330 1.399 . S
C335 C334 1.394 . S
C335 C336 1.516 . S
C336 C335 1.516 . S
C336 C337 1.502 . S
C336 C338 1.561 . S
C336 C339 1.526 . S
C337 H321 0.959 . S
C337 H322 0.959 . S
C337 H323 0.961 . S
C337 C336 1.502 . S
C338 H324 0.960 . S
C338 H325 0.961 . S
C338 H326 0.959 . S
C338 C336 1.561 . S
C339 C336 1.526 . S
C339 C340 1.396 . S
C339 C344 1.390 . S
C340 C334 1.465 . S
C340 C339 1.396 . S
C340 C341 1.399 . S
C341 H327 0.929 . S
C341 C340 1.399 . S
C341 C342 1.385 . S
C342 H328 0.931 . S
C342 C341 1.385 . S
C342 C343 1.389 . S
C343 C342 1.389 . S
C343 C344 1.387 . S
C344 H329 0.930 . S
C344 C339 1.390 . S
C344 C343 1.387 . S
H345 C357 0.930 . S
H346 C359 0.930 . S
H347 C360 0.930 . S
H348 C364 0.959 . S
H349 C364 0.959 . S
H350 C364 0.961 . S
H351 C365 0.960 . S
H352 C365 0.961 . S
H353 C365 0.959 . S
H354 C368 0.929 . S
H355 C369 0.931 . S
H356 C371 0.930 . S
C357 H345 0.930 . S
C357 C358 1.399 . S
C357 C362 1.399 . S
C358 C357 1.399 . S
C358 C359 1.376 . S
C359 H346 0.930 . S
C359 C358 1.376 . S
C359 C360 1.388 . S
C360 H347 0.930 . S
C360 C359 1.388 . S
C360 C361 1.390 . S
C361 C360 1.390 . S
C361 C362 1.394 . S
C361 C367 1.465 . S
C362 C357 1.399 . S
C362 C361 1.394 . S
C362 C363 1.516 . S
C363 C362 1.516 . S
C363 C364 1.502 . S
C363 C365 1.561 . S
C363 C366 1.526 . S
C364 H348 0.959 . S
C364 H349 0.959 . S
C364 H350 0.961 . S
C364 C363 1.502 . S
C365 H351 0.960 . S
C365 H352 0.961 . S
C365 H353 0.959 . S
C365 C363 1.561 . S
C366 C363 1.526 . S
C366 C367 1.396 . S
C366 C371 1.390 . S
C367 C361 1.465 . S
C367 C366 1.396 . S
C367 C368 1.399 . S
C368 H354 0.929 . S
C368 C367 1.399 . S
C368 C369 1.385 . S
C369 H355 0.931 . S
C369 C368 1.385 . S
C369 C370 1.389 . S
C370 C369 1.389 . S
C370 C371 1.387 . S
C371 H356 0.930 . S
C371 C366 1.390 . S
C371 C370 1.387 . S
H372 C384 0.930 . S
H373 C386 0.930 . S
H374 C387 0.930 . S
H375 C391 0.959 . S
H376 C391 0.959 . S
H377 C391 0.961 . S
H378 C392 0.960 . S
H379 C392 0.961 . S
H380 C392 0.959 . S
H381 C395 0.929 . S
H382 C396 0.931 . S
H383 C398 0.930 . S
C384 H372 0.930 . S
C384 C385 1.399 . S
C384 C389 1.399 . S
C385 C384 1.399 . S
C385 C386 1.376 . S
C386 H373 0.930 . S
C386 C385 1.376 . S
C386 C387 1.388 . S
C387 H374 0.930 . S
C387 C386 1.388 . S
C387 C388 1.390 . S
C388 C387 1.390 . S
C388 C389 1.394 . S
C388 C394 1.465 . S
C389 C384 1.399 . S
C389 C388 1.394 . S
C389 C390 1.516 . S
C390 C389 1.516 . S
C390 C391 1.502 . S
C390 C392 1.561 . S
C390 C393 1.526 . S
C391 H375 0.959 . S
C391 H376 0.959 . S
C391 H377 0.961 . S
C391 C390 1.502 . S
C392 H378 0.960 . S
C392 H379 0.961 . S
C392 H380 0.959 . S
C392 C390 1.561 . S
C393 C390 1.526 . S
C393 C394 1.396 . S
C393 C398 1.390 . S
C394 C388 1.465 . S
C394 C393 1.396 . S
C394 C395 1.399 . S
C395 H381 0.929 . S
C395 C394 1.399 . S
C395 C396 1.385 . S
C396 H382 0.931 . S
C396 C395 1.385 . S
C396 C397 1.389 . S
C397 C396 1.389 . S
C397 C398 1.387 . S
C398 H383 0.930 . S
C398 C393 1.390 . S
C398 C397 1.387 . S
H399 C411 0.930 . S
H400 C413 0.930 . S
H401 C414 0.930 . S
H402 C418 0.959 1_556 S
H403 C418 0.959 . S
H404 C418 0.961 . S
H405 C419 0.960 . S
H406 C419 0.961 . S
H407 C419 0.959 . S
H408 C422 0.929 . S
H409 C423 0.931 . S
H410 C425 0.930 . S
C411 H399 0.930 . S
C411 C412 1.399 . S
C411 C416 1.399 . S
C412 C411 1.399 . S
C412 C413 1.376 . S
C413 H400 0.930 . S
C413 C412 1.376 . S
C413 C414 1.388 . S
C414 H401 0.930 . S
C414 C413 1.388 . S
C414 C415 1.390 . S
C415 C414 1.390 . S
C415 C416 1.394 . S
C415 C421 1.465 . S
C416 C411 1.399 . S
C416 C415 1.394 . S
C416 C417 1.516 . S
C417 C416 1.516 . S
C417 C418 1.502 1_556 S
C417 C419 1.561 1_556 S
C417 C420 1.526 . S
C418 H402 0.959 1_554 S
C418 H403 0.959 . S
C418 H404 0.961 . S
C418 C417 1.502 1_554 S
C419 H405 0.960 . S
C419 H406 0.961 . S
C419 H407 0.959 . S
C419 C417 1.561 1_554 S
C420 C417 1.526 . S
C420 C421 1.396 . S
C420 C425 1.390 . S
C421 C415 1.465 . S
C421 C420 1.396 . S
C421 C422 1.399 . S
C422 H408 0.929 . S
C422 C421 1.399 . S
C422 C423 1.385 . S
C423 H409 0.931 . S
C423 C422 1.385 . S
C423 C424 1.389 . S
C424 C423 1.389 . S
C424 C425 1.387 . S
C425 H410 0.930 . S
C425 C420 1.390 . S
C425 C424 1.387 . S
H426 C438 0.930 . S
H427 C440 0.930 . S
H428 C441 0.930 . S
H429 C445 0.959 . S
H430 C445 0.959 1_556 S
H431 C445 0.961 1_556 S
H432 C446 0.960 . S
H433 C446 0.961 . S
H434 C446 0.959 . S
H435 C449 0.929 . S
H436 C450 0.931 . S
H437 C452 0.930 . S
C438 H426 0.930 . S
C438 C439 1.399 . S
C438 C443 1.399 . S
C439 C438 1.399 . S
C439 C440 1.376 . S
C440 H427 0.930 . S
C440 C439 1.376 . S
C440 C441 1.388 . S
C441 H428 0.930 . S
C441 C440 1.388 . S
C441 C442 1.390 . S
C442 C441 1.390 . S
C442 C443 1.394 . S
C442 C448 1.465 . S
C443 C438 1.399 . S
C443 C442 1.394 . S
C443 C444 1.516 . S
C444 C443 1.516 . S
C444 C445 1.502 . S
C444 C446 1.561 1_554 S
C444 C447 1.526 . S
C445 H429 0.959 . S
C445 H430 0.959 1_554 S
C445 H431 0.961 1_554 S
C445 C444 1.502 . S
C446 H432 0.960 . S
C446 H433 0.961 . S
C446 H434 0.959 . S
C446 C444 1.561 1_556 S
C447 C444 1.526 . S
C447 C448 1.396 . S
C447 C452 1.390 . S
C448 C442 1.465 . S
C448 C447 1.396 . S
C448 C449 1.399 . S
C449 H435 0.929 . S
C449 C448 1.399 . S
C449 C450 1.385 . S
C450 H436 0.931 . S
C450 C449 1.385 . S
C450 C451 1.389 . S
C451 C450 1.389 . S
C451 C452 1.387 . S
C452 H437 0.930 . S
C452 C447 1.390 . S
C452 C451 1.387 . S
H453 C465 0.930 . S
H454 C467 0.930 . S
H455 C468 0.930 . S
H456 C472 0.959 . S
H457 C472 0.959 . S
H458 C472 0.961 . S
H459 C473 0.960 . S
H460 C473 0.961 . S
H461 C473 0.959 . S
H462 C476 0.929 . S
H463 C477 0.931 . S
H464 C479 0.930 . S
C465 H453 0.930 . S
C465 C466 1.399 . S
C465 C470 1.399 . S
C466 C465 1.399 . S
C466 C467 1.376 . S
C467 H454 0.930 . S
C467 C466 1.376 . S
C467 C468 1.388 . S
C468 H455 0.930 . S
C468 C467 1.388 . S
C468 C469 1.390 . S
C469 C468 1.390 . S
C469 C470 1.394 . S
C469 C475 1.465 . S
C470 C465 1.399 . S
C470 C469 1.394 . S
C470 C471 1.516 . S
C471 C470 1.516 . S
C471 C472 1.502 . S
C471 C473 1.561 . S
C471 C474 1.526 . S
C472 H456 0.959 . S
C472 H457 0.959 . S
C472 H458 0.961 . S
C472 C471 1.502 . S
C473 H459 0.960 . S
C473 H460 0.961 . S
C473 H461 0.959 . S
C473 C471 1.561 . S
C474 C471 1.526 . S
C474 C475 1.396 . S
C474 C479 1.390 . S
C475 C469 1.465 . S
C475 C474 1.396 . S
C475 C476 1.399 . S
C476 H462 0.929 . S
C476 C475 1.399 . S
C476 C477 1.385 . S
C477 H463 0.931 . S
C477 C476 1.385 . S
C477 C478 1.389 . S
C478 C477 1.389 . S
C478 C479 1.387 . S
C479 H464 0.930 . S
C479 C474 1.390 . S
C479 C478 1.387 . S
H480 C492 0.930 . S
H481 C494 0.930 . S
H482 C495 0.930 . S
H483 C499 0.959 . S
H484 C499 0.959 . S
H485 C499 0.961 . S
H486 C500 0.960 . S
H487 C500 0.961 . S
H488 C500 0.959 . S
H489 C503 0.929 . S
H490 C504 0.931 . S
H491 C506 0.930 . S
C492 H480 0.930 . S
C492 C493 1.399 . S
C492 C497 1.399 . S
C493 C492 1.399 . S
C493 C494 1.376 . S
C494 H481 0.930 . S
C494 C493 1.376 . S
C494 C495 1.388 . S
C495 H482 0.930 . S
C495 C494 1.388 . S
C495 C496 1.390 . S
C496 C495 1.390 . S
C496 C497 1.394 . S
C496 C502 1.465 . S
C497 C492 1.399 . S
C497 C496 1.394 . S
C497 C498 1.516 . S
C498 C497 1.516 . S
C498 C499 1.502 . S
C498 C500 1.561 . S
C498 C501 1.526 . S
C499 H483 0.959 . S
C499 H484 0.959 . S
C499 H485 0.961 . S
C499 C498 1.502 . S
C500 H486 0.960 . S
C500 H487 0.961 . S
C500 H488 0.959 . S
C500 C498 1.561 . S
C501 C498 1.526 . S
C501 C502 1.396 . S
C501 C506 1.390 . S
C502 C496 1.465 . S
C502 C501 1.396 . S
C502 C503 1.399 . S
C503 H489 0.929 . S
C503 C502 1.399 . S
C503 C504 1.385 . S
C504 H490 0.931 . S
C504 C503 1.385 . S
C504 C505 1.389 . S
C505 C504 1.389 . S
C505 C506 1.387 . S
C506 H491 0.930 . S
C506 C501 1.390 . S
C506 C505 1.387 . S
H507 C519 0.930 . S
H508 C521 0.930 1_554 S
H509 C522 0.930 . S
H510 C526 0.959 . S
H511 C526 0.959 . S
H512 C526 0.961 . S
H513 C527 0.960 . S
H514 C527 0.961 . S
H515 C527 0.959 . S
H516 C530 0.929 . S
H517 C531 0.931 . S
H518 C533 0.930 . S
C519 H507 0.930 . S
C519 C520 1.399 . S
C519 C524 1.399 . S
C520 C519 1.399 . S
C520 C521 1.376 . S
C521 H508 0.930 1_556 S
C521 C520 1.376 . S
C521 C522 1.388 1_655 S
C522 H509 0.930 . S
C522 C521 1.388 1_455 S
C522 C523 1.390 1_455 S
C523 C522 1.390 1_655 S
C523 C524 1.394 . S
C523 C529 1.465 1_655 S
C524 C519 1.399 . S
C524 C523 1.394 . S
C524 C525 1.516 . S
C525 C524 1.516 . S
C525 C526 1.502 . S
C525 C527 1.561 . S
C525 C528 1.526 1_655 S
C526 H510 0.959 . S
C526 H511 0.959 . S
C526 H512 0.961 . S
C526 C525 1.502 . S
C527 H513 0.960 . S
C527 H514 0.961 . S
C527 H515 0.959 . S
C527 C525 1.561 . S
C528 C525 1.526 1_455 S
C528 C529 1.396 . S
C528 C533 1.390 . S
C529 C523 1.465 1_455 S
C529 C528 1.396 . S
C529 C530 1.399 . S
C530 H516 0.929 . S
C530 C529 1.399 . S
C530 C531 1.385 . S
C531 H517 0.931 . S
C531 C530 1.385 . S
C531 C532 1.389 . S
C532 C531 1.389 . S
C532 C533 1.387 . S
C533 H518 0.930 . S
C533 C528 1.390 . S
C533 C532 1.387 . S
H534 C546 0.930 . S
H535 C548 0.930 . S
H536 C549 0.930 . S
H537 C553 0.959 . S
H538 C553 0.959 1_545 S
H539 C553 0.961 1_554 S
H540 C554 0.960 . S
H541 C554 0.961 . S
H542 C554 0.959 . S
H543 C557 0.929 . S
H544 C558 0.931 . S
H545 C560 0.930 . S
C546 H534 0.930 . S
C546 C547 1.399 . S
C546 C551 1.399 . S
C547 C546 1.399 . S
C547 C548 1.376 . S
C548 H535 0.930 . S
C548 C547 1.376 . S
C548 C549 1.388 . S
C549 H536 0.930 . S
C549 C548 1.388 . S
C549 C550 1.390 . S
C550 C549 1.390 . S
C550 C551 1.394 . S
C550 C556 1.465 1_564 S
C551 C546 1.399 . S
C551 C550 1.394 . S
C551 C552 1.516 1_565 S
C552 C551 1.516 1_545 S
C552 C553 1.502 1_544 S
C552 C554 1.561 . S
C552 C555 1.526 1_554 S
C553 H537 0.959 . S
C553 H538 0.959 1_565 S
C553 H539 0.961 1_556 S
C553 C552 1.502 1_566 S
C554 H540 0.960 . S
C554 H541 0.961 . S
C554 H542 0.959 . S
C554 C552 1.561 . S
C555 C552 1.526 1_556 S
C555 C556 1.396 . S
C555 C560 1.390 . S
C556 C550 1.465 1_546 S
C556 C555 1.396 . S
C556 C557 1.399 . S
C557 H543 0.929 . S
C557 C556 1.399 . S
C557 C558 1.385 . S
C558 H544 0.931 . S
C558 C557 1.385 . S
C558 C559 1.389 . S
C559 C558 1.389 . S
C559 C560 1.387 . S
C560 H545 0.930 . S
C560 C555 1.390 . S
C560 C559 1.387 . S
H561 C573 0.930 . S
H562 C575 0.930 . S
H563 C576 0.930 . S
H564 C580 0.959 . S
H565 C580 0.959 . S
H566 C580 0.961 . S
H567 C581 0.960 . S
H568 C581 0.961 . S
H569 C581 0.959 . S
H570 C584 0.929 . S
H571 C585 0.931 . S
H572 C587 0.930 . S
C573 H561 0.930 . S
C573 C574 1.399 . S
C573 C578 1.399 . S
C574 C573 1.399 . S
C574 C575 1.376 . S
C575 H562 0.930 . S
C575 C574 1.376 . S
C575 C576 1.388 . S
C576 H563 0.930 . S
C576 C575 1.388 . S
C576 C577 1.390 . S
C577 C576 1.390 . S
C577 C578 1.394 . S
C577 C583 1.465 . S
C578 C573 1.399 . S
C578 C577 1.394 . S
C578 C579 1.516 . S
C579 C578 1.516 . S
C579 C580 1.502 . S
C579 C581 1.561 . S
C579 C582 1.526 . S
C580 H564 0.959 . S
C580 H565 0.959 . S
C580 H566 0.961 . S
C580 C579 1.502 . S
C581 H567 0.960 . S
C581 H568 0.961 . S
C581 H569 0.959 . S
C581 C579 1.561 . S
C582 C579 1.526 . S
C582 C583 1.396 . S
C582 C587 1.390 . S
C583 C577 1.465 . S
C583 C582 1.396 . S
C583 C584 1.399 . S
C584 H570 0.929 . S
C584 C583 1.399 . S
C584 C585 1.385 . S
C585 H571 0.931 . S
C585 C584 1.385 . S
C585 C586 1.389 . S
C586 C585 1.389 . S
C586 C587 1.387 . S
C587 H572 0.930 . S
C587 C582 1.390 . S
C587 C586 1.387 . S
H588 C600 0.930 . S
H589 C602 0.930 . S
H590 C603 0.930 . S
H591 C607 0.959 . S
H592 C607 0.959 . S
H593 C607 0.961 . S
H594 C608 0.960 . S
H595 C608 0.961 . S
H596 C608 0.959 . S
H597 C611 0.929 . S
H598 C612 0.931 . S
H599 C614 0.930 . S
C600 H588 0.930 . S
C600 C601 1.399 . S
C600 C605 1.399 . S
C601 C600 1.399 . S
C601 C602 1.376 . S
C602 H589 0.930 . S
C602 C601 1.376 . S
C602 C603 1.388 . S
C603 H590 0.930 . S
C603 C602 1.388 . S
C603 C604 1.390 . S
C604 C603 1.390 . S
C604 C605 1.394 . S
C604 C610 1.465 1_455 S
C605 C600 1.399 . S
C605 C604 1.394 . S
C605 C606 1.516 1_455 S
C606 C605 1.516 1_655 S
C606 C607 1.502 1_655 S
C606 C608 1.561 . S
C606 C609 1.526 . S
C607 H591 0.959 . S
C607 H592 0.959 . S
C607 H593 0.961 . S
C607 C606 1.502 1_455 S
C608 H594 0.960 . S
C608 H595 0.961 . S
C608 H596 0.959 . S
C608 C606 1.561 . S
C609 C606 1.526 . S
C609 C610 1.396 . S
C609 C614 1.390 . S
C610 C604 1.465 1_655 S
C610 C609 1.396 . S
C610 C611 1.399 . S
C611 H597 0.929 . S
C611 C610 1.399 . S
C611 C612 1.385 . S
C612 H598 0.931 . S
C612 C611 1.385 . S
C612 C613 1.389 . S
C613 C612 1.389 . S
C613 C614 1.387 . S
C614 H599 0.930 . S
C614 C609 1.390 . S
C614 C613 1.387 . S
H615 C627 0.930 . S
H616 C629 0.930 . S
H617 C630 0.930 . S
H618 C634 0.959 . S
H619 C634 0.959 . S
H620 C634 0.961 . S
H621 C635 0.960 . S
H622 C635 0.961 . S
H623 C635 0.959 . S
H624 C638 0.929 . S
H625 C639 0.931 . S
H626 C641 0.930 . S
C627 H615 0.930 . S
C627 C628 1.399 . S
C627 C632 1.399 . S
C628 C627 1.399 . S
C628 C629 1.376 . S
C629 H616 0.930 . S
C629 C628 1.376 . S
C629 C630 1.388 1_565 S
C630 H617 0.930 . S
C630 C629 1.388 1_545 S
C630 C631 1.390 . S
C631 C630 1.390 . S
C631 C632 1.394 1_545 S
C631 C637 1.465 . S
C632 C627 1.399 . S
C632 C631 1.394 1_565 S
C632 C633 1.516 . S
C633 C632 1.516 . S
C633 C634 1.502 . S
C633 C635 1.561 . S
C633 C636 1.526 1_565 S
C634 H618 0.959 . S
C634 H619 0.959 . S
C634 H620 0.961 . S
C634 C633 1.502 . S
C635 H621 0.960 . S
C635 H622 0.961 . S
C635 H623 0.959 . S
C635 C633 1.561 . S
C636 C633 1.526 1_545 S
C636 C637 1.396 . S
C636 C641 1.390 . S
C637 C631 1.465 . S
C637 C636 1.396 . S
C637 C638 1.399 . S
C638 H624 0.929 . S
C638 C637 1.399 . S
C638 C639 1.385 . S
C639 H625 0.931 . S
C639 C638 1.385 . S
C639 C640 1.389 . S
C640 C639 1.389 . S
C640 C641 1.387 . S
C641 H626 0.930 . S
C641 C636 1.390 . S
C641 C640 1.387 . S
H642 C654 0.930 . S
H643 C656 0.930 . S
H644 C657 0.930 . S
H645 C661 0.959 . S
H646 C661 0.959 . S
H647 C661 0.961 . S
H648 C662 0.960 . S
H649 C662 0.961 . S
H650 C662 0.959 . S
H651 C665 0.929 . S
H652 C666 0.931 . S
H653 C668 0.930 . S
C654 H642 0.930 . S
C654 C655 1.399 . S
C654 C659 1.399 . S
C655 C654 1.399 . S
C655 C656 1.376 . S
C656 H643 0.930 . S
C656 C655 1.376 . S
C656 C657 1.388 . S
C657 H644 0.930 . S
C657 C656 1.388 . S
C657 C658 1.390 . S
C658 C657 1.390 . S
C658 C659 1.394 . S
C658 C664 1.465 . S
C659 C654 1.399 . S
C659 C658 1.394 . S
C659 C660 1.516 . S
C660 C659 1.516 . S
C660 C661 1.502 . S
C660 C662 1.561 . S
C660 C663 1.526 . S
C661 H645 0.959 . S
C661 H646 0.959 . S
C661 H647 0.961 . S
C661 C660 1.502 . S
C662 H648 0.960 . S
C662 H649 0.961 . S
C662 H650 0.959 . S
C662 C660 1.561 . S
C663 C660 1.526 . S
C663 C664 1.396 . S
C663 C668 1.390 . S
C664 C658 1.465 . S
C664 C663 1.396 . S
C664 C665 1.399 . S
C665 H651 0.929 . S
C665 C664 1.399 . S
C665 C666 1.385 . S
C666 H652 0.931 . S
C666 C665 1.385 . S
C666 C667 1.389 . S
C667 C666 1.389 . S
C667 C668 1.387 . S
C668 H653 0.930 . S
C668 C663 1.390 . S
C668 C667 1.387 . S
H669 C681 0.930 . S
H670 C683 0.930 . S
H671 C684 0.930 . S
H672 C688 0.959 . S
H673 C688 0.959 . S
H674 C688 0.961 . S
H675 C689 0.960 . S
H676 C689 0.961 . S
H677 C689 0.959 . S
H678 C692 0.929 . S
H679 C693 0.931 . S
H680 C695 0.930 . S
C681 H669 0.930 . S
C681 C682 1.399 . S
C681 C686 1.399 . S
C682 C681 1.399 . S
C682 C683 1.376 . S
C683 H670 0.930 . S
C683 C682 1.376 . S
C683 C684 1.388 . S
C684 H671 0.930 . S
C684 C683 1.388 . S
C684 C685 1.390 . S
C685 C684 1.390 . S
C685 C686 1.394 . S
C685 C691 1.465 . S
C686 C681 1.399 . S
C686 C685 1.394 . S
C686 C687 1.516 . S
C687 C686 1.516 . S
C687 C688 1.502 . S
C687 C689 1.561 . S
C687 C690 1.526 . S
C688 H672 0.959 . S
C688 H673 0.959 . S
C688 H674 0.961 . S
C688 C687 1.502 . S
C689 H675 0.960 . S
C689 H676 0.961 . S
C689 H677 0.959 . S
C689 C687 1.561 . S
C690 C687 1.526 . S
C690 C691 1.396 . S
C690 C695 1.390 . S
C691 C685 1.465 . S
C691 C690 1.396 . S
C691 C692 1.399 . S
C692 H678 0.929 . S
C692 C691 1.399 . S
C692 C693 1.385 . S
C693 H679 0.931 . S
C693 C692 1.385 . S
C693 C694 1.389 . S
C694 C693 1.389 . S
C694 C695 1.387 . S
C695 H680 0.930 . S
C695 C690 1.390 . S
C695 C694 1.387 . S
H696 C708 0.930 . S
H697 C710 0.930 . S
H698 C711 0.930 . S
H699 C715 0.959 . S
H700 C715 0.959 . S
H701 C715 0.961 . S
H702 C716 0.960 . S
H703 C716 0.961 . S
H704 C716 0.959 . S
H705 C719 0.929 . S
H706 C720 0.931 . S
H707 C722 0.930 . S
C708 H696 0.930 . S
C708 C709 1.399 1_556 S
C708 C713 1.399 . S
C709 C708 1.399 1_554 S
C709 C710 1.376 . S
C710 H697 0.930 . S
C710 C709 1.376 . S
C710 C711 1.388 . S
C711 H698 0.930 . S
C711 C710 1.388 . S
C711 C712 1.390 1_554 S
C712 C711 1.390 1_556 S
C712 C713 1.394 . S
C712 C718 1.465 . S
C713 C708 1.399 . S
C713 C712 1.394 . S
C713 C714 1.516 . S
C714 C713 1.516 . S
C714 C715 1.502 . S
C714 C716 1.561 . S
C714 C717 1.526 . S
C715 H699 0.959 . S
C715 H700 0.959 . S
C715 H701 0.961 . S
C715 C714 1.502 . S
C716 H702 0.960 . S
C716 H703 0.961 . S
C716 H704 0.959 . S
C716 C714 1.561 . S
C717 C714 1.526 . S
C717 C718 1.396 . S
C717 C722 1.390 . S
C718 C712 1.465 . S
C718 C717 1.396 . S
C718 C719 1.399 . S
C719 H705 0.929 . S
C719 C718 1.399 . S
C719 C720 1.385 . S
C720 H706 0.931 . S
C720 C719 1.385 . S
C720 C721 1.389 . S
C721 C720 1.389 . S
C721 C722 1.387 . S
C722 H707 0.930 . S
C722 C717 1.390 . S
C722 C721 1.387 . S
H723 C735 0.930 . S
H724 C737 0.930 . S
H725 C738 0.930 . S
H726 C742 0.959 . S
H727 C742 0.959 . S
H728 C742 0.961 . S
H729 C743 0.960 . S
H730 C743 0.961 . S
H731 C743 0.959 . S
H732 C746 0.929 . S
H733 C747 0.931 . S
H734 C749 0.930 . S
C735 H723 0.930 . S
C735 C736 1.399 . S
C735 C740 1.399 . S
C736 C735 1.399 . S
C736 C737 1.376 . S
C737 H724 0.930 . S
C737 C736 1.376 . S
C737 C738 1.388 . S
C738 H725 0.930 . S
C738 C737 1.388 . S
C738 C739 1.390 . S
C739 C738 1.390 . S
C739 C740 1.394 . S
C739 C745 1.465 . S
C740 C735 1.399 . S
C740 C739 1.394 . S
C740 C741 1.516 . S
C741 C740 1.516 . S
C741 C742 1.502 . S
C741 C743 1.561 . S
C741 C744 1.526 . S
C742 H726 0.959 . S
C742 H727 0.959 . S
C742 H728 0.961 . S
C742 C741 1.502 . S
C743 H729 0.960 . S
C743 H730 0.961 . S
C743 H731 0.959 . S
C743 C741 1.561 . S
C744 C741 1.526 . S
C744 C745 1.396 . S
C744 C749 1.390 . S
C745 C739 1.465 . S
C745 C744 1.396 . S
C745 C746 1.399 1_554 S
C746 H732 0.929 . S
C746 C745 1.399 1_556 S
C746 C747 1.385 . S
C747 H733 0.931 . S
C747 C746 1.385 . S
C747 C748 1.389 . S
C748 C747 1.389 . S
C748 C749 1.387 1_556 S
C749 H734 0.930 . S
C749 C744 1.390 . S
C749 C748 1.387 1_554 S
H750 C762 0.930 . S
H751 C764 0.930 . S
H752 C765 0.930 . S
H753 C769 0.959 . S
H754 C769 0.959 . S
H755 C769 0.961 . S
H756 C770 0.960 . S
H757 C770 0.961 . S
H758 C770 0.959 . S
H759 C773 0.929 . S
H760 C774 0.931 . S
H761 C776 0.930 . S
C762 H750 0.930 . S
C762 C763 1.399 . S
C762 C767 1.399 . S
C763 C762 1.399 . S
C763 C764 1.376 . S
C764 H751 0.930 . S
C764 C763 1.376 . S
C764 C765 1.388 . S
C765 H752 0.930 . S
C765 C764 1.388 . S
C765 C766 1.390 . S
C766 C765 1.390 . S
C766 C767 1.394 . S
C766 C772 1.465 . S
C767 C762 1.399 . S
C767 C766 1.394 . S
C767 C768 1.516 . S
C768 C767 1.516 . S
C768 C769 1.502 . S
C768 C770 1.561 . S
C768 C771 1.526 . S
C769 H753 0.959 . S
C769 H754 0.959 . S
C769 H755 0.961 . S
C769 C768 1.502 . S
C770 H756 0.960 . S
C770 H757 0.961 . S
C770 H758 0.959 . S
C770 C768 1.561 . S
C771 C768 1.526 . S
C771 C772 1.396 . S
C771 C776 1.390 . S
C772 C766 1.465 . S
C772 C771 1.396 . S
C772 C773 1.399 . S
C773 H759 0.929 . S
C773 C772 1.399 . S
C773 C774 1.385 . S
C774 H760 0.931 . S
C774 C773 1.385 . S
C774 C775 1.389 . S
C775 C774 1.389 . S
C775 C776 1.387 . S
C776 H761 0.930 . S
C776 C771 1.390 . S
C776 C775 1.387 . S
H777 C789 0.930 . S
H778 C791 0.930 . S
H779 C792 0.930 . S
H780 C796 0.959 . S
H781 C796 0.959 . S
H782 C796 0.961 . S
H783 C797 0.960 . S
H784 C797 0.961 . S
H785 C797 0.959 . S
H786 C800 0.929 . S
H787 C801 0.931 . S
H788 C803 0.930 . S
C789 H777 0.930 . S
C789 C790 1.399 . S
C789 C794 1.399 . S
C790 C789 1.399 . S
C790 C791 1.376 . S
C791 H778 0.930 . S
C791 C790 1.376 . S
C791 C792 1.388 . S
C792 H779 0.930 . S
C792 C791 1.388 . S
C792 C793 1.390 . S
C793 C792 1.390 . S
C793 C794 1.394 . S
C793 C799 1.465 . S
C794 C789 1.399 . S
C794 C793 1.394 . S
C794 C795 1.516 . S
C795 C794 1.516 . S
C795 C796 1.502 . S
C795 C797 1.561 . S
C795 C798 1.526 . S
C796 H780 0.959 . S
C796 H781 0.959 . S
C796 H782 0.961 . S
C796 C795 1.502 . S
C797 H783 0.960 . S
C797 H784 0.961 . S
C797 H785 0.959 . S
C797 C795 1.561 . S
C798 C795 1.526 . S
C798 C799 1.396 . S
C798 C803 1.390 . S
C799 C793 1.465 . S
C799 C798 1.396 . S
C799 C800 1.399 . S
C800 H786 0.929 . S
C800 C799 1.399 . S
C800 C801 1.385 . S
C801 H787 0.931 . S
C801 C800 1.385 . S
C801 C802 1.389 . S
C802 C801 1.389 . S
C802 C803 1.387 . S
C803 H788 0.930 . S
C803 C798 1.390 . S
C803 C802 1.387 . S
C169 C122 1.423 . S
C181 C5 1.414 . S
C196 C18 1.342 . S
C208 C135 1.372 . S
C223 C148 1.387 . S
C235 C31 1.355 . S
C250 C83 1.380 . S
C262 C44 1.408 . S
C277 C96 1.412 . S
C289 C57 1.385 . S
C304 C109 1.399 . S
C316 C70 1.419 . S
C331 C88 1.470 . S
C343 C10 1.437 . S
C358 C23 1.470 . S
C370 C101 1.437 . S
C385 C114 1.441 . S
C397 C36 1.469 . S
C412 C49 1.470 . S
C424 C127 1.432 . S
C439 C140 1.470 . S
C451 C62 1.438 . S
C466 C75 1.438 . S
C478 C153 1.470 . S
C493 C125 1.013 . S
C505 C8 0.942 . S
C520 C138 0.949 . S
C532 C21 1.002 . S
C547 C151 0.984 . S
C559 C34 0.986 . S
C574 C47 0.971 . S
C586 C86 0.998 . S
C601 C99 0.976 . S
C613 C60 0.994 . S
C628 C73 0.940 . S
C640 C112 1.015 . S
C655 C0 1.281 . S
C667 C104 1.340 . S
C682 C117 1.317 . S
C694 C13 1.366 . S
C709 C130 1.366 . S
C721 C26 1.322 . S
C736 C143 1.300 . S
C748 C39 1.362 . S
C763 C78 1.330 . S
C775 C52 1.364 . S
C790 C91 1.280 . S
C802 C65 1.336 . S
