# Generated by pormake.
# Topology rac, (4)-cn, num edge types: 1
# Building blocks:
#     Node 0, Type 0, BuildingBlock: QUQFOY_clean_sbu_1, # of connection points: 4
#     Node 1, Type 0, BuildingBlock: QUQFOY_clean_sbu_1, # of connection points: 4
#     Node 2, Type 0, BuildingBlock: QUQFOY_clean_sbu_1, # of connection points: 4
#     Node 3, Type 0, BuildingBlock: QUQFOY_clean_sbu_1, # of connection points: 4
#     Node 4, Type 0, BuildingBlock: QUQFOY_clean_sbu_1, # of connection points: 4
#     Node 5, Type 0, BuildingBlock: QUQFOY_clean_sbu_1, # of connection points: 4
#     Node 6, Type 0, BuildingBlock: QUQFOY_clean_sbu_1, # of connection points: 4
#     Node 7, Type 0, BuildingBlock: QUQFOY_clean_sbu_1, # of connection points: 4
#     Edge 8, Type (0, 0), BuildingBlock: TEMPAE_clean_linker_10, # of connection points: 2
#     Edge 9, Type (0, 0), BuildingBlock: TEMPAE_clean_linker_10, # of connection points: 2
#     Edge 10, Type (0, 0), BuildingBlock: TEMPAE_clean_linker_10, # of connection points: 2
#     Edge 11, Type (0, 0), BuildingBlock: TEMPAE_clean_linker_10, # of connection points: 2
#     Edge 12, Type (0, 0), BuildingBlock: TEMPAE_clean_linker_10, # of connection points: 2
#     Edge 13, Type (0, 0), BuildingBlock: TEMPAE_clean_linker_10, # of connection points: 2
#     Edge 14, Type (0, 0), BuildingBlock: TEMPAE_clean_linker_10, # of connection points: 2
#     Edge 15, Type (0, 0), BuildingBlock: TEMPAE_clean_linker_10, # of connection points: 2
#     Edge 16, Type (0, 0), BuildingBlock: TEMPAE_clean_linker_10, # of connection points: 2
#     Edge 17, Type (0, 0), BuildingBlock: TEMPAE_clean_linker_10, # of connection points: 2
#     Edge 18, Type (0, 0), BuildingBlock: TEMPAE_clean_linker_10, # of connection points: 2
#     Edge 19, Type (0, 0), BuildingBlock: TEMPAE_clean_linker_10, # of connection points: 2
#     Edge 20, Type (0, 0), BuildingBlock: TEMPAE_clean_linker_10, # of connection points: 2
#     Edge 21, Type (0, 0), BuildingBlock: TEMPAE_clean_linker_10, # of connection points: 2
#     Edge 22, Type (0, 0), BuildingBlock: TEMPAE_clean_linker_10, # of connection points: 2
#     Edge 23, Type (0, 0), BuildingBlock: TEMPAE_clean_linker_10, # of connection points: 2
# Relax obj value: 0.259
# Max RMSD: 0.150
# Mean RMSD: 0.150
data_MOF--net-rac--node1-QUQFOY_clean_sbu_1--edge1-TEMPAE_clean_linker_10
_symmetry_space_group_name_H-M    P1
_symmetry_Int_Tables_number       1
_symmetry_cell_setting            triclinic
loop_
_symmetry_equiv_pos_as_xyz
'x, y, z'
_cell_length_a     42.327464
_cell_length_b     20.236852
_cell_length_c     47.243583
_cell_angle_alpha  90.080575
_cell_angle_beta   90.028371
_cell_angle_gamma 89.917856
loop_
_atom_site_label
_atom_site_type_symbol
_atom_site_fract_x
_atom_site_fract_y
_atom_site_fract_z
_atom_type_partial_charge
O0 O 0.36163 0.34672 0.07312 0.0
Cd1 Cd 0.38766 0.2801 0.05038 0.0
Cd2 Cd 0.38521 0.21447 0.10435 0.0
O3 O 0.3545 0.29033 0.11245 0.0
O4 O 0.39734 0.3339 0.01573 0.0
O5 O 0.43417 0.30162 0.04573 0.0
C6 C 0.42635 0.33674 0.02397 0.0
C7 C 0.4139 0.19397 0.14597 0.0
C8 C 0.34942 0.3411 0.09749 0.0
C9 C 0.35656 0.144 0.05386 0.0
O10 O 0.36679 0.14028 0.07919 0.0
O11 O 0.36254 0.19472 0.03867 0.0
O12 O 0.38558 0.1726 0.14249 0.0
O13 O 0.42741 0.22184 0.12461 0.0
O14 O 0.16249 0.65091 0.07518 0.0
Cd15 Cd 0.13594 0.71726 0.05285 0.0
Cd16 Cd 0.13948 0.78283 0.10704 0.0
O17 O 0.17007 0.70655 0.11471 0.0
O18 O 0.12604 0.66323 0.01824 0.0
O19 O 0.08944 0.69502 0.04856 0.0
C20 C 0.09714 0.65997 0.02672 0.0
C21 C 0.11119 0.80401 0.14884 0.0
C22 C 0.17498 0.65608 0.09947 0.0
C23 C 0.1672 0.85323 0.05608 0.0
O24 O 0.15773 0.85668 0.08165 0.0
O25 O 0.16068 0.80277 0.04085 0.0
O26 O 0.1396 0.82477 0.14524 0.0
O27 O 0.09742 0.77621 0.12755 0.0
O28 O 0.35596 0.19033 0.43951 0.0
Cd29 Cd 0.39239 0.25241 0.44802 0.0
Cd30 Cd 0.38592 0.28657 0.39227 0.0
O31 O 0.35848 0.20294 0.39314 0.0
O32 O 0.41694 0.21194 0.47993 0.0
O33 O 0.43498 0.21838 0.43596 0.0
C34 C 0.43831 0.19642 0.46153 0.0
C35 C 0.40992 0.29658 0.34749 0.0
C36 C 0.34706 0.17482 0.41478 0.0
C37 C 0.36214 0.38235 0.43788 0.0
O38 O 0.36494 0.36798 0.41173 0.0
O39 O 0.37515 0.34622 0.45668 0.0
O40 O 0.38063 0.31024 0.35158 0.0
O41 O 0.42665 0.28121 0.36935 0.0
O42 O 0.16193 0.83941 0.43998 0.0
Cd43 Cd 0.12923 0.77386 0.45378 0.0
Cd44 Cd 0.13476 0.73186 0.39633 0.0
O45 O 0.16221 0.81522 0.39441 0.0
O46 O 0.11451 0.81997 0.48899 0.0
O47 O 0.08302 0.80054 0.45261 0.0
C48 C 0.08758 0.82895 0.4768 0.0
C49 C 0.11091 0.7152 0.35177 0.0
C50 C 0.17169 0.84975 0.41508 0.0
C51 C 0.1621 0.64492 0.44399 0.0
O52 O 0.15631 0.65403 0.41779 0.0
O53 O 0.15109 0.68428 0.46272 0.0
O54 O 0.1401 0.70164 0.3564 0.0
O55 O 0.09411 0.73388 0.37312 0.0
O56 O 0.66152 0.67933 0.97877 0.0
Cd57 Cd 0.62927 0.74047 0.96057 0.0
Cd58 Cd 0.6511 0.69157 0.91308 0.0
O59 O 0.66121 0.61561 0.941 0.0
O60 O 0.58882 0.7334 0.98265 0.0
O61 O 0.5963 0.68789 0.94045 0.0
C62 C 0.57923 0.69326 0.96304 0.0
C63 C 0.63382 0.66809 0.86688 0.0
C64 C 0.66874 0.62533 0.96677 0.0
C65 C 0.67397 0.82695 0.93144 0.0
O66 O 0.67911 0.77459 0.9172 0.0
O67 O 0.65014 0.82965 0.94804 0.0
O68 O 0.66194 0.65332 0.87516 0.0
O69 O 0.61497 0.69507 0.88497 0.0
O70 O 0.86231 0.31616 0.98135 0.0
Cd71 Cd 0.89461 0.25464 0.96336 0.0
Cd72 Cd 0.87349 0.30427 0.9158 0.0
O73 O 0.86378 0.38037 0.94383 0.0
O74 O 0.93505 0.2618 0.98555 0.0
O75 O 0.92764 0.30707 0.94335 0.0
C76 C 0.94466 0.30186 0.96597 0.0
C77 C 0.89092 0.32753 0.86969 0.0
C78 C 0.85572 0.37057 0.96945 0.0
C79 C 0.84988 0.16925 0.93357 0.0
O80 O 0.84502 0.22196 0.91956 0.0
O81 O 0.87359 0.16585 0.95029 0.0
O82 O 0.86291 0.34308 0.87799 0.0
O83 O 0.9096 0.2999 0.88772 0.0
O84 O 0.65559 0.85485 0.57166 0.0
Cd85 Cd 0.63024 0.78488 0.55057 0.0
Cd86 Cd 0.63948 0.71935 0.60971 0.0
O87 O 0.66121 0.80919 0.61376 0.0
O88 O 0.62024 0.83713 0.51559 0.0
O89 O 0.58343 0.804 0.54535 0.0
C90 C 0.59117 0.83917 0.52363 0.0
C91 C 0.62968 0.68189 0.65621 0.0
C92 C 0.66591 0.85653 0.59681 0.0
C93 C 0.66696 0.65499 0.5554 0.0
O94 O 0.66051 0.65398 0.58176 0.0
O95 O 0.6568 0.70122 0.53934 0.0
O96 O 0.65758 0.68511 0.64579 0.0
O97 O 0.60636 0.69485 0.63954 0.0
O98 O 0.85482 0.17302 0.56882 0.0
Cd99 Cd 0.88788 0.23868 0.55506 0.0
Cd100 Cd 0.87867 0.29552 0.61182 0.0
O101 O 0.85223 0.21077 0.61262 0.0
O102 O 0.90956 0.19389 0.52239 0.0
O103 O 0.93255 0.21087 0.56389 0.0
C104 C 0.93333 0.18408 0.53901 0.0
C105 C 0.89128 0.32287 0.65906 0.0
C106 C 0.84404 0.16951 0.5938 0.0
C107 C 0.85748 0.37418 0.5596 0.0
O108 O 0.86098 0.36973 0.58631 0.0
O109 O 0.8682 0.32937 0.54311 0.0
O110 O 0.86307 0.3268 0.64932 0.0
O111 O 0.91346 0.30772 0.64153 0.0
C112 C 0.32848 0.03579 0.05986 0.0
C113 C 0.33237 0.09473 0.04459 0.0
C114 C 0.30139 0.99631 0.05648 0.0
C115 C 0.27727 0.01608 0.03744 0.0
C116 C 0.28209 0.07286 0.02043 0.0
C117 C 0.30958 0.11136 0.02413 0.0
C118 C 0.29767 0.93572 0.07479 0.0
C119 C 0.25722 0.09566 0.99974 0.0
C120 C 0.21301 0.88642 0.02509 0.0
C121 C 0.19111 0.90256 0.04639 0.0
C122 C 0.24035 0.92496 0.0207 0.0
C123 C 0.24594 0.98126 0.03789 0.0
C124 C 0.22268 1.00054 0.05786 0.0
C125 C 0.19572 0.96106 0.06189 0.0
C126 C 0.26428 0.9027 0.99903 0.0
C127 C 0.22725 0.06061 0.0764 0.0
H128 H 0.34592 0.02212 0.07561 0.0
H129 H 0.31212 0.15689 0.0123 0.0
H130 H 0.27863 0.94434 0.09053 0.0
H131 H 0.29064 0.89258 0.06173 0.0
H132 H 0.31974 0.92324 0.08636 0.0
H133 H 0.2664 0.13391 0.98505 0.0
H134 H 0.24813 0.05347 0.98714 0.0
H135 H 0.23696 0.11693 0.01156 0.0
H136 H 0.20991 0.84125 0.01305 0.0
H137 H 0.17897 0.97438 0.07829 0.0
H138 H 0.28505 0.88118 0.01001 0.0
H139 H 0.27278 0.94522 0.98636 0.0
H140 H 0.25445 0.8648 0.98445 0.0
H141 H 0.24699 0.05158 0.09138 0.0
H142 H 0.20573 0.07276 0.08883 0.0
H143 H 0.23368 0.10412 0.06337 0.0
C144 C 0.21179 0.61946 0.47044 0.0
C145 C 0.18828 0.59887 0.45137 0.0
C146 C 0.24116 0.58673 0.47201 0.0
C147 C 0.24692 0.5307 0.45472 0.0
C148 C 0.22233 0.50676 0.43705 0.0
C149 C 0.19361 0.54179 0.43518 0.0
C150 C 0.26679 0.61519 0.49058 0.0
C151 C 0.2269 0.44589 0.419 0.0
C152 C 0.32904 0.4829 0.4282 0.0
C153 C 0.33701 0.43023 0.44612 0.0
C154 C 0.30074 0.51863 0.43193 0.0
C155 C 0.27918 0.49981 0.45345 0.0
C156 C 0.28774 0.4485 0.47235 0.0
C157 C 0.31671 0.41508 0.46873 0.0
C158 C 0.29322 0.57451 0.41189 0.0
C159 C 0.26532 0.42547 0.49512 0.0
H160 H 0.20822 0.6644 0.48255 0.0
H161 H 0.17572 0.52591 0.42023 0.0
H162 H 0.27779 0.57604 0.50371 0.0
H163 H 0.28566 0.63632 0.47705 0.0
H164 H 0.25774 0.65475 0.50476 0.0
H165 H 0.20443 0.42904 0.40921 0.0
H166 H 0.24402 0.45661 0.40185 0.0
H167 H 0.23682 0.40496 0.43186 0.0
H168 H 0.34444 0.49461 0.41058 0.0
H169 H 0.32226 0.37354 0.48232 0.0
H170 H 0.28525 0.61871 0.42386 0.0
H171 H 0.27365 0.5597 0.39762 0.0
H172 H 0.3139 0.58834 0.39869 0.0
H173 H 0.25636 0.46797 0.5076 0.0
H174 H 0.27658 0.3896 0.50978 0.0
H175 H 0.24458 0.40138 0.4851 0.0
C176 C 0.72439 0.87444 0.91244 0.0
C177 C 0.69818 0.88069 0.93058 0.0
C178 C 0.7495 0.91979 0.9131 0.0
C179 C 0.7486 0.97362 0.93224 0.0
C180 C 0.72199 0.98125 0.95024 0.0
C181 C 0.69716 0.9347 0.94926 0.0
C182 C 0.77723 0.90958 0.89345 0.0
C183 C 0.7199 0.03833 0.97074 0.0
C184 C 0.82653 0.06067 0.95018 0.0
C185 C 0.82554 0.11579 0.93218 0.0
C186 C 0.80169 0.0141 0.95053 0.0
C187 C 0.77509 0.02286 0.93258 0.0
C188 C 0.77421 0.07788 0.91416 0.0
C189 C 0.79933 0.12321 0.9141 0.0
C190 C 0.80376 0.95573 0.97029 0.0
C191 C 0.74648 0.08937 0.89461 0.0
H192 H 0.72567 0.83306 0.8979 0.0
H193 H 0.67725 0.93997 0.96351 0.0
H194 H 0.77996 0.95307 0.8794 0.0
H195 H 0.79934 0.90493 0.90592 0.0
H196 H 0.77457 0.86476 0.88006 0.0
H197 H 0.69765 0.03769 0.9832 0.0
H198 H 0.74019 0.03681 0.9856 0.0
H199 H 0.7213 0.0858 0.95908 0.0
H200 H 0.84645 0.05448 0.96436 0.0
H201 H 0.79806 0.16546 0.90007 0.0
H202 H 0.80242 0.90904 0.95801 0.0
H203 H 0.78343 0.95623 0.98509 0.0
H204 H 0.82598 0.95564 0.98282 0.0
H205 H 0.74378 0.04684 0.87997 0.0
H206 H 0.74914 0.13508 0.88184 0.0
H207 H 0.72436 0.09314 0.90709 0.0
C208 C 0.69606 0.54789 0.55945 0.0
C209 C 0.69159 0.60803 0.54524 0.0
C210 C 0.72381 0.5106 0.55586 0.0
C211 C 0.74809 0.53427 0.53788 0.0
C212 C 0.74274 0.5924 0.52185 0.0
C213 C 0.71447 0.62841 0.52559 0.0
C214 C 0.72805 0.44824 0.57298 0.0
C215 C 0.76785 0.6195 0.50243 0.0
C216 C 0.8287 0.48145 0.56516 0.0
C217 C 0.83489 0.42483 0.54889 0.0
C218 C 0.80174 0.52049 0.56027 0.0
C219 C 0.78004 0.50218 0.53878 0.0
C220 C 0.78746 0.44819 0.52081 0.0
C221 C 0.81489 0.41039 0.52596 0.0
C222 C 0.79528 0.5784 0.57962 0.0
C223 C 0.76514 0.42687 0.49763 0.0
H224 H 0.6785 0.53167 0.57462 0.0
H225 H 0.71144 0.67516 0.51473 0.0
H226 H 0.7366 0.40736 0.5593 0.0
H227 H 0.74613 0.45659 0.58962 0.0
H228 H 0.70577 0.43251 0.58338 0.0
H229 H 0.75828 0.65789 0.48798 0.0
H230 H 0.78695 0.642 0.51532 0.0
H231 H 0.77862 0.57946 0.48959 0.0
H232 H 0.84404 0.49318 0.58285 0.0
H233 H 0.81923 0.36643 0.5134 0.0
H234 H 0.77528 0.5663 0.59386 0.0
H235 H 0.78839 0.62253 0.56714 0.0
H236 H 0.81611 0.59111 0.59286 0.0
H237 H 0.74447 0.40172 0.5072 0.0
H238 H 0.77659 0.39213 0.48256 0.0
H239 H 0.75615 0.4702 0.48573 0.0
C240 C 0.41362 0.15905 0.19643 0.0
C241 C 0.42741 0.19683 0.17489 0.0
C242 C 0.41873 0.17427 0.22503 0.0
C243 C 0.43809 0.22876 0.23231 0.0
C244 C 0.45481 0.26246 0.21075 0.0
C245 C 0.44929 0.24604 0.1822 0.0
C246 C 0.40076 0.13619 0.24728 0.0
C247 C 0.47617 0.3199 0.2176 0.0
C248 C 0.40455 0.31816 0.29589 0.0
C249 C 0.42214 0.29098 0.31818 0.0
C250 C 0.41108 0.3018 0.26767 0.0
C251 C 0.43587 0.25696 0.26145 0.0
C252 C 0.45539 0.23353 0.28367 0.0
C253 C 0.44828 0.25085 0.31186 0.0
C254 C 0.38981 0.3287 0.2447 0.0
C255 C 0.48231 0.18649 0.27794 0.0
H256 H 0.39698 0.1204 0.19094 0.0
H257 H 0.46011 0.27543 0.16568 0.0
H258 H 0.41644 0.12312 0.26523 0.0
H259 H 0.38139 0.16753 0.25575 0.0
H260 H 0.39023 0.09012 0.23863 0.0
H261 H 0.49243 0.33117 0.1998 0.0
H262 H 0.46156 0.36441 0.22181 0.0
H263 H 0.49033 0.30983 0.23688 0.0
H264 H 0.38452 0.34978 0.30059 0.0
H265 H 0.46198 0.22959 0.32898 0.0
H266 H 0.37541 0.28796 0.2357 0.0
H267 H 0.40407 0.34979 0.22723 0.0
H268 H 0.37354 0.36756 0.25272 0.0
H269 H 0.47275 0.13617 0.27432 0.0
H270 H 0.49905 0.18421 0.29604 0.0
H271 H 0.49545 0.20107 0.25862 0.0
C272 C 0.07356 0.75865 0.31485 0.0
C273 C 0.09906 0.71776 0.32226 0.0
C274 C 0.06726 0.77376 0.28629 0.0
C275 C 0.08693 0.74727 0.2648 0.0
C276 C 0.11091 0.70149 0.27216 0.0
C277 C 0.11666 0.68738 0.30073 0.0
C278 C 0.04116 0.8219 0.27936 0.0
C279 C 0.13229 0.67134 0.25001 0.0
C280 C 0.07516 0.75453 0.18518 0.0
C281 C 0.09769 0.8023 0.17778 0.0
C282 C 0.06908 0.73969 0.21378 0.0
C283 C 0.0859 0.77351 0.2353 0.0
C284 C 0.10615 0.82638 0.22787 0.0
C285 C 0.1118 0.84005 0.19922 0.0
C286 C 0.04685 0.68387 0.22079 0.0
C287 C 0.12429 0.86449 0.25005 0.0
H288 H 0.05985 0.78239 0.33138 0.0
H289 H 0.13619 0.65518 0.30629 0.0
H290 H 0.05153 0.87122 0.27511 0.0
H291 H 0.0282 0.80635 0.26005 0.0
H292 H 0.02411 0.82692 0.29711 0.0
H293 H 0.14763 0.63185 0.25886 0.0
H294 H 0.11815 0.65014 0.23245 0.0
H295 H 0.14765 0.71029 0.2409 0.0
H296 H 0.06411 0.72514 0.16874 0.0
H297 H 0.12896 0.87756 0.19365 0.0
H298 H 0.03242 0.69589 0.23971 0.0
H299 H 0.06078 0.63884 0.2257 0.0
H300 H 0.03082 0.67242 0.20282 0.0
H301 H 0.10844 0.87996 0.26753 0.0
H302 H 0.13584 0.90914 0.24115 0.0
H303 H 0.14287 0.83225 0.25926 0.0
C304 C 0.63718 0.60631 0.82127 0.0
C305 C 0.62469 0.659 0.83695 0.0
C306 C 0.63274 0.60249 0.79186 0.0
C307 C 0.61655 0.65405 0.77768 0.0
C308 C 0.60247 0.70559 0.79367 0.0
C309 C 0.60629 0.70682 0.82324 0.0
C310 C 0.64723 0.54551 0.77578 0.0
C311 C 0.58584 0.76261 0.77943 0.0
C312 C 0.64935 0.695 0.70523 0.0
C313 C 0.62561 0.6721 0.68701 0.0
C314 C 0.64624 0.69039 0.73464 0.0
C315 C 0.61914 0.65995 0.74631 0.0
C316 C 0.59522 0.63552 0.72804 0.0
C317 C 0.59846 0.64306 0.69849 0.0
C318 C 0.67195 0.71891 0.75321 0.0
C319 C 0.56652 0.60086 0.73969 0.0
H320 H 0.65117 0.56892 0.83193 0.0
H321 H 0.59678 0.74783 0.83534 0.0
H322 H 0.63067 0.52701 0.75936 0.0
H323 H 0.66893 0.56247 0.76483 0.0
H324 H 0.6537 0.50399 0.79001 0.0
H325 H 0.5727 0.79384 0.7948 0.0
H326 H 0.60358 0.79397 0.76857 0.0
H327 H 0.56912 0.74457 0.7631 0.0
H328 H 0.67017 0.71845 0.69646 0.0
H329 H 0.5801 0.62532 0.68441 0.0
H330 H 0.68326 0.67901 0.76571 0.0
H331 H 0.66166 0.75478 0.76844 0.0
H332 H 0.69056 0.74439 0.74078 0.0
H333 H 0.57399 0.5577 0.75253 0.0
H334 H 0.55038 0.58354 0.72268 0.0
H335 H 0.55326 0.63451 0.75393 0.0
C336 C 0.92456 0.35446 0.70121 0.0
C337 C 0.89664 0.32828 0.68988 0.0
C338 C 0.92861 0.35984 0.73076 0.0
C339 C 0.90468 0.3362 0.74915 0.0
C340 C 0.87691 0.30803 0.7376 0.0
C341 C 0.87305 0.30551 0.70821 0.0
C342 C 0.95806 0.39202 0.7423 0.0
C343 C 0.85115 0.28037 0.75629 0.0
C344 C 0.91761 0.28762 0.82582 0.0
C345 C 0.90005 0.33647 0.83979 0.0
C346 C 0.92118 0.28893 0.79623 0.0
C347 C 0.90771 0.34152 0.78051 0.0
C348 C 0.89245 0.39399 0.79495 0.0
C349 C 0.88823 0.39014 0.82437 0.0
C350 C 0.93681 0.23103 0.7817 0.0
C351 C 0.87865 0.45204 0.77915 0.0
H352 H 0.94278 0.37216 0.68701 0.0
H353 H 0.85163 0.28429 0.6995 0.0
H354 H 0.9515 0.43654 0.75474 0.0
H355 H 0.97046 0.35786 0.7569 0.0
H356 H 0.97465 0.40688 0.72525 0.0
H357 H 0.83211 0.256 0.74391 0.0
H358 H 0.86121 0.24379 0.77128 0.0
H359 H 0.84042 0.32062 0.76904 0.0
H360 H 0.92658 0.24586 0.83774 0.0
H361 H 0.87489 0.42828 0.83524 0.0
H362 H 0.95344 0.24811 0.76514 0.0
H363 H 0.91848 0.20065 0.77107 0.0
H364 H 0.94983 0.1991 0.79686 0.0
H365 H 0.89533 0.46972 0.76271 0.0
H366 H 0.87287 0.49376 0.79356 0.0
H367 H 0.85663 0.43655 0.76826 0.0
C368 C 0.48056 0.38693 0.01917 0.0
C369 C 0.44869 0.38494 0.01099 0.0
C370 C 0.50081 0.43743 0.00959 0.0
C371 C 0.4889 0.48794 0.9917 0.0
C372 C 0.45695 0.4853 0.98286 0.0
C373 C 0.43737 0.43376 0.99241 0.0
C374 C 0.53485 0.43755 0.01915 0.0
C375 C 0.44312 0.53823 0.96405 0.0
C376 C 0.53408 0.65141 0.99273 0.0
C377 C 0.55256 0.64663 0.96815 0.0
C378 C 0.51255 0.60123 1.00015 0.0
C379 C 0.50968 0.54423 0.98282 0.0
C380 C 0.52746 0.54025 0.95748 0.0
C381 C 0.54844 0.59154 0.95037 0.0
C382 C 0.49364 0.60824 0.02706 0.0
C383 C 0.52541 0.48037 0.93847 0.0
H384 H 0.48957 0.34967 0.03353 0.0
H385 H 0.41275 0.43319 0.98609 0.0
H386 H 0.55078 0.44001 1.00054 0.0
H387 H 0.53948 0.48201 0.03227 0.0
H388 H 0.54094 0.39298 0.03173 0.0
H389 H 0.41816 0.52797 0.95826 0.0
H390 H 0.44416 0.58668 0.97503 0.0
H391 H 0.45718 0.54278 0.94435 0.0
H392 H 0.5371 0.6935 0.00668 0.0
H393 H 0.56273 0.58683 0.93145 0.0
H394 H 0.50093 0.56959 0.04237 0.0
H395 H 0.46814 0.60086 0.02263 0.0
H396 H 0.49684 0.6574 0.03714 0.0
H397 H 0.53413 0.43622 0.94999 0.0
H398 H 0.53952 0.48621 0.91881 0.0
H399 H 0.50048 0.47065 0.93255 0.0
C400 C 0.08615 0.56253 0.99527 0.0
C401 C 0.07482 0.61139 0.01387 0.0
C402 C 0.06663 0.51072 0.98581 0.0
C403 C 0.03473 0.50785 0.99477 0.0
C404 C 0.02282 0.55836 0.0127 0.0
C405 C 0.04302 0.60912 0.0222 0.0
C406 C 0.08046 0.45779 0.96695 0.0
C407 C 0.98883 0.55801 0.02237 0.0
C408 C 0.97526 0.40378 0.95342 0.0
C409 C 0.97125 0.34868 0.97115 0.0
C410 C 0.99615 0.45524 0.96056 0.0
C411 C 0.01399 0.45142 0.98588 0.0
C412 C 0.01125 0.39442 1.00316 0.0
C413 C 0.98978 0.34408 0.99572 0.0
C414 C 0.99804 0.51514 0.94162 0.0
C415 C 0.03026 0.38757 0.03003 0.0
H416 H 0.11072 0.56331 0.98884 0.0
H417 H 0.03401 0.64641 0.03658 0.0
H418 H 0.07948 0.40935 0.9779 0.0
H419 H 0.06636 0.45314 0.94726 0.0
H420 H 0.1054 0.46813 0.96114 0.0
H421 H 0.98273 0.60257 0.03501 0.0
H422 H 0.97281 0.55542 1.00381 0.0
H423 H 0.98434 0.51355 0.03547 0.0
H424 H 0.96092 0.40837 0.93451 0.0
H425 H 0.98685 0.30199 0.00963 0.0
H426 H 0.02292 0.52496 0.93563 0.0
H427 H 0.98933 0.55926 0.95322 0.0
H428 H 0.98384 0.50924 0.922 0.0
H429 H 0.05573 0.39511 0.02557 0.0
H430 H 0.02716 0.3384 0.04007 0.0
H431 H 0.02295 0.42619 0.04539 0.0
C432 C 0.58072 0.94505 0.49801 0.0
C433 C 0.56884 0.88764 0.51084 0.0
C434 C 0.56053 0.99633 0.48918 0.0
C435 C 0.52743 0.98949 0.49236 0.0
C436 C 0.51519 0.9304 0.50421 0.0
C437 C 0.53604 0.88074 0.51377 0.0
C438 C 0.57477 0.05901 0.4775 0.0
C439 C 0.48005 0.92006 0.5072 0.0
C440 C 0.47455 0.14247 0.49673 0.0
C441 C 0.4636 0.14826 0.46882 0.0
C442 C 0.49595 0.09225 0.50447 0.0
C443 C 0.50577 0.04496 0.48408 0.0
C444 C 0.49482 0.05081 0.45583 0.0
C445 C 0.47433 0.10295 0.44846 0.0
C446 C 0.50784 0.08945 0.53458 0.0
C447 C 0.50387 1.00062 0.43358 0.0
H448 H 0.60605 0.95138 0.49605 0.0
H449 H 0.52667 0.83668 0.52371 0.0
H450 H 0.56519 0.06938 0.45612 0.0
H451 H 0.56826 0.1014 0.49126 0.0
H452 H 0.60094 0.05636 0.4761 0.0
H453 H 0.47421 0.86938 0.51452 0.0
H454 H 0.47025 0.95603 0.52262 0.0
H455 H 0.4681 0.92897 0.48664 0.0
H456 H 0.46627 0.17719 0.51258 0.0
H457 H 0.46551 0.10638 0.42696 0.0
H458 H 0.53405 0.08835 0.53482 0.0
H459 H 0.49952 0.04345 0.54487 0.0
H460 H 0.49967 0.1323 0.54737 0.0
H461 H 0.52992 0.99865 0.43123 0.0
H462 H 0.49326 0.01187 0.41262 0.0
H463 H 0.496 0.95074 0.44028 0.0
C464 C 0.96881 0.08937 0.55087 0.0
C465 C 0.95844 0.13623 0.53108 0.0
C466 C 0.98915 0.03742 0.54293 0.0
C467 C 1.00053 0.03368 0.51475 0.0
C468 C 0.99101 0.08249 0.49494 0.0
C469 C 0.96949 0.13216 0.50317 0.0
C470 C 0.99761 0.98527 0.56448 0.0
C471 C 1.00349 0.08218 0.46502 0.0
C472 C 0.07599 0.93444 0.5022 0.0
C473 C 0.06467 0.8778 0.48835 0.0
C474 C 0.05549 0.9856 0.51058 0.0
C475 C 0.02255 0.97911 0.50608 0.0
C476 C 1.01083 0.92084 0.493 0.0
C477 C 0.03209 0.87159 0.48371 0.0
C478 C 0.06924 0.04764 0.5234 0.0
C479 C 0.97585 0.9106 0.48874 0.0
H480 H 0.95976 0.09146 0.57232 0.0
H481 H 0.96136 0.16806 0.48778 0.0
H482 H 0.99038 0.93588 0.55656 0.0
H483 H 0.02354 0.98379 0.56771 0.0
H484 H 0.98606 0.99413 0.58526 0.0
H485 H 0.99566 0.12619 0.45285 0.0
H486 H 0.02971 0.08085 0.46523 0.0
H487 H 0.99531 0.0372 0.4538 0.0
H488 H 0.10121 0.94015 0.5054 0.0
H489 H 0.02323 0.82804 0.47295 0.0
H490 H 0.05951 0.05574 0.54491 0.0
H491 H 0.0625 0.09107 0.51039 0.0
H492 H 0.09542 0.04563 0.5249 0.0
H493 H 0.96314 0.91781 0.50906 0.0
H494 H 0.97037 0.8605 0.48046 0.0
H495 H 0.96655 0.94771 0.47362 0.0
C496 C 0.19908 0.54488 0.09431 0.0
C497 C 0.19752 0.60516 0.10882 0.0
C498 C 0.22378 0.5006 0.09926 0.0
C499 C 0.24748 0.51733 0.11915 0.0
C500 C 0.24452 0.57523 0.13571 0.0
C501 C 0.21942 0.6187 0.13035 0.0
C502 C 0.22588 0.43863 0.08146 0.0
C503 C 0.26911 0.59401 0.1574 0.0
C504 C 0.30562 0.37811 0.12917 0.0
C505 C 0.32706 0.3919 0.10734 0.0
C506 C 0.28067 0.42156 0.13512 0.0
C507 C 0.2774 0.47972 0.11884 0.0
C508 C 0.30068 0.49668 0.09863 0.0
C509 C 0.32523 0.45239 0.09308 0.0
C510 C 0.25654 0.40252 0.15713 0.0
C511 C 0.29824 0.55894 0.08113 0.0
H512 H 0.18179 0.53359 0.07807 0.0
H513 H 0.2181 0.665 0.14187 0.0
H514 H 0.2456 0.44345 0.06613 0.0
H515 H 0.23092 0.39506 0.09495 0.0
H516 H 0.20378 0.42922 0.06942 0.0
H517 H 0.25998 0.63141 0.17258 0.0
H518 H 0.2773 0.55009 0.16938 0.0
H519 H 0.28993 0.61529 0.14646 0.0
H520 H 0.30716 0.33165 0.1405 0.0
H521 H 0.34218 0.46388 0.07661 0.0
H522 H 0.23545 0.38156 0.14645 0.0
H523 H 0.24868 0.44628 0.16944 0.0
H524 H 0.26595 0.3648 0.17199 0.0
H525 H 0.27821 0.5544 0.06609 0.0
H526 H 0.32009 0.56852 0.06879 0.0
H527 H 0.29349 0.6023 0.09487 0.0
C528 C 0.323 0.0777 0.39113 0.0
C529 C 0.32117 0.12815 0.4113 0.0
C530 C 0.29843 0.03187 0.38843 0.0
C531 C 0.27125 0.03888 0.40562 0.0
C532 C 0.26877 0.09203 0.42498 0.0
C533 C 0.29414 0.13543 0.42797 0.0
C534 C 0.30218 0.97439 0.3683 0.0
C535 C 0.23973 0.10197 0.4431 0.0
C536 C 0.19628 0.94421 0.38978 0.0
C537 C 0.19746 0.89643 0.41107 0.0
C538 C 0.2206 0.99076 0.38723 0.0
C539 C 0.24682 0.98711 0.40581 0.0
C540 C 0.24866 0.93656 0.42637 0.0
C541 C 0.22359 0.89245 0.42907 0.0
C542 C 0.21762 0.04535 0.36566 0.0
C543 C 0.27668 0.93007 0.44603 0.0
H544 H 0.34409 0.0728 0.37826 0.0
H545 H 0.29276 0.17558 0.44316 0.0
H546 H 0.30375 0.92775 0.38056 0.0
H547 H 0.28127 0.97031 0.35426 0.0
H548 H 0.3237 0.97892 0.35499 0.0
H549 H 0.24007 0.15012 0.45443 0.0
H550 H 0.21807 0.09952 0.42991 0.0
H551 H 0.2382 0.06192 0.45905 0.0
H552 H 0.17587 0.9466 0.37593 0.0
H553 H 0.22447 0.85438 0.44521 0.0
H554 H 0.23919 0.04801 0.35241 0.0
H555 H 0.21526 0.09353 0.37672 0.0
H556 H 0.19681 0.03853 0.35162 0.0
H557 H 0.29904 0.93085 0.43378 0.0
H558 H 0.27588 0.88381 0.45864 0.0
H559 H 0.27722 0.97256 0.46088 0.0
C560 C 0.69792 0.51891 0.9678 0.0
C561 C 0.69085 0.57943 0.98069 0.0
C562 C 0.72507 0.48378 0.97538 0.0
C563 C 0.74547 0.51015 0.99632 0.0
C564 C 0.7362 0.56638 0.01201 0.0
C565 C 0.70882 0.6006 1.00398 0.0
C566 C 0.73368 0.42266 0.95866 0.0
C567 C 0.75672 0.5946 0.03516 0.0
C568 C 0.81441 0.39538 0.00552 0.0
C569 C 0.83353 0.41683 0.98307 0.0
C570 C 0.78684 0.42996 0.01271 0.0
C571 C 0.77858 0.48683 0.99705 0.0
C572 C 0.80015 0.51355 0.97722 0.0
C573 C 0.82746 0.47804 0.97044 0.0
C574 C 0.76503 0.40141 0.03477 0.0
C575 C 0.79265 0.5754 0.96063 0.0
H576 H 0.6836 0.5015 0.95028 0.0
H577 H 0.70314 0.64683 0.01444 0.0
H578 H 0.75359 0.43413 0.9442 0.0
H579 H 0.74151 0.38251 0.97299 0.0
H580 H 0.71357 0.40428 0.94574 0.0
H581 H 0.7425 0.62376 0.0505 0.0
H582 H 0.76957 0.55516 0.04672 0.0
H583 H 0.77451 0.62812 0.02565 0.0
H584 H 0.81932 0.34862 0.0158 0.0
H585 H 0.84268 0.49565 0.95362 0.0
H586 H 0.74744 0.36902 0.02425 0.0
H587 H 0.75197 0.4408 0.0462 0.0
H588 H 0.77829 0.37104 0.05035 0.0
H589 H 0.77363 0.56464 0.9451 0.0
H590 H 0.81353 0.5941 0.94889 0.0
H591 H 0.784 0.61503 0.97489 0.0
C592 C 0.68759 0.9693 0.58989 0.0
C593 C 0.6877 0.90973 0.60491 0.0
C594 C 0.71237 0.01437 0.5929 0.0
C595 C 0.73799 0.99854 0.61092 0.0
C596 C 0.73699 0.941 0.62782 0.0
C597 C 0.71158 0.89737 0.6248 0.0
C598 C 0.71228 0.07638 0.57514 0.0
C599 C 0.76398 0.92248 0.64717 0.0
C600 C 0.81527 0.06511 0.58347 0.0
C601 C 0.81934 0.12102 0.60052 0.0
C602 C 0.78963 0.02276 0.58771 0.0
C603 C 0.76733 0.03769 0.60913 0.0
C604 C 0.772 0.09255 0.62716 0.0
C605 C 0.79819 0.13339 0.62278 0.0
C606 C 0.7857 0.96361 0.56848 0.0
C607 C 0.74846 0.11026 0.64997 0.0
H608 H 0.66888 0.97924 0.57478 0.0
H609 H 0.71172 0.85125 0.63645 0.0
H610 H 0.71894 0.11988 0.58813 0.0
H611 H 0.73 0.07155 0.55796 0.0
H612 H 0.68882 0.08583 0.56536 0.0
H613 H 0.75737 0.88235 0.66205 0.0
H614 H 0.78426 0.90523 0.63422 0.0
H615 H 0.77208 0.96582 0.65958 0.0
H616 H 0.83179 0.05519 0.56645 0.0
H617 H 0.80121 0.17683 0.63595 0.0
H618 H 0.76464 0.9707 0.55481 0.0
H619 H 0.78175 0.91829 0.58118 0.0
H620 H 0.8066 0.95567 0.55466 0.0
H621 H 0.72631 0.12816 0.64 0.0
H622 H 0.75749 0.14949 0.66431 0.0
H623 H 0.74237 0.06623 0.66279 0.0
loop_
_geom_bond_atom_site_label_1
_geom_bond_atom_site_label_2
_geom_bond_distance
_geom_bond_site_symmetry_2
_ccdc_geom_bond_type
O0 Cd1 2.223 . S
O0 C8 1.315 . S
Cd1 O0 2.223 . S
Cd1 O4 2.297 . S
Cd1 O5 2.439 . S
Cd1 O11 2.240 . S
Cd2 O3 2.240 . S
Cd2 O10 2.223 . S
Cd2 O12 2.297 . S
Cd2 O13 2.439 . S
O3 Cd2 2.240 . S
O3 C8 1.279 . S
O4 Cd1 2.297 . S
O4 C6 1.247 . S
O5 Cd1 2.439 . S
O5 C6 1.208 . S
C6 O4 1.247 . S
C6 O5 1.208 . S
C7 O12 1.247 . S
C7 O13 1.208 . S
C8 O0 1.315 . S
C8 O3 1.279 . S
C9 O10 1.315 . S
C9 O11 1.279 . S
O10 Cd2 2.223 . S
O10 C9 1.315 . S
O11 Cd1 2.240 . S
O11 C9 1.279 . S
O12 Cd2 2.297 . S
O12 C7 1.247 . S
O13 Cd2 2.439 . S
O13 C7 1.208 . S
O14 Cd15 2.223 . S
O14 C22 1.315 . S
Cd15 O14 2.223 . S
Cd15 O18 2.297 . S
Cd15 O19 2.439 . S
Cd15 O25 2.240 . S
Cd16 O17 2.240 . S
Cd16 O24 2.223 . S
Cd16 O26 2.297 . S
Cd16 O27 2.439 . S
O17 Cd16 2.240 . S
O17 C22 1.279 . S
O18 Cd15 2.297 . S
O18 C20 1.247 . S
O19 Cd15 2.439 . S
O19 C20 1.208 . S
C20 O18 1.247 . S
C20 O19 1.208 . S
C21 O26 1.247 . S
C21 O27 1.208 . S
C22 O14 1.315 . S
C22 O17 1.279 . S
C23 O24 1.315 . S
C23 O25 1.279 . S
O24 Cd16 2.223 . S
O24 C23 1.315 . S
O25 Cd15 2.240 . S
O25 C23 1.279 . S
O26 Cd16 2.297 . S
O26 C21 1.247 . S
O27 Cd16 2.439 . S
O27 C21 1.208 . S
O28 Cd29 2.223 . S
O28 C36 1.315 . S
Cd29 O28 2.223 . S
Cd29 O32 2.297 . S
Cd29 O33 2.439 . S
Cd29 O39 2.240 . S
Cd30 O31 2.240 . S
Cd30 O38 2.223 . S
Cd30 O40 2.297 . S
Cd30 O41 2.439 . S
O31 Cd30 2.240 . S
O31 C36 1.279 . S
O32 Cd29 2.297 . S
O32 C34 1.247 . S
O33 Cd29 2.439 . S
O33 C34 1.208 . S
C34 O32 1.247 . S
C34 O33 1.208 . S
C35 O40 1.247 . S
C35 O41 1.208 . S
C36 O28 1.315 . S
C36 O31 1.279 . S
C37 O38 1.315 . S
C37 O39 1.279 . S
O38 Cd30 2.223 . S
O38 C37 1.315 . S
O39 Cd29 2.240 . S
O39 C37 1.279 . S
O40 Cd30 2.297 . S
O40 C35 1.247 . S
O41 Cd30 2.439 . S
O41 C35 1.208 . S
O42 Cd43 2.223 . S
O42 C50 1.315 . S
Cd43 O42 2.223 . S
Cd43 O46 2.297 . S
Cd43 O47 2.439 . S
Cd43 O53 2.240 . S
Cd44 O45 2.240 . S
Cd44 O52 2.223 . S
Cd44 O54 2.297 . S
Cd44 O55 2.439 . S
O45 Cd44 2.240 . S
O45 C50 1.279 . S
O46 Cd43 2.297 . S
O46 C48 1.247 . S
O47 Cd43 2.439 . S
O47 C48 1.208 . S
C48 O46 1.247 . S
C48 O47 1.208 . S
C49 O54 1.247 . S
C49 O55 1.208 . S
C50 O42 1.315 . S
C50 O45 1.279 . S
C51 O52 1.315 . S
C51 O53 1.279 . S
O52 Cd44 2.223 . S
O52 C51 1.315 . S
O53 Cd43 2.240 . S
O53 C51 1.279 . S
O54 Cd44 2.297 . S
O54 C49 1.247 . S
O55 Cd44 2.439 . S
O55 C49 1.208 . S
O56 Cd57 2.223 . S
O56 C64 1.315 . S
Cd57 O56 2.223 . S
Cd57 O60 2.297 . S
Cd57 O61 2.439 . S
Cd57 O67 2.240 . S
Cd58 O59 2.240 . S
Cd58 O66 2.223 . S
Cd58 O68 2.297 . S
Cd58 O69 2.439 . S
O59 Cd58 2.240 . S
O59 C64 1.279 . S
O60 Cd57 2.297 . S
O60 C62 1.247 . S
O61 Cd57 2.439 . S
O61 C62 1.208 . S
C62 O60 1.247 . S
C62 O61 1.208 . S
C63 O68 1.247 . S
C63 O69 1.208 . S
C64 O56 1.315 . S
C64 O59 1.279 . S
C65 O66 1.315 . S
C65 O67 1.279 . S
O66 Cd58 2.223 . S
O66 C65 1.315 . S
O67 Cd57 2.240 . S
O67 C65 1.279 . S
O68 Cd58 2.297 . S
O68 C63 1.247 . S
O69 Cd58 2.439 . S
O69 C63 1.208 . S
O70 Cd71 2.223 . S
O70 C78 1.315 . S
Cd71 O70 2.223 . S
Cd71 O74 2.297 . S
Cd71 O75 2.439 . S
Cd71 O81 2.240 . S
Cd72 O73 2.240 . S
Cd72 O80 2.223 . S
Cd72 O82 2.297 . S
Cd72 O83 2.439 . S
O73 Cd72 2.240 . S
O73 C78 1.279 . S
O74 Cd71 2.297 . S
O74 C76 1.247 . S
O75 Cd71 2.439 . S
O75 C76 1.208 . S
C76 O74 1.247 . S
C76 O75 1.208 . S
C77 O82 1.247 . S
C77 O83 1.208 . S
C78 O70 1.315 . S
C78 O73 1.279 . S
C79 O80 1.315 . S
C79 O81 1.279 . S
O80 Cd72 2.223 . S
O80 C79 1.315 . S
O81 Cd71 2.240 . S
O81 C79 1.279 . S
O82 Cd72 2.297 . S
O82 C77 1.247 . S
O83 Cd72 2.439 . S
O83 C77 1.208 . S
O84 Cd85 2.223 . S
O84 C92 1.315 . S
Cd85 O84 2.223 . S
Cd85 O88 2.297 . S
Cd85 O89 2.439 . S
Cd85 O95 2.240 . S
Cd86 O87 2.240 . S
Cd86 O94 2.223 . S
Cd86 O96 2.297 . S
Cd86 O97 2.439 . S
O87 Cd86 2.240 . S
O87 C92 1.279 . S
O88 Cd85 2.297 . S
O88 C90 1.247 . S
O89 Cd85 2.439 . S
O89 C90 1.208 . S
C90 O88 1.247 . S
C90 O89 1.208 . S
C91 O96 1.247 . S
C91 O97 1.208 . S
C92 O84 1.315 . S
C92 O87 1.279 . S
C93 O94 1.315 . S
C93 O95 1.279 . S
O94 Cd86 2.223 . S
O94 C93 1.315 . S
O95 Cd85 2.240 . S
O95 C93 1.279 . S
O96 Cd86 2.297 . S
O96 C91 1.247 . S
O97 Cd86 2.439 . S
O97 C91 1.208 . S
O98 Cd99 2.223 . S
O98 C106 1.315 . S
Cd99 O98 2.223 . S
Cd99 O102 2.297 . S
Cd99 O103 2.439 . S
Cd99 O109 2.240 . S
Cd100 O101 2.240 . S
Cd100 O108 2.223 . S
Cd100 O110 2.297 . S
Cd100 O111 2.439 . S
O101 Cd100 2.240 . S
O101 C106 1.279 . S
O102 Cd99 2.297 . S
O102 C104 1.247 . S
O103 Cd99 2.439 . S
O103 C104 1.208 . S
C104 O102 1.247 . S
C104 O103 1.208 . S
C105 O110 1.247 . S
C105 O111 1.208 . S
C106 O98 1.315 . S
C106 O101 1.279 . S
C107 O108 1.315 . S
C107 O109 1.279 . S
O108 Cd100 2.223 . S
O108 C107 1.315 . S
O109 Cd99 2.240 . S
O109 C107 1.279 . S
O110 Cd100 2.297 . S
O110 C105 1.247 . S
O111 Cd100 2.439 . S
O111 C105 1.208 . S
C112 C113 1.391 . S
C112 C114 1.394 . S
C112 H128 0.931 . S
C113 C112 1.391 . S
C113 C117 1.376 . S
C114 C112 1.394 . S
C114 C115 1.369 . S
C114 C118 1.531 1_545 S
C115 C114 1.369 . S
C115 C116 1.410 . S
C115 C123 1.503 1_545 S
C116 C115 1.410 . S
C116 C117 1.392 . S
C116 C119 1.511 . S
C117 C113 1.376 . S
C117 C116 1.392 . S
C117 H129 0.929 . S
C118 C114 1.531 1_565 S
C118 H130 0.960 . S
C118 H131 0.962 . S
C118 H132 0.960 . S
C119 C116 1.511 . S
C119 H133 0.961 . S
C119 H134 0.961 . S
C119 H135 0.961 . S
C120 C121 1.370 . S
C120 C122 1.363 . S
C120 H136 0.931 . S
C121 C120 1.370 . S
C121 C125 1.408 . S
C122 C120 1.363 . S
C122 C123 1.370 . S
C122 C126 1.524 1_565 S
C123 C115 1.503 1_565 S
C123 C122 1.370 . S
C123 C124 1.403 . S
C124 C123 1.403 . S
C124 C125 1.404 . S
C124 C127 1.539 . S
C125 C121 1.408 . S
C125 C124 1.404 . S
C125 H137 0.930 . S
C126 C122 1.524 1_545 S
C126 H138 0.956 . S
C126 H139 0.961 . S
C126 H140 0.961 . S
C127 C124 1.539 . S
C127 H141 0.958 . S
C127 H142 0.961 . S
C127 H143 0.960 . S
H128 C112 0.931 . S
H129 C117 0.929 . S
H130 C118 0.960 . S
H131 C118 0.962 . S
H132 C118 0.960 . S
H133 C119 0.961 . S
H134 C119 0.961 . S
H135 C119 0.961 . S
H136 C120 0.931 . S
H137 C125 0.930 . S
H138 C126 0.956 . S
H139 C126 0.961 . S
H140 C126 0.961 . S
H141 C127 0.958 . S
H142 C127 0.961 . S
H143 C127 0.960 . S
C144 C145 1.391 . S
C144 C146 1.394 . S
C144 H160 0.931 . S
C145 C144 1.391 . S
C145 C149 1.376 . S
C146 C144 1.394 . S
C146 C147 1.369 . S
C146 C150 1.531 . S
C147 C146 1.369 . S
C147 C148 1.410 . S
C147 C155 1.503 . S
C148 C147 1.410 . S
C148 C149 1.392 . S
C148 C151 1.511 . S
C149 C145 1.376 . S
C149 C148 1.392 . S
C149 H161 0.929 . S
C150 C146 1.531 . S
C150 H162 0.960 . S
C150 H163 0.962 . S
C150 H164 0.960 . S
C151 C148 1.511 . S
C151 H165 0.961 . S
C151 H166 0.961 . S
C151 H167 0.961 . S
C152 C153 1.370 . S
C152 C154 1.363 . S
C152 H168 0.931 . S
C153 C152 1.370 . S
C153 C157 1.408 . S
C154 C152 1.363 . S
C154 C155 1.370 . S
C154 C158 1.524 . S
C155 C147 1.503 . S
C155 C154 1.370 . S
C155 C156 1.403 . S
C156 C155 1.403 . S
C156 C157 1.404 . S
C156 C159 1.539 . S
C157 C153 1.408 . S
C157 C156 1.404 . S
C157 H169 0.930 . S
C158 C154 1.524 . S
C158 H170 0.956 . S
C158 H171 0.961 . S
C158 H172 0.961 . S
C159 C156 1.539 . S
C159 H173 0.958 . S
C159 H174 0.961 . S
C159 H175 0.960 . S
H160 C144 0.931 . S
H161 C149 0.929 . S
H162 C150 0.960 . S
H163 C150 0.962 . S
H164 C150 0.960 . S
H165 C151 0.961 . S
H166 C151 0.961 . S
H167 C151 0.961 . S
H168 C152 0.931 . S
H169 C157 0.930 . S
H170 C158 0.956 . S
H171 C158 0.961 . S
H172 C158 0.961 . S
H173 C159 0.958 . S
H174 C159 0.961 . S
H175 C159 0.960 . S
C176 C177 1.391 . S
C176 C178 1.394 . S
C176 H192 0.931 . S
C177 C176 1.391 . S
C177 C181 1.376 . S
C178 C176 1.394 . S
C178 C179 1.369 . S
C178 C182 1.531 . S
C179 C178 1.369 . S
C179 C180 1.410 . S
C179 C187 1.503 1_565 S
C180 C179 1.410 . S
C180 C181 1.392 . S
C180 C183 1.511 1_565 S
C181 C177 1.376 . S
C181 C180 1.392 . S
C181 H193 0.929 . S
C182 C178 1.531 . S
C182 H194 0.960 . S
C182 H195 0.962 . S
C182 H196 0.960 . S
C183 C180 1.511 1_545 S
C183 H197 0.961 . S
C183 H198 0.961 . S
C183 H199 0.961 . S
C184 C185 1.370 . S
C184 C186 1.363 . S
C184 H200 0.931 . S
C185 C184 1.370 . S
C185 C189 1.408 . S
C186 C184 1.363 . S
C186 C187 1.370 . S
C186 C190 1.524 1_545 S
C187 C179 1.503 1_545 S
C187 C186 1.370 . S
C187 C188 1.403 . S
C188 C187 1.403 . S
C188 C189 1.404 . S
C188 C191 1.539 . S
C189 C185 1.408 . S
C189 C188 1.404 . S
C189 H201 0.930 . S
C190 C186 1.524 1_565 S
C190 H202 0.956 . S
C190 H203 0.961 . S
C190 H204 0.961 . S
C191 C188 1.539 . S
C191 H205 0.958 . S
C191 H206 0.961 . S
C191 H207 0.960 . S
H192 C176 0.931 . S
H193 C181 0.929 . S
H194 C182 0.960 . S
H195 C182 0.962 . S
H196 C182 0.960 . S
H197 C183 0.961 . S
H198 C183 0.961 . S
H199 C183 0.961 . S
H200 C184 0.931 . S
H201 C189 0.930 . S
H202 C190 0.956 . S
H203 C190 0.961 . S
H204 C190 0.961 . S
H205 C191 0.958 . S
H206 C191 0.961 . S
H207 C191 0.960 . S
C208 C209 1.391 . S
C208 C210 1.394 . S
C208 H224 0.931 . S
C209 C208 1.391 . S
C209 C213 1.376 . S
C210 C208 1.394 . S
C210 C211 1.369 . S
C210 C214 1.531 . S
C211 C210 1.369 . S
C211 C212 1.410 . S
C211 C219 1.503 . S
C212 C211 1.410 . S
C212 C213 1.392 . S
C212 C215 1.511 . S
C213 C209 1.376 . S
C213 C212 1.392 . S
C213 H225 0.929 . S
C214 C210 1.531 . S
C214 H226 0.960 . S
C214 H227 0.962 . S
C214 H228 0.960 . S
C215 C212 1.511 . S
C215 H229 0.961 . S
C215 H230 0.961 . S
C215 H231 0.961 . S
C216 C217 1.370 . S
C216 C218 1.363 . S
C216 H232 0.931 . S
C217 C216 1.370 . S
C217 C221 1.408 . S
C218 C216 1.363 . S
C218 C219 1.370 . S
C218 C222 1.524 . S
C219 C211 1.503 . S
C219 C218 1.370 . S
C219 C220 1.403 . S
C220 C219 1.403 . S
C220 C221 1.404 . S
C220 C223 1.539 . S
C221 C217 1.408 . S
C221 C220 1.404 . S
C221 H233 0.930 . S
C222 C218 1.524 . S
C222 H234 0.956 . S
C222 H235 0.961 . S
C222 H236 0.961 . S
C223 C220 1.539 . S
C223 H237 0.958 . S
C223 H238 0.961 . S
C223 H239 0.960 . S
H224 C208 0.931 . S
H225 C213 0.929 . S
H226 C214 0.960 . S
H227 C214 0.962 . S
H228 C214 0.960 . S
H229 C215 0.961 . S
H230 C215 0.961 . S
H231 C215 0.961 . S
H232 C216 0.931 . S
H233 C221 0.930 . S
H234 C222 0.956 . S
H235 C222 0.961 . S
H236 C222 0.961 . S
H237 C223 0.958 . S
H238 C223 0.961 . S
H239 C223 0.960 . S
C240 C241 1.391 . S
C240 C242 1.394 . S
C240 H256 0.931 . S
C241 C240 1.391 . S
C241 C245 1.376 . S
C242 C240 1.394 . S
C242 C243 1.369 . S
C242 C246 1.531 . S
C243 C242 1.369 . S
C243 C244 1.410 . S
C243 C251 1.503 . S
C244 C243 1.410 . S
C244 C245 1.392 . S
C244 C247 1.511 . S
C245 C241 1.376 . S
C245 C244 1.392 . S
C245 H257 0.929 . S
C246 C242 1.531 . S
C246 H258 0.960 . S
C246 H259 0.962 . S
C246 H260 0.960 . S
C247 C244 1.511 . S
C247 H261 0.961 . S
C247 H262 0.961 . S
C247 H263 0.961 . S
C248 C249 1.370 . S
C248 C250 1.363 . S
C248 H264 0.931 . S
C249 C248 1.370 . S
C249 C253 1.408 . S
C250 C248 1.363 . S
C250 C251 1.370 . S
C250 C254 1.524 . S
C251 C243 1.503 . S
C251 C250 1.370 . S
C251 C252 1.403 . S
C252 C251 1.403 . S
C252 C253 1.404 . S
C252 C255 1.539 . S
C253 C249 1.408 . S
C253 C252 1.404 . S
C253 H265 0.930 . S
C254 C250 1.524 . S
C254 H266 0.956 . S
C254 H267 0.961 . S
C254 H268 0.961 . S
C255 C252 1.539 . S
C255 H269 0.958 . S
C255 H270 0.961 . S
C255 H271 0.960 . S
H256 C240 0.931 . S
H257 C245 0.929 . S
H258 C246 0.960 . S
H259 C246 0.962 . S
H260 C246 0.960 . S
H261 C247 0.961 . S
H262 C247 0.961 . S
H263 C247 0.961 . S
H264 C248 0.931 . S
H265 C253 0.930 . S
H266 C254 0.956 . S
H267 C254 0.961 . S
H268 C254 0.961 . S
H269 C255 0.958 . S
H270 C255 0.961 . S
H271 C255 0.960 . S
C272 C273 1.391 . S
C272 C274 1.394 . S
C272 H288 0.931 . S
C273 C272 1.391 . S
C273 C277 1.376 . S
C274 C272 1.394 . S
C274 C275 1.369 . S
C274 C278 1.531 . S
C275 C274 1.369 . S
C275 C276 1.410 . S
C275 C283 1.503 . S
C276 C275 1.410 . S
C276 C277 1.392 . S
C276 C279 1.511 . S
C277 C273 1.376 . S
C277 C276 1.392 . S
C277 H289 0.929 . S
C278 C274 1.531 . S
C278 H290 0.960 . S
C278 H291 0.962 . S
C278 H292 0.960 . S
C279 C276 1.511 . S
C279 H293 0.961 . S
C279 H294 0.961 . S
C279 H295 0.961 . S
C280 C281 1.370 . S
C280 C282 1.363 . S
C280 H296 0.931 . S
C281 C280 1.370 . S
C281 C285 1.408 . S
C282 C280 1.363 . S
C282 C283 1.370 . S
C282 C286 1.524 . S
C283 C275 1.503 . S
C283 C282 1.370 . S
C283 C284 1.403 . S
C284 C283 1.403 . S
C284 C285 1.404 . S
C284 C287 1.539 . S
C285 C281 1.408 . S
C285 C284 1.404 . S
C285 H297 0.930 . S
C286 C282 1.524 . S
C286 H298 0.956 . S
C286 H299 0.961 . S
C286 H300 0.961 . S
C287 C284 1.539 . S
C287 H301 0.958 . S
C287 H302 0.961 . S
C287 H303 0.960 . S
H288 C272 0.931 . S
H289 C277 0.929 . S
H290 C278 0.960 . S
H291 C278 0.962 . S
H292 C278 0.960 . S
H293 C279 0.961 . S
H294 C279 0.961 . S
H295 C279 0.961 . S
H296 C280 0.931 . S
H297 C285 0.930 . S
H298 C286 0.956 . S
H299 C286 0.961 . S
H300 C286 0.961 . S
H301 C287 0.958 . S
H302 C287 0.961 . S
H303 C287 0.960 . S
C304 C305 1.391 . S
C304 C306 1.394 . S
C304 H320 0.931 . S
C305 C304 1.391 . S
C305 C309 1.376 . S
C306 C304 1.394 . S
C306 C307 1.369 . S
C306 C310 1.531 . S
C307 C306 1.369 . S
C307 C308 1.410 . S
C307 C315 1.503 . S
C308 C307 1.410 . S
C308 C309 1.392 . S
C308 C311 1.511 . S
C309 C305 1.376 . S
C309 C308 1.392 . S
C309 H321 0.929 . S
C310 C306 1.531 . S
C310 H322 0.960 . S
C310 H323 0.962 . S
C310 H324 0.960 . S
C311 C308 1.511 . S
C311 H325 0.961 . S
C311 H326 0.961 . S
C311 H327 0.961 . S
C312 C313 1.370 . S
C312 C314 1.363 . S
C312 H328 0.931 . S
C313 C312 1.370 . S
C313 C317 1.408 . S
C314 C312 1.363 . S
C314 C315 1.370 . S
C314 C318 1.524 . S
C315 C307 1.503 . S
C315 C314 1.370 . S
C315 C316 1.403 . S
C316 C315 1.403 . S
C316 C317 1.404 . S
C316 C319 1.539 . S
C317 C313 1.408 . S
C317 C316 1.404 . S
C317 H329 0.930 . S
C318 C314 1.524 . S
C318 H330 0.956 . S
C318 H331 0.961 . S
C318 H332 0.961 . S
C319 C316 1.539 . S
C319 H333 0.958 . S
C319 H334 0.961 . S
C319 H335 0.960 . S
H320 C304 0.931 . S
H321 C309 0.929 . S
H322 C310 0.960 . S
H323 C310 0.962 . S
H324 C310 0.960 . S
H325 C311 0.961 . S
H326 C311 0.961 . S
H327 C311 0.961 . S
H328 C312 0.931 . S
H329 C317 0.930 . S
H330 C318 0.956 . S
H331 C318 0.961 . S
H332 C318 0.961 . S
H333 C319 0.958 . S
H334 C319 0.961 . S
H335 C319 0.960 . S
C336 C337 1.391 . S
C336 C338 1.394 . S
C336 H352 0.931 . S
C337 C336 1.391 . S
C337 C341 1.376 . S
C338 C336 1.394 . S
C338 C339 1.369 . S
C338 C342 1.531 . S
C339 C338 1.369 . S
C339 C340 1.410 . S
C339 C347 1.503 . S
C340 C339 1.410 . S
C340 C341 1.392 . S
C340 C343 1.511 . S
C341 C337 1.376 . S
C341 C340 1.392 . S
C341 H353 0.929 . S
C342 C338 1.531 . S
C342 H354 0.960 . S
C342 H355 0.962 . S
C342 H356 0.960 . S
C343 C340 1.511 . S
C343 H357 0.961 . S
C343 H358 0.961 . S
C343 H359 0.961 . S
C344 C345 1.370 . S
C344 C346 1.363 . S
C344 H360 0.931 . S
C345 C344 1.370 . S
C345 C349 1.408 . S
C346 C344 1.363 . S
C346 C347 1.370 . S
C346 C350 1.524 . S
C347 C339 1.503 . S
C347 C346 1.370 . S
C347 C348 1.403 . S
C348 C347 1.403 . S
C348 C349 1.404 . S
C348 C351 1.539 . S
C349 C345 1.408 . S
C349 C348 1.404 . S
C349 H361 0.930 . S
C350 C346 1.524 . S
C350 H362 0.956 . S
C350 H363 0.961 . S
C350 H364 0.961 . S
C351 C348 1.539 . S
C351 H365 0.958 . S
C351 H366 0.961 . S
C351 H367 0.960 . S
H352 C336 0.931 . S
H353 C341 0.929 . S
H354 C342 0.960 . S
H355 C342 0.962 . S
H356 C342 0.960 . S
H357 C343 0.961 . S
H358 C343 0.961 . S
H359 C343 0.961 . S
H360 C344 0.931 . S
H361 C349 0.930 . S
H362 C350 0.956 . S
H363 C350 0.961 . S
H364 C350 0.961 . S
H365 C351 0.958 . S
H366 C351 0.961 . S
H367 C351 0.960 . S
C368 C369 1.391 . S
C368 C370 1.394 . S
C368 H384 0.931 . S
C369 C368 1.391 . S
C369 C373 1.376 1_554 S
C370 C368 1.394 . S
C370 C371 1.369 . S
C370 C374 1.531 . S
C371 C370 1.369 . S
C371 C372 1.410 1_554 S
C371 C379 1.503 1_554 S
C372 C371 1.410 1_556 S
C372 C373 1.392 . S
C372 C375 1.511 . S
C373 C369 1.376 1_556 S
C373 C372 1.392 . S
C373 H385 0.929 . S
C374 C370 1.531 . S
C374 H386 0.960 . S
C374 H387 0.962 . S
C374 H388 0.960 . S
C375 C372 1.511 . S
C375 H389 0.961 . S
C375 H390 0.961 . S
C375 H391 0.961 . S
C376 C377 1.370 . S
C376 C378 1.363 . S
C376 H392 0.931 . S
C377 C376 1.370 . S
C377 C381 1.408 . S
C378 C376 1.363 . S
C378 C379 1.370 . S
C378 C382 1.524 1_556 S
C379 C371 1.503 1_556 S
C379 C378 1.370 . S
C379 C380 1.403 . S
C380 C379 1.403 . S
C380 C381 1.404 . S
C380 C383 1.539 . S
C381 C377 1.408 . S
C381 C380 1.404 . S
C381 H393 0.930 . S
C382 C378 1.524 1_554 S
C382 H394 0.956 . S
C382 H395 0.961 1_554 S
C382 H396 0.957 1_554 S
C383 C380 1.539 . S
C383 H397 0.962 . S
C383 H398 0.961 . S
C383 H399 0.960 . S
H384 C368 0.931 . S
H385 C373 0.929 . S
H386 C374 0.960 . S
H387 C374 0.962 . S
H388 C374 0.960 . S
H389 C375 0.961 . S
H390 C375 0.961 . S
H391 C375 0.961 . S
H392 C376 0.931 . S
H393 C381 0.930 . S
H394 C382 0.956 . S
H395 C382 0.961 1_556 S
H396 C382 0.957 1_556 S
H397 C383 0.962 . S
H398 C383 0.961 . S
H399 C383 0.960 . S
C400 C401 1.391 1_556 S
C400 C402 1.394 . S
C400 H416 0.931 . S
C401 C400 1.391 1_554 S
C401 C405 1.376 . S
C402 C400 1.394 . S
C402 C403 1.369 1_556 S
C402 C406 1.531 . S
C403 C402 1.369 1_554 S
C403 C404 1.410 . S
C403 C411 1.503 1_454 S
C404 C403 1.410 . S
C404 C405 1.392 . S
C404 C407 1.511 . S
C405 C401 1.376 . S
C405 C404 1.392 . S
C405 H417 0.929 . S
C406 C402 1.531 . S
C406 H418 0.960 . S
C406 H419 0.962 . S
C406 H420 0.960 . S
C407 C404 1.511 . S
C407 H421 0.961 1_455 S
C407 H422 0.961 1_455 S
C407 H423 0.961 . S
C408 C409 1.370 . S
C408 C410 1.363 . S
C408 H424 0.931 . S
C409 C408 1.370 . S
C409 C413 1.408 . S
C410 C408 1.363 . S
C410 C411 1.370 . S
C410 C414 1.524 . S
C411 C403 1.503 1_656 S
C411 C410 1.370 . S
C411 C412 1.403 1_655 S
C412 C411 1.403 1_455 S
C412 C413 1.404 1_455 S
C412 C415 1.539 . S
C413 C409 1.408 . S
C413 C412 1.404 1_655 S
C413 H425 0.930 . S
C414 C410 1.524 . S
C414 H426 0.956 . S
C414 H427 0.961 1_556 S
C414 H428 0.961 . S
C415 C412 1.539 . S
C415 H429 0.958 . S
C415 H430 0.951 1_556 S
C415 H431 0.960 1_556 S
H416 C400 0.931 . S
H417 C405 0.929 . S
H418 C406 0.960 . S
H419 C406 0.962 . S
H420 C406 0.960 . S
H421 C407 0.961 1_655 S
H422 C407 0.961 1_655 S
H423 C407 0.961 . S
H424 C408 0.931 . S
H425 C413 0.930 . S
H426 C414 0.956 . S
H427 C414 0.961 1_554 S
H428 C414 0.961 . S
H429 C415 0.958 . S
H430 C415 0.951 1_554 S
H431 C415 0.960 1_554 S
C432 C433 1.391 . S
C432 C434 1.394 . S
C432 H448 0.931 . S
C433 C432 1.391 . S
C433 C437 1.376 . S
C434 C432 1.394 . S
C434 C435 1.369 . S
C434 C438 1.531 1_565 S
C435 C434 1.369 . S
C435 C436 1.410 . S
C435 C443 1.503 1_565 S
C436 C435 1.410 . S
C436 C437 1.392 . S
C436 C439 1.511 . S
C437 C433 1.376 . S
C437 C436 1.392 . S
C437 H449 0.929 . S
C438 C434 1.531 1_545 S
C438 H450 0.960 . S
C438 H451 0.962 . S
C438 H452 0.960 1_545 S
C439 C436 1.511 . S
C439 H453 0.961 . S
C439 H454 0.961 . S
C439 H455 0.961 . S
C440 C441 1.370 . S
C440 C442 1.363 . S
C440 H456 0.931 . S
C441 C440 1.370 . S
C441 C445 1.408 . S
C442 C440 1.363 . S
C442 C443 1.370 . S
C442 C446 1.524 . S
C443 C435 1.503 1_545 S
C443 C442 1.370 . S
C443 C444 1.403 . S
C444 C443 1.403 . S
C444 C445 1.404 . S
C444 C447 1.539 1_545 S
C445 C441 1.408 . S
C445 C444 1.404 . S
C445 H457 0.930 . S
C446 C442 1.524 . S
C446 H458 0.956 . S
C446 H459 0.961 . S
C446 H460 0.961 . S
C447 C444 1.539 1_565 S
C447 H461 0.958 . S
C447 H462 0.961 . S
C447 H463 0.960 . S
H448 C432 0.931 . S
H449 C437 0.929 . S
H450 C438 0.960 . S
H451 C438 0.962 . S
H452 C438 0.960 1_565 S
H453 C439 0.961 . S
H454 C439 0.961 . S
H455 C439 0.961 . S
H456 C440 0.931 . S
H457 C445 0.930 . S
H458 C446 0.956 . S
H459 C446 0.961 . S
H460 C446 0.961 . S
H461 C447 0.958 . S
H462 C447 0.961 . S
H463 C447 0.960 . S
C464 C465 1.391 . S
C464 C466 1.394 . S
C464 H480 0.931 . S
C465 C464 1.391 . S
C465 C469 1.376 . S
C466 C464 1.394 . S
C466 C467 1.369 . S
C466 C470 1.531 1_545 S
C467 C466 1.369 . S
C467 C468 1.410 . S
C467 C475 1.503 1_645 S
C468 C467 1.410 . S
C468 C469 1.392 . S
C468 C471 1.511 1_655 S
C469 C465 1.376 . S
C469 C468 1.392 . S
C469 H481 0.929 . S
C470 C466 1.531 1_565 S
C470 H482 0.960 . S
C470 H483 0.962 . S
C470 H484 0.960 . S
C471 C468 1.511 1_455 S
C471 H485 0.961 . S
C471 H486 0.961 . S
C471 H487 0.961 . S
C472 C473 1.370 . S
C472 C474 1.363 . S
C472 H488 0.931 . S
C473 C472 1.370 . S
C473 C477 1.408 . S
C474 C472 1.363 . S
C474 C475 1.370 . S
C474 C478 1.524 1_565 S
C475 C467 1.503 1_465 S
C475 C474 1.370 . S
C475 C476 1.405 . S
C476 C475 1.405 . S
C476 C477 1.412 . S
C476 C479 1.529 1_455 S
C477 C473 1.408 . S
C477 C476 1.412 . S
C477 H489 0.930 . S
C478 C474 1.524 1_545 S
C478 H490 0.956 1_545 S
C478 H491 0.961 . S
C478 H492 0.961 1_545 S
C479 C476 1.529 1_655 S
C479 H493 0.958 . S
C479 H494 0.961 . S
C479 H495 0.960 . S
H480 C464 0.931 . S
H481 C469 0.929 . S
H482 C470 0.960 . S
H483 C470 0.962 . S
H484 C470 0.960 . S
H485 C471 0.961 . S
H486 C471 0.961 . S
H487 C471 0.961 . S
H488 C472 0.931 . S
H489 C477 0.930 . S
H490 C478 0.956 1_565 S
H491 C478 0.961 . S
H492 C478 0.961 1_565 S
H493 C479 0.958 . S
H494 C479 0.961 . S
H495 C479 0.960 . S
C496 C497 1.391 . S
C496 C498 1.394 . S
C496 H512 0.931 . S
C497 C496 1.391 . S
C497 C501 1.376 . S
C498 C496 1.394 . S
C498 C499 1.369 . S
C498 C502 1.531 . S
C499 C498 1.369 . S
C499 C500 1.410 . S
C499 C507 1.503 . S
C500 C499 1.410 . S
C500 C501 1.392 . S
C500 C503 1.511 . S
C501 C497 1.376 . S
C501 C500 1.392 . S
C501 H513 0.929 . S
C502 C498 1.531 . S
C502 H514 0.960 . S
C502 H515 0.962 . S
C502 H516 0.960 . S
C503 C500 1.511 . S
C503 H517 0.961 . S
C503 H518 0.961 . S
C503 H519 0.961 . S
C504 C505 1.370 . S
C504 C506 1.363 . S
C504 H520 0.931 . S
C505 C504 1.370 . S
C505 C509 1.408 . S
C506 C504 1.363 . S
C506 C507 1.370 . S
C506 C510 1.524 . S
C507 C499 1.503 . S
C507 C506 1.370 . S
C507 C508 1.403 . S
C508 C507 1.403 . S
C508 C509 1.404 . S
C508 C511 1.539 1_554 S
C509 C505 1.408 . S
C509 C508 1.404 . S
C509 H521 0.930 . S
C510 C506 1.524 . S
C510 H522 0.956 . S
C510 H523 0.961 . S
C510 H524 0.961 . S
C511 C508 1.539 1_556 S
C511 H525 0.958 . S
C511 H526 0.961 . S
C511 H527 0.960 1_556 S
H512 C496 0.931 . S
H513 C501 0.929 . S
H514 C502 0.960 . S
H515 C502 0.962 . S
H516 C502 0.960 . S
H517 C503 0.961 . S
H518 C503 0.961 . S
H519 C503 0.961 . S
H520 C504 0.931 . S
H521 C509 0.930 . S
H522 C510 0.956 . S
H523 C510 0.961 . S
H524 C510 0.961 . S
H525 C511 0.958 . S
H526 C511 0.961 . S
H527 C511 0.960 1_554 S
C528 C529 1.391 . S
C528 C530 1.394 . S
C528 H544 0.931 . S
C529 C528 1.391 . S
C529 C533 1.376 . S
C530 C528 1.394 . S
C530 C531 1.369 . S
C530 C534 1.531 1_545 S
C531 C530 1.369 . S
C531 C532 1.410 . S
C531 C539 1.503 1_545 S
C532 C531 1.410 . S
C532 C533 1.392 . S
C532 C535 1.511 . S
C533 C529 1.376 . S
C533 C532 1.392 . S
C533 H545 0.929 . S
C534 C530 1.531 1_565 S
C534 H546 0.960 . S
C534 H547 0.962 . S
C534 H548 0.960 . S
C535 C532 1.511 . S
C535 H549 0.961 . S
C535 H550 0.961 . S
C535 H551 0.961 . S
C536 C537 1.370 . S
C536 C538 1.363 . S
C536 H552 0.931 . S
C537 C536 1.370 . S
C537 C541 1.408 . S
C538 C536 1.363 . S
C538 C539 1.370 . S
C538 C542 1.524 . S
C539 C531 1.503 1_565 S
C539 C538 1.370 . S
C539 C540 1.403 . S
C540 C539 1.403 . S
C540 C541 1.404 . S
C540 C543 1.539 . S
C541 C537 1.408 . S
C541 C540 1.404 . S
C541 H553 0.930 . S
C542 C538 1.524 . S
C542 H554 0.956 . S
C542 H555 0.961 1_565 S
C542 H556 0.961 . S
C543 C540 1.539 . S
C543 H557 0.958 . S
C543 H558 0.961 . S
C543 H559 0.960 1_565 S
H544 C528 0.931 . S
H545 C533 0.929 . S
H546 C534 0.960 . S
H547 C534 0.962 . S
H548 C534 0.960 . S
H549 C535 0.961 . S
H550 C535 0.961 . S
H551 C535 0.961 . S
H552 C536 0.931 . S
H553 C541 0.930 . S
H554 C542 0.956 . S
H555 C542 0.961 1_545 S
H556 C542 0.961 . S
H557 C543 0.958 . S
H558 C543 0.961 . S
H559 C543 0.960 1_545 S
C560 C561 1.391 . S
C560 C562 1.394 . S
C560 H576 0.931 . S
C561 C560 1.391 . S
C561 C565 1.376 . S
C562 C560 1.394 . S
C562 C563 1.369 . S
C562 C566 1.531 . S
C563 C562 1.369 . S
C563 C564 1.410 . S
C563 C571 1.503 . S
C564 C563 1.410 . S
C564 C565 1.392 . S
C564 C567 1.511 1_556 S
C565 C561 1.376 . S
C565 C564 1.392 . S
C565 H577 0.929 . S
C566 C562 1.531 . S
C566 H578 0.960 . S
C566 H579 0.962 . S
C566 H580 0.960 . S
C567 C564 1.511 1_554 S
C567 H581 0.961 . S
C567 H582 0.961 . S
C567 H583 0.961 . S
C568 C569 1.370 . S
C568 C570 1.363 . S
C568 H584 0.931 . S
C569 C568 1.370 . S
C569 C573 1.408 . S
C570 C568 1.363 . S
C570 C571 1.370 . S
C570 C574 1.524 . S
C571 C563 1.503 . S
C571 C570 1.370 . S
C571 C572 1.403 . S
C572 C571 1.403 . S
C572 C573 1.404 . S
C572 C575 1.539 . S
C573 C569 1.408 . S
C573 C572 1.404 . S
C573 H585 0.930 . S
C574 C570 1.524 . S
C574 H586 0.956 . S
C574 H587 0.961 . S
C574 H588 0.961 . S
C575 C572 1.539 . S
C575 H589 0.958 . S
C575 H590 0.961 . S
C575 H591 0.960 . S
H576 C560 0.931 . S
H577 C565 0.929 . S
H578 C566 0.960 . S
H579 C566 0.962 . S
H580 C566 0.960 . S
H581 C567 0.961 . S
H582 C567 0.961 . S
H583 C567 0.961 . S
H584 C568 0.931 . S
H585 C573 0.930 . S
H586 C574 0.956 . S
H587 C574 0.961 . S
H588 C574 0.961 . S
H589 C575 0.958 . S
H590 C575 0.961 . S
H591 C575 0.960 . S
C592 C593 1.391 . S
C592 C594 1.394 . S
C592 H608 0.931 . S
C593 C592 1.391 . S
C593 C597 1.376 . S
C594 C592 1.394 . S
C594 C595 1.369 . S
C594 C598 1.531 1_565 S
C595 C594 1.369 . S
C595 C596 1.410 . S
C595 C603 1.503 1_565 S
C596 C595 1.410 . S
C596 C597 1.392 . S
C596 C599 1.511 . S
C597 C593 1.376 . S
C597 C596 1.392 . S
C597 H609 0.929 . S
C598 C594 1.531 1_545 S
C598 H610 0.960 . S
C598 H611 0.962 . S
C598 H612 0.960 . S
C599 C596 1.511 . S
C599 H613 0.961 . S
C599 H614 0.961 . S
C599 H615 0.961 . S
C600 C601 1.370 . S
C600 C602 1.363 . S
C600 H616 0.931 . S
C601 C600 1.370 . S
C601 C605 1.408 . S
C602 C600 1.363 . S
C602 C603 1.370 . S
C602 C606 1.524 1_545 S
C603 C595 1.503 1_545 S
C603 C602 1.370 . S
C603 C604 1.403 . S
C604 C603 1.403 . S
C604 C605 1.404 . S
C604 C607 1.539 . S
C605 C601 1.408 . S
C605 C604 1.404 . S
C605 H617 0.930 . S
C606 C602 1.524 1_565 S
C606 H618 0.956 . S
C606 H619 0.961 . S
C606 H620 0.961 . S
C607 C604 1.539 . S
C607 H621 0.958 . S
C607 H622 0.961 . S
C607 H623 0.960 . S
H608 C592 0.931 . S
H609 C597 0.929 . S
H610 C598 0.960 . S
H611 C598 0.962 . S
H612 C598 0.960 . S
H613 C599 0.961 . S
H614 C599 0.961 . S
H615 C599 0.961 . S
H616 C600 0.931 . S
H617 C605 0.930 . S
H618 C606 0.956 . S
H619 C606 0.961 . S
H620 C606 0.961 . S
H621 C607 0.958 . S
H622 C607 0.961 . S
H623 C607 0.960 . S
C113 C9 1.598 . S
C121 C23 1.601 . S
C145 C51 1.633 . S
C153 C37 1.624 . S
C177 C65 1.606 . S
C185 C79 1.603 . S
C209 C93 1.638 . S
C217 C107 1.624 . S
C241 C7 1.734 . S
C249 C35 1.701 . S
C273 C49 1.658 . S
C281 C21 1.700 . S
C305 C63 1.712 . S
C313 C91 1.716 . S
C337 C105 1.726 . S
C345 C77 1.689 . S
C369 C6 1.288 . S
C377 C62 1.274 . S
C401 C20 1.260 . S
C409 C76 1.284 . S
C433 C90 1.273 . S
C441 C34 1.278 . S
C465 C104 1.254 . S
C473 C48 1.287 . S
C497 C22 1.374 . S
C505 C8 1.368 . S
C529 C36 1.370 . S
C537 C50 1.370 . S
C561 C64 1.378 . S
C569 C78 1.366 . S
C593 C92 1.358 . S
C601 C106 1.370 . S
