# Generated by pormake.
# Topology vmv, (8)-cn, num edge types: 1
# Building blocks:
#     Node 0, Type 0, BuildingBlock: TAGTUT_clean_sbu_1, # of connection points: 8
#     Node 1, Type 0, BuildingBlock: TAGTUT_clean_sbu_1, # of connection points: 8
#     Node 2, Type 0, BuildingBlock: TAGTUT_clean_sbu_1, # of connection points: 8
#     Node 3, Type 0, BuildingBlock: TAGTUT_clean_sbu_1, # of connection points: 8
#     Edge 4, Type (0, 0), BuildingBlock: OJICUG_clean_linker_0, # of connection points: 2
#     Edge 5, Type (0, 0), BuildingBlock: OJICUG_clean_linker_0, # of connection points: 2
#     Edge 6, Type (0, 0), BuildingBlock: OJICUG_clean_linker_0, # of connection points: 2
#     Edge 7, Type (0, 0), BuildingBlock: OJICUG_clean_linker_0, # of connection points: 2
#     Edge 8, Type (0, 0), BuildingBlock: OJICUG_clean_linker_0, # of connection points: 2
#     Edge 9, Type (0, 0), BuildingBlock: OJICUG_clean_linker_0, # of connection points: 2
#     Edge 10, Type (0, 0), BuildingBlock: OJICUG_clean_linker_0, # of connection points: 2
#     Edge 11, Type (0, 0), BuildingBlock: OJICUG_clean_linker_0, # of connection points: 2
#     Edge 12, Type (0, 0), BuildingBlock: OJICUG_clean_linker_0, # of connection points: 2
#     Edge 13, Type (0, 0), BuildingBlock: OJICUG_clean_linker_0, # of connection points: 2
#     Edge 14, Type (0, 0), BuildingBlock: OJICUG_clean_linker_0, # of connection points: 2
#     Edge 15, Type (0, 0), BuildingBlock: OJICUG_clean_linker_0, # of connection points: 2
#     Edge 16, Type (0, 0), BuildingBlock: OJICUG_clean_linker_0, # of connection points: 2
#     Edge 17, Type (0, 0), BuildingBlock: OJICUG_clean_linker_0, # of connection points: 2
#     Edge 18, Type (0, 0), BuildingBlock: OJICUG_clean_linker_0, # of connection points: 2
#     Edge 19, Type (0, 0), BuildingBlock: OJICUG_clean_linker_0, # of connection points: 2
# Relax obj value: 0.308
# Max RMSD: 0.293
# Mean RMSD: 0.283
data_MOF--net-vmv--node1-TAGTUT_clean_sbu_1--edge1-OJICUG_clean_linker_0
_symmetry_space_group_name_H-M    P1
_symmetry_Int_Tables_number       1
_symmetry_cell_setting            triclinic
loop_
_symmetry_equiv_pos_as_xyz
'x, y, z'
_cell_length_a     12.060821
_cell_length_b     23.752501
_cell_length_c     24.0164
_cell_angle_alpha  89.52855
_cell_angle_beta   105.94905
_cell_angle_gamma 88.894315
loop_
_atom_site_label
_atom_site_type_symbol
_atom_site_fract_x
_atom_site_fract_y
_atom_site_fract_z
_atom_type_partial_charge
C0 C 0.33119 0.13641 0.79867 0.0
C1 C 0.58562 0.26633 0.85615 0.0
C2 C 0.26932 0.42582 0.77234 0.0
Mg3 Mg 0.46278 0.21579 0.73683 0.0
O4 O 0.32282 0.25553 0.73688 0.0
Mg5 Mg 0.29696 0.28091 0.81019 0.0
Mg6 Mg 0.30932 0.32663 0.69544 0.0
O7 O 0.29841 0.39773 0.64669 0.0
Mg8 Mg 0.17435 0.44857 0.64191 0.0
Mg9 Mg 0.29683 0.35575 0.57014 0.0
C10 C 0.35997 0.24007 0.60135 0.0
C11 C 0.55417 0.33898 0.66489 0.0
O12 O 0.28392 0.17873 0.81866 0.0
O13 O 0.40388 0.14302 0.76925 0.0
O14 O 0.48319 0.27642 0.85775 0.0
O15 O 0.60588 0.24613 0.81035 0.0
O16 O 0.44043 0.21335 0.63971 0.0
O17 O 0.29284 0.27566 0.61561 0.0
C18 C 0.053 0.30842 0.71844 0.0
O19 O 0.10991 0.32389 0.68347 0.0
O20 O 0.10553 0.28924 0.76838 0.0
O21 O 0.30616 0.43588 0.52983 0.0
O22 O 0.27872 0.49976 0.59363 0.0
O23 O 0.09914 0.36385 0.52258 0.0
C24 C 0.31587 0.48512 0.54992 0.0
O25 O 0.05229 0.38942 0.59776 0.0
O26 O 0.17601 0.42908 0.73179 0.0
C27 C 0.03428 0.39422 0.54433 0.0
O28 O 0.32807 0.37875 0.78091 0.0
O29 O 0.50462 0.32832 0.70459 0.0
O30 O 0.495 0.35119 0.61304 0.0
C31 C 0.92066 0.74297 0.65791 0.0
C32 C 0.24114 0.65597 0.77745 0.0
C33 C 0.08646 0.73089 0.95395 0.0
Mg34 Mg 0.1589 0.77826 0.73652 0.0
O35 O 0.05324 0.77758 0.78295 0.0
Mg36 Mg 0.99534 0.70601 0.80335 0.0
Mg37 Mg 0.10726 0.81145 0.85816 0.0
O38 O 0.16648 0.85003 0.9342 0.0
Mg39 Mg 0.0905 0.84595 0.99482 0.0
Mg40 Mg 0.1912 0.92635 0.89887 0.0
C41 C 0.16377 0.90776 0.77598 0.0
C42 C 0.37689 0.83882 0.8713 0.0
O43 O 0.89768 0.71464 0.69989 0.0
O44 O 0.01879 0.76519 0.66312 0.0
O45 O 0.14742 0.65633 0.79167 0.0
O46 O 0.27336 0.70037 0.75592 0.0
O47 O 0.20377 0.87008 0.74752 0.0
O48 O 0.1056 0.89421 0.81091 0.0
C49 C 0.82993 0.79513 0.84113 0.0
O50 O 0.91503 0.82783 0.85895 0.0
O51 O 0.84312 0.74851 0.81856 0.0
O52 O 0.29081 0.946 0.98654 0.0
O53 O 0.26889 0.87547 0.04616 0.0
O54 O 0.02376 0.96517 0.91153 0.0
C55 C 0.32495 0.91753 0.03344 0.0
O56 O 0.95512 0.90721 0.96182 0.0
O57 O 1.01079 0.76781 0.95543 0.0
C58 C 0.99838 0.95451 0.95843 0.0
O59 O 0.10808 0.72274 0.90468 0.0
O60 O 0.29905 0.8012 0.85835 0.0
O61 O 0.35468 0.88786 0.88704 0.0
C62 C 0.69999 0.53877 0.47473 0.0
C63 C 0.98255 0.62943 0.48374 0.0
C64 C 0.65538 0.78413 0.42975 0.0
Mg65 Mg 0.84333 0.57754 0.38419 0.0
O66 O 0.71925 0.62835 0.38073 0.0
Mg67 Mg 0.72015 0.66839 0.45832 0.0
Mg68 Mg 0.70723 0.70094 0.33381 0.0
O69 O 0.69209 0.77334 0.29494 0.0
Mg70 Mg 0.54872 0.80989 0.29484 0.0
Mg71 Mg 0.72203 0.75241 0.22162 0.0
C72 C 0.74792 0.60527 0.25559 0.0
C73 C 0.96475 0.72172 0.31332 0.0
O74 O 0.71158 0.58725 0.49661 0.0
O75 O 0.73661 0.52538 0.43052 0.0
O76 O 0.91794 0.66006 0.50542 0.0
O77 O 0.96669 0.63509 0.4305 0.0
O78 O 0.84137 0.60277 0.29588 0.0
O79 O 0.68972 0.65248 0.24555 0.0
C80 C 0.46235 0.68657 0.36445 0.0
O81 O 0.51156 0.69808 0.32477 0.0
O82 O 0.52188 0.67347 0.41602 0.0
O83 O 0.73501 0.85519 0.22208 0.0
O84 O 0.60348 0.88593 0.26714 0.0
O85 O 0.53703 0.75734 0.17098 0.0
C86 C 0.6831 0.89539 0.24271 0.0
O87 O 0.4101 0.77858 0.21928 0.0
O88 O 0.57239 0.81006 0.39207 0.0
C89 C 0.43344 0.76379 0.1723 0.0
O90 O 0.72314 0.74949 0.41472 0.0
O91 O 0.90703 0.7043 0.34711 0.0
O92 O 0.91298 0.7433 0.2644 0.0
C93 C 0.71533 0.04061 0.05301 0.0
C94 C 0.07427 0.06416 0.12346 0.0
C95 C 0.85491 0.12174 0.28625 0.0
Mg96 Mg 0.87408 0.14238 0.05126 0.0
O97 O 0.83892 0.15053 0.12173 0.0
Mg98 Mg 0.85557 0.08137 0.1736 0.0
Mg99 Mg 0.90313 0.20222 0.18897 0.0
O100 O 0.95531 0.24723 0.25686 0.0
Mg101 Mg 0.85398 0.25396 0.30581 0.0
Mg102 Mg 0.01427 0.3131 0.227 0.0
C103 C 0.91444 0.26516 0.08225 0.0
C104 C 0.17995 0.21726 0.19872 0.0
O105 O 0.79655 0.02667 0.0967 0.0
O106 O 0.71467 0.08895 0.02816 0.0
O107 O 0.03852 0.05971 0.1687 0.0
O108 O 1.01356 0.08773 0.07695 0.0
O109 O 0.96798 0.21849 0.08641 0.0
O110 O 0.89572 0.28486 0.12898 0.0
C111 C 0.6411 0.16638 0.18042 0.0
O112 O 0.71167 0.20766 0.18768 0.0
O113 O 0.67353 0.11542 0.17376 0.0
O114 O 0.11939 0.31047 0.33041 0.0
O115 O 0.99718 0.27134 0.37544 0.0
O116 O 0.86554 0.36785 0.23728 0.0
C117 C 0.09757 0.28806 0.37588 0.0
O118 O 0.74342 0.33244 0.28159 0.0
O119 O 0.80809 0.16232 0.30806 0.0
C120 C 0.77511 0.37307 0.25432 0.0
O121 O 0.91617 0.13194 0.2519 0.0
O122 O 0.09639 0.18321 0.1885 0.0
O123 O 0.16547 0.26711 0.21355 0.0
C124 C 0.0491 0.53225 0.46927 0.0
C125 C 1.00314 0.57005 0.50282 0.0
H126 H 0.08679 0.44674 0.45265 0.0
C127 C 0.96342 0.54882 0.54806 0.0
H128 H 0.08162 0.54738 0.43419 0.0
C129 C 0.96446 0.49098 0.55769 0.0
C130 C 1.01096 0.45322 0.52433 0.0
H131 H 0.92756 0.57654 0.57458 0.0
H132 H 0.93226 0.47583 0.59287 0.0
C133 C 0.05038 0.47442 0.47898 0.0
C134 C 0.53569 0.02245 0.07976 0.0
C135 C 0.61163 1.00681 0.04727 0.0
H136 H 0.40026 0.99775 0.11596 0.0
C137 C 0.61109 0.95074 0.029 0.0
H138 H 0.53818 0.0641 0.09751 0.0
C139 C 0.52733 0.9136 0.03704 0.0
C140 C 0.44368 0.93138 0.06461 0.0
H141 H 0.67436 0.93593 1.00772 0.0
H142 H 0.51984 0.87315 1.01589 0.0
C143 C 0.45745 0.98415 0.091 0.0
C144 C 0.61704 0.50504 0.55074 0.0
C145 C 0.60713 0.50992 0.49104 0.0
H146 H 0.52998 0.50053 0.61733 0.0
C147 C 0.49626 0.51603 0.45261 0.0
H148 H 0.70152 0.50309 0.58174 0.0
C149 C 0.39842 0.51813 0.47333 0.0
C150 C 0.40846 0.5136 0.53306 0.0
H151 H 0.48567 0.52304 0.40676 0.0
H152 H 0.3139 0.51993 0.44237 0.0
C153 C 0.51931 0.50744 0.57146 0.0
C154 C 0.20332 0.04451 0.0671 0.0
C155 C 0.16814 0.0277 0.11592 0.0
H156 H 0.14826 0.0428 0.97404 0.0
C157 C 0.13857 0.9714 0.11822 0.0
H158 H 0.24465 0.08462 0.0671 0.0
C159 C 0.08114 0.9467 0.06605 0.0
C160 C 0.07676 0.97414 1.01287 0.0
H161 H 0.12838 0.95341 0.15809 0.0
H162 H 0.03527 0.90827 0.06774 0.0
C163 C 0.14423 0.02206 1.01376 0.0
C164 C 0.64631 0.29913 0.95935 0.0
C165 C 0.67712 0.27561 0.91135 0.0
H166 H 0.6956 0.31475 0.05095 0.0
C167 C 0.79107 0.25677 0.91942 0.0
H168 H 0.5595 0.31502 0.95493 0.0
C169 C 0.8693 0.2576 0.9747 0.0
C170 C 0.83559 0.27677 0.02348 0.0
H171 H 0.81841 0.239 0.88382 0.0
H172 H 0.9555 0.24043 0.97988 0.0
C173 C 0.72436 0.29954 1.01474 0.0
C174 C 0.65123 0.74703 0.52732 0.0
C175 C 0.67944 0.79057 0.49332 0.0
H176 H 0.70633 0.69551 0.60511 0.0
C177 C 0.77417 0.82349 0.51901 0.0
H178 H 0.57756 0.72122 0.50951 0.0
C179 C 0.84786 0.80861 0.57309 0.0
C180 C 0.8294 0.76022 0.60386 0.0
H181 H 0.79942 0.85693 0.49433 0.0
H182 H 0.92342 0.8339 0.5893 0.0
C183 C 0.72599 0.7316 0.58197 0.0
C184 C 0.29601 0.73537 1.01188 0.0
C185 C 0.17992 0.7285 1.00961 0.0
H186 H 0.46516 0.75299 0.06436 0.0
C187 C 0.14805 0.73087 0.06214 0.0
H188 H 0.32345 0.73517 0.97256 0.0
C189 C 0.22856 0.74261 0.11501 0.0
C190 C 0.34397 0.75143 0.11706 0.0
H191 H 0.05865 0.72622 0.06179 0.0
H192 H 0.20018 0.74531 0.15396 0.0
C193 C 0.37679 0.74651 0.06484 0.0
C194 C 0.2965 0.29427 0.45013 0.0
C195 C 0.19093 0.26768 0.42782 0.0
H196 H 0.44635 0.30097 0.52255 0.0
C197 C 0.17 0.21877 0.45715 0.0
H198 H 0.3182 0.33055 0.42796 0.0
C199 C 0.24236 0.20217 0.51101 0.0
C200 C 0.33856 0.23368 0.53776 0.0
H201 H 0.09279 0.19476 0.44021 0.0
H202 H 0.21461 0.16883 0.53486 0.0
C203 C 0.37046 0.27679 0.50438 0.0
C204 C 0.86975 0.31796 0.74814 0.0
C205 C 0.92518 0.31647 0.70359 0.0
H206 H 0.71147 0.32795 0.77125 0.0
C207 C 0.85744 0.324 0.64609 0.0
H208 H 0.91889 0.31297 0.79307 0.0
C209 C 0.73748 0.33257 0.63355 0.0
C210 C 0.68221 0.33355 0.67821 0.0
H211 H 0.89648 0.32213 0.61064 0.0
H212 H 0.68785 0.33738 0.58868 0.0
C213 C 0.7503 0.3266 0.73566 0.0
C214 C 0.57767 0.86973 0.87721 0.0
C215 C 0.49399 0.82742 0.86534 0.0
H216 H 0.74934 0.89323 0.8785 0.0
C217 C 0.52242 0.77515 0.846 0.0
H218 H 0.55848 0.91073 0.89215 0.0
C219 C 0.63114 0.76547 0.83797 0.0
C220 C 0.71486 0.8077 0.8494 0.0
H221 H 0.46064 0.74166 0.83676 0.0
H222 H 0.64941 0.72437 0.82293 0.0
C223 C 0.68717 0.85992 0.8694 0.0
C224 C 0.14665 0.71066 0.28274 0.0
C225 C 0.09223 0.71239 0.32766 0.0
H226 H 0.30365 0.69908 0.25871 0.0
C227 C 0.16044 0.70352 0.38487 0.0
H228 H 0.09695 0.71641 0.23799 0.0
C229 C 0.28005 0.69375 0.39678 0.0
C230 C 0.33441 0.6927 0.35173 0.0
H231 H 0.12206 0.70532 0.42058 0.0
H232 H 0.33018 0.68812 0.44147 0.0
C233 C 0.26565 0.70066 0.29457 0.0
C234 C 0.36939 0.24542 0.18595 0.0
C235 C 0.295 0.2019 0.19122 0.0
H236 H 0.53459 0.26852 0.17828 0.0
C237 C 0.33408 0.14587 0.19091 0.0
H238 H 0.34237 0.28922 0.18551 0.0
C239 C 0.44569 0.13387 0.18611 0.0
C240 C 0.5205 0.17779 0.18211 0.0
H241 H 0.28001 0.11155 0.19605 0.0
H242 H 0.47411 0.09028 0.18695 0.0
C243 C 0.48021 0.23359 0.18164 0.0
C244 C 0.35943 0.03282 0.78655 0.0
C245 C 0.29282 0.07725 0.80101 0.0
H246 H 0.37051 0.94559 0.7655 0.0
C247 C 0.18359 0.06492 0.80722 0.0
H248 H 0.44451 0.04037 0.78157 0.0
C249 C 0.14118 0.01013 0.79754 0.0
C250 C 0.20649 0.96641 0.7811 0.0
H251 H 0.12923 0.09786 0.81738 0.0
H252 H 0.05622 1.00201 0.80236 0.0
C253 C 0.31658 0.97841 0.77626 0.0
C254 C 0.34717 0.51423 0.7411 0.0
C255 C 0.3263 0.48113 0.78621 0.0
H256 H 0.33716 0.597 0.70214 0.0
C257 C 0.31345 0.50904 0.8353 0.0
H258 H 0.35908 0.49398 0.70305 0.0
C259 C 0.30417 0.56804 0.83559 0.0
C260 C 0.30578 0.60076 0.78644 0.0
H261 H 0.29571 0.48528 0.87048 0.0
H262 H 0.28167 0.58762 0.87174 0.0
C263 C 0.33573 0.57352 0.74078 0.0
C264 C 0.65583 0.99759 0.26286 0.0
C265 C 0.72648 0.95407 0.24993 0.0
H266 H 0.64177 0.08348 0.28806 0.0
C267 C 0.84291 0.96522 0.25622 0.0
H268 H 0.56581 0.99044 0.25955 0.0
C269 C 0.88665 0.01849 0.27391 0.0
C270 C 0.81496 0.06251 0.2848 0.0
H271 H 0.90086 0.93253 0.24881 0.0
H272 H 0.97624 0.02613 0.2766 0.0
C273 C 0.69974 0.05073 0.28079 0.0
C274 C 0.67884 0.45787 0.28714 0.0
C275 C 0.71617 0.4299 0.24396 0.0
H276 H 0.64781 0.53798 0.3218 0.0
C277 C 0.72454 0.46194 0.19553 0.0
H278 H 0.67131 0.4349 0.32503 0.0
C279 C 0.7135 0.5209 0.19442 0.0
C280 C 0.69252 0.54964 0.24137 0.0
H281 H 0.75193 0.44188 0.16101 0.0
H282 H 0.73572 0.54414 0.16012 0.0
C283 C 0.66613 0.51718 0.28544 0.0
loop_
_geom_bond_atom_site_label_1
_geom_bond_atom_site_label_2
_geom_bond_distance
_geom_bond_site_symmetry_2
_ccdc_geom_bond_type
C0 O12 1.241 . S
C0 O13 1.280 . S
C1 O14 1.277 . S
C1 O15 1.245 . S
C2 O26 1.247 . S
C2 O28 1.289 . S
Mg3 O4 1.926 . S
Mg3 O13 1.984 . S
Mg3 O15 1.988 . S
Mg3 O16 2.061 . S
O4 Mg3 1.926 . S
O4 Mg5 1.986 . S
O4 Mg6 1.917 . S
Mg5 O4 1.986 . S
Mg5 O12 2.042 . S
Mg5 O14 2.041 . S
Mg5 O20 2.038 . S
Mg5 O28 2.238 . S
Mg6 O4 1.917 . S
Mg6 O7 1.917 . S
Mg6 O17 2.106 . S
Mg6 O19 2.079 . S
Mg6 O28 2.106 . S
Mg6 O29 2.079 . S
O7 Mg6 1.917 . S
O7 Mg8 1.926 . S
O7 Mg9 1.986 . S
Mg8 O7 1.926 . S
Mg8 O22 1.984 . S
Mg8 O25 1.988 . S
Mg8 O26 2.061 . S
Mg9 O7 1.986 . S
Mg9 O17 2.238 . S
Mg9 O21 2.042 . S
Mg9 O23 2.041 . S
Mg9 O30 2.038 . S
C10 O16 1.247 . S
C10 O17 1.289 . S
C11 O29 1.245 . S
C11 O30 1.274 . S
O12 C0 1.241 . S
O12 Mg5 2.042 . S
O13 C0 1.280 . S
O13 Mg3 1.984 . S
O14 C1 1.277 . S
O14 Mg5 2.041 . S
O15 C1 1.245 . S
O15 Mg3 1.988 . S
O16 Mg3 2.061 . S
O16 C10 1.247 . S
O17 Mg6 2.106 . S
O17 Mg9 2.238 . S
O17 C10 1.289 . S
C18 O19 1.245 . S
C18 O20 1.274 . S
O19 Mg6 2.079 . S
O19 C18 1.245 . S
O20 Mg5 2.038 . S
O20 C18 1.274 . S
O21 Mg9 2.042 . S
O21 C24 1.241 . S
O22 Mg8 1.984 . S
O22 C24 1.280 . S
O23 Mg9 2.041 . S
O23 C27 1.277 . S
C24 O21 1.241 . S
C24 O22 1.280 . S
O25 Mg8 1.988 . S
O25 C27 1.245 . S
O26 C2 1.247 . S
O26 Mg8 2.061 . S
C27 O23 1.277 . S
C27 O25 1.245 . S
O28 C2 1.289 . S
O28 Mg5 2.238 . S
O28 Mg6 2.106 . S
O29 Mg6 2.079 . S
O29 C11 1.245 . S
O30 Mg9 2.038 . S
O30 C11 1.274 . S
C31 O43 1.241 . S
C31 O44 1.280 1_655 S
C32 O45 1.277 . S
C32 O46 1.245 . S
C33 O57 1.247 . S
C33 O59 1.289 . S
Mg34 O35 1.926 . S
Mg34 O44 1.984 . S
Mg34 O46 1.988 . S
Mg34 O47 2.061 . S
O35 Mg34 1.926 . S
O35 Mg36 1.986 . S
O35 Mg37 1.917 . S
Mg36 O35 1.986 . S
Mg36 O43 2.042 1_455 S
Mg36 O45 2.041 . S
Mg36 O51 2.038 1_455 S
Mg36 O59 2.238 . S
Mg37 O35 1.917 . S
Mg37 O38 1.917 . S
Mg37 O48 2.106 . S
Mg37 O50 2.079 . S
Mg37 O59 2.106 . S
Mg37 O60 2.079 . S
O38 Mg37 1.917 . S
O38 Mg39 1.926 . S
O38 Mg40 1.986 . S
Mg39 O38 1.926 . S
Mg39 O53 1.984 1_556 S
Mg39 O56 1.988 . S
Mg39 O57 2.061 . S
Mg40 O38 1.986 . S
Mg40 O48 2.238 . S
Mg40 O52 2.042 . S
Mg40 O54 2.041 . S
Mg40 O61 2.038 . S
C41 O47 1.247 . S
C41 O48 1.289 . S
C42 O60 1.245 . S
C42 O61 1.274 . S
O43 C31 1.241 . S
O43 Mg36 2.042 1_655 S
O44 C31 1.280 1_455 S
O44 Mg34 1.984 . S
O45 C32 1.277 . S
O45 Mg36 2.041 . S
O46 C32 1.245 . S
O46 Mg34 1.988 . S
O47 Mg34 2.061 . S
O47 C41 1.247 . S
O48 Mg37 2.106 . S
O48 Mg40 2.238 . S
O48 C41 1.289 . S
C49 O50 1.245 1_655 S
C49 O51 1.274 . S
O50 Mg37 2.079 . S
O50 C49 1.245 1_455 S
O51 Mg36 2.038 1_655 S
O51 C49 1.274 . S
O52 Mg40 2.042 . S
O52 C55 1.241 1_556 S
O53 Mg39 1.984 1_554 S
O53 C55 1.280 . S
O54 Mg40 2.041 . S
O54 C58 1.277 . S
C55 O52 1.241 1_554 S
C55 O53 1.280 . S
O56 Mg39 1.988 . S
O56 C58 1.245 . S
O57 C33 1.247 . S
O57 Mg39 2.061 . S
C58 O54 1.277 . S
C58 O56 1.245 . S
O59 C33 1.289 . S
O59 Mg36 2.238 . S
O59 Mg37 2.106 . S
O60 Mg37 2.079 . S
O60 C42 1.245 . S
O61 Mg40 2.038 . S
O61 C42 1.274 . S
C62 O74 1.241 . S
C62 O75 1.280 . S
C63 O76 1.277 . S
C63 O77 1.245 . S
C64 O88 1.247 . S
C64 O90 1.289 . S
Mg65 O66 1.926 . S
Mg65 O75 1.984 . S
Mg65 O77 1.988 . S
Mg65 O78 2.061 . S
O66 Mg65 1.926 . S
O66 Mg67 1.986 . S
O66 Mg68 1.917 . S
Mg67 O66 1.986 . S
Mg67 O74 2.042 . S
Mg67 O76 2.041 . S
Mg67 O82 2.038 . S
Mg67 O90 2.238 . S
Mg68 O66 1.917 . S
Mg68 O69 1.917 . S
Mg68 O79 2.106 . S
Mg68 O81 2.079 . S
Mg68 O90 2.106 . S
Mg68 O91 2.079 . S
O69 Mg68 1.917 . S
O69 Mg70 1.926 . S
O69 Mg71 1.986 . S
Mg70 O69 1.926 . S
Mg70 O84 1.984 . S
Mg70 O87 1.988 . S
Mg70 O88 2.061 . S
Mg71 O69 1.986 . S
Mg71 O79 2.238 . S
Mg71 O83 2.042 . S
Mg71 O85 2.041 . S
Mg71 O92 2.038 . S
C72 O78 1.247 . S
C72 O79 1.289 . S
C73 O91 1.245 . S
C73 O92 1.274 . S
O74 C62 1.241 . S
O74 Mg67 2.042 . S
O75 C62 1.280 . S
O75 Mg65 1.984 . S
O76 C63 1.277 . S
O76 Mg67 2.041 . S
O77 C63 1.245 . S
O77 Mg65 1.988 . S
O78 Mg65 2.061 . S
O78 C72 1.247 . S
O79 Mg68 2.106 . S
O79 Mg71 2.238 . S
O79 C72 1.289 . S
C80 O81 1.245 . S
C80 O82 1.274 . S
O81 Mg68 2.079 . S
O81 C80 1.245 . S
O82 Mg67 2.038 . S
O82 C80 1.274 . S
O83 Mg71 2.042 . S
O83 C86 1.241 . S
O84 Mg70 1.984 . S
O84 C86 1.280 . S
O85 Mg71 2.041 . S
O85 C89 1.277 . S
C86 O83 1.241 . S
C86 O84 1.280 . S
O87 Mg70 1.988 . S
O87 C89 1.245 . S
O88 C64 1.247 . S
O88 Mg70 2.061 . S
C89 O85 1.277 . S
C89 O87 1.245 . S
O90 C64 1.289 . S
O90 Mg67 2.238 . S
O90 Mg68 2.106 . S
O91 Mg68 2.079 . S
O91 C73 1.245 . S
O92 Mg71 2.038 . S
O92 C73 1.274 . S
C93 O105 1.241 1_556 S
C93 O106 1.280 . S
C94 O107 1.277 . S
C94 O108 1.245 . S
C95 O119 1.247 . S
C95 O121 1.289 . S
Mg96 O97 1.926 . S
Mg96 O106 1.984 1_554 S
Mg96 O108 1.988 . S
Mg96 O109 2.061 . S
O97 Mg96 1.926 . S
O97 Mg98 1.986 . S
O97 Mg99 1.917 . S
Mg98 O97 1.986 . S
Mg98 O105 2.042 . S
Mg98 O107 2.041 . S
Mg98 O113 2.038 . S
Mg98 O121 2.238 . S
Mg99 O97 1.917 . S
Mg99 O100 1.917 . S
Mg99 O110 2.106 . S
Mg99 O112 2.079 . S
Mg99 O121 2.106 . S
Mg99 O122 2.079 . S
O100 Mg99 1.917 . S
O100 Mg101 1.926 . S
O100 Mg102 1.986 . S
Mg101 O100 1.926 . S
Mg101 O115 1.984 . S
Mg101 O118 1.988 . S
Mg101 O119 2.061 . S
Mg102 O100 1.986 . S
Mg102 O110 2.238 . S
Mg102 O114 2.042 1_655 S
Mg102 O116 2.041 . S
Mg102 O123 2.038 1_655 S
C103 O109 1.247 . S
C103 O110 1.289 . S
C104 O122 1.245 1_455 S
C104 O123 1.274 . S
O105 C93 1.241 1_554 S
O105 Mg98 2.042 . S
O106 C93 1.280 . S
O106 Mg96 1.984 1_556 S
O107 C94 1.277 . S
O107 Mg98 2.041 . S
O108 C94 1.245 . S
O108 Mg96 1.988 . S
O109 Mg96 2.061 . S
O109 C103 1.247 . S
O110 Mg99 2.106 . S
O110 Mg102 2.238 . S
O110 C103 1.289 . S
C111 O112 1.245 . S
C111 O113 1.274 . S
O112 Mg99 2.079 . S
O112 C111 1.245 . S
O113 Mg98 2.038 . S
O113 C111 1.274 . S
O114 Mg102 2.042 1_455 S
O114 C117 1.241 . S
O115 Mg101 1.984 . S
O115 C117 1.280 1_655 S
O116 Mg102 2.041 . S
O116 C120 1.277 . S
C117 O114 1.241 . S
C117 O115 1.280 1_455 S
O118 Mg101 1.988 . S
O118 C120 1.245 . S
O119 C95 1.247 . S
O119 Mg101 2.061 . S
C120 O116 1.277 . S
C120 O118 1.245 . S
O121 C95 1.289 . S
O121 Mg98 2.238 . S
O121 Mg99 2.106 . S
O122 Mg99 2.079 . S
O122 C104 1.245 1_655 S
O123 Mg102 2.038 1_455 S
O123 C104 1.274 . S
C124 C125 1.387 1_455 S
C124 H128 0.950 . S
C124 C133 1.390 . S
C125 C124 1.387 1_655 S
C125 C127 1.387 . S
H126 C133 0.950 . S
C127 C125 1.387 . S
C127 C129 1.390 . S
C127 H131 0.950 . S
H128 C124 0.950 . S
C129 C127 1.390 . S
C129 C130 1.387 1_655 S
C129 H132 0.950 . S
C130 C129 1.387 1_455 S
C130 C133 1.387 . S
H131 C127 0.950 . S
H132 C129 0.950 . S
C133 C124 1.390 . S
C133 H126 0.950 . S
C133 C130 1.387 . S
C134 C135 1.387 1_554 S
C134 H138 0.950 . S
C134 C143 1.390 1_545 S
C135 C134 1.387 1_556 S
C135 C137 1.387 . S
H136 C143 0.950 . S
C137 C135 1.387 . S
C137 C139 1.390 1_545 S
C137 H141 0.950 . S
H138 C134 0.950 . S
C139 C137 1.390 1_565 S
C139 C140 1.387 1_556 S
C139 H142 0.950 . S
C140 C139 1.387 1_554 S
C140 C143 1.387 . S
H141 C137 0.950 . S
H142 C139 0.950 . S
C143 C134 1.390 1_565 S
C143 H136 0.950 . S
C143 C140 1.387 . S
C144 C145 1.387 . S
C144 H148 0.950 . S
C144 C153 1.390 . S
C145 C144 1.387 . S
C145 C147 1.387 . S
H146 C153 0.950 . S
C147 C145 1.387 . S
C147 C149 1.390 . S
C147 H151 0.950 . S
H148 C144 0.950 . S
C149 C147 1.390 . S
C149 C150 1.387 . S
C149 H152 0.950 . S
C150 C149 1.387 . S
C150 C153 1.387 . S
H151 C147 0.950 . S
H152 C149 0.950 . S
C153 C144 1.390 . S
C153 H146 0.950 . S
C153 C150 1.387 . S
C154 C155 1.387 1_545 S
C154 H158 0.950 . S
C154 C163 1.390 1_654 S
C155 C154 1.387 1_565 S
C155 C157 1.387 . S
H156 C163 0.950 . S
C157 C155 1.387 . S
C157 C159 1.390 1_654 S
C157 H161 0.950 . S
H158 C154 0.950 . S
C159 C157 1.390 1_456 S
C159 C160 1.387 1_565 S
C159 H162 0.950 . S
C160 C159 1.387 1_545 S
C160 C163 1.387 . S
H161 C157 0.950 . S
H162 C159 0.950 . S
C163 C154 1.390 1_456 S
C163 H156 0.950 . S
C163 C160 1.387 . S
C164 C165 1.387 . S
C164 H168 0.950 . S
C164 C173 1.390 . S
C165 C164 1.387 . S
C165 C167 1.387 . S
H166 C173 0.950 . S
C167 C165 1.387 . S
C167 C169 1.390 . S
C167 H171 0.950 . S
H168 C164 0.950 . S
C169 C167 1.390 . S
C169 C170 1.387 . S
C169 H172 0.950 . S
C170 C169 1.387 . S
C170 C173 1.387 . S
H171 C167 0.950 . S
H172 C169 0.950 . S
C173 C164 1.390 . S
C173 H166 0.950 . S
C173 C170 1.387 . S
C174 C175 1.387 . S
C174 H178 0.950 . S
C174 C183 1.390 . S
C175 C174 1.387 . S
C175 C177 1.387 . S
H176 C183 0.950 . S
C177 C175 1.387 . S
C177 C179 1.390 . S
C177 H181 0.950 . S
H178 C174 0.950 . S
C179 C177 1.390 . S
C179 C180 1.387 . S
C179 H182 0.950 . S
C180 C179 1.387 . S
C180 C183 1.387 . S
H181 C177 0.950 . S
H182 C179 0.950 . S
C183 C174 1.390 . S
C183 H176 0.950 . S
C183 C180 1.387 . S
C184 C185 1.387 . S
C184 H188 0.950 . S
C184 C193 1.390 . S
C185 C184 1.387 . S
C185 C187 1.387 . S
H186 C193 0.950 . S
C187 C185 1.387 . S
C187 C189 1.390 . S
C187 H191 0.950 . S
H188 C184 0.950 . S
C189 C187 1.390 . S
C189 C190 1.387 . S
C189 H192 0.950 . S
C190 C189 1.387 . S
C190 C193 1.387 . S
H191 C187 0.950 . S
H192 C189 0.950 . S
C193 C184 1.390 . S
C193 H186 0.950 . S
C193 C190 1.387 . S
C194 C195 1.387 . S
C194 H198 0.950 . S
C194 C203 1.390 . S
C195 C194 1.387 . S
C195 C197 1.387 . S
H196 C203 0.950 . S
C197 C195 1.387 . S
C197 C199 1.390 . S
C197 H201 0.950 . S
H198 C194 0.950 . S
C199 C197 1.390 . S
C199 C200 1.387 . S
C199 H202 0.950 . S
C200 C199 1.387 . S
C200 C203 1.387 . S
H201 C197 0.950 . S
H202 C199 0.950 . S
C203 C194 1.390 . S
C203 H196 0.950 . S
C203 C200 1.387 . S
C204 C205 1.387 . S
C204 H208 0.950 . S
C204 C213 1.390 . S
C205 C204 1.387 . S
C205 C207 1.387 . S
H206 C213 0.950 . S
C207 C205 1.387 . S
C207 C209 1.390 . S
C207 H211 0.950 . S
H208 C204 0.950 . S
C209 C207 1.390 . S
C209 C210 1.387 . S
C209 H212 0.950 . S
C210 C209 1.387 . S
C210 C213 1.387 . S
H211 C207 0.950 . S
H212 C209 0.950 . S
C213 C204 1.390 . S
C213 H206 0.950 . S
C213 C210 1.387 . S
C214 C215 1.387 . S
C214 H218 0.950 . S
C214 C223 1.390 . S
C215 C214 1.387 . S
C215 C217 1.387 . S
H216 C223 0.950 . S
C217 C215 1.387 . S
C217 C219 1.390 . S
C217 H221 0.950 . S
H218 C214 0.950 . S
C219 C217 1.390 . S
C219 C220 1.387 . S
C219 H222 0.950 . S
C220 C219 1.387 . S
C220 C223 1.387 . S
H221 C217 0.950 . S
H222 C219 0.950 . S
C223 C214 1.390 . S
C223 H216 0.950 . S
C223 C220 1.387 . S
C224 C225 1.387 . S
C224 H228 0.950 . S
C224 C233 1.390 . S
C225 C224 1.387 . S
C225 C227 1.387 . S
H226 C233 0.950 . S
C227 C225 1.387 . S
C227 C229 1.390 . S
C227 H231 0.950 . S
H228 C224 0.950 . S
C229 C227 1.390 . S
C229 C230 1.387 . S
C229 H232 0.950 . S
C230 C229 1.387 . S
C230 C233 1.387 . S
H231 C227 0.950 . S
H232 C229 0.950 . S
C233 C224 1.390 . S
C233 H226 0.950 . S
C233 C230 1.387 . S
C234 C235 1.387 . S
C234 H238 0.950 . S
C234 C243 1.390 . S
C235 C234 1.387 . S
C235 C237 1.387 . S
H236 C243 0.950 . S
C237 C235 1.387 . S
C237 C239 1.390 . S
C237 H241 0.950 . S
H238 C234 0.950 . S
C239 C237 1.390 . S
C239 C240 1.387 . S
C239 H242 0.950 . S
C240 C239 1.387 . S
C240 C243 1.387 . S
H241 C237 0.950 . S
H242 C239 0.950 . S
C243 C234 1.390 . S
C243 H236 0.950 . S
C243 C240 1.387 . S
C244 C245 1.387 . S
C244 H248 0.950 . S
C244 C253 1.390 . S
C245 C244 1.387 . S
C245 C247 1.387 . S
H246 C253 0.950 . S
C247 C245 1.387 . S
C247 C249 1.390 . S
C247 H251 0.950 . S
H248 C244 0.950 . S
C249 C247 1.390 . S
C249 C250 1.387 . S
C249 H252 0.950 . S
C250 C249 1.387 . S
C250 C253 1.387 . S
H251 C247 0.950 . S
H252 C249 0.950 . S
C253 C244 1.390 . S
C253 H246 0.950 . S
C253 C250 1.387 . S
C254 C255 1.387 . S
C254 H258 0.950 . S
C254 C263 1.390 . S
C255 C254 1.387 . S
C255 C257 1.387 . S
H256 C263 0.950 . S
C257 C255 1.387 . S
C257 C259 1.390 . S
C257 H261 0.950 . S
H258 C254 0.950 . S
C259 C257 1.390 . S
C259 C260 1.387 . S
C259 H262 0.950 . S
C260 C259 1.387 . S
C260 C263 1.387 . S
H261 C257 0.950 . S
H262 C259 0.950 . S
C263 C254 1.390 . S
C263 H256 0.950 . S
C263 C260 1.387 . S
C264 C265 1.387 . S
C264 H268 0.950 . S
C264 C273 1.390 . S
C265 C264 1.387 . S
C265 C267 1.387 . S
H266 C273 0.950 . S
C267 C265 1.387 . S
C267 C269 1.390 . S
C267 H271 0.950 . S
H268 C264 0.950 . S
C269 C267 1.390 . S
C269 C270 1.387 . S
C269 H272 0.950 . S
C270 C269 1.387 . S
C270 C273 1.387 . S
H271 C267 0.950 . S
H272 C269 0.950 . S
C273 C264 1.390 . S
C273 H266 0.950 . S
C273 C270 1.387 . S
C274 C275 1.387 . S
C274 H278 0.950 . S
C274 C283 1.390 . S
C275 C274 1.387 . S
C275 C277 1.387 . S
H276 C283 0.950 . S
C277 C275 1.387 . S
C277 C279 1.390 . S
C277 H281 0.950 . S
H278 C274 0.950 . S
C279 C277 1.390 . S
C279 C280 1.387 . S
C279 H282 0.950 . S
C280 C279 1.387 . S
C280 C283 1.387 . S
H281 C277 0.950 . S
H282 C279 0.950 . S
C283 C274 1.390 . S
C283 H276 0.950 . S
C283 C280 1.387 . S
C125 C63 0.759 . S
C130 C27 0.759 . S
C135 C93 0.802 . S
C140 C55 0.802 . S
C145 C62 1.043 . S
C150 C24 1.043 . S
C155 C94 0.951 1_565 S
C160 C58 0.951 1_545 S
C165 C1 1.929 . S
C170 C103 1.692 1_556 S
C175 C64 2.067 . S
C180 C31 1.942 . S
C185 C33 1.693 1_554 S
C190 C89 1.932 . S
C195 C117 1.945 . S
C200 C10 2.068 . S
C205 C18 1.731 1_655 S
C210 C11 1.731 . S
C215 C42 1.729 . S
C220 C49 1.729 . S
C225 C73 1.732 1_455 S
C230 C80 1.732 . S
C235 C104 1.729 . S
C240 C111 1.729 . S
C245 C0 1.985 . S
C250 C41 2.090 1_545 S
C255 C2 1.669 . S
C260 C32 1.849 . S
C265 C86 1.982 . S
C270 C95 2.092 1_565 S
C275 C120 1.851 . S
C280 C72 1.664 . S
