# Generated by pormake.
# Topology wiu, (6)-cn, num edge types: 1
# Building blocks:
#     Node 0, Type 0, BuildingBlock: PAMTOO_clean_sbu_0, # of connection points: 6
#     Node 1, Type 0, BuildingBlock: PAMTOO_clean_sbu_0, # of connection points: 6
#     Node 2, Type 0, BuildingBlock: PAMTOO_clean_sbu_0, # of connection points: 6
#     Node 3, Type 0, BuildingBlock: PAMTOO_clean_sbu_0, # of connection points: 6
#     Node 4, Type 0, BuildingBlock: PAMTOO_clean_sbu_0, # of connection points: 6
#     Node 5, Type 0, BuildingBlock: PAMTOO_clean_sbu_0, # of connection points: 6
#     Node 6, Type 0, BuildingBlock: PAMTOO_clean_sbu_0, # of connection points: 6
#     Node 7, Type 0, BuildingBlock: PAMTOO_clean_sbu_0, # of connection points: 6
#     Node 8, Type 0, BuildingBlock: PAMTOO_clean_sbu_0, # of connection points: 6
#     Node 9, Type 0, BuildingBlock: PAMTOO_clean_sbu_0, # of connection points: 6
#     Node 10, Type 0, BuildingBlock: PAMTOO_clean_sbu_0, # of connection points: 6
#     Node 11, Type 0, BuildingBlock: PAMTOO_clean_sbu_0, # of connection points: 6
#     Node 12, Type 0, BuildingBlock: PAMTOO_clean_sbu_0, # of connection points: 6
#     Node 13, Type 0, BuildingBlock: PAMTOO_clean_sbu_0, # of connection points: 6
#     Node 14, Type 0, BuildingBlock: PAMTOO_clean_sbu_0, # of connection points: 6
#     Node 15, Type 0, BuildingBlock: PAMTOO_clean_sbu_0, # of connection points: 6
#     Edge 16, Type (0, 0), BuildingBlock: OJICUG_clean_linker_0, # of connection points: 2
#     Edge 17, Type (0, 0), BuildingBlock: OJICUG_clean_linker_0, # of connection points: 2
#     Edge 18, Type (0, 0), BuildingBlock: OJICUG_clean_linker_0, # of connection points: 2
#     Edge 19, Type (0, 0), BuildingBlock: OJICUG_clean_linker_0, # of connection points: 2
#     Edge 20, Type (0, 0), BuildingBlock: OJICUG_clean_linker_0, # of connection points: 2
#     Edge 21, Type (0, 0), BuildingBlock: OJICUG_clean_linker_0, # of connection points: 2
#     Edge 22, Type (0, 0), BuildingBlock: OJICUG_clean_linker_0, # of connection points: 2
#     Edge 23, Type (0, 0), BuildingBlock: OJICUG_clean_linker_0, # of connection points: 2
#     Edge 24, Type (0, 0), BuildingBlock: OJICUG_clean_linker_0, # of connection points: 2
#     Edge 25, Type (0, 0), BuildingBlock: OJICUG_clean_linker_0, # of connection points: 2
#     Edge 26, Type (0, 0), BuildingBlock: OJICUG_clean_linker_0, # of connection points: 2
#     Edge 27, Type (0, 0), BuildingBlock: OJICUG_clean_linker_0, # of connection points: 2
#     Edge 28, Type (0, 0), BuildingBlock: OJICUG_clean_linker_0, # of connection points: 2
#     Edge 29, Type (0, 0), BuildingBlock: OJICUG_clean_linker_0, # of connection points: 2
#     Edge 30, Type (0, 0), BuildingBlock: OJICUG_clean_linker_0, # of connection points: 2
#     Edge 31, Type (0, 0), BuildingBlock: OJICUG_clean_linker_0, # of connection points: 2
#     Edge 32, Type (0, 0), BuildingBlock: OJICUG_clean_linker_0, # of connection points: 2
#     Edge 33, Type (0, 0), BuildingBlock: OJICUG_clean_linker_0, # of connection points: 2
#     Edge 34, Type (0, 0), BuildingBlock: OJICUG_clean_linker_0, # of connection points: 2
#     Edge 35, Type (0, 0), BuildingBlock: OJICUG_clean_linker_0, # of connection points: 2
#     Edge 36, Type (0, 0), BuildingBlock: OJICUG_clean_linker_0, # of connection points: 2
#     Edge 37, Type (0, 0), BuildingBlock: OJICUG_clean_linker_0, # of connection points: 2
#     Edge 38, Type (0, 0), BuildingBlock: OJICUG_clean_linker_0, # of connection points: 2
#     Edge 39, Type (0, 0), BuildingBlock: OJICUG_clean_linker_0, # of connection points: 2
#     Edge 40, Type (0, 0), BuildingBlock: OJICUG_clean_linker_0, # of connection points: 2
#     Edge 41, Type (0, 0), BuildingBlock: OJICUG_clean_linker_0, # of connection points: 2
#     Edge 42, Type (0, 0), BuildingBlock: OJICUG_clean_linker_0, # of connection points: 2
#     Edge 43, Type (0, 0), BuildingBlock: OJICUG_clean_linker_0, # of connection points: 2
#     Edge 44, Type (0, 0), BuildingBlock: OJICUG_clean_linker_0, # of connection points: 2
#     Edge 45, Type (0, 0), BuildingBlock: OJICUG_clean_linker_0, # of connection points: 2
#     Edge 46, Type (0, 0), BuildingBlock: OJICUG_clean_linker_0, # of connection points: 2
#     Edge 47, Type (0, 0), BuildingBlock: OJICUG_clean_linker_0, # of connection points: 2
#     Edge 48, Type (0, 0), BuildingBlock: OJICUG_clean_linker_0, # of connection points: 2
#     Edge 49, Type (0, 0), BuildingBlock: OJICUG_clean_linker_0, # of connection points: 2
#     Edge 50, Type (0, 0), BuildingBlock: OJICUG_clean_linker_0, # of connection points: 2
#     Edge 51, Type (0, 0), BuildingBlock: OJICUG_clean_linker_0, # of connection points: 2
#     Edge 52, Type (0, 0), BuildingBlock: OJICUG_clean_linker_0, # of connection points: 2
#     Edge 53, Type (0, 0), BuildingBlock: OJICUG_clean_linker_0, # of connection points: 2
#     Edge 54, Type (0, 0), BuildingBlock: OJICUG_clean_linker_0, # of connection points: 2
#     Edge 55, Type (0, 0), BuildingBlock: OJICUG_clean_linker_0, # of connection points: 2
#     Edge 56, Type (0, 0), BuildingBlock: OJICUG_clean_linker_0, # of connection points: 2
#     Edge 57, Type (0, 0), BuildingBlock: OJICUG_clean_linker_0, # of connection points: 2
#     Edge 58, Type (0, 0), BuildingBlock: OJICUG_clean_linker_0, # of connection points: 2
#     Edge 59, Type (0, 0), BuildingBlock: OJICUG_clean_linker_0, # of connection points: 2
#     Edge 60, Type (0, 0), BuildingBlock: OJICUG_clean_linker_0, # of connection points: 2
#     Edge 61, Type (0, 0), BuildingBlock: OJICUG_clean_linker_0, # of connection points: 2
#     Edge 62, Type (0, 0), BuildingBlock: OJICUG_clean_linker_0, # of connection points: 2
#     Edge 63, Type (0, 0), BuildingBlock: OJICUG_clean_linker_0, # of connection points: 2
# Relax obj value: 0.661
# Max RMSD: 0.321
# Mean RMSD: 0.321
data_MOF--net-wiu--node1-PAMTOO_clean_sbu_0--edge1-OJICUG_clean_linker_0
_symmetry_space_group_name_H-M    P1
_symmetry_Int_Tables_number       1
_symmetry_cell_setting            triclinic
loop_
_symmetry_equiv_pos_as_xyz
'x, y, z'
_cell_length_a     29.029297
_cell_length_b     28.81123
_cell_length_c     38.589166
_cell_angle_alpha  89.868576
_cell_angle_beta   89.852014
_cell_angle_gamma 90.172839
loop_
_atom_site_label
_atom_site_type_symbol
_atom_site_fract_x
_atom_site_fract_y
_atom_site_fract_z
_atom_type_partial_charge
Dy0 Dy 0.4436 0.1341 0.33965 0.0
Dy1 Dy 0.37766 0.20738 0.37612 0.0
C2 C 0.47956 0.2371 0.35501 0.0
O3 O 0.43032 0.10055 0.3911 0.0
O4 O 0.40512 0.16364 0.42157 0.0
O5 O 0.48279 0.07051 0.342 0.0
O6 O 0.48981 0.11672 0.29792 0.0
O7 O 0.33437 0.14286 0.37484 0.0
O8 O 0.37414 0.10184 0.33335 0.0
O9 O 0.34677 0.20419 0.32232 0.0
O10 O 0.40102 0.16022 0.29392 0.0
O11 O 0.37406 0.26579 0.41117 0.0
O12 O 0.3126 0.2417 0.38514 0.0
C13 C 0.41917 0.11983 0.42068 0.0
O14 O 0.48875 0.19293 0.35907 0.0
O15 O 0.43618 0.24901 0.35214 0.0
C16 C 0.55662 0.08072 0.31816 0.0
C17 C 0.65172 0.0945 0.30999 0.0
C18 C 0.6262 0.1242 0.33143 0.0
C19 C 0.57887 0.11711 0.33565 0.0
C20 C 0.5828 1.04779 0.30051 0.0
C21 C 0.63017 1.05426 0.2968 0.0
C22 C 0.50641 0.0808 0.3143 0.0
C23 C 0.33653 0.1095 0.35156 0.0
C24 C 0.36171 0.18359 0.29394 0.0
C25 C 0.32245 0.32255 0.38901 0.0
C26 C 0.30275 0.40744 0.3554 0.0
C27 C 0.267 0.37975 0.369 0.0
C28 C 0.2768 0.33781 0.38576 0.0
C29 C 0.3583 0.35079 0.3762 0.0
C30 C 0.34854 0.39295 0.35976 0.0
C31 C 0.3317 0.27537 0.40243 0.0
H32 H 0.64182 0.15536 0.34189 0.0
H33 H 0.55912 0.14208 0.3502 0.0
H34 H 0.56621 1.01919 0.28723 0.0
H35 H 0.64858 1.03074 0.27988 0.0
H36 H 0.23142 0.39046 0.36654 0.0
H37 H 0.2486 0.31663 0.39536 0.0
H38 H 0.39385 0.3398 0.37803 0.0
H39 H 0.37676 0.41352 0.34949 0.0
Dy40 Dy 0.7268 0.69255 0.58884 0.0
Dy41 Dy 0.65204 0.62771 0.62508 0.0
C42 C 0.62519 0.72984 0.60286 0.0
O43 O 0.75808 0.68045 0.64101 0.0
O44 O 0.69418 0.65645 0.67097 0.0
O45 O 0.79107 0.73057 0.59096 0.0
O46 O 0.74523 0.73892 0.54719 0.0
O47 O 0.71464 0.58241 0.62408 0.0
O48 O 0.75716 0.62166 0.58285 0.0
O49 O 0.65566 0.59615 0.57143 0.0
O50 O 0.69974 0.65074 0.54297 0.0
O51 O 0.59123 0.62729 0.65771 0.0
O52 O 0.61584 0.56342 0.63512 0.0
C53 C 0.73777 0.67074 0.67056 0.0
O54 O 0.66893 0.73898 0.60766 0.0
O55 O 0.61332 0.68628 0.59923 0.0
C56 C 0.78301 0.80534 0.5673 0.0
C57 C 0.7734 0.90163 0.55885 0.0
C58 C 0.74184 0.87683 0.57946 0.0
C59 C 0.74677 0.82891 0.58374 0.0
C60 C 0.81764 0.83068 0.55065 0.0
C61 C 0.81321 0.87858 0.54679 0.0
C62 C 0.78139 0.75476 0.5634 0.0
C63 C 0.74807 0.58379 0.60087 0.0
C64 C 0.67601 0.61136 0.54297 0.0
C65 C 0.53597 0.57633 0.63429 0.0
C66 C 0.44941 0.56025 0.6031 0.0
C67 C 0.48573 0.58005 0.5839 0.0
C68 C 0.52855 0.58813 0.59939 0.0
C69 C 0.49981 0.55698 0.65359 0.0
C70 C 0.4569 0.54899 0.63819 0.0
C71 C 0.58146 0.58426 0.65018 0.0
H72 H 0.711 0.89354 0.58914 0.0
H73 H 0.72035 0.80982 0.59748 0.0
H74 H 0.84614 0.81307 0.5382 0.0
H75 H 0.83825 0.89629 0.53059 0.0
H76 H 0.48095 0.58954 0.55697 0.0
H77 H 0.556 0.60344 0.58406 0.0
H78 H 0.5048 0.54775 0.68046 0.0
H79 H 0.42984 0.53312 0.6536 0.0
Dy80 Dy 0.17164 0.97725 0.83867 0.0
Dy81 Dy 0.23327 0.90232 0.8793 0.0
C82 C 0.12934 0.87732 0.85584 0.0
O83 O 0.17375 1.00798 0.89195 0.0
O84 O 0.20586 0.94823 0.92323 0.0
O85 O 0.12083 0.99323 0.79972 0.0
O86 O 0.15233 1.04862 0.82944 0.0
O87 O 0.27757 0.96585 0.88037 0.0
O88 O 0.24396 1.00257 0.83432 0.0
O89 O 0.26781 0.90441 0.8263 0.0
O90 O 0.21176 0.94201 0.79546 0.0
O91 O 0.23332 0.84401 0.91486 0.0
O92 O 0.29678 0.86653 0.89063 0.0
C93 C 0.18739 0.99029 0.92162 0.0
O94 O 0.12071 0.92212 0.85628 0.0
O95 O 0.17258 0.86363 0.85574 0.0
C96 C 0.1516 1.05754 0.76898 0.0
C97 C 0.20068 0.09247 0.71102 0.0
C98 C 0.1866 1.04566 0.71255 0.0
C99 C 0.16254 1.02853 0.74099 0.0
C100 C 0.16635 0.10407 0.76811 0.0
C101 C 0.19067 0.1214 0.73941 0.0
C102 C 0.13131 1.03742 0.80082 0.0
C103 C 0.27898 0.99669 0.85525 0.0
C104 C 0.25229 0.92128 0.79674 0.0
C105 C 0.28531 0.7861 0.89487 0.0
C106 C 0.30611 0.70191 0.86084 0.0
C107 C 0.34125 0.72859 0.87611 0.0
C108 C 0.3309 0.77018 0.89306 0.0
C109 C 0.24997 0.7587 0.88057 0.0
C110 C 0.26026 0.71687 0.86394 0.0
C111 C 0.27604 0.83351 0.90772 0.0
H112 H 0.19212 1.02225 0.69104 0.0
H113 H 0.15267 0.99225 0.7409 0.0
H114 H 0.15939 0.1269 0.78975 0.0
H115 H 0.2008 0.15759 0.73915 0.0
H116 H 0.37682 0.71749 0.87464 0.0
H117 H 0.35874 0.79073 0.90377 0.0
H118 H 0.21453 0.77024 0.88123 0.0
H119 H 0.2325 0.69706 0.8524 0.0
Dy120 Dy 0.88405 0.42194 1.08662 0.0
Dy121 Dy 0.96021 0.48315 1.12533 0.0
C122 C 0.98285 0.379 1.10171 0.0
O123 O 0.85509 0.42387 1.14052 0.0
O124 O 0.91517 0.45684 1.17056 0.0
O125 O 0.86654 0.37034 1.04833 0.0
O126 O 0.8127 0.40333 1.07846 0.0
O127 O 0.89984 0.53119 1.12576 0.0
O128 O 0.85944 0.49508 1.08249 0.0
O129 O 0.95757 0.51762 1.07243 0.0
O130 O 0.91882 0.46125 1.04245 0.0
O131 O 1.02088 0.47964 1.15781 0.0
O132 O 0.99922 0.54531 1.1363 0.0
C133 C 0.87336 0.43785 1.16986 0.0
O134 O 0.93845 0.37022 1.10376 0.0
O135 O 0.99607 0.42254 1.09958 0.0
C136 C 0.80321 0.40242 1.01811 0.0
C137 C 0.76973 0.4534 0.96073 0.0
C138 C 0.81563 0.43772 0.9617 0.0
C139 C 0.83204 0.41271 0.98985 0.0
C140 C 0.75754 0.4186 1.01772 0.0
C141 C 0.74092 0.44383 0.98929 0.0
C142 C 0.82297 0.38173 1.04982 0.0
C143 C 0.86751 0.53154 1.10193 0.0
C144 C 0.94016 0.50182 1.04322 0.0
C145 C 0.07834 0.52926 1.13518 0.0
C146 C 0.16453 0.54645 1.10341 0.0
C147 C 0.15695 0.5579 1.13844 0.0
C148 C 0.11422 0.54937 1.15411 0.0
C149 C 0.08596 0.51692 1.10042 0.0
C150 C 0.12863 0.52551 1.08464 0.0
C151 C 1.03254 0.52248 1.15101 0.0
H152 H 0.83882 0.44284 0.93999 0.0
H153 H 0.86769 0.40174 0.98937 0.0
H154 H 0.73489 0.41217 1.03958 0.0
H155 H 0.70538 0.45512 0.9894 0.0
H156 H 0.18366 0.57465 1.15351 0.0
H157 H 0.10905 0.55912 1.18082 0.0
H158 H 1.05866 0.50117 1.08535 0.0
H159 H 0.13352 0.51586 1.05777 0.0
Dy160 Dy 0.73443 0.90512 1.02043 0.0
Dy161 Dy 0.67376 0.98079 1.06127 0.0
C162 C 0.7811 0.99901 1.04384 0.0
O163 O 0.76874 0.90662 1.07336 0.0
O164 O 0.71316 0.94456 1.10451 0.0
O165 O 0.73382 0.8454 0.98635 0.0
O166 O 0.79786 0.86952 1.00839 0.0
O167 O 0.62189 0.92681 1.0437 0.0
O168 O 0.67289 0.86753 1.04385 0.0
O169 O 0.67574 1.01105 1.00764 0.0
O170 O 0.70675 0.95071 0.97638 0.0
O171 O 0.62275 0.99766 1.1 0.0
O172 O 0.65614 1.05255 1.0706 0.0
C173 C 0.75342 0.92328 1.10303 0.0
O174 O 0.77917 0.96832 1.01875 0.0
O175 O 0.74639 1.00503 1.06514 0.0
C176 C 0.78707 0.7886 1.00671 0.0
C177 C 0.80808 0.70447 1.04111 0.0
C178 C 0.84345 0.73428 1.02973 0.0
C179 C 0.83305 0.77574 1.01254 0.0
C180 C 0.75165 0.75822 1.01738 0.0
C181 C 0.7621 0.71644 1.03421 0.0
C182 C 0.77682 0.8355 0.99285 0.0
C183 C 0.62989 0.88192 1.04362 0.0
C184 C 0.6886 0.99294 0.97789 0.0
C185 C 0.6549 1.06066 1.13106 0.0
C186 C 0.70479 0.09334 1.18903 0.0
C187 C 0.69006 1.04678 1.18706 0.0
C188 C 0.66562 1.03075 1.15861 0.0
C189 C 0.67024 0.10696 1.13236 0.0
C190 C 0.69495 0.12319 1.16107 0.0
C191 C 0.63442 1.04156 1.0991 0.0
H192 H 0.87922 0.72548 1.03413 0.0
H193 H 0.86099 0.79843 1.00458 0.0
H194 H 0.71583 0.76714 1.01351 0.0
H195 H 0.73417 0.69405 1.04267 0.0
H196 H 0.6954 1.02268 0.20823 0.0
H197 H 0.65533 0.99459 1.15835 0.0
H198 H 0.66348 0.13044 1.11101 0.0
H199 H 0.70556 0.15924 1.16168 0.0
Dy200 Dy 0.45626 0.48309 0.77284 0.0
Dy201 Dy 0.38056 0.42175 0.81223 0.0
C202 C 0.36349 0.5311 0.7966 0.0
O203 O 0.45399 0.51762 0.82553 0.0
O204 O 0.41525 0.46141 0.85596 0.0
O205 O 0.51759 0.48014 0.7408 0.0
O206 O 0.49379 0.54587 0.76076 0.0
O207 O 0.4349 0.3702 0.79445 0.0
O208 O 0.49253 0.42244 0.79831 0.0
O209 O 0.35059 0.42464 0.75878 0.0
O210 O 0.41074 0.4571 0.7281 0.0
O211 O 0.36449 0.36937 0.8505 0.0
O212 O 0.30955 0.4027 0.8219 0.0
C213 C 0.43659 0.50197 0.85489 0.0
O214 O 0.39572 0.53067 0.77261 0.0
O215 O 0.35548 0.49479 0.81636 0.0
C216 C 0.57305 0.53166 0.76338 0.0
C217 C 0.65773 0.55083 0.79627 0.0
C218 C 0.62122 0.53062 0.81496 0.0
C219 C 0.57931 0.52098 0.79862 0.0
C220 C 0.60946 0.55136 0.74457 0.0
C221 C 0.65148 0.56085 0.76082 0.0
C222 C 0.52805 0.52341 0.74695 0.0
C223 C 0.47933 0.3789 0.7963 0.0
C224 C 0.36862 0.43882 0.72928 0.0
C225 C 0.30254 0.40102 0.88261 0.0
C226 C 0.27409 0.45313 0.94087 0.0
C227 C 0.3178 0.43212 0.93983 0.0
C228 C 0.33172 0.40645 0.91128 0.0
C229 C 0.25875 0.42187 0.8834 0.0
C230 C 0.24457 0.44757 0.91232 0.0
C231 C 0.3209 0.38078 0.85022 0.0
H232 H 0.62515 0.52208 0.84215 0.0
H233 H 0.55157 0.50557 0.81359 0.0
H234 H 0.60527 0.55987 0.71747 0.0
H235 H 0.67878 0.57695 0.7458 0.0
H236 H 0.34104 0.43391 0.9617 0.0
H237 H 0.36587 0.39144 0.91166 0.0
H238 H 0.2358 0.41894 0.86142 0.0
H239 H 0.21044 0.46264 0.91253 0.0
Dy240 Dy 0.87541 0.20834 0.5201 0.0
Dy241 Dy 0.94081 0.13479 0.55727 0.0
C242 C 0.83375 0.11036 0.54471 0.0
O243 O 0.84349 0.20481 0.57383 0.0
O244 O 0.89773 0.16131 0.6026 0.0
O245 O 0.87335 0.26676 0.48472 0.0
O246 O 0.81103 0.24358 0.5102 0.0
O247 O 0.98605 0.19357 0.5379 0.0
O248 O 0.93335 0.24949 0.54492 0.0
O249 O 0.92895 0.10166 0.5057 0.0
O250 O 0.90494 0.16517 0.47506 0.0
O251 O 0.98059 0.07151 0.55544 0.0
O252 O 0.98576 0.1174 0.59965 0.0
C253 C 0.85829 0.18442 0.60237 0.0
O254 O 0.83171 0.14389 0.52142 0.0
O255 O 0.87122 0.10257 0.56297 0.0
C256 C 0.82208 0.32459 0.50615 0.0
C257 C 0.80422 0.41045 0.53909 0.0
C258 C 0.76785 0.38076 0.52964 0.0
C259 C 0.77667 0.33844 0.51319 0.0
C260 C 0.85847 0.35491 0.51474 0.0
C261 C 0.84958 0.39753 0.53084 0.0
C262 C 0.83095 0.27704 0.493 0.0
C263 C 0.97677 0.23762 0.5422 0.0
C264 C 0.91924 0.12143 0.47599 0.0
C265 C 1.05357 0.08227 0.58041 0.0
C266 C 0.14827 0.09712 0.5899 0.0
C267 C 0.12305 0.12675 0.56821 0.0
C268 C 0.07597 0.11902 0.56325 0.0
C269 C 0.07955 1.04964 0.59855 0.0
C270 C 0.12673 1.05665 0.60291 0.0
C271 C 1.00323 0.08178 0.58349 0.0
H272 H 0.73248 0.39022 0.53512 0.0
H273 H 0.748 0.31589 0.5068 0.0
H274 H 0.89392 0.34529 0.50986 0.0
H275 H 0.87827 0.41974 0.53782 0.0
H276 H 0.13863 0.15815 0.55797 0.0
H277 H 1.05639 0.14373 0.54833 0.0
H278 H 0.06287 1.02081 0.61164 0.0
H279 H 0.14492 1.03327 0.62009 0.0
Dy280 Dy 0.15371 0.62741 0.2711 0.0
Dy281 Dy 0.22824 0.68926 0.31051 0.0
C282 C 0.24701 0.58069 0.2938 0.0
O283 O 0.15684 0.59214 0.3238 0.0
O284 O 0.19308 0.64959 0.35423 0.0
O285 O 0.09226 0.62954 0.23937 0.0
O286 O 0.11802 0.56395 0.25838 0.0
O287 O 0.17296 0.74019 0.29339 0.0
O288 O 0.11605 0.68699 0.29685 0.0
O289 O 0.25797 0.68832 0.2568 0.0
O290 O 0.19818 0.65564 0.22627 0.0
O291 O 0.24384 0.74167 0.34864 0.0
O292 O 0.29914 0.70815 0.32047 0.0
C293 C 0.17306 0.60839 0.35326 0.0
O294 O 0.21556 0.58179 0.2694 0.0
O295 O 0.25379 0.61629 0.31437 0.0
C296 C 1.03847 0.57609 0.26187 0.0
C297 C 0.95393 0.55659 0.29507 0.0
C298 C 0.99249 0.57019 0.31448 0.0
C299 C 1.03427 0.58007 0.29802 0.0
C300 C 1.00006 0.56296 0.24231 0.0
C301 C 0.95807 0.55325 0.25876 0.0
C302 C 0.08304 0.58584 0.24513 0.0
C303 C 0.12863 0.73076 0.29529 0.0
C304 C 0.23996 0.67467 0.22727 0.0
C305 C 0.30521 0.7099 0.3812 0.0
C306 C 0.33315 0.65815 0.43986 0.0
C307 C 0.28912 0.67841 0.43835 0.0
C308 C 0.27544 0.70388 0.40959 0.0
C309 C 0.34927 0.68969 0.38241 0.0
C310 C 0.36317 0.66415 0.41152 0.0
C311 C 0.2874 0.73015 0.34863 0.0
H312 H 0.99024 0.57364 0.34238 0.0
H313 H 0.06342 0.59075 0.31356 0.0
H314 H 1.00254 0.56012 0.21443 0.0
H315 H 0.92903 0.54241 0.24312 0.0
H316 H 0.26541 0.67623 0.46001 0.0
H317 H 0.24104 0.71832 0.40961 0.0
H318 H 0.37266 0.69302 0.36062 0.0
H319 H 0.39751 0.64958 0.41202 0.0
Dy320 Dy 0.93712 0.63797 0.83717 0.0
Dy321 Dy 0.87372 0.71106 0.87772 0.0
C322 C 0.97751 0.73788 0.85507 0.0
O323 O 0.93593 0.60637 0.89031 0.0
O324 O 0.90153 0.66486 0.92154 0.0
O325 O 0.98894 0.62538 0.79818 0.0
O326 O 0.95845 0.56766 0.82623 0.0
O327 O 0.82934 0.64722 0.87791 0.0
O328 O 0.86578 0.61029 0.83309 0.0
O329 O 0.83922 0.70841 0.82485 0.0
O330 O 0.89675 0.67309 0.79408 0.0
O331 O 0.87331 0.76867 0.91375 0.0
O332 O 0.81025 0.74726 0.88881 0.0
C333 C 0.92153 0.62347 0.91999 0.0
O334 O 0.98664 0.69325 0.85598 0.0
O335 O 0.93408 0.75085 0.8541 0.0
C336 C 0.95955 0.56305 0.76515 0.0
C337 C 0.90822 0.53945 0.70557 0.0
C338 C 0.93726 0.57864 0.70573 0.0
C339 C 0.96274 0.59006 0.73493 0.0
C340 C 0.93112 0.52325 0.76495 0.0
C341 C 0.90593 0.51137 0.7353 0.0
C342 C 0.97925 0.581 0.79786 0.0
C343 C 0.82981 0.6157 0.85328 0.0
C344 C 0.8555 0.69227 0.7953 0.0
C345 C 0.82196 0.82779 0.89437 0.0
C346 C 0.80299 0.91424 0.86251 0.0
C347 C 0.76694 0.88536 0.87411 0.0
C348 C 0.77634 0.84274 0.89002 0.0
C349 C 0.85812 0.85741 0.88391 0.0
C350 C 0.84869 0.90036 0.86836 0.0
C351 C 0.83084 0.77971 0.90642 0.0
H352 H 0.9415 0.6 0.6828 0.0
H353 H 0.98418 0.62088 0.73399 0.0
H354 H 0.92761 0.50182 0.78791 0.0
H355 H 0.88485 0.48028 0.73554 0.0
H356 H 0.73138 0.89553 0.87047 0.0
H357 H 0.74786 0.8207 0.89791 0.0
H358 H 0.89369 0.84689 0.88673 0.0
H359 H 0.87714 0.92189 0.85969 0.0
Dy360 Dy 0.22609 0.19356 1.09002 0.0
Dy361 Dy 0.15292 0.12819 1.12691 0.0
C362 C 0.12386 0.22959 1.10416 0.0
O363 O 0.25934 0.17911 1.1412 0.0
O364 O 0.19583 0.15697 1.17221 0.0
O365 O 0.28964 0.23261 1.09276 0.0
O366 O 0.24458 0.24013 1.04846 0.0
O367 O 0.21553 0.08319 1.1243 0.0
O368 O 0.25673 0.12302 1.08268 0.0
O369 O 0.15539 0.09711 1.07311 0.0
O370 O 0.19853 0.15204 1.0442 0.0
O371 O 0.09111 0.12721 1.15852 0.0
O372 O 0.12005 1.06301 1.13955 0.0
C373 C 0.23984 0.16959 1.17106 0.0
O374 O 0.16753 0.23931 1.10889 0.0
O375 O 0.11254 0.18579 1.10113 0.0
C376 C 0.28106 0.30712 1.06899 0.0
C377 C 0.27059 0.40343 1.06151 0.0
C378 C 0.23943 0.37803 1.08206 0.0
C379 C 0.24478 0.33008 1.08584 0.0
C380 C 0.31529 0.33299 1.05235 0.0
C381 C 0.31044 0.38091 1.04896 0.0
C382 C 0.28019 0.25654 1.06505 0.0
C383 C 0.24821 0.0849 1.10055 0.0
C384 C 0.1749 0.11259 1.04441 0.0
C385 C 1.03989 0.07196 1.13557 0.0
C386 C 0.95558 1.05338 1.10204 0.0
C387 C 0.99553 1.06265 1.08262 0.0
C388 C 1.03718 0.07201 1.09922 0.0
C389 C 1.00014 1.06298 1.15511 0.0
C390 C 0.95831 1.05358 1.13851 0.0
C391 C 0.08386 0.08324 1.15256 0.0
H392 H 0.2086 0.39433 1.09213 0.0
H393 H 0.21871 0.31056 1.09962 0.0
H394 H 0.34386 0.31584 1.03963 0.0
H395 H 0.3352 0.39906 1.0328 0.0
H396 H 0.99447 0.06342 1.05457 0.0
H397 H 0.06724 0.07967 1.08357 0.0
H398 H 1.00134 0.06353 1.1831 0.0
H399 H 0.9282 1.0461 1.15421 0.0
Dy400 Dy 0.67315 0.47662 0.33671 0.0
Dy401 Dy 0.73516 0.4019 0.377 0.0
C402 C 0.63094 0.37692 0.3542 0.0
O403 O 0.67548 0.50723 0.39012 0.0
O404 O 0.70797 0.44751 0.42122 0.0
O405 O 0.62211 0.4924 0.2979 0.0
O406 O 0.65337 0.54789 0.32764 0.0
O407 O 0.77954 0.46545 0.37785 0.0
O408 O 0.74526 0.50232 0.33215 0.0
O409 O 0.76924 0.40403 0.32386 0.0
O410 O 0.71302 0.44156 0.29318 0.0
O411 O 0.73533 0.34254 0.41163 0.0
O412 O 0.79889 0.36657 0.38842 0.0
C413 C 0.68931 0.48952 0.41976 0.0
O414 O 0.62228 0.42169 0.35457 0.0
O415 O 0.67418 0.36327 0.35382 0.0
C416 C 0.65296 0.55658 0.26709 0.0
C417 C 0.70394 0.58938 0.2094 0.0
C418 C 0.68513 0.54426 0.20978 0.0
C419 C 0.66006 0.52818 0.23807 0.0
C420 C 0.67197 0.60158 0.26712 0.0
C421 C 0.69719 0.61786 0.23853 0.0
C422 C 0.63252 0.5366 0.29896 0.0
C423 C 0.78045 0.49659 0.35292 0.0
C424 C 0.75353 0.42077 0.29433 0.0
C425 C 0.7883 0.28568 0.39097 0.0
C426 C 0.80897 0.20165 0.35661 0.0
C427 C 0.84446 0.23129 0.36776 0.0
C428 C 0.83423 0.27271 0.38495 0.0
C429 C 0.75276 0.25541 0.38059 0.0
C430 C 0.76305 0.21364 0.36378 0.0
C431 C 0.77823 0.33267 0.40458 0.0
H432 H 0.68794 0.52156 1.18755 0.0
H433 H 0.64661 0.4931 0.23714 0.0
H434 H 0.66783 0.62393 0.28944 0.0
H435 H 0.71074 0.65291 0.23899 0.0
H436 H 0.88019 0.22243 0.36312 0.0
H437 H 0.86224 0.29533 0.39269 0.0
H438 H 0.71697 0.26443 0.38461 0.0
H439 H 0.73505 0.19135 0.3555 0.0
Dy440 Dy 0.38304 0.91586 0.5908 0.0
Dy441 Dy 0.45754 0.98164 0.62609 0.0
C442 C 0.48484 0.87932 0.6041 0.0
O443 O 0.35186 0.9282 0.643 0.0
O444 O 0.41534 0.95375 0.67249 0.0
O445 O 0.31905 0.87747 0.59371 0.0
O446 O 0.36441 0.86941 0.54947 0.0
O447 O 0.39455 1.02655 0.62555 0.0
O448 O 0.35196 0.98629 0.58516 0.0
O449 O 0.45298 1.01321 0.57244 0.0
O450 O 0.40895 0.9583 0.54462 0.0
O451 O 0.5184 0.98253 0.65844 0.0
O452 O 0.49394 1.04601 0.63504 0.0
C453 C 0.37188 0.93907 0.67231 0.0
O454 O 0.44124 0.86985 0.60933 0.0
O455 O 0.49639 0.923 0.60032 0.0
C456 C 0.32693 0.80285 0.57007 0.0
C457 C 0.33669 0.70664 0.5617 0.0
C458 C 0.36816 0.7314 0.58222 0.0
C459 C 0.36319 0.7793 0.58644 0.0
C460 C 0.29231 0.77753 0.55363 0.0
C461 C 0.29681 0.72965 0.54981 0.0
C462 C 0.32845 0.85343 0.56608 0.0
C463 C 0.36058 1.02429 0.60296 0.0
C464 C 0.43228 0.99794 0.54428 0.0
C465 C 0.57376 1.03282 0.63388 0.0
C466 C 0.66009 1.04838 0.60176 0.0
C467 C 0.65266 1.06086 0.63662 0.0
C468 C 0.60986 1.05318 0.65246 0.0
C469 C 0.58113 1.0198 0.59922 0.0
C470 C 0.62384 1.02763 0.58327 0.0
C471 C 0.52831 1.02536 0.6502 0.0
H472 H 0.39901 0.7147 0.59183 0.0
H473 H 0.38957 0.79839 0.60005 0.0
H474 H 0.26377 0.79514 0.54128 0.0
H475 H 0.27179 0.71199 0.53372 0.0
H476 H 0.67966 0.07751 0.65146 0.0
H477 H 0.60488 0.06351 0.67909 0.0
H478 H 0.55371 1.0038 0.58443 0.0
H479 H 0.62857 1.01727 0.55653 0.0
Dy480 Dy 0.23097 0.40271 0.52387 0.0
Dy481 Dy 0.1669 0.47823 0.56001 0.0
C482 C 0.27473 0.49967 0.5476 0.0
O483 O 0.26214 0.40612 0.57759 0.0
O484 O 0.20831 0.45064 0.60592 0.0
O485 O 0.23138 0.34154 0.4913 0.0
O486 O 0.29466 0.36636 0.51407 0.0
O487 O 0.11994 0.42105 0.54055 0.0
O488 O 0.1712 0.36405 0.54856 0.0
O489 O 0.17899 0.50956 0.50762 0.0
O490 O 0.20363 0.44553 0.47788 0.0
O491 O 0.13179 0.54428 0.55877 0.0
O492 O 0.11962 0.49587 0.60094 0.0
C493 C 0.24726 0.42669 0.60598 0.0
O494 O 0.27608 0.4661 0.52443 0.0
O495 O 0.23739 0.50826 0.56591 0.0
C496 C 0.28163 0.2859 0.515 0.0
C497 C 0.298 0.19894 0.54669 0.0
C498 C 0.27841 0.23547 0.56574 0.0
C499 C 0.27019 0.27848 0.55001 0.0
C500 C 0.30061 0.24945 0.49584 0.0
C501 C 0.30873 0.20636 0.51147 0.0
C502 C 0.274 0.33175 0.49894 0.0
C503 C 0.12818 0.37677 0.54485 0.0
C504 C 0.18944 0.48932 0.47822 0.0
C505 C 1.05629 0.53768 0.58036 0.0
C506 C 0.95991 0.53339 0.58604 0.0
C507 C 0.98364 0.50001 0.56648 0.0
C508 C 1.03162 0.50223 0.56363 0.0
C509 C 1.03244 0.57415 0.59584 0.0
C510 C 0.98456 0.57237 0.59834 0.0
C511 C 0.10616 0.53378 0.58541 0.0
H512 H 0.2693 0.23074 0.59276 0.0
H513 H 0.25515 0.30613 0.56525 0.0
H514 H 0.30951 0.2544 0.46891 0.0
H515 H 0.3244 0.17914 0.49615 0.0
H516 H 0.96572 0.46983 0.55652 0.0
H517 H 1.04964 0.4744 0.55075 0.0
H518 H 1.05096 0.60213 0.60841 0.0
H519 H 0.96778 0.59885 0.61369 0.0
Dy520 Dy 0.96158 0.98284 0.27045 0.0
Dy521 Dy 0.88658 0.92037 0.30935 0.0
C522 C 0.86829 1.02988 0.2944 0.0
O523 O 0.95833 1.01753 0.32319 0.0
O524 O 0.92031 0.96046 0.35325 0.0
O525 O 1.02257 0.97963 0.23801 0.0
O526 O 0.99954 1.04539 0.25841 0.0
O527 O 0.94211 0.86986 0.29213 0.0
O528 O 0.99862 0.92315 0.29669 0.0
O529 O 0.85686 0.92253 0.25582 0.0
O530 O 0.91641 0.95658 0.22549 0.0
O531 O 0.87102 0.86787 0.34764 0.0
O532 O 0.81579 0.90021 0.31873 0.0
C533 C 0.94086 1.00143 0.35242 0.0
O534 O 0.90081 1.03034 0.27059 0.0
O535 O 0.86047 0.99298 0.31359 0.0
C536 C 0.07877 1.03011 0.26082 0.0
C537 C 0.16427 1.04667 0.29344 0.0
C538 C 0.12577 1.03233 0.31292 0.0
C539 C 0.08352 1.02403 0.29676 0.0
C540 C 0.11722 1.04337 0.24115 0.0
C541 C 0.1596 1.05173 0.25729 0.0
C542 C 1.03355 1.0227 0.2444 0.0
C543 C 0.98632 0.87935 0.29466 0.0
C544 C 0.87471 0.9373 0.22643 0.0
C545 C 0.80842 0.89881 0.37946 0.0
C546 C 0.77924 0.95072 0.43761 0.0
C547 C 0.82279 0.92936 0.43698 0.0
C548 C 0.83705 0.90375 0.40848 0.0
C549 C 0.76479 0.92004 0.37985 0.0
C550 C 0.75024 0.94562 0.40872 0.0
C551 C 0.82727 0.87865 0.34717 0.0
H552 H 0.1283 1.02744 0.34069 0.0
H553 H 1.05437 1.01315 0.31241 0.0
H554 H 0.11446 1.04759 0.21344 0.0
H555 H 0.18842 1.06317 0.24153 0.0
H556 H 0.84559 0.93081 0.45912 0.0
H557 H 0.87106 0.88842 0.40918 0.0
H558 H 0.74224 0.91749 0.3576 0.0
H559 H 0.71623 0.96096 0.40863 0.0
Dy560 Dy 0.37638 0.71219 1.0204 0.0
Dy561 Dy 0.44285 0.64055 1.05821 0.0
C562 C 0.33619 0.61431 1.0466 0.0
O563 O 0.34482 0.70966 1.07425 0.0
O564 O 0.40011 0.66805 1.10345 0.0
O565 O 0.37314 0.76876 0.98348 0.0
O566 O 0.31157 0.74652 1.01045 0.0
O567 O 0.48723 0.69906 1.03726 0.0
O568 O 0.43428 0.75473 1.04417 0.0
O569 O 0.43059 0.6056 1.00731 0.0
O570 O 0.40551 0.66798 0.97591 0.0
O571 O 0.48251 0.57716 1.05752 0.0
O572 O 0.48906 0.62536 1.10027 0.0
C573 C 0.36029 0.69048 1.10306 0.0
O574 O 0.33353 0.64721 1.02285 0.0
O575 O 0.37379 0.6077 1.06492 0.0
C576 C 0.32184 0.82709 1.00369 0.0
C577 C 0.30304 0.91336 1.03548 0.0
C578 C 0.26692 0.88471 1.02391 0.0
C579 C 0.27625 0.84213 1.00804 0.0
C580 C 0.35805 0.85649 1.01415 0.0
C581 C 0.34871 0.89934 1.02966 0.0
C582 C 0.3308 0.77907 0.99188 0.0
C583 C 0.47778 0.74315 1.04122 0.0
C584 C 0.41999 0.62439 0.97741 0.0
C585 C 0.55616 0.58852 1.08112 0.0
C586 C 0.65167 0.59933 1.08894 0.0
C587 C 0.62656 0.6317 1.06943 0.0
C588 C 0.57902 0.62616 1.06549 0.0
C589 C 0.58178 0.55329 1.09664 0.0
C590 C 0.62931 0.55835 1.1002 0.0
C591 C 0.50591 0.5888 1.0849 0.0
H592 H 0.23137 0.89502 1.02756 0.0
H593 H 0.24777 0.82018 1.00019 0.0
H594 H 0.39361 0.84582 1.01141 0.0
H595 H 0.3772 0.92068 1.03835 0.0
H596 H 0.64274 0.66345 1.0604 0.0
H597 H 0.55963 0.65302 1.05266 0.0
H598 H 0.5647 0.52367 1.10839 0.0
H599 H 0.6473 0.53268 1.11557 0.0
Dy600 Dy 0.65085 0.12814 0.77142 0.0
Dy601 Dy 0.72379 0.19444 0.80718 0.0
C602 C 0.74669 0.08579 0.7974 0.0
O603 O 0.65383 0.09778 0.82558 0.0
O604 O 0.69688 0.15327 0.8536 0.0
O605 O 0.58934 0.12578 0.7398 0.0
O606 O 0.61859 1.06235 0.75996 0.0
O607 O 0.66452 0.23972 0.7889 0.0
O608 O 0.60972 0.18576 0.79659 0.0
O609 O 0.75689 0.17932 0.75595 0.0
O610 O 0.69318 0.15709 0.72558 0.0
O611 O 0.78602 0.23544 0.8027 0.0
O612 O 0.7436 0.24004 0.84878 0.0
C613 C 0.67353 0.11366 0.85396 0.0
O614 O 0.71391 0.08373 0.77388 0.0
O615 O 0.75512 0.12415 0.81486 0.0
C616 C 0.53833 0.07059 0.7634 0.0
C617 C 0.45371 1.05165 0.79673 0.0
C618 C 0.49266 0.06411 0.81614 0.0
C619 C 0.53447 0.07369 0.79962 0.0
C620 C 0.49962 1.05828 0.74387 0.0
C621 C 0.45762 1.04878 0.76038 0.0
C622 C 0.58243 0.08188 0.74642 0.0
C623 C 0.62085 0.22966 0.79361 0.0
C624 C 0.73717 0.16983 0.72626 0.0
C625 C 0.77706 0.30875 0.82824 0.0
C626 C 0.7635 0.40414 0.83844 0.0
C627 C 0.73261 0.37873 0.8179 0.0
C628 C 0.73953 0.33126 0.81272 0.0
C629 C 0.8109 0.33498 0.84482 0.0
C630 C 0.8045 0.38249 0.84955 0.0
C631 C 0.77773 0.25803 0.83119 0.0
H632 H 0.49064 0.0672 0.84407 0.0
H633 H 0.56376 0.08386 0.81517 0.0
H634 H 0.50178 1.05626 0.71594 0.0
H635 H 0.4283 1.03879 0.74474 0.0
H636 H 0.70088 0.3944 0.80897 0.0
H637 H 0.71375 0.31152 0.799 0.0
H638 H 0.84038 0.31821 0.85656 0.0
H639 H 0.82903 0.40075 0.86569 0.0
C640 C 0.56492 0.26 0.35618 0.0
C641 C 0.51813 0.27319 0.35432 0.0
H642 H 0.63612 0.28103 0.35735 0.0
C643 C 0.50904 0.32129 0.3521 0.0
H644 H 0.57398 0.2237 0.35798 0.0
C645 C 0.54514 0.35464 0.35199 0.0
C646 C 0.59192 0.34134 0.35386 0.0
H647 H 0.47384 0.33338 0.35058 0.0
H648 H 0.53623 0.39105 0.35042 0.0
C649 C 0.60095 0.29324 0.35583 0.0
C650 C 0.54167 0.75802 0.60255 0.0
C651 C 0.5893 0.76822 0.60246 0.0
H652 H 0.47219 0.78386 0.60339 0.0
C653 C 0.60196 0.81562 0.60249 0.0
H654 H 0.53005 0.72226 0.60261 0.0
C655 C 0.56846 0.85127 0.60261 0.0
C656 C 0.52083 0.84106 0.60309 0.0
H657 H 0.63797 0.82539 0.60242 0.0
H658 H 0.58005 0.88704 0.60268 0.0
C659 C 0.50818 0.79366 0.60305 0.0
C660 C 1.04348 0.8552 0.85481 0.0
C661 C 0.09028 0.84175 0.85511 0.0
H662 H 0.97211 0.83421 0.85444 0.0
C663 C 0.09923 0.79353 0.85508 0.0
H664 H 1.0346 0.89167 0.85483 0.0
C665 C 0.06311 0.76032 0.85494 0.0
C666 C 1.01632 0.77373 0.85474 0.0
H667 H 0.13441 0.7812 0.85528 0.0
H668 H 0.07204 0.72385 0.85507 0.0
C669 C 1.00733 0.82195 0.85459 0.0
C670 C 0.09989 0.31512 1.10335 0.0
C671 C 0.08752 0.26768 1.10296 0.0
H672 H 0.07783 0.38636 1.10303 0.0
C673 C 1.03988 0.25733 1.10173 0.0
H674 H 0.13582 0.32509 1.1043 0.0
C675 C 1.00614 0.29289 1.10121 0.0
C676 C 1.01861 0.34033 1.10162 0.0
H677 H 1.02847 0.22151 1.10145 0.0
H678 H 0.97012 0.28307 1.10052 0.0
C679 C 0.06626 0.35059 1.10258 0.0
C680 C 0.54381 0.86034 1.04628 0.0
C681 C 0.59048 0.84683 1.04344 0.0
H682 H 0.47236 0.83934 1.04807 0.0
C683 C 0.59916 0.79889 1.03985 0.0
H684 H 0.53521 0.89669 1.04903 0.0
C685 C 0.56297 0.76596 1.03899 0.0
C686 C 0.51631 0.77923 1.04202 0.0
H687 H 0.6342 0.78655 1.03739 0.0
H688 H 0.57184 0.72984 1.03575 0.0
C689 C 0.50749 0.82721 1.0457 0.0
C690 C 0.53666 0.25721 0.79631 0.0
C691 C 0.5843 0.26764 0.79483 0.0
H692 H 0.46682 0.28281 0.79778 0.0
C693 C 0.5965 0.31514 0.79419 0.0
H694 H 0.52534 0.22136 0.79678 0.0
C695 C 0.56278 0.35054 0.79502 0.0
C696 C 0.51515 0.34021 0.79626 0.0
H697 H 0.63237 0.32524 0.793 0.0
H698 H 0.57428 0.38633 0.79439 0.0
C699 C 0.50282 0.29271 0.79687 0.0
C700 C 1.04245 0.3548 0.54533 0.0
C701 C 0.08924 0.34128 0.54479 0.0
H702 H 0.97104 0.33386 0.54533 0.0
C703 C 0.09827 0.2932 0.54367 0.0
H704 H 1.03356 0.39121 0.54621 0.0
C705 C 0.06215 0.26013 0.54279 0.0
C706 C 1.01535 0.27354 0.54338 0.0
H707 H 0.13349 0.28092 0.54309 0.0
H708 H 0.07117 0.22381 0.54156 0.0
C709 C 1.00628 0.32164 0.54482 0.0
C710 C 1.04468 0.75839 0.29558 0.0
C711 C 0.09232 0.76902 0.29584 0.0
H712 H 0.97472 0.78346 0.29494 0.0
C713 C 0.10435 0.81656 0.29606 0.0
H714 H 1.03344 0.72251 0.2953 0.0
C715 C 0.07031 0.85181 0.29598 0.0
C716 C 1.02267 0.84116 0.29552 0.0
H717 H 0.14029 0.82672 0.29621 0.0
H718 H 0.08154 0.88769 0.29604 0.0
C719 C 1.01066 0.79363 0.29535 0.0
C720 C 0.72662 0.0801 0.28098 0.0
C721 C 0.69304 0.11207 0.29154 0.0
H722 H 0.76152 1.05119 0.23738 0.0
C723 C 0.68656 0.15204 0.27116 0.0
H724 H 0.73371 1.04977 0.29669 0.0
C725 C 0.69979 0.1513 0.23638 0.0
C726 C 0.72111 0.11142 0.22299 0.0
H727 H 0.6627 0.17878 0.27926 0.0
H728 H 0.68552 0.17748 0.21938 0.0
C729 C 0.74179 0.08056 0.24662 0.0
C730 C 0.71882 0.93924 0.51956 0.0
C731 C 0.75857 0.94397 0.54007 0.0
H732 H 0.69441 0.93798 0.46755 0.0
C733 C 0.79243 0.97576 0.52916 0.0
H734 H 0.69059 0.91718 0.52791 0.0
C735 C 0.79398 0.98909 0.49435 0.0
C736 C 0.76215 0.9696 0.47103 0.0
H737 H 0.82239 0.98222 0.54514 0.0
H738 H 0.82478 1.00626 0.4848 0.0
C739 C 0.72097 0.95127 0.48454 0.0
C740 C 0.2377 0.08198 0.65303 0.0
C741 C 0.21647 0.11173 0.67716 0.0
H742 H 0.2312 1.05346 0.6022 0.0
C743 C 0.19468 0.15178 0.66443 0.0
H744 H 0.25776 1.05257 0.66181 0.0
C745 C 0.18186 0.15371 0.62964 0.0
C746 C 0.18923 0.1147 0.60853 0.0
H747 H 0.17989 0.1771 0.68187 0.0
H748 H 0.15764 0.18035 0.62198 0.0
C749 C 0.22322 0.08288 0.61855 0.0
C750 C 0.71071 0.4497 0.91439 0.0
C751 C 0.751 0.47057 0.92722 0.0
H752 H 0.68127 0.41411 0.87159 0.0
C753 C 0.78103 0.492 0.90327 0.0
H754 H 0.68528 0.43484 0.93177 0.0
C755 C 0.77965 0.4784 0.86857 0.0
C756 C 0.74722 0.445 0.85818 0.0
H757 H 0.81078 0.51133 0.91221 0.0
H758 H 0.80897 0.4864 0.85218 0.0
C759 C 0.70839 0.43775 0.87942 0.0
C760 C 0.21653 0.45384 0.98829 0.0
C761 C 0.2575 0.47215 0.97439 0.0
H762 H 0.18691 0.41956 1.03184 0.0
C763 C 0.28972 0.49159 0.99743 0.0
H764 H 0.18962 0.44071 0.97155 0.0
C765 C 0.28887 0.47795 1.03218 0.0
C766 C 0.25525 0.44605 1.04332 0.0
H767 H 0.32032 0.50883 0.9876 0.0
H768 H 0.31922 0.4842 1.0478 0.0
C769 C 0.21503 0.44163 1.0233 0.0
C770 C 0.31802 0.63298 0.53155 0.0
C771 C 0.35175 0.66458 0.54275 0.0
H772 H 0.28654 0.60271 0.48699 0.0
C773 C 0.39187 0.66945 0.52249 0.0
H774 H 0.28777 0.6264 0.54734 0.0
C775 C 0.39032 0.65777 0.48744 0.0
C776 C 0.3494 0.63952 0.47362 0.0
H777 H 0.42001 0.69135 0.53105 0.0
H778 H 0.41726 0.67113 0.47068 0.0
C779 C 0.31711 0.6199 0.49673 0.0
C780 C 0.8868 0.55715 0.61435 0.0
C781 C 0.91599 0.52105 0.60365 0.0
H782 H 0.85844 0.59105 0.65867 0.0
C783 C 0.91645 0.48012 0.62366 0.0
H784 H 0.88341 0.58815 0.59862 0.0
C785 C 0.90322 0.48218 0.65842 0.0
C786 C 0.8882 0.5246 0.6721 0.0
H787 H 0.93624 0.45028 0.61543 0.0
H788 H 0.91343 0.45406 0.67541 0.0
C789 C 0.87264 0.55888 0.64893 0.0
C790 C 0.74066 0.57771 1.15158 0.0
C791 C 0.72149 0.60838 1.17601 0.0
H792 H 0.7318 0.5503 1.10066 0.0
C793 C 0.70229 0.64997 1.16375 0.0
H794 H 0.75862 0.54681 1.16009 0.0
C795 C 0.68921 0.6532 1.12906 0.0
C796 C 0.69379 0.61403 1.10763 0.0
H797 H 0.6893 0.67587 1.18153 0.0
H798 H 0.66671 0.68152 1.12182 0.0
C799 C 0.72592 0.58003 1.1172 0.0
C800 C 0.25724 0.45208 0.31133 0.0
C801 C 0.29213 0.45109 0.33652 0.0
H802 H 0.21661 0.49362 0.27707 0.0
C803 C 0.31589 0.49234 0.34419 0.0
H804 H 0.23879 0.42066 0.30455 0.0
C805 C 0.30327 0.53416 0.32843 0.0
C806 C 0.26701 0.53555 0.30431 0.0
H807 H 0.34287 0.49264 0.36352 0.0
H808 H 0.3207 0.56575 0.33621 0.0
C809 C 0.24502 0.49379 0.29521 0.0
C810 C 0.36298 0.559 0.60438 0.0
C811 C 0.40422 0.5501 0.58654 0.0
H812 H 0.2899 0.55112 0.60578 0.0
C813 C 0.40197 0.52919 0.55366 0.0
H814 H 0.36345 0.57578 0.62946 0.0
C815 C 0.35959 0.51499 0.53989 0.0
C816 C 0.31853 0.52191 0.55855 0.0
H817 H 0.43316 0.52179 0.53927 0.0
H818 H 0.35921 0.49712 0.51523 0.0
C819 C 0.3207 0.54522 0.59054 0.0
C820 C 0.35379 0.65886 0.81714 0.0
C821 C 0.31746 0.65903 0.84131 0.0
H822 H 0.39589 0.61855 0.78301 0.0
C823 C 0.2928 0.61774 0.84722 0.0
H824 H 0.373 0.69035 0.81171 0.0
C825 C 0.30583 0.57659 0.83076 0.0
C826 C 0.34343 0.57595 0.80766 0.0
H827 H 0.26468 0.61681 0.86572 0.0
H828 H 0.28758 0.54486 0.83722 0.0
C829 C 0.36643 0.61785 0.80029 0.0
C830 C 0.25083 0.55107 1.10403 0.0
C831 C 0.20918 0.55812 1.08641 0.0
H832 H 0.32348 0.56226 1.10502 0.0
C833 C 0.21038 0.57914 1.05346 0.0
H834 H 0.25118 0.53429 1.12918 0.0
C835 C 0.25204 0.59527 1.03942 0.0
C836 C 0.29343 0.5902 1.05787 0.0
H837 H 0.17884 0.58518 1.03924 0.0
H838 H 0.25155 0.61316 1.01471 0.0
C839 C 0.2924 0.56679 1.08994 0.0
C840 C 0.86419 0.6188 1.1029 0.0
C841 C 0.84674 0.57623 1.09086 0.0
H842 H 0.8659 0.69279 1.09632 0.0
C843 C 0.81401 0.57673 1.06396 0.0
H844 H 0.88979 0.61977 1.12325 0.0
C845 C 0.80014 0.61848 1.0488 0.0
C846 C 0.81936 0.66072 1.05963 0.0
H847 H 0.79997 0.54467 1.05379 0.0
H848 H 0.77584 0.61751 1.02755 0.0
C849 C 0.85089 0.66058 1.08725 0.0
C850 C 0.74386 0.5529 0.79681 0.0
C851 C 0.70201 0.56231 0.81356 0.0
H852 H 0.81673 0.56111 0.79657 0.0
C853 C 0.70287 0.58485 0.84589 0.0
H854 H 0.74442 0.53479 0.77224 0.0
C855 C 0.74466 0.60017 0.86011 0.0
C856 C 0.78635 0.59274 0.8424 0.0
H857 H 0.67109 0.5926 0.85941 0.0
H858 H 0.74407 0.61934 0.88422 0.0
C859 C 0.78542 0.56778 0.81104 0.0
C860 C 0.76464 0.45491 0.58639 0.0
C861 C 0.79457 0.45453 0.55771 0.0
H862 H 0.72782 0.49573 0.62342 0.0
C863 C 0.81359 0.49671 0.54617 0.0
H864 H 0.74998 0.42282 0.59616 0.0
C865 C 0.80063 0.53867 0.56159 0.0
C866 C 0.76908 0.53934 0.58939 0.0
H867 H 0.83681 0.49747 0.52416 0.0
H868 H 0.81411 0.57071 0.55084 0.0
C869 C 0.75232 0.49675 0.60222 0.0
C870 C 0.82604 0.54823 0.31359 0.0
C871 C 0.82473 0.51832 0.3425 0.0
H872 H 0.86768 0.58356 0.27601 0.0
C873 C 0.86652 0.50421 0.35745 0.0
H874 H 0.79458 0.55996 0.30137 0.0
C875 C 0.90858 0.51777 0.34268 0.0
C876 C 0.90964 0.5455 0.31261 0.0
H877 H 0.86681 0.48091 0.37951 0.0
H878 H 0.94022 0.50485 0.3539 0.0
C879 C 0.86795 0.56144 0.29875 0.0
C880 C 0.81372 1.00007 0.85247 0.0
C881 C 0.79263 0.95786 0.84337 0.0
H882 H 0.81619 0.07377 0.84484 0.0
C883 C 0.76051 0.9576 0.8162 0.0
H884 H 0.83863 1.00129 0.87329 0.0
C885 C 0.74828 0.99883 0.79944 0.0
C886 C 0.76736 1.04157 0.80977 0.0
H887 H 0.74421 0.92548 0.80826 0.0
H888 H 0.72209 0.99732 0.77953 0.0
C889 C 0.80098 1.04154 0.83602 0.0
C890 C 0.86741 1.00215 1.04021 0.0
C891 C 0.82599 1.01934 1.05398 0.0
H892 H 0.94082 0.99876 1.04501 0.0
C893 C 0.82796 1.05074 1.08184 0.0
H894 H 0.86715 0.97755 1.01904 0.0
C895 C 0.87005 1.06255 1.09687 0.0
C896 C 0.91125 1.04349 1.08432 0.0
H897 H 0.79677 0.0648 1.0931 0.0
H898 H 0.87022 0.08604 1.11875 0.0
C899 C 0.90963 1.01414 1.05523 0.0
C900 C 0.86417 0.11707 0.29369 0.0
C901 C 0.84733 0.07424 0.30591 0.0
H902 H 0.86551 0.19099 0.30044 0.0
C903 C 0.81525 0.0742 0.33339 0.0
H904 H 0.88925 0.11848 0.27289 0.0
C905 C 0.80143 0.11569 0.3489 0.0
C906 C 0.82009 0.15817 0.33783 0.0
H907 H 0.80171 1.04192 0.34373 0.0
H908 H 0.77764 0.11434 0.37055 0.0
C909 C 0.85095 0.15857 0.30968 0.0
C910 C 0.74918 0.09331 0.53737 0.0
C911 C 0.79037 0.08726 0.55592 0.0
H912 H 0.67568 0.08556 0.53724 0.0
C913 C 0.78858 0.06428 0.58815 0.0
H914 H 0.74928 0.11087 0.51253 0.0
C915 C 0.7465 1.0502 0.60238 0.0
C916 C 0.7051 1.0584 0.58469 0.0
H917 H 0.81948 1.05902 0.6033 0.0
H918 H 0.74628 1.03387 0.62769 0.0
C919 C 0.70701 0.07875 0.55152 0.0
C920 C 0.29989 0.11184 0.54609 0.0
C921 C 0.3086 0.15366 0.56353 0.0
H922 H 0.30838 1.03831 0.54518 0.0
C923 C 0.32987 0.15195 0.59624 0.0
H924 H 0.2829 0.11188 0.52113 0.0
C925 C 0.34455 0.10956 0.61021 0.0
C926 C 0.33774 0.06793 0.59195 0.0
H927 H 0.33718 0.18359 0.61031 0.0
H928 H 0.3627 0.10964 0.6347 0.0
C929 C 0.31414 0.06954 0.56014 0.0
C930 C 0.2093 0.08318 0.34194 0.0
C931 C 0.20867 1.05778 0.31084 0.0
H932 H 0.25012 0.11879 0.37964 0.0
C933 C 0.25081 1.04488 0.29576 0.0
H934 H 0.17745 0.09395 0.35414 0.0
C935 C 0.29253 1.05888 0.31049 0.0
C936 C 0.29317 0.08645 0.34056 0.0
H937 H 0.25156 1.02466 0.27213 0.0
H938 H 0.32421 1.04983 0.29728 0.0
C939 C 0.25105 0.09741 0.3566 0.0
C940 C 0.24875 0.99799 1.09857 0.0
C941 C 0.26847 1.04055 1.08829 0.0
H942 H 0.24381 0.92479 1.08963 0.0
C943 C 0.30228 1.04034 1.06206 0.0
H944 H 0.22237 0.99667 1.11845 0.0
C945 C 0.31458 0.99889 1.04555 0.0
C946 C 0.29287 0.95691 1.05458 0.0
H947 H 0.31798 0.07245 1.0533 0.0
H948 H 0.33967 0.99999 1.02474 0.0
C949 C 0.26055 0.95678 1.08174 0.0
C950 C 0.36785 1.05867 0.80049 0.0
C951 C 0.40918 1.04169 0.81432 0.0
H952 H 0.29447 1.05924 0.80333 0.0
C953 C 0.4075 1.01433 0.84456 0.0
H954 H 0.36806 0.08059 0.77765 0.0
C955 C 0.36517 1.00217 0.85955 0.0
C956 C 0.3237 1.01729 0.84465 0.0
H957 H 0.43882 1.00062 0.85578 0.0
H958 H 0.36497 0.97909 0.88175 0.0
C959 C 0.32567 1.0468 0.81554 0.0
C960 C 0.28175 0.18356 0.26594 0.0
C961 C 0.33034 0.18162 0.26248 0.0
H962 H 0.21521 0.18015 0.2409 0.0
C963 C 0.34802 0.17457 0.22893 0.0
H964 H 0.26642 0.1879 0.29134 0.0
C965 C 0.31858 0.17084 0.19994 0.0
C966 C 0.27 0.17268 0.20322 0.0
H967 H 0.38488 0.17224 0.22495 0.0
H968 H 0.3342 0.16597 1.1747 0.0
C969 C 0.25211 0.17864 0.23693 0.0
C970 C 0.68357 0.56882 0.44843 0.0
C971 C 0.68515 0.5199 0.4518 0.0
H972 H 0.68031 0.63549 0.47362 0.0
C973 C 0.68295 0.50162 0.4857 0.0
H974 H 0.68563 0.5847 0.423 0.0
C975 C 0.67842 0.53113 0.51489 0.0
C976 C 0.67731 0.58007 0.5114 0.0
H977 H 0.68429 0.46443 0.48972 0.0
H978 H 0.677 0.51552 0.54044 0.0
C979 C 0.68049 0.59827 0.4776 0.0
C980 C 0.26522 0.93025 0.73173 0.0
C981 C 0.28357 0.92323 0.76507 0.0
H982 H 0.27778 0.94037 0.67746 0.0
C983 C 0.33225 0.92278 0.76792 0.0
H984 H 0.22826 0.93176 0.72816 0.0
C985 C 0.36128 0.92899 0.7385 0.0
C986 C 0.34264 0.93497 0.70504 0.0
H987 H 0.34807 0.91873 0.79313 0.0
H988 H 0.39828 0.92852 0.74195 0.0
C989 C 0.29401 0.93542 0.70243 0.0
C990 C 0.92876 0.54432 0.94882 0.0
C991 C 0.92699 0.5932 0.95204 0.0
H992 H 0.93358 0.47777 0.97414 0.0
C993 C 0.9307 0.61159 0.98577 0.0
H994 H 0.92548 0.52838 0.92355 0.0
C995 C 0.93688 0.58219 1.01495 0.0
C996 C 0.9383 0.53326 1.01162 0.0
H997 H 0.92928 0.64877 0.98965 0.0
H998 H 0.93923 0.59786 1.04037 0.0
C999 C 0.93357 0.51499 0.97799 0.0
C1000 C 0.79614 0.9317 1.19748 0.0
C1001 C 0.84473 0.93318 1.19418 0.0
H1002 H 0.72999 0.9281 1.17238 0.0
C1003 C 0.86285 0.9304 1.16027 0.0
H1004 H 0.78032 0.93432 0.22284 0.0
C1005 C 0.83351 0.92536 1.13106 0.0
C1006 C 0.78489 0.92413 1.13453 0.0
H1007 H 0.89977 0.93167 1.15627 0.0
H1008 H 0.849 0.9237 1.10554 0.0
C1009 C 0.76693 0.92799 1.16834 0.0
C1010 C 0.43117 0.61218 0.91186 0.0
C1011 C 0.42408 0.59401 0.94542 0.0
H1012 H 0.44211 0.59798 0.8576 0.0
C1013 C 0.42214 0.54511 0.9487 0.0
H1014 H 0.43283 0.64938 0.90797 0.0
C1015 C 0.4268 0.51558 0.91976 0.0
C1016 C 0.43488 0.53353 0.88631 0.0
H1017 H 0.41631 0.52937 0.97386 0.0
H1018 H 0.42407 0.47843 0.92368 0.0
C1019 C 0.437 0.58246 0.88291 0.0
C1020 C 0.81565 0.17183 0.69671 0.0
C1021 C 0.76704 0.17313 0.6938 0.0
H1022 H 0.88177 0.17382 0.67123 0.0
C1023 C 0.7489 0.17883 0.66017 0.0
H1024 H 0.8315 0.16721 0.72185 0.0
C1025 C 0.77832 0.18395 0.6309 0.0
C1026 C 0.82695 0.1825 0.634 0.0
H1027 H 0.71196 0.17994 0.65647 0.0
H1028 H 0.76282 0.18801 0.60558 0.0
C1029 C 0.84486 0.17577 0.66749 0.0
C1030 C 0.18648 0.56758 0.44782 0.0
C1031 C 0.18552 0.51857 0.44547 0.0
H1032 H 0.18365 0.63353 0.42165 0.0
C1033 C 0.17945 0.49942 0.41216 0.0
H1034 H 0.19149 0.58417 0.47269 0.0
C1035 C 0.17371 0.5283 0.38259 0.0
C1036 C 0.17476 0.57736 0.38513 0.0
H1037 H 0.17857 0.4621 0.40894 0.0
H1038 H 0.16949 0.51207 0.35751 0.0
C1039 C 0.18177 0.59625 0.41833 0.0
C1040 C 0.74745 0.6811 0.73676 0.0
C1041 C 0.7666 0.67604 0.70331 0.0
H1042 H 0.7597 0.69138 0.79144 0.0
C1043 C 0.81526 0.67754 0.70082 0.0
H1044 H 0.71042 0.68009 0.74016 0.0
C1045 C 0.84355 0.68348 0.7302 0.0
C1046 C 0.82463 0.6895 0.76353 0.0
H1047 H 0.83194 0.67358 0.67587 0.0
H1048 H 0.88058 0.68335 0.72671 0.0
C1049 C 0.77592 0.68815 0.76626 0.0
C1050 C 0.18037 1.00265 0.98742 0.0
C1051 C 0.18333 1.02081 0.95353 0.0
H1052 H 0.1739 1.01679 1.04204 0.0
C1053 C 0.18262 0.06973 0.95003 0.0
H1054 H 0.181 0.96545 0.99149 0.0
C1055 C 0.1797 0.09932 0.97911 0.0
C1056 C 0.17583 0.08125 1.0129 0.0
H1057 H 0.18527 0.08547 0.92459 0.0
H1058 H 0.18023 0.13652 0.97507 0.0
C1059 C 0.17598 1.03231 1.0165 0.0
C1060 C 0.79517 0.43114 0.19956 0.0
C1061 C 0.84377 0.43298 0.20238 0.0
H1062 H 0.72935 0.42648 0.22528 0.0
C1063 C 0.8623 0.42973 0.23608 0.0
H1064 H 0.77904 0.43406 1.17438 0.0
C1065 C 0.83333 0.42393 0.26555 0.0
C1066 C 0.7847 0.42232 0.26256 0.0
H1067 H 0.89925 0.43124 0.23971 0.0
H1068 H 0.84912 0.42197 0.29091 0.0
C1069 C 0.76633 0.42661 0.22896 0.0
C1070 C 0.43171 0.07827 0.51583 0.0
C1071 C 0.43033 1.0293 0.51264 0.0
H1072 H 0.42806 0.14512 0.49036 0.0
C1073 C 0.42412 1.01118 0.47915 0.0
H1074 H 0.43543 0.09389 0.54118 0.0
C1075 C 0.42069 1.04064 0.44994 0.0
C1076 C 0.42195 0.0896 0.45298 0.0
H1077 H 0.42228 0.97398 0.47539 0.0
H1078 H 0.4165 1.02474 0.42474 0.0
C1079 C 0.42703 0.1079 0.48662 0.0
C1080 C 0.35647 0.43301 0.66322 0.0
C1081 C 0.33843 0.43531 0.69714 0.0
H1082 H 0.34248 0.42719 0.60849 0.0
C1083 C 0.28983 0.43416 0.70051 0.0
H1084 H 0.39339 0.43403 0.65917 0.0
C1085 C 0.2605 0.43131 0.67137 0.0
C1086 C 0.27844 0.42793 0.63756 0.0
H1087 H 0.27411 0.4363 0.72594 0.0
H1088 H 0.22357 0.4314 0.6754 0.0
C1089 C 0.32705 0.42871 0.63405 0.0
C1090 C 0.93158 0.1108 0.41024 0.0
C1091 C 0.92441 0.0919 0.44359 0.0
H1092 H 0.94366 0.09773 0.3559 0.0
C1093 C 0.92371 1.04291 0.44636 0.0
H1094 H 0.93228 0.14809 0.40671 0.0
C1095 C 0.92974 1.01401 0.41722 0.0
C1096 C 0.93792 1.03266 0.38401 0.0
H1097 H 0.9179 1.02653 0.47129 0.0
H1098 H 0.92796 0.97675 0.42082 0.0
C1099 C 0.93867 0.08169 0.38104 0.0
C1100 C 0.25152 0.68087 1.16105 0.0
C1101 C 0.26979 0.67959 1.19489 0.0
H1102 H 0.26503 0.68658 1.10615 0.0
C1103 C 0.31832 0.68284 1.1979 0.0
H1104 H 0.21466 0.6782 1.15726 0.0
C1105 C 0.34735 0.68664 1.16853 0.0
C1106 C 0.32917 0.68885 1.1348 0.0
H1107 H 0.33427 0.68155 0.22322 0.0
H1108 H 0.38428 0.68805 1.17233 0.0
C1109 C 0.28061 0.68606 1.13162 0.0
C1110 C 0.68277 0.07202 0.94871 0.0
C1111 C 0.68388 1.02306 0.94572 0.0
H1112 H 0.67944 0.13846 0.92301 0.0
C1113 C 0.6806 1.00446 0.91204 0.0
H1114 H 0.68562 0.08811 0.97395 0.0
C1115 C 0.67556 1.03372 0.8827 0.0
C1116 C 0.67501 0.0827 0.88579 0.0
H1117 H 0.6815 0.96723 0.90833 0.0
H1118 H 0.67332 1.01787 0.85734 0.0
C1119 C 0.67917 0.10121 0.91935 0.0
loop_
_geom_bond_atom_site_label_1
_geom_bond_atom_site_label_2
_geom_bond_distance
_geom_bond_site_symmetry_2
_ccdc_geom_bond_type
Dy0 O3 2.307 . S
Dy0 O5 2.395 . S
Dy0 O6 2.379 . S
Dy0 O8 2.339 . S
Dy0 O10 2.298 . S
Dy0 O14 2.275 . S
Dy0 C22 2.738 . S
Dy1 O4 2.298 . S
Dy1 O7 2.275 . S
Dy1 O9 2.307 . S
Dy1 O11 2.395 . S
Dy1 O12 2.379 . S
Dy1 O15 2.339 . S
Dy1 C31 2.738 . S
C2 O14 1.254 . S
C2 O15 1.257 . S
O3 Dy0 2.307 . S
O3 C13 1.266 . S
O4 Dy1 2.298 . S
O4 C13 1.236 . S
O5 Dy0 2.395 . S
O5 C22 1.255 . S
O6 Dy0 2.379 . S
O6 C22 1.249 . S
O7 Dy1 2.275 . S
O7 C23 1.254 . S
O8 Dy0 2.339 . S
O8 C23 1.257 . S
O9 Dy1 2.307 . S
O9 C24 1.266 . S
O10 Dy0 2.298 . S
O10 C24 1.236 . S
O11 Dy1 2.395 . S
O11 C31 1.255 . S
O12 Dy1 2.379 . S
O12 C31 1.249 . S
C13 O3 1.266 . S
C13 O4 1.236 . S
O14 Dy0 2.275 . S
O14 C2 1.254 . S
O15 Dy1 2.339 . S
O15 C2 1.257 . S
C16 C19 1.344 . S
C16 C20 1.328 1_545 S
C16 C22 1.516 . S
C17 C18 1.304 1_565 S
C17 C21 1.323 . S
C18 C17 1.304 1_545 S
C18 C19 1.371 . S
C18 H32 0.930 1_554 S
C19 C16 1.344 . S
C19 C18 1.371 . S
C19 H33 0.931 . S
C20 C16 1.328 1_565 S
C20 C21 1.433 . S
C20 H34 0.931 . S
C21 C17 1.323 . S
C21 C20 1.433 . S
C21 H35 0.933 . S
C22 Dy0 2.738 . S
C22 O5 1.255 . S
C22 O6 1.249 . S
C22 C16 1.516 . S
C23 O7 1.254 . S
C23 O8 1.257 . S
C24 O9 1.266 . S
C24 O10 1.236 . S
C25 C28 1.344 . S
C25 C29 1.328 . S
C25 C31 1.516 . S
C26 C27 1.304 . S
C26 C30 1.323 . S
C27 C26 1.304 . S
C27 C28 1.371 . S
C27 H36 0.930 . S
C28 C25 1.344 . S
C28 C27 1.371 . S
C28 H37 0.931 . S
C29 C25 1.328 . S
C29 C30 1.433 . S
C29 H38 0.931 . S
C30 C26 1.323 . S
C30 C29 1.433 . S
C30 H39 0.933 . S
C31 Dy1 2.738 . S
C31 O11 1.255 . S
C31 O12 1.249 . S
C31 C25 1.516 . S
H32 C18 0.930 1_556 S
H33 C19 0.931 . S
H34 C20 0.931 . S
H35 C21 0.933 . S
H36 C27 0.930 . S
H37 C28 0.931 . S
H38 C29 0.931 . S
H39 C30 0.933 . S
Dy40 O43 2.307 . S
Dy40 O45 2.395 . S
Dy40 O46 2.379 . S
Dy40 O48 2.339 . S
Dy40 O50 2.298 . S
Dy40 O54 2.275 . S
Dy40 C62 2.738 . S
Dy41 O44 2.298 . S
Dy41 O47 2.275 . S
Dy41 O49 2.307 . S
Dy41 O51 2.395 . S
Dy41 O52 2.379 . S
Dy41 O55 2.339 . S
Dy41 C71 2.738 . S
C42 O54 1.254 . S
C42 O55 1.257 . S
O43 Dy40 2.307 . S
O43 C53 1.266 . S
O44 Dy41 2.298 . S
O44 C53 1.236 . S
O45 Dy40 2.395 . S
O45 C62 1.255 . S
O46 Dy40 2.379 . S
O46 C62 1.249 . S
O47 Dy41 2.275 . S
O47 C63 1.254 . S
O48 Dy40 2.339 . S
O48 C63 1.257 . S
O49 Dy41 2.307 . S
O49 C64 1.266 . S
O50 Dy40 2.298 . S
O50 C64 1.236 . S
O51 Dy41 2.395 . S
O51 C71 1.255 . S
O52 Dy41 2.379 . S
O52 C71 1.249 . S
C53 O43 1.266 . S
C53 O44 1.236 . S
O54 Dy40 2.275 . S
O54 C42 1.254 . S
O55 Dy41 2.339 . S
O55 C42 1.257 . S
C56 C59 1.344 . S
C56 C60 1.328 . S
C56 C62 1.516 . S
C57 C58 1.304 . S
C57 C61 1.323 . S
C58 C57 1.304 . S
C58 C59 1.371 . S
C58 H72 0.930 . S
C59 C56 1.344 . S
C59 C58 1.371 . S
C59 H73 0.931 . S
C60 C56 1.328 . S
C60 C61 1.433 . S
C60 H74 0.931 . S
C61 C57 1.323 . S
C61 C60 1.433 . S
C61 H75 0.933 . S
C62 Dy40 2.738 . S
C62 O45 1.255 . S
C62 O46 1.249 . S
C62 C56 1.516 . S
C63 O47 1.254 . S
C63 O48 1.257 . S
C64 O49 1.266 . S
C64 O50 1.236 . S
C65 C68 1.344 . S
C65 C69 1.328 . S
C65 C71 1.516 . S
C66 C67 1.304 . S
C66 C70 1.323 . S
C67 C66 1.304 . S
C67 C68 1.371 . S
C67 H76 0.930 . S
C68 C65 1.344 . S
C68 C67 1.371 . S
C68 H77 0.931 . S
C69 C65 1.328 . S
C69 C70 1.433 . S
C69 H78 0.931 . S
C70 C66 1.323 . S
C70 C69 1.433 . S
C70 H79 0.933 . S
C71 Dy41 2.738 . S
C71 O51 1.255 . S
C71 O52 1.249 . S
C71 C65 1.516 . S
H72 C58 0.930 . S
H73 C59 0.931 . S
H74 C60 0.931 . S
H75 C61 0.933 . S
H76 C67 0.930 . S
H77 C68 0.931 . S
H78 C69 0.931 . S
H79 C70 0.933 . S
Dy80 O83 2.307 . S
Dy80 O85 2.395 . S
Dy80 O86 2.379 . S
Dy80 O88 2.339 . S
Dy80 O90 2.298 . S
Dy80 O94 2.275 . S
Dy80 C102 2.738 . S
Dy81 O84 2.298 . S
Dy81 O87 2.275 . S
Dy81 O89 2.307 . S
Dy81 O91 2.395 . S
Dy81 O92 2.379 . S
Dy81 O95 2.339 . S
Dy81 C111 2.738 . S
C82 O94 1.254 . S
C82 O95 1.257 . S
O83 Dy80 2.307 . S
O83 C93 1.266 . S
O84 Dy81 2.298 . S
O84 C93 1.236 . S
O85 Dy80 2.395 . S
O85 C102 1.255 . S
O86 Dy80 2.379 . S
O86 C102 1.249 . S
O87 Dy81 2.275 . S
O87 C103 1.254 . S
O88 Dy80 2.339 . S
O88 C103 1.257 . S
O89 Dy81 2.307 . S
O89 C104 1.266 . S
O90 Dy80 2.298 . S
O90 C104 1.236 . S
O91 Dy81 2.395 . S
O91 C111 1.255 . S
O92 Dy81 2.379 . S
O92 C111 1.249 . S
C93 O83 1.266 . S
C93 O84 1.236 . S
O94 Dy80 2.275 . S
O94 C82 1.254 . S
O95 Dy81 2.339 . S
O95 C82 1.257 . S
C96 C99 1.344 . S
C96 C100 1.328 1_565 S
C96 C102 1.516 . S
C97 C98 1.304 1_545 S
C97 C101 1.323 . S
C98 C97 1.304 1_565 S
C98 C99 1.371 . S
C98 H112 0.930 . S
C99 C96 1.344 . S
C99 C98 1.371 . S
C99 H113 0.931 . S
C100 C96 1.328 1_545 S
C100 C101 1.433 . S
C100 H114 0.931 . S
C101 C97 1.323 . S
C101 C100 1.433 . S
C101 H115 0.933 . S
C102 Dy80 2.738 . S
C102 O85 1.255 . S
C102 O86 1.249 . S
C102 C96 1.516 . S
C103 O87 1.254 . S
C103 O88 1.257 . S
C104 O89 1.266 . S
C104 O90 1.236 . S
C105 C108 1.344 . S
C105 C109 1.328 . S
C105 C111 1.516 . S
C106 C107 1.304 . S
C106 C110 1.323 . S
C107 C106 1.304 . S
C107 C108 1.371 . S
C107 H116 0.930 . S
C108 C105 1.344 . S
C108 C107 1.371 . S
C108 H117 0.931 . S
C109 C105 1.328 . S
C109 C110 1.433 . S
C109 H118 0.931 . S
C110 C106 1.323 . S
C110 C109 1.433 . S
C110 H119 0.933 . S
C111 Dy81 2.738 . S
C111 O91 1.255 . S
C111 O92 1.249 . S
C111 C105 1.516 . S
H112 C98 0.930 . S
H113 C99 0.931 . S
H114 C100 0.931 . S
H115 C101 0.933 . S
H116 C107 0.930 . S
H117 C108 0.931 . S
H118 C109 0.931 . S
H119 C110 0.933 . S
Dy120 O123 2.307 . S
Dy120 O125 2.395 . S
Dy120 O126 2.379 . S
Dy120 O128 2.339 . S
Dy120 O130 2.298 . S
Dy120 O134 2.275 . S
Dy120 C142 2.738 . S
Dy121 O124 2.298 . S
Dy121 O127 2.275 . S
Dy121 O129 2.307 . S
Dy121 O131 2.395 . S
Dy121 O132 2.379 1_655 S
Dy121 O135 2.339 . S
Dy121 C151 2.738 1_655 S
C122 O134 1.254 . S
C122 O135 1.257 . S
O123 Dy120 2.307 . S
O123 C133 1.266 . S
O124 Dy121 2.298 . S
O124 C133 1.236 . S
O125 Dy120 2.395 . S
O125 C142 1.255 . S
O126 Dy120 2.379 . S
O126 C142 1.249 . S
O127 Dy121 2.275 . S
O127 C143 1.254 . S
O128 Dy120 2.339 . S
O128 C143 1.257 . S
O129 Dy121 2.307 . S
O129 C144 1.266 . S
O130 Dy120 2.298 . S
O130 C144 1.236 . S
O131 Dy121 2.395 . S
O131 C151 1.255 1_655 S
O132 Dy121 2.379 1_455 S
O132 C151 1.249 . S
C133 O123 1.266 . S
C133 O124 1.236 . S
O134 Dy120 2.275 . S
O134 C122 1.254 . S
O135 Dy121 2.339 . S
O135 C122 1.257 . S
C136 C139 1.344 . S
C136 C140 1.328 . S
C136 C142 1.516 . S
C137 C138 1.304 . S
C137 C141 1.323 . S
C138 C137 1.304 . S
C138 C139 1.371 . S
C138 H152 0.930 . S
C139 C136 1.344 . S
C139 C138 1.371 . S
C139 H153 0.931 . S
C140 C136 1.328 . S
C140 C141 1.433 . S
C140 H154 0.931 . S
C141 C137 1.323 . S
C141 C140 1.433 . S
C141 H155 0.933 . S
C142 Dy120 2.738 . S
C142 O125 1.255 . S
C142 O126 1.249 . S
C142 C136 1.516 . S
C143 O127 1.254 . S
C143 O128 1.257 . S
C144 O129 1.266 . S
C144 O130 1.236 . S
C145 C148 1.344 . S
C145 C149 1.328 . S
C145 C151 1.516 . S
C146 C147 1.304 . S
C146 C150 1.323 . S
C147 C146 1.304 . S
C147 C148 1.371 . S
C147 H156 0.930 . S
C148 C145 1.344 . S
C148 C147 1.371 . S
C148 H157 0.931 1_455 S
C149 C145 1.328 . S
C149 C150 1.433 . S
C149 H158 0.931 . S
C150 C146 1.323 . S
C150 C149 1.433 . S
C150 H159 0.933 . S
C151 Dy121 2.738 1_455 S
C151 O131 1.255 1_455 S
C151 O132 1.249 . S
C151 C145 1.516 . S
H152 C138 0.930 . S
H153 C139 0.931 . S
H154 C140 0.931 . S
H155 C141 0.933 . S
H156 C147 0.930 . S
H157 C148 0.931 1_655 S
H158 C149 0.931 . S
H159 C150 0.933 . S
Dy160 O163 2.307 . S
Dy160 O165 2.395 . S
Dy160 O166 2.379 . S
Dy160 O168 2.339 . S
Dy160 O170 2.298 . S
Dy160 O174 2.275 . S
Dy160 C182 2.738 . S
Dy161 O164 2.298 . S
Dy161 O167 2.275 . S
Dy161 O169 2.307 . S
Dy161 O171 2.395 . S
Dy161 O172 2.379 . S
Dy161 O175 2.339 . S
Dy161 C191 2.738 . S
C162 O174 1.254 . S
C162 O175 1.257 . S
O163 Dy160 2.307 . S
O163 C173 1.266 . S
O164 Dy161 2.298 . S
O164 C173 1.236 . S
O165 Dy160 2.395 . S
O165 C182 1.255 . S
O166 Dy160 2.379 . S
O166 C182 1.249 . S
O167 Dy161 2.275 . S
O167 C183 1.254 . S
O168 Dy160 2.339 . S
O168 C183 1.257 . S
O169 Dy161 2.307 . S
O169 C184 1.266 . S
O170 Dy160 2.298 . S
O170 C184 1.236 . S
O171 Dy161 2.395 . S
O171 C191 1.255 . S
O172 Dy161 2.379 . S
O172 C191 1.249 . S
C173 O163 1.266 . S
C173 O164 1.236 . S
O174 Dy160 2.275 . S
O174 C162 1.254 . S
O175 Dy161 2.339 . S
O175 C162 1.257 . S
C176 C179 1.344 . S
C176 C180 1.328 . S
C176 C182 1.516 . S
C177 C178 1.304 . S
C177 C181 1.323 . S
C178 C177 1.304 . S
C178 C179 1.371 . S
C178 H192 0.930 . S
C179 C176 1.344 . S
C179 C178 1.371 . S
C179 H193 0.931 . S
C180 C176 1.328 . S
C180 C181 1.433 . S
C180 H194 0.931 . S
C181 C177 1.323 . S
C181 C180 1.433 . S
C181 H195 0.933 . S
C182 Dy160 2.738 . S
C182 O165 1.255 . S
C182 O166 1.249 . S
C182 C176 1.516 . S
C183 O167 1.254 . S
C183 O168 1.257 . S
C184 O169 1.266 . S
C184 O170 1.236 . S
C185 C188 1.344 . S
C185 C189 1.328 1_565 S
C185 C191 1.516 . S
C186 C187 1.304 1_545 S
C186 C190 1.323 . S
C187 C186 1.304 1_565 S
C187 C188 1.371 . S
C187 H196 0.930 1_556 S
C188 C185 1.344 . S
C188 C187 1.371 . S
C188 H197 0.931 . S
C189 C185 1.328 1_545 S
C189 C190 1.433 . S
C189 H198 0.931 . S
C190 C186 1.323 . S
C190 C189 1.433 . S
C190 H199 0.933 . S
C191 Dy161 2.738 . S
C191 O171 1.255 . S
C191 O172 1.249 . S
C191 C185 1.516 . S
H192 C178 0.930 . S
H193 C179 0.931 . S
H194 C180 0.931 . S
H195 C181 0.933 . S
H196 C187 0.930 1_554 S
H197 C188 0.931 . S
H198 C189 0.931 . S
H199 C190 0.933 . S
Dy200 O203 2.307 . S
Dy200 O205 2.395 . S
Dy200 O206 2.379 . S
Dy200 O208 2.339 . S
Dy200 O210 2.298 . S
Dy200 O214 2.275 . S
Dy200 C222 2.738 . S
Dy201 O204 2.298 . S
Dy201 O207 2.275 . S
Dy201 O209 2.307 . S
Dy201 O211 2.395 . S
Dy201 O212 2.379 . S
Dy201 O215 2.339 . S
Dy201 C231 2.738 . S
C202 O214 1.254 . S
C202 O215 1.257 . S
O203 Dy200 2.307 . S
O203 C213 1.266 . S
O204 Dy201 2.298 . S
O204 C213 1.236 . S
O205 Dy200 2.395 . S
O205 C222 1.255 . S
O206 Dy200 2.379 . S
O206 C222 1.249 . S
O207 Dy201 2.275 . S
O207 C223 1.254 . S
O208 Dy200 2.339 . S
O208 C223 1.257 . S
O209 Dy201 2.307 . S
O209 C224 1.266 . S
O210 Dy200 2.298 . S
O210 C224 1.236 . S
O211 Dy201 2.395 . S
O211 C231 1.255 . S
O212 Dy201 2.379 . S
O212 C231 1.249 . S
C213 O203 1.266 . S
C213 O204 1.236 . S
O214 Dy200 2.275 . S
O214 C202 1.254 . S
O215 Dy201 2.339 . S
O215 C202 1.257 . S
C216 C219 1.344 . S
C216 C220 1.328 . S
C216 C222 1.516 . S
C217 C218 1.304 . S
C217 C221 1.323 . S
C218 C217 1.304 . S
C218 C219 1.371 . S
C218 H232 0.930 . S
C219 C216 1.344 . S
C219 C218 1.371 . S
C219 H233 0.931 . S
C220 C216 1.328 . S
C220 C221 1.433 . S
C220 H234 0.931 . S
C221 C217 1.323 . S
C221 C220 1.433 . S
C221 H235 0.933 . S
C222 Dy200 2.738 . S
C222 O205 1.255 . S
C222 O206 1.249 . S
C222 C216 1.516 . S
C223 O207 1.254 . S
C223 O208 1.257 . S
C224 O209 1.266 . S
C224 O210 1.236 . S
C225 C228 1.344 . S
C225 C229 1.328 . S
C225 C231 1.516 . S
C226 C227 1.304 . S
C226 C230 1.323 . S
C227 C226 1.304 . S
C227 C228 1.371 . S
C227 H236 0.930 . S
C228 C225 1.344 . S
C228 C227 1.371 . S
C228 H237 0.931 . S
C229 C225 1.328 . S
C229 C230 1.433 . S
C229 H238 0.931 . S
C230 C226 1.323 . S
C230 C229 1.433 . S
C230 H239 0.933 . S
C231 Dy201 2.738 . S
C231 O211 1.255 . S
C231 O212 1.249 . S
C231 C225 1.516 . S
H232 C218 0.930 . S
H233 C219 0.931 . S
H234 C220 0.931 . S
H235 C221 0.933 . S
H236 C227 0.930 . S
H237 C228 0.931 . S
H238 C229 0.931 . S
H239 C230 0.933 . S
Dy240 O243 2.307 . S
Dy240 O245 2.395 . S
Dy240 O246 2.379 . S
Dy240 O248 2.339 . S
Dy240 O250 2.298 . S
Dy240 O254 2.275 . S
Dy240 C262 2.738 . S
Dy241 O244 2.298 . S
Dy241 O247 2.275 . S
Dy241 O249 2.307 . S
Dy241 O251 2.395 . S
Dy241 O252 2.379 . S
Dy241 O255 2.339 . S
Dy241 C271 2.738 . S
C242 O254 1.254 . S
C242 O255 1.257 . S
O243 Dy240 2.307 . S
O243 C253 1.266 . S
O244 Dy241 2.298 . S
O244 C253 1.236 . S
O245 Dy240 2.395 . S
O245 C262 1.255 . S
O246 Dy240 2.379 . S
O246 C262 1.249 . S
O247 Dy241 2.275 . S
O247 C263 1.254 . S
O248 Dy240 2.339 . S
O248 C263 1.257 . S
O249 Dy241 2.307 . S
O249 C264 1.266 . S
O250 Dy240 2.298 . S
O250 C264 1.236 . S
O251 Dy241 2.395 . S
O251 C271 1.255 . S
O252 Dy241 2.379 . S
O252 C271 1.249 . S
C253 O243 1.266 . S
C253 O244 1.236 . S
O254 Dy240 2.275 . S
O254 C242 1.254 . S
O255 Dy241 2.339 . S
O255 C242 1.257 . S
C256 C259 1.344 . S
C256 C260 1.328 . S
C256 C262 1.516 . S
C257 C258 1.304 . S
C257 C261 1.323 . S
C258 C257 1.304 . S
C258 C259 1.371 . S
C258 H272 0.930 . S
C259 C256 1.344 . S
C259 C258 1.371 . S
C259 H273 0.931 . S
C260 C256 1.328 . S
C260 C261 1.433 . S
C260 H274 0.931 . S
C261 C257 1.323 . S
C261 C260 1.433 . S
C261 H275 0.933 . S
C262 Dy240 2.738 . S
C262 O245 1.255 . S
C262 O246 1.249 . S
C262 C256 1.516 . S
C263 O247 1.254 . S
C263 O248 1.257 . S
C264 O249 1.266 . S
C264 O250 1.236 . S
C265 C268 1.344 . S
C265 C269 1.328 1_545 S
C265 C271 1.516 . S
C266 C267 1.304 1_565 S
C266 C270 1.323 . S
C267 C266 1.304 1_545 S
C267 C268 1.371 . S
C267 H276 0.930 . S
C268 C265 1.344 . S
C268 C267 1.371 . S
C268 H277 0.931 . S
C269 C265 1.328 1_565 S
C269 C270 1.433 . S
C269 H278 0.931 . S
C270 C266 1.323 . S
C270 C269 1.433 . S
C270 H279 0.933 . S
C271 Dy241 2.738 . S
C271 O251 1.255 . S
C271 O252 1.249 . S
C271 C265 1.516 . S
H272 C258 0.930 . S
H273 C259 0.931 . S
H274 C260 0.931 . S
H275 C261 0.933 . S
H276 C267 0.930 . S
H277 C268 0.931 . S
H278 C269 0.931 . S
H279 C270 0.933 . S
Dy280 O283 2.307 . S
Dy280 O285 2.395 . S
Dy280 O286 2.379 1_455 S
Dy280 O288 2.339 . S
Dy280 O290 2.298 . S
Dy280 O294 2.275 . S
Dy280 C302 2.738 1_455 S
Dy281 O284 2.298 . S
Dy281 O287 2.275 . S
Dy281 O289 2.307 . S
Dy281 O291 2.395 . S
Dy281 O292 2.379 . S
Dy281 O295 2.339 . S
Dy281 C311 2.738 . S
C282 O294 1.254 . S
C282 O295 1.257 . S
O283 Dy280 2.307 . S
O283 C293 1.266 . S
O284 Dy281 2.298 . S
O284 C293 1.236 . S
O285 Dy280 2.395 . S
O285 C302 1.255 1_455 S
O286 Dy280 2.379 1_655 S
O286 C302 1.249 . S
O287 Dy281 2.275 . S
O287 C303 1.254 . S
O288 Dy280 2.339 . S
O288 C303 1.257 . S
O289 Dy281 2.307 . S
O289 C304 1.266 . S
O290 Dy280 2.298 . S
O290 C304 1.236 . S
O291 Dy281 2.395 . S
O291 C311 1.255 . S
O292 Dy281 2.379 . S
O292 C311 1.249 . S
C293 O283 1.266 . S
C293 O284 1.236 . S
O294 Dy280 2.275 . S
O294 C282 1.254 . S
O295 Dy281 2.339 . S
O295 C282 1.257 . S
C296 C299 1.344 . S
C296 C300 1.328 . S
C296 C302 1.516 . S
C297 C298 1.304 . S
C297 C301 1.323 . S
C298 C297 1.304 . S
C298 C299 1.371 . S
C298 H312 0.930 . S
C299 C296 1.344 . S
C299 C298 1.371 . S
C299 H313 0.931 1_655 S
C300 C296 1.328 . S
C300 C301 1.433 . S
C300 H314 0.931 . S
C301 C297 1.323 . S
C301 C300 1.433 . S
C301 H315 0.933 . S
C302 Dy280 2.738 1_655 S
C302 O285 1.255 1_655 S
C302 O286 1.249 . S
C302 C296 1.516 . S
C303 O287 1.254 . S
C303 O288 1.257 . S
C304 O289 1.266 . S
C304 O290 1.236 . S
C305 C308 1.344 . S
C305 C309 1.328 . S
C305 C311 1.516 . S
C306 C307 1.304 . S
C306 C310 1.323 . S
C307 C306 1.304 . S
C307 C308 1.371 . S
C307 H316 0.930 . S
C308 C305 1.344 . S
C308 C307 1.371 . S
C308 H317 0.931 . S
C309 C305 1.328 . S
C309 C310 1.433 . S
C309 H318 0.931 . S
C310 C306 1.323 . S
C310 C309 1.433 . S
C310 H319 0.933 . S
C311 Dy281 2.738 . S
C311 O291 1.255 . S
C311 O292 1.249 . S
C311 C305 1.516 . S
H312 C298 0.930 . S
H313 C299 0.931 1_455 S
H314 C300 0.931 . S
H315 C301 0.933 . S
H316 C307 0.930 . S
H317 C308 0.931 . S
H318 C309 0.931 . S
H319 C310 0.933 . S
Dy320 O323 2.307 . S
Dy320 O325 2.395 . S
Dy320 O326 2.379 . S
Dy320 O328 2.339 . S
Dy320 O330 2.298 . S
Dy320 O334 2.275 . S
Dy320 C342 2.738 . S
Dy321 O324 2.298 . S
Dy321 O327 2.275 . S
Dy321 O329 2.307 . S
Dy321 O331 2.395 . S
Dy321 O332 2.379 . S
Dy321 O335 2.339 . S
Dy321 C351 2.738 . S
C322 O334 1.254 . S
C322 O335 1.257 . S
O323 Dy320 2.307 . S
O323 C333 1.266 . S
O324 Dy321 2.298 . S
O324 C333 1.236 . S
O325 Dy320 2.395 . S
O325 C342 1.255 . S
O326 Dy320 2.379 . S
O326 C342 1.249 . S
O327 Dy321 2.275 . S
O327 C343 1.254 . S
O328 Dy320 2.339 . S
O328 C343 1.257 . S
O329 Dy321 2.307 . S
O329 C344 1.266 . S
O330 Dy320 2.298 . S
O330 C344 1.236 . S
O331 Dy321 2.395 . S
O331 C351 1.255 . S
O332 Dy321 2.379 . S
O332 C351 1.249 . S
C333 O323 1.266 . S
C333 O324 1.236 . S
O334 Dy320 2.275 . S
O334 C322 1.254 . S
O335 Dy321 2.339 . S
O335 C322 1.257 . S
C336 C339 1.344 . S
C336 C340 1.328 . S
C336 C342 1.516 . S
C337 C338 1.304 . S
C337 C341 1.323 . S
C338 C337 1.304 . S
C338 C339 1.371 . S
C338 H352 0.930 . S
C339 C336 1.344 . S
C339 C338 1.371 . S
C339 H353 0.931 . S
C340 C336 1.328 . S
C340 C341 1.433 . S
C340 H354 0.931 . S
C341 C337 1.323 . S
C341 C340 1.433 . S
C341 H355 0.933 . S
C342 Dy320 2.738 . S
C342 O325 1.255 . S
C342 O326 1.249 . S
C342 C336 1.516 . S
C343 O327 1.254 . S
C343 O328 1.257 . S
C344 O329 1.266 . S
C344 O330 1.236 . S
C345 C348 1.344 . S
C345 C349 1.328 . S
C345 C351 1.516 . S
C346 C347 1.304 . S
C346 C350 1.323 . S
C347 C346 1.304 . S
C347 C348 1.371 . S
C347 H356 0.930 . S
C348 C345 1.344 . S
C348 C347 1.371 . S
C348 H357 0.931 . S
C349 C345 1.328 . S
C349 C350 1.433 . S
C349 H358 0.931 . S
C350 C346 1.323 . S
C350 C349 1.433 . S
C350 H359 0.933 . S
C351 Dy321 2.738 . S
C351 O331 1.255 . S
C351 O332 1.249 . S
C351 C345 1.516 . S
H352 C338 0.930 . S
H353 C339 0.931 . S
H354 C340 0.931 . S
H355 C341 0.933 . S
H356 C347 0.930 . S
H357 C348 0.931 . S
H358 C349 0.931 . S
H359 C350 0.933 . S
Dy360 O363 2.307 . S
Dy360 O365 2.395 . S
Dy360 O366 2.379 . S
Dy360 O368 2.339 . S
Dy360 O370 2.298 . S
Dy360 O374 2.275 . S
Dy360 C382 2.738 . S
Dy361 O364 2.298 . S
Dy361 O367 2.275 . S
Dy361 O369 2.307 . S
Dy361 O371 2.395 1_545 S
Dy361 O372 2.379 1_455 S
Dy361 O375 2.339 . S
Dy361 C391 2.738 1_445 S
C362 O374 1.254 . S
C362 O375 1.257 . S
O363 Dy360 2.307 . S
O363 C373 1.266 . S
O364 Dy361 2.298 . S
O364 C373 1.236 . S
O365 Dy360 2.395 . S
O365 C382 1.255 . S
O366 Dy360 2.379 . S
O366 C382 1.249 . S
O367 Dy361 2.275 . S
O367 C383 1.254 1_545 S
O368 Dy360 2.339 . S
O368 C383 1.257 1_545 S
O369 Dy361 2.307 . S
O369 C384 1.266 . S
O370 Dy360 2.298 . S
O370 C384 1.236 . S
O371 Dy361 2.395 1_565 S
O371 C391 1.255 1_455 S
O372 Dy361 2.379 1_655 S
O372 C391 1.249 1_545 S
C373 O363 1.266 . S
C373 O364 1.236 . S
O374 Dy360 2.275 . S
O374 C362 1.254 . S
O375 Dy361 2.339 . S
O375 C362 1.257 . S
C376 C379 1.344 . S
C376 C380 1.328 . S
C376 C382 1.516 . S
C377 C378 1.304 . S
C377 C381 1.323 . S
C378 C377 1.304 . S
C378 C379 1.371 . S
C378 H392 0.930 . S
C379 C376 1.344 . S
C379 C378 1.371 . S
C379 H393 0.931 . S
C380 C376 1.328 . S
C380 C381 1.433 . S
C380 H394 0.931 . S
C381 C377 1.323 . S
C381 C380 1.433 . S
C381 H395 0.933 . S
C382 Dy360 2.738 . S
C382 O365 1.255 . S
C382 O366 1.249 . S
C382 C376 1.516 . S
C383 O367 1.254 1_565 S
C383 O368 1.257 1_565 S
C384 O369 1.266 . S
C384 O370 1.236 . S
C385 C388 1.344 . S
C385 C389 1.328 . S
C385 C391 1.516 . S
C386 C387 1.304 . S
C386 C390 1.323 . S
C387 C386 1.304 . S
C387 C388 1.371 . S
C387 H396 0.930 . S
C388 C385 1.344 . S
C388 C387 1.371 . S
C388 H397 0.931 1_655 S
C389 C385 1.328 . S
C389 C390 1.433 . S
C389 H398 0.931 1_565 S
C390 C386 1.323 . S
C390 C389 1.433 . S
C390 H399 0.933 . S
C391 Dy361 2.738 1_665 S
C391 O371 1.255 1_655 S
C391 O372 1.249 1_565 S
C391 C385 1.516 . S
H392 C378 0.930 . S
H393 C379 0.931 . S
H394 C380 0.931 . S
H395 C381 0.933 . S
H396 C387 0.930 . S
H397 C388 0.931 1_455 S
H398 C389 0.931 1_545 S
H399 C390 0.933 . S
Dy400 O403 2.307 . S
Dy400 O405 2.395 . S
Dy400 O406 2.379 . S
Dy400 O408 2.339 . S
Dy400 O410 2.298 . S
Dy400 O414 2.275 . S
Dy400 C422 2.738 . S
Dy401 O404 2.298 . S
Dy401 O407 2.275 . S
Dy401 O409 2.307 . S
Dy401 O411 2.395 . S
Dy401 O412 2.379 . S
Dy401 O415 2.339 . S
Dy401 C431 2.738 . S
C402 O414 1.254 . S
C402 O415 1.257 . S
O403 Dy400 2.307 . S
O403 C413 1.266 . S
O404 Dy401 2.298 . S
O404 C413 1.236 . S
O405 Dy400 2.395 . S
O405 C422 1.255 . S
O406 Dy400 2.379 . S
O406 C422 1.249 . S
O407 Dy401 2.275 . S
O407 C423 1.254 . S
O408 Dy400 2.339 . S
O408 C423 1.257 . S
O409 Dy401 2.307 . S
O409 C424 1.266 . S
O410 Dy400 2.298 . S
O410 C424 1.236 . S
O411 Dy401 2.395 . S
O411 C431 1.255 . S
O412 Dy401 2.379 . S
O412 C431 1.249 . S
C413 O403 1.266 . S
C413 O404 1.236 . S
O414 Dy400 2.275 . S
O414 C402 1.254 . S
O415 Dy401 2.339 . S
O415 C402 1.257 . S
C416 C419 1.344 . S
C416 C420 1.328 . S
C416 C422 1.516 . S
C417 C418 1.304 . S
C417 C421 1.323 . S
C418 C417 1.304 . S
C418 C419 1.371 . S
C418 H432 0.930 1_554 S
C419 C416 1.344 . S
C419 C418 1.371 . S
C419 H433 0.931 . S
C420 C416 1.328 . S
C420 C421 1.433 . S
C420 H434 0.931 . S
C421 C417 1.323 . S
C421 C420 1.433 . S
C421 H435 0.933 . S
C422 Dy400 2.738 . S
C422 O405 1.255 . S
C422 O406 1.249 . S
C422 C416 1.516 . S
C423 O407 1.254 . S
C423 O408 1.257 . S
C424 O409 1.266 . S
C424 O410 1.236 . S
C425 C428 1.344 . S
C425 C429 1.328 . S
C425 C431 1.516 . S
C426 C427 1.304 . S
C426 C430 1.323 . S
C427 C426 1.304 . S
C427 C428 1.371 . S
C427 H436 0.930 . S
C428 C425 1.344 . S
C428 C427 1.371 . S
C428 H437 0.931 . S
C429 C425 1.328 . S
C429 C430 1.433 . S
C429 H438 0.931 . S
C430 C426 1.323 . S
C430 C429 1.433 . S
C430 H439 0.933 . S
C431 Dy401 2.738 . S
C431 O411 1.255 . S
C431 O412 1.249 . S
C431 C425 1.516 . S
H432 C418 0.930 1_556 S
H433 C419 0.931 . S
H434 C420 0.931 . S
H435 C421 0.933 . S
H436 C427 0.930 . S
H437 C428 0.931 . S
H438 C429 0.931 . S
H439 C430 0.933 . S
Dy440 O443 2.307 . S
Dy440 O445 2.395 . S
Dy440 O446 2.379 . S
Dy440 O448 2.339 . S
Dy440 O450 2.298 . S
Dy440 O454 2.275 . S
Dy440 C462 2.738 . S
Dy441 O444 2.298 . S
Dy441 O447 2.275 . S
Dy441 O449 2.307 . S
Dy441 O451 2.395 1_565 S
Dy441 O452 2.379 . S
Dy441 O455 2.339 . S
Dy441 C471 2.738 1_565 S
C442 O454 1.254 . S
C442 O455 1.257 . S
O443 Dy440 2.307 . S
O443 C453 1.266 . S
O444 Dy441 2.298 . S
O444 C453 1.236 . S
O445 Dy440 2.395 . S
O445 C462 1.255 . S
O446 Dy440 2.379 . S
O446 C462 1.249 . S
O447 Dy441 2.275 . S
O447 C463 1.254 1_565 S
O448 Dy440 2.339 . S
O448 C463 1.257 1_565 S
O449 Dy441 2.307 . S
O449 C464 1.266 . S
O450 Dy440 2.298 . S
O450 C464 1.236 . S
O451 Dy441 2.395 1_545 S
O451 C471 1.255 . S
O452 Dy441 2.379 . S
O452 C471 1.249 1_565 S
C453 O443 1.266 . S
C453 O444 1.236 . S
O454 Dy440 2.275 . S
O454 C442 1.254 . S
O455 Dy441 2.339 . S
O455 C442 1.257 . S
C456 C459 1.344 . S
C456 C460 1.328 . S
C456 C462 1.516 . S
C457 C458 1.304 . S
C457 C461 1.323 . S
C458 C457 1.304 . S
C458 C459 1.371 . S
C458 H472 0.930 . S
C459 C456 1.344 . S
C459 C458 1.371 . S
C459 H473 0.931 . S
C460 C456 1.328 . S
C460 C461 1.433 . S
C460 H474 0.931 . S
C461 C457 1.323 . S
C461 C460 1.433 . S
C461 H475 0.933 . S
C462 Dy440 2.738 . S
C462 O445 1.255 . S
C462 O446 1.249 . S
C462 C456 1.516 . S
C463 O447 1.254 1_545 S
C463 O448 1.257 1_545 S
C464 O449 1.266 . S
C464 O450 1.236 . S
C465 C468 1.344 . S
C465 C469 1.328 . S
C465 C471 1.516 . S
C466 C467 1.304 . S
C466 C470 1.323 . S
C467 C466 1.304 . S
C467 C468 1.371 . S
C467 H476 0.930 . S
C468 C465 1.344 . S
C468 C467 1.371 . S
C468 H477 0.931 . S
C469 C465 1.328 . S
C469 C470 1.433 . S
C469 H478 0.931 1_545 S
C470 C466 1.323 . S
C470 C469 1.433 . S
C470 H479 0.933 . S
C471 Dy441 2.738 1_545 S
C471 O451 1.255 . S
C471 O452 1.249 1_545 S
C471 C465 1.516 . S
H472 C458 0.930 . S
H473 C459 0.931 . S
H474 C460 0.931 . S
H475 C461 0.933 . S
H476 C467 0.930 . S
H477 C468 0.931 . S
H478 C469 0.931 1_565 S
H479 C470 0.933 . S
Dy480 O483 2.307 . S
Dy480 O485 2.395 . S
Dy480 O486 2.379 . S
Dy480 O488 2.339 . S
Dy480 O490 2.298 . S
Dy480 O494 2.275 . S
Dy480 C502 2.738 . S
Dy481 O484 2.298 . S
Dy481 O487 2.275 . S
Dy481 O489 2.307 . S
Dy481 O491 2.395 . S
Dy481 O492 2.379 . S
Dy481 O495 2.339 . S
Dy481 C511 2.738 . S
C482 O494 1.254 . S
C482 O495 1.257 . S
O483 Dy480 2.307 . S
O483 C493 1.266 . S
O484 Dy481 2.298 . S
O484 C493 1.236 . S
O485 Dy480 2.395 . S
O485 C502 1.255 . S
O486 Dy480 2.379 . S
O486 C502 1.249 . S
O487 Dy481 2.275 . S
O487 C503 1.254 . S
O488 Dy480 2.339 . S
O488 C503 1.257 . S
O489 Dy481 2.307 . S
O489 C504 1.266 . S
O490 Dy480 2.298 . S
O490 C504 1.236 . S
O491 Dy481 2.395 . S
O491 C511 1.255 . S
O492 Dy481 2.379 . S
O492 C511 1.249 . S
C493 O483 1.266 . S
C493 O484 1.236 . S
O494 Dy480 2.275 . S
O494 C482 1.254 . S
O495 Dy481 2.339 . S
O495 C482 1.257 . S
C496 C499 1.344 . S
C496 C500 1.328 . S
C496 C502 1.516 . S
C497 C498 1.304 . S
C497 C501 1.323 . S
C498 C497 1.304 . S
C498 C499 1.371 . S
C498 H512 0.930 . S
C499 C496 1.344 . S
C499 C498 1.371 . S
C499 H513 0.931 . S
C500 C496 1.328 . S
C500 C501 1.433 . S
C500 H514 0.931 . S
C501 C497 1.323 . S
C501 C500 1.433 . S
C501 H515 0.933 . S
C502 Dy480 2.738 . S
C502 O485 1.255 . S
C502 O486 1.249 . S
C502 C496 1.516 . S
C503 O487 1.254 . S
C503 O488 1.257 . S
C504 O489 1.266 . S
C504 O490 1.236 . S
C505 C508 1.344 . S
C505 C509 1.328 . S
C505 C511 1.516 . S
C506 C507 1.304 . S
C506 C510 1.323 . S
C507 C506 1.304 . S
C507 C508 1.371 . S
C507 H516 0.930 . S
C508 C505 1.344 . S
C508 C507 1.371 . S
C508 H517 0.931 . S
C509 C505 1.328 . S
C509 C510 1.433 . S
C509 H518 0.931 . S
C510 C506 1.323 . S
C510 C509 1.433 . S
C510 H519 0.933 . S
C511 Dy481 2.738 . S
C511 O491 1.255 . S
C511 O492 1.249 . S
C511 C505 1.516 . S
H512 C498 0.930 . S
H513 C499 0.931 . S
H514 C500 0.931 . S
H515 C501 0.933 . S
H516 C507 0.930 . S
H517 C508 0.931 . S
H518 C509 0.931 . S
H519 C510 0.933 . S
Dy520 O523 2.307 . S
Dy520 O525 2.395 1_565 S
Dy520 O526 2.379 1_655 S
Dy520 O528 2.339 . S
Dy520 O530 2.298 . S
Dy520 O534 2.275 . S
Dy520 C542 2.738 1_665 S
Dy521 O524 2.298 . S
Dy521 O527 2.275 . S
Dy521 O529 2.307 . S
Dy521 O531 2.395 . S
Dy521 O532 2.379 . S
Dy521 O535 2.339 . S
Dy521 C551 2.738 . S
C522 O534 1.254 1_545 S
C522 O535 1.257 1_545 S
O523 Dy520 2.307 . S
O523 C533 1.266 . S
O524 Dy521 2.298 . S
O524 C533 1.236 . S
O525 Dy520 2.395 1_545 S
O525 C542 1.255 1_655 S
O526 Dy520 2.379 1_455 S
O526 C542 1.249 1_565 S
O527 Dy521 2.275 . S
O527 C543 1.254 . S
O528 Dy520 2.339 . S
O528 C543 1.257 . S
O529 Dy521 2.307 . S
O529 C544 1.266 . S
O530 Dy520 2.298 . S
O530 C544 1.236 . S
O531 Dy521 2.395 . S
O531 C551 1.255 . S
O532 Dy521 2.379 . S
O532 C551 1.249 . S
C533 O523 1.266 . S
C533 O524 1.236 . S
O534 Dy520 2.275 . S
O534 C522 1.254 1_565 S
O535 Dy521 2.339 . S
O535 C522 1.257 1_565 S
C536 C539 1.344 . S
C536 C540 1.328 . S
C536 C542 1.516 . S
C537 C538 1.304 . S
C537 C541 1.323 . S
C538 C537 1.304 . S
C538 C539 1.371 . S
C538 H552 0.930 . S
C539 C536 1.344 . S
C539 C538 1.371 . S
C539 H553 0.931 1_455 S
C540 C536 1.328 . S
C540 C541 1.433 . S
C540 H554 0.931 1_545 S
C541 C537 1.323 . S
C541 C540 1.433 . S
C541 H555 0.933 . S
C542 Dy520 2.738 1_445 S
C542 O525 1.255 1_455 S
C542 O526 1.249 1_545 S
C542 C536 1.516 . S
C543 O527 1.254 . S
C543 O528 1.257 . S
C544 O529 1.266 . S
C544 O530 1.236 . S
C545 C548 1.344 . S
C545 C549 1.328 . S
C545 C551 1.516 . S
C546 C547 1.304 . S
C546 C550 1.323 . S
C547 C546 1.304 . S
C547 C548 1.371 . S
C547 H556 0.930 . S
C548 C545 1.344 . S
C548 C547 1.371 . S
C548 H557 0.931 . S
C549 C545 1.328 . S
C549 C550 1.433 . S
C549 H558 0.931 . S
C550 C546 1.323 . S
C550 C549 1.433 . S
C550 H559 0.933 . S
C551 Dy521 2.738 . S
C551 O531 1.255 . S
C551 O532 1.249 . S
C551 C545 1.516 . S
H552 C538 0.930 . S
H553 C539 0.931 1_655 S
H554 C540 0.931 1_565 S
H555 C541 0.933 . S
H556 C547 0.930 . S
H557 C548 0.931 . S
H558 C549 0.931 . S
H559 C550 0.933 . S
Dy560 O563 2.307 . S
Dy560 O565 2.395 . S
Dy560 O566 2.379 . S
Dy560 O568 2.339 . S
Dy560 O570 2.298 . S
Dy560 O574 2.275 . S
Dy560 C582 2.738 . S
Dy561 O564 2.298 . S
Dy561 O567 2.275 . S
Dy561 O569 2.307 . S
Dy561 O571 2.395 . S
Dy561 O572 2.379 . S
Dy561 O575 2.339 . S
Dy561 C591 2.738 . S
C562 O574 1.254 . S
C562 O575 1.257 . S
O563 Dy560 2.307 . S
O563 C573 1.266 . S
O564 Dy561 2.298 . S
O564 C573 1.236 . S
O565 Dy560 2.395 . S
O565 C582 1.255 . S
O566 Dy560 2.379 . S
O566 C582 1.249 . S
O567 Dy561 2.275 . S
O567 C583 1.254 . S
O568 Dy560 2.339 . S
O568 C583 1.257 . S
O569 Dy561 2.307 . S
O569 C584 1.266 . S
O570 Dy560 2.298 . S
O570 C584 1.236 . S
O571 Dy561 2.395 . S
O571 C591 1.255 . S
O572 Dy561 2.379 . S
O572 C591 1.249 . S
C573 O563 1.266 . S
C573 O564 1.236 . S
O574 Dy560 2.275 . S
O574 C562 1.254 . S
O575 Dy561 2.339 . S
O575 C562 1.257 . S
C576 C579 1.344 . S
C576 C580 1.328 . S
C576 C582 1.516 . S
C577 C578 1.304 . S
C577 C581 1.323 . S
C578 C577 1.304 . S
C578 C579 1.371 . S
C578 H592 0.930 . S
C579 C576 1.344 . S
C579 C578 1.371 . S
C579 H593 0.931 . S
C580 C576 1.328 . S
C580 C581 1.433 . S
C580 H594 0.931 . S
C581 C577 1.323 . S
C581 C580 1.433 . S
C581 H595 0.933 . S
C582 Dy560 2.738 . S
C582 O565 1.255 . S
C582 O566 1.249 . S
C582 C576 1.516 . S
C583 O567 1.254 . S
C583 O568 1.257 . S
C584 O569 1.266 . S
C584 O570 1.236 . S
C585 C588 1.344 . S
C585 C589 1.328 . S
C585 C591 1.516 . S
C586 C587 1.304 . S
C586 C590 1.323 . S
C587 C586 1.304 . S
C587 C588 1.371 . S
C587 H596 0.930 1_556 S
C588 C585 1.344 . S
C588 C587 1.371 . S
C588 H597 0.931 . S
C589 C585 1.328 . S
C589 C590 1.433 . S
C589 H598 0.931 . S
C590 C586 1.323 . S
C590 C589 1.433 . S
C590 H599 0.933 . S
C591 Dy561 2.738 . S
C591 O571 1.255 . S
C591 O572 1.249 . S
C591 C585 1.516 . S
H592 C578 0.930 . S
H593 C579 0.931 . S
H594 C580 0.931 . S
H595 C581 0.933 . S
H596 C587 0.930 1_554 S
H597 C588 0.931 . S
H598 C589 0.931 . S
H599 C590 0.933 . S
Dy600 O603 2.307 . S
Dy600 O605 2.395 1_545 S
Dy600 O606 2.379 . S
Dy600 O608 2.339 . S
Dy600 O610 2.298 . S
Dy600 O614 2.275 . S
Dy600 C622 2.738 1_545 S
Dy601 O604 2.298 . S
Dy601 O607 2.275 . S
Dy601 O609 2.307 . S
Dy601 O611 2.395 . S
Dy601 O612 2.379 . S
Dy601 O615 2.339 . S
Dy601 C631 2.738 . S
C602 O614 1.254 1_565 S
C602 O615 1.257 1_565 S
O603 Dy600 2.307 . S
O603 C613 1.266 . S
O604 Dy601 2.298 . S
O604 C613 1.236 . S
O605 Dy600 2.395 1_565 S
O605 C622 1.255 . S
O606 Dy600 2.379 . S
O606 C622 1.249 1_545 S
O607 Dy601 2.275 . S
O607 C623 1.254 . S
O608 Dy600 2.339 . S
O608 C623 1.257 . S
O609 Dy601 2.307 . S
O609 C624 1.266 . S
O610 Dy600 2.298 . S
O610 C624 1.236 . S
O611 Dy601 2.395 . S
O611 C631 1.255 . S
O612 Dy601 2.379 . S
O612 C631 1.249 . S
C613 O603 1.266 . S
C613 O604 1.236 . S
O614 Dy600 2.275 . S
O614 C602 1.254 1_545 S
O615 Dy601 2.339 . S
O615 C602 1.257 1_545 S
C616 C619 1.344 . S
C616 C620 1.328 . S
C616 C622 1.516 . S
C617 C618 1.304 . S
C617 C621 1.323 . S
C618 C617 1.304 . S
C618 C619 1.371 . S
C618 H632 0.930 . S
C619 C616 1.344 . S
C619 C618 1.371 . S
C619 H633 0.931 . S
C620 C616 1.328 . S
C620 C621 1.433 . S
C620 H634 0.931 1_565 S
C621 C617 1.323 . S
C621 C620 1.433 . S
C621 H635 0.933 . S
C622 Dy600 2.738 1_565 S
C622 O605 1.255 . S
C622 O606 1.249 1_565 S
C622 C616 1.516 . S
C623 O607 1.254 . S
C623 O608 1.257 . S
C624 O609 1.266 . S
C624 O610 1.236 . S
C625 C628 1.344 . S
C625 C629 1.328 . S
C625 C631 1.516 . S
C626 C627 1.304 . S
C626 C630 1.323 . S
C627 C626 1.304 . S
C627 C628 1.371 . S
C627 H636 0.930 . S
C628 C625 1.344 . S
C628 C627 1.371 . S
C628 H637 0.931 . S
C629 C625 1.328 . S
C629 C630 1.433 . S
C629 H638 0.931 . S
C630 C626 1.323 . S
C630 C629 1.433 . S
C630 H639 0.933 . S
C631 Dy601 2.738 . S
C631 O611 1.255 . S
C631 O612 1.249 . S
C631 C625 1.516 . S
H632 C618 0.930 . S
H633 C619 0.931 . S
H634 C620 0.931 1_545 S
H635 C621 0.933 . S
H636 C627 0.930 . S
H637 C628 0.931 . S
H638 C629 0.931 . S
H639 C630 0.933 . S
C640 C641 1.387 . S
C640 H644 0.950 . S
C640 C649 1.390 . S
C641 C640 1.387 . S
C641 C643 1.387 . S
H642 C649 0.950 . S
C643 C641 1.387 . S
C643 C645 1.390 . S
C643 H647 0.950 . S
H644 C640 0.950 . S
C645 C643 1.390 . S
C645 C646 1.387 . S
C645 H648 0.950 . S
C646 C645 1.387 . S
C646 C649 1.387 . S
H647 C643 0.950 . S
H648 C645 0.950 . S
C649 C640 1.390 . S
C649 H642 0.950 . S
C649 C646 1.387 . S
C650 C651 1.387 . S
C650 H654 0.950 . S
C650 C659 1.390 . S
C651 C650 1.387 . S
C651 C653 1.387 . S
H652 C659 0.950 . S
C653 C651 1.387 . S
C653 C655 1.390 . S
C653 H657 0.950 . S
H654 C650 0.950 . S
C655 C653 1.390 . S
C655 C656 1.387 . S
C655 H658 0.950 . S
C656 C655 1.387 . S
C656 C659 1.387 . S
H657 C653 0.950 . S
H658 C655 0.950 . S
C659 C650 1.390 . S
C659 H652 0.950 . S
C659 C656 1.387 . S
C660 C661 1.387 . S
C660 H664 0.950 . S
C660 C669 1.390 1_455 S
C661 C660 1.387 . S
C661 C663 1.387 . S
H662 C669 0.950 . S
C663 C661 1.387 . S
C663 C665 1.390 1_455 S
C663 H667 0.950 . S
H664 C660 0.950 . S
C665 C663 1.390 1_655 S
C665 C666 1.387 . S
C665 H668 0.950 . S
C666 C665 1.387 . S
C666 C669 1.387 . S
H667 C663 0.950 . S
H668 C665 0.950 . S
C669 C660 1.390 1_655 S
C669 H662 0.950 . S
C669 C666 1.387 . S
C670 C671 1.387 . S
C670 H674 0.950 . S
C670 C679 1.390 1_455 S
C671 C670 1.387 . S
C671 C673 1.387 . S
H672 C679 0.950 . S
C673 C671 1.387 . S
C673 C675 1.390 1_455 S
C673 H677 0.950 . S
H674 C670 0.950 . S
C675 C673 1.390 1_655 S
C675 C676 1.387 . S
C675 H678 0.950 . S
C676 C675 1.387 . S
C676 C679 1.387 . S
H677 C673 0.950 . S
H678 C675 0.950 . S
C679 C670 1.390 1_655 S
C679 H672 0.950 . S
C679 C676 1.387 . S
C680 C681 1.387 . S
C680 H684 0.950 . S
C680 C689 1.390 . S
C681 C680 1.387 . S
C681 C683 1.387 . S
H682 C689 0.950 . S
C683 C681 1.387 . S
C683 C685 1.390 . S
C683 H687 0.950 . S
H684 C680 0.950 . S
C685 C683 1.390 . S
C685 C686 1.387 . S
C685 H688 0.950 . S
C686 C685 1.387 . S
C686 C689 1.387 . S
H687 C683 0.950 . S
H688 C685 0.950 . S
C689 C680 1.390 . S
C689 H682 0.950 . S
C689 C686 1.387 . S
C690 C691 1.387 . S
C690 H694 0.950 . S
C690 C699 1.390 . S
C691 C690 1.387 . S
C691 C693 1.387 . S
H692 C699 0.950 . S
C693 C691 1.387 . S
C693 C695 1.390 . S
C693 H697 0.950 . S
H694 C690 0.950 . S
C695 C693 1.390 . S
C695 C696 1.387 . S
C695 H698 0.950 . S
C696 C695 1.387 . S
C696 C699 1.387 . S
H697 C693 0.950 . S
H698 C695 0.950 . S
C699 C690 1.390 . S
C699 H692 0.950 . S
C699 C696 1.387 . S
C700 C701 1.387 . S
C700 H704 0.950 . S
C700 C709 1.390 1_455 S
C701 C700 1.387 . S
C701 C703 1.387 . S
H702 C709 0.950 . S
C703 C701 1.387 . S
C703 C705 1.390 1_455 S
C703 H707 0.950 . S
H704 C700 0.950 . S
C705 C703 1.390 1_655 S
C705 C706 1.387 . S
C705 H708 0.950 . S
C706 C705 1.387 . S
C706 C709 1.387 . S
H707 C703 0.950 . S
H708 C705 0.950 . S
C709 C700 1.390 1_655 S
C709 H702 0.950 . S
C709 C706 1.387 . S
C710 C711 1.387 . S
C710 H714 0.950 . S
C710 C719 1.390 1_455 S
C711 C710 1.387 . S
C711 C713 1.387 . S
H712 C719 0.950 . S
C713 C711 1.387 . S
C713 C715 1.390 1_455 S
C713 H717 0.950 . S
H714 C710 0.950 . S
C715 C713 1.390 1_655 S
C715 C716 1.387 . S
C715 H718 0.950 . S
C716 C715 1.387 . S
C716 C719 1.387 . S
H717 C713 0.950 . S
H718 C715 0.950 . S
C719 C710 1.390 1_655 S
C719 H712 0.950 . S
C719 C716 1.387 . S
C720 C721 1.387 1_554 S
C720 H724 0.950 . S
C720 C729 1.390 1_565 S
C721 C720 1.387 1_556 S
C721 C723 1.387 . S
H722 C729 0.950 . S
C723 C721 1.387 . S
C723 C725 1.390 1_565 S
C723 H727 0.950 . S
H724 C720 0.950 . S
C725 C723 1.390 1_545 S
C725 C726 1.387 1_556 S
C725 H728 0.950 . S
C726 C725 1.387 1_554 S
C726 C729 1.387 . S
H727 C723 0.950 . S
H728 C725 0.950 . S
C729 C720 1.390 1_545 S
C729 H722 0.950 . S
C729 C726 1.387 . S
C730 C731 1.387 . S
C730 H734 0.950 . S
C730 C739 1.390 . S
C731 C730 1.387 . S
C731 C733 1.387 . S
H732 C739 0.950 . S
C733 C731 1.387 . S
C733 C735 1.390 . S
C733 H737 0.950 . S
H734 C730 0.950 . S
C735 C733 1.390 . S
C735 C736 1.387 . S
C735 H738 0.950 . S
C736 C735 1.387 . S
C736 C739 1.387 . S
H737 C733 0.950 . S
H738 C735 0.950 . S
C739 C730 1.390 . S
C739 H732 0.950 . S
C739 C736 1.387 . S
C740 C741 1.387 . S
C740 H744 0.950 . S
C740 C749 1.390 1_445 S
C741 C740 1.387 . S
C741 C743 1.387 . S
H742 C749 0.950 . S
C743 C741 1.387 . S
C743 C745 1.390 1_445 S
C743 H747 0.950 . S
H744 C740 0.950 . S
C745 C743 1.390 1_665 S
C745 C746 1.387 . S
C745 H748 0.950 . S
C746 C745 1.387 . S
C746 C749 1.387 . S
H747 C743 0.950 . S
H748 C745 0.950 . S
C749 C740 1.390 1_665 S
C749 H742 0.950 . S
C749 C746 1.387 . S
C750 C751 1.387 . S
C750 H754 0.950 . S
C750 C759 1.390 . S
C751 C750 1.387 . S
C751 C753 1.387 . S
H752 C759 0.950 . S
C753 C751 1.387 . S
C753 C755 1.390 . S
C753 H757 0.950 . S
H754 C750 0.950 . S
C755 C753 1.390 . S
C755 C756 1.387 . S
C755 H758 0.950 . S
C756 C755 1.387 . S
C756 C759 1.387 . S
H757 C753 0.950 . S
H758 C755 0.950 . S
C759 C750 1.390 . S
C759 H752 0.950 . S
C759 C756 1.387 . S
C760 C761 1.387 . S
C760 H764 0.950 . S
C760 C769 1.390 . S
C761 C760 1.387 . S
C761 C763 1.387 . S
H762 C769 0.950 . S
C763 C761 1.387 . S
C763 C765 1.390 . S
C763 H767 0.950 . S
H764 C760 0.950 . S
C765 C763 1.390 . S
C765 C766 1.387 . S
C765 H768 0.950 . S
C766 C765 1.387 . S
C766 C769 1.387 . S
H767 C763 0.950 . S
H768 C765 0.950 . S
C769 C760 1.390 . S
C769 H762 0.950 . S
C769 C766 1.387 . S
C770 C771 1.387 . S
C770 H774 0.950 . S
C770 C779 1.390 . S
C771 C770 1.387 . S
C771 C773 1.387 . S
H772 C779 0.950 . S
C773 C771 1.387 . S
C773 C775 1.390 . S
C773 H777 0.950 . S
H774 C770 0.950 . S
C775 C773 1.390 . S
C775 C776 1.387 . S
C775 H778 0.950 . S
C776 C775 1.387 . S
C776 C779 1.387 . S
H777 C773 0.950 . S
H778 C775 0.950 . S
C779 C770 1.390 . S
C779 H772 0.950 . S
C779 C776 1.387 . S
C780 C781 1.387 . S
C780 H784 0.950 . S
C780 C789 1.390 1_455 S
C781 C780 1.387 . S
C781 C783 1.387 . S
H782 C789 0.950 . S
C783 C781 1.387 . S
C783 C785 1.390 1_455 S
C783 H787 0.950 . S
H784 C780 0.950 . S
C785 C783 1.390 1_655 S
C785 C786 1.387 . S
C785 H788 0.950 . S
C786 C785 1.387 . S
C786 C789 1.387 . S
H787 C783 0.950 . S
H788 C785 0.950 . S
C789 C780 1.390 1_655 S
C789 H782 0.950 . S
C789 C786 1.387 . S
C790 C791 1.387 . S
C790 H794 0.950 . S
C790 C799 1.390 . S
C791 C790 1.387 . S
C791 C793 1.387 1_556 S
H792 C799 0.950 . S
C793 C791 1.387 1_554 S
C793 C795 1.390 . S
C793 H797 0.950 . S
H794 C790 0.950 . S
C795 C793 1.390 . S
C795 C796 1.387 . S
C795 H798 0.950 . S
C796 C795 1.387 . S
C796 C799 1.387 1_554 S
H797 C793 0.950 . S
H798 C795 0.950 . S
C799 C790 1.390 . S
C799 H792 0.950 . S
C799 C796 1.387 1_556 S
C800 C801 1.387 . S
C800 H804 0.950 . S
C800 C809 1.390 . S
C801 C800 1.387 . S
C801 C803 1.387 . S
H802 C809 0.950 . S
C803 C801 1.387 . S
C803 C805 1.390 . S
C803 H807 0.950 . S
H804 C800 0.950 . S
C805 C803 1.390 . S
C805 C806 1.387 . S
C805 H808 0.950 . S
C806 C805 1.387 . S
C806 C809 1.387 . S
H807 C803 0.950 . S
H808 C805 0.950 . S
C809 C800 1.390 . S
C809 H802 0.950 . S
C809 C806 1.387 . S
C810 C811 1.387 . S
C810 H814 0.950 . S
C810 C819 1.390 . S
C811 C810 1.387 . S
C811 C813 1.387 . S
H812 C819 0.950 . S
C813 C811 1.387 . S
C813 C815 1.390 . S
C813 H817 0.950 . S
H814 C810 0.950 . S
C815 C813 1.390 . S
C815 C816 1.387 . S
C815 H818 0.950 . S
C816 C815 1.387 . S
C816 C819 1.387 . S
H817 C813 0.950 . S
H818 C815 0.950 . S
C819 C810 1.390 . S
C819 H812 0.950 . S
C819 C816 1.387 . S
C820 C821 1.387 . S
C820 H824 0.950 . S
C820 C829 1.390 . S
C821 C820 1.387 . S
C821 C823 1.387 . S
H822 C829 0.950 . S
C823 C821 1.387 . S
C823 C825 1.390 . S
C823 H827 0.950 . S
H824 C820 0.950 . S
C825 C823 1.390 . S
C825 C826 1.387 . S
C825 H828 0.950 . S
C826 C825 1.387 . S
C826 C829 1.387 . S
H827 C823 0.950 . S
H828 C825 0.950 . S
C829 C820 1.390 . S
C829 H822 0.950 . S
C829 C826 1.387 . S
C830 C831 1.387 . S
C830 H834 0.950 . S
C830 C839 1.390 . S
C831 C830 1.387 . S
C831 C833 1.387 . S
H832 C839 0.950 . S
C833 C831 1.387 . S
C833 C835 1.390 . S
C833 H837 0.950 . S
H834 C830 0.950 . S
C835 C833 1.390 . S
C835 C836 1.387 . S
C835 H838 0.950 . S
C836 C835 1.387 . S
C836 C839 1.387 . S
H837 C833 0.950 . S
H838 C835 0.950 . S
C839 C830 1.390 . S
C839 H832 0.950 . S
C839 C836 1.387 . S
C840 C841 1.387 . S
C840 H844 0.950 . S
C840 C849 1.390 . S
C841 C840 1.387 . S
C841 C843 1.387 . S
H842 C849 0.950 . S
C843 C841 1.387 . S
C843 C845 1.390 . S
C843 H847 0.950 . S
H844 C840 0.950 . S
C845 C843 1.390 . S
C845 C846 1.387 . S
C845 H848 0.950 . S
C846 C845 1.387 . S
C846 C849 1.387 . S
H847 C843 0.950 . S
H848 C845 0.950 . S
C849 C840 1.390 . S
C849 H842 0.950 . S
C849 C846 1.387 . S
C850 C851 1.387 . S
C850 H854 0.950 . S
C850 C859 1.390 . S
C851 C850 1.387 . S
C851 C853 1.387 . S
H852 C859 0.950 . S
C853 C851 1.387 . S
C853 C855 1.390 . S
C853 H857 0.950 . S
H854 C850 0.950 . S
C855 C853 1.390 . S
C855 C856 1.387 . S
C855 H858 0.950 . S
C856 C855 1.387 . S
C856 C859 1.387 . S
H857 C853 0.950 . S
H858 C855 0.950 . S
C859 C850 1.390 . S
C859 H852 0.950 . S
C859 C856 1.387 . S
C860 C861 1.387 . S
C860 H864 0.950 . S
C860 C869 1.390 . S
C861 C860 1.387 . S
C861 C863 1.387 . S
H862 C869 0.950 . S
C863 C861 1.387 . S
C863 C865 1.390 . S
C863 H867 0.950 . S
H864 C860 0.950 . S
C865 C863 1.390 . S
C865 C866 1.387 . S
C865 H868 0.950 . S
C866 C865 1.387 . S
C866 C869 1.387 . S
H867 C863 0.950 . S
H868 C865 0.950 . S
C869 C860 1.390 . S
C869 H862 0.950 . S
C869 C866 1.387 . S
C870 C871 1.387 . S
C870 H874 0.950 . S
C870 C879 1.390 . S
C871 C870 1.387 . S
C871 C873 1.387 . S
H872 C879 0.950 . S
C873 C871 1.387 . S
C873 C875 1.390 . S
C873 H877 0.950 . S
H874 C870 0.950 . S
C875 C873 1.390 . S
C875 C876 1.387 . S
C875 H878 0.950 . S
C876 C875 1.387 . S
C876 C879 1.387 . S
H877 C873 0.950 . S
H878 C875 0.950 . S
C879 C870 1.390 . S
C879 H872 0.950 . S
C879 C876 1.387 . S
C880 C881 1.387 . S
C880 H884 0.950 . S
C880 C889 1.390 . S
C881 C880 1.387 . S
C881 C883 1.387 . S
H882 C889 0.950 . S
C883 C881 1.387 . S
C883 C885 1.390 . S
C883 H887 0.950 . S
H884 C880 0.950 . S
C885 C883 1.390 . S
C885 C886 1.387 . S
C885 H888 0.950 . S
C886 C885 1.387 . S
C886 C889 1.387 . S
H887 C883 0.950 . S
H888 C885 0.950 . S
C889 C880 1.390 . S
C889 H882 0.950 . S
C889 C886 1.387 . S
C890 C891 1.387 . S
C890 H894 0.950 . S
C890 C899 1.390 . S
C891 C890 1.387 . S
C891 C893 1.387 . S
H892 C899 0.950 . S
C893 C891 1.387 . S
C893 C895 1.390 . S
C893 H897 0.950 . S
H894 C890 0.950 . S
C895 C893 1.390 . S
C895 C896 1.387 . S
C895 H898 0.950 . S
C896 C895 1.387 . S
C896 C899 1.387 . S
H897 C893 0.950 . S
H898 C895 0.950 . S
C899 C890 1.390 . S
C899 H892 0.950 . S
C899 C896 1.387 . S
C900 C901 1.387 . S
C900 H904 0.950 . S
C900 C909 1.390 . S
C901 C900 1.387 . S
C901 C903 1.387 . S
H902 C909 0.950 . S
C903 C901 1.387 . S
C903 C905 1.390 . S
C903 H907 0.950 . S
H904 C900 0.950 . S
C905 C903 1.390 . S
C905 C906 1.387 . S
C905 H908 0.950 . S
C906 C905 1.387 . S
C906 C909 1.387 . S
H907 C903 0.950 . S
H908 C905 0.950 . S
C909 C900 1.390 . S
C909 H902 0.950 . S
C909 C906 1.387 . S
C910 C911 1.387 . S
C910 H914 0.950 . S
C910 C919 1.390 . S
C911 C910 1.387 . S
C911 C913 1.387 . S
H912 C919 0.950 . S
C913 C911 1.387 . S
C913 C915 1.390 . S
C913 H917 0.950 . S
H914 C910 0.950 . S
C915 C913 1.390 . S
C915 C916 1.387 . S
C915 H918 0.950 . S
C916 C915 1.387 . S
C916 C919 1.387 . S
H917 C913 0.950 . S
H918 C915 0.950 . S
C919 C910 1.390 . S
C919 H912 0.950 . S
C919 C916 1.387 . S
C920 C921 1.387 . S
C920 H924 0.950 . S
C920 C929 1.390 . S
C921 C920 1.387 . S
C921 C923 1.387 . S
H922 C929 0.950 . S
C923 C921 1.387 . S
C923 C925 1.390 . S
C923 H927 0.950 . S
H924 C920 0.950 . S
C925 C923 1.390 . S
C925 C926 1.387 . S
C925 H928 0.950 . S
C926 C925 1.387 . S
C926 C929 1.387 . S
H927 C923 0.950 . S
H928 C925 0.950 . S
C929 C920 1.390 . S
C929 H922 0.950 . S
C929 C926 1.387 . S
C930 C931 1.387 . S
C930 H934 0.950 . S
C930 C939 1.390 . S
C931 C930 1.387 . S
C931 C933 1.387 . S
H932 C939 0.950 . S
C933 C931 1.387 . S
C933 C935 1.390 . S
C933 H937 0.950 . S
H934 C930 0.950 . S
C935 C933 1.390 . S
C935 C936 1.387 . S
C935 H938 0.950 . S
C936 C935 1.387 . S
C936 C939 1.387 . S
H937 C933 0.950 . S
H938 C935 0.950 . S
C939 C930 1.390 . S
C939 H932 0.950 . S
C939 C936 1.387 . S
C940 C941 1.387 . S
C940 H944 0.950 . S
C940 C949 1.390 . S
C941 C940 1.387 . S
C941 C943 1.387 . S
H942 C949 0.950 . S
C943 C941 1.387 . S
C943 C945 1.390 . S
C943 H947 0.950 . S
H944 C940 0.950 . S
C945 C943 1.390 . S
C945 C946 1.387 . S
C945 H948 0.950 . S
C946 C945 1.387 . S
C946 C949 1.387 . S
H947 C943 0.950 . S
H948 C945 0.950 . S
C949 C940 1.390 . S
C949 H942 0.950 . S
C949 C946 1.387 . S
C950 C951 1.387 . S
C950 H954 0.950 . S
C950 C959 1.390 . S
C951 C950 1.387 . S
C951 C953 1.387 . S
H952 C959 0.950 . S
C953 C951 1.387 . S
C953 C955 1.390 . S
C953 H957 0.950 . S
H954 C950 0.950 . S
C955 C953 1.390 . S
C955 C956 1.387 . S
C955 H958 0.950 . S
C956 C955 1.387 . S
C956 C959 1.387 . S
H957 C953 0.950 . S
H958 C955 0.950 . S
C959 C950 1.390 . S
C959 H952 0.950 . S
C959 C956 1.387 . S
C960 C961 1.387 . S
C960 H964 0.950 . S
C960 C969 1.390 . S
C961 C960 1.387 . S
C961 C963 1.387 . S
H962 C969 0.950 . S
C963 C961 1.387 . S
C963 C965 1.390 . S
C963 H967 0.950 1_556 S
H964 C960 0.950 . S
C965 C963 1.390 . S
C965 C966 1.387 . S
C965 H968 0.950 . S
C966 C965 1.387 . S
C966 C969 1.387 . S
H967 C963 0.950 1_554 S
H968 C965 0.950 . S
C969 C960 1.390 . S
C969 H962 0.950 . S
C969 C966 1.387 . S
C970 C971 1.387 . S
C970 H974 0.950 . S
C970 C979 1.390 . S
C971 C970 1.387 . S
C971 C973 1.387 . S
H972 C979 0.950 . S
C973 C971 1.387 . S
C973 C975 1.390 . S
C973 H977 0.950 . S
H974 C970 0.950 . S
C975 C973 1.390 . S
C975 C976 1.387 . S
C975 H978 0.950 . S
C976 C975 1.387 . S
C976 C979 1.387 . S
H977 C973 0.950 . S
H978 C975 0.950 . S
C979 C970 1.390 . S
C979 H972 0.950 . S
C979 C976 1.387 . S
C980 C981 1.387 . S
C980 H984 0.950 . S
C980 C989 1.390 . S
C981 C980 1.387 . S
C981 C983 1.387 . S
H982 C989 0.950 . S
C983 C981 1.387 . S
C983 C985 1.390 . S
C983 H987 0.950 . S
H984 C980 0.950 . S
C985 C983 1.390 . S
C985 C986 1.387 . S
C985 H988 0.950 . S
C986 C985 1.387 . S
C986 C989 1.387 . S
H987 C983 0.950 . S
H988 C985 0.950 . S
C989 C980 1.390 . S
C989 H982 0.950 . S
C989 C986 1.387 . S
C990 C991 1.387 . S
C990 H994 0.950 . S
C990 C999 1.390 . S
C991 C990 1.387 . S
C991 C993 1.387 . S
H992 C999 0.950 . S
C993 C991 1.387 . S
C993 C995 1.390 . S
C993 H997 0.950 . S
H994 C990 0.950 . S
C995 C993 1.390 . S
C995 C996 1.387 . S
C995 H998 0.950 . S
C996 C995 1.387 . S
C996 C999 1.387 . S
H997 C993 0.950 . S
H998 C995 0.950 . S
C999 C990 1.390 . S
C999 H992 0.950 . S
C999 C996 1.387 . S
C1000 C1001 1.387 . S
C1000 H1004 0.950 . S
C1000 C1009 1.390 . S
C1001 C1000 1.387 . S
C1001 C1003 1.387 . S
H1002 C1009 0.950 1_556 S
C1003 C1001 1.387 . S
C1003 C1005 1.390 . S
C1003 H1007 0.950 . S
H1004 C1000 0.950 . S
C1005 C1003 1.390 . S
C1005 C1006 1.387 . S
C1005 H1008 0.950 . S
C1006 C1005 1.387 . S
C1006 C1009 1.387 . S
H1007 C1003 0.950 . S
H1008 C1005 0.950 . S
C1009 C1000 1.390 . S
C1009 H1002 0.950 1_554 S
C1009 C1006 1.387 . S
C1010 C1011 1.387 . S
C1010 H1014 0.950 . S
C1010 C1019 1.390 . S
C1011 C1010 1.387 . S
C1011 C1013 1.387 . S
H1012 C1019 0.950 . S
C1013 C1011 1.387 . S
C1013 C1015 1.390 . S
C1013 H1017 0.950 . S
H1014 C1010 0.950 . S
C1015 C1013 1.390 . S
C1015 C1016 1.387 . S
C1015 H1018 0.950 . S
C1016 C1015 1.387 . S
C1016 C1019 1.387 . S
H1017 C1013 0.950 . S
H1018 C1015 0.950 . S
C1019 C1010 1.390 . S
C1019 H1012 0.950 . S
C1019 C1016 1.387 . S
C1020 C1021 1.387 . S
C1020 H1024 0.950 . S
C1020 C1029 1.390 . S
C1021 C1020 1.387 . S
C1021 C1023 1.387 . S
H1022 C1029 0.950 . S
C1023 C1021 1.387 . S
C1023 C1025 1.390 . S
C1023 H1027 0.950 . S
H1024 C1020 0.950 . S
C1025 C1023 1.390 . S
C1025 C1026 1.387 . S
C1025 H1028 0.950 . S
C1026 C1025 1.387 . S
C1026 C1029 1.387 . S
H1027 C1023 0.950 . S
H1028 C1025 0.950 . S
C1029 C1020 1.390 . S
C1029 H1022 0.950 . S
C1029 C1026 1.387 . S
C1030 C1031 1.387 . S
C1030 H1034 0.950 . S
C1030 C1039 1.390 . S
C1031 C1030 1.387 . S
C1031 C1033 1.387 . S
H1032 C1039 0.950 . S
C1033 C1031 1.387 . S
C1033 C1035 1.390 . S
C1033 H1037 0.950 . S
H1034 C1030 0.950 . S
C1035 C1033 1.390 . S
C1035 C1036 1.387 . S
C1035 H1038 0.950 . S
C1036 C1035 1.387 . S
C1036 C1039 1.387 . S
H1037 C1033 0.950 . S
H1038 C1035 0.950 . S
C1039 C1030 1.390 . S
C1039 H1032 0.950 . S
C1039 C1036 1.387 . S
C1040 C1041 1.387 . S
C1040 H1044 0.950 . S
C1040 C1049 1.390 . S
C1041 C1040 1.387 . S
C1041 C1043 1.387 . S
H1042 C1049 0.950 . S
C1043 C1041 1.387 . S
C1043 C1045 1.390 . S
C1043 H1047 0.950 . S
H1044 C1040 0.950 . S
C1045 C1043 1.390 . S
C1045 C1046 1.387 . S
C1045 H1048 0.950 . S
C1046 C1045 1.387 . S
C1046 C1049 1.387 . S
H1047 C1043 0.950 . S
H1048 C1045 0.950 . S
C1049 C1040 1.390 . S
C1049 H1042 0.950 . S
C1049 C1046 1.387 . S
C1050 C1051 1.387 . S
C1050 H1054 0.950 . S
C1050 C1059 1.390 . S
C1051 C1050 1.387 . S
C1051 C1053 1.387 . S
H1052 C1059 0.950 . S
C1053 C1051 1.387 . S
C1053 C1055 1.390 . S
C1053 H1057 0.950 . S
H1054 C1050 0.950 . S
C1055 C1053 1.390 . S
C1055 C1056 1.387 . S
C1055 H1058 0.950 1_565 S
C1056 C1055 1.387 . S
C1056 C1059 1.387 . S
H1057 C1053 0.950 . S
H1058 C1055 0.950 1_545 S
C1059 C1050 1.390 . S
C1059 H1052 0.950 . S
C1059 C1056 1.387 . S
C1060 C1061 1.387 . S
C1060 H1064 0.950 . S
C1060 C1069 1.390 . S
C1061 C1060 1.387 . S
C1061 C1063 1.387 . S
H1062 C1069 0.950 . S
C1063 C1061 1.387 . S
C1063 C1065 1.390 . S
C1063 H1067 0.950 . S
H1064 C1060 0.950 . S
C1065 C1063 1.390 . S
C1065 C1066 1.387 . S
C1065 H1068 0.950 1_556 S
C1066 C1065 1.387 . S
C1066 C1069 1.387 . S
H1067 C1063 0.950 . S
H1068 C1065 0.950 1_554 S
C1069 C1060 1.390 . S
C1069 H1062 0.950 . S
C1069 C1066 1.387 . S
C1070 C1071 1.387 . S
C1070 H1074 0.950 . S
C1070 C1079 1.390 . S
C1071 C1070 1.387 . S
C1071 C1073 1.387 . S
H1072 C1079 0.950 . S
C1073 C1071 1.387 . S
C1073 C1075 1.390 . S
C1073 H1077 0.950 1_545 S
H1074 C1070 0.950 . S
C1075 C1073 1.390 . S
C1075 C1076 1.387 . S
C1075 H1078 0.950 . S
C1076 C1075 1.387 . S
C1076 C1079 1.387 . S
H1077 C1073 0.950 1_565 S
H1078 C1075 0.950 . S
C1079 C1070 1.390 . S
C1079 H1072 0.950 . S
C1079 C1076 1.387 . S
C1080 C1081 1.387 . S
C1080 H1084 0.950 . S
C1080 C1089 1.390 . S
C1081 C1080 1.387 . S
C1081 C1083 1.387 . S
H1082 C1089 0.950 . S
C1083 C1081 1.387 . S
C1083 C1085 1.390 . S
C1083 H1087 0.950 . S
H1084 C1080 0.950 . S
C1085 C1083 1.390 . S
C1085 C1086 1.387 . S
C1085 H1088 0.950 . S
C1086 C1085 1.387 . S
C1086 C1089 1.387 . S
H1087 C1083 0.950 . S
H1088 C1085 0.950 . S
C1089 C1080 1.390 . S
C1089 H1082 0.950 . S
C1089 C1086 1.387 . S
C1090 C1091 1.387 . S
C1090 H1094 0.950 . S
C1090 C1099 1.390 . S
C1091 C1090 1.387 . S
C1091 C1093 1.387 . S
H1092 C1099 0.950 . S
C1093 C1091 1.387 . S
C1093 C1095 1.390 . S
C1093 H1097 0.950 . S
H1094 C1090 0.950 . S
C1095 C1093 1.390 . S
C1095 C1096 1.387 . S
C1095 H1098 0.950 . S
C1096 C1095 1.387 . S
C1096 C1099 1.387 . S
H1097 C1093 0.950 . S
H1098 C1095 0.950 . S
C1099 C1090 1.390 . S
C1099 H1092 0.950 . S
C1099 C1096 1.387 . S
C1100 C1101 1.387 . S
C1100 H1104 0.950 . S
C1100 C1109 1.390 . S
C1101 C1100 1.387 . S
C1101 C1103 1.387 . S
H1102 C1109 0.950 . S
C1103 C1101 1.387 . S
C1103 C1105 1.390 . S
C1103 H1107 0.950 . S
H1104 C1100 0.950 . S
C1105 C1103 1.390 . S
C1105 C1106 1.387 . S
C1105 H1108 0.950 . S
C1106 C1105 1.387 . S
C1106 C1109 1.387 . S
H1107 C1103 0.950 . S
H1108 C1105 0.950 . S
C1109 C1100 1.390 . S
C1109 H1102 0.950 . S
C1109 C1106 1.387 . S
C1110 C1111 1.387 . S
C1110 H1114 0.950 . S
C1110 C1119 1.390 . S
C1111 C1110 1.387 . S
C1111 C1113 1.387 . S
H1112 C1119 0.950 1_545 S
C1113 C1111 1.387 . S
C1113 C1115 1.390 . S
C1113 H1117 0.950 . S
H1114 C1110 0.950 . S
C1115 C1113 1.390 . S
C1115 C1116 1.387 . S
C1115 H1118 0.950 . S
C1116 C1115 1.387 . S
C1116 C1119 1.387 . S
H1117 C1113 0.950 . S
H1118 C1115 0.950 . S
C1119 C1110 1.390 . S
C1119 H1112 0.950 1_565 S
C1119 C1116 1.387 . S
C641 C2 3.151 . S
C646 C402 3.151 . S
C651 C42 3.151 . S
C656 C442 3.151 . S
C661 C82 3.151 . S
C666 C322 3.151 . S
C671 C362 3.151 . S
C676 C122 3.151 . S
C681 C183 3.151 . S
C686 C583 3.151 . S
C691 C623 3.152 . S
C696 C223 3.152 . S
C701 C503 3.151 . S
C706 C263 3.151 . S
C711 C303 3.151 . S
C716 C543 3.151 . S
C721 C17 1.155 1_556 S
C726 C186 1.155 1_554 S
C731 C57 1.162 . S
C736 C546 1.162 . S
C741 C97 1.162 . S
C746 C266 1.162 . S
C751 C137 1.156 . S
C756 C626 1.156 . S
C761 C226 1.161 . S
C766 C377 1.161 . S
C771 C457 1.155 . S
C776 C306 1.155 . S
C781 C506 1.162 . S
C786 C337 1.162 . S
C791 C417 1.163 1_556 S
C796 C586 1.163 1_554 S
C801 C26 1.476 . S
C806 C282 1.575 . S
C811 C66 1.480 . S
C816 C482 1.578 . S
C821 C106 1.475 . S
C826 C202 1.573 . S
C831 C146 1.477 . S
C836 C562 1.574 . S
C841 C143 1.576 . S
C846 C177 1.480 . S
C851 C217 1.476 . S
C856 C343 1.573 . S
C861 C257 1.477 . S
C866 C63 1.574 . S
C871 C423 1.573 . S
C876 C297 1.476 . S
C881 C346 1.478 . S
C886 C602 1.575 . S
C891 C162 1.573 . S
C896 C386 1.476 . S
C901 C522 1.573 . S
C906 C426 1.475 . S
C911 C242 1.577 . S
C916 C466 1.479 . S
C921 C497 1.476 . S
C926 C463 1.573 . S
C931 C537 1.480 . S
C936 C23 1.577 . S
C941 C383 1.578 . S
C946 C577 1.481 . S
C951 C617 1.476 . S
C956 C103 1.573 . S
C961 C24 4.033 1_556 S
C966 C373 4.083 . S
C971 C413 4.083 . S
C976 C64 4.033 . S
C981 C104 4.034 . S
C986 C453 4.084 . S
C991 C333 4.083 . S
C996 C144 4.033 . S
C1001 C544 4.082 . S
C1006 C173 4.033 1_554 S
C1011 C584 4.084 . S
C1016 C213 4.034 . S
C1021 C624 4.082 . S
C1026 C253 4.033 . S
C1031 C504 4.082 . S
C1036 C293 4.033 . S
C1041 C53 4.082 . S
C1046 C344 4.033 . S
C1051 C93 4.082 . S
C1056 C384 4.033 1_565 S
C1061 C133 4.082 . S
C1066 C424 4.033 1_556 S
C1071 C464 4.033 1_545 S
C1076 C13 4.082 . S
C1081 C224 4.083 . S
C1086 C493 4.034 . S
C1091 C264 4.084 . S
C1096 C533 4.034 1_545 S
C1101 C304 4.083 . S
C1106 C573 4.034 1_554 S
C1111 C184 4.083 . S
C1116 C613 4.033 1_565 S
