# Generated by pormake.
# Topology zff, (5)-cn, num edge types: 1
# Building blocks:
#     Node 0, Type 0, BuildingBlock: XOMCOT_clean_sbu_1, # of connection points: 5
#     Node 1, Type 0, BuildingBlock: XOMCOT_clean_sbu_1, # of connection points: 5
#     Node 2, Type 0, BuildingBlock: XOMCOT_clean_sbu_1, # of connection points: 5
#     Node 3, Type 0, BuildingBlock: XOMCOT_clean_sbu_1, # of connection points: 5
#     Node 4, Type 0, BuildingBlock: XOMCOT_clean_sbu_1, # of connection points: 5
#     Node 5, Type 0, BuildingBlock: XOMCOT_clean_sbu_1, # of connection points: 5
#     Node 6, Type 0, BuildingBlock: XOMCOT_clean_sbu_1, # of connection points: 5
#     Node 7, Type 0, BuildingBlock: XOMCOT_clean_sbu_1, # of connection points: 5
#     Node 8, Type 0, BuildingBlock: XOMCOT_clean_sbu_1, # of connection points: 5
#     Node 9, Type 0, BuildingBlock: XOMCOT_clean_sbu_1, # of connection points: 5
#     Node 10, Type 0, BuildingBlock: XOMCOT_clean_sbu_1, # of connection points: 5
#     Node 11, Type 0, BuildingBlock: XOMCOT_clean_sbu_1, # of connection points: 5
#     Node 12, Type 0, BuildingBlock: XOMCOT_clean_sbu_1, # of connection points: 5
#     Node 13, Type 0, BuildingBlock: XOMCOT_clean_sbu_1, # of connection points: 5
#     Node 14, Type 0, BuildingBlock: XOMCOT_clean_sbu_1, # of connection points: 5
#     Node 15, Type 0, BuildingBlock: XOMCOT_clean_sbu_1, # of connection points: 5
#     Edge 16, Type (0, 0), BuildingBlock: MIFKUJ_clean_linker_0, # of connection points: 2
#     Edge 17, Type (0, 0), BuildingBlock: MIFKUJ_clean_linker_0, # of connection points: 2
#     Edge 18, Type (0, 0), BuildingBlock: MIFKUJ_clean_linker_0, # of connection points: 2
#     Edge 19, Type (0, 0), BuildingBlock: MIFKUJ_clean_linker_0, # of connection points: 2
#     Edge 20, Type (0, 0), BuildingBlock: MIFKUJ_clean_linker_0, # of connection points: 2
#     Edge 21, Type (0, 0), BuildingBlock: MIFKUJ_clean_linker_0, # of connection points: 2
#     Edge 22, Type (0, 0), BuildingBlock: MIFKUJ_clean_linker_0, # of connection points: 2
#     Edge 23, Type (0, 0), BuildingBlock: MIFKUJ_clean_linker_0, # of connection points: 2
#     Edge 24, Type (0, 0), BuildingBlock: MIFKUJ_clean_linker_0, # of connection points: 2
#     Edge 25, Type (0, 0), BuildingBlock: MIFKUJ_clean_linker_0, # of connection points: 2
#     Edge 26, Type (0, 0), BuildingBlock: MIFKUJ_clean_linker_0, # of connection points: 2
#     Edge 27, Type (0, 0), BuildingBlock: MIFKUJ_clean_linker_0, # of connection points: 2
#     Edge 28, Type (0, 0), BuildingBlock: MIFKUJ_clean_linker_0, # of connection points: 2
#     Edge 29, Type (0, 0), BuildingBlock: MIFKUJ_clean_linker_0, # of connection points: 2
#     Edge 30, Type (0, 0), BuildingBlock: MIFKUJ_clean_linker_0, # of connection points: 2
#     Edge 31, Type (0, 0), BuildingBlock: MIFKUJ_clean_linker_0, # of connection points: 2
#     Edge 32, Type (0, 0), BuildingBlock: MIFKUJ_clean_linker_0, # of connection points: 2
#     Edge 33, Type (0, 0), BuildingBlock: MIFKUJ_clean_linker_0, # of connection points: 2
#     Edge 34, Type (0, 0), BuildingBlock: MIFKUJ_clean_linker_0, # of connection points: 2
#     Edge 35, Type (0, 0), BuildingBlock: MIFKUJ_clean_linker_0, # of connection points: 2
#     Edge 36, Type (0, 0), BuildingBlock: MIFKUJ_clean_linker_0, # of connection points: 2
#     Edge 37, Type (0, 0), BuildingBlock: MIFKUJ_clean_linker_0, # of connection points: 2
#     Edge 38, Type (0, 0), BuildingBlock: MIFKUJ_clean_linker_0, # of connection points: 2
#     Edge 39, Type (0, 0), BuildingBlock: MIFKUJ_clean_linker_0, # of connection points: 2
#     Edge 40, Type (0, 0), BuildingBlock: MIFKUJ_clean_linker_0, # of connection points: 2
#     Edge 41, Type (0, 0), BuildingBlock: MIFKUJ_clean_linker_0, # of connection points: 2
#     Edge 42, Type (0, 0), BuildingBlock: MIFKUJ_clean_linker_0, # of connection points: 2
#     Edge 43, Type (0, 0), BuildingBlock: MIFKUJ_clean_linker_0, # of connection points: 2
#     Edge 44, Type (0, 0), BuildingBlock: MIFKUJ_clean_linker_0, # of connection points: 2
#     Edge 45, Type (0, 0), BuildingBlock: MIFKUJ_clean_linker_0, # of connection points: 2
#     Edge 46, Type (0, 0), BuildingBlock: MIFKUJ_clean_linker_0, # of connection points: 2
#     Edge 47, Type (0, 0), BuildingBlock: MIFKUJ_clean_linker_0, # of connection points: 2
#     Edge 48, Type (0, 0), BuildingBlock: MIFKUJ_clean_linker_0, # of connection points: 2
#     Edge 49, Type (0, 0), BuildingBlock: MIFKUJ_clean_linker_0, # of connection points: 2
#     Edge 50, Type (0, 0), BuildingBlock: MIFKUJ_clean_linker_0, # of connection points: 2
#     Edge 51, Type (0, 0), BuildingBlock: MIFKUJ_clean_linker_0, # of connection points: 2
#     Edge 52, Type (0, 0), BuildingBlock: MIFKUJ_clean_linker_0, # of connection points: 2
#     Edge 53, Type (0, 0), BuildingBlock: MIFKUJ_clean_linker_0, # of connection points: 2
#     Edge 54, Type (0, 0), BuildingBlock: MIFKUJ_clean_linker_0, # of connection points: 2
#     Edge 55, Type (0, 0), BuildingBlock: MIFKUJ_clean_linker_0, # of connection points: 2
# Relax obj value: 0.163
# Max RMSD: 0.198
# Mean RMSD: 0.198
data_MOF--net-zff--node1-XOMCOT_clean_sbu_1--edge1-MIFKUJ_clean_linker_0
_symmetry_space_group_name_H-M    P1
_symmetry_Int_Tables_number       1
_symmetry_cell_setting            triclinic
loop_
_symmetry_equiv_pos_as_xyz
'x, y, z'
_cell_length_a     47.385363
_cell_length_b     47.204153
_cell_length_c     82.83395
_cell_angle_alpha  89.958501
_cell_angle_beta   90.099032
_cell_angle_gamma 89.99341
loop_
_atom_site_label
_atom_site_type_symbol
_atom_site_fract_x
_atom_site_fract_y
_atom_site_fract_z
_atom_type_partial_charge
C0 C 0.98217 0.35468 0.41338 0.0
C1 C 0.97657 0.35597 0.42961 0.0
N2 N 0.99531 0.33943 0.43745 0.0
N3 N 0.0043 0.33738 0.41085 0.0
C4 C 0.01212 0.32852 0.42577 0.0
H5 H 0.97077 0.3656 0.40392 0.0
Co6 Co 0.01695 0.33042 0.38992 0.0
C7 C 0.04869 0.27659 0.39262 0.0
O8 O 0.03314 0.26559 0.38112 0.0
N9 N 0.02953 0.32455 0.36791 0.0
C10 C 0.03333 0.30898 0.34247 0.0
C11 C 0.02024 0.30513 0.35706 0.0
C12 C 0.04829 0.34018 0.35918 0.0
N13 N 0.05085 0.33117 0.34375 0.0
O14 O 0.04488 0.3584 0.39339 0.0
H15 H 0.00461 0.28899 0.35932 0.0
H16 H 0.05998 0.35798 0.36389 0.0
O17 O 0.04401 0.30182 0.39756 0.0
C18 C 0.03719 0.38318 0.38935 0.0
O19 O 0.01535 0.38593 0.37968 0.0
N20 N 0.98718 0.30442 0.38762 0.0
C21 C 0.93812 0.272 0.38631 0.0
C22 C 0.95969 0.26526 0.39722 0.0
C23 C 0.98367 0.28219 0.398 0.0
C24 C 0.96566 0.31233 0.37761 0.0
C25 C 0.94099 0.29614 0.3766 0.0
H26 H -0.00092 0.27775 0.40727 0.0
H27 H 0.96771 0.33132 0.37039 0.0
H28 H 0.02933 0.31396 0.428 0.0
H29 H 0.96009 0.36839 0.43522 0.0
H30 H 0.02947 0.29695 0.33156 0.0
H31 H 0.95767 0.24746 0.40541 0.0
H32 H 0.92445 0.30233 0.36827 0.0
C33 C 0.66006 0.99064 0.41302 0.0
C34 C 0.65854 0.98864 0.4295 0.0
N35 N 0.67857 0.00539 0.43596 0.0
N36 N 0.68075 0.00879 0.40888 0.0
C37 C 0.69194 0.0174 0.42319 0.0
H38 H 0.64675 0.97961 0.40447 0.0
Co39 Co 0.68648 0.01616 0.38685 0.0
C40 C 0.73698 0.05138 0.38457 0.0
O41 O 0.74688 0.03322 0.37403 0.0
N42 N 0.69067 0.02328 0.36374 0.0
C43 C 0.70252 0.02035 0.33759 0.0
C44 C 0.70724 0.00977 0.35284 0.0
C45 C 0.67599 0.04208 0.35441 0.0
N46 N 0.68262 0.04049 0.33855 0.0
O47 O 0.65674 0.04262 0.38804 0.0
H48 H 0.72229 0.9933 0.35555 0.0
H49 H 0.66061 0.05689 0.35901 0.0
O50 O 0.71327 0.04678 0.39144 0.0
C51 C 0.63352 0.03231 0.38318 0.0
O52 O 0.63358 0.00775 0.37573 0.0
N53 N 0.71416 0.98769 0.38689 0.0
C54 C 0.74687 0.93901 0.39104 0.0
C55 C 0.75427 0.96445 0.39867 0.0
C56 C 0.73733 0.98834 0.39673 0.0
C57 C 0.70597 0.96284 0.37992 0.0
C58 C 0.7223 0.93835 0.38157 0.0
H59 H 0.74223 0.00692 0.40378 0.0
H60 H 0.68638 0.96198 0.37321 0.0
H61 H 0.70915 0.03236 0.42425 0.0
H62 H 0.64397 0.97557 0.43627 0.0
H63 H 0.7124 0.01318 0.32654 0.0
H64 H 0.77235 0.9656 0.40667 0.0
H65 H 0.71559 0.91905 0.37564 0.0
C66 C 0.02167 0.655 0.41136 0.0
C67 C 0.02647 0.65455 0.42769 0.0
N68 N 0.00506 0.66812 0.43508 0.0
N69 N -0.00256 0.66891 0.40831 0.0
C70 C 0.98757 0.67654 0.42303 0.0
H71 H 0.03495 0.64566 0.40218 0.0
Co72 Co 0.98449 0.67342 0.3872 0.0
C73 C 0.95062 0.72607 0.3883 0.0
O74 O 0.96585 0.73685 0.37661 0.0
N75 N 0.97163 0.67687 0.36506 0.0
C76 C 0.96681 0.69065 0.33933 0.0
C77 C 0.98015 0.69579 0.35374 0.0
C78 C 0.95314 0.66013 0.35682 0.0
N79 N 0.94992 0.66811 0.34122 0.0
O80 O 0.95769 0.64468 0.39152 0.0
H81 H 0.99528 0.71258 0.35554 0.0
H82 H 0.94202 0.64236 0.362 0.0
O83 O 0.95634 0.70153 0.39396 0.0
C84 C 0.96639 0.61994 0.38817 0.0
O85 O 0.98823 0.61733 0.37852 0.0
N86 N 0.01324 0.70033 0.38414 0.0
C87 C 0.06196 0.73331 0.38267 0.0
C88 C 0.0399 0.74056 0.3931 0.0
C89 C 0.01608 0.72339 0.39398 0.0
C90 C 0.03508 0.69218 0.37448 0.0
C91 C 0.05956 0.70861 0.37338 0.0
H92 H 0.00041 0.72812 0.40303 0.0
H93 H 0.03355 0.67264 0.36772 0.0
H94 H 0.9681 0.68807 0.42487 0.0
H95 H 0.04409 0.64443 0.43371 0.0
H96 H 0.96993 0.70213 0.32815 0.0
H97 H 0.0415 0.75881 0.40098 0.0
H98 H 0.07642 0.70203 0.36541 0.0
C99 C 0.33588 0.01938 0.40922 0.0
C100 C 0.33681 0.02225 0.42568 0.0
N101 N 0.32106 0.00159 0.43234 0.0
N102 N 0.31957 0.99707 0.4053 0.0
C103 C 0.31095 0.98632 0.41969 0.0
H104 H 0.34619 0.03298 0.40053 0.0
Co105 Co 0.3133 0.98963 0.3834 0.0
C106 C 0.26577 0.95126 0.38095 0.0
O107 O 0.2556 0.96889 0.37014 0.0
N108 N 0.30839 0.98262 0.36041 0.0
C109 C 0.29906 0.98767 0.33409 0.0
C110 C 0.29415 -0.00187 0.34929 0.0
C111 C 0.32132 0.96232 0.35134 0.0
N112 N 0.31649 0.9653 0.33529 0.0
O113 O 0.34552 0.96614 0.38381 0.0
H114 H 0.28077 0.01605 0.35176 0.0
H115 H 0.33512 0.94629 0.35631 0.0
O116 O 0.28902 0.95695 0.38815 0.0
C117 C 0.3663 0.97958 0.37788 0.0
O118 O 0.36133 0.00322 0.36997 0.0
N119 N 0.2835 0.01583 0.38417 0.0
C120 C 0.24985 0.06303 0.39079 0.0
C121 C 0.2433 0.03641 0.39734 0.0
C122 C 0.26072 0.01324 0.39418 0.0
C123 C 0.29067 0.04175 0.37817 0.0
C124 C 0.27382 0.06546 0.38098 0.0
H125 H 0.25682 0.99382 0.40067 0.0
H126 H 0.31012 0.04412 0.37148 0.0
H127 H 0.29692 0.96835 0.42087 0.0
H128 H 0.34829 0.03837 0.43227 0.0
H129 H 0.29053 0.99617 0.32297 0.0
H130 H 0.22576 0.0338 0.40557 0.0
H131 H 0.2799 0.08562 0.3758 0.0
C132 C 0.96887 0.64357 0.63193 0.0
C133 C 0.96461 0.64057 0.6156 0.0
N134 N 0.9834 0.657 0.60778 0.0
N135 N 0.99009 0.66202 0.6345 0.0
C136 C -0.00113 0.66957 0.61953 0.0
H137 H 0.95711 0.63313 0.6414 0.0
Co138 Co 0.00233 0.67192 0.65532 0.0
C139 C 0.01969 0.73193 0.64682 0.0
O140 O -0.0035 0.74303 0.65268 0.0
N141 N 0.01545 0.68032 0.67668 0.0
C142 C 0.02999 0.70215 0.69912 0.0
C143 C 0.01888 0.70578 0.68391 0.0
C144 C 0.02427 0.66153 0.68808 0.0
N145 N 0.03341 0.67426 0.70176 0.0
O146 O 0.03473 0.64923 0.65149 0.0
H147 H 0.01342 0.72594 0.67875 0.0
H148 H 0.02458 0.63888 0.68642 0.0
O149 O 0.02347 0.70504 0.6471 0.0
C150 C 0.02973 0.62327 0.65433 0.0
O151 O 0.00607 0.61666 0.66169 0.0
N152 N 0.96819 0.69275 0.6586 0.0
C153 C 0.91508 0.71795 0.66212 0.0
C154 C 0.92941 0.7192 0.64741 0.0
C155 C 0.95562 0.70636 0.64586 0.0
C156 C 0.95395 0.69033 0.67288 0.0
C157 C 0.92762 0.70336 0.67502 0.0
H158 H 0.96626 0.70846 0.63443 0.0
H159 H 0.96266 0.67792 0.68266 0.0
H160 H 0.01582 0.68442 0.61731 0.0
H161 H 0.94897 0.62713 0.60993 0.0
H162 H 0.03483 0.71879 0.70767 0.0
H163 H 0.92071 0.73062 0.6372 0.0
H164 H 0.91694 0.70157 0.68653 0.0
C165 C 0.29309 0.96448 0.62935 0.0
C166 C 0.2963 0.95762 0.61335 0.0
N167 N 0.3063 0.98043 0.60543 0.0
N168 N 0.30046 0.99178 0.63172 0.0
C169 C 0.30933 0.00062 0.61696 0.0
H170 H 0.28557 0.95028 0.63862 0.0
Co171 Co 0.29967 0.01096 0.65193 0.0
C172 C 0.26843 0.05264 0.63021 0.0
O173 O 0.2623 0.03482 0.61855 0.0
N174 N 0.29925 0.02998 0.6723 0.0
C175 C 0.28221 0.05223 0.69395 0.0
C176 C 0.27585 0.04139 0.67897 0.0
C177 C 0.3198 0.03486 0.68346 0.0
N178 N 0.30988 0.04826 0.69677 0.0
O179 O 0.33557 0.02598 0.64717 0.0
H180 H 0.25524 0.04166 0.67335 0.0
H181 H 0.34153 0.02835 0.6821 0.0
O182 O 0.28176 0.04433 0.64275 0.0
C183 C 0.35275 0.00728 0.6522 0.0
O184 O 0.34283 0.98551 0.66032 0.0
N185 N 0.2653 0.99332 0.65703 0.0
C186 C 0.2237 0.95218 0.66083 0.0
C187 C 0.21881 0.97613 0.65117 0.0
C188 C 0.2399 0.99657 0.64946 0.0
C189 C 0.26933 0.9717 0.66769 0.0
C190 C 0.24882 0.95083 0.66977 0.0
H191 H 0.23607 0.01379 0.64132 0.0
H192 H 0.28954 0.96941 0.67364 0.0
H193 H 0.31736 0.0217 0.61467 0.0
H194 H 0.29079 0.93751 0.60793 0.0
H195 H 0.26765 0.06251 0.70211 0.0
H196 H 0.19968 0.97817 0.6441 0.0
H197 H 0.25322 0.93307 0.67767 0.0
C198 C 0.02436 0.34564 0.63388 0.0
C199 C 0.02917 0.34609 0.61756 0.0
N200 N 0.00828 0.33168 0.61018 0.0
N201 N 0.00062 0.33093 0.63692 0.0
C202 C 0.99102 0.32283 0.6222 0.0
H203 H 0.03744 0.35529 0.64307 0.0
Co204 Co 0.98895 0.32542 0.65816 0.0
C205 C 0.95439 0.27373 0.65747 0.0
O206 O 0.97025 0.26353 0.66909 0.0
N207 N 0.97758 0.32104 0.68054 0.0
C208 C 0.97701 0.30863 0.70662 0.0
C209 C 0.98838 0.30311 0.69176 0.0
C210 C 0.95911 0.33706 0.68923 0.0
N211 N 0.95877 0.33021 0.70512 0.0
O212 O 0.96277 0.3552 0.65499 0.0
H213 H 0.00369 0.28665 0.6896 0.0
H214 H 0.94678 0.35422 0.68424 0.0
O215 O 0.95972 0.29815 0.6515 0.0
C216 C 0.97263 0.3792 0.65902 0.0
O217 O 0.99475 0.37993 0.6686 0.0
N218 N 0.01728 0.29773 0.66005 0.0
C219 C 0.06581 0.26422 0.65921 0.0
C220 C 0.0426 0.25806 0.64929 0.0
C221 C 0.01882 0.2753 0.64968 0.0
C222 C 0.04019 0.30501 0.66915 0.0
C223 C 0.06442 0.28814 0.66924 0.0
H224 H 0.00224 0.27135 0.64102 0.0
H225 H 0.03967 0.3242 0.67628 0.0
H226 H 0.97217 0.31029 0.62036 0.0
H227 H 0.04659 0.35652 0.61156 0.0
H228 H 0.98201 0.29763 0.71773 0.0
H229 H 0.04324 0.24081 0.64069 0.0
H230 H 0.08198 0.29403 0.67691 0.0
C231 C 0.65918 0.01345 0.63044 0.0
C232 C 0.65849 0.01535 0.61397 0.0
N233 N 0.67746 0.99705 0.60786 0.0
N234 N 0.67839 0.99399 0.63497 0.0
C235 C 0.68952 0.98434 0.62089 0.0
H236 H 0.64625 0.02542 0.63875 0.0
Co237 Co 0.68155 0.98739 0.65716 0.0
C238 C 0.7285 0.94909 0.66325 0.0
O239 O 0.73662 0.96671 0.67461 0.0
N240 N 0.68284 0.98145 0.68034 0.0
C241 C 0.68822 0.98772 0.70689 0.0
C242 C 0.6941 -0.00162 0.69185 0.0
C243 C 0.67043 0.9603 0.68902 0.0
N244 N 0.67295 0.96386 0.70523 0.0
O245 O 0.65116 0.96186 0.65532 0.0
H246 H 0.70618 0.01734 0.68978 0.0
H247 H 0.65894 0.94297 0.68359 0.0
O248 O 0.7076 0.95557 0.65416 0.0
C249 C 0.62756 0.97152 0.65995 0.0
O250 O 0.62675 0.99576 0.66773 0.0
N251 N 0.71018 0.01475 0.65773 0.0
C252 C 0.74481 0.06212 0.65424 0.0
C253 C 0.75381 0.0354 0.64895 0.0
C254 C 0.73586 0.0121 0.6504 0.0
C255 C 0.70061 0.04081 0.66221 0.0
C256 C 0.71774 0.06473 0.66085 0.0
H257 H 0.74222 0.9924 0.64492 0.0
H258 H 0.67933 0.043 0.66677 0.0
H259 H 0.70553 0.96804 0.62019 0.0
H260 H 0.64506 0.02929 0.60697 0.0
H261 H 0.69481 0.99706 0.71821 0.0
H262 H 0.77409 0.03276 0.64313 0.0
H263 H 0.70981 0.08506 0.66486 0.0
C264 C 0.47852 0.82801 0.90834 0.0
C265 C 0.47239 0.83133 0.92442 0.0
N266 N 0.49438 0.82176 0.93325 0.0
N267 N 0.50428 0.81636 0.90682 0.0
C268 C 0.51363 0.81299 0.92219 0.0
H269 H 0.46507 0.83375 0.8983 0.0
Co270 Co 0.52026 0.80926 0.88648 0.0
C271 C 0.55635 0.75971 0.89693 0.0
O272 O 0.53926 0.74045 0.89107 0.0
N273 N 0.53669 0.80335 0.86555 0.0
C274 C 0.55479 0.78357 0.84337 0.0
C275 C 0.54299 0.77852 0.85828 0.0
C276 C 0.54497 0.82316 0.8546 0.0
N277 N 0.5561 0.81176 0.84101 0.0
O278 O 0.54313 0.84161 0.88979 0.0
H279 H 0.53885 0.75783 0.86322 0.0
H280 H 0.5426 0.84566 0.85636 0.0
O281 O 0.55051 0.78608 0.89583 0.0
C282 C 0.52988 0.86383 0.88564 0.0
O283 O 0.50609 0.86113 0.87761 0.0
N284 N 0.4948 0.77858 0.88365 0.0
C285 C 0.4482 0.74233 0.88141 0.0
C286 C 0.46491 0.74292 0.89536 0.0
C287 C 0.48763 0.76149 0.89635 0.0
C288 C 0.47859 0.77849 0.87 0.0
C289 C 0.45538 0.76029 0.86855 0.0
H290 H 0.4992 0.76248 0.90758 0.0
H291 H 0.48282 0.79348 0.86043 0.0
H292 H 0.53396 0.80397 0.92516 0.0
H293 H 0.4532 0.84047 0.92915 0.0
H294 H 0.56205 0.76756 0.83501 0.0
H295 H 0.45965 0.73016 0.9058 0.0
H296 H 0.44277 0.76082 0.85764 0.0
C297 C 0.16586 0.4795 0.91201 0.0
C298 C 0.16603 0.47287 0.92815 0.0
N299 N 0.17135 0.49665 0.93664 0.0
N300 N 0.17137 0.50729 0.91018 0.0
C301 C 0.17439 0.51732 0.9254 0.0
H302 H 0.1619 0.465 0.90216 0.0
Co303 Co 0.17284 0.52484 0.89001 0.0
C304 C 0.19304 0.58182 0.89705 0.0
O305 O 0.16963 0.5919 0.89075 0.0
N306 N 0.17408 0.54224 0.86933 0.0
C307 C 0.19115 0.56403 0.84758 0.0
C308 C 0.19778 0.55209 0.86224 0.0
C309 C 0.1533 0.54819 0.85854 0.0
N310 N 0.16312 0.56164 0.84522 0.0
O311 O 0.13957 0.54475 0.8956 0.0
H312 H 0.21866 0.55093 0.86749 0.0
H313 H 0.13128 0.54339 0.86049 0.0
O314 O 0.19631 0.55509 0.89837 0.0
C315 C 0.11762 0.53049 0.89229 0.0
O316 O 0.1203 0.50735 0.88361 0.0
N317 N 0.20461 0.50306 0.88504 0.0
C318 C 0.24383 0.45931 0.88247 0.0
C319 C 0.24838 0.4819 0.89316 0.0
C320 C 0.22841 0.50349 0.89435 0.0
C321 C 0.20053 0.4822 0.87393 0.0
C322 C 0.22 0.46012 0.87237 0.0
H323 H 0.23118 0.51924 0.90365 0.0
H324 H 0.18114 0.48167 0.86702 0.0
H325 H 0.1789 0.53926 0.92816 0.0
H326 H 0.16204 0.45213 0.93323 0.0
H327 H 0.20594 0.57356 0.83925 0.0
H328 H 0.26661 0.48225 0.90106 0.0
H329 H 0.2155 0.44297 0.86408 0.0
C330 C 0.49174 0.15192 0.91182 0.0
C331 C 0.49252 0.15141 0.92834 0.0
N332 N 0.47633 0.17264 0.93388 0.0
N333 N 0.47484 0.17306 0.90674 0.0
C334 C 0.4658 0.1857 0.92054 0.0
H335 H 0.5024 0.13739 0.90383 0.0
Co336 Co 0.47008 0.17594 0.88436 0.0
C337 C 0.43241 0.22294 0.87665 0.0
O338 O 0.44935 0.22857 0.86454 0.0
N339 N 0.46622 0.17663 0.86105 0.0
C340 C 0.47609 0.17823 0.83473 0.0
C341 C 0.48586 0.18395 0.84998 0.0
C342 C 0.44447 0.16655 0.8519 0.0
N343 N 0.45002 0.16707 0.83581 0.0
O344 O 0.44441 0.14505 0.8856 0.0
H345 H 0.50648 0.1924 0.85249 0.0
H346 H 0.42513 0.15838 0.85701 0.0
O347 O 0.43852 0.20296 0.88656 0.0
C348 C 0.45422 0.12173 0.88039 0.0
O349 O 0.47781 0.12203 0.87207 0.0
N350 N 0.49751 0.20471 0.88438 0.0
C351 C 0.54467 0.23919 0.88956 0.0
C352 C 0.51743 0.24886 0.89326 0.0
C353 C 0.4942 0.23111 0.8909 0.0
C354 C 0.52391 0.19458 0.88138 0.0
C355 C 0.54768 0.21163 0.88346 0.0
H356 H 0.474 0.23819 0.89528 0.0
H357 H 0.5265 0.17285 0.87751 0.0
H358 H 0.45147 0.20355 0.92084 0.0
H359 H 0.50403 0.13649 0.9358 0.0
H360 H 0.48804 0.18102 0.82373 0.0
H361 H 0.51417 0.26945 0.8987 0.0
H362 H 0.56824 0.20307 0.88053 0.0
C363 C 0.8196 0.51692 0.91293 0.0
C364 C 0.82107 0.52352 0.92904 0.0
N365 N 0.81729 0.49962 0.9377 0.0
N366 N 0.81442 0.48902 0.91128 0.0
C367 C 0.81323 0.47896 0.92657 0.0
H368 H 0.82226 0.53155 0.903 0.0
Co369 Co 0.8119 0.47076 0.89135 0.0
C370 C 0.78935 0.41545 0.90093 0.0
O371 O 0.81297 0.4035 0.89621 0.0
N372 N 0.80946 0.45272 0.87105 0.0
C373 C 0.7908 0.4326 0.84921 0.0
C374 C 0.78537 0.44275 0.86442 0.0
C375 C 0.8293 0.44834 0.85953 0.0
N376 N 0.81845 0.43615 0.84608 0.0
O377 O 0.84398 0.44915 0.89723 0.0
H378 H 0.76494 0.44321 0.87022 0.0
H379 H 0.85112 0.45464 0.86075 0.0
O380 O 0.78665 0.44233 0.90021 0.0
C381 C 0.86687 0.46173 0.89383 0.0
O382 O 0.86583 0.48515 0.88527 0.0
N383 N 0.78178 0.49426 0.88584 0.0
C384 C 0.74672 0.54146 0.88319 0.0
C385 C 0.73852 0.51779 0.89236 0.0
C386 C 0.75663 0.49464 0.89383 0.0
C387 C 0.78894 0.51571 0.87565 0.0
C388 C 0.77182 0.53966 0.87422 0.0
H389 H 0.75128 0.47826 0.90236 0.0
H390 H 0.80928 0.51534 0.86975 0.0
H391 H 0.81018 0.45681 0.92943 0.0
H392 H 0.82435 0.54449 0.93393 0.0
H393 H 0.77551 0.42321 0.84109 0.0
H394 H 0.71904 0.51773 0.89916 0.0
H395 H 0.77936 0.55733 0.86711 0.0
C396 C 0.47515 0.16658 0.13205 0.0
C397 C 0.46656 0.16595 0.11619 0.0
N398 N 0.48797 0.17509 0.10684 0.0
N399 N 0.50192 0.17603 0.13285 0.0
C400 C 0.50922 0.18114 0.11727 0.0
H401 H 0.4628 0.16023 0.14241 0.0
Co402 Co 0.52212 0.17806 0.15236 0.0
C403 C 0.57729 0.19875 0.14177 0.0
O404 O 0.5891 0.17525 0.14694 0.0
N405 N 0.54242 0.17974 0.17227 0.0
C406 C 0.56889 0.19679 0.19232 0.0
C407 C 0.55533 0.20315 0.17808 0.0
C408 C 0.54798 0.15951 0.18355 0.0
N409 N 0.56426 0.16934 0.1958 0.0
O410 O 0.54132 0.14474 0.14612 0.0
H411 H 0.55511 0.22365 0.17224 0.0
H412 H 0.54083 0.13783 0.18271 0.0
O413 O 0.55059 0.20157 0.1425 0.0
C414 C 0.52828 0.12241 0.15023 0.0
O415 O 0.50649 0.12462 0.15993 0.0
N416 N 0.50122 0.21009 0.15811 0.0
C417 C 0.46001 0.25132 0.16332 0.0
C418 C 0.47907 0.2537 0.15044 0.0
C419 C 0.49944 0.2329 0.14803 0.0
C420 C 0.48377 0.20784 0.17109 0.0
C421 C 0.46312 0.2284 0.17403 0.0
H422 H 0.51224 0.23411 0.13729 0.0
H423 H 0.48492 0.18928 0.17874 0.0
H424 H 0.52991 0.18835 0.1136 0.0
H425 H 0.44603 0.1593 0.11187 0.0
H426 H 0.58108 0.21133 0.19965 0.0
H427 H 0.47714 0.27042 0.14155 0.0
H428 H 0.44907 0.22574 0.18421 0.0
C429 C 0.79667 0.47055 0.13568 0.0
C430 C 0.79998 0.46242 0.11989 0.0
N431 N 0.80767 0.48522 0.11113 0.0
N432 N 0.80166 0.49857 0.13705 0.0
C433 C 0.80938 0.50667 0.12198 0.0
H434 H 0.79102 0.45676 0.14559 0.0
Co435 Co 0.80041 0.51846 0.15683 0.0
C436 C 0.76935 0.56235 0.13526 0.0
O437 O 0.76665 0.54804 0.12177 0.0
N438 N 0.79967 0.53802 0.17682 0.0
C439 C 0.78427 0.56546 0.19682 0.0
C440 C 0.7774 0.55298 0.18236 0.0
C441 C 0.81971 0.54131 0.18841 0.0
N442 N 0.8109 0.55812 0.20064 0.0
O443 O 0.83642 0.53367 0.15203 0.0
H444 H 0.75735 0.55489 0.17619 0.0
H445 H 0.8406 0.5322 0.18779 0.0
O446 O 0.78151 0.55119 0.14747 0.0
C447 C 0.85384 0.51511 0.15702 0.0
O448 O 0.84406 0.49305 0.16495 0.0
N449 N 0.76602 0.50105 0.16183 0.0
C450 C 0.72547 0.45882 0.1651 0.0
C451 C 0.72243 0.48002 0.15334 0.0
C452 C 0.74301 0.50102 0.15189 0.0
C453 C 0.76788 0.48234 0.17431 0.0
C454 C 0.74767 0.46115 0.17626 0.0
H455 H 0.74179 0.51512 0.14172 0.0
H456 H 0.78645 0.48226 0.18191 0.0
H457 H 0.81587 0.52802 0.11903 0.0
H458 H 0.7971 0.44115 0.11533 0.0
H459 H 0.77065 0.5788 0.20404 0.0
H460 H 0.70583 0.47895 0.14436 0.0
H461 H 0.75055 0.44555 0.18571 0.0
C462 C 0.52011 0.81441 0.13242 0.0
C463 C 0.52812 0.81737 0.11659 0.0
N464 N 0.50478 0.81955 0.10733 0.0
N465 N 0.49172 0.81423 0.13341 0.0
C466 C 0.48302 0.81835 0.11796 0.0
H467 H 0.5343 0.81284 0.1426 0.0
Co468 Co 0.47145 0.81205 0.15305 0.0
C469 C 0.43654 0.77045 0.13238 0.0
O470 O 0.45346 0.76755 0.11995 0.0
N471 N 0.45158 0.81039 0.17292 0.0
C472 C 0.42874 0.79239 0.19406 0.0
C473 C 0.44074 0.78646 0.17935 0.0
C474 C 0.44587 0.83065 0.18409 0.0
N475 N 0.43198 0.82024 0.19712 0.0
O476 O 0.4492 0.84299 0.146 0.0
H477 H 0.44174 0.76578 0.17377 0.0
H478 H 0.45228 0.85251 0.18292 0.0
O479 O 0.44354 0.78619 0.14425 0.0
C480 C 0.46048 0.86649 0.14969 0.0
O481 O 0.48317 0.86644 0.15883 0.0
N482 N 0.49505 0.78248 0.16009 0.0
C483 C 0.54118 0.74771 0.16677 0.0
C484 C 0.51951 0.73848 0.1565 0.0
C485 C 0.49669 0.75624 0.15324 0.0
C486 C 0.51464 0.79085 0.17117 0.0
C487 C 0.53803 0.77384 0.17463 0.0
H488 H 0.48164 0.74933 0.14441 0.0
H489 H 0.5132 0.81178 0.17641 0.0
H490 H 0.46103 0.82022 0.11462 0.0
H491 H 0.54969 0.81817 0.1124 0.0
H492 H 0.41823 0.77728 0.20183 0.0
H493 H 0.52115 0.71859 0.15005 0.0
H494 H 0.55414 0.78164 0.18279 0.0
C495 C 0.19607 0.52204 0.13423 0.0
C496 C 0.19203 0.53002 0.11842 0.0
N497 N 0.18324 0.50727 0.11 0.0
N498 N 0.19034 0.49417 0.13589 0.0
C499 C 0.18189 0.48599 0.12094 0.0
H500 H 0.20287 0.53589 0.14385 0.0
Co501 Co 0.19154 0.47274 0.15525 0.0
C502 C 0.22945 0.43761 0.13299 0.0
O503 O 0.23247 0.45644 0.12144 0.0
N504 N 0.19226 0.45162 0.17464 0.0
C505 C 0.20671 0.42215 0.19395 0.0
C506 C 0.21368 0.43478 0.17955 0.0
C507 C 0.17276 0.4494 0.18656 0.0
N508 N 0.181 0.43135 0.19838 0.0
O509 O 0.15845 0.45363 0.14856 0.0
H510 H 0.23334 0.43191 0.17316 0.0
H511 H 0.15276 0.46043 0.18652 0.0
O512 O 0.21465 0.44335 0.14543 0.0
C513 C 0.13715 0.46818 0.15274 0.0
O514 O 0.14102 0.49153 0.16107 0.0
N515 N 0.22294 0.4933 0.16239 0.0
C516 C 0.26068 0.53633 0.17018 0.0
C517 C 0.26875 0.51426 0.15984 0.0
C518 C 0.24952 0.49288 0.15607 0.0
C519 C 0.21569 0.51302 0.17364 0.0
C520 C 0.23424 0.53484 0.1777 0.0
H521 H 0.25572 0.47739 0.14731 0.0
H522 H 0.19455 0.51304 0.17855 0.0
H523 H 0.17521 0.46464 0.11811 0.0
H524 H 0.19599 0.55086 0.11347 0.0
H525 H 0.21972 0.40758 0.20078 0.0
H526 H 0.28889 0.51464 0.15368 0.0
H527 H 0.22733 0.55126 0.18592 0.0
H528 H 0.95691 0.56537 0.38 0.0
H529 H 0.96599 0.52482 0.39753 0.0
H530 H 0.97545 0.58078 0.43832 0.0
H531 H 0.96443 0.6213 0.42095 0.0
H532 H 0.02616 0.55144 0.42643 0.0
H533 H 0.93853 0.53017 0.44814 0.0
H534 H 0.8869 0.5245 0.44947 0.0
H535 H 0.89094 0.45685 0.41494 0.0
H536 H 0.94252 0.46235 0.41317 0.0
H537 H 0.04164 0.38417 0.42205 0.0
H538 H 0.03387 0.4263 0.43868 0.0
H539 H 0.0409 0.4789 0.39626 0.0
H540 H 0.04718 0.43686 0.37958 0.0
H541 H 0.9842 0.45548 0.42994 0.0
H542 H 0.06304 0.54255 0.40673 0.0
H543 H 0.11446 0.54819 0.40399 0.0
H544 H 0.12799 0.48472 0.44033 0.0
H545 H 0.07661 0.47896 0.44352 0.0
C546 C 0.95917 0.56881 0.39287 0.0
C547 C 0.9602 0.59633 0.39912 0.0
C548 C 0.96439 0.54569 0.4029 0.0
C549 C 0.97158 0.54991 0.41919 0.0
C550 C 0.96975 0.57714 0.42582 0.0
C551 C 0.96347 0.60023 0.41586 0.0
C552 C 0.98766 0.52731 0.42737 0.0
C553 C 0.01711 0.53045 0.42769 0.0
C554 C 0.97564 0.50029 0.42967 0.0
C555 C 0.94454 0.49662 0.4306 0.0
C556 C 0.92843 0.51415 0.44077 0.0
C557 C 0.89914 0.51096 0.4416 0.0
C558 C 0.88565 0.49029 0.43232 0.0
C559 C 0.90143 0.47278 0.42217 0.0
C560 C 0.93073 0.47588 0.42129 0.0
C561 C 0.04289 0.40484 0.41642 0.0
C562 C 0.04475 0.40744 0.39953 0.0
C563 C 0.0384 0.42886 0.42595 0.0
C564 C 0.03679 0.45566 0.41871 0.0
C565 C 0.04241 0.45842 0.40213 0.0
C566 C 0.046 0.43443 0.39257 0.0
C567 C 0.02252 0.47945 0.42691 0.0
C568 C 0.99342 0.47651 0.42965 0.0
C569 C 0.03484 0.50666 0.42719 0.0
C570 C 0.06584 0.51041 0.42543 0.0
C571 C 0.07691 0.53 0.41429 0.0
C572 C 0.1061 0.53316 0.41261 0.0
C573 C 0.12448 0.51685 0.42199 0.0
C574 C 0.11372 0.49733 0.43307 0.0
C575 C 0.08456 0.49409 0.4348 0.0
H576 H 0.14707 0.51932 0.42066 0.0
H577 H 0.86297 0.48787 0.43297 0.0
H578 H 0.5873 0.04413 0.36556 0.0
H579 H 0.53919 0.04494 0.37588 0.0
H580 H 0.57098 0.0419 0.42473 0.0
H581 H 0.61944 0.04216 0.4143 0.0
H582 H 0.53928 0.99465 0.41574 0.0
H583 H 0.52489 0.09235 0.4179 0.0
H584 H 0.52817 0.14256 0.40996 0.0
H585 H 0.48064 0.12536 0.36691 0.0
H586 H 0.47741 0.07497 0.37441 0.0
H587 H 0.38232 0.96838 0.40879 0.0
H588 H 0.42843 0.98159 0.42015 0.0
H589 H 0.46 0.99638 0.37207 0.0
H590 H 0.41419 0.98357 0.36076 0.0
H591 H 0.45512 0.04576 0.39531 0.0
H592 H 0.48759 0.94649 0.38986 0.0
H593 H 0.48583 0.89591 0.3973 0.0
H594 H 0.49976 0.91745 0.44704 0.0
H595 H 0.50123 0.96822 0.43989 0.0
C596 C 0.58396 0.04526 0.37848 0.0
C597 C 0.60673 0.04321 0.38917 0.0
C598 C 0.55653 0.04573 0.38441 0.0
C599 C 0.55159 0.04345 0.40108 0.0
C600 C 0.57444 0.04392 0.41185 0.0
C601 C 0.60201 0.04422 0.40589 0.0
C602 C 0.52334 0.03426 0.40637 0.0
C603 C 0.52065 0.00621 0.41189 0.0
C604 C 0.49913 0.0494 0.40147 0.0
C605 C 0.50082 0.07978 0.39679 0.0
C606 C 0.51522 0.09921 0.4067 0.0
C607 C 0.51707 0.12774 0.40228 0.0
C608 C 0.50459 0.13715 0.38796 0.0
C609 C 0.49022 0.11805 0.37803 0.0
C610 C 0.4883 0.0895 0.38239 0.0
C611 C 0.39961 0.97298 0.40066 0.0
C612 C 0.39494 0.9751 0.38392 0.0
C613 C 0.42574 0.98082 0.40717 0.0
C614 C 0.44718 0.99043 0.39691 0.0
C615 C 0.44345 0.98925 0.38013 0.0
C616 C 0.41746 0.98166 0.37367 0.0
C617 C 0.4719 0.00568 0.40319 0.0
C618 C 0.47355 0.03482 0.39996 0.0
C619 C 0.49511 0.99156 0.41015 0.0
C620 C 0.49404 0.96112 0.41439 0.0
C621 C 0.48992 0.94045 0.4024 0.0
C622 C 0.48907 0.91175 0.40656 0.0
C623 C 0.49254 0.90348 0.42264 0.0
C624 C 0.49697 0.92389 0.4346 0.0
C625 C 0.49781 0.95262 0.4305 0.0
H626 H 0.49191 0.88125 0.42584 0.0
H627 H 0.50606 0.15924 0.38455 0.0
H628 H 0.96606 0.43336 0.66883 0.0
H629 H 0.97557 0.4752 0.65232 0.0
H630 H 0.98153 0.42268 0.60989 0.0
H631 H 0.97017 0.38092 0.62624 0.0
H632 H 0.03389 0.45343 0.6226 0.0
H633 H 0.94337 0.46973 0.60184 0.0
H634 H 0.89145 0.47295 0.60185 0.0
H635 H 0.89525 0.54121 0.63601 0.0
H636 H 0.94714 0.53815 0.63644 0.0
H637 H 0.03521 0.62172 0.6218 0.0
H638 H 0.03196 0.57767 0.60641 0.0
H639 H 0.04931 0.53007 0.64979 0.0
H640 H 0.05108 0.57387 0.66523 0.0
H641 H 0.98656 0.54666 0.61765 0.0
H642 H 0.07184 0.46611 0.64118 0.0
H643 H 0.12366 0.46325 0.64268 0.0
H644 H 0.13082 0.52368 0.60415 0.0
H645 H 0.079 0.52662 0.6022 0.0
C646 C 0.96776 0.431 0.65585 0.0
C647 C 0.96744 0.40406 0.6488 0.0
C648 C 0.9733 0.45483 0.64643 0.0
C649 C 0.9794 0.45188 0.62994 0.0
C650 C 0.97669 0.42531 0.62258 0.0
C651 C 0.97012 0.40154 0.63194 0.0
C652 C 0.99413 0.47539 0.6218 0.0
C653 C 0.02368 0.47382 0.62107 0.0
C654 C 0.98053 0.50158 0.61928 0.0
C655 C 0.94925 0.50371 0.61914 0.0
C656 C 0.93315 0.48533 0.60943 0.0
C657 C 0.9037 0.48715 0.60935 0.0
C658 C 0.89006 0.50729 0.61891 0.0
C659 C 0.90585 0.52567 0.62858 0.0
C660 C 0.9353 0.52394 0.62871 0.0
C661 C 0.03999 0.60195 0.62783 0.0
C662 C 0.04304 0.60098 0.6447 0.0
C663 C 0.03805 0.57677 0.61901 0.0
C664 C 0.04013 0.5506 0.62697 0.0
C665 C 0.04787 0.55002 0.64335 0.0
C666 C 0.04897 0.57507 0.65221 0.0
C667 C 0.02643 0.52508 0.62019 0.0
C668 C -0.00302 0.52622 0.61824 0.0
C669 C 0.04015 0.49853 0.62047 0.0
C670 C 0.07141 0.4965 0.6215 0.0
C671 C 0.0844 0.47858 0.63289 0.0
C672 C 0.11382 0.47701 0.63386 0.0
C673 C 0.13053 0.49326 0.62351 0.0
C674 C 0.11785 0.51112 0.61217 0.0
C675 C 0.08845 0.51277 0.61114 0.0
H676 H 0.1533 0.49202 0.62429 0.0
H677 H 0.86726 0.50865 0.61884 0.0
H678 H 0.57933 0.96136 0.67614 0.0
H679 H 0.53259 0.95555 0.66413 0.0
H680 H 0.56966 0.95382 0.61658 0.0
H681 H 0.6168 0.95851 0.62872 0.0
H682 H 0.5307 -0.00028 0.6232 0.0
H683 H 0.53125 0.90053 0.62296 0.0
H684 H 0.5409 0.85213 0.6327 0.0
H685 H 0.48542 0.86531 0.67292 0.0
H686 H 0.47574 0.91392 0.6636 0.0
H687 H 0.37547 0.01861 0.62259 0.0
H688 H 0.42316 0.00473 0.61375 0.0
H689 H 0.44348 0.98025 0.66263 0.0
H690 H 0.39619 0.99345 0.6713 0.0
H691 H 0.45231 0.93723 0.6405 0.0
H692 H 0.46997 0.04034 0.64583 0.0
H693 H 0.46217 0.09002 0.63766 0.0
H694 H 0.4844 0.06933 0.58883 0.0
H695 H 0.49203 0.01944 0.59671 0.0
C696 C 0.57753 0.95841 0.66321 0.0
C697 C 0.60135 0.96015 0.65332 0.0
C698 C 0.55094 0.95507 0.65634 0.0
C699 C 0.54782 0.95418 0.63948 0.0
C700 C 0.57179 0.95415 0.62961 0.0
C701 C 0.59858 0.95669 0.63654 0.0
C702 C 0.51943 0.9587 0.6327 0.0
C703 C 0.51345 0.98565 0.62637 0.0
C704 C 0.49715 0.94027 0.63678 0.0
C705 C 0.50269 0.91093 0.64252 0.0
C706 C 0.52119 0.89317 0.63393 0.0
C707 C 0.52666 0.86568 0.63938 0.0
C708 C 0.51375 0.85564 0.65341 0.0
C709 C 0.49534 0.87308 0.66202 0.0
C710 C 0.48979 0.9006 0.65663 0.0
C711 C 0.39058 0.01114 0.63145 0.0
C712 C 0.38249 0.00705 0.6476 0.0
C713 C 0.41756 0.00294 0.62638 0.0
C714 C 0.43649 0.99092 0.6375 0.0
C715 C 0.42893 0.98896 0.65382 0.0
C716 C 0.40211 0.99679 0.65881 0.0
C717 C 0.46395 0.97909 0.63256 0.0
C718 C 0.4695 0.9507 0.63653 0.0
C719 C 0.48584 0.99627 0.62647 0.0
C720 C 0.48116 0.02616 0.62179 0.0
C721 C 0.47294 0.04636 0.63332 0.0
C722 C 0.46861 0.07455 0.62876 0.0
C723 C 0.47267 0.0828 0.61272 0.0
C724 C 0.48117 0.06289 0.60123 0.0
C725 C 0.4855 0.03467 0.60574 0.0
H726 H 0.46933 0.10464 0.60921 0.0
H727 H 0.51803 0.83435 0.65761 0.0
H728 H 0.52691 0.8743 0.91761 0.0
H729 H 0.51396 0.92032 0.9291 0.0
H730 H 0.52954 0.95996 0.88304 0.0
H731 H 0.54117 0.91389 0.8714 0.0
H732 H 0.53985 0.99581 0.9128 0.0
H733 H 0.46834 0.93315 0.88442 0.0
H734 H 0.4437 0.88713 0.88274 0.0
H735 H 0.4212 0.89322 0.93282 0.0
H736 H 0.44597 0.93917 0.93479 0.0
H737 H 0.44728 0.0712 0.86572 0.0
H738 H 0.45506 0.02552 0.87881 0.0
H739 H 0.45534 0.06633 0.92537 0.0
H740 H 0.44579 0.11193 0.91233 0.0
H741 H 0.43542 0.99061 0.90822 0.0
H742 H 0.52197 0.04919 0.93707 0.0
H743 H 0.54807 0.0945 0.93629 0.0
H744 H 0.54073 0.09642 0.88461 0.0
H745 H 0.51479 0.05104 0.88514 0.0
C746 C 0.52909 0.89312 0.91023 0.0
C747 C 0.53511 0.89084 0.89368 0.0
C748 C 0.5216 0.91932 0.91679 0.0
C749 C 0.52072 0.94338 0.90687 0.0
C750 C 0.53037 0.94161 0.89089 0.0
C751 C 0.53709 0.91536 0.88425 0.0
C752 C 0.50373 0.96828 0.91139 0.0
C753 C 0.51698 0.99469 0.91253 0.0
C754 C 0.47391 0.96679 0.91095 0.0
C755 C 0.45896 0.93941 0.90975 0.0
C756 C 0.45815 0.92459 0.89506 0.0
C757 C 0.44417 0.89858 0.89405 0.0
C758 C 0.43077 0.88735 0.90764 0.0
C759 C 0.43148 0.90202 0.92229 0.0
C760 C 0.44549 0.92802 0.92336 0.0
C761 C 0.44716 0.0701 0.87879 0.0
C762 C 0.4462 0.09492 0.88803 0.0
C763 C 0.45168 0.04406 0.88628 0.0
C764 C 0.4561 0.04275 0.90301 0.0
C765 C 0.45185 0.067 0.91245 0.0
C766 C 0.44639 0.093 0.90497 0.0
C767 C 0.47158 0.01814 0.90946 0.0
C768 C 0.4581 0.99179 0.90995 0.0
C769 C 0.50116 0.01968 0.91163 0.0
C770 C 0.51641 0.04696 0.91117 0.0
C771 C 0.52599 0.05933 0.92557 0.0
C772 C 0.54079 0.08495 0.92517 0.0
C773 C 0.54619 0.09824 0.91041 0.0
C774 C 0.53666 0.08603 0.89603 0.0
C775 C 0.52188 0.06041 0.89637 0.0
H776 H 0.5576 0.1181 0.91012 0.0
H777 H 0.41991 0.86723 0.90684 0.0
H778 H 0.87353 0.45573 0.92623 0.0
H779 H 0.91817 0.46236 0.94087 0.0
H780 H 0.96315 0.46161 0.89562 0.0
H781 H 0.91873 0.45592 0.88106 0.0
H782 H 0.99496 0.43864 0.9231 0.0
H783 H 0.93422 0.52476 0.90676 0.0
H784 H 0.8895 0.55096 0.91041 0.0
H785 H 0.89965 0.54675 0.9619 0.0
H786 H 0.94432 0.52043 0.95849 0.0
H787 H 0.06483 0.52921 0.88036 0.0
H788 H 0.0223 0.51877 0.89581 0.0
H789 H 0.06921 0.52684 0.94023 0.0
H790 H 0.11195 0.53807 0.92469 0.0
H791 H 0.99422 0.54285 0.93112 0.0
H792 H 0.06499 0.47243 0.94675 0.0
H793 H 0.1105 0.44854 0.94199 0.0
H794 H 0.08187 0.42176 0.89519 0.0
H795 H 0.03613 0.44556 0.89974 0.0
C796 C 0.89316 0.45558 0.91954 0.0
C797 C 0.89297 0.45529 0.90256 0.0
C798 C 0.91857 0.45944 0.92791 0.0
C799 C 0.94389 0.46253 0.91931 0.0
C800 C 0.94386 0.459 0.90248 0.0
C801 C 0.91853 0.4558 0.89415 0.0
C802 C 0.96909 0.47561 0.92671 0.0
C803 C 0.99486 0.46116 0.92569 0.0
C804 C 0.96904 0.50486 0.93042 0.0
C805 C 0.94246 0.5208 0.93239 0.0
C806 C 0.92686 0.52952 0.91884 0.0
C807 C 0.90155 0.54432 0.92086 0.0
C808 C 0.89186 0.55067 0.93637 0.0
C809 C 0.90727 0.54195 0.9499 0.0
C810 C 0.93255 0.5271 0.94793 0.0
C811 C 0.0657 0.53023 0.89342 0.0
C812 C 0.09142 0.53449 0.90137 0.0
C813 C 0.04146 0.52429 0.90225 0.0
C814 C 0.04276 0.52191 0.91912 0.0
C815 C 0.06783 0.52883 0.92723 0.0
C816 C 0.09212 0.53533 0.91835 0.0
C817 C 0.01995 0.50596 0.92709 0.0
C818 C 0.99454 0.51991 0.93035 0.0
C819 C 0.0204 0.47607 0.9262 0.0
C820 C 0.04723 0.46067 0.9236 0.0
C821 C 0.06842 0.46137 0.93547 0.0
C822 C 0.09425 0.4479 0.9328 0.0
C823 C 0.09911 0.43367 0.91827 0.0
C824 C 0.07806 0.43275 0.90644 0.0
C825 C 0.05213 0.44612 0.90909 0.0
H826 H 0.11918 0.42336 0.91619 0.0
H827 H 0.87247 0.56243 0.93791 0.0
H828 H 0.45001 0.91782 0.16253 0.0
H829 H 0.45517 0.96305 0.14851 0.0
H830 H 0.4646 0.919 0.10322 0.0
H831 H 0.45801 0.87367 0.1172 0.0
H832 H 0.51313 0.95036 0.11482 0.0
H833 H 0.41828 0.96644 0.10131 0.0
H834 H 0.36667 0.96709 0.10495 0.0
H835 H 0.37527 0.02785 0.14318 0.0
H836 H 0.42694 0.02727 0.13997 0.0
H837 H 0.52118 0.11761 0.11798 0.0
H838 H 0.50866 0.07377 0.10373 0.0
H839 H 0.52707 0.02569 0.14678 0.0
H840 H 0.5382 0.06951 0.16121 0.0
H841 H 0.46195 0.0416 0.11941 0.0
H842 H 0.55391 0.96237 0.13246 0.0
H843 H 0.60579 0.96173 0.13057 0.0
H844 H 0.603 0.02696 0.09445 0.0
H845 H 0.55106 0.02771 0.09591 0.0
C846 C 0.45161 0.91794 0.14948 0.0
C847 C 0.45353 0.89249 0.1409 0.0
C848 C 0.45457 0.94371 0.14146 0.0
C849 C 0.46029 0.94427 0.12484 0.0
C850 C 0.45992 0.91894 0.11602 0.0
C851 C 0.45608 0.89312 0.12401 0.0
C852 C 0.47263 0.97032 0.11798 0.0
C853 C 0.5019 0.97036 0.11535 0.0
C854 C 0.45773 0.99619 0.11833 0.0
C855 C 0.42658 0.99685 0.12035 0.0
C856 C 0.4092 0.97985 0.11055 0.0
C857 C 0.37991 0.98022 0.11254 0.0
C858 C 0.3677 0.99753 0.12428 0.0
C859 C 0.38475 0.01451 0.13406 0.0
C860 C 0.41406 0.01423 0.13213 0.0
C861 C 0.52375 0.0975 0.12413 0.0
C862 C 0.53085 0.09662 0.1406 0.0
C863 C 0.51647 0.07259 0.11601 0.0
C864 C 0.51711 0.04662 0.12421 0.0
C865 C 0.52685 0.04556 0.14022 0.0
C866 C 0.53327 0.07048 0.14845 0.0
C867 C 0.50261 0.0215 0.11766 0.0
C868 C 0.473 0.02164 0.11796 0.0
C869 C 0.51721 0.99579 0.11538 0.0
C870 C 0.5485 0.99508 0.1143 0.0
C871 C 0.5643 0.97641 0.124 0.0
C872 C 0.59376 0.97607 0.12303 0.0
C873 C 0.60769 0.99429 0.1124 0.0
C874 C 0.59219 0.01288 0.1027 0.0
C875 C 0.56274 0.0133 0.10361 0.0
H876 H 0.63049 0.99401 0.11169 0.0
H877 H 0.34502 0.99777 0.1258 0.0
H878 H 0.89674 0.49776 0.17571 0.0
H879 H 0.94467 0.487 0.16711 0.0
H880 H 0.92634 0.5204 0.11971 0.0
H881 H 0.87794 0.53167 0.12848 0.0
H882 H 0.95587 0.44886 0.1431 0.0
H883 H 0.99461 0.54006 0.10418 0.0
H884 H 0.9864 0.59116 0.09986 0.0
H885 H 0.96324 0.60074 0.14966 0.0
H886 H 0.97164 0.5498 0.1543 0.0
H887 H 0.1178 0.46967 0.12193 0.0
H888 H 0.06785 0.47239 0.11384 0.0
H889 H 0.04313 0.45657 0.16316 0.0
H890 H 0.09271 0.4546 0.17121 0.0
H891 H 0.0328 0.51445 0.12738 0.0
H892 H 0.98285 0.4209 0.16382 0.0
H893 H 0.99261 0.37041 0.16898 0.0
H894 H 0.04016 0.36536 0.125 0.0
H895 H 0.03034 0.41571 0.11943 0.0
C896 C 0.90315 0.50348 0.16358 0.0
C897 C 0.88384 0.51552 0.15274 0.0
C898 C 0.93041 0.49711 0.15863 0.0
C899 C 0.93885 0.50244 0.14271 0.0
C900 C 0.92015 0.5161 0.13205 0.0
C901 C 0.8927 0.52276 0.13709 0.0
C902 C 0.9668 0.49205 0.13746 0.0
C903 C 0.97272 0.46313 0.13957 0.0
C904 C 0.98832 0.51044 0.13206 0.0
C905 C 0.98333 0.54109 0.1295 0.0
C906 C 0.98777 0.5531 0.1142 0.0
C907 C 0.9831 0.58203 0.1117 0.0
C908 C 0.97417 0.59916 0.12446 0.0
C909 C 0.97001 0.58742 0.13977 0.0
C910 C 0.97468 0.55852 0.14233 0.0
C911 C 0.10156 0.46565 0.13083 0.0
C912 C 0.10873 0.46151 0.14711 0.0
C913 C 0.07318 0.46743 0.12625 0.0
C914 C 0.05189 0.4645 0.13788 0.0
C915 C 0.05924 0.45843 0.15395 0.0
C916 C 0.08748 0.45723 0.15855 0.0
C917 C 0.02223 0.47164 0.13418 0.0
C918 C 0.01582 0.49989 0.13029 0.0
C919 C 0.00023 0.45265 0.13803 0.0
C920 C 0.00586 0.42217 0.14122 0.0
C921 C 0.99518 0.40899 0.15517 0.0
C922 C 0.00079 0.38039 0.15819 0.0
C923 C 0.01701 0.3647 0.14733 0.0
C924 C 0.02764 0.37756 0.13342 0.0
C925 C 0.0221 0.40615 0.13034 0.0
H926 H 0.02134 0.34257 0.1497 0.0
H927 H 0.97056 0.62154 0.1225 0.0
H928 H 0.05958 0.38707 0.33784 0.0
H929 H 0.08256 0.40779 0.31396 0.0
H930 H 0.10106 0.32396 0.29626 0.0
H931 H 0.07795 0.30332 0.31994 0.0
H932 H 0.14677 0.36238 0.29331 0.0
H933 H 0.04662 0.35749 0.28132 0.0
H934 H -0.00357 0.36799 0.28638 0.0
H935 H 0.01366 0.45719 0.28378 0.0
H936 H 0.06406 0.44719 0.27893 0.0
H937 H 0.17943 0.37932 0.21172 0.0
H938 H 0.15746 0.36556 0.23717 0.0
H939 H 0.1276 0.45115 0.24374 0.0
H940 H 0.14878 0.46463 0.21774 0.0
H941 H 0.08903 0.41683 0.25405 0.0
H942 H 0.18761 0.42357 0.26421 0.0
H943 H 0.23829 0.41493 0.25964 0.0
H944 H 0.22574 0.32576 0.26697 0.0
H945 H 0.17489 0.33381 0.27135 0.0
C946 C 0.06894 0.37315 0.32896 0.0
C947 C 0.06691 0.34357 0.33072 0.0
C948 C 0.08188 0.38497 0.31527 0.0
C949 C 0.09335 0.36742 0.30324 0.0
C950 C 0.09232 0.33793 0.30534 0.0
C951 C 0.07904 0.32615 0.31885 0.0
C952 C 0.10567 0.37947 0.28816 0.0
C953 C 0.13413 0.37413 0.28467 0.0
C954 C 0.08944 0.39561 0.27712 0.0
C955 C 0.05915 0.4016 0.27996 0.0
C956 C 0.03974 0.37934 0.28197 0.0
C957 C 0.01125 0.3852 0.28478 0.0
C958 C 0.00187 0.41324 0.28545 0.0
C959 C 0.02096 0.43548 0.28328 0.0
C960 C 0.04949 0.42973 0.2805 0.0
C961 C 0.1681 0.39517 0.21857 0.0
C962 C 0.16607 0.42311 0.21283 0.0
C963 C 0.15566 0.38735 0.2332 0.0
C964 C 0.14152 0.40745 0.24274 0.0
C965 C 0.13856 0.43522 0.23673 0.0
C966 C 0.15061 0.44294 0.22187 0.0
C967 C 0.13018 0.39932 0.25897 0.0
C968 C 0.10189 0.40539 0.26272 0.0
C969 C 0.14672 0.38421 0.2704 0.0
C970 C 0.17738 0.37929 0.268 0.0
C971 C 0.19562 0.4021 0.26477 0.0
C972 C 0.22438 0.39731 0.26221 0.0
C973 C 0.23521 0.36981 0.26298 0.0
C974 C 0.21731 0.34705 0.26636 0.0
C975 C 0.18852 0.35172 0.2689 0.0
H976 H 0.25748 0.36614 0.26098 0.0
H977 H 0.9798 0.41773 0.28762 0.0
H978 H 0.53696 0.13083 0.21455 0.0
H979 H 0.55514 0.10796 0.23926 0.0
H980 H 0.63483 0.15045 0.23287 0.0
H981 H 0.61651 0.17381 0.20856 0.0
H982 H 0.63652 0.08789 0.24028 0.0
H983 H 0.59685 0.17736 0.25876 0.0
H984 H 0.55822 0.21195 0.26178 0.0
H985 H 0.50806 0.14949 0.2862 0.0
H986 H 0.54628 0.11439 0.28309 0.0
H987 H 0.70923 0.06339 0.31289 0.0
H988 H 0.68768 0.08508 0.28904 0.0
H989 H 0.60499 0.07057 0.30923 0.0
H990 H 0.62691 0.05055 0.33359 0.0
H991 H 0.60161 0.11641 0.29431 0.0
H992 H 0.63781 0.02724 0.27761 0.0
H993 H 0.67286 0.98914 0.27404 0.0
H994 H 0.7245 0.04471 0.24558 0.0
H995 H 0.68993 0.08327 0.24916 0.0
C996 C 0.5584 0.13506 0.21839 0.0
C997 C 0.57529 0.15416 0.20964 0.0
C998 C 0.56873 0.12212 0.23253 0.0
C999 C 0.59636 0.12755 0.23798 0.0
C1000 C 0.61348 0.14594 0.22895 0.0
C1001 C 0.60296 0.15934 0.21509 0.0
C1002 C 0.60752 0.11452 0.25316 0.0
C1003 C 0.62909 0.09426 0.25212 0.0
C1004 C 0.59714 0.12203 0.26859 0.0
C1005 C 0.57427 0.14317 0.27051 0.0
C1006 C 0.57747 0.17092 0.26462 0.0
C1007 C 0.55568 0.19064 0.26638 0.0
C1008 C 0.53066 0.1829 0.27413 0.0
C1009 C 0.52743 0.15544 0.28017 0.0
C1010 C 0.54915 0.13564 0.27842 0.0
C1011 C 0.68647 0.0651 0.31226 0.0
C1012 C 0.66977 0.0552 0.32508 0.0
C1013 C 0.67405 0.07723 0.29852 0.0
C1014 C 0.64448 0.07878 0.29689 0.0
C1015 C 0.62779 0.0696 0.30997 0.0
C1016 C 0.6403 0.05816 0.32394 0.0
C1017 C 0.63115 0.08978 0.28159 0.0
C1018 C 0.60908 0.10971 0.28255 0.0
C1019 C 0.64057 0.08136 0.26601 0.0
C1020 C 0.66139 0.05821 0.26378 0.0
C1021 C 0.65673 0.03138 0.27067 0.0
C1022 C 0.6765 0.0097 0.26864 0.0
C1023 C 0.70092 0.01452 0.25962 0.0
C1024 C 0.70559 0.04101 0.25258 0.0
C1025 C 0.6859 0.06278 0.25459 0.0
H1026 H 0.71621 0.99771 0.25806 0.0
H1027 H 0.51382 0.19819 0.27548 0.0
H1028 H 0.84856 0.52773 0.21835 0.0
H1029 H 0.87331 0.54337 0.24296 0.0
H1030 H 0.83358 0.62525 0.23902 0.0
H1031 H 0.80864 0.60962 0.2147 0.0
H1032 H 0.89369 0.62649 0.24504 0.0
H1033 H 0.80811 0.58223 0.26508 0.0
H1034 H 0.77482 0.54244 0.2681 0.0
H1035 H 0.84042 0.49143 0.28903 0.0
H1036 H 0.87422 0.53083 0.28592 0.0
H1037 H 0.91917 0.69435 0.31832 0.0
H1038 H 0.89594 0.67269 0.29505 0.0
H1039 H 0.92194 0.58998 0.31162 0.0
H1040 H 0.94418 0.61182 0.33541 0.0
H1041 H 0.87245 0.58509 0.29874 0.0
H1042 H 0.95769 0.62731 0.28058 0.0
H1043 H 0.99343 0.66477 0.27708 0.0
H1044 H 0.93307 0.71615 0.25173 0.0
H1045 H 0.89684 0.67916 0.25529 0.0
C1046 C 0.8453 0.54909 0.22272 0.0
C1047 C 0.82657 0.56741 0.21465 0.0
C1048 C 0.8593 0.55795 0.2368 0.0
C1049 C 0.85518 0.58545 0.24288 0.0
C1050 C 0.83703 0.60394 0.23459 0.0
C1051 C 0.82269 0.59494 0.22074 0.0
C1052 C 0.86956 0.59522 0.25788 0.0
C1053 C 0.8889 0.61762 0.25681 0.0
C1054 C 0.8641 0.58295 0.27316 0.0
C1055 C 0.84376 0.55935 0.27509 0.0
C1056 C 0.8155 0.56244 0.27019 0.0
C1057 C 0.79653 0.53998 0.27194 0.0
C1058 C 0.80552 0.51439 0.2787 0.0
C1059 C 0.83349 0.51124 0.28377 0.0
C1060 C 0.85256 0.53363 0.28202 0.0
C1061 C 0.91965 0.67152 0.31706 0.0
C1062 C 0.93363 0.65479 0.3286 0.0
C1063 C 0.90656 0.65912 0.30368 0.0
C1064 C 0.90786 0.62967 0.3012 0.0
C1065 C 0.92077 0.61274 0.31312 0.0
C1066 C 0.93342 0.62519 0.32674 0.0
C1067 C 0.89629 0.61693 0.28601 0.0
C1068 C 0.87752 0.59391 0.28701 0.0
C1069 C 0.90272 0.62826 0.27056 0.0
C1070 C 0.92448 0.65054 0.26832 0.0
C1071 C 0.95198 0.64668 0.27435 0.0
C1072 C 0.97233 0.66782 0.27235 0.0
C1073 C 0.96551 0.69285 0.26422 0.0
C1074 C 0.93832 0.69676 0.25804 0.0
C1075 C 0.91788 0.6757 0.26003 0.0
H1076 H 0.98129 0.70919 0.26268 0.0
H1077 H 0.7908 0.49702 0.28006 0.0
H1078 H 0.42446 0.79843 0.22717 0.0
H1079 H 0.4064 0.82264 0.25099 0.0
H1080 H 0.39985 0.90034 0.22385 0.0
H1081 H 0.41819 0.87612 0.19986 0.0
H1082 H 0.41971 0.91112 0.25328 0.0
H1083 H 0.34115 0.85829 0.23254 0.0
H1084 H 0.31615 0.81569 0.22292 0.0
H1085 H 0.32879 0.77568 0.26893 0.0
H1086 H 0.35422 0.81791 0.27876 0.0
H1087 H 0.32679 0.98502 0.30506 0.0
H1088 H 0.34784 0.95961 0.28253 0.0
H1089 H 0.35735 0.8854 0.3124 0.0
H1090 H 0.33562 0.91075 0.33512 0.0
H1091 H 0.33691 0.87197 0.28231 0.0
H1092 H 0.41405 0.92574 0.30332 0.0
H1093 H 0.43863 0.96862 0.31288 0.0
H1094 H 0.42821 0.00716 0.26628 0.0
H1095 H 0.40318 0.96466 0.2565 0.0
C1096 C 0.41903 0.82062 0.22617 0.0
C1097 C 0.42253 0.83517 0.21144 0.0
C1098 C 0.40867 0.8345 0.23987 0.0
C1099 C 0.40115 0.86328 0.23924 0.0
C1100 C 0.40536 0.87812 0.2247 0.0
C1101 C 0.41592 0.86425 0.21096 0.0
C1102 C 0.38879 0.87772 0.25372 0.0
C1103 C 0.40138 0.90272 0.25947 0.0
C1104 C 0.36526 0.86651 0.26218 0.0
C1105 C 0.34983 0.84116 0.25633 0.0
C1106 C 0.33877 0.84033 0.24057 0.0
C1107 C 0.3245 0.81626 0.23508 0.0
C1108 C 0.32095 0.79296 0.24529 0.0
C1109 C 0.33159 0.79372 0.26103 0.0
C1110 C 0.34592 0.81773 0.26657 0.0
C1111 C 0.33306 0.96322 0.30689 0.0
C1112 C 0.32929 0.94997 0.32199 0.0
C1113 C 0.34543 0.94876 0.29397 0.0
C1114 C 0.35452 0.92061 0.29572 0.0
C1115 C 0.35062 0.90713 0.31072 0.0
C1116 C 0.33834 0.92171 0.32375 0.0
C1117 C 0.36775 0.9054 0.2818 0.0
C1118 C 0.35531 0.88029 0.27614 0.0
C1119 C 0.39136 0.91654 0.27341 0.0
C1120 C 0.40651 0.9421 0.27923 0.0
C1121 C 0.4168 0.94345 0.29515 0.0
C1122 C 0.43085 0.96767 0.3006 0.0
C1123 C 0.43492 0.99062 0.2902 0.0
C1124 C 0.42501 0.98937 0.27432 0.0
C1125 C 0.41092 0.96521 0.26882 0.0
H1126 H 0.44581 0.00936 0.29445 0.0
H1127 H 0.3099 0.77435 0.24102 0.0
H1128 H 0.17573 0.60712 0.82663 0.0
H1129 H 0.15052 0.62399 0.80278 0.0
H1130 H 0.08929 0.55718 0.80841 0.0
H1131 H 0.1148 0.5399 0.83236 0.0
H1132 H 0.10768 0.56359 0.77632 0.0
H1133 H 0.0711 0.6226 0.81842 0.0
H1134 H 0.07407 0.65479 0.84179 0.0
H1135 H 0.11943 0.71541 0.81317 0.0
H1136 H 0.11709 0.6834 0.78968 0.0
H1137 H 0.01858 0.62383 0.71512 0.0
H1138 H 0.03731 0.60278 0.74001 0.0
H1139 H 0.09402 0.67369 0.74546 0.0
H1140 H 0.0746 0.69509 0.721 0.0
H1141 H 0.07373 0.66283 0.77308 0.0
H1142 H 0.11439 0.6036 0.73184 0.0
H1143 H 0.11358 0.57167 0.70828 0.0
H1144 H 0.06323 0.512 0.73475 0.0
H1145 H 0.06346 0.54376 0.7584 0.0
C1146 C 0.15699 0.59587 0.82279 0.0
C1147 C 0.14738 0.57206 0.83143 0.0
C1148 C 0.14245 0.60569 0.80919 0.0
C1149 C 0.11787 0.59201 0.8038 0.0
C1150 C 0.10818 0.56814 0.81233 0.0
C1151 C 0.12265 0.55841 0.82609 0.0
C1152 C 0.10258 0.60278 0.78925 0.0
C1153 C 0.0998 0.58514 0.77568 0.0
C1154 C 0.09285 0.63109 0.78825 0.0
C1155 C 0.0941 0.65049 0.80232 0.0
C1156 C 0.08188 0.64271 0.81714 0.0
C1157 C 0.08343 0.66094 0.8304 0.0
C1158 C 0.09698 0.68711 0.82898 0.0
C1159 C 0.10895 0.69513 0.81426 0.0
C1160 C 0.10749 0.67696 0.80096 0.0
C1161 C 0.03517 0.63477 0.7216 0.0
C1162 C 0.04507 0.66115 0.71609 0.0
C1163 C 0.04597 0.62269 0.73583 0.0
C1164 C 0.06745 0.63637 0.74466 0.0
C1165 C 0.07742 0.66264 0.73903 0.0
C1166 C 0.0663 0.67491 0.725 0.0
C1167 C 0.07931 0.62388 0.75989 0.0
C1168 C 0.08141 0.6412 0.77365 0.0
C1169 C 0.08869 0.59537 0.76099 0.0
C1170 C 0.08869 0.57619 0.74682 0.0
C1171 C 0.10299 0.58375 0.7326 0.0
C1172 C 0.10266 0.56568 0.71923 0.0
C1173 C 0.08829 0.53986 0.72 0.0
C1174 C 0.07431 0.53203 0.73416 0.0
C1175 C 0.07455 0.55005 0.74755 0.0
H1176 H 0.08805 0.5259 0.70964 0.0
H1177 H 0.09816 0.70119 0.83926 0.0
H1178 H 0.4068 0.12852 0.83696 0.0
H1179 H 0.38158 0.10767 0.81406 0.0
H1180 H 0.43122 0.15802 0.78122 0.0
H1181 H 0.45507 0.18009 0.8039 0.0
H1182 H 0.38165 0.15663 0.76995 0.0
H1183 H 0.44369 0.08394 0.78975 0.0
H1184 H 0.46408 0.05165 0.81009 0.0
H1185 H 0.38302 0.01291 0.81704 0.0
H1186 H 0.36206 0.04523 0.79688 0.0
H1187 H 0.36184 0.0723 0.69842 0.0
H1188 H 0.38509 0.09152 0.72269 0.0
H1189 H 0.31539 0.06307 0.75186 0.0
H1190 H 0.29186 0.04463 0.72762 0.0
H1191 H 0.37382 0.05219 0.76504 0.0
H1192 H 0.31267 0.12611 0.74497 0.0
H1193 H 0.29372 0.1577 0.72391 0.0
H1194 H 0.37618 0.19317 0.71659 0.0
H1195 H 0.39569 0.16148 0.73755 0.0
C1196 C 0.4121 0.13551 0.82491 0.0
C1197 C 0.43344 0.15586 0.82245 0.0
C1198 C 0.39785 0.12323 0.81173 0.0
C1199 C 0.40482 0.13064 0.79573 0.0
C1200 C 0.42542 0.15161 0.79333 0.0
C1201 C 0.43937 0.16408 0.80644 0.0
C1202 C 0.39104 0.11667 0.78143 0.0
C1203 C 0.38034 0.13376 0.76889 0.0
C1204 C 0.38869 0.08678 0.7799 0.0
C1205 C 0.40126 0.0672 0.79194 0.0
C1206 C 0.43018 0.06866 0.7957 0.0
C1207 C 0.44184 0.05034 0.80718 0.0
C1208 C 0.42484 0.0303 0.81489 0.0
C1209 C 0.39615 0.02848 0.81108 0.0
C1210 C 0.38438 0.04678 0.79962 0.0
C1211 C 0.35173 0.06986 0.71004 0.0
C1212 C 0.32502 0.05701 0.71112 0.0
C1213 C 0.36493 0.08091 0.72389 0.0
C1214 C 0.35198 0.07876 0.73913 0.0
C1215 C 0.32584 0.06493 0.74028 0.0
C1216 C 0.31237 0.05451 0.72642 0.0
C1217 C 0.36491 0.09221 0.75371 0.0
C1218 C 0.37531 0.07502 0.76622 0.0
C1219 C 0.36732 0.12196 0.75516 0.0
C1220 C 0.35568 0.14121 0.74268 0.0
C1221 C 0.32681 0.14047 0.73876 0.0
C1222 C 0.31596 0.15842 0.72686 0.0
C1223 C 0.33375 0.17736 0.71884 0.0
C1224 C 0.36243 0.17845 0.72278 0.0
C1225 C 0.37339 0.16052 0.73469 0.0
H1226 H 0.3253 0.19124 0.70962 0.0
H1227 H 0.4339 0.01614 0.82378 0.0
H1228 H 0.79631 0.43519 0.81589 0.0
H1229 H 0.8196 0.42039 0.79104 0.0
H1230 H 0.89657 0.40525 0.81755 0.0
H1231 H 0.87332 0.42049 0.84252 0.0
H1232 H 0.90841 0.42945 0.78958 0.0
H1233 H 0.85123 0.35042 0.80575 0.0
H1234 H 0.80739 0.3261 0.8138 0.0
H1235 H 0.76896 0.34873 0.76861 0.0
H1236 H 0.81247 0.37352 0.76038 0.0
H1237 H 0.97735 0.33646 0.73578 0.0
H1238 H 0.95249 0.35798 0.75838 0.0
H1239 H 0.88233 0.3778 0.72713 0.0
H1240 H 0.90726 0.35577 0.70429 0.0
H1241 H 0.86554 0.35353 0.75618 0.0
H1242 H 0.92479 0.4299 0.73945 0.0
H1243 H 0.96939 0.45298 0.73162 0.0
H1244 H 0.00477 0.43397 0.77814 0.0
H1245 H 0.96051 0.41039 0.78618 0.0
C1246 C 0.81816 0.42859 0.81648 0.0
C1247 C 0.83284 0.42873 0.83127 0.0
C1248 C 0.83149 0.42011 0.80222 0.0
C1249 C 0.85974 0.4111 0.80239 0.0
C1250 C 0.87473 0.41199 0.81707 0.0
C1251 C 0.86144 0.42075 0.83135 0.0
C1252 C 0.87349 0.40052 0.78733 0.0
C1253 C 0.89916 0.41262 0.7824 0.0
C1254 C 0.86116 0.37905 0.77763 0.0
C1255 C 0.83501 0.36408 0.78252 0.0
C1256 C 0.83336 0.35039 0.79758 0.0
C1257 C 0.80858 0.3365 0.80217 0.0
C1258 C 0.78538 0.33594 0.79174 0.0
C1259 C 0.78693 0.34922 0.77668 0.0
C1260 C 0.81165 0.36318 0.77205 0.0
C1261 C 0.95659 0.34527 0.73367 0.0
C1262 C 0.94422 0.34421 0.71821 0.0
C1263 C 0.94248 0.35784 0.74661 0.0
C1264 C 0.9156 0.36974 0.74448 0.0
C1265 C 0.9031 0.36883 0.72906 0.0
C1266 C 0.9174 0.35641 0.716 0.0
C1267 C 0.90051 0.38229 0.75855 0.0
C1268 C 0.87464 0.37051 0.7633 0.0
C1269 C 0.91274 0.40392 0.76814 0.0
C1270 C 0.93938 0.41817 0.76337 0.0
C1271 C 0.94215 0.43043 0.74797 0.0
C1272 C 0.96736 0.44365 0.7435 0.0
C1273 C 0.98992 0.44489 0.75436 0.0
C1274 C 0.98729 0.43297 0.76973 0.0
C1275 C 0.96213 0.41971 0.77426 0.0
H1276 H 0.00942 0.45514 0.75088 0.0
H1277 H 0.76621 0.32517 0.79531 0.0
H1278 H 0.57588 0.86597 0.83928 0.0
H1279 H 0.59447 0.89037 0.81556 0.0
H1280 H 0.5803 0.81562 0.7868 0.0
H1281 H 0.5616 0.79109 0.81044 0.0
H1282 H 0.6304 0.8377 0.77965 0.0
H1283 H 0.53643 0.87419 0.78423 0.0
H1284 H 0.49599 0.89647 0.79795 0.0
H1285 H 0.54505 0.97153 0.80629 0.0
H1286 H 0.58594 0.94954 0.79281 0.0
H1287 H 0.6544 0.90893 0.70418 0.0
H1288 H 0.63312 0.8817 0.72623 0.0
H1289 H 0.64227 0.95352 0.75794 0.0
H1290 H 0.66227 0.98102 0.736 0.0
H1291 H 0.59283 0.9311 0.76257 0.0
H1292 H 0.68738 0.89391 0.75903 0.0
H1293 H 0.72798 0.87161 0.74546 0.0
H1294 H 0.67792 0.79797 0.73517 0.0
H1295 H 0.63689 0.82001 0.74851 0.0
C1296 C 0.57639 0.85473 0.82791 0.0
C1297 C 0.56703 0.82645 0.82691 0.0
C1298 C 0.58712 0.86876 0.81429 0.0
C1299 C 0.58858 0.85503 0.79924 0.0
C1300 C 0.57951 0.82675 0.79823 0.0
C1301 C 0.56882 0.81269 0.81184 0.0
C1302 C 0.5996 0.8701 0.7846 0.0
C1303 C 0.62188 0.85794 0.77579 0.0
C1304 C 0.58893 0.89676 0.7796 0.0
C1305 C 0.56433 0.91011 0.78763 0.0
C1306 C 0.53866 0.89537 0.78909 0.0
C1307 C 0.51565 0.90796 0.79681 0.0
C1308 C 0.51797 0.93537 0.80303 0.0
C1309 C 0.5433 0.95028 0.80149 0.0
C1310 C 0.56639 0.93778 0.7938 0.0
C1311 C 0.65175 0.91902 0.7158 0.0
C1312 C 0.66046 0.94727 0.71819 0.0
C1313 C 0.63977 0.90329 0.72849 0.0
C1314 C 0.63633 0.91533 0.74393 0.0
C1315 C 0.64469 0.94356 0.74624 0.0
C1316 C 0.65652 0.95926 0.73361 0.0
C1317 C 0.62392 0.89893 0.75773 0.0
C1318 C 0.60131 0.91082 0.76638 0.0
C1319 C 0.63432 0.87205 0.76258 0.0
C1320 C 0.65899 0.85874 0.75461 0.0
C1321 C 0.68497 0.87305 0.75377 0.0
C1322 C 0.70807 0.86044 0.74613 0.0
C1323 C 0.70551 0.83342 0.73941 0.0
C1324 C 0.67986 0.81892 0.74036 0.0
C1325 C 0.65668 0.83145 0.74796 0.0
H1326 H 0.72342 0.82369 0.73351 0.0
H1327 H 0.50013 0.94508 0.809 0.0
H1328 H 0.09981 0.29361 0.40478 0.0
H1329 H 0.13985 0.26258 0.41167 0.0
H1330 H 0.08766 0.18917 0.40319 0.0
H1331 H 0.04809 0.21979 0.39621 0.0
H1332 H 0.12507 0.18168 0.42903 0.0
H1333 H 0.1245 0.21565 0.37297 0.0
H1334 H 0.12566 0.25358 0.35248 0.0
H1335 H 0.20453 0.28341 0.3716 0.0
H1336 H 0.20359 0.24585 0.39237 0.0
H1337 H 0.19244 0.06635 0.39343 0.0
H1338 H 0.16408 0.10764 0.4005 0.0
H1339 H 0.23952 0.15832 0.40435 0.0
H1340 H 0.2682 0.1169 0.39755 0.0
H1341 H 0.19904 0.18458 0.3867 0.0
H1342 H 0.20503 0.14148 0.4381 0.0
H1343 H 0.20367 0.10275 0.45807 0.0
H1344 H 0.11562 0.08979 0.44826 0.0
H1345 H 0.11651 0.12814 0.42804 0.0
C1346 C 0.09682 0.27086 0.40482 0.0
C1347 C 0.0711 0.259 0.39977 0.0
C1348 C 0.11963 0.25321 0.40872 0.0
C1349 C 0.11671 0.22361 0.4078 0.0
C1350 C 0.09034 0.21193 0.404 0.0
C1351 C 0.06782 0.22944 0.3999 0.0
C1352 C 0.14144 0.20451 0.40858 0.0
C1353 C 0.14142 0.18235 0.41988 0.0
C1354 C 0.16311 0.20588 0.39688 0.0
C1355 C 0.1638 0.22823 0.38433 0.0
C1356 C 0.14198 0.23044 0.37287 0.0
C1357 C 0.1426 0.25184 0.3612 0.0
C1358 C 0.16511 0.27096 0.36077 0.0
C1359 C 0.18708 0.26864 0.37198 0.0
C1360 C 0.1865 0.24731 0.3837 0.0
C1361 C 0.20307 0.08616 0.39598 0.0
C1362 C 0.23259 0.08829 0.3949 0.0
C1363 C 0.18684 0.10975 0.40005 0.0
C1364 C 0.19975 0.13594 0.40319 0.0
C1365 C 0.22918 0.13826 0.40203 0.0
C1366 C 0.24548 0.11462 0.39801 0.0
C1367 C 0.18212 0.16106 0.40679 0.0
C1368 C 0.1834 0.18431 0.39626 0.0
C1369 C 0.16167 0.16066 0.41922 0.0
C1370 C 0.16088 0.13766 0.43148 0.0
C1371 C 0.1854 0.13026 0.44012 0.0
C1372 C 0.18472 0.10838 0.45149 0.0
C1373 C 0.15958 0.0938 0.45442 0.0
C1374 C 0.13507 0.10111 0.44599 0.0
C1375 C 0.13565 0.12296 0.43458 0.0
H1376 H 0.15909 0.07686 0.46322 0.0
H1377 H 0.16557 0.28751 0.35173 0.0
H1378 H 0.93682 0.21492 0.38323 0.0
H1379 H 0.89548 0.18402 0.38299 0.0
H1380 H 0.84095 0.25678 0.38736 0.0
H1381 H 0.88258 0.28805 0.38752 0.0
H1382 H 0.82916 0.20902 0.40943 0.0
H1383 H 0.83963 0.22898 0.3533 0.0
H1384 H 0.86565 0.2351 0.32779 0.0
H1385 H 0.89125 0.14788 0.32927 0.0
H1386 H 0.86575 0.14133 0.35493 0.0
H1387 H 0.71827 0.10353 0.39477 0.0
H1388 H 0.74609 0.14756 0.39569 0.0
H1389 H 0.82086 0.1005 0.38285 0.0
H1390 H 0.79337 0.05708 0.38165 0.0
H1391 H 0.81299 0.14453 0.36307 0.0
H1392 H 0.81015 0.12682 0.42094 0.0
H1393 H 0.7862 0.11997 0.44707 0.0
H1394 H 0.74748 0.20188 0.44266 0.0
H1395 H 0.77094 0.20904 0.41639 0.0
C1396 C 0.91602 0.22433 0.3841 0.0
C1397 C 0.9128 0.2538 0.38537 0.0
C1398 C 0.89247 0.20672 0.38394 0.0
C1399 C 0.86525 0.2182 0.38512 0.0
C1400 C 0.86185 0.24762 0.38643 0.0
C1401 C 0.88552 0.26539 0.38639 0.0
C1402 C 0.84071 0.1989 0.38496 0.0
C1403 C 0.82504 0.19532 0.39918 0.0
C1404 C 0.83568 0.18098 0.37163 0.0
C1405 C 0.85086 0.18471 0.35609 0.0
C1406 C 0.85096 0.21115 0.34825 0.0
C1407 C 0.8656 0.21468 0.33375 0.0
C1408 C 0.88012 0.1919 0.32692 0.0
C1409 C 0.87998 0.16551 0.33457 0.0
C1410 C 0.8654 0.16186 0.34908 0.0
C1411 C 0.74075 0.10265 0.39247 0.0
C1412 C 0.75366 0.07703 0.38797 0.0
C1413 C 0.75657 0.12775 0.39295 0.0
C1414 C 0.78547 0.1273 0.38915 0.0
C1415 C 0.79852 0.1014 0.3856 0.0
C1416 C 0.78279 0.07658 0.38496 0.0
C1417 C 0.80233 0.15363 0.38782 0.0
C1418 C 0.8165 0.15863 0.37322 0.0
C1419 C 0.80604 0.17264 0.40084 0.0
C1420 C 0.79198 0.1683 0.41661 0.0
C1421 C 0.79632 0.14326 0.42548 0.0
C1422 C 0.78288 0.13934 0.44032 0.0
C1423 C 0.76525 0.16043 0.44649 0.0
C1424 C 0.76109 0.18553 0.43785 0.0
C1425 C 0.77445 0.18953 0.42298 0.0
H1426 H 0.75487 0.15737 0.45799 0.0
H1427 H 0.89144 0.19468 0.31569 0.0
H1428 H 0.94901 0.78302 0.39065 0.0
H1429 H 0.90872 0.81256 0.39762 0.0
H1430 H 0.85899 0.73785 0.40715 0.0
H1431 H 0.89988 0.70787 0.40034 0.0
H1432 H 0.83438 0.77639 0.38488 0.0
H1433 H 0.87118 0.77841 0.43788 0.0
H1434 H 0.90754 0.78197 0.45909 0.0
H1435 H 0.92579 0.86734 0.44456 0.0
H1436 H 0.88986 0.86418 0.42308 0.0
H1437 H 0.72877 0.88461 0.39652 0.0
H1438 H 0.75789 0.84254 0.40142 0.0
H1439 H 0.83312 0.89324 0.39637 0.0
H1440 H 0.80428 0.93516 0.3914 0.0
H1441 H 0.83656 0.85839 0.42228 0.0
H1442 H 0.80904 0.85132 0.36575 0.0
H1443 H 0.77464 0.84791 0.34345 0.0
H1444 H 0.74036 0.772 0.36422 0.0
H1445 H 0.77437 0.77518 0.38676 0.0
C1446 C 0.92967 0.77285 0.39453 0.0
C1447 C 0.92743 0.74322 0.39491 0.0
C1448 C 0.90671 0.78975 0.39859 0.0
C1449 C 0.88094 0.77738 0.40298 0.0
C1450 C 0.8788 0.74774 0.40388 0.0
C1451 C 0.9021 0.73071 0.40007 0.0
C1452 C 0.85597 0.79588 0.4049 0.0
C1453 C 0.8343 0.79385 0.3934 0.0
C1454 C 0.85623 0.81884 0.41584 0.0
C1455 C 0.87782 0.82101 0.42882 0.0
C1456 C 0.88306 0.79789 0.43913 0.0
C1457 C 0.90359 0.79985 0.45122 0.0
C1458 C 0.91897 0.82486 0.45317 0.0
C1459 C 0.91383 0.84799 0.44305 0.0
C1460 C 0.89334 0.84614 0.43093 0.0
C1461 C 0.75153 0.8867 0.3963 0.0
C1462 C 0.76425 0.91321 0.39354 0.0
C1463 C 0.76811 0.86269 0.39919 0.0
C1464 C 0.79766 0.86478 0.39926 0.0
C1465 C 0.81034 0.8912 0.39652 0.0
C1466 C 0.79384 0.91514 0.39366 0.0
C1467 C 0.81575 0.83955 0.4018 0.0
C1468 C 0.83609 0.84042 0.41414 0.0
C1469 C 0.81436 0.8156 0.39157 0.0
C1470 C 0.79396 0.8137 0.37804 0.0
C1471 C 0.794 0.83405 0.36563 0.0
C1472 C 0.77461 0.83213 0.35294 0.0
C1473 C 0.75525 0.80981 0.35245 0.0
C1474 C 0.75531 0.78932 0.36464 0.0
C1475 C 0.77464 0.79116 0.37737 0.0
H1476 H 0.74026 0.80836 0.34261 0.0
H1477 H 0.93486 0.82633 0.46254 0.0
H1478 H 0.06401 0.7905 0.37966 0.0
H1479 H 0.10571 0.82089 0.3797 0.0
H1480 H 0.15931 0.74744 0.38429 0.0
H1481 H 0.11734 0.71671 0.38428 0.0
H1482 H 0.17264 0.79411 0.40602 0.0
H1483 H 0.15993 0.77614 0.34985 0.0
H1484 H 0.13309 0.7713 0.32448 0.0
H1485 H 0.10927 0.85896 0.32692 0.0
H1486 H 0.13561 0.86423 0.35244 0.0
H1487 H 0.28486 0.89873 0.39046 0.0
H1488 H 0.25663 0.85488 0.39162 0.0
H1489 H 0.18148 0.90307 0.38092 0.0
H1490 H 0.20929 0.94624 0.37952 0.0
H1491 H 0.18849 0.85976 0.36014 0.0
H1492 H 0.19393 0.87541 0.41821 0.0
H1493 H 0.2192 0.8808 0.44408 0.0
H1494 H 0.25603 0.79832 0.43826 0.0
H1495 H 0.23124 0.79261 0.41223 0.0
C1496 C 0.08467 0.78082 0.38067 0.0
C1497 C 0.0875 0.7513 0.38193 0.0
C1498 C 0.10845 0.79815 0.38065 0.0
C1499 C 0.13553 0.78634 0.38193 0.0
C1500 C 0.13854 0.75688 0.38327 0.0
C1501 C 0.11465 0.73941 0.38312 0.0
C1502 C 0.16037 0.80529 0.38178 0.0
C1503 C 0.17665 0.80808 0.39588 0.0
C1504 C 0.16536 0.82351 0.36856 0.0
C1505 C 0.14968 0.82054 0.35311 0.0
C1506 C 0.14883 0.79435 0.34504 0.0
C1507 C 0.13371 0.79153 0.33062 0.0
C1508 C 0.11946 0.8148 0.3241 0.0
C1509 C 0.12033 0.84095 0.33197 0.0
C1510 C 0.1354 0.84388 0.34641 0.0
C1511 C 0.26223 0.89986 0.38871 0.0
C1512 C 0.24923 0.9257 0.38471 0.0
C1513 C 0.24618 0.87488 0.38933 0.0
C1514 C 0.21702 0.87573 0.38613 0.0
C1515 C 0.20399 0.90187 0.38317 0.0
C1516 C 0.2199 0.92654 0.38242 0.0
C1517 C 0.19982 0.84965 0.38469 0.0
C1518 C 0.18505 0.8454 0.37019 0.0
C1519 C 0.19621 0.83028 0.39755 0.0
C1520 C 0.21105 0.83375 0.41318 0.0
C1521 C 0.20763 0.85854 0.42237 0.0
C1522 C 0.22182 0.86163 0.43708 0.0
C1523 C 0.23929 0.83996 0.44278 0.0
C1524 C 0.24254 0.81512 0.43381 0.0
C1525 C 0.22843 0.81194 0.41909 0.0
H1526 H 0.25025 0.84239 0.45418 0.0
H1527 H 0.10776 0.81258 0.31294 0.0
H1528 H 0.1658 0.95271 0.66026 0.0
H1529 H 0.13417 0.91231 0.65672 0.0
H1530 H 0.2056 0.85563 0.65659 0.0
H1531 H 0.23743 0.89601 0.6595 0.0
H1532 H 0.17 0.84214 0.63289 0.0
H1533 H 0.16261 0.85933 0.6893 0.0
H1534 H 0.15576 0.88727 0.71411 0.0
H1535 H 0.07173 0.90869 0.69895 0.0
H1536 H 0.0782 0.88119 0.67392 0.0
H1537 H 0.07662 0.72031 0.64628 0.0
H1538 H 0.11489 0.75544 0.64679 0.0
H1539 H 0.05406 0.82255 0.64065 0.0
H1540 H 0.01601 0.7879 0.63996 0.0
H1541 H 0.08767 0.82696 0.66876 0.0
H1542 H 0.09729 0.81 0.61144 0.0
H1543 H 0.10511 0.78029 0.58739 0.0
H1544 H 0.18642 0.75578 0.60562 0.0
H1545 H 0.17889 0.78504 0.62992 0.0
C1546 C 0.17478 0.93166 0.6595 0.0
C1547 C 0.20413 0.92761 0.66027 0.0
C1548 C 0.15667 0.90855 0.65758 0.0
C1549 C 0.16751 0.8809 0.65653 0.0
C1550 C 0.19677 0.87675 0.65741 0.0
C1551 C 0.2149 0.89986 0.65929 0.0
C1552 C 0.14824 0.85646 0.65424 0.0
C1553 C 0.15224 0.83854 0.64088 0.0
C1554 C 0.12501 0.85182 0.6646 0.0
C1555 C 0.12099 0.86839 0.67966 0.0
C1556 C 0.14274 0.87018 0.69119 0.0
C1557 C 0.13892 0.88591 0.70531 0.0
C1558 C 0.11335 0.8998 0.70809 0.0
C1559 C 0.09153 0.89794 0.69677 0.0
C1560 C 0.09525 0.88226 0.68262 0.0
C1561 C 0.07154 0.74248 0.64453 0.0
C1562 C 0.0433 0.7514 0.6433 0.0
C1563 C 0.09339 0.7625 0.6449 0.0
C1564 C 0.08716 0.79155 0.64397 0.0
C1565 C 0.05922 0.80023 0.64154 0.0
C1566 C 0.03752 0.78037 0.64112 0.0
C1567 C 0.109 0.81323 0.6472 0.0
C1568 C 0.10554 0.8305 0.66083 0.0
C1569 C 0.13283 0.81697 0.6372 0.0
C1570 C 0.13738 0.79944 0.62259 0.0
C1571 C 0.11672 0.79805 0.6104 0.0
C1572 C 0.12112 0.78135 0.5967 0.0
C1573 C 0.14621 0.76609 0.595 0.0
C1574 C 0.16698 0.76757 0.60697 0.0
C1575 C 0.16266 0.78423 0.6207 0.0
H1576 H 0.14959 0.75317 0.58439 0.0
H1577 H 0.11042 0.91197 0.71903 0.0
H1578 H 0.28718 0.10101 0.64464 0.0
H1579 H 0.26079 0.14514 0.64838 0.0
H1580 H 0.1906 0.10948 0.62196 0.0
H1581 H 0.21765 0.06644 0.61724 0.0
H1582 H 0.19197 0.16132 0.61551 0.0
H1583 H 0.19869 0.1089 0.66634 0.0
H1584 H 0.22441 0.08683 0.68901 0.0
H1585 H 0.26359 0.1666 0.69999 0.0
H1586 H 0.23815 0.18905 0.67735 0.0
H1587 H 0.06924 0.20682 0.65551 0.0
H1588 H 0.11135 0.17868 0.65012 0.0
H1589 H 0.16341 0.25286 0.65578 0.0
H1590 H 0.12118 0.28174 0.66039 0.0
H1591 H 0.17837 0.19136 0.67238 0.0
H1592 H 0.16274 0.24393 0.6227 0.0
H1593 H 0.13216 0.26303 0.60116 0.0
H1594 H 0.10548 0.17878 0.58895 0.0
H1595 H 0.13555 0.15924 0.61061 0.0
C1596 C 0.26633 0.10297 0.63936 0.0
C1597 C 0.25435 0.08039 0.63071 0.0
C1598 C 0.25117 0.12805 0.64162 0.0
C1599 C 0.22335 0.13042 0.63585 0.0
C1600 C 0.21198 0.10827 0.62656 0.0
C1601 C 0.22745 0.08361 0.62387 0.0
C1602 C 0.20518 0.15491 0.6402 0.0
C1603 C 0.18917 0.16787 0.62796 0.0
C1604 C 0.20174 0.16404 0.6564 0.0
C1605 C 0.21679 0.15055 0.67008 0.0
C1606 C 0.21289 0.12166 0.67357 0.0
C1607 C 0.22742 0.1091 0.68642 0.0
C1608 C 0.24574 0.12526 0.69592 0.0
C1609 C 0.24946 0.15406 0.69263 0.0
C1610 C 0.23496 0.16673 0.67981 0.0
C1611 C 0.08958 0.21728 0.65557 0.0
C1612 C 0.09174 0.24665 0.65816 0.0
C1613 C 0.1136 0.20111 0.65261 0.0
C1614 C 0.14026 0.21386 0.65245 0.0
C1615 C 0.14287 0.24279 0.65588 0.0
C1616 C 0.11873 0.25916 0.65861 0.0
C1617 C 0.16495 0.1968 0.64778 0.0
C1618 C 0.18194 0.18524 0.65993 0.0
C1619 C 0.16893 0.18852 0.63157 0.0
C1620 C 0.15121 0.20017 0.61836 0.0
C1621 C 0.15016 0.22951 0.61551 0.0
C1622 C 0.13296 0.24041 0.60327 0.0
C1623 C 0.11684 0.22213 0.59371 0.0
C1624 C 0.11796 0.19291 0.59636 0.0
C1625 C 0.1351 0.18192 0.60861 0.0
H1626 H 0.10352 0.23061 0.58424 0.0
H1627 H 0.257 0.11553 0.70586 0.0
H1628 H 0.7308 0.11498 0.64309 0.0
H1629 H 0.76183 0.15638 0.64058 0.0
H1630 H 0.83156 0.10702 0.65883 0.0
H1631 H 0.80073 0.06579 0.66149 0.0
H1632 H 0.82557 0.15902 0.674 0.0
H1633 H 0.82638 0.12058 0.61956 0.0
H1634 H 0.80381 0.10557 0.59412 0.0
H1635 H 0.77118 0.18956 0.58712 0.0
H1636 H 0.79323 0.20497 0.61266 0.0
H1637 H 0.9528 0.21672 0.65693 0.0
H1638 H 0.91184 0.18667 0.65244 0.0
H1639 H 0.86184 0.26004 0.64035 0.0
H1640 H 0.90338 0.29063 0.64472 0.0
H1641 H 0.85029 0.20441 0.6218 0.0
H1642 H 0.85347 0.24409 0.67504 0.0
H1643 H 0.87729 0.2589 0.70013 0.0
H1644 H 0.90166 0.1728 0.70944 0.0
H1645 H 0.87842 0.15754 0.68423 0.0
C1646 C 0.75273 0.11306 0.64663 0.0
C1647 C 0.76338 0.08719 0.65252 0.0
C1648 C 0.77043 0.13662 0.64508 0.0
C1649 C 0.79897 0.13468 0.64947 0.0
C1650 C 0.80958 0.10891 0.65537 0.0
C1651 C 0.79201 0.08535 0.6568 0.0
C1652 C 0.81794 0.15949 0.64837 0.0
C1653 C 0.83091 0.16896 0.66259 0.0
C1654 C 0.82416 0.17307 0.63354 0.0
C1655 C 0.81116 0.16384 0.61812 0.0
C1656 C 0.81419 0.13579 0.61267 0.0
C1657 C 0.80153 0.12721 0.59822 0.0
C1658 C 0.78599 0.14657 0.58904 0.0
C1659 C 0.78317 0.17457 0.59426 0.0
C1660 C 0.79575 0.18324 0.60872 0.0
C1661 C 0.93328 0.22648 0.65297 0.0
C1662 C 0.93107 0.25601 0.65144 0.0
C1663 C 0.90994 0.20926 0.65034 0.0
C1664 C 0.88381 0.22122 0.6463 0.0
C1665 C 0.88191 0.25051 0.64346 0.0
C1666 C 0.90556 0.26789 0.64598 0.0
C1667 C 0.8584 0.20318 0.64737 0.0
C1668 C 0.84431 0.19496 0.63324 0.0
C1669 C 0.85087 0.19076 0.66231 0.0
C1670 C 0.86432 0.19971 0.67769 0.0
C1671 C 0.86405 0.22834 0.68238 0.0
C1672 C 0.87745 0.23681 0.69663 0.0
C1673 C 0.89101 0.21681 0.70637 0.0
C1674 C 0.89114 0.18827 0.70189 0.0
C1675 C 0.87783 0.17969 0.68763 0.0
H1676 H 0.90139 0.22341 0.71739 0.0
H1677 H 0.77619 0.13991 0.57785 0.0
H1678 H 0.89891 0.75387 0.68618 0.0
H1679 H 0.8582 0.78572 0.68598 0.0
H1680 H 0.82938 0.74829 0.64138 0.0
H1681 H 0.87022 0.7166 0.64148 0.0
H1682 H 0.83282 0.80337 0.63827 0.0
H1683 H 0.79105 0.74155 0.67642 0.0
H1684 H 0.78755 0.71175 0.70078 0.0
H1685 H 0.80021 0.78484 0.73075 0.0
H1686 H 0.80426 0.81504 0.70657 0.0
H1687 H 0.72026 0.90704 0.64064 0.0
H1688 H 0.74384 0.86064 0.63964 0.0
H1689 H 0.79243 0.8826 0.6819 0.0
H1690 H 0.76933 0.92844 0.683 0.0
H1691 H 0.77015 0.8289 0.68388 0.0
H1692 H 0.82116 0.88763 0.64526 0.0
H1693 H 0.82477 0.91745 0.62088 0.0
H1694 H 0.7937 0.84887 0.59182 0.0
H1695 H 0.78956 0.81877 0.61609 0.0
C1696 C 0.88343 0.75188 0.67661 0.0
C1697 C 0.88781 0.73298 0.66378 0.0
C1698 C 0.86015 0.77008 0.67649 0.0
C1699 C 0.8407 0.76939 0.66365 0.0
C1700 C 0.84417 0.74929 0.65136 0.0
C1701 C 0.86748 0.73122 0.65143 0.0
C1702 C 0.8188 0.79172 0.66215 0.0
C1703 C 0.81861 0.80847 0.64811 0.0
C1704 C 0.80046 0.79863 0.67502 0.0
C1705 C 0.79815 0.78055 0.68964 0.0
C1706 C 0.79333 0.75125 0.68819 0.0
C1707 C 0.79121 0.73429 0.70198 0.0
C1708 C 0.79371 0.74639 0.7173 0.0
C1709 C 0.79829 0.77549 0.71887 0.0
C1710 C 0.80047 0.79255 0.70512 0.0
C1711 C 0.73604 0.90193 0.64966 0.0
C1712 C 0.743 0.92148 0.66184 0.0
C1713 C 0.74941 0.87546 0.6491 0.0
C1714 C 0.76978 0.86821 0.66075 0.0
C1715 C 0.77661 0.88768 0.67288 0.0
C1716 C 0.76349 0.91402 0.67339 0.0
C1717 C 0.78496 0.84082 0.66028 0.0
C1718 C 0.78389 0.82321 0.67393 0.0
C1719 C 0.8021 0.83305 0.64707 0.0
C1720 C 0.8047 0.8511 0.6325 0.0
C1721 C 0.81487 0.87901 0.63369 0.0
C1722 C 0.81706 0.89593 0.61989 0.0
C1723 C 0.80937 0.88509 0.60482 0.0
C1724 C 0.79957 0.85726 0.60351 0.0
C1725 C 0.79731 0.84026 0.61728 0.0
H1726 H 0.81108 0.89823 0.59415 0.0
H1727 H 0.79204 0.73322 0.72796 0.0
H1728 H 0.6054 0.77784 0.88381 0.0
H1729 H 0.6493 0.75029 0.88318 0.0
H1730 H 0.6148 0.69224 0.91819 0.0
H1731 H 0.57067 0.71913 0.9184 0.0
H1732 H 0.67983 0.70263 0.91816 0.0
H1733 H 0.59637 0.67528 0.88449 0.0
H1734 H 0.55976 0.69023 0.86503 0.0
H1735 H 0.62392 0.71958 0.8325 0.0
H1736 H 0.66087 0.7052 0.85194 0.0
H1737 H 0.71885 0.56258 0.90954 0.0
H1738 H 0.69486 0.60754 0.91225 0.0
H1739 H 0.71736 0.62938 0.86334 0.0
H1740 H 0.73937 0.58295 0.85997 0.0
H1741 H 0.66738 0.64613 0.86808 0.0
H1742 H 0.7513 0.65953 0.89774 0.0
H1743 H 0.7894 0.64874 0.91709 0.0
H1744 H 0.73007 0.65099 0.95618 0.0
H1745 H 0.69151 0.66136 0.93705 0.0
C1746 C 0.60784 0.76007 0.89199 0.0
C1747 C 0.5849 0.75047 0.90119 0.0
C1748 C 0.63284 0.74434 0.89159 0.0
C1749 C 0.63512 0.71924 0.9006 0.0
C1750 C 0.61346 0.71169 0.91127 0.0
C1751 C 0.58828 0.727 0.91138 0.0
C1752 C 0.65618 0.69757 0.89621 0.0
C1753 C 0.6774 0.69026 0.90721 0.0
C1754 C 0.65335 0.68217 0.88167 0.0
C1755 C 0.63129 0.68934 0.86966 0.0
C1756 C 0.60262 0.68495 0.87319 0.0
C1757 C 0.58183 0.69335 0.86219 0.0
C1758 C 0.58951 0.70586 0.84754 0.0
C1759 C 0.61801 0.70989 0.84385 0.0
C1760 C 0.63888 0.70161 0.85485 0.0
C1761 C 0.71822 0.57646 0.89915 0.0
C1762 C 0.73104 0.56878 0.88447 0.0
C1763 C 0.705 0.60265 0.90088 0.0
C1764 C 0.70502 0.62234 0.88818 0.0
C1765 C 0.71738 0.61472 0.87341 0.0
C1766 C 0.73015 0.58817 0.87154 0.0
C1767 C 0.69099 0.65028 0.89029 0.0
C1768 C 0.67078 0.65876 0.87885 0.0
C1769 C 0.69531 0.66711 0.90429 0.0
C1770 C 0.71846 0.66111 0.91592 0.0
C1771 C 0.74633 0.65757 0.91045 0.0
C1772 C 0.76802 0.65153 0.92139 0.0
C1773 C 0.76215 0.64915 0.93785 0.0
C1774 C 0.73458 0.65285 0.94342 0.0
C1775 C 0.7128 0.65886 0.93254 0.0
H1776 H 0.77897 0.64446 0.9463 0.0
H1777 H 0.57339 0.7124 0.83906 0.0
H1778 H 0.44175 0.68795 0.89215 0.0
H1779 H 0.39783 0.66139 0.89502 0.0
H1780 H 0.35191 0.73013 0.87284 0.0
H1781 H 0.39574 0.75725 0.87041 0.0
H1782 H 0.32659 0.71283 0.90008 0.0
H1783 H 0.36327 0.66797 0.85269 0.0
H1784 H 0.39882 0.64347 0.83608 0.0
H1785 H 0.40086 0.57457 0.86993 0.0
H1786 H 0.3656 0.59885 0.88688 0.0
H1787 H 0.19776 0.63737 0.88808 0.0
H1788 H 0.24092 0.66535 0.88634 0.0
H1789 H 0.28798 0.59681 0.90792 0.0
H1790 H 0.24493 0.5685 0.90952 0.0
H1791 H 0.31256 0.61436 0.88084 0.0
H1792 H 0.27592 0.65918 0.92827 0.0
H1793 H 0.24037 0.68364 0.94491 0.0
H1794 H 0.23814 0.75249 0.91103 0.0
H1795 H 0.27341 0.72826 0.89406 0.0
C1796 C 0.42233 0.69734 0.88779 0.0
C1797 C 0.42223 0.72473 0.88108 0.0
C1798 C 0.39726 0.68206 0.88933 0.0
C1799 C 0.37158 0.69372 0.88408 0.0
C1800 C 0.3715 0.72074 0.87697 0.0
C1801 C 0.3966 0.73607 0.87543 0.0
C1802 C 0.34472 0.67822 0.8867 0.0
C1803 C 0.32332 0.69145 0.89566 0.0
C1804 C 0.3408 0.65005 0.88132 0.0
C1805 C 0.36198 0.63537 0.87113 0.0
C1806 C 0.37147 0.6477 0.85667 0.0
C1807 C 0.39154 0.63383 0.84717 0.0
C1808 C 0.40215 0.60751 0.85197 0.0
C1809 C 0.39265 0.59498 0.86625 0.0
C1810 C 0.3726 0.60877 0.87579 0.0
C1811 C 0.21715 0.62842 0.89278 0.0
C1812 C 0.21791 0.60057 0.89882 0.0
C1813 C 0.24185 0.6445 0.89178 0.0
C1814 C 0.26772 0.63317 0.89698 0.0
C1815 C 0.26828 0.6059 0.90374 0.0
C1816 C 0.24361 0.58978 0.9047 0.0
C1817 C 0.29443 0.64891 0.89428 0.0
C1818 C 0.3158 0.63573 0.88528 0.0
C1819 C 0.29831 0.67711 0.89963 0.0
C1820 C 0.27712 0.69176 0.90982 0.0
C1821 C 0.26768 0.67942 0.9243 0.0
C1822 C 0.24762 0.69327 0.9338 0.0
C1823 C 0.23695 0.71957 0.92901 0.0
C1824 C 0.24639 0.73211 0.91472 0.0
C1825 C 0.26645 0.71834 0.90516 0.0
H1826 H 0.22142 0.73026 0.93638 0.0
H1827 H 0.41768 0.59681 0.8446 0.0
H1828 H 0.40863 0.24085 0.90521 0.0
H1829 H 0.37385 0.27926 0.90826 0.0
H1830 H 0.3671 0.28579 0.85642 0.0
H1831 H 0.4019 0.24826 0.85338 0.0
H1832 H 0.37847 0.33569 0.86923 0.0
H1833 H 0.31323 0.25929 0.88012 0.0
H1834 H 0.29592 0.21713 0.89464 0.0
H1835 H 0.2936 0.26446 0.93887 0.0
H1836 H 0.31126 0.30682 0.92464 0.0
H1837 H 0.26391 0.42848 0.85689 0.0
H1838 H 0.29388 0.38626 0.85784 0.0
H1839 H 0.29594 0.39082 0.90984 0.0
H1840 H 0.26541 0.43254 0.90901 0.0
H1841 H 0.2883 0.33659 0.89952 0.0
H1842 H 0.35168 0.41312 0.88869 0.0
H1843 H 0.36921 0.45549 0.87446 0.0
H1844 H 0.37583 0.40784 0.8305 0.0
H1845 H 0.35795 0.36525 0.84441 0.0
C1846 C 0.39914 0.25012 0.89453 0.0
C1847 C 0.40804 0.24185 0.87907 0.0
C1848 C 0.37936 0.27206 0.89626 0.0
C1849 C 0.36803 0.28556 0.88254 0.0
C1850 C 0.37576 0.27595 0.86716 0.0
C1851 C 0.3956 0.25444 0.86545 0.0
C1852 C 0.34993 0.31113 0.88387 0.0
C1853 C 0.35859 0.33572 0.8757 0.0
C1854 C 0.32451 0.31156 0.8928 0.0
C1855 C 0.31387 0.28613 0.90135 0.0
C1856 C 0.30926 0.26064 0.89297 0.0
C1857 C 0.29933 0.23672 0.90114 0.0
C1858 C 0.29375 0.23809 0.91768 0.0
C1859 C 0.29799 0.26341 0.92607 0.0
C1860 C 0.30793 0.28739 0.91795 0.0
C1861 C 0.27065 0.42042 0.86852 0.0
C1862 C 0.26255 0.43406 0.88286 0.0
C1863 C 0.28787 0.39639 0.86905 0.0
C1864 C 0.29737 0.38558 0.88392 0.0
C1865 C 0.28894 0.39885 0.89825 0.0
C1866 C 0.27177 0.4229 0.89773 0.0
C1867 C 0.3165 0.36071 0.88445 0.0
C1868 C 0.3082 0.33645 0.89307 0.0
C1869 C 0.34235 0.36052 0.87596 0.0
C1870 C 0.35324 0.38606 0.86757 0.0
C1871 C 0.35667 0.41173 0.87596 0.0
C1872 C 0.3667 0.43578 0.86795 0.0
C1873 C 0.37356 0.43438 0.85158 0.0
C1874 C 0.37048 0.4089 0.84318 0.0
C1875 C 0.36042 0.38479 0.85112 0.0
H1876 H 0.38133 0.45302 0.8454 0.0
H1877 H 0.28606 0.21955 0.92399 0.0
H1878 H 0.7338 0.43113 0.90073 0.0
H1879 H 0.69272 0.40033 0.90222 0.0
H1880 H 0.74703 0.32817 0.90995 0.0
H1881 H 0.78843 0.35893 0.90801 0.0
H1882 H 0.71115 0.31653 0.8874 0.0
H1883 H 0.70265 0.35542 0.9402 0.0
H1884 H 0.70052 0.39284 0.9609 0.0
H1885 H 0.62612 0.42715 0.9386 0.0
H1886 H 0.62802 0.39016 0.91761 0.0
H1887 H 0.59628 0.22268 0.90133 0.0
H1888 H 0.63788 0.25207 0.906 0.0
H1889 H 0.5917 0.32596 0.89049 0.0
H1890 H 0.5501 0.29662 0.88533 0.0
H1891 H 0.62397 0.33469 0.91882 0.0
H1892 H 0.63549 0.29675 0.86507 0.0
H1893 H 0.638 0.2585 0.84487 0.0
H1894 H 0.70778 0.2212 0.8703 0.0
H1895 H 0.70541 0.25905 0.8908 0.0
C1896 C 0.73706 0.40884 0.90312 0.0
C1897 C 0.76443 0.39751 0.90427 0.0
C1898 C 0.71347 0.39119 0.904 0.0
C1899 C 0.71669 0.3619 0.90634 0.0
C1900 C 0.74399 0.35069 0.90812 0.0
C1901 C 0.76763 0.36831 0.90705 0.0
C1902 C 0.69179 0.34279 0.90557 0.0
C1903 C 0.69234 0.32021 0.89454 0.0
C1904 C 0.66693 0.34789 0.9146 0.0
C1905 C 0.66562 0.37012 0.92725 0.0
C1906 C 0.68595 0.37106 0.93963 0.0
C1907 C 0.68476 0.39218 0.95144 0.0
C1908 C 0.66323 0.41239 0.95105 0.0
C1909 C 0.6428 0.41148 0.93888 0.0
C1910 C 0.6439 0.39042 0.92704 0.0
C1911 C 0.59499 0.24511 0.89871 0.0
C1912 C 0.56986 0.2572 0.89277 0.0
C1913 C 0.61875 0.26191 0.90152 0.0
C1914 C 0.61788 0.29113 0.8985 0.0
C1915 C 0.59273 0.30344 0.89295 0.0
C1916 C 0.56898 0.28662 0.89003 0.0
C1917 C 0.6435 0.30872 0.90066 0.0
C1918 C 0.643 0.33096 0.91187 0.0
C1919 C 0.66852 0.30321 0.89192 0.0
C1920 C 0.67007 0.28055 0.87956 0.0
C1921 C 0.65121 0.28026 0.86643 0.0
C1922 C 0.65264 0.25868 0.85491 0.0
C1923 C 0.67298 0.23739 0.85632 0.0
C1924 C 0.692 0.23768 0.86923 0.0
C1925 C 0.69064 0.2592 0.8808 0.0
H1926 H 0.67405 0.2207 0.84739 0.0
H1927 H 0.66235 0.42873 0.9602 0.0
H1928 H 0.55961 0.2513 0.13224 0.0
H1929 H 0.5857 0.29551 0.13452 0.0
H1930 H 0.66046 0.24913 0.14823 0.0
H1931 H 0.6342 0.20469 0.14644 0.0
H1932 H 0.64908 0.28926 0.16957 0.0
H1933 H 0.65572 0.28529 0.11194 0.0
H1934 H 0.63801 0.28039 0.08408 0.0
H1935 H 0.58594 0.35401 0.09033 0.0
H1936 H 0.60305 0.35913 0.11832 0.0
H1937 H 0.74411 0.40463 0.16896 0.0
H1938 H 0.71832 0.36091 0.16417 0.0
H1939 H 0.64322 0.4088 0.1531 0.0
H1940 H 0.66894 0.45303 0.1581 0.0
H1941 H 0.65428 0.36847 0.13031 0.0
H1942 H 0.64747 0.37216 0.18793 0.0
H1943 H 0.66511 0.37701 0.21581 0.0
H1944 H 0.71748 0.30363 0.20949 0.0
H1945 H 0.70044 0.29856 0.18148 0.0
C1946 C 0.58174 0.25037 0.13544 0.0
C1947 C 0.59469 0.22444 0.13939 0.0
C1948 C 0.5967 0.27573 0.13665 0.0
C1949 C 0.62503 0.27566 0.14159 0.0
C1950 C 0.63855 0.24967 0.14449 0.0
C1951 C 0.62355 0.22426 0.14335 0.0
C1952 C 0.63961 0.3027 0.14529 0.0
C1953 C 0.65067 0.30638 0.16088 0.0
C1954 C 0.64075 0.32541 0.13414 0.0
C1955 C 0.6305 0.32244 0.11728 0.0
C1956 C 0.64033 0.30031 0.10742 0.0
C1957 C 0.63043 0.29752 0.09159 0.0
C1958 C 0.61081 0.31684 0.08545 0.0
C1959 C 0.60111 0.33904 0.09511 0.0
C1960 C 0.61094 0.34192 0.11095 0.0
C1961 C 0.72189 0.40598 0.16597 0.0
C1962 C 0.70852 0.43241 0.16409 0.0
C1963 C 0.70723 0.38089 0.16311 0.0
C1964 C 0.67882 0.38159 0.15837 0.0
C1965 C 0.66517 0.40784 0.15673 0.0
C1966 C 0.67987 0.43305 0.15961 0.0
C1967 C 0.6639 0.35485 0.15453 0.0
C1968 C 0.65272 0.35127 0.13896 0.0
C1969 C 0.66263 0.33219 0.16568 0.0
C1970 C 0.67286 0.33513 0.18255 0.0
C1971 C 0.66292 0.35719 0.19244 0.0
C1972 C 0.67277 0.35995 0.20827 0.0
C1973 C 0.69245 0.34068 0.21441 0.0
C1974 C 0.70225 0.31856 0.20472 0.0
C1975 C 0.69248 0.31571 0.18887 0.0
H1976 H 0.70006 0.34286 0.22667 0.0
H1977 H 0.60317 0.31464 0.07319 0.0
H1978 H 0.54874 0.6903 0.16932 0.0
H1979 H 0.59287 0.66403 0.16608 0.0
H1980 H 0.63871 0.7427 0.16238 0.0
H1981 H 0.59461 0.76908 0.16523 0.0
H1982 H 0.65187 0.70775 0.13807 0.0
H1983 H 0.64654 0.70132 0.19541 0.0
H1984 H 0.62441 0.69162 0.22176 0.0
H1985 H 0.61377 0.60424 0.20873 0.0
H1986 H 0.63547 0.6135 0.1822 0.0
H1987 H 0.77375 0.60043 0.15998 0.0
H1988 H 0.74033 0.6379 0.16691 0.0
H1989 H 0.693 0.62033 0.12353 0.0
H1990 H 0.72626 0.58279 0.11653 0.0
H1991 H 0.68588 0.63029 0.17362 0.0
H1992 H 0.65885 0.67966 0.11119 0.0
H1993 H 0.6828 0.69119 0.0856 0.0
H1994 H 0.76219 0.69676 0.11047 0.0
H1995 H 0.73867 0.68567 0.13624 0.0
C1996 C 0.56827 0.70199 0.16802 0.0
C1997 C 0.56817 0.73176 0.16754 0.0
C1998 C 0.5935 0.68696 0.16626 0.0
C1999 C 0.6191 0.70142 0.16402 0.0
C2000 C 0.61919 0.73114 0.1641 0.0
C2001 C 0.594 0.74618 0.16591 0.0
C2002 C 0.64537 0.68549 0.16048 0.0
C2003 C 0.65942 0.69092 0.14589 0.0
C2004 C 0.65548 0.66385 0.1708 0.0
C2005 C 0.64245 0.65817 0.18676 0.0
C2006 C 0.63928 0.68008 0.19811 0.0
C2007 C 0.62685 0.67465 0.21309 0.0
C2008 C 0.61764 0.64735 0.2169 0.0
C2009 C 0.6209 0.62539 0.20576 0.0
C2010 C 0.6333 0.63071 0.19075 0.0
C2011 C 0.75641 0.60475 0.15181 0.0
C2012 C 0.75243 0.58833 0.13782 0.0
C2013 C 0.73734 0.62619 0.15579 0.0
C2014 C 0.7141 0.63185 0.14578 0.0
C2015 C 0.71093 0.61653 0.13136 0.0
C2016 C 0.73 0.59506 0.12737 0.0
C2017 C 0.69196 0.65209 0.15102 0.0
C2018 C 0.67856 0.64735 0.16589 0.0
C2019 C 0.6827 0.6746 0.14105 0.0
C2020 C 0.697 0.6816 0.12563 0.0
C2021 C 0.68139 0.68348 0.11121 0.0
C2022 C 0.6949 0.68991 0.09667 0.0
C2023 C 0.72401 0.69463 0.0964 0.0
C2024 C 0.73966 0.693 0.11068 0.0
C2025 C 0.72625 0.6866 0.12526 0.0
H2026 H 0.73442 0.69959 0.08513 0.0
H2027 H 0.60802 0.64319 0.22851 0.0
H2028 H 0.24181 0.59071 0.1685 0.0
H2029 H 0.26991 0.63331 0.16421 0.0
H2030 H 0.34629 0.58418 0.16838 0.0
H2031 H 0.31824 0.54128 0.17298 0.0
H2032 H 0.35014 0.64014 0.18197 0.0
H2033 H 0.32212 0.59246 0.13291 0.0
H2034 H 0.28728 0.57045 0.11468 0.0
H2035 H 0.24298 0.64954 0.11087 0.0
H2036 H 0.27731 0.6719 0.12934 0.0
H2037 H 0.42534 0.7221 0.11532 0.0
H2038 H 0.39197 0.68479 0.12266 0.0
H2039 H 0.36092 0.73625 0.1618 0.0
H2040 H 0.39438 0.77353 0.15468 0.0
H2041 H 0.33482 0.67881 0.12683 0.0
H2042 H 0.35481 0.6943 0.19466 0.0
H2043 H 0.3906 0.7165 0.21227 0.0
H2044 H 0.45479 0.69933 0.17708 0.0
H2045 H 0.41949 0.67662 0.15941 0.0
C2046 C 0.26458 0.58905 0.16909 0.0
C2047 C 0.27783 0.56257 0.17099 0.0
C2048 C 0.28059 0.61341 0.16652 0.0
C2049 C 0.31009 0.61174 0.16578 0.0
C2050 C 0.32351 0.58581 0.16889 0.0
C2051 C 0.30748 0.56134 0.17141 0.0
C2052 C 0.32658 0.63617 0.15982 0.0
C2053 C 0.34674 0.64869 0.16996 0.0
C2054 C 0.32237 0.64698 0.14405 0.0
C2055 C 0.30213 0.63378 0.13262 0.0
C2056 C 0.30485 0.60511 0.12826 0.0
C2057 C 0.2852 0.59257 0.11789 0.0
C2058 C 0.26288 0.60857 0.11165 0.0
C2059 C 0.26025 0.63717 0.11573 0.0
C2060 C 0.27981 0.64979 0.12615 0.0
C2061 C 0.411 0.72575 0.12527 0.0
C2062 C 0.41287 0.75051 0.13463 0.0
C2063 C 0.39193 0.70441 0.12943 0.0
C2064 C 0.37445 0.70757 0.14297 0.0
C2065 C 0.37464 0.73322 0.1515 0.0
C2066 C 0.39377 0.75448 0.1474 0.0
C2067 C 0.35809 0.68311 0.14905 0.0
C2068 C 0.33805 0.67046 0.1389 0.0
C2069 C 0.36273 0.67195 0.16472 0.0
C2070 C 0.38446 0.68394 0.17568 0.0
C2071 C 0.37661 0.695 0.19077 0.0
C2072 C 0.39681 0.70772 0.20074 0.0
C2073 C 0.42494 0.70935 0.19579 0.0
C2074 C 0.43299 0.69806 0.18091 0.0
C2075 C 0.41291 0.68525 0.17091 0.0
H2076 H 0.44049 0.71938 0.20348 0.0
H2077 H 0.24767 0.59881 0.10363 0.0
H2078 H 0.22425 0.38988 0.15133 0.0
H2079 H 0.26092 0.35481 0.15702 0.0
H2080 H 0.31655 0.39674 0.12342 0.0
H2081 H 0.2797 0.43124 0.1173 0.0
H2082 H 0.32533 0.34258 0.12194 0.0
H2083 H 0.31807 0.41049 0.16449 0.0
H2084 H 0.29416 0.43822 0.18565 0.0
H2085 H 0.27438 0.36166 0.21126 0.0
H2086 H 0.29775 0.33339 0.19008 0.0
H2087 H 0.4582 0.30815 0.15619 0.0
H2088 H 0.41609 0.33718 0.15219 0.0
H2089 H 0.36384 0.26861 0.16902 0.0
H2090 H 0.40558 0.23871 0.17221 0.0
H2091 H 0.35231 0.33359 0.17969 0.0
H2092 H 0.36179 0.26673 0.13473 0.0
H2093 H 0.39005 0.24313 0.11369 0.0
H2094 H 0.41025 0.32392 0.09283 0.0
H2095 H 0.3825 0.34801 0.11396 0.0
C2096 C 0.24411 0.39125 0.14492 0.0
C2097 C 0.24923 0.4135 0.13402 0.0
C2098 C 0.26511 0.37132 0.14825 0.0
C2099 C 0.29177 0.37361 0.14099 0.0
C2100 C 0.29621 0.39464 0.12926 0.0
C2101 C 0.27509 0.41435 0.12575 0.0
C2102 C 0.31556 0.35535 0.14629 0.0
C2103 C 0.33118 0.34074 0.13457 0.0
C2104 C 0.32334 0.35288 0.16279 0.0
C2105 C 0.30944 0.3698 0.17562 0.0
C2106 C 0.30846 0.39954 0.17458 0.0
C2107 C 0.29503 0.41536 0.18658 0.0
C2108 C 0.2828 0.4017 0.1998 0.0
C2109 C 0.2839 0.37219 0.20102 0.0
C2110 C 0.29723 0.35626 0.18901 0.0
C2111 C 0.43781 0.29919 0.15914 0.0
C2112 C 0.43536 0.27084 0.16426 0.0
C2113 C 0.41382 0.31593 0.15697 0.0
C2114 C 0.387 0.30487 0.1602 0.0
C2115 C 0.38448 0.27746 0.16652 0.0
C2116 C 0.40844 0.26047 0.16842 0.0
C2117 C 0.36163 0.32092 0.15534 0.0
C2118 C 0.34599 0.33522 0.16713 0.0
C2119 C 0.35415 0.32364 0.1389 0.0
C2120 C 0.37033 0.30916 0.12601 0.0
C2121 C 0.37247 0.27946 0.12575 0.0
C2122 C 0.38836 0.266 0.11379 0.0
C2123 C 0.402 0.28202 0.10196 0.0
C2124 C 0.3997 0.31154 0.10202 0.0
C2125 C 0.38389 0.3251 0.11398 0.0
H2126 H 0.4143 0.27156 0.09271 0.0
H2127 H 0.27248 0.41399 0.2091 0.0
H2128 H 0.04153 0.32839 0.45593 0.0
H2129 H 0.04302 0.32337 0.48541 0.0
H2130 H 0.9527 0.33434 0.48742 0.0
H2131 H 0.95123 0.33962 0.45815 0.0
H2132 H 0.97612 0.36566 0.50962 0.0
H2133 H 0.98554 0.26865 0.49319 0.0
H2134 H 0.00649 0.22847 0.47845 0.0
H2135 H 0.08568 0.24236 0.50244 0.0
H2136 H 0.0653 0.2829 0.51717 0.0
H2137 H 0.96004 0.32849 0.59249 0.0
H2138 H 0.95646 0.32555 0.56292 0.0
H2139 H 0.04721 0.32222 0.5595 0.0
H2140 H 0.0508 0.32477 0.58888 0.0
H2141 H 0.02245 0.28579 0.5382 0.0
H2142 H 0.01329 0.38358 0.55386 0.0
H2143 H 0.99222 0.42334 0.56892 0.0
H2144 H 0.91215 0.40753 0.54631 0.0
H2145 H 0.93265 0.36733 0.53132 0.0
C2146 C 0.022 0.32938 0.46266 0.0
C2147 C -0.0037 0.33458 0.45468 0.0
C2148 C 0.02283 0.32651 0.47953 0.0
C2149 C -0.00208 0.32833 0.48872 0.0
C2150 C 0.97224 0.33304 0.48069 0.0
C2151 C 0.97144 0.33611 0.46391 0.0
C2152 C -0.00152 0.32621 0.50672 0.0
C2153 C 0.98589 0.34793 0.51582 0.0
C2154 C 0.01169 0.30343 0.51494 0.0
C2155 C 0.02396 0.27898 0.50616 0.0
C2156 C 0.00748 0.26327 0.49523 0.0
C2157 C 0.01924 0.24041 0.4869 0.0
C2158 C 0.04742 0.23291 0.48948 0.0
C2159 C 0.06387 0.24822 0.50044 0.0
C2160 C 0.05221 0.27112 0.50879 0.0
C2161 C 0.97914 0.32667 0.58541 0.0
C2162 C 0.0057 0.32718 0.593 0.0
C2163 C 0.97712 0.32518 0.56853 0.0
C2164 C 0.00161 0.32402 0.55895 0.0
C2165 C 0.02804 0.3232 0.56659 0.0
C2166 C 0.03006 0.32489 0.58339 0.0
C2167 C -0.0 0.32513 0.54099 0.0
C2168 C 0.0125 0.30335 0.53193 0.0
C2169 C 0.98668 0.34782 0.53279 0.0
C2170 C 0.97443 0.37225 0.5416 0.0
C2171 C 0.99114 0.38845 0.55219 0.0
C2172 C 0.97931 0.41108 0.5607 0.0
C2173 C 0.95085 0.4179 0.55861 0.0
C2174 C 0.93419 0.40218 0.54795 0.0
C2175 C 0.9459 0.37948 0.53943 0.0
H2176 H 0.94172 0.43542 0.56522 0.0
H2177 H 0.05649 0.21521 0.48301 0.0
H2178 H 0.72757 0.98823 0.59243 0.0
H2179 H 0.73505 0.98717 0.56293 0.0
H2180 H 0.64533 0.99582 0.55546 0.0
H2181 H 0.63797 0.99634 0.58453 0.0
H2182 H 0.66606 0.95853 0.53494 0.0
H2183 H 0.69246 0.05299 0.55323 0.0
H2184 H 0.72105 0.08657 0.56916 0.0
H2185 H 0.79641 0.0562 0.54624 0.0
H2186 H 0.76827 0.02218 0.53031 0.0
H2187 H 0.63927 0.01232 0.45892 0.0
H2188 H 0.64599 0.00966 0.48811 0.0
H2189 H 0.73585 0.00167 0.48127 0.0
H2190 H 0.72902 0.00506 0.45176 0.0
H2191 H 0.72368 0.03305 0.50855 0.0
H2192 H 0.69642 0.94289 0.48773 0.0
H2193 H 0.66772 0.90961 0.47168 0.0
H2194 H 0.59446 0.93103 0.49957 0.0
H2195 H 0.62262 0.96476 0.51563 0.0
C2196 C 0.70952 0.98936 0.58442 0.0
C2197 C 0.6822 0.99257 0.5908 0.0
C2198 C 0.71379 0.98907 0.56758 0.0
C2199 C 0.69078 0.99185 0.55687 0.0
C2200 C 0.66349 0.99376 0.56334 0.0
C2201 C 0.65929 0.99418 0.58002 0.0
C2202 C 0.69442 0.99345 0.53892 0.0
C2203 C 0.67863 0.97489 0.52921 0.0
C2204 C 0.7115 0.01418 0.53129 0.0
C2205 C 0.72832 0.03483 0.54073 0.0
C2206 C 0.71515 0.05335 0.55167 0.0
C2207 C 0.73126 0.07248 0.56069 0.0
C2208 C 0.76054 0.07345 0.55876 0.0
C2209 C 0.77374 0.05538 0.54775 0.0
C2210 C 0.75772 0.03618 0.53872 0.0
C2211 C 0.66051 0.01045 0.46365 0.0
C2212 C 0.68358 0.00867 0.45307 0.0
C2213 C 0.66436 0.00879 0.48035 0.0
C2214 C 0.69137 0.00466 0.48697 0.0
C2215 C 0.71477 0.00462 0.47649 0.0
C2216 C 0.7109 0.00666 0.45965 0.0
C2217 C 0.69444 -0.0012 0.50467 0.0
C2218 C 0.71149 0.01641 0.51428 0.0
C2219 C 0.67856 0.97712 0.51229 0.0
C2220 C 0.66163 0.95647 0.50283 0.0
C2221 C 0.67416 0.9406 0.49039 0.0
C2222 C 0.65799 0.92166 0.48129 0.0
C2223 C 0.62928 0.91823 0.48459 0.0
C2224 C 0.6167 0.9337 0.49703 0.0
C2225 C 0.63277 0.95271 0.50615 0.0
H2226 H 0.61679 0.90357 0.47753 0.0
H2227 H 0.77299 0.08823 0.56576 0.0
H2228 H 0.03067 0.66763 0.59025 0.0
H2229 H 0.03406 0.67196 0.56081 0.0
H2230 H 0.94415 0.65929 0.55674 0.0
H2231 H 0.94086 0.65445 0.58601 0.0
H2232 H 0.96903 0.62934 0.53471 0.0
H2233 H 0.97703 0.72624 0.55222 0.0
H2234 H -0.00273 0.7657 0.56793 0.0
H2235 H 0.07789 0.75207 0.54567 0.0
H2236 H 0.05821 0.71229 0.52995 0.0
H2237 H 0.95618 0.66966 0.45219 0.0
H2238 H 0.9515 0.67115 0.48171 0.0
H2239 H 0.04205 0.67544 0.48645 0.0
H2240 H 0.04674 0.67443 0.45709 0.0
H2241 H 0.01623 0.71049 0.50792 0.0
H2242 H 0.00854 0.61349 0.49079 0.0
H2243 H 0.98849 0.5744 0.4747 0.0
H2244 H 0.90734 0.58834 0.49627 0.0
H2245 H 0.9268 0.62789 0.51227 0.0
C2246 C 0.01164 0.66603 0.58307 0.0
C2247 C 0.98552 0.66065 0.59049 0.0
C2248 C 0.01355 0.66852 0.56622 0.0
C2249 C 0.98929 0.66624 0.55645 0.0
C2250 C 0.96321 0.66102 0.56391 0.0
C2251 C 0.96136 0.65823 0.58069 0.0
C2252 C 0.99093 0.66883 0.53848 0.0
C2253 C 0.97899 0.64733 0.5289 0.0
C2254 C 0.00443 0.69196 0.53076 0.0
C2255 C 0.0162 0.71612 0.54002 0.0
C2256 C -0.00089 0.73156 0.55074 0.0
C2257 C 0.01048 0.754 0.55964 0.0
C2258 C 0.03887 0.76134 0.55783 0.0
C2259 C 0.05592 0.74634 0.54707 0.0
C2260 C 0.04466 0.72387 0.53815 0.0
C2261 C 0.97501 0.6714 0.45953 0.0
C2262 C 0.00183 0.67164 0.4523 0.0
C2263 C 0.97236 0.67205 0.4764 0.0
C2264 C -0.00353 0.67305 0.48634 0.0
C2265 C 0.02315 0.67457 0.47908 0.0
C2266 C 0.02581 0.67375 0.46228 0.0
C2267 C 0.99418 0.67114 0.50426 0.0
C2268 C 0.0061 0.69265 0.51379 0.0
C2269 C 0.98067 0.64804 0.51195 0.0
C2270 C 0.96906 0.62385 0.50261 0.0
C2271 C 0.98637 0.60834 0.49202 0.0
C2272 C 0.97512 0.5861 0.48292 0.0
C2273 C 0.94664 0.57894 0.48443 0.0
C2274 C 0.92938 0.59395 0.49509 0.0
C2275 C 0.94052 0.61628 0.50418 0.0
H2276 H 0.93796 0.56173 0.47736 0.0
H2277 H 0.04764 0.77869 0.56475 0.0
H2278 H 0.31646 0.93789 0.58412 0.0
H2279 H 0.31798 0.94102 0.5548 0.0
H2280 H 0.30706 0.03158 0.55759 0.0
H2281 H 0.30433 0.02842 0.58708 0.0
H2282 H 0.274 0.01118 0.53479 0.0
H2283 H 0.37148 0.00033 0.54763 0.0
H2284 H 0.41343 0.97877 0.5603 0.0
H2285 H 0.3981 0.90125 0.53466 0.0
H2286 H 0.35579 0.92222 0.522 0.0
H2287 H 0.31527 0.04312 0.45444 0.0
H2288 H 0.31175 0.03804 0.48368 0.0
H2289 H 0.31227 0.94712 0.47868 0.0
H2290 H 0.31603 0.95223 0.44913 0.0
H2291 H 0.3499 0.96667 0.50234 0.0
H2292 H 0.25231 0.98019 0.48875 0.0
H2293 H 0.21225 0.00434 0.4756 0.0
H2294 H 0.23009 0.08006 0.50243 0.0
H2295 H 0.27052 0.05649 0.51558 0.0
C2296 C 0.31432 0.95853 0.57858 0.0
C2297 C 0.31014 0.98289 0.5881 0.0
C2298 C 0.31548 0.96032 0.56172 0.0
C2299 C 0.31288 0.98657 0.55384 0.0
C2300 C 0.30914 0.01104 0.56331 0.0
C2301 C 0.30789 0.00925 0.58023 0.0
C2302 C 0.31327 0.98824 0.53577 0.0
C2303 C 0.29083 0.00176 0.52774 0.0
C2304 C 0.33485 0.97545 0.52641 0.0
C2305 C 0.36029 0.96276 0.53399 0.0
C2306 C 0.37692 0.9786 0.54479 0.0
C2307 C 0.40078 0.96651 0.55196 0.0
C2308 C 0.40838 0.93864 0.54832 0.0
C2309 C 0.39216 0.92283 0.53748 0.0
C2310 C 0.36825 0.93481 0.5303 0.0
C2311 C 0.31452 0.02201 0.45953 0.0
C2312 C 0.31606 0.99806 0.44945 0.0
C2313 C 0.31233 0.01913 0.47628 0.0
C2314 C 0.31163 0.9922 0.48346 0.0
C2315 C 0.31275 0.96814 0.47344 0.0
C2316 C 0.31466 0.97104 0.45656 0.0
C2317 C 0.31066 0.98954 0.50144 0.0
C2318 C 0.33303 0.97592 0.50943 0.0
C2319 C 0.28921 0.00254 0.51076 0.0
C2320 C 0.2646 0.01662 0.50306 0.0
C2321 C 0.24781 0.00205 0.49177 0.0
C2322 C 0.22502 0.01563 0.48433 0.0
C2323 C 0.21867 0.04374 0.48814 0.0
C2324 C 0.23504 0.05829 0.49947 0.0
C2325 C 0.25788 0.04482 0.50694 0.0
H2326 H 0.20105 0.05424 0.48235 0.0
H2327 H 0.42687 0.92931 0.55388 0.0
H2328 H 0.45113 0.82584 0.95482 0.0
H2329 H 0.45408 0.82657 0.98406 0.0
H2330 H 0.54425 0.81585 0.98151 0.0
H2331 H 0.54172 0.81581 0.95196 0.0
H2332 H 0.51869 0.78077 1.00461 0.0
H2333 H 0.51833 0.87918 0.99019 0.0
H2334 H 0.50029 0.92171 0.9763 0.0
H2335 H 0.42178 0.91438 1.00177 0.0
H2336 H 0.43918 0.87149 1.01562 0.0
H2337 H 0.54784 0.81004 0.08609 0.0
H2338 H 0.54615 0.81166 0.05692 0.0
H2339 H 0.45776 0.83296 0.0586 0.0
H2340 H 0.45943 0.83275 0.0881 0.0
H2341 H 0.48273 0.86298 0.03572 0.0
H2342 H 0.48138 0.76467 0.04956 0.0
H2343 H 0.49758 0.72094 0.06299 0.0
H2344 H 0.57704 0.72675 0.03837 0.0
H2345 H 0.56146 0.77076 0.02496 0.0
C2346 C 0.47176 0.82401 0.96029 0.0
C2347 C 0.49625 0.82113 0.95076 0.0
C2348 C 0.47334 0.8243 0.97715 0.0
C2349 C 0.4994 0.82163 0.98504 0.0
C2350 C 0.52388 0.81803 0.97569 0.0
C2351 C 0.52236 0.81793 0.95875 0.0
C2352 C 0.50086 0.82258 1.00304 0.0
C2353 C 0.51126 0.79892 1.01141 0.0
C2354 C 0.49034 0.84591 1.01196 0.0
C2355 C 0.47998 0.87196 1.00384 0.0
C2356 C 0.49714 0.88651 0.99275 0.0
C2357 C 0.48704 0.9107 0.98489 0.0
C2358 C 0.45988 0.9207 0.98812 0.0
C2359 C 0.44281 0.90658 0.99926 0.0
C2360 C 0.45278 0.88234 1.00713 0.0
C2361 C 0.52797 0.81547 0.08047 0.0
C2362 C 0.50373 0.8212 0.08979 0.0
C2363 C 0.52702 0.81604 0.0636 0.0
C2364 C 0.50171 0.82185 0.05542 0.0
C2365 C 0.47755 0.8282 0.06458 0.0
C2366 C 0.47852 0.82786 0.08154 0.0
C2367 C 0.50063 0.82112 0.03736 0.0
C2368 C 0.49024 0.84482 0.02896 0.0
C2369 C 0.51094 0.7977 0.02839 0.0
C2370 C 0.52034 0.77116 0.03637 0.0
C2371 C 0.50238 0.75674 0.0471 0.0
C2372 C 0.51144 0.73189 0.05469 0.0
C2373 C 0.53835 0.72111 0.05156 0.0
C2374 C 0.55622 0.73514 0.0408 0.0
C2375 C 0.54728 0.76002 0.03319 0.0
H2376 H 0.54533 0.70187 0.05746 0.0
H2377 H 0.45209 0.93942 0.98201 0.0
H2378 H 0.18911 0.46125 0.09055 0.0
H2379 H 0.1853 0.45997 0.0611 0.0
H2380 H 0.16416 0.54881 0.06057 0.0
H2381 H 0.16729 0.55007 0.09004 0.0
H2382 H 0.13229 0.51934 0.03878 0.0
H2383 H 0.2306 0.52773 0.05238 0.0
H2384 H 0.27473 0.51409 0.06616 0.0
H2385 H 0.27264 0.43293 0.04281 0.0
H2386 H 0.22824 0.44595 0.02906 0.0
H2387 H 0.16076 0.54313 0.95515 0.0
H2388 H 0.16209 0.54596 0.9847 0.0
H2389 H 0.18639 0.45802 0.98718 0.0
H2390 H 0.18594 0.45531 0.9578 0.0
H2391 H 0.21655 0.48826 1.00803 0.0
H2392 H 0.11855 0.47939 0.99436 0.0
H2393 H 0.07462 0.49273 0.98028 0.0
H2394 H 0.07576 0.57394 1.00359 0.0
H2395 H 0.12002 0.56128 1.01759 0.0
C2396 C 0.18318 0.4804 0.08422 0.0
C2397 C 0.17872 0.50582 0.09272 0.0
C2398 C 0.18124 0.47971 0.06734 0.0
C2399 C 0.17485 0.50441 0.05855 0.0
C2400 C 0.16926 0.52951 0.06704 0.0
C2401 C 0.17128 0.53024 0.08391 0.0
C2402 C 0.17512 0.50435 0.04053 0.0
C2403 C 0.15082 0.51286 0.03206 0.0
C2404 C 0.19912 0.49548 0.03169 0.0
C2405 C 0.22596 0.48771 0.03981 0.0
C2406 C 0.23945 0.5069 0.05027 0.0
C2407 C 0.26452 0.49929 0.05807 0.0
C2408 C 0.27644 0.47263 0.0554 0.0
C2409 C 0.26335 0.45356 0.04488 0.0
C2410 C 0.23825 0.46105 0.03708 0.0
C2411 C 0.1667 0.5245 0.96197 0.0
C2412 C 0.17305 0.49894 0.95404 0.0
C2413 C 0.1672 0.52606 0.97889 0.0
C2414 C 0.17399 0.50208 0.98823 0.0
C2415 C 0.18097 0.47678 0.9803 0.0
C2416 C 0.18045 0.47521 0.96345 0.0
C2417 C 0.17366 0.50307 1.00625 0.0
C2418 C 0.19799 0.49476 1.01473 0.0
C2419 C 0.14966 0.51202 1.01507 0.0
C2420 C 0.12277 0.5195 1.0069 0.0
C2421 C 0.10954 0.50017 0.9964 0.0
C2422 C 0.08458 0.5076 0.98844 0.0
C2423 C 0.07244 0.53419 0.99101 0.0
C2424 C 0.08521 0.55337 1.00159 0.0
C2425 C 0.11024 0.54608 1.00955 0.0
H2426 H 0.05312 0.53991 0.98483 0.0
H2427 H 0.29585 0.46678 0.06144 0.0
H2428 H 0.46012 0.14087 0.08602 0.0
H2429 H 0.45822 0.14453 0.05663 0.0
H2430 H 0.51342 0.21704 0.05827 0.0
H2431 H 0.51535 0.21346 0.08793 0.0
H2432 H 0.46558 0.22375 0.03691 0.0
H2433 H 0.54054 0.15749 0.04674 0.0
H2434 H 0.56216 0.11527 0.0592 0.0
H2435 H 0.49991 0.06222 0.03669 0.0
H2436 H 0.47763 0.1042 0.02429 0.0
H2437 H 0.49016 0.2199 0.95063 0.0
H2438 H 0.49208 0.22422 0.98024 0.0
H2439 H 0.45456 0.14126 0.98478 0.0
H2440 H 0.4539 0.13677 0.95535 0.0
H2441 H 0.49691 0.14269 1.00338 0.0
H2442 H 0.41987 0.20713 0.99486 0.0
H2443 H 0.39542 0.24852 0.98323 0.0
H2444 H 0.45802 0.30385 1.00352 0.0
H2445 H 0.48307 0.26273 1.01511 0.0
C2446 C 0.47178 0.1577 0.08018 0.0
C2447 C 0.48786 0.17691 0.08937 0.0
C2448 C 0.47076 0.1597 0.06333 0.0
C2449 C 0.4857 0.18103 0.05516 0.0
C2450 C 0.50167 0.20042 0.06427 0.0
C2451 C 0.50297 0.19821 0.0812 0.0
C2452 C 0.48481 0.18247 0.03712 0.0
C2453 C 0.47285 0.20625 0.02953 0.0
C2454 C 0.49363 0.15938 0.02747 0.0
C2455 C 0.50729 0.13403 0.03468 0.0
C2456 C 0.53134 0.13685 0.04453 0.0
C2457 C 0.54373 0.11296 0.05157 0.0
C2458 C 0.53237 0.08609 0.04877 0.0
C2459 C 0.50867 0.08305 0.03886 0.0
C2460 C 0.49617 0.10688 0.03181 0.0
C2461 C 0.48158 0.20307 0.95804 0.0
C2462 C 0.47148 0.17818 0.95077 0.0
C2463 C 0.48275 0.20543 0.97497 0.0
C2464 C 0.47341 0.18307 0.98495 0.0
C2465 C 0.4621 0.15879 0.97752 0.0
C2466 C 0.46138 0.15631 0.96069 0.0
C2467 C 0.47704 0.1838 1.00298 0.0
C2468 C 0.48967 0.16036 1.01064 0.0
C2469 C 0.4685 0.20709 1.01266 0.0
C2470 C 0.45352 0.23182 1.00569 0.0
C2471 C 0.42855 0.2281 0.99673 0.0
C2472 C 0.41456 0.25152 0.99016 0.0
C2473 C 0.42521 0.27879 0.99259 0.0
C2474 C 0.44983 0.28271 1.00163 0.0
C2475 C 0.46392 0.25936 1.0082 0.0
H2476 H 0.41434 0.29689 0.9875 0.0
H2477 H 0.54197 0.06762 0.05425 0.0
H2478 H 0.8422 0.53561 0.95903 0.0
H2479 H 0.84176 0.53279 0.98831 0.0
H2480 H 0.79441 0.45492 0.98578 0.0
H2481 H 0.79386 0.45813 0.95627 0.0
H2482 H 0.77284 0.48976 1.00822 0.0
H2483 H 0.86556 0.45605 0.99487 0.0
H2484 H 0.91181 0.45898 0.98137 0.0
H2485 H 0.93108 0.53494 1.00764 0.0
H2486 H 0.88471 0.53277 1.02109 0.0
H2487 H 0.78724 0.44795 0.08895 0.0
H2488 H 0.79144 0.45033 0.05982 0.0
H2489 H 0.8386 0.52809 0.06387 0.0
H2490 H 0.83551 0.52531 0.09336 0.0
H2491 H 0.86086 0.49421 0.04068 0.0
H2492 H 0.76891 0.529 0.05358 0.0
H2493 H 0.72196 0.52832 0.06636 0.0
H2494 H 0.70094 0.45236 0.04051 0.0
H2495 H 0.74795 0.45235 0.02775 0.0
C2496 C 0.83151 0.51791 0.96459 0.0
C2497 C 0.81798 0.49713 0.95513 0.0
C2498 C 0.83154 0.51619 0.98143 0.0
C2499 C 0.81835 0.49347 0.98933 0.0
C2500 C 0.80484 0.47262 0.97998 0.0
C2501 C 0.80474 0.47436 0.96307 0.0
C2502 C 0.81818 0.49188 1.00732 0.0
C2503 C 0.79213 0.49025 1.0153 0.0
C2504 C 0.84329 0.49349 1.01662 0.0
C2505 C 0.87155 0.49435 1.00891 0.0
C2506 C 0.8796 0.47345 0.99772 0.0
C2507 C 0.90583 0.47499 0.99007 0.0
C2508 C 0.92435 0.49715 0.99363 0.0
C2509 C 0.91671 0.51779 1.00489 0.0
C2510 C 0.89046 0.5164 1.01255 0.0
C2511 C 0.79895 0.4654 0.08382 0.0
C2512 C 0.81102 0.48645 0.09373 0.0
C2513 C 0.80105 0.46688 0.06702 0.0
C2514 C 0.81493 0.48962 0.05955 0.0
C2515 C 0.82763 0.51038 0.06932 0.0
C2516 C 0.82563 0.50888 0.08623 0.0
C2517 C 0.8155 0.49179 0.04157 0.0
C2518 C 0.8416 0.49361 0.0336 0.0
C2519 C 0.79042 0.49052 0.03224 0.0
C2520 C 0.76206 0.49054 0.03982 0.0
C2521 C 0.75436 0.51203 0.05072 0.0
C2522 C 0.72772 0.51179 0.05794 0.0
C2523 C 0.70851 0.49028 0.05428 0.0
C2524 C 0.71586 0.469 0.04335 0.0
C2525 C 0.74249 0.46912 0.03611 0.0
H2526 H 0.68789 0.49013 0.05989 0.0
H2527 H 0.94465 0.4983 0.9877 0.0
loop_
_geom_bond_atom_site_label_1
_geom_bond_atom_site_label_2
_geom_bond_distance
_geom_bond_site_symmetry_2
_ccdc_geom_bond_type
C0 C1 1.351 . S
C0 N3 1.368 1_655 S
C0 H5 0.931 . S
C1 C0 1.351 . S
C1 N2 1.373 1_655 S
C1 H29 0.930 . S
N2 C1 1.373 1_455 S
N2 C4 1.340 . S
N3 C0 1.368 1_455 S
N3 C4 1.321 . S
N3 Co6 2.135 . S
C4 N2 1.340 . S
C4 N3 1.321 . S
C4 H28 0.930 . S
H5 C0 0.931 . S
Co6 N3 2.135 . S
Co6 N9 2.121 . S
Co6 O14 2.055 . S
Co6 O17 2.039 . S
Co6 N20 2.140 1_455 S
C7 O8 1.227 . S
C7 O17 1.265 . S
O8 C7 1.227 . S
N9 Co6 2.121 . S
N9 C11 1.375 . S
N9 C12 1.313 . S
C10 C11 1.338 . S
C10 N13 1.377 . S
C10 H30 0.930 . S
C11 N9 1.375 . S
C11 C10 1.338 . S
C11 H15 0.931 . S
C12 N9 1.313 . S
C12 N13 1.344 . S
C12 H16 0.930 . S
N13 C10 1.377 . S
N13 C12 1.344 . S
O14 Co6 2.055 . S
O14 C18 1.253 . S
H15 C11 0.931 . S
H16 C12 0.930 . S
O17 Co6 2.039 . S
O17 C7 1.265 . S
C18 O14 1.253 . S
C18 O19 1.227 1_455 S
O19 C18 1.227 1_655 S
N20 Co6 2.140 1_655 S
N20 C23 1.346 . S
N20 C24 1.345 . S
C21 C22 1.387 . S
C21 C25 1.391 . S
C22 C21 1.387 . S
C22 C23 1.369 . S
C22 H31 0.929 . S
C23 N20 1.346 . S
C23 C22 1.369 . S
C23 H26 0.928 . S
C24 N20 1.345 . S
C24 C25 1.371 . S
C24 H27 0.931 . S
C25 C21 1.391 . S
C25 C24 1.371 . S
C25 H32 0.930 . S
H26 C23 0.928 . S
H27 C24 0.931 . S
H28 C4 0.930 . S
H29 C1 0.930 . S
H30 C10 0.930 . S
H31 C22 0.929 . S
H32 C25 0.930 . S
C33 C34 1.351 . S
C33 N36 1.368 1_565 S
C33 H38 0.931 . S
C34 C33 1.351 . S
C34 N35 1.373 1_565 S
C34 H62 0.930 . S
N35 C34 1.373 1_545 S
N35 C37 1.340 . S
N36 C33 1.368 1_545 S
N36 C37 1.321 . S
N36 Co39 2.135 . S
C37 N35 1.340 . S
C37 N36 1.321 . S
C37 H61 0.930 . S
H38 C33 0.931 . S
Co39 N36 2.135 . S
Co39 N42 2.121 . S
Co39 O47 2.055 . S
Co39 O50 2.039 . S
Co39 N53 2.140 1_545 S
C40 O41 1.227 . S
C40 O50 1.265 . S
O41 C40 1.227 . S
N42 Co39 2.121 . S
N42 C44 1.375 . S
N42 C45 1.313 . S
C43 C44 1.338 . S
C43 N46 1.377 . S
C43 H63 0.930 . S
C44 N42 1.375 . S
C44 C43 1.338 . S
C44 H48 0.931 . S
C45 N42 1.313 . S
C45 N46 1.344 . S
C45 H49 0.930 . S
N46 C43 1.377 . S
N46 C45 1.344 . S
O47 Co39 2.055 . S
O47 C51 1.253 . S
H48 C44 0.931 . S
H49 C45 0.930 . S
O50 Co39 2.039 . S
O50 C40 1.265 . S
C51 O47 1.253 . S
C51 O52 1.227 1_545 S
O52 C51 1.227 1_565 S
N53 Co39 2.140 1_565 S
N53 C56 1.346 . S
N53 C57 1.345 . S
C54 C55 1.387 . S
C54 C58 1.391 . S
C55 C54 1.387 . S
C55 C56 1.369 . S
C55 H64 0.929 . S
C56 N53 1.346 . S
C56 C55 1.369 . S
C56 H59 0.928 . S
C57 N53 1.345 . S
C57 C58 1.371 . S
C57 H60 0.931 . S
C58 C54 1.391 . S
C58 C57 1.371 . S
C58 H65 0.930 . S
H59 C56 0.928 . S
H60 C57 0.931 . S
H61 C37 0.930 . S
H62 C34 0.930 . S
H63 C43 0.930 . S
H64 C55 0.929 . S
H65 C58 0.930 . S
C66 C67 1.351 . S
C66 N69 1.368 1_455 S
C66 H71 0.931 . S
C67 C66 1.351 . S
C67 N68 1.373 1_455 S
C67 H95 0.930 . S
N68 C67 1.373 1_655 S
N68 C70 1.340 . S
N69 C66 1.368 1_655 S
N69 C70 1.321 . S
N69 Co72 2.135 . S
C70 N68 1.340 . S
C70 N69 1.321 . S
C70 H94 0.930 . S
H71 C66 0.931 . S
Co72 N69 2.135 . S
Co72 N75 2.121 . S
Co72 O80 2.055 . S
Co72 O83 2.039 . S
Co72 N86 2.140 1_655 S
C73 O74 1.227 . S
C73 O83 1.265 . S
O74 C73 1.227 . S
N75 Co72 2.121 . S
N75 C77 1.375 . S
N75 C78 1.313 . S
C76 C77 1.338 . S
C76 N79 1.377 . S
C76 H96 0.930 . S
C77 N75 1.375 . S
C77 C76 1.338 . S
C77 H81 0.931 . S
C78 N75 1.313 . S
C78 N79 1.344 . S
C78 H82 0.930 . S
N79 C76 1.377 . S
N79 C78 1.344 . S
O80 Co72 2.055 . S
O80 C84 1.253 . S
H81 C77 0.931 . S
H82 C78 0.930 . S
O83 Co72 2.039 . S
O83 C73 1.265 . S
C84 O80 1.253 . S
C84 O85 1.227 1_655 S
O85 C84 1.227 1_455 S
N86 Co72 2.140 1_455 S
N86 C89 1.346 . S
N86 C90 1.345 . S
C87 C88 1.387 . S
C87 C91 1.391 . S
C88 C87 1.387 . S
C88 C89 1.369 . S
C88 H97 0.929 . S
C89 N86 1.346 . S
C89 C88 1.369 . S
C89 H92 0.928 . S
C90 N86 1.345 . S
C90 C91 1.371 . S
C90 H93 0.931 . S
C91 C87 1.391 . S
C91 C90 1.371 . S
C91 H98 0.930 . S
H92 C89 0.928 . S
H93 C90 0.931 . S
H94 C70 0.930 . S
H95 C67 0.930 . S
H96 C76 0.930 . S
H97 C88 0.929 . S
H98 C91 0.930 . S
C99 C100 1.351 . S
C99 N102 1.368 1_545 S
C99 H104 0.931 . S
C100 C99 1.351 . S
C100 N101 1.373 1_545 S
C100 H128 0.930 . S
N101 C100 1.373 1_565 S
N101 C103 1.340 . S
N102 C99 1.368 1_565 S
N102 C103 1.321 . S
N102 Co105 2.135 . S
C103 N101 1.340 . S
C103 N102 1.321 . S
C103 H127 0.930 . S
H104 C99 0.931 . S
Co105 N102 2.135 . S
Co105 N108 2.121 . S
Co105 O113 2.055 . S
Co105 O116 2.039 . S
Co105 N119 2.140 1_565 S
C106 O107 1.227 . S
C106 O116 1.265 . S
O107 C106 1.227 . S
N108 Co105 2.121 . S
N108 C110 1.375 . S
N108 C111 1.313 . S
C109 C110 1.338 . S
C109 N112 1.377 . S
C109 H129 0.930 . S
C110 N108 1.375 . S
C110 C109 1.338 . S
C110 H114 0.931 . S
C111 N108 1.313 . S
C111 N112 1.344 . S
C111 H115 0.930 . S
N112 C109 1.377 . S
N112 C111 1.344 . S
O113 Co105 2.055 . S
O113 C117 1.253 . S
H114 C110 0.931 . S
H115 C111 0.930 . S
O116 Co105 2.039 . S
O116 C106 1.265 . S
C117 O113 1.253 . S
C117 O118 1.227 1_565 S
O118 C117 1.227 1_545 S
N119 Co105 2.140 1_545 S
N119 C122 1.346 . S
N119 C123 1.345 . S
C120 C121 1.387 . S
C120 C124 1.391 . S
C121 C120 1.387 . S
C121 C122 1.369 . S
C121 H130 0.929 . S
C122 N119 1.346 . S
C122 C121 1.369 . S
C122 H125 0.928 . S
C123 N119 1.345 . S
C123 C124 1.371 . S
C123 H126 0.931 . S
C124 C120 1.391 . S
C124 C123 1.371 . S
C124 H131 0.930 . S
H125 C122 0.928 . S
H126 C123 0.931 . S
H127 C103 0.930 . S
H128 C100 0.930 . S
H129 C109 0.930 . S
H130 C121 0.929 . S
H131 C124 0.930 . S
C132 C133 1.351 . S
C132 N135 1.368 1_655 S
C132 H137 0.931 . S
C133 C132 1.351 . S
C133 N134 1.373 1_655 S
C133 H161 0.930 . S
N134 C133 1.373 1_455 S
N134 C136 1.340 . S
N135 C132 1.368 1_455 S
N135 C136 1.321 . S
N135 Co138 2.135 . S
C136 N134 1.340 . S
C136 N135 1.321 . S
C136 H160 0.930 . S
H137 C132 0.931 . S
Co138 N135 2.135 . S
Co138 N141 2.121 . S
Co138 O146 2.055 . S
Co138 O149 2.039 . S
Co138 N152 2.140 1_455 S
C139 O140 1.227 . S
C139 O149 1.265 . S
O140 C139 1.227 . S
N141 Co138 2.121 . S
N141 C143 1.375 . S
N141 C144 1.313 . S
C142 C143 1.338 . S
C142 N145 1.377 . S
C142 H162 0.930 . S
C143 N141 1.375 . S
C143 C142 1.338 . S
C143 H147 0.931 . S
C144 N141 1.313 . S
C144 N145 1.344 . S
C144 H148 0.930 . S
N145 C142 1.377 . S
N145 C144 1.344 . S
O146 Co138 2.055 . S
O146 C150 1.253 . S
H147 C143 0.931 . S
H148 C144 0.930 . S
O149 Co138 2.039 . S
O149 C139 1.265 . S
C150 O146 1.253 . S
C150 O151 1.227 1_455 S
O151 C150 1.227 1_655 S
N152 Co138 2.140 1_655 S
N152 C155 1.346 . S
N152 C156 1.345 . S
C153 C154 1.387 . S
C153 C157 1.391 . S
C154 C153 1.387 . S
C154 C155 1.369 . S
C154 H163 0.929 . S
C155 N152 1.346 . S
C155 C154 1.369 . S
C155 H158 0.928 . S
C156 N152 1.345 . S
C156 C157 1.371 . S
C156 H159 0.931 . S
C157 C153 1.391 . S
C157 C156 1.371 . S
C157 H164 0.930 . S
H158 C155 0.928 . S
H159 C156 0.931 . S
H160 C136 0.930 . S
H161 C133 0.930 . S
H162 C142 0.930 . S
H163 C154 0.929 . S
H164 C157 0.930 . S
C165 C166 1.351 . S
C165 N168 1.368 1_565 S
C165 H170 0.931 . S
C166 C165 1.351 . S
C166 N167 1.373 1_565 S
C166 H194 0.930 . S
N167 C166 1.373 1_545 S
N167 C169 1.340 . S
N168 C165 1.368 1_545 S
N168 C169 1.321 . S
N168 Co171 2.135 . S
C169 N167 1.340 . S
C169 N168 1.321 . S
C169 H193 0.930 . S
H170 C165 0.931 . S
Co171 N168 2.135 . S
Co171 N174 2.121 . S
Co171 O179 2.055 . S
Co171 O182 2.039 . S
Co171 N185 2.140 1_545 S
C172 O173 1.227 . S
C172 O182 1.265 . S
O173 C172 1.227 . S
N174 Co171 2.121 . S
N174 C176 1.375 . S
N174 C177 1.313 . S
C175 C176 1.338 . S
C175 N178 1.377 . S
C175 H195 0.930 . S
C176 N174 1.375 . S
C176 C175 1.338 . S
C176 H180 0.931 . S
C177 N174 1.313 . S
C177 N178 1.344 . S
C177 H181 0.930 . S
N178 C175 1.377 . S
N178 C177 1.344 . S
O179 Co171 2.055 . S
O179 C183 1.253 . S
H180 C176 0.931 . S
H181 C177 0.930 . S
O182 Co171 2.039 . S
O182 C172 1.265 . S
C183 O179 1.253 . S
C183 O184 1.227 1_545 S
O184 C183 1.227 1_565 S
N185 Co171 2.140 1_565 S
N185 C188 1.346 . S
N185 C189 1.345 . S
C186 C187 1.387 . S
C186 C190 1.391 . S
C187 C186 1.387 . S
C187 C188 1.369 . S
C187 H196 0.929 . S
C188 N185 1.346 . S
C188 C187 1.369 . S
C188 H191 0.928 . S
C189 N185 1.345 . S
C189 C190 1.371 . S
C189 H192 0.931 . S
C190 C186 1.391 . S
C190 C189 1.371 . S
C190 H197 0.930 . S
H191 C188 0.928 . S
H192 C189 0.931 . S
H193 C169 0.930 . S
H194 C166 0.930 . S
H195 C175 0.930 . S
H196 C187 0.929 . S
H197 C190 0.930 . S
C198 C199 1.351 . S
C198 N201 1.368 1_455 S
C198 H203 0.931 . S
C199 C198 1.351 . S
C199 N200 1.373 1_455 S
C199 H227 0.930 . S
N200 C199 1.373 1_655 S
N200 C202 1.340 . S
N201 C198 1.368 1_655 S
N201 C202 1.321 . S
N201 Co204 2.135 . S
C202 N200 1.340 . S
C202 N201 1.321 . S
C202 H226 0.930 . S
H203 C198 0.931 . S
Co204 N201 2.135 . S
Co204 N207 2.121 . S
Co204 O212 2.055 . S
Co204 O215 2.039 . S
Co204 N218 2.140 1_655 S
C205 O206 1.227 . S
C205 O215 1.265 . S
O206 C205 1.227 . S
N207 Co204 2.121 . S
N207 C209 1.375 . S
N207 C210 1.313 . S
C208 C209 1.338 . S
C208 N211 1.377 . S
C208 H228 0.930 . S
C209 N207 1.375 . S
C209 C208 1.338 . S
C209 H213 0.931 . S
C210 N207 1.313 . S
C210 N211 1.344 . S
C210 H214 0.930 . S
N211 C208 1.377 . S
N211 C210 1.344 . S
O212 Co204 2.055 . S
O212 C216 1.253 . S
H213 C209 0.931 . S
H214 C210 0.930 . S
O215 Co204 2.039 . S
O215 C205 1.265 . S
C216 O212 1.253 . S
C216 O217 1.227 1_655 S
O217 C216 1.227 1_455 S
N218 Co204 2.140 1_455 S
N218 C221 1.346 . S
N218 C222 1.345 . S
C219 C220 1.387 . S
C219 C223 1.391 . S
C220 C219 1.387 . S
C220 C221 1.369 . S
C220 H229 0.929 . S
C221 N218 1.346 . S
C221 C220 1.369 . S
C221 H224 0.928 . S
C222 N218 1.345 . S
C222 C223 1.371 . S
C222 H225 0.931 . S
C223 C219 1.391 . S
C223 C222 1.371 . S
C223 H230 0.930 . S
H224 C221 0.928 . S
H225 C222 0.931 . S
H226 C202 0.930 . S
H227 C199 0.930 . S
H228 C208 0.930 . S
H229 C220 0.929 . S
H230 C223 0.930 . S
C231 C232 1.351 . S
C231 N234 1.368 1_545 S
C231 H236 0.931 . S
C232 C231 1.351 . S
C232 N233 1.373 1_545 S
C232 H260 0.930 . S
N233 C232 1.373 1_565 S
N233 C235 1.340 . S
N234 C231 1.368 1_565 S
N234 C235 1.321 . S
N234 Co237 2.135 . S
C235 N233 1.340 . S
C235 N234 1.321 . S
C235 H259 0.930 . S
H236 C231 0.931 . S
Co237 N234 2.135 . S
Co237 N240 2.121 . S
Co237 O245 2.055 . S
Co237 O248 2.039 . S
Co237 N251 2.140 1_565 S
C238 O239 1.227 . S
C238 O248 1.265 . S
O239 C238 1.227 . S
N240 Co237 2.121 . S
N240 C242 1.375 . S
N240 C243 1.313 . S
C241 C242 1.338 . S
C241 N244 1.377 . S
C241 H261 0.930 . S
C242 N240 1.375 . S
C242 C241 1.338 . S
C242 H246 0.931 . S
C243 N240 1.313 . S
C243 N244 1.344 . S
C243 H247 0.930 . S
N244 C241 1.377 . S
N244 C243 1.344 . S
O245 Co237 2.055 . S
O245 C249 1.253 . S
H246 C242 0.931 . S
H247 C243 0.930 . S
O248 Co237 2.039 . S
O248 C238 1.265 . S
C249 O245 1.253 . S
C249 O250 1.227 1_565 S
O250 C249 1.227 1_545 S
N251 Co237 2.140 1_545 S
N251 C254 1.346 . S
N251 C255 1.345 . S
C252 C253 1.387 . S
C252 C256 1.391 . S
C253 C252 1.387 . S
C253 C254 1.369 . S
C253 H262 0.929 . S
C254 N251 1.346 . S
C254 C253 1.369 . S
C254 H257 0.928 . S
C255 N251 1.345 . S
C255 C256 1.371 . S
C255 H258 0.931 . S
C256 C252 1.391 . S
C256 C255 1.371 . S
C256 H263 0.930 . S
H257 C254 0.928 . S
H258 C255 0.931 . S
H259 C235 0.930 . S
H260 C232 0.930 . S
H261 C241 0.930 . S
H262 C253 0.929 . S
H263 C256 0.930 . S
C264 C265 1.351 . S
C264 N267 1.368 . S
C264 H269 0.931 . S
C265 C264 1.351 . S
C265 N266 1.373 . S
C265 H293 0.930 . S
N266 C265 1.373 . S
N266 C268 1.340 . S
N267 C264 1.368 . S
N267 C268 1.321 . S
N267 Co270 2.135 . S
C268 N266 1.340 . S
C268 N267 1.321 . S
C268 H292 0.930 . S
H269 C264 0.931 . S
Co270 N267 2.135 . S
Co270 N273 2.121 . S
Co270 O278 2.055 . S
Co270 O281 2.039 . S
Co270 N284 2.140 . S
C271 O272 1.227 . S
C271 O281 1.265 . S
O272 C271 1.227 . S
N273 Co270 2.121 . S
N273 C275 1.375 . S
N273 C276 1.313 . S
C274 C275 1.338 . S
C274 N277 1.377 . S
C274 H294 0.930 . S
C275 N273 1.375 . S
C275 C274 1.338 . S
C275 H279 0.931 . S
C276 N273 1.313 . S
C276 N277 1.344 . S
C276 H280 0.930 . S
N277 C274 1.377 . S
N277 C276 1.344 . S
O278 Co270 2.055 . S
O278 C282 1.253 . S
H279 C275 0.931 . S
H280 C276 0.930 . S
O281 Co270 2.039 . S
O281 C271 1.265 . S
C282 O278 1.253 . S
C282 O283 1.227 . S
O283 C282 1.227 . S
N284 Co270 2.140 . S
N284 C287 1.346 . S
N284 C288 1.345 . S
C285 C286 1.387 . S
C285 C289 1.391 . S
C286 C285 1.387 . S
C286 C287 1.369 . S
C286 H295 0.929 . S
C287 N284 1.346 . S
C287 C286 1.369 . S
C287 H290 0.928 . S
C288 N284 1.345 . S
C288 C289 1.371 . S
C288 H291 0.931 . S
C289 C285 1.391 . S
C289 C288 1.371 . S
C289 H296 0.930 . S
H290 C287 0.928 . S
H291 C288 0.931 . S
H292 C268 0.930 . S
H293 C265 0.930 . S
H294 C274 0.930 . S
H295 C286 0.929 . S
H296 C289 0.930 . S
C297 C298 1.351 . S
C297 N300 1.368 . S
C297 H302 0.931 . S
C298 C297 1.351 . S
C298 N299 1.373 . S
C298 H326 0.930 . S
N299 C298 1.373 . S
N299 C301 1.340 . S
N300 C297 1.368 . S
N300 C301 1.321 . S
N300 Co303 2.135 . S
C301 N299 1.340 . S
C301 N300 1.321 . S
C301 H325 0.930 . S
H302 C297 0.931 . S
Co303 N300 2.135 . S
Co303 N306 2.121 . S
Co303 O311 2.055 . S
Co303 O314 2.039 . S
Co303 N317 2.140 . S
C304 O305 1.227 . S
C304 O314 1.265 . S
O305 C304 1.227 . S
N306 Co303 2.121 . S
N306 C308 1.375 . S
N306 C309 1.313 . S
C307 C308 1.338 . S
C307 N310 1.377 . S
C307 H327 0.930 . S
C308 N306 1.375 . S
C308 C307 1.338 . S
C308 H312 0.931 . S
C309 N306 1.313 . S
C309 N310 1.344 . S
C309 H313 0.930 . S
N310 C307 1.377 . S
N310 C309 1.344 . S
O311 Co303 2.055 . S
O311 C315 1.253 . S
H312 C308 0.931 . S
H313 C309 0.930 . S
O314 Co303 2.039 . S
O314 C304 1.265 . S
C315 O311 1.253 . S
C315 O316 1.227 . S
O316 C315 1.227 . S
N317 Co303 2.140 . S
N317 C320 1.346 . S
N317 C321 1.345 . S
C318 C319 1.387 . S
C318 C322 1.391 . S
C319 C318 1.387 . S
C319 C320 1.369 . S
C319 H328 0.929 . S
C320 N317 1.346 . S
C320 C319 1.369 . S
C320 H323 0.928 . S
C321 N317 1.345 . S
C321 C322 1.371 . S
C321 H324 0.931 . S
C322 C318 1.391 . S
C322 C321 1.371 . S
C322 H329 0.930 . S
H323 C320 0.928 . S
H324 C321 0.931 . S
H325 C301 0.930 . S
H326 C298 0.930 . S
H327 C307 0.930 . S
H328 C319 0.929 . S
H329 C322 0.930 . S
C330 C331 1.351 . S
C330 N333 1.368 . S
C330 H335 0.931 . S
C331 C330 1.351 . S
C331 N332 1.373 . S
C331 H359 0.930 . S
N332 C331 1.373 . S
N332 C334 1.340 . S
N333 C330 1.368 . S
N333 C334 1.321 . S
N333 Co336 2.135 . S
C334 N332 1.340 . S
C334 N333 1.321 . S
C334 H358 0.930 . S
H335 C330 0.931 . S
Co336 N333 2.135 . S
Co336 N339 2.121 . S
Co336 O344 2.055 . S
Co336 O347 2.039 . S
Co336 N350 2.140 . S
C337 O338 1.227 . S
C337 O347 1.265 . S
O338 C337 1.227 . S
N339 Co336 2.121 . S
N339 C341 1.375 . S
N339 C342 1.313 . S
C340 C341 1.338 . S
C340 N343 1.377 . S
C340 H360 0.930 . S
C341 N339 1.375 . S
C341 C340 1.338 . S
C341 H345 0.931 . S
C342 N339 1.313 . S
C342 N343 1.344 . S
C342 H346 0.930 . S
N343 C340 1.377 . S
N343 C342 1.344 . S
O344 Co336 2.055 . S
O344 C348 1.253 . S
H345 C341 0.931 . S
H346 C342 0.930 . S
O347 Co336 2.039 . S
O347 C337 1.265 . S
C348 O344 1.253 . S
C348 O349 1.227 . S
O349 C348 1.227 . S
N350 Co336 2.140 . S
N350 C353 1.346 . S
N350 C354 1.345 . S
C351 C352 1.387 . S
C351 C355 1.391 . S
C352 C351 1.387 . S
C352 C353 1.369 . S
C352 H361 0.929 . S
C353 N350 1.346 . S
C353 C352 1.369 . S
C353 H356 0.928 . S
C354 N350 1.345 . S
C354 C355 1.371 . S
C354 H357 0.931 . S
C355 C351 1.391 . S
C355 C354 1.371 . S
C355 H362 0.930 . S
H356 C353 0.928 . S
H357 C354 0.931 . S
H358 C334 0.930 . S
H359 C331 0.930 . S
H360 C340 0.930 . S
H361 C352 0.929 . S
H362 C355 0.930 . S
C363 C364 1.351 . S
C363 N366 1.368 . S
C363 H368 0.931 . S
C364 C363 1.351 . S
C364 N365 1.373 . S
C364 H392 0.930 . S
N365 C364 1.373 . S
N365 C367 1.340 . S
N366 C363 1.368 . S
N366 C367 1.321 . S
N366 Co369 2.135 . S
C367 N365 1.340 . S
C367 N366 1.321 . S
C367 H391 0.930 . S
H368 C363 0.931 . S
Co369 N366 2.135 . S
Co369 N372 2.121 . S
Co369 O377 2.055 . S
Co369 O380 2.039 . S
Co369 N383 2.140 . S
C370 O371 1.227 . S
C370 O380 1.265 . S
O371 C370 1.227 . S
N372 Co369 2.121 . S
N372 C374 1.375 . S
N372 C375 1.313 . S
C373 C374 1.338 . S
C373 N376 1.377 . S
C373 H393 0.930 . S
C374 N372 1.375 . S
C374 C373 1.338 . S
C374 H378 0.931 . S
C375 N372 1.313 . S
C375 N376 1.344 . S
C375 H379 0.930 . S
N376 C373 1.377 . S
N376 C375 1.344 . S
O377 Co369 2.055 . S
O377 C381 1.253 . S
H378 C374 0.931 . S
H379 C375 0.930 . S
O380 Co369 2.039 . S
O380 C370 1.265 . S
C381 O377 1.253 . S
C381 O382 1.227 . S
O382 C381 1.227 . S
N383 Co369 2.140 . S
N383 C386 1.346 . S
N383 C387 1.345 . S
C384 C385 1.387 . S
C384 C388 1.391 . S
C385 C384 1.387 . S
C385 C386 1.369 . S
C385 H394 0.929 . S
C386 N383 1.346 . S
C386 C385 1.369 . S
C386 H389 0.928 . S
C387 N383 1.345 . S
C387 C388 1.371 . S
C387 H390 0.931 . S
C388 C384 1.391 . S
C388 C387 1.371 . S
C388 H395 0.930 . S
H389 C386 0.928 . S
H390 C387 0.931 . S
H391 C367 0.930 . S
H392 C364 0.930 . S
H393 C373 0.930 . S
H394 C385 0.929 . S
H395 C388 0.930 . S
C396 C397 1.351 . S
C396 N399 1.368 . S
C396 H401 0.931 . S
C397 C396 1.351 . S
C397 N398 1.373 . S
C397 H425 0.930 . S
N398 C397 1.373 . S
N398 C400 1.340 . S
N399 C396 1.368 . S
N399 C400 1.321 . S
N399 Co402 2.135 . S
C400 N398 1.340 . S
C400 N399 1.321 . S
C400 H424 0.930 . S
H401 C396 0.931 . S
Co402 N399 2.135 . S
Co402 N405 2.121 . S
Co402 O410 2.055 . S
Co402 O413 2.039 . S
Co402 N416 2.140 . S
C403 O404 1.227 . S
C403 O413 1.265 . S
O404 C403 1.227 . S
N405 Co402 2.121 . S
N405 C407 1.375 . S
N405 C408 1.313 . S
C406 C407 1.338 . S
C406 N409 1.377 . S
C406 H426 0.930 . S
C407 N405 1.375 . S
C407 C406 1.338 . S
C407 H411 0.931 . S
C408 N405 1.313 . S
C408 N409 1.344 . S
C408 H412 0.930 . S
N409 C406 1.377 . S
N409 C408 1.344 . S
O410 Co402 2.055 . S
O410 C414 1.253 . S
H411 C407 0.931 . S
H412 C408 0.930 . S
O413 Co402 2.039 . S
O413 C403 1.265 . S
C414 O410 1.253 . S
C414 O415 1.227 . S
O415 C414 1.227 . S
N416 Co402 2.140 . S
N416 C419 1.346 . S
N416 C420 1.345 . S
C417 C418 1.387 . S
C417 C421 1.391 . S
C418 C417 1.387 . S
C418 C419 1.369 . S
C418 H427 0.929 . S
C419 N416 1.346 . S
C419 C418 1.369 . S
C419 H422 0.928 . S
C420 N416 1.345 . S
C420 C421 1.371 . S
C420 H423 0.931 . S
C421 C417 1.391 . S
C421 C420 1.371 . S
C421 H428 0.930 . S
H422 C419 0.928 . S
H423 C420 0.931 . S
H424 C400 0.930 . S
H425 C397 0.930 . S
H426 C406 0.930 . S
H427 C418 0.929 . S
H428 C421 0.930 . S
C429 C430 1.351 . S
C429 N432 1.368 . S
C429 H434 0.931 . S
C430 C429 1.351 . S
C430 N431 1.373 . S
C430 H458 0.930 . S
N431 C430 1.373 . S
N431 C433 1.340 . S
N432 C429 1.368 . S
N432 C433 1.321 . S
N432 Co435 2.135 . S
C433 N431 1.340 . S
C433 N432 1.321 . S
C433 H457 0.930 . S
H434 C429 0.931 . S
Co435 N432 2.135 . S
Co435 N438 2.121 . S
Co435 O443 2.055 . S
Co435 O446 2.039 . S
Co435 N449 2.140 . S
C436 O437 1.227 . S
C436 O446 1.265 . S
O437 C436 1.227 . S
N438 Co435 2.121 . S
N438 C440 1.375 . S
N438 C441 1.313 . S
C439 C440 1.338 . S
C439 N442 1.377 . S
C439 H459 0.930 . S
C440 N438 1.375 . S
C440 C439 1.338 . S
C440 H444 0.931 . S
C441 N438 1.313 . S
C441 N442 1.344 . S
C441 H445 0.930 . S
N442 C439 1.377 . S
N442 C441 1.344 . S
O443 Co435 2.055 . S
O443 C447 1.253 . S
H444 C440 0.931 . S
H445 C441 0.930 . S
O446 Co435 2.039 . S
O446 C436 1.265 . S
C447 O443 1.253 . S
C447 O448 1.227 . S
O448 C447 1.227 . S
N449 Co435 2.140 . S
N449 C452 1.346 . S
N449 C453 1.345 . S
C450 C451 1.387 . S
C450 C454 1.391 . S
C451 C450 1.387 . S
C451 C452 1.369 . S
C451 H460 0.929 . S
C452 N449 1.346 . S
C452 C451 1.369 . S
C452 H455 0.928 . S
C453 N449 1.345 . S
C453 C454 1.371 . S
C453 H456 0.931 . S
C454 C450 1.391 . S
C454 C453 1.371 . S
C454 H461 0.930 . S
H455 C452 0.928 . S
H456 C453 0.931 . S
H457 C433 0.930 . S
H458 C430 0.930 . S
H459 C439 0.930 . S
H460 C451 0.929 . S
H461 C454 0.930 . S
C462 C463 1.351 . S
C462 N465 1.368 . S
C462 H467 0.931 . S
C463 C462 1.351 . S
C463 N464 1.373 . S
C463 H491 0.930 . S
N464 C463 1.373 . S
N464 C466 1.340 . S
N465 C462 1.368 . S
N465 C466 1.321 . S
N465 Co468 2.135 . S
C466 N464 1.340 . S
C466 N465 1.321 . S
C466 H490 0.930 . S
H467 C462 0.931 . S
Co468 N465 2.135 . S
Co468 N471 2.121 . S
Co468 O476 2.055 . S
Co468 O479 2.039 . S
Co468 N482 2.140 . S
C469 O470 1.227 . S
C469 O479 1.265 . S
O470 C469 1.227 . S
N471 Co468 2.121 . S
N471 C473 1.375 . S
N471 C474 1.313 . S
C472 C473 1.338 . S
C472 N475 1.377 . S
C472 H492 0.930 . S
C473 N471 1.375 . S
C473 C472 1.338 . S
C473 H477 0.931 . S
C474 N471 1.313 . S
C474 N475 1.344 . S
C474 H478 0.930 . S
N475 C472 1.377 . S
N475 C474 1.344 . S
O476 Co468 2.055 . S
O476 C480 1.253 . S
H477 C473 0.931 . S
H478 C474 0.930 . S
O479 Co468 2.039 . S
O479 C469 1.265 . S
C480 O476 1.253 . S
C480 O481 1.227 . S
O481 C480 1.227 . S
N482 Co468 2.140 . S
N482 C485 1.346 . S
N482 C486 1.345 . S
C483 C484 1.387 . S
C483 C487 1.391 . S
C484 C483 1.387 . S
C484 C485 1.369 . S
C484 H493 0.929 . S
C485 N482 1.346 . S
C485 C484 1.369 . S
C485 H488 0.928 . S
C486 N482 1.345 . S
C486 C487 1.371 . S
C486 H489 0.931 . S
C487 C483 1.391 . S
C487 C486 1.371 . S
C487 H494 0.930 . S
H488 C485 0.928 . S
H489 C486 0.931 . S
H490 C466 0.930 . S
H491 C463 0.930 . S
H492 C472 0.930 . S
H493 C484 0.929 . S
H494 C487 0.930 . S
C495 C496 1.351 . S
C495 N498 1.368 . S
C495 H500 0.931 . S
C496 C495 1.351 . S
C496 N497 1.373 . S
C496 H524 0.930 . S
N497 C496 1.373 . S
N497 C499 1.340 . S
N498 C495 1.368 . S
N498 C499 1.321 . S
N498 Co501 2.135 . S
C499 N497 1.340 . S
C499 N498 1.321 . S
C499 H523 0.930 . S
H500 C495 0.931 . S
Co501 N498 2.135 . S
Co501 N504 2.121 . S
Co501 O509 2.055 . S
Co501 O512 2.039 . S
Co501 N515 2.140 . S
C502 O503 1.227 . S
C502 O512 1.265 . S
O503 C502 1.227 . S
N504 Co501 2.121 . S
N504 C506 1.375 . S
N504 C507 1.313 . S
C505 C506 1.338 . S
C505 N508 1.377 . S
C505 H525 0.930 . S
C506 N504 1.375 . S
C506 C505 1.338 . S
C506 H510 0.931 . S
C507 N504 1.313 . S
C507 N508 1.344 . S
C507 H511 0.930 . S
N508 C505 1.377 . S
N508 C507 1.344 . S
O509 Co501 2.055 . S
O509 C513 1.253 . S
H510 C506 0.931 . S
H511 C507 0.930 . S
O512 Co501 2.039 . S
O512 C502 1.265 . S
C513 O509 1.253 . S
C513 O514 1.227 . S
O514 C513 1.227 . S
N515 Co501 2.140 . S
N515 C518 1.346 . S
N515 C519 1.345 . S
C516 C517 1.387 . S
C516 C520 1.391 . S
C517 C516 1.387 . S
C517 C518 1.369 . S
C517 H526 0.929 . S
C518 N515 1.346 . S
C518 C517 1.369 . S
C518 H521 0.928 . S
C519 N515 1.345 . S
C519 C520 1.371 . S
C519 H522 0.931 . S
C520 C516 1.391 . S
C520 C519 1.371 . S
C520 H527 0.930 . S
H521 C518 0.928 . S
H522 C519 0.931 . S
H523 C499 0.930 . S
H524 C496 0.930 . S
H525 C505 0.930 . S
H526 C517 0.929 . S
H527 C520 0.930 . S
H528 C546 0.951 . S
H529 C548 0.951 . S
H530 C550 0.950 . S
H531 C551 0.950 . S
H532 C553 0.950 . S
H533 C556 0.950 . S
H534 C557 0.950 . S
H535 C559 0.950 . S
H536 C560 0.950 . S
H537 C561 0.951 . S
H538 C563 0.951 . S
H539 C565 0.950 . S
H540 C566 0.950 . S
H541 C568 0.950 . S
H542 C571 0.950 . S
H543 C572 0.950 . S
H544 C574 0.950 . S
H545 C575 0.950 . S
C546 H528 0.951 . S
C546 C547 1.366 . S
C546 C548 1.388 . S
C547 C546 1.366 . S
C547 C551 1.385 1_655 S
C548 H529 0.951 . S
C548 C546 1.388 . S
C548 C549 1.366 . S
C549 C548 1.366 . S
C549 C550 1.414 1_655 S
C549 C552 1.499 . S
C550 H530 0.950 . S
C550 C549 1.414 1_455 S
C550 C551 1.374 . S
C551 H531 0.950 . S
C551 C547 1.385 1_455 S
C551 C550 1.374 . S
C552 C549 1.499 . S
C552 C553 1.373 1_655 S
C552 C554 1.389 . S
C553 H532 0.950 . S
C553 C552 1.373 1_455 S
C553 C569 1.377 . S
C554 C552 1.389 . S
C554 C555 1.524 . S
C554 C568 1.377 . S
C555 C554 1.524 . S
C555 C556 1.397 . S
C555 C560 1.363 . S
C556 H533 0.950 . S
C556 C555 1.397 . S
C556 C557 1.334 . S
C557 H534 0.950 . S
C557 C556 1.334 . S
C557 C558 1.287 . S
C558 C557 1.287 . S
C558 C559 1.524 . S
C558 H577 0.913 . S
C559 H535 0.950 . S
C559 C558 1.524 . S
C559 C560 1.415 . S
C560 H536 0.950 . S
C560 C555 1.363 . S
C560 C559 1.415 . S
C561 H537 0.951 . S
C561 C562 1.366 . S
C561 C563 1.388 . S
C562 C561 1.366 . S
C562 C566 1.385 1_455 S
C563 H538 0.951 . S
C563 C561 1.388 . S
C563 C564 1.366 . S
C564 C563 1.366 . S
C564 C565 1.414 1_455 S
C564 C567 1.499 . S
C565 H539 0.950 . S
C565 C564 1.414 1_655 S
C565 C566 1.374 . S
C566 H540 0.950 . S
C566 C562 1.385 1_655 S
C566 C565 1.374 . S
C567 C564 1.499 . S
C567 C568 1.373 1_455 S
C567 C569 1.389 . S
C568 H541 0.950 . S
C568 C554 1.377 . S
C568 C567 1.373 1_655 S
C569 C553 1.377 . S
C569 C567 1.389 . S
C569 C570 1.524 . S
C570 C569 1.524 . S
C570 C571 1.397 . S
C570 C575 1.363 . S
C571 H542 0.950 . S
C571 C570 1.397 . S
C571 C572 1.334 . S
C572 H543 0.950 . S
C572 C571 1.334 . S
C572 C573 1.287 . S
C573 C572 1.287 . S
C573 C574 1.524 . S
C573 H576 0.999 . S
C574 H544 0.950 . S
C574 C573 1.524 . S
C574 C575 1.415 . S
C575 H545 0.950 . S
C575 C570 1.363 . S
C575 C574 1.415 . S
H576 C573 0.999 . S
H577 C558 0.913 . S
H578 C596 0.951 . S
H579 C598 0.951 . S
H580 C600 0.950 . S
H581 C601 0.950 . S
H582 C603 0.950 . S
H583 C606 0.950 . S
H584 C607 0.950 . S
H585 C609 0.950 . S
H586 C610 0.950 . S
H587 C611 0.951 . S
H588 C613 0.951 . S
H589 C615 0.950 . S
H590 C616 0.950 . S
H591 C618 0.950 . S
H592 C621 0.950 . S
H593 C622 0.950 . S
H594 C624 0.950 . S
H595 C625 0.950 . S
C596 H578 0.951 . S
C596 C597 1.366 1_565 S
C596 C598 1.388 . S
C597 C596 1.366 1_545 S
C597 C601 1.385 . S
C598 H579 0.951 . S
C598 C596 1.388 . S
C598 C599 1.366 1_565 S
C599 C598 1.366 1_545 S
C599 C600 1.414 . S
C599 C602 1.499 . S
C600 H580 0.950 . S
C600 C599 1.414 . S
C600 C601 1.374 . S
C601 H581 0.950 . S
C601 C597 1.385 . S
C601 C600 1.374 . S
C602 C599 1.499 . S
C602 C603 1.373 . S
C602 C604 1.389 1_545 S
C603 H582 0.950 . S
C603 C602 1.373 . S
C603 C619 1.377 . S
C604 C602 1.389 1_565 S
C604 C605 1.524 . S
C604 C618 1.377 . S
C605 C604 1.524 . S
C605 C606 1.397 1_565 S
C605 C610 1.363 . S
C606 H583 0.950 . S
C606 C605 1.397 1_545 S
C606 C607 1.334 . S
C607 H584 0.950 . S
C607 C606 1.334 . S
C607 C608 1.287 1_545 S
C608 C607 1.287 1_565 S
C608 C609 1.524 . S
C608 H627 0.913 . S
C609 H585 0.950 . S
C609 C608 1.524 . S
C609 C610 1.415 . S
C610 H586 0.950 . S
C610 C605 1.363 . S
C610 C609 1.415 . S
C611 H587 0.951 . S
C611 C612 1.366 1_545 S
C611 C613 1.388 . S
C612 C611 1.366 1_565 S
C612 C616 1.385 . S
C613 H588 0.951 . S
C613 C611 1.388 . S
C613 C614 1.366 1_545 S
C614 C613 1.366 1_565 S
C614 C615 1.414 . S
C614 C617 1.499 . S
C615 H589 0.950 . S
C615 C614 1.414 . S
C615 C616 1.374 . S
C616 H590 0.950 . S
C616 C612 1.385 . S
C616 C615 1.374 . S
C617 C614 1.499 . S
C617 C618 1.373 . S
C617 C619 1.389 1_565 S
C618 H591 0.950 . S
C618 C604 1.377 . S
C618 C617 1.373 . S
C619 C603 1.377 . S
C619 C617 1.389 1_545 S
C619 C620 1.524 . S
C620 C619 1.524 . S
C620 C621 1.397 1_545 S
C620 C625 1.363 . S
C621 H592 0.950 . S
C621 C620 1.397 1_565 S
C621 C622 1.334 . S
C622 H593 0.950 . S
C622 C621 1.334 . S
C622 C623 1.287 1_565 S
C623 C622 1.287 1_545 S
C623 C624 1.524 . S
C623 H626 0.999 . S
C624 H594 0.950 . S
C624 C623 1.524 . S
C624 C625 1.415 . S
C625 H595 0.950 . S
C625 C620 1.363 . S
C625 C624 1.415 . S
H626 C623 0.999 . S
H627 C608 0.913 . S
H628 C646 0.951 . S
H629 C648 0.951 . S
H630 C650 0.950 . S
H631 C651 0.950 . S
H632 C653 0.950 . S
H633 C656 0.950 . S
H634 C657 0.950 . S
H635 C659 0.950 . S
H636 C660 0.950 . S
H637 C661 0.951 . S
H638 C663 0.951 . S
H639 C665 0.950 . S
H640 C666 0.950 . S
H641 C668 0.950 . S
H642 C671 0.950 . S
H643 C672 0.950 . S
H644 C674 0.950 . S
H645 C675 0.950 . S
C646 H628 0.951 . S
C646 C647 1.366 1_455 S
C646 C648 1.388 . S
C647 C646 1.366 1_655 S
C647 C651 1.385 . S
C648 H629 0.951 . S
C648 C646 1.388 . S
C648 C649 1.366 1_455 S
C649 C648 1.366 1_655 S
C649 C650 1.414 . S
C649 C652 1.499 . S
C650 H630 0.950 . S
C650 C649 1.414 . S
C650 C651 1.374 . S
C651 H631 0.950 . S
C651 C647 1.385 . S
C651 C650 1.374 . S
C652 C649 1.499 . S
C652 C653 1.373 . S
C652 C654 1.389 1_655 S
C653 H632 0.950 . S
C653 C652 1.373 . S
C653 C669 1.377 . S
C654 C652 1.389 1_455 S
C654 C655 1.524 . S
C654 C668 1.377 . S
C655 C654 1.524 . S
C655 C656 1.397 1_455 S
C655 C660 1.363 . S
C656 H633 0.950 . S
C656 C655 1.397 1_655 S
C656 C657 1.334 . S
C657 H634 0.950 . S
C657 C656 1.334 . S
C657 C658 1.287 . S
C658 C657 1.287 . S
C658 C659 1.524 1_655 S
C658 H677 0.913 . S
C659 H635 0.950 . S
C659 C658 1.524 1_455 S
C659 C660 1.415 . S
C660 H636 0.950 . S
C660 C655 1.363 . S
C660 C659 1.415 . S
C661 H637 0.951 . S
C661 C662 1.366 1_655 S
C661 C663 1.388 . S
C662 C661 1.366 1_455 S
C662 C666 1.385 . S
C663 H638 0.951 . S
C663 C661 1.388 . S
C663 C664 1.366 1_655 S
C664 C663 1.366 1_455 S
C664 C665 1.414 . S
C664 C667 1.499 . S
C665 H639 0.950 . S
C665 C664 1.414 . S
C665 C666 1.374 . S
C666 H640 0.950 . S
C666 C662 1.385 . S
C666 C665 1.374 . S
C667 C664 1.499 . S
C667 C668 1.373 . S
C667 C669 1.389 1_455 S
C668 H641 0.950 . S
C668 C654 1.377 . S
C668 C667 1.373 . S
C669 C653 1.377 . S
C669 C667 1.389 1_655 S
C669 C670 1.524 . S
C670 C669 1.524 . S
C670 C671 1.397 1_655 S
C670 C675 1.363 . S
C671 H642 0.950 . S
C671 C670 1.397 1_455 S
C671 C672 1.334 . S
C672 H643 0.950 . S
C672 C671 1.334 . S
C672 C673 1.287 . S
C673 C672 1.287 . S
C673 C674 1.524 1_455 S
C673 H676 0.999 . S
C674 H644 0.950 . S
C674 C673 1.524 1_655 S
C674 C675 1.415 . S
C675 H645 0.950 . S
C675 C670 1.363 . S
C675 C674 1.415 . S
H676 C673 0.999 . S
H677 C658 0.913 . S
H678 C696 0.951 . S
H679 C698 0.951 . S
H680 C700 0.950 . S
H681 C701 0.950 . S
H682 C703 0.950 . S
H683 C706 0.950 . S
H684 C707 0.950 . S
H685 C709 0.950 . S
H686 C710 0.950 . S
H687 C711 0.951 . S
H688 C713 0.951 . S
H689 C715 0.950 . S
H690 C716 0.950 . S
H691 C718 0.950 . S
H692 C721 0.950 . S
H693 C722 0.950 . S
H694 C724 0.950 . S
H695 C725 0.950 . S
C696 H678 0.951 . S
C696 C697 1.366 1_545 S
C696 C698 1.388 . S
C697 C696 1.366 1_565 S
C697 C701 1.385 . S
C698 H679 0.951 . S
C698 C696 1.388 . S
C698 C699 1.366 1_545 S
C699 C698 1.366 1_565 S
C699 C700 1.414 . S
C699 C702 1.499 . S
C700 H680 0.950 . S
C700 C699 1.414 . S
C700 C701 1.374 . S
C701 H681 0.950 . S
C701 C697 1.385 . S
C701 C700 1.374 . S
C702 C699 1.499 . S
C702 C703 1.373 . S
C702 C704 1.389 1_565 S
C703 H682 0.950 . S
C703 C702 1.373 . S
C703 C719 1.377 . S
C704 C702 1.389 1_545 S
C704 C705 1.524 . S
C704 C718 1.377 . S
C705 C704 1.524 . S
C705 C706 1.397 1_545 S
C705 C710 1.363 . S
C706 H683 0.950 . S
C706 C705 1.397 1_565 S
C706 C707 1.334 . S
C707 H684 0.950 . S
C707 C706 1.334 . S
C707 C708 1.287 . S
C708 C707 1.287 . S
C708 C709 1.524 1_565 S
C708 H727 0.913 . S
C709 H685 0.950 . S
C709 C708 1.524 1_545 S
C709 C710 1.415 . S
C710 H686 0.950 . S
C710 C705 1.363 . S
C710 C709 1.415 . S
C711 H687 0.951 . S
C711 C712 1.366 1_565 S
C711 C713 1.388 . S
C712 C711 1.366 1_545 S
C712 C716 1.385 . S
C713 H688 0.951 . S
C713 C711 1.388 . S
C713 C714 1.366 1_565 S
C714 C713 1.366 1_545 S
C714 C715 1.414 . S
C714 C717 1.499 . S
C715 H689 0.950 . S
C715 C714 1.414 . S
C715 C716 1.374 . S
C716 H690 0.950 . S
C716 C712 1.385 . S
C716 C715 1.374 . S
C717 C714 1.499 . S
C717 C718 1.373 . S
C717 C719 1.389 1_545 S
C718 H691 0.950 . S
C718 C704 1.377 . S
C718 C717 1.373 . S
C719 C703 1.377 . S
C719 C717 1.389 1_565 S
C719 C720 1.524 . S
C720 C719 1.524 . S
C720 C721 1.397 1_565 S
C720 C725 1.363 . S
C721 H692 0.950 . S
C721 C720 1.397 1_545 S
C721 C722 1.334 . S
C722 H693 0.950 . S
C722 C721 1.334 . S
C722 C723 1.287 . S
C723 C722 1.287 . S
C723 C724 1.524 1_545 S
C723 H726 0.999 . S
C724 H694 0.950 . S
C724 C723 1.524 1_565 S
C724 C725 1.415 . S
C725 H695 0.950 . S
C725 C720 1.363 . S
C725 C724 1.415 . S
H726 C723 0.999 . S
H727 C708 0.913 . S
H728 C746 0.951 . S
H729 C748 0.951 . S
H730 C750 0.950 . S
H731 C751 0.950 . S
H732 C753 0.950 . S
H733 C756 0.950 . S
H734 C757 0.950 . S
H735 C759 0.950 . S
H736 C760 0.950 . S
H737 C761 0.951 . S
H738 C763 0.951 . S
H739 C765 0.950 . S
H740 C766 0.950 . S
H741 C768 0.950 . S
H742 C771 0.950 . S
H743 C772 0.950 . S
H744 C774 0.950 . S
H745 C775 0.950 . S
C746 H728 0.951 . S
C746 C747 1.366 . S
C746 C748 1.388 . S
C747 C746 1.366 . S
C747 C751 1.385 . S
C748 H729 0.951 . S
C748 C746 1.388 . S
C748 C749 1.366 . S
C749 C748 1.366 . S
C749 C750 1.414 . S
C749 C752 1.499 . S
C750 H730 0.950 . S
C750 C749 1.414 . S
C750 C751 1.374 . S
C751 H731 0.950 . S
C751 C747 1.385 . S
C751 C750 1.374 . S
C752 C749 1.499 . S
C752 C753 1.373 . S
C752 C754 1.389 . S
C753 H732 0.950 . S
C753 C752 1.373 . S
C753 C769 1.377 1_565 S
C754 C752 1.389 . S
C754 C755 1.524 . S
C754 C768 1.377 1_565 S
C755 C754 1.524 . S
C755 C756 1.397 . S
C755 C760 1.363 . S
C756 H733 0.950 . S
C756 C755 1.397 . S
C756 C757 1.334 . S
C757 H734 0.950 . S
C757 C756 1.334 . S
C757 C758 1.287 . S
C758 C757 1.287 . S
C758 C759 1.524 . S
C758 H777 0.913 . S
C759 H735 0.950 . S
C759 C758 1.524 . S
C759 C760 1.415 . S
C760 H736 0.950 . S
C760 C755 1.363 . S
C760 C759 1.415 . S
C761 H737 0.951 . S
C761 C762 1.366 . S
C761 C763 1.388 . S
C762 C761 1.366 . S
C762 C766 1.385 . S
C763 H738 0.951 . S
C763 C761 1.388 . S
C763 C764 1.366 . S
C764 C763 1.366 . S
C764 C765 1.414 . S
C764 C767 1.499 . S
C765 H739 0.950 . S
C765 C764 1.414 . S
C765 C766 1.374 . S
C766 H740 0.950 . S
C766 C762 1.385 . S
C766 C765 1.374 . S
C767 C764 1.499 . S
C767 C768 1.373 . S
C767 C769 1.389 . S
C768 H741 0.950 . S
C768 C754 1.377 1_545 S
C768 C767 1.373 . S
C769 C753 1.377 1_545 S
C769 C767 1.389 . S
C769 C770 1.524 . S
C770 C769 1.524 . S
C770 C771 1.397 . S
C770 C775 1.363 . S
C771 H742 0.950 . S
C771 C770 1.397 . S
C771 C772 1.334 . S
C772 H743 0.950 . S
C772 C771 1.334 . S
C772 C773 1.287 . S
C773 C772 1.287 . S
C773 C774 1.524 . S
C773 H776 0.999 . S
C774 H744 0.950 . S
C774 C773 1.524 . S
C774 C775 1.415 . S
C775 H745 0.950 . S
C775 C770 1.363 . S
C775 C774 1.415 . S
H776 C773 0.999 . S
H777 C758 0.913 . S
H778 C796 0.951 . S
H779 C798 0.951 . S
H780 C800 0.950 . S
H781 C801 0.950 . S
H782 C803 0.950 . S
H783 C806 0.950 . S
H784 C807 0.950 . S
H785 C809 0.950 . S
H786 C810 0.950 . S
H787 C811 0.951 . S
H788 C813 0.951 . S
H789 C815 0.950 . S
H790 C816 0.950 . S
H791 C818 0.950 . S
H792 C821 0.950 . S
H793 C822 0.950 . S
H794 C824 0.950 . S
H795 C825 0.950 . S
C796 H778 0.951 . S
C796 C797 1.366 . S
C796 C798 1.388 . S
C797 C796 1.366 . S
C797 C801 1.385 . S
C798 H779 0.951 . S
C798 C796 1.388 . S
C798 C799 1.366 . S
C799 C798 1.366 . S
C799 C800 1.414 . S
C799 C802 1.499 . S
C800 H780 0.950 . S
C800 C799 1.414 . S
C800 C801 1.374 . S
C801 H781 0.950 . S
C801 C797 1.385 . S
C801 C800 1.374 . S
C802 C799 1.499 . S
C802 C803 1.373 . S
C802 C804 1.389 . S
C803 H782 0.950 . S
C803 C802 1.373 . S
C803 C819 1.377 1_655 S
C804 C802 1.389 . S
C804 C805 1.524 . S
C804 C818 1.377 1_655 S
C805 C804 1.524 . S
C805 C806 1.397 . S
C805 C810 1.363 . S
C806 H783 0.950 . S
C806 C805 1.397 . S
C806 C807 1.334 . S
C807 H784 0.950 . S
C807 C806 1.334 . S
C807 C808 1.287 . S
C808 C807 1.287 . S
C808 C809 1.524 . S
C808 H827 0.913 . S
C809 H785 0.950 . S
C809 C808 1.524 . S
C809 C810 1.415 . S
C810 H786 0.950 . S
C810 C805 1.363 . S
C810 C809 1.415 . S
C811 H787 0.951 . S
C811 C812 1.366 . S
C811 C813 1.388 . S
C812 C811 1.366 . S
C812 C816 1.385 . S
C813 H788 0.951 . S
C813 C811 1.388 . S
C813 C814 1.366 . S
C814 C813 1.366 . S
C814 C815 1.414 . S
C814 C817 1.499 . S
C815 H789 0.950 . S
C815 C814 1.414 . S
C815 C816 1.374 . S
C816 H790 0.950 . S
C816 C812 1.385 . S
C816 C815 1.374 . S
C817 C814 1.499 . S
C817 C818 1.373 . S
C817 C819 1.389 . S
C818 H791 0.950 . S
C818 C804 1.377 1_455 S
C818 C817 1.373 . S
C819 C803 1.377 1_455 S
C819 C817 1.389 . S
C819 C820 1.524 . S
C820 C819 1.524 . S
C820 C821 1.397 . S
C820 C825 1.363 . S
C821 H792 0.950 . S
C821 C820 1.397 . S
C821 C822 1.334 . S
C822 H793 0.950 . S
C822 C821 1.334 . S
C822 C823 1.287 . S
C823 C822 1.287 . S
C823 C824 1.524 . S
C823 H826 0.999 . S
C824 H794 0.950 . S
C824 C823 1.524 . S
C824 C825 1.415 . S
C825 H795 0.950 . S
C825 C820 1.363 . S
C825 C824 1.415 . S
H826 C823 0.999 . S
H827 C808 0.913 . S
H828 C846 0.951 . S
H829 C848 0.951 . S
H830 C850 0.950 . S
H831 C851 0.950 . S
H832 C853 0.950 . S
H833 C856 0.950 . S
H834 C857 0.950 . S
H835 C859 0.950 . S
H836 C860 0.950 1_545 S
H837 C861 0.951 . S
H838 C863 0.951 . S
H839 C865 0.950 . S
H840 C866 0.950 . S
H841 C868 0.950 . S
H842 C871 0.950 . S
H843 C872 0.950 . S
H844 C874 0.950 . S
H845 C875 0.950 1_565 S
C846 H828 0.951 . S
C846 C847 1.366 . S
C846 C848 1.388 . S
C847 C846 1.366 . S
C847 C851 1.385 . S
C848 H829 0.951 . S
C848 C846 1.388 . S
C848 C849 1.366 . S
C849 C848 1.366 . S
C849 C850 1.414 . S
C849 C852 1.499 . S
C850 H830 0.950 . S
C850 C849 1.414 . S
C850 C851 1.374 . S
C851 H831 0.950 . S
C851 C847 1.385 . S
C851 C850 1.374 . S
C852 C849 1.499 . S
C852 C853 1.373 . S
C852 C854 1.389 . S
C853 H832 0.950 . S
C853 C852 1.373 . S
C853 C869 1.377 1_565 S
C854 C852 1.389 . S
C854 C855 1.524 . S
C854 C868 1.377 1_565 S
C855 C854 1.524 . S
C855 C856 1.397 . S
C855 C860 1.363 . S
C856 H833 0.950 . S
C856 C855 1.397 . S
C856 C857 1.334 . S
C857 H834 0.950 . S
C857 C856 1.334 . S
C857 C858 1.287 . S
C858 C857 1.287 . S
C858 C859 1.524 . S
C858 H877 0.913 . S
C859 H835 0.950 . S
C859 C858 1.524 . S
C859 C860 1.415 . S
C860 H836 0.950 1_565 S
C860 C855 1.363 . S
C860 C859 1.415 . S
C861 H837 0.951 . S
C861 C862 1.366 . S
C861 C863 1.388 . S
C862 C861 1.366 . S
C862 C866 1.385 . S
C863 H838 0.951 . S
C863 C861 1.388 . S
C863 C864 1.366 . S
C864 C863 1.366 . S
C864 C865 1.414 . S
C864 C867 1.499 . S
C865 H839 0.950 . S
C865 C864 1.414 . S
C865 C866 1.374 . S
C866 H840 0.950 . S
C866 C862 1.385 . S
C866 C865 1.374 . S
C867 C864 1.499 . S
C867 C868 1.373 . S
C867 C869 1.389 . S
C868 H841 0.950 . S
C868 C854 1.377 1_545 S
C868 C867 1.373 . S
C869 C853 1.377 1_545 S
C869 C867 1.389 . S
C869 C870 1.524 . S
C870 C869 1.524 . S
C870 C871 1.397 . S
C870 C875 1.363 . S
C871 H842 0.950 . S
C871 C870 1.397 . S
C871 C872 1.334 . S
C872 H843 0.950 . S
C872 C871 1.334 . S
C872 C873 1.287 . S
C873 C872 1.287 . S
C873 C874 1.524 . S
C873 H876 0.999 . S
C874 H844 0.950 . S
C874 C873 1.524 . S
C874 C875 1.415 . S
C875 H845 0.950 1_545 S
C875 C870 1.363 . S
C875 C874 1.415 . S
H876 C873 0.999 . S
H877 C858 0.913 . S
H878 C896 0.951 . S
H879 C898 0.951 . S
H880 C900 0.950 . S
H881 C901 0.950 . S
H882 C903 0.950 . S
H883 C906 0.950 . S
H884 C907 0.950 . S
H885 C909 0.950 . S
H886 C910 0.950 1_455 S
H887 C911 0.951 . S
H888 C913 0.951 . S
H889 C915 0.950 . S
H890 C916 0.950 . S
H891 C918 0.950 . S
H892 C921 0.950 . S
H893 C922 0.950 . S
H894 C924 0.950 . S
H895 C925 0.950 1_655 S
C896 H878 0.951 . S
C896 C897 1.366 . S
C896 C898 1.388 . S
C897 C896 1.366 . S
C897 C901 1.385 . S
C898 H879 0.951 . S
C898 C896 1.388 . S
C898 C899 1.366 . S
C899 C898 1.366 . S
C899 C900 1.414 . S
C899 C902 1.499 . S
C900 H880 0.950 . S
C900 C899 1.414 . S
C900 C901 1.374 . S
C901 H881 0.950 . S
C901 C897 1.385 . S
C901 C900 1.374 . S
C902 C899 1.499 . S
C902 C903 1.373 . S
C902 C904 1.389 . S
C903 H882 0.950 . S
C903 C902 1.373 . S
C903 C919 1.377 1_655 S
C904 C902 1.389 . S
C904 C905 1.524 . S
C904 C918 1.377 1_655 S
C905 C904 1.524 . S
C905 C906 1.397 . S
C905 C910 1.363 . S
C906 H883 0.950 . S
C906 C905 1.397 . S
C906 C907 1.334 . S
C907 H884 0.950 . S
C907 C906 1.334 . S
C907 C908 1.287 . S
C908 C907 1.287 . S
C908 C909 1.524 . S
C908 H927 0.913 . S
C909 H885 0.950 . S
C909 C908 1.524 . S
C909 C910 1.415 . S
C910 H886 0.950 1_655 S
C910 C905 1.363 . S
C910 C909 1.415 . S
C911 H887 0.951 . S
C911 C912 1.366 . S
C911 C913 1.388 . S
C912 C911 1.366 . S
C912 C916 1.385 . S
C913 H888 0.951 . S
C913 C911 1.388 . S
C913 C914 1.366 . S
C914 C913 1.366 . S
C914 C915 1.414 . S
C914 C917 1.499 . S
C915 H889 0.950 . S
C915 C914 1.414 . S
C915 C916 1.374 . S
C916 H890 0.950 . S
C916 C912 1.385 . S
C916 C915 1.374 . S
C917 C914 1.499 . S
C917 C918 1.373 . S
C917 C919 1.389 . S
C918 H891 0.950 . S
C918 C904 1.377 1_455 S
C918 C917 1.373 . S
C919 C903 1.377 1_455 S
C919 C917 1.389 . S
C919 C920 1.524 . S
C920 C919 1.524 . S
C920 C921 1.397 . S
C920 C925 1.363 . S
C921 H892 0.950 . S
C921 C920 1.397 . S
C921 C922 1.334 . S
C922 H893 0.950 . S
C922 C921 1.334 . S
C922 C923 1.287 . S
C923 C922 1.287 . S
C923 C924 1.524 . S
C923 H926 0.999 . S
C924 H894 0.950 . S
C924 C923 1.524 . S
C924 C925 1.415 . S
C925 H895 0.950 1_455 S
C925 C920 1.363 . S
C925 C924 1.415 . S
H926 C923 0.999 . S
H927 C908 0.913 . S
H928 C946 0.951 . S
H929 C948 0.951 . S
H930 C950 0.950 . S
H931 C951 0.950 . S
H932 C953 0.950 . S
H933 C956 0.950 . S
H934 C957 0.948 1_655 S
H935 C959 0.950 . S
H936 C960 0.950 . S
H937 C961 0.951 . S
H938 C963 0.951 . S
H939 C965 0.950 . S
H940 C966 0.950 . S
H941 C968 0.950 . S
H942 C971 0.950 . S
H943 C972 0.950 . S
H944 C974 0.950 . S
H945 C975 0.950 . S
C946 H928 0.951 . S
C946 C947 1.366 . S
C946 C948 1.388 . S
C947 C946 1.366 . S
C947 C951 1.385 . S
C948 H929 0.951 . S
C948 C946 1.388 . S
C948 C949 1.366 . S
C949 C948 1.366 . S
C949 C950 1.414 . S
C949 C952 1.499 . S
C950 H930 0.950 . S
C950 C949 1.414 . S
C950 C951 1.374 . S
C951 H931 0.950 . S
C951 C947 1.385 . S
C951 C950 1.374 . S
C952 C949 1.499 . S
C952 C953 1.373 . S
C952 C954 1.389 . S
C953 H932 0.950 . S
C953 C952 1.373 . S
C953 C969 1.377 . S
C954 C952 1.389 . S
C954 C955 1.524 . S
C954 C968 1.377 . S
C955 C954 1.524 . S
C955 C956 1.397 . S
C955 C960 1.363 . S
C956 H933 0.950 . S
C956 C955 1.397 . S
C956 C957 1.336 . S
C957 H934 0.948 1_455 S
C957 C956 1.336 . S
C957 C958 1.287 . S
C958 C957 1.287 . S
C958 C959 1.524 . S
C958 H977 0.913 1_455 S
C959 H935 0.950 . S
C959 C958 1.524 . S
C959 C960 1.415 . S
C960 H936 0.950 . S
C960 C955 1.363 . S
C960 C959 1.415 . S
C961 H937 0.951 . S
C961 C962 1.366 . S
C961 C963 1.388 . S
C962 C961 1.366 . S
C962 C966 1.385 . S
C963 H938 0.951 . S
C963 C961 1.388 . S
C963 C964 1.366 . S
C964 C963 1.366 . S
C964 C965 1.414 . S
C964 C967 1.499 . S
C965 H939 0.950 . S
C965 C964 1.414 . S
C965 C966 1.374 . S
C966 H940 0.950 . S
C966 C962 1.385 . S
C966 C965 1.374 . S
C967 C964 1.499 . S
C967 C968 1.373 . S
C967 C969 1.389 . S
C968 H941 0.950 . S
C968 C954 1.377 . S
C968 C967 1.373 . S
C969 C953 1.377 . S
C969 C967 1.389 . S
C969 C970 1.524 . S
C970 C969 1.524 . S
C970 C971 1.397 . S
C970 C975 1.363 . S
C971 H942 0.950 . S
C971 C970 1.397 . S
C971 C972 1.334 . S
C972 H943 0.950 . S
C972 C971 1.334 . S
C972 C973 1.287 . S
C973 C972 1.287 . S
C973 C974 1.524 . S
C973 H976 0.999 . S
C974 H944 0.950 . S
C974 C973 1.524 . S
C974 C975 1.415 . S
C975 H945 0.950 . S
C975 C970 1.363 . S
C975 C974 1.415 . S
H976 C973 0.999 . S
H977 C958 0.913 1_655 S
H978 C996 0.951 . S
H979 C998 0.951 . S
H980 C1000 0.950 . S
H981 C1001 0.950 . S
H982 C1003 0.950 . S
H983 C1006 0.950 . S
H984 C1007 0.950 . S
H985 C1009 0.950 . S
H986 C1010 0.950 . S
H987 C1011 0.951 . S
H988 C1013 0.951 . S
H989 C1015 0.950 . S
H990 C1016 0.950 . S
H991 C1018 0.950 . S
H992 C1021 0.950 . S
H993 C1022 0.950 1_565 S
H994 C1024 0.950 . S
H995 C1025 0.950 . S
C996 H978 0.951 . S
C996 C997 1.366 . S
C996 C998 1.388 . S
C997 C996 1.366 . S
C997 C1001 1.385 . S
C998 H979 0.951 . S
C998 C996 1.388 . S
C998 C999 1.366 . S
C999 C998 1.366 . S
C999 C1000 1.414 . S
C999 C1002 1.499 . S
C1000 H980 0.950 . S
C1000 C999 1.414 . S
C1000 C1001 1.374 . S
C1001 H981 0.950 . S
C1001 C997 1.385 . S
C1001 C1000 1.374 . S
C1002 C999 1.499 . S
C1002 C1003 1.373 . S
C1002 C1004 1.389 . S
C1003 H982 0.950 . S
C1003 C1002 1.373 . S
C1003 C1019 1.377 . S
C1004 C1002 1.389 . S
C1004 C1005 1.524 . S
C1004 C1018 1.377 . S
C1005 C1004 1.524 . S
C1005 C1006 1.397 . S
C1005 C1010 1.363 . S
C1006 H983 0.950 . S
C1006 C1005 1.397 . S
C1006 C1007 1.334 . S
C1007 H984 0.950 . S
C1007 C1006 1.334 . S
C1007 C1008 1.287 . S
C1008 C1007 1.287 . S
C1008 C1009 1.524 . S
C1008 H1027 0.913 . S
C1009 H985 0.950 . S
C1009 C1008 1.524 . S
C1009 C1010 1.415 . S
C1010 H986 0.950 . S
C1010 C1005 1.363 . S
C1010 C1009 1.415 . S
C1011 H987 0.951 . S
C1011 C1012 1.366 . S
C1011 C1013 1.388 . S
C1012 C1011 1.366 . S
C1012 C1016 1.385 . S
C1013 H988 0.951 . S
C1013 C1011 1.388 . S
C1013 C1014 1.366 . S
C1014 C1013 1.366 . S
C1014 C1015 1.414 . S
C1014 C1017 1.499 . S
C1015 H989 0.950 . S
C1015 C1014 1.414 . S
C1015 C1016 1.374 . S
C1016 H990 0.950 . S
C1016 C1012 1.385 . S
C1016 C1015 1.374 . S
C1017 C1014 1.499 . S
C1017 C1018 1.373 . S
C1017 C1019 1.389 . S
C1018 H991 0.950 . S
C1018 C1004 1.377 . S
C1018 C1017 1.373 . S
C1019 C1003 1.377 . S
C1019 C1017 1.389 . S
C1019 C1020 1.524 . S
C1020 C1019 1.524 . S
C1020 C1021 1.397 . S
C1020 C1025 1.363 . S
C1021 H992 0.950 . S
C1021 C1020 1.397 . S
C1021 C1022 1.334 . S
C1022 H993 0.950 1_545 S
C1022 C1021 1.334 . S
C1022 C1023 1.287 . S
C1023 C1022 1.287 . S
C1023 C1024 1.524 . S
C1023 H1026 1.012 . S
C1024 H994 0.950 . S
C1024 C1023 1.524 . S
C1024 C1025 1.415 . S
C1025 H995 0.950 . S
C1025 C1020 1.363 . S
C1025 C1024 1.415 . S
H1026 C1023 1.012 . S
H1027 C1008 0.913 . S
H1028 C1046 0.951 . S
H1029 C1048 0.951 . S
H1030 C1050 0.950 . S
H1031 C1051 0.950 . S
H1032 C1053 0.950 . S
H1033 C1056 0.950 . S
H1034 C1057 0.950 . S
H1035 C1059 0.950 . S
H1036 C1060 0.950 . S
H1037 C1061 0.951 . S
H1038 C1063 0.951 . S
H1039 C1065 0.950 . S
H1040 C1066 0.950 . S
H1041 C1068 0.950 . S
H1042 C1071 0.950 . S
H1043 C1072 0.950 1_455 S
H1044 C1074 0.950 . S
H1045 C1075 0.950 . S
C1046 H1028 0.951 . S
C1046 C1047 1.366 . S
C1046 C1048 1.388 . S
C1047 C1046 1.366 . S
C1047 C1051 1.385 . S
C1048 H1029 0.951 . S
C1048 C1046 1.388 . S
C1048 C1049 1.366 . S
C1049 C1048 1.366 . S
C1049 C1050 1.414 . S
C1049 C1052 1.499 . S
C1050 H1030 0.950 . S
C1050 C1049 1.414 . S
C1050 C1051 1.374 . S
C1051 H1031 0.950 . S
C1051 C1047 1.385 . S
C1051 C1050 1.374 . S
C1052 C1049 1.499 . S
C1052 C1053 1.373 . S
C1052 C1054 1.389 . S
C1053 H1032 0.950 . S
C1053 C1052 1.373 . S
C1053 C1069 1.377 . S
C1054 C1052 1.389 . S
C1054 C1055 1.524 . S
C1054 C1068 1.377 . S
C1055 C1054 1.524 . S
C1055 C1056 1.397 . S
C1055 C1060 1.363 . S
C1056 H1033 0.950 . S
C1056 C1055 1.397 . S
C1056 C1057 1.334 . S
C1057 H1034 0.950 . S
C1057 C1056 1.334 . S
C1057 C1058 1.287 . S
C1058 C1057 1.287 . S
C1058 C1059 1.524 . S
C1058 H1077 0.913 . S
C1059 H1035 0.950 . S
C1059 C1058 1.524 . S
C1059 C1060 1.415 . S
C1060 H1036 0.950 . S
C1060 C1055 1.363 . S
C1060 C1059 1.415 . S
C1061 H1037 0.951 . S
C1061 C1062 1.366 . S
C1061 C1063 1.388 . S
C1062 C1061 1.366 . S
C1062 C1066 1.385 . S
C1063 H1038 0.951 . S
C1063 C1061 1.388 . S
C1063 C1064 1.366 . S
C1064 C1063 1.366 . S
C1064 C1065 1.414 . S
C1064 C1067 1.499 . S
C1065 H1039 0.950 . S
C1065 C1064 1.414 . S
C1065 C1066 1.374 . S
C1066 H1040 0.950 . S
C1066 C1062 1.385 . S
C1066 C1065 1.374 . S
C1067 C1064 1.499 . S
C1067 C1068 1.373 . S
C1067 C1069 1.389 . S
C1068 H1041 0.950 . S
C1068 C1054 1.377 . S
C1068 C1067 1.373 . S
C1069 C1053 1.377 . S
C1069 C1067 1.389 . S
C1069 C1070 1.524 . S
C1070 C1069 1.524 . S
C1070 C1071 1.397 . S
C1070 C1075 1.363 . S
C1071 H1042 0.950 . S
C1071 C1070 1.397 . S
C1071 C1072 1.334 . S
C1072 H1043 0.950 1_655 S
C1072 C1071 1.334 . S
C1072 C1073 1.287 . S
C1073 C1072 1.287 . S
C1073 C1074 1.524 . S
C1073 H1076 0.999 1_655 S
C1074 H1044 0.950 . S
C1074 C1073 1.524 . S
C1074 C1075 1.415 . S
C1075 H1045 0.950 . S
C1075 C1070 1.363 . S
C1075 C1074 1.415 . S
H1076 C1073 0.999 1_455 S
H1077 C1058 0.913 . S
H1078 C1096 0.951 . S
H1079 C1098 0.951 . S
H1080 C1100 0.950 . S
H1081 C1101 0.950 . S
H1082 C1103 0.950 . S
H1083 C1106 0.950 . S
H1084 C1107 0.950 . S
H1085 C1109 0.950 . S
H1086 C1110 0.950 . S
H1087 C1111 0.951 . S
H1088 C1113 0.951 . S
H1089 C1115 0.950 . S
H1090 C1116 0.950 . S
H1091 C1118 0.950 . S
H1092 C1121 0.950 . S
H1093 C1122 0.950 . S
H1094 C1124 0.950 1_545 S
H1095 C1125 0.950 . S
C1096 H1078 0.951 . S
C1096 C1097 1.366 . S
C1096 C1098 1.388 . S
C1097 C1096 1.366 . S
C1097 C1101 1.385 . S
C1098 H1079 0.951 . S
C1098 C1096 1.388 . S
C1098 C1099 1.366 . S
C1099 C1098 1.366 . S
C1099 C1100 1.414 . S
C1099 C1102 1.499 . S
C1100 H1080 0.950 . S
C1100 C1099 1.414 . S
C1100 C1101 1.374 . S
C1101 H1081 0.950 . S
C1101 C1097 1.385 . S
C1101 C1100 1.374 . S
C1102 C1099 1.499 . S
C1102 C1103 1.373 . S
C1102 C1104 1.389 . S
C1103 H1082 0.950 . S
C1103 C1102 1.373 . S
C1103 C1119 1.377 . S
C1104 C1102 1.389 . S
C1104 C1105 1.524 . S
C1104 C1118 1.377 . S
C1105 C1104 1.524 . S
C1105 C1106 1.397 . S
C1105 C1110 1.363 . S
C1106 H1083 0.950 . S
C1106 C1105 1.397 . S
C1106 C1107 1.334 . S
C1107 H1084 0.950 . S
C1107 C1106 1.334 . S
C1107 C1108 1.287 . S
C1108 C1107 1.287 . S
C1108 C1109 1.524 . S
C1108 H1127 0.913 . S
C1109 H1085 0.950 . S
C1109 C1108 1.524 . S
C1109 C1110 1.415 . S
C1110 H1086 0.950 . S
C1110 C1105 1.363 . S
C1110 C1109 1.415 . S
C1111 H1087 0.951 . S
C1111 C1112 1.366 . S
C1111 C1113 1.388 . S
C1112 C1111 1.366 . S
C1112 C1116 1.385 . S
C1113 H1088 0.951 . S
C1113 C1111 1.388 . S
C1113 C1114 1.366 . S
C1114 C1113 1.366 . S
C1114 C1115 1.414 . S
C1114 C1117 1.499 . S
C1115 H1089 0.950 . S
C1115 C1114 1.414 . S
C1115 C1116 1.374 . S
C1116 H1090 0.950 . S
C1116 C1112 1.385 . S
C1116 C1115 1.374 . S
C1117 C1114 1.499 . S
C1117 C1118 1.373 . S
C1117 C1119 1.389 . S
C1118 H1091 0.950 . S
C1118 C1104 1.377 . S
C1118 C1117 1.373 . S
C1119 C1103 1.377 . S
C1119 C1117 1.389 . S
C1119 C1120 1.524 . S
C1120 C1119 1.524 . S
C1120 C1121 1.397 . S
C1120 C1125 1.363 . S
C1121 H1092 0.950 . S
C1121 C1120 1.397 . S
C1121 C1122 1.334 . S
C1122 H1093 0.950 . S
C1122 C1121 1.334 . S
C1122 C1123 1.287 . S
C1123 C1122 1.287 . S
C1123 C1124 1.524 . S
C1123 H1126 0.999 1_565 S
C1124 H1094 0.950 1_565 S
C1124 C1123 1.524 . S
C1124 C1125 1.415 . S
C1125 H1095 0.950 . S
C1125 C1120 1.363 . S
C1125 C1124 1.415 . S
H1126 C1123 0.999 1_545 S
H1127 C1108 0.913 . S
H1128 C1146 0.951 . S
H1129 C1148 0.951 . S
H1130 C1150 0.950 . S
H1131 C1151 0.950 . S
H1132 C1153 0.950 . S
H1133 C1156 0.950 . S
H1134 C1157 0.950 . S
H1135 C1159 0.950 . S
H1136 C1160 0.950 . S
H1137 C1161 0.951 . S
H1138 C1163 0.951 . S
H1139 C1165 0.950 . S
H1140 C1166 0.950 . S
H1141 C1168 0.950 . S
H1142 C1171 0.950 . S
H1143 C1172 0.950 . S
H1144 C1174 0.950 . S
H1145 C1175 0.950 . S
C1146 H1128 0.951 . S
C1146 C1147 1.366 . S
C1146 C1148 1.388 . S
C1147 C1146 1.366 . S
C1147 C1151 1.385 . S
C1148 H1129 0.951 . S
C1148 C1146 1.388 . S
C1148 C1149 1.366 . S
C1149 C1148 1.366 . S
C1149 C1150 1.414 . S
C1149 C1152 1.499 . S
C1150 H1130 0.950 . S
C1150 C1149 1.414 . S
C1150 C1151 1.374 . S
C1151 H1131 0.950 . S
C1151 C1147 1.385 . S
C1151 C1150 1.374 . S
C1152 C1149 1.499 . S
C1152 C1153 1.373 . S
C1152 C1154 1.389 . S
C1153 H1132 0.950 . S
C1153 C1152 1.373 . S
C1153 C1169 1.377 . S
C1154 C1152 1.389 . S
C1154 C1155 1.524 . S
C1154 C1168 1.377 . S
C1155 C1154 1.524 . S
C1155 C1156 1.397 . S
C1155 C1160 1.363 . S
C1156 H1133 0.950 . S
C1156 C1155 1.397 . S
C1156 C1157 1.334 . S
C1157 H1134 0.950 . S
C1157 C1156 1.334 . S
C1157 C1158 1.287 . S
C1158 C1157 1.287 . S
C1158 C1159 1.524 . S
C1158 H1177 0.913 . S
C1159 H1135 0.950 . S
C1159 C1158 1.524 . S
C1159 C1160 1.415 . S
C1160 H1136 0.950 . S
C1160 C1155 1.363 . S
C1160 C1159 1.415 . S
C1161 H1137 0.951 . S
C1161 C1162 1.366 . S
C1161 C1163 1.388 . S
C1162 C1161 1.366 . S
C1162 C1166 1.385 . S
C1163 H1138 0.951 . S
C1163 C1161 1.388 . S
C1163 C1164 1.366 . S
C1164 C1163 1.366 . S
C1164 C1165 1.414 . S
C1164 C1167 1.499 . S
C1165 H1139 0.950 . S
C1165 C1164 1.414 . S
C1165 C1166 1.374 . S
C1166 H1140 0.950 . S
C1166 C1162 1.385 . S
C1166 C1165 1.374 . S
C1167 C1164 1.499 . S
C1167 C1168 1.373 . S
C1167 C1169 1.389 . S
C1168 H1141 0.950 . S
C1168 C1154 1.377 . S
C1168 C1167 1.373 . S
C1169 C1153 1.377 . S
C1169 C1167 1.389 . S
C1169 C1170 1.524 . S
C1170 C1169 1.524 . S
C1170 C1171 1.397 . S
C1170 C1175 1.363 . S
C1171 H1142 0.950 . S
C1171 C1170 1.397 . S
C1171 C1172 1.334 . S
C1172 H1143 0.950 . S
C1172 C1171 1.334 . S
C1172 C1173 1.287 . S
C1173 C1172 1.287 . S
C1173 C1174 1.524 . S
C1173 H1176 0.999 . S
C1174 H1144 0.950 . S
C1174 C1173 1.524 . S
C1174 C1175 1.415 . S
C1175 H1145 0.950 . S
C1175 C1170 1.363 . S
C1175 C1174 1.415 . S
H1176 C1173 0.999 . S
H1177 C1158 0.913 . S
H1178 C1196 0.951 . S
H1179 C1198 0.951 . S
H1180 C1200 0.950 . S
H1181 C1201 0.950 . S
H1182 C1203 0.950 . S
H1183 C1206 0.950 . S
H1184 C1207 0.950 . S
H1185 C1209 0.950 . S
H1186 C1210 0.950 . S
H1187 C1211 0.951 . S
H1188 C1213 0.951 . S
H1189 C1215 0.950 . S
H1190 C1216 0.950 . S
H1191 C1218 0.950 . S
H1192 C1221 0.950 . S
H1193 C1222 0.950 . S
H1194 C1224 0.950 . S
H1195 C1225 0.950 . S
C1196 H1178 0.951 . S
C1196 C1197 1.366 . S
C1196 C1198 1.388 . S
C1197 C1196 1.366 . S
C1197 C1201 1.385 . S
C1198 H1179 0.951 . S
C1198 C1196 1.388 . S
C1198 C1199 1.366 . S
C1199 C1198 1.366 . S
C1199 C1200 1.414 . S
C1199 C1202 1.499 . S
C1200 H1180 0.950 . S
C1200 C1199 1.414 . S
C1200 C1201 1.374 . S
C1201 H1181 0.950 . S
C1201 C1197 1.385 . S
C1201 C1200 1.374 . S
C1202 C1199 1.499 . S
C1202 C1203 1.373 . S
C1202 C1204 1.389 . S
C1203 H1182 0.950 . S
C1203 C1202 1.373 . S
C1203 C1219 1.377 . S
C1204 C1202 1.389 . S
C1204 C1205 1.524 . S
C1204 C1218 1.377 . S
C1205 C1204 1.524 . S
C1205 C1206 1.397 . S
C1205 C1210 1.363 . S
C1206 H1183 0.950 . S
C1206 C1205 1.397 . S
C1206 C1207 1.334 . S
C1207 H1184 0.950 . S
C1207 C1206 1.334 . S
C1207 C1208 1.287 . S
C1208 C1207 1.287 . S
C1208 C1209 1.524 . S
C1208 H1227 0.913 . S
C1209 H1185 0.950 . S
C1209 C1208 1.524 . S
C1209 C1210 1.415 . S
C1210 H1186 0.950 . S
C1210 C1205 1.363 . S
C1210 C1209 1.415 . S
C1211 H1187 0.951 . S
C1211 C1212 1.366 . S
C1211 C1213 1.388 . S
C1212 C1211 1.366 . S
C1212 C1216 1.385 . S
C1213 H1188 0.951 . S
C1213 C1211 1.388 . S
C1213 C1214 1.366 . S
C1214 C1213 1.366 . S
C1214 C1215 1.414 . S
C1214 C1217 1.499 . S
C1215 H1189 0.950 . S
C1215 C1214 1.414 . S
C1215 C1216 1.374 . S
C1216 H1190 0.950 . S
C1216 C1212 1.385 . S
C1216 C1215 1.374 . S
C1217 C1214 1.499 . S
C1217 C1218 1.373 . S
C1217 C1219 1.389 . S
C1218 H1191 0.950 . S
C1218 C1204 1.377 . S
C1218 C1217 1.373 . S
C1219 C1203 1.377 . S
C1219 C1217 1.389 . S
C1219 C1220 1.524 . S
C1220 C1219 1.524 . S
C1220 C1221 1.397 . S
C1220 C1225 1.363 . S
C1221 H1192 0.950 . S
C1221 C1220 1.397 . S
C1221 C1222 1.334 . S
C1222 H1193 0.950 . S
C1222 C1221 1.334 . S
C1222 C1223 1.287 . S
C1223 C1222 1.287 . S
C1223 C1224 1.524 . S
C1223 H1226 0.999 . S
C1224 H1194 0.950 . S
C1224 C1223 1.524 . S
C1224 C1225 1.415 . S
C1225 H1195 0.950 . S
C1225 C1220 1.363 . S
C1225 C1224 1.415 . S
H1226 C1223 0.999 . S
H1227 C1208 0.913 . S
H1228 C1246 0.951 . S
H1229 C1248 0.951 . S
H1230 C1250 0.950 . S
H1231 C1251 0.950 . S
H1232 C1253 0.950 . S
H1233 C1256 0.950 . S
H1234 C1257 0.950 . S
H1235 C1259 0.950 . S
H1236 C1260 0.950 . S
H1237 C1261 0.951 . S
H1238 C1263 0.951 . S
H1239 C1265 0.950 . S
H1240 C1266 0.950 . S
H1241 C1268 0.950 . S
H1242 C1271 0.950 . S
H1243 C1272 0.950 . S
H1244 C1274 0.950 1_455 S
H1245 C1275 0.950 . S
C1246 H1228 0.951 . S
C1246 C1247 1.366 . S
C1246 C1248 1.388 . S
C1247 C1246 1.366 . S
C1247 C1251 1.385 . S
C1248 H1229 0.951 . S
C1248 C1246 1.388 . S
C1248 C1249 1.366 . S
C1249 C1248 1.366 . S
C1249 C1250 1.414 . S
C1249 C1252 1.499 . S
C1250 H1230 0.950 . S
C1250 C1249 1.414 . S
C1250 C1251 1.374 . S
C1251 H1231 0.950 . S
C1251 C1247 1.385 . S
C1251 C1250 1.374 . S
C1252 C1249 1.499 . S
C1252 C1253 1.373 . S
C1252 C1254 1.389 . S
C1253 H1232 0.950 . S
C1253 C1252 1.373 . S
C1253 C1269 1.377 . S
C1254 C1252 1.389 . S
C1254 C1255 1.524 . S
C1254 C1268 1.377 . S
C1255 C1254 1.524 . S
C1255 C1256 1.397 . S
C1255 C1260 1.363 . S
C1256 H1233 0.950 . S
C1256 C1255 1.397 . S
C1256 C1257 1.334 . S
C1257 H1234 0.950 . S
C1257 C1256 1.334 . S
C1257 C1258 1.287 . S
C1258 C1257 1.287 . S
C1258 C1259 1.524 . S
C1258 H1277 0.913 . S
C1259 H1235 0.950 . S
C1259 C1258 1.524 . S
C1259 C1260 1.415 . S
C1260 H1236 0.950 . S
C1260 C1255 1.363 . S
C1260 C1259 1.415 . S
C1261 H1237 0.951 . S
C1261 C1262 1.366 . S
C1261 C1263 1.388 . S
C1262 C1261 1.366 . S
C1262 C1266 1.385 . S
C1263 H1238 0.951 . S
C1263 C1261 1.388 . S
C1263 C1264 1.366 . S
C1264 C1263 1.366 . S
C1264 C1265 1.414 . S
C1264 C1267 1.499 . S
C1265 H1239 0.950 . S
C1265 C1264 1.414 . S
C1265 C1266 1.374 . S
C1266 H1240 0.950 . S
C1266 C1262 1.385 . S
C1266 C1265 1.374 . S
C1267 C1264 1.499 . S
C1267 C1268 1.373 . S
C1267 C1269 1.389 . S
C1268 H1241 0.950 . S
C1268 C1254 1.377 . S
C1268 C1267 1.373 . S
C1269 C1253 1.377 . S
C1269 C1267 1.389 . S
C1269 C1270 1.524 . S
C1270 C1269 1.524 . S
C1270 C1271 1.397 . S
C1270 C1275 1.363 . S
C1271 H1242 0.950 . S
C1271 C1270 1.397 . S
C1271 C1272 1.334 1_655 S
C1272 H1243 0.950 . S
C1272 C1271 1.334 1_455 S
C1272 C1273 1.287 . S
C1273 C1272 1.287 . S
C1273 C1274 1.524 1_455 S
C1273 H1276 0.999 . S
C1274 H1244 0.950 1_655 S
C1274 C1273 1.524 1_655 S
C1274 C1275 1.415 . S
C1275 H1245 0.950 . S
C1275 C1270 1.363 . S
C1275 C1274 1.415 . S
H1276 C1273 0.999 . S
H1277 C1258 0.913 . S
H1278 C1296 0.951 . S
H1279 C1298 0.951 . S
H1280 C1300 0.950 . S
H1281 C1301 0.950 . S
H1282 C1303 0.950 . S
H1283 C1306 0.950 . S
H1284 C1307 0.950 . S
H1285 C1309 0.950 . S
H1286 C1310 0.950 . S
H1287 C1311 0.951 . S
H1288 C1313 0.951 . S
H1289 C1315 0.950 . S
H1290 C1316 0.950 . S
H1291 C1318 0.950 . S
H1292 C1321 0.950 . S
H1293 C1322 0.950 . S
H1294 C1324 0.950 . S
H1295 C1325 0.950 . S
C1296 H1278 0.951 . S
C1296 C1297 1.366 . S
C1296 C1298 1.388 . S
C1297 C1296 1.366 . S
C1297 C1301 1.385 . S
C1298 H1279 0.951 . S
C1298 C1296 1.388 . S
C1298 C1299 1.366 . S
C1299 C1298 1.366 . S
C1299 C1300 1.414 . S
C1299 C1302 1.499 . S
C1300 H1280 0.950 . S
C1300 C1299 1.414 . S
C1300 C1301 1.374 . S
C1301 H1281 0.950 . S
C1301 C1297 1.385 . S
C1301 C1300 1.374 . S
C1302 C1299 1.499 . S
C1302 C1303 1.373 . S
C1302 C1304 1.389 . S
C1303 H1282 0.950 . S
C1303 C1302 1.373 . S
C1303 C1319 1.377 . S
C1304 C1302 1.389 . S
C1304 C1305 1.524 . S
C1304 C1318 1.377 . S
C1305 C1304 1.524 . S
C1305 C1306 1.397 . S
C1305 C1310 1.363 . S
C1306 H1283 0.950 . S
C1306 C1305 1.397 . S
C1306 C1307 1.334 . S
C1307 H1284 0.950 . S
C1307 C1306 1.334 . S
C1307 C1308 1.287 . S
C1308 C1307 1.287 . S
C1308 C1309 1.524 . S
C1308 H1327 0.913 . S
C1309 H1285 0.950 . S
C1309 C1308 1.524 . S
C1309 C1310 1.415 . S
C1310 H1286 0.950 . S
C1310 C1305 1.363 . S
C1310 C1309 1.415 . S
C1311 H1287 0.951 . S
C1311 C1312 1.366 . S
C1311 C1313 1.388 . S
C1312 C1311 1.366 . S
C1312 C1316 1.385 . S
C1313 H1288 0.951 . S
C1313 C1311 1.388 . S
C1313 C1314 1.366 . S
C1314 C1313 1.366 . S
C1314 C1315 1.414 . S
C1314 C1317 1.499 . S
C1315 H1289 0.950 . S
C1315 C1314 1.414 . S
C1315 C1316 1.374 . S
C1316 H1290 0.950 . S
C1316 C1312 1.385 . S
C1316 C1315 1.374 . S
C1317 C1314 1.499 . S
C1317 C1318 1.373 . S
C1317 C1319 1.389 . S
C1318 H1291 0.950 . S
C1318 C1304 1.377 . S
C1318 C1317 1.373 . S
C1319 C1303 1.377 . S
C1319 C1317 1.389 . S
C1319 C1320 1.524 . S
C1320 C1319 1.524 . S
C1320 C1321 1.397 . S
C1320 C1325 1.363 . S
C1321 H1292 0.950 . S
C1321 C1320 1.397 . S
C1321 C1322 1.334 . S
C1322 H1293 0.950 . S
C1322 C1321 1.334 . S
C1322 C1323 1.287 . S
C1323 C1322 1.287 . S
C1323 C1324 1.524 . S
C1323 H1326 0.999 . S
C1324 H1294 0.950 . S
C1324 C1323 1.524 . S
C1324 C1325 1.415 . S
C1325 H1295 0.950 . S
C1325 C1320 1.363 . S
C1325 C1324 1.415 . S
H1326 C1323 0.999 . S
H1327 C1308 0.913 . S
H1328 C1346 0.951 . S
H1329 C1348 0.951 . S
H1330 C1350 0.950 . S
H1331 C1351 0.950 . S
H1332 C1353 0.950 . S
H1333 C1356 0.950 . S
H1334 C1357 0.950 . S
H1335 C1359 0.950 . S
H1336 C1360 0.950 . S
H1337 C1361 0.951 . S
H1338 C1363 0.951 . S
H1339 C1365 0.950 . S
H1340 C1366 0.950 . S
H1341 C1368 0.950 . S
H1342 C1371 0.950 . S
H1343 C1372 0.950 . S
H1344 C1374 0.950 . S
H1345 C1375 0.950 . S
C1346 H1328 0.951 . S
C1346 C1347 1.366 . S
C1346 C1348 1.388 . S
C1347 C1346 1.366 . S
C1347 C1351 1.385 . S
C1348 H1329 0.951 . S
C1348 C1346 1.388 . S
C1348 C1349 1.366 . S
C1349 C1348 1.366 . S
C1349 C1350 1.414 . S
C1349 C1352 1.499 . S
C1350 H1330 0.950 . S
C1350 C1349 1.414 . S
C1350 C1351 1.374 . S
C1351 H1331 0.950 . S
C1351 C1347 1.385 . S
C1351 C1350 1.374 . S
C1352 C1349 1.499 . S
C1352 C1353 1.373 . S
C1352 C1354 1.389 . S
C1353 H1332 0.950 . S
C1353 C1352 1.373 . S
C1353 C1369 1.377 . S
C1354 C1352 1.389 . S
C1354 C1355 1.524 . S
C1354 C1368 1.377 . S
C1355 C1354 1.524 . S
C1355 C1356 1.397 . S
C1355 C1360 1.363 . S
C1356 H1333 0.950 . S
C1356 C1355 1.397 . S
C1356 C1357 1.334 . S
C1357 H1334 0.950 . S
C1357 C1356 1.334 . S
C1357 C1358 1.287 . S
C1358 C1357 1.287 . S
C1358 C1359 1.524 . S
C1358 H1377 0.913 . S
C1359 H1335 0.950 . S
C1359 C1358 1.524 . S
C1359 C1360 1.415 . S
C1360 H1336 0.950 . S
C1360 C1355 1.363 . S
C1360 C1359 1.415 . S
C1361 H1337 0.951 . S
C1361 C1362 1.366 . S
C1361 C1363 1.388 . S
C1362 C1361 1.366 . S
C1362 C1366 1.385 . S
C1363 H1338 0.951 . S
C1363 C1361 1.388 . S
C1363 C1364 1.366 . S
C1364 C1363 1.366 . S
C1364 C1365 1.414 . S
C1364 C1367 1.499 . S
C1365 H1339 0.950 . S
C1365 C1364 1.414 . S
C1365 C1366 1.374 . S
C1366 H1340 0.950 . S
C1366 C1362 1.385 . S
C1366 C1365 1.374 . S
C1367 C1364 1.499 . S
C1367 C1368 1.373 . S
C1367 C1369 1.389 . S
C1368 H1341 0.950 . S
C1368 C1354 1.377 . S
C1368 C1367 1.373 . S
C1369 C1353 1.377 . S
C1369 C1367 1.389 . S
C1369 C1370 1.524 . S
C1370 C1369 1.524 . S
C1370 C1371 1.397 . S
C1370 C1375 1.363 . S
C1371 H1342 0.950 . S
C1371 C1370 1.397 . S
C1371 C1372 1.334 . S
C1372 H1343 0.950 . S
C1372 C1371 1.334 . S
C1372 C1373 1.287 . S
C1373 C1372 1.287 . S
C1373 C1374 1.524 . S
C1373 H1376 0.999 . S
C1374 H1344 0.950 . S
C1374 C1373 1.524 . S
C1374 C1375 1.415 . S
C1375 H1345 0.950 . S
C1375 C1370 1.363 . S
C1375 C1374 1.415 . S
H1376 C1373 0.999 . S
H1377 C1358 0.913 . S
H1378 C1396 0.951 . S
H1379 C1398 0.951 . S
H1380 C1400 0.950 . S
H1381 C1401 0.950 . S
H1382 C1403 0.950 . S
H1383 C1406 0.950 . S
H1384 C1407 0.950 . S
H1385 C1409 0.950 . S
H1386 C1410 0.950 . S
H1387 C1411 0.951 . S
H1388 C1413 0.951 . S
H1389 C1415 0.950 . S
H1390 C1416 0.950 . S
H1391 C1418 0.950 . S
H1392 C1421 0.950 . S
H1393 C1422 0.950 . S
H1394 C1424 0.950 . S
H1395 C1425 0.950 . S
C1396 H1378 0.951 . S
C1396 C1397 1.366 . S
C1396 C1398 1.388 . S
C1397 C1396 1.366 . S
C1397 C1401 1.385 . S
C1398 H1379 0.951 . S
C1398 C1396 1.388 . S
C1398 C1399 1.366 . S
C1399 C1398 1.366 . S
C1399 C1400 1.414 . S
C1399 C1402 1.499 . S
C1400 H1380 0.950 . S
C1400 C1399 1.414 . S
C1400 C1401 1.374 . S
C1401 H1381 0.950 . S
C1401 C1397 1.385 . S
C1401 C1400 1.374 . S
C1402 C1399 1.499 . S
C1402 C1403 1.373 . S
C1402 C1404 1.389 . S
C1403 H1382 0.950 . S
C1403 C1402 1.373 . S
C1403 C1419 1.377 . S
C1404 C1402 1.389 . S
C1404 C1405 1.524 . S
C1404 C1418 1.377 . S
C1405 C1404 1.524 . S
C1405 C1406 1.397 . S
C1405 C1410 1.363 . S
C1406 H1383 0.950 . S
C1406 C1405 1.397 . S
C1406 C1407 1.334 . S
C1407 H1384 0.950 . S
C1407 C1406 1.334 . S
C1407 C1408 1.287 . S
C1408 C1407 1.287 . S
C1408 C1409 1.524 . S
C1408 H1427 0.913 . S
C1409 H1385 0.950 . S
C1409 C1408 1.524 . S
C1409 C1410 1.415 . S
C1410 H1386 0.950 . S
C1410 C1405 1.363 . S
C1410 C1409 1.415 . S
C1411 H1387 0.951 . S
C1411 C1412 1.366 . S
C1411 C1413 1.388 . S
C1412 C1411 1.366 . S
C1412 C1416 1.385 . S
C1413 H1388 0.951 . S
C1413 C1411 1.388 . S
C1413 C1414 1.366 . S
C1414 C1413 1.366 . S
C1414 C1415 1.414 . S
C1414 C1417 1.499 . S
C1415 H1389 0.950 . S
C1415 C1414 1.414 . S
C1415 C1416 1.374 . S
C1416 H1390 0.950 . S
C1416 C1412 1.385 . S
C1416 C1415 1.374 . S
C1417 C1414 1.499 . S
C1417 C1418 1.373 . S
C1417 C1419 1.389 . S
C1418 H1391 0.950 . S
C1418 C1404 1.377 . S
C1418 C1417 1.373 . S
C1419 C1403 1.377 . S
C1419 C1417 1.389 . S
C1419 C1420 1.524 . S
C1420 C1419 1.524 . S
C1420 C1421 1.397 . S
C1420 C1425 1.363 . S
C1421 H1392 0.950 . S
C1421 C1420 1.397 . S
C1421 C1422 1.334 . S
C1422 H1393 0.950 . S
C1422 C1421 1.334 . S
C1422 C1423 1.287 . S
C1423 C1422 1.287 . S
C1423 C1424 1.524 . S
C1423 H1426 0.999 . S
C1424 H1394 0.950 . S
C1424 C1423 1.524 . S
C1424 C1425 1.415 . S
C1425 H1395 0.950 . S
C1425 C1420 1.363 . S
C1425 C1424 1.415 . S
H1426 C1423 0.999 . S
H1427 C1408 0.913 . S
H1428 C1446 0.951 . S
H1429 C1448 0.951 . S
H1430 C1450 0.950 . S
H1431 C1451 0.950 . S
H1432 C1453 0.950 . S
H1433 C1456 0.950 . S
H1434 C1457 0.950 . S
H1435 C1459 0.950 . S
H1436 C1460 0.950 . S
H1437 C1461 0.951 . S
H1438 C1463 0.951 . S
H1439 C1465 0.950 . S
H1440 C1466 0.950 . S
H1441 C1468 0.950 . S
H1442 C1471 0.950 . S
H1443 C1472 0.950 . S
H1444 C1474 0.950 . S
H1445 C1475 0.950 . S
C1446 H1428 0.951 . S
C1446 C1447 1.366 . S
C1446 C1448 1.388 . S
C1447 C1446 1.366 . S
C1447 C1451 1.385 . S
C1448 H1429 0.951 . S
C1448 C1446 1.388 . S
C1448 C1449 1.366 . S
C1449 C1448 1.366 . S
C1449 C1450 1.414 . S
C1449 C1452 1.499 . S
C1450 H1430 0.950 . S
C1450 C1449 1.414 . S
C1450 C1451 1.374 . S
C1451 H1431 0.950 . S
C1451 C1447 1.385 . S
C1451 C1450 1.374 . S
C1452 C1449 1.499 . S
C1452 C1453 1.373 . S
C1452 C1454 1.389 . S
C1453 H1432 0.950 . S
C1453 C1452 1.373 . S
C1453 C1469 1.377 . S
C1454 C1452 1.389 . S
C1454 C1455 1.524 . S
C1454 C1468 1.377 . S
C1455 C1454 1.524 . S
C1455 C1456 1.397 . S
C1455 C1460 1.363 . S
C1456 H1433 0.950 . S
C1456 C1455 1.397 . S
C1456 C1457 1.334 . S
C1457 H1434 0.950 . S
C1457 C1456 1.334 . S
C1457 C1458 1.287 . S
C1458 C1457 1.287 . S
C1458 C1459 1.524 . S
C1458 H1477 0.913 . S
C1459 H1435 0.950 . S
C1459 C1458 1.524 . S
C1459 C1460 1.415 . S
C1460 H1436 0.950 . S
C1460 C1455 1.363 . S
C1460 C1459 1.415 . S
C1461 H1437 0.951 . S
C1461 C1462 1.366 . S
C1461 C1463 1.388 . S
C1462 C1461 1.366 . S
C1462 C1466 1.385 . S
C1463 H1438 0.951 . S
C1463 C1461 1.388 . S
C1463 C1464 1.366 . S
C1464 C1463 1.366 . S
C1464 C1465 1.414 . S
C1464 C1467 1.499 . S
C1465 H1439 0.950 . S
C1465 C1464 1.414 . S
C1465 C1466 1.374 . S
C1466 H1440 0.950 . S
C1466 C1462 1.385 . S
C1466 C1465 1.374 . S
C1467 C1464 1.499 . S
C1467 C1468 1.373 . S
C1467 C1469 1.389 . S
C1468 H1441 0.950 . S
C1468 C1454 1.377 . S
C1468 C1467 1.373 . S
C1469 C1453 1.377 . S
C1469 C1467 1.389 . S
C1469 C1470 1.524 . S
C1470 C1469 1.524 . S
C1470 C1471 1.397 . S
C1470 C1475 1.363 . S
C1471 H1442 0.950 . S
C1471 C1470 1.397 . S
C1471 C1472 1.334 . S
C1472 H1443 0.950 . S
C1472 C1471 1.334 . S
C1472 C1473 1.287 . S
C1473 C1472 1.287 . S
C1473 C1474 1.524 . S
C1473 H1476 0.999 . S
C1474 H1444 0.950 . S
C1474 C1473 1.524 . S
C1474 C1475 1.415 . S
C1475 H1445 0.950 . S
C1475 C1470 1.363 . S
C1475 C1474 1.415 . S
H1476 C1473 0.999 . S
H1477 C1458 0.913 . S
H1478 C1496 0.951 . S
H1479 C1498 0.951 . S
H1480 C1500 0.950 . S
H1481 C1501 0.950 . S
H1482 C1503 0.950 . S
H1483 C1506 0.950 . S
H1484 C1507 0.950 . S
H1485 C1509 0.950 . S
H1486 C1510 0.950 . S
H1487 C1511 0.951 . S
H1488 C1513 0.951 . S
H1489 C1515 0.950 . S
H1490 C1516 0.950 . S
H1491 C1518 0.950 . S
H1492 C1521 0.950 . S
H1493 C1522 0.950 . S
H1494 C1524 0.950 . S
H1495 C1525 0.950 . S
C1496 H1478 0.951 . S
C1496 C1497 1.366 . S
C1496 C1498 1.388 . S
C1497 C1496 1.366 . S
C1497 C1501 1.385 . S
C1498 H1479 0.951 . S
C1498 C1496 1.388 . S
C1498 C1499 1.366 . S
C1499 C1498 1.366 . S
C1499 C1500 1.414 . S
C1499 C1502 1.499 . S
C1500 H1480 0.950 . S
C1500 C1499 1.414 . S
C1500 C1501 1.374 . S
C1501 H1481 0.950 . S
C1501 C1497 1.385 . S
C1501 C1500 1.374 . S
C1502 C1499 1.499 . S
C1502 C1503 1.373 . S
C1502 C1504 1.389 . S
C1503 H1482 0.950 . S
C1503 C1502 1.373 . S
C1503 C1519 1.377 . S
C1504 C1502 1.389 . S
C1504 C1505 1.524 . S
C1504 C1518 1.377 . S
C1505 C1504 1.524 . S
C1505 C1506 1.397 . S
C1505 C1510 1.363 . S
C1506 H1483 0.950 . S
C1506 C1505 1.397 . S
C1506 C1507 1.334 . S
C1507 H1484 0.950 . S
C1507 C1506 1.334 . S
C1507 C1508 1.287 . S
C1508 C1507 1.287 . S
C1508 C1509 1.524 . S
C1508 H1527 0.913 . S
C1509 H1485 0.950 . S
C1509 C1508 1.524 . S
C1509 C1510 1.415 . S
C1510 H1486 0.950 . S
C1510 C1505 1.363 . S
C1510 C1509 1.415 . S
C1511 H1487 0.951 . S
C1511 C1512 1.366 . S
C1511 C1513 1.388 . S
C1512 C1511 1.366 . S
C1512 C1516 1.385 . S
C1513 H1488 0.951 . S
C1513 C1511 1.388 . S
C1513 C1514 1.366 . S
C1514 C1513 1.366 . S
C1514 C1515 1.414 . S
C1514 C1517 1.499 . S
C1515 H1489 0.950 . S
C1515 C1514 1.414 . S
C1515 C1516 1.374 . S
C1516 H1490 0.950 . S
C1516 C1512 1.385 . S
C1516 C1515 1.374 . S
C1517 C1514 1.499 . S
C1517 C1518 1.373 . S
C1517 C1519 1.389 . S
C1518 H1491 0.950 . S
C1518 C1504 1.377 . S
C1518 C1517 1.373 . S
C1519 C1503 1.377 . S
C1519 C1517 1.389 . S
C1519 C1520 1.524 . S
C1520 C1519 1.524 . S
C1520 C1521 1.397 . S
C1520 C1525 1.363 . S
C1521 H1492 0.950 . S
C1521 C1520 1.397 . S
C1521 C1522 1.334 . S
C1522 H1493 0.950 . S
C1522 C1521 1.334 . S
C1522 C1523 1.287 . S
C1523 C1522 1.287 . S
C1523 C1524 1.524 . S
C1523 H1526 0.999 . S
C1524 H1494 0.950 . S
C1524 C1523 1.524 . S
C1524 C1525 1.415 . S
C1525 H1495 0.950 . S
C1525 C1520 1.363 . S
C1525 C1524 1.415 . S
H1526 C1523 0.999 . S
H1527 C1508 0.913 . S
H1528 C1546 0.951 . S
H1529 C1548 0.951 . S
H1530 C1550 0.950 . S
H1531 C1551 0.950 . S
H1532 C1553 0.950 . S
H1533 C1556 0.950 . S
H1534 C1557 0.950 . S
H1535 C1559 0.950 . S
H1536 C1560 0.950 . S
H1537 C1561 0.951 . S
H1538 C1563 0.951 . S
H1539 C1565 0.950 . S
H1540 C1566 0.950 . S
H1541 C1568 0.950 . S
H1542 C1571 0.950 . S
H1543 C1572 0.950 . S
H1544 C1574 0.950 . S
H1545 C1575 0.950 . S
C1546 H1528 0.951 . S
C1546 C1547 1.366 . S
C1546 C1548 1.388 . S
C1547 C1546 1.366 . S
C1547 C1551 1.385 . S
C1548 H1529 0.951 . S
C1548 C1546 1.388 . S
C1548 C1549 1.366 . S
C1549 C1548 1.366 . S
C1549 C1550 1.414 . S
C1549 C1552 1.499 . S
C1550 H1530 0.950 . S
C1550 C1549 1.414 . S
C1550 C1551 1.374 . S
C1551 H1531 0.950 . S
C1551 C1547 1.385 . S
C1551 C1550 1.374 . S
C1552 C1549 1.499 . S
C1552 C1553 1.373 . S
C1552 C1554 1.389 . S
C1553 H1532 0.950 . S
C1553 C1552 1.373 . S
C1553 C1569 1.377 . S
C1554 C1552 1.389 . S
C1554 C1555 1.524 . S
C1554 C1568 1.377 . S
C1555 C1554 1.524 . S
C1555 C1556 1.397 . S
C1555 C1560 1.363 . S
C1556 H1533 0.950 . S
C1556 C1555 1.397 . S
C1556 C1557 1.334 . S
C1557 H1534 0.950 . S
C1557 C1556 1.334 . S
C1557 C1558 1.287 . S
C1558 C1557 1.287 . S
C1558 C1559 1.524 . S
C1558 H1577 0.913 . S
C1559 H1535 0.950 . S
C1559 C1558 1.524 . S
C1559 C1560 1.415 . S
C1560 H1536 0.950 . S
C1560 C1555 1.363 . S
C1560 C1559 1.415 . S
C1561 H1537 0.951 . S
C1561 C1562 1.366 . S
C1561 C1563 1.388 . S
C1562 C1561 1.366 . S
C1562 C1566 1.385 . S
C1563 H1538 0.951 . S
C1563 C1561 1.388 . S
C1563 C1564 1.366 . S
C1564 C1563 1.366 . S
C1564 C1565 1.414 . S
C1564 C1567 1.499 . S
C1565 H1539 0.950 . S
C1565 C1564 1.414 . S
C1565 C1566 1.374 . S
C1566 H1540 0.950 . S
C1566 C1562 1.385 . S
C1566 C1565 1.374 . S
C1567 C1564 1.499 . S
C1567 C1568 1.373 . S
C1567 C1569 1.389 . S
C1568 H1541 0.950 . S
C1568 C1554 1.377 . S
C1568 C1567 1.373 . S
C1569 C1553 1.377 . S
C1569 C1567 1.389 . S
C1569 C1570 1.524 . S
C1570 C1569 1.524 . S
C1570 C1571 1.397 . S
C1570 C1575 1.363 . S
C1571 H1542 0.950 . S
C1571 C1570 1.397 . S
C1571 C1572 1.334 . S
C1572 H1543 0.950 . S
C1572 C1571 1.334 . S
C1572 C1573 1.287 . S
C1573 C1572 1.287 . S
C1573 C1574 1.524 . S
C1573 H1576 0.999 . S
C1574 H1544 0.950 . S
C1574 C1573 1.524 . S
C1574 C1575 1.415 . S
C1575 H1545 0.950 . S
C1575 C1570 1.363 . S
C1575 C1574 1.415 . S
H1576 C1573 0.999 . S
H1577 C1558 0.913 . S
H1578 C1596 0.951 . S
H1579 C1598 0.951 . S
H1580 C1600 0.950 . S
H1581 C1601 0.950 . S
H1582 C1603 0.950 . S
H1583 C1606 0.950 . S
H1584 C1607 0.950 . S
H1585 C1609 0.950 . S
H1586 C1610 0.950 . S
H1587 C1611 0.951 . S
H1588 C1613 0.951 . S
H1589 C1615 0.950 . S
H1590 C1616 0.950 . S
H1591 C1618 0.950 . S
H1592 C1621 0.950 . S
H1593 C1622 0.950 . S
H1594 C1624 0.950 . S
H1595 C1625 0.950 . S
C1596 H1578 0.951 . S
C1596 C1597 1.366 . S
C1596 C1598 1.388 . S
C1597 C1596 1.366 . S
C1597 C1601 1.385 . S
C1598 H1579 0.951 . S
C1598 C1596 1.388 . S
C1598 C1599 1.366 . S
C1599 C1598 1.366 . S
C1599 C1600 1.414 . S
C1599 C1602 1.499 . S
C1600 H1580 0.950 . S
C1600 C1599 1.414 . S
C1600 C1601 1.374 . S
C1601 H1581 0.950 . S
C1601 C1597 1.385 . S
C1601 C1600 1.374 . S
C1602 C1599 1.499 . S
C1602 C1603 1.373 . S
C1602 C1604 1.389 . S
C1603 H1582 0.950 . S
C1603 C1602 1.373 . S
C1603 C1619 1.377 . S
C1604 C1602 1.389 . S
C1604 C1605 1.524 . S
C1604 C1618 1.377 . S
C1605 C1604 1.524 . S
C1605 C1606 1.397 . S
C1605 C1610 1.363 . S
C1606 H1583 0.950 . S
C1606 C1605 1.397 . S
C1606 C1607 1.334 . S
C1607 H1584 0.950 . S
C1607 C1606 1.334 . S
C1607 C1608 1.287 . S
C1608 C1607 1.287 . S
C1608 C1609 1.524 . S
C1608 H1627 0.913 . S
C1609 H1585 0.950 . S
C1609 C1608 1.524 . S
C1609 C1610 1.415 . S
C1610 H1586 0.950 . S
C1610 C1605 1.363 . S
C1610 C1609 1.415 . S
C1611 H1587 0.951 . S
C1611 C1612 1.366 . S
C1611 C1613 1.388 . S
C1612 C1611 1.366 . S
C1612 C1616 1.385 . S
C1613 H1588 0.951 . S
C1613 C1611 1.388 . S
C1613 C1614 1.366 . S
C1614 C1613 1.366 . S
C1614 C1615 1.414 . S
C1614 C1617 1.499 . S
C1615 H1589 0.950 . S
C1615 C1614 1.414 . S
C1615 C1616 1.374 . S
C1616 H1590 0.950 . S
C1616 C1612 1.385 . S
C1616 C1615 1.374 . S
C1617 C1614 1.499 . S
C1617 C1618 1.373 . S
C1617 C1619 1.389 . S
C1618 H1591 0.950 . S
C1618 C1604 1.377 . S
C1618 C1617 1.373 . S
C1619 C1603 1.377 . S
C1619 C1617 1.389 . S
C1619 C1620 1.524 . S
C1620 C1619 1.524 . S
C1620 C1621 1.397 . S
C1620 C1625 1.363 . S
C1621 H1592 0.950 . S
C1621 C1620 1.397 . S
C1621 C1622 1.334 . S
C1622 H1593 0.950 . S
C1622 C1621 1.334 . S
C1622 C1623 1.287 . S
C1623 C1622 1.287 . S
C1623 C1624 1.524 . S
C1623 H1626 0.999 . S
C1624 H1594 0.950 . S
C1624 C1623 1.524 . S
C1624 C1625 1.415 . S
C1625 H1595 0.950 . S
C1625 C1620 1.363 . S
C1625 C1624 1.415 . S
H1626 C1623 0.999 . S
H1627 C1608 0.913 . S
H1628 C1646 0.951 . S
H1629 C1648 0.951 . S
H1630 C1650 0.950 . S
H1631 C1651 0.950 . S
H1632 C1653 0.950 . S
H1633 C1656 0.950 . S
H1634 C1657 0.950 . S
H1635 C1659 0.950 . S
H1636 C1660 0.950 . S
H1637 C1661 0.951 . S
H1638 C1663 0.951 . S
H1639 C1665 0.950 . S
H1640 C1666 0.950 . S
H1641 C1668 0.950 . S
H1642 C1671 0.950 . S
H1643 C1672 0.950 . S
H1644 C1674 0.950 . S
H1645 C1675 0.950 . S
C1646 H1628 0.951 . S
C1646 C1647 1.366 . S
C1646 C1648 1.388 . S
C1647 C1646 1.366 . S
C1647 C1651 1.385 . S
C1648 H1629 0.951 . S
C1648 C1646 1.388 . S
C1648 C1649 1.366 . S
C1649 C1648 1.366 . S
C1649 C1650 1.414 . S
C1649 C1652 1.499 . S
C1650 H1630 0.950 . S
C1650 C1649 1.414 . S
C1650 C1651 1.374 . S
C1651 H1631 0.950 . S
C1651 C1647 1.385 . S
C1651 C1650 1.374 . S
C1652 C1649 1.499 . S
C1652 C1653 1.373 . S
C1652 C1654 1.389 . S
C1653 H1632 0.950 . S
C1653 C1652 1.373 . S
C1653 C1669 1.377 . S
C1654 C1652 1.389 . S
C1654 C1655 1.524 . S
C1654 C1668 1.377 . S
C1655 C1654 1.524 . S
C1655 C1656 1.397 . S
C1655 C1660 1.363 . S
C1656 H1633 0.950 . S
C1656 C1655 1.397 . S
C1656 C1657 1.334 . S
C1657 H1634 0.950 . S
C1657 C1656 1.334 . S
C1657 C1658 1.287 . S
C1658 C1657 1.287 . S
C1658 C1659 1.524 . S
C1658 H1677 0.913 . S
C1659 H1635 0.950 . S
C1659 C1658 1.524 . S
C1659 C1660 1.415 . S
C1660 H1636 0.950 . S
C1660 C1655 1.363 . S
C1660 C1659 1.415 . S
C1661 H1637 0.951 . S
C1661 C1662 1.366 . S
C1661 C1663 1.388 . S
C1662 C1661 1.366 . S
C1662 C1666 1.385 . S
C1663 H1638 0.951 . S
C1663 C1661 1.388 . S
C1663 C1664 1.366 . S
C1664 C1663 1.366 . S
C1664 C1665 1.414 . S
C1664 C1667 1.499 . S
C1665 H1639 0.950 . S
C1665 C1664 1.414 . S
C1665 C1666 1.374 . S
C1666 H1640 0.950 . S
C1666 C1662 1.385 . S
C1666 C1665 1.374 . S
C1667 C1664 1.499 . S
C1667 C1668 1.373 . S
C1667 C1669 1.389 . S
C1668 H1641 0.950 . S
C1668 C1654 1.377 . S
C1668 C1667 1.373 . S
C1669 C1653 1.377 . S
C1669 C1667 1.389 . S
C1669 C1670 1.524 . S
C1670 C1669 1.524 . S
C1670 C1671 1.397 . S
C1670 C1675 1.363 . S
C1671 H1642 0.950 . S
C1671 C1670 1.397 . S
C1671 C1672 1.334 . S
C1672 H1643 0.950 . S
C1672 C1671 1.334 . S
C1672 C1673 1.287 . S
C1673 C1672 1.287 . S
C1673 C1674 1.524 . S
C1673 H1676 0.999 . S
C1674 H1644 0.950 . S
C1674 C1673 1.524 . S
C1674 C1675 1.415 . S
C1675 H1645 0.950 . S
C1675 C1670 1.363 . S
C1675 C1674 1.415 . S
H1676 C1673 0.999 . S
H1677 C1658 0.913 . S
H1678 C1696 0.951 . S
H1679 C1698 0.951 . S
H1680 C1700 0.950 . S
H1681 C1701 0.950 . S
H1682 C1703 0.950 . S
H1683 C1706 0.950 . S
H1684 C1707 0.950 . S
H1685 C1709 0.950 . S
H1686 C1710 0.950 . S
H1687 C1711 0.951 . S
H1688 C1713 0.951 . S
H1689 C1715 0.950 . S
H1690 C1716 0.950 . S
H1691 C1718 0.950 . S
H1692 C1721 0.950 . S
H1693 C1722 0.950 . S
H1694 C1724 0.950 . S
H1695 C1725 0.950 . S
C1696 H1678 0.951 . S
C1696 C1697 1.366 . S
C1696 C1698 1.388 . S
C1697 C1696 1.366 . S
C1697 C1701 1.385 . S
C1698 H1679 0.951 . S
C1698 C1696 1.388 . S
C1698 C1699 1.366 . S
C1699 C1698 1.366 . S
C1699 C1700 1.414 . S
C1699 C1702 1.499 . S
C1700 H1680 0.950 . S
C1700 C1699 1.414 . S
C1700 C1701 1.374 . S
C1701 H1681 0.950 . S
C1701 C1697 1.385 . S
C1701 C1700 1.374 . S
C1702 C1699 1.499 . S
C1702 C1703 1.373 . S
C1702 C1704 1.389 . S
C1703 H1682 0.950 . S
C1703 C1702 1.373 . S
C1703 C1719 1.377 . S
C1704 C1702 1.389 . S
C1704 C1705 1.524 . S
C1704 C1718 1.377 . S
C1705 C1704 1.524 . S
C1705 C1706 1.397 . S
C1705 C1710 1.363 . S
C1706 H1683 0.950 . S
C1706 C1705 1.397 . S
C1706 C1707 1.334 . S
C1707 H1684 0.950 . S
C1707 C1706 1.334 . S
C1707 C1708 1.287 . S
C1708 C1707 1.287 . S
C1708 C1709 1.524 . S
C1708 H1727 0.913 . S
C1709 H1685 0.950 . S
C1709 C1708 1.524 . S
C1709 C1710 1.415 . S
C1710 H1686 0.950 . S
C1710 C1705 1.363 . S
C1710 C1709 1.415 . S
C1711 H1687 0.951 . S
C1711 C1712 1.366 . S
C1711 C1713 1.388 . S
C1712 C1711 1.366 . S
C1712 C1716 1.385 . S
C1713 H1688 0.951 . S
C1713 C1711 1.388 . S
C1713 C1714 1.366 . S
C1714 C1713 1.366 . S
C1714 C1715 1.414 . S
C1714 C1717 1.499 . S
C1715 H1689 0.950 . S
C1715 C1714 1.414 . S
C1715 C1716 1.374 . S
C1716 H1690 0.950 . S
C1716 C1712 1.385 . S
C1716 C1715 1.374 . S
C1717 C1714 1.499 . S
C1717 C1718 1.373 . S
C1717 C1719 1.389 . S
C1718 H1691 0.950 . S
C1718 C1704 1.377 . S
C1718 C1717 1.373 . S
C1719 C1703 1.377 . S
C1719 C1717 1.389 . S
C1719 C1720 1.524 . S
C1720 C1719 1.524 . S
C1720 C1721 1.397 . S
C1720 C1725 1.363 . S
C1721 H1692 0.950 . S
C1721 C1720 1.397 . S
C1721 C1722 1.334 . S
C1722 H1693 0.950 . S
C1722 C1721 1.334 . S
C1722 C1723 1.287 . S
C1723 C1722 1.287 . S
C1723 C1724 1.524 . S
C1723 H1726 0.999 . S
C1724 H1694 0.950 . S
C1724 C1723 1.524 . S
C1724 C1725 1.415 . S
C1725 H1695 0.950 . S
C1725 C1720 1.363 . S
C1725 C1724 1.415 . S
H1726 C1723 0.999 . S
H1727 C1708 0.913 . S
H1728 C1746 0.951 . S
H1729 C1748 0.951 . S
H1730 C1750 0.950 . S
H1731 C1751 0.950 . S
H1732 C1753 0.950 . S
H1733 C1756 0.950 . S
H1734 C1757 0.950 . S
H1735 C1759 0.950 . S
H1736 C1760 0.950 . S
H1737 C1761 0.951 . S
H1738 C1763 0.951 . S
H1739 C1765 0.950 . S
H1740 C1766 0.950 . S
H1741 C1768 0.950 . S
H1742 C1771 0.950 . S
H1743 C1772 0.950 . S
H1744 C1774 0.950 . S
H1745 C1775 0.950 . S
C1746 H1728 0.951 . S
C1746 C1747 1.366 . S
C1746 C1748 1.388 . S
C1747 C1746 1.366 . S
C1747 C1751 1.385 . S
C1748 H1729 0.951 . S
C1748 C1746 1.388 . S
C1748 C1749 1.366 . S
C1749 C1748 1.366 . S
C1749 C1750 1.414 . S
C1749 C1752 1.499 . S
C1750 H1730 0.950 . S
C1750 C1749 1.414 . S
C1750 C1751 1.374 . S
C1751 H1731 0.950 . S
C1751 C1747 1.385 . S
C1751 C1750 1.374 . S
C1752 C1749 1.499 . S
C1752 C1753 1.373 . S
C1752 C1754 1.389 . S
C1753 H1732 0.950 . S
C1753 C1752 1.373 . S
C1753 C1769 1.377 . S
C1754 C1752 1.389 . S
C1754 C1755 1.524 . S
C1754 C1768 1.377 . S
C1755 C1754 1.524 . S
C1755 C1756 1.397 . S
C1755 C1760 1.363 . S
C1756 H1733 0.950 . S
C1756 C1755 1.397 . S
C1756 C1757 1.334 . S
C1757 H1734 0.950 . S
C1757 C1756 1.334 . S
C1757 C1758 1.287 . S
C1758 C1757 1.287 . S
C1758 C1759 1.524 . S
C1758 H1777 0.913 . S
C1759 H1735 0.950 . S
C1759 C1758 1.524 . S
C1759 C1760 1.415 . S
C1760 H1736 0.950 . S
C1760 C1755 1.363 . S
C1760 C1759 1.415 . S
C1761 H1737 0.951 . S
C1761 C1762 1.366 . S
C1761 C1763 1.388 . S
C1762 C1761 1.366 . S
C1762 C1766 1.385 . S
C1763 H1738 0.951 . S
C1763 C1761 1.388 . S
C1763 C1764 1.366 . S
C1764 C1763 1.366 . S
C1764 C1765 1.414 . S
C1764 C1767 1.499 . S
C1765 H1739 0.950 . S
C1765 C1764 1.414 . S
C1765 C1766 1.374 . S
C1766 H1740 0.950 . S
C1766 C1762 1.385 . S
C1766 C1765 1.374 . S
C1767 C1764 1.499 . S
C1767 C1768 1.373 . S
C1767 C1769 1.389 . S
C1768 H1741 0.950 . S
C1768 C1754 1.377 . S
C1768 C1767 1.373 . S
C1769 C1753 1.377 . S
C1769 C1767 1.389 . S
C1769 C1770 1.524 . S
C1770 C1769 1.524 . S
C1770 C1771 1.397 . S
C1770 C1775 1.363 . S
C1771 H1742 0.950 . S
C1771 C1770 1.397 . S
C1771 C1772 1.334 . S
C1772 H1743 0.950 . S
C1772 C1771 1.334 . S
C1772 C1773 1.287 . S
C1773 C1772 1.287 . S
C1773 C1774 1.524 . S
C1773 H1776 0.999 . S
C1774 H1744 0.950 . S
C1774 C1773 1.524 . S
C1774 C1775 1.415 . S
C1775 H1745 0.950 . S
C1775 C1770 1.363 . S
C1775 C1774 1.415 . S
H1776 C1773 0.999 . S
H1777 C1758 0.913 . S
H1778 C1796 0.951 . S
H1779 C1798 0.951 . S
H1780 C1800 0.950 . S
H1781 C1801 0.950 . S
H1782 C1803 0.950 . S
H1783 C1806 0.950 . S
H1784 C1807 0.950 . S
H1785 C1809 0.950 . S
H1786 C1810 0.950 . S
H1787 C1811 0.951 . S
H1788 C1813 0.951 . S
H1789 C1815 0.950 . S
H1790 C1816 0.950 . S
H1791 C1818 0.950 . S
H1792 C1821 0.950 . S
H1793 C1822 0.950 . S
H1794 C1824 0.950 . S
H1795 C1825 0.950 . S
C1796 H1778 0.951 . S
C1796 C1797 1.366 . S
C1796 C1798 1.388 . S
C1797 C1796 1.366 . S
C1797 C1801 1.385 . S
C1798 H1779 0.951 . S
C1798 C1796 1.388 . S
C1798 C1799 1.366 . S
C1799 C1798 1.366 . S
C1799 C1800 1.414 . S
C1799 C1802 1.499 . S
C1800 H1780 0.950 . S
C1800 C1799 1.414 . S
C1800 C1801 1.374 . S
C1801 H1781 0.950 . S
C1801 C1797 1.385 . S
C1801 C1800 1.374 . S
C1802 C1799 1.499 . S
C1802 C1803 1.373 . S
C1802 C1804 1.389 . S
C1803 H1782 0.950 . S
C1803 C1802 1.373 . S
C1803 C1819 1.377 . S
C1804 C1802 1.389 . S
C1804 C1805 1.524 . S
C1804 C1818 1.377 . S
C1805 C1804 1.524 . S
C1805 C1806 1.397 . S
C1805 C1810 1.363 . S
C1806 H1783 0.950 . S
C1806 C1805 1.397 . S
C1806 C1807 1.334 . S
C1807 H1784 0.950 . S
C1807 C1806 1.334 . S
C1807 C1808 1.287 . S
C1808 C1807 1.287 . S
C1808 C1809 1.524 . S
C1808 H1827 0.913 . S
C1809 H1785 0.950 . S
C1809 C1808 1.524 . S
C1809 C1810 1.415 . S
C1810 H1786 0.950 . S
C1810 C1805 1.363 . S
C1810 C1809 1.415 . S
C1811 H1787 0.951 . S
C1811 C1812 1.366 . S
C1811 C1813 1.388 . S
C1812 C1811 1.366 . S
C1812 C1816 1.385 . S
C1813 H1788 0.951 . S
C1813 C1811 1.388 . S
C1813 C1814 1.366 . S
C1814 C1813 1.366 . S
C1814 C1815 1.414 . S
C1814 C1817 1.499 . S
C1815 H1789 0.950 . S
C1815 C1814 1.414 . S
C1815 C1816 1.374 . S
C1816 H1790 0.950 . S
C1816 C1812 1.385 . S
C1816 C1815 1.374 . S
C1817 C1814 1.499 . S
C1817 C1818 1.373 . S
C1817 C1819 1.389 . S
C1818 H1791 0.950 . S
C1818 C1804 1.377 . S
C1818 C1817 1.373 . S
C1819 C1803 1.377 . S
C1819 C1817 1.389 . S
C1819 C1820 1.524 . S
C1820 C1819 1.524 . S
C1820 C1821 1.397 . S
C1820 C1825 1.363 . S
C1821 H1792 0.950 . S
C1821 C1820 1.397 . S
C1821 C1822 1.334 . S
C1822 H1793 0.950 . S
C1822 C1821 1.334 . S
C1822 C1823 1.287 . S
C1823 C1822 1.287 . S
C1823 C1824 1.524 . S
C1823 H1826 0.999 . S
C1824 H1794 0.950 . S
C1824 C1823 1.524 . S
C1824 C1825 1.415 . S
C1825 H1795 0.950 . S
C1825 C1820 1.363 . S
C1825 C1824 1.415 . S
H1826 C1823 0.999 . S
H1827 C1808 0.913 . S
H1828 C1846 0.951 . S
H1829 C1848 0.951 . S
H1830 C1850 0.950 . S
H1831 C1851 0.950 . S
H1832 C1853 0.950 . S
H1833 C1856 0.950 . S
H1834 C1857 0.950 . S
H1835 C1859 0.950 . S
H1836 C1860 0.950 . S
H1837 C1861 0.951 . S
H1838 C1863 0.951 . S
H1839 C1865 0.950 . S
H1840 C1866 0.950 . S
H1841 C1868 0.950 . S
H1842 C1871 0.950 . S
H1843 C1872 0.950 . S
H1844 C1874 0.950 . S
H1845 C1875 0.950 . S
C1846 H1828 0.951 . S
C1846 C1847 1.366 . S
C1846 C1848 1.388 . S
C1847 C1846 1.366 . S
C1847 C1851 1.385 . S
C1848 H1829 0.951 . S
C1848 C1846 1.388 . S
C1848 C1849 1.366 . S
C1849 C1848 1.366 . S
C1849 C1850 1.414 . S
C1849 C1852 1.499 . S
C1850 H1830 0.950 . S
C1850 C1849 1.414 . S
C1850 C1851 1.374 . S
C1851 H1831 0.950 . S
C1851 C1847 1.385 . S
C1851 C1850 1.374 . S
C1852 C1849 1.499 . S
C1852 C1853 1.373 . S
C1852 C1854 1.389 . S
C1853 H1832 0.950 . S
C1853 C1852 1.373 . S
C1853 C1869 1.377 . S
C1854 C1852 1.389 . S
C1854 C1855 1.524 . S
C1854 C1868 1.377 . S
C1855 C1854 1.524 . S
C1855 C1856 1.397 . S
C1855 C1860 1.363 . S
C1856 H1833 0.950 . S
C1856 C1855 1.397 . S
C1856 C1857 1.334 . S
C1857 H1834 0.950 . S
C1857 C1856 1.334 . S
C1857 C1858 1.287 . S
C1858 C1857 1.287 . S
C1858 C1859 1.524 . S
C1858 H1877 0.913 . S
C1859 H1835 0.950 . S
C1859 C1858 1.524 . S
C1859 C1860 1.415 . S
C1860 H1836 0.950 . S
C1860 C1855 1.363 . S
C1860 C1859 1.415 . S
C1861 H1837 0.951 . S
C1861 C1862 1.366 . S
C1861 C1863 1.388 . S
C1862 C1861 1.366 . S
C1862 C1866 1.385 . S
C1863 H1838 0.951 . S
C1863 C1861 1.388 . S
C1863 C1864 1.366 . S
C1864 C1863 1.366 . S
C1864 C1865 1.414 . S
C1864 C1867 1.499 . S
C1865 H1839 0.950 . S
C1865 C1864 1.414 . S
C1865 C1866 1.374 . S
C1866 H1840 0.950 . S
C1866 C1862 1.385 . S
C1866 C1865 1.374 . S
C1867 C1864 1.499 . S
C1867 C1868 1.373 . S
C1867 C1869 1.389 . S
C1868 H1841 0.950 . S
C1868 C1854 1.377 . S
C1868 C1867 1.373 . S
C1869 C1853 1.377 . S
C1869 C1867 1.389 . S
C1869 C1870 1.524 . S
C1870 C1869 1.524 . S
C1870 C1871 1.397 . S
C1870 C1875 1.363 . S
C1871 H1842 0.950 . S
C1871 C1870 1.397 . S
C1871 C1872 1.334 . S
C1872 H1843 0.950 . S
C1872 C1871 1.334 . S
C1872 C1873 1.287 . S
C1873 C1872 1.287 . S
C1873 C1874 1.524 . S
C1873 H1876 0.999 . S
C1874 H1844 0.950 . S
C1874 C1873 1.524 . S
C1874 C1875 1.415 . S
C1875 H1845 0.950 . S
C1875 C1870 1.363 . S
C1875 C1874 1.415 . S
H1876 C1873 0.999 . S
H1877 C1858 0.913 . S
H1878 C1896 0.951 . S
H1879 C1898 0.951 . S
H1880 C1900 0.950 . S
H1881 C1901 0.950 . S
H1882 C1903 0.950 . S
H1883 C1906 0.950 . S
H1884 C1907 0.950 . S
H1885 C1909 0.950 . S
H1886 C1910 0.950 . S
H1887 C1911 0.951 . S
H1888 C1913 0.951 . S
H1889 C1915 0.950 . S
H1890 C1916 0.950 . S
H1891 C1918 0.950 . S
H1892 C1921 0.950 . S
H1893 C1922 0.950 . S
H1894 C1924 0.950 . S
H1895 C1925 0.950 . S
C1896 H1878 0.951 . S
C1896 C1897 1.366 . S
C1896 C1898 1.388 . S
C1897 C1896 1.366 . S
C1897 C1901 1.385 . S
C1898 H1879 0.951 . S
C1898 C1896 1.388 . S
C1898 C1899 1.366 . S
C1899 C1898 1.366 . S
C1899 C1900 1.414 . S
C1899 C1902 1.499 . S
C1900 H1880 0.950 . S
C1900 C1899 1.414 . S
C1900 C1901 1.374 . S
C1901 H1881 0.950 . S
C1901 C1897 1.385 . S
C1901 C1900 1.374 . S
C1902 C1899 1.499 . S
C1902 C1903 1.373 . S
C1902 C1904 1.389 . S
C1903 H1882 0.950 . S
C1903 C1902 1.373 . S
C1903 C1919 1.377 . S
C1904 C1902 1.389 . S
C1904 C1905 1.524 . S
C1904 C1918 1.377 . S
C1905 C1904 1.524 . S
C1905 C1906 1.397 . S
C1905 C1910 1.363 . S
C1906 H1883 0.950 . S
C1906 C1905 1.397 . S
C1906 C1907 1.334 . S
C1907 H1884 0.950 . S
C1907 C1906 1.334 . S
C1907 C1908 1.287 . S
C1908 C1907 1.287 . S
C1908 C1909 1.524 . S
C1908 H1927 0.913 . S
C1909 H1885 0.950 . S
C1909 C1908 1.524 . S
C1909 C1910 1.415 . S
C1910 H1886 0.950 . S
C1910 C1905 1.363 . S
C1910 C1909 1.415 . S
C1911 H1887 0.951 . S
C1911 C1912 1.366 . S
C1911 C1913 1.388 . S
C1912 C1911 1.366 . S
C1912 C1916 1.385 . S
C1913 H1888 0.951 . S
C1913 C1911 1.388 . S
C1913 C1914 1.366 . S
C1914 C1913 1.366 . S
C1914 C1915 1.414 . S
C1914 C1917 1.499 . S
C1915 H1889 0.950 . S
C1915 C1914 1.414 . S
C1915 C1916 1.374 . S
C1916 H1890 0.950 . S
C1916 C1912 1.385 . S
C1916 C1915 1.374 . S
C1917 C1914 1.499 . S
C1917 C1918 1.373 . S
C1917 C1919 1.389 . S
C1918 H1891 0.950 . S
C1918 C1904 1.377 . S
C1918 C1917 1.373 . S
C1919 C1903 1.377 . S
C1919 C1917 1.389 . S
C1919 C1920 1.524 . S
C1920 C1919 1.524 . S
C1920 C1921 1.397 . S
C1920 C1925 1.363 . S
C1921 H1892 0.950 . S
C1921 C1920 1.397 . S
C1921 C1922 1.334 . S
C1922 H1893 0.950 . S
C1922 C1921 1.334 . S
C1922 C1923 1.287 . S
C1923 C1922 1.287 . S
C1923 C1924 1.524 . S
C1923 H1926 0.999 . S
C1924 H1894 0.950 . S
C1924 C1923 1.524 . S
C1924 C1925 1.415 . S
C1925 H1895 0.950 . S
C1925 C1920 1.363 . S
C1925 C1924 1.415 . S
H1926 C1923 0.999 . S
H1927 C1908 0.913 . S
H1928 C1946 0.951 . S
H1929 C1948 0.951 . S
H1930 C1950 0.950 . S
H1931 C1951 0.950 . S
H1932 C1953 0.950 . S
H1933 C1956 0.950 . S
H1934 C1957 0.950 . S
H1935 C1959 0.950 . S
H1936 C1960 0.950 . S
H1937 C1961 0.951 . S
H1938 C1963 0.951 . S
H1939 C1965 0.950 . S
H1940 C1966 0.950 . S
H1941 C1968 0.950 . S
H1942 C1971 0.950 . S
H1943 C1972 0.950 . S
H1944 C1974 0.950 . S
H1945 C1975 0.950 . S
C1946 H1928 0.951 . S
C1946 C1947 1.366 . S
C1946 C1948 1.388 . S
C1947 C1946 1.366 . S
C1947 C1951 1.385 . S
C1948 H1929 0.951 . S
C1948 C1946 1.388 . S
C1948 C1949 1.366 . S
C1949 C1948 1.366 . S
C1949 C1950 1.414 . S
C1949 C1952 1.499 . S
C1950 H1930 0.950 . S
C1950 C1949 1.414 . S
C1950 C1951 1.374 . S
C1951 H1931 0.950 . S
C1951 C1947 1.385 . S
C1951 C1950 1.374 . S
C1952 C1949 1.499 . S
C1952 C1953 1.373 . S
C1952 C1954 1.389 . S
C1953 H1932 0.950 . S
C1953 C1952 1.373 . S
C1953 C1969 1.377 . S
C1954 C1952 1.389 . S
C1954 C1955 1.524 . S
C1954 C1968 1.377 . S
C1955 C1954 1.524 . S
C1955 C1956 1.397 . S
C1955 C1960 1.363 . S
C1956 H1933 0.950 . S
C1956 C1955 1.397 . S
C1956 C1957 1.334 . S
C1957 H1934 0.950 . S
C1957 C1956 1.334 . S
C1957 C1958 1.287 . S
C1958 C1957 1.287 . S
C1958 C1959 1.524 . S
C1958 H1977 0.913 . S
C1959 H1935 0.950 . S
C1959 C1958 1.524 . S
C1959 C1960 1.415 . S
C1960 H1936 0.950 . S
C1960 C1955 1.363 . S
C1960 C1959 1.415 . S
C1961 H1937 0.951 . S
C1961 C1962 1.366 . S
C1961 C1963 1.388 . S
C1962 C1961 1.366 . S
C1962 C1966 1.385 . S
C1963 H1938 0.951 . S
C1963 C1961 1.388 . S
C1963 C1964 1.366 . S
C1964 C1963 1.366 . S
C1964 C1965 1.414 . S
C1964 C1967 1.499 . S
C1965 H1939 0.950 . S
C1965 C1964 1.414 . S
C1965 C1966 1.374 . S
C1966 H1940 0.950 . S
C1966 C1962 1.385 . S
C1966 C1965 1.374 . S
C1967 C1964 1.499 . S
C1967 C1968 1.373 . S
C1967 C1969 1.389 . S
C1968 H1941 0.950 . S
C1968 C1954 1.377 . S
C1968 C1967 1.373 . S
C1969 C1953 1.377 . S
C1969 C1967 1.389 . S
C1969 C1970 1.524 . S
C1970 C1969 1.524 . S
C1970 C1971 1.397 . S
C1970 C1975 1.363 . S
C1971 H1942 0.950 . S
C1971 C1970 1.397 . S
C1971 C1972 1.334 . S
C1972 H1943 0.950 . S
C1972 C1971 1.334 . S
C1972 C1973 1.287 . S
C1973 C1972 1.287 . S
C1973 C1974 1.524 . S
C1973 H1976 0.999 . S
C1974 H1944 0.950 . S
C1974 C1973 1.524 . S
C1974 C1975 1.415 . S
C1975 H1945 0.950 . S
C1975 C1970 1.363 . S
C1975 C1974 1.415 . S
H1976 C1973 0.999 . S
H1977 C1958 0.913 . S
H1978 C1996 0.951 . S
H1979 C1998 0.951 . S
H1980 C2000 0.950 . S
H1981 C2001 0.950 . S
H1982 C2003 0.950 . S
H1983 C2006 0.950 . S
H1984 C2007 0.950 . S
H1985 C2009 0.950 . S
H1986 C2010 0.950 . S
H1987 C2011 0.951 . S
H1988 C2013 0.951 . S
H1989 C2015 0.950 . S
H1990 C2016 0.950 . S
H1991 C2018 0.950 . S
H1992 C2021 0.950 . S
H1993 C2022 0.950 . S
H1994 C2024 0.950 . S
H1995 C2025 0.950 . S
C1996 H1978 0.951 . S
C1996 C1997 1.366 . S
C1996 C1998 1.388 . S
C1997 C1996 1.366 . S
C1997 C2001 1.385 . S
C1998 H1979 0.951 . S
C1998 C1996 1.388 . S
C1998 C1999 1.366 . S
C1999 C1998 1.366 . S
C1999 C2000 1.414 . S
C1999 C2002 1.499 . S
C2000 H1980 0.950 . S
C2000 C1999 1.414 . S
C2000 C2001 1.374 . S
C2001 H1981 0.950 . S
C2001 C1997 1.385 . S
C2001 C2000 1.374 . S
C2002 C1999 1.499 . S
C2002 C2003 1.373 . S
C2002 C2004 1.389 . S
C2003 H1982 0.950 . S
C2003 C2002 1.373 . S
C2003 C2019 1.377 . S
C2004 C2002 1.389 . S
C2004 C2005 1.524 . S
C2004 C2018 1.377 . S
C2005 C2004 1.524 . S
C2005 C2006 1.397 . S
C2005 C2010 1.363 . S
C2006 H1983 0.950 . S
C2006 C2005 1.397 . S
C2006 C2007 1.334 . S
C2007 H1984 0.950 . S
C2007 C2006 1.334 . S
C2007 C2008 1.287 . S
C2008 C2007 1.287 . S
C2008 C2009 1.524 . S
C2008 H2027 0.913 . S
C2009 H1985 0.950 . S
C2009 C2008 1.524 . S
C2009 C2010 1.415 . S
C2010 H1986 0.950 . S
C2010 C2005 1.363 . S
C2010 C2009 1.415 . S
C2011 H1987 0.951 . S
C2011 C2012 1.366 . S
C2011 C2013 1.388 . S
C2012 C2011 1.366 . S
C2012 C2016 1.385 . S
C2013 H1988 0.951 . S
C2013 C2011 1.388 . S
C2013 C2014 1.366 . S
C2014 C2013 1.366 . S
C2014 C2015 1.414 . S
C2014 C2017 1.499 . S
C2015 H1989 0.950 . S
C2015 C2014 1.414 . S
C2015 C2016 1.374 . S
C2016 H1990 0.950 . S
C2016 C2012 1.385 . S
C2016 C2015 1.374 . S
C2017 C2014 1.499 . S
C2017 C2018 1.373 . S
C2017 C2019 1.389 . S
C2018 H1991 0.950 . S
C2018 C2004 1.377 . S
C2018 C2017 1.373 . S
C2019 C2003 1.377 . S
C2019 C2017 1.389 . S
C2019 C2020 1.524 . S
C2020 C2019 1.524 . S
C2020 C2021 1.397 . S
C2020 C2025 1.363 . S
C2021 H1992 0.950 . S
C2021 C2020 1.397 . S
C2021 C2022 1.334 . S
C2022 H1993 0.950 . S
C2022 C2021 1.334 . S
C2022 C2023 1.287 . S
C2023 C2022 1.287 . S
C2023 C2024 1.524 . S
C2023 H2026 0.999 . S
C2024 H1994 0.950 . S
C2024 C2023 1.524 . S
C2024 C2025 1.415 . S
C2025 H1995 0.950 . S
C2025 C2020 1.363 . S
C2025 C2024 1.415 . S
H2026 C2023 0.999 . S
H2027 C2008 0.913 . S
H2028 C2046 0.951 . S
H2029 C2048 0.951 . S
H2030 C2050 0.950 . S
H2031 C2051 0.950 . S
H2032 C2053 0.950 . S
H2033 C2056 0.950 . S
H2034 C2057 0.950 . S
H2035 C2059 0.950 . S
H2036 C2060 0.950 . S
H2037 C2061 0.951 . S
H2038 C2063 0.951 . S
H2039 C2065 0.950 . S
H2040 C2066 0.950 . S
H2041 C2068 0.950 . S
H2042 C2071 0.950 . S
H2043 C2072 0.950 . S
H2044 C2074 0.950 . S
H2045 C2075 0.950 . S
C2046 H2028 0.951 . S
C2046 C2047 1.366 . S
C2046 C2048 1.388 . S
C2047 C2046 1.366 . S
C2047 C2051 1.385 . S
C2048 H2029 0.951 . S
C2048 C2046 1.388 . S
C2048 C2049 1.366 . S
C2049 C2048 1.366 . S
C2049 C2050 1.414 . S
C2049 C2052 1.499 . S
C2050 H2030 0.950 . S
C2050 C2049 1.414 . S
C2050 C2051 1.374 . S
C2051 H2031 0.950 . S
C2051 C2047 1.385 . S
C2051 C2050 1.374 . S
C2052 C2049 1.499 . S
C2052 C2053 1.373 . S
C2052 C2054 1.389 . S
C2053 H2032 0.950 . S
C2053 C2052 1.373 . S
C2053 C2069 1.377 . S
C2054 C2052 1.389 . S
C2054 C2055 1.524 . S
C2054 C2068 1.377 . S
C2055 C2054 1.524 . S
C2055 C2056 1.397 . S
C2055 C2060 1.363 . S
C2056 H2033 0.950 . S
C2056 C2055 1.397 . S
C2056 C2057 1.334 . S
C2057 H2034 0.950 . S
C2057 C2056 1.334 . S
C2057 C2058 1.287 . S
C2058 C2057 1.287 . S
C2058 C2059 1.524 . S
C2058 H2077 0.913 . S
C2059 H2035 0.950 . S
C2059 C2058 1.524 . S
C2059 C2060 1.415 . S
C2060 H2036 0.950 . S
C2060 C2055 1.363 . S
C2060 C2059 1.415 . S
C2061 H2037 0.951 . S
C2061 C2062 1.366 . S
C2061 C2063 1.388 . S
C2062 C2061 1.366 . S
C2062 C2066 1.385 . S
C2063 H2038 0.951 . S
C2063 C2061 1.388 . S
C2063 C2064 1.366 . S
C2064 C2063 1.366 . S
C2064 C2065 1.414 . S
C2064 C2067 1.499 . S
C2065 H2039 0.950 . S
C2065 C2064 1.414 . S
C2065 C2066 1.374 . S
C2066 H2040 0.950 . S
C2066 C2062 1.385 . S
C2066 C2065 1.374 . S
C2067 C2064 1.499 . S
C2067 C2068 1.373 . S
C2067 C2069 1.389 . S
C2068 H2041 0.950 . S
C2068 C2054 1.377 . S
C2068 C2067 1.373 . S
C2069 C2053 1.377 . S
C2069 C2067 1.389 . S
C2069 C2070 1.524 . S
C2070 C2069 1.524 . S
C2070 C2071 1.397 . S
C2070 C2075 1.363 . S
C2071 H2042 0.950 . S
C2071 C2070 1.397 . S
C2071 C2072 1.334 . S
C2072 H2043 0.950 . S
C2072 C2071 1.334 . S
C2072 C2073 1.287 . S
C2073 C2072 1.287 . S
C2073 C2074 1.524 . S
C2073 H2076 0.999 . S
C2074 H2044 0.950 . S
C2074 C2073 1.524 . S
C2074 C2075 1.415 . S
C2075 H2045 0.950 . S
C2075 C2070 1.363 . S
C2075 C2074 1.415 . S
H2076 C2073 0.999 . S
H2077 C2058 0.913 . S
H2078 C2096 0.951 . S
H2079 C2098 0.951 . S
H2080 C2100 0.950 . S
H2081 C2101 0.950 . S
H2082 C2103 0.950 . S
H2083 C2106 0.950 . S
H2084 C2107 0.950 . S
H2085 C2109 0.950 . S
H2086 C2110 0.950 . S
H2087 C2111 0.951 . S
H2088 C2113 0.951 . S
H2089 C2115 0.950 . S
H2090 C2116 0.950 . S
H2091 C2118 0.950 . S
H2092 C2121 0.950 . S
H2093 C2122 0.950 . S
H2094 C2124 0.950 . S
H2095 C2125 0.950 . S
C2096 H2078 0.951 . S
C2096 C2097 1.366 . S
C2096 C2098 1.388 . S
C2097 C2096 1.366 . S
C2097 C2101 1.385 . S
C2098 H2079 0.951 . S
C2098 C2096 1.388 . S
C2098 C2099 1.366 . S
C2099 C2098 1.366 . S
C2099 C2100 1.414 . S
C2099 C2102 1.499 . S
C2100 H2080 0.950 . S
C2100 C2099 1.414 . S
C2100 C2101 1.374 . S
C2101 H2081 0.950 . S
C2101 C2097 1.385 . S
C2101 C2100 1.374 . S
C2102 C2099 1.499 . S
C2102 C2103 1.373 . S
C2102 C2104 1.389 . S
C2103 H2082 0.950 . S
C2103 C2102 1.373 . S
C2103 C2119 1.377 . S
C2104 C2102 1.389 . S
C2104 C2105 1.524 . S
C2104 C2118 1.377 . S
C2105 C2104 1.524 . S
C2105 C2106 1.397 . S
C2105 C2110 1.363 . S
C2106 H2083 0.950 . S
C2106 C2105 1.397 . S
C2106 C2107 1.334 . S
C2107 H2084 0.950 . S
C2107 C2106 1.334 . S
C2107 C2108 1.287 . S
C2108 C2107 1.287 . S
C2108 C2109 1.524 . S
C2108 H2127 0.913 . S
C2109 H2085 0.950 . S
C2109 C2108 1.524 . S
C2109 C2110 1.415 . S
C2110 H2086 0.950 . S
C2110 C2105 1.363 . S
C2110 C2109 1.415 . S
C2111 H2087 0.951 . S
C2111 C2112 1.366 . S
C2111 C2113 1.388 . S
C2112 C2111 1.366 . S
C2112 C2116 1.385 . S
C2113 H2088 0.951 . S
C2113 C2111 1.388 . S
C2113 C2114 1.366 . S
C2114 C2113 1.366 . S
C2114 C2115 1.414 . S
C2114 C2117 1.499 . S
C2115 H2089 0.950 . S
C2115 C2114 1.414 . S
C2115 C2116 1.374 . S
C2116 H2090 0.950 . S
C2116 C2112 1.385 . S
C2116 C2115 1.374 . S
C2117 C2114 1.499 . S
C2117 C2118 1.373 . S
C2117 C2119 1.389 . S
C2118 H2091 0.950 . S
C2118 C2104 1.377 . S
C2118 C2117 1.373 . S
C2119 C2103 1.377 . S
C2119 C2117 1.389 . S
C2119 C2120 1.524 . S
C2120 C2119 1.524 . S
C2120 C2121 1.397 . S
C2120 C2125 1.363 . S
C2121 H2092 0.950 . S
C2121 C2120 1.397 . S
C2121 C2122 1.334 . S
C2122 H2093 0.950 . S
C2122 C2121 1.334 . S
C2122 C2123 1.287 . S
C2123 C2122 1.287 . S
C2123 C2124 1.524 . S
C2123 H2126 0.999 . S
C2124 H2094 0.950 . S
C2124 C2123 1.524 . S
C2124 C2125 1.415 . S
C2125 H2095 0.950 . S
C2125 C2120 1.363 . S
C2125 C2124 1.415 . S
H2126 C2123 0.999 . S
H2127 C2108 0.913 . S
H2128 C2146 0.951 . S
H2129 C2148 0.951 . S
H2130 C2150 0.950 . S
H2131 C2151 0.950 . S
H2132 C2153 0.950 . S
H2133 C2156 0.950 . S
H2134 C2157 0.950 1_655 S
H2135 C2159 0.950 . S
H2136 C2160 0.950 . S
H2137 C2161 0.951 . S
H2138 C2163 0.951 . S
H2139 C2165 0.950 . S
H2140 C2166 0.950 . S
H2141 C2168 0.950 . S
H2142 C2171 0.950 . S
H2143 C2172 0.950 1_455 S
H2144 C2174 0.950 . S
H2145 C2175 0.950 . S
C2146 H2128 0.951 . S
C2146 C2147 1.366 . S
C2146 C2148 1.388 . S
C2147 C2146 1.366 . S
C2147 C2151 1.385 1_455 S
C2148 H2129 0.951 . S
C2148 C2146 1.388 . S
C2148 C2149 1.366 . S
C2149 C2148 1.366 . S
C2149 C2150 1.414 1_455 S
C2149 C2152 1.499 . S
C2150 H2130 0.950 . S
C2150 C2149 1.414 1_655 S
C2150 C2151 1.374 . S
C2151 H2131 0.950 . S
C2151 C2147 1.385 1_655 S
C2151 C2150 1.374 . S
C2152 C2149 1.499 . S
C2152 C2153 1.373 1_455 S
C2152 C2154 1.389 . S
C2153 H2132 0.950 . S
C2153 C2152 1.373 1_655 S
C2153 C2169 1.377 . S
C2154 C2152 1.389 . S
C2154 C2155 1.524 . S
C2154 C2168 1.377 . S
C2155 C2154 1.524 . S
C2155 C2156 1.397 1_455 S
C2155 C2160 1.363 . S
C2156 H2133 0.950 . S
C2156 C2155 1.397 1_655 S
C2156 C2157 1.334 1_655 S
C2157 H2134 0.950 1_455 S
C2157 C2156 1.334 1_455 S
C2157 C2158 1.287 . S
C2158 C2157 1.287 . S
C2158 C2159 1.524 . S
C2158 H2177 0.913 . S
C2159 H2135 0.950 . S
C2159 C2158 1.524 . S
C2159 C2160 1.415 . S
C2160 H2136 0.950 . S
C2160 C2155 1.363 . S
C2160 C2159 1.415 . S
C2161 H2137 0.951 . S
C2161 C2162 1.366 . S
C2161 C2163 1.388 . S
C2162 C2161 1.366 . S
C2162 C2166 1.385 1_655 S
C2163 H2138 0.951 . S
C2163 C2161 1.388 . S
C2163 C2164 1.366 . S
C2164 C2163 1.366 . S
C2164 C2165 1.414 1_655 S
C2164 C2167 1.499 . S
C2165 H2139 0.950 . S
C2165 C2164 1.414 1_455 S
C2165 C2166 1.374 . S
C2166 H2140 0.950 . S
C2166 C2162 1.385 1_455 S
C2166 C2165 1.374 . S
C2167 C2164 1.499 . S
C2167 C2168 1.373 1_655 S
C2167 C2169 1.389 . S
C2168 H2141 0.950 . S
C2168 C2154 1.377 . S
C2168 C2167 1.373 1_455 S
C2169 C2153 1.377 . S
C2169 C2167 1.389 . S
C2169 C2170 1.524 . S
C2170 C2169 1.524 . S
C2170 C2171 1.397 1_655 S
C2170 C2175 1.363 . S
C2171 H2142 0.950 . S
C2171 C2170 1.397 1_455 S
C2171 C2172 1.334 1_455 S
C2172 H2143 0.950 1_655 S
C2172 C2171 1.334 1_655 S
C2172 C2173 1.287 . S
C2173 C2172 1.287 . S
C2173 C2174 1.524 . S
C2173 H2176 0.999 . S
C2174 H2144 0.950 . S
C2174 C2173 1.524 . S
C2174 C2175 1.415 . S
C2175 H2145 0.950 . S
C2175 C2170 1.363 . S
C2175 C2174 1.415 . S
H2176 C2173 0.999 . S
H2177 C2158 0.913 . S
H2178 C2196 0.951 . S
H2179 C2198 0.951 . S
H2180 C2200 0.950 . S
H2181 C2201 0.950 . S
H2182 C2203 0.950 . S
H2183 C2206 0.950 . S
H2184 C2207 0.950 . S
H2185 C2209 0.950 . S
H2186 C2210 0.950 . S
H2187 C2211 0.951 . S
H2188 C2213 0.951 . S
H2189 C2215 0.950 . S
H2190 C2216 0.950 . S
H2191 C2218 0.950 . S
H2192 C2221 0.950 . S
H2193 C2222 0.950 . S
H2194 C2224 0.950 . S
H2195 C2225 0.950 . S
C2196 H2178 0.951 . S
C2196 C2197 1.366 . S
C2196 C2198 1.388 . S
C2197 C2196 1.366 . S
C2197 C2201 1.385 1_565 S
C2198 H2179 0.951 . S
C2198 C2196 1.388 . S
C2198 C2199 1.366 . S
C2199 C2198 1.366 . S
C2199 C2200 1.414 1_565 S
C2199 C2202 1.503 . S
C2200 H2180 0.950 . S
C2200 C2199 1.414 1_545 S
C2200 C2201 1.374 . S
C2201 H2181 0.950 . S
C2201 C2197 1.385 1_545 S
C2201 C2200 1.374 . S
C2202 C2199 1.503 . S
C2202 C2203 1.372 1_565 S
C2202 C2204 1.389 . S
C2203 H2182 0.950 . S
C2203 C2202 1.372 1_545 S
C2203 C2219 1.376 . S
C2204 C2202 1.389 . S
C2204 C2205 1.523 1_565 S
C2204 C2218 1.376 . S
C2205 C2204 1.523 1_545 S
C2205 C2206 1.406 . S
C2205 C2210 1.355 1_545 S
C2206 H2183 0.950 . S
C2206 C2205 1.406 . S
C2206 C2207 1.334 . S
C2207 H2184 0.950 . S
C2207 C2206 1.334 . S
C2207 C2208 1.287 . S
C2208 C2207 1.287 . S
C2208 C2209 1.524 1_545 S
C2208 H2227 0.913 . S
C2209 H2185 0.950 . S
C2209 C2208 1.524 1_565 S
C2209 C2210 1.415 . S
C2210 H2186 0.950 . S
C2210 C2205 1.355 1_565 S
C2210 C2209 1.415 . S
C2211 H2187 0.951 . S
C2211 C2212 1.366 . S
C2211 C2213 1.388 . S
C2212 C2211 1.366 . S
C2212 C2216 1.385 1_545 S
C2213 H2188 0.951 . S
C2213 C2211 1.388 . S
C2213 C2214 1.366 . S
C2214 C2213 1.366 . S
C2214 C2215 1.414 1_545 S
C2214 C2217 1.503 . S
C2215 H2189 0.950 . S
C2215 C2214 1.414 1_565 S
C2215 C2216 1.374 . S
C2216 H2190 0.950 . S
C2216 C2212 1.385 1_565 S
C2216 C2215 1.374 . S
C2217 C2214 1.503 . S
C2217 C2218 1.372 1_545 S
C2217 C2219 1.389 . S
C2218 H2191 0.950 . S
C2218 C2204 1.376 . S
C2218 C2217 1.372 1_565 S
C2219 C2203 1.376 . S
C2219 C2217 1.389 . S
C2219 C2220 1.523 1_545 S
C2220 C2219 1.523 1_565 S
C2220 C2221 1.406 . S
C2220 C2225 1.355 1_565 S
C2221 H2192 0.950 . S
C2221 C2220 1.406 . S
C2221 C2222 1.334 . S
C2222 H2193 0.950 . S
C2222 C2221 1.334 . S
C2222 C2223 1.287 . S
C2223 C2222 1.287 . S
C2223 C2224 1.524 1_565 S
C2223 H2226 0.999 . S
C2224 H2194 0.950 . S
C2224 C2223 1.524 1_545 S
C2224 C2225 1.415 . S
C2225 H2195 0.950 . S
C2225 C2220 1.355 1_545 S
C2225 C2224 1.415 . S
H2226 C2223 0.999 . S
H2227 C2208 0.913 . S
H2228 C2246 0.951 . S
H2229 C2248 0.951 . S
H2230 C2250 0.950 . S
H2231 C2251 0.950 . S
H2232 C2253 0.950 . S
H2233 C2256 0.950 . S
H2234 C2257 0.956 . S
H2235 C2259 0.950 . S
H2236 C2260 0.950 . S
H2237 C2261 0.951 . S
H2238 C2263 0.951 . S
H2239 C2265 0.950 . S
H2240 C2266 0.950 . S
H2241 C2268 0.950 . S
H2242 C2271 0.950 . S
H2243 C2272 0.956 . S
H2244 C2274 0.950 . S
H2245 C2275 0.950 . S
C2246 H2228 0.951 . S
C2246 C2247 1.366 . S
C2246 C2248 1.388 . S
C2247 C2246 1.366 . S
C2247 C2251 1.385 1_455 S
C2248 H2229 0.951 . S
C2248 C2246 1.388 . S
C2248 C2249 1.366 . S
C2249 C2248 1.366 . S
C2249 C2250 1.414 1_455 S
C2249 C2252 1.499 . S
C2250 H2230 0.950 . S
C2250 C2249 1.414 1_655 S
C2250 C2251 1.374 . S
C2251 H2231 0.950 . S
C2251 C2247 1.385 1_655 S
C2251 C2250 1.374 . S
C2252 C2249 1.499 . S
C2252 C2253 1.373 1_455 S
C2252 C2254 1.389 . S
C2253 H2232 0.950 . S
C2253 C2252 1.373 1_655 S
C2253 C2269 1.377 . S
C2254 C2252 1.389 . S
C2254 C2255 1.524 . S
C2254 C2268 1.377 . S
C2255 C2254 1.524 . S
C2255 C2256 1.397 1_455 S
C2255 C2260 1.363 . S
C2256 H2233 0.950 . S
C2256 C2255 1.397 1_655 S
C2256 C2257 1.335 . S
C2257 H2234 0.956 . S
C2257 C2256 1.335 . S
C2257 C2258 1.280 1_655 S
C2258 C2257 1.280 1_455 S
C2258 C2259 1.524 . S
C2258 H2277 0.913 . S
C2259 H2235 0.950 . S
C2259 C2258 1.524 . S
C2259 C2260 1.415 . S
C2260 H2236 0.950 . S
C2260 C2255 1.363 . S
C2260 C2259 1.415 . S
C2261 H2237 0.951 . S
C2261 C2262 1.366 . S
C2261 C2263 1.388 . S
C2262 C2261 1.366 . S
C2262 C2266 1.385 1_655 S
C2263 H2238 0.951 . S
C2263 C2261 1.388 . S
C2263 C2264 1.366 . S
C2264 C2263 1.366 . S
C2264 C2265 1.414 1_655 S
C2264 C2267 1.499 . S
C2265 H2239 0.950 . S
C2265 C2264 1.414 1_455 S
C2265 C2266 1.374 . S
C2266 H2240 0.950 . S
C2266 C2262 1.385 1_455 S
C2266 C2265 1.374 . S
C2267 C2264 1.499 . S
C2267 C2268 1.373 1_655 S
C2267 C2269 1.389 . S
C2268 H2241 0.950 . S
C2268 C2254 1.377 . S
C2268 C2267 1.373 1_455 S
C2269 C2253 1.377 . S
C2269 C2267 1.389 . S
C2269 C2270 1.524 . S
C2270 C2269 1.524 . S
C2270 C2271 1.397 1_655 S
C2270 C2275 1.363 . S
C2271 H2242 0.950 . S
C2271 C2270 1.397 1_455 S
C2271 C2272 1.335 . S
C2272 H2243 0.956 . S
C2272 C2271 1.335 . S
C2272 C2273 1.280 1_455 S
C2273 C2272 1.280 1_655 S
C2273 C2274 1.524 . S
C2273 H2276 0.999 . S
C2274 H2244 0.950 . S
C2274 C2273 1.524 . S
C2274 C2275 1.415 . S
C2275 H2245 0.950 . S
C2275 C2270 1.363 . S
C2275 C2274 1.415 . S
H2276 C2273 0.999 . S
H2277 C2258 0.913 . S
H2278 C2296 0.941 1_565 S
H2279 C2298 0.951 . S
H2280 C2300 0.950 . S
H2281 C2301 0.950 . S
H2282 C2303 0.950 . S
H2283 C2306 0.950 . S
H2284 C2307 0.950 . S
H2285 C2309 0.950 . S
H2286 C2310 0.950 . S
H2287 C2311 0.941 1_545 S
H2288 C2313 0.951 . S
H2289 C2315 0.950 . S
H2290 C2316 0.950 . S
H2291 C2318 0.950 . S
H2292 C2321 0.950 . S
H2293 C2322 0.950 . S
H2294 C2324 0.950 . S
H2295 C2325 0.950 . S
C2296 H2278 0.941 1_545 S
C2296 C2297 1.379 . S
C2296 C2298 1.386 1_545 S
C2297 C2296 1.379 . S
C2297 C2301 1.385 . S
C2298 H2279 0.951 . S
C2298 C2296 1.386 1_565 S
C2298 C2299 1.366 1_565 S
C2299 C2298 1.366 1_545 S
C2299 C2300 1.414 . S
C2299 C2302 1.499 . S
C2300 H2280 0.950 . S
C2300 C2299 1.414 . S
C2300 C2301 1.374 . S
C2301 H2281 0.950 . S
C2301 C2297 1.385 . S
C2301 C2300 1.374 . S
C2302 C2299 1.499 . S
C2302 C2303 1.373 1_545 S
C2302 C2304 1.389 . S
C2303 H2282 0.950 . S
C2303 C2302 1.373 1_565 S
C2303 C2319 1.377 . S
C2304 C2302 1.389 . S
C2304 C2305 1.524 . S
C2304 C2318 1.377 . S
C2305 C2304 1.524 . S
C2305 C2306 1.397 . S
C2305 C2310 1.363 . S
C2306 H2283 0.950 . S
C2306 C2305 1.397 . S
C2306 C2307 1.334 . S
C2307 H2284 0.950 . S
C2307 C2306 1.334 . S
C2307 C2308 1.287 . S
C2308 C2307 1.287 . S
C2308 C2309 1.524 . S
C2308 H2327 0.913 . S
C2309 H2285 0.950 . S
C2309 C2308 1.524 . S
C2309 C2310 1.415 . S
C2310 H2286 0.950 . S
C2310 C2305 1.363 . S
C2310 C2309 1.415 . S
C2311 H2287 0.941 1_565 S
C2311 C2312 1.379 . S
C2311 C2313 1.386 1_565 S
C2312 C2311 1.379 . S
C2312 C2316 1.385 . S
C2313 H2288 0.951 . S
C2313 C2311 1.386 1_545 S
C2313 C2314 1.366 1_545 S
C2314 C2313 1.366 1_565 S
C2314 C2315 1.414 . S
C2314 C2317 1.499 . S
C2315 H2289 0.950 . S
C2315 C2314 1.414 . S
C2315 C2316 1.374 . S
C2316 H2290 0.950 . S
C2316 C2312 1.385 . S
C2316 C2315 1.374 . S
C2317 C2314 1.499 . S
C2317 C2318 1.373 1_565 S
C2317 C2319 1.389 . S
C2318 H2291 0.950 . S
C2318 C2304 1.377 . S
C2318 C2317 1.373 1_545 S
C2319 C2303 1.377 . S
C2319 C2317 1.389 . S
C2319 C2320 1.524 . S
C2320 C2319 1.524 . S
C2320 C2321 1.397 . S
C2320 C2325 1.363 . S
C2321 H2292 0.950 . S
C2321 C2320 1.397 . S
C2321 C2322 1.334 . S
C2322 H2293 0.950 . S
C2322 C2321 1.334 . S
C2322 C2323 1.287 . S
C2323 C2322 1.287 . S
C2323 C2324 1.524 . S
C2323 H2326 0.999 . S
C2324 H2294 0.950 . S
C2324 C2323 1.524 . S
C2324 C2325 1.415 . S
C2325 H2295 0.950 . S
C2325 C2320 1.363 . S
C2325 C2324 1.415 . S
H2326 C2323 0.999 . S
H2327 C2308 0.913 . S
H2328 C2346 0.951 . S
H2329 C2348 0.951 . S
H2330 C2350 0.950 . S
H2331 C2351 0.950 . S
H2332 C2353 0.950 . S
H2333 C2356 0.950 . S
H2334 C2357 0.950 . S
H2335 C2359 0.950 . S
H2336 C2360 0.950 . S
H2337 C2361 0.951 . S
H2338 C2363 0.951 . S
H2339 C2365 0.950 . S
H2340 C2366 0.950 . S
H2341 C2368 0.950 . S
H2342 C2371 0.950 . S
H2343 C2372 0.950 . S
H2344 C2374 0.950 . S
H2345 C2375 0.950 . S
C2346 H2328 0.951 . S
C2346 C2347 1.366 . S
C2346 C2348 1.388 . S
C2347 C2346 1.366 . S
C2347 C2351 1.385 . S
C2348 H2329 0.951 . S
C2348 C2346 1.388 . S
C2348 C2349 1.366 . S
C2349 C2348 1.366 . S
C2349 C2350 1.414 . S
C2349 C2352 1.499 . S
C2350 H2330 0.950 . S
C2350 C2349 1.414 . S
C2350 C2351 1.374 . S
C2351 H2331 0.950 . S
C2351 C2347 1.385 . S
C2351 C2350 1.374 . S
C2352 C2349 1.499 . S
C2352 C2353 1.373 . S
C2352 C2354 1.389 . S
C2353 H2332 0.950 . S
C2353 C2352 1.373 . S
C2353 C2369 1.377 1_556 S
C2354 C2352 1.389 . S
C2354 C2355 1.524 . S
C2354 C2368 1.377 1_556 S
C2355 C2354 1.524 . S
C2355 C2356 1.397 . S
C2355 C2360 1.363 . S
C2356 H2333 0.950 . S
C2356 C2355 1.397 . S
C2356 C2357 1.334 . S
C2357 H2334 0.950 . S
C2357 C2356 1.334 . S
C2357 C2358 1.287 . S
C2358 C2357 1.287 . S
C2358 C2359 1.524 . S
C2358 H2377 0.913 . S
C2359 H2335 0.950 . S
C2359 C2358 1.524 . S
C2359 C2360 1.415 . S
C2360 H2336 0.950 . S
C2360 C2355 1.363 . S
C2360 C2359 1.415 . S
C2361 H2337 0.951 . S
C2361 C2362 1.366 . S
C2361 C2363 1.388 . S
C2362 C2361 1.366 . S
C2362 C2366 1.385 . S
C2363 H2338 0.951 . S
C2363 C2361 1.388 . S
C2363 C2364 1.366 . S
C2364 C2363 1.366 . S
C2364 C2365 1.414 . S
C2364 C2367 1.499 . S
C2365 H2339 0.950 . S
C2365 C2364 1.414 . S
C2365 C2366 1.374 . S
C2366 H2340 0.950 . S
C2366 C2362 1.385 . S
C2366 C2365 1.374 . S
C2367 C2364 1.499 . S
C2367 C2368 1.373 . S
C2367 C2369 1.389 . S
C2368 H2341 0.950 . S
C2368 C2354 1.377 1_554 S
C2368 C2367 1.373 . S
C2369 C2353 1.377 1_554 S
C2369 C2367 1.389 . S
C2369 C2370 1.524 . S
C2370 C2369 1.524 . S
C2370 C2371 1.397 . S
C2370 C2375 1.363 . S
C2371 H2342 0.950 . S
C2371 C2370 1.397 . S
C2371 C2372 1.334 . S
C2372 H2343 0.950 . S
C2372 C2371 1.334 . S
C2372 C2373 1.287 . S
C2373 C2372 1.287 . S
C2373 C2374 1.524 . S
C2373 H2376 0.999 . S
C2374 H2344 0.950 . S
C2374 C2373 1.524 . S
C2374 C2375 1.415 . S
C2375 H2345 0.950 . S
C2375 C2370 1.363 . S
C2375 C2374 1.415 . S
H2376 C2373 0.999 . S
H2377 C2358 0.913 . S
H2378 C2396 0.951 . S
H2379 C2398 0.951 . S
H2380 C2400 0.950 . S
H2381 C2401 0.950 . S
H2382 C2403 0.950 . S
H2383 C2406 0.950 . S
H2384 C2407 0.950 . S
H2385 C2409 0.950 . S
H2386 C2410 0.950 . S
H2387 C2411 0.951 . S
H2388 C2413 0.951 . S
H2389 C2415 0.950 . S
H2390 C2416 0.950 . S
H2391 C2418 0.950 . S
H2392 C2421 0.950 . S
H2393 C2422 0.950 . S
H2394 C2424 0.950 . S
H2395 C2425 0.950 . S
C2396 H2378 0.951 . S
C2396 C2397 1.366 . S
C2396 C2398 1.388 . S
C2397 C2396 1.366 . S
C2397 C2401 1.385 . S
C2398 H2379 0.951 . S
C2398 C2396 1.388 . S
C2398 C2399 1.366 . S
C2399 C2398 1.366 . S
C2399 C2400 1.414 . S
C2399 C2402 1.499 . S
C2400 H2380 0.950 . S
C2400 C2399 1.414 . S
C2400 C2401 1.374 . S
C2401 H2381 0.950 . S
C2401 C2397 1.385 . S
C2401 C2400 1.374 . S
C2402 C2399 1.499 . S
C2402 C2403 1.373 . S
C2402 C2404 1.389 . S
C2403 H2382 0.950 . S
C2403 C2402 1.373 . S
C2403 C2419 1.377 1_554 S
C2404 C2402 1.389 . S
C2404 C2405 1.524 . S
C2404 C2418 1.377 1_554 S
C2405 C2404 1.524 . S
C2405 C2406 1.397 . S
C2405 C2410 1.363 . S
C2406 H2383 0.950 . S
C2406 C2405 1.397 . S
C2406 C2407 1.334 . S
C2407 H2384 0.950 . S
C2407 C2406 1.334 . S
C2407 C2408 1.287 . S
C2408 C2407 1.287 . S
C2408 C2409 1.524 . S
C2408 H2427 0.913 . S
C2409 H2385 0.950 . S
C2409 C2408 1.524 . S
C2409 C2410 1.415 . S
C2410 H2386 0.950 . S
C2410 C2405 1.363 . S
C2410 C2409 1.415 . S
C2411 H2387 0.951 . S
C2411 C2412 1.366 . S
C2411 C2413 1.388 . S
C2412 C2411 1.366 . S
C2412 C2416 1.385 . S
C2413 H2388 0.951 . S
C2413 C2411 1.388 . S
C2413 C2414 1.366 . S
C2414 C2413 1.366 . S
C2414 C2415 1.414 . S
C2414 C2417 1.499 . S
C2415 H2389 0.950 . S
C2415 C2414 1.414 . S
C2415 C2416 1.374 . S
C2416 H2390 0.950 . S
C2416 C2412 1.385 . S
C2416 C2415 1.374 . S
C2417 C2414 1.499 . S
C2417 C2418 1.373 . S
C2417 C2419 1.389 . S
C2418 H2391 0.950 . S
C2418 C2404 1.377 1_556 S
C2418 C2417 1.373 . S
C2419 C2403 1.377 1_556 S
C2419 C2417 1.389 . S
C2419 C2420 1.524 . S
C2420 C2419 1.524 . S
C2420 C2421 1.397 . S
C2420 C2425 1.363 . S
C2421 H2392 0.950 . S
C2421 C2420 1.397 . S
C2421 C2422 1.334 . S
C2422 H2393 0.950 . S
C2422 C2421 1.334 . S
C2422 C2423 1.287 . S
C2423 C2422 1.287 . S
C2423 C2424 1.524 . S
C2423 H2426 0.999 . S
C2424 H2394 0.950 . S
C2424 C2423 1.524 . S
C2424 C2425 1.415 . S
C2425 H2395 0.950 . S
C2425 C2420 1.363 . S
C2425 C2424 1.415 . S
H2426 C2423 0.999 . S
H2427 C2408 0.913 . S
H2428 C2446 0.951 . S
H2429 C2448 0.951 . S
H2430 C2450 0.950 . S
H2431 C2451 0.950 . S
H2432 C2453 0.950 . S
H2433 C2456 0.950 . S
H2434 C2457 0.950 . S
H2435 C2459 0.950 . S
H2436 C2460 0.950 . S
H2437 C2461 0.951 . S
H2438 C2463 0.951 . S
H2439 C2465 0.950 . S
H2440 C2466 0.950 . S
H2441 C2468 0.950 . S
H2442 C2471 0.950 . S
H2443 C2472 0.950 . S
H2444 C2474 0.950 . S
H2445 C2475 0.950 . S
C2446 H2428 0.951 . S
C2446 C2447 1.366 . S
C2446 C2448 1.388 . S
C2447 C2446 1.366 . S
C2447 C2451 1.385 . S
C2448 H2429 0.951 . S
C2448 C2446 1.388 . S
C2448 C2449 1.366 . S
C2449 C2448 1.366 . S
C2449 C2450 1.414 . S
C2449 C2452 1.499 . S
C2450 H2430 0.950 . S
C2450 C2449 1.414 . S
C2450 C2451 1.374 . S
C2451 H2431 0.950 . S
C2451 C2447 1.385 . S
C2451 C2450 1.374 . S
C2452 C2449 1.499 . S
C2452 C2453 1.373 . S
C2452 C2454 1.389 . S
C2453 H2432 0.950 . S
C2453 C2452 1.373 . S
C2453 C2469 1.377 1_554 S
C2454 C2452 1.389 . S
C2454 C2455 1.524 . S
C2454 C2468 1.377 1_554 S
C2455 C2454 1.524 . S
C2455 C2456 1.397 . S
C2455 C2460 1.363 . S
C2456 H2433 0.950 . S
C2456 C2455 1.397 . S
C2456 C2457 1.334 . S
C2457 H2434 0.950 . S
C2457 C2456 1.334 . S
C2457 C2458 1.287 . S
C2458 C2457 1.287 . S
C2458 C2459 1.524 . S
C2458 H2477 0.913 . S
C2459 H2435 0.950 . S
C2459 C2458 1.524 . S
C2459 C2460 1.415 . S
C2460 H2436 0.950 . S
C2460 C2455 1.363 . S
C2460 C2459 1.415 . S
C2461 H2437 0.951 . S
C2461 C2462 1.366 . S
C2461 C2463 1.388 . S
C2462 C2461 1.366 . S
C2462 C2466 1.385 . S
C2463 H2438 0.951 . S
C2463 C2461 1.388 . S
C2463 C2464 1.366 . S
C2464 C2463 1.366 . S
C2464 C2465 1.414 . S
C2464 C2467 1.499 . S
C2465 H2439 0.950 . S
C2465 C2464 1.414 . S
C2465 C2466 1.374 . S
C2466 H2440 0.950 . S
C2466 C2462 1.385 . S
C2466 C2465 1.374 . S
C2467 C2464 1.499 . S
C2467 C2468 1.373 . S
C2467 C2469 1.389 . S
C2468 H2441 0.950 . S
C2468 C2454 1.377 1_556 S
C2468 C2467 1.373 . S
C2469 C2453 1.377 1_556 S
C2469 C2467 1.389 . S
C2469 C2470 1.524 . S
C2470 C2469 1.524 . S
C2470 C2471 1.397 . S
C2470 C2475 1.363 . S
C2471 H2442 0.950 . S
C2471 C2470 1.397 . S
C2471 C2472 1.334 . S
C2472 H2443 0.950 . S
C2472 C2471 1.334 . S
C2472 C2473 1.287 . S
C2473 C2472 1.287 . S
C2473 C2474 1.524 . S
C2473 H2476 0.999 . S
C2474 H2444 0.950 . S
C2474 C2473 1.524 . S
C2474 C2475 1.415 . S
C2475 H2445 0.950 . S
C2475 C2470 1.363 . S
C2475 C2474 1.415 . S
H2476 C2473 0.999 . S
H2477 C2458 0.913 . S
H2478 C2496 0.951 . S
H2479 C2498 0.951 . S
H2480 C2500 0.950 . S
H2481 C2501 0.950 . S
H2482 C2503 0.950 . S
H2483 C2506 0.950 . S
H2484 C2507 0.950 . S
H2485 C2509 0.950 . S
H2486 C2510 0.950 . S
H2487 C2511 0.951 . S
H2488 C2513 0.951 . S
H2489 C2515 0.950 . S
H2490 C2516 0.950 . S
H2491 C2518 0.950 . S
H2492 C2521 0.950 . S
H2493 C2522 0.950 . S
H2494 C2524 0.950 . S
H2495 C2525 0.950 . S
C2496 H2478 0.951 . S
C2496 C2497 1.366 . S
C2496 C2498 1.388 . S
C2497 C2496 1.366 . S
C2497 C2501 1.385 . S
C2498 H2479 0.951 . S
C2498 C2496 1.388 . S
C2498 C2499 1.366 . S
C2499 C2498 1.366 . S
C2499 C2500 1.414 . S
C2499 C2502 1.499 . S
C2500 H2480 0.950 . S
C2500 C2499 1.414 . S
C2500 C2501 1.374 . S
C2501 H2481 0.950 . S
C2501 C2497 1.385 . S
C2501 C2500 1.374 . S
C2502 C2499 1.499 . S
C2502 C2503 1.373 . S
C2502 C2504 1.389 . S
C2503 H2482 0.950 . S
C2503 C2502 1.373 . S
C2503 C2519 1.377 1_556 S
C2504 C2502 1.389 . S
C2504 C2505 1.524 . S
C2504 C2518 1.377 1_556 S
C2505 C2504 1.524 . S
C2505 C2506 1.397 . S
C2505 C2510 1.363 . S
C2506 H2483 0.950 . S
C2506 C2505 1.397 . S
C2506 C2507 1.334 . S
C2507 H2484 0.950 . S
C2507 C2506 1.334 . S
C2507 C2508 1.287 . S
C2508 C2507 1.287 . S
C2508 C2509 1.524 . S
C2508 H2527 0.913 . S
C2509 H2485 0.950 . S
C2509 C2508 1.524 . S
C2509 C2510 1.415 . S
C2510 H2486 0.950 . S
C2510 C2505 1.363 . S
C2510 C2509 1.415 . S
C2511 H2487 0.951 . S
C2511 C2512 1.366 . S
C2511 C2513 1.388 . S
C2512 C2511 1.366 . S
C2512 C2516 1.385 . S
C2513 H2488 0.951 . S
C2513 C2511 1.388 . S
C2513 C2514 1.366 . S
C2514 C2513 1.366 . S
C2514 C2515 1.414 . S
C2514 C2517 1.499 . S
C2515 H2489 0.950 . S
C2515 C2514 1.414 . S
C2515 C2516 1.374 . S
C2516 H2490 0.950 . S
C2516 C2512 1.385 . S
C2516 C2515 1.374 . S
C2517 C2514 1.499 . S
C2517 C2518 1.373 . S
C2517 C2519 1.389 . S
C2518 H2491 0.950 . S
C2518 C2504 1.377 1_554 S
C2518 C2517 1.373 . S
C2519 C2503 1.377 1_554 S
C2519 C2517 1.389 . S
C2519 C2520 1.524 . S
C2520 C2519 1.524 . S
C2520 C2521 1.397 . S
C2520 C2525 1.363 . S
C2521 H2492 0.950 . S
C2521 C2520 1.397 . S
C2521 C2522 1.334 . S
C2522 H2493 0.950 . S
C2522 C2521 1.334 . S
C2522 C2523 1.287 . S
C2523 C2522 1.287 . S
C2523 C2524 1.524 . S
C2523 H2526 0.999 . S
C2524 H2494 0.950 . S
C2524 C2523 1.524 . S
C2524 C2525 1.415 . S
C2525 H2495 0.950 . S
C2525 C2520 1.363 . S
C2525 C2524 1.415 . S
H2526 C2523 0.999 . S
H2527 C2508 0.913 . S
C547 C84 0.186 . S
C562 C18 0.187 . S
C597 C51 0.187 . S
C612 C117 0.186 . S
C647 C216 0.187 . S
C662 C150 0.186 . S
C697 C249 0.187 . S
C712 C183 0.186 . S
C747 C282 0.188 . S
C762 C348 0.188 . S
C797 C381 0.187 . S
C812 C315 0.188 . S
C847 C480 0.186 . S
C862 C414 0.186 . S
C897 C447 0.186 . S
C912 C513 0.187 . S
C947 N13 1.791 . S
C962 N508 1.791 . S
C997 N409 1.791 . S
C1012 N46 1.791 . S
C1047 N442 1.791 . S
C1062 N79 1.791 . S
C1097 N475 1.792 . S
C1112 N112 1.791 . S
C1147 N310 1.791 . S
C1162 N145 1.791 . S
C1197 N343 1.791 . S
C1212 N178 1.791 . S
C1247 N376 1.791 . S
C1262 N211 1.791 . S
C1297 N277 1.791 . S
C1312 N244 1.792 . S
C1347 C7 1.272 . S
C1362 C120 1.275 . S
C1397 C21 1.274 . S
C1412 C40 1.271 . S
C1447 C73 1.271 . S
C1462 C54 1.274 . S
C1497 C87 1.275 . S
C1512 C106 1.271 . S
C1547 C186 1.275 . S
C1562 C139 1.271 . S
C1597 C172 1.271 . S
C1612 C219 1.275 . S
C1647 C252 1.275 . S
C1662 C205 1.272 . S
C1697 C153 1.274 . S
C1712 C238 1.272 . S
C1747 C271 1.272 . S
C1762 C384 1.275 . S
C1797 C285 1.275 . S
C1812 C304 1.271 . S
C1847 C337 1.271 . S
C1862 C318 1.275 . S
C1897 C370 1.272 . S
C1912 C351 1.274 . S
C1947 C403 1.272 . S
C1962 C450 1.274 . S
C1997 C483 1.274 . S
C2012 C436 1.271 . S
C2047 C516 1.275 . S
C2062 C469 1.272 . S
C2097 C502 1.271 . S
C2112 C417 1.275 . S
C2147 N2 1.603 . S
C2162 N200 1.604 . S
C2197 N233 1.603 . S
C2212 N35 1.604 . S
C2247 N134 1.603 . S
C2262 N68 1.604 . S
C2297 N167 1.604 . S
C2312 N101 1.603 . S
C2347 N266 1.604 . S
C2362 N464 1.603 . S
C2397 N497 1.603 . S
C2412 N299 1.604 . S
C2447 N398 1.604 . S
C2462 N332 1.603 . S
C2497 N365 1.604 . S
C2512 N431 1.603 . S
