# Generated by pormake.
# Topology bcg, (8)-cn, num edge types: 1
# Building blocks:
#     Node 0, Type 0, BuildingBlock: NUHRAL_clean_sbu_3, # of connection points: 8
#     Node 1, Type 0, BuildingBlock: NUHRAL_clean_sbu_3, # of connection points: 8
#     Node 2, Type 0, BuildingBlock: NUHRAL_clean_sbu_3, # of connection points: 8
#     Node 3, Type 0, BuildingBlock: NUHRAL_clean_sbu_3, # of connection points: 8
#     Edge 4, Type (0, 0), BuildingBlock: ZUJKAS_clean_linker_0, # of connection points: 2
#     Edge 5, Type (0, 0), BuildingBlock: ZUJKAS_clean_linker_0, # of connection points: 2
#     Edge 6, Type (0, 0), BuildingBlock: ZUJKAS_clean_linker_0, # of connection points: 2
#     Edge 7, Type (0, 0), BuildingBlock: ZUJKAS_clean_linker_0, # of connection points: 2
#     Edge 8, Type (0, 0), BuildingBlock: ZUJKAS_clean_linker_0, # of connection points: 2
#     Edge 9, Type (0, 0), BuildingBlock: ZUJKAS_clean_linker_0, # of connection points: 2
#     Edge 10, Type (0, 0), BuildingBlock: ZUJKAS_clean_linker_0, # of connection points: 2
#     Edge 11, Type (0, 0), BuildingBlock: ZUJKAS_clean_linker_0, # of connection points: 2
#     Edge 12, Type (0, 0), BuildingBlock: ZUJKAS_clean_linker_0, # of connection points: 2
#     Edge 13, Type (0, 0), BuildingBlock: ZUJKAS_clean_linker_0, # of connection points: 2
#     Edge 14, Type (0, 0), BuildingBlock: ZUJKAS_clean_linker_0, # of connection points: 2
#     Edge 15, Type (0, 0), BuildingBlock: ZUJKAS_clean_linker_0, # of connection points: 2
#     Edge 16, Type (0, 0), BuildingBlock: ZUJKAS_clean_linker_0, # of connection points: 2
#     Edge 17, Type (0, 0), BuildingBlock: ZUJKAS_clean_linker_0, # of connection points: 2
#     Edge 18, Type (0, 0), BuildingBlock: ZUJKAS_clean_linker_0, # of connection points: 2
#     Edge 19, Type (0, 0), BuildingBlock: ZUJKAS_clean_linker_0, # of connection points: 2
# Relax obj value: 0.148
# Max RMSD: 0.213
# Mean RMSD: 0.213
data_MOF--net-bcg--node1-NUHRAL_clean_sbu_3--edge1-ZUJKAS_clean_linker_0
_symmetry_space_group_name_H-M    P1
_symmetry_Int_Tables_number       1
_symmetry_cell_setting            triclinic
loop_
_symmetry_equiv_pos_as_xyz
'x, y, z'
_cell_length_a     26.846953
_cell_length_b     25.955646
_cell_length_c     41.058236
_cell_angle_alpha  80.966631
_cell_angle_beta   90.000766
_cell_angle_gamma 90.08196
loop_
_atom_site_label
_atom_site_type_symbol
_atom_site_fract_x
_atom_site_fract_y
_atom_site_fract_z
_atom_type_partial_charge
C0 C 0.10719 0.30475 0.04333 0.0
C1 C 0.06941 0.28343 0.02583 0.0
C2 C 0.02511 0.26526 0.04192 0.0
C3 C 0.0192 0.26889 0.07546 0.0
C4 C 0.05646 0.29047 0.09304 0.0
C5 C 0.1005 0.30848 0.07677 0.0
O6 O 0.24058 0.24673 0.97276 0.0
Tb7 Tb 0.20077 0.31957 0.97485 0.0
O8 O 0.15307 0.32435 0.93175 0.0
O9 O 0.27302 0.18006 0.00793 0.0
Eu10 Eu 0.34517 0.22661 0.00351 0.0
O11 O 0.15336 0.36 0.00257 0.0
C12 C 0.39009 0.21827 0.94871 0.0
O13 O 0.185 0.284 0.02298 0.0
O14 O 0.29885 0.29918 0.00209 0.0
O15 O 0.26666 0.36927 0.97128 0.0
C16 C 0.15474 0.3217 0.02771 0.0
C17 C 0.37297 0.22625 0.07635 0.0
O18 O 0.32535 0.23801 0.07606 0.0
C19 C 0.23344 0.20248 0.99277 0.0
C20 C 0.30645 0.34573 0.98507 0.0
O21 O 0.39366 0.21732 0.04877 0.0
C22 C 0.43903 0.21127 0.93408 0.0
C23 C 0.48694 0.19337 0.88669 0.0
C24 C 0.44097 0.19741 0.90234 0.0
C25 C 0.48341 0.21996 0.95063 0.0
C26 C 0.52945 0.21603 0.93501 0.0
C27 C 0.5308 0.20258 0.90332 0.0
C28 C 0.17139 0.31116 0.90455 0.0
O29 O 0.2184 0.29724 0.90412 0.0
O30 O 0.37174 0.17798 0.96858 0.0
O31 O 0.38191 0.2633 0.95868 0.0
H32 H 0.07451 0.28106 -8e-05 0.0
H33 H 0.98422 0.25721 0.08764 0.0
H34 H 0.12976 0.32496 0.09019 0.0
H35 H 0.40671 0.19108 0.88953 0.0
H36 H 0.48206 0.23078 0.97507 0.0
H37 H 0.56656 0.19856 0.89166 0.0
C38 C 0.61176 0.80704 0.04717 0.0
C39 C 0.56707 0.80069 0.02984 0.0
C40 C 0.52299 0.78409 0.04724 0.0
C41 C 0.52416 0.77482 0.08185 0.0
C42 C 0.56785 0.78181 0.09938 0.0
C43 C 0.61156 0.79746 0.0818 0.0
O44 O 0.71139 0.73839 0.97219 0.0
Tb45 Tb 0.71426 0.81762 0.98313 0.0
O46 O 0.67576 0.84413 0.93737 0.0
O47 O 0.7451 0.69478 0.01978 0.0
Eu48 Eu 0.8151 0.74373 0.01673 0.0
O49 O 0.65409 0.85586 0.00099 0.0
C50 C 0.87287 0.73163 0.96775 0.0
O51 O 0.69779 0.79735 0.03357 0.0
O52 O 0.81624 0.82622 0.02702 0.0
O53 O 0.78088 0.86663 0.97921 0.0
C54 C 0.65829 0.82793 0.03049 0.0
C55 C 0.85981 0.67243 0.07935 0.0
O56 O 0.83804 0.63484 0.06661 0.0
C57 C 0.71358 0.69686 -0.00495 0.0
C58 C 0.81245 0.86687 0.00372 0.0
O59 O 0.85607 0.72086 0.0644 0.0
C60 C 0.91973 0.74845 0.95004 0.0
C61 C 0.96335 0.76415 0.89716 0.0
C62 C 0.91955 0.75254 0.91552 0.0
C63 C 0.96484 0.75625 0.96647 0.0
C64 C 1.00899 0.7691 0.94821 0.0
C65 C 1.00749 0.77298 0.91372 0.0
C66 C 0.69727 0.84048 0.90914 0.0
O67 O 0.74322 0.82306 0.90916 0.0
O68 O 0.87638 0.70332 -0.00283 0.0
O69 O 0.83515 0.76449 0.96474 0.0
H70 H 0.56644 0.80892 0.00315 0.0
H71 H 0.48987 0.76476 0.09533 0.0
H72 H 0.64545 0.80328 0.09515 0.0
H73 H 0.88526 0.74548 0.90295 0.0
H74 H 0.96568 0.75212 0.99314 0.0
H75 H 0.0418 0.78016 0.89981 0.0
C76 C 0.09072 0.70979 0.44429 0.0
C77 C 0.04862 0.72341 0.46134 0.0
C78 C 1.002 0.72717 0.44577 0.0
C79 C 0.99777 0.71662 0.41344 0.0
C80 C 0.03943 0.70233 0.39637 0.0
C81 C 0.08599 0.69879 0.41203 0.0
O82 O 0.22913 0.78261 0.51273 0.0
Tb83 Tb 0.18192 0.71428 0.51294 0.0
O84 O 0.13256 0.70934 0.55513 0.0
O85 O 0.26263 0.85097 0.48026 0.0
Eu86 Eu 0.33055 0.79916 0.485 0.0
O87 O 0.15157 0.6676 0.48071 0.0
C88 C 0.37375 0.80255 0.5411 0.0
O89 O 0.15519 0.75294 0.46795 0.0
O90 O 0.28451 0.72655 0.48385 0.0
O91 O 0.24729 0.6636 0.5191 0.0
C92 C 0.14036 0.70893 0.45905 0.0
C93 C 0.37312 0.77333 0.41895 0.0
O94 O 0.33325 0.74358 0.42226 0.0
C95 C 0.22271 0.82885 0.49491 0.0
C96 C 0.28849 0.68242 0.50433 0.0
O97 O 0.38272 0.80264 0.44159 0.0
C98 C 0.42196 0.79245 0.55734 0.0
C99 C 0.47249 0.78972 0.60673 0.0
C100 C 0.42718 0.80061 0.59013 0.0
C101 C 0.46226 0.7739 0.54078 0.0
C102 C 0.50774 0.76292 0.5572 0.0
C103 C 0.51237 0.7707 0.5901 0.0
C104 C 0.15311 0.70921 0.58418 0.0
O105 O 0.20196 0.71014 0.58611 0.0
O106 O 0.37113 0.84304 0.51746 0.0
O107 O 0.3501 0.76131 0.53425 0.0
H108 H 0.05227 0.73172 0.4863 0.0
H109 H 0.96139 0.718 0.40185 0.0
H110 H 0.11867 0.68852 0.39892 0.0
H111 H 0.3959 0.81504 0.60277 0.0
H112 H 0.45824 0.76814 0.51532 0.0
H113 H 0.54812 0.76434 0.60237 0.0
C114 C 0.61043 0.23277 0.44677 0.0
C115 C 0.56567 0.24143 0.46334 0.0
C116 C 0.52205 0.25705 0.44517 0.0
C117 C 0.52376 0.26313 0.41061 0.0
C118 C 0.56746 0.25347 0.39387 0.0
C119 C 0.61073 0.2388 0.41215 0.0
O120 O 0.70773 0.30255 0.52409 0.0
Tb121 Tb 0.70918 0.22312 0.51346 0.0
O122 O 0.66641 0.20126 0.55825 0.0
O123 O 0.73801 0.3452 0.47524 0.0
Eu124 Eu 0.80881 0.29782 0.4773 0.0
O125 O 0.65151 0.18389 0.49339 0.0
C126 C 0.87 0.31447 0.52362 0.0
O127 O 0.69482 0.24542 0.46288 0.0
O128 O 0.81009 0.21412 0.46933 0.0
O129 O 0.77657 0.1754 0.51829 0.0
C130 C 0.65657 0.21321 0.46438 0.0
C131 C 0.82537 0.30959 0.40138 0.0
O132 O 0.78182 0.28612 0.40343 0.0
C133 C 0.70798 0.34338 0.5007 0.0
C134 C 0.80782 0.17468 0.4936 0.0
O135 O 0.84576 0.32164 0.42825 0.0
C136 C 0.91852 0.29988 0.53976 0.0
C137 C 0.96797 0.29228 0.5902 0.0
C138 C 0.92209 0.30038 0.57389 0.0
C139 C 0.96183 0.29033 0.52189 0.0
C140 C 1.0078 0.28022 0.53842 0.0
C141 C 1.01008 0.28119 0.57243 0.0
C142 C 0.66253 0.15296 0.5735 0.0
O143 O 0.68615 0.11546 0.56186 0.0
O144 O 0.87082 0.34112 0.49363 0.0
O145 O 0.83301 0.28073 0.52875 0.0
H146 H 0.56463 0.23568 0.49005 0.0
H147 H 0.48978 0.2725 0.39666 0.0
H148 H 0.64461 0.23091 0.39941 0.0
H149 H 0.88951 0.3096 0.58749 0.0
H150 H 0.95988 0.29102 0.49546 0.0
H151 H 0.04554 0.27474 0.58509 0.0
H152 H 0.56771 0.16488 0.99276 0.0
H153 H 0.65425 0.16954 0.01201 0.0
H154 H 0.68524 0.29152 0.93035 0.0
H155 H 0.59929 0.28718 0.91139 0.0
H156 H 0.73818 0.15073 0.97286 0.0
H157 H 0.74651 0.34748 0.0092 0.0
H158 H 0.68847 0.31393 0.00496 0.0
H159 H 0.72 0.34732 0.96908 0.0
C160 C 0.59276 0.19372 0.97967 0.0
C161 C 0.57713 0.2259 0.95079 0.0
C162 C 0.64211 0.19602 0.99042 0.0
C163 C 0.67598 0.23101 0.97264 0.0
C164 C 0.65955 0.26479 0.94469 0.0
H165 H 0.98677 0.3099 0.98254 0.0
H166 H 0.90387 0.29409 0.9613 0.0
C167 C 0.61055 0.26231 0.93389 0.0
C168 C 0.72941 0.22999 0.98149 0.0
H169 H 0.82412 0.3072 0.00096 0.0
C170 C 0.75704 0.18471 0.97931 0.0
C171 C 0.75377 0.27451 0.98964 0.0
C172 C 0.72562 0.32341 0.99368 0.0
C173 C 0.80883 0.18327 0.98429 0.0
C174 C 0.83327 0.22816 0.99192 0.0
C175 C 0.80543 0.27312 0.9945 0.0
C176 C 0.88712 0.22899 -0.00046 0.0
C177 C 0.83701 0.1342 0.98067 0.0
C178 C 0.906 0.196 0.02705 0.0
C179 C 0.95334 0.20477 0.03904 0.0
C180 C 0.98242 0.24695 0.02391 0.0
C181 C 0.96533 0.27696 0.99461 0.0
C182 C 0.91785 0.26819 0.98261 0.0
H183 H 0.81628 0.11005 0.96512 0.0
H184 H 0.8744 0.14333 0.96968 0.0
H185 H 0.84215 0.11044 0.00536 0.0
H186 H 0.88281 0.16598 0.04077 0.0
H187 H 0.9658 0.18089 0.06157 0.0
H188 H 0.0752 0.84903 0.93334 0.0
H189 H 0.16247 0.8512 0.95029 0.0
H190 H 0.14265 0.70478 0.01487 0.0
H191 H 0.05505 0.70221 -0.0024 0.0
H192 H 0.21099 0.84783 0.0112 0.0
H193 H 0.25644 0.67398 0.95345 0.0
H194 H 0.1985 0.70899 0.94581 0.0
H195 H 0.20736 0.66456 0.98356 0.0
C196 C 0.08921 0.81772 0.9516 0.0
C197 C 0.05825 0.77532 0.96403 0.0
C198 C 0.13918 0.81894 0.96122 0.0
C199 C 0.15961 0.7776 0.98329 0.0
C200 C 0.12806 0.73665 -0.00272 0.0
H201 H 0.45694 0.70329 0.05838 0.0
H202 H 0.36999 0.70272 0.04081 0.0
C203 C 0.0778 0.73553 0.98777 0.0
C204 C 0.21421 0.7768 0.99046 0.0
H205 H 0.32149 0.70897 0.98206 0.0
C206 C 0.23517 0.81751 0.00479 0.0
C207 C 0.24594 0.73744 0.98189 0.0
C208 C 0.22618 0.69395 0.96506 0.0
C209 C 0.28658 0.8193 0.01151 0.0
C210 C 0.31837 0.77995 0.00293 0.0
C211 C 0.29737 0.73931 0.98849 0.0
C212 C 0.37295 0.77869 0.01041 0.0
C213 C 0.30608 0.86254 0.02868 0.0
C214 C 0.40463 0.8205 -0.002 0.0
C215 C 0.4547 0.82088 0.00803 0.0
C216 C 0.47404 0.77936 0.03062 0.0
C217 C 0.44309 0.73609 0.04117 0.0
C218 C 0.39327 0.73573 0.03117 0.0
H219 H 0.27575 0.8816 0.04081 0.0
H220 H 0.33429 0.84757 0.04758 0.0
H221 H 0.32405 0.89272 0.01026 0.0
H222 H 0.39028 0.85355 0.98126 0.0
H223 H 0.47743 0.85484 -0.00045 0.0
H224 H 0.5448 0.81039 0.49835 0.0
H225 H 0.62919 0.80067 0.47745 0.0
H226 H 0.6569 0.67516 0.55751 0.0
H227 H 0.57236 0.68387 0.57795 0.0
H228 H 0.7094 0.81833 0.51686 0.0
H229 H 0.72283 0.62241 0.47989 0.0
H230 H 0.66378 0.65277 0.48599 0.0
H231 H 0.69874 0.62091 0.52078 0.0
C232 C 0.56826 0.77936 0.51065 0.0
C233 C 0.55244 0.74815 0.53987 0.0
C234 C 0.6165 0.77413 0.49888 0.0
C235 C 0.64922 0.7373 0.516 0.0
C236 C 0.63208 0.7034 0.54371 0.0
H237 H 0.96635 0.67773 0.50454 0.0
H238 H 0.88161 0.68463 0.52593 0.0
C239 C 0.58393 0.70859 0.55546 0.0
C240 C 0.70281 0.73903 0.50778 0.0
H241 H 0.79977 0.66558 0.48749 0.0
C242 C 0.72914 0.78509 0.51015 0.0
C243 C 0.72846 0.69532 0.49962 0.0
C244 C 0.7019 0.64522 0.49611 0.0
C245 C 0.78066 0.78852 0.50482 0.0
C246 C 0.80627 0.74496 0.49643 0.0
C247 C 0.78001 0.69879 0.49422 0.0
C248 C 0.8596 0.74734 0.48749 0.0
C249 C 0.80728 0.83846 0.50862 0.0
C250 C 0.87553 0.78154 0.45956 0.0
C251 C 0.92365 0.77773 0.44746 0.0
C252 C 0.95646 0.73952 0.46305 0.0
C253 C 0.94174 0.70774 0.49232 0.0
C254 C 0.89339 0.7114 0.50436 0.0
H255 H 0.78621 0.86124 0.52479 0.0
H256 H 0.84519 0.83056 0.51901 0.0
H257 H 0.81091 0.86296 0.48404 0.0
H258 H 0.84987 0.80906 0.44595 0.0
H259 H 0.93436 0.80263 0.42483 0.0
H260 H 0.07097 0.19777 0.55158 0.0
H261 H 0.15813 0.1943 0.53455 0.0
H262 H 0.14086 0.34196 0.47092 0.0
H263 H 0.0534 0.34575 0.48831 0.0
H264 H 0.20884 0.19802 0.47501 0.0
H265 H 0.25263 0.37166 0.53351 0.0
H266 H 0.19413 0.33724 0.53993 0.0
H267 H 0.20504 0.38169 0.50242 0.0
C268 C 0.08543 0.22884 0.53329 0.0
C269 C 0.05536 0.27202 0.52125 0.0
C270 C 0.13536 0.22697 0.5237 0.0
C271 C 0.15659 0.26847 0.50209 0.0
C272 C 0.12569 0.30998 0.4882 0.0
H273 H 0.45785 0.33897 0.43197 0.0
H274 H 0.37013 0.3413 0.44778 0.0
C275 C 0.07549 0.31176 0.49771 0.0
C276 C 0.21142 0.26917 0.49568 0.0
H277 H 0.31861 0.33648 0.50593 0.0
C278 C 0.23283 0.22828 0.48179 0.0
C279 C 0.24296 0.30842 0.50476 0.0
C280 C 0.22276 0.35204 0.52126 0.0
C281 C 0.28451 0.22615 0.47609 0.0
C282 C 0.31606 0.26536 0.48522 0.0
C283 C 0.29463 0.30625 0.4991 0.0
C284 C 0.37098 0.26598 0.47902 0.0
C285 C 0.30463 0.18262 0.45948 0.0
C286 C 0.40166 0.22408 0.49259 0.0
C287 C 0.45214 0.22279 0.48366 0.0
C288 C 0.47287 0.26345 0.46102 0.0
C289 C 0.4429 0.30692 0.44933 0.0
C290 C 0.39266 0.30823 0.45829 0.0
H291 H 0.27479 0.16358 0.44684 0.0
H292 H 0.33372 0.19729 0.44111 0.0
H293 H 0.32169 0.1525 0.47833 0.0
H294 H 0.3862 0.19158 0.50931 0.0
H295 H 0.47413 0.18868 0.49294 0.0
H296 H 0.70472 0.60433 0.0377 0.0
H297 H 0.64446 0.53402 0.03498 0.0
H298 H 0.58331 0.61996 0.94555 0.0
H299 H 0.64348 0.68966 0.94773 0.0
H300 H 0.54285 0.54034 0.03679 0.0
H301 H 0.60034 0.47642 0.92011 0.0
H302 H 0.63931 0.51694 0.94151 0.0
H303 H 0.58967 0.54541 0.91519 0.0
C304 C 0.67887 0.60794 0.01722 0.0
C305 C 0.6792 0.65261 0.99286 0.0
C306 C 0.64442 0.56773 0.01572 0.0
C307 C 0.6099 0.57121 0.98974 0.0
C308 C 0.61036 0.61564 0.96536 0.0
H309 H 0.3346 0.43365 0.94355 0.0
H310 H 0.41238 0.48274 0.94487 0.0
C311 C 0.64469 0.65574 0.96681 0.0
C312 C 0.5711 0.53038 0.98911 0.0
H313 H 0.51806 0.45106 0.93964 0.0
C314 C 0.53793 0.52016 0.0158 0.0
C315 C 0.56467 0.504 0.9617 0.0
C316 C 0.60071 0.51082 0.93316 0.0
C317 C 0.49726 0.48618 0.01516 0.0
C318 C 0.48983 0.46135 0.98723 0.0
C319 C 0.52374 0.47033 0.96095 0.0
C320 C 0.44539 0.42834 0.98423 0.0
C321 C 0.46132 0.47869 0.04379 0.0
C322 C 0.43883 0.38068 0.00525 0.0
C323 C 0.39448 0.35246 0.00444 0.0
C324 C 0.35597 0.37136 0.98259 0.0
C325 C 0.36355 0.41801 0.96064 0.0
C326 C 0.40797 0.44609 0.96135 0.0
H327 H 0.46773 0.5072 0.06091 0.0
H328 H 0.42229 0.48258 0.03479 0.0
H329 H 0.46582 0.43882 0.05785 0.0
H330 H 0.46744 0.36606 0.02289 0.0
H331 H 0.38958 0.31701 0.02184 0.0
H332 H 0.68013 0.42196 0.45141 0.0
H333 H 0.61448 0.48701 0.4535 0.0
H334 H 0.58804 0.42594 0.55583 0.0
H335 H 0.65309 0.36063 0.55398 0.0
H336 H 0.51066 0.45704 0.47336 0.0
H337 H 0.59931 0.59023 0.54989 0.0
H338 H 0.63483 0.54762 0.52786 0.0
H339 H 0.6038 0.52168 0.56559 0.0
C340 C 0.66088 0.42286 0.47449 0.0
C341 C 0.67187 0.38606 0.50252 0.0
C342 C 0.62334 0.45998 0.47561 0.0
C343 C 0.59675 0.4615 0.50489 0.0
C344 C 0.60855 0.42581 0.53312 0.0
H345 H 0.30334 0.5828 0.53581 0.0
H346 H 0.37964 0.53092 0.53706 0.0
C347 C 0.64562 0.38837 0.53194 0.0
C348 C 0.5541 0.4976 0.50539 0.0
H349 H 0.51248 0.6016 0.53947 0.0
C350 C 0.51109 0.48881 0.48766 0.0
C351 C 0.55496 0.53908 0.52398 0.0
C352 C 0.60078 0.55073 0.54277 0.0
C353 C 0.46841 0.51972 0.48861 0.0
C354 C 0.46869 0.56028 0.50797 0.0
C355 C 0.51219 0.57004 0.525 0.0
C356 C 0.42409 0.59317 0.5103 0.0
C357 C 0.42334 0.50892 0.46876 0.0
C358 C 0.42434 0.64585 0.49593 0.0
C359 C 0.38074 0.67548 0.49507 0.0
C360 C 0.33623 0.65328 0.50891 0.0
C361 C 0.33689 0.6012 0.52485 0.0
C362 C 0.38039 0.57139 0.52545 0.0
H363 H 0.43255 0.48388 0.45 0.0
H364 H 0.39475 0.48845 0.48557 0.0
H365 H 0.4068 0.54591 0.45611 0.0
H366 H 0.45779 0.66356 0.48435 0.0
H367 H 0.38181 0.71549 0.48306 0.0
H368 H 0.20538 0.11661 0.03687 0.0
H369 H 0.12453 0.07191 0.04027 0.0
H370 H 0.06701 0.18942 0.9637 0.0
H371 H 0.14776 0.23303 0.95962 0.0
H372 H 0.02313 0.10637 0.05064 0.0
H373 H 0.05145 0.0513 0.92632 0.0
H374 H 0.10153 0.07509 0.94926 0.0
H375 H 0.05623 0.11966 0.92874 0.0
C376 C 0.17538 0.13322 0.02098 0.0
C377 C 0.18314 0.17854 -0.00217 0.0
C378 C 0.12915 0.10772 0.02303 0.0
C379 C 0.08999 0.12692 0.00188 0.0
C380 C 0.09692 0.17342 0.9799 0.0
H381 H 0.81745 0.95965 0.96071 0.0
H382 H 0.87858 0.03003 0.96082 0.0
C383 C 0.14307 0.19869 0.97778 0.0
C384 C 0.04321 0.09648 0.00129 0.0
H385 H 0.9773 0.02341 0.95387 0.0
C386 C 1.0128 0.08856 0.02942 0.0
C387 C 0.02964 0.07361 0.97344 0.0
C388 C 0.06147 0.07987 0.94276 0.0
C389 C 0.96943 0.05786 0.03058 0.0
C390 C 0.95708 0.03301 0.00329 0.0
C391 C 0.98666 0.04242 0.97478 0.0
C392 C 0.91676 0.99327 0.00482 0.0
C393 C 0.93723 0.05236 0.06105 0.0
C394 C 0.91796 0.94905 0.02933 0.0
C395 C 0.88315 0.90904 0.02939 0.0
C396 C 0.84656 0.91178 0.00462 0.0
C397 C 0.84497 0.95633 0.9802 0.0
C398 C 0.87986 0.99662 0.98026 0.0
H399 H 0.94166 0.08629 0.07425 0.0
H400 H 0.89728 0.04849 0.05485 0.0
H401 H 0.94864 0.01702 0.07823 0.0
H402 H 0.94695 0.94452 0.04788 0.0
H403 H 0.88594 0.87523 0.04845 0.0
H404 H 0.87748 0.1643 0.44682 0.0
H405 H 0.94071 0.09702 0.44783 0.0
H406 H 0.88305 0.01802 0.54033 0.0
H407 H 0.81901 0.08584 0.53971 0.0
H408 H 1.01156 0.07472 0.50242 0.0
H409 H 0.90282 0.90122 0.47935 0.0
H410 H 0.87972 0.96697 0.4681 0.0
H411 H 0.88002 0.937 0.51052 0.0
C412 C 0.87759 0.13243 0.4673 0.0
C413 C 0.84311 0.1307 0.49329 0.0
C414 C 0.91387 0.09391 0.46776 0.0
C415 C 0.9164 0.05242 0.49401 0.0
C416 C 0.88131 0.04946 0.51963 0.0
H417 H 0.1415 0.80793 0.5348 0.0
H418 H 0.06489 0.85909 0.53436 0.0
C419 C 0.84489 0.08833 0.51929 0.0
C420 C 0.95851 0.01518 0.49549 0.0
H421 H 0.98933 0.89 0.48758 0.0
C422 C 1.00671 0.03429 0.49927 0.0
C423 C 0.95197 0.96244 0.49158 0.0
C424 C 0.90094 0.94041 0.48696 0.0
C425 C 0.04869 1.00224 0.49902 0.0
C426 C 0.04243 0.94985 0.49404 0.0
C427 C 0.99408 0.93028 0.49106 0.0
C428 C 0.08591 0.9152 0.49189 0.0
C429 C 0.09935 0.02473 0.50448 0.0
C430 C 0.12231 0.92852 0.46743 0.0
C431 C 0.166 0.89919 0.4676 0.0
C432 C 0.1738 0.85553 0.49197 0.0
C433 C 0.13618 0.84073 0.51541 0.0
C434 C 0.09252 0.87018 0.51531 0.0
H435 H 0.09658 0.05982 0.51678 0.0
H436 H 0.12331 0.9955 0.51972 0.0
H437 H 0.11786 0.03656 0.4803 0.0
H438 H 0.11751 0.9625 0.4487 0.0
H439 H 0.19418 0.91146 0.44912 0.0
H440 H 0.524 0.32635 0.3472 0.0
H441 H 0.50663 0.31851 0.28972 0.0
H442 H 0.58948 0.17463 0.30074 0.0
H443 H 0.60581 0.18141 0.35863 0.0
H444 H 0.56454 0.30636 0.23351 0.0
H445 H 0.44739 0.13222 0.2777 0.0
H446 H 0.47008 0.17501 0.30503 0.0
H447 H 0.51125 0.12864 0.29096 0.0
C448 C 0.53903 0.29335 0.33727 0.0
C449 C 0.56564 0.25411 0.3576 0.0
C450 C 0.52933 0.28907 0.30438 0.0
C451 C 0.54598 0.2455 0.29116 0.0
C452 C 0.57564 0.20816 0.31064 0.0
H453 H 0.4741 0.21373 0.08474 0.0
H454 H 0.52203 0.21558 0.13551 0.0
C455 C 0.58535 0.21237 0.34362 0.0
C456 C 0.52814 0.23717 0.25818 0.0
H457 H 0.44942 0.16121 0.22067 0.0
C458 C 0.53993 0.27426 0.23053 0.0
C459 C 0.49551 0.19556 0.25454 0.0
C460 C 0.47985 0.15571 0.28359 0.0
C461 C 0.51902 0.27149 0.19944 0.0
C462 C 0.48585 0.23031 0.19598 0.0
C463 C 0.47516 0.1925 0.22342 0.0
C464 C 0.45784 0.22851 0.16505 0.0
C465 C 0.53065 0.31388 0.1709 0.0
C466 C 0.4059 0.23416 0.16503 0.0
C467 C 0.37855 0.23293 0.13627 0.0
C468 C 0.4025 0.22571 0.10688 0.0
C469 C 0.45456 0.21936 0.10699 0.0
C470 C 0.48203 0.22074 0.13589 0.0
H471 H 0.55074 0.34721 0.17889 0.0
H472 H 0.55438 0.29767 0.15284 0.0
H473 H 0.49586 0.32862 0.15808 0.0
H474 H 0.38651 0.24007 0.18729 0.0
H475 H 0.33854 0.23789 0.13712 0.0
H476 H 0.52105 0.70637 0.14276 0.0
H477 H 0.50535 0.7068 0.20132 0.0
H478 H 0.59551 0.84521 0.19777 0.0
H479 H 0.60968 0.84636 0.13875 0.0
H480 H 0.56408 0.70492 0.25701 0.0
H481 H 0.46103 0.89251 0.22798 0.0
H482 H 0.47956 0.85521 0.19649 0.0
H483 H 0.52458 0.89396 0.21423 0.0
C484 C 0.53776 0.73679 0.15446 0.0
C485 C 0.56591 0.77683 0.13595 0.0
C486 C 0.52903 0.73678 0.18799 0.0
C487 C 0.54835 0.77669 0.20372 0.0
C488 C 0.57936 0.81468 0.18592 0.0
H489 H 0.45056 0.83987 0.39856 0.0
H490 H 0.50195 0.84138 0.34892 0.0
C491 C 0.58792 0.8149 0.15227 0.0
C492 C 0.53289 0.78005 0.23802 0.0
H493 H 0.46307 0.85293 0.28336 0.0
C494 C 0.5425 0.73756 0.26287 0.0
C495 C 0.50468 0.8227 0.24563 0.0
C496 C 0.4914 0.86855 0.21971 0.0
C497 C 0.52353 0.73593 0.29489 0.0
C498 C 0.49379 0.77762 0.3021 0.0
C499 C 0.48605 0.82114 0.27772 0.0
C500 C 0.46601 0.77455 0.33352 0.0
C501 C 0.53466 0.68919 0.32061 0.0
C502 C 0.42869 0.73672 0.3411 0.0
C503 C 0.39913 0.73605 0.36911 0.0
C504 C 0.40624 0.77326 0.39015 0.0
C505 C 0.44423 0.81066 0.38285 0.0
C506 C 0.47363 0.81155 0.35457 0.0
H507 H 0.56897 0.66881 0.31449 0.0
H508 H 0.53914 0.7007 0.34538 0.0
H509 H 0.50322 0.66116 0.32175 0.0
H510 H 0.42152 0.70848 0.32484 0.0
H511 H 0.37028 0.70664 0.37402 0.0
H512 H 0.44576 0.87681 0.63258 0.0
H513 H 0.46933 0.89843 0.68663 0.0
H514 H 0.54122 0.74877 0.71092 0.0
H515 H 0.51661 0.72646 0.65764 0.0
H516 H 0.48851 0.77777 0.76323 0.0
H517 H 0.6139 0.93704 0.70452 0.0
H518 H 0.54933 0.94207 0.69296 0.0
H519 H 0.58656 0.89031 0.68156 0.0
C520 C 0.4656 0.84816 0.6498 0.0
C521 C 0.4799 0.8002 0.64083 0.0
C522 C 0.47949 0.86077 0.68046 0.0
C523 C 0.5079 0.82562 0.70242 0.0
C524 C 0.51961 0.7766 0.69421 0.0
H525 H 0.72772 0.82858 0.84727 0.0
H526 H 0.67639 0.83388 0.79771 0.0
C527 C 0.50576 0.764 0.66373 0.0
C528 C 0.52817 0.84002 0.73326 0.0
H529 H 0.61694 0.91569 0.76216 0.0
C530 C 0.51596 0.8085 0.76316 0.0
C531 C 0.56425 0.87994 0.73289 0.0
C532 C 0.57972 0.91417 0.70131 0.0
C533 C 0.54049 0.8142 0.79253 0.0
C534 C 0.5776 0.85307 0.79198 0.0
C535 C 0.58829 0.88612 0.76238 0.0
C536 C 0.60922 0.85614 0.82107 0.0
C537 C 0.52857 0.77665 0.82351 0.0
C538 C 0.58869 0.86842 0.85029 0.0
C539 C 0.61788 0.86523 0.8787 0.0
C540 C 0.66811 0.84991 0.87826 0.0
C541 C 0.68913 0.84025 0.84847 0.0
C542 C 0.6599 0.84337 0.82012 0.0
H543 H 0.50512 0.74351 0.81843 0.0
H544 H 0.56332 0.76079 0.83588 0.0
H545 H 0.50804 0.79756 0.84091 0.0
H546 H 0.54981 0.87911 0.85132 0.0
H547 H 0.60067 0.87333 0.90121 0.0
H548 H 0.43988 0.1143 0.86131 0.0
H549 H 0.45591 0.0866 0.80753 0.0
H550 H 0.55853 0.21472 0.78292 0.0
H551 H 0.54239 0.24279 0.83593 0.0
H552 H 0.45264 0.15123 0.73758 0.0
H553 H 0.63786 0.07276 0.77927 0.0
H554 H 0.58817 0.08172 0.80756 0.0
H555 H 0.62517 0.13646 0.78926 0.0
C556 C 0.46509 0.13699 0.84409 0.0
C557 C 0.49044 0.18025 0.8529 0.0
C558 C 0.47438 0.12101 0.81357 0.0
C559 C 0.50909 0.14813 0.79171 0.0
C560 C 0.53227 0.19283 0.79979 0.0
H561 H 0.6035 0.22082 0.59992 0.0
H562 H 0.55857 0.20578 0.65193 0.0
C563 C 0.52303 0.20877 0.83004 0.0
C564 C 0.52317 0.12979 0.76069 0.0
H565 H 0.62607 0.09482 0.72077 0.0
C566 C 0.49012 0.13763 0.73397 0.0
C567 C 0.57171 0.11104 0.75628 0.0
C568 C 0.60772 0.09947 0.78468 0.0
C569 C 0.50594 0.13149 0.70219 0.0
C570 C 0.55617 0.11811 0.69717 0.0
C571 C 0.58773 0.10565 0.7245 0.0
C572 C 0.57872 0.12426 0.66382 0.0
C573 C 0.46923 0.14129 0.67411 0.0
C574 C 0.60584 0.0836 0.65334 0.0
C575 C 0.63222 0.09227 0.62352 0.0
C576 C 0.63234 0.14192 0.60398 0.0
C577 C 0.60432 0.18211 0.61433 0.0
C578 C 0.578 0.17341 0.64394 0.0
H579 H 0.43071 0.13145 0.68289 0.0
H580 H 0.46987 0.18332 0.66348 0.0
H581 H 0.4785 0.11823 0.65433 0.0
H582 H 0.60739 0.04553 0.66853 0.0
H583 H 0.65347 0.06052 0.61622 0.0
H584 H 0.07601 0.61919 0.37004 0.0
H585 H 0.05647 0.59588 0.31563 0.0
H586 H 0.96858 0.73575 0.29238 0.0
H587 H 0.98813 0.75938 0.3462 0.0
H588 H 0.92001 0.63413 0.28631 0.0
H589 H 0.10091 0.67053 0.21987 0.0
H590 H 0.10008 0.63462 0.2612 0.0
H591 H 0.08543 0.70278 0.25445 0.0
C592 C 0.05337 0.64538 0.35299 0.0
C593 C 0.03323 0.69087 0.36237 0.0
C594 C 0.04214 0.63195 0.32207 0.0
C595 C 1.01097 0.66406 0.3002 0.0
C596 C 0.99247 0.71037 0.30908 0.0
H597 H 0.9156 0.74059 0.10786 0.0
H598 H 0.95659 0.72552 0.16135 0.0
C599 C 1.00359 0.72374 0.3398 0.0
C600 C 0.99488 0.64897 0.26863 0.0
H601 H 0.03126 0.65263 0.18873 0.0
C602 C 0.94443 0.63696 0.26505 0.0
C603 C 0.02706 0.65284 0.24118 0.0
C604 C 0.08145 0.66601 0.24403 0.0
C605 C 0.92451 0.6318 0.23417 0.0
C606 C 0.95617 0.6383 0.20629 0.0
C607 C 1.00726 0.64737 0.21024 0.0
C608 C 0.93557 0.64418 0.17252 0.0
C609 C 0.86918 0.62314 0.2312 0.0
C610 C 0.91087 0.60303 0.16079 0.0
C611 C 0.887 0.61159 0.13008 0.0
C612 C 0.88756 0.66143 0.11078 0.0
C613 C 0.91398 0.70185 0.1222 0.0
C614 C 0.93778 0.69326 0.1527 0.0
H615 H 0.84906 0.62561 0.25455 0.0
H616 H 0.85314 0.65241 0.21135 0.0
H617 H 0.86249 0.58388 0.22459 0.0
H618 H 0.90922 0.56471 0.17566 0.0
H619 H 0.86723 0.57959 0.12184 0.0
H620 H 0.79552 0.28643 0.3417 0.0
H621 H 0.84485 0.29265 0.29116 0.0
H622 H 0.96763 0.35715 0.33927 0.0
H623 H 0.91879 0.35072 0.39007 0.0
H624 H 0.89282 0.38064 0.2527 0.0
H625 H 0.0263 0.22651 0.30654 0.0
H626 H 0.96712 0.23621 0.32553 0.0
H627 H 0.01788 0.28015 0.32889 0.0
C628 C 0.83287 0.3023 0.3415 0.0
C629 C 0.85337 0.31769 0.36997 0.0
C630 C 0.86096 0.30587 0.3126 0.0
C631 C 0.91004 0.32466 0.31171 0.0
C632 C 0.93006 0.34179 0.33968 0.0
H633 H 0.07133 0.37681 0.12252 0.0
H634 H 0.04343 0.38953 0.17765 0.0
C635 C 0.90198 0.33829 0.36861 0.0
C636 C 0.94048 0.32469 0.28169 0.0
H637 H 0.03871 0.26389 0.25111 0.0
C638 C 0.92508 0.35562 0.25233 0.0
C639 C 0.98228 0.29164 0.28144 0.0
C640 C 0.99938 0.25637 0.31217 0.0
C641 C 0.94968 0.35348 0.22243 0.0
C642 C 0.99113 0.31994 0.22209 0.0
C643 C 1.00725 0.28993 0.25161 0.0
C644 C 0.01451 0.31115 0.1908 0.0
C645 C 0.92971 0.38522 0.19121 0.0
C646 C 1.00964 0.26221 0.18074 0.0
C647 C 0.02582 0.25477 0.14955 0.0
C648 C 0.0473 0.29614 0.12788 0.0
C649 C 0.05501 0.34425 0.13877 0.0
C650 C 0.03868 0.3517 0.17006 0.0
H651 H 0.89244 0.40193 0.19493 0.0
H652 H 0.95563 0.41795 0.1828 0.0
H653 H 0.92689 0.36095 0.17129 0.0
H654 H 0.99137 0.23034 0.19649 0.0
H655 H 0.02001 0.21711 0.14192 0.0
H656 H 0.07279 0.3382 0.89638 0.0
H657 H 0.0205 0.3339 0.84782 0.0
H658 H 0.14542 0.27588 0.79849 0.0
H659 H 0.19767 0.27988 0.8466 0.0
H660 H 0.0361 0.38512 0.78225 0.0
H661 H 0.03356 0.17057 0.78859 0.0
H662 H 0.05086 0.20187 0.82327 0.0
H663 H 0.09537 0.19604 0.79129 0.0
C664 C 0.08906 0.32442 0.8752 0.0
C665 C 0.1394 0.30934 0.87536 0.0
C666 C 0.05911 0.32191 0.84754 0.0
C667 C 0.07889 0.30369 0.81982 0.0
C668 C 0.12914 0.28898 0.8199 0.0
H669 H 0.03723 0.35034 0.61614 0.0
H670 H 0.05273 0.35494 0.67412 0.0
C671 C 0.15907 0.29168 0.84737 0.0
C672 C 0.0482 0.30208 0.78999 0.0
H673 H 0.01474 0.22124 0.73567 0.0
C674 C 0.03051 0.34918 0.77234 0.0
C675 C 0.04009 0.25506 0.77741 0.0
C676 C 0.05551 0.20293 0.7963 0.0
C677 C 1.00817 0.35094 0.74126 0.0
C678 C 1.00403 0.30451 0.72741 0.0
C679 C 0.01836 0.25692 0.74615 0.0
C680 C 0.99072 0.30523 0.69229 0.0
C681 C 0.99052 0.40275 0.72312 0.0
C682 C 0.95088 0.27532 0.68317 0.0
C683 C 0.94205 0.27241 0.64984 0.0
C684 C 0.97355 0.29861 0.6253 0.0
C685 C 1.01263 0.32936 0.63456 0.0
C686 C 0.02119 0.33251 0.66767 0.0
H687 H 0.98056 0.42978 0.74056 0.0
H688 H 0.02098 0.42114 0.70705 0.0
H689 H 0.95772 0.39791 0.7074 0.0
H690 H 0.92724 0.25355 0.70185 0.0
H691 H 0.91183 0.24827 0.64334 0.0
H692 H 0.18586 0.70443 0.64732 0.0
H693 H 0.13683 0.71054 0.69648 0.0
H694 H 1.0023 0.72409 0.6384 0.0
H695 H 0.05145 0.71852 0.5886 0.0
H696 H 1.00985 0.79821 0.68129 0.0
H697 H 0.04628 0.59957 0.74774 0.0
H698 H 0.10265 0.63307 0.73366 0.0
H699 H 0.05767 0.61773 0.70409 0.0
C700 C 0.14581 0.7083 0.64491 0.0
C701 C 0.12253 0.71069 0.61404 0.0
C702 C 0.11779 0.7115 0.67313 0.0
C703 C 0.06585 0.71685 0.67121 0.0
C704 C 0.04233 0.7195 0.64044 0.0
H705 H 0.91944 0.69291 0.86355 0.0
H706 H 0.93218 0.6832 0.80583 0.0
C707 C 0.07043 0.71618 0.61206 0.0
C708 C 0.03701 0.72175 0.70137 0.0
H709 H 0.02037 0.66326 0.78099 0.0
C710 C 1.01133 0.76837 0.70295 0.0
C711 C 0.03812 0.68243 0.72942 0.0
C712 C 0.06222 0.63016 0.72859 0.0
C713 C 0.98947 0.778 0.73252 0.0
C714 C 0.99422 0.74037 0.76129 0.0
C715 C 0.01715 0.69244 0.75908 0.0
C716 C 0.9796 0.75114 0.79447 0.0
C717 C 0.96214 0.82868 0.7327 0.0
C718 C 1.00116 0.79315 0.80714 0.0
C719 C 0.99353 0.7991 0.84 0.0
C720 C 0.96469 0.76275 0.86106 0.0
C721 C 0.94137 0.72196 0.84795 0.0
C722 C 0.94889 0.71614 0.815 0.0
H723 H 0.94657 0.84373 0.70797 0.0
H724 H 0.93133 0.82412 0.75098 0.0
H725 H 0.98859 0.85834 0.73921 0.0
H726 H 0.02587 0.82004 0.79209 0.0
H727 H 1.01167 0.83119 0.84926 0.0
loop_
_geom_bond_atom_site_label_1
_geom_bond_atom_site_label_2
_geom_bond_distance
_geom_bond_site_symmetry_2
_ccdc_geom_bond_type
C0 C1 1.387 . S
C0 C5 1.380 . S
C0 C16 1.494 . S
C1 C0 1.387 . S
C1 C2 1.386 . S
C1 H32 0.930 . S
C2 C1 1.386 . S
C2 C3 1.397 . S
C3 C2 1.397 . S
C3 C4 1.393 . S
C3 H33 0.930 1_455 S
C4 C3 1.393 . S
C4 C5 1.395 . S
C5 C0 1.380 . S
C5 C4 1.395 . S
C5 H34 0.930 . S
O6 Tb7 2.295 . S
O6 C19 1.242 . S
Tb7 O6 2.295 . S
Tb7 O8 2.312 . S
Tb7 O11 2.438 . S
Tb7 O13 2.472 1_556 S
Tb7 O15 2.308 . S
Tb7 C16 2.821 1_556 S
O8 Tb7 2.312 . S
O8 C28 1.264 . S
O9 Eu10 2.308 . S
O9 C19 1.243 1_554 S
Eu10 O9 2.308 . S
Eu10 C12 2.821 1_554 S
Eu10 O14 2.295 . S
Eu10 O21 2.312 . S
Eu10 O30 2.438 . S
Eu10 O31 2.472 1_554 S
O11 Tb7 2.438 . S
O11 C16 1.263 1_556 S
C12 Eu10 2.821 1_556 S
C12 C22 1.494 . S
C12 O30 1.263 1_556 S
C12 O31 1.264 . S
O13 Tb7 2.472 1_554 S
O13 C16 1.264 . S
O14 Eu10 2.295 . S
O14 C20 1.242 . S
O15 Tb7 2.308 . S
O15 C20 1.243 1_556 S
C16 C0 1.494 . S
C16 Tb7 2.821 1_554 S
C16 O11 1.263 1_554 S
C16 O13 1.264 . S
C17 O18 1.260 . S
C17 O21 1.264 . S
O18 C17 1.260 . S
C19 O6 1.242 . S
C19 O9 1.243 1_556 S
C20 O14 1.242 . S
C20 O15 1.243 1_554 S
O21 Eu10 2.312 . S
O21 C17 1.264 . S
C22 C12 1.494 . S
C22 C24 1.380 . S
C22 C25 1.387 . S
C23 C24 1.395 . S
C23 C27 1.393 . S
C24 C22 1.380 . S
C24 C23 1.395 . S
C24 H35 0.930 . S
C25 C22 1.387 . S
C25 C26 1.386 . S
C25 H36 0.930 . S
C26 C25 1.386 . S
C26 C27 1.397 . S
C27 C23 1.393 . S
C27 C26 1.397 . S
C27 H37 0.930 . S
C28 O8 1.264 . S
C28 O29 1.260 . S
O29 C28 1.260 . S
O30 Eu10 2.438 . S
O30 C12 1.263 1_554 S
O31 Eu10 2.472 1_556 S
O31 C12 1.264 . S
H32 C1 0.930 . S
H33 C3 0.930 1_655 S
H34 C5 0.930 . S
H35 C24 0.930 . S
H36 C25 0.930 . S
H37 C27 0.930 . S
C38 C39 1.387 . S
C38 C43 1.380 . S
C38 C54 1.494 . S
C39 C38 1.387 . S
C39 C40 1.386 . S
C39 H70 0.930 . S
C40 C39 1.386 . S
C40 C41 1.397 . S
C41 C40 1.397 . S
C41 C42 1.393 . S
C41 H71 0.930 . S
C42 C41 1.393 . S
C42 C43 1.395 . S
C43 C38 1.380 . S
C43 C42 1.395 . S
C43 H72 0.930 . S
O44 Tb45 2.295 . S
O44 C57 1.242 . S
Tb45 O44 2.295 . S
Tb45 O46 2.312 . S
Tb45 O49 2.438 . S
Tb45 O51 2.472 1_556 S
Tb45 O53 2.308 . S
Tb45 C54 2.821 1_556 S
O46 Tb45 2.312 . S
O46 C66 1.264 . S
O47 Eu48 2.308 . S
O47 C57 1.243 1_554 S
Eu48 O47 2.308 . S
Eu48 C50 2.821 1_554 S
Eu48 O52 2.295 . S
Eu48 O59 2.312 . S
Eu48 O68 2.438 . S
Eu48 O69 2.472 1_554 S
O49 Tb45 2.438 . S
O49 C54 1.263 1_556 S
C50 Eu48 2.821 1_556 S
C50 C60 1.494 . S
C50 O68 1.263 1_556 S
C50 O69 1.264 . S
O51 Tb45 2.472 1_554 S
O51 C54 1.264 . S
O52 Eu48 2.295 . S
O52 C58 1.242 . S
O53 Tb45 2.308 . S
O53 C58 1.243 1_556 S
C54 C38 1.494 . S
C54 Tb45 2.821 1_554 S
C54 O49 1.263 1_554 S
C54 O51 1.264 . S
C55 O56 1.260 . S
C55 O59 1.264 . S
O56 C55 1.260 . S
C57 O44 1.242 . S
C57 O47 1.243 1_556 S
C58 O52 1.242 . S
C58 O53 1.243 1_554 S
O59 Eu48 2.312 . S
O59 C55 1.264 . S
C60 C50 1.494 . S
C60 C62 1.380 . S
C60 C63 1.387 . S
C61 C62 1.395 . S
C61 C65 1.393 . S
C62 C60 1.380 . S
C62 C61 1.395 . S
C62 H73 0.930 . S
C63 C60 1.387 . S
C63 C64 1.386 . S
C63 H74 0.930 . S
C64 C63 1.386 . S
C64 C65 1.397 . S
C65 C61 1.393 . S
C65 C64 1.397 . S
C65 H75 0.930 1_655 S
C66 O46 1.264 . S
C66 O67 1.260 . S
O67 C66 1.260 . S
O68 Eu48 2.438 . S
O68 C50 1.263 1_554 S
O69 Eu48 2.472 1_556 S
O69 C50 1.264 . S
H70 C39 0.930 . S
H71 C41 0.930 . S
H72 C43 0.930 . S
H73 C62 0.930 . S
H74 C63 0.930 . S
H75 C65 0.930 1_455 S
C76 C77 1.387 . S
C76 C81 1.380 . S
C76 C92 1.494 . S
C77 C76 1.387 . S
C77 C78 1.386 . S
C77 H108 0.930 . S
C78 C77 1.386 . S
C78 C79 1.397 . S
C79 C78 1.397 . S
C79 C80 1.393 . S
C79 H109 0.930 1_455 S
C80 C79 1.393 . S
C80 C81 1.395 . S
C81 C76 1.380 . S
C81 C80 1.395 . S
C81 H110 0.930 . S
O82 Tb83 2.295 . S
O82 C95 1.242 . S
Tb83 O82 2.295 . S
Tb83 O84 2.312 . S
Tb83 O87 2.438 . S
Tb83 O89 2.472 . S
Tb83 O91 2.308 . S
Tb83 C92 2.821 . S
O84 Tb83 2.312 . S
O84 C104 1.264 . S
O85 Eu86 2.308 . S
O85 C95 1.243 . S
Eu86 O85 2.308 . S
Eu86 C88 2.821 . S
Eu86 O90 2.295 . S
Eu86 O97 2.312 . S
Eu86 O106 2.438 . S
Eu86 O107 2.472 . S
O87 Tb83 2.438 . S
O87 C92 1.263 . S
C88 Eu86 2.821 . S
C88 C98 1.494 . S
C88 O106 1.263 . S
C88 O107 1.264 . S
O89 Tb83 2.472 . S
O89 C92 1.264 . S
O90 Eu86 2.295 . S
O90 C96 1.242 . S
O91 Tb83 2.308 . S
O91 C96 1.243 . S
C92 C76 1.494 . S
C92 Tb83 2.821 . S
C92 O87 1.263 . S
C92 O89 1.264 . S
C93 O94 1.260 . S
C93 O97 1.264 . S
O94 C93 1.260 . S
C95 O82 1.242 . S
C95 O85 1.243 . S
C96 O90 1.242 . S
C96 O91 1.243 . S
O97 Eu86 2.312 . S
O97 C93 1.264 . S
C98 C88 1.494 . S
C98 C100 1.380 . S
C98 C101 1.387 . S
C99 C100 1.395 . S
C99 C103 1.393 . S
C100 C98 1.380 . S
C100 C99 1.395 . S
C100 H111 0.930 . S
C101 C98 1.387 . S
C101 C102 1.386 . S
C101 H112 0.930 . S
C102 C101 1.386 . S
C102 C103 1.397 . S
C103 C99 1.393 . S
C103 C102 1.397 . S
C103 H113 0.930 . S
C104 O84 1.264 . S
C104 O105 1.260 . S
O105 C104 1.260 . S
O106 Eu86 2.438 . S
O106 C88 1.263 . S
O107 Eu86 2.472 . S
O107 C88 1.264 . S
H108 C77 0.930 . S
H109 C79 0.930 1_655 S
H110 C81 0.930 . S
H111 C100 0.930 . S
H112 C101 0.930 . S
H113 C103 0.930 . S
C114 C115 1.387 . S
C114 C119 1.380 . S
C114 C130 1.494 . S
C115 C114 1.387 . S
C115 C116 1.386 . S
C115 H146 0.930 . S
C116 C115 1.386 . S
C116 C117 1.397 . S
C117 C116 1.397 . S
C117 C118 1.393 . S
C117 H147 0.930 . S
C118 C117 1.393 . S
C118 C119 1.395 . S
C119 C114 1.380 . S
C119 C118 1.395 . S
C119 H148 0.930 . S
O120 Tb121 2.295 . S
O120 C133 1.242 . S
Tb121 O120 2.295 . S
Tb121 O122 2.312 . S
Tb121 O125 2.438 . S
Tb121 O127 2.472 . S
Tb121 O129 2.308 . S
Tb121 C130 2.821 . S
O122 Tb121 2.312 . S
O122 C142 1.264 . S
O123 Eu124 2.308 . S
O123 C133 1.243 . S
Eu124 O123 2.308 . S
Eu124 C126 2.821 . S
Eu124 O128 2.295 . S
Eu124 O135 2.312 . S
Eu124 O144 2.438 . S
Eu124 O145 2.472 . S
O125 Tb121 2.438 . S
O125 C130 1.263 . S
C126 Eu124 2.821 . S
C126 C136 1.494 . S
C126 O144 1.263 . S
C126 O145 1.264 . S
O127 Tb121 2.472 . S
O127 C130 1.264 . S
O128 Eu124 2.295 . S
O128 C134 1.242 . S
O129 Tb121 2.308 . S
O129 C134 1.243 . S
C130 C114 1.494 . S
C130 Tb121 2.821 . S
C130 O125 1.263 . S
C130 O127 1.264 . S
C131 O132 1.260 . S
C131 O135 1.264 . S
O132 C131 1.260 . S
C133 O120 1.242 . S
C133 O123 1.243 . S
C134 O128 1.242 . S
C134 O129 1.243 . S
O135 Eu124 2.312 . S
O135 C131 1.264 . S
C136 C126 1.494 . S
C136 C138 1.380 . S
C136 C139 1.387 . S
C137 C138 1.395 . S
C137 C141 1.393 . S
C138 C136 1.380 . S
C138 C137 1.395 . S
C138 H149 0.930 . S
C139 C136 1.387 . S
C139 C140 1.386 . S
C139 H150 0.930 . S
C140 C139 1.386 . S
C140 C141 1.397 . S
C141 C137 1.393 . S
C141 C140 1.397 . S
C141 H151 0.930 1_655 S
C142 O122 1.264 . S
C142 O143 1.260 . S
O143 C142 1.260 . S
O144 Eu124 2.438 . S
O144 C126 1.263 . S
O145 Eu124 2.472 . S
O145 C126 1.264 . S
H146 C115 0.930 . S
H147 C117 0.930 . S
H148 C119 0.930 . S
H149 C138 0.930 . S
H150 C139 0.930 . S
H151 C141 0.930 1_455 S
H152 C160 0.929 . S
H153 C162 0.930 . S
H154 C164 0.930 . S
H155 C167 0.929 . S
H156 C170 0.930 . S
H157 C172 0.960 . S
H158 C172 0.960 . S
H159 C172 0.960 . S
C160 H152 0.929 . S
C160 C161 1.377 . S
C160 C162 1.384 . S
C161 C160 1.377 . S
C161 C167 1.390 . S
C162 H153 0.930 . S
C162 C160 1.384 . S
C162 C163 1.372 . S
C163 C162 1.372 . S
C163 C164 1.400 . S
C163 C168 1.490 . S
C164 H154 0.930 . S
C164 C163 1.400 . S
C164 C167 1.386 . S
H165 C181 0.930 . S
H166 C182 0.931 . S
C167 H155 0.929 . S
C167 C161 1.390 . S
C167 C164 1.386 . S
C168 C163 1.490 . S
C168 C170 1.395 . S
C168 C171 1.403 1_556 S
H169 C175 0.930 . S
C170 H156 0.930 . S
C170 C168 1.395 . S
C170 C173 1.403 . S
C171 C168 1.403 1_554 S
C171 C172 1.524 . S
C171 C175 1.400 . S
C172 H157 0.960 . S
C172 H158 0.960 . S
C172 H159 0.960 . S
C172 C171 1.524 . S
C173 C170 1.403 . S
C173 C174 1.392 1_556 S
C173 C177 1.495 . S
C174 C173 1.392 1_554 S
C174 C175 1.385 . S
C174 C176 1.478 . S
C175 H169 0.930 . S
C175 C171 1.400 . S
C175 C174 1.385 . S
C176 C174 1.478 . S
C176 C178 1.381 . S
C176 C182 1.383 . S
C177 C173 1.495 . S
C177 H183 0.959 . S
C177 H184 0.961 . S
C177 H185 0.960 . S
C178 C176 1.381 . S
C178 C179 1.394 . S
C178 H186 0.930 . S
C179 C178 1.394 . S
C179 C180 1.383 . S
C179 H187 0.929 . S
C180 C179 1.383 . S
C180 C181 1.377 . S
C181 H165 0.930 . S
C181 C180 1.377 . S
C181 C182 1.379 . S
C182 H166 0.931 . S
C182 C176 1.383 . S
C182 C181 1.379 . S
H183 C177 0.959 . S
H184 C177 0.961 . S
H185 C177 0.960 . S
H186 C178 0.930 . S
H187 C179 0.929 . S
H188 C196 0.929 . S
H189 C198 0.930 . S
H190 C200 0.919 1_554 S
H191 C203 0.929 1_554 S
H192 C206 0.930 . S
H193 C208 0.960 . S
H194 C208 0.960 1_556 S
H195 C208 0.960 . S
C196 H188 0.929 . S
C196 C197 1.377 . S
C196 C198 1.384 . S
C197 C196 1.377 . S
C197 C203 1.390 . S
C198 H189 0.930 . S
C198 C196 1.384 . S
C198 C199 1.372 . S
C199 C198 1.372 . S
C199 C200 1.407 . S
C199 C204 1.490 . S
C200 H190 0.919 1_556 S
C200 C199 1.407 . S
C200 C203 1.389 . S
H201 C217 0.930 . S
H202 C218 0.931 . S
C203 H191 0.929 1_556 S
C203 C197 1.390 . S
C203 C200 1.389 . S
C204 C199 1.490 . S
C204 C206 1.395 . S
C204 C207 1.403 1_556 S
H205 C211 0.930 . S
C206 H192 0.930 . S
C206 C204 1.395 . S
C206 C209 1.403 . S
C207 C204 1.403 1_554 S
C207 C208 1.524 . S
C207 C211 1.400 . S
C208 H193 0.960 . S
C208 H194 0.960 1_554 S
C208 H195 0.960 . S
C208 C207 1.524 . S
C209 C206 1.403 . S
C209 C210 1.392 1_556 S
C209 C213 1.495 . S
C210 C209 1.392 1_554 S
C210 C211 1.385 . S
C210 C212 1.478 . S
C211 H205 0.930 . S
C211 C207 1.400 . S
C211 C210 1.385 . S
C212 C210 1.478 . S
C212 C214 1.381 1_554 S
C212 C218 1.383 . S
C213 C209 1.495 . S
C213 H219 0.959 . S
C213 H220 0.961 . S
C213 H221 0.960 . S
C214 C212 1.381 1_556 S
C214 C215 1.394 1_556 S
C214 H222 0.930 . S
C215 C214 1.394 1_554 S
C215 C216 1.383 . S
C215 H223 0.929 1_554 S
C216 C215 1.383 . S
C216 C217 1.377 . S
C217 H201 0.930 . S
C217 C216 1.377 . S
C217 C218 1.379 . S
C218 H202 0.931 . S
C218 C212 1.383 . S
C218 C217 1.379 . S
H219 C213 0.959 . S
H220 C213 0.961 . S
H221 C213 0.960 . S
H222 C214 0.930 . S
H223 C215 0.929 1_556 S
H224 C232 0.929 . S
H225 C234 0.930 . S
H226 C236 0.930 . S
H227 C239 0.929 . S
H228 C242 0.930 . S
H229 C244 0.960 . S
H230 C244 0.960 . S
H231 C244 0.960 . S
C232 H224 0.929 . S
C232 C233 1.377 . S
C232 C234 1.384 . S
C233 C232 1.377 . S
C233 C239 1.390 . S
C234 H225 0.930 . S
C234 C232 1.384 . S
C234 C235 1.372 . S
C235 C234 1.372 . S
C235 C236 1.400 . S
C235 C240 1.490 . S
C236 H226 0.930 . S
C236 C235 1.400 . S
C236 C239 1.386 . S
H237 C253 0.930 . S
H238 C254 0.931 . S
C239 H227 0.929 . S
C239 C233 1.390 . S
C239 C236 1.386 . S
C240 C235 1.490 . S
C240 C242 1.395 . S
C240 C243 1.403 . S
H241 C247 0.930 . S
C242 H228 0.930 . S
C242 C240 1.395 . S
C242 C245 1.403 . S
C243 C240 1.403 . S
C243 C244 1.524 . S
C243 C247 1.400 . S
C244 H229 0.960 . S
C244 H230 0.960 . S
C244 H231 0.960 . S
C244 C243 1.524 . S
C245 C242 1.403 . S
C245 C246 1.392 . S
C245 C249 1.495 . S
C246 C245 1.392 . S
C246 C247 1.385 . S
C246 C248 1.478 . S
C247 H241 0.930 . S
C247 C243 1.400 . S
C247 C246 1.385 . S
C248 C246 1.478 . S
C248 C250 1.381 . S
C248 C254 1.383 . S
C249 C245 1.495 . S
C249 H255 0.959 . S
C249 H256 0.961 . S
C249 H257 0.960 . S
C250 C248 1.381 . S
C250 C251 1.394 . S
C250 H258 0.930 . S
C251 C250 1.394 . S
C251 C252 1.383 . S
C251 H259 0.929 . S
C252 C251 1.383 . S
C252 C253 1.377 . S
C253 H237 0.930 . S
C253 C252 1.377 . S
C253 C254 1.379 . S
C254 H238 0.931 . S
C254 C248 1.383 . S
C254 C253 1.379 . S
H255 C249 0.959 . S
H256 C249 0.961 . S
H257 C249 0.960 . S
H258 C250 0.930 . S
H259 C251 0.929 . S
H260 C268 0.929 . S
H261 C270 0.930 . S
H262 C272 0.930 . S
H263 C275 0.929 . S
H264 C278 0.930 . S
H265 C280 0.960 . S
H266 C280 0.960 . S
H267 C280 0.960 . S
C268 H260 0.929 . S
C268 C269 1.377 . S
C268 C270 1.384 . S
C269 C268 1.377 . S
C269 C275 1.390 . S
C270 H261 0.930 . S
C270 C268 1.384 . S
C270 C271 1.372 . S
C271 C270 1.372 . S
C271 C272 1.400 . S
C271 C276 1.490 . S
C272 H262 0.930 . S
C272 C271 1.400 . S
C272 C275 1.386 . S
H273 C289 0.930 . S
H274 C290 0.931 . S
C275 H263 0.929 . S
C275 C269 1.390 . S
C275 C272 1.386 . S
C276 C271 1.490 . S
C276 C278 1.395 . S
C276 C279 1.403 . S
H277 C283 0.930 . S
C278 H264 0.930 . S
C278 C276 1.395 . S
C278 C281 1.403 . S
C279 C276 1.403 . S
C279 C280 1.524 . S
C279 C283 1.400 . S
C280 H265 0.960 . S
C280 H266 0.960 . S
C280 H267 0.960 . S
C280 C279 1.524 . S
C281 C278 1.403 . S
C281 C282 1.392 . S
C281 C285 1.495 . S
C282 C281 1.392 . S
C282 C283 1.385 . S
C282 C284 1.478 . S
C283 H277 0.930 . S
C283 C279 1.400 . S
C283 C282 1.385 . S
C284 C282 1.478 . S
C284 C286 1.381 . S
C284 C290 1.383 . S
C285 C281 1.495 . S
C285 H291 0.959 . S
C285 H292 0.961 . S
C285 H293 0.960 . S
C286 C284 1.381 . S
C286 C287 1.394 . S
C286 H294 0.930 . S
C287 C286 1.394 . S
C287 C288 1.383 . S
C287 H295 0.929 . S
C288 C287 1.383 . S
C288 C289 1.377 . S
C289 H273 0.930 . S
C289 C288 1.377 . S
C289 C290 1.379 . S
C290 H274 0.931 . S
C290 C284 1.383 . S
C290 C289 1.379 . S
H291 C285 0.959 . S
H292 C285 0.961 . S
H293 C285 0.960 . S
H294 C286 0.930 . S
H295 C287 0.929 . S
H296 C304 0.929 . S
H297 C306 0.930 . S
H298 C308 0.930 . S
H299 C311 0.929 . S
H300 C314 0.930 . S
H301 C316 0.960 . S
H302 C316 0.960 . S
H303 C316 0.960 . S
C304 H296 0.929 . S
C304 C305 1.377 1_554 S
C304 C306 1.384 . S
C305 C304 1.377 1_556 S
C305 C311 1.390 . S
C306 H297 0.930 . S
C306 C304 1.384 . S
C306 C307 1.370 1_554 S
C307 C306 1.370 1_556 S
C307 C308 1.401 . S
C307 C312 1.491 1_556 S
C308 H298 0.930 . S
C308 C307 1.401 . S
C308 C311 1.386 . S
H309 C325 0.927 1_556 S
H310 C326 0.931 1_556 S
C311 H299 0.929 . S
C311 C305 1.390 . S
C311 C308 1.386 . S
C312 C307 1.491 1_554 S
C312 C314 1.395 . S
C312 C315 1.403 1_554 S
H313 C319 0.930 . S
C314 H300 0.930 . S
C314 C312 1.395 . S
C314 C317 1.403 . S
C315 C312 1.403 1_556 S
C315 C316 1.524 . S
C315 C319 1.400 . S
C316 H301 0.960 . S
C316 H302 0.960 . S
C316 H303 0.960 . S
C316 C315 1.524 . S
C317 C314 1.403 . S
C317 C318 1.392 . S
C317 C321 1.495 . S
C318 C317 1.392 . S
C318 C319 1.385 1_554 S
C318 C320 1.478 . S
C319 H313 0.930 . S
C319 C315 1.400 . S
C319 C318 1.385 1_556 S
C320 C318 1.478 . S
C320 C322 1.381 . S
C320 C326 1.383 . S
C321 C317 1.495 . S
C321 H327 0.959 . S
C321 H328 0.961 . S
C321 H329 0.960 . S
C322 C320 1.381 . S
C322 C323 1.394 . S
C322 H330 0.930 . S
C323 C322 1.394 . S
C323 C324 1.383 . S
C323 H331 0.929 . S
C324 C323 1.383 . S
C324 C325 1.377 . S
C325 H309 0.927 1_554 S
C325 C324 1.377 . S
C325 C326 1.383 . S
C326 H310 0.931 1_554 S
C326 C320 1.383 . S
C326 C325 1.383 . S
H327 C321 0.959 . S
H328 C321 0.961 . S
H329 C321 0.960 . S
H330 C322 0.930 . S
H331 C323 0.929 . S
H332 C340 0.929 . S
H333 C342 0.930 . S
H334 C344 0.930 . S
H335 C347 0.929 . S
H336 C350 0.930 . S
H337 C352 0.960 . S
H338 C352 0.960 . S
H339 C352 0.960 . S
C340 H332 0.929 . S
C340 C341 1.377 . S
C340 C342 1.384 . S
C341 C340 1.377 . S
C341 C347 1.390 . S
C342 H333 0.930 . S
C342 C340 1.384 . S
C342 C343 1.372 . S
C343 C342 1.372 . S
C343 C344 1.400 . S
C343 C348 1.490 . S
C344 H334 0.930 . S
C344 C343 1.400 . S
C344 C347 1.386 . S
H345 C361 0.930 . S
H346 C362 0.931 . S
C347 H335 0.929 . S
C347 C341 1.390 . S
C347 C344 1.386 . S
C348 C343 1.490 . S
C348 C350 1.395 . S
C348 C351 1.403 . S
H349 C355 0.930 . S
C350 H336 0.930 . S
C350 C348 1.395 . S
C350 C353 1.403 . S
C351 C348 1.403 . S
C351 C352 1.524 . S
C351 C355 1.400 . S
C352 H337 0.960 . S
C352 H338 0.960 . S
C352 H339 0.960 . S
C352 C351 1.524 . S
C353 C350 1.403 . S
C353 C354 1.392 . S
C353 C357 1.495 . S
C354 C353 1.392 . S
C354 C355 1.385 . S
C354 C356 1.478 . S
C355 H349 0.930 . S
C355 C351 1.400 . S
C355 C354 1.385 . S
C356 C354 1.478 . S
C356 C358 1.381 . S
C356 C362 1.383 . S
C357 C353 1.495 . S
C357 H363 0.959 . S
C357 H364 0.961 . S
C357 H365 0.960 . S
C358 C356 1.381 . S
C358 C359 1.394 . S
C358 H366 0.930 . S
C359 C358 1.394 . S
C359 C360 1.383 . S
C359 H367 0.929 . S
C360 C359 1.383 . S
C360 C361 1.377 . S
C361 H345 0.930 . S
C361 C360 1.377 . S
C361 C362 1.379 . S
C362 H346 0.931 . S
C362 C356 1.383 . S
C362 C361 1.379 . S
H363 C357 0.959 . S
H364 C357 0.961 . S
H365 C357 0.960 . S
H366 C358 0.930 . S
H367 C359 0.929 . S
H368 C376 0.929 . S
H369 C378 0.930 . S
H370 C380 0.930 . S
H371 C383 0.929 . S
H372 C386 0.930 . S
H373 C388 0.961 1_565 S
H374 C388 0.960 . S
H375 C388 0.960 . S
C376 H368 0.929 . S
C376 C377 1.377 1_554 S
C376 C378 1.384 . S
C377 C376 1.377 1_556 S
C377 C383 1.390 . S
C378 H369 0.930 . S
C378 C376 1.384 . S
C378 C379 1.381 . S
C379 C378 1.381 . S
C379 C380 1.392 1_554 S
C379 C384 1.489 . S
C380 H370 0.930 . S
C380 C379 1.392 1_556 S
C380 C383 1.386 . S
H381 C397 0.930 . S
H382 C398 0.931 . S
C383 H371 0.929 . S
C383 C377 1.390 . S
C383 C380 1.386 . S
C384 C379 1.489 . S
C384 C386 1.395 . S
C384 C387 1.403 1_554 S
H385 C391 0.930 . S
C386 H372 0.930 . S
C386 C384 1.395 . S
C386 C389 1.403 1_445 S
C387 C384 1.403 1_556 S
C387 C388 1.524 . S
C387 C391 1.400 1_445 S
C388 H373 0.961 1_545 S
C388 H374 0.960 . S
C388 H375 0.960 . S
C388 C387 1.524 . S
C389 C386 1.403 1_665 S
C389 C390 1.392 . S
C389 C393 1.495 . S
C390 C389 1.392 . S
C390 C391 1.385 1_554 S
C390 C392 1.478 . S
C391 H385 0.930 . S
C391 C387 1.400 1_665 S
C391 C390 1.385 1_556 S
C392 C390 1.478 . S
C392 C394 1.381 . S
C392 C398 1.383 1_554 S
C393 C389 1.495 . S
C393 H399 0.959 . S
C393 H400 0.961 . S
C393 H401 0.960 . S
C394 C392 1.381 . S
C394 C395 1.394 . S
C394 H402 0.930 . S
C395 C394 1.394 . S
C395 C396 1.383 . S
C395 H403 0.929 . S
C396 C395 1.383 . S
C396 C397 1.377 1_554 S
C397 H381 0.930 . S
C397 C396 1.377 1_556 S
C397 C398 1.379 . S
C398 H382 0.931 . S
C398 C392 1.383 1_556 S
C398 C397 1.379 . S
H399 C393 0.959 . S
H400 C393 0.961 . S
H401 C393 0.960 . S
H402 C394 0.930 . S
H403 C395 0.929 . S
H404 C412 0.929 . S
H405 C414 0.930 . S
H406 C416 0.930 . S
H407 C419 0.929 . S
H408 C422 0.930 . S
H409 C424 0.960 . S
H410 C424 0.960 . S
H411 C424 0.960 . S
C412 H404 0.929 . S
C412 C413 1.377 . S
C412 C414 1.384 . S
C413 C412 1.377 . S
C413 C419 1.390 . S
C414 H405 0.930 . S
C414 C412 1.384 . S
C414 C415 1.372 . S
C415 C414 1.372 . S
C415 C416 1.400 . S
C415 C420 1.490 . S
C416 H406 0.930 . S
C416 C415 1.400 . S
C416 C419 1.386 . S
H417 C433 0.930 . S
H418 C434 0.931 . S
C419 H407 0.929 . S
C419 C413 1.390 . S
C419 C416 1.386 . S
C420 C415 1.490 . S
C420 C422 1.395 1_655 S
C420 C423 1.403 1_545 S
H421 C427 0.930 1_655 S
C422 H408 0.930 . S
C422 C420 1.395 1_455 S
C422 C425 1.403 . S
C423 C420 1.403 1_565 S
C423 C424 1.524 . S
C423 C427 1.392 1_655 S
C424 H409 0.960 . S
C424 H410 0.960 . S
C424 H411 0.960 . S
C424 C423 1.524 . S
C425 C422 1.403 . S
C425 C426 1.392 1_545 S
C425 C429 1.495 . S
C426 C425 1.392 1_565 S
C426 C427 1.394 . S
C426 C428 1.478 . S
C427 H421 0.930 1_455 S
C427 C423 1.392 1_455 S
C427 C426 1.394 . S
C428 C426 1.478 . S
C428 C430 1.381 . S
C428 C434 1.383 . S
C429 C425 1.495 . S
C429 H435 0.959 . S
C429 H436 0.961 . S
C429 H437 0.960 . S
C430 C428 1.381 . S
C430 C431 1.394 . S
C430 H438 0.930 . S
C431 C430 1.394 . S
C431 C432 1.383 . S
C431 H439 0.929 . S
C432 C431 1.383 . S
C432 C433 1.377 . S
C433 H417 0.930 . S
C433 C432 1.377 . S
C433 C434 1.379 . S
C434 H418 0.931 . S
C434 C428 1.383 . S
C434 C433 1.379 . S
H435 C429 0.959 . S
H436 C429 0.961 . S
H437 C429 0.960 . S
H438 C430 0.930 . S
H439 C431 0.929 . S
H440 C448 0.929 . S
H441 C450 0.930 . S
H442 C452 0.930 . S
H443 C455 0.929 . S
H444 C458 0.930 . S
H445 C460 0.960 . S
H446 C460 0.960 . S
H447 C460 0.960 . S
C448 H440 0.929 . S
C448 C449 1.377 . S
C448 C450 1.384 . S
C449 C448 1.377 . S
C449 C455 1.390 . S
C450 H441 0.930 . S
C450 C448 1.384 . S
C450 C451 1.372 . S
C451 C450 1.372 . S
C451 C452 1.400 . S
C451 C456 1.490 . S
C452 H442 0.930 . S
C452 C451 1.400 . S
C452 C455 1.386 . S
H453 C469 0.930 . S
H454 C470 0.931 . S
C455 H443 0.929 . S
C455 C449 1.390 . S
C455 C452 1.386 . S
C456 C451 1.490 . S
C456 C458 1.395 . S
C456 C459 1.403 . S
H457 C463 0.930 . S
C458 H444 0.930 . S
C458 C456 1.395 . S
C458 C461 1.403 . S
C459 C456 1.403 . S
C459 C460 1.524 . S
C459 C463 1.400 . S
C460 H445 0.960 . S
C460 H446 0.960 . S
C460 H447 0.960 . S
C460 C459 1.524 . S
C461 C458 1.403 . S
C461 C462 1.392 . S
C461 C465 1.495 . S
C462 C461 1.392 . S
C462 C463 1.385 . S
C462 C464 1.478 . S
C463 H457 0.930 . S
C463 C459 1.400 . S
C463 C462 1.385 . S
C464 C462 1.478 . S
C464 C466 1.381 . S
C464 C470 1.383 . S
C465 C461 1.495 . S
C465 H471 0.959 . S
C465 H472 0.961 . S
C465 H473 0.960 . S
C466 C464 1.381 . S
C466 C467 1.394 . S
C466 H474 0.930 . S
C467 C466 1.394 . S
C467 C468 1.383 . S
C467 H475 0.929 . S
C468 C467 1.383 . S
C468 C469 1.377 . S
C469 H453 0.930 . S
C469 C468 1.377 . S
C469 C470 1.379 . S
C470 H454 0.931 . S
C470 C464 1.383 . S
C470 C469 1.379 . S
H471 C465 0.959 . S
H472 C465 0.961 . S
H473 C465 0.960 . S
H474 C466 0.930 . S
H475 C467 0.929 . S
H476 C484 0.929 . S
H477 C486 0.930 . S
H478 C488 0.930 . S
H479 C491 0.929 . S
H480 C494 0.930 . S
H481 C496 0.960 . S
H482 C496 0.960 . S
H483 C496 0.960 . S
C484 H476 0.929 . S
C484 C485 1.377 . S
C484 C486 1.384 . S
C485 C484 1.377 . S
C485 C491 1.390 . S
C486 H477 0.930 . S
C486 C484 1.384 . S
C486 C487 1.372 . S
C487 C486 1.372 . S
C487 C488 1.400 . S
C487 C492 1.490 . S
C488 H478 0.930 . S
C488 C487 1.400 . S
C488 C491 1.386 . S
H489 C505 0.930 . S
H490 C506 0.931 . S
C491 H479 0.929 . S
C491 C485 1.390 . S
C491 C488 1.386 . S
C492 C487 1.490 . S
C492 C494 1.395 . S
C492 C495 1.403 . S
H493 C499 0.930 . S
C494 H480 0.930 . S
C494 C492 1.395 . S
C494 C497 1.403 . S
C495 C492 1.403 . S
C495 C496 1.524 . S
C495 C499 1.400 . S
C496 H481 0.960 . S
C496 H482 0.960 . S
C496 H483 0.960 . S
C496 C495 1.524 . S
C497 C494 1.403 . S
C497 C498 1.392 . S
C497 C501 1.495 . S
C498 C497 1.392 . S
C498 C499 1.385 . S
C498 C500 1.478 . S
C499 H493 0.930 . S
C499 C495 1.400 . S
C499 C498 1.385 . S
C500 C498 1.478 . S
C500 C502 1.381 . S
C500 C506 1.383 . S
C501 C497 1.495 . S
C501 H507 0.959 . S
C501 H508 0.961 . S
C501 H509 0.960 . S
C502 C500 1.381 . S
C502 C503 1.394 . S
C502 H510 0.930 . S
C503 C502 1.394 . S
C503 C504 1.383 . S
C503 H511 0.929 . S
C504 C503 1.383 . S
C504 C505 1.377 . S
C505 H489 0.930 . S
C505 C504 1.377 . S
C505 C506 1.379 . S
C506 H490 0.931 . S
C506 C500 1.383 . S
C506 C505 1.379 . S
H507 C501 0.959 . S
H508 C501 0.961 . S
H509 C501 0.960 . S
H510 C502 0.930 . S
H511 C503 0.929 . S
H512 C520 0.929 . S
H513 C522 0.930 . S
H514 C524 0.930 . S
H515 C527 0.929 . S
H516 C530 0.930 . S
H517 C532 0.960 . S
H518 C532 0.960 . S
H519 C532 0.960 . S
C520 H512 0.929 . S
C520 C521 1.377 . S
C520 C522 1.384 . S
C521 C520 1.377 . S
C521 C527 1.390 . S
C522 H513 0.930 . S
C522 C520 1.384 . S
C522 C523 1.372 . S
C523 C522 1.372 . S
C523 C524 1.400 . S
C523 C528 1.490 . S
C524 H514 0.930 . S
C524 C523 1.400 . S
C524 C527 1.386 . S
H525 C541 0.930 . S
H526 C542 0.931 . S
C527 H515 0.929 . S
C527 C521 1.390 . S
C527 C524 1.386 . S
C528 C523 1.490 . S
C528 C530 1.395 . S
C528 C531 1.403 . S
H529 C535 0.930 . S
C530 H516 0.930 . S
C530 C528 1.395 . S
C530 C533 1.403 . S
C531 C528 1.403 . S
C531 C532 1.524 . S
C531 C535 1.400 . S
C532 H517 0.960 . S
C532 H518 0.960 . S
C532 H519 0.960 . S
C532 C531 1.524 . S
C533 C530 1.403 . S
C533 C534 1.392 . S
C533 C537 1.495 . S
C534 C533 1.392 . S
C534 C535 1.385 . S
C534 C536 1.478 . S
C535 H529 0.930 . S
C535 C531 1.400 . S
C535 C534 1.385 . S
C536 C534 1.478 . S
C536 C538 1.381 . S
C536 C542 1.383 . S
C537 C533 1.495 . S
C537 H543 0.959 . S
C537 H544 0.961 . S
C537 H545 0.960 . S
C538 C536 1.381 . S
C538 C539 1.394 . S
C538 H546 0.930 . S
C539 C538 1.394 . S
C539 C540 1.383 . S
C539 H547 0.929 . S
C540 C539 1.383 . S
C540 C541 1.377 . S
C541 H525 0.930 . S
C541 C540 1.377 . S
C541 C542 1.379 . S
C542 H526 0.931 . S
C542 C536 1.383 . S
C542 C541 1.379 . S
H543 C537 0.959 . S
H544 C537 0.961 . S
H545 C537 0.960 . S
H546 C538 0.930 . S
H547 C539 0.929 . S
H548 C556 0.929 . S
H549 C558 0.930 . S
H550 C560 0.930 . S
H551 C563 0.929 . S
H552 C566 0.930 . S
H553 C568 0.960 . S
H554 C568 0.960 . S
H555 C568 0.960 . S
C556 H548 0.929 . S
C556 C557 1.377 . S
C556 C558 1.384 . S
C557 C556 1.377 . S
C557 C563 1.390 . S
C558 H549 0.930 . S
C558 C556 1.384 . S
C558 C559 1.372 . S
C559 C558 1.372 . S
C559 C560 1.400 . S
C559 C564 1.490 . S
C560 H550 0.930 . S
C560 C559 1.400 . S
C560 C563 1.386 . S
H561 C577 0.930 . S
H562 C578 0.931 . S
C563 H551 0.929 . S
C563 C557 1.390 . S
C563 C560 1.386 . S
C564 C559 1.490 . S
C564 C566 1.395 . S
C564 C567 1.403 . S
H565 C571 0.930 . S
C566 H552 0.930 . S
C566 C564 1.395 . S
C566 C569 1.403 . S
C567 C564 1.403 . S
C567 C568 1.524 . S
C567 C571 1.400 . S
C568 H553 0.960 . S
C568 H554 0.960 . S
C568 H555 0.960 . S
C568 C567 1.524 . S
C569 C566 1.403 . S
C569 C570 1.392 . S
C569 C573 1.495 . S
C570 C569 1.392 . S
C570 C571 1.385 . S
C570 C572 1.478 . S
C571 H565 0.930 . S
C571 C567 1.400 . S
C571 C570 1.385 . S
C572 C570 1.478 . S
C572 C574 1.381 . S
C572 C578 1.383 . S
C573 C569 1.495 . S
C573 H579 0.959 . S
C573 H580 0.961 . S
C573 H581 0.960 . S
C574 C572 1.381 . S
C574 C575 1.394 . S
C574 H582 0.930 . S
C575 C574 1.394 . S
C575 C576 1.383 . S
C575 H583 0.929 . S
C576 C575 1.383 . S
C576 C577 1.377 . S
C577 H561 0.930 . S
C577 C576 1.377 . S
C577 C578 1.379 . S
C578 H562 0.931 . S
C578 C572 1.383 . S
C578 C577 1.379 . S
H579 C573 0.959 . S
H580 C573 0.961 . S
H581 C573 0.960 . S
H582 C574 0.930 . S
H583 C575 0.929 . S
H584 C592 0.929 . S
H585 C594 0.930 . S
H586 C596 0.930 . S
H587 C599 0.929 . S
H588 C602 0.930 . S
H589 C604 0.960 . S
H590 C604 0.960 . S
H591 C604 0.960 . S
C592 H584 0.929 . S
C592 C593 1.377 . S
C592 C594 1.384 . S
C593 C592 1.377 . S
C593 C599 1.390 . S
C594 H585 0.930 . S
C594 C592 1.384 . S
C594 C595 1.372 . S
C595 C594 1.372 . S
C595 C596 1.400 . S
C595 C600 1.490 1_455 S
C596 H586 0.930 . S
C596 C595 1.400 . S
C596 C599 1.386 . S
H597 C613 0.930 . S
H598 C614 0.931 . S
C599 H587 0.929 . S
C599 C593 1.390 . S
C599 C596 1.386 . S
C600 C595 1.490 1_655 S
C600 C602 1.395 . S
C600 C603 1.403 1_655 S
H601 C607 0.930 . S
C602 H588 0.930 . S
C602 C600 1.395 . S
C602 C605 1.403 . S
C603 C600 1.403 1_455 S
C603 C604 1.524 . S
C603 C607 1.400 1_455 S
C604 H589 0.960 . S
C604 H590 0.960 . S
C604 H591 0.960 . S
C604 C603 1.524 . S
C605 C602 1.403 . S
C605 C606 1.392 . S
C605 C609 1.495 . S
C606 C605 1.392 . S
C606 C607 1.385 . S
C606 C608 1.478 . S
C607 H601 0.930 . S
C607 C603 1.400 1_655 S
C607 C606 1.385 . S
C608 C606 1.478 . S
C608 C610 1.381 . S
C608 C614 1.383 . S
C609 C605 1.495 . S
C609 H615 0.959 . S
C609 H616 0.961 . S
C609 H617 0.960 . S
C610 C608 1.381 . S
C610 C611 1.394 . S
C610 H618 0.930 . S
C611 C610 1.394 . S
C611 C612 1.383 . S
C611 H619 0.929 . S
C612 C611 1.383 . S
C612 C613 1.377 . S
C613 H597 0.930 . S
C613 C612 1.377 . S
C613 C614 1.379 . S
C614 H598 0.931 . S
C614 C608 1.383 . S
C614 C613 1.379 . S
H615 C609 0.959 . S
H616 C609 0.961 . S
H617 C609 0.960 . S
H618 C610 0.930 . S
H619 C611 0.929 . S
H620 C628 0.929 . S
H621 C630 0.930 . S
H622 C632 0.930 . S
H623 C635 0.929 . S
H624 C638 0.930 . S
H625 C640 0.960 . S
H626 C640 0.960 . S
H627 C640 0.960 . S
C628 H620 0.929 . S
C628 C629 1.377 . S
C628 C630 1.384 . S
C629 C628 1.377 . S
C629 C635 1.390 . S
C630 H621 0.930 . S
C630 C628 1.384 . S
C630 C631 1.372 . S
C631 C630 1.372 . S
C631 C632 1.400 . S
C631 C636 1.490 . S
C632 H622 0.930 . S
C632 C631 1.400 . S
C632 C635 1.386 . S
H633 C649 0.930 . S
H634 C650 0.931 . S
C635 H623 0.929 . S
C635 C629 1.390 . S
C635 C632 1.386 . S
C636 C631 1.490 . S
C636 C638 1.395 . S
C636 C639 1.403 . S
H637 C643 0.930 . S
C638 H624 0.930 . S
C638 C636 1.395 . S
C638 C641 1.403 . S
C639 C636 1.403 . S
C639 C640 1.524 1_655 S
C639 C643 1.400 1_655 S
C640 H625 0.960 . S
C640 H626 0.960 . S
C640 H627 0.960 . S
C640 C639 1.524 1_455 S
C641 C638 1.403 . S
C641 C642 1.392 . S
C641 C645 1.495 . S
C642 C641 1.392 . S
C642 C643 1.385 1_655 S
C642 C644 1.478 1_655 S
C643 H637 0.930 . S
C643 C639 1.400 1_455 S
C643 C642 1.385 1_455 S
C644 C642 1.478 1_455 S
C644 C646 1.381 . S
C644 C650 1.383 . S
C645 C641 1.495 . S
C645 H651 0.959 . S
C645 H652 0.961 . S
C645 H653 0.960 . S
C646 C644 1.381 . S
C646 C647 1.394 . S
C646 H654 0.930 1_455 S
C647 C646 1.394 . S
C647 C648 1.383 . S
C647 H655 0.929 . S
C648 C647 1.383 . S
C648 C649 1.377 . S
C649 H633 0.930 . S
C649 C648 1.377 . S
C649 C650 1.379 . S
C650 H634 0.931 . S
C650 C644 1.383 . S
C650 C649 1.379 . S
H651 C645 0.959 . S
H652 C645 0.961 . S
H653 C645 0.960 . S
H654 C646 0.930 1_655 S
H655 C647 0.929 . S
H656 C664 0.929 . S
H657 C666 0.930 . S
H658 C668 0.930 . S
H659 C671 0.929 . S
H660 C674 0.930 . S
H661 C676 0.960 . S
H662 C676 0.960 . S
H663 C676 0.960 . S
C664 H656 0.929 . S
C664 C665 1.377 . S
C664 C666 1.384 . S
C665 C664 1.377 . S
C665 C671 1.390 . S
C666 H657 0.930 . S
C666 C664 1.384 . S
C666 C667 1.372 . S
C667 C666 1.372 . S
C667 C668 1.400 . S
C667 C672 1.490 . S
C668 H658 0.930 . S
C668 C667 1.400 . S
C668 C671 1.386 . S
H669 C685 0.930 . S
H670 C686 0.931 . S
C671 H659 0.929 . S
C671 C665 1.390 . S
C671 C668 1.386 . S
C672 C667 1.490 . S
C672 C674 1.395 . S
C672 C675 1.403 . S
H673 C679 0.930 . S
C674 H660 0.930 . S
C674 C672 1.395 . S
C674 C677 1.403 . S
C675 C672 1.403 . S
C675 C676 1.524 . S
C675 C679 1.400 . S
C676 H661 0.960 . S
C676 H662 0.960 . S
C676 H663 0.960 . S
C676 C675 1.524 . S
C677 C674 1.403 . S
C677 C678 1.392 . S
C677 C681 1.495 1_455 S
C678 C677 1.392 . S
C678 C679 1.385 . S
C678 C680 1.478 1_455 S
C679 H673 0.930 . S
C679 C675 1.400 . S
C679 C678 1.385 . S
C680 C678 1.478 1_655 S
C680 C682 1.381 . S
C680 C686 1.383 1_655 S
C681 C677 1.495 1_655 S
C681 H687 0.959 . S
C681 H688 0.954 1_655 S
C681 H689 0.960 . S
C682 C680 1.381 . S
C682 C683 1.394 . S
C682 H690 0.930 . S
C683 C682 1.394 . S
C683 C684 1.383 . S
C683 H691 0.929 . S
C684 C683 1.383 . S
C684 C685 1.377 . S
C685 H669 0.930 . S
C685 C684 1.377 . S
C685 C686 1.379 1_655 S
C686 H670 0.931 . S
C686 C680 1.383 1_455 S
C686 C685 1.379 1_455 S
H687 C681 0.959 . S
H688 C681 0.954 1_455 S
H689 C681 0.960 . S
H690 C682 0.930 . S
H691 C683 0.929 . S
H692 C700 0.929 . S
H693 C702 0.930 . S
H694 C704 0.930 . S
H695 C707 0.929 . S
H696 C710 0.930 . S
H697 C712 0.960 . S
H698 C712 0.960 . S
H699 C712 0.960 . S
C700 H692 0.929 . S
C700 C701 1.377 . S
C700 C702 1.384 . S
C701 C700 1.377 . S
C701 C707 1.390 . S
C702 H693 0.930 . S
C702 C700 1.384 . S
C702 C703 1.372 . S
C703 C702 1.372 . S
C703 C704 1.400 . S
C703 C708 1.490 . S
C704 H694 0.930 . S
C704 C703 1.400 . S
C704 C707 1.386 . S
H705 C721 0.930 . S
H706 C722 0.931 . S
C707 H695 0.929 . S
C707 C701 1.390 . S
C707 C704 1.386 . S
C708 C703 1.490 . S
C708 C710 1.395 . S
C708 C711 1.403 . S
H709 C715 0.920 1_655 S
C710 H696 0.930 . S
C710 C708 1.395 . S
C710 C713 1.403 . S
C711 C708 1.403 . S
C711 C712 1.524 . S
C711 C715 1.400 . S
C712 H697 0.960 . S
C712 H698 0.960 . S
C712 H699 0.960 . S
C712 C711 1.524 . S
C713 C710 1.403 . S
C713 C714 1.392 . S
C713 C717 1.495 . S
C714 C713 1.392 . S
C714 C715 1.385 . S
C714 C716 1.478 1_455 S
C715 H709 0.920 1_455 S
C715 C711 1.400 . S
C715 C714 1.385 . S
C716 C714 1.478 1_655 S
C716 C718 1.381 1_655 S
C716 C722 1.383 . S
C717 C713 1.495 . S
C717 H723 0.959 . S
C717 H724 0.961 1_455 S
C717 H725 0.960 . S
C718 C716 1.381 1_455 S
C718 C719 1.394 1_455 S
C718 H726 0.930 . S
C719 C718 1.394 1_655 S
C719 C720 1.383 . S
C719 H727 0.929 . S
C720 C719 1.383 . S
C720 C721 1.377 . S
C721 H705 0.930 . S
C721 C720 1.377 . S
C721 C722 1.379 . S
C722 H706 0.931 . S
C722 C716 1.383 . S
C722 C721 1.379 . S
H723 C717 0.959 . S
H724 C717 0.961 1_655 S
H725 C717 0.960 . S
H726 C718 0.930 . S
H727 C719 0.929 . S
C161 C26 1.862 . S
C180 C2 1.857 1_655 S
C197 C64 1.863 1_455 S
C216 C40 1.855 . S
C233 C102 1.863 . S
C252 C78 1.856 1_655 S
C269 C140 1.864 1_455 S
C288 C116 1.862 . S
C305 C57 1.580 . S
C324 C20 1.579 . S
C341 C133 1.579 . S
C360 C96 1.578 . S
C377 C19 1.580 . S
C396 C58 1.580 . S
C413 C134 1.580 . S
C432 C95 1.579 . S
C449 C118 1.073 . S
C468 C17 1.140 . S
C485 C42 1.073 . S
C504 C93 1.141 . S
C521 C99 1.082 . S
C540 C66 1.149 . S
C557 C23 1.072 . S
C576 C142 1.117 . S
C593 C80 1.087 . S
C612 C55 1.087 . S
C629 C131 1.123 . S
C648 C4 1.031 . S
C665 C28 1.123 . S
C684 C137 1.088 . S
C701 C104 1.108 . S
C720 C61 1.074 . S
