# Generated by pormake.
# Topology yfw, (5)-cn, num edge types: 1
# Building blocks:
#     Node 0, Type 0, BuildingBlock: XOMCOT_clean_sbu_0, # of connection points: 5
#     Node 1, Type 0, BuildingBlock: XOMCOT_clean_sbu_0, # of connection points: 5
#     Node 2, Type 0, BuildingBlock: XOMCOT_clean_sbu_0, # of connection points: 5
#     Node 3, Type 0, BuildingBlock: XOMCOT_clean_sbu_0, # of connection points: 5
#     Node 4, Type 0, BuildingBlock: XOMCOT_clean_sbu_0, # of connection points: 5
#     Node 5, Type 0, BuildingBlock: XOMCOT_clean_sbu_0, # of connection points: 5
#     Node 6, Type 0, BuildingBlock: XOMCOT_clean_sbu_0, # of connection points: 5
#     Node 7, Type 0, BuildingBlock: XOMCOT_clean_sbu_0, # of connection points: 5
#     Node 8, Type 0, BuildingBlock: XOMCOT_clean_sbu_0, # of connection points: 5
#     Node 9, Type 0, BuildingBlock: XOMCOT_clean_sbu_0, # of connection points: 5
#     Node 10, Type 0, BuildingBlock: XOMCOT_clean_sbu_0, # of connection points: 5
#     Node 11, Type 0, BuildingBlock: XOMCOT_clean_sbu_0, # of connection points: 5
#     Node 12, Type 0, BuildingBlock: XOMCOT_clean_sbu_0, # of connection points: 5
#     Node 13, Type 0, BuildingBlock: XOMCOT_clean_sbu_0, # of connection points: 5
#     Node 14, Type 0, BuildingBlock: XOMCOT_clean_sbu_0, # of connection points: 5
#     Node 15, Type 0, BuildingBlock: XOMCOT_clean_sbu_0, # of connection points: 5
#     Edge 16, Type (0, 0), BuildingBlock: OJICUG_clean_linker_0, # of connection points: 2
#     Edge 17, Type (0, 0), BuildingBlock: OJICUG_clean_linker_0, # of connection points: 2
#     Edge 18, Type (0, 0), BuildingBlock: OJICUG_clean_linker_0, # of connection points: 2
#     Edge 19, Type (0, 0), BuildingBlock: OJICUG_clean_linker_0, # of connection points: 2
#     Edge 20, Type (0, 0), BuildingBlock: OJICUG_clean_linker_0, # of connection points: 2
#     Edge 21, Type (0, 0), BuildingBlock: OJICUG_clean_linker_0, # of connection points: 2
#     Edge 22, Type (0, 0), BuildingBlock: OJICUG_clean_linker_0, # of connection points: 2
#     Edge 23, Type (0, 0), BuildingBlock: OJICUG_clean_linker_0, # of connection points: 2
#     Edge 24, Type (0, 0), BuildingBlock: OJICUG_clean_linker_0, # of connection points: 2
#     Edge 25, Type (0, 0), BuildingBlock: OJICUG_clean_linker_0, # of connection points: 2
#     Edge 26, Type (0, 0), BuildingBlock: OJICUG_clean_linker_0, # of connection points: 2
#     Edge 27, Type (0, 0), BuildingBlock: OJICUG_clean_linker_0, # of connection points: 2
#     Edge 28, Type (0, 0), BuildingBlock: OJICUG_clean_linker_0, # of connection points: 2
#     Edge 29, Type (0, 0), BuildingBlock: OJICUG_clean_linker_0, # of connection points: 2
#     Edge 30, Type (0, 0), BuildingBlock: OJICUG_clean_linker_0, # of connection points: 2
#     Edge 31, Type (0, 0), BuildingBlock: OJICUG_clean_linker_0, # of connection points: 2
#     Edge 32, Type (0, 0), BuildingBlock: OJICUG_clean_linker_0, # of connection points: 2
#     Edge 33, Type (0, 0), BuildingBlock: OJICUG_clean_linker_0, # of connection points: 2
#     Edge 34, Type (0, 0), BuildingBlock: OJICUG_clean_linker_0, # of connection points: 2
#     Edge 35, Type (0, 0), BuildingBlock: OJICUG_clean_linker_0, # of connection points: 2
#     Edge 36, Type (0, 0), BuildingBlock: OJICUG_clean_linker_0, # of connection points: 2
#     Edge 37, Type (0, 0), BuildingBlock: OJICUG_clean_linker_0, # of connection points: 2
#     Edge 38, Type (0, 0), BuildingBlock: OJICUG_clean_linker_0, # of connection points: 2
#     Edge 39, Type (0, 0), BuildingBlock: OJICUG_clean_linker_0, # of connection points: 2
#     Edge 40, Type (0, 0), BuildingBlock: OJICUG_clean_linker_0, # of connection points: 2
#     Edge 41, Type (0, 0), BuildingBlock: OJICUG_clean_linker_0, # of connection points: 2
#     Edge 42, Type (0, 0), BuildingBlock: OJICUG_clean_linker_0, # of connection points: 2
#     Edge 43, Type (0, 0), BuildingBlock: OJICUG_clean_linker_0, # of connection points: 2
#     Edge 44, Type (0, 0), BuildingBlock: OJICUG_clean_linker_0, # of connection points: 2
#     Edge 45, Type (0, 0), BuildingBlock: OJICUG_clean_linker_0, # of connection points: 2
#     Edge 46, Type (0, 0), BuildingBlock: OJICUG_clean_linker_0, # of connection points: 2
#     Edge 47, Type (0, 0), BuildingBlock: OJICUG_clean_linker_0, # of connection points: 2
#     Edge 48, Type (0, 0), BuildingBlock: OJICUG_clean_linker_0, # of connection points: 2
#     Edge 49, Type (0, 0), BuildingBlock: OJICUG_clean_linker_0, # of connection points: 2
#     Edge 50, Type (0, 0), BuildingBlock: OJICUG_clean_linker_0, # of connection points: 2
#     Edge 51, Type (0, 0), BuildingBlock: OJICUG_clean_linker_0, # of connection points: 2
#     Edge 52, Type (0, 0), BuildingBlock: OJICUG_clean_linker_0, # of connection points: 2
#     Edge 53, Type (0, 0), BuildingBlock: OJICUG_clean_linker_0, # of connection points: 2
#     Edge 54, Type (0, 0), BuildingBlock: OJICUG_clean_linker_0, # of connection points: 2
#     Edge 55, Type (0, 0), BuildingBlock: OJICUG_clean_linker_0, # of connection points: 2
# Relax obj value: 0.099
# Max RMSD: 0.156
# Mean RMSD: 0.156
data_MOF--net-yfw--node1-XOMCOT_clean_sbu_0--edge1-OJICUG_clean_linker_0
_symmetry_space_group_name_H-M    P1
_symmetry_Int_Tables_number       1
_symmetry_cell_setting            triclinic
loop_
_symmetry_equiv_pos_as_xyz
'x, y, z'
_cell_length_a     44.255202
_cell_length_b     44.281369
_cell_length_c     18.42229
_cell_angle_alpha  90.040984
_cell_angle_beta   90.004
_cell_angle_gamma 90.048825
loop_
_atom_site_label
_atom_site_type_symbol
_atom_site_fract_x
_atom_site_fract_y
_atom_site_fract_z
_atom_type_partial_charge
Co0 Co 0.15554 0.07742 0.99033 0.0
C1 C 0.21738 0.09707 0.94674 0.0
C2 C 0.21809 0.06184 0.0269 0.0
C3 C 0.24737 0.06972 0.0109 0.0
N4 N 0.19926 0.07912 0.98728 0.0
N5 N 0.24697 0.0918 0.96056 0.0
H6 H 0.20914 0.11374 0.90862 0.0
H7 H 0.21117 0.04444 0.06449 0.0
C8 C 0.14658 0.03334 0.10297 0.0
O9 O 0.1321 0.0189 0.05137 0.0
N10 N 0.11154 0.07583 -0.00385 0.0
C11 C 0.09535 0.08837 0.05035 0.0
C12 C 0.06593 0.07893 0.04545 0.0
C13 C 0.09145 0.05864 0.95909 0.0
N14 N 0.06332 0.06003 0.98834 0.0
C15 C 0.13985 0.13975 0.98556 0.0
C16 C 0.15973 0.15454 0.12342 0.0
C17 C 0.14308 0.17597 0.08386 0.0
C18 C 0.13399 0.16854 0.01314 0.0
C19 C 0.16541 0.12601 0.09343 0.0
N20 N 0.15435 0.1186 0.02657 0.0
H21 H 0.13112 0.13379 0.93268 0.0
H22 H 0.1777 0.10957 0.12507 0.0
H23 H 0.10462 0.10194 0.09375 0.0
H24 H 0.09757 0.04426 0.91413 0.0
O25 O 0.15371 0.08516 0.88658 0.0
O26 O 0.15712 0.04001 0.93722 0.0
O27 O 0.1572 0.05972 0.0907 0.0
C28 C 0.1555 0.05598 0.87851 0.0
H29 H 0.26751 0.0595 0.03343 0.0
H30 H 0.04841 0.08406 0.08448 0.0
H31 H 0.16765 0.15953 0.17775 0.0
H32 H 0.12089 0.1842 0.9808 0.0
Co33 Co 0.94961 0.65535 0.22861 0.0
C34 C 0.936 0.71943 0.19268 0.0
C35 C 0.94449 0.7135 0.3063 0.0
C36 C 0.93735 0.7433 0.29397 0.0
N37 N 0.94397 0.69852 0.24266 0.0
N38 N 0.93185 0.74708 0.22242 0.0
H39 H 0.93226 0.71433 0.13608 0.0
H40 H 0.94897 0.70351 0.35869 0.0
C41 C 0.99736 0.66154 0.33721 0.0
O42 O 1.01223 0.6758 0.28604 0.0
N43 N 0.95439 0.61246 0.2138 0.0
C44 C 0.93386 0.59455 0.1813 0.0
C45 C 0.94585 0.56614 0.17405 0.0
C46 C 0.97874 0.59486 0.22553 0.0
N47 N 0.9741 0.56623 0.20182 0.0
C48 C 0.88488 0.6593 0.24171 0.0
C49 C 0.88039 0.61975 0.35743 0.0
C50 C 0.85374 0.63041 0.32515 0.0
C51 C 0.8562 0.65104 0.26759 0.0
C52 C 0.90842 0.62859 0.33027 0.0
N53 N 0.91044 0.64774 0.27247 0.0
H54 H 0.88662 0.67418 0.19541 0.0
H55 H 0.92852 0.61883 0.35376 0.0
H56 H 0.91192 0.60192 0.16247 0.0
H57 H 0.99939 0.60297 0.25018 0.0
O58 O 0.93856 0.65853 0.12632 0.0
O59 O 0.98479 0.66255 0.17085 0.0
O60 O 0.97042 0.65225 0.32555 0.0
C61 C 0.96744 0.66204 0.11454 0.0
H62 H 0.93618 0.76068 0.33513 0.0
H63 H 0.9348 0.54717 0.14821 0.0
H64 H 0.8796 0.60405 0.40248 0.0
H65 H 0.83622 0.65968 0.24082 0.0
Co66 Co 0.36998 0.44891 0.48329 0.0
C67 C 0.3058 0.4353 0.44495 0.0
C68 C 0.31425 0.43235 0.5594 0.0
C69 C 0.28529 0.42242 0.54613 0.0
N70 N 0.32721 0.44041 0.49603 0.0
N71 N 0.28005 0.42426 0.47422 0.0
H72 H 0.30934 0.43781 0.38721 0.0
H73 H 0.32563 0.43212 0.61135 0.0
C74 C 0.35758 0.49416 0.59395 0.0
O75 O 0.34005 0.50632 0.54452 0.0
N76 N 0.41267 0.45625 0.47041 0.0
C77 C 0.43245 0.43576 0.44498 0.0
C78 C 0.4601 0.44933 0.43696 0.0
C79 C 0.42839 0.48225 0.47659 0.0
N80 N 0.45765 0.47867 0.45628 0.0
C81 C 0.37006 0.38411 0.49258 0.0
C82 C 0.40458 0.38072 0.61761 0.0
C83 C 0.39523 0.35383 0.58418 0.0
C84 C 0.37786 0.35573 0.52058 0.0
C85 C 0.39666 0.4085 0.5875 0.0
N86 N 0.37943 0.40996 0.52611 0.0
H87 H 0.35664 0.38544 0.44365 0.0
H88 H 0.4051 0.42884 0.61274 0.0
H89 H 0.42703 0.41256 0.43201 0.0
H90 H 0.41835 0.50336 0.49361 0.0
O91 O 0.36799 0.43835 0.38072 0.0
O92 O 0.36119 0.48406 0.42662 0.0
O93 O 0.37113 0.46929 0.5807 0.0
C94 C 0.36322 0.46709 0.36971 0.0
H95 H 0.26955 0.41377 0.58601 0.0
H96 H 0.48042 0.43817 0.41854 0.0
H97 H 0.41851 0.3803 0.66596 0.0
H98 H 0.37011 0.33549 0.49323 0.0
Co99 Co 0.57517 0.86819 0.7409 0.0
C100 C 0.59812 0.80729 0.70221 0.0
C101 C 0.5606 0.80504 0.77598 0.0
C102 C 0.56991 0.77609 0.7605 0.0
N103 N 0.57837 0.82458 0.73977 0.0
N104 N 0.59347 0.77746 0.71407 0.0
H105 H 0.6155 0.81637 0.6671 0.0
H106 H 0.54184 0.81128 0.81043 0.0
C107 C 0.52922 0.87594 0.85096 0.0
O108 O 0.51454 0.88948 0.79838 0.0
N109 N 0.5723 0.9122 0.74385 0.0
C110 C 0.5874 0.93031 0.79049 0.0
C111 C 0.57721 0.95939 0.78328 0.0
C112 C 0.55262 0.9308 0.70965 0.0
N113 N 0.55521 0.9597 0.7329 0.0
C114 C 0.63798 0.8825 0.7352 0.0
C115 C 0.6512 0.86993 0.87863 0.0
C116 C 0.67356 0.88376 0.83549 0.0
C117 C 0.66679 0.88896 0.76206 0.0
C118 C 0.62279 0.8632 0.84911 0.0
N119 N 0.61611 0.87076 0.7791 0.0
H120 H 0.63286 0.88824 0.67962 0.0
H121 H 0.60591 0.85302 0.88361 0.0
H122 H 0.60365 0.92291 0.83038 0.0
H123 H 0.53583 0.92332 0.67096 0.0
O124 O 0.58381 0.86911 0.6373 0.0
O125 O 0.53831 0.8652 0.68606 0.0
O126 O 0.55626 0.86667 0.84022 0.0
C127 C 0.55475 0.8666 0.62806 0.0
H128 H 0.55951 0.75556 0.78032 0.0
H129 H 0.58408 0.97848 0.81614 0.0
H130 H 0.655 0.86536 0.93557 0.0
H131 H 0.68334 0.89855 0.72549 0.0
Co132 Co 0.87446 0.07456 0.47145 0.0
C133 C 0.81232 0.09505 0.43499 0.0
C134 C 0.81229 0.06076 0.51744 0.0
C135 C 0.78294 0.06935 0.50452 0.0
N136 N 0.83076 0.077 0.47431 0.0
N137 N 0.78295 0.09083 0.45269 0.0
H138 H 0.82021 0.11108 0.39489 0.0
H139 H 0.81944 0.04363 0.55545 0.0
C140 C 0.88342 0.02799 0.57996 0.0
O141 O 0.89587 0.01295 0.52639 0.0
N142 N 0.91858 0.07212 0.47029 0.0
C143 C 0.93756 0.08804 0.51322 0.0
C144 C 0.96647 0.07753 0.50417 0.0
C145 C 0.93649 0.05154 0.4369 0.0
N146 N 0.96578 0.05444 0.45669 0.0
C147 C 0.88954 0.13749 0.47118 0.0
C148 C 0.87338 0.14888 0.6136 0.0
C149 C 0.8886 0.17149 0.57449 0.0
C150 C 0.89581 0.16579 0.50155 0.0
C151 C 0.86745 0.12092 0.58113 0.0
N152 N 0.87678 0.1151 0.51189 0.0
H153 H 0.89666 0.1329 0.41617 0.0
H154 H 0.8561 0.10373 0.61251 0.0
H155 H 0.93092 0.10486 0.55253 0.0
H156 H 0.92825 0.03369 0.40205 0.0
O157 O 0.87389 0.0841 0.36836 0.0
O158 O 0.87123 0.03817 0.41541 0.0
O159 O 0.87468 0.05521 0.57004 0.0
C160 C 0.87176 0.05506 0.35809 0.0
H161 H 0.76299 0.06002 0.53015 0.0
H162 H 0.9861 0.08466 0.53482 0.0
H163 H 0.86654 0.15257 0.66935 0.0
H164 H 0.90755 0.18248 0.46915 0.0
Co165 Co 0.94906 0.37234 0.72536 0.0
C166 C 0.93562 0.30813 0.68646 0.0
C167 C 0.9376 0.31525 0.8015 0.0
C168 C 0.92925 0.2858 0.78876 0.0
N169 N 0.94187 0.32929 0.73746 0.0
N170 N 0.92791 0.28126 0.71636 0.0
H171 H 0.93605 0.31239 0.62873 0.0
H172 H 0.93906 0.326 0.85409 0.0
C173 C 0.99568 0.36202 0.83457 0.0
O174 O 1.00895 0.34577 0.78422 0.0
N175 N 0.95525 0.41521 0.7132 0.0
C176 C 0.93441 0.43464 0.68795 0.0
C177 C 0.94733 0.4627 0.68201 0.0
C178 C 0.98076 0.43154 0.72138 0.0
N179 N 0.97658 0.46088 0.70261 0.0
C180 C 0.88429 0.37041 0.73734 0.0
C181 C 0.88077 0.40466 0.86284 0.0
C182 C 0.85393 0.39445 0.83069 0.0
C183 C 0.85588 0.37723 0.76681 0.0
C184 C 0.90856 0.39771 0.83127 0.0
N185 N 0.9101 0.38059 0.76971 0.0
H186 H 0.88567 0.35711 0.68821 0.0
H187 H 0.92881 0.40682 0.85558 0.0
H188 H 0.91141 0.42871 0.67407 0.0
H189 H 1.00194 0.42188 0.73913 0.0
O190 O 0.93803 0.37039 0.62298 0.0
O191 O 0.98413 0.36466 0.66753 0.0
O192 O 0.96989 0.37391 0.82222 0.0
C193 C 0.96685 0.36637 0.61113 0.0
H194 H 0.92329 0.26943 0.82994 0.0
H195 H 0.93572 0.48285 0.66424 0.0
H196 H 0.88028 0.41852 0.9113 0.0
H197 H 0.83568 0.36886 0.74035 0.0
Co198 Co 0.65009 0.44985 0.96898 0.0
C199 C 0.71445 0.43571 0.93428 0.0
C200 C 0.70738 0.44235 0.04825 0.0
C201 C 0.73704 0.43439 0.03726 0.0
N202 N 0.69318 0.44356 0.98367 0.0
N203 N 0.74157 0.42997 0.96551 0.0
H204 H 0.7099 0.43303 0.87704 0.0
H205 H 0.69682 0.44597 0.10042 0.0
C206 C 0.65816 0.49669 0.0789 0.0
O207 O 0.67451 0.51023 0.0292 0.0
N208 N 0.60728 0.45507 0.9539 0.0
C209 C 0.58938 0.43514 0.91934 0.0
C210 C 0.56093 0.44722 0.91348 0.0
C211 C 0.58963 0.47912 0.96846 0.0
N212 N 0.56097 0.47489 0.94439 0.0
C213 C 0.65274 0.38511 0.97919 0.0
C214 C 0.61733 0.38052 0.10252 0.0
C215 C 0.62823 0.35399 0.07026 0.0
C216 C 0.64596 0.35646 0.00738 0.0
C217 C 0.62422 0.40854 0.07215 0.0
N218 N 0.64201 0.41062 0.01183 0.0
H219 H 0.66646 0.38689 0.93082 0.0
H220 H 0.61464 0.42854 0.0965 0.0
H221 H 0.59674 0.41355 0.89837 0.0
H222 H 0.59773 0.49921 0.99565 0.0
O223 O 0.65345 0.43917 0.86649 0.0
O224 O 0.65774 0.4852 0.91206 0.0
O225 O 0.647 0.47055 0.06618 0.0
C226 C 0.65713 0.46806 0.85533 0.0
H227 H 0.75376 0.43175 0.07957 0.0
H228 H 0.54196 0.43657 0.88668 0.0
H229 H 0.60308 0.3796 0.15029 0.0
H230 H 0.65483 0.33651 0.98089 0.0
Co231 Co 0.57599 0.14982 0.21851 0.0
C232 C 0.58838 0.21412 0.17657 0.0
C233 C 0.5808 0.2087 0.29073 0.0
C234 C 0.58822 0.23827 0.27768 0.0
N235 N 0.58046 0.19345 0.22743 0.0
N236 N 0.59333 0.2418 0.20594 0.0
H237 H 0.59186 0.20877 0.11994 0.0
H238 H 0.5772 0.19891 0.34373 0.0
C239 C 0.5278 0.1599 0.32314 0.0
O240 O 0.5147 0.1748 0.27025 0.0
N241 N 0.57239 0.10647 0.21044 0.0
C242 C 0.59334 0.0879 0.18203 0.0
C243 C 0.58261 0.05878 0.1849 0.0
C244 C 0.54912 0.08856 0.22995 0.0
N245 N 0.5548 0.05913 0.21508 0.0
C246 C 0.64033 0.15677 0.23513 0.0
C247 C 0.64498 0.12088 0.3575 0.0
C248 C 0.67154 0.13311 0.32774 0.0
C249 C 0.66887 0.15144 0.26573 0.0
C250 C 0.61703 0.12692 0.32569 0.0
N251 N 0.61495 0.14455 0.26522 0.0
H252 H 0.63857 0.17041 0.18668 0.0
H253 H 0.5971 0.11644 0.34832 0.0
H254 H 0.61483 0.09513 0.16013 0.0
H255 H 0.52855 0.09696 0.25435 0.0
O256 O 0.58766 0.15125 0.11614 0.0
O257 O 0.54103 0.15415 0.15892 0.0
O258 O 0.55416 0.14863 0.31405 0.0
C259 C 0.55869 0.15308 0.10325 0.0
H260 H 0.59015 0.25563 0.31872 0.0
H261 H 0.59414 0.03902 0.16428 0.0
H262 H 0.64573 0.1059 0.40389 0.0
H263 H 0.68859 0.16156 0.24091 0.0
Co264 Co 0.65013 0.57436 0.47205 0.0
C265 C 0.71301 0.59155 0.43046 0.0
C266 C 0.71108 0.5514 0.49578 0.0
C267 C 0.74065 0.55672 0.47739 0.0
N268 N 0.69375 0.57319 0.46663 0.0
N269 N 0.74197 0.58182 0.43591 0.0
H270 H 0.70587 0.61095 0.39918 0.0
H271 H 0.7028 0.5325 0.5271 0.0
C272 C 0.64109 0.52902 0.58272 0.0
O273 O 0.62541 0.51537 0.5319 0.0
N274 N 0.60621 0.57523 0.48034 0.0
C275 C 0.59113 0.58856 0.53528 0.0
C276 C 0.56149 0.57961 0.53364 0.0
C277 C 0.58524 0.55808 0.4462 0.0
N278 N 0.55765 0.56014 0.47801 0.0
C279 C 0.63792 0.63757 0.47335 0.0
C280 C 0.6594 0.64905 0.61162 0.0
C281 C 0.64304 0.67176 0.57555 0.0
C282 C 0.63324 0.666 0.50442 0.0
C283 C 0.66379 0.62091 0.5783 0.0
N284 N 0.65182 0.61511 0.51142 0.0
H285 H 0.62851 0.63291 0.42039 0.0
H286 H 0.67566 0.60344 0.6076 0.0
H287 H 0.60133 0.60208 0.57754 0.0
H288 H 0.59051 0.54297 0.40201 0.0
O289 O 0.64823 0.5835 0.36877 0.0
O290 O 0.64874 0.53762 0.41616 0.0
O291 O 0.65195 0.55535 0.57094 0.0
C292 C 0.6482 0.55437 0.35859 0.0
H293 H 0.75973 0.54299 0.49342 0.0
H294 H 0.54481 0.58526 0.5743 0.0
H295 H 0.66799 0.65269 0.66597 0.0
H296 H 0.62037 0.68264 0.47448 0.0
Co297 Co 0.45291 0.15013 0.71764 0.0
C298 C 0.43966 0.21471 0.68245 0.0
C299 C 0.44753 0.20776 0.79601 0.0
C300 C 0.4396 0.2374 0.78544 0.0
N301 N 0.44796 0.19346 0.73144 0.0
N302 N 0.43434 0.24185 0.71405 0.0
H303 H 0.43611 0.2101 0.62548 0.0
H304 H 0.4514 0.19723 0.84807 0.0
C305 C 0.50101 0.15857 0.82354 0.0
O306 O 0.51391 0.17466 0.77237 0.0
N307 N 0.45702 0.1071 0.70387 0.0
C308 C 0.43651 0.08915 0.67147 0.0
C309 C 0.44817 0.06047 0.66662 0.0
C310 C 0.48098 0.08927 0.71804 0.0
N311 N 0.47617 0.06046 0.69589 0.0
C312 C 0.38854 0.15651 0.73597 0.0
C313 C 0.38429 0.11843 0.85453 0.0
C314 C 0.35774 0.13183 0.82789 0.0
C315 C 0.36018 0.1511 0.76751 0.0
C316 C 0.41207 0.12457 0.82186 0.0
N317 N 0.41398 0.14346 0.76359 0.0
H318 H 0.39013 0.1711 0.68911 0.0
H319 H 0.43203 0.11346 0.84242 0.0
H320 H 0.41479 0.09661 0.65145 0.0
H321 H 0.50143 0.09735 0.74366 0.0
O322 O 0.44126 0.15342 0.61548 0.0
O323 O 0.48781 0.15616 0.65893 0.0
O324 O 0.47472 0.14724 0.8132 0.0
C325 C 0.47023 0.15581 0.60305 0.0
H326 H 0.43737 0.25413 0.82786 0.0
H327 H 0.43704 0.04134 0.64168 0.0
H328 H 0.38367 0.10269 0.89945 0.0
H329 H 0.34043 0.16207 0.74501 0.0
Co330 Co 0.87426 0.95167 0.96956 0.0
C331 C 0.80988 0.93673 0.93466 0.0
C332 C 0.81909 0.93644 0.049 0.0
C333 C 0.79019 0.92593 0.03821 0.0
N334 N 0.83156 0.94323 0.9842 0.0
N335 N 0.78446 0.92607 0.96642 0.0
H336 H 0.81306 0.93796 0.87654 0.0
H337 H 0.8308 0.93738 0.10048 0.0
C338 C 0.86244 0.99784 0.07837 0.0
O339 O 0.84524 1.01017 0.0285 0.0
N340 N 0.9169 0.95896 0.95532 0.0
C341 C 0.93639 0.9387 0.92774 0.0
C342 C 0.96436 0.95186 0.92257 0.0
C343 C 0.93312 0.9844 0.96583 0.0
N344 N 0.96247 0.98072 0.94618 0.0
C345 C 0.87346 0.88706 0.98491 0.0
C346 C 0.90886 0.88532 0.1088 0.0
C347 C 0.89805 0.8581 0.07982 0.0
C348 C 0.88034 0.85914 0.01661 0.0
C349 C 0.90176 0.91261 0.07514 0.0
N350 N 0.88396 0.91327 0.01462 0.0
H351 H 0.85961 0.88777 0.93659 0.0
H352 H 0.91104 0.93321 0.09729 0.0
H353 H 0.93058 0.91586 0.91226 0.0
H354 H 0.92343 1.00511 0.98641 0.0
O355 O 0.87187 0.94012 0.86757 0.0
O356 O 0.8652 0.98622 0.91128 0.0
O357 O 0.87577 0.97283 0.06569 0.0
C358 C 0.86715 0.96878 0.85519 0.0
H359 H 0.77484 0.918 0.0798 0.0
H360 H 0.98454 0.94062 0.90358 0.0
H361 H 0.92315 0.88552 0.15653 0.0
H362 H 0.87152 0.83862 0.99256 0.0
Co363 Co 0.07307 0.37427 0.22752 0.0
C364 C 0.0954 0.31286 0.19288 0.0
C365 C 0.05555 0.31167 0.25943 0.0
C366 C 0.06481 0.28248 0.24671 0.0
N367 N 0.07482 0.33067 0.22608 0.0
N368 N 0.08984 0.28322 0.2049 0.0
H369 H 0.11416 0.32142 0.16129 0.0
H370 H 0.03597 0.31848 0.29047 0.0
C371 C 0.02655 0.38232 0.33644 0.0
O372 O 1.01192 0.39593 0.2839 0.0
N373 N 0.07153 0.41832 0.2311 0.0
C374 C 0.08743 0.43599 0.27723 0.0
C375 C 0.07741 0.4652 0.27198 0.0
C376 C 0.05158 0.43733 0.19923 0.0
N377 N 0.05471 0.46602 0.22348 0.0
C378 C 0.13643 0.38693 0.2265 0.0
C379 C 0.14739 0.37222 0.36992 0.0
C380 C 0.17062 0.38607 0.32968 0.0
C381 C 0.16501 0.39238 0.25613 0.0
C382 C 0.11928 0.36662 0.33777 0.0
N383 N 0.11369 0.3753 0.26797 0.0
H384 H 0.13213 0.39344 0.17098 0.0
H385 H 0.10176 0.35632 0.37016 0.0
H386 H 0.10395 0.42819 0.316 0.0
H387 H 0.0341 0.43021 0.16195 0.0
O388 O 0.08247 0.37508 0.12415 0.0
O389 O 0.03656 0.37258 0.17116 0.0
O390 O 0.05356 0.37302 0.32591 0.0
C391 C 0.05339 0.37346 0.11377 0.0
H392 H 0.05356 0.26222 0.26548 0.0
H393 H 0.08473 0.48395 0.3054 0.0
H394 H 0.15028 0.3668 0.42675 0.0
H395 H 0.18229 0.40208 0.22173 0.0
Co396 Co 0.36862 0.57311 0.9853 0.0
C397 C 0.30757 0.59626 0.94887 0.0
C398 C 0.30561 0.55708 0.01742 0.0
C399 C 0.27659 0.56665 0.00381 0.0
N400 N 0.325 0.57573 0.98336 0.0
N401 N 0.27779 0.59126 0.96072 0.0
H402 H 0.31652 0.61454 0.91633 0.0
H403 H 0.31204 0.53768 0.04946 0.0
C404 C 0.37651 0.52718 0.09482 0.0
O405 O 0.39046 0.51277 0.04238 0.0
N406 N 0.4126 0.57068 0.98967 0.0
C407 C 0.42994 0.58452 0.04011 0.0
C408 C 0.45918 0.57467 0.03366 0.0
C409 C 0.43176 0.552 0.95408 0.0
N410 N 0.4603 0.55406 0.98004 0.0
C411 C 0.3851 0.63545 0.98543 0.0
C412 C 0.36667 0.64788 0.12574 0.0
C413 C 0.38361 0.66968 0.08807 0.0
C414 C 0.39192 0.66353 0.01608 0.0
C415 C 0.36014 0.62011 0.09288 0.0
N416 N 0.37059 0.61375 0.02487 0.0
H417 H 0.39323 0.63035 0.9315 0.0
H418 H 0.34766 0.60336 0.1232 0.0
H419 H 0.42176 0.59944 0.08212 0.0
H420 H 0.42486 0.5361 0.9127 0.0
O421 O 0.36985 0.58213 0.8818 0.0
O422 O 0.36632 0.53645 0.92967 0.0
O423 O 0.36686 0.55405 0.08417 0.0
C424 C 0.36767 0.55306 0.87198 0.0
H425 H 0.25611 0.55583 0.02273 0.0
H426 H 0.47773 0.58054 0.06931 0.0
H427 H 0.35909 0.65197 0.18077 0.0
H428 H 0.40505 0.67958 0.98491 0.0
Co429 Co 0.45061 0.86783 0.23996 0.0
C430 C 0.43671 0.80378 0.20102 0.0
C431 C 0.43929 0.81069 0.31602 0.0
C432 C 0.43002 0.78152 0.30326 0.0
N433 N 0.44375 0.8247 0.252 0.0
N434 N 0.42824 0.77713 0.23087 0.0
H435 H 0.43681 0.80821 0.14337 0.0
H436 H 0.44091 0.82138 0.36865 0.0
C437 C 0.49655 0.85694 0.34956 0.0
O438 O 0.50935 0.84021 0.29943 0.0
N439 N 0.45624 0.91081 0.22788 0.0
C440 C 0.43572 0.92927 0.19734 0.0
C441 C 0.44722 0.95802 0.19578 0.0
C442 C 0.4802 0.92847 0.24404 0.0
N443 N 0.47516 0.95764 0.22519 0.0
C444 C 0.38584 0.86378 0.25508 0.0
C445 C 0.38231 0.90184 0.37402 0.0
C446 C 0.35545 0.88961 0.34595 0.0
C447 C 0.3575 0.87031 0.28544 0.0
C448 C 0.41 0.8946 0.34256 0.0
N449 N 0.41156 0.87579 0.28402 0.0
H450 H 0.38721 0.84919 0.20811 0.0
H451 H 0.43022 0.90493 0.36416 0.0
H452 H 0.41397 0.92214 0.17674 0.0
H453 H 0.50076 0.92015 0.26868 0.0
O454 O 0.43999 0.86566 0.13721 0.0
O455 O 0.48596 0.86055 0.18276 0.0
O456 O 0.47111 0.86952 0.33707 0.0
C457 C 0.46891 0.86189 0.12596 0.0
H458 H 0.4235 0.7654 0.34449 0.0
H459 H 0.43616 0.97753 0.17255 0.0
H460 H 0.38201 0.91756 0.41904 0.0
H461 H 0.33747 0.86024 0.2619 0.0
Co462 Co 0.15434 0.95203 0.48981 0.0
C463 C 0.2161 0.93074 0.45481 0.0
C464 C 0.21643 0.96473 0.53813 0.0
C465 C 0.2457 0.95578 0.52526 0.0
N466 N 0.19788 0.9489 0.49433 0.0
N467 N 0.24548 0.93449 0.47285 0.0
H468 H 0.20804 0.915 0.4142 0.0
H469 H 0.20934 0.98183 0.57637 0.0
C470 C 0.14347 0.99656 0.60134 0.0
O471 O 0.13138 1.01179 0.54765 0.0
N472 N 0.11032 0.95499 0.48661 0.0
C473 C 0.09097 0.93992 0.53021 0.0
C474 C 0.06212 0.95016 0.51818 0.0
C475 C 0.09274 0.97472 0.44957 0.0
N476 N 0.06326 0.97217 0.46789 0.0
C477 C 0.13798 0.88953 0.48348 0.0
C478 C 0.15512 0.87517 0.62367 0.0
C479 C 0.13972 0.8534 0.58227 0.0
C480 C 0.13195 0.86063 0.51049 0.0
C481 C 0.16084 0.90377 0.59447 0.0
N482 N 0.15114 0.91098 0.52633 0.0
H483 H 0.13058 0.89525 0.42932 0.0
H484 H 0.17241 0.92032 0.62744 0.0
H485 H 0.09736 0.92375 0.57132 0.0
H486 H 0.10131 0.99171 0.4128 0.0
O487 O 0.15541 0.94406 0.38619 0.0
O488 O 0.15876 0.98924 0.4371 0.0
O489 O 0.15338 0.96983 0.59019 0.0
C490 C 0.15824 0.97318 0.37834 0.0
H491 H 0.26573 0.96477 0.55125 0.0
H492 H 0.04216 0.94353 0.5482 0.0
H493 H 0.16218 0.87035 0.67874 0.0
H494 H 0.11992 0.84465 0.47659 0.0
Co495 Co 0.07371 0.65366 0.73156 0.0
C496 C 0.09524 0.71529 0.693 0.0
C497 C 0.05458 0.71602 0.75674 0.0
C498 C 0.06303 0.74529 0.74247 0.0
N499 N 0.07485 0.69724 0.72628 0.0
N500 N 0.08856 0.74487 0.70246 0.0
H501 H 0.11463 0.70697 0.66327 0.0
H502 H 0.03484 0.70898 0.78685 0.0
C503 C 0.02795 0.64623 0.84151 0.0
O504 O 0.01405 0.63088 0.79049 0.0
N505 N 0.07254 0.60978 0.73978 0.0
C506 C 0.08491 0.59425 0.79524 0.0
C507 C 0.07542 0.56482 0.79225 0.0
C508 C 0.05536 0.58932 0.70395 0.0
N509 N 0.05661 0.56159 0.73515 0.0
C510 C 0.13632 0.63894 0.73175 0.0
C511 C 0.14924 0.65978 0.86986 0.0
C512 C 0.17137 0.64322 0.83226 0.0
C513 C 0.16486 0.63363 0.76139 0.0
C514 C 0.12096 0.66489 0.83782 0.0
N515 N 0.11448 0.65337 0.77083 0.0
H516 H 0.13111 0.62982 0.6788 0.0
H517 H 0.10397 0.67711 0.86798 0.0
H518 H 0.09829 0.604 0.83837 0.0
H519 H 0.04099 0.59493 0.65857 0.0
O520 O 0.08286 0.65127 0.62841 0.0
O521 O 0.037 0.65406 0.6757 0.0
O522 O 0.05462 0.65636 0.8302 0.0
C523 C 0.05376 0.65258 0.61821 0.0
H524 H 0.05092 0.76539 0.75899 0.0
H525 H 0.0803 0.54779 0.83263 0.0
H526 H 0.15348 0.66808 0.92423 0.0
H527 H 0.18106 0.62056 0.73048 0.0
C528 C 0.98399 0.02914 0.9911 0.0
C529 C 0.98709 1.00224 0.95121 0.0
H530 H 1.00509 0.06897 0.0319 0.0
C531 C 0.01522 0.99624 0.91826 0.0
H532 H 0.96285 0.03493 0.01697 0.0
C533 C 0.03986 0.01555 0.92833 0.0
C534 C 0.03713 0.04173 0.97099 0.0
H535 H 0.01864 0.97634 0.88534 0.0
H536 H 0.06122 1.00925 0.90428 0.0
C537 C 1.00855 0.04867 0.00037 0.0
C538 C 0.98394 0.51114 0.19787 0.0
C539 C 0.99476 0.54098 0.20404 0.0
H540 H 0.99449 0.46399 0.1988 0.0
C541 C 0.02601 0.54556 0.21259 0.0
H542 H 0.96006 0.50653 0.19234 0.0
C543 C 0.04574 0.52098 0.21661 0.0
C544 C 0.03477 0.49124 0.21174 0.0
H545 H 0.03533 0.5681 0.21619 0.0
H546 H 0.06965 0.52519 0.22404 0.0
C547 C 1.00371 0.48661 0.20134 0.0
C548 C 0.53307 0.51529 0.42231 0.0
C549 C 0.53125 0.54146 0.46534 0.0
H550 H 0.51126 0.47553 0.38393 0.0
C551 C 0.50356 0.54789 0.50001 0.0
H552 H 0.5536 0.50936 0.394 0.0
C553 C 0.47922 0.52778 0.49574 0.0
C554 C 0.48166 0.50087 0.45578 0.0
H555 H 0.50069 0.56814 0.53201 0.0
H556 H 0.45888 0.53302 0.52571 0.0
C557 C 0.50862 0.49543 0.41731 0.0
C558 C 0.54694 0.01459 0.72101 0.0
C559 C 0.53574 0.98492 0.71718 0.0
H560 H 0.53713 0.06176 0.71601 0.0
C561 C 0.50487 0.98048 0.70354 0.0
H562 H 0.57072 0.01868 0.7307 0.0
C563 C 0.48545 1.00517 0.69612 0.0
C564 C 0.49647 0.03497 0.70148 0.0
H565 H 0.49548 0.95791 0.70151 0.0
H566 H 0.46165 1.00074 0.68822 0.0
C567 C 0.52759 0.03931 0.71301 0.0
C568 C 1.00896 0.98197 0.44873 0.0
C569 C 0.03892 0.99253 0.45074 0.0
H570 H 0.96196 0.99356 0.44792 0.0
C571 C 0.0443 0.02369 0.44458 0.0
H572 H 1.00424 0.95804 0.4529 0.0
C573 C 0.02014 0.04399 0.44208 0.0
C574 C 0.99017 0.03352 0.4447 0.0
H575 H 0.0671 0.03252 0.44653 0.0
H576 H 0.02482 0.06799 0.44131 0.0
C577 C 0.9848 1.00226 0.44525 0.0
C578 C 0.02557 0.48252 0.7432 0.0
C579 C 0.9982 0.48545 0.70514 0.0
H580 H 0.06597 0.50379 0.78028 0.0
C581 C 0.99186 0.51332 0.67147 0.0
H582 H 0.03157 0.46158 0.76961 0.0
C583 C 1.01139 0.53793 0.67909 0.0
C584 C 0.03808 0.53538 0.71992 0.0
H585 H 0.97154 0.51654 0.63992 0.0
H586 H 1.00487 0.55915 0.65476 0.0
C587 C 0.04529 0.50704 0.75003 0.0
C588 C 0.54001 0.5262 0.96448 0.0
C589 C 0.5356 0.49534 0.94969 0.0
H590 H 0.51938 0.56917 0.98447 0.0
C591 C 0.5058 0.48469 0.9407 0.0
H592 H 0.56248 0.53548 0.97044 0.0
C593 C 0.48116 0.50418 0.94762 0.0
C594 C 0.48563 0.53474 0.96447 0.0
H595 H 0.50125 0.4611 0.93033 0.0
H596 H 0.45856 0.49502 0.94278 0.0
C597 C 0.51531 0.54562 0.97206 0.0
C598 C 0.48403 0.01274 0.23148 0.0
C599 C 0.49548 0.98309 0.23006 0.0
H600 H 0.49361 0.05996 0.2271 0.0
C601 C 0.52694 0.97898 0.22914 0.0
H602 H 0.45995 0.0168 0.23373 0.0
C603 C 0.54639 1.0039 0.2264 0.0
C604 C 0.53486 0.03355 0.22444 0.0
H605 H 0.53656 0.95653 0.22798 0.0
H606 H 0.57048 0.99984 0.22485 0.0
C607 C 0.50343 0.03761 0.22855 0.0
C608 C 0.14909 0.9719 0.24491 0.0
C609 C 0.15791 0.98799 0.30683 0.0
H610 H 0.13835 0.97376 0.13214 0.0
C611 C 0.16421 0.01906 0.30096 0.0
H612 H 0.14399 0.948 0.24792 0.0
C613 C 0.16111 0.03392 0.23448 0.0
C614 C 0.15127 0.01799 0.17307 0.0
H615 H 0.1711 0.03203 0.34803 0.0
H616 H 0.16574 0.05791 0.23157 0.0
C617 C 0.14565 0.98678 0.17877 0.0
C618 C 1.0085 0.6484 0.53818 0.0
C619 C 0.03986 0.65272 0.54553 0.0
H620 H 0.97042 0.64751 0.46635 0.0
C621 C 0.05727 0.65847 0.48353 0.0
H622 H 0.99452 0.64374 0.58514 0.0
C623 C 0.04339 0.66092 0.41568 0.0
C624 C 1.01192 0.6573 0.40854 0.0
H625 H 0.08145 0.66184 0.48766 0.0
H626 H 0.05734 0.66589 0.36887 0.0
C627 C 0.99467 0.65047 0.47023 0.0
C628 C 0.35417 0.5404 0.67164 0.0
C629 C 0.36146 0.50959 0.6644 0.0
H630 H 0.35099 0.57861 0.74306 0.0
C631 C 0.37216 0.49377 0.72507 0.0
H632 H 0.34612 0.55326 0.62554 0.0
C633 C 0.37458 0.50821 0.7922 0.0
C634 C 0.36689 0.53887 0.79966 0.0
H635 H 0.37801 0.47007 0.72109 0.0
H636 H 0.38235 0.49528 0.83848 0.0
C637 C 0.35714 0.555 0.73862 0.0
C638 C 0.46736 0.8734 0.99313 0.0
C639 C 0.48292 0.86206 0.05337 0.0
H640 H 0.46996 0.88704 0.88214 0.0
C641 C 0.51354 0.85395 0.04584 0.0
H642 H 0.44388 0.88003 -0.00247 0.0
C643 C 0.52861 0.85803 0.97997 0.0
C644 C 0.5134 0.87051 0.92042 0.0
H645 H 0.52614 0.84508 0.09149 0.0
H646 H 0.55227 0.852 0.97621 0.0
C647 C 0.48248 0.87768 0.92733 0.0
C648 C 0.86408 0.02753 0.70756 0.0
C649 C 0.87777 0.01234 0.64945 0.0
H650 H 0.84936 0.02527 0.8178 0.0
C651 C 0.88542 0.98164 0.6576 0.0
H652 H 0.85758 0.05103 0.70277 0.0
C653 C 0.88038 0.96672 0.72335 0.0
C654 C 0.86774 0.98229 0.78216 0.0
H655 H 0.89573 0.96916 0.61352 0.0
H656 H 0.88746 0.94342 0.72895 0.0
C657 C 0.85917 0.01266 0.77325 0.0
C658 C 0.99449 0.37644 0.96577 0.0
C659 C 1.0108 0.36622 0.90531 0.0
H660 H 0.99532 0.38665 0.07918 0.0
C661 C 0.0418 0.3598 0.91307 0.0
H662 H 0.97064 0.38165 0.96144 0.0
C663 C 0.05608 0.36308 0.98035 0.0
C664 C 0.03948 0.37237 0.04115 0.0
H665 H 0.05504 0.35214 0.86719 0.0
H666 H 0.07984 0.35756 0.98517 0.0
C667 C 1.00864 0.37925 0.03314 0.0
C668 C 0.64128 0.50959 0.27796 0.0
C669 C 0.64834 0.54041 0.28588 0.0
H670 H 0.63853 0.47157 0.20613 0.0
C671 C 0.6572 0.557 0.22474 0.0
H672 H 0.63422 0.49627 0.32427 0.0
C673 C 0.66003 0.54275 0.15735 0.0
C674 C 0.65366 0.51175 0.14968 0.0
H675 H 0.66283 0.58074 0.22936 0.0
H676 H 0.66749 0.55603 0.11135 0.0
C677 C 0.6437 0.49543 0.21038 0.0
C678 C 0.48157 0.16519 0.40068 0.0
C679 C 0.51243 0.15778 0.39389 0.0
H680 H 0.44361 0.17009 0.47265 0.0
C681 C 0.5286 0.14894 0.45557 0.0
H682 H 0.46848 0.1719 0.35373 0.0
C683 C 0.51449 0.14824 0.52299 0.0
C684 C 0.4838 0.15602 0.5302 0.0
H685 H 0.55232 0.14306 0.45209 0.0
H686 H 0.52777 0.14156 0.5697 0.0
C687 C 0.46727 0.16408 0.46841 0.0
C688 C 0.6443 0.46678 0.72339 0.0
C689 C 0.65698 0.48194 0.78276 0.0
H690 H 0.62889 0.47 0.61377 0.0
C691 C 0.66594 0.51227 0.77486 0.0
H692 H 0.63695 0.44353 0.72824 0.0
C693 C 0.66127 0.52754 0.70958 0.0
C694 C 0.64729 0.51283 0.65114 0.0
H695 H 0.67583 0.52452 0.81993 0.0
H696 H 0.66792 0.55103 0.70556 0.0
C697 C 0.63937 0.48213 0.65823 0.0
C698 C 0.56164 0.16167 0.9688 0.0
C699 C 0.54528 0.15272 0.03016 0.0
H700 H 0.56021 0.17077 0.85473 0.0
C701 C 0.51478 0.14423 0.02246 0.0
H702 H 0.58513 0.16827 0.97341 0.0
C703 C 0.5006 0.14535 0.95505 0.0
C704 C 0.51652 0.15536 0.89397 0.0
H705 H 0.50167 0.13688 0.06889 0.0
H706 H 0.47698 0.13909 0.95123 0.0
C707 C 0.54728 0.16319 0.90119 0.0
C708 C 0.87825 1.0106 0.27729 0.0
C709 C 0.87062 0.04123 0.28556 0.0
H710 H 0.88197 0.97294 0.20504 0.0
C711 C 0.8611 0.05777 0.22493 0.0
H712 H 0.88585 0.99737 0.32323 0.0
C713 C 0.85846 0.04362 0.15736 0.0
C714 C 0.86582 0.01288 0.14928 0.0
H715 H 0.85505 0.08137 0.23006 0.0
H716 H 0.85067 0.05676 0.11147 0.0
C717 C 0.87612 0.99662 0.20967 0.0
C718 C 0.97999 0.38402 0.41339 0.0
C719 C 1.01077 0.37653 0.40566 0.0
H720 H 0.94161 0.3861 0.48435 0.0
C721 C 0.02596 0.36318 0.46415 0.0
H722 H 0.9675 0.39406 0.36898 0.0
C723 C 1.01103 0.35852 0.52988 0.0
C724 C 0.98057 0.36695 0.53833 0.0
H725 H 0.04953 0.35685 0.4597 0.0
H726 H 0.02363 0.34898 0.57476 0.0
C727 C 0.96499 0.37918 0.47911 0.0
C728 C 0.37888 0.48062 0.17124 0.0
C729 C 0.3712 0.51136 0.16417 0.0
H730 H 0.38182 0.44221 0.24167 0.0
C731 C 0.35839 0.52645 0.22353 0.0
H732 H 0.3885 0.4682 0.12618 0.0
C733 C 0.35448 0.51144 0.28947 0.0
C734 C 0.36313 0.48102 0.29717 0.0
H735 H 0.35197 0.55 0.21959 0.0
H736 H 0.34537 0.52395 0.33503 0.0
C737 C 0.37478 0.46555 0.2371 0.0
C738 C 0.49539 0.87021 0.48134 0.0
C739 C 0.51169 0.86064 0.42026 0.0
H740 H 0.4964 0.87939 0.59529 0.0
C741 C 0.54269 0.85421 0.42735 0.0
H742 H 0.47152 0.87536 0.47744 0.0
C743 C 0.55706 0.85695 0.49457 0.0
C744 C 0.54052 0.86564 0.55595 0.0
H745 H 0.55589 0.84701 0.38094 0.0
H746 H 0.58087 0.85154 0.49884 0.0
C747 C 0.50963 0.87243 0.54872 0.0
C748 C 0.15631 0.99532 0.73387 0.0
C749 C 0.147 1.01154 0.67246 0.0
H750 H 0.16631 0.99681 0.84743 0.0
C751 C 0.14144 0.04274 0.67893 0.0
H752 H 0.16086 0.97133 0.7305 0.0
C753 C 0.14492 0.0574 0.74548 0.0
C754 C 0.15373 0.04111 0.80705 0.0
H755 H 0.13443 0.05597 0.63247 0.0
H756 H 0.14021 0.08136 0.74889 0.0
C757 C 0.15947 1.00996 0.80068 0.0
C758 C 1.01139 0.67117 0.03358 0.0
C759 C 0.9811 0.66208 0.04178 0.0
H760 H 0.05006 0.67325 0.96393 0.0
C761 C 0.96583 0.64945 0.98255 0.0
H762 H 0.0237 0.68106 0.07855 0.0
C763 C 0.98109 0.64462 0.9172 0.0
C764 C 1.01179 0.65256 0.90989 0.0
H765 H 0.94259 0.64204 0.98766 0.0
H766 H 0.96891 0.63412 0.87285 0.0
C767 C 0.02658 0.66656 0.96816 0.0
C768 C 0.10718 0.23044 0.21736 0.0
C769 C 0.10609 0.25741 0.17719 0.0
H770 H 0.1199 0.18383 0.21979 0.0
C771 C 0.11959 0.25809 0.10814 0.0
H772 H 0.09732 0.2293 0.27105 0.0
C773 C 0.13259 0.23196 0.0786 0.0
C774 C 0.13274 0.2047 0.11792 0.0
H775 H 0.119 0.27848 0.07579 0.0
H776 H 0.14204 0.23293 0.02442 0.0
C777 C 0.12045 0.20447 0.18827 0.0
C778 C 0.79881 0.63716 0.36048 0.0
C779 C 0.82394 0.61827 0.34909 0.0
H780 H 0.75289 0.64041 0.39797 0.0
C781 C 0.82081 0.58719 0.36219 0.0
H782 H 0.80051 0.66122 0.35075 0.0
C783 C 0.79377 0.57537 0.3886 0.0
C784 C 0.76894 0.59424 0.40309 0.0
H785 H 0.83941 0.57186 0.35207 0.0
H786 H 0.7924 0.55128 0.39778 0.0
C787 C 0.77155 0.62525 0.3874 0.0
C788 C 0.41584 0.30093 0.57302 0.0
C789 C 0.40382 0.32421 0.61616 0.0
H790 H 0.43564 0.25684 0.57012 0.0
C791 C 0.40107 0.31952 0.6912 0.0
H792 H 0.41844 0.304 0.51503 0.0
C793 C 0.41058 0.29249 0.72274 0.0
C794 C 0.42349 0.26936 0.68031 0.0
H795 H 0.39144 0.33683 0.72573 0.0
H796 H 0.40763 0.28989 0.78061 0.0
C797 C 0.42571 0.27387 0.60475 0.0
C798 C 0.71626 0.87837 0.92611 0.0
C799 C 0.70313 0.89382 0.86721 0.0
H800 H 0.75233 0.8766 0.00371 0.0
C801 C 0.71814 0.91966 0.84029 0.0
H802 H 0.70605 0.85805 0.94762 0.0
C803 C 0.7452 0.92974 0.87149 0.0
C804 C 0.75761 0.91473 0.93143 0.0
H805 H 0.70866 0.93273 0.79623 0.0
H806 H 0.75594 0.94987 0.85032 0.0
C807 C 0.74295 0.88887 0.95818 0.0
C808 C 0.92018 0.2258 0.71538 0.0
C809 C 0.91839 0.25386 0.67982 0.0
H810 H 0.91248 0.17815 0.71028 0.0
C811 C 0.90661 0.2546 0.60881 0.0
H812 H 0.92962 0.22411 0.76938 0.0
C813 C 0.89677 0.22802 0.57465 0.0
C814 C 0.89834 0.20006 0.61071 0.0
H815 H 0.90447 0.27573 0.57989 0.0
H816 H 0.88754 0.22945 0.52033 0.0
C817 C 0.91026 0.19934 0.68143 0.0
C818 C 0.80036 0.41345 0.82205 0.0
C819 C 0.82428 0.40208 0.86409 0.0
H820 H 0.75574 0.43193 0.82096 0.0
C821 C 0.82019 0.39914 0.93931 0.0
H822 H 0.80296 0.41622 0.76397 0.0
C823 C 0.79307 0.40779 0.97206 0.0
C824 C 0.76925 0.42001 0.93068 0.0
H825 H 0.83805 0.39004 0.97304 0.0
H826 H 0.79098 0.40474 0.03001 0.0
C827 C 0.77324 0.42248 0.85496 0.0
C828 C 0.60085 0.27299 0.09461 0.0
C829 C 0.60356 0.26917 0.17029 0.0
H830 H 0.60667 0.30274 0.0034 0.0
C831 C 0.61609 0.29299 0.21122 0.0
H832 H 0.59126 0.25535 0.06111 0.0
C833 C 0.62451 0.32009 0.1783 0.0
C834 C 0.62109 0.32417 0.10326 0.0
H835 H 0.61951 0.29093 0.26908 0.0
H836 H 0.63373 0.33799 0.2118 0.0
C837 C 0.60968 0.30016 0.06141 0.0
C838 C 0.72724 0.12065 0.3164 0.0
C839 C 0.70161 0.12565 0.36028 0.0
H840 H 0.77345 0.10575 0.31175 0.0
C841 C 0.70446 0.12163 0.43577 0.0
H842 H 0.72595 0.12325 0.25806 0.0
C843 C 0.73144 0.11117 0.46598 0.0
C844 C 0.75654 0.10493 0.42188 0.0
H845 H 0.68563 0.12606 0.47175 0.0
H846 H 0.7326 0.10755 0.52403 0.0
C847 C 0.75447 0.11056 0.347 0.0
C848 C 0.62076 0.75371 0.61097 0.0
C849 C 0.60889 0.752 0.68166 0.0
H850 H 0.64112 0.72987 0.52208 0.0
C851 C 0.61072 0.72435 0.71892 0.0
H852 H 0.61961 0.7746 0.58066 0.0
C853 C 0.62301 0.69876 0.68553 0.0
C854 C 0.63369 0.70004 0.6137 0.0
H855 H 0.60217 0.72233 0.77374 0.0
H856 H 0.62295 0.67764 0.71513 0.0
C857 C 0.63287 0.72799 0.57724 0.0
C858 C 0.30145 0.12127 0.82077 0.0
C859 C 0.32793 0.12493 0.86252 0.0
H860 H 0.25466 0.10797 0.81961 0.0
C861 C 0.3261 0.12029 0.93798 0.0
H862 H 0.30194 0.12445 0.76252 0.0
C863 C 0.29924 0.11051 0.97007 0.0
C864 C 0.27325 0.10552 0.92802 0.0
H865 H 0.34562 0.12373 0.97243 0.0
H866 H 0.29887 0.10637 0.02798 0.0
C867 C 0.27434 0.1118 0.85332 0.0
C868 C 0.90352 0.82626 0.19152 0.0
C869 C 0.90554 0.82898 0.11573 0.0
H870 H 0.90945 0.79832 0.28449 0.0
C871 C 0.91568 0.8041 0.07518 0.0
H872 H 0.89538 0.8449 0.22419 0.0
C873 C 0.92426 0.7773 0.10991 0.0
C874 C 0.92258 0.77459 0.18607 0.0
H875 H 0.91776 0.80564 0.01672 0.0
H876 H 0.93273 0.75901 0.07681 0.0
C877 C 0.91176 0.79943 0.22616 0.0
C878 C 0.23799 0.38806 0.45913 0.0
C879 C 0.25341 0.41411 0.43631 0.0
H880 H 0.2009 0.35797 0.44201 0.0
C881 C 0.24221 0.43027 0.37666 0.0
H882 H 0.24645 0.37488 0.50423 0.0
C883 C 0.2156 0.42109 0.34185 0.0
C884 C 0.19984 0.39507 0.36483 0.0
H885 H 0.25358 0.45055 0.35839 0.0
H886 H 0.20705 0.43496 0.29812 0.0
C887 C 0.21174 0.37848 0.42347 0.0
C888 C 0.41708 0.72221 0.23014 0.0
C889 C 0.41717 0.7503 0.19436 0.0
H890 H 0.40656 0.67508 0.225 0.0
C891 C 0.40567 0.75167 0.12312 0.0
H892 H 0.42618 0.71999 0.28434 0.0
C893 C 0.39447 0.72568 0.08883 0.0
C894 C 0.39429 0.69771 0.12499 0.0
H895 H 0.40488 0.77283 0.09395 0.0
H896 H 0.38566 0.72756 0.03417 0.0
C897 C 0.40572 0.69635 0.19608 0.0
C898 C 0.29688 0.91379 0.48513 0.0
C899 C 0.27164 0.92009 0.44162 0.0
H900 H 0.34245 0.89815 0.48993 0.0
C901 C 0.27315 0.91385 0.36689 0.0
H902 H 0.29613 0.91782 0.54307 0.0
C903 C 0.3 0.90303 0.33581 0.0
C904 C 0.32576 0.89792 0.37905 0.0
H905 H 0.25405 0.91867 0.33206 0.0
H906 H 0.3009 0.89989 0.27757 0.0
C907 C 0.32347 0.90263 0.45444 0.0
C908 C 0.11676 0.82444 0.6854 0.0
C909 C 0.12951 0.82443 0.61551 0.0
H910 H 0.09406 0.79911 0.76784 0.0
C911 C 0.13043 0.79706 0.57654 0.0
H912 H 0.11536 0.8451 0.71671 0.0
C913 C 0.11813 0.77056 0.60612 0.0
C914 C 0.10428 0.77101 0.67477 0.0
H915 H 0.14029 0.79624 0.52277 0.0
H916 H 0.11838 0.75003 0.57418 0.0
C917 C 0.10424 0.79813 0.71447 0.0
C918 C 0.25346 0.62039 0.86175 0.0
C919 C 0.25223 0.60743 0.93133 0.0
H920 H 0.22895 0.64209 0.7759 0.0
C921 C 0.22493 0.60886 0.97024 0.0
H922 H 0.2741 0.61955 0.83032 0.0
C923 C 0.19914 0.62181 0.93934 0.0
C924 C 0.1999 0.63347 0.8684 0.0
H925 H 0.22335 0.59945 0.02431 0.0
H926 H 0.17824 0.62144 0.96991 0.0
C927 C 0.22753 0.6331 0.83045 0.0
loop_
_geom_bond_atom_site_label_1
_geom_bond_atom_site_label_2
_geom_bond_distance
_geom_bond_site_symmetry_2
_ccdc_geom_bond_type
Co0 N4 2.148 . S
Co0 N10 2.128 . S
Co0 N20 2.194 1_556 S
Co0 O25 2.351 . S
Co0 O26 2.155 . S
Co0 O27 2.096 1_556 S
C1 N4 1.301 . S
C1 N5 1.328 . S
C1 H6 0.930 . S
C2 C3 1.333 . S
C2 N4 1.317 1_554 S
C2 H7 0.930 . S
C3 C2 1.333 . S
C3 N5 1.350 1_554 S
C3 H29 0.931 . S
N4 Co0 2.148 . S
N4 C1 1.301 . S
N4 C2 1.317 1_556 S
N5 C1 1.328 . S
N5 C3 1.350 1_556 S
H6 C1 0.930 . S
H7 C2 0.930 . S
C8 O9 1.224 . S
C8 O27 1.247 . S
O9 C8 1.224 . S
N10 Co0 2.128 . S
N10 C11 1.355 . S
N10 C13 1.311 1_556 S
C11 N10 1.355 . S
C11 C12 1.363 . S
C11 H23 0.929 . S
C12 C11 1.363 . S
C12 N14 1.375 1_556 S
C12 H30 0.931 . S
C13 N10 1.311 1_554 S
C13 N14 1.347 . S
C13 H24 0.929 . S
N14 C12 1.375 1_554 S
N14 C13 1.347 . S
C15 C18 1.365 . S
C15 N20 1.328 1_556 S
C15 H21 0.929 . S
C16 C17 1.362 . S
C16 C19 1.378 . S
C16 H31 0.929 . S
C17 C16 1.362 . S
C17 C18 1.366 1_554 S
C18 C15 1.365 . S
C18 C17 1.366 1_556 S
C18 H32 0.930 . S
C19 C16 1.378 . S
C19 N20 1.315 . S
C19 H22 0.930 . S
N20 Co0 2.194 1_554 S
N20 C15 1.328 1_554 S
N20 C19 1.315 . S
H21 C15 0.929 . S
H22 C19 0.930 . S
H23 C11 0.929 . S
H24 C13 0.929 . S
O25 Co0 2.351 . S
O25 C28 1.244 . S
O26 Co0 2.155 . S
O26 C28 1.240 . S
O27 Co0 2.096 1_554 S
O27 C8 1.247 . S
C28 O25 1.244 . S
C28 O26 1.240 . S
H29 C3 0.931 . S
H30 C12 0.931 . S
H31 C16 0.929 . S
H32 C18 0.930 . S
Co33 N37 2.148 . S
Co33 N43 2.128 . S
Co33 N53 2.194 . S
Co33 O58 2.351 . S
Co33 O59 2.155 . S
Co33 O60 2.096 . S
C34 N37 1.301 . S
C34 N38 1.328 . S
C34 H39 0.930 . S
C35 C36 1.333 . S
C35 N37 1.317 . S
C35 H40 0.930 . S
C36 C35 1.333 . S
C36 N38 1.350 . S
C36 H62 0.931 . S
N37 Co33 2.148 . S
N37 C34 1.301 . S
N37 C35 1.317 . S
N38 C34 1.328 . S
N38 C36 1.350 . S
H39 C34 0.930 . S
H40 C35 0.930 . S
C41 O42 1.224 . S
C41 O60 1.247 . S
O42 C41 1.224 . S
N43 Co33 2.128 . S
N43 C44 1.355 . S
N43 C46 1.311 . S
C44 N43 1.355 . S
C44 C45 1.363 . S
C44 H56 0.929 . S
C45 C44 1.363 . S
C45 N47 1.375 . S
C45 H63 0.931 . S
C46 N43 1.311 . S
C46 N47 1.347 . S
C46 H57 0.929 . S
N47 C45 1.375 . S
N47 C46 1.347 . S
C48 C51 1.365 . S
C48 N53 1.328 . S
C48 H54 0.929 . S
C49 C50 1.362 . S
C49 C52 1.378 . S
C49 H64 0.929 . S
C50 C49 1.362 . S
C50 C51 1.366 . S
C51 C48 1.365 . S
C51 C50 1.366 . S
C51 H65 0.930 . S
C52 C49 1.378 . S
C52 N53 1.315 . S
C52 H55 0.930 . S
N53 Co33 2.194 . S
N53 C48 1.328 . S
N53 C52 1.315 . S
H54 C48 0.929 . S
H55 C52 0.930 . S
H56 C44 0.929 . S
H57 C46 0.929 . S
O58 Co33 2.351 . S
O58 C61 1.244 . S
O59 Co33 2.155 . S
O59 C61 1.240 . S
O60 Co33 2.096 . S
O60 C41 1.247 . S
C61 O58 1.244 . S
C61 O59 1.240 . S
H62 C36 0.931 . S
H63 C45 0.931 . S
H64 C49 0.929 . S
H65 C51 0.930 . S
Co66 N70 2.148 . S
Co66 N76 2.128 . S
Co66 N86 2.194 . S
Co66 O91 2.351 . S
Co66 O92 2.155 . S
Co66 O93 2.096 . S
C67 N70 1.301 . S
C67 N71 1.328 . S
C67 H72 0.930 . S
C68 C69 1.333 . S
C68 N70 1.317 . S
C68 H73 0.930 . S
C69 C68 1.333 . S
C69 N71 1.350 . S
C69 H95 0.931 . S
N70 Co66 2.148 . S
N70 C67 1.301 . S
N70 C68 1.317 . S
N71 C67 1.328 . S
N71 C69 1.350 . S
H72 C67 0.930 . S
H73 C68 0.930 . S
C74 O75 1.224 . S
C74 O93 1.247 . S
O75 C74 1.224 . S
N76 Co66 2.128 . S
N76 C77 1.355 . S
N76 C79 1.311 . S
C77 N76 1.355 . S
C77 C78 1.363 . S
C77 H89 0.929 . S
C78 C77 1.363 . S
C78 N80 1.375 . S
C78 H96 0.931 . S
C79 N76 1.311 . S
C79 N80 1.347 . S
C79 H90 0.929 . S
N80 C78 1.375 . S
N80 C79 1.347 . S
C81 C84 1.365 . S
C81 N86 1.328 . S
C81 H87 0.929 . S
C82 C83 1.362 . S
C82 C85 1.378 . S
C82 H97 0.929 . S
C83 C82 1.362 . S
C83 C84 1.366 . S
C84 C81 1.365 . S
C84 C83 1.366 . S
C84 H98 0.930 . S
C85 C82 1.378 . S
C85 N86 1.315 . S
C85 H88 0.930 . S
N86 Co66 2.194 . S
N86 C81 1.328 . S
N86 C85 1.315 . S
H87 C81 0.929 . S
H88 C85 0.930 . S
H89 C77 0.929 . S
H90 C79 0.929 . S
O91 Co66 2.351 . S
O91 C94 1.244 . S
O92 Co66 2.155 . S
O92 C94 1.240 . S
O93 Co66 2.096 . S
O93 C74 1.247 . S
C94 O91 1.244 . S
C94 O92 1.240 . S
H95 C69 0.931 . S
H96 C78 0.931 . S
H97 C82 0.929 . S
H98 C84 0.930 . S
Co99 N103 2.148 . S
Co99 N109 2.128 . S
Co99 N119 2.194 . S
Co99 O124 2.351 . S
Co99 O125 2.155 . S
Co99 O126 2.096 . S
C100 N103 1.301 . S
C100 N104 1.328 . S
C100 H105 0.930 . S
C101 C102 1.333 . S
C101 N103 1.317 . S
C101 H106 0.930 . S
C102 C101 1.333 . S
C102 N104 1.350 . S
C102 H128 0.931 . S
N103 Co99 2.148 . S
N103 C100 1.301 . S
N103 C101 1.317 . S
N104 C100 1.328 . S
N104 C102 1.350 . S
H105 C100 0.930 . S
H106 C101 0.930 . S
C107 O108 1.224 . S
C107 O126 1.247 . S
O108 C107 1.224 . S
N109 Co99 2.128 . S
N109 C110 1.355 . S
N109 C112 1.311 . S
C110 N109 1.355 . S
C110 C111 1.363 . S
C110 H122 0.929 . S
C111 C110 1.363 . S
C111 N113 1.375 . S
C111 H129 0.931 . S
C112 N109 1.311 . S
C112 N113 1.347 . S
C112 H123 0.929 . S
N113 C111 1.375 . S
N113 C112 1.347 . S
C114 C117 1.365 . S
C114 N119 1.328 . S
C114 H120 0.929 . S
C115 C116 1.362 . S
C115 C118 1.378 . S
C115 H130 0.929 . S
C116 C115 1.362 . S
C116 C117 1.366 . S
C117 C114 1.365 . S
C117 C116 1.366 . S
C117 H131 0.930 . S
C118 C115 1.378 . S
C118 N119 1.315 . S
C118 H121 0.930 . S
N119 Co99 2.194 . S
N119 C114 1.328 . S
N119 C118 1.315 . S
H120 C114 0.929 . S
H121 C118 0.930 . S
H122 C110 0.929 . S
H123 C112 0.929 . S
O124 Co99 2.351 . S
O124 C127 1.244 . S
O125 Co99 2.155 . S
O125 C127 1.240 . S
O126 Co99 2.096 . S
O126 C107 1.247 . S
C127 O124 1.244 . S
C127 O125 1.240 . S
H128 C102 0.931 . S
H129 C111 0.931 . S
H130 C115 0.929 . S
H131 C117 0.930 . S
Co132 N136 2.148 . S
Co132 N142 2.128 . S
Co132 N152 2.194 . S
Co132 O157 2.351 . S
Co132 O158 2.155 . S
Co132 O159 2.096 . S
C133 N136 1.301 . S
C133 N137 1.328 . S
C133 H138 0.930 . S
C134 C135 1.333 . S
C134 N136 1.317 . S
C134 H139 0.930 . S
C135 C134 1.333 . S
C135 N137 1.350 . S
C135 H161 0.931 . S
N136 Co132 2.148 . S
N136 C133 1.301 . S
N136 C134 1.317 . S
N137 C133 1.328 . S
N137 C135 1.350 . S
H138 C133 0.930 . S
H139 C134 0.930 . S
C140 O141 1.224 . S
C140 O159 1.247 . S
O141 C140 1.224 . S
N142 Co132 2.128 . S
N142 C143 1.355 . S
N142 C145 1.311 . S
C143 N142 1.355 . S
C143 C144 1.363 . S
C143 H155 0.929 . S
C144 C143 1.363 . S
C144 N146 1.375 . S
C144 H162 0.931 . S
C145 N142 1.311 . S
C145 N146 1.347 . S
C145 H156 0.929 . S
N146 C144 1.375 . S
N146 C145 1.347 . S
C147 C150 1.365 . S
C147 N152 1.328 . S
C147 H153 0.929 . S
C148 C149 1.362 . S
C148 C151 1.378 . S
C148 H163 0.929 . S
C149 C148 1.362 . S
C149 C150 1.366 . S
C150 C147 1.365 . S
C150 C149 1.366 . S
C150 H164 0.930 . S
C151 C148 1.378 . S
C151 N152 1.315 . S
C151 H154 0.930 . S
N152 Co132 2.194 . S
N152 C147 1.328 . S
N152 C151 1.315 . S
H153 C147 0.929 . S
H154 C151 0.930 . S
H155 C143 0.929 . S
H156 C145 0.929 . S
O157 Co132 2.351 . S
O157 C160 1.244 . S
O158 Co132 2.155 . S
O158 C160 1.240 . S
O159 Co132 2.096 . S
O159 C140 1.247 . S
C160 O157 1.244 . S
C160 O158 1.240 . S
H161 C135 0.931 . S
H162 C144 0.931 . S
H163 C148 0.929 . S
H164 C150 0.930 . S
Co165 N169 2.148 . S
Co165 N175 2.128 . S
Co165 N185 2.194 . S
Co165 O190 2.351 . S
Co165 O191 2.155 . S
Co165 O192 2.096 . S
C166 N169 1.301 . S
C166 N170 1.328 . S
C166 H171 0.930 . S
C167 C168 1.333 . S
C167 N169 1.317 . S
C167 H172 0.930 . S
C168 C167 1.333 . S
C168 N170 1.350 . S
C168 H194 0.931 . S
N169 Co165 2.148 . S
N169 C166 1.301 . S
N169 C167 1.317 . S
N170 C166 1.328 . S
N170 C168 1.350 . S
H171 C166 0.930 . S
H172 C167 0.930 . S
C173 O174 1.224 . S
C173 O192 1.247 . S
O174 C173 1.224 . S
N175 Co165 2.128 . S
N175 C176 1.355 . S
N175 C178 1.311 . S
C176 N175 1.355 . S
C176 C177 1.363 . S
C176 H188 0.929 . S
C177 C176 1.363 . S
C177 N179 1.375 . S
C177 H195 0.931 . S
C178 N175 1.311 . S
C178 N179 1.347 . S
C178 H189 0.929 . S
N179 C177 1.375 . S
N179 C178 1.347 . S
C180 C183 1.365 . S
C180 N185 1.328 . S
C180 H186 0.929 . S
C181 C182 1.362 . S
C181 C184 1.378 . S
C181 H196 0.929 . S
C182 C181 1.362 . S
C182 C183 1.366 . S
C183 C180 1.365 . S
C183 C182 1.366 . S
C183 H197 0.930 . S
C184 C181 1.378 . S
C184 N185 1.315 . S
C184 H187 0.930 . S
N185 Co165 2.194 . S
N185 C180 1.328 . S
N185 C184 1.315 . S
H186 C180 0.929 . S
H187 C184 0.930 . S
H188 C176 0.929 . S
H189 C178 0.929 . S
O190 Co165 2.351 . S
O190 C193 1.244 . S
O191 Co165 2.155 . S
O191 C193 1.240 . S
O192 Co165 2.096 . S
O192 C173 1.247 . S
C193 O190 1.244 . S
C193 O191 1.240 . S
H194 C168 0.931 . S
H195 C177 0.931 . S
H196 C181 0.929 . S
H197 C183 0.930 . S
Co198 N202 2.148 . S
Co198 N208 2.128 . S
Co198 N218 2.194 1_556 S
Co198 O223 2.351 . S
Co198 O224 2.155 . S
Co198 O225 2.096 1_556 S
C199 N202 1.301 . S
C199 N203 1.328 . S
C199 H204 0.930 . S
C200 C201 1.333 . S
C200 N202 1.317 1_554 S
C200 H205 0.930 . S
C201 C200 1.333 . S
C201 N203 1.350 1_554 S
C201 H227 0.931 . S
N202 Co198 2.148 . S
N202 C199 1.301 . S
N202 C200 1.317 1_556 S
N203 C199 1.328 . S
N203 C201 1.350 1_556 S
H204 C199 0.930 . S
H205 C200 0.930 . S
C206 O207 1.224 . S
C206 O225 1.247 . S
O207 C206 1.224 . S
N208 Co198 2.128 . S
N208 C209 1.355 . S
N208 C211 1.311 1_556 S
C209 N208 1.355 . S
C209 C210 1.363 . S
C209 H221 0.929 . S
C210 C209 1.363 . S
C210 N212 1.375 1_556 S
C210 H228 0.931 . S
C211 N208 1.311 1_554 S
C211 N212 1.347 . S
C211 H222 0.929 . S
N212 C210 1.375 1_554 S
N212 C211 1.347 . S
C213 C216 1.365 . S
C213 N218 1.328 1_556 S
C213 H219 0.929 . S
C214 C215 1.362 . S
C214 C217 1.378 . S
C214 H229 0.929 . S
C215 C214 1.362 . S
C215 C216 1.366 1_554 S
C216 C213 1.365 . S
C216 C215 1.366 1_556 S
C216 H230 0.930 . S
C217 C214 1.378 . S
C217 N218 1.315 . S
C217 H220 0.930 . S
N218 Co198 2.194 1_554 S
N218 C213 1.328 1_554 S
N218 C217 1.315 . S
H219 C213 0.929 . S
H220 C217 0.930 . S
H221 C209 0.929 . S
H222 C211 0.929 . S
O223 Co198 2.351 . S
O223 C226 1.244 . S
O224 Co198 2.155 . S
O224 C226 1.240 . S
O225 Co198 2.096 1_554 S
O225 C206 1.247 . S
C226 O223 1.244 . S
C226 O224 1.240 . S
H227 C201 0.931 . S
H228 C210 0.931 . S
H229 C214 0.929 . S
H230 C216 0.930 . S
Co231 N235 2.148 . S
Co231 N241 2.128 . S
Co231 N251 2.194 . S
Co231 O256 2.351 . S
Co231 O257 2.155 . S
Co231 O258 2.096 . S
C232 N235 1.301 . S
C232 N236 1.328 . S
C232 H237 0.930 . S
C233 C234 1.333 . S
C233 N235 1.317 . S
C233 H238 0.930 . S
C234 C233 1.333 . S
C234 N236 1.350 . S
C234 H260 0.931 . S
N235 Co231 2.148 . S
N235 C232 1.301 . S
N235 C233 1.317 . S
N236 C232 1.328 . S
N236 C234 1.350 . S
H237 C232 0.930 . S
H238 C233 0.930 . S
C239 O240 1.224 . S
C239 O258 1.247 . S
O240 C239 1.224 . S
N241 Co231 2.128 . S
N241 C242 1.355 . S
N241 C244 1.311 . S
C242 N241 1.355 . S
C242 C243 1.363 . S
C242 H254 0.929 . S
C243 C242 1.363 . S
C243 N245 1.375 . S
C243 H261 0.931 . S
C244 N241 1.311 . S
C244 N245 1.347 . S
C244 H255 0.929 . S
N245 C243 1.375 . S
N245 C244 1.347 . S
C246 C249 1.365 . S
C246 N251 1.328 . S
C246 H252 0.929 . S
C247 C248 1.362 . S
C247 C250 1.378 . S
C247 H262 0.929 . S
C248 C247 1.362 . S
C248 C249 1.366 . S
C249 C246 1.365 . S
C249 C248 1.366 . S
C249 H263 0.930 . S
C250 C247 1.378 . S
C250 N251 1.315 . S
C250 H253 0.930 . S
N251 Co231 2.194 . S
N251 C246 1.328 . S
N251 C250 1.315 . S
H252 C246 0.929 . S
H253 C250 0.930 . S
H254 C242 0.929 . S
H255 C244 0.929 . S
O256 Co231 2.351 . S
O256 C259 1.244 . S
O257 Co231 2.155 . S
O257 C259 1.240 . S
O258 Co231 2.096 . S
O258 C239 1.247 . S
C259 O256 1.244 . S
C259 O257 1.240 . S
H260 C234 0.931 . S
H261 C243 0.931 . S
H262 C247 0.929 . S
H263 C249 0.930 . S
Co264 N268 2.148 . S
Co264 N274 2.128 . S
Co264 N284 2.194 . S
Co264 O289 2.351 . S
Co264 O290 2.155 . S
Co264 O291 2.096 . S
C265 N268 1.301 . S
C265 N269 1.328 . S
C265 H270 0.930 . S
C266 C267 1.333 . S
C266 N268 1.317 . S
C266 H271 0.930 . S
C267 C266 1.333 . S
C267 N269 1.350 . S
C267 H293 0.931 . S
N268 Co264 2.148 . S
N268 C265 1.301 . S
N268 C266 1.317 . S
N269 C265 1.328 . S
N269 C267 1.350 . S
H270 C265 0.930 . S
H271 C266 0.930 . S
C272 O273 1.224 . S
C272 O291 1.247 . S
O273 C272 1.224 . S
N274 Co264 2.128 . S
N274 C275 1.355 . S
N274 C277 1.311 . S
C275 N274 1.355 . S
C275 C276 1.363 . S
C275 H287 0.929 . S
C276 C275 1.363 . S
C276 N278 1.375 . S
C276 H294 0.931 . S
C277 N274 1.311 . S
C277 N278 1.347 . S
C277 H288 0.929 . S
N278 C276 1.375 . S
N278 C277 1.347 . S
C279 C282 1.365 . S
C279 N284 1.328 . S
C279 H285 0.929 . S
C280 C281 1.362 . S
C280 C283 1.378 . S
C280 H295 0.929 . S
C281 C280 1.362 . S
C281 C282 1.366 . S
C282 C279 1.365 . S
C282 C281 1.366 . S
C282 H296 0.930 . S
C283 C280 1.378 . S
C283 N284 1.315 . S
C283 H286 0.930 . S
N284 Co264 2.194 . S
N284 C279 1.328 . S
N284 C283 1.315 . S
H285 C279 0.929 . S
H286 C283 0.930 . S
H287 C275 0.929 . S
H288 C277 0.929 . S
O289 Co264 2.351 . S
O289 C292 1.244 . S
O290 Co264 2.155 . S
O290 C292 1.240 . S
O291 Co264 2.096 . S
O291 C272 1.247 . S
C292 O289 1.244 . S
C292 O290 1.240 . S
H293 C267 0.931 . S
H294 C276 0.931 . S
H295 C280 0.929 . S
H296 C282 0.930 . S
Co297 N301 2.148 . S
Co297 N307 2.128 . S
Co297 N317 2.194 . S
Co297 O322 2.351 . S
Co297 O323 2.155 . S
Co297 O324 2.096 . S
C298 N301 1.301 . S
C298 N302 1.328 . S
C298 H303 0.930 . S
C299 C300 1.333 . S
C299 N301 1.317 . S
C299 H304 0.930 . S
C300 C299 1.333 . S
C300 N302 1.350 . S
C300 H326 0.931 . S
N301 Co297 2.148 . S
N301 C298 1.301 . S
N301 C299 1.317 . S
N302 C298 1.328 . S
N302 C300 1.350 . S
H303 C298 0.930 . S
H304 C299 0.930 . S
C305 O306 1.224 . S
C305 O324 1.247 . S
O306 C305 1.224 . S
N307 Co297 2.128 . S
N307 C308 1.355 . S
N307 C310 1.311 . S
C308 N307 1.355 . S
C308 C309 1.363 . S
C308 H320 0.929 . S
C309 C308 1.363 . S
C309 N311 1.375 . S
C309 H327 0.931 . S
C310 N307 1.311 . S
C310 N311 1.347 . S
C310 H321 0.929 . S
N311 C309 1.375 . S
N311 C310 1.347 . S
C312 C315 1.365 . S
C312 N317 1.328 . S
C312 H318 0.929 . S
C313 C314 1.362 . S
C313 C316 1.378 . S
C313 H328 0.929 . S
C314 C313 1.362 . S
C314 C315 1.366 . S
C315 C312 1.365 . S
C315 C314 1.366 . S
C315 H329 0.930 . S
C316 C313 1.378 . S
C316 N317 1.315 . S
C316 H319 0.930 . S
N317 Co297 2.194 . S
N317 C312 1.328 . S
N317 C316 1.315 . S
H318 C312 0.929 . S
H319 C316 0.930 . S
H320 C308 0.929 . S
H321 C310 0.929 . S
O322 Co297 2.351 . S
O322 C325 1.244 . S
O323 Co297 2.155 . S
O323 C325 1.240 . S
O324 Co297 2.096 . S
O324 C305 1.247 . S
C325 O322 1.244 . S
C325 O323 1.240 . S
H326 C300 0.931 . S
H327 C309 0.931 . S
H328 C313 0.929 . S
H329 C315 0.930 . S
Co330 N334 2.148 . S
Co330 N340 2.128 . S
Co330 N350 2.194 1_556 S
Co330 O355 2.351 . S
Co330 O356 2.155 . S
Co330 O357 2.096 1_556 S
C331 N334 1.301 . S
C331 N335 1.328 . S
C331 H336 0.930 . S
C332 C333 1.333 . S
C332 N334 1.317 1_554 S
C332 H337 0.930 . S
C333 C332 1.333 . S
C333 N335 1.350 1_554 S
C333 H359 0.931 . S
N334 Co330 2.148 . S
N334 C331 1.301 . S
N334 C332 1.317 1_556 S
N335 C331 1.328 . S
N335 C333 1.350 1_556 S
H336 C331 0.930 . S
H337 C332 0.930 . S
C338 O339 1.224 . S
C338 O357 1.247 . S
O339 C338 1.224 . S
N340 Co330 2.128 . S
N340 C341 1.355 . S
N340 C343 1.311 1_556 S
C341 N340 1.355 . S
C341 C342 1.363 . S
C341 H353 0.929 . S
C342 C341 1.363 . S
C342 N344 1.375 1_556 S
C342 H360 0.931 . S
C343 N340 1.311 1_554 S
C343 N344 1.347 . S
C343 H354 0.929 . S
N344 C342 1.375 1_554 S
N344 C343 1.347 . S
C345 C348 1.365 . S
C345 N350 1.328 1_556 S
C345 H351 0.929 . S
C346 C347 1.362 . S
C346 C349 1.378 . S
C346 H361 0.929 . S
C347 C346 1.362 . S
C347 C348 1.366 1_554 S
C348 C345 1.365 . S
C348 C347 1.366 1_556 S
C348 H362 0.930 . S
C349 C346 1.378 . S
C349 N350 1.315 . S
C349 H352 0.930 . S
N350 Co330 2.194 1_554 S
N350 C345 1.328 1_554 S
N350 C349 1.315 . S
H351 C345 0.929 . S
H352 C349 0.930 . S
H353 C341 0.929 . S
H354 C343 0.929 . S
O355 Co330 2.351 . S
O355 C358 1.244 . S
O356 Co330 2.155 . S
O356 C358 1.240 . S
O357 Co330 2.096 1_554 S
O357 C338 1.247 . S
C358 O355 1.244 . S
C358 O356 1.240 . S
H359 C333 0.931 . S
H360 C342 0.931 . S
H361 C346 0.929 . S
H362 C348 0.930 . S
Co363 N367 2.148 . S
Co363 N373 2.128 . S
Co363 N383 2.194 . S
Co363 O388 2.351 . S
Co363 O389 2.155 . S
Co363 O390 2.096 . S
C364 N367 1.301 . S
C364 N368 1.328 . S
C364 H369 0.930 . S
C365 C366 1.333 . S
C365 N367 1.317 . S
C365 H370 0.930 . S
C366 C365 1.333 . S
C366 N368 1.350 . S
C366 H392 0.931 . S
N367 Co363 2.148 . S
N367 C364 1.301 . S
N367 C365 1.317 . S
N368 C364 1.328 . S
N368 C366 1.350 . S
H369 C364 0.930 . S
H370 C365 0.930 . S
C371 O372 1.224 . S
C371 O390 1.247 . S
O372 C371 1.224 . S
N373 Co363 2.128 . S
N373 C374 1.355 . S
N373 C376 1.311 . S
C374 N373 1.355 . S
C374 C375 1.363 . S
C374 H386 0.929 . S
C375 C374 1.363 . S
C375 N377 1.375 . S
C375 H393 0.931 . S
C376 N373 1.311 . S
C376 N377 1.347 . S
C376 H387 0.929 . S
N377 C375 1.375 . S
N377 C376 1.347 . S
C378 C381 1.365 . S
C378 N383 1.328 . S
C378 H384 0.929 . S
C379 C380 1.362 . S
C379 C382 1.378 . S
C379 H394 0.929 . S
C380 C379 1.362 . S
C380 C381 1.366 . S
C381 C378 1.365 . S
C381 C380 1.366 . S
C381 H395 0.930 . S
C382 C379 1.378 . S
C382 N383 1.315 . S
C382 H385 0.930 . S
N383 Co363 2.194 . S
N383 C378 1.328 . S
N383 C382 1.315 . S
H384 C378 0.929 . S
H385 C382 0.930 . S
H386 C374 0.929 . S
H387 C376 0.929 . S
O388 Co363 2.351 . S
O388 C391 1.244 . S
O389 Co363 2.155 . S
O389 C391 1.240 . S
O390 Co363 2.096 . S
O390 C371 1.247 . S
C391 O388 1.244 . S
C391 O389 1.240 . S
H392 C366 0.931 . S
H393 C375 0.931 . S
H394 C379 0.929 . S
H395 C381 0.930 . S
Co396 N400 2.148 . S
Co396 N406 2.128 . S
Co396 N416 2.194 1_556 S
Co396 O421 2.351 . S
Co396 O422 2.155 . S
Co396 O423 2.096 1_556 S
C397 N400 1.301 . S
C397 N401 1.328 . S
C397 H402 0.930 . S
C398 C399 1.333 . S
C398 N400 1.317 1_554 S
C398 H403 0.930 . S
C399 C398 1.333 . S
C399 N401 1.350 1_554 S
C399 H425 0.931 . S
N400 Co396 2.148 . S
N400 C397 1.301 . S
N400 C398 1.317 1_556 S
N401 C397 1.328 . S
N401 C399 1.350 1_556 S
H402 C397 0.930 . S
H403 C398 0.930 . S
C404 O405 1.224 . S
C404 O423 1.247 . S
O405 C404 1.224 . S
N406 Co396 2.128 . S
N406 C407 1.355 . S
N406 C409 1.311 1_556 S
C407 N406 1.355 . S
C407 C408 1.363 . S
C407 H419 0.929 . S
C408 C407 1.363 . S
C408 N410 1.375 1_556 S
C408 H426 0.931 . S
C409 N406 1.311 1_554 S
C409 N410 1.347 . S
C409 H420 0.929 . S
N410 C408 1.375 1_554 S
N410 C409 1.347 . S
C411 C414 1.365 . S
C411 N416 1.328 1_556 S
C411 H417 0.929 . S
C412 C413 1.362 . S
C412 C415 1.378 . S
C412 H427 0.929 . S
C413 C412 1.362 . S
C413 C414 1.366 1_554 S
C414 C411 1.365 . S
C414 C413 1.366 1_556 S
C414 H428 0.930 . S
C415 C412 1.378 . S
C415 N416 1.315 . S
C415 H418 0.930 . S
N416 Co396 2.194 1_554 S
N416 C411 1.328 1_554 S
N416 C415 1.315 . S
H417 C411 0.929 . S
H418 C415 0.930 . S
H419 C407 0.929 . S
H420 C409 0.929 . S
O421 Co396 2.351 . S
O421 C424 1.244 . S
O422 Co396 2.155 . S
O422 C424 1.240 . S
O423 Co396 2.096 1_554 S
O423 C404 1.247 . S
C424 O421 1.244 . S
C424 O422 1.240 . S
H425 C399 0.931 . S
H426 C408 0.931 . S
H427 C412 0.929 . S
H428 C414 0.930 . S
Co429 N433 2.148 . S
Co429 N439 2.128 . S
Co429 N449 2.194 . S
Co429 O454 2.351 . S
Co429 O455 2.155 . S
Co429 O456 2.096 . S
C430 N433 1.301 . S
C430 N434 1.328 . S
C430 H435 0.930 . S
C431 C432 1.333 . S
C431 N433 1.317 . S
C431 H436 0.930 . S
C432 C431 1.333 . S
C432 N434 1.350 . S
C432 H458 0.931 . S
N433 Co429 2.148 . S
N433 C430 1.301 . S
N433 C431 1.317 . S
N434 C430 1.328 . S
N434 C432 1.350 . S
H435 C430 0.930 . S
H436 C431 0.930 . S
C437 O438 1.224 . S
C437 O456 1.247 . S
O438 C437 1.224 . S
N439 Co429 2.128 . S
N439 C440 1.355 . S
N439 C442 1.311 . S
C440 N439 1.355 . S
C440 C441 1.363 . S
C440 H452 0.929 . S
C441 C440 1.363 . S
C441 N443 1.375 . S
C441 H459 0.931 . S
C442 N439 1.311 . S
C442 N443 1.347 . S
C442 H453 0.929 . S
N443 C441 1.375 . S
N443 C442 1.347 . S
C444 C447 1.365 . S
C444 N449 1.328 . S
C444 H450 0.929 . S
C445 C446 1.362 . S
C445 C448 1.378 . S
C445 H460 0.929 . S
C446 C445 1.362 . S
C446 C447 1.366 . S
C447 C444 1.365 . S
C447 C446 1.366 . S
C447 H461 0.930 . S
C448 C445 1.378 . S
C448 N449 1.315 . S
C448 H451 0.930 . S
N449 Co429 2.194 . S
N449 C444 1.328 . S
N449 C448 1.315 . S
H450 C444 0.929 . S
H451 C448 0.930 . S
H452 C440 0.929 . S
H453 C442 0.929 . S
O454 Co429 2.351 . S
O454 C457 1.244 . S
O455 Co429 2.155 . S
O455 C457 1.240 . S
O456 Co429 2.096 . S
O456 C437 1.247 . S
C457 O454 1.244 . S
C457 O455 1.240 . S
H458 C432 0.931 . S
H459 C441 0.931 . S
H460 C445 0.929 . S
H461 C447 0.930 . S
Co462 N466 2.148 . S
Co462 N472 2.128 . S
Co462 N482 2.194 . S
Co462 O487 2.351 . S
Co462 O488 2.155 . S
Co462 O489 2.096 . S
C463 N466 1.301 . S
C463 N467 1.328 . S
C463 H468 0.930 . S
C464 C465 1.333 . S
C464 N466 1.317 . S
C464 H469 0.930 . S
C465 C464 1.333 . S
C465 N467 1.350 . S
C465 H491 0.931 . S
N466 Co462 2.148 . S
N466 C463 1.301 . S
N466 C464 1.317 . S
N467 C463 1.328 . S
N467 C465 1.350 . S
H468 C463 0.930 . S
H469 C464 0.930 . S
C470 O471 1.224 . S
C470 O489 1.247 . S
O471 C470 1.224 . S
N472 Co462 2.128 . S
N472 C473 1.355 . S
N472 C475 1.311 . S
C473 N472 1.355 . S
C473 C474 1.363 . S
C473 H485 0.929 . S
C474 C473 1.363 . S
C474 N476 1.375 . S
C474 H492 0.931 . S
C475 N472 1.311 . S
C475 N476 1.347 . S
C475 H486 0.929 . S
N476 C474 1.375 . S
N476 C475 1.347 . S
C477 C480 1.365 . S
C477 N482 1.328 . S
C477 H483 0.929 . S
C478 C479 1.362 . S
C478 C481 1.378 . S
C478 H493 0.929 . S
C479 C478 1.362 . S
C479 C480 1.366 . S
C480 C477 1.365 . S
C480 C479 1.366 . S
C480 H494 0.930 . S
C481 C478 1.378 . S
C481 N482 1.315 . S
C481 H484 0.930 . S
N482 Co462 2.194 . S
N482 C477 1.328 . S
N482 C481 1.315 . S
H483 C477 0.929 . S
H484 C481 0.930 . S
H485 C473 0.929 . S
H486 C475 0.929 . S
O487 Co462 2.351 . S
O487 C490 1.244 . S
O488 Co462 2.155 . S
O488 C490 1.240 . S
O489 Co462 2.096 . S
O489 C470 1.247 . S
C490 O487 1.244 . S
C490 O488 1.240 . S
H491 C465 0.931 . S
H492 C474 0.931 . S
H493 C478 0.929 . S
H494 C480 0.930 . S
Co495 N499 2.148 . S
Co495 N505 2.128 . S
Co495 N515 2.194 . S
Co495 O520 2.351 . S
Co495 O521 2.155 . S
Co495 O522 2.096 . S
C496 N499 1.301 . S
C496 N500 1.328 . S
C496 H501 0.930 . S
C497 C498 1.333 . S
C497 N499 1.317 . S
C497 H502 0.930 . S
C498 C497 1.333 . S
C498 N500 1.350 . S
C498 H524 0.931 . S
N499 Co495 2.148 . S
N499 C496 1.301 . S
N499 C497 1.317 . S
N500 C496 1.328 . S
N500 C498 1.350 . S
H501 C496 0.930 . S
H502 C497 0.930 . S
C503 O504 1.224 . S
C503 O522 1.247 . S
O504 C503 1.224 . S
N505 Co495 2.128 . S
N505 C506 1.355 . S
N505 C508 1.311 . S
C506 N505 1.355 . S
C506 C507 1.363 . S
C506 H518 0.929 . S
C507 C506 1.363 . S
C507 N509 1.375 . S
C507 H525 0.931 . S
C508 N505 1.311 . S
C508 N509 1.347 . S
C508 H519 0.929 . S
N509 C507 1.375 . S
N509 C508 1.347 . S
C510 C513 1.365 . S
C510 N515 1.328 . S
C510 H516 0.929 . S
C511 C512 1.362 . S
C511 C514 1.378 . S
C511 H526 0.929 . S
C512 C511 1.362 . S
C512 C513 1.366 . S
C513 C510 1.365 . S
C513 C512 1.366 . S
C513 H527 0.930 . S
C514 C511 1.378 . S
C514 N515 1.315 . S
C514 H517 0.930 . S
N515 Co495 2.194 . S
N515 C510 1.328 . S
N515 C514 1.315 . S
H516 C510 0.929 . S
H517 C514 0.930 . S
H518 C506 0.929 . S
H519 C508 0.929 . S
O520 Co495 2.351 . S
O520 C523 1.244 . S
O521 Co495 2.155 . S
O521 C523 1.240 . S
O522 Co495 2.096 . S
O522 C503 1.247 . S
C523 O520 1.244 . S
C523 O521 1.240 . S
H524 C498 0.931 . S
H525 C507 0.931 . S
H526 C511 0.929 . S
H527 C513 0.930 . S
C528 C529 1.387 1_556 S
C528 H532 0.950 . S
C528 C537 1.390 1_665 S
C529 C528 1.387 1_554 S
C529 C531 1.387 . S
H530 C537 0.950 . S
C531 C529 1.387 . S
C531 C533 1.390 1_665 S
C531 H535 0.950 . S
H532 C528 0.950 . S
C533 C531 1.390 1_445 S
C533 C534 1.387 . S
C533 H536 0.950 . S
C534 C533 1.387 . S
C534 C537 1.387 1_554 S
H535 C531 0.950 . S
H536 C533 0.950 . S
C537 C528 1.390 1_445 S
C537 H530 0.950 . S
C537 C534 1.387 1_556 S
C538 C539 1.387 . S
C538 H542 0.950 . S
C538 C547 1.390 1_655 S
C539 C538 1.387 . S
C539 C541 1.387 . S
H540 C547 0.950 . S
C541 C539 1.387 . S
C541 C543 1.390 1_655 S
C541 H545 0.950 . S
H542 C538 0.950 . S
C543 C541 1.390 1_455 S
C543 C544 1.387 . S
C543 H546 0.950 . S
C544 C543 1.387 . S
C544 C547 1.387 . S
H545 C541 0.950 . S
H546 C543 0.950 . S
C547 C538 1.390 1_455 S
C547 H540 0.950 . S
C547 C544 1.387 . S
C548 C549 1.387 . S
C548 H552 0.950 . S
C548 C557 1.390 . S
C549 C548 1.387 . S
C549 C551 1.387 . S
H550 C557 0.950 . S
C551 C549 1.387 . S
C551 C553 1.390 . S
C551 H555 0.950 . S
H552 C548 0.950 . S
C553 C551 1.390 . S
C553 C554 1.387 . S
C553 H556 0.950 . S
C554 C553 1.387 . S
C554 C557 1.387 . S
H555 C551 0.950 . S
H556 C553 0.950 . S
C557 C548 1.390 . S
C557 H550 0.950 . S
C557 C554 1.387 . S
C558 C559 1.387 . S
C558 H562 0.950 . S
C558 C567 1.390 1_565 S
C559 C558 1.387 . S
C559 C561 1.387 . S
H560 C567 0.950 . S
C561 C559 1.387 . S
C561 C563 1.390 1_565 S
C561 H565 0.950 . S
H562 C558 0.950 . S
C563 C561 1.390 1_545 S
C563 C564 1.387 . S
C563 H566 0.950 . S
C564 C563 1.387 . S
C564 C567 1.387 . S
H565 C561 0.950 . S
H566 C563 0.950 . S
C567 C558 1.390 1_545 S
C567 H560 0.950 . S
C567 C564 1.387 . S
C568 C569 1.387 . S
C568 H572 0.950 . S
C568 C577 1.390 1_465 S
C569 C568 1.387 . S
C569 C571 1.387 . S
H570 C577 0.950 . S
C571 C569 1.387 . S
C571 C573 1.390 1_465 S
C571 H575 0.950 . S
H572 C568 0.950 . S
C573 C571 1.390 1_645 S
C573 C574 1.387 . S
C573 H576 0.950 . S
C574 C573 1.387 . S
C574 C577 1.387 . S
H575 C571 0.950 . S
H576 C573 0.950 . S
C577 C568 1.390 1_645 S
C577 H570 0.950 . S
C577 C574 1.387 . S
C578 C579 1.387 . S
C578 H582 0.950 . S
C578 C587 1.390 1_655 S
C579 C578 1.387 . S
C579 C581 1.387 . S
H580 C587 0.950 . S
C581 C579 1.387 . S
C581 C583 1.390 1_655 S
C581 H585 0.950 . S
H582 C578 0.950 . S
C583 C581 1.390 1_455 S
C583 C584 1.387 . S
C583 H586 0.950 . S
C584 C583 1.387 . S
C584 C587 1.387 . S
H585 C581 0.950 . S
H586 C583 0.950 . S
C587 C578 1.390 1_455 S
C587 H580 0.950 . S
C587 C584 1.387 . S
C588 C589 1.387 1_556 S
C588 H592 0.950 . S
C588 C597 1.390 . S
C589 C588 1.387 1_554 S
C589 C591 1.387 . S
H590 C597 0.950 . S
C591 C589 1.387 . S
C591 C593 1.390 . S
C591 H595 0.950 . S
H592 C588 0.950 . S
C593 C591 1.390 . S
C593 C594 1.387 . S
C593 H596 0.950 . S
C594 C593 1.387 . S
C594 C597 1.387 1_554 S
H595 C591 0.950 . S
H596 C593 0.950 . S
C597 C588 1.390 . S
C597 H590 0.950 . S
C597 C594 1.387 1_556 S
C598 C599 1.387 . S
C598 H602 0.950 . S
C598 C607 1.390 1_565 S
C599 C598 1.387 . S
C599 C601 1.387 . S
H600 C607 0.950 . S
C601 C599 1.387 . S
C601 C603 1.390 1_565 S
C601 H605 0.950 . S
H602 C598 0.950 . S
C603 C601 1.390 1_545 S
C603 C604 1.387 . S
C603 H606 0.950 . S
C604 C603 1.387 . S
C604 C607 1.387 . S
H605 C601 0.950 . S
H606 C603 0.950 . S
C607 C598 1.390 1_545 S
C607 H600 0.950 . S
C607 C604 1.387 . S
C608 C609 1.387 . S
C608 H612 0.950 . S
C608 C617 1.382 1_565 S
C609 C608 1.387 . S
C609 C611 1.387 . S
H610 C617 0.954 . S
C611 C609 1.387 . S
C611 C613 1.390 1_565 S
C611 H615 0.950 . S
H612 C608 0.950 . S
C613 C611 1.390 1_545 S
C613 C614 1.387 . S
C613 H616 0.950 . S
C614 C613 1.387 . S
C614 C617 1.392 . S
H615 C611 0.950 . S
H616 C613 0.950 . S
C617 C608 1.382 1_545 S
C617 H610 0.954 . S
C617 C614 1.392 . S
C618 C619 1.387 . S
C618 H622 0.950 . S
C618 C627 1.373 1_455 S
C619 C618 1.387 . S
C619 C621 1.387 . S
H620 C627 0.959 . S
C621 C619 1.387 . S
C621 C623 1.373 1_455 S
C621 H625 0.950 . S
H622 C618 0.950 . S
C623 C621 1.373 1_655 S
C623 C624 1.396 . S
C623 H626 0.958 . S
C624 C623 1.396 . S
C624 C627 1.397 . S
H625 C621 0.950 . S
H626 C623 0.958 . S
C627 C618 1.373 1_655 S
C627 H620 0.959 . S
C627 C624 1.397 . S
C628 C629 1.387 . S
C628 H632 0.950 . S
C628 C637 1.390 . S
C629 C628 1.387 . S
C629 C631 1.387 . S
H630 C637 0.950 . S
C631 C629 1.387 . S
C631 C633 1.390 . S
C631 H635 0.950 . S
H632 C628 0.950 . S
C633 C631 1.390 . S
C633 C634 1.387 . S
C633 H636 0.950 . S
C634 C633 1.387 . S
C634 C637 1.387 . S
H635 C631 0.950 . S
H636 C633 0.950 . S
C637 C628 1.390 . S
C637 H630 0.950 . S
C637 C634 1.387 . S
C638 C639 1.387 . S
C638 H642 0.950 . S
C638 C647 1.390 1_554 S
C639 C638 1.387 . S
C639 C641 1.387 . S
H640 C647 0.950 . S
C641 C639 1.387 . S
C641 C643 1.390 1_554 S
C641 H645 0.950 . S
H642 C638 0.950 . S
C643 C641 1.390 1_556 S
C643 C644 1.387 . S
C643 H646 0.950 . S
C644 C643 1.387 . S
C644 C647 1.387 . S
H645 C641 0.950 . S
H646 C643 0.950 . S
C647 C638 1.390 1_556 S
C647 H640 0.950 . S
C647 C644 1.387 . S
C648 C649 1.387 . S
C648 H652 0.950 . S
C648 C657 1.390 1_545 S
C649 C648 1.387 . S
C649 C651 1.381 1_545 S
H650 C657 0.950 . S
C651 C649 1.381 1_565 S
C651 C653 1.401 . S
C651 H655 0.945 1_565 S
H652 C648 0.950 . S
C653 C651 1.401 . S
C653 C654 1.387 . S
C653 H656 0.950 . S
C654 C653 1.387 . S
C654 C657 1.387 . S
H655 C651 0.945 1_545 S
H656 C653 0.950 . S
C657 C648 1.390 1_565 S
C657 H650 0.950 . S
C657 C654 1.387 . S
C658 C659 1.387 . S
C658 H662 0.950 . S
C658 C667 1.390 1_656 S
C659 C658 1.387 . S
C659 C661 1.395 . S
H660 C667 0.950 . S
C661 C659 1.395 . S
C661 C663 1.377 1_656 S
C661 H665 0.956 . S
H662 C658 0.950 . S
C663 C661 1.377 1_454 S
C663 C664 1.387 . S
C663 H666 0.950 . S
C664 C663 1.387 . S
C664 C667 1.387 . S
H665 C661 0.956 . S
H666 C663 0.950 . S
C667 C658 1.390 1_454 S
C667 H660 0.950 . S
C667 C664 1.387 . S
C668 C669 1.387 . S
C668 H672 0.950 . S
C668 C677 1.390 . S
C669 C668 1.387 . S
C669 C671 1.387 . S
H670 C677 0.950 . S
C671 C669 1.387 . S
C671 C673 1.390 . S
C671 H675 0.950 . S
H672 C668 0.950 . S
C673 C671 1.390 . S
C673 C674 1.387 . S
C673 H676 0.950 . S
C674 C673 1.387 . S
C674 C677 1.387 . S
H675 C671 0.950 . S
H676 C673 0.950 . S
C677 C668 1.390 . S
C677 H670 0.950 . S
C677 C674 1.387 . S
C678 C679 1.387 . S
C678 H682 0.950 . S
C678 C687 1.390 . S
C679 C678 1.387 . S
C679 C681 1.387 . S
H680 C687 0.950 . S
C681 C679 1.387 . S
C681 C683 1.390 . S
C681 H685 0.950 . S
H682 C678 0.950 . S
C683 C681 1.390 . S
C683 C684 1.387 . S
C683 H686 0.950 . S
C684 C683 1.387 . S
C684 C687 1.387 . S
H685 C681 0.950 . S
H686 C683 0.950 . S
C687 C678 1.390 . S
C687 H680 0.950 . S
C687 C684 1.387 . S
C688 C689 1.387 . S
C688 H692 0.950 . S
C688 C697 1.390 . S
C689 C688 1.387 . S
C689 C691 1.387 . S
H690 C697 0.950 . S
C691 C689 1.387 . S
C691 C693 1.390 . S
C691 H695 0.950 . S
H692 C688 0.950 . S
C693 C691 1.390 . S
C693 C694 1.387 . S
C693 H696 0.950 . S
C694 C693 1.387 . S
C694 C697 1.387 . S
H695 C691 0.950 . S
H696 C693 0.950 . S
C697 C688 1.390 . S
C697 H690 0.950 . S
C697 C694 1.387 . S
C698 C699 1.387 . S
C698 H702 0.950 . S
C698 C707 1.390 1_554 S
C699 C698 1.387 . S
C699 C701 1.387 . S
H700 C707 0.950 . S
C701 C699 1.387 . S
C701 C703 1.390 1_554 S
C701 H705 0.950 . S
H702 C698 0.950 . S
C703 C701 1.390 1_556 S
C703 C704 1.387 . S
C703 H706 0.950 . S
C704 C703 1.387 . S
C704 C707 1.387 . S
H705 C701 0.950 . S
H706 C703 0.950 . S
C707 C698 1.390 1_556 S
C707 H700 0.950 . S
C707 C704 1.387 . S
C708 C709 1.387 1_565 S
C708 H712 0.950 . S
C708 C717 1.390 . S
C709 C708 1.387 1_545 S
C709 C711 1.387 . S
H710 C717 0.950 . S
C711 C709 1.387 . S
C711 C713 1.390 . S
C711 H715 0.950 . S
H712 C708 0.950 . S
C713 C711 1.390 . S
C713 C714 1.387 1_545 S
C713 H716 0.950 . S
C714 C713 1.387 1_565 S
C714 C717 1.387 . S
H715 C711 0.950 . S
H716 C713 0.950 . S
C717 C708 1.390 . S
C717 H710 0.950 . S
C717 C714 1.387 . S
C718 C719 1.395 . S
C718 H722 0.957 . S
C718 C727 1.376 1_455 S
C719 C718 1.395 . S
C719 C721 1.387 . S
H720 C727 0.950 . S
C721 C719 1.387 . S
C721 C723 1.390 1_455 S
C721 H725 0.950 . S
H722 C718 0.957 . S
C723 C721 1.390 1_655 S
C723 C724 1.387 . S
C723 H726 0.950 . S
C724 C723 1.387 . S
C724 C727 1.387 . S
H725 C721 0.950 . S
H726 C723 0.950 . S
C727 C718 1.376 1_655 S
C727 H720 0.950 . S
C727 C724 1.387 . S
C728 C729 1.387 . S
C728 H732 0.950 . S
C728 C737 1.390 . S
C729 C728 1.387 . S
C729 C731 1.387 . S
H730 C737 0.950 . S
C731 C729 1.387 . S
C731 C733 1.390 . S
C731 H735 0.950 . S
H732 C728 0.950 . S
C733 C731 1.390 . S
C733 C734 1.387 . S
C733 H736 0.950 . S
C734 C733 1.387 . S
C734 C737 1.387 . S
H735 C731 0.950 . S
H736 C733 0.950 . S
C737 C728 1.390 . S
C737 H730 0.950 . S
C737 C734 1.387 . S
C738 C739 1.387 . S
C738 H742 0.950 . S
C738 C747 1.390 . S
C739 C738 1.387 . S
C739 C741 1.387 . S
H740 C747 0.950 . S
C741 C739 1.387 . S
C741 C743 1.390 . S
C741 H745 0.950 . S
H742 C738 0.950 . S
C743 C741 1.390 . S
C743 C744 1.387 . S
C743 H746 0.950 . S
C744 C743 1.387 . S
C744 C747 1.387 . S
H745 C741 0.950 . S
H746 C743 0.950 . S
C747 C738 1.390 . S
C747 H740 0.950 . S
C747 C744 1.387 . S
C748 C749 1.387 . S
C748 H752 0.950 . S
C748 C757 1.390 1_565 S
C749 C748 1.387 . S
C749 C751 1.387 1_565 S
H750 C757 0.950 . S
C751 C749 1.387 1_545 S
C751 C753 1.392 . S
C751 H755 0.949 1_545 S
H752 C748 0.950 . S
C753 C751 1.392 . S
C753 C754 1.387 . S
C753 H756 0.950 . S
C754 C753 1.387 . S
C754 C757 1.387 . S
H755 C751 0.949 1_565 S
H756 C753 0.950 . S
C757 C748 1.390 1_545 S
C757 H750 0.950 . S
C757 C754 1.387 . S
C758 C759 1.387 . S
C758 H762 0.950 . S
C758 C767 1.390 1_654 S
C759 C758 1.387 . S
C759 C761 1.387 . S
H760 C767 0.950 . S
C761 C759 1.387 . S
C761 C763 1.375 1_654 S
C761 H765 0.950 . S
H762 C758 0.950 . S
C763 C761 1.375 1_456 S
C763 C764 1.395 . S
C763 H766 0.957 . S
C764 C763 1.395 . S
C764 C767 1.387 . S
H765 C761 0.950 . S
H766 C763 0.957 . S
C767 C758 1.390 1_456 S
C767 H760 0.950 . S
C767 C764 1.387 . S
C768 C769 1.387 . S
C768 H772 0.950 . S
C768 C777 1.390 . S
C769 C768 1.387 . S
C769 C771 1.387 . S
H770 C777 0.950 . S
C771 C769 1.387 . S
C771 C773 1.390 . S
C771 H775 0.950 . S
H772 C768 0.950 . S
C773 C771 1.390 . S
C773 C774 1.387 . S
C773 H776 0.950 1_554 S
C774 C773 1.387 . S
C774 C777 1.387 . S
H775 C771 0.950 . S
H776 C773 0.950 1_556 S
C777 C768 1.390 . S
C777 H770 0.950 . S
C777 C774 1.387 . S
C778 C779 1.387 . S
C778 H782 0.950 . S
C778 C787 1.390 . S
C779 C778 1.387 . S
C779 C781 1.387 . S
H780 C787 0.950 . S
C781 C779 1.387 . S
C781 C783 1.390 . S
C781 H785 0.950 . S
H782 C778 0.950 . S
C783 C781 1.390 . S
C783 C784 1.387 . S
C783 H786 0.950 . S
C784 C783 1.387 . S
C784 C787 1.387 . S
H785 C781 0.950 . S
H786 C783 0.950 . S
C787 C778 1.390 . S
C787 H780 0.950 . S
C787 C784 1.387 . S
C788 C789 1.387 . S
C788 H792 0.950 . S
C788 C797 1.390 . S
C789 C788 1.387 . S
C789 C791 1.387 . S
H790 C797 0.950 . S
C791 C789 1.387 . S
C791 C793 1.390 . S
C791 H795 0.950 . S
H792 C788 0.950 . S
C793 C791 1.390 . S
C793 C794 1.387 . S
C793 H796 0.950 . S
C794 C793 1.387 . S
C794 C797 1.387 . S
H795 C791 0.950 . S
H796 C793 0.950 . S
C797 C788 1.390 . S
C797 H790 0.950 . S
C797 C794 1.387 . S
C798 C799 1.387 . S
C798 H802 0.950 . S
C798 C807 1.390 . S
C799 C798 1.387 . S
C799 C801 1.387 . S
H800 C807 0.950 . S
C801 C799 1.387 . S
C801 C803 1.390 . S
C801 H805 0.950 . S
H802 C798 0.950 . S
C803 C801 1.390 . S
C803 C804 1.387 . S
C803 H806 0.950 . S
C804 C803 1.387 . S
C804 C807 1.387 . S
H805 C801 0.950 . S
H806 C803 0.950 . S
C807 C798 1.390 . S
C807 H800 0.950 . S
C807 C804 1.387 . S
C808 C809 1.387 . S
C808 H812 0.950 . S
C808 C817 1.390 . S
C809 C808 1.387 . S
C809 C811 1.387 . S
H810 C817 0.950 . S
C811 C809 1.387 . S
C811 C813 1.390 . S
C811 H815 0.950 . S
H812 C808 0.950 . S
C813 C811 1.390 . S
C813 C814 1.387 . S
C813 H816 0.950 . S
C814 C813 1.387 . S
C814 C817 1.387 . S
H815 C811 0.950 . S
H816 C813 0.950 . S
C817 C808 1.390 . S
C817 H810 0.950 . S
C817 C814 1.387 . S
C818 C819 1.387 . S
C818 H822 0.950 . S
C818 C827 1.390 . S
C819 C818 1.387 . S
C819 C821 1.387 . S
H820 C827 0.950 . S
C821 C819 1.387 . S
C821 C823 1.390 . S
C821 H825 0.950 . S
H822 C818 0.950 . S
C823 C821 1.390 . S
C823 C824 1.387 . S
C823 H826 0.950 . S
C824 C823 1.387 . S
C824 C827 1.387 . S
H825 C821 0.950 . S
H826 C823 0.950 . S
C827 C818 1.390 . S
C827 H820 0.950 . S
C827 C824 1.387 . S
C828 C829 1.387 . S
C828 H832 0.950 . S
C828 C837 1.390 . S
C829 C828 1.387 . S
C829 C831 1.387 . S
H830 C837 0.950 1_556 S
C831 C829 1.387 . S
C831 C833 1.390 . S
C831 H835 0.950 . S
H832 C828 0.950 . S
C833 C831 1.390 . S
C833 C834 1.387 . S
C833 H836 0.950 . S
C834 C833 1.387 . S
C834 C837 1.387 . S
H835 C831 0.950 . S
H836 C833 0.950 . S
C837 C828 1.390 . S
C837 H830 0.950 1_554 S
C837 C834 1.387 . S
C838 C839 1.387 . S
C838 H842 0.950 . S
C838 C847 1.390 . S
C839 C838 1.387 . S
C839 C841 1.387 . S
H840 C847 0.950 . S
C841 C839 1.387 . S
C841 C843 1.390 . S
C841 H845 0.950 . S
H842 C838 0.950 . S
C843 C841 1.390 . S
C843 C844 1.387 . S
C843 H846 0.950 . S
C844 C843 1.387 . S
C844 C847 1.387 . S
H845 C841 0.950 . S
H846 C843 0.950 . S
C847 C838 1.390 . S
C847 H840 0.950 . S
C847 C844 1.387 . S
C848 C849 1.387 . S
C848 H852 0.950 . S
C848 C857 1.390 . S
C849 C848 1.387 . S
C849 C851 1.387 . S
H850 C857 0.950 . S
C851 C849 1.387 . S
C851 C853 1.390 . S
C851 H855 0.950 . S
H852 C848 0.950 . S
C853 C851 1.390 . S
C853 C854 1.387 . S
C853 H856 0.950 . S
C854 C853 1.387 . S
C854 C857 1.387 . S
H855 C851 0.950 . S
H856 C853 0.950 . S
C857 C848 1.390 . S
C857 H850 0.950 . S
C857 C854 1.387 . S
C858 C859 1.387 . S
C858 H862 0.950 . S
C858 C867 1.390 . S
C859 C858 1.387 . S
C859 C861 1.387 . S
H860 C867 0.950 . S
C861 C859 1.387 . S
C861 C863 1.390 . S
C861 H865 0.950 . S
H862 C858 0.950 . S
C863 C861 1.390 . S
C863 C864 1.387 . S
C863 H866 0.950 . S
C864 C863 1.387 . S
C864 C867 1.387 . S
H865 C861 0.950 . S
H866 C863 0.950 . S
C867 C858 1.390 . S
C867 H860 0.950 . S
C867 C864 1.387 . S
C868 C869 1.387 . S
C868 H872 0.950 . S
C868 C877 1.390 . S
C869 C868 1.387 . S
C869 C871 1.387 . S
H870 C877 0.950 . S
C871 C869 1.387 . S
C871 C873 1.390 . S
C871 H875 0.950 1_554 S
H872 C868 0.950 . S
C873 C871 1.390 . S
C873 C874 1.387 . S
C873 H876 0.950 . S
C874 C873 1.387 . S
C874 C877 1.387 . S
H875 C871 0.950 1_556 S
H876 C873 0.950 . S
C877 C868 1.390 . S
C877 H870 0.950 . S
C877 C874 1.387 . S
C878 C879 1.387 . S
C878 H882 0.950 . S
C878 C887 1.390 . S
C879 C878 1.387 . S
C879 C881 1.387 . S
H880 C887 0.950 . S
C881 C879 1.387 . S
C881 C883 1.390 . S
C881 H885 0.950 . S
H882 C878 0.950 . S
C883 C881 1.390 . S
C883 C884 1.387 . S
C883 H886 0.950 . S
C884 C883 1.387 . S
C884 C887 1.387 . S
H885 C881 0.950 . S
H886 C883 0.950 . S
C887 C878 1.390 . S
C887 H880 0.950 . S
C887 C884 1.387 . S
C888 C889 1.387 . S
C888 H892 0.950 . S
C888 C897 1.390 . S
C889 C888 1.387 . S
C889 C891 1.387 . S
H890 C897 0.950 . S
C891 C889 1.387 . S
C891 C893 1.390 . S
C891 H895 0.950 . S
H892 C888 0.950 . S
C893 C891 1.390 . S
C893 C894 1.387 . S
C893 H896 0.950 . S
C894 C893 1.387 . S
C894 C897 1.387 . S
H895 C891 0.950 . S
H896 C893 0.950 . S
C897 C888 1.390 . S
C897 H890 0.950 . S
C897 C894 1.387 . S
C898 C899 1.387 . S
C898 H902 0.950 . S
C898 C907 1.390 . S
C899 C898 1.387 . S
C899 C901 1.387 . S
H900 C907 0.950 . S
C901 C899 1.387 . S
C901 C903 1.390 . S
C901 H905 0.950 . S
H902 C898 0.950 . S
C903 C901 1.390 . S
C903 C904 1.387 . S
C903 H906 0.950 . S
C904 C903 1.387 . S
C904 C907 1.387 . S
H905 C901 0.950 . S
H906 C903 0.950 . S
C907 C898 1.390 . S
C907 H900 0.950 . S
C907 C904 1.387 . S
C908 C909 1.387 . S
C908 H912 0.950 . S
C908 C917 1.390 . S
C909 C908 1.387 . S
C909 C911 1.387 . S
H910 C917 0.950 . S
C911 C909 1.387 . S
C911 C913 1.390 . S
C911 H915 0.950 . S
H912 C908 0.950 . S
C913 C911 1.390 . S
C913 C914 1.387 . S
C913 H916 0.950 . S
C914 C913 1.387 . S
C914 C917 1.387 . S
H915 C911 0.950 . S
H916 C913 0.950 . S
C917 C908 1.390 . S
C917 H910 0.950 . S
C917 C914 1.387 . S
C918 C919 1.387 . S
C918 H922 0.950 . S
C918 C927 1.390 . S
C919 C918 1.387 . S
C919 C921 1.387 . S
H920 C927 0.950 . S
C921 C919 1.387 . S
C921 C923 1.390 . S
C921 H925 0.950 . S
H922 C918 0.950 . S
C923 C921 1.390 . S
C923 C924 1.387 . S
C923 H926 0.950 . S
C924 C923 1.387 . S
C924 C927 1.387 . S
H925 C921 0.950 . S
H926 C923 0.950 . S
C927 C918 1.390 . S
C927 H920 0.950 . S
C927 C924 1.387 . S
C529 N344 1.513 . S
C534 N14 1.513 . S
C539 N47 1.514 . S
C544 N377 1.514 . S
C549 N278 1.514 . S
C554 N80 1.514 . S
C559 N113 1.513 . S
C564 N311 1.513 . S
C569 N476 1.514 . S
C574 N146 1.514 . S
C579 N179 1.514 . S
C584 N509 1.514 . S
C589 N212 1.514 . S
C594 N410 1.514 . S
C599 N443 1.514 . S
C604 N245 1.514 . S
C609 C490 1.113 . S
C614 C8 1.125 . S
C619 C523 1.111 . S
C624 C41 1.126 . S
C629 C74 1.126 . S
C634 C424 1.115 . S
C639 C457 1.113 . S
C644 C107 1.126 . S
C649 C140 1.126 . S
C654 C358 1.115 . S
C659 C173 1.126 . S
C664 C391 1.113 . S
C669 C292 1.113 . S
C674 C206 1.125 . S
C679 C239 1.126 . S
C684 C325 1.111 . S
C689 C226 1.113 . S
C694 C272 1.128 . S
C699 C259 1.113 . S
C704 C305 1.126 . S
C709 C160 1.111 . S
C714 C338 1.125 . S
C719 C371 1.126 . S
C724 C193 1.113 . S
C729 C404 1.126 . S
C734 C94 1.109 . S
C739 C437 1.126 . S
C744 C127 1.113 . S
C749 C470 1.126 . S
C754 C28 1.115 . S
C759 C61 1.113 . S
C764 C503 1.126 . S
C769 N368 1.757 . S
C774 C17 1.714 . S
C779 C50 1.713 . S
C784 N269 1.756 . S
C789 C83 1.715 . S
C794 N302 1.756 . S
C799 C116 1.714 . S
C804 N335 1.758 . S
C809 N170 1.756 . S
C814 C149 1.714 . S
C819 C182 1.713 . S
C824 N203 1.758 . S
C829 N236 1.757 . S
C834 C215 1.714 . S
C839 C248 1.714 . S
C844 N137 1.757 . S
C849 N104 1.756 . S
C854 C281 1.714 . S
C859 C314 1.715 . S
C864 N5 1.757 . S
C869 C347 1.714 . S
C874 N38 1.756 . S
C879 N71 1.757 . S
C884 C380 1.714 . S
C889 N434 1.756 . S
C894 C413 1.713 . S
C899 N467 1.757 . S
C904 C446 1.715 . S
C909 C479 1.714 . S
C914 N500 1.756 . S
C919 N401 1.757 . S
C924 C512 1.716 . S
