# Generated by pormake.
# Topology smu, (6)-cn, num edge types: 1
# Building blocks:
#     Node 0, Type 0, BuildingBlock: BETFEN_clean_sbu_0, # of connection points: 6
#     Node 1, Type 0, BuildingBlock: BETFEN_clean_sbu_0, # of connection points: 6
#     Node 2, Type 0, BuildingBlock: BETFEN_clean_sbu_0, # of connection points: 6
#     Node 3, Type 0, BuildingBlock: BETFEN_clean_sbu_0, # of connection points: 6
#     Node 4, Type 0, BuildingBlock: BETFEN_clean_sbu_0, # of connection points: 6
#     Node 5, Type 0, BuildingBlock: BETFEN_clean_sbu_0, # of connection points: 6
#     Edge 6, Type (0, 0), BuildingBlock: EZIPEK_clean_linker_0, # of connection points: 2
#     Edge 7, Type (0, 0), BuildingBlock: EZIPEK_clean_linker_0, # of connection points: 2
#     Edge 8, Type (0, 0), BuildingBlock: EZIPEK_clean_linker_0, # of connection points: 2
#     Edge 9, Type (0, 0), BuildingBlock: EZIPEK_clean_linker_0, # of connection points: 2
#     Edge 10, Type (0, 0), BuildingBlock: EZIPEK_clean_linker_0, # of connection points: 2
#     Edge 11, Type (0, 0), BuildingBlock: EZIPEK_clean_linker_0, # of connection points: 2
#     Edge 12, Type (0, 0), BuildingBlock: EZIPEK_clean_linker_0, # of connection points: 2
#     Edge 13, Type (0, 0), BuildingBlock: EZIPEK_clean_linker_0, # of connection points: 2
#     Edge 14, Type (0, 0), BuildingBlock: EZIPEK_clean_linker_0, # of connection points: 2
#     Edge 15, Type (0, 0), BuildingBlock: EZIPEK_clean_linker_0, # of connection points: 2
#     Edge 16, Type (0, 0), BuildingBlock: EZIPEK_clean_linker_0, # of connection points: 2
#     Edge 17, Type (0, 0), BuildingBlock: EZIPEK_clean_linker_0, # of connection points: 2
#     Edge 18, Type (0, 0), BuildingBlock: EZIPEK_clean_linker_0, # of connection points: 2
#     Edge 19, Type (0, 0), BuildingBlock: EZIPEK_clean_linker_0, # of connection points: 2
#     Edge 20, Type (0, 0), BuildingBlock: EZIPEK_clean_linker_0, # of connection points: 2
#     Edge 21, Type (0, 0), BuildingBlock: EZIPEK_clean_linker_0, # of connection points: 2
#     Edge 22, Type (0, 0), BuildingBlock: EZIPEK_clean_linker_0, # of connection points: 2
#     Edge 23, Type (0, 0), BuildingBlock: EZIPEK_clean_linker_0, # of connection points: 2
# Relax obj value: 0.232
# Max RMSD: 0.336
# Mean RMSD: 0.336
data_MOF--net-smu--node1-BETFEN_clean_sbu_0--edge1-EZIPEK_clean_linker_0
_symmetry_space_group_name_H-M    P1
_symmetry_Int_Tables_number       1
_symmetry_cell_setting            triclinic
loop_
_symmetry_equiv_pos_as_xyz
'x, y, z'
_cell_length_a     31.795108
_cell_length_b     32.084444
_cell_length_c     20.147462
_cell_angle_alpha  89.967206
_cell_angle_beta   90.239895
_cell_angle_gamma 120.04082
loop_
_atom_site_label
_atom_site_type_symbol
_atom_site_fract_x
_atom_site_fract_y
_atom_site_fract_z
_atom_type_partial_charge
Pr0 Pr 0.33618 0.13271 0.27599 0.0
Pr1 Pr 0.39229 0.10364 0.23928 0.0
C2 C 0.28065 0.17446 0.26699 0.0
C3 C 0.22968 0.16382 0.26063 0.0
C4 C 0.20539 0.1666 0.31689 0.0
C5 C 0.1612 0.16567 0.31082 0.0
C6 C 0.13895 0.16101 0.24819 0.0
C7 C 0.16212 0.15445 0.19255 0.0
C8 C 0.20686 0.15626 0.19866 0.0
C9 C 0.34038 0.08812 0.39283 0.0
C10 C 0.27195 0.02476 0.2633 0.0
C11 C 0.46398 0.08083 0.25006 0.0
C12 C 0.51885 0.10708 0.2509 0.0
C13 C 0.54498 0.10389 0.19716 0.0
C14 C 0.59592 0.12482 0.20006 0.0
C15 C 0.62321 0.14729 0.25849 0.0
C16 C 0.59704 0.15611 0.30828 0.0
C17 C 0.54602 0.13512 0.30564 0.0
C18 C 0.34795 0.09505 0.11607 0.0
C19 C 0.44152 0.22107 0.2608 0.0
O20 O 0.30264 0.16915 0.21552 0.0
O21 O 0.29264 0.16254 0.32274 0.0
O22 O 0.37593 0.1062 0.35153 0.0
O23 O 0.30878 0.10126 0.38 0.0
O24 O 0.31231 0.03069 0.23413 0.0
O25 O 0.27388 0.05945 0.29753 0.0
O26 O 0.44247 0.08762 0.30028 0.0
O27 O 0.44112 0.07699 0.19441 0.0
O28 O 0.32652 0.08882 0.17244 0.0
O29 O 0.39455 0.11401 0.12511 0.0
O30 O 0.40357 0.20678 0.2975 0.0
O31 O 0.44453 0.18865 0.22477 0.0
H32 H 0.22203 0.17263 0.3656 0.0
H33 H 0.14686 0.17241 0.35554 0.0
H34 H 0.14808 0.15014 0.14303 0.0
H35 H 0.22445 0.15364 0.1542 0.0
H36 H 0.52599 0.08489 0.15251 0.0
H37 H 0.61353 0.12291 0.15538 0.0
H38 H 0.61484 0.18001 0.34939 0.0
H39 H 0.52794 0.1412 0.34684 0.0
Pr40 Pr 0.83868 0.71898 0.26744 0.0
Pr41 Pr 0.74638 0.65599 0.25029 0.0
C42 C 0.93446 0.77767 0.27411 0.0
C43 C 0.97434 0.82653 0.26434 0.0
C44 C 1.00138 0.85181 0.32039 0.0
C45 C 0.04843 0.88963 0.31281 0.0
C46 C 0.06811 0.90204 0.24921 0.0
C47 C 0.03901 0.88181 0.19291 0.0
C48 C 0.99182 0.84383 0.20043 0.0
C49 C 0.7908 0.71493 0.3872 0.0
C50 C 0.78727 0.77554 0.24721 0.0
C51 C 0.65154 0.58745 0.26643 0.0
C52 C 0.62293 0.53352 0.26364 0.0
C53 C 0.61927 0.50752 0.2054 0.0
C54 C 0.59203 0.45682 0.20462 0.0
C55 C 0.56749 0.43077 0.26179 0.0
C56 C 0.57147 0.45678 0.31994 0.0
C57 C 0.59902 0.50734 0.32092 0.0
C58 C 0.7755 0.69214 0.12001 0.0
C59 C 0.8221 0.61134 0.25355 0.0
O60 O 0.91309 0.75081 0.222 0.0
O61 O 0.90555 0.77076 0.32377 0.0
O62 O 0.78296 0.6776 0.35401 0.0
O63 O 0.82618 0.75304 0.36157 0.0
O64 O 0.75033 0.73394 0.26883 0.0
O65 O 0.82445 0.77495 0.22178 0.0
O66 O 0.6823 0.60633 0.3153 0.0
O67 O 0.66866 0.61147 0.2115 0.0
O68 O 0.7922 0.71613 0.17301 0.0
O69 O 0.75251 0.64675 0.13488 0.0
O70 O 0.8546 0.65626 0.26158 0.0
O71 O 0.77629 0.60019 0.24758 0.0
H72 H 0.9881 0.83936 0.37009 0.0
H73 H 0.07075 0.90623 0.35638 0.0
H74 H 0.05411 0.89255 0.1436 0.0
H75 H 0.97099 0.82545 0.15654 0.0
H76 H 0.63735 0.52627 0.16038 0.0
H77 H 0.58957 0.43784 0.15902 0.0
H78 H 0.55302 0.43788 0.36472 0.0
H79 H 0.60135 0.52612 0.36666 0.0
Pr80 Pr 0.92216 0.20125 0.26709 0.0
Pr81 Pr 0.95875 0.30898 0.25022 0.0
C82 C 0.88944 0.10671 0.25896 0.0
C83 C 0.89952 0.06724 0.26758 0.0
C84 C 0.87395 0.03353 0.31718 0.0
C85 C 0.86705 0.98751 0.31249 0.0
C86 C 0.88596 0.97473 0.25847 0.0
C87 C 0.91862 1.01056 0.21531 0.0
C88 C 0.9248 0.05683 0.21917 0.0
C89 C 0.96524 0.25158 0.39092 0.0
C90 C 0.03088 0.2556 0.24392 0.0
C91 C 0.97685 0.39775 0.28578 0.0
C92 C 0.95244 0.42718 0.27721 0.0
C93 C 0.94134 0.43861 0.21435 0.0
C94 C 0.91794 0.466 0.20856 0.0
C95 C 0.90516 0.48288 0.26535 0.0
C96 C 0.91585 0.47094 0.32799 0.0
C97 C 0.93889 0.44338 0.33376 0.0
C98 C 0.96721 0.2834 0.1228 0.0
C99 C 0.83628 0.22827 0.25058 0.0
O100 O 0.90877 0.13583 0.2087 0.0
O101 O 0.88445 0.12711 0.31214 0.0
O102 O 0.95912 0.26695 0.33674 0.0
O103 O 0.94784 0.20584 0.38204 0.0
O104 O 1.02808 0.29378 0.26651 0.0
O105 O 0.99252 0.21874 0.21999 0.0
O106 O 0.95433 0.35987 0.32389 0.0
O107 O 0.99759 0.39026 0.23447 0.0
O108 O 0.95252 0.25302 0.17153 0.0
O109 O 0.9677 0.32282 0.13819 0.0
O110 O 0.84657 0.19383 0.25574 0.0
O111 O 0.87142 0.274 0.24746 0.0
H112 H 0.8548 0.04092 0.35559 0.0
H113 H 0.84289 0.96062 0.34762 0.0
H114 H 0.93484 1.00148 0.17472 0.0
H115 H 0.94565 0.08279 0.18106 0.0
H116 H 0.95069 0.42641 0.16961 0.0
H117 H 0.91021 0.47448 0.15958 0.0
H118 H 0.90655 0.48323 0.37268 0.0
H119 H 0.94639 0.43487 0.38288 0.0
Pr120 Pr 0.10515 0.37962 0.7486 0.0
Pr121 Pr 0.14123 0.31603 0.76939 0.0
C122 C 0.08281 0.44784 0.78076 0.0
C123 C 0.1085 0.50154 0.7738 0.0
C124 C 0.09847 0.52374 0.72052 0.0
C125 C 0.12205 0.57425 0.71556 0.0
C126 C 0.1563 0.60375 0.76365 0.0
C127 C 0.16692 0.58167 0.81623 0.0
C128 C 0.14331 0.53138 0.82138 0.0
C129 C 0.09342 0.34583 0.62128 0.0
C130 C 0.22749 0.42646 0.7537 0.0
C131 C 0.18111 0.25994 0.76206 0.0
C132 C 0.17107 0.21056 0.77118 0.0
C133 C 0.18764 0.19905 0.82859 0.0
C134 C 0.18757 0.15594 0.83305 0.0
C135 C 0.1699 0.12178 0.7807 0.0
C136 C 0.1529 0.13427 0.72301 0.0
C137 C 0.15241 0.17733 0.71912 0.0
C138 C 0.0962 0.31789 0.89362 0.0
C139 C 0.03374 0.25451 0.74725 0.0
O140 O 0.10225 0.43092 0.82228 0.0
O141 O 0.06554 0.42113 0.72733 0.0
O142 O 0.10713 0.32782 0.66851 0.0
O143 O 0.09458 0.38529 0.63781 0.0
O144 O 0.21755 0.38242 0.76154 0.0
O145 O 0.19156 0.43566 0.74722 0.0
O146 O 0.1614 0.26886 0.71103 0.0
O147 O 0.18338 0.28421 0.81531 0.0
O148 O 0.09939 0.3402 0.84128 0.0
O149 O 0.11695 0.29262 0.883 0.0
O150 O 0.03576 0.296 0.76496 0.0
O151 O 0.07286 0.25562 0.72781 0.0
H152 H 0.072 0.50207 0.683 0.0
H153 H 0.11304 0.59036 0.6747 0.0
H154 H 0.193 0.60349 0.8541 0.0
H155 H 0.15218 0.51597 0.86326 0.0
H156 H 0.20378 0.22481 0.86879 0.0
H157 H 0.20542 0.1524 0.87644 0.0
H158 H 0.14328 0.114 0.67766 0.0
H159 H 0.14055 0.18593 0.67322 0.0
Pr160 Pr 0.30481 0.93173 0.75201 0.0
Pr161 Pr 0.2291 0.90266 0.77174 0.0
C162 C 0.39393 0.94407 0.78055 0.0
C163 C 0.42607 0.92284 0.77278 0.0
C164 C 0.45993 0.93665 0.7207 0.0
C165 C 0.49177 0.91818 0.71661 0.0
C166 C 0.49046 0.88557 0.76453 0.0
C167 C 0.45703 0.87223 0.81669 0.0
C168 C 0.42548 0.89071 0.82094 0.0
C169 C 0.30045 0.96685 0.63121 0.0
C170 C 0.24055 0.81396 0.76318 0.0
C171 C 0.13462 0.85969 0.73728 0.0
C172 C 0.09175 0.86536 0.74657 0.0
C173 C 0.07337 0.86507 0.80967 0.0
C174 C 1.02908 0.86382 0.81665 0.0
C175 C 1.00226 0.86438 0.76069 0.0
C176 C 1.02234 0.86589 0.69743 0.0
C177 C 0.06657 0.86717 0.6907 0.0
C178 C 0.26615 0.94832 0.90041 0.0
C179 C 0.24925 0.99916 0.7806 0.0
O180 O 0.35582 0.92097 0.8185 0.0
O181 O 0.38566 0.96414 0.72945 0.0
O182 O 0.26249 0.93065 0.65847 0.0
O183 O 0.33991 0.98243 0.66549 0.0
O184 O 0.21799 0.82885 0.80028 0.0
O185 O 0.27447 0.84779 0.72658 0.0
O186 O 0.16939 0.89186 0.70028 0.0
O187 O 0.1504 0.84576 0.78805 0.0
O188 O 0.29217 0.95514 0.85021 0.0
O189 O 0.22099 0.91883 0.88544 0.0
O190 O 0.29188 1.00089 0.77109 0.0
O191 O 0.21122 0.95843 0.78958 0.0
H192 H 0.46216 0.96206 0.68349 0.0
H193 H 0.5176 0.92951 0.67629 0.0
H194 H 0.45566 0.84768 0.85468 0.0
H195 H 0.40084 0.88007 0.86262 0.0
H196 H 0.09205 0.86351 0.85386 0.0
H197 H 1.01584 0.85956 0.86653 0.0
H198 H 1.00293 0.86293 0.65194 0.0
H199 H 0.07987 0.867 0.6413 0.0
Pr200 Pr 0.67314 0.73601 0.7607 0.0
Pr201 Pr 0.72819 0.82468 0.76949 0.0
C202 C 0.59695 0.64648 0.78618 0.0
C203 C 0.54242 0.61831 0.7808 0.0
C204 C 0.51784 0.6138 0.72038 0.0
C205 C 0.46687 0.58476 0.71573 0.0
C206 C 0.43889 0.55904 0.77109 0.0
C207 C 0.46347 0.56387 0.83149 0.0
C208 C 0.51436 0.59325 0.8363 0.0
C209 C 0.71413 0.74669 0.63863 0.0
C210 C 0.62452 0.81026 0.75852 0.0
C211 C 0.79339 0.91884 0.75468 0.0
C212 C 0.8428 0.96002 0.76468 0.0
C213 C 0.84959 0.99485 0.81197 0.0
C214 C 0.89025 0.04058 0.80912 0.0
C215 C 0.92483 0.05234 0.759 0.0
C216 C 0.92182 1.01586 0.71738 0.0
C217 C 0.88045 0.9699 0.71952 0.0
C218 C 0.72196 0.78041 0.89883 0.0
C219 C 0.79811 0.78936 0.76071 0.0
O220 O 0.61665 0.68042 0.83114 0.0
O221 O 0.62202 0.65817 0.73131 0.0
O222 O 0.7059 0.77985 0.66362 0.0
O223 O 0.69588 0.70801 0.67395 0.0
O224 O 0.669 0.84427 0.75901 0.0
O225 O 0.6158 0.76548 0.75872 0.0
O226 O 0.78671 0.88619 0.71076 0.0
O227 O 0.76391 0.90198 0.80527 0.0
O228 O 0.72745 0.76621 0.84391 0.0
O229 O 0.71774 0.81821 0.88942 0.0
O230 O 0.75657 0.74852 0.77595 0.0
O231 O 0.79708 0.82832 0.75308 0.0
H232 H 0.53799 0.63235 0.67638 0.0
H233 H 0.44922 0.58181 0.66846 0.0
H234 H 0.44322 0.54456 0.87504 0.0
H235 H 0.53197 0.59574 0.88346 0.0
H236 H 0.82152 0.98822 0.84766 0.0
H237 H 0.89269 0.06801 0.84289 0.0
H238 H 0.9491 0.024 0.67976 0.0
H239 H 0.87645 0.94346 0.68285 0.0
C240 C 0.33648 0.01876 0.96244 0.0
C241 C 0.2861 0.98262 0.96045 0.0
C242 C 0.27359 0.02671 0.05235 0.0
C243 C 0.32393 0.06182 0.05508 0.0
N244 N 0.3952 0.10185 0.98705 0.0
N245 N 0.21093 0.94589 0.02173 0.0
C246 C 0.35303 0.06091 1.00257 0.0
C247 C 0.25577 0.98476 1.0106 0.0
N248 N 0.36997 1.01132 0.9306 0.0
N249 N 0.24174 0.0375 0.08098 0.0
H250 H 0.1984 0.91318 0.99722 0.0
H251 H 0.18938 0.94409 0.06172 0.0
H252 H 0.25375 0.07292 0.09515 0.0
H253 H 0.20414 1.01558 0.07748 0.0
H254 H 0.40723 0.03531 0.93353 0.0
H255 H 0.36159 0.97782 0.91184 0.0
H256 H 0.41549 0.10469 0.94501 0.0
H257 H 0.40558 0.13474 1.01007 0.0
C258 C 0.71592 0.74371 0.51063 0.0
C259 C 0.73764 0.745 0.57292 0.0
C260 C 0.79497 0.72685 0.51228 0.0
C261 C 0.76841 0.71784 0.45251 0.0
N262 N 0.6962 0.70856 0.39995 0.0
N263 N 0.78954 0.72039 0.63051 0.0
C264 C 0.72667 0.72366 0.45332 0.0
C265 C 0.77467 0.73149 0.57296 0.0
N266 N 0.68424 0.76054 0.50601 0.0
N267 N 0.83975 0.73071 0.51213 0.0
H268 H 0.77516 0.72009 0.67639 0.0
H269 H 0.81292 0.70642 0.63165 0.0
H270 H 0.85497 0.72485 0.46988 0.0
H271 H 0.86297 0.7432 0.55319 0.0
H272 H 0.67072 0.76474 0.46085 0.0
H273 H 0.67527 0.77452 0.54676 0.0
H274 H 0.66364 0.70894 0.39842 0.0
H275 H 0.70059 0.6897 0.36119 0.0
C276 C 0.98133 0.27257 1.00185 0.0
C277 C 1.00052 0.2866 0.06676 0.0
C278 C 0.08344 0.32423 0.01779 0.0
C279 C 0.0638 0.31205 0.95298 0.0
N280 N 0.99463 0.30072 0.88884 0.0
N281 N 0.07092 0.34706 0.127 0.0
C282 C 1.01272 0.29329 0.94601 0.0
C283 C 0.05205 0.31834 0.07244 0.0
N284 N 0.93274 0.24227 0.99294 0.0
N285 N 0.13247 0.34485 0.02675 0.0
H286 H 0.05039 0.34518 0.16805 0.0
H287 H 0.10662 0.37555 0.12911 0.0
H288 H 0.15645 0.35145 0.98771 0.0
H289 H 0.14929 0.35444 0.07306 0.0
H290 H 0.91756 0.22876 0.94637 0.0
H291 H 0.90884 0.22758 0.03279 0.0
H292 H 0.95787 0.28901 0.88175 0.0
H293 H 1.01747 0.32751 0.85611 0.0
C294 C 0.32938 1.0109 0.44892 0.0
C295 C 0.33418 0.05756 0.45372 0.0
C296 C 0.30925 0.04076 0.571 0.0
C297 C 0.30331 0.99358 0.567 0.0
N298 N 0.30464 0.9326 0.49981 0.0
N299 N 0.33902 0.1202 0.52394 0.0
C300 C 0.31277 0.97851 0.50513 0.0
C301 C 0.32588 0.07282 0.51575 0.0
N302 N 0.34238 0.99818 0.3912 0.0
N303 N 0.29988 0.05593 0.62897 0.0
H304 H 0.35455 0.14562 0.48617 0.0
H305 H 0.3398 0.13597 0.56939 0.0
H306 H 0.29231 0.08388 0.63293 0.0
H307 H 0.29786 0.03894 0.67294 0.0
H308 H 0.34651 0.96817 0.38613 0.0
H309 H 0.35245 0.01965 0.34893 0.0
H310 H 0.3062 0.91682 0.45551 0.0
H311 H 0.29271 0.90875 0.53979 0.0
C312 C 0.78299 0.78507 0.98698 0.0
C313 C 0.73445 0.76343 0.96284 0.0
C314 C 0.71223 0.69339 0.0366 0.0
C315 C 0.76129 0.71434 0.06161 0.0
N316 N 0.8441 0.77966 0.05466 0.0
N317 N 0.65106 0.70487 0.97926 0.0
C318 C 0.79661 0.76052 0.0356 0.0
C319 C 0.69884 0.71989 0.99193 0.0
N320 N 0.81583 0.8299 0.9642 0.0
N321 N 0.67788 0.64729 0.05242 0.0
H322 H 0.64029 0.72421 0.94879 0.0
H323 H 0.62228 0.67706 1.00479 0.0
H324 H 0.68267 0.62505 0.0848 0.0
H325 H 0.6447 0.62845 0.02771 0.0
H326 H 0.85076 0.851 0.98295 0.0
H327 H 0.80684 0.84781 0.9286 0.0
H328 H 0.87277 0.81126 0.0359 0.0
H329 H 0.85595 0.76211 0.08673 0.0
C330 C 0.04705 0.31439 0.44352 0.0
C331 C 0.99661 0.28047 0.45004 0.0
C332 C 1.00861 0.29652 0.57009 0.0
C333 C 0.06021 0.31758 0.564 0.0
N334 N 0.12775 0.34398 0.48947 0.0
N335 N 0.92863 0.24175 0.52387 0.0
C336 C 0.0791 0.32475 0.49889 0.0
C337 C 0.97731 0.27149 0.51498 0.0
N338 N 0.06364 0.34105 0.38738 0.0
N339 N 0.9895 0.30487 0.62549 0.0
H340 H 0.90454 0.22488 0.48452 0.0
H341 H 0.91238 0.2335 0.57036 0.0
H342 H 1.01025 0.32359 0.66656 0.0
H343 H 0.9535 0.29702 0.62783 0.0
H344 H 0.09996 0.3672 0.38064 0.0
H345 H 0.03937 0.34383 0.35539 0.0
H346 H 0.14263 0.34703 0.44244 0.0
H347 H 0.15206 0.35265 0.52905 0.0
C348 C 0.70973 0.19445 0.31481 0.0
C349 C 0.67837 0.16414 0.26313 0.0
C350 C 0.75175 0.17583 0.20435 0.0
C351 C 0.78273 0.21254 0.2497 0.0
N352 N 0.78963 0.25864 0.34778 0.0
N353 N 0.67508 0.10235 0.19174 0.0
C354 C 0.76114 0.22296 0.30411 0.0
C355 C 0.70071 0.14814 0.21621 0.0
N356 N 0.69293 0.18762 0.3783 0.0
N357 N 0.77101 0.16728 0.14909 0.0
H358 H 0.64076 0.07755 0.20977 0.0
H359 H 0.69049 0.0869 0.1622 0.0
H360 H 0.80797 0.18712 0.13794 0.0
H361 H 0.74953 0.14404 0.11133 0.0
H362 H 0.71465 0.20612 0.41897 0.0
H363 H 0.66073 0.15671 0.39155 0.0
H364 H 0.77513 0.27066 0.38442 0.0
H365 H 0.82733 0.27879 0.34394 0.0
C366 C 0.49489 0.35401 0.21792 0.0
C367 C 0.53639 0.37649 0.26022 0.0
C368 C 0.51537 0.2963 0.30383 0.0
C369 C 0.47723 0.27392 0.25655 0.0
N370 N 0.43507 0.28121 0.16167 0.0
N371 N 0.59037 0.36784 0.33632 0.0
C372 C 0.46853 0.30278 0.21133 0.0
C373 C 0.54772 0.34725 0.30138 0.0
N374 N 0.47876 0.38137 0.18699 0.0
N375 N 0.52011 0.26896 0.3521 0.0
H376 H 0.61553 0.40459 0.33463 0.0
H377 H 0.60293 0.34804 0.36205 0.0
H378 H 0.49852 0.23153 0.35369 0.0
H379 H 0.54315 0.28358 0.39293 0.0
H380 H 0.44585 0.36675 0.16143 0.0
H381 H 0.49569 0.41865 0.19247 0.0
H382 H 0.43083 0.30025 0.12281 0.0
H383 H 0.41457 0.2439 0.15598 0.0
C384 C 0.90726 0.55994 0.22846 0.0
C385 C 0.88197 0.51415 0.25955 0.0
C386 C 0.81674 0.5316 0.28911 0.0
C387 C 0.83936 0.57488 0.25126 0.0
N388 N 0.90114 0.62286 0.17077 0.0
N389 N 0.80718 0.45248 0.30762 0.0
C390 C 0.88316 0.5868 0.21682 0.0
C391 C 0.83504 0.49883 0.28627 0.0
N392 N 0.95516 0.57908 0.21248 0.0
N393 N 0.77961 0.52277 0.33113 0.0
H394 H 0.8187 0.42726 0.3052 0.0
H395 H 0.77095 0.43789 0.32137 0.0
H396 H 0.76607 0.54613 0.33685 0.0
H397 H 0.76553 0.49458 0.3652 0.0
H398 H 0.97677 0.61447 0.19643 0.0
H399 H 0.97467 0.56151 0.22189 0.0
H400 H 0.93046 0.63027 0.14026 0.0
H401 H 0.88323 0.64137 0.15726 0.0
C402 C 0.21288 0.68546 0.71136 0.0
C403 C 0.17927 0.65767 0.76167 0.0
C404 C 0.19831 0.73241 0.81887 0.0
C405 C 0.22486 0.76072 0.76295 0.0
N406 N 0.25057 0.75999 0.64953 0.0
N407 N 0.13179 0.65613 0.85561 0.0
C408 C 0.23061 0.73623 0.70738 0.0
C409 C 0.16935 0.68162 0.81286 0.0
N410 N 0.22889 0.6637 0.66814 0.0
N411 N 0.20293 0.75339 0.87951 0.0
H412 H 0.10902 0.61892 0.85222 0.0
H413 H 0.12031 0.67276 0.88972 0.0
H414 H 0.22901 0.78907 0.88947 0.0
H415 H 0.18636 0.73361 0.92216 0.0
H416 H 0.25745 0.68291 0.63531 0.0
H417 H 0.21683 0.62691 0.66955 0.0
H418 H 0.2507 0.74232 0.60622 0.0
H419 H 0.26275 0.79624 0.6419 0.0
C420 C 0.51864 0.83137 0.71285 0.0
C421 C 0.52458 0.86587 0.76182 0.0
C422 C 0.5885 0.85536 0.81503 0.0
C423 C 0.58595 0.82436 0.76253 0.0
N424 N 0.55367 0.78933 0.65556 0.0
N425 N 0.57166 0.91752 0.85228 0.0
C426 C 0.55223 0.81397 0.70992 0.0
C427 C 0.56138 0.87976 0.8109 0.0
N428 N 0.47997 0.81402 0.67019 0.0
N429 N 0.61579 0.8603 0.87023 0.0
H430 H 0.55312 0.93666 0.85019 0.0
H431 H 0.6015 0.93284 0.88424 0.0
H432 H 0.635 0.84204 0.87605 0.0
H433 H 0.6153 0.87834 0.91294 0.0
H434 H 0.47054 0.78512 0.63826 0.0
H435 H 0.45482 0.82586 0.67045 0.0
H436 H 0.53427 0.78568 0.61209 0.0
H437 H 0.5771 0.77552 0.65201 0.0
C438 C 0.31302 0.45886 0.71057 0.0
C439 C 0.2807 0.46475 0.75324 0.0
C440 C 0.35184 0.53538 0.80337 0.0
C441 C 0.38421 0.52638 0.76536 0.0
N442 N 0.39423 0.47179 0.69373 0.0
N443 N 0.27119 0.50309 0.8503 0.0
C444 C 0.36436 0.48599 0.72183 0.0
C445 C 0.30063 0.50164 0.80227 0.0
N446 N 0.29465 0.42785 0.65797 0.0
N447 N 0.36973 0.57698 0.83926 0.0
H448 H 0.23381 0.4794 0.85145 0.0
H449 H 0.28446 0.52513 0.89207 0.0
H450 H 0.40651 0.60299 0.84044 0.0
H451 H 0.3476 0.58782 0.8626 0.0
H452 H 0.31638 0.4254 0.62138 0.0
H453 H 0.25759 0.40831 0.64703 0.0
H454 H 0.38137 0.43964 0.66758 0.0
H455 H 0.4316 0.48947 0.70234 0.0
C456 C 0.09758 0.19948 0.18706 0.0
C457 C 0.0983 0.17256 0.2417 0.0
C458 C 0.06162 0.21004 0.30796 0.0
C459 C 0.07041 0.24392 0.25633 0.0
N460 N 0.11202 0.27715 0.15471 0.0
N461 N 0.05554 0.13407 0.34096 0.0
C462 C 0.09341 0.24054 0.19863 0.0
C463 C 0.07233 0.17225 0.2986 0.0
N464 N 0.09179 0.18153 0.12444 0.0
N465 N 0.04525 0.21587 0.36717 0.0
H466 H 0.0615 0.1054 0.33165 0.0
H467 H 0.03237 0.1287 0.3805 0.0
H468 H 0.04321 0.24657 0.37502 0.0
H469 H 0.0404 0.19491 0.40904 0.0
H470 H 0.08792 0.19921 0.08337 0.0
H471 H 0.08198 0.14565 0.11627 0.0
H472 H 0.13037 0.27648 0.11225 0.0
H473 H 0.11597 0.31009 0.16873 0.0
C474 C 0.14048 0.98087 0.23016 0.0
C475 C 0.12057 0.93165 0.2422 0.0
C476 C 0.20161 0.94052 0.25296 0.0
C477 C 0.22196 0.99028 0.24112 0.0
N478 N 0.20798 0.05633 0.20908 0.0
N479 N 0.12924 0.86142 0.25249 0.0
C480 C 0.19079 1.00955 0.22567 0.0
C481 C 0.15028 0.91039 0.24937 0.0
N482 N 0.11147 1.00102 0.22397 0.0
N483 N 0.2308 0.9228 0.27245 0.0
H484 H 0.0917 0.83832 0.25122 0.0
H485 H 0.14886 0.84345 0.25122 0.0
H486 H 0.26858 0.9439 0.27381 0.0
H487 H 0.21765 0.88807 0.29052 0.0
H488 H 0.12533 0.03782 0.21634 0.0
H489 H 0.07369 0.98129 0.22763 0.0
H490 H 0.24444 0.08136 0.20224 0.0
H491 H 0.24444 0.08136 0.20224 0.0
C492 C 0.82866 0.90004 0.19471 0.0
C493 C 0.86481 0.92278 0.24507 0.0
C494 C 0.82659 0.84965 0.30929 0.0
C495 C 0.79467 0.82414 0.25644 0.0
N496 N 0.76844 0.82437 0.14478 0.0
N497 N 0.90701 0.91376 0.33816 0.0
C498 C 0.79644 0.84939 0.19793 0.0
C499 C 0.8672 0.89524 0.29761 0.0
N500 N 0.82389 0.92654 0.14529 0.0
N501 N 0.81665 0.83103 0.37144 0.0
H502 H 0.93731 0.94766 0.32965 0.0
H503 H 0.91128 0.89339 0.37515 0.0
H504 H 0.78348 0.80032 0.38105 0.0
H505 H 0.83795 0.84902 0.41275 0.0
H506 H 0.79486 0.91237 0.11197 0.0
H507 H 0.84744 0.96325 0.13917 0.0
H508 H 0.77208 0.83937 0.09783 0.0
H509 H 0.74284 0.78771 0.14783 0.0
C510 C 0.17269 0.05045 0.7268 0.0
C511 C 0.17809 0.07909 0.78319 0.0
C512 C 0.23723 0.06089 0.83109 0.0
C513 C 0.23803 0.03795 0.77196 0.0
N514 N 0.19633 0.99892 0.66949 0.0
N515 N 0.1815 0.07037 0.90098 0.0
C516 C 0.20337 0.03014 0.72038 0.0
C517 C 0.20041 0.07248 0.83968 0.0
N518 N 0.13348 0.03639 0.68607 0.0
N519 N 0.26941 0.06858 0.88089 0.0
H520 H 0.15034 0.07315 0.90687 0.0
H521 H 0.19365 0.06091 0.94348 0.0
H522 H 0.29749 0.06103 0.8748 0.0
H523 H 0.27052 0.08656 0.92461 0.0
H524 H 0.12939 0.02101 0.63937 0.0
H525 H 0.10339 0.0386 0.70181 0.0
H526 H 0.17016 0.98873 0.63247 0.0
H527 H 0.21684 0.98208 0.66411 0.0
C528 C 0.92698 0.86019 0.7099 0.0
C529 C 0.95078 0.85537 0.766 0.0
C530 C 0.87247 0.80072 0.81668 0.0
C531 C 0.8484 0.7984 0.75646 0.0
N532 N 0.85378 0.83048 0.64526 0.0
N533 N 0.93959 0.8577 0.88307 0.0
C534 C 0.8763 0.82892 0.70237 0.0
C535 C 0.92243 0.83537 0.82353 0.0
N536 N 0.9516 0.89948 0.66988 0.0
N537 N 0.84733 0.77242 0.86897 0.0
H538 H 0.97153 0.89108 0.88607 0.0
H539 H 0.91864 0.84745 0.92604 0.0
H540 H 0.81048 0.74684 0.86578 0.0
H541 H 0.86462 0.77179 0.91279 0.0
H542 H 0.93547 0.90886 0.63208 0.0
H543 H 0.98744 0.92589 0.68032 0.0
H544 H 0.87239 0.84698 0.60186 0.0
H545 H 0.81628 0.81347 0.64021 0.0
C546 C 1.00538 0.17876 0.81008 0.0
C547 C 0.99417 0.20427 0.76196 0.0
C548 C 0.94817 0.12897 0.69923 0.0
C549 C 0.95952 0.10418 0.7479 0.0
N550 N 1.00939 0.10737 0.83923 0.0
N551 N 0.9407 0.19878 0.67577 0.0
C552 C 0.99178 0.12993 0.79991 0.0
C553 C 0.96216 0.17803 0.70997 0.0
N554 N 1.02542 0.20069 0.86848 0.0
N555 N 0.92478 0.10604 0.64215 0.0
H556 H 0.94529 0.23169 0.69154 0.0
H557 H 0.91255 0.17995 0.64201 0.0
H558 H 0.91413 0.07026 0.63223 0.0
H559 H 0.92064 0.12402 0.6018 0.0
H560 H 0.03239 0.18437 0.9084 0.0
H561 H 1.02689 0.2328 0.87918 0.0
H562 H 0.03674 0.12521 0.87447 0.0
H563 H 0.99982 0.0715 0.83137 0.0
loop_
_geom_bond_atom_site_label_1
_geom_bond_atom_site_label_2
_geom_bond_distance
_geom_bond_site_symmetry_2
_ccdc_geom_bond_type
Pr0 C2 2.880 . S
Pr0 O20 2.562 . S
Pr0 O21 2.490 . S
Pr0 O22 2.695 . S
Pr0 O23 2.512 . S
Pr0 O25 2.437 . S
Pr0 O28 2.436 . S
Pr0 O30 2.438 . S
Pr1 C11 2.880 . S
Pr1 O22 2.436 . S
Pr1 O24 2.438 . S
Pr1 O26 2.562 . S
Pr1 O27 2.490 . S
Pr1 O28 2.695 . S
Pr1 O29 2.512 . S
Pr1 O31 2.437 . S
C2 Pr0 2.880 . S
C2 C3 1.491 . S
C2 O20 1.254 . S
C2 O21 1.225 . S
C3 C2 1.491 . S
C3 C4 1.392 . S
C3 C8 1.356 . S
C4 C3 1.392 . S
C4 C5 1.368 . S
C4 H32 0.929 . S
C5 C4 1.368 . S
C5 C6 1.386 . S
C5 H33 0.929 . S
C6 C5 1.386 . S
C6 C7 1.373 . S
C7 C6 1.373 . S
C7 C8 1.409 . S
C7 H34 0.931 . S
C8 C3 1.356 . S
C8 C7 1.409 . S
C8 H35 0.930 . S
C9 O22 1.270 . S
C9 O23 1.248 . S
C10 O24 1.267 . S
C10 O25 1.278 . S
C11 Pr1 2.880 . S
C11 C12 1.491 . S
C11 O26 1.254 . S
C11 O27 1.225 . S
C12 C11 1.491 . S
C12 C13 1.392 . S
C12 C17 1.356 . S
C13 C12 1.392 . S
C13 C14 1.368 . S
C13 H36 0.929 . S
C14 C13 1.368 . S
C14 C15 1.386 . S
C14 H37 0.929 . S
C15 C14 1.386 . S
C15 C16 1.373 . S
C16 C15 1.373 . S
C16 C17 1.409 . S
C16 H38 0.931 . S
C17 C12 1.356 . S
C17 C16 1.409 . S
C17 H39 0.930 . S
C18 O28 1.270 . S
C18 O29 1.248 . S
C19 O30 1.267 . S
C19 O31 1.278 . S
O20 Pr0 2.562 . S
O20 C2 1.254 . S
O21 Pr0 2.490 . S
O21 C2 1.225 . S
O22 Pr0 2.695 . S
O22 Pr1 2.436 . S
O22 C9 1.270 . S
O23 Pr0 2.512 . S
O23 C9 1.248 . S
O24 Pr1 2.438 . S
O24 C10 1.267 . S
O25 Pr0 2.437 . S
O25 C10 1.278 . S
O26 Pr1 2.562 . S
O26 C11 1.254 . S
O27 Pr1 2.490 . S
O27 C11 1.225 . S
O28 Pr0 2.436 . S
O28 Pr1 2.695 . S
O28 C18 1.270 . S
O29 Pr1 2.512 . S
O29 C18 1.248 . S
O30 Pr0 2.438 . S
O30 C19 1.267 . S
O31 Pr1 2.437 . S
O31 C19 1.278 . S
H32 C4 0.929 . S
H33 C5 0.929 . S
H34 C7 0.931 . S
H35 C8 0.930 . S
H36 C13 0.929 . S
H37 C14 0.929 . S
H38 C16 0.931 . S
H39 C17 0.930 . S
Pr40 C42 2.880 . S
Pr40 O60 2.562 . S
Pr40 O61 2.490 . S
Pr40 O62 2.695 . S
Pr40 O63 2.512 . S
Pr40 O65 2.437 . S
Pr40 O68 2.436 . S
Pr40 O70 2.438 . S
Pr41 C51 2.880 . S
Pr41 O62 2.436 . S
Pr41 O64 2.438 . S
Pr41 O66 2.562 . S
Pr41 O67 2.490 . S
Pr41 O68 2.695 . S
Pr41 O69 2.512 . S
Pr41 O71 2.437 . S
C42 Pr40 2.880 . S
C42 C43 1.491 . S
C42 O60 1.254 . S
C42 O61 1.225 . S
C43 C42 1.491 . S
C43 C44 1.392 . S
C43 C48 1.356 . S
C44 C43 1.392 . S
C44 C45 1.368 1_655 S
C44 H72 0.929 . S
C45 C44 1.368 1_455 S
C45 C46 1.386 . S
C45 H73 0.929 . S
C46 C45 1.386 . S
C46 C47 1.373 . S
C47 C46 1.373 . S
C47 C48 1.409 1_455 S
C47 H74 0.931 . S
C48 C43 1.356 . S
C48 C47 1.409 1_655 S
C48 H75 0.930 . S
C49 O62 1.270 . S
C49 O63 1.248 . S
C50 O64 1.267 . S
C50 O65 1.278 . S
C51 Pr41 2.880 . S
C51 C52 1.491 . S
C51 O66 1.254 . S
C51 O67 1.225 . S
C52 C51 1.491 . S
C52 C53 1.392 . S
C52 C57 1.356 . S
C53 C52 1.392 . S
C53 C54 1.368 . S
C53 H76 0.929 . S
C54 C53 1.368 . S
C54 C55 1.386 . S
C54 H77 0.929 . S
C55 C54 1.386 . S
C55 C56 1.373 . S
C56 C55 1.373 . S
C56 C57 1.409 . S
C56 H78 0.931 . S
C57 C52 1.356 . S
C57 C56 1.409 . S
C57 H79 0.930 . S
C58 O68 1.270 . S
C58 O69 1.248 . S
C59 O70 1.267 . S
C59 O71 1.278 . S
O60 Pr40 2.562 . S
O60 C42 1.254 . S
O61 Pr40 2.490 . S
O61 C42 1.225 . S
O62 Pr40 2.695 . S
O62 Pr41 2.436 . S
O62 C49 1.270 . S
O63 Pr40 2.512 . S
O63 C49 1.248 . S
O64 Pr41 2.438 . S
O64 C50 1.267 . S
O65 Pr40 2.437 . S
O65 C50 1.278 . S
O66 Pr41 2.562 . S
O66 C51 1.254 . S
O67 Pr41 2.490 . S
O67 C51 1.225 . S
O68 Pr40 2.436 . S
O68 Pr41 2.695 . S
O68 C58 1.270 . S
O69 Pr41 2.512 . S
O69 C58 1.248 . S
O70 Pr40 2.438 . S
O70 C59 1.267 . S
O71 Pr41 2.437 . S
O71 C59 1.278 . S
H72 C44 0.929 . S
H73 C45 0.929 . S
H74 C47 0.931 . S
H75 C48 0.930 . S
H76 C53 0.929 . S
H77 C54 0.929 . S
H78 C56 0.931 . S
H79 C57 0.930 . S
Pr80 C82 2.880 . S
Pr80 O100 2.562 . S
Pr80 O101 2.490 . S
Pr80 O102 2.695 . S
Pr80 O103 2.512 . S
Pr80 O105 2.437 . S
Pr80 O108 2.436 . S
Pr80 O110 2.438 . S
Pr81 C91 2.880 . S
Pr81 O102 2.436 . S
Pr81 O104 2.438 . S
Pr81 O106 2.562 . S
Pr81 O107 2.490 . S
Pr81 O108 2.695 . S
Pr81 O109 2.512 . S
Pr81 O111 2.437 . S
C82 Pr80 2.880 . S
C82 C83 1.491 . S
C82 O100 1.254 . S
C82 O101 1.225 . S
C83 C82 1.491 . S
C83 C84 1.392 . S
C83 C88 1.356 . S
C84 C83 1.392 . S
C84 C85 1.368 1_545 S
C84 H112 0.929 . S
C85 C84 1.368 1_565 S
C85 C86 1.386 . S
C85 H113 0.929 . S
C86 C85 1.386 . S
C86 C87 1.373 . S
C87 C86 1.373 . S
C87 C88 1.409 1_565 S
C87 H114 0.931 . S
C88 C83 1.356 . S
C88 C87 1.409 1_545 S
C88 H115 0.930 . S
C89 O102 1.270 . S
C89 O103 1.248 . S
C90 O104 1.267 . S
C90 O105 1.278 . S
C91 Pr81 2.880 . S
C91 C92 1.491 . S
C91 O106 1.254 . S
C91 O107 1.225 . S
C92 C91 1.491 . S
C92 C93 1.392 . S
C92 C97 1.356 . S
C93 C92 1.392 . S
C93 C94 1.368 . S
C93 H116 0.929 . S
C94 C93 1.368 . S
C94 C95 1.386 . S
C94 H117 0.929 . S
C95 C94 1.386 . S
C95 C96 1.373 . S
C96 C95 1.373 . S
C96 C97 1.409 . S
C96 H118 0.931 . S
C97 C92 1.356 . S
C97 C96 1.409 . S
C97 H119 0.930 . S
C98 O108 1.270 . S
C98 O109 1.248 . S
C99 O110 1.267 . S
C99 O111 1.278 . S
O100 Pr80 2.562 . S
O100 C82 1.254 . S
O101 Pr80 2.490 . S
O101 C82 1.225 . S
O102 Pr80 2.695 . S
O102 Pr81 2.436 . S
O102 C89 1.270 . S
O103 Pr80 2.512 . S
O103 C89 1.248 . S
O104 Pr81 2.438 . S
O104 C90 1.267 . S
O105 Pr80 2.437 . S
O105 C90 1.278 . S
O106 Pr81 2.562 . S
O106 C91 1.254 . S
O107 Pr81 2.490 . S
O107 C91 1.225 . S
O108 Pr80 2.436 . S
O108 Pr81 2.695 . S
O108 C98 1.270 . S
O109 Pr81 2.512 . S
O109 C98 1.248 . S
O110 Pr80 2.438 . S
O110 C99 1.267 . S
O111 Pr81 2.437 . S
O111 C99 1.278 . S
H112 C84 0.929 . S
H113 C85 0.929 . S
H114 C87 0.931 . S
H115 C88 0.930 . S
H116 C93 0.929 . S
H117 C94 0.929 . S
H118 C96 0.931 . S
H119 C97 0.930 . S
Pr120 C122 2.880 . S
Pr120 O140 2.562 . S
Pr120 O141 2.490 . S
Pr120 O142 2.695 . S
Pr120 O143 2.512 . S
Pr120 O145 2.437 . S
Pr120 O148 2.436 . S
Pr120 O150 2.438 . S
Pr121 C131 2.880 . S
Pr121 O142 2.436 . S
Pr121 O144 2.438 . S
Pr121 O146 2.562 . S
Pr121 O147 2.490 . S
Pr121 O148 2.695 . S
Pr121 O149 2.512 . S
Pr121 O151 2.437 . S
C122 Pr120 2.880 . S
C122 C123 1.491 . S
C122 O140 1.254 . S
C122 O141 1.225 . S
C123 C122 1.491 . S
C123 C124 1.392 . S
C123 C128 1.356 . S
C124 C123 1.392 . S
C124 C125 1.368 . S
C124 H152 0.929 . S
C125 C124 1.368 . S
C125 C126 1.386 . S
C125 H153 0.929 . S
C126 C125 1.386 . S
C126 C127 1.373 . S
C127 C126 1.373 . S
C127 C128 1.409 . S
C127 H154 0.931 . S
C128 C123 1.356 . S
C128 C127 1.409 . S
C128 H155 0.930 . S
C129 O142 1.270 . S
C129 O143 1.248 . S
C130 O144 1.267 . S
C130 O145 1.278 . S
C131 Pr121 2.880 . S
C131 C132 1.491 . S
C131 O146 1.254 . S
C131 O147 1.225 . S
C132 C131 1.491 . S
C132 C133 1.392 . S
C132 C137 1.356 . S
C133 C132 1.392 . S
C133 C134 1.368 . S
C133 H156 0.929 . S
C134 C133 1.368 . S
C134 C135 1.386 . S
C134 H157 0.929 . S
C135 C134 1.386 . S
C135 C136 1.373 . S
C136 C135 1.373 . S
C136 C137 1.409 . S
C136 H158 0.931 . S
C137 C132 1.356 . S
C137 C136 1.409 . S
C137 H159 0.930 . S
C138 O148 1.270 . S
C138 O149 1.248 . S
C139 O150 1.267 . S
C139 O151 1.278 . S
O140 Pr120 2.562 . S
O140 C122 1.254 . S
O141 Pr120 2.490 . S
O141 C122 1.225 . S
O142 Pr120 2.695 . S
O142 Pr121 2.436 . S
O142 C129 1.270 . S
O143 Pr120 2.512 . S
O143 C129 1.248 . S
O144 Pr121 2.438 . S
O144 C130 1.267 . S
O145 Pr120 2.437 . S
O145 C130 1.278 . S
O146 Pr121 2.562 . S
O146 C131 1.254 . S
O147 Pr121 2.490 . S
O147 C131 1.225 . S
O148 Pr120 2.436 . S
O148 Pr121 2.695 . S
O148 C138 1.270 . S
O149 Pr121 2.512 . S
O149 C138 1.248 . S
O150 Pr120 2.438 . S
O150 C139 1.267 . S
O151 Pr121 2.437 . S
O151 C139 1.278 . S
H152 C124 0.929 . S
H153 C125 0.929 . S
H154 C127 0.931 . S
H155 C128 0.930 . S
H156 C133 0.929 . S
H157 C134 0.929 . S
H158 C136 0.931 . S
H159 C137 0.930 . S
Pr160 C162 2.880 . S
Pr160 O180 2.562 . S
Pr160 O181 2.490 . S
Pr160 O182 2.695 . S
Pr160 O183 2.512 . S
Pr160 O185 2.437 . S
Pr160 O188 2.436 . S
Pr160 O190 2.438 . S
Pr161 C171 2.880 . S
Pr161 O182 2.436 . S
Pr161 O184 2.438 . S
Pr161 O186 2.562 . S
Pr161 O187 2.490 . S
Pr161 O188 2.695 . S
Pr161 O189 2.512 . S
Pr161 O191 2.437 . S
C162 Pr160 2.880 . S
C162 C163 1.491 . S
C162 O180 1.254 . S
C162 O181 1.225 . S
C163 C162 1.491 . S
C163 C164 1.392 . S
C163 C168 1.356 . S
C164 C163 1.392 . S
C164 C165 1.368 . S
C164 H192 0.929 . S
C165 C164 1.368 . S
C165 C166 1.386 . S
C165 H193 0.929 . S
C166 C165 1.386 . S
C166 C167 1.373 . S
C167 C166 1.373 . S
C167 C168 1.409 . S
C167 H194 0.931 . S
C168 C163 1.356 . S
C168 C167 1.409 . S
C168 H195 0.930 . S
C169 O182 1.270 . S
C169 O183 1.248 . S
C170 O184 1.267 . S
C170 O185 1.278 . S
C171 Pr161 2.880 . S
C171 C172 1.491 . S
C171 O186 1.254 . S
C171 O187 1.225 . S
C172 C171 1.491 . S
C172 C173 1.392 . S
C172 C177 1.356 . S
C173 C172 1.392 . S
C173 C174 1.368 1_455 S
C173 H196 0.929 . S
C174 C173 1.368 1_655 S
C174 C175 1.386 . S
C174 H197 0.929 . S
C175 C174 1.386 . S
C175 C176 1.373 . S
C176 C175 1.373 . S
C176 C177 1.409 1_655 S
C176 H198 0.931 . S
C177 C172 1.356 . S
C177 C176 1.409 1_455 S
C177 H199 0.930 . S
C178 O188 1.270 . S
C178 O189 1.248 . S
C179 O190 1.267 . S
C179 O191 1.278 . S
O180 Pr160 2.562 . S
O180 C162 1.254 . S
O181 Pr160 2.490 . S
O181 C162 1.225 . S
O182 Pr160 2.695 . S
O182 Pr161 2.436 . S
O182 C169 1.270 . S
O183 Pr160 2.512 . S
O183 C169 1.248 . S
O184 Pr161 2.438 . S
O184 C170 1.267 . S
O185 Pr160 2.437 . S
O185 C170 1.278 . S
O186 Pr161 2.562 . S
O186 C171 1.254 . S
O187 Pr161 2.490 . S
O187 C171 1.225 . S
O188 Pr160 2.436 . S
O188 Pr161 2.695 . S
O188 C178 1.270 . S
O189 Pr161 2.512 . S
O189 C178 1.248 . S
O190 Pr160 2.438 . S
O190 C179 1.267 . S
O191 Pr161 2.437 . S
O191 C179 1.278 . S
H192 C164 0.929 . S
H193 C165 0.929 . S
H194 C167 0.931 . S
H195 C168 0.930 . S
H196 C173 0.929 . S
H197 C174 0.929 . S
H198 C176 0.931 . S
H199 C177 0.930 . S
Pr200 C202 2.880 . S
Pr200 O220 2.562 . S
Pr200 O221 2.490 . S
Pr200 O222 2.695 . S
Pr200 O223 2.512 . S
Pr200 O225 2.437 . S
Pr200 O228 2.436 . S
Pr200 O230 2.438 . S
Pr201 C211 2.880 . S
Pr201 O222 2.436 . S
Pr201 O224 2.438 . S
Pr201 O226 2.562 . S
Pr201 O227 2.490 . S
Pr201 O228 2.695 . S
Pr201 O229 2.512 . S
Pr201 O231 2.437 . S
C202 Pr200 2.880 . S
C202 C203 1.491 . S
C202 O220 1.254 . S
C202 O221 1.225 . S
C203 C202 1.491 . S
C203 C204 1.392 . S
C203 C208 1.356 . S
C204 C203 1.392 . S
C204 C205 1.368 . S
C204 H232 0.929 . S
C205 C204 1.368 . S
C205 C206 1.386 . S
C205 H233 0.929 . S
C206 C205 1.386 . S
C206 C207 1.373 . S
C207 C206 1.373 . S
C207 C208 1.409 . S
C207 H234 0.931 . S
C208 C203 1.356 . S
C208 C207 1.409 . S
C208 H235 0.930 . S
C209 O222 1.270 . S
C209 O223 1.248 . S
C210 O224 1.267 . S
C210 O225 1.278 . S
C211 Pr201 2.880 . S
C211 C212 1.491 . S
C211 O226 1.254 . S
C211 O227 1.225 . S
C212 C211 1.491 . S
C212 C213 1.392 . S
C212 C217 1.356 . S
C213 C212 1.392 . S
C213 C214 1.368 1_565 S
C213 H236 0.929 . S
C214 C213 1.368 1_545 S
C214 C215 1.386 . S
C214 H237 0.929 . S
C215 C214 1.386 . S
C215 C216 1.373 . S
C216 C215 1.373 . S
C216 C217 1.409 1_545 S
C216 H238 0.931 . S
C217 C212 1.356 . S
C217 C216 1.409 1_565 S
C217 H239 0.930 . S
C218 O228 1.270 . S
C218 O229 1.248 . S
C219 O230 1.267 . S
C219 O231 1.278 . S
O220 Pr200 2.562 . S
O220 C202 1.254 . S
O221 Pr200 2.490 . S
O221 C202 1.225 . S
O222 Pr200 2.695 . S
O222 Pr201 2.436 . S
O222 C209 1.270 . S
O223 Pr200 2.512 . S
O223 C209 1.248 . S
O224 Pr201 2.438 . S
O224 C210 1.267 . S
O225 Pr200 2.437 . S
O225 C210 1.278 . S
O226 Pr201 2.562 . S
O226 C211 1.254 . S
O227 Pr201 2.490 . S
O227 C211 1.225 . S
O228 Pr200 2.436 . S
O228 Pr201 2.695 . S
O228 C218 1.270 . S
O229 Pr201 2.512 . S
O229 C218 1.248 . S
O230 Pr200 2.438 . S
O230 C219 1.267 . S
O231 Pr201 2.437 . S
O231 C219 1.278 . S
H232 C204 0.929 . S
H233 C205 0.929 . S
H234 C207 0.931 . S
H235 C208 0.930 . S
H236 C213 0.929 . S
H237 C214 0.929 . S
H238 C216 0.931 . S
H239 C217 0.930 . S
C240 C241 1.363 . S
C240 C246 1.379 1_565 S
C240 N248 1.356 . S
C241 C240 1.363 . S
C241 C247 1.363 1_556 S
C242 C243 1.363 . S
C242 C247 1.379 1_545 S
C242 N249 1.356 . S
C243 C242 1.363 . S
C243 C246 1.363 1_554 S
N244 C246 1.356 . S
N244 H256 0.984 . S
N244 H257 0.985 1_556 S
N245 C247 1.356 . S
N245 H250 0.984 1_554 S
N245 H251 0.985 . S
C246 C240 1.379 1_545 S
C246 C243 1.363 1_556 S
C246 N244 1.356 . S
C247 C241 1.363 1_554 S
C247 C242 1.379 1_565 S
C247 N245 1.356 . S
N248 C240 1.356 . S
N248 H254 0.984 . S
N248 H255 0.984 . S
N249 C242 1.356 . S
N249 H252 0.984 . S
N249 H253 0.986 . S
H250 N245 0.984 1_556 S
H251 N245 0.985 . S
H252 N249 0.984 . S
H253 N249 0.986 . S
H254 N248 0.984 . S
H255 N248 0.984 . S
H256 N244 0.984 . S
H257 N244 0.985 1_554 S
C258 C259 1.363 . S
C258 C264 1.379 . S
C258 N266 1.356 . S
C259 C258 1.363 . S
C259 C265 1.363 . S
C260 C261 1.363 . S
C260 C265 1.379 . S
C260 N267 1.356 . S
C261 C260 1.363 . S
C261 C264 1.363 . S
N262 C264 1.356 . S
N262 H274 0.984 . S
N262 H275 0.985 . S
N263 C265 1.356 . S
N263 H268 0.984 . S
N263 H269 0.985 . S
C264 C258 1.379 . S
C264 C261 1.363 . S
C264 N262 1.356 . S
C265 C259 1.363 . S
C265 C260 1.379 . S
C265 N263 1.356 . S
N266 C258 1.356 . S
N266 H272 0.984 . S
N266 H273 0.984 . S
N267 C260 1.356 . S
N267 H270 0.984 . S
N267 H271 0.985 . S
H268 N263 0.984 . S
H269 N263 0.985 . S
H270 N267 0.984 . S
H271 N267 0.985 . S
H272 N266 0.984 . S
H273 N266 0.984 . S
H274 N262 0.984 . S
H275 N262 0.985 . S
C276 C277 1.363 1_556 S
C276 C282 1.372 1_655 S
C276 N284 1.356 . S
C277 C276 1.363 1_554 S
C277 C283 1.363 1_655 S
C278 C279 1.363 1_554 S
C278 C283 1.379 . S
C278 N285 1.356 . S
C279 C278 1.363 1_556 S
C279 C282 1.372 . S
N280 C282 1.357 . S
N280 H292 0.984 1_455 S
N280 H293 0.985 . S
N281 C283 1.356 1_655 S
N281 H286 0.984 . S
N281 H287 0.985 1_655 S
C282 C276 1.372 1_455 S
C282 C279 1.372 . S
C282 N280 1.357 . S
C283 C277 1.363 1_455 S
C283 C278 1.379 . S
C283 N281 1.356 1_455 S
N284 C276 1.356 . S
N284 H290 0.984 . S
N284 H291 0.992 . S
N285 C278 1.356 . S
N285 H288 0.992 . S
N285 H289 0.985 . S
H286 N281 0.984 . S
H287 N281 0.985 1_455 S
H288 N285 0.992 . S
H289 N285 0.985 . S
H290 N284 0.984 . S
H291 N284 0.992 . S
H292 N280 0.984 1_655 S
H293 N280 0.985 . S
C294 C295 1.363 . S
C294 C300 1.379 1_545 S
C294 N302 1.356 . S
C295 C294 1.363 . S
C295 C301 1.363 . S
C296 C297 1.378 . S
C296 C301 1.368 1_565 S
C296 N303 1.357 . S
C297 C296 1.378 . S
C297 C300 1.363 . S
N298 C300 1.356 . S
N298 H310 0.984 . S
N298 H311 0.985 . S
N299 C301 1.356 . S
N299 H304 0.984 . S
N299 H305 0.985 . S
C300 C294 1.379 1_565 S
C300 C297 1.363 . S
C300 N298 1.356 . S
C301 C295 1.363 . S
C301 C296 1.368 1_545 S
C301 N299 1.356 . S
N302 C294 1.356 . S
N302 H308 0.984 1_545 S
N302 H309 0.984 . S
N303 C296 1.357 . S
N303 H306 0.984 . S
N303 H307 0.985 1_565 S
H304 N299 0.984 . S
H305 N299 0.985 . S
H306 N303 0.984 . S
H307 N303 0.985 1_545 S
H308 N302 0.984 1_565 S
H309 N302 0.984 . S
H310 N298 0.984 . S
H311 N298 0.985 . S
C312 C313 1.363 . S
C312 C318 1.370 1_556 S
C312 N320 1.356 . S
C313 C312 1.363 . S
C313 C319 1.372 . S
C314 C315 1.363 . S
C314 C319 1.370 1_554 S
C314 N321 1.356 . S
C315 C314 1.363 . S
C315 C318 1.372 . S
N316 C318 1.359 . S
N316 H328 0.984 1_554 S
N316 H329 0.985 . S
N317 C319 1.359 . S
N317 H322 0.984 . S
N317 H323 0.985 1_556 S
C318 C312 1.370 1_554 S
C318 C315 1.372 . S
C318 N316 1.359 . S
C319 C313 1.372 . S
C319 C314 1.370 1_556 S
C319 N317 1.359 . S
N320 C312 1.356 . S
N320 H326 0.984 . S
N320 H327 0.984 . S
N321 C314 1.356 . S
N321 H324 0.984 . S
N321 H325 0.985 . S
H322 N317 0.984 . S
H323 N317 0.985 1_554 S
H324 N321 0.984 . S
H325 N321 0.985 . S
H326 N320 0.984 . S
H327 N320 0.984 . S
H328 N316 0.984 1_556 S
H329 N316 0.985 . S
C330 C331 1.362 . S
C330 C336 1.380 1_655 S
C330 N338 1.356 . S
C331 C330 1.362 . S
C331 C337 1.363 . S
C332 C333 1.363 1_655 S
C332 C337 1.379 . S
C332 N339 1.356 1_655 S
C333 C332 1.363 1_455 S
C333 C336 1.363 . S
N334 C336 1.356 . S
N334 H346 0.984 . S
N334 H347 0.985 . S
N335 C337 1.356 . S
N335 H340 0.984 . S
N335 H341 0.985 . S
C336 C330 1.380 1_455 S
C336 C333 1.363 . S
C336 N334 1.356 . S
C337 C331 1.363 . S
C337 C332 1.379 . S
C337 N335 1.356 . S
N338 C330 1.356 . S
N338 H344 0.984 1_655 S
N338 H345 0.984 . S
N339 C332 1.356 1_455 S
N339 H342 0.984 . S
N339 H343 0.985 1_455 S
H340 N335 0.984 . S
H341 N335 0.985 . S
H342 N339 0.984 . S
H343 N339 0.985 1_655 S
H344 N338 0.984 1_455 S
H345 N338 0.984 . S
H346 N334 0.984 . S
H347 N334 0.985 . S
C348 C349 1.363 . S
C348 C354 1.379 . S
C348 N356 1.356 . S
C349 C348 1.363 . S
C349 C355 1.363 . S
C350 C351 1.363 . S
C350 C355 1.379 . S
C350 N357 1.356 . S
C351 C350 1.363 . S
C351 C354 1.363 . S
N352 C354 1.356 . S
N352 H364 0.984 . S
N352 H365 0.985 . S
N353 C355 1.356 . S
N353 H358 0.984 . S
N353 H359 0.985 . S
C354 C348 1.379 . S
C354 C351 1.363 . S
C354 N352 1.356 . S
C355 C349 1.363 . S
C355 C350 1.379 . S
C355 N353 1.356 . S
N356 C348 1.356 . S
N356 H362 0.984 . S
N356 H363 0.984 . S
N357 C350 1.356 . S
N357 H360 0.984 . S
N357 H361 0.985 . S
H358 N353 0.984 . S
H359 N353 0.985 . S
H360 N357 0.984 . S
H361 N357 0.985 . S
H362 N356 0.984 . S
H363 N356 0.984 . S
H364 N352 0.984 . S
H365 N352 0.985 . S
C366 C367 1.363 . S
C366 C372 1.379 . S
C366 N374 1.356 . S
C367 C366 1.363 . S
C367 C373 1.363 . S
C368 C369 1.363 . S
C368 C373 1.379 . S
C368 N375 1.356 . S
C369 C368 1.363 . S
C369 C372 1.363 . S
N370 C372 1.356 . S
N370 H382 0.984 . S
N370 H383 0.985 . S
N371 C373 1.356 . S
N371 H376 0.984 . S
N371 H377 0.985 . S
C372 C366 1.379 . S
C372 C369 1.363 . S
C372 N370 1.356 . S
C373 C367 1.363 . S
C373 C368 1.379 . S
C373 N371 1.356 . S
N374 C366 1.356 . S
N374 H380 0.984 . S
N374 H381 0.984 . S
N375 C368 1.356 . S
N375 H378 0.984 . S
N375 H379 0.985 . S
H376 N371 0.984 . S
H377 N371 0.985 . S
H378 N375 0.984 . S
H379 N375 0.985 . S
H380 N374 0.984 . S
H381 N374 0.984 . S
H382 N370 0.984 . S
H383 N370 0.985 . S
C384 C385 1.363 . S
C384 C390 1.379 . S
C384 N392 1.356 . S
C385 C384 1.363 . S
C385 C391 1.363 . S
C386 C387 1.363 . S
C386 C391 1.379 . S
C386 N393 1.356 . S
C387 C386 1.363 . S
C387 C390 1.363 . S
N388 C390 1.356 . S
N388 H400 0.984 . S
N388 H401 0.985 . S
N389 C391 1.356 . S
N389 H394 0.984 . S
N389 H395 0.985 . S
C390 C384 1.379 . S
C390 C387 1.363 . S
C390 N388 1.356 . S
C391 C385 1.363 . S
C391 C386 1.379 . S
C391 N389 1.356 . S
N392 C384 1.356 . S
N392 H398 0.984 . S
N392 H399 0.984 . S
N393 C386 1.356 . S
N393 H396 0.984 . S
N393 H397 0.985 . S
H394 N389 0.984 . S
H395 N389 0.985 . S
H396 N393 0.984 . S
H397 N393 0.985 . S
H398 N392 0.984 . S
H399 N392 0.984 . S
H400 N388 0.984 . S
H401 N388 0.985 . S
C402 C403 1.363 . S
C402 C408 1.379 . S
C402 N410 1.356 . S
C403 C402 1.363 . S
C403 C409 1.363 . S
C404 C405 1.363 . S
C404 C409 1.379 . S
C404 N411 1.356 . S
C405 C404 1.363 . S
C405 C408 1.363 . S
N406 C408 1.356 . S
N406 H418 0.984 . S
N406 H419 0.985 . S
N407 C409 1.356 . S
N407 H412 0.984 . S
N407 H413 0.985 . S
C408 C402 1.379 . S
C408 C405 1.363 . S
C408 N406 1.356 . S
C409 C403 1.363 . S
C409 C404 1.379 . S
C409 N407 1.356 . S
N410 C402 1.356 . S
N410 H416 0.984 . S
N410 H417 0.984 . S
N411 C404 1.356 . S
N411 H414 0.984 . S
N411 H415 0.985 . S
H412 N407 0.984 . S
H413 N407 0.985 . S
H414 N411 0.984 . S
H415 N411 0.985 . S
H416 N410 0.984 . S
H417 N410 0.984 . S
H418 N406 0.984 . S
H419 N406 0.985 . S
C420 C421 1.363 . S
C420 C426 1.379 . S
C420 N428 1.356 . S
C421 C420 1.363 . S
C421 C427 1.363 . S
C422 C423 1.363 . S
C422 C427 1.379 . S
C422 N429 1.356 . S
C423 C422 1.363 . S
C423 C426 1.363 . S
N424 C426 1.356 . S
N424 H436 0.984 . S
N424 H437 0.985 . S
N425 C427 1.356 . S
N425 H430 0.984 . S
N425 H431 0.985 . S
C426 C420 1.379 . S
C426 C423 1.363 . S
C426 N424 1.356 . S
C427 C421 1.363 . S
C427 C422 1.379 . S
C427 N425 1.356 . S
N428 C420 1.356 . S
N428 H434 0.984 . S
N428 H435 0.984 . S
N429 C422 1.356 . S
N429 H432 0.984 . S
N429 H433 0.985 . S
H430 N425 0.984 . S
H431 N425 0.985 . S
H432 N429 0.984 . S
H433 N429 0.985 . S
H434 N428 0.984 . S
H435 N428 0.984 . S
H436 N424 0.984 . S
H437 N424 0.985 . S
C438 C439 1.363 . S
C438 C444 1.379 . S
C438 N446 1.356 . S
C439 C438 1.363 . S
C439 C445 1.363 . S
C440 C441 1.363 . S
C440 C445 1.379 . S
C440 N447 1.356 . S
C441 C440 1.363 . S
C441 C444 1.363 . S
N442 C444 1.356 . S
N442 H454 0.984 . S
N442 H455 0.985 . S
N443 C445 1.356 . S
N443 H448 0.984 . S
N443 H449 0.985 . S
C444 C438 1.379 . S
C444 C441 1.363 . S
C444 N442 1.356 . S
C445 C439 1.363 . S
C445 C440 1.379 . S
C445 N443 1.356 . S
N446 C438 1.356 . S
N446 H452 0.984 . S
N446 H453 0.984 . S
N447 C440 1.356 . S
N447 H450 0.984 . S
N447 H451 0.985 . S
H448 N443 0.984 . S
H449 N443 0.985 . S
H450 N447 0.984 . S
H451 N447 0.985 . S
H452 N446 0.984 . S
H453 N446 0.984 . S
H454 N442 0.984 . S
H455 N442 0.985 . S
C456 C457 1.363 . S
C456 C462 1.379 . S
C456 N464 1.356 . S
C457 C456 1.363 . S
C457 C463 1.363 . S
C458 C459 1.363 1_655 S
C458 C463 1.379 1_655 S
C458 N465 1.356 . S
C459 C458 1.363 1_455 S
C459 C462 1.363 . S
N460 C462 1.356 . S
N460 H472 0.984 . S
N460 H473 0.985 . S
N461 C463 1.356 . S
N461 H466 0.984 . S
N461 H467 0.985 1_455 S
C462 C456 1.379 . S
C462 C459 1.363 . S
C462 N460 1.356 . S
C463 C457 1.363 . S
C463 C458 1.379 1_455 S
C463 N461 1.356 . S
N464 C456 1.356 . S
N464 H470 0.984 . S
N464 H471 0.984 . S
N465 C458 1.356 . S
N465 H468 0.984 . S
N465 H469 0.985 . S
H466 N461 0.984 . S
H467 N461 0.985 1_655 S
H468 N465 0.984 . S
H469 N465 0.985 . S
H470 N464 0.984 . S
H471 N464 0.984 . S
H472 N460 0.984 . S
H473 N460 0.985 . S
C474 C475 1.363 1_545 S
C474 C480 1.379 . S
C474 N482 1.356 . S
C475 C474 1.363 1_565 S
C475 C481 1.363 . S
C476 C477 1.363 . S
C476 C481 1.379 . S
C476 N483 1.356 . S
C477 C476 1.363 . S
C477 C480 1.363 1_565 S
N478 C480 1.356 . S
N478 H490 0.984 . S
N478 H491 0.985 . S
N479 C481 1.356 . S
N479 H484 0.984 . S
N479 H485 0.985 . S
C480 C474 1.379 . S
C480 C477 1.363 1_545 S
C480 N478 1.356 . S
C481 C475 1.363 . S
C481 C476 1.379 . S
C481 N479 1.356 . S
N482 C474 1.356 . S
N482 H488 0.984 . S
N482 H489 0.984 . S
N483 C476 1.356 . S
N483 H486 0.984 . S
N483 H487 0.985 . S
H484 N479 0.984 . S
H485 N479 0.985 . S
H486 N483 0.984 . S
H487 N483 0.985 . S
H488 N482 0.984 . S
H489 N482 0.984 . S
H490 N478 0.984 . S
H491 N478 0.985 . S
C492 C493 1.363 . S
C492 C498 1.379 . S
C492 N500 1.356 . S
C493 C492 1.363 . S
C493 C499 1.363 . S
C494 C495 1.363 . S
C494 C499 1.379 . S
C494 N501 1.356 . S
C495 C494 1.363 . S
C495 C498 1.363 . S
N496 C498 1.356 . S
N496 H508 0.984 . S
N496 H509 0.985 . S
N497 C499 1.356 . S
N497 H502 0.984 . S
N497 H503 0.985 . S
C498 C492 1.379 . S
C498 C495 1.363 . S
C498 N496 1.356 . S
C499 C493 1.363 . S
C499 C494 1.379 . S
C499 N497 1.356 . S
N500 C492 1.356 . S
N500 H506 0.984 . S
N500 H507 0.984 . S
N501 C494 1.356 . S
N501 H504 0.984 . S
N501 H505 0.985 . S
H502 N497 0.984 . S
H503 N497 0.985 . S
H504 N501 0.984 . S
H505 N501 0.985 . S
H506 N500 0.984 . S
H507 N500 0.984 . S
H508 N496 0.984 . S
H509 N496 0.985 . S
C510 C511 1.363 . S
C510 C516 1.379 1_545 S
C510 N518 1.356 . S
C511 C510 1.363 . S
C511 C517 1.363 . S
C512 C513 1.363 . S
C512 C517 1.379 . S
C512 N519 1.356 . S
C513 C512 1.363 . S
C513 C516 1.363 1_545 S
N514 C516 1.356 . S
N514 H526 0.984 . S
N514 H527 0.985 . S
N515 C517 1.356 . S
N515 H520 0.984 . S
N515 H521 0.985 . S
C516 C510 1.379 1_565 S
C516 C513 1.363 1_565 S
C516 N514 1.356 . S
C517 C511 1.363 . S
C517 C512 1.379 . S
C517 N515 1.356 . S
N518 C510 1.356 . S
N518 H524 0.984 1_545 S
N518 H525 0.984 . S
N519 C512 1.356 . S
N519 H522 0.984 . S
N519 H523 0.985 . S
H520 N515 0.984 . S
H521 N515 0.985 . S
H522 N519 0.984 . S
H523 N519 0.985 . S
H524 N518 0.984 1_565 S
H525 N518 0.984 . S
H526 N514 0.984 . S
H527 N514 0.985 . S
C528 C529 1.363 . S
C528 C534 1.379 . S
C528 N536 1.356 . S
C529 C528 1.363 . S
C529 C535 1.363 . S
C530 C531 1.363 . S
C530 C535 1.379 . S
C530 N537 1.356 . S
C531 C530 1.363 . S
C531 C534 1.363 . S
N532 C534 1.356 . S
N532 H544 0.984 . S
N532 H545 0.985 . S
N533 C535 1.356 . S
N533 H538 0.984 . S
N533 H539 0.985 . S
C534 C528 1.379 . S
C534 C531 1.363 . S
C534 N532 1.356 . S
C535 C529 1.363 . S
C535 C530 1.379 . S
C535 N533 1.356 . S
N536 C528 1.356 . S
N536 H542 0.984 . S
N536 H543 0.984 . S
N537 C530 1.356 . S
N537 H540 0.984 . S
N537 H541 0.985 . S
H538 N533 0.984 . S
H539 N533 0.985 . S
H540 N537 0.984 . S
H541 N537 0.985 . S
H542 N536 0.984 . S
H543 N536 0.984 . S
H544 N532 0.984 . S
H545 N532 0.985 . S
C546 C547 1.363 1_455 S
C546 C552 1.379 . S
C546 N554 1.356 . S
C547 C546 1.363 1_655 S
C547 C553 1.363 . S
C548 C549 1.363 . S
C548 C553 1.379 . S
C548 N555 1.356 . S
C549 C548 1.363 . S
C549 C552 1.363 1_655 S
N550 C552 1.356 . S
N550 H562 0.984 . S
N550 H563 0.983 . S
N551 C553 1.356 . S
N551 H556 0.984 . S
N551 H557 0.985 . S
C552 C546 1.379 . S
C552 C549 1.363 1_455 S
C552 N550 1.356 . S
C553 C547 1.363 . S
C553 C548 1.379 . S
C553 N551 1.356 . S
N554 C546 1.356 . S
N554 H560 0.984 . S
N554 H561 0.984 . S
N555 C548 1.356 . S
N555 H558 0.984 . S
N555 H559 0.985 . S
H556 N551 0.984 . S
H557 N551 0.985 . S
H558 N555 0.984 . S
H559 N555 0.985 . S
H560 N554 0.984 . S
H561 N554 0.984 . S
H562 N550 0.984 . S
H563 N550 0.983 . S
C241 C178 2.638 . S
C243 C18 2.372 . S
C259 C209 2.372 . S
C261 C49 2.638 . S
C277 C98 2.372 . S
C279 C138 2.638 . S
C295 C9 2.638 . S
C297 C169 2.372 . S
C313 C218 2.638 . S
C315 C58 2.372 . S
C331 C89 2.638 . S
C333 C129 2.372 . S
C349 C15 1.946 . S
C351 C99 1.864 . S
C367 C55 1.946 . S
C369 C19 1.864 . S
C385 C95 1.946 . S
C387 C59 1.864 . S
C403 C126 1.946 . S
C405 C170 1.864 . S
C421 C166 1.946 . S
C423 C210 1.864 . S
C439 C130 1.864 . S
C441 C206 1.946 . S
C457 C6 1.432 . S
C459 C90 1.519 1_455 S
C475 C46 1.432 . S
C477 C10 1.519 1_565 S
C493 C86 1.432 . S
C495 C50 1.519 . S
C511 C135 1.432 . S
C513 C179 1.519 1_545 S
C529 C175 1.432 . S
C531 C219 1.519 . S
C547 C139 1.519 1_655 S
C549 C215 1.432 . S
