# Generated by pormake.
# Topology vcc, (6)-cn, num edge types: 1
# Building blocks:
#     Node 0, Type 0, BuildingBlock: CUKXOW_clean_sbu_0, # of connection points: 6
#     Node 1, Type 0, BuildingBlock: CUKXOW_clean_sbu_0, # of connection points: 6
#     Node 2, Type 0, BuildingBlock: CUKXOW_clean_sbu_0, # of connection points: 6
#     Node 3, Type 0, BuildingBlock: CUKXOW_clean_sbu_0, # of connection points: 6
#     Node 4, Type 0, BuildingBlock: CUKXOW_clean_sbu_0, # of connection points: 6
#     Node 5, Type 0, BuildingBlock: CUKXOW_clean_sbu_0, # of connection points: 6
#     Node 6, Type 0, BuildingBlock: CUKXOW_clean_sbu_0, # of connection points: 6
#     Node 7, Type 0, BuildingBlock: CUKXOW_clean_sbu_0, # of connection points: 6
#     Node 8, Type 0, BuildingBlock: CUKXOW_clean_sbu_0, # of connection points: 6
#     Node 9, Type 0, BuildingBlock: CUKXOW_clean_sbu_0, # of connection points: 6
#     Node 10, Type 0, BuildingBlock: CUKXOW_clean_sbu_0, # of connection points: 6
#     Node 11, Type 0, BuildingBlock: CUKXOW_clean_sbu_0, # of connection points: 6
#     Node 12, Type 0, BuildingBlock: CUKXOW_clean_sbu_0, # of connection points: 6
#     Node 13, Type 0, BuildingBlock: CUKXOW_clean_sbu_0, # of connection points: 6
#     Node 14, Type 0, BuildingBlock: CUKXOW_clean_sbu_0, # of connection points: 6
#     Node 15, Type 0, BuildingBlock: CUKXOW_clean_sbu_0, # of connection points: 6
#     Node 16, Type 0, BuildingBlock: CUKXOW_clean_sbu_0, # of connection points: 6
#     Node 17, Type 0, BuildingBlock: CUKXOW_clean_sbu_0, # of connection points: 6
#     Node 18, Type 0, BuildingBlock: CUKXOW_clean_sbu_0, # of connection points: 6
#     Node 19, Type 0, BuildingBlock: CUKXOW_clean_sbu_0, # of connection points: 6
#     Node 20, Type 0, BuildingBlock: CUKXOW_clean_sbu_0, # of connection points: 6
#     Node 21, Type 0, BuildingBlock: CUKXOW_clean_sbu_0, # of connection points: 6
#     Node 22, Type 0, BuildingBlock: CUKXOW_clean_sbu_0, # of connection points: 6
#     Node 23, Type 0, BuildingBlock: CUKXOW_clean_sbu_0, # of connection points: 6
#     Node 24, Type 0, BuildingBlock: CUKXOW_clean_sbu_0, # of connection points: 6
#     Node 25, Type 0, BuildingBlock: CUKXOW_clean_sbu_0, # of connection points: 6
#     Node 26, Type 0, BuildingBlock: CUKXOW_clean_sbu_0, # of connection points: 6
#     Node 27, Type 0, BuildingBlock: CUKXOW_clean_sbu_0, # of connection points: 6
#     Node 28, Type 0, BuildingBlock: CUKXOW_clean_sbu_0, # of connection points: 6
#     Node 29, Type 0, BuildingBlock: CUKXOW_clean_sbu_0, # of connection points: 6
#     Node 30, Type 0, BuildingBlock: CUKXOW_clean_sbu_0, # of connection points: 6
#     Node 31, Type 0, BuildingBlock: CUKXOW_clean_sbu_0, # of connection points: 6
#     Edge 32, Type (0, 0), BuildingBlock: CIFDUS_clean_linker_0, # of connection points: 2
#     Edge 33, Type (0, 0), BuildingBlock: CIFDUS_clean_linker_0, # of connection points: 2
#     Edge 34, Type (0, 0), BuildingBlock: CIFDUS_clean_linker_0, # of connection points: 2
#     Edge 35, Type (0, 0), BuildingBlock: CIFDUS_clean_linker_0, # of connection points: 2
#     Edge 36, Type (0, 0), BuildingBlock: CIFDUS_clean_linker_0, # of connection points: 2
#     Edge 37, Type (0, 0), BuildingBlock: CIFDUS_clean_linker_0, # of connection points: 2
#     Edge 38, Type (0, 0), BuildingBlock: CIFDUS_clean_linker_0, # of connection points: 2
#     Edge 39, Type (0, 0), BuildingBlock: CIFDUS_clean_linker_0, # of connection points: 2
#     Edge 40, Type (0, 0), BuildingBlock: CIFDUS_clean_linker_0, # of connection points: 2
#     Edge 41, Type (0, 0), BuildingBlock: CIFDUS_clean_linker_0, # of connection points: 2
#     Edge 42, Type (0, 0), BuildingBlock: CIFDUS_clean_linker_0, # of connection points: 2
#     Edge 43, Type (0, 0), BuildingBlock: CIFDUS_clean_linker_0, # of connection points: 2
#     Edge 44, Type (0, 0), BuildingBlock: CIFDUS_clean_linker_0, # of connection points: 2
#     Edge 45, Type (0, 0), BuildingBlock: CIFDUS_clean_linker_0, # of connection points: 2
#     Edge 46, Type (0, 0), BuildingBlock: CIFDUS_clean_linker_0, # of connection points: 2
#     Edge 47, Type (0, 0), BuildingBlock: CIFDUS_clean_linker_0, # of connection points: 2
#     Edge 48, Type (0, 0), BuildingBlock: CIFDUS_clean_linker_0, # of connection points: 2
#     Edge 49, Type (0, 0), BuildingBlock: CIFDUS_clean_linker_0, # of connection points: 2
#     Edge 50, Type (0, 0), BuildingBlock: CIFDUS_clean_linker_0, # of connection points: 2
#     Edge 51, Type (0, 0), BuildingBlock: CIFDUS_clean_linker_0, # of connection points: 2
#     Edge 52, Type (0, 0), BuildingBlock: CIFDUS_clean_linker_0, # of connection points: 2
#     Edge 53, Type (0, 0), BuildingBlock: CIFDUS_clean_linker_0, # of connection points: 2
#     Edge 54, Type (0, 0), BuildingBlock: CIFDUS_clean_linker_0, # of connection points: 2
#     Edge 55, Type (0, 0), BuildingBlock: CIFDUS_clean_linker_0, # of connection points: 2
#     Edge 56, Type (0, 0), BuildingBlock: CIFDUS_clean_linker_0, # of connection points: 2
#     Edge 57, Type (0, 0), BuildingBlock: CIFDUS_clean_linker_0, # of connection points: 2
#     Edge 58, Type (0, 0), BuildingBlock: CIFDUS_clean_linker_0, # of connection points: 2
#     Edge 59, Type (0, 0), BuildingBlock: CIFDUS_clean_linker_0, # of connection points: 2
#     Edge 60, Type (0, 0), BuildingBlock: CIFDUS_clean_linker_0, # of connection points: 2
#     Edge 61, Type (0, 0), BuildingBlock: CIFDUS_clean_linker_0, # of connection points: 2
#     Edge 62, Type (0, 0), BuildingBlock: CIFDUS_clean_linker_0, # of connection points: 2
#     Edge 63, Type (0, 0), BuildingBlock: CIFDUS_clean_linker_0, # of connection points: 2
#     Edge 64, Type (0, 0), BuildingBlock: CIFDUS_clean_linker_0, # of connection points: 2
#     Edge 65, Type (0, 0), BuildingBlock: CIFDUS_clean_linker_0, # of connection points: 2
#     Edge 66, Type (0, 0), BuildingBlock: CIFDUS_clean_linker_0, # of connection points: 2
#     Edge 67, Type (0, 0), BuildingBlock: CIFDUS_clean_linker_0, # of connection points: 2
#     Edge 68, Type (0, 0), BuildingBlock: CIFDUS_clean_linker_0, # of connection points: 2
#     Edge 69, Type (0, 0), BuildingBlock: CIFDUS_clean_linker_0, # of connection points: 2
#     Edge 70, Type (0, 0), BuildingBlock: CIFDUS_clean_linker_0, # of connection points: 2
#     Edge 71, Type (0, 0), BuildingBlock: CIFDUS_clean_linker_0, # of connection points: 2
#     Edge 72, Type (0, 0), BuildingBlock: CIFDUS_clean_linker_0, # of connection points: 2
#     Edge 73, Type (0, 0), BuildingBlock: CIFDUS_clean_linker_0, # of connection points: 2
#     Edge 74, Type (0, 0), BuildingBlock: CIFDUS_clean_linker_0, # of connection points: 2
#     Edge 75, Type (0, 0), BuildingBlock: CIFDUS_clean_linker_0, # of connection points: 2
#     Edge 76, Type (0, 0), BuildingBlock: CIFDUS_clean_linker_0, # of connection points: 2
#     Edge 77, Type (0, 0), BuildingBlock: CIFDUS_clean_linker_0, # of connection points: 2
#     Edge 78, Type (0, 0), BuildingBlock: CIFDUS_clean_linker_0, # of connection points: 2
#     Edge 79, Type (0, 0), BuildingBlock: CIFDUS_clean_linker_0, # of connection points: 2
#     Edge 80, Type (0, 0), BuildingBlock: CIFDUS_clean_linker_0, # of connection points: 2
#     Edge 81, Type (0, 0), BuildingBlock: CIFDUS_clean_linker_0, # of connection points: 2
#     Edge 82, Type (0, 0), BuildingBlock: CIFDUS_clean_linker_0, # of connection points: 2
#     Edge 83, Type (0, 0), BuildingBlock: CIFDUS_clean_linker_0, # of connection points: 2
#     Edge 84, Type (0, 0), BuildingBlock: CIFDUS_clean_linker_0, # of connection points: 2
#     Edge 85, Type (0, 0), BuildingBlock: CIFDUS_clean_linker_0, # of connection points: 2
#     Edge 86, Type (0, 0), BuildingBlock: CIFDUS_clean_linker_0, # of connection points: 2
#     Edge 87, Type (0, 0), BuildingBlock: CIFDUS_clean_linker_0, # of connection points: 2
#     Edge 88, Type (0, 0), BuildingBlock: CIFDUS_clean_linker_0, # of connection points: 2
#     Edge 89, Type (0, 0), BuildingBlock: CIFDUS_clean_linker_0, # of connection points: 2
#     Edge 90, Type (0, 0), BuildingBlock: CIFDUS_clean_linker_0, # of connection points: 2
#     Edge 91, Type (0, 0), BuildingBlock: CIFDUS_clean_linker_0, # of connection points: 2
#     Edge 92, Type (0, 0), BuildingBlock: CIFDUS_clean_linker_0, # of connection points: 2
#     Edge 93, Type (0, 0), BuildingBlock: CIFDUS_clean_linker_0, # of connection points: 2
#     Edge 94, Type (0, 0), BuildingBlock: CIFDUS_clean_linker_0, # of connection points: 2
#     Edge 95, Type (0, 0), BuildingBlock: CIFDUS_clean_linker_0, # of connection points: 2
#     Edge 96, Type (0, 0), BuildingBlock: CIFDUS_clean_linker_0, # of connection points: 2
#     Edge 97, Type (0, 0), BuildingBlock: CIFDUS_clean_linker_0, # of connection points: 2
#     Edge 98, Type (0, 0), BuildingBlock: CIFDUS_clean_linker_0, # of connection points: 2
#     Edge 99, Type (0, 0), BuildingBlock: CIFDUS_clean_linker_0, # of connection points: 2
#     Edge 100, Type (0, 0), BuildingBlock: CIFDUS_clean_linker_0, # of connection points: 2
#     Edge 101, Type (0, 0), BuildingBlock: CIFDUS_clean_linker_0, # of connection points: 2
#     Edge 102, Type (0, 0), BuildingBlock: CIFDUS_clean_linker_0, # of connection points: 2
#     Edge 103, Type (0, 0), BuildingBlock: CIFDUS_clean_linker_0, # of connection points: 2
#     Edge 104, Type (0, 0), BuildingBlock: CIFDUS_clean_linker_0, # of connection points: 2
#     Edge 105, Type (0, 0), BuildingBlock: CIFDUS_clean_linker_0, # of connection points: 2
#     Edge 106, Type (0, 0), BuildingBlock: CIFDUS_clean_linker_0, # of connection points: 2
#     Edge 107, Type (0, 0), BuildingBlock: CIFDUS_clean_linker_0, # of connection points: 2
#     Edge 108, Type (0, 0), BuildingBlock: CIFDUS_clean_linker_0, # of connection points: 2
#     Edge 109, Type (0, 0), BuildingBlock: CIFDUS_clean_linker_0, # of connection points: 2
#     Edge 110, Type (0, 0), BuildingBlock: CIFDUS_clean_linker_0, # of connection points: 2
#     Edge 111, Type (0, 0), BuildingBlock: CIFDUS_clean_linker_0, # of connection points: 2
#     Edge 112, Type (0, 0), BuildingBlock: CIFDUS_clean_linker_0, # of connection points: 2
#     Edge 113, Type (0, 0), BuildingBlock: CIFDUS_clean_linker_0, # of connection points: 2
#     Edge 114, Type (0, 0), BuildingBlock: CIFDUS_clean_linker_0, # of connection points: 2
#     Edge 115, Type (0, 0), BuildingBlock: CIFDUS_clean_linker_0, # of connection points: 2
#     Edge 116, Type (0, 0), BuildingBlock: CIFDUS_clean_linker_0, # of connection points: 2
#     Edge 117, Type (0, 0), BuildingBlock: CIFDUS_clean_linker_0, # of connection points: 2
#     Edge 118, Type (0, 0), BuildingBlock: CIFDUS_clean_linker_0, # of connection points: 2
#     Edge 119, Type (0, 0), BuildingBlock: CIFDUS_clean_linker_0, # of connection points: 2
#     Edge 120, Type (0, 0), BuildingBlock: CIFDUS_clean_linker_0, # of connection points: 2
#     Edge 121, Type (0, 0), BuildingBlock: CIFDUS_clean_linker_0, # of connection points: 2
#     Edge 122, Type (0, 0), BuildingBlock: CIFDUS_clean_linker_0, # of connection points: 2
#     Edge 123, Type (0, 0), BuildingBlock: CIFDUS_clean_linker_0, # of connection points: 2
#     Edge 124, Type (0, 0), BuildingBlock: CIFDUS_clean_linker_0, # of connection points: 2
#     Edge 125, Type (0, 0), BuildingBlock: CIFDUS_clean_linker_0, # of connection points: 2
#     Edge 126, Type (0, 0), BuildingBlock: CIFDUS_clean_linker_0, # of connection points: 2
#     Edge 127, Type (0, 0), BuildingBlock: CIFDUS_clean_linker_0, # of connection points: 2
# Relax obj value: 0.200
# Max RMSD: 0.167
# Mean RMSD: 0.167
data_MOF--net-vcc--node1-CUKXOW_clean_sbu_0--edge1-CIFDUS_clean_linker_0
_symmetry_space_group_name_H-M    P1
_symmetry_Int_Tables_number       1
_symmetry_cell_setting            triclinic
loop_
_symmetry_equiv_pos_as_xyz
'x, y, z'
_cell_length_a     45.701607
_cell_length_b     50.917019
_cell_length_c     32.15852
_cell_angle_alpha  89.71283
_cell_angle_beta   90.000216
_cell_angle_gamma 89.858236
loop_
_atom_site_label
_atom_site_type_symbol
_atom_site_fract_x
_atom_site_fract_y
_atom_site_fract_z
_atom_type_partial_charge
Tb0 Tb 0.26198 1.00776 0.13586 0.0
C1 C 0.26288 0.06546 0.16539 0.0
Tb2 Tb 0.30473 0.02224 0.15838 0.0
O3 O 0.22924 0.01858 0.18042 0.0
O4 O 0.27146 1.00708 0.2026 0.0
O5 O 0.25356 0.05129 0.13368 0.0
C6 C 0.35558 0.04255 0.17998 0.0
O7 O 0.2829 0.05451 0.18812 0.0
C8 C 0.30563 0.02852 1.07413 0.0
C9 C 0.30427 0.96256 0.16272 0.0
O10 O 0.33072 0.05404 0.18402 0.0
O11 O 0.35173 0.01881 0.16711 0.0
O12 O 0.30767 0.04697 0.10108 0.0
O13 O 0.29924 1.00822 0.09483 0.0
O14 O 0.32093 0.9826 0.17247 0.0
O15 O 0.27832 0.96774 0.14703 0.0
C16 C 0.22479 0.98686 1.0834 0.0
O17 O 0.22969 0.97796 0.12037 0.0
O18 O 0.23885 1.00853 1.07731 0.0
C19 C 0.24536 0.01458 0.21299 0.0
Tb20 Tb 0.91035 0.26451 0.15271 0.0
C21 C 0.91378 0.2063 0.18231 0.0
Tb22 Tb 0.86922 0.24747 0.16963 0.0
O23 O 0.92995 0.28487 0.20404 0.0
O24 O 0.90344 0.25185 0.21767 0.0
O25 O 0.92474 0.22219 0.1538 0.0
C26 C 0.81922 0.22269 0.18241 0.0
O27 O 0.89097 0.21538 0.20154 0.0
C28 C 0.86984 0.24723 0.08479 0.0
C29 C 0.86415 0.30678 0.17184 0.0
O30 O 0.8436 0.2115 0.17381 0.0
O31 O 0.82311 0.24775 0.18656 0.0
O32 O 0.86963 0.22692 0.10877 0.0
O33 O 0.87466 0.2664 0.10877 0.0
O34 O 0.85176 0.2859 0.18822 0.0
O35 O 0.88811 0.30277 0.15038 0.0
C36 C 0.95446 0.27476 0.1027 0.0
O37 O 0.94782 0.28841 0.13497 0.0
O38 O 0.93737 0.25474 0.09978 0.0
C39 C 0.92026 0.26956 0.23302 0.0
Tb40 Tb 0.26923 0.26869 0.27508 0.0
C41 C 0.26809 0.20909 0.25515 0.0
Tb42 Tb 0.31597 0.24876 0.25753 0.0
O43 O 0.24202 0.25543 0.22482 0.0
O44 O 0.28582 0.2663 0.21162 0.0
O45 O 0.25719 0.22621 0.28205 0.0
C46 C 0.36621 0.22558 0.23898 0.0
O47 O 0.29115 0.21619 0.23439 0.0
C48 C 0.30911 0.2441 0.3408 0.0
C49 C 0.31877 0.309 0.25335 0.0
O50 O 0.34118 0.22014 0.22281 0.0
O51 O 0.36355 0.24567 0.26302 0.0
O52 O 0.3139 0.22517 0.31531 0.0
O53 O 0.30495 0.26438 0.31855 0.0
O54 O 0.3341 0.28769 0.24529 0.0
O55 O 0.29157 0.30645 0.26618 0.0
C56 C 0.22779 0.29662 0.31123 0.0
O57 O 0.23526 0.29885 0.2728 0.0
O58 O 0.24225 0.27768 0.3287 0.0
C59 C 0.26142 0.25819 0.19586 0.0
Tb60 Tb 0.9184 0.99891 0.27771 0.0
C61 C 0.91812 0.05936 0.26117 0.0
Tb62 Tb 0.87054 0.01957 0.25964 0.0
O63 O 0.94544 0.0134 0.22801 0.0
O64 O 0.90166 1.0025 0.21468 0.0
O65 O 0.92888 0.04155 0.28746 0.0
C66 C 0.81942 0.04162 0.24222 0.0
O67 O 0.89562 0.05267 0.23897 0.0
C68 C 0.87705 0.02081 0.34321 0.0
C69 C 0.8683 0.95942 0.25269 0.0
O70 O 0.84418 0.04833 0.22616 0.0
O71 O 0.82305 0.02108 0.26532 0.0
O72 O 0.87092 0.0407 0.31989 0.0
O73 O 0.88185 1.00185 0.31888 0.0
O74 O 0.85334 0.98093 0.24419 0.0
O75 O 0.89521 0.96157 0.26714 0.0
C76 C 0.95851 0.96967 0.31458 0.0
O77 O 0.95203 0.96846 0.27567 0.0
O78 O 0.94411 0.98851 0.33212 0.0
C79 C 0.92603 0.01087 0.19902 0.0
Tb80 Tb 0.62293 1.0003 0.99509 0.0
C81 C 0.62867 0.05899 1.00071 0.0
Tb82 Tb 0.67031 0.01125 1.02803 0.0
O83 O 0.59843 0.01804 1.04696 0.0
O84 O 0.63402 0.99456 1.06076 0.0
O85 O 0.61333 0.04117 0.98109 0.0
C86 C 0.70599 0.03412 1.08115 0.0
O87 O 0.65096 0.0512 1.02388 0.0
C88 C 0.68537 1.0038 0.95031 0.0
C89 C 0.66609 0.95338 1.00064 0.0
O90 O 0.70674 0.03741 1.04142 0.0
O91 O 0.68691 0.01645 0.09069 0.0
O92 O 0.70088 0.99729 0.98257 0.0
O93 O 0.66145 0.01523 0.9619 0.0
O94 O 0.67915 0.96833 1.02865 0.0
O95 O 0.64441 0.9635 0.97935 0.0
C96 C 0.57928 0.97571 0.95831 0.0
O97 O 0.58752 0.9716 0.99605 0.0
O98 O 0.59444 0.99448 0.94186 0.0
C99 C 0.61348 1.00797 1.07712 0.0
Tb100 Tb 0.05976 0.76264 1.00726 0.0
C101 C 0.05257 0.70268 1.00353 0.0
Tb102 Tb 0.01069 0.74905 1.02915 0.0
O103 O 0.06534 0.78424 1.067 0.0
O104 O 0.04859 0.7473 1.06802 0.0
O105 O 0.07062 0.72176 0.99317 0.0
C106 C -0.02915 0.72806 1.07754 0.0
O107 O 0.02674 0.70883 1.01907 0.0
C108 C 0.00138 0.75923 0.95024 0.0
C109 C 0.0182 0.80802 1.00592 0.0
O110 O -0.02483 0.72128 1.0394 0.0
O111 O -0.013 0.74796 0.08707 0.0
O112 O -0.01703 0.76357 0.98008 0.0
O113 O 0.0252 0.74894 0.96481 0.0
O114 O 0.00596 0.79273 1.0345 0.0
O115 O 0.03924 0.79788 0.98404 0.0
C116 C 0.11246 0.77727 0.98292 0.0
O117 O 0.08836 0.78884 0.97295 0.0
O118 O 0.10691 0.75646 1.00452 0.0
C119 C 0.0572 0.76551 0.09147 0.0
Tb120 Tb 0.62119 0.77045 0.911 0.0
C121 C 0.61938 0.71011 0.91457 0.0
Tb122 Tb 0.66957 0.7498 0.88853 0.0
O123 O 0.61896 0.79216 0.85075 0.0
O124 O 0.63129 0.75369 0.85104 0.0
O125 O 0.60421 0.73134 0.92392 0.0
C126 C 0.70694 0.7225 0.84369 0.0
O127 O 0.64633 0.7125 0.90003 0.0
C128 C 0.67854 0.76019 0.96727 0.0
C129 C 0.66969 0.80984 0.90884 0.0
O130 O 0.70254 0.71882 0.88294 0.0
O131 O 0.69221 0.74264 0.83065 0.0
O132 O 0.69784 0.76245 0.93796 0.0
O133 O 0.65401 0.75203 0.95204 0.0
O134 O 0.68008 0.79276 0.88133 0.0
O135 O 0.6474 0.80273 0.93111 0.0
C136 C 0.57371 0.79457 0.93813 0.0
O137 O 0.59992 0.79853 0.9513 0.0
O138 O 0.57366 0.77545 0.91181 0.0
C139 C 0.62548 0.77268 0.82699 0.0
Tb140 Tb 0.06104 0.99795 0.90736 0.0
C141 C 0.05775 0.0575 0.91447 0.0
Tb142 Tb 0.01269 0.01272 0.89352 0.0
O143 O 0.06287 0.97704 0.84671 0.0
O144 O 0.04672 0.01428 0.84809 0.0
O145 O 0.07563 0.03772 0.92163 0.0
C146 C -0.03059 0.03664 0.85522 0.0
O147 O 0.03085 0.0523 0.90228 0.0
C148 C 0.00642 1.00302 0.97273 0.0
C149 C 0.01911 0.95376 0.91529 0.0
O150 O -0.02185 0.04228 0.89217 0.0
O151 O -0.01653 0.01648 0.84114 0.0
O152 O -0.01306 0.99869 0.94441 0.0
O153 O 0.03041 0.01192 0.95627 0.0
O154 O 0.00612 0.96929 0.88773 0.0
O155 O 0.04131 0.96363 0.9349 0.0
C156 C 0.11467 0.97979 0.91956 0.0
O157 O 0.09094 0.968 0.9304 0.0
O158 O 0.10838 1.00289 0.90537 0.0
C159 C 0.05385 0.99608 0.82359 0.0
Tb160 Tb 0.2673 0.50371 0.6416 0.0
C161 C 0.26588 0.56304 0.66408 0.0
Tb162 Tb 0.31303 0.52315 0.66376 0.0
O163 O 0.23764 0.51478 0.69073 0.0
O164 O 0.28144 0.5047 0.70617 0.0
O165 O 0.25657 0.54657 0.63513 0.0
C166 C 0.36336 0.54432 0.68651 0.0
O167 O 0.2873 0.55504 0.68745 0.0
C168 C 0.3095 0.52808 0.58005 0.0
C169 C 0.31541 0.4628 0.66765 0.0
O170 O 0.3379 0.5524 0.69798 0.0
O171 O 0.36051 0.52326 0.66473 0.0
O172 O 0.31354 0.54694 0.60588 0.0
O173 O 0.30478 0.50782 0.60186 0.0
O174 O 0.33011 0.484 0.67803 0.0
O175 O 0.28914 0.46563 0.65141 0.0
C176 C 0.23046 0.47764 0.59473 0.0
O177 O 0.23558 0.47221 0.63326 0.0
O178 O 0.24396 0.49885 0.5838 0.0
C179 C 0.25635 0.51189 0.72069 0.0
Tb180 Tb 0.91013 0.769 0.64466 0.0
C181 C 0.90969 0.71054 0.66763 0.0
Tb182 Tb 0.86381 0.75367 0.66622 0.0
O183 O 0.93892 0.75899 0.69484 0.0
O184 O 0.89548 0.77146 0.70917 0.0
O185 O 0.92176 0.72675 0.64038 0.0
C186 C 0.81767 0.72413 0.68499 0.0
O187 O 0.8868 0.71895 0.68784 0.0
C188 C 0.86293 0.75732 0.58223 0.0
C189 C 0.86397 0.81217 0.67282 0.0
O190 O 0.84452 0.71726 0.68981 0.0
O191 O 0.81666 0.74835 0.67311 0.0
O192 O 0.84477 0.7683 0.60718 0.0
O193 O 0.88237 0.74655 0.60476 0.0
O194 O 0.85056 0.79184 0.68907 0.0
O195 O 0.88778 0.80767 0.65079 0.0
C196 C 0.94559 0.79586 0.5951 0.0
O197 O 0.91876 0.79018 0.58719 0.0
O198 O 0.95311 0.78523 0.63013 0.0
C199 C 0.92017 0.76326 0.72428 0.0
Tb200 Tb 0.2732 0.76937 0.76479 0.0
C201 C 0.2733 0.70984 0.74045 0.0
Tb202 Tb 0.3187 0.75163 0.74892 0.0
O203 O 0.25805 0.78919 0.70996 0.0
O204 O 0.2829 0.75438 0.70252 0.0
O205 O 0.26029 0.72686 0.76528 0.0
C206 C 0.37096 0.73069 0.73703 0.0
O207 O 0.29724 0.71778 0.72242 0.0
C208 C 0.31559 0.75469 0.8331 0.0
C209 C 0.32004 0.81113 0.74399 0.0
O210 O 0.34769 0.71771 0.74564 0.0
O211 O 0.36463 0.75527 0.73167 0.0
O212 O 0.32107 0.73378 0.81224 0.0
O213 O 0.30923 0.7722 0.80663 0.0
O214 O 0.33292 0.79043 0.7279 0.0
O215 O 0.29619 0.8072 0.76603 0.0
C216 C 0.22866 0.78011 0.81353 0.0
O217 O 0.23381 0.79197 0.77875 0.0
O218 O 0.24735 0.76147 0.81946 0.0
C219 C 0.26841 0.77256 0.68351 0.0
Tb220 Tb 0.92055 0.50612 0.77868 0.0
C221 C 0.91483 0.56441 0.75345 0.0
Tb222 Tb 0.87455 0.52038 0.76445 0.0
O223 O 0.94901 0.51722 0.7288 0.0
O224 O 0.90469 0.50705 0.71461 0.0
O225 O 0.9269 0.54962 0.78267 0.0
C226 C 0.81996 0.53711 0.75562 0.0
O227 O 0.89333 0.55383 0.73334 0.0
C228 C 0.87997 0.52188 0.84835 0.0
C229 C 0.87765 0.46095 0.75549 0.0
O230 O 0.84294 0.55124 0.74982 0.0
O231 O 0.82786 0.51311 0.76244 0.0
O232 O 0.87429 0.54175 0.82486 0.0
O233 O 0.8863 0.50339 0.82398 0.0
O234 O 0.85977 0.48079 0.74899 0.0
O235 O 0.90431 0.46617 0.7684 0.0
C236 C 0.96222 0.48563 0.82457 0.0
O237 O 0.95478 0.47687 0.78852 0.0
O238 O 0.948 0.5069 0.83306 0.0
C239 C 0.92989 0.51394 0.69958 0.0
Tb240 Tb 0.62801 0.511 0.51062 0.0
C241 C 0.63797 0.56925 0.51217 0.0
Tb242 Tb 0.67233 0.51877 0.53168 0.0
O243 O 0.62056 0.48892 0.56996 0.0
O244 O 0.63655 0.52609 0.57259 0.0
O245 O 0.62322 0.55182 0.49116 0.0
C246 C 0.71285 0.51403 0.58906 0.0
O247 O 0.6585 0.56013 0.53699 0.0
C248 C 0.6847 0.5263 0.45314 0.0
C249 C 0.66167 0.46209 0.49775 0.0
O250 O 0.71228 0.53223 0.56081 0.0
O251 O 0.69185 0.49768 0.58315 0.0
O252 O 0.69724 0.53794 0.48404 0.0
O253 O 0.66472 0.51042 0.46586 0.0
O254 O 0.67691 0.47527 0.5254 0.0
O255 O 0.64015 0.47474 0.48025 0.0
C256 C 0.57198 0.50657 0.49221 0.0
O257 O 0.58979 0.48721 0.49725 0.0
O258 O 0.58599 0.52843 0.49465 0.0
C259 C 0.6265 0.50785 0.59495 0.0
Tb260 Tb 0.06323 0.26234 0.50073 0.0
C261 C 0.05422 0.20394 0.51031 0.0
Tb262 Tb 0.01478 0.25129 0.53626 0.0
O263 O 0.08899 0.24339 0.55089 0.0
O264 O 0.05325 0.26586 0.56644 0.0
O265 O 0.06527 0.22099 0.48384 0.0
C266 C -0.02067 0.2451 0.60035 0.0
O267 O 0.03706 0.21286 0.54014 0.0
C268 C 0.00423 0.24393 0.45566 0.0
C269 C 0.01857 0.30932 0.50617 0.0
O270 O -0.02044 0.23026 0.56789 0.0
O271 O -0.00286 0.26436 0.59516 0.0
O272 O -0.00634 0.23006 0.48599 0.0
O273 O 0.02021 0.262 0.4712 0.0
O274 O 0.00071 0.29212 0.52386 0.0
O275 O 0.04493 0.30188 0.4947 0.0
C276 C 0.10711 0.28557 0.46256 0.0
O277 O 0.09069 0.2677 0.44611 0.0
O278 O 0.0999 0.28938 0.50073 0.0
C279 C 0.07396 0.25225 0.58185 0.0
Tb280 Tb 0.61722 0.27121 0.41503 0.0
C281 C 0.62476 0.21095 0.41026 0.0
Tb282 Tb 0.66618 0.25766 0.38434 0.0
O283 O 0.60888 0.29533 0.35844 0.0
O284 O 0.62544 0.25843 0.35209 0.0
O285 O 0.60713 0.22958 0.42406 0.0
C286 C 0.69873 0.24287 0.32185 0.0
O287 O 0.65006 0.21739 0.39303 0.0
C288 C 0.67829 0.26455 0.46402 0.0
C289 C 0.65993 0.31598 0.41087 0.0
O290 O 0.69946 0.23182 0.35832 0.0
O291 O 0.68225 0.26345 0.32218 0.0
O292 O 0.69619 0.26913 0.43344 0.0
O293 O 0.65429 0.2549 0.44962 0.0
O294 O 0.67069 0.30117 0.38089 0.0
O295 O 0.64018 0.30578 0.43506 0.0
C296 C 0.5684 0.28795 0.44927 0.0
O297 O 0.59434 0.29346 0.46212 0.0
O298 O 0.56966 0.27117 0.41935 0.0
C299 C 0.6161 0.27785 0.33141 0.0
Tb300 Tb 0.06636 0.49554 0.41532 0.0
C301 C 0.06544 0.55598 0.41682 0.0
Tb302 Tb 0.01929 0.51324 0.39304 0.0
O303 O 0.06678 0.47079 0.35886 0.0
O304 O 0.05675 0.50966 0.35294 0.0
O305 O 0.08208 0.53563 0.42636 0.0
C306 C -0.01859 0.53855 0.34618 0.0
O307 O 0.0389 0.55187 0.4025 0.0
C308 C 0.00959 0.50538 0.47269 0.0
C309 C 0.0199 0.4543 0.41729 0.0
O310 O -0.01373 0.54382 0.38472 0.0
O311 O -0.00423 0.51782 0.33519 0.0
O312 O -0.00922 0.50148 0.44319 0.0
O313 O 0.03412 0.51342 0.45728 0.0
O314 O 0.00919 0.4704 0.38858 0.0
O315 O 0.04182 0.46273 0.43922 0.0
C316 C 0.11673 0.47419 0.43765 0.0
O317 O 0.09164 0.46859 0.4536 0.0
O318 O 0.11397 0.4936 0.41197 0.0
C319 C 0.06211 0.48921 0.33212 0.0
Tb320 Tb 0.77152 1.00707 0.63993 0.0
C321 C 0.76953 0.06628 0.66447 0.0
Tb322 Tb 0.81563 0.0257 0.66654 0.0
O323 O 0.73886 0.01836 0.68429 0.0
O324 O 0.78138 1.00813 0.70637 0.0
O325 O 0.76129 0.05026 0.63426 0.0
C326 C 0.86322 0.05004 0.6923 0.0
O327 O 0.78984 0.05774 0.68912 0.0
C328 C 0.81581 0.03072 0.58259 0.0
C329 C 0.81783 0.96556 0.67005 0.0
O330 O 0.83701 0.05513 0.7044 0.0
O331 O 0.86312 0.02939 0.66913 0.0
O332 O 0.81786 0.04972 0.60863 0.0
O333 O 0.81061 0.01049 0.60401 0.0
O334 O 0.83253 0.9866 0.68132 0.0
O335 O 0.79195 0.96865 0.65257 0.0
C336 C 0.73747 0.9842 0.58523 0.0
O337 O 0.74013 0.97655 0.62344 0.0
O338 O 0.75187 1.00566 0.5791 0.0
C339 C 0.75539 0.0158 0.7168 0.0
Tb340 Tb 0.413 0.26979 0.64882 0.0
C341 C 0.41409 0.21048 0.67057 0.0
Tb342 Tb 0.36768 0.25044 0.66394 0.0
O343 O 0.44213 0.25851 0.69795 0.0
O344 O 0.39729 0.26604 0.71272 0.0
O345 O 0.42435 0.22704 0.64225 0.0
C346 C 0.31747 0.22562 0.67565 0.0
O347 O 0.39156 0.21845 0.69148 0.0
C348 C 0.3733 0.25064 0.57986 0.0
C349 C 0.3641 0.3101 0.67289 0.0
O350 O 0.34295 0.21626 0.68407 0.0
O351 O 0.31994 0.24997 0.66463 0.0
O352 O 0.36909 0.23016 0.6026 0.0
O353 O 0.37773 0.26914 0.60501 0.0
O354 O 0.34885 0.28859 0.67982 0.0
O355 O 0.39131 0.30767 0.65999 0.0
C356 C 0.45181 0.2958 0.60503 0.0
O357 O 0.44528 0.30119 0.64309 0.0
O358 O 0.43854 0.27474 0.59313 0.0
C359 C 0.42283 0.25962 0.72737 0.0
Tb360 Tb 0.76494 0.26868 0.77429 0.0
C361 C 0.77071 0.21165 0.75124 0.0
Tb362 Tb 0.80989 0.25855 0.75983 0.0
O363 O 0.73835 0.25741 0.72211 0.0
O364 O 0.78064 0.27286 0.71002 0.0
O365 O 0.75756 0.22586 0.77982 0.0
C366 C 0.85994 0.2327 0.75018 0.0
O367 O 0.79219 0.22314 0.73175 0.0
C368 C 0.81011 0.26622 0.84334 0.0
C369 C 0.80612 0.31627 0.75064 0.0
O370 O 0.83536 0.22195 0.75935 0.0
O371 O 0.856 0.25752 0.74382 0.0
O372 O 0.82539 0.27865 0.81621 0.0
O373 O 0.79226 0.25199 0.82291 0.0
O374 O 0.82304 0.29718 0.73806 0.0
O375 O 0.78152 0.30946 0.76889 0.0
C376 C 0.72162 0.2944 0.81088 0.0
O377 O 0.71852 0.27725 0.78186 0.0
O378 O 0.7487 0.29558 0.82168 0.0
C379 C 0.75681 0.26398 0.69351 0.0
Tb380 Tb 0.41613 1.00459 0.76928 0.0
C381 C 0.41501 0.06467 0.75277 0.0
Tb382 Tb 0.36804 0.02398 0.75215 0.0
O383 O 0.4425 0.01929 0.71874 0.0
O384 O 0.39898 1.00767 0.7061 0.0
O385 O 0.42617 0.04718 0.77907 0.0
C386 C 0.31738 0.04637 0.73296 0.0
O387 O 0.3924 0.05753 0.73121 0.0
C388 C 0.37359 0.02444 0.83619 0.0
C389 C 0.3673 0.96383 0.74558 0.0
O390 O 0.34254 0.05324 0.71857 0.0
O391 O 0.32033 0.02548 0.75549 0.0
O392 O 0.36714 0.04441 0.81315 0.0
O393 O 0.37958 1.00599 0.81127 0.0
O394 O 0.35157 0.98496 0.73746 0.0
O395 O 0.39434 0.96662 0.7592 0.0
C396 C 0.45808 0.97733 0.80595 0.0
O397 O 0.45116 0.97542 0.76726 0.0
O398 O 0.44274 0.99557 0.82345 0.0
C399 C 0.42304 0.01644 0.68992 0.0
Tb400 Tb 0.11774 0.99785 0.4991 0.0
C401 C 0.12073 0.05705 0.50031 0.0
Tb402 Tb 0.16638 0.01204 0.5269 0.0
O403 O 0.09535 0.01318 0.55507 0.0
O404 O 0.13365 0.992 0.56208 0.0
O405 O 0.10381 0.03799 0.48739 0.0
C406 C 0.2011 0.03913 0.57614 0.0
O407 O 0.14625 0.05121 0.51723 0.0
C408 C 0.17776 1.00328 0.44842 0.0
C409 C 0.16312 0.95327 0.5081 0.0
O410 O 0.20815 0.03099 0.53949 0.0
O411 O 0.17566 0.03033 0.58628 0.0
O412 O 0.19512 0.99808 0.47931 0.0
O413 O 0.15389 0.01414 0.46184 0.0
O414 O 0.17568 0.96961 0.53451 0.0
O415 O 0.14144 0.96196 0.48534 0.0
C416 C 0.07525 0.96955 0.46634 0.0
O417 O 0.08973 0.98766 0.44703 0.0
O418 O 0.0832 0.96844 0.50464 0.0
C419 C 0.11326 1.00334 0.58217 0.0
Tb420 Tb 0.56736 0.7749 0.50309 0.0
C421 C 0.56726 0.71439 0.50393 0.0
Tb422 Tb 0.51973 0.75628 0.52924 0.0
O423 O 0.56991 0.79921 0.55987 0.0
O424 O 0.55882 0.76052 0.5656 0.0
O425 O 0.58344 0.7348 0.49345 0.0
C426 C 0.48371 0.73121 0.57928 0.0
O427 O 0.54068 0.71816 0.51873 0.0
C428 C 0.50891 0.76556 0.44995 0.0
C429 C 0.51993 0.81564 0.5072 0.0
O430 O 0.487 0.72582 0.54036 0.0
O431 O 0.49859 0.75186 0.58885 0.0
O432 O 0.49039 0.76875 0.48008 0.0
O433 O 0.53341 0.75684 0.46459 0.0
O434 O 0.51001 0.79909 0.53579 0.0
O435 O 0.5412 0.80776 0.4835 0.0
C436 C 0.61468 0.79758 0.47283 0.0
O437 O 0.58865 0.80021 0.45804 0.0
O438 O 0.6147 0.78027 0.50235 0.0
C439 C 0.56477 0.78081 0.58649 0.0
Tb440 Tb 0.1239 0.76139 0.41521 0.0
C441 C 0.13207 0.7024 0.40871 0.0
Tb442 Tb 0.16916 0.75072 0.38628 0.0
O443 O 0.11522 0.78594 0.35929 0.0
O444 O 0.12936 0.74839 0.35107 0.0
O445 O 0.11934 0.71993 0.43246 0.0
C446 C 0.20747 0.74938 0.32527 0.0
O447 O 0.15129 0.71098 0.38152 0.0
C448 C 0.18194 0.74269 0.46574 0.0
C449 C 0.16381 0.80787 0.42165 0.0
O450 O 0.2071 0.73318 0.35636 0.0
O451 O 0.18789 0.76732 0.33025 0.0
O452 O 0.19264 0.72969 0.43473 0.0
O453 O 0.16413 0.76018 0.4522 0.0
O454 O 0.17683 0.79394 0.39239 0.0
O455 O 0.14268 0.79642 0.44207 0.0
C456 C 0.07113 0.77225 0.44442 0.0
O457 O 0.09256 0.78841 0.44212 0.0
O458 O 0.07946 0.74933 0.43217 0.0
C459 C 0.11967 0.76822 0.33167 0.0
Tb460 Tb 0.56396 1.00485 0.40763 0.0
C461 C 0.5567 0.06475 0.40529 0.0
Tb462 Tb 0.51806 0.01661 0.38306 0.0
O463 O 0.56945 0.97934 0.35208 0.0
O464 O 0.55596 0.01695 0.34369 0.0
O465 O 0.57453 0.04613 0.41846 0.0
C466 C 0.48241 0.02598 0.32134 0.0
O467 O 0.53156 0.0578 0.38851 0.0
C468 C 0.50421 0.01303 0.46239 0.0
C469 C 0.52336 0.9602 0.41817 0.0
O470 O 0.48393 0.04041 0.35443 0.0
O471 O 0.4988 1.00547 0.32486 0.0
O472 O 0.48662 1.00844 0.43161 0.0
O473 O 0.52955 0.02044 0.44882 0.0
O474 O 0.51257 0.97321 0.38613 0.0
O475 O 0.54377 0.97197 0.43895 0.0
C476 C 0.61714 0.99076 0.43092 0.0
O477 O 0.59351 0.97832 0.43999 0.0
O478 O 0.61084 0.01231 0.41164 0.0
C479 C 0.56439 0.9969 0.32403 0.0
Tb480 Tb 0.7712 0.50291 0.14663 0.0
C481 C 0.7704 0.56198 0.17263 0.0
Tb482 Tb 0.81747 0.52139 0.16908 0.0
O483 O 0.74179 0.51319 0.19631 0.0
O484 O 0.78558 0.50307 0.21124 0.0
O485 O 0.76015 0.54595 0.14368 0.0
C486 C 0.86769 0.54332 0.18984 0.0
O487 O 0.79271 0.5537 0.19406 0.0
C488 C 0.81336 0.52754 0.08571 0.0
C489 C 0.81837 0.46068 0.17055 0.0
O490 O 0.84259 0.54909 0.20559 0.0
O491 O 0.86506 0.52339 0.16551 0.0
O492 O 0.81684 0.54616 0.11215 0.0
O493 O 0.80877 0.50703 0.10697 0.0
O494 O 0.83383 0.48152 0.18091 0.0
O495 O 0.79179 0.46417 0.15554 0.0
C496 C 0.73381 0.48024 0.09622 0.0
O497 O 0.73874 0.47252 0.13391 0.0
O498 O 0.74801 0.5016 0.08833 0.0
C499 C 0.76076 0.51078 0.22602 0.0
Tb500 Tb 0.41968 0.77038 0.14242 0.0
C501 C 0.4139 0.71272 0.16519 0.0
Tb502 Tb 0.37443 0.75959 0.15799 0.0
O503 O 0.44737 0.75961 0.19347 0.0
O504 O 0.40444 0.77411 0.20661 0.0
O505 O 0.42722 0.72748 0.1372 0.0
C506 C 0.324 0.73476 0.1695 0.0
O507 O 0.39236 0.7238 0.18516 0.0
C508 C 0.37554 0.76371 1.07376 0.0
C509 C 0.37732 0.81754 0.16568 0.0
O510 O 0.34894 0.7234 0.16526 0.0
O511 O 0.32781 0.75985 0.17047 0.0
O512 O 0.35914 0.77696 0.0984 0.0
O513 O 0.39315 0.75098 0.09682 0.0
O514 O 0.36087 0.7983 0.17883 0.0
O515 O 0.402 0.81094 0.14745 0.0
C516 C 0.45855 0.79733 0.09921 0.0
O517 O 0.43105 0.79606 0.09095 0.0
O518 O 0.46483 0.78193 0.13006 0.0
C519 C 0.42881 0.76554 0.22238 0.0
Tb520 Tb 0.76571 0.76801 0.27264 0.0
C521 C 0.76629 0.7081 0.25388 0.0
Tb522 Tb 0.81339 0.74795 0.25693 0.0
O523 O 0.73817 0.75531 0.22298 0.0
O524 O 0.78281 0.76433 0.20978 0.0
O525 O 0.75546 0.72511 0.28104 0.0
C526 C 0.86336 0.7234 0.24213 0.0
O527 O 0.78887 0.71564 0.2326 0.0
C528 C 0.80639 0.7481 0.34064 0.0
C529 C 0.81606 0.80774 0.24847 0.0
O530 O 0.83785 0.71518 0.23141 0.0
O531 O 0.86109 0.74669 0.25767 0.0
O532 O 0.81376 0.72805 0.31882 0.0
O533 O 0.80133 0.76637 0.31504 0.0
O534 O 0.83125 0.78627 0.24079 0.0
O535 O 0.78886 0.80545 0.26187 0.0
C536 C 0.72636 0.79544 0.31317 0.0
O537 O 0.73332 0.79961 0.27484 0.0
O538 O 0.73962 0.77481 0.32741 0.0
C539 C 0.75796 0.75693 0.19428 0.0
Tb540 Tb 0.41029 0.50497 0.27253 0.0
C541 C 0.40954 0.56385 0.24368 0.0
Tb542 Tb 0.36801 0.52071 0.25449 0.0
O543 O 0.4317 0.48505 0.22282 0.0
O544 O 0.40358 0.51713 0.20763 0.0
O545 O 0.42139 0.54806 0.27172 0.0
C546 C 0.31527 0.54091 0.24227 0.0
O547 O 0.38726 0.5543 0.22398 0.0
C548 C 0.36873 0.51947 0.33912 0.0
C549 C 0.36587 0.46176 0.2508 0.0
O550 O 0.33855 0.55427 0.24901 0.0
O551 O 0.32192 0.51631 0.23881 0.0
O552 O 0.36696 0.54037 0.31658 0.0
O553 O 0.37432 0.50113 0.31422 0.0
O554 O 0.35344 0.48225 0.23334 0.0
O555 O 0.38887 0.46631 0.27411 0.0
C556 C 0.45344 0.49822 0.32547 0.0
O557 O 0.44778 0.48259 0.2951 0.0
O558 O 0.43596 0.51811 0.32468 0.0
C559 C 0.42143 0.4997 0.19334 0.0
Tb560 Tb 0.12074 0.49723 1.00886 0.0
C561 C 0.1242 0.55723 1.00354 0.0
Tb562 Tb 0.1688 0.51242 1.02728 0.0
O563 O 0.1187 0.47536 1.06912 0.0
O564 O 0.13235 0.51322 1.06886 0.0
O565 O 0.10669 0.53748 0.99468 0.0
C566 C 0.20933 0.53351 1.07431 0.0
O567 O 0.15068 0.55199 1.01776 0.0
C568 C 0.17709 0.50439 0.94778 0.0
C569 C 0.16389 0.45376 1.00301 0.0
O570 O 0.20333 0.54132 1.03701 0.0
O571 O 0.19431 0.51283 1.08362 0.0
O572 O 0.19631 0.50032 0.97674 0.0
O573 O 0.15276 0.51276 0.96352 0.0
O574 O 0.17548 0.46886 1.03205 0.0
O575 O 0.1425 0.46388 0.98174 0.0
C576 C 0.06896 0.47699 0.99179 0.0
O577 O 0.09375 0.46682 0.98178 0.0
O578 O 0.0731 0.49988 1.00793 0.0
C579 C 0.12549 0.49463 0.09294 0.0
Tb580 Tb 0.56456 0.26517 1.00317 0.0
C581 C 0.56087 0.20581 1.00431 0.0
Tb582 Tb 0.51617 0.25105 1.03293 0.0
O583 O 0.5881 0.24866 1.05677 0.0
O584 O 0.55024 0.27009 1.06741 0.0
O585 O 0.57761 0.2249 0.99052 0.0
C586 C 0.48252 0.22359 1.08357 0.0
O587 O 0.53586 0.21177 1.02266 0.0
C588 C 0.5047 0.25827 0.95351 0.0
C589 C 0.51938 0.30972 1.01318 0.0
O590 O 0.47405 0.23358 1.04853 0.0
O591 O 0.5089 0.23079 0.09159 0.0
O592 O 0.487 0.2638 0.9838 0.0
O593 O 0.52848 0.2481 0.96819 0.0
O594 O 0.50762 0.29352 1.04076 0.0
O595 O 0.54022 0.30081 0.98925 0.0
C596 C 0.60641 0.29294 0.96749 0.0
O597 O 0.59869 0.29521 1.00578 0.0
O598 O 0.592 0.27416 0.95008 0.0
C599 C 0.57122 0.25799 0.08542 0.0
Tb600 Tb 0.12418 0.262 0.91004 0.0
C601 C 0.1303 0.20224 0.91159 0.0
Tb602 Tb 0.17159 0.24934 0.88883 0.0
O603 O 0.11885 0.28628 0.85317 0.0
O604 O 0.1348 0.24918 0.84716 0.0
O605 O 0.1125 0.2212 0.92283 0.0
C606 C 0.21222 0.22929 0.8408 0.0
O607 O 0.15598 0.2087 0.89607 0.0
C608 C 0.18182 0.25691 0.96825 0.0
C609 C 0.16444 0.30757 0.91529 0.0
O610 O 0.20663 0.22109 0.87795 0.0
O611 O 0.19687 0.24997 0.83221 0.0
O612 O 0.19988 0.2622 0.93832 0.0
O613 O 0.15778 0.24736 0.95355 0.0
O614 O 0.17654 0.29309 0.88576 0.0
O615 O 0.14362 0.29661 0.93667 0.0
C616 C 0.07032 0.27459 0.93233 0.0
O617 O 0.0936 0.28713 0.94285 0.0
O618 O 0.07742 0.25401 0.91143 0.0
C619 C 0.12603 0.26878 0.82623 0.0
Tb620 Tb 0.56645 0.49922 0.9198 0.0
C621 C 0.56881 0.55818 0.9204 0.0
Tb622 Tb 0.52489 0.51471 0.89812 0.0
O623 O 0.56687 0.47687 0.86036 0.0
O624 O 0.56215 0.51644 0.85789 0.0
O625 O 0.5802 0.53805 0.9401 0.0
C626 C 0.48478 0.5196 0.84002 0.0
O627 O 0.54659 0.55328 0.89575 0.0
C628 C 0.51185 0.52216 0.97646 0.0
C629 C 0.524 0.45676 0.93218 0.0
O630 O 0.48832 0.53578 0.87043 0.0
O631 O 0.50234 0.49992 0.8439 0.0
O632 O 0.50222 0.53607 0.94557 0.0
O633 O 0.52979 0.50432 0.96401 0.0
O634 O 0.51235 0.47208 0.90329 0.0
O635 O 0.54667 0.46624 0.95119 0.0
C636 C 0.61937 0.48052 0.93584 0.0
O637 O 0.59608 0.4666 0.93291 0.0
O638 O 0.61272 0.50512 0.93319 0.0
C639 C 0.5671 0.49674 0.83546 0.0
H640 H 0.32198 0.83845 0.17484 0.0
H641 H 0.41249 0.8608 0.16277 0.0
H642 H 0.39863 0.90722 0.16374 0.0
H643 H 0.36042 0.94209 0.16489 0.0
H644 H 0.26972 0.91939 0.17163 0.0
H645 H 0.28389 0.87318 0.176 0.0
C646 C 0.33871 0.85347 0.17287 0.0
C647 C 0.36835 0.84589 0.16902 0.0
C648 C 0.33047 0.88038 0.17229 0.0
C649 C 0.38955 0.86584 0.16583 0.0
C650 C 0.38161 0.89252 0.16635 0.0
C651 C 0.34377 0.92705 0.16778 0.0
C652 C 0.31395 0.93449 0.16816 0.0
C653 C 0.35209 0.90014 0.16915 0.0
C654 C 0.2928 0.91449 0.17125 0.0
C655 C 0.3009 0.88791 0.17374 0.0
H656 H 0.78985 0.41313 0.17816 0.0
H657 H 0.87615 0.4467 0.16916 0.0
H658 H 0.89773 0.4027 0.16846 0.0
H659 H 0.8923 0.35425 0.16818 0.0
H660 H 0.80656 0.32046 0.18305 0.0
H661 H 0.78477 0.36453 0.18385 0.0
C662 C 0.8134 0.41084 0.17629 0.0
C663 C 0.83126 0.43348 0.17349 0.0
C664 C 0.82585 0.38523 0.17685 0.0
C665 C 0.86177 0.42988 0.1715 0.0
C666 C 0.87418 0.4046 0.17093 0.0
C667 C 0.86884 0.35651 0.17178 0.0
C668 C 0.85113 0.33385 0.17522 0.0
C669 C 0.85648 0.38208 0.17324 0.0
C670 C 0.8208 0.33736 0.18039 0.0
C671 C 0.80829 0.36266 0.18071 0.0
H672 H 0.3938 0.41418 0.2586 0.0
H673 H 0.30906 0.44855 0.23517 0.0
H674 H 0.28704 0.4048 0.2337 0.0
H675 H 0.29142 0.35649 0.2413 0.0
H676 H 0.37671 0.32187 0.25917 0.0
H677 H 0.3988 0.36561 0.26029 0.0
C678 C 0.37053 0.41208 0.25299 0.0
C679 C 0.35312 0.43478 0.24731 0.0
C680 C 0.35804 0.38666 0.25119 0.0
C681 C 0.32305 0.43155 0.23958 0.0
C682 C 0.31039 0.40646 0.23886 0.0
C683 C 0.31488 0.35849 0.24518 0.0
C684 C 0.3323 0.33574 0.25037 0.0
C685 C 0.3276 0.38384 0.24494 0.0
C686 C 0.36271 0.33887 0.25494 0.0
C687 C 0.37538 0.36397 0.25578 0.0
H688 H 0.78957 0.85638 0.24601 0.0
H689 H 0.87448 0.81925 0.24407 0.0
H690 H 0.89806 0.86228 0.24481 0.0
H691 H 0.89489 0.91084 0.24881 0.0
H692 H 0.80998 0.94799 0.24691 0.0
H693 H 0.78642 0.90498 0.24472 0.0
C694 C 0.81324 0.85766 0.24542 0.0
C695 C 0.83009 0.83434 0.24513 0.0
C696 C 0.82681 0.88268 0.24532 0.0
C697 C 0.86079 0.83665 0.24414 0.0
C698 C 0.87438 0.86136 0.24474 0.0
C699 C 0.87123 0.90956 0.24766 0.0
C700 C 0.85435 0.93288 0.24824 0.0
C701 C 0.85767 0.88457 0.24576 0.0
C702 C 0.82367 0.9306 0.2464 0.0
C703 C 0.8101 0.90589 0.24528 0.0
H704 H 0.5743 0.08151 0.99033 0.0
H705 H 0.66513 0.10103 1.00803 0.0
H706 H 0.65291 0.14785 1.00783 0.0
H707 H 0.61603 0.18376 1.00499 0.0
H708 H 0.52476 0.16388 0.99415 0.0
H709 H 0.53736 0.1173 0.98922 0.0
C710 C 0.59144 0.09603 0.99376 0.0
C711 C 0.6207 0.08759 0.9988 0.0
C712 C 0.58409 0.12311 0.995 0.0
C713 C 0.64247 0.1068 1.00402 0.0
C714 C 0.63547 0.13368 1.00391 0.0
C715 C 0.59894 0.16924 1.00116 0.0
C716 C 0.56944 0.17752 0.99958 0.0
C717 C 0.60633 0.14216 0.99973 0.0
C718 C 0.54761 0.15824 0.99542 0.0
C719 C 0.55483 0.13149 0.99258 0.0
H720 H 0.10772 0.68142 0.99475 0.0
H721 H 0.01686 0.65962 1.00427 0.0
H722 H 0.03033 0.61315 1.00239 0.0
H723 H 0.06824 0.57807 1.00125 0.0
H724 H 0.15918 0.60022 0.99587 0.0
H725 H 0.14544 0.64652 0.99274 0.0
C726 C 0.09081 0.66654 0.99598 0.0
C727 C 0.06122 0.67429 0.99949 0.0
C728 C 0.09879 0.63959 0.99581 0.0
C729 C 0.03979 0.65448 1.00157 0.0
C730 C 0.04749 0.62776 1.00052 0.0
C731 C 0.08503 0.59301 0.99894 0.0
C732 C 0.11479 0.58539 0.99868 0.0
C733 C 0.07696 0.61997 0.99809 0.0
C734 C 0.13614 0.60526 0.99622 0.0
C735 C 0.12829 0.63189 0.99443 0.0
H736 H 0.64587 0.66211 0.92711 0.0
H737 H 0.56138 0.69813 0.90857 0.0
H738 H 0.53828 0.65485 0.90804 0.0
H739 H 0.54206 0.60622 0.9108 0.0
H740 H 0.62585 0.57044 0.93568 0.0
H741 H 0.64901 0.61373 0.93589 0.0
C742 C 0.62238 0.6605 0.92321 0.0
C743 C 0.60548 0.68352 0.91769 0.0
C744 C 0.60903 0.6354 0.92395 0.0
C745 C 0.575 0.68091 0.91308 0.0
C746 C 0.56174 0.65607 0.91258 0.0
C747 C 0.56536 0.60793 0.91644 0.0
C748 C 0.58217 0.58496 0.92293 0.0
C749 C 0.57851 0.6331 0.91766 0.0
C750 C 0.61231 0.58767 0.93069 0.0
C751 C 0.62563 0.61249 0.93068 0.0
H752 H 0.07527 0.18145 0.92268 0.0
H753 H 0.1656 0.15882 0.90738 0.0
H754 H 0.15184 0.11246 0.90951 0.0
H755 H 0.11375 0.0778 0.91303 0.0
H756 H 0.02321 0.10077 0.92418 0.0
H757 H 0.03735 0.14694 0.92655 0.0
C758 C 0.09202 0.16639 0.92015 0.0
C759 C 0.12154 0.17388 0.91501 0.0
C760 C 0.08383 0.13955 0.92055 0.0
C761 C 0.14275 0.15388 0.91134 0.0
C762 C 0.13485 0.12724 0.91255 0.0
C763 C 0.09713 0.09289 0.91642 0.0
C764 C 0.06736 0.08556 0.9186 0.0
C765 C 0.10542 0.11974 0.9168 0.0
C766 C 0.04623 0.1056 0.92239 0.0
C767 C 0.05434 0.13214 0.92373 0.0
H768 H 0.39146 0.35798 0.67771 0.0
H769 H 0.30577 0.32275 0.67492 0.0
H770 H 0.28319 0.36637 0.67338 0.0
H771 H 0.28765 0.41489 0.66974 0.0
H772 H 0.37329 0.45003 0.67642 0.0
H773 H 0.39576 0.40643 0.67962 0.0
C774 C 0.36782 0.3598 0.67712 0.0
C775 C 0.35043 0.33687 0.67628 0.0
C776 C 0.35487 0.38511 0.67672 0.0
C777 C 0.31981 0.33985 0.67577 0.0
C778 C 0.30683 0.36489 0.67468 0.0
C779 C 0.31124 0.41304 0.67212 0.0
C780 C 0.32868 0.43595 0.67255 0.0
C781 C 0.32411 0.38772 0.67465 0.0
C782 C 0.35921 0.43295 0.67607 0.0
C783 C 0.37214 0.40792 0.67779 0.0
H784 H 0.78972 0.91812 0.67791 0.0
H785 H 0.87582 0.95221 0.67073 0.0
H786 H 0.8978 0.90832 0.67072 0.0
H787 H 0.89261 0.85971 0.67002 0.0
H788 H 0.80674 0.82586 0.68338 0.0
H789 H 0.78486 0.86975 0.68388 0.0
C790 C 0.81332 0.91596 0.67668 0.0
C791 C 0.83101 0.93863 0.67411 0.0
C792 C 0.82594 0.8905 0.67765 0.0
C793 C 0.86158 0.93528 0.67291 0.0
C794 C 0.87421 0.91009 0.6727 0.0
C795 C 0.86913 0.86195 0.67333 0.0
C796 C 0.8514 0.83932 0.67643 0.0
C797 C 0.85663 0.88748 0.67465 0.0
C798 C 0.82101 0.84276 0.68109 0.0
C799 C 0.80842 0.86795 0.68121 0.0
H800 H 0.39516 0.91623 0.73616 0.0
H801 H 0.30939 0.95087 0.74813 0.0
H802 H 0.28728 0.90721 0.7488 0.0
H803 H 0.2922 0.85876 0.74853 0.0
H804 H 0.37743 0.82406 0.73126 0.0
H805 H 0.39965 0.86779 0.72997 0.0
C806 C 0.37161 0.91424 0.73863 0.0
C807 C 0.35405 0.93701 0.74229 0.0
C808 C 0.35886 0.88889 0.73819 0.0
C809 C 0.32352 0.93388 0.74509 0.0
C810 C 0.31081 0.90882 0.74567 0.0
C811 C 0.31563 0.86077 0.74428 0.0
C812 C 0.3331 0.838 0.7403 0.0
C813 C 0.32824 0.88613 0.74264 0.0
C814 C 0.36339 0.84111 0.73433 0.0
C815 C 0.37615 0.86619 0.73373 0.0
H816 H 0.86105 0.33727 0.74037 0.0
H817 H 0.77048 0.35924 0.75487 0.0
H818 H 0.78398 0.40568 0.75489 0.0
H819 H 0.82187 0.44047 0.7542 0.0
H820 H 0.91268 0.41815 0.7444 0.0
H821 H 0.89883 0.372 0.73902 0.0
C822 C 0.84423 0.35222 0.74304 0.0
C823 C 0.81471 0.34459 0.74737 0.0
C824 C 0.85225 0.37908 0.74413 0.0
C825 C 0.79335 0.36438 0.75143 0.0
C826 C 0.80107 0.39105 0.75151 0.0
C827 C 0.83861 0.42553 0.75047 0.0
C828 C 0.86834 0.43299 0.74961 0.0
C829 C 0.8305 0.39871 0.74836 0.0
C830 C 0.88966 0.41317 0.74526 0.0
C831 C 0.88174 0.38665 0.74217 0.0
H832 H 0.58691 0.59163 0.48543 0.0
H833 H 0.67159 0.61139 0.53507 0.0
H834 H 0.65852 0.65813 0.53368 0.0
H835 H 0.62192 0.69371 0.52082 0.0
H836 H 0.53599 0.67274 0.4771 0.0
H837 H 0.55059 0.62663 0.47337 0.0
C838 C 0.60263 0.60616 0.49566 0.0
C839 C 0.63032 0.59786 0.51012 0.0
C840 C 0.59465 0.63301 0.49581 0.0
C841 C 0.65016 0.61708 0.52379 0.0
C842 C 0.64267 0.64389 0.52296 0.0
C843 C 0.60658 0.67906 0.50996 0.0
C844 C 0.57793 0.68681 0.49881 0.0
C845 C 0.61487 0.65216 0.5093 0.0
C846 C 0.55815 0.66741 0.48571 0.0
C847 C 0.56649 0.64097 0.48364 0.0
H848 H 0.06712 0.07926 0.51686 0.0
H849 H 0.15449 0.09843 0.4769 0.0
H850 H 0.14148 0.14509 0.47376 0.0
H851 H 0.1056 0.18105 0.4846 0.0
H852 H 0.01998 0.16236 0.53219 0.0
H853 H 0.03177 0.11543 0.5302 0.0
C854 C 0.08317 0.09366 0.50704 0.0
C855 C 0.11167 0.08523 0.49654 0.0
C856 C 0.07583 0.12075 0.50695 0.0
C857 C 0.13239 0.10428 0.48489 0.0
C858 C 0.12495 0.13103 0.48315 0.0
C859 C 0.08947 0.16668 0.49427 0.0
C860 C 0.0618 0.17533 0.50821 0.0
C861 C 0.0968 0.1396 0.49441 0.0
C862 C 0.04141 0.15636 0.52133 0.0
C863 C 0.04814 0.12944 0.52014 0.0
H864 H 0.56965 0.18932 0.41097 0.0
H865 H 0.66109 0.16847 0.41488 0.0
H866 H 0.64839 0.12186 0.41603 0.0
H867 H 0.61133 0.08653 0.41352 0.0
H868 H 0.52005 0.10728 0.40402 0.0
H869 H 0.53254 0.1539 0.40745 0.0
C870 C 0.58678 0.17457 0.41248 0.0
C871 C 0.61635 0.18257 0.41314 0.0
C872 C 0.57931 0.14756 0.41189 0.0
C873 C 0.63819 0.16304 0.41436 0.0
C874 C 0.63093 0.13628 0.41501 0.0
C875 C 0.59414 0.10124 0.4125 0.0
C876 C 0.56471 0.0932 0.40873 0.0
C877 C 0.60157 0.12823 0.41343 0.0
C878 C 0.54286 0.11271 0.40688 0.0
C879 C 0.55 0.13948 0.40888 0.0
H880 H 0.08164 0.67916 0.43722 0.0
H881 H 0.1662 0.66098 0.38534 0.0
H882 H 0.15457 0.61411 0.38668 0.0
H883 H 0.11928 0.57786 0.39965 0.0
H884 H 0.03319 0.59678 0.44535 0.0
H885 H 0.04641 0.64317 0.44968 0.0
C886 C 0.09761 0.66493 0.42653 0.0
C887 C 0.12484 0.67375 0.41135 0.0
C888 C 0.09042 0.63787 0.42626 0.0
C889 C 0.14505 0.6549 0.39711 0.0
C890 C 0.13841 0.62799 0.39791 0.0
C891 C 0.10362 0.59212 0.41111 0.0
C892 C 0.07534 0.5837 0.42259 0.0
C893 C 0.11105 0.61916 0.41207 0.0
C894 C 0.05511 0.60261 0.43647 0.0
C895 C 0.06265 0.62923 0.43888 0.0
H896 H 0.25468 0.98356 0.28457 0.0
H897 H 0.2042 0.04906 0.23864 0.0
H898 H 0.17739 0.05134 0.30425 0.0
H899 H 0.16742 0.03471 0.3765 0.0
H900 H 0.21739 0.96843 0.42111 0.0
H901 H 0.24404 0.9664 0.35571 0.0
C902 C 0.23811 0.99854 0.28906 0.0
C903 C 0.23198 0.0163 0.25618 0.0
C904 C 0.22192 0.99943 0.32719 0.0
C905 C 0.20975 0.03514 0.26301 0.0
C906 C 0.19415 0.03642 0.30076 0.0
C907 C 0.18376 0.01957 0.37171 0.0
C908 C 0.18993 1.00164 0.40445 0.0
C909 C 0.19972 0.01855 0.33327 0.0
C910 C 0.2118 0.98253 0.39703 0.0
C911 C 0.22737 0.98138 0.35937 0.0
H912 H -0.00095 0.28501 0.39713 0.0
H913 H -0.02752 0.20508 0.41959 0.0
H914 H 0.94358 0.20548 0.35563 0.0
H915 H 0.92494 0.22849 0.29187 0.0
H916 H 0.95147 0.3085 0.26974 0.0
H917 H -0.01977 0.30807 0.3337 0.0
C918 C -0.01282 0.26758 0.38794 0.0
C919 C -0.01156 0.24494 0.41383 0.0
C920 C -0.03006 0.268 0.35068 0.0
C921 C -0.0277 0.22282 0.40085 0.0
C922 C 0.95552 0.22304 0.36401 0.0
C923 C 0.93671 0.24594 0.30118 0.0
C924 C 0.9355 0.26861 0.27529 0.0
C925 C 0.95388 0.24554 0.33855 0.0
C926 C 0.95156 0.29074 0.28843 0.0
C927 C -0.03171 0.29051 0.32528 0.0
H928 H 0.23597 0.27003 0.99996 0.0
H929 H 0.15176 0.24063 1.03849 0.0
H930 H 0.16922 0.23804 0.11061 0.0
H931 H 0.20829 0.24419 0.1633 0.0
H932 H 0.29263 0.27352 0.12538 0.0
H933 H 0.27541 0.27579 1.05293 0.0
C934 C 0.22131 0.26302 1.02405 0.0
C935 C 0.19228 0.25551 1.01311 0.0
C936 C 0.23168 0.26148 1.06584 0.0
C937 C 0.17399 0.24655 1.04533 0.0
C938 C 0.18408 0.24505 0.08679 0.0
C939 C 0.22309 0.25109 0.1393 0.0
C940 C 0.25199 0.25874 0.15049 0.0
C941 C 0.21287 0.25244 0.09751 0.0
C942 C 0.27048 0.26747 0.11833 0.0
C943 C 0.2605 0.26882 1.07671 0.0
H944 H -0.02 0.02265 0.16625 0.0
H945 H 0.89503 0.9942 0.12977 0.0
H946 H 0.91278 0.98884 1.05816 0.0
H947 H 0.95255 0.99167 1.00576 0.0
H948 H 0.03752 0.02036 1.04181 0.0
H949 H 0.0198 0.02579 0.11351 0.0
C950 C 0.96519 0.01533 0.1427 0.0
C951 C 0.9359 1.00887 0.15404 0.0
C952 C -0.02426 0.01212 0.10136 0.0
C953 C 0.91742 0.99946 0.12254 0.0
C954 C 0.92771 0.99629 1.08144 0.0
C955 C -0.0326 0.9991 1.02917 0.0
C956 C -0.00334 1.00553 1.01772 0.0
C957 C 0.95686 1.00242 1.07045 0.0
C958 C 0.01514 0.01512 1.04911 0.0
C959 C 0.00487 0.01831 0.09027 0.0
H960 H 0.67492 0.0342 0.87776 0.0
H961 H 0.72863 0.97136 0.92597 0.0
H962 H 0.75648 0.97012 0.8615 0.0
H963 H 0.76655 0.98664 0.78978 0.0
H964 H 0.71222 0.04863 0.74053 0.0
H965 H 0.68478 0.05052 0.80555 0.0
C966 C 0.69249 0.02007 0.87405 0.0
C967 C 0.69936 1.00291 0.90746 0.0
C968 C 0.709 0.01945 0.83617 0.0
C969 C 0.72261 0.98497 0.9014 0.0
C970 C 0.7388 0.98423 0.86425 0.0
C971 C 0.74903 1.00083 0.79347 0.0
C972 C 0.74194 0.01768 0.75983 0.0
C973 C 0.73251 1.00148 0.83129 0.0
C974 C 0.71852 0.03546 0.76556 0.0
C975 C 0.70255 0.03651 0.80294 0.0
H976 H 0.94773 0.77423 0.91922 0.0
H977 H 0.03106 0.74335 0.8795 0.0
H978 H 0.01313 0.74187 0.80753 0.0
H979 H -0.02632 0.74895 0.75558 0.0
H980 H 0.89017 0.77959 0.79495 0.0
H981 H 0.90813 0.78134 0.86701 0.0
C982 C 0.96211 0.76716 0.8949 0.0
C983 C -0.00901 0.75885 0.90541 0.0
C984 C 0.95146 0.76624 0.8533 0.0
C985 C 0.00895 0.74987 0.87293 0.0
C986 C -0.00142 0.74899 0.8316 0.0
C987 C 0.95925 0.75609 0.7798 0.0
C988 C 0.93035 0.76422 0.76919 0.0
C989 C -0.03014 0.75706 0.82135 0.0
C990 C 0.91231 0.77321 0.80159 0.0
C991 C 0.92271 0.77424 0.84297 0.0
H992 H 0.73308 0.77048 0.99901 0.0
H993 H 0.64678 0.74649 1.03761 0.0
H994 H 0.6641 0.74289 0.10978 0.0
H995 H 0.70378 0.7463 0.16215 0.0
H996 H 0.79014 0.77031 0.12384 0.0
H997 H 0.77291 0.77379 1.05154 0.0
C998 C 0.71791 0.76446 1.02312 0.0
C999 C 0.68838 0.75875 1.01227 0.0
C1000 C 0.7282 0.76227 1.06477 0.0
C1001 C 0.66939 0.75106 1.04447 0.0
C1002 C 0.67942 0.74894 0.08589 0.0
C1003 C 0.71902 0.75228 0.1381 0.0
C1004 C 0.74851 0.75805 0.14906 0.0
C1005 C 0.70879 0.75441 0.09646 0.0
C1006 C 0.76756 0.76567 0.1169 0.0
C1007 C 0.75757 0.76774 1.0754 0.0
H1008 H 0.23148 0.49461 0.91501 0.0
H1009 H 0.14504 0.51972 0.87837 0.0
H1010 H 0.16196 0.52446 0.80615 0.0
H1011 H 0.20156 0.5217 0.75294 0.0
H1012 H 0.28801 0.49695 0.79019 0.0
H1013 H 0.27097 0.49213 0.8622 0.0
C1014 C 0.21618 0.50113 0.89134 0.0
C1015 C 0.18675 0.50678 0.90276 0.0
C1016 C 0.22623 0.504 0.8497 0.0
C1017 C 0.16762 0.51517 0.87108 0.0
C1018 C 0.17741 0.51793 0.8296 0.0
C1019 C 0.2168 0.51527 0.77675 0.0
C1020 C 0.2463 0.50968 0.76553 0.0
C1021 C 0.2067 0.51247 0.81845 0.0
C1022 C 0.26539 0.50144 0.79733 0.0
C1023 C 0.25554 0.49862 0.8387 0.0
H1024 H 0.18981 0.78494 0.51934 0.0
H1025 H 0.21253 0.70341 0.50446 0.0
H1026 H 0.24203 0.70477 0.56807 0.0
H1027 H 0.26194 0.72928 0.62947 0.0
H1028 H 0.24026 0.81134 0.64171 0.0
H1029 H 0.21086 0.8096 0.57864 0.0
C1030 C 0.20095 0.76737 0.53015 0.0
C1031 C 0.19834 0.74396 0.50683 0.0
C1032 C 0.21872 0.76844 0.56666 0.0
C1033 C 0.21371 0.72168 0.52149 0.0
C1034 C 0.23082 0.72247 0.55803 0.0
C1035 C 0.25114 0.74686 0.61811 0.0
C1036 C 0.25373 0.77049 0.64111 0.0
C1037 C 0.23374 0.74578 0.58103 0.0
C1038 C 0.23902 0.79284 0.62532 0.0
C1039 C 0.2219 0.79187 0.58901 0.0
H1040 H 0.95481 0.49614 0.50521 0.0
H1041 H 0.04121 0.52072 0.54194 0.0
H1042 H 0.02407 0.52585 0.61385 0.0
H1043 H -0.01553 0.5235 0.66682 0.0
H1044 H 0.898 0.49907 0.63016 0.0
H1045 H 0.9151 0.49403 0.55818 0.0
C1046 C -0.02996 0.50262 0.52886 0.0
C1047 C -0.00045 0.50801 0.51751 0.0
C1048 C 0.95985 0.50568 0.57044 0.0
C1049 C 0.01858 0.51636 0.54915 0.0
C1050 C 0.00867 0.51935 0.59047 0.0
C1051 C -0.0308 0.51711 0.64318 0.0
C1052 C 0.93969 0.5117 0.65458 0.0
C1053 C -0.02066 0.51413 0.60157 0.0
C1054 C 0.92061 0.50346 0.62292 0.0
C1055 C 0.93051 0.50051 0.58156 0.0
H1056 H 0.75974 0.54727 0.28852 0.0
H1057 H 0.73467 0.46788 0.26142 0.0
H1058 H 0.70757 0.46534 0.32733 0.0
H1059 H 0.68903 0.48656 0.3928 0.0
H1060 H 0.71469 0.5663 0.4183 0.0
H1061 H 0.74254 0.56795 0.35365 0.0
C1062 C 0.74887 0.52924 0.2974 0.0
C1063 C 0.75011 0.50756 0.27017 0.0
C1064 C 0.73263 0.52817 0.33517 0.0
C1065 C 0.73502 0.48462 0.28208 0.0
C1066 C 0.71909 0.4833 0.31969 0.0
C1067 C 0.70044 0.50438 0.38398 0.0
C1068 C 0.69921 0.52646 0.41074 0.0
C1069 C 0.71727 0.5051 0.34643 0.0
C1070 C 0.71485 0.54907 0.39865 0.0
C1071 C 0.73104 0.55002 0.36156 0.0
H1072 H 0.73206 0.27888 0.49717 0.0
H1073 H 0.64846 0.24716 0.53354 0.0
H1074 H 0.66532 0.24417 0.60582 0.0
H1075 H 0.70381 0.25021 0.65946 0.0
H1076 H 0.78749 0.28216 0.62414 0.0
H1077 H 0.77079 0.28525 0.55151 0.0
C1078 C 0.71742 0.27128 0.52083 0.0
C1079 C 0.68873 0.26316 0.50908 0.0
C1080 C 0.72743 0.2696 0.56294 0.0
C1081 C 0.67044 0.25353 0.54087 0.0
C1082 C 0.6802 0.2518 0.58249 0.0
C1083 C 0.71858 0.25791 0.63603 0.0
C1084 C 0.74719 0.26596 0.64811 0.0
C1085 C 0.70865 0.25971 0.59403 0.0
C1086 C 0.76556 0.27579 0.61654 0.0
C1087 C 0.75588 0.27756 0.57474 0.0
H1088 H 0.44962 0.2698 0.92299 0.0
H1089 H 0.53465 0.24336 0.88259 0.0
H1090 H 0.51667 0.2411 0.81073 0.0
H1091 H 0.47692 0.24687 0.75872 0.0
H1092 H 0.39162 0.27279 0.79874 0.0
H1093 H 0.4094 0.27473 0.87087 0.0
C1094 C 0.46434 0.26348 0.89856 0.0
C1095 C 0.49377 0.25674 0.90889 0.0
C1096 C 0.45365 0.26206 0.85694 0.0
C1097 C 0.51212 0.24864 0.87623 0.0
C1098 C 0.50172 0.24735 0.83492 0.0
C1099 C 0.46203 0.25293 0.78312 0.0
C1100 C 0.43268 0.25976 0.77258 0.0
C1101 C 0.47255 0.25402 0.82479 0.0
C1102 C 0.41409 0.26738 0.80526 0.0
C1103 C 0.4244 0.26856 0.84671 0.0
H1104 H 0.47663 0.02913 0.65669 0.0
H1105 H 0.39182 1.00075 0.61965 0.0
H1106 H 0.40919 0.99732 0.5474 0.0
H1107 H 0.44905 1.00173 0.49411 0.0
H1108 H 0.53382 0.02967 0.53235 0.0
H1109 H 0.51603 0.03371 0.604 0.0
C1110 C 0.46173 0.02221 0.63295 0.0
C1111 C 0.43262 0.01522 0.64445 0.0
C1112 C 0.47207 0.02009 0.59122 0.0
C1113 C 0.4141 1.00637 0.61249 0.0
C1114 C 0.42418 1.00434 0.57092 0.0
C1115 C 0.46374 1.00876 0.51803 0.0
C1116 C 0.49307 0.01543 0.507 0.0
C1117 C 0.4532 0.01102 0.55978 0.0
C1118 C 0.51137 0.02438 0.53912 0.0
C1119 C 0.50109 0.02671 0.58038 0.0
H1120 H 0.48272 0.75303 0.25491 0.0
H1121 H 0.39812 0.78214 0.29235 0.0
H1122 H 0.41547 0.78494 0.36462 0.0
H1123 H 0.45485 0.77901 0.41783 0.0
H1124 H 0.53941 0.75011 0.37975 0.0
H1125 H 0.52204 0.74757 0.30762 0.0
C1126 C 0.46791 0.76005 0.27873 0.0
C1127 C 0.43884 0.76738 0.26744 0.0
C1128 C 0.4782 0.7617 0.32047 0.0
C1129 C 0.42039 0.77634 0.29942 0.0
C1130 C 0.43043 0.77796 0.34098 0.0
C1131 C 0.46961 0.77215 0.39383 0.0
C1132 C 0.49868 0.76468 0.40493 0.0
C1133 C 0.45931 0.77069 0.35199 0.0
C1134 C 0.51714 0.75598 0.3728 0.0
C1135 C 0.50709 0.7545 0.33133 0.0
H1136 H 0.42918 0.54089 0.13549 0.0
H1137 H 0.45059 0.45949 0.15732 0.0
H1138 H 0.48125 0.45896 0.09529 0.0
H1139 H 0.5033 0.48149 1.03398 0.0
H1140 H 0.48161 0.56265 1.01106 0.0
H1141 H 0.4508 0.56334 1.07322 0.0
C1142 C 0.44017 0.52293 0.12638 0.0
C1143 C 0.43705 0.50017 0.15159 0.0
C1144 C 0.45847 0.52275 0.09021 0.0
C1145 C 0.45218 0.47734 0.13898 0.0
C1146 C 0.47002 0.47701 0.10332 0.0
C1147 C 0.49216 0.49943 1.04281 0.0
C1148 C 0.49537 0.5221 1.01751 0.0
C1149 C 0.4737 0.49962 1.07872 0.0
C1150 C 0.47999 0.5449 1.02963 0.0
C1151 C 0.46209 0.5453 1.06533 0.0
H1152 H 0.32615 0.98953 1.01834 0.0
H1153 H 0.31123 0.0729 1.02752 0.0
H1154 H 0.33033 0.07925 0.95726 0.0
H1155 H 0.35197 0.06171 0.89181 0.0
H1156 H 0.36919 0.97876 0.88261 0.0
H1157 H 0.34915 0.97197 0.95263 0.0
C1158 C 0.32688 1.00909 1.00497 0.0
C1159 C 0.31674 0.0307 1.02916 0.0
C1160 C 0.33872 0.01283 0.96384 0.0
C1161 C 0.31854 0.05579 1.0105 0.0
C1162 C 0.32963 0.0595 0.96992 0.0
C1163 C 0.35152 0.0421 0.90502 0.0
C1164 C 0.3624 0.02082 0.88092 0.0
C1165 C 0.33996 0.03827 0.9461 0.0
C1166 C 0.36129 0.99567 0.89959 0.0
C1167 C 0.34963 0.99173 0.94001 0.0
H1168 H 0.86189 0.2889 1.02675 0.0
H1169 H 0.84872 0.20558 1.04081 0.0
H1170 H 0.82739 0.20349 0.97128 0.0
H1171 H 0.8128 0.22489 0.90355 0.0
H1172 H 0.8283 0.30777 0.88844 0.0
H1173 H 0.84746 0.31022 0.95922 0.0
C1174 C 0.85441 0.27023 1.01476 0.0
C1175 C 0.85728 0.24741 1.04026 0.0
C1176 C 0.84204 0.26899 0.97357 0.0
C1177 C 0.84718 0.22361 1.02292 0.0
C1178 C 0.83474 0.22235 0.98266 0.0
C1179 C 0.81983 0.2436 0.91588 0.0
C1180 C 0.81827 0.26627 0.88978 0.0
C1181 C 0.83193 0.24486 0.95729 0.0
C1182 C 0.82861 0.28998 0.90707 0.0
C1183 C 0.83987 0.29141 0.94794 0.0
H1184 H 0.32948 0.28366 0.39535 0.0
H1185 H 0.31162 0.20068 0.38979 0.0
H1186 H 0.32956 0.19504 0.46078 0.0
H1187 H 0.35124 0.21304 0.52563 0.0
H1188 H 0.37066 0.29563 0.53182 0.0
H1189 H 0.3518 0.30178 0.46098 0.0
C1190 C 0.32922 0.26438 0.40974 0.0
C1191 C 0.3187 0.24264 0.38638 0.0
C1192 C 0.34029 0.26104 0.45132 0.0
C1193 C 0.31925 0.21787 0.40625 0.0
C1194 C 0.32969 0.21456 0.4472 0.0
C1195 C 0.35149 0.23243 0.51158 0.0
C1196 C 0.36264 0.25381 0.53496 0.0
C1197 C 0.34048 0.23589 0.4702 0.0
C1198 C 0.36245 0.27868 0.51534 0.0
C1199 C 0.35149 0.28225 0.47448 0.0
H1200 H 0.85849 0.05963 0.39755 0.0
H1201 H 0.8727 0.97608 0.39153 0.0
H1202 H 0.85442 0.97116 0.46287 0.0
H1203 H 0.83377 0.99058 0.52841 0.0
H1204 H 0.82165 0.07444 0.5344 0.0
H1205 H 0.83922 0.07902 0.46296 0.0
C1206 C 0.85775 0.0403 0.41179 0.0
C1207 C 0.86716 0.01826 0.38837 0.0
C1208 C 0.84724 0.03758 0.45345 0.0
C1209 C 0.86583 0.99349 0.40813 0.0
C1210 C 0.85521 0.99064 0.44922 0.0
C1211 C 0.83484 1.00986 0.51407 0.0
C1212 C 0.82603 0.03215 0.5375 0.0
C1213 C 0.84568 0.01251 0.4724 0.0
C1214 C 0.82806 0.05688 0.5178 0.0
C1215 C 0.83823 0.05955 0.47662 0.0
H1216 H 0.62545 0.9742 0.14584 0.0
H1217 H 0.57823 0.04456 0.11248 0.0
H1218 H 0.55944 0.04811 0.18331 0.0
H1219 H 0.55523 0.03129 0.25636 0.0
H1220 H 0.60003 0.95962 0.28916 0.0
H1221 H 0.6202 0.95672 0.21886 0.0
C1222 C 0.6112 0.99042 0.15401 0.0
C1223 C 0.60366 1.0092 0.12277 0.0
C1224 C 0.59962 0.99216 0.19558 0.0
C1225 C 0.58472 0.02974 0.13497 0.0
C1226 C 0.5738 0.03183 0.17591 0.0
C1227 C 0.56943 0.01502 0.24829 0.0
C1228 C 0.57594 0.99577 0.27919 0.0
C1229 C 0.58089 0.01315 0.20675 0.0
C1230 C 0.59433 0.97484 0.26693 0.0
C1231 C 0.60607 0.97315 0.22629 0.0
H1232 H 0.07924 0.80242 0.14725 0.0
H1233 H 0.05925 0.72004 0.13809 0.0
H1234 H 0.07781 0.71278 0.20873 0.0
H1235 H 0.10005 0.72973 0.27505 0.0
H1236 H 0.11651 0.81273 0.28516 0.0
H1237 H 0.09961 0.81952 0.2138 0.0
C1238 C 0.07884 0.78284 0.16062 0.0
C1239 C 0.06771 0.76184 0.13636 0.0
C1240 C 0.08929 0.77877 0.20219 0.0
C1241 C 0.06749 0.73673 0.15521 0.0
C1242 C 0.07828 0.7325 0.19597 0.0
C1243 C 0.10017 0.74928 0.2616 0.0
C1244 C 0.11009 0.77066 0.28623 0.0
C1245 C 0.08938 0.75332 0.22004 0.0
C1246 C 0.10931 0.7958 0.26765 0.0
C1247 C 0.0995 0.79976 0.22648 0.0
H1248 H 0.60488 0.81101 0.772 0.0
H1249 H 0.62286 0.72804 0.77921 0.0
H1250 H 0.60479 0.72245 0.70804 0.0
H1251 H 0.58354 0.74107 0.64197 0.0
H1252 H 0.56814 0.82448 0.63435 0.0
H1253 H 0.58497 0.82968 0.70597 0.0
C1254 C 0.60497 0.79167 0.75808 0.0
C1255 C 0.61539 0.76999 0.78188 0.0
C1256 C 0.59464 0.78855 0.71635 0.0
C1257 C 0.61515 0.7452 0.76241 0.0
C1258 C 0.60466 0.74195 0.72137 0.0
C1259 C 0.58363 0.76037 0.65602 0.0
C1260 C 0.57411 0.78235 0.63203 0.0
C1261 C 0.5942 0.76343 0.69778 0.0
C1262 C 0.57506 0.80713 0.65138 0.0
C1263 C 0.58483 0.81017 0.69267 0.0
H1264 H 0.09487 0.9696 0.77429 0.0
H1265 H 0.03097 0.03182 0.76846 0.0
H1266 H 0.04277 0.03934 0.69501 0.0
H1267 H 0.07157 0.02858 0.63108 0.0
H1268 H 0.13799 0.96855 0.63812 0.0
H1269 H 0.12524 0.96017 0.71106 0.0
C1270 C 0.08337 0.98475 0.75699 0.0
C1271 C 0.06154 0.99988 0.77764 0.0
C1272 C 0.09097 0.98954 0.71434 0.0
C1273 C 0.04755 0.01966 0.75407 0.0
C1274 C 0.05442 0.02403 0.71174 0.0
C1275 C 0.08336 0.01367 0.64849 0.0
C1276 C 0.10584 0.99918 0.62814 0.0
C1277 C 0.07614 1.00917 0.69131 0.0
C1278 C 0.12073 0.98012 0.65213 0.0
C1279 C 0.11331 0.97524 0.6942 0.0
H1280 H 0.32542 0.48792 0.52403 0.0
H1281 H 0.31561 0.57193 0.53252 0.0
H1282 H 0.33261 0.57696 0.46095 0.0
H1283 H 0.35111 0.55801 0.39476 0.0
H1284 H 0.36257 0.47427 0.38578 0.0
H1285 H 0.34462 0.46884 0.45721 0.0
C1286 C 0.32681 0.50733 0.5102 0.0
C1287 C 0.31888 0.52953 0.5345 0.0
C1288 C 0.33726 0.51024 0.4683 0.0
C1289 C 0.32134 0.55441 0.51533 0.0
C1290 C 0.3312 0.55735 0.47404 0.0
C1291 C 0.34978 0.53853 0.40834 0.0
C1292 C 0.35841 0.5166 0.38408 0.0
C1293 C 0.33941 0.5355 0.45007 0.0
C1294 C 0.35631 0.49161 0.40303 0.0
C1295 C 0.34589 0.48847 0.4442 0.0
H1296 H 0.82356 0.78286 0.53094 0.0
H1297 H 0.88762 0.7207 0.52921 0.0
H1298 H 0.87538 0.71149 0.45631 0.0
H1299 H 0.84587 0.72085 0.39185 0.0
H1300 H 0.7846 0.78528 0.39307 0.0
H1301 H 0.79601 0.79354 0.46622 0.0
C1302 C 0.83498 0.7673 0.51468 0.0
C1303 C 0.85657 0.75246 0.53636 0.0
C1304 C 0.82806 0.76235 0.47212 0.0
C1305 C 0.87103 0.73255 0.514 0.0
C1306 C 0.86389 0.72721 0.47203 0.0
C1307 C 0.83488 0.73663 0.40813 0.0
C1308 C 0.81388 0.75219 0.38636 0.0
C1309 C 0.84232 0.74187 0.45059 0.0
C1310 C 0.80051 0.7728 0.40845 0.0
C1311 C 0.80716 0.7776 0.45056 0.0
H1312 H 0.35315 0.72585 0.88495 0.0
H1313 H 0.29802 0.79462 0.88427 0.0
H1314 H 0.31125 0.80339 0.95674 0.0
H1315 H 0.33845 0.79174 1.02163 0.0
H1316 H 0.3958 0.72448 1.02169 0.0
H1317 H 0.38211 0.71522 0.94936 0.0
C1318 C 0.34393 0.74276 0.9006 0.0
C1319 C 0.32423 0.75944 0.87838 0.0
C1320 C 0.35227 0.7481 0.94273 0.0
C1321 C 0.31306 0.78135 0.89982 0.0
C1322 C 0.3207 0.7864 0.94161 0.0
C1323 C 0.34813 0.77507 1.00588 0.0
C1324 C 0.36831 0.75884 1.028 0.0
C1325 C 0.34031 0.76999 0.96358 0.0
C1326 C 0.38041 0.73745 1.00622 0.0
C1327 C 0.37243 0.73208 0.96455 0.0
H1328 H 0.85691 0.55934 0.90202 0.0
H1329 H 0.87811 0.47697 0.8965 0.0
H1330 H 0.85865 0.47067 0.96693 0.0
H1331 H 0.83513 0.48852 1.03176 0.0
H1332 H 0.81608 0.57136 1.03737 0.0
H1333 H 0.83458 0.57722 0.96665 0.0
C1334 C 0.85743 0.53998 0.91617 0.0
C1335 C 0.8692 0.51869 0.8931 0.0
C1336 C 0.84619 0.53645 0.95736 0.0
C1337 C 0.86942 0.49385 0.91279 0.0
C1338 C 0.85811 0.49019 0.95338 0.0
C1339 C 0.83479 0.50784 1.01745 0.0
C1340 C 0.82372 0.52945 1.04062 0.0
C1341 C 0.84626 0.51129 0.97621 0.0
C1342 C 0.82414 0.55427 1.02097 0.0
C1343 C 0.83489 0.5577 0.9802 0.0
H1344 H 0.58863 0.53663 0.7828 0.0
H1345 H 0.56683 0.45435 0.78448 0.0
H1346 H 0.58253 0.45025 0.71216 0.0
H1347 H 0.6032 0.46955 0.64721 0.0
H1348 H 0.62747 0.55122 0.64569 0.0
H1349 H 0.61057 0.55583 0.71768 0.0
C1350 C 0.58713 0.51783 0.76731 0.0
C1351 C 0.57616 0.49583 0.78982 0.0
C1352 C 0.59698 0.51538 0.72512 0.0
C1353 C 0.57496 0.47168 0.76863 0.0
C1354 C 0.58406 0.46928 0.72693 0.0
C1355 C 0.60488 0.4884 0.66254 0.0
C1356 C 0.61673 0.51002 0.64019 0.0
C1357 C 0.59526 0.4909 0.70468 0.0
C1358 C 0.6186 0.53415 0.66142 0.0
C1359 C 0.6088 0.53683 0.70291 0.0
H1360 H 0.13705 0.23412 0.75971 0.0
H1361 H 0.08735 0.30333 0.79076 0.0
H1362 H 0.066 0.30415 0.72115 0.0
H1363 H 0.06095 0.28559 0.64941 0.0
H1364 H 0.11289 0.21805 0.61687 0.0
H1365 H 0.13312 0.21634 0.68725 0.0
C1366 C 0.12156 0.24942 0.75137 0.0
C1367 C 0.11402 0.2686 0.78163 0.0
C1368 C 0.1094 0.25013 0.71013 0.0
C1369 C 0.09391 0.28823 0.76905 0.0
C1370 C 0.08148 0.28872 0.72881 0.0
C1371 C 0.07658 0.2704 0.65765 0.0
C1372 C 0.085 0.25185 0.6269 0.0
C1373 C 0.08893 0.2698 0.69877 0.0
C1374 C 0.10568 0.23263 0.63908 0.0
C1375 C 0.11742 0.23162 0.67973 0.0
H1376 H 0.55626 0.293 0.1505 0.0
H1377 H 0.60749 0.22381 0.12471 0.0
H1378 H 0.62555 0.22317 0.19613 0.0
H1379 H 0.62793 0.24229 0.26736 0.0
H1380 H 0.57901 0.3128 0.29285 0.0
H1381 H 0.55957 0.31281 0.22192 0.0
C1382 C 0.57116 0.27763 0.16052 0.0
C1383 C 0.5801 0.25829 0.13133 0.0
C1384 C 0.58228 0.27763 0.20237 0.0
C1385 C 0.59992 0.23895 0.1457 0.0
C1386 C 0.61042 0.23856 0.18694 0.0
C1387 C 0.613 0.25769 0.25753 0.0
C1388 C 0.60507 0.27748 0.28645 0.0
C1389 C 0.60197 0.25782 0.21578 0.0
C1390 C 0.58576 0.29724 0.27208 0.0
C1391 C 0.57446 0.29724 0.23112 0.0
H1392 H 0.10246 0.45727 0.14744 0.0
H1393 H 0.12463 0.53934 0.14067 0.0
H1394 H 0.10609 0.54576 0.21144 0.0
H1395 H 0.08324 0.5281 0.27704 0.0
H1396 H 0.06362 0.44548 0.28424 0.0
H1397 H 0.08091 0.43953 0.21298 0.0
C1398 C 0.10337 0.47659 0.16138 0.0
C1399 C 0.11511 0.49777 0.13783 0.0
C1400 C 0.09274 0.48018 0.20285 0.0
C1401 C 0.1159 0.52255 0.1573 0.0
C1402 C 0.10513 0.52628 0.1981 0.0
C1403 C 0.08249 0.50883 0.26295 0.0
C1404 C 0.07162 0.4873 0.28671 0.0
C1405 C 0.09334 0.50529 0.22143 0.0
C1406 C 0.07155 0.4625 0.26736 0.0
C1407 C 0.08159 0.45903 0.22628 0.0
H1408 H 0.25472 0.18854 0.18022 0.0
H1409 H 0.25735 0.16925 0.31072 0.0
H1410 H 0.25267 0.12241 0.29403 0.0
H1411 H 0.25531 0.08684 0.24169 0.0
H1412 H 0.2516 0.10613 0.11118 0.0
H1413 H 0.24874 0.15304 0.12829 0.0
C1414 C 0.25324 0.17411 0.20508 0.0
C1415 C 0.25616 0.18242 0.24679 0.0
C1416 C 0.25079 0.1472 0.19507 0.0
C1417 C 0.25459 0.1635 0.27857 0.0
C1418 C 0.25232 0.13666 0.26889 0.0
C1419 C 0.25312 0.10131 0.21699 0.0
C1420 C 0.25382 0.09296 0.17507 0.0
C1421 C 0.25148 0.12824 0.22721 0.0
C1422 C 0.25087 0.11192 0.14353 0.0
C1423 C 0.24952 0.13878 0.1534 0.0
H1424 H 0.93606 0.08397 0.19082 0.0
H1425 H 0.91946 0.09743 0.32077 0.0
H1426 H 0.91909 0.14503 0.30817 0.0
H1427 H 0.91606 0.18227 0.25811 0.0
H1428 H 0.93466 0.16901 0.12855 0.0
H1429 H 0.94198 0.12204 0.14291 0.0
C1430 C 0.93357 0.09739 0.21668 0.0
C1431 C 0.92825 0.08708 0.25692 0.0
C1432 C 0.93314 0.12479 0.20898 0.0
C1433 C 0.92436 0.10474 0.28985 0.0
C1434 C 0.92367 0.132 0.28243 0.0
C1435 C 0.92245 0.1692 0.23317 0.0
C1436 C 0.92465 0.17921 0.19214 0.0
C1437 C 0.92693 0.14219 0.24186 0.0
C1438 C 0.933 0.16198 0.16031 0.0
C1439 C 0.93698 0.13504 0.16855 0.0
H1440 H 0.68615 0.831 0.98211 0.0
H1441 H 0.67406 0.85044 0.85278 0.0
H1442 H 0.67423 0.89739 0.86999 0.0
H1443 H 0.67042 0.93241 0.92326 0.0
H1444 H 0.68347 0.91307 1.05255 0.0
H1445 H 0.69056 0.8667 1.03411 0.0
C1446 C 0.68476 0.84557 0.95745 0.0
C1447 C 0.68058 0.8371 0.91596 0.0
C1448 C 0.68437 0.87256 0.96785 0.0
C1449 C 0.6781 0.85626 0.88462 0.0
C1450 C 0.67768 0.88315 0.89468 0.0
C1451 C 0.67538 0.91811 0.94738 0.0
C1452 C 0.6761 0.92626 0.98945 0.0
C1453 C 0.67965 0.89148 0.93636 0.0
C1454 C 0.68285 0.90749 1.02011 0.0
C1455 C 0.68674 0.8809 1.00948 0.0
H1456 H 0.00765 0.83036 0.93057 0.0
H1457 H 0.01177 0.84866 1.06106 0.0
H1458 H 0.00996 0.89579 1.04434 0.0
H1459 H 0.01327 0.93173 0.99191 0.0
H1460 H 0.00646 0.91352 0.86161 0.0
H1461 H 0.00285 0.86653 0.87873 0.0
C1462 C 0.00735 0.84469 0.95542 0.0
C1463 C 0.00978 0.83592 0.99716 0.0
C1464 C 0.00611 0.87179 0.94544 0.0
C1465 C 0.00951 0.85474 1.02889 0.0
C1466 C 0.00879 0.88174 1.0192 0.0
C1467 C 0.01028 0.91749 0.96729 0.0
C1468 C 0.01017 0.9262 0.92539 0.0
C1469 C 0.00794 0.8905 0.97754 0.0
C1470 C 0.00629 0.9075 0.89396 0.0
C1471 C 0.0045 0.88057 0.90383 0.0
H1472 H 0.27028 0.68587 0.66522 0.0
H1473 H 0.25239 0.67304 0.79525 0.0
H1474 H 0.24442 0.62615 0.78191 0.0
H1475 H 0.24947 0.58798 0.73457 0.0
H1476 H 0.26482 0.60117 0.60402 0.0
H1477 H 0.26609 0.64875 0.61583 0.0
C1478 C 0.26387 0.67292 0.69047 0.0
C1479 C 0.26206 0.68297 0.73132 0.0
C1480 C 0.25892 0.64602 0.68234 0.0
C1481 C 0.25373 0.66592 0.76362 0.0
C1482 C 0.24938 0.63904 0.75596 0.0
C1483 C 0.25196 0.60137 0.70846 0.0
C1484 C 0.25674 0.591 0.6683 0.0
C1485 C 0.25278 0.62874 0.71565 0.0
C1486 C 0.26045 0.60856 0.63494 0.0
C1487 C 0.26163 0.63579 0.64188 0.0
H1488 H 0.92042 0.68799 0.74261 0.0
H1489 H 0.91963 0.67131 0.61145 0.0
H1490 H 0.92368 0.62411 0.62661 0.0
H1491 H 0.92104 0.58743 0.6777 0.0
H1492 H 0.9247 0.60416 0.80876 0.0
H1493 H 0.92636 0.65143 0.79336 0.0
C1494 C 0.922 0.67403 0.71733 0.0
C1495 C 0.91982 0.68317 0.67586 0.0
C1496 C 0.92452 0.64692 0.72641 0.0
C1497 C 0.9217 0.66487 0.64348 0.0
C1498 C 0.92369 0.63784 0.65225 0.0
C1499 C 0.92294 0.60144 0.70285 0.0
C1500 C 0.92267 0.59227 0.74442 0.0
C1501 C 0.92421 0.6286 0.69362 0.0
C1502 C 0.92516 0.61063 0.77663 0.0
C1503 C 0.92584 0.63769 0.76775 0.0
H1504 H 0.67586 0.33888 0.48302 0.0
H1505 H 0.659 0.35616 0.354 0.0
H1506 H 0.65904 0.40341 0.36922 0.0
H1507 H 0.65856 0.43953 0.42106 0.0
H1508 H 0.67888 0.42217 0.54916 0.0
H1509 H 0.68296 0.37533 0.53266 0.0
C1510 C 0.67302 0.35306 0.45804 0.0
C1511 C 0.6676 0.34404 0.41733 0.0
C1512 C 0.67322 0.38016 0.4671 0.0
C1513 C 0.66372 0.36258 0.38535 0.0
C1514 C 0.66337 0.3896 0.39423 0.0
C1515 C 0.66426 0.42549 0.44522 0.0
C1516 C 0.66804 0.43429 0.48648 0.0
C1517 C 0.66725 0.39859 0.43522 0.0
C1518 C 0.67584 0.41594 0.51729 0.0
C1519 C 0.67806 0.38913 0.50784 0.0
H1520 H 0.01427 0.33116 0.42916 0.0
H1521 H 0.004 0.34898 0.55912 0.0
H1522 H -5e-05 0.39593 0.54228 0.0
H1523 H 0.00589 0.43218 0.49125 0.0
H1524 H 0.01395 0.4145 0.36094 0.0
H1525 H 0.01162 0.3673 0.37686 0.0
C1526 C 0.01029 0.34531 0.45364 0.0
C1527 C 0.00932 0.3366 0.49542 0.0
C1528 C 0.00773 0.3723 0.44354 0.0
C1529 C 0.00445 0.35512 0.52682 0.0
C1530 C 0.00237 0.382 0.51714 0.0
C1531 C 0.00615 0.41797 0.46621 0.0
C1532 C 0.00988 0.42687 0.42486 0.0
C1533 C 0.00483 0.39088 0.47574 0.0
C1534 C 0.01054 0.40825 0.39283 0.0
C1535 C 0.0096 0.38123 0.40207 0.0
H1536 H 0.75156 0.08904 0.73581 0.0
H1537 H 0.76914 0.10619 0.60697 0.0
H1538 H 0.76951 0.15339 0.62238 0.0
H1539 H 0.77139 0.18926 0.67451 0.0
H1540 H 0.75165 0.17216 0.80284 0.0
H1541 H 0.7454 0.12556 0.78579 0.0
C1542 C 0.75436 0.10319 0.7108 0.0
C1543 C 0.75993 0.09405 0.67008 0.0
C1544 C 0.7548 0.13029 0.72011 0.0
C1545 C 0.7641 0.11261 0.63823 0.0
C1546 C 0.76479 0.13962 0.64728 0.0
C1547 C 0.76526 0.17537 0.69865 0.0
C1548 C 0.76234 0.18418 0.74013 0.0
C1549 C 0.76121 0.14862 0.68836 0.0
C1550 C 0.75403 0.16599 0.77083 0.0
C1551 C 0.75057 0.1393 0.76104 0.0
H1552 H 0.42271 0.18757 0.74579 0.0
H1553 H 0.42851 0.17199 0.61451 0.0
H1554 H 0.43345 0.12479 0.62927 0.0
H1555 H 0.42838 0.0877 0.67922 0.0
H1556 H 0.42365 0.10334 0.81053 0.0
H1557 H 0.42657 0.15071 0.79635 0.0
C1558 C 0.42595 0.17389 0.72044 0.0
C1559 C 0.42525 0.18336 0.67897 0.0
C1560 C 0.4287 0.14676 0.72931 0.0
C1561 C 0.42935 0.16538 0.64655 0.0
C1562 C 0.43184 0.13832 0.65508 0.0
C1563 C 0.42904 0.10148 0.70483 0.0
C1564 C 0.42602 0.09193 0.74603 0.0
C1565 C 0.43052 0.12872 0.69625 0.0
C1566 C 0.42651 0.11003 0.77877 0.0
C1567 C 0.42778 0.13717 0.77051 0.0
H1568 H 0.16493 0.83014 0.49846 0.0
H1569 H 0.18051 0.84751 0.36905 0.0
H1570 H 0.18522 0.89434 0.38544 0.0
H1571 H 0.17869 0.93076 0.43548 0.0
H1572 H 0.16572 0.91338 0.56534 0.0
H1573 H 0.16678 0.86613 0.55023 0.0
C1574 C 0.16994 0.84414 0.47395 0.0
C1575 C 0.1721 0.83534 0.43241 0.0
C1576 C 0.17305 0.87102 0.48381 0.0
C1577 C 0.17883 0.85369 0.40115 0.0
C1578 C 0.18135 0.8805 0.41055 0.0
C1579 C 0.17712 0.91658 0.46066 0.0
C1580 C 0.17242 0.92557 0.50161 0.0
C1581 C 0.17772 0.88947 0.45159 0.0
C1582 C 0.16994 0.90701 0.5338 0.0
C1583 C 0.17015 0.87998 0.52499 0.0
H1584 H 0.50088 0.83832 0.4363 0.0
H1585 H 0.5206 0.85518 0.56431 0.0
H1586 H 0.52168 0.90237 0.54822 0.0
H1587 H 0.52389 0.93807 0.49546 0.0
H1588 H 0.50284 0.92116 0.36771 0.0
H1589 H 0.49519 0.87484 0.38582 0.0
C1590 C 0.50424 0.85245 0.46099 0.0
C1591 C 0.51021 0.84328 0.50164 0.0
C1592 C 0.50527 0.87949 0.45123 0.0
C1593 C 0.51519 0.86172 0.53312 0.0
C1594 C 0.51631 0.88869 0.52368 0.0
C1595 C 0.5172 0.9243 0.47169 0.0
C1596 C 0.51436 0.93303 0.43005 0.0
C1597 C 0.51249 0.8977 0.48253 0.0
C1598 C 0.50525 0.91502 0.39982 0.0
C1599 C 0.50097 0.88849 0.41021 0.0
H1600 H 0.76246 0.58512 0.24769 0.0
H1601 H 0.75561 0.60069 0.11633 0.0
H1602 H 0.74972 0.64779 0.13063 0.0
H1603 H 0.75368 0.68495 0.18031 0.0
H1604 H 0.75857 0.669 0.31178 0.0
H1605 H 0.75731 0.62162 0.29793 0.0
C1606 C 0.75875 0.59869 0.22221 0.0
C1607 C 0.75942 0.58922 0.18088 0.0
C1608 C 0.75518 0.62573 0.23085 0.0
C1609 C 0.75483 0.60723 0.14831 0.0
C1610 C 0.75174 0.63425 0.15657 0.0
C1611 C 0.75338 0.67108 0.20603 0.0
C1612 C 0.75594 0.68062 0.24721 0.0
C1613 C 0.7528 0.64381 0.19765 0.0
C1614 C 0.75599 0.66237 0.28005 0.0
C1615 C 0.7557 0.63522 0.27198 0.0
H1616 H 0.41677 0.5885 0.16906 0.0
H1617 H 0.42032 0.60211 0.30104 0.0
H1618 H 0.42365 0.64961 0.28844 0.0
H1619 H 0.42017 0.68761 0.2397 0.0
H1620 H 0.42091 0.67385 0.10766 0.0
H1621 H 0.42165 0.62625 0.12021 0.0
C1622 C 0.41903 0.60185 0.19503 0.0
C1623 C 0.41832 0.59171 0.23603 0.0
C1624 C 0.42144 0.62918 0.18742 0.0
C1625 C 0.42118 0.60928 0.26929 0.0
C1626 C 0.42279 0.63651 0.26203 0.0
C1627 C 0.42117 0.67416 0.21369 0.0
C1628 C 0.42044 0.68432 0.1727 0.0
C1629 C 0.42219 0.64674 0.22125 0.0
C1630 C 0.42175 0.66664 0.13939 0.0
C1631 C 0.42193 0.63937 0.14663 0.0
H1632 H 0.17268 0.43136 0.92755 0.0
H1633 H 0.17253 0.41333 1.05855 0.0
H1634 H 0.17479 0.3662 1.04277 0.0
H1635 H 0.17101 0.33003 0.99131 0.0
H1636 H 0.17425 0.34807 0.86037 0.0
H1637 H 0.17695 0.39515 0.8763 0.0
C1638 C 0.17393 0.41711 0.95268 0.0
C1639 C 0.17249 0.42595 0.99432 0.0
C1640 C 0.17547 0.39 0.94323 0.0
C1641 C 0.174 0.40721 1.02641 0.0
C1642 C 0.17498 0.3802 1.01728 0.0
C1643 C 0.17297 0.34426 0.96625 0.0
C1644 C 0.17233 0.33546 0.92455 0.0
C1645 C 0.1749 0.37134 0.9758 0.0
C1646 C 0.17495 0.35417 0.89257 0.0
C1647 C 0.17625 0.38115 0.90176 0.0
H1648 H 0.50369 0.33433 0.94172 0.0
H1649 H 0.51878 0.34844 1.07187 0.0
H1650 H 0.51929 0.39599 1.05864 0.0
H1651 H 0.52209 0.43305 1.00823 0.0
H1652 H 0.50441 0.41907 0.87861 0.0
H1653 H 0.49792 0.3721 0.8933 0.0
C1654 C 0.5061 0.34789 0.9674 0.0
C1655 C 0.51096 0.33783 1.00788 0.0
C1656 C 0.50635 0.37522 0.95942 0.0
C1657 C 0.51444 0.35561 1.0407 0.0
C1658 C 0.51512 0.38282 1.03296 0.0
C1659 C 0.51615 0.41978 0.98334 0.0
C1660 C 0.51393 0.42957 0.94221 0.0
C1661 C 0.51208 0.3928 0.99222 0.0
C1662 C 0.50608 0.41216 0.91043 0.0
C1663 C 0.50258 0.38523 0.91885 0.0
H1664 H 0.22961 0.99572 1.00239 0.0
H1665 H 0.18633 0.94651 0.0928 0.0
H1666 H 0.15265 0.93079 1.03924 0.0
H1667 H 0.12765 0.94228 0.97474 0.0
H1668 H 0.16626 0.99843 0.89041 0.0
H1669 H 0.21092 0.99897 0.93196 0.0
C1670 C 0.21308 0.98119 1.01004 0.0
C1671 C 0.20898 0.97318 1.05122 0.0
C1672 C 0.19331 0.97338 0.97987 0.0
C1673 C 0.18877 0.9535 1.06112 0.0
C1674 C 0.16974 0.94449 1.0306 0.0
C1675 C 0.14638 0.95376 0.96473 0.0
C1676 C 0.14374 0.97125 0.93128 0.0
C1677 C 0.17048 0.95592 0.99084 0.0
C1678 C 0.16797 0.98551 0.91719 0.0
C1679 C 0.19325 0.98599 0.94109 0.0
H1680 H 0.05724 0.30992 0.99036 0.0
H1681 H 0.01991 0.24971 0.91286 0.0
H1682 H -0.02313 0.24763 0.95772 0.0
H1683 H 0.95632 0.25581 1.02607 0.0
H1684 H -0.00393 0.3126 0.10747 0.0
H1685 H 0.03241 0.32313 1.05398 0.0
C1686 C 0.03925 0.29692 0.98278 0.0
C1687 C 0.04166 0.27938 0.94967 0.0
C1688 C 0.01577 0.29469 1.00995 0.0
C1689 C 0.01834 0.26295 0.93905 0.0
C1690 C -0.00599 0.26161 0.96476 0.0
C1691 C -0.02712 0.27059 1.03189 0.0
C1692 C -0.02537 0.28281 1.07058 0.0
C1693 C -0.00642 0.2761 1.00162 0.0
C1694 C -0.0048 0.30258 1.07785 0.0
C1695 C 0.0157 0.30867 1.04737 0.0
H1696 H 0.22582 0.31358 0.38905 0.0
H1697 H 0.17558 0.30825 0.27612 0.0
H1698 H 0.13007 0.31051 0.31587 0.0
H1699 H 0.10702 0.29979 0.3827 0.0
H1700 H 0.1576 0.30321 0.49565 0.0
H1701 H 0.20094 0.31637 0.45617 0.0
C1702 C 0.20481 0.31417 0.3733 0.0
C1703 C 0.20338 0.30981 0.33056 0.0
C1704 C 0.17912 0.31438 0.39638 0.0
C1705 C 0.17664 0.31121 0.30944 0.0
C1706 C 0.15075 0.31215 0.33214 0.0
C1707 C 0.12743 0.30414 0.39849 0.0
C1708 C 0.13011 0.29953 0.44114 0.0
C1709 C 0.15198 0.31139 0.37566 0.0
C1710 C 0.15581 0.30607 0.46233 0.0
C1711 C 0.18042 0.31358 0.43988 0.0
H1712 H 0.95651 0.95325 0.39312 0.0
H1713 H 0.00899 0.95096 0.28192 0.0
H1714 H 0.0526 0.94116 0.32324 0.0
H1715 H 0.07602 0.94947 0.39032 0.0
H1716 H 0.02372 0.95545 0.50129 0.0
H1717 H -0.0206 0.94658 0.46119 0.0
C1718 C -0.02262 0.94949 0.37809 0.0
C1719 C -0.01956 0.95389 0.33542 0.0
C1720 C 0.00219 0.94493 0.40209 0.0
C1721 C 0.0068 0.9482 0.31521 0.0
C1722 C 0.03163 0.9428 0.33879 0.0
C1723 C 0.05496 0.94766 0.4057 0.0
C1724 C 0.05229 0.95413 0.44767 0.0
C1725 C 0.02983 0.94361 0.38227 0.0
C1726 C 0.02563 0.95104 0.46847 0.0
C1727 C 0.00041 0.94618 0.44556 0.0
H1728 H 0.80997 0.07536 0.17981 0.0
H1729 H 0.76613 0.02995 0.27451 0.0
H1730 H 0.721 0.03077 0.23397 0.0
H1731 H 0.70127 0.03125 0.16367 0.0
H1732 H 0.74877 0.06962 1.06477 0.0
H1733 H 0.78525 0.08503 0.11448 0.0
C1734 C 0.79016 0.06654 0.19211 0.0
C1735 C 0.79123 0.05153 0.22857 0.0
C1736 C 0.76538 0.06515 0.16713 0.0
C1737 C 0.76561 0.04086 0.2455 0.0
C1738 C 0.74 0.04115 0.22223 0.0
C1739 C 0.71931 0.04348 0.15332 0.0
C1740 C 0.72355 0.04834 0.11096 0.0
C1741 C 0.74069 0.051 0.18152 0.0
C1742 C 0.74603 0.06498 0.09745 0.0
C1743 C 0.76672 0.07382 0.12578 0.0
H1744 H -0.02117 0.72895 0.15902 0.0
H1745 H 0.92674 0.69332 1.06294 0.0
H1746 H 0.89174 0.67775 0.1152 0.0
H1747 H 0.86947 0.6879 0.18211 0.0
H1748 H 0.91762 0.73244 0.27281 0.0
H1749 H 0.96171 0.72939 0.23031 0.0
C1750 C 0.96004 0.71733 0.14978 0.0
C1751 C 0.95397 0.7134 0.10771 0.0
C1752 C 0.93963 0.7099 0.17941 0.0
C1753 C 0.9308 0.69727 0.0955 0.0
C1754 C 0.911 0.68836 0.12528 0.0
C1755 C 0.89002 0.69593 0.19318 0.0
C1756 C 0.89054 0.71144 0.22893 0.0
C1757 C 0.91403 0.69654 0.16665 0.0
C1758 C 0.917 0.72116 0.24433 0.0
C1759 C 0.94198 0.71963 0.21991 0.0
H1760 H 0.81643 0.69203 0.75082 0.0
H1761 H 0.7634 0.72422 0.65212 0.0
H1762 H 0.71916 0.7162 0.69261 0.0
H1763 H 0.6999 0.7161 0.76276 0.0
H1764 H 0.7547 0.69328 0.86581 0.0
H1765 H 0.79384 0.68084 0.81765 0.0
C1766 C 0.79499 0.69608 0.7377 0.0
C1767 C 0.79264 0.70942 0.69972 0.0
C1768 C 0.7702 0.69381 0.76273 0.0
C1769 C 0.76522 0.71447 0.68205 0.0
C1770 C 0.74009 0.71006 0.70526 0.0
C1771 C 0.72015 0.7076 0.77438 0.0
C1772 C 0.72549 0.70668 0.8171 0.0
C1773 C 0.74281 0.70232 0.74691 0.0
C1774 C 0.75088 0.69474 0.83263 0.0
C1775 C 0.77318 0.68779 0.80516 0.0
H1776 H 0.86575 0.07972 0.76028 0.0
H1777 H 0.91822 0.0479 0.66106 0.0
H1778 H 0.96186 0.05059 0.70444 0.0
H1779 H -0.0215 0.04513 0.7754 0.0
H1780 H 0.9232 0.0674 0.87785 0.0
H1781 H 0.88707 0.08562 0.82915 0.0
C1782 C 0.88703 0.07443 0.74783 0.0
C1783 C 0.88913 0.06232 0.709 0.0
C1784 C 0.91108 0.07347 0.77423 0.0
C1785 C 0.91646 0.05634 0.69184 0.0
C1786 C 0.94122 0.05771 0.71666 0.0
C1787 C 0.9588 0.0546 0.78687 0.0
C1788 C 0.95212 0.05381 0.82918 0.0
C1789 C 0.9379 0.06342 0.75893 0.0
C1790 C 0.92773 0.06713 0.84478 0.0
C1791 C 0.90727 0.0775 0.81705 0.0
H1792 H 0.23644 0.47674 0.51294 0.0
H1793 H 0.18715 0.44296 0.61406 0.0
H1794 H 0.14913 0.42892 0.56541 0.0
H1795 H 0.12412 0.44066 0.5009 0.0
H1796 H 0.1705 0.48251 0.40448 0.0
H1797 H 0.21612 0.47798 0.44328 0.0
C1798 C 0.21768 0.46565 0.52394 0.0
C1799 C 0.21326 0.46197 0.56652 0.0
C1800 C 0.19547 0.45932 0.49644 0.0
C1801 C 0.19004 0.44661 0.58109 0.0
C1802 C 0.16842 0.43871 0.55339 0.0
C1803 C 0.14449 0.44794 0.4879 0.0
C1804 C 0.14425 0.46307 0.45149 0.0
C1805 C 0.1698 0.44716 0.51184 0.0
C1806 C 0.17047 0.47165 0.43354 0.0
C1807 C 0.19639 0.46914 0.45572 0.0
H1808 H 0.06045 0.8097 0.49935 0.0
H1809 H 0.01909 0.74974 0.42578 0.0
H1810 H -0.02784 0.75866 0.45983 0.0
H1811 H 0.94633 0.77744 0.51873 0.0
H1812 H -0.00862 0.82924 0.60261 0.0
H1813 H 0.03353 0.83074 0.55549 0.0
C1814 C 0.04096 0.79896 0.49045 0.0
C1815 C 0.04272 0.77895 0.46097 0.0
C1816 C 0.01496 0.80301 0.51188 0.0
C1817 C 0.01781 0.76494 0.44918 0.0
C1818 C -0.00883 0.77012 0.4684 0.0
C1819 C 0.96507 0.78974 0.52576 0.0
C1820 C 0.96631 0.80328 0.56338 0.0
C1821 C -0.01011 0.78829 0.50096 0.0
C1822 C -0.00953 0.81881 0.57335 0.0
C1823 C 0.01446 0.81941 0.54676 0.0
H1824 H 0.22896 0.76514 0.89248 0.0
H1825 H 0.18355 0.81469 0.80427 0.0
H1826 H 0.14591 0.82427 0.8564 0.0
H1827 H 0.12207 0.81122 0.9211 0.0
H1828 H 0.16509 0.75708 1.00492 0.0
H1829 H 0.20872 0.75746 0.96107 0.0
C1830 C 0.21089 0.77819 0.88484 0.0
C1831 C 0.20796 0.78848 0.84471 0.0
C1832 C 0.18938 0.7829 0.9142 0.0
C1833 C 0.18539 0.80611 0.83507 0.0
C1834 C 0.16412 0.81163 0.86474 0.0
C1835 C 0.14136 0.80011 0.93022 0.0
C1836 C 0.14057 0.78354 0.965 0.0
C1837 C 0.16527 0.79909 0.90364 0.0
C1838 C 0.16546 0.76953 0.97748 0.0
C1839 C 0.19016 0.76961 0.9524 0.0
H1840 H 0.06076 0.44176 0.93198 0.0
H1841 H 0.01522 0.49042 1.02038 0.0
H1842 H -0.02861 0.48964 0.97708 0.0
H1843 H 0.95456 0.48885 0.90574 0.0
H1844 H 0.00446 0.44859 0.81173 0.0
H1845 H 0.03834 0.43211 0.86502 0.0
C1846 C 0.04078 0.45128 0.94235 0.0
C1847 C 0.04104 0.46716 0.97771 0.0
C1848 C 0.0171 0.45302 0.91539 0.0
C1849 C 0.01527 0.47882 0.99221 0.0
C1850 C -0.00954 0.47855 0.96736 0.0
C1851 C -0.02735 0.4761 0.89717 0.0
C1852 C -0.02148 0.47098 0.85537 0.0
C1853 C -0.00759 0.46807 0.92728 0.0
C1854 C 0.00066 0.4534 0.84406 0.0
C1855 C 0.01979 0.44399 0.8744 0.0
H1856 H 0.73852 0.55743 0.61737 0.0
H1857 H 0.71523 0.47795 0.65071 0.0
H1858 H 0.73758 0.48344 0.71907 0.0
H1859 H 0.77248 0.50726 0.76101 0.0
H1860 H 0.80221 0.58371 0.72192 0.0
H1861 H 0.7659 0.58446 0.66627 0.0
C1862 C 0.73844 0.54136 0.63968 0.0
C1863 C 0.72679 0.51697 0.629 0.0
C1864 C 0.75138 0.54462 0.67833 0.0
C1865 C 0.72536 0.49655 0.65829 0.0
C1866 C 0.73759 0.49981 0.69739 0.0
C1867 C 0.77009 0.52447 0.74119 0.0
C1868 C 0.7907 0.54459 0.74304 0.0
C1869 C 0.75183 0.52333 0.70683 0.0
C1870 C 0.78692 0.56756 0.71946 0.0
C1871 C 0.7667 0.56771 0.68719 0.0
H1872 H 0.94248 0.20504 0.6161 0.0
H1873 H -0.01351 0.27073 0.67265 0.0
H1874 H 0.95875 0.26435 0.73646 0.0
H1875 H 0.91358 0.24846 0.76663 0.0
H1876 H 0.86473 0.18747 0.70621 0.0
H1877 H 0.90377 0.182 0.65491 0.0
C1878 C 0.94617 0.21761 0.64273 0.0
C1879 C 0.96518 0.23901 0.63957 0.0
C1880 C 0.92957 0.21429 0.67876 0.0
C1881 C -0.02912 0.25477 0.67426 0.0
C1882 C 0.95535 0.25096 0.71081 0.0
C1883 C 0.9124 0.23308 0.74339 0.0
C1884 C 0.88648 0.21909 0.73852 0.0
C1885 C 0.93339 0.23193 0.71226 0.0
C1886 C 0.88471 0.19868 0.70961 0.0
C1887 C 0.90667 0.19601 0.67983 0.0
H1888 H 0.73469 0.20107 0.31512 0.0
H1889 H 0.68885 0.26034 0.244 0.0
H1890 H 0.71756 0.24984 0.1827 0.0
H1891 H 0.76546 0.2354 0.1596 0.0
H1892 H 0.81503 0.18032 0.23314 0.0
H1893 H 0.77448 0.17609 0.28221 0.0
C1894 C 0.73067 0.21112 0.28584 0.0
C1895 C 0.71137 0.2324 0.28413 0.0
C1896 C 0.74787 0.20556 0.2512 0.0
C1897 C 0.70497 0.24474 0.24608 0.0
C1898 C 0.72108 0.23858 0.21098 0.0
C1899 C 0.7665 0.22143 0.1852 0.0
C1900 C 0.7929 0.20913 0.19456 0.0
C1901 C 0.74419 0.22072 0.21442 0.0
C1902 C 0.79461 0.19037 0.22648 0.0
C1903 C 0.7717 0.18833 0.25481 0.0
H1904 H 0.87511 0.57697 0.25231 0.0
H1905 H 0.92129 0.53533 0.15593 0.0
H1906 H 0.96696 0.5394 0.19458 0.0
H1907 H -0.01282 0.53977 0.26431 0.0
H1908 H 0.93797 0.57313 0.36551 0.0
H1909 H 0.90011 0.58799 0.31686 0.0
C1910 C 0.89546 0.56968 0.23926 0.0
C1911 C 0.89515 0.55466 0.20299 0.0
C1912 C 0.92076 0.57006 0.26323 0.0
C1913 C 0.92132 0.54608 0.18493 0.0
C1914 C 0.94727 0.54831 0.20704 0.0
C1915 C -0.03154 0.55091 0.27535 0.0
C1916 C 0.96399 0.55424 0.31794 0.0
C1917 C 0.94636 0.55777 0.24783 0.0
C1918 C 0.94085 0.5697 0.33254 0.0
C1919 C 0.91935 0.57811 0.30483 0.0
H1920 H 0.73945 0.99508 0.50468 0.0
H1921 H 0.69676 0.94554 0.5952 0.0
H1922 H 0.6576 0.93625 0.54548 0.0
H1923 H 0.62969 0.95338 0.48654 0.0
H1924 H 0.66883 0.01014 0.4036 0.0
H1925 H 0.7157 1.00521 0.43927 0.0
C1926 C 0.72187 0.98175 0.51304 0.0
C1927 C 0.71975 0.97192 0.55355 0.0
C1928 C 0.69875 0.97824 0.48575 0.0
C1929 C 0.69795 0.95383 0.56416 0.0
C1930 C 0.67564 0.94867 0.53591 0.0
C1931 C 0.64878 0.96406 0.47572 0.0
C1932 C 0.6461 0.98281 0.44403 0.0
C1933 C 0.67474 0.96253 0.49812 0.0
C1934 C 0.67067 0.99621 0.42906 0.0
C1935 C 0.6973 0.99338 0.44934 0.0
H1936 H 0.44676 0.29962 0.52367 0.0
H1937 H 0.49926 0.325 0.62713 0.0
H1938 H 0.54068 0.33293 0.58038 0.0
H1939 H 0.56471 0.31798 0.51686 0.0
H1940 H 0.51353 0.28382 0.41826 0.0
H1941 H 0.46849 0.29412 0.45566 0.0
C1942 C 0.46708 0.30773 0.53551 0.0
C1943 C 0.47106 0.31063 0.57826 0.0
C1944 C 0.49102 0.3099 0.50935 0.0
C1945 C 0.49648 0.32211 0.59401 0.0
C1946 C 0.52009 0.32631 0.56743 0.0
C1947 C 0.54359 0.31341 0.50328 0.0
C1948 C 0.54193 0.29918 0.46626 0.0
C1949 C 0.51823 0.31789 0.52602 0.0
C1950 C 0.51487 0.29396 0.44775 0.0
C1951 C 0.48928 0.29994 0.46893 0.0
H1952 H 0.72252 0.31563 0.88695 0.0
H1953 H 0.66785 0.30363 0.77944 0.0
H1954 H 0.62424 0.31267 0.82064 0.0
H1955 H 0.6029 0.30852 0.88933 0.0
H1956 H 0.6573 0.31265 0.99837 0.0
H1957 H 0.69989 0.32311 0.95509 0.0
C1958 C 0.70106 0.31598 0.87249 0.0
C1959 C 0.69776 0.30799 0.8312 0.0
C1960 C 0.67618 0.31935 0.89697 0.0
C1961 C 0.67034 0.30895 0.81184 0.0
C1962 C 0.64554 0.31409 0.8353 0.0
C1963 C 0.62396 0.31271 0.90346 0.0
C1964 C 0.62786 0.30886 0.94605 0.0
C1965 C 0.64822 0.3169 0.87839 0.0
C1966 C 0.65446 0.31505 0.96512 0.0
C1967 C 0.67871 0.32077 0.9404 0.0
H1968 H 0.45863 0.96106 0.88466 0.0
H1969 H 0.50969 0.96257 0.77205 0.0
H1970 H 0.55439 0.95451 0.81198 0.0
H1971 H 0.57848 0.96088 0.87923 0.0
H1972 H 0.52748 0.96124 0.99188 0.0
H1973 H 0.48273 0.95389 0.95183 0.0
C1974 C 0.4795 0.95859 0.86899 0.0
C1975 C 0.48165 0.9633 0.82629 0.0
C1976 C 0.50485 0.95469 0.89217 0.0
C1977 C 0.50813 0.95942 0.80532 0.0
C1978 C 0.53357 0.95502 0.8281 0.0
C1979 C 0.5576 0.95835 0.89485 0.0
C1980 C 0.55547 0.9625 0.93762 0.0
C1981 C 0.53227 0.95477 0.87165 0.0
C1982 C 0.529 0.95852 0.95854 0.0
C1983 C 0.50355 0.9545 0.93572 0.0
H1984 H 0.19645 0.04207 0.65852 0.0
H1985 H 0.24694 0.0698 0.55399 0.0
H1986 H 0.2854 0.08496 0.60081 0.0
H1987 H 0.30976 0.07711 0.6667 0.0
H1988 H 0.26356 0.03888 0.76687 0.0
H1989 H 0.21778 0.04211 0.72789 0.0
C1990 C 0.21554 0.05215 0.64632 0.0
C1991 C 0.21983 0.05412 0.60341 0.0
C1992 C 0.23832 0.0587 0.67296 0.0
C1993 C 0.24404 0.06751 0.58725 0.0
C1994 C 0.26586 0.07616 0.61392 0.0
C1995 C 0.2894 0.07036 0.68043 0.0
C1996 C 0.2897 0.05687 0.71837 0.0
C1997 C 0.26419 0.06986 0.6563 0.0
C1998 C 0.26352 0.04867 0.73687 0.0
C1999 C 0.23752 0.05037 0.71453 0.0
H2000 H 0.37843 0.69486 0.67862 0.0
H2001 H 0.42398 0.74171 0.76886 0.0
H2002 H 0.4696 0.73673 0.73015 0.0
H2003 H 0.48979 0.73295 0.661 0.0
H2004 H 0.4404 0.69571 0.56365 0.0
H2005 H 0.40315 0.68223 0.61419 0.0
C2006 C 0.3988 0.70281 0.69047 0.0
C2007 C 0.39845 0.71898 0.72543 0.0
C2008 C 0.42384 0.70221 0.66583 0.0
C2009 C 0.42432 0.72946 0.74139 0.0
C2010 C 0.45015 0.72679 0.71913 0.0
C2011 C 0.47117 0.7213 0.6512 0.0
C2012 C 0.46658 0.71635 0.60904 0.0
C2013 C 0.44927 0.71546 0.67957 0.0
C2014 C 0.44347 0.70033 0.59621 0.0
C2015 C 0.42228 0.69274 0.62499 0.0
H2016 H 0.27074 0.75305 0.15617 0.0
H2017 H 0.318 0.68926 0.21349 0.0
H2018 H 0.28017 0.68513 0.26688 0.0
H2019 H 0.24352 0.70919 0.30769 0.0
H2020 H 0.20188 0.77786 0.25485 0.0
H2021 H 0.22802 0.77135 0.18973 0.0
C2022 C 0.27186 0.7375 0.17938 0.0
C2023 C 0.29716 0.72231 0.18277 0.0
C2024 C 0.25193 0.73723 0.2119 0.0
C2025 C 0.29863 0.7015 0.21136 0.0
C2026 C 0.27741 0.69959 0.24233 0.0
C2027 C 0.24012 0.72252 0.2817 0.0
C2028 C 0.22209 0.74457 0.2861 0.0
C2029 C 0.25568 0.71901 0.24491 0.0
C2030 C 0.21673 0.76133 0.25222 0.0
C2031 C 0.23128 0.75742 0.21494 0.0
H2032 H 0.44651 0.06712 0.30911 0.0
H2033 H 0.48647 1.00071 0.24829 0.0
H2034 H 0.45495 1.0069 0.18812 0.0
H2035 H 0.4081 0.02292 0.16365 0.0
H2036 H 0.36401 0.08537 0.2286 0.0
H2037 H 0.40591 0.09031 0.27508 0.0
C2038 C 0.44854 0.05443 0.28224 0.0
C2039 C 0.46729 0.03279 0.28337 0.0
C2040 C 0.42975 0.05756 0.24855 0.0
C2041 C 0.47098 0.01685 0.2483 0.0
C2042 C 0.45325 0.0205 0.21385 0.0
C2043 C 0.40825 0.03817 0.18714 0.0
C2044 C 0.38307 0.05283 0.19472 0.0
C2045 C 0.43124 0.03954 0.21512 0.0
C2046 C 0.38329 0.07336 0.22358 0.0
C2047 C 0.40701 0.07599 0.25029 0.0
H2048 H 0.62871 0.44446 0.99443 0.0
H2049 H 0.67198 0.49563 0.90696 0.0
H2050 H 0.71752 0.49199 0.94627 0.0
H2051 H 0.73822 0.48633 1.01484 0.0
H2052 H 0.69126 0.44349 0.10945 0.0
H2053 H 0.65399 0.43108 1.05836 0.0
C2054 C 0.64858 0.45381 0.98334 0.0
C2055 C 0.64751 0.4707 0.94899 0.0
C2056 C 0.67354 0.45365 1.00818 0.0
C2057 C 0.67281 0.48288 0.93404 0.0
C2058 C 0.6986 0.48093 0.95658 0.0
C2059 C 0.72009 0.47379 1.02393 0.0
C2060 C 0.71625 0.46675 1.06558 0.0
C2061 C 0.69825 0.46834 0.99538 0.0
C2062 C 0.69376 0.44965 1.07736 0.0
C2063 C 0.67258 0.44266 1.04828 0.0
H2064 H 0.57223 0.82114 1.00883 0.0
H2065 H 0.51829 0.79503 0.90717 0.0
H2066 H 0.4742 0.80356 0.94816 0.0
H2067 H 0.45368 0.80498 1.01794 0.0
H2068 H 0.51006 0.81868 0.12302 0.0
H2069 H 0.55064 0.82926 1.07629 0.0
C2070 C 0.55073 0.81808 0.99536 0.0
C2071 C 0.54802 0.80671 0.95609 0.0
C2072 C 0.52611 0.82049 1.02031 0.0
C2073 C 0.52044 0.80319 0.93807 0.0
C2074 C 0.49541 0.80797 0.96148 0.0
C2075 C 0.47467 0.81114 1.03031 0.0
C2076 C 0.47966 0.81054 1.07317 0.0
C2077 C 0.49825 0.81453 1.00357 0.0
C2078 C 0.50645 0.81858 0.08971 0.0
C2079 C 0.52947 0.82454 1.06311 0.0
H2080 H 0.61659 0.82626 0.40313 0.0
H2081 H 0.66976 0.79712 0.50423 0.0
H2082 H 0.71396 0.8046 0.46334 0.0
H2083 H 0.73349 0.80393 0.39334 0.0
H2084 H 0.67873 0.82404 0.28889 0.0
H2085 H 0.63912 0.83663 0.33619 0.0
C2086 C 0.63799 0.82239 0.41651 0.0
C2087 C 0.64038 0.80999 0.4553 0.0
C2088 C 0.66279 0.82479 0.39176 0.0
C2089 C 0.66781 0.8058 0.47352 0.0
C2090 C 0.69294 0.81005 0.45021 0.0
C2091 C 0.71314 0.81192 0.38122 0.0
C2092 C 0.70791 0.812 0.33847 0.0
C2093 C 0.69024 0.81709 0.40823 0.0
C2094 C 0.68243 0.82329 0.32215 0.0
C2095 C 0.65988 0.83025 0.34912 0.0
H2096 H 0.46146 0.5284 0.39136 0.0
H2097 H 0.48838 0.45537 0.33536 0.0
H2098 H 0.52346 0.44798 0.3918 0.0
H2099 H 0.55127 0.4662 0.44945 0.0
H2100 H 0.52853 0.54226 0.4985 0.0
H2101 H 0.4855 0.54416 0.45346 0.0
C2102 C 0.47492 0.5108 0.39171 0.0
C2103 C 0.47335 0.49277 0.35924 0.0
C2104 C 0.49518 0.50716 0.42323 0.0
C2105 C 0.49011 0.46972 0.35999 0.0
C2106 C 0.50985 0.46544 0.39221 0.0
C2107 C 0.53628 0.48274 0.45104 0.0
C2108 C 0.54272 0.50426 0.47613 0.0
C2109 C 0.51324 0.48453 0.42305 0.0
C2110 C 0.52363 0.5257 0.47863 0.0
C2111 C 0.49938 0.52688 0.45278 0.0
H2112 H 0.30917 0.57546 0.18117 0.0
H2113 H 0.26141 0.52947 0.27097 0.0
H2114 H 0.21793 0.53085 0.22693 0.0
H2115 H 0.20134 0.53158 0.15558 0.0
H2116 H 0.25316 0.56885 1.06022 0.0
H2117 H 0.28745 0.58477 0.11307 0.0
C2118 C 0.28866 0.56696 0.19167 0.0
C2119 C 0.28798 0.55197 0.22816 0.0
C2120 C 0.26516 0.56538 0.16426 0.0
C2121 C 0.2619 0.54085 0.2424 0.0
C2122 C 0.23735 0.54137 0.21705 0.0
C2123 C 0.21993 0.54359 0.14659 0.0
C2124 C 0.22606 0.54805 0.1046 0.0
C2125 C 0.23988 0.55129 0.17653 0.0
C2126 C 0.24901 0.5646 0.09273 0.0
C2127 C 0.26841 0.57367 0.12282 0.0
H2128 H 0.37306 0.19197 0.17672 0.0
H2129 H 0.42027 0.23295 0.27251 0.0
H2130 H 0.46615 0.22623 0.23492 0.0
H2131 H 0.48779 0.22264 0.16593 0.0
H2132 H 0.4364 0.19272 1.06434 0.0
H2133 H 0.39738 0.18036 0.1125 0.0
C2134 C 0.3936 0.19865 0.18987 0.0
C2135 C 0.39364 0.21388 0.22589 0.0
C2136 C 0.41898 0.19704 0.16627 0.0
C2137 C 0.42005 0.22186 0.24384 0.0
C2138 C 0.44612 0.21814 0.2223 0.0
C2139 C 0.4684 0.21259 0.15481 0.0
C2140 C 0.46401 0.20927 0.11217 0.0
C2141 C 0.44524 0.20796 0.18191 0.0
C2142 C 0.43939 0.196 0.09734 0.0
C2143 C 0.41723 0.189 0.12476 0.0
H2144 H 0.31118 0.18818 0.73304 0.0
H2145 H 0.26338 0.2358 0.645 0.0
H2146 H 0.21951 0.23268 0.68792 0.0
H2147 H 0.20331 0.23167 0.75961 0.0
H2148 H 0.25549 0.19315 0.85356 0.0
H2149 H 0.28931 0.17732 0.80005 0.0
C2150 C 0.2907 0.19682 0.72257 0.0
C2151 C 0.29027 0.21325 0.68761 0.0
C2152 C 0.26696 0.19751 0.7496 0.0
C2153 C 0.26391 0.22378 0.6729 0.0
C2154 C 0.23908 0.22224 0.69762 0.0
C2155 C 0.22185 0.21938 0.76811 0.0
C2156 C 0.2284 0.21472 0.80992 0.0
C2157 C 0.24161 0.21176 0.73779 0.0
C2158 C 0.25116 0.1977 0.82119 0.0
C2159 C 0.27027 0.18862 0.79071 0.0
H2160 H 0.44866 0.56036 0.82767 0.0
H2161 H 0.48656 0.49245 0.76829 0.0
H2162 H 0.45773 0.50091 0.7059 0.0
H2163 H 0.41524 0.5218 0.67544 0.0
H2164 H 0.37188 0.58511 0.73946 0.0
H2165 H 0.41077 0.58577 0.79162 0.0
C2166 C 0.45063 0.54761 0.80086 0.0
C2167 C 0.46852 0.52536 0.80256 0.0
C2168 C 0.43352 0.55218 0.76581 0.0
C2169 C 0.4719 0.50921 0.7677 0.0
C2170 C 0.45579 0.5142 0.732 0.0
C2171 C 0.41489 0.53628 0.70011 0.0
C2172 C 0.39061 0.55259 0.70519 0.0
C2173 C 0.43557 0.53485 0.7316 0.0
C2174 C 0.39037 0.57193 0.73604 0.0
C2175 C 0.41228 0.57205 0.76605 0.0
loop_
_geom_bond_atom_site_label_1
_geom_bond_atom_site_label_2
_geom_bond_distance
_geom_bond_site_symmetry_2
_ccdc_geom_bond_type
Tb0 O3 2.453 . S
Tb0 O4 2.596 . S
Tb0 O5 2.374 1_565 S
Tb0 O13 2.342 1_565 S
Tb0 O15 2.353 . S
Tb0 O17 2.427 . S
Tb0 O18 2.513 1_565 S
C1 O5 1.251 . S
C1 O7 1.263 . S
Tb2 O4 2.343 1_545 S
Tb2 O7 2.353 . S
Tb2 O10 2.427 . S
Tb2 O11 2.513 1_545 S
Tb2 O12 2.453 . S
Tb2 O13 2.597 . S
Tb2 O14 2.374 1_545 S
O3 Tb0 2.453 . S
O3 C19 1.245 . S
O4 Tb0 2.596 . S
O4 Tb2 2.343 1_565 S
O4 C19 1.260 . S
O5 Tb0 2.374 1_545 S
O5 C1 1.251 . S
C6 O10 1.275 . S
C6 O11 1.246 1_545 S
O7 C1 1.263 . S
O7 Tb2 2.353 . S
C8 O12 1.245 . S
C8 O13 1.260 . S
C9 O14 1.250 . S
C9 O15 1.263 . S
O10 Tb2 2.427 . S
O10 C6 1.275 . S
O11 Tb2 2.513 1_565 S
O11 C6 1.246 1_565 S
O12 Tb2 2.453 . S
O12 C8 1.245 . S
O13 Tb0 2.342 1_545 S
O13 Tb2 2.597 . S
O13 C8 1.260 . S
O14 Tb2 2.374 1_565 S
O14 C9 1.250 . S
O15 Tb0 2.353 . S
O15 C9 1.263 . S
C16 O17 1.275 1_556 S
C16 O18 1.246 1_566 S
O17 Tb0 2.427 . S
O17 C16 1.275 1_554 S
O18 Tb0 2.513 1_545 S
O18 C16 1.246 1_544 S
C19 O3 1.245 . S
C19 O4 1.260 . S
Tb20 O23 2.453 . S
Tb20 O24 2.596 . S
Tb20 O25 2.374 . S
Tb20 O33 2.343 . S
Tb20 O35 2.353 . S
Tb20 O37 2.427 . S
Tb20 O38 2.513 . S
C21 O25 1.251 . S
C21 O27 1.263 . S
Tb22 O24 2.343 . S
Tb22 O27 2.353 . S
Tb22 O30 2.427 . S
Tb22 O31 2.513 . S
Tb22 O32 2.453 . S
Tb22 O33 2.596 . S
Tb22 O34 2.374 . S
O23 Tb20 2.453 . S
O23 C39 1.245 . S
O24 Tb20 2.596 . S
O24 Tb22 2.343 . S
O24 C39 1.259 . S
O25 Tb20 2.374 . S
O25 C21 1.251 . S
C26 O30 1.275 . S
C26 O31 1.246 . S
O27 C21 1.263 . S
O27 Tb22 2.353 . S
C28 O32 1.245 . S
C28 O33 1.259 . S
C29 O34 1.250 . S
C29 O35 1.263 . S
O30 Tb22 2.427 . S
O30 C26 1.275 . S
O31 Tb22 2.513 . S
O31 C26 1.246 . S
O32 Tb22 2.453 . S
O32 C28 1.245 . S
O33 Tb20 2.343 . S
O33 Tb22 2.596 . S
O33 C28 1.259 . S
O34 Tb22 2.374 . S
O34 C29 1.250 . S
O35 Tb20 2.353 . S
O35 C29 1.263 . S
C36 O37 1.275 1_556 S
C36 O38 1.246 1_556 S
O37 Tb20 2.427 . S
O37 C36 1.275 1_554 S
O38 Tb20 2.513 . S
O38 C36 1.246 1_554 S
C39 O23 1.245 . S
C39 O24 1.259 . S
Tb40 O43 2.453 . S
Tb40 O44 2.596 . S
Tb40 O45 2.374 . S
Tb40 O53 2.343 . S
Tb40 O55 2.353 . S
Tb40 O57 2.427 . S
Tb40 O58 2.513 . S
C41 O45 1.251 . S
C41 O47 1.263 . S
Tb42 O44 2.343 . S
Tb42 O47 2.353 . S
Tb42 O50 2.427 . S
Tb42 O51 2.513 . S
Tb42 O52 2.453 . S
Tb42 O53 2.596 . S
Tb42 O54 2.374 . S
O43 Tb40 2.453 . S
O43 C59 1.245 . S
O44 Tb40 2.596 . S
O44 Tb42 2.343 . S
O44 C59 1.259 . S
O45 Tb40 2.374 . S
O45 C41 1.251 . S
C46 O50 1.275 . S
C46 O51 1.246 . S
O47 C41 1.263 . S
O47 Tb42 2.353 . S
C48 O52 1.245 . S
C48 O53 1.259 . S
C49 O54 1.250 . S
C49 O55 1.263 . S
O50 Tb42 2.427 . S
O50 C46 1.275 . S
O51 Tb42 2.513 . S
O51 C46 1.246 . S
O52 Tb42 2.453 . S
O52 C48 1.245 . S
O53 Tb40 2.343 . S
O53 Tb42 2.596 . S
O53 C48 1.259 . S
O54 Tb42 2.374 . S
O54 C49 1.250 . S
O55 Tb40 2.353 . S
O55 C49 1.263 . S
C56 O57 1.275 . S
C56 O58 1.246 . S
O57 Tb40 2.427 . S
O57 C56 1.275 . S
O58 Tb40 2.513 . S
O58 C56 1.246 . S
C59 O43 1.245 . S
C59 O44 1.259 . S
Tb60 O63 2.453 . S
Tb60 O64 2.596 . S
Tb60 O65 2.374 1_565 S
Tb60 O73 2.342 1_565 S
Tb60 O75 2.353 . S
Tb60 O77 2.427 . S
Tb60 O78 2.513 1_565 S
C61 O65 1.251 . S
C61 O67 1.263 . S
Tb62 O64 2.343 1_545 S
Tb62 O67 2.353 . S
Tb62 O70 2.427 . S
Tb62 O71 2.513 1_545 S
Tb62 O72 2.453 . S
Tb62 O73 2.597 . S
Tb62 O74 2.374 1_545 S
O63 Tb60 2.453 . S
O63 C79 1.245 . S
O64 Tb60 2.596 . S
O64 Tb62 2.343 1_565 S
O64 C79 1.260 . S
O65 Tb60 2.374 1_545 S
O65 C61 1.251 . S
C66 O70 1.275 . S
C66 O71 1.246 1_545 S
O67 C61 1.263 . S
O67 Tb62 2.353 . S
C68 O72 1.245 . S
C68 O73 1.260 . S
C69 O74 1.250 . S
C69 O75 1.263 . S
O70 Tb62 2.427 . S
O70 C66 1.275 . S
O71 Tb62 2.513 1_565 S
O71 C66 1.246 1_565 S
O72 Tb62 2.453 . S
O72 C68 1.245 . S
O73 Tb60 2.342 1_545 S
O73 Tb62 2.597 . S
O73 C68 1.260 . S
O74 Tb62 2.374 1_565 S
O74 C69 1.250 . S
O75 Tb60 2.353 . S
O75 C69 1.263 . S
C76 O77 1.275 . S
C76 O78 1.246 1_565 S
O77 Tb60 2.427 . S
O77 C76 1.275 . S
O78 Tb60 2.513 1_545 S
O78 C76 1.246 1_545 S
C79 O63 1.245 . S
C79 O64 1.260 . S
Tb80 O83 2.453 . S
Tb80 O84 2.597 . S
Tb80 O85 2.374 1_565 S
Tb80 O93 2.343 1_565 S
Tb80 O95 2.353 . S
Tb80 O97 2.427 . S
Tb80 O98 2.513 1_565 S
C81 O85 1.251 . S
C81 O87 1.263 . S
Tb82 O84 2.342 1_545 S
Tb82 O87 2.353 . S
Tb82 O90 2.427 . S
Tb82 O91 2.513 1_545 S
Tb82 O92 2.453 . S
Tb82 O93 2.596 . S
Tb82 O94 2.374 1_545 S
O83 Tb80 2.453 . S
O83 C99 1.245 . S
O84 Tb80 2.597 . S
O84 Tb82 2.342 1_565 S
O84 C99 1.260 . S
O85 Tb80 2.374 1_545 S
O85 C81 1.251 . S
C86 O90 1.275 1_554 S
C86 O91 1.246 1_544 S
O87 C81 1.263 . S
O87 Tb82 2.353 . S
C88 O92 1.245 . S
C88 O93 1.260 . S
C89 O94 1.250 . S
C89 O95 1.263 . S
O90 Tb82 2.427 . S
O90 C86 1.275 1_556 S
O91 Tb82 2.513 1_565 S
O91 C86 1.246 1_566 S
O92 Tb82 2.453 . S
O92 C88 1.245 . S
O93 Tb80 2.343 1_545 S
O93 Tb82 2.596 . S
O93 C88 1.260 . S
O94 Tb82 2.374 1_565 S
O94 C89 1.250 . S
O95 Tb80 2.353 . S
O95 C89 1.263 . S
C96 O97 1.275 . S
C96 O98 1.246 1_565 S
O97 Tb80 2.427 . S
O97 C96 1.275 . S
O98 Tb80 2.513 1_545 S
O98 C96 1.246 1_545 S
C99 O83 1.245 . S
C99 O84 1.260 . S
Tb100 O103 2.453 . S
Tb100 O104 2.596 . S
Tb100 O105 2.374 . S
Tb100 O113 2.343 . S
Tb100 O115 2.353 . S
Tb100 O117 2.427 . S
Tb100 O118 2.513 . S
C101 O105 1.251 . S
C101 O107 1.263 . S
Tb102 O104 2.343 . S
Tb102 O107 2.353 . S
Tb102 O110 2.427 . S
Tb102 O111 2.513 . S
Tb102 O112 2.453 . S
Tb102 O113 2.596 . S
Tb102 O114 2.374 . S
O103 Tb100 2.453 . S
O103 C119 1.245 . S
O104 Tb100 2.596 . S
O104 Tb102 2.343 . S
O104 C119 1.259 . S
O105 Tb100 2.374 . S
O105 C101 1.251 . S
C106 O110 1.275 1_554 S
C106 O111 1.246 1_554 S
O107 C101 1.263 . S
O107 Tb102 2.353 . S
C108 O112 1.245 . S
C108 O113 1.259 . S
C109 O114 1.250 . S
C109 O115 1.263 . S
O110 Tb102 2.427 . S
O110 C106 1.275 1_556 S
O111 Tb102 2.513 . S
O111 C106 1.246 1_556 S
O112 Tb102 2.453 . S
O112 C108 1.245 . S
O113 Tb100 2.343 . S
O113 Tb102 2.596 . S
O113 C108 1.259 . S
O114 Tb102 2.374 . S
O114 C109 1.250 . S
O115 Tb100 2.353 . S
O115 C109 1.263 . S
C116 O117 1.275 . S
C116 O118 1.246 . S
O117 Tb100 2.427 . S
O117 C116 1.275 . S
O118 Tb100 2.513 . S
O118 C116 1.246 . S
C119 O103 1.245 . S
C119 O104 1.259 . S
Tb120 O123 2.453 . S
Tb120 O124 2.596 . S
Tb120 O125 2.374 . S
Tb120 O133 2.343 . S
Tb120 O135 2.353 . S
Tb120 O137 2.427 . S
Tb120 O138 2.513 . S
C121 O125 1.251 . S
C121 O127 1.263 . S
Tb122 O124 2.343 . S
Tb122 O127 2.353 . S
Tb122 O130 2.427 . S
Tb122 O131 2.513 . S
Tb122 O132 2.453 . S
Tb122 O133 2.596 . S
Tb122 O134 2.374 . S
O123 Tb120 2.453 . S
O123 C139 1.245 . S
O124 Tb120 2.596 . S
O124 Tb122 2.343 . S
O124 C139 1.259 . S
O125 Tb120 2.374 . S
O125 C121 1.251 . S
C126 O130 1.275 . S
C126 O131 1.246 . S
O127 C121 1.263 . S
O127 Tb122 2.353 . S
C128 O132 1.245 . S
C128 O133 1.259 . S
C129 O134 1.250 . S
C129 O135 1.263 . S
O130 Tb122 2.427 . S
O130 C126 1.275 . S
O131 Tb122 2.513 . S
O131 C126 1.246 . S
O132 Tb122 2.453 . S
O132 C128 1.245 . S
O133 Tb120 2.343 . S
O133 Tb122 2.596 . S
O133 C128 1.259 . S
O134 Tb122 2.374 . S
O134 C129 1.250 . S
O135 Tb120 2.353 . S
O135 C129 1.263 . S
C136 O137 1.275 . S
C136 O138 1.246 . S
O137 Tb120 2.427 . S
O137 C136 1.275 . S
O138 Tb120 2.513 . S
O138 C136 1.246 . S
C139 O123 1.245 . S
C139 O124 1.259 . S
Tb140 O143 2.453 . S
Tb140 O144 2.597 . S
Tb140 O145 2.374 1_565 S
Tb140 O153 2.343 1_565 S
Tb140 O155 2.353 . S
Tb140 O157 2.427 . S
Tb140 O158 2.513 1_565 S
C141 O145 1.251 . S
C141 O147 1.263 . S
Tb142 O144 2.342 1_545 S
Tb142 O147 2.353 . S
Tb142 O150 2.427 . S
Tb142 O151 2.513 1_545 S
Tb142 O152 2.453 . S
Tb142 O153 2.596 . S
Tb142 O154 2.374 1_545 S
O143 Tb140 2.453 . S
O143 C159 1.245 . S
O144 Tb140 2.597 . S
O144 Tb142 2.342 1_565 S
O144 C159 1.260 . S
O145 Tb140 2.374 1_545 S
O145 C141 1.251 . S
C146 O150 1.275 . S
C146 O151 1.246 1_545 S
O147 C141 1.263 . S
O147 Tb142 2.353 . S
C148 O152 1.245 . S
C148 O153 1.260 . S
C149 O154 1.250 . S
C149 O155 1.263 . S
O150 Tb142 2.427 . S
O150 C146 1.275 . S
O151 Tb142 2.513 1_565 S
O151 C146 1.246 1_565 S
O152 Tb142 2.453 . S
O152 C148 1.245 . S
O153 Tb140 2.343 1_545 S
O153 Tb142 2.596 . S
O153 C148 1.260 . S
O154 Tb142 2.374 1_565 S
O154 C149 1.250 . S
O155 Tb140 2.353 . S
O155 C149 1.263 . S
C156 O157 1.275 . S
C156 O158 1.246 1_565 S
O157 Tb140 2.427 . S
O157 C156 1.275 . S
O158 Tb140 2.513 1_545 S
O158 C156 1.246 1_545 S
C159 O143 1.245 . S
C159 O144 1.260 . S
Tb160 O163 2.453 . S
Tb160 O164 2.596 . S
Tb160 O165 2.374 . S
Tb160 O173 2.343 . S
Tb160 O175 2.353 . S
Tb160 O177 2.427 . S
Tb160 O178 2.513 . S
C161 O165 1.251 . S
C161 O167 1.263 . S
Tb162 O164 2.343 . S
Tb162 O167 2.353 . S
Tb162 O170 2.427 . S
Tb162 O171 2.513 . S
Tb162 O172 2.453 . S
Tb162 O173 2.596 . S
Tb162 O174 2.374 . S
O163 Tb160 2.453 . S
O163 C179 1.245 . S
O164 Tb160 2.596 . S
O164 Tb162 2.343 . S
O164 C179 1.259 . S
O165 Tb160 2.374 . S
O165 C161 1.251 . S
C166 O170 1.275 . S
C166 O171 1.246 . S
O167 C161 1.263 . S
O167 Tb162 2.353 . S
C168 O172 1.245 . S
C168 O173 1.259 . S
C169 O174 1.250 . S
C169 O175 1.263 . S
O170 Tb162 2.427 . S
O170 C166 1.275 . S
O171 Tb162 2.513 . S
O171 C166 1.246 . S
O172 Tb162 2.453 . S
O172 C168 1.245 . S
O173 Tb160 2.343 . S
O173 Tb162 2.596 . S
O173 C168 1.259 . S
O174 Tb162 2.374 . S
O174 C169 1.250 . S
O175 Tb160 2.353 . S
O175 C169 1.263 . S
C176 O177 1.275 . S
C176 O178 1.246 . S
O177 Tb160 2.427 . S
O177 C176 1.275 . S
O178 Tb160 2.513 . S
O178 C176 1.246 . S
C179 O163 1.245 . S
C179 O164 1.259 . S
Tb180 O183 2.453 . S
Tb180 O184 2.596 . S
Tb180 O185 2.374 . S
Tb180 O193 2.343 . S
Tb180 O195 2.353 . S
Tb180 O197 2.427 . S
Tb180 O198 2.513 . S
C181 O185 1.251 . S
C181 O187 1.263 . S
Tb182 O184 2.343 . S
Tb182 O187 2.353 . S
Tb182 O190 2.427 . S
Tb182 O191 2.513 . S
Tb182 O192 2.453 . S
Tb182 O193 2.596 . S
Tb182 O194 2.374 . S
O183 Tb180 2.453 . S
O183 C199 1.245 . S
O184 Tb180 2.596 . S
O184 Tb182 2.343 . S
O184 C199 1.259 . S
O185 Tb180 2.374 . S
O185 C181 1.251 . S
C186 O190 1.275 . S
C186 O191 1.246 . S
O187 C181 1.263 . S
O187 Tb182 2.353 . S
C188 O192 1.245 . S
C188 O193 1.259 . S
C189 O194 1.250 . S
C189 O195 1.263 . S
O190 Tb182 2.427 . S
O190 C186 1.275 . S
O191 Tb182 2.513 . S
O191 C186 1.246 . S
O192 Tb182 2.453 . S
O192 C188 1.245 . S
O193 Tb180 2.343 . S
O193 Tb182 2.596 . S
O193 C188 1.259 . S
O194 Tb182 2.374 . S
O194 C189 1.250 . S
O195 Tb180 2.353 . S
O195 C189 1.263 . S
C196 O197 1.275 . S
C196 O198 1.246 . S
O197 Tb180 2.427 . S
O197 C196 1.275 . S
O198 Tb180 2.513 . S
O198 C196 1.246 . S
C199 O183 1.245 . S
C199 O184 1.259 . S
Tb200 O203 2.453 . S
Tb200 O204 2.596 . S
Tb200 O205 2.374 . S
Tb200 O213 2.343 . S
Tb200 O215 2.353 . S
Tb200 O217 2.427 . S
Tb200 O218 2.513 . S
C201 O205 1.251 . S
C201 O207 1.263 . S
Tb202 O204 2.343 . S
Tb202 O207 2.353 . S
Tb202 O210 2.427 . S
Tb202 O211 2.513 . S
Tb202 O212 2.453 . S
Tb202 O213 2.596 . S
Tb202 O214 2.374 . S
O203 Tb200 2.453 . S
O203 C219 1.245 . S
O204 Tb200 2.596 . S
O204 Tb202 2.343 . S
O204 C219 1.259 . S
O205 Tb200 2.374 . S
O205 C201 1.251 . S
C206 O210 1.275 . S
C206 O211 1.246 . S
O207 C201 1.263 . S
O207 Tb202 2.353 . S
C208 O212 1.245 . S
C208 O213 1.259 . S
C209 O214 1.250 . S
C209 O215 1.263 . S
O210 Tb202 2.427 . S
O210 C206 1.275 . S
O211 Tb202 2.513 . S
O211 C206 1.246 . S
O212 Tb202 2.453 . S
O212 C208 1.245 . S
O213 Tb200 2.343 . S
O213 Tb202 2.596 . S
O213 C208 1.259 . S
O214 Tb202 2.374 . S
O214 C209 1.250 . S
O215 Tb200 2.353 . S
O215 C209 1.263 . S
C216 O217 1.275 . S
C216 O218 1.246 . S
O217 Tb200 2.427 . S
O217 C216 1.275 . S
O218 Tb200 2.513 . S
O218 C216 1.246 . S
C219 O203 1.245 . S
C219 O204 1.259 . S
Tb220 O223 2.453 . S
Tb220 O224 2.596 . S
Tb220 O225 2.374 . S
Tb220 O233 2.343 . S
Tb220 O235 2.353 . S
Tb220 O237 2.427 . S
Tb220 O238 2.513 . S
C221 O225 1.251 . S
C221 O227 1.263 . S
Tb222 O224 2.343 . S
Tb222 O227 2.353 . S
Tb222 O230 2.427 . S
Tb222 O231 2.513 . S
Tb222 O232 2.453 . S
Tb222 O233 2.596 . S
Tb222 O234 2.374 . S
O223 Tb220 2.453 . S
O223 C239 1.245 . S
O224 Tb220 2.596 . S
O224 Tb222 2.343 . S
O224 C239 1.259 . S
O225 Tb220 2.374 . S
O225 C221 1.251 . S
C226 O230 1.275 . S
C226 O231 1.246 . S
O227 C221 1.263 . S
O227 Tb222 2.353 . S
C228 O232 1.245 . S
C228 O233 1.259 . S
C229 O234 1.250 . S
C229 O235 1.263 . S
O230 Tb222 2.427 . S
O230 C226 1.275 . S
O231 Tb222 2.513 . S
O231 C226 1.246 . S
O232 Tb222 2.453 . S
O232 C228 1.245 . S
O233 Tb220 2.343 . S
O233 Tb222 2.596 . S
O233 C228 1.259 . S
O234 Tb222 2.374 . S
O234 C229 1.250 . S
O235 Tb220 2.353 . S
O235 C229 1.263 . S
C236 O237 1.275 . S
C236 O238 1.246 . S
O237 Tb220 2.427 . S
O237 C236 1.275 . S
O238 Tb220 2.513 . S
O238 C236 1.246 . S
C239 O223 1.245 . S
C239 O224 1.259 . S
Tb240 O243 2.453 . S
Tb240 O244 2.596 . S
Tb240 O245 2.374 . S
Tb240 O253 2.343 . S
Tb240 O255 2.353 . S
Tb240 O257 2.427 . S
Tb240 O258 2.513 . S
C241 O245 1.251 . S
C241 O247 1.263 . S
Tb242 O244 2.343 . S
Tb242 O247 2.353 . S
Tb242 O250 2.427 . S
Tb242 O251 2.513 . S
Tb242 O252 2.453 . S
Tb242 O253 2.596 . S
Tb242 O254 2.374 . S
O243 Tb240 2.453 . S
O243 C259 1.245 . S
O244 Tb240 2.596 . S
O244 Tb242 2.343 . S
O244 C259 1.259 . S
O245 Tb240 2.374 . S
O245 C241 1.251 . S
C246 O250 1.275 . S
C246 O251 1.246 . S
O247 C241 1.263 . S
O247 Tb242 2.353 . S
C248 O252 1.245 . S
C248 O253 1.259 . S
C249 O254 1.250 . S
C249 O255 1.263 . S
O250 Tb242 2.427 . S
O250 C246 1.275 . S
O251 Tb242 2.513 . S
O251 C246 1.246 . S
O252 Tb242 2.453 . S
O252 C248 1.245 . S
O253 Tb240 2.343 . S
O253 Tb242 2.596 . S
O253 C248 1.259 . S
O254 Tb242 2.374 . S
O254 C249 1.250 . S
O255 Tb240 2.353 . S
O255 C249 1.263 . S
C256 O257 1.275 . S
C256 O258 1.246 . S
O257 Tb240 2.427 . S
O257 C256 1.275 . S
O258 Tb240 2.513 . S
O258 C256 1.246 . S
C259 O243 1.245 . S
C259 O244 1.259 . S
Tb260 O263 2.453 . S
Tb260 O264 2.596 . S
Tb260 O265 2.374 . S
Tb260 O273 2.343 . S
Tb260 O275 2.353 . S
Tb260 O277 2.427 . S
Tb260 O278 2.513 . S
C261 O265 1.251 . S
C261 O267 1.263 . S
Tb262 O264 2.343 . S
Tb262 O267 2.353 . S
Tb262 O270 2.427 . S
Tb262 O271 2.513 . S
Tb262 O272 2.453 . S
Tb262 O273 2.596 . S
Tb262 O274 2.374 . S
O263 Tb260 2.453 . S
O263 C279 1.245 . S
O264 Tb260 2.596 . S
O264 Tb262 2.343 . S
O264 C279 1.259 . S
O265 Tb260 2.374 . S
O265 C261 1.251 . S
C266 O270 1.275 . S
C266 O271 1.246 . S
O267 C261 1.263 . S
O267 Tb262 2.353 . S
C268 O272 1.245 . S
C268 O273 1.259 . S
C269 O274 1.250 . S
C269 O275 1.263 . S
O270 Tb262 2.427 . S
O270 C266 1.275 . S
O271 Tb262 2.513 . S
O271 C266 1.246 . S
O272 Tb262 2.453 . S
O272 C268 1.245 . S
O273 Tb260 2.343 . S
O273 Tb262 2.596 . S
O273 C268 1.259 . S
O274 Tb262 2.374 . S
O274 C269 1.250 . S
O275 Tb260 2.353 . S
O275 C269 1.263 . S
C276 O277 1.275 . S
C276 O278 1.246 . S
O277 Tb260 2.427 . S
O277 C276 1.275 . S
O278 Tb260 2.513 . S
O278 C276 1.246 . S
C279 O263 1.245 . S
C279 O264 1.259 . S
Tb280 O283 2.453 . S
Tb280 O284 2.596 . S
Tb280 O285 2.374 . S
Tb280 O293 2.343 . S
Tb280 O295 2.353 . S
Tb280 O297 2.427 . S
Tb280 O298 2.513 . S
C281 O285 1.251 . S
C281 O287 1.263 . S
Tb282 O284 2.343 . S
Tb282 O287 2.353 . S
Tb282 O290 2.427 . S
Tb282 O291 2.513 . S
Tb282 O292 2.453 . S
Tb282 O293 2.596 . S
Tb282 O294 2.374 . S
O283 Tb280 2.453 . S
O283 C299 1.245 . S
O284 Tb280 2.596 . S
O284 Tb282 2.343 . S
O284 C299 1.259 . S
O285 Tb280 2.374 . S
O285 C281 1.251 . S
C286 O290 1.275 . S
C286 O291 1.246 . S
O287 C281 1.263 . S
O287 Tb282 2.353 . S
C288 O292 1.245 . S
C288 O293 1.259 . S
C289 O294 1.250 . S
C289 O295 1.263 . S
O290 Tb282 2.427 . S
O290 C286 1.275 . S
O291 Tb282 2.513 . S
O291 C286 1.246 . S
O292 Tb282 2.453 . S
O292 C288 1.245 . S
O293 Tb280 2.343 . S
O293 Tb282 2.596 . S
O293 C288 1.259 . S
O294 Tb282 2.374 . S
O294 C289 1.250 . S
O295 Tb280 2.353 . S
O295 C289 1.263 . S
C296 O297 1.275 . S
C296 O298 1.246 . S
O297 Tb280 2.427 . S
O297 C296 1.275 . S
O298 Tb280 2.513 . S
O298 C296 1.246 . S
C299 O283 1.245 . S
C299 O284 1.259 . S
Tb300 O303 2.453 . S
Tb300 O304 2.596 . S
Tb300 O305 2.374 . S
Tb300 O313 2.343 . S
Tb300 O315 2.353 . S
Tb300 O317 2.427 . S
Tb300 O318 2.513 . S
C301 O305 1.251 . S
C301 O307 1.263 . S
Tb302 O304 2.343 . S
Tb302 O307 2.353 . S
Tb302 O310 2.427 . S
Tb302 O311 2.513 . S
Tb302 O312 2.453 . S
Tb302 O313 2.596 . S
Tb302 O314 2.374 . S
O303 Tb300 2.453 . S
O303 C319 1.245 . S
O304 Tb300 2.596 . S
O304 Tb302 2.343 . S
O304 C319 1.259 . S
O305 Tb300 2.374 . S
O305 C301 1.251 . S
C306 O310 1.275 . S
C306 O311 1.246 . S
O307 C301 1.263 . S
O307 Tb302 2.353 . S
C308 O312 1.245 . S
C308 O313 1.259 . S
C309 O314 1.250 . S
C309 O315 1.263 . S
O310 Tb302 2.427 . S
O310 C306 1.275 . S
O311 Tb302 2.513 . S
O311 C306 1.246 . S
O312 Tb302 2.453 . S
O312 C308 1.245 . S
O313 Tb300 2.343 . S
O313 Tb302 2.596 . S
O313 C308 1.259 . S
O314 Tb302 2.374 . S
O314 C309 1.250 . S
O315 Tb300 2.353 . S
O315 C309 1.263 . S
C316 O317 1.275 . S
C316 O318 1.246 . S
O317 Tb300 2.427 . S
O317 C316 1.275 . S
O318 Tb300 2.513 . S
O318 C316 1.246 . S
C319 O303 1.245 . S
C319 O304 1.259 . S
Tb320 O323 2.453 . S
Tb320 O324 2.596 . S
Tb320 O325 2.374 1_565 S
Tb320 O333 2.342 1_565 S
Tb320 O335 2.353 . S
Tb320 O337 2.427 . S
Tb320 O338 2.513 1_565 S
C321 O325 1.251 . S
C321 O327 1.263 . S
Tb322 O324 2.343 1_545 S
Tb322 O327 2.353 . S
Tb322 O330 2.427 . S
Tb322 O331 2.513 1_545 S
Tb322 O332 2.453 . S
Tb322 O333 2.597 . S
Tb322 O334 2.374 1_545 S
O323 Tb320 2.453 . S
O323 C339 1.245 . S
O324 Tb320 2.596 . S
O324 Tb322 2.343 1_565 S
O324 C339 1.260 . S
O325 Tb320 2.374 1_545 S
O325 C321 1.251 . S
C326 O330 1.275 . S
C326 O331 1.246 1_545 S
O327 C321 1.263 . S
O327 Tb322 2.353 . S
C328 O332 1.245 . S
C328 O333 1.260 . S
C329 O334 1.250 . S
C329 O335 1.263 . S
O330 Tb322 2.427 . S
O330 C326 1.275 . S
O331 Tb322 2.513 1_565 S
O331 C326 1.246 1_565 S
O332 Tb322 2.453 . S
O332 C328 1.245 . S
O333 Tb320 2.342 1_545 S
O333 Tb322 2.597 . S
O333 C328 1.260 . S
O334 Tb322 2.374 1_565 S
O334 C329 1.250 . S
O335 Tb320 2.353 . S
O335 C329 1.263 . S
C336 O337 1.275 . S
C336 O338 1.246 1_565 S
O337 Tb320 2.427 . S
O337 C336 1.275 . S
O338 Tb320 2.513 1_545 S
O338 C336 1.246 1_545 S
C339 O323 1.245 . S
C339 O324 1.260 . S
Tb340 O343 2.453 . S
Tb340 O344 2.596 . S
Tb340 O345 2.374 . S
Tb340 O353 2.343 . S
Tb340 O355 2.353 . S
Tb340 O357 2.427 . S
Tb340 O358 2.513 . S
C341 O345 1.251 . S
C341 O347 1.263 . S
Tb342 O344 2.343 . S
Tb342 O347 2.353 . S
Tb342 O350 2.427 . S
Tb342 O351 2.513 . S
Tb342 O352 2.453 . S
Tb342 O353 2.596 . S
Tb342 O354 2.374 . S
O343 Tb340 2.453 . S
O343 C359 1.245 . S
O344 Tb340 2.596 . S
O344 Tb342 2.343 . S
O344 C359 1.259 . S
O345 Tb340 2.374 . S
O345 C341 1.251 . S
C346 O350 1.275 . S
C346 O351 1.246 . S
O347 C341 1.263 . S
O347 Tb342 2.353 . S
C348 O352 1.245 . S
C348 O353 1.259 . S
C349 O354 1.250 . S
C349 O355 1.263 . S
O350 Tb342 2.427 . S
O350 C346 1.275 . S
O351 Tb342 2.513 . S
O351 C346 1.246 . S
O352 Tb342 2.453 . S
O352 C348 1.245 . S
O353 Tb340 2.343 . S
O353 Tb342 2.596 . S
O353 C348 1.259 . S
O354 Tb342 2.374 . S
O354 C349 1.250 . S
O355 Tb340 2.353 . S
O355 C349 1.263 . S
C356 O357 1.275 . S
C356 O358 1.246 . S
O357 Tb340 2.427 . S
O357 C356 1.275 . S
O358 Tb340 2.513 . S
O358 C356 1.246 . S
C359 O343 1.245 . S
C359 O344 1.259 . S
Tb360 O363 2.453 . S
Tb360 O364 2.596 . S
Tb360 O365 2.374 . S
Tb360 O373 2.343 . S
Tb360 O375 2.353 . S
Tb360 O377 2.427 . S
Tb360 O378 2.513 . S
C361 O365 1.251 . S
C361 O367 1.263 . S
Tb362 O364 2.343 . S
Tb362 O367 2.353 . S
Tb362 O370 2.427 . S
Tb362 O371 2.513 . S
Tb362 O372 2.453 . S
Tb362 O373 2.596 . S
Tb362 O374 2.374 . S
O363 Tb360 2.453 . S
O363 C379 1.245 . S
O364 Tb360 2.596 . S
O364 Tb362 2.343 . S
O364 C379 1.259 . S
O365 Tb360 2.374 . S
O365 C361 1.251 . S
C366 O370 1.275 . S
C366 O371 1.246 . S
O367 C361 1.263 . S
O367 Tb362 2.353 . S
C368 O372 1.245 . S
C368 O373 1.259 . S
C369 O374 1.250 . S
C369 O375 1.263 . S
O370 Tb362 2.427 . S
O370 C366 1.275 . S
O371 Tb362 2.513 . S
O371 C366 1.246 . S
O372 Tb362 2.453 . S
O372 C368 1.245 . S
O373 Tb360 2.343 . S
O373 Tb362 2.596 . S
O373 C368 1.259 . S
O374 Tb362 2.374 . S
O374 C369 1.250 . S
O375 Tb360 2.353 . S
O375 C369 1.263 . S
C376 O377 1.275 . S
C376 O378 1.246 . S
O377 Tb360 2.427 . S
O377 C376 1.275 . S
O378 Tb360 2.513 . S
O378 C376 1.246 . S
C379 O363 1.245 . S
C379 O364 1.259 . S
Tb380 O383 2.453 . S
Tb380 O384 2.596 . S
Tb380 O385 2.374 1_565 S
Tb380 O393 2.342 1_565 S
Tb380 O395 2.353 . S
Tb380 O397 2.427 . S
Tb380 O398 2.513 1_565 S
C381 O385 1.251 . S
C381 O387 1.263 . S
Tb382 O384 2.343 1_545 S
Tb382 O387 2.353 . S
Tb382 O390 2.427 . S
Tb382 O391 2.513 1_545 S
Tb382 O392 2.453 . S
Tb382 O393 2.597 . S
Tb382 O394 2.374 1_545 S
O383 Tb380 2.453 . S
O383 C399 1.245 . S
O384 Tb380 2.596 . S
O384 Tb382 2.343 1_565 S
O384 C399 1.260 . S
O385 Tb380 2.374 1_545 S
O385 C381 1.251 . S
C386 O390 1.275 . S
C386 O391 1.246 1_545 S
O387 C381 1.263 . S
O387 Tb382 2.353 . S
C388 O392 1.245 . S
C388 O393 1.260 . S
C389 O394 1.250 . S
C389 O395 1.263 . S
O390 Tb382 2.427 . S
O390 C386 1.275 . S
O391 Tb382 2.513 1_565 S
O391 C386 1.246 1_565 S
O392 Tb382 2.453 . S
O392 C388 1.245 . S
O393 Tb380 2.342 1_545 S
O393 Tb382 2.597 . S
O393 C388 1.260 . S
O394 Tb382 2.374 1_565 S
O394 C389 1.250 . S
O395 Tb380 2.353 . S
O395 C389 1.263 . S
C396 O397 1.275 . S
C396 O398 1.246 1_565 S
O397 Tb380 2.427 . S
O397 C396 1.275 . S
O398 Tb380 2.513 1_545 S
O398 C396 1.246 1_545 S
C399 O383 1.245 . S
C399 O384 1.260 . S
Tb400 O403 2.453 . S
Tb400 O404 2.597 . S
Tb400 O405 2.374 1_565 S
Tb400 O413 2.343 1_565 S
Tb400 O415 2.353 . S
Tb400 O417 2.427 . S
Tb400 O418 2.513 1_565 S
C401 O405 1.251 . S
C401 O407 1.263 . S
Tb402 O404 2.342 1_545 S
Tb402 O407 2.353 . S
Tb402 O410 2.427 . S
Tb402 O411 2.513 1_545 S
Tb402 O412 2.453 . S
Tb402 O413 2.596 . S
Tb402 O414 2.374 1_545 S
O403 Tb400 2.453 . S
O403 C419 1.245 . S
O404 Tb400 2.597 . S
O404 Tb402 2.342 1_565 S
O404 C419 1.260 . S
O405 Tb400 2.374 1_545 S
O405 C401 1.251 . S
C406 O410 1.275 . S
C406 O411 1.246 1_545 S
O407 C401 1.263 . S
O407 Tb402 2.353 . S
C408 O412 1.245 . S
C408 O413 1.260 . S
C409 O414 1.250 . S
C409 O415 1.263 . S
O410 Tb402 2.427 . S
O410 C406 1.275 . S
O411 Tb402 2.513 1_565 S
O411 C406 1.246 1_565 S
O412 Tb402 2.453 . S
O412 C408 1.245 . S
O413 Tb400 2.343 1_545 S
O413 Tb402 2.596 . S
O413 C408 1.260 . S
O414 Tb402 2.374 1_565 S
O414 C409 1.250 . S
O415 Tb400 2.353 . S
O415 C409 1.263 . S
C416 O417 1.275 . S
C416 O418 1.246 1_565 S
O417 Tb400 2.427 . S
O417 C416 1.275 . S
O418 Tb400 2.513 1_545 S
O418 C416 1.246 1_545 S
C419 O403 1.245 . S
C419 O404 1.260 . S
Tb420 O423 2.453 . S
Tb420 O424 2.596 . S
Tb420 O425 2.374 . S
Tb420 O433 2.343 . S
Tb420 O435 2.353 . S
Tb420 O437 2.427 . S
Tb420 O438 2.513 . S
C421 O425 1.251 . S
C421 O427 1.263 . S
Tb422 O424 2.343 . S
Tb422 O427 2.353 . S
Tb422 O430 2.427 . S
Tb422 O431 2.513 . S
Tb422 O432 2.453 . S
Tb422 O433 2.596 . S
Tb422 O434 2.374 . S
O423 Tb420 2.453 . S
O423 C439 1.245 . S
O424 Tb420 2.596 . S
O424 Tb422 2.343 . S
O424 C439 1.259 . S
O425 Tb420 2.374 . S
O425 C421 1.251 . S
C426 O430 1.275 . S
C426 O431 1.246 . S
O427 C421 1.263 . S
O427 Tb422 2.353 . S
C428 O432 1.245 . S
C428 O433 1.259 . S
C429 O434 1.250 . S
C429 O435 1.263 . S
O430 Tb422 2.427 . S
O430 C426 1.275 . S
O431 Tb422 2.513 . S
O431 C426 1.246 . S
O432 Tb422 2.453 . S
O432 C428 1.245 . S
O433 Tb420 2.343 . S
O433 Tb422 2.596 . S
O433 C428 1.259 . S
O434 Tb422 2.374 . S
O434 C429 1.250 . S
O435 Tb420 2.353 . S
O435 C429 1.263 . S
C436 O437 1.275 . S
C436 O438 1.246 . S
O437 Tb420 2.427 . S
O437 C436 1.275 . S
O438 Tb420 2.513 . S
O438 C436 1.246 . S
C439 O423 1.245 . S
C439 O424 1.259 . S
Tb440 O443 2.453 . S
Tb440 O444 2.596 . S
Tb440 O445 2.374 . S
Tb440 O453 2.343 . S
Tb440 O455 2.353 . S
Tb440 O457 2.427 . S
Tb440 O458 2.513 . S
C441 O445 1.251 . S
C441 O447 1.263 . S
Tb442 O444 2.343 . S
Tb442 O447 2.353 . S
Tb442 O450 2.427 . S
Tb442 O451 2.513 . S
Tb442 O452 2.453 . S
Tb442 O453 2.596 . S
Tb442 O454 2.374 . S
O443 Tb440 2.453 . S
O443 C459 1.245 . S
O444 Tb440 2.596 . S
O444 Tb442 2.343 . S
O444 C459 1.259 . S
O445 Tb440 2.374 . S
O445 C441 1.251 . S
C446 O450 1.275 . S
C446 O451 1.246 . S
O447 C441 1.263 . S
O447 Tb442 2.353 . S
C448 O452 1.245 . S
C448 O453 1.259 . S
C449 O454 1.250 . S
C449 O455 1.263 . S
O450 Tb442 2.427 . S
O450 C446 1.275 . S
O451 Tb442 2.513 . S
O451 C446 1.246 . S
O452 Tb442 2.453 . S
O452 C448 1.245 . S
O453 Tb440 2.343 . S
O453 Tb442 2.596 . S
O453 C448 1.259 . S
O454 Tb442 2.374 . S
O454 C449 1.250 . S
O455 Tb440 2.353 . S
O455 C449 1.263 . S
C456 O457 1.275 . S
C456 O458 1.246 . S
O457 Tb440 2.427 . S
O457 C456 1.275 . S
O458 Tb440 2.513 . S
O458 C456 1.246 . S
C459 O443 1.245 . S
C459 O444 1.259 . S
Tb460 O463 2.453 . S
Tb460 O464 2.597 . S
Tb460 O465 2.374 1_565 S
Tb460 O473 2.343 1_565 S
Tb460 O475 2.353 . S
Tb460 O477 2.427 . S
Tb460 O478 2.513 1_565 S
C461 O465 1.251 . S
C461 O467 1.263 . S
Tb462 O464 2.342 1_545 S
Tb462 O467 2.353 . S
Tb462 O470 2.427 . S
Tb462 O471 2.513 1_545 S
Tb462 O472 2.453 . S
Tb462 O473 2.596 . S
Tb462 O474 2.374 1_545 S
O463 Tb460 2.453 . S
O463 C479 1.245 . S
O464 Tb460 2.597 . S
O464 Tb462 2.342 1_565 S
O464 C479 1.260 . S
O465 Tb460 2.374 1_545 S
O465 C461 1.251 . S
C466 O470 1.275 . S
C466 O471 1.246 1_545 S
O467 C461 1.263 . S
O467 Tb462 2.353 . S
C468 O472 1.245 . S
C468 O473 1.260 . S
C469 O474 1.250 . S
C469 O475 1.263 . S
O470 Tb462 2.427 . S
O470 C466 1.275 . S
O471 Tb462 2.513 1_565 S
O471 C466 1.246 1_565 S
O472 Tb462 2.453 . S
O472 C468 1.245 . S
O473 Tb460 2.343 1_545 S
O473 Tb462 2.596 . S
O473 C468 1.260 . S
O474 Tb462 2.374 1_565 S
O474 C469 1.250 . S
O475 Tb460 2.353 . S
O475 C469 1.263 . S
C476 O477 1.275 . S
C476 O478 1.246 1_565 S
O477 Tb460 2.427 . S
O477 C476 1.275 . S
O478 Tb460 2.513 1_545 S
O478 C476 1.246 1_545 S
C479 O463 1.245 . S
C479 O464 1.260 . S
Tb480 O483 2.453 . S
Tb480 O484 2.596 . S
Tb480 O485 2.374 . S
Tb480 O493 2.343 . S
Tb480 O495 2.353 . S
Tb480 O497 2.427 . S
Tb480 O498 2.513 . S
C481 O485 1.251 . S
C481 O487 1.263 . S
Tb482 O484 2.343 . S
Tb482 O487 2.353 . S
Tb482 O490 2.427 . S
Tb482 O491 2.513 . S
Tb482 O492 2.453 . S
Tb482 O493 2.596 . S
Tb482 O494 2.374 . S
O483 Tb480 2.453 . S
O483 C499 1.245 . S
O484 Tb480 2.596 . S
O484 Tb482 2.343 . S
O484 C499 1.259 . S
O485 Tb480 2.374 . S
O485 C481 1.251 . S
C486 O490 1.275 . S
C486 O491 1.246 . S
O487 C481 1.263 . S
O487 Tb482 2.353 . S
C488 O492 1.245 . S
C488 O493 1.259 . S
C489 O494 1.250 . S
C489 O495 1.263 . S
O490 Tb482 2.427 . S
O490 C486 1.275 . S
O491 Tb482 2.513 . S
O491 C486 1.246 . S
O492 Tb482 2.453 . S
O492 C488 1.245 . S
O493 Tb480 2.343 . S
O493 Tb482 2.596 . S
O493 C488 1.259 . S
O494 Tb482 2.374 . S
O494 C489 1.250 . S
O495 Tb480 2.353 . S
O495 C489 1.263 . S
C496 O497 1.275 1_556 S
C496 O498 1.246 1_556 S
O497 Tb480 2.427 . S
O497 C496 1.275 1_554 S
O498 Tb480 2.513 . S
O498 C496 1.246 1_554 S
C499 O483 1.245 . S
C499 O484 1.259 . S
Tb500 O503 2.453 . S
Tb500 O504 2.596 . S
Tb500 O505 2.374 . S
Tb500 O513 2.343 . S
Tb500 O515 2.353 . S
Tb500 O517 2.427 . S
Tb500 O518 2.513 . S
C501 O505 1.251 . S
C501 O507 1.263 . S
Tb502 O504 2.343 . S
Tb502 O507 2.353 . S
Tb502 O510 2.427 . S
Tb502 O511 2.513 . S
Tb502 O512 2.453 . S
Tb502 O513 2.596 . S
Tb502 O514 2.374 . S
O503 Tb500 2.453 . S
O503 C519 1.245 . S
O504 Tb500 2.596 . S
O504 Tb502 2.343 . S
O504 C519 1.259 . S
O505 Tb500 2.374 . S
O505 C501 1.251 . S
C506 O510 1.275 . S
C506 O511 1.246 . S
O507 C501 1.263 . S
O507 Tb502 2.353 . S
C508 O512 1.245 . S
C508 O513 1.259 . S
C509 O514 1.250 . S
C509 O515 1.263 . S
O510 Tb502 2.427 . S
O510 C506 1.275 . S
O511 Tb502 2.513 . S
O511 C506 1.246 . S
O512 Tb502 2.453 . S
O512 C508 1.245 . S
O513 Tb500 2.343 . S
O513 Tb502 2.596 . S
O513 C508 1.259 . S
O514 Tb502 2.374 . S
O514 C509 1.250 . S
O515 Tb500 2.353 . S
O515 C509 1.263 . S
C516 O517 1.275 1_556 S
C516 O518 1.246 1_556 S
O517 Tb500 2.427 . S
O517 C516 1.275 1_554 S
O518 Tb500 2.513 . S
O518 C516 1.246 1_554 S
C519 O503 1.245 . S
C519 O504 1.259 . S
Tb520 O523 2.453 . S
Tb520 O524 2.596 . S
Tb520 O525 2.374 . S
Tb520 O533 2.343 . S
Tb520 O535 2.353 . S
Tb520 O537 2.427 . S
Tb520 O538 2.513 . S
C521 O525 1.251 . S
C521 O527 1.263 . S
Tb522 O524 2.343 . S
Tb522 O527 2.353 . S
Tb522 O530 2.427 . S
Tb522 O531 2.513 . S
Tb522 O532 2.453 . S
Tb522 O533 2.596 . S
Tb522 O534 2.374 . S
O523 Tb520 2.453 . S
O523 C539 1.245 . S
O524 Tb520 2.596 . S
O524 Tb522 2.343 . S
O524 C539 1.259 . S
O525 Tb520 2.374 . S
O525 C521 1.251 . S
C526 O530 1.275 . S
C526 O531 1.246 . S
O527 C521 1.263 . S
O527 Tb522 2.353 . S
C528 O532 1.245 . S
C528 O533 1.259 . S
C529 O534 1.250 . S
C529 O535 1.263 . S
O530 Tb522 2.427 . S
O530 C526 1.275 . S
O531 Tb522 2.513 . S
O531 C526 1.246 . S
O532 Tb522 2.453 . S
O532 C528 1.245 . S
O533 Tb520 2.343 . S
O533 Tb522 2.596 . S
O533 C528 1.259 . S
O534 Tb522 2.374 . S
O534 C529 1.250 . S
O535 Tb520 2.353 . S
O535 C529 1.263 . S
C536 O537 1.275 . S
C536 O538 1.246 . S
O537 Tb520 2.427 . S
O537 C536 1.275 . S
O538 Tb520 2.513 . S
O538 C536 1.246 . S
C539 O523 1.245 . S
C539 O524 1.259 . S
Tb540 O543 2.453 . S
Tb540 O544 2.596 . S
Tb540 O545 2.374 . S
Tb540 O553 2.343 . S
Tb540 O555 2.353 . S
Tb540 O557 2.427 . S
Tb540 O558 2.513 . S
C541 O545 1.251 . S
C541 O547 1.263 . S
Tb542 O544 2.343 . S
Tb542 O547 2.353 . S
Tb542 O550 2.427 . S
Tb542 O551 2.513 . S
Tb542 O552 2.453 . S
Tb542 O553 2.596 . S
Tb542 O554 2.374 . S
O543 Tb540 2.453 . S
O543 C559 1.245 . S
O544 Tb540 2.596 . S
O544 Tb542 2.343 . S
O544 C559 1.259 . S
O545 Tb540 2.374 . S
O545 C541 1.251 . S
C546 O550 1.275 . S
C546 O551 1.246 . S
O547 C541 1.263 . S
O547 Tb542 2.353 . S
C548 O552 1.245 . S
C548 O553 1.259 . S
C549 O554 1.250 . S
C549 O555 1.263 . S
O550 Tb542 2.427 . S
O550 C546 1.275 . S
O551 Tb542 2.513 . S
O551 C546 1.246 . S
O552 Tb542 2.453 . S
O552 C548 1.245 . S
O553 Tb540 2.343 . S
O553 Tb542 2.596 . S
O553 C548 1.259 . S
O554 Tb542 2.374 . S
O554 C549 1.250 . S
O555 Tb540 2.353 . S
O555 C549 1.263 . S
C556 O557 1.275 . S
C556 O558 1.246 . S
O557 Tb540 2.427 . S
O557 C556 1.275 . S
O558 Tb540 2.513 . S
O558 C556 1.246 . S
C559 O543 1.245 . S
C559 O544 1.259 . S
Tb560 O563 2.453 . S
Tb560 O564 2.596 . S
Tb560 O565 2.374 . S
Tb560 O573 2.343 . S
Tb560 O575 2.353 . S
Tb560 O577 2.427 . S
Tb560 O578 2.513 . S
C561 O565 1.251 . S
C561 O567 1.263 . S
Tb562 O564 2.343 . S
Tb562 O567 2.353 . S
Tb562 O570 2.427 . S
Tb562 O571 2.513 . S
Tb562 O572 2.453 . S
Tb562 O573 2.596 . S
Tb562 O574 2.374 . S
O563 Tb560 2.453 . S
O563 C579 1.245 . S
O564 Tb560 2.596 . S
O564 Tb562 2.343 . S
O564 C579 1.259 . S
O565 Tb560 2.374 . S
O565 C561 1.251 . S
C566 O570 1.275 1_554 S
C566 O571 1.246 1_554 S
O567 C561 1.263 . S
O567 Tb562 2.353 . S
C568 O572 1.245 . S
C568 O573 1.259 . S
C569 O574 1.250 . S
C569 O575 1.263 . S
O570 Tb562 2.427 . S
O570 C566 1.275 1_556 S
O571 Tb562 2.513 . S
O571 C566 1.246 1_556 S
O572 Tb562 2.453 . S
O572 C568 1.245 . S
O573 Tb560 2.343 . S
O573 Tb562 2.596 . S
O573 C568 1.259 . S
O574 Tb562 2.374 . S
O574 C569 1.250 . S
O575 Tb560 2.353 . S
O575 C569 1.263 . S
C576 O577 1.275 . S
C576 O578 1.246 . S
O577 Tb560 2.427 . S
O577 C576 1.275 . S
O578 Tb560 2.513 . S
O578 C576 1.246 . S
C579 O563 1.245 . S
C579 O564 1.259 . S
Tb580 O583 2.453 . S
Tb580 O584 2.596 . S
Tb580 O585 2.374 . S
Tb580 O593 2.343 . S
Tb580 O595 2.353 . S
Tb580 O597 2.427 . S
Tb580 O598 2.513 . S
C581 O585 1.251 . S
C581 O587 1.263 . S
Tb582 O584 2.343 . S
Tb582 O587 2.353 . S
Tb582 O590 2.427 . S
Tb582 O591 2.513 . S
Tb582 O592 2.453 . S
Tb582 O593 2.596 . S
Tb582 O594 2.374 . S
O583 Tb580 2.453 . S
O583 C599 1.245 . S
O584 Tb580 2.596 . S
O584 Tb582 2.343 . S
O584 C599 1.259 . S
O585 Tb580 2.374 . S
O585 C581 1.251 . S
C586 O590 1.275 1_554 S
C586 O591 1.246 1_554 S
O587 C581 1.263 . S
O587 Tb582 2.353 . S
C588 O592 1.245 . S
C588 O593 1.259 . S
C589 O594 1.250 . S
C589 O595 1.263 . S
O590 Tb582 2.427 . S
O590 C586 1.275 1_556 S
O591 Tb582 2.513 . S
O591 C586 1.246 1_556 S
O592 Tb582 2.453 . S
O592 C588 1.245 . S
O593 Tb580 2.343 . S
O593 Tb582 2.596 . S
O593 C588 1.259 . S
O594 Tb582 2.374 . S
O594 C589 1.250 . S
O595 Tb580 2.353 . S
O595 C589 1.263 . S
C596 O597 1.275 . S
C596 O598 1.246 . S
O597 Tb580 2.427 . S
O597 C596 1.275 . S
O598 Tb580 2.513 . S
O598 C596 1.246 . S
C599 O583 1.245 . S
C599 O584 1.259 . S
Tb600 O603 2.453 . S
Tb600 O604 2.596 . S
Tb600 O605 2.374 . S
Tb600 O613 2.343 . S
Tb600 O615 2.353 . S
Tb600 O617 2.427 . S
Tb600 O618 2.513 . S
C601 O605 1.251 . S
C601 O607 1.263 . S
Tb602 O604 2.343 . S
Tb602 O607 2.353 . S
Tb602 O610 2.427 . S
Tb602 O611 2.513 . S
Tb602 O612 2.453 . S
Tb602 O613 2.596 . S
Tb602 O614 2.374 . S
O603 Tb600 2.453 . S
O603 C619 1.245 . S
O604 Tb600 2.596 . S
O604 Tb602 2.343 . S
O604 C619 1.259 . S
O605 Tb600 2.374 . S
O605 C601 1.251 . S
C606 O610 1.275 . S
C606 O611 1.246 . S
O607 C601 1.263 . S
O607 Tb602 2.353 . S
C608 O612 1.245 . S
C608 O613 1.259 . S
C609 O614 1.250 . S
C609 O615 1.263 . S
O610 Tb602 2.427 . S
O610 C606 1.275 . S
O611 Tb602 2.513 . S
O611 C606 1.246 . S
O612 Tb602 2.453 . S
O612 C608 1.245 . S
O613 Tb600 2.343 . S
O613 Tb602 2.596 . S
O613 C608 1.259 . S
O614 Tb602 2.374 . S
O614 C609 1.250 . S
O615 Tb600 2.353 . S
O615 C609 1.263 . S
C616 O617 1.275 . S
C616 O618 1.246 . S
O617 Tb600 2.427 . S
O617 C616 1.275 . S
O618 Tb600 2.513 . S
O618 C616 1.246 . S
C619 O603 1.245 . S
C619 O604 1.259 . S
Tb620 O623 2.453 . S
Tb620 O624 2.596 . S
Tb620 O625 2.374 . S
Tb620 O633 2.343 . S
Tb620 O635 2.353 . S
Tb620 O637 2.427 . S
Tb620 O638 2.513 . S
C621 O625 1.251 . S
C621 O627 1.263 . S
Tb622 O624 2.343 . S
Tb622 O627 2.353 . S
Tb622 O630 2.427 . S
Tb622 O631 2.513 . S
Tb622 O632 2.453 . S
Tb622 O633 2.596 . S
Tb622 O634 2.374 . S
O623 Tb620 2.453 . S
O623 C639 1.245 . S
O624 Tb620 2.596 . S
O624 Tb622 2.343 . S
O624 C639 1.259 . S
O625 Tb620 2.374 . S
O625 C621 1.251 . S
C626 O630 1.275 . S
C626 O631 1.246 . S
O627 C621 1.263 . S
O627 Tb622 2.353 . S
C628 O632 1.245 . S
C628 O633 1.259 . S
C629 O634 1.250 . S
C629 O635 1.263 . S
O630 Tb622 2.427 . S
O630 C626 1.275 . S
O631 Tb622 2.513 . S
O631 C626 1.246 . S
O632 Tb622 2.453 . S
O632 C628 1.245 . S
O633 Tb620 2.343 . S
O633 Tb622 2.596 . S
O633 C628 1.259 . S
O634 Tb622 2.374 . S
O634 C629 1.250 . S
O635 Tb620 2.353 . S
O635 C629 1.263 . S
C636 O637 1.275 . S
C636 O638 1.246 . S
O637 Tb620 2.427 . S
O637 C636 1.275 . S
O638 Tb620 2.513 . S
O638 C636 1.246 . S
C639 O623 1.245 . S
C639 O624 1.259 . S
H640 C646 0.930 . S
H641 C649 0.930 . S
H642 C650 0.930 . S
H643 C651 0.930 . S
H644 C654 0.930 . S
H645 C655 0.930 . S
C646 H640 0.930 . S
C646 C647 1.355 . S
C646 C648 1.415 . S
C647 C646 1.355 . S
C647 C649 1.419 . S
C648 C646 1.415 . S
C648 C653 1.425 . S
C648 C655 1.409 . S
C649 H641 0.930 . S
C649 C647 1.419 . S
C649 C650 1.362 . S
C650 H642 0.930 . S
C650 C649 1.362 . S
C650 C653 1.409 . S
C651 H643 0.930 . S
C651 C652 1.355 . S
C651 C653 1.415 . S
C652 C651 1.355 . S
C652 C654 1.419 . S
C653 C648 1.425 . S
C653 C650 1.409 . S
C653 C651 1.415 . S
C654 H644 0.930 . S
C654 C652 1.419 . S
C654 C655 1.362 . S
C655 H645 0.930 . S
C655 C648 1.409 . S
C655 C654 1.362 . S
H656 C662 0.930 . S
H657 C665 0.930 . S
H658 C666 0.930 . S
H659 C667 0.930 . S
H660 C670 0.930 . S
H661 C671 0.930 . S
C662 H656 0.930 . S
C662 C663 1.355 . S
C662 C664 1.415 . S
C663 C662 1.355 . S
C663 C665 1.419 . S
C664 C662 1.415 . S
C664 C669 1.425 . S
C664 C671 1.409 . S
C665 H657 0.930 . S
C665 C663 1.419 . S
C665 C666 1.362 . S
C666 H658 0.930 . S
C666 C665 1.362 . S
C666 C669 1.409 . S
C667 H659 0.930 . S
C667 C668 1.355 . S
C667 C669 1.415 . S
C668 C667 1.355 . S
C668 C670 1.419 . S
C669 C664 1.425 . S
C669 C666 1.409 . S
C669 C667 1.415 . S
C670 H660 0.930 . S
C670 C668 1.419 . S
C670 C671 1.362 . S
C671 H661 0.930 . S
C671 C664 1.409 . S
C671 C670 1.362 . S
H672 C678 0.930 . S
H673 C681 0.930 . S
H674 C682 0.930 . S
H675 C683 0.930 . S
H676 C686 0.930 . S
H677 C687 0.930 . S
C678 H672 0.930 . S
C678 C679 1.355 . S
C678 C680 1.415 . S
C679 C678 1.355 . S
C679 C681 1.419 . S
C680 C678 1.415 . S
C680 C685 1.425 . S
C680 C687 1.409 . S
C681 H673 0.930 . S
C681 C679 1.419 . S
C681 C682 1.362 . S
C682 H674 0.930 . S
C682 C681 1.362 . S
C682 C685 1.409 . S
C683 H675 0.930 . S
C683 C684 1.355 . S
C683 C685 1.415 . S
C684 C683 1.355 . S
C684 C686 1.419 . S
C685 C680 1.425 . S
C685 C682 1.409 . S
C685 C683 1.415 . S
C686 H676 0.930 . S
C686 C684 1.419 . S
C686 C687 1.362 . S
C687 H677 0.930 . S
C687 C680 1.409 . S
C687 C686 1.362 . S
H688 C694 0.930 . S
H689 C697 0.930 . S
H690 C698 0.930 . S
H691 C699 0.930 . S
H692 C702 0.930 . S
H693 C703 0.930 . S
C694 H688 0.930 . S
C694 C695 1.355 . S
C694 C696 1.415 . S
C695 C694 1.355 . S
C695 C697 1.419 . S
C696 C694 1.415 . S
C696 C701 1.425 . S
C696 C703 1.409 . S
C697 H689 0.930 . S
C697 C695 1.419 . S
C697 C698 1.362 . S
C698 H690 0.930 . S
C698 C697 1.362 . S
C698 C701 1.409 . S
C699 H691 0.930 . S
C699 C700 1.355 . S
C699 C701 1.415 . S
C700 C699 1.355 . S
C700 C702 1.419 . S
C701 C696 1.425 . S
C701 C698 1.409 . S
C701 C699 1.415 . S
C702 H692 0.930 . S
C702 C700 1.419 . S
C702 C703 1.362 . S
C703 H693 0.930 . S
C703 C696 1.409 . S
C703 C702 1.362 . S
H704 C710 0.930 . S
H705 C713 0.930 . S
H706 C714 0.930 1_554 S
H707 C715 0.930 . S
H708 C718 0.930 . S
H709 C719 0.930 . S
C710 H704 0.930 . S
C710 C711 1.355 . S
C710 C712 1.415 . S
C711 C710 1.355 . S
C711 C713 1.419 . S
C712 C710 1.415 . S
C712 C717 1.425 . S
C712 C719 1.409 . S
C713 H705 0.930 . S
C713 C711 1.419 . S
C713 C714 1.362 . S
C714 H706 0.930 1_556 S
C714 C713 1.362 . S
C714 C717 1.409 . S
C715 H707 0.930 . S
C715 C716 1.355 . S
C715 C717 1.415 . S
C716 C715 1.355 . S
C716 C718 1.419 . S
C717 C712 1.425 . S
C717 C714 1.409 . S
C717 C715 1.415 . S
C718 H708 0.930 . S
C718 C716 1.419 . S
C718 C719 1.362 . S
C719 H709 0.930 . S
C719 C712 1.409 . S
C719 C718 1.362 . S
H720 C726 0.930 . S
H721 C729 0.930 . S
H722 C730 0.930 . S
H723 C731 0.930 . S
H724 C734 0.930 . S
H725 C735 0.930 . S
C726 H720 0.930 . S
C726 C727 1.355 . S
C726 C728 1.415 . S
C727 C726 1.355 . S
C727 C729 1.419 . S
C728 C726 1.415 . S
C728 C733 1.425 . S
C728 C735 1.409 . S
C729 H721 0.930 . S
C729 C727 1.419 . S
C729 C730 1.362 . S
C730 H722 0.930 . S
C730 C729 1.362 . S
C730 C733 1.409 . S
C731 H723 0.930 . S
C731 C732 1.355 . S
C731 C733 1.415 . S
C732 C731 1.355 . S
C732 C734 1.419 . S
C733 C728 1.425 . S
C733 C730 1.409 . S
C733 C731 1.415 . S
C734 H724 0.930 . S
C734 C732 1.419 . S
C734 C735 1.362 . S
C735 H725 0.930 . S
C735 C728 1.409 . S
C735 C734 1.362 . S
H736 C742 0.930 . S
H737 C745 0.930 . S
H738 C746 0.930 . S
H739 C747 0.930 . S
H740 C750 0.930 . S
H741 C751 0.930 . S
C742 H736 0.930 . S
C742 C743 1.355 . S
C742 C744 1.415 . S
C743 C742 1.355 . S
C743 C745 1.419 . S
C744 C742 1.415 . S
C744 C749 1.425 . S
C744 C751 1.409 . S
C745 H737 0.930 . S
C745 C743 1.419 . S
C745 C746 1.362 . S
C746 H738 0.930 . S
C746 C745 1.362 . S
C746 C749 1.409 . S
C747 H739 0.930 . S
C747 C748 1.355 . S
C747 C749 1.415 . S
C748 C747 1.355 . S
C748 C750 1.419 . S
C749 C744 1.425 . S
C749 C746 1.409 . S
C749 C747 1.415 . S
C750 H740 0.930 . S
C750 C748 1.419 . S
C750 C751 1.362 . S
C751 H741 0.930 . S
C751 C744 1.409 . S
C751 C750 1.362 . S
H752 C758 0.930 . S
H753 C761 0.930 . S
H754 C762 0.930 . S
H755 C763 0.930 . S
H756 C766 0.930 . S
H757 C767 0.930 . S
C758 H752 0.930 . S
C758 C759 1.355 . S
C758 C760 1.415 . S
C759 C758 1.355 . S
C759 C761 1.419 . S
C760 C758 1.415 . S
C760 C765 1.425 . S
C760 C767 1.409 . S
C761 H753 0.930 . S
C761 C759 1.419 . S
C761 C762 1.362 . S
C762 H754 0.930 . S
C762 C761 1.362 . S
C762 C765 1.409 . S
C763 H755 0.930 . S
C763 C764 1.355 . S
C763 C765 1.415 . S
C764 C763 1.355 . S
C764 C766 1.419 . S
C765 C760 1.425 . S
C765 C762 1.409 . S
C765 C763 1.415 . S
C766 H756 0.930 . S
C766 C764 1.419 . S
C766 C767 1.362 . S
C767 H757 0.930 . S
C767 C760 1.409 . S
C767 C766 1.362 . S
H768 C774 0.930 . S
H769 C777 0.930 . S
H770 C778 0.930 . S
H771 C779 0.930 . S
H772 C782 0.930 . S
H773 C783 0.930 . S
C774 H768 0.930 . S
C774 C775 1.355 . S
C774 C776 1.415 . S
C775 C774 1.355 . S
C775 C777 1.419 . S
C776 C774 1.415 . S
C776 C781 1.425 . S
C776 C783 1.409 . S
C777 H769 0.930 . S
C777 C775 1.419 . S
C777 C778 1.362 . S
C778 H770 0.930 . S
C778 C777 1.362 . S
C778 C781 1.409 . S
C779 H771 0.930 . S
C779 C780 1.355 . S
C779 C781 1.415 . S
C780 C779 1.355 . S
C780 C782 1.419 . S
C781 C776 1.425 . S
C781 C778 1.409 . S
C781 C779 1.415 . S
C782 H772 0.930 . S
C782 C780 1.419 . S
C782 C783 1.362 . S
C783 H773 0.930 . S
C783 C776 1.409 . S
C783 C782 1.362 . S
H784 C790 0.930 . S
H785 C793 0.930 . S
H786 C794 0.930 . S
H787 C795 0.930 . S
H788 C798 0.930 . S
H789 C799 0.930 . S
C790 H784 0.930 . S
C790 C791 1.355 . S
C790 C792 1.415 . S
C791 C790 1.355 . S
C791 C793 1.419 . S
C792 C790 1.415 . S
C792 C797 1.425 . S
C792 C799 1.409 . S
C793 H785 0.930 . S
C793 C791 1.419 . S
C793 C794 1.362 . S
C794 H786 0.930 . S
C794 C793 1.362 . S
C794 C797 1.409 . S
C795 H787 0.930 . S
C795 C796 1.355 . S
C795 C797 1.415 . S
C796 C795 1.355 . S
C796 C798 1.419 . S
C797 C792 1.425 . S
C797 C794 1.409 . S
C797 C795 1.415 . S
C798 H788 0.930 . S
C798 C796 1.419 . S
C798 C799 1.362 . S
C799 H789 0.930 . S
C799 C792 1.409 . S
C799 C798 1.362 . S
H800 C806 0.930 . S
H801 C809 0.930 . S
H802 C810 0.930 . S
H803 C811 0.930 . S
H804 C814 0.930 . S
H805 C815 0.930 . S
C806 H800 0.930 . S
C806 C807 1.355 . S
C806 C808 1.415 . S
C807 C806 1.355 . S
C807 C809 1.419 . S
C808 C806 1.415 . S
C808 C813 1.425 . S
C808 C815 1.409 . S
C809 H801 0.930 . S
C809 C807 1.419 . S
C809 C810 1.362 . S
C810 H802 0.930 . S
C810 C809 1.362 . S
C810 C813 1.409 . S
C811 H803 0.930 . S
C811 C812 1.355 . S
C811 C813 1.415 . S
C812 C811 1.355 . S
C812 C814 1.419 . S
C813 C808 1.425 . S
C813 C810 1.409 . S
C813 C811 1.415 . S
C814 H804 0.930 . S
C814 C812 1.419 . S
C814 C815 1.362 . S
C815 H805 0.930 . S
C815 C808 1.409 . S
C815 C814 1.362 . S
H816 C822 0.930 . S
H817 C825 0.930 . S
H818 C826 0.930 . S
H819 C827 0.930 . S
H820 C830 0.930 . S
H821 C831 0.930 . S
C822 H816 0.930 . S
C822 C823 1.355 . S
C822 C824 1.415 . S
C823 C822 1.355 . S
C823 C825 1.419 . S
C824 C822 1.415 . S
C824 C829 1.425 . S
C824 C831 1.409 . S
C825 H817 0.930 . S
C825 C823 1.419 . S
C825 C826 1.362 . S
C826 H818 0.930 . S
C826 C825 1.362 . S
C826 C829 1.409 . S
C827 H819 0.930 . S
C827 C828 1.355 . S
C827 C829 1.415 . S
C828 C827 1.355 . S
C828 C830 1.419 . S
C829 C824 1.425 . S
C829 C826 1.409 . S
C829 C827 1.415 . S
C830 H820 0.930 . S
C830 C828 1.419 . S
C830 C831 1.362 . S
C831 H821 0.930 . S
C831 C824 1.409 . S
C831 C830 1.362 . S
H832 C838 0.930 . S
H833 C841 0.930 . S
H834 C842 0.930 . S
H835 C843 0.930 . S
H836 C846 0.930 . S
H837 C847 0.930 . S
C838 H832 0.930 . S
C838 C839 1.355 . S
C838 C840 1.415 . S
C839 C838 1.355 . S
C839 C841 1.419 . S
C840 C838 1.415 . S
C840 C845 1.425 . S
C840 C847 1.409 . S
C841 H833 0.930 . S
C841 C839 1.419 . S
C841 C842 1.362 . S
C842 H834 0.930 . S
C842 C841 1.362 . S
C842 C845 1.409 . S
C843 H835 0.930 . S
C843 C844 1.355 . S
C843 C845 1.415 . S
C844 C843 1.355 . S
C844 C846 1.419 . S
C845 C840 1.425 . S
C845 C842 1.409 . S
C845 C843 1.415 . S
C846 H836 0.930 . S
C846 C844 1.419 . S
C846 C847 1.362 . S
C847 H837 0.930 . S
C847 C840 1.409 . S
C847 C846 1.362 . S
H848 C854 0.930 . S
H849 C857 0.930 . S
H850 C858 0.930 . S
H851 C859 0.930 . S
H852 C862 0.930 . S
H853 C863 0.930 . S
C854 H848 0.930 . S
C854 C855 1.355 . S
C854 C856 1.415 . S
C855 C854 1.355 . S
C855 C857 1.419 . S
C856 C854 1.415 . S
C856 C861 1.425 . S
C856 C863 1.409 . S
C857 H849 0.930 . S
C857 C855 1.419 . S
C857 C858 1.362 . S
C858 H850 0.930 . S
C858 C857 1.362 . S
C858 C861 1.409 . S
C859 H851 0.930 . S
C859 C860 1.355 . S
C859 C861 1.415 . S
C860 C859 1.355 . S
C860 C862 1.419 . S
C861 C856 1.425 . S
C861 C858 1.409 . S
C861 C859 1.415 . S
C862 H852 0.930 . S
C862 C860 1.419 . S
C862 C863 1.362 . S
C863 H853 0.930 . S
C863 C856 1.409 . S
C863 C862 1.362 . S
H864 C870 0.930 . S
H865 C873 0.930 . S
H866 C874 0.930 . S
H867 C875 0.930 . S
H868 C878 0.930 . S
H869 C879 0.930 . S
C870 H864 0.930 . S
C870 C871 1.355 . S
C870 C872 1.415 . S
C871 C870 1.355 . S
C871 C873 1.419 . S
C872 C870 1.415 . S
C872 C877 1.425 . S
C872 C879 1.409 . S
C873 H865 0.930 . S
C873 C871 1.419 . S
C873 C874 1.362 . S
C874 H866 0.930 . S
C874 C873 1.362 . S
C874 C877 1.409 . S
C875 H867 0.930 . S
C875 C876 1.355 . S
C875 C877 1.415 . S
C876 C875 1.355 . S
C876 C878 1.419 . S
C877 C872 1.425 . S
C877 C874 1.409 . S
C877 C875 1.415 . S
C878 H868 0.930 . S
C878 C876 1.419 . S
C878 C879 1.362 . S
C879 H869 0.930 . S
C879 C872 1.409 . S
C879 C878 1.362 . S
H880 C886 0.930 . S
H881 C889 0.930 . S
H882 C890 0.930 . S
H883 C891 0.930 . S
H884 C894 0.930 . S
H885 C895 0.930 . S
C886 H880 0.930 . S
C886 C887 1.355 . S
C886 C888 1.415 . S
C887 C886 1.355 . S
C887 C889 1.419 . S
C888 C886 1.415 . S
C888 C893 1.425 . S
C888 C895 1.409 . S
C889 H881 0.930 . S
C889 C887 1.419 . S
C889 C890 1.362 . S
C890 H882 0.930 . S
C890 C889 1.362 . S
C890 C893 1.409 . S
C891 H883 0.930 . S
C891 C892 1.355 . S
C891 C893 1.415 . S
C892 C891 1.355 . S
C892 C894 1.419 . S
C893 C888 1.425 . S
C893 C890 1.409 . S
C893 C891 1.415 . S
C894 H884 0.930 . S
C894 C892 1.419 . S
C894 C895 1.362 . S
C895 H885 0.930 . S
C895 C888 1.409 . S
C895 C894 1.362 . S
H896 C902 0.930 . S
H897 C905 0.930 . S
H898 C906 0.930 . S
H899 C907 0.930 . S
H900 C910 0.930 . S
H901 C911 0.930 . S
C902 H896 0.930 . S
C902 C903 1.351 1_545 S
C902 C904 1.415 . S
C903 C902 1.351 1_565 S
C903 C905 1.425 . S
C904 C902 1.415 . S
C904 C909 1.425 1_545 S
C904 C911 1.409 . S
C905 H897 0.930 . S
C905 C903 1.425 . S
C905 C906 1.362 . S
C906 H898 0.930 . S
C906 C905 1.362 . S
C906 C909 1.409 . S
C907 H899 0.930 . S
C907 C908 1.348 1_565 S
C907 C909 1.415 . S
C908 C907 1.348 1_545 S
C908 C910 1.428 . S
C909 C904 1.425 1_565 S
C909 C906 1.409 . S
C909 C907 1.415 . S
C910 H900 0.930 . S
C910 C908 1.428 . S
C910 C911 1.362 . S
C911 H901 0.930 . S
C911 C904 1.409 . S
C911 C910 1.362 . S
H912 C918 0.930 . S
H913 C921 0.930 1_655 S
H914 C922 0.930 . S
H915 C923 0.930 . S
H916 C926 0.930 1_455 S
H917 C927 0.930 . S
C918 H912 0.930 . S
C918 C919 1.355 . S
C918 C920 1.415 . S
C919 C918 1.355 . S
C919 C921 1.419 . S
C920 C918 1.415 . S
C920 C925 1.425 1_455 S
C920 C927 1.409 . S
C921 H913 0.930 1_455 S
C921 C919 1.419 . S
C921 C922 1.362 1_455 S
C922 H914 0.930 . S
C922 C921 1.362 1_655 S
C922 C925 1.409 . S
C923 H915 0.930 . S
C923 C924 1.355 . S
C923 C925 1.415 . S
C924 C923 1.355 . S
C924 C926 1.419 . S
C925 C920 1.425 1_655 S
C925 C922 1.409 . S
C925 C923 1.415 . S
C926 H916 0.930 1_655 S
C926 C924 1.419 . S
C926 C927 1.362 1_655 S
C927 H917 0.930 . S
C927 C920 1.409 . S
C927 C926 1.362 1_455 S
H928 C934 0.930 . S
H929 C937 0.930 . S
H930 C938 0.930 . S
H931 C939 0.930 . S
H932 C942 0.930 . S
H933 C943 0.930 . S
C934 H928 0.930 . S
C934 C935 1.355 . S
C934 C936 1.415 . S
C935 C934 1.355 . S
C935 C937 1.419 . S
C936 C934 1.415 . S
C936 C941 1.425 1_556 S
C936 C943 1.409 . S
C937 H929 0.930 . S
C937 C935 1.419 . S
C937 C938 1.362 1_556 S
C938 H930 0.930 . S
C938 C937 1.362 1_554 S
C938 C941 1.409 . S
C939 H931 0.930 . S
C939 C940 1.355 . S
C939 C941 1.415 . S
C940 C939 1.355 . S
C940 C942 1.419 . S
C941 C936 1.425 1_554 S
C941 C938 1.409 . S
C941 C939 1.415 . S
C942 H932 0.930 . S
C942 C940 1.419 . S
C942 C943 1.362 1_554 S
C943 H933 0.930 . S
C943 C936 1.409 . S
C943 C942 1.362 1_556 S
H944 C950 0.930 1_455 S
H945 C953 0.930 . S
H946 C954 0.930 . S
H947 C955 0.930 1_655 S
H948 C958 0.930 . S
H949 C959 0.930 . S
C950 H944 0.930 1_655 S
C950 C951 1.355 . S
C950 C952 1.415 1_655 S
C951 C950 1.355 . S
C951 C953 1.419 1_545 S
C952 C950 1.415 1_455 S
C952 C957 1.425 1_444 S
C952 C959 1.409 . S
C953 H945 0.930 . S
C953 C951 1.419 1_565 S
C953 C954 1.362 1_554 S
C954 H946 0.930 . S
C954 C953 1.362 1_556 S
C954 C957 1.409 . S
C955 H947 0.930 1_455 S
C955 C956 1.355 . S
C955 C957 1.415 1_455 S
C956 C955 1.355 . S
C956 C958 1.419 1_565 S
C957 C952 1.425 1_666 S
C957 C954 1.409 . S
C957 C955 1.415 1_655 S
C958 H948 0.930 . S
C958 C956 1.419 1_545 S
C958 C959 1.362 1_556 S
C959 H949 0.930 . S
C959 C952 1.409 . S
C959 C958 1.362 1_554 S
H960 C966 0.930 . S
H961 C969 0.933 . S
H962 C970 0.930 . S
H963 C971 0.930 . S
H964 C974 0.934 . S
H965 C975 0.930 . S
C966 H960 0.930 . S
C966 C967 1.355 . S
C966 C968 1.415 . S
C967 C966 1.355 . S
C967 C969 1.416 1_565 S
C968 C966 1.415 . S
C968 C973 1.425 1_565 S
C968 C975 1.409 . S
C969 H961 0.933 . S
C969 C967 1.416 1_545 S
C969 C970 1.364 . S
C970 H962 0.930 . S
C970 C969 1.364 . S
C970 C973 1.409 . S
C971 H963 0.930 . S
C971 C972 1.355 . S
C971 C973 1.415 . S
C972 C971 1.355 . S
C972 C974 1.415 1_545 S
C973 C968 1.425 1_545 S
C973 C970 1.409 . S
C973 C971 1.415 . S
C974 H964 0.934 . S
C974 C972 1.415 1_565 S
C974 C975 1.365 . S
C975 H965 0.930 . S
C975 C968 1.409 . S
C975 C974 1.365 . S
H976 C982 0.930 . S
H977 C985 0.930 . S
H978 C986 0.930 . S
H979 C987 0.930 . S
H980 C990 0.930 . S
H981 C991 0.930 . S
C982 H976 0.930 . S
C982 C983 1.355 . S
C982 C984 1.415 . S
C983 C982 1.355 . S
C983 C985 1.419 . S
C984 C982 1.415 . S
C984 C989 1.425 1_455 S
C984 C991 1.409 . S
C985 H977 0.930 . S
C985 C983 1.419 . S
C985 C986 1.362 1_455 S
C986 H978 0.930 . S
C986 C985 1.362 1_655 S
C986 C989 1.409 . S
C987 H979 0.930 . S
C987 C988 1.355 . S
C987 C989 1.415 . S
C988 C987 1.355 . S
C988 C990 1.419 . S
C989 C984 1.425 1_655 S
C989 C986 1.409 . S
C989 C987 1.415 . S
C990 H980 0.930 . S
C990 C988 1.419 . S
C990 C991 1.362 1_655 S
C991 H981 0.930 . S
C991 C984 1.409 . S
C991 C990 1.362 1_455 S
H992 C998 0.930 . S
H993 C1001 0.930 . S
H994 C1002 0.930 1_554 S
H995 C1003 0.930 . S
H996 C1006 0.930 . S
H997 C1007 0.930 1_556 S
C998 H992 0.930 . S
C998 C999 1.355 . S
C998 C1000 1.415 . S
C999 C998 1.355 . S
C999 C1001 1.419 . S
C1000 C998 1.415 . S
C1000 C1005 1.425 1_556 S
C1000 C1007 1.409 1_556 S
C1001 H993 0.930 . S
C1001 C999 1.419 . S
C1001 C1002 1.362 . S
C1002 H994 0.930 1_556 S
C1002 C1001 1.362 . S
C1002 C1005 1.409 1_556 S
C1003 H995 0.930 . S
C1003 C1004 1.355 . S
C1003 C1005 1.415 . S
C1004 C1003 1.355 . S
C1004 C1006 1.419 . S
C1005 C1000 1.425 1_554 S
C1005 C1002 1.409 1_554 S
C1005 C1003 1.415 . S
C1006 H996 0.930 . S
C1006 C1004 1.419 . S
C1006 C1007 1.362 . S
C1007 H997 0.930 1_554 S
C1007 C1000 1.409 1_554 S
C1007 C1006 1.362 . S
H1008 C1014 0.930 . S
H1009 C1017 0.930 . S
H1010 C1018 0.930 . S
H1011 C1019 0.930 . S
H1012 C1022 0.930 . S
H1013 C1023 0.930 . S
C1014 H1008 0.930 . S
C1014 C1015 1.355 . S
C1014 C1016 1.415 . S
C1015 C1014 1.355 . S
C1015 C1017 1.419 . S
C1016 C1014 1.415 . S
C1016 C1021 1.425 . S
C1016 C1023 1.409 . S
C1017 H1009 0.930 . S
C1017 C1015 1.419 . S
C1017 C1018 1.362 . S
C1018 H1010 0.930 . S
C1018 C1017 1.362 . S
C1018 C1021 1.409 . S
C1019 H1011 0.930 . S
C1019 C1020 1.355 . S
C1019 C1021 1.415 . S
C1020 C1019 1.355 . S
C1020 C1022 1.419 . S
C1021 C1016 1.425 . S
C1021 C1018 1.409 . S
C1021 C1019 1.415 . S
C1022 H1012 0.930 . S
C1022 C1020 1.419 . S
C1022 C1023 1.362 . S
C1023 H1013 0.930 . S
C1023 C1016 1.409 . S
C1023 C1022 1.362 . S
H1024 C1030 0.930 . S
H1025 C1033 0.930 . S
H1026 C1034 0.930 . S
H1027 C1035 0.930 . S
H1028 C1038 0.930 . S
H1029 C1039 0.930 . S
C1030 H1024 0.930 . S
C1030 C1031 1.355 . S
C1030 C1032 1.415 . S
C1031 C1030 1.355 . S
C1031 C1033 1.419 . S
C1032 C1030 1.415 . S
C1032 C1037 1.425 . S
C1032 C1039 1.409 . S
C1033 H1025 0.930 . S
C1033 C1031 1.419 . S
C1033 C1034 1.362 . S
C1034 H1026 0.930 . S
C1034 C1033 1.362 . S
C1034 C1037 1.409 . S
C1035 H1027 0.930 . S
C1035 C1036 1.355 . S
C1035 C1037 1.415 . S
C1036 C1035 1.355 . S
C1036 C1038 1.419 . S
C1037 C1032 1.425 . S
C1037 C1034 1.409 . S
C1037 C1035 1.415 . S
C1038 H1028 0.930 . S
C1038 C1036 1.419 . S
C1038 C1039 1.362 . S
C1039 H1029 0.930 . S
C1039 C1032 1.409 . S
C1039 C1038 1.362 . S
H1040 C1046 0.930 1_655 S
H1041 C1049 0.930 . S
H1042 C1050 0.930 . S
H1043 C1051 0.930 1_455 S
H1044 C1054 0.930 . S
H1045 C1055 0.930 . S
C1046 H1040 0.930 1_455 S
C1046 C1047 1.355 . S
C1046 C1048 1.415 1_455 S
C1047 C1046 1.355 . S
C1047 C1049 1.419 . S
C1048 C1046 1.415 1_655 S
C1048 C1053 1.425 1_655 S
C1048 C1055 1.409 . S
C1049 H1041 0.930 . S
C1049 C1047 1.419 . S
C1049 C1050 1.362 . S
C1050 H1042 0.930 . S
C1050 C1049 1.362 . S
C1050 C1053 1.409 . S
C1051 H1043 0.930 1_655 S
C1051 C1052 1.355 . S
C1051 C1053 1.415 1_655 S
C1052 C1051 1.355 . S
C1052 C1054 1.419 . S
C1053 C1048 1.425 1_455 S
C1053 C1050 1.409 . S
C1053 C1051 1.415 1_455 S
C1054 H1044 0.930 . S
C1054 C1052 1.419 . S
C1054 C1055 1.362 . S
C1055 H1045 0.930 . S
C1055 C1048 1.409 . S
C1055 C1054 1.362 . S
H1056 C1062 0.930 . S
H1057 C1065 0.930 . S
H1058 C1066 0.930 . S
H1059 C1067 0.930 . S
H1060 C1070 0.930 . S
H1061 C1071 0.930 . S
C1062 H1056 0.930 . S
C1062 C1063 1.355 . S
C1062 C1064 1.415 . S
C1063 C1062 1.355 . S
C1063 C1065 1.419 . S
C1064 C1062 1.415 . S
C1064 C1069 1.425 . S
C1064 C1071 1.409 . S
C1065 H1057 0.930 . S
C1065 C1063 1.419 . S
C1065 C1066 1.362 . S
C1066 H1058 0.930 . S
C1066 C1065 1.362 . S
C1066 C1069 1.409 . S
C1067 H1059 0.930 . S
C1067 C1068 1.355 . S
C1067 C1069 1.415 . S
C1068 C1067 1.355 . S
C1068 C1070 1.419 . S
C1069 C1064 1.425 . S
C1069 C1066 1.409 . S
C1069 C1067 1.415 . S
C1070 H1060 0.930 . S
C1070 C1068 1.419 . S
C1070 C1071 1.362 . S
C1071 H1061 0.930 . S
C1071 C1064 1.409 . S
C1071 C1070 1.362 . S
H1072 C1078 0.930 . S
H1073 C1081 0.930 . S
H1074 C1082 0.930 . S
H1075 C1083 0.930 . S
H1076 C1086 0.930 . S
H1077 C1087 0.930 . S
C1078 H1072 0.930 . S
C1078 C1079 1.355 . S
C1078 C1080 1.415 . S
C1079 C1078 1.355 . S
C1079 C1081 1.419 . S
C1080 C1078 1.415 . S
C1080 C1085 1.425 . S
C1080 C1087 1.409 . S
C1081 H1073 0.930 . S
C1081 C1079 1.419 . S
C1081 C1082 1.362 . S
C1082 H1074 0.930 . S
C1082 C1081 1.362 . S
C1082 C1085 1.409 . S
C1083 H1075 0.930 . S
C1083 C1084 1.355 . S
C1083 C1085 1.415 . S
C1084 C1083 1.355 . S
C1084 C1086 1.419 . S
C1085 C1080 1.425 . S
C1085 C1082 1.409 . S
C1085 C1083 1.415 . S
C1086 H1076 0.930 . S
C1086 C1084 1.419 . S
C1086 C1087 1.362 . S
C1087 H1077 0.930 . S
C1087 C1080 1.409 . S
C1087 C1086 1.362 . S
H1088 C1094 0.930 . S
H1089 C1097 0.930 . S
H1090 C1098 0.930 . S
H1091 C1099 0.930 . S
H1092 C1102 0.930 . S
H1093 C1103 0.930 . S
C1094 H1088 0.930 . S
C1094 C1095 1.355 . S
C1094 C1096 1.415 . S
C1095 C1094 1.355 . S
C1095 C1097 1.419 . S
C1096 C1094 1.415 . S
C1096 C1101 1.425 . S
C1096 C1103 1.409 . S
C1097 H1089 0.930 . S
C1097 C1095 1.419 . S
C1097 C1098 1.362 . S
C1098 H1090 0.930 . S
C1098 C1097 1.362 . S
C1098 C1101 1.409 . S
C1099 H1091 0.930 . S
C1099 C1100 1.355 . S
C1099 C1101 1.415 . S
C1100 C1099 1.355 . S
C1100 C1102 1.419 . S
C1101 C1096 1.425 . S
C1101 C1098 1.409 . S
C1101 C1099 1.415 . S
C1102 H1092 0.930 . S
C1102 C1100 1.419 . S
C1102 C1103 1.362 . S
C1103 H1093 0.930 . S
C1103 C1096 1.409 . S
C1103 C1102 1.362 . S
H1104 C1110 0.930 . S
H1105 C1113 0.930 . S
H1106 C1114 0.930 . S
H1107 C1115 0.930 . S
H1108 C1118 0.930 . S
H1109 C1119 0.930 . S
C1110 H1104 0.930 . S
C1110 C1111 1.355 1_565 S
C1110 C1112 1.415 . S
C1111 C1110 1.355 1_545 S
C1111 C1113 1.419 . S
C1112 C1110 1.415 . S
C1112 C1117 1.425 1_565 S
C1112 C1119 1.409 . S
C1113 H1105 0.930 . S
C1113 C1111 1.419 . S
C1113 C1114 1.362 . S
C1114 H1106 0.930 . S
C1114 C1113 1.362 . S
C1114 C1117 1.409 . S
C1115 H1107 0.930 . S
C1115 C1116 1.355 1_545 S
C1115 C1117 1.415 . S
C1116 C1115 1.355 1_565 S
C1116 C1118 1.419 . S
C1117 C1112 1.425 1_545 S
C1117 C1114 1.409 . S
C1117 C1115 1.415 . S
C1118 H1108 0.930 . S
C1118 C1116 1.419 . S
C1118 C1119 1.362 . S
C1119 H1109 0.930 . S
C1119 C1112 1.409 . S
C1119 C1118 1.362 . S
H1120 C1126 0.930 . S
H1121 C1129 0.930 . S
H1122 C1130 0.930 . S
H1123 C1131 0.930 . S
H1124 C1134 0.930 . S
H1125 C1135 0.930 . S
C1126 H1120 0.930 . S
C1126 C1127 1.355 . S
C1126 C1128 1.415 . S
C1127 C1126 1.355 . S
C1127 C1129 1.419 . S
C1128 C1126 1.415 . S
C1128 C1133 1.425 . S
C1128 C1135 1.409 . S
C1129 H1121 0.930 . S
C1129 C1127 1.419 . S
C1129 C1130 1.362 . S
C1130 H1122 0.930 . S
C1130 C1129 1.362 . S
C1130 C1133 1.409 . S
C1131 H1123 0.930 . S
C1131 C1132 1.355 . S
C1131 C1133 1.415 . S
C1132 C1131 1.355 . S
C1132 C1134 1.419 . S
C1133 C1128 1.425 . S
C1133 C1130 1.409 . S
C1133 C1131 1.415 . S
C1134 H1124 0.930 . S
C1134 C1132 1.419 . S
C1134 C1135 1.362 . S
C1135 H1125 0.930 . S
C1135 C1128 1.409 . S
C1135 C1134 1.362 . S
H1136 C1142 0.930 . S
H1137 C1145 0.930 . S
H1138 C1146 0.930 . S
H1139 C1147 0.930 . S
H1140 C1150 0.930 . S
H1141 C1151 0.930 . S
C1142 H1136 0.930 . S
C1142 C1143 1.355 . S
C1142 C1144 1.415 1_554 S
C1143 C1142 1.355 . S
C1143 C1145 1.419 . S
C1144 C1142 1.415 1_556 S
C1144 C1149 1.425 1_556 S
C1144 C1151 1.409 . S
C1145 H1137 0.930 . S
C1145 C1143 1.419 . S
C1145 C1146 1.362 . S
C1146 H1138 0.930 . S
C1146 C1145 1.362 . S
C1146 C1149 1.409 . S
C1147 H1139 0.930 . S
C1147 C1148 1.355 . S
C1147 C1149 1.415 1_556 S
C1148 C1147 1.355 . S
C1148 C1150 1.419 . S
C1149 C1144 1.425 1_554 S
C1149 C1146 1.409 . S
C1149 C1147 1.415 1_554 S
C1150 H1140 0.930 . S
C1150 C1148 1.419 . S
C1150 C1151 1.362 . S
C1151 H1141 0.930 . S
C1151 C1144 1.409 . S
C1151 C1150 1.362 . S
H1152 C1158 0.930 . S
H1153 C1161 0.930 . S
H1154 C1162 0.930 . S
H1155 C1163 0.930 . S
H1156 C1166 0.930 . S
H1157 C1167 0.930 . S
C1158 H1152 0.930 . S
C1158 C1159 1.367 . S
C1158 C1160 1.415 . S
C1159 C1158 1.367 . S
C1159 C1161 1.403 1_565 S
C1160 C1158 1.415 . S
C1160 C1165 1.425 1_565 S
C1160 C1167 1.409 . S
C1161 H1153 0.930 . S
C1161 C1159 1.403 1_545 S
C1161 C1162 1.362 . S
C1162 H1154 0.930 . S
C1162 C1161 1.362 . S
C1162 C1165 1.409 . S
C1163 H1155 0.930 . S
C1163 C1164 1.355 1_545 S
C1163 C1165 1.415 . S
C1164 C1163 1.355 1_565 S
C1164 C1166 1.419 . S
C1165 C1160 1.425 1_545 S
C1165 C1162 1.409 . S
C1165 C1163 1.415 . S
C1166 H1156 0.930 . S
C1166 C1164 1.419 . S
C1166 C1167 1.362 . S
C1167 H1157 0.930 . S
C1167 C1160 1.409 . S
C1167 C1166 1.362 . S
H1168 C1174 0.930 . S
H1169 C1177 0.930 . S
H1170 C1178 0.930 . S
H1171 C1179 0.930 . S
H1172 C1182 0.930 . S
H1173 C1183 0.930 . S
C1174 H1168 0.930 . S
C1174 C1175 1.355 . S
C1174 C1176 1.415 . S
C1175 C1174 1.355 . S
C1175 C1177 1.419 . S
C1176 C1174 1.415 . S
C1176 C1181 1.425 . S
C1176 C1183 1.409 . S
C1177 H1169 0.930 . S
C1177 C1175 1.419 . S
C1177 C1178 1.362 . S
C1178 H1170 0.930 . S
C1178 C1177 1.362 . S
C1178 C1181 1.409 . S
C1179 H1171 0.930 . S
C1179 C1180 1.355 . S
C1179 C1181 1.415 . S
C1180 C1179 1.355 . S
C1180 C1182 1.419 . S
C1181 C1176 1.425 . S
C1181 C1178 1.409 . S
C1181 C1179 1.415 . S
C1182 H1172 0.930 . S
C1182 C1180 1.419 . S
C1182 C1183 1.362 . S
C1183 H1173 0.930 . S
C1183 C1176 1.409 . S
C1183 C1182 1.362 . S
H1184 C1190 0.930 . S
H1185 C1193 0.930 . S
H1186 C1194 0.930 . S
H1187 C1195 0.930 . S
H1188 C1198 0.930 . S
H1189 C1199 0.930 . S
C1190 H1184 0.930 . S
C1190 C1191 1.355 . S
C1190 C1192 1.415 . S
C1191 C1190 1.355 . S
C1191 C1193 1.419 . S
C1192 C1190 1.415 . S
C1192 C1197 1.425 . S
C1192 C1199 1.409 . S
C1193 H1185 0.930 . S
C1193 C1191 1.419 . S
C1193 C1194 1.362 . S
C1194 H1186 0.930 . S
C1194 C1193 1.362 . S
C1194 C1197 1.409 . S
C1195 H1187 0.930 . S
C1195 C1196 1.355 . S
C1195 C1197 1.415 . S
C1196 C1195 1.355 . S
C1196 C1198 1.419 . S
C1197 C1192 1.425 . S
C1197 C1194 1.409 . S
C1197 C1195 1.415 . S
C1198 H1188 0.930 . S
C1198 C1196 1.419 . S
C1198 C1199 1.362 . S
C1199 H1189 0.930 . S
C1199 C1192 1.409 . S
C1199 C1198 1.362 . S
H1200 C1206 0.930 . S
H1201 C1209 0.930 . S
H1202 C1210 0.930 . S
H1203 C1211 0.930 . S
H1204 C1214 0.930 . S
H1205 C1215 0.930 . S
C1206 H1200 0.930 . S
C1206 C1207 1.355 1_545 S
C1206 C1208 1.415 . S
C1207 C1206 1.355 1_565 S
C1207 C1209 1.419 . S
C1208 C1206 1.415 . S
C1208 C1213 1.425 1_545 S
C1208 C1215 1.409 . S
C1209 H1201 0.930 . S
C1209 C1207 1.419 . S
C1209 C1210 1.362 . S
C1210 H1202 0.930 . S
C1210 C1209 1.362 . S
C1210 C1213 1.409 . S
C1211 H1203 0.930 . S
C1211 C1212 1.356 1_565 S
C1211 C1213 1.415 . S
C1212 C1211 1.356 1_545 S
C1212 C1214 1.418 . S
C1213 C1208 1.425 1_565 S
C1213 C1210 1.409 . S
C1213 C1211 1.415 . S
C1214 H1204 0.930 . S
C1214 C1212 1.418 . S
C1214 C1215 1.362 . S
C1215 H1205 0.930 . S
C1215 C1208 1.409 . S
C1215 C1214 1.362 . S
H1216 C1222 0.930 . S
H1217 C1225 0.930 . S
H1218 C1226 0.930 . S
H1219 C1227 0.930 . S
H1220 C1230 0.930 . S
H1221 C1231 0.930 . S
C1222 H1216 0.930 . S
C1222 C1223 1.355 1_565 S
C1222 C1224 1.415 . S
C1223 C1222 1.355 1_545 S
C1223 C1225 1.419 . S
C1224 C1222 1.415 . S
C1224 C1229 1.425 1_565 S
C1224 C1231 1.409 . S
C1225 H1217 0.930 . S
C1225 C1223 1.419 . S
C1225 C1226 1.362 . S
C1226 H1218 0.930 . S
C1226 C1225 1.362 . S
C1226 C1229 1.409 . S
C1227 H1219 0.930 . S
C1227 C1228 1.377 . S
C1227 C1229 1.415 . S
C1228 C1227 1.377 . S
C1228 C1230 1.392 1_545 S
C1229 C1224 1.425 1_545 S
C1229 C1226 1.409 . S
C1229 C1227 1.415 . S
C1230 H1220 0.930 . S
C1230 C1228 1.392 1_565 S
C1230 C1231 1.362 . S
C1231 H1221 0.930 . S
C1231 C1224 1.409 . S
C1231 C1230 1.362 . S
H1232 C1238 0.930 . S
H1233 C1241 0.930 . S
H1234 C1242 0.930 . S
H1235 C1243 0.930 . S
H1236 C1246 0.930 . S
H1237 C1247 0.930 . S
C1238 H1232 0.930 . S
C1238 C1239 1.355 . S
C1238 C1240 1.415 . S
C1239 C1238 1.355 . S
C1239 C1241 1.419 . S
C1240 C1238 1.415 . S
C1240 C1245 1.425 . S
C1240 C1247 1.409 . S
C1241 H1233 0.930 . S
C1241 C1239 1.419 . S
C1241 C1242 1.362 . S
C1242 H1234 0.930 . S
C1242 C1241 1.362 . S
C1242 C1245 1.409 . S
C1243 H1235 0.930 . S
C1243 C1244 1.355 . S
C1243 C1245 1.415 . S
C1244 C1243 1.355 . S
C1244 C1246 1.419 . S
C1245 C1240 1.425 . S
C1245 C1242 1.409 . S
C1245 C1243 1.415 . S
C1246 H1236 0.930 . S
C1246 C1244 1.419 . S
C1246 C1247 1.362 . S
C1247 H1237 0.930 . S
C1247 C1240 1.409 . S
C1247 C1246 1.362 . S
H1248 C1254 0.930 . S
H1249 C1257 0.930 . S
H1250 C1258 0.930 . S
H1251 C1259 0.930 . S
H1252 C1262 0.930 . S
H1253 C1263 0.930 . S
C1254 H1248 0.930 . S
C1254 C1255 1.355 . S
C1254 C1256 1.415 . S
C1255 C1254 1.355 . S
C1255 C1257 1.419 . S
C1256 C1254 1.415 . S
C1256 C1261 1.425 . S
C1256 C1263 1.409 . S
C1257 H1249 0.930 . S
C1257 C1255 1.419 . S
C1257 C1258 1.362 . S
C1258 H1250 0.930 . S
C1258 C1257 1.362 . S
C1258 C1261 1.409 . S
C1259 H1251 0.930 . S
C1259 C1260 1.355 . S
C1259 C1261 1.415 . S
C1260 C1259 1.355 . S
C1260 C1262 1.419 . S
C1261 C1256 1.425 . S
C1261 C1258 1.409 . S
C1261 C1259 1.415 . S
C1262 H1252 0.930 . S
C1262 C1260 1.419 . S
C1262 C1263 1.362 . S
C1263 H1253 0.930 . S
C1263 C1256 1.409 . S
C1263 C1262 1.362 . S
H1264 C1270 0.930 . S
H1265 C1273 0.930 . S
H1266 C1274 0.930 . S
H1267 C1275 0.930 . S
H1268 C1278 0.930 . S
H1269 C1279 0.930 . S
C1270 H1264 0.930 . S
C1270 C1271 1.355 1_565 S
C1270 C1272 1.415 . S
C1271 C1270 1.355 1_545 S
C1271 C1273 1.419 . S
C1272 C1270 1.415 . S
C1272 C1277 1.425 1_565 S
C1272 C1279 1.409 . S
C1273 H1265 0.930 . S
C1273 C1271 1.419 . S
C1273 C1274 1.362 . S
C1274 H1266 0.930 . S
C1274 C1273 1.362 . S
C1274 C1277 1.409 . S
C1275 H1267 0.930 . S
C1275 C1276 1.350 1_545 S
C1275 C1277 1.415 . S
C1276 C1275 1.350 1_565 S
C1276 C1278 1.425 . S
C1277 C1272 1.425 1_545 S
C1277 C1274 1.409 . S
C1277 C1275 1.415 . S
C1278 H1268 0.930 . S
C1278 C1276 1.425 . S
C1278 C1279 1.362 . S
C1279 H1269 0.930 . S
C1279 C1272 1.409 . S
C1279 C1278 1.362 . S
H1280 C1286 0.930 . S
H1281 C1289 0.930 . S
H1282 C1290 0.930 . S
H1283 C1291 0.930 . S
H1284 C1294 0.930 . S
H1285 C1295 0.930 . S
C1286 H1280 0.930 . S
C1286 C1287 1.355 . S
C1286 C1288 1.415 . S
C1287 C1286 1.355 . S
C1287 C1289 1.419 . S
C1288 C1286 1.415 . S
C1288 C1293 1.425 . S
C1288 C1295 1.409 . S
C1289 H1281 0.930 . S
C1289 C1287 1.419 . S
C1289 C1290 1.362 . S
C1290 H1282 0.930 . S
C1290 C1289 1.362 . S
C1290 C1293 1.409 . S
C1291 H1283 0.930 . S
C1291 C1292 1.355 . S
C1291 C1293 1.415 . S
C1292 C1291 1.355 . S
C1292 C1294 1.419 . S
C1293 C1288 1.425 . S
C1293 C1290 1.409 . S
C1293 C1291 1.415 . S
C1294 H1284 0.930 . S
C1294 C1292 1.419 . S
C1294 C1295 1.362 . S
C1295 H1285 0.930 . S
C1295 C1288 1.409 . S
C1295 C1294 1.362 . S
H1296 C1302 0.930 . S
H1297 C1305 0.930 . S
H1298 C1306 0.930 . S
H1299 C1307 0.930 . S
H1300 C1310 0.930 . S
H1301 C1311 0.930 . S
C1302 H1296 0.930 . S
C1302 C1303 1.355 . S
C1302 C1304 1.415 . S
C1303 C1302 1.355 . S
C1303 C1305 1.419 . S
C1304 C1302 1.415 . S
C1304 C1309 1.425 . S
C1304 C1311 1.409 . S
C1305 H1297 0.930 . S
C1305 C1303 1.419 . S
C1305 C1306 1.362 . S
C1306 H1298 0.930 . S
C1306 C1305 1.362 . S
C1306 C1309 1.409 . S
C1307 H1299 0.930 . S
C1307 C1308 1.355 . S
C1307 C1309 1.415 . S
C1308 C1307 1.355 . S
C1308 C1310 1.419 . S
C1309 C1304 1.425 . S
C1309 C1306 1.409 . S
C1309 C1307 1.415 . S
C1310 H1300 0.930 . S
C1310 C1308 1.419 . S
C1310 C1311 1.362 . S
C1311 H1301 0.930 . S
C1311 C1304 1.409 . S
C1311 C1310 1.362 . S
H1312 C1318 0.930 . S
H1313 C1321 0.930 . S
H1314 C1322 0.930 . S
H1315 C1323 0.930 . S
H1316 C1326 0.930 . S
H1317 C1327 0.930 . S
C1318 H1312 0.930 . S
C1318 C1319 1.355 . S
C1318 C1320 1.415 . S
C1319 C1318 1.355 . S
C1319 C1321 1.419 . S
C1320 C1318 1.415 . S
C1320 C1325 1.425 . S
C1320 C1327 1.409 . S
C1321 H1313 0.930 . S
C1321 C1319 1.419 . S
C1321 C1322 1.362 . S
C1322 H1314 0.930 . S
C1322 C1321 1.362 . S
C1322 C1325 1.409 . S
C1323 H1315 0.930 . S
C1323 C1324 1.355 . S
C1323 C1325 1.415 . S
C1324 C1323 1.355 . S
C1324 C1326 1.419 . S
C1325 C1320 1.425 . S
C1325 C1322 1.409 . S
C1325 C1323 1.415 . S
C1326 H1316 0.930 . S
C1326 C1324 1.419 . S
C1326 C1327 1.362 . S
C1327 H1317 0.930 . S
C1327 C1320 1.409 . S
C1327 C1326 1.362 . S
H1328 C1334 0.930 . S
H1329 C1337 0.930 . S
H1330 C1338 0.930 . S
H1331 C1339 0.930 . S
H1332 C1342 0.930 . S
H1333 C1343 0.930 . S
C1334 H1328 0.930 . S
C1334 C1335 1.355 . S
C1334 C1336 1.415 . S
C1335 C1334 1.355 . S
C1335 C1337 1.419 . S
C1336 C1334 1.415 . S
C1336 C1341 1.425 . S
C1336 C1343 1.409 . S
C1337 H1329 0.930 . S
C1337 C1335 1.419 . S
C1337 C1338 1.362 . S
C1338 H1330 0.930 . S
C1338 C1337 1.362 . S
C1338 C1341 1.409 . S
C1339 H1331 0.930 . S
C1339 C1340 1.355 . S
C1339 C1341 1.415 . S
C1340 C1339 1.355 . S
C1340 C1342 1.419 . S
C1341 C1336 1.425 . S
C1341 C1338 1.409 . S
C1341 C1339 1.415 . S
C1342 H1332 0.930 . S
C1342 C1340 1.419 . S
C1342 C1343 1.362 . S
C1343 H1333 0.930 . S
C1343 C1336 1.409 . S
C1343 C1342 1.362 . S
H1344 C1350 0.930 . S
H1345 C1353 0.930 . S
H1346 C1354 0.930 . S
H1347 C1355 0.930 . S
H1348 C1358 0.930 . S
H1349 C1359 0.930 . S
C1350 H1344 0.930 . S
C1350 C1351 1.355 . S
C1350 C1352 1.415 . S
C1351 C1350 1.355 . S
C1351 C1353 1.419 . S
C1352 C1350 1.415 . S
C1352 C1357 1.425 . S
C1352 C1359 1.409 . S
C1353 H1345 0.930 . S
C1353 C1351 1.419 . S
C1353 C1354 1.362 . S
C1354 H1346 0.930 . S
C1354 C1353 1.362 . S
C1354 C1357 1.409 . S
C1355 H1347 0.930 . S
C1355 C1356 1.355 . S
C1355 C1357 1.415 . S
C1356 C1355 1.355 . S
C1356 C1358 1.419 . S
C1357 C1352 1.425 . S
C1357 C1354 1.409 . S
C1357 C1355 1.415 . S
C1358 H1348 0.930 . S
C1358 C1356 1.419 . S
C1358 C1359 1.362 . S
C1359 H1349 0.930 . S
C1359 C1352 1.409 . S
C1359 C1358 1.362 . S
H1360 C1366 0.930 . S
H1361 C1369 0.930 . S
H1362 C1370 0.930 . S
H1363 C1371 0.930 . S
H1364 C1374 0.930 . S
H1365 C1375 0.930 . S
C1366 H1360 0.930 . S
C1366 C1367 1.355 . S
C1366 C1368 1.415 . S
C1367 C1366 1.355 . S
C1367 C1369 1.419 . S
C1368 C1366 1.415 . S
C1368 C1373 1.425 . S
C1368 C1375 1.409 . S
C1369 H1361 0.930 . S
C1369 C1367 1.419 . S
C1369 C1370 1.362 . S
C1370 H1362 0.930 . S
C1370 C1369 1.362 . S
C1370 C1373 1.409 . S
C1371 H1363 0.930 . S
C1371 C1372 1.355 . S
C1371 C1373 1.415 . S
C1372 C1371 1.355 . S
C1372 C1374 1.419 . S
C1373 C1368 1.425 . S
C1373 C1370 1.409 . S
C1373 C1371 1.415 . S
C1374 H1364 0.930 . S
C1374 C1372 1.419 . S
C1374 C1375 1.362 . S
C1375 H1365 0.930 . S
C1375 C1368 1.409 . S
C1375 C1374 1.362 . S
H1376 C1382 0.930 . S
H1377 C1385 0.930 . S
H1378 C1386 0.930 . S
H1379 C1387 0.930 . S
H1380 C1390 0.930 . S
H1381 C1391 0.930 . S
C1382 H1376 0.930 . S
C1382 C1383 1.355 . S
C1382 C1384 1.415 . S
C1383 C1382 1.355 . S
C1383 C1385 1.419 . S
C1384 C1382 1.415 . S
C1384 C1389 1.425 . S
C1384 C1391 1.409 . S
C1385 H1377 0.930 . S
C1385 C1383 1.419 . S
C1385 C1386 1.362 . S
C1386 H1378 0.930 . S
C1386 C1385 1.362 . S
C1386 C1389 1.409 . S
C1387 H1379 0.930 . S
C1387 C1388 1.355 . S
C1387 C1389 1.415 . S
C1388 C1387 1.355 . S
C1388 C1390 1.419 . S
C1389 C1384 1.425 . S
C1389 C1386 1.409 . S
C1389 C1387 1.415 . S
C1390 H1380 0.930 . S
C1390 C1388 1.419 . S
C1390 C1391 1.362 . S
C1391 H1381 0.930 . S
C1391 C1384 1.409 . S
C1391 C1390 1.362 . S
H1392 C1398 0.930 . S
H1393 C1401 0.930 . S
H1394 C1402 0.930 . S
H1395 C1403 0.930 . S
H1396 C1406 0.930 . S
H1397 C1407 0.930 . S
C1398 H1392 0.930 . S
C1398 C1399 1.355 . S
C1398 C1400 1.415 . S
C1399 C1398 1.355 . S
C1399 C1401 1.419 . S
C1400 C1398 1.415 . S
C1400 C1405 1.425 . S
C1400 C1407 1.409 . S
C1401 H1393 0.930 . S
C1401 C1399 1.419 . S
C1401 C1402 1.362 . S
C1402 H1394 0.930 . S
C1402 C1401 1.362 . S
C1402 C1405 1.409 . S
C1403 H1395 0.930 . S
C1403 C1404 1.355 . S
C1403 C1405 1.415 . S
C1404 C1403 1.355 . S
C1404 C1406 1.419 . S
C1405 C1400 1.425 . S
C1405 C1402 1.409 . S
C1405 C1403 1.415 . S
C1406 H1396 0.930 . S
C1406 C1404 1.419 . S
C1406 C1407 1.362 . S
C1407 H1397 0.930 . S
C1407 C1400 1.409 . S
C1407 C1406 1.362 . S
H1408 C1414 0.930 . S
H1409 C1417 0.930 . S
H1410 C1418 0.930 . S
H1411 C1419 0.930 . S
H1412 C1422 0.930 . S
H1413 C1423 0.930 . S
C1414 H1408 0.930 . S
C1414 C1415 1.355 . S
C1414 C1416 1.415 . S
C1415 C1414 1.355 . S
C1415 C1417 1.419 . S
C1416 C1414 1.415 . S
C1416 C1421 1.425 . S
C1416 C1423 1.409 . S
C1417 H1409 0.930 . S
C1417 C1415 1.419 . S
C1417 C1418 1.362 . S
C1418 H1410 0.930 . S
C1418 C1417 1.362 . S
C1418 C1421 1.409 . S
C1419 H1411 0.930 . S
C1419 C1420 1.355 . S
C1419 C1421 1.415 . S
C1420 C1419 1.355 . S
C1420 C1422 1.419 . S
C1421 C1416 1.425 . S
C1421 C1418 1.409 . S
C1421 C1419 1.415 . S
C1422 H1412 0.930 . S
C1422 C1420 1.419 . S
C1422 C1423 1.362 . S
C1423 H1413 0.930 . S
C1423 C1416 1.409 . S
C1423 C1422 1.362 . S
H1424 C1430 0.930 . S
H1425 C1433 0.930 . S
H1426 C1434 0.930 . S
H1427 C1435 0.930 . S
H1428 C1438 0.930 . S
H1429 C1439 0.930 . S
C1430 H1424 0.930 . S
C1430 C1431 1.355 . S
C1430 C1432 1.415 . S
C1431 C1430 1.355 . S
C1431 C1433 1.419 . S
C1432 C1430 1.415 . S
C1432 C1437 1.425 . S
C1432 C1439 1.409 . S
C1433 H1425 0.930 . S
C1433 C1431 1.419 . S
C1433 C1434 1.362 . S
C1434 H1426 0.930 . S
C1434 C1433 1.362 . S
C1434 C1437 1.409 . S
C1435 H1427 0.930 . S
C1435 C1436 1.355 . S
C1435 C1437 1.415 . S
C1436 C1435 1.355 . S
C1436 C1438 1.419 . S
C1437 C1432 1.425 . S
C1437 C1434 1.409 . S
C1437 C1435 1.415 . S
C1438 H1428 0.930 . S
C1438 C1436 1.419 . S
C1438 C1439 1.362 . S
C1439 H1429 0.930 . S
C1439 C1432 1.409 . S
C1439 C1438 1.362 . S
H1440 C1446 0.930 . S
H1441 C1449 0.930 . S
H1442 C1450 0.930 . S
H1443 C1451 0.930 . S
H1444 C1454 0.930 . S
H1445 C1455 0.930 . S
C1446 H1440 0.930 . S
C1446 C1447 1.355 . S
C1446 C1448 1.415 . S
C1447 C1446 1.355 . S
C1447 C1449 1.419 . S
C1448 C1446 1.415 . S
C1448 C1453 1.425 . S
C1448 C1455 1.409 . S
C1449 H1441 0.930 . S
C1449 C1447 1.419 . S
C1449 C1450 1.362 . S
C1450 H1442 0.930 . S
C1450 C1449 1.362 . S
C1450 C1453 1.409 . S
C1451 H1443 0.930 . S
C1451 C1452 1.355 . S
C1451 C1453 1.415 . S
C1452 C1451 1.355 . S
C1452 C1454 1.419 . S
C1453 C1448 1.425 . S
C1453 C1450 1.409 . S
C1453 C1451 1.415 . S
C1454 H1444 0.930 . S
C1454 C1452 1.419 . S
C1454 C1455 1.362 . S
C1455 H1445 0.930 . S
C1455 C1448 1.409 . S
C1455 C1454 1.362 . S
H1456 C1462 0.930 . S
H1457 C1465 0.930 . S
H1458 C1466 0.930 . S
H1459 C1467 0.930 . S
H1460 C1470 0.930 . S
H1461 C1471 0.930 . S
C1462 H1456 0.930 . S
C1462 C1463 1.355 . S
C1462 C1464 1.415 . S
C1463 C1462 1.355 . S
C1463 C1465 1.419 . S
C1464 C1462 1.415 . S
C1464 C1469 1.425 . S
C1464 C1471 1.409 . S
C1465 H1457 0.930 . S
C1465 C1463 1.419 . S
C1465 C1466 1.362 . S
C1466 H1458 0.930 . S
C1466 C1465 1.362 . S
C1466 C1469 1.409 . S
C1467 H1459 0.930 . S
C1467 C1468 1.355 . S
C1467 C1469 1.415 . S
C1468 C1467 1.355 . S
C1468 C1470 1.419 . S
C1469 C1464 1.425 . S
C1469 C1466 1.409 . S
C1469 C1467 1.415 . S
C1470 H1460 0.930 . S
C1470 C1468 1.419 . S
C1470 C1471 1.362 . S
C1471 H1461 0.930 . S
C1471 C1464 1.409 . S
C1471 C1470 1.362 . S
H1472 C1478 0.930 . S
H1473 C1481 0.930 . S
H1474 C1482 0.930 . S
H1475 C1483 0.930 . S
H1476 C1486 0.930 . S
H1477 C1487 0.930 . S
C1478 H1472 0.930 . S
C1478 C1479 1.355 . S
C1478 C1480 1.415 . S
C1479 C1478 1.355 . S
C1479 C1481 1.419 . S
C1480 C1478 1.415 . S
C1480 C1485 1.425 . S
C1480 C1487 1.409 . S
C1481 H1473 0.930 . S
C1481 C1479 1.419 . S
C1481 C1482 1.362 . S
C1482 H1474 0.930 . S
C1482 C1481 1.362 . S
C1482 C1485 1.409 . S
C1483 H1475 0.930 . S
C1483 C1484 1.355 . S
C1483 C1485 1.415 . S
C1484 C1483 1.355 . S
C1484 C1486 1.419 . S
C1485 C1480 1.425 . S
C1485 C1482 1.409 . S
C1485 C1483 1.415 . S
C1486 H1476 0.930 . S
C1486 C1484 1.419 . S
C1486 C1487 1.362 . S
C1487 H1477 0.930 . S
C1487 C1480 1.409 . S
C1487 C1486 1.362 . S
H1488 C1494 0.930 . S
H1489 C1497 0.930 . S
H1490 C1498 0.930 . S
H1491 C1499 0.930 . S
H1492 C1502 0.930 . S
H1493 C1503 0.930 . S
C1494 H1488 0.930 . S
C1494 C1495 1.355 . S
C1494 C1496 1.415 . S
C1495 C1494 1.355 . S
C1495 C1497 1.419 . S
C1496 C1494 1.415 . S
C1496 C1501 1.425 . S
C1496 C1503 1.409 . S
C1497 H1489 0.930 . S
C1497 C1495 1.419 . S
C1497 C1498 1.362 . S
C1498 H1490 0.930 . S
C1498 C1497 1.362 . S
C1498 C1501 1.409 . S
C1499 H1491 0.930 . S
C1499 C1500 1.355 . S
C1499 C1501 1.415 . S
C1500 C1499 1.355 . S
C1500 C1502 1.419 . S
C1501 C1496 1.425 . S
C1501 C1498 1.409 . S
C1501 C1499 1.415 . S
C1502 H1492 0.930 . S
C1502 C1500 1.419 . S
C1502 C1503 1.362 . S
C1503 H1493 0.930 . S
C1503 C1496 1.409 . S
C1503 C1502 1.362 . S
H1504 C1510 0.930 . S
H1505 C1513 0.930 . S
H1506 C1514 0.930 . S
H1507 C1515 0.930 . S
H1508 C1518 0.930 . S
H1509 C1519 0.930 . S
C1510 H1504 0.930 . S
C1510 C1511 1.355 . S
C1510 C1512 1.415 . S
C1511 C1510 1.355 . S
C1511 C1513 1.419 . S
C1512 C1510 1.415 . S
C1512 C1517 1.425 . S
C1512 C1519 1.409 . S
C1513 H1505 0.930 . S
C1513 C1511 1.419 . S
C1513 C1514 1.362 . S
C1514 H1506 0.930 . S
C1514 C1513 1.362 . S
C1514 C1517 1.409 . S
C1515 H1507 0.930 . S
C1515 C1516 1.355 . S
C1515 C1517 1.415 . S
C1516 C1515 1.355 . S
C1516 C1518 1.419 . S
C1517 C1512 1.425 . S
C1517 C1514 1.409 . S
C1517 C1515 1.415 . S
C1518 H1508 0.930 . S
C1518 C1516 1.419 . S
C1518 C1519 1.362 . S
C1519 H1509 0.930 . S
C1519 C1512 1.409 . S
C1519 C1518 1.362 . S
H1520 C1526 0.930 . S
H1521 C1529 0.930 . S
H1522 C1530 0.930 . S
H1523 C1531 0.930 . S
H1524 C1534 0.930 . S
H1525 C1535 0.930 . S
C1526 H1520 0.930 . S
C1526 C1527 1.355 . S
C1526 C1528 1.415 . S
C1527 C1526 1.355 . S
C1527 C1529 1.419 . S
C1528 C1526 1.415 . S
C1528 C1533 1.425 . S
C1528 C1535 1.409 . S
C1529 H1521 0.930 . S
C1529 C1527 1.419 . S
C1529 C1530 1.362 . S
C1530 H1522 0.930 . S
C1530 C1529 1.362 . S
C1530 C1533 1.409 . S
C1531 H1523 0.930 . S
C1531 C1532 1.355 . S
C1531 C1533 1.415 . S
C1532 C1531 1.355 . S
C1532 C1534 1.419 . S
C1533 C1528 1.425 . S
C1533 C1530 1.409 . S
C1533 C1531 1.415 . S
C1534 H1524 0.930 . S
C1534 C1532 1.419 . S
C1534 C1535 1.362 . S
C1535 H1525 0.930 . S
C1535 C1528 1.409 . S
C1535 C1534 1.362 . S
H1536 C1542 0.930 . S
H1537 C1545 0.930 . S
H1538 C1546 0.930 . S
H1539 C1547 0.930 . S
H1540 C1550 0.930 . S
H1541 C1551 0.930 . S
C1542 H1536 0.930 . S
C1542 C1543 1.355 . S
C1542 C1544 1.415 . S
C1543 C1542 1.355 . S
C1543 C1545 1.419 . S
C1544 C1542 1.415 . S
C1544 C1549 1.425 . S
C1544 C1551 1.409 . S
C1545 H1537 0.930 . S
C1545 C1543 1.419 . S
C1545 C1546 1.362 . S
C1546 H1538 0.930 . S
C1546 C1545 1.362 . S
C1546 C1549 1.409 . S
C1547 H1539 0.930 . S
C1547 C1548 1.355 . S
C1547 C1549 1.415 . S
C1548 C1547 1.355 . S
C1548 C1550 1.419 . S
C1549 C1544 1.425 . S
C1549 C1546 1.409 . S
C1549 C1547 1.415 . S
C1550 H1540 0.930 . S
C1550 C1548 1.419 . S
C1550 C1551 1.362 . S
C1551 H1541 0.930 . S
C1551 C1544 1.409 . S
C1551 C1550 1.362 . S
H1552 C1558 0.930 . S
H1553 C1561 0.930 . S
H1554 C1562 0.930 . S
H1555 C1563 0.930 . S
H1556 C1566 0.930 . S
H1557 C1567 0.930 . S
C1558 H1552 0.930 . S
C1558 C1559 1.355 . S
C1558 C1560 1.415 . S
C1559 C1558 1.355 . S
C1559 C1561 1.419 . S
C1560 C1558 1.415 . S
C1560 C1565 1.425 . S
C1560 C1567 1.409 . S
C1561 H1553 0.930 . S
C1561 C1559 1.419 . S
C1561 C1562 1.362 . S
C1562 H1554 0.930 . S
C1562 C1561 1.362 . S
C1562 C1565 1.409 . S
C1563 H1555 0.930 . S
C1563 C1564 1.355 . S
C1563 C1565 1.415 . S
C1564 C1563 1.355 . S
C1564 C1566 1.419 . S
C1565 C1560 1.425 . S
C1565 C1562 1.409 . S
C1565 C1563 1.415 . S
C1566 H1556 0.930 . S
C1566 C1564 1.419 . S
C1566 C1567 1.362 . S
C1567 H1557 0.930 . S
C1567 C1560 1.409 . S
C1567 C1566 1.362 . S
H1568 C1574 0.930 . S
H1569 C1577 0.930 . S
H1570 C1578 0.930 . S
H1571 C1579 0.930 . S
H1572 C1582 0.930 . S
H1573 C1583 0.930 . S
C1574 H1568 0.930 . S
C1574 C1575 1.355 . S
C1574 C1576 1.415 . S
C1575 C1574 1.355 . S
C1575 C1577 1.419 . S
C1576 C1574 1.415 . S
C1576 C1581 1.425 . S
C1576 C1583 1.409 . S
C1577 H1569 0.930 . S
C1577 C1575 1.419 . S
C1577 C1578 1.362 . S
C1578 H1570 0.930 . S
C1578 C1577 1.362 . S
C1578 C1581 1.409 . S
C1579 H1571 0.930 . S
C1579 C1580 1.355 . S
C1579 C1581 1.415 . S
C1580 C1579 1.355 . S
C1580 C1582 1.419 . S
C1581 C1576 1.425 . S
C1581 C1578 1.409 . S
C1581 C1579 1.415 . S
C1582 H1572 0.930 . S
C1582 C1580 1.419 . S
C1582 C1583 1.362 . S
C1583 H1573 0.930 . S
C1583 C1576 1.409 . S
C1583 C1582 1.362 . S
H1584 C1590 0.930 . S
H1585 C1593 0.930 . S
H1586 C1594 0.930 . S
H1587 C1595 0.930 . S
H1588 C1598 0.930 . S
H1589 C1599 0.930 . S
C1590 H1584 0.930 . S
C1590 C1591 1.355 . S
C1590 C1592 1.415 . S
C1591 C1590 1.355 . S
C1591 C1593 1.419 . S
C1592 C1590 1.415 . S
C1592 C1597 1.425 . S
C1592 C1599 1.409 . S
C1593 H1585 0.930 . S
C1593 C1591 1.419 . S
C1593 C1594 1.362 . S
C1594 H1586 0.930 . S
C1594 C1593 1.362 . S
C1594 C1597 1.409 . S
C1595 H1587 0.930 . S
C1595 C1596 1.355 . S
C1595 C1597 1.415 . S
C1596 C1595 1.355 . S
C1596 C1598 1.419 . S
C1597 C1592 1.425 . S
C1597 C1594 1.409 . S
C1597 C1595 1.415 . S
C1598 H1588 0.930 . S
C1598 C1596 1.419 . S
C1598 C1599 1.362 . S
C1599 H1589 0.930 . S
C1599 C1592 1.409 . S
C1599 C1598 1.362 . S
H1600 C1606 0.930 . S
H1601 C1609 0.930 . S
H1602 C1610 0.930 . S
H1603 C1611 0.930 . S
H1604 C1614 0.930 . S
H1605 C1615 0.930 . S
C1606 H1600 0.930 . S
C1606 C1607 1.355 . S
C1606 C1608 1.415 . S
C1607 C1606 1.355 . S
C1607 C1609 1.419 . S
C1608 C1606 1.415 . S
C1608 C1613 1.425 . S
C1608 C1615 1.409 . S
C1609 H1601 0.930 . S
C1609 C1607 1.419 . S
C1609 C1610 1.362 . S
C1610 H1602 0.930 . S
C1610 C1609 1.362 . S
C1610 C1613 1.409 . S
C1611 H1603 0.930 . S
C1611 C1612 1.355 . S
C1611 C1613 1.415 . S
C1612 C1611 1.355 . S
C1612 C1614 1.419 . S
C1613 C1608 1.425 . S
C1613 C1610 1.409 . S
C1613 C1611 1.415 . S
C1614 H1604 0.930 . S
C1614 C1612 1.419 . S
C1614 C1615 1.362 . S
C1615 H1605 0.930 . S
C1615 C1608 1.409 . S
C1615 C1614 1.362 . S
H1616 C1622 0.930 . S
H1617 C1625 0.930 . S
H1618 C1626 0.930 . S
H1619 C1627 0.930 . S
H1620 C1630 0.930 . S
H1621 C1631 0.930 . S
C1622 H1616 0.930 . S
C1622 C1623 1.355 . S
C1622 C1624 1.415 . S
C1623 C1622 1.355 . S
C1623 C1625 1.419 . S
C1624 C1622 1.415 . S
C1624 C1629 1.425 . S
C1624 C1631 1.409 . S
C1625 H1617 0.930 . S
C1625 C1623 1.419 . S
C1625 C1626 1.362 . S
C1626 H1618 0.930 . S
C1626 C1625 1.362 . S
C1626 C1629 1.409 . S
C1627 H1619 0.930 . S
C1627 C1628 1.355 . S
C1627 C1629 1.415 . S
C1628 C1627 1.355 . S
C1628 C1630 1.419 . S
C1629 C1624 1.425 . S
C1629 C1626 1.409 . S
C1629 C1627 1.415 . S
C1630 H1620 0.930 . S
C1630 C1628 1.419 . S
C1630 C1631 1.362 . S
C1631 H1621 0.930 . S
C1631 C1624 1.409 . S
C1631 C1630 1.362 . S
H1632 C1638 0.930 . S
H1633 C1641 0.930 . S
H1634 C1642 0.930 . S
H1635 C1643 0.930 . S
H1636 C1646 0.930 . S
H1637 C1647 0.930 . S
C1638 H1632 0.930 . S
C1638 C1639 1.355 . S
C1638 C1640 1.415 . S
C1639 C1638 1.355 . S
C1639 C1641 1.419 . S
C1640 C1638 1.415 . S
C1640 C1645 1.425 . S
C1640 C1647 1.409 . S
C1641 H1633 0.930 . S
C1641 C1639 1.419 . S
C1641 C1642 1.362 . S
C1642 H1634 0.930 . S
C1642 C1641 1.362 . S
C1642 C1645 1.409 . S
C1643 H1635 0.930 . S
C1643 C1644 1.355 . S
C1643 C1645 1.415 . S
C1644 C1643 1.355 . S
C1644 C1646 1.419 . S
C1645 C1640 1.425 . S
C1645 C1642 1.409 . S
C1645 C1643 1.415 . S
C1646 H1636 0.930 . S
C1646 C1644 1.419 . S
C1646 C1647 1.362 . S
C1647 H1637 0.930 . S
C1647 C1640 1.409 . S
C1647 C1646 1.362 . S
H1648 C1654 0.930 . S
H1649 C1657 0.930 . S
H1650 C1658 0.930 . S
H1651 C1659 0.930 . S
H1652 C1662 0.930 . S
H1653 C1663 0.930 . S
C1654 H1648 0.930 . S
C1654 C1655 1.355 . S
C1654 C1656 1.415 . S
C1655 C1654 1.355 . S
C1655 C1657 1.419 . S
C1656 C1654 1.415 . S
C1656 C1661 1.425 . S
C1656 C1663 1.409 . S
C1657 H1649 0.930 . S
C1657 C1655 1.419 . S
C1657 C1658 1.362 . S
C1658 H1650 0.930 . S
C1658 C1657 1.362 . S
C1658 C1661 1.409 . S
C1659 H1651 0.930 . S
C1659 C1660 1.355 . S
C1659 C1661 1.415 . S
C1660 C1659 1.355 . S
C1660 C1662 1.419 . S
C1661 C1656 1.425 . S
C1661 C1658 1.409 . S
C1661 C1659 1.415 . S
C1662 H1652 0.930 . S
C1662 C1660 1.419 . S
C1662 C1663 1.362 . S
C1663 H1653 0.930 . S
C1663 C1656 1.409 . S
C1663 C1662 1.362 . S
H1664 C1670 0.929 . S
H1665 C1673 0.930 . S
H1666 C1674 0.930 1_554 S
H1667 C1675 0.930 . S
H1668 C1678 0.929 1_545 S
H1669 C1679 0.931 . S
C1670 H1664 0.929 . S
C1670 C1671 1.355 1_545 S
C1670 C1672 1.415 1_545 S
C1671 C1670 1.355 1_565 S
C1671 C1673 1.419 1_556 S
C1672 C1670 1.415 1_565 S
C1672 C1677 1.425 . S
C1672 C1679 1.409 1_565 S
C1673 H1665 0.930 . S
C1673 C1671 1.419 1_554 S
C1673 C1674 1.362 1_554 S
C1674 H1666 0.930 1_556 S
C1674 C1673 1.362 1_556 S
C1674 C1677 1.409 . S
C1675 H1667 0.930 . S
C1675 C1676 1.355 . S
C1675 C1677 1.415 . S
C1676 C1675 1.355 . S
C1676 C1678 1.421 . S
C1677 C1672 1.425 . S
C1677 C1674 1.409 . S
C1677 C1675 1.415 . S
C1678 H1668 0.929 1_565 S
C1678 C1676 1.421 . S
C1678 C1679 1.362 1_565 S
C1679 H1669 0.931 . S
C1679 C1672 1.409 1_545 S
C1679 C1678 1.362 1_545 S
H1680 C1686 0.930 . S
H1681 C1689 0.930 . S
H1682 C1690 0.930 . S
H1683 C1691 0.930 1_655 S
H1684 C1694 0.930 1_554 S
H1685 C1695 0.930 . S
C1686 H1680 0.930 . S
C1686 C1687 1.355 . S
C1686 C1688 1.415 . S
C1687 C1686 1.355 . S
C1687 C1689 1.419 . S
C1688 C1686 1.415 . S
C1688 C1693 1.425 . S
C1688 C1695 1.409 . S
C1689 H1681 0.930 . S
C1689 C1687 1.419 . S
C1689 C1690 1.362 . S
C1690 H1682 0.930 . S
C1690 C1689 1.362 . S
C1690 C1693 1.409 . S
C1691 H1683 0.930 1_455 S
C1691 C1692 1.355 1_455 S
C1691 C1693 1.415 . S
C1692 C1691 1.355 1_655 S
C1692 C1694 1.419 1_655 S
C1693 C1688 1.425 . S
C1693 C1690 1.409 . S
C1693 C1691 1.415 . S
C1694 H1684 0.930 1_556 S
C1694 C1692 1.419 1_455 S
C1694 C1695 1.362 . S
C1695 H1685 0.930 . S
C1695 C1688 1.409 . S
C1695 C1694 1.362 . S
H1696 C1702 0.930 . S
H1697 C1705 0.930 . S
H1698 C1706 0.930 . S
H1699 C1707 0.930 . S
H1700 C1710 0.930 . S
H1701 C1711 0.930 . S
C1702 H1696 0.930 . S
C1702 C1703 1.355 . S
C1702 C1704 1.415 . S
C1703 C1702 1.355 . S
C1703 C1705 1.419 . S
C1704 C1702 1.415 . S
C1704 C1709 1.425 . S
C1704 C1711 1.409 . S
C1705 H1697 0.930 . S
C1705 C1703 1.419 . S
C1705 C1706 1.362 . S
C1706 H1698 0.930 . S
C1706 C1705 1.362 . S
C1706 C1709 1.409 . S
C1707 H1699 0.930 . S
C1707 C1708 1.355 . S
C1707 C1709 1.415 . S
C1708 C1707 1.355 . S
C1708 C1710 1.419 . S
C1709 C1704 1.425 . S
C1709 C1706 1.409 . S
C1709 C1707 1.415 . S
C1710 H1700 0.930 . S
C1710 C1708 1.419 . S
C1710 C1711 1.362 . S
C1711 H1701 0.930 . S
C1711 C1704 1.409 . S
C1711 C1710 1.362 . S
H1712 C1718 0.930 . S
H1713 C1721 0.930 . S
H1714 C1722 0.930 . S
H1715 C1723 0.930 . S
H1716 C1726 0.930 . S
H1717 C1727 0.930 . S
C1718 H1712 0.930 . S
C1718 C1719 1.355 1_445 S
C1718 C1720 1.415 . S
C1719 C1718 1.355 1_665 S
C1719 C1721 1.419 . S
C1720 C1718 1.415 . S
C1720 C1725 1.425 1_545 S
C1720 C1727 1.409 . S
C1721 H1713 0.930 . S
C1721 C1719 1.419 . S
C1721 C1722 1.362 1_655 S
C1722 H1714 0.930 . S
C1722 C1721 1.362 1_455 S
C1722 C1725 1.409 . S
C1723 H1715 0.930 . S
C1723 C1724 1.368 . S
C1723 C1725 1.415 . S
C1724 C1723 1.368 . S
C1724 C1726 1.404 1_565 S
C1725 C1720 1.425 1_565 S
C1725 C1722 1.409 . S
C1725 C1723 1.415 . S
C1726 H1716 0.930 . S
C1726 C1724 1.404 1_545 S
C1726 C1727 1.362 . S
C1727 H1717 0.930 . S
C1727 C1720 1.409 . S
C1727 C1726 1.362 . S
H1728 C1734 0.930 . S
H1729 C1737 0.930 . S
H1730 C1738 0.930 . S
H1731 C1739 0.949 . S
H1732 C1742 0.930 . S
H1733 C1743 0.930 . S
C1734 H1728 0.930 . S
C1734 C1735 1.368 . S
C1734 C1736 1.415 . S
C1735 C1734 1.368 . S
C1735 C1737 1.403 1_545 S
C1736 C1734 1.415 . S
C1736 C1741 1.425 1_545 S
C1736 C1743 1.409 . S
C1737 H1729 0.930 . S
C1737 C1735 1.403 1_565 S
C1737 C1738 1.362 . S
C1738 H1730 0.930 . S
C1738 C1737 1.362 . S
C1738 C1741 1.409 . S
C1739 H1731 0.949 . S
C1739 C1740 1.355 1_565 S
C1739 C1741 1.415 . S
C1740 C1739 1.355 1_545 S
C1740 C1742 1.419 . S
C1741 C1736 1.425 1_565 S
C1741 C1738 1.409 . S
C1741 C1739 1.415 . S
C1742 H1732 0.930 . S
C1742 C1740 1.419 . S
C1742 C1743 1.362 . S
C1743 H1733 0.930 . S
C1743 C1736 1.409 . S
C1743 C1742 1.362 . S
H1744 C1750 0.930 1_455 S
H1745 C1753 0.930 . S
H1746 C1754 0.930 1_556 S
H1747 C1755 0.930 . S
H1748 C1758 0.930 . S
H1749 C1759 0.930 . S
C1750 H1744 0.930 1_655 S
C1750 C1751 1.355 1_655 S
C1750 C1752 1.415 . S
C1751 C1750 1.355 1_455 S
C1751 C1753 1.419 1_454 S
C1752 C1750 1.415 . S
C1752 C1757 1.425 . S
C1752 C1759 1.409 . S
C1753 H1745 0.930 . S
C1753 C1751 1.419 1_656 S
C1753 C1754 1.362 1_556 S
C1754 H1746 0.930 1_554 S
C1754 C1753 1.362 1_554 S
C1754 C1757 1.409 . S
C1755 H1747 0.930 . S
C1755 C1756 1.355 . S
C1755 C1757 1.415 . S
C1756 C1755 1.355 . S
C1756 C1758 1.419 . S
C1757 C1752 1.425 . S
C1757 C1754 1.409 . S
C1757 C1755 1.415 . S
C1758 H1748 0.930 . S
C1758 C1756 1.419 . S
C1758 C1759 1.362 . S
C1759 H1749 0.930 . S
C1759 C1752 1.409 . S
C1759 C1758 1.362 . S
H1760 C1766 0.930 . S
H1761 C1769 0.930 . S
H1762 C1770 0.930 . S
H1763 C1771 0.930 . S
H1764 C1774 0.930 . S
H1765 C1775 0.930 . S
C1766 H1760 0.930 . S
C1766 C1767 1.355 . S
C1766 C1768 1.415 . S
C1767 C1766 1.355 . S
C1767 C1769 1.419 . S
C1768 C1766 1.415 . S
C1768 C1773 1.425 . S
C1768 C1775 1.409 . S
C1769 H1761 0.930 . S
C1769 C1767 1.419 . S
C1769 C1770 1.362 . S
C1770 H1762 0.930 . S
C1770 C1769 1.362 . S
C1770 C1773 1.409 . S
C1771 H1763 0.930 . S
C1771 C1772 1.355 . S
C1771 C1773 1.415 . S
C1772 C1771 1.355 . S
C1772 C1774 1.419 . S
C1773 C1768 1.425 . S
C1773 C1770 1.409 . S
C1773 C1771 1.415 . S
C1774 H1764 0.930 . S
C1774 C1772 1.419 . S
C1774 C1775 1.362 . S
C1775 H1765 0.930 . S
C1775 C1768 1.409 . S
C1775 C1774 1.362 . S
H1776 C1782 0.930 . S
H1777 C1785 0.930 . S
H1778 C1786 0.930 . S
H1779 C1787 0.930 . S
H1780 C1790 0.930 . S
H1781 C1791 0.930 . S
C1782 H1776 0.930 . S
C1782 C1783 1.355 . S
C1782 C1784 1.415 . S
C1783 C1782 1.355 . S
C1783 C1785 1.419 1_545 S
C1784 C1782 1.415 . S
C1784 C1789 1.425 . S
C1784 C1791 1.409 . S
C1785 H1777 0.930 . S
C1785 C1783 1.419 1_565 S
C1785 C1786 1.362 . S
C1786 H1778 0.930 . S
C1786 C1785 1.362 . S
C1786 C1789 1.409 1_565 S
C1787 H1779 0.930 . S
C1787 C1788 1.355 1_655 S
C1787 C1789 1.415 . S
C1788 C1787 1.355 1_455 S
C1788 C1790 1.419 . S
C1789 C1784 1.425 . S
C1789 C1786 1.409 1_545 S
C1789 C1787 1.415 . S
C1790 H1780 0.930 . S
C1790 C1788 1.419 . S
C1790 C1791 1.362 1_455 S
C1791 H1781 0.930 . S
C1791 C1784 1.409 . S
C1791 C1790 1.362 1_655 S
H1792 C1798 0.930 . S
H1793 C1801 0.930 . S
H1794 C1802 0.930 . S
H1795 C1803 0.930 . S
H1796 C1806 0.930 . S
H1797 C1807 0.930 . S
C1798 H1792 0.930 . S
C1798 C1799 1.355 . S
C1798 C1800 1.415 . S
C1799 C1798 1.355 . S
C1799 C1801 1.419 . S
C1800 C1798 1.415 . S
C1800 C1805 1.425 . S
C1800 C1807 1.409 . S
C1801 H1793 0.930 . S
C1801 C1799 1.419 . S
C1801 C1802 1.362 . S
C1802 H1794 0.930 . S
C1802 C1801 1.362 . S
C1802 C1805 1.409 . S
C1803 H1795 0.930 . S
C1803 C1804 1.355 . S
C1803 C1805 1.415 . S
C1804 C1803 1.355 . S
C1804 C1806 1.419 . S
C1805 C1800 1.425 . S
C1805 C1802 1.409 . S
C1805 C1803 1.415 . S
C1806 H1796 0.930 . S
C1806 C1804 1.419 . S
C1806 C1807 1.362 . S
C1807 H1797 0.930 . S
C1807 C1800 1.409 . S
C1807 C1806 1.362 . S
H1808 C1814 0.930 . S
H1809 C1817 0.930 . S
H1810 C1818 0.930 . S
H1811 C1819 0.930 . S
H1812 C1822 0.930 . S
H1813 C1823 0.930 . S
C1814 H1808 0.930 . S
C1814 C1815 1.355 . S
C1814 C1816 1.415 . S
C1815 C1814 1.355 . S
C1815 C1817 1.419 . S
C1816 C1814 1.415 . S
C1816 C1821 1.425 . S
C1816 C1823 1.409 . S
C1817 H1809 0.930 . S
C1817 C1815 1.419 . S
C1817 C1818 1.362 . S
C1818 H1810 0.930 . S
C1818 C1817 1.362 . S
C1818 C1821 1.409 . S
C1819 H1811 0.930 . S
C1819 C1820 1.355 1_455 S
C1819 C1821 1.415 . S
C1820 C1819 1.355 1_655 S
C1820 C1822 1.419 . S
C1821 C1816 1.425 . S
C1821 C1818 1.409 . S
C1821 C1819 1.415 . S
C1822 H1812 0.930 . S
C1822 C1820 1.419 . S
C1822 C1823 1.362 1_655 S
C1823 H1813 0.930 . S
C1823 C1816 1.409 . S
C1823 C1822 1.362 1_455 S
H1824 C1830 0.930 . S
H1825 C1833 0.930 . S
H1826 C1834 0.930 . S
H1827 C1835 0.930 . S
H1828 C1838 0.930 . S
H1829 C1839 0.930 . S
C1830 H1824 0.930 . S
C1830 C1831 1.355 . S
C1830 C1832 1.415 . S
C1831 C1830 1.355 . S
C1831 C1833 1.419 . S
C1832 C1830 1.415 . S
C1832 C1837 1.425 . S
C1832 C1839 1.409 . S
C1833 H1825 0.930 . S
C1833 C1831 1.419 . S
C1833 C1834 1.362 . S
C1834 H1826 0.930 . S
C1834 C1833 1.362 . S
C1834 C1837 1.409 . S
C1835 H1827 0.930 . S
C1835 C1836 1.355 . S
C1835 C1837 1.415 . S
C1836 C1835 1.355 . S
C1836 C1838 1.419 . S
C1837 C1832 1.425 . S
C1837 C1834 1.409 . S
C1837 C1835 1.415 . S
C1838 H1828 0.930 . S
C1838 C1836 1.419 . S
C1838 C1839 1.362 . S
C1839 H1829 0.930 . S
C1839 C1832 1.409 . S
C1839 C1838 1.362 . S
H1840 C1846 0.930 . S
H1841 C1849 0.930 . S
H1842 C1850 0.930 . S
H1843 C1851 0.930 1_655 S
H1844 C1854 0.930 . S
H1845 C1855 0.930 . S
C1846 H1840 0.930 . S
C1846 C1847 1.355 . S
C1846 C1848 1.415 . S
C1847 C1846 1.355 . S
C1847 C1849 1.419 . S
C1848 C1846 1.415 . S
C1848 C1853 1.425 . S
C1848 C1855 1.409 . S
C1849 H1841 0.930 . S
C1849 C1847 1.419 . S
C1849 C1850 1.362 . S
C1850 H1842 0.930 . S
C1850 C1849 1.362 . S
C1850 C1853 1.409 . S
C1851 H1843 0.930 1_455 S
C1851 C1852 1.355 1_455 S
C1851 C1853 1.415 . S
C1852 C1851 1.355 1_655 S
C1852 C1854 1.419 1_655 S
C1853 C1848 1.425 . S
C1853 C1850 1.409 . S
C1853 C1851 1.415 . S
C1854 H1844 0.930 . S
C1854 C1852 1.419 1_455 S
C1854 C1855 1.362 . S
C1855 H1845 0.930 . S
C1855 C1848 1.409 . S
C1855 C1854 1.362 . S
H1856 C1862 0.930 . S
H1857 C1865 0.930 . S
H1858 C1866 0.930 . S
H1859 C1867 0.930 . S
H1860 C1870 0.930 . S
H1861 C1871 0.930 . S
C1862 H1856 0.930 . S
C1862 C1863 1.355 . S
C1862 C1864 1.415 . S
C1863 C1862 1.355 . S
C1863 C1865 1.419 . S
C1864 C1862 1.415 . S
C1864 C1869 1.425 . S
C1864 C1871 1.409 . S
C1865 H1857 0.930 . S
C1865 C1863 1.419 . S
C1865 C1866 1.362 . S
C1866 H1858 0.930 . S
C1866 C1865 1.362 . S
C1866 C1869 1.409 . S
C1867 H1859 0.930 . S
C1867 C1868 1.355 . S
C1867 C1869 1.415 . S
C1868 C1867 1.355 . S
C1868 C1870 1.419 . S
C1869 C1864 1.425 . S
C1869 C1866 1.409 . S
C1869 C1867 1.415 . S
C1870 H1860 0.930 . S
C1870 C1868 1.419 . S
C1870 C1871 1.362 . S
C1871 H1861 0.930 . S
C1871 C1864 1.409 . S
C1871 C1870 1.362 . S
H1872 C1878 0.930 . S
H1873 C1881 0.930 . S
H1874 C1882 0.930 . S
H1875 C1883 0.930 . S
H1876 C1886 0.930 . S
H1877 C1887 0.930 . S
C1878 H1872 0.930 . S
C1878 C1879 1.355 1_655 S
C1878 C1880 1.415 . S
C1879 C1878 1.355 1_455 S
C1879 C1881 1.419 . S
C1880 C1878 1.415 . S
C1880 C1885 1.425 . S
C1880 C1887 1.409 . S
C1881 H1873 0.930 . S
C1881 C1879 1.419 . S
C1881 C1882 1.362 1_455 S
C1882 H1874 0.930 . S
C1882 C1881 1.362 1_655 S
C1882 C1885 1.409 . S
C1883 H1875 0.930 . S
C1883 C1884 1.355 . S
C1883 C1885 1.415 . S
C1884 C1883 1.355 . S
C1884 C1886 1.419 . S
C1885 C1880 1.425 . S
C1885 C1882 1.409 . S
C1885 C1883 1.415 . S
C1886 H1876 0.930 . S
C1886 C1884 1.419 . S
C1886 C1887 1.362 . S
C1887 H1877 0.930 . S
C1887 C1880 1.409 . S
C1887 C1886 1.362 . S
H1888 C1894 0.930 . S
H1889 C1897 0.930 . S
H1890 C1898 0.930 . S
H1891 C1899 0.930 . S
H1892 C1902 0.930 . S
H1893 C1903 0.930 . S
C1894 H1888 0.930 . S
C1894 C1895 1.355 . S
C1894 C1896 1.415 . S
C1895 C1894 1.355 . S
C1895 C1897 1.419 . S
C1896 C1894 1.415 . S
C1896 C1901 1.425 . S
C1896 C1903 1.409 . S
C1897 H1889 0.930 . S
C1897 C1895 1.419 . S
C1897 C1898 1.362 . S
C1898 H1890 0.930 . S
C1898 C1897 1.362 . S
C1898 C1901 1.409 . S
C1899 H1891 0.930 . S
C1899 C1900 1.355 . S
C1899 C1901 1.415 . S
C1900 C1899 1.355 . S
C1900 C1902 1.419 . S
C1901 C1896 1.425 . S
C1901 C1898 1.409 . S
C1901 C1899 1.415 . S
C1902 H1892 0.930 . S
C1902 C1900 1.419 . S
C1902 C1903 1.362 . S
C1903 H1893 0.930 . S
C1903 C1896 1.409 . S
C1903 C1902 1.362 . S
H1904 C1910 0.930 . S
H1905 C1913 0.930 . S
H1906 C1914 0.930 . S
H1907 C1915 0.930 1_455 S
H1908 C1918 0.930 . S
H1909 C1919 0.930 . S
C1910 H1904 0.930 . S
C1910 C1911 1.355 . S
C1910 C1912 1.415 . S
C1911 C1910 1.355 . S
C1911 C1913 1.419 . S
C1912 C1910 1.415 . S
C1912 C1917 1.425 . S
C1912 C1919 1.409 . S
C1913 H1905 0.930 . S
C1913 C1911 1.419 . S
C1913 C1914 1.362 . S
C1914 H1906 0.930 . S
C1914 C1913 1.362 . S
C1914 C1917 1.409 . S
C1915 H1907 0.930 1_655 S
C1915 C1916 1.355 1_655 S
C1915 C1917 1.415 . S
C1916 C1915 1.355 1_455 S
C1916 C1918 1.419 1_455 S
C1917 C1912 1.425 . S
C1917 C1914 1.409 . S
C1917 C1915 1.415 . S
C1918 H1908 0.930 . S
C1918 C1916 1.419 1_655 S
C1918 C1919 1.362 . S
C1919 H1909 0.930 . S
C1919 C1912 1.409 . S
C1919 C1918 1.362 . S
H1920 C1926 0.930 . S
H1921 C1929 0.930 . S
H1922 C1930 0.930 . S
H1923 C1931 0.930 . S
H1924 C1934 0.930 . S
H1925 C1935 0.930 . S
C1926 H1920 0.930 . S
C1926 C1927 1.355 1_545 S
C1926 C1928 1.415 . S
C1927 C1926 1.355 1_565 S
C1927 C1929 1.419 . S
C1928 C1926 1.415 . S
C1928 C1933 1.425 1_545 S
C1928 C1935 1.409 . S
C1929 H1921 0.930 . S
C1929 C1927 1.419 . S
C1929 C1930 1.362 . S
C1930 H1922 0.930 . S
C1930 C1929 1.362 . S
C1930 C1933 1.409 . S
C1931 H1923 0.930 . S
C1931 C1932 1.368 . S
C1931 C1933 1.415 . S
C1932 C1931 1.368 . S
C1932 C1934 1.404 1_565 S
C1933 C1928 1.425 1_565 S
C1933 C1930 1.409 . S
C1933 C1931 1.415 . S
C1934 H1924 0.930 . S
C1934 C1932 1.404 1_545 S
C1934 C1935 1.362 . S
C1935 H1925 0.930 . S
C1935 C1928 1.409 . S
C1935 C1934 1.362 . S
H1936 C1942 0.930 . S
H1937 C1945 0.930 . S
H1938 C1946 0.930 . S
H1939 C1947 0.930 . S
H1940 C1950 0.930 . S
H1941 C1951 0.930 . S
C1942 H1936 0.930 . S
C1942 C1943 1.355 . S
C1942 C1944 1.415 . S
C1943 C1942 1.355 . S
C1943 C1945 1.419 . S
C1944 C1942 1.415 . S
C1944 C1949 1.425 . S
C1944 C1951 1.409 . S
C1945 H1937 0.930 . S
C1945 C1943 1.419 . S
C1945 C1946 1.362 . S
C1946 H1938 0.930 . S
C1946 C1945 1.362 . S
C1946 C1949 1.409 . S
C1947 H1939 0.930 . S
C1947 C1948 1.355 . S
C1947 C1949 1.415 . S
C1948 C1947 1.355 . S
C1948 C1950 1.419 . S
C1949 C1944 1.425 . S
C1949 C1946 1.409 . S
C1949 C1947 1.415 . S
C1950 H1940 0.930 . S
C1950 C1948 1.419 . S
C1950 C1951 1.362 . S
C1951 H1941 0.930 . S
C1951 C1944 1.409 . S
C1951 C1950 1.362 . S
H1952 C1958 0.930 . S
H1953 C1961 0.930 . S
H1954 C1962 0.930 . S
H1955 C1963 0.930 . S
H1956 C1966 0.930 . S
H1957 C1967 0.930 . S
C1958 H1952 0.930 . S
C1958 C1959 1.355 . S
C1958 C1960 1.415 . S
C1959 C1958 1.355 . S
C1959 C1961 1.419 . S
C1960 C1958 1.415 . S
C1960 C1965 1.425 . S
C1960 C1967 1.409 . S
C1961 H1953 0.930 . S
C1961 C1959 1.419 . S
C1961 C1962 1.362 . S
C1962 H1954 0.930 . S
C1962 C1961 1.362 . S
C1962 C1965 1.409 . S
C1963 H1955 0.930 . S
C1963 C1964 1.355 . S
C1963 C1965 1.415 . S
C1964 C1963 1.355 . S
C1964 C1966 1.419 . S
C1965 C1960 1.425 . S
C1965 C1962 1.409 . S
C1965 C1963 1.415 . S
C1966 H1956 0.930 . S
C1966 C1964 1.419 . S
C1966 C1967 1.362 . S
C1967 H1957 0.930 . S
C1967 C1960 1.409 . S
C1967 C1966 1.362 . S
H1968 C1974 0.930 . S
H1969 C1977 0.930 . S
H1970 C1978 0.930 . S
H1971 C1979 0.930 . S
H1972 C1982 0.930 . S
H1973 C1983 0.930 . S
C1974 H1968 0.930 . S
C1974 C1975 1.355 . S
C1974 C1976 1.415 . S
C1975 C1974 1.355 . S
C1975 C1977 1.419 1_565 S
C1976 C1974 1.415 . S
C1976 C1981 1.425 1_565 S
C1976 C1983 1.409 . S
C1977 H1969 0.930 . S
C1977 C1975 1.419 1_545 S
C1977 C1978 1.362 . S
C1978 H1970 0.930 . S
C1978 C1977 1.362 . S
C1978 C1981 1.409 . S
C1979 H1971 0.930 . S
C1979 C1980 1.355 1_545 S
C1979 C1981 1.415 . S
C1980 C1979 1.355 1_565 S
C1980 C1982 1.419 . S
C1981 C1976 1.425 1_545 S
C1981 C1978 1.409 . S
C1981 C1979 1.415 . S
C1982 H1972 0.930 . S
C1982 C1980 1.419 . S
C1982 C1983 1.362 . S
C1983 H1973 0.930 . S
C1983 C1976 1.409 . S
C1983 C1982 1.362 . S
H1984 C1990 0.930 . S
H1985 C1993 0.930 . S
H1986 C1994 0.930 . S
H1987 C1995 0.930 . S
H1988 C1998 0.930 . S
H1989 C1999 0.930 . S
C1990 H1984 0.930 . S
C1990 C1991 1.355 1_565 S
C1990 C1992 1.415 . S
C1991 C1990 1.355 1_545 S
C1991 C1993 1.419 . S
C1992 C1990 1.415 . S
C1992 C1997 1.425 1_565 S
C1992 C1999 1.409 . S
C1993 H1985 0.930 . S
C1993 C1991 1.419 . S
C1993 C1994 1.362 . S
C1994 H1986 0.930 . S
C1994 C1993 1.362 . S
C1994 C1997 1.409 . S
C1995 H1987 0.930 . S
C1995 C1996 1.361 . S
C1995 C1997 1.415 . S
C1996 C1995 1.361 . S
C1996 C1998 1.412 1_545 S
C1997 C1992 1.425 1_545 S
C1997 C1994 1.409 . S
C1997 C1995 1.415 . S
C1998 H1988 0.930 . S
C1998 C1996 1.412 1_565 S
C1998 C1999 1.362 . S
C1999 H1989 0.930 . S
C1999 C1992 1.409 . S
C1999 C1998 1.362 . S
H2000 C2006 0.930 . S
H2001 C2009 0.930 . S
H2002 C2010 0.930 . S
H2003 C2011 0.930 . S
H2004 C2014 0.930 . S
H2005 C2015 0.930 . S
C2006 H2000 0.930 . S
C2006 C2007 1.355 . S
C2006 C2008 1.415 . S
C2007 C2006 1.355 . S
C2007 C2009 1.419 . S
C2008 C2006 1.415 . S
C2008 C2013 1.425 . S
C2008 C2015 1.409 . S
C2009 H2001 0.930 . S
C2009 C2007 1.419 . S
C2009 C2010 1.362 . S
C2010 H2002 0.930 . S
C2010 C2009 1.362 . S
C2010 C2013 1.409 . S
C2011 H2003 0.930 . S
C2011 C2012 1.355 . S
C2011 C2013 1.415 . S
C2012 C2011 1.355 . S
C2012 C2014 1.419 . S
C2013 C2008 1.425 . S
C2013 C2010 1.409 . S
C2013 C2011 1.415 . S
C2014 H2004 0.930 . S
C2014 C2012 1.419 . S
C2014 C2015 1.362 . S
C2015 H2005 0.930 . S
C2015 C2008 1.409 . S
C2015 C2014 1.362 . S
H2016 C2022 0.930 . S
H2017 C2025 0.930 . S
H2018 C2026 0.930 . S
H2019 C2027 0.930 . S
H2020 C2030 0.930 . S
H2021 C2031 0.930 . S
C2022 H2016 0.930 . S
C2022 C2023 1.355 . S
C2022 C2024 1.415 . S
C2023 C2022 1.355 . S
C2023 C2025 1.419 . S
C2024 C2022 1.415 . S
C2024 C2029 1.425 . S
C2024 C2031 1.409 . S
C2025 H2017 0.930 . S
C2025 C2023 1.419 . S
C2025 C2026 1.362 . S
C2026 H2018 0.930 . S
C2026 C2025 1.362 . S
C2026 C2029 1.409 . S
C2027 H2019 0.930 . S
C2027 C2028 1.355 . S
C2027 C2029 1.415 . S
C2028 C2027 1.355 . S
C2028 C2030 1.419 . S
C2029 C2024 1.425 . S
C2029 C2026 1.409 . S
C2029 C2027 1.415 . S
C2030 H2020 0.930 . S
C2030 C2028 1.419 . S
C2030 C2031 1.362 . S
C2031 H2021 0.930 . S
C2031 C2024 1.409 . S
C2031 C2030 1.362 . S
H2032 C2038 0.930 . S
H2033 C2041 0.930 . S
H2034 C2042 0.930 . S
H2035 C2043 0.930 . S
H2036 C2046 0.930 . S
H2037 C2047 0.930 . S
C2038 H2032 0.930 . S
C2038 C2039 1.364 . S
C2038 C2040 1.415 . S
C2039 C2038 1.364 . S
C2039 C2041 1.408 1_545 S
C2040 C2038 1.415 . S
C2040 C2045 1.425 1_545 S
C2040 C2047 1.409 . S
C2041 H2033 0.930 . S
C2041 C2039 1.408 1_565 S
C2041 C2042 1.362 . S
C2042 H2034 0.930 . S
C2042 C2041 1.362 . S
C2042 C2045 1.409 . S
C2043 H2035 0.930 . S
C2043 C2044 1.355 1_565 S
C2043 C2045 1.415 . S
C2044 C2043 1.355 1_545 S
C2044 C2046 1.419 . S
C2045 C2040 1.425 1_565 S
C2045 C2042 1.409 . S
C2045 C2043 1.415 . S
C2046 H2036 0.930 . S
C2046 C2044 1.419 . S
C2046 C2047 1.362 . S
C2047 H2037 0.930 . S
C2047 C2040 1.409 . S
C2047 C2046 1.362 . S
H2048 C2054 0.930 . S
H2049 C2057 0.930 . S
H2050 C2058 0.930 . S
H2051 C2059 0.930 . S
H2052 C2062 0.930 . S
H2053 C2063 0.930 1_554 S
C2054 H2048 0.930 . S
C2054 C2055 1.355 . S
C2054 C2056 1.415 . S
C2055 C2054 1.355 . S
C2055 C2057 1.419 . S
C2056 C2054 1.415 . S
C2056 C2061 1.425 . S
C2056 C2063 1.409 . S
C2057 H2049 0.930 . S
C2057 C2055 1.419 . S
C2057 C2058 1.362 . S
C2058 H2050 0.930 . S
C2058 C2057 1.362 . S
C2058 C2061 1.409 . S
C2059 H2051 0.930 . S
C2059 C2060 1.355 . S
C2059 C2061 1.415 . S
C2060 C2059 1.355 . S
C2060 C2062 1.419 1_556 S
C2061 C2056 1.425 . S
C2061 C2058 1.409 . S
C2061 C2059 1.415 . S
C2062 H2052 0.930 . S
C2062 C2060 1.419 1_554 S
C2062 C2063 1.362 1_554 S
C2063 H2053 0.930 1_556 S
C2063 C2056 1.409 . S
C2063 C2062 1.362 1_556 S
H2064 C2070 0.930 . S
H2065 C2073 0.930 . S
H2066 C2074 0.930 . S
H2067 C2075 0.930 . S
H2068 C2078 0.930 . S
H2069 C2079 0.930 1_554 S
C2070 H2064 0.930 . S
C2070 C2071 1.355 . S
C2070 C2072 1.415 . S
C2071 C2070 1.355 . S
C2071 C2073 1.419 . S
C2072 C2070 1.415 . S
C2072 C2077 1.425 . S
C2072 C2079 1.409 . S
C2073 H2065 0.930 . S
C2073 C2071 1.419 . S
C2073 C2074 1.362 . S
C2074 H2066 0.930 . S
C2074 C2073 1.362 . S
C2074 C2077 1.409 . S
C2075 H2067 0.930 . S
C2075 C2076 1.355 . S
C2075 C2077 1.415 . S
C2076 C2075 1.355 . S
C2076 C2078 1.419 1_556 S
C2077 C2072 1.425 . S
C2077 C2074 1.409 . S
C2077 C2075 1.415 . S
C2078 H2068 0.930 . S
C2078 C2076 1.419 1_554 S
C2078 C2079 1.362 1_554 S
C2079 H2069 0.930 1_556 S
C2079 C2072 1.409 . S
C2079 C2078 1.362 1_556 S
H2080 C2086 0.930 . S
H2081 C2089 0.930 . S
H2082 C2090 0.930 . S
H2083 C2091 0.930 . S
H2084 C2094 0.930 . S
H2085 C2095 0.930 . S
C2086 H2080 0.930 . S
C2086 C2087 1.355 . S
C2086 C2088 1.415 . S
C2087 C2086 1.355 . S
C2087 C2089 1.419 . S
C2088 C2086 1.415 . S
C2088 C2093 1.425 . S
C2088 C2095 1.409 . S
C2089 H2081 0.930 . S
C2089 C2087 1.419 . S
C2089 C2090 1.362 . S
C2090 H2082 0.930 . S
C2090 C2089 1.362 . S
C2090 C2093 1.409 . S
C2091 H2083 0.930 . S
C2091 C2092 1.355 . S
C2091 C2093 1.415 . S
C2092 C2091 1.355 . S
C2092 C2094 1.419 . S
C2093 C2088 1.425 . S
C2093 C2090 1.409 . S
C2093 C2091 1.415 . S
C2094 H2084 0.930 . S
C2094 C2092 1.419 . S
C2094 C2095 1.362 . S
C2095 H2085 0.930 . S
C2095 C2088 1.409 . S
C2095 C2094 1.362 . S
H2096 C2102 0.930 . S
H2097 C2105 0.930 . S
H2098 C2106 0.930 . S
H2099 C2107 0.930 . S
H2100 C2110 0.930 . S
H2101 C2111 0.930 . S
C2102 H2096 0.930 . S
C2102 C2103 1.355 . S
C2102 C2104 1.415 . S
C2103 C2102 1.355 . S
C2103 C2105 1.419 . S
C2104 C2102 1.415 . S
C2104 C2109 1.425 . S
C2104 C2111 1.409 . S
C2105 H2097 0.930 . S
C2105 C2103 1.419 . S
C2105 C2106 1.362 . S
C2106 H2098 0.930 . S
C2106 C2105 1.362 . S
C2106 C2109 1.409 . S
C2107 H2099 0.930 . S
C2107 C2108 1.355 . S
C2107 C2109 1.415 . S
C2108 C2107 1.355 . S
C2108 C2110 1.419 . S
C2109 C2104 1.425 . S
C2109 C2106 1.409 . S
C2109 C2107 1.415 . S
C2110 H2100 0.930 . S
C2110 C2108 1.419 . S
C2110 C2111 1.362 . S
C2111 H2101 0.930 . S
C2111 C2104 1.409 . S
C2111 C2110 1.362 . S
H2112 C2118 0.930 . S
H2113 C2121 0.930 . S
H2114 C2122 0.930 . S
H2115 C2123 0.930 . S
H2116 C2126 0.930 . S
H2117 C2127 0.930 1_556 S
C2118 H2112 0.930 . S
C2118 C2119 1.355 . S
C2118 C2120 1.415 . S
C2119 C2118 1.355 . S
C2119 C2121 1.419 . S
C2120 C2118 1.415 . S
C2120 C2125 1.425 . S
C2120 C2127 1.409 . S
C2121 H2113 0.930 . S
C2121 C2119 1.419 . S
C2121 C2122 1.362 . S
C2122 H2114 0.930 . S
C2122 C2121 1.362 . S
C2122 C2125 1.409 . S
C2123 H2115 0.930 . S
C2123 C2124 1.355 . S
C2123 C2125 1.415 . S
C2124 C2123 1.355 . S
C2124 C2126 1.419 1_554 S
C2125 C2120 1.425 . S
C2125 C2122 1.409 . S
C2125 C2123 1.415 . S
C2126 H2116 0.930 . S
C2126 C2124 1.419 1_556 S
C2126 C2127 1.362 1_556 S
C2127 H2117 0.930 1_554 S
C2127 C2120 1.409 . S
C2127 C2126 1.362 1_554 S
H2128 C2134 0.930 . S
H2129 C2137 0.930 . S
H2130 C2138 0.930 . S
H2131 C2139 0.930 . S
H2132 C2142 0.930 . S
H2133 C2143 0.930 1_556 S
C2134 H2128 0.930 . S
C2134 C2135 1.355 . S
C2134 C2136 1.415 . S
C2135 C2134 1.355 . S
C2135 C2137 1.419 . S
C2136 C2134 1.415 . S
C2136 C2141 1.425 . S
C2136 C2143 1.409 . S
C2137 H2129 0.930 . S
C2137 C2135 1.419 . S
C2137 C2138 1.362 . S
C2138 H2130 0.930 . S
C2138 C2137 1.362 . S
C2138 C2141 1.409 . S
C2139 H2131 0.930 . S
C2139 C2140 1.355 . S
C2139 C2141 1.415 . S
C2140 C2139 1.355 . S
C2140 C2142 1.419 1_554 S
C2141 C2136 1.425 . S
C2141 C2138 1.409 . S
C2141 C2139 1.415 . S
C2142 H2132 0.930 . S
C2142 C2140 1.419 1_556 S
C2142 C2143 1.362 1_556 S
C2143 H2133 0.930 1_554 S
C2143 C2136 1.409 . S
C2143 C2142 1.362 1_554 S
H2144 C2150 0.930 . S
H2145 C2153 0.930 . S
H2146 C2154 0.930 . S
H2147 C2155 0.930 . S
H2148 C2158 0.930 . S
H2149 C2159 0.930 . S
C2150 H2144 0.930 . S
C2150 C2151 1.355 . S
C2150 C2152 1.415 . S
C2151 C2150 1.355 . S
C2151 C2153 1.419 . S
C2152 C2150 1.415 . S
C2152 C2157 1.425 . S
C2152 C2159 1.409 . S
C2153 H2145 0.930 . S
C2153 C2151 1.419 . S
C2153 C2154 1.362 . S
C2154 H2146 0.930 . S
C2154 C2153 1.362 . S
C2154 C2157 1.409 . S
C2155 H2147 0.930 . S
C2155 C2156 1.355 . S
C2155 C2157 1.415 . S
C2156 C2155 1.355 . S
C2156 C2158 1.419 . S
C2157 C2152 1.425 . S
C2157 C2154 1.409 . S
C2157 C2155 1.415 . S
C2158 H2148 0.930 . S
C2158 C2156 1.419 . S
C2158 C2159 1.362 . S
C2159 H2149 0.930 . S
C2159 C2152 1.409 . S
C2159 C2158 1.362 . S
H2160 C2166 0.930 . S
H2161 C2169 0.930 . S
H2162 C2170 0.930 . S
H2163 C2171 0.930 . S
H2164 C2174 0.930 . S
H2165 C2175 0.930 . S
C2166 H2160 0.930 . S
C2166 C2167 1.355 . S
C2166 C2168 1.415 . S
C2167 C2166 1.355 . S
C2167 C2169 1.419 . S
C2168 C2166 1.415 . S
C2168 C2173 1.425 . S
C2168 C2175 1.409 . S
C2169 H2161 0.930 . S
C2169 C2167 1.419 . S
C2169 C2170 1.362 . S
C2170 H2162 0.930 . S
C2170 C2169 1.362 . S
C2170 C2173 1.409 . S
C2171 H2163 0.930 . S
C2171 C2172 1.355 . S
C2171 C2173 1.415 . S
C2172 C2171 1.355 . S
C2172 C2174 1.419 . S
C2173 C2168 1.425 . S
C2173 C2170 1.409 . S
C2173 C2171 1.415 . S
C2174 H2164 0.930 . S
C2174 C2172 1.419 . S
C2174 C2175 1.362 . S
C2175 H2165 0.930 . S
C2175 C2168 1.409 . S
C2175 C2174 1.362 . S
C647 C509 1.689 . S
C652 C9 1.657 . S
C663 C489 1.629 . S
C668 C29 1.652 . S
C679 C549 1.665 . S
C684 C49 1.623 . S
C695 C529 1.633 . S
C700 C69 1.664 . S
C711 C81 1.686 . S
C716 C581 1.664 . S
C727 C101 1.671 . S
C732 C561 1.668 . S
C743 C121 1.674 . S
C748 C621 1.623 . S
C759 C601 1.651 . S
C764 C141 1.694 . S
C775 C349 1.646 . S
C780 C169 1.633 . S
C791 C329 1.655 . S
C796 C189 1.640 . S
C807 C389 1.632 . S
C812 C209 1.664 . S
C823 C369 1.684 . S
C828 C229 1.647 . S
C839 C241 1.633 . S
C844 C421 1.647 . S
C855 C401 1.652 . S
C860 C261 1.694 . S
C871 C281 1.631 . S
C876 C461 1.691 . S
C887 C441 1.682 . S
C892 C301 1.654 . S
C903 C19 2.528 . S
C908 C408 2.528 . S
C919 C268 2.527 . S
C924 C39 2.527 . S
C935 C608 2.576 . S
C940 C59 2.576 . S
C951 C79 2.588 1_545 S
C956 C148 2.587 1_565 S
C967 C88 2.532 1_565 S
C972 C339 2.531 1_545 S
C983 C108 2.567 . S
C988 C199 2.567 . S
C999 C128 2.586 . S
C1004 C539 2.586 . S
C1015 C568 2.586 . S
C1020 C179 2.586 . S
C1031 C448 2.527 . S
C1036 C219 2.527 . S
C1047 C308 2.568 . S
C1052 C239 2.568 . S
C1063 C499 2.550 . S
C1068 C248 2.550 . S
C1079 C288 2.578 . S
C1084 C379 2.578 . S
C1095 C588 2.549 . S
C1100 C359 2.549 . S
C1111 C399 2.531 1_545 S
C1116 C468 2.530 1_565 S
C1127 C519 2.587 . S
C1132 C428 2.587 . S
C1143 C559 2.525 . S
C1148 C628 2.525 . S
C1159 C8 2.487 1_566 S
C1164 C388 2.500 1_565 S
C1175 C28 2.489 1_556 S
C1180 C368 2.492 . S
C1191 C48 2.488 . S
C1196 C348 2.493 . S
C1207 C68 2.506 1_565 S
C1212 C328 2.490 . S
C1223 C99 2.497 1_544 S
C1228 C479 2.486 1_545 S
C1239 C119 2.494 1_554 S
C1244 C459 2.488 . S
C1255 C139 2.494 . S
C1260 C439 2.488 . S
C1271 C159 2.509 1_545 S
C1276 C419 2.491 . S
C1287 C168 2.496 . S
C1292 C548 2.489 . S
C1303 C188 2.516 . S
C1308 C528 2.531 . S
C1319 C208 2.533 . S
C1324 C508 2.523 1_556 S
C1335 C228 2.519 . S
C1340 C488 2.498 1_556 S
C1351 C639 2.488 . S
C1356 C259 2.500 . S
C1367 C619 2.499 . S
C1372 C279 2.520 . S
C1383 C599 2.493 1_554 S
C1388 C299 2.488 . S
C1399 C579 2.492 1_554 S
C1404 C319 2.490 . S
C1415 C41 1.675 . S
C1420 C1 1.681 . S
C1431 C61 1.693 . S
C1436 C21 1.673 . S
C1447 C129 1.675 . S
C1452 C89 1.681 . S
C1463 C109 1.676 . S
C1468 C149 1.680 . S
C1479 C201 1.692 . S
C1484 C161 1.680 . S
C1495 C181 1.696 . S
C1500 C221 1.679 . S
C1511 C289 1.696 . S
C1516 C249 1.687 . S
C1527 C269 1.680 . S
C1532 C309 1.697 . S
C1543 C321 1.674 . S
C1548 C361 1.687 . S
C1559 C341 1.693 . S
C1564 C381 1.674 . S
C1575 C449 1.682 . S
C1580 C409 1.687 . S
C1591 C429 1.684 . S
C1596 C469 1.671 . S
C1607 C481 1.684 . S
C1612 C521 1.685 . S
C1623 C541 1.690 . S
C1628 C501 1.694 . S
C1639 C569 1.697 . S
C1644 C609 1.680 . S
C1655 C589 1.697 . S
C1660 C629 1.680 . S
C1671 C16 0.550 . S
C1676 C156 0.552 . S
C1687 C616 0.601 . S
C1692 C36 0.612 . S
C1703 C56 0.548 . S
C1708 C276 0.549 . S
C1719 C76 0.738 . S
C1724 C416 0.737 . S
C1735 C66 0.710 . S
C1740 C86 0.718 . S
C1751 C106 0.565 . S
C1756 C526 0.559 . S
C1767 C186 0.560 . S
C1772 C126 0.555 . S
C1783 C326 0.749 . S
C1788 C146 0.755 . S
C1799 C176 0.551 . S
C1804 C316 0.549 . S
C1815 C456 0.761 . S
C1820 C196 0.760 . S
C1831 C216 0.716 . S
C1836 C116 0.706 . S
C1847 C576 0.548 . S
C1852 C236 0.550 . S
C1863 C246 0.548 . S
C1868 C226 0.549 . S
C1879 C266 0.736 . S
C1884 C366 0.742 . S
C1895 C286 0.750 . S
C1900 C26 0.754 . S
C1911 C486 0.558 . S
C1916 C306 0.554 . S
C1927 C336 0.735 . S
C1932 C476 0.733 . S
C1943 C356 0.758 . S
C1948 C296 0.754 . S
C1959 C376 0.554 . S
C1964 C596 0.559 . S
C1975 C396 0.573 . S
C1980 C96 0.580 . S
C1991 C406 0.627 . S
C1996 C386 0.619 . S
C2007 C206 0.750 . S
C2012 C426 0.755 . S
C2023 C506 0.749 . S
C2028 C446 0.754 . S
C2039 C466 0.713 . S
C2044 C6 0.718 . S
C2055 C636 0.561 . S
C2060 C496 0.568 . S
C2071 C136 0.549 . S
C2076 C516 0.552 . S
C2087 C436 0.640 . S
C2092 C536 0.652 . S
C2103 C556 0.751 . S
C2108 C256 0.746 . S
C2119 C546 0.555 . S
C2124 C566 0.551 . S
C2135 C46 0.549 . S
C2140 C586 0.549 . S
C2151 C346 0.729 . S
C2156 C606 0.737 . S
C2167 C626 0.755 . S
C2172 C166 0.758 . S
