# Generated by pormake.
# Topology uob, (4)-cn, num edge types: 1
# Building blocks:
#     Node 0, Type 0, BuildingBlock: KOZSID_clean_sbu_0, # of connection points: 4
#     Node 1, Type 0, BuildingBlock: KOZSID_clean_sbu_0, # of connection points: 4
#     Node 2, Type 0, BuildingBlock: KOZSID_clean_sbu_0, # of connection points: 4
#     Node 3, Type 0, BuildingBlock: KOZSID_clean_sbu_0, # of connection points: 4
#     Node 4, Type 0, BuildingBlock: KOZSID_clean_sbu_0, # of connection points: 4
#     Node 5, Type 0, BuildingBlock: KOZSID_clean_sbu_0, # of connection points: 4
#     Node 6, Type 0, BuildingBlock: KOZSID_clean_sbu_0, # of connection points: 4
#     Node 7, Type 0, BuildingBlock: KOZSID_clean_sbu_0, # of connection points: 4
#     Node 8, Type 0, BuildingBlock: KOZSID_clean_sbu_0, # of connection points: 4
#     Node 9, Type 0, BuildingBlock: KOZSID_clean_sbu_0, # of connection points: 4
#     Node 10, Type 0, BuildingBlock: KOZSID_clean_sbu_0, # of connection points: 4
#     Node 11, Type 0, BuildingBlock: KOZSID_clean_sbu_0, # of connection points: 4
#     Node 12, Type 0, BuildingBlock: KOZSID_clean_sbu_0, # of connection points: 4
#     Node 13, Type 0, BuildingBlock: KOZSID_clean_sbu_0, # of connection points: 4
#     Node 14, Type 0, BuildingBlock: KOZSID_clean_sbu_0, # of connection points: 4
#     Node 15, Type 0, BuildingBlock: KOZSID_clean_sbu_0, # of connection points: 4
#     Edge 16, Type (0, 0), BuildingBlock: MIFKUJ_clean_linker_0, # of connection points: 2
#     Edge 17, Type (0, 0), BuildingBlock: MIFKUJ_clean_linker_0, # of connection points: 2
#     Edge 18, Type (0, 0), BuildingBlock: MIFKUJ_clean_linker_0, # of connection points: 2
#     Edge 19, Type (0, 0), BuildingBlock: MIFKUJ_clean_linker_0, # of connection points: 2
#     Edge 20, Type (0, 0), BuildingBlock: MIFKUJ_clean_linker_0, # of connection points: 2
#     Edge 21, Type (0, 0), BuildingBlock: MIFKUJ_clean_linker_0, # of connection points: 2
#     Edge 22, Type (0, 0), BuildingBlock: MIFKUJ_clean_linker_0, # of connection points: 2
#     Edge 23, Type (0, 0), BuildingBlock: MIFKUJ_clean_linker_0, # of connection points: 2
#     Edge 24, Type (0, 0), BuildingBlock: MIFKUJ_clean_linker_0, # of connection points: 2
#     Edge 25, Type (0, 0), BuildingBlock: MIFKUJ_clean_linker_0, # of connection points: 2
#     Edge 26, Type (0, 0), BuildingBlock: MIFKUJ_clean_linker_0, # of connection points: 2
#     Edge 27, Type (0, 0), BuildingBlock: MIFKUJ_clean_linker_0, # of connection points: 2
#     Edge 28, Type (0, 0), BuildingBlock: MIFKUJ_clean_linker_0, # of connection points: 2
#     Edge 29, Type (0, 0), BuildingBlock: MIFKUJ_clean_linker_0, # of connection points: 2
#     Edge 30, Type (0, 0), BuildingBlock: MIFKUJ_clean_linker_0, # of connection points: 2
#     Edge 31, Type (0, 0), BuildingBlock: MIFKUJ_clean_linker_0, # of connection points: 2
#     Edge 32, Type (0, 0), BuildingBlock: MIFKUJ_clean_linker_0, # of connection points: 2
#     Edge 33, Type (0, 0), BuildingBlock: MIFKUJ_clean_linker_0, # of connection points: 2
#     Edge 34, Type (0, 0), BuildingBlock: MIFKUJ_clean_linker_0, # of connection points: 2
#     Edge 35, Type (0, 0), BuildingBlock: MIFKUJ_clean_linker_0, # of connection points: 2
#     Edge 36, Type (0, 0), BuildingBlock: MIFKUJ_clean_linker_0, # of connection points: 2
#     Edge 37, Type (0, 0), BuildingBlock: MIFKUJ_clean_linker_0, # of connection points: 2
#     Edge 38, Type (0, 0), BuildingBlock: MIFKUJ_clean_linker_0, # of connection points: 2
#     Edge 39, Type (0, 0), BuildingBlock: MIFKUJ_clean_linker_0, # of connection points: 2
#     Edge 40, Type (0, 0), BuildingBlock: MIFKUJ_clean_linker_0, # of connection points: 2
#     Edge 41, Type (0, 0), BuildingBlock: MIFKUJ_clean_linker_0, # of connection points: 2
#     Edge 42, Type (0, 0), BuildingBlock: MIFKUJ_clean_linker_0, # of connection points: 2
#     Edge 43, Type (0, 0), BuildingBlock: MIFKUJ_clean_linker_0, # of connection points: 2
#     Edge 44, Type (0, 0), BuildingBlock: MIFKUJ_clean_linker_0, # of connection points: 2
#     Edge 45, Type (0, 0), BuildingBlock: MIFKUJ_clean_linker_0, # of connection points: 2
#     Edge 46, Type (0, 0), BuildingBlock: MIFKUJ_clean_linker_0, # of connection points: 2
#     Edge 47, Type (0, 0), BuildingBlock: MIFKUJ_clean_linker_0, # of connection points: 2
# Relax obj value: 0.098
# Max RMSD: 0.270
# Mean RMSD: 0.243
data_MOF--net-uob--node1-KOZSID_clean_sbu_0--edge1-MIFKUJ_clean_linker_0
_symmetry_space_group_name_H-M    P1
_symmetry_Int_Tables_number       1
_symmetry_cell_setting            triclinic
loop_
_symmetry_equiv_pos_as_xyz
'x, y, z'
_cell_length_a     71.866615
_cell_length_b     86.199951
_cell_length_c     43.002301
_cell_angle_alpha  89.985795
_cell_angle_beta   90.047208
_cell_angle_gamma 90.016373
loop_
_atom_site_label
_atom_site_type_symbol
_atom_site_fract_x
_atom_site_fract_y
_atom_site_fract_z
_atom_type_partial_charge
C0 C 0.17487 0.07245 0.31494 0.0
C1 C 0.19046 0.06293 0.31466 0.0
C2 C 0.1851 0.04926 0.3011 0.0
C3 C 0.1666 0.05113 0.29401 0.0
N4 N 0.16003 0.06517 0.30204 0.0
Co5 Co 0.13392 0.07237 0.29767 0.0
N6 N 0.12444 0.05078 0.29489 0.0
C7 C 0.13486 0.03802 0.28995 0.0
C8 C 0.12494 0.02451 0.29258 0.0
C9 C 0.10712 0.02903 0.29901 0.0
C10 C 0.10698 0.04518 0.29909 0.0
N11 N 0.1079 0.07961 0.29269 0.0
C12 C 0.09159 0.0716 0.29391 0.0
C13 C 0.07678 0.08123 0.28631 0.0
C14 C 0.08414 0.09563 0.28008 0.0
C15 C 0.10302 0.09406 0.28399 0.0
N16 N 0.14386 0.09376 0.30161 0.0
C17 C 0.13513 0.10678 0.2926 0.0
C18 C 0.14509 0.11991 0.30015 0.0
C19 C 0.16099 0.11471 0.31484 0.0
C20 C 0.15984 0.09868 0.31553 0.0
N21 N 0.13639 0.07341 0.2516 0.0
C22 C 0.13312 0.08129 0.18771 0.0
C23 C 0.14777 0.08708 0.20608 0.0
C24 C 0.14938 0.08276 0.23767 0.0
C25 C 0.121 0.07063 0.20167 0.0
C26 C 0.12277 0.06695 0.23333 0.0
N27 N 0.13059 0.07201 0.34305 0.0
C28 C 0.11897 0.08527 0.38832 0.0
C29 C 0.12451 0.07309 0.40764 0.0
C30 C 0.13308 0.06014 0.39383 0.0
C31 C 0.13613 0.05988 0.36141 0.0
C32 C 0.12206 0.0845 0.35649 0.0
H33 H 0.14288 0.04992 0.3512 0.0
H34 H 0.1174 0.09416 0.34277 0.0
H35 H 0.16061 0.08765 0.25119 0.0
H36 H 0.11226 0.05959 0.24326 0.0
C37 C 0.15423 0.03899 0.28815 0.0
C38 C 0.17451 0.08826 0.32758 0.0
C39 C 0.08986 0.05467 0.29905 0.0
C40 C 0.11628 0.10614 0.28359 0.0
H41 H 0.20411 0.06536 0.32406 0.0
H42 H 0.19333 0.0388 0.29902 0.0
H43 H 0.13017 0.01276 0.29125 0.0
H44 H 0.09554 0.02124 0.30272 0.0
H45 H 0.06222 0.07814 0.2848 0.0
H46 H 0.07657 0.10604 0.27393 0.0
H47 H 0.14088 0.13185 0.29693 0.0
H48 H 0.17209 0.12184 0.32408 0.0
H49 H 0.15776 0.09511 0.19626 0.0
H50 H 0.10946 0.06578 0.18867 0.0
H51 H 0.11195 0.09536 0.39767 0.0
H52 H 0.13756 0.05042 0.40794 0.0
C53 C 0.90663 0.62849 0.49681 0.0
C54 C 0.88884 0.627 0.48464 0.0
C55 C 0.87699 0.62589 0.50955 0.0
C56 C 0.88818 0.6268 0.53543 0.0
N57 N 0.90627 0.62849 0.52829 0.0
Co58 Co 0.92713 0.63 0.55824 0.0
N59 N 0.91229 0.61987 0.59128 0.0
C60 C 0.89361 0.61849 0.59165 0.0
C61 C 0.88715 0.6108 0.61738 0.0
C62 C 0.90269 0.60732 0.63443 0.0
C63 C 0.91788 0.61317 0.61815 0.0
N64 N 0.94794 0.63167 0.5882 0.0
C65 C 0.95036 0.62466 0.61618 0.0
C66 C 0.96662 0.6298 0.63021 0.0
C67 C 0.97445 0.64047 0.61033 0.0
C68 C 0.96258 0.6413 0.5853 0.0
N69 N 0.94159 0.63985 0.52428 0.0
C70 C 0.95694 0.64857 0.5279 0.0
C71 C 0.9644 0.65306 0.49981 0.0
C72 C 0.953 0.6467 0.47735 0.0
C73 C 0.93917 0.63867 0.49297 0.0
N74 N 0.91842 0.65075 0.57283 0.0
C75 C 0.91278 0.68122 0.59687 0.0
C76 C 0.91314 0.67832 0.56456 0.0
C77 C 0.91575 0.66305 0.55306 0.0
C78 C 0.91463 0.66833 0.61649 0.0
C79 C 0.91743 0.65345 0.60423 0.0
N80 N 0.93674 0.60954 0.54514 0.0
C81 C 0.96372 0.59363 0.53493 0.0
C82 C 0.95301 0.58004 0.53535 0.0
C83 C 0.93367 0.5817 0.53974 0.0
C84 C 0.92581 0.59654 0.5444 0.0
C85 C 0.95542 0.60807 0.53972 0.0
H86 H 0.91101 0.59745 0.54829 0.0
H87 H 0.96442 0.61803 0.54028 0.0
H88 H 0.91622 0.66128 0.5282 0.0
H89 H 0.9197 0.64425 0.62066 0.0
C90 C 0.88298 0.6225 0.56556 0.0
C91 C 0.92347 0.63048 0.47802 0.0
C92 C 0.93683 0.61413 0.63102 0.0
C93 C 0.96583 0.64921 0.55709 0.0
H94 H 0.88489 0.62658 0.46036 0.0
H95 H 0.86217 0.6237 0.50881 0.0
H96 H 0.8729 0.60776 0.62278 0.0
H97 H 0.90275 0.60154 0.65675 0.0
H98 H 0.97211 0.62633 0.6526 0.0
H99 H 0.98747 0.6466 0.61346 0.0
H100 H 0.9772 0.6594 0.49601 0.0
H101 H 0.95478 0.64771 0.45245 0.0
H102 H 0.91154 0.68777 0.5482 0.0
H103 H 0.91475 0.66973 0.64151 0.0
H104 H 0.97868 0.59316 0.53222 0.0
H105 H 0.92466 0.57164 0.53987 0.0
C106 C 0.33861 0.44431 0.81515 0.0
C107 C 0.32359 0.45437 0.81306 0.0
C108 C 0.32995 0.4675 0.7984 0.0
C109 C 0.34844 0.46476 0.79246 0.0
N110 N 0.35403 0.45072 0.80236 0.0
Co111 Co 0.37965 0.44239 0.79987 0.0
N112 N 0.3904 0.46346 0.79618 0.0
C113 C 0.38108 0.47627 0.78728 0.0
C114 C 0.39216 0.48922 0.7862 0.0
C115 C 0.40955 0.4842 0.79467 0.0
C116 C 0.4081 0.46838 0.80052 0.0
N117 N 0.40525 0.43404 0.79713 0.0
C118 C 0.42186 0.44137 0.80064 0.0
C119 C 0.43641 0.43108 0.79581 0.0
C120 C 0.42851 0.41695 0.78871 0.0
C121 C 0.40959 0.41933 0.78959 0.0
N122 N 0.36841 0.42152 0.80413 0.0
C123 C 0.3765 0.40807 0.79604 0.0
C124 C 0.36561 0.39547 0.80361 0.0
C125 C 0.34981 0.40149 0.81731 0.0
C126 C 0.35194 0.41746 0.81746 0.0
N127 N 0.37805 0.44086 0.75379 0.0
C128 C 0.38099 0.43328 0.68964 0.0
C129 C 0.36539 0.42879 0.70738 0.0
C130 C 0.36409 0.43282 0.7392 0.0
C131 C 0.39449 0.44232 0.70468 0.0
C132 C 0.39278 0.44595 0.7363 0.0
N133 N 0.38217 0.44328 0.84535 0.0
C134 C 0.39241 0.4303 0.89188 0.0
C135 C 0.38824 0.44329 0.90998 0.0
C136 C 0.38095 0.45646 0.89492 0.0
C137 C 0.37787 0.45617 0.86249 0.0
C138 C 0.38934 0.43054 0.86002 0.0
H139 H 0.37222 0.46633 0.85124 0.0
H140 H 0.39311 0.42032 0.84722 0.0
H141 H 0.35216 0.42889 0.75229 0.0
H142 H 0.4041 0.4522 0.74685 0.0
C143 C 0.36163 0.4761 0.7848 0.0
C144 C 0.33786 0.42865 0.82865 0.0
C145 C 0.42412 0.45817 0.80645 0.0
C146 C 0.39562 0.4078 0.7885 0.0
H147 H 0.30961 0.45259 0.82163 0.0
H148 H 0.32228 0.47812 0.79447 0.0
H149 H 0.38803 0.50098 0.78072 0.0
H150 H 0.42193 0.49133 0.79575 0.0
H151 H 0.45116 0.43354 0.79708 0.0
H152 H 0.43572 0.40614 0.78444 0.0
H153 H 0.36915 0.38333 0.80121 0.0
H154 H 0.33817 0.39493 0.82637 0.0
H155 H 0.35433 0.42204 0.69691 0.0
H156 H 0.40692 0.44602 0.69256 0.0
H157 H 0.39848 0.41999 0.90214 0.0
H158 H 0.37756 0.46679 0.90804 0.0
C159 C 0.60393 0.88568 0.99345 0.0
C160 C 0.62179 0.88939 0.98348 0.0
C161 C 0.63236 0.89142 1.00945 0.0
C162 C 0.62043 0.88912 0.03379 0.0
N163 N 0.60291 0.88541 0.0251 0.0
Co164 Co 0.58069 0.88373 0.05322 0.0
N165 N 0.5955 0.89046 0.09018 0.0
C166 C 0.61415 0.89219 0.09165 0.0
C167 C 0.62062 0.89593 0.12065 0.0
C168 C 0.6051 0.89686 0.13874 0.0
C169 C 0.58999 0.89384 0.11945 0.0
N170 N 0.55827 0.88298 0.08088 0.0
C171 C 0.55592 0.88857 0.11022 0.0
C172 C 0.53755 0.88732 0.1197 0.0
C173 C 0.52797 0.8808 0.09544 0.0
C174 C 0.54095 0.87854 0.07247 0.0
N175 N 0.56629 0.87647 0.01589 0.0
C176 C 0.54856 0.87121 0.01585 0.0
C177 C 0.54207 0.86781 0.98659 0.0
C178 C 0.55636 0.8714 0.96682 0.0
C179 C 0.57081 0.87692 0.98509 0.0
N180 N 0.58674 0.8614 0.06443 0.0
C181 C 0.59313 0.83195 0.09366 0.0
C182 C 0.57539 0.83661 0.08422 0.0
C183 C 0.57261 0.85097 0.06958 0.0
C184 C 0.60793 0.84188 0.08579 0.0
C185 C 0.60447 0.85636 0.07121 0.0
N186 N 0.5739 0.90574 0.04378 0.0
C187 C 0.54915 0.92384 0.03159 0.0
C188 C 0.55917 0.93628 0.04379 0.0
C189 C 0.57752 0.93339 0.05357 0.0
C190 C 0.58463 0.91807 0.05327 0.0
C191 C 0.55667 0.90895 0.0316 0.0
H192 H 0.59852 0.91627 0.06185 0.0
H193 H 0.54775 0.90011 0.02287 0.0
H194 H 0.55866 0.8534 0.06343 0.0
H195 H 0.61633 0.8634 0.06626 0.0
C196 C 0.62488 0.89188 0.06479 0.0
C197 C 0.58826 0.88308 0.9721 0.0
C198 C 0.57068 0.89547 0.12933 0.0
C199 C 0.53731 0.87295 0.04237 0.0
H200 H 0.62673 0.89104 0.95999 0.0
H201 H 0.6468 0.89495 1.01045 0.0
H202 H 0.63484 0.89826 0.12755 0.0
H203 H 0.60491 0.8999 0.16315 0.0
H204 H 0.53163 0.89098 0.14163 0.0
H205 H 0.5132 0.87839 0.09438 0.0
H206 H 0.52815 0.86423 0.98016 0.0
H207 H 0.55594 0.87066 0.9417 0.0
H208 H 0.56346 0.8292 0.08831 0.0
H209 H 0.62208 0.83877 0.0918 0.0
H210 H 0.53517 0.92551 0.02271 0.0
H211 H 0.58602 0.94272 0.06266 0.0
C212 C 0.17257 0.44521 0.03722 0.0
C213 C 0.18765 0.45523 0.03927 0.0
C214 C 0.18137 0.46838 0.05385 0.0
C215 C 0.16286 0.46573 0.05977 0.0
N216 N 0.15719 0.45169 0.04996 0.0
Co217 Co 0.13151 0.44346 0.0525 0.0
N218 N 0.1209 0.46459 0.05599 0.0
C219 C 0.13031 0.47742 0.06447 0.0
C220 C 0.11934 0.49045 0.06498 0.0
C221 C 0.10193 0.48546 0.05661 0.0
C222 C 0.10322 0.46957 0.05152 0.0
N223 N 0.10589 0.43522 0.05546 0.0
C224 C 0.08931 0.44261 0.05215 0.0
C225 C 0.07471 0.43242 0.05747 0.0
C226 C 0.08255 0.41826 0.06454 0.0
C227 C 0.10148 0.42054 0.06322 0.0
N228 N 0.14262 0.42254 0.0482 0.0
C229 C 0.13445 0.40912 0.05629 0.0
C230 C 0.14524 0.39649 0.04859 0.0
C231 C 0.16105 0.40245 0.03481 0.0
C232 C 0.15903 0.41843 0.03474 0.0
N233 N 0.13314 0.44197 0.09862 0.0
C234 C 0.12982 0.43422 0.16253 0.0
C235 C 0.14502 0.42906 0.1447 0.0
C236 C 0.14662 0.4333 0.11305 0.0
C237 C 0.11698 0.44404 0.14794 0.0
C238 C 0.11877 0.44762 0.11628 0.0
N239 N 0.12899 0.44429 1.00704 0.0
C240 C 0.11885 0.43121 0.96059 0.0
C241 C 0.12353 0.44401 0.94229 0.0
C242 C 0.13093 0.45717 0.9572 0.0
C243 C 0.1337 0.45703 0.98971 0.0
C244 C 0.12161 0.43159 0.99251 0.0
H245 H 0.1395 0.46717 1.00085 0.0
H246 H 0.11754 0.4215 1.00543 0.0
H247 H 0.15833 0.42897 0.09993 0.0
H248 H 0.10776 0.4543 0.10588 0.0
C249 C 0.14974 0.47717 0.06708 0.0
C250 C 0.17321 0.42957 0.02361 0.0
C251 C 0.08711 0.45939 0.04617 0.0
C252 C 0.11537 0.40894 0.06411 0.0
H253 H 0.20161 0.45341 0.03063 0.0
H254 H 0.18908 0.479 0.05765 0.0
H255 H 0.12358 0.50224 0.06997 0.0
H256 H 0.08963 0.49266 0.05506 0.0
H257 H 0.05998 0.43499 0.05657 0.0
H258 H 0.07528 0.40751 0.06911 0.0
H259 H 0.14162 0.38436 0.051 0.0
H260 H 0.17263 0.39585 0.02568 0.0
H261 H 0.15549 0.42163 0.15501 0.0
H262 H 0.10497 0.4483 0.1605 0.0
H263 H 0.11269 0.42092 0.95038 0.0
H264 H 0.13469 0.46736 0.9439 0.0
C265 C 0.60535 0.6285 0.35308 0.0
C266 C 0.62305 0.62674 0.36551 0.0
C267 C 0.63506 0.62588 0.34078 0.0
C268 C 0.62406 0.62719 0.31474 0.0
N269 N 0.60592 0.62885 0.32162 0.0
Co270 Co 0.58527 0.63075 0.29136 0.0
N271 N 0.60036 0.62106 0.25813 0.0
C272 C 0.61907 0.62 0.2578 0.0
C273 C 0.62577 0.613 0.23146 0.0
C274 C 0.61033 0.6096 0.21406 0.0
C275 C 0.59497 0.61471 0.23084 0.0
N276 N 0.56466 0.63267 0.26116 0.0
C277 C 0.56232 0.6257 0.23312 0.0
C278 C 0.54601 0.63076 0.21912 0.0
C279 C 0.5381 0.64135 0.2391 0.0
C280 C 0.54994 0.64219 0.26417 0.0
N281 N 0.57067 0.64038 0.3254 0.0
C282 C 0.55543 0.64923 0.32176 0.0
C283 C 0.54788 0.6536 0.34984 0.0
C284 C 0.55912 0.64705 0.37232 0.0
C285 C 0.57294 0.63902 0.35671 0.0
N286 N 0.59411 0.65165 0.27777 0.0
C287 C 0.59981 0.68231 0.25499 0.0
C288 C 0.599 0.67918 0.28715 0.0
C289 C 0.59647 0.66378 0.29804 0.0
C290 C 0.59838 0.66961 0.23485 0.0
C291 C 0.59541 0.65464 0.24649 0.0
N292 N 0.57546 0.61013 0.3033 0.0
C293 C 0.54822 0.59458 0.31402 0.0
C294 C 0.55792 0.58074 0.30836 0.0
C295 C 0.57717 0.58206 0.30231 0.0
C296 C 0.58568 0.5968 0.30034 0.0
C297 C 0.55701 0.60892 0.31081 0.0
H298 H 0.60034 0.59742 0.29504 0.0
H299 H 0.54843 0.61906 0.3131 0.0
H300 H 0.59577 0.66181 0.32282 0.0
H301 H 0.59326 0.64561 0.22964 0.0
C302 C 0.62951 0.62354 0.28439 0.0
C303 C 0.58844 0.63058 0.37167 0.0
C304 C 0.5759 0.61514 0.21845 0.0
C305 C 0.54661 0.64997 0.2925 0.0
H306 H 0.62683 0.62605 0.38985 0.0
H307 H 0.64988 0.62368 0.3417 0.0
H308 H 0.6401 0.61035 0.22586 0.0
H309 H 0.61043 0.60436 0.19124 0.0
H310 H 0.54053 0.62728 0.19674 0.0
H311 H 0.52502 0.64738 0.23603 0.0
H312 H 0.53511 0.65998 0.35362 0.0
H313 H 0.55722 0.64792 0.39722 0.0
H314 H 0.60021 0.68854 0.30379 0.0
H315 H 0.59869 0.67129 0.20989 0.0
H316 H 0.53364 0.59452 0.32024 0.0
H317 H 0.58555 0.57188 0.29793 0.0
C318 C 0.33901 0.0721 0.53932 0.0
C319 C 0.32398 0.06211 0.54268 0.0
C320 C 0.33042 0.04931 0.55834 0.0
C321 C 0.34898 0.0521 0.56354 0.0
N322 N 0.35454 0.06588 0.55221 0.0
Co323 Co 0.38026 0.07409 0.55312 0.0
N324 N 0.39086 0.05306 0.55832 0.0
C325 C 0.38158 0.0405 0.56862 0.0
C326 C 0.39257 0.02749 0.57012 0.0
C327 C 0.40984 0.03223 0.56042 0.0
C328 C 0.40842 0.04794 0.55348 0.0
N329 N 0.40594 0.08231 0.55434 0.0
C330 C 0.4224 0.07481 0.55067 0.0
C331 C 0.43714 0.08506 0.5541 0.0
C332 C 0.42949 0.09939 0.56038 0.0
C333 C 0.41054 0.09713 0.56046 0.0
N334 N 0.36918 0.09491 0.54725 0.0
C335 C 0.37752 0.10848 0.55379 0.0
C336 C 0.36669 0.12096 0.54531 0.0
C337 C 0.35067 0.11475 0.53266 0.0
C338 C 0.35262 0.09878 0.534 0.0
N339 N 0.37923 0.07661 0.59909 0.0
C340 C 0.38262 0.08469 0.6629 0.0
C341 C 0.36719 0.08949 0.64508 0.0
C342 C 0.36562 0.08515 0.61344 0.0
C343 C 0.39579 0.07524 0.64816 0.0
C344 C 0.39392 0.07145 0.61663 0.0
N345 N 0.38224 0.07212 0.50775 0.0
C346 C 0.39324 0.08333 0.45986 0.0
C347 C 0.38912 0.06973 0.44381 0.0
C348 C 0.38096 0.05736 0.46006 0.0
C349 C 0.37759 0.05881 0.49222 0.0
C350 C 0.38969 0.0843 0.49156 0.0
H351 H 0.37163 0.04912 0.50465 0.0
H352 H 0.39348 0.0949 0.50306 0.0
H353 H 0.35374 0.08918 0.60033 0.0
H354 H 0.40505 0.06492 0.60622 0.0
C355 C 0.36218 0.04085 0.57175 0.0
C356 C 0.33821 0.08747 0.52444 0.0
C357 C 0.42435 0.05792 0.54579 0.0
C358 C 0.39672 0.10879 0.56082 0.0
H359 H 0.30994 0.06367 0.53423 0.0
H360 H 0.32276 0.0388 0.56337 0.0
H361 H 0.38842 0.01586 0.57657 0.0
H362 H 0.42213 0.02501 0.55917 0.0
H363 H 0.45183 0.08246 0.55237 0.0
H364 H 0.43688 0.11022 0.56338 0.0
H365 H 0.3704 0.13312 0.54644 0.0
H366 H 0.33901 0.12119 0.52332 0.0
H367 H 0.35647 0.09664 0.65541 0.0
H368 H 0.40805 0.07131 0.66053 0.0
H369 H 0.39951 0.09312 0.44801 0.0
H370 H 0.37757 0.04664 0.44821 0.0
C371 C 0.9058 0.88761 0.8473 0.0
C372 C 0.88804 0.88956 0.85928 0.0
C373 C 0.87627 0.89067 0.83424 0.0
C374 C 0.88747 0.88937 0.80848 0.0
N375 N 0.90552 0.88746 0.8158 0.0
Co376 Co 0.92645 0.88572 0.78604 0.0
N377 N 0.91174 0.89573 0.75262 0.0
C378 C 0.89305 0.89703 0.75196 0.0
C379 C 0.88663 0.90436 0.72577 0.0
C380 C 0.90222 0.90769 0.70876 0.0
C381 C 0.91739 0.90219 0.72557 0.0
N382 N 0.94737 0.88395 0.75641 0.0
C383 C 0.94992 0.89089 0.72838 0.0
C384 C 0.96629 0.88576 0.71472 0.0
C385 C 0.97403 0.87515 0.73486 0.0
C386 C 0.96202 0.87436 0.75968 0.0
N387 N 0.94066 0.87579 0.82026 0.0
C388 C 0.95588 0.86691 0.81686 0.0
C389 C 0.96312 0.8623 0.84506 0.0
C390 C 0.9517 0.86875 0.86735 0.0
C391 C 0.93812 0.87698 0.85153 0.0
N392 N 0.91771 0.86493 0.77151 0.0
C393 C 0.91355 0.8343 0.74731 0.0
C394 C 0.91303 0.83725 0.77962 0.0
C395 C 0.91503 0.8526 0.7912 0.0
C396 C 0.91488 0.84728 0.72779 0.0
C397 C 0.917 0.8622 0.7401 0.0
N398 N 0.93625 0.90622 0.79887 0.0
C399 C 0.96348 0.92158 0.81073 0.0
C400 C 0.95396 0.93549 0.80492 0.0
C401 C 0.93477 0.9343 0.79827 0.0
C402 C 0.92616 0.91961 0.79583 0.0
C403 C 0.95462 0.9073 0.80701 0.0
H404 H 0.91155 0.91911 0.79007 0.0
H405 H 0.9631 0.89711 0.80941 0.0
H406 H 0.91522 0.85437 0.81607 0.0
H407 H 0.91904 0.87143 0.72366 0.0
C408 C 0.88237 0.89337 0.77815 0.0
C409 C 0.92254 0.88535 0.86629 0.0
C410 C 0.93643 0.90137 0.71319 0.0
C411 C 0.96501 0.86636 0.78788 0.0
H412 H 0.88404 0.89029 0.88349 0.0
H413 H 0.8615 0.89311 0.8348 0.0
H414 H 0.87239 0.90726 0.72001 0.0
H415 H 0.90232 0.91314 0.68613 0.0
H416 H 0.97189 0.88918 0.69239 0.0
H417 H 0.98705 0.86902 0.73198 0.0
H418 H 0.9758 0.85583 0.84906 0.0
H419 H 0.95329 0.86769 0.89229 0.0
H420 H 0.91185 0.82776 0.79597 0.0
H421 H 0.9147 0.84598 0.70275 0.0
H422 H 0.978 0.92153 0.81742 0.0
H423 H 0.92651 0.94455 0.79375 0.0
C424 C 0.67236 0.57176 0.81488 0.0
C425 C 0.68769 0.56201 0.81327 0.0
C426 C 0.68181 0.54867 0.7989 0.0
C427 C 0.66327 0.55098 0.7926 0.0
N428 N 0.6572 0.56497 0.802 0.0
Co429 Co 0.63137 0.57279 0.79868 0.0
N430 N 0.62124 0.55148 0.79508 0.0
C431 C 0.63103 0.53875 0.78726 0.0
C432 C 0.6204 0.52554 0.78682 0.0
C433 C 0.6028 0.53028 0.79451 0.0
C434 C 0.60363 0.54623 0.79905 0.0
N435 N 0.60557 0.58062 0.79495 0.0
C436 C 0.58913 0.57298 0.79785 0.0
C437 C 0.57436 0.58293 0.79202 0.0
C438 C 0.58195 0.59719 0.78506 0.0
C439 C 0.60091 0.59521 0.78693 0.0
N440 N 0.64196 0.5939 0.80304 0.0
C441 C 0.63355 0.60716 0.79459 0.0
C442 C 0.64403 0.62 0.80224 0.0
C443 C 0.65989 0.61433 0.81637 0.0
C444 C 0.65822 0.59833 0.81667 0.0
N445 N 0.6334 0.57421 0.75264 0.0
C446 C 0.63063 0.58195 0.68864 0.0
C447 C 0.64571 0.58708 0.70688 0.0
C448 C 0.64701 0.58288 0.73858 0.0
C449 C 0.61766 0.57213 0.70294 0.0
C450 C 0.61921 0.56851 0.73461 0.0
N451 N 0.62847 0.57203 0.84409 0.0
C452 C 0.61758 0.58505 0.89011 0.0
C453 C 0.6227 0.5725 0.90878 0.0
C454 C 0.63067 0.55947 0.89422 0.0
C455 C 0.63355 0.55951 0.86175 0.0
C456 C 0.62055 0.58459 0.85825 0.0
H457 H 0.63978 0.54947 0.8509 0.0
H458 H 0.61624 0.59454 0.84507 0.0
H459 H 0.65858 0.58724 0.75203 0.0
H460 H 0.60816 0.56178 0.74475 0.0
C461 C 0.65048 0.5393 0.78521 0.0
C462 C 0.67258 0.58746 0.82818 0.0
C463 C 0.5872 0.55616 0.8036 0.0
C464 C 0.61454 0.60702 0.78627 0.0
H465 H 0.70156 0.56415 0.82203 0.0
H466 H 0.68981 0.53818 0.79542 0.0
H467 H 0.62499 0.51378 0.78238 0.0
H468 H 0.5907 0.52284 0.79605 0.0
H469 H 0.55968 0.58013 0.79244 0.0
H470 H 0.5745 0.60782 0.78015 0.0
H471 H 0.64017 0.63206 0.79952 0.0
H472 H 0.67128 0.62115 0.82556 0.0
H473 H 0.65631 0.59448 0.69686 0.0
H474 H 0.60571 0.56789 0.69014 0.0
H475 H 0.61095 0.59521 0.89995 0.0
H476 H 0.6348 0.54946 0.90778 0.0
C477 C 0.40783 0.12871 0.99982 0.0
C478 C 0.39023 0.12711 0.98691 0.0
C479 C 0.378 0.12611 1.01131 0.0
C480 C 0.38878 0.12718 0.03763 0.0
N481 N 0.40699 0.12884 0.03127 0.0
Co482 Co 0.42729 0.1307 0.0622 0.0
N483 N 0.41191 0.12077 0.09476 0.0
C484 C 0.39322 0.11954 0.09443 0.0
C485 C 0.38627 0.11238 0.12043 0.0
C486 C 0.40153 0.10906 0.13833 0.0
C487 C 0.41703 0.11439 0.12219 0.0
N488 N 0.44747 0.13277 0.09321 0.0
C489 C 0.44947 0.12587 0.1214 0.0
C490 C 0.46547 0.13114 0.13607 0.0
C491 C 0.47355 0.14179 0.11637 0.0
C492 C 0.46208 0.14246 0.09079 0.0
N493 N 0.44231 0.14034 0.02865 0.0
C494 C 0.45752 0.14917 0.0328 0.0
C495 C 0.46539 0.15358 1.00498 0.0
C496 C 0.45439 0.14708 0.98212 0.0
C497 C 0.44038 0.13903 0.99725 0.0
N498 N 0.41819 0.15155 0.07563 0.0
C499 C 0.41254 0.18216 0.09866 0.0
C500 C 0.414 0.17918 0.06652 0.0
C501 C 0.41648 0.16381 0.05548 0.0
C502 C 0.41322 0.16934 0.11861 0.0
C503 C 0.41619 0.15439 0.10687 0.0
N504 N 0.43736 0.11021 0.05037 0.0
C505 C 0.46482 0.09451 0.04268 0.0
C506 C 0.45436 0.08079 0.04292 0.0
C507 C 0.43489 0.08227 0.04598 0.0
C508 C 0.42667 0.09706 0.04956 0.0
C509 C 0.45616 0.10889 0.0462 0.0
H510 H 0.41178 0.09784 0.05255 0.0
H511 H 0.465 0.11895 0.04687 0.0
H512 H 0.41769 0.16196 0.03072 0.0
H513 H 0.41782 0.14526 0.12367 0.0
C514 C 0.38304 0.12327 0.06769 0.0
C515 C 0.42491 0.13079 0.98169 0.0
C516 C 0.43586 0.11515 0.1355 0.0
C517 C 0.46583 0.15012 0.06246 0.0
H518 H 0.38665 0.12659 0.96248 0.0
H519 H 0.36318 0.12396 1.00996 0.0
H520 H 0.3719 0.10963 0.12553 0.0
H521 H 0.4012 0.1038 0.16112 0.0
H522 H 0.47067 0.12773 0.15868 0.0
H523 H 0.4865 0.14794 0.11994 0.0
H524 H 0.47816 0.16002 1.00164 0.0
H525 H 0.45651 0.14803 0.95728 0.0
H526 H 0.41336 0.18865 0.05001 0.0
H527 H 0.41236 0.17091 0.14357 0.0
H528 H 0.47984 0.09426 0.04108 0.0
H529 H 0.42604 0.07211 0.04589 0.0
C530 C 0.83653 0.94351 0.30916 0.0
C531 C 0.82104 0.95309 0.3082 0.0
C532 C 0.82671 0.96673 0.29482 0.0
C533 C 0.84528 0.96473 0.28841 0.0
N534 N 0.85158 0.95063 0.29667 0.0
Co535 Co 0.87753 0.94308 0.29271 0.0
N536 N 0.88743 0.96454 0.29038 0.0
C537 C 0.87729 0.97744 0.28524 0.0
C538 C 0.88744 0.99081 0.28823 0.0
C539 C 0.90513 0.98604 0.29509 0.0
C540 C 0.90495 0.9699 0.29506 0.0
N541 N 0.90344 0.9355 0.28827 0.0
C542 C 0.91989 0.94327 0.29009 0.0
C543 C 0.93458 0.93345 0.28285 0.0
C544 C 0.92699 0.91918 0.27619 0.0
C545 C 0.9081 0.921 0.27952 0.0
N546 N 0.86712 0.92183 0.29603 0.0
C547 C 0.87563 0.90873 0.28694 0.0
C548 C 0.86533 0.89572 0.29408 0.0
C549 C 0.84947 0.90109 0.30859 0.0
C550 C 0.85096 0.9171 0.30958 0.0
N551 N 0.87536 0.94227 0.24661 0.0
C552 C 0.87858 0.93476 0.18247 0.0
C553 C 0.8634 0.92955 0.20039 0.0
C554 C 0.86191 0.93358 0.23216 0.0
C555 C 0.89133 0.94467 0.1972 0.0
C556 C 0.88947 0.94826 0.22885 0.0
N557 N 0.88061 0.94323 0.33815 0.0
C558 C 0.89194 0.92974 0.38341 0.0
C559 C 0.88697 0.9421 0.4027 0.0
C560 C 0.87875 0.95522 0.38888 0.0
C561 C 0.87555 0.9555 0.3565 0.0
C562 C 0.88871 0.93054 0.35161 0.0
H563 H 0.86911 0.96561 0.34628 0.0
H564 H 0.893 0.92077 0.3379 0.0
H565 H 0.85035 0.92904 0.24537 0.0
H566 H 0.9003 0.95515 0.23922 0.0
C567 C 0.8579 0.97673 0.2829 0.0
C568 C 0.83657 0.92771 0.32182 0.0
C569 C 0.92189 0.96017 0.29536 0.0
C570 C 0.89457 0.90912 0.27849 0.0
H571 H 0.80723 0.95065 0.31693 0.0
H572 H 0.8186 0.97724 0.29233 0.0
H573 H 0.88245 1.00264 0.28684 0.0
H574 H 0.91682 0.99368 0.29916 0.0
H575 H 0.94921 0.93635 0.28184 0.0
H576 H 0.93441 0.90869 0.27013 0.0
H577 H 0.86932 0.88373 0.29079 0.0
H578 H 0.83819 0.89408 0.3176 0.0
H579 H 0.85286 0.92217 0.19013 0.0
H580 H 0.90337 0.94903 0.18486 0.0
H581 H 0.8987 0.91951 0.39272 0.0
H582 H 0.87469 0.96507 0.40294 0.0
C583 C 0.10454 0.38742 0.49853 0.0
C584 C 0.12226 0.38883 0.48609 0.0
C585 C 0.13431 0.38965 0.51081 0.0
C586 C 0.1233 0.38864 0.53686 0.0
N587 N 0.10514 0.38717 0.52998 0.0
Co588 Co 0.08452 0.38548 0.56025 0.0
N589 N 0.09967 0.39534 0.59324 0.0
C590 C 0.11837 0.39647 0.59344 0.0
C591 C 0.1251 0.40379 0.61944 0.0
C592 C 0.10969 0.40729 0.63679 0.0
C593 C 0.09431 0.40188 0.62036 0.0
N594 N 0.06399 0.38363 0.59058 0.0
C595 C 0.06177 0.39057 0.61866 0.0
C596 C 0.04559 0.38541 0.63288 0.0
C597 C 0.0376 0.3748 0.61299 0.0
C598 C 0.04931 0.37403 0.58776 0.0
N599 N 0.06976 0.37591 0.5263 0.0
C600 C 0.05442 0.3672 0.52999 0.0
C601 C 0.04664 0.36304 0.50192 0.0
C602 C 0.05784 0.36959 0.47942 0.0
C603 C 0.0719 0.3774 0.49498 0.0
N604 N 0.09327 0.36459 0.57412 0.0
C605 C 0.09874 0.334 0.59752 0.0
C606 C 0.09763 0.33696 0.56531 0.0
C607 C 0.09523 0.35231 0.5541 0.0
C608 C 0.09774 0.34684 0.61737 0.0
C609 C 0.09488 0.36178 0.60544 0.0
N610 N 0.07482 0.40605 0.548 0.0
C611 C 0.0476 0.42194 0.53969 0.0
C612 C 0.05813 0.43557 0.54162 0.0
C613 C 0.07756 0.43401 0.54478 0.0
C614 C 0.08563 0.41914 0.54793 0.0
C615 C 0.0561 0.40749 0.54292 0.0
H616 H 0.10047 0.41826 0.5515 0.0
H617 H 0.0472 0.39747 0.54265 0.0
H618 H 0.09429 0.35413 0.52929 0.0
H619 H 0.09305 0.37093 0.62212 0.0
C620 C 0.12879 0.39259 0.56706 0.0
C621 C 0.08753 0.38569 0.47999 0.0
C622 C 0.07536 0.40118 0.63317 0.0
C623 C 0.04578 0.36635 0.55937 0.0
H624 H 0.12603 0.38937 0.46175 0.0
H625 H 0.14916 0.39168 0.50986 0.0
H626 H 0.13943 0.40656 0.62487 0.0
H627 H 0.10983 0.41277 0.6594 0.0
H628 H 0.04022 0.38886 0.65534 0.0
H629 H 0.02456 0.36874 0.6162 0.0
H630 H 0.03376 0.35681 0.4982 0.0
H631 H 0.05575 0.36887 0.45455 0.0
H632 H 0.09853 0.32748 0.54886 0.0
H633 H 0.09828 0.34531 0.64236 0.0
H634 H 0.03267 0.4224 0.53636 0.0
H635 H 0.08636 0.44418 0.54615 0.0
C636 C 0.67053 0.94417 0.52703 0.0
C637 C 0.68532 0.95454 0.52768 0.0
C638 C 0.67891 0.96779 0.54167 0.0
C639 C 0.66059 0.96489 0.54854 0.0
N640 N 0.65511 0.95062 0.53983 0.0
Co641 Co 0.62956 0.94213 0.54357 0.0
N642 N 0.61864 0.9632 0.54678 0.0
C643 C 0.62796 0.97623 0.55424 0.0
C644 C 0.61682 0.98916 0.55455 0.0
C645 C 0.59939 0.98389 0.54713 0.0
C646 C 0.60084 0.96796 0.54282 0.0
N647 N 0.60408 0.93366 0.54766 0.0
C648 C 0.58734 0.94087 0.54494 0.0
C649 C 0.57298 0.93057 0.55107 0.0
C650 C 0.58111 0.91653 0.55806 0.0
C651 C 0.59998 0.91899 0.55587 0.0
N652 N 0.64094 0.92127 0.53959 0.0
C653 C 0.63302 0.90785 0.5484 0.0
C654 C 0.64396 0.89523 0.54125 0.0
C655 C 0.65964 0.90119 0.52711 0.0
C656 C 0.65739 0.91715 0.52627 0.0
N657 N 0.63174 0.94097 0.5897 0.0
C658 C 0.62797 0.93283 0.65363 0.0
C659 C 0.64323 0.9277 0.63569 0.0
C660 C 0.64503 0.9321 0.60412 0.0
C661 C 0.61574 0.94328 0.63908 0.0
C662 C 0.61765 0.94694 0.60753 0.0
N663 N 0.62629 0.94265 0.49817 0.0
C664 C 0.61387 0.92966 0.45317 0.0
C665 C 0.61552 0.94311 0.43525 0.0
C666 C 0.62388 0.95618 0.44906 0.0
C667 C 0.62921 0.9557 0.48066 0.0
C668 C 0.61914 0.9297 0.48423 0.0
H669 H 0.63507 0.96598 0.49118 0.0
H670 H 0.61666 0.91927 0.4972 0.0
H671 H 0.65663 0.9276 0.59098 0.0
H672 H 0.60686 0.95394 0.59738 0.0
C673 C 0.64739 0.97623 0.55589 0.0
C674 C 0.67152 0.92823 0.51476 0.0
C675 C 0.58477 0.95759 0.53877 0.0
C676 C 0.61403 0.90754 0.55671 0.0
H677 H 0.69917 0.95297 0.51846 0.0
H678 H 0.68638 0.97861 0.54445 0.0
H679 H 0.62094 1.00106 0.55873 0.0
H680 H 0.58698 0.99091 0.54567 0.0
H681 H 0.5582 0.933 0.55079 0.0
H682 H 0.57407 0.90574 0.56322 0.0
H683 H 0.64056 0.8831 0.54439 0.0
H684 H 0.67132 0.8946 0.51832 0.0
H685 H 0.65339 0.91978 0.64532 0.0
H686 H 0.60422 0.94839 0.65157 0.0
H687 H 0.60811 0.9191 0.44345 0.0
H688 H 0.62564 0.96681 0.43597 0.0
C689 C 0.10683 0.12864 0.85132 0.0
C690 C 0.1247 0.12715 0.86317 0.0
C691 C 0.13643 0.12633 0.83805 0.0
C692 C 0.1251 0.12741 0.81238 0.0
N693 N 0.10703 0.12892 0.81983 0.0
Co694 Co 0.08605 0.13072 0.7902 0.0
N695 N 0.1008 0.12098 0.75658 0.0
C696 C 0.1195 0.11986 0.75579 0.0
C697 C 0.12592 0.11266 0.72948 0.0
C698 C 0.11032 0.10922 0.71254 0.0
C699 C 0.09513 0.11455 0.7295 0.0
N700 N 0.06512 0.13257 0.76062 0.0
C701 C 0.06256 0.12571 0.73252 0.0
C702 C 0.04614 0.13082 0.71895 0.0
C703 C 0.03837 0.14132 0.73927 0.0
C704 C 0.05041 0.14207 0.76408 0.0
N705 N 0.07181 0.14033 0.82473 0.0
C706 C 0.05645 0.14908 0.82155 0.0
C707 C 0.04908 0.15329 0.84986 0.0
C708 C 0.06054 0.14674 0.87199 0.0
C709 C 0.07436 0.13888 0.85599 0.0
N710 N 0.09466 0.15163 0.77619 0.0
C711 C 0.09984 0.18226 0.75284 0.0
C712 C 0.0992 0.17925 0.78506 0.0
C713 C 0.09695 0.16388 0.79623 0.0
C714 C 0.09854 0.16947 0.73293 0.0
C715 C 0.0958 0.15452 0.74485 0.0
N716 N 0.07642 0.1101 0.80255 0.0
C717 C 0.0493 0.09452 0.81392 0.0
C718 C 0.05897 0.0807 0.80801 0.0
C719 C 0.07816 0.08203 0.80155 0.0
C720 C 0.08664 0.09678 0.79938 0.0
C721 C 0.05804 0.10887 0.81051 0.0
H722 H 0.10126 0.09741 0.79373 0.0
H723 H 0.04946 0.11899 0.813 0.0
H724 H 0.09639 0.162 0.82105 0.0
H725 H 0.09369 0.14542 0.72815 0.0
C726 C 0.13021 0.12359 0.78195 0.0
C727 C 0.09011 0.1305 0.87048 0.0
C728 C 0.07603 0.11526 0.71729 0.0
C729 C 0.04734 0.14981 0.79254 0.0
H730 H 0.12879 0.1266 0.88737 0.0
H731 H 0.15128 0.12428 0.8385 0.0
H732 H 0.14019 0.10991 0.7236 0.0
H733 H 0.1102 0.10382 0.68986 0.0
H734 H 0.04051 0.12744 0.69662 0.0
H735 H 0.02527 0.14737 0.73655 0.0
H736 H 0.03625 0.15953 0.854 0.0
H737 H 0.05874 0.14746 0.89692 0.0
H738 H 0.10034 0.1887 0.80153 0.0
H739 H 0.09874 0.17106 0.70794 0.0
H740 H 0.03477 0.09444 0.82044 0.0
H741 H 0.08651 0.07184 0.79697 0.0
C742 C 0.83866 0.57122 0.03516 0.0
C743 C 0.82367 0.56111 0.03737 0.0
C744 C 0.83009 0.54803 0.05208 0.0
C745 C 0.84859 0.5508 0.0579 0.0
N746 N 0.85413 0.56484 0.04788 0.0
Co747 Co 0.87975 0.57321 0.05022 0.0
N748 N 0.89053 0.55214 0.05407 0.0
C749 C 0.88123 0.53932 0.0629 0.0
C750 C 0.89229 0.52636 0.0638 0.0
C751 C 0.90966 0.53139 0.0553 0.0
C752 C 0.90823 0.54723 0.04971 0.0
N753 N 0.90534 0.58158 0.0529 0.0
C754 C 0.92196 0.57425 0.04964 0.0
C755 C 0.9365 0.58454 0.05459 0.0
C756 C 0.92859 0.59869 0.06143 0.0
C757 C 0.90968 0.59631 0.06033 0.0
N758 N 0.86849 0.59406 0.04571 0.0
C759 C 0.8766 0.60754 0.0536 0.0
C760 C 0.86568 0.62011 0.04591 0.0
C761 C 0.84986 0.61404 0.03236 0.0
C762 C 0.85199 0.59807 0.0324 0.0
N763 N 0.8782 0.57485 0.09629 0.0
C764 C 0.88133 0.58268 0.16021 0.0
C765 C 0.86596 0.58752 0.14233 0.0
C766 C 0.86449 0.58327 0.11067 0.0
C767 C 0.89446 0.57315 0.14559 0.0
C768 C 0.89274 0.5695 0.11397 0.0
N769 N 0.8822 0.5722 1.00476 0.0
C770 C 0.89203 0.58517 0.95799 0.0
C771 C 0.88785 0.57212 0.94008 0.0
C772 C 0.88079 0.55892 0.95531 0.0
C773 C 0.87789 0.55926 0.98776 0.0
C774 C 0.88924 0.58495 0.98991 0.0
H775 H 0.87234 0.54909 0.99915 0.0
H776 H 0.89306 0.59519 1.00259 0.0
H777 H 0.85267 0.58738 0.0975 0.0
H778 H 0.9039 0.563 0.10358 0.0
C779 C 0.8618 0.53948 0.06547 0.0
C780 C 0.83783 0.58685 0.02152 0.0
C781 C 0.92425 0.55745 0.04401 0.0
C782 C 0.89571 0.60785 0.06121 0.0
H783 H 0.80967 0.56282 0.0288 0.0
H784 H 0.82246 0.53739 0.05609 0.0
H785 H 0.88816 0.51458 0.06914 0.0
H786 H 0.92203 0.52425 0.05403 0.0
H787 H 0.95125 0.58205 0.0536 0.0
H788 H 0.9358 0.60951 0.06572 0.0
H789 H 0.86923 0.63226 0.04819 0.0
H790 H 0.83819 0.62056 0.02329 0.0
H791 H 0.85525 0.5947 0.15262 0.0
H792 H 0.90664 0.56915 0.15809 0.0
H793 H 0.89789 0.5955 0.94747 0.0
H794 H 0.87742 0.54855 0.94228 0.0
C795 C 0.40513 0.38728 0.35189 0.0
C796 C 0.38724 0.38902 0.36346 0.0
C797 C 0.37565 0.39007 0.33816 0.0
C798 C 0.38708 0.38893 0.31266 0.0
N799 N 0.40509 0.38718 0.32038 0.0
Co800 Co 0.42622 0.38544 0.29103 0.0
N801 N 0.41168 0.39532 0.25729 0.0
C802 C 0.393 0.39651 0.25619 0.0
C803 C 0.38675 0.40382 0.22985 0.0
C804 C 0.40246 0.40727 0.21323 0.0
C805 C 0.41752 0.40185 0.23042 0.0
N806 N 0.4473 0.38364 0.26178 0.0
C807 C 0.45007 0.39068 0.2339 0.0
C808 C 0.46654 0.3856 0.22055 0.0
C809 C 0.47415 0.37495 0.24076 0.0
C810 C 0.46195 0.37408 0.26531 0.0
N811 N 0.44027 0.37564 0.32557 0.0
C812 C 0.45554 0.36679 0.32249 0.0
C813 C 0.46262 0.36224 0.35084 0.0
C814 C 0.45103 0.36868 0.37289 0.0
C815 C 0.43752 0.37686 0.35678 0.0
N816 N 0.41758 0.36462 0.27662 0.0
C817 C 0.41208 0.3341 0.25291 0.0
C818 C 0.41242 0.33706 0.28516 0.0
C819 C 0.41486 0.35238 0.29651 0.0
C820 C 0.41389 0.34691 0.23312 0.0
C821 C 0.41675 0.36181 0.24522 0.0
N822 N 0.43586 0.40598 0.3038 0.0
C823 C 0.46298 0.42148 0.31565 0.0
C824 C 0.45339 0.43532 0.30957 0.0
C825 C 0.43422 0.43405 0.30282 0.0
C826 C 0.4257 0.41933 0.30052 0.0
C827 C 0.4542 0.40715 0.31209 0.0
H828 H 0.41111 0.41875 0.29463 0.0
H829 H 0.46272 0.397 0.3147 0.0
H830 H 0.41519 0.35421 0.32135 0.0
H831 H 0.41917 0.37093 0.22868 0.0
C832 C 0.38215 0.39283 0.28218 0.0
C833 C 0.42175 0.38511 0.37124 0.0
C834 C 0.43672 0.40126 0.21868 0.0
C835 C 0.46482 0.36616 0.29364 0.0
H836 H 0.38302 0.38962 0.38757 0.0
H837 H 0.36084 0.39231 0.33839 0.0
H838 H 0.37253 0.40666 0.22377 0.0
H839 H 0.40272 0.41276 0.19064 0.0
H840 H 0.47233 0.38911 0.19841 0.0
H841 H 0.48723 0.36888 0.23816 0.0
H842 H 0.47528 0.35579 0.3551 0.0
H843 H 0.45244 0.36764 0.39787 0.0
H844 H 0.41088 0.3276 0.30154 0.0
H845 H 0.41396 0.34538 0.20812 0.0
H846 H 0.47748 0.42152 0.32239 0.0
H847 H 0.42593 0.44426 0.2981 0.0
H848 H 0.33666 0.09084 0.46109 0.0
H849 H 0.30891 0.09412 0.42811 0.0
H850 H 0.27451 0.09636 0.51006 0.0
H851 H 0.30229 0.09332 0.5429 0.0
H852 H 0.26012 0.07599 0.46735 0.0
H853 H 0.28258 0.12855 0.46575 0.0
H854 H 0.3059 0.14912 0.45743 0.0
H855 H 0.31048 0.13617 0.36133 0.0
H856 H 0.28737 0.11537 0.36918 0.0
H857 H 0.17499 0.09107 0.39092 0.0
H858 H 0.20219 0.09443 0.42489 0.0
H859 H 0.23733 0.09923 0.34418 0.0
H860 H 0.20994 0.09659 0.31043 0.0
H861 H 0.25148 0.11653 0.38678 0.0
H862 H 0.23123 0.06378 0.38666 0.0
H863 H 0.20874 0.04239 0.39264 0.0
H864 H 0.20155 0.05404 0.48898 0.0
H865 H 0.22378 0.07569 0.48343 0.0
C866 C 0.32321 0.09239 0.47202 0.0
C867 C 0.3217 0.09185 0.50462 0.0
C868 C 0.30729 0.0942 0.45315 0.0
C869 C 0.28939 0.09547 0.46638 0.0
C870 C 0.28801 0.09535 0.49905 0.0
C871 C 0.30393 0.09371 0.51788 0.0
C872 C 0.27211 0.09632 0.44635 0.0
C873 C 0.25814 0.08502 0.45009 0.0
C874 C 0.26957 0.10774 0.42295 0.0
C875 C 0.28337 0.12031 0.41813 0.0
C876 C 0.28866 0.13001 0.4429 0.0
C877 C 0.30183 0.14172 0.43826 0.0
C878 C 0.3097 0.14392 0.40889 0.0
C879 C 0.30439 0.13444 0.38408 0.0
C880 C 0.29124 0.12269 0.3886 0.0
C881 C 0.18845 0.09332 0.38052 0.0
C882 C 0.19028 0.09365 0.34799 0.0
C883 C 0.20413 0.095 0.39995 0.0
C884 C 0.22218 0.09664 0.38739 0.0
C885 C 0.22377 0.09789 0.35481 0.0
C886 C 0.20805 0.09644 0.33541 0.0
C887 C 0.23936 0.09624 0.40787 0.0
C888 C 0.25336 0.10754 0.40414 0.0
C889 C 0.24213 0.08464 0.43096 0.0
C890 C 0.22904 0.07145 0.43456 0.0
C891 C 0.22479 0.06183 0.40909 0.0
C892 C 0.21208 0.04966 0.4124 0.0
C893 C 0.20369 0.04688 0.44116 0.0
C894 C 0.20804 0.05623 0.4667 0.0
C895 C 0.2207 0.06845 0.46349 0.0
H896 H 0.19384 0.03746 0.44368 0.0
H897 H 0.3199 0.153 0.40535 0.0
H898 H 0.89474 0.80775 0.76722 0.0
H899 H 0.89382 0.78207 0.74255 0.0
H900 H 0.93104 0.79819 0.67101 0.0
H901 H 0.93223 0.82361 0.69553 0.0
H902 H 0.90434 0.7821 0.64439 0.0
H903 H 0.94493 0.77306 0.73132 0.0
H904 H 0.95401 0.77271 0.78663 0.0
H905 H 0.90855 0.74206 0.8072 0.0
H906 H 0.89904 0.74239 0.75205 0.0
H907 H 0.92859 0.70876 0.5764 0.0
H908 H 0.92814 0.73426 0.6016 0.0
H909 H 0.89303 0.71603 0.67414 0.0
H910 H 0.89357 0.69058 0.64926 0.0
H911 H 0.9178 0.73318 0.70062 0.0
H912 H 0.8773 0.74188 0.61384 0.0
H913 H 0.86798 0.74226 0.55864 0.0
H914 H 0.91274 0.7736 0.53789 0.0
H915 H 0.92248 0.77325 0.59292 0.0
C916 C 0.9029 0.80583 0.74643 0.0
C917 C 0.91338 0.81808 0.73343 0.0
C918 C 0.90235 0.79104 0.73219 0.0
C919 C 0.91237 0.78795 0.70463 0.0
C920 C 0.92297 0.8001 0.69193 0.0
C921 C 0.92356 0.8148 0.70609 0.0
C922 C 0.9118 0.77225 0.68868 0.0
C923 C 0.9075 0.77145 0.65673 0.0
C924 C 0.91547 0.75811 0.70449 0.0
C925 C 0.92115 0.75789 0.73763 0.0
C926 C 0.93678 0.76635 0.74769 0.0
C927 C 0.94202 0.76613 0.779 0.0
C928 C 0.93183 0.7574 0.80043 0.0
C929 C 0.9164 0.74883 0.79058 0.0
C930 C 0.91109 0.74903 0.7593 0.0
C931 C 0.92051 0.71019 0.59744 0.0
C932 C 0.91116 0.69738 0.61059 0.0
C933 C 0.92027 0.72489 0.612 0.0
C934 C 0.91043 0.72737 0.63999 0.0
C935 C 0.90087 0.71464 0.65282 0.0
C936 C 0.90119 0.69996 0.63842 0.0
C937 C 0.91037 0.74302 0.65626 0.0
C938 C 0.91457 0.74382 0.68827 0.0
C939 C 0.90656 0.75717 0.64052 0.0
C940 C 0.90073 0.75741 0.60744 0.0
C941 C 0.88524 0.74876 0.59746 0.0
C942 C 0.87986 0.74899 0.56621 0.0
C943 C 0.88979 0.75791 0.54476 0.0
C944 C 0.90508 0.76667 0.55453 0.0
C945 C 0.91053 0.76647 0.58575 0.0
H946 H 0.8856 0.75808 0.52058 0.0
H947 H 0.93592 0.75724 0.82466 0.0
H948 H 0.30238 0.42129 0.81009 0.0
H949 H 0.2745 0.41859 0.84273 0.0
H950 H 0.30829 0.42372 0.92494 0.0
H951 H 0.33617 0.42657 0.89213 0.0
H952 H 0.28016 0.40144 0.93318 0.0
H953 H 0.28486 0.45412 0.89725 0.0
H954 H 0.28798 0.4745 0.85735 0.0
H955 H 0.23691 0.45963 0.81488 0.0
H956 H 0.23364 0.43898 0.85426 0.0
H957 H 0.20892 0.42256 0.04151 0.0
H958 H 0.2365 0.41981 1.00848 0.0
H959 H 0.20194 0.4239 0.9268 0.0
H960 H 0.17446 0.42729 0.96016 0.0
H961 H 0.23052 0.44061 0.91725 0.0
H962 H 0.22491 0.38832 0.9526 0.0
H963 H 0.22181 0.36709 0.99069 0.0
H964 H 0.27387 0.38002 0.03235 0.0
H965 H 0.27717 0.40147 0.99475 0.0
C966 C 0.30389 0.4215 0.83515 0.0
C967 C 0.3215 0.42406 0.84852 0.0
C968 C 0.2879 0.42008 0.85386 0.0
C969 C 0.28907 0.42113 0.88652 0.0
C970 C 0.30686 0.42286 0.89993 0.0
C971 C 0.32284 0.42443 0.88116 0.0
C972 C 0.27174 0.4213 0.9064 0.0
C973 C 0.2694 0.41011 0.9299 0.0
C974 C 0.25733 0.43233 0.90189 0.0
C975 C 0.25909 0.44491 0.87853 0.0
C976 C 0.27435 0.45513 0.87929 0.0
C977 C 0.27614 0.46674 0.85679 0.0
C978 C 0.26267 0.46834 0.83356 0.0
C979 C 0.24735 0.45836 0.83286 0.0
C980 C 0.24551 0.44671 0.85528 0.0
C981 C 0.20719 0.42253 0.01649 0.0
C982 C 0.18945 0.42496 1.00348 0.0
C983 C 0.22302 0.42093 0.99746 0.0
C984 C 0.2216 0.42144 0.96473 0.0
C985 C 0.20369 0.42345 0.9518 0.0
C986 C 0.18788 0.42521 0.97089 0.0
C987 C 0.23874 0.42066 0.94419 0.0
C988 C 0.24113 0.43182 0.92056 0.0
C989 C 0.25311 0.4095 0.94843 0.0
C990 C 0.2512 0.3966 0.97103 0.0
C991 C 0.23564 0.38671 0.97002 0.0
C992 C 0.23385 0.37463 0.99151 0.0
C993 C 0.24761 0.37224 1.01397 0.0
C994 C 0.26321 0.3819 0.01495 0.0
C995 C 0.26506 0.39402 0.99354 0.0
H996 H 0.2462 0.36287 0.03059 0.0
H997 H 0.2641 0.47732 0.81613 0.0
H998 H 0.57134 0.82048 0.14089 0.0
H999 H 0.57413 0.79597 0.16908 0.0
H1000 H 0.62335 0.78474 0.11661 0.0
H1001 H 0.62057 0.80938 0.08804 0.0
H1002 H 0.59922 0.75957 0.12073 0.0
H1003 H 0.62653 0.79571 0.19252 0.0
H1004 H 0.62756 0.81943 0.22451 0.0
H1005 H 0.57923 0.80431 0.27475 0.0
H1006 H 0.57776 0.78059 0.24275 0.0
H1007 H 0.6226 0.69265 0.208 0.0
H1008 H 0.62321 0.71806 0.18288 0.0
H1009 H 0.58052 0.73418 0.24541 0.0
H1010 H 0.58047 0.70882 0.27147 0.0
H1011 H 0.60197 0.75719 0.23587 0.0
H1012 H 0.5728 0.72234 0.16463 0.0
H1013 H 0.56959 0.69885 0.13232 0.0
H1014 H 0.61829 0.71168 0.08054 0.0
H1015 H 0.62194 0.73515 0.11284 0.0
C1016 C 0.58279 0.81283 0.13518 0.0
C1017 C 0.59568 0.81705 0.11188 0.0
C1018 C 0.58445 0.79878 0.15161 0.0
C1019 C 0.59902 0.78834 0.14534 0.0
C1020 C 0.61196 0.79248 0.1221 0.0
C1021 C 0.61043 0.80669 0.10585 0.0
C1022 C 0.60047 0.7731 0.16267 0.0
C1023 C 0.60015 0.75909 0.14589 0.0
C1024 C 0.60101 0.77223 0.19565 0.0
C1025 C 0.60194 0.78643 0.21505 0.0
C1026 C 0.61604 0.79749 0.21024 0.0
C1027 C 0.61672 0.81093 0.22839 0.0
C1028 C 0.60344 0.81339 0.2516 0.0
C1029 C 0.58949 0.8024 0.25674 0.0
C1030 C 0.58874 0.78894 0.23863 0.0
C1031 C 0.6134 0.70162 0.2166 0.0
C1032 C 0.60141 0.69852 0.24179 0.0
C1033 C 0.61363 0.71622 0.20194 0.0
C1034 C 0.60151 0.7282 0.21133 0.0
C1035 C 0.58999 0.7253 0.23728 0.0
C1036 C 0.58998 0.71073 0.25233 0.0
C1037 C 0.60075 0.74355 0.19396 0.0
C1038 C 0.60113 0.7576 0.21071 0.0
C1039 C 0.59993 0.74447 0.16092 0.0
C1040 C 0.59775 0.73041 0.14137 0.0
C1041 C 0.5829 0.72009 0.14649 0.0
C1042 C 0.58099 0.7068 0.12816 0.0
C1043 C 0.59376 0.70376 0.10445 0.0
C1044 C 0.60843 0.71404 0.09895 0.0
C1045 C 0.61042 0.72735 0.11725 0.0
H1046 H 0.59226 0.69346 0.09028 0.0
H1047 H 0.60399 0.82381 0.26563 0.0
H1048 H 0.7076 0.59612 0.80965 0.0
H1049 H 0.73556 0.59894 0.84215 0.0
H1050 H 0.70237 0.59183 0.92437 0.0
H1051 H 0.67443 0.58882 0.8917 0.0
H1052 H 0.73008 0.61473 0.93328 0.0
H1053 H 0.72623 0.5623 0.89542 0.0
H1054 H 0.72332 0.54222 0.85488 0.0
H1055 H 0.77364 0.55841 0.81195 0.0
H1056 H 0.77671 0.57874 0.85203 0.0
H1057 H 0.80208 0.59323 0.03997 0.0
H1058 H 0.77433 0.59604 1.00729 0.0
H1059 H 0.80864 0.59326 0.92518 0.0
H1060 H 0.8363 0.58978 0.95817 0.0
H1061 H 0.7803 0.57635 0.91512 0.0
H1062 H 0.78521 0.62827 0.95275 0.0
H1063 H 0.78815 0.6491 0.99175 0.0
H1064 H 0.73648 0.63513 0.03328 0.0
H1065 H 0.73335 0.61408 0.99477 0.0
C1066 C 0.70622 0.59555 0.83471 0.0
C1067 C 0.68877 0.59239 0.84812 0.0
C1068 C 0.72225 0.59702 0.85332 0.0
C1069 C 0.72128 0.59544 0.88591 0.0
C1070 C 0.70363 0.59311 0.8994 0.0
C1071 C 0.68761 0.59147 0.88072 0.0
C1072 C 0.73871 0.59528 0.90556 0.0
C1073 C 0.74097 0.60624 0.92951 0.0
C1074 C 0.75328 0.58448 0.90041 0.0
C1075 C 0.75161 0.57213 0.87655 0.0
C1076 C 0.73661 0.56164 0.87722 0.0
C1077 C 0.73495 0.5502 0.85436 0.0
C1078 C 0.74826 0.54907 0.83081 0.0
C1079 C 0.76332 0.55932 0.83017 0.0
C1080 C 0.76504 0.57079 0.85298 0.0
C1081 C 0.80371 0.59354 0.01494 0.0
C1082 C 0.82142 0.59142 1.00169 0.0
C1083 C 0.78778 0.59518 0.99611 0.0
C1084 C 0.7891 0.59507 0.96337 0.0
C1085 C 0.80698 0.5934 0.95021 0.0
C1086 C 0.82289 0.59158 0.96909 0.0
C1087 C 0.77187 0.59589 0.94301 0.0
C1088 C 0.76955 0.58497 0.91892 0.0
C1089 C 0.75733 0.60684 0.94789 0.0
C1090 C 0.75914 0.61951 0.97104 0.0
C1091 C 0.77454 0.62957 0.97033 0.0
C1092 C 0.77623 0.64143 0.99233 0.0
C1093 C 0.76253 0.64341 0.01502 0.0
C1094 C 0.74709 0.63357 0.01571 0.0
C1095 C 0.74534 0.62168 0.99378 0.0
H1096 H 0.76387 0.6526 0.03204 0.0
H1097 H 0.74692 0.54022 0.81309 0.0
H1098 H 0.39034 0.32426 0.20404 0.0
H1099 H 0.38961 0.29885 0.17886 0.0
H1100 H 0.4306 0.28204 0.24396 0.0
H1101 H 0.43076 0.30735 0.26996 0.0
H1102 H 0.41147 0.28312 0.14716 0.0
H1103 H 0.43022 0.24295 0.25065 0.0
H1104 H 0.42568 0.2416 0.30746 0.0
H1105 H 0.37673 0.26989 0.29967 0.0
H1106 H 0.38085 0.27125 0.2428 0.0
H1107 H 0.43333 0.20822 0.08467 0.0
H1108 H 0.43306 0.23351 0.11071 0.0
H1109 H 0.38787 0.21816 0.16909 0.0
H1110 H 0.38878 0.19271 0.14407 0.0
H1111 H 0.40839 0.23321 0.20409 0.0
H1112 H 0.38432 0.24617 0.1037 0.0
H1113 H 0.38376 0.24762 0.04642 0.0
H1114 H 0.43449 0.27395 0.04727 0.0
H1115 H 0.43547 0.27248 0.10456 0.0
C1116 C 0.39908 0.31511 0.21327 0.0
C1117 C 0.41053 0.31797 0.23931 0.0
C1118 C 0.39873 0.30049 0.19865 0.0
C1119 C 0.40994 0.28816 0.20927 0.0
C1120 C 0.42139 0.29101 0.23539 0.0
C1121 C 0.42151 0.30559 0.25038 0.0
C1122 C 0.40984 0.27262 0.19255 0.0
C1123 C 0.4108 0.27225 0.15979 0.0
C1124 C 0.40864 0.25817 0.20838 0.0
C1125 C 0.40598 0.25734 0.24252 0.0
C1126 C 0.41846 0.24884 0.26106 0.0
C1127 C 0.41597 0.24808 0.29327 0.0
C1128 C 0.40096 0.2557 0.30718 0.0
C1129 C 0.38838 0.26405 0.28889 0.0
C1130 C 0.3908 0.26483 0.25667 0.0
C1131 C 0.42316 0.21031 0.10276 0.0
C1132 C 0.41102 0.19833 0.11203 0.0
C1133 C 0.42296 0.22489 0.11775 0.0
C1134 C 0.41028 0.22815 0.14199 0.0
C1135 C 0.39794 0.21621 0.15078 0.0
C1136 C 0.39838 0.20157 0.13623 0.0
C1137 C 0.41004 0.2437 0.15868 0.0
C1138 C 0.40908 0.24408 0.19144 0.0
C1139 C 0.4106 0.25817 0.1428 0.0
C1140 C 0.41006 0.25908 0.10838 0.0
C1141 C 0.39542 0.25217 0.09165 0.0
C1142 C 0.39502 0.25302 0.05919 0.0
C1143 C 0.40911 0.26084 0.04321 0.0
C1144 C 0.4236 0.26787 0.05967 0.0
C1145 C 0.42408 0.26705 0.09214 0.0
H1146 H 0.40877 0.26147 0.01808 0.0
H1147 H 0.39906 0.2551 0.33211 0.0
H1148 H 0.83407 0.92902 0.38511 0.0
H1149 H 0.80616 0.92579 0.4175 0.0
H1150 H 0.77448 0.91324 0.33613 0.0
H1151 H 0.8025 0.9164 0.30386 0.0
H1152 H 0.75626 0.93514 0.37021 0.0
H1153 H 0.78543 0.88623 0.39245 0.0
H1154 H 0.81115 0.86916 0.40889 0.0
H1155 H 0.81229 0.89127 0.49833 0.0
H1156 H 0.78673 0.90863 0.48228 0.0
H1157 H 0.67255 0.92083 0.45274 0.0
H1158 H 0.70004 0.91691 0.41975 0.0
H1159 H 0.7355 0.92175 0.50018 0.0
H1160 H 0.70793 0.92471 0.53319 0.0
H1161 H 0.75165 0.90262 0.46502 0.0
H1162 H 0.7252 0.95256 0.44379 0.0
H1163 H 0.70032 0.97086 0.42909 0.0
H1164 H 0.69534 0.94879 0.33995 0.0
H1165 H 0.72003 0.93021 0.3543 0.0
C1166 C 0.82127 0.9251 0.37434 0.0
C1167 C 0.82061 0.9226 0.34203 0.0
C1168 C 0.80524 0.92333 0.39285 0.0
C1169 C 0.788 0.91918 0.37952 0.0
C1170 C 0.78747 0.91641 0.34722 0.0
C1171 C 0.80356 0.91803 0.32877 0.0
C1172 C 0.77047 0.91847 0.3989 0.0
C1173 C 0.75518 0.92781 0.39064 0.0
C1174 C 0.76902 0.90934 0.42627 0.0
C1175 C 0.78427 0.89882 0.43606 0.0
C1176 C 0.79125 0.88753 0.41555 0.0
C1177 C 0.80579 0.87779 0.42481 0.0
C1178 C 0.81338 0.87916 0.45461 0.0
C1179 C 0.80641 0.89024 0.47525 0.0
C1180 C 0.79188 0.90002 0.46609 0.0
C1181 C 0.68621 0.9207 0.4634 0.0
C1182 C 0.68804 0.92327 0.49554 0.0
C1183 C 0.70203 0.91869 0.44444 0.0
C1184 C 0.72019 0.91955 0.45697 0.0
C1185 C 0.72187 0.92117 0.48948 0.0
C1186 C 0.70605 0.92289 0.50846 0.0
C1187 C 0.73735 0.91934 0.43641 0.0
C1188 C 0.75262 0.90989 0.44449 0.0
C1189 C 0.73893 0.92859 0.40914 0.0
C1190 C 0.72433 0.93991 0.40023 0.0
C1191 C 0.71874 0.95157 0.4211 0.0
C1192 C 0.70467 0.96199 0.41284 0.0
C1193 C 0.69622 0.96096 0.38363 0.0
C1194 C 0.70188 0.94955 0.36258 0.0
C1195 C 0.71592 0.93908 0.37076 0.0
H1196 H 0.68532 0.96903 0.37729 0.0
H1197 H 0.82463 0.87161 0.46173 0.0
H1198 H 0.07904 0.30753 0.58181 0.0
H1199 H 0.07903 0.28227 0.60822 0.0
H1200 H 0.12216 0.2984 0.67005 0.0
H1201 H 0.12162 0.32373 0.64456 0.0
H1202 H 0.09966 0.25924 0.61754 0.0
H1203 H 0.12129 0.28149 0.74011 0.0
H1204 H 0.11775 0.30499 0.77233 0.0
H1205 H 0.06864 0.31756 0.72128 0.0
H1206 H 0.07174 0.29405 0.68906 0.0
H1207 H 0.12267 0.19276 0.70603 0.0
H1208 H 0.12291 0.21811 0.68057 0.0
H1209 H 0.07934 0.23373 0.74192 0.0
H1210 H 0.07974 0.20849 0.76842 0.0
H1211 H 0.09932 0.25701 0.73276 0.0
H1212 H 0.07272 0.22171 0.66055 0.0
H1213 H 0.07046 0.19815 0.62825 0.0
H1214 H 0.11964 0.2116 0.57842 0.0
H1215 H 0.12234 0.23515 0.61073 0.0
C1216 C 0.08864 0.30565 0.60087 0.0
C1217 C 0.10022 0.31784 0.61107 0.0
C1218 C 0.08861 0.29113 0.61614 0.0
C1219 C 0.10027 0.28825 0.64197 0.0
C1220 C 0.11249 0.30022 0.65108 0.0
C1221 C 0.1123 0.31478 0.63621 0.0
C1222 C 0.09959 0.27291 0.65943 0.0
C1223 C 0.09964 0.25885 0.64274 0.0
C1224 C 0.09896 0.27201 0.69247 0.0
C1225 C 0.09688 0.28609 0.71197 0.0
C1226 C 0.1097 0.28924 0.73585 0.0
C1227 C 0.10778 0.30257 0.7541 0.0
C1228 C 0.09302 0.31279 0.74879 0.0
C1229 C 0.08011 0.30967 0.7253 0.0
C1230 C 0.08195 0.29635 0.70702 0.0
C1231 C 0.11321 0.20162 0.71431 0.0
C1232 C 0.10114 0.19844 0.73935 0.0
C1233 C 0.11322 0.21618 0.69943 0.0
C1234 C 0.10076 0.22801 0.70838 0.0
C1235 C 0.08909 0.22499 0.73412 0.0
C1236 C 0.08934 0.21048 0.74943 0.0
C1237 C 0.09985 0.24333 0.69089 0.0
C1238 C 0.09945 0.2574 0.70756 0.0
C1239 C 0.09942 0.24423 0.65783 0.0
C1240 C 0.09782 0.23012 0.63826 0.0
C1241 C 0.08312 0.2196 0.64284 0.0
C1242 C 0.08175 0.20625 0.62451 0.0
C1243 C 0.09493 0.20336 0.60135 0.0
C1244 C 0.10946 0.21384 0.5964 0.0
C1245 C 0.11091 0.2272 0.6147 0.0
H1246 H 0.09385 0.19302 0.58719 0.0
H1247 H 0.09157 0.32311 0.76292 0.0
H1248 H 0.07919 0.03361 0.2549 0.0
H1249 H 0.05175 0.01725 0.25451 0.0
H1250 H 0.0294 0.04293 0.33227 0.0
H1251 H 0.05852 0.05776 0.33549 0.0
H1252 H 0.01887 0.01738 0.34228 0.0
H1253 H 0.01331 0.0443 0.24756 0.0
H1254 H 0.02218 0.05525 0.19671 0.0
H1255 H 0.03113 0.00938 0.16081 0.0
H1256 H 0.02254 0.99815 0.21158 0.0
H1257 H 0.93327 0.98079 0.25095 0.0
H1258 H 0.96045 0.99748 0.25182 0.0
H1259 H 0.98188 0.97197 0.33065 0.0
H1260 H 0.95299 0.95683 0.33247 0.0
H1261 H 0.99192 0.99874 0.24307 0.0
H1262 H 0.01321 0.99097 0.3729 0.0
H1263 H 0.99833 0.98603 0.42366 0.0
H1264 H 0.94686 1.00469 0.38934 0.0
H1265 H 0.96149 0.00991 0.33853 0.0
C1266 C 0.0685 0.03567 0.27216 0.0
C1267 C 0.07131 0.0467 0.29579 0.0
C1268 C 0.05247 0.02646 0.27153 0.0
C1269 C 0.03791 0.02882 0.29293 0.0
C1270 C 0.04028 0.04056 0.31554 0.0
C1271 C 0.05686 0.04924 0.31717 0.0
C1272 C 0.02071 0.0187 0.29229 0.0
C1273 C 0.01291 0.0135 0.32047 0.0
C1274 C 0.01224 0.01373 0.26412 0.0
C1275 C 0.01743 0.02039 0.23348 0.0
C1276 C 0.01728 0.03655 0.22888 0.0
C1277 C 0.02225 0.04281 0.20006 0.0
C1278 C 0.02726 0.03302 0.17557 0.0
C1279 C 0.02727 0.01695 0.17982 0.0
C1280 C 0.02232 0.01063 0.2086 0.0
C1281 C 0.94367 0.97892 0.26882 0.0
C1282 C 0.94056 0.96797 0.29249 0.0
C1283 C 0.95948 0.9884 0.26912 0.0
C1284 C 0.97335 0.98662 0.29203 0.0
C1285 C 0.97115 0.97441 0.31369 0.0
C1286 C 0.95476 0.96546 0.31439 0.0
C1287 C 0.98975 0.99764 0.29306 0.0
C1288 C 0.9976 1.00285 0.26492 0.0
C1289 C 0.99723 1.00362 0.32124 0.0
C1290 C 0.9884 1.00066 0.35183 0.0
C1291 C 0.99874 0.99407 0.37624 0.0
C1292 C 0.99035 0.99121 0.405 0.0
C1293 C 0.97165 0.99499 0.40968 0.0
C1294 C 0.96132 1.00171 0.38565 0.0
C1295 C 0.96965 1.00462 0.35687 0.0
H1296 H 0.96517 0.99275 0.43195 0.0
H1297 H 0.03111 0.03789 0.15328 0.0
H1298 H 0.94422 0.55254 0.56512 0.0
H1299 H 0.9615 0.52809 0.56447 0.0
H1300 H 1.00103 0.54784 0.50032 0.0
H1301 H 0.98328 0.57193 0.49943 0.0
H1302 H 0.99632 0.51914 0.48514 0.0
H1303 H 0.00902 0.54465 0.58222 0.0
H1304 H 1.00089 0.5572 0.63193 0.0
H1305 H 0.97429 0.51535 0.66283 0.0
H1306 H 0.98205 0.5026 0.61312 0.0
H1307 H 0.06822 0.46279 0.51171 0.0
H1308 H 0.05086 0.48735 0.50974 0.0
H1309 H 0.00859 0.46776 0.56902 0.0
H1310 H 0.02598 0.44352 0.57168 0.0
H1311 H 0.01536 0.49662 0.5864 0.0
H1312 H 1.00297 0.47118 0.4888 0.0
H1313 H 0.01155 0.45878 0.43915 0.0
H1314 H 0.03832 0.50076 0.40937 0.0
H1315 H 0.03013 0.51335 0.45906 0.0
C1316 C 0.95636 0.55163 0.55036 0.0
C1317 C 0.96237 0.56445 0.53268 0.0
C1318 C 0.96645 0.53763 0.55035 0.0
C1319 C 0.98299 0.5361 0.53299 0.0
C1320 C 0.9885 0.54863 0.51423 0.0
C1321 C 0.97836 0.56255 0.514 0.0
C1322 C 0.99481 0.5217 0.53493 0.0
C1323 C 1.00064 0.51437 0.50734 0.0
C1324 C 1.0004 0.51516 0.56376 0.0
C1325 C 0.99596 0.52272 0.59384 0.0
C1326 C 1.00135 0.53815 0.59956 0.0
C1327 C 0.99682 0.5453 0.62773 0.0
C1328 C 0.98704 0.53709 0.65049 0.0
C1329 C 0.98184 0.5217 0.64516 0.0
C1330 C 0.98632 0.5145 0.61701 0.0
C1331 C 0.05533 0.46378 0.52457 0.0
C1332 C 0.04845 0.45103 0.54151 0.0
C1333 C 0.04529 0.47781 0.52321 0.0
C1334 C 0.02815 0.47944 0.53883 0.0
C1335 C 0.02164 0.46688 0.55657 0.0
C1336 C 0.03159 0.45292 0.55785 0.0
C1337 C 0.01678 0.49405 0.53666 0.0
C1338 C 0.01106 0.50142 0.56422 0.0
C1339 C 0.01137 0.50065 0.50781 0.0
C1340 C 0.0161 0.49316 0.47778 0.0
C1341 C 0.0108 0.47774 0.47175 0.0
C1342 C 0.01557 0.47068 0.44359 0.0
C1343 C 0.02552 0.47897 0.42116 0.0
C1344 C 0.03064 0.49435 0.42679 0.0
C1345 C 0.02593 0.50146 0.45494 0.0
H1346 H 0.0292 0.47348 0.39938 0.0
H1347 H 0.98352 0.54265 0.67227 0.0
H1348 H 0.45018 0.46172 0.76086 0.0
H1349 H 0.47789 0.4783 0.76201 0.0
H1350 H 0.46737 0.48885 0.85851 0.0
H1351 H 0.43929 0.47259 0.85688 0.0
H1352 H 0.47514 0.51442 0.83044 0.0
H1353 H 0.50488 0.46504 0.83281 0.0
H1354 H 0.51181 0.43829 0.81619 0.0
H1355 H 0.53028 0.45509 0.72741 0.0
H1356 H 0.52319 0.48194 0.74333 0.0
H1357 H 0.56563 0.54978 0.85442 0.0
H1358 H 0.53768 0.53326 0.85644 0.0
H1359 H 0.53973 0.52786 0.75681 0.0
H1360 H 0.56742 0.54456 0.75484 0.0
H1361 H 0.53684 0.49953 0.78842 0.0
H1362 H 0.50644 0.54924 0.78775 0.0
H1363 H 0.50017 0.57575 0.8065 0.0
H1364 H 0.48393 0.55768 0.89549 0.0
H1365 H 0.49038 0.53105 0.87741 0.0
C1366 C 0.45415 0.46722 0.78253 0.0
C1367 C 0.4429 0.46556 0.80902 0.0
C1368 C 0.46997 0.47677 0.7832 0.0
C1369 C 0.47503 0.4848 0.81048 0.0
C1370 C 0.46392 0.48283 0.83716 0.0
C1371 C 0.448 0.47338 0.83638 0.0
C1372 C 0.49128 0.49578 0.8107 0.0
C1373 C 0.4887 0.51102 0.82171 0.0
C1374 C 0.50901 0.49162 0.79884 0.0
C1375 C 0.51333 0.47549 0.78917 0.0
C1376 C 0.51028 0.46302 0.80965 0.0
C1377 C 0.51426 0.44784 0.80037 0.0
C1378 C 0.52144 0.44499 0.77073 0.0
C1379 C 0.52469 0.45732 0.75034 0.0
C1380 C 0.52071 0.47252 0.7595 0.0
C1381 C 0.55976 0.54538 0.83295 0.0
C1382 C 0.56849 0.54857 0.80446 0.0
C1383 C 0.54388 0.53587 0.83409 0.0
C1384 C 0.53657 0.52922 0.80677 0.0
C1385 C 0.54508 0.53278 0.77821 0.0
C1386 C 0.56077 0.54244 0.77704 0.0
C1387 C 0.5206 0.51808 0.80799 0.0
C1388 C 0.52327 0.50284 0.79725 0.0
C1389 C 0.50304 0.52217 0.82046 0.0
C1390 C 0.49909 0.53816 0.83133 0.0
C1391 C 0.5017 0.55092 0.81141 0.0
C1392 C 0.49807 0.56597 0.8219 0.0
C1393 C 0.4917 0.5684 0.8522 0.0
C1394 C 0.48889 0.55578 0.87204 0.0
C1395 C 0.49252 0.54071 0.86168 0.0
H1396 H 0.4889 0.58006 0.86027 0.0
H1397 H 0.52451 0.43323 0.76359 0.0
H1398 H 0.57189 0.96536 0.02658 0.0
H1399 H 0.55443 0.9899 0.02709 0.0
H1400 H 0.50771 0.96653 0.0692 0.0
H1401 H 0.52488 0.94213 0.06802 0.0
H1402 H 0.49477 0.98367 0.02612 0.0
H1403 H 0.53689 0.99314 0.10965 0.0
H1404 H 0.56725 0.99509 0.13611 0.0
H1405 H 0.58447 0.03027 0.07152 0.0
H1406 H 0.55426 0.0284 0.04444 0.0
H1407 H 0.44495 0.05303 0.07153 0.0
H1408 H 0.46258 0.02867 0.07199 0.0
H1409 H 0.504 0.04907 1.01233 0.0
H1410 H 0.4862 0.07312 1.01047 0.0
H1411 H 0.5195 0.03378 0.06483 0.0
H1412 H 0.47536 0.02362 0.98257 0.0
H1413 H 0.44394 0.0215 0.95986 0.0
H1414 H 0.42937 0.9871 0.02786 0.0
H1415 H 0.46064 0.98918 0.05125 0.0
C1416 C 0.558 0.96554 0.03633 0.0
C1417 C 0.54978 0.95173 0.04707 0.0
C1418 C 0.54797 0.9796 0.03664 0.0
C1419 C 0.52961 0.98024 0.04824 0.0
C1420 C 0.5217 0.96649 0.05981 0.0
C1421 C 0.53159 0.95249 0.0592 0.0
C1422 C 0.51831 0.99496 0.0475 0.0
C1423 C 0.50018 0.99454 0.03503 0.0
C1424 C 0.5252 0.00935 0.05866 0.0
C1425 C 0.54339 0.01051 0.07481 0.0
C1426 C 0.54721 1.0012 0.10093 0.0
C1427 C 0.56438 1.00231 0.11607 0.0
C1428 C 0.5778 0.01276 0.10543 0.0
C1429 C 0.57407 0.02216 0.07969 0.0
C1430 C 0.55691 0.02109 0.06446 0.0
C1431 C 0.4576 0.0523 0.05796 0.0
C1432 C 0.4641 0.06529 0.04121 0.0
C1433 C 0.46779 0.03834 0.05848 0.0
C1434 C 0.48478 0.03701 0.04243 0.0
C1435 C 0.4911 0.04981 0.02526 0.0
C1436 C 0.48085 0.06365 0.02437 0.0
C1437 C 0.49608 0.02238 0.04356 0.0
C1438 C 0.51417 0.02285 0.05603 0.0
C1439 C 0.48904 0.00798 0.03297 0.0
C1440 C 0.47027 1.00668 0.01885 0.0
C1441 C 0.46541 0.0157 0.99284 0.0
C1442 C 0.44764 0.01449 0.97981 0.0
C1443 C 0.43465 1.00421 0.99246 0.0
C1444 C 0.43943 0.99508 0.01811 0.0
C1445 C 0.45718 0.99626 0.03125 0.0
H1446 H 0.4209 1.00328 0.98234 0.0
H1447 H 0.59109 0.01361 0.11718 0.0
H1448 H 0.06467 0.46771 0.09427 0.0
H1449 H 0.03706 0.48433 0.09241 0.0
H1450 H 0.04005 0.48496 0.99215 0.0
H1451 H 0.06825 0.46885 0.99436 0.0
H1452 H 0.03383 0.51265 1.00998 0.0
H1453 H 1.00481 0.46468 0.03601 0.0
H1454 H 0.99967 0.44043 0.06518 0.0
H1455 H 0.98883 0.46656 0.1482 0.0
H1456 H 0.99417 0.49098 0.11963 0.0
H1457 H 0.94185 0.54588 0.9928 0.0
H1458 H 0.9697 0.52929 0.99162 0.0
H1459 H 0.97569 0.53454 0.09084 0.0
H1460 H 0.948 0.55128 0.09186 0.0
H1461 H 0.97664 0.50364 0.07184 0.0
H1462 H 0.00603 0.55179 0.04331 0.0
H1463 H 0.01015 0.57548 1.01191 0.0
H1464 H 0.01874 0.54779 0.93019 0.0
H1465 H 0.0144 0.52392 0.96104 0.0
C1466 C 0.05908 0.47108 0.07186 0.0
C1467 C 0.0683 0.46674 0.04442 0.0
C1468 C 0.04328 0.48062 0.07073 0.0
C1469 C 0.0361 0.48585 0.04208 0.0
C1470 C 0.04515 0.48115 0.01459 0.0
C1471 C 0.06113 0.47177 0.01577 0.0
C1472 C 0.01983 0.49681 0.04096 0.0
C1473 C 0.02123 0.51048 0.02314 0.0
C1474 C 1.00335 0.49432 0.05847 0.0
C1475 C 1.00006 0.47966 0.07573 0.0
C1476 C 1.00146 0.46525 0.06054 0.0
C1477 C 0.99849 0.45148 0.07696 0.0
C1478 C 0.99397 0.45195 0.10854 0.0
C1479 C 0.99236 0.46621 0.12374 0.0
C1480 C 0.99534 0.48003 0.10744 0.0
C1481 C 0.9495 0.54386 1.01414 0.0
C1482 C 0.94308 0.55012 0.0423 0.0
C1483 C 0.96533 0.5343 1.01352 0.0
C1484 C 0.97488 0.53063 0.04115 0.0
C1485 C 0.96863 0.53718 0.06922 0.0
C1486 C 0.95295 0.54689 0.06976 0.0
C1487 C 0.99078 0.51939 0.04107 0.0
C1488 C 0.98926 0.5057 0.05864 0.0
C1489 C 0.00699 0.52174 0.02297 0.0
C1490 C 0.0097 0.53608 1.00444 0.0
C1491 C 0.00864 0.55076 0.0186 0.0
C1492 C 0.01104 0.56421 1.00091 0.0
C1493 C 0.01465 0.56314 0.96906 0.0
C1494 C 0.01592 0.5486 0.95485 0.0
C1495 C 0.0135 0.53511 0.97243 0.0
H1496 H 0.01651 0.57358 0.9554 0.0
H1497 H 0.99167 0.44127 0.12121 0.0
H1498 H 0.44022 0.46511 0.32228 0.0
H1499 H 0.45759 0.48961 0.32134 0.0
H1500 H 0.50753 0.46501 0.29665 0.0
H1501 H 0.49033 0.44079 0.29514 0.0
H1502 H 0.50881 0.48867 0.35173 0.0
H1503 H 0.4926 0.48143 0.24249 0.0
H1504 H 0.47003 0.47714 0.20011 0.0
H1505 H 0.44107 0.51881 0.22557 0.0
H1506 H 0.46331 0.52319 0.26846 0.0
H1507 H 0.57111 0.55096 0.3212 0.0
H1508 H 0.55398 0.52653 0.32007 0.0
H1509 H 0.50384 0.55113 0.29546 0.0
H1510 H 0.52111 0.57514 0.2931 0.0
H1511 H 0.50194 0.52695 0.26641 0.0
H1512 H 0.51586 0.53551 0.37393 0.0
H1513 H 0.53555 0.54039 0.41992 0.0
H1514 H 0.56511 0.49791 0.40339 0.0
H1515 H 0.54575 0.49286 0.35707 0.0
C1516 C 0.45482 0.46483 0.31622 0.0
C1517 C 0.46371 0.45063 0.30928 0.0
C1518 C 0.46479 0.47891 0.31598 0.0
C1519 C 0.48394 0.47915 0.30927 0.0
C1520 C 0.49285 0.46512 0.30235 0.0
C1521 C 0.48287 0.45116 0.30185 0.0
C1522 C 0.49477 0.49397 0.30889 0.0
C1523 C 0.50745 0.49702 0.33299 0.0
C1524 C 0.49267 0.50506 0.28491 0.0
C1525 C 0.47948 0.50253 0.2589 0.0
C1526 C 0.48131 0.48959 0.23924 0.0
C1527 C 0.4686 0.48716 0.21509 0.0
C1528 C 0.45409 0.49767 0.21021 0.0
C1529 C 0.4523 0.51066 0.22941 0.0
C1530 C 0.46495 0.51313 0.25363 0.0
C1531 C 0.55651 0.55124 0.31508 0.0
C1532 C 0.54765 0.5654 0.30789 0.0
C1533 C 0.54655 0.53715 0.31499 0.0
C1534 C 0.52729 0.53679 0.30857 0.0
C1535 C 0.51856 0.55085 0.3008 0.0
C1536 C 0.52855 0.56481 0.30008 0.0
C1537 C 0.51616 0.52193 0.30954 0.0
C1538 C 0.50338 0.51877 0.28543 0.0
C1539 C 0.51784 0.51092 0.33402 0.0
C1540 C 0.52949 0.51389 0.36186 0.0
C1541 C 0.52664 0.52726 0.37999 0.0
C1542 C 0.53773 0.53005 0.40613 0.0
C1543 C 0.55161 0.51949 0.41452 0.0
C1544 C 0.55438 0.50609 0.39683 0.0
C1545 C 0.54335 0.50325 0.37065 0.0
H1546 H 0.56018 0.52167 0.43476 0.0
H1547 H 0.44426 0.49576 0.19152 0.0
H1548 H 0.43855 0.04412 0.49402 0.0
H1549 H 0.46595 0.0272 0.49073 0.0
H1550 H 0.47814 0.03633 0.5873 0.0
H1551 H 0.45108 0.05365 0.59009 0.0
H1552 H 0.50948 0.03404 0.55777 0.0
H1553 H 0.45458 1.00287 0.56157 0.0
H1554 H 0.42349 0.99391 0.54523 0.0
H1555 H 0.44528 0.98097 0.45598 0.0
H1556 H 0.47647 0.99008 0.47163 0.0
H1557 H 0.56417 0.96702 0.58833 0.0
H1558 H 0.53685 0.98415 0.58769 0.0
H1559 H 0.53612 0.98247 0.4875 0.0
H1560 H 0.56377 0.96557 0.4882 0.0
H1561 H 0.49928 0.9807 0.51777 0.0
H1562 H 0.55449 0.01297 0.51591 0.0
H1563 H 0.58517 0.0218 0.5347 0.0
H1564 H 0.56185 0.03141 0.62455 0.0
H1565 H 0.53102 0.02264 0.60625 0.0
C1566 C 0.44745 0.04284 0.5142 0.0
C1567 C 0.44293 0.05038 0.54213 0.0
C1568 C 0.46296 0.03299 0.5125 0.0
C1569 C 0.47402 0.03012 0.53896 0.0
C1570 C 0.46992 0.03825 0.56652 0.0
C1571 C 0.45452 0.04823 0.56811 0.0
C1572 C 0.48932 0.01826 0.53833 0.0
C1573 C 0.5071 0.02235 0.54929 0.0
C1574 C 0.48651 1.00294 0.52705 0.0
C1575 C 0.46782 0.9973 0.51766 0.0
C1576 C 0.45272 0.9982 0.53838 0.0
C1577 C 0.43508 0.99309 0.52925 0.0
C1578 C 0.4324 0.98691 0.49955 0.0
C1579 C 0.44737 0.98579 0.47896 0.0
C1580 C 0.46503 0.99091 0.48795 0.0
C1581 C 0.55781 0.96996 0.56625 0.0
C1582 C 0.56586 0.9648 0.53832 0.0
C1583 C 0.54233 0.97987 0.56586 0.0
C1584 C 0.53447 0.98472 0.53753 0.0
C1585 C 0.54189 0.97888 0.50963 0.0
C1586 C 0.55759 0.96915 0.51002 0.0
C1587 C 0.51926 0.99657 0.53712 0.0
C1588 C 0.50155 0.99243 0.52608 0.0
C1589 C 0.52203 0.01176 0.54876 0.0
C1590 C 0.54051 0.01703 0.5598 0.0
C1591 C 0.55594 0.01689 0.53972 0.0
C1592 C 0.57333 0.02194 0.55024 0.0
C1593 C 0.57547 0.02711 0.58083 0.0
C1594 C 0.56018 0.02737 0.60088 0.0
C1595 C 0.54274 0.02242 0.59042 0.0
H1596 H 0.58896 0.03094 0.58896 0.0
H1597 H 0.41873 0.98297 0.49252 0.0
H1598 H 0.07213 0.05094 0.82113 0.0
H1599 H 0.05479 0.02642 0.82009 0.0
H1600 H 1.00497 0.05093 0.79427 0.0
H1601 H 0.02214 0.07516 0.79287 0.0
H1602 H 1.00318 0.02749 0.84929 0.0
H1603 H 0.0206 0.03432 0.7405 0.0
H1604 H 0.04362 0.03839 0.69879 0.0
H1605 H 0.07215 0.99675 0.72581 0.0
H1606 H 0.04945 0.99257 0.76804 0.0
H1607 H 0.94088 0.96536 0.81733 0.0
H1608 H 0.9582 0.98969 0.81668 0.0
H1609 H 0.00843 0.96482 0.79391 0.0
H1610 H 0.99101 0.9409 0.79104 0.0
H1611 H 0.01083 0.98892 0.76475 0.0
H1612 H 0.99568 0.9807 0.87184 0.0
H1613 H 0.97547 0.976 0.91722 0.0
H1614 H 0.94633 0.01856 0.89929 0.0
H1615 H 0.96622 0.02342 0.85356 0.0
C1616 C 0.05756 0.0512 0.8148 0.0
C1617 C 0.04869 0.06537 0.80759 0.0
C1618 C 0.0476 0.03711 0.81451 0.0
C1619 C 0.02849 0.03684 0.80747 0.0
C1620 C 0.01961 0.05085 0.80025 0.0
C1621 C 0.02957 0.06482 0.79981 0.0
C1622 C 0.01766 0.02201 0.807 0.0
C1623 C 1.00472 0.01907 0.83072 0.0
C1624 C 0.01999 0.01083 0.78327 0.0
C1625 C 0.03347 0.01324 0.75765 0.0
C1626 C 0.03189 0.02611 0.73774 0.0
C1627 C 0.04485 0.02843 0.71396 0.0
C1628 C 0.05938 0.01786 0.70971 0.0
C1629 C 0.06092 1.00493 0.72916 0.0
C1630 C 0.048 1.00259 0.75301 0.0
C1631 C 0.95555 0.965 0.81173 0.0
C1632 C 0.96437 0.95078 0.80488 0.0
C1633 C 0.96561 0.97903 0.81192 0.0
C1634 C 0.98494 0.97929 0.80614 0.0
C1635 C 0.99365 0.96518 0.79875 0.0
C1636 C 0.98356 0.95127 0.79774 0.0
C1637 C 0.99615 0.99411 0.80733 0.0
C1638 C 0.00922 0.99715 0.78361 0.0
C1639 C 0.99426 1.0052 0.8316 0.0
C1640 C 0.98231 1.00234 0.8591 0.0
C1641 C 0.98488 0.989 0.87746 0.0
C1642 C 0.9735 0.98632 0.90326 0.0
C1643 C 0.95959 0.99695 0.91108 0.0
C1644 C 0.95708 0.01032 0.89317 0.0
C1645 C 0.96841 0.01305 0.86733 0.0
H1646 H 0.9508 0.99485 0.93106 0.0
H1647 H 0.06941 0.01968 0.6913 0.0
H1648 H 0.06771 0.0861 0.69677 0.0
H1649 H 0.07207 0.07613 0.64378 0.0
H1650 H 0.08549 0.12237 0.61231 0.0
H1651 H 0.08015 0.13231 0.66482 0.0
H1652 H 0.069 0.10873 0.56782 0.0
H1653 H 0.12025 0.09324 0.63488 0.0
H1654 H 0.13408 0.08047 0.68082 0.0
H1655 H 0.11065 0.03689 0.65237 0.0
H1656 H 0.09665 0.04943 0.60633 0.0
H1657 H 0.13106 0.0979 0.44526 0.0
H1658 H 0.11964 0.10218 0.49798 0.0
H1659 H 0.09791 0.05558 0.50036 0.0
H1660 H 0.10917 0.05127 0.44694 0.0
H1661 H 0.11508 0.06612 0.55817 0.0
H1662 H 0.0685 0.08237 0.48513 0.0
H1663 H 0.05706 0.09617 0.43867 0.0
H1664 H 0.07364 0.13969 0.47858 0.0
H1665 H 0.08548 0.12613 0.52508 0.0
C1666 C 0.07083 0.09415 0.67815 0.0
C1667 C 0.0733 0.10998 0.68463 0.0
C1668 C 0.07369 0.08844 0.64798 0.0
C1669 C 0.07968 0.09838 0.62399 0.0
C1670 C 0.08095 0.11438 0.63021 0.0
C1671 C 0.07775 0.12012 0.66018 0.0
C1672 C 0.08575 0.09223 0.59301 0.0
C1673 C 0.07914 0.09946 0.56587 0.0
C1674 C 0.09871 0.07987 0.59 0.0
C1675 C 0.10726 0.07229 0.61742 0.0
C1676 C 0.118 0.08095 0.63853 0.0
C1677 C 0.12588 0.07375 0.66454 0.0
C1678 C 0.12318 0.05789 0.66956 0.0
C1679 C 0.1127 0.04918 0.64848 0.0
C1680 C 0.10482 0.05631 0.6224 0.0
C1681 C 0.12403 0.08848 0.45707 0.0
C1682 C 0.12078 0.07431 0.4417 0.0
C1683 C 0.11749 0.09095 0.48723 0.0
C1684 C 0.10758 0.07932 0.50292 0.0
C1685 C 0.10543 0.06475 0.4886 0.0
C1686 C 0.11194 0.06227 0.45816 0.0
C1687 C 0.09866 0.08291 0.53337 0.0
C1688 C 0.10473 0.07522 0.56026 0.0
C1689 C 0.0854 0.09499 0.53621 0.0
C1690 C 0.07799 0.10321 0.50851 0.0
C1691 C 0.06982 0.09488 0.48392 0.0
C1692 C 0.06325 0.10266 0.45758 0.0
C1693 C 0.06465 0.11879 0.45565 0.0
C1694 C 0.07257 0.12719 0.4801 0.0
C1695 C 0.07919 0.11946 0.50647 0.0
H1696 H 0.05957 0.1248 0.43523 0.0
H1697 H 0.12926 0.05235 0.68975 0.0
H1698 H 0.94802 0.58589 0.65319 0.0
H1699 H 0.9439 0.57609 0.70641 0.0
H1700 H 0.92411 0.62118 0.73502 0.0
H1701 H 0.92933 0.63106 0.68245 0.0
H1702 H 0.94098 0.60966 0.78096 0.0
H1703 H 0.89419 0.58894 0.71114 0.0
H1704 H 0.88345 0.57456 0.66485 0.0
H1705 H 0.9107 0.53342 0.69804 0.0
H1706 H 0.92175 0.54762 0.74437 0.0
H1707 H 0.87765 0.59484 0.89966 0.0
H1708 H 0.88921 0.59908 0.84697 0.0
H1709 H 0.91831 0.5554 0.85038 0.0
H1710 H 0.90687 0.55114 0.90372 0.0
H1711 H 0.90056 0.56318 0.79007 0.0
H1712 H 0.94285 0.58491 0.86533 0.0
H1713 H 0.95063 0.60044 0.91171 0.0
H1714 H 0.92878 0.64126 0.8676 0.0
H1715 H 0.92057 0.62592 0.82115 0.0
C1716 C 0.94351 0.59379 0.67127 0.0
C1717 C 0.9392 0.60924 0.66399 0.0
C1718 C 0.94081 0.58814 0.70155 0.0
C1719 C 0.93313 0.59773 0.72476 0.0
C1720 C 0.92999 0.61347 0.71775 0.0
C1721 C 0.93307 0.61917 0.68773 0.0
C1722 C 0.92718 0.59139 0.75565 0.0
C1723 C 0.93211 0.59953 0.78277 0.0
C1724 C 0.91581 0.57797 0.75852 0.0
C1725 C 0.90895 0.56937 0.73099 0.0
C1726 C 0.89795 0.57684 0.70846 0.0
C1727 C 0.8918 0.56873 0.68224 0.0
C1728 C 0.89644 0.5531 0.67846 0.0
C1729 C 0.90715 0.54553 0.70097 0.0
C1730 C 0.91334 0.5536 0.72722 0.0
C1731 C 0.88626 0.58599 0.88904 0.0
C1732 C 0.89153 0.57273 0.906 0.0
C1733 C 0.89287 0.58845 0.85892 0.0
C1734 C 0.9049 0.57771 0.84493 0.0
C1735 C 0.9091 0.56387 0.8608 0.0
C1736 C 0.90249 0.56141 0.89119 0.0
C1737 C 0.91404 0.5817 0.81489 0.0
C1738 C 0.9097 0.57315 0.78811 0.0
C1739 C 0.92566 0.59491 0.81221 0.0
C1740 C 0.931 0.60424 0.83983 0.0
C1741 C 0.93961 0.59718 0.86558 0.0
C1742 C 0.9441 0.60595 0.89189 0.0
C1743 C 0.94018 0.62182 0.89262 0.0
C1744 C 0.93181 0.62896 0.86701 0.0
C1745 C 0.92725 0.62024 0.84067 0.0
H1746 H 0.94364 0.62859 0.91301 0.0
H1747 H 0.8917 0.54684 0.65813 0.0
H1748 H 0.44504 0.43062 0.19941 0.0
H1749 H 0.44105 0.44105 0.14667 0.0
H1750 H 0.42822 0.39504 0.11326 0.0
H1751 H 0.4332 0.38465 0.16553 0.0
H1752 H 0.44479 0.4091 0.06958 0.0
H1753 H 0.39298 0.42379 0.1361 0.0
H1754 H 0.37875 0.43609 0.18216 0.0
H1755 H 0.40221 0.47999 0.15587 0.0
H1756 H 0.41661 0.46792 0.10971 0.0
H1757 H 0.38033 0.41974 0.95013 0.0
H1758 H 0.39228 0.41603 1.00271 0.0
H1759 H 0.41707 0.46154 1.00033 0.0
H1760 H 0.40549 0.46522 0.94687 0.0
H1761 H 0.39829 0.45145 0.06057 0.0
H1762 H 0.44522 0.43576 0.98737 0.0
H1763 H 0.45651 0.42218 0.94061 0.0
H1764 H 0.4398 0.3785 0.97967 0.0
H1765 H 0.4281 0.39186 0.02646 0.0
C1766 C 0.44215 0.42272 0.18043 0.0
C1767 C 0.43973 0.40683 0.18629 0.0
C1768 C 0.43949 0.4287 0.1504 0.0
C1769 C 0.43376 0.41894 0.12591 0.0
C1770 C 0.43257 0.40288 0.13154 0.0
C1771 C 0.43556 0.39689 0.16138 0.0
C1772 C 0.42784 0.42534 0.09504 0.0
C1773 C 0.4346 0.41834 0.06778 0.0
C1774 C 0.41477 0.43764 0.09222 0.0
C1775 C 0.40602 0.44493 0.11973 0.0
C1776 C 0.39515 0.43605 0.14026 0.0
C1777 C 0.38705 0.44298 0.16633 0.0
C1778 C 0.38964 0.45879 0.172 0.0
C1779 C 0.40025 0.46774 0.15149 0.0
C1780 C 0.40835 0.46087 0.12535 0.0
C1781 C 0.38817 0.42906 0.96082 0.0
C1782 C 0.39221 0.44269 0.94406 0.0
C1783 C 0.39496 0.42692 0.99094 0.0
C1784 C 0.40581 0.43839 1.00526 0.0
C1785 C 0.40877 0.45251 0.98962 0.0
C1786 C 0.40207 0.45463 0.95916 0.0
C1787 C 0.41497 0.43494 0.03556 0.0
C1788 C 0.40877 0.44244 0.06255 0.0
C1789 C 0.42832 0.42294 0.0382 0.0
C1790 C 0.43566 0.41483 1.01034 0.0
C1791 C 0.44383 0.42327 0.9859 0.0
C1792 C 0.45032 0.41561 0.9594 0.0
C1793 C 0.44885 0.39949 0.95715 0.0
C1794 C 0.44093 0.39099 0.98144 0.0
C1795 C 0.43438 0.3986 1.00798 0.0
H1796 H 0.45388 0.39358 0.9366 0.0
H1797 H 0.38338 0.46413 0.19223 0.0
H1798 H 0.58264 0.9308 0.41556 0.0
H1799 H 0.57234 0.92636 0.36228 0.0
H1800 H 0.6201 0.95117 0.32781 0.0
H1801 H 0.63103 0.95522 0.38156 0.0
H1802 H 0.57749 0.95508 0.29758 0.0
H1803 H 0.62944 0.92 0.32021 0.0
H1804 H 0.64593 0.9016 0.35444 0.0
H1805 H 0.5977 0.87219 0.3565 0.0
H1806 H 0.58083 0.89059 0.3227 0.0
H1807 H 0.57772 0.92565 0.14235 0.0
H1808 H 0.5821 0.93696 0.19379 0.0
H1809 H 0.56033 0.89519 0.23567 0.0
H1810 H 0.55735 0.88347 0.18395 0.0
H1811 H 0.58999 0.9012 0.26286 0.0
H1812 H 0.5383 0.93397 0.23809 0.0
H1813 H 0.51988 0.95206 0.20603 0.0
H1814 H 0.56421 0.98542 0.20958 0.0
H1815 H 0.58299 0.96746 0.24141 0.0
C1816 C 0.59098 0.93542 0.39673 0.0
C1817 C 0.60792 0.94308 0.40288 0.0
C1818 C 0.58494 0.93298 0.36627 0.0
C1819 C 0.59548 0.93835 0.34112 0.0
C1820 C 0.61173 0.94697 0.34698 0.0
C1821 C 0.61795 0.9493 0.37767 0.0
C1822 C 0.59038 0.93333 0.30915 0.0
C1823 C 0.58045 0.94341 0.28961 0.0
C1824 C 0.59361 0.91792 0.29936 0.0
C1825 C 0.60382 0.90675 0.31925 0.0
C1826 C 0.6223 0.90969 0.32822 0.0
C1827 C 0.63173 0.89925 0.34749 0.0
C1828 C 0.62285 0.88576 0.35772 0.0
C1829 C 0.60455 0.88266 0.3486 0.0
C1830 C 0.59506 0.89308 0.32938 0.0
C1831 C 0.57325 0.91912 0.16255 0.0
C1832 C 0.56705 0.90375 0.1592 0.0
C1833 C 0.57574 0.92561 0.19209 0.0
C1834 C 0.57149 0.91704 0.21902 0.0
C1835 C 0.56384 0.90208 0.21544 0.0
C1836 C 0.5618 0.89544 0.18585 0.0
C1837 C 0.57694 0.92292 0.25057 0.0
C1838 C 0.58694 0.91294 0.27036 0.0
C1839 C 0.57351 0.93837 0.26059 0.0
C1840 C 0.56211 0.94932 0.24195 0.0
C1841 C 0.54416 0.94514 0.23192 0.0
C1842 C 0.53365 0.95537 0.21381 0.0
C1843 C 0.54089 0.96987 0.20571 0.0
C1844 C 0.55862 0.97419 0.21586 0.0
C1845 C 0.56919 0.964 0.23399 0.0
H1846 H 0.53275 0.97776 0.19162 0.0
H1847 H 0.63016 0.87769 0.37264 0.0
H1848 H 0.06732 0.43048 0.65307 0.0
H1849 H 0.07181 0.44073 0.70584 0.0
H1850 H 0.08523 0.39466 0.73827 0.0
H1851 H 0.07981 0.38444 0.68598 0.0
H1852 H 0.06869 0.4085 0.7824 0.0
H1853 H 0.11971 0.42331 0.71528 0.0
H1854 H 0.13405 0.43562 0.66933 0.0
H1855 H 0.1117 0.47974 0.69671 0.0
H1856 H 0.09714 0.46766 0.74271 0.0
H1857 H 0.13209 0.42026 0.90313 0.0
H1858 H 0.12072 0.41611 0.8503 0.0
H1859 H 0.09558 0.46149 0.85067 0.0
H1860 H 0.10663 0.46562 0.90431 0.0
H1861 H 0.11464 0.45127 0.79135 0.0
H1862 H 0.0678 0.43504 0.86458 0.0
H1863 H 0.0568 0.42127 0.91135 0.0
H1864 H 0.07443 0.37787 0.87228 0.0
H1865 H 0.08584 0.39142 0.82549 0.0
C1866 C 0.07049 0.42252 0.67185 0.0
C1867 C 0.07293 0.40666 0.66573 0.0
C1868 C 0.07341 0.4284 0.70188 0.0
C1869 C 0.07939 0.41858 0.72608 0.0
C1870 C 0.08068 0.40255 0.7202 0.0
C1871 C 0.07744 0.39666 0.69036 0.0
C1872 C 0.08543 0.4249 0.75693 0.0
C1873 C 0.07877 0.41782 0.78419 0.0
C1874 C 0.0984 0.43727 0.7597 0.0
C1875 C 0.10717 0.44456 0.73217 0.0
C1876 C 0.11778 0.43562 0.71137 0.0
C1877 C 0.12596 0.44256 0.68536 0.0
C1878 C 0.12372 0.45844 0.68004 0.0
C1879 C 0.11338 0.46744 0.70081 0.0
C1880 C 0.10518 0.46056 0.72687 0.0
C1881 C 0.12433 0.42946 0.8919 0.0
C1882 C 0.12003 0.44319 0.90813 0.0
C1883 C 0.11786 0.42707 0.86167 0.0
C1884 C 0.10704 0.43837 0.84674 0.0
C1885 C 0.10385 0.45259 0.86186 0.0
C1886 C 0.11025 0.45497 0.89241 0.0
C1887 C 0.09813 0.43465 0.81638 0.0
C1888 C 0.10429 0.44216 0.78937 0.0
C1889 C 0.08498 0.42248 0.81376 0.0
C1890 C 0.07779 0.41427 0.84161 0.0
C1891 C 0.06944 0.42258 0.86604 0.0
C1892 C 0.06312 0.41481 0.89255 0.0
C1893 C 0.06494 0.39871 0.89481 0.0
C1894 C 0.07304 0.39034 0.87051 0.0
C1895 C 0.07942 0.39806 0.84397 0.0
H1896 H 0.06005 0.39272 0.91536 0.0
H1897 H 0.13004 0.46378 0.65987 0.0
H1898 H 0.57019 0.58526 0.20008 0.0
H1899 H 0.57467 0.57475 0.14754 0.0
H1900 H 0.58285 0.62119 0.11251 0.0
H1901 H 0.57761 0.63161 0.16473 0.0
H1902 H 0.56642 0.60551 0.07 0.0
H1903 H 0.62078 0.5956 0.13372 0.0
H1904 H 0.63791 0.58508 0.17883 0.0
H1905 H 0.61925 0.53913 0.15612 0.0
H1906 H 0.60201 0.5494 0.11089 0.0
H1907 H 0.62928 0.59705 0.94716 0.0
H1908 H 0.618 0.60088 1.00007 0.0
H1909 H 0.59695 0.55407 1.00157 0.0
H1910 H 0.60777 0.55026 0.94773 0.0
H1911 H 0.61665 0.56632 0.05996 0.0
H1912 H 0.56637 0.5776 0.98955 0.0
H1913 H 0.5525 0.58962 0.94296 0.0
H1914 H 0.56601 0.63488 0.97803 0.0
H1915 H 0.58027 0.62311 0.02461 0.0
C1916 C 0.57219 0.59319 0.18082 0.0
C1917 C 0.57321 0.60923 0.18621 0.0
C1918 C 0.57511 0.58719 0.15091 0.0
C1919 C 0.57961 0.59711 0.126 0.0
C1920 C 0.57945 0.61323 0.13117 0.0
C1921 C 0.57629 0.61923 0.16096 0.0
C1922 C 0.58553 0.59085 0.09507 0.0
C1923 C 0.57742 0.59696 0.06796 0.0
C1924 C 0.59971 0.57946 0.092 0.0
C1925 C 0.60994 0.57328 0.11922 0.0
C1926 C 0.62025 0.58327 0.1385 0.0
C1927 C 0.63 0.57735 0.16402 0.0
C1928 C 0.62958 0.56146 0.17043 0.0
C1929 C 0.61951 0.55144 0.15119 0.0
C1930 C 0.60978 0.5573 0.12558 0.0
C1931 C 0.62236 0.58749 0.95873 0.0
C1932 C 0.61914 0.57342 0.94295 0.0
C1933 C 0.61597 0.5897 0.98904 0.0
C1934 C 0.60638 0.57786 1.00458 0.0
C1935 C 0.60426 0.56339 0.9899 0.0
C1936 C 0.61053 0.56119 0.95922 0.0
C1937 C 0.59771 0.58119 0.03528 0.0
C1938 C 0.60537 0.57461 0.0622 0.0
C1939 C 0.58334 0.59233 0.03821 0.0
C1940 C 0.57451 0.59946 1.01047 0.0
C1941 C 0.56652 0.59011 0.98722 0.0
C1942 C 0.55856 0.59688 0.96083 0.0
C1943 C 0.5584 0.613 0.95751 0.0
C1944 C 0.56615 0.62239 0.98063 0.0
C1945 C 0.57415 0.61568 1.00705 0.0
H1946 H 0.55225 0.61822 0.93705 0.0
H1947 H 0.63711 0.55691 0.19023 0.0
H1948 H 0.42301 0.06319 0.41964 0.0
H1949 H 0.4335 0.06804 0.36623 0.0
H1950 H 0.37755 0.08081 0.34028 0.0
H1951 H 0.36707 0.07571 0.3937 0.0
H1952 H 0.39438 0.06588 0.293 0.0
H1953 H 0.40876 0.1081 0.36121 0.0
H1954 H 0.42227 0.1204 0.40781 0.0
H1955 H 0.47696 0.10639 0.37908 0.0
H1956 H 0.46372 0.09376 0.33255 0.0
H1957 H 0.43323 0.13174 0.189 0.0
H1958 H 0.42758 0.1214 0.24122 0.0
H1959 H 0.43661 0.07495 0.20695 0.0
H1960 H 0.4416 0.08536 0.15445 0.0
H1961 H 0.44383 0.10585 0.28444 0.0
H1962 H 0.40879 0.04979 0.24185 0.0
H1963 H 0.39176 0.03975 0.1962 0.0
H1964 H 0.37291 0.08576 0.17452 0.0
H1965 H 0.38988 0.09607 0.22 0.0
C1966 C 0.41288 0.0665 0.40219 0.0
C1967 C 0.3942 0.06885 0.41051 0.0
C1968 C 0.41889 0.06944 0.37178 0.0
C1969 C 0.40639 0.07503 0.34926 0.0
C1970 C 0.38747 0.07649 0.35717 0.0
C1971 C 0.38145 0.0735 0.38761 0.0
C1972 C 0.41323 0.08057 0.3184 0.0
C1973 C 0.4053 0.07452 0.29115 0.0
C1974 C 0.4272 0.09212 0.31581 0.0
C1975 C 0.43523 0.09984 0.34358 0.0
C1976 C 0.42365 0.10754 0.36495 0.0
C1977 C 0.43126 0.11458 0.39134 0.0
C1978 C 0.45046 0.11414 0.39644 0.0
C1979 C 0.46209 0.10669 0.37512 0.0
C1980 C 0.45454 0.09959 0.34874 0.0
C1981 C 0.43465 0.11938 0.19296 0.0
C1982 C 0.43814 0.10934 0.16792 0.0
C1983 C 0.43125 0.11344 0.22274 0.0
C1984 C 0.43125 0.09733 0.22809 0.0
C1985 C 0.43609 0.08738 0.20342 0.0
C1986 C 0.43928 0.09333 0.17354 0.0
C1987 C 0.42512 0.09105 0.25888 0.0
C1988 C 0.43313 0.09701 0.2862 0.0
C1989 C 0.41086 0.07973 0.26156 0.0
C1990 C 0.40074 0.07369 0.23408 0.0
C1991 C 0.40102 0.05775 0.2273 0.0
C1992 C 0.39141 0.05202 0.20144 0.0
C1993 C 0.38134 0.06213 0.18239 0.0
C1994 C 0.38081 0.07797 0.1892 0.0
C1995 C 0.39047 0.08376 0.21494 0.0
H1996 H 0.37389 0.05768 0.1624 0.0
H1997 H 0.45633 0.1196 0.41688 0.0
H1998 H 0.94412 0.93053 0.69201 0.0
H1999 H 0.9394 0.94018 0.63884 0.0
H2000 H 0.92696 0.8936 0.60834 0.0
H2001 H 0.93256 0.88399 0.66106 0.0
H2002 H 0.94323 0.90729 0.56358 0.0
H2003 H 0.89159 0.92207 0.6298 0.0
H2004 H 0.87687 0.93469 0.67506 0.0
H2005 H 0.89895 0.97872 0.64641 0.0
H2006 H 0.91384 0.96633 0.60103 0.0
H2007 H 0.88069 0.91734 0.44074 0.0
H2008 H 0.89235 0.91323 0.49338 0.0
H2009 H 0.91405 0.95984 0.49497 0.0
H2010 H 0.90265 0.96398 0.44157 0.0
H2011 H 0.89641 0.94928 0.55292 0.0
H2012 H 0.94359 0.93339 0.4806 0.0
H2013 H 0.95534 0.91958 0.43442 0.0
H2014 H 0.93917 0.87601 0.47461 0.0
H2015 H 0.92703 0.88959 0.52083 0.0
C2016 C 0.94114 0.92234 0.67357 0.0
C2017 C 0.93902 0.90651 0.68039 0.0
C2018 C 0.93807 0.92787 0.6433 0.0
C2019 C 0.93227 0.91772 0.61952 0.0
C2020 C 0.93135 0.90174 0.62608 0.0
C2021 C 0.93471 0.8962 0.65617 0.0
C2022 C 0.92611 0.92364 0.58839 0.0
C2023 C 0.93293 0.91643 0.56141 0.0
C2024 C 0.9129 0.9358 0.5851 0.0
C2025 C 0.904 0.94326 0.61231 0.0
C2026 C 0.89338 0.93443 0.63329 0.0
C2027 C 0.88499 0.94154 0.65891 0.0
C2028 C 0.88705 0.95748 0.66368 0.0
C2029 C 0.89741 0.96636 0.64273 0.0
C2030 C 0.9058 0.95931 0.61704 0.0
C2031 C 0.88781 0.9268 0.4523 0.0
C2032 C 0.89099 0.94092 0.43671 0.0
C2033 C 0.89446 0.92442 0.48245 0.0
C2034 C 0.90439 0.93612 0.49792 0.0
C2035 C 0.90652 0.95062 0.48337 0.0
C2036 C 0.89991 0.953 0.45294 0.0
C2037 C 0.91326 0.93267 0.5285 0.0
C2038 C 0.90693 0.94033 0.55524 0.0
C2039 C 0.92669 0.92075 0.53163 0.0
C2040 C 0.93429 0.91252 0.5041 0.0
C2041 C 0.94243 0.92087 0.47951 0.0
C2042 C 0.94917 0.91309 0.45333 0.0
C2043 C 0.94798 0.89693 0.45156 0.0
C2044 C 0.94008 0.88853 0.47601 0.0
C2045 C 0.93329 0.89626 0.50222 0.0
H2046 H 0.9532 0.89092 0.43127 0.0
H2047 H 0.88056 0.96296 0.68356 0.0
H2048 H 0.09301 0.10144 0.8946 0.0
H2049 H 0.0994 0.09375 0.94846 0.0
H2050 H 0.09721 0.14171 0.97662 0.0
H2051 H 0.09105 0.14939 0.92243 0.0
H2052 H 0.12696 0.12777 1.00222 0.0
H2053 H 0.06201 0.11516 0.99553 0.0
H2054 H 0.03417 0.10288 0.97273 0.0
H2055 H 0.05864 0.05788 0.98535 0.0
H2056 H 0.08674 0.06991 1.00785 0.0
H2057 H 0.13274 0.11119 0.16517 0.0
H2058 H 0.12432 0.12018 0.11302 0.0
H2059 H 0.11754 0.07272 0.08323 0.0
H2060 H 0.12504 0.06381 0.13581 0.0
H2061 H 0.09142 0.08734 0.05869 0.0
H2062 H 0.15672 0.09911 0.06243 0.0
H2063 H 0.18546 0.11071 0.08353 0.0
H2064 H 0.16172 0.15621 0.07471 0.0
H2065 H 0.13275 0.14486 0.05389 0.0
C2066 C 0.09344 0.1103 0.91244 0.0
C2067 C 0.09096 0.12598 0.90431 0.0
C2068 C 0.09715 0.10591 0.94333 0.0
C2069 C 0.09861 0.11707 0.96713 0.0
C2070 C 0.09607 0.13279 0.959 0.0
C2071 C 0.09227 0.13718 0.92803 0.0
C2072 C 0.10345 0.11237 1.00004 0.0
C2073 C 0.11899 0.11909 0.01471 0.0
C2074 C 0.09351 0.10071 0.0164 0.0
C2075 C 0.07655 0.09345 1.00315 0.0
C2076 C 0.0615 0.10265 0.99326 0.0
C2077 C 0.04567 0.09574 0.98042 0.0
C2078 C 0.04465 0.07962 0.97753 0.0
C2079 C 0.05945 0.07037 0.98757 0.0
C2080 C 0.07533 0.07723 1.00041 0.0
C2081 C 0.1297 0.10265 0.14739 0.0
C2082 C 0.12973 0.08673 0.15485 0.0
C2083 C 0.1249 0.10782 0.11732 0.0
C2084 C 0.1205 0.09722 0.09338 0.0
C2085 C 0.12076 0.08129 0.10085 0.0
C2086 C 0.12517 0.07615 0.13106 0.0
C2087 C 0.11514 0.10261 0.06098 0.0
C2088 C 0.09945 0.09603 0.04634 0.0
C2089 C 0.12509 0.11427 0.0445 0.0
C2090 C 0.14251 0.12112 0.0569 0.0
C2091 C 0.15759 0.11158 0.06518 0.0
C2092 C 0.17393 0.11811 0.07706 0.0
C2093 C 0.1754 0.13418 0.08053 0.0
C2094 C 0.16055 0.14376 0.07204 0.0
C2095 C 0.14418 0.13729 0.06018 0.0
H2096 H 0.18805 0.13921 0.08974 0.0
H2097 H 0.03238 0.07428 0.96756 0.0
H2098 H 0.92391 0.60169 0.45218 0.0
H2099 H 0.91762 0.59438 0.39801 0.0
H2100 H 0.91325 0.64272 0.37325 0.0
H2101 H 0.91961 0.64999 0.42765 0.0
H2102 H 0.88431 0.62597 0.34898 0.0
H2103 H 0.95079 0.62091 0.3503 0.0
H2104 H 0.98097 0.61157 0.37021 0.0
H2105 H 0.96385 0.56443 0.35531 0.0
H2106 H 0.93346 0.57347 0.3357 0.0
H2107 H 0.87761 0.61203 0.18494 0.0
H2108 H 0.8856 0.62092 0.23737 0.0
H2109 H 0.89991 0.57406 0.26323 0.0
H2110 H 0.89261 0.56531 0.21052 0.0
H2111 H 0.92456 0.59113 0.28673 0.0
H2112 H 0.85803 0.59518 0.28832 0.0
H2113 H 0.82705 0.60359 0.27029 0.0
H2114 H 0.84299 0.65127 0.28163 0.0
H2115 H 0.87416 0.64314 0.29937 0.0
C2116 C 0.9221 0.61075 0.43497 0.0
C2117 C 0.92278 0.62642 0.44403 0.0
C2118 C 0.9184 0.60658 0.40396 0.0
C2119 C 0.91506 0.61796 0.38111 0.0
C2120 C 0.91584 0.63366 0.39017 0.0
C2121 C 0.91971 0.63784 0.42122 0.0
C2122 C 0.91016 0.61341 0.3482 0.0
C2123 C 0.89328 0.61855 0.33521 0.0
C2124 C 0.92146 0.60333 0.33024 0.0
C2125 C 0.93979 0.59787 0.34177 0.0
C2126 C 0.95341 0.60855 0.35147 0.0
C2127 C 0.97056 0.60331 0.36267 0.0
C2128 C 0.97431 0.58742 0.36409 0.0
C2129 C 0.96092 0.57673 0.35422 0.0
C2130 C 0.94374 0.58191 0.34303 0.0
C2131 C 0.8822 0.60358 0.20192 0.0
C2132 C 0.88436 0.58791 0.1933 0.0
C2133 C 0.88678 0.60868 0.23213 0.0
C2134 C 0.89323 0.59822 0.25498 0.0
C2135 C 0.89509 0.58251 0.24642 0.0
C2136 C 0.89082 0.57747 0.21612 0.0
C2137 C 0.89854 0.60357 0.28738 0.0
C2138 C 0.91554 0.59858 0.30035 0.0
C2139 C 0.88721 0.61363 0.30547 0.0
C2140 C 0.86849 0.61855 0.29485 0.0
C2141 C 0.85497 0.60746 0.28676 0.0
C2142 C 0.83737 0.61218 0.27663 0.0
C2143 C 0.83307 0.62796 0.27473 0.0
C2144 C 0.84635 0.63905 0.28306 0.0
C2145 C 0.86398 0.6344 0.29318 0.0
H2146 H 0.81944 0.63159 0.26689 0.0
H2147 H 0.98759 0.58339 0.37278 0.0
H2148 H 0.39657 0.44978 0.64111 0.0
H2149 H 0.40383 0.44095 0.58864 0.0
H2150 H 0.37904 0.39655 0.60876 0.0
H2151 H 0.37229 0.40516 0.66194 0.0
H2152 H 0.41067 0.39216 0.57786 0.0
H2153 H 0.35742 0.42454 0.56102 0.0
H2154 H 0.33861 0.4484 0.56463 0.0
H2155 H 0.38097 0.4738 0.51602 0.0
H2156 H 0.40016 0.45013 0.51248 0.0
H2157 H 0.40956 0.36643 0.41876 0.0
H2158 H 0.40275 0.37392 0.47265 0.0
H2159 H 0.42397 0.41984 0.45433 0.0
H2160 H 0.43015 0.41239 0.40016 0.0
H2161 H 0.39359 0.42294 0.48472 0.0
H2162 H 0.44713 0.39086 0.50203 0.0
H2163 H 0.46619 0.36714 0.49845 0.0
H2164 H 0.4238 0.34134 0.54614 0.0
H2165 H 0.40437 0.36487 0.54963 0.0
C2166 C 0.39265 0.43809 0.63459 0.0
C2167 C 0.38381 0.42823 0.65625 0.0
C2168 C 0.39669 0.43308 0.60422 0.0
C2169 C 0.39189 0.41805 0.59417 0.0
C2170 C 0.38292 0.4082 0.6156 0.0
C2171 C 0.37886 0.41322 0.64608 0.0
C2172 C 0.39654 0.41263 0.56163 0.0
C2173 C 0.40667 0.3988 0.5575 0.0
C2174 C 0.39184 0.42136 0.53474 0.0
C2175 C 0.3803 0.43559 0.53673 0.0
C2176 C 0.36278 0.43524 0.55129 0.0
C2177 C 0.35204 0.44872 0.5533 0.0
C2178 C 0.35861 0.46261 0.54063 0.0
C2179 C 0.37591 0.46304 0.52586 0.0
C2180 C 0.38672 0.44959 0.52381 0.0
C2181 C 0.41318 0.378 0.42654 0.0
C2182 C 0.42075 0.38873 0.4054 0.0
C2183 C 0.40925 0.38232 0.45745 0.0
C2184 C 0.41299 0.39748 0.46821 0.0
C2185 C 0.42091 0.40809 0.44703 0.0
C2186 C 0.42466 0.40379 0.41608 0.0
C2187 C 0.40789 0.40251 0.50085 0.0
C2188 C 0.39763 0.41627 0.50502 0.0
C2189 C 0.41253 0.39374 0.52776 0.0
C2190 C 0.42422 0.3796 0.52582 0.0
C2191 C 0.44182 0.38011 0.51156 0.0
C2192 C 0.45269 0.3667 0.50957 0.0
C2193 C 0.44619 0.35274 0.52199 0.0
C2194 C 0.42881 0.35216 0.53649 0.0
C2195 C 0.41787 0.36553 0.53851 0.0
H2196 H 0.45463 0.34237 0.52043 0.0
H2197 H 0.35028 0.47304 0.54221 0.0
H2198 H 0.6528 0.92146 0.69842 0.0
H2199 H 0.6459 0.91197 0.75091 0.0
H2200 H 0.58788 0.92219 0.73743 0.0
H2201 H 0.59414 0.93052 0.68456 0.0
H2202 H 0.60974 0.93404 0.79878 0.0
H2203 H 0.59185 0.88948 0.73454 0.0
H2204 H 0.59849 0.86948 0.69506 0.0
H2205 H 0.64438 0.85289 0.74974 0.0
H2206 H 0.63818 0.87297 0.78931 0.0
H2207 H 0.56918 0.90416 0.93631 0.0
H2208 H 0.57488 0.9115 0.88202 0.0
H2209 H 0.61872 0.8774 0.8766 0.0
H2210 H 0.61185 0.86926 0.92991 0.0
H2211 H 0.60545 0.87802 0.82405 0.0
H2212 H 0.62494 0.91998 0.88857 0.0
H2213 H 0.62204 0.94021 0.92882 0.0
H2214 H 0.57886 0.9624 0.87599 0.0
H2215 H 0.58132 0.94216 0.83561 0.0
C2216 C 0.6385 0.92155 0.70618 0.0
C2217 C 0.62418 0.92711 0.68652 0.0
C2218 C 0.6346 0.91619 0.73654 0.0
C2219 C 0.61636 0.91646 0.74838 0.0
C2220 C 0.6021 0.92201 0.7291 0.0
C2221 C 0.60586 0.927 0.69865 0.0
C2222 C 0.61196 0.91089 0.78068 0.0
C2223 C 0.60863 0.9218 0.8043 0.0
C2224 C 0.61107 0.89494 0.78831 0.0
C2225 C 0.6147 0.88284 0.76465 0.0
C2226 C 0.60348 0.88168 0.73796 0.0
C2227 C 0.60713 0.8703 0.71561 0.0
C2228 C 0.62189 0.85996 0.71983 0.0
C2229 C 0.63299 0.86094 0.74646 0.0
C2230 C 0.6294 0.8723 0.76886 0.0
C2231 C 0.57982 0.89809 0.9233 0.0
C2232 C 0.59036 0.88637 0.93774 0.0
C2233 C 0.58333 0.90245 0.89227 0.0
C2234 C 0.59783 0.89552 0.87498 0.0
C2235 C 0.60762 0.8832 0.88902 0.0
C2236 C 0.60376 0.87857 0.91973 0.0
C2237 C 0.603 0.90118 0.84272 0.0
C2238 C 0.60655 0.8903 0.81893 0.0
C2239 C 0.6046 0.91721 0.83516 0.0
C2240 C 0.60319 0.92947 0.85922 0.0
C2241 C 0.61475 0.92913 0.88562 0.0
C2242 C 0.61319 0.9406 0.90845 0.0
C2243 C 0.60024 0.95256 0.905 0.0
C2244 C 0.58886 0.95311 0.87865 0.0
C2245 C 0.59034 0.94165 0.85578 0.0
H2246 H 0.59905 0.96143 0.9227 0.0
H2247 H 0.62469 0.85116 0.70251 0.0
H2248 H 0.08985 0.4148 0.45596 0.0
H2249 H 0.09605 0.42254 0.40208 0.0
H2250 H 0.09428 0.37457 0.37389 0.0
H2251 H 0.08825 0.36684 0.42809 0.0
H2252 H 0.12429 0.38897 0.34914 0.0
H2253 H 0.05882 0.40087 0.35497 0.0
H2254 H 0.03104 0.41311 0.378 0.0
H2255 H 0.05533 0.45816 0.36501 0.0
H2256 H 0.08336 0.44618 0.34224 0.0
H2257 H 0.13064 0.40455 0.18617 0.0
H2258 H 0.12224 0.39581 0.23849 0.0
H2259 H 0.11348 0.44334 0.26637 0.0
H2260 H 0.12089 0.45194 0.21356 0.0
H2261 H 0.088 0.42849 0.29136 0.0
H2262 H 0.15341 0.41827 0.28913 0.0
H2263 H 0.18285 0.40745 0.26924 0.0
H2264 H 0.16107 0.36129 0.27868 0.0
H2265 H 0.1314 0.37186 0.29828 0.0
C2266 C 0.0903 0.40594 0.4381 0.0
C2267 C 0.088 0.39024 0.4462 0.0
C2268 C 0.09391 0.41037 0.40721 0.0
C2269 C 0.09547 0.39921 0.38343 0.0
C2270 C 0.09305 0.38348 0.39152 0.0
C2271 C 0.08934 0.37905 0.42248 0.0
C2272 C 0.10036 0.40392 0.3506 0.0
C2273 C 0.11615 0.39743 0.33633 0.0
C2274 C 0.09026 0.41539 0.33397 0.0
C2275 C 0.07325 0.42261 0.34711 0.0
C2276 C 0.05828 0.41338 0.35716 0.0
C2277 C 0.04248 0.42027 0.37016 0.0
C2278 C 0.04144 0.4364 0.37303 0.0
C2279 C 0.05616 0.44567 0.36279 0.0
C2280 C 0.07199 0.43884 0.34979 0.0
C2281 C 0.12717 0.41315 0.20358 0.0
C2282 C 0.12661 0.42898 0.19554 0.0
C2283 C 0.12238 0.40814 0.23375 0.0
C2284 C 0.11742 0.41884 0.2572 0.0
C2285 C 0.11713 0.4347 0.24914 0.0
C2286 C 0.12151 0.43967 0.21882 0.0
C2287 C 0.11208 0.4136 0.28968 0.0
C2288 C 0.09618 0.41999 0.30398 0.0
C2289 C 0.12231 0.40226 0.30661 0.0
C2290 C 0.14012 0.39587 0.29485 0.0
C2291 C 0.15485 0.40582 0.28675 0.0
C2292 C 0.17159 0.39973 0.27557 0.0
C2293 C 0.17381 0.38369 0.27261 0.0
C2294 C 0.15932 0.37371 0.28093 0.0
C2295 C 0.14255 0.37974 0.2921 0.0
H2296 H 0.18677 0.379 0.26395 0.0
H2297 H 0.02921 0.44171 0.38316 0.0
H2298 H 0.63416 0.61138 0.66407 0.0
H2299 H 0.6266 0.62022 0.61123 0.0
H2300 H 0.61259 0.57338 0.58523 0.0
H2301 H 0.62003 0.56451 0.63795 0.0
H2302 H 0.63322 0.58829 0.53926 0.0
H2303 H 0.57875 0.59889 0.60089 0.0
H2304 H 0.56155 0.61024 0.64494 0.0
H2305 H 0.57795 0.65595 0.61615 0.0
H2306 H 0.59549 0.64483 0.57216 0.0
H2307 H 0.58712 0.60171 0.39703 0.0
H2308 H 0.59345 0.59406 0.45092 0.0
H2309 H 0.59931 0.64221 0.47641 0.0
H2310 H 0.5924 0.64982 0.42244 0.0
H2311 H 0.58357 0.62746 0.52315 0.0
H2312 H 0.63741 0.6179 0.46167 0.0
H2313 H 0.65522 0.60737 0.4175 0.0
H2314 H 0.64175 0.56098 0.44611 0.0
H2315 H 0.62355 0.57125 0.49017 0.0
C2316 C 0.62971 0.60291 0.64702 0.0
C2317 C 0.62772 0.5872 0.65552 0.0
C2318 C 0.62522 0.60802 0.61678 0.0
C2319 C 0.6188 0.59753 0.59402 0.0
C2320 C 0.61743 0.58177 0.60217 0.0
C2321 C 0.62164 0.5767 0.63248 0.0
C2322 C 0.61321 0.60296 0.56199 0.0
C2323 C 0.62221 0.59673 0.53579 0.0
C2324 C 0.5992 0.61431 0.55711 0.0
C2325 C 0.5886 0.62102 0.58344 0.0
C2326 C 0.57882 0.61135 0.60411 0.0
C2327 C 0.56899 0.61774 0.62903 0.0
C2328 C 0.5687 0.6338 0.63339 0.0
C2329 C 0.57821 0.64351 0.61277 0.0
C2330 C 0.58809 0.63717 0.58783 0.0
C2331 C 0.58928 0.61066 0.41435 0.0
C2332 C 0.58892 0.62637 0.40559 0.0
C2333 C 0.59317 0.60628 0.44517 0.0
C2334 C 0.59731 0.61748 0.46804 0.0
C2335 C 0.59623 0.63326 0.4595 0.0
C2336 C 0.59216 0.63764 0.42863 0.0
C2337 C 0.60347 0.61269 0.50028 0.0
C2338 C 0.59461 0.61906 0.52654 0.0
C2339 C 0.6178 0.60159 0.50525 0.0
C2340 C 0.62898 0.59535 0.47908 0.0
C2341 C 0.63815 0.60545 0.45845 0.0
C2342 C 0.64831 0.59953 0.43343 0.0
C2343 C 0.64958 0.58352 0.42897 0.0
C2344 C 0.64073 0.57339 0.44958 0.0
C2345 C 0.63049 0.57925 0.47459 0.0
H2346 H 0.65746 0.57895 0.40957 0.0
H2347 H 0.56107 0.63873 0.6527 0.0
H2348 H 0.39483 0.06725 0.71254 0.0
H2349 H 0.4023 0.07581 0.76533 0.0
H2350 H 0.38527 0.1223 0.74197 0.0
H2351 H 0.3778 0.11377 0.68883 0.0
H2352 H 0.41877 0.12211 0.77442 0.0
H2353 H 0.3581 0.09997 0.78782 0.0
H2354 H 0.33399 0.07972 0.78359 0.0
H2355 H 0.36764 0.04869 0.83784 0.0
H2356 H 0.39209 0.06868 0.84203 0.0
H2357 H 0.42023 0.15052 0.93194 0.0
H2358 H 0.41337 0.1435 0.87777 0.0
H2359 H 0.42058 0.09514 0.90064 0.0
H2360 H 0.42677 0.10223 0.95491 0.0
H2361 H 0.39148 0.09701 0.86755 0.0
H2362 H 0.45251 0.11806 0.85347 0.0
H2363 H 0.4775 0.13759 0.85727 0.0
H2364 H 0.44469 0.1697 0.80411 0.0
H2365 H 0.41939 0.15043 0.80035 0.0
C2366 C 0.39258 0.0793 0.71856 0.0
C2367 C 0.38563 0.08977 0.69615 0.0
C2368 C 0.39681 0.08419 0.74896 0.0
C2369 C 0.39435 0.09975 0.75804 0.0
C2370 C 0.38734 0.11024 0.73579 0.0
C2371 C 0.38288 0.1053 0.70539 0.0
C2372 C 0.39928 0.10497 0.79054 0.0
C2373 C 0.41259 0.11677 0.79477 0.0
C2374 C 0.3917 0.09781 0.81739 0.0
C2375 C 0.377 0.08578 0.81499 0.0
C2376 C 0.36043 0.08878 0.79864 0.0
C2377 C 0.34669 0.07736 0.79629 0.0
C2378 C 0.3493 0.06291 0.81037 0.0
C2379 C 0.36565 0.05987 0.8269 0.0
C2380 C 0.37944 0.07125 0.8293 0.0
C2381 C 0.42088 0.13844 0.92511 0.0
C2382 C 0.42455 0.12696 0.94755 0.0
C2383 C 0.41688 0.13438 0.89405 0.0
C2384 C 0.41659 0.11871 0.88446 0.0
C2385 C 0.42066 0.1073 0.90696 0.0
C2386 C 0.42445 0.11136 0.93802 0.0
C2387 C 0.4112 0.11409 0.85166 0.0
C2388 C 0.39774 0.1024 0.84731 0.0
C2389 C 0.4188 0.12126 0.82472 0.0
C2390 C 0.43398 0.13286 0.82692 0.0
C2391 C 0.45057 0.12933 0.8428 0.0
C2392 C 0.46479 0.14034 0.84491 0.0
C2393 C 0.46266 0.15489 0.83101 0.0
C2394 C 0.44631 0.15844 0.81491 0.0
C2395 C 0.43203 0.14747 0.81276 0.0
H2396 H 0.4737 0.1634 0.83266 0.0
H2397 H 0.33864 0.05409 0.80853 0.0
H2398 H 0.87218 0.90592 0.1562 0.0
H2399 H 0.87977 0.897 0.10362 0.0
H2400 H 0.90065 0.94247 0.08089 0.0
H2401 H 0.8926 0.95157 0.13297 0.0
H2402 H 0.88198 0.93151 0.03266 0.0
H2403 H 0.92989 0.91085 0.0991 0.0
H2404 H 0.94222 0.89598 0.14358 0.0
H2405 H 0.91689 0.85447 0.10806 0.0
H2406 H 0.9042 0.86915 0.06356 0.0
H2407 H 0.93012 0.91301 0.89425 0.0
H2408 H 0.92364 0.92075 0.9481 0.0
H2409 H 0.90487 0.87432 0.96851 0.0
H2410 H 0.91197 0.86653 0.91476 0.0
H2411 H 0.92194 0.88519 0.01805 0.0
H2412 H 0.87444 0.90528 0.95144 0.0
H2413 H 0.86211 0.91974 0.90646 0.0
H2414 H 0.8858 0.96188 0.94214 0.0
H2415 H 0.89858 0.94761 0.98708 0.0
C2416 C 0.87813 0.91413 0.13994 0.0
C2417 C 0.88182 0.92951 0.14932 0.0
C2418 C 0.8827 0.90893 0.1098 0.0
C2419 C 0.89117 0.91892 0.08803 0.0
C2420 C 0.89429 0.9344 0.097 0.0
C2421 C 0.88976 0.93959 0.1271 0.0
C2422 C 0.89694 0.91332 0.05612 0.0
C2423 C 0.89091 0.92149 0.02961 0.0
C2424 C 0.90824 0.89998 0.05156 0.0
C2425 C 0.91594 0.89113 0.07818 0.0
C2426 C 0.92684 0.89857 0.1009 0.0
C2427 C 0.93391 0.89018 0.12609 0.0
C2428 C 0.9303 0.8743 0.12869 0.0
C2429 C 0.91965 0.86678 0.10604 0.0
C2430 C 0.91253 0.87513 0.08082 0.0
C2431 C 0.92507 0.90438 0.91051 0.0
C2432 C 0.92182 0.88912 0.9004 0.0
C2433 C 0.92111 0.90885 0.94127 0.0
C2434 C 0.91331 0.89827 0.96264 0.0
C2435 C 0.9108 0.8828 0.95279 0.0
C2436 C 0.91495 0.8783 0.92205 0.0
C2437 C 0.90711 0.90346 0.99461 0.0
C2438 C 0.91301 0.89521 0.02109 0.0
C2439 C 0.89559 0.91667 0.99916 0.0
C2440 C 0.8876 0.92535 0.97251 0.0
C2441 C 0.8771 0.91762 0.94962 0.0
C2442 C 0.87004 0.92578 0.92412 0.0
C2443 C 0.87319 0.94172 0.92142 0.0
C2444 C 0.88338 0.94953 0.94426 0.0
C2445 C 0.89053 0.94141 0.96976 0.0
H2446 H 0.86772 0.94802 0.90165 0.0
H2447 H 0.93578 0.86782 0.14821 0.0
loop_
_geom_bond_atom_site_label_1
_geom_bond_atom_site_label_2
_geom_bond_distance
_geom_bond_site_symmetry_2
_ccdc_geom_bond_type
C0 C1 1.443 . S
C0 N4 1.376 . S
C0 C38 1.389 . S
C1 C0 1.443 . S
C1 C2 1.340 . S
C1 H41 0.951 . S
C2 C1 1.340 . S
C2 C3 1.439 . S
C2 H42 0.950 . S
C3 C2 1.439 . S
C3 N4 1.374 . S
C3 C37 1.395 . S
N4 C0 1.376 . S
N4 C3 1.374 . S
N4 Co5 2.008 . S
Co5 N4 2.008 . S
Co5 N6 1.995 . S
Co5 N11 2.008 . S
Co5 N16 1.995 . S
Co5 N21 2.282 . S
Co5 N27 2.282 . S
N6 Co5 1.995 . S
N6 C7 1.376 . S
N6 C10 1.383 . S
C7 N6 1.376 . S
C7 C8 1.446 . S
C7 C37 1.391 . S
C8 C7 1.446 . S
C8 C9 1.339 . S
C8 H43 0.949 . S
C9 C8 1.339 . S
C9 C10 1.439 . S
C9 H44 0.950 . S
C10 N6 1.383 . S
C10 C9 1.439 . S
C10 C39 1.392 . S
N11 Co5 2.008 . S
N11 C12 1.376 . S
N11 C15 1.374 . S
C12 N11 1.376 . S
C12 C13 1.443 . S
C12 C39 1.389 . S
C13 C12 1.443 . S
C13 C14 1.340 . S
C13 H45 0.951 . S
C14 C13 1.340 . S
C14 C15 1.439 . S
C14 H46 0.950 . S
C15 N11 1.374 . S
C15 C14 1.439 . S
C15 C40 1.395 . S
N16 Co5 1.995 . S
N16 C17 1.376 . S
N16 C20 1.383 . S
C17 N16 1.376 . S
C17 C18 1.446 . S
C17 C40 1.391 . S
C18 C17 1.446 . S
C18 C19 1.339 . S
C18 H47 0.949 . S
C19 C18 1.339 . S
C19 C20 1.439 . S
C19 H48 0.950 . S
C20 N16 1.383 . S
C20 C19 1.439 . S
C20 C38 1.392 . S
N21 Co5 2.282 . S
N21 C24 1.332 . S
N21 C26 1.332 . S
C22 C23 1.386 . S
C22 C25 1.388 . S
C23 C22 1.386 . S
C23 C24 1.382 . S
C23 H49 0.950 . S
C24 N21 1.332 . S
C24 C23 1.382 . S
C24 H35 0.952 . S
C25 C22 1.388 . S
C25 C26 1.382 . S
C25 H50 0.950 . S
C26 N21 1.332 . S
C26 C25 1.382 . S
C26 H36 0.948 . S
N27 Co5 2.282 . S
N27 C31 1.332 . S
N27 C32 1.332 . S
C28 C29 1.388 . S
C28 C32 1.382 . S
C28 H51 0.950 . S
C29 C28 1.388 . S
C29 C30 1.386 . S
C30 C29 1.386 . S
C30 C31 1.382 . S
C30 H52 0.950 . S
C31 N27 1.332 . S
C31 C30 1.382 . S
C31 H33 0.952 . S
C32 N27 1.332 . S
C32 C28 1.382 . S
C32 H34 0.948 . S
H33 C31 0.952 . S
H34 C32 0.948 . S
H35 C24 0.952 . S
H36 C26 0.948 . S
C37 C3 1.395 . S
C37 C7 1.391 . S
C38 C0 1.389 . S
C38 C20 1.392 . S
C39 C10 1.392 . S
C39 C12 1.389 . S
C40 C15 1.395 . S
C40 C17 1.391 . S
H41 C1 0.951 . S
H42 C2 0.950 . S
H43 C8 0.949 . S
H44 C9 0.950 . S
H45 C13 0.951 . S
H46 C14 0.950 . S
H47 C18 0.949 . S
H48 C19 0.950 . S
H49 C23 0.950 . S
H50 C25 0.950 . S
H51 C28 0.950 . S
H52 C30 0.950 . S
C53 C54 1.443 . S
C53 N57 1.376 . S
C53 C91 1.389 . S
C54 C53 1.443 . S
C54 C55 1.340 . S
C54 H94 0.951 . S
C55 C54 1.340 . S
C55 C56 1.439 . S
C55 H95 0.950 . S
C56 C55 1.439 . S
C56 N57 1.374 . S
C56 C90 1.395 . S
N57 C53 1.376 . S
N57 C56 1.374 . S
N57 Co58 2.008 . S
Co58 N57 2.008 . S
Co58 N59 1.995 . S
Co58 N64 2.008 . S
Co58 N69 1.995 . S
Co58 N74 2.282 . S
Co58 N80 2.282 . S
N59 Co58 1.995 . S
N59 C60 1.376 . S
N59 C63 1.383 . S
C60 N59 1.376 . S
C60 C61 1.446 . S
C60 C90 1.391 . S
C61 C60 1.446 . S
C61 C62 1.339 . S
C61 H96 0.949 . S
C62 C61 1.339 . S
C62 C63 1.439 . S
C62 H97 0.950 . S
C63 N59 1.383 . S
C63 C62 1.439 . S
C63 C92 1.392 . S
N64 Co58 2.008 . S
N64 C65 1.376 . S
N64 C68 1.374 . S
C65 N64 1.376 . S
C65 C66 1.443 . S
C65 C92 1.389 . S
C66 C65 1.443 . S
C66 C67 1.340 . S
C66 H98 0.951 . S
C67 C66 1.340 . S
C67 C68 1.439 . S
C67 H99 0.950 . S
C68 N64 1.374 . S
C68 C67 1.439 . S
C68 C93 1.395 . S
N69 Co58 1.995 . S
N69 C70 1.376 . S
N69 C73 1.383 . S
C70 N69 1.376 . S
C70 C71 1.446 . S
C70 C93 1.391 . S
C71 C70 1.446 . S
C71 C72 1.339 . S
C71 H100 0.949 . S
C72 C71 1.339 . S
C72 C73 1.439 . S
C72 H101 0.950 . S
C73 N69 1.383 . S
C73 C72 1.439 . S
C73 C91 1.392 . S
N74 Co58 2.282 . S
N74 C77 1.332 . S
N74 C79 1.332 . S
C75 C76 1.386 . S
C75 C78 1.388 . S
C76 C75 1.386 . S
C76 C77 1.382 . S
C76 H102 0.950 . S
C77 N74 1.332 . S
C77 C76 1.382 . S
C77 H88 0.952 . S
C78 C75 1.388 . S
C78 C79 1.382 . S
C78 H103 0.950 . S
C79 N74 1.332 . S
C79 C78 1.382 . S
C79 H89 0.948 . S
N80 Co58 2.282 . S
N80 C84 1.332 . S
N80 C85 1.332 . S
C81 C82 1.388 . S
C81 C85 1.382 . S
C81 H104 0.950 . S
C82 C81 1.388 . S
C82 C83 1.386 . S
C83 C82 1.386 . S
C83 C84 1.382 . S
C83 H105 0.950 . S
C84 N80 1.332 . S
C84 C83 1.382 . S
C84 H86 0.952 . S
C85 N80 1.332 . S
C85 C81 1.382 . S
C85 H87 0.948 . S
H86 C84 0.952 . S
H87 C85 0.948 . S
H88 C77 0.952 . S
H89 C79 0.948 . S
C90 C56 1.395 . S
C90 C60 1.391 . S
C91 C53 1.389 . S
C91 C73 1.392 . S
C92 C63 1.392 . S
C92 C65 1.389 . S
C93 C68 1.395 . S
C93 C70 1.391 . S
H94 C54 0.951 . S
H95 C55 0.950 . S
H96 C61 0.949 . S
H97 C62 0.950 . S
H98 C66 0.951 . S
H99 C67 0.950 . S
H100 C71 0.949 . S
H101 C72 0.950 . S
H102 C76 0.950 . S
H103 C78 0.950 . S
H104 C81 0.950 . S
H105 C83 0.950 . S
C106 C107 1.443 . S
C106 N110 1.376 . S
C106 C144 1.389 . S
C107 C106 1.443 . S
C107 C108 1.340 . S
C107 H147 0.951 . S
C108 C107 1.340 . S
C108 C109 1.439 . S
C108 H148 0.950 . S
C109 C108 1.439 . S
C109 N110 1.374 . S
C109 C143 1.395 . S
N110 C106 1.376 . S
N110 C109 1.374 . S
N110 Co111 2.008 . S
Co111 N110 2.008 . S
Co111 N112 1.995 . S
Co111 N117 2.008 . S
Co111 N122 1.995 . S
Co111 N127 2.282 . S
Co111 N133 2.282 . S
N112 Co111 1.995 . S
N112 C113 1.376 . S
N112 C116 1.383 . S
C113 N112 1.376 . S
C113 C114 1.446 . S
C113 C143 1.391 . S
C114 C113 1.446 . S
C114 C115 1.339 . S
C114 H149 0.949 . S
C115 C114 1.339 . S
C115 C116 1.439 . S
C115 H150 0.950 . S
C116 N112 1.383 . S
C116 C115 1.439 . S
C116 C145 1.392 . S
N117 Co111 2.008 . S
N117 C118 1.376 . S
N117 C121 1.374 . S
C118 N117 1.376 . S
C118 C119 1.443 . S
C118 C145 1.389 . S
C119 C118 1.443 . S
C119 C120 1.340 . S
C119 H151 0.951 . S
C120 C119 1.340 . S
C120 C121 1.439 . S
C120 H152 0.950 . S
C121 N117 1.374 . S
C121 C120 1.439 . S
C121 C146 1.395 . S
N122 Co111 1.995 . S
N122 C123 1.376 . S
N122 C126 1.383 . S
C123 N122 1.376 . S
C123 C124 1.446 . S
C123 C146 1.391 . S
C124 C123 1.446 . S
C124 C125 1.339 . S
C124 H153 0.949 . S
C125 C124 1.339 . S
C125 C126 1.439 . S
C125 H154 0.950 . S
C126 N122 1.383 . S
C126 C125 1.439 . S
C126 C144 1.392 . S
N127 Co111 2.282 . S
N127 C130 1.332 . S
N127 C132 1.332 . S
C128 C129 1.386 . S
C128 C131 1.388 . S
C129 C128 1.386 . S
C129 C130 1.382 . S
C129 H155 0.950 . S
C130 N127 1.332 . S
C130 C129 1.382 . S
C130 H141 0.952 . S
C131 C128 1.388 . S
C131 C132 1.382 . S
C131 H156 0.950 . S
C132 N127 1.332 . S
C132 C131 1.382 . S
C132 H142 0.948 . S
N133 Co111 2.282 . S
N133 C137 1.332 . S
N133 C138 1.332 . S
C134 C135 1.388 . S
C134 C138 1.382 . S
C134 H157 0.950 . S
C135 C134 1.388 . S
C135 C136 1.386 . S
C136 C135 1.386 . S
C136 C137 1.382 . S
C136 H158 0.950 . S
C137 N133 1.332 . S
C137 C136 1.382 . S
C137 H139 0.952 . S
C138 N133 1.332 . S
C138 C134 1.382 . S
C138 H140 0.948 . S
H139 C137 0.952 . S
H140 C138 0.948 . S
H141 C130 0.952 . S
H142 C132 0.948 . S
C143 C109 1.395 . S
C143 C113 1.391 . S
C144 C106 1.389 . S
C144 C126 1.392 . S
C145 C116 1.392 . S
C145 C118 1.389 . S
C146 C121 1.395 . S
C146 C123 1.391 . S
H147 C107 0.951 . S
H148 C108 0.950 . S
H149 C114 0.949 . S
H150 C115 0.950 . S
H151 C119 0.951 . S
H152 C120 0.950 . S
H153 C124 0.949 . S
H154 C125 0.950 . S
H155 C129 0.950 . S
H156 C131 0.950 . S
H157 C134 0.950 . S
H158 C136 0.950 . S
C159 C160 1.443 . S
C159 N163 1.376 1_556 S
C159 C197 1.389 . S
C160 C159 1.443 . S
C160 C161 1.340 . S
C160 H200 0.951 . S
C161 C160 1.340 . S
C161 C162 1.439 1_556 S
C161 H201 0.950 . S
C162 C161 1.439 1_554 S
C162 N163 1.374 . S
C162 C196 1.395 . S
N163 C159 1.376 1_554 S
N163 C162 1.374 . S
N163 Co164 2.008 . S
Co164 N163 2.008 . S
Co164 N165 1.995 . S
Co164 N170 2.008 . S
Co164 N175 1.995 . S
Co164 N180 2.282 . S
Co164 N186 2.282 . S
N165 Co164 1.995 . S
N165 C166 1.376 . S
N165 C169 1.383 . S
C166 N165 1.376 . S
C166 C167 1.446 . S
C166 C196 1.391 . S
C167 C166 1.446 . S
C167 C168 1.339 . S
C167 H202 0.949 . S
C168 C167 1.339 . S
C168 C169 1.439 . S
C168 H203 0.950 . S
C169 N165 1.383 . S
C169 C168 1.439 . S
C169 C198 1.392 . S
N170 Co164 2.008 . S
N170 C171 1.376 . S
N170 C174 1.374 . S
C171 N170 1.376 . S
C171 C172 1.443 . S
C171 C198 1.389 . S
C172 C171 1.443 . S
C172 C173 1.340 . S
C172 H204 0.951 . S
C173 C172 1.340 . S
C173 C174 1.439 . S
C173 H205 0.950 . S
C174 N170 1.374 . S
C174 C173 1.439 . S
C174 C199 1.395 . S
N175 Co164 1.995 . S
N175 C176 1.376 . S
N175 C179 1.383 1_554 S
C176 N175 1.376 . S
C176 C177 1.446 1_554 S
C176 C199 1.391 . S
C177 C176 1.446 1_556 S
C177 C178 1.339 . S
C177 H206 0.949 . S
C178 C177 1.339 . S
C178 C179 1.439 . S
C178 H207 0.950 . S
C179 N175 1.383 1_556 S
C179 C178 1.439 . S
C179 C197 1.392 . S
N180 Co164 2.282 . S
N180 C183 1.332 . S
N180 C185 1.332 . S
C181 C182 1.386 . S
C181 C184 1.388 . S
C182 C181 1.386 . S
C182 C183 1.382 . S
C182 H208 0.950 . S
C183 N180 1.332 . S
C183 C182 1.382 . S
C183 H194 0.952 . S
C184 C181 1.388 . S
C184 C185 1.382 . S
C184 H209 0.950 . S
C185 N180 1.332 . S
C185 C184 1.382 . S
C185 H195 0.948 . S
N186 Co164 2.282 . S
N186 C190 1.332 . S
N186 C191 1.332 . S
C187 C188 1.388 . S
C187 C191 1.382 . S
C187 H210 0.964 . S
C188 C187 1.388 . S
C188 C189 1.386 . S
C189 C188 1.386 . S
C189 C190 1.382 . S
C189 H211 0.950 . S
C190 N186 1.332 . S
C190 C189 1.382 . S
C190 H192 0.952 . S
C191 N186 1.332 . S
C191 C187 1.382 . S
C191 H193 0.948 . S
H192 C190 0.952 . S
H193 C191 0.948 . S
H194 C183 0.952 . S
H195 C185 0.948 . S
C196 C162 1.395 . S
C196 C166 1.391 . S
C197 C159 1.389 . S
C197 C179 1.392 . S
C198 C169 1.392 . S
C198 C171 1.389 . S
C199 C174 1.395 . S
C199 C176 1.391 . S
H200 C160 0.951 . S
H201 C161 0.950 . S
H202 C167 0.949 . S
H203 C168 0.950 . S
H204 C172 0.951 . S
H205 C173 0.950 . S
H206 C177 0.949 . S
H207 C178 0.950 . S
H208 C182 0.950 . S
H209 C184 0.950 . S
H210 C187 0.964 . S
H211 C189 0.950 . S
C212 C213 1.443 1_554 S
C212 N216 1.376 . S
C212 C250 1.390 . S
C213 C212 1.443 1_556 S
C213 C214 1.340 . S
C213 H253 0.951 . S
C214 C213 1.340 . S
C214 C215 1.439 1_556 S
C214 H254 0.950 . S
C215 C214 1.439 1_554 S
C215 N216 1.374 . S
C215 C249 1.395 . S
N216 C212 1.376 . S
N216 C215 1.374 . S
N216 Co217 2.008 . S
Co217 N216 2.008 . S
Co217 N218 1.995 . S
Co217 N223 2.008 . S
Co217 N228 1.995 . S
Co217 N233 2.282 . S
Co217 N239 2.282 1_554 S
N218 Co217 1.995 . S
N218 C219 1.376 . S
N218 C222 1.383 . S
C219 N218 1.376 . S
C219 C220 1.446 . S
C219 C249 1.391 . S
C220 C219 1.446 . S
C220 C221 1.339 . S
C220 H255 0.949 . S
C221 C220 1.339 . S
C221 C222 1.439 . S
C221 H256 0.950 . S
C222 N218 1.383 . S
C222 C221 1.439 . S
C222 C251 1.392 . S
N223 Co217 2.008 . S
N223 C224 1.376 . S
N223 C227 1.374 . S
C224 N223 1.376 . S
C224 C225 1.443 . S
C224 C251 1.389 . S
C225 C224 1.443 . S
C225 C226 1.340 . S
C225 H257 0.951 . S
C226 C225 1.340 . S
C226 C227 1.439 . S
C226 H258 0.950 . S
C227 N223 1.374 . S
C227 C226 1.439 . S
C227 C252 1.395 . S
N228 Co217 1.995 . S
N228 C229 1.376 . S
N228 C232 1.383 . S
C229 N228 1.376 . S
C229 C230 1.446 . S
C229 C252 1.391 . S
C230 C229 1.446 . S
C230 C231 1.339 . S
C230 H259 0.949 . S
C231 C230 1.339 . S
C231 C232 1.439 . S
C231 H260 0.950 . S
C232 N228 1.383 . S
C232 C231 1.439 . S
C232 C250 1.399 . S
N233 Co217 2.282 . S
N233 C236 1.332 . S
N233 C238 1.332 . S
C234 C235 1.386 . S
C234 C237 1.388 . S
C235 C234 1.386 . S
C235 C236 1.382 . S
C235 H261 0.950 . S
C236 N233 1.332 . S
C236 C235 1.382 . S
C236 H247 0.952 . S
C237 C234 1.388 . S
C237 C238 1.382 . S
C237 H262 0.950 . S
C238 N233 1.332 . S
C238 C237 1.382 . S
C238 H248 0.948 . S
N239 Co217 2.282 1_556 S
N239 C243 1.332 . S
N239 C244 1.332 . S
C240 C241 1.388 . S
C240 C244 1.382 . S
C240 H263 0.950 . S
C241 C240 1.388 . S
C241 C242 1.386 . S
C242 C241 1.386 . S
C242 C243 1.382 . S
C242 H264 0.950 . S
C243 N239 1.332 . S
C243 C242 1.382 . S
C243 H245 0.952 . S
C244 N239 1.332 . S
C244 C240 1.382 . S
C244 H246 0.948 . S
H245 C243 0.952 . S
H246 C244 0.948 . S
H247 C236 0.952 . S
H248 C238 0.948 . S
C249 C215 1.395 . S
C249 C219 1.391 . S
C250 C212 1.390 . S
C250 C232 1.399 . S
C251 C222 1.392 . S
C251 C224 1.389 . S
C252 C227 1.395 . S
C252 C229 1.391 . S
H253 C213 0.951 . S
H254 C214 0.950 . S
H255 C220 0.949 . S
H256 C221 0.950 . S
H257 C225 0.951 . S
H258 C226 0.950 . S
H259 C230 0.949 . S
H260 C231 0.950 . S
H261 C235 0.950 . S
H262 C237 0.950 . S
H263 C240 0.950 . S
H264 C242 0.950 . S
C265 C266 1.443 . S
C265 N269 1.376 . S
C265 C303 1.389 . S
C266 C265 1.443 . S
C266 C267 1.340 . S
C266 H306 0.951 . S
C267 C266 1.340 . S
C267 C268 1.439 . S
C267 H307 0.950 . S
C268 C267 1.439 . S
C268 N269 1.374 . S
C268 C302 1.395 . S
N269 C265 1.376 . S
N269 C268 1.374 . S
N269 Co270 2.008 . S
Co270 N269 2.008 . S
Co270 N271 1.995 . S
Co270 N276 2.008 . S
Co270 N281 1.995 . S
Co270 N286 2.282 . S
Co270 N292 2.282 . S
N271 Co270 1.995 . S
N271 C272 1.376 . S
N271 C275 1.383 . S
C272 N271 1.376 . S
C272 C273 1.446 . S
C272 C302 1.391 . S
C273 C272 1.446 . S
C273 C274 1.339 . S
C273 H308 0.949 . S
C274 C273 1.339 . S
C274 C275 1.439 . S
C274 H309 0.950 . S
C275 N271 1.383 . S
C275 C274 1.439 . S
C275 C304 1.392 . S
N276 Co270 2.008 . S
N276 C277 1.376 . S
N276 C280 1.374 . S
C277 N276 1.376 . S
C277 C278 1.443 . S
C277 C304 1.389 . S
C278 C277 1.443 . S
C278 C279 1.340 . S
C278 H310 0.951 . S
C279 C278 1.340 . S
C279 C280 1.439 . S
C279 H311 0.950 . S
C280 N276 1.374 . S
C280 C279 1.439 . S
C280 C305 1.395 . S
N281 Co270 1.995 . S
N281 C282 1.376 . S
N281 C285 1.383 . S
C282 N281 1.376 . S
C282 C283 1.446 . S
C282 C305 1.391 . S
C283 C282 1.446 . S
C283 C284 1.339 . S
C283 H312 0.949 . S
C284 C283 1.339 . S
C284 C285 1.439 . S
C284 H313 0.950 . S
C285 N281 1.383 . S
C285 C284 1.439 . S
C285 C303 1.392 . S
N286 Co270 2.282 . S
N286 C289 1.332 . S
N286 C291 1.332 . S
C287 C288 1.386 . S
C287 C290 1.388 . S
C288 C287 1.386 . S
C288 C289 1.382 . S
C288 H314 0.950 . S
C289 N286 1.332 . S
C289 C288 1.382 . S
C289 H300 0.952 . S
C290 C287 1.388 . S
C290 C291 1.382 . S
C290 H315 0.950 . S
C291 N286 1.332 . S
C291 C290 1.382 . S
C291 H301 0.948 . S
N292 Co270 2.282 . S
N292 C296 1.332 . S
N292 C297 1.332 . S
C293 C294 1.388 . S
C293 C297 1.382 . S
C293 H316 0.950 . S
C294 C293 1.388 . S
C294 C295 1.386 . S
C295 C294 1.386 . S
C295 C296 1.382 . S
C295 H317 0.950 . S
C296 N292 1.332 . S
C296 C295 1.382 . S
C296 H298 0.952 . S
C297 N292 1.332 . S
C297 C293 1.382 . S
C297 H299 0.948 . S
H298 C296 0.952 . S
H299 C297 0.948 . S
H300 C289 0.952 . S
H301 C291 0.948 . S
C302 C268 1.395 . S
C302 C272 1.391 . S
C303 C265 1.389 . S
C303 C285 1.392 . S
C304 C275 1.392 . S
C304 C277 1.389 . S
C305 C280 1.395 . S
C305 C282 1.391 . S
H306 C266 0.951 . S
H307 C267 0.950 . S
H308 C273 0.949 . S
H309 C274 0.950 . S
H310 C278 0.951 . S
H311 C279 0.950 . S
H312 C283 0.949 . S
H313 C284 0.950 . S
H314 C288 0.950 . S
H315 C290 0.950 . S
H316 C293 0.950 . S
H317 C295 0.950 . S
C318 C319 1.443 . S
C318 N322 1.376 . S
C318 C356 1.389 . S
C319 C318 1.443 . S
C319 C320 1.340 . S
C319 H359 0.951 . S
C320 C319 1.340 . S
C320 C321 1.439 . S
C320 H360 0.950 . S
C321 C320 1.439 . S
C321 N322 1.374 . S
C321 C355 1.395 . S
N322 C318 1.376 . S
N322 C321 1.374 . S
N322 Co323 2.008 . S
Co323 N322 2.008 . S
Co323 N324 1.995 . S
Co323 N329 2.008 . S
Co323 N334 1.995 . S
Co323 N339 2.282 . S
Co323 N345 2.282 . S
N324 Co323 1.995 . S
N324 C325 1.376 . S
N324 C328 1.383 . S
C325 N324 1.376 . S
C325 C326 1.446 . S
C325 C355 1.391 . S
C326 C325 1.446 . S
C326 C327 1.339 . S
C326 H361 0.949 . S
C327 C326 1.339 . S
C327 C328 1.439 . S
C327 H362 0.950 . S
C328 N324 1.383 . S
C328 C327 1.439 . S
C328 C357 1.392 . S
N329 Co323 2.008 . S
N329 C330 1.376 . S
N329 C333 1.374 . S
C330 N329 1.376 . S
C330 C331 1.443 . S
C330 C357 1.389 . S
C331 C330 1.443 . S
C331 C332 1.340 . S
C331 H363 0.951 . S
C332 C331 1.340 . S
C332 C333 1.439 . S
C332 H364 0.950 . S
C333 N329 1.374 . S
C333 C332 1.439 . S
C333 C358 1.395 . S
N334 Co323 1.995 . S
N334 C335 1.376 . S
N334 C338 1.383 . S
C335 N334 1.376 . S
C335 C336 1.446 . S
C335 C358 1.391 . S
C336 C335 1.446 . S
C336 C337 1.339 . S
C336 H365 0.949 . S
C337 C336 1.339 . S
C337 C338 1.439 . S
C337 H366 0.950 . S
C338 N334 1.383 . S
C338 C337 1.439 . S
C338 C356 1.392 . S
N339 Co323 2.282 . S
N339 C342 1.332 . S
N339 C344 1.332 . S
C340 C341 1.386 . S
C340 C343 1.388 . S
C341 C340 1.386 . S
C341 C342 1.382 . S
C341 H367 0.950 . S
C342 N339 1.332 . S
C342 C341 1.382 . S
C342 H353 0.952 . S
C343 C340 1.388 . S
C343 C344 1.382 . S
C343 H368 0.950 . S
C344 N339 1.332 . S
C344 C343 1.382 . S
C344 H354 0.948 . S
N345 Co323 2.282 . S
N345 C349 1.332 . S
N345 C350 1.332 . S
C346 C347 1.388 . S
C346 C350 1.382 . S
C346 H369 0.950 . S
C347 C346 1.388 . S
C347 C348 1.386 . S
C348 C347 1.386 . S
C348 C349 1.382 . S
C348 H370 0.950 . S
C349 N345 1.332 . S
C349 C348 1.382 . S
C349 H351 0.952 . S
C350 N345 1.332 . S
C350 C346 1.382 . S
C350 H352 0.948 . S
H351 C349 0.952 . S
H352 C350 0.948 . S
H353 C342 0.952 . S
H354 C344 0.948 . S
C355 C321 1.395 . S
C355 C325 1.391 . S
C356 C318 1.389 . S
C356 C338 1.392 . S
C357 C328 1.392 . S
C357 C330 1.389 . S
C358 C333 1.395 . S
C358 C335 1.391 . S
H359 C319 0.951 . S
H360 C320 0.950 . S
H361 C326 0.949 . S
H362 C327 0.950 . S
H363 C331 0.951 . S
H364 C332 0.950 . S
H365 C336 0.949 . S
H366 C337 0.950 . S
H367 C341 0.950 . S
H368 C343 0.950 . S
H369 C346 0.950 . S
H370 C348 0.950 . S
C371 C372 1.443 . S
C371 N375 1.376 . S
C371 C409 1.389 . S
C372 C371 1.443 . S
C372 C373 1.340 . S
C372 H412 0.951 . S
C373 C372 1.340 . S
C373 C374 1.439 . S
C373 H413 0.950 . S
C374 C373 1.439 . S
C374 N375 1.374 . S
C374 C408 1.395 . S
N375 C371 1.376 . S
N375 C374 1.374 . S
N375 Co376 2.008 . S
Co376 N375 2.008 . S
Co376 N377 1.995 . S
Co376 N382 2.008 . S
Co376 N387 1.995 . S
Co376 N392 2.282 . S
Co376 N398 2.282 . S
N377 Co376 1.995 . S
N377 C378 1.376 . S
N377 C381 1.383 . S
C378 N377 1.376 . S
C378 C379 1.446 . S
C378 C408 1.391 . S
C379 C378 1.446 . S
C379 C380 1.339 . S
C379 H414 0.949 . S
C380 C379 1.339 . S
C380 C381 1.439 . S
C380 H415 0.950 . S
C381 N377 1.383 . S
C381 C380 1.439 . S
C381 C410 1.392 . S
N382 Co376 2.008 . S
N382 C383 1.376 . S
N382 C386 1.374 . S
C383 N382 1.376 . S
C383 C384 1.443 . S
C383 C410 1.389 . S
C384 C383 1.443 . S
C384 C385 1.340 . S
C384 H416 0.951 . S
C385 C384 1.340 . S
C385 C386 1.439 . S
C385 H417 0.950 . S
C386 N382 1.374 . S
C386 C385 1.439 . S
C386 C411 1.395 . S
N387 Co376 1.995 . S
N387 C388 1.376 . S
N387 C391 1.383 . S
C388 N387 1.376 . S
C388 C389 1.446 . S
C388 C411 1.391 . S
C389 C388 1.446 . S
C389 C390 1.339 . S
C389 H418 0.949 . S
C390 C389 1.339 . S
C390 C391 1.439 . S
C390 H419 0.950 . S
C391 N387 1.383 . S
C391 C390 1.439 . S
C391 C409 1.392 . S
N392 Co376 2.282 . S
N392 C395 1.332 . S
N392 C397 1.332 . S
C393 C394 1.386 . S
C393 C396 1.388 . S
C394 C393 1.386 . S
C394 C395 1.382 . S
C394 H420 0.950 . S
C395 N392 1.332 . S
C395 C394 1.382 . S
C395 H406 0.952 . S
C396 C393 1.388 . S
C396 C397 1.382 . S
C396 H421 0.950 . S
C397 N392 1.332 . S
C397 C396 1.382 . S
C397 H407 0.948 . S
N398 Co376 2.282 . S
N398 C402 1.332 . S
N398 C403 1.332 . S
C399 C400 1.388 . S
C399 C403 1.382 . S
C399 H422 0.950 . S
C400 C399 1.388 . S
C400 C401 1.386 . S
C401 C400 1.386 . S
C401 C402 1.382 . S
C401 H423 0.950 . S
C402 N398 1.332 . S
C402 C401 1.382 . S
C402 H404 0.952 . S
C403 N398 1.332 . S
C403 C399 1.382 . S
C403 H405 0.948 . S
H404 C402 0.952 . S
H405 C403 0.948 . S
H406 C395 0.952 . S
H407 C397 0.948 . S
C408 C374 1.395 . S
C408 C378 1.391 . S
C409 C371 1.389 . S
C409 C391 1.392 . S
C410 C381 1.392 . S
C410 C383 1.389 . S
C411 C386 1.395 . S
C411 C388 1.391 . S
H412 C372 0.951 . S
H413 C373 0.950 . S
H414 C379 0.949 . S
H415 C380 0.950 . S
H416 C384 0.951 . S
H417 C385 0.950 . S
H418 C389 0.949 . S
H419 C390 0.950 . S
H420 C394 0.950 . S
H421 C396 0.950 . S
H422 C399 0.950 . S
H423 C401 0.950 . S
C424 C425 1.443 . S
C424 N428 1.376 . S
C424 C462 1.389 . S
C425 C424 1.443 . S
C425 C426 1.340 . S
C425 H465 0.951 . S
C426 C425 1.340 . S
C426 C427 1.439 . S
C426 H466 0.950 . S
C427 C426 1.439 . S
C427 N428 1.374 . S
C427 C461 1.395 . S
N428 C424 1.376 . S
N428 C427 1.374 . S
N428 Co429 2.008 . S
Co429 N428 2.008 . S
Co429 N430 1.995 . S
Co429 N435 2.008 . S
Co429 N440 1.995 . S
Co429 N445 2.282 . S
Co429 N451 2.282 . S
N430 Co429 1.995 . S
N430 C431 1.376 . S
N430 C434 1.383 . S
C431 N430 1.376 . S
C431 C432 1.446 . S
C431 C461 1.391 . S
C432 C431 1.446 . S
C432 C433 1.339 . S
C432 H467 0.949 . S
C433 C432 1.339 . S
C433 C434 1.439 . S
C433 H468 0.950 . S
C434 N430 1.383 . S
C434 C433 1.439 . S
C434 C463 1.392 . S
N435 Co429 2.008 . S
N435 C436 1.376 . S
N435 C439 1.374 . S
C436 N435 1.376 . S
C436 C437 1.443 . S
C436 C463 1.389 . S
C437 C436 1.443 . S
C437 C438 1.340 . S
C437 H469 0.951 . S
C438 C437 1.340 . S
C438 C439 1.439 . S
C438 H470 0.950 . S
C439 N435 1.374 . S
C439 C438 1.439 . S
C439 C464 1.395 . S
N440 Co429 1.995 . S
N440 C441 1.376 . S
N440 C444 1.383 . S
C441 N440 1.376 . S
C441 C442 1.446 . S
C441 C464 1.391 . S
C442 C441 1.446 . S
C442 C443 1.339 . S
C442 H471 0.949 . S
C443 C442 1.339 . S
C443 C444 1.439 . S
C443 H472 0.950 . S
C444 N440 1.383 . S
C444 C443 1.439 . S
C444 C462 1.392 . S
N445 Co429 2.282 . S
N445 C448 1.332 . S
N445 C450 1.332 . S
C446 C447 1.386 . S
C446 C449 1.388 . S
C447 C446 1.386 . S
C447 C448 1.382 . S
C447 H473 0.950 . S
C448 N445 1.332 . S
C448 C447 1.382 . S
C448 H459 0.952 . S
C449 C446 1.388 . S
C449 C450 1.382 . S
C449 H474 0.950 . S
C450 N445 1.332 . S
C450 C449 1.382 . S
C450 H460 0.948 . S
N451 Co429 2.282 . S
N451 C455 1.332 . S
N451 C456 1.332 . S
C452 C453 1.388 . S
C452 C456 1.382 . S
C452 H475 0.950 . S
C453 C452 1.388 . S
C453 C454 1.386 . S
C454 C453 1.386 . S
C454 C455 1.382 . S
C454 H476 0.950 . S
C455 N451 1.332 . S
C455 C454 1.382 . S
C455 H457 0.952 . S
C456 N451 1.332 . S
C456 C452 1.382 . S
C456 H458 0.948 . S
H457 C455 0.952 . S
H458 C456 0.948 . S
H459 C448 0.952 . S
H460 C450 0.948 . S
C461 C427 1.395 . S
C461 C431 1.391 . S
C462 C424 1.389 . S
C462 C444 1.392 . S
C463 C434 1.392 . S
C463 C436 1.389 . S
C464 C439 1.395 . S
C464 C441 1.391 . S
H465 C425 0.951 . S
H466 C426 0.950 . S
H467 C432 0.949 . S
H468 C433 0.950 . S
H469 C437 0.951 . S
H470 C438 0.950 . S
H471 C442 0.949 . S
H472 C443 0.950 . S
H473 C447 0.950 . S
H474 C449 0.950 . S
H475 C452 0.950 . S
H476 C454 0.950 . S
C477 C478 1.443 . S
C477 N481 1.376 1_556 S
C477 C515 1.389 . S
C478 C477 1.443 . S
C478 C479 1.340 . S
C478 H518 0.951 . S
C479 C478 1.340 . S
C479 C480 1.439 1_556 S
C479 H519 0.950 . S
C480 C479 1.439 1_554 S
C480 N481 1.374 . S
C480 C514 1.395 . S
N481 C477 1.376 1_554 S
N481 C480 1.374 . S
N481 Co482 2.008 . S
Co482 N481 2.008 . S
Co482 N483 1.995 . S
Co482 N488 2.008 . S
Co482 N493 1.995 . S
Co482 N498 2.282 . S
Co482 N504 2.282 . S
N483 Co482 1.995 . S
N483 C484 1.376 . S
N483 C487 1.383 . S
C484 N483 1.376 . S
C484 C485 1.446 . S
C484 C514 1.391 . S
C485 C484 1.446 . S
C485 C486 1.339 . S
C485 H520 0.949 . S
C486 C485 1.339 . S
C486 C487 1.439 . S
C486 H521 0.950 . S
C487 N483 1.383 . S
C487 C486 1.439 . S
C487 C516 1.392 . S
N488 Co482 2.008 . S
N488 C489 1.376 . S
N488 C492 1.374 . S
C489 N488 1.376 . S
C489 C490 1.443 . S
C489 C516 1.389 . S
C490 C489 1.443 . S
C490 C491 1.340 . S
C490 H522 0.951 . S
C491 C490 1.340 . S
C491 C492 1.439 . S
C491 H523 0.950 . S
C492 N488 1.374 . S
C492 C491 1.439 . S
C492 C517 1.395 . S
N493 Co482 1.995 . S
N493 C494 1.376 . S
N493 C497 1.383 1_554 S
C494 N493 1.376 . S
C494 C495 1.446 1_554 S
C494 C517 1.391 . S
C495 C494 1.446 1_556 S
C495 C496 1.339 . S
C495 H524 0.949 . S
C496 C495 1.339 . S
C496 C497 1.439 . S
C496 H525 0.950 . S
C497 N493 1.383 1_556 S
C497 C496 1.439 . S
C497 C515 1.392 . S
N498 Co482 2.282 . S
N498 C501 1.332 . S
N498 C503 1.332 . S
C499 C500 1.386 . S
C499 C502 1.388 . S
C500 C499 1.386 . S
C500 C501 1.382 . S
C500 H526 0.950 . S
C501 N498 1.332 . S
C501 C500 1.382 . S
C501 H512 0.952 . S
C502 C499 1.388 . S
C502 C503 1.382 . S
C502 H527 0.950 . S
C503 N498 1.332 . S
C503 C502 1.382 . S
C503 H513 0.948 . S
N504 Co482 2.282 . S
N504 C508 1.332 . S
N504 C509 1.332 . S
C505 C506 1.388 . S
C505 C509 1.382 . S
C505 H528 0.964 . S
C506 C505 1.388 . S
C506 C507 1.386 . S
C507 C506 1.386 . S
C507 C508 1.382 . S
C507 H529 0.950 . S
C508 N504 1.332 . S
C508 C507 1.382 . S
C508 H510 0.952 . S
C509 N504 1.332 . S
C509 C505 1.382 . S
C509 H511 0.948 . S
H510 C508 0.952 . S
H511 C509 0.948 . S
H512 C501 0.952 . S
H513 C503 0.948 . S
C514 C480 1.395 . S
C514 C484 1.391 . S
C515 C477 1.389 . S
C515 C497 1.392 . S
C516 C487 1.392 . S
C516 C489 1.389 . S
C517 C492 1.395 . S
C517 C494 1.391 . S
H518 C478 0.951 . S
H519 C479 0.950 . S
H520 C485 0.949 . S
H521 C486 0.950 . S
H522 C490 0.951 . S
H523 C491 0.950 . S
H524 C495 0.949 . S
H525 C496 0.950 . S
H526 C500 0.950 . S
H527 C502 0.950 . S
H528 C505 0.964 . S
H529 C507 0.950 . S
C530 C531 1.443 . S
C530 N534 1.376 . S
C530 C568 1.389 . S
C531 C530 1.443 . S
C531 C532 1.340 . S
C531 H571 0.951 . S
C532 C531 1.340 . S
C532 C533 1.439 . S
C532 H572 0.950 . S
C533 C532 1.439 . S
C533 N534 1.374 . S
C533 C567 1.395 . S
N534 C530 1.376 . S
N534 C533 1.374 . S
N534 Co535 2.008 . S
Co535 N534 2.008 . S
Co535 N536 1.995 . S
Co535 N541 2.008 . S
Co535 N546 1.995 . S
Co535 N551 2.282 . S
Co535 N557 2.282 . S
N536 Co535 1.995 . S
N536 C537 1.376 . S
N536 C540 1.383 . S
C537 N536 1.376 . S
C537 C538 1.446 . S
C537 C567 1.391 . S
C538 C537 1.446 . S
C538 C539 1.339 . S
C538 H573 0.949 . S
C539 C538 1.339 . S
C539 C540 1.439 . S
C539 H574 0.950 . S
C540 N536 1.383 . S
C540 C539 1.439 . S
C540 C569 1.392 . S
N541 Co535 2.008 . S
N541 C542 1.376 . S
N541 C545 1.374 . S
C542 N541 1.376 . S
C542 C543 1.443 . S
C542 C569 1.389 . S
C543 C542 1.443 . S
C543 C544 1.340 . S
C543 H575 0.951 . S
C544 C543 1.340 . S
C544 C545 1.439 . S
C544 H576 0.950 . S
C545 N541 1.374 . S
C545 C544 1.439 . S
C545 C570 1.395 . S
N546 Co535 1.995 . S
N546 C547 1.376 . S
N546 C550 1.383 . S
C547 N546 1.376 . S
C547 C548 1.446 . S
C547 C570 1.391 . S
C548 C547 1.446 . S
C548 C549 1.339 . S
C548 H577 0.949 . S
C549 C548 1.339 . S
C549 C550 1.439 . S
C549 H578 0.950 . S
C550 N546 1.383 . S
C550 C549 1.439 . S
C550 C568 1.392 . S
N551 Co535 2.282 . S
N551 C554 1.332 . S
N551 C556 1.332 . S
C552 C553 1.386 . S
C552 C555 1.388 . S
C553 C552 1.386 . S
C553 C554 1.382 . S
C553 H579 0.950 . S
C554 N551 1.332 . S
C554 C553 1.382 . S
C554 H565 0.952 . S
C555 C552 1.388 . S
C555 C556 1.382 . S
C555 H580 0.950 . S
C556 N551 1.332 . S
C556 C555 1.382 . S
C556 H566 0.948 . S
N557 Co535 2.282 . S
N557 C561 1.332 . S
N557 C562 1.332 . S
C558 C559 1.388 . S
C558 C562 1.382 . S
C558 H581 0.950 . S
C559 C558 1.388 . S
C559 C560 1.386 . S
C560 C559 1.386 . S
C560 C561 1.382 . S
C560 H582 0.950 . S
C561 N557 1.332 . S
C561 C560 1.382 . S
C561 H563 0.952 . S
C562 N557 1.332 . S
C562 C558 1.382 . S
C562 H564 0.948 . S
H563 C561 0.952 . S
H564 C562 0.948 . S
H565 C554 0.952 . S
H566 C556 0.948 . S
C567 C533 1.395 . S
C567 C537 1.391 . S
C568 C530 1.389 . S
C568 C550 1.392 . S
C569 C540 1.392 . S
C569 C542 1.389 . S
C570 C545 1.395 . S
C570 C547 1.391 . S
H571 C531 0.951 . S
H572 C532 0.950 . S
H573 C538 0.949 . S
H574 C539 0.950 . S
H575 C543 0.951 . S
H576 C544 0.950 . S
H577 C548 0.949 . S
H578 C549 0.950 . S
H579 C553 0.950 . S
H580 C555 0.950 . S
H581 C558 0.950 . S
H582 C560 0.950 . S
C583 C584 1.443 . S
C583 N587 1.376 . S
C583 C621 1.389 . S
C584 C583 1.443 . S
C584 C585 1.340 . S
C584 H624 0.951 . S
C585 C584 1.340 . S
C585 C586 1.439 . S
C585 H625 0.950 . S
C586 C585 1.439 . S
C586 N587 1.374 . S
C586 C620 1.395 . S
N587 C583 1.376 . S
N587 C586 1.374 . S
N587 Co588 2.008 . S
Co588 N587 2.008 . S
Co588 N589 1.995 . S
Co588 N594 2.008 . S
Co588 N599 1.995 . S
Co588 N604 2.282 . S
Co588 N610 2.282 . S
N589 Co588 1.995 . S
N589 C590 1.376 . S
N589 C593 1.383 . S
C590 N589 1.376 . S
C590 C591 1.446 . S
C590 C620 1.391 . S
C591 C590 1.446 . S
C591 C592 1.339 . S
C591 H626 0.949 . S
C592 C591 1.339 . S
C592 C593 1.439 . S
C592 H627 0.950 . S
C593 N589 1.383 . S
C593 C592 1.439 . S
C593 C622 1.392 . S
N594 Co588 2.008 . S
N594 C595 1.376 . S
N594 C598 1.374 . S
C595 N594 1.376 . S
C595 C596 1.443 . S
C595 C622 1.389 . S
C596 C595 1.443 . S
C596 C597 1.340 . S
C596 H628 0.951 . S
C597 C596 1.340 . S
C597 C598 1.439 . S
C597 H629 0.950 . S
C598 N594 1.374 . S
C598 C597 1.439 . S
C598 C623 1.395 . S
N599 Co588 1.995 . S
N599 C600 1.376 . S
N599 C603 1.383 . S
C600 N599 1.376 . S
C600 C601 1.446 . S
C600 C623 1.391 . S
C601 C600 1.446 . S
C601 C602 1.339 . S
C601 H630 0.949 . S
C602 C601 1.339 . S
C602 C603 1.439 . S
C602 H631 0.950 . S
C603 N599 1.383 . S
C603 C602 1.439 . S
C603 C621 1.392 . S
N604 Co588 2.282 . S
N604 C607 1.332 . S
N604 C609 1.332 . S
C605 C606 1.386 . S
C605 C608 1.388 . S
C606 C605 1.386 . S
C606 C607 1.382 . S
C606 H632 0.950 . S
C607 N604 1.332 . S
C607 C606 1.382 . S
C607 H618 0.952 . S
C608 C605 1.388 . S
C608 C609 1.382 . S
C608 H633 0.950 . S
C609 N604 1.332 . S
C609 C608 1.382 . S
C609 H619 0.948 . S
N610 Co588 2.282 . S
N610 C614 1.332 . S
N610 C615 1.332 . S
C611 C612 1.388 . S
C611 C615 1.382 . S
C611 H634 0.950 . S
C612 C611 1.388 . S
C612 C613 1.386 . S
C613 C612 1.386 . S
C613 C614 1.382 . S
C613 H635 0.950 . S
C614 N610 1.332 . S
C614 C613 1.382 . S
C614 H616 0.952 . S
C615 N610 1.332 . S
C615 C611 1.382 . S
C615 H617 0.948 . S
H616 C614 0.952 . S
H617 C615 0.948 . S
H618 C607 0.952 . S
H619 C609 0.948 . S
C620 C586 1.395 . S
C620 C590 1.391 . S
C621 C583 1.389 . S
C621 C603 1.392 . S
C622 C593 1.392 . S
C622 C595 1.389 . S
C623 C598 1.395 . S
C623 C600 1.391 . S
H624 C584 0.951 . S
H625 C585 0.950 . S
H626 C591 0.949 . S
H627 C592 0.950 . S
H628 C596 0.951 . S
H629 C597 0.950 . S
H630 C601 0.949 . S
H631 C602 0.950 . S
H632 C606 0.950 . S
H633 C608 0.950 . S
H634 C611 0.950 . S
H635 C613 0.950 . S
C636 C637 1.443 . S
C636 N640 1.376 . S
C636 C674 1.389 . S
C637 C636 1.443 . S
C637 C638 1.340 . S
C637 H677 0.951 . S
C638 C637 1.340 . S
C638 C639 1.439 . S
C638 H678 0.950 . S
C639 C638 1.439 . S
C639 N640 1.374 . S
C639 C673 1.395 . S
N640 C636 1.376 . S
N640 C639 1.374 . S
N640 Co641 2.008 . S
Co641 N640 2.008 . S
Co641 N642 1.995 . S
Co641 N647 2.008 . S
Co641 N652 1.995 . S
Co641 N657 2.282 . S
Co641 N663 2.282 . S
N642 Co641 1.995 . S
N642 C643 1.376 . S
N642 C646 1.383 . S
C643 N642 1.376 . S
C643 C644 1.446 . S
C643 C673 1.391 . S
C644 C643 1.446 . S
C644 C645 1.339 . S
C644 H679 0.949 . S
C645 C644 1.339 . S
C645 C646 1.439 . S
C645 H680 0.950 . S
C646 N642 1.383 . S
C646 C645 1.439 . S
C646 C675 1.392 . S
N647 Co641 2.008 . S
N647 C648 1.376 . S
N647 C651 1.374 . S
C648 N647 1.376 . S
C648 C649 1.443 . S
C648 C675 1.389 . S
C649 C648 1.443 . S
C649 C650 1.340 . S
C649 H681 0.951 . S
C650 C649 1.340 . S
C650 C651 1.439 . S
C650 H682 0.950 . S
C651 N647 1.374 . S
C651 C650 1.439 . S
C651 C676 1.395 . S
N652 Co641 1.995 . S
N652 C653 1.376 . S
N652 C656 1.383 . S
C653 N652 1.376 . S
C653 C654 1.446 . S
C653 C676 1.391 . S
C654 C653 1.446 . S
C654 C655 1.339 . S
C654 H683 0.949 . S
C655 C654 1.339 . S
C655 C656 1.439 . S
C655 H684 0.950 . S
C656 N652 1.383 . S
C656 C655 1.439 . S
C656 C674 1.392 . S
N657 Co641 2.282 . S
N657 C660 1.332 . S
N657 C662 1.332 . S
C658 C659 1.386 . S
C658 C661 1.388 . S
C659 C658 1.386 . S
C659 C660 1.382 . S
C659 H685 0.950 . S
C660 N657 1.332 . S
C660 C659 1.382 . S
C660 H671 0.952 . S
C661 C658 1.388 . S
C661 C662 1.382 . S
C661 H686 0.950 . S
C662 N657 1.332 . S
C662 C661 1.382 . S
C662 H672 0.948 . S
N663 Co641 2.282 . S
N663 C667 1.332 . S
N663 C668 1.332 . S
C664 C665 1.388 . S
C664 C668 1.382 . S
C664 H687 0.950 . S
C665 C664 1.388 . S
C665 C666 1.386 . S
C666 C665 1.386 . S
C666 C667 1.382 . S
C666 H688 0.950 . S
C667 N663 1.332 . S
C667 C666 1.382 . S
C667 H669 0.952 . S
C668 N663 1.332 . S
C668 C664 1.382 . S
C668 H670 0.948 . S
H669 C667 0.952 . S
H670 C668 0.948 . S
H671 C660 0.952 . S
H672 C662 0.948 . S
C673 C639 1.395 . S
C673 C643 1.391 . S
C674 C636 1.389 . S
C674 C656 1.392 . S
C675 C646 1.392 . S
C675 C648 1.389 . S
C676 C651 1.395 . S
C676 C653 1.391 . S
H677 C637 0.951 . S
H678 C638 0.950 . S
H679 C644 0.949 . S
H680 C645 0.950 . S
H681 C649 0.951 . S
H682 C650 0.950 . S
H683 C654 0.949 . S
H684 C655 0.950 . S
H685 C659 0.950 . S
H686 C661 0.950 . S
H687 C664 0.950 . S
H688 C666 0.950 . S
C689 C690 1.443 . S
C689 N693 1.376 . S
C689 C727 1.389 . S
C690 C689 1.443 . S
C690 C691 1.340 . S
C690 H730 0.951 . S
C691 C690 1.340 . S
C691 C692 1.439 . S
C691 H731 0.950 . S
C692 C691 1.439 . S
C692 N693 1.374 . S
C692 C726 1.395 . S
N693 C689 1.376 . S
N693 C692 1.374 . S
N693 Co694 2.008 . S
Co694 N693 2.008 . S
Co694 N695 1.995 . S
Co694 N700 2.008 . S
Co694 N705 1.995 . S
Co694 N710 2.282 . S
Co694 N716 2.282 . S
N695 Co694 1.995 . S
N695 C696 1.376 . S
N695 C699 1.383 . S
C696 N695 1.376 . S
C696 C697 1.446 . S
C696 C726 1.391 . S
C697 C696 1.446 . S
C697 C698 1.339 . S
C697 H732 0.949 . S
C698 C697 1.339 . S
C698 C699 1.439 . S
C698 H733 0.950 . S
C699 N695 1.383 . S
C699 C698 1.439 . S
C699 C728 1.392 . S
N700 Co694 2.008 . S
N700 C701 1.376 . S
N700 C704 1.374 . S
C701 N700 1.376 . S
C701 C702 1.443 . S
C701 C728 1.389 . S
C702 C701 1.443 . S
C702 C703 1.340 . S
C702 H734 0.951 . S
C703 C702 1.340 . S
C703 C704 1.439 . S
C703 H735 0.950 . S
C704 N700 1.374 . S
C704 C703 1.439 . S
C704 C729 1.395 . S
N705 Co694 1.995 . S
N705 C706 1.376 . S
N705 C709 1.383 . S
C706 N705 1.376 . S
C706 C707 1.446 . S
C706 C729 1.391 . S
C707 C706 1.446 . S
C707 C708 1.339 . S
C707 H736 0.949 . S
C708 C707 1.339 . S
C708 C709 1.439 . S
C708 H737 0.950 . S
C709 N705 1.383 . S
C709 C708 1.439 . S
C709 C727 1.392 . S
N710 Co694 2.282 . S
N710 C713 1.332 . S
N710 C715 1.332 . S
C711 C712 1.386 . S
C711 C714 1.388 . S
C712 C711 1.386 . S
C712 C713 1.382 . S
C712 H738 0.950 . S
C713 N710 1.332 . S
C713 C712 1.382 . S
C713 H724 0.952 . S
C714 C711 1.388 . S
C714 C715 1.382 . S
C714 H739 0.950 . S
C715 N710 1.332 . S
C715 C714 1.382 . S
C715 H725 0.948 . S
N716 Co694 2.282 . S
N716 C720 1.332 . S
N716 C721 1.332 . S
C717 C718 1.388 . S
C717 C721 1.382 . S
C717 H740 0.950 . S
C718 C717 1.388 . S
C718 C719 1.386 . S
C719 C718 1.386 . S
C719 C720 1.382 . S
C719 H741 0.950 . S
C720 N716 1.332 . S
C720 C719 1.382 . S
C720 H722 0.952 . S
C721 N716 1.332 . S
C721 C717 1.382 . S
C721 H723 0.948 . S
H722 C720 0.952 . S
H723 C721 0.948 . S
H724 C713 0.952 . S
H725 C715 0.948 . S
C726 C692 1.395 . S
C726 C696 1.391 . S
C727 C689 1.389 . S
C727 C709 1.392 . S
C728 C699 1.392 . S
C728 C701 1.389 . S
C729 C704 1.395 . S
C729 C706 1.391 . S
H730 C690 0.951 . S
H731 C691 0.950 . S
H732 C697 0.949 . S
H733 C698 0.950 . S
H734 C702 0.951 . S
H735 C703 0.950 . S
H736 C707 0.949 . S
H737 C708 0.950 . S
H738 C712 0.950 . S
H739 C714 0.950 . S
H740 C717 0.950 . S
H741 C719 0.950 . S
C742 C743 1.443 1_554 S
C742 N746 1.376 . S
C742 C780 1.390 . S
C743 C742 1.443 1_556 S
C743 C744 1.340 . S
C743 H783 0.951 . S
C744 C743 1.340 . S
C744 C745 1.439 1_556 S
C744 H784 0.950 . S
C745 C744 1.439 1_554 S
C745 N746 1.374 . S
C745 C779 1.395 . S
N746 C742 1.376 . S
N746 C745 1.374 . S
N746 Co747 2.008 . S
Co747 N746 2.008 . S
Co747 N748 1.995 . S
Co747 N753 2.008 . S
Co747 N758 1.995 . S
Co747 N763 2.282 . S
Co747 N769 2.282 1_554 S
N748 Co747 1.995 . S
N748 C749 1.376 . S
N748 C752 1.383 . S
C749 N748 1.376 . S
C749 C750 1.446 . S
C749 C779 1.391 . S
C750 C749 1.446 . S
C750 C751 1.339 . S
C750 H785 0.949 . S
C751 C750 1.339 . S
C751 C752 1.439 . S
C751 H786 0.950 . S
C752 N748 1.383 . S
C752 C751 1.439 . S
C752 C781 1.392 . S
N753 Co747 2.008 . S
N753 C754 1.376 . S
N753 C757 1.374 . S
C754 N753 1.376 . S
C754 C755 1.443 . S
C754 C781 1.389 . S
C755 C754 1.443 . S
C755 C756 1.340 . S
C755 H787 0.951 . S
C756 C755 1.340 . S
C756 C757 1.439 . S
C756 H788 0.950 . S
C757 N753 1.374 . S
C757 C756 1.439 . S
C757 C782 1.395 . S
N758 Co747 1.995 . S
N758 C759 1.376 . S
N758 C762 1.383 . S
C759 N758 1.376 . S
C759 C760 1.446 . S
C759 C782 1.391 . S
C760 C759 1.446 . S
C760 C761 1.339 . S
C760 H789 0.949 . S
C761 C760 1.339 . S
C761 C762 1.439 . S
C761 H790 0.950 . S
C762 N758 1.383 . S
C762 C761 1.439 . S
C762 C780 1.399 . S
N763 Co747 2.282 . S
N763 C766 1.332 . S
N763 C768 1.332 . S
C764 C765 1.386 . S
C764 C767 1.388 . S
C765 C764 1.386 . S
C765 C766 1.382 . S
C765 H791 0.950 . S
C766 N763 1.332 . S
C766 C765 1.382 . S
C766 H777 0.952 . S
C767 C764 1.388 . S
C767 C768 1.382 . S
C767 H792 0.950 . S
C768 N763 1.332 . S
C768 C767 1.382 . S
C768 H778 0.948 . S
N769 Co747 2.282 1_556 S
N769 C773 1.332 . S
N769 C774 1.332 . S
C770 C771 1.388 . S
C770 C774 1.382 . S
C770 H793 0.950 . S
C771 C770 1.388 . S
C771 C772 1.386 . S
C772 C771 1.386 . S
C772 C773 1.382 . S
C772 H794 0.950 . S
C773 N769 1.332 . S
C773 C772 1.382 . S
C773 H775 0.952 . S
C774 N769 1.332 . S
C774 C770 1.382 . S
C774 H776 0.948 . S
H775 C773 0.952 . S
H776 C774 0.948 . S
H777 C766 0.952 . S
H778 C768 0.948 . S
C779 C745 1.395 . S
C779 C749 1.391 . S
C780 C742 1.390 . S
C780 C762 1.399 . S
C781 C752 1.392 . S
C781 C754 1.389 . S
C782 C757 1.395 . S
C782 C759 1.391 . S
H783 C743 0.951 . S
H784 C744 0.950 . S
H785 C750 0.949 . S
H786 C751 0.950 . S
H787 C755 0.951 . S
H788 C756 0.950 . S
H789 C760 0.949 . S
H790 C761 0.950 . S
H791 C765 0.950 . S
H792 C767 0.950 . S
H793 C770 0.950 . S
H794 C772 0.950 . S
C795 C796 1.443 . S
C795 N799 1.376 . S
C795 C833 1.389 . S
C796 C795 1.443 . S
C796 C797 1.340 . S
C796 H836 0.951 . S
C797 C796 1.340 . S
C797 C798 1.439 . S
C797 H837 0.950 . S
C798 C797 1.439 . S
C798 N799 1.374 . S
C798 C832 1.395 . S
N799 C795 1.376 . S
N799 C798 1.374 . S
N799 Co800 2.008 . S
Co800 N799 2.008 . S
Co800 N801 1.995 . S
Co800 N806 2.008 . S
Co800 N811 1.995 . S
Co800 N816 2.282 . S
Co800 N822 2.282 . S
N801 Co800 1.995 . S
N801 C802 1.376 . S
N801 C805 1.383 . S
C802 N801 1.376 . S
C802 C803 1.446 . S
C802 C832 1.391 . S
C803 C802 1.446 . S
C803 C804 1.339 . S
C803 H838 0.949 . S
C804 C803 1.339 . S
C804 C805 1.439 . S
C804 H839 0.950 . S
C805 N801 1.383 . S
C805 C804 1.439 . S
C805 C834 1.392 . S
N806 Co800 2.008 . S
N806 C807 1.376 . S
N806 C810 1.374 . S
C807 N806 1.376 . S
C807 C808 1.443 . S
C807 C834 1.389 . S
C808 C807 1.443 . S
C808 C809 1.340 . S
C808 H840 0.951 . S
C809 C808 1.340 . S
C809 C810 1.439 . S
C809 H841 0.950 . S
C810 N806 1.374 . S
C810 C809 1.439 . S
C810 C835 1.395 . S
N811 Co800 1.995 . S
N811 C812 1.376 . S
N811 C815 1.383 . S
C812 N811 1.376 . S
C812 C813 1.446 . S
C812 C835 1.391 . S
C813 C812 1.446 . S
C813 C814 1.339 . S
C813 H842 0.949 . S
C814 C813 1.339 . S
C814 C815 1.439 . S
C814 H843 0.950 . S
C815 N811 1.383 . S
C815 C814 1.439 . S
C815 C833 1.392 . S
N816 Co800 2.282 . S
N816 C819 1.332 . S
N816 C821 1.332 . S
C817 C818 1.386 . S
C817 C820 1.388 . S
C818 C817 1.386 . S
C818 C819 1.382 . S
C818 H844 0.950 . S
C819 N816 1.332 . S
C819 C818 1.382 . S
C819 H830 0.952 . S
C820 C817 1.388 . S
C820 C821 1.382 . S
C820 H845 0.950 . S
C821 N816 1.332 . S
C821 C820 1.382 . S
C821 H831 0.948 . S
N822 Co800 2.282 . S
N822 C826 1.332 . S
N822 C827 1.332 . S
C823 C824 1.388 . S
C823 C827 1.382 . S
C823 H846 0.950 . S
C824 C823 1.388 . S
C824 C825 1.386 . S
C825 C824 1.386 . S
C825 C826 1.382 . S
C825 H847 0.950 . S
C826 N822 1.332 . S
C826 C825 1.382 . S
C826 H828 0.952 . S
C827 N822 1.332 . S
C827 C823 1.382 . S
C827 H829 0.948 . S
H828 C826 0.952 . S
H829 C827 0.948 . S
H830 C819 0.952 . S
H831 C821 0.948 . S
C832 C798 1.395 . S
C832 C802 1.391 . S
C833 C795 1.389 . S
C833 C815 1.392 . S
C834 C805 1.392 . S
C834 C807 1.389 . S
C835 C810 1.395 . S
C835 C812 1.391 . S
H836 C796 0.951 . S
H837 C797 0.950 . S
H838 C803 0.949 . S
H839 C804 0.950 . S
H840 C808 0.951 . S
H841 C809 0.950 . S
H842 C813 0.949 . S
H843 C814 0.950 . S
H844 C818 0.950 . S
H845 C820 0.950 . S
H846 C823 0.950 . S
H847 C825 0.950 . S
H848 C866 0.951 . S
H849 C868 0.951 . S
H850 C870 0.950 . S
H851 C871 0.950 . S
H852 C873 0.950 . S
H853 C876 0.950 . S
H854 C877 0.950 . S
H855 C879 0.950 . S
H856 C880 0.950 . S
H857 C881 0.951 . S
H858 C883 0.951 . S
H859 C885 0.950 . S
H860 C886 0.950 . S
H861 C888 0.950 . S
H862 C891 0.950 . S
H863 C892 0.950 . S
H864 C894 0.950 . S
H865 C895 0.950 . S
C866 H848 0.951 . S
C866 C867 1.366 . S
C866 C868 1.388 . S
C867 C866 1.366 . S
C867 C871 1.385 . S
C868 H849 0.951 . S
C868 C866 1.388 . S
C868 C869 1.366 . S
C869 C868 1.366 . S
C869 C870 1.414 . S
C869 C872 1.499 . S
C870 H850 0.950 . S
C870 C869 1.414 . S
C870 C871 1.374 . S
C871 H851 0.950 . S
C871 C867 1.385 . S
C871 C870 1.374 . S
C872 C869 1.499 . S
C872 C873 1.373 . S
C872 C874 1.389 . S
C873 H852 0.950 . S
C873 C872 1.373 . S
C873 C889 1.377 . S
C874 C872 1.389 . S
C874 C875 1.524 . S
C874 C888 1.377 . S
C875 C874 1.524 . S
C875 C876 1.397 . S
C875 C880 1.363 . S
C876 H853 0.950 . S
C876 C875 1.397 . S
C876 C877 1.334 . S
C877 H854 0.950 . S
C877 C876 1.334 . S
C877 C878 1.287 . S
C878 C877 1.287 . S
C878 C879 1.524 . S
C878 H897 0.913 . S
C879 H855 0.950 . S
C879 C878 1.524 . S
C879 C880 1.415 . S
C880 H856 0.950 . S
C880 C875 1.363 . S
C880 C879 1.415 . S
C881 H857 0.951 . S
C881 C882 1.366 . S
C881 C883 1.388 . S
C882 C881 1.366 . S
C882 C886 1.385 . S
C883 H858 0.951 . S
C883 C881 1.388 . S
C883 C884 1.366 . S
C884 C883 1.366 . S
C884 C885 1.414 . S
C884 C887 1.499 . S
C885 H859 0.950 . S
C885 C884 1.414 . S
C885 C886 1.374 . S
C886 H860 0.950 . S
C886 C882 1.385 . S
C886 C885 1.374 . S
C887 C884 1.499 . S
C887 C888 1.373 . S
C887 C889 1.389 . S
C888 H861 0.950 . S
C888 C874 1.377 . S
C888 C887 1.373 . S
C889 C873 1.377 . S
C889 C887 1.389 . S
C889 C890 1.524 . S
C890 C889 1.524 . S
C890 C891 1.397 . S
C890 C895 1.363 . S
C891 H862 0.950 . S
C891 C890 1.397 . S
C891 C892 1.334 . S
C892 H863 0.950 . S
C892 C891 1.334 . S
C892 C893 1.287 . S
C893 C892 1.287 . S
C893 C894 1.524 . S
C893 H896 0.999 . S
C894 H864 0.950 . S
C894 C893 1.524 . S
C894 C895 1.415 . S
C895 H865 0.950 . S
C895 C890 1.363 . S
C895 C894 1.415 . S
H896 C893 0.999 . S
H897 C878 0.913 . S
H898 C916 0.951 . S
H899 C918 0.951 . S
H900 C920 0.950 . S
H901 C921 0.950 . S
H902 C923 0.950 . S
H903 C926 0.950 . S
H904 C927 0.950 . S
H905 C929 0.950 . S
H906 C930 0.950 . S
H907 C931 0.951 . S
H908 C933 0.951 . S
H909 C935 0.950 . S
H910 C936 0.950 . S
H911 C938 0.950 . S
H912 C941 0.950 . S
H913 C942 0.950 . S
H914 C944 0.950 . S
H915 C945 0.950 . S
C916 H898 0.951 . S
C916 C917 1.366 . S
C916 C918 1.388 . S
C917 C916 1.366 . S
C917 C921 1.385 . S
C918 H899 0.951 . S
C918 C916 1.388 . S
C918 C919 1.366 . S
C919 C918 1.366 . S
C919 C920 1.414 . S
C919 C922 1.499 . S
C920 H900 0.950 . S
C920 C919 1.414 . S
C920 C921 1.374 . S
C921 H901 0.950 . S
C921 C917 1.385 . S
C921 C920 1.374 . S
C922 C919 1.499 . S
C922 C923 1.373 . S
C922 C924 1.389 . S
C923 H902 0.950 . S
C923 C922 1.373 . S
C923 C939 1.377 . S
C924 C922 1.389 . S
C924 C925 1.524 . S
C924 C938 1.377 . S
C925 C924 1.524 . S
C925 C926 1.397 . S
C925 C930 1.363 . S
C926 H903 0.950 . S
C926 C925 1.397 . S
C926 C927 1.334 . S
C927 H904 0.950 . S
C927 C926 1.334 . S
C927 C928 1.287 . S
C928 C927 1.287 . S
C928 C929 1.524 . S
C928 H947 0.913 . S
C929 H905 0.950 . S
C929 C928 1.524 . S
C929 C930 1.415 . S
C930 H906 0.950 . S
C930 C925 1.363 . S
C930 C929 1.415 . S
C931 H907 0.951 . S
C931 C932 1.366 . S
C931 C933 1.388 . S
C932 C931 1.366 . S
C932 C936 1.385 . S
C933 H908 0.951 . S
C933 C931 1.388 . S
C933 C934 1.366 . S
C934 C933 1.366 . S
C934 C935 1.414 . S
C934 C937 1.499 . S
C935 H909 0.950 . S
C935 C934 1.414 . S
C935 C936 1.374 . S
C936 H910 0.950 . S
C936 C932 1.385 . S
C936 C935 1.374 . S
C937 C934 1.499 . S
C937 C938 1.373 . S
C937 C939 1.389 . S
C938 H911 0.950 . S
C938 C924 1.377 . S
C938 C937 1.373 . S
C939 C923 1.377 . S
C939 C937 1.389 . S
C939 C940 1.524 . S
C940 C939 1.524 . S
C940 C941 1.397 . S
C940 C945 1.363 . S
C941 H912 0.950 . S
C941 C940 1.397 . S
C941 C942 1.334 . S
C942 H913 0.950 . S
C942 C941 1.334 . S
C942 C943 1.287 . S
C943 C942 1.287 . S
C943 C944 1.524 . S
C943 H946 0.999 . S
C944 H914 0.950 . S
C944 C943 1.524 . S
C944 C945 1.415 . S
C945 H915 0.950 . S
C945 C940 1.363 . S
C945 C944 1.415 . S
H946 C943 0.999 . S
H947 C928 0.913 . S
H948 C966 0.951 . S
H949 C968 0.951 . S
H950 C970 0.950 . S
H951 C971 0.950 . S
H952 C973 0.950 . S
H953 C976 0.950 . S
H954 C977 0.950 . S
H955 C979 0.950 . S
H956 C980 0.950 . S
H957 C981 0.951 1_554 S
H958 C983 0.951 . S
H959 C985 0.950 . S
H960 C986 0.950 . S
H961 C988 0.950 . S
H962 C991 0.950 . S
H963 C992 0.950 . S
H964 C994 0.950 . S
H965 C995 0.950 . S
C966 H948 0.951 . S
C966 C967 1.366 . S
C966 C968 1.388 . S
C967 C966 1.366 . S
C967 C971 1.385 . S
C968 H949 0.951 . S
C968 C966 1.388 . S
C968 C969 1.366 . S
C969 C968 1.366 . S
C969 C970 1.414 . S
C969 C972 1.499 . S
C970 H950 0.950 . S
C970 C969 1.414 . S
C970 C971 1.374 . S
C971 H951 0.950 . S
C971 C967 1.385 . S
C971 C970 1.374 . S
C972 C969 1.499 . S
C972 C973 1.373 . S
C972 C974 1.389 . S
C973 H952 0.950 . S
C973 C972 1.373 . S
C973 C989 1.377 . S
C974 C972 1.389 . S
C974 C975 1.524 . S
C974 C988 1.377 . S
C975 C974 1.524 . S
C975 C976 1.397 . S
C975 C980 1.363 . S
C976 H953 0.950 . S
C976 C975 1.397 . S
C976 C977 1.334 . S
C977 H954 0.950 . S
C977 C976 1.334 . S
C977 C978 1.287 . S
C978 C977 1.287 . S
C978 C979 1.524 . S
C978 H997 0.913 . S
C979 H955 0.950 . S
C979 C978 1.524 . S
C979 C980 1.415 . S
C980 H956 0.950 . S
C980 C975 1.363 . S
C980 C979 1.415 . S
C981 H957 0.951 1_556 S
C981 C982 1.366 . S
C981 C983 1.388 . S
C982 C981 1.366 . S
C982 C986 1.385 . S
C983 H958 0.951 . S
C983 C981 1.388 . S
C983 C984 1.366 . S
C984 C983 1.366 . S
C984 C985 1.414 . S
C984 C987 1.499 . S
C985 H959 0.950 . S
C985 C984 1.414 . S
C985 C986 1.374 . S
C986 H960 0.950 . S
C986 C982 1.385 . S
C986 C985 1.374 . S
C987 C984 1.499 . S
C987 C988 1.373 . S
C987 C989 1.389 . S
C988 H961 0.950 . S
C988 C974 1.377 . S
C988 C987 1.373 . S
C989 C973 1.377 . S
C989 C987 1.389 . S
C989 C990 1.524 . S
C990 C989 1.524 . S
C990 C991 1.397 . S
C990 C995 1.363 . S
C991 H962 0.950 . S
C991 C990 1.397 . S
C991 C992 1.334 . S
C992 H963 0.950 . S
C992 C991 1.334 . S
C992 C993 1.285 1_556 S
C993 C992 1.285 1_554 S
C993 C994 1.524 . S
C993 H996 1.001 . S
C994 H964 0.950 . S
C994 C993 1.524 . S
C994 C995 1.415 1_554 S
C995 H965 0.950 . S
C995 C990 1.363 . S
C995 C994 1.415 1_556 S
H996 C993 1.001 . S
H997 C978 0.913 . S
H998 C1016 0.951 . S
H999 C1018 0.951 . S
H1000 C1020 0.950 . S
H1001 C1021 0.950 . S
H1002 C1023 0.950 . S
H1003 C1026 0.950 . S
H1004 C1027 0.950 . S
H1005 C1029 0.950 . S
H1006 C1030 0.950 . S
H1007 C1031 0.951 . S
H1008 C1033 0.951 . S
H1009 C1035 0.950 . S
H1010 C1036 0.950 . S
H1011 C1038 0.950 . S
H1012 C1041 0.950 . S
H1013 C1042 0.950 . S
H1014 C1044 0.950 . S
H1015 C1045 0.950 . S
C1016 H998 0.951 . S
C1016 C1017 1.366 . S
C1016 C1018 1.388 . S
C1017 C1016 1.366 . S
C1017 C1021 1.385 . S
C1018 H999 0.951 . S
C1018 C1016 1.388 . S
C1018 C1019 1.366 . S
C1019 C1018 1.366 . S
C1019 C1020 1.414 . S
C1019 C1022 1.499 . S
C1020 H1000 0.950 . S
C1020 C1019 1.414 . S
C1020 C1021 1.374 . S
C1021 H1001 0.950 . S
C1021 C1017 1.385 . S
C1021 C1020 1.374 . S
C1022 C1019 1.499 . S
C1022 C1023 1.373 . S
C1022 C1024 1.389 . S
C1023 H1002 0.950 . S
C1023 C1022 1.373 . S
C1023 C1039 1.377 . S
C1024 C1022 1.389 . S
C1024 C1025 1.524 . S
C1024 C1038 1.377 . S
C1025 C1024 1.524 . S
C1025 C1026 1.397 . S
C1025 C1030 1.363 . S
C1026 H1003 0.950 . S
C1026 C1025 1.397 . S
C1026 C1027 1.334 . S
C1027 H1004 0.950 . S
C1027 C1026 1.334 . S
C1027 C1028 1.287 . S
C1028 C1027 1.287 . S
C1028 C1029 1.524 . S
C1028 H1047 0.913 . S
C1029 H1005 0.950 . S
C1029 C1028 1.524 . S
C1029 C1030 1.415 . S
C1030 H1006 0.950 . S
C1030 C1025 1.363 . S
C1030 C1029 1.415 . S
C1031 H1007 0.951 . S
C1031 C1032 1.366 . S
C1031 C1033 1.388 . S
C1032 C1031 1.366 . S
C1032 C1036 1.385 . S
C1033 H1008 0.951 . S
C1033 C1031 1.388 . S
C1033 C1034 1.366 . S
C1034 C1033 1.366 . S
C1034 C1035 1.414 . S
C1034 C1037 1.499 . S
C1035 H1009 0.950 . S
C1035 C1034 1.414 . S
C1035 C1036 1.374 . S
C1036 H1010 0.950 . S
C1036 C1032 1.385 . S
C1036 C1035 1.374 . S
C1037 C1034 1.499 . S
C1037 C1038 1.373 . S
C1037 C1039 1.389 . S
C1038 H1011 0.950 . S
C1038 C1024 1.377 . S
C1038 C1037 1.373 . S
C1039 C1023 1.377 . S
C1039 C1037 1.389 . S
C1039 C1040 1.524 . S
C1040 C1039 1.524 . S
C1040 C1041 1.397 . S
C1040 C1045 1.363 . S
C1041 H1012 0.950 . S
C1041 C1040 1.397 . S
C1041 C1042 1.334 . S
C1042 H1013 0.950 . S
C1042 C1041 1.334 . S
C1042 C1043 1.287 . S
C1043 C1042 1.287 . S
C1043 C1044 1.524 . S
C1043 H1046 0.999 . S
C1044 H1014 0.950 . S
C1044 C1043 1.524 . S
C1044 C1045 1.415 . S
C1045 H1015 0.950 . S
C1045 C1040 1.363 . S
C1045 C1044 1.415 . S
H1046 C1043 0.999 . S
H1047 C1028 0.913 . S
H1048 C1066 0.951 . S
H1049 C1068 0.951 . S
H1050 C1070 0.950 . S
H1051 C1071 0.950 . S
H1052 C1073 0.950 . S
H1053 C1076 0.950 . S
H1054 C1077 0.950 . S
H1055 C1079 0.950 . S
H1056 C1080 0.950 . S
H1057 C1081 0.951 1_554 S
H1058 C1083 0.951 . S
H1059 C1085 0.950 . S
H1060 C1086 0.950 . S
H1061 C1088 0.950 . S
H1062 C1091 0.950 . S
H1063 C1092 0.950 . S
H1064 C1094 0.950 . S
H1065 C1095 0.950 . S
C1066 H1048 0.951 . S
C1066 C1067 1.366 . S
C1066 C1068 1.388 . S
C1067 C1066 1.366 . S
C1067 C1071 1.385 . S
C1068 H1049 0.951 . S
C1068 C1066 1.388 . S
C1068 C1069 1.366 . S
C1069 C1068 1.366 . S
C1069 C1070 1.414 . S
C1069 C1072 1.499 . S
C1070 H1050 0.950 . S
C1070 C1069 1.414 . S
C1070 C1071 1.374 . S
C1071 H1051 0.950 . S
C1071 C1067 1.385 . S
C1071 C1070 1.374 . S
C1072 C1069 1.499 . S
C1072 C1073 1.373 . S
C1072 C1074 1.389 . S
C1073 H1052 0.950 . S
C1073 C1072 1.373 . S
C1073 C1089 1.377 . S
C1074 C1072 1.389 . S
C1074 C1075 1.524 . S
C1074 C1088 1.377 . S
C1075 C1074 1.524 . S
C1075 C1076 1.397 . S
C1075 C1080 1.363 . S
C1076 H1053 0.950 . S
C1076 C1075 1.397 . S
C1076 C1077 1.334 . S
C1077 H1054 0.950 . S
C1077 C1076 1.334 . S
C1077 C1078 1.287 . S
C1078 C1077 1.287 . S
C1078 C1079 1.524 . S
C1078 H1097 0.913 . S
C1079 H1055 0.950 . S
C1079 C1078 1.524 . S
C1079 C1080 1.415 . S
C1080 H1056 0.950 . S
C1080 C1075 1.363 . S
C1080 C1079 1.415 . S
C1081 H1057 0.951 1_556 S
C1081 C1082 1.366 . S
C1081 C1083 1.388 . S
C1082 C1081 1.366 . S
C1082 C1086 1.385 . S
C1083 H1058 0.951 . S
C1083 C1081 1.388 . S
C1083 C1084 1.366 . S
C1084 C1083 1.366 . S
C1084 C1085 1.414 . S
C1084 C1087 1.499 . S
C1085 H1059 0.950 . S
C1085 C1084 1.414 . S
C1085 C1086 1.374 . S
C1086 H1060 0.950 . S
C1086 C1082 1.385 . S
C1086 C1085 1.374 . S
C1087 C1084 1.499 . S
C1087 C1088 1.373 . S
C1087 C1089 1.389 . S
C1088 H1061 0.950 . S
C1088 C1074 1.377 . S
C1088 C1087 1.373 . S
C1089 C1073 1.377 . S
C1089 C1087 1.389 . S
C1089 C1090 1.524 . S
C1090 C1089 1.524 . S
C1090 C1091 1.397 . S
C1090 C1095 1.363 . S
C1091 H1062 0.950 . S
C1091 C1090 1.397 . S
C1091 C1092 1.334 . S
C1092 H1063 0.950 . S
C1092 C1091 1.334 . S
C1092 C1093 1.287 . S
C1093 C1092 1.287 . S
C1093 C1094 1.524 1_556 S
C1093 H1096 0.999 1_556 S
C1094 H1064 0.950 . S
C1094 C1093 1.524 1_554 S
C1094 C1095 1.415 1_554 S
C1095 H1065 0.950 . S
C1095 C1090 1.363 . S
C1095 C1094 1.415 1_556 S
H1096 C1093 0.999 1_554 S
H1097 C1078 0.913 . S
H1098 C1116 0.951 . S
H1099 C1118 0.951 . S
H1100 C1120 0.950 . S
H1101 C1121 0.950 . S
H1102 C1123 0.950 . S
H1103 C1126 0.950 . S
H1104 C1127 0.950 . S
H1105 C1129 0.950 . S
H1106 C1130 0.950 . S
H1107 C1131 0.951 . S
H1108 C1133 0.951 . S
H1109 C1135 0.950 . S
H1110 C1136 0.950 . S
H1111 C1138 0.950 . S
H1112 C1141 0.950 . S
H1113 C1142 0.950 . S
H1114 C1144 0.950 . S
H1115 C1145 0.950 . S
C1116 H1098 0.951 . S
C1116 C1117 1.366 . S
C1116 C1118 1.388 . S
C1117 C1116 1.366 . S
C1117 C1121 1.385 . S
C1118 H1099 0.951 . S
C1118 C1116 1.388 . S
C1118 C1119 1.366 . S
C1119 C1118 1.366 . S
C1119 C1120 1.414 . S
C1119 C1122 1.499 . S
C1120 H1100 0.950 . S
C1120 C1119 1.414 . S
C1120 C1121 1.374 . S
C1121 H1101 0.950 . S
C1121 C1117 1.385 . S
C1121 C1120 1.374 . S
C1122 C1119 1.499 . S
C1122 C1123 1.373 . S
C1122 C1124 1.389 . S
C1123 H1102 0.950 . S
C1123 C1122 1.373 . S
C1123 C1139 1.377 . S
C1124 C1122 1.389 . S
C1124 C1125 1.524 . S
C1124 C1138 1.377 . S
C1125 C1124 1.524 . S
C1125 C1126 1.397 . S
C1125 C1130 1.363 . S
C1126 H1103 0.950 . S
C1126 C1125 1.397 . S
C1126 C1127 1.334 . S
C1127 H1104 0.950 . S
C1127 C1126 1.334 . S
C1127 C1128 1.287 . S
C1128 C1127 1.287 . S
C1128 C1129 1.524 . S
C1128 H1147 0.913 . S
C1129 H1105 0.950 . S
C1129 C1128 1.524 . S
C1129 C1130 1.415 . S
C1130 H1106 0.950 . S
C1130 C1125 1.363 . S
C1130 C1129 1.415 . S
C1131 H1107 0.951 . S
C1131 C1132 1.366 . S
C1131 C1133 1.388 . S
C1132 C1131 1.366 . S
C1132 C1136 1.385 . S
C1133 H1108 0.951 . S
C1133 C1131 1.388 . S
C1133 C1134 1.366 . S
C1134 C1133 1.366 . S
C1134 C1135 1.414 . S
C1134 C1137 1.499 . S
C1135 H1109 0.950 . S
C1135 C1134 1.414 . S
C1135 C1136 1.374 . S
C1136 H1110 0.950 . S
C1136 C1132 1.385 . S
C1136 C1135 1.374 . S
C1137 C1134 1.499 . S
C1137 C1138 1.373 . S
C1137 C1139 1.389 . S
C1138 H1111 0.950 . S
C1138 C1124 1.377 . S
C1138 C1137 1.373 . S
C1139 C1123 1.377 . S
C1139 C1137 1.389 . S
C1139 C1140 1.524 . S
C1140 C1139 1.524 . S
C1140 C1141 1.397 . S
C1140 C1145 1.363 . S
C1141 H1112 0.950 . S
C1141 C1140 1.397 . S
C1141 C1142 1.334 . S
C1142 H1113 0.950 . S
C1142 C1141 1.334 . S
C1142 C1143 1.287 . S
C1143 C1142 1.287 . S
C1143 C1144 1.524 . S
C1143 H1146 0.999 . S
C1144 H1114 0.950 . S
C1144 C1143 1.524 . S
C1144 C1145 1.415 . S
C1145 H1115 0.950 . S
C1145 C1140 1.363 . S
C1145 C1144 1.415 . S
H1146 C1143 0.999 . S
H1147 C1128 0.913 . S
H1148 C1166 0.951 . S
H1149 C1168 0.951 . S
H1150 C1170 0.950 . S
H1151 C1171 0.950 . S
H1152 C1173 0.950 . S
H1153 C1176 0.950 . S
H1154 C1177 0.950 . S
H1155 C1179 0.950 . S
H1156 C1180 0.950 . S
H1157 C1181 0.951 . S
H1158 C1183 0.951 . S
H1159 C1185 0.950 . S
H1160 C1186 0.950 . S
H1161 C1188 0.950 . S
H1162 C1191 0.950 . S
H1163 C1192 0.950 . S
H1164 C1194 0.950 . S
H1165 C1195 0.950 . S
C1166 H1148 0.951 . S
C1166 C1167 1.366 . S
C1166 C1168 1.388 . S
C1167 C1166 1.366 . S
C1167 C1171 1.385 . S
C1168 H1149 0.951 . S
C1168 C1166 1.388 . S
C1168 C1169 1.366 . S
C1169 C1168 1.366 . S
C1169 C1170 1.414 . S
C1169 C1172 1.499 . S
C1170 H1150 0.950 . S
C1170 C1169 1.414 . S
C1170 C1171 1.374 . S
C1171 H1151 0.950 . S
C1171 C1167 1.385 . S
C1171 C1170 1.374 . S
C1172 C1169 1.499 . S
C1172 C1173 1.373 . S
C1172 C1174 1.389 . S
C1173 H1152 0.950 . S
C1173 C1172 1.373 . S
C1173 C1189 1.377 . S
C1174 C1172 1.389 . S
C1174 C1175 1.524 . S
C1174 C1188 1.377 . S
C1175 C1174 1.524 . S
C1175 C1176 1.397 . S
C1175 C1180 1.363 . S
C1176 H1153 0.950 . S
C1176 C1175 1.397 . S
C1176 C1177 1.334 . S
C1177 H1154 0.950 . S
C1177 C1176 1.334 . S
C1177 C1178 1.287 . S
C1178 C1177 1.287 . S
C1178 C1179 1.524 . S
C1178 H1197 0.913 . S
C1179 H1155 0.950 . S
C1179 C1178 1.524 . S
C1179 C1180 1.415 . S
C1180 H1156 0.950 . S
C1180 C1175 1.363 . S
C1180 C1179 1.415 . S
C1181 H1157 0.951 . S
C1181 C1182 1.366 . S
C1181 C1183 1.388 . S
C1182 C1181 1.366 . S
C1182 C1186 1.385 . S
C1183 H1158 0.951 . S
C1183 C1181 1.388 . S
C1183 C1184 1.366 . S
C1184 C1183 1.366 . S
C1184 C1185 1.414 . S
C1184 C1187 1.499 . S
C1185 H1159 0.950 . S
C1185 C1184 1.414 . S
C1185 C1186 1.374 . S
C1186 H1160 0.950 . S
C1186 C1182 1.385 . S
C1186 C1185 1.374 . S
C1187 C1184 1.499 . S
C1187 C1188 1.373 . S
C1187 C1189 1.389 . S
C1188 H1161 0.950 . S
C1188 C1174 1.377 . S
C1188 C1187 1.373 . S
C1189 C1173 1.377 . S
C1189 C1187 1.389 . S
C1189 C1190 1.524 . S
C1190 C1189 1.524 . S
C1190 C1191 1.397 . S
C1190 C1195 1.363 . S
C1191 H1162 0.950 . S
C1191 C1190 1.397 . S
C1191 C1192 1.334 . S
C1192 H1163 0.950 . S
C1192 C1191 1.334 . S
C1192 C1193 1.287 . S
C1193 C1192 1.287 . S
C1193 C1194 1.524 . S
C1193 H1196 0.999 . S
C1194 H1164 0.950 . S
C1194 C1193 1.524 . S
C1194 C1195 1.415 . S
C1195 H1165 0.950 . S
C1195 C1190 1.363 . S
C1195 C1194 1.415 . S
H1196 C1193 0.999 . S
H1197 C1178 0.913 . S
H1198 C1216 0.951 . S
H1199 C1218 0.951 . S
H1200 C1220 0.950 . S
H1201 C1221 0.950 . S
H1202 C1223 0.950 . S
H1203 C1226 0.950 . S
H1204 C1227 0.950 . S
H1205 C1229 0.950 . S
H1206 C1230 0.950 . S
H1207 C1231 0.951 . S
H1208 C1233 0.951 . S
H1209 C1235 0.950 . S
H1210 C1236 0.950 . S
H1211 C1238 0.950 . S
H1212 C1241 0.950 . S
H1213 C1242 0.950 . S
H1214 C1244 0.950 . S
H1215 C1245 0.950 . S
C1216 H1198 0.951 . S
C1216 C1217 1.366 . S
C1216 C1218 1.388 . S
C1217 C1216 1.366 . S
C1217 C1221 1.385 . S
C1218 H1199 0.951 . S
C1218 C1216 1.388 . S
C1218 C1219 1.366 . S
C1219 C1218 1.366 . S
C1219 C1220 1.414 . S
C1219 C1222 1.499 . S
C1220 H1200 0.950 . S
C1220 C1219 1.414 . S
C1220 C1221 1.374 . S
C1221 H1201 0.950 . S
C1221 C1217 1.385 . S
C1221 C1220 1.374 . S
C1222 C1219 1.499 . S
C1222 C1223 1.373 . S
C1222 C1224 1.389 . S
C1223 H1202 0.950 . S
C1223 C1222 1.373 . S
C1223 C1239 1.377 . S
C1224 C1222 1.389 . S
C1224 C1225 1.524 . S
C1224 C1238 1.377 . S
C1225 C1224 1.524 . S
C1225 C1226 1.397 . S
C1225 C1230 1.363 . S
C1226 H1203 0.950 . S
C1226 C1225 1.397 . S
C1226 C1227 1.334 . S
C1227 H1204 0.950 . S
C1227 C1226 1.334 . S
C1227 C1228 1.287 . S
C1228 C1227 1.287 . S
C1228 C1229 1.524 . S
C1228 H1247 0.913 . S
C1229 H1205 0.950 . S
C1229 C1228 1.524 . S
C1229 C1230 1.415 . S
C1230 H1206 0.950 . S
C1230 C1225 1.363 . S
C1230 C1229 1.415 . S
C1231 H1207 0.951 . S
C1231 C1232 1.366 . S
C1231 C1233 1.388 . S
C1232 C1231 1.366 . S
C1232 C1236 1.385 . S
C1233 H1208 0.951 . S
C1233 C1231 1.388 . S
C1233 C1234 1.366 . S
C1234 C1233 1.366 . S
C1234 C1235 1.414 . S
C1234 C1237 1.499 . S
C1235 H1209 0.950 . S
C1235 C1234 1.414 . S
C1235 C1236 1.374 . S
C1236 H1210 0.950 . S
C1236 C1232 1.385 . S
C1236 C1235 1.374 . S
C1237 C1234 1.499 . S
C1237 C1238 1.373 . S
C1237 C1239 1.389 . S
C1238 H1211 0.950 . S
C1238 C1224 1.377 . S
C1238 C1237 1.373 . S
C1239 C1223 1.377 . S
C1239 C1237 1.389 . S
C1239 C1240 1.524 . S
C1240 C1239 1.524 . S
C1240 C1241 1.397 . S
C1240 C1245 1.363 . S
C1241 H1212 0.950 . S
C1241 C1240 1.397 . S
C1241 C1242 1.334 . S
C1242 H1213 0.950 . S
C1242 C1241 1.334 . S
C1242 C1243 1.287 . S
C1243 C1242 1.287 . S
C1243 C1244 1.524 . S
C1243 H1246 0.999 . S
C1244 H1214 0.950 . S
C1244 C1243 1.524 . S
C1244 C1245 1.415 . S
C1245 H1215 0.950 . S
C1245 C1240 1.363 . S
C1245 C1244 1.415 . S
H1246 C1243 0.999 . S
H1247 C1228 0.913 . S
H1248 C1266 0.951 . S
H1249 C1268 0.951 . S
H1250 C1270 0.950 . S
H1251 C1271 0.950 . S
H1252 C1273 0.950 . S
H1253 C1276 0.950 . S
H1254 C1277 0.950 . S
H1255 C1279 0.950 . S
H1256 C1280 0.950 . S
H1257 C1281 0.951 . S
H1258 C1283 0.951 . S
H1259 C1285 0.950 . S
H1260 C1286 0.950 . S
H1261 C1288 0.950 . S
H1262 C1291 0.950 . S
H1263 C1292 0.950 . S
H1264 C1294 0.950 . S
H1265 C1295 0.950 . S
C1266 H1248 0.951 . S
C1266 C1267 1.366 . S
C1266 C1268 1.388 . S
C1267 C1266 1.366 . S
C1267 C1271 1.385 . S
C1268 H1249 0.951 . S
C1268 C1266 1.388 . S
C1268 C1269 1.366 . S
C1269 C1268 1.366 . S
C1269 C1270 1.414 . S
C1269 C1272 1.499 . S
C1270 H1250 0.950 . S
C1270 C1269 1.414 . S
C1270 C1271 1.374 . S
C1271 H1251 0.950 . S
C1271 C1267 1.385 . S
C1271 C1270 1.374 . S
C1272 C1269 1.499 . S
C1272 C1273 1.373 1_455 S
C1272 C1274 1.444 . S
C1273 H1252 0.950 . S
C1273 C1272 1.373 1_655 S
C1273 C1289 1.319 1_545 S
C1274 C1272 1.444 . S
C1274 C1275 1.528 . S
C1274 C1288 1.319 1_545 S
C1275 C1274 1.528 . S
C1275 C1276 1.397 . S
C1275 C1280 1.363 1_545 S
C1276 H1253 0.950 . S
C1276 C1275 1.397 . S
C1276 C1277 1.334 . S
C1277 H1254 0.950 . S
C1277 C1276 1.334 . S
C1277 C1278 1.287 . S
C1278 C1277 1.287 . S
C1278 C1279 1.524 1_545 S
C1278 H1297 0.913 . S
C1279 H1255 0.950 . S
C1279 C1278 1.524 1_565 S
C1279 C1280 1.415 . S
C1280 H1256 0.950 . S
C1280 C1275 1.363 1_565 S
C1280 C1279 1.415 . S
C1281 H1257 0.951 . S
C1281 C1282 1.366 . S
C1281 C1283 1.388 . S
C1282 C1281 1.366 . S
C1282 C1286 1.385 . S
C1283 H1258 0.951 . S
C1283 C1281 1.388 . S
C1283 C1284 1.366 . S
C1284 C1283 1.366 . S
C1284 C1285 1.414 . S
C1284 C1287 1.499 . S
C1285 H1259 0.950 . S
C1285 C1284 1.414 . S
C1285 C1286 1.374 . S
C1286 H1260 0.950 . S
C1286 C1282 1.385 . S
C1286 C1285 1.374 . S
C1287 C1284 1.499 . S
C1287 C1288 1.373 1_655 S
C1287 C1289 1.444 . S
C1288 H1261 0.950 . S
C1288 C1274 1.319 1_565 S
C1288 C1287 1.373 1_455 S
C1289 C1273 1.319 1_565 S
C1289 C1287 1.444 . S
C1289 C1290 1.528 . S
C1290 C1289 1.528 . S
C1290 C1291 1.397 . S
C1290 C1295 1.363 1_565 S
C1291 H1262 0.950 . S
C1291 C1290 1.397 . S
C1291 C1292 1.334 . S
C1292 H1263 0.950 . S
C1292 C1291 1.334 . S
C1292 C1293 1.287 . S
C1293 C1292 1.287 . S
C1293 C1294 1.524 1_565 S
C1293 H1296 0.999 . S
C1294 H1264 0.950 . S
C1294 C1293 1.524 1_545 S
C1294 C1295 1.415 . S
C1295 H1265 0.950 . S
C1295 C1290 1.363 1_545 S
C1295 C1294 1.415 . S
H1296 C1293 0.999 . S
H1297 C1278 0.913 . S
H1298 C1316 0.951 . S
H1299 C1318 0.951 . S
H1300 C1320 0.950 . S
H1301 C1321 0.950 . S
H1302 C1323 0.950 . S
H1303 C1326 0.950 . S
H1304 C1327 0.950 . S
H1305 C1329 0.950 . S
H1306 C1330 0.950 . S
H1307 C1331 0.951 . S
H1308 C1333 0.951 . S
H1309 C1335 0.950 . S
H1310 C1336 0.950 . S
H1311 C1338 0.950 . S
H1312 C1341 0.950 . S
H1313 C1342 0.950 . S
H1314 C1344 0.950 . S
H1315 C1345 0.950 . S
C1316 H1298 0.951 . S
C1316 C1317 1.366 . S
C1316 C1318 1.388 . S
C1317 C1316 1.366 . S
C1317 C1321 1.385 . S
C1318 H1299 0.951 . S
C1318 C1316 1.388 . S
C1318 C1319 1.366 . S
C1319 C1318 1.366 . S
C1319 C1320 1.414 . S
C1319 C1322 1.499 . S
C1320 H1300 0.950 . S
C1320 C1319 1.414 . S
C1320 C1321 1.374 . S
C1321 H1301 0.950 . S
C1321 C1317 1.385 . S
C1321 C1320 1.374 . S
C1322 C1319 1.499 . S
C1322 C1323 1.373 . S
C1322 C1324 1.389 . S
C1323 H1302 0.950 . S
C1323 C1322 1.373 . S
C1323 C1339 1.377 1_655 S
C1324 C1322 1.389 . S
C1324 C1325 1.524 . S
C1324 C1338 1.377 1_655 S
C1325 C1324 1.524 . S
C1325 C1326 1.397 . S
C1325 C1330 1.363 . S
C1326 H1303 0.950 . S
C1326 C1325 1.397 . S
C1326 C1327 1.334 . S
C1327 H1304 0.950 . S
C1327 C1326 1.334 . S
C1327 C1328 1.287 . S
C1328 C1327 1.287 . S
C1328 C1329 1.524 . S
C1328 H1347 0.913 . S
C1329 H1305 0.950 . S
C1329 C1328 1.524 . S
C1329 C1330 1.415 . S
C1330 H1306 0.950 . S
C1330 C1325 1.363 . S
C1330 C1329 1.415 . S
C1331 H1307 0.951 . S
C1331 C1332 1.366 . S
C1331 C1333 1.388 . S
C1332 C1331 1.366 . S
C1332 C1336 1.385 . S
C1333 H1308 0.951 . S
C1333 C1331 1.388 . S
C1333 C1334 1.366 . S
C1334 C1333 1.366 . S
C1334 C1335 1.414 . S
C1334 C1337 1.499 . S
C1335 H1309 0.950 . S
C1335 C1334 1.414 . S
C1335 C1336 1.374 . S
C1336 H1310 0.950 . S
C1336 C1332 1.385 . S
C1336 C1335 1.374 . S
C1337 C1334 1.499 . S
C1337 C1338 1.373 . S
C1337 C1339 1.389 . S
C1338 H1311 0.950 . S
C1338 C1324 1.377 1_455 S
C1338 C1337 1.373 . S
C1339 C1323 1.377 1_455 S
C1339 C1337 1.389 . S
C1339 C1340 1.524 . S
C1340 C1339 1.524 . S
C1340 C1341 1.397 . S
C1340 C1345 1.363 . S
C1341 H1312 0.950 . S
C1341 C1340 1.397 . S
C1341 C1342 1.334 . S
C1342 H1313 0.950 . S
C1342 C1341 1.334 . S
C1342 C1343 1.287 . S
C1343 C1342 1.287 . S
C1343 C1344 1.524 . S
C1343 H1346 0.999 . S
C1344 H1314 0.950 . S
C1344 C1343 1.524 . S
C1344 C1345 1.415 . S
C1345 H1315 0.950 . S
C1345 C1340 1.363 . S
C1345 C1344 1.415 . S
H1346 C1343 0.999 . S
H1347 C1328 0.913 . S
H1348 C1366 0.951 . S
H1349 C1368 0.951 . S
H1350 C1370 0.950 . S
H1351 C1371 0.950 . S
H1352 C1373 0.950 . S
H1353 C1376 0.950 . S
H1354 C1377 0.950 . S
H1355 C1379 0.950 . S
H1356 C1380 0.950 . S
H1357 C1381 0.951 . S
H1358 C1383 0.951 . S
H1359 C1385 0.950 . S
H1360 C1386 0.950 . S
H1361 C1388 0.950 . S
H1362 C1391 0.950 . S
H1363 C1392 0.950 . S
H1364 C1394 0.950 . S
H1365 C1395 0.950 . S
C1366 H1348 0.951 . S
C1366 C1367 1.366 . S
C1366 C1368 1.388 . S
C1367 C1366 1.366 . S
C1367 C1371 1.385 . S
C1368 H1349 0.951 . S
C1368 C1366 1.388 . S
C1368 C1369 1.366 . S
C1369 C1368 1.366 . S
C1369 C1370 1.414 . S
C1369 C1372 1.499 . S
C1370 H1350 0.950 . S
C1370 C1369 1.414 . S
C1370 C1371 1.374 . S
C1371 H1351 0.950 . S
C1371 C1367 1.385 . S
C1371 C1370 1.374 . S
C1372 C1369 1.499 . S
C1372 C1373 1.373 . S
C1372 C1374 1.389 . S
C1373 H1352 0.950 . S
C1373 C1372 1.373 . S
C1373 C1389 1.377 . S
C1374 C1372 1.389 . S
C1374 C1375 1.524 . S
C1374 C1388 1.377 . S
C1375 C1374 1.524 . S
C1375 C1376 1.397 . S
C1375 C1380 1.363 . S
C1376 H1353 0.950 . S
C1376 C1375 1.397 . S
C1376 C1377 1.334 . S
C1377 H1354 0.950 . S
C1377 C1376 1.334 . S
C1377 C1378 1.287 . S
C1378 C1377 1.287 . S
C1378 C1379 1.524 . S
C1378 H1397 0.913 . S
C1379 H1355 0.950 . S
C1379 C1378 1.524 . S
C1379 C1380 1.415 . S
C1380 H1356 0.950 . S
C1380 C1375 1.363 . S
C1380 C1379 1.415 . S
C1381 H1357 0.951 . S
C1381 C1382 1.366 . S
C1381 C1383 1.388 . S
C1382 C1381 1.366 . S
C1382 C1386 1.385 . S
C1383 H1358 0.951 . S
C1383 C1381 1.388 . S
C1383 C1384 1.366 . S
C1384 C1383 1.366 . S
C1384 C1385 1.414 . S
C1384 C1387 1.499 . S
C1385 H1359 0.950 . S
C1385 C1384 1.414 . S
C1385 C1386 1.374 . S
C1386 H1360 0.950 . S
C1386 C1382 1.385 . S
C1386 C1385 1.374 . S
C1387 C1384 1.499 . S
C1387 C1388 1.373 . S
C1387 C1389 1.389 . S
C1388 H1361 0.950 . S
C1388 C1374 1.377 . S
C1388 C1387 1.373 . S
C1389 C1373 1.377 . S
C1389 C1387 1.389 . S
C1389 C1390 1.524 . S
C1390 C1389 1.524 . S
C1390 C1391 1.397 . S
C1390 C1395 1.363 . S
C1391 H1362 0.950 . S
C1391 C1390 1.397 . S
C1391 C1392 1.334 . S
C1392 H1363 0.950 . S
C1392 C1391 1.334 . S
C1392 C1393 1.287 . S
C1393 C1392 1.287 . S
C1393 C1394 1.524 . S
C1393 H1396 0.999 . S
C1394 H1364 0.950 . S
C1394 C1393 1.524 . S
C1394 C1395 1.415 . S
C1395 H1365 0.950 . S
C1395 C1390 1.363 . S
C1395 C1394 1.415 . S
H1396 C1393 0.999 . S
H1397 C1378 0.913 . S
H1398 C1416 0.951 . S
H1399 C1418 0.951 . S
H1400 C1420 0.950 . S
H1401 C1421 0.950 . S
H1402 C1423 0.950 . S
H1403 C1426 0.950 . S
H1404 C1427 0.950 1_565 S
H1405 C1429 0.950 . S
H1406 C1430 0.950 . S
H1407 C1431 0.951 . S
H1408 C1433 0.951 . S
H1409 C1435 0.950 . S
H1410 C1436 0.950 . S
H1411 C1438 0.950 . S
H1412 C1441 0.950 . S
H1413 C1442 0.950 1_545 S
H1414 C1444 0.950 . S
H1415 C1445 0.950 . S
C1416 H1398 0.951 . S
C1416 C1417 1.366 1_556 S
C1416 C1418 1.388 . S
C1417 C1416 1.366 1_554 S
C1417 C1421 1.385 . S
C1418 H1399 0.951 . S
C1418 C1416 1.388 . S
C1418 C1419 1.366 1_556 S
C1419 C1418 1.366 1_554 S
C1419 C1420 1.414 . S
C1419 C1422 1.499 . S
C1420 H1400 0.950 . S
C1420 C1419 1.414 . S
C1420 C1421 1.374 . S
C1421 H1401 0.950 . S
C1421 C1417 1.385 . S
C1421 C1420 1.374 . S
C1422 C1419 1.499 . S
C1422 C1423 1.373 1_554 S
C1422 C1424 1.389 1_565 S
C1423 H1402 0.950 . S
C1423 C1422 1.373 1_556 S
C1423 C1439 1.377 . S
C1424 C1422 1.389 1_545 S
C1424 C1425 1.524 . S
C1424 C1438 1.377 . S
C1425 C1424 1.524 . S
C1425 C1426 1.397 1_545 S
C1425 C1430 1.363 . S
C1426 H1403 0.950 . S
C1426 C1425 1.397 1_565 S
C1426 C1427 1.334 1_565 S
C1427 H1404 0.950 1_545 S
C1427 C1426 1.334 1_545 S
C1427 C1428 1.287 . S
C1428 C1427 1.287 . S
C1428 C1429 1.524 . S
C1428 H1447 0.913 . S
C1429 H1405 0.950 . S
C1429 C1428 1.524 . S
C1429 C1430 1.415 . S
C1430 H1406 0.950 . S
C1430 C1425 1.363 . S
C1430 C1429 1.415 . S
C1431 H1407 0.951 . S
C1431 C1432 1.366 . S
C1431 C1433 1.388 . S
C1432 C1431 1.366 . S
C1432 C1436 1.385 1_554 S
C1433 H1408 0.951 . S
C1433 C1431 1.388 . S
C1433 C1434 1.366 . S
C1434 C1433 1.366 . S
C1434 C1435 1.414 1_554 S
C1434 C1437 1.499 . S
C1435 H1409 0.950 . S
C1435 C1434 1.414 1_556 S
C1435 C1436 1.374 . S
C1436 H1410 0.950 . S
C1436 C1432 1.385 1_556 S
C1436 C1435 1.374 . S
C1437 C1434 1.499 . S
C1437 C1438 1.373 . S
C1437 C1439 1.389 1_544 S
C1438 H1411 0.950 . S
C1438 C1424 1.377 . S
C1438 C1437 1.373 . S
C1439 C1423 1.377 . S
C1439 C1437 1.389 1_566 S
C1439 C1440 1.524 . S
C1440 C1439 1.524 . S
C1440 C1441 1.397 1_565 S
C1440 C1445 1.363 . S
C1441 H1412 0.950 . S
C1441 C1440 1.397 1_545 S
C1441 C1442 1.334 1_545 S
C1442 H1413 0.950 1_565 S
C1442 C1441 1.334 1_565 S
C1442 C1443 1.287 . S
C1443 C1442 1.287 . S
C1443 C1444 1.524 . S
C1443 H1446 0.999 . S
C1444 H1414 0.950 . S
C1444 C1443 1.524 . S
C1444 C1445 1.415 . S
C1445 H1415 0.950 . S
C1445 C1440 1.363 . S
C1445 C1444 1.415 . S
H1446 C1443 0.999 . S
H1447 C1428 0.913 . S
H1448 C1466 0.951 . S
H1449 C1468 0.951 . S
H1450 C1470 0.929 1_556 S
H1451 C1471 0.948 1_556 S
H1452 C1473 0.950 . S
H1453 C1476 0.950 . S
H1454 C1477 0.950 . S
H1455 C1479 0.950 . S
H1456 C1480 0.950 . S
H1457 C1481 0.960 . S
H1458 C1483 0.958 . S
H1459 C1485 0.950 . S
H1460 C1486 0.950 . S
H1461 C1488 0.950 . S
H1462 C1491 0.950 . S
H1463 C1492 0.950 . S
H1464 C1494 0.950 . S
H1465 C1495 0.950 . S
C1466 H1448 0.951 . S
C1466 C1467 1.366 . S
C1466 C1468 1.388 . S
C1467 C1466 1.366 . S
C1467 C1471 1.385 . S
C1468 H1449 0.951 . S
C1468 C1466 1.388 . S
C1468 C1469 1.366 . S
C1469 C1468 1.366 . S
C1469 C1470 1.414 . S
C1469 C1472 1.499 . S
C1470 H1450 0.929 1_554 S
C1470 C1469 1.414 . S
C1470 C1471 1.374 . S
C1471 H1451 0.948 1_554 S
C1471 C1467 1.385 . S
C1471 C1470 1.374 . S
C1472 C1469 1.499 . S
C1472 C1473 1.373 . S
C1472 C1474 1.389 1_455 S
C1473 H1452 0.950 . S
C1473 C1472 1.373 . S
C1473 C1489 1.377 . S
C1474 C1472 1.389 1_655 S
C1474 C1475 1.524 . S
C1474 C1488 1.377 . S
C1475 C1474 1.524 . S
C1475 C1476 1.397 . S
C1475 C1480 1.363 . S
C1476 H1453 0.950 . S
C1476 C1475 1.397 . S
C1476 C1477 1.334 . S
C1477 H1454 0.950 . S
C1477 C1476 1.334 . S
C1477 C1478 1.287 . S
C1478 C1477 1.287 . S
C1478 C1479 1.524 . S
C1478 H1497 0.913 . S
C1479 H1455 0.950 . S
C1479 C1478 1.524 . S
C1479 C1480 1.415 . S
C1480 H1456 0.950 . S
C1480 C1475 1.363 . S
C1480 C1479 1.415 . S
C1481 H1457 0.960 . S
C1481 C1482 1.366 . S
C1481 C1483 1.388 . S
C1482 C1481 1.366 . S
C1482 C1486 1.385 . S
C1483 H1458 0.958 . S
C1483 C1481 1.388 . S
C1483 C1484 1.366 . S
C1484 C1483 1.366 . S
C1484 C1485 1.414 . S
C1484 C1487 1.499 . S
C1485 H1459 0.950 . S
C1485 C1484 1.414 . S
C1485 C1486 1.374 . S
C1486 H1460 0.950 . S
C1486 C1482 1.385 . S
C1486 C1485 1.374 . S
C1487 C1484 1.499 . S
C1487 C1488 1.373 . S
C1487 C1489 1.389 1_655 S
C1488 H1461 0.950 . S
C1488 C1474 1.377 . S
C1488 C1487 1.373 . S
C1489 C1473 1.377 . S
C1489 C1487 1.389 1_455 S
C1489 C1490 1.524 . S
C1490 C1489 1.524 . S
C1490 C1491 1.397 . S
C1490 C1495 1.363 1_554 S
C1491 H1462 0.950 . S
C1491 C1490 1.397 . S
C1491 C1492 1.334 . S
C1492 H1463 0.950 . S
C1492 C1491 1.334 . S
C1492 C1493 1.287 1_554 S
C1493 C1492 1.287 1_556 S
C1493 C1494 1.524 . S
C1493 H1496 0.999 . S
C1494 H1464 0.950 . S
C1494 C1493 1.524 . S
C1494 C1495 1.415 . S
C1495 H1465 0.950 . S
C1495 C1490 1.363 1_556 S
C1495 C1494 1.415 . S
H1496 C1493 0.999 . S
H1497 C1478 0.913 . S
H1498 C1516 0.951 . S
H1499 C1518 0.951 . S
H1500 C1520 0.950 . S
H1501 C1521 0.950 . S
H1502 C1523 0.950 . S
H1503 C1526 0.950 . S
H1504 C1527 0.950 . S
H1505 C1529 0.950 . S
H1506 C1530 0.950 . S
H1507 C1531 0.951 . S
H1508 C1533 0.951 . S
H1509 C1535 0.950 . S
H1510 C1536 0.950 . S
H1511 C1538 0.950 . S
H1512 C1541 0.950 . S
H1513 C1542 0.950 . S
H1514 C1544 0.950 . S
H1515 C1545 0.950 . S
C1516 H1498 0.951 . S
C1516 C1517 1.366 . S
C1516 C1518 1.388 . S
C1517 C1516 1.366 . S
C1517 C1521 1.385 . S
C1518 H1499 0.951 . S
C1518 C1516 1.388 . S
C1518 C1519 1.366 . S
C1519 C1518 1.366 . S
C1519 C1520 1.414 . S
C1519 C1522 1.499 . S
C1520 H1500 0.950 . S
C1520 C1519 1.414 . S
C1520 C1521 1.374 . S
C1521 H1501 0.950 . S
C1521 C1517 1.385 . S
C1521 C1520 1.374 . S
C1522 C1519 1.499 . S
C1522 C1523 1.373 . S
C1522 C1524 1.389 . S
C1523 H1502 0.950 . S
C1523 C1522 1.373 . S
C1523 C1539 1.377 . S
C1524 C1522 1.389 . S
C1524 C1525 1.524 . S
C1524 C1538 1.377 . S
C1525 C1524 1.524 . S
C1525 C1526 1.397 . S
C1525 C1530 1.363 . S
C1526 H1503 0.950 . S
C1526 C1525 1.397 . S
C1526 C1527 1.334 . S
C1527 H1504 0.950 . S
C1527 C1526 1.334 . S
C1527 C1528 1.287 . S
C1528 C1527 1.287 . S
C1528 C1529 1.524 . S
C1528 H1547 0.913 . S
C1529 H1505 0.950 . S
C1529 C1528 1.524 . S
C1529 C1530 1.415 . S
C1530 H1506 0.950 . S
C1530 C1525 1.363 . S
C1530 C1529 1.415 . S
C1531 H1507 0.951 . S
C1531 C1532 1.366 . S
C1531 C1533 1.388 . S
C1532 C1531 1.366 . S
C1532 C1536 1.385 . S
C1533 H1508 0.951 . S
C1533 C1531 1.388 . S
C1533 C1534 1.366 . S
C1534 C1533 1.366 . S
C1534 C1535 1.414 . S
C1534 C1537 1.499 . S
C1535 H1509 0.950 . S
C1535 C1534 1.414 . S
C1535 C1536 1.374 . S
C1536 H1510 0.950 . S
C1536 C1532 1.385 . S
C1536 C1535 1.374 . S
C1537 C1534 1.499 . S
C1537 C1538 1.373 . S
C1537 C1539 1.389 . S
C1538 H1511 0.950 . S
C1538 C1524 1.377 . S
C1538 C1537 1.373 . S
C1539 C1523 1.377 . S
C1539 C1537 1.389 . S
C1539 C1540 1.524 . S
C1540 C1539 1.524 . S
C1540 C1541 1.397 . S
C1540 C1545 1.363 . S
C1541 H1512 0.950 . S
C1541 C1540 1.397 . S
C1541 C1542 1.334 . S
C1542 H1513 0.950 . S
C1542 C1541 1.334 . S
C1542 C1543 1.287 . S
C1543 C1542 1.287 . S
C1543 C1544 1.524 . S
C1543 H1546 0.999 . S
C1544 H1514 0.950 . S
C1544 C1543 1.524 . S
C1544 C1545 1.415 . S
C1545 H1515 0.950 . S
C1545 C1540 1.363 . S
C1545 C1544 1.415 . S
H1546 C1543 0.999 . S
H1547 C1528 0.913 . S
H1548 C1566 0.951 . S
H1549 C1568 0.951 . S
H1550 C1570 0.950 . S
H1551 C1571 0.950 . S
H1552 C1573 0.950 . S
H1553 C1576 0.988 . S
H1554 C1577 0.950 1_545 S
H1555 C1579 0.950 . S
H1556 C1580 0.950 . S
H1557 C1581 0.951 . S
H1558 C1583 0.951 . S
H1559 C1585 0.950 . S
H1560 C1586 0.950 . S
H1561 C1588 0.950 . S
H1562 C1591 0.988 . S
H1563 C1592 0.950 1_565 S
H1564 C1594 0.950 . S
H1565 C1595 0.950 . S
C1566 H1548 0.951 . S
C1566 C1567 1.366 . S
C1566 C1568 1.388 . S
C1567 C1566 1.366 . S
C1567 C1571 1.385 . S
C1568 H1549 0.951 . S
C1568 C1566 1.388 . S
C1568 C1569 1.366 . S
C1569 C1568 1.366 . S
C1569 C1570 1.414 . S
C1569 C1572 1.499 . S
C1570 H1550 0.950 . S
C1570 C1569 1.414 . S
C1570 C1571 1.374 . S
C1571 H1551 0.950 . S
C1571 C1567 1.385 . S
C1571 C1570 1.374 . S
C1572 C1569 1.499 . S
C1572 C1573 1.373 . S
C1572 C1574 1.389 1_545 S
C1573 H1552 0.950 . S
C1573 C1572 1.373 . S
C1573 C1589 1.377 . S
C1574 C1572 1.389 1_565 S
C1574 C1575 1.524 . S
C1574 C1588 1.377 . S
C1575 C1574 1.524 . S
C1575 C1576 1.373 1_565 S
C1575 C1580 1.363 . S
C1576 H1553 0.988 . S
C1576 C1575 1.373 1_545 S
C1576 C1577 1.324 1_545 S
C1577 H1554 0.950 1_565 S
C1577 C1576 1.324 1_565 S
C1577 C1578 1.287 . S
C1578 C1577 1.287 . S
C1578 C1579 1.524 . S
C1578 H1597 0.913 . S
C1579 H1555 0.950 . S
C1579 C1578 1.524 . S
C1579 C1580 1.415 . S
C1580 H1556 0.950 . S
C1580 C1575 1.363 . S
C1580 C1579 1.415 . S
C1581 H1557 0.951 . S
C1581 C1582 1.366 . S
C1581 C1583 1.388 . S
C1582 C1581 1.366 . S
C1582 C1586 1.385 . S
C1583 H1558 0.951 . S
C1583 C1581 1.388 . S
C1583 C1584 1.366 . S
C1584 C1583 1.366 . S
C1584 C1585 1.414 . S
C1584 C1587 1.499 . S
C1585 H1559 0.950 . S
C1585 C1584 1.414 . S
C1585 C1586 1.374 . S
C1586 H1560 0.950 . S
C1586 C1582 1.385 . S
C1586 C1585 1.374 . S
C1587 C1584 1.499 . S
C1587 C1588 1.373 . S
C1587 C1589 1.389 1_565 S
C1588 H1561 0.950 . S
C1588 C1574 1.377 . S
C1588 C1587 1.373 . S
C1589 C1573 1.377 . S
C1589 C1587 1.389 1_545 S
C1589 C1590 1.524 . S
C1590 C1589 1.524 . S
C1590 C1591 1.373 1_545 S
C1590 C1595 1.363 . S
C1591 H1562 0.988 . S
C1591 C1590 1.373 1_565 S
C1591 C1592 1.324 1_565 S
C1592 H1563 0.950 1_545 S
C1592 C1591 1.324 1_545 S
C1592 C1593 1.287 . S
C1593 C1592 1.287 . S
C1593 C1594 1.524 . S
C1593 H1596 0.999 . S
C1594 H1564 0.950 . S
C1594 C1593 1.524 . S
C1594 C1595 1.415 . S
C1595 H1565 0.950 . S
C1595 C1590 1.363 . S
C1595 C1594 1.415 . S
H1596 C1593 0.999 . S
H1597 C1578 0.913 . S
H1598 C1616 0.951 . S
H1599 C1618 0.951 . S
H1600 C1620 0.950 . S
H1601 C1621 0.950 . S
H1602 C1623 0.950 . S
H1603 C1626 0.950 . S
H1604 C1627 0.950 . S
H1605 C1629 0.950 . S
H1606 C1630 0.950 . S
H1607 C1631 0.951 . S
H1608 C1633 0.951 . S
H1609 C1635 0.950 . S
H1610 C1636 0.950 . S
H1611 C1638 0.950 . S
H1612 C1641 0.950 . S
H1613 C1642 0.950 . S
H1614 C1644 0.950 . S
H1615 C1645 0.950 . S
C1616 H1598 0.951 . S
C1616 C1617 1.366 . S
C1616 C1618 1.388 . S
C1617 C1616 1.366 . S
C1617 C1621 1.385 . S
C1618 H1599 0.951 . S
C1618 C1616 1.388 . S
C1618 C1619 1.366 . S
C1619 C1618 1.366 . S
C1619 C1620 1.414 . S
C1619 C1622 1.499 . S
C1620 H1600 0.950 . S
C1620 C1619 1.414 . S
C1620 C1621 1.374 . S
C1621 H1601 0.950 . S
C1621 C1617 1.385 . S
C1621 C1620 1.374 . S
C1622 C1619 1.499 . S
C1622 C1623 1.373 1_455 S
C1622 C1624 1.389 1_545 S
C1623 H1602 0.950 . S
C1623 C1622 1.373 1_655 S
C1623 C1639 1.377 . S
C1624 C1622 1.389 1_565 S
C1624 C1625 1.524 . S
C1624 C1638 1.377 . S
C1625 C1624 1.524 . S
C1625 C1626 1.397 1_565 S
C1625 C1630 1.363 . S
C1626 H1603 0.950 . S
C1626 C1625 1.397 1_545 S
C1626 C1627 1.334 . S
C1627 H1604 0.950 . S
C1627 C1626 1.334 . S
C1627 C1628 1.287 1_545 S
C1628 C1627 1.287 1_565 S
C1628 C1629 1.524 . S
C1628 H1647 0.913 . S
C1629 H1605 0.950 . S
C1629 C1628 1.524 . S
C1629 C1630 1.415 . S
C1630 H1606 0.950 . S
C1630 C1625 1.363 . S
C1630 C1629 1.415 . S
C1631 H1607 0.951 . S
C1631 C1632 1.366 . S
C1631 C1633 1.388 . S
C1632 C1631 1.366 . S
C1632 C1636 1.385 . S
C1633 H1608 0.951 . S
C1633 C1631 1.388 . S
C1633 C1634 1.366 . S
C1634 C1633 1.366 . S
C1634 C1635 1.414 . S
C1634 C1637 1.499 . S
C1635 H1609 0.950 . S
C1635 C1634 1.414 . S
C1635 C1636 1.374 . S
C1636 H1610 0.950 . S
C1636 C1632 1.385 . S
C1636 C1635 1.374 . S
C1637 C1634 1.499 . S
C1637 C1638 1.373 1_655 S
C1637 C1639 1.389 1_565 S
C1638 H1611 0.950 . S
C1638 C1624 1.377 . S
C1638 C1637 1.373 1_455 S
C1639 C1623 1.377 . S
C1639 C1637 1.389 1_545 S
C1639 C1640 1.524 . S
C1640 C1639 1.524 . S
C1640 C1641 1.397 1_545 S
C1640 C1645 1.363 . S
C1641 H1612 0.950 . S
C1641 C1640 1.397 1_565 S
C1641 C1642 1.334 . S
C1642 H1613 0.950 . S
C1642 C1641 1.334 . S
C1642 C1643 1.287 1_565 S
C1643 C1642 1.287 1_545 S
C1643 C1644 1.524 . S
C1643 H1646 0.999 . S
C1644 H1614 0.950 . S
C1644 C1643 1.524 . S
C1644 C1645 1.415 . S
C1645 H1615 0.950 . S
C1645 C1640 1.363 . S
C1645 C1644 1.415 . S
H1646 C1643 0.999 . S
H1647 C1628 0.913 . S
H1648 C1666 0.951 . S
H1649 C1668 0.951 . S
H1650 C1670 0.950 . S
H1651 C1671 0.950 . S
H1652 C1673 0.950 . S
H1653 C1676 0.950 . S
H1654 C1677 0.950 . S
H1655 C1679 0.950 . S
H1656 C1680 0.950 . S
H1657 C1681 0.951 . S
H1658 C1683 0.951 . S
H1659 C1685 0.950 . S
H1660 C1686 0.950 . S
H1661 C1688 0.950 . S
H1662 C1691 0.950 . S
H1663 C1692 0.950 . S
H1664 C1694 0.950 . S
H1665 C1695 0.950 . S
C1666 H1648 0.951 . S
C1666 C1667 1.366 . S
C1666 C1668 1.388 . S
C1667 C1666 1.366 . S
C1667 C1671 1.385 . S
C1668 H1649 0.951 . S
C1668 C1666 1.388 . S
C1668 C1669 1.366 . S
C1669 C1668 1.366 . S
C1669 C1670 1.414 . S
C1669 C1672 1.499 . S
C1670 H1650 0.950 . S
C1670 C1669 1.414 . S
C1670 C1671 1.374 . S
C1671 H1651 0.950 . S
C1671 C1667 1.385 . S
C1671 C1670 1.374 . S
C1672 C1669 1.499 . S
C1672 C1673 1.373 . S
C1672 C1674 1.389 . S
C1673 H1652 0.950 . S
C1673 C1672 1.373 . S
C1673 C1689 1.377 . S
C1674 C1672 1.389 . S
C1674 C1675 1.524 . S
C1674 C1688 1.377 . S
C1675 C1674 1.524 . S
C1675 C1676 1.397 . S
C1675 C1680 1.363 . S
C1676 H1653 0.950 . S
C1676 C1675 1.397 . S
C1676 C1677 1.334 . S
C1677 H1654 0.950 . S
C1677 C1676 1.334 . S
C1677 C1678 1.287 . S
C1678 C1677 1.287 . S
C1678 C1679 1.524 . S
C1678 H1697 0.913 . S
C1679 H1655 0.950 . S
C1679 C1678 1.524 . S
C1679 C1680 1.415 . S
C1680 H1656 0.950 . S
C1680 C1675 1.363 . S
C1680 C1679 1.415 . S
C1681 H1657 0.951 . S
C1681 C1682 1.366 . S
C1681 C1683 1.388 . S
C1682 C1681 1.366 . S
C1682 C1686 1.385 . S
C1683 H1658 0.951 . S
C1683 C1681 1.388 . S
C1683 C1684 1.366 . S
C1684 C1683 1.366 . S
C1684 C1685 1.414 . S
C1684 C1687 1.499 . S
C1685 H1659 0.950 . S
C1685 C1684 1.414 . S
C1685 C1686 1.374 . S
C1686 H1660 0.950 . S
C1686 C1682 1.385 . S
C1686 C1685 1.374 . S
C1687 C1684 1.499 . S
C1687 C1688 1.373 . S
C1687 C1689 1.389 . S
C1688 H1661 0.950 . S
C1688 C1674 1.377 . S
C1688 C1687 1.373 . S
C1689 C1673 1.377 . S
C1689 C1687 1.389 . S
C1689 C1690 1.524 . S
C1690 C1689 1.524 . S
C1690 C1691 1.397 . S
C1690 C1695 1.363 . S
C1691 H1662 0.950 . S
C1691 C1690 1.397 . S
C1691 C1692 1.334 . S
C1692 H1663 0.950 . S
C1692 C1691 1.334 . S
C1692 C1693 1.287 . S
C1693 C1692 1.287 . S
C1693 C1694 1.524 . S
C1693 H1696 0.999 . S
C1694 H1664 0.950 . S
C1694 C1693 1.524 . S
C1694 C1695 1.415 . S
C1695 H1665 0.950 . S
C1695 C1690 1.363 . S
C1695 C1694 1.415 . S
H1696 C1693 0.999 . S
H1697 C1678 0.913 . S
H1698 C1716 0.951 . S
H1699 C1718 0.951 . S
H1700 C1720 0.950 . S
H1701 C1721 0.950 . S
H1702 C1723 0.950 . S
H1703 C1726 0.950 . S
H1704 C1727 0.950 . S
H1705 C1729 0.950 . S
H1706 C1730 0.950 . S
H1707 C1731 0.951 . S
H1708 C1733 0.951 . S
H1709 C1735 0.950 . S
H1710 C1736 0.950 . S
H1711 C1738 0.950 . S
H1712 C1741 0.950 . S
H1713 C1742 0.950 . S
H1714 C1744 0.950 . S
H1715 C1745 0.950 . S
C1716 H1698 0.951 . S
C1716 C1717 1.366 . S
C1716 C1718 1.388 . S
C1717 C1716 1.366 . S
C1717 C1721 1.385 . S
C1718 H1699 0.951 . S
C1718 C1716 1.388 . S
C1718 C1719 1.366 . S
C1719 C1718 1.366 . S
C1719 C1720 1.414 . S
C1719 C1722 1.499 . S
C1720 H1700 0.950 . S
C1720 C1719 1.414 . S
C1720 C1721 1.374 . S
C1721 H1701 0.950 . S
C1721 C1717 1.385 . S
C1721 C1720 1.374 . S
C1722 C1719 1.499 . S
C1722 C1723 1.373 . S
C1722 C1724 1.389 . S
C1723 H1702 0.950 . S
C1723 C1722 1.373 . S
C1723 C1739 1.377 . S
C1724 C1722 1.389 . S
C1724 C1725 1.524 . S
C1724 C1738 1.377 . S
C1725 C1724 1.524 . S
C1725 C1726 1.397 . S
C1725 C1730 1.363 . S
C1726 H1703 0.950 . S
C1726 C1725 1.397 . S
C1726 C1727 1.334 . S
C1727 H1704 0.950 . S
C1727 C1726 1.334 . S
C1727 C1728 1.287 . S
C1728 C1727 1.287 . S
C1728 C1729 1.524 . S
C1728 H1747 0.913 . S
C1729 H1705 0.950 . S
C1729 C1728 1.524 . S
C1729 C1730 1.415 . S
C1730 H1706 0.950 . S
C1730 C1725 1.363 . S
C1730 C1729 1.415 . S
C1731 H1707 0.951 . S
C1731 C1732 1.366 . S
C1731 C1733 1.388 . S
C1732 C1731 1.366 . S
C1732 C1736 1.385 . S
C1733 H1708 0.951 . S
C1733 C1731 1.388 . S
C1733 C1734 1.366 . S
C1734 C1733 1.366 . S
C1734 C1735 1.414 . S
C1734 C1737 1.499 . S
C1735 H1709 0.950 . S
C1735 C1734 1.414 . S
C1735 C1736 1.374 . S
C1736 H1710 0.950 . S
C1736 C1732 1.385 . S
C1736 C1735 1.374 . S
C1737 C1734 1.499 . S
C1737 C1738 1.373 . S
C1737 C1739 1.389 . S
C1738 H1711 0.950 . S
C1738 C1724 1.377 . S
C1738 C1737 1.373 . S
C1739 C1723 1.377 . S
C1739 C1737 1.389 . S
C1739 C1740 1.524 . S
C1740 C1739 1.524 . S
C1740 C1741 1.397 . S
C1740 C1745 1.363 . S
C1741 H1712 0.950 . S
C1741 C1740 1.397 . S
C1741 C1742 1.334 . S
C1742 H1713 0.950 . S
C1742 C1741 1.334 . S
C1742 C1743 1.287 . S
C1743 C1742 1.287 . S
C1743 C1744 1.524 . S
C1743 H1746 0.999 . S
C1744 H1714 0.950 . S
C1744 C1743 1.524 . S
C1744 C1745 1.415 . S
C1745 H1715 0.950 . S
C1745 C1740 1.363 . S
C1745 C1744 1.415 . S
H1746 C1743 0.999 . S
H1747 C1728 0.913 . S
H1748 C1766 0.951 . S
H1749 C1768 0.951 . S
H1750 C1770 0.950 . S
H1751 C1771 0.950 . S
H1752 C1773 0.950 . S
H1753 C1776 0.950 . S
H1754 C1777 0.950 . S
H1755 C1779 0.950 . S
H1756 C1780 0.950 . S
H1757 C1781 0.951 . S
H1758 C1783 0.951 . S
H1759 C1785 0.950 . S
H1760 C1786 0.950 . S
H1761 C1788 0.950 . S
H1762 C1791 0.950 1_554 S
H1763 C1792 0.950 . S
H1764 C1794 0.950 1_556 S
H1765 C1795 0.950 . S
C1766 H1748 0.951 . S
C1766 C1767 1.366 . S
C1766 C1768 1.388 . S
C1767 C1766 1.366 . S
C1767 C1771 1.385 . S
C1768 H1749 0.951 . S
C1768 C1766 1.388 . S
C1768 C1769 1.366 . S
C1769 C1768 1.366 . S
C1769 C1770 1.414 . S
C1769 C1772 1.499 . S
C1770 H1750 0.950 . S
C1770 C1769 1.414 . S
C1770 C1771 1.374 . S
C1771 H1751 0.950 . S
C1771 C1767 1.385 . S
C1771 C1770 1.374 . S
C1772 C1769 1.499 . S
C1772 C1773 1.373 . S
C1772 C1774 1.389 . S
C1773 H1752 0.950 . S
C1773 C1772 1.373 . S
C1773 C1789 1.377 . S
C1774 C1772 1.389 . S
C1774 C1775 1.524 . S
C1774 C1788 1.377 . S
C1775 C1774 1.524 . S
C1775 C1776 1.397 . S
C1775 C1780 1.363 . S
C1776 H1753 0.950 . S
C1776 C1775 1.397 . S
C1776 C1777 1.334 . S
C1777 H1754 0.950 . S
C1777 C1776 1.334 . S
C1777 C1778 1.287 . S
C1778 C1777 1.287 . S
C1778 C1779 1.524 . S
C1778 H1797 0.913 . S
C1779 H1755 0.950 . S
C1779 C1778 1.524 . S
C1779 C1780 1.415 . S
C1780 H1756 0.950 . S
C1780 C1775 1.363 . S
C1780 C1779 1.415 . S
C1781 H1757 0.951 . S
C1781 C1782 1.366 . S
C1781 C1783 1.388 . S
C1782 C1781 1.366 . S
C1782 C1786 1.385 . S
C1783 H1758 0.951 . S
C1783 C1781 1.388 . S
C1783 C1784 1.366 . S
C1784 C1783 1.366 . S
C1784 C1785 1.414 . S
C1784 C1787 1.499 1_556 S
C1785 H1759 0.950 . S
C1785 C1784 1.414 . S
C1785 C1786 1.374 . S
C1786 H1760 0.950 . S
C1786 C1782 1.385 . S
C1786 C1785 1.374 . S
C1787 C1784 1.499 1_554 S
C1787 C1788 1.373 . S
C1787 C1789 1.389 . S
C1788 H1761 0.950 . S
C1788 C1774 1.377 . S
C1788 C1787 1.373 . S
C1789 C1773 1.377 . S
C1789 C1787 1.389 . S
C1789 C1790 1.524 . S
C1790 C1789 1.524 . S
C1790 C1791 1.399 1_554 S
C1790 C1795 1.363 . S
C1791 H1762 0.950 1_556 S
C1791 C1790 1.399 1_556 S
C1791 C1792 1.332 . S
C1792 H1763 0.950 . S
C1792 C1791 1.332 . S
C1792 C1793 1.287 . S
C1793 C1792 1.287 . S
C1793 C1794 1.525 1_556 S
C1793 H1796 0.999 . S
C1794 H1764 0.950 1_554 S
C1794 C1793 1.525 1_554 S
C1794 C1795 1.414 . S
C1795 H1765 0.950 . S
C1795 C1790 1.363 . S
C1795 C1794 1.414 . S
H1796 C1793 0.999 . S
H1797 C1778 0.913 . S
H1798 C1816 0.951 . S
H1799 C1818 0.951 . S
H1800 C1820 0.950 . S
H1801 C1821 0.950 . S
H1802 C1823 0.950 . S
H1803 C1826 0.950 . S
H1804 C1827 0.950 . S
H1805 C1829 0.950 . S
H1806 C1830 0.950 . S
H1807 C1831 0.951 . S
H1808 C1833 0.951 . S
H1809 C1835 0.950 . S
H1810 C1836 0.950 . S
H1811 C1838 0.950 . S
H1812 C1841 0.950 . S
H1813 C1842 0.950 . S
H1814 C1844 0.950 . S
H1815 C1845 0.950 . S
C1816 H1798 0.951 . S
C1816 C1817 1.366 . S
C1816 C1818 1.388 . S
C1817 C1816 1.366 . S
C1817 C1821 1.385 . S
C1818 H1799 0.951 . S
C1818 C1816 1.388 . S
C1818 C1819 1.366 . S
C1819 C1818 1.366 . S
C1819 C1820 1.414 . S
C1819 C1822 1.499 . S
C1820 H1800 0.950 . S
C1820 C1819 1.414 . S
C1820 C1821 1.374 . S
C1821 H1801 0.950 . S
C1821 C1817 1.385 . S
C1821 C1820 1.374 . S
C1822 C1819 1.499 . S
C1822 C1823 1.373 . S
C1822 C1824 1.389 . S
C1823 H1802 0.950 . S
C1823 C1822 1.373 . S
C1823 C1839 1.377 . S
C1824 C1822 1.389 . S
C1824 C1825 1.524 . S
C1824 C1838 1.377 . S
C1825 C1824 1.524 . S
C1825 C1826 1.397 . S
C1825 C1830 1.363 . S
C1826 H1803 0.950 . S
C1826 C1825 1.397 . S
C1826 C1827 1.334 . S
C1827 H1804 0.950 . S
C1827 C1826 1.334 . S
C1827 C1828 1.287 . S
C1828 C1827 1.287 . S
C1828 C1829 1.524 . S
C1828 H1847 0.913 . S
C1829 H1805 0.950 . S
C1829 C1828 1.524 . S
C1829 C1830 1.415 . S
C1830 H1806 0.950 . S
C1830 C1825 1.363 . S
C1830 C1829 1.415 . S
C1831 H1807 0.951 . S
C1831 C1832 1.366 . S
C1831 C1833 1.388 . S
C1832 C1831 1.366 . S
C1832 C1836 1.385 . S
C1833 H1808 0.951 . S
C1833 C1831 1.388 . S
C1833 C1834 1.366 . S
C1834 C1833 1.366 . S
C1834 C1835 1.414 . S
C1834 C1837 1.499 . S
C1835 H1809 0.950 . S
C1835 C1834 1.414 . S
C1835 C1836 1.374 . S
C1836 H1810 0.950 . S
C1836 C1832 1.385 . S
C1836 C1835 1.374 . S
C1837 C1834 1.499 . S
C1837 C1838 1.373 . S
C1837 C1839 1.389 . S
C1838 H1811 0.950 . S
C1838 C1824 1.377 . S
C1838 C1837 1.373 . S
C1839 C1823 1.377 . S
C1839 C1837 1.389 . S
C1839 C1840 1.524 . S
C1840 C1839 1.524 . S
C1840 C1841 1.397 . S
C1840 C1845 1.363 . S
C1841 H1812 0.950 . S
C1841 C1840 1.397 . S
C1841 C1842 1.334 . S
C1842 H1813 0.950 . S
C1842 C1841 1.334 . S
C1842 C1843 1.287 . S
C1843 C1842 1.287 . S
C1843 C1844 1.524 . S
C1843 H1846 0.999 . S
C1844 H1814 0.950 . S
C1844 C1843 1.524 . S
C1844 C1845 1.415 . S
C1845 H1815 0.950 . S
C1845 C1840 1.363 . S
C1845 C1844 1.415 . S
H1846 C1843 0.999 . S
H1847 C1828 0.913 . S
H1848 C1866 0.951 . S
H1849 C1868 0.951 . S
H1850 C1870 0.950 . S
H1851 C1871 0.950 . S
H1852 C1873 0.950 . S
H1853 C1876 0.950 . S
H1854 C1877 0.950 . S
H1855 C1879 0.950 . S
H1856 C1880 0.950 . S
H1857 C1881 0.951 . S
H1858 C1883 0.951 . S
H1859 C1885 0.950 . S
H1860 C1886 0.950 . S
H1861 C1888 0.950 . S
H1862 C1891 0.950 . S
H1863 C1892 0.950 . S
H1864 C1894 0.950 . S
H1865 C1895 0.950 . S
C1866 H1848 0.951 . S
C1866 C1867 1.366 . S
C1866 C1868 1.388 . S
C1867 C1866 1.366 . S
C1867 C1871 1.385 . S
C1868 H1849 0.951 . S
C1868 C1866 1.388 . S
C1868 C1869 1.366 . S
C1869 C1868 1.366 . S
C1869 C1870 1.414 . S
C1869 C1872 1.499 . S
C1870 H1850 0.950 . S
C1870 C1869 1.414 . S
C1870 C1871 1.374 . S
C1871 H1851 0.950 . S
C1871 C1867 1.385 . S
C1871 C1870 1.374 . S
C1872 C1869 1.499 . S
C1872 C1873 1.373 . S
C1872 C1874 1.389 . S
C1873 H1852 0.950 . S
C1873 C1872 1.373 . S
C1873 C1889 1.377 . S
C1874 C1872 1.389 . S
C1874 C1875 1.524 . S
C1874 C1888 1.377 . S
C1875 C1874 1.524 . S
C1875 C1876 1.397 . S
C1875 C1880 1.363 . S
C1876 H1853 0.950 . S
C1876 C1875 1.397 . S
C1876 C1877 1.334 . S
C1877 H1854 0.950 . S
C1877 C1876 1.334 . S
C1877 C1878 1.287 . S
C1878 C1877 1.287 . S
C1878 C1879 1.524 . S
C1878 H1897 0.913 . S
C1879 H1855 0.950 . S
C1879 C1878 1.524 . S
C1879 C1880 1.415 . S
C1880 H1856 0.950 . S
C1880 C1875 1.363 . S
C1880 C1879 1.415 . S
C1881 H1857 0.951 . S
C1881 C1882 1.366 . S
C1881 C1883 1.388 . S
C1882 C1881 1.366 . S
C1882 C1886 1.385 . S
C1883 H1858 0.951 . S
C1883 C1881 1.388 . S
C1883 C1884 1.366 . S
C1884 C1883 1.366 . S
C1884 C1885 1.414 . S
C1884 C1887 1.499 . S
C1885 H1859 0.950 . S
C1885 C1884 1.414 . S
C1885 C1886 1.374 . S
C1886 H1860 0.950 . S
C1886 C1882 1.385 . S
C1886 C1885 1.374 . S
C1887 C1884 1.499 . S
C1887 C1888 1.373 . S
C1887 C1889 1.389 . S
C1888 H1861 0.950 . S
C1888 C1874 1.377 . S
C1888 C1887 1.373 . S
C1889 C1873 1.377 . S
C1889 C1887 1.389 . S
C1889 C1890 1.524 . S
C1890 C1889 1.524 . S
C1890 C1891 1.397 . S
C1890 C1895 1.363 . S
C1891 H1862 0.950 . S
C1891 C1890 1.397 . S
C1891 C1892 1.334 . S
C1892 H1863 0.950 . S
C1892 C1891 1.334 . S
C1892 C1893 1.287 . S
C1893 C1892 1.287 . S
C1893 C1894 1.524 . S
C1893 H1896 0.999 . S
C1894 H1864 0.950 . S
C1894 C1893 1.524 . S
C1894 C1895 1.415 . S
C1895 H1865 0.950 . S
C1895 C1890 1.363 . S
C1895 C1894 1.415 . S
H1896 C1893 0.999 . S
H1897 C1878 0.913 . S
H1898 C1916 0.951 . S
H1899 C1918 0.951 . S
H1900 C1920 0.950 . S
H1901 C1921 0.950 . S
H1902 C1923 0.950 . S
H1903 C1926 0.950 . S
H1904 C1927 0.950 . S
H1905 C1929 0.950 . S
H1906 C1930 0.950 . S
H1907 C1931 0.951 . S
H1908 C1933 0.951 . S
H1909 C1935 0.959 . S
H1910 C1936 0.950 . S
H1911 C1938 0.950 . S
H1912 C1941 0.950 . S
H1913 C1942 0.950 . S
H1914 C1944 0.950 . S
H1915 C1945 0.950 . S
C1916 H1898 0.951 . S
C1916 C1917 1.366 . S
C1916 C1918 1.388 . S
C1917 C1916 1.366 . S
C1917 C1921 1.385 . S
C1918 H1899 0.951 . S
C1918 C1916 1.388 . S
C1918 C1919 1.366 . S
C1919 C1918 1.366 . S
C1919 C1920 1.414 . S
C1919 C1922 1.499 . S
C1920 H1900 0.950 . S
C1920 C1919 1.414 . S
C1920 C1921 1.374 . S
C1921 H1901 0.950 . S
C1921 C1917 1.385 . S
C1921 C1920 1.374 . S
C1922 C1919 1.499 . S
C1922 C1923 1.373 . S
C1922 C1924 1.389 . S
C1923 H1902 0.950 . S
C1923 C1922 1.373 . S
C1923 C1939 1.377 . S
C1924 C1922 1.389 . S
C1924 C1925 1.524 . S
C1924 C1938 1.377 . S
C1925 C1924 1.524 . S
C1925 C1926 1.397 . S
C1925 C1930 1.363 . S
C1926 H1903 0.950 . S
C1926 C1925 1.397 . S
C1926 C1927 1.334 . S
C1927 H1904 0.950 . S
C1927 C1926 1.334 . S
C1927 C1928 1.287 . S
C1928 C1927 1.287 . S
C1928 C1929 1.524 . S
C1928 H1947 0.913 . S
C1929 H1905 0.950 . S
C1929 C1928 1.524 . S
C1929 C1930 1.415 . S
C1930 H1906 0.950 . S
C1930 C1925 1.363 . S
C1930 C1929 1.415 . S
C1931 H1907 0.951 . S
C1931 C1932 1.366 . S
C1931 C1933 1.388 . S
C1932 C1931 1.366 . S
C1932 C1936 1.385 . S
C1933 H1908 0.951 . S
C1933 C1931 1.388 . S
C1933 C1934 1.366 . S
C1934 C1933 1.366 . S
C1934 C1935 1.414 . S
C1934 C1937 1.499 1_556 S
C1935 H1909 0.959 . S
C1935 C1934 1.414 . S
C1935 C1936 1.374 . S
C1936 H1910 0.950 . S
C1936 C1932 1.385 . S
C1936 C1935 1.374 . S
C1937 C1934 1.499 1_554 S
C1937 C1938 1.373 . S
C1937 C1939 1.389 . S
C1938 H1911 0.950 . S
C1938 C1924 1.377 . S
C1938 C1937 1.373 . S
C1939 C1923 1.377 . S
C1939 C1937 1.389 . S
C1939 C1940 1.524 . S
C1940 C1939 1.524 . S
C1940 C1941 1.397 . S
C1940 C1945 1.363 . S
C1941 H1912 0.950 . S
C1941 C1940 1.397 . S
C1941 C1942 1.334 1_554 S
C1942 H1913 0.950 . S
C1942 C1941 1.334 1_556 S
C1942 C1943 1.287 . S
C1943 C1942 1.287 . S
C1943 C1944 1.524 1_556 S
C1943 H1946 0.999 . S
C1944 H1914 0.950 . S
C1944 C1943 1.524 1_554 S
C1944 C1945 1.415 . S
C1945 H1915 0.950 . S
C1945 C1940 1.363 . S
C1945 C1944 1.415 . S
H1946 C1943 0.999 . S
H1947 C1928 0.913 . S
H1948 C1966 0.951 . S
H1949 C1968 0.951 . S
H1950 C1970 0.950 . S
H1951 C1971 0.950 . S
H1952 C1973 0.950 . S
H1953 C1976 0.950 . S
H1954 C1977 0.950 . S
H1955 C1979 0.950 . S
H1956 C1980 0.950 . S
H1957 C1981 0.951 . S
H1958 C1983 0.951 . S
H1959 C1985 0.950 . S
H1960 C1986 0.950 . S
H1961 C1988 0.950 . S
H1962 C1991 0.950 . S
H1963 C1992 0.950 . S
H1964 C1994 0.950 . S
H1965 C1995 0.950 . S
C1966 H1948 0.951 . S
C1966 C1967 1.366 . S
C1966 C1968 1.388 . S
C1967 C1966 1.366 . S
C1967 C1971 1.385 . S
C1968 H1949 0.951 . S
C1968 C1966 1.388 . S
C1968 C1969 1.366 . S
C1969 C1968 1.366 . S
C1969 C1970 1.414 . S
C1969 C1972 1.499 . S
C1970 H1950 0.950 . S
C1970 C1969 1.414 . S
C1970 C1971 1.374 . S
C1971 H1951 0.950 . S
C1971 C1967 1.385 . S
C1971 C1970 1.374 . S
C1972 C1969 1.499 . S
C1972 C1973 1.373 . S
C1972 C1974 1.389 . S
C1973 H1952 0.950 . S
C1973 C1972 1.373 . S
C1973 C1989 1.377 . S
C1974 C1972 1.389 . S
C1974 C1975 1.524 . S
C1974 C1988 1.377 . S
C1975 C1974 1.524 . S
C1975 C1976 1.397 . S
C1975 C1980 1.363 . S
C1976 H1953 0.950 . S
C1976 C1975 1.397 . S
C1976 C1977 1.334 . S
C1977 H1954 0.950 . S
C1977 C1976 1.334 . S
C1977 C1978 1.287 . S
C1978 C1977 1.287 . S
C1978 C1979 1.524 . S
C1978 H1997 0.913 . S
C1979 H1955 0.950 . S
C1979 C1978 1.524 . S
C1979 C1980 1.415 . S
C1980 H1956 0.950 . S
C1980 C1975 1.363 . S
C1980 C1979 1.415 . S
C1981 H1957 0.951 . S
C1981 C1982 1.366 . S
C1981 C1983 1.388 . S
C1982 C1981 1.366 . S
C1982 C1986 1.385 . S
C1983 H1958 0.951 . S
C1983 C1981 1.388 . S
C1983 C1984 1.366 . S
C1984 C1983 1.366 . S
C1984 C1985 1.414 . S
C1984 C1987 1.499 . S
C1985 H1959 0.950 . S
C1985 C1984 1.414 . S
C1985 C1986 1.374 . S
C1986 H1960 0.950 . S
C1986 C1982 1.385 . S
C1986 C1985 1.374 . S
C1987 C1984 1.499 . S
C1987 C1988 1.373 . S
C1987 C1989 1.389 . S
C1988 H1961 0.950 . S
C1988 C1974 1.377 . S
C1988 C1987 1.373 . S
C1989 C1973 1.377 . S
C1989 C1987 1.389 . S
C1989 C1990 1.524 . S
C1990 C1989 1.524 . S
C1990 C1991 1.397 . S
C1990 C1995 1.363 . S
C1991 H1962 0.950 . S
C1991 C1990 1.397 . S
C1991 C1992 1.334 . S
C1992 H1963 0.950 . S
C1992 C1991 1.334 . S
C1992 C1993 1.287 . S
C1993 C1992 1.287 . S
C1993 C1994 1.524 . S
C1993 H1996 0.999 . S
C1994 H1964 0.950 . S
C1994 C1993 1.524 . S
C1994 C1995 1.415 . S
C1995 H1965 0.950 . S
C1995 C1990 1.363 . S
C1995 C1994 1.415 . S
H1996 C1993 0.999 . S
H1997 C1978 0.913 . S
H1998 C2016 0.951 . S
H1999 C2018 0.951 . S
H2000 C2020 0.950 . S
H2001 C2021 0.950 . S
H2002 C2023 0.950 . S
H2003 C2026 0.950 . S
H2004 C2027 0.950 . S
H2005 C2029 0.950 . S
H2006 C2030 0.950 . S
H2007 C2031 0.951 . S
H2008 C2033 0.951 . S
H2009 C2035 0.950 . S
H2010 C2036 0.950 . S
H2011 C2038 0.950 . S
H2012 C2041 0.950 . S
H2013 C2042 0.950 . S
H2014 C2044 0.950 . S
H2015 C2045 0.950 . S
C2016 H1998 0.951 . S
C2016 C2017 1.366 . S
C2016 C2018 1.388 . S
C2017 C2016 1.366 . S
C2017 C2021 1.385 . S
C2018 H1999 0.951 . S
C2018 C2016 1.388 . S
C2018 C2019 1.366 . S
C2019 C2018 1.366 . S
C2019 C2020 1.414 . S
C2019 C2022 1.499 . S
C2020 H2000 0.950 . S
C2020 C2019 1.414 . S
C2020 C2021 1.374 . S
C2021 H2001 0.950 . S
C2021 C2017 1.385 . S
C2021 C2020 1.374 . S
C2022 C2019 1.499 . S
C2022 C2023 1.373 . S
C2022 C2024 1.389 . S
C2023 H2002 0.950 . S
C2023 C2022 1.373 . S
C2023 C2039 1.377 . S
C2024 C2022 1.389 . S
C2024 C2025 1.524 . S
C2024 C2038 1.377 . S
C2025 C2024 1.524 . S
C2025 C2026 1.397 . S
C2025 C2030 1.363 . S
C2026 H2003 0.950 . S
C2026 C2025 1.397 . S
C2026 C2027 1.334 . S
C2027 H2004 0.950 . S
C2027 C2026 1.334 . S
C2027 C2028 1.287 . S
C2028 C2027 1.287 . S
C2028 C2029 1.524 . S
C2028 H2047 0.913 . S
C2029 H2005 0.950 . S
C2029 C2028 1.524 . S
C2029 C2030 1.415 . S
C2030 H2006 0.950 . S
C2030 C2025 1.363 . S
C2030 C2029 1.415 . S
C2031 H2007 0.951 . S
C2031 C2032 1.366 . S
C2031 C2033 1.388 . S
C2032 C2031 1.366 . S
C2032 C2036 1.385 . S
C2033 H2008 0.951 . S
C2033 C2031 1.388 . S
C2033 C2034 1.366 . S
C2034 C2033 1.366 . S
C2034 C2035 1.414 . S
C2034 C2037 1.499 . S
C2035 H2009 0.950 . S
C2035 C2034 1.414 . S
C2035 C2036 1.374 . S
C2036 H2010 0.950 . S
C2036 C2032 1.385 . S
C2036 C2035 1.374 . S
C2037 C2034 1.499 . S
C2037 C2038 1.373 . S
C2037 C2039 1.389 . S
C2038 H2011 0.950 . S
C2038 C2024 1.377 . S
C2038 C2037 1.373 . S
C2039 C2023 1.377 . S
C2039 C2037 1.389 . S
C2039 C2040 1.524 . S
C2040 C2039 1.524 . S
C2040 C2041 1.397 . S
C2040 C2045 1.363 . S
C2041 H2012 0.950 . S
C2041 C2040 1.397 . S
C2041 C2042 1.334 . S
C2042 H2013 0.950 . S
C2042 C2041 1.334 . S
C2042 C2043 1.287 . S
C2043 C2042 1.287 . S
C2043 C2044 1.524 . S
C2043 H2046 0.999 . S
C2044 H2014 0.950 . S
C2044 C2043 1.524 . S
C2044 C2045 1.415 . S
C2045 H2015 0.950 . S
C2045 C2040 1.363 . S
C2045 C2044 1.415 . S
H2046 C2043 0.999 . S
H2047 C2028 0.913 . S
H2048 C2066 0.951 . S
H2049 C2068 0.951 . S
H2050 C2070 0.950 . S
H2051 C2071 0.950 . S
H2052 C2073 0.950 . S
H2053 C2076 0.950 . S
H2054 C2077 0.950 . S
H2055 C2079 0.950 . S
H2056 C2080 0.950 . S
H2057 C2081 0.951 . S
H2058 C2083 0.951 . S
H2059 C2085 0.950 . S
H2060 C2086 0.950 . S
H2061 C2088 0.950 . S
H2062 C2091 0.950 . S
H2063 C2092 0.950 . S
H2064 C2094 0.950 . S
H2065 C2095 0.950 . S
C2066 H2048 0.951 . S
C2066 C2067 1.366 . S
C2066 C2068 1.388 . S
C2067 C2066 1.366 . S
C2067 C2071 1.385 . S
C2068 H2049 0.951 . S
C2068 C2066 1.388 . S
C2068 C2069 1.366 . S
C2069 C2068 1.366 . S
C2069 C2070 1.414 . S
C2069 C2072 1.499 . S
C2070 H2050 0.950 . S
C2070 C2069 1.414 . S
C2070 C2071 1.374 . S
C2071 H2051 0.950 . S
C2071 C2067 1.385 . S
C2071 C2070 1.374 . S
C2072 C2069 1.499 . S
C2072 C2073 1.373 1_556 S
C2072 C2074 1.377 1_556 S
C2073 H2052 0.950 . S
C2073 C2072 1.373 1_554 S
C2073 C2089 1.377 . S
C2074 C2072 1.377 1_554 S
C2074 C2075 1.503 1_554 S
C2074 C2088 1.413 . S
C2075 C2074 1.503 1_556 S
C2075 C2076 1.397 . S
C2075 C2080 1.363 . S
C2076 H2053 0.950 . S
C2076 C2075 1.397 . S
C2076 C2077 1.334 . S
C2077 H2054 0.950 . S
C2077 C2076 1.334 . S
C2077 C2078 1.287 . S
C2078 C2077 1.287 . S
C2078 C2079 1.524 . S
C2078 H2097 0.913 . S
C2079 H2055 0.950 . S
C2079 C2078 1.524 . S
C2079 C2080 1.415 . S
C2080 H2056 0.950 . S
C2080 C2075 1.363 . S
C2080 C2079 1.415 . S
C2081 H2057 0.951 . S
C2081 C2082 1.366 . S
C2081 C2083 1.388 . S
C2082 C2081 1.366 . S
C2082 C2086 1.385 . S
C2083 H2058 0.951 . S
C2083 C2081 1.388 . S
C2083 C2084 1.366 . S
C2084 C2083 1.366 . S
C2084 C2085 1.414 . S
C2084 C2087 1.499 . S
C2085 H2059 0.950 . S
C2085 C2084 1.414 . S
C2085 C2086 1.374 . S
C2086 H2060 0.950 . S
C2086 C2082 1.385 . S
C2086 C2085 1.374 . S
C2087 C2084 1.499 . S
C2087 C2088 1.373 . S
C2087 C2089 1.389 . S
C2088 H2061 0.950 . S
C2088 C2074 1.413 . S
C2088 C2087 1.373 . S
C2089 C2073 1.377 . S
C2089 C2087 1.389 . S
C2089 C2090 1.524 . S
C2090 C2089 1.524 . S
C2090 C2091 1.397 . S
C2090 C2095 1.363 . S
C2091 H2062 0.950 . S
C2091 C2090 1.397 . S
C2091 C2092 1.334 . S
C2092 H2063 0.950 . S
C2092 C2091 1.334 . S
C2092 C2093 1.287 . S
C2093 C2092 1.287 . S
C2093 C2094 1.524 . S
C2093 H2096 0.999 . S
C2094 H2064 0.950 . S
C2094 C2093 1.524 . S
C2094 C2095 1.415 . S
C2095 H2065 0.950 . S
C2095 C2090 1.363 . S
C2095 C2094 1.415 . S
H2096 C2093 0.999 . S
H2097 C2078 0.913 . S
H2098 C2116 0.951 . S
H2099 C2118 0.951 . S
H2100 C2120 0.950 . S
H2101 C2121 0.950 . S
H2102 C2123 0.950 . S
H2103 C2126 0.950 . S
H2104 C2127 0.950 . S
H2105 C2129 0.950 . S
H2106 C2130 0.950 . S
H2107 C2131 0.951 . S
H2108 C2133 0.951 . S
H2109 C2135 0.950 . S
H2110 C2136 0.950 . S
H2111 C2138 0.950 . S
H2112 C2141 0.950 . S
H2113 C2142 0.950 . S
H2114 C2144 0.950 . S
H2115 C2145 0.950 . S
C2116 H2098 0.951 . S
C2116 C2117 1.366 . S
C2116 C2118 1.388 . S
C2117 C2116 1.366 . S
C2117 C2121 1.385 . S
C2118 H2099 0.951 . S
C2118 C2116 1.388 . S
C2118 C2119 1.366 . S
C2119 C2118 1.366 . S
C2119 C2120 1.414 . S
C2119 C2122 1.499 . S
C2120 H2100 0.950 . S
C2120 C2119 1.414 . S
C2120 C2121 1.374 . S
C2121 H2101 0.950 . S
C2121 C2117 1.385 . S
C2121 C2120 1.374 . S
C2122 C2119 1.499 . S
C2122 C2123 1.373 . S
C2122 C2124 1.389 . S
C2123 H2102 0.950 . S
C2123 C2122 1.373 . S
C2123 C2139 1.377 . S
C2124 C2122 1.389 . S
C2124 C2125 1.524 . S
C2124 C2138 1.377 . S
C2125 C2124 1.524 . S
C2125 C2126 1.397 . S
C2125 C2130 1.363 . S
C2126 H2103 0.950 . S
C2126 C2125 1.397 . S
C2126 C2127 1.334 . S
C2127 H2104 0.950 . S
C2127 C2126 1.334 . S
C2127 C2128 1.287 . S
C2128 C2127 1.287 . S
C2128 C2129 1.524 . S
C2128 H2147 0.913 . S
C2129 H2105 0.950 . S
C2129 C2128 1.524 . S
C2129 C2130 1.415 . S
C2130 H2106 0.950 . S
C2130 C2125 1.363 . S
C2130 C2129 1.415 . S
C2131 H2107 0.951 . S
C2131 C2132 1.366 . S
C2131 C2133 1.388 . S
C2132 C2131 1.366 . S
C2132 C2136 1.385 . S
C2133 H2108 0.951 . S
C2133 C2131 1.388 . S
C2133 C2134 1.366 . S
C2134 C2133 1.366 . S
C2134 C2135 1.414 . S
C2134 C2137 1.499 . S
C2135 H2109 0.950 . S
C2135 C2134 1.414 . S
C2135 C2136 1.374 . S
C2136 H2110 0.950 . S
C2136 C2132 1.385 . S
C2136 C2135 1.374 . S
C2137 C2134 1.499 . S
C2137 C2138 1.373 . S
C2137 C2139 1.389 . S
C2138 H2111 0.950 . S
C2138 C2124 1.377 . S
C2138 C2137 1.373 . S
C2139 C2123 1.377 . S
C2139 C2137 1.389 . S
C2139 C2140 1.524 . S
C2140 C2139 1.524 . S
C2140 C2141 1.397 . S
C2140 C2145 1.363 . S
C2141 H2112 0.950 . S
C2141 C2140 1.397 . S
C2141 C2142 1.334 . S
C2142 H2113 0.950 . S
C2142 C2141 1.334 . S
C2142 C2143 1.287 . S
C2143 C2142 1.287 . S
C2143 C2144 1.524 . S
C2143 H2146 0.999 . S
C2144 H2114 0.950 . S
C2144 C2143 1.524 . S
C2144 C2145 1.415 . S
C2145 H2115 0.950 . S
C2145 C2140 1.363 . S
C2145 C2144 1.415 . S
H2146 C2143 0.999 . S
H2147 C2128 0.913 . S
H2148 C2166 0.951 . S
H2149 C2168 0.951 . S
H2150 C2170 0.950 . S
H2151 C2171 0.950 . S
H2152 C2173 0.950 . S
H2153 C2176 0.950 . S
H2154 C2177 0.950 . S
H2155 C2179 0.950 . S
H2156 C2180 0.950 . S
H2157 C2181 0.951 . S
H2158 C2183 0.951 . S
H2159 C2185 0.950 . S
H2160 C2186 0.950 . S
H2161 C2188 0.950 . S
H2162 C2191 0.950 . S
H2163 C2192 0.950 . S
H2164 C2194 0.950 . S
H2165 C2195 0.950 . S
C2166 H2148 0.951 . S
C2166 C2167 1.366 . S
C2166 C2168 1.388 . S
C2167 C2166 1.366 . S
C2167 C2171 1.385 . S
C2168 H2149 0.951 . S
C2168 C2166 1.388 . S
C2168 C2169 1.366 . S
C2169 C2168 1.366 . S
C2169 C2170 1.414 . S
C2169 C2172 1.499 . S
C2170 H2150 0.950 . S
C2170 C2169 1.414 . S
C2170 C2171 1.374 . S
C2171 H2151 0.950 . S
C2171 C2167 1.385 . S
C2171 C2170 1.374 . S
C2172 C2169 1.499 . S
C2172 C2173 1.373 . S
C2172 C2174 1.389 . S
C2173 H2152 0.950 . S
C2173 C2172 1.373 . S
C2173 C2189 1.377 . S
C2174 C2172 1.389 . S
C2174 C2175 1.524 . S
C2174 C2188 1.377 . S
C2175 C2174 1.524 . S
C2175 C2176 1.397 . S
C2175 C2180 1.363 . S
C2176 H2153 0.950 . S
C2176 C2175 1.397 . S
C2176 C2177 1.334 . S
C2177 H2154 0.950 . S
C2177 C2176 1.334 . S
C2177 C2178 1.287 . S
C2178 C2177 1.287 . S
C2178 C2179 1.524 . S
C2178 H2197 0.913 . S
C2179 H2155 0.950 . S
C2179 C2178 1.524 . S
C2179 C2180 1.415 . S
C2180 H2156 0.950 . S
C2180 C2175 1.363 . S
C2180 C2179 1.415 . S
C2181 H2157 0.951 . S
C2181 C2182 1.366 . S
C2181 C2183 1.388 . S
C2182 C2181 1.366 . S
C2182 C2186 1.385 . S
C2183 H2158 0.951 . S
C2183 C2181 1.388 . S
C2183 C2184 1.366 . S
C2184 C2183 1.366 . S
C2184 C2185 1.414 . S
C2184 C2187 1.499 . S
C2185 H2159 0.950 . S
C2185 C2184 1.414 . S
C2185 C2186 1.374 . S
C2186 H2160 0.950 . S
C2186 C2182 1.385 . S
C2186 C2185 1.374 . S
C2187 C2184 1.499 . S
C2187 C2188 1.373 . S
C2187 C2189 1.389 . S
C2188 H2161 0.950 . S
C2188 C2174 1.377 . S
C2188 C2187 1.373 . S
C2189 C2173 1.377 . S
C2189 C2187 1.389 . S
C2189 C2190 1.524 . S
C2190 C2189 1.524 . S
C2190 C2191 1.397 . S
C2190 C2195 1.363 . S
C2191 H2162 0.950 . S
C2191 C2190 1.397 . S
C2191 C2192 1.334 . S
C2192 H2163 0.950 . S
C2192 C2191 1.334 . S
C2192 C2193 1.287 . S
C2193 C2192 1.287 . S
C2193 C2194 1.524 . S
C2193 H2196 0.999 . S
C2194 H2164 0.950 . S
C2194 C2193 1.524 . S
C2194 C2195 1.415 . S
C2195 H2165 0.950 . S
C2195 C2190 1.363 . S
C2195 C2194 1.415 . S
H2196 C2193 0.999 . S
H2197 C2178 0.913 . S
H2198 C2216 0.951 . S
H2199 C2218 0.951 . S
H2200 C2220 0.950 . S
H2201 C2221 0.950 . S
H2202 C2223 0.950 . S
H2203 C2226 0.950 . S
H2204 C2227 0.950 . S
H2205 C2229 0.950 . S
H2206 C2230 0.950 . S
H2207 C2231 0.951 . S
H2208 C2233 0.951 . S
H2209 C2235 0.950 . S
H2210 C2236 0.950 . S
H2211 C2238 0.950 . S
H2212 C2241 0.950 . S
H2213 C2242 0.950 . S
H2214 C2244 0.950 . S
H2215 C2245 0.950 . S
C2216 H2198 0.951 . S
C2216 C2217 1.366 . S
C2216 C2218 1.388 . S
C2217 C2216 1.366 . S
C2217 C2221 1.385 . S
C2218 H2199 0.951 . S
C2218 C2216 1.388 . S
C2218 C2219 1.366 . S
C2219 C2218 1.366 . S
C2219 C2220 1.414 . S
C2219 C2222 1.499 . S
C2220 H2200 0.950 . S
C2220 C2219 1.414 . S
C2220 C2221 1.374 . S
C2221 H2201 0.950 . S
C2221 C2217 1.385 . S
C2221 C2220 1.374 . S
C2222 C2219 1.499 . S
C2222 C2223 1.373 . S
C2222 C2224 1.389 . S
C2223 H2202 0.950 . S
C2223 C2222 1.373 . S
C2223 C2239 1.377 . S
C2224 C2222 1.389 . S
C2224 C2225 1.524 . S
C2224 C2238 1.377 . S
C2225 C2224 1.524 . S
C2225 C2226 1.397 . S
C2225 C2230 1.363 . S
C2226 H2203 0.950 . S
C2226 C2225 1.397 . S
C2226 C2227 1.334 . S
C2227 H2204 0.950 . S
C2227 C2226 1.334 . S
C2227 C2228 1.287 . S
C2228 C2227 1.287 . S
C2228 C2229 1.524 . S
C2228 H2247 0.913 . S
C2229 H2205 0.950 . S
C2229 C2228 1.524 . S
C2229 C2230 1.415 . S
C2230 H2206 0.950 . S
C2230 C2225 1.363 . S
C2230 C2229 1.415 . S
C2231 H2207 0.951 . S
C2231 C2232 1.366 . S
C2231 C2233 1.388 . S
C2232 C2231 1.366 . S
C2232 C2236 1.385 . S
C2233 H2208 0.951 . S
C2233 C2231 1.388 . S
C2233 C2234 1.366 . S
C2234 C2233 1.366 . S
C2234 C2235 1.414 . S
C2234 C2237 1.499 . S
C2235 H2209 0.950 . S
C2235 C2234 1.414 . S
C2235 C2236 1.374 . S
C2236 H2210 0.950 . S
C2236 C2232 1.385 . S
C2236 C2235 1.374 . S
C2237 C2234 1.499 . S
C2237 C2238 1.373 . S
C2237 C2239 1.389 . S
C2238 H2211 0.950 . S
C2238 C2224 1.377 . S
C2238 C2237 1.373 . S
C2239 C2223 1.377 . S
C2239 C2237 1.389 . S
C2239 C2240 1.524 . S
C2240 C2239 1.524 . S
C2240 C2241 1.397 . S
C2240 C2245 1.363 . S
C2241 H2212 0.950 . S
C2241 C2240 1.397 . S
C2241 C2242 1.334 . S
C2242 H2213 0.950 . S
C2242 C2241 1.334 . S
C2242 C2243 1.287 . S
C2243 C2242 1.287 . S
C2243 C2244 1.524 . S
C2243 H2246 0.999 . S
C2244 H2214 0.950 . S
C2244 C2243 1.524 . S
C2244 C2245 1.415 . S
C2245 H2215 0.950 . S
C2245 C2240 1.363 . S
C2245 C2244 1.415 . S
H2246 C2243 0.999 . S
H2247 C2228 0.913 . S
H2248 C2266 0.951 . S
H2249 C2268 0.951 . S
H2250 C2270 0.950 . S
H2251 C2271 0.950 . S
H2252 C2273 0.950 . S
H2253 C2276 0.950 . S
H2254 C2277 0.950 . S
H2255 C2279 0.950 . S
H2256 C2280 0.950 . S
H2257 C2281 0.951 . S
H2258 C2283 0.951 . S
H2259 C2285 0.950 . S
H2260 C2286 0.950 . S
H2261 C2288 0.950 . S
H2262 C2291 0.950 . S
H2263 C2292 0.950 . S
H2264 C2294 0.950 . S
H2265 C2295 0.950 . S
C2266 H2248 0.951 . S
C2266 C2267 1.366 . S
C2266 C2268 1.388 . S
C2267 C2266 1.366 . S
C2267 C2271 1.385 . S
C2268 H2249 0.951 . S
C2268 C2266 1.388 . S
C2268 C2269 1.366 . S
C2269 C2268 1.366 . S
C2269 C2270 1.414 . S
C2269 C2272 1.499 . S
C2270 H2250 0.950 . S
C2270 C2269 1.414 . S
C2270 C2271 1.374 . S
C2271 H2251 0.950 . S
C2271 C2267 1.385 . S
C2271 C2270 1.374 . S
C2272 C2269 1.499 . S
C2272 C2273 1.373 . S
C2272 C2274 1.389 . S
C2273 H2252 0.950 . S
C2273 C2272 1.373 . S
C2273 C2289 1.377 . S
C2274 C2272 1.389 . S
C2274 C2275 1.524 . S
C2274 C2288 1.377 . S
C2275 C2274 1.524 . S
C2275 C2276 1.397 . S
C2275 C2280 1.363 . S
C2276 H2253 0.950 . S
C2276 C2275 1.397 . S
C2276 C2277 1.334 . S
C2277 H2254 0.950 . S
C2277 C2276 1.334 . S
C2277 C2278 1.287 . S
C2278 C2277 1.287 . S
C2278 C2279 1.524 . S
C2278 H2297 0.913 . S
C2279 H2255 0.950 . S
C2279 C2278 1.524 . S
C2279 C2280 1.415 . S
C2280 H2256 0.950 . S
C2280 C2275 1.363 . S
C2280 C2279 1.415 . S
C2281 H2257 0.951 . S
C2281 C2282 1.366 . S
C2281 C2283 1.388 . S
C2282 C2281 1.366 . S
C2282 C2286 1.385 . S
C2283 H2258 0.951 . S
C2283 C2281 1.388 . S
C2283 C2284 1.366 . S
C2284 C2283 1.366 . S
C2284 C2285 1.414 . S
C2284 C2287 1.499 . S
C2285 H2259 0.950 . S
C2285 C2284 1.414 . S
C2285 C2286 1.374 . S
C2286 H2260 0.950 . S
C2286 C2282 1.385 . S
C2286 C2285 1.374 . S
C2287 C2284 1.499 . S
C2287 C2288 1.373 . S
C2287 C2289 1.389 . S
C2288 H2261 0.950 . S
C2288 C2274 1.377 . S
C2288 C2287 1.373 . S
C2289 C2273 1.377 . S
C2289 C2287 1.389 . S
C2289 C2290 1.524 . S
C2290 C2289 1.524 . S
C2290 C2291 1.397 . S
C2290 C2295 1.363 . S
C2291 H2262 0.950 . S
C2291 C2290 1.397 . S
C2291 C2292 1.334 . S
C2292 H2263 0.950 . S
C2292 C2291 1.334 . S
C2292 C2293 1.287 . S
C2293 C2292 1.287 . S
C2293 C2294 1.524 . S
C2293 H2296 0.999 . S
C2294 H2264 0.950 . S
C2294 C2293 1.524 . S
C2294 C2295 1.415 . S
C2295 H2265 0.950 . S
C2295 C2290 1.363 . S
C2295 C2294 1.415 . S
H2296 C2293 0.999 . S
H2297 C2278 0.913 . S
H2298 C2316 0.951 . S
H2299 C2318 0.951 . S
H2300 C2320 0.950 . S
H2301 C2321 0.950 . S
H2302 C2323 0.950 . S
H2303 C2326 0.950 . S
H2304 C2327 0.950 . S
H2305 C2329 0.950 . S
H2306 C2330 0.950 . S
H2307 C2331 0.951 . S
H2308 C2333 0.951 . S
H2309 C2335 0.950 . S
H2310 C2336 0.950 . S
H2311 C2338 0.950 . S
H2312 C2341 0.950 . S
H2313 C2342 0.950 . S
H2314 C2344 0.950 . S
H2315 C2345 0.950 . S
C2316 H2298 0.951 . S
C2316 C2317 1.366 . S
C2316 C2318 1.388 . S
C2317 C2316 1.366 . S
C2317 C2321 1.385 . S
C2318 H2299 0.951 . S
C2318 C2316 1.388 . S
C2318 C2319 1.366 . S
C2319 C2318 1.366 . S
C2319 C2320 1.414 . S
C2319 C2322 1.499 . S
C2320 H2300 0.950 . S
C2320 C2319 1.414 . S
C2320 C2321 1.374 . S
C2321 H2301 0.950 . S
C2321 C2317 1.385 . S
C2321 C2320 1.374 . S
C2322 C2319 1.499 . S
C2322 C2323 1.373 . S
C2322 C2324 1.389 . S
C2323 H2302 0.950 . S
C2323 C2322 1.373 . S
C2323 C2339 1.377 . S
C2324 C2322 1.389 . S
C2324 C2325 1.524 . S
C2324 C2338 1.377 . S
C2325 C2324 1.524 . S
C2325 C2326 1.397 . S
C2325 C2330 1.363 . S
C2326 H2303 0.950 . S
C2326 C2325 1.397 . S
C2326 C2327 1.334 . S
C2327 H2304 0.950 . S
C2327 C2326 1.334 . S
C2327 C2328 1.287 . S
C2328 C2327 1.287 . S
C2328 C2329 1.524 . S
C2328 H2347 0.913 . S
C2329 H2305 0.950 . S
C2329 C2328 1.524 . S
C2329 C2330 1.415 . S
C2330 H2306 0.950 . S
C2330 C2325 1.363 . S
C2330 C2329 1.415 . S
C2331 H2307 0.951 . S
C2331 C2332 1.366 . S
C2331 C2333 1.388 . S
C2332 C2331 1.366 . S
C2332 C2336 1.385 . S
C2333 H2308 0.951 . S
C2333 C2331 1.388 . S
C2333 C2334 1.366 . S
C2334 C2333 1.366 . S
C2334 C2335 1.414 . S
C2334 C2337 1.499 . S
C2335 H2309 0.950 . S
C2335 C2334 1.414 . S
C2335 C2336 1.374 . S
C2336 H2310 0.950 . S
C2336 C2332 1.385 . S
C2336 C2335 1.374 . S
C2337 C2334 1.499 . S
C2337 C2338 1.373 . S
C2337 C2339 1.389 . S
C2338 H2311 0.950 . S
C2338 C2324 1.377 . S
C2338 C2337 1.373 . S
C2339 C2323 1.377 . S
C2339 C2337 1.389 . S
C2339 C2340 1.524 . S
C2340 C2339 1.524 . S
C2340 C2341 1.397 . S
C2340 C2345 1.363 . S
C2341 H2312 0.950 . S
C2341 C2340 1.397 . S
C2341 C2342 1.334 . S
C2342 H2313 0.950 . S
C2342 C2341 1.334 . S
C2342 C2343 1.287 . S
C2343 C2342 1.287 . S
C2343 C2344 1.524 . S
C2343 H2346 0.999 . S
C2344 H2314 0.950 . S
C2344 C2343 1.524 . S
C2344 C2345 1.415 . S
C2345 H2315 0.950 . S
C2345 C2340 1.363 . S
C2345 C2344 1.415 . S
H2346 C2343 0.999 . S
H2347 C2328 0.913 . S
H2348 C2366 0.951 . S
H2349 C2368 0.951 . S
H2350 C2370 0.950 . S
H2351 C2371 0.950 . S
H2352 C2373 0.950 . S
H2353 C2376 0.950 . S
H2354 C2377 0.950 . S
H2355 C2379 0.950 . S
H2356 C2380 0.950 . S
H2357 C2381 0.951 . S
H2358 C2383 0.951 . S
H2359 C2385 0.950 . S
H2360 C2386 0.950 . S
H2361 C2388 0.950 . S
H2362 C2391 0.950 . S
H2363 C2392 0.950 . S
H2364 C2394 0.950 . S
H2365 C2395 0.950 . S
C2366 H2348 0.951 . S
C2366 C2367 1.366 . S
C2366 C2368 1.388 . S
C2367 C2366 1.366 . S
C2367 C2371 1.385 . S
C2368 H2349 0.951 . S
C2368 C2366 1.388 . S
C2368 C2369 1.366 . S
C2369 C2368 1.366 . S
C2369 C2370 1.414 . S
C2369 C2372 1.499 . S
C2370 H2350 0.950 . S
C2370 C2369 1.414 . S
C2370 C2371 1.374 . S
C2371 H2351 0.950 . S
C2371 C2367 1.385 . S
C2371 C2370 1.374 . S
C2372 C2369 1.499 . S
C2372 C2373 1.373 . S
C2372 C2374 1.389 . S
C2373 H2352 0.950 . S
C2373 C2372 1.373 . S
C2373 C2389 1.377 . S
C2374 C2372 1.389 . S
C2374 C2375 1.524 . S
C2374 C2388 1.377 . S
C2375 C2374 1.524 . S
C2375 C2376 1.397 . S
C2375 C2380 1.363 . S
C2376 H2353 0.950 . S
C2376 C2375 1.397 . S
C2376 C2377 1.334 . S
C2377 H2354 0.950 . S
C2377 C2376 1.334 . S
C2377 C2378 1.287 . S
C2378 C2377 1.287 . S
C2378 C2379 1.524 . S
C2378 H2397 0.913 . S
C2379 H2355 0.950 . S
C2379 C2378 1.524 . S
C2379 C2380 1.415 . S
C2380 H2356 0.950 . S
C2380 C2375 1.363 . S
C2380 C2379 1.415 . S
C2381 H2357 0.951 . S
C2381 C2382 1.366 . S
C2381 C2383 1.388 . S
C2382 C2381 1.366 . S
C2382 C2386 1.385 . S
C2383 H2358 0.951 . S
C2383 C2381 1.388 . S
C2383 C2384 1.366 . S
C2384 C2383 1.366 . S
C2384 C2385 1.414 . S
C2384 C2387 1.499 . S
C2385 H2359 0.950 . S
C2385 C2384 1.414 . S
C2385 C2386 1.374 . S
C2386 H2360 0.950 . S
C2386 C2382 1.385 . S
C2386 C2385 1.374 . S
C2387 C2384 1.499 . S
C2387 C2388 1.373 . S
C2387 C2389 1.389 . S
C2388 H2361 0.950 . S
C2388 C2374 1.377 . S
C2388 C2387 1.373 . S
C2389 C2373 1.377 . S
C2389 C2387 1.389 . S
C2389 C2390 1.524 . S
C2390 C2389 1.524 . S
C2390 C2391 1.397 . S
C2390 C2395 1.363 . S
C2391 H2362 0.950 . S
C2391 C2390 1.397 . S
C2391 C2392 1.334 . S
C2392 H2363 0.950 . S
C2392 C2391 1.334 . S
C2392 C2393 1.287 . S
C2393 C2392 1.287 . S
C2393 C2394 1.524 . S
C2393 H2396 0.999 . S
C2394 H2364 0.950 . S
C2394 C2393 1.524 . S
C2394 C2395 1.415 . S
C2395 H2365 0.950 . S
C2395 C2390 1.363 . S
C2395 C2394 1.415 . S
H2396 C2393 0.999 . S
H2397 C2378 0.913 . S
H2398 C2416 0.951 . S
H2399 C2418 0.951 . S
H2400 C2420 0.950 . S
H2401 C2421 0.950 . S
H2402 C2423 0.950 . S
H2403 C2426 0.950 . S
H2404 C2427 0.950 . S
H2405 C2429 0.950 . S
H2406 C2430 0.950 . S
H2407 C2431 0.951 . S
H2408 C2433 0.951 . S
H2409 C2435 0.950 . S
H2410 C2436 0.950 . S
H2411 C2438 0.950 . S
H2412 C2441 0.950 . S
H2413 C2442 0.950 . S
H2414 C2444 0.950 . S
H2415 C2445 0.942 1_554 S
C2416 H2398 0.951 . S
C2416 C2417 1.366 . S
C2416 C2418 1.388 . S
C2417 C2416 1.366 . S
C2417 C2421 1.385 . S
C2418 H2399 0.951 . S
C2418 C2416 1.388 . S
C2418 C2419 1.366 . S
C2419 C2418 1.366 . S
C2419 C2420 1.414 . S
C2419 C2422 1.499 . S
C2420 H2400 0.950 . S
C2420 C2419 1.414 . S
C2420 C2421 1.374 . S
C2421 H2401 0.950 . S
C2421 C2417 1.385 . S
C2421 C2420 1.374 . S
C2422 C2419 1.499 . S
C2422 C2423 1.373 . S
C2422 C2424 1.389 . S
C2423 H2402 0.950 . S
C2423 C2422 1.373 . S
C2423 C2439 1.403 . S
C2424 C2422 1.389 . S
C2424 C2425 1.524 . S
C2424 C2438 1.377 . S
C2425 C2424 1.524 . S
C2425 C2426 1.397 . S
C2425 C2430 1.363 . S
C2426 H2403 0.950 . S
C2426 C2425 1.397 . S
C2426 C2427 1.334 . S
C2427 H2404 0.950 . S
C2427 C2426 1.334 . S
C2427 C2428 1.287 . S
C2428 C2427 1.287 . S
C2428 C2429 1.524 . S
C2428 H2447 0.913 . S
C2429 H2405 0.950 . S
C2429 C2428 1.524 . S
C2429 C2430 1.415 . S
C2430 H2406 0.950 . S
C2430 C2425 1.363 . S
C2430 C2429 1.415 . S
C2431 H2407 0.951 . S
C2431 C2432 1.366 . S
C2431 C2433 1.388 . S
C2432 C2431 1.366 . S
C2432 C2436 1.385 . S
C2433 H2408 0.951 . S
C2433 C2431 1.388 . S
C2433 C2434 1.366 . S
C2434 C2433 1.366 . S
C2434 C2435 1.414 . S
C2434 C2437 1.499 . S
C2435 H2409 0.950 . S
C2435 C2434 1.414 . S
C2435 C2436 1.374 . S
C2436 H2410 0.950 . S
C2436 C2432 1.385 . S
C2436 C2435 1.374 . S
C2437 C2434 1.499 . S
C2437 C2438 1.373 1_556 S
C2437 C2439 1.380 1_556 S
C2438 H2411 0.950 . S
C2438 C2424 1.377 . S
C2438 C2437 1.373 1_554 S
C2439 C2423 1.403 . S
C2439 C2437 1.380 1_554 S
C2439 C2440 1.509 1_554 S
C2440 C2439 1.509 1_556 S
C2440 C2441 1.397 . S
C2440 C2445 1.363 . S
C2441 H2412 0.950 . S
C2441 C2440 1.397 . S
C2441 C2442 1.334 . S
C2442 H2413 0.950 . S
C2442 C2441 1.334 . S
C2442 C2443 1.287 . S
C2443 C2442 1.287 . S
C2443 C2444 1.524 . S
C2443 H2446 0.999 . S
C2444 H2414 0.950 . S
C2444 C2443 1.524 . S
C2444 C2445 1.415 . S
C2445 H2415 0.942 1_556 S
C2445 C2440 1.363 . S
C2445 C2444 1.415 . S
H2446 C2443 0.999 . S
H2447 C2428 0.913 . S
C867 C356 2.387 . S
C882 C38 2.387 . S
C917 C393 2.317 . S
C932 C75 2.316 . S
C967 C144 2.388 . S
C982 C250 2.375 1_556 S
C1017 C181 2.317 . S
C1032 C287 2.317 . S
C1067 C462 2.388 . S
C1082 C780 2.375 1_556 S
C1117 C817 2.317 . S
C1132 C499 2.317 . S
C1167 C568 2.387 . S
C1182 C674 2.387 . S
C1217 C605 2.317 . S
C1232 C711 2.317 . S
C1267 C39 2.739 . S
C1282 C569 2.739 . S
C1317 C82 2.053 . S
C1332 C612 2.053 . S
C1367 C145 2.739 . S
C1382 C463 2.738 . S
C1417 C188 2.053 . S
C1432 C506 2.052 . S
C1467 C251 2.738 . S
C1482 C781 2.739 . S
C1517 C824 2.053 . S
C1532 C294 2.053 . S
C1567 C357 2.739 . S
C1582 C675 2.739 . S
C1617 C718 2.053 . S
C1632 C400 2.052 . S
C1667 C728 0.907 . S
C1682 C29 0.908 . S
C1717 C92 0.907 . S
C1732 C771 0.908 . S
C1767 C834 0.907 . S
C1782 C135 0.908 . S
C1817 C665 0.908 . S
C1832 C198 0.907 . S
C1867 C622 0.907 . S
C1882 C241 0.908 . S
C1917 C304 0.906 . S
C1932 C453 0.908 . S
C1967 C347 0.908 . S
C1982 C516 0.907 . S
C2017 C410 0.907 . S
C2032 C559 0.908 . S
C2067 C727 1.728 . S
C2082 C22 1.726 . S
C2117 C91 1.728 . S
C2132 C764 1.727 . S
C2167 C128 1.726 . S
C2182 C833 1.728 . S
C2217 C658 1.727 . S
C2232 C197 1.728 . S
C2267 C621 1.728 . S
C2282 C234 1.727 . S
C2317 C446 1.727 . S
C2332 C303 1.728 . S
C2367 C340 1.727 . S
C2382 C515 1.728 . S
C2417 C552 1.726 . S
C2432 C409 1.728 . S
