# Generated by pormake.
# Topology afw, (4)-cn, num edge types: 1
# Building blocks:
#     Node 0, Type 0, BuildingBlock: AZAVOO_clean_sbu_0, # of connection points: 4
#     Node 1, Type 0, BuildingBlock: AZAVOO_clean_sbu_0, # of connection points: 4
#     Node 2, Type 0, BuildingBlock: AZAVOO_clean_sbu_0, # of connection points: 4
#     Node 3, Type 0, BuildingBlock: AZAVOO_clean_sbu_0, # of connection points: 4
#     Node 4, Type 0, BuildingBlock: AZAVOO_clean_sbu_0, # of connection points: 4
#     Node 5, Type 0, BuildingBlock: AZAVOO_clean_sbu_0, # of connection points: 4
#     Node 6, Type 0, BuildingBlock: AZAVOO_clean_sbu_0, # of connection points: 4
#     Node 7, Type 0, BuildingBlock: AZAVOO_clean_sbu_0, # of connection points: 4
#     Node 8, Type 0, BuildingBlock: AZAVOO_clean_sbu_0, # of connection points: 4
#     Edge 9, Type (0, 0), BuildingBlock: EZIPEK_clean_linker_0, # of connection points: 2
#     Edge 10, Type (0, 0), BuildingBlock: EZIPEK_clean_linker_0, # of connection points: 2
#     Edge 11, Type (0, 0), BuildingBlock: EZIPEK_clean_linker_0, # of connection points: 2
#     Edge 12, Type (0, 0), BuildingBlock: EZIPEK_clean_linker_0, # of connection points: 2
#     Edge 13, Type (0, 0), BuildingBlock: EZIPEK_clean_linker_0, # of connection points: 2
#     Edge 14, Type (0, 0), BuildingBlock: EZIPEK_clean_linker_0, # of connection points: 2
#     Edge 15, Type (0, 0), BuildingBlock: EZIPEK_clean_linker_0, # of connection points: 2
#     Edge 16, Type (0, 0), BuildingBlock: EZIPEK_clean_linker_0, # of connection points: 2
#     Edge 17, Type (0, 0), BuildingBlock: EZIPEK_clean_linker_0, # of connection points: 2
#     Edge 18, Type (0, 0), BuildingBlock: EZIPEK_clean_linker_0, # of connection points: 2
#     Edge 19, Type (0, 0), BuildingBlock: EZIPEK_clean_linker_0, # of connection points: 2
#     Edge 20, Type (0, 0), BuildingBlock: EZIPEK_clean_linker_0, # of connection points: 2
#     Edge 21, Type (0, 0), BuildingBlock: EZIPEK_clean_linker_0, # of connection points: 2
#     Edge 22, Type (0, 0), BuildingBlock: EZIPEK_clean_linker_0, # of connection points: 2
#     Edge 23, Type (0, 0), BuildingBlock: EZIPEK_clean_linker_0, # of connection points: 2
#     Edge 24, Type (0, 0), BuildingBlock: EZIPEK_clean_linker_0, # of connection points: 2
#     Edge 25, Type (0, 0), BuildingBlock: EZIPEK_clean_linker_0, # of connection points: 2
#     Edge 26, Type (0, 0), BuildingBlock: EZIPEK_clean_linker_0, # of connection points: 2
# Relax obj value: 0.305
# Max RMSD: 0.291
# Mean RMSD: 0.262
data_MOF--net-afw--node1-AZAVOO_clean_sbu_0--edge1-EZIPEK_clean_linker_0
_symmetry_space_group_name_H-M    P1
_symmetry_Int_Tables_number       1
_symmetry_cell_setting            triclinic
loop_
_symmetry_equiv_pos_as_xyz
'x, y, z'
_cell_length_a     29.332085
_cell_length_b     27.304647
_cell_length_c     27.370882
_cell_angle_alpha  90.255206
_cell_angle_beta   90.468911
_cell_angle_gamma 119.55929
loop_
_atom_site_label
_atom_site_type_symbol
_atom_site_fract_x
_atom_site_fract_y
_atom_site_fract_z
_atom_type_partial_charge
Mg0 Mg 0.06438 0.27867 0.02269 0.0
O1 O 0.00293 0.18543 0.01545 0.0
O2 O 0.92633 0.1796 -0.00414 0.0
Mg3 Mg 0.93776 0.26939 -0.00294 0.0
C4 C 0.95439 0.15677 0.00462 0.0
C5 C 0.12817 0.21571 0.03887 0.0
O6 O 0.09279 0.19038 0.07268 0.0
O7 O 0.06503 0.2933 0.94111 0.0
O8 O 0.99102 0.29701 0.92971 0.0
O9 O 0.04764 0.27928 0.10266 0.0
O10 O 0.00836 0.3 0.04375 0.0
C11 C 0.03428 0.30245 0.91434 0.0
C12 C 0.01409 0.29474 0.08954 0.0
O13 O 0.12767 0.25436 0.01375 0.0
Mg14 Mg 0.77801 0.78235 0.97124 0.0
O15 O 0.83152 0.87731 -0.01328 0.0
O16 O 0.77824 0.90886 0.01168 0.0
Mg17 Mg 0.69355 0.83726 0.00992 0.0
C18 C 0.82369 0.91705 0.00114 0.0
C19 C 0.88852 0.76391 0.97069 0.0
O20 O 0.8841 0.71652 0.95412 0.0
O21 O 0.76524 0.76 0.05136 0.0
O22 O 0.70696 0.78635 0.06953 0.0
O23 O 0.76751 0.80048 0.89492 0.0
O24 O 0.71377 0.79311 0.95354 0.0
C25 C 0.7336 0.76263 0.08142 0.0
C26 C 0.72609 0.80243 0.9082 0.0
O27 O 0.84871 0.77048 0.97086 0.0
Mg28 Mg 0.22261 0.97657 0.02038 0.0
O29 O 0.22216 0.05792 0.01537 0.0
O30 O 0.29675 0.12671 -0.01377 0.0
Mg31 Mg 0.35137 0.08797 -0.01635 0.0
C32 C 0.25024 0.10833 0.00162 0.0
C33 C 0.09993 0.89222 0.03606 0.0
O34 O 0.11353 0.86381 0.06567 0.0
O35 O 0.22171 0.96622 0.93791 0.0
O36 O 0.30485 0.02856 0.92016 0.0
O37 O 0.2512 0.99623 0.09815 0.0
O38 O 0.30288 0.01842 0.03405 0.0
C39 C 0.25967 0.98802 0.90813 0.0
C40 C 0.29806 0.0196 0.08043 0.0
O41 O 0.13458 0.9373 0.01705 0.0
Mg42 Mg 0.58849 0.53027 0.29433 0.0
O43 O 0.64645 0.49608 0.3008 0.0
O44 O 0.72467 0.57478 0.30739 0.0
Mg45 Mg 0.72006 0.65524 0.29878 0.0
C46 C 0.69627 0.52122 0.30638 0.0
C47 C 0.50433 0.39724 0.3244 0.0
O48 O 0.45654 0.3629 0.33925 0.0
O49 O 0.60166 0.5592 0.37341 0.0
O50 O 0.67736 0.64114 0.37111 0.0
O51 O 0.59388 0.53613 0.21133 0.0
O52 O 0.64478 0.60267 0.26364 0.0
C53 C 0.63659 0.6049 0.39333 0.0
C54 C 0.63235 0.58652 0.21942 0.0
O55 O 0.51693 0.44798 0.31579 0.0
Mg56 Mg 0.52199 0.09585 0.28948 0.0
O57 O 0.54714 0.18977 0.29826 0.0
O58 O 0.47084 0.19014 0.30028 0.0
Mg59 Mg 0.40001 0.10251 0.28755 0.0
C60 C 0.52088 0.21546 0.30223 0.0
C61 C 0.64658 0.14819 0.32496 0.0
O62 O 0.68145 0.13612 0.34302 0.0
O63 O 0.4923 0.07757 0.36745 0.0
O64 O 0.41322 0.07116 0.3611 0.0
O65 O 0.52106 0.09997 0.20643 0.0
O66 O 0.45412 0.08023 0.25399 0.0
C67 C 0.44794 0.06575 0.38517 0.0
C68 C 0.47263 0.08758 0.21095 0.0
O69 O 0.60071 0.10798 0.31588 0.0
Mg70 Mg 0.92436 0.45536 0.28962 0.0
O71 O 0.83561 0.39495 0.2956 0.0
O72 O 0.83066 0.31192 0.31117 0.0
Mg73 Mg 0.90995 0.31539 0.30784 0.0
C74 C 0.80936 0.34251 0.30506 0.0
C75 C 0.8813 0.54578 0.30831 0.0
O76 O 0.89437 0.59877 0.31516 0.0
O77 O 0.93775 0.45206 0.37146 0.0
O78 O 0.94095 0.37185 0.3759 0.0
O79 O 0.92445 0.44028 0.20808 0.0
O80 O 0.93646 0.39109 0.26503 0.0
C81 C 0.94768 0.41787 0.39467 0.0
C82 C 0.93347 0.39989 0.21962 0.0
O83 O 0.91745 0.53401 0.30059 0.0
Mg84 Mg 0.39657 0.93521 0.68156 0.0
O85 O 0.34967 0.83921 0.66812 0.0
O86 O 0.27068 0.82313 0.64264 0.0
Mg87 Mg 0.26537 0.90411 0.64187 0.0
C88 C 0.3027 0.80577 0.65373 0.0
C89 C 0.49223 0.90421 0.67855 0.0
O90 O 0.54273 0.9227 0.6833 0.0
O91 O 0.40442 0.9523 0.60053 0.0
O92 O 0.32609 0.94247 0.5802 0.0
O93 O 0.37039 0.92706 0.75882 0.0
O94 O 0.32858 0.93755 0.69595 0.0
C95 C 0.37327 0.95591 0.56993 0.0
C96 C 0.33176 0.93271 0.74226 0.0
O97 O 0.47549 0.93863 0.6849 0.0
Mg98 Mg 0.1373 0.43101 0.6202 0.0
O99 O 0.18893 0.52754 0.63102 0.0
O100 O 0.13268 0.5557 0.65582 0.0
Mg101 Mg 0.04796 0.4825 0.65404 0.0
C102 C 0.17898 0.56586 0.64568 0.0
C103 C 0.2542 0.4351 0.62778 0.0
O104 O 0.27558 0.40307 0.62185 0.0
O105 O 0.12596 0.41572 0.70148 0.0
O106 O 0.06357 0.43775 0.71808 0.0
O107 O 0.12232 0.43857 0.54138 0.0
O108 O 0.07391 0.44101 0.60146 0.0
C109 C 0.09296 0.41746 0.73038 0.0
C110 C 0.08202 0.44227 0.55527 0.0
O111 O 0.20523 0.41333 0.62034 0.0
Mg112 Mg 0.54296 0.64137 0.68392 0.0
O113 O 0.48911 0.67928 0.66964 0.0
O114 O 0.54577 0.76683 0.64534 0.0
Mg115 Mg 0.63143 0.78868 0.65236 0.0
C116 C 0.4991 0.72748 0.65366 0.0
C117 C 0.42851 0.52141 0.67471 0.0
O118 O 0.40692 0.4663 0.67526 0.0
O119 O 0.55871 0.64016 0.60368 0.0
O120 O 0.6216 0.72865 0.58909 0.0
O121 O 0.554 0.66535 0.76299 0.0
O122 O 0.60229 0.71977 0.70398 0.0
C123 C 0.593 0.67724 0.5761 0.0
C124 C 0.59335 0.71291 0.74982 0.0
O125 O 0.47787 0.55052 0.68009 0.0
C126 C 0.17394 0.12089 0.98156 0.0
C127 C 0.22515 0.14407 0.00207 0.0
C128 C 0.21633 0.22178 0.03729 0.0
C129 C 0.16239 0.19286 0.02417 0.0
N130 N 0.08838 0.11364 -0.0147 0.0
N131 N 0.29495 0.21564 0.05177 0.0
C132 C 0.14077 0.14211 -0.00344 0.0
C133 C 0.24683 0.19491 0.02984 0.0
N134 N 0.15765 0.07933 0.94676 0.0
N135 N 0.23827 0.2747 0.05717 0.0
H136 H 0.31905 0.19809 0.04686 0.0
H137 H 0.30981 0.24833 0.07739 0.0
H138 H 0.21663 0.2947 0.06484 0.0
H139 H 0.27848 0.30046 0.06249 0.0
H140 H 0.1225 0.06384 0.92731 0.0
H141 H 0.18196 0.06449 0.9336 0.0
H142 H 0.0692 0.07293 0.9708 0.0
H143 H 0.06314 0.12921 -0.00681 0.0
C144 C 0.88949 0.00535 0.95889 0.0
C145 C 0.8676 0.976 0.00296 0.0
C146 C 0.90866 0.06504 0.04905 0.0
C147 C 0.92894 0.0945 0.00483 0.0
N148 N 0.95058 0.0935 0.92037 0.0
N149 N 0.86758 0.97511 0.09072 0.0
C150 C 0.92332 0.06479 0.96058 0.0
C151 C 0.88091 0.00513 0.04835 0.0
N152 N 0.87556 0.977 0.91518 0.0
N153 N 0.91436 0.09443 0.09138 0.0
H154 H 0.84798 0.93116 0.09093 0.0
H155 H 0.88 0.99325 0.12524 0.0
H156 H 0.93635 0.13823 0.09367 0.0
H157 H 0.8952 0.07582 0.12362 0.0
H158 H 0.8847 0.99676 0.88141 0.0
H159 H 0.85228 0.93342 0.91242 0.0
H160 H 0.95253 0.07399 0.88832 0.0
H161 H 0.97502 0.1371 0.92046 0.0
C162 C 0.98103 0.83017 0.95134 0.0
C163 C 0.94057 0.81014 -0.01411 0.0
C164 C 0.00496 0.85897 0.05147 0.0
C165 C 0.04524 0.86786 0.01838 0.0
N166 N 0.07201 0.86059 0.9363 0.0
N167 N 0.91161 0.81168 0.06759 0.0
C168 C 0.03361 0.85426 0.9679 0.0
C169 C 0.95175 0.82726 0.03559 0.0
N170 N 0.96881 0.82641 0.90267 0.0
N171 N 0.01782 0.88182 0.09748 0.0
H172 H 0.87269 0.79254 0.05599 0.0
H173 H 0.9165 0.81666 0.10532 0.0
H174 H 0.05655 0.90546 0.10979 0.0
H175 H 0.9908 0.88121 0.1222 0.0
H176 H 0.99678 0.84529 0.87557 0.0
H177 H 0.93023 0.80957 0.89002 0.0
H178 H 0.06449 0.84594 0.90032 0.0
H179 H 0.11095 0.87583 0.94679 0.0
C180 C 0.79923 0.4955 0.35461 0.0
C181 C 0.8251 0.50299 0.30965 0.0
C182 C 0.74441 0.48017 0.26523 0.0
C183 C 0.72457 0.48912 0.30922 0.0
N184 N 0.72289 0.48786 0.39652 0.0
N185 N 0.82013 0.48629 0.22329 0.0
C186 C 0.74817 0.48933 0.35445 0.0
C187 C 0.79624 0.48826 0.26524 0.0
N188 N 0.82525 0.49766 0.39682 0.0
N189 N 0.71464 0.4677 0.22363 0.0
H190 H 0.85775 0.4912 0.22383 0.0
H191 H 0.803 0.47886 0.18869 0.0
H192 H 0.67656 0.46153 0.2243 0.0
H193 H 0.72597 0.46062 0.18963 0.0
H194 H 0.80936 0.49233 0.43151 0.0
H195 H 0.86263 0.50187 0.39621 0.0
H196 H 0.73839 0.49107 0.43144 0.0
H197 H 0.68501 0.48236 0.39571 0.0
C198 C 0.55384 0.30996 0.26657 0.0
C199 C 0.548 0.27725 0.30836 0.0
C200 C 0.5508 0.35142 0.36039 0.0
C201 C 0.54051 0.37461 0.3185 0.0
N202 N 0.54315 0.38541 0.2314 0.0
N203 N 0.55207 0.27031 0.39541 0.0
C204 C 0.54728 0.35801 0.2713 0.0
C205 C 0.55167 0.30005 0.35561 0.0
N206 N 0.56361 0.29334 0.22268 0.0
N207 N 0.55724 0.37768 0.40448 0.0
H208 H 0.55414 0.23335 0.39188 0.0
H209 H 0.54955 0.28142 0.43129 0.0
H210 H 0.55649 0.41545 0.40744 0.0
H211 H 0.56738 0.36499 0.43663 0.0
H212 H 0.57052 0.31614 0.1906 0.0
H213 H 0.56929 0.25857 0.21985 0.0
H214 H 0.54221 0.37217 0.19552 0.0
H215 H 0.53993 0.42165 0.23474 0.0
C216 C 0.68026 0.22897 0.26824 0.0
C217 C 0.66317 0.20791 0.31566 0.0
C218 C 0.72719 0.29788 0.35211 0.0
C219 C 0.7516 0.3133 0.30618 0.0
N220 N 0.74306 0.30725 0.21905 0.0
N221 N 0.65464 0.2271 0.3994 0.0
C222 C 0.72437 0.28377 0.26348 0.0
C223 C 0.68086 0.24484 0.35645 0.0
N224 N 0.65709 0.19461 0.22873 0.0
N225 N 0.75094 0.33217 0.39154 0.0
H226 H 0.62073 0.18786 0.40191 0.0
H227 H 0.66393 0.25197 0.43079 0.0
H228 H 0.78442 0.37153 0.3877 0.0
H229 H 0.738 0.32209 0.42727 0.0
H230 H 0.67001 0.20499 0.19303 0.0
H231 H 0.62424 0.15483 0.23234 0.0
H232 H 0.72485 0.28922 0.18586 0.0
H233 H 0.77557 0.34751 0.21617 0.0
C234 C 0.45766 0.82636 0.61813 0.0
C235 C 0.4576 0.84409 0.66669 0.0
C236 C 0.43943 0.75213 0.69628 0.0
C237 C 0.45786 0.74372 0.6513 0.0
N238 N 0.46572 0.75888 0.56524 0.0
N239 N 0.43577 0.82075 0.75077 0.0
C240 C 0.45869 0.77539 0.61032 0.0
C241 C 0.44256 0.80502 0.70525 0.0
N242 N 0.46035 0.86036 0.58061 0.0
N243 N 0.42192 0.71086 0.7305 0.0
H244 H 0.4366 0.85897 0.75689 0.0
H245 H 0.42993 0.79671 0.78191 0.0
H246 H 0.41898 0.67187 0.72309 0.0
H247 H 0.40591 0.71317 0.76365 0.0
H248 H 0.45986 0.85027 0.54385 0.0
H249 H 0.46015 0.89797 0.58706 0.0
H250 H 0.47033 0.78133 0.53333 0.0
H251 H 0.46644 0.72124 0.56051 0.0
C252 C 0.25708 0.71765 0.6043 0.0
C253 C 0.28343 0.74434 0.64835 0.0
C254 C 0.25558 0.65126 0.68375 0.0
C255 C 0.22038 0.62589 0.64384 0.0
N256 N 0.18383 0.63595 0.56764 0.0
N257 N 0.30595 0.73625 0.73206 0.0
C258 C 0.2205 0.65928 0.60421 0.0
C259 C 0.28331 0.71118 0.68843 0.0
N260 N 0.2672 0.74829 0.56248 0.0
N261 N 0.26152 0.61815 0.71757 0.0
H262 H 0.32541 0.77965 0.73768 0.0
H263 H 0.30215 0.71382 0.76386 0.0
H264 H 0.24056 0.57427 0.71551 0.0
H265 H 0.29036 0.63408 0.74483 0.0
H266 H 0.25255 0.73011 0.52828 0.0
H267 H 0.29492 0.79105 0.5613 0.0
H268 H 0.17863 0.6596 0.54064 0.0
H269 H 0.15548 0.59354 0.56679 0.0
C270 C 0.30262 0.50447 0.69233 0.0
C271 C 0.28881 0.49443 0.64231 0.0
C272 C 0.38025 0.55156 0.6199 0.0
C273 C 0.39376 0.54578 0.66833 0.0
N274 N 0.37372 0.54326 0.75286 0.0
N275 N 0.30934 0.52992 0.56133 0.0
C276 C 0.35669 0.53291 0.70551 0.0
C277 C 0.32623 0.52732 0.60724 0.0
N278 N 0.26411 0.48132 0.72621 0.0
N279 N 0.41869 0.5748 0.58594 0.0
H280 H 0.26929 0.5101 0.55292 0.0
H281 H 0.33403 0.55378 0.53336 0.0
H282 H 0.45803 0.59208 0.59606 0.0
H283 H 0.41186 0.57702 0.54887 0.0
H284 H 0.27086 0.48312 0.76372 0.0
H285 H 0.22474 0.46016 0.71552 0.0
H286 H 0.3493 0.53583 0.78255 0.0
H287 H 0.41375 0.56291 0.76135 0.0
C288 C 0.04678 0.30033 0.82406 0.0
C289 C 0.05426 0.33165 0.86756 0.0
C290 C 0.09688 0.41998 0.82174 0.0
C291 C 0.08342 0.38831 0.7777 0.0
N292 N 0.04139 0.29837 0.73561 0.0
N293 N 0.08424 0.42074 0.90912 0.0
C294 C 0.05776 0.32844 0.77844 0.0
C295 C 0.07898 0.39142 0.86681 0.0
N296 N 0.02949 0.24386 0.82649 0.0
N297 N 0.12799 0.47722 0.8204 0.0
H298 H 0.07404 0.40177 0.94329 0.0
H299 H 0.09597 0.46346 0.91027 0.0
H300 H 0.14181 0.49919 0.78783 0.0
H301 H 0.14379 0.5025 0.85138 0.0
H302 H 0.02843 0.21954 0.79664 0.0
H303 H 0.02013 0.22207 0.85941 0.0
H304 H 0.01735 0.25486 0.73393 0.0
H305 H 0.04851 0.31711 0.70134 0.0
C306 C 0.63513 0.7765 0.87461 0.0
C307 C 0.69064 0.80505 0.86997 0.0
C308 C 0.68221 0.79049 0.78188 0.0
C309 C 0.62679 0.7562 0.78685 0.0
N310 N 0.55159 0.74224 0.83264 0.0
N311 N 0.76154 0.86607 0.81829 0.0
C312 C 0.60353 0.75773 0.83159 0.0
C313 C 0.712 0.82184 0.82303 0.0
N314 N 0.61212 0.76532 0.91925 0.0
N315 N 0.70776 0.78994 0.74053 0.0
H316 H 0.78316 0.8897 0.84862 0.0
H317 H 0.77795 0.88268 0.78452 0.0
H318 H 0.68992 0.76644 0.70929 0.0
H319 H 0.74853 0.80992 0.73881 0.0
H320 H 0.57259 0.73645 0.92428 0.0
H321 H 0.63208 0.78551 0.95102 0.0
H322 H 0.53335 0.74657 0.86357 0.0
H323 H 0.52853 0.73156 0.80091 0.0
C324 C 0.2703 0.89545 0.812 0.0
C325 C 0.29509 0.93739 0.77621 0.0
C326 C 0.26654 0.99667 0.81841 0.0
C327 C 0.25474 0.96184 0.8596 0.0
N328 N 0.24033 0.87466 0.89544 0.0
N329 N 0.31596 0.02868 0.744 0.0
C330 C 0.25358 0.90929 0.85595 0.0
C331 C 0.29158 0.98755 0.77806 0.0
N332 N 0.26322 0.84273 0.80381 0.0
N333 N 0.25489 0.03931 0.81888 0.0
H334 H 0.33534 0.02478 0.71387 0.0
H335 H 0.31998 0.06864 0.74726 0.0
H336 H 0.23658 0.04614 0.84865 0.0
H337 H 0.25829 0.06361 0.78845 0.0
H338 H 0.24157 0.8087 0.82657 0.0
H339 H 0.27476 0.83189 0.7714 0.0
H340 H 0.24551 0.83962 0.89705 0.0
H341 H 0.22589 0.88202 0.92762 0.0
C342 C 0.42489 0.11402 0.15005 0.0
C343 C 0.43599 0.07291 0.16919 0.0
C344 C 0.35947 0.99807 0.12631 0.0
C345 C 0.34486 0.03835 0.11196 0.0
N346 N 0.362 0.13401 0.10895 0.0
N347 N 0.41478 0.97614 0.1774 0.0
C348 C 0.3774 0.09637 0.12312 0.0
C349 C 0.40388 0.01507 0.15727 0.0
N350 N 0.46004 0.16971 0.15781 0.0
N351 N 0.33144 0.94374 0.10941 0.0
H352 H 0.4489 0.98727 0.19761 0.0
H353 H 0.3892 0.93291 0.17607 0.0
H354 H 0.29745 0.92892 0.08811 0.0
H355 H 0.34354 0.91399 0.11361 0.0
H356 H 0.45672 0.2027 0.14269 0.0
H357 H 0.49515 0.18286 0.17692 0.0
H358 H 0.38154 0.17644 0.11865 0.0
H359 H 0.3274 0.12194 0.08926 0.0
C360 C 0.0277 0.37207 0.14688 0.0
C361 C 0.99282 0.31922 0.12491 0.0
C362 C 0.91753 0.32365 0.15885 0.0
C363 C 0.95281 0.37406 0.18381 0.0
N364 N 0.04131 0.44308 0.20725 0.0
N365 N 0.90542 0.24184 0.11222 0.0
C366 C 0.00782 0.39727 0.17946 0.0
C367 C 0.93783 0.29423 0.13137 0.0
N368 N 0.07953 0.39996 0.13445 0.0
N369 N 0.86486 0.30447 0.16121 0.0
H370 H 0.91941 0.21953 0.09217 0.0
H371 H 0.86539 0.21876 0.11875 0.0
H372 H 0.8493 0.32502 0.18162 0.0
H373 H 0.8368 0.27068 0.14072 0.0
H374 H 0.1053 0.44162 0.14434 0.0
H375 H 0.09631 0.38356 0.11069 0.0
H376 H 0.08121 0.4569 0.21096 0.0
H377 H 0.02893 0.46546 0.22928 0.0
C378 C 0.70338 0.63614 0.15885 0.0
C379 C 0.65718 0.62892 0.18116 0.0
C380 C 0.67673 0.72274 0.15505 0.0
C381 C 0.7181 0.72649 0.12618 0.0
N382 N 0.78606 0.70168 0.12209 0.0
N383 N 0.59626 0.66215 0.19705 0.0
C384 C 0.73592 0.68718 0.13387 0.0
C385 C 0.64287 0.67139 0.17826 0.0
N386 N 0.71572 0.59404 0.16137 0.0
N387 N 0.67277 0.7698 0.16365 0.0
H388 H 0.57005 0.62456 0.21394 0.0
H389 H 0.58142 0.68943 0.1917 0.0
H390 H 0.7014 0.80954 0.15216 0.0
H391 H 0.64595 0.7709 0.18771 0.0
H392 H 0.74631 0.59423 0.1422 0.0
H393 H 0.69244 0.55652 0.17977 0.0
H394 H 0.80306 0.67672 0.12893 0.0
H395 H 0.81295 0.74273 0.11245 0.0
C396 C 0.99066 0.40541 0.5208 0.0
C397 C 0.04541 0.44469 0.51882 0.0
C398 C 0.0332 0.47552 0.43813 0.0
C399 C 0.97868 0.43659 0.44054 0.0
N400 N 0.9036 0.37623 0.48812 0.0
N401 N 0.11672 0.52534 0.48055 0.0
C402 C 0.95683 0.40581 0.48352 0.0
C403 C 0.06589 0.48261 0.47917 0.0
N404 N 0.97137 0.36431 0.55548 0.0
N405 N 0.05455 0.50271 0.39539 0.0
H406 H 0.14284 0.53038 0.50865 0.0
H407 H 0.13192 0.55841 0.45584 0.0
H408 H 0.03232 0.50014 0.36461 0.0
H409 H 0.09472 0.52521 0.38921 0.0
H410 H 0.93294 0.33112 0.55513 0.0
H411 H 0.99446 0.35955 0.58201 0.0
H412 H 0.88496 0.35704 0.52043 0.0
H413 H 0.87831 0.37595 0.46089 0.0
C414 C 0.6057 0.66132 0.43979 0.0
C415 C 0.62436 0.62209 0.44017 0.0
C416 C 0.62489 0.62164 0.52936 0.0
C417 C 0.60371 0.6586 0.52914 0.0
N418 N 0.57051 0.71135 0.48592 0.0
N419 N 0.64561 0.55915 0.48317 0.0
C420 C 0.59343 0.67815 0.48478 0.0
C421 C 0.63201 0.6004 0.48436 0.0
N422 N 0.59948 0.682 0.39623 0.0
N423 N 0.64073 0.60927 0.57251 0.0
H424 H 0.65301 0.5442 0.45074 0.0
H425 H 0.64607 0.53691 0.51376 0.0
H426 H 0.63714 0.62477 0.6063 0.0
H427 H 0.66146 0.58753 0.57483 0.0
H428 H 0.59083 0.71445 0.39298 0.0
H429 H 0.6047 0.66794 0.36235 0.0
H430 H 0.55848 0.72438 0.4552 0.0
H431 H 0.56065 0.72395 0.51832 0.0
C432 C 0.41017 0.04233 0.51902 0.0
C433 C 0.39498 0.98445 0.52327 0.0
C434 C 0.42246 0.98273 0.43929 0.0
C435 C 0.43358 0.03938 0.43377 0.0
N436 N 0.43583 0.12275 0.46616 0.0
N437 N 0.38352 0.89798 0.48854 0.0
C438 C 0.42687 0.06912 0.47308 0.0
C439 C 0.40072 0.95429 0.48382 0.0
N440 N 0.41014 0.07202 0.55945 0.0
N441 N 0.43235 0.95609 0.40179 0.0
H442 H 0.3687 0.87644 0.5211 0.0
H443 H 0.38106 0.87159 0.4599 0.0
H444 H 0.44494 0.97388 0.36749 0.0
H445 H 0.43081 0.91737 0.405 0.0
H446 H 0.42596 0.11552 0.56035 0.0
H447 H 0.39761 0.05376 0.59364 0.0
H448 H 0.42554 0.14442 0.49109 0.0
H449 H 0.45148 0.14505 0.43407 0.0
loop_
_geom_bond_atom_site_label_1
_geom_bond_atom_site_label_2
_geom_bond_distance
_geom_bond_site_symmetry_2
_ccdc_geom_bond_type
Mg0 O1 2.028 1_455 S
Mg0 O7 1.986 1_554 S
Mg0 O9 2.114 . S
Mg0 O10 2.251 1_455 S
Mg0 O13 2.010 . S
O1 Mg0 2.028 1_655 S
O1 C4 1.250 1_554 S
O2 Mg3 2.028 . S
O2 C4 1.248 . S
Mg3 O2 2.028 . S
Mg3 O8 2.032 . S
Mg3 O10 2.079 1_556 S
C4 O1 1.250 1_556 S
C4 O2 1.248 . S
C5 O6 1.264 . S
C5 O13 1.249 . S
O6 C5 1.264 . S
O7 Mg0 1.986 1_556 S
O7 C11 1.246 . S
O8 Mg3 2.032 . S
O8 C11 1.259 1_655 S
O9 Mg0 2.114 . S
O9 C12 1.252 1_455 S
O10 Mg0 2.251 1_655 S
O10 Mg3 2.079 1_554 S
O10 C12 1.273 . S
C11 O7 1.246 . S
C11 O8 1.259 1_455 S
C12 O9 1.252 1_655 S
C12 O10 1.273 . S
O13 Mg0 2.010 . S
O13 C5 1.249 . S
Mg14 O15 2.029 . S
Mg14 O21 1.987 . S
Mg14 O23 2.113 1_554 S
Mg14 O24 2.251 1_554 S
Mg14 O27 2.009 1_554 S
O15 Mg14 2.029 . S
O15 C18 1.250 . S
O16 Mg17 2.028 . S
O16 C18 1.248 . S
Mg17 O16 2.028 . S
Mg17 O22 2.032 . S
Mg17 O24 2.079 1_554 S
C18 O15 1.250 . S
C18 O16 1.248 . S
C19 O20 1.264 . S
C19 O27 1.256 . S
O20 C19 1.264 . S
O21 Mg14 1.987 . S
O21 C25 1.246 . S
O22 Mg17 2.032 . S
O22 C25 1.259 . S
O23 Mg14 2.113 1_556 S
O23 C26 1.252 . S
O24 Mg14 2.251 1_556 S
O24 Mg17 2.079 1_556 S
O24 C26 1.273 . S
C25 O21 1.246 . S
C25 O22 1.259 . S
C26 O23 1.252 . S
C26 O24 1.273 . S
O27 Mg14 2.009 1_556 S
O27 C19 1.256 . S
Mg28 O29 2.028 1_565 S
Mg28 O35 1.986 1_554 S
Mg28 O37 2.114 1_565 S
Mg28 O38 2.251 1_565 S
Mg28 O41 2.010 . S
O29 Mg28 2.028 1_545 S
O29 C32 1.250 1_554 S
O30 Mg31 2.028 . S
O30 C32 1.248 . S
Mg31 O30 2.028 . S
Mg31 O36 2.032 . S
Mg31 O38 2.079 1_556 S
C32 O29 1.250 1_556 S
C32 O30 1.248 . S
C33 O34 1.264 . S
C33 O41 1.249 . S
O34 C33 1.264 . S
O35 Mg28 1.986 1_556 S
O35 C39 1.246 1_565 S
O36 Mg31 2.032 . S
O36 C39 1.259 . S
O37 Mg28 2.114 1_545 S
O37 C40 1.252 . S
O38 Mg28 2.251 1_545 S
O38 Mg31 2.079 1_554 S
O38 C40 1.273 . S
C39 O35 1.246 1_545 S
C39 O36 1.259 . S
C40 O37 1.252 . S
C40 O38 1.273 . S
O41 Mg28 2.010 . S
O41 C33 1.249 . S
Mg42 O43 2.028 . S
Mg42 O49 1.986 . S
Mg42 O51 2.114 . S
Mg42 O52 2.251 . S
Mg42 O55 2.010 . S
O43 Mg42 2.028 . S
O43 C46 1.250 . S
O44 Mg45 2.028 . S
O44 C46 1.248 . S
Mg45 O44 2.028 . S
Mg45 O50 2.032 . S
Mg45 O52 2.079 . S
C46 O43 1.250 . S
C46 O44 1.248 . S
C47 O48 1.264 . S
C47 O55 1.249 . S
O48 C47 1.264 . S
O49 Mg42 1.986 . S
O49 C53 1.246 . S
O50 Mg45 2.032 . S
O50 C53 1.259 . S
O51 Mg42 2.114 . S
O51 C54 1.252 . S
O52 Mg42 2.251 . S
O52 Mg45 2.079 . S
O52 C54 1.273 . S
C53 O49 1.246 . S
C53 O50 1.259 . S
C54 O51 1.252 . S
C54 O52 1.273 . S
O55 Mg42 2.010 . S
O55 C47 1.249 . S
Mg56 O57 2.028 . S
Mg56 O63 1.986 . S
Mg56 O65 2.114 . S
Mg56 O66 2.251 . S
Mg56 O69 2.010 . S
O57 Mg56 2.028 . S
O57 C60 1.250 . S
O58 Mg59 2.028 . S
O58 C60 1.248 . S
Mg59 O58 2.028 . S
Mg59 O64 2.032 . S
Mg59 O66 2.079 . S
C60 O57 1.250 . S
C60 O58 1.248 . S
C61 O62 1.264 . S
C61 O69 1.249 . S
O62 C61 1.264 . S
O63 Mg56 1.986 . S
O63 C67 1.246 . S
O64 Mg59 2.032 . S
O64 C67 1.259 . S
O65 Mg56 2.114 . S
O65 C68 1.252 . S
O66 Mg56 2.251 . S
O66 Mg59 2.079 . S
O66 C68 1.273 . S
C67 O63 1.246 . S
C67 O64 1.259 . S
C68 O65 1.252 . S
C68 O66 1.273 . S
O69 Mg56 2.010 . S
O69 C61 1.249 . S
Mg70 O71 2.028 . S
Mg70 O77 1.986 . S
Mg70 O79 2.114 . S
Mg70 O80 2.251 . S
Mg70 O83 2.010 . S
O71 Mg70 2.028 . S
O71 C74 1.250 . S
O72 Mg73 2.028 . S
O72 C74 1.248 . S
Mg73 O72 2.028 . S
Mg73 O78 2.032 . S
Mg73 O80 2.079 . S
C74 O71 1.250 . S
C74 O72 1.248 . S
C75 O76 1.264 . S
C75 O83 1.249 . S
O76 C75 1.264 . S
O77 Mg70 1.986 . S
O77 C81 1.246 . S
O78 Mg73 2.032 . S
O78 C81 1.259 . S
O79 Mg70 2.114 . S
O79 C82 1.252 . S
O80 Mg70 2.251 . S
O80 Mg73 2.079 . S
O80 C82 1.273 . S
C81 O77 1.246 . S
C81 O78 1.259 . S
C82 O79 1.252 . S
C82 O80 1.273 . S
O83 Mg70 2.010 . S
O83 C75 1.249 . S
Mg84 O85 2.028 . S
Mg84 O91 1.986 . S
Mg84 O93 2.114 . S
Mg84 O94 2.251 . S
Mg84 O97 2.010 . S
O85 Mg84 2.028 . S
O85 C88 1.250 . S
O86 Mg87 2.028 . S
O86 C88 1.248 . S
Mg87 O86 2.028 . S
Mg87 O92 2.032 . S
Mg87 O94 2.079 . S
C88 O85 1.250 . S
C88 O86 1.248 . S
C89 O90 1.264 . S
C89 O97 1.249 . S
O90 C89 1.264 . S
O91 Mg84 1.986 . S
O91 C95 1.246 . S
O92 Mg87 2.032 . S
O92 C95 1.259 . S
O93 Mg84 2.114 . S
O93 C96 1.252 . S
O94 Mg84 2.251 . S
O94 Mg87 2.079 . S
O94 C96 1.273 . S
C95 O91 1.246 . S
C95 O92 1.259 . S
C96 O93 1.252 . S
C96 O94 1.273 . S
O97 Mg84 2.010 . S
O97 C89 1.249 . S
Mg98 O99 2.028 . S
Mg98 O105 1.986 . S
Mg98 O107 2.114 . S
Mg98 O108 2.251 . S
Mg98 O111 2.010 . S
O99 Mg98 2.028 . S
O99 C102 1.250 . S
O100 Mg101 2.028 . S
O100 C102 1.248 . S
Mg101 O100 2.028 . S
Mg101 O106 2.032 . S
Mg101 O108 2.079 . S
C102 O99 1.250 . S
C102 O100 1.248 . S
C103 O104 1.264 . S
C103 O111 1.249 . S
O104 C103 1.264 . S
O105 Mg98 1.986 . S
O105 C109 1.246 . S
O106 Mg101 2.032 . S
O106 C109 1.259 . S
O107 Mg98 2.114 . S
O107 C110 1.252 . S
O108 Mg98 2.251 . S
O108 Mg101 2.079 . S
O108 C110 1.273 . S
C109 O105 1.246 . S
C109 O106 1.259 . S
C110 O107 1.252 . S
C110 O108 1.273 . S
O111 Mg98 2.010 . S
O111 C103 1.249 . S
Mg112 O113 2.028 . S
Mg112 O119 1.986 . S
Mg112 O121 2.114 . S
Mg112 O122 2.251 . S
Mg112 O125 2.010 . S
O113 Mg112 2.028 . S
O113 C116 1.250 . S
O114 Mg115 2.028 . S
O114 C116 1.248 . S
Mg115 O114 2.028 . S
Mg115 O120 2.032 . S
Mg115 O122 2.079 . S
C116 O113 1.250 . S
C116 O114 1.248 . S
C117 O118 1.264 . S
C117 O125 1.249 . S
O118 C117 1.264 . S
O119 Mg112 1.986 . S
O119 C123 1.246 . S
O120 Mg115 2.032 . S
O120 C123 1.259 . S
O121 Mg112 2.114 . S
O121 C124 1.252 . S
O122 Mg112 2.251 . S
O122 Mg115 2.079 . S
O122 C124 1.273 . S
C123 O119 1.246 . S
C123 O120 1.259 . S
C124 O121 1.252 . S
C124 O122 1.273 . S
O125 Mg112 2.010 . S
O125 C117 1.249 . S
C126 C127 1.361 1_554 S
C126 C132 1.386 . S
C126 N134 1.351 1_554 S
C127 C126 1.361 1_556 S
C127 C133 1.363 1_556 S
C128 C129 1.363 . S
C128 C133 1.379 . S
C128 N135 1.356 . S
C129 C128 1.363 . S
C129 C132 1.363 . S
N130 C132 1.356 . S
N130 H142 0.984 . S
N130 H143 0.985 . S
N131 C133 1.357 . S
N131 H136 0.984 1_554 S
N131 H137 0.985 . S
C132 C126 1.386 . S
C132 C129 1.363 . S
C132 N130 1.356 . S
C133 C127 1.363 1_554 S
C133 C128 1.379 . S
C133 N131 1.357 . S
N134 C126 1.351 1_556 S
N134 H140 0.984 . S
N134 H141 0.984 . S
N135 C128 1.356 . S
N135 H138 0.984 . S
N135 H139 0.985 . S
H136 N131 0.984 1_556 S
H137 N131 0.985 . S
H138 N135 0.984 . S
H139 N135 0.985 . S
H140 N134 0.984 . S
H141 N134 0.984 . S
H142 N130 0.984 . S
H143 N130 0.985 . S
C144 C145 1.363 1_556 S
C144 C150 1.379 1_565 S
C144 N152 1.356 . S
C145 C144 1.363 1_554 S
C145 C151 1.363 1_565 S
C146 C147 1.363 1_554 S
C146 C151 1.379 . S
C146 N153 1.356 . S
C147 C146 1.363 1_556 S
C147 C150 1.363 . S
N148 C150 1.356 . S
N148 H160 0.984 . S
N148 H161 0.985 . S
N149 C151 1.356 1_565 S
N149 H154 0.984 . S
N149 H155 0.985 . S
C150 C144 1.379 1_545 S
C150 C147 1.363 . S
C150 N148 1.356 . S
C151 C145 1.363 1_545 S
C151 C146 1.379 . S
C151 N149 1.356 1_545 S
N152 C144 1.356 . S
N152 H158 0.984 . S
N152 H159 0.984 . S
N153 C146 1.356 . S
N153 H156 0.984 . S
N153 H157 0.985 . S
H154 N149 0.984 . S
H155 N149 0.985 . S
H156 N153 0.984 . S
H157 N153 0.985 . S
H158 N152 0.984 . S
H159 N152 0.984 . S
H160 N148 0.984 . S
H161 N148 0.985 . S
C162 C163 1.358 1_455 S
C162 C168 1.385 . S
C162 N170 1.352 1_455 S
C163 C162 1.358 1_655 S
C163 C169 1.363 1_556 S
C164 C165 1.363 . S
C164 C169 1.379 1_455 S
C164 N171 1.356 . S
C165 C164 1.363 . S
C165 C168 1.363 1_554 S
N166 C168 1.356 . S
N166 H178 0.984 . S
N166 H179 0.985 . S
N167 C169 1.356 . S
N167 H172 0.984 . S
N167 H173 0.985 . S
C168 C162 1.385 . S
C168 C165 1.363 1_556 S
C168 N166 1.356 . S
C169 C163 1.363 1_554 S
C169 C164 1.379 1_655 S
C169 N167 1.356 . S
N170 C162 1.352 1_655 S
N170 H176 0.984 . S
N170 H177 0.984 . S
N171 C164 1.356 . S
N171 H174 0.984 . S
N171 H175 0.985 . S
H172 N167 0.984 . S
H173 N167 0.985 . S
H174 N171 0.984 . S
H175 N171 0.985 . S
H176 N170 0.984 . S
H177 N170 0.984 . S
H178 N166 0.984 . S
H179 N166 0.985 . S
C180 C181 1.363 . S
C180 C186 1.379 . S
C180 N188 1.356 . S
C181 C180 1.363 . S
C181 C187 1.363 . S
C182 C183 1.363 . S
C182 C187 1.379 . S
C182 N189 1.356 . S
C183 C182 1.363 . S
C183 C186 1.363 . S
N184 C186 1.356 . S
N184 H196 0.984 . S
N184 H197 0.985 . S
N185 C187 1.356 . S
N185 H190 0.984 . S
N185 H191 0.985 . S
C186 C180 1.379 . S
C186 C183 1.363 . S
C186 N184 1.356 . S
C187 C181 1.363 . S
C187 C182 1.379 . S
C187 N185 1.356 . S
N188 C180 1.356 . S
N188 H194 0.984 . S
N188 H195 0.984 . S
N189 C182 1.356 . S
N189 H192 0.984 . S
N189 H193 0.985 . S
H190 N185 0.984 . S
H191 N185 0.985 . S
H192 N189 0.984 . S
H193 N189 0.985 . S
H194 N188 0.984 . S
H195 N188 0.984 . S
H196 N184 0.984 . S
H197 N184 0.985 . S
C198 C199 1.363 . S
C198 C204 1.379 . S
C198 N206 1.356 . S
C199 C198 1.363 . S
C199 C205 1.363 . S
C200 C201 1.363 . S
C200 C205 1.379 . S
C200 N207 1.356 . S
C201 C200 1.363 . S
C201 C204 1.363 . S
N202 C204 1.356 . S
N202 H214 0.984 . S
N202 H215 0.985 . S
N203 C205 1.356 . S
N203 H208 0.984 . S
N203 H209 0.985 . S
C204 C198 1.379 . S
C204 C201 1.363 . S
C204 N202 1.356 . S
C205 C199 1.363 . S
C205 C200 1.379 . S
C205 N203 1.356 . S
N206 C198 1.356 . S
N206 H212 0.984 . S
N206 H213 0.984 . S
N207 C200 1.356 . S
N207 H210 0.984 . S
N207 H211 0.985 . S
H208 N203 0.984 . S
H209 N203 0.985 . S
H210 N207 0.984 . S
H211 N207 0.985 . S
H212 N206 0.984 . S
H213 N206 0.984 . S
H214 N202 0.984 . S
H215 N202 0.985 . S
C216 C217 1.363 . S
C216 C222 1.379 . S
C216 N224 1.356 . S
C217 C216 1.363 . S
C217 C223 1.363 . S
C218 C219 1.363 . S
C218 C223 1.379 . S
C218 N225 1.356 . S
C219 C218 1.363 . S
C219 C222 1.363 . S
N220 C222 1.356 . S
N220 H232 0.984 . S
N220 H233 0.985 . S
N221 C223 1.356 . S
N221 H226 0.984 . S
N221 H227 0.985 . S
C222 C216 1.379 . S
C222 C219 1.363 . S
C222 N220 1.356 . S
C223 C217 1.363 . S
C223 C218 1.379 . S
C223 N221 1.356 . S
N224 C216 1.356 . S
N224 H230 0.984 . S
N224 H231 0.984 . S
N225 C218 1.356 . S
N225 H228 0.984 . S
N225 H229 0.985 . S
H226 N221 0.984 . S
H227 N221 0.985 . S
H228 N225 0.984 . S
H229 N225 0.985 . S
H230 N224 0.984 . S
H231 N224 0.984 . S
H232 N220 0.984 . S
H233 N220 0.985 . S
C234 C235 1.363 . S
C234 C240 1.379 . S
C234 N242 1.356 . S
C235 C234 1.363 . S
C235 C241 1.363 . S
C236 C237 1.363 . S
C236 C241 1.379 . S
C236 N243 1.356 . S
C237 C236 1.363 . S
C237 C240 1.363 . S
N238 C240 1.356 . S
N238 H250 0.984 . S
N238 H251 0.985 . S
N239 C241 1.356 . S
N239 H244 0.984 . S
N239 H245 0.985 . S
C240 C234 1.379 . S
C240 C237 1.363 . S
C240 N238 1.356 . S
C241 C235 1.363 . S
C241 C236 1.379 . S
C241 N239 1.356 . S
N242 C234 1.356 . S
N242 H248 0.984 . S
N242 H249 0.984 . S
N243 C236 1.356 . S
N243 H246 0.984 . S
N243 H247 0.985 . S
H244 N239 0.984 . S
H245 N239 0.985 . S
H246 N243 0.984 . S
H247 N243 0.985 . S
H248 N242 0.984 . S
H249 N242 0.984 . S
H250 N238 0.984 . S
H251 N238 0.985 . S
C252 C253 1.363 . S
C252 C258 1.379 . S
C252 N260 1.356 . S
C253 C252 1.363 . S
C253 C259 1.363 . S
C254 C255 1.363 . S
C254 C259 1.379 . S
C254 N261 1.356 . S
C255 C254 1.363 . S
C255 C258 1.363 . S
N256 C258 1.356 . S
N256 H268 0.984 . S
N256 H269 0.985 . S
N257 C259 1.356 . S
N257 H262 0.984 . S
N257 H263 0.985 . S
C258 C252 1.379 . S
C258 C255 1.363 . S
C258 N256 1.356 . S
C259 C253 1.363 . S
C259 C254 1.379 . S
C259 N257 1.356 . S
N260 C252 1.356 . S
N260 H266 0.984 . S
N260 H267 0.984 . S
N261 C254 1.356 . S
N261 H264 0.984 . S
N261 H265 0.985 . S
H262 N257 0.984 . S
H263 N257 0.985 . S
H264 N261 0.984 . S
H265 N261 0.985 . S
H266 N260 0.984 . S
H267 N260 0.984 . S
H268 N256 0.984 . S
H269 N256 0.985 . S
C270 C271 1.363 . S
C270 C276 1.379 . S
C270 N278 1.356 . S
C271 C270 1.363 . S
C271 C277 1.363 . S
C272 C273 1.363 . S
C272 C277 1.379 . S
C272 N279 1.356 . S
C273 C272 1.363 . S
C273 C276 1.363 . S
N274 C276 1.356 . S
N274 H286 0.984 . S
N274 H287 0.985 . S
N275 C277 1.356 . S
N275 H280 0.984 . S
N275 H281 0.985 . S
C276 C270 1.379 . S
C276 C273 1.363 . S
C276 N274 1.356 . S
C277 C271 1.363 . S
C277 C272 1.379 . S
C277 N275 1.356 . S
N278 C270 1.356 . S
N278 H284 0.984 . S
N278 H285 0.984 . S
N279 C272 1.356 . S
N279 H282 0.984 . S
N279 H283 0.985 . S
H280 N275 0.984 . S
H281 N275 0.985 . S
H282 N279 0.984 . S
H283 N279 0.985 . S
H284 N278 0.984 . S
H285 N278 0.984 . S
H286 N274 0.984 . S
H287 N274 0.985 . S
C288 C289 1.363 . S
C288 C294 1.379 . S
C288 N296 1.356 . S
C289 C288 1.363 . S
C289 C295 1.363 . S
C290 C291 1.363 . S
C290 C295 1.379 . S
C290 N297 1.356 . S
C291 C290 1.363 . S
C291 C294 1.363 . S
N292 C294 1.356 . S
N292 H304 0.984 . S
N292 H305 0.985 . S
N293 C295 1.356 . S
N293 H298 0.984 . S
N293 H299 0.985 . S
C294 C288 1.379 . S
C294 C291 1.363 . S
C294 N292 1.356 . S
C295 C289 1.363 . S
C295 C290 1.379 . S
C295 N293 1.356 . S
N296 C288 1.356 . S
N296 H302 0.984 . S
N296 H303 0.984 . S
N297 C290 1.356 . S
N297 H300 0.984 . S
N297 H301 0.985 . S
H298 N293 0.984 . S
H299 N293 0.985 . S
H300 N297 0.984 . S
H301 N297 0.985 . S
H302 N296 0.984 . S
H303 N296 0.984 . S
H304 N292 0.984 . S
H305 N292 0.985 . S
C306 C307 1.363 . S
C306 C312 1.379 . S
C306 N314 1.356 . S
C307 C306 1.363 . S
C307 C313 1.363 . S
C308 C309 1.363 . S
C308 C313 1.379 . S
C308 N315 1.356 . S
C309 C308 1.363 . S
C309 C312 1.363 . S
N310 C312 1.356 . S
N310 H322 0.984 . S
N310 H323 0.985 . S
N311 C313 1.356 . S
N311 H316 0.984 . S
N311 H317 0.985 . S
C312 C306 1.379 . S
C312 C309 1.363 . S
C312 N310 1.356 . S
C313 C307 1.363 . S
C313 C308 1.379 . S
C313 N311 1.356 . S
N314 C306 1.356 . S
N314 H320 0.984 . S
N314 H321 0.984 . S
N315 C308 1.356 . S
N315 H318 0.984 . S
N315 H319 0.985 . S
H316 N311 0.984 . S
H317 N311 0.985 . S
H318 N315 0.984 . S
H319 N315 0.985 . S
H320 N314 0.984 . S
H321 N314 0.984 . S
H322 N310 0.984 . S
H323 N310 0.985 . S
C324 C325 1.363 . S
C324 C330 1.379 . S
C324 N332 1.356 . S
C325 C324 1.363 . S
C325 C331 1.363 . S
C326 C327 1.363 1_545 S
C326 C331 1.379 1_545 S
C326 N333 1.356 . S
C327 C326 1.363 1_565 S
C327 C330 1.363 . S
N328 C330 1.356 . S
N328 H340 0.984 . S
N328 H341 0.985 . S
N329 C331 1.356 1_545 S
N329 H334 0.984 1_545 S
N329 H335 0.985 . S
C330 C324 1.379 . S
C330 C327 1.363 . S
C330 N328 1.356 . S
C331 C325 1.363 . S
C331 C326 1.379 1_565 S
C331 N329 1.356 1_565 S
N332 C324 1.356 . S
N332 H338 0.984 . S
N332 H339 0.984 . S
N333 C326 1.356 . S
N333 H336 0.984 . S
N333 H337 0.985 . S
H334 N329 0.984 1_565 S
H335 N329 0.985 . S
H336 N333 0.984 . S
H337 N333 0.985 . S
H338 N332 0.984 . S
H339 N332 0.984 . S
H340 N328 0.984 . S
H341 N328 0.985 . S
C342 C343 1.363 . S
C342 C348 1.379 . S
C342 N350 1.356 . S
C343 C342 1.363 . S
C343 C349 1.363 . S
C344 C345 1.363 . S
C344 C349 1.379 . S
C344 N351 1.356 1_545 S
C345 C344 1.363 . S
C345 C348 1.363 . S
N346 C348 1.356 . S
N346 H358 0.984 . S
N346 H359 0.985 . S
N347 C349 1.356 . S
N347 H352 0.984 . S
N347 H353 0.985 1_545 S
C348 C342 1.379 . S
C348 C345 1.363 . S
C348 N346 1.356 . S
C349 C343 1.363 . S
C349 C344 1.379 . S
C349 N347 1.356 . S
N350 C342 1.356 . S
N350 H356 0.984 . S
N350 H357 0.984 . S
N351 C344 1.356 1_565 S
N351 H354 0.984 . S
N351 H355 0.985 . S
H352 N347 0.984 . S
H353 N347 0.985 1_565 S
H354 N351 0.984 . S
H355 N351 0.985 . S
H356 N350 0.984 . S
H357 N350 0.984 . S
H358 N346 0.984 . S
H359 N346 0.985 . S
C360 C361 1.363 1_455 S
C360 C366 1.379 1_455 S
C360 N368 1.356 . S
C361 C360 1.363 1_655 S
C361 C367 1.363 . S
C362 C363 1.363 . S
C362 C367 1.379 . S
C362 N369 1.356 . S
C363 C362 1.363 . S
C363 C366 1.363 . S
N364 C366 1.356 1_455 S
N364 H376 0.984 . S
N364 H377 0.985 1_455 S
N365 C367 1.356 . S
N365 H370 0.984 . S
N365 H371 0.985 . S
C366 C360 1.379 1_655 S
C366 C363 1.363 . S
C366 N364 1.356 1_655 S
C367 C361 1.363 . S
C367 C362 1.379 . S
C367 N365 1.356 . S
N368 C360 1.356 . S
N368 H374 0.984 . S
N368 H375 0.984 . S
N369 C362 1.356 . S
N369 H372 0.984 . S
N369 H373 0.985 . S
H370 N365 0.984 . S
H371 N365 0.985 . S
H372 N369 0.984 . S
H373 N369 0.985 . S
H374 N368 0.984 . S
H375 N368 0.984 . S
H376 N364 0.984 . S
H377 N364 0.985 1_655 S
C378 C379 1.363 . S
C378 C384 1.379 . S
C378 N386 1.356 . S
C379 C378 1.363 . S
C379 C385 1.363 . S
C380 C381 1.363 . S
C380 C385 1.379 . S
C380 N387 1.356 . S
C381 C380 1.363 . S
C381 C384 1.363 . S
N382 C384 1.356 . S
N382 H394 0.984 . S
N382 H395 0.985 . S
N383 C385 1.356 . S
N383 H388 0.984 . S
N383 H389 0.985 . S
C384 C378 1.379 . S
C384 C381 1.363 . S
C384 N382 1.356 . S
C385 C379 1.363 . S
C385 C380 1.379 . S
C385 N383 1.356 . S
N386 C378 1.356 . S
N386 H392 0.984 . S
N386 H393 0.984 . S
N387 C380 1.356 . S
N387 H390 0.984 . S
N387 H391 0.985 . S
H388 N383 0.984 . S
H389 N383 0.985 . S
H390 N387 0.984 . S
H391 N387 0.985 . S
H392 N386 0.984 . S
H393 N386 0.984 . S
H394 N382 0.984 . S
H395 N382 0.985 . S
C396 C397 1.363 . S
C396 C402 1.379 1_455 S
C396 N404 1.356 . S
C397 C396 1.363 . S
C397 C403 1.363 . S
C398 C399 1.363 1_455 S
C398 C403 1.379 . S
C398 N405 1.356 1_455 S
C399 C398 1.363 1_655 S
C399 C402 1.363 . S
N400 C402 1.356 . S
N400 H412 0.984 . S
N400 H413 0.985 . S
N401 C403 1.356 . S
N401 H406 0.984 . S
N401 H407 0.985 . S
C402 C396 1.379 1_655 S
C402 C399 1.363 . S
C402 N400 1.356 . S
C403 C397 1.363 . S
C403 C398 1.379 . S
C403 N401 1.356 . S
N404 C396 1.356 . S
N404 H410 0.984 . S
N404 H411 0.984 . S
N405 C398 1.356 1_655 S
N405 H408 0.984 . S
N405 H409 0.985 . S
H406 N401 0.984 . S
H407 N401 0.985 . S
H408 N405 0.984 . S
H409 N405 0.985 . S
H410 N404 0.984 . S
H411 N404 0.984 . S
H412 N400 0.984 . S
H413 N400 0.985 . S
C414 C415 1.363 . S
C414 C420 1.379 . S
C414 N422 1.356 . S
C415 C414 1.363 . S
C415 C421 1.363 . S
C416 C417 1.363 . S
C416 C421 1.379 . S
C416 N423 1.356 . S
C417 C416 1.363 . S
C417 C420 1.363 . S
N418 C420 1.356 . S
N418 H430 0.984 . S
N418 H431 0.985 . S
N419 C421 1.356 . S
N419 H424 0.984 . S
N419 H425 0.985 . S
C420 C414 1.379 . S
C420 C417 1.363 . S
C420 N418 1.356 . S
C421 C415 1.363 . S
C421 C416 1.379 . S
C421 N419 1.356 . S
N422 C414 1.356 . S
N422 H428 0.984 . S
N422 H429 0.984 . S
N423 C416 1.356 . S
N423 H426 0.984 . S
N423 H427 0.985 . S
H424 N419 0.984 . S
H425 N419 0.985 . S
H426 N423 0.984 . S
H427 N423 0.985 . S
H428 N422 0.984 . S
H429 N422 0.984 . S
H430 N418 0.984 . S
H431 N418 0.985 . S
C432 C433 1.363 1_545 S
C432 C438 1.379 . S
C432 N440 1.356 . S
C433 C432 1.363 1_565 S
C433 C439 1.363 . S
C434 C435 1.363 1_565 S
C434 C439 1.379 . S
C434 N441 1.356 . S
C435 C434 1.363 1_545 S
C435 C438 1.363 . S
N436 C438 1.356 . S
N436 H448 0.984 . S
N436 H449 0.985 . S
N437 C439 1.356 . S
N437 H442 0.984 . S
N437 H443 0.985 . S
C438 C432 1.379 . S
C438 C435 1.363 . S
C438 N436 1.356 . S
C439 C433 1.363 . S
C439 C434 1.379 . S
C439 N437 1.356 . S
N440 C432 1.356 . S
N440 H446 0.984 . S
N440 H447 0.984 . S
N441 C434 1.356 . S
N441 H444 0.984 1_565 S
N441 H445 0.985 . S
H442 N437 0.984 . S
H443 N437 0.985 . S
H444 N441 0.984 1_545 S
H445 N441 0.985 . S
H446 N440 0.984 . S
H447 N440 0.984 . S
H448 N436 0.984 . S
H449 N436 0.985 . S
C127 C32 1.316 . S
C129 C5 1.211 . S
C145 C18 1.325 . S
C147 C4 1.324 . S
C163 C19 1.030 . S
C165 C33 1.077 . S
C181 C75 1.220 . S
C183 C46 1.254 . S
C199 C60 1.200 . S
C201 C47 1.164 . S
C217 C61 1.257 . S
C219 C74 1.301 . S
C235 C89 1.072 . S
C237 C116 1.163 . S
C253 C88 1.388 . S
C255 C102 1.389 . S
C271 C103 1.084 . S
C273 C117 1.119 . S
C289 C11 1.415 . S
C291 C109 1.424 . S
C307 C26 1.354 . S
C309 C124 1.351 . S
C325 C96 1.373 . S
C327 C39 1.369 1_565 S
C343 C68 1.360 . S
C345 C40 1.367 . S
C361 C12 1.463 . S
C363 C82 1.460 . S
C379 C54 1.387 . S
C381 C25 1.383 . S
C397 C110 1.389 . S
C399 C81 1.385 . S
C415 C53 1.301 . S
C417 C123 1.306 . S
C433 C95 1.405 . S
C435 C67 1.389 . S
