# Generated by pormake.
# Topology zfo, (5)-cn, num edge types: 1
# Building blocks:
#     Node 0, Type 0, BuildingBlock: BEQFEK_clean_sbu_0, # of connection points: 5
#     Node 1, Type 0, BuildingBlock: BEQFEK_clean_sbu_0, # of connection points: 5
#     Node 2, Type 0, BuildingBlock: BEQFEK_clean_sbu_0, # of connection points: 5
#     Node 3, Type 0, BuildingBlock: BEQFEK_clean_sbu_0, # of connection points: 5
#     Node 4, Type 0, BuildingBlock: BEQFEK_clean_sbu_0, # of connection points: 5
#     Node 5, Type 0, BuildingBlock: BEQFEK_clean_sbu_0, # of connection points: 5
#     Node 6, Type 0, BuildingBlock: BEQFEK_clean_sbu_0, # of connection points: 5
#     Node 7, Type 0, BuildingBlock: BEQFEK_clean_sbu_0, # of connection points: 5
#     Node 8, Type 0, BuildingBlock: BEQFEK_clean_sbu_0, # of connection points: 5
#     Node 9, Type 0, BuildingBlock: BEQFEK_clean_sbu_0, # of connection points: 5
#     Node 10, Type 0, BuildingBlock: BEQFEK_clean_sbu_0, # of connection points: 5
#     Node 11, Type 0, BuildingBlock: BEQFEK_clean_sbu_0, # of connection points: 5
#     Node 12, Type 0, BuildingBlock: BEQFEK_clean_sbu_0, # of connection points: 5
#     Node 13, Type 0, BuildingBlock: BEQFEK_clean_sbu_0, # of connection points: 5
#     Node 14, Type 0, BuildingBlock: BEQFEK_clean_sbu_0, # of connection points: 5
#     Node 15, Type 0, BuildingBlock: BEQFEK_clean_sbu_0, # of connection points: 5
#     Edge 16, Type (0, 0), BuildingBlock: TEMPAE_clean_linker_10, # of connection points: 2
#     Edge 17, Type (0, 0), BuildingBlock: TEMPAE_clean_linker_10, # of connection points: 2
#     Edge 18, Type (0, 0), BuildingBlock: TEMPAE_clean_linker_10, # of connection points: 2
#     Edge 19, Type (0, 0), BuildingBlock: TEMPAE_clean_linker_10, # of connection points: 2
#     Edge 20, Type (0, 0), BuildingBlock: TEMPAE_clean_linker_10, # of connection points: 2
#     Edge 21, Type (0, 0), BuildingBlock: TEMPAE_clean_linker_10, # of connection points: 2
#     Edge 22, Type (0, 0), BuildingBlock: TEMPAE_clean_linker_10, # of connection points: 2
#     Edge 23, Type (0, 0), BuildingBlock: TEMPAE_clean_linker_10, # of connection points: 2
#     Edge 24, Type (0, 0), BuildingBlock: TEMPAE_clean_linker_10, # of connection points: 2
#     Edge 25, Type (0, 0), BuildingBlock: TEMPAE_clean_linker_10, # of connection points: 2
#     Edge 26, Type (0, 0), BuildingBlock: TEMPAE_clean_linker_10, # of connection points: 2
#     Edge 27, Type (0, 0), BuildingBlock: TEMPAE_clean_linker_10, # of connection points: 2
#     Edge 28, Type (0, 0), BuildingBlock: TEMPAE_clean_linker_10, # of connection points: 2
#     Edge 29, Type (0, 0), BuildingBlock: TEMPAE_clean_linker_10, # of connection points: 2
#     Edge 30, Type (0, 0), BuildingBlock: TEMPAE_clean_linker_10, # of connection points: 2
#     Edge 31, Type (0, 0), BuildingBlock: TEMPAE_clean_linker_10, # of connection points: 2
#     Edge 32, Type (0, 0), BuildingBlock: TEMPAE_clean_linker_10, # of connection points: 2
#     Edge 33, Type (0, 0), BuildingBlock: TEMPAE_clean_linker_10, # of connection points: 2
#     Edge 34, Type (0, 0), BuildingBlock: TEMPAE_clean_linker_10, # of connection points: 2
#     Edge 35, Type (0, 0), BuildingBlock: TEMPAE_clean_linker_10, # of connection points: 2
#     Edge 36, Type (0, 0), BuildingBlock: TEMPAE_clean_linker_10, # of connection points: 2
#     Edge 37, Type (0, 0), BuildingBlock: TEMPAE_clean_linker_10, # of connection points: 2
#     Edge 38, Type (0, 0), BuildingBlock: TEMPAE_clean_linker_10, # of connection points: 2
#     Edge 39, Type (0, 0), BuildingBlock: TEMPAE_clean_linker_10, # of connection points: 2
#     Edge 40, Type (0, 0), BuildingBlock: TEMPAE_clean_linker_10, # of connection points: 2
#     Edge 41, Type (0, 0), BuildingBlock: TEMPAE_clean_linker_10, # of connection points: 2
#     Edge 42, Type (0, 0), BuildingBlock: TEMPAE_clean_linker_10, # of connection points: 2
#     Edge 43, Type (0, 0), BuildingBlock: TEMPAE_clean_linker_10, # of connection points: 2
#     Edge 44, Type (0, 0), BuildingBlock: TEMPAE_clean_linker_10, # of connection points: 2
#     Edge 45, Type (0, 0), BuildingBlock: TEMPAE_clean_linker_10, # of connection points: 2
#     Edge 46, Type (0, 0), BuildingBlock: TEMPAE_clean_linker_10, # of connection points: 2
#     Edge 47, Type (0, 0), BuildingBlock: TEMPAE_clean_linker_10, # of connection points: 2
#     Edge 48, Type (0, 0), BuildingBlock: TEMPAE_clean_linker_10, # of connection points: 2
#     Edge 49, Type (0, 0), BuildingBlock: TEMPAE_clean_linker_10, # of connection points: 2
#     Edge 50, Type (0, 0), BuildingBlock: TEMPAE_clean_linker_10, # of connection points: 2
#     Edge 51, Type (0, 0), BuildingBlock: TEMPAE_clean_linker_10, # of connection points: 2
#     Edge 52, Type (0, 0), BuildingBlock: TEMPAE_clean_linker_10, # of connection points: 2
#     Edge 53, Type (0, 0), BuildingBlock: TEMPAE_clean_linker_10, # of connection points: 2
#     Edge 54, Type (0, 0), BuildingBlock: TEMPAE_clean_linker_10, # of connection points: 2
#     Edge 55, Type (0, 0), BuildingBlock: TEMPAE_clean_linker_10, # of connection points: 2
# Relax obj value: 0.172
# Max RMSD: 0.173
# Mean RMSD: 0.165
data_MOF--net-zfo--node1-BEQFEK_clean_sbu_0--edge1-TEMPAE_clean_linker_10
_symmetry_space_group_name_H-M    P1
_symmetry_Int_Tables_number       1
_symmetry_cell_setting            triclinic
loop_
_symmetry_equiv_pos_as_xyz
'x, y, z'
_cell_length_a     33.027659
_cell_length_b     33.046024
_cell_length_c     67.517438
_cell_angle_alpha  90.017356
_cell_angle_beta   90.034312
_cell_angle_gamma 89.992357
loop_
_atom_site_label
_atom_site_type_symbol
_atom_site_fract_x
_atom_site_fract_y
_atom_site_fract_z
_atom_type_partial_charge
Co0 Co 0.10675 0.2024 0.09332 0.0
Co1 Co 0.11191 0.20004 0.13987 0.0
C2 C 0.05895 0.25955 0.11842 0.0
O3 O 0.06964 0.24667 0.10142 0.0
O4 O 0.07331 0.24432 0.13424 0.0
C5 C 0.11858 0.23514 0.05403 0.0
O6 O 0.12322 0.26971 0.06338 0.0
C7 C 0.13061 0.23237 0.17922 0.0
C8 C 0.14022 0.1766 0.19664 0.0
C9 C 0.14198 0.21845 0.19782 0.0
N10 N 0.12299 0.20022 0.1676 0.0
N11 N 0.12803 0.16699 0.1782 0.0
C12 C 0.13168 0.27504 0.1718 0.0
H13 H 0.13504 0.27556 0.15545 0.0
H14 H 0.15697 0.29204 0.17874 0.0
H15 H 0.10284 0.29026 0.17573 0.0
C16 C 0.19654 0.20515 0.0983 0.0
N17 N 0.15855 0.20596 0.10567 0.0
N18 N 0.16047 0.20528 0.12516 0.0
C19 C 0.1996 0.20404 0.13077 0.0
C20 C 0.22366 0.20372 0.11398 0.0
C21 C 0.20652 0.20198 0.07675 0.0
H22 H 0.18664 0.17919 0.06962 0.0
H23 H 0.20094 0.23165 0.06957 0.0
H24 H 0.23866 0.19341 0.07441 0.0
O25 O 0.08051 0.1505 0.10046 0.0
O26 O 0.08612 0.14763 0.13329 0.0
H27 H 0.20159 0.17537 0.15918 0.0
H28 H 0.24723 0.20275 0.15305 0.0
C29 C 0.21377 0.20278 0.15184 0.0
H30 H 0.2024 0.2298 0.15974 0.0
H31 H 0.12474 0.13773 0.17261 0.0
O32 O 0.11178 0.20321 0.06399 0.0
C33 C 0.07482 0.13236 0.11687 0.0
Co34 Co 0.80049 0.10946 0.59379 0.0
Co35 Co 0.80404 0.11418 0.64034 0.0
C36 C 0.74355 0.06184 0.61905 0.0
O37 O 0.75591 0.07274 0.602 0.0
O38 O 0.75946 0.07587 0.63479 0.0
C39 C 0.76703 0.12133 0.5546 0.0
O40 O 0.73264 0.12597 0.5641 0.0
C41 C 0.77205 0.13202 0.67981 0.0
C42 C 0.8279 0.14147 0.69722 0.0
C43 C 0.78602 0.1429 0.69846 0.0
N44 N 0.80419 0.12492 0.6681 0.0
N45 N 0.83748 0.12989 0.67869 0.0
C46 C 0.7293 0.13303 0.67244 0.0
H47 H 0.72865 0.13702 0.65612 0.0
H48 H 0.71212 0.1579 0.67961 0.0
H49 H 0.71433 0.10393 0.67612 0.0
C50 C 0.79759 0.19931 0.59901 0.0
N51 N 0.79753 0.16123 0.60627 0.0
N52 N 0.79877 0.16293 0.62576 0.0
C53 C 0.79967 0.20199 0.63148 0.0
C54 C 0.79913 0.22628 0.61476 0.0
C55 C 0.79945 0.20959 0.57746 0.0
H56 H 0.82195 0.18994 0.56997 0.0
H57 H 0.7694 0.20394 0.57067 0.0
H58 H 0.80771 0.24179 0.57512 0.0
O59 O 0.85228 0.08241 0.60073 0.0
O60 O 0.8561 0.08796 0.63354 0.0
H61 H 0.82834 0.20377 0.65991 0.0
H62 H 0.8005 0.24924 0.65396 0.0
C63 C 0.80081 0.21583 0.6526 0.0
H64 H 0.77389 0.20407 0.66045 0.0
H65 H 0.86674 0.1269 0.67305 0.0
O66 O 0.79919 0.11462 0.56443 0.0
C67 C 0.87078 0.07641 0.61703 0.0
Co68 Co 0.89289 0.79692 0.09354 0.0
Co69 Co 0.88731 0.80011 0.14003 0.0
C70 C 0.93924 0.73912 0.11892 0.0
O71 O 0.92873 0.75169 0.10184 0.0
O72 O 0.92521 0.75519 0.13461 0.0
C73 C 0.87929 0.76412 0.05443 0.0
O74 O 0.87291 0.73005 0.06397 0.0
C75 C 0.86792 0.76811 0.17926 0.0
C76 C 0.85889 0.82392 0.19674 0.0
C77 C 0.85666 0.78208 0.19785 0.0
N78 N 0.876 0.80022 0.16771 0.0
N79 N 0.87129 0.83347 0.17834 0.0
C80 C 0.86627 0.7255 0.17177 0.0
H81 H 0.86271 0.72512 0.15542 0.0
H82 H 0.84088 0.70874 0.17873 0.0
H83 H 0.89499 0.70993 0.17561 0.0
C84 C 0.80296 0.7967 0.09826 0.0
N85 N 0.84086 0.79488 0.10573 0.0
N86 N 0.83879 0.79572 0.12521 0.0
C87 C 0.79966 0.79799 0.13073 0.0
C88 C 0.77577 0.79889 0.11387 0.0
C89 C 0.79318 0.8002 0.0767 0.0
H90 H 0.79723 0.77023 0.06958 0.0
H91 H 0.7615 0.81032 0.07433 0.0
H92 H 0.81413 0.82196 0.06955 0.0
O93 O 0.92044 0.84827 0.10066 0.0
O94 O 0.91411 0.85188 0.13344 0.0
H95 H 0.79789 0.82701 0.15905 0.0
H96 H 0.75188 0.80026 0.15287 0.0
C97 C 0.78534 0.7997 0.15176 0.0
H98 H 0.79625 0.77261 0.15975 0.0
H99 H 0.87496 0.86271 0.17279 0.0
O100 O 0.88794 0.79584 0.06422 0.0
C101 C 0.92616 0.86658 0.11704 0.0
Co102 Co 0.20235 0.88789 0.59246 0.0
Co103 Co 0.20091 0.88361 0.63916 0.0
C104 C 0.26026 0.93573 0.61661 0.0
O105 O 0.24778 0.92419 0.59969 0.0
O106 O 0.24438 0.92235 0.63246 0.0
C107 C 0.23364 0.87593 0.55307 0.0
O108 O 0.26836 0.87154 0.56234 0.0
C109 C 0.2366 0.86331 0.67792 0.0
C110 C 0.18238 0.85966 0.69697 0.0
C111 C 0.22398 0.85401 0.69704 0.0
N112 N 0.20381 0.87284 0.66701 0.0
N113 N 0.17161 0.87119 0.67858 0.0
C114 C 0.27906 0.86354 0.67011 0.0
H115 H 0.28256 0.8866 0.65841 0.0
H116 H 0.28611 0.83367 0.66347 0.0
H117 H 0.30109 0.8698 0.68215 0.0
C118 C 0.20408 0.79823 0.59782 0.0
N119 N 0.20561 0.83631 0.60503 0.0
N120 N 0.20475 0.83478 0.62453 0.0
C121 C 0.20226 0.79583 0.6303 0.0
C122 C 0.20172 0.77146 0.6136 0.0
C123 C 0.20107 0.78793 0.57629 0.0
H124 H 0.23064 0.79393 0.5691 0.0
H125 H 0.19298 0.75566 0.57403 0.0
H126 H 0.17795 0.80738 0.56913 0.0
O127 O 0.1513 0.91544 0.6003 0.0
O128 O 0.14828 0.9096 0.63315 0.0
H129 H 0.19604 0.749 0.65279 0.0
H130 H 0.22731 0.79097 0.65936 0.0
C131 C 0.19937 0.78223 0.65142 0.0
H132 H 0.17326 0.79725 0.65865 0.0
H133 H 0.14211 0.87689 0.67379 0.0
O134 O 0.20175 0.88245 0.56313 0.0
C135 C 0.13327 0.92139 0.61674 0.0
Co136 Co 0.61382 0.29843 0.91811 0.0
Co137 Co 0.61318 0.29366 0.8714 0.0
C138 C 0.56346 0.23743 0.89607 0.0
O139 O 0.57507 0.25364 0.91223 0.0
O140 O 0.5768 0.24961 0.87945 0.0
C141 C 0.63133 0.2689 0.95732 0.0
O142 O 0.63679 0.2343 0.94811 0.0
C143 C 0.63009 0.25776 0.83222 0.0
C144 C 0.63409 0.31225 0.81339 0.0
C145 C 0.63903 0.2706 0.8131 0.0
N146 N 0.62156 0.29048 0.84336 0.0
N147 N 0.62328 0.32284 0.8319 0.0
C148 C 0.62926 0.21519 0.83984 0.0
H149 H 0.60446 0.21146 0.85067 0.0
H150 H 0.65814 0.20838 0.84754 0.0
H151 H 0.62488 0.19323 0.82759 0.0
C152 C 0.70261 0.2959 0.91082 0.0
N153 N 0.66393 0.29319 0.90451 0.0
N154 N 0.6636 0.29182 0.885 0.0
C155 C 0.70203 0.29364 0.87833 0.0
C156 C 0.72788 0.29637 0.89445 0.0
C157 C 0.71486 0.30234 0.93193 0.0
H158 H 0.71176 0.27342 0.94011 0.0
H159 H 0.74671 0.31278 0.93309 0.0
H160 H 0.69469 0.32503 0.93893 0.0
O161 O 0.58841 0.35022 0.91015 0.0
O162 O 0.58534 0.3455 0.87726 0.0
H163 H 0.69928 0.31953 0.8493 0.0
H164 H 0.74704 0.29535 0.85481 0.0
C165 C 0.71382 0.29361 0.85691 0.0
H166 H 0.70324 0.26527 0.84993 0.0
H167 H 0.61843 0.35234 0.83689 0.0
O168 O 0.62192 0.30009 0.94729 0.0
C169 C 0.57822 0.36444 0.89333 0.0
Co170 Co 0.70093 0.60994 0.41643 0.0
Co171 Co 0.70293 0.6089 0.36969 0.0
C172 C 0.76033 0.5592 0.39387 0.0
O173 O 0.74501 0.57094 0.41019 0.0
O174 O 0.74722 0.57234 0.37737 0.0
C175 C 0.6811 0.60121 0.45775 0.0
O176 O 0.65567 0.57373 0.45118 0.0
C177 C 0.73793 0.62656 0.33059 0.0
C178 C 0.68339 0.62954 0.31171 0.0
C179 C 0.72496 0.63537 0.31148 0.0
N180 N 0.70538 0.61724 0.34167 0.0
N181 N 0.67298 0.61836 0.33019 0.0
C182 C 0.7805 0.62667 0.33829 0.0
H183 H 0.7848 0.6019 0.34907 0.0
H184 H 0.78655 0.65562 0.34606 0.0
H185 H 0.80266 0.6229 0.32608 0.0
C186 C 0.70495 0.69792 0.40914 0.0
N187 N 0.70635 0.65941 0.40262 0.0
N188 N 0.70582 0.65929 0.38312 0.0
C189 C 0.70359 0.6978 0.37662 0.0
C190 C 0.7029 0.72343 0.39288 0.0
C191 C 0.70122 0.7095 0.43049 0.0
H192 H 0.72807 0.69826 0.43871 0.0
H193 H 0.69867 0.74273 0.43244 0.0
H194 H 0.67405 0.69472 0.4369 0.0
O195 O 0.64813 0.58511 0.40919 0.0
O196 O 0.65119 0.58164 0.37623 0.0
H197 H 0.69732 0.74292 0.35334 0.0
H198 H 0.72911 0.70077 0.34761 0.0
C199 C 0.70095 0.70983 0.35527 0.0
H200 H 0.67511 0.69406 0.34818 0.0
H201 H 0.64356 0.61288 0.33515 0.0
O202 O 0.70306 0.62027 0.44543 0.0
C203 C 0.63297 0.57488 0.39254 0.0
Co204 Co 0.38879 0.69435 0.91633 0.0
Co205 Co 0.38796 0.69605 0.86971 0.0
C206 C 0.43794 0.75435 0.89265 0.0
O207 O 0.42717 0.73867 0.90907 0.0
O208 O 0.42388 0.74154 0.87627 0.0
C209 C 0.372 0.72713 0.95506 0.0
O210 O 0.36543 0.7608 0.94522 0.0
C211 C 0.37068 0.72792 0.83006 0.0
C212 C 0.36367 0.67174 0.81264 0.0
C213 C 0.3605 0.71349 0.81138 0.0
N214 N 0.37888 0.6961 0.8418 0.0
N215 N 0.37549 0.66267 0.83119 0.0
C216 C 0.36781 0.77058 0.83739 0.0
H217 H 0.36388 0.77111 0.85371 0.0
H218 H 0.34217 0.78662 0.83022 0.0
H219 H 0.39621 0.78679 0.83366 0.0
C220 C 0.29966 0.69635 0.90969 0.0
N221 N 0.33816 0.69834 0.90307 0.0
N222 N 0.33788 0.6988 0.88356 0.0
C223 C 0.29921 0.69731 0.87718 0.0
C224 C 0.27385 0.69555 0.8935 0.0
C225 C 0.288 0.69123 0.93095 0.0
H226 H 0.30881 0.66955 0.93826 0.0
H227 H 0.29054 0.72083 0.93859 0.0
H228 H 0.25641 0.68019 0.93242 0.0
O229 O 0.4141 0.64198 0.90933 0.0
O230 O 0.41667 0.64514 0.8764 0.0
H231 H 0.29998 0.67103 0.84821 0.0
H232 H 0.25334 0.69696 0.85403 0.0
C233 C 0.28667 0.69754 0.85586 0.0
H234 H 0.29801 0.72544 0.84874 0.0
H235 H 0.37943 0.63356 0.83686 0.0
O236 O 0.3818 0.69534 0.94558 0.0
C237 C 0.4242 0.62704 0.89265 0.0
Co238 Co 0.29986 0.39156 0.41688 0.0
Co239 Co 0.29692 0.391 0.37015 0.0
C240 C 0.2399 0.44147 0.39416 0.0
O241 O 0.25536 0.43019 0.41054 0.0
O242 O 0.25287 0.42786 0.37774 0.0
C243 C 0.26865 0.37725 0.45599 0.0
O244 O 0.23401 0.37353 0.44659 0.0
C245 C 0.26103 0.37271 0.33115 0.0
C246 C 0.31529 0.36948 0.31212 0.0
C247 C 0.2737 0.36386 0.31199 0.0
N248 N 0.29378 0.38189 0.34216 0.0
N249 N 0.32601 0.38057 0.33058 0.0
C250 C 0.21853 0.37287 0.33891 0.0
H251 H 0.21468 0.39704 0.35006 0.0
H252 H 0.21201 0.34358 0.34625 0.0
H253 H 0.19638 0.37766 0.32677 0.0
C254 C 0.29643 0.30271 0.41015 0.0
N255 N 0.2946 0.3412 0.40355 0.0
N256 N 0.2944 0.34099 0.38403 0.0
C257 C 0.29634 0.30238 0.37763 0.0
C258 C 0.29771 0.27698 0.39395 0.0
C259 C 0.30108 0.29107 0.43144 0.0
H260 H 0.27196 0.29619 0.43922 0.0
H261 H 0.30972 0.25878 0.43306 0.0
H262 H 0.32447 0.31032 0.43853 0.0
O263 O 0.3521 0.41643 0.40912 0.0
O264 O 0.3489 0.41859 0.37615 0.0
H265 H 0.30089 0.25688 0.35441 0.0
H266 H 0.26953 0.29942 0.34889 0.0
C267 C 0.29787 0.29003 0.3563 0.0
H268 H 0.32365 0.30529 0.34891 0.0
H269 H 0.35551 0.386 0.33545 0.0
O270 O 0.30064 0.38429 0.4461 0.0
C271 C 0.36718 0.42601 0.39239 0.0
Co272 Co 0.91621 0.78141 0.86783 0.0
Co273 Co 0.83585 0.8315 0.86987 0.0
C274 C 0.86981 0.78816 0.90553 0.0
O275 O 0.89972 0.77486 0.89568 0.0
O276 O 0.84287 0.81001 0.89732 0.0
C277 C 0.9753 0.72036 0.87578 0.0
O278 O 0.94859 0.70812 0.88888 0.0
C279 C 0.74817 0.8329 0.87277 0.0
C280 C 0.73246 0.89658 0.86648 0.0
C281 C 0.7156 0.85934 0.87116 0.0
N282 N 0.78239 0.8534 0.86898 0.0
N283 N 0.77288 0.89148 0.86522 0.0
C284 C 0.74749 0.78937 0.87899 0.0
H285 H 0.77752 0.77976 0.88456 0.0
H286 H 0.74011 0.77013 0.86603 0.0
H287 H 0.72419 0.78435 0.89057 0.0
C288 C 0.87346 0.74266 0.83427 0.0
N289 N 0.87435 0.76782 0.84996 0.0
N290 N 0.84188 0.79087 0.84977 0.0
C291 C 0.82001 0.78222 0.83341 0.0
C292 C 0.83901 0.75099 0.82305 0.0
C293 C 0.90556 0.71185 0.83014 0.0
H294 H 0.91667 0.69878 0.84426 0.0
H295 H 0.89387 0.68717 0.82057 0.0
H296 H 0.93146 0.72679 0.82265 0.0
O297 O 0.93261 0.83845 0.86336 0.0
O298 O 0.8763 0.87514 0.86583 0.0
H299 H 0.78349 0.80736 0.80981 0.0
H300 H 0.7567 0.79575 0.83231 0.0
C301 C 0.78547 0.8077 0.82621 0.0
H302 H 0.78928 0.83943 0.83117 0.0
H303 H 0.79398 0.91403 0.86198 0.0
O304 O 0.96607 0.7491 0.86409 0.0
C305 C 0.91443 0.87246 0.8632 0.0
Co306 Co 0.2148 0.92006 0.36617 0.0
Co307 Co 0.16867 0.83746 0.36818 0.0
C308 C 0.20938 0.8723 0.40396 0.0
O309 O 0.22089 0.9031 0.3942 0.0
O310 O 0.18944 0.84411 0.39562 0.0
C311 C 0.27564 0.97898 0.37461 0.0
O312 O 0.28826 0.95165 0.38732 0.0
C313 C 0.16388 0.75072 0.37404 0.0
C314 C 0.10582 0.73393 0.35996 0.0
C315 C 0.13886 0.71806 0.36995 0.0
N316 N 0.14671 0.78423 0.3666 0.0
N317 N 0.11191 0.77414 0.35828 0.0
C318 C 0.20212 0.7513 0.38599 0.0
H319 H 0.22425 0.77237 0.37917 0.0
H320 H 0.2158 0.72096 0.38772 0.0
H321 H 0.19501 0.76285 0.40101 0.0
C322 C 0.25434 0.87981 0.33212 0.0
N323 N 0.22998 0.87911 0.34812 0.0
N324 N 0.21018 0.84455 0.34862 0.0
C325 C 0.22142 0.82209 0.33285 0.0
C326 C 0.24971 0.84368 0.32182 0.0
C327 C 0.27745 0.91648 0.3257 0.0
H328 H 0.25666 0.94283 0.32505 0.0
H329 H 0.30105 0.92338 0.33691 0.0
H330 H 0.29188 0.91222 0.31103 0.0
O331 O 0.15785 0.93515 0.36127 0.0
O332 O 0.12408 0.87717 0.36401 0.0
H333 H 0.17109 0.78344 0.32646 0.0
H334 H 0.21777 0.76816 0.3145 0.0
C335 C 0.20442 0.7812 0.32815 0.0
H336 H 0.21092 0.76034 0.34058 0.0
H337 H 0.09238 0.79465 0.35142 0.0
O338 O 0.24659 0.97032 0.36299 0.0
C339 C 0.12483 0.9153 0.36117 0.0
Co340 Co 0.08363 0.21188 0.86692 0.0
Co341 Co 0.1661 0.1657 0.87017 0.0
C342 C 0.12967 0.20777 0.90521 0.0
O343 O 0.09932 0.21894 0.89501 0.0
O344 O 0.15821 0.18748 0.89737 0.0
C345 C 0.02533 0.27386 0.87396 0.0
O346 O 0.05294 0.28743 0.88631 0.0
C347 C 0.25278 0.1616 0.87685 0.0
C348 C 0.27028 0.10299 0.86359 0.0
C349 C 0.28573 0.13657 0.8733 0.0
N350 N 0.21955 0.1439 0.86937 0.0
N351 N 0.23007 0.10876 0.86155 0.0
C352 C 0.25167 0.20044 0.8883 0.0
H353 H 0.2319 0.2226 0.88061 0.0
H354 H 0.28208 0.21355 0.89073 0.0
H355 H 0.23817 0.19441 0.90303 0.0
C356 C 0.12523 0.25027 0.83306 0.0
N357 N 0.12534 0.22643 0.84923 0.0
N358 N 0.1598 0.20649 0.85016 0.0
C359 C 0.18277 0.21707 0.83447 0.0
C360 C 0.16165 0.24513 0.82307 0.0
C361 C 0.08882 0.27326 0.82615 0.0
H362 H 0.06248 0.25248 0.82534 0.0
H363 H 0.08148 0.29708 0.83716 0.0
H364 H 0.09367 0.28738 0.81145 0.0
O365 O 0.06872 0.15484 0.86232 0.0
O366 O 0.12647 0.12093 0.86594 0.0
H367 H 0.22113 0.1661 0.82894 0.0
H368 H 0.23678 0.21185 0.81628 0.0
C369 C 0.22359 0.19949 0.83011 0.0
H370 H 0.24443 0.20664 0.84248 0.0
H371 H 0.20986 0.08882 0.85477 0.0
O372 O 0.03361 0.24367 0.86302 0.0
C373 C 0.08844 0.12176 0.86268 0.0
Co374 Co 0.78185 0.08035 0.36735 0.0
Co375 Co 0.8294 0.16205 0.36971 0.0
C376 C 0.78846 0.12631 0.40541 0.0
O377 O 0.77569 0.09622 0.39549 0.0
O378 O 0.80929 0.15395 0.3972 0.0
C379 C 0.72044 0.0217 0.37502 0.0
O380 O 0.70792 0.04859 0.38798 0.0
C381 C 0.83337 0.24965 0.37471 0.0
C382 C 0.8949 0.26452 0.36413 0.0
C383 C 0.85994 0.28161 0.37179 0.0
N384 N 0.8515 0.21535 0.36876 0.0
N385 N 0.88834 0.22438 0.36251 0.0
C386 C 0.79204 0.25135 0.38388 0.0
H387 H 0.78257 0.22132 0.38937 0.0
H388 H 0.76958 0.26097 0.37262 0.0
H389 H 0.79151 0.27362 0.39619 0.0
C390 C 0.74267 0.12179 0.33361 0.0
N391 N 0.76707 0.12198 0.34961 0.0
N392 N 0.78795 0.15589 0.35 0.0
C393 C 0.77782 0.17822 0.334 0.0
C394 C 0.74867 0.15744 0.3231 0.0
C395 C 0.71841 0.08579 0.32729 0.0
H396 H 0.69599 0.07847 0.33899 0.0
H397 H 0.70248 0.09104 0.31306 0.0
H398 H 0.7388 0.05928 0.32573 0.0
O399 O 0.83879 0.06484 0.3624 0.0
O400 O 0.87356 0.12227 0.36505 0.0
H401 H 0.7874 0.22907 0.31408 0.0
H402 H 0.78925 0.24063 0.33993 0.0
C403 C 0.79739 0.21765 0.32871 0.0
H404 H 0.83079 0.21411 0.32881 0.0
H405 H 0.90906 0.20314 0.35721 0.0
O406 O 0.7497 0.03057 0.3636 0.0
C407 C 0.87214 0.08417 0.36217 0.0
Co408 Co 0.41728 0.72087 0.14076 0.0
Co409 Co 0.3367 0.67065 0.14123 0.0
C410 C 0.36746 0.71251 0.10431 0.0
O411 O 0.3974 0.72769 0.11349 0.0
O412 O 0.34217 0.68985 0.11322 0.0
C413 C 0.4769 0.78063 0.13108 0.0
O414 O 0.45011 0.7921 0.11784 0.0
C415 C 0.24929 0.66394 0.13676 0.0
C416 C 0.2346 0.60721 0.15253 0.0
C417 C 0.21727 0.6392 0.14231 0.0
N418 N 0.28379 0.64777 0.1437 0.0
N419 N 0.27492 0.61366 0.15297 0.0
C420 C 0.24798 0.7015 0.12433 0.0
H421 H 0.26242 0.72683 0.1325 0.0
H422 H 0.21687 0.70992 0.11984 0.0
H423 H 0.26574 0.6964 0.11066 0.0
C424 C 0.37882 0.75873 0.17589 0.0
N425 N 0.37765 0.73418 0.15995 0.0
N426 N 0.34383 0.71311 0.16022 0.0
C427 C 0.32245 0.72351 0.17647 0.0
C428 C 0.3439 0.75267 0.187 0.0
C429 C 0.41493 0.78361 0.18142 0.0
H430 H 0.44185 0.76364 0.1826 0.0
H431 H 0.42106 0.80584 0.16948 0.0
H432 H 0.41047 0.79977 0.19566 0.0
O433 O 0.43427 0.66392 0.14389 0.0
O434 O 0.37771 0.62762 0.14608 0.0
H435 H 0.28704 0.6715 0.18397 0.0
H436 H 0.27074 0.71754 0.19615 0.0
C437 C 0.28297 0.70462 0.18223 0.0
H438 H 0.2605 0.70989 0.17033 0.0
H439 H 0.29631 0.59507 0.1598 0.0
O440 O 0.46754 0.75306 0.14339 0.0
C441 C 0.41623 0.63019 0.14612 0.0
Co442 Co 0.28229 0.41479 0.64316 0.0
Co443 Co 0.32985 0.33273 0.64096 0.0
C444 C 0.29002 0.36814 0.60511 0.0
O445 O 0.2777 0.39845 0.61501 0.0
O446 O 0.31006 0.33999 0.61339 0.0
C447 C 0.22184 0.47352 0.63393 0.0
O448 O 0.21018 0.44605 0.62108 0.0
C449 C 0.33601 0.24569 0.63518 0.0
C450 C 0.39313 0.22986 0.65039 0.0
C451 C 0.36081 0.21331 0.6401 0.0
N452 N 0.35248 0.27966 0.64254 0.0
N453 N 0.38682 0.27012 0.65146 0.0
C454 C 0.29811 0.24529 0.62295 0.0
H455 H 0.30309 0.26359 0.60944 0.0
H456 H 0.2731 0.25962 0.63139 0.0
H457 H 0.28928 0.21448 0.61818 0.0
C458 C 0.24301 0.37338 0.67689 0.0
N459 N 0.26714 0.3731 0.6608 0.0
N460 N 0.28766 0.33894 0.66026 0.0
C461 C 0.27719 0.31639 0.67611 0.0
C462 C 0.24865 0.33744 0.68722 0.0
C463 C 0.21962 0.40972 0.68349 0.0
H464 H 0.19739 0.41799 0.67185 0.0
H465 H 0.20355 0.40429 0.69767 0.0
H466 H 0.24063 0.43567 0.68527 0.0
O467 O 0.33882 0.43029 0.64876 0.0
O468 O 0.37365 0.37291 0.64585 0.0
H469 H 0.32909 0.28003 0.68274 0.0
H470 H 0.28319 0.26343 0.69495 0.0
C471 C 0.29586 0.27639 0.68114 0.0
H472 H 0.29005 0.25478 0.66893 0.0
H473 H 0.40568 0.291 0.65849 0.0
O474 O 0.24988 0.46488 0.64614 0.0
C475 C 0.37212 0.41091 0.64904 0.0
Co476 Co 0.58216 0.28548 0.1424 0.0
Co477 Co 0.66334 0.33458 0.14309 0.0
C478 C 0.63345 0.29201 0.10628 0.0
O479 O 0.6029 0.27783 0.11534 0.0
O480 O 0.65895 0.31446 0.11519 0.0
C481 C 0.52236 0.22614 0.1324 0.0
O482 O 0.54952 0.21432 0.11943 0.0
C483 C 0.75047 0.33931 0.13907 0.0
C484 C 0.76632 0.39742 0.15332 0.0
C485 C 0.78291 0.36413 0.14384 0.0
N486 N 0.71638 0.35677 0.14568 0.0
N487 N 0.72591 0.39163 0.1541 0.0
C488 C 0.75077 0.30083 0.12732 0.0
H489 H 0.72827 0.27932 0.13349 0.0
H490 H 0.781 0.28647 0.12677 0.0
H491 H 0.74161 0.30782 0.11189 0.0
C492 C 0.6194 0.24779 0.17794 0.0
N493 N 0.62107 0.2722 0.16197 0.0
N494 N 0.65523 0.29272 0.16229 0.0
C495 C 0.6764 0.282 0.17856 0.0
C496 C 0.6544 0.25327 0.18909 0.0
C497 C 0.58294 0.22332 0.18335 0.0
H498 H 0.55586 0.2432 0.18349 0.0
H499 H 0.57793 0.19983 0.17186 0.0
H500 H 0.58629 0.20867 0.19804 0.0
O501 O 0.56573 0.34266 0.14509 0.0
O502 O 0.6227 0.3783 0.14727 0.0
H503 H 0.71376 0.33301 0.18552 0.0
H504 H 0.72852 0.28691 0.19812 0.0
C505 C 0.71659 0.29968 0.18411 0.0
H506 H 0.73874 0.29307 0.17225 0.0
H507 H 0.7049 0.41135 0.16042 0.0
O508 O 0.53149 0.2538 0.14472 0.0
C509 C 0.58415 0.37622 0.14714 0.0
Co510 Co 0.70945 0.58471 0.64308 0.0
Co511 Co 0.65931 0.66542 0.64306 0.0
C512 C 0.69712 0.63165 0.60589 0.0
O513 O 0.71251 0.60195 0.61515 0.0
O514 O 0.67619 0.65813 0.61495 0.0
C515 C 0.76841 0.52491 0.63272 0.0
O516 O 0.77905 0.55185 0.61941 0.0
C517 C 0.65954 0.75298 0.64059 0.0
C518 C 0.59717 0.77022 0.6488 0.0
C519 C 0.63428 0.7862 0.64319 0.0
N520 N 0.63856 0.71924 0.64474 0.0
N521 N 0.60125 0.72965 0.64963 0.0
C522 C 0.70232 0.75261 0.6332 0.0
H523 H 0.71024 0.72261 0.62701 0.0
H524 H 0.72323 0.75861 0.64572 0.0
H525 H 0.70682 0.77633 0.62178 0.0
C526 C 0.75188 0.62638 0.676 0.0
N527 N 0.72534 0.62605 0.66084 0.0
N528 N 0.70247 0.6586 0.66177 0.0
C529 C 0.71266 0.67992 0.67807 0.0
C530 C 0.74474 0.66056 0.6876 0.0
C531 C 0.78248 0.59375 0.67944 0.0
H532 H 0.79405 0.58243 0.66505 0.0
H533 H 0.80818 0.60499 0.68849 0.0
H534 H 0.76778 0.56812 0.68724 0.0
O535 O 0.65269 0.56889 0.64902 0.0
O536 O 0.61605 0.6255 0.64836 0.0
H537 H 0.68962 0.71538 0.70256 0.0
H538 H 0.69869 0.74303 0.68003 0.0
C539 C 0.68765 0.71395 0.68618 0.0
H540 H 0.65546 0.70998 0.68199 0.0
H541 H 0.57855 0.70909 0.65339 0.0
O542 O 0.74163 0.53419 0.64548 0.0
C543 C 0.61888 0.58726 0.65047 0.0
C544 C 0.06448 0.06297 0.13046 0.0
C545 C 0.05366 0.09312 0.11688 0.0
C546 C 0.04459 0.02545 0.13053 0.0
C547 C 0.01223 0.01865 0.11716 0.0
C548 C 0.00078 0.04933 0.10364 0.0
C549 C 0.02215 0.08599 0.10344 0.0
C550 C 0.05846 0.99298 0.14473 0.0
C551 C 0.96564 0.04366 0.08959 0.0
C552 C 0.98023 0.91172 0.10395 0.0
C553 C 0.94799 0.90544 0.11705 0.0
C554 C 0.00204 0.94813 0.10414 0.0
C555 C 0.9903 0.97941 0.11728 0.0
C556 C 0.95731 0.97338 0.13034 0.0
C557 C 0.93698 0.93611 0.13031 0.0
C558 C 0.03785 0.95297 0.09045 0.0
C559 C 0.94313 0.00647 0.14412 0.0
H560 H 0.08906 0.06848 0.14078 0.0
H561 H 0.01353 0.10954 0.09307 0.0
H562 H 0.03353 0.9849 0.15498 0.0
H563 H 0.06658 0.96518 0.1364 0.0
H564 H 0.08506 0.00262 0.15364 0.0
H565 H 0.95967 0.07111 0.08055 0.0
H566 H 0.97176 0.01798 0.07945 0.0
H567 H 0.93785 0.03611 0.09805 0.0
H568 H 0.98899 0.88775 0.09385 0.0
H569 H 0.91186 0.93124 0.14037 0.0
H570 H 0.06525 0.96098 0.09913 0.0
H571 H 0.03224 0.97808 0.07991 0.0
H572 H 0.04419 0.92502 0.08185 0.0
H573 H 0.96781 0.015 0.15445 0.0
H574 H 0.9163 0.99726 0.15295 0.0
H575 H 0.93525 0.0339 0.13545 0.0
C576 C 0.06395 0.93355 0.63019 0.0
C577 C 0.09465 0.94375 0.61679 0.0
C578 C 0.02703 0.95461 0.63024 0.0
C579 C 0.02143 0.98752 0.61707 0.0
C580 C 0.05273 0.99837 0.60378 0.0
C581 C 0.08872 0.97586 0.60356 0.0
C582 C 0.99388 0.94135 0.64419 0.0
C583 C 0.0484 0.03404 0.58996 0.0
C584 C 0.91546 0.02234 0.60353 0.0
C585 C 0.90951 0.05426 0.61688 0.0
C586 C 0.95146 -0.00018 0.60371 0.0
C587 C 0.98273 0.01047 0.61709 0.0
C588 C 0.97713 0.04323 0.63034 0.0
C589 C 0.94022 0.06429 0.63032 0.0
C590 C 0.95581 0.96432 0.58978 0.0
C591 C 0.01026 0.05629 0.64438 0.0
H592 H 0.06853 0.90855 0.64034 0.0
H593 H 0.11271 0.98401 0.59335 0.0
H594 H 0.98623 0.96627 0.65453 0.0
H595 H 0.96604 0.93417 0.63567 0.0
H596 H 0.0026 0.91434 0.653 0.0
H597 H 0.07626 0.03952 0.58115 0.0
H598 H 0.02284 0.02891 0.5796 0.0
H599 H 0.04134 0.06177 0.59857 0.0
H600 H 0.89146 0.0143 0.59329 0.0
H601 H 0.93563 0.08914 0.64057 0.0
H602 H 0.96277 0.93648 0.59832 0.0
H603 H 0.98143 0.96953 0.57949 0.0
H604 H 0.92798 0.959 0.5809 0.0
H605 H 0.01782 0.03126 0.65467 0.0
H606 H 0.00155 0.08324 0.65325 0.0
H607 H 0.03814 0.06351 0.63592 0.0
C608 C 0.47766 0.58247 0.87855 0.0
C609 C 0.4462 0.58831 0.89216 0.0
C610 C 0.50008 0.54642 0.87844 0.0
C611 C 0.48973 0.51504 0.89178 0.0
C612 C 0.45726 0.52047 0.90522 0.0
C613 C 0.43634 0.55742 0.9055 0.0
C614 C 0.53534 0.54226 0.86435 0.0
C615 C 0.44449 0.48721 0.91922 0.0
C616 C 0.5248 0.40881 0.87901 0.0
C617 C 0.55652 0.40332 0.89251 0.0
C618 C 0.50244 0.4449 0.87875 0.0
C619 C 0.51313 0.47666 0.89183 0.0
C620 C 0.54592 0.4716 0.90513 0.0
C621 C 0.56677 0.43463 0.90556 0.0
C622 C 0.46686 0.44871 0.86482 0.0
C623 C 0.55906 0.50525 0.91884 0.0
H624 H 0.48548 0.6066 0.86837 0.0
H625 H 0.41178 0.56193 0.91592 0.0
H626 H 0.56349 0.53604 0.8728 0.0
H627 H 0.53037 0.51624 0.85426 0.0
H628 H 0.53999 0.56989 0.85527 0.0
H629 H 0.41725 0.49551 0.92796 0.0
H630 H 0.4379 0.45915 0.91077 0.0
H631 H 0.4695 0.48018 0.92963 0.0
H632 H 0.51667 0.38436 0.86906 0.0
H633 H 0.59153 0.43037 0.91591 0.0
H634 H 0.47154 0.47449 0.85457 0.0
H635 H 0.4389 0.45507 0.87338 0.0
H636 H 0.46203 0.42086 0.8559 0.0
H637 H 0.56537 0.53309 0.91018 0.0
H638 H 0.58657 0.49721 0.92746 0.0
H639 H 0.53435 0.51253 0.92937 0.0
C640 C 0.58726 0.52223 0.37857 0.0
C641 C 0.5938 0.55359 0.39216 0.0
C642 C 0.55073 0.5006 0.37846 0.0
C643 C 0.51953 0.51169 0.39178 0.0
C644 C 0.52571 0.54401 0.40524 0.0
C645 C 0.56314 0.5641 0.40552 0.0
C646 C 0.54579 0.46545 0.36437 0.0
C647 C 0.4927 0.55755 0.41922 0.0
C648 C 0.41273 0.47889 0.3785 0.0
C649 C 0.4064 0.44716 0.39189 0.0
C650 C 0.44922 0.50063 0.37851 0.0
C651 C 0.48054 0.48927 0.39173 0.0
C652 C 0.47458 0.45652 0.40494 0.0
C653 C 0.43721 0.43633 0.40512 0.0
C654 C 0.45397 0.5362 0.36467 0.0
C655 C 0.50773 0.44263 0.41877 0.0
H656 H 0.61121 0.51387 0.36838 0.0
H657 H 0.5682 0.58856 0.41594 0.0
H658 H 0.53862 0.43753 0.3728 0.0
H659 H 0.5201 0.47114 0.35416 0.0
H660 H 0.57345 0.45997 0.3554 0.0
H661 H 0.50169 0.58448 0.42804 0.0
H662 H 0.46488 0.56497 0.41073 0.0
H663 H 0.48492 0.53269 0.42956 0.0
H664 H 0.38865 0.48747 0.36842 0.0
H665 H 0.4323 0.41158 0.41538 0.0
H666 H 0.47962 0.53089 0.35441 0.0
H667 H 0.46111 0.56389 0.3733 0.0
H668 H 0.42624 0.54185 0.35577 0.0
H669 H 0.53551 0.43555 0.4102 0.0
H670 H 0.49888 0.41541 0.4274 0.0
H671 H 0.51552 0.4672 0.4293 0.0
C672 C 0.07514 0.05002 0.87208 0.0
C673 C 0.06582 0.08361 0.86029 0.0
C674 C 0.05065 0.01529 0.87168 0.0
C675 C 0.01696 0.01375 0.85869 0.0
C676 C 0.00871 0.0469 0.84605 0.0
C677 C 0.03282 0.08176 0.84727 0.0
C678 C 0.05981 0.981 0.88577 0.0
C679 C 0.97397 0.04586 0.8315 0.0
C680 C 0.97323 0.9094 0.84874 0.0
C681 C 0.93883 0.90954 0.86089 0.0
C682 C 0.99823 0.94361 0.84736 0.0
C683 C 0.98937 0.97818 0.85896 0.0
C684 C 0.95452 0.97849 0.87119 0.0
C685 C 0.92925 0.94435 0.87175 0.0
C686 C 0.03427 0.94266 0.83361 0.0
C687 C 0.94462 0.01436 0.88418 0.0
H688 H 0.10043 0.05167 0.88229 0.0
H689 H 0.02579 0.10772 0.83807 0.0
H690 H 0.03383 0.97652 0.89596 0.0
H691 H 0.064 0.95237 0.87745 0.0
H692 H 0.08742 0.98672 0.89475 0.0
H693 H 0.97399 0.07249 0.82147 0.0
H694 H 0.97546 0.01793 0.8224 0.0
H695 H 0.9448 0.04526 0.83962 0.0
H696 H 0.98048 0.8825 0.84026 0.0
H697 H 0.90287 0.94428 0.8813 0.0
H698 H 0.06268 0.94473 0.84231 0.0
H699 H 0.03347 0.96914 0.82351 0.0
H700 H 0.03526 0.91459 0.82456 0.0
H701 H 0.97015 0.02031 0.89448 0.0
H702 H 0.91668 0.00957 0.89303 0.0
H703 H 0.94057 0.04186 0.87499 0.0
C704 C 0.05275 0.92756 0.37022 0.0
C705 C 0.08658 0.93775 0.35879 0.0
C706 C 0.0177 0.95158 0.3698 0.0
C707 C 0.0161 0.9857 0.35711 0.0
C708 C 0.04956 0.99491 0.34482 0.0
C709 C 0.08474 0.97124 0.34609 0.0
C710 C 0.98307 0.94142 0.38352 0.0
C711 C 0.04847 0.03012 0.33059 0.0
C712 C 0.91098 0.02741 0.347 0.0
C713 C 0.91 0.06115 0.35957 0.0
C714 C 0.94592 0.00345 0.34545 0.0
C715 C 0.98004 0.01264 0.35732 0.0
C716 C 0.97925 0.04693 0.36993 0.0
C717 C 0.94442 0.07122 0.37063 0.0
C718 C 0.94612 0.96804 0.33131 0.0
C719 C 0.01462 0.0571 0.38322 0.0
H720 H 0.05439 0.90189 0.38019 0.0
H721 H 0.11091 0.97893 0.33716 0.0
H722 H 0.97766 0.96705 0.39381 0.0
H723 H 0.95484 0.93683 0.37491 0.0
H724 H 0.98903 0.91374 0.39239 0.0
H725 H 0.07549 0.03092 0.3208 0.0
H726 H 0.0209 0.02848 0.32121 0.0
H727 H 0.04704 0.05897 0.33895 0.0
H728 H 0.88437 0.0198 0.33836 0.0
H729 H 0.94346 0.09708 0.38051 0.0
H730 H 0.94817 0.93931 0.33973 0.0
H731 H 0.97306 0.96961 0.32152 0.0
H732 H 0.91848 0.96707 0.32194 0.0
H733 H 0.02068 0.03144 0.3934 0.0
H734 H 0.00911 0.08473 0.3922 0.0
H735 H 0.04233 0.06179 0.37425 0.0
C736 C 0.52443 0.4169 0.13701 0.0
C737 C 0.55978 0.41351 0.14837 0.0
C738 C 0.50104 0.45226 0.13742 0.0
C739 C 0.51253 0.48447 0.15005 0.0
C740 C 0.54765 0.48076 0.162 0.0
C741 C 0.57137 0.44553 0.16072 0.0
C742 C 0.46467 0.45553 0.12393 0.0
C743 C 0.56009 0.51396 0.1761 0.0
C744 C 0.47641 0.58975 0.13644 0.0
C745 C 0.44101 0.59324 0.14774 0.0
C746 C 0.50002 0.55455 0.13712 0.0
C747 C 0.48871 0.52265 0.14997 0.0
C748 C 0.4536 0.52654 0.16188 0.0
C749 C 0.42965 0.56156 0.16033 0.0
C750 C 0.53637 0.55105 0.12365 0.0
C751 C 0.44134 0.49371 0.17621 0.0
H752 H 0.51566 0.3922 0.12733 0.0
H753 H 0.59854 0.44269 0.16963 0.0
H754 H 0.4369 0.46088 0.13277 0.0
H755 H 0.46835 0.48178 0.11384 0.0
H756 H 0.46015 0.42787 0.11484 0.0
H757 H 0.58637 0.50511 0.18542 0.0
H758 H 0.56823 0.54158 0.16767 0.0
H759 H 0.53438 0.52197 0.18593 0.0
H760 H 0.48499 0.61418 0.12658 0.0
H761 H 0.40244 0.5645 0.16919 0.0
H762 H 0.5326 0.52466 0.11365 0.0
H763 H 0.56415 0.54576 0.1325 0.0
H764 H 0.5409 0.57857 0.11448 0.0
H765 H 0.43299 0.46591 0.16796 0.0
H766 H 0.41523 0.50283 0.18557 0.0
H767 H 0.46719 0.48587 0.186 0.0
C768 C 0.41076 0.46605 0.66558 0.0
C769 C 0.40982 0.43384 0.6521 0.0
C770 C 0.44527 0.4905 0.66742 0.0
C771 C 0.4789 0.48346 0.6549 0.0
C772 C 0.47828 0.45052 0.64146 0.0
C773 C 0.44392 0.42561 0.64048 0.0
C774 C 0.44539 0.52437 0.68244 0.0
C775 C 0.51308 0.44272 0.62747 0.0
C776 C 0.54676 0.57263 0.64262 0.0
C777 C 0.58193 0.56296 0.65319 0.0
C778 C 0.51289 0.54705 0.64313 0.0
C779 C 0.51384 0.51179 0.65506 0.0
C780 C 0.54865 0.50298 0.66651 0.0
C781 C 0.58265 0.52829 0.66513 0.0
C782 C 0.47676 0.55689 0.63027 0.0
C783 C 0.55022 0.46653 0.67996 0.0
H784 H 0.38437 0.47219 0.67465 0.0
H785 H 0.44294 0.4009 0.62991 0.0
H786 H 0.47334 0.52308 0.69155 0.0
H787 H 0.44524 0.55399 0.67472 0.0
H788 H 0.41871 0.52307 0.69243 0.0
H789 H 0.50807 0.4155 0.61812 0.0
H790 H 0.5173 0.46928 0.61762 0.0
H791 H 0.5416 0.43863 0.6359 0.0
H792 H 0.54645 0.59921 0.63321 0.0
H793 H 0.60987 0.52098 0.67337 0.0
H794 H 0.44915 0.55978 0.6395 0.0
H795 H 0.47141 0.53185 0.61963 0.0
H796 H 0.48092 0.58541 0.62181 0.0
H797 H 0.52339 0.46613 0.68985 0.0
H798 H 0.57804 0.46606 0.68922 0.0
H799 H 0.54933 0.43841 0.671 0.0
C800 C 0.11123 0.19743 0.02208 0.0
C801 C 0.12167 0.2331 0.03214 0.0
C802 C 0.1135 0.19501 1.00136 0.0
C803 C 0.12693 0.22896 0.9904 0.0
C804 C 0.13789 0.26495 1.00044 0.0
C805 C 0.13494 0.26666 0.0212 0.0
C806 C 0.10119 0.15619 0.99119 0.0
C807 C 0.1527 0.30163 0.98927 0.0
C808 C 0.16442 0.20656 0.9383 0.0
C809 C 0.13038 0.21634 0.92681 0.0
C810 C 0.16422 0.21181 0.95895 0.0
C811 C 0.12897 0.22673 0.96838 0.0
C812 C 0.09486 0.23757 0.95684 0.0
C813 C 0.09606 0.23247 0.93621 0.0
C814 C 0.20138 0.20038 0.97073 0.0
C815 C 0.05656 0.25328 0.96634 0.0
H816 H 0.10085 0.17136 0.0304 0.0
H817 H 0.14324 0.29428 0.02885 0.0
H818 H 0.07601 0.16218 0.98071 0.0
H819 H 0.12689 0.14412 0.98243 0.0
H820 H 0.09131 0.13259 1.00186 0.0
H821 H 0.16081 0.32702 0.9993 0.0
H822 H 0.17965 0.29358 0.98029 0.0
H823 H 0.12897 0.31218 0.97884 0.0
H824 H 0.1911 0.19416 0.93123 0.0
H825 H 0.06954 0.24011 0.92751 0.0
H826 H 0.19436 0.17429 0.98047 0.0
H827 H 0.21067 0.22585 0.98043 0.0
H828 H 0.2273 0.19207 0.96106 0.0
H829 H 0.04347 0.2296 0.97607 0.0
H830 H 0.0334 0.26216 0.95522 0.0
H831 H 0.0634 0.27986 0.9758 0.0
C832 C 0.79121 0.16253 0.43807 0.0
C833 C 0.78099 0.12792 0.42709 0.0
C834 C 0.78702 0.16329 0.45877 0.0
C835 C 0.77261 0.1285 0.46878 0.0
C836 C 0.76128 0.09385 0.45775 0.0
C837 C 0.76541 0.09405 0.43705 0.0
C838 C 0.79896 0.20099 0.46999 0.0
C839 C 0.74601 0.05606 0.46786 0.0
C840 C 0.80386 0.11314 0.52244 0.0
C841 C 0.7685 0.12392 0.53267 0.0
C842 C 0.80558 0.11461 0.50168 0.0
C843 C 0.77123 0.12757 0.49084 0.0
C844 C 0.73559 0.13899 0.50106 0.0
C845 C 0.73458 0.13684 0.52185 0.0
C846 C 0.84406 0.10186 0.49133 0.0
C847 C 0.6985 0.15335 0.49003 0.0
H848 H 0.80302 0.18895 0.43051 0.0
H849 H 0.75744 0.06714 0.42874 0.0
H850 H 0.77381 0.21087 0.47974 0.0
H851 H 0.82533 0.19439 0.47964 0.0
H852 H 0.80704 0.22635 0.45994 0.0
H853 H 0.73677 0.03233 0.45711 0.0
H854 H 0.77007 0.04352 0.47756 0.0
H855 H 0.71974 0.06336 0.47744 0.0
H856 H 0.8302 0.10303 0.53065 0.0
H857 H 0.70719 0.14542 0.52963 0.0
H858 H 0.85571 0.12708 0.48212 0.0
H859 H 0.83773 0.07612 0.48124 0.0
H860 H 0.86811 0.09263 0.50191 0.0
H861 H 0.70628 0.17974 0.48062 0.0
H862 H 0.67354 0.16212 0.50018 0.0
H863 H 0.68744 0.1291 0.48004 0.0
C864 C 0.9012 0.76264 0.93688 0.0
C865 C 0.86798 0.78023 0.92715 0.0
C866 C 0.90167 0.75811 0.95754 0.0
C867 C 0.86795 0.77111 0.96879 0.0
C868 C 0.8337 0.78751 0.95904 0.0
C869 C 0.83418 0.79205 0.93834 0.0
C870 C 0.9389 0.7407 0.96737 0.0
C871 C 0.79698 0.80126 0.97052 0.0
C872 C 0.86028 0.73295 0.02184 0.0
C873 C 0.87567 0.76594 0.03256 0.0
C874 C 0.8569 0.73441 1.0011 0.0
C875 C 0.86957 0.76954 0.99083 0.0
C876 C 0.88497 0.80297 1.00157 0.0
C877 C 0.88765 0.80084 0.02229 0.0
C878 C 0.84001 0.6983 0.99017 0.0
C879 C 0.89916 0.84085 0.99116 0.0
H880 H 0.9275 0.75339 0.92842 0.0
H881 H 0.80828 0.80544 0.93096 0.0
H882 H 0.95305 0.76395 0.97701 0.0
H883 H 0.93047 0.71482 0.97698 0.0
H884 H 0.96177 0.73025 0.95645 0.0
H885 H 0.77172 0.81059 0.96065 0.0
H886 H 0.78618 0.77664 0.98036 0.0
H887 H 0.80518 0.82726 0.98011 0.0
H888 H 0.85073 0.70595 0.02966 0.0
H889 H 0.89962 0.82647 0.03042 0.0
H890 H 0.86324 0.6859 0.97997 0.0
H891 H 0.81376 0.70763 0.98097 0.0
H892 H 0.83018 0.67385 1.00037 0.0
H893 H 0.92421 0.83335 0.98084 0.0
H894 H 0.90995 0.86435 1.00168 0.0
H895 H 0.87418 0.85377 0.98217 0.0
C896 C 0.20683 0.83599 0.4366 0.0
C897 C 0.21715 0.87054 0.42562 0.0
C898 C 0.21138 0.83509 0.45729 0.0
C899 C 0.22614 0.86975 0.46729 0.0
C900 C 0.23744 0.9044 0.45627 0.0
C901 C 0.23302 0.9043 0.43559 0.0
C902 C 0.19947 0.79738 0.46848 0.0
C903 C 0.25302 0.94208 0.46639 0.0
C904 C 0.19606 0.88455 0.52113 0.0
C905 C 0.23161 0.87352 0.53115 0.0
C906 C 0.19391 0.88339 0.50037 0.0
C907 C 0.22799 0.87048 0.48933 0.0
C908 C 0.26381 0.85881 0.49935 0.0
C909 C 0.26526 0.86067 0.52014 0.0
C910 C 0.15527 0.89643 0.49024 0.0
C911 C 0.30061 0.84446 0.48811 0.0
H912 H 0.1946 0.80973 0.42909 0.0
H913 H 0.24104 0.93121 0.42729 0.0
H914 H 0.22473 0.78734 0.47814 0.0
H915 H 0.17327 0.80402 0.47822 0.0
H916 H 0.19113 0.7721 0.45842 0.0
H917 H 0.26206 0.96588 0.45565 0.0
H918 H 0.22921 0.95459 0.47624 0.0
H919 H 0.27949 0.93465 0.47583 0.0
H920 H 0.16994 0.89462 0.5295 0.0
H921 H 0.29279 0.85191 0.52776 0.0
H922 H 0.14329 0.87135 0.48102 0.0
H923 H 0.1615 0.92223 0.48018 0.0
H924 H 0.13149 0.90568 0.50096 0.0
H925 H 0.29255 0.81818 0.47867 0.0
H926 H 0.32578 0.83553 0.49812 0.0
H927 H 0.31152 0.86878 0.47812 0.0
C928 C 0.60534 0.26667 0.07416 0.0
C929 C 0.63735 0.2847 0.08465 0.0
C930 C 0.60656 0.26283 0.05348 0.0
C931 C 0.64084 0.27687 0.04296 0.0
C932 C 0.67392 0.29372 0.05347 0.0
C933 C 0.67167 0.2977 0.07418 0.0
C934 C 0.57047 0.24501 0.04283 0.0
C935 C 0.71125 0.30848 0.0428 0.0
C936 C 0.65159 0.23902 0.99 0.0
C937 C 0.63568 0.27157 0.97915 0.0
C938 C 0.65461 0.24075 0.01075 0.0
C939 C 0.64096 0.27568 0.0209 0.0
C940 C 0.62546 0.30886 0.01001 0.0
C941 C 0.62323 0.30649 0.98928 0.0
C942 C 0.67176 0.20496 0.02183 0.0
C943 C 0.61024 0.3465 0.02028 0.0
H944 H 0.5786 0.25658 0.08204 0.0
H945 H 0.69657 0.31161 0.08211 0.0
H946 H 0.55686 0.26815 0.03295 0.0
H947 H 0.58011 0.21932 0.03337 0.0
H948 H 0.54679 0.23415 0.05324 0.0
H949 H 0.73557 0.31785 0.05321 0.0
H950 H 0.7232 0.28441 0.03295 0.0
H951 H 0.70334 0.3347 0.0333 0.0
H952 H 0.66156 0.21203 0.98229 0.0
H953 H 0.6109 0.33179 0.98103 0.0
H954 H 0.648 0.19146 0.03137 0.0
H955 H 0.69673 0.2149 0.03169 0.0
H956 H 0.68341 0.18117 0.0117 0.0
H957 H 0.58436 0.33868 0.03004 0.0
H958 H 0.60022 0.37011 0.00964 0.0
H959 H 0.63434 0.3594 0.02983 0.0
C960 C 0.67703 0.66059 0.57297 0.0
C961 C 0.7003 0.63303 0.58397 0.0
C962 C 0.67556 0.65853 0.5522 0.0
C963 C 0.69809 0.62838 0.54218 0.0
C964 C 0.72325 0.60184 0.55311 0.0
C965 C 0.72399 0.60443 0.57386 0.0
C966 C 0.64839 0.68739 0.54106 0.0
C967 C 0.74806 0.56953 0.54297 0.0
C968 C 0.65939 0.58932 0.49277 0.0
C969 C 0.68484 0.60918 0.47929 0.0
C970 C 0.6631 0.59575 0.51323 0.0
C971 C 0.69313 0.62258 0.52044 0.0
C972 C 0.71869 0.64303 0.50693 0.0
C973 C 0.71418 0.63618 0.48651 0.0
C974 C 0.6351 0.57351 0.52716 0.0
C975 C 0.75115 0.67173 0.51407 0.0
H976 H 0.65867 0.68285 0.58061 0.0
H977 H 0.7423 0.58316 0.58217 0.0
H978 H 0.66532 0.70219 0.52887 0.0
H979 H 0.62301 0.67033 0.53425 0.0
H980 H 0.63555 0.71121 0.55083 0.0
H981 H 0.76861 0.55358 0.55341 0.0
H982 H 0.72759 0.54689 0.53611 0.0
H983 H 0.76648 0.58297 0.53092 0.0
H984 H 0.63655 0.56853 0.48734 0.0
H985 H 0.73397 0.6517 0.47621 0.0
H986 H 0.6185 0.59544 0.53659 0.0
H987 H 0.65299 0.55377 0.53717 0.0
H988 H 0.61268 0.55449 0.51916 0.0
H989 H 0.73751 0.69593 0.52329 0.0
H990 H 0.76791 0.68601 0.50164 0.0
H991 H 0.77308 0.65523 0.52355 0.0
C992 C 0.33075 0.70401 0.07193 0.0
C993 C 0.36409 0.71887 0.08258 0.0
C994 C 0.32916 0.70697 0.05117 0.0
C995 C 0.36192 0.7247 0.04079 0.0
C996 C 0.39515 0.74066 0.05148 0.0
C997 C 0.39571 0.73778 0.07221 0.0
C998 C 0.29293 0.69011 0.0403 0.0
C999 C 0.43087 0.7595 0.04099 0.0
C1000 C 0.38201 0.6925 0.98767 0.0
C1001 C 0.36807 0.72608 0.97694 0.0
C1002 C 0.37972 0.69151 0.00842 0.0
C1003 C 0.36263 0.7247 0.01872 0.0
C1004 C 0.34772 0.75833 0.00797 0.0
C1005 C 0.35084 0.75873 0.98721 0.0
C1006 C 0.39638 0.65526 0.01934 0.0
C1007 C 0.32887 0.79407 0.01842 0.0
H1008 H 0.30615 0.68938 0.07975 0.0
H1009 H 0.4217 0.74933 0.08024 0.0
H1010 H 0.2804 0.71315 0.03003 0.0
H1011 H 0.30232 0.66377 0.03121 0.0
H1012 H 0.26858 0.68026 0.05057 0.0
H1013 H 0.45355 0.77201 0.05149 0.0
H1014 H 0.44595 0.73645 0.03158 0.0
H1015 H 0.42052 0.78417 0.03107 0.0
H1016 H 0.39542 0.66716 0.97986 0.0
H1017 H 0.33974 0.78468 0.97903 0.0
H1018 H 0.37253 0.64168 0.0288 0.0
H1019 H 0.42139 0.66488 0.02927 0.0
H1020 H 0.40803 0.63161 0.00913 0.0
H1021 H 0.30377 0.78375 0.0281 0.0
H1022 H 0.3169 0.81694 0.00788 0.0
H1023 H 0.35167 0.80884 0.02808 0.0
C1024 C 0.26715 0.40096 0.57357 0.0
C1025 C 0.28295 0.36698 0.58339 0.0
C1026 C 0.26324 0.40164 0.55287 0.0
C1027 C 0.27495 0.36736 0.54168 0.0
C1028 C 0.28966 0.33248 0.55151 0.0
C1029 C 0.29373 0.3328 0.57222 0.0
C1030 C 0.24771 0.43955 0.54294 0.0
C1031 C 0.30198 0.29514 0.54011 0.0
C1032 C 0.23673 0.36015 0.48862 0.0
C1033 C 0.27048 0.37365 0.47787 0.0
C1034 C 0.23791 0.35734 0.50938 0.0
C1035 C 0.27353 0.36873 0.51964 0.0
C1036 C 0.30774 0.3822 0.50886 0.0
C1037 C 0.30587 0.38427 0.48812 0.0
C1038 C 0.20099 0.34242 0.52034 0.0
C1039 C 0.34617 0.39496 0.51927 0.0
H1040 H 0.25879 0.42758 0.58201 0.0
H1041 H 0.30589 0.30638 0.57962 0.0
H1042 H 0.27164 0.45238 0.53328 0.0
H1043 H 0.22142 0.43229 0.53335 0.0
H1044 H 0.23841 0.46304 0.5538 0.0
H1045 H 0.31026 0.26963 0.55003 0.0
H1046 H 0.27695 0.28526 0.53027 0.0
H1047 H 0.32833 0.30218 0.53053 0.0
H1048 H 0.20933 0.35168 0.48081 0.0
H1049 H 0.33206 0.39483 0.47995 0.0
H1050 H 0.18966 0.3664 0.53042 0.0
H1051 H 0.20906 0.31596 0.52966 0.0
H1052 H 0.17611 0.33354 0.51015 0.0
H1053 H 0.33971 0.42049 0.52947 0.0
H1054 H 0.37014 0.40452 0.50873 0.0
H1055 H 0.35799 0.36964 0.52837 0.0
C1056 C 0.19266 0.22691 0.22476 0.0
C1057 C 0.15885 0.24183 0.21458 0.0
C1058 C 0.21005 0.24872 0.24041 0.0
C1059 C 0.19277 0.28608 0.24624 0.0
C1060 C 0.15823 0.30105 0.23618 0.0
C1061 C 0.14171 0.27875 0.2204 0.0
C1062 C 0.24712 0.23187 0.25062 0.0
C1063 C 0.13858 0.34041 0.24221 0.0
C1064 C 0.21907 0.31879 0.29855 0.0
C1065 C 0.2502 0.34685 0.29523 0.0
C1066 C 0.19884 0.3002 0.2827 0.0
C1067 C 0.21078 0.309 0.26304 0.0
C1068 C 0.24198 0.3375 0.25956 0.0
C1069 C 0.26131 0.35608 0.27571 0.0
C1070 C 0.1657 0.26998 0.28703 0.0
C1071 C 0.25591 0.34731 0.23882 0.0
H1072 H 0.20604 0.19841 0.22023 0.0
H1073 H 0.11505 0.28992 0.21281 0.0
H1074 H 0.27237 0.25393 0.24968 0.0
H1075 H 0.24068 0.2269 0.26655 0.0
H1076 H 0.25725 0.20278 0.24403 0.0
H1077 H 0.11204 0.348 0.2328 0.0
H1078 H 0.12852 0.33859 0.25786 0.0
H1079 H 0.16084 0.36547 0.24124 0.0
H1080 H 0.21148 0.30994 0.31351 0.0
H1081 H 0.28564 0.37743 0.27307 0.0
H1082 H 0.17586 0.23921 0.28273 0.0
H1083 H 0.1383 0.27704 0.27817 0.0
H1084 H 0.15729 0.26955 0.30296 0.0
H1085 H 0.26917 0.31988 0.23189 0.0
H1086 H 0.27894 0.3718 0.23857 0.0
H1087 H 0.22979 0.35666 0.22955 0.0
C1088 C 0.72569 0.14131 0.72101 0.0
C1089 C 0.76257 0.15886 0.71541 0.0
C1090 C 0.70317 0.1571 0.73688 0.0
C1091 C 0.7179 0.1913 0.74727 0.0
C1092 C 0.75528 0.20892 0.74172 0.0
C1093 C 0.7773 0.19227 0.72596 0.0
C1094 C 0.66378 0.13713 0.74259 0.0
C1095 C 0.77189 0.24561 0.75232 0.0
C1096 C 0.64715 0.25886 0.77681 0.0
C1097 C 0.65604 0.24727 0.7963 0.0
C1098 C 0.66606 0.23998 0.76064 0.0
C1099 C 0.69456 0.20875 0.76407 0.0
C1100 C 0.70295 0.19625 0.7837 0.0
C1101 C 0.68401 0.21603 0.79957 0.0
C1102 C 0.65665 0.25447 0.73993 0.0
C1103 C 0.73315 0.16307 0.78798 0.0
H1104 H 0.7147 0.11491 0.71315 0.0
H1105 H 0.80578 0.20595 0.72161 0.0
H1106 H 0.66533 0.12672 0.7582 0.0
H1107 H 0.63862 0.15928 0.74161 0.0
H1108 H 0.65651 0.11079 0.733 0.0
H1109 H 0.80117 0.25593 0.746 0.0
H1110 H 0.74985 0.2709 0.75142 0.0
H1111 H 0.77644 0.23868 0.76824 0.0
H1112 H 0.62587 0.28329 0.77422 0.0
H1113 H 0.69257 0.20806 0.81454 0.0
H1114 H 0.64762 0.2286 0.73043 0.0
H1115 H 0.68418 0.26804 0.73327 0.0
H1116 H 0.63205 0.27739 0.73971 0.0
H1117 H 0.72641 0.13595 0.77886 0.0
H1118 H 0.7332 0.15415 0.80384 0.0
H1119 H 0.76402 0.17343 0.78397 0.0
C1120 C 0.7789 0.68128 0.29817 0.0
C1121 C 0.74812 0.65287 0.29476 0.0
C1122 C 0.79897 0.70016 0.28238 0.0
C1123 C 0.78716 0.69136 0.2627 0.0
C1124 C 0.75618 0.66264 0.25913 0.0
C1125 C 0.73705 0.64372 0.27522 0.0
C1126 C 0.83188 0.73059 0.28681 0.0
C1127 C 0.74236 0.65288 0.23835 0.0
C1128 C 0.80561 0.77359 0.22458 0.0
C1129 C 0.83958 0.75873 0.21453 0.0
C1130 C 0.78799 0.75168 0.24012 0.0
C1131 C 0.80525 0.71431 0.24596 0.0
C1132 C 0.83995 0.69941 0.23604 0.0
C1133 C 0.85666 0.72179 0.22036 0.0
C1134 C 0.75075 0.76841 0.25019 0.0
C1135 C 0.85958 0.66006 0.2421 0.0
H1136 H 0.78637 0.6901 0.31316 0.0
H1137 H 0.71293 0.62215 0.27253 0.0
H1138 H 0.85943 0.72363 0.27805 0.0
H1139 H 0.82162 0.76128 0.28245 0.0
H1140 H 0.8401 0.73115 0.30277 0.0
H1141 H 0.71932 0.6284 0.23804 0.0
H1142 H 0.72917 0.68032 0.23142 0.0
H1143 H 0.76853 0.64353 0.22913 0.0
H1144 H 0.79229 0.8021 0.22002 0.0
H1145 H 0.88343 0.71068 0.21285 0.0
H1146 H 0.75699 0.77344 0.26615 0.0
H1147 H 0.72558 0.74627 0.24918 0.0
H1148 H 0.7406 0.79746 0.24356 0.0
H1149 H 0.86945 0.66187 0.25779 0.0
H1150 H 0.88624 0.65252 0.23278 0.0
H1151 H 0.83736 0.63498 0.24103 0.0
C1152 C 0.30951 0.71988 0.78446 0.0
C1153 C 0.34282 0.73607 0.79457 0.0
C1154 C 0.29125 0.74093 0.7688 0.0
C1155 C 0.30718 0.77882 0.76288 0.0
C1156 C 0.34122 0.79509 0.77287 0.0
C1157 C 0.35859 0.77354 0.78868 0.0
C1158 C 0.25473 0.72272 0.75868 0.0
C1159 C 0.35944 0.83505 0.76674 0.0
C1160 C 0.27962 0.81016 0.71054 0.0
C1161 C 0.24772 0.83738 0.71382 0.0
C1162 C 0.30045 0.79232 0.7264 0.0
C1163 C 0.2883 0.80092 0.74605 0.0
C1164 C 0.25621 0.82844 0.74951 0.0
C1165 C 0.23634 0.84636 0.73334 0.0
C1166 C 0.33453 0.76315 0.7221 0.0
C1167 C 0.242 0.83794 0.77024 0.0
H1168 H 0.29715 0.69098 0.78907 0.0
H1169 H 0.38483 0.78572 0.79625 0.0
H1170 H 0.22874 0.74392 0.7596 0.0
H1171 H 0.26125 0.71779 0.74275 0.0
H1172 H 0.24564 0.69338 0.76536 0.0
H1173 H 0.38578 0.84363 0.77608 0.0
H1174 H 0.36942 0.83345 0.75106 0.0
H1175 H 0.33633 0.85933 0.76772 0.0
H1176 H 0.28746 0.80141 0.69559 0.0
H1177 H 0.21143 0.86705 0.73597 0.0
H1178 H 0.32543 0.73211 0.72649 0.0
H1179 H 0.36174 0.77122 0.7309 0.0
H1180 H 0.34286 0.76279 0.70616 0.0
H1181 H 0.22983 0.81011 0.77725 0.0
H1182 H 0.21805 0.86155 0.77046 0.0
H1183 H 0.26778 0.84837 0.77946 0.0
C1184 C 0.85649 0.72745 0.78866 0.0
C1185 C 0.82731 0.73418 0.80339 0.0
C1186 C 0.84546 0.71303 0.76983 0.0
C1187 C 0.80406 0.7067 0.76534 0.0
C1188 C 0.77445 0.71347 0.78015 0.0
C1189 C 0.78652 0.72639 0.79907 0.0
C1190 C 0.87808 0.70511 0.75466 0.0
C1191 C 0.72989 0.70807 0.77586 0.0
C1192 C 0.77105 0.71238 0.71142 0.0
C1193 C 0.76301 0.6717 0.70702 0.0
C1194 C 0.78444 0.72417 0.7303 0.0
C1195 C 0.79148 0.69438 0.74498 0.0
C1196 C 0.78516 0.65304 0.74036 0.0
C1197 C 0.77028 0.64228 0.72157 0.0
C1198 C 0.78984 0.76865 0.73471 0.0
C1199 C 0.79341 0.62023 0.75539 0.0
H1200 H 0.88797 0.73426 0.79166 0.0
H1201 H 0.76387 0.73099 0.81046 0.0
H1202 H 0.87454 0.67431 0.74834 0.0
H1203 H 0.87522 0.72694 0.74226 0.0
H1204 H 0.90896 0.70787 0.76104 0.0
H1205 H 0.71067 0.71526 0.7889 0.0
H1206 H 0.72079 0.728 0.7634 0.0
H1207 H 0.72374 0.67646 0.77125 0.0
H1208 H 0.76604 0.7352 0.70016 0.0
H1209 H 0.76336 0.61087 0.7185 0.0
H1210 H 0.82146 0.77477 0.73936 0.0
H1211 H 0.76988 0.77758 0.74719 0.0
H1212 H 0.78265 0.78803 0.72174 0.0
H1213 H 0.82425 0.62385 0.76168 0.0
H1214 H 0.79079 0.58946 0.74888 0.0
H1215 H 0.77163 0.62274 0.76782 0.0
C1216 C 0.23923 0.82437 0.28644 0.0
C1217 C 0.26587 0.83338 0.30197 0.0
C1218 C 0.2538 0.81326 0.26769 0.0
C1219 C 0.29611 0.81127 0.26436 0.0
C1220 C 0.32316 0.82131 0.27991 0.0
C1221 C 0.30767 0.83233 0.29856 0.0
C1222 C 0.22389 0.80295 0.25153 0.0
C1223 C 0.36842 0.81958 0.27696 0.0
C1224 C 0.32901 0.74113 0.22276 0.0
C1225 C 0.33467 0.76825 0.20707 0.0
C1226 C 0.31756 0.75487 0.24161 0.0
C1227 C 0.31174 0.79682 0.24486 0.0
C1228 C 0.31875 0.82447 0.22918 0.0
C1229 C 0.33023 0.80981 0.21043 0.0
C1230 C 0.31061 0.72436 0.2579 0.0
C1231 C 0.31294 0.86939 0.23204 0.0
H1232 H 0.20687 0.82584 0.28904 0.0
H1233 H 0.32821 0.83944 0.3106 0.0
H1234 H 0.22955 0.822 0.23829 0.0
H1235 H 0.22787 0.77093 0.24696 0.0
H1236 H 0.19202 0.80736 0.25632 0.0
H1237 H 0.3853 0.83029 0.2902 0.0
H1238 H 0.37776 0.78803 0.2737 0.0
H1239 H 0.37729 0.83835 0.26406 0.0
H1240 H 0.33299 0.70899 0.22016 0.0
H1241 H 0.33472 0.83071 0.19826 0.0
H1242 H 0.27835 0.72496 0.26247 0.0
H1243 H 0.32899 0.73227 0.27111 0.0
H1244 H 0.31839 0.69307 0.25324 0.0
H1245 H 0.28061 0.87584 0.2352 0.0
H1246 H 0.32217 0.88703 0.21879 0.0
H1247 H 0.33071 0.88005 0.24498 0.0
C1248 C 0.17401 0.30219 0.79947 0.0
C1249 C 0.17242 0.26053 0.80315 0.0
C1250 C 0.18481 0.31702 0.78068 0.0
C1251 C 0.19398 0.28943 0.76524 0.0
C1252 C 0.19163 0.24727 0.76887 0.0
C1253 C 0.18084 0.23336 0.78779 0.0
C1254 C 0.18706 0.36215 0.77743 0.0
C1255 C 0.20096 0.21683 0.75282 0.0
C1256 C 0.19279 0.32321 0.71127 0.0
C1257 C 0.2342 0.32741 0.70739 0.0
C1258 C 0.17909 0.31164 0.73016 0.0
C1259 C 0.20757 0.3044 0.74549 0.0
C1260 C 0.2494 0.30979 0.74169 0.0
C1261 C 0.26218 0.32123 0.72268 0.0
C1262 C 0.13428 0.30619 0.7336 0.0
C1263 C 0.28074 0.30265 0.7576 0.0
H1264 H 0.16732 0.32313 0.8114 0.0
H1265 H 0.17897 0.20111 0.79061 0.0
H1266 H 0.21851 0.37089 0.77357 0.0
H1267 H 0.16748 0.371 0.76479 0.0
H1268 H 0.17758 0.37953 0.79073 0.0
H1269 H 0.19654 0.18515 0.75789 0.0
H1270 H 0.18129 0.22226 0.73977 0.0
H1271 H 0.23278 0.22041 0.74787 0.0
H1272 H 0.17124 0.32813 0.69939 0.0
H1273 H 0.2942 0.32502 0.71967 0.0
H1274 H 0.12436 0.32462 0.74645 0.0
H1275 H 0.12782 0.27407 0.73721 0.0
H1276 H 0.11599 0.31491 0.72046 0.0
H1277 H 0.27387 0.32143 0.7708 0.0
H1278 H 0.31188 0.30983 0.75248 0.0
H1279 H 0.27989 0.27053 0.76236 0.0
C1280 C 0.75897 0.17472 0.28745 0.0
C1281 C 0.73247 0.16796 0.30328 0.0
C1282 C 0.74436 0.1865 0.26879 0.0
C1283 C 0.70214 0.19122 0.26585 0.0
C1284 C 0.67515 0.1831 0.28167 0.0
C1285 C 0.69069 0.17156 0.30024 0.0
C1286 C 0.7742 0.19482 0.25235 0.0
C1287 C 0.62997 0.18753 0.27912 0.0
C1288 C 0.67148 0.26354 0.22475 0.0
C1289 C 0.66369 0.23697 0.20903 0.0
C1290 C 0.68309 0.24897 0.24343 0.0
C1291 C 0.68665 0.20673 0.24652 0.0
C1292 C 0.67737 0.17969 0.23085 0.0
C1293 C 0.666 0.19518 0.21225 0.0
C1294 C 0.69263 0.27887 0.25969 0.0
C1295 C 0.68054 0.13448 0.23359 0.0
H1296 H 0.79127 0.17118 0.28975 0.0
H1297 H 0.67025 0.16606 0.31251 0.0
H1298 H 0.76676 0.17617 0.23918 0.0
H1299 H 0.77211 0.22702 0.2478 0.0
H1300 H 0.80591 0.18835 0.25684 0.0
H1301 H 0.61299 0.17759 0.29246 0.0
H1302 H 0.62239 0.21964 0.27609 0.0
H1303 H 0.61952 0.16956 0.26621 0.0
H1304 H 0.66906 0.29588 0.22229 0.0
H1305 H 0.65985 0.17469 0.20007 0.0
H1306 H 0.72492 0.27605 0.26403 0.0
H1307 H 0.67418 0.27217 0.27301 0.0
H1308 H 0.68684 0.31064 0.25511 0.0
H1309 H 0.71255 0.12601 0.23638 0.0
H1310 H 0.66959 0.11754 0.22042 0.0
H1311 H 0.66277 0.12483 0.2467 0.0
C1312 C 0.45024 0.22774 0.1435 0.0
C1313 C 0.47955 0.21365 0.13016 0.0
C1314 C 0.40888 0.22176 0.13989 0.0
C1315 C 0.39652 0.20116 0.12252 0.0
C1316 C 0.42594 0.18503 0.10951 0.0
C1317 C 0.46717 0.19141 0.1135 0.0
C1318 C 0.37836 0.23906 0.15425 0.0
C1319 C 0.41387 0.16266 0.09092 0.0
C1320 C 0.28701 0.16718 0.12273 0.0
C1321 C 0.26809 0.19985 0.11332 0.0
C1322 C 0.32918 0.16612 0.12501 0.0
C1323 C 0.35274 0.19852 0.11762 0.0
C1324 C 0.33382 0.23035 0.10699 0.0
C1325 C 0.29154 0.23057 0.10494 0.0
C1326 C 0.3482 0.13154 0.13627 0.0
C1327 C 0.35798 0.2653 0.09878 0.0
H1328 H 0.45954 0.24474 0.15647 0.0
H1329 H 0.4896 0.18038 0.1031 0.0
H1330 H 0.36051 0.26314 0.14683 0.0
H1331 H 0.35677 0.21525 0.159 0.0
H1332 H 0.39293 0.25216 0.16762 0.0
H1333 H 0.44028 0.14871 0.08336 0.0
H1334 H 0.39158 0.13859 0.09441 0.0
H1335 H 0.39904 0.18393 0.08048 0.0
H1336 H 0.26858 0.14325 0.12901 0.0
H1337 H 0.27664 0.25572 0.09763 0.0
H1338 H 0.35954 0.14267 0.15076 0.0
H1339 H 0.37454 0.11926 0.12805 0.0
H1340 H 0.32637 0.1066 0.13904 0.0
H1341 H 0.37082 0.28326 0.11117 0.0
H1342 H 0.33923 0.28565 0.08942 0.0
H1343 H 0.38373 0.25397 0.08981 0.0
C1344 C 0.76989 0.29329 0.6058 0.0
C1345 C 0.80137 0.27087 0.61422 0.0
C1346 C 0.76864 0.33555 0.60785 0.0
C1347 C 0.79972 0.35555 0.61855 0.0
C1348 C 0.83282 0.33307 0.62606 0.0
C1349 C 0.83326 0.2909 0.62375 0.0
C1350 C 0.73301 0.35851 0.59949 0.0
C1351 C 0.86664 0.35324 0.63741 0.0
C1352 C 0.80404 0.47005 0.614 0.0
C1353 C 0.78145 0.48222 0.63058 0.0
C1354 C 0.81134 0.42893 0.61016 0.0
C1355 C 0.79578 0.39934 0.62324 0.0
C1356 C 0.7747 0.41151 0.6405 0.0
C1357 C 0.7678 0.45279 0.64397 0.0
C1358 C 0.83419 0.4171 0.59168 0.0
C1359 C 0.75797 0.38084 0.65493 0.0
H1360 H 0.74533 0.27758 0.59841 0.0
H1361 H 0.85781 0.27332 0.63006 0.0
H1362 H 0.71459 0.371 0.6118 0.0
H1363 H 0.74363 0.38444 0.59045 0.0
H1364 H 0.71327 0.33904 0.59017 0.0
H1365 H 0.89212 0.33217 0.64044 0.0
H1366 H 0.87839 0.37969 0.6291 0.0
H1367 H 0.85488 0.36461 0.65176 0.0
H1368 H 0.81475 0.49255 0.60357 0.0
H1369 H 0.7505 0.4619 0.65686 0.0
H1370 H 0.81346 0.40129 0.58131 0.0
H1371 H 0.85897 0.39572 0.59536 0.0
H1372 H 0.84732 0.44372 0.58396 0.0
H1373 H 0.73449 0.36223 0.64749 0.0
H1374 H 0.74427 0.3953 0.66818 0.0
H1375 H 0.78229 0.35999 0.65987 0.0
C1376 C 0.54873 0.77897 0.14262 0.0
C1377 C 0.51974 0.79318 0.12912 0.0
C1378 C 0.59019 0.78465 0.13919 0.0
C1379 C 0.60297 0.80512 0.12187 0.0
C1380 C 0.57386 0.82158 0.10877 0.0
C1381 C 0.53252 0.81544 0.11256 0.0
C1382 C 0.62035 0.767 0.15363 0.0
C1383 C 0.58639 0.84392 0.09025 0.0
C1384 C 0.71313 0.83683 0.12244 0.0
C1385 C 0.73145 0.80377 0.11307 0.0
C1386 C 0.67096 0.83884 0.12454 0.0
C1387 C 0.6468 0.80698 0.11704 0.0
C1388 C 0.66515 0.77477 0.10645 0.0
C1389 C 0.70744 0.77362 0.10455 0.0
C1390 C 0.65256 0.87383 0.13575 0.0
C1391 C 0.64035 0.74036 0.09813 0.0
H1392 H 0.53913 0.76199 0.15552 0.0
H1393 H 0.51034 0.82662 0.10206 0.0
H1394 H 0.63788 0.7426 0.14628 0.0
H1395 H 0.64226 0.79051 0.15841 0.0
H1396 H 0.60549 0.75419 0.16699 0.0
H1397 H 0.56027 0.85858 0.08276 0.0
H1398 H 0.60926 0.8674 0.09381 0.0
H1399 H 0.60063 0.82242 0.07973 0.0
H1400 H 0.73201 0.86033 0.12882 0.0
H1401 H 0.72187 0.74817 0.09727 0.0
H1402 H 0.6411 0.86301 0.15025 0.0
H1403 H 0.6264 0.88649 0.1275 0.0
H1404 H 0.67482 0.89842 0.13846 0.0
H1405 H 0.627 0.72264 0.11047 0.0
H1406 H 0.65877 0.71963 0.08882 0.0
H1407 H 0.61494 0.75224 0.08909 0.0
C1408 C 0.22249 0.54579 0.64484 0.0
C1409 C 0.20909 0.51619 0.63147 0.0
C1410 C 0.2166 0.58705 0.64096 0.0
C1411 C 0.19688 0.59901 0.62327 0.0
C1412 C 0.18133 0.56928 0.61025 0.0
C1413 C 0.18752 0.52817 0.61453 0.0
C1414 C 0.23319 0.61789 0.65535 0.0
C1415 C 0.15996 0.58089 0.59131 0.0
C1416 C 0.16379 0.70877 0.62212 0.0
C1417 C 0.19726 0.72708 0.6131 0.0
C1418 C 0.16222 0.66671 0.62471 0.0
C1419 C 0.19488 0.64262 0.61799 0.0
C1420 C 0.22751 0.66089 0.60769 0.0
C1421 C 0.22827 0.70308 0.60535 0.0
C1422 C 0.12681 0.64839 0.63562 0.0
C1423 C 0.2627 0.63617 0.60014 0.0
H1424 H 0.23894 0.53679 0.65802 0.0
H1425 H 0.17703 0.50552 0.60411 0.0
H1426 H 0.25791 0.63528 0.64819 0.0
H1427 H 0.20924 0.63981 0.65956 0.0
H1428 H 0.24529 0.60366 0.66903 0.0
H1429 H 0.146 0.55436 0.58384 0.0
H1430 H 0.13603 0.60363 0.5943 0.0
H1431 H 0.18194 0.59495 0.58097 0.0
H1432 H 0.13965 0.72762 0.6279 0.0
H1433 H 0.25403 0.71749 0.59833 0.0
H1434 H 0.13696 0.63763 0.65037 0.0
H1435 H 0.11486 0.6218 0.62747 0.0
H1436 H 0.10184 0.67048 0.63779 0.0
H1437 H 0.27987 0.62361 0.61287 0.0
H1438 H 0.28374 0.6544 0.59092 0.0
H1439 H 0.25164 0.61022 0.59123 0.0
C1440 C 0.9709 0.31226 0.89158 0.0
C1441 C 0.98284 0.28757 0.8757 0.0
C1442 C 0.92978 0.31942 0.89548 0.0
C1443 C 0.90006 0.30154 0.88318 0.0
C1444 C 0.91201 0.27876 0.86641 0.0
C1445 C 0.95327 0.27207 0.86287 0.0
C1446 C 0.91815 0.34418 0.91339 0.0
C1447 C 0.88118 0.25956 0.8528 0.0
C1448 C 0.79692 0.27197 0.90291 0.0
C1449 C 0.77223 0.30105 0.89398 0.0
C1450 C 0.83902 0.27293 0.90028 0.0
C1451 C 0.85652 0.30383 0.88851 0.0
C1452 C 0.83175 0.33468 0.88048 0.0
C1453 C 0.78975 0.33292 0.88335 0.0
C1454 C 0.86449 0.23964 0.9092 0.0
C1455 C 0.8493 0.36829 0.86802 0.0
H1456 H 0.99356 0.32445 0.90155 0.0
H1457 H 0.96226 0.25326 0.85047 0.0
H1458 H 0.89481 0.36694 0.90944 0.0
H1459 H 0.90482 0.32406 0.92481 0.0
H1460 H 0.94457 0.36004 0.91999 0.0
H1461 H 0.89541 0.24537 0.83961 0.0
H1462 H 0.86413 0.23595 0.86097 0.0
H1463 H 0.85895 0.28248 0.8477 0.0
H1464 H 0.7831 0.2475 0.91119 0.0
H1465 H 0.77038 0.35568 0.87671 0.0
H1466 H 0.89023 0.25269 0.91761 0.0
H1467 H 0.87739 0.22066 0.8972 0.0
H1468 H 0.84672 0.21987 0.91927 0.0
H1469 H 0.87581 0.38207 0.87553 0.0
H1470 H 0.82673 0.39239 0.86488 0.0
H1471 H 0.86005 0.35574 0.85372 0.0
C1472 C 0.66448 0.7853 0.38347 0.0
C1473 C 0.69812 0.76773 0.39271 0.0
C1474 C 0.66197 0.82734 0.38099 0.0
C1475 C 0.69387 0.85209 0.388 0.0
C1476 C 0.72686 0.83447 0.39831 0.0
C1477 C 0.72855 0.79233 0.40055 0.0
C1478 C 0.62622 0.84503 0.37007 0.0
C1479 C 0.76133 0.85991 0.40611 0.0
C1480 C 0.72055 0.95057 0.36266 0.0
C1481 C 0.70702 0.97913 0.37651 0.0
C1482 C 0.71463 0.90908 0.36577 0.0
C1483 C 0.69471 0.89589 0.38317 0.0
C1484 C 0.67864 0.92462 0.39657 0.0
C1485 C 0.6849 0.966 0.39305 0.0
C1486 C 0.73176 0.87931 0.351 0.0
C1487 C 0.65699 0.91165 0.4152 0.0
H1488 H 0.64078 0.76597 0.37764 0.0
H1489 H 0.75444 0.77844 0.40773 0.0
H1490 H 0.61329 0.87086 0.37843 0.0
H1491 H 0.63633 0.8568 0.3555 0.0
H1492 H 0.602 0.82228 0.36751 0.0
H1493 H 0.78305 0.84191 0.41508 0.0
H1494 H 0.77795 0.87371 0.39353 0.0
H1495 H 0.74949 0.88499 0.41537 0.0
H1496 H 0.73733 0.96051 0.34975 0.0
H1497 H 0.67426 0.98789 0.40381 0.0
H1498 H 0.70835 0.85698 0.3466 0.0
H1499 H 0.75703 0.86226 0.35792 0.0
H1500 H 0.74334 0.89447 0.33746 0.0
H1501 H 0.63391 0.88827 0.41181 0.0
H1502 H 0.64196 0.93747 0.42275 0.0
H1503 H 0.67908 0.89795 0.42561 0.0
C1504 C 0.03057 0.68255 0.89311 0.0
C1505 C 0.01793 0.70686 0.87722 0.0
C1506 C 0.07185 0.67536 0.89661 0.0
C1507 C 0.10103 0.69286 0.8839 0.0
C1508 C 0.08836 0.71539 0.86718 0.0
C1509 C 0.04695 0.72208 0.86402 0.0
C1510 C 0.08425 0.65084 0.91448 0.0
C1511 C 0.11861 0.73423 0.85316 0.0
C1512 C 0.20553 0.72128 0.90245 0.0
C1513 C 0.22939 0.6917 0.89338 0.0
C1514 C 0.16331 0.72097 0.9002 0.0
C1515 C 0.14483 0.69018 0.88869 0.0
C1516 C 0.1688 0.65891 0.88048 0.0
C1517 C 0.21093 0.66004 0.88296 0.0
C1518 C 0.13872 0.75472 0.90928 0.0
C1519 C 0.15022 0.62541 0.86829 0.0
H1520 H 0.00835 0.67056 0.90335 0.0
H1521 H 0.03745 0.74064 0.85163 0.0
H1522 H 0.10697 0.62764 0.91029 0.0
H1523 H 0.09863 0.671 0.92558 0.0
H1524 H 0.05803 0.63553 0.92155 0.0
H1525 H 0.1038 0.74844 0.84013 0.0
H1526 H 0.1363 0.75776 0.86109 0.0
H1527 H 0.14036 0.71109 0.84784 0.0
H1528 H 0.22006 0.74561 0.91056 0.0
H1529 H 0.22967 0.63691 0.87619 0.0
H1530 H 0.11328 0.74213 0.91806 0.0
H1531 H 0.1254 0.77363 0.89736 0.0
H1532 H 0.15725 0.77447 0.91905 0.0
H1533 H 0.12408 0.61188 0.87619 0.0
H1534 H 0.17237 0.60111 0.86484 0.0
H1535 H 0.13867 0.638 0.85414 0.0
C1536 C 0.33466 0.21446 0.38411 0.0
C1537 C 0.30192 0.23259 0.39383 0.0
C1538 C 0.33624 0.17239 0.38151 0.0
C1539 C 0.30431 0.14817 0.38889 0.0
C1540 C 0.27237 0.16631 0.39975 0.0
C1541 C 0.27162 0.20846 0.40212 0.0
C1542 C 0.37094 0.15417 0.37001 0.0
C1543 C 0.23791 0.14144 0.40796 0.0
C1544 C 0.2748 0.05078 0.36314 0.0
C1545 C 0.28896 0.02155 0.3765 0.0
C1546 C 0.28118 0.09211 0.36659 0.0
C1547 C 0.30224 0.10448 0.38383 0.0
C1548 C 0.3187 0.0751 0.39677 0.0
C1549 C 0.31193 0.0339 0.39293 0.0
C1550 C 0.26355 0.12258 0.35231 0.0
C1551 C 0.34156 0.08718 0.41521 0.0
H1552 H 0.35831 0.2334 0.37794 0.0
H1553 H 0.24645 0.22276 0.4097 0.0
H1554 H 0.38379 0.12789 0.37807 0.0
H1555 H 0.35973 0.14295 0.35552 0.0
H1556 H 0.39549 0.17644 0.36725 0.0
H1557 H 0.21725 0.15969 0.41738 0.0
H1558 H 0.22011 0.12834 0.39558 0.0
H1559 H 0.24981 0.11586 0.41687 0.0
H1560 H 0.25732 0.04147 0.35033 0.0
H1561 H 0.32305 0.01152 0.40332 0.0
H1562 H 0.2871 0.1445 0.34762 0.0
H1563 H 0.23922 0.14001 0.35977 0.0
H1564 H 0.25063 0.108 0.33889 0.0
H1565 H 0.36501 0.11009 0.41167 0.0
H1566 H 0.35636 0.06089 0.42247 0.0
H1567 H 0.32034 0.10121 0.42594 0.0
C1568 C 0.50097 0.78323 0.9074 0.0
C1569 C 0.4722 0.7832 0.89211 0.0
C1570 C 0.53866 0.80215 0.90489 0.0
C1571 C 0.54738 0.82209 0.88682 0.0
C1572 C 0.51685 0.82575 0.87221 0.0
C1573 C 0.47971 0.80594 0.87495 0.0
C1574 C 0.57043 0.79737 0.92081 0.0
C1575 C 0.52451 0.8477 0.85297 0.0
C1576 C 0.64685 0.87987 0.88315 0.0
C1577 C 0.67202 0.85082 0.87431 0.0
C1578 C 0.60586 0.87147 0.887 0.0
C1579 C 0.58992 0.83305 0.88197 0.0
C1580 C 0.61496 0.80415 0.87249 0.0
C1581 C 0.65545 0.81367 0.86851 0.0
C1582 C 0.57983 0.90335 0.89669 0.0
C1583 C 0.59916 0.76284 0.86677 0.0
H1584 H 0.49539 0.76577 0.92071 0.0
H1585 H 0.45736 0.80649 0.86318 0.0
H1586 H 0.59373 0.77549 0.91573 0.0
H1587 H 0.58595 0.82654 0.92368 0.0
H1588 H 0.55736 0.78608 0.93492 0.0
H1589 H 0.4959 0.85436 0.84495 0.0
H1590 H 0.54088 0.87651 0.85563 0.0
H1591 H 0.54381 0.82867 0.84328 0.0
H1592 H 0.65941 0.9089 0.88742 0.0
H1593 H 0.67401 0.79192 0.86071 0.0
H1594 H 0.57042 0.89297 0.91161 0.0
H1595 H 0.55183 0.90825 0.88792 0.0
H1596 H 0.59593 0.9327 0.89825 0.0
H1597 H 0.58748 0.74697 0.88008 0.0
H1598 H 0.62281 0.74362 0.85982 0.0
H1599 H 0.5736 0.76597 0.85623 0.0
C1600 C 0.2108 0.50429 0.40899 0.0
C1601 C 0.21087 0.47554 0.39371 0.0
C1602 C 0.1919 0.54197 0.40641 0.0
C1603 C 0.17221 0.55068 0.38826 0.0
C1604 C 0.16839 0.52008 0.37372 0.0
C1605 C 0.18803 0.48293 0.37656 0.0
C1606 C 0.19662 0.57378 0.42229 0.0
C1607 C 0.14685 0.52777 0.35436 0.0
C1608 C 0.11637 0.65089 0.3829 0.0
C1609 C 0.14633 0.67491 0.37411 0.0
C1610 C 0.12397 0.61007 0.38747 0.0
C1611 C 0.16237 0.59325 0.38308 0.0
C1612 C 0.19219 0.61727 0.37364 0.0
C1613 C 0.18354 0.65762 0.36903 0.0
C1614 C 0.09124 0.58514 0.39716 0.0
C1615 C 0.23347 0.60049 0.36855 0.0
H1616 H 0.22827 0.49874 0.42231 0.0
H1617 H 0.18741 0.46057 0.36483 0.0
H1618 H 0.21938 0.59642 0.41744 0.0
H1619 H 0.1677 0.59007 0.42475 0.0
H1620 H 0.20686 0.56057 0.43657 0.0
H1621 H 0.1398 0.49914 0.34644 0.0
H1622 H 0.11828 0.54469 0.3568 0.0
H1623 H 0.16641 0.5465 0.34465 0.0
H1624 H 0.08731 0.66425 0.38651 0.0
H1625 H 0.20601 0.6758 0.36143 0.0
H1626 H 0.10119 0.57569 0.41216 0.0
H1627 H 0.08569 0.55716 0.38849 0.0
H1628 H 0.06231 0.60206 0.39855 0.0
H1629 H 0.24857 0.58914 0.38214 0.0
H1630 H 0.25341 0.62346 0.36154 0.0
H1631 H 0.23031 0.57453 0.35824 0.0
C1632 C 0.52107 0.18537 0.87914 0.0
C1633 C 0.52911 0.20868 0.89606 0.0
C1634 C 0.48361 0.1661 0.87662 0.0
C1635 C 0.45336 0.17069 0.89128 0.0
C1636 C 0.4627 0.19087 0.90922 0.0
C1637 C 0.50066 0.20944 0.91147 0.0
C1638 C 0.47524 0.14408 0.85745 0.0
C1639 C 0.4313 0.19639 0.92523 0.0
C1640 C 0.346 0.1816 0.87233 0.0
C1641 C 0.32881 0.14446 0.87761 0.0
C1642 C 0.3864 0.19041 0.87685 0.0
C1643 C 0.41057 0.16087 0.88643 0.0
C1644 C 0.39379 0.12263 0.89112 0.0
C1645 C 0.35295 0.11483 0.8866 0.0
C1646 C 0.40313 0.23151 0.87144 0.0
C1647 C 0.41884 0.09021 0.901 0.0
H1648 H 0.54317 0.18411 0.8673 0.0
H1649 H 0.50668 0.22729 0.92462 0.0
H1650 H 0.45829 0.11566 0.86021 0.0
H1651 H 0.45623 0.16344 0.84776 0.0
H1652 H 0.5036 0.13673 0.84937 0.0
H1653 H 0.44496 0.20691 0.93937 0.0
H1654 H 0.40876 0.21921 0.92033 0.0
H1655 H 0.41478 0.16772 0.92799 0.0
H1656 H 0.32776 0.20382 0.86458 0.0
H1657 H 0.33968 0.08583 0.89038 0.0
H1658 H 0.42888 0.22805 0.86103 0.0
H1659 H 0.4148 0.24692 0.88488 0.0
H1660 H 0.38002 0.2513 0.86442 0.0
H1661 H 0.44631 0.08382 0.89207 0.0
H1662 H 0.40168 0.06159 0.90299 0.0
H1663 H 0.42922 0.10091 0.91572 0.0
C1664 C 0.81543 0.3424 0.37085 0.0
C1665 C 0.85282 0.32505 0.37561 0.0
C1666 C 0.80724 0.38296 0.37519 0.0
C1667 C 0.83762 0.40714 0.38409 0.0
C1668 C 0.87609 0.39026 0.38825 0.0
C1669 C 0.88327 0.34924 0.38394 0.0
C1670 C 0.76587 0.39984 0.37031 0.0
C1671 C 0.90936 0.41533 0.39743 0.0
C1672 C 0.81187 0.51703 0.37645 0.0
C1673 C 0.78945 0.52521 0.39364 0.0
C1674 C 0.83159 0.47983 0.37395 0.0
C1675 C 0.82828 0.45 0.38889 0.0
C1676 C 0.80914 0.4596 0.40706 0.0
C1677 C 0.79013 0.49731 0.40928 0.0
C1678 C 0.85252 0.47116 0.35454 0.0
C1679 C 0.80499 0.42862 0.42336 0.0
H1680 H 0.79255 0.3244 0.36351 0.0
H1681 H 0.91241 0.3359 0.38741 0.0
H1682 H 0.75144 0.41198 0.38391 0.0
H1683 H 0.76879 0.42524 0.35967 0.0
H1684 H 0.74544 0.3767 0.36377 0.0
H1685 H 0.93826 0.39831 0.39865 0.0
H1686 H 0.91466 0.44301 0.38851 0.0
H1687 H 0.90012 0.42531 0.41245 0.0
H1688 H 0.81206 0.53876 0.36444 0.0
H1689 H 0.77303 0.50348 0.42264 0.0
H1690 H 0.8326 0.45204 0.34517 0.0
H1691 H 0.88111 0.45426 0.35697 0.0
H1692 H 0.8594 0.49939 0.34627 0.0
H1693 H 0.78188 0.40589 0.41901 0.0
H1694 H 0.79547 0.44262 0.43757 0.0
H1695 H 0.83392 0.41229 0.42571 0.0
C1696 C 0.98134 0.69169 0.13911 0.0
C1697 C 0.97312 0.71003 0.1208 0.0
C1698 C 0.01838 0.67212 0.14257 0.0
C1699 C 0.04805 0.67151 0.12746 0.0
C1700 C 0.03846 0.68668 0.10842 0.0
C1701 C 0.00091 0.70548 0.10526 0.0
C1702 C 0.02697 0.65528 0.16293 0.0
C1703 C 0.06928 0.68673 0.09191 0.0
C1704 C 0.15725 0.68468 0.14327 0.0
C1705 C 0.17351 0.64636 0.13949 0.0
C1706 C 0.1164 0.69299 0.13955 0.0
C1707 C 0.09082 0.66178 0.13244 0.0
C1708 C 0.10657 0.62232 0.12965 0.0
C1709 C 0.14792 0.61506 0.1332 0.0
C1710 C 0.10087 0.73548 0.14283 0.0
C1711 C 0.08001 0.58811 0.12255 0.0
H1712 H 0.95973 0.69453 0.15112 0.0
H1713 H 0.99477 0.71941 0.09104 0.0
H1714 H 0.0432 0.62596 0.1619 0.0
H1715 H 0.04671 0.67662 0.17116 0.0
H1716 H 0.99873 0.65085 0.1716 0.0
H1717 H 0.05543 0.69427 0.07737 0.0
H1718 H 0.09305 0.7095 0.0952 0.0
H1719 H 0.08435 0.65684 0.09073 0.0
H1720 H 0.17667 0.70839 0.14902 0.0
H1721 H 0.16043 0.58519 0.13064 0.0
H1722 H 0.07578 0.73518 0.15374 0.0
H1723 H 0.08862 0.74783 0.12877 0.0
H1724 H 0.12484 0.75626 0.14831 0.0
H1725 H 0.05228 0.58609 0.13176 0.0
H1726 H 0.09592 0.5585 0.12298 0.0
H1727 H 0.07018 0.59401 0.10711 0.0
C1728 C 0.38437 0.14446 0.62991 0.0
C1729 C 0.35337 0.16981 0.63675 0.0
C1730 C 0.3769 0.10331 0.62604 0.0
C1731 C 0.33754 0.08751 0.6291 0.0
C1732 C 0.3066 0.11286 0.63666 0.0
C1733 C 0.31512 0.15352 0.64067 0.0
C1734 C 0.41081 0.07695 0.61843 0.0
C1735 C 0.26423 0.09724 0.64026 0.0
C1736 C 0.2928 0.99748 0.60247 0.0
C1737 C 0.2892 0.96977 0.6181 0.0
C1738 C 0.31163 0.03509 0.60537 0.0
C1739 C 0.32776 0.04476 0.62423 0.0
C1740 C 0.32805 0.01517 0.63937 0.0
C1741 C 0.30844 0.97811 0.63618 0.0
C1742 C 0.3106 0.06585 0.58885 0.0
C1743 C 0.34585 0.02388 0.65952 0.0
H1744 H 0.41419 0.15701 0.62723 0.0
H1745 H 0.29167 0.17273 0.64682 0.0
H1746 H 0.4138 0.04947 0.62775 0.0
H1747 H 0.40378 0.0667 0.60317 0.0
H1748 H 0.4403 0.09311 0.61824 0.0
H1749 H 0.24358 0.12113 0.64592 0.0
H1750 H 0.25141 0.08502 0.62628 0.0
H1751 H 0.26497 0.07213 0.65114 0.0
H1752 H 0.27812 0.99123 0.58844 0.0
H1753 H 0.3063 0.95656 0.64823 0.0
H1754 H 0.34029 0.08123 0.58739 0.0
H1755 H 0.28771 0.08938 0.59235 0.0
H1756 H 0.3026 0.0519 0.5744 0.0
H1757 H 0.3751 0.04015 0.65816 0.0
H1758 H 0.35075 0.99572 0.66818 0.0
H1759 H 0.32486 0.04363 0.66796 0.0
C1760 C 0.85125 0.38549 0.13188 0.0
C1761 C 0.82638 0.35624 0.14066 0.0
C1762 C 0.89217 0.3771 0.12782 0.0
C1763 C 0.90819 0.33859 0.13268 0.0
C1764 C 0.88342 0.3097 0.14233 0.0
C1765 C 0.84297 0.31914 0.14644 0.0
C1766 C 0.9179 0.40893 0.11793 0.0
C1767 C 0.89928 0.26832 0.14788 0.0
C1768 C 0.99465 0.28864 0.10536 0.0
C1769 C 0.02464 0.28809 0.12006 0.0
C1770 C 0.95727 0.30759 0.10874 0.0
C1771 C 0.9502 0.32722 0.12706 0.0
C1772 C 0.98188 0.33024 0.14112 0.0
C1773 C 0.01861 0.31016 0.13756 0.0
C1774 C 0.92416 0.30324 0.09345 0.0
C1775 C 0.97599 0.35199 0.16056 0.0
H1776 H 0.83844 0.41449 0.12774 0.0
H1777 H 0.82407 0.29723 0.15401 0.0
H1778 H 0.9467 0.41307 0.12616 0.0
H1779 H 0.92585 0.39897 0.10273 0.0
H1780 H 0.90213 0.43856 0.11695 0.0
H1781 H 0.87603 0.24945 0.15535 0.0
H1782 H 0.90968 0.25218 0.13439 0.0
H1783 H 0.92573 0.27131 0.1579 0.0
H1784 H -0.00092 0.27156 0.09182 0.0
H1785 H 0.04192 0.31021 0.14887 0.0
H1786 H 0.90906 0.33271 0.09077 0.0
H1787 H 0.90081 0.28197 0.09905 0.0
H1788 H 0.93581 0.29147 0.07913 0.0
H1789 H 0.95969 0.38099 0.15831 0.0
H1790 H 0.00529 0.35828 0.16804 0.0
H1791 H 0.95731 0.33301 0.17056 0.0
C1792 C 0.71163 -0.00086 0.60558 0.0
C1793 C 0.71466 0.0278 0.62083 0.0
C1794 C 0.69229 0.96189 0.60875 0.0
C1795 C 0.6749 0.95353 0.62747 0.0
C1796 C 0.67439 0.98395 0.64224 0.0
C1797 C 0.69466 0.02061 0.63881 0.0
C1798 C 0.6938 0.93018 0.59266 0.0
C1799 C 0.65515 0.97671 0.6622 0.0
C1800 C 0.61437 0.85601 0.6325 0.0
C1801 C 0.64372 0.82963 0.64019 0.0
C1802 C 0.62358 0.89683 0.6287 0.0
C1803 C 0.66313 0.91135 0.63256 0.0
C1804 C 0.6924 0.88511 0.64093 0.0
C1805 C 0.68209 0.84484 0.64494 0.0
C1806 C 0.5913 0.92418 0.62026 0.0
C1807 C 0.73494 0.89934 0.64535 0.0
H1808 H 0.72701 0.00446 0.59164 0.0
H1809 H 0.69645 0.04288 0.65058 0.0
H1810 H 0.71536 0.90599 0.59702 0.0
H1811 H 0.66371 0.91586 0.59066 0.0
H1812 H 0.70374 0.94295 0.57824 0.0
H1813 H 0.65072 0.00537 0.67053 0.0
H1814 H 0.62544 0.96142 0.66053 0.0
H1815 H 0.67489 0.95657 0.67112 0.0
H1816 H 0.58442 0.84453 0.62908 0.0
H1817 H 0.70423 0.82536 0.6519 0.0
H1818 H 0.59976 0.93344 0.60503 0.0
H1819 H 0.58878 0.95218 0.62925 0.0
H1820 H 0.5612 0.90921 0.61971 0.0
H1821 H 0.74936 0.91076 0.6316 0.0
H1822 H 0.75424 0.8749 0.65157 0.0
H1823 H 0.73415 0.92475 0.65608 0.0
loop_
_geom_bond_atom_site_label_1
_geom_bond_atom_site_label_2
_geom_bond_distance
_geom_bond_site_symmetry_2
_ccdc_geom_bond_type
Co0 O3 1.970 . S
Co0 N17 1.989 . S
Co0 O25 1.967 . S
Co0 O32 1.920 . S
Co1 O4 1.966 . S
Co1 N10 2.022 . S
Co1 N18 1.993 . S
Co1 O26 1.941 . S
C2 O3 1.258 . S
C2 O4 1.263 . S
O3 Co0 1.970 . S
O3 C2 1.258 . S
O4 Co1 1.966 . S
O4 C2 1.263 . S
C5 O6 1.235 . S
C5 O32 1.289 . S
O6 C5 1.235 . S
C7 C9 1.400 . S
C7 N10 1.351 . S
C7 C12 1.501 . S
C8 C9 1.387 . S
C8 N11 1.341 . S
C9 C7 1.400 . S
C9 C8 1.387 . S
N10 Co1 2.022 . S
N10 C7 1.351 . S
N10 N11 1.365 . S
N11 C8 1.341 . S
N11 N10 1.365 . S
N11 H31 0.862 . S
C12 C7 1.501 . S
C12 H13 0.961 . S
C12 H14 0.961 . S
C12 H15 0.960 . S
H13 C12 0.961 . S
H14 C12 0.961 . S
H15 C12 0.960 . S
C16 N17 1.342 . S
C16 C20 1.401 . S
C16 C21 1.499 . S
N17 Co0 1.989 . S
N17 C16 1.342 . S
N17 N18 1.388 . S
N18 Co1 1.993 . S
N18 N17 1.388 . S
N18 C19 1.346 . S
C19 N18 1.346 . S
C19 C20 1.396 . S
C19 C29 1.510 . S
C20 C16 1.401 . S
C20 C19 1.396 . S
C21 C16 1.499 . S
C21 H22 0.959 . S
C21 H23 0.960 . S
C21 H24 0.961 . S
H22 C21 0.959 . S
H23 C21 0.960 . S
H24 C21 0.961 . S
O25 Co0 1.967 . S
O25 C33 1.258 . S
O26 Co1 1.941 . S
O26 C33 1.266 . S
H27 C29 0.959 . S
H28 C29 0.961 . S
C29 C19 1.510 . S
C29 H27 0.959 . S
C29 H28 0.961 . S
C29 H30 0.960 . S
H30 C29 0.960 . S
H31 N11 0.862 . S
O32 Co0 1.920 . S
O32 C5 1.289 . S
C33 O25 1.258 . S
C33 O26 1.266 . S
Co34 O37 1.970 . S
Co34 N51 1.989 . S
Co34 O59 1.967 . S
Co34 O66 1.920 . S
Co35 O38 1.966 . S
Co35 N44 2.022 . S
Co35 N52 1.993 . S
Co35 O60 1.941 . S
C36 O37 1.258 . S
C36 O38 1.263 . S
O37 Co34 1.970 . S
O37 C36 1.258 . S
O38 Co35 1.966 . S
O38 C36 1.263 . S
C39 O40 1.235 . S
C39 O66 1.289 . S
O40 C39 1.235 . S
C41 C43 1.400 . S
C41 N44 1.351 . S
C41 C46 1.501 . S
C42 C43 1.387 . S
C42 N45 1.341 . S
C43 C41 1.400 . S
C43 C42 1.387 . S
N44 Co35 2.022 . S
N44 C41 1.351 . S
N44 N45 1.365 . S
N45 C42 1.341 . S
N45 N44 1.365 . S
N45 H65 0.862 . S
C46 C41 1.501 . S
C46 H47 0.961 . S
C46 H48 0.961 . S
C46 H49 0.960 . S
H47 C46 0.961 . S
H48 C46 0.961 . S
H49 C46 0.960 . S
C50 N51 1.342 . S
C50 C54 1.401 . S
C50 C55 1.499 . S
N51 Co34 1.989 . S
N51 C50 1.342 . S
N51 N52 1.388 . S
N52 Co35 1.993 . S
N52 N51 1.388 . S
N52 C53 1.346 . S
C53 N52 1.346 . S
C53 C54 1.396 . S
C53 C63 1.510 . S
C54 C50 1.401 . S
C54 C53 1.396 . S
C55 C50 1.499 . S
C55 H56 0.959 . S
C55 H57 0.960 . S
C55 H58 0.961 . S
H56 C55 0.959 . S
H57 C55 0.960 . S
H58 C55 0.961 . S
O59 Co34 1.967 . S
O59 C67 1.258 . S
O60 Co35 1.941 . S
O60 C67 1.266 . S
H61 C63 0.959 . S
H62 C63 0.961 . S
C63 C53 1.510 . S
C63 H61 0.959 . S
C63 H62 0.961 . S
C63 H64 0.960 . S
H64 C63 0.960 . S
H65 N45 0.862 . S
O66 Co34 1.920 . S
O66 C39 1.289 . S
C67 O59 1.258 . S
C67 O60 1.266 . S
Co68 O71 1.970 . S
Co68 N85 1.989 . S
Co68 O93 1.967 . S
Co68 O100 1.920 . S
Co69 O72 1.966 . S
Co69 N78 2.022 . S
Co69 N86 1.993 . S
Co69 O94 1.941 . S
C70 O71 1.258 . S
C70 O72 1.263 . S
O71 Co68 1.970 . S
O71 C70 1.258 . S
O72 Co69 1.966 . S
O72 C70 1.263 . S
C73 O74 1.235 . S
C73 O100 1.289 . S
O74 C73 1.235 . S
C75 C77 1.400 . S
C75 N78 1.351 . S
C75 C80 1.501 . S
C76 C77 1.387 . S
C76 N79 1.341 . S
C77 C75 1.400 . S
C77 C76 1.387 . S
N78 Co69 2.022 . S
N78 C75 1.351 . S
N78 N79 1.365 . S
N79 C76 1.341 . S
N79 N78 1.365 . S
N79 H99 0.862 . S
C80 C75 1.501 . S
C80 H81 0.961 . S
C80 H82 0.961 . S
C80 H83 0.960 . S
H81 C80 0.961 . S
H82 C80 0.961 . S
H83 C80 0.960 . S
C84 N85 1.342 . S
C84 C88 1.401 . S
C84 C89 1.499 . S
N85 Co68 1.989 . S
N85 C84 1.342 . S
N85 N86 1.388 . S
N86 Co69 1.993 . S
N86 N85 1.388 . S
N86 C87 1.346 . S
C87 N86 1.346 . S
C87 C88 1.396 . S
C87 C97 1.510 . S
C88 C84 1.401 . S
C88 C87 1.396 . S
C89 C84 1.499 . S
C89 H90 0.959 . S
C89 H91 0.960 . S
C89 H92 0.961 . S
H90 C89 0.959 . S
H91 C89 0.960 . S
H92 C89 0.961 . S
O93 Co68 1.967 . S
O93 C101 1.258 . S
O94 Co69 1.941 . S
O94 C101 1.266 . S
H95 C97 0.959 . S
H96 C97 0.961 . S
C97 C87 1.510 . S
C97 H95 0.959 . S
C97 H96 0.961 . S
C97 H98 0.960 . S
H98 C97 0.960 . S
H99 N79 0.862 . S
O100 Co68 1.920 . S
O100 C73 1.289 . S
C101 O93 1.258 . S
C101 O94 1.266 . S
Co102 O105 1.970 . S
Co102 N119 1.989 . S
Co102 O127 1.967 . S
Co102 O134 1.920 . S
Co103 O106 1.966 . S
Co103 N112 2.022 . S
Co103 N120 1.993 . S
Co103 O128 1.941 . S
C104 O105 1.258 . S
C104 O106 1.263 . S
O105 Co102 1.970 . S
O105 C104 1.258 . S
O106 Co103 1.966 . S
O106 C104 1.263 . S
C107 O108 1.235 . S
C107 O134 1.289 . S
O108 C107 1.235 . S
C109 C111 1.400 . S
C109 N112 1.351 . S
C109 C114 1.501 . S
C110 C111 1.387 . S
C110 N113 1.341 . S
C111 C109 1.400 . S
C111 C110 1.387 . S
N112 Co103 2.022 . S
N112 C109 1.351 . S
N112 N113 1.365 . S
N113 C110 1.341 . S
N113 N112 1.365 . S
N113 H133 0.862 . S
C114 C109 1.501 . S
C114 H115 0.961 . S
C114 H116 0.961 . S
C114 H117 0.960 . S
H115 C114 0.961 . S
H116 C114 0.961 . S
H117 C114 0.960 . S
C118 N119 1.342 . S
C118 C122 1.401 . S
C118 C123 1.499 . S
N119 Co102 1.989 . S
N119 C118 1.342 . S
N119 N120 1.388 . S
N120 Co103 1.993 . S
N120 N119 1.388 . S
N120 C121 1.346 . S
C121 N120 1.346 . S
C121 C122 1.396 . S
C121 C131 1.510 . S
C122 C118 1.401 . S
C122 C121 1.396 . S
C123 C118 1.499 . S
C123 H124 0.959 . S
C123 H125 0.960 . S
C123 H126 0.961 . S
H124 C123 0.959 . S
H125 C123 0.960 . S
H126 C123 0.961 . S
O127 Co102 1.967 . S
O127 C135 1.258 . S
O128 Co103 1.941 . S
O128 C135 1.266 . S
H129 C131 0.959 . S
H130 C131 0.961 . S
C131 C121 1.510 . S
C131 H129 0.959 . S
C131 H130 0.961 . S
C131 H132 0.960 . S
H132 C131 0.960 . S
H133 N113 0.862 . S
O134 Co102 1.920 . S
O134 C107 1.289 . S
C135 O127 1.258 . S
C135 O128 1.266 . S
Co136 O139 1.970 . S
Co136 N153 1.989 . S
Co136 O161 1.967 . S
Co136 O168 1.920 . S
Co137 O140 1.966 . S
Co137 N146 2.022 . S
Co137 N154 1.993 . S
Co137 O162 1.941 . S
C138 O139 1.258 . S
C138 O140 1.263 . S
O139 Co136 1.970 . S
O139 C138 1.258 . S
O140 Co137 1.966 . S
O140 C138 1.263 . S
C141 O142 1.235 . S
C141 O168 1.289 . S
O142 C141 1.235 . S
C143 C145 1.400 . S
C143 N146 1.351 . S
C143 C148 1.501 . S
C144 C145 1.387 . S
C144 N147 1.341 . S
C145 C143 1.400 . S
C145 C144 1.387 . S
N146 Co137 2.022 . S
N146 C143 1.351 . S
N146 N147 1.365 . S
N147 C144 1.341 . S
N147 N146 1.365 . S
N147 H167 0.862 . S
C148 C143 1.501 . S
C148 H149 0.961 . S
C148 H150 0.961 . S
C148 H151 0.960 . S
H149 C148 0.961 . S
H150 C148 0.961 . S
H151 C148 0.960 . S
C152 N153 1.342 . S
C152 C156 1.401 . S
C152 C157 1.499 . S
N153 Co136 1.989 . S
N153 C152 1.342 . S
N153 N154 1.388 . S
N154 Co137 1.993 . S
N154 N153 1.388 . S
N154 C155 1.346 . S
C155 N154 1.346 . S
C155 C156 1.396 . S
C155 C165 1.510 . S
C156 C152 1.401 . S
C156 C155 1.396 . S
C157 C152 1.499 . S
C157 H158 0.959 . S
C157 H159 0.960 . S
C157 H160 0.961 . S
H158 C157 0.959 . S
H159 C157 0.960 . S
H160 C157 0.961 . S
O161 Co136 1.967 . S
O161 C169 1.258 . S
O162 Co137 1.941 . S
O162 C169 1.266 . S
H163 C165 0.959 . S
H164 C165 0.961 . S
C165 C155 1.510 . S
C165 H163 0.959 . S
C165 H164 0.961 . S
C165 H166 0.960 . S
H166 C165 0.960 . S
H167 N147 0.862 . S
O168 Co136 1.920 . S
O168 C141 1.289 . S
C169 O161 1.258 . S
C169 O162 1.266 . S
Co170 O173 1.970 . S
Co170 N187 1.989 . S
Co170 O195 1.967 . S
Co170 O202 1.920 . S
Co171 O174 1.966 . S
Co171 N180 2.022 . S
Co171 N188 1.993 . S
Co171 O196 1.941 . S
C172 O173 1.258 . S
C172 O174 1.263 . S
O173 Co170 1.970 . S
O173 C172 1.258 . S
O174 Co171 1.966 . S
O174 C172 1.263 . S
C175 O176 1.235 . S
C175 O202 1.289 . S
O176 C175 1.235 . S
C177 C179 1.400 . S
C177 N180 1.351 . S
C177 C182 1.501 . S
C178 C179 1.387 . S
C178 N181 1.341 . S
C179 C177 1.400 . S
C179 C178 1.387 . S
N180 Co171 2.022 . S
N180 C177 1.351 . S
N180 N181 1.365 . S
N181 C178 1.341 . S
N181 N180 1.365 . S
N181 H201 0.862 . S
C182 C177 1.501 . S
C182 H183 0.961 . S
C182 H184 0.961 . S
C182 H185 0.960 . S
H183 C182 0.961 . S
H184 C182 0.961 . S
H185 C182 0.960 . S
C186 N187 1.342 . S
C186 C190 1.401 . S
C186 C191 1.499 . S
N187 Co170 1.989 . S
N187 C186 1.342 . S
N187 N188 1.388 . S
N188 Co171 1.993 . S
N188 N187 1.388 . S
N188 C189 1.346 . S
C189 N188 1.346 . S
C189 C190 1.396 . S
C189 C199 1.510 . S
C190 C186 1.401 . S
C190 C189 1.396 . S
C191 C186 1.499 . S
C191 H192 0.959 . S
C191 H193 0.960 . S
C191 H194 0.961 . S
H192 C191 0.959 . S
H193 C191 0.960 . S
H194 C191 0.961 . S
O195 Co170 1.967 . S
O195 C203 1.258 . S
O196 Co171 1.941 . S
O196 C203 1.266 . S
H197 C199 0.959 . S
H198 C199 0.961 . S
C199 C189 1.510 . S
C199 H197 0.959 . S
C199 H198 0.961 . S
C199 H200 0.960 . S
H200 C199 0.960 . S
H201 N181 0.862 . S
O202 Co170 1.920 . S
O202 C175 1.289 . S
C203 O195 1.258 . S
C203 O196 1.266 . S
Co204 O207 1.970 . S
Co204 N221 1.989 . S
Co204 O229 1.967 . S
Co204 O236 1.920 . S
Co205 O208 1.966 . S
Co205 N214 2.022 . S
Co205 N222 1.993 . S
Co205 O230 1.941 . S
C206 O207 1.258 . S
C206 O208 1.263 . S
O207 Co204 1.970 . S
O207 C206 1.258 . S
O208 Co205 1.966 . S
O208 C206 1.263 . S
C209 O210 1.235 . S
C209 O236 1.289 . S
O210 C209 1.235 . S
C211 C213 1.400 . S
C211 N214 1.351 . S
C211 C216 1.501 . S
C212 C213 1.387 . S
C212 N215 1.341 . S
C213 C211 1.400 . S
C213 C212 1.387 . S
N214 Co205 2.022 . S
N214 C211 1.351 . S
N214 N215 1.365 . S
N215 C212 1.341 . S
N215 N214 1.365 . S
N215 H235 0.862 . S
C216 C211 1.501 . S
C216 H217 0.961 . S
C216 H218 0.961 . S
C216 H219 0.960 . S
H217 C216 0.961 . S
H218 C216 0.961 . S
H219 C216 0.960 . S
C220 N221 1.342 . S
C220 C224 1.401 . S
C220 C225 1.499 . S
N221 Co204 1.989 . S
N221 C220 1.342 . S
N221 N222 1.388 . S
N222 Co205 1.993 . S
N222 N221 1.388 . S
N222 C223 1.346 . S
C223 N222 1.346 . S
C223 C224 1.396 . S
C223 C233 1.510 . S
C224 C220 1.401 . S
C224 C223 1.396 . S
C225 C220 1.499 . S
C225 H226 0.959 . S
C225 H227 0.960 . S
C225 H228 0.961 . S
H226 C225 0.959 . S
H227 C225 0.960 . S
H228 C225 0.961 . S
O229 Co204 1.967 . S
O229 C237 1.258 . S
O230 Co205 1.941 . S
O230 C237 1.266 . S
H231 C233 0.959 . S
H232 C233 0.961 . S
C233 C223 1.510 . S
C233 H231 0.959 . S
C233 H232 0.961 . S
C233 H234 0.960 . S
H234 C233 0.960 . S
H235 N215 0.862 . S
O236 Co204 1.920 . S
O236 C209 1.289 . S
C237 O229 1.258 . S
C237 O230 1.266 . S
Co238 O241 1.970 . S
Co238 N255 1.989 . S
Co238 O263 1.967 . S
Co238 O270 1.920 . S
Co239 O242 1.966 . S
Co239 N248 2.022 . S
Co239 N256 1.993 . S
Co239 O264 1.941 . S
C240 O241 1.258 . S
C240 O242 1.263 . S
O241 Co238 1.970 . S
O241 C240 1.258 . S
O242 Co239 1.966 . S
O242 C240 1.263 . S
C243 O244 1.235 . S
C243 O270 1.289 . S
O244 C243 1.235 . S
C245 C247 1.400 . S
C245 N248 1.351 . S
C245 C250 1.501 . S
C246 C247 1.387 . S
C246 N249 1.341 . S
C247 C245 1.400 . S
C247 C246 1.387 . S
N248 Co239 2.022 . S
N248 C245 1.351 . S
N248 N249 1.365 . S
N249 C246 1.341 . S
N249 N248 1.365 . S
N249 H269 0.862 . S
C250 C245 1.501 . S
C250 H251 0.961 . S
C250 H252 0.961 . S
C250 H253 0.960 . S
H251 C250 0.961 . S
H252 C250 0.961 . S
H253 C250 0.960 . S
C254 N255 1.342 . S
C254 C258 1.401 . S
C254 C259 1.499 . S
N255 Co238 1.989 . S
N255 C254 1.342 . S
N255 N256 1.388 . S
N256 Co239 1.993 . S
N256 N255 1.388 . S
N256 C257 1.346 . S
C257 N256 1.346 . S
C257 C258 1.396 . S
C257 C267 1.510 . S
C258 C254 1.401 . S
C258 C257 1.396 . S
C259 C254 1.499 . S
C259 H260 0.959 . S
C259 H261 0.960 . S
C259 H262 0.961 . S
H260 C259 0.959 . S
H261 C259 0.960 . S
H262 C259 0.961 . S
O263 Co238 1.967 . S
O263 C271 1.258 . S
O264 Co239 1.941 . S
O264 C271 1.266 . S
H265 C267 0.959 . S
H266 C267 0.961 . S
C267 C257 1.510 . S
C267 H265 0.959 . S
C267 H266 0.961 . S
C267 H268 0.960 . S
H268 C267 0.960 . S
H269 N249 0.862 . S
O270 Co238 1.920 . S
O270 C243 1.289 . S
C271 O263 1.258 . S
C271 O264 1.266 . S
Co272 O275 1.970 . S
Co272 N289 1.989 . S
Co272 O297 1.967 . S
Co272 O304 1.920 1_655 S
Co273 O276 1.966 . S
Co273 N282 2.022 . S
Co273 N290 1.993 . S
Co273 O298 1.941 . S
C274 O275 1.258 . S
C274 O276 1.263 . S
O275 Co272 1.970 . S
O275 C274 1.258 . S
O276 Co273 1.966 . S
O276 C274 1.263 . S
C277 O278 1.235 . S
C277 O304 1.289 . S
O278 C277 1.235 . S
C279 C281 1.400 . S
C279 N282 1.351 . S
C279 C284 1.501 . S
C280 C281 1.387 . S
C280 N283 1.341 . S
C281 C279 1.400 . S
C281 C280 1.387 . S
N282 Co273 2.022 . S
N282 C279 1.351 . S
N282 N283 1.365 . S
N283 C280 1.341 . S
N283 N282 1.365 . S
N283 H303 0.862 . S
C284 C279 1.501 . S
C284 H285 0.961 . S
C284 H286 0.961 . S
C284 H287 0.960 . S
H285 C284 0.961 . S
H286 C284 0.961 . S
H287 C284 0.960 . S
C288 N289 1.342 . S
C288 C292 1.401 . S
C288 C293 1.499 . S
N289 Co272 1.989 . S
N289 C288 1.342 . S
N289 N290 1.388 . S
N290 Co273 1.993 . S
N290 N289 1.388 . S
N290 C291 1.346 . S
C291 N290 1.346 . S
C291 C292 1.396 . S
C291 C301 1.510 . S
C292 C288 1.401 . S
C292 C291 1.396 . S
C293 C288 1.499 . S
C293 H294 0.959 1_655 S
C293 H295 0.960 . S
C293 H296 0.961 . S
H294 C293 0.959 1_455 S
H295 C293 0.960 . S
H296 C293 0.961 . S
O297 Co272 1.967 . S
O297 C305 1.258 . S
O298 Co273 1.941 . S
O298 C305 1.266 . S
H299 C301 0.959 . S
H300 C301 0.961 . S
C301 C291 1.510 . S
C301 H299 0.959 . S
C301 H300 0.961 . S
C301 H302 0.960 . S
H302 C301 0.960 . S
H303 N283 0.862 . S
O304 Co272 1.920 1_455 S
O304 C277 1.289 . S
C305 O297 1.258 . S
C305 O298 1.266 . S
Co306 O309 1.970 . S
Co306 N323 1.989 . S
Co306 O331 1.967 . S
Co306 O338 1.920 1_565 S
Co307 O310 1.966 . S
Co307 N316 2.022 . S
Co307 N324 1.993 . S
Co307 O332 1.941 . S
C308 O309 1.258 . S
C308 O310 1.263 . S
O309 Co306 1.970 . S
O309 C308 1.258 . S
O310 Co307 1.966 . S
O310 C308 1.263 . S
C311 O312 1.235 . S
C311 O338 1.289 . S
O312 C311 1.235 . S
C313 C315 1.400 . S
C313 N316 1.351 . S
C313 C318 1.501 . S
C314 C315 1.387 . S
C314 N317 1.341 . S
C315 C313 1.400 . S
C315 C314 1.387 . S
N316 Co307 2.022 . S
N316 C313 1.351 . S
N316 N317 1.365 . S
N317 C314 1.341 . S
N317 N316 1.365 . S
N317 H337 0.862 . S
C318 C313 1.501 . S
C318 H319 0.961 . S
C318 H320 0.961 . S
C318 H321 0.960 . S
H319 C318 0.961 . S
H320 C318 0.961 . S
H321 C318 0.960 . S
C322 N323 1.342 . S
C322 C326 1.401 . S
C322 C327 1.499 . S
N323 Co306 1.989 . S
N323 C322 1.342 . S
N323 N324 1.388 . S
N324 Co307 1.993 . S
N324 N323 1.388 . S
N324 C325 1.346 . S
C325 N324 1.346 . S
C325 C326 1.396 . S
C325 C335 1.510 . S
C326 C322 1.401 . S
C326 C325 1.396 . S
C327 C322 1.499 . S
C327 H328 0.959 1_565 S
C327 H329 0.960 . S
C327 H330 0.961 . S
H328 C327 0.959 1_545 S
H329 C327 0.960 . S
H330 C327 0.961 . S
O331 Co306 1.967 . S
O331 C339 1.258 . S
O332 Co307 1.941 . S
O332 C339 1.266 . S
H333 C335 0.959 . S
H334 C335 0.961 . S
C335 C325 1.510 . S
C335 H333 0.959 . S
C335 H334 0.961 . S
C335 H336 0.960 . S
H336 C335 0.960 . S
H337 N317 0.862 . S
O338 Co306 1.920 1_545 S
O338 C311 1.289 . S
C339 O331 1.258 . S
C339 O332 1.266 . S
Co340 O343 1.970 . S
Co340 N357 1.989 . S
Co340 O365 1.967 . S
Co340 O372 1.920 1_455 S
Co341 O344 1.966 . S
Co341 N350 2.022 . S
Co341 N358 1.993 . S
Co341 O366 1.941 . S
C342 O343 1.258 . S
C342 O344 1.263 . S
O343 Co340 1.970 . S
O343 C342 1.258 . S
O344 Co341 1.966 . S
O344 C342 1.263 . S
C345 O346 1.235 . S
C345 O372 1.289 . S
O346 C345 1.235 . S
C347 C349 1.400 . S
C347 N350 1.351 . S
C347 C352 1.501 . S
C348 C349 1.387 . S
C348 N351 1.341 . S
C349 C347 1.400 . S
C349 C348 1.387 . S
N350 Co341 2.022 . S
N350 C347 1.351 . S
N350 N351 1.365 . S
N351 C348 1.341 . S
N351 N350 1.365 . S
N351 H371 0.862 . S
C352 C347 1.501 . S
C352 H353 0.961 . S
C352 H354 0.961 . S
C352 H355 0.960 . S
H353 C352 0.961 . S
H354 C352 0.961 . S
H355 C352 0.960 . S
C356 N357 1.342 . S
C356 C360 1.401 . S
C356 C361 1.499 . S
N357 Co340 1.989 . S
N357 C356 1.342 . S
N357 N358 1.388 . S
N358 Co341 1.993 . S
N358 N357 1.388 . S
N358 C359 1.346 . S
C359 N358 1.346 . S
C359 C360 1.396 . S
C359 C369 1.510 . S
C360 C356 1.401 . S
C360 C359 1.396 . S
C361 C356 1.499 . S
C361 H362 0.959 1_455 S
C361 H363 0.960 . S
C361 H364 0.961 . S
H362 C361 0.959 1_655 S
H363 C361 0.960 . S
H364 C361 0.961 . S
O365 Co340 1.967 . S
O365 C373 1.258 . S
O366 Co341 1.941 . S
O366 C373 1.266 . S
H367 C369 0.959 . S
H368 C369 0.961 . S
C369 C359 1.510 . S
C369 H367 0.959 . S
C369 H368 0.961 . S
C369 H370 0.960 . S
H370 C369 0.960 . S
H371 N351 0.862 . S
O372 Co340 1.920 1_655 S
O372 C345 1.289 . S
C373 O365 1.258 . S
C373 O366 1.266 . S
Co374 O377 1.970 . S
Co374 N391 1.989 . S
Co374 O399 1.967 . S
Co374 O406 1.920 1_545 S
Co375 O378 1.966 . S
Co375 N384 2.022 . S
Co375 N392 1.993 . S
Co375 O400 1.941 . S
C376 O377 1.258 . S
C376 O378 1.263 . S
O377 Co374 1.970 . S
O377 C376 1.258 . S
O378 Co375 1.966 . S
O378 C376 1.263 . S
C379 O380 1.235 . S
C379 O406 1.289 . S
O380 C379 1.235 . S
C381 C383 1.400 . S
C381 N384 1.351 . S
C381 C386 1.501 . S
C382 C383 1.387 . S
C382 N385 1.341 . S
C383 C381 1.400 . S
C383 C382 1.387 . S
N384 Co375 2.022 . S
N384 C381 1.351 . S
N384 N385 1.365 . S
N385 C382 1.341 . S
N385 N384 1.365 . S
N385 H405 0.862 . S
C386 C381 1.501 . S
C386 H387 0.961 . S
C386 H388 0.961 . S
C386 H389 0.960 . S
H387 C386 0.961 . S
H388 C386 0.961 . S
H389 C386 0.960 . S
C390 N391 1.342 . S
C390 C394 1.401 . S
C390 C395 1.499 . S
N391 Co374 1.989 . S
N391 C390 1.342 . S
N391 N392 1.388 . S
N392 Co375 1.993 . S
N392 N391 1.388 . S
N392 C393 1.346 . S
C393 N392 1.346 . S
C393 C394 1.396 . S
C393 C403 1.510 . S
C394 C390 1.401 . S
C394 C393 1.396 . S
C395 C390 1.499 . S
C395 H396 0.959 1_545 S
C395 H397 0.960 . S
C395 H398 0.961 . S
H396 C395 0.959 1_565 S
H397 C395 0.960 . S
H398 C395 0.961 . S
O399 Co374 1.967 . S
O399 C407 1.258 . S
O400 Co375 1.941 . S
O400 C407 1.266 . S
H401 C403 0.959 . S
H402 C403 0.961 . S
C403 C393 1.510 . S
C403 H401 0.959 . S
C403 H402 0.961 . S
C403 H404 0.960 . S
H404 C403 0.960 . S
H405 N385 0.862 . S
O406 Co374 1.920 1_565 S
O406 C379 1.289 . S
C407 O399 1.258 . S
C407 O400 1.266 . S
Co408 O411 1.970 . S
Co408 N425 1.989 . S
Co408 O433 1.967 . S
Co408 O440 1.920 . S
Co409 O412 1.966 . S
Co409 N418 2.022 . S
Co409 N426 1.993 . S
Co409 O434 1.941 . S
C410 O411 1.258 . S
C410 O412 1.263 . S
O411 Co408 1.970 . S
O411 C410 1.258 . S
O412 Co409 1.966 . S
O412 C410 1.263 . S
C413 O414 1.235 . S
C413 O440 1.289 . S
O414 C413 1.235 . S
C415 C417 1.400 . S
C415 N418 1.351 . S
C415 C420 1.501 . S
C416 C417 1.387 . S
C416 N419 1.341 . S
C417 C415 1.400 . S
C417 C416 1.387 . S
N418 Co409 2.022 . S
N418 C415 1.351 . S
N418 N419 1.365 . S
N419 C416 1.341 . S
N419 N418 1.365 . S
N419 H439 0.862 . S
C420 C415 1.501 . S
C420 H421 0.961 . S
C420 H422 0.961 . S
C420 H423 0.960 . S
H421 C420 0.961 . S
H422 C420 0.961 . S
H423 C420 0.960 . S
C424 N425 1.342 . S
C424 C428 1.401 . S
C424 C429 1.499 . S
N425 Co408 1.989 . S
N425 C424 1.342 . S
N425 N426 1.388 . S
N426 Co409 1.993 . S
N426 N425 1.388 . S
N426 C427 1.346 . S
C427 N426 1.346 . S
C427 C428 1.396 . S
C427 C437 1.510 . S
C428 C424 1.401 . S
C428 C427 1.396 . S
C429 C424 1.499 . S
C429 H430 0.959 . S
C429 H431 0.960 . S
C429 H432 0.961 . S
H430 C429 0.959 . S
H431 C429 0.960 . S
H432 C429 0.961 . S
O433 Co408 1.967 . S
O433 C441 1.258 . S
O434 Co409 1.941 . S
O434 C441 1.266 . S
H435 C437 0.959 . S
H436 C437 0.961 . S
C437 C427 1.510 . S
C437 H435 0.959 . S
C437 H436 0.961 . S
C437 H438 0.960 . S
H438 C437 0.960 . S
H439 N419 0.862 . S
O440 Co408 1.920 . S
O440 C413 1.289 . S
C441 O433 1.258 . S
C441 O434 1.266 . S
Co442 O445 1.970 . S
Co442 N459 1.989 . S
Co442 O467 1.967 . S
Co442 O474 1.920 . S
Co443 O446 1.966 . S
Co443 N452 2.022 . S
Co443 N460 1.993 . S
Co443 O468 1.941 . S
C444 O445 1.258 . S
C444 O446 1.263 . S
O445 Co442 1.970 . S
O445 C444 1.258 . S
O446 Co443 1.966 . S
O446 C444 1.263 . S
C447 O448 1.235 . S
C447 O474 1.289 . S
O448 C447 1.235 . S
C449 C451 1.400 . S
C449 N452 1.351 . S
C449 C454 1.501 . S
C450 C451 1.387 . S
C450 N453 1.341 . S
C451 C449 1.400 . S
C451 C450 1.387 . S
N452 Co443 2.022 . S
N452 C449 1.351 . S
N452 N453 1.365 . S
N453 C450 1.341 . S
N453 N452 1.365 . S
N453 H473 0.862 . S
C454 C449 1.501 . S
C454 H455 0.961 . S
C454 H456 0.961 . S
C454 H457 0.960 . S
H455 C454 0.961 . S
H456 C454 0.961 . S
H457 C454 0.960 . S
C458 N459 1.342 . S
C458 C462 1.401 . S
C458 C463 1.499 . S
N459 Co442 1.989 . S
N459 C458 1.342 . S
N459 N460 1.388 . S
N460 Co443 1.993 . S
N460 N459 1.388 . S
N460 C461 1.346 . S
C461 N460 1.346 . S
C461 C462 1.396 . S
C461 C471 1.510 . S
C462 C458 1.401 . S
C462 C461 1.396 . S
C463 C458 1.499 . S
C463 H464 0.959 . S
C463 H465 0.960 . S
C463 H466 0.961 . S
H464 C463 0.959 . S
H465 C463 0.960 . S
H466 C463 0.961 . S
O467 Co442 1.967 . S
O467 C475 1.258 . S
O468 Co443 1.941 . S
O468 C475 1.266 . S
H469 C471 0.959 . S
H470 C471 0.961 . S
C471 C461 1.510 . S
C471 H469 0.959 . S
C471 H470 0.961 . S
C471 H472 0.960 . S
H472 C471 0.960 . S
H473 N453 0.862 . S
O474 Co442 1.920 . S
O474 C447 1.289 . S
C475 O467 1.258 . S
C475 O468 1.266 . S
Co476 O479 1.970 . S
Co476 N493 1.989 . S
Co476 O501 1.967 . S
Co476 O508 1.920 . S
Co477 O480 1.966 . S
Co477 N486 2.022 . S
Co477 N494 1.993 . S
Co477 O502 1.941 . S
C478 O479 1.258 . S
C478 O480 1.263 . S
O479 Co476 1.970 . S
O479 C478 1.258 . S
O480 Co477 1.966 . S
O480 C478 1.263 . S
C481 O482 1.235 . S
C481 O508 1.289 . S
O482 C481 1.235 . S
C483 C485 1.400 . S
C483 N486 1.351 . S
C483 C488 1.501 . S
C484 C485 1.387 . S
C484 N487 1.341 . S
C485 C483 1.400 . S
C485 C484 1.387 . S
N486 Co477 2.022 . S
N486 C483 1.351 . S
N486 N487 1.365 . S
N487 C484 1.341 . S
N487 N486 1.365 . S
N487 H507 0.862 . S
C488 C483 1.501 . S
C488 H489 0.961 . S
C488 H490 0.961 . S
C488 H491 0.960 . S
H489 C488 0.961 . S
H490 C488 0.961 . S
H491 C488 0.960 . S
C492 N493 1.342 . S
C492 C496 1.401 . S
C492 C497 1.499 . S
N493 Co476 1.989 . S
N493 C492 1.342 . S
N493 N494 1.388 . S
N494 Co477 1.993 . S
N494 N493 1.388 . S
N494 C495 1.346 . S
C495 N494 1.346 . S
C495 C496 1.396 . S
C495 C505 1.510 . S
C496 C492 1.401 . S
C496 C495 1.396 . S
C497 C492 1.499 . S
C497 H498 0.959 . S
C497 H499 0.960 . S
C497 H500 0.961 . S
H498 C497 0.959 . S
H499 C497 0.960 . S
H500 C497 0.961 . S
O501 Co476 1.967 . S
O501 C509 1.258 . S
O502 Co477 1.941 . S
O502 C509 1.266 . S
H503 C505 0.959 . S
H504 C505 0.961 . S
C505 C495 1.510 . S
C505 H503 0.959 . S
C505 H504 0.961 . S
C505 H506 0.960 . S
H506 C505 0.960 . S
H507 N487 0.862 . S
O508 Co476 1.920 . S
O508 C481 1.289 . S
C509 O501 1.258 . S
C509 O502 1.266 . S
Co510 O513 1.970 . S
Co510 N527 1.989 . S
Co510 O535 1.967 . S
Co510 O542 1.920 . S
Co511 O514 1.966 . S
Co511 N520 2.022 . S
Co511 N528 1.993 . S
Co511 O536 1.941 . S
C512 O513 1.258 . S
C512 O514 1.263 . S
O513 Co510 1.970 . S
O513 C512 1.258 . S
O514 Co511 1.966 . S
O514 C512 1.263 . S
C515 O516 1.235 . S
C515 O542 1.289 . S
O516 C515 1.235 . S
C517 C519 1.400 . S
C517 N520 1.351 . S
C517 C522 1.501 . S
C518 C519 1.387 . S
C518 N521 1.341 . S
C519 C517 1.400 . S
C519 C518 1.387 . S
N520 Co511 2.022 . S
N520 C517 1.351 . S
N520 N521 1.365 . S
N521 C518 1.341 . S
N521 N520 1.365 . S
N521 H541 0.862 . S
C522 C517 1.501 . S
C522 H523 0.961 . S
C522 H524 0.961 . S
C522 H525 0.960 . S
H523 C522 0.961 . S
H524 C522 0.961 . S
H525 C522 0.960 . S
C526 N527 1.342 . S
C526 C530 1.401 . S
C526 C531 1.499 . S
N527 Co510 1.989 . S
N527 C526 1.342 . S
N527 N528 1.388 . S
N528 Co511 1.993 . S
N528 N527 1.388 . S
N528 C529 1.346 . S
C529 N528 1.346 . S
C529 C530 1.396 . S
C529 C539 1.510 . S
C530 C526 1.401 . S
C530 C529 1.396 . S
C531 C526 1.499 . S
C531 H532 0.959 . S
C531 H533 0.960 . S
C531 H534 0.961 . S
H532 C531 0.959 . S
H533 C531 0.960 . S
H534 C531 0.961 . S
O535 Co510 1.967 . S
O535 C543 1.258 . S
O536 Co511 1.941 . S
O536 C543 1.266 . S
H537 C539 0.959 . S
H538 C539 0.961 . S
C539 C529 1.510 . S
C539 H537 0.959 . S
C539 H538 0.961 . S
C539 H540 0.960 . S
H540 C539 0.960 . S
H541 N521 0.862 . S
O542 Co510 1.920 . S
O542 C515 1.289 . S
C543 O535 1.258 . S
C543 O536 1.266 . S
C544 C545 1.391 . S
C544 C546 1.394 . S
C544 H560 0.931 . S
C545 C544 1.391 . S
C545 C549 1.376 . S
C546 C544 1.394 . S
C546 C547 1.369 . S
C546 C550 1.531 1_545 S
C547 C546 1.369 . S
C547 C548 1.410 1_455 S
C547 C555 1.503 1_445 S
C548 C547 1.410 1_655 S
C548 C549 1.392 1_655 S
C548 C551 1.511 . S
C549 C545 1.376 . S
C549 C548 1.392 1_455 S
C549 H561 0.929 1_455 S
C550 C546 1.531 1_565 S
C550 H562 0.960 . S
C550 H563 0.962 . S
C550 H564 0.960 1_565 S
C551 C548 1.511 . S
C551 H565 0.961 . S
C551 H566 0.961 . S
C551 H567 0.961 . S
C552 C553 1.370 . S
C552 C554 1.366 . S
C552 H568 0.931 . S
C553 C552 1.370 . S
C553 C557 1.408 . S
C554 C552 1.366 . S
C554 C555 1.373 . S
C554 C558 1.519 1_655 S
C555 C547 1.503 1_665 S
C555 C554 1.373 . S
C555 C556 1.403 . S
C556 C555 1.403 . S
C556 C557 1.404 . S
C556 C559 1.539 . S
C557 C553 1.408 . S
C557 C556 1.404 . S
C557 H569 0.930 . S
C558 C554 1.519 1_455 S
C558 H570 0.956 . S
C558 H571 0.961 . S
C558 H572 0.961 . S
C559 C556 1.539 . S
C559 H573 0.958 . S
C559 H574 0.961 . S
C559 H575 0.960 1_565 S
H560 C544 0.931 . S
H561 C549 0.929 1_655 S
H562 C550 0.960 . S
H563 C550 0.962 . S
H564 C550 0.960 1_545 S
H565 C551 0.961 . S
H566 C551 0.961 . S
H567 C551 0.961 . S
H568 C552 0.931 . S
H569 C557 0.930 . S
H570 C558 0.956 . S
H571 C558 0.961 . S
H572 C558 0.961 . S
H573 C559 0.958 . S
H574 C559 0.961 . S
H575 C559 0.960 1_545 S
C576 C577 1.391 . S
C576 C578 1.394 . S
C576 H592 0.931 . S
C577 C576 1.391 . S
C577 C581 1.376 . S
C578 C576 1.394 . S
C578 C579 1.369 . S
C578 C582 1.531 . S
C579 C578 1.369 . S
C579 C580 1.410 1_565 S
C579 C587 1.503 1_465 S
C580 C579 1.410 1_545 S
C580 C581 1.392 1_545 S
C580 C583 1.511 . S
C581 C577 1.376 . S
C581 C580 1.392 1_565 S
C581 H593 0.929 . S
C582 C578 1.531 . S
C582 H594 0.960 1_455 S
C582 H595 0.962 1_455 S
C582 H596 0.960 . S
C583 C580 1.511 . S
C583 H597 0.961 . S
C583 H598 0.961 . S
C583 H599 0.961 . S
C584 C585 1.370 . S
C584 C586 1.363 1_545 S
C584 H600 0.931 1_545 S
C585 C584 1.370 . S
C585 C589 1.408 . S
C586 C584 1.363 1_565 S
C586 C587 1.370 1_565 S
C586 C590 1.524 . S
C587 C579 1.503 1_645 S
C587 C586 1.370 1_545 S
C587 C588 1.403 . S
C588 C587 1.403 . S
C588 C589 1.404 . S
C588 C591 1.539 1_655 S
C589 C585 1.408 . S
C589 C588 1.404 . S
C589 H601 0.930 . S
C590 C586 1.524 . S
C590 H602 0.956 . S
C590 H603 0.961 . S
C590 H604 0.961 . S
C591 C588 1.539 1_455 S
C591 H605 0.958 . S
C591 H606 0.961 . S
C591 H607 0.960 . S
H592 C576 0.931 . S
H593 C581 0.929 . S
H594 C582 0.960 1_655 S
H595 C582 0.962 1_655 S
H596 C582 0.960 . S
H597 C583 0.961 . S
H598 C583 0.961 . S
H599 C583 0.961 . S
H600 C584 0.931 1_565 S
H601 C589 0.930 . S
H602 C590 0.956 . S
H603 C590 0.961 . S
H604 C590 0.961 . S
H605 C591 0.958 . S
H606 C591 0.961 . S
H607 C591 0.960 . S
C608 C609 1.391 . S
C608 C610 1.394 . S
C608 H624 0.931 . S
C609 C608 1.391 . S
C609 C613 1.376 . S
C610 C608 1.394 . S
C610 C611 1.369 . S
C610 C614 1.531 . S
C611 C610 1.369 . S
C611 C612 1.410 . S
C611 C619 1.503 . S
C612 C611 1.410 . S
C612 C613 1.392 . S
C612 C615 1.511 . S
C613 C609 1.376 . S
C613 C612 1.392 . S
C613 H625 0.929 . S
C614 C610 1.531 . S
C614 H626 0.960 . S
C614 H627 0.962 . S
C614 H628 0.960 . S
C615 C612 1.511 . S
C615 H629 0.961 . S
C615 H630 0.961 . S
C615 H631 0.961 . S
C616 C617 1.370 . S
C616 C618 1.363 . S
C616 H632 0.931 . S
C617 C616 1.370 . S
C617 C621 1.408 . S
C618 C616 1.363 . S
C618 C619 1.370 . S
C618 C622 1.524 . S
C619 C611 1.503 . S
C619 C618 1.370 . S
C619 C620 1.403 . S
C620 C619 1.403 . S
C620 C621 1.404 . S
C620 C623 1.539 . S
C621 C617 1.408 . S
C621 C620 1.404 . S
C621 H633 0.930 . S
C622 C618 1.524 . S
C622 H634 0.956 . S
C622 H635 0.961 . S
C622 H636 0.961 . S
C623 C620 1.539 . S
C623 H637 0.958 . S
C623 H638 0.961 . S
C623 H639 0.960 . S
H624 C608 0.931 . S
H625 C613 0.929 . S
H626 C614 0.960 . S
H627 C614 0.962 . S
H628 C614 0.960 . S
H629 C615 0.961 . S
H630 C615 0.961 . S
H631 C615 0.961 . S
H632 C616 0.931 . S
H633 C621 0.930 . S
H634 C622 0.956 . S
H635 C622 0.961 . S
H636 C622 0.961 . S
H637 C623 0.958 . S
H638 C623 0.961 . S
H639 C623 0.960 . S
C640 C641 1.391 . S
C640 C642 1.394 . S
C640 H656 0.931 . S
C641 C640 1.391 . S
C641 C645 1.376 . S
C642 C640 1.394 . S
C642 C643 1.369 . S
C642 C646 1.531 . S
C643 C642 1.369 . S
C643 C644 1.410 . S
C643 C651 1.503 . S
C644 C643 1.410 . S
C644 C645 1.392 . S
C644 C647 1.511 . S
C645 C641 1.376 . S
C645 C644 1.392 . S
C645 H657 0.929 . S
C646 C642 1.531 . S
C646 H658 0.960 . S
C646 H659 0.962 . S
C646 H660 0.960 . S
C647 C644 1.511 . S
C647 H661 0.961 . S
C647 H662 0.961 . S
C647 H663 0.961 . S
C648 C649 1.370 . S
C648 C650 1.363 . S
C648 H664 0.931 . S
C649 C648 1.370 . S
C649 C653 1.408 . S
C650 C648 1.363 . S
C650 C651 1.370 . S
C650 C654 1.524 . S
C651 C643 1.503 . S
C651 C650 1.370 . S
C651 C652 1.403 . S
C652 C651 1.403 . S
C652 C653 1.404 . S
C652 C655 1.539 . S
C653 C649 1.408 . S
C653 C652 1.404 . S
C653 H665 0.930 . S
C654 C650 1.524 . S
C654 H666 0.956 . S
C654 H667 0.961 . S
C654 H668 0.961 . S
C655 C652 1.539 . S
C655 H669 0.958 . S
C655 H670 0.961 . S
C655 H671 0.960 . S
H656 C640 0.931 . S
H657 C645 0.929 . S
H658 C646 0.960 . S
H659 C646 0.962 . S
H660 C646 0.960 . S
H661 C647 0.961 . S
H662 C647 0.961 . S
H663 C647 0.961 . S
H664 C648 0.931 . S
H665 C653 0.930 . S
H666 C654 0.956 . S
H667 C654 0.961 . S
H668 C654 0.961 . S
H669 C655 0.958 . S
H670 C655 0.961 . S
H671 C655 0.960 . S
C672 C673 1.391 . S
C672 C674 1.394 . S
C672 H688 0.931 . S
C673 C672 1.391 . S
C673 C677 1.376 . S
C674 C672 1.394 . S
C674 C675 1.369 . S
C674 C678 1.531 1_545 S
C675 C674 1.369 . S
C675 C676 1.410 1_455 S
C675 C683 1.503 1_445 S
C676 C675 1.410 1_655 S
C676 C677 1.392 1_655 S
C676 C679 1.511 . S
C677 C673 1.376 . S
C677 C676 1.392 1_455 S
C677 H689 0.929 1_455 S
C678 C674 1.531 1_565 S
C678 H690 0.960 . S
C678 H691 0.962 . S
C678 H692 0.960 . S
C679 C676 1.511 . S
C679 H693 0.961 . S
C679 H694 0.961 . S
C679 H695 0.961 . S
C680 C681 1.370 . S
C680 C682 1.363 . S
C680 H696 0.931 . S
C681 C680 1.370 . S
C681 C685 1.408 . S
C682 C680 1.363 . S
C682 C683 1.370 . S
C682 C686 1.524 1_655 S
C683 C675 1.503 1_665 S
C683 C682 1.370 . S
C683 C684 1.403 . S
C684 C683 1.403 . S
C684 C685 1.404 . S
C684 C687 1.539 . S
C685 C681 1.408 . S
C685 C684 1.404 . S
C685 H697 0.930 . S
C686 C682 1.524 1_455 S
C686 H698 0.956 . S
C686 H699 0.950 1_465 S
C686 H700 0.961 . S
C687 C684 1.539 . S
C687 H701 0.958 . S
C687 H702 0.961 . S
C687 H703 0.960 1_565 S
H688 C672 0.931 . S
H689 C677 0.929 1_655 S
H690 C678 0.960 . S
H691 C678 0.962 . S
H692 C678 0.960 . S
H693 C679 0.961 . S
H694 C679 0.961 . S
H695 C679 0.961 . S
H696 C680 0.931 . S
H697 C685 0.930 . S
H698 C686 0.956 . S
H699 C686 0.950 1_645 S
H700 C686 0.961 . S
H701 C687 0.958 . S
H702 C687 0.961 . S
H703 C687 0.960 1_545 S
C704 C705 1.391 . S
C704 C706 1.394 . S
C704 H720 0.931 . S
C705 C704 1.391 . S
C705 C709 1.376 . S
C706 C704 1.394 . S
C706 C707 1.369 . S
C706 C710 1.531 1_455 S
C707 C706 1.369 . S
C707 C708 1.410 1_565 S
C707 C715 1.503 1_465 S
C708 C707 1.410 1_545 S
C708 C709 1.392 1_545 S
C708 C711 1.511 . S
C709 C705 1.376 . S
C709 C708 1.392 1_565 S
C709 H721 0.929 1_565 S
C710 C706 1.531 1_655 S
C710 H722 0.960 . S
C710 H723 0.962 . S
C710 H724 0.960 1_655 S
C711 C708 1.511 . S
C711 H725 0.961 . S
C711 H726 0.961 . S
C711 H727 0.961 . S
C712 C713 1.370 . S
C712 C714 1.363 . S
C712 H728 0.931 . S
C713 C712 1.370 . S
C713 C717 1.408 . S
C714 C712 1.363 . S
C714 C715 1.370 . S
C714 C718 1.524 1_545 S
C715 C707 1.503 1_645 S
C715 C714 1.370 . S
C715 C716 1.403 . S
C716 C715 1.403 . S
C716 C717 1.404 . S
C716 C719 1.539 . S
C717 C713 1.408 . S
C717 C716 1.404 . S
C717 H729 0.930 . S
C718 C714 1.524 1_565 S
C718 H730 0.956 . S
C718 H731 0.961 . S
C718 H732 0.961 . S
C719 C716 1.539 . S
C719 H733 0.958 . S
C719 H734 0.961 . S
C719 H735 0.960 1_655 S
H720 C704 0.931 . S
H721 C709 0.929 1_545 S
H722 C710 0.960 . S
H723 C710 0.962 . S
H724 C710 0.960 1_455 S
H725 C711 0.961 . S
H726 C711 0.961 . S
H727 C711 0.961 . S
H728 C712 0.931 . S
H729 C717 0.930 . S
H730 C718 0.956 . S
H731 C718 0.961 . S
H732 C718 0.961 . S
H733 C719 0.958 . S
H734 C719 0.961 . S
H735 C719 0.960 1_455 S
C736 C737 1.391 . S
C736 C738 1.394 . S
C736 H752 0.931 . S
C737 C736 1.391 . S
C737 C741 1.376 . S
C738 C736 1.394 . S
C738 C739 1.369 . S
C738 C742 1.531 . S
C739 C738 1.369 . S
C739 C740 1.410 . S
C739 C747 1.503 . S
C740 C739 1.410 . S
C740 C741 1.392 . S
C740 C743 1.511 . S
C741 C737 1.376 . S
C741 C740 1.392 . S
C741 H753 0.929 . S
C742 C738 1.531 . S
C742 H754 0.960 . S
C742 H755 0.962 . S
C742 H756 0.960 . S
C743 C740 1.511 . S
C743 H757 0.961 . S
C743 H758 0.961 . S
C743 H759 0.961 . S
C744 C745 1.370 . S
C744 C746 1.363 . S
C744 H760 0.931 . S
C745 C744 1.370 . S
C745 C749 1.408 . S
C746 C744 1.363 . S
C746 C747 1.370 . S
C746 C750 1.524 . S
C747 C739 1.503 . S
C747 C746 1.370 . S
C747 C748 1.403 . S
C748 C747 1.403 . S
C748 C749 1.404 . S
C748 C751 1.539 . S
C749 C745 1.408 . S
C749 C748 1.404 . S
C749 H761 0.930 . S
C750 C746 1.524 . S
C750 H762 0.956 . S
C750 H763 0.961 . S
C750 H764 0.961 . S
C751 C748 1.539 . S
C751 H765 0.958 . S
C751 H766 0.961 . S
C751 H767 0.960 . S
H752 C736 0.931 . S
H753 C741 0.929 . S
H754 C742 0.960 . S
H755 C742 0.962 . S
H756 C742 0.960 . S
H757 C743 0.961 . S
H758 C743 0.961 . S
H759 C743 0.961 . S
H760 C744 0.931 . S
H761 C749 0.930 . S
H762 C750 0.956 . S
H763 C750 0.961 . S
H764 C750 0.961 . S
H765 C751 0.958 . S
H766 C751 0.961 . S
H767 C751 0.960 . S
C768 C769 1.391 . S
C768 C770 1.394 . S
C768 H784 0.931 . S
C769 C768 1.391 . S
C769 C773 1.376 . S
C770 C768 1.394 . S
C770 C771 1.369 . S
C770 C774 1.531 . S
C771 C770 1.369 . S
C771 C772 1.410 . S
C771 C779 1.503 . S
C772 C771 1.410 . S
C772 C773 1.392 . S
C772 C775 1.511 . S
C773 C769 1.376 . S
C773 C772 1.392 . S
C773 H785 0.929 . S
C774 C770 1.531 . S
C774 H786 0.960 . S
C774 H787 0.962 . S
C774 H788 0.960 . S
C775 C772 1.511 . S
C775 H789 0.961 . S
C775 H790 0.961 . S
C775 H791 0.961 . S
C776 C777 1.370 . S
C776 C778 1.363 . S
C776 H792 0.931 . S
C777 C776 1.370 . S
C777 C781 1.408 . S
C778 C776 1.363 . S
C778 C779 1.370 . S
C778 C782 1.524 . S
C779 C771 1.503 . S
C779 C778 1.370 . S
C779 C780 1.403 . S
C780 C779 1.403 . S
C780 C781 1.404 . S
C780 C783 1.539 . S
C781 C777 1.408 . S
C781 C780 1.404 . S
C781 H793 0.930 . S
C782 C778 1.524 . S
C782 H794 0.956 . S
C782 H795 0.961 . S
C782 H796 0.961 . S
C783 C780 1.539 . S
C783 H797 0.958 . S
C783 H798 0.961 . S
C783 H799 0.960 . S
H784 C768 0.931 . S
H785 C773 0.929 . S
H786 C774 0.960 . S
H787 C774 0.962 . S
H788 C774 0.960 . S
H789 C775 0.961 . S
H790 C775 0.961 . S
H791 C775 0.961 . S
H792 C776 0.931 . S
H793 C781 0.930 . S
H794 C782 0.956 . S
H795 C782 0.961 . S
H796 C782 0.961 . S
H797 C783 0.958 . S
H798 C783 0.961 . S
H799 C783 0.960 . S
C800 C801 1.391 . S
C800 C802 1.394 1_554 S
C800 H816 0.931 . S
C801 C800 1.391 . S
C801 C805 1.376 . S
C802 C800 1.394 1_556 S
C802 C803 1.369 . S
C802 C806 1.531 . S
C803 C802 1.369 . S
C803 C804 1.410 . S
C803 C811 1.503 . S
C804 C803 1.410 . S
C804 C805 1.392 1_556 S
C804 C807 1.511 . S
C805 C801 1.376 . S
C805 C804 1.392 1_554 S
C805 H817 0.929 . S
C806 C802 1.531 . S
C806 H818 0.960 . S
C806 H819 0.962 . S
C806 H820 0.960 . S
C807 C804 1.511 . S
C807 H821 0.961 1_455 S
C807 H822 0.961 . S
C807 H823 0.961 1_455 S
C808 C809 1.370 . S
C808 C810 1.363 . S
C808 H824 0.931 . S
C809 C808 1.370 . S
C809 C813 1.408 . S
C810 C808 1.363 . S
C810 C811 1.370 . S
C810 C814 1.524 . S
C811 C803 1.503 . S
C811 C810 1.370 . S
C811 C812 1.403 . S
C812 C811 1.403 . S
C812 C813 1.404 . S
C812 C815 1.539 . S
C813 C809 1.408 . S
C813 C812 1.404 . S
C813 H825 0.930 . S
C814 C810 1.524 . S
C814 H826 0.956 . S
C814 H827 0.961 . S
C814 H828 0.961 . S
C815 C812 1.539 . S
C815 H829 0.958 . S
C815 H830 0.961 . S
C815 H831 0.960 . S
H816 C800 0.931 . S
H817 C805 0.929 . S
H818 C806 0.960 . S
H819 C806 0.962 . S
H820 C806 0.960 . S
H821 C807 0.961 1_655 S
H822 C807 0.961 . S
H823 C807 0.961 1_655 S
H824 C808 0.931 . S
H825 C813 0.930 . S
H826 C814 0.956 . S
H827 C814 0.961 . S
H828 C814 0.961 . S
H829 C815 0.958 . S
H830 C815 0.961 . S
H831 C815 0.960 . S
C832 C833 1.391 . S
C832 C834 1.394 . S
C832 H848 0.931 . S
C833 C832 1.391 . S
C833 C837 1.376 . S
C834 C832 1.394 . S
C834 C835 1.369 . S
C834 C838 1.531 . S
C835 C834 1.369 . S
C835 C836 1.410 . S
C835 C843 1.503 . S
C836 C835 1.410 . S
C836 C837 1.392 . S
C836 C839 1.511 . S
C837 C833 1.376 . S
C837 C836 1.392 . S
C837 H849 0.929 . S
C838 C834 1.531 . S
C838 H850 0.960 . S
C838 H851 0.962 . S
C838 H852 0.960 . S
C839 C836 1.511 . S
C839 H853 0.961 . S
C839 H854 0.961 . S
C839 H855 0.961 . S
C840 C841 1.370 . S
C840 C842 1.363 . S
C840 H856 0.931 . S
C841 C840 1.370 . S
C841 C845 1.408 . S
C842 C840 1.363 . S
C842 C843 1.370 . S
C842 C846 1.524 . S
C843 C835 1.503 . S
C843 C842 1.370 . S
C843 C844 1.403 . S
C844 C843 1.403 . S
C844 C845 1.404 . S
C844 C847 1.539 . S
C845 C841 1.408 . S
C845 C844 1.404 . S
C845 H857 0.930 . S
C846 C842 1.524 . S
C846 H858 0.956 . S
C846 H859 0.961 . S
C846 H860 0.961 . S
C847 C844 1.539 . S
C847 H861 0.958 . S
C847 H862 0.961 . S
C847 H863 0.960 . S
H848 C832 0.931 . S
H849 C837 0.929 . S
H850 C838 0.960 . S
H851 C838 0.962 . S
H852 C838 0.960 . S
H853 C839 0.961 . S
H854 C839 0.961 . S
H855 C839 0.961 . S
H856 C840 0.931 . S
H857 C845 0.930 . S
H858 C846 0.956 . S
H859 C846 0.961 . S
H860 C846 0.961 . S
H861 C847 0.958 . S
H862 C847 0.961 . S
H863 C847 0.960 . S
C864 C865 1.391 . S
C864 C866 1.394 . S
C864 H880 0.931 . S
C865 C864 1.391 . S
C865 C869 1.376 . S
C866 C864 1.394 . S
C866 C867 1.369 . S
C866 C870 1.531 . S
C867 C866 1.369 . S
C867 C868 1.410 . S
C867 C875 1.503 . S
C868 C867 1.410 . S
C868 C869 1.392 . S
C868 C871 1.511 . S
C869 C865 1.376 . S
C869 C868 1.392 . S
C869 H881 0.929 . S
C870 C866 1.531 . S
C870 H882 0.960 . S
C870 H883 0.962 1_655 S
C870 H884 0.953 1_655 S
C871 C868 1.511 . S
C871 H885 0.961 . S
C871 H886 0.961 . S
C871 H887 0.961 . S
C872 C873 1.370 . S
C872 C874 1.363 1_554 S
C872 H888 0.931 . S
C873 C872 1.370 . S
C873 C877 1.408 . S
C874 C872 1.363 1_556 S
C874 C875 1.370 . S
C874 C878 1.524 . S
C875 C867 1.503 . S
C875 C874 1.370 . S
C875 C876 1.423 . S
C876 C875 1.423 . S
C876 C877 1.365 1_556 S
C876 C879 1.557 . S
C877 C873 1.408 . S
C877 C876 1.365 1_554 S
C877 H889 0.930 . S
C878 C874 1.524 . S
C878 H890 0.956 . S
C878 H891 0.961 . S
C878 H892 0.961 . S
C879 C876 1.557 . S
C879 H893 0.958 . S
C879 H894 0.961 . S
C879 H895 0.960 . S
H880 C864 0.931 . S
H881 C869 0.929 . S
H882 C870 0.960 . S
H883 C870 0.962 1_455 S
H884 C870 0.953 1_455 S
H885 C871 0.961 . S
H886 C871 0.961 . S
H887 C871 0.961 . S
H888 C872 0.931 . S
H889 C877 0.930 . S
H890 C878 0.956 . S
H891 C878 0.961 . S
H892 C878 0.961 . S
H893 C879 0.958 . S
H894 C879 0.961 . S
H895 C879 0.960 . S
C896 C897 1.391 . S
C896 C898 1.394 . S
C896 H912 0.931 . S
C897 C896 1.391 . S
C897 C901 1.376 . S
C898 C896 1.394 . S
C898 C899 1.369 . S
C898 C902 1.531 . S
C899 C898 1.369 . S
C899 C900 1.410 . S
C899 C907 1.503 . S
C900 C899 1.410 . S
C900 C901 1.392 . S
C900 C903 1.511 . S
C901 C897 1.376 . S
C901 C900 1.392 . S
C901 H913 0.929 . S
C902 C898 1.531 . S
C902 H914 0.960 . S
C902 H915 0.962 . S
C902 H916 0.960 . S
C903 C900 1.511 . S
C903 H917 0.961 . S
C903 H918 0.961 . S
C903 H919 0.961 . S
C904 C905 1.370 . S
C904 C906 1.363 . S
C904 H920 0.931 . S
C905 C904 1.370 . S
C905 C909 1.408 . S
C906 C904 1.363 . S
C906 C907 1.370 . S
C906 C910 1.524 . S
C907 C899 1.503 . S
C907 C906 1.370 . S
C907 C908 1.403 . S
C908 C907 1.403 . S
C908 C909 1.404 . S
C908 C911 1.539 . S
C909 C905 1.408 . S
C909 C908 1.404 . S
C909 H921 0.930 . S
C910 C906 1.524 . S
C910 H922 0.956 . S
C910 H923 0.961 . S
C910 H924 0.961 . S
C911 C908 1.539 . S
C911 H925 0.958 . S
C911 H926 0.961 . S
C911 H927 0.960 . S
H912 C896 0.931 . S
H913 C901 0.929 . S
H914 C902 0.960 . S
H915 C902 0.962 . S
H916 C902 0.960 . S
H917 C903 0.961 . S
H918 C903 0.961 . S
H919 C903 0.961 . S
H920 C904 0.931 . S
H921 C909 0.930 . S
H922 C910 0.956 . S
H923 C910 0.961 . S
H924 C910 0.961 . S
H925 C911 0.958 . S
H926 C911 0.961 . S
H927 C911 0.960 . S
C928 C929 1.391 . S
C928 C930 1.394 . S
C928 H944 0.931 . S
C929 C928 1.391 . S
C929 C933 1.376 . S
C930 C928 1.394 . S
C930 C931 1.369 . S
C930 C934 1.531 . S
C931 C930 1.369 . S
C931 C932 1.410 . S
C931 C939 1.503 . S
C932 C931 1.410 . S
C932 C933 1.392 . S
C932 C935 1.511 . S
C933 C929 1.376 . S
C933 C932 1.392 . S
C933 H945 0.929 . S
C934 C930 1.531 . S
C934 H946 0.960 . S
C934 H947 0.962 . S
C934 H948 0.960 . S
C935 C932 1.511 . S
C935 H949 0.961 . S
C935 H950 0.961 . S
C935 H951 0.961 . S
C936 C937 1.370 . S
C936 C938 1.363 1_556 S
C936 H952 0.931 . S
C937 C936 1.370 . S
C937 C941 1.408 . S
C938 C936 1.363 1_554 S
C938 C939 1.370 . S
C938 C942 1.524 . S
C939 C931 1.503 . S
C939 C938 1.370 . S
C939 C940 1.419 . S
C940 C939 1.419 . S
C940 C941 1.374 1_554 S
C940 C943 1.552 . S
C941 C937 1.408 . S
C941 C940 1.374 1_556 S
C941 H953 0.930 . S
C942 C938 1.524 . S
C942 H954 0.956 . S
C942 H955 0.961 . S
C942 H956 0.961 . S
C943 C940 1.552 . S
C943 H957 0.958 . S
C943 H958 0.961 . S
C943 H959 0.960 . S
H944 C928 0.931 . S
H945 C933 0.929 . S
H946 C934 0.960 . S
H947 C934 0.962 . S
H948 C934 0.960 . S
H949 C935 0.961 . S
H950 C935 0.961 . S
H951 C935 0.961 . S
H952 C936 0.931 . S
H953 C941 0.930 . S
H954 C942 0.956 . S
H955 C942 0.961 . S
H956 C942 0.961 . S
H957 C943 0.958 . S
H958 C943 0.961 . S
H959 C943 0.960 . S
C960 C961 1.391 . S
C960 C962 1.394 . S
C960 H976 0.931 . S
C961 C960 1.391 . S
C961 C965 1.376 . S
C962 C960 1.394 . S
C962 C963 1.369 . S
C962 C966 1.531 . S
C963 C962 1.369 . S
C963 C964 1.410 . S
C963 C971 1.503 . S
C964 C963 1.410 . S
C964 C965 1.392 . S
C964 C967 1.511 . S
C965 C961 1.376 . S
C965 C964 1.392 . S
C965 H977 0.929 . S
C966 C962 1.531 . S
C966 H978 0.960 . S
C966 H979 0.962 . S
C966 H980 0.960 . S
C967 C964 1.511 . S
C967 H981 0.961 . S
C967 H982 0.961 . S
C967 H983 0.961 . S
C968 C969 1.370 . S
C968 C970 1.363 . S
C968 H984 0.931 . S
C969 C968 1.370 . S
C969 C973 1.408 . S
C970 C968 1.363 . S
C970 C971 1.370 . S
C970 C974 1.524 . S
C971 C963 1.503 . S
C971 C970 1.370 . S
C971 C972 1.403 . S
C972 C971 1.403 . S
C972 C973 1.404 . S
C972 C975 1.539 . S
C973 C969 1.408 . S
C973 C972 1.404 . S
C973 H985 0.930 . S
C974 C970 1.524 . S
C974 H986 0.956 . S
C974 H987 0.961 . S
C974 H988 0.961 . S
C975 C972 1.539 . S
C975 H989 0.958 . S
C975 H990 0.961 . S
C975 H991 0.960 . S
H976 C960 0.931 . S
H977 C965 0.929 . S
H978 C966 0.960 . S
H979 C966 0.962 . S
H980 C966 0.960 . S
H981 C967 0.961 . S
H982 C967 0.961 . S
H983 C967 0.961 . S
H984 C968 0.931 . S
H985 C973 0.930 . S
H986 C974 0.956 . S
H987 C974 0.961 . S
H988 C974 0.961 . S
H989 C975 0.958 . S
H990 C975 0.961 . S
H991 C975 0.960 . S
C992 C993 1.391 . S
C992 C994 1.394 . S
C992 H1008 0.931 . S
C993 C992 1.391 . S
C993 C997 1.376 . S
C994 C992 1.394 . S
C994 C995 1.369 . S
C994 C998 1.531 . S
C995 C994 1.369 . S
C995 C996 1.410 . S
C995 C1003 1.503 . S
C996 C995 1.410 . S
C996 C997 1.392 . S
C996 C999 1.511 . S
C997 C993 1.376 . S
C997 C996 1.392 . S
C997 H1009 0.929 . S
C998 C994 1.531 . S
C998 H1010 0.960 . S
C998 H1011 0.962 . S
C998 H1012 0.960 . S
C999 C996 1.511 . S
C999 H1013 0.961 . S
C999 H1014 0.961 . S
C999 H1015 0.961 . S
C1000 C1001 1.370 . S
C1000 C1002 1.363 1_556 S
C1000 H1016 0.931 . S
C1001 C1000 1.370 . S
C1001 C1005 1.408 . S
C1002 C1000 1.363 1_554 S
C1002 C1003 1.370 . S
C1002 C1006 1.524 . S
C1003 C995 1.503 . S
C1003 C1002 1.370 . S
C1003 C1004 1.389 1_554 S
C1004 C1003 1.389 1_556 S
C1004 C1005 1.427 . S
C1004 C1007 1.530 1_556 S
C1005 C1001 1.408 . S
C1005 C1004 1.427 . S
C1005 H1017 0.930 . S
C1006 C1002 1.524 . S
C1006 H1018 0.956 . S
C1006 H1019 0.961 . S
C1006 H1020 0.961 . S
C1007 C1004 1.530 1_554 S
C1007 H1021 0.958 . S
C1007 H1022 0.954 1_554 S
C1007 H1023 0.960 . S
H1008 C992 0.931 . S
H1009 C997 0.929 . S
H1010 C998 0.960 . S
H1011 C998 0.962 . S
H1012 C998 0.960 . S
H1013 C999 0.961 . S
H1014 C999 0.961 . S
H1015 C999 0.961 . S
H1016 C1000 0.931 . S
H1017 C1005 0.930 . S
H1018 C1006 0.956 . S
H1019 C1006 0.961 . S
H1020 C1006 0.961 . S
H1021 C1007 0.958 . S
H1022 C1007 0.954 1_556 S
H1023 C1007 0.960 . S
C1024 C1025 1.391 . S
C1024 C1026 1.394 . S
C1024 H1040 0.931 . S
C1025 C1024 1.391 . S
C1025 C1029 1.376 . S
C1026 C1024 1.394 . S
C1026 C1027 1.369 . S
C1026 C1030 1.531 . S
C1027 C1026 1.369 . S
C1027 C1028 1.410 . S
C1027 C1035 1.503 . S
C1028 C1027 1.410 . S
C1028 C1029 1.392 . S
C1028 C1031 1.511 . S
C1029 C1025 1.376 . S
C1029 C1028 1.392 . S
C1029 H1041 0.929 . S
C1030 C1026 1.531 . S
C1030 H1042 0.960 . S
C1030 H1043 0.962 . S
C1030 H1044 0.960 . S
C1031 C1028 1.511 . S
C1031 H1045 0.961 . S
C1031 H1046 0.961 . S
C1031 H1047 0.961 . S
C1032 C1033 1.370 . S
C1032 C1034 1.363 . S
C1032 H1048 0.931 . S
C1033 C1032 1.370 . S
C1033 C1037 1.408 . S
C1034 C1032 1.363 . S
C1034 C1035 1.370 . S
C1034 C1038 1.524 . S
C1035 C1027 1.503 . S
C1035 C1034 1.370 . S
C1035 C1036 1.403 . S
C1036 C1035 1.403 . S
C1036 C1037 1.404 . S
C1036 C1039 1.539 . S
C1037 C1033 1.408 . S
C1037 C1036 1.404 . S
C1037 H1049 0.930 . S
C1038 C1034 1.524 . S
C1038 H1050 0.956 . S
C1038 H1051 0.961 . S
C1038 H1052 0.961 . S
C1039 C1036 1.539 . S
C1039 H1053 0.958 . S
C1039 H1054 0.961 . S
C1039 H1055 0.960 . S
H1040 C1024 0.931 . S
H1041 C1029 0.929 . S
H1042 C1030 0.960 . S
H1043 C1030 0.962 . S
H1044 C1030 0.960 . S
H1045 C1031 0.961 . S
H1046 C1031 0.961 . S
H1047 C1031 0.961 . S
H1048 C1032 0.931 . S
H1049 C1037 0.930 . S
H1050 C1038 0.956 . S
H1051 C1038 0.961 . S
H1052 C1038 0.961 . S
H1053 C1039 0.958 . S
H1054 C1039 0.961 . S
H1055 C1039 0.960 . S
C1056 C1057 1.391 . S
C1056 C1058 1.394 . S
C1056 H1072 0.931 . S
C1057 C1056 1.391 . S
C1057 C1061 1.376 . S
C1058 C1056 1.394 . S
C1058 C1059 1.369 . S
C1058 C1062 1.531 . S
C1059 C1058 1.369 . S
C1059 C1060 1.410 . S
C1059 C1067 1.503 . S
C1060 C1059 1.410 . S
C1060 C1061 1.392 . S
C1060 C1063 1.511 . S
C1061 C1057 1.376 . S
C1061 C1060 1.392 . S
C1061 H1073 0.929 . S
C1062 C1058 1.531 . S
C1062 H1074 0.960 . S
C1062 H1075 0.962 . S
C1062 H1076 0.960 . S
C1063 C1060 1.511 . S
C1063 H1077 0.961 . S
C1063 H1078 0.961 . S
C1063 H1079 0.961 . S
C1064 C1065 1.370 . S
C1064 C1066 1.363 . S
C1064 H1080 0.931 . S
C1065 C1064 1.370 . S
C1065 C1069 1.408 . S
C1066 C1064 1.363 . S
C1066 C1067 1.370 . S
C1066 C1070 1.524 . S
C1067 C1059 1.503 . S
C1067 C1066 1.370 . S
C1067 C1068 1.403 . S
C1068 C1067 1.403 . S
C1068 C1069 1.404 . S
C1068 C1071 1.539 . S
C1069 C1065 1.408 . S
C1069 C1068 1.404 . S
C1069 H1081 0.930 . S
C1070 C1066 1.524 . S
C1070 H1082 0.956 . S
C1070 H1083 0.961 . S
C1070 H1084 0.961 . S
C1071 C1068 1.539 . S
C1071 H1085 0.958 . S
C1071 H1086 0.961 . S
C1071 H1087 0.960 . S
H1072 C1056 0.931 . S
H1073 C1061 0.929 . S
H1074 C1062 0.960 . S
H1075 C1062 0.962 . S
H1076 C1062 0.960 . S
H1077 C1063 0.961 . S
H1078 C1063 0.961 . S
H1079 C1063 0.961 . S
H1080 C1064 0.931 . S
H1081 C1069 0.930 . S
H1082 C1070 0.956 . S
H1083 C1070 0.961 . S
H1084 C1070 0.961 . S
H1085 C1071 0.958 . S
H1086 C1071 0.961 . S
H1087 C1071 0.960 . S
C1088 C1089 1.391 . S
C1088 C1090 1.394 . S
C1088 H1104 0.931 . S
C1089 C1088 1.391 . S
C1089 C1093 1.376 . S
C1090 C1088 1.394 . S
C1090 C1091 1.369 . S
C1090 C1094 1.531 . S
C1091 C1090 1.369 . S
C1091 C1092 1.410 . S
C1091 C1099 1.503 . S
C1092 C1091 1.410 . S
C1092 C1093 1.392 . S
C1092 C1095 1.511 . S
C1093 C1089 1.376 . S
C1093 C1092 1.392 . S
C1093 H1105 0.929 . S
C1094 C1090 1.531 . S
C1094 H1106 0.960 . S
C1094 H1107 0.962 . S
C1094 H1108 0.960 . S
C1095 C1092 1.511 . S
C1095 H1109 0.961 . S
C1095 H1110 0.961 . S
C1095 H1111 0.961 . S
C1096 C1097 1.370 . S
C1096 C1098 1.363 . S
C1096 H1112 0.931 . S
C1097 C1096 1.370 . S
C1097 C1101 1.408 . S
C1098 C1096 1.363 . S
C1098 C1099 1.370 . S
C1098 C1102 1.524 . S
C1099 C1091 1.503 . S
C1099 C1098 1.370 . S
C1099 C1100 1.403 . S
C1100 C1099 1.403 . S
C1100 C1101 1.404 . S
C1100 C1103 1.539 . S
C1101 C1097 1.408 . S
C1101 C1100 1.404 . S
C1101 H1113 0.930 . S
C1102 C1098 1.524 . S
C1102 H1114 0.956 . S
C1102 H1115 0.961 . S
C1102 H1116 0.961 . S
C1103 C1100 1.539 . S
C1103 H1117 0.958 . S
C1103 H1118 0.961 . S
C1103 H1119 0.960 . S
H1104 C1088 0.931 . S
H1105 C1093 0.929 . S
H1106 C1094 0.960 . S
H1107 C1094 0.962 . S
H1108 C1094 0.960 . S
H1109 C1095 0.961 . S
H1110 C1095 0.961 . S
H1111 C1095 0.961 . S
H1112 C1096 0.931 . S
H1113 C1101 0.930 . S
H1114 C1102 0.956 . S
H1115 C1102 0.961 . S
H1116 C1102 0.961 . S
H1117 C1103 0.958 . S
H1118 C1103 0.961 . S
H1119 C1103 0.960 . S
C1120 C1121 1.391 . S
C1120 C1122 1.394 . S
C1120 H1136 0.931 . S
C1121 C1120 1.391 . S
C1121 C1125 1.376 . S
C1122 C1120 1.394 . S
C1122 C1123 1.369 . S
C1122 C1126 1.531 . S
C1123 C1122 1.369 . S
C1123 C1124 1.410 . S
C1123 C1131 1.503 . S
C1124 C1123 1.410 . S
C1124 C1125 1.392 . S
C1124 C1127 1.511 . S
C1125 C1121 1.376 . S
C1125 C1124 1.392 . S
C1125 H1137 0.929 . S
C1126 C1122 1.531 . S
C1126 H1138 0.960 . S
C1126 H1139 0.962 . S
C1126 H1140 0.960 . S
C1127 C1124 1.511 . S
C1127 H1141 0.961 . S
C1127 H1142 0.961 . S
C1127 H1143 0.961 . S
C1128 C1129 1.370 . S
C1128 C1130 1.363 . S
C1128 H1144 0.931 . S
C1129 C1128 1.370 . S
C1129 C1133 1.408 . S
C1130 C1128 1.363 . S
C1130 C1131 1.370 . S
C1130 C1134 1.524 . S
C1131 C1123 1.503 . S
C1131 C1130 1.370 . S
C1131 C1132 1.403 . S
C1132 C1131 1.403 . S
C1132 C1133 1.404 . S
C1132 C1135 1.539 . S
C1133 C1129 1.408 . S
C1133 C1132 1.404 . S
C1133 H1145 0.930 . S
C1134 C1130 1.524 . S
C1134 H1146 0.956 . S
C1134 H1147 0.961 . S
C1134 H1148 0.961 . S
C1135 C1132 1.539 . S
C1135 H1149 0.958 . S
C1135 H1150 0.961 . S
C1135 H1151 0.960 . S
H1136 C1120 0.931 . S
H1137 C1125 0.929 . S
H1138 C1126 0.960 . S
H1139 C1126 0.962 . S
H1140 C1126 0.960 . S
H1141 C1127 0.961 . S
H1142 C1127 0.961 . S
H1143 C1127 0.961 . S
H1144 C1128 0.931 . S
H1145 C1133 0.930 . S
H1146 C1134 0.956 . S
H1147 C1134 0.961 . S
H1148 C1134 0.961 . S
H1149 C1135 0.958 . S
H1150 C1135 0.961 . S
H1151 C1135 0.960 . S
C1152 C1153 1.391 . S
C1152 C1154 1.394 . S
C1152 H1168 0.931 . S
C1153 C1152 1.391 . S
C1153 C1157 1.376 . S
C1154 C1152 1.394 . S
C1154 C1155 1.369 . S
C1154 C1158 1.531 . S
C1155 C1154 1.369 . S
C1155 C1156 1.410 . S
C1155 C1163 1.503 . S
C1156 C1155 1.410 . S
C1156 C1157 1.392 . S
C1156 C1159 1.511 . S
C1157 C1153 1.376 . S
C1157 C1156 1.392 . S
C1157 H1169 0.929 . S
C1158 C1154 1.531 . S
C1158 H1170 0.960 . S
C1158 H1171 0.962 . S
C1158 H1172 0.960 . S
C1159 C1156 1.511 . S
C1159 H1173 0.961 . S
C1159 H1174 0.961 . S
C1159 H1175 0.961 . S
C1160 C1161 1.370 . S
C1160 C1162 1.363 . S
C1160 H1176 0.931 . S
C1161 C1160 1.370 . S
C1161 C1165 1.408 . S
C1162 C1160 1.363 . S
C1162 C1163 1.370 . S
C1162 C1166 1.524 . S
C1163 C1155 1.503 . S
C1163 C1162 1.370 . S
C1163 C1164 1.403 . S
C1164 C1163 1.403 . S
C1164 C1165 1.404 . S
C1164 C1167 1.539 . S
C1165 C1161 1.408 . S
C1165 C1164 1.404 . S
C1165 H1177 0.930 . S
C1166 C1162 1.524 . S
C1166 H1178 0.956 . S
C1166 H1179 0.961 . S
C1166 H1180 0.961 . S
C1167 C1164 1.539 . S
C1167 H1181 0.958 . S
C1167 H1182 0.961 . S
C1167 H1183 0.960 . S
H1168 C1152 0.931 . S
H1169 C1157 0.929 . S
H1170 C1158 0.960 . S
H1171 C1158 0.962 . S
H1172 C1158 0.960 . S
H1173 C1159 0.961 . S
H1174 C1159 0.961 . S
H1175 C1159 0.961 . S
H1176 C1160 0.931 . S
H1177 C1165 0.930 . S
H1178 C1166 0.956 . S
H1179 C1166 0.961 . S
H1180 C1166 0.961 . S
H1181 C1167 0.958 . S
H1182 C1167 0.961 . S
H1183 C1167 0.960 . S
C1184 C1185 1.391 . S
C1184 C1186 1.394 . S
C1184 H1200 0.931 . S
C1185 C1184 1.391 . S
C1185 C1189 1.376 . S
C1186 C1184 1.394 . S
C1186 C1187 1.369 . S
C1186 C1190 1.531 . S
C1187 C1186 1.369 . S
C1187 C1188 1.410 . S
C1187 C1195 1.503 . S
C1188 C1187 1.410 . S
C1188 C1189 1.392 . S
C1188 C1191 1.511 . S
C1189 C1185 1.376 . S
C1189 C1188 1.392 . S
C1189 H1201 0.929 . S
C1190 C1186 1.531 . S
C1190 H1202 0.960 . S
C1190 H1203 0.962 . S
C1190 H1204 0.960 . S
C1191 C1188 1.511 . S
C1191 H1205 0.961 . S
C1191 H1206 0.961 . S
C1191 H1207 0.961 . S
C1192 C1193 1.370 . S
C1192 C1194 1.363 . S
C1192 H1208 0.931 . S
C1193 C1192 1.370 . S
C1193 C1197 1.408 . S
C1194 C1192 1.363 . S
C1194 C1195 1.370 . S
C1194 C1198 1.524 . S
C1195 C1187 1.503 . S
C1195 C1194 1.370 . S
C1195 C1196 1.403 . S
C1196 C1195 1.403 . S
C1196 C1197 1.404 . S
C1196 C1199 1.539 . S
C1197 C1193 1.408 . S
C1197 C1196 1.404 . S
C1197 H1209 0.930 . S
C1198 C1194 1.524 . S
C1198 H1210 0.956 . S
C1198 H1211 0.961 . S
C1198 H1212 0.961 . S
C1199 C1196 1.539 . S
C1199 H1213 0.958 . S
C1199 H1214 0.961 . S
C1199 H1215 0.960 . S
H1200 C1184 0.931 . S
H1201 C1189 0.929 . S
H1202 C1190 0.960 . S
H1203 C1190 0.962 . S
H1204 C1190 0.960 . S
H1205 C1191 0.961 . S
H1206 C1191 0.961 . S
H1207 C1191 0.961 . S
H1208 C1192 0.931 . S
H1209 C1197 0.930 . S
H1210 C1198 0.956 . S
H1211 C1198 0.961 . S
H1212 C1198 0.961 . S
H1213 C1199 0.958 . S
H1214 C1199 0.961 . S
H1215 C1199 0.960 . S
C1216 C1217 1.391 . S
C1216 C1218 1.394 . S
C1216 H1232 0.931 . S
C1217 C1216 1.391 . S
C1217 C1221 1.376 . S
C1218 C1216 1.394 . S
C1218 C1219 1.369 . S
C1218 C1222 1.531 . S
C1219 C1218 1.369 . S
C1219 C1220 1.410 . S
C1219 C1227 1.503 . S
C1220 C1219 1.410 . S
C1220 C1221 1.392 . S
C1220 C1223 1.511 . S
C1221 C1217 1.376 . S
C1221 C1220 1.392 . S
C1221 H1233 0.929 . S
C1222 C1218 1.531 . S
C1222 H1234 0.960 . S
C1222 H1235 0.962 . S
C1222 H1236 0.960 . S
C1223 C1220 1.511 . S
C1223 H1237 0.961 . S
C1223 H1238 0.961 . S
C1223 H1239 0.961 . S
C1224 C1225 1.370 . S
C1224 C1226 1.363 . S
C1224 H1240 0.931 . S
C1225 C1224 1.370 . S
C1225 C1229 1.408 . S
C1226 C1224 1.363 . S
C1226 C1227 1.370 . S
C1226 C1230 1.524 . S
C1227 C1219 1.503 . S
C1227 C1226 1.370 . S
C1227 C1228 1.403 . S
C1228 C1227 1.403 . S
C1228 C1229 1.404 . S
C1228 C1231 1.539 . S
C1229 C1225 1.408 . S
C1229 C1228 1.404 . S
C1229 H1241 0.930 . S
C1230 C1226 1.524 . S
C1230 H1242 0.956 . S
C1230 H1243 0.961 . S
C1230 H1244 0.961 . S
C1231 C1228 1.539 . S
C1231 H1245 0.958 . S
C1231 H1246 0.961 . S
C1231 H1247 0.960 . S
H1232 C1216 0.931 . S
H1233 C1221 0.929 . S
H1234 C1222 0.960 . S
H1235 C1222 0.962 . S
H1236 C1222 0.960 . S
H1237 C1223 0.961 . S
H1238 C1223 0.961 . S
H1239 C1223 0.961 . S
H1240 C1224 0.931 . S
H1241 C1229 0.930 . S
H1242 C1230 0.956 . S
H1243 C1230 0.961 . S
H1244 C1230 0.961 . S
H1245 C1231 0.958 . S
H1246 C1231 0.961 . S
H1247 C1231 0.960 . S
C1248 C1249 1.391 . S
C1248 C1250 1.394 . S
C1248 H1264 0.931 . S
C1249 C1248 1.391 . S
C1249 C1253 1.376 . S
C1250 C1248 1.394 . S
C1250 C1251 1.369 . S
C1250 C1254 1.531 . S
C1251 C1250 1.369 . S
C1251 C1252 1.410 . S
C1251 C1259 1.503 . S
C1252 C1251 1.410 . S
C1252 C1253 1.392 . S
C1252 C1255 1.511 . S
C1253 C1249 1.376 . S
C1253 C1252 1.392 . S
C1253 H1265 0.929 . S
C1254 C1250 1.531 . S
C1254 H1266 0.960 . S
C1254 H1267 0.962 . S
C1254 H1268 0.960 . S
C1255 C1252 1.511 . S
C1255 H1269 0.961 . S
C1255 H1270 0.961 . S
C1255 H1271 0.961 . S
C1256 C1257 1.370 . S
C1256 C1258 1.363 . S
C1256 H1272 0.931 . S
C1257 C1256 1.370 . S
C1257 C1261 1.408 . S
C1258 C1256 1.363 . S
C1258 C1259 1.370 . S
C1258 C1262 1.524 . S
C1259 C1251 1.503 . S
C1259 C1258 1.370 . S
C1259 C1260 1.403 . S
C1260 C1259 1.403 . S
C1260 C1261 1.404 . S
C1260 C1263 1.539 . S
C1261 C1257 1.408 . S
C1261 C1260 1.404 . S
C1261 H1273 0.930 . S
C1262 C1258 1.524 . S
C1262 H1274 0.956 . S
C1262 H1275 0.961 . S
C1262 H1276 0.961 . S
C1263 C1260 1.539 . S
C1263 H1277 0.958 . S
C1263 H1278 0.961 . S
C1263 H1279 0.960 . S
H1264 C1248 0.931 . S
H1265 C1253 0.929 . S
H1266 C1254 0.960 . S
H1267 C1254 0.962 . S
H1268 C1254 0.960 . S
H1269 C1255 0.961 . S
H1270 C1255 0.961 . S
H1271 C1255 0.961 . S
H1272 C1256 0.931 . S
H1273 C1261 0.930 . S
H1274 C1262 0.956 . S
H1275 C1262 0.961 . S
H1276 C1262 0.961 . S
H1277 C1263 0.958 . S
H1278 C1263 0.961 . S
H1279 C1263 0.960 . S
C1280 C1281 1.391 . S
C1280 C1282 1.394 . S
C1280 H1296 0.931 . S
C1281 C1280 1.391 . S
C1281 C1285 1.376 . S
C1282 C1280 1.394 . S
C1282 C1283 1.369 . S
C1282 C1286 1.531 . S
C1283 C1282 1.369 . S
C1283 C1284 1.410 . S
C1283 C1291 1.503 . S
C1284 C1283 1.410 . S
C1284 C1285 1.392 . S
C1284 C1287 1.511 . S
C1285 C1281 1.376 . S
C1285 C1284 1.392 . S
C1285 H1297 0.929 . S
C1286 C1282 1.531 . S
C1286 H1298 0.960 . S
C1286 H1299 0.962 . S
C1286 H1300 0.960 . S
C1287 C1284 1.511 . S
C1287 H1301 0.961 . S
C1287 H1302 0.961 . S
C1287 H1303 0.961 . S
C1288 C1289 1.370 . S
C1288 C1290 1.363 . S
C1288 H1304 0.931 . S
C1289 C1288 1.370 . S
C1289 C1293 1.408 . S
C1290 C1288 1.363 . S
C1290 C1291 1.370 . S
C1290 C1294 1.524 . S
C1291 C1283 1.503 . S
C1291 C1290 1.370 . S
C1291 C1292 1.403 . S
C1292 C1291 1.403 . S
C1292 C1293 1.404 . S
C1292 C1295 1.539 . S
C1293 C1289 1.408 . S
C1293 C1292 1.404 . S
C1293 H1305 0.930 . S
C1294 C1290 1.524 . S
C1294 H1306 0.956 . S
C1294 H1307 0.961 . S
C1294 H1308 0.961 . S
C1295 C1292 1.539 . S
C1295 H1309 0.958 . S
C1295 H1310 0.961 . S
C1295 H1311 0.960 . S
H1296 C1280 0.931 . S
H1297 C1285 0.929 . S
H1298 C1286 0.960 . S
H1299 C1286 0.962 . S
H1300 C1286 0.960 . S
H1301 C1287 0.961 . S
H1302 C1287 0.961 . S
H1303 C1287 0.961 . S
H1304 C1288 0.931 . S
H1305 C1293 0.930 . S
H1306 C1294 0.956 . S
H1307 C1294 0.961 . S
H1308 C1294 0.961 . S
H1309 C1295 0.958 . S
H1310 C1295 0.961 . S
H1311 C1295 0.960 . S
C1312 C1313 1.391 . S
C1312 C1314 1.394 . S
C1312 H1328 0.931 . S
C1313 C1312 1.391 . S
C1313 C1317 1.376 . S
C1314 C1312 1.394 . S
C1314 C1315 1.369 . S
C1314 C1318 1.531 . S
C1315 C1314 1.369 . S
C1315 C1316 1.410 . S
C1315 C1323 1.503 . S
C1316 C1315 1.410 . S
C1316 C1317 1.392 . S
C1316 C1319 1.511 . S
C1317 C1313 1.376 . S
C1317 C1316 1.392 . S
C1317 H1329 0.929 . S
C1318 C1314 1.531 . S
C1318 H1330 0.960 . S
C1318 H1331 0.962 . S
C1318 H1332 0.960 . S
C1319 C1316 1.511 . S
C1319 H1333 0.961 . S
C1319 H1334 0.961 . S
C1319 H1335 0.961 . S
C1320 C1321 1.370 . S
C1320 C1322 1.363 . S
C1320 H1336 0.931 . S
C1321 C1320 1.370 . S
C1321 C1325 1.408 . S
C1322 C1320 1.363 . S
C1322 C1323 1.370 . S
C1322 C1326 1.524 . S
C1323 C1315 1.503 . S
C1323 C1322 1.370 . S
C1323 C1324 1.403 . S
C1324 C1323 1.403 . S
C1324 C1325 1.404 . S
C1324 C1327 1.539 . S
C1325 C1321 1.408 . S
C1325 C1324 1.404 . S
C1325 H1337 0.930 . S
C1326 C1322 1.524 . S
C1326 H1338 0.956 . S
C1326 H1339 0.961 . S
C1326 H1340 0.961 . S
C1327 C1324 1.539 . S
C1327 H1341 0.958 . S
C1327 H1342 0.961 . S
C1327 H1343 0.960 . S
H1328 C1312 0.931 . S
H1329 C1317 0.929 . S
H1330 C1318 0.960 . S
H1331 C1318 0.962 . S
H1332 C1318 0.960 . S
H1333 C1319 0.961 . S
H1334 C1319 0.961 . S
H1335 C1319 0.961 . S
H1336 C1320 0.931 . S
H1337 C1325 0.930 . S
H1338 C1326 0.956 . S
H1339 C1326 0.961 . S
H1340 C1326 0.961 . S
H1341 C1327 0.958 . S
H1342 C1327 0.961 . S
H1343 C1327 0.960 . S
C1344 C1345 1.391 . S
C1344 C1346 1.394 . S
C1344 H1360 0.931 . S
C1345 C1344 1.391 . S
C1345 C1349 1.376 . S
C1346 C1344 1.394 . S
C1346 C1347 1.369 . S
C1346 C1350 1.531 . S
C1347 C1346 1.369 . S
C1347 C1348 1.410 . S
C1347 C1355 1.503 . S
C1348 C1347 1.410 . S
C1348 C1349 1.392 . S
C1348 C1351 1.511 . S
C1349 C1345 1.376 . S
C1349 C1348 1.392 . S
C1349 H1361 0.929 . S
C1350 C1346 1.531 . S
C1350 H1362 0.960 . S
C1350 H1363 0.962 . S
C1350 H1364 0.960 . S
C1351 C1348 1.511 . S
C1351 H1365 0.961 . S
C1351 H1366 0.961 . S
C1351 H1367 0.961 . S
C1352 C1353 1.370 . S
C1352 C1354 1.363 . S
C1352 H1368 0.931 . S
C1353 C1352 1.370 . S
C1353 C1357 1.408 . S
C1354 C1352 1.363 . S
C1354 C1355 1.370 . S
C1354 C1358 1.524 . S
C1355 C1347 1.503 . S
C1355 C1354 1.370 . S
C1355 C1356 1.403 . S
C1356 C1355 1.403 . S
C1356 C1357 1.404 . S
C1356 C1359 1.539 . S
C1357 C1353 1.408 . S
C1357 C1356 1.404 . S
C1357 H1369 0.930 . S
C1358 C1354 1.524 . S
C1358 H1370 0.956 . S
C1358 H1371 0.961 . S
C1358 H1372 0.961 . S
C1359 C1356 1.539 . S
C1359 H1373 0.958 . S
C1359 H1374 0.961 . S
C1359 H1375 0.960 . S
H1360 C1344 0.931 . S
H1361 C1349 0.929 . S
H1362 C1350 0.960 . S
H1363 C1350 0.962 . S
H1364 C1350 0.960 . S
H1365 C1351 0.961 . S
H1366 C1351 0.961 . S
H1367 C1351 0.961 . S
H1368 C1352 0.931 . S
H1369 C1357 0.930 . S
H1370 C1358 0.956 . S
H1371 C1358 0.961 . S
H1372 C1358 0.961 . S
H1373 C1359 0.958 . S
H1374 C1359 0.961 . S
H1375 C1359 0.960 . S
C1376 C1377 1.391 . S
C1376 C1378 1.394 . S
C1376 H1392 0.931 . S
C1377 C1376 1.391 . S
C1377 C1381 1.376 . S
C1378 C1376 1.394 . S
C1378 C1379 1.369 . S
C1378 C1382 1.531 . S
C1379 C1378 1.369 . S
C1379 C1380 1.410 . S
C1379 C1387 1.503 . S
C1380 C1379 1.410 . S
C1380 C1381 1.392 . S
C1380 C1383 1.511 . S
C1381 C1377 1.376 . S
C1381 C1380 1.392 . S
C1381 H1393 0.929 . S
C1382 C1378 1.531 . S
C1382 H1394 0.960 . S
C1382 H1395 0.962 . S
C1382 H1396 0.960 . S
C1383 C1380 1.511 . S
C1383 H1397 0.961 . S
C1383 H1398 0.961 . S
C1383 H1399 0.961 . S
C1384 C1385 1.370 . S
C1384 C1386 1.363 . S
C1384 H1400 0.931 . S
C1385 C1384 1.370 . S
C1385 C1389 1.408 . S
C1386 C1384 1.363 . S
C1386 C1387 1.370 . S
C1386 C1390 1.524 . S
C1387 C1379 1.503 . S
C1387 C1386 1.370 . S
C1387 C1388 1.403 . S
C1388 C1387 1.403 . S
C1388 C1389 1.404 . S
C1388 C1391 1.539 . S
C1389 C1385 1.408 . S
C1389 C1388 1.404 . S
C1389 H1401 0.930 . S
C1390 C1386 1.524 . S
C1390 H1402 0.956 . S
C1390 H1403 0.961 . S
C1390 H1404 0.961 . S
C1391 C1388 1.539 . S
C1391 H1405 0.958 . S
C1391 H1406 0.961 . S
C1391 H1407 0.960 . S
H1392 C1376 0.931 . S
H1393 C1381 0.929 . S
H1394 C1382 0.960 . S
H1395 C1382 0.962 . S
H1396 C1382 0.960 . S
H1397 C1383 0.961 . S
H1398 C1383 0.961 . S
H1399 C1383 0.961 . S
H1400 C1384 0.931 . S
H1401 C1389 0.930 . S
H1402 C1390 0.956 . S
H1403 C1390 0.961 . S
H1404 C1390 0.961 . S
H1405 C1391 0.958 . S
H1406 C1391 0.961 . S
H1407 C1391 0.960 . S
C1408 C1409 1.391 . S
C1408 C1410 1.394 . S
C1408 H1424 0.931 . S
C1409 C1408 1.391 . S
C1409 C1413 1.376 . S
C1410 C1408 1.394 . S
C1410 C1411 1.369 . S
C1410 C1414 1.531 . S
C1411 C1410 1.369 . S
C1411 C1412 1.410 . S
C1411 C1419 1.503 . S
C1412 C1411 1.410 . S
C1412 C1413 1.392 . S
C1412 C1415 1.511 . S
C1413 C1409 1.376 . S
C1413 C1412 1.392 . S
C1413 H1425 0.929 . S
C1414 C1410 1.531 . S
C1414 H1426 0.960 . S
C1414 H1427 0.962 . S
C1414 H1428 0.960 . S
C1415 C1412 1.511 . S
C1415 H1429 0.961 . S
C1415 H1430 0.961 . S
C1415 H1431 0.961 . S
C1416 C1417 1.370 . S
C1416 C1418 1.363 . S
C1416 H1432 0.931 . S
C1417 C1416 1.370 . S
C1417 C1421 1.408 . S
C1418 C1416 1.363 . S
C1418 C1419 1.370 . S
C1418 C1422 1.524 . S
C1419 C1411 1.503 . S
C1419 C1418 1.370 . S
C1419 C1420 1.403 . S
C1420 C1419 1.403 . S
C1420 C1421 1.404 . S
C1420 C1423 1.539 . S
C1421 C1417 1.408 . S
C1421 C1420 1.404 . S
C1421 H1433 0.930 . S
C1422 C1418 1.524 . S
C1422 H1434 0.956 . S
C1422 H1435 0.961 . S
C1422 H1436 0.961 . S
C1423 C1420 1.539 . S
C1423 H1437 0.958 . S
C1423 H1438 0.961 . S
C1423 H1439 0.960 . S
H1424 C1408 0.931 . S
H1425 C1413 0.929 . S
H1426 C1414 0.960 . S
H1427 C1414 0.962 . S
H1428 C1414 0.960 . S
H1429 C1415 0.961 . S
H1430 C1415 0.961 . S
H1431 C1415 0.961 . S
H1432 C1416 0.931 . S
H1433 C1421 0.930 . S
H1434 C1422 0.956 . S
H1435 C1422 0.961 . S
H1436 C1422 0.961 . S
H1437 C1423 0.958 . S
H1438 C1423 0.961 . S
H1439 C1423 0.960 . S
C1440 C1441 1.391 . S
C1440 C1442 1.394 . S
C1440 H1456 0.931 . S
C1441 C1440 1.391 . S
C1441 C1445 1.376 . S
C1442 C1440 1.394 . S
C1442 C1443 1.369 . S
C1442 C1446 1.531 . S
C1443 C1442 1.369 . S
C1443 C1444 1.410 . S
C1443 C1451 1.503 . S
C1444 C1443 1.410 . S
C1444 C1445 1.392 . S
C1444 C1447 1.511 . S
C1445 C1441 1.376 . S
C1445 C1444 1.392 . S
C1445 H1457 0.929 . S
C1446 C1442 1.531 . S
C1446 H1458 0.960 . S
C1446 H1459 0.962 . S
C1446 H1460 0.960 . S
C1447 C1444 1.511 . S
C1447 H1461 0.961 . S
C1447 H1462 0.961 . S
C1447 H1463 0.961 . S
C1448 C1449 1.370 . S
C1448 C1450 1.363 . S
C1448 H1464 0.931 . S
C1449 C1448 1.370 . S
C1449 C1453 1.408 . S
C1450 C1448 1.363 . S
C1450 C1451 1.370 . S
C1450 C1454 1.524 . S
C1451 C1443 1.503 . S
C1451 C1450 1.370 . S
C1451 C1452 1.403 . S
C1452 C1451 1.403 . S
C1452 C1453 1.404 . S
C1452 C1455 1.539 . S
C1453 C1449 1.408 . S
C1453 C1452 1.404 . S
C1453 H1465 0.930 . S
C1454 C1450 1.524 . S
C1454 H1466 0.956 . S
C1454 H1467 0.961 . S
C1454 H1468 0.961 . S
C1455 C1452 1.539 . S
C1455 H1469 0.958 . S
C1455 H1470 0.961 . S
C1455 H1471 0.960 . S
H1456 C1440 0.931 . S
H1457 C1445 0.929 . S
H1458 C1446 0.960 . S
H1459 C1446 0.962 . S
H1460 C1446 0.960 . S
H1461 C1447 0.961 . S
H1462 C1447 0.961 . S
H1463 C1447 0.961 . S
H1464 C1448 0.931 . S
H1465 C1453 0.930 . S
H1466 C1454 0.956 . S
H1467 C1454 0.961 . S
H1468 C1454 0.961 . S
H1469 C1455 0.958 . S
H1470 C1455 0.961 . S
H1471 C1455 0.960 . S
C1472 C1473 1.391 . S
C1472 C1474 1.394 . S
C1472 H1488 0.931 . S
C1473 C1472 1.391 . S
C1473 C1477 1.376 . S
C1474 C1472 1.394 . S
C1474 C1475 1.369 . S
C1474 C1478 1.531 . S
C1475 C1474 1.369 . S
C1475 C1476 1.410 . S
C1475 C1483 1.503 . S
C1476 C1475 1.410 . S
C1476 C1477 1.392 . S
C1476 C1479 1.511 . S
C1477 C1473 1.376 . S
C1477 C1476 1.392 . S
C1477 H1489 0.929 . S
C1478 C1474 1.531 . S
C1478 H1490 0.960 . S
C1478 H1491 0.962 . S
C1478 H1492 0.960 . S
C1479 C1476 1.511 . S
C1479 H1493 0.961 . S
C1479 H1494 0.961 . S
C1479 H1495 0.961 . S
C1480 C1481 1.370 . S
C1480 C1482 1.363 . S
C1480 H1496 0.931 . S
C1481 C1480 1.370 . S
C1481 C1485 1.408 . S
C1482 C1480 1.363 . S
C1482 C1483 1.370 . S
C1482 C1486 1.524 . S
C1483 C1475 1.503 . S
C1483 C1482 1.370 . S
C1483 C1484 1.403 . S
C1484 C1483 1.403 . S
C1484 C1485 1.404 . S
C1484 C1487 1.539 . S
C1485 C1481 1.408 . S
C1485 C1484 1.404 . S
C1485 H1497 0.930 . S
C1486 C1482 1.524 . S
C1486 H1498 0.956 . S
C1486 H1499 0.961 . S
C1486 H1500 0.961 . S
C1487 C1484 1.539 . S
C1487 H1501 0.958 . S
C1487 H1502 0.961 . S
C1487 H1503 0.960 . S
H1488 C1472 0.931 . S
H1489 C1477 0.929 . S
H1490 C1478 0.960 . S
H1491 C1478 0.962 . S
H1492 C1478 0.960 . S
H1493 C1479 0.961 . S
H1494 C1479 0.961 . S
H1495 C1479 0.961 . S
H1496 C1480 0.931 . S
H1497 C1485 0.930 . S
H1498 C1486 0.956 . S
H1499 C1486 0.961 . S
H1500 C1486 0.961 . S
H1501 C1487 0.958 . S
H1502 C1487 0.961 . S
H1503 C1487 0.960 . S
C1504 C1505 1.391 . S
C1504 C1506 1.394 . S
C1504 H1520 0.931 . S
C1505 C1504 1.391 . S
C1505 C1509 1.376 . S
C1506 C1504 1.394 . S
C1506 C1507 1.369 . S
C1506 C1510 1.531 . S
C1507 C1506 1.369 . S
C1507 C1508 1.410 . S
C1507 C1515 1.503 . S
C1508 C1507 1.410 . S
C1508 C1509 1.392 . S
C1508 C1511 1.511 . S
C1509 C1505 1.376 . S
C1509 C1508 1.392 . S
C1509 H1521 0.929 . S
C1510 C1506 1.531 . S
C1510 H1522 0.960 . S
C1510 H1523 0.962 . S
C1510 H1524 0.960 . S
C1511 C1508 1.511 . S
C1511 H1525 0.961 . S
C1511 H1526 0.961 . S
C1511 H1527 0.961 . S
C1512 C1513 1.370 . S
C1512 C1514 1.363 . S
C1512 H1528 0.931 . S
C1513 C1512 1.370 . S
C1513 C1517 1.408 . S
C1514 C1512 1.363 . S
C1514 C1515 1.370 . S
C1514 C1518 1.524 . S
C1515 C1507 1.503 . S
C1515 C1514 1.370 . S
C1515 C1516 1.403 . S
C1516 C1515 1.403 . S
C1516 C1517 1.404 . S
C1516 C1519 1.539 . S
C1517 C1513 1.408 . S
C1517 C1516 1.404 . S
C1517 H1529 0.930 . S
C1518 C1514 1.524 . S
C1518 H1530 0.956 . S
C1518 H1531 0.961 . S
C1518 H1532 0.961 . S
C1519 C1516 1.539 . S
C1519 H1533 0.958 . S
C1519 H1534 0.961 . S
C1519 H1535 0.960 . S
H1520 C1504 0.931 . S
H1521 C1509 0.929 . S
H1522 C1510 0.960 . S
H1523 C1510 0.962 . S
H1524 C1510 0.960 . S
H1525 C1511 0.961 . S
H1526 C1511 0.961 . S
H1527 C1511 0.961 . S
H1528 C1512 0.931 . S
H1529 C1517 0.930 . S
H1530 C1518 0.956 . S
H1531 C1518 0.961 . S
H1532 C1518 0.961 . S
H1533 C1519 0.958 . S
H1534 C1519 0.961 . S
H1535 C1519 0.960 . S
C1536 C1537 1.391 . S
C1536 C1538 1.394 . S
C1536 H1552 0.931 . S
C1537 C1536 1.391 . S
C1537 C1541 1.376 . S
C1538 C1536 1.394 . S
C1538 C1539 1.369 . S
C1538 C1542 1.531 . S
C1539 C1538 1.369 . S
C1539 C1540 1.410 . S
C1539 C1547 1.503 . S
C1540 C1539 1.410 . S
C1540 C1541 1.392 . S
C1540 C1543 1.511 . S
C1541 C1537 1.376 . S
C1541 C1540 1.392 . S
C1541 H1553 0.929 . S
C1542 C1538 1.531 . S
C1542 H1554 0.960 . S
C1542 H1555 0.962 . S
C1542 H1556 0.960 . S
C1543 C1540 1.511 . S
C1543 H1557 0.961 . S
C1543 H1558 0.961 . S
C1543 H1559 0.961 . S
C1544 C1545 1.370 . S
C1544 C1546 1.363 . S
C1544 H1560 0.931 . S
C1545 C1544 1.370 . S
C1545 C1549 1.408 . S
C1546 C1544 1.363 . S
C1546 C1547 1.370 . S
C1546 C1550 1.524 . S
C1547 C1539 1.503 . S
C1547 C1546 1.370 . S
C1547 C1548 1.403 . S
C1548 C1547 1.403 . S
C1548 C1549 1.404 . S
C1548 C1551 1.539 . S
C1549 C1545 1.408 . S
C1549 C1548 1.404 . S
C1549 H1561 0.930 . S
C1550 C1546 1.524 . S
C1550 H1562 0.956 . S
C1550 H1563 0.961 . S
C1550 H1564 0.961 . S
C1551 C1548 1.539 . S
C1551 H1565 0.958 . S
C1551 H1566 0.961 . S
C1551 H1567 0.960 . S
H1552 C1536 0.931 . S
H1553 C1541 0.929 . S
H1554 C1542 0.960 . S
H1555 C1542 0.962 . S
H1556 C1542 0.960 . S
H1557 C1543 0.961 . S
H1558 C1543 0.961 . S
H1559 C1543 0.961 . S
H1560 C1544 0.931 . S
H1561 C1549 0.930 . S
H1562 C1550 0.956 . S
H1563 C1550 0.961 . S
H1564 C1550 0.961 . S
H1565 C1551 0.958 . S
H1566 C1551 0.961 . S
H1567 C1551 0.960 . S
C1568 C1569 1.391 . S
C1568 C1570 1.394 . S
C1568 H1584 0.931 . S
C1569 C1568 1.391 . S
C1569 C1573 1.376 . S
C1570 C1568 1.394 . S
C1570 C1571 1.369 . S
C1570 C1574 1.531 . S
C1571 C1570 1.369 . S
C1571 C1572 1.410 . S
C1571 C1579 1.503 . S
C1572 C1571 1.410 . S
C1572 C1573 1.392 . S
C1572 C1575 1.511 . S
C1573 C1569 1.376 . S
C1573 C1572 1.392 . S
C1573 H1585 0.929 . S
C1574 C1570 1.531 . S
C1574 H1586 0.960 . S
C1574 H1587 0.962 . S
C1574 H1588 0.960 . S
C1575 C1572 1.511 . S
C1575 H1589 0.961 . S
C1575 H1590 0.961 . S
C1575 H1591 0.961 . S
C1576 C1577 1.370 . S
C1576 C1578 1.363 . S
C1576 H1592 0.931 . S
C1577 C1576 1.370 . S
C1577 C1581 1.408 . S
C1578 C1576 1.363 . S
C1578 C1579 1.370 . S
C1578 C1582 1.524 . S
C1579 C1571 1.503 . S
C1579 C1578 1.370 . S
C1579 C1580 1.403 . S
C1580 C1579 1.403 . S
C1580 C1581 1.404 . S
C1580 C1583 1.539 . S
C1581 C1577 1.408 . S
C1581 C1580 1.404 . S
C1581 H1593 0.930 . S
C1582 C1578 1.524 . S
C1582 H1594 0.956 . S
C1582 H1595 0.961 . S
C1582 H1596 0.961 . S
C1583 C1580 1.539 . S
C1583 H1597 0.958 . S
C1583 H1598 0.961 . S
C1583 H1599 0.960 . S
H1584 C1568 0.931 . S
H1585 C1573 0.929 . S
H1586 C1574 0.960 . S
H1587 C1574 0.962 . S
H1588 C1574 0.960 . S
H1589 C1575 0.961 . S
H1590 C1575 0.961 . S
H1591 C1575 0.961 . S
H1592 C1576 0.931 . S
H1593 C1581 0.930 . S
H1594 C1582 0.956 . S
H1595 C1582 0.961 . S
H1596 C1582 0.961 . S
H1597 C1583 0.958 . S
H1598 C1583 0.961 . S
H1599 C1583 0.960 . S
C1600 C1601 1.391 . S
C1600 C1602 1.394 . S
C1600 H1616 0.931 . S
C1601 C1600 1.391 . S
C1601 C1605 1.376 . S
C1602 C1600 1.394 . S
C1602 C1603 1.369 . S
C1602 C1606 1.531 . S
C1603 C1602 1.369 . S
C1603 C1604 1.410 . S
C1603 C1611 1.503 . S
C1604 C1603 1.410 . S
C1604 C1605 1.392 . S
C1604 C1607 1.511 . S
C1605 C1601 1.376 . S
C1605 C1604 1.392 . S
C1605 H1617 0.929 . S
C1606 C1602 1.531 . S
C1606 H1618 0.960 . S
C1606 H1619 0.962 . S
C1606 H1620 0.960 . S
C1607 C1604 1.511 . S
C1607 H1621 0.961 . S
C1607 H1622 0.961 . S
C1607 H1623 0.961 . S
C1608 C1609 1.370 . S
C1608 C1610 1.363 . S
C1608 H1624 0.931 . S
C1609 C1608 1.370 . S
C1609 C1613 1.408 . S
C1610 C1608 1.363 . S
C1610 C1611 1.370 . S
C1610 C1614 1.524 . S
C1611 C1603 1.503 . S
C1611 C1610 1.370 . S
C1611 C1612 1.403 . S
C1612 C1611 1.403 . S
C1612 C1613 1.404 . S
C1612 C1615 1.539 . S
C1613 C1609 1.408 . S
C1613 C1612 1.404 . S
C1613 H1625 0.930 . S
C1614 C1610 1.524 . S
C1614 H1626 0.956 . S
C1614 H1627 0.961 . S
C1614 H1628 0.961 . S
C1615 C1612 1.539 . S
C1615 H1629 0.958 . S
C1615 H1630 0.961 . S
C1615 H1631 0.960 . S
H1616 C1600 0.931 . S
H1617 C1605 0.929 . S
H1618 C1606 0.960 . S
H1619 C1606 0.962 . S
H1620 C1606 0.960 . S
H1621 C1607 0.961 . S
H1622 C1607 0.961 . S
H1623 C1607 0.961 . S
H1624 C1608 0.931 . S
H1625 C1613 0.930 . S
H1626 C1614 0.956 . S
H1627 C1614 0.961 . S
H1628 C1614 0.961 . S
H1629 C1615 0.958 . S
H1630 C1615 0.961 . S
H1631 C1615 0.960 . S
C1632 C1633 1.391 . S
C1632 C1634 1.394 . S
C1632 H1648 0.931 . S
C1633 C1632 1.391 . S
C1633 C1637 1.376 . S
C1634 C1632 1.394 . S
C1634 C1635 1.369 . S
C1634 C1638 1.531 . S
C1635 C1634 1.369 . S
C1635 C1636 1.410 . S
C1635 C1643 1.503 . S
C1636 C1635 1.410 . S
C1636 C1637 1.392 . S
C1636 C1639 1.511 . S
C1637 C1633 1.376 . S
C1637 C1636 1.392 . S
C1637 H1649 0.929 . S
C1638 C1634 1.531 . S
C1638 H1650 0.960 . S
C1638 H1651 0.962 . S
C1638 H1652 0.960 . S
C1639 C1636 1.511 . S
C1639 H1653 0.961 . S
C1639 H1654 0.961 . S
C1639 H1655 0.961 . S
C1640 C1641 1.370 . S
C1640 C1642 1.363 . S
C1640 H1656 0.931 . S
C1641 C1640 1.370 . S
C1641 C1645 1.408 . S
C1642 C1640 1.363 . S
C1642 C1643 1.370 . S
C1642 C1646 1.524 . S
C1643 C1635 1.503 . S
C1643 C1642 1.370 . S
C1643 C1644 1.403 . S
C1644 C1643 1.403 . S
C1644 C1645 1.404 . S
C1644 C1647 1.539 . S
C1645 C1641 1.408 . S
C1645 C1644 1.404 . S
C1645 H1657 0.930 . S
C1646 C1642 1.524 . S
C1646 H1658 0.956 . S
C1646 H1659 0.961 . S
C1646 H1660 0.961 . S
C1647 C1644 1.539 . S
C1647 H1661 0.958 . S
C1647 H1662 0.961 . S
C1647 H1663 0.960 . S
H1648 C1632 0.931 . S
H1649 C1637 0.929 . S
H1650 C1638 0.960 . S
H1651 C1638 0.962 . S
H1652 C1638 0.960 . S
H1653 C1639 0.961 . S
H1654 C1639 0.961 . S
H1655 C1639 0.961 . S
H1656 C1640 0.931 . S
H1657 C1645 0.930 . S
H1658 C1646 0.956 . S
H1659 C1646 0.961 . S
H1660 C1646 0.961 . S
H1661 C1647 0.958 . S
H1662 C1647 0.961 . S
H1663 C1647 0.960 . S
C1664 C1665 1.391 . S
C1664 C1666 1.394 . S
C1664 H1680 0.931 . S
C1665 C1664 1.391 . S
C1665 C1669 1.376 . S
C1666 C1664 1.394 . S
C1666 C1667 1.369 . S
C1666 C1670 1.531 . S
C1667 C1666 1.369 . S
C1667 C1668 1.410 . S
C1667 C1675 1.503 . S
C1668 C1667 1.410 . S
C1668 C1669 1.392 . S
C1668 C1671 1.511 . S
C1669 C1665 1.376 . S
C1669 C1668 1.392 . S
C1669 H1681 0.929 . S
C1670 C1666 1.531 . S
C1670 H1682 0.960 . S
C1670 H1683 0.962 . S
C1670 H1684 0.960 . S
C1671 C1668 1.511 . S
C1671 H1685 0.961 . S
C1671 H1686 0.961 . S
C1671 H1687 0.961 . S
C1672 C1673 1.370 . S
C1672 C1674 1.363 . S
C1672 H1688 0.931 . S
C1673 C1672 1.370 . S
C1673 C1677 1.408 . S
C1674 C1672 1.363 . S
C1674 C1675 1.370 . S
C1674 C1678 1.524 . S
C1675 C1667 1.503 . S
C1675 C1674 1.370 . S
C1675 C1676 1.403 . S
C1676 C1675 1.403 . S
C1676 C1677 1.404 . S
C1676 C1679 1.539 . S
C1677 C1673 1.408 . S
C1677 C1676 1.404 . S
C1677 H1689 0.930 . S
C1678 C1674 1.524 . S
C1678 H1690 0.956 . S
C1678 H1691 0.961 . S
C1678 H1692 0.961 . S
C1679 C1676 1.539 . S
C1679 H1693 0.958 . S
C1679 H1694 0.961 . S
C1679 H1695 0.960 . S
H1680 C1664 0.931 . S
H1681 C1669 0.929 . S
H1682 C1670 0.960 . S
H1683 C1670 0.962 . S
H1684 C1670 0.960 . S
H1685 C1671 0.961 . S
H1686 C1671 0.961 . S
H1687 C1671 0.961 . S
H1688 C1672 0.931 . S
H1689 C1677 0.930 . S
H1690 C1678 0.956 . S
H1691 C1678 0.961 . S
H1692 C1678 0.961 . S
H1693 C1679 0.958 . S
H1694 C1679 0.961 . S
H1695 C1679 0.960 . S
C1696 C1697 1.391 . S
C1696 C1698 1.394 . S
C1696 H1712 0.931 . S
C1697 C1696 1.391 . S
C1697 C1701 1.376 . S
C1698 C1696 1.394 . S
C1698 C1699 1.369 . S
C1698 C1702 1.531 . S
C1699 C1698 1.369 . S
C1699 C1700 1.410 . S
C1699 C1707 1.503 . S
C1700 C1699 1.410 . S
C1700 C1701 1.392 . S
C1700 C1703 1.511 . S
C1701 C1697 1.376 . S
C1701 C1700 1.392 . S
C1701 H1713 0.929 . S
C1702 C1698 1.531 . S
C1702 H1714 0.960 . S
C1702 H1715 0.962 . S
C1702 H1716 0.960 . S
C1703 C1700 1.511 . S
C1703 H1717 0.961 . S
C1703 H1718 0.961 . S
C1703 H1719 0.961 . S
C1704 C1705 1.370 . S
C1704 C1706 1.363 . S
C1704 H1720 0.931 . S
C1705 C1704 1.370 . S
C1705 C1709 1.408 . S
C1706 C1704 1.363 . S
C1706 C1707 1.370 . S
C1706 C1710 1.524 . S
C1707 C1699 1.503 . S
C1707 C1706 1.370 . S
C1707 C1708 1.403 . S
C1708 C1707 1.403 . S
C1708 C1709 1.404 . S
C1708 C1711 1.539 . S
C1709 C1705 1.408 . S
C1709 C1708 1.404 . S
C1709 H1721 0.930 . S
C1710 C1706 1.524 . S
C1710 H1722 0.956 . S
C1710 H1723 0.961 . S
C1710 H1724 0.961 . S
C1711 C1708 1.539 . S
C1711 H1725 0.958 . S
C1711 H1726 0.961 . S
C1711 H1727 0.960 . S
H1712 C1696 0.931 . S
H1713 C1701 0.929 . S
H1714 C1702 0.960 . S
H1715 C1702 0.962 . S
H1716 C1702 0.960 . S
H1717 C1703 0.961 . S
H1718 C1703 0.961 . S
H1719 C1703 0.961 . S
H1720 C1704 0.931 . S
H1721 C1709 0.930 . S
H1722 C1710 0.956 . S
H1723 C1710 0.961 . S
H1724 C1710 0.961 . S
H1725 C1711 0.958 . S
H1726 C1711 0.961 . S
H1727 C1711 0.960 . S
C1728 C1729 1.391 . S
C1728 C1730 1.394 . S
C1728 H1744 0.931 . S
C1729 C1728 1.391 . S
C1729 C1733 1.376 . S
C1730 C1728 1.394 . S
C1730 C1731 1.369 . S
C1730 C1734 1.531 . S
C1731 C1730 1.369 . S
C1731 C1732 1.410 . S
C1731 C1739 1.503 . S
C1732 C1731 1.410 . S
C1732 C1733 1.392 . S
C1732 C1735 1.511 . S
C1733 C1729 1.376 . S
C1733 C1732 1.392 . S
C1733 H1745 0.929 . S
C1734 C1730 1.531 . S
C1734 H1746 0.960 . S
C1734 H1747 0.962 . S
C1734 H1748 0.960 . S
C1735 C1732 1.511 . S
C1735 H1749 0.961 . S
C1735 H1750 0.961 . S
C1735 H1751 0.961 . S
C1736 C1737 1.370 . S
C1736 C1738 1.363 . S
C1736 H1752 0.931 . S
C1737 C1736 1.370 . S
C1737 C1741 1.408 . S
C1738 C1736 1.363 . S
C1738 C1739 1.370 . S
C1738 C1742 1.524 . S
C1739 C1731 1.503 . S
C1739 C1738 1.370 . S
C1739 C1740 1.403 . S
C1740 C1739 1.403 . S
C1740 C1741 1.404 . S
C1740 C1743 1.539 . S
C1741 C1737 1.408 . S
C1741 C1740 1.404 . S
C1741 H1753 0.930 . S
C1742 C1738 1.524 . S
C1742 H1754 0.956 . S
C1742 H1755 0.961 . S
C1742 H1756 0.961 . S
C1743 C1740 1.539 . S
C1743 H1757 0.958 . S
C1743 H1758 0.961 . S
C1743 H1759 0.960 . S
H1744 C1728 0.931 . S
H1745 C1733 0.929 . S
H1746 C1734 0.960 . S
H1747 C1734 0.962 . S
H1748 C1734 0.960 . S
H1749 C1735 0.961 . S
H1750 C1735 0.961 . S
H1751 C1735 0.961 . S
H1752 C1736 0.931 . S
H1753 C1741 0.930 . S
H1754 C1742 0.956 . S
H1755 C1742 0.961 . S
H1756 C1742 0.961 . S
H1757 C1743 0.958 . S
H1758 C1743 0.961 . S
H1759 C1743 0.960 . S
C1760 C1761 1.391 . S
C1760 C1762 1.394 . S
C1760 H1776 0.931 . S
C1761 C1760 1.391 . S
C1761 C1765 1.376 . S
C1762 C1760 1.394 . S
C1762 C1763 1.369 . S
C1762 C1766 1.531 . S
C1763 C1762 1.369 . S
C1763 C1764 1.410 . S
C1763 C1771 1.503 . S
C1764 C1763 1.410 . S
C1764 C1765 1.392 . S
C1764 C1767 1.511 . S
C1765 C1761 1.376 . S
C1765 C1764 1.392 . S
C1765 H1777 0.929 . S
C1766 C1762 1.531 . S
C1766 H1778 0.960 . S
C1766 H1779 0.962 . S
C1766 H1780 0.960 . S
C1767 C1764 1.511 . S
C1767 H1781 0.961 . S
C1767 H1782 0.961 . S
C1767 H1783 0.961 . S
C1768 C1769 1.370 . S
C1768 C1770 1.363 . S
C1768 H1784 0.931 . S
C1769 C1768 1.370 . S
C1769 C1773 1.408 . S
C1770 C1768 1.363 . S
C1770 C1771 1.370 . S
C1770 C1774 1.524 . S
C1771 C1763 1.503 . S
C1771 C1770 1.370 . S
C1771 C1772 1.403 . S
C1772 C1771 1.403 . S
C1772 C1773 1.404 . S
C1772 C1775 1.539 . S
C1773 C1769 1.408 . S
C1773 C1772 1.404 . S
C1773 H1785 0.930 . S
C1774 C1770 1.524 . S
C1774 H1786 0.956 . S
C1774 H1787 0.961 . S
C1774 H1788 0.961 . S
C1775 C1772 1.539 . S
C1775 H1789 0.958 . S
C1775 H1790 0.961 . S
C1775 H1791 0.960 . S
H1776 C1760 0.931 . S
H1777 C1765 0.929 . S
H1778 C1766 0.960 . S
H1779 C1766 0.962 . S
H1780 C1766 0.960 . S
H1781 C1767 0.961 . S
H1782 C1767 0.961 . S
H1783 C1767 0.961 . S
H1784 C1768 0.931 . S
H1785 C1773 0.930 . S
H1786 C1774 0.956 . S
H1787 C1774 0.961 . S
H1788 C1774 0.961 . S
H1789 C1775 0.958 . S
H1790 C1775 0.961 . S
H1791 C1775 0.960 . S
C1792 C1793 1.391 . S
C1792 C1794 1.394 . S
C1792 H1808 0.931 . S
C1793 C1792 1.391 . S
C1793 C1797 1.376 . S
C1794 C1792 1.394 . S
C1794 C1795 1.369 . S
C1794 C1798 1.531 . S
C1795 C1794 1.369 . S
C1795 C1796 1.410 . S
C1795 C1803 1.503 . S
C1796 C1795 1.410 . S
C1796 C1797 1.392 . S
C1796 C1799 1.511 . S
C1797 C1793 1.376 . S
C1797 C1796 1.392 . S
C1797 H1809 0.929 . S
C1798 C1794 1.531 . S
C1798 H1810 0.960 . S
C1798 H1811 0.962 . S
C1798 H1812 0.960 . S
C1799 C1796 1.511 . S
C1799 H1813 0.961 . S
C1799 H1814 0.961 . S
C1799 H1815 0.961 . S
C1800 C1801 1.370 . S
C1800 C1802 1.363 . S
C1800 H1816 0.931 . S
C1801 C1800 1.370 . S
C1801 C1805 1.408 . S
C1802 C1800 1.363 . S
C1802 C1803 1.370 . S
C1802 C1806 1.524 . S
C1803 C1795 1.503 . S
C1803 C1802 1.370 . S
C1803 C1804 1.403 . S
C1804 C1803 1.403 . S
C1804 C1805 1.404 . S
C1804 C1807 1.539 . S
C1805 C1801 1.408 . S
C1805 C1804 1.404 . S
C1805 H1817 0.930 . S
C1806 C1802 1.524 . S
C1806 H1818 0.956 . S
C1806 H1819 0.961 . S
C1806 H1820 0.961 . S
C1807 C1804 1.539 . S
C1807 H1821 0.958 . S
C1807 H1822 0.961 . S
C1807 H1823 0.960 . S
H1808 C1792 0.931 . S
H1809 C1797 0.929 . S
H1810 C1798 0.960 . S
H1811 C1798 0.962 . S
H1812 C1798 0.960 . S
H1813 C1799 0.961 . S
H1814 C1799 0.961 . S
H1815 C1799 0.961 . S
H1816 C1800 0.931 . S
H1817 C1805 0.930 . S
H1818 C1806 0.956 . S
H1819 C1806 0.961 . S
H1820 C1806 0.961 . S
H1821 C1807 0.958 . S
H1822 C1807 0.961 . S
H1823 C1807 0.960 . S
C545 C33 1.730 . S
C553 C101 1.743 . S
C577 C135 1.728 . S
C585 C67 1.745 . S
C609 C237 1.734 . S
C617 C169 1.743 . S
C641 C203 1.732 . S
C649 C271 1.744 . S
C673 C373 1.767 . S
C681 C305 1.777 . S
C705 C339 1.766 . S
C713 C407 1.778 . S
C737 C509 1.772 . S
C745 C441 1.778 . S
C769 C475 1.779 . S
C777 C543 1.774 . S
C801 C5 1.532 . S
C809 C342 1.528 . S
C833 C376 1.535 . S
C841 C39 1.514 . S
C865 C274 1.520 . S
C873 C73 1.525 . S
C897 C308 1.535 . S
C905 C107 1.514 . S
C929 C478 1.522 . S
C937 C141 1.523 . S
C961 C512 1.531 . S
C969 C175 1.517 . S
C993 C410 1.536 . S
C1001 C209 1.513 . S
C1025 C444 1.520 . S
C1033 C243 1.527 . S
C1057 C9 1.411 . S
C1065 C247 1.410 . S
C1089 C43 1.407 . S
C1097 C145 1.395 . S
C1121 C179 1.427 . S
C1129 C77 1.411 . S
C1153 C213 1.410 . S
C1161 C111 1.410 . S
C1185 C292 2.089 . S
C1193 C530 2.096 . S
C1217 C326 2.096 . S
C1225 C428 2.095 . S
C1249 C360 2.086 . S
C1257 C462 2.095 . S
C1281 C394 2.092 . S
C1289 C496 2.096 . S
C1313 C481 0.973 . S
C1321 C20 1.010 . S
C1345 C54 0.999 . S
C1353 C515 1.003 . S
C1377 C413 0.996 . S
C1385 C88 1.004 . S
C1409 C447 1.020 . S
C1417 C122 0.993 . S
C1441 C345 0.997 . S
C1449 C156 0.987 . S
C1473 C190 1.028 . S
C1481 C379 0.986 . S
C1505 C277 0.993 . S
C1513 C224 0.988 . S
C1537 C258 1.023 . S
C1545 C311 0.991 . S
C1569 C206 0.885 . S
C1577 C281 0.916 . S
C1601 C240 0.879 . S
C1609 C315 0.921 . S
C1633 C138 0.943 . S
C1641 C349 0.905 . S
C1665 C383 0.956 . S
C1673 C172 0.902 . S
C1697 C70 0.954 1_455 S
C1705 C417 0.891 . S
C1729 C451 0.909 . S
C1737 C104 0.908 1_545 S
C1761 C485 0.863 . S
C1769 C2 0.934 1_655 S
C1793 C36 0.884 1_565 S
C1801 C519 0.929 . S
