# Generated by pormake.
# Topology smk, (6)-cn, num edge types: 1
# Building blocks:
#     Node 0, Type 0, BuildingBlock: JUFBIX_clean_sbu_0, # of connection points: 6
#     Node 1, Type 0, BuildingBlock: JUFBIX_clean_sbu_0, # of connection points: 6
#     Node 2, Type 0, BuildingBlock: JUFBIX_clean_sbu_0, # of connection points: 6
#     Node 3, Type 0, BuildingBlock: JUFBIX_clean_sbu_0, # of connection points: 6
#     Node 4, Type 0, BuildingBlock: JUFBIX_clean_sbu_0, # of connection points: 6
#     Node 5, Type 0, BuildingBlock: JUFBIX_clean_sbu_0, # of connection points: 6
#     Edge 6, Type (0, 0), BuildingBlock: OJICUG_clean_linker_0, # of connection points: 2
#     Edge 7, Type (0, 0), BuildingBlock: OJICUG_clean_linker_0, # of connection points: 2
#     Edge 8, Type (0, 0), BuildingBlock: OJICUG_clean_linker_0, # of connection points: 2
#     Edge 9, Type (0, 0), BuildingBlock: OJICUG_clean_linker_0, # of connection points: 2
#     Edge 10, Type (0, 0), BuildingBlock: OJICUG_clean_linker_0, # of connection points: 2
#     Edge 11, Type (0, 0), BuildingBlock: OJICUG_clean_linker_0, # of connection points: 2
#     Edge 12, Type (0, 0), BuildingBlock: OJICUG_clean_linker_0, # of connection points: 2
#     Edge 13, Type (0, 0), BuildingBlock: OJICUG_clean_linker_0, # of connection points: 2
#     Edge 14, Type (0, 0), BuildingBlock: OJICUG_clean_linker_0, # of connection points: 2
#     Edge 15, Type (0, 0), BuildingBlock: OJICUG_clean_linker_0, # of connection points: 2
#     Edge 16, Type (0, 0), BuildingBlock: OJICUG_clean_linker_0, # of connection points: 2
#     Edge 17, Type (0, 0), BuildingBlock: OJICUG_clean_linker_0, # of connection points: 2
#     Edge 18, Type (0, 0), BuildingBlock: OJICUG_clean_linker_0, # of connection points: 2
#     Edge 19, Type (0, 0), BuildingBlock: OJICUG_clean_linker_0, # of connection points: 2
#     Edge 20, Type (0, 0), BuildingBlock: OJICUG_clean_linker_0, # of connection points: 2
#     Edge 21, Type (0, 0), BuildingBlock: OJICUG_clean_linker_0, # of connection points: 2
#     Edge 22, Type (0, 0), BuildingBlock: OJICUG_clean_linker_0, # of connection points: 2
#     Edge 23, Type (0, 0), BuildingBlock: OJICUG_clean_linker_0, # of connection points: 2
# Relax obj value: 0.392
# Max RMSD: 0.252
# Mean RMSD: 0.252
data_MOF--net-smk--node1-JUFBIX_clean_sbu_0--edge1-OJICUG_clean_linker_0
_symmetry_space_group_name_H-M    P1
_symmetry_Int_Tables_number       1
_symmetry_cell_setting            triclinic
loop_
_symmetry_equiv_pos_as_xyz
'x, y, z'
_cell_length_a     34.538626
_cell_length_b     34.542168
_cell_length_c     10.859887
_cell_angle_alpha  89.909575
_cell_angle_beta   90.067928
_cell_angle_gamma 119.99984
loop_
_atom_site_label
_atom_site_type_symbol
_atom_site_fract_x
_atom_site_fract_y
_atom_site_fract_z
_atom_type_partial_charge
Co0 Co 0.43691 0.20467 0.48749 0.0
C1 C 0.41595 0.11609 0.49486 0.0
Co2 Co 0.49647 0.19647 0.48932 0.0
C3 C 0.37992 0.24144 0.55072 0.0
C4 C 0.34978 0.18827 0.4193 0.0
N5 N 0.38755 0.21273 0.48472 0.0
N6 N 0.33864 0.2354 0.53 0.0
C7 C 0.31966 0.20197 0.44727 0.0
H8 H 0.40353 0.26517 0.61604 0.0
H9 H 0.34417 0.16154 0.35705 0.0
C10 C 0.51897 0.28453 0.47156 0.0
N11 N 0.54516 0.18749 0.49521 0.0
C12 C 0.57864 0.20415 0.57877 0.0
C13 C 0.55207 0.15898 0.42672 0.0
N14 N 0.60591 0.18684 0.56638 0.0
C15 C 0.58935 0.15854 0.47007 0.0
C16 C 0.46596 0.19802 0.25456 0.0
O17 O 0.4767 0.26828 0.47552 0.0
O18 O 0.5348 0.25852 0.48283 0.0
O19 O 0.49613 0.19494 0.31391 0.0
O20 O 0.43622 0.20173 0.31351 0.0
O21 O 0.45822 0.13464 0.49364 0.0
H22 H 0.53064 0.13888 0.35225 0.0
H23 H 0.58191 0.22739 0.65025 0.0
O24 O 0.39799 0.14054 0.4956 0.0
O25 O 0.43802 0.20761 0.66274 0.0
O26 O 0.49608 0.19805 0.66342 0.0
C27 C 0.46728 0.20318 0.7223 0.0
H28 H 0.28621 0.18816 0.41028 0.0
H29 H 0.6031 0.13887 0.43328 0.0
Co30 Co 0.22248 0.41922 0.80643 0.0
C31 C 0.13389 0.39826 0.79907 0.0
Co32 Co 0.21428 0.47878 0.80455 0.0
C33 C 0.25924 0.36221 0.74324 0.0
C34 C 0.20607 0.3321 0.87479 0.0
N35 N 0.23053 0.36986 0.80927 0.0
N36 N 0.25318 0.32093 0.76403 0.0
C37 C 0.21975 0.30197 0.84685 0.0
H38 H 0.28297 0.38581 0.67784 0.0
H39 H 0.17934 0.32651 0.93709 0.0
C40 C 0.30235 0.50127 0.82227 0.0
N41 N 0.20529 0.52746 0.7986 0.0
C42 C 0.22195 0.56093 0.71499 0.0
C43 C 0.17678 0.53436 0.86712 0.0
N44 N 0.20463 0.5882 0.72736 0.0
C45 C 0.17633 0.57163 0.82372 0.0
C46 C 0.21581 0.44825 0.03935 0.0
O47 O 0.2861 0.459 0.81837 0.0
O48 O 0.27634 0.5171 0.81098 0.0
O49 O 0.21273 0.47842 -0.02003 0.0
O50 O 0.21951 0.41851 -0.01958 0.0
O51 O 0.15244 0.44053 0.80028 0.0
H52 H 0.15668 0.51293 0.94165 0.0
H53 H 0.24519 0.5642 0.64347 0.0
O54 O 0.15834 0.38031 0.79836 0.0
O55 O 0.22544 0.42035 0.63118 0.0
O56 O 0.21588 0.4784 0.63045 0.0
C57 C 0.22102 0.4496 0.57159 0.0
H58 H 0.20594 0.26852 0.88391 0.0
H59 H 0.15665 0.58537 0.86052 0.0
Co60 Co 0.85191 0.23406 0.82121 0.0
C61 C 0.94051 0.30167 0.82822 0.0
Co62 Co 0.86013 0.30182 0.82244 0.0
C63 C 0.81514 0.14024 0.88468 0.0
C64 C 0.86837 0.16342 0.75332 0.0
N65 N 0.84388 0.17666 0.8187 0.0
N66 N 0.82121 0.10504 0.86397 0.0
C67 C 0.85467 0.11958 0.78128 0.0
H68 H 0.79137 0.14005 0.94994 0.0
H69 H 0.89512 0.18461 0.69105 0.0
C70 C 0.77205 0.23624 0.80508 0.0
N71 N 0.8691 0.35949 0.82803 0.0
C72 C 0.85242 0.37624 0.9115 0.0
C73 C 0.89761 0.39493 0.75942 0.0
N74 N 0.86972 0.42083 0.89896 0.0
C75 C 0.89803 0.43262 0.80263 0.0
C76 C 0.85858 0.2698 0.58796 0.0
O77 O 0.7883 0.21022 0.80928 0.0
O78 O 0.79807 0.27808 0.81601 0.0
O79 O 0.86166 0.30305 0.64701 0.0
O80 O 0.85487 0.23636 0.64722 0.0
O81 O 0.92198 0.32541 0.82669 0.0
H82 H 0.91772 0.39366 0.68497 0.0
H83 H 0.82918 0.35623 -0.01696 0.0
O84 O 0.91604 0.25927 0.82929 0.0
O85 O 0.84896 0.23218 -0.00353 0.0
O86 O 0.85855 0.29981 -0.00346 0.0
C87 C 0.85341 0.26587 0.05573 0.0
H88 H 0.86849 0.09998 0.74428 0.0
H89 H 0.91771 0.46606 0.76573 0.0
Co90 Co 0.63722 0.80473 0.14 0.0
C91 C 0.65817 0.7371 0.13297 0.0
Co92 Co 0.57765 0.73698 0.13859 0.0
C93 C 0.69428 0.89855 0.07666 0.0
C94 C 0.72435 0.87534 0.20816 0.0
N95 N 0.6866 0.86212 0.14264 0.0
N96 N 0.73556 0.93374 0.09748 0.0
C97 C 0.7545 0.91918 0.18026 0.0
H98 H 0.67068 0.89875 0.0113 0.0
H99 H 0.72992 0.85414 0.27046 0.0
C100 C 0.55519 0.80257 0.15588 0.0
N101 N 0.52895 0.67932 0.13289 0.0
C102 C 0.49553 0.66253 0.04918 0.0
C103 C 0.52202 0.64389 0.20165 0.0
N104 N 0.46826 0.61794 0.06171 0.0
C105 C 0.48477 0.60618 0.1583 0.0
C106 C 0.60819 0.76896 0.37317 0.0
O107 O 0.59746 0.82858 0.15182 0.0
O108 O 0.53934 0.76073 0.14486 0.0
O109 O 0.578 0.73573 0.31402 0.0
O110 O 0.63793 0.8024 0.314 0.0
O111 O 0.61589 0.71337 0.13447 0.0
H112 H 0.5434 0.64518 0.27629 0.0
H113 H 0.4923 0.68252 -0.02254 0.0
O114 O 0.67612 0.7795 0.13199 0.0
O115 O 0.63609 0.80663 0.96473 0.0
O116 O 0.57804 0.73902 0.96447 0.0
C117 C 0.60683 0.77295 0.90538 0.0
H118 H 0.78793 0.93877 0.21736 0.0
H119 H 0.47102 0.57274 0.19526 0.0
Co120 Co 0.8225 0.61942 0.15344 0.0
C121 C 0.75487 0.64038 0.16055 0.0
Co122 Co 0.75474 0.55986 0.15501 0.0
C123 C 0.91632 0.67647 0.21672 0.0
C124 C 0.89314 0.70654 0.08512 0.0
N125 N 0.8799 0.66879 0.1507 0.0
N126 N 0.95151 0.71774 0.19585 0.0
C127 C 0.93697 0.73668 0.113 0.0
H128 H 0.9165 0.65288 0.28214 0.0
H129 H 0.87195 0.71211 0.02278 0.0
C130 C 0.82033 0.53739 0.13762 0.0
N131 N 0.69706 0.51118 0.16082 0.0
C132 C 0.68027 0.47774 0.24455 0.0
C133 C 0.66164 0.50426 0.09211 0.0
N134 N 0.63568 0.45048 0.23208 0.0
C135 C 0.62392 0.46701 0.13551 0.0
C136 C 0.78673 0.59041 0.92035 0.0
O137 O 0.84634 0.57966 0.14163 0.0
O138 O 0.77848 0.52154 0.14874 0.0
O139 O 0.7535 0.56023 -0.02042 0.0
O140 O 0.82017 0.62014 -0.02056 0.0
O141 O 0.73114 0.59811 0.15913 0.0
H142 H 0.66294 0.52565 0.01746 0.0
H143 H 0.70025 0.4745 0.31623 0.0
O144 O 0.79728 0.65832 0.16144 0.0
O145 O 0.8244 0.61828 0.3287 0.0
O146 O 0.75677 0.56024 0.32913 0.0
C147 C 0.79071 0.58903 0.38814 0.0
H148 H 0.95657 0.77012 0.07587 0.0
H149 H 0.59049 0.45327 0.0986 0.0
Co150 Co 0.25178 0.83414 0.47228 0.0
C151 C 0.31938 0.92274 0.46519 0.0
Co152 Co 0.31956 0.84239 0.47094 0.0
C153 C 0.15797 0.79735 0.40884 0.0
C154 C 0.18109 0.85055 0.54017 0.0
N155 N 0.19437 0.82609 0.47482 0.0
N156 N 0.12275 0.80339 0.42952 0.0
C157 C 0.13725 0.83684 0.5122 0.0
H158 H 0.15781 0.77361 0.3436 0.0
H159 H 0.20226 0.87729 0.60242 0.0
C160 C 0.25399 0.75431 0.48842 0.0
N161 N 0.37724 0.85138 0.4653 0.0
C162 C 0.39401 0.83469 0.38186 0.0
C163 C 0.41268 0.87988 0.53384 0.0
N164 N 0.4386 0.85199 0.39436 0.0
C165 C 0.45038 0.88031 0.49063 0.0
C166 C 0.28751 0.8408 0.70546 0.0
O167 O 0.22796 0.77054 0.48424 0.0
O168 O 0.29584 0.78033 0.47742 0.0
O169 O 0.32077 0.8439 0.64637 0.0
O170 O 0.25406 0.83708 0.64626 0.0
O171 O 0.34314 0.90423 0.46664 0.0
H172 H 0.4114 0.9 0.60825 0.0
H173 H 0.374 0.81145 0.31038 0.0
O174 O 0.27698 0.89827 0.46417 0.0
O175 O 0.24993 0.83122 0.29702 0.0
O176 O 0.31756 0.84083 0.29684 0.0
C177 C 0.28362 0.83568 0.23771 0.0
H178 H 0.11763 0.85064 0.54916 0.0
H179 H 0.48382 0.89998 0.52749 0.0
C180 C 0.49916 0.1956 0.0517 0.0
C181 C 0.46609 0.19885 0.11839 0.0
H182 H 0.52561 0.19465 0.87452 0.0
C183 C 0.43361 0.20399 0.05372 0.0
H184 H 0.52472 0.19175 0.09869 0.0
C185 C 0.43418 0.20582 0.92516 0.0
C186 C 0.46721 0.20249 0.85848 0.0
H187 H 0.40772 0.20674 0.10236 0.0
H188 H 0.40863 0.20967 0.87814 0.0
C189 C 0.49971 0.19739 0.92315 0.0
C190 C 0.21521 0.48202 0.37072 0.0
C191 C 0.22032 0.44953 0.43542 0.0
H192 H 0.20954 0.50701 0.19515 0.0
C193 C 0.22364 0.4165 0.36877 0.0
H194 H 0.21248 0.50792 0.41931 0.0
C195 C 0.22179 0.41592 0.24021 0.0
C196 C 0.21664 0.44839 0.17552 0.0
H197 H 0.2275 0.39095 0.41581 0.0
H198 H 0.22453 0.39003 0.19161 0.0
C199 C 0.2134 0.48146 0.24217 0.0
C200 C 0.8592 0.30412 0.25619 0.0
C201 C 0.85409 0.26651 0.1919 0.0
H202 H 0.86485 0.3348 0.43144 0.0
C203 C 0.85077 0.23017 0.25895 0.0
H204 H 0.86193 0.33274 0.20728 0.0
C205 C 0.85261 0.23146 0.38751 0.0
C206 C 0.85775 0.26908 0.45179 0.0
H207 H 0.84692 0.20076 0.21222 0.0
H208 H 0.84987 0.20284 0.43643 0.0
C209 C 0.861 0.30539 0.38474 0.0
C210 C 0.64054 0.80732 0.57374 0.0
C211 C 0.60806 0.76969 0.50934 0.0
H212 H 0.66551 0.83804 0.74909 0.0
C213 C 0.57497 0.73341 0.57627 0.0
H214 H 0.66645 0.83593 0.52491 0.0
C215 C 0.5744 0.7347 0.7048 0.0
C216 C 0.6069 0.77231 0.7692 0.0
H217 H 0.5494 0.704 0.52948 0.0
H218 H 0.54848 0.70609 0.75361 0.0
C219 C 0.63995 0.80863 0.70228 0.0
C220 C 0.75245 0.55661 0.58882 0.0
C221 C 0.79007 0.5891 0.52432 0.0
H222 H 0.72175 0.53163 0.76422 0.0
C223 C 0.8264 0.62215 0.59115 0.0
H224 H 0.72384 0.5307 0.54008 0.0
C225 C 0.82509 0.62274 0.71969 0.0
C226 C 0.78746 0.59027 0.78418 0.0
H227 H 0.85581 0.6477 0.54426 0.0
H228 H 0.8537 0.64865 0.76844 0.0
C229 C 0.75117 0.55718 0.71735 0.0
C230 C 0.32187 0.84148 0.03718 0.0
C231 C 0.28425 0.83636 0.10154 0.0
H232 H 0.35254 0.84711 0.86188 0.0
C233 C 0.2479 0.83301 0.03454 0.0
H234 H 0.3505 0.84422 0.08604 0.0
C235 C 0.24917 0.83483 0.90599 0.0
C236 C 0.2868 0.83998 0.84163 0.0
H237 H 0.21848 0.82915 0.08132 0.0
H238 H 0.22054 0.83207 0.85711 0.0
C239 C 0.32313 0.84325 0.90863 0.0
C240 C 0.41224 0.04256 0.48521 0.0
C241 C 0.38936 0.0666 0.48957 0.0
H242 H 0.40849 0.97948 0.47272 0.0
C243 C 0.34231 0.04287 0.48435 0.0
H244 H 0.44842 0.05943 0.48857 0.0
C245 C 0.31886 0.99591 0.47518 0.0
C246 C 0.34223 0.97223 0.47056 0.0
H247 H 0.32375 0.0605 0.48695 0.0
H248 H 0.28267 0.97825 0.47207 0.0
C249 C 0.38915 0.99632 0.47558 0.0
C250 C 0.34204 0.30311 0.61915 0.0
C251 C 0.31758 0.25738 0.58966 0.0
H252 H 0.34033 0.35955 0.69639 0.0
C253 C 0.27181 0.23321 0.61832 0.0
H254 H 0.3773 0.32254 0.59742 0.0
C255 C 0.25095 0.25409 0.6758 0.0
C256 C 0.27514 0.29986 0.70435 0.0
H257 H 0.2522 0.19789 0.59769 0.0
H258 H 0.21563 0.2345 0.69652 0.0
C259 C 0.32088 0.3243 0.67475 0.0
C260 C 1.01409 0.37144 0.818 0.0
C261 C 0.99 0.32453 0.82296 0.0
H262 H 0.07722 0.43072 0.80519 0.0
C263 C 1.01369 0.30117 0.81845 0.0
H264 H 0.99725 0.39078 0.82079 0.0
C265 C 0.06067 0.32463 0.80942 0.0
C266 C 0.0844 0.37167 0.80426 0.0
H267 H 0.99603 0.26498 0.82152 0.0
H268 H 0.0783 0.30607 0.80689 0.0
C269 C 0.06034 0.39454 0.80852 0.0
C270 C 0.80244 0.99848 0.00947 0.0
C271 C 0.75666 0.97686 0.03792 0.0
H272 H 0.85869 0.05604 0.93159 0.0
C273 C 0.73223 0.99819 0.00839 0.0
H274 H 0.82203 0.98272 0.03014 0.0
C275 C 0.75344 0.04061 0.95294 0.0
C276 C 0.79919 0.06192 0.92354 0.0
H277 H 0.69696 0.98234 0.02997 0.0
H278 H 0.73402 0.05646 0.93124 0.0
C279 C 0.82335 0.04029 0.95215 0.0
C280 C 0.75532 0.71404 0.151 0.0
C281 C 0.73198 0.66699 0.15565 0.0
H282 H 0.75037 0.77373 0.13972 0.0
C283 C 0.68506 0.64415 0.15133 0.0
H284 H 0.79152 0.73258 0.15361 0.0
C285 C 0.66192 0.66728 0.14232 0.0
C286 C 0.68477 0.71421 0.13788 0.0
H287 H 0.66574 0.60797 0.15428 0.0
H288 H 0.62574 0.64797 0.13946 0.0
C289 C 0.73183 0.73754 0.14242 0.0
C290 C 1.01595 0.71442 0.28506 0.0
C291 C 0.99461 0.73884 0.25545 0.0
H292 H 0.07421 0.71622 0.36231 0.0
C293 C 1.01621 0.78462 0.28387 0.0
H294 H 1.00012 0.67916 0.26351 0.0
C295 C 0.05801 0.80553 0.34124 0.0
C296 C 0.07965 0.78138 0.36992 0.0
H297 H 1.00045 0.8042 0.26314 0.0
H298 H 0.07374 0.84086 0.36178 0.0
C299 C 0.05835 0.73564 0.34056 0.0
C300 C 0.59572 0.34838 0.43044 0.0
C301 C 0.54922 0.33125 0.43155 0.0
H302 H 0.65942 0.39903 0.3649 0.0
C303 C 0.53209 0.35629 0.37581 0.0
H304 H 0.61009 0.32995 0.47243 0.0
C305 C 0.56057 0.3961 0.31349 0.0
C306 C 0.6068 0.41181 0.306 0.0
H307 H 0.49645 0.34402 0.37466 0.0
H308 H 0.54618 0.41401 0.26892 0.0
C309 C 0.62413 0.38813 0.36854 0.0
C310 C 0.25552 0.65066 0.59144 0.0
C311 C 0.21447 0.62692 0.65356 0.0
H312 H 0.29972 0.70891 0.48802 0.0
C313 C 0.18396 0.64263 0.6458 0.0
H314 H 0.2799 0.63975 0.5953 0.0
C315 C 0.19532 0.68248 0.58362 0.0
C316 C 0.23753 0.70757 0.5283 0.0
H317 H 0.15163 0.62469 0.69005 0.0
H318 H 0.17194 0.69474 0.58456 0.0
C319 C 0.2669 0.69045 0.52968 0.0
C320 C 0.70023 0.17756 0.70999 0.0
C321 C 0.72531 0.21977 0.76525 0.0
H322 H 0.64244 0.13386 0.60367 0.0
C323 C 0.70817 0.24912 0.76386 0.0
H324 H 0.71251 0.1542 0.70906 0.0
C325 C 0.66837 0.23773 0.70216 0.0
C326 C 0.64464 0.19669 0.64011 0.0
H327 H 0.72663 0.28194 0.80548 0.0
H328 H 0.65745 0.2621 0.6983 0.0
C329 C 0.66037 0.16619 0.64787 0.0
C330 C 0.41389 0.54285 -0.01962 0.0
C331 C 0.4296 0.58908 -0.01218 0.0
H332 H 0.36182 0.47875 0.91927 0.0
C333 C 0.40593 0.6064 0.92524 0.0
H334 H 0.43179 0.52845 0.02499 0.0
C335 C 0.36619 0.57801 0.86334 0.0
C336 C 0.34906 0.53152 0.86227 0.0
H337 H 0.41683 0.64169 0.92882 0.0
H338 H 0.34777 0.59238 0.82131 0.0
C339 C 0.37409 0.51438 0.91806 0.0
C340 C 0.87899 0.52432 0.04235 0.0
C341 C 0.8368 0.50716 0.09777 0.0
H342 H 0.92268 0.51031 0.93594 0.0
C343 C 0.80745 0.46066 0.0965 0.0
H344 H 0.90236 0.55996 0.04132 0.0
C345 C 0.81883 0.4323 0.03481 0.0
C346 C 0.85987 0.44966 -0.02737 0.0
H347 H 0.77463 0.44627 0.13823 0.0
H348 H 0.79446 0.39701 0.03107 0.0
C349 C 0.89036 0.49589 -0.01976 0.0
C350 C 0.54212 0.86125 0.25101 0.0
C351 C 0.52495 0.81905 0.1957 0.0
H352 H 0.5281 0.90494 0.3573 0.0
C353 C 0.47845 0.78971 0.197 0.0
H354 H 0.57776 0.8846 0.252 0.0
C355 C 0.45008 0.8011 0.25865 0.0
C356 C 0.46744 0.84214 0.32074 0.0
H357 H 0.46406 0.7569 0.15535 0.0
H358 H 0.41479 0.77674 0.26243 0.0
C359 C 0.51367 0.87262 0.31308 0.0
loop_
_geom_bond_atom_site_label_1
_geom_bond_atom_site_label_2
_geom_bond_distance
_geom_bond_site_symmetry_2
_ccdc_geom_bond_type
Co0 N5 2.057 . S
Co0 O17 2.021 . S
Co0 O20 2.062 . S
Co0 O24 2.117 . S
Co0 O25 2.020 . S
C1 O21 1.259 . S
C1 O24 1.258 . S
Co2 N11 2.057 . S
Co2 O18 2.117 . S
Co2 O19 2.020 . S
Co2 O21 2.021 . S
Co2 O26 2.062 . S
C3 N5 1.316 . S
C3 N6 1.347 . S
C3 H8 0.931 . S
C4 N5 1.375 . S
C4 C7 1.350 . S
C4 H9 0.930 . S
N5 Co0 2.057 . S
N5 C3 1.316 . S
N5 C4 1.375 . S
N6 C3 1.347 . S
N6 C7 1.373 . S
C7 C4 1.350 . S
C7 N6 1.373 . S
C7 H28 0.931 . S
H8 C3 0.931 . S
H9 C4 0.930 . S
C10 O17 1.259 . S
C10 O18 1.258 . S
N11 Co2 2.057 . S
N11 C12 1.316 . S
N11 C13 1.375 . S
C12 N11 1.316 . S
C12 N14 1.347 . S
C12 H23 0.931 . S
C13 N11 1.375 . S
C13 C15 1.350 . S
C13 H22 0.930 . S
N14 C12 1.347 . S
N14 C15 1.373 . S
C15 C13 1.350 . S
C15 N14 1.373 . S
C15 H29 0.931 . S
C16 O19 1.256 . S
C16 O20 1.255 . S
O17 Co0 2.021 . S
O17 C10 1.259 . S
O18 Co2 2.117 . S
O18 C10 1.258 . S
O19 Co2 2.020 . S
O19 C16 1.256 . S
O20 Co0 2.062 . S
O20 C16 1.255 . S
O21 C1 1.259 . S
O21 Co2 2.021 . S
H22 C13 0.930 . S
H23 C12 0.931 . S
O24 Co0 2.117 . S
O24 C1 1.258 . S
O25 Co0 2.020 . S
O25 C27 1.256 . S
O26 Co2 2.062 . S
O26 C27 1.255 . S
C27 O25 1.256 . S
C27 O26 1.255 . S
H28 C7 0.931 . S
H29 C15 0.931 . S
Co30 N35 2.057 . S
Co30 O47 2.021 . S
Co30 O50 2.062 . S
Co30 O54 2.117 . S
Co30 O55 2.020 . S
C31 O51 1.259 . S
C31 O54 1.258 . S
Co32 N41 2.057 . S
Co32 O48 2.117 . S
Co32 O49 2.020 . S
Co32 O51 2.021 . S
Co32 O56 2.062 . S
C33 N35 1.316 . S
C33 N36 1.347 . S
C33 H38 0.931 . S
C34 N35 1.375 . S
C34 C37 1.350 . S
C34 H39 0.930 . S
N35 Co30 2.057 . S
N35 C33 1.316 . S
N35 C34 1.375 . S
N36 C33 1.347 . S
N36 C37 1.373 . S
C37 C34 1.350 . S
C37 N36 1.373 . S
C37 H58 0.931 . S
H38 C33 0.931 . S
H39 C34 0.930 . S
C40 O47 1.259 . S
C40 O48 1.258 . S
N41 Co32 2.057 . S
N41 C42 1.316 . S
N41 C43 1.375 . S
C42 N41 1.316 . S
C42 N44 1.347 . S
C42 H53 0.931 . S
C43 N41 1.375 . S
C43 C45 1.350 . S
C43 H52 0.930 . S
N44 C42 1.347 . S
N44 C45 1.373 . S
C45 C43 1.350 . S
C45 N44 1.373 . S
C45 H59 0.931 . S
C46 O49 1.256 . S
C46 O50 1.255 . S
O47 Co30 2.021 . S
O47 C40 1.259 . S
O48 Co32 2.117 . S
O48 C40 1.258 . S
O49 Co32 2.020 . S
O49 C46 1.256 . S
O50 Co30 2.062 . S
O50 C46 1.255 . S
O51 C31 1.259 . S
O51 Co32 2.021 . S
H52 C43 0.930 . S
H53 C42 0.931 . S
O54 Co30 2.117 . S
O54 C31 1.258 . S
O55 Co30 2.020 . S
O55 C57 1.256 . S
O56 Co32 2.062 . S
O56 C57 1.255 . S
C57 O55 1.256 . S
C57 O56 1.255 . S
H58 C37 0.931 . S
H59 C45 0.931 . S
Co60 N65 2.057 . S
Co60 O77 2.021 . S
Co60 O80 2.062 . S
Co60 O84 2.117 . S
Co60 O85 2.020 1_556 S
C61 O81 1.259 . S
C61 O84 1.258 . S
Co62 N71 2.057 . S
Co62 O78 2.117 . S
Co62 O79 2.020 . S
Co62 O81 2.021 . S
Co62 O86 2.062 1_556 S
C63 N65 1.316 . S
C63 N66 1.347 . S
C63 H68 0.931 . S
C64 N65 1.375 . S
C64 C67 1.350 . S
C64 H69 0.932 . S
N65 Co60 2.057 . S
N65 C63 1.316 . S
N65 C64 1.375 . S
N66 C63 1.347 . S
N66 C67 1.373 . S
C67 C64 1.350 . S
C67 N66 1.373 . S
C67 H88 0.931 . S
H68 C63 0.931 . S
H69 C64 0.932 . S
C70 O77 1.259 . S
C70 O78 1.258 . S
N71 Co62 2.057 . S
N71 C72 1.316 1_556 S
N71 C73 1.375 . S
C72 N71 1.316 1_554 S
C72 N74 1.347 . S
C72 H83 0.931 . S
C73 N71 1.375 . S
C73 C75 1.350 1_556 S
C73 H82 0.930 . S
N74 C72 1.347 . S
N74 C75 1.373 . S
C75 C73 1.350 1_554 S
C75 N74 1.373 . S
C75 H89 0.931 . S
C76 O79 1.256 . S
C76 O80 1.255 . S
O77 Co60 2.021 . S
O77 C70 1.259 . S
O78 Co62 2.117 . S
O78 C70 1.258 . S
O79 Co62 2.020 . S
O79 C76 1.256 . S
O80 Co60 2.062 . S
O80 C76 1.255 . S
O81 C61 1.259 . S
O81 Co62 2.021 . S
H82 C73 0.930 . S
H83 C72 0.931 . S
O84 Co60 2.117 . S
O84 C61 1.258 . S
O85 Co60 2.020 1_554 S
O85 C87 1.256 . S
O86 Co62 2.062 1_554 S
O86 C87 1.255 . S
C87 O85 1.256 . S
C87 O86 1.255 . S
H88 C67 0.931 . S
H89 C75 0.931 . S
Co90 N95 2.057 . S
Co90 O107 2.021 . S
Co90 O110 2.062 . S
Co90 O114 2.117 . S
Co90 O115 2.020 1_554 S
C91 O111 1.259 . S
C91 O114 1.258 . S
Co92 N101 2.057 . S
Co92 O108 2.117 . S
Co92 O109 2.020 . S
Co92 O111 2.021 . S
Co92 O116 2.062 1_554 S
C93 N95 1.316 . S
C93 N96 1.347 . S
C93 H98 0.931 . S
C94 N95 1.375 . S
C94 C97 1.350 . S
C94 H99 0.930 . S
N95 Co90 2.057 . S
N95 C93 1.316 . S
N95 C94 1.375 . S
N96 C93 1.347 . S
N96 C97 1.373 . S
C97 C94 1.350 . S
C97 N96 1.373 . S
C97 H118 0.931 . S
H98 C93 0.931 . S
H99 C94 0.930 . S
C100 O107 1.259 . S
C100 O108 1.258 . S
N101 Co92 2.057 . S
N101 C102 1.316 1_554 S
N101 C103 1.375 . S
C102 N101 1.316 1_556 S
C102 N104 1.347 . S
C102 H113 0.931 . S
C103 N101 1.375 . S
C103 C105 1.350 . S
C103 H112 0.930 . S
N104 C102 1.347 . S
N104 C105 1.373 1_556 S
C105 C103 1.350 . S
C105 N104 1.373 1_554 S
C105 H119 0.931 . S
C106 O109 1.256 . S
C106 O110 1.255 . S
O107 Co90 2.021 . S
O107 C100 1.259 . S
O108 Co92 2.117 . S
O108 C100 1.258 . S
O109 Co92 2.020 . S
O109 C106 1.256 . S
O110 Co90 2.062 . S
O110 C106 1.255 . S
O111 C91 1.259 . S
O111 Co92 2.021 . S
H112 C103 0.930 . S
H113 C102 0.931 . S
O114 Co90 2.117 . S
O114 C91 1.258 . S
O115 Co90 2.020 1_556 S
O115 C117 1.256 . S
O116 Co92 2.062 1_556 S
O116 C117 1.255 . S
C117 O115 1.256 . S
C117 O116 1.255 . S
H118 C97 0.931 . S
H119 C105 0.931 . S
Co120 N125 2.057 . S
Co120 O137 2.021 . S
Co120 O140 2.062 . S
Co120 O144 2.117 . S
Co120 O145 2.020 . S
C121 O141 1.259 . S
C121 O144 1.258 . S
Co122 N131 2.057 . S
Co122 O138 2.117 . S
Co122 O139 2.020 . S
Co122 O141 2.021 . S
Co122 O146 2.062 . S
C123 N125 1.316 . S
C123 N126 1.347 . S
C123 H128 0.931 . S
C124 N125 1.375 . S
C124 C127 1.350 . S
C124 H129 0.930 . S
N125 Co120 2.057 . S
N125 C123 1.316 . S
N125 C124 1.375 . S
N126 C123 1.347 . S
N126 C127 1.373 . S
C127 C124 1.350 . S
C127 N126 1.373 . S
C127 H148 0.931 . S
H128 C123 0.931 . S
H129 C124 0.930 . S
C130 O137 1.259 . S
C130 O138 1.258 . S
N131 Co122 2.057 . S
N131 C132 1.316 . S
N131 C133 1.375 . S
C132 N131 1.316 . S
C132 N134 1.347 . S
C132 H143 0.931 . S
C133 N131 1.375 . S
C133 C135 1.350 . S
C133 H142 0.930 . S
N134 C132 1.347 . S
N134 C135 1.373 . S
C135 C133 1.350 . S
C135 N134 1.373 . S
C135 H149 0.931 . S
C136 O139 1.256 . S
C136 O140 1.255 . S
O137 Co120 2.021 . S
O137 C130 1.259 . S
O138 Co122 2.117 . S
O138 C130 1.258 . S
O139 Co122 2.020 . S
O139 C136 1.256 . S
O140 Co120 2.062 . S
O140 C136 1.255 . S
O141 C121 1.259 . S
O141 Co122 2.021 . S
H142 C133 0.930 . S
H143 C132 0.931 . S
O144 Co120 2.117 . S
O144 C121 1.258 . S
O145 Co120 2.020 . S
O145 C147 1.256 . S
O146 Co122 2.062 . S
O146 C147 1.255 . S
C147 O145 1.256 . S
C147 O146 1.255 . S
H148 C127 0.931 . S
H149 C135 0.931 . S
Co150 N155 2.057 . S
Co150 O167 2.021 . S
Co150 O170 2.062 . S
Co150 O174 2.117 . S
Co150 O175 2.020 . S
C151 O171 1.259 . S
C151 O174 1.258 . S
Co152 N161 2.057 . S
Co152 O168 2.117 . S
Co152 O169 2.020 . S
Co152 O171 2.021 . S
Co152 O176 2.062 . S
C153 N155 1.316 . S
C153 N156 1.347 . S
C153 H158 0.931 . S
C154 N155 1.375 . S
C154 C157 1.350 . S
C154 H159 0.930 . S
N155 Co150 2.057 . S
N155 C153 1.316 . S
N155 C154 1.375 . S
N156 C153 1.347 . S
N156 C157 1.373 . S
C157 C154 1.350 . S
C157 N156 1.373 . S
C157 H178 0.931 . S
H158 C153 0.931 . S
H159 C154 0.930 . S
C160 O167 1.259 . S
C160 O168 1.258 . S
N161 Co152 2.057 . S
N161 C162 1.316 . S
N161 C163 1.375 . S
C162 N161 1.316 . S
C162 N164 1.347 . S
C162 H173 0.931 . S
C163 N161 1.375 . S
C163 C165 1.350 . S
C163 H172 0.930 . S
N164 C162 1.347 . S
N164 C165 1.373 . S
C165 C163 1.350 . S
C165 N164 1.373 . S
C165 H179 0.931 . S
C166 O169 1.256 . S
C166 O170 1.255 . S
O167 Co150 2.021 . S
O167 C160 1.259 . S
O168 Co152 2.117 . S
O168 C160 1.258 . S
O169 Co152 2.020 . S
O169 C166 1.256 . S
O170 Co150 2.062 . S
O170 C166 1.255 . S
O171 C151 1.259 . S
O171 Co152 2.021 . S
H172 C163 0.930 . S
H173 C162 0.931 . S
O174 Co150 2.117 . S
O174 C151 1.258 . S
O175 Co150 2.020 . S
O175 C177 1.256 . S
O176 Co152 2.062 . S
O176 C177 1.255 . S
C177 O175 1.256 . S
C177 O176 1.255 . S
H178 C157 0.931 . S
H179 C165 0.931 . S
C180 C181 1.387 . S
C180 H184 0.950 . S
C180 C189 1.390 . S
C181 C180 1.387 . S
C181 C183 1.387 . S
H182 C189 0.950 . S
C183 C181 1.387 . S
C183 C185 1.390 . S
C183 H187 0.950 . S
H184 C180 0.950 . S
C185 C183 1.390 . S
C185 C186 1.387 . S
C185 H188 0.950 . S
C186 C185 1.387 . S
C186 C189 1.387 . S
H187 C183 0.950 . S
H188 C185 0.950 . S
C189 C180 1.390 . S
C189 H182 0.950 . S
C189 C186 1.387 . S
C190 C191 1.387 . S
C190 H194 0.950 . S
C190 C199 1.390 . S
C191 C190 1.387 . S
C191 C193 1.387 . S
H192 C199 0.950 . S
C193 C191 1.387 . S
C193 C195 1.390 . S
C193 H197 0.950 . S
H194 C190 0.950 . S
C195 C193 1.390 . S
C195 C196 1.387 . S
C195 H198 0.950 . S
C196 C195 1.387 . S
C196 C199 1.387 . S
H197 C193 0.950 . S
H198 C195 0.950 . S
C199 C190 1.390 . S
C199 H192 0.950 . S
C199 C196 1.387 . S
C200 C201 1.387 . S
C200 H204 0.950 . S
C200 C209 1.390 . S
C201 C200 1.387 . S
C201 C203 1.387 . S
H202 C209 0.950 . S
C203 C201 1.387 . S
C203 C205 1.390 . S
C203 H207 0.950 . S
H204 C200 0.950 . S
C205 C203 1.390 . S
C205 C206 1.387 . S
C205 H208 0.950 . S
C206 C205 1.387 . S
C206 C209 1.387 . S
H207 C203 0.950 . S
H208 C205 0.950 . S
C209 C200 1.390 . S
C209 H202 0.950 . S
C209 C206 1.387 . S
C210 C211 1.387 . S
C210 H214 0.950 . S
C210 C219 1.390 . S
C211 C210 1.387 . S
C211 C213 1.387 . S
H212 C219 0.950 . S
C213 C211 1.387 . S
C213 C215 1.390 . S
C213 H217 0.950 . S
H214 C210 0.950 . S
C215 C213 1.390 . S
C215 C216 1.387 . S
C215 H218 0.950 . S
C216 C215 1.387 . S
C216 C219 1.387 . S
H217 C213 0.950 . S
H218 C215 0.950 . S
C219 C210 1.390 . S
C219 H212 0.950 . S
C219 C216 1.387 . S
C220 C221 1.387 . S
C220 H224 0.950 . S
C220 C229 1.390 . S
C221 C220 1.387 . S
C221 C223 1.387 . S
H222 C229 0.950 . S
C223 C221 1.387 . S
C223 C225 1.390 . S
C223 H227 0.950 . S
H224 C220 0.950 . S
C225 C223 1.390 . S
C225 C226 1.387 . S
C225 H228 0.950 . S
C226 C225 1.387 . S
C226 C229 1.387 . S
H227 C223 0.950 . S
H228 C225 0.950 . S
C229 C220 1.390 . S
C229 H222 0.950 . S
C229 C226 1.387 . S
C230 C231 1.387 1_556 S
C230 H234 0.950 . S
C230 C239 1.390 . S
C231 C230 1.387 1_554 S
C231 C233 1.387 1_554 S
H232 C239 0.950 . S
C233 C231 1.387 1_556 S
C233 C235 1.390 . S
C233 H237 0.950 . S
H234 C230 0.950 . S
C235 C233 1.390 . S
C235 C236 1.387 . S
C235 H238 0.950 . S
C236 C235 1.387 . S
C236 C239 1.387 . S
H237 C233 0.950 . S
H238 C235 0.950 . S
C239 C230 1.390 . S
C239 H232 0.950 . S
C239 C236 1.387 . S
C240 C241 1.387 . S
C240 H244 0.950 . S
C240 C249 1.390 1_545 S
C241 C240 1.387 . S
C241 C243 1.387 . S
H242 C249 0.950 . S
C243 C241 1.387 . S
C243 C245 1.390 1_545 S
C243 H247 0.950 . S
H244 C240 0.950 . S
C245 C243 1.390 1_565 S
C245 C246 1.387 . S
C245 H248 0.950 . S
C246 C245 1.387 . S
C246 C249 1.387 . S
H247 C243 0.950 . S
H248 C245 0.950 . S
C249 C240 1.390 1_565 S
C249 H242 0.950 . S
C249 C246 1.387 . S
C250 C251 1.387 . S
C250 H254 0.950 . S
C250 C259 1.390 . S
C251 C250 1.387 . S
C251 C253 1.387 . S
H252 C259 0.950 . S
C253 C251 1.387 . S
C253 C255 1.390 . S
C253 H257 0.950 . S
H254 C250 0.950 . S
C255 C253 1.390 . S
C255 C256 1.387 . S
C255 H258 0.950 . S
C256 C255 1.387 . S
C256 C259 1.387 . S
H257 C253 0.950 . S
H258 C255 0.950 . S
C259 C250 1.390 . S
C259 H252 0.950 . S
C259 C256 1.387 . S
C260 C261 1.387 . S
C260 H264 0.950 1_556 S
C260 C269 1.390 1_655 S
C261 C260 1.387 . S
C261 C263 1.387 . S
H262 C269 0.950 . S
C263 C261 1.387 . S
C263 C265 1.390 . S
C263 H267 0.950 . S
H264 C260 0.950 1_554 S
C265 C263 1.390 . S
C265 C266 1.387 1_655 S
C265 H268 0.950 . S
C266 C265 1.387 1_455 S
C266 C269 1.387 . S
H267 C263 0.950 . S
H268 C265 0.950 . S
C269 C260 1.390 1_455 S
C269 H262 0.950 . S
C269 C266 1.387 . S
C270 C271 1.387 . S
C270 H274 0.950 . S
C270 C279 1.390 1_564 S
C271 C270 1.387 . S
C271 C273 1.387 . S
H272 C279 0.950 . S
C273 C271 1.387 . S
C273 C275 1.390 1_564 S
C273 H277 0.950 . S
H274 C270 0.950 . S
C275 C273 1.390 1_546 S
C275 C276 1.387 . S
C275 H278 0.950 . S
C276 C275 1.387 . S
C276 C279 1.387 . S
H277 C273 0.950 . S
H278 C275 0.950 . S
C279 C270 1.390 1_546 S
C279 H272 0.950 . S
C279 C276 1.387 . S
C280 C281 1.387 . S
C280 H284 0.950 . S
C280 C289 1.390 . S
C281 C280 1.387 . S
C281 C283 1.387 . S
H282 C289 0.950 . S
C283 C281 1.387 . S
C283 C285 1.390 . S
C283 H287 0.950 . S
H284 C280 0.950 . S
C285 C283 1.390 . S
C285 C286 1.387 . S
C285 H288 0.950 . S
C286 C285 1.387 . S
C286 C289 1.387 . S
H287 C283 0.950 . S
H288 C285 0.950 . S
C289 C280 1.390 . S
C289 H282 0.950 . S
C289 C286 1.387 . S
C290 C291 1.387 . S
C290 H294 0.950 . S
C290 C299 1.390 . S
C291 C290 1.387 . S
C291 C293 1.387 . S
H292 C299 0.950 . S
C293 C291 1.387 . S
C293 C295 1.390 1_655 S
C293 H297 0.950 . S
H294 C290 0.950 . S
C295 C293 1.390 1_455 S
C295 C296 1.387 . S
C295 H298 0.950 . S
C296 C295 1.387 . S
C296 C299 1.387 1_455 S
H297 C293 0.950 . S
H298 C295 0.950 . S
C299 C290 1.390 . S
C299 H292 0.950 . S
C299 C296 1.387 1_655 S
C300 C301 1.387 . S
C300 H304 0.950 . S
C300 C309 1.390 . S
C301 C300 1.387 . S
C301 C303 1.387 . S
H302 C309 0.950 . S
C303 C301 1.387 . S
C303 C305 1.390 . S
C303 H307 0.950 . S
H304 C300 0.950 . S
C305 C303 1.390 . S
C305 C306 1.387 . S
C305 H308 0.950 . S
C306 C305 1.387 . S
C306 C309 1.387 . S
H307 C303 0.950 . S
H308 C305 0.950 . S
C309 C300 1.390 . S
C309 H302 0.950 . S
C309 C306 1.387 . S
C310 C311 1.387 . S
C310 H314 0.950 . S
C310 C319 1.390 . S
C311 C310 1.387 . S
C311 C313 1.387 . S
H312 C319 0.950 . S
C313 C311 1.387 . S
C313 C315 1.390 . S
C313 H317 0.950 . S
H314 C310 0.950 . S
C315 C313 1.390 . S
C315 C316 1.387 . S
C315 H318 0.950 . S
C316 C315 1.387 . S
C316 C319 1.387 . S
H317 C313 0.950 . S
H318 C315 0.950 . S
C319 C310 1.390 . S
C319 H312 0.950 . S
C319 C316 1.387 . S
C320 C321 1.387 . S
C320 H324 0.950 . S
C320 C329 1.390 . S
C321 C320 1.387 . S
C321 C323 1.387 . S
H322 C329 0.950 . S
C323 C321 1.387 . S
C323 C325 1.390 . S
C323 H327 0.950 . S
H324 C320 0.950 . S
C325 C323 1.390 . S
C325 C326 1.387 . S
C325 H328 0.950 . S
C326 C325 1.387 . S
C326 C329 1.387 . S
H327 C323 0.950 . S
H328 C325 0.950 . S
C329 C320 1.390 . S
C329 H322 0.950 . S
C329 C326 1.387 . S
C330 C331 1.387 . S
C330 H334 0.950 1_556 S
C330 C339 1.390 . S
C331 C330 1.387 . S
C331 C333 1.387 . S
H332 C339 0.950 . S
C333 C331 1.387 . S
C333 C335 1.390 . S
C333 H337 0.950 . S
H334 C330 0.950 1_554 S
C335 C333 1.390 . S
C335 C336 1.387 . S
C335 H338 0.950 . S
C336 C335 1.387 . S
C336 C339 1.387 . S
H337 C333 0.950 . S
H338 C335 0.950 . S
C339 C330 1.390 . S
C339 H332 0.950 . S
C339 C336 1.387 . S
C340 C341 1.387 . S
C340 H344 0.950 . S
C340 C349 1.390 . S
C341 C340 1.387 . S
C341 C343 1.387 . S
H342 C349 0.950 . S
C343 C341 1.387 . S
C343 C345 1.390 . S
C343 H347 0.950 . S
H344 C340 0.950 . S
C345 C343 1.390 . S
C345 C346 1.387 . S
C345 H348 0.950 . S
C346 C345 1.387 . S
C346 C349 1.387 . S
H347 C343 0.950 . S
H348 C345 0.950 . S
C349 C340 1.390 . S
C349 H342 0.950 . S
C349 C346 1.387 . S
C350 C351 1.387 . S
C350 H354 0.950 . S
C350 C359 1.390 . S
C351 C350 1.387 . S
C351 C353 1.387 . S
H352 C359 0.950 . S
C353 C351 1.387 . S
C353 C355 1.390 . S
C353 H357 0.950 1_554 S
H354 C350 0.950 . S
C355 C353 1.390 . S
C355 C356 1.387 . S
C355 H358 0.950 . S
C356 C355 1.387 . S
C356 C359 1.387 . S
H357 C353 0.950 1_556 S
H358 C355 0.950 . S
C359 C350 1.390 . S
C359 H352 0.950 . S
C359 C356 1.387 . S
C181 C16 1.124 . S
C186 C27 1.124 1_554 S
C191 C57 1.124 . S
C196 C46 1.124 1_554 S
C201 C87 1.123 . S
C206 C76 1.123 . S
C211 C106 1.123 . S
C216 C117 1.123 . S
C221 C147 1.124 . S
C226 C136 1.124 1_556 S
C231 C177 1.123 . S
C236 C166 1.123 . S
C241 C1 2.002 . S
C246 C151 2.002 . S
C251 N6 1.686 . S
C256 N36 1.686 . S
C261 C61 2.002 . S
C266 C31 2.003 . S
C271 N96 1.689 . S
C276 N66 1.689 . S
C281 C121 2.005 . S
C286 C91 2.005 . S
C291 N126 1.686 . S
C296 N156 1.686 . S
C301 C10 1.993 . S
C306 N134 1.782 . S
C311 N44 1.784 . S
C316 C160 1.993 . S
C321 C70 1.991 . S
C326 N14 1.784 . S
C331 N104 1.785 . S
C336 C40 1.992 . S
C341 C130 1.991 . S
C346 N74 1.781 . S
C351 C100 1.993 . S
C356 N164 1.785 . S
