# Generated by pormake.
# Topology uoq, (4)-cn, num edge types: 1
# Building blocks:
#     Node 0, Type 0, BuildingBlock: ICAMEG_clean_sbu_1, # of connection points: 4
#     Node 1, Type 0, BuildingBlock: ICAMEG_clean_sbu_1, # of connection points: 4
#     Node 2, Type 0, BuildingBlock: ICAMEG_clean_sbu_1, # of connection points: 4
#     Node 3, Type 0, BuildingBlock: ICAMEG_clean_sbu_1, # of connection points: 4
#     Node 4, Type 0, BuildingBlock: ICAMEG_clean_sbu_1, # of connection points: 4
#     Node 5, Type 0, BuildingBlock: ICAMEG_clean_sbu_1, # of connection points: 4
#     Node 6, Type 0, BuildingBlock: ICAMEG_clean_sbu_1, # of connection points: 4
#     Node 7, Type 0, BuildingBlock: ICAMEG_clean_sbu_1, # of connection points: 4
#     Node 8, Type 0, BuildingBlock: ICAMEG_clean_sbu_1, # of connection points: 4
#     Node 9, Type 0, BuildingBlock: ICAMEG_clean_sbu_1, # of connection points: 4
#     Node 10, Type 0, BuildingBlock: ICAMEG_clean_sbu_1, # of connection points: 4
#     Node 11, Type 0, BuildingBlock: ICAMEG_clean_sbu_1, # of connection points: 4
#     Edge 12, Type (0, 0), BuildingBlock: ZUJKAS_clean_linker_0, # of connection points: 2
#     Edge 13, Type (0, 0), BuildingBlock: ZUJKAS_clean_linker_0, # of connection points: 2
#     Edge 14, Type (0, 0), BuildingBlock: ZUJKAS_clean_linker_0, # of connection points: 2
#     Edge 15, Type (0, 0), BuildingBlock: ZUJKAS_clean_linker_0, # of connection points: 2
#     Edge 16, Type (0, 0), BuildingBlock: ZUJKAS_clean_linker_0, # of connection points: 2
#     Edge 17, Type (0, 0), BuildingBlock: ZUJKAS_clean_linker_0, # of connection points: 2
#     Edge 18, Type (0, 0), BuildingBlock: ZUJKAS_clean_linker_0, # of connection points: 2
#     Edge 19, Type (0, 0), BuildingBlock: ZUJKAS_clean_linker_0, # of connection points: 2
#     Edge 20, Type (0, 0), BuildingBlock: ZUJKAS_clean_linker_0, # of connection points: 2
#     Edge 21, Type (0, 0), BuildingBlock: ZUJKAS_clean_linker_0, # of connection points: 2
#     Edge 22, Type (0, 0), BuildingBlock: ZUJKAS_clean_linker_0, # of connection points: 2
#     Edge 23, Type (0, 0), BuildingBlock: ZUJKAS_clean_linker_0, # of connection points: 2
#     Edge 24, Type (0, 0), BuildingBlock: ZUJKAS_clean_linker_0, # of connection points: 2
#     Edge 25, Type (0, 0), BuildingBlock: ZUJKAS_clean_linker_0, # of connection points: 2
#     Edge 26, Type (0, 0), BuildingBlock: ZUJKAS_clean_linker_0, # of connection points: 2
#     Edge 27, Type (0, 0), BuildingBlock: ZUJKAS_clean_linker_0, # of connection points: 2
#     Edge 28, Type (0, 0), BuildingBlock: ZUJKAS_clean_linker_0, # of connection points: 2
#     Edge 29, Type (0, 0), BuildingBlock: ZUJKAS_clean_linker_0, # of connection points: 2
#     Edge 30, Type (0, 0), BuildingBlock: ZUJKAS_clean_linker_0, # of connection points: 2
#     Edge 31, Type (0, 0), BuildingBlock: ZUJKAS_clean_linker_0, # of connection points: 2
#     Edge 32, Type (0, 0), BuildingBlock: ZUJKAS_clean_linker_0, # of connection points: 2
#     Edge 33, Type (0, 0), BuildingBlock: ZUJKAS_clean_linker_0, # of connection points: 2
#     Edge 34, Type (0, 0), BuildingBlock: ZUJKAS_clean_linker_0, # of connection points: 2
#     Edge 35, Type (0, 0), BuildingBlock: ZUJKAS_clean_linker_0, # of connection points: 2
# Relax obj value: 0.256
# Max RMSD: 0.234
# Mean RMSD: 0.234
data_MOF--net-uoq--node1-ICAMEG_clean_sbu_1--edge1-ZUJKAS_clean_linker_0
_symmetry_space_group_name_H-M    P1
_symmetry_Int_Tables_number       1
_symmetry_cell_setting            triclinic
loop_
_symmetry_equiv_pos_as_xyz
'x, y, z'
_cell_length_a     77.918829
_cell_length_b     77.886461
_cell_length_c     30.920411
_cell_angle_alpha  89.958456
_cell_angle_beta   89.956412
_cell_angle_gamma 120.01697
loop_
_atom_site_label
_atom_site_type_symbol
_atom_site_fract_x
_atom_site_fract_y
_atom_site_fract_z
_atom_type_partial_charge
Co0 Co 0.32339 0.46011 0.31683 0.0
Co1 Co 0.33788 0.46412 0.20964 0.0
O2 O 0.31973 0.46309 0.25521 0.0
C3 C 0.32231 0.49411 0.35626 0.0
O4 O 0.34075 0.50064 0.36783 0.0
C5 C 0.29631 0.43657 0.17665 0.0
O6 O 0.29058 0.42965 0.2159 0.0
O7 O 0.3368 0.43924 0.23221 0.0
O8 O 0.33296 0.4412 0.30386 0.0
H9 H 0.39697 0.462 0.15103 0.0
H10 H 0.28475 0.45429 0.28676 0.0
O11 O 0.31358 0.47894 0.3317 0.0
H12 H 0.26939 0.39102 0.35544 0.0
H13 H 0.30453 0.45165 0.47476 0.0
H14 H 0.35519 0.45964 0.36831 0.0
H15 H 0.30371 0.41903 0.35317 0.0
H16 H 0.29952 0.45459 0.39701 0.0
O17 O 0.31463 0.44863 0.16909 0.0
H18 H 0.37425 0.46096 0.20784 0.0
H19 H 0.33971 0.46977 0.11376 0.0
H20 H 0.3607 0.45654 0.44577 0.0
H21 H 0.25013 0.42685 0.28912 0.0
H22 H 0.33528 0.45256 0.4996 0.0
H23 H 0.24228 0.39487 0.3234 0.0
O24 O 0.35115 0.48258 0.31353 0.0
H25 H 0.31009 0.5076 0.16589 0.0
H26 H 0.371 0.50377 0.18265 0.0
H27 H 0.37338 0.53483 0.15687 0.0
H28 H 0.34276 0.53686 0.14811 0.0
H29 H 0.3084 0.47693 0.19216 0.0
H30 H 0.36196 0.47076 0.0559 0.0
H31 H 0.39087 0.46691 0.07438 0.0
O32 O 0.36161 0.48058 0.24714 0.0
C33 C 0.33679 0.43363 0.27127 0.0
C34 C 0.3844 0.46365 0.14254 0.0
C35 C 0.36473 0.46854 0.08915 0.0
N36 N 0.35557 0.46515 0.16417 0.0
C37 C 0.37147 0.46306 0.17459 0.0
C38 C 0.35211 0.46785 0.12206 0.0
C39 C 0.38096 0.4664 0.09955 0.0
C40 C 0.28144 0.44048 0.30208 0.0
N41 N 0.29629 0.43819 0.31942 0.0
C42 C 0.26181 0.42497 0.30316 0.0
C43 C 0.25742 0.40702 0.32232 0.0
C44 C 0.27263 0.40483 0.34019 0.0
C45 C 0.29208 0.42067 0.33845 0.0
C46 C 0.3157 0.45335 0.45162 0.0
C47 C 0.34401 0.4578 0.39152 0.0
C48 C 0.31296 0.45504 0.40754 0.0
N49 N 0.32704 0.45726 0.37809 0.0
C50 C 0.34723 0.45609 0.43534 0.0
C51 C 0.33296 0.45387 0.46553 0.0
C52 C 0.36474 0.48802 0.28507 0.0
C53 C 0.32353 0.50688 0.16942 0.0
C54 C 0.35761 0.50454 0.17916 0.0
C55 C 0.35905 0.52217 0.16442 0.0
C56 C 0.34187 0.5233 0.1595 0.0
N57 N 0.33956 0.48844 0.18859 0.0
C58 C 0.32266 0.4895 0.18412 0.0
Co59 Co 0.87457 0.30937 0.65583 0.0
Co60 Co 0.88211 0.32766 0.55133 0.0
O61 O 0.86646 0.30776 0.59549 0.0
C62 C 0.83599 0.30668 0.68116 0.0
O63 O 0.84235 0.3249 0.66794 0.0
C64 C 0.86932 0.28779 0.51054 0.0
O65 O 0.87254 0.2815 0.54735 0.0
O66 O 0.9069 0.32692 0.56709 0.0
O67 O 0.90269 0.31989 0.63825 0.0
H68 H 0.94047 0.39014 0.49464 0.0
H69 H 0.8416 0.27162 0.62211 0.0
O70 O 0.8464 0.29842 0.67546 0.0
H71 H 0.89152 0.25529 0.67431 0.0
H72 H 0.86712 0.28541 0.80982 0.0
H73 H 0.90851 0.33902 0.70762 0.0
H74 H 0.89715 0.28928 0.681 0.0
H75 H 0.85733 0.28328 0.73334 0.0
O76 O 0.87401 0.30594 0.50647 0.0
H77 H 0.92079 0.36513 0.54998 0.0
H78 H 0.87578 0.33227 0.45774 0.0
H79 H 0.91898 0.34161 0.7837 0.0
H80 H 0.83515 0.23733 0.61546 0.0
H81 H 0.8982 0.31468 0.83541 0.0
H82 H 0.86028 0.22901 0.64142 0.0
O83 O 0.87961 0.33703 0.6603 0.0
H84 H 0.80964 0.29897 0.5184 0.0
H85 H 0.87366 0.36061 0.537 0.0
H86 H 0.84378 0.36257 0.52016 0.0
H87 H 0.81148 0.33159 0.51056 0.0
H88 H 0.83982 0.29767 0.53575 0.0
H89 H 0.89502 0.35685 0.40132 0.0
H90 H 0.9276 0.38608 0.41964 0.0
O91 O 0.88965 0.34977 0.59381 0.0
C92 C 0.91337 0.3254 0.60422 0.0
C93 C 0.92632 0.37744 0.48621 0.0
C94 C 0.90083 0.35874 0.43383 0.0
N95 N 0.89725 0.34714 0.50708 0.0
C96 C 0.91513 0.36321 0.51742 0.0
C97 C 0.89005 0.34481 0.46589 0.0
C98 C 0.91909 0.37515 0.44414 0.0
C99 C 0.85254 0.26808 0.63379 0.0
N100 N 0.86985 0.28249 0.6515 0.0
C101 C 0.84883 0.24865 0.6298 0.0
C102 C 0.86295 0.244 0.6443 0.0
C103 C 0.8805 0.25875 0.66266 0.0
C104 C 0.8837 0.27801 0.66605 0.0
C105 C 0.87631 0.29722 0.78759 0.0
C106 C 0.89946 0.32717 0.72983 0.0
C107 C 0.87082 0.29613 0.74425 0.0
N108 N 0.88241 0.31095 0.71593 0.0
C109 C 0.90543 0.32875 0.77292 0.0
C110 C 0.89375 0.31365 0.80192 0.0
C111 C 0.88659 0.35152 0.63373 0.0
C112 C 0.82364 0.31257 0.52233 0.0
C113 C 0.85967 0.34705 0.533 0.0
C114 C 0.84279 0.34826 0.52338 0.0
C115 C 0.82468 0.33088 0.51799 0.0
N116 N 0.85857 0.32904 0.53696 0.0
C117 C 0.84082 0.31194 0.53198 0.0
Co118 Co 0.57167 0.87373 0.98043 0.0
Co119 Co 0.56067 0.87788 0.87434 0.0
O120 O 0.56626 0.86414 0.92079 0.0
C121 C 0.53865 0.83305 1.00471 0.0
O122 O 0.52545 0.83665 0.98709 0.0
C123 C 0.58835 0.86518 0.83531 0.0
O124 O 0.59771 0.86853 0.87232 0.0
O125 O 0.58568 0.90355 0.88777 0.0
O126 O 0.58683 0.90186 0.96039 0.0
H127 H 0.55382 0.93326 0.80897 0.0
H128 H 0.58161 0.84322 0.95314 0.0
O129 O 0.55708 0.84575 1.00242 0.0
H130 H 0.64463 0.89997 1.00284 0.0
H131 H 0.58886 0.87194 0.1368 0.0
H132 H 0.57103 0.90653 0.0276 0.0
H133 H 0.61369 0.9013 1.00539 0.0
H134 H 0.58285 0.86053 0.06108 0.0
O135 O 0.57473 0.86961 0.83079 0.0
H136 H 0.56053 0.91578 0.86718 0.0
H137 H 0.54876 0.86852 0.78169 0.0
H138 H 0.57711 0.91855 0.1029 0.0
H139 H 0.61213 0.84108 0.95078 0.0
H140 H 0.58608 0.90121 0.1581 0.0
H141 H 0.64396 0.86965 0.9755 0.0
O142 O 0.54693 0.87524 0.98194 0.0
H143 H 0.51918 0.80425 0.85133 0.0
H144 H 0.51861 0.86719 0.85962 0.0
H145 H 0.48737 0.83603 0.84651 0.0
H146 H 0.48752 0.80427 0.84213 0.0
H147 H 0.55005 0.83571 0.86485 0.0
H148 H 0.54204 0.88552 0.72244 0.0
H149 H 0.5445 0.91811 0.73592 0.0
O150 O 0.54555 0.88563 0.91506 0.0
C151 C 0.59247 0.91141 0.92485 0.0
C152 C 0.55274 0.91909 0.80265 0.0
C153 C 0.54616 0.89231 0.75409 0.0
N154 N 0.5552 0.89123 0.82786 0.0
C155 C 0.55656 0.90914 0.83551 0.0
C156 C 0.55009 0.8828 0.78773 0.0
C157 C 0.54752 0.91058 0.76168 0.0
C158 C 0.59537 0.85565 0.9643 0.0
N159 N 0.5959 0.87244 0.97903 0.0
C160 C 0.61262 0.85438 0.96274 0.0
C161 C 0.63048 0.87042 0.97655 0.0
C162 C 0.63088 0.88745 0.99181 0.0
C163 C 0.61334 0.88818 0.99288 0.0
C164 C 0.58499 0.87965 0.11303 0.0
C165 C 0.57506 0.89898 0.05137 0.0
C166 C 0.58153 0.87323 0.07011 0.0
N167 N 0.57673 0.88294 0.03986 0.0
C168 C 0.57843 0.90582 0.09399 0.0
C169 C 0.58344 0.89607 0.12495 0.0
C170 C 0.53955 0.88184 0.95421 0.0
C171 C 0.51893 0.81801 0.85297 0.0
C172 C 0.51883 0.85344 0.85782 0.0
C173 C 0.50108 0.83584 0.85033 0.0
C174 C 0.50117 0.81802 0.84787 0.0
N175 N 0.53623 0.85334 0.86255 0.0
C176 C 0.5364 0.8359 0.86043 0.0
Co177 Co 0.71106 0.57138 0.30953 0.0
Co178 Co 0.69513 0.55843 0.20455 0.0
O179 O 0.71481 0.56487 0.25051 0.0
C180 C 0.7191 0.53891 0.33566 0.0
O181 O 0.70268 0.52556 0.31695 0.0
C182 C 0.73488 0.58602 0.16251 0.0
O183 O 0.74064 0.5973 0.19707 0.0
O184 O 0.69465 0.58375 0.21549 0.0
O185 O 0.69795 0.58608 0.28795 0.0
H186 H 0.63248 0.5504 0.13922 0.0
H187 H 0.75108 0.58087 0.28021 0.0
O188 O 0.72461 0.55728 0.33314 0.0
H189 H 0.75806 0.6447 0.32601 0.0
H190 H 0.73112 0.59174 0.46428 0.0
H191 H 0.67799 0.57175 0.35615 0.0
H192 H 0.72583 0.61378 0.33173 0.0
H193 H 0.73594 0.58405 0.38946 0.0
O194 O 0.71718 0.57145 0.16016 0.0
H195 H 0.65707 0.55819 0.197 0.0
H196 H 0.69191 0.54481 0.11304 0.0
H197 H 0.67265 0.57959 0.43046 0.0
H198 H 0.78368 0.61137 0.27455 0.0
H199 H 0.69933 0.58965 0.48514 0.0
H200 H 0.78729 0.6436 0.29734 0.0
O201 O 0.68483 0.54659 0.31314 0.0
H202 H 0.72685 0.51635 0.1857 0.0
H203 H 0.66354 0.51613 0.19367 0.0
H204 H 0.66323 0.4846 0.18353 0.0
H205 H 0.69505 0.48457 0.17932 0.0
H206 H 0.72649 0.54753 0.19627 0.0
H207 H 0.66779 0.53701 0.05424 0.0
H208 H 0.63777 0.53973 0.06716 0.0
O209 O 0.67256 0.5442 0.24643 0.0
C210 C 0.69379 0.59113 0.25199 0.0
C211 C 0.64552 0.54921 0.13314 0.0
C212 C 0.66535 0.54171 0.08544 0.0
N213 N 0.67599 0.55212 0.15841 0.0
C214 C 0.65951 0.55363 0.16575 0.0
C215 C 0.67902 0.54626 0.11883 0.0
C216 C 0.6485 0.54322 0.09273 0.0
C217 C 0.75258 0.59482 0.29045 0.0
N218 N 0.73655 0.59558 0.30595 0.0
C219 C 0.77105 0.61205 0.28706 0.0
C220 C 0.77306 0.63013 0.2998 0.0
C221 C 0.75667 0.63076 0.31582 0.0
C222 C 0.73842 0.61323 0.31872 0.0
C223 C 0.71939 0.5874 0.44073 0.0
C224 C 0.68972 0.57624 0.37967 0.0
C225 C 0.72201 0.58296 0.39833 0.0
N226 N 0.70731 0.57758 0.36835 0.0
C227 C 0.68659 0.5806 0.42174 0.0
C228 C 0.70156 0.58623 0.45241 0.0
C229 C 0.67065 0.53876 0.28595 0.0
C230 C 0.71289 0.51618 0.18732 0.0
C231 C 0.67746 0.51627 0.19198 0.0
C232 C 0.67718 0.49835 0.18616 0.0
C233 C 0.69504 0.49835 0.18379 0.0
N234 N 0.69503 0.53372 0.1952 0.0
C235 C 0.71259 0.53381 0.19314 0.0
Co236 Co 0.16037 0.70285 0.65615 0.0
Co237 Co 0.14824 0.68893 0.55037 0.0
O238 O 0.16632 0.70736 0.59439 0.0
C239 C 0.19713 0.7072 0.69325 0.0
O240 O 0.18623 0.68868 0.70567 0.0
C241 C 0.16293 0.73038 0.51572 0.0
O242 O 0.16182 0.73636 0.55474 0.0
O243 O 0.12554 0.69147 0.57432 0.0
O244 O 0.13131 0.6907 0.6451 0.0
H245 H 0.08453 0.63135 0.49675 0.0
H246 H 0.1905 0.74327 0.6283 0.0
O247 O 0.18951 0.71509 0.66951 0.0
H248 H 0.13803 0.75109 0.69873 0.0
H249 H 0.17007 0.72063 0.81457 0.0
H250 H 0.13074 0.66873 0.70758 0.0
H251 H 0.13522 0.71821 0.69379 0.0
H252 H 0.17744 0.72677 0.7367 0.0
O253 O 0.15641 0.71197 0.50874 0.0
H254 H 0.10759 0.65409 0.55169 0.0
H255 H 0.15069 0.68559 0.45456 0.0
H256 H 0.1228 0.66199 0.78516 0.0
H257 H 0.1941 0.77652 0.63328 0.0
H258 H 0.14255 0.68805 0.83926 0.0
H259 H 0.16769 0.78057 0.66852 0.0
O260 O 0.15805 0.67641 0.65013 0.0
H261 H 0.21843 0.71352 0.50206 0.0
H262 H 0.15268 0.65442 0.52449 0.0
H263 H 0.1802 0.65037 0.49746 0.0
H264 H 0.21335 0.68007 0.48585 0.0
H265 H 0.19058 0.7169 0.52958 0.0
H266 H 0.12803 0.66327 0.39854 0.0
H267 H 0.0947 0.63587 0.41953 0.0
O268 O 0.14043 0.66516 0.58907 0.0
C269 C 0.1198 0.68883 0.61388 0.0
C270 C 0.09902 0.64322 0.4872 0.0
C271 C 0.12342 0.66115 0.43208 0.0
N272 N 0.13049 0.67115 0.5064 0.0
C273 C 0.11216 0.65613 0.51818 0.0
C274 C 0.13616 0.6738 0.46395 0.0
C275 C 0.10473 0.64577 0.44388 0.0
C276 C 0.17905 0.74495 0.64413 0.0
N277 N 0.16267 0.72879 0.6607 0.0
C278 C 0.18113 0.7638 0.64665 0.0
C279 C 0.16628 0.76605 0.66634 0.0
C280 C 0.14962 0.74952 0.68323 0.0
C281 C 0.14805 0.73089 0.68008 0.0
C282 C 0.16134 0.70917 0.79132 0.0
C283 C 0.13937 0.68016 0.73091 0.0
C284 C 0.16543 0.71256 0.74717 0.0
N285 N 0.15449 0.69813 0.71757 0.0
C286 C 0.13481 0.67626 0.7748 0.0
C287 C 0.1459 0.69088 0.80514 0.0
C288 C 0.14794 0.66252 0.62344 0.0
C289 C 0.20403 0.70048 0.50682 0.0
C290 C 0.16706 0.66743 0.51968 0.0
C291 C 0.18259 0.66503 0.50428 0.0
C292 C 0.20118 0.6817 0.49778 0.0
N293 N 0.16993 0.68591 0.52824 0.0
C294 C 0.18816 0.7023 0.52224 0.0
Co295 Co 0.45655 0.1498 0.98729 0.0
Co296 Co 0.46839 0.1443 0.88299 0.0
O297 O 0.46245 0.15864 0.92728 0.0
C298 C 0.48928 0.19099 1.00749 0.0
O299 O 0.50223 0.18747 0.98821 0.0
C300 C 0.44078 0.15603 0.84002 0.0
O301 O 0.42981 0.15106 0.87508 0.0
O302 O 0.44308 0.11886 0.89648 0.0
O303 O 0.44157 0.12143 0.96881 0.0
H304 H 0.47591 0.08833 0.82357 0.0
H305 H 0.44672 0.17957 0.95423 0.0
O306 O 0.47091 0.17801 1.00763 0.0
H307 H 0.38351 0.12402 1.0072 0.0
H308 H 0.43803 0.15324 0.14194 0.0
H309 H 0.45664 0.11746 0.03762 0.0
H310 H 0.41449 0.12287 0.01312 0.0
H311 H 0.44485 0.16396 0.06575 0.0
O312 O 0.45518 0.15264 0.83764 0.0
H313 H 0.46876 0.10641 0.87953 0.0
H314 H 0.48105 0.15267 0.79048 0.0
H315 H 0.44968 0.10608 0.11338 0.0
H316 H 0.41617 0.18154 0.94829 0.0
H317 H 0.44032 0.12403 0.16614 0.0
H318 H 0.38425 0.15357 0.97467 0.0
O319 O 0.4814 0.14853 0.99108 0.0
H320 H 0.51094 0.21762 0.85681 0.0
H321 H 0.51046 0.15435 0.87182 0.0
H322 H 0.54209 0.18516 0.85888 0.0
H323 H 0.54247 0.21709 0.85113 0.0
H324 H 0.47966 0.18651 0.87021 0.0
H325 H 0.48823 0.13508 0.73344 0.0
H326 H 0.48573 0.10268 0.74983 0.0
O327 O 0.48271 0.13656 0.92593 0.0
C328 C 0.43611 0.11141 0.93386 0.0
C329 C 0.47698 0.1024 0.81596 0.0
C330 C 0.48387 0.12862 0.76538 0.0
N331 N 0.47421 0.13044 0.83827 0.0
C332 C 0.47288 0.11267 0.84753 0.0
C333 C 0.47965 0.13846 0.79778 0.0
C334 C 0.48249 0.11046 0.77461 0.0
C335 C 0.4329 0.1674 0.966 0.0
N336 N 0.43233 0.15101 0.98356 0.0
C337 C 0.41565 0.16857 0.96246 0.0
C338 C 0.39774 0.15286 0.97721 0.0
C339 C 0.3973 0.13627 0.99539 0.0
C340 C 0.41485 0.13562 0.99836 0.0
C341 C 0.44207 0.14528 0.11924 0.0
C342 C 0.45244 0.12527 0.06031 0.0
C343 C 0.44601 0.15132 0.07608 0.0
N344 N 0.451 0.14126 0.04717 0.0
C345 C 0.44858 0.11879 0.10321 0.0
C346 C 0.44335 0.12888 0.1328 0.0
C347 C 0.48869 0.14123 0.96486 0.0
C348 C 0.51095 0.20379 0.85994 0.0
C349 C 0.51047 0.16818 0.86854 0.0
C350 C 0.52844 0.18558 0.86116 0.0
C351 C 0.52864 0.20349 0.85681 0.0
N352 N 0.49316 0.16856 0.87135 0.0
C353 C 0.49326 0.18609 0.86736 0.0
Co354 Co 0.57565 0.70942 0.36539 0.0
Co355 Co 0.56473 0.692 0.47043 0.0
O356 O 0.56961 0.71187 0.42567 0.0
C357 C 0.54081 0.71424 0.34175 0.0
O358 O 0.52835 0.69656 0.35704 0.0
C359 C 0.59191 0.732 0.5111 0.0
O360 O 0.60135 0.7384 0.47424 0.0
O361 O 0.58999 0.69205 0.45522 0.0
O362 O 0.59232 0.69788 0.38349 0.0
H363 H 0.55887 0.6291 0.52935 0.0
H364 H 0.58252 0.74818 0.39769 0.0
O365 O 0.55946 0.72142 0.34539 0.0
H366 H 0.64747 0.76089 0.34406 0.0
H367 H 0.5923 0.73173 0.21038 0.0
H368 H 0.57814 0.67839 0.31493 0.0
H369 H 0.61802 0.7275 0.33896 0.0
H370 H 0.58526 0.73499 0.28674 0.0
O371 O 0.57854 0.7138 0.51511 0.0
H372 H 0.56493 0.65402 0.47326 0.0
H373 H 0.55344 0.688 0.56382 0.0
H374 H 0.5854 0.67466 0.23901 0.0
H375 H 0.61146 0.78192 0.40267 0.0
H376 H 0.59252 0.70145 0.18612 0.0
H377 H 0.64426 0.78841 0.37601 0.0
O378 O 0.55213 0.68226 0.36192 0.0
H379 H 0.52205 0.72225 0.50049 0.0
H380 H 0.523 0.65974 0.4848 0.0
H381 H 0.49144 0.65861 0.50055 0.0
H382 H 0.49084 0.69003 0.50868 0.0
H383 H 0.55324 0.72272 0.48426 0.0
H384 H 0.54737 0.66352 0.62098 0.0
H385 H 0.55002 0.63378 0.6039 0.0
O386 O 0.5499 0.66974 0.4284 0.0
C387 C 0.59757 0.69273 0.41792 0.0
C388 C 0.55774 0.64203 0.53726 0.0
C389 C 0.55131 0.66137 0.58868 0.0
N390 N 0.5598 0.67258 0.51528 0.0
C391 C 0.56121 0.65622 0.50562 0.0
C392 C 0.5549 0.67525 0.55621 0.0
C393 C 0.55278 0.64467 0.57906 0.0
C394 C 0.59672 0.75093 0.38575 0.0
N395 N 0.59866 0.73582 0.36861 0.0
C396 C 0.61306 0.77005 0.38877 0.0
C397 C 0.63147 0.77367 0.37387 0.0
C398 C 0.63329 0.75823 0.35605 0.0
C399 C 0.61662 0.7393 0.35361 0.0
C400 C 0.58925 0.71997 0.23313 0.0
C401 C 0.58136 0.69018 0.29219 0.0
C402 C 0.58518 0.7217 0.2764 0.0
N403 N 0.58142 0.70695 0.30537 0.0
C404 C 0.5854 0.68795 0.2492 0.0
C405 C 0.58938 0.70298 0.21954 0.0
C406 C 0.54465 0.6679 0.3888 0.0
C407 C 0.52214 0.70846 0.49722 0.0
C408 C 0.52288 0.67349 0.48821 0.0
C409 C 0.50496 0.67275 0.49719 0.0
C410 C 0.50463 0.69038 0.50175 0.0
N411 N 0.54004 0.69128 0.48406 0.0
C412 C 0.53979 0.70863 0.48822 0.0
Co413 Co 0.87442 0.55958 0.70388 0.0
Co414 Co 0.88514 0.55672 0.81038 0.0
O415 O 0.86778 0.55758 0.76534 0.0
C416 C 0.83792 0.52716 0.66536 0.0
O417 O 0.84868 0.5192 0.65439 0.0
C418 C 0.87115 0.58413 0.84463 0.0
O419 O 0.87355 0.59222 0.80623 0.0
O420 O 0.90835 0.58201 0.78775 0.0
O421 O 0.9033 0.57658 0.71646 0.0
H422 H 0.94779 0.5617 0.86773 0.0
H423 H 0.84392 0.56937 0.73146 0.0
O424 O 0.84544 0.54264 0.68913 0.0
H425 H 0.89659 0.63038 0.66336 0.0
H426 H 0.86569 0.56832 0.54527 0.0
H427 H 0.90482 0.55601 0.65336 0.0
H428 H 0.89958 0.60038 0.66766 0.0
H429 H 0.85783 0.56672 0.62292 0.0
O430 O 0.8767 0.57147 0.8514 0.0
H431 H 0.92557 0.56205 0.81146 0.0
H432 H 0.88146 0.55034 0.90607 0.0
H433 H 0.91328 0.55764 0.57602 0.0
H434 H 0.84015 0.59894 0.72717 0.0
H435 H 0.89362 0.5638 0.52136 0.0
H436 H 0.86665 0.62975 0.69308 0.0
O437 O 0.87711 0.53563 0.70922 0.0
H438 H 0.81417 0.51154 0.85413 0.0
H439 H 0.87981 0.51744 0.83675 0.0
H440 H 0.85165 0.48587 0.86208 0.0
H441 H 0.81854 0.48279 0.87114 0.0
H442 H 0.84266 0.54275 0.82831 0.0
H443 H 0.90327 0.55001 0.96338 0.0
H444 H 0.93667 0.55565 0.94434 0.0
O445 O 0.89307 0.54077 0.7723 0.0
C446 C 0.91448 0.58569 0.74849 0.0
C447 C 0.93325 0.55919 0.87643 0.0
C448 C 0.90828 0.55267 0.93012 0.0
N449 N 0.90221 0.55617 0.8554 0.0
C450 C 0.92059 0.55934 0.84469 0.0
C451 C 0.89602 0.55295 0.89752 0.0
C452 C 0.92702 0.55581 0.91941 0.0
C453 C 0.85541 0.58266 0.71615 0.0
N454 N 0.87194 0.58312 0.69979 0.0
C455 C 0.85324 0.59938 0.714 0.0
C456 C 0.86813 0.61668 0.69495 0.0
C457 C 0.88495 0.61705 0.67833 0.0
C458 C 0.88661 0.60004 0.68108 0.0
C459 C 0.87439 0.56566 0.56877 0.0
C460 C 0.89624 0.55877 0.62979 0.0
C461 C 0.87001 0.56473 0.6128 0.0
N462 N 0.88089 0.56131 0.64271 0.0
C463 C 0.90109 0.55966 0.58604 0.0
C464 C 0.89005 0.56311 0.55539 0.0
C465 C 0.88668 0.53144 0.7366 0.0
C466 C 0.82853 0.51271 0.85044 0.0
C467 C 0.86544 0.51621 0.84035 0.0
C468 C 0.84955 0.4983 0.85484 0.0
C469 C 0.83099 0.49658 0.85993 0.0
N470 N 0.86295 0.53201 0.83127 0.0
C471 C 0.84476 0.53039 0.83596 0.0
Co472 Co 0.32066 0.87525 0.04666 0.0
Co473 Co 0.33745 0.88049 0.15198 0.0
O474 O 0.31777 0.86609 0.10655 0.0
C475 C 0.31574 0.8358 0.0209 0.0
O476 O 0.33325 0.8407 0.0366 0.0
C477 C 0.29728 0.86749 0.1925 0.0
O478 O 0.29096 0.87072 0.15577 0.0
O479 O 0.33775 0.906 0.13793 0.0
O480 O 0.33225 0.90327 0.06609 0.0
H481 H 0.40016 0.93674 0.21326 0.0
H482 H 0.28161 0.84321 0.07738 0.0
O483 O 0.3086 0.84728 0.02523 0.0
H484 H 0.26975 0.8964 0.02643 0.0
H485 H 0.29929 0.87153 0.89151 0.0
H486 H 0.35215 0.90918 0.99781 0.0
H487 H 0.30306 0.90014 0.02154 0.0
H488 H 0.29552 0.86033 0.9673 0.0
O489 O 0.31546 0.87226 0.19645 0.0
H490 H 0.37548 0.91853 0.15643 0.0
H491 H 0.34095 0.87218 0.24496 0.0
H492 H 0.35639 0.92106 0.92248 0.0
H493 H 0.24795 0.83862 0.08213 0.0
H494 H 0.32985 0.90216 0.86872 0.0
H495 H 0.24189 0.8654 0.0568 0.0
O496 O 0.34771 0.87866 0.04331 0.0
H497 H 0.30638 0.80716 0.17854 0.0
H498 H 0.36932 0.87046 0.16606 0.0
H499 H 0.37 0.83967 0.18038 0.0
H500 H 0.33836 0.80773 0.18689 0.0
H501 H 0.30637 0.83824 0.16377 0.0
H502 H 0.36516 0.88992 0.30284 0.0
H503 H 0.39506 0.92243 0.28715 0.0
O504 O 0.35992 0.88808 0.11026 0.0
C505 C 0.33725 0.9133 0.10101 0.0
C506 C 0.38716 0.92262 0.22056 0.0
C507 C 0.36751 0.89635 0.27083 0.0
N508 N 0.35667 0.89442 0.19739 0.0
C509 C 0.37311 0.91226 0.1885 0.0
C510 C 0.35377 0.88643 0.23796 0.0
C511 C 0.38429 0.91458 0.26199 0.0
C512 C 0.27905 0.85487 0.06604 0.0
N513 N 0.29434 0.87205 0.04976 0.0
C514 C 0.25998 0.85221 0.06892 0.0
C515 C 0.25659 0.86726 0.05477 0.0
C516 C 0.27223 0.88467 0.03783 0.0
C517 C 0.2911 0.8868 0.0355 0.0
C518 C 0.31095 0.8799 0.91465 0.0
C519 C 0.34047 0.90095 0.97469 0.0
C520 C 0.30893 0.8736 0.9576 0.0
N521 N 0.32355 0.88416 0.98706 0.0
C522 C 0.34299 0.90771 0.93204 0.0
C523 C 0.32809 0.8971 0.90188 0.0
C524 C 0.36189 0.88497 0.0705 0.0
C525 C 0.32026 0.821 0.17597 0.0
C526 C 0.35548 0.85663 0.16876 0.0
C527 C 0.35596 0.83924 0.17694 0.0
C528 C 0.33821 0.82132 0.1806 0.0
N529 N 0.33781 0.85622 0.16453 0.0
C530 C 0.32035 0.83868 0.1678 0.0
Co531 Co 0.45892 0.31853 0.37281 0.0
Co532 Co 0.47067 0.33358 0.47849 0.0
O533 O 0.46476 0.31427 0.43202 0.0
C534 C 0.49155 0.31067 0.34695 0.0
O535 O 0.50483 0.32739 0.36476 0.0
C536 C 0.4429 0.29345 0.51878 0.0
O537 O 0.43214 0.28785 0.48346 0.0
O538 O 0.44542 0.33395 0.4665 0.0
O539 O 0.44423 0.33181 0.3938 0.0
H540 H 0.47732 0.39545 0.54522 0.0
H541 H 0.44879 0.27803 0.40009 0.0
O542 O 0.47312 0.3049 0.34977 0.0
H543 H 0.38557 0.27241 0.35426 0.0
H544 H 0.44006 0.29942 0.21715 0.0
H545 H 0.45965 0.35216 0.32616 0.0
H546 H 0.41671 0.30451 0.35028 0.0
H547 H 0.4467 0.29402 0.29243 0.0
O548 O 0.4573 0.31121 0.52209 0.0
H549 H 0.47024 0.37129 0.48679 0.0
H550 H 0.48363 0.33634 0.5704 0.0
H551 H 0.45297 0.35811 0.25131 0.0
H552 H 0.41804 0.24556 0.40399 0.0
H553 H 0.4431 0.33163 0.19621 0.0
H554 H 0.38613 0.24263 0.38116 0.0
O555 O 0.48381 0.34468 0.37071 0.0
H556 H 0.51286 0.30206 0.4984 0.0
H557 H 0.51279 0.36526 0.49146 0.0
H558 H 0.5443 0.36568 0.50268 0.0
H559 H 0.54447 0.3339 0.50639 0.0
H560 H 0.48171 0.30231 0.48674 0.0
H561 H 0.49071 0.36002 0.62986 0.0
H562 H 0.48763 0.38988 0.61743 0.0
O563 O 0.48523 0.35651 0.43752 0.0
C564 C 0.43865 0.33544 0.4297 0.0
C565 C 0.47869 0.38249 0.55107 0.0
C566 C 0.48618 0.36259 0.59858 0.0
N567 N 0.47641 0.35237 0.52514 0.0
C568 C 0.47468 0.36875 0.51808 0.0
C569 C 0.48205 0.34918 0.56482 0.0
C570 C 0.48447 0.37935 0.59157 0.0
C571 C 0.43498 0.27683 0.38973 0.0
N572 N 0.43454 0.29315 0.37508 0.0
C573 C 0.41761 0.25842 0.39217 0.0
C574 C 0.3997 0.2568 0.37941 0.0
C575 C 0.39938 0.2735 0.36438 0.0
C576 C 0.41704 0.29166 0.3624 0.0
C577 C 0.44432 0.31106 0.24088 0.0
C578 C 0.45524 0.34052 0.30243 0.0
C579 C 0.44814 0.30811 0.28355 0.0
N580 N 0.45342 0.32272 0.31375 0.0
C581 C 0.45153 0.34399 0.26007 0.0
C582 C 0.44602 0.32914 0.22916 0.0
C583 C 0.49123 0.35869 0.39837 0.0
C584 C 0.51297 0.31599 0.49702 0.0
C585 C 0.51272 0.35137 0.49292 0.0
C586 C 0.53062 0.3517 0.49936 0.0
C587 C 0.5307 0.33387 0.50144 0.0
N588 N 0.49536 0.33377 0.48881 0.0
C589 C 0.49535 0.31623 0.49059 0.0
Co590 Co 0.14996 0.44666 0.70682 0.0
Co591 Co 0.14628 0.45991 0.81117 0.0
O592 O 0.15986 0.45338 0.76603 0.0
C593 C 0.19093 0.47911 0.68472 0.0
O594 O 0.18803 0.49191 0.70648 0.0
C595 C 0.15914 0.43311 0.85398 0.0
O596 O 0.15503 0.42262 0.8184 0.0
O597 O 0.12062 0.43451 0.80013 0.0
O598 O 0.12199 0.43195 0.72779 0.0
H599 H 0.09122 0.46807 0.87384 0.0
H600 H 0.18059 0.43743 0.73662 0.0
O601 O 0.1777 0.46084 0.68387 0.0
H602 H 0.1238 0.37329 0.69223 0.0
H603 H 0.1506 0.42585 0.55285 0.0
H604 H 0.11678 0.4461 0.6588 0.0
H605 H 0.12238 0.40412 0.68574 0.0
H606 H 0.16267 0.43377 0.62793 0.0
O607 O 0.15504 0.44704 0.85662 0.0
H608 H 0.1084 0.46016 0.81707 0.0
H609 H 0.15615 0.47388 0.90254 0.0
H610 H 0.10406 0.43804 0.58418 0.0
H611 H 0.18282 0.40702 0.74296 0.0
H612 H 0.12102 0.42785 0.5306 0.0
H613 H 0.15423 0.37464 0.72091 0.0
O614 O 0.14859 0.47144 0.70224 0.0
H615 H 0.21995 0.50244 0.83144 0.0
H616 H 0.15669 0.50217 0.82041 0.0
H617 H 0.18775 0.53387 0.83043 0.0
H618 H 0.21968 0.53414 0.83617 0.0
H619 H 0.18858 0.4711 0.82096 0.0
H620 H 0.13947 0.48182 0.96037 0.0
H621 H 0.10677 0.47899 0.94618 0.0
O622 O 0.13801 0.47385 0.76826 0.0
C623 C 0.11259 0.42701 0.76357 0.0
C624 C 0.10543 0.4693 0.88048 0.0
C625 C 0.13249 0.477 0.92905 0.0
N626 N 0.13315 0.46634 0.85649 0.0
C627 C 0.1152 0.4648 0.84845 0.0
C628 C 0.14182 0.47236 0.89622 0.0
C629 C 0.11416 0.47543 0.92105 0.0
C630 C 0.16815 0.42341 0.72666 0.0
N631 N 0.1513 0.42251 0.71122 0.0
C632 C 0.16947 0.40623 0.73045 0.0
C633 C 0.15342 0.38807 0.71814 0.0
C634 C 0.13633 0.3873 0.70213 0.0
C635 C 0.13554 0.40477 0.69883 0.0
C636 C 0.14306 0.43024 0.57591 0.0
C637 C 0.12416 0.44154 0.63575 0.0
C638 C 0.14987 0.43481 0.61845 0.0
N639 N 0.14035 0.44026 0.64782 0.0
C640 C 0.11693 0.43706 0.59351 0.0
C641 C 0.12646 0.43136 0.56346 0.0
C642 C 0.14186 0.47917 0.72871 0.0
C643 C 0.20612 0.50251 0.82919 0.0
C644 C 0.17051 0.50214 0.82284 0.0
C645 C 0.18806 0.52015 0.82856 0.0
C646 C 0.20596 0.52029 0.83178 0.0
N647 N 0.17076 0.48473 0.82056 0.0
C648 C 0.18828 0.48478 0.82345 0.0
Co649 Co 0.70834 0.14781 0.04038 0.0
Co650 Co 0.69372 0.14146 0.14595 0.0
O651 O 0.71332 0.15631 0.10073 0.0
C652 C 0.72013 0.1902 0.02382 0.0
O653 O 0.70477 0.18793 0.04606 0.0
C654 C 0.73397 0.15432 0.18535 0.0
O655 O 0.74028 0.15171 0.14794 0.0
O656 O 0.69403 0.11658 0.12964 0.0
O657 O 0.69275 0.11925 0.05757 0.0
H658 H 0.63199 0.08339 0.20607 0.0
H659 H 0.74996 0.17502 0.06645 0.0
O660 O 0.72392 0.17612 0.02085 0.0
H661 H 0.74884 0.11483 0.01296 0.0
H662 H 0.7264 0.15034 0.88315 0.0
H663 H 0.67312 0.11819 0.9916 0.0
H664 H 0.71841 0.11711 0.01296 0.0
H665 H 0.73271 0.16035 0.95975 0.0
O666 O 0.71577 0.14937 0.18996 0.0
H667 H 0.65657 0.10255 0.14958 0.0
H668 H 0.68982 0.14869 0.23939 0.0
H669 H 0.66622 0.10761 0.91541 0.0
H670 H 0.78083 0.1735 0.06629 0.0
H671 H 0.69298 0.12373 0.86057 0.0
H672 H 0.78037 0.1432 0.03962 0.0
O673 O 0.68364 0.14926 0.04153 0.0
H674 H 0.72402 0.21442 0.17556 0.0
H675 H 0.66149 0.15077 0.16276 0.0
H676 H 0.66043 0.1812 0.17896 0.0
H677 H 0.69186 0.21332 0.18562 0.0
H678 H 0.72442 0.18369 0.15893 0.0
H679 H 0.66569 0.12993 0.29693 0.0
H680 H 0.63647 0.09707 0.28039 0.0
O681 O 0.6709 0.13402 0.1047 0.0
C682 C 0.6904 0.10906 0.0916 0.0
C683 C 0.64465 0.0977 0.21368 0.0
C684 C 0.66358 0.12381 0.26469 0.0
N685 N 0.67461 0.12673 0.19111 0.0
C686 C 0.65861 0.10863 0.1818 0.0
C687 C 0.67724 0.13432 0.23199 0.0
C688 C 0.64718 0.10538 0.25537 0.0
C689 C 0.74969 0.16187 0.05434 0.0
N690 N 0.73239 0.14617 0.03981 0.0
C691 C 0.7672 0.16106 0.05453 0.0
C692 C 0.76692 0.14404 0.03963 0.0
C693 C 0.74923 0.12811 0.02473 0.0
C694 C 0.73201 0.12945 0.02503 0.0
C695 C 0.71463 0.14318 0.90675 0.0
C696 C 0.68487 0.12521 0.96799 0.0
C697 C 0.7181 0.14881 0.95017 0.0
N698 N 0.70333 0.13976 0.98021 0.0
C699 C 0.68086 0.11919 0.92486 0.0
C700 C 0.69588 0.12825 0.89411 0.0
C701 C 0.66933 0.14094 0.06831 0.0
C702 C 0.71023 0.2005 0.17295 0.0
C703 C 0.67525 0.16468 0.16558 0.0
C704 C 0.67454 0.18187 0.17481 0.0
C705 C 0.69218 0.19988 0.17853 0.0
N706 N 0.69302 0.16538 0.16036 0.0
C707 C 0.71036 0.18302 0.16373 0.0
H708 H 0.36415 0.42702 0.22849 0.0
H709 H 0.37976 0.40856 0.25599 0.0
H710 H 0.33971 0.38859 0.3648 0.0
H711 H 0.32485 0.40757 0.33864 0.0
H712 H 0.37543 0.40269 0.39318 0.0
H713 H 0.36575 0.35185 0.25849 0.0
H714 H 0.37829 0.37736 0.24208 0.0
H715 H 0.35294 0.36575 0.26019 0.0
C716 C 0.35836 0.41832 0.25769 0.0
C717 C 0.34321 0.41891 0.28131 0.0
C718 C 0.36731 0.40769 0.27346 0.0
C719 C 0.36096 0.39702 0.31265 0.0
C720 C 0.34508 0.39674 0.33475 0.0
H721 H 0.39989 0.31566 0.40576 0.0
H722 H 0.38025 0.33038 0.38049 0.0
C723 C 0.33644 0.40756 0.31948 0.0
C724 C 0.37159 0.38739 0.33278 0.0
H725 H 0.3879 0.35455 0.31469 0.0
C726 C 0.37802 0.39207 0.37595 0.0
C727 C 0.3749 0.37333 0.31085 0.0
C728 C 0.36744 0.3666 0.26551 0.0
C729 C 0.38762 0.38329 0.39752 0.0
C730 C 0.39158 0.36978 0.37511 0.0
C731 C 0.38503 0.36496 0.33204 0.0
C732 C 0.4026 0.36061 0.39539 0.0
C733 C 0.39294 0.38826 0.44455 0.0
C734 C 0.42158 0.3725 0.4133 0.0
C735 C 0.4326 0.364 0.42868 0.0
C736 C 0.425 0.34343 0.42622 0.0
C737 C 0.40589 0.33149 0.40924 0.0
C738 C 0.39477 0.33995 0.39425 0.0
H739 H 0.38334 0.39321 0.46032 0.0
H740 H 0.3916 0.37535 0.46274 0.0
H741 H 0.40848 0.4006 0.44693 0.0
H742 H 0.42834 0.38849 0.41343 0.0
H743 H 0.44762 0.37368 0.43961 0.0
H744 H 0.92939 0.30939 0.65774 0.0
H745 H 0.9633 0.32512 0.68445 0.0
H746 H 0.98005 0.3737 0.59579 0.0
H747 H 0.94598 0.35759 0.56793 0.0
H748 H 1.00981 0.36496 0.60566 0.0
H749 H 0.98273 0.37124 0.76711 0.0
H750 H 0.9713 0.34608 0.74865 0.0
H751 H 0.96714 0.36375 0.71979 0.0
C752 C 0.94032 0.32321 0.64319 0.0
C753 C 0.93479 0.3323 0.61101 0.0
C754 C 0.95974 0.33233 0.6589 0.0
C755 C 0.97415 0.35101 0.64344 0.0
C756 C 0.96915 0.35943 0.60881 0.0
H757 H 0.08241 0.43431 0.78057 0.0
H758 H 0.0485 0.41548 0.75276 0.0
C759 C 0.94965 0.35013 0.59263 0.0
C760 C 0.99401 0.36196 0.66484 0.0
H761 H 0.01637 0.37898 0.76318 0.0
C762 C 1.01123 0.36805 0.64007 0.0
C763 C 0.99602 0.36646 0.70969 0.0
C764 C 0.97834 0.36174 0.73779 0.0
C765 C 0.03024 0.37798 0.65897 0.0
C766 C 0.03216 0.38156 0.70422 0.0
C767 C 1.01498 0.37594 0.72875 0.0
C768 C 0.0519 0.39163 0.72631 0.0
C769 C 0.04812 0.38495 0.62999 0.0
C770 C 0.06486 0.38403 0.7231 0.0
C771 C 0.08421 0.39474 0.73932 0.0
C772 C 0.09097 0.41311 0.75989 0.0
C773 C 0.07756 0.41999 0.76599 0.0
C774 C 0.0582 0.40933 0.74949 0.0
H775 H 0.04453 0.3862 0.59577 0.0
H776 H 0.06043 0.39958 0.64058 0.0
H777 H 0.05334 0.37407 0.63128 0.0
H778 H 0.06025 0.37014 0.7066 0.0
H779 H 0.09421 0.38909 0.73398 0.0
H780 H 0.58529 0.94161 0.90831 0.0
H781 H 0.60418 0.97553 0.93568 0.0
H782 H 0.64927 0.96363 0.98292 0.0
H783 H 0.63009 0.92953 0.95616 0.0
H784 H 0.63829 0.97947 0.04501 0.0
H785 H 0.65244 0.02543 0.89858 0.0
H786 H 0.62659 1.00785 0.90515 0.0
H787 H 0.64384 0.99922 0.89568 0.0
C788 C 0.59963 0.94648 0.92274 0.0
C789 C 0.60641 0.933 0.92913 0.0
C790 C 0.61044 0.96592 0.93874 0.0
C791 C 0.62838 0.9724 0.96113 0.0
C792 C 0.63555 0.95914 0.96578 0.0
H793 H 0.70531 0.08394 0.10286 0.0
H794 H 0.69092 0.05004 0.07379 0.0
C795 C 0.62466 0.93967 0.95012 0.0
C796 C 0.63867 0.99225 0.98294 0.0
H797 H 0.65635 0.04177 0.9665 0.0
C798 C 0.64246 0.99311 0.02766 0.0
C799 C 0.64418 1.01017 0.96059 0.0
C800 C 0.64174 0.01068 0.91228 0.0
C801 C 0.65088 0.01114 0.0507 0.0
C802 C 0.65585 0.02893 0.02851 0.0
C803 C 0.65244 0.02814 0.9837 0.0
C804 C 0.66387 0.04845 0.05108 0.0
C805 C 0.65375 0.01091 0.09888 0.0
C806 C 0.65344 0.0588 0.04868 0.0
C807 C 0.66159 0.078 0.06535 0.0
C808 C 0.68034 0.08735 0.08508 0.0
C809 C 0.69055 0.07682 0.0891 0.0
C810 C 0.68237 0.0575 0.07221 0.0
H811 H 0.64535 0.99568 0.11249 0.0
H812 H 0.66971 0.01683 0.10579 0.0
H813 H 0.64903 0.02046 0.11572 0.0
H814 H 0.6392 0.05225 0.03257 0.0
H815 H 0.65361 0.08596 0.06101 0.0
H816 H 0.71337 0.62886 0.28241 0.0
H817 H 0.69831 0.64759 0.31091 0.0
H818 H 0.64144 0.60302 0.26223 0.0
H819 H 0.65655 0.58427 0.23367 0.0
H820 H 0.64728 0.64122 0.2542 0.0
H821 H 0.66465 0.6284 0.42079 0.0
H822 H 0.68604 0.6406 0.38638 0.0
H823 H 0.66698 0.61564 0.37444 0.0
C824 C 0.69777 0.62334 0.27672 0.0
C825 C 0.68621 0.60515 0.2554 0.0
C826 C 0.68911 0.63394 0.29351 0.0
C827 C 0.6686 0.62647 0.2899 0.0
C828 C 0.65727 0.60905 0.26579 0.0
H829 H 0.59543 0.65856 0.44913 0.0
H830 H 0.61306 0.64236 0.41989 0.0
C831 C 0.66597 0.59844 0.24885 0.0
C832 C 0.65892 0.63629 0.31298 0.0
H833 H 0.65193 0.65037 0.41345 0.0
C834 C 0.6483 0.64321 0.289 0.0
C835 C 0.6598 0.63851 0.35862 0.0
C836 C 0.6698 0.63023 0.38669 0.0
C837 C 0.63906 0.65272 0.30911 0.0
C838 C 0.64074 0.65578 0.35453 0.0
C839 C 0.65088 0.64836 0.37866 0.0
C840 C 0.63198 0.66659 0.3772 0.0
C841 C 0.62726 0.65908 0.28146 0.0
C842 C 0.6375 0.68607 0.36515 0.0
C843 C 0.62745 0.69529 0.38184 0.0
C844 C 0.61179 0.68545 0.41152 0.0
C845 C 0.60746 0.66665 0.4266 0.0
C846 C 0.61745 0.65729 0.40954 0.0
H847 H 0.6227 0.65079 0.25044 0.0
H848 H 0.61376 0.65683 0.29865 0.0
H849 H 0.63653 0.67508 0.27367 0.0
H850 H 0.64909 0.69388 0.34142 0.0
H851 H 0.63138 0.70986 0.36994 0.0
H852 H 0.93066 0.59909 0.66863 0.0
H853 H 0.96526 0.61877 0.64859 0.0
H854 H 0.982 0.62479 0.78296 0.0
H855 H 0.94691 0.60442 0.80366 0.0
H856 H 0.99418 0.65583 0.66458 0.0
H857 H 1.01502 0.60287 0.73293 0.0
H858 H 0.98957 0.59692 0.72801 0.0
H859 H 1.00466 0.61234 0.77162 0.0
C860 C 0.94154 0.60464 0.69432 0.0
C861 C 0.93577 0.59994 0.738 0.0
C862 C 0.96148 0.616 0.68259 0.0
C863 C 0.97643 0.62305 0.71399 0.0
C864 C 0.97082 0.61916 0.75789 0.0
H865 H 0.10451 0.68591 0.69476 0.0
H866 H 0.07013 0.6712 0.71665 0.0
C867 C 0.9507 0.60767 0.76979 0.0
C868 C 0.99771 0.63396 0.69993 0.0
H869 H 0.04078 0.63229 0.70223 0.0
C870 C 1.00436 0.65067 0.67289 0.0
C871 C 1.01106 0.62719 0.71022 0.0
C872 C 1.00473 0.60875 0.73693 0.0
C873 C 0.02388 0.66087 0.65651 0.0
C874 C 0.03719 0.65411 0.66694 0.0
C875 C 0.0306 0.63748 0.69408 0.0
C876 C 0.05829 0.66449 0.65182 0.0
C877 C 0.03023 0.67902 0.62883 0.0
C878 C 0.06336 0.66598 0.60764 0.0
C879 C 0.08335 0.67459 0.59463 0.0
C880 C 0.09864 0.68179 0.6256 0.0
C881 C 0.09336 0.68064 0.66965 0.0
C882 C 0.07356 0.67211 0.68247 0.0
H883 H 0.01979 0.68477 0.63149 0.0
H884 H 0.04529 0.69099 0.63803 0.0
H885 H 0.03073 0.67517 0.59448 0.0
H886 H 0.05186 0.65995 0.58328 0.0
H887 H 0.08674 0.67499 0.56055 0.0
H888 H 0.31919 0.93025 0.05762 0.0
H889 H 0.33475 0.96406 0.02948 0.0
H890 H 0.38786 0.97901 0.10102 0.0
H891 H 0.37216 0.94504 0.12964 0.0
H892 H 0.3797 1.0101 0.09855 0.0
H893 H 0.3761 0.9807 0.93365 0.0
H894 H 0.35234 0.97019 0.95958 0.0
H895 H 0.37109 0.96568 0.98156 0.0
C896 C 0.33403 0.94081 0.06812 0.0
C897 C 0.34444 0.93483 0.09567 0.0
C898 C 0.343 0.96014 0.05166 0.0
C899 C 0.36275 0.97398 0.06186 0.0
C900 C 0.37269 0.96856 0.09217 0.0
H901 H 0.44187 0.08046 0.91262 0.0
H902 H 0.42373 0.04677 0.94226 0.0
C903 C 0.36362 0.94916 0.10893 0.0
C904 C 0.37318 0.99361 0.03922 0.0
H905 H 0.38596 0.01489 0.93865 0.0
C906 C 0.38109 0.01113 0.06361 0.0
C907 C 0.37541 0.99508 0.99358 0.0
C908 C 0.36848 0.97693 0.96553 0.0
C909 C 0.39064 0.02995 0.04367 0.0
C910 C 0.39204 0.03139 0.99788 0.0
C911 C 0.38462 0.01388 0.97359 0.0
C912 C 0.40151 0.05096 0.97488 0.0
C913 C 0.3995 0.04816 0.07202 0.0
C914 C 0.3945 0.06426 0.98103 0.0
C915 C 0.40481 0.08348 0.96383 0.0
C916 C 0.42221 0.08982 0.93948 0.0
C917 C 0.42836 0.07602 0.93045 0.0
C918 C 0.41809 0.05677 0.94791 0.0
H919 H 0.40212 0.04475 0.10545 0.0
H920 H 0.41377 0.06002 0.05857 0.0
H921 H 0.38908 0.05394 0.07397 0.0
H922 H 0.38141 0.06002 1.0005 0.0
H923 H 0.39962 0.09369 0.9712 0.0
H924 H 0.17634 0.40964 0.85447 0.0
H925 H 0.19825 0.40821 0.90926 0.0
H926 H 0.19087 0.44964 0.9883 0.0
H927 H 0.16933 0.45149 0.93328 0.0
H928 H 0.22889 0.46031 0.98382 0.0
H929 H 0.18692 0.38035 0.02384 0.0
H930 H 0.19244 0.38484 0.96724 0.0
H931 H 0.17635 0.39229 0.99239 0.0
C932 C 0.17911 0.41823 0.88379 0.0
C933 C 0.17088 0.4306 0.88932 0.0
C934 C 0.19163 0.41733 0.91534 0.0
C935 C 0.19612 0.42858 0.95357 0.0
C936 C 0.18769 0.44073 0.95935 0.0
H937 H 0.25564 0.41756 0.18426 0.0
H938 H 0.23157 0.4153 0.13031 0.0
C939 C 0.17526 0.44172 0.92777 0.0
C940 C 0.21034 0.42857 0.98644 0.0
H941 H 0.21996 0.3985 0.05083 0.0
C942 C 0.22685 0.44676 0.9985 0.0
C943 C 0.20772 0.41098 1.00634 0.0
C944 C 0.1898 0.39103 0.99717 0.0
C945 C 0.24079 0.44786 0.02907 0.0
C946 C 0.23859 0.43022 0.04774 0.0
C947 C 0.22192 0.41204 0.03628 0.0
C948 C 0.25322 0.43045 0.07976 0.0
C949 C 0.25752 0.46806 0.04181 0.0
C950 C 0.27345 0.43915 0.0693 0.0
C951 C 0.28729 0.44051 0.10019 0.0
C952 C 0.28129 0.43298 0.14236 0.0
C953 C 0.2609 0.42349 0.15221 0.0
C954 C 0.24706 0.42222 0.1213 0.0
H955 H 0.25395 0.4799 0.03466 0.0
H956 H 0.26098 0.46861 0.07679 0.0
H957 H 0.27099 0.47136 0.02311 0.0
H958 H 0.27864 0.44514 0.03727 0.0
H959 H 0.3028 0.44781 0.09114 0.0
H960 H 0.86146 0.29569 0.42856 0.0
H961 H 0.83965 0.27215 0.3741 0.0
H962 H 0.82791 0.22351 0.45889 0.0
H963 H 0.85013 0.24699 0.51323 0.0
H964 H 0.83196 0.21464 0.37653 0.0
H965 H 0.78014 0.24378 0.37848 0.0
H966 H 0.80499 0.26243 0.36506 0.0
H967 H 0.79964 0.25113 0.41784 0.0
C968 C 0.8544 0.27998 0.43561 0.0
C969 C 0.85759 0.27334 0.47558 0.0
C970 C 0.84172 0.26649 0.40445 0.0
C971 C 0.83162 0.24595 0.41254 0.0
C972 C 0.83534 0.23923 0.45176 0.0
H973 H 0.72615 0.16143 0.26811 0.0
H974 H 0.74977 0.18231 0.3235 0.0
C975 C 0.84813 0.25273 0.48289 0.0
C976 C 0.81705 0.23156 0.38044 0.0
H977 H 0.77528 0.22072 0.32289 0.0
C978 C 0.81954 0.21596 0.36493 0.0
C979 C 0.80053 0.2329 0.36563 0.0
C980 C 0.796 0.24833 0.38292 0.0
C981 C 0.80632 0.20204 0.33468 0.0
C982 C 0.79028 0.20389 0.31853 0.0
C983 C 0.78761 0.21928 0.33467 0.0
C984 C 0.77595 0.19003 0.28532 0.0
C985 C 0.80947 0.18521 0.32116 0.0
C986 C 0.78258 0.18714 0.24506 0.0
C987 C 0.76903 0.17497 0.21332 0.0
C988 C 0.74843 0.16554 0.2207 0.0
C989 C 0.74184 0.16831 0.26116 0.0
C990 C 0.7554 0.18037 0.29294 0.0
H991 H 0.81814 0.18231 0.34569 0.0
H992 H 0.79514 0.17135 0.31602 0.0
H993 H 0.81795 0.18919 0.2904 0.0
H994 H 0.79825 0.19474 0.23759 0.0
H995 H 0.77472 0.17346 0.18246 0.0
H996 H 0.6104 0.8465 0.83875 0.0
H997 H 0.61291 0.82514 0.78413 0.0
H998 H 0.57619 0.83642 0.69795 0.0
H999 H 0.57319 0.85736 0.75282 0.0
H1000 H 0.56386 0.79818 0.69917 0.0
H1001 H 0.64515 0.83755 0.67587 0.0
H1002 H 0.63816 0.83077 0.73124 0.0
H1003 H 0.63286 0.84832 0.70534 0.0
C1004 C 0.60309 0.84471 0.80794 0.0
C1005 C 0.59167 0.85384 0.80033 0.0
C1006 C 0.60462 0.8325 0.77649 0.0
C1007 C 0.59501 0.82927 0.73628 0.0
C1008 C 0.58383 0.83862 0.72846 0.0
H1009 H 0.61314 0.77282 0.50855 0.0
H1010 H 0.6141 0.79613 0.563 0.0
C1011 C 0.58218 0.85071 0.75996 0.0
C1012 C 0.59567 0.81541 0.70331 0.0
H1013 H 0.62699 0.80517 0.64523 0.0
C1014 C 0.57771 0.79981 0.68735 0.0
C1015 C 0.61367 0.81751 0.68708 0.0
C1016 C 0.63355 0.83456 0.7004 0.0
C1017 C 0.5772 0.78625 0.65645 0.0
C1018 C 0.59518 0.78786 0.64153 0.0
C1019 C 0.61317 0.80365 0.65691 0.0
C1020 C 0.59557 0.77357 0.60939 0.0
C1021 C 0.55733 0.7706 0.63932 0.0
C1022 C 0.58536 0.75303 0.61744 0.0
C1023 C 0.58471 0.73963 0.58621 0.0
C1024 C 0.5945 0.74637 0.54618 0.0
C1025 C 0.60545 0.767 0.53892 0.0
C1026 C 0.60598 0.7804 0.57011 0.0
H1027 H 0.54584 0.77492 0.64384 0.0
H1028 H 0.55818 0.76781 0.60439 0.0
H1029 H 0.55242 0.75655 0.65722 0.0
H1030 H 0.57767 0.74729 0.64781 0.0
H1031 H 0.57624 0.72391 0.59324 0.0
H1032 H 0.77366 0.61613 0.15283 0.0
H1033 H 0.79783 0.619 0.0982 0.0
H1034 H 0.75377 0.56401 0.04085 0.0
H1035 H 0.72952 0.56138 0.09419 0.0
H1036 H 0.81372 0.59682 0.08155 0.0
H1037 H 0.77377 0.59678 0.93418 0.0
H1038 H 0.76604 0.59959 0.98744 0.0
H1039 H 0.75888 0.57529 0.96669 0.0
C1040 C 0.76901 0.6048 0.12816 0.0
C1041 C 0.74947 0.58865 0.12782 0.0
C1042 C 0.78291 0.60642 0.09693 0.0
C1043 C 0.77768 0.59194 0.0645 0.0
C1044 C 0.75819 0.57576 0.06437 0.0
H1045 H 0.85758 0.56466 0.92205 0.0
H1046 H 0.83615 0.56791 0.97489 0.0
C1047 C 0.74427 0.57422 0.09527 0.0
C1048 C 0.79271 0.5932 0.03214 0.0
H1049 H 0.80021 0.58985 0.92397 0.0
C1050 C 0.81079 0.59547 0.04707 0.0
C1051 C 0.78928 0.59183 0.98686 0.0
C1052 C 0.77103 0.59096 0.96781 0.0
C1053 C 0.82507 0.59576 0.01848 0.0
C1054 C 0.82109 0.59316 0.97343 0.0
C1055 C 0.80331 0.59156 0.95838 0.0
C1056 C 0.83492 0.59172 0.94151 0.0
C1057 C 0.84444 0.59918 0.03702 0.0
C1058 C 0.8412 0.60361 0.90402 0.0
C1059 C 0.85335 0.60158 0.87315 0.0
C1060 C 0.85961 0.58761 0.87892 0.0
C1061 C 0.85342 0.57583 0.91662 0.0
C1062 C 0.84116 0.57775 0.9472 0.0
H1063 H 0.84794 0.60749 0.06799 0.0
H1064 H 0.84329 0.58465 0.04385 0.0
H1065 H 0.85691 0.60754 0.01418 0.0
H1066 H 0.83658 0.61444 0.89844 0.0
H1067 H 0.85763 0.61081 0.84446 0.0
H1068 H 0.16863 0.72342 0.43111 0.0
H1069 H 0.19012 0.74743 0.3768 0.0
H1070 H 0.20563 0.79505 0.46724 0.0
H1071 H 0.18382 0.77114 0.52157 0.0
H1072 H 0.20045 0.80565 0.3865 0.0
H1073 H 0.24976 0.77363 0.37605 0.0
H1074 H 0.22438 0.75599 0.3642 0.0
H1075 H 0.23113 0.76648 0.41756 0.0
C1076 C 0.17644 0.73901 0.43947 0.0
C1077 C 0.17444 0.74523 0.48105 0.0
C1078 C 0.18894 0.75277 0.40835 0.0
C1079 C 0.19999 0.77314 0.41797 0.0
C1080 C 0.19745 0.77947 0.45888 0.0
H1081 H 0.30514 0.8584 0.27341 0.0
H1082 H 0.28154 0.83672 0.32812 0.0
C1083 C 0.18489 0.76571 0.49001 0.0
C1084 C 0.21437 0.78775 0.38576 0.0
H1085 H 0.25503 0.79824 0.32407 0.0
C1086 C 0.2124 0.80402 0.37294 0.0
C1087 C 0.23027 0.78598 0.36836 0.0
C1088 C 0.23419 0.76971 0.38252 0.0
C1089 C 0.22554 0.81823 0.34292 0.0
C1090 C 0.24101 0.81605 0.32435 0.0
C1091 C 0.24315 0.79995 0.33773 0.0
C1092 C 0.25534 0.83035 0.29158 0.0
C1093 C 0.22297 0.83571 0.33223 0.0
C1094 C 0.24869 0.83427 0.25245 0.0
C1095 C 0.26224 0.84687 0.22105 0.0
C1096 C 0.28284 0.85577 0.22767 0.0
C1097 C 0.28945 0.85197 0.26704 0.0
C1098 C 0.27591 0.83945 0.29844 0.0
H1099 H 0.21464 0.8384 0.35799 0.0
H1100 H 0.23752 0.84941 0.3277 0.0
H1101 H 0.21442 0.83264 0.30175 0.0
H1102 H 0.23299 0.82715 0.24557 0.0
H1103 H 0.25652 0.84916 0.19102 0.0
H1104 H 0.46412 0.17304 0.76844 0.0
H1105 H 0.46193 0.19498 0.71506 0.0
H1106 H 0.40945 0.18805 0.77799 0.0
H1107 H 0.41186 0.16644 0.8324 0.0
H1108 H 0.43531 0.19082 0.65597 0.0
H1109 H 0.44233 0.24741 0.77418 0.0
H1110 H 0.44642 0.22733 0.78881 0.0
H1111 H 0.4216 0.22322 0.7847 0.0
C1112 C 0.45201 0.17604 0.77095 0.0
C1113 C 0.4382 0.16791 0.80509 0.0
C1114 C 0.45079 0.18868 0.74025 0.0
C1115 C 0.43576 0.19363 0.74265 0.0
C1116 C 0.42153 0.18499 0.77583 0.0
H1117 H 0.41371 0.2541 0.52486 0.0
H1118 H 0.41059 0.22961 0.57881 0.0
C1119 C 0.42281 0.17242 0.80679 0.0
C1120 C 0.4352 0.20788 0.71057 0.0
H1121 H 0.43564 0.25197 0.70172 0.0
C1122 C 0.43534 0.20416 0.66607 0.0
C1123 C 0.43554 0.22555 0.72335 0.0
C1124 C 0.43667 0.23127 0.77032 0.0
C1125 C 0.43581 0.21744 0.63434 0.0
C1126 C 0.43566 0.23487 0.64712 0.0
C1127 C 0.43552 0.23859 0.69162 0.0
C1128 C 0.43672 0.24993 0.61509 0.0
C1129 C 0.43719 0.21296 0.5874 0.0
C1130 C 0.4519 0.26984 0.61812 0.0
C1131 C 0.45352 0.28396 0.58768 0.0
C1132 C 0.43998 0.27864 0.55317 0.0
C1133 C 0.42447 0.2588 0.55076 0.0
C1134 C 0.42278 0.24468 0.58147 0.0
H1135 H 0.44265 0.20232 0.5837 0.0
H1136 H 0.42224 0.20619 0.57259 0.0
H1137 H 0.44722 0.22669 0.56921 0.0
H1138 H 0.46283 0.27443 0.64365 0.0
H1139 H 0.46573 0.29901 0.59075 0.0
H1140 H 0.21719 0.51703 0.65735 0.0
H1141 H 0.24301 0.52679 0.60179 0.0
H1142 H 0.22931 0.46603 0.591 0.0
H1143 H 0.20384 0.45623 0.64635 0.0
H1144 H 0.27021 0.49382 0.59209 0.0
H1145 H 0.2292 0.51302 0.472 0.0
H1146 H 0.23429 0.52522 0.52366 0.0
H1147 H 0.21761 0.49898 0.52041 0.0
C1148 C 0.21992 0.50583 0.64361 0.0
C1149 C 0.20837 0.48583 0.65604 0.0
C1150 C 0.23454 0.5114 0.61162 0.0
C1151 C 0.23781 0.49706 0.59179 0.0
C1152 C 0.22695 0.47731 0.60571 0.0
H1153 H 0.28182 0.47677 0.35927 0.0
H1154 H 0.26253 0.48169 0.41519 0.0
C1155 C 0.21237 0.47174 0.63738 0.0
C1156 C 0.25202 0.50215 0.55555 0.0
H1157 H 0.25845 0.51422 0.44813 0.0
C1158 C 0.26787 0.49861 0.56078 0.0
C1159 C 0.2487 0.5081 0.51462 0.0
C1160 C 0.23147 0.51145 0.50693 0.0
C1161 C 0.28014 0.50027 0.52591 0.0
C1162 C 0.27668 0.50599 0.48482 0.0
C1163 C 0.26116 0.51004 0.47978 0.0
C1164 C 0.28795 0.50599 0.44621 0.0
C1165 C 0.29606 0.49489 0.53281 0.0
C1166 C 0.30851 0.51875 0.44373 0.0
C1167 C 0.31961 0.51597 0.41185 0.0
C1168 C 0.31031 0.5004 0.38181 0.0
C1169 C 0.28949 0.48886 0.38193 0.0
C1170 C 0.27842 0.49162 0.41396 0.0
H1171 H 0.29436 0.48727 0.56424 0.0
H1172 H 0.29583 0.48509 0.50646 0.0
H1173 H 0.3108 0.50859 0.53248 0.0
H1174 H 0.31609 0.53016 0.4679 0.0
H1175 H 0.33559 0.52526 0.41242 0.0
H1176 H 0.8148 0.26743 0.70152 0.0
H1177 H 0.7907 0.25213 0.75988 0.0
H1178 H 0.79437 0.30817 0.7868 0.0
H1179 H 0.81853 0.32367 0.72808 0.0
H1180 H 0.80259 0.28995 0.85864 0.0
H1181 H 0.73214 0.2375 0.77758 0.0
H1182 H 0.75317 0.23628 0.75771 0.0
H1183 H 0.75203 0.25858 0.7501 0.0
C1184 C 0.8101 0.27641 0.71906 0.0
C1185 C 0.81859 0.29677 0.71019 0.0
C1186 C 0.79626 0.26761 0.75232 0.0
C1187 C 0.79066 0.27899 0.77746 0.0
C1188 C 0.79841 0.29913 0.76752 0.0
H1189 H 0.70842 0.21561 0.99222 0.0
H1190 H 0.72504 0.24087 0.93578 0.0
C1191 C 0.81213 0.30792 0.73384 0.0
C1192 C 0.77862 0.27024 0.81697 0.0
H1193 H 0.73535 0.23065 0.85216 0.0
C1194 C 0.78771 0.27726 0.85732 0.0
C1195 C 0.75919 0.25378 0.81519 0.0
C1196 C 0.74845 0.24618 0.77282 0.0
C1197 C 0.77836 0.2674 0.89577 0.0
C1198 C 0.75951 0.25011 0.89368 0.0
C1199 C 0.74987 0.24388 0.85364 0.0
C1200 C 0.7506 0.23699 0.93166 0.0
C1201 C 0.78899 0.27512 0.9382 0.0
C1202 C 0.75964 0.22671 0.94834 0.0
C1203 C 0.75016 0.21224 0.98014 0.0
C1204 C 0.73149 0.20783 0.99608 0.0
C1205 C 0.72288 0.21883 0.98088 0.0
C1206 C 0.73229 0.23317 0.94853 0.0
H1207 H 0.80044 0.29106 0.93599 0.0
H1208 H 0.77839 0.27314 0.96441 0.0
H1209 H 0.79648 0.26669 0.94716 0.0
H1210 H 0.77363 0.22924 0.93533 0.0
H1211 H 0.75714 0.20399 0.99113 0.0
H1212 H 0.50214 0.80924 0.04165 0.0
H1213 H 0.49409 0.78429 0.09853 0.0
H1214 H 0.5532 0.79313 0.0899 0.0
H1215 H 0.56134 0.81788 0.03335 0.0
H1216 H 0.52131 0.75196 0.09883 0.0
H1217 H 0.51959 0.80346 0.22162 0.0
H1218 H 0.50422 0.79801 0.17439 0.0
H1219 H 0.53067 0.81195 0.16897 0.0
C1220 C 0.51327 0.80554 0.05124 0.0
C1221 C 0.53243 0.81565 0.03324 0.0
C1222 C 0.50869 0.7914 0.08391 0.0
C1223 C 0.52315 0.7871 0.09874 0.0
C1224 C 0.54186 0.79629 0.07898 0.0
H1225 H 0.56129 0.75292 0.31671 0.0
H1226 H 0.55238 0.76877 0.25988 0.0
C1227 C 0.54648 0.81046 0.04668 0.0
C1228 C 0.51963 0.77418 0.13683 0.0
H1229 H 0.51834 0.77451 0.24726 0.0
C1230 C 0.5202 0.7566 0.13128 0.0
C1231 C 0.51843 0.78049 0.17907 0.0
C1232 C 0.51829 0.79955 0.18676 0.0
C1233 C 0.5204 0.74555 0.16698 0.0
C1234 C 0.5199 0.75222 0.20926 0.0
C1235 C 0.51852 0.76937 0.21477 0.0
C1236 C 0.52359 0.74317 0.24771 0.0
C1237 C 0.5224 0.72749 0.15935 0.0
C1238 C 0.51001 0.72374 0.26081 0.0
C1239 C 0.51502 0.71461 0.29361 0.0
C1240 C 0.53375 0.72478 0.3135 0.0
C1241 C 0.54679 0.74463 0.3019 0.0
C1242 C 0.54172 0.75374 0.26945 0.0
H1243 H 0.52492 0.72564 0.12471 0.0
H1244 H 0.5349 0.72848 0.17858 0.0
H1245 H 0.50866 0.71404 0.17009 0.0
H1246 H 0.49584 0.71542 0.24464 0.0
H1247 H 0.50467 0.6993 0.30174 0.0
H1248 H 0.70721 0.50197 0.36958 0.0
H1249 H 0.72388 0.49374 0.42653 0.0
H1250 H 0.77211 0.55419 0.42631 0.0
H1251 H 0.75581 0.56249 0.36954 0.0
H1252 H 0.78417 0.5255 0.42992 0.0
H1253 H 0.72692 0.51265 0.55353 0.0
H1254 H 0.71835 0.49861 0.50424 0.0
H1255 H 0.72884 0.52503 0.50286 0.0
C1256 C 0.72152 0.51341 0.38119 0.0
C1257 C 0.73012 0.53291 0.36522 0.0
C1258 C 0.73092 0.50873 0.41399 0.0
C1259 C 0.74905 0.52345 0.43113 0.0
C1260 C 0.75807 0.54264 0.41373 0.0
H1261 H 0.81731 0.54715 0.66034 0.0
H1262 H 0.79291 0.54271 0.6053 0.0
C1263 C 0.74871 0.54734 0.38123 0.0
C1264 C 0.75861 0.51935 0.46802 0.0
H1265 H 0.75457 0.51055 0.57694 0.0
C1266 C 0.7776 0.52195 0.46195 0.0
C1267 C 0.75007 0.51501 0.50987 0.0
C1268 C 0.72998 0.51278 0.5184 0.0
C1269 C 0.7885 0.52075 0.49675 0.0
C1270 C 0.78003 0.51653 0.53867 0.0
C1271 C 0.76089 0.51357 0.54468 0.0
C1272 C 0.7916 0.51671 0.57685 0.0
C1273 C 0.80936 0.52492 0.48873 0.0
C1274 C 0.79812 0.50294 0.58047 0.0
C1275 C 0.81208 0.50543 0.61185 0.0
C1276 C 0.81971 0.52171 0.64025 0.0
C1277 C 0.81179 0.53446 0.63898 0.0
C1278 C 0.79787 0.53198 0.60745 0.0
H1279 H 0.81497 0.53159 0.45635 0.0
H1280 H 0.81964 0.5351 0.51371 0.0
H1281 H 0.80963 0.51082 0.49054 0.0
H1282 H 0.79319 0.49086 0.55757 0.0
H1283 H 0.8177 0.49522 0.6122 0.0
H1284 H 0.21757 0.74775 0.69934 0.0
H1285 H 0.24308 0.7675 0.75242 0.0
H1286 H 0.24423 0.71528 0.79448 0.0
H1287 H 0.21853 0.69536 0.74188 0.0
H1288 H 0.2363 0.73332 0.86015 0.0
H1289 H 0.30209 0.7891 0.7699 0.0
H1290 H 0.27967 0.78821 0.75266 0.0
H1291 H 0.28265 0.76696 0.74473 0.0
C1292 C 0.22372 0.74057 0.71881 0.0
C1293 C 0.21588 0.71994 0.71662 0.0
C1294 C 0.23837 0.75191 0.74915 0.0
C1295 C 0.24562 0.74288 0.77738 0.0
C1296 C 0.23885 0.72255 0.77303 0.0
H1297 H 0.33074 0.81478 0.98037 0.0
H1298 H 0.31469 0.78981 0.92337 0.0
C1299 C 0.22417 0.7112 0.74287 0.0
C1300 C 0.25796 0.75394 0.81512 0.0
H1301 H 0.29962 0.79675 0.84446 0.0
C1302 C 0.25033 0.74701 0.85669 0.0
C1303 C 0.27634 0.7717 0.8107 0.0
C1304 C 0.28578 0.77934 0.76708 0.0
C1305 C 0.26005 0.75786 0.89379 0.0
C1306 C 0.27774 0.77624 0.88921 0.0
C1307 C 0.28596 0.7827 0.84786 0.0
C1308 C 0.28693 0.78977 0.92641 0.0
C1309 C 0.25107 0.74976 0.93758 0.0
C1310 C 0.27653 0.79777 0.94728 0.0
C1311 C 0.28561 0.81197 0.97965 0.0
C1312 C 0.30532 0.81851 0.99182 0.0
C1313 C 0.31549 0.80993 0.97202 0.0
C1314 C 0.3064 0.79577 0.93928 0.0
H1315 H 0.24119 0.7334 0.93669 0.0
H1316 H 0.26275 0.75344 0.96227 0.0
H1317 H 0.24206 0.75645 0.94778 0.0
H1318 H 0.2616 0.79356 0.93741 0.0
H1319 H 0.27737 0.81832 0.99413 0.0
H1320 H 0.4674 0.20731 0.03448 0.0
H1321 H 0.47606 0.23253 0.09014 0.0
H1322 H 0.53428 0.23926 0.10093 0.0
H1323 H 0.52575 0.214 0.04469 0.0
H1324 H 0.51123 0.23006 0.1807 0.0
H1325 H 0.51447 0.29369 0.09277 0.0
H1326 H 0.49326 0.27015 0.07956 0.0
H1327 H 0.51767 0.27482 0.06613 0.0
C1328 C 0.48222 0.21448 0.04791 0.0
C1329 C 0.4959 0.20867 0.03519 0.0
C1330 C 0.48717 0.22895 0.07962 0.0
C1331 C 0.50585 0.23785 0.09942 0.0
C1332 C 0.51984 0.23265 0.08576 0.0
H1333 H 0.52712 0.32461 0.30517 0.0
H1334 H 0.53482 0.30799 0.24718 0.0
C1335 C 0.51497 0.2183 0.05351 0.0
C1336 C 0.50971 0.25091 0.13732 0.0
H1337 H 0.50898 0.29246 0.16949 0.0
C1338 C 0.51119 0.24394 0.17824 0.0
C1339 C 0.50973 0.26902 0.13398 0.0
C1340 C 0.50888 0.2775 0.09071 0.0
C1341 C 0.51141 0.25398 0.21611 0.0
C1342 C 0.51011 0.27139 0.21286 0.0
C1343 C 0.50991 0.27904 0.17187 0.0
C1344 C 0.50674 0.28065 0.25131 0.0
C1345 C 0.51233 0.24558 0.25943 0.0
C1346 C 0.48852 0.27066 0.27308 0.0
C1347 C 0.48402 0.28012 0.30579 0.0
C1348 C 0.49771 0.29974 0.31758 0.0
C1349 C 0.51635 0.30942 0.29711 0.0
C1350 C 0.52074 0.3 0.26387 0.0
H1351 H 0.5182 0.23524 0.25652 0.0
H1352 H 0.52178 0.25763 0.28231 0.0
H1353 H 0.49718 0.23726 0.27332 0.0
H1354 H 0.47743 0.2558 0.26349 0.0
H1355 H 0.46953 0.27228 0.32087 0.0
H1356 H 0.37788 0.50829 0.36175 0.0
H1357 H 0.40977 0.5379 0.37618 0.0
H1358 H 0.42963 0.53513 0.24766 0.0
H1359 H 0.39767 0.50555 0.23252 0.0
H1360 H 0.45826 0.54344 0.32035 0.0
H1361 H 0.42571 0.59273 0.3158 0.0
H1362 H 0.41313 0.57107 0.34955 0.0
H1363 H 0.41356 0.56828 0.29201 0.0
C1364 C 0.38895 0.51389 0.33642 0.0
C1365 C 0.38492 0.50466 0.2956 0.0
C1366 C 0.40722 0.53085 0.34481 0.0
C1367 C 0.42193 0.53888 0.31276 0.0
C1368 C 0.4184 0.52923 0.27273 0.0
H1369 H 0.5245 0.65863 0.31164 0.0
H1370 H 0.49572 0.62698 0.29072 0.0
C1371 C 0.40008 0.51232 0.26416 0.0
C1372 C 0.4407 0.55772 0.32066 0.0
H1373 H 0.45919 0.60724 0.33779 0.0
C1374 C 0.45851 0.55741 0.32404 0.0
C1375 C 0.441 0.57595 0.32492 0.0
C1376 C 0.42239 0.5772 0.32009 0.0
C1377 C 0.47656 0.57483 0.33269 0.0
C1378 C 0.47676 0.59297 0.3382 0.0
C1379 C 0.45901 0.59332 0.33374 0.0
C1380 C 0.4951 0.6117 0.34963 0.0
C1381 C 0.49531 0.57374 0.33562 0.0
C1382 C 0.50434 0.61361 0.38968 0.0
C1383 C 0.52073 0.63169 0.40188 0.0
C1384 C 0.52827 0.64829 0.37425 0.0
C1385 C 0.5192 0.64618 0.3337 0.0
C1386 C 0.5027 0.62811 0.32169 0.0
H1387 H 0.49354 0.56 0.32054 0.0
H1388 H 0.50785 0.58677 0.31969 0.0
H1389 H 0.4992 0.57379 0.37016 0.0
H1390 H 0.49854 0.60124 0.41206 0.0
H1391 H 0.52726 0.6327 0.43336 0.0
H1392 H 0.87542 0.50778 0.66447 0.0
H1393 H 0.87785 0.47816 0.65195 0.0
H1394 H 0.90777 0.4868 0.77394 0.0
H1395 H 0.90536 0.51655 0.7871 0.0
H1396 H 0.92471 0.47636 0.69959 0.0
H1397 H 0.84389 0.42549 0.72192 0.0
H1398 H 0.85041 0.44558 0.68468 0.0
H1399 H 0.85642 0.4508 0.74097 0.0
C1400 C 0.88253 0.50348 0.68879 0.0
C1401 C 0.88987 0.51447 0.72722 0.0
C1402 C 0.88389 0.48649 0.68151 0.0
C1403 C 0.89268 0.48009 0.71233 0.0
C1404 C 0.90078 0.49141 0.74989 0.0
H1405 H 0.87756 0.36095 0.71298 0.0
H1406 H 0.88067 0.39253 0.7353 0.0
C1407 C 0.89936 0.50841 0.75735 0.0
C1408 C 0.89294 0.46134 0.70553 0.0
H1409 H 0.86245 0.41135 0.69428 0.0
C1410 C 0.91113 0.46212 0.69869 0.0
C1411 C 0.87523 0.44276 0.70495 0.0
C1412 C 0.85536 0.44097 0.71387 0.0
C1413 C 0.912 0.44484 0.68985 0.0
C1414 C 0.8942 0.42635 0.68754 0.0
C1415 C 0.87609 0.42553 0.69579 0.0
C1416 C 0.8939 0.40772 0.67529 0.0
C1417 C 0.93195 0.4465 0.68317 0.0
C1418 C 0.90036 0.40576 0.63418 0.0
C1419 C 0.89857 0.38772 0.62122 0.0
C1420 C 0.89018 0.37117 0.64907 0.0
C1421 C 0.88413 0.37334 0.69067 0.0
C1422 C 0.88586 0.39139 0.7035 0.0
H1423 H 0.94409 0.46039 0.69735 0.0
H1424 H 0.93234 0.43367 0.69775 0.0
H1425 H 0.93483 0.44666 0.64798 0.0
H1426 H 0.90627 0.41803 0.61155 0.0
H1427 H 0.90337 0.38667 0.58894 0.0
H1428 H 0.5184 0.87052 0.03022 0.0
H1429 H 0.4891 0.8728 0.04917 0.0
H1430 H 0.49276 0.90117 0.92709 0.0
H1431 H 0.52204 0.89898 0.90768 0.0
H1432 H 0.48553 0.91927 1.0028 0.0
H1433 H 0.43374 0.83805 0.99043 0.0
H1434 H 0.4552 0.84549 0.02387 0.0
H1435 H 0.45822 0.85006 0.96669 0.0
C1436 C 0.5131 0.87737 1.00744 0.0
C1437 C 0.5226 0.88447 0.96727 0.0
C1438 C 0.49626 0.87857 0.01828 0.0
C1439 C 0.48861 0.88694 0.98932 0.0
C1440 C 0.49837 0.89458 0.94984 0.0
H1441 H 0.37117 0.87478 0.99246 0.0
H1442 H 0.40228 0.87643 0.97169 0.0
C1443 C 0.51512 0.89328 0.93881 0.0
C1444 C 0.47021 0.8874 0.99981 0.0
H1445 H 0.42043 0.85753 0.01633 0.0
C1446 C 0.47129 0.90579 1.00576 0.0
C1447 C 0.4516 0.86981 1.00309 0.0
C1448 C 0.44946 0.8497 0.99538 0.0
C1449 C 0.4543 0.90702 0.01571 0.0
C1450 C 0.43576 0.88939 0.01998 0.0
C1451 C 0.43465 0.87103 0.01326 0.0
C1452 C 0.41735 0.88961 0.03171 0.0
C1453 C 0.45625 0.92717 0.02105 0.0
C1454 C 0.41548 0.89655 0.07233 0.0
C1455 C 0.39769 0.89559 0.08441 0.0
C1456 C 0.38133 0.88764 0.05612 0.0
C1457 C 0.38342 0.88107 0.01506 0.0
C1458 C 0.4012 0.88194 1.00314 0.0
H1459 H 0.47029 0.93911 1.00689 0.0
H1460 H 0.44361 0.92761 1.00562 0.0
H1461 H 0.45615 0.93031 0.05602 0.0
H1462 H 0.42762 0.90226 0.09517 0.0
H1463 H 0.39668 0.90075 0.11632 0.0
H1464 H 0.63584 0.5204 0.24029 0.0
H1465 H 0.60473 0.49103 0.26086 0.0
H1466 H 0.63007 0.48901 0.38329 0.0
H1467 H 0.6614 0.51842 0.36301 0.0
H1468 H 0.61109 0.45229 0.33777 0.0
H1469 H 0.56269 0.48552 0.35003 0.0
H1470 H 0.57659 0.4909 0.30057 0.0
H1471 H 0.58941 0.50025 0.35091 0.0
C1472 C 0.63481 0.51389 0.27184 0.0
C1473 C 0.65121 0.52188 0.3 0.0
C1474 C 0.61693 0.49711 0.2836 0.0
C1475 C 0.61499 0.48792 0.32377 0.0
C1476 C 0.63121 0.49592 0.35219 0.0
H1477 H 0.50884 0.39329 0.44495 0.0
H1478 H 0.53852 0.42455 0.4262 0.0
C1479 C 0.6491 0.51279 0.34057 0.0
C1480 C 0.59636 0.46941 0.33518 0.0
H1481 H 0.5467 0.45033 0.35219 0.0
C1482 C 0.59702 0.45187 0.34106 0.0
C1483 C 0.57803 0.4689 0.33974 0.0
C1484 C 0.57655 0.48741 0.33538 0.0
C1485 C 0.57982 0.4338 0.35065 0.0
C1486 C 0.56141 0.43318 0.35412 0.0
C1487 C 0.56079 0.45078 0.34904 0.0
C1488 C 0.54275 0.41446 0.3641 0.0
C1489 C 0.5815 0.41551 0.35758 0.0
C1490 C 0.53498 0.39851 0.33494 0.0
C1491 C 0.51791 0.38059 0.34543 0.0
C1492 C 0.50829 0.37822 0.3854 0.0
C1493 C 0.51586 0.39448 0.41397 0.0
C1494 C 0.53284 0.41241 0.40332 0.0
H1495 H 0.59709 0.41925 0.36289 0.0
H1496 H 0.57245 0.40688 0.38578 0.0
H1497 H 0.57583 0.4059 0.32856 0.0
H1498 H 0.54223 0.39987 0.30421 0.0
H1499 H 0.51254 0.36845 0.32258 0.0
H1500 H 0.17266 0.65386 0.66841 0.0
H1501 H 0.1691 0.6215 0.68251 0.0
H1502 H 0.11334 0.59344 0.61428 0.0
H1503 H 0.11736 0.62613 0.59832 0.0
H1504 H 0.14393 0.59175 0.72698 0.0
H1505 H 0.13862 0.5659 0.55807 0.0
H1506 H 0.14512 0.591 0.571 0.0
H1507 H 0.11957 0.57151 0.57148 0.0
C1508 C 0.15959 0.64083 0.65646 0.0
C1509 C 0.14524 0.6426 0.63244 0.0
C1510 C 0.15759 0.62227 0.66444 0.0
C1511 C 0.14108 0.60489 0.64906 0.0
C1512 C 0.12651 0.60657 0.62554 0.0
H1513 H 0.11731 0.4915 0.76216 0.0
H1514 H 0.11513 0.52063 0.74132 0.0
C1515 C 0.12872 0.62526 0.61675 0.0
C1516 C 0.13913 0.58521 0.65893 0.0
H1517 H 0.13269 0.54238 0.61328 0.0
C1518 C 0.1415 0.58099 0.70201 0.0
C1519 C 0.13622 0.57117 0.62643 0.0
C1520 C 0.13494 0.57518 0.57913 0.0
C1521 C 0.14132 0.56344 0.71345 0.0
C1522 C 0.13774 0.5491 0.68121 0.0
C1523 C 0.1352 0.5532 0.63815 0.0
C1524 C 0.13751 0.53021 0.69121 0.0
C1525 C 0.14583 0.56094 0.75977 0.0
C1526 C 0.14988 0.52507 0.66828 0.0
C1527 C 0.1507 0.50804 0.6793 0.0
C1528 C 0.13934 0.49591 0.71385 0.0
C1529 C 0.12645 0.50068 0.73576 0.0
C1530 C 0.12533 0.51746 0.72411 0.0
H1531 H 0.15412 0.57544 0.77658 0.0
H1532 H 0.13172 0.55189 0.77754 0.0
H1533 H 0.1547 0.5534 0.76166 0.0
H1534 H 0.15936 0.53453 0.64259 0.0
H1535 H 0.16081 0.50482 0.6618 0.0
H1536 H 0.66287 0.16454 0.01325 0.0
H1537 H 0.63161 0.16354 0.99834 0.0
H1538 H 0.60086 0.11231 0.08112 0.0
H1539 H 0.63233 0.11399 0.09812 0.0
H1540 H 0.59943 0.13897 0.96126 0.0
H1541 H 0.57981 0.14474 0.1304 0.0
H1542 H 0.60361 0.14789 0.11585 0.0
H1543 H 0.58248 0.1234 0.12277 0.0
C1544 C 0.64945 0.15307 0.02835 0.0
C1545 C 0.65011 0.13943 0.05711 0.0
C1546 C 0.63154 0.15251 0.01981 0.0
C1547 C 0.6138 0.13813 0.03933 0.0
C1548 C 0.61435 0.12401 0.06683 0.0
H1549 H 0.49959 0.11506 0.93482 0.0
H1550 H 0.529 0.11316 0.95422 0.0
C1551 C 0.63235 0.12485 0.07619 0.0
C1552 C 0.59481 0.13781 0.03014 0.0
H1553 H 0.55448 0.13632 0.07791 0.0
C1554 C 0.58967 0.1385 0.98686 0.0
C1555 C 0.58213 0.13755 0.0634 0.0
C1556 C 0.58739 0.13858 0.11067 0.0
C1557 C 0.57237 0.1389 0.9759 0.0
C1558 C 0.55918 0.13761 1.00906 0.0
C1559 C 0.56435 0.13701 0.05236 0.0
C1560 C 0.54035 0.13757 0.99967 0.0
C1561 C 0.56889 0.14145 0.92888 0.0
C1562 C 0.53609 0.15102 0.02071 0.0
C1563 C 0.51887 0.15164 1.01076 0.0
C1564 C 0.50567 0.13902 0.97906 0.0
C1565 C 0.5096 0.12516 0.95899 0.0
C1566 C 0.52656 0.12421 0.96973 0.0
H1567 H 0.58299 0.14864 0.91029 0.0
H1568 H 0.55919 0.12667 0.91429 0.0
H1569 H 0.56165 0.15055 0.92514 0.0
H1570 H 0.54634 0.16141 0.04415 0.0
H1571 H 0.5163 0.16253 0.02674 0.0
loop_
_geom_bond_atom_site_label_1
_geom_bond_atom_site_label_2
_geom_bond_distance
_geom_bond_site_symmetry_2
_ccdc_geom_bond_type
Co0 O2 2.143 . S
Co0 O8 2.074 . S
Co0 O11 2.093 . S
Co0 O24 2.097 . S
Co0 N41 2.151 . S
Co0 N49 2.214 . S
Co1 O2 2.160 . S
Co1 O7 2.058 . S
Co1 O17 2.057 . S
Co1 O32 2.037 . S
Co1 N36 2.145 . S
Co1 N57 2.257 . S
O2 Co0 2.143 . S
O2 Co1 2.160 . S
C3 O4 1.278 . S
C3 O11 1.224 . S
O4 C3 1.278 . S
C5 O6 1.245 . S
C5 O17 1.232 . S
O6 C5 1.245 . S
O7 Co1 2.058 . S
O7 C33 1.269 . S
O8 Co0 2.074 . S
O8 C33 1.257 . S
H9 C34 0.930 . S
H10 C40 0.930 . S
O11 Co0 2.093 . S
O11 C3 1.224 . S
H12 C44 0.929 . S
H13 C46 0.930 . S
H14 C47 0.930 . S
H15 C45 0.929 . S
H16 C48 0.928 . S
O17 Co1 2.057 . S
O17 C5 1.232 . S
H18 C37 0.929 . S
H19 C38 0.929 . S
H20 C50 0.931 . S
H21 C42 0.929 . S
H22 C51 0.930 . S
H23 C43 0.931 . S
O24 Co0 2.097 . S
O24 C52 1.214 . S
H25 C53 0.929 . S
H26 C54 0.929 . S
H27 C55 0.930 . S
H28 C56 0.929 . S
H29 C58 0.930 . S
H30 C35 0.930 . S
H31 C39 0.930 . S
O32 Co1 2.037 . S
O32 C52 1.234 . S
C33 O7 1.269 . S
C33 O8 1.257 . S
C34 H9 0.930 . S
C34 C37 1.388 . S
C34 C39 1.418 . S
C35 H30 0.930 . S
C35 C38 1.404 . S
C35 C39 1.353 . S
N36 Co1 2.145 . S
N36 C37 1.397 . S
N36 C38 1.334 . S
C37 H18 0.929 . S
C37 C34 1.388 . S
C37 N36 1.397 . S
C38 H19 0.929 . S
C38 C35 1.404 . S
C38 N36 1.334 . S
C39 H31 0.930 . S
C39 C34 1.418 . S
C39 C35 1.353 . S
C40 H10 0.930 . S
C40 N41 1.330 . S
C40 C42 1.446 . S
N41 Co0 2.151 . S
N41 C40 1.330 . S
N41 C45 1.418 . S
C42 H21 0.929 . S
C42 C40 1.446 . S
C42 C43 1.332 . S
C43 H23 0.931 . S
C43 C42 1.332 . S
C43 C44 1.267 . S
C44 H12 0.929 . S
C44 C43 1.267 . S
C44 C45 1.251 . S
C45 H15 0.929 . S
C45 N41 1.418 . S
C45 C44 1.251 . S
C46 H13 0.930 . S
C46 C48 1.406 . S
C46 C51 1.261 . S
C47 H14 0.930 . S
C47 N49 1.325 . S
C47 C50 1.357 . S
C48 H16 0.928 . S
C48 C46 1.406 . S
C48 N49 1.261 . S
N49 Co0 2.214 . S
N49 C47 1.325 . S
N49 C48 1.261 . S
C50 H20 0.931 . S
C50 C47 1.357 . S
C50 C51 1.312 . S
C51 H22 0.930 . S
C51 C46 1.261 . S
C51 C50 1.312 . S
C52 O24 1.214 . S
C52 O32 1.234 . S
C53 H25 0.929 . S
C53 C56 1.391 . S
C53 C58 1.391 . S
C54 H26 0.929 . S
C54 C55 1.390 . S
C54 N57 1.391 . S
C55 H27 0.930 . S
C55 C54 1.390 . S
C55 C56 1.392 . S
C56 H28 0.929 . S
C56 C53 1.391 . S
C56 C55 1.392 . S
N57 Co1 2.257 . S
N57 C54 1.391 . S
N57 C58 1.388 . S
C58 H29 0.930 . S
C58 C53 1.391 . S
C58 N57 1.388 . S
Co59 O61 2.143 . S
Co59 O67 2.074 . S
Co59 O70 2.093 . S
Co59 O83 2.097 . S
Co59 N100 2.151 . S
Co59 N108 2.214 . S
Co60 O61 2.160 . S
Co60 O66 2.058 . S
Co60 O76 2.057 . S
Co60 O91 2.037 . S
Co60 N95 2.145 . S
Co60 N116 2.257 . S
O61 Co59 2.143 . S
O61 Co60 2.160 . S
C62 O63 1.278 . S
C62 O70 1.224 . S
O63 C62 1.278 . S
C64 O65 1.245 . S
C64 O76 1.232 . S
O65 C64 1.245 . S
O66 Co60 2.058 . S
O66 C92 1.269 . S
O67 Co59 2.074 . S
O67 C92 1.257 . S
H68 C93 0.930 . S
H69 C99 0.930 . S
O70 Co59 2.093 . S
O70 C62 1.224 . S
H71 C103 0.929 . S
H72 C105 0.930 . S
H73 C106 0.930 . S
H74 C104 0.929 . S
H75 C107 0.928 . S
O76 Co60 2.057 . S
O76 C64 1.232 . S
H77 C96 0.929 . S
H78 C97 0.929 . S
H79 C109 0.931 . S
H80 C101 0.929 . S
H81 C110 0.930 . S
H82 C102 0.931 . S
O83 Co59 2.097 . S
O83 C111 1.214 . S
H84 C112 0.929 . S
H85 C113 0.929 . S
H86 C114 0.930 . S
H87 C115 0.929 . S
H88 C117 0.930 . S
H89 C94 0.930 . S
H90 C98 0.930 . S
O91 Co60 2.037 . S
O91 C111 1.234 . S
C92 O66 1.269 . S
C92 O67 1.257 . S
C93 H68 0.930 . S
C93 C96 1.388 . S
C93 C98 1.418 . S
C94 H89 0.930 . S
C94 C97 1.404 . S
C94 C98 1.353 . S
N95 Co60 2.145 . S
N95 C96 1.397 . S
N95 C97 1.334 . S
C96 H77 0.929 . S
C96 C93 1.388 . S
C96 N95 1.397 . S
C97 H78 0.929 . S
C97 C94 1.404 . S
C97 N95 1.334 . S
C98 H90 0.930 . S
C98 C93 1.418 . S
C98 C94 1.353 . S
C99 H69 0.930 . S
C99 N100 1.330 . S
C99 C101 1.446 . S
N100 Co59 2.151 . S
N100 C99 1.330 . S
N100 C104 1.418 . S
C101 H80 0.929 . S
C101 C99 1.446 . S
C101 C102 1.332 . S
C102 H82 0.931 . S
C102 C101 1.332 . S
C102 C103 1.267 . S
C103 H71 0.929 . S
C103 C102 1.267 . S
C103 C104 1.251 . S
C104 H74 0.929 . S
C104 N100 1.418 . S
C104 C103 1.251 . S
C105 H72 0.930 . S
C105 C107 1.406 . S
C105 C110 1.261 . S
C106 H73 0.930 . S
C106 N108 1.325 . S
C106 C109 1.357 . S
C107 H75 0.928 . S
C107 C105 1.406 . S
C107 N108 1.261 . S
N108 Co59 2.214 . S
N108 C106 1.325 . S
N108 C107 1.261 . S
C109 H79 0.931 . S
C109 C106 1.357 . S
C109 C110 1.312 . S
C110 H81 0.930 . S
C110 C105 1.261 . S
C110 C109 1.312 . S
C111 O83 1.214 . S
C111 O91 1.234 . S
C112 H84 0.929 . S
C112 C115 1.391 . S
C112 C117 1.391 . S
C113 H85 0.929 . S
C113 C114 1.390 . S
C113 N116 1.391 . S
C114 H86 0.930 . S
C114 C113 1.390 . S
C114 C115 1.392 . S
C115 H87 0.929 . S
C115 C112 1.391 . S
C115 C114 1.392 . S
N116 Co60 2.257 . S
N116 C113 1.391 . S
N116 C117 1.388 . S
C117 H88 0.930 . S
C117 C112 1.391 . S
C117 N116 1.388 . S
Co118 O120 2.143 1_554 S
Co118 O126 2.074 1_554 S
Co118 O129 2.093 . S
Co118 O142 2.098 . S
Co118 N159 2.151 . S
Co118 N167 2.214 . S
Co119 O120 2.160 . S
Co119 O125 2.058 . S
Co119 O135 2.057 . S
Co119 O150 2.037 . S
Co119 N154 2.145 . S
Co119 N175 2.257 . S
O120 Co118 2.143 1_556 S
O120 Co119 2.160 . S
C121 O122 1.278 1_554 S
C121 O129 1.224 . S
O122 C121 1.278 1_556 S
C123 O124 1.245 . S
C123 O135 1.232 . S
O124 C123 1.245 . S
O125 Co119 2.058 . S
O125 C151 1.269 . S
O126 Co118 2.074 1_556 S
O126 C151 1.257 . S
H127 C152 0.930 . S
H128 C158 0.930 . S
O129 Co118 2.093 . S
O129 C121 1.224 . S
H130 C162 0.929 . S
H131 C164 0.930 . S
H132 C165 0.930 . S
H133 C163 0.929 . S
H134 C166 0.928 . S
O135 Co119 2.057 . S
O135 C123 1.232 . S
H136 C155 0.929 . S
H137 C156 0.929 . S
H138 C168 0.931 . S
H139 C160 0.929 . S
H140 C169 0.930 . S
H141 C161 0.931 . S
O142 Co118 2.098 . S
O142 C170 1.200 1_554 S
H143 C171 0.929 . S
H144 C172 0.929 . S
H145 C173 0.930 . S
H146 C174 0.929 . S
H147 C176 0.930 . S
H148 C153 0.930 . S
H149 C157 0.930 . S
O150 Co119 2.037 . S
O150 C170 1.234 . S
C151 O125 1.269 . S
C151 O126 1.257 . S
C152 H127 0.930 . S
C152 C155 1.388 . S
C152 C157 1.418 . S
C153 H148 0.930 . S
C153 C156 1.404 . S
C153 C157 1.353 . S
N154 Co119 2.145 . S
N154 C155 1.397 . S
N154 C156 1.334 . S
C155 H136 0.929 . S
C155 C152 1.388 . S
C155 N154 1.397 . S
C156 H137 0.929 . S
C156 C153 1.404 . S
C156 N154 1.334 . S
C157 H149 0.930 . S
C157 C152 1.418 . S
C157 C153 1.353 . S
C158 H128 0.930 . S
C158 N159 1.330 . S
C158 C160 1.446 . S
N159 Co118 2.151 . S
N159 C158 1.330 . S
N159 C163 1.418 . S
C160 H139 0.929 . S
C160 C158 1.446 . S
C160 C161 1.332 . S
C161 H141 0.931 . S
C161 C160 1.332 . S
C161 C162 1.267 . S
C162 H130 0.929 . S
C162 C161 1.267 . S
C162 C163 1.251 . S
C163 H133 0.929 . S
C163 N159 1.418 . S
C163 C162 1.251 . S
C164 H131 0.930 . S
C164 C166 1.406 . S
C164 C169 1.261 . S
C165 H132 0.930 . S
C165 N167 1.325 . S
C165 C168 1.357 . S
C166 H134 0.928 . S
C166 C164 1.406 . S
C166 N167 1.261 . S
N167 Co118 2.214 . S
N167 C165 1.325 . S
N167 C166 1.261 . S
C168 H138 0.931 . S
C168 C165 1.357 . S
C168 C169 1.312 . S
C169 H140 0.930 . S
C169 C164 1.261 . S
C169 C168 1.312 . S
C170 O142 1.200 1_556 S
C170 O150 1.234 . S
C171 H143 0.929 . S
C171 C174 1.391 . S
C171 C176 1.391 . S
C172 H144 0.929 . S
C172 C173 1.390 . S
C172 N175 1.391 . S
C173 H145 0.930 . S
C173 C172 1.390 . S
C173 C174 1.392 . S
C174 H146 0.929 . S
C174 C171 1.391 . S
C174 C173 1.392 . S
N175 Co119 2.257 . S
N175 C172 1.391 . S
N175 C176 1.388 . S
C176 H147 0.930 . S
C176 C171 1.391 . S
C176 N175 1.388 . S
Co177 O179 2.143 . S
Co177 O185 2.074 . S
Co177 O188 2.093 . S
Co177 O201 2.097 . S
Co177 N218 2.151 . S
Co177 N226 2.214 . S
Co178 O179 2.160 . S
Co178 O184 2.058 . S
Co178 O194 2.057 . S
Co178 O209 2.037 . S
Co178 N213 2.145 . S
Co178 N234 2.257 . S
O179 Co177 2.143 . S
O179 Co178 2.160 . S
C180 O181 1.278 . S
C180 O188 1.224 . S
O181 C180 1.278 . S
C182 O183 1.245 . S
C182 O194 1.232 . S
O183 C182 1.245 . S
O184 Co178 2.058 . S
O184 C210 1.269 . S
O185 Co177 2.074 . S
O185 C210 1.257 . S
H186 C211 0.930 . S
H187 C217 0.930 . S
O188 Co177 2.093 . S
O188 C180 1.224 . S
H189 C221 0.929 . S
H190 C223 0.930 . S
H191 C224 0.930 . S
H192 C222 0.929 . S
H193 C225 0.928 . S
O194 Co178 2.057 . S
O194 C182 1.232 . S
H195 C214 0.929 . S
H196 C215 0.929 . S
H197 C227 0.931 . S
H198 C219 0.929 . S
H199 C228 0.930 . S
H200 C220 0.931 . S
O201 Co177 2.097 . S
O201 C229 1.214 . S
H202 C230 0.929 . S
H203 C231 0.929 . S
H204 C232 0.930 . S
H205 C233 0.929 . S
H206 C235 0.930 . S
H207 C212 0.930 . S
H208 C216 0.930 . S
O209 Co178 2.037 . S
O209 C229 1.234 . S
C210 O184 1.269 . S
C210 O185 1.257 . S
C211 H186 0.930 . S
C211 C214 1.388 . S
C211 C216 1.418 . S
C212 H207 0.930 . S
C212 C215 1.404 . S
C212 C216 1.353 . S
N213 Co178 2.145 . S
N213 C214 1.397 . S
N213 C215 1.334 . S
C214 H195 0.929 . S
C214 C211 1.388 . S
C214 N213 1.397 . S
C215 H196 0.929 . S
C215 C212 1.404 . S
C215 N213 1.334 . S
C216 H208 0.930 . S
C216 C211 1.418 . S
C216 C212 1.353 . S
C217 H187 0.930 . S
C217 N218 1.330 . S
C217 C219 1.446 . S
N218 Co177 2.151 . S
N218 C217 1.330 . S
N218 C222 1.418 . S
C219 H198 0.929 . S
C219 C217 1.446 . S
C219 C220 1.332 . S
C220 H200 0.931 . S
C220 C219 1.332 . S
C220 C221 1.267 . S
C221 H189 0.929 . S
C221 C220 1.267 . S
C221 C222 1.251 . S
C222 H192 0.929 . S
C222 N218 1.418 . S
C222 C221 1.251 . S
C223 H190 0.930 . S
C223 C225 1.406 . S
C223 C228 1.261 . S
C224 H191 0.930 . S
C224 N226 1.325 . S
C224 C227 1.357 . S
C225 H193 0.928 . S
C225 C223 1.406 . S
C225 N226 1.261 . S
N226 Co177 2.214 . S
N226 C224 1.325 . S
N226 C225 1.261 . S
C227 H197 0.931 . S
C227 C224 1.357 . S
C227 C228 1.312 . S
C228 H199 0.930 . S
C228 C223 1.261 . S
C228 C227 1.312 . S
C229 O201 1.214 . S
C229 O209 1.234 . S
C230 H202 0.929 . S
C230 C233 1.391 . S
C230 C235 1.391 . S
C231 H203 0.929 . S
C231 C232 1.390 . S
C231 N234 1.391 . S
C232 H204 0.930 . S
C232 C231 1.390 . S
C232 C233 1.392 . S
C233 H205 0.929 . S
C233 C230 1.391 . S
C233 C232 1.392 . S
N234 Co178 2.257 . S
N234 C231 1.391 . S
N234 C235 1.388 . S
C235 H206 0.930 . S
C235 C230 1.391 . S
C235 N234 1.388 . S
Co236 O238 2.143 . S
Co236 O244 2.074 . S
Co236 O247 2.093 . S
Co236 O260 2.097 . S
Co236 N277 2.151 . S
Co236 N285 2.214 . S
Co237 O238 2.160 . S
Co237 O243 2.058 . S
Co237 O253 2.057 . S
Co237 O268 2.037 . S
Co237 N272 2.145 . S
Co237 N293 2.257 . S
O238 Co236 2.143 . S
O238 Co237 2.160 . S
C239 O240 1.278 . S
C239 O247 1.224 . S
O240 C239 1.278 . S
C241 O242 1.245 . S
C241 O253 1.232 . S
O242 C241 1.245 . S
O243 Co237 2.058 . S
O243 C269 1.269 . S
O244 Co236 2.074 . S
O244 C269 1.257 . S
H245 C270 0.930 . S
H246 C276 0.930 . S
O247 Co236 2.093 . S
O247 C239 1.224 . S
H248 C280 0.929 . S
H249 C282 0.930 . S
H250 C283 0.930 . S
H251 C281 0.929 . S
H252 C284 0.928 . S
O253 Co237 2.057 . S
O253 C241 1.232 . S
H254 C273 0.929 . S
H255 C274 0.929 . S
H256 C286 0.931 . S
H257 C278 0.929 . S
H258 C287 0.930 . S
H259 C279 0.931 . S
O260 Co236 2.097 . S
O260 C288 1.214 . S
H261 C289 0.929 . S
H262 C290 0.929 . S
H263 C291 0.930 . S
H264 C292 0.929 . S
H265 C294 0.930 . S
H266 C271 0.930 . S
H267 C275 0.930 . S
O268 Co237 2.037 . S
O268 C288 1.234 . S
C269 O243 1.269 . S
C269 O244 1.257 . S
C270 H245 0.930 . S
C270 C273 1.388 . S
C270 C275 1.418 . S
C271 H266 0.930 . S
C271 C274 1.404 . S
C271 C275 1.353 . S
N272 Co237 2.145 . S
N272 C273 1.397 . S
N272 C274 1.334 . S
C273 H254 0.929 . S
C273 C270 1.388 . S
C273 N272 1.397 . S
C274 H255 0.929 . S
C274 C271 1.404 . S
C274 N272 1.334 . S
C275 H267 0.930 . S
C275 C270 1.418 . S
C275 C271 1.353 . S
C276 H246 0.930 . S
C276 N277 1.330 . S
C276 C278 1.446 . S
N277 Co236 2.151 . S
N277 C276 1.330 . S
N277 C281 1.418 . S
C278 H257 0.929 . S
C278 C276 1.446 . S
C278 C279 1.332 . S
C279 H259 0.931 . S
C279 C278 1.332 . S
C279 C280 1.267 . S
C280 H248 0.929 . S
C280 C279 1.267 . S
C280 C281 1.251 . S
C281 H251 0.929 . S
C281 N277 1.418 . S
C281 C280 1.251 . S
C282 H249 0.930 . S
C282 C284 1.406 . S
C282 C287 1.261 . S
C283 H250 0.930 . S
C283 N285 1.325 . S
C283 C286 1.357 . S
C284 H252 0.928 . S
C284 C282 1.406 . S
C284 N285 1.261 . S
N285 Co236 2.214 . S
N285 C283 1.325 . S
N285 C284 1.261 . S
C286 H256 0.931 . S
C286 C283 1.357 . S
C286 C287 1.312 . S
C287 H258 0.930 . S
C287 C282 1.261 . S
C287 C286 1.312 . S
C288 O260 1.214 . S
C288 O268 1.234 . S
C289 H261 0.929 . S
C289 C292 1.391 . S
C289 C294 1.391 . S
C290 H262 0.929 . S
C290 C291 1.390 . S
C290 N293 1.391 . S
C291 H263 0.930 . S
C291 C290 1.390 . S
C291 C292 1.392 . S
C292 H264 0.929 . S
C292 C289 1.391 . S
C292 C291 1.392 . S
N293 Co237 2.257 . S
N293 C290 1.391 . S
N293 C294 1.388 . S
C294 H265 0.930 . S
C294 C289 1.391 . S
C294 N293 1.388 . S
Co295 O297 2.143 1_554 S
Co295 O303 2.074 1_554 S
Co295 O306 2.093 . S
Co295 O319 2.098 . S
Co295 N336 2.151 . S
Co295 N344 2.214 . S
Co296 O297 2.160 . S
Co296 O302 2.058 . S
Co296 O312 2.057 . S
Co296 O327 2.037 . S
Co296 N331 2.145 . S
Co296 N352 2.257 . S
O297 Co295 2.143 1_556 S
O297 Co296 2.160 . S
C298 O299 1.278 1_554 S
C298 O306 1.224 . S
O299 C298 1.278 1_556 S
C300 O301 1.245 . S
C300 O312 1.232 . S
O301 C300 1.245 . S
O302 Co296 2.058 . S
O302 C328 1.269 . S
O303 Co295 2.074 1_556 S
O303 C328 1.257 . S
H304 C329 0.930 . S
H305 C335 0.930 . S
O306 Co295 2.093 . S
O306 C298 1.224 . S
H307 C339 0.929 . S
H308 C341 0.930 . S
H309 C342 0.930 . S
H310 C340 0.929 . S
H311 C343 0.928 . S
O312 Co296 2.057 . S
O312 C300 1.232 . S
H313 C332 0.929 . S
H314 C333 0.929 . S
H315 C345 0.931 . S
H316 C337 0.929 . S
H317 C346 0.930 . S
H318 C338 0.931 . S
O319 Co295 2.098 . S
O319 C347 1.200 1_554 S
H320 C348 0.929 . S
H321 C349 0.929 . S
H322 C350 0.930 . S
H323 C351 0.929 . S
H324 C353 0.930 . S
H325 C330 0.930 . S
H326 C334 0.930 . S
O327 Co296 2.037 . S
O327 C347 1.234 . S
C328 O302 1.269 . S
C328 O303 1.257 . S
C329 H304 0.930 . S
C329 C332 1.388 . S
C329 C334 1.418 . S
C330 H325 0.930 . S
C330 C333 1.404 . S
C330 C334 1.353 . S
N331 Co296 2.145 . S
N331 C332 1.397 . S
N331 C333 1.334 . S
C332 H313 0.929 . S
C332 C329 1.388 . S
C332 N331 1.397 . S
C333 H314 0.929 . S
C333 C330 1.404 . S
C333 N331 1.334 . S
C334 H326 0.930 . S
C334 C329 1.418 . S
C334 C330 1.353 . S
C335 H305 0.930 . S
C335 N336 1.330 . S
C335 C337 1.446 . S
N336 Co295 2.151 . S
N336 C335 1.330 . S
N336 C340 1.418 . S
C337 H316 0.929 . S
C337 C335 1.446 . S
C337 C338 1.332 . S
C338 H318 0.931 . S
C338 C337 1.332 . S
C338 C339 1.267 . S
C339 H307 0.929 . S
C339 C338 1.267 . S
C339 C340 1.251 . S
C340 H310 0.929 . S
C340 N336 1.418 . S
C340 C339 1.251 . S
C341 H308 0.930 . S
C341 C343 1.406 . S
C341 C346 1.261 . S
C342 H309 0.930 . S
C342 N344 1.325 . S
C342 C345 1.357 . S
C343 H311 0.928 . S
C343 C341 1.406 . S
C343 N344 1.261 . S
N344 Co295 2.214 . S
N344 C342 1.325 . S
N344 C343 1.261 . S
C345 H315 0.931 . S
C345 C342 1.357 . S
C345 C346 1.312 . S
C346 H317 0.930 . S
C346 C341 1.261 . S
C346 C345 1.312 . S
C347 O319 1.200 1_556 S
C347 O327 1.234 . S
C348 H320 0.929 . S
C348 C351 1.391 . S
C348 C353 1.391 . S
C349 H321 0.929 . S
C349 C350 1.390 . S
C349 N352 1.391 . S
C350 H322 0.930 . S
C350 C349 1.390 . S
C350 C351 1.392 . S
C351 H323 0.929 . S
C351 C348 1.391 . S
C351 C350 1.392 . S
N352 Co296 2.257 . S
N352 C349 1.391 . S
N352 C353 1.388 . S
C353 H324 0.930 . S
C353 C348 1.391 . S
C353 N352 1.388 . S
Co354 O356 2.143 . S
Co354 O362 2.074 . S
Co354 O365 2.093 . S
Co354 O378 2.097 . S
Co354 N395 2.151 . S
Co354 N403 2.214 . S
Co355 O356 2.160 . S
Co355 O361 2.058 . S
Co355 O371 2.057 . S
Co355 O386 2.037 . S
Co355 N390 2.145 . S
Co355 N411 2.257 . S
O356 Co354 2.143 . S
O356 Co355 2.160 . S
C357 O358 1.278 . S
C357 O365 1.224 . S
O358 C357 1.278 . S
C359 O360 1.245 . S
C359 O371 1.232 . S
O360 C359 1.245 . S
O361 Co355 2.058 . S
O361 C387 1.269 . S
O362 Co354 2.074 . S
O362 C387 1.257 . S
H363 C388 0.930 . S
H364 C394 0.930 . S
O365 Co354 2.093 . S
O365 C357 1.224 . S
H366 C398 0.929 . S
H367 C400 0.930 . S
H368 C401 0.930 . S
H369 C399 0.929 . S
H370 C402 0.928 . S
O371 Co355 2.057 . S
O371 C359 1.232 . S
H372 C391 0.929 . S
H373 C392 0.929 . S
H374 C404 0.931 . S
H375 C396 0.929 . S
H376 C405 0.930 . S
H377 C397 0.931 . S
O378 Co354 2.097 . S
O378 C406 1.214 . S
H379 C407 0.929 . S
H380 C408 0.929 . S
H381 C409 0.930 . S
H382 C410 0.929 . S
H383 C412 0.930 . S
H384 C389 0.930 . S
H385 C393 0.930 . S
O386 Co355 2.037 . S
O386 C406 1.234 . S
C387 O361 1.269 . S
C387 O362 1.257 . S
C388 H363 0.930 . S
C388 C391 1.388 . S
C388 C393 1.418 . S
C389 H384 0.930 . S
C389 C392 1.404 . S
C389 C393 1.353 . S
N390 Co355 2.145 . S
N390 C391 1.397 . S
N390 C392 1.334 . S
C391 H372 0.929 . S
C391 C388 1.388 . S
C391 N390 1.397 . S
C392 H373 0.929 . S
C392 C389 1.404 . S
C392 N390 1.334 . S
C393 H385 0.930 . S
C393 C388 1.418 . S
C393 C389 1.353 . S
C394 H364 0.930 . S
C394 N395 1.330 . S
C394 C396 1.446 . S
N395 Co354 2.151 . S
N395 C394 1.330 . S
N395 C399 1.418 . S
C396 H375 0.929 . S
C396 C394 1.446 . S
C396 C397 1.332 . S
C397 H377 0.931 . S
C397 C396 1.332 . S
C397 C398 1.267 . S
C398 H366 0.929 . S
C398 C397 1.267 . S
C398 C399 1.251 . S
C399 H369 0.929 . S
C399 N395 1.418 . S
C399 C398 1.251 . S
C400 H367 0.930 . S
C400 C402 1.406 . S
C400 C405 1.261 . S
C401 H368 0.930 . S
C401 N403 1.325 . S
C401 C404 1.357 . S
C402 H370 0.928 . S
C402 C400 1.406 . S
C402 N403 1.261 . S
N403 Co354 2.214 . S
N403 C401 1.325 . S
N403 C402 1.261 . S
C404 H374 0.931 . S
C404 C401 1.357 . S
C404 C405 1.312 . S
C405 H376 0.930 . S
C405 C400 1.261 . S
C405 C404 1.312 . S
C406 O378 1.214 . S
C406 O386 1.234 . S
C407 H379 0.929 . S
C407 C410 1.391 . S
C407 C412 1.391 . S
C408 H380 0.929 . S
C408 C409 1.390 . S
C408 N411 1.391 . S
C409 H381 0.930 . S
C409 C408 1.390 . S
C409 C410 1.392 . S
C410 H382 0.929 . S
C410 C407 1.391 . S
C410 C409 1.392 . S
N411 Co355 2.257 . S
N411 C408 1.391 . S
N411 C412 1.388 . S
C412 H383 0.930 . S
C412 C407 1.391 . S
C412 N411 1.388 . S
Co413 O415 2.143 . S
Co413 O421 2.074 . S
Co413 O424 2.093 . S
Co413 O437 2.097 . S
Co413 N454 2.151 . S
Co413 N462 2.214 . S
Co414 O415 2.160 . S
Co414 O420 2.058 . S
Co414 O430 2.057 . S
Co414 O445 2.037 . S
Co414 N449 2.145 . S
Co414 N470 2.257 . S
O415 Co413 2.143 . S
O415 Co414 2.160 . S
C416 O417 1.278 . S
C416 O424 1.224 . S
O417 C416 1.278 . S
C418 O419 1.245 . S
C418 O430 1.232 . S
O419 C418 1.245 . S
O420 Co414 2.058 . S
O420 C446 1.269 . S
O421 Co413 2.074 . S
O421 C446 1.257 . S
H422 C447 0.930 . S
H423 C453 0.930 . S
O424 Co413 2.093 . S
O424 C416 1.224 . S
H425 C457 0.929 . S
H426 C459 0.930 . S
H427 C460 0.930 . S
H428 C458 0.929 . S
H429 C461 0.928 . S
O430 Co414 2.057 . S
O430 C418 1.232 . S
H431 C450 0.929 . S
H432 C451 0.929 . S
H433 C463 0.931 . S
H434 C455 0.929 . S
H435 C464 0.930 . S
H436 C456 0.931 . S
O437 Co413 2.097 . S
O437 C465 1.214 . S
H438 C466 0.929 . S
H439 C467 0.929 . S
H440 C468 0.930 . S
H441 C469 0.929 . S
H442 C471 0.930 . S
H443 C448 0.930 . S
H444 C452 0.930 . S
O445 Co414 2.037 . S
O445 C465 1.234 . S
C446 O420 1.269 . S
C446 O421 1.257 . S
C447 H422 0.930 . S
C447 C450 1.388 . S
C447 C452 1.418 . S
C448 H443 0.930 . S
C448 C451 1.404 . S
C448 C452 1.353 . S
N449 Co414 2.145 . S
N449 C450 1.397 . S
N449 C451 1.334 . S
C450 H431 0.929 . S
C450 C447 1.388 . S
C450 N449 1.397 . S
C451 H432 0.929 . S
C451 C448 1.404 . S
C451 N449 1.334 . S
C452 H444 0.930 . S
C452 C447 1.418 . S
C452 C448 1.353 . S
C453 H423 0.930 . S
C453 N454 1.330 . S
C453 C455 1.446 . S
N454 Co413 2.151 . S
N454 C453 1.330 . S
N454 C458 1.418 . S
C455 H434 0.929 . S
C455 C453 1.446 . S
C455 C456 1.332 . S
C456 H436 0.931 . S
C456 C455 1.332 . S
C456 C457 1.267 . S
C457 H425 0.929 . S
C457 C456 1.267 . S
C457 C458 1.251 . S
C458 H428 0.929 . S
C458 N454 1.418 . S
C458 C457 1.251 . S
C459 H426 0.930 . S
C459 C461 1.406 . S
C459 C464 1.261 . S
C460 H427 0.930 . S
C460 N462 1.325 . S
C460 C463 1.357 . S
C461 H429 0.928 . S
C461 C459 1.406 . S
C461 N462 1.261 . S
N462 Co413 2.214 . S
N462 C460 1.325 . S
N462 C461 1.261 . S
C463 H433 0.931 . S
C463 C460 1.357 . S
C463 C464 1.312 . S
C464 H435 0.930 . S
C464 C459 1.261 . S
C464 C463 1.312 . S
C465 O437 1.214 . S
C465 O445 1.234 . S
C466 H438 0.929 . S
C466 C469 1.391 . S
C466 C471 1.391 . S
C467 H439 0.929 . S
C467 C468 1.390 . S
C467 N470 1.391 . S
C468 H440 0.930 . S
C468 C467 1.390 . S
C468 C469 1.392 . S
C469 H441 0.929 . S
C469 C466 1.391 . S
C469 C468 1.392 . S
N470 Co414 2.257 . S
N470 C467 1.391 . S
N470 C471 1.388 . S
C471 H442 0.930 . S
C471 C466 1.391 . S
C471 N470 1.388 . S
Co472 O474 2.143 1_556 S
Co472 O480 2.074 1_556 S
Co472 O483 2.093 . S
Co472 O496 2.098 . S
Co472 N513 2.151 . S
Co472 N521 2.214 . S
Co473 O474 2.160 . S
Co473 O479 2.058 . S
Co473 O489 2.057 . S
Co473 O504 2.037 . S
Co473 N508 2.145 . S
Co473 N529 2.257 . S
O474 Co472 2.143 1_554 S
O474 Co473 2.160 . S
C475 O476 1.278 1_556 S
C475 O483 1.224 . S
O476 C475 1.278 1_554 S
C477 O478 1.245 . S
C477 O489 1.232 . S
O478 C477 1.245 . S
O479 Co473 2.058 . S
O479 C505 1.269 . S
O480 Co472 2.074 1_554 S
O480 C505 1.257 . S
H481 C506 0.930 . S
H482 C512 0.930 . S
O483 Co472 2.093 . S
O483 C475 1.224 . S
H484 C516 0.929 . S
H485 C518 0.930 . S
H486 C519 0.930 . S
H487 C517 0.929 . S
H488 C520 0.928 . S
O489 Co473 2.057 . S
O489 C477 1.232 . S
H490 C509 0.929 . S
H491 C510 0.929 . S
H492 C522 0.931 . S
H493 C514 0.929 . S
H494 C523 0.930 . S
H495 C515 0.931 . S
O496 Co472 2.098 . S
O496 C524 1.200 1_556 S
H497 C525 0.929 . S
H498 C526 0.929 . S
H499 C527 0.930 . S
H500 C528 0.929 . S
H501 C530 0.930 . S
H502 C507 0.930 . S
H503 C511 0.930 . S
O504 Co473 2.037 . S
O504 C524 1.234 . S
C505 O479 1.269 . S
C505 O480 1.257 . S
C506 H481 0.930 . S
C506 C509 1.388 . S
C506 C511 1.418 . S
C507 H502 0.930 . S
C507 C510 1.404 . S
C507 C511 1.353 . S
N508 Co473 2.145 . S
N508 C509 1.397 . S
N508 C510 1.334 . S
C509 H490 0.929 . S
C509 C506 1.388 . S
C509 N508 1.397 . S
C510 H491 0.929 . S
C510 C507 1.404 . S
C510 N508 1.334 . S
C511 H503 0.930 . S
C511 C506 1.418 . S
C511 C507 1.353 . S
C512 H482 0.930 . S
C512 N513 1.330 . S
C512 C514 1.446 . S
N513 Co472 2.151 . S
N513 C512 1.330 . S
N513 C517 1.418 . S
C514 H493 0.929 . S
C514 C512 1.446 . S
C514 C515 1.332 . S
C515 H495 0.931 . S
C515 C514 1.332 . S
C515 C516 1.267 . S
C516 H484 0.929 . S
C516 C515 1.267 . S
C516 C517 1.251 . S
C517 H487 0.929 . S
C517 N513 1.418 . S
C517 C516 1.251 . S
C518 H485 0.930 . S
C518 C520 1.406 . S
C518 C523 1.261 . S
C519 H486 0.930 . S
C519 N521 1.325 . S
C519 C522 1.357 . S
C520 H488 0.928 . S
C520 C518 1.406 . S
C520 N521 1.261 . S
N521 Co472 2.214 . S
N521 C519 1.325 . S
N521 C520 1.261 . S
C522 H492 0.931 . S
C522 C519 1.357 . S
C522 C523 1.312 . S
C523 H494 0.930 . S
C523 C518 1.261 . S
C523 C522 1.312 . S
C524 O496 1.200 1_554 S
C524 O504 1.234 . S
C525 H497 0.929 . S
C525 C528 1.391 . S
C525 C530 1.391 . S
C526 H498 0.929 . S
C526 C527 1.390 . S
C526 N529 1.391 . S
C527 H499 0.930 . S
C527 C526 1.390 . S
C527 C528 1.392 . S
C528 H500 0.929 . S
C528 C525 1.391 . S
C528 C527 1.392 . S
N529 Co473 2.257 . S
N529 C526 1.391 . S
N529 C530 1.388 . S
C530 H501 0.930 . S
C530 C525 1.391 . S
C530 N529 1.388 . S
Co531 O533 2.143 . S
Co531 O539 2.074 . S
Co531 O542 2.093 . S
Co531 O555 2.097 . S
Co531 N572 2.151 . S
Co531 N580 2.214 . S
Co532 O533 2.160 . S
Co532 O538 2.058 . S
Co532 O548 2.057 . S
Co532 O563 2.037 . S
Co532 N567 2.145 . S
Co532 N588 2.257 . S
O533 Co531 2.143 . S
O533 Co532 2.160 . S
C534 O535 1.278 . S
C534 O542 1.224 . S
O535 C534 1.278 . S
C536 O537 1.245 . S
C536 O548 1.232 . S
O537 C536 1.245 . S
O538 Co532 2.058 . S
O538 C564 1.269 . S
O539 Co531 2.074 . S
O539 C564 1.257 . S
H540 C565 0.930 . S
H541 C571 0.930 . S
O542 Co531 2.093 . S
O542 C534 1.224 . S
H543 C575 0.929 . S
H544 C577 0.930 . S
H545 C578 0.930 . S
H546 C576 0.929 . S
H547 C579 0.928 . S
O548 Co532 2.057 . S
O548 C536 1.232 . S
H549 C568 0.929 . S
H550 C569 0.929 . S
H551 C581 0.931 . S
H552 C573 0.929 . S
H553 C582 0.930 . S
H554 C574 0.931 . S
O555 Co531 2.097 . S
O555 C583 1.214 . S
H556 C584 0.929 . S
H557 C585 0.929 . S
H558 C586 0.930 . S
H559 C587 0.929 . S
H560 C589 0.930 . S
H561 C566 0.930 . S
H562 C570 0.930 . S
O563 Co532 2.037 . S
O563 C583 1.234 . S
C564 O538 1.269 . S
C564 O539 1.257 . S
C565 H540 0.930 . S
C565 C568 1.388 . S
C565 C570 1.418 . S
C566 H561 0.930 . S
C566 C569 1.404 . S
C566 C570 1.353 . S
N567 Co532 2.145 . S
N567 C568 1.397 . S
N567 C569 1.334 . S
C568 H549 0.929 . S
C568 C565 1.388 . S
C568 N567 1.397 . S
C569 H550 0.929 . S
C569 C566 1.404 . S
C569 N567 1.334 . S
C570 H562 0.930 . S
C570 C565 1.418 . S
C570 C566 1.353 . S
C571 H541 0.930 . S
C571 N572 1.330 . S
C571 C573 1.446 . S
N572 Co531 2.151 . S
N572 C571 1.330 . S
N572 C576 1.418 . S
C573 H552 0.929 . S
C573 C571 1.446 . S
C573 C574 1.332 . S
C574 H554 0.931 . S
C574 C573 1.332 . S
C574 C575 1.267 . S
C575 H543 0.929 . S
C575 C574 1.267 . S
C575 C576 1.251 . S
C576 H546 0.929 . S
C576 N572 1.418 . S
C576 C575 1.251 . S
C577 H544 0.930 . S
C577 C579 1.406 . S
C577 C582 1.261 . S
C578 H545 0.930 . S
C578 N580 1.325 . S
C578 C581 1.357 . S
C579 H547 0.928 . S
C579 C577 1.406 . S
C579 N580 1.261 . S
N580 Co531 2.214 . S
N580 C578 1.325 . S
N580 C579 1.261 . S
C581 H551 0.931 . S
C581 C578 1.357 . S
C581 C582 1.312 . S
C582 H553 0.930 . S
C582 C577 1.261 . S
C582 C581 1.312 . S
C583 O555 1.214 . S
C583 O563 1.234 . S
C584 H556 0.929 . S
C584 C587 1.391 . S
C584 C589 1.391 . S
C585 H557 0.929 . S
C585 C586 1.390 . S
C585 N588 1.391 . S
C586 H558 0.930 . S
C586 C585 1.390 . S
C586 C587 1.392 . S
C587 H559 0.929 . S
C587 C584 1.391 . S
C587 C586 1.392 . S
N588 Co532 2.257 . S
N588 C585 1.391 . S
N588 C589 1.388 . S
C589 H560 0.930 . S
C589 C584 1.391 . S
C589 N588 1.388 . S
Co590 O592 2.143 . S
Co590 O598 2.074 . S
Co590 O601 2.093 . S
Co590 O614 2.097 . S
Co590 N631 2.151 . S
Co590 N639 2.214 . S
Co591 O592 2.160 . S
Co591 O597 2.058 . S
Co591 O607 2.057 . S
Co591 O622 2.037 . S
Co591 N626 2.145 . S
Co591 N647 2.257 . S
O592 Co590 2.143 . S
O592 Co591 2.160 . S
C593 O594 1.278 . S
C593 O601 1.224 . S
O594 C593 1.278 . S
C595 O596 1.245 . S
C595 O607 1.232 . S
O596 C595 1.245 . S
O597 Co591 2.058 . S
O597 C623 1.269 . S
O598 Co590 2.074 . S
O598 C623 1.257 . S
H599 C624 0.930 . S
H600 C630 0.930 . S
O601 Co590 2.093 . S
O601 C593 1.224 . S
H602 C634 0.929 . S
H603 C636 0.930 . S
H604 C637 0.930 . S
H605 C635 0.929 . S
H606 C638 0.928 . S
O607 Co591 2.057 . S
O607 C595 1.232 . S
H608 C627 0.929 . S
H609 C628 0.929 . S
H610 C640 0.931 . S
H611 C632 0.929 . S
H612 C641 0.930 . S
H613 C633 0.931 . S
O614 Co590 2.097 . S
O614 C642 1.214 . S
H615 C643 0.929 . S
H616 C644 0.929 . S
H617 C645 0.930 . S
H618 C646 0.929 . S
H619 C648 0.930 . S
H620 C625 0.930 . S
H621 C629 0.930 . S
O622 Co591 2.037 . S
O622 C642 1.234 . S
C623 O597 1.269 . S
C623 O598 1.257 . S
C624 H599 0.930 . S
C624 C627 1.388 . S
C624 C629 1.418 . S
C625 H620 0.930 . S
C625 C628 1.404 . S
C625 C629 1.353 . S
N626 Co591 2.145 . S
N626 C627 1.397 . S
N626 C628 1.334 . S
C627 H608 0.929 . S
C627 C624 1.388 . S
C627 N626 1.397 . S
C628 H609 0.929 . S
C628 C625 1.404 . S
C628 N626 1.334 . S
C629 H621 0.930 . S
C629 C624 1.418 . S
C629 C625 1.353 . S
C630 H600 0.930 . S
C630 N631 1.330 . S
C630 C632 1.446 . S
N631 Co590 2.151 . S
N631 C630 1.330 . S
N631 C635 1.418 . S
C632 H611 0.929 . S
C632 C630 1.446 . S
C632 C633 1.332 . S
C633 H613 0.931 . S
C633 C632 1.332 . S
C633 C634 1.267 . S
C634 H602 0.929 . S
C634 C633 1.267 . S
C634 C635 1.251 . S
C635 H605 0.929 . S
C635 N631 1.418 . S
C635 C634 1.251 . S
C636 H603 0.930 . S
C636 C638 1.406 . S
C636 C641 1.261 . S
C637 H604 0.930 . S
C637 N639 1.325 . S
C637 C640 1.357 . S
C638 H606 0.928 . S
C638 C636 1.406 . S
C638 N639 1.261 . S
N639 Co590 2.214 . S
N639 C637 1.325 . S
N639 C638 1.261 . S
C640 H610 0.931 . S
C640 C637 1.357 . S
C640 C641 1.312 . S
C641 H612 0.930 . S
C641 C636 1.261 . S
C641 C640 1.312 . S
C642 O614 1.214 . S
C642 O622 1.234 . S
C643 H615 0.929 . S
C643 C646 1.391 . S
C643 C648 1.391 . S
C644 H616 0.929 . S
C644 C645 1.390 . S
C644 N647 1.391 . S
C645 H617 0.930 . S
C645 C644 1.390 . S
C645 C646 1.392 . S
C646 H618 0.929 . S
C646 C643 1.391 . S
C646 C645 1.392 . S
N647 Co591 2.257 . S
N647 C644 1.391 . S
N647 C648 1.388 . S
C648 H619 0.930 . S
C648 C643 1.391 . S
C648 N647 1.388 . S
Co649 O651 2.143 1_556 S
Co649 O657 2.074 1_556 S
Co649 O660 2.093 . S
Co649 O673 2.098 . S
Co649 N690 2.151 . S
Co649 N698 2.214 . S
Co650 O651 2.160 . S
Co650 O656 2.058 . S
Co650 O666 2.057 . S
Co650 O681 2.037 . S
Co650 N685 2.145 . S
Co650 N706 2.257 . S
O651 Co649 2.143 1_554 S
O651 Co650 2.160 . S
C652 O653 1.278 1_556 S
C652 O660 1.224 . S
O653 C652 1.278 1_554 S
C654 O655 1.245 . S
C654 O666 1.232 . S
O655 C654 1.245 . S
O656 Co650 2.058 . S
O656 C682 1.269 . S
O657 Co649 2.074 1_554 S
O657 C682 1.257 . S
H658 C683 0.930 . S
H659 C689 0.930 . S
O660 Co649 2.093 . S
O660 C652 1.224 . S
H661 C693 0.929 . S
H662 C695 0.930 . S
H663 C696 0.930 . S
H664 C694 0.929 . S
H665 C697 0.928 . S
O666 Co650 2.057 . S
O666 C654 1.232 . S
H667 C686 0.929 . S
H668 C687 0.929 . S
H669 C699 0.931 . S
H670 C691 0.929 . S
H671 C700 0.930 . S
H672 C692 0.931 . S
O673 Co649 2.098 . S
O673 C701 1.200 1_556 S
H674 C702 0.929 . S
H675 C703 0.929 . S
H676 C704 0.930 . S
H677 C705 0.929 . S
H678 C707 0.930 . S
H679 C684 0.930 . S
H680 C688 0.930 . S
O681 Co650 2.037 . S
O681 C701 1.234 . S
C682 O656 1.269 . S
C682 O657 1.257 . S
C683 H658 0.930 . S
C683 C686 1.388 . S
C683 C688 1.418 . S
C684 H679 0.930 . S
C684 C687 1.404 . S
C684 C688 1.353 . S
N685 Co650 2.145 . S
N685 C686 1.397 . S
N685 C687 1.334 . S
C686 H667 0.929 . S
C686 C683 1.388 . S
C686 N685 1.397 . S
C687 H668 0.929 . S
C687 C684 1.404 . S
C687 N685 1.334 . S
C688 H680 0.930 . S
C688 C683 1.418 . S
C688 C684 1.353 . S
C689 H659 0.930 . S
C689 N690 1.330 . S
C689 C691 1.446 . S
N690 Co649 2.151 . S
N690 C689 1.330 . S
N690 C694 1.418 . S
C691 H670 0.929 . S
C691 C689 1.446 . S
C691 C692 1.332 . S
C692 H672 0.931 . S
C692 C691 1.332 . S
C692 C693 1.267 . S
C693 H661 0.929 . S
C693 C692 1.267 . S
C693 C694 1.251 . S
C694 H664 0.929 . S
C694 N690 1.418 . S
C694 C693 1.251 . S
C695 H662 0.930 . S
C695 C697 1.406 . S
C695 C700 1.261 . S
C696 H663 0.930 . S
C696 N698 1.325 . S
C696 C699 1.357 . S
C697 H665 0.928 . S
C697 C695 1.406 . S
C697 N698 1.261 . S
N698 Co649 2.214 . S
N698 C696 1.325 . S
N698 C697 1.261 . S
C699 H669 0.931 . S
C699 C696 1.357 . S
C699 C700 1.312 . S
C700 H671 0.930 . S
C700 C695 1.261 . S
C700 C699 1.312 . S
C701 O673 1.200 1_554 S
C701 O681 1.234 . S
C702 H674 0.929 . S
C702 C705 1.391 . S
C702 C707 1.391 . S
C703 H675 0.929 . S
C703 C704 1.390 . S
C703 N706 1.391 . S
C704 H676 0.930 . S
C704 C703 1.390 . S
C704 C705 1.392 . S
C705 H677 0.929 . S
C705 C702 1.391 . S
C705 C704 1.392 . S
N706 Co650 2.257 . S
N706 C703 1.391 . S
N706 C707 1.388 . S
C707 H678 0.930 . S
C707 C702 1.391 . S
C707 N706 1.388 . S
H708 C716 0.929 . S
H709 C718 0.930 . S
H710 C720 0.930 . S
H711 C723 0.929 . S
H712 C726 0.930 . S
H713 C728 0.960 . S
H714 C728 0.960 . S
H715 C728 0.960 . S
C716 H708 0.929 . S
C716 C717 1.377 . S
C716 C718 1.384 . S
C717 C716 1.377 . S
C717 C723 1.390 . S
C718 H709 0.930 . S
C718 C716 1.384 . S
C718 C719 1.372 . S
C719 C718 1.372 . S
C719 C720 1.400 . S
C719 C724 1.490 . S
C720 H710 0.930 . S
C720 C719 1.400 . S
C720 C723 1.386 . S
H721 C737 0.930 . S
H722 C738 0.931 . S
C723 H711 0.929 . S
C723 C717 1.390 . S
C723 C720 1.386 . S
C724 C719 1.490 . S
C724 C726 1.395 . S
C724 C727 1.403 . S
H725 C731 0.930 . S
C726 H712 0.930 . S
C726 C724 1.395 . S
C726 C729 1.403 . S
C727 C724 1.403 . S
C727 C728 1.524 . S
C727 C731 1.400 . S
C728 H713 0.960 . S
C728 H714 0.960 . S
C728 H715 0.960 . S
C728 C727 1.524 . S
C729 C726 1.403 . S
C729 C730 1.392 . S
C729 C733 1.495 . S
C730 C729 1.392 . S
C730 C731 1.385 . S
C730 C732 1.478 . S
C731 H725 0.930 . S
C731 C727 1.400 . S
C731 C730 1.385 . S
C732 C730 1.478 . S
C732 C734 1.381 . S
C732 C738 1.383 . S
C733 C729 1.495 . S
C733 H739 0.959 . S
C733 H740 0.961 . S
C733 H741 0.960 . S
C734 C732 1.381 . S
C734 C735 1.394 . S
C734 H742 0.930 . S
C735 C734 1.394 . S
C735 C736 1.383 . S
C735 H743 0.929 . S
C736 C735 1.383 . S
C736 C737 1.377 . S
C737 H721 0.930 . S
C737 C736 1.377 . S
C737 C738 1.379 . S
C738 H722 0.931 . S
C738 C732 1.383 . S
C738 C737 1.379 . S
H739 C733 0.959 . S
H740 C733 0.961 . S
H741 C733 0.960 . S
H742 C734 0.930 . S
H743 C735 0.929 . S
H744 C752 0.929 . S
H745 C754 0.930 . S
H746 C756 0.930 . S
H747 C759 0.929 . S
H748 C762 0.930 . S
H749 C764 0.960 . S
H750 C764 0.960 . S
H751 C764 0.960 . S
C752 H744 0.929 . S
C752 C753 1.377 . S
C752 C754 1.384 . S
C753 C752 1.377 . S
C753 C759 1.390 . S
C754 H745 0.930 . S
C754 C752 1.384 . S
C754 C755 1.372 . S
C755 C754 1.372 . S
C755 C756 1.400 . S
C755 C760 1.490 . S
C756 H746 0.930 . S
C756 C755 1.400 . S
C756 C759 1.386 . S
H757 C773 0.930 . S
H758 C774 0.931 . S
C759 H747 0.929 . S
C759 C753 1.390 . S
C759 C756 1.386 . S
C760 C755 1.490 . S
C760 C762 1.395 . S
C760 C763 1.403 . S
H761 C767 0.930 . S
C762 H748 0.930 . S
C762 C760 1.395 . S
C762 C765 1.403 1_655 S
C763 C760 1.403 . S
C763 C764 1.524 . S
C763 C767 1.400 1_655 S
C764 H749 0.960 . S
C764 H750 0.960 . S
C764 H751 0.960 . S
C764 C763 1.524 . S
C765 C762 1.403 1_455 S
C765 C766 1.392 . S
C765 C769 1.495 . S
C766 C765 1.392 . S
C766 C767 1.385 . S
C766 C768 1.478 . S
C767 H761 0.930 . S
C767 C763 1.400 1_455 S
C767 C766 1.385 . S
C768 C766 1.478 . S
C768 C770 1.381 . S
C768 C774 1.383 . S
C769 C765 1.495 . S
C769 H775 0.959 . S
C769 H776 0.961 . S
C769 H777 0.960 . S
C770 C768 1.381 . S
C770 C771 1.394 . S
C770 H778 0.930 . S
C771 C770 1.394 . S
C771 C772 1.383 . S
C771 H779 0.929 . S
C772 C771 1.383 . S
C772 C773 1.377 . S
C773 H757 0.930 . S
C773 C772 1.377 . S
C773 C774 1.379 . S
C774 H758 0.931 . S
C774 C768 1.383 . S
C774 C773 1.379 . S
H775 C769 0.959 . S
H776 C769 0.961 . S
H777 C769 0.960 . S
H778 C770 0.930 . S
H779 C771 0.929 . S
H780 C788 0.929 . S
H781 C790 0.930 1_554 S
H782 C792 0.930 . S
H783 C795 0.929 . S
H784 C798 0.930 . S
H785 C800 0.960 1_545 S
H786 C800 0.960 . S
H787 C800 0.960 . S
C788 H780 0.929 . S
C788 C789 1.377 . S
C788 C790 1.384 . S
C789 C788 1.377 . S
C789 C795 1.390 . S
C790 H781 0.930 1_556 S
C790 C788 1.384 . S
C790 C791 1.372 . S
C791 C790 1.372 . S
C791 C792 1.400 . S
C791 C796 1.490 . S
C792 H782 0.930 . S
C792 C791 1.400 . S
C792 C795 1.386 . S
H793 C809 0.930 . S
H794 C810 0.931 1_556 S
C795 H783 0.929 . S
C795 C789 1.390 . S
C795 C792 1.386 . S
C796 C791 1.490 . S
C796 C798 1.395 1_556 S
C796 C799 1.403 . S
H797 C803 0.930 . S
C798 H784 0.930 . S
C798 C796 1.395 1_554 S
C798 C801 1.403 1_565 S
C799 C796 1.403 . S
C799 C800 1.524 . S
C799 C803 1.400 1_565 S
C800 H785 0.960 1_565 S
C800 H786 0.960 . S
C800 H787 0.960 . S
C800 C799 1.524 . S
C801 C798 1.403 1_545 S
C801 C802 1.392 . S
C801 C805 1.495 . S
C802 C801 1.392 . S
C802 C803 1.385 1_554 S
C802 C804 1.478 . S
C803 H797 0.930 . S
C803 C799 1.400 1_545 S
C803 C802 1.385 1_556 S
C804 C802 1.478 . S
C804 C806 1.381 . S
C804 C810 1.383 . S
C805 C801 1.495 . S
C805 H811 0.959 1_545 S
C805 H812 0.961 . S
C805 H813 0.960 . S
C806 C804 1.381 . S
C806 C807 1.394 . S
C806 H814 0.930 . S
C807 C806 1.394 . S
C807 C808 1.383 . S
C807 H815 0.929 . S
C808 C807 1.383 . S
C808 C809 1.377 . S
C809 H793 0.930 . S
C809 C808 1.377 . S
C809 C810 1.379 . S
C810 H794 0.931 1_554 S
C810 C804 1.383 . S
C810 C809 1.379 . S
H811 C805 0.959 1_565 S
H812 C805 0.961 . S
H813 C805 0.960 . S
H814 C806 0.930 . S
H815 C807 0.929 . S
H816 C824 0.929 . S
H817 C826 0.930 . S
H818 C828 0.930 . S
H819 C831 0.929 . S
H820 C834 0.930 . S
H821 C836 0.960 . S
H822 C836 0.960 . S
H823 C836 0.960 . S
C824 H816 0.929 . S
C824 C825 1.377 . S
C824 C826 1.384 . S
C825 C824 1.377 . S
C825 C831 1.390 . S
C826 H817 0.930 . S
C826 C824 1.384 . S
C826 C827 1.372 . S
C827 C826 1.372 . S
C827 C828 1.400 . S
C827 C832 1.490 . S
C828 H818 0.930 . S
C828 C827 1.400 . S
C828 C831 1.386 . S
H829 C845 0.930 . S
H830 C846 0.931 . S
C831 H819 0.929 . S
C831 C825 1.390 . S
C831 C828 1.386 . S
C832 C827 1.490 . S
C832 C834 1.395 . S
C832 C835 1.403 . S
H833 C839 0.930 . S
C834 H820 0.930 . S
C834 C832 1.395 . S
C834 C837 1.403 . S
C835 C832 1.403 . S
C835 C836 1.524 . S
C835 C839 1.400 . S
C836 H821 0.960 . S
C836 H822 0.960 . S
C836 H823 0.960 . S
C836 C835 1.524 . S
C837 C834 1.403 . S
C837 C838 1.392 . S
C837 C841 1.495 . S
C838 C837 1.392 . S
C838 C839 1.385 . S
C838 C840 1.478 . S
C839 H833 0.930 . S
C839 C835 1.400 . S
C839 C838 1.385 . S
C840 C838 1.478 . S
C840 C842 1.381 . S
C840 C846 1.383 . S
C841 C837 1.495 . S
C841 H847 0.959 . S
C841 H848 0.961 . S
C841 H849 0.960 . S
C842 C840 1.381 . S
C842 C843 1.394 . S
C842 H850 0.930 . S
C843 C842 1.394 . S
C843 C844 1.383 . S
C843 H851 0.929 . S
C844 C843 1.383 . S
C844 C845 1.377 . S
C845 H829 0.930 . S
C845 C844 1.377 . S
C845 C846 1.379 . S
C846 H830 0.931 . S
C846 C840 1.383 . S
C846 C845 1.379 . S
H847 C841 0.959 . S
H848 C841 0.961 . S
H849 C841 0.960 . S
H850 C842 0.930 . S
H851 C843 0.929 . S
H852 C860 0.929 . S
H853 C862 0.930 . S
H854 C864 0.930 . S
H855 C867 0.929 . S
H856 C870 0.930 . S
H857 C872 0.994 . S
H858 C872 0.960 . S
H859 C872 0.960 . S
C860 H852 0.929 . S
C860 C861 1.377 . S
C860 C862 1.384 . S
C861 C860 1.377 . S
C861 C867 1.390 . S
C862 H853 0.930 . S
C862 C860 1.384 . S
C862 C863 1.372 . S
C863 C862 1.372 . S
C863 C864 1.400 . S
C863 C868 1.490 . S
C864 H854 0.930 . S
C864 C863 1.400 . S
C864 C867 1.386 . S
H865 C881 0.930 . S
H866 C882 0.931 . S
C867 H855 0.929 . S
C867 C861 1.390 . S
C867 C864 1.386 . S
C868 C863 1.490 . S
C868 C870 1.395 . S
C868 C871 1.403 . S
H869 C875 0.930 . S
C870 H856 0.930 . S
C870 C868 1.395 . S
C870 C873 1.403 1_655 S
C871 C868 1.403 . S
C871 C872 1.524 . S
C871 C875 1.400 1_655 S
C872 H857 0.994 . S
C872 H858 0.960 . S
C872 H859 0.960 . S
C872 C871 1.524 . S
C873 C870 1.403 1_455 S
C873 C874 1.392 . S
C873 C877 1.495 . S
C874 C873 1.392 . S
C874 C875 1.385 . S
C874 C876 1.478 . S
C875 H869 0.930 . S
C875 C871 1.400 1_455 S
C875 C874 1.385 . S
C876 C874 1.478 . S
C876 C878 1.381 . S
C876 C882 1.383 . S
C877 C873 1.495 . S
C877 H883 0.951 1_455 S
C877 H884 0.961 . S
C877 H885 0.960 . S
C878 C876 1.381 . S
C878 C879 1.394 . S
C878 H886 0.930 . S
C879 C878 1.394 . S
C879 C880 1.383 . S
C879 H887 0.929 . S
C880 C879 1.383 . S
C880 C881 1.377 . S
C881 H865 0.930 . S
C881 C880 1.377 . S
C881 C882 1.379 . S
C882 H866 0.931 . S
C882 C876 1.383 . S
C882 C881 1.379 . S
H883 C877 0.951 1_655 S
H884 C877 0.961 . S
H885 C877 0.960 . S
H886 C878 0.930 . S
H887 C879 0.929 . S
H888 C896 0.929 . S
H889 C898 0.930 1_556 S
H890 C900 0.930 . S
H891 C903 0.929 . S
H892 C906 0.930 . S
H893 C908 0.960 . S
H894 C908 0.960 . S
H895 C908 0.960 1_554 S
C896 H888 0.929 . S
C896 C897 1.377 . S
C896 C898 1.384 . S
C897 C896 1.377 . S
C897 C903 1.390 . S
C898 H889 0.930 1_554 S
C898 C896 1.384 . S
C898 C899 1.372 . S
C899 C898 1.372 . S
C899 C900 1.400 . S
C899 C904 1.490 . S
C900 H890 0.930 . S
C900 C899 1.400 . S
C900 C903 1.386 . S
H901 C917 0.930 . S
H902 C918 0.931 1_554 S
C903 H891 0.929 . S
C903 C897 1.390 . S
C903 C900 1.386 . S
C904 C899 1.490 . S
C904 C906 1.395 . S
C904 C907 1.403 1_554 S
H905 C911 0.930 . S
C906 H892 0.930 . S
C906 C904 1.395 . S
C906 C909 1.403 1_564 S
C907 C904 1.403 1_556 S
C907 C908 1.524 . S
C907 C911 1.400 1_565 S
C908 H893 0.960 . S
C908 H894 0.960 . S
C908 H895 0.960 1_556 S
C908 C907 1.524 . S
C909 C906 1.403 1_546 S
C909 C910 1.392 . S
C909 C913 1.496 . S
C910 C909 1.392 . S
C910 C911 1.385 . S
C910 C912 1.478 . S
C911 H905 0.930 . S
C911 C907 1.400 1_545 S
C911 C910 1.385 . S
C912 C910 1.478 . S
C912 C914 1.381 . S
C912 C918 1.383 . S
C913 C909 1.496 . S
C913 H919 0.953 1_556 S
C913 H920 0.951 1_556 S
C913 H921 0.976 . S
C914 C912 1.381 . S
C914 C915 1.394 . S
C914 H922 0.930 . S
C915 C914 1.394 . S
C915 C916 1.383 . S
C915 H923 0.929 . S
C916 C915 1.383 . S
C916 C917 1.377 . S
C917 H901 0.930 . S
C917 C916 1.377 . S
C917 C918 1.379 . S
C918 H902 0.931 1_556 S
C918 C912 1.383 . S
C918 C917 1.379 . S
H919 C913 0.953 1_554 S
H920 C913 0.951 1_554 S
H921 C913 0.976 . S
H922 C914 0.930 . S
H923 C915 0.929 . S
H924 C932 0.929 . S
H925 C934 0.930 . S
H926 C936 0.930 . S
H927 C939 0.929 . S
H928 C942 0.930 . S
H929 C944 0.960 . S
H930 C944 0.960 . S
H931 C944 0.960 . S
C932 H924 0.929 . S
C932 C933 1.377 . S
C932 C934 1.384 . S
C933 C932 1.377 . S
C933 C939 1.390 . S
C934 H925 0.930 . S
C934 C932 1.384 . S
C934 C935 1.372 . S
C935 C934 1.372 . S
C935 C936 1.400 . S
C935 C940 1.490 . S
C936 H926 0.930 . S
C936 C935 1.400 . S
C936 C939 1.386 . S
H937 C953 0.930 . S
H938 C954 0.931 . S
C939 H927 0.929 . S
C939 C933 1.390 . S
C939 C936 1.386 . S
C940 C935 1.490 . S
C940 C942 1.395 . S
C940 C943 1.403 1_556 S
H941 C947 0.930 . S
C942 H928 0.930 . S
C942 C940 1.395 . S
C942 C945 1.403 . S
C943 C940 1.403 1_554 S
C943 C944 1.524 . S
C943 C947 1.400 . S
C944 H929 0.960 . S
C944 H930 0.960 . S
C944 H931 0.960 . S
C944 C943 1.524 . S
C945 C942 1.403 . S
C945 C946 1.392 1_556 S
C945 C949 1.495 . S
C946 C945 1.392 1_554 S
C946 C947 1.385 . S
C946 C948 1.478 . S
C947 H941 0.930 . S
C947 C943 1.400 . S
C947 C946 1.385 . S
C948 C946 1.478 . S
C948 C950 1.381 . S
C948 C954 1.383 . S
C949 C945 1.495 . S
C949 H955 0.959 . S
C949 H956 0.961 . S
C949 H957 0.960 . S
C950 C948 1.381 . S
C950 C951 1.394 . S
C950 H958 0.930 . S
C951 C950 1.394 . S
C951 C952 1.383 . S
C951 H959 0.929 . S
C952 C951 1.383 . S
C952 C953 1.377 . S
C953 H937 0.930 . S
C953 C952 1.377 . S
C953 C954 1.379 . S
C954 H938 0.931 . S
C954 C948 1.383 . S
C954 C953 1.379 . S
H955 C949 0.959 . S
H956 C949 0.961 . S
H957 C949 0.960 . S
H958 C950 0.930 . S
H959 C951 0.929 . S
H960 C968 0.929 . S
H961 C970 0.930 . S
H962 C972 0.930 . S
H963 C975 0.929 . S
H964 C978 0.930 . S
H965 C980 0.960 . S
H966 C980 0.960 . S
H967 C980 0.960 . S
C968 H960 0.929 . S
C968 C969 1.377 . S
C968 C970 1.384 . S
C969 C968 1.377 . S
C969 C975 1.390 . S
C970 H961 0.930 . S
C970 C968 1.384 . S
C970 C971 1.372 . S
C971 C970 1.372 . S
C971 C972 1.400 . S
C971 C976 1.490 . S
C972 H962 0.930 . S
C972 C971 1.400 . S
C972 C975 1.386 . S
H973 C989 0.930 . S
H974 C990 0.931 . S
C975 H963 0.929 . S
C975 C969 1.390 . S
C975 C972 1.386 . S
C976 C971 1.490 . S
C976 C978 1.395 . S
C976 C979 1.403 . S
H977 C983 0.930 . S
C978 H964 0.930 . S
C978 C976 1.395 . S
C978 C981 1.403 . S
C979 C976 1.403 . S
C979 C980 1.524 . S
C979 C983 1.400 . S
C980 H965 0.960 . S
C980 H966 0.960 . S
C980 H967 0.960 . S
C980 C979 1.524 . S
C981 C978 1.403 . S
C981 C982 1.392 . S
C981 C985 1.495 . S
C982 C981 1.392 . S
C982 C983 1.385 . S
C982 C984 1.478 . S
C983 H977 0.930 . S
C983 C979 1.400 . S
C983 C982 1.385 . S
C984 C982 1.478 . S
C984 C986 1.381 . S
C984 C990 1.383 . S
C985 C981 1.495 . S
C985 H991 0.959 . S
C985 H992 0.961 . S
C985 H993 0.960 . S
C986 C984 1.381 . S
C986 C987 1.394 . S
C986 H994 0.930 . S
C987 C986 1.394 . S
C987 C988 1.383 . S
C987 H995 0.929 . S
C988 C987 1.383 . S
C988 C989 1.377 . S
C989 H973 0.930 . S
C989 C988 1.377 . S
C989 C990 1.379 . S
C990 H974 0.931 . S
C990 C984 1.383 . S
C990 C989 1.379 . S
H991 C985 0.959 . S
H992 C985 0.961 . S
H993 C985 0.960 . S
H994 C986 0.930 . S
H995 C987 0.929 . S
H996 C1004 0.929 . S
H997 C1006 0.930 . S
H998 C1008 0.930 . S
H999 C1011 0.929 . S
H1000 C1014 0.930 . S
H1001 C1016 0.960 . S
H1002 C1016 0.960 . S
H1003 C1016 0.960 . S
C1004 H996 0.929 . S
C1004 C1005 1.377 . S
C1004 C1006 1.384 . S
C1005 C1004 1.377 . S
C1005 C1011 1.390 . S
C1006 H997 0.930 . S
C1006 C1004 1.384 . S
C1006 C1007 1.372 . S
C1007 C1006 1.372 . S
C1007 C1008 1.400 . S
C1007 C1012 1.490 . S
C1008 H998 0.930 . S
C1008 C1007 1.400 . S
C1008 C1011 1.386 . S
H1009 C1025 0.930 . S
H1010 C1026 0.931 . S
C1011 H999 0.929 . S
C1011 C1005 1.390 . S
C1011 C1008 1.386 . S
C1012 C1007 1.490 . S
C1012 C1014 1.395 . S
C1012 C1015 1.403 . S
H1013 C1019 0.930 . S
C1014 H1000 0.930 . S
C1014 C1012 1.395 . S
C1014 C1017 1.403 . S
C1015 C1012 1.403 . S
C1015 C1016 1.524 . S
C1015 C1019 1.400 . S
C1016 H1001 0.960 . S
C1016 H1002 0.960 . S
C1016 H1003 0.960 . S
C1016 C1015 1.524 . S
C1017 C1014 1.403 . S
C1017 C1018 1.392 . S
C1017 C1021 1.495 . S
C1018 C1017 1.392 . S
C1018 C1019 1.385 . S
C1018 C1020 1.478 . S
C1019 H1013 0.930 . S
C1019 C1015 1.400 . S
C1019 C1018 1.385 . S
C1020 C1018 1.478 . S
C1020 C1022 1.381 . S
C1020 C1026 1.383 . S
C1021 C1017 1.495 . S
C1021 H1027 0.959 . S
C1021 H1028 0.961 . S
C1021 H1029 0.960 . S
C1022 C1020 1.381 . S
C1022 C1023 1.394 . S
C1022 H1030 0.930 . S
C1023 C1022 1.394 . S
C1023 C1024 1.383 . S
C1023 H1031 0.929 . S
C1024 C1023 1.383 . S
C1024 C1025 1.377 . S
C1025 H1009 0.930 . S
C1025 C1024 1.377 . S
C1025 C1026 1.379 . S
C1026 H1010 0.931 . S
C1026 C1020 1.383 . S
C1026 C1025 1.379 . S
H1027 C1021 0.959 . S
H1028 C1021 0.961 . S
H1029 C1021 0.960 . S
H1030 C1022 0.930 . S
H1031 C1023 0.929 . S
H1032 C1040 0.929 . S
H1033 C1042 0.930 . S
H1034 C1044 0.930 . S
H1035 C1047 0.929 . S
H1036 C1050 0.930 . S
H1037 C1052 0.960 . S
H1038 C1052 0.960 . S
H1039 C1052 0.960 1_554 S
C1040 H1032 0.929 . S
C1040 C1041 1.377 . S
C1040 C1042 1.384 . S
C1041 C1040 1.377 . S
C1041 C1047 1.390 . S
C1042 H1033 0.930 . S
C1042 C1040 1.384 . S
C1042 C1043 1.372 . S
C1043 C1042 1.372 . S
C1043 C1044 1.400 . S
C1043 C1048 1.490 . S
C1044 H1034 0.930 . S
C1044 C1043 1.400 . S
C1044 C1047 1.386 . S
H1045 C1061 0.930 . S
H1046 C1062 0.931 . S
C1047 H1035 0.929 . S
C1047 C1041 1.390 . S
C1047 C1044 1.386 . S
C1048 C1043 1.490 . S
C1048 C1050 1.395 . S
C1048 C1051 1.403 1_554 S
H1049 C1055 0.930 . S
C1050 H1036 0.930 . S
C1050 C1048 1.395 . S
C1050 C1053 1.403 . S
C1051 C1048 1.403 1_556 S
C1051 C1052 1.524 . S
C1051 C1055 1.400 . S
C1052 H1037 0.960 . S
C1052 H1038 0.960 . S
C1052 H1039 0.960 1_556 S
C1052 C1051 1.524 . S
C1053 C1050 1.403 . S
C1053 C1054 1.392 1_554 S
C1053 C1057 1.495 . S
C1054 C1053 1.392 1_556 S
C1054 C1055 1.385 . S
C1054 C1056 1.478 . S
C1055 H1049 0.930 . S
C1055 C1051 1.400 . S
C1055 C1054 1.385 . S
C1056 C1054 1.478 . S
C1056 C1058 1.381 . S
C1056 C1062 1.383 . S
C1057 C1053 1.495 . S
C1057 H1063 0.959 . S
C1057 H1064 0.961 . S
C1057 H1065 0.959 . S
C1058 C1056 1.381 . S
C1058 C1059 1.394 . S
C1058 H1066 0.930 . S
C1059 C1058 1.394 . S
C1059 C1060 1.383 . S
C1059 H1067 0.929 . S
C1060 C1059 1.383 . S
C1060 C1061 1.377 . S
C1061 H1045 0.930 . S
C1061 C1060 1.377 . S
C1061 C1062 1.379 . S
C1062 H1046 0.931 . S
C1062 C1056 1.383 . S
C1062 C1061 1.379 . S
H1063 C1057 0.959 . S
H1064 C1057 0.961 . S
H1065 C1057 0.959 . S
H1066 C1058 0.930 . S
H1067 C1059 0.929 . S
H1068 C1076 0.929 . S
H1069 C1078 0.930 . S
H1070 C1080 0.930 . S
H1071 C1083 0.929 . S
H1072 C1086 0.930 . S
H1073 C1088 0.960 . S
H1074 C1088 0.960 . S
H1075 C1088 0.960 . S
C1076 H1068 0.929 . S
C1076 C1077 1.377 . S
C1076 C1078 1.384 . S
C1077 C1076 1.377 . S
C1077 C1083 1.390 . S
C1078 H1069 0.930 . S
C1078 C1076 1.384 . S
C1078 C1079 1.372 . S
C1079 C1078 1.372 . S
C1079 C1080 1.400 . S
C1079 C1084 1.490 . S
C1080 H1070 0.930 . S
C1080 C1079 1.400 . S
C1080 C1083 1.386 . S
H1081 C1097 0.930 . S
H1082 C1098 0.931 . S
C1083 H1071 0.929 . S
C1083 C1077 1.390 . S
C1083 C1080 1.386 . S
C1084 C1079 1.490 . S
C1084 C1086 1.395 . S
C1084 C1087 1.403 . S
H1085 C1091 0.930 . S
C1086 H1072 0.930 . S
C1086 C1084 1.395 . S
C1086 C1089 1.403 . S
C1087 C1084 1.403 . S
C1087 C1088 1.524 . S
C1087 C1091 1.400 . S
C1088 H1073 0.960 . S
C1088 H1074 0.960 . S
C1088 H1075 0.960 . S
C1088 C1087 1.524 . S
C1089 C1086 1.403 . S
C1089 C1090 1.392 . S
C1089 C1093 1.495 . S
C1090 C1089 1.392 . S
C1090 C1091 1.385 . S
C1090 C1092 1.478 . S
C1091 H1085 0.930 . S
C1091 C1087 1.400 . S
C1091 C1090 1.385 . S
C1092 C1090 1.478 . S
C1092 C1094 1.381 . S
C1092 C1098 1.383 . S
C1093 C1089 1.495 . S
C1093 H1099 0.959 . S
C1093 H1100 0.961 . S
C1093 H1101 0.960 . S
C1094 C1092 1.381 . S
C1094 C1095 1.394 . S
C1094 H1102 0.930 . S
C1095 C1094 1.394 . S
C1095 C1096 1.383 . S
C1095 H1103 0.929 . S
C1096 C1095 1.383 . S
C1096 C1097 1.377 . S
C1097 H1081 0.930 . S
C1097 C1096 1.377 . S
C1097 C1098 1.379 . S
C1098 H1082 0.931 . S
C1098 C1092 1.383 . S
C1098 C1097 1.379 . S
H1099 C1093 0.959 . S
H1100 C1093 0.961 . S
H1101 C1093 0.960 . S
H1102 C1094 0.930 . S
H1103 C1095 0.929 . S
H1104 C1112 0.929 . S
H1105 C1114 0.930 . S
H1106 C1116 0.930 . S
H1107 C1119 0.929 . S
H1108 C1122 0.930 . S
H1109 C1124 0.960 . S
H1110 C1124 0.960 . S
H1111 C1124 0.960 . S
C1112 H1104 0.929 . S
C1112 C1113 1.377 . S
C1112 C1114 1.384 . S
C1113 C1112 1.377 . S
C1113 C1119 1.390 . S
C1114 H1105 0.930 . S
C1114 C1112 1.384 . S
C1114 C1115 1.372 . S
C1115 C1114 1.372 . S
C1115 C1116 1.400 . S
C1115 C1120 1.490 . S
C1116 H1106 0.930 . S
C1116 C1115 1.400 . S
C1116 C1119 1.386 . S
H1117 C1133 0.930 . S
H1118 C1134 0.931 . S
C1119 H1107 0.929 . S
C1119 C1113 1.390 . S
C1119 C1116 1.386 . S
C1120 C1115 1.490 . S
C1120 C1122 1.395 . S
C1120 C1123 1.403 . S
H1121 C1127 0.930 . S
C1122 H1108 0.930 . S
C1122 C1120 1.395 . S
C1122 C1125 1.403 . S
C1123 C1120 1.403 . S
C1123 C1124 1.524 . S
C1123 C1127 1.400 . S
C1124 H1109 0.960 . S
C1124 H1110 0.960 . S
C1124 H1111 0.960 . S
C1124 C1123 1.524 . S
C1125 C1122 1.403 . S
C1125 C1126 1.392 . S
C1125 C1129 1.495 . S
C1126 C1125 1.392 . S
C1126 C1127 1.385 . S
C1126 C1128 1.478 . S
C1127 H1121 0.930 . S
C1127 C1123 1.400 . S
C1127 C1126 1.385 . S
C1128 C1126 1.478 . S
C1128 C1130 1.381 . S
C1128 C1134 1.383 . S
C1129 C1125 1.495 . S
C1129 H1135 0.959 . S
C1129 H1136 0.961 . S
C1129 H1137 0.960 . S
C1130 C1128 1.381 . S
C1130 C1131 1.394 . S
C1130 H1138 0.930 . S
C1131 C1130 1.394 . S
C1131 C1132 1.383 . S
C1131 H1139 0.929 . S
C1132 C1131 1.383 . S
C1132 C1133 1.377 . S
C1133 H1117 0.930 . S
C1133 C1132 1.377 . S
C1133 C1134 1.379 . S
C1134 H1118 0.931 . S
C1134 C1128 1.383 . S
C1134 C1133 1.379 . S
H1135 C1129 0.959 . S
H1136 C1129 0.961 . S
H1137 C1129 0.960 . S
H1138 C1130 0.930 . S
H1139 C1131 0.929 . S
H1140 C1148 0.929 . S
H1141 C1150 0.930 . S
H1142 C1152 0.930 . S
H1143 C1155 0.929 . S
H1144 C1158 0.930 . S
H1145 C1160 0.960 . S
H1146 C1160 0.960 . S
H1147 C1160 0.960 . S
C1148 H1140 0.929 . S
C1148 C1149 1.377 . S
C1148 C1150 1.384 . S
C1149 C1148 1.377 . S
C1149 C1155 1.390 . S
C1150 H1141 0.930 . S
C1150 C1148 1.384 . S
C1150 C1151 1.372 . S
C1151 C1150 1.372 . S
C1151 C1152 1.400 . S
C1151 C1156 1.490 . S
C1152 H1142 0.930 . S
C1152 C1151 1.400 . S
C1152 C1155 1.386 . S
H1153 C1169 0.930 . S
H1154 C1170 0.931 . S
C1155 H1143 0.929 . S
C1155 C1149 1.390 . S
C1155 C1152 1.386 . S
C1156 C1151 1.490 . S
C1156 C1158 1.395 . S
C1156 C1159 1.403 . S
H1157 C1163 0.930 . S
C1158 H1144 0.930 . S
C1158 C1156 1.395 . S
C1158 C1161 1.403 . S
C1159 C1156 1.403 . S
C1159 C1160 1.524 . S
C1159 C1163 1.400 . S
C1160 H1145 0.960 . S
C1160 H1146 0.960 . S
C1160 H1147 0.960 . S
C1160 C1159 1.524 . S
C1161 C1158 1.403 . S
C1161 C1162 1.392 . S
C1161 C1165 1.495 . S
C1162 C1161 1.392 . S
C1162 C1163 1.385 . S
C1162 C1164 1.478 . S
C1163 H1157 0.930 . S
C1163 C1159 1.400 . S
C1163 C1162 1.385 . S
C1164 C1162 1.478 . S
C1164 C1166 1.381 . S
C1164 C1170 1.383 . S
C1165 C1161 1.495 . S
C1165 H1171 0.959 . S
C1165 H1172 0.961 . S
C1165 H1173 0.960 . S
C1166 C1164 1.381 . S
C1166 C1167 1.394 . S
C1166 H1174 0.930 . S
C1167 C1166 1.394 . S
C1167 C1168 1.383 . S
C1167 H1175 0.929 . S
C1168 C1167 1.383 . S
C1168 C1169 1.377 . S
C1169 H1153 0.930 . S
C1169 C1168 1.377 . S
C1169 C1170 1.379 . S
C1170 H1154 0.931 . S
C1170 C1164 1.383 . S
C1170 C1169 1.379 . S
H1171 C1165 0.959 . S
H1172 C1165 0.961 . S
H1173 C1165 0.960 . S
H1174 C1166 0.930 . S
H1175 C1167 0.929 . S
H1176 C1184 0.929 . S
H1177 C1186 0.930 . S
H1178 C1188 0.930 . S
H1179 C1191 0.929 . S
H1180 C1194 0.930 . S
H1181 C1196 0.960 . S
H1182 C1196 0.960 . S
H1183 C1196 0.960 . S
C1184 H1176 0.929 . S
C1184 C1185 1.377 . S
C1184 C1186 1.384 . S
C1185 C1184 1.377 . S
C1185 C1191 1.390 . S
C1186 H1177 0.930 . S
C1186 C1184 1.384 . S
C1186 C1187 1.372 . S
C1187 C1186 1.372 . S
C1187 C1188 1.400 . S
C1187 C1192 1.490 . S
C1188 H1178 0.930 . S
C1188 C1187 1.400 . S
C1188 C1191 1.386 . S
H1189 C1205 0.930 . S
H1190 C1206 0.931 . S
C1191 H1179 0.929 . S
C1191 C1185 1.390 . S
C1191 C1188 1.386 . S
C1192 C1187 1.490 . S
C1192 C1194 1.395 . S
C1192 C1195 1.403 . S
H1193 C1199 0.930 . S
C1194 H1180 0.930 . S
C1194 C1192 1.395 . S
C1194 C1197 1.403 . S
C1195 C1192 1.403 . S
C1195 C1196 1.524 . S
C1195 C1199 1.400 . S
C1196 H1181 0.960 . S
C1196 H1182 0.960 . S
C1196 H1183 0.960 . S
C1196 C1195 1.524 . S
C1197 C1194 1.403 . S
C1197 C1198 1.392 . S
C1197 C1201 1.495 . S
C1198 C1197 1.392 . S
C1198 C1199 1.385 . S
C1198 C1200 1.478 . S
C1199 H1193 0.930 . S
C1199 C1195 1.400 . S
C1199 C1198 1.385 . S
C1200 C1198 1.478 . S
C1200 C1202 1.381 . S
C1200 C1206 1.383 . S
C1201 C1197 1.495 . S
C1201 H1207 0.959 . S
C1201 H1208 0.961 . S
C1201 H1209 0.960 . S
C1202 C1200 1.381 . S
C1202 C1203 1.394 . S
C1202 H1210 0.930 . S
C1203 C1202 1.394 . S
C1203 C1204 1.383 . S
C1203 H1211 0.929 . S
C1204 C1203 1.383 . S
C1204 C1205 1.377 . S
C1205 H1189 0.930 . S
C1205 C1204 1.377 . S
C1205 C1206 1.379 . S
C1206 H1190 0.931 . S
C1206 C1200 1.383 . S
C1206 C1205 1.379 . S
H1207 C1201 0.959 . S
H1208 C1201 0.961 . S
H1209 C1201 0.960 . S
H1210 C1202 0.930 . S
H1211 C1203 0.929 . S
H1212 C1220 0.929 . S
H1213 C1222 0.930 . S
H1214 C1224 0.930 . S
H1215 C1227 0.929 . S
H1216 C1230 0.930 . S
H1217 C1232 0.960 . S
H1218 C1232 0.960 . S
H1219 C1232 0.960 . S
C1220 H1212 0.929 . S
C1220 C1221 1.377 . S
C1220 C1222 1.384 . S
C1221 C1220 1.377 . S
C1221 C1227 1.390 . S
C1222 H1213 0.930 . S
C1222 C1220 1.384 . S
C1222 C1223 1.372 . S
C1223 C1222 1.372 . S
C1223 C1224 1.400 . S
C1223 C1228 1.490 . S
C1224 H1214 0.930 . S
C1224 C1223 1.400 . S
C1224 C1227 1.386 . S
H1225 C1241 0.930 . S
H1226 C1242 0.931 . S
C1227 H1215 0.929 . S
C1227 C1221 1.390 . S
C1227 C1224 1.386 . S
C1228 C1223 1.490 . S
C1228 C1230 1.395 . S
C1228 C1231 1.403 . S
H1229 C1235 0.930 . S
C1230 H1216 0.930 . S
C1230 C1228 1.395 . S
C1230 C1233 1.403 . S
C1231 C1228 1.403 . S
C1231 C1232 1.524 . S
C1231 C1235 1.400 . S
C1232 H1217 0.960 . S
C1232 H1218 0.960 . S
C1232 H1219 0.960 . S
C1232 C1231 1.524 . S
C1233 C1230 1.403 . S
C1233 C1234 1.392 . S
C1233 C1237 1.495 . S
C1234 C1233 1.392 . S
C1234 C1235 1.385 . S
C1234 C1236 1.478 . S
C1235 H1229 0.930 . S
C1235 C1231 1.400 . S
C1235 C1234 1.385 . S
C1236 C1234 1.478 . S
C1236 C1238 1.381 . S
C1236 C1242 1.383 . S
C1237 C1233 1.495 . S
C1237 H1243 0.959 . S
C1237 H1244 0.961 . S
C1237 H1245 0.960 . S
C1238 C1236 1.381 . S
C1238 C1239 1.394 . S
C1238 H1246 0.930 . S
C1239 C1238 1.394 . S
C1239 C1240 1.383 . S
C1239 H1247 0.929 . S
C1240 C1239 1.383 . S
C1240 C1241 1.377 . S
C1241 H1225 0.930 . S
C1241 C1240 1.377 . S
C1241 C1242 1.379 . S
C1242 H1226 0.931 . S
C1242 C1236 1.383 . S
C1242 C1241 1.379 . S
H1243 C1237 0.959 . S
H1244 C1237 0.961 . S
H1245 C1237 0.960 . S
H1246 C1238 0.930 . S
H1247 C1239 0.929 . S
H1248 C1256 0.929 . S
H1249 C1258 0.930 . S
H1250 C1260 0.930 . S
H1251 C1263 0.929 . S
H1252 C1266 0.930 . S
H1253 C1268 0.960 . S
H1254 C1268 0.960 . S
H1255 C1268 0.960 . S
C1256 H1248 0.929 . S
C1256 C1257 1.377 . S
C1256 C1258 1.384 . S
C1257 C1256 1.377 . S
C1257 C1263 1.390 . S
C1258 H1249 0.930 . S
C1258 C1256 1.384 . S
C1258 C1259 1.372 . S
C1259 C1258 1.372 . S
C1259 C1260 1.400 . S
C1259 C1264 1.490 . S
C1260 H1250 0.930 . S
C1260 C1259 1.400 . S
C1260 C1263 1.386 . S
H1261 C1277 0.930 . S
H1262 C1278 0.931 . S
C1263 H1251 0.929 . S
C1263 C1257 1.390 . S
C1263 C1260 1.386 . S
C1264 C1259 1.490 . S
C1264 C1266 1.395 . S
C1264 C1267 1.403 . S
H1265 C1271 0.930 . S
C1266 H1252 0.930 . S
C1266 C1264 1.395 . S
C1266 C1269 1.403 . S
C1267 C1264 1.403 . S
C1267 C1268 1.524 . S
C1267 C1271 1.400 . S
C1268 H1253 0.960 . S
C1268 H1254 0.960 . S
C1268 H1255 0.960 . S
C1268 C1267 1.524 . S
C1269 C1266 1.403 . S
C1269 C1270 1.392 . S
C1269 C1273 1.495 . S
C1270 C1269 1.392 . S
C1270 C1271 1.385 . S
C1270 C1272 1.478 . S
C1271 H1265 0.930 . S
C1271 C1267 1.400 . S
C1271 C1270 1.385 . S
C1272 C1270 1.478 . S
C1272 C1274 1.381 . S
C1272 C1278 1.383 . S
C1273 C1269 1.495 . S
C1273 H1279 0.959 . S
C1273 H1280 0.961 . S
C1273 H1281 0.960 . S
C1274 C1272 1.381 . S
C1274 C1275 1.394 . S
C1274 H1282 0.930 . S
C1275 C1274 1.394 . S
C1275 C1276 1.383 . S
C1275 H1283 0.929 . S
C1276 C1275 1.383 . S
C1276 C1277 1.377 . S
C1277 H1261 0.930 . S
C1277 C1276 1.377 . S
C1277 C1278 1.379 . S
C1278 H1262 0.931 . S
C1278 C1272 1.383 . S
C1278 C1277 1.379 . S
H1279 C1273 0.959 . S
H1280 C1273 0.961 . S
H1281 C1273 0.960 . S
H1282 C1274 0.930 . S
H1283 C1275 0.929 . S
H1284 C1292 0.929 . S
H1285 C1294 0.930 . S
H1286 C1296 0.930 . S
H1287 C1299 0.929 . S
H1288 C1302 0.930 . S
H1289 C1304 0.960 . S
H1290 C1304 0.960 . S
H1291 C1304 0.960 . S
C1292 H1284 0.929 . S
C1292 C1293 1.377 . S
C1292 C1294 1.384 . S
C1293 C1292 1.377 . S
C1293 C1299 1.390 . S
C1294 H1285 0.930 . S
C1294 C1292 1.384 . S
C1294 C1295 1.372 . S
C1295 C1294 1.372 . S
C1295 C1296 1.400 . S
C1295 C1300 1.490 . S
C1296 H1286 0.930 . S
C1296 C1295 1.400 . S
C1296 C1299 1.386 . S
H1297 C1313 0.930 . S
H1298 C1314 0.931 . S
C1299 H1287 0.929 . S
C1299 C1293 1.390 . S
C1299 C1296 1.386 . S
C1300 C1295 1.490 . S
C1300 C1302 1.395 . S
C1300 C1303 1.403 . S
H1301 C1307 0.930 . S
C1302 H1288 0.930 . S
C1302 C1300 1.395 . S
C1302 C1305 1.403 . S
C1303 C1300 1.403 . S
C1303 C1304 1.524 . S
C1303 C1307 1.400 . S
C1304 H1289 0.960 . S
C1304 H1290 0.960 . S
C1304 H1291 0.960 . S
C1304 C1303 1.524 . S
C1305 C1302 1.403 . S
C1305 C1306 1.392 . S
C1305 C1309 1.495 . S
C1306 C1305 1.392 . S
C1306 C1307 1.385 . S
C1306 C1308 1.478 . S
C1307 H1301 0.930 . S
C1307 C1303 1.400 . S
C1307 C1306 1.385 . S
C1308 C1306 1.478 . S
C1308 C1310 1.381 . S
C1308 C1314 1.383 . S
C1309 C1305 1.495 . S
C1309 H1315 0.959 . S
C1309 H1316 0.961 . S
C1309 H1317 0.960 . S
C1310 C1308 1.381 . S
C1310 C1311 1.394 . S
C1310 H1318 0.930 . S
C1311 C1310 1.394 . S
C1311 C1312 1.383 . S
C1311 H1319 0.929 . S
C1312 C1311 1.383 . S
C1312 C1313 1.377 . S
C1313 H1297 0.930 . S
C1313 C1312 1.377 . S
C1313 C1314 1.379 . S
C1314 H1298 0.931 . S
C1314 C1308 1.383 . S
C1314 C1313 1.379 . S
H1315 C1309 0.959 . S
H1316 C1309 0.961 . S
H1317 C1309 0.960 . S
H1318 C1310 0.930 . S
H1319 C1311 0.929 . S
H1320 C1328 0.929 . S
H1321 C1330 0.930 . S
H1322 C1332 0.930 . S
H1323 C1335 0.929 . S
H1324 C1338 0.930 . S
H1325 C1340 0.960 . S
H1326 C1340 0.960 . S
H1327 C1340 0.960 . S
C1328 H1320 0.929 . S
C1328 C1329 1.377 . S
C1328 C1330 1.384 . S
C1329 C1328 1.377 . S
C1329 C1335 1.390 . S
C1330 H1321 0.930 . S
C1330 C1328 1.384 . S
C1330 C1331 1.372 . S
C1331 C1330 1.372 . S
C1331 C1332 1.400 . S
C1331 C1336 1.490 . S
C1332 H1322 0.930 . S
C1332 C1331 1.400 . S
C1332 C1335 1.386 . S
H1333 C1349 0.930 . S
H1334 C1350 0.931 . S
C1335 H1323 0.929 . S
C1335 C1329 1.390 . S
C1335 C1332 1.386 . S
C1336 C1331 1.490 . S
C1336 C1338 1.395 . S
C1336 C1339 1.403 . S
H1337 C1343 0.930 . S
C1338 H1324 0.930 . S
C1338 C1336 1.395 . S
C1338 C1341 1.403 . S
C1339 C1336 1.403 . S
C1339 C1340 1.524 . S
C1339 C1343 1.400 . S
C1340 H1325 0.960 . S
C1340 H1326 0.960 . S
C1340 H1327 0.960 . S
C1340 C1339 1.524 . S
C1341 C1338 1.403 . S
C1341 C1342 1.392 . S
C1341 C1345 1.495 . S
C1342 C1341 1.392 . S
C1342 C1343 1.385 . S
C1342 C1344 1.478 . S
C1343 H1337 0.930 . S
C1343 C1339 1.400 . S
C1343 C1342 1.385 . S
C1344 C1342 1.478 . S
C1344 C1346 1.381 . S
C1344 C1350 1.383 . S
C1345 C1341 1.495 . S
C1345 H1351 0.959 . S
C1345 H1352 0.961 . S
C1345 H1353 0.960 . S
C1346 C1344 1.381 . S
C1346 C1347 1.394 . S
C1346 H1354 0.930 . S
C1347 C1346 1.394 . S
C1347 C1348 1.383 . S
C1347 H1355 0.929 . S
C1348 C1347 1.383 . S
C1348 C1349 1.377 . S
C1349 H1333 0.930 . S
C1349 C1348 1.377 . S
C1349 C1350 1.379 . S
C1350 H1334 0.931 . S
C1350 C1344 1.383 . S
C1350 C1349 1.379 . S
H1351 C1345 0.959 . S
H1352 C1345 0.961 . S
H1353 C1345 0.960 . S
H1354 C1346 0.930 . S
H1355 C1347 0.929 . S
H1356 C1364 0.929 . S
H1357 C1366 0.930 . S
H1358 C1368 0.930 . S
H1359 C1371 0.929 . S
H1360 C1374 0.930 . S
H1361 C1376 0.960 . S
H1362 C1376 0.960 . S
H1363 C1376 0.960 . S
C1364 H1356 0.929 . S
C1364 C1365 1.377 . S
C1364 C1366 1.384 . S
C1365 C1364 1.377 . S
C1365 C1371 1.390 . S
C1366 H1357 0.930 . S
C1366 C1364 1.384 . S
C1366 C1367 1.372 . S
C1367 C1366 1.372 . S
C1367 C1368 1.400 . S
C1367 C1372 1.490 . S
C1368 H1358 0.930 . S
C1368 C1367 1.400 . S
C1368 C1371 1.386 . S
H1369 C1385 0.930 . S
H1370 C1386 0.931 . S
C1371 H1359 0.929 . S
C1371 C1365 1.390 . S
C1371 C1368 1.386 . S
C1372 C1367 1.490 . S
C1372 C1374 1.395 . S
C1372 C1375 1.403 . S
H1373 C1379 0.930 . S
C1374 H1360 0.930 . S
C1374 C1372 1.395 . S
C1374 C1377 1.403 . S
C1375 C1372 1.403 . S
C1375 C1376 1.524 . S
C1375 C1379 1.400 . S
C1376 H1361 0.960 . S
C1376 H1362 0.960 . S
C1376 H1363 0.960 . S
C1376 C1375 1.524 . S
C1377 C1374 1.403 . S
C1377 C1378 1.392 . S
C1377 C1381 1.495 . S
C1378 C1377 1.392 . S
C1378 C1379 1.385 . S
C1378 C1380 1.478 . S
C1379 H1373 0.930 . S
C1379 C1375 1.400 . S
C1379 C1378 1.385 . S
C1380 C1378 1.478 . S
C1380 C1382 1.381 . S
C1380 C1386 1.383 . S
C1381 C1377 1.495 . S
C1381 H1387 0.959 . S
C1381 H1388 0.961 . S
C1381 H1389 0.960 . S
C1382 C1380 1.381 . S
C1382 C1383 1.394 . S
C1382 H1390 0.930 . S
C1383 C1382 1.394 . S
C1383 C1384 1.383 . S
C1383 H1391 0.929 . S
C1384 C1383 1.383 . S
C1384 C1385 1.377 . S
C1385 H1369 0.930 . S
C1385 C1384 1.377 . S
C1385 C1386 1.379 . S
C1386 H1370 0.931 . S
C1386 C1380 1.383 . S
C1386 C1385 1.379 . S
H1387 C1381 0.959 . S
H1388 C1381 0.961 . S
H1389 C1381 0.960 . S
H1390 C1382 0.930 . S
H1391 C1383 0.929 . S
H1392 C1400 0.929 . S
H1393 C1402 0.930 . S
H1394 C1404 0.930 . S
H1395 C1407 0.929 . S
H1396 C1410 0.930 . S
H1397 C1412 0.960 . S
H1398 C1412 0.960 . S
H1399 C1412 0.960 . S
C1400 H1392 0.929 . S
C1400 C1401 1.377 . S
C1400 C1402 1.384 . S
C1401 C1400 1.377 . S
C1401 C1407 1.390 . S
C1402 H1393 0.930 . S
C1402 C1400 1.384 . S
C1402 C1403 1.372 . S
C1403 C1402 1.372 . S
C1403 C1404 1.400 . S
C1403 C1408 1.490 . S
C1404 H1394 0.930 . S
C1404 C1403 1.400 . S
C1404 C1407 1.386 . S
H1405 C1421 0.930 . S
H1406 C1422 0.931 . S
C1407 H1395 0.929 . S
C1407 C1401 1.390 . S
C1407 C1404 1.386 . S
C1408 C1403 1.490 . S
C1408 C1410 1.395 . S
C1408 C1411 1.403 . S
H1409 C1415 0.930 . S
C1410 H1396 0.930 . S
C1410 C1408 1.395 . S
C1410 C1413 1.403 . S
C1411 C1408 1.403 . S
C1411 C1412 1.524 . S
C1411 C1415 1.400 . S
C1412 H1397 0.960 . S
C1412 H1398 0.960 . S
C1412 H1399 0.960 . S
C1412 C1411 1.524 . S
C1413 C1410 1.403 . S
C1413 C1414 1.392 . S
C1413 C1417 1.495 . S
C1414 C1413 1.392 . S
C1414 C1415 1.385 . S
C1414 C1416 1.478 . S
C1415 H1409 0.930 . S
C1415 C1411 1.400 . S
C1415 C1414 1.385 . S
C1416 C1414 1.478 . S
C1416 C1418 1.381 . S
C1416 C1422 1.383 . S
C1417 C1413 1.495 . S
C1417 H1423 0.959 . S
C1417 H1424 0.961 . S
C1417 H1425 0.960 . S
C1418 C1416 1.381 . S
C1418 C1419 1.394 . S
C1418 H1426 0.930 . S
C1419 C1418 1.394 . S
C1419 C1420 1.383 . S
C1419 H1427 0.929 . S
C1420 C1419 1.383 . S
C1420 C1421 1.377 . S
C1421 H1405 0.930 . S
C1421 C1420 1.377 . S
C1421 C1422 1.379 . S
C1422 H1406 0.931 . S
C1422 C1416 1.383 . S
C1422 C1421 1.379 . S
H1423 C1417 0.959 . S
H1424 C1417 0.961 . S
H1425 C1417 0.960 . S
H1426 C1418 0.930 . S
H1427 C1419 0.929 . S
H1428 C1436 0.929 . S
H1429 C1438 0.930 . S
H1430 C1440 0.930 . S
H1431 C1443 0.929 . S
H1432 C1446 0.930 . S
H1433 C1448 0.960 . S
H1434 C1448 0.960 . S
H1435 C1448 0.960 . S
C1436 H1428 0.929 . S
C1436 C1437 1.377 1_554 S
C1436 C1438 1.384 . S
C1437 C1436 1.377 1_556 S
C1437 C1443 1.390 . S
C1438 H1429 0.930 . S
C1438 C1436 1.384 . S
C1438 C1439 1.372 1_554 S
C1439 C1438 1.372 1_556 S
C1439 C1440 1.400 . S
C1439 C1444 1.493 . S
C1440 H1430 0.930 . S
C1440 C1439 1.400 . S
C1440 C1443 1.386 . S
H1441 C1457 0.930 . S
H1442 C1458 0.931 . S
C1443 H1431 0.929 . S
C1443 C1437 1.390 . S
C1443 C1440 1.386 . S
C1444 C1439 1.493 . S
C1444 C1446 1.375 1_556 S
C1444 C1447 1.419 . S
H1445 C1451 0.930 . S
C1446 H1432 0.930 . S
C1446 C1444 1.375 1_554 S
C1446 C1449 1.403 . S
C1447 C1444 1.419 . S
C1447 C1448 1.524 . S
C1447 C1451 1.400 . S
C1448 H1433 0.960 . S
C1448 H1434 0.960 . S
C1448 H1435 0.960 . S
C1448 C1447 1.524 . S
C1449 C1446 1.403 . S
C1449 C1450 1.392 . S
C1449 C1453 1.495 . S
C1450 C1449 1.392 . S
C1450 C1451 1.385 1_554 S
C1450 C1452 1.478 . S
C1451 H1445 0.930 . S
C1451 C1447 1.400 . S
C1451 C1450 1.385 1_556 S
C1452 C1450 1.478 . S
C1452 C1454 1.381 . S
C1452 C1458 1.383 1_554 S
C1453 C1449 1.495 . S
C1453 H1459 0.959 . S
C1453 H1460 0.961 . S
C1453 H1461 0.960 . S
C1454 C1452 1.381 . S
C1454 C1455 1.394 . S
C1454 H1462 0.930 . S
C1455 C1454 1.394 . S
C1455 C1456 1.383 . S
C1455 H1463 0.929 . S
C1456 C1455 1.383 . S
C1456 C1457 1.377 1_554 S
C1457 H1441 0.930 . S
C1457 C1456 1.377 1_556 S
C1457 C1458 1.379 . S
C1458 H1442 0.931 . S
C1458 C1452 1.383 1_556 S
C1458 C1457 1.379 . S
H1459 C1453 0.959 . S
H1460 C1453 0.961 . S
H1461 C1453 0.960 . S
H1462 C1454 0.930 . S
H1463 C1455 0.929 . S
H1464 C1472 0.929 . S
H1465 C1474 0.930 . S
H1466 C1476 0.930 . S
H1467 C1479 0.929 . S
H1468 C1482 0.930 . S
H1469 C1484 0.960 . S
H1470 C1484 0.960 . S
H1471 C1484 0.960 . S
C1472 H1464 0.929 . S
C1472 C1473 1.377 . S
C1472 C1474 1.384 . S
C1473 C1472 1.377 . S
C1473 C1479 1.390 . S
C1474 H1465 0.930 . S
C1474 C1472 1.384 . S
C1474 C1475 1.372 . S
C1475 C1474 1.372 . S
C1475 C1476 1.400 . S
C1475 C1480 1.490 . S
C1476 H1466 0.930 . S
C1476 C1475 1.400 . S
C1476 C1479 1.386 . S
H1477 C1493 0.930 . S
H1478 C1494 0.931 . S
C1479 H1467 0.929 . S
C1479 C1473 1.390 . S
C1479 C1476 1.386 . S
C1480 C1475 1.490 . S
C1480 C1482 1.395 . S
C1480 C1483 1.403 . S
H1481 C1487 0.930 . S
C1482 H1468 0.930 . S
C1482 C1480 1.395 . S
C1482 C1485 1.403 . S
C1483 C1480 1.403 . S
C1483 C1484 1.524 . S
C1483 C1487 1.400 . S
C1484 H1469 0.960 . S
C1484 H1470 0.960 . S
C1484 H1471 0.960 . S
C1484 C1483 1.524 . S
C1485 C1482 1.403 . S
C1485 C1486 1.392 . S
C1485 C1489 1.495 . S
C1486 C1485 1.392 . S
C1486 C1487 1.385 . S
C1486 C1488 1.478 . S
C1487 H1481 0.930 . S
C1487 C1483 1.400 . S
C1487 C1486 1.385 . S
C1488 C1486 1.478 . S
C1488 C1490 1.381 . S
C1488 C1494 1.383 . S
C1489 C1485 1.495 . S
C1489 H1495 0.959 . S
C1489 H1496 0.961 . S
C1489 H1497 0.960 . S
C1490 C1488 1.381 . S
C1490 C1491 1.394 . S
C1490 H1498 0.930 . S
C1491 C1490 1.394 . S
C1491 C1492 1.383 . S
C1491 H1499 0.929 . S
C1492 C1491 1.383 . S
C1492 C1493 1.377 . S
C1493 H1477 0.930 . S
C1493 C1492 1.377 . S
C1493 C1494 1.379 . S
C1494 H1478 0.931 . S
C1494 C1488 1.383 . S
C1494 C1493 1.379 . S
H1495 C1489 0.959 . S
H1496 C1489 0.961 . S
H1497 C1489 0.960 . S
H1498 C1490 0.930 . S
H1499 C1491 0.929 . S
H1500 C1508 0.929 . S
H1501 C1510 0.930 . S
H1502 C1512 0.930 . S
H1503 C1515 0.929 . S
H1504 C1518 0.930 . S
H1505 C1520 0.960 . S
H1506 C1520 0.960 . S
H1507 C1520 0.960 . S
C1508 H1500 0.929 . S
C1508 C1509 1.377 . S
C1508 C1510 1.384 . S
C1509 C1508 1.377 . S
C1509 C1515 1.390 . S
C1510 H1501 0.930 . S
C1510 C1508 1.384 . S
C1510 C1511 1.372 . S
C1511 C1510 1.372 . S
C1511 C1512 1.400 . S
C1511 C1516 1.490 . S
C1512 H1502 0.930 . S
C1512 C1511 1.400 . S
C1512 C1515 1.386 . S
H1513 C1529 0.930 . S
H1514 C1530 0.931 . S
C1515 H1503 0.929 . S
C1515 C1509 1.390 . S
C1515 C1512 1.386 . S
C1516 C1511 1.490 . S
C1516 C1518 1.395 . S
C1516 C1519 1.403 . S
H1517 C1523 0.930 . S
C1518 H1504 0.930 . S
C1518 C1516 1.395 . S
C1518 C1521 1.403 . S
C1519 C1516 1.403 . S
C1519 C1520 1.524 . S
C1519 C1523 1.400 . S
C1520 H1505 0.960 . S
C1520 H1506 0.960 . S
C1520 H1507 0.960 . S
C1520 C1519 1.524 . S
C1521 C1518 1.403 . S
C1521 C1522 1.392 . S
C1521 C1525 1.495 . S
C1522 C1521 1.392 . S
C1522 C1523 1.385 . S
C1522 C1524 1.478 . S
C1523 H1517 0.930 . S
C1523 C1519 1.400 . S
C1523 C1522 1.385 . S
C1524 C1522 1.478 . S
C1524 C1526 1.381 . S
C1524 C1530 1.383 . S
C1525 C1521 1.495 . S
C1525 H1531 0.959 . S
C1525 H1532 0.961 . S
C1525 H1533 0.960 . S
C1526 C1524 1.381 . S
C1526 C1527 1.394 . S
C1526 H1534 0.930 . S
C1527 C1526 1.394 . S
C1527 C1528 1.383 . S
C1527 H1535 0.929 . S
C1528 C1527 1.383 . S
C1528 C1529 1.377 . S
C1529 H1513 0.930 . S
C1529 C1528 1.377 . S
C1529 C1530 1.379 . S
C1530 H1514 0.931 . S
C1530 C1524 1.383 . S
C1530 C1529 1.379 . S
H1531 C1525 0.959 . S
H1532 C1525 0.961 . S
H1533 C1525 0.960 . S
H1534 C1526 0.930 . S
H1535 C1527 0.929 . S
H1536 C1544 0.929 . S
H1537 C1546 0.930 . S
H1538 C1548 0.930 . S
H1539 C1551 0.929 . S
H1540 C1554 0.930 . S
H1541 C1556 0.960 . S
H1542 C1556 0.960 . S
H1543 C1556 0.960 . S
C1544 H1536 0.929 . S
C1544 C1545 1.377 . S
C1544 C1546 1.384 . S
C1545 C1544 1.377 . S
C1545 C1551 1.390 . S
C1546 H1537 0.930 . S
C1546 C1544 1.384 . S
C1546 C1547 1.372 . S
C1547 C1546 1.372 . S
C1547 C1548 1.400 . S
C1547 C1552 1.490 . S
C1548 H1538 0.930 . S
C1548 C1547 1.400 . S
C1548 C1551 1.386 . S
H1549 C1565 0.930 . S
H1550 C1566 0.931 . S
C1551 H1539 0.929 . S
C1551 C1545 1.390 . S
C1551 C1548 1.386 . S
C1552 C1547 1.490 . S
C1552 C1554 1.395 1_554 S
C1552 C1555 1.403 . S
H1553 C1559 0.930 . S
C1554 H1540 0.930 . S
C1554 C1552 1.395 1_556 S
C1554 C1557 1.403 . S
C1555 C1552 1.403 . S
C1555 C1556 1.524 . S
C1555 C1559 1.400 . S
C1556 H1541 0.960 . S
C1556 H1542 0.960 . S
C1556 H1543 0.960 . S
C1556 C1555 1.524 . S
C1557 C1554 1.403 . S
C1557 C1558 1.392 . S
C1557 C1561 1.495 . S
C1558 C1557 1.392 . S
C1558 C1559 1.385 1_556 S
C1558 C1560 1.478 . S
C1559 H1553 0.930 . S
C1559 C1555 1.400 . S
C1559 C1558 1.385 1_554 S
C1560 C1558 1.478 . S
C1560 C1562 1.381 . S
C1560 C1566 1.383 . S
C1561 C1557 1.495 . S
C1561 H1567 0.959 . S
C1561 H1568 0.961 . S
C1561 H1569 0.960 . S
C1562 C1560 1.381 . S
C1562 C1563 1.394 . S
C1562 H1570 0.930 . S
C1563 C1562 1.394 . S
C1563 C1564 1.383 . S
C1563 H1571 0.929 . S
C1564 C1563 1.383 . S
C1564 C1565 1.377 . S
C1565 H1549 0.930 . S
C1565 C1564 1.377 . S
C1565 C1566 1.379 . S
C1566 H1550 0.931 . S
C1566 C1560 1.383 . S
C1566 C1565 1.379 . S
H1567 C1561 0.959 . S
H1568 C1561 0.961 . S
H1569 C1561 0.960 . S
H1570 C1562 0.930 . S
H1571 C1563 0.929 . S
C717 C33 1.484 . S
C736 C564 1.474 . S
C753 C92 1.475 . S
C772 C623 1.463 . S
C789 C151 1.477 . S
C808 C682 1.494 . S
C825 C210 1.475 . S
C844 C387 1.457 . S
C861 C446 1.476 . S
C880 C269 1.488 . S
C897 C505 1.474 . S
C916 C328 1.474 . S
C933 C595 2.141 . S
C952 C5 2.138 . S
C969 C64 2.138 . S
C988 C654 2.135 . S
C1005 C123 2.140 . S
C1024 C359 2.132 . S
C1041 C182 2.141 . S
C1060 C418 2.142 . S
C1077 C241 2.138 . S
C1096 C477 2.139 . S
C1113 C300 2.138 . S
C1132 C536 2.126 . S
C1149 C593 0.652 . S
C1168 C3 0.634 . S
C1185 C62 0.655 . S
C1204 C652 0.685 . S
C1221 C121 0.650 . S
C1240 C357 0.628 . S
C1257 C180 0.649 . S
C1276 C416 0.623 . S
C1293 C239 0.659 . S
C1312 C475 0.686 . S
C1329 C298 0.654 . S
C1348 C534 0.681 . S
C1365 C52 1.800 . S
C1384 C406 1.804 . S
C1401 C465 1.797 . S
C1420 C111 1.791 . S
C1437 C170 1.797 . S
C1456 C524 1.793 . S
C1473 C229 1.801 . S
C1492 C583 1.803 . S
C1509 C288 1.796 . S
C1528 C642 1.784 . S
C1545 C701 1.796 . S
C1564 C347 1.784 . S
