# Generated by pormake.
# Topology vby, (6)-cn, num edge types: 1
# Building blocks:
#     Node 0, Type 0, BuildingBlock: HISSIN_clean_sbu_0, # of connection points: 6
#     Node 1, Type 0, BuildingBlock: HISSIN_clean_sbu_0, # of connection points: 6
#     Node 2, Type 0, BuildingBlock: HISSIN_clean_sbu_0, # of connection points: 6
#     Node 3, Type 0, BuildingBlock: HISSIN_clean_sbu_0, # of connection points: 6
#     Node 4, Type 0, BuildingBlock: HISSIN_clean_sbu_0, # of connection points: 6
#     Node 5, Type 0, BuildingBlock: HISSIN_clean_sbu_0, # of connection points: 6
#     Node 6, Type 0, BuildingBlock: HISSIN_clean_sbu_0, # of connection points: 6
#     Node 7, Type 0, BuildingBlock: HISSIN_clean_sbu_0, # of connection points: 6
#     Edge 8, Type (0, 0), BuildingBlock: XUDNAN_clean_linker_2, # of connection points: 2
#     Edge 9, Type (0, 0), BuildingBlock: XUDNAN_clean_linker_2, # of connection points: 2
#     Edge 10, Type (0, 0), BuildingBlock: XUDNAN_clean_linker_2, # of connection points: 2
#     Edge 11, Type (0, 0), BuildingBlock: XUDNAN_clean_linker_2, # of connection points: 2
#     Edge 12, Type (0, 0), BuildingBlock: XUDNAN_clean_linker_2, # of connection points: 2
#     Edge 13, Type (0, 0), BuildingBlock: XUDNAN_clean_linker_2, # of connection points: 2
#     Edge 14, Type (0, 0), BuildingBlock: XUDNAN_clean_linker_2, # of connection points: 2
#     Edge 15, Type (0, 0), BuildingBlock: XUDNAN_clean_linker_2, # of connection points: 2
#     Edge 16, Type (0, 0), BuildingBlock: XUDNAN_clean_linker_2, # of connection points: 2
#     Edge 17, Type (0, 0), BuildingBlock: XUDNAN_clean_linker_2, # of connection points: 2
#     Edge 18, Type (0, 0), BuildingBlock: XUDNAN_clean_linker_2, # of connection points: 2
#     Edge 19, Type (0, 0), BuildingBlock: XUDNAN_clean_linker_2, # of connection points: 2
#     Edge 20, Type (0, 0), BuildingBlock: XUDNAN_clean_linker_2, # of connection points: 2
#     Edge 21, Type (0, 0), BuildingBlock: XUDNAN_clean_linker_2, # of connection points: 2
#     Edge 22, Type (0, 0), BuildingBlock: XUDNAN_clean_linker_2, # of connection points: 2
#     Edge 23, Type (0, 0), BuildingBlock: XUDNAN_clean_linker_2, # of connection points: 2
#     Edge 24, Type (0, 0), BuildingBlock: XUDNAN_clean_linker_2, # of connection points: 2
#     Edge 25, Type (0, 0), BuildingBlock: XUDNAN_clean_linker_2, # of connection points: 2
#     Edge 26, Type (0, 0), BuildingBlock: XUDNAN_clean_linker_2, # of connection points: 2
#     Edge 27, Type (0, 0), BuildingBlock: XUDNAN_clean_linker_2, # of connection points: 2
#     Edge 28, Type (0, 0), BuildingBlock: XUDNAN_clean_linker_2, # of connection points: 2
#     Edge 29, Type (0, 0), BuildingBlock: XUDNAN_clean_linker_2, # of connection points: 2
#     Edge 30, Type (0, 0), BuildingBlock: XUDNAN_clean_linker_2, # of connection points: 2
#     Edge 31, Type (0, 0), BuildingBlock: XUDNAN_clean_linker_2, # of connection points: 2
# Relax obj value: 0.199
# Max RMSD: 0.218
# Mean RMSD: 0.218
data_MOF--net-vby--node1-HISSIN_clean_sbu_0--edge1-XUDNAN_clean_linker_2
_symmetry_space_group_name_H-M    P1
_symmetry_Int_Tables_number       1
_symmetry_cell_setting            triclinic
loop_
_symmetry_equiv_pos_as_xyz
'x, y, z'
_cell_length_a     15.35452
_cell_length_b     104.60893
_cell_length_c     30.023084
_cell_angle_alpha  90.052942
_cell_angle_beta   91.481227
_cell_angle_gamma 90.082845
loop_
_atom_site_label
_atom_site_type_symbol
_atom_site_fract_x
_atom_site_fract_y
_atom_site_fract_z
_atom_type_partial_charge
Eu0 Eu 0.10719 0.37041 0.00131 0.0
Eu1 Eu 0.11423 0.40208 0.0204 0.0
C2 C 0.09379 0.39072 0.92055 0.0
C3 C 0.14572 0.33343 -0.00024 0.0
C4 C 0.17195 0.32517 0.9658 0.0
C5 C 0.18791 0.31725 0.05449 0.0
C6 C 0.20517 0.31304 0.97594 0.0
C7 C 0.15486 0.32941 0.04431 0.0
C8 C 0.21254 0.30883 0.02039 0.0
C9 C 0.10294 0.34566 0.9875 0.0
O10 O 0.97725 0.39829 -0.00331 0.0
O11 O 0.96679 0.37673 0.01135 0.0
C12 C 0.9306 0.38795 0.00322 0.0
O13 O 0.13912 0.37279 0.07437 0.0
O14 O 0.18592 0.41999 0.0156 0.0
O15 O 0.064 0.41957 0.0506 0.0
O16 O 0.0789 0.39263 0.08481 0.0
C17 C 0.10676 0.3816 0.10037 0.0
O18 O 0.24803 0.37665 0.99326 0.0
O19 O 0.24383 0.39378 0.04037 0.0
O20 O 0.12705 0.3998 0.94617 0.0
O21 O 0.05819 0.35148 0.01778 0.0
O22 O 0.14585 0.35362 0.96283 0.0
O23 O 0.06887 0.37962 0.93624 0.0
C24 C 0.10705 0.43953 0.01989 0.0
C25 C 0.08805 0.44916 0.05062 0.0
C26 C 0.09771 0.45528 0.96028 0.0
C27 C 0.0749 0.46175 0.03654 0.0
C28 C 0.11088 0.44263 0.97446 0.0
C29 C 0.08067 0.46503 0.99127 0.0
C30 C 0.12805 0.42662 0.03678 0.0
C31 C 0.28793 0.38562 0.01677 0.0
H32 H 0.1653 0.32802 0.93119 0.0
H33 H 0.19184 0.31431 0.08906 0.0
H34 H 0.22491 0.30695 0.94883 0.0
H35 H 0.13484 0.33554 0.07126 0.0
H36 H 0.08477 0.44696 0.08581 0.0
H37 H 0.10314 0.45746 0.92522 0.0
H38 H 0.06019 0.46893 0.06123 0.0
H39 H 0.12559 0.43536 0.9501 0.0
Eu40 Eu 0.97273 0.62242 -0.00365 0.0
Eu41 Eu 0.98558 0.65401 0.01467 0.0
C42 C 1.00024 0.64222 0.91708 0.0
C43 C 0.98714 0.58476 0.97898 0.0
C44 C 1.00349 0.58018 0.93596 0.0
C45 C 1.01196 0.56329 0.0081 0.0
C46 C 1.02259 0.56723 0.92904 0.0
C47 C 0.99319 0.5762 0.01498 0.0
C48 C 1.025 0.55854 0.96492 0.0
C49 C 0.95064 0.5977 0.98625 0.0
O50 O 0.84316 0.64847 0.02245 0.0
O51 O 0.8443 0.63096 0.97678 0.0
C52 C 0.80192 0.63941 -8e-05 0.0
O53 O 0.93841 0.62664 0.06741 0.0
O54 O 1.02192 0.67332 0.99435 0.0
O55 O 0.96511 0.67025 0.05907 0.0
O56 O 1.02662 0.64397 0.07766 0.0
C57 C 0.98518 0.63412 0.09366 0.0
O58 O 0.11405 0.62559 0.0129 0.0
O59 O 0.12583 0.64759 0.00665 0.0
O60 O 0.96212 0.65101 0.94107 0.0
O61 O 0.96656 0.60325 0.0245 0.0
O62 O 0.94571 0.60584 0.95336 0.0
O63 O 1.02582 0.63126 0.93436 0.0
C64 C 0.95852 0.69156 0.03014 0.0
C65 C 0.95437 0.69833 0.0704 0.0
C66 C 0.9165 0.71101 0.99029 0.0
C67 C 0.93413 0.71133 0.07064 0.0
C68 C 0.9376 0.69794 0.99002 0.0
C69 C 0.91734 0.7179 0.03056 0.0
C70 C 0.99626 0.67855 0.03125 0.0
C71 C 0.16091 0.63611 0.0107 0.0
H72 H 0.99848 0.58648 0.9074 0.0
H73 H 1.01176 0.55692 0.03651 0.0
H74 H 1.03349 0.56397 0.89541 0.0
H75 H 0.97928 0.57936 0.04843 0.0
H76 H 0.97073 0.69367 0.10175 0.0
H77 H 0.90403 0.71586 0.95891 0.0
H78 H 0.93426 0.71636 0.10221 0.0
H79 H 0.9408 0.69299 0.95841 0.0
Eu80 Eu 0.11489 0.62137 0.51666 0.0
Eu81 Eu 0.10855 0.6531 0.49708 0.0
C82 C 0.10717 0.64202 0.59631 0.0
C83 C 0.10658 0.58384 0.51775 0.0
C84 C 0.09068 0.57432 0.54935 0.0
C85 C 0.09288 0.56781 0.45909 0.0
C86 C 0.07689 0.56164 0.53615 0.0
C87 C 0.10677 0.58053 0.47239 0.0
C88 C 0.07882 0.55816 0.4909 0.0
C89 C 0.12815 0.59686 0.53363 0.0
O90 O 0.24925 0.64682 0.48931 0.0
O91 O 0.24469 0.62971 0.53647 0.0
C92 C 0.28892 0.63786 0.51286 0.0
O93 O 0.12757 0.62354 0.44243 0.0
O94 O 0.06009 0.6721 0.51312 0.0
O95 O 0.14785 0.6698 0.45834 0.0
O96 O 0.07018 0.64373 0.43215 0.0
C97 C 0.09459 0.63258 0.41669 0.0
O98 O 0.97802 0.62516 0.4929 0.0
O99 O 0.96796 0.64678 0.50698 0.0
O100 O 0.13957 0.65083 0.5703 0.0
O101 O 0.18547 0.60338 0.51166 0.0
O102 O 0.06473 0.60398 0.54764 0.0
O103 O 0.07949 0.63095 0.58081 0.0
C104 C 0.14764 0.6902 0.49448 0.0
C105 C 0.18646 0.69744 0.46094 0.0
C106 C 0.17536 0.70777 0.54645 0.0
C107 C 0.21887 0.70972 0.46989 0.0
C108 C 0.14313 0.69546 0.5375 0.0
C109 C 0.21279 0.71514 0.51264 0.0
C110 C 0.10512 0.67785 0.48276 0.0
C111 C 0.93159 0.63552 0.49913 0.0
H112 H 0.09027 0.57666 0.58452 0.0
H113 H 0.09532 0.56548 0.424 0.0
H114 H 0.06458 0.55455 0.56151 0.0
H115 H 0.1191 0.58772 0.44737 0.0
H116 H 0.1902 0.69368 0.4274 0.0
H117 H 0.16849 0.71164 0.57963 0.0
H118 H 0.24845 0.71499 0.44318 0.0
H119 H 0.11289 0.69021 0.56407 0.0
Eu120 Eu 0.98071 0.36867 0.51798 0.0
Eu121 Eu 0.97088 0.40042 0.50143 0.0
C122 C 0.98083 0.38829 0.59782 0.0
C123 C 0.93253 0.33185 0.52944 0.0
C124 C 0.89478 0.32693 0.56798 0.0
C125 C 0.8878 0.31245 0.48967 0.0
C126 C 0.85429 0.31495 0.56746 0.0
C127 C 0.92843 0.32448 0.49019 0.0
C128 C 0.85065 0.30749 0.52842 0.0
C129 C 0.98382 0.3439 0.53219 0.0
O130 O 0.11192 0.39676 0.51663 0.0
O131 O 0.12183 0.37473 0.5101 0.0
C132 C 0.15776 0.38618 0.51387 0.0
O133 O 0.96021 0.37216 0.44442 0.0
O134 O 0.97463 0.41951 0.5308 0.0
O135 O 0.93819 0.41725 0.46089 0.0
O136 O 1.02435 0.39197 0.43891 0.0
C137 C 0.99921 0.38103 0.42109 0.0
O138 O 0.83869 0.37443 0.52513 0.0
O139 O 0.84282 0.39204 0.4802 0.0
O140 O 0.93398 0.39578 0.57172 0.0
O141 O 1.00927 0.34923 0.49541 0.0
O142 O 0.96164 0.35235 0.56183 0.0
O143 O 1.02194 0.37845 0.58159 0.0
C144 C 0.98655 0.4382 0.48515 0.0
C145 C 0.99829 0.4427 0.4416 0.0
C146 C 1.0136 0.45976 0.51314 0.0
C147 C 1.01619 0.45565 0.4339 0.0
C148 C 0.99605 0.44684 0.5208 0.0
C149 C 1.02197 0.46443 0.46952 0.0
C150 C 0.9513 0.42524 0.49383 0.0
C151 C 0.79891 0.38356 0.50244 0.0
H152 H 0.89844 0.3322 0.59904 0.0
H153 H 0.88563 0.30703 0.45891 0.0
H154 H 0.82805 0.31138 0.5982 0.0
H155 H 0.95795 0.32789 0.46004 0.0
H156 H 0.99063 0.43632 0.41332 0.0
H157 H 1.01612 0.46619 0.54143 0.0
H158 H 1.02353 0.45884 0.3999 0.0
H159 H 0.98576 0.44374 0.55468 0.0
Eu160 Eu 0.59859 0.86873 0.01945 0.0
Eu161 Eu 0.6026 0.90056 0.00374 0.0
C162 C 0.57059 0.8812 0.92184 0.0
C163 C 0.65484 0.83227 0.03119 0.0
C164 C 0.65574 0.82495 0.99182 0.0
C165 C 0.74281 0.8159 0.06834 0.0
C166 C 0.69968 0.81321 0.99082 0.0
C167 C 0.69896 0.82758 0.06935 0.0
C168 C 0.74348 0.80851 0.02917 0.0
C169 C 0.6013 0.84403 0.03444 0.0
O170 O 0.4604 0.89612 0.00933 0.0
O171 O 0.45615 0.87392 0.00988 0.0
C172 C 0.41776 0.88518 0.00834 0.0
O173 O 0.55991 0.87833 0.08261 0.0
O174 O 0.64983 0.91763 0.97006 0.0
O175 O 0.57655 0.9196 0.03085 0.0
O176 O 0.64638 0.89573 0.07391 0.0
C177 C 0.60235 0.8881 0.09955 0.0
O178 O 0.74146 0.87459 0.02268 0.0
O179 O 0.72961 0.89291 0.98122 0.0
O180 O 0.55052 0.8924 0.93884 0.0
O181 O 0.6262 0.85263 0.06363 0.0
O182 O 0.56953 0.84915 -0.00213 0.0
O183 O 0.60828 0.8721 0.94568 0.0
C184 C 0.59631 0.9388 0.98711 0.0
C185 C 0.56361 0.94716 0.01936 0.0
C186 C 0.61969 0.95712 0.93871 0.0
C187 C 0.56112 0.96038 0.01185 0.0
C188 C 0.62206 0.94391 0.9462 0.0
C189 C 0.59202 0.96557 0.97203 0.0
C190 C 0.61874 0.92545 -0.00039 0.0
C191 C 0.77676 0.88374 -0.00097 0.0
H192 H 0.62135 0.82818 0.96197 0.0
H193 H 0.77419 0.81249 0.09877 0.0
H194 H 0.69932 0.80781 0.96003 0.0
H195 H 0.69793 0.83282 0.10049 0.0
H196 H 0.54457 0.94357 0.05151 0.0
H197 H 0.64254 0.96076 0.90733 0.0
H198 H 0.53999 0.96658 0.03838 0.0
H199 H 0.64825 0.93778 0.92073 0.0
Eu200 Eu 0.49884 0.12409 0.98109 0.0
Eu201 Eu 0.49568 0.15613 0.99531 0.0
C202 C 0.52158 0.14327 0.90117 0.0
C203 C 0.53098 0.08639 0.97031 0.0
C204 C 0.57843 0.08104 0.93553 0.0
C205 C 0.53175 0.06554 0.00687 0.0
C206 C 0.60137 0.0681 0.93609 0.0
C207 C 0.50867 0.07852 0.00627 0.0
C208 C 0.57722 0.06011 0.97141 0.0
C209 C 0.49359 0.09942 0.96515 0.0
O210 O 0.35365 0.15075 0.98143 0.0
O211 O 0.36164 0.12914 0.99549 0.0
C212 C 0.31656 0.13968 0.99015 0.0
O213 O 0.52473 0.12772 0.05466 0.0
O214 O 0.47065 0.17473 0.96473 0.0
O215 O 0.52131 0.17369 0.03307 0.0
O216 O 0.45573 0.14722 0.05955 0.0
C217 C 0.48651 0.1367 0.07793 0.0
O218 O 0.63964 0.12948 0.98702 0.0
O219 O 0.63564 0.15051 0.01166 0.0
O220 O 0.5546 0.15136 0.93011 0.0
O221 O 0.45644 0.10482 -0.00107 0.0
O222 O 0.5329 0.10767 0.93998 0.0
O223 O 0.47408 0.13364 0.91444 0.0
C224 C 0.44846 0.19314 0.01045 0.0
C225 C 0.43115 0.19686 0.05435 0.0
C226 C 0.40015 0.21409 0.98454 0.0
C227 C 0.39982 0.20917 0.06325 0.0
C228 C 0.43122 0.20182 0.97568 0.0
C229 C 0.38568 0.21804 0.02852 0.0
C230 C 0.49501 0.18111 0.00037 0.0
C231 C 0.67788 0.1399 0.00245 0.0
H232 H 0.59491 0.08673 0.90681 0.0
H233 H 0.51293 0.05974 0.03488 0.0
H234 H 0.63503 0.06426 0.9078 0.0
H235 H 0.47094 0.08226 0.03332 0.0
H236 H 0.44424 0.19043 0.08195 0.0
H237 H 0.39147 0.22067 0.95696 0.0
H238 H 0.38825 0.21181 0.09748 0.0
H239 H 0.44531 0.1993 0.9416 0.0
Eu240 Eu 0.60355 0.12148 0.4941 0.0
Eu241 Eu 0.59679 0.15336 0.48553 0.0
C242 C 0.6229 0.14008 0.57941 0.0
C243 C 0.58795 0.08365 0.4908 0.0
C244 C 0.54446 0.076 0.52157 0.0
C245 C 0.59818 0.06514 0.44176 0.0
C246 C 0.52932 0.06304 0.51298 0.0
C247 C 0.61348 0.07814 0.45042 0.0
C248 C 0.55774 0.05737 0.47343 0.0
C249 C 0.6164 0.09666 0.50436 0.0
O250 O 0.72867 0.14721 0.46336 0.0
O251 O 0.74248 0.12873 0.50356 0.0
C252 C 0.77737 0.13826 0.48169 0.0
O253 O 0.59667 0.12568 0.42009 0.0
O254 O 0.55348 0.17177 0.51055 0.0
O255 O 0.62677 0.17106 0.44979 0.0
O256 O 0.53403 0.14565 0.42281 0.0
C257 C 0.55411 0.13521 0.40105 0.0
O258 O 0.46053 0.12601 0.48054 0.0
O259 O 0.46425 0.14676 0.50616 0.0
O260 O 0.65328 0.14906 0.55356 0.0
O261 O 0.6644 0.1033 0.47753 0.0
O262 O 0.56263 0.10379 0.52635 0.0
O263 O 0.58598 0.12975 0.56269 0.0
C264 C 0.63058 0.1908 0.4908 0.0
C265 C 0.65983 0.19883 0.45674 0.0
C266 C 0.65433 0.20822 0.54374 0.0
C267 C 0.68447 0.21149 0.46588 0.0
C268 C 0.63007 0.19555 0.53463 0.0
C269 C 0.67957 0.21645 0.5093 0.0
C270 C 0.58955 0.17835 0.47902 0.0
C271 C 0.42077 0.13654 0.49289 0.0
H272 H 0.52483 0.07993 0.55315 0.0
H273 H 0.62143 0.06107 0.4111 0.0
H274 H 0.49669 0.05739 0.53777 0.0
H275 H 0.64805 0.08373 0.42619 0.0
H276 H 0.65991 0.19549 0.42256 0.0
H277 H 0.65112 0.21167 0.57768 0.0
H278 H 0.70293 0.21757 0.43852 0.0
H279 H 0.60775 0.18966 0.56171 0.0
Eu280 Eu 0.47603 0.86877 0.50091 0.0
Eu281 Eu 0.46925 0.90056 0.51888 0.0
C282 C 0.4606 0.88019 0.59897 0.0
C283 C 0.44274 0.83147 0.49637 0.0
C284 C 0.41035 0.82826 0.53824 0.0
C285 C 0.41336 0.80974 0.47097 0.0
C286 C 0.38092 0.8158 0.54657 0.0
C287 C 0.44269 0.82216 0.46272 0.0
C288 C 0.38337 0.80631 0.51323 0.0
C289 C 0.48377 0.84399 0.48772 0.0
O290 O 0.61001 0.89654 0.50198 0.0
O291 O 0.61213 0.87507 0.51926 0.0
C292 C 0.65226 0.88576 0.50937 0.0
O293 O 0.52113 0.87782 0.43747 0.0
O294 O 0.518 0.91787 0.55227 0.0
O295 O 0.40049 0.91866 0.51069 0.0
O296 O 0.46867 0.89841 0.44435 0.0
C297 C 0.50166 0.8891 0.42065 0.0
O298 O 0.34039 0.87499 0.48269 0.0
O299 O 0.33131 0.89298 0.52591 0.0
O300 O 0.49351 0.891 0.58491 0.0
O301 O 0.44343 0.85185 0.46056 0.0
O302 O 0.52209 0.84989 0.52115 0.0
O303 O 0.43116 0.87139 0.57121 0.0
C304 C 0.47754 0.9381 0.52186 0.0
C305 C 0.5126 0.94072 0.48013 0.0
C306 C 0.47258 0.96087 0.53742 0.0
C307 C 0.52722 0.95341 0.46705 0.0
C308 C 0.45833 0.94825 0.55041 0.0
C309 C 0.50683 0.96366 0.49549 0.0
C310 C 0.45553 0.92505 0.53595 0.0
C311 C 0.29411 0.88378 0.50228 0.0
H312 H 0.40953 0.83528 0.56477 0.0
H313 H 0.41741 0.8027 0.44464 0.0
H314 H 0.35705 0.81358 0.57929 0.0
H315 H 0.468 0.8244 0.43027 0.0
H316 H 0.52764 0.93298 0.45759 0.0
H317 H 0.45438 0.96846 0.55989 0.0
H318 H 0.55446 0.95518 0.43473 0.0
H319 H 0.43049 0.94641 0.58259 0.0
H320 H 0.421 0.36791 0.00294 0.0
H321 H 0.37061 0.40827 0.0246 0.0
H322 H 0.52683 0.41286 0.02104 0.0
H323 H 0.619 0.36702 0.07133 0.0
H324 H 0.67529 0.35601 0.03597 0.0
H325 H 0.55812 0.35562 0.03786 0.0
H326 H 0.54777 0.35858 0.95229 0.0
H327 H 0.66496 0.35899 0.95016 0.0
H328 H 0.60152 0.372 0.9272 0.0
H329 H 0.68476 0.41357 0.01474 0.0
H330 H 0.84213 0.41024 0.01099 0.0
H331 H 0.80032 0.36928 -0.00267 0.0
C332 C 0.44319 0.37769 0.00667 0.0
C333 C 0.38329 0.38773 0.01409 0.0
C334 C 0.41491 0.40039 0.01927 0.0
C335 C 0.5037 0.40313 0.01707 0.0
C336 C 0.56102 0.39311 0.01012 0.0
C337 C 0.53287 0.38062 0.00538 0.0
C338 C 0.6104 0.3717 0.00019 0.0
C339 C 0.61601 0.36202 0.03863 0.0
C340 C 0.60587 0.36492 0.95475 0.0
C341 C 0.68577 0.38119 0.00278 0.0
C342 C 0.65483 0.39348 0.00799 0.0
C343 C 0.71006 0.404 0.01074 0.0
C344 C 0.79971 0.40197 0.00841 0.0
C345 C 0.83428 0.38949 0.00381 0.0
C346 C 0.77615 0.37894 0.00097 0.0
H347 H 0.28904 0.65501 0.01502 0.0
H348 H 0.25153 0.61382 0.00804 0.0
H349 H 0.40935 0.61076 0.00726 0.0
H350 H 0.47063 0.65643 0.94249 0.0
H351 H 0.52927 0.66854 0.97381 0.0
H352 H 0.41215 0.66784 0.97535 0.0
H353 H 0.42075 0.6663 0.06141 0.0
H354 H 0.53798 0.66701 0.06015 0.0
H355 H 0.48527 0.65387 0.08746 0.0
H356 H 0.56688 0.61168 0.00331 0.0
H357 H 0.7224 0.61653 -0.00116 0.0
H358 H 0.66764 0.65712 0.0108 0.0
C359 C 0.31416 0.64536 0.01356 0.0
C360 C 0.25718 0.63466 0.01162 0.0
C361 C 0.293 0.62219 0.00973 0.0
C362 C 0.38293 0.62032 0.00924 0.0
C363 C 0.43695 0.63098 0.01098 0.0
C364 C 0.4047 0.64327 0.01338 0.0
C365 C 0.4789 0.65296 0.01448 0.0
C366 C 0.47232 0.66197 0.97412 0.0
C367 C 0.48082 0.66048 0.0585 0.0
C368 C 0.55732 0.64414 0.01158 0.0
C369 C 0.5306 0.63152 0.00958 0.0
C370 C 0.58891 0.62151 0.00512 0.0
C371 C 0.67723 0.6244 0.00235 0.0
C372 C 0.70728 0.63721 0.00429 0.0
C373 C 0.64653 0.64724 0.00955 0.0
H374 H 0.80168 0.65421 0.49369 0.0
H375 H 0.84251 0.61323 0.50624 0.0
H376 H 0.6851 0.6099 0.50994 0.0
H377 H 0.62145 0.65633 0.56784 0.0
H378 H 0.56089 0.66783 0.53491 0.0
H379 H 0.67799 0.66736 0.53264 0.0
H380 H 0.66731 0.66456 0.447 0.0
H381 H 0.55014 0.66505 0.449 0.0
H382 H 0.60321 0.65164 0.42357 0.0
H383 H 0.5272 0.61061 0.51636 0.0
H384 H 0.37107 0.6152 0.52013 0.0
H385 H 0.4224 0.65558 0.49948 0.0
C386 C 0.77729 0.64455 0.49705 0.0
C387 C 0.83519 0.63399 0.49962 0.0
C388 C 0.80031 0.6215 0.50388 0.0
C389 C 0.71062 0.61948 0.50617 0.0
C390 C 0.65562 0.63 0.50372 0.0
C391 C 0.68683 0.6423 0.49879 0.0
C392 C 0.61161 0.65179 0.49657 0.0
C393 C 0.61842 0.6614 0.5353 0.0
C394 C 0.60786 0.65867 0.45134 0.0
C395 C 0.53395 0.64287 0.50158 0.0
C396 C 0.56183 0.63037 0.50594 0.0
C397 C 0.50429 0.62034 0.51266 0.0
C398 C 0.41556 0.62308 0.51499 0.0
C399 C 0.38423 0.63575 0.51014 0.0
C400 C 0.44436 0.6458 0.50295 0.0
H401 H 0.6659 0.36591 0.51805 0.0
H402 H 0.71666 0.4061 0.49235 0.0
H403 H 0.56089 0.41066 0.49452 0.0
H404 H 0.46864 0.36422 0.44964 0.0
H405 H 0.41158 0.35367 0.48636 0.0
H406 H 0.52877 0.35322 0.48488 0.0
H407 H 0.53832 0.35723 0.56998 0.0
H408 H 0.42111 0.35769 0.57171 0.0
H409 H 0.48467 0.37096 0.59297 0.0
H410 H 0.40423 0.41144 0.49882 0.0
H411 H 0.24696 0.40827 0.50227 0.0
H412 H 0.28673 0.36751 0.52291 0.0
C413 C 0.64385 0.37564 0.51314 0.0
C414 C 0.70375 0.38562 0.50478 0.0
C415 C 0.6724 0.39824 0.49825 0.0
C416 C 0.58383 0.40099 0.49966 0.0
C417 C 0.52652 0.39102 0.50742 0.0
C418 C 0.55432 0.37859 0.51385 0.0
C419 C 0.47658 0.36976 0.52007 0.0
C420 C 0.47109 0.35962 0.48302 0.0
C421 C 0.48042 0.36355 0.56645 0.0
C422 C 0.40166 0.37925 0.51591 0.0
C423 C 0.43302 0.39145 0.50902 0.0
C424 C 0.37847 0.40195 0.50424 0.0
C425 C 0.28887 0.40002 0.5064 0.0
C426 C 0.25384 0.38763 0.513 0.0
C427 C 0.31132 0.37708 0.51779 0.0
H428 H 0.90969 0.8687 0.03672 0.0
H429 H 0.86065 0.90034 0.94555 0.0
H430 H 1.01705 0.90321 0.93705 0.0
H431 H 0.09588 0.88209 0.09167 0.0
H432 H 0.15674 0.86741 0.09621 0.0
H433 H 1.03943 0.86699 0.09403 0.0
H434 H 1.04234 0.85171 0.02619 0.0
H435 H 0.15977 0.85202 0.02833 0.0
H436 H 0.10152 0.85629 0.97762 0.0
H437 H 0.17497 0.90436 0.94248 0.0
H438 H 0.33251 0.90248 0.95725 0.0
H439 H 0.28853 0.8695 0.04155 0.0
C440 C 0.93201 0.8761 0.01454 0.0
C441 C 0.87213 0.88432 0.9921 0.0
C442 C 0.90434 0.89393 0.96348 0.0
C443 C 0.99349 0.89567 0.95823 0.0
C444 C 0.05054 0.88765 0.98136 0.0
C445 C 1.02185 0.87794 0.00851 0.0
C446 C 0.09896 0.87092 0.0299 0.0
C447 C 0.09764 0.87192 0.08098 0.0
C448 C 0.10074 0.8569 0.01459 0.0
C449 C 0.17461 0.87844 0.01116 0.0
C450 C 0.14433 0.88805 0.98335 0.0
C451 C 0.19986 0.89678 0.96373 0.0
C452 C 0.2892 0.89569 0.97259 0.0
C453 C 0.32258 0.88586 0.00048 0.0
C454 C 0.26459 0.87702 0.01973 0.0
H455 H 0.1834 0.15766 0.97477 0.0
H456 H 0.23329 0.11911 0.0236 0.0
H457 H 0.07915 0.1163 0.03755 0.0
H458 H 1.00853 0.16493 0.05364 0.0
H459 H 0.94293 0.17356 0.01317 0.0
H460 H 0.05986 0.17334 0.00895 0.0
H461 H 1.04445 0.16459 0.92841 0.0
H462 H 0.92764 0.16486 0.93232 0.0
H463 H 0.98211 0.15023 0.91799 0.0
H464 H 0.92264 0.1165 0.04286 0.0
H465 H 0.76436 0.1197 0.03658 0.0
H466 H 0.80513 0.15802 0.9857 0.0
C467 C 0.16173 0.14868 0.98863 0.0
C468 C 0.22145 0.13863 -0.00221 0.0
C469 C 0.18994 0.127 0.0158 0.0
C470 C 0.10201 0.12528 0.02427 0.0
C471 C 1.04515 0.13524 0.0148 0.0
C472 C 0.0728 0.14672 -0.00269 0.0
C473 C 0.99526 0.15552 0.98853 0.0
C474 C 1.00208 0.16755 0.01782 0.0
C475 C 0.98689 0.159 0.93885 0.0
C476 C 0.92047 0.14697 0.00272 0.0
C477 C 0.9518 0.13539 0.01823 0.0
C478 C 0.89698 0.12556 0.03123 0.0
C479 C 0.80721 0.12746 0.02745 0.0
C480 C 0.77277 0.13911 0.01095 0.0
C481 C 0.83005 0.14912 -0.00078 0.0
H482 H 0.28658 0.11915 0.50853 0.0
H483 H 0.33994 0.15756 0.46175 0.0
H484 H 0.18315 0.16153 0.4518 0.0
H485 H 0.09454 0.11317 0.43554 0.0
H486 H 1.03497 0.10484 0.47759 0.0
H487 H 0.15238 0.10444 0.47873 0.0
H488 H 0.15511 0.11312 0.55952 0.0
H489 H 1.03779 0.11358 0.55859 0.0
H490 H 0.09944 0.12784 0.57159 0.0
H491 H 1.02415 0.1619 0.44789 0.0
H492 H 0.86638 0.15895 0.45236 0.0
H493 H 0.9071 0.1206 0.50454 0.0
C494 C 0.26481 0.12831 0.49577 0.0
C495 C 0.32548 0.13807 0.48596 0.0
C496 C 0.29473 0.15 0.46985 0.0
C497 C 0.20571 0.15234 0.46386 0.0
C498 C 0.14749 0.1427 0.47443 0.0
C499 C 0.17504 0.13093 0.49022 0.0
C500 C 0.09694 0.12257 0.50086 0.0
C501 C 0.09459 0.11054 0.47142 0.0
C502 C 0.09737 0.11908 0.5506 0.0
C503 C 1.02197 0.13155 0.48877 0.0
C504 C 0.05343 0.14304 0.47322 0.0
C505 C 0.99845 0.15295 0.45992 0.0
C506 C 0.90856 0.15114 0.46259 0.0
C507 C 0.87363 0.13953 0.47878 0.0
C508 C 0.93152 0.12959 0.49207 0.0
H509 H 0.78803 0.90236 0.53383 0.0
H510 H 0.729 0.86654 0.4664 0.0
H511 H 0.88486 0.86294 0.45518 0.0
H512 H 0.97654 0.91124 0.46568 0.0
H513 H 1.03908 0.9176 0.51228 0.0
H514 H 0.92173 0.91815 0.51231 0.0
H515 H 0.92292 0.90615 0.58771 0.0
H516 H 1.04016 0.90551 0.5878 0.0
H517 H 0.9779 0.89098 0.59256 0.0
H518 H 1.04329 0.86236 0.45357 0.0
H519 H 0.2014 0.86468 0.46185 0.0
H520 H 0.16718 0.9006 0.53234 0.0
C521 C 0.80834 0.8939 0.51612 0.0
C522 C 0.74649 0.88472 0.50091 0.0
C523 C 0.77528 0.87364 0.47853 0.0
C524 C 0.86369 0.87153 0.47183 0.0
C525 C 0.92323 0.88053 0.48791 0.0
C526 C 0.89753 0.89151 0.50962 0.0
C527 C 0.97694 0.89919 0.52537 0.0
C528 C 0.97866 0.91232 0.50254 0.0
C529 C 0.97961 0.90053 0.57639 0.0
C530 C 0.05049 0.89069 0.50952 0.0
C531 C 1.01716 0.88007 0.48769 0.0
C532 C 0.07046 0.87066 0.47039 0.0
C533 C 0.16061 0.8721 0.47537 0.0
C534 C 0.19754 0.88284 0.49774 0.0
C535 C 0.1413 0.89228 0.51505 0.0
H536 H 0.11366 0.54095 0.01745 0.0
H537 H 0.95536 0.54416 0.89604 0.0
H538 H 0.95976 0.52073 0.88695 0.0
H539 H 0.2475 0.51401 0.98222 0.0
H540 H 0.24899 0.50678 0.03669 0.0
H541 H 0.24025 0.52388 0.03125 0.0
H542 H 0.09906 0.52352 0.0767 0.0
H543 H 0.10707 0.50642 0.08207 0.0
H544 H 1.00939 0.5135 0.05844 0.0
H545 H 0.97246 0.49668 0.89406 0.0
H546 H 0.99394 0.47415 0.91648 0.0
H547 H 0.14232 0.48671 0.03358 0.0
C548 C 0.08027 0.53677 0.98876 0.0
C549 C 1.03455 0.5445 0.95735 0.0
C550 C 0.99235 0.53855 0.92016 0.0
C551 C 0.99392 0.52521 0.91485 0.0
C552 C 1.0381 0.51789 0.94692 0.0
C553 C 0.08088 0.52347 0.98303 0.0
C554 C 0.12035 0.51344 0.01383 0.0
C555 C 0.2202 0.5146 0.01611 0.0
C556 C 0.08163 0.51427 0.06051 0.0
C557 C 0.09163 0.50134 0.98987 0.0
C558 C 1.04484 0.50409 0.95116 0.0
C559 C 1.00976 0.49443 0.9241 0.0
C560 C 1.02261 0.48164 0.93702 0.0
C561 C 0.06979 0.4786 0.97682 0.0
C562 C 0.10511 0.48866 0.00323 0.0
H563 H 0.11457 0.48231 0.51948 0.0
H564 H 0.94567 0.47857 0.40192 0.0
H565 H 0.94882 0.50196 0.39192 0.0
H566 H 1.01392 0.50991 0.56195 0.0
H567 H 0.11352 0.51711 0.58293 0.0
H568 H 0.10509 0.49999 0.57846 0.0
H569 H 0.24179 0.4995 0.52965 0.0
H570 H 0.25092 0.51663 0.53416 0.0
H571 H 0.24447 0.50917 0.48003 0.0
H572 H 0.96215 0.52605 0.39767 0.0
H573 H 0.98571 0.54868 0.41854 0.0
H574 H 0.14416 0.53666 0.53276 0.0
C575 C 0.07851 0.48637 0.49145 0.0
C576 C 1.03026 0.47848 0.46137 0.0
C577 C 0.98464 0.48429 0.42499 0.0
C578 C 0.98547 0.49761 0.41917 0.0
C579 C 1.03234 0.50508 0.44992 0.0
C580 C 0.07836 0.49965 0.48524 0.0
C581 C 0.12051 0.50982 0.51467 0.0
C582 C 0.08618 0.50916 0.56231 0.0
C583 C 0.22035 0.50871 0.5146 0.0
C584 C 0.08962 0.52183 0.4909 0.0
C585 C 1.03941 0.5189 0.45342 0.0
C586 C 1.00206 0.52844 0.42674 0.0
C587 C 1.01612 0.54129 0.43876 0.0
C588 C 0.06677 0.54452 0.47731 0.0
C589 C 0.10432 0.53457 0.50336 0.0
H590 H 0.4799 0.98496 -0.00362 0.0
H591 H 0.73084 0.97818 0.93733 0.0
H592 H 0.75472 1.00142 0.93191 0.0
H593 H 0.42254 0.01271 0.92984 0.0
H594 H 0.37097 0.02093 0.97488 0.0
H595 H 0.3729 1.00372 0.97366 0.0
H596 H 0.44578 1.00348 0.05245 0.0
H597 H 0.44466 0.0207 0.05376 0.0
H598 H 0.54575 0.01221 0.06238 0.0
H599 H 0.7541 0.02536 0.93479 0.0
H600 H 0.72524 0.04844 0.94192 0.0
H601 H 0.47345 0.03996 -0.0023 0.0
C602 C 0.53985 0.98837 0.9823 0.0
C603 C 0.60317 0.97968 0.96696 0.0
C604 C 0.68052 0.98458 0.94853 0.0
C605 C 0.69512 0.99779 0.94567 0.0
C606 C 0.63179 1.00606 0.9613 0.0
C607 C 0.5554 1.00157 0.97897 0.0
C608 C 0.4977 0.01256 0.99296 0.0
C609 C 0.4109 0.01247 0.96623 0.0
C610 C 0.48261 0.01221 0.04338 0.0
C611 C 0.55378 0.02391 0.9805 0.0
C612 C 0.631 0.01992 0.96248 0.0
C613 C 0.69354 0.02861 0.94856 0.0
C614 C 0.6763 0.04172 0.95256 0.0
C615 C 0.59682 0.04611 0.97012 0.0
C616 C 0.53528 0.03699 0.9846 0.0
H617 H 0.58646 0.0383 0.53476 0.0
H618 H 0.50986 0.04456 0.39637 0.0
H619 H 0.49548 0.02118 0.38551 0.0
H620 H 0.71128 1.00958 0.51741 0.0
H621 H 0.67682 1.00219 0.56824 0.0
H622 H 0.68351 0.01934 0.56446 0.0
H623 H 0.52199 0.0212 0.58666 0.0
H624 H 0.51489 1.00406 0.59064 0.0
H625 H 0.43939 0.01267 0.55485 0.0
H626 H 0.48414 0.99694 0.39104 0.0
H627 H 0.47529 0.97418 0.41251 0.0
H628 H 0.56253 0.98405 0.5469 0.0
C629 C 0.56605 0.03479 0.50219 0.0
C630 C 0.54888 0.0433 0.46645 0.0
C631 C 0.52398 0.03824 0.42418 0.0
C632 C 0.51542 0.02498 0.41774 0.0
C633 C 0.53254 0.01688 0.4538 0.0
C634 C 0.55751 0.02162 0.49517 0.0
C635 C 0.57102 1.01096 0.52872 0.0
C636 C 0.66633 1.01049 0.54569 0.0
C637 C 0.50806 0.01231 0.56749 0.0
C638 C 0.54852 0.99946 0.5 0.0
C639 C 0.52687 1.00303 0.45684 0.0
C640 C 0.50167 0.99404 0.42468 0.0
C641 C 0.49743 0.9811 0.43714 0.0
C642 C 0.51819 0.97725 0.48144 0.0
C643 C 0.54522 0.98662 0.5129 0.0
H644 H 0.1771 0.28651 0.97448 0.0
H645 H 0.32043 0.30125 0.09008 0.0
H646 H 0.3732 0.27947 0.10726 0.0
H647 H 0.11459 0.25628 0.02252 0.0
H648 H 0.12846 0.24747 0.97156 0.0
H649 H 0.09885 0.26412 0.96948 0.0
H650 H 0.23253 0.26893 0.92123 0.0
H651 H 0.26233 0.25229 0.92301 0.0
H652 H 0.33965 0.26431 0.94121 0.0
H653 H 0.41489 0.25609 0.1102 0.0
H654 H 0.44503 0.23323 0.09766 0.0
H655 H 0.27406 0.23377 0.98018 0.0
C656 C 0.21999 0.28521 0.0033 0.0
C657 C 0.24438 0.29566 0.03095 0.0
C658 C 0.29967 0.29342 0.0687 0.0
C659 C 0.33033 0.28107 0.07864 0.0
C660 C 0.30512 0.27102 0.05061 0.0
C661 C 0.25126 0.27296 0.01368 0.0
C662 C 0.23557 0.26061 0.98825 0.0
C663 C 0.1386 0.25691 0.98795 0.0
C664 C 0.26957 0.2616 0.94061 0.0
C665 C 0.28989 0.25143 0.01632 0.0
C666 C 0.32906 0.2576 0.0523 0.0
C667 C 0.38395 0.25115 0.08234 0.0
C668 C 0.40013 0.23811 0.0751 0.0
C669 C 0.36173 0.2316 0.03803 0.0
C670 C 0.30505 0.23841 0.00868 0.0
H671 H 0.6881 0.78591 0.98967 0.0
H672 H 0.90041 0.80244 0.06897 0.0
H673 H 0.96962 0.78126 0.07492 0.0
H674 H 0.67315 0.7569 0.04838 0.0
H675 H 0.65163 0.74703 9e-05 0.0
H676 H 0.6206 0.76362 -0.00062 0.0
H677 H 0.71023 0.76725 0.92858 0.0
H678 H 0.74118 0.75064 0.9289 0.0
H679 H 0.8238 0.7629 0.92895 0.0
H680 H 1.01088 0.7583 0.07709 0.0
H681 H 1.02516 0.73486 0.07276 0.0
H682 H 0.78975 0.73286 0.98996 0.0
C683 C 0.75004 0.78513 0.00751 0.0
C684 C 0.78846 0.79588 0.02909 0.0
C685 C 0.86889 0.79436 0.05273 0.0
C686 C 0.90909 0.78237 0.05607 0.0
C687 C 0.86868 0.77196 0.03523 0.0
C688 C 0.79143 0.7732 0.01104 0.0
C689 C 0.76071 0.76033 0.99304 0.0
C690 C 0.67123 0.75677 0.01133 0.0
C691 C 0.75889 0.76028 0.94183 0.0
C692 C 0.83189 0.75165 0.01172 0.0
C693 C 0.89351 0.75861 0.03584 0.0
C694 C 0.96352 0.75276 0.05796 0.0
C695 C 0.97077 0.73943 0.05554 0.0
C696 C 0.90855 0.73205 0.03111 0.0
C697 C 0.83869 0.73829 0.00849 0.0
H698 H 0.19855 0.73623 0.45771 0.0
H699 H 0.29732 0.72436 0.58803 0.0
H700 H 0.3462 0.74646 0.60343 0.0
H701 H 0.37415 0.75782 0.43441 0.0
H702 H 0.30494 0.76929 0.40614 0.0
H703 H 0.27549 0.75262 0.40596 0.0
H704 H 0.12612 0.7583 0.43894 0.0
H705 H 0.15525 0.77498 0.43939 0.0
H706 H 0.12264 0.76732 0.49006 0.0
H707 H 0.38669 0.76989 0.60421 0.0
H708 H 0.41911 0.79259 0.58949 0.0
H709 H 0.29455 0.78917 0.45853 0.0
C710 C 0.23115 0.73821 0.48938 0.0
C711 C 0.24372 0.72848 0.52168 0.0
C712 C 0.28557 0.73163 0.56293 0.0
C713 C 0.31402 0.74416 0.57194 0.0
C714 C 0.30036 0.75349 0.53939 0.0
C715 C 0.26013 0.75066 0.49889 0.0
C716 C 0.2544 0.76241 0.46935 0.0
C717 C 0.30529 0.76041 0.42643 0.0
C718 C 0.15892 0.76596 0.45883 0.0
C719 C 0.29822 0.77227 0.49945 0.0
C720 C 0.32389 0.76695 0.53978 0.0
C721 C 0.36645 0.77416 0.5728 0.0
C722 C 0.384 0.7871 0.56424 0.0
C723 C 0.35921 0.79276 0.5229 0.0
C724 C 0.31512 0.78517 0.49034 0.0
H725 H 0.90592 0.28537 0.48714 0.0
H726 H 0.7024 0.30016 0.57069 0.0
H727 H 0.639 0.27856 0.57557 0.0
H728 H 0.76768 0.26289 0.42518 0.0
H729 H 0.85136 0.25087 0.42227 0.0
H730 H 0.88079 0.26754 0.42506 0.0
H731 H 0.97933 0.26301 0.49457 0.0
H732 H 0.94976 0.24635 0.49218 0.0
H733 H 0.9334 0.25538 0.54242 0.0
H734 H 0.59933 0.25535 0.57318 0.0
H735 H 0.58143 0.2322 0.56048 0.0
H736 H 0.80823 0.23228 0.47708 0.0
C737 C 0.84732 0.28412 0.50596 0.0
C738 C 0.80966 0.29452 0.5288 0.0
C739 C 0.73356 0.29236 0.55353 0.0
C740 C 0.69669 0.28012 0.55633 0.0
C741 C 0.73617 0.27008 0.53402 0.0
C742 C 0.80936 0.27194 0.50901 0.0
C743 C 0.83882 0.25947 0.48832 0.0
C744 C 0.83437 0.26024 0.43717 0.0
C745 C 0.93078 0.25584 0.50541 0.0
C746 C 0.77081 0.25033 0.50571 0.0
C747 C 0.71253 0.25666 0.53217 0.0
C748 C 0.64456 0.25028 0.55251 0.0
C749 C 0.63538 0.23709 0.54537 0.0
C750 C 0.69365 0.23035 0.518 0.0
C751 C 0.7623 0.23713 0.49797 0.0
H752 H 0.08777 0.39886 0.16802 0.0
H753 H 0.10526 0.35818 0.14095 0.0
H754 H 0.08057 0.3536 0.22036 0.0
H755 H 0.1996 0.39776 0.27639 0.0
H756 H 0.13183 0.40997 0.29982 0.0
H757 H 0.15257 0.40999 0.24104 0.0
H758 H 0.98636 0.4098 0.22362 0.0
H759 H 0.96511 0.40969 0.28232 0.0
H760 H 0.9199 0.39735 0.24669 0.0
H761 H 1.04397 0.35347 0.30156 0.0
H762 H 1.01155 0.35779 0.38031 0.0
H763 H 1.02555 0.39858 0.35499 0.0
C764 C 0.08689 0.38899 0.17883 0.0
C765 C 0.09813 0.37887 0.14832 0.0
C766 C 0.09718 0.36609 0.1638 0.0
C767 C 0.08286 0.36339 0.20879 0.0
C768 C 0.07085 0.37359 0.23787 0.0
C769 C 0.07398 0.38614 0.22366 0.0
C770 C 0.05983 0.39535 0.26172 0.0
C771 C 0.14079 0.40376 0.27024 0.0
C772 C 0.97792 0.40353 0.25305 0.0
C773 C 0.04698 0.38602 0.29947 0.0
C774 C 0.05297 0.37352 0.28496 0.0
C775 C 1.04002 0.36322 0.31342 0.0
C776 C 1.02119 0.36577 0.358 0.0
C777 C 1.01645 0.37851 0.37374 0.0
C778 C 1.02967 0.38874 0.344 0.0
H779 H 1.02409 0.65085 0.16102 0.0
H780 H 0.96754 0.61088 0.13432 0.0
H781 H 0.99295 0.60592 0.21423 0.0
H782 H 0.19316 0.6463 0.24281 0.0
H783 H 0.16027 0.65948 0.27722 0.0
H784 H 0.13782 0.65983 0.21807 0.0
H785 H 0.97353 0.6632 0.23203 0.0
H786 H 0.99555 0.66297 0.29123 0.0
H787 H 0.91684 0.65206 0.26679 0.0
H788 H 1.03284 0.60527 0.29669 0.0
H789 H 0.06717 0.60935 0.37649 0.0
H790 H 0.08855 0.64993 0.34892 0.0
C791 C 1.01685 0.64105 0.17201 0.0
C792 C 0.99432 0.63123 0.14161 0.0
C793 C 0.98445 0.61855 0.15723 0.0
C794 C 0.99922 0.61564 0.20244 0.0
C795 C 1.02247 0.62555 0.23151 0.0
C796 C 1.02979 0.63803 0.217 0.0
C797 C 0.05296 0.647 0.25504 0.0
C798 C 0.14131 0.65353 0.24784 0.0
C799 C 0.98038 0.65689 0.26166 0.0
C800 C 0.05831 0.6376 0.29325 0.0
C801 C 1.04157 0.62525 0.27901 0.0
C802 C 1.04532 0.61492 0.30828 0.0
C803 C 0.06535 0.61731 0.35342 0.0
C804 C 0.08002 0.62996 0.36878 0.0
C805 C 0.07682 0.64018 0.33815 0.0
H806 H 1.02676 0.62482 0.85058 0.0
H807 H 1.0104 0.66556 0.87665 0.0
H808 H 1.04206 0.67001 0.79787 0.0
H809 H 0.20028 0.626 0.77239 0.0
H810 H 0.15417 0.61367 0.73701 0.0
H811 H 0.13296 0.6137 0.79574 0.0
H812 H 0.96675 0.6137 0.77829 0.0
H813 H 0.98743 0.6136 0.71954 0.0
H814 H 0.92054 0.62595 0.74275 0.0
H815 H 0.07879 0.66998 0.71648 0.0
H816 H 0.10415 0.66546 0.63701 0.0
H817 H 0.0891 0.62475 0.66382 0.0
C818 C 1.03014 0.63468 0.83975 0.0
C819 C 1.01655 0.64485 0.86971 0.0
C820 C 1.02035 0.65762 0.85417 0.0
C821 C 1.03874 0.66024 0.80958 0.0
C822 C 0.0522 0.64999 0.78092 0.0
C823 C 0.04708 0.63747 0.79525 0.0
C824 C 0.06051 0.62818 0.75736 0.0
C825 C 0.14183 0.6199 0.76617 0.0
C826 C 0.97894 0.61987 0.749 0.0
C827 C 0.07406 0.63744 0.71947 0.0
C828 C 0.07011 0.64998 0.73381 0.0
C829 C 0.0817 0.66021 0.70482 0.0
C830 C 0.09644 0.65754 0.65982 0.0
C831 C 0.09827 0.64476 0.64425 0.0
C832 C 0.0875 0.63462 0.67467 0.0
H833 H 1.02135 0.37173 0.66542 0.0
H834 H 0.96387 0.4116 0.63806 0.0
H835 H 0.99077 0.41679 0.71769 0.0
H836 H 0.91594 0.37073 0.77165 0.0
H837 H 0.9951 0.35994 0.7961 0.0
H838 H 0.97231 0.35954 0.73698 0.0
H839 H 0.13635 0.36298 0.72237 0.0
H840 H 0.15954 0.36351 0.78145 0.0
H841 H 0.19181 0.37662 0.74658 0.0
H842 H 1.03178 0.41768 0.79992 0.0
H843 H 0.06654 0.41383 0.87978 0.0
H844 H 0.08804 0.3732 0.85322 0.0
C845 C 1.01423 0.38155 0.67622 0.0
C846 C 0.99094 0.39128 0.64569 0.0
C847 C 0.98131 0.40399 0.66106 0.0
C848 C 0.99695 0.40704 0.70611 0.0
C849 C 1.02087 0.39723 0.73531 0.0
C850 C 1.02804 0.38471 0.72108 0.0
C851 C 0.05181 0.37586 0.7593 0.0
C852 C 0.97946 0.36594 0.76642 0.0
C853 C 0.14013 0.36937 0.75197 0.0
C854 C 0.05754 0.38536 0.79726 0.0
C855 C 1.0406 0.39766 0.78273 0.0
C856 C 1.04446 0.40808 0.81173 0.0
C857 C 0.06472 0.40582 0.85692 0.0
C858 C 0.07947 0.39322 0.87258 0.0
C859 C 0.07627 0.38291 0.84221 0.0
H860 H 0.56576 0.87114 0.16564 0.0
H861 H 0.62758 0.91101 0.14196 0.0
H862 H 0.60941 0.91566 0.222 0.0
H863 H 0.40342 0.87597 0.24556 0.0
H864 H 0.43539 0.86254 0.27977 0.0
H865 H 0.45515 0.86231 0.22093 0.0
H866 H 0.61939 0.85824 0.23718 0.0
H867 H 0.60006 0.85837 0.2961 0.0
H868 H 0.67971 0.86903 0.2733 0.0
H869 H 0.57379 0.91616 0.30358 0.0
H870 H 0.53797 0.91211 0.38216 0.0
H871 H 0.50837 0.87167 0.35289 0.0
C872 C 0.57593 0.88084 0.17736 0.0
C873 C 0.59771 0.89074 0.14771 0.0
C874 C 0.61123 0.90328 0.16425 0.0
C875 C 0.60071 0.90602 0.20956 0.0
C876 C 0.57807 0.89606 0.23784 0.0
C877 C 0.56721 0.88368 0.2225 0.0
C878 C 0.54402 0.87468 0.25981 0.0
C879 C 0.45416 0.86852 0.25098 0.0
C880 C 0.61504 0.86448 0.26702 0.0
C881 C 0.54215 0.88395 0.29846 0.0
C882 C 0.56126 0.89626 0.28506 0.0
C883 C 0.55972 0.90654 0.31456 0.0
C884 C 0.53885 0.90416 0.35901 0.0
C885 C 0.52094 0.89157 0.37355 0.0
C886 C 0.52283 0.88137 0.34279 0.0
H887 H 0.59361 0.12427 0.13915 0.0
H888 H 0.35302 0.14581 0.12544 0.0
H889 H 0.33697 0.14539 0.2067 0.0
H890 H 0.52848 0.10463 0.23752 0.0
H891 H 0.63585 0.1055 0.26308 0.0
H892 H 0.62285 0.10575 0.20322 0.0
H893 H 0.70933 0.127 0.20061 0.0
H894 H 0.72225 0.12685 0.26034 0.0
H895 H 0.67346 0.14048 0.23281 0.0
H896 H 0.35438 0.14516 0.28789 0.0
H897 H 0.40418 0.14491 0.36645 0.0
H898 H 0.63359 0.12341 0.33065 0.0
C899 C 0.53652 0.12858 0.15335 0.0
C900 C 0.47435 0.13504 0.12614 0.0
C901 C 0.40151 0.14085 0.14577 0.0
C902 C 0.3915 0.1406 0.19186 0.0
C903 C 0.45485 0.13448 0.21797 0.0
C904 C 0.52585 0.12851 0.19968 0.0
C905 C 0.58816 0.12367 0.23598 0.0
C906 C 0.59416 0.10902 0.23488 0.0
C907 C 0.67863 0.12987 0.2322 0.0
C908 C 0.54234 0.12825 0.27727 0.0
C909 C 0.46504 0.13432 0.26586 0.0
C910 C 0.41398 0.14025 0.29742 0.0
C911 C 0.44309 0.14013 0.34188 0.0
C912 C 0.52241 0.1341 0.35447 0.0
C913 C 0.5719 0.12787 0.32189 0.0
H914 H 0.48291 0.12714 0.83025 0.0
H915 H 0.61102 0.16301 0.86482 0.0
H916 H 0.65494 0.16558 0.78727 0.0
H917 H 0.6419 0.11648 0.75216 0.0
H918 H 0.56266 0.10959 0.71382 0.0
H919 H 0.54033 0.11041 0.77237 0.0
H920 H 0.3973 0.12273 0.75466 0.0
H921 H 0.41888 0.12186 0.69606 0.0
H922 H 0.40101 0.13716 0.72192 0.0
H923 H 0.68563 0.16447 0.70654 0.0
H924 H 0.69566 0.16007 0.62616 0.0
H925 H 0.54865 0.12495 0.64298 0.0
C926 C 0.51981 0.13555 0.82144 0.0
C927 C 0.54349 0.14485 0.85376 0.0
C928 C 0.5921 0.15571 0.84082 0.0
C929 C 0.61763 0.15728 0.79679 0.0
C930 C 0.59418 0.1479 0.76591 0.0
C931 C 0.54606 0.13728 0.77744 0.0
C932 C 0.52899 0.12873 0.73737 0.0
C933 C 0.571 0.11552 0.74436 0.0
C934 C 0.43071 0.12756 0.72689 0.0
C935 C 0.5747 0.13626 0.70167 0.0
C936 C 0.61212 0.14726 0.71897 0.0
C937 C 0.65675 0.15587 0.69252 0.0
C938 C 0.66221 0.15328 0.64689 0.0
C939 C 0.62316 0.14216 0.62817 0.0
C940 C 0.57973 0.13349 0.65621 0.0
H941 H 0.47687 0.89776 0.66606 0.0
H942 H 0.45155 0.85701 0.64129 0.0
H943 H 0.47211 0.85287 0.72199 0.0
H944 H 0.64243 0.89609 0.74813 0.0
H945 H 0.60102 0.90884 0.78198 0.0
H946 H 0.57805 0.90868 0.7229 0.0
H947 H 0.41238 0.90965 0.73701 0.0
H948 H 0.43484 0.90995 0.7962 0.0
H949 H 0.36373 0.89788 0.77247 0.0
H950 H 0.51002 0.85314 0.80409 0.0
H951 H 0.54866 0.85781 0.88273 0.0
H952 H 0.54301 0.89848 0.85412 0.0
C953 C 0.4745 0.88796 0.67763 0.0
C954 C 0.46282 0.87769 0.64742 0.0
C955 C 0.45989 0.86502 0.66388 0.0
C956 C 0.47183 0.86258 0.70961 0.0
C957 C 0.48527 0.87293 0.73834 0.0
C958 C 0.48521 0.88538 0.72307 0.0
C959 C 0.50253 0.89478 0.76067 0.0
C960 C 0.58597 0.90255 0.75294 0.0
C961 C 0.42366 0.90358 0.76696 0.0
C962 C 0.51439 0.88566 0.79942 0.0
C963 C 0.50442 0.8731 0.78581 0.0
C964 C 0.51681 0.86294 0.81522 0.0
C965 C 0.53932 0.8657 0.85975 0.0
C966 C 0.54855 0.87851 0.87454 0.0
C967 C 0.53549 0.8886 0.84389 0.0
loop_
_geom_bond_atom_site_label_1
_geom_bond_atom_site_label_2
_geom_bond_distance
_geom_bond_site_symmetry_2
_ccdc_geom_bond_type
Eu0 C9 2.828 . S
Eu0 O11 2.392 1_455 S
Eu0 O13 2.418 . S
Eu0 O18 2.373 . S
Eu0 O21 2.488 . S
Eu0 O22 2.471 1_554 S
Eu0 O23 2.349 1_554 S
Eu1 O10 2.373 1_455 S
Eu1 O14 2.488 . S
Eu1 O15 2.471 1_556 S
Eu1 O16 2.349 1_556 S
Eu1 O19 2.392 . S
Eu1 O20 2.418 . S
Eu1 C30 2.828 1_556 S
C2 O20 1.244 . S
C2 O23 1.265 . S
C3 C4 1.379 . S
C3 C7 1.373 1_556 S
C3 C9 1.505 1_556 S
C4 C3 1.379 . S
C4 C6 1.369 . S
C4 H32 0.930 . S
C5 C7 1.383 . S
C5 C8 1.382 1_554 S
C5 H33 0.930 . S
C6 C4 1.369 . S
C6 C8 1.392 . S
C6 H34 0.930 . S
C7 C3 1.373 1_554 S
C7 C5 1.383 . S
C7 H35 0.931 . S
C8 C5 1.382 1_556 S
C8 C6 1.392 . S
C9 Eu0 2.828 . S
C9 C3 1.505 1_554 S
C9 O21 1.249 . S
C9 O22 1.244 1_554 S
O10 Eu1 2.373 1_655 S
O10 C12 1.258 1_556 S
O11 Eu0 2.392 1_655 S
O11 C12 1.242 . S
C12 O10 1.258 1_554 S
C12 O11 1.242 . S
O13 Eu0 2.418 . S
O13 C17 1.244 . S
O14 Eu1 2.488 . S
O14 C30 1.249 1_556 S
O15 Eu1 2.471 1_554 S
O15 C30 1.244 . S
O16 Eu1 2.349 1_554 S
O16 C17 1.265 . S
C17 O13 1.244 . S
C17 O16 1.265 . S
O18 Eu0 2.373 . S
O18 C31 1.258 . S
O19 Eu1 2.392 . S
O19 C31 1.242 1_556 S
O20 Eu1 2.418 . S
O20 C2 1.244 . S
O21 Eu0 2.488 . S
O21 C9 1.249 . S
O22 Eu0 2.471 1_556 S
O22 C9 1.244 1_556 S
O23 Eu0 2.349 1_556 S
O23 C2 1.265 . S
C24 C25 1.379 . S
C24 C28 1.373 1_554 S
C24 C30 1.505 1_655 S
C25 C24 1.379 . S
C25 C27 1.369 . S
C25 H36 0.930 . S
C26 C28 1.383 . S
C26 C29 1.382 1_556 S
C26 H37 0.930 . S
C27 C25 1.369 . S
C27 C29 1.392 . S
C27 H38 0.930 . S
C28 C24 1.373 1_556 S
C28 C26 1.383 . S
C28 H39 0.931 . S
C29 C26 1.382 1_554 S
C29 C27 1.392 . S
C30 Eu1 2.828 1_554 S
C30 O14 1.249 1_554 S
C30 O15 1.244 . S
C30 C24 1.505 1_455 S
C31 O18 1.258 . S
C31 O19 1.242 1_554 S
H32 C4 0.930 . S
H33 C5 0.930 . S
H34 C6 0.930 . S
H35 C7 0.931 . S
H36 C25 0.930 . S
H37 C26 0.930 . S
H38 C27 0.930 . S
H39 C28 0.931 . S
Eu40 C49 2.828 . S
Eu40 O51 2.392 . S
Eu40 O53 2.418 . S
Eu40 O58 2.373 1_655 S
Eu40 O61 2.488 . S
Eu40 O62 2.471 1_554 S
Eu40 O63 2.349 1_554 S
Eu41 O50 2.373 . S
Eu41 O54 2.488 . S
Eu41 O55 2.471 1_556 S
Eu41 O56 2.349 1_556 S
Eu41 O59 2.392 1_655 S
Eu41 O60 2.418 . S
Eu41 C70 2.828 1_556 S
C42 O60 1.244 . S
C42 O63 1.265 . S
C43 C44 1.379 . S
C43 C47 1.373 1_556 S
C43 C49 1.505 1_456 S
C44 C43 1.379 . S
C44 C46 1.369 . S
C44 H72 0.930 . S
C45 C47 1.383 . S
C45 C48 1.382 1_554 S
C45 H73 0.930 . S
C46 C44 1.369 . S
C46 C48 1.392 . S
C46 H74 0.930 . S
C47 C43 1.373 1_554 S
C47 C45 1.383 . S
C47 H75 0.931 . S
C48 C45 1.382 1_556 S
C48 C46 1.392 . S
C49 Eu40 2.828 . S
C49 C43 1.505 1_654 S
C49 O61 1.249 . S
C49 O62 1.244 1_554 S
O50 Eu41 2.373 . S
O50 C52 1.258 1_556 S
O51 Eu40 2.392 . S
O51 C52 1.242 . S
C52 O50 1.258 1_554 S
C52 O51 1.242 . S
O53 Eu40 2.418 . S
O53 C57 1.244 . S
O54 Eu41 2.488 . S
O54 C70 1.249 1_556 S
O55 Eu41 2.471 1_554 S
O55 C70 1.244 . S
O56 Eu41 2.349 1_554 S
O56 C57 1.265 . S
C57 O53 1.244 . S
C57 O56 1.265 . S
O58 Eu40 2.373 1_455 S
O58 C71 1.258 . S
O59 Eu41 2.392 1_455 S
O59 C71 1.242 1_556 S
O60 Eu41 2.418 . S
O60 C42 1.244 . S
O61 Eu40 2.488 . S
O61 C49 1.249 . S
O62 Eu40 2.471 1_556 S
O62 C49 1.244 1_556 S
O63 Eu40 2.349 1_556 S
O63 C42 1.265 . S
C64 C65 1.379 . S
C64 C68 1.373 1_554 S
C64 C70 1.505 . S
C65 C64 1.379 . S
C65 C67 1.369 . S
C65 H76 0.930 . S
C66 C68 1.383 . S
C66 C69 1.382 1_556 S
C66 H77 0.930 . S
C67 C65 1.369 . S
C67 C69 1.392 . S
C67 H78 0.930 . S
C68 C64 1.373 1_556 S
C68 C66 1.383 . S
C68 H79 0.931 . S
C69 C66 1.382 1_554 S
C69 C67 1.392 . S
C70 Eu41 2.828 1_554 S
C70 O54 1.249 1_554 S
C70 O55 1.244 . S
C70 C64 1.505 . S
C71 O58 1.258 . S
C71 O59 1.242 1_554 S
H72 C44 0.930 . S
H73 C45 0.930 . S
H74 C46 0.930 . S
H75 C47 0.931 . S
H76 C65 0.930 . S
H77 C66 0.930 . S
H78 C67 0.930 . S
H79 C68 0.931 . S
Eu80 C89 2.828 . S
Eu80 O91 2.392 . S
Eu80 O93 2.418 . S
Eu80 O98 2.373 1_455 S
Eu80 O101 2.488 . S
Eu80 O102 2.471 . S
Eu80 O103 2.349 . S
Eu81 O90 2.373 . S
Eu81 O94 2.488 . S
Eu81 O95 2.471 . S
Eu81 O96 2.349 . S
Eu81 O99 2.392 1_455 S
Eu81 O100 2.418 . S
Eu81 C110 2.828 . S
C82 O100 1.244 . S
C82 O103 1.265 . S
C83 C84 1.379 . S
C83 C87 1.373 . S
C83 C89 1.505 1_655 S
C84 C83 1.379 . S
C84 C86 1.369 . S
C84 H112 0.930 . S
C85 C87 1.383 . S
C85 C88 1.382 . S
C85 H113 0.930 . S
C86 C84 1.369 . S
C86 C88 1.392 . S
C86 H114 0.930 . S
C87 C83 1.373 . S
C87 C85 1.383 . S
C87 H115 0.931 . S
C88 C85 1.382 . S
C88 C86 1.392 . S
C89 Eu80 2.828 . S
C89 C83 1.505 1_455 S
C89 O101 1.249 . S
C89 O102 1.244 . S
O90 Eu81 2.373 . S
O90 C92 1.258 . S
O91 Eu80 2.392 . S
O91 C92 1.242 . S
C92 O90 1.258 . S
C92 O91 1.242 . S
O93 Eu80 2.418 . S
O93 C97 1.244 . S
O94 Eu81 2.488 . S
O94 C110 1.249 . S
O95 Eu81 2.471 . S
O95 C110 1.244 . S
O96 Eu81 2.349 . S
O96 C97 1.265 . S
C97 O93 1.244 . S
C97 O96 1.265 . S
O98 Eu80 2.373 1_655 S
O98 C111 1.258 . S
O99 Eu81 2.392 1_655 S
O99 C111 1.242 . S
O100 Eu81 2.418 . S
O100 C82 1.244 . S
O101 Eu80 2.488 . S
O101 C89 1.249 . S
O102 Eu80 2.471 . S
O102 C89 1.244 . S
O103 Eu80 2.349 . S
O103 C82 1.265 . S
C104 C105 1.379 . S
C104 C108 1.373 . S
C104 C110 1.505 . S
C105 C104 1.379 . S
C105 C107 1.369 . S
C105 H116 0.930 . S
C106 C108 1.383 . S
C106 C109 1.382 . S
C106 H117 0.930 . S
C107 C105 1.369 . S
C107 C109 1.392 . S
C107 H118 0.930 . S
C108 C104 1.373 . S
C108 C106 1.383 . S
C108 H119 0.931 . S
C109 C106 1.382 . S
C109 C107 1.392 . S
C110 Eu81 2.828 . S
C110 O94 1.249 . S
C110 O95 1.244 . S
C110 C104 1.505 . S
C111 O98 1.258 . S
C111 O99 1.242 . S
H112 C84 0.930 . S
H113 C85 0.930 . S
H114 C86 0.930 . S
H115 C87 0.931 . S
H116 C105 0.930 . S
H117 C106 0.930 . S
H118 C107 0.930 . S
H119 C108 0.931 . S
Eu120 C129 2.828 . S
Eu120 O131 2.392 1_655 S
Eu120 O133 2.418 . S
Eu120 O138 2.373 . S
Eu120 O141 2.488 . S
Eu120 O142 2.471 . S
Eu120 O143 2.349 . S
Eu121 O130 2.373 1_655 S
Eu121 O134 2.488 . S
Eu121 O135 2.471 . S
Eu121 O136 2.349 . S
Eu121 O139 2.392 . S
Eu121 O140 2.418 . S
Eu121 C150 2.828 . S
C122 O140 1.244 . S
C122 O143 1.265 . S
C123 C124 1.379 . S
C123 C127 1.373 . S
C123 C129 1.505 . S
C124 C123 1.379 . S
C124 C126 1.369 . S
C124 H152 0.930 . S
C125 C127 1.383 . S
C125 C128 1.382 . S
C125 H153 0.930 . S
C126 C124 1.369 . S
C126 C128 1.392 . S
C126 H154 0.930 . S
C127 C123 1.373 . S
C127 C125 1.383 . S
C127 H155 0.931 . S
C128 C125 1.382 . S
C128 C126 1.392 . S
C129 Eu120 2.828 . S
C129 C123 1.505 . S
C129 O141 1.249 . S
C129 O142 1.244 . S
O130 Eu121 2.373 1_455 S
O130 C132 1.258 . S
O131 Eu120 2.392 1_455 S
O131 C132 1.242 . S
C132 O130 1.258 . S
C132 O131 1.242 . S
O133 Eu120 2.418 . S
O133 C137 1.244 . S
O134 Eu121 2.488 . S
O134 C150 1.249 . S
O135 Eu121 2.471 . S
O135 C150 1.244 . S
O136 Eu121 2.349 . S
O136 C137 1.265 . S
C137 O133 1.244 . S
C137 O136 1.265 . S
O138 Eu120 2.373 . S
O138 C151 1.258 . S
O139 Eu121 2.392 . S
O139 C151 1.242 . S
O140 Eu121 2.418 . S
O140 C122 1.244 . S
O141 Eu120 2.488 . S
O141 C129 1.249 . S
O142 Eu120 2.471 . S
O142 C129 1.244 . S
O143 Eu120 2.349 . S
O143 C122 1.265 . S
C144 C145 1.379 . S
C144 C148 1.373 . S
C144 C150 1.505 1_455 S
C145 C144 1.379 . S
C145 C147 1.369 . S
C145 H156 0.930 . S
C146 C148 1.383 . S
C146 C149 1.382 . S
C146 H157 0.930 . S
C147 C145 1.369 . S
C147 C149 1.392 . S
C147 H158 0.930 . S
C148 C144 1.373 . S
C148 C146 1.383 . S
C148 H159 0.931 . S
C149 C146 1.382 . S
C149 C147 1.392 . S
C150 Eu121 2.828 . S
C150 O134 1.249 . S
C150 O135 1.244 . S
C150 C144 1.505 1_655 S
C151 O138 1.258 . S
C151 O139 1.242 . S
H152 C124 0.930 . S
H153 C125 0.930 . S
H154 C126 0.930 . S
H155 C127 0.931 . S
H156 C145 0.930 . S
H157 C146 0.930 . S
H158 C147 0.930 . S
H159 C148 0.931 . S
Eu160 C169 2.828 . S
Eu160 O171 2.392 . S
Eu160 O173 2.418 . S
Eu160 O178 2.373 . S
Eu160 O181 2.488 . S
Eu160 O182 2.471 1_554 S
Eu160 O183 2.349 1_554 S
Eu161 O170 2.373 . S
Eu161 O174 2.488 . S
Eu161 O175 2.471 1_556 S
Eu161 O176 2.349 1_556 S
Eu161 O179 2.392 . S
Eu161 O180 2.418 . S
Eu161 C190 2.828 1_556 S
C162 O180 1.244 . S
C162 O183 1.265 . S
C163 C164 1.379 . S
C163 C167 1.373 1_556 S
C163 C169 1.505 1_556 S
C164 C163 1.379 . S
C164 C166 1.369 . S
C164 H192 0.930 . S
C165 C167 1.383 . S
C165 C168 1.382 1_554 S
C165 H193 0.930 . S
C166 C164 1.369 . S
C166 C168 1.392 . S
C166 H194 0.930 . S
C167 C163 1.373 1_554 S
C167 C165 1.383 . S
C167 H195 0.931 . S
C168 C165 1.382 1_556 S
C168 C166 1.392 . S
C169 Eu160 2.828 . S
C169 C163 1.505 1_554 S
C169 O181 1.249 . S
C169 O182 1.244 1_554 S
O170 Eu161 2.373 . S
O170 C172 1.258 1_556 S
O171 Eu160 2.392 . S
O171 C172 1.242 . S
C172 O170 1.258 1_554 S
C172 O171 1.242 . S
O173 Eu160 2.418 . S
O173 C177 1.244 . S
O174 Eu161 2.488 . S
O174 C190 1.249 1_556 S
O175 Eu161 2.471 1_554 S
O175 C190 1.244 . S
O176 Eu161 2.349 1_554 S
O176 C177 1.265 . S
C177 O173 1.244 . S
C177 O176 1.265 . S
O178 Eu160 2.373 . S
O178 C191 1.258 . S
O179 Eu161 2.392 . S
O179 C191 1.242 1_556 S
O180 Eu161 2.418 . S
O180 C162 1.244 . S
O181 Eu160 2.488 . S
O181 C169 1.249 . S
O182 Eu160 2.471 1_556 S
O182 C169 1.244 1_556 S
O183 Eu160 2.349 1_556 S
O183 C162 1.265 . S
C184 C185 1.379 . S
C184 C188 1.373 1_554 S
C184 C190 1.505 . S
C185 C184 1.379 . S
C185 C187 1.369 . S
C185 H196 0.930 . S
C186 C188 1.383 . S
C186 C189 1.382 1_556 S
C186 H197 0.930 . S
C187 C185 1.369 . S
C187 C189 1.392 . S
C187 H198 0.930 . S
C188 C184 1.373 1_556 S
C188 C186 1.383 . S
C188 H199 0.931 . S
C189 C186 1.382 1_554 S
C189 C187 1.392 . S
C190 Eu161 2.828 1_554 S
C190 O174 1.249 1_554 S
C190 O175 1.244 . S
C190 C184 1.505 . S
C191 O178 1.258 . S
C191 O179 1.242 1_554 S
H192 C164 0.930 . S
H193 C165 0.930 . S
H194 C166 0.930 . S
H195 C167 0.931 . S
H196 C185 0.930 . S
H197 C186 0.930 . S
H198 C187 0.930 . S
H199 C188 0.931 . S
Eu200 C209 2.828 . S
Eu200 O211 2.392 . S
Eu200 O213 2.418 . S
Eu200 O218 2.373 . S
Eu200 O221 2.488 . S
Eu200 O222 2.471 1_554 S
Eu200 O223 2.349 1_554 S
Eu201 O210 2.373 . S
Eu201 O214 2.488 . S
Eu201 O215 2.471 1_556 S
Eu201 O216 2.349 1_556 S
Eu201 O219 2.392 . S
Eu201 O220 2.418 . S
Eu201 C230 2.828 1_556 S
C202 O220 1.244 . S
C202 O223 1.265 . S
C203 C204 1.379 . S
C203 C207 1.373 1_556 S
C203 C209 1.505 1_556 S
C204 C203 1.379 . S
C204 C206 1.369 . S
C204 H232 0.930 . S
C205 C207 1.383 . S
C205 C208 1.382 1_554 S
C205 H233 0.930 . S
C206 C204 1.369 . S
C206 C208 1.392 . S
C206 H234 0.930 . S
C207 C203 1.373 1_554 S
C207 C205 1.383 . S
C207 H235 0.931 . S
C208 C205 1.382 1_556 S
C208 C206 1.392 . S
C209 Eu200 2.828 . S
C209 C203 1.505 1_554 S
C209 O221 1.249 . S
C209 O222 1.244 1_554 S
O210 Eu201 2.373 . S
O210 C212 1.258 1_556 S
O211 Eu200 2.392 . S
O211 C212 1.242 . S
C212 O210 1.258 1_554 S
C212 O211 1.242 . S
O213 Eu200 2.418 . S
O213 C217 1.244 . S
O214 Eu201 2.488 . S
O214 C230 1.249 1_556 S
O215 Eu201 2.471 1_554 S
O215 C230 1.244 . S
O216 Eu201 2.349 1_554 S
O216 C217 1.265 . S
C217 O213 1.244 . S
C217 O216 1.265 . S
O218 Eu200 2.373 . S
O218 C231 1.258 . S
O219 Eu201 2.392 . S
O219 C231 1.242 1_556 S
O220 Eu201 2.418 . S
O220 C202 1.244 . S
O221 Eu200 2.488 . S
O221 C209 1.249 . S
O222 Eu200 2.471 1_556 S
O222 C209 1.244 1_556 S
O223 Eu200 2.349 1_556 S
O223 C202 1.265 . S
C224 C225 1.379 . S
C224 C228 1.373 1_554 S
C224 C230 1.505 . S
C225 C224 1.379 . S
C225 C227 1.369 . S
C225 H236 0.930 . S
C226 C228 1.383 . S
C226 C229 1.382 1_556 S
C226 H237 0.930 . S
C227 C225 1.369 . S
C227 C229 1.392 . S
C227 H238 0.930 . S
C228 C224 1.373 1_556 S
C228 C226 1.383 . S
C228 H239 0.931 . S
C229 C226 1.382 1_554 S
C229 C227 1.392 . S
C230 Eu201 2.828 1_554 S
C230 O214 1.249 1_554 S
C230 O215 1.244 . S
C230 C224 1.505 . S
C231 O218 1.258 . S
C231 O219 1.242 1_554 S
H232 C204 0.930 . S
H233 C205 0.930 . S
H234 C206 0.930 . S
H235 C207 0.931 . S
H236 C225 0.930 . S
H237 C226 0.930 . S
H238 C227 0.930 . S
H239 C228 0.931 . S
Eu240 C249 2.828 . S
Eu240 O251 2.392 . S
Eu240 O253 2.418 . S
Eu240 O258 2.373 . S
Eu240 O261 2.488 . S
Eu240 O262 2.471 . S
Eu240 O263 2.349 . S
Eu241 O250 2.373 . S
Eu241 O254 2.488 . S
Eu241 O255 2.471 . S
Eu241 O256 2.349 . S
Eu241 O259 2.392 . S
Eu241 O260 2.418 . S
Eu241 C270 2.828 . S
C242 O260 1.244 . S
C242 O263 1.265 . S
C243 C244 1.379 . S
C243 C247 1.373 . S
C243 C249 1.505 . S
C244 C243 1.379 . S
C244 C246 1.369 . S
C244 H272 0.930 . S
C245 C247 1.383 . S
C245 C248 1.382 . S
C245 H273 0.930 . S
C246 C244 1.369 . S
C246 C248 1.392 . S
C246 H274 0.930 . S
C247 C243 1.373 . S
C247 C245 1.383 . S
C247 H275 0.931 . S
C248 C245 1.382 . S
C248 C246 1.392 . S
C249 Eu240 2.828 . S
C249 C243 1.505 . S
C249 O261 1.249 . S
C249 O262 1.244 . S
O250 Eu241 2.373 . S
O250 C252 1.258 . S
O251 Eu240 2.392 . S
O251 C252 1.242 . S
C252 O250 1.258 . S
C252 O251 1.242 . S
O253 Eu240 2.418 . S
O253 C257 1.244 . S
O254 Eu241 2.488 . S
O254 C270 1.249 . S
O255 Eu241 2.471 . S
O255 C270 1.244 . S
O256 Eu241 2.349 . S
O256 C257 1.265 . S
C257 O253 1.244 . S
C257 O256 1.265 . S
O258 Eu240 2.373 . S
O258 C271 1.258 . S
O259 Eu241 2.392 . S
O259 C271 1.242 . S
O260 Eu241 2.418 . S
O260 C242 1.244 . S
O261 Eu240 2.488 . S
O261 C249 1.249 . S
O262 Eu240 2.471 . S
O262 C249 1.244 . S
O263 Eu240 2.349 . S
O263 C242 1.265 . S
C264 C265 1.379 . S
C264 C268 1.373 . S
C264 C270 1.505 . S
C265 C264 1.379 . S
C265 C267 1.369 . S
C265 H276 0.930 . S
C266 C268 1.383 . S
C266 C269 1.382 . S
C266 H277 0.930 . S
C267 C265 1.369 . S
C267 C269 1.392 . S
C267 H278 0.930 . S
C268 C264 1.373 . S
C268 C266 1.383 . S
C268 H279 0.931 . S
C269 C266 1.382 . S
C269 C267 1.392 . S
C270 Eu241 2.828 . S
C270 O254 1.249 . S
C270 O255 1.244 . S
C270 C264 1.505 . S
C271 O258 1.258 . S
C271 O259 1.242 . S
H272 C244 0.930 . S
H273 C245 0.930 . S
H274 C246 0.930 . S
H275 C247 0.931 . S
H276 C265 0.930 . S
H277 C266 0.930 . S
H278 C267 0.930 . S
H279 C268 0.931 . S
Eu280 C289 2.828 . S
Eu280 O291 2.392 . S
Eu280 O293 2.418 . S
Eu280 O298 2.373 . S
Eu280 O301 2.488 . S
Eu280 O302 2.471 . S
Eu280 O303 2.349 . S
Eu281 O290 2.373 . S
Eu281 O294 2.488 . S
Eu281 O295 2.471 . S
Eu281 O296 2.349 . S
Eu281 O299 2.392 . S
Eu281 O300 2.418 . S
Eu281 C310 2.828 . S
C282 O300 1.244 . S
C282 O303 1.265 . S
C283 C284 1.379 . S
C283 C287 1.373 . S
C283 C289 1.505 . S
C284 C283 1.379 . S
C284 C286 1.369 . S
C284 H312 0.930 . S
C285 C287 1.383 . S
C285 C288 1.382 . S
C285 H313 0.930 . S
C286 C284 1.369 . S
C286 C288 1.392 . S
C286 H314 0.930 . S
C287 C283 1.373 . S
C287 C285 1.383 . S
C287 H315 0.931 . S
C288 C285 1.382 . S
C288 C286 1.392 . S
C289 Eu280 2.828 . S
C289 C283 1.505 . S
C289 O301 1.249 . S
C289 O302 1.244 . S
O290 Eu281 2.373 . S
O290 C292 1.258 . S
O291 Eu280 2.392 . S
O291 C292 1.242 . S
C292 O290 1.258 . S
C292 O291 1.242 . S
O293 Eu280 2.418 . S
O293 C297 1.244 . S
O294 Eu281 2.488 . S
O294 C310 1.249 . S
O295 Eu281 2.471 . S
O295 C310 1.244 . S
O296 Eu281 2.349 . S
O296 C297 1.265 . S
C297 O293 1.244 . S
C297 O296 1.265 . S
O298 Eu280 2.373 . S
O298 C311 1.258 . S
O299 Eu281 2.392 . S
O299 C311 1.242 . S
O300 Eu281 2.418 . S
O300 C282 1.244 . S
O301 Eu280 2.488 . S
O301 C289 1.249 . S
O302 Eu280 2.471 . S
O302 C289 1.244 . S
O303 Eu280 2.349 . S
O303 C282 1.265 . S
C304 C305 1.379 . S
C304 C308 1.373 . S
C304 C310 1.505 . S
C305 C304 1.379 . S
C305 C307 1.369 . S
C305 H316 0.930 . S
C306 C308 1.383 . S
C306 C309 1.382 . S
C306 H317 0.930 . S
C307 C305 1.369 . S
C307 C309 1.392 . S
C307 H318 0.930 . S
C308 C304 1.373 . S
C308 C306 1.383 . S
C308 H319 0.931 . S
C309 C306 1.382 . S
C309 C307 1.392 . S
C310 Eu281 2.828 . S
C310 O294 1.249 . S
C310 O295 1.244 . S
C310 C304 1.505 . S
C311 O298 1.258 . S
C311 O299 1.242 . S
H312 C284 0.930 . S
H313 C285 0.930 . S
H314 C286 0.930 . S
H315 C287 0.931 . S
H316 C305 0.930 . S
H317 C306 0.930 . S
H318 C307 0.930 . S
H319 C308 0.931 . S
H320 C332 0.930 . S
H321 C334 0.930 . S
H322 C335 0.930 . S
H323 C339 0.959 . S
H324 C339 0.959 . S
H325 C339 0.961 . S
H326 C340 0.960 . S
H327 C340 0.961 . S
H328 C340 0.959 . S
H329 C343 0.929 . S
H330 C344 0.931 . S
H331 C346 0.930 . S
C332 H320 0.930 . S
C332 C333 1.399 1_556 S
C332 C337 1.399 . S
C333 C332 1.399 1_554 S
C333 C334 1.376 . S
C334 H321 0.930 . S
C334 C333 1.376 . S
C334 C335 1.388 . S
C335 H322 0.930 . S
C335 C334 1.388 . S
C335 C336 1.390 . S
C336 C335 1.390 . S
C336 C337 1.394 1_554 S
C336 C342 1.465 . S
C337 C332 1.399 . S
C337 C336 1.394 1_556 S
C337 C338 1.516 . S
C338 C337 1.516 . S
C338 C339 1.502 . S
C338 C340 1.561 . S
C338 C341 1.526 . S
C339 H323 0.959 . S
C339 H324 0.959 . S
C339 H325 0.961 . S
C339 C338 1.502 . S
C340 H326 0.960 . S
C340 H327 0.961 . S
C340 H328 0.959 . S
C340 C338 1.561 . S
C341 C338 1.526 . S
C341 C342 1.396 1_556 S
C341 C346 1.390 . S
C342 C336 1.465 . S
C342 C341 1.396 1_554 S
C342 C343 1.399 . S
C343 H329 0.929 . S
C343 C342 1.399 . S
C343 C344 1.385 . S
C344 H330 0.931 . S
C344 C343 1.385 . S
C344 C345 1.389 . S
C345 C344 1.389 . S
C345 C346 1.387 1_554 S
C346 H331 0.930 . S
C346 C341 1.390 . S
C346 C345 1.387 1_556 S
H347 C359 0.930 . S
H348 C361 0.930 . S
H349 C362 0.930 . S
H350 C366 0.959 . S
H351 C366 0.959 . S
H352 C366 0.961 . S
H353 C367 0.960 . S
H354 C367 0.955 1_556 S
H355 C367 0.959 . S
H356 C370 0.929 . S
H357 C371 0.931 . S
H358 C373 0.930 . S
C359 H347 0.930 . S
C359 C360 1.399 1_556 S
C359 C364 1.399 . S
C360 C359 1.399 1_554 S
C360 C361 1.376 . S
C361 H348 0.930 . S
C361 C360 1.376 . S
C361 C362 1.388 . S
C362 H349 0.930 . S
C362 C361 1.388 . S
C362 C363 1.390 . S
C363 C362 1.390 . S
C363 C364 1.394 1_554 S
C363 C369 1.465 . S
C364 C359 1.399 . S
C364 C363 1.394 1_556 S
C364 C365 1.516 . S
C365 C364 1.516 . S
C365 C366 1.502 . S
C365 C367 1.561 1_556 S
C365 C368 1.526 . S
C366 H350 0.959 . S
C366 H351 0.959 . S
C366 H352 0.961 . S
C366 C365 1.502 . S
C367 H353 0.960 . S
C367 H354 0.955 1_554 S
C367 H355 0.959 . S
C367 C365 1.561 1_554 S
C368 C365 1.526 . S
C368 C369 1.396 1_556 S
C368 C373 1.390 . S
C369 C363 1.465 . S
C369 C368 1.396 1_554 S
C369 C370 1.399 . S
C370 H356 0.929 . S
C370 C369 1.399 . S
C370 C371 1.385 . S
C371 H357 0.931 . S
C371 C370 1.385 . S
C371 C372 1.389 . S
C372 C371 1.389 . S
C372 C373 1.387 1_554 S
C373 H358 0.930 . S
C373 C368 1.390 . S
C373 C372 1.387 1_556 S
H374 C386 0.930 . S
H375 C388 0.930 . S
H376 C389 0.930 . S
H377 C393 0.959 . S
H378 C393 0.959 . S
H379 C393 0.961 . S
H380 C394 0.960 . S
H381 C394 0.961 . S
H382 C394 0.959 . S
H383 C397 0.929 . S
H384 C398 0.931 . S
H385 C400 0.930 . S
C386 H374 0.930 . S
C386 C387 1.399 . S
C386 C391 1.399 . S
C387 C386 1.399 . S
C387 C388 1.376 . S
C388 H375 0.930 . S
C388 C387 1.376 . S
C388 C389 1.388 . S
C389 H376 0.930 . S
C389 C388 1.388 . S
C389 C390 1.390 . S
C390 C389 1.390 . S
C390 C391 1.394 . S
C390 C396 1.465 . S
C391 C386 1.399 . S
C391 C390 1.394 . S
C391 C392 1.516 . S
C392 C391 1.516 . S
C392 C393 1.502 . S
C392 C394 1.561 . S
C392 C395 1.526 . S
C393 H377 0.959 . S
C393 H378 0.959 . S
C393 H379 0.961 . S
C393 C392 1.502 . S
C394 H380 0.960 . S
C394 H381 0.961 . S
C394 H382 0.959 . S
C394 C392 1.561 . S
C395 C392 1.526 . S
C395 C396 1.396 . S
C395 C400 1.390 . S
C396 C390 1.465 . S
C396 C395 1.396 . S
C396 C397 1.399 . S
C397 H383 0.929 . S
C397 C396 1.399 . S
C397 C398 1.385 . S
C398 H384 0.931 . S
C398 C397 1.385 . S
C398 C399 1.389 . S
C399 C398 1.389 . S
C399 C400 1.387 . S
C400 H385 0.930 . S
C400 C395 1.390 . S
C400 C399 1.387 . S
H401 C413 0.930 . S
H402 C415 0.930 . S
H403 C416 0.930 . S
H404 C420 0.959 . S
H405 C420 0.959 . S
H406 C420 0.961 . S
H407 C421 0.960 . S
H408 C421 0.961 . S
H409 C421 0.959 . S
H410 C424 0.929 . S
H411 C425 0.931 . S
H412 C427 0.930 . S
C413 H401 0.930 . S
C413 C414 1.399 . S
C413 C418 1.399 . S
C414 C413 1.399 . S
C414 C415 1.376 . S
C415 H402 0.930 . S
C415 C414 1.376 . S
C415 C416 1.388 . S
C416 H403 0.930 . S
C416 C415 1.388 . S
C416 C417 1.390 . S
C417 C416 1.390 . S
C417 C418 1.394 . S
C417 C423 1.465 . S
C418 C413 1.399 . S
C418 C417 1.394 . S
C418 C419 1.516 . S
C419 C418 1.516 . S
C419 C420 1.502 . S
C419 C421 1.561 . S
C419 C422 1.526 . S
C420 H404 0.959 . S
C420 H405 0.959 . S
C420 H406 0.961 . S
C420 C419 1.502 . S
C421 H407 0.960 . S
C421 H408 0.961 . S
C421 H409 0.959 . S
C421 C419 1.561 . S
C422 C419 1.526 . S
C422 C423 1.396 . S
C422 C427 1.390 . S
C423 C417 1.465 . S
C423 C422 1.396 . S
C423 C424 1.399 . S
C424 H410 0.929 . S
C424 C423 1.399 . S
C424 C425 1.385 . S
C425 H411 0.931 . S
C425 C424 1.385 . S
C425 C426 1.389 . S
C426 C425 1.389 . S
C426 C427 1.387 . S
C427 H412 0.930 . S
C427 C422 1.390 . S
C427 C426 1.387 . S
H428 C440 0.930 . S
H429 C442 0.930 . S
H430 C443 0.930 . S
H431 C447 0.959 . S
H432 C447 0.959 . S
H433 C447 0.961 . S
H434 C448 0.960 . S
H435 C448 0.961 . S
H436 C448 0.959 . S
H437 C451 0.929 . S
H438 C452 0.931 . S
H439 C454 0.930 . S
C440 H428 0.930 . S
C440 C441 1.399 . S
C440 C445 1.399 . S
C441 C440 1.399 . S
C441 C442 1.376 1_554 S
C442 H429 0.930 . S
C442 C441 1.376 1_556 S
C442 C443 1.388 . S
C443 H430 0.930 . S
C443 C442 1.388 . S
C443 C444 1.390 1_655 S
C444 C443 1.390 1_455 S
C444 C445 1.394 1_456 S
C444 C450 1.465 . S
C445 C440 1.399 . S
C445 C444 1.394 1_654 S
C445 C446 1.516 1_655 S
C446 C445 1.516 1_455 S
C446 C447 1.502 . S
C446 C448 1.561 . S
C446 C449 1.526 . S
C447 H431 0.959 . S
C447 H432 0.959 . S
C447 H433 0.961 . S
C447 C446 1.502 . S
C448 H434 0.960 . S
C448 H435 0.961 . S
C448 H436 0.959 . S
C448 C446 1.561 . S
C449 C446 1.526 . S
C449 C450 1.396 1_554 S
C449 C454 1.390 . S
C450 C444 1.465 . S
C450 C449 1.396 1_556 S
C450 C451 1.399 . S
C451 H437 0.929 . S
C451 C450 1.399 . S
C451 C452 1.385 . S
C452 H438 0.931 . S
C452 C451 1.385 . S
C452 C453 1.389 . S
C453 C452 1.389 . S
C453 C454 1.387 1_556 S
C454 H439 0.930 . S
C454 C449 1.390 . S
C454 C453 1.387 1_554 S
H455 C467 0.930 . S
H456 C469 0.930 . S
H457 C470 0.930 . S
H458 C474 0.959 . S
H459 C474 0.959 . S
H460 C474 0.963 . S
H461 C475 0.960 . S
H462 C475 0.961 . S
H463 C475 0.959 . S
H464 C478 0.929 . S
H465 C479 0.931 . S
H466 C481 0.930 . S
C467 H455 0.930 . S
C467 C468 1.399 1_554 S
C467 C472 1.399 . S
C468 C467 1.399 1_556 S
C468 C469 1.376 . S
C469 H456 0.930 . S
C469 C468 1.376 . S
C469 C470 1.388 . S
C470 H457 0.930 . S
C470 C469 1.388 . S
C470 C471 1.390 1_455 S
C471 C470 1.390 1_655 S
C471 C472 1.394 1_656 S
C471 C477 1.465 . S
C472 C467 1.399 . S
C472 C471 1.394 1_454 S
C472 C473 1.516 1_455 S
C473 C472 1.516 1_655 S
C473 C474 1.502 . S
C473 C475 1.561 . S
C473 C476 1.526 . S
C474 H458 0.959 . S
C474 H459 0.959 . S
C474 H460 0.963 . S
C474 C473 1.502 . S
C475 H461 0.960 . S
C475 H462 0.961 . S
C475 H463 0.959 . S
C475 C473 1.561 . S
C476 C473 1.526 . S
C476 C477 1.396 1_554 S
C476 C481 1.390 . S
C477 C471 1.465 . S
C477 C476 1.396 1_556 S
C477 C478 1.399 . S
C478 H464 0.929 . S
C478 C477 1.399 . S
C478 C479 1.385 . S
C479 H465 0.931 . S
C479 C478 1.385 . S
C479 C480 1.389 1_556 S
C480 C479 1.389 1_554 S
C480 C481 1.387 . S
C481 H466 0.930 . S
C481 C476 1.390 . S
C481 C480 1.387 . S
H482 C494 0.930 . S
H483 C496 0.930 . S
H484 C497 0.930 . S
H485 C501 0.959 . S
H486 C501 0.959 . S
H487 C501 0.961 . S
H488 C502 0.960 . S
H489 C502 0.961 . S
H490 C502 0.959 . S
H491 C505 0.929 . S
H492 C506 0.931 . S
H493 C508 0.930 . S
C494 H482 0.930 . S
C494 C495 1.399 . S
C494 C499 1.399 . S
C495 C494 1.399 . S
C495 C496 1.376 . S
C496 H483 0.930 . S
C496 C495 1.376 . S
C496 C497 1.388 . S
C497 H484 0.930 . S
C497 C496 1.388 . S
C497 C498 1.390 . S
C498 C497 1.390 . S
C498 C499 1.394 . S
C498 C504 1.465 . S
C499 C494 1.399 . S
C499 C498 1.394 . S
C499 C500 1.516 . S
C500 C499 1.516 . S
C500 C501 1.502 . S
C500 C502 1.561 . S
C500 C503 1.526 1_455 S
C501 H485 0.959 . S
C501 H486 0.959 . S
C501 H487 0.961 . S
C501 C500 1.502 . S
C502 H488 0.960 . S
C502 H489 0.961 . S
C502 H490 0.959 . S
C502 C500 1.561 . S
C503 C500 1.526 1_655 S
C503 C504 1.396 1_655 S
C503 C508 1.390 . S
C504 C498 1.465 . S
C504 C503 1.396 1_455 S
C504 C505 1.399 1_455 S
C505 H491 0.929 . S
C505 C504 1.399 1_655 S
C505 C506 1.385 . S
C506 H492 0.931 . S
C506 C505 1.385 . S
C506 C507 1.389 . S
C507 C506 1.389 . S
C507 C508 1.387 . S
C508 H493 0.930 . S
C508 C503 1.390 . S
C508 C507 1.387 . S
H509 C521 0.930 . S
H510 C523 0.930 . S
H511 C524 0.930 . S
H512 C528 0.959 . S
H513 C528 0.959 1_455 S
H514 C528 0.961 . S
H515 C529 0.960 . S
H516 C529 0.961 1_455 S
H517 C529 0.959 . S
H518 C532 0.929 1_655 S
H519 C533 0.931 . S
H520 C535 0.930 . S
C521 H509 0.930 . S
C521 C522 1.399 . S
C521 C526 1.399 . S
C522 C521 1.399 . S
C522 C523 1.376 . S
C523 H510 0.930 . S
C523 C522 1.376 . S
C523 C524 1.388 . S
C524 H511 0.930 . S
C524 C523 1.388 . S
C524 C525 1.390 . S
C525 C524 1.390 . S
C525 C526 1.394 . S
C525 C531 1.465 . S
C526 C521 1.399 . S
C526 C525 1.394 . S
C526 C527 1.516 . S
C527 C526 1.516 . S
C527 C528 1.502 . S
C527 C529 1.561 . S
C527 C530 1.526 1_655 S
C528 H512 0.959 . S
C528 H513 0.959 1_655 S
C528 H514 0.961 . S
C528 C527 1.502 . S
C529 H515 0.960 . S
C529 H516 0.961 1_655 S
C529 H517 0.959 . S
C529 C527 1.561 . S
C530 C527 1.526 1_455 S
C530 C531 1.396 1_455 S
C530 C535 1.390 . S
C531 C525 1.465 . S
C531 C530 1.396 1_655 S
C531 C532 1.399 1_655 S
C532 H518 0.929 1_455 S
C532 C531 1.399 1_455 S
C532 C533 1.385 . S
C533 H519 0.931 . S
C533 C532 1.385 . S
C533 C534 1.389 . S
C534 C533 1.389 . S
C534 C535 1.387 . S
C535 H520 0.930 . S
C535 C530 1.390 . S
C535 C534 1.387 . S
H536 C548 0.930 . S
H537 C550 0.930 . S
H538 C551 0.930 1_655 S
H539 C555 0.959 . S
H540 C555 0.959 . S
H541 C555 0.961 . S
H542 C556 0.960 . S
H543 C556 0.961 . S
H544 C556 0.959 . S
H545 C559 0.929 . S
H546 C560 0.931 . S
H547 C562 0.930 . S
C548 H536 0.930 . S
C548 C549 1.399 1_554 S
C548 C553 1.399 . S
C549 C548 1.399 1_556 S
C549 C550 1.376 . S
C550 H537 0.930 . S
C550 C549 1.376 . S
C550 C551 1.388 . S
C551 H538 0.930 1_455 S
C551 C550 1.388 . S
C551 C552 1.390 . S
C552 C551 1.390 . S
C552 C553 1.394 1_556 S
C552 C558 1.465 1_455 S
C553 C548 1.399 . S
C553 C552 1.394 1_554 S
C553 C554 1.516 . S
C554 C553 1.516 . S
C554 C555 1.502 . S
C554 C556 1.561 1_455 S
C554 C557 1.526 1_455 S
C555 H539 0.959 . S
C555 H540 0.959 . S
C555 H541 0.961 . S
C555 C554 1.502 . S
C556 H542 0.960 . S
C556 H543 0.961 . S
C556 H544 0.959 . S
C556 C554 1.561 1_655 S
C557 C554 1.526 1_655 S
C557 C558 1.396 1_554 S
C557 C562 1.390 . S
C558 C552 1.465 1_655 S
C558 C557 1.396 1_556 S
C558 C559 1.399 . S
C559 H545 0.929 . S
C559 C558 1.399 . S
C559 C560 1.385 . S
C560 H546 0.931 . S
C560 C559 1.385 . S
C560 C561 1.389 1_556 S
C561 C560 1.389 1_554 S
C561 C562 1.387 . S
C562 H547 0.930 . S
C562 C557 1.390 . S
C562 C561 1.387 . S
H563 C575 0.930 . S
H564 C577 0.930 . S
H565 C578 0.930 1_655 S
H566 C582 0.959 1_655 S
H567 C582 0.959 . S
H568 C582 0.961 . S
H569 C583 0.960 . S
H570 C583 0.961 . S
H571 C583 0.959 . S
H572 C586 0.929 . S
H573 C587 0.931 . S
H574 C589 0.930 . S
C575 H563 0.930 . S
C575 C576 1.399 . S
C575 C580 1.399 . S
C576 C575 1.399 . S
C576 C577 1.376 . S
C577 H564 0.930 . S
C577 C576 1.376 . S
C577 C578 1.388 . S
C578 H565 0.930 1_455 S
C578 C577 1.388 . S
C578 C579 1.390 . S
C579 C578 1.390 . S
C579 C580 1.394 . S
C579 C585 1.465 1_455 S
C580 C575 1.399 . S
C580 C579 1.394 . S
C580 C581 1.516 . S
C581 C580 1.516 . S
C581 C582 1.502 . S
C581 C583 1.561 . S
C581 C584 1.526 1_455 S
C582 H566 0.959 1_455 S
C582 H567 0.959 . S
C582 H568 0.961 . S
C582 C581 1.502 . S
C583 H569 0.960 . S
C583 H570 0.961 . S
C583 H571 0.959 . S
C583 C581 1.561 . S
C584 C581 1.526 1_655 S
C584 C585 1.396 . S
C584 C589 1.390 . S
C585 C579 1.465 1_655 S
C585 C584 1.396 . S
C585 C586 1.399 . S
C586 H572 0.929 . S
C586 C585 1.399 . S
C586 C587 1.385 . S
C587 H573 0.931 . S
C587 C586 1.385 . S
C587 C588 1.389 . S
C588 C587 1.389 . S
C588 C589 1.387 . S
C589 H574 0.930 . S
C589 C584 1.390 . S
C589 C588 1.387 . S
H590 C602 0.930 . S
H591 C604 0.930 . S
H592 C605 0.930 . S
H593 C609 0.959 . S
H594 C609 0.959 . S
H595 C609 0.961 . S
H596 C610 0.913 1_565 S
H597 C610 1.026 . S
H598 C610 0.932 1_565 S
H599 C613 0.929 . S
H600 C614 0.931 . S
H601 C616 0.930 . S
C602 H590 0.930 . S
C602 C603 1.399 . S
C602 C607 1.399 . S
C603 C602 1.399 . S
C603 C604 1.376 1_554 S
C604 H591 0.930 . S
C604 C603 1.376 1_556 S
C604 C605 1.388 . S
C605 H592 0.930 . S
C605 C604 1.388 . S
C605 C606 1.390 . S
C606 C605 1.390 . S
C606 C607 1.394 1_556 S
C606 C612 1.465 1_565 S
C607 C602 1.399 . S
C607 C606 1.394 1_554 S
C607 C608 1.516 1_565 S
C608 C607 1.516 1_545 S
C608 C609 1.502 . S
C608 C610 1.578 . S
C608 C611 1.526 . S
C609 H593 0.959 . S
C609 H594 0.959 . S
C609 H595 0.961 . S
C609 C608 1.502 . S
C610 H596 0.913 1_545 S
C610 H597 1.026 . S
C610 H598 0.932 1_545 S
C610 C608 1.578 . S
C611 C608 1.526 . S
C611 C612 1.396 1_554 S
C611 C616 1.390 . S
C612 C606 1.465 1_545 S
C612 C611 1.396 1_556 S
C612 C613 1.399 . S
C613 H599 0.929 . S
C613 C612 1.399 . S
C613 C614 1.385 . S
C614 H600 0.931 . S
C614 C613 1.385 . S
C614 C615 1.389 . S
C615 C614 1.389 . S
C615 C616 1.387 1_556 S
C616 H601 0.930 . S
C616 C611 1.390 . S
C616 C615 1.387 1_554 S
H617 C629 0.930 . S
H618 C631 0.930 . S
H619 C632 0.930 . S
H620 C636 0.959 . S
H621 C636 0.959 1_565 S
H622 C636 0.961 . S
H623 C637 0.960 . S
H624 C637 0.961 . S
H625 C637 0.959 . S
H626 C640 0.929 . S
H627 C641 0.931 . S
H628 C643 0.930 . S
C629 H617 0.930 . S
C629 C630 1.399 . S
C629 C634 1.399 . S
C630 C629 1.399 . S
C630 C631 1.376 . S
C631 H618 0.930 . S
C631 C630 1.376 . S
C631 C632 1.388 . S
C632 H619 0.930 . S
C632 C631 1.388 . S
C632 C633 1.390 . S
C633 C632 1.390 . S
C633 C634 1.394 . S
C633 C639 1.465 1_545 S
C634 C629 1.399 . S
C634 C633 1.394 . S
C634 C635 1.516 1_545 S
C635 C634 1.516 1_565 S
C635 C636 1.502 1_565 S
C635 C637 1.561 . S
C635 C638 1.526 . S
C636 H620 0.959 . S
C636 H621 0.959 1_545 S
C636 H622 0.961 . S
C636 C635 1.502 1_545 S
C637 H623 0.960 . S
C637 H624 0.961 . S
C637 H625 0.959 . S
C637 C635 1.561 . S
C638 C635 1.526 . S
C638 C639 1.396 . S
C638 C643 1.390 . S
C639 C633 1.465 1_565 S
C639 C638 1.396 . S
C639 C640 1.399 . S
C640 H626 0.929 . S
C640 C639 1.399 . S
C640 C641 1.385 . S
C641 H627 0.931 . S
C641 C640 1.385 . S
C641 C642 1.389 . S
C642 C641 1.389 . S
C642 C643 1.387 . S
C643 H628 0.930 . S
C643 C638 1.390 . S
C643 C642 1.387 . S
H644 C656 0.930 . S
H645 C658 0.930 . S
H646 C659 0.930 . S
H647 C663 0.959 . S
H648 C663 0.959 . S
H649 C663 0.961 . S
H650 C664 0.960 . S
H651 C664 0.961 . S
H652 C664 0.959 . S
H653 C667 0.929 . S
H654 C668 0.931 . S
H655 C670 0.930 . S
C656 H644 0.930 . S
C656 C657 1.399 . S
C656 C661 1.399 . S
C657 C656 1.399 . S
C657 C658 1.376 1_556 S
C658 H645 0.930 . S
C658 C657 1.376 1_554 S
C658 C659 1.388 . S
C659 H646 0.930 . S
C659 C658 1.388 . S
C659 C660 1.390 . S
C660 C659 1.390 . S
C660 C661 1.394 1_554 S
C660 C666 1.465 . S
C661 C656 1.399 . S
C661 C660 1.394 1_556 S
C661 C662 1.516 . S
C662 C661 1.516 . S
C662 C663 1.502 . S
C662 C664 1.561 . S
C662 C665 1.526 . S
C663 H647 0.959 . S
C663 H648 0.959 . S
C663 H649 0.961 . S
C663 C662 1.502 . S
C664 H650 0.960 . S
C664 H651 0.961 . S
C664 H652 0.959 . S
C664 C662 1.561 . S
C665 C662 1.526 . S
C665 C666 1.396 1_556 S
C665 C670 1.390 . S
C666 C660 1.465 . S
C666 C665 1.396 1_554 S
C666 C667 1.399 . S
C667 H653 0.929 . S
C667 C666 1.399 . S
C667 C668 1.385 . S
C668 H654 0.931 . S
C668 C667 1.385 . S
C668 C669 1.389 . S
C669 C668 1.389 . S
C669 C670 1.387 1_554 S
C670 H655 0.930 . S
C670 C665 1.390 . S
C670 C669 1.387 1_556 S
H671 C683 0.930 . S
H672 C685 0.930 . S
H673 C686 0.930 . S
H674 C690 0.959 . S
H675 C690 0.959 . S
H676 C690 0.961 . S
H677 C691 0.960 . S
H678 C691 0.961 . S
H679 C691 0.959 . S
H680 C694 0.929 . S
H681 C695 0.931 . S
H682 C697 0.930 . S
C683 H671 0.930 . S
C683 C684 1.399 . S
C683 C688 1.399 . S
C684 C683 1.399 . S
C684 C685 1.376 1_556 S
C685 H672 0.930 . S
C685 C684 1.376 1_554 S
C685 C686 1.388 . S
C686 H673 0.930 . S
C686 C685 1.388 . S
C686 C687 1.390 . S
C687 C686 1.390 . S
C687 C688 1.394 1_554 S
C687 C693 1.465 . S
C688 C683 1.399 . S
C688 C687 1.394 1_556 S
C688 C689 1.516 . S
C689 C688 1.516 . S
C689 C690 1.502 . S
C689 C691 1.561 . S
C689 C692 1.526 . S
C690 H674 0.959 . S
C690 H675 0.959 . S
C690 H676 0.961 . S
C690 C689 1.502 . S
C691 H677 0.960 . S
C691 H678 0.961 . S
C691 H679 0.959 . S
C691 C689 1.561 . S
C692 C689 1.526 . S
C692 C693 1.396 1_556 S
C692 C697 1.390 . S
C693 C687 1.465 . S
C693 C692 1.396 1_554 S
C693 C694 1.399 . S
C694 H680 0.929 . S
C694 C693 1.399 . S
C694 C695 1.385 . S
C695 H681 0.931 . S
C695 C694 1.385 . S
C695 C696 1.389 . S
C696 C695 1.389 . S
C696 C697 1.387 1_554 S
C697 H682 0.930 . S
C697 C692 1.390 . S
C697 C696 1.387 1_556 S
H698 C710 0.930 . S
H699 C712 0.930 . S
H700 C713 0.930 . S
H701 C717 0.959 . S
H702 C717 0.959 . S
H703 C717 0.961 . S
H704 C718 0.960 . S
H705 C718 0.961 . S
H706 C718 0.959 . S
H707 C721 0.929 . S
H708 C722 0.931 . S
H709 C724 0.930 . S
C710 H698 0.930 . S
C710 C711 1.399 . S
C710 C715 1.399 . S
C711 C710 1.399 . S
C711 C712 1.376 . S
C712 H699 0.930 . S
C712 C711 1.376 . S
C712 C713 1.388 . S
C713 H700 0.930 . S
C713 C712 1.388 . S
C713 C714 1.390 . S
C714 C713 1.390 . S
C714 C715 1.394 . S
C714 C720 1.465 . S
C715 C710 1.399 . S
C715 C714 1.394 . S
C715 C716 1.516 . S
C716 C715 1.516 . S
C716 C717 1.502 . S
C716 C718 1.561 . S
C716 C719 1.526 . S
C717 H701 0.959 . S
C717 H702 0.959 . S
C717 H703 0.961 . S
C717 C716 1.502 . S
C718 H704 0.960 . S
C718 H705 0.961 . S
C718 H706 0.959 . S
C718 C716 1.561 . S
C719 C716 1.526 . S
C719 C720 1.396 . S
C719 C724 1.390 . S
C720 C714 1.465 . S
C720 C719 1.396 . S
C720 C721 1.399 . S
C721 H707 0.929 . S
C721 C720 1.399 . S
C721 C722 1.385 . S
C722 H708 0.931 . S
C722 C721 1.385 . S
C722 C723 1.389 . S
C723 C722 1.389 . S
C723 C724 1.387 . S
C724 H709 0.930 . S
C724 C719 1.390 . S
C724 C723 1.387 . S
H725 C737 0.930 . S
H726 C739 0.930 . S
H727 C740 0.930 . S
H728 C744 0.959 . S
H729 C744 0.959 . S
H730 C744 0.961 . S
H731 C745 0.960 . S
H732 C745 0.961 . S
H733 C745 0.959 . S
H734 C748 0.929 . S
H735 C749 0.931 . S
H736 C751 0.930 . S
C737 H725 0.930 . S
C737 C738 1.399 . S
C737 C742 1.399 . S
C738 C737 1.399 . S
C738 C739 1.376 . S
C739 H726 0.930 . S
C739 C738 1.376 . S
C739 C740 1.388 . S
C740 H727 0.930 . S
C740 C739 1.388 . S
C740 C741 1.390 . S
C741 C740 1.390 . S
C741 C742 1.394 . S
C741 C747 1.465 . S
C742 C737 1.399 . S
C742 C741 1.394 . S
C742 C743 1.516 . S
C743 C742 1.516 . S
C743 C744 1.502 . S
C743 C745 1.561 . S
C743 C746 1.526 . S
C744 H728 0.959 . S
C744 H729 0.959 . S
C744 H730 0.961 . S
C744 C743 1.502 . S
C745 H731 0.960 . S
C745 H732 0.961 . S
C745 H733 0.959 . S
C745 C743 1.561 . S
C746 C743 1.526 . S
C746 C747 1.396 . S
C746 C751 1.390 . S
C747 C741 1.465 . S
C747 C746 1.396 . S
C747 C748 1.399 . S
C748 H734 0.929 . S
C748 C747 1.399 . S
C748 C749 1.385 . S
C749 H735 0.931 . S
C749 C748 1.385 . S
C749 C750 1.389 . S
C750 C749 1.389 . S
C750 C751 1.387 . S
C751 H736 0.930 . S
C751 C746 1.390 . S
C751 C750 1.387 . S
H752 C764 0.930 . S
H753 C766 0.930 . S
H754 C767 0.930 . S
H755 C771 0.959 . S
H756 C771 0.959 . S
H757 C771 0.961 . S
H758 C772 0.960 . S
H759 C772 0.961 . S
H760 C772 0.959 . S
H761 C775 0.929 . S
H762 C776 0.931 . S
H763 C778 0.930 . S
C764 H752 0.930 . S
C764 C765 1.399 . S
C764 C769 1.399 . S
C765 C764 1.399 . S
C765 C766 1.376 . S
C766 H753 0.930 . S
C766 C765 1.376 . S
C766 C767 1.388 . S
C767 H754 0.930 . S
C767 C766 1.388 . S
C767 C768 1.390 . S
C768 C767 1.390 . S
C768 C769 1.394 . S
C768 C774 1.465 1_455 S
C769 C764 1.399 . S
C769 C768 1.394 . S
C769 C770 1.516 1_455 S
C770 C769 1.516 1_655 S
C770 C771 1.502 1_655 S
C770 C772 1.561 . S
C770 C773 1.526 . S
C771 H755 0.959 . S
C771 H756 0.959 . S
C771 H757 0.961 . S
C771 C770 1.502 1_455 S
C772 H758 0.960 . S
C772 H759 0.961 . S
C772 H760 0.959 . S
C772 C770 1.561 . S
C773 C770 1.526 . S
C773 C774 1.396 . S
C773 C778 1.390 . S
C774 C768 1.465 1_655 S
C774 C773 1.396 . S
C774 C775 1.399 . S
C775 H761 0.929 . S
C775 C774 1.399 . S
C775 C776 1.385 . S
C776 H762 0.931 . S
C776 C775 1.385 . S
C776 C777 1.389 . S
C777 C776 1.389 . S
C777 C778 1.387 . S
C778 H763 0.930 . S
C778 C773 1.390 . S
C778 C777 1.387 . S
H779 C791 0.930 . S
H780 C793 0.930 . S
H781 C794 0.930 . S
H782 C798 0.959 . S
H783 C798 0.959 . S
H784 C798 0.961 . S
H785 C799 0.960 . S
H786 C799 0.961 . S
H787 C799 0.959 1_655 S
H788 C802 0.929 . S
H789 C803 0.931 . S
H790 C805 0.930 . S
C791 H779 0.930 . S
C791 C792 1.399 1_455 S
C791 C796 1.399 . S
C792 C791 1.399 1_655 S
C792 C793 1.376 . S
C793 H780 0.930 . S
C793 C792 1.376 . S
C793 C794 1.388 . S
C794 H781 0.930 . S
C794 C793 1.388 . S
C794 C795 1.390 . S
C795 C794 1.390 . S
C795 C796 1.394 1_655 S
C795 C801 1.465 . S
C796 C791 1.399 . S
C796 C795 1.394 1_455 S
C796 C797 1.516 . S
C797 C796 1.516 . S
C797 C798 1.502 . S
C797 C799 1.561 . S
C797 C800 1.526 . S
C798 H782 0.959 . S
C798 H783 0.959 . S
C798 H784 0.961 . S
C798 C797 1.502 . S
C799 H785 0.960 . S
C799 H786 0.961 . S
C799 H787 0.959 1_455 S
C799 C797 1.561 . S
C800 C797 1.526 . S
C800 C801 1.396 1_455 S
C800 C805 1.390 . S
C801 C795 1.465 . S
C801 C800 1.396 1_655 S
C801 C802 1.399 . S
C802 H788 0.929 . S
C802 C801 1.399 . S
C802 C803 1.385 . S
C803 H789 0.931 . S
C803 C802 1.385 . S
C803 C804 1.389 1_655 S
C804 C803 1.389 1_455 S
C804 C805 1.387 . S
C805 H790 0.930 . S
C805 C800 1.390 . S
C805 C804 1.387 . S
H806 C818 0.930 1_455 S
H807 C820 0.930 . S
H808 C821 0.930 . S
H809 C825 0.959 . S
H810 C825 0.959 . S
H811 C825 0.961 . S
H812 C826 0.960 . S
H813 C826 0.961 1_455 S
H814 C826 0.959 . S
H815 C829 0.929 . S
H816 C830 0.931 1_655 S
H817 C832 0.930 . S
C818 H806 0.930 1_655 S
C818 C819 1.399 . S
C818 C823 1.399 . S
C819 C818 1.399 . S
C819 C820 1.376 . S
C820 H807 0.930 . S
C820 C819 1.376 . S
C820 C821 1.388 . S
C821 H808 0.930 . S
C821 C820 1.388 . S
C821 C822 1.390 . S
C822 C821 1.390 . S
C822 C823 1.394 . S
C822 C828 1.465 . S
C823 C818 1.399 . S
C823 C822 1.394 . S
C823 C824 1.516 1_655 S
C824 C823 1.516 1_455 S
C824 C825 1.502 . S
C824 C826 1.561 1_455 S
C824 C827 1.526 . S
C825 H809 0.959 . S
C825 H810 0.959 . S
C825 H811 0.961 . S
C825 C824 1.502 . S
C826 H812 0.960 . S
C826 H813 0.961 1_655 S
C826 H814 0.959 . S
C826 C824 1.561 1_655 S
C827 C824 1.526 . S
C827 C828 1.396 1_455 S
C827 C832 1.390 . S
C828 C822 1.465 . S
C828 C827 1.396 1_655 S
C828 C829 1.399 . S
C829 H815 0.929 . S
C829 C828 1.399 . S
C829 C830 1.385 1_655 S
C830 H816 0.931 1_455 S
C830 C829 1.385 1_455 S
C830 C831 1.389 . S
C831 C830 1.389 . S
C831 C832 1.387 . S
C832 H817 0.930 . S
C832 C827 1.390 . S
C832 C831 1.387 . S
H833 C845 0.930 . S
H834 C847 0.930 . S
H835 C848 0.930 . S
H836 C852 0.959 . S
H837 C852 0.959 . S
H838 C852 0.961 . S
H839 C853 0.960 . S
H840 C853 0.961 . S
H841 C853 0.959 . S
H842 C856 0.929 . S
H843 C857 0.931 . S
H844 C859 0.930 . S
C845 H833 0.930 . S
C845 C846 1.399 . S
C845 C850 1.399 . S
C846 C845 1.399 . S
C846 C847 1.376 . S
C847 H834 0.930 . S
C847 C846 1.376 . S
C847 C848 1.388 1_655 S
C848 H835 0.930 . S
C848 C847 1.388 1_455 S
C848 C849 1.390 . S
C849 C848 1.390 . S
C849 C850 1.394 1_455 S
C849 C855 1.465 . S
C850 C845 1.399 . S
C850 C849 1.394 1_655 S
C850 C851 1.516 . S
C851 C850 1.516 . S
C851 C852 1.502 . S
C851 C853 1.561 1_655 S
C851 C854 1.526 1_655 S
C852 H836 0.959 . S
C852 H837 0.959 . S
C852 H838 0.961 . S
C852 C851 1.502 . S
C853 H839 0.960 . S
C853 H840 0.961 . S
C853 H841 0.959 . S
C853 C851 1.561 1_455 S
C854 C851 1.526 1_455 S
C854 C855 1.396 . S
C854 C859 1.390 . S
C855 C849 1.465 . S
C855 C854 1.396 . S
C855 C856 1.399 . S
C856 H842 0.929 . S
C856 C855 1.399 . S
C856 C857 1.385 . S
C857 H843 0.931 . S
C857 C856 1.385 . S
C857 C858 1.389 . S
C858 C857 1.389 . S
C858 C859 1.387 . S
C859 H844 0.930 . S
C859 C854 1.390 . S
C859 C858 1.387 . S
H860 C872 0.930 . S
H861 C874 0.930 . S
H862 C875 0.930 . S
H863 C879 0.959 . S
H864 C879 0.959 . S
H865 C879 0.961 . S
H866 C880 0.960 . S
H867 C880 0.961 . S
H868 C880 0.959 . S
H869 C883 0.929 . S
H870 C884 0.931 . S
H871 C886 0.930 . S
C872 H860 0.930 . S
C872 C873 1.399 . S
C872 C877 1.399 . S
C873 C872 1.399 . S
C873 C874 1.376 . S
C874 H861 0.930 . S
C874 C873 1.376 . S
C874 C875 1.388 . S
C875 H862 0.930 . S
C875 C874 1.388 . S
C875 C876 1.390 . S
C876 C875 1.390 . S
C876 C877 1.394 . S
C876 C882 1.465 . S
C877 C872 1.399 . S
C877 C876 1.394 . S
C877 C878 1.516 . S
C878 C877 1.516 . S
C878 C879 1.502 . S
C878 C880 1.561 . S
C878 C881 1.526 . S
C879 H863 0.959 . S
C879 H864 0.959 . S
C879 H865 0.961 . S
C879 C878 1.502 . S
C880 H866 0.960 . S
C880 H867 0.961 . S
C880 H868 0.959 . S
C880 C878 1.561 . S
C881 C878 1.526 . S
C881 C882 1.396 . S
C881 C886 1.390 . S
C882 C876 1.465 . S
C882 C881 1.396 . S
C882 C883 1.399 . S
C883 H869 0.929 . S
C883 C882 1.399 . S
C883 C884 1.385 . S
C884 H870 0.931 . S
C884 C883 1.385 . S
C884 C885 1.389 . S
C885 C884 1.389 . S
C885 C886 1.387 . S
C886 H871 0.930 . S
C886 C881 1.390 . S
C886 C885 1.387 . S
H887 C899 0.930 . S
H888 C901 0.930 . S
H889 C902 0.930 . S
H890 C906 0.959 . S
H891 C906 0.959 . S
H892 C906 0.961 . S
H893 C907 0.960 . S
H894 C907 0.961 . S
H895 C907 0.959 . S
H896 C910 0.929 . S
H897 C911 0.931 . S
H898 C913 0.930 . S
C899 H887 0.930 . S
C899 C900 1.399 . S
C899 C904 1.399 . S
C900 C899 1.399 . S
C900 C901 1.376 . S
C901 H888 0.930 . S
C901 C900 1.376 . S
C901 C902 1.388 . S
C902 H889 0.930 . S
C902 C901 1.388 . S
C902 C903 1.390 . S
C903 C902 1.390 . S
C903 C904 1.394 . S
C903 C909 1.465 . S
C904 C899 1.399 . S
C904 C903 1.394 . S
C904 C905 1.516 . S
C905 C904 1.516 . S
C905 C906 1.502 . S
C905 C907 1.561 . S
C905 C908 1.526 . S
C906 H890 0.959 . S
C906 H891 0.959 . S
C906 H892 0.961 . S
C906 C905 1.502 . S
C907 H893 0.960 . S
C907 H894 0.961 . S
C907 H895 0.959 . S
C907 C905 1.561 . S
C908 C905 1.526 . S
C908 C909 1.396 . S
C908 C913 1.390 . S
C909 C903 1.465 . S
C909 C908 1.396 . S
C909 C910 1.399 . S
C910 H896 0.929 . S
C910 C909 1.399 . S
C910 C911 1.385 . S
C911 H897 0.931 . S
C911 C910 1.385 . S
C911 C912 1.389 . S
C912 C911 1.389 . S
C912 C913 1.387 . S
C913 H898 0.930 . S
C913 C908 1.390 . S
C913 C912 1.387 . S
H914 C926 0.930 . S
H915 C928 0.930 . S
H916 C929 0.930 . S
H917 C933 0.959 . S
H918 C933 0.959 . S
H919 C933 0.961 . S
H920 C934 0.960 . S
H921 C934 0.961 . S
H922 C934 0.959 . S
H923 C937 0.929 . S
H924 C938 0.931 . S
H925 C940 0.930 . S
C926 H914 0.930 . S
C926 C927 1.399 . S
C926 C931 1.399 . S
C927 C926 1.399 . S
C927 C928 1.376 . S
C928 H915 0.930 . S
C928 C927 1.376 . S
C928 C929 1.388 . S
C929 H916 0.930 . S
C929 C928 1.388 . S
C929 C930 1.390 . S
C930 C929 1.390 . S
C930 C931 1.394 . S
C930 C936 1.465 . S
C931 C926 1.399 . S
C931 C930 1.394 . S
C931 C932 1.516 . S
C932 C931 1.516 . S
C932 C933 1.502 . S
C932 C934 1.561 . S
C932 C935 1.526 . S
C933 H917 0.959 . S
C933 H918 0.959 . S
C933 H919 0.961 . S
C933 C932 1.502 . S
C934 H920 0.960 . S
C934 H921 0.961 . S
C934 H922 0.959 . S
C934 C932 1.561 . S
C935 C932 1.526 . S
C935 C936 1.396 . S
C935 C940 1.390 . S
C936 C930 1.465 . S
C936 C935 1.396 . S
C936 C937 1.399 . S
C937 H923 0.929 . S
C937 C936 1.399 . S
C937 C938 1.385 . S
C938 H924 0.931 . S
C938 C937 1.385 . S
C938 C939 1.389 . S
C939 C938 1.389 . S
C939 C940 1.387 . S
C940 H925 0.930 . S
C940 C935 1.390 . S
C940 C939 1.387 . S
H941 C953 0.930 . S
H942 C955 0.930 . S
H943 C956 0.930 . S
H944 C960 0.959 . S
H945 C960 0.959 . S
H946 C960 0.961 . S
H947 C961 0.960 . S
H948 C961 0.961 . S
H949 C961 0.959 . S
H950 C964 0.929 . S
H951 C965 0.931 . S
H952 C967 0.930 . S
C953 H941 0.930 . S
C953 C954 1.399 . S
C953 C958 1.399 . S
C954 C953 1.399 . S
C954 C955 1.376 . S
C955 H942 0.930 . S
C955 C954 1.376 . S
C955 C956 1.388 . S
C956 H943 0.930 . S
C956 C955 1.388 . S
C956 C957 1.390 . S
C957 C956 1.390 . S
C957 C958 1.394 . S
C957 C963 1.465 . S
C958 C953 1.399 . S
C958 C957 1.394 . S
C958 C959 1.516 . S
C959 C958 1.516 . S
C959 C960 1.502 . S
C959 C961 1.561 . S
C959 C962 1.526 . S
C960 H944 0.959 . S
C960 H945 0.959 . S
C960 H946 0.961 . S
C960 C959 1.502 . S
C961 H947 0.960 . S
C961 H948 0.961 . S
C961 H949 0.959 . S
C961 C959 1.561 . S
C962 C959 1.526 . S
C962 C963 1.396 . S
C962 C967 1.390 . S
C963 C957 1.465 . S
C963 C962 1.396 . S
C963 C964 1.399 . S
C964 H950 0.929 . S
C964 C963 1.399 . S
C964 C965 1.385 . S
C965 H951 0.931 . S
C965 C964 1.385 . S
C965 C966 1.389 . S
C966 C965 1.389 . S
C966 C967 1.387 . S
C967 H952 0.930 . S
C967 C962 1.390 . S
C967 C966 1.387 . S
C333 C31 2.276 . S
C345 C12 2.290 . S
C360 C71 2.299 . S
C372 C52 2.269 . S
C387 C111 2.286 . S
C399 C92 2.281 . S
C414 C151 2.277 . S
C426 C132 2.300 . S
C441 C191 2.293 . S
C453 C172 2.285 1_556 S
C468 C212 2.293 1_556 S
C480 C231 2.285 . S
C495 C271 2.271 . S
C507 C252 2.296 . S
C522 C292 2.266 . S
C534 C311 2.305 . S
C549 C48 2.523 . S
C561 C29 2.543 . S
C576 C149 2.544 . S
C588 C88 2.543 . S
C603 C189 2.504 . S
C615 C208 2.563 . S
C630 C248 2.553 . S
C642 C309 2.534 . S
C657 C8 1.829 . S
C669 C229 1.802 . S
C684 C168 1.827 . S
C696 C69 1.805 . S
C711 C109 1.775 . S
C723 C288 1.837 . S
C738 C128 1.826 . S
C750 C269 1.784 . S
C765 C17 1.535 . S
C777 C137 1.545 . S
C792 C57 1.505 . S
C804 C97 1.482 . S
C819 C42 1.572 . S
C831 C82 1.536 . S
C846 C122 1.475 . S
C858 C2 1.479 . S
C873 C177 1.614 . S
C885 C297 1.597 . S
C900 C217 1.540 . S
C912 C257 1.538 . S
C927 C202 1.563 . S
C939 C242 1.537 . S
C954 C282 1.539 . S
C966 C162 1.537 . S
