# Generated by pormake.
# Topology fcf, (5)-cn, num edge types: 1
# Building blocks:
#     Node 0, Type 0, BuildingBlock: BEQFEK_clean_sbu_0, # of connection points: 5
#     Node 1, Type 0, BuildingBlock: BEQFEK_clean_sbu_0, # of connection points: 5
#     Node 2, Type 0, BuildingBlock: BEQFEK_clean_sbu_0, # of connection points: 5
#     Node 3, Type 0, BuildingBlock: BEQFEK_clean_sbu_0, # of connection points: 5
#     Node 4, Type 0, BuildingBlock: BEQFEK_clean_sbu_0, # of connection points: 5
#     Node 5, Type 0, BuildingBlock: BEQFEK_clean_sbu_0, # of connection points: 5
#     Node 6, Type 0, BuildingBlock: BEQFEK_clean_sbu_0, # of connection points: 5
#     Node 7, Type 0, BuildingBlock: BEQFEK_clean_sbu_0, # of connection points: 5
#     Node 8, Type 0, BuildingBlock: BEQFEK_clean_sbu_0, # of connection points: 5
#     Node 9, Type 0, BuildingBlock: BEQFEK_clean_sbu_0, # of connection points: 5
#     Node 10, Type 0, BuildingBlock: BEQFEK_clean_sbu_0, # of connection points: 5
#     Node 11, Type 0, BuildingBlock: BEQFEK_clean_sbu_0, # of connection points: 5
#     Node 12, Type 0, BuildingBlock: BEQFEK_clean_sbu_0, # of connection points: 5
#     Node 13, Type 0, BuildingBlock: BEQFEK_clean_sbu_0, # of connection points: 5
#     Node 14, Type 0, BuildingBlock: BEQFEK_clean_sbu_0, # of connection points: 5
#     Node 15, Type 0, BuildingBlock: BEQFEK_clean_sbu_0, # of connection points: 5
#     Node 16, Type 0, BuildingBlock: BEQFEK_clean_sbu_0, # of connection points: 5
#     Node 17, Type 0, BuildingBlock: BEQFEK_clean_sbu_0, # of connection points: 5
#     Node 18, Type 0, BuildingBlock: BEQFEK_clean_sbu_0, # of connection points: 5
#     Node 19, Type 0, BuildingBlock: BEQFEK_clean_sbu_0, # of connection points: 5
#     Node 20, Type 0, BuildingBlock: BEQFEK_clean_sbu_0, # of connection points: 5
#     Node 21, Type 0, BuildingBlock: BEQFEK_clean_sbu_0, # of connection points: 5
#     Node 22, Type 0, BuildingBlock: BEQFEK_clean_sbu_0, # of connection points: 5
#     Node 23, Type 0, BuildingBlock: BEQFEK_clean_sbu_0, # of connection points: 5
#     Node 24, Type 0, BuildingBlock: BEQFEK_clean_sbu_0, # of connection points: 5
#     Node 25, Type 0, BuildingBlock: BEQFEK_clean_sbu_0, # of connection points: 5
#     Node 26, Type 0, BuildingBlock: BEQFEK_clean_sbu_0, # of connection points: 5
#     Node 27, Type 0, BuildingBlock: BEQFEK_clean_sbu_0, # of connection points: 5
#     Node 28, Type 0, BuildingBlock: BEQFEK_clean_sbu_0, # of connection points: 5
#     Node 29, Type 0, BuildingBlock: BEQFEK_clean_sbu_0, # of connection points: 5
#     Node 30, Type 0, BuildingBlock: BEQFEK_clean_sbu_0, # of connection points: 5
#     Node 31, Type 0, BuildingBlock: BEQFEK_clean_sbu_0, # of connection points: 5
#     Node 32, Type 0, BuildingBlock: BEQFEK_clean_sbu_0, # of connection points: 5
#     Node 33, Type 0, BuildingBlock: BEQFEK_clean_sbu_0, # of connection points: 5
#     Node 34, Type 0, BuildingBlock: BEQFEK_clean_sbu_0, # of connection points: 5
#     Node 35, Type 0, BuildingBlock: BEQFEK_clean_sbu_0, # of connection points: 5
#     Node 36, Type 0, BuildingBlock: BEQFEK_clean_sbu_0, # of connection points: 5
#     Node 37, Type 0, BuildingBlock: BEQFEK_clean_sbu_0, # of connection points: 5
#     Node 38, Type 0, BuildingBlock: BEQFEK_clean_sbu_0, # of connection points: 5
#     Node 39, Type 0, BuildingBlock: BEQFEK_clean_sbu_0, # of connection points: 5
#     Node 40, Type 0, BuildingBlock: BEQFEK_clean_sbu_0, # of connection points: 5
#     Node 41, Type 0, BuildingBlock: BEQFEK_clean_sbu_0, # of connection points: 5
#     Node 42, Type 0, BuildingBlock: BEQFEK_clean_sbu_0, # of connection points: 5
#     Node 43, Type 0, BuildingBlock: BEQFEK_clean_sbu_0, # of connection points: 5
#     Node 44, Type 0, BuildingBlock: BEQFEK_clean_sbu_0, # of connection points: 5
#     Node 45, Type 0, BuildingBlock: BEQFEK_clean_sbu_0, # of connection points: 5
#     Node 46, Type 0, BuildingBlock: BEQFEK_clean_sbu_0, # of connection points: 5
#     Node 47, Type 0, BuildingBlock: BEQFEK_clean_sbu_0, # of connection points: 5
#     Node 48, Type 0, BuildingBlock: BEQFEK_clean_sbu_0, # of connection points: 5
#     Node 49, Type 0, BuildingBlock: BEQFEK_clean_sbu_0, # of connection points: 5
#     Node 50, Type 0, BuildingBlock: BEQFEK_clean_sbu_0, # of connection points: 5
#     Node 51, Type 0, BuildingBlock: BEQFEK_clean_sbu_0, # of connection points: 5
#     Node 52, Type 0, BuildingBlock: BEQFEK_clean_sbu_0, # of connection points: 5
#     Node 53, Type 0, BuildingBlock: BEQFEK_clean_sbu_0, # of connection points: 5
#     Node 54, Type 0, BuildingBlock: BEQFEK_clean_sbu_0, # of connection points: 5
#     Node 55, Type 0, BuildingBlock: BEQFEK_clean_sbu_0, # of connection points: 5
#     Node 56, Type 0, BuildingBlock: BEQFEK_clean_sbu_0, # of connection points: 5
#     Node 57, Type 0, BuildingBlock: BEQFEK_clean_sbu_0, # of connection points: 5
#     Node 58, Type 0, BuildingBlock: BEQFEK_clean_sbu_0, # of connection points: 5
#     Node 59, Type 0, BuildingBlock: BEQFEK_clean_sbu_0, # of connection points: 5
#     Node 60, Type 0, BuildingBlock: BEQFEK_clean_sbu_0, # of connection points: 5
#     Node 61, Type 0, BuildingBlock: BEQFEK_clean_sbu_0, # of connection points: 5
#     Node 62, Type 0, BuildingBlock: BEQFEK_clean_sbu_0, # of connection points: 5
#     Node 63, Type 0, BuildingBlock: BEQFEK_clean_sbu_0, # of connection points: 5
#     Node 64, Type 0, BuildingBlock: BEQFEK_clean_sbu_0, # of connection points: 5
#     Node 65, Type 0, BuildingBlock: BEQFEK_clean_sbu_0, # of connection points: 5
#     Node 66, Type 0, BuildingBlock: BEQFEK_clean_sbu_0, # of connection points: 5
#     Node 67, Type 0, BuildingBlock: BEQFEK_clean_sbu_0, # of connection points: 5
#     Node 68, Type 0, BuildingBlock: BEQFEK_clean_sbu_0, # of connection points: 5
#     Node 69, Type 0, BuildingBlock: BEQFEK_clean_sbu_0, # of connection points: 5
#     Node 70, Type 0, BuildingBlock: BEQFEK_clean_sbu_0, # of connection points: 5
#     Node 71, Type 0, BuildingBlock: BEQFEK_clean_sbu_0, # of connection points: 5
#     Node 72, Type 0, BuildingBlock: BEQFEK_clean_sbu_0, # of connection points: 5
#     Node 73, Type 0, BuildingBlock: BEQFEK_clean_sbu_0, # of connection points: 5
#     Node 74, Type 0, BuildingBlock: BEQFEK_clean_sbu_0, # of connection points: 5
#     Node 75, Type 0, BuildingBlock: BEQFEK_clean_sbu_0, # of connection points: 5
#     Node 76, Type 0, BuildingBlock: BEQFEK_clean_sbu_0, # of connection points: 5
#     Node 77, Type 0, BuildingBlock: BEQFEK_clean_sbu_0, # of connection points: 5
#     Node 78, Type 0, BuildingBlock: BEQFEK_clean_sbu_0, # of connection points: 5
#     Node 79, Type 0, BuildingBlock: BEQFEK_clean_sbu_0, # of connection points: 5
#     Node 80, Type 0, BuildingBlock: BEQFEK_clean_sbu_0, # of connection points: 5
#     Node 81, Type 0, BuildingBlock: BEQFEK_clean_sbu_0, # of connection points: 5
#     Node 82, Type 0, BuildingBlock: BEQFEK_clean_sbu_0, # of connection points: 5
#     Node 83, Type 0, BuildingBlock: BEQFEK_clean_sbu_0, # of connection points: 5
#     Node 84, Type 0, BuildingBlock: BEQFEK_clean_sbu_0, # of connection points: 5
#     Node 85, Type 0, BuildingBlock: BEQFEK_clean_sbu_0, # of connection points: 5
#     Node 86, Type 0, BuildingBlock: BEQFEK_clean_sbu_0, # of connection points: 5
#     Node 87, Type 0, BuildingBlock: BEQFEK_clean_sbu_0, # of connection points: 5
#     Node 88, Type 0, BuildingBlock: BEQFEK_clean_sbu_0, # of connection points: 5
#     Node 89, Type 0, BuildingBlock: BEQFEK_clean_sbu_0, # of connection points: 5
#     Node 90, Type 0, BuildingBlock: BEQFEK_clean_sbu_0, # of connection points: 5
#     Node 91, Type 0, BuildingBlock: BEQFEK_clean_sbu_0, # of connection points: 5
#     Node 92, Type 0, BuildingBlock: BEQFEK_clean_sbu_0, # of connection points: 5
#     Node 93, Type 0, BuildingBlock: BEQFEK_clean_sbu_0, # of connection points: 5
#     Node 94, Type 0, BuildingBlock: BEQFEK_clean_sbu_0, # of connection points: 5
#     Node 95, Type 0, BuildingBlock: BEQFEK_clean_sbu_0, # of connection points: 5
#     Edge 96, Type (0, 0), None
#     Edge 97, Type (0, 0), None
#     Edge 98, Type (0, 0), None
#     Edge 99, Type (0, 0), None
#     Edge 100, Type (0, 0), None
#     Edge 101, Type (0, 0), None
#     Edge 102, Type (0, 0), None
#     Edge 103, Type (0, 0), None
#     Edge 104, Type (0, 0), None
#     Edge 105, Type (0, 0), None
#     Edge 106, Type (0, 0), None
#     Edge 107, Type (0, 0), None
#     Edge 108, Type (0, 0), None
#     Edge 109, Type (0, 0), None
#     Edge 110, Type (0, 0), None
#     Edge 111, Type (0, 0), None
#     Edge 112, Type (0, 0), None
#     Edge 113, Type (0, 0), None
#     Edge 114, Type (0, 0), None
#     Edge 115, Type (0, 0), None
#     Edge 116, Type (0, 0), None
#     Edge 117, Type (0, 0), None
#     Edge 118, Type (0, 0), None
#     Edge 119, Type (0, 0), None
#     Edge 120, Type (0, 0), None
#     Edge 121, Type (0, 0), None
#     Edge 122, Type (0, 0), None
#     Edge 123, Type (0, 0), None
#     Edge 124, Type (0, 0), None
#     Edge 125, Type (0, 0), None
#     Edge 126, Type (0, 0), None
#     Edge 127, Type (0, 0), None
#     Edge 128, Type (0, 0), None
#     Edge 129, Type (0, 0), None
#     Edge 130, Type (0, 0), None
#     Edge 131, Type (0, 0), None
#     Edge 132, Type (0, 0), None
#     Edge 133, Type (0, 0), None
#     Edge 134, Type (0, 0), None
#     Edge 135, Type (0, 0), None
#     Edge 136, Type (0, 0), None
#     Edge 137, Type (0, 0), None
#     Edge 138, Type (0, 0), None
#     Edge 139, Type (0, 0), None
#     Edge 140, Type (0, 0), None
#     Edge 141, Type (0, 0), None
#     Edge 142, Type (0, 0), None
#     Edge 143, Type (0, 0), None
#     Edge 144, Type (0, 0), None
#     Edge 145, Type (0, 0), None
#     Edge 146, Type (0, 0), None
#     Edge 147, Type (0, 0), None
#     Edge 148, Type (0, 0), None
#     Edge 149, Type (0, 0), None
#     Edge 150, Type (0, 0), None
#     Edge 151, Type (0, 0), None
#     Edge 152, Type (0, 0), None
#     Edge 153, Type (0, 0), None
#     Edge 154, Type (0, 0), None
#     Edge 155, Type (0, 0), None
#     Edge 156, Type (0, 0), None
#     Edge 157, Type (0, 0), None
#     Edge 158, Type (0, 0), None
#     Edge 159, Type (0, 0), None
#     Edge 160, Type (0, 0), None
#     Edge 161, Type (0, 0), None
#     Edge 162, Type (0, 0), None
#     Edge 163, Type (0, 0), None
#     Edge 164, Type (0, 0), None
#     Edge 165, Type (0, 0), None
#     Edge 166, Type (0, 0), None
#     Edge 167, Type (0, 0), None
#     Edge 168, Type (0, 0), None
#     Edge 169, Type (0, 0), None
#     Edge 170, Type (0, 0), None
#     Edge 171, Type (0, 0), None
#     Edge 172, Type (0, 0), None
#     Edge 173, Type (0, 0), None
#     Edge 174, Type (0, 0), None
#     Edge 175, Type (0, 0), None
#     Edge 176, Type (0, 0), None
#     Edge 177, Type (0, 0), None
#     Edge 178, Type (0, 0), None
#     Edge 179, Type (0, 0), None
#     Edge 180, Type (0, 0), None
#     Edge 181, Type (0, 0), None
#     Edge 182, Type (0, 0), None
#     Edge 183, Type (0, 0), None
#     Edge 184, Type (0, 0), None
#     Edge 185, Type (0, 0), None
#     Edge 186, Type (0, 0), None
#     Edge 187, Type (0, 0), None
#     Edge 188, Type (0, 0), None
#     Edge 189, Type (0, 0), None
#     Edge 190, Type (0, 0), None
#     Edge 191, Type (0, 0), None
#     Edge 192, Type (0, 0), None
#     Edge 193, Type (0, 0), None
#     Edge 194, Type (0, 0), None
#     Edge 195, Type (0, 0), None
#     Edge 196, Type (0, 0), None
#     Edge 197, Type (0, 0), None
#     Edge 198, Type (0, 0), None
#     Edge 199, Type (0, 0), None
#     Edge 200, Type (0, 0), None
#     Edge 201, Type (0, 0), None
#     Edge 202, Type (0, 0), None
#     Edge 203, Type (0, 0), None
#     Edge 204, Type (0, 0), None
#     Edge 205, Type (0, 0), None
#     Edge 206, Type (0, 0), None
#     Edge 207, Type (0, 0), None
#     Edge 208, Type (0, 0), None
#     Edge 209, Type (0, 0), None
#     Edge 210, Type (0, 0), None
#     Edge 211, Type (0, 0), None
#     Edge 212, Type (0, 0), None
#     Edge 213, Type (0, 0), None
#     Edge 214, Type (0, 0), None
#     Edge 215, Type (0, 0), None
#     Edge 216, Type (0, 0), None
#     Edge 217, Type (0, 0), None
#     Edge 218, Type (0, 0), None
#     Edge 219, Type (0, 0), None
#     Edge 220, Type (0, 0), None
#     Edge 221, Type (0, 0), None
#     Edge 222, Type (0, 0), None
#     Edge 223, Type (0, 0), None
#     Edge 224, Type (0, 0), None
#     Edge 225, Type (0, 0), None
#     Edge 226, Type (0, 0), None
#     Edge 227, Type (0, 0), None
#     Edge 228, Type (0, 0), None
#     Edge 229, Type (0, 0), None
#     Edge 230, Type (0, 0), None
#     Edge 231, Type (0, 0), None
#     Edge 232, Type (0, 0), None
#     Edge 233, Type (0, 0), None
#     Edge 234, Type (0, 0), None
#     Edge 235, Type (0, 0), None
#     Edge 236, Type (0, 0), None
#     Edge 237, Type (0, 0), None
#     Edge 238, Type (0, 0), None
#     Edge 239, Type (0, 0), None
#     Edge 240, Type (0, 0), None
#     Edge 241, Type (0, 0), None
#     Edge 242, Type (0, 0), None
#     Edge 243, Type (0, 0), None
#     Edge 244, Type (0, 0), None
#     Edge 245, Type (0, 0), None
#     Edge 246, Type (0, 0), None
#     Edge 247, Type (0, 0), None
#     Edge 248, Type (0, 0), None
#     Edge 249, Type (0, 0), None
#     Edge 250, Type (0, 0), None
#     Edge 251, Type (0, 0), None
#     Edge 252, Type (0, 0), None
#     Edge 253, Type (0, 0), None
#     Edge 254, Type (0, 0), None
#     Edge 255, Type (0, 0), None
#     Edge 256, Type (0, 0), None
#     Edge 257, Type (0, 0), None
#     Edge 258, Type (0, 0), None
#     Edge 259, Type (0, 0), None
#     Edge 260, Type (0, 0), None
#     Edge 261, Type (0, 0), None
#     Edge 262, Type (0, 0), None
#     Edge 263, Type (0, 0), None
#     Edge 264, Type (0, 0), None
#     Edge 265, Type (0, 0), None
#     Edge 266, Type (0, 0), None
#     Edge 267, Type (0, 0), None
#     Edge 268, Type (0, 0), None
#     Edge 269, Type (0, 0), None
#     Edge 270, Type (0, 0), None
#     Edge 271, Type (0, 0), None
#     Edge 272, Type (0, 0), None
#     Edge 273, Type (0, 0), None
#     Edge 274, Type (0, 0), None
#     Edge 275, Type (0, 0), None
#     Edge 276, Type (0, 0), None
#     Edge 277, Type (0, 0), None
#     Edge 278, Type (0, 0), None
#     Edge 279, Type (0, 0), None
#     Edge 280, Type (0, 0), None
#     Edge 281, Type (0, 0), None
#     Edge 282, Type (0, 0), None
#     Edge 283, Type (0, 0), None
#     Edge 284, Type (0, 0), None
#     Edge 285, Type (0, 0), None
#     Edge 286, Type (0, 0), None
#     Edge 287, Type (0, 0), None
#     Edge 288, Type (0, 0), None
#     Edge 289, Type (0, 0), None
#     Edge 290, Type (0, 0), None
#     Edge 291, Type (0, 0), None
#     Edge 292, Type (0, 0), None
#     Edge 293, Type (0, 0), None
#     Edge 294, Type (0, 0), None
#     Edge 295, Type (0, 0), None
#     Edge 296, Type (0, 0), None
#     Edge 297, Type (0, 0), None
#     Edge 298, Type (0, 0), None
#     Edge 299, Type (0, 0), None
#     Edge 300, Type (0, 0), None
#     Edge 301, Type (0, 0), None
#     Edge 302, Type (0, 0), None
#     Edge 303, Type (0, 0), None
#     Edge 304, Type (0, 0), None
#     Edge 305, Type (0, 0), None
#     Edge 306, Type (0, 0), None
#     Edge 307, Type (0, 0), None
#     Edge 308, Type (0, 0), None
#     Edge 309, Type (0, 0), None
#     Edge 310, Type (0, 0), None
#     Edge 311, Type (0, 0), None
#     Edge 312, Type (0, 0), None
#     Edge 313, Type (0, 0), None
#     Edge 314, Type (0, 0), None
#     Edge 315, Type (0, 0), None
#     Edge 316, Type (0, 0), None
#     Edge 317, Type (0, 0), None
#     Edge 318, Type (0, 0), None
#     Edge 319, Type (0, 0), None
#     Edge 320, Type (0, 0), None
#     Edge 321, Type (0, 0), None
#     Edge 322, Type (0, 0), None
#     Edge 323, Type (0, 0), None
#     Edge 324, Type (0, 0), None
#     Edge 325, Type (0, 0), None
#     Edge 326, Type (0, 0), None
#     Edge 327, Type (0, 0), None
#     Edge 328, Type (0, 0), None
#     Edge 329, Type (0, 0), None
#     Edge 330, Type (0, 0), None
#     Edge 331, Type (0, 0), None
#     Edge 332, Type (0, 0), None
#     Edge 333, Type (0, 0), None
#     Edge 334, Type (0, 0), None
#     Edge 335, Type (0, 0), None
# Relax obj value: 0.515
# Max RMSD: 0.252
# Mean RMSD: 0.252
data_MOF--net-fcf--node1-BEQFEK_clean_sbu_0--edge1-none
_symmetry_space_group_name_H-M    P1
_symmetry_Int_Tables_number       1
_symmetry_cell_setting            triclinic
loop_
_symmetry_equiv_pos_as_xyz
'x, y, z'
_cell_length_a     45.103444
_cell_length_b     45.103585
_cell_length_c     45.103655
_cell_angle_alpha  90.000463
_cell_angle_beta   89.999983
_cell_angle_gamma 89.999578
loop_
_atom_site_label
_atom_site_type_symbol
_atom_site_fract_x
_atom_site_fract_y
_atom_site_fract_z
_atom_type_partial_charge
Co0 Co -0.00107 0.4206 0.15584 0.0
Co1 Co 0.04187 0.37064 0.13966 0.0
C2 C 0.00786 0.40802 0.09723 0.0
O3 O 0.00982 0.42929 0.11509 0.0
O4 O 0.01861 0.38326 0.10445 0.0
C5 C 0.9866 0.48206 0.15641 0.0
O6 O 0.01164 0.48311 0.14165 0.0
C7 C 0.0956 0.36901 0.10826 0.0
C8 C 0.10959 0.32224 0.10618 0.0
C9 C 0.11715 0.3506 0.09701 0.0
N10 N 0.07642 0.35278 0.124 0.0
N11 N 0.08493 0.32474 0.12308 0.0
C12 C 0.09156 0.40129 0.10153 0.0
H13 H 0.07405 0.41117 0.11564 0.0
H14 H 0.11272 0.41333 0.10497 0.0
H15 H 0.08523 0.40397 0.0779 0.0
C16 C 0.04464 0.43492 0.20032 0.0
N17 N 0.03308 0.41797 0.17869 0.0
N18 N 0.0528 0.39844 0.17006 0.0
C19 C 0.07786 0.4028 0.18584 0.0
C20 C 0.07368 0.42629 0.20533 0.0
C21 C 0.02977 0.46157 0.21331 0.0
H22 H 0.00554 0.45784 0.21504 0.0
H23 H 0.03396 0.48106 0.19893 0.0
H24 H 0.03891 0.46651 0.23563 0.0
O25 O 0.97669 0.38079 0.15636 0.0
O26 O 0.0113 0.34479 0.15504 0.0
H27 H 0.12119 0.38882 0.20031 0.0
H28 H 0.11798 0.39662 0.16138 0.0
C29 C 0.10644 0.38676 0.18071 0.0
H30 H 0.10213 0.36301 0.1761 0.0
H31 H 0.07332 0.30727 0.13286 0.0
O32 O 0.97653 0.4572 0.16572 0.0
C33 C 0.98421 0.35322 0.15647 0.0
Co34 Co 0.8938 0.24898 0.40607 0.0
Co35 Co 0.94376 0.29194 0.3899 0.0
C36 C 0.90642 0.25791 0.34744 0.0
O37 O 0.88514 0.25982 0.36529 0.0
O38 O 0.93117 0.26867 0.35469 0.0
C39 C 0.83234 0.23667 0.40659 0.0
O40 O 0.83132 0.26171 0.39183 0.0
C41 C 0.9454 0.34564 0.35847 0.0
C42 C 0.99216 0.35963 0.35639 0.0
C43 C 0.96381 0.36717 0.3472 0.0
N44 N 0.96161 0.32648 0.37425 0.0
N45 N 0.98966 0.33499 0.37332 0.0
C46 C 0.91311 0.34157 0.35172 0.0
H47 H 0.90323 0.32407 0.36584 0.0
H48 H 0.90106 0.36274 0.35514 0.0
H49 H 0.91045 0.33522 0.3281 0.0
C50 C 0.87944 0.2947 0.45052 0.0
N51 N 0.89641 0.28314 0.4289 0.0
N52 N 0.91593 0.30287 0.42028 0.0
C53 C 0.91155 0.32794 0.43604 0.0
C54 C 0.88804 0.32375 0.45552 0.0
C55 C 0.85279 0.27982 0.46351 0.0
H56 H 0.85654 0.25559 0.46525 0.0
H57 H 0.8333 0.284 0.44913 0.0
H58 H 0.84785 0.28896 0.48583 0.0
O59 O 0.93362 0.22675 0.40661 0.0
O60 O 0.96961 0.26138 0.4053 0.0
H61 H 0.92548 0.37129 0.45049 0.0
H62 H 0.91771 0.36804 0.41155 0.0
C63 C 0.92757 0.35652 0.4309 0.0
H64 H 0.95133 0.35223 0.42631 0.0
H65 H 0.00712 0.32339 0.38311 0.0
O66 O 0.85719 0.22659 0.41593 0.0
C67 C 0.96119 0.23428 0.40673 0.0
Co68 Co 0.06563 0.14381 0.65588 0.0
Co69 Co 0.02269 0.19379 0.63975 0.0
C70 C 0.05671 0.15648 0.59727 0.0
O71 O 0.05478 0.13518 0.6151 0.0
O72 O 0.04597 0.18123 0.60453 0.0
C73 C 0.0779 0.08235 0.65637 0.0
O74 O 0.05285 0.08135 0.64162 0.0
C75 C 0.96898 0.19547 0.60834 0.0
C76 C 0.95498 0.24224 0.60633 0.0
C77 C 0.94743 0.2139 0.59712 0.0
N78 N 0.98815 0.21167 0.62411 0.0
N79 N 0.97964 0.23972 0.62323 0.0
C80 C 0.97303 0.16319 0.60156 0.0
H81 H 0.99053 0.15329 0.61566 0.0
H82 H 0.95186 0.15115 0.60499 0.0
H83 H 0.97935 0.16054 0.57794 0.0
C84 C 0.01992 0.12944 0.70033 0.0
N85 N 0.03148 0.14642 0.67872 0.0
N86 N 0.01175 0.16595 0.6701 0.0
C87 C 0.98669 0.16157 0.68587 0.0
C88 C 0.99087 0.13806 0.70535 0.0
C89 C 0.0348 0.10279 0.71332 0.0
H90 H 0.05903 0.10653 0.71504 0.0
H91 H 0.03061 0.0833 0.69893 0.0
H92 H 0.02567 0.09785 0.73564 0.0
O93 O 0.08787 0.18364 0.65646 0.0
O94 O 0.05325 0.21963 0.65518 0.0
H95 H 0.94335 0.17551 0.70035 0.0
H96 H 0.94658 0.16776 0.66141 0.0
C97 C 0.95811 0.17761 0.68076 0.0
H98 H 0.96241 0.20136 0.67618 0.0
H99 H 0.99124 0.25717 0.63304 0.0
O100 O 0.088 0.10718 0.66571 0.0
C101 C 0.08034 0.21121 0.65661 0.0
Co102 Co 0.17074 0.31557 0.90591 0.0
Co103 Co 0.12077 0.27264 0.8897 0.0
C104 C 0.15816 0.30666 0.84729 0.0
O105 O 0.17943 0.30471 0.86515 0.0
O106 O 0.13339 0.29592 0.85451 0.0
C107 C 0.23221 0.32792 0.90644 0.0
O108 O 0.23325 0.30289 0.89167 0.0
C109 C 0.11912 0.21892 0.85828 0.0
C110 C 0.07234 0.20498 0.85618 0.0
C111 C 0.10069 0.19741 0.84701 0.0
N112 N 0.10291 0.23811 0.87404 0.0
N113 N 0.07486 0.22962 0.8731 0.0
C114 C 0.15141 0.22295 0.85155 0.0
H115 H 0.1613 0.24045 0.86568 0.0
H116 H 0.16343 0.20178 0.855 0.0
H117 H 0.1541 0.22929 0.82794 0.0
C118 C 0.18506 0.26983 0.95036 0.0
N119 N 0.16811 0.28141 0.92873 0.0
N120 N 0.14857 0.2617 0.9201 0.0
C121 C 0.15291 0.23663 0.93588 0.0
C122 C 0.17641 0.24079 0.95537 0.0
C123 C 0.21174 0.28468 0.96334 0.0
H124 H 0.20801 0.30891 0.96509 0.0
H125 H 0.23121 0.2805 0.94892 0.0
H126 H 0.21669 0.27552 0.98564 0.0
O127 O 0.13092 0.33781 0.90644 0.0
O128 O 0.09492 0.3032 0.9051 0.0
H129 H 0.13891 0.19331 0.95035 0.0
H130 H 0.1467 0.19653 0.91141 0.0
C131 C 0.13685 0.20807 0.93075 0.0
H132 H 0.1131 0.2124 0.92614 0.0
H133 H 0.0574 0.24124 0.88288 0.0
O134 O 0.20735 0.33797 0.91579 0.0
C135 C 0.10335 0.33029 0.90655 0.0
Co136 Co -0.0011 0.64375 0.90852 0.0
Co137 Co 0.04182 0.69373 0.92473 0.0
C138 C 0.00779 0.65636 0.96715 0.0
O139 O 0.00974 0.63508 0.94929 0.0
O140 O 0.01853 0.68112 0.95992 0.0
C141 C 0.98659 0.58229 0.90798 0.0
O142 O 0.01162 0.58126 0.92275 0.0
C143 C 0.09553 0.6954 0.95618 0.0
C144 C 0.10951 0.74217 0.95822 0.0
C145 C 0.11706 0.71382 0.96743 0.0
N146 N 0.07636 0.7116 0.94041 0.0
N147 N 0.08486 0.73965 0.94131 0.0
C148 C 0.09148 0.66311 0.96293 0.0
H149 H 0.074 0.65321 0.9488 0.0
H150 H 0.11266 0.65108 0.95953 0.0
H151 H 0.08512 0.66044 0.98654 0.0
C152 C 0.04465 0.62943 0.86409 0.0
N153 N 0.03307 0.64639 0.88571 0.0
N154 N 0.05278 0.66592 0.89435 0.0
C155 C 0.07786 0.66155 0.87859 0.0
C156 C 0.07369 0.63805 0.8591 0.0
C157 C 0.02979 0.60277 0.85109 0.0
H158 H 0.00556 0.6065 0.84935 0.0
H159 H 0.03397 0.58328 0.86549 0.0
H160 H 0.03895 0.59783 0.82878 0.0
O161 O 0.97665 0.68357 0.90797 0.0
O162 O 0.01125 0.71957 0.90932 0.0
H163 H 0.12121 0.67552 0.86416 0.0
H164 H 0.11795 0.66774 0.9031 0.0
C165 C 0.10643 0.67759 0.88374 0.0
H166 H 0.10212 0.70135 0.88833 0.0
H167 H 0.07326 0.7571 0.93151 0.0
O168 O 0.97652 0.60714 0.89864 0.0
C169 C 0.98416 0.71114 0.90786 0.0
Co170 Co 0.67057 0.24893 0.15844 0.0
Co171 Co 0.62061 0.29187 0.17464 0.0
C172 C 0.65796 0.25783 0.21708 0.0
O173 O 0.67924 0.25974 0.19922 0.0
O174 O 0.63321 0.26858 0.20984 0.0
C175 C 0.73203 0.23664 0.1579 0.0
O176 O 0.73304 0.26169 0.17265 0.0
C177 C 0.619 0.34556 0.2061 0.0
C178 C 0.57225 0.3596 0.20815 0.0
C179 C 0.60061 0.36711 0.21736 0.0
N180 N 0.60277 0.32642 0.19032 0.0
N181 N 0.57474 0.33495 0.19123 0.0
C182 C 0.65128 0.34148 0.21285 0.0
H183 H 0.66116 0.32399 0.19871 0.0
H184 H 0.66334 0.36264 0.20945 0.0
H185 H 0.65394 0.33511 0.23646 0.0
C186 C 0.68492 0.29466 0.11401 0.0
N187 N 0.66796 0.28309 0.13563 0.0
N188 N 0.64844 0.30283 0.14427 0.0
C189 C 0.65283 0.3279 0.12852 0.0
C190 C 0.67633 0.32372 0.10903 0.0
C191 C 0.71155 0.27977 0.10099 0.0
H192 H 0.7078 0.25555 0.09926 0.0
H193 H 0.73106 0.28395 0.11535 0.0
H194 H 0.71647 0.28891 0.07867 0.0
O195 O 0.63075 0.2267 0.15789 0.0
O196 O 0.59475 0.26132 0.15922 0.0
H197 H 0.63892 0.37127 0.1141 0.0
H198 H 0.64669 0.36799 0.15303 0.0
C199 C 0.63682 0.35649 0.13368 0.0
H200 H 0.61307 0.3522 0.13827 0.0
H201 H 0.55727 0.32337 0.18142 0.0
O202 O 0.70719 0.22655 0.14857 0.0
C203 C 0.60317 0.23423 0.15777 0.0
Co204 Co 0.06553 0.92073 0.40843 0.0
Co205 Co 0.02259 0.87074 0.42458 0.0
C206 C 0.05662 0.90806 0.46705 0.0
O207 O 0.05469 0.92935 0.44921 0.0
O208 O 0.04587 0.88331 0.45979 0.0
C209 C 0.07782 0.9822 0.40795 0.0
O210 O 0.05278 0.9832 0.42272 0.0
C211 C 0.96889 0.86908 0.45602 0.0
C212 C 0.95488 0.82231 0.45803 0.0
C213 C 0.94734 0.85066 0.46726 0.0
N214 N 0.98805 0.85288 0.44023 0.0
N215 N 0.97953 0.82483 0.44111 0.0
C216 C 0.97295 0.90136 0.4628 0.0
H217 H 0.99043 0.91126 0.44868 0.0
H218 H 0.95178 0.9134 0.45941 0.0
H219 H 0.97931 0.904 0.48642 0.0
C220 C 0.01981 0.93511 0.364 0.0
N221 N 0.03138 0.91813 0.38561 0.0
N222 N 0.01165 0.8986 0.39423 0.0
C223 C 0.98658 0.90299 0.37847 0.0
C224 C 0.99076 0.92651 0.359 0.0
C225 C 0.03469 0.96176 0.35102 0.0
H226 H 0.05892 0.95802 0.34928 0.0
H227 H 0.03051 0.98125 0.36541 0.0
H228 H 0.02555 0.96671 0.3287 0.0
O229 O 0.08778 0.88091 0.40785 0.0
O230 O 0.05316 0.84491 0.40915 0.0
H231 H 0.94322 0.88908 0.36403 0.0
H232 H 0.94648 0.89682 0.40297 0.0
C233 C 0.95799 0.88697 0.38361 0.0
H234 H 0.96228 0.86321 0.38818 0.0
H235 H 0.99111 0.80738 0.43129 0.0
O236 O 0.08791 0.95736 0.3986 0.0
C237 C 0.08025 0.85333 0.40771 0.0
Co238 Co 0.39373 0.31552 0.65848 0.0
Co239 Co 0.44369 0.27259 0.67471 0.0
C240 C 0.40628 0.3066 0.7171 0.0
O241 O 0.38502 0.30464 0.69922 0.0
O242 O 0.43105 0.29586 0.7099 0.0
C243 C 0.33226 0.32788 0.65791 0.0
O244 O 0.3312 0.30284 0.67267 0.0
C245 C 0.44535 0.21887 0.70615 0.0
C246 C 0.49213 0.20493 0.70824 0.0
C247 C 0.46378 0.19736 0.71742 0.0
N248 N 0.46156 0.23805 0.69038 0.0
N249 N 0.48961 0.22957 0.69132 0.0
C250 C 0.41306 0.2229 0.71287 0.0
H251 H 0.40317 0.24038 0.69874 0.0
H252 H 0.40104 0.20172 0.70945 0.0
H253 H 0.41037 0.22925 0.73649 0.0
C254 C 0.37944 0.2698 0.61401 0.0
N255 N 0.39638 0.28137 0.63565 0.0
N256 N 0.4159 0.26165 0.6443 0.0
C257 C 0.41155 0.23658 0.62853 0.0
C258 C 0.38806 0.24076 0.60902 0.0
C259 C 0.35278 0.28466 0.60101 0.0
H260 H 0.35652 0.30889 0.59927 0.0
H261 H 0.33329 0.28049 0.6154 0.0
H262 H 0.34785 0.27551 0.5787 0.0
O263 O 0.43354 0.33777 0.65797 0.0
O264 O 0.46955 0.30316 0.65933 0.0
H265 H 0.42552 0.19324 0.61409 0.0
H266 H 0.41771 0.19649 0.65302 0.0
C267 C 0.42758 0.20801 0.63368 0.0
H268 H 0.45133 0.21231 0.63829 0.0
H269 H 0.50707 0.24118 0.68154 0.0
O270 O 0.35712 0.33793 0.64858 0.0
C271 C 0.46112 0.33026 0.65787 0.0
Co272 Co 0.15588 -0.00102 0.42053 0.0
Co273 Co 0.13967 0.04192 0.37057 0.0
C274 C 0.09726 0.00794 0.40797 0.0
O275 O 0.11513 0.00986 0.42924 0.0
O276 O 0.10446 0.01867 0.3832 0.0
C277 C 0.15646 0.98667 0.48199 0.0
O278 O 0.14172 0.01172 0.48303 0.0
C279 C 0.10827 0.09565 0.36891 0.0
C280 C 0.10621 0.10963 0.32214 0.0
C281 C 0.09703 0.11719 0.3505 0.0
N282 N 0.12402 0.07647 0.3527 0.0
N283 N 0.12311 0.08497 0.32465 0.0
C284 C 0.10153 0.09161 0.4012 0.0
H285 H 0.11566 0.07412 0.41109 0.0
H286 H 0.10496 0.11278 0.41323 0.0
H287 H 0.07791 0.08527 0.40388 0.0
C288 C 0.20036 0.04468 0.43483 0.0
N289 N 0.17872 0.03312 0.41788 0.0
N290 N 0.17008 0.05285 0.39837 0.0
C291 C 0.18585 0.07792 0.40275 0.0
C292 C 0.20535 0.07373 0.42623 0.0
C293 C 0.21337 0.02979 0.46147 0.0
H294 H 0.21509 0.00556 0.45772 0.0
H295 H 0.19901 0.03397 0.48098 0.0
H296 H 0.2357 0.03892 0.46638 0.0
O297 O 0.15639 0.97673 0.38073 0.0
O298 O 0.15504 0.01133 0.34472 0.0
H299 H 0.2003 0.12127 0.38881 0.0
H300 H 0.16137 0.11802 0.39661 0.0
C301 C 0.18071 0.1065 0.38673 0.0
H302 H 0.1761 0.10221 0.36298 0.0
H303 H 0.13289 0.07336 0.30719 0.0
O304 O 0.16577 0.97659 0.45713 0.0
C305 C 0.15649 0.98424 0.35315 0.0
Co306 Co 0.31548 0.40603 0.6706 0.0
Co307 Co 0.27255 0.38985 0.62062 0.0
C308 C 0.30657 0.34739 0.65795 0.0
O309 O 0.3047 0.36524 0.67925 0.0
O310 O 0.29583 0.35464 0.6332 0.0
C311 C 0.32774 0.40655 0.73206 0.0
O312 O 0.30269 0.39179 0.73305 0.0
C313 C 0.21886 0.35841 0.61895 0.0
C314 C 0.20487 0.35637 0.57218 0.0
C315 C 0.19733 0.34716 0.60053 0.0
N316 N 0.23802 0.3742 0.60274 0.0
N317 N 0.22951 0.3733 0.5747 0.0
C318 C 0.22292 0.35164 0.65123 0.0
H319 H 0.24041 0.36576 0.66112 0.0
H320 H 0.20175 0.35506 0.66327 0.0
H321 H 0.22927 0.32803 0.65388 0.0
C322 C 0.26974 0.45045 0.68495 0.0
N323 N 0.28131 0.42884 0.66799 0.0
N324 N 0.26159 0.4202 0.64845 0.0
C325 C 0.23652 0.43596 0.65283 0.0
C326 C 0.24069 0.45545 0.67633 0.0
C327 C 0.28461 0.46347 0.71159 0.0
H328 H 0.30884 0.4652 0.70785 0.0
H329 H 0.28043 0.44909 0.73109 0.0
H330 H 0.27547 0.48578 0.71652 0.0
O331 O 0.33773 0.40661 0.63079 0.0
O332 O 0.30311 0.40529 0.59479 0.0
H333 H 0.19317 0.4504 0.63889 0.0
H334 H 0.19643 0.41147 0.64664 0.0
C335 C 0.20794 0.43082 0.6368 0.0
H336 H 0.21225 0.42624 0.61304 0.0
H337 H 0.24111 0.3831 0.55724 0.0
O338 O 0.33784 0.4159 0.70723 0.0
C339 C 0.3302 0.40674 0.60321 0.0
Co340 Co 0.90846 0.56547 0.92062 0.0
Co341 Co 0.92469 0.52255 0.87064 0.0
C342 C 0.96711 0.55658 0.90801 0.0
O343 O 0.94925 0.55468 0.92929 0.0
O344 O 0.95988 0.54583 0.88325 0.0
C345 C 0.90792 0.57774 0.98208 0.0
O346 O 0.92269 0.55271 0.98309 0.0
C347 C 0.95616 0.46887 0.86894 0.0
C348 C 0.95821 0.4549 0.82217 0.0
C349 C 0.96743 0.44735 0.85051 0.0
N350 N 0.94037 0.48803 0.85275 0.0
N351 N 0.94127 0.47954 0.8247 0.0
C352 C 0.96292 0.47291 0.90123 0.0
H353 H 0.94879 0.49038 0.91113 0.0
H354 H 0.95953 0.45173 0.91326 0.0
H355 H 0.98653 0.47927 0.90389 0.0
C356 C 0.86406 0.5197 0.93495 0.0
N357 N 0.88567 0.53129 0.91799 0.0
N358 N 0.89433 0.51156 0.89847 0.0
C359 C 0.87859 0.48648 0.90285 0.0
C360 C 0.85909 0.49065 0.92634 0.0
C361 C 0.85103 0.53457 0.96159 0.0
H362 H 0.84928 0.5588 0.95785 0.0
H363 H 0.86541 0.5304 0.9811 0.0
H364 H 0.82872 0.52541 0.96652 0.0
O365 O 0.90789 0.58772 0.88082 0.0
O366 O 0.90925 0.55311 0.84481 0.0
H367 H 0.86418 0.44312 0.88891 0.0
H368 H 0.90312 0.44641 0.89668 0.0
C369 C 0.88376 0.4579 0.88683 0.0
H370 H 0.88834 0.46221 0.86307 0.0
H371 H 0.93145 0.49113 0.80725 0.0
O372 O 0.89857 0.58783 0.95724 0.0
C373 C 0.90778 0.5802 0.85324 0.0
Co374 Co 0.74886 0.15857 0.17068 0.0
Co375 Co 0.79178 0.1747 0.12067 0.0
C376 C 0.75776 0.21718 0.15797 0.0
O377 O 0.75967 0.19936 0.17928 0.0
O378 O 0.7685 0.20992 0.13321 0.0
C379 C 0.7366 0.15811 0.23214 0.0
O380 O 0.76163 0.17289 0.23312 0.0
C381 C 0.84548 0.20614 0.11896 0.0
C382 C 0.85952 0.20806 0.0722 0.0
C383 C 0.86704 0.21733 0.10053 0.0
N384 N 0.82632 0.19034 0.10277 0.0
N385 N 0.83485 0.19116 0.07473 0.0
C386 C 0.84142 0.21296 0.15122 0.0
H387 H 0.82395 0.19883 0.16115 0.0
H388 H 0.86259 0.20962 0.16327 0.0
H389 H 0.83502 0.23657 0.15383 0.0
C390 C 0.79462 0.11417 0.18507 0.0
N391 N 0.78303 0.13576 0.16808 0.0
N392 N 0.80275 0.14438 0.14854 0.0
C393 C 0.82783 0.12863 0.15293 0.0
C394 C 0.82366 0.10917 0.17646 0.0
C395 C 0.77975 0.10119 0.21174 0.0
H396 H 0.75552 0.09945 0.20801 0.0
H397 H 0.78393 0.1156 0.23122 0.0
H398 H 0.7889 0.07889 0.2167 0.0
O399 O 0.72661 0.15794 0.13087 0.0
O400 O 0.76121 0.15923 0.09486 0.0
H401 H 0.8521 0.1383 0.11313 0.0
H402 H 0.87119 0.11419 0.13901 0.0
C403 C 0.8564 0.13376 0.13689 0.0
H404 H 0.86791 0.15314 0.14671 0.0
H405 H 0.82327 0.18131 0.05729 0.0
O406 O 0.72651 0.14874 0.20732 0.0
C407 C 0.73412 0.15779 0.10329 0.0
Co408 Co 0.15596 0.06556 0.64371 0.0
Co409 Co 0.13979 0.02261 0.69368 0.0
C410 C 0.09734 0.05661 0.65633 0.0
O411 O 0.11519 0.05469 0.63504 0.0
O412 O 0.10457 0.04587 0.68109 0.0
C413 C 0.15647 0.07785 0.58224 0.0
O414 O 0.14173 0.0528 0.58123 0.0
C415 C 0.10837 0.96889 0.69536 0.0
C416 C 0.10634 0.95491 0.74213 0.0
C417 C 0.09713 0.94736 0.71379 0.0
N418 N 0.12415 0.98807 0.71156 0.0
N419 N 0.12326 0.97956 0.73961 0.0
C420 C 0.10159 0.97294 0.66308 0.0
H421 H 0.11571 0.99042 0.65318 0.0
H422 H 0.105 0.95176 0.65105 0.0
H423 H 0.07797 0.97929 0.66043 0.0
C424 C 0.2004 0.01984 0.62935 0.0
N425 N 0.17879 0.0314 0.64632 0.0
N426 N 0.17016 0.01167 0.66584 0.0
C427 C 0.18592 0.9866 0.66145 0.0
C428 C 0.2054 0.99079 0.63795 0.0
C429 C 0.2134 0.03472 0.60271 0.0
H430 H 0.21513 0.05895 0.60645 0.0
H431 H 0.19902 0.03054 0.58321 0.0
H432 H 0.23572 0.02559 0.59777 0.0
O433 O 0.15651 0.0878 0.68352 0.0
O434 O 0.1552 0.05318 0.71952 0.0
H435 H 0.20036 0.94324 0.67537 0.0
H436 H 0.16143 0.9465 0.66761 0.0
C437 C 0.18078 0.95801 0.67747 0.0
H438 H 0.1762 0.96231 0.70123 0.0
H439 H 0.13306 0.99117 0.75706 0.0
O440 O 0.16581 0.08794 0.60708 0.0
C441 C 0.15663 0.08028 0.7111 0.0
Co442 Co 0.24896 0.40606 0.89377 0.0
Co443 Co 0.2919 0.38988 0.94375 0.0
C444 C 0.2579 0.34743 0.9064 0.0
O445 O 0.25977 0.36528 0.88511 0.0
O446 O 0.26864 0.35467 0.93116 0.0
C447 C 0.23668 0.40659 0.83231 0.0
O448 O 0.26173 0.39183 0.83131 0.0
C449 C 0.3456 0.35845 0.9454 0.0
C450 C 0.35959 0.35639 0.99217 0.0
C451 C 0.36713 0.34719 0.96381 0.0
N452 N 0.32644 0.37423 0.96161 0.0
N453 N 0.33495 0.37332 0.98966 0.0
C454 C 0.34153 0.35169 0.91312 0.0
H455 H 0.32404 0.36581 0.90323 0.0
H456 H 0.36269 0.35509 0.90107 0.0
H457 H 0.33517 0.32807 0.91047 0.0
C458 C 0.2947 0.45049 0.87942 0.0
N459 N 0.28313 0.42888 0.89639 0.0
N460 N 0.30285 0.42025 0.91592 0.0
C461 C 0.32792 0.436 0.91154 0.0
C462 C 0.32375 0.45549 0.88803 0.0
C463 C 0.27983 0.4635 0.85277 0.0
H464 H 0.2556 0.46523 0.85651 0.0
H465 H 0.28401 0.44911 0.83328 0.0
H466 H 0.28897 0.48581 0.84784 0.0
O467 O 0.22672 0.40662 0.93359 0.0
O468 O 0.26134 0.4053 0.96959 0.0
H469 H 0.37127 0.45045 0.92548 0.0
H470 H 0.36802 0.41151 0.91772 0.0
C471 C 0.3565 0.43086 0.92757 0.0
H472 H 0.3522 0.42628 0.95133 0.0
H473 H 0.32336 0.38312 0.00712 0.0
O474 O 0.22659 0.41593 0.85715 0.0
C475 C 0.23424 0.40674 0.96116 0.0
Co476 Co 0.90846 0.49884 0.14381 0.0
Co477 Co 0.92469 0.54178 0.19377 0.0
C478 C 0.96711 0.50777 0.15639 0.0
O479 O 0.94924 0.50965 0.13512 0.0
O480 O 0.9599 0.51851 0.18116 0.0
C481 C 0.9079 0.48656 0.08235 0.0
O482 O 0.92265 0.51161 0.08134 0.0
C483 C 0.95615 0.59547 0.19545 0.0
C484 C 0.9582 0.60945 0.24223 0.0
C485 C 0.96741 0.61699 0.21388 0.0
N486 N 0.94036 0.57631 0.21165 0.0
N487 N 0.94127 0.58481 0.2397 0.0
C488 C 0.96292 0.59143 0.16317 0.0
H489 H 0.94877 0.57395 0.15327 0.0
H490 H 0.95953 0.61261 0.15114 0.0
H491 H 0.98653 0.58505 0.16051 0.0
C492 C 0.86404 0.54459 0.12949 0.0
N493 N 0.88566 0.53301 0.14644 0.0
N494 N 0.89432 0.55274 0.16595 0.0
C495 C 0.87857 0.57782 0.16157 0.0
C496 C 0.85906 0.57364 0.13808 0.0
C497 C 0.851 0.5297 0.10286 0.0
H498 H 0.84927 0.50547 0.10661 0.0
H499 H 0.86536 0.53388 0.08334 0.0
H500 H 0.82868 0.53885 0.09794 0.0
O501 O 0.90791 0.4766 0.18363 0.0
O502 O 0.90927 0.51123 0.21962 0.0
H503 H 0.86417 0.62119 0.17549 0.0
H504 H 0.9031 0.6179 0.16771 0.0
C505 C 0.88374 0.60641 0.17758 0.0
H506 H 0.88833 0.60211 0.20134 0.0
H507 H 0.93145 0.57321 0.25715 0.0
O508 O 0.89857 0.47647 0.10719 0.0
C509 C 0.90781 0.48413 0.2112 0.0
Co510 Co 0.81558 0.15859 0.39387 0.0
Co511 Co 0.77264 0.1747 0.44387 0.0
C512 C 0.80662 0.21719 0.40654 0.0
O513 O 0.80472 0.19936 0.38524 0.0
O514 O 0.7959 0.20993 0.4313 0.0
C515 C 0.82786 0.15812 0.33241 0.0
O516 O 0.80282 0.17288 0.33141 0.0
C517 C 0.71892 0.20609 0.44553 0.0
C518 C 0.7049 0.20808 0.49229 0.0
C519 C 0.69736 0.2173 0.46394 0.0
N520 N 0.7381 0.19032 0.46174 0.0
N521 N 0.72957 0.1912 0.48978 0.0
C522 C 0.72298 0.21287 0.41325 0.0
H523 H 0.74048 0.19877 0.40336 0.0
H524 H 0.70182 0.20946 0.4012 0.0
H525 H 0.72933 0.2365 0.41062 0.0
C526 C 0.76986 0.11415 0.37948 0.0
N527 N 0.78143 0.13575 0.39647 0.0
N528 N 0.7617 0.14435 0.41601 0.0
C529 C 0.73664 0.12859 0.41163 0.0
C530 C 0.74082 0.10913 0.3881 0.0
C531 C 0.78472 0.10119 0.35281 0.0
H532 H 0.80896 0.09946 0.35653 0.0
H533 H 0.78053 0.1156 0.33333 0.0
H534 H 0.77559 0.07888 0.34784 0.0
O535 O 0.83783 0.15801 0.43368 0.0
O536 O 0.80322 0.15928 0.46969 0.0
H537 H 0.69331 0.11409 0.42558 0.0
H538 H 0.69652 0.15303 0.41785 0.0
C539 C 0.70807 0.13368 0.42768 0.0
H540 H 0.71238 0.13825 0.45144 0.0
H541 H 0.74116 0.18139 0.50723 0.0
O542 O 0.83795 0.14876 0.35724 0.0
C543 C 0.83032 0.15786 0.46125 0.0
Co544 Co 0.42055 0.1559 -0.00102 0.0
Co545 Co 0.37059 0.13969 0.04191 0.0
C546 C 0.40796 0.09727 0.00787 0.0
O547 O 0.42924 0.11513 0.00983 0.0
O548 O 0.3832 0.1045 0.01862 0.0
C549 C 0.48201 0.15646 0.98665 0.0
O550 O 0.48305 0.14169 0.01169 0.0
C551 C 0.36897 0.10827 0.09562 0.0
C552 C 0.32221 0.1062 0.10964 0.0
C553 C 0.35057 0.09702 0.11717 0.0
N554 N 0.35274 0.12402 0.07645 0.0
N555 N 0.3247 0.12311 0.08498 0.0
C556 C 0.40125 0.10153 0.09156 0.0
H557 H 0.41113 0.11565 0.07406 0.0
H558 H 0.4133 0.10495 0.11272 0.0
H559 H 0.40393 0.07791 0.08521 0.0
C560 C 0.43489 0.20034 0.04471 0.0
N561 N 0.41793 0.17872 0.03314 0.0
N562 N 0.3984 0.17008 0.05286 0.0
C563 C 0.40278 0.18584 0.07793 0.0
C564 C 0.42627 0.20533 0.07376 0.0
C565 C 0.46153 0.21335 0.02984 0.0
H566 H 0.45779 0.21508 0.00561 0.0
H567 H 0.48103 0.19896 0.03401 0.0
H568 H 0.46647 0.23566 0.03898 0.0
O569 O 0.38074 0.15644 0.97674 0.0
O570 O 0.34473 0.1551 0.01134 0.0
H571 H 0.38882 0.20028 0.12128 0.0
H572 H 0.39661 0.16135 0.11803 0.0
C573 C 0.38675 0.18069 0.10651 0.0
H574 H 0.36299 0.17609 0.10221 0.0
H575 H 0.30723 0.1329 0.07339 0.0
O576 O 0.45716 0.16578 0.97659 0.0
C577 C 0.35316 0.15655 0.98425 0.0
Co578 Co 0.92064 0.90849 0.56547 0.0
Co579 Co 0.87064 0.92475 0.52259 0.0
C580 C 0.908 0.96714 0.55669 0.0
O581 O 0.92928 0.9493 0.55475 0.0
O582 O 0.88324 0.95991 0.54593 0.0
C583 C 0.98209 0.90797 0.57779 0.0
O584 O 0.98311 0.9228 0.55279 0.0
C585 C 0.86901 0.95627 0.46894 0.0
C586 C 0.82227 0.95827 0.45487 0.0
C587 C 0.85062 0.96751 0.44738 0.0
N588 N 0.85279 0.94047 0.48808 0.0
N589 N 0.82476 0.94135 0.47952 0.0
C590 C 0.90129 0.96303 0.47303 0.0
H591 H 0.91118 0.94887 0.49049 0.0
H592 H 0.91335 0.95968 0.45185 0.0
H593 H 0.90394 0.98664 0.47944 0.0
C594 C 0.93503 0.8642 0.51961 0.0
N595 N 0.91803 0.88575 0.53126 0.0
N596 N 0.89847 0.89441 0.51157 0.0
C597 C 0.90284 0.87872 0.48645 0.0
C598 C 0.9264 0.85931 0.49056 0.0
C599 C 0.96173 0.85121 0.53441 0.0
H600 H 0.95803 0.8494 0.55864 0.0
H601 H 0.98119 0.86564 0.53023 0.0
H602 H 0.9667 0.82893 0.5252 0.0
O603 O 0.88081 0.90788 0.58772 0.0
O604 O 0.8448 0.90926 0.55312 0.0
H605 H 0.88884 0.86432 0.44311 0.0
H606 H 0.89657 0.90326 0.44639 0.0
C607 C 0.88676 0.88389 0.4579 0.0
H608 H 0.863 0.88844 0.46225 0.0
H609 H 0.80729 0.93152 0.49108 0.0
O610 O 0.95725 0.89858 0.58784 0.0
C611 C 0.85324 0.90778 0.58021 0.0
Co612 Co 0.40583 0.1706 0.81554 0.0
Co613 Co 0.38968 0.12059 0.77264 0.0
C614 C 0.34722 0.15792 0.80668 0.0
O615 O 0.36505 0.17922 0.80471 0.0
O616 O 0.35448 0.13316 0.79594 0.0
C617 C 0.4063 0.23205 0.82785 0.0
O618 O 0.3915 0.23306 0.80283 0.0
C619 C 0.35825 0.11896 0.71893 0.0
C620 C 0.35632 0.07222 0.70483 0.0
C621 C 0.34708 0.10057 0.69733 0.0
N622 N 0.37402 0.10274 0.73809 0.0
N623 N 0.37318 0.07471 0.72952 0.0
C624 C 0.35146 0.15123 0.72302 0.0
H625 H 0.36559 0.16112 0.7405 0.0
H626 H 0.35483 0.16329 0.70185 0.0
H627 H 0.32785 0.15385 0.7294 0.0
C628 C 0.45019 0.18503 0.76975 0.0
N629 N 0.42863 0.16801 0.78137 0.0
N630 N 0.42002 0.14844 0.76167 0.0
C631 C 0.43574 0.15282 0.73657 0.0
C632 C 0.45512 0.17641 0.7407 0.0
C633 C 0.46313 0.21174 0.78457 0.0
H634 H 0.4649 0.20804 0.8088 0.0
H635 H 0.44869 0.23118 0.78037 0.0
H636 H 0.48542 0.21672 0.7754 0.0
O637 O 0.40643 0.13078 0.83779 0.0
O638 O 0.40513 0.09476 0.8032 0.0
H639 H 0.45022 0.13883 0.69325 0.0
H640 H 0.41127 0.14654 0.69647 0.0
C641 C 0.43063 0.13673 0.70802 0.0
H642 H 0.42609 0.11298 0.71236 0.0
H643 H 0.38301 0.05724 0.74109 0.0
O644 O 0.41568 0.20722 0.83792 0.0
C645 C 0.40656 0.1032 0.83029 0.0
Co646 Co 0.14384 0.6559 0.06557 0.0
Co647 Co 0.19384 0.63973 0.02266 0.0
C648 C 0.15653 0.59727 0.05672 0.0
O649 O 0.13522 0.6151 0.05478 0.0
O650 O 0.18128 0.60453 0.04597 0.0
C651 C 0.08238 0.65636 0.07786 0.0
O652 O 0.08138 0.64156 0.05284 0.0
C653 C 0.19549 0.60827 0.96897 0.0
C654 C 0.24224 0.60632 0.95489 0.0
C655 C 0.21389 0.59707 0.94739 0.0
N656 N 0.2117 0.62406 0.98812 0.0
N657 N 0.23973 0.62321 0.97957 0.0
C658 C 0.16322 0.60147 0.97305 0.0
H659 H 0.15332 0.61561 0.99053 0.0
H660 H 0.15116 0.60484 0.95189 0.0
H661 H 0.16059 0.57786 0.97944 0.0
C662 C 0.1294 0.70024 0.01976 0.0
N663 N 0.14642 0.67868 0.03138 0.0
N664 N 0.16598 0.67006 0.01167 0.0
C665 C 0.16159 0.68576 0.98657 0.0
C666 C 0.13802 0.70516 0.99071 0.0
C667 C 0.10271 0.7132 0.03458 0.0
H668 H 0.10641 0.71497 0.05882 0.0
H669 H 0.08325 0.69877 0.03039 0.0
H670 H 0.09773 0.73549 0.02541 0.0
O671 O 0.18366 0.65652 0.08781 0.0
O672 O 0.21966 0.6552 0.0532 0.0
H673 H 0.17557 0.70022 0.94324 0.0
H674 H 0.16786 0.66127 0.94649 0.0
C675 C 0.17767 0.68064 0.95802 0.0
H676 H 0.20143 0.6761 0.96235 0.0
H677 H 0.25719 0.63305 0.99113 0.0
O678 O 0.1072 0.66575 0.08793 0.0
C679 C 0.21123 0.65666 0.08029 0.0
Co680 Co 0.1584 0.89383 0.31547 0.0
Co681 Co 0.17457 0.9438 0.27252 0.0
C682 C 0.21703 0.9065 0.30658 0.0
O683 O 0.1992 0.8852 0.30468 0.0
O684 O 0.20977 0.93125 0.29582 0.0
C685 C 0.15792 0.83237 0.32775 0.0
O686 O 0.17269 0.83138 0.30272 0.0
C687 C 0.20607 0.94545 0.21886 0.0
C688 C 0.20814 0.99222 0.20486 0.0
C689 C 0.21736 0.96387 0.19734 0.0
N690 N 0.19025 0.96166 0.23799 0.0
N691 N 0.19117 0.9897 0.22948 0.0
C692 C 0.21282 0.91317 0.22293 0.0
H693 H 0.19868 0.90328 0.24041 0.0
H694 H 0.20943 0.90112 0.20176 0.0
H695 H 0.23643 0.91051 0.2293 0.0
C696 C 0.114 0.87944 0.26972 0.0
N697 N 0.1356 0.89642 0.28129 0.0
N698 N 0.14423 0.91594 0.26156 0.0
C699 C 0.1285 0.91153 0.23648 0.0
C700 C 0.10901 0.88802 0.24067 0.0
C701 C 0.10098 0.85281 0.28462 0.0
H702 H 0.09924 0.85657 0.30884 0.0
H703 H 0.11537 0.83331 0.28046 0.0
H704 H 0.07867 0.84787 0.27547 0.0
O705 O 0.1578 0.93365 0.33769 0.0
O706 O 0.15911 0.96964 0.30306 0.0
H707 H 0.11408 0.92542 0.1931 0.0
H708 H 0.15302 0.91766 0.1964 0.0
C709 C 0.13366 0.92753 0.20789 0.0
H710 H 0.13823 0.95129 0.21217 0.0
H711 H 0.18135 0.00716 0.24106 0.0
O712 O 0.14855 0.8572 0.33784 0.0
C713 C 0.15766 0.96123 0.33016 0.0
Co714 Co 0.64379 0.9085 -0.00104 0.0
Co715 Co 0.69378 0.9247 0.04187 0.0
C716 C 0.65642 0.96713 0.00782 0.0
O717 O 0.63514 0.94928 0.00978 0.0
O718 O 0.68118 0.95989 0.01857 0.0
C719 C 0.58233 0.90798 0.98665 0.0
O720 O 0.58131 0.92277 0.01168 0.0
C721 C 0.69543 0.95616 0.09557 0.0
C722 C 0.74219 0.9582 0.10957 0.0
C723 C 0.71384 0.96741 0.11711 0.0
N724 N 0.71164 0.94038 0.07641 0.0
N725 N 0.73968 0.94129 0.08492 0.0
C726 C 0.66314 0.96292 0.09151 0.0
H727 H 0.65325 0.94878 0.07403 0.0
H728 H 0.65111 0.95952 0.11269 0.0
H729 H 0.66048 0.98653 0.08514 0.0
C730 C 0.62945 0.86409 0.04472 0.0
N731 N 0.64641 0.8857 0.03313 0.0
N732 N 0.66595 0.89434 0.05284 0.0
C733 C 0.66158 0.87859 0.07792 0.0
C734 C 0.63807 0.8591 0.07376 0.0
C735 C 0.60279 0.85109 0.02986 0.0
H736 H 0.60652 0.84934 0.00563 0.0
H737 H 0.5833 0.8655 0.03403 0.0
H738 H 0.59784 0.82879 0.03902 0.0
O739 O 0.68361 0.90793 0.97671 0.0
O740 O 0.71962 0.90927 0.01132 0.0
H741 H 0.67554 0.86415 0.12127 0.0
H742 H 0.66777 0.90309 0.11801 0.0
C743 C 0.67762 0.88374 0.10649 0.0
H744 H 0.70138 0.88832 0.10218 0.0
H745 H 0.75714 0.93148 0.07333 0.0
O746 O 0.60717 0.89863 0.97658 0.0
C747 C 0.71118 0.90781 0.98422 0.0
Co748 Co 0.40579 0.3938 0.74884 0.0
Co749 Co 0.38967 0.4438 0.79179 0.0
C750 C 0.34719 0.40648 0.75779 0.0
O751 O 0.36502 0.38518 0.7597 0.0
O752 O 0.35444 0.43124 0.76853 0.0
C753 C 0.40627 0.33234 0.73655 0.0
O754 O 0.39148 0.33132 0.76157 0.0
C755 C 0.35815 0.44558 0.84544 0.0
C756 C 0.35644 0.49233 0.85954 0.0
C757 C 0.34698 0.46404 0.86697 0.0
N758 N 0.37406 0.46172 0.82632 0.0
N759 N 0.37336 0.48975 0.8349 0.0
C760 C 0.35127 0.41332 0.84138 0.0
H761 H 0.36545 0.40336 0.82396 0.0
H762 H 0.35454 0.40128 0.86257 0.0
H763 H 0.32768 0.41076 0.83491 0.0
C764 C 0.45024 0.37943 0.79455 0.0
N765 N 0.42863 0.39641 0.78299 0.0
N766 N 0.42 0.41593 0.80273 0.0
C767 C 0.43575 0.41153 0.8278 0.0
C768 C 0.45524 0.38803 0.8236 0.0
C769 C 0.46322 0.35279 0.77966 0.0
H770 H 0.46496 0.35654 0.75543 0.0
H771 H 0.44883 0.3333 0.78383 0.0
H772 H 0.48554 0.34783 0.7888 0.0
O773 O 0.40638 0.43361 0.72658 0.0
O774 O 0.4051 0.46961 0.7612 0.0
H775 H 0.45012 0.42534 0.87122 0.0
H776 H 0.41116 0.41773 0.86783 0.0
C777 C 0.43059 0.42752 0.85639 0.0
H778 H 0.4261 0.45131 0.85211 0.0
H779 H 0.38332 0.50715 0.82337 0.0
O780 O 0.41563 0.35717 0.72647 0.0
C781 C 0.40652 0.46118 0.7341 0.0
Co782 Co 0.65853 0.17069 0.24896 0.0
Co783 Co 0.67479 0.12073 0.29191 0.0
C784 C 0.71717 0.15814 0.25788 0.0
O785 O 0.69929 0.1794 0.25979 0.0
O786 O 0.70997 0.13337 0.26863 0.0
C787 C 0.65794 0.23215 0.2366 0.0
O788 O 0.67275 0.23322 0.26161 0.0
C789 C 0.70636 0.119 0.34554 0.0
C790 C 0.70816 0.07224 0.35962 0.0
C791 C 0.71758 0.10055 0.36706 0.0
N792 N 0.69046 0.10284 0.32643 0.0
N793 N 0.69122 0.07481 0.33499 0.0
C794 C 0.71318 0.15127 0.34148 0.0
H795 H 0.69897 0.16121 0.32409 0.0
H796 H 0.70992 0.1633 0.36268 0.0
H797 H 0.73676 0.15387 0.33499 0.0
C798 C 0.6141 0.18498 0.29472 0.0
N799 N 0.63573 0.16804 0.28314 0.0
N800 N 0.64441 0.14853 0.30287 0.0
C801 C 0.62866 0.15289 0.32794 0.0
C802 C 0.60914 0.17636 0.32377 0.0
C803 C 0.60108 0.21162 0.27986 0.0
H804 H 0.59931 0.20788 0.25563 0.0
H805 H 0.61547 0.23112 0.28401 0.0
H806 H 0.57877 0.21656 0.28903 0.0
O807 O 0.658 0.13088 0.22672 0.0
O808 O 0.65938 0.09489 0.26133 0.0
H809 H 0.61435 0.13904 0.37137 0.0
H810 H 0.6533 0.14672 0.36795 0.0
C811 C 0.63387 0.13689 0.35653 0.0
H812 H 0.63839 0.11312 0.35224 0.0
H813 H 0.68127 0.05739 0.32347 0.0
O814 O 0.6486 0.20729 0.22657 0.0
C815 C 0.65791 0.10331 0.23424 0.0
Co816 Co -0.00105 0.92064 0.65592 0.0
Co817 Co 0.04185 0.87064 0.63969 0.0
C818 C 0.0078 0.908 0.59728 0.0
O819 O 0.0097 0.92929 0.61512 0.0
O820 O 0.01854 0.88324 0.60451 0.0
C821 C 0.98667 0.9821 0.65644 0.0
O822 O 0.01168 0.9831 0.64164 0.0
C823 C 0.09552 0.86902 0.6082 0.0
C824 C 0.10959 0.82227 0.60621 0.0
C825 C 0.11709 0.85063 0.59698 0.0
N826 N 0.07638 0.85279 0.62399 0.0
N827 N 0.08493 0.82476 0.62312 0.0
C828 C 0.09143 0.90129 0.60143 0.0
H829 H 0.07396 0.91118 0.61559 0.0
H830 H 0.1126 0.91335 0.60479 0.0
H831 H 0.08502 0.90393 0.57783 0.0
C832 C 0.04479 0.93503 0.70024 0.0
N833 N 0.03316 0.91804 0.67868 0.0
N834 N 0.05285 0.89848 0.67004 0.0
C835 C 0.07796 0.90285 0.68573 0.0
C836 C 0.07384 0.92641 0.70515 0.0
C837 C 0.02998 0.96173 0.71323 0.0
H838 H 0.00574 0.95803 0.71501 0.0
H839 H 0.03417 0.98119 0.69881 0.0
H840 H 0.03916 0.96668 0.73552 0.0
O841 O 0.97671 0.88082 0.65652 0.0
O842 O 0.01132 0.84481 0.65516 0.0
H843 H 0.1213 0.88885 0.70016 0.0
H844 H 0.11803 0.89658 0.66122 0.0
C845 C 0.10651 0.88676 0.68059 0.0
H846 H 0.10216 0.86301 0.67604 0.0
H847 H 0.07337 0.8073 0.63294 0.0
O848 O 0.97659 0.95726 0.66581 0.0
C849 C 0.98423 0.85324 0.65663 0.0
Co850 Co 0.89376 0.74887 0.90598 0.0
Co851 Co 0.94374 0.7918 0.8898 0.0
C852 C 0.9064 0.75775 0.84736 0.0
O853 O 0.88512 0.75969 0.8652 0.0
O854 O 0.93116 0.7685 0.8546 0.0
C855 C 0.8323 0.73656 0.90649 0.0
O856 O 0.83129 0.76159 0.89171 0.0
C857 C 0.94538 0.8455 0.85837 0.0
C858 C 0.99213 0.85954 0.85636 0.0
C859 C 0.96378 0.86706 0.84714 0.0
N860 N 0.9616 0.82634 0.87414 0.0
N861 N 0.98963 0.83487 0.87326 0.0
C862 C 0.9131 0.84143 0.85159 0.0
H863 H 0.90321 0.82394 0.86572 0.0
H864 H 0.90105 0.8626 0.85499 0.0
H865 H 0.91046 0.83507 0.82798 0.0
C866 C 0.8794 0.79462 0.9504 0.0
N867 N 0.89637 0.78303 0.92879 0.0
N868 N 0.91591 0.80275 0.92017 0.0
C869 C 0.91153 0.82783 0.93592 0.0
C870 C 0.88802 0.82366 0.95539 0.0
C871 C 0.85273 0.77976 0.96338 0.0
H872 H 0.85647 0.75553 0.96513 0.0
H873 H 0.83325 0.78393 0.94898 0.0
H874 H 0.84778 0.78891 0.98569 0.0
O875 O 0.93358 0.72662 0.90656 0.0
O876 O 0.96958 0.76124 0.90523 0.0
H877 H 0.92549 0.87117 0.95037 0.0
H878 H 0.91773 0.86792 0.91143 0.0
C879 C 0.92757 0.8564 0.93078 0.0
H880 H 0.95133 0.85209 0.92621 0.0
H881 H 0.00709 0.82329 0.88307 0.0
O882 O 0.85714 0.72649 0.91584 0.0
C883 C 0.96116 0.73414 0.90668 0.0
Co884 Co 0.06554 0.6437 0.15593 0.0
Co885 Co 0.02263 0.6937 0.13974 0.0
C886 C 0.05665 0.65633 0.09731 0.0
O887 O 0.05472 0.63504 0.11515 0.0
O888 O 0.04592 0.6811 0.10455 0.0
C889 C 0.07785 0.58224 0.15644 0.0
O890 O 0.05282 0.58122 0.14165 0.0
C891 C 0.96893 0.69534 0.1083 0.0
C892 C 0.95489 0.7421 0.1063 0.0
C893 C 0.94737 0.71374 0.09708 0.0
N894 N 0.9881 0.71156 0.12407 0.0
N895 N 0.97956 0.73959 0.1232 0.0
C896 C 0.973 0.66306 0.10153 0.0
H897 H 0.99048 0.65316 0.11567 0.0
H898 H 0.95183 0.65101 0.1049 0.0
H899 H 0.97939 0.66042 0.07792 0.0
C900 C 0.01975 0.62931 0.2003 0.0
N901 N 0.03136 0.64631 0.17873 0.0
N902 N 0.01166 0.66587 0.1701 0.0
C903 C 0.98657 0.66151 0.18582 0.0
C904 C 0.9907 0.63794 0.20523 0.0
C905 C 0.03456 0.60261 0.21326 0.0
H906 H 0.0588 0.6063 0.21503 0.0
H907 H 0.03036 0.58315 0.19884 0.0
H908 H 0.02539 0.59765 0.23556 0.0
O909 O 0.08779 0.68352 0.15651 0.0
O910 O 0.05318 0.71953 0.15517 0.0
H911 H 0.94325 0.67551 0.20029 0.0
H912 H 0.94648 0.66778 0.16134 0.0
C913 C 0.95802 0.67759 0.1807 0.0
H914 H 0.96236 0.70135 0.17614 0.0
H915 H 0.99114 0.75705 0.13301 0.0
O916 O 0.08792 0.60708 0.1658 0.0
C917 C 0.08028 0.7111 0.15663 0.0
Co918 Co 0.17065 0.81559 0.40581 0.0
Co919 Co 0.12065 0.77265 0.3897 0.0
C920 C 0.15797 0.80664 0.34721 0.0
O921 O 0.17928 0.80473 0.36504 0.0
O922 O 0.13322 0.79591 0.35447 0.0
C923 C 0.23211 0.8279 0.40629 0.0
O924 O 0.23312 0.80286 0.39152 0.0
C925 C 0.11901 0.71891 0.35832 0.0
C926 C 0.07225 0.70486 0.35635 0.0
C927 C 0.1006 0.69733 0.34713 0.0
N928 N 0.10279 0.73809 0.37408 0.0
N929 N 0.07476 0.72955 0.37321 0.0
C930 C 0.15128 0.72298 0.35153 0.0
H931 H 0.16118 0.74049 0.36564 0.0
H932 H 0.16334 0.70182 0.35494 0.0
H933 H 0.15392 0.72932 0.32791 0.0
C934 C 0.18504 0.76987 0.45025 0.0
N935 N 0.16805 0.78144 0.42865 0.0
N936 N 0.1485 0.76172 0.42006 0.0
C937 C 0.15289 0.73666 0.43582 0.0
C938 C 0.17642 0.74083 0.45528 0.0
C939 C 0.21171 0.78474 0.46321 0.0
H940 H 0.20798 0.80897 0.46495 0.0
H941 H 0.23118 0.78055 0.4488 0.0
H942 H 0.21668 0.7756 0.48552 0.0
O943 O 0.13083 0.83784 0.40639 0.0
O944 O 0.09482 0.80323 0.40511 0.0
H945 H 0.13892 0.69334 0.45033 0.0
H946 H 0.14666 0.69654 0.41138 0.0
C947 C 0.13683 0.70808 0.43073 0.0
H948 H 0.11307 0.7124 0.42616 0.0
H949 H 0.0573 0.74114 0.38302 0.0
O950 O 0.20727 0.83798 0.41565 0.0
C951 C 0.10325 0.83033 0.40653 0.0
Co952 Co -0.00104 0.14391 0.40853 0.0
Co953 Co 0.04187 0.1939 0.4247 0.0
C954 C 0.00788 0.15653 0.46715 0.0
O955 O 0.00982 0.13524 0.44929 0.0
O956 O 0.01861 0.18129 0.4599 0.0
C957 C 0.98666 0.08245 0.408 0.0
O958 O 0.0117 0.08143 0.42276 0.0
C959 C 0.09559 0.19552 0.4561 0.0
C960 C 0.10964 0.24227 0.45813 0.0
C961 C 0.11716 0.21392 0.46732 0.0
N962 N 0.07642 0.21175 0.44035 0.0
N963 N 0.08496 0.23979 0.44125 0.0
C964 C 0.09152 0.16324 0.46286 0.0
H965 H 0.07403 0.15336 0.44873 0.0
H966 H 0.11268 0.15119 0.45946 0.0
H967 H 0.08515 0.16059 0.48647 0.0
C968 C 0.04471 0.12954 0.36411 0.0
N969 N 0.03312 0.14653 0.38569 0.0
N970 N 0.05283 0.16609 0.39432 0.0
C971 C 0.07791 0.16171 0.37858 0.0
C972 C 0.07376 0.13816 0.35917 0.0
C973 C 0.02987 0.10285 0.35114 0.0
H974 H 0.00564 0.10656 0.3494 0.0
H975 H 0.03409 0.08338 0.36554 0.0
H976 H 0.03902 0.09791 0.32883 0.0
O977 O 0.97671 0.18372 0.40799 0.0
O978 O 0.0113 0.21974 0.4093 0.0
H979 H 0.12123 0.17571 0.3641 0.0
H980 H 0.11802 0.16795 0.40304 0.0
C981 C 0.10647 0.17778 0.38369 0.0
H982 H 0.10214 0.20154 0.38827 0.0
H983 H 0.07338 0.25726 0.43145 0.0
O984 O 0.97658 0.1073 0.39866 0.0
C985 C 0.98421 0.21129 0.40787 0.0
Co986 Co 0.67063 0.74888 0.65855 0.0
Co987 Co 0.62067 0.79184 0.6747 0.0
C988 C 0.658 0.75782 0.71716 0.0
O989 O 0.67928 0.75977 0.69931 0.0
O990 O 0.63324 0.76857 0.70991 0.0
C991 C 0.7321 0.7366 0.65804 0.0
O992 O 0.73311 0.76166 0.67278 0.0
C993 C 0.619 0.84557 0.7061 0.0
C994 C 0.57222 0.85955 0.70814 0.0
C995 C 0.60057 0.8671 0.71735 0.0
N996 N 0.60279 0.82639 0.69034 0.0
N997 N 0.57475 0.83489 0.69123 0.0
C998 C 0.65128 0.84152 0.71287 0.0
H999 H 0.66118 0.82402 0.69876 0.0
H1000 H 0.66332 0.86269 0.70944 0.0
H1001 H 0.65394 0.83519 0.73649 0.0
C1002 C 0.68499 0.79458 0.61408 0.0
N1003 N 0.66802 0.78302 0.6357 0.0
N1004 N 0.6485 0.80276 0.64432 0.0
C1005 C 0.65289 0.82782 0.62855 0.0
C1006 C 0.67639 0.82362 0.60906 0.0
C1007 C 0.71163 0.77968 0.60108 0.0
H1008 H 0.70788 0.75545 0.59937 0.0
H1009 H 0.73113 0.78387 0.61545 0.0
H1010 H 0.71656 0.7888 0.57876 0.0
O1011 O 0.63081 0.72665 0.65799 0.0
O1012 O 0.59482 0.76127 0.65929 0.0
H1013 H 0.63897 0.87117 0.61408 0.0
H1014 H 0.64674 0.86793 0.65302 0.0
C1015 C 0.63687 0.85641 0.63368 0.0
H1016 H 0.61312 0.85212 0.63827 0.0
H1017 H 0.55729 0.82329 0.68143 0.0
O1018 O 0.70726 0.7265 0.64871 0.0
C1019 C 0.60324 0.73418 0.65786 0.0
Co1020 Co 0.06557 0.42067 0.90845 0.0
Co1021 Co 0.02269 0.37065 0.92463 0.0
C1022 C 0.05671 0.40802 0.96707 0.0
O1023 O 0.05476 0.42931 0.94923 0.0
O1024 O 0.04598 0.38326 0.95982 0.0
C1025 C 0.07787 0.48213 0.90796 0.0
O1026 O 0.05285 0.48314 0.92276 0.0
C1027 C 0.96901 0.36899 0.95609 0.0
C1028 C 0.95498 0.32223 0.9581 0.0
C1029 C 0.94746 0.35058 0.96732 0.0
N1030 N 0.98817 0.35278 0.94031 0.0
N1031 N 0.97964 0.32474 0.94119 0.0
C1032 C 0.97306 0.40127 0.96286 0.0
H1033 H 0.99053 0.41118 0.94871 0.0
H1034 H 0.95189 0.41331 0.9595 0.0
H1035 H 0.97947 0.40392 0.98646 0.0
C1036 C 0.01976 0.43505 0.86409 0.0
N1037 N 0.03139 0.41805 0.88565 0.0
N1038 N 0.0117 0.39848 0.89428 0.0
C1039 C 0.9866 0.40284 0.87856 0.0
C1040 C 0.99072 0.42641 0.85916 0.0
C1041 C 0.03457 0.46176 0.85113 0.0
H1042 H 0.0588 0.45808 0.84936 0.0
H1043 H 0.03036 0.48121 0.86557 0.0
H1044 H 0.02539 0.46674 0.82884 0.0
O1045 O 0.08784 0.38086 0.90786 0.0
O1046 O 0.05325 0.34484 0.90918 0.0
H1047 H 0.94328 0.38882 0.86411 0.0
H1048 H 0.94652 0.39655 0.90305 0.0
C1049 C 0.95806 0.38674 0.88369 0.0
H1050 H 0.96241 0.36299 0.88824 0.0
H1051 H 0.99122 0.30729 0.93137 0.0
O1052 O 0.08793 0.4573 0.89858 0.0
C1053 C 0.08034 0.35329 0.90773 0.0
Co1054 Co 0.39386 0.81554 0.15862 0.0
Co1055 Co 0.44385 0.7726 0.17472 0.0
C1056 C 0.40653 0.8066 0.21721 0.0
O1057 O 0.38524 0.80465 0.19938 0.0
O1058 O 0.43129 0.79586 0.20995 0.0
C1059 C 0.33239 0.82783 0.15814 0.0
O1060 O 0.33138 0.80279 0.17291 0.0
C1061 C 0.44554 0.71886 0.2061 0.0
C1062 C 0.49231 0.70487 0.2081 0.0
C1063 C 0.46397 0.69732 0.21732 0.0
N1064 N 0.46173 0.73805 0.19034 0.0
N1065 N 0.48978 0.72954 0.19121 0.0
C1066 C 0.41326 0.7229 0.21289 0.0
H1067 H 0.40336 0.74041 0.19879 0.0
H1068 H 0.40122 0.70174 0.20947 0.0
H1069 H 0.41062 0.72924 0.23651 0.0
C1070 C 0.37948 0.76985 0.11415 0.0
N1071 N 0.39646 0.7814 0.13576 0.0
N1072 N 0.416 0.76167 0.14436 0.0
C1073 C 0.4116 0.73661 0.12859 0.0
C1074 C 0.38808 0.7408 0.10912 0.0
C1075 C 0.35281 0.78473 0.10119 0.0
H1076 H 0.35655 0.80896 0.09946 0.0
H1077 H 0.33334 0.78054 0.11559 0.0
H1078 H 0.34785 0.7756 0.07887 0.0
O1079 O 0.43367 0.83779 0.15804 0.0
O1080 O 0.46967 0.80318 0.1593 0.0
H1081 H 0.42554 0.69328 0.11409 0.0
H1082 H 0.41779 0.69649 0.15304 0.0
C1083 C 0.42764 0.70803 0.13369 0.0
H1084 H 0.4514 0.71233 0.13827 0.0
H1085 H 0.50723 0.74115 0.18141 0.0
O1086 O 0.35723 0.83792 0.14879 0.0
C1087 C 0.46124 0.83027 0.15789 0.0
Co1088 Co 0.15598 0.49896 0.92063 0.0
Co1089 Co 0.13975 0.54188 0.87064 0.0
C1090 C 0.09734 0.50785 0.908 0.0
O1091 O 0.11519 0.50974 0.92928 0.0
O1092 O 0.10456 0.51859 0.88324 0.0
C1093 C 0.1565 0.48667 0.98209 0.0
O1094 O 0.14171 0.51169 0.9831 0.0
C1095 C 0.10814 0.59548 0.86894 0.0
C1096 C 0.10639 0.60964 0.8222 0.0
C1097 C 0.09693 0.61703 0.8505 0.0
N1098 N 0.12406 0.5764 0.85277 0.0
N1099 N 0.12334 0.58501 0.82475 0.0
C1100 C 0.1013 0.59138 0.90119 0.0
H1101 H 0.11553 0.574 0.91114 0.0
H1102 H 0.10451 0.61258 0.91325 0.0
H1103 H 0.07772 0.58485 0.90377 0.0
C1104 C 0.20034 0.54475 0.935 0.0
N1105 N 0.17876 0.53315 0.91801 0.0
N1106 N 0.17009 0.55287 0.89849 0.0
C1107 C 0.18578 0.57797 0.90288 0.0
C1108 C 0.20522 0.57382 0.92641 0.0
C1109 C 0.21335 0.52991 0.96166 0.0
H1110 H 0.21511 0.50568 0.95793 0.0
H1111 H 0.19896 0.53408 0.98115 0.0
H1112 H 0.23565 0.53908 0.96659 0.0
O1113 O 0.15656 0.47671 0.88082 0.0
O1114 O 0.15521 0.51132 0.84481 0.0
H1115 H 0.20008 0.62141 0.88905 0.0
H1116 H 0.16113 0.61797 0.89667 0.0
C1117 C 0.18057 0.60655 0.88687 0.0
H1118 H 0.17609 0.60226 0.86309 0.0
H1119 H 0.13332 0.57352 0.80732 0.0
O1120 O 0.16586 0.47659 0.95725 0.0
C1121 C 0.15668 0.48423 0.85324 0.0
Co1122 Co 0.31554 0.90592 0.17075 0.0
Co1123 Co 0.27265 0.88968 0.12074 0.0
C1124 C 0.30666 0.84728 0.15816 0.0
O1125 O 0.30473 0.86514 0.17943 0.0
O1126 O 0.29594 0.8545 0.13338 0.0
C1127 C 0.32788 0.90645 0.23221 0.0
O1128 O 0.30286 0.89164 0.23325 0.0
C1129 C 0.21896 0.85822 0.11908 0.0
C1130 C 0.20497 0.85617 0.07231 0.0
C1131 C 0.19742 0.84698 0.10066 0.0
N1132 N 0.23813 0.87399 0.10287 0.0
N1133 N 0.22963 0.87308 0.07482 0.0
C1134 C 0.223 0.85148 0.15137 0.0
H1135 H 0.24047 0.86562 0.16127 0.0
H1136 H 0.20181 0.85487 0.16339 0.0
H1137 H 0.22937 0.82787 0.15404 0.0
C1138 C 0.26971 0.95027 0.18509 0.0
N1139 N 0.28134 0.9287 0.16811 0.0
N1140 N 0.26166 0.92006 0.14854 0.0
C1141 C 0.23656 0.93578 0.15287 0.0
C1142 C 0.24067 0.9552 0.17643 0.0
C1143 C 0.28449 0.96324 0.21181 0.0
H1144 H 0.30873 0.96502 0.20813 0.0
H1145 H 0.28029 0.94879 0.23126 0.0
H1146 H 0.2753 0.98552 0.21678 0.0
O1147 O 0.3378 0.90647 0.13094 0.0
O1148 O 0.30321 0.9051 0.09492 0.0
H1149 H 0.19326 0.95024 0.13881 0.0
H1150 H 0.19648 0.9113 0.14657 0.0
C1151 C 0.20803 0.93065 0.13675 0.0
H1152 H 0.2124 0.92607 0.11301 0.0
H1153 H 0.24123 0.88288 0.05737 0.0
O1154 O 0.33791 0.91582 0.20736 0.0
C1155 C 0.3303 0.90657 0.10336 0.0
Co1156 Co 0.90856 0.06563 0.42066 0.0
Co1157 Co 0.92477 0.02272 0.37066 0.0
C1158 C 0.9672 0.05673 0.40802 0.0
O1159 O 0.94935 0.05482 0.42931 0.0
O1160 O 0.95997 0.046 0.38326 0.0
C1161 C 0.90805 0.0779 0.48213 0.0
O1162 O 0.92284 0.05287 0.48313 0.0
C1163 C 0.95636 0.96911 0.36889 0.0
C1164 C 0.95806 0.95498 0.32214 0.0
C1165 C 0.96753 0.94757 0.35044 0.0
N1166 N 0.94044 0.98821 0.35275 0.0
N1167 N 0.94114 0.97962 0.32472 0.0
C1168 C 0.96322 0.97318 0.40115 0.0
H1169 H 0.94901 0.99056 0.41111 0.0
H1170 H 0.96001 0.95198 0.41319 0.0
H1171 H 0.9868 0.97971 0.40372 0.0
C1172 C 0.8642 0.01983 0.43503 0.0
N1173 N 0.88578 0.03144 0.41804 0.0
N1174 N 0.89444 0.01173 0.3985 0.0
C1175 C 0.87874 0.98663 0.40288 0.0
C1176 C 0.8593 0.99077 0.42642 0.0
C1177 C 0.8512 0.03466 0.4617 0.0
H1178 H 0.84944 0.05889 0.45799 0.0
H1179 H 0.8656 0.03047 0.48118 0.0
H1180 H 0.8289 0.02549 0.46664 0.0
O1181 O 0.90797 0.08789 0.38086 0.0
O1182 O 0.90931 0.05329 0.34485 0.0
H1183 H 0.86442 0.9432 0.38902 0.0
H1184 H 0.90338 0.94663 0.39663 0.0
C1185 C 0.88393 0.95806 0.38685 0.0
H1186 H 0.88841 0.96237 0.36307 0.0
H1187 H 0.93115 0.99113 0.30731 0.0
O1188 O 0.89869 0.08798 0.45729 0.0
C1189 C 0.90785 0.08038 0.35329 0.0
Co1190 Co 0.74889 0.65853 0.67066 0.0
Co1191 Co 0.79185 0.67473 0.62069 0.0
C1192 C 0.75784 0.71715 0.65807 0.0
O1193 O 0.75975 0.69929 0.67934 0.0
O1194 O 0.76858 0.70994 0.6333 0.0
C1195 C 0.7366 0.65798 0.73212 0.0
O1196 O 0.76166 0.67271 0.73314 0.0
C1197 C 0.84557 0.70614 0.61902 0.0
C1198 C 0.85955 0.70818 0.57225 0.0
C1199 C 0.8671 0.71738 0.6006 0.0
N1200 N 0.82639 0.69038 0.60282 0.0
N1201 N 0.83489 0.69127 0.57478 0.0
C1202 C 0.84152 0.71291 0.65131 0.0
H1203 H 0.82403 0.69878 0.66121 0.0
H1204 H 0.8627 0.70949 0.66334 0.0
H1205 H 0.83517 0.73652 0.65397 0.0
C1206 C 0.7946 0.61407 0.68498 0.0
N1207 N 0.78304 0.6357 0.66803 0.0
N1208 N 0.80278 0.64434 0.64851 0.0
C1209 C 0.82784 0.62858 0.65289 0.0
C1210 C 0.82366 0.60907 0.67638 0.0
C1211 C 0.77972 0.60105 0.71161 0.0
H1212 H 0.75549 0.59934 0.70787 0.0
H1213 H 0.7839 0.61541 0.73112 0.0
H1214 H 0.78884 0.57873 0.71653 0.0
O1215 O 0.72665 0.658 0.63084 0.0
O1216 O 0.76127 0.65934 0.59485 0.0
H1217 H 0.8712 0.61413 0.63896 0.0
H1218 H 0.86794 0.65307 0.64674 0.0
C1219 C 0.85643 0.63372 0.63688 0.0
H1220 H 0.85214 0.63831 0.61312 0.0
H1221 H 0.82329 0.68147 0.55732 0.0
O1222 O 0.72651 0.64866 0.70727 0.0
C1223 C 0.73418 0.65789 0.60327 0.0
Co1224 Co 0.15596 0.56545 0.14387 0.0
Co1225 Co 0.1397 0.52249 0.19381 0.0
C1226 C 0.09732 0.55652 0.15642 0.0
O1227 O 0.1152 0.55462 0.13515 0.0
O1228 O 0.10451 0.54577 0.18118 0.0
C1229 C 0.15656 0.57777 0.08242 0.0
O1230 O 0.14179 0.55274 0.08136 0.0
C1231 C 0.10813 0.46887 0.19551 0.0
C1232 C 0.10635 0.45473 0.24225 0.0
C1233 C 0.09692 0.44733 0.21394 0.0
N1234 N 0.12403 0.48796 0.21168 0.0
N1235 N 0.12329 0.47936 0.2397 0.0
C1236 C 0.1013 0.47296 0.16324 0.0
H1237 H 0.11552 0.49035 0.15331 0.0
H1238 H 0.10455 0.45177 0.15119 0.0
H1239 H 0.07773 0.47947 0.16065 0.0
C1240 C 0.2004 0.51972 0.12957 0.0
N1241 N 0.17877 0.53128 0.14651 0.0
N1242 N 0.17008 0.51154 0.166 0.0
C1243 C 0.18582 0.48646 0.1616 0.0
C1244 C 0.20535 0.49065 0.13814 0.0
C1245 C 0.21346 0.53462 0.10296 0.0
H1246 H 0.21519 0.55885 0.10673 0.0
H1247 H 0.19911 0.53047 0.08343 0.0
H1248 H 0.23578 0.52548 0.09806 0.0
O1249 O 0.15648 0.58768 0.18368 0.0
O1250 O 0.15511 0.55306 0.21967 0.0
H1251 H 0.2001 0.443 0.17538 0.0
H1252 H 0.16116 0.44645 0.16771 0.0
C1253 C 0.18059 0.45785 0.17755 0.0
H1254 H 0.17607 0.4621 0.20133 0.0
H1255 H 0.13324 0.49087 0.25713 0.0
O1256 O 0.16588 0.58784 0.10727 0.0
C1257 C 0.15656 0.58016 0.21125 0.0
Co1258 Co 0.24893 0.90599 0.39371 0.0
Co1259 Co 0.29184 0.88974 0.4437 0.0
C1260 C 0.25784 0.84735 0.40628 0.0
O1261 O 0.25975 0.86522 0.38501 0.0
O1262 O 0.26856 0.85456 0.43105 0.0
C1263 C 0.23657 0.90655 0.33225 0.0
O1264 O 0.26157 0.89172 0.33119 0.0
C1265 C 0.34553 0.85828 0.44535 0.0
C1266 C 0.3595 0.85619 0.49212 0.0
C1267 C 0.36706 0.84701 0.46377 0.0
N1268 N 0.32636 0.87405 0.46156 0.0
N1269 N 0.33486 0.87312 0.48961 0.0
C1270 C 0.34149 0.85155 0.41306 0.0
H1271 H 0.32403 0.8657 0.40317 0.0
H1272 H 0.36268 0.85495 0.40103 0.0
H1273 H 0.33511 0.82794 0.41038 0.0
C1274 C 0.29471 0.95039 0.37941 0.0
N1275 N 0.28311 0.92878 0.39636 0.0
N1276 N 0.30281 0.92013 0.41591 0.0
C1277 C 0.32789 0.93589 0.41157 0.0
C1278 C 0.32375 0.95538 0.38806 0.0
C1279 C 0.27988 0.96338 0.35273 0.0
H1280 H 0.25565 0.96516 0.35645 0.0
H1281 H 0.28405 0.94895 0.33327 0.0
H1282 H 0.28907 0.98567 0.34777 0.0
O1283 O 0.22668 0.90653 0.43352 0.0
O1284 O 0.26127 0.90515 0.46954 0.0
H1285 H 0.37122 0.95032 0.42558 0.0
H1286 H 0.36797 0.91138 0.41779 0.0
C1287 C 0.35645 0.93073 0.42764 0.0
H1288 H 0.35211 0.92614 0.45138 0.0
H1289 H 0.32326 0.88291 0.50707 0.0
O1290 O 0.22654 0.9159 0.35711 0.0
C1291 C 0.23418 0.90662 0.4611 0.0
Co1292 Co 0.90856 -0.00106 0.64385 0.0
Co1293 Co 0.92483 0.04187 0.69381 0.0
C1294 C 0.96721 0.00782 0.65642 0.0
O1295 O 0.94934 0.00973 0.63515 0.0
O1296 O 0.96001 0.01857 0.68119 0.0
C1297 C 0.90798 0.98663 0.58239 0.0
O1298 O 0.92279 0.01164 0.58135 0.0
C1299 C 0.95644 0.09548 0.69552 0.0
C1300 C 0.9582 0.10963 0.74226 0.0
C1301 C 0.96765 0.11702 0.71395 0.0
N1302 N 0.94052 0.07639 0.71169 0.0
N1303 N 0.94126 0.08499 0.73971 0.0
C1304 C 0.96327 0.09139 0.66325 0.0
H1305 H 0.94904 0.074 0.65332 0.0
H1306 H 0.96004 0.11258 0.65121 0.0
H1307 H 0.98684 0.08487 0.66066 0.0
C1308 C 0.86417 0.04473 0.62954 0.0
N1309 N 0.88579 0.03313 0.64649 0.0
N1310 N 0.89447 0.05286 0.66599 0.0
C1311 C 0.87875 0.07795 0.66161 0.0
C1312 C 0.85923 0.07379 0.63813 0.0
C1313 C 0.85113 0.02986 0.6029 0.0
H1314 H 0.84936 0.00563 0.60666 0.0
H1315 H 0.8655 0.03401 0.5834 0.0
H1316 H 0.82882 0.03903 0.59798 0.0
O1317 O 0.90801 0.9767 0.68366 0.0
O1318 O 0.90939 0.01131 0.71966 0.0
H1319 H 0.86447 0.1214 0.67543 0.0
H1320 H 0.90342 0.11794 0.66777 0.0
C1321 C 0.88398 0.10654 0.67759 0.0
H1322 H 0.88849 0.10226 0.70137 0.0
H1323 H 0.93129 0.0735 0.75714 0.0
O1324 O 0.89864 0.97657 0.60724 0.0
C1325 C 0.90791 0.98422 0.71123 0.0
Co1326 Co 0.8155 0.65846 0.89383 0.0
Co1327 Co 0.77257 0.67466 0.94381 0.0
C1328 C 0.80658 0.71709 0.90645 0.0
O1329 O 0.80468 0.69924 0.88516 0.0
O1330 O 0.79585 0.70986 0.93121 0.0
C1331 C 0.82779 0.65793 0.83237 0.0
O1332 O 0.80275 0.6727 0.83136 0.0
C1333 C 0.71887 0.7061 0.94544 0.0
C1334 C 0.70485 0.70815 0.9922 0.0
C1335 C 0.69732 0.71735 0.96384 0.0
N1336 N 0.73803 0.69033 0.96166 0.0
N1337 N 0.7295 0.69123 0.9897 0.0
C1338 C 0.72294 0.71286 0.91316 0.0
H1339 H 0.74043 0.69872 0.90327 0.0
H1340 H 0.70178 0.70946 0.9011 0.0
H1341 H 0.72932 0.73647 0.9105 0.0
C1342 C 0.76975 0.61404 0.87948 0.0
N1343 N 0.78133 0.63565 0.89645 0.0
N1344 N 0.76161 0.64429 0.91598 0.0
C1345 C 0.73653 0.62854 0.9116 0.0
C1346 C 0.7407 0.60906 0.88809 0.0
C1347 C 0.78462 0.60104 0.85283 0.0
H1348 H 0.80885 0.5993 0.85656 0.0
H1349 H 0.78044 0.61542 0.83334 0.0
H1350 H 0.77547 0.57873 0.84789 0.0
O1351 O 0.83774 0.65789 0.93364 0.0
O1352 O 0.80313 0.65923 0.96965 0.0
H1353 H 0.69318 0.6141 0.92555 0.0
H1354 H 0.69644 0.65304 0.91778 0.0
C1355 C 0.70796 0.63369 0.92763 0.0
H1356 H 0.71226 0.63827 0.95139 0.0
H1357 H 0.74108 0.68143 0.00716 0.0
O1358 O 0.83787 0.64859 0.85721 0.0
C1359 C 0.83022 0.65778 0.96122 0.0
Co1360 Co 0.42065 0.65596 0.49886 0.0
Co1361 Co 0.37066 0.6398 0.54178 0.0
C1362 C 0.40798 0.59734 0.50774 0.0
O1363 O 0.42927 0.61517 0.50967 0.0
O1364 O 0.38322 0.6046 0.51849 0.0
C1365 C 0.48212 0.65643 0.48659 0.0
O1366 O 0.48311 0.64165 0.51163 0.0
C1367 C 0.36897 0.60834 0.59547 0.0
C1368 C 0.3222 0.60631 0.60945 0.0
C1369 C 0.35054 0.59709 0.61699 0.0
N1370 N 0.35277 0.62414 0.57631 0.0
N1371 N 0.32473 0.62324 0.58481 0.0
C1372 C 0.40125 0.60157 0.59142 0.0
H1373 H 0.41115 0.6157 0.57394 0.0
H1374 H 0.41328 0.60496 0.6126 0.0
H1375 H 0.4039 0.57795 0.58506 0.0
C1376 C 0.43503 0.70037 0.54461 0.0
N1377 N 0.41805 0.67877 0.53303 0.0
N1378 N 0.39851 0.67014 0.55275 0.0
C1379 C 0.40289 0.68589 0.57783 0.0
C1380 C 0.42641 0.70537 0.57366 0.0
C1381 C 0.46169 0.71336 0.52975 0.0
H1382 H 0.45795 0.7151 0.50552 0.0
H1383 H 0.48117 0.69896 0.53392 0.0
H1384 H 0.46664 0.73567 0.5389 0.0
O1385 O 0.38084 0.65657 0.47661 0.0
O1386 O 0.34483 0.65527 0.51122 0.0
H1387 H 0.38895 0.70034 0.62118 0.0
H1388 H 0.3967 0.66139 0.61791 0.0
C1389 C 0.38686 0.68076 0.6064 0.0
H1390 H 0.3631 0.67619 0.60209 0.0
H1391 H 0.30728 0.63306 0.57322 0.0
O1392 O 0.45729 0.6658 0.4765 0.0
C1393 C 0.35327 0.65672 0.48413 0.0
Co1394 Co 0.92067 0.40846 0.06548 0.0
Co1395 Co 0.87066 0.42465 0.02256 0.0
C1396 C 0.90797 0.46709 0.05663 0.0
O1397 O 0.92928 0.44927 0.05473 0.0
O1398 O 0.88321 0.45984 0.04588 0.0
C1399 C 0.98214 0.40801 0.07777 0.0
O1400 O 0.98314 0.42285 0.05277 0.0
C1401 C 0.86894 0.45626 0.96896 0.0
C1402 C 0.82221 0.45793 0.95476 0.0
C1403 C 0.85051 0.46742 0.94739 0.0
N1404 N 0.85278 0.44033 0.98804 0.0
N1405 N 0.82476 0.44101 0.97941 0.0
C1406 C 0.90119 0.46313 0.97306 0.0
H1407 H 0.91114 0.44892 0.99045 0.0
H1408 H 0.91325 0.45992 0.95187 0.0
H1409 H 0.90374 0.48671 0.97959 0.0
C1410 C 0.9351 0.36415 0.01965 0.0
N1411 N 0.91809 0.3857 0.03127 0.0
N1412 N 0.89854 0.39435 0.01156 0.0
C1413 C 0.90293 0.37866 0.98645 0.0
C1414 C 0.92649 0.35925 0.99059 0.0
C1415 C 0.96178 0.35117 0.03448 0.0
H1416 H 0.95807 0.34938 0.05871 0.0
H1417 H 0.98124 0.3656 0.03031 0.0
H1418 H 0.96676 0.32888 0.02529 0.0
O1419 O 0.88086 0.40782 0.08772 0.0
O1420 O 0.84485 0.40916 0.05311 0.0
H1421 H 0.88908 0.36433 0.94303 0.0
H1422 H 0.89666 0.40329 0.94646 0.0
C1423 C 0.8869 0.38384 0.95789 0.0
H1424 H 0.86312 0.3883 0.9622 0.0
H1425 H 0.80734 0.43101 0.99089 0.0
O1426 O 0.95731 0.3986 0.08783 0.0
C1427 C 0.85328 0.40769 0.0802 0.0
Co1428 Co 0.40607 0.67057 0.31546 0.0
Co1429 Co 0.38987 0.62058 0.27256 0.0
C1430 C 0.34743 0.65792 0.30662 0.0
O1431 O 0.36527 0.67921 0.3047 0.0
O1432 O 0.35468 0.63316 0.29587 0.0
C1433 C 0.40658 0.73202 0.32775 0.0
O1434 O 0.39177 0.73302 0.30273 0.0
C1435 C 0.35838 0.61895 0.21889 0.0
C1436 C 0.35637 0.57221 0.20482 0.0
C1437 C 0.34714 0.60056 0.19733 0.0
N1438 N 0.37417 0.60273 0.23803 0.0
N1439 N 0.37329 0.57469 0.22948 0.0
C1440 C 0.35161 0.65123 0.22299 0.0
H1441 H 0.36576 0.66111 0.24046 0.0
H1442 H 0.35497 0.66329 0.20182 0.0
H1443 H 0.328 0.65387 0.22939 0.0
C1444 C 0.45042 0.68497 0.26965 0.0
N1445 N 0.42885 0.66797 0.28127 0.0
N1446 N 0.42021 0.64841 0.26157 0.0
C1447 C 0.43591 0.65279 0.23646 0.0
C1448 C 0.45533 0.67635 0.2406 0.0
C1449 C 0.4634 0.71165 0.28447 0.0
H1450 H 0.46518 0.70794 0.30871 0.0
H1451 H 0.44899 0.73112 0.28029 0.0
H1452 H 0.4857 0.71661 0.27529 0.0
O1453 O 0.40667 0.63076 0.33771 0.0
O1454 O 0.40533 0.59474 0.30311 0.0
H1455 H 0.45034 0.63881 0.19312 0.0
H1456 H 0.4114 0.64655 0.19639 0.0
C1457 C 0.43077 0.63672 0.20791 0.0
H1458 H 0.42621 0.61297 0.21224 0.0
H1459 H 0.38312 0.55723 0.24103 0.0
O1460 O 0.41595 0.70719 0.33782 0.0
C1461 C 0.40679 0.60318 0.3302 0.0
Co1462 Co 0.14386 0.15594 0.56542 0.0
Co1463 Co 0.19384 0.13969 0.52248 0.0
C1464 C 0.15644 0.0973 0.55651 0.0
O1465 O 0.13517 0.11517 0.55461 0.0
O1466 O 0.18121 0.1045 0.54577 0.0
C1467 C 0.0824 0.15651 0.57776 0.0
O1468 O 0.08136 0.1417 0.55275 0.0
C1469 C 0.19553 0.10812 0.46885 0.0
C1470 C 0.24227 0.10638 0.45468 0.0
C1471 C 0.21396 0.09694 0.44729 0.0
N1472 N 0.21171 0.12401 0.48795 0.0
N1473 N 0.23973 0.12329 0.47933 0.0
C1474 C 0.16327 0.10128 0.47295 0.0
H1475 H 0.15334 0.1155 0.49034 0.0
H1476 H 0.15122 0.10452 0.45176 0.0
H1477 H 0.16069 0.0777 0.47946 0.0
C1478 C 0.12953 0.20033 0.51964 0.0
N1479 N 0.1465 0.17873 0.53124 0.0
N1480 N 0.16603 0.17006 0.51152 0.0
C1481 C 0.16165 0.18577 0.48642 0.0
C1482 C 0.13813 0.20523 0.49058 0.0
C1483 C 0.10287 0.21334 0.53448 0.0
H1484 H 0.1066 0.2151 0.55871 0.0
H1485 H 0.08338 0.19894 0.53031 0.0
H1486 H 0.09793 0.23564 0.52531 0.0
O1487 O 0.18368 0.15648 0.58766 0.0
O1488 O 0.21968 0.1551 0.55305 0.0
H1489 H 0.17551 0.20009 0.443 0.0
H1490 H 0.16787 0.16114 0.44641 0.0
C1491 C 0.17767 0.18057 0.45784 0.0
H1492 H 0.20144 0.17607 0.46214 0.0
H1493 H 0.25716 0.13325 0.49083 0.0
O1494 O 0.10726 0.16585 0.58781 0.0
C1495 C 0.21125 0.15657 0.58014 0.0
Co1496 Co 0.15862 0.39384 0.81551 0.0
Co1497 Co 0.17475 0.44384 0.77257 0.0
C1498 C 0.21723 0.40652 0.80658 0.0
O1499 O 0.1994 0.38522 0.80468 0.0
O1500 O 0.20997 0.43128 0.79584 0.0
C1501 C 0.15814 0.33238 0.82782 0.0
O1502 O 0.17295 0.33136 0.8028 0.0
C1503 C 0.20628 0.44558 0.71893 0.0
C1504 C 0.20801 0.49232 0.70479 0.0
C1505 C 0.21746 0.46402 0.69738 0.0
N1506 N 0.19038 0.46173 0.73803 0.0
N1507 N 0.19109 0.48976 0.72944 0.0
C1508 C 0.21315 0.41332 0.72301 0.0
H1509 H 0.19897 0.40337 0.74042 0.0
H1510 H 0.20988 0.40127 0.70182 0.0
H1511 H 0.23674 0.41075 0.72948 0.0
C1512 C 0.11419 0.37946 0.76978 0.0
N1513 N 0.1358 0.39644 0.78135 0.0
N1514 N 0.14442 0.41597 0.76162 0.0
C1515 C 0.12868 0.41157 0.73655 0.0
C1516 C 0.1092 0.38806 0.74073 0.0
C1517 C 0.10121 0.3528 0.78466 0.0
H1518 H 0.09947 0.35655 0.80889 0.0
H1519 H 0.11562 0.33332 0.7805 0.0
H1520 H 0.07891 0.34784 0.77551 0.0
O1521 O 0.15802 0.43365 0.83776 0.0
O1522 O 0.1593 0.46965 0.80315 0.0
H1523 H 0.1143 0.4254 0.69313 0.0
H1524 H 0.15326 0.41778 0.69652 0.0
C1525 C 0.13384 0.42758 0.70796 0.0
H1526 H 0.13832 0.45136 0.71225 0.0
H1527 H 0.18112 0.50717 0.74096 0.0
O1528 O 0.14877 0.35721 0.83789 0.0
C1529 C 0.15787 0.46123 0.83024 0.0
Co1530 Co 0.64372 0.40845 0.49895 0.0
Co1531 Co 0.69371 0.42461 0.54188 0.0
C1532 C 0.65639 0.46707 0.50783 0.0
O1533 O 0.63509 0.44924 0.50977 0.0
O1534 O 0.68114 0.45981 0.51859 0.0
C1535 C 0.58226 0.40796 0.48664 0.0
O1536 O 0.58125 0.42275 0.51166 0.0
C1537 C 0.69536 0.45604 0.59558 0.0
C1538 C 0.74213 0.45808 0.60959 0.0
C1539 C 0.71378 0.46729 0.61712 0.0
N1540 N 0.71157 0.44026 0.57642 0.0
N1541 N 0.73961 0.44116 0.58493 0.0
C1542 C 0.66308 0.46281 0.59153 0.0
H1543 H 0.65319 0.4487 0.57403 0.0
H1544 H 0.65104 0.45939 0.61269 0.0
H1545 H 0.66043 0.48643 0.58518 0.0
C1546 C 0.62934 0.36403 0.54469 0.0
N1547 N 0.64632 0.38564 0.53312 0.0
N1548 N 0.66586 0.39425 0.55284 0.0
C1549 C 0.66148 0.3785 0.57791 0.0
C1550 C 0.63796 0.35903 0.57374 0.0
C1551 C 0.60268 0.35105 0.52983 0.0
H1552 H 0.60642 0.3493 0.5056 0.0
H1553 H 0.5832 0.36547 0.534 0.0
H1554 H 0.59771 0.32875 0.53898 0.0
O1555 O 0.68354 0.40786 0.47671 0.0
O1556 O 0.71954 0.40917 0.51133 0.0
H1557 H 0.67543 0.36404 0.62125 0.0
H1558 H 0.66767 0.40298 0.61801 0.0
C1559 C 0.67752 0.38363 0.60648 0.0
H1560 H 0.70128 0.3882 0.60217 0.0
H1561 H 0.75707 0.43135 0.57334 0.0
O1562 O 0.6071 0.3986 0.47657 0.0
C1563 C 0.71112 0.40773 0.48423 0.0
Co1564 Co 0.40603 0.89378 0.24897 0.0
Co1565 Co 0.38982 0.94375 0.29193 0.0
C1566 C 0.34738 0.9064 0.2579 0.0
O1567 O 0.36524 0.88512 0.25977 0.0
O1568 O 0.35461 0.93116 0.26866 0.0
C1569 C 0.40657 0.83232 0.23668 0.0
O1570 O 0.39178 0.8313 0.26171 0.0
C1571 C 0.35823 0.9455 0.34554 0.0
C1572 C 0.35646 0.99225 0.35964 0.0
C1573 C 0.34701 0.96395 0.36705 0.0
N1574 N 0.37416 0.96165 0.32645 0.0
N1575 N 0.37342 0.98968 0.33502 0.0
C1576 C 0.35139 0.91324 0.34146 0.0
H1577 H 0.36559 0.90329 0.32406 0.0
H1578 H 0.35463 0.90119 0.36265 0.0
H1579 H 0.3278 0.91065 0.33497 0.0
C1580 C 0.45045 0.87944 0.29472 0.0
N1581 N 0.42883 0.8964 0.28315 0.0
N1582 N 0.42016 0.9159 0.30289 0.0
C1583 C 0.43589 0.9115 0.32797 0.0
C1584 C 0.45541 0.88802 0.32379 0.0
C1585 C 0.46348 0.85282 0.27983 0.0
H1586 H 0.46523 0.85659 0.2556 0.0
H1587 H 0.44911 0.83331 0.28398 0.0
H1588 H 0.4858 0.8479 0.28898 0.0
O1589 O 0.40659 0.93359 0.22674 0.0
O1590 O 0.40525 0.96958 0.26136 0.0
H1591 H 0.4502 0.92529 0.37143 0.0
H1592 H 0.41124 0.91765 0.36798 0.0
C1593 C 0.43068 0.92747 0.35657 0.0
H1594 H 0.42618 0.95125 0.35231 0.0
H1595 H 0.38339 0.00709 0.32351 0.0
O1596 O 0.41592 0.85716 0.22661 0.0
C1597 C 0.4067 0.96117 0.23427 0.0
Co1598 Co 0.65851 0.67063 0.74891 0.0
Co1599 Co 0.67473 0.62067 0.79187 0.0
C1600 C 0.71714 0.65802 0.75784 0.0
O1601 O 0.69928 0.6793 0.75973 0.0
O1602 O 0.70993 0.63326 0.7686 0.0
C1603 C 0.65797 0.7321 0.73662 0.0
O1604 O 0.67275 0.73312 0.76165 0.0
C1605 C 0.70629 0.61893 0.8455 0.0
C1606 C 0.70801 0.57218 0.85964 0.0
C1607 C 0.71747 0.60048 0.86705 0.0
N1608 N 0.69037 0.60278 0.8264 0.0
N1609 N 0.69109 0.57475 0.83499 0.0
C1610 C 0.71314 0.65119 0.84143 0.0
H1611 H 0.69895 0.66114 0.82403 0.0
H1612 H 0.7099 0.66324 0.86262 0.0
H1613 H 0.73673 0.65376 0.83493 0.0
C1614 C 0.61408 0.68497 0.79466 0.0
N1615 N 0.63571 0.66801 0.78309 0.0
N1616 N 0.64437 0.64851 0.80283 0.0
C1617 C 0.62864 0.65291 0.82791 0.0
C1618 C 0.60912 0.67639 0.82372 0.0
C1619 C 0.60105 0.71159 0.77976 0.0
H1620 H 0.59932 0.70783 0.75554 0.0
H1621 H 0.61542 0.7311 0.78393 0.0
H1622 H 0.57874 0.71652 0.78891 0.0
O1623 O 0.65795 0.63082 0.72668 0.0
O1624 O 0.65929 0.59483 0.7613 0.0
H1625 H 0.61432 0.63911 0.87135 0.0
H1626 H 0.65327 0.64675 0.86791 0.0
C1627 C 0.63384 0.63693 0.8565 0.0
H1628 H 0.63834 0.61315 0.85224 0.0
H1629 H 0.68112 0.55734 0.82348 0.0
O1630 O 0.64863 0.70726 0.72654 0.0
C1631 C 0.65784 0.60325 0.73421 0.0
Co1632 Co 0.49885 0.42064 0.65596 0.0
Co1633 Co 0.54177 0.37066 0.63976 0.0
C1634 C 0.50772 0.40799 0.59732 0.0
O1635 O 0.50964 0.42928 0.61517 0.0
O1636 O 0.51848 0.38324 0.60456 0.0
C1637 C 0.48656 0.4821 0.65646 0.0
O1638 O 0.51159 0.4831 0.64168 0.0
C1639 C 0.59538 0.36891 0.60817 0.0
C1640 C 0.60952 0.32216 0.60644 0.0
C1641 C 0.61692 0.35046 0.59697 0.0
N1642 N 0.57629 0.35276 0.6241 0.0
N1643 N 0.58489 0.32473 0.62338 0.0
C1644 C 0.5913 0.40117 0.60131 0.0
H1645 H 0.57391 0.41112 0.61552 0.0
H1646 H 0.6125 0.41321 0.60453 0.0
H1647 H 0.58479 0.40374 0.57773 0.0
C1648 C 0.54461 0.43499 0.70036 0.0
N1649 N 0.53303 0.41802 0.67875 0.0
N1650 N 0.55276 0.39851 0.67009 0.0
C1651 C 0.57784 0.4029 0.68582 0.0
C1652 C 0.57367 0.42639 0.70533 0.0
C1653 C 0.52973 0.46163 0.71338 0.0
H1654 H 0.50551 0.45788 0.71513 0.0
H1655 H 0.53389 0.48113 0.699 0.0
H1656 H 0.53889 0.46657 0.73569 0.0
O1657 O 0.4766 0.38083 0.65656 0.0
O1658 O 0.51121 0.34483 0.65523 0.0
H1659 H 0.62129 0.3891 0.70012 0.0
H1660 H 0.61784 0.39672 0.66117 0.0
C1661 C 0.60643 0.38692 0.68061 0.0
H1662 H 0.60215 0.36314 0.67613 0.0
H1663 H 0.57338 0.30732 0.63337 0.0
O1664 O 0.47648 0.45726 0.66583 0.0
C1665 C 0.48412 0.35326 0.65669 0.0
Co1666 Co 0.39373 0.24896 0.90597 0.0
Co1667 Co 0.44372 0.29184 0.88965 0.0
C1668 C 0.4063 0.25778 0.84731 0.0
O1669 O 0.38503 0.2597 0.86518 0.0
O1670 O 0.43107 0.26851 0.8545 0.0
C1671 C 0.33228 0.23662 0.90655 0.0
O1672 O 0.33123 0.26162 0.89172 0.0
C1673 C 0.44542 0.34542 0.85801 0.0
C1674 C 0.49215 0.35959 0.85626 0.0
C1675 C 0.46384 0.36698 0.84681 0.0
N1676 N 0.46159 0.32634 0.87392 0.0
N1677 N 0.48961 0.33495 0.87319 0.0
C1678 C 0.41315 0.34133 0.85119 0.0
H1679 H 0.40321 0.32397 0.86543 0.0
H1680 H 0.40111 0.36253 0.85439 0.0
H1681 H 0.41056 0.33478 0.82762 0.0
C1682 C 0.37941 0.29484 0.95028 0.0
N1683 N 0.39638 0.28318 0.9287 0.0
N1684 N 0.41593 0.30287 0.92001 0.0
C1685 C 0.41158 0.32799 0.93569 0.0
C1686 C 0.38805 0.32389 0.95515 0.0
C1687 C 0.35272 0.28005 0.96329 0.0
H1688 H 0.35641 0.25582 0.96509 0.0
H1689 H 0.33325 0.28423 0.94887 0.0
H1690 H 0.34777 0.28926 0.98557 0.0
O1691 O 0.43354 0.22671 0.90654 0.0
O1692 O 0.46956 0.2613 0.90512 0.0
H1693 H 0.42551 0.3714 0.94997 0.0
H1694 H 0.41787 0.36796 0.91102 0.0
C1695 C 0.42765 0.35653 0.93047 0.0
H1696 H 0.45142 0.35219 0.92598 0.0
H1697 H 0.50704 0.32347 0.88317 0.0
O1698 O 0.35713 0.22659 0.91592 0.0
C1699 C 0.46112 0.23421 0.90662 0.0
Co1700 Co 0.56545 0.14385 0.15601 0.0
Co1701 Co 0.5225 0.19379 0.13975 0.0
C1702 C 0.55655 0.1564 0.09736 0.0
O1703 O 0.55463 0.13514 0.11525 0.0
O1704 O 0.54579 0.18116 0.10456 0.0
C1705 C 0.57779 0.08239 0.15661 0.0
O1706 O 0.55275 0.08134 0.14184 0.0
C1707 C 0.46887 0.19549 0.10817 0.0
C1708 C 0.45472 0.24223 0.10643 0.0
C1709 C 0.44732 0.21392 0.09699 0.0
N1710 N 0.48797 0.21166 0.12408 0.0
N1711 N 0.47936 0.23968 0.12335 0.0
C1712 C 0.47296 0.16323 0.10134 0.0
H1713 H 0.49036 0.15329 0.11555 0.0
H1714 H 0.45177 0.15118 0.10457 0.0
H1715 H 0.47948 0.16065 0.07775 0.0
C1716 C 0.51971 0.12955 0.20045 0.0
N1717 N 0.53128 0.14649 0.17882 0.0
N1718 N 0.51154 0.16598 0.17013 0.0
C1719 C 0.48646 0.16159 0.18586 0.0
C1720 C 0.49065 0.13813 0.2054 0.0
C1721 C 0.53461 0.10293 0.2135 0.0
H1722 H 0.55883 0.1067 0.21523 0.0
H1723 H 0.53045 0.08341 0.19914 0.0
H1724 H 0.52546 0.09803 0.23582 0.0
O1725 O 0.58769 0.18365 0.15653 0.0
O1726 O 0.55307 0.21965 0.15515 0.0
H1727 H 0.443 0.17538 0.20014 0.0
H1728 H 0.44646 0.16772 0.1612 0.0
C1729 C 0.45786 0.17755 0.18063 0.0
H1730 H 0.46212 0.20133 0.17612 0.0
H1731 H 0.49086 0.25711 0.13332 0.0
O1732 O 0.58785 0.10725 0.16593 0.0
C1733 C 0.58017 0.21123 0.15661 0.0
Co1734 Co 0.67062 0.31545 0.40606 0.0
Co1735 Co 0.62064 0.27254 0.38982 0.0
C1736 C 0.65798 0.30662 0.34741 0.0
O1737 O 0.67927 0.3047 0.36526 0.0
O1738 O 0.63323 0.29586 0.35464 0.0
C1739 C 0.73208 0.32773 0.40659 0.0
O1740 O 0.73308 0.30271 0.39179 0.0
C1741 C 0.61895 0.21895 0.3582 0.0
C1742 C 0.57222 0.20476 0.35647 0.0
C1743 C 0.60053 0.1974 0.347 0.0
N1744 N 0.60277 0.23802 0.37412 0.0
N1745 N 0.57476 0.2294 0.37341 0.0
C1746 C 0.65121 0.22307 0.35135 0.0
H1747 H 0.66114 0.24046 0.36557 0.0
H1748 H 0.66327 0.20188 0.35456 0.0
H1749 H 0.65377 0.2296 0.32777 0.0
C1750 C 0.68499 0.26963 0.4504 0.0
N1751 N 0.66801 0.28125 0.42882 0.0
N1752 N 0.64848 0.26154 0.42015 0.0
C1753 C 0.65286 0.23642 0.43584 0.0
C1754 C 0.67639 0.24056 0.45528 0.0
C1755 C 0.71166 0.28446 0.46342 0.0
H1756 H 0.70794 0.30869 0.46518 0.0
H1757 H 0.73115 0.28028 0.44902 0.0
H1758 H 0.71659 0.27528 0.48572 0.0
O1759 O 0.6308 0.33769 0.40665 0.0
O1760 O 0.59481 0.30307 0.40529 0.0
H1761 H 0.639 0.19299 0.45013 0.0
H1762 H 0.64662 0.19644 0.41118 0.0
C1763 C 0.63683 0.20785 0.43063 0.0
H1764 H 0.61306 0.21216 0.42615 0.0
H1765 H 0.55733 0.24088 0.38339 0.0
O1766 O 0.70724 0.33781 0.41595 0.0
C1767 C 0.60323 0.33017 0.40676 0.0
Co1768 Co 0.49889 0.6437 0.40853 0.0
Co1769 Co 0.54185 0.69369 0.42466 0.0
C1770 C 0.50785 0.65636 0.46713 0.0
O1771 O 0.50975 0.63506 0.4493 0.0
O1772 O 0.51859 0.68112 0.45989 0.0
C1773 C 0.48661 0.58223 0.40803 0.0
O1774 O 0.51165 0.58122 0.42279 0.0
C1775 C 0.59557 0.6954 0.45607 0.0
C1776 C 0.60951 0.74218 0.4581 0.0
C1777 C 0.61708 0.71384 0.46732 0.0
N1778 N 0.57638 0.71158 0.44029 0.0
N1779 N 0.58487 0.73964 0.44118 0.0
C1780 C 0.59154 0.66312 0.46285 0.0
H1781 H 0.57404 0.65321 0.44874 0.0
H1782 H 0.61271 0.65109 0.45943 0.0
H1783 H 0.5852 0.66046 0.48647 0.0
C1784 C 0.54461 0.62933 0.36408 0.0
N1785 N 0.53305 0.64631 0.38569 0.0
N1786 N 0.55278 0.66584 0.3943 0.0
C1787 C 0.57784 0.66145 0.37854 0.0
C1788 C 0.57365 0.63794 0.35906 0.0
C1789 C 0.52973 0.60268 0.35109 0.0
H1790 H 0.5055 0.60642 0.34936 0.0
H1791 H 0.53391 0.58319 0.36548 0.0
H1792 H 0.53886 0.59773 0.32877 0.0
O1793 O 0.47665 0.68351 0.40795 0.0
O1794 O 0.51127 0.71951 0.40924 0.0
H1795 H 0.62119 0.67538 0.36406 0.0
H1796 H 0.61795 0.66763 0.40301 0.0
C1797 C 0.60642 0.67748 0.38365 0.0
H1798 H 0.60213 0.70124 0.38823 0.0
H1799 H 0.57325 0.75708 0.43138 0.0
O1800 O 0.47652 0.60707 0.39869 0.0
C1801 C 0.48417 0.71109 0.40781 0.0
Co1802 Co 0.17071 0.24899 0.65843 0.0
Co1803 Co 0.12071 0.29187 0.67469 0.0
C1804 C 0.15812 0.25783 0.71707 0.0
O1805 O 0.17939 0.25979 0.69921 0.0
O1806 O 0.13335 0.26857 0.70986 0.0
C1807 C 0.23216 0.23664 0.65786 0.0
O1808 O 0.23321 0.26165 0.67268 0.0
C1809 C 0.11901 0.34547 0.70631 0.0
C1810 C 0.07227 0.35962 0.70808 0.0
C1811 C 0.10059 0.36702 0.71751 0.0
N1812 N 0.10284 0.32638 0.69041 0.0
N1813 N 0.07481 0.33498 0.69115 0.0
C1814 C 0.15128 0.34139 0.71312 0.0
H1815 H 0.16122 0.32401 0.69888 0.0
H1816 H 0.16332 0.36259 0.7099 0.0
H1817 H 0.15388 0.33485 0.73669 0.0
C1818 C 0.18503 0.29482 0.61407 0.0
N1819 N 0.16806 0.28318 0.63565 0.0
N1820 N 0.14851 0.30287 0.64433 0.0
C1821 C 0.15285 0.32799 0.62863 0.0
C1822 C 0.17639 0.32387 0.60919 0.0
C1823 C 0.21172 0.28002 0.60108 0.0
H1824 H 0.20803 0.25579 0.59929 0.0
H1825 H 0.23119 0.28421 0.61551 0.0
H1826 H 0.21668 0.28922 0.57879 0.0
O1827 O 0.13091 0.22672 0.65788 0.0
O1828 O 0.09488 0.26131 0.65926 0.0
H1829 H 0.13893 0.37139 0.61432 0.0
H1830 H 0.14658 0.36798 0.65327 0.0
C1831 C 0.13679 0.35654 0.63384 0.0
H1832 H 0.11303 0.3522 0.63833 0.0
H1833 H 0.05738 0.32348 0.68119 0.0
O1834 O 0.20731 0.22661 0.6485 0.0
C1835 C 0.10333 0.23422 0.65778 0.0
Co1836 Co 0.56553 0.92065 0.90854 0.0
Co1837 Co 0.52259 0.87066 0.92475 0.0
C1838 C 0.55661 0.90802 0.96718 0.0
O1839 O 0.55472 0.92931 0.94932 0.0
O1840 O 0.54587 0.88326 0.95995 0.0
C1841 C 0.5778 0.98211 0.90801 0.0
O1842 O 0.55276 0.98312 0.92277 0.0
C1843 C 0.4689 0.86897 0.95621 0.0
C1844 C 0.45495 0.82219 0.95826 0.0
C1845 C 0.44739 0.85054 0.96747 0.0
N1846 N 0.48807 0.85278 0.94041 0.0
N1847 N 0.47958 0.82473 0.94132 0.0
C1848 C 0.47294 0.90126 0.96296 0.0
H1849 H 0.49042 0.91116 0.94883 0.0
H1850 H 0.45176 0.91328 0.95955 0.0
H1851 H 0.4793 0.90392 0.98658 0.0
C1852 C 0.51977 0.93498 0.86413 0.0
N1853 N 0.53135 0.91802 0.88574 0.0
N1854 N 0.51163 0.8985 0.89439 0.0
C1855 C 0.48655 0.90287 0.87864 0.0
C1856 C 0.49072 0.92637 0.85914 0.0
C1857 C 0.53464 0.96162 0.85111 0.0
H1858 H 0.55887 0.95788 0.84937 0.0
H1859 H 0.53047 0.98112 0.86548 0.0
H1860 H 0.52549 0.96655 0.82879 0.0
O1861 O 0.58777 0.88084 0.90797 0.0
O1862 O 0.55316 0.84484 0.90931 0.0
H1863 H 0.44319 0.88893 0.86421 0.0
H1864 H 0.44647 0.8967 0.90315 0.0
C1865 C 0.45797 0.88685 0.88379 0.0
H1866 H 0.46228 0.86309 0.88837 0.0
H1867 H 0.49118 0.80728 0.93152 0.0
O1868 O 0.58789 0.95727 0.89866 0.0
C1869 C 0.58025 0.85326 0.90785 0.0
Co1870 Co 0.89382 0.31548 0.1584 0.0
Co1871 Co 0.94382 0.27258 0.17458 0.0
C1872 C 0.90651 0.30665 0.21704 0.0
O1873 O 0.8852 0.30473 0.19921 0.0
O1874 O 0.93126 0.2959 0.20977 0.0
C1875 C 0.83235 0.32774 0.15791 0.0
O1876 O 0.83138 0.30271 0.17271 0.0
C1877 C 0.94547 0.21894 0.2061 0.0
C1878 C 0.99223 0.20491 0.20814 0.0
C1879 C 0.96387 0.19741 0.21737 0.0
N1880 N 0.96169 0.23807 0.19029 0.0
N1881 N 0.98972 0.22954 0.19119 0.0
C1882 C 0.91319 0.22302 0.21286 0.0
H1883 H 0.9033 0.24049 0.1987 0.0
H1884 H 0.90114 0.20185 0.2095 0.0
H1885 H 0.91054 0.22943 0.23646 0.0
C1886 C 0.8794 0.26966 0.11407 0.0
N1887 N 0.89641 0.28128 0.13563 0.0
N1888 N 0.91597 0.26158 0.14426 0.0
C1889 C 0.91158 0.23647 0.12857 0.0
C1890 C 0.88801 0.24061 0.10916 0.0
C1891 C 0.85272 0.28449 0.10108 0.0
H1892 H 0.85644 0.30872 0.0993 0.0
H1893 H 0.83325 0.28031 0.11549 0.0
H1894 H 0.84777 0.27531 0.07878 0.0
O1895 O 0.93363 0.33773 0.15778 0.0
O1896 O 0.96964 0.30312 0.1591 0.0
H1897 H 0.92554 0.19312 0.11415 0.0
H1898 H 0.91781 0.19641 0.15309 0.0
C1899 C 0.92764 0.20791 0.13372 0.0
H1900 H 0.9514 0.21224 0.13827 0.0
H1901 H 0.00719 0.24111 0.18136 0.0
O1902 O 0.85718 0.33783 0.14853 0.0
C1903 C 0.96121 0.33021 0.15764 0.0
Co1904 Co 0.65589 -0.00108 0.92065 0.0
Co1905 Co 0.63968 0.04187 0.87068 0.0
C1906 C 0.59726 0.00784 0.90804 0.0
O1907 O 0.61512 0.00974 0.92932 0.0
O1908 O 0.60448 0.01859 0.88328 0.0
C1909 C 0.65643 0.9866 0.98211 0.0
O1910 O 0.64164 0.01162 0.98314 0.0
C1911 C 0.60824 0.09557 0.86903 0.0
C1912 C 0.60622 0.10958 0.82227 0.0
C1913 C 0.597 0.11712 0.85062 0.0
N1914 N 0.62402 0.07641 0.85282 0.0
N1915 N 0.62313 0.08493 0.82478 0.0
C1916 C 0.60147 0.09151 0.90131 0.0
H1917 H 0.6156 0.07403 0.9112 0.0
H1918 H 0.60487 0.11268 0.91336 0.0
H1919 H 0.57786 0.08515 0.90396 0.0
C1920 C 0.70031 0.04466 0.935 0.0
N1921 N 0.6787 0.03309 0.91803 0.0
N1922 N 0.67005 0.05282 0.89852 0.0
C1923 C 0.6858 0.07789 0.9029 0.0
C1924 C 0.7053 0.07371 0.9264 0.0
C1925 C 0.71332 0.02978 0.96164 0.0
H1926 H 0.71507 0.00555 0.95789 0.0
H1927 H 0.69893 0.03394 0.98114 0.0
H1928 H 0.73563 0.03893 0.96658 0.0
O1929 O 0.65645 0.97669 0.88082 0.0
O1930 O 0.6551 0.01131 0.84483 0.0
H1931 H 0.70023 0.12126 0.88898 0.0
H1932 H 0.6613 0.11798 0.89675 0.0
C1933 C 0.68065 0.10648 0.88689 0.0
H1934 H 0.67607 0.10219 0.86313 0.0
H1935 H 0.63294 0.07334 0.80732 0.0
O1936 O 0.66578 0.97653 0.95726 0.0
C1937 C 0.65656 0.98422 0.85325 0.0
Co1938 Co 0.81556 0.4058 0.17059 0.0
Co1939 Co 0.7726 0.38962 0.12062 0.0
C1940 C 0.80662 0.34718 0.15796 0.0
O1941 O 0.80471 0.36503 0.17924 0.0
O1942 O 0.79587 0.35441 0.1332 0.0
C1943 C 0.82785 0.40633 0.23204 0.0
O1944 O 0.8028 0.39158 0.23306 0.0
C1945 C 0.71896 0.35809 0.11889 0.0
C1946 C 0.70479 0.3564 0.07215 0.0
C1947 C 0.69739 0.34693 0.10045 0.0
N1948 N 0.73806 0.37399 0.10273 0.0
N1949 N 0.72945 0.3733 0.07471 0.0
C1950 C 0.72304 0.35122 0.15114 0.0
H1951 H 0.74045 0.36541 0.16109 0.0
H1952 H 0.70186 0.35446 0.1632 0.0
H1953 H 0.72954 0.32763 0.1537 0.0
C1954 C 0.76984 0.45024 0.18494 0.0
N1955 N 0.7814 0.42862 0.16797 0.0
N1956 N 0.76166 0.41997 0.14847 0.0
C1957 C 0.73658 0.43571 0.15288 0.0
C1958 C 0.74078 0.45522 0.17637 0.0
C1959 C 0.78474 0.46326 0.21157 0.0
H1960 H 0.80897 0.46498 0.20781 0.0
H1961 H 0.78057 0.4489 0.23108 0.0
H1962 H 0.77562 0.48559 0.21649 0.0
O1963 O 0.83781 0.40636 0.13078 0.0
O1964 O 0.80318 0.40505 0.09478 0.0
H1965 H 0.69314 0.45005 0.13909 0.0
H1966 H 0.69656 0.41109 0.14672 0.0
C1967 C 0.70798 0.43052 0.13691 0.0
H1968 H 0.71224 0.42603 0.11313 0.0
H1969 H 0.74096 0.38328 0.05729 0.0
O1970 O 0.83794 0.41566 0.2072 0.0
C1971 C 0.83028 0.40649 0.10321 0.0
Co1972 Co 0.40854 0.56547 0.42059 0.0
Co1973 Co 0.42475 0.52251 0.37064 0.0
C1974 C 0.46716 0.55649 0.40805 0.0
O1975 O 0.44928 0.55459 0.42931 0.0
O1976 O 0.45996 0.54575 0.38328 0.0
C1977 C 0.40795 0.57783 0.48205 0.0
O1978 O 0.42272 0.5528 0.48312 0.0
C1979 C 0.45614 0.46877 0.36898 0.0
C1980 C 0.4582 0.4548 0.3222 0.0
C1981 C 0.46738 0.44723 0.35055 0.0
N1982 N 0.44039 0.48796 0.35277 0.0
N1983 N 0.4413 0.47946 0.32472 0.0
C1984 C 0.46289 0.47281 0.40126 0.0
H1985 H 0.44877 0.4903 0.41116 0.0
H1986 H 0.45946 0.45164 0.41329 0.0
H1987 H 0.48651 0.47915 0.40393 0.0
C1988 C 0.36406 0.51977 0.4349 0.0
N1989 N 0.38569 0.53133 0.41795 0.0
N1990 N 0.39434 0.51159 0.39844 0.0
C1991 C 0.37856 0.48653 0.40281 0.0
C1992 C 0.35906 0.49072 0.4263 0.0
C1993 C 0.35105 0.53466 0.46154 0.0
H1994 H 0.34932 0.55889 0.45779 0.0
H1995 H 0.36543 0.53049 0.48104 0.0
H1996 H 0.32873 0.52552 0.46647 0.0
O1997 O 0.40804 0.58771 0.38078 0.0
O1998 O 0.40939 0.55309 0.34478 0.0
H1999 H 0.36411 0.44318 0.38887 0.0
H2000 H 0.40304 0.44642 0.39667 0.0
C2001 C 0.3837 0.45794 0.3868 0.0
H2002 H 0.38831 0.46223 0.36304 0.0
H2003 H 0.43151 0.49107 0.30727 0.0
O2004 O 0.39864 0.58788 0.45719 0.0
C2005 C 0.40795 0.58018 0.3532 0.0
Co2006 Co 0.24896 0.15846 0.67053 0.0
Co2007 Co 0.2919 0.1747 0.62056 0.0
C2008 C 0.25784 0.21712 0.65791 0.0
O2009 O 0.2597 0.19926 0.67919 0.0
O2010 O 0.2686 0.20989 0.63315 0.0
C2011 C 0.23668 0.15791 0.73199 0.0
O2012 O 0.26171 0.1727 0.73299 0.0
C2013 C 0.34548 0.20633 0.61885 0.0
C2014 C 0.35966 0.20805 0.57212 0.0
C2015 C 0.36703 0.21752 0.60042 0.0
N2016 N 0.32641 0.19039 0.60268 0.0
N2017 N 0.33503 0.1911 0.57466 0.0
C2018 C 0.34137 0.21318 0.6511 0.0
H2019 H 0.32399 0.19895 0.66105 0.0
H2020 H 0.36256 0.20998 0.66317 0.0
H2021 H 0.33483 0.23675 0.65367 0.0
C2022 C 0.29477 0.11412 0.68491 0.0
N2023 N 0.28316 0.1357 0.66792 0.0
N2024 N 0.30289 0.14438 0.64841 0.0
C2025 C 0.328 0.12869 0.65282 0.0
C2026 C 0.32384 0.10924 0.67634 0.0
C2027 C 0.27991 0.10108 0.71155 0.0
H2028 H 0.25568 0.09932 0.70781 0.0
H2029 H 0.28408 0.11545 0.73106 0.0
H2030 H 0.28907 0.07877 0.71647 0.0
O2031 O 0.22673 0.15787 0.63072 0.0
O2032 O 0.26134 0.15923 0.59472 0.0
H2033 H 0.37145 0.11441 0.63901 0.0
H2034 H 0.36798 0.15336 0.64662 0.0
C2035 C 0.35659 0.13391 0.63682 0.0
H2036 H 0.3523 0.13839 0.61304 0.0
H2037 H 0.32355 0.18111 0.55724 0.0
O2038 O 0.2266 0.14856 0.70715 0.0
C2039 C 0.23425 0.15776 0.60315 0.0
Co2040 Co 0.65592 0.06556 0.14386 0.0
Co2041 Co 0.63975 0.02266 0.19387 0.0
C2042 C 0.59729 0.0567 0.15656 0.0
O2043 O 0.61512 0.05481 0.13525 0.0
O2044 O 0.60455 0.04596 0.18131 0.0
C2045 C 0.6564 0.07782 0.0824 0.0
O2046 O 0.64159 0.05281 0.08142 0.0
C2047 C 0.60829 0.96898 0.19554 0.0
C2048 C 0.60634 0.95492 0.24229 0.0
C2049 C 0.59709 0.94742 0.21395 0.0
N2050 N 0.62408 0.98814 0.21175 0.0
N2051 N 0.62323 0.97959 0.23978 0.0
C2052 C 0.60149 0.97306 0.16327 0.0
H2053 H 0.61563 0.99054 0.15336 0.0
H2054 H 0.60487 0.95189 0.15121 0.0
H2055 H 0.57788 0.97944 0.16064 0.0
C2056 C 0.70025 0.01974 0.12943 0.0
N2057 N 0.67869 0.03136 0.14644 0.0
N2058 N 0.67007 0.01167 0.16601 0.0
C2059 C 0.68578 0.98657 0.16163 0.0
C2060 C 0.70518 0.9907 0.13806 0.0
C2061 C 0.71323 0.03457 0.10274 0.0
H2062 H 0.715 0.0588 0.10644 0.0
H2063 H 0.6988 0.03037 0.08328 0.0
H2064 H 0.73552 0.02539 0.09778 0.0
O2065 O 0.65656 0.08781 0.18367 0.0
O2066 O 0.65524 0.05321 0.21968 0.0
H2067 H 0.70024 0.94323 0.17562 0.0
H2068 H 0.66129 0.94648 0.16791 0.0
C2069 C 0.68066 0.95801 0.17772 0.0
H2070 H 0.67612 0.96236 0.20147 0.0
H2071 H 0.63307 0.99116 0.25724 0.0
O2072 O 0.66578 0.08791 0.10722 0.0
C2073 C 0.65671 0.0803 0.21125 0.0
Co2074 Co 0.74886 0.40582 0.39386 0.0
Co2075 Co 0.7918 0.38968 0.44385 0.0
C2076 C 0.7578 0.3472 0.40653 0.0
O2077 O 0.7597 0.36504 0.38523 0.0
O2078 O 0.76854 0.35445 0.43129 0.0
C2079 C 0.73661 0.40632 0.3324 0.0
O2080 O 0.76165 0.39156 0.33141 0.0
C2081 C 0.84544 0.35814 0.44562 0.0
C2082 C 0.85957 0.35645 0.49237 0.0
C2083 C 0.86698 0.34698 0.46408 0.0
N2084 N 0.82633 0.37406 0.46177 0.0
N2085 N 0.83492 0.37336 0.48979 0.0
C2086 C 0.84137 0.35126 0.41337 0.0
H2087 H 0.82396 0.36544 0.40341 0.0
H2088 H 0.86256 0.35451 0.40132 0.0
H2089 H 0.83489 0.32767 0.41081 0.0
C2090 C 0.79458 0.45025 0.37949 0.0
N2091 N 0.78302 0.42864 0.39647 0.0
N2092 N 0.80276 0.42 0.41598 0.0
C2093 C 0.82783 0.43574 0.41157 0.0
C2094 C 0.82363 0.45524 0.38807 0.0
C2095 C 0.77968 0.46327 0.35286 0.0
H2096 H 0.75545 0.46498 0.35662 0.0
H2097 H 0.78385 0.4489 0.33336 0.0
H2098 H 0.78881 0.48559 0.34794 0.0
O2099 O 0.7266 0.4064 0.43366 0.0
O2100 O 0.76121 0.40512 0.46966 0.0
H2101 H 0.87127 0.45009 0.42536 0.0
H2102 H 0.86785 0.41113 0.41775 0.0
C2103 C 0.85643 0.43057 0.42755 0.0
H2104 H 0.85216 0.42608 0.45133 0.0
H2105 H 0.8234 0.38334 0.5072 0.0
O2106 O 0.7265 0.41566 0.35723 0.0
C2107 C 0.73412 0.40655 0.46123 0.0
Co2108 Co 0.40846 0.49894 0.64372 0.0
Co2109 Co 0.42463 0.54184 0.69374 0.0
C2110 C 0.46709 0.50782 0.65641 0.0
O2111 O 0.44926 0.50972 0.6351 0.0
O2112 O 0.45983 0.51855 0.68116 0.0
C2113 C 0.40799 0.48664 0.58226 0.0
O2114 O 0.4228 0.51165 0.58125 0.0
C2115 C 0.45608 0.59553 0.6954 0.0
C2116 C 0.45807 0.60956 0.74216 0.0
C2117 C 0.4673 0.61708 0.71382 0.0
N2118 N 0.44029 0.57637 0.71161 0.0
N2119 N 0.44116 0.5849 0.73965 0.0
C2120 C 0.46286 0.59146 0.66313 0.0
H2121 H 0.44873 0.57399 0.65322 0.0
H2122 H 0.45948 0.61263 0.65108 0.0
H2123 H 0.48647 0.58509 0.66049 0.0
C2124 C 0.36412 0.54475 0.6293 0.0
N2125 N 0.38568 0.53313 0.64632 0.0
N2126 N 0.39429 0.55282 0.66589 0.0
C2127 C 0.37858 0.57792 0.66152 0.0
C2128 C 0.35918 0.57379 0.63794 0.0
C2129 C 0.35117 0.52994 0.6026 0.0
H2130 H 0.34938 0.50571 0.60629 0.0
H2131 H 0.36561 0.53413 0.58315 0.0
H2132 H 0.32888 0.53912 0.59761 0.0
O2133 O 0.40785 0.47668 0.68353 0.0
O2134 O 0.40917 0.51128 0.71955 0.0
H2135 H 0.36411 0.62124 0.67552 0.0
H2136 H 0.40305 0.61801 0.6678 0.0
C2137 C 0.38369 0.60647 0.67761 0.0
H2138 H 0.38824 0.60212 0.70137 0.0
H2139 H 0.43134 0.57332 0.75711 0.0
O2140 O 0.3986 0.47657 0.60709 0.0
C2141 C 0.40771 0.48419 0.71111 0.0
Co2142 Co 0.31548 0.15844 0.89386 0.0
Co2143 Co 0.27253 0.17467 0.94381 0.0
C2144 C 0.3066 0.21709 0.90649 0.0
O2145 O 0.30475 0.19924 0.8852 0.0
O2146 O 0.29583 0.20986 0.93124 0.0
C2147 C 0.32776 0.15789 0.8324 0.0
O2148 O 0.30274 0.17269 0.83139 0.0
C2149 C 0.21895 0.20631 0.94553 0.0
C2150 C 0.2048 0.20808 0.99227 0.0
C2151 C 0.19743 0.21754 0.96396 0.0
N2152 N 0.23801 0.19036 0.96169 0.0
N2153 N 0.22941 0.1911 0.98972 0.0
C2154 C 0.22305 0.21315 0.91327 0.0
H2155 H 0.24044 0.19893 0.90333 0.0
H2156 H 0.20186 0.20993 0.90121 0.0
H2157 H 0.22958 0.23673 0.91069 0.0
C2158 C 0.26971 0.11406 0.8795 0.0
N2159 N 0.28128 0.13567 0.89646 0.0
N2160 N 0.26154 0.14435 0.91595 0.0
C2161 C 0.23645 0.12864 0.91153 0.0
C2162 C 0.24064 0.10912 0.88806 0.0
C2163 C 0.28461 0.101 0.85289 0.0
H2164 H 0.30883 0.09924 0.85667 0.0
H2165 H 0.28048 0.11535 0.83337 0.0
H2166 H 0.27545 0.07868 0.84798 0.0
O2167 O 0.33771 0.15784 0.93367 0.0
O2168 O 0.30308 0.1592 0.96965 0.0
H2169 H 0.19297 0.11438 0.92529 0.0
H2170 H 0.19646 0.15333 0.91766 0.0
C2171 C 0.20784 0.13388 0.92748 0.0
H2172 H 0.21209 0.13837 0.95127 0.0
H2173 H 0.2409 0.18111 0.00714 0.0
O2174 O 0.33784 0.14853 0.85724 0.0
C2175 C 0.33017 0.15773 0.96124 0.0
Co2176 Co 0.92071 0.156 0.49897 0.0
Co2177 Co 0.87073 0.13976 0.5419 0.0
C2178 C 0.9081 0.09736 0.50785 0.0
O2179 O 0.92938 0.11521 0.50975 0.0
O2180 O 0.88333 0.10458 0.5186 0.0
C2181 C 0.98218 0.15653 0.48664 0.0
O2182 O 0.98321 0.1417 0.51164 0.0
C2183 C 0.86905 0.10818 0.59551 0.0
C2184 C 0.82232 0.10646 0.60971 0.0
C2185 C 0.85063 0.09701 0.61709 0.0
N2186 N 0.85287 0.12408 0.57643 0.0
N2187 N 0.82485 0.12338 0.58506 0.0
C2188 C 0.9013 0.10133 0.5914 0.0
H2189 H 0.91124 0.11554 0.57401 0.0
H2190 H 0.91337 0.10455 0.61259 0.0
H2191 H 0.90387 0.07775 0.58488 0.0
C2192 C 0.93508 0.20035 0.54479 0.0
N2193 N 0.91809 0.17877 0.53317 0.0
N2194 N 0.89856 0.17011 0.55288 0.0
C2195 C 0.90293 0.18581 0.57798 0.0
C2196 C 0.92647 0.20524 0.57384 0.0
C2197 C 0.96176 0.21334 0.52996 0.0
H2198 H 0.95805 0.21513 0.50573 0.0
H2199 H 0.98123 0.19892 0.53413 0.0
H2200 H 0.96672 0.23563 0.53915 0.0
O2201 O 0.8809 0.15658 0.47673 0.0
O2202 O 0.84489 0.15521 0.51134 0.0
H2203 H 0.88906 0.20013 0.6214 0.0
H2204 H 0.89668 0.16118 0.61798 0.0
C2205 C 0.88689 0.18062 0.60655 0.0
H2206 H 0.86312 0.17614 0.60223 0.0
H2207 H 0.80742 0.13335 0.57357 0.0
O2208 O 0.95733 0.16591 0.4766 0.0
C2209 C 0.85332 0.15668 0.48425 0.0
Co2210 Co 0.42069 0.90848 0.06561 0.0
Co2211 Co 0.37068 0.92466 0.02271 0.0
C2212 C 0.40803 0.96711 0.05674 0.0
O2213 O 0.42932 0.94927 0.05479 0.0
O2214 O 0.38327 0.95985 0.046 0.0
C2215 C 0.48215 0.908 0.07792 0.0
O2216 O 0.48316 0.9228 0.0529 0.0
C2217 C 0.36902 0.95611 0.96902 0.0
C2218 C 0.32226 0.9581 0.95499 0.0
C2219 C 0.35061 0.96733 0.94747 0.0
N2220 N 0.35281 0.94033 0.98818 0.0
N2221 N 0.32477 0.9412 0.97965 0.0
C2222 C 0.4013 0.96289 0.97309 0.0
H2223 H 0.4112 0.94875 0.99056 0.0
H2224 H 0.41334 0.95952 0.95191 0.0
H2225 H 0.40394 0.9865 0.97948 0.0
C2226 C 0.43508 0.86412 0.01981 0.0
N2227 N 0.41808 0.88568 0.03143 0.0
N2228 N 0.39851 0.89431 0.01173 0.0
C2229 C 0.40287 0.87859 0.98664 0.0
C2230 C 0.42645 0.85919 0.99076 0.0
C2231 C 0.46179 0.85117 0.03462 0.0
H2232 H 0.4581 0.8494 0.05885 0.0
H2233 H 0.48124 0.86561 0.03041 0.0
H2234 H 0.46677 0.82888 0.02544 0.0
O2235 O 0.38088 0.90789 0.08787 0.0
O2236 O 0.34486 0.90921 0.05327 0.0
H2237 H 0.38887 0.86413 0.94331 0.0
H2238 H 0.39659 0.90307 0.94655 0.0
C2239 C 0.38678 0.88371 0.95809 0.0
H2240 H 0.36303 0.88826 0.96244 0.0
H2241 H 0.30732 0.93138 0.99123 0.0
O2242 O 0.45731 0.89862 0.08798 0.0
C2243 C 0.3533 0.90776 0.08036 0.0
Co2244 Co 0.90594 0.17077 0.31554 0.0
Co2245 Co 0.88971 0.12077 0.27264 0.0
C2246 C 0.84731 0.15815 0.30668 0.0
O2247 O 0.86516 0.17944 0.30476 0.0
O2248 O 0.85453 0.13338 0.29594 0.0
C2249 C 0.90645 0.23224 0.32791 0.0
O2250 O 0.8916 0.23329 0.30293 0.0
C2251 C 0.8581 0.11904 0.21903 0.0
C2252 C 0.85634 0.07229 0.20492 0.0
C2253 C 0.8469 0.10059 0.1975 0.0
N2254 N 0.87401 0.10288 0.23813 0.0
N2255 N 0.87328 0.07485 0.22955 0.0
C2256 C 0.85128 0.1513 0.22309 0.0
H2257 H 0.8655 0.16125 0.24048 0.0
H2258 H 0.85451 0.16334 0.20189 0.0
H2259 H 0.8277 0.1539 0.22961 0.0
C2260 C 0.95028 0.18513 0.26971 0.0
N2261 N 0.92871 0.16815 0.28134 0.0
N2262 N 0.92005 0.14859 0.26165 0.0
C2263 C 0.93576 0.15294 0.23655 0.0
C2264 C 0.95519 0.17648 0.24067 0.0
C2265 C 0.96325 0.21183 0.28451 0.0
H2266 H 0.96506 0.20814 0.30874 0.0
H2267 H 0.9488 0.23128 0.28034 0.0
H2268 H 0.98553 0.21682 0.2753 0.0
O2269 O 0.90653 0.13096 0.3378 0.0
O2270 O 0.90516 0.09495 0.3032 0.0
H2271 H 0.9501 0.13901 0.19315 0.0
H2272 H 0.91114 0.14664 0.19655 0.0
C2273 C 0.93058 0.13687 0.208 0.0
H2274 H 0.92609 0.1131 0.21234 0.0
H2275 H 0.88324 0.05743 0.24106 0.0
O2276 O 0.91585 0.20739 0.33792 0.0
C2277 C 0.90664 0.10338 0.33029 0.0
Co2278 Co 0.64379 0.65598 0.5655 0.0
Co2279 Co 0.6938 0.63977 0.52262 0.0
C2280 C 0.65645 0.59734 0.55668 0.0
O2281 O 0.63516 0.61518 0.55474 0.0
O2282 O 0.68121 0.6046 0.54595 0.0
C2283 C 0.58234 0.65647 0.57783 0.0
O2284 O 0.58132 0.64165 0.55282 0.0
C2285 C 0.69542 0.60827 0.46896 0.0
C2286 C 0.74217 0.60626 0.45489 0.0
C2287 C 0.71381 0.59703 0.4474 0.0
N2288 N 0.71165 0.62406 0.4881 0.0
N2289 N 0.73968 0.62318 0.47955 0.0
C2290 C 0.66314 0.60151 0.47305 0.0
H2291 H 0.65325 0.61567 0.49051 0.0
H2292 H 0.65109 0.60486 0.45188 0.0
H2293 H 0.6605 0.57791 0.47946 0.0
C2294 C 0.62939 0.7003 0.51967 0.0
N2295 N 0.6464 0.67875 0.5313 0.0
N2296 N 0.66597 0.67011 0.51162 0.0
C2297 C 0.6616 0.68581 0.48651 0.0
C2298 C 0.63803 0.70521 0.49062 0.0
C2299 C 0.60268 0.71326 0.53446 0.0
H2300 H 0.60637 0.71506 0.55869 0.0
H2301 H 0.58323 0.69881 0.53028 0.0
H2302 H 0.59769 0.73554 0.52526 0.0
O2303 O 0.68361 0.65659 0.58776 0.0
O2304 O 0.71963 0.65524 0.55317 0.0
H2305 H 0.67562 0.70024 0.44318 0.0
H2306 H 0.66789 0.6613 0.44644 0.0
C2307 C 0.6777 0.68067 0.45797 0.0
H2308 H 0.70145 0.67612 0.46232 0.0
H2309 H 0.75715 0.633 0.49111 0.0
O2310 O 0.60717 0.66586 0.58787 0.0
C2311 C 0.71119 0.65671 0.58025 0.0
Co2312 Co 0.65847 0.89383 0.8155 0.0
Co2313 Co 0.67468 0.94383 0.7726 0.0
C2314 C 0.7171 0.90648 0.80667 0.0
O2315 O 0.69926 0.88519 0.80472 0.0
O2316 O 0.70986 0.93124 0.79592 0.0
C2317 C 0.65797 0.83238 0.82781 0.0
O2318 O 0.67278 0.83136 0.8028 0.0
C2319 C 0.70616 0.94544 0.71892 0.0
C2320 C 0.70813 0.99217 0.70482 0.0
C2321 C 0.71737 0.96382 0.69733 0.0
N2322 N 0.69038 0.96167 0.73806 0.0
N2323 N 0.69124 0.98969 0.72949 0.0
C2324 C 0.71294 0.91316 0.72302 0.0
H2325 H 0.69879 0.90328 0.7405 0.0
H2326 H 0.70958 0.90109 0.70186 0.0
H2327 H 0.73655 0.91053 0.72942 0.0
C2328 C 0.61413 0.87943 0.76968 0.0
N2329 N 0.63569 0.89643 0.78131 0.0
N2330 N 0.64433 0.916 0.76161 0.0
C2331 C 0.62863 0.91162 0.7365 0.0
C2332 C 0.60922 0.88805 0.74063 0.0
C2333 C 0.60116 0.85274 0.7845 0.0
H2334 H 0.59938 0.85644 0.80873 0.0
H2335 H 0.61559 0.83328 0.78031 0.0
H2336 H 0.57887 0.84777 0.77531 0.0
O2337 O 0.65787 0.93365 0.83774 0.0
O2338 O 0.65922 0.96967 0.80315 0.0
H2339 H 0.6142 0.92561 0.69317 0.0
H2340 H 0.65314 0.91788 0.69643 0.0
C2341 C 0.63377 0.9277 0.70795 0.0
H2342 H 0.63832 0.95145 0.71229 0.0
H2343 H 0.68141 0.00716 0.74105 0.0
O2344 O 0.64859 0.85722 0.83787 0.0
C2345 C 0.65775 0.96123 0.83024 0.0
Co2346 Co 0.1438 0.90854 0.49883 0.0
Co2347 Co 0.19379 0.92478 0.54174 0.0
C2348 C 0.15642 0.96719 0.5077 0.0
O2349 O 0.13514 0.94933 0.50959 0.0
O2350 O 0.18119 0.95997 0.51844 0.0
C2351 C 0.08233 0.90801 0.48653 0.0
O2352 O 0.08132 0.92284 0.51153 0.0
C2353 C 0.19553 0.95639 0.59534 0.0
C2354 C 0.24228 0.95809 0.6095 0.0
C2355 C 0.21398 0.96757 0.61689 0.0
N2356 N 0.21169 0.94046 0.57625 0.0
N2357 N 0.23971 0.94116 0.58486 0.0
C2358 C 0.16328 0.96325 0.59126 0.0
H2359 H 0.15332 0.94903 0.57388 0.0
H2360 H 0.15123 0.96004 0.61246 0.0
H2361 H 0.16071 0.98683 0.58473 0.0
C2362 C 0.12943 0.8642 0.54465 0.0
N2363 N 0.14642 0.88578 0.53303 0.0
N2364 N 0.16595 0.89445 0.55274 0.0
C2365 C 0.16157 0.87876 0.57785 0.0
C2366 C 0.13804 0.85931 0.57371 0.0
C2367 C 0.10276 0.85119 0.52982 0.0
H2368 H 0.10648 0.84941 0.50559 0.0
H2369 H 0.08328 0.8656 0.53399 0.0
H2370 H 0.09782 0.82889 0.53901 0.0
O2371 O 0.18361 0.90794 0.47658 0.0
O2372 O 0.21961 0.90931 0.51119 0.0
H2373 H 0.17543 0.86446 0.62128 0.0
H2374 H 0.16782 0.90341 0.61784 0.0
C2375 C 0.1776 0.88396 0.60642 0.0
H2376 H 0.20138 0.88843 0.60211 0.0
H2377 H 0.25712 0.93117 0.57336 0.0
O2378 O 0.10717 0.89864 0.47647 0.0
C2379 C 0.21118 0.90782 0.4841 0.0
Co2380 Co 0.90596 0.39375 0.24896 0.0
Co2381 Co 0.88964 0.44375 0.29184 0.0
C2382 C 0.8473 0.40632 0.25778 0.0
O2383 O 0.86517 0.38506 0.25969 0.0
O2384 O 0.85449 0.4311 0.26852 0.0
C2385 C 0.90654 0.3323 0.23659 0.0
O2386 O 0.89166 0.33124 0.26156 0.0
C2387 C 0.85801 0.44543 0.34544 0.0
C2388 C 0.85628 0.49216 0.35963 0.0
C2389 C 0.84684 0.46385 0.36701 0.0
N2390 N 0.87391 0.46161 0.32635 0.0
N2391 N 0.87319 0.48963 0.33498 0.0
C2392 C 0.85119 0.41317 0.34135 0.0
H2393 H 0.86543 0.40323 0.32397 0.0
H2394 H 0.8544 0.40112 0.36254 0.0
H2395 H 0.82762 0.41058 0.3348 0.0
C2396 C 0.95026 0.37943 0.29484 0.0
N2397 N 0.92869 0.3964 0.28319 0.0
N2398 N 0.92 0.41596 0.30287 0.0
C2399 C 0.93568 0.41162 0.32799 0.0
C2400 C 0.95513 0.38808 0.32389 0.0
C2401 C 0.96326 0.35273 0.28006 0.0
H2402 H 0.96509 0.35642 0.25583 0.0
H2403 H 0.94881 0.33327 0.28423 0.0
H2404 H 0.98553 0.34776 0.28929 0.0
O2405 O 0.90653 0.43356 0.22671 0.0
O2406 O 0.9051 0.46959 0.2613 0.0
H2407 H 0.94998 0.42556 0.37139 0.0
H2408 H 0.91103 0.41792 0.36797 0.0
C2409 C 0.93047 0.42769 0.35653 0.0
H2410 H 0.92598 0.45146 0.35218 0.0
H2411 H 0.88317 0.50706 0.32349 0.0
O2412 O 0.91592 0.35716 0.22659 0.0
C2413 C 0.90661 0.46114 0.23421 0.0
Co2414 Co 0.15859 0.17066 0.74885 0.0
Co2415 Co 0.17477 0.12064 0.79175 0.0
C2416 C 0.21722 0.15796 0.75771 0.0
O2417 O 0.19939 0.17927 0.75962 0.0
O2418 O 0.20997 0.1332 0.76845 0.0
C2419 C 0.15813 0.23211 0.73654 0.0
O2420 O 0.17298 0.23312 0.76153 0.0
C2421 C 0.20633 0.11894 0.84537 0.0
C2422 C 0.20795 0.07223 0.85962 0.0
C2423 C 0.21744 0.10053 0.86698 0.0
N2424 N 0.19042 0.10277 0.82629 0.0
N2425 N 0.19107 0.07476 0.83494 0.0
C2426 C 0.21322 0.15119 0.84126 0.0
H2427 H 0.19902 0.16114 0.82386 0.0
H2428 H 0.21002 0.16327 0.86244 0.0
H2429 H 0.2368 0.15372 0.83473 0.0
C2430 C 0.11427 0.18508 0.79468 0.0
N2431 N 0.13582 0.16807 0.78305 0.0
N2432 N 0.14445 0.14851 0.80275 0.0
C2433 C 0.12876 0.15289 0.82785 0.0
C2434 C 0.10936 0.17646 0.82373 0.0
C2435 C 0.10131 0.21179 0.77987 0.0
H2436 H 0.09952 0.20809 0.75563 0.0
H2437 H 0.11576 0.23123 0.78405 0.0
H2438 H 0.07903 0.21678 0.78906 0.0
O2439 O 0.15796 0.13085 0.7266 0.0
O2440 O 0.15928 0.09483 0.76119 0.0
H2441 H 0.1144 0.139 0.87125 0.0
H2442 H 0.15337 0.14657 0.86786 0.0
C2443 C 0.13392 0.13682 0.85641 0.0
H2444 H 0.13837 0.11305 0.85208 0.0
H2445 H 0.18108 0.05734 0.82347 0.0
O2446 O 0.14872 0.20728 0.72649 0.0
C2447 C 0.15782 0.10327 0.73411 0.0
Co2448 Co 0.49897 0.92066 0.15603 0.0
Co2449 Co 0.5419 0.87068 0.1398 0.0
C2450 C 0.50786 0.90804 0.09739 0.0
O2451 O 0.50976 0.92932 0.11525 0.0
O2452 O 0.51861 0.88328 0.10461 0.0
C2453 C 0.48666 0.98212 0.15656 0.0
O2454 O 0.51169 0.98314 0.14177 0.0
C2455 C 0.5955 0.86895 0.1082 0.0
C2456 C 0.60965 0.82221 0.10646 0.0
C2457 C 0.61704 0.85052 0.097 0.0
N2458 N 0.57642 0.85279 0.12412 0.0
N2459 N 0.58502 0.82477 0.1234 0.0
C2460 C 0.59141 0.90121 0.10135 0.0
H2461 H 0.57403 0.91116 0.11558 0.0
H2462 H 0.61261 0.91326 0.10457 0.0
H2463 H 0.58488 0.90379 0.07778 0.0
C2464 C 0.54477 0.93503 0.20039 0.0
N2465 N 0.53316 0.91804 0.17881 0.0
N2466 N 0.55288 0.89851 0.17015 0.0
C2467 C 0.57798 0.9029 0.18584 0.0
C2468 C 0.57383 0.92644 0.20528 0.0
C2469 C 0.52992 0.96169 0.2134 0.0
H2470 H 0.50569 0.95797 0.21517 0.0
H2471 H 0.5341 0.98118 0.199 0.0
H2472 H 0.5391 0.96663 0.2357 0.0
O2473 O 0.47672 0.88085 0.15661 0.0
O2474 O 0.51133 0.84485 0.15525 0.0
H2475 H 0.62142 0.88906 0.20015 0.0
H2476 H 0.61798 0.89669 0.16119 0.0
C2477 C 0.60656 0.88689 0.18063 0.0
H2478 H 0.60227 0.86311 0.17615 0.0
H2479 H 0.57352 0.80735 0.13338 0.0
O2480 O 0.4766 0.95728 0.16592 0.0
C2481 C 0.48424 0.85327 0.15672 0.0
Co2482 Co 0.3938 0.74886 0.40584 0.0
Co2483 Co 0.44383 0.79176 0.38969 0.0
C2484 C 0.40652 0.75774 0.34722 0.0
O2485 O 0.3852 0.75965 0.36504 0.0
O2486 O 0.43128 0.76847 0.35449 0.0
C2487 C 0.33234 0.73659 0.40629 0.0
O2488 O 0.33135 0.7616 0.39148 0.0
C2489 C 0.44556 0.84538 0.35813 0.0
C2490 C 0.49229 0.85957 0.35647 0.0
C2491 C 0.46399 0.86696 0.34699 0.0
N2492 N 0.46173 0.82628 0.37404 0.0
N2493 N 0.48974 0.83491 0.37337 0.0
C2494 C 0.41331 0.84128 0.35125 0.0
H2495 H 0.40336 0.82388 0.36545 0.0
H2496 H 0.40125 0.86247 0.35447 0.0
H2497 H 0.41077 0.83477 0.32767 0.0
C2498 C 0.37938 0.79468 0.45018 0.0
N2499 N 0.3964 0.78305 0.42862 0.0
N2500 N 0.41596 0.80275 0.42 0.0
C2501 C 0.41157 0.82786 0.43569 0.0
C2502 C 0.388 0.82373 0.4551 0.0
C2503 C 0.35268 0.77986 0.46313 0.0
H2504 H 0.35637 0.75563 0.46491 0.0
H2505 H 0.33322 0.78406 0.4487 0.0
H2506 H 0.3477 0.78904 0.48542 0.0
O2507 O 0.4336 0.7266 0.40647 0.0
O2508 O 0.46963 0.76119 0.40517 0.0
H2509 H 0.42547 0.87125 0.45007 0.0
H2510 H 0.41789 0.86787 0.4111 0.0
C2511 C 0.42764 0.85641 0.43054 0.0
H2512 H 0.45142 0.85208 0.42609 0.0
H2513 H 0.50716 0.82342 0.38336 0.0
O2514 O 0.35716 0.72652 0.41568 0.0
C2515 C 0.46118 0.7341 0.40662 0.0
Co2516 Co 0.56548 0.64381 0.65596 0.0
Co2517 Co 0.52258 0.69381 0.63972 0.0
C2518 C 0.55663 0.65644 0.59731 0.0
O2519 O 0.55474 0.63515 0.61516 0.0
O2520 O 0.54589 0.6812 0.60454 0.0
C2521 C 0.57779 0.58235 0.65649 0.0
O2522 O 0.55279 0.58133 0.64167 0.0
C2523 C 0.46899 0.69553 0.60808 0.0
C2524 C 0.45483 0.74226 0.60636 0.0
C2525 C 0.44745 0.71396 0.59689 0.0
N2526 N 0.48807 0.71169 0.62401 0.0
N2527 N 0.47946 0.73971 0.6233 0.0
C2528 C 0.47309 0.66327 0.60124 0.0
H2529 H 0.49046 0.65332 0.61547 0.0
H2530 H 0.45189 0.65122 0.60443 0.0
H2531 H 0.47964 0.6607 0.57767 0.0
C2532 C 0.51963 0.62943 0.70028 0.0
N2533 N 0.53127 0.64642 0.67871 0.0
N2534 N 0.51157 0.66597 0.67004 0.0
C2535 C 0.48645 0.66159 0.68572 0.0
C2536 C 0.49058 0.63804 0.70516 0.0
C2537 C 0.53445 0.60275 0.71328 0.0
H2538 H 0.55868 0.60646 0.71507 0.0
H2539 H 0.53028 0.58328 0.69886 0.0
H2540 H 0.52525 0.5978 0.73557 0.0
O2541 O 0.58773 0.68361 0.65656 0.0
O2542 O 0.55314 0.71963 0.65519 0.0
H2543 H 0.44302 0.67546 0.70002 0.0
H2544 H 0.44647 0.66785 0.66106 0.0
C2545 C 0.45789 0.67762 0.68051 0.0
H2546 H 0.46221 0.7014 0.67604 0.0
H2547 H 0.49095 0.75713 0.63329 0.0
O2548 O 0.58784 0.60719 0.66587 0.0
C2549 C 0.58023 0.71119 0.65667 0.0
Co2550 Co 0.67063 0.81552 0.90594 0.0
Co2551 Co 0.62064 0.77262 0.8897 0.0
C2552 C 0.658 0.80667 0.84729 0.0
O2553 O 0.67929 0.80477 0.86514 0.0
O2554 O 0.63324 0.79593 0.85452 0.0
C2555 C 0.73209 0.82782 0.90647 0.0
O2556 O 0.7331 0.8028 0.89166 0.0
C2557 C 0.61894 0.71902 0.85809 0.0
C2558 C 0.57221 0.70482 0.85638 0.0
C2559 C 0.60052 0.69744 0.84692 0.0
N2560 N 0.60276 0.7381 0.874 0.0
N2561 N 0.57475 0.72947 0.8733 0.0
C2562 C 0.65119 0.72312 0.85124 0.0
H2563 H 0.66113 0.74051 0.86546 0.0
H2564 H 0.66326 0.70193 0.85447 0.0
H2565 H 0.65376 0.72964 0.82766 0.0
C2566 C 0.685 0.76968 0.95027 0.0
N2567 N 0.66802 0.78131 0.92869 0.0
N2568 N 0.64847 0.76161 0.92003 0.0
C2569 C 0.65284 0.7365 0.93572 0.0
C2570 C 0.67638 0.74063 0.95516 0.0
C2571 C 0.71168 0.7845 0.96327 0.0
H2572 H 0.70797 0.80873 0.96505 0.0
H2573 H 0.73116 0.78032 0.94887 0.0
H2574 H 0.71662 0.77531 0.98557 0.0
O2575 O 0.63082 0.83777 0.90654 0.0
O2576 O 0.59481 0.80317 0.90517 0.0
H2577 H 0.63895 0.69309 0.95004 0.0
H2578 H 0.64656 0.69651 0.91108 0.0
C2579 C 0.63679 0.70794 0.93053 0.0
H2580 H 0.61302 0.71227 0.92605 0.0
H2581 H 0.55732 0.74096 0.88328 0.0
O2582 O 0.70725 0.83788 0.91584 0.0
C2583 C 0.60325 0.83026 0.90665 0.0
Co2584 Co 0.49885 0.14382 0.90853 0.0
Co2585 Co 0.54175 0.19381 0.92476 0.0
C2586 C 0.50772 0.15644 0.96717 0.0
O2587 O 0.50962 0.13515 0.94932 0.0
O2588 O 0.51845 0.1812 0.95995 0.0
C2589 C 0.48657 0.08236 0.908 0.0
O2590 O 0.5116 0.08136 0.92278 0.0
C2591 C 0.59542 0.19545 0.95624 0.0
C2592 C 0.60948 0.2422 0.95824 0.0
C2593 C 0.61699 0.21385 0.96747 0.0
N2594 N 0.57627 0.21167 0.94046 0.0
N2595 N 0.58482 0.2397 0.94133 0.0
C2596 C 0.59135 0.16317 0.96301 0.0
H2597 H 0.57388 0.15328 0.94885 0.0
H2598 H 0.61252 0.15112 0.95965 0.0
H2599 H 0.58494 0.16053 0.98661 0.0
C2600 C 0.54467 0.12944 0.86418 0.0
N2601 N 0.53304 0.14643 0.88576 0.0
N2602 N 0.55274 0.16599 0.89441 0.0
C2603 C 0.57785 0.16162 0.8787 0.0
C2604 C 0.57372 0.13807 0.85928 0.0
C2605 C 0.52985 0.10276 0.85119 0.0
H2606 H 0.50561 0.10647 0.84942 0.0
H2607 H 0.53404 0.08329 0.86559 0.0
H2608 H 0.53902 0.09783 0.82888 0.0
O2609 O 0.4766 0.18363 0.90794 0.0
O2610 O 0.51121 0.21964 0.90931 0.0
H2611 H 0.62119 0.17561 0.86428 0.0
H2612 H 0.61792 0.16787 0.90322 0.0
C2613 C 0.6064 0.17769 0.88385 0.0
H2614 H 0.60206 0.20145 0.88841 0.0
H2615 H 0.57325 0.25717 0.93151 0.0
O2616 O 0.47649 0.1072 0.89864 0.0
C2617 C 0.48412 0.21121 0.90783 0.0
Co2618 Co 0.17065 0.74885 0.15858 0.0
Co2619 Co 0.12064 0.79176 0.17475 0.0
C2620 C 0.15795 0.75771 0.2172 0.0
O2621 O 0.17925 0.75966 0.19938 0.0
O2622 O 0.1332 0.76846 0.20994 0.0
C2623 C 0.23211 0.73657 0.15811 0.0
O2624 O 0.23311 0.76159 0.17292 0.0
C2625 C 0.11889 0.84537 0.20633 0.0
C2626 C 0.07215 0.85957 0.20795 0.0
C2627 C 0.10045 0.86695 0.21746 0.0
N2628 N 0.10274 0.82628 0.1904 0.0
N2629 N 0.07472 0.83491 0.19106 0.0
C2630 C 0.15113 0.84128 0.21322 0.0
H2631 H 0.1611 0.8239 0.19901 0.0
H2632 H 0.16319 0.86248 0.21002 0.0
H2633 H 0.15367 0.83474 0.2368 0.0
C2634 C 0.18506 0.79465 0.11423 0.0
N2635 N 0.16805 0.78304 0.1358 0.0
N2636 N 0.1485 0.80275 0.14443 0.0
C2637 C 0.1529 0.82785 0.12874 0.0
C2638 C 0.17646 0.82371 0.10933 0.0
C2639 C 0.21175 0.77982 0.10126 0.0
H2640 H 0.20804 0.75559 0.0995 0.0
H2641 H 0.23121 0.78402 0.11568 0.0
H2642 H 0.21671 0.78899 0.07897 0.0
O2643 O 0.13085 0.72659 0.15796 0.0
O2644 O 0.09484 0.76119 0.15927 0.0
H2645 H 0.13905 0.87127 0.1144 0.0
H2646 H 0.14662 0.86785 0.15336 0.0
C2647 C 0.13686 0.85642 0.13391 0.0
H2648 H 0.11308 0.85211 0.13836 0.0
H2649 H 0.05731 0.82342 0.18105 0.0
O2650 O 0.20729 0.7265 0.14873 0.0
C2651 C 0.10327 0.7341 0.15782 0.0
Co2652 Co 0.56547 0.42055 0.40854 0.0
Co2653 Co 0.52256 0.37056 0.42476 0.0
C2654 C 0.55654 0.40798 0.46717 0.0
O2655 O 0.55463 0.42925 0.4493 0.0
O2656 O 0.54582 0.3832 0.45996 0.0
C2657 C 0.5778 0.482 0.40797 0.0
O2658 O 0.55276 0.48304 0.42274 0.0
C2659 C 0.46885 0.36893 0.45617 0.0
C2660 C 0.45481 0.32218 0.4582 0.0
C2661 C 0.44728 0.35054 0.46739 0.0
N2662 N 0.48802 0.3527 0.44042 0.0
N2663 N 0.47948 0.32467 0.44131 0.0
C2664 C 0.47291 0.40121 0.46293 0.0
H2665 H 0.49039 0.4111 0.44878 0.0
H2666 H 0.45174 0.41326 0.45954 0.0
H2667 H 0.4793 0.40387 0.48653 0.0
C2668 C 0.5197 0.43489 0.36414 0.0
N2669 N 0.53131 0.41791 0.38572 0.0
N2670 N 0.5116 0.39836 0.39436 0.0
C2671 C 0.48651 0.40272 0.37864 0.0
C2672 C 0.49066 0.42627 0.35921 0.0
C2673 C 0.53453 0.46157 0.35115 0.0
H2674 H 0.55877 0.45787 0.34941 0.0
H2675 H 0.53032 0.48105 0.36556 0.0
H2676 H 0.52537 0.46651 0.32885 0.0
O2677 O 0.58773 0.38074 0.40802 0.0
O2678 O 0.55313 0.34472 0.40937 0.0
H2679 H 0.44318 0.38872 0.36418 0.0
H2680 H 0.44641 0.39649 0.40311 0.0
C2681 C 0.45795 0.38665 0.38377 0.0
H2682 H 0.46228 0.3629 0.38834 0.0
H2683 H 0.49107 0.3072 0.43152 0.0
O2684 O 0.58786 0.45715 0.39864 0.0
C2685 C 0.58022 0.35316 0.40793 0.0
Co2686 Co 0.89383 0.81551 0.65853 0.0
Co2687 Co 0.94382 0.77261 0.67473 0.0
C2688 C 0.90647 0.80666 0.71716 0.0
O2689 O 0.88518 0.80471 0.69932 0.0
O2690 O 0.93123 0.79592 0.70992 0.0
C2691 C 0.83238 0.82781 0.65801 0.0
O2692 O 0.83136 0.80278 0.6728 0.0
C2693 C 0.94544 0.71892 0.7062 0.0
C2694 C 0.99218 0.70484 0.70819 0.0
C2695 C 0.96383 0.69734 0.71741 0.0
N2696 N 0.96167 0.73807 0.69042 0.0
N2697 N 0.9897 0.72951 0.69129 0.0
C2698 C 0.91316 0.72301 0.71297 0.0
H2699 H 0.90328 0.74049 0.69882 0.0
H2700 H 0.9011 0.70185 0.7096 0.0
H2701 H 0.91052 0.72941 0.73657 0.0
C2702 C 0.87944 0.76971 0.61417 0.0
N2703 N 0.89644 0.78133 0.63574 0.0
N2704 N 0.916 0.76162 0.64438 0.0
C2705 C 0.91162 0.73652 0.62867 0.0
C2706 C 0.88806 0.74066 0.60925 0.0
C2707 C 0.85275 0.78453 0.60119 0.0
H2708 H 0.85646 0.80877 0.59943 0.0
H2709 H 0.83329 0.78033 0.6156 0.0
H2710 H 0.8478 0.77536 0.57889 0.0
O2711 O 0.93365 0.83776 0.65795 0.0
O2712 O 0.96966 0.80315 0.65929 0.0
H2713 H 0.92561 0.69319 0.61423 0.0
H2714 H 0.91787 0.69644 0.65317 0.0
C2715 C 0.92769 0.70797 0.6338 0.0
H2716 H 0.95145 0.7123 0.63837 0.0
H2717 H 0.00717 0.74107 0.68147 0.0
O2718 O 0.85722 0.83788 0.64865 0.0
C2719 C 0.96123 0.83024 0.65782 0.0
Co2720 Co 0.65594 0.49886 0.42066 0.0
Co2721 Co 0.6397 0.54176 0.37066 0.0
C2722 C 0.59729 0.5077 0.40801 0.0
O2723 O 0.61513 0.50959 0.4293 0.0
O2724 O 0.60452 0.51844 0.38325 0.0
C2725 C 0.65643 0.48655 0.48213 0.0
O2726 O 0.64159 0.51155 0.48314 0.0
C2727 C 0.60806 0.59534 0.36892 0.0
C2728 C 0.60637 0.60951 0.32218 0.0
C2729 C 0.59688 0.61689 0.35048 0.0
N2730 N 0.624 0.57627 0.35277 0.0
N2731 N 0.62331 0.58488 0.32475 0.0
C2732 C 0.6012 0.59125 0.40118 0.0
H2733 H 0.61543 0.57388 0.41113 0.0
H2734 H 0.6044 0.61245 0.41323 0.0
H2735 H 0.57763 0.58471 0.40374 0.0
C2736 C 0.70024 0.5447 0.43506 0.0
N2737 N 0.67868 0.53307 0.41806 0.0
N2738 N 0.67001 0.55278 0.39852 0.0
C2739 C 0.68569 0.57789 0.4029 0.0
C2740 C 0.70513 0.57376 0.42645 0.0
C2741 C 0.71324 0.52988 0.46174 0.0
H2742 H 0.71504 0.50565 0.45802 0.0
H2743 H 0.69882 0.53404 0.4812 0.0
H2744 H 0.73553 0.53908 0.4667 0.0
O2745 O 0.65656 0.47661 0.38085 0.0
O2746 O 0.6552 0.51122 0.34484 0.0
H2747 H 0.69999 0.62132 0.38904 0.0
H2748 H 0.66103 0.61787 0.39664 0.0
C2749 C 0.68049 0.60646 0.38687 0.0
H2750 H 0.67602 0.60214 0.36309 0.0
H2751 H 0.63331 0.57339 0.30733 0.0
O2752 O 0.66583 0.4765 0.45729 0.0
C2753 C 0.65668 0.48413 0.35327 0.0
Co2754 Co 0.81552 0.90593 0.6706 0.0
Co2755 Co 0.7726 0.88964 0.62063 0.0
C2756 C 0.80666 0.84728 0.65803 0.0
O2757 O 0.80476 0.86515 0.67929 0.0
O2758 O 0.7959 0.85447 0.63326 0.0
C2759 C 0.82782 0.90652 0.73205 0.0
O2760 O 0.8028 0.89173 0.73308 0.0
C2761 C 0.719 0.85802 0.61891 0.0
C2762 C 0.70483 0.85631 0.57217 0.0
C2763 C 0.69745 0.84684 0.60047 0.0
N2764 N 0.73809 0.87394 0.60275 0.0
N2765 N 0.72947 0.87324 0.57473 0.0
C2766 C 0.7231 0.85117 0.65117 0.0
H2767 H 0.74047 0.8654 0.66112 0.0
H2768 H 0.7019 0.85437 0.66322 0.0
H2769 H 0.72964 0.8276 0.65374 0.0
C2770 C 0.76969 0.95027 0.68495 0.0
N2771 N 0.78131 0.92869 0.66797 0.0
N2772 N 0.76159 0.91999 0.64846 0.0
C2773 C 0.73647 0.93567 0.65285 0.0
C2774 C 0.74062 0.95513 0.67636 0.0
C2775 C 0.78453 0.96331 0.71159 0.0
H2776 H 0.80876 0.96508 0.70786 0.0
H2777 H 0.78036 0.94894 0.7311 0.0
H2778 H 0.77536 0.98562 0.71651 0.0
O2779 O 0.83776 0.90649 0.63079 0.0
O2780 O 0.80315 0.90509 0.59479 0.0
H2781 H 0.69303 0.94993 0.63901 0.0
H2782 H 0.6965 0.91098 0.64665 0.0
C2783 C 0.7079 0.93043 0.63684 0.0
H2784 H 0.71219 0.92595 0.61307 0.0
H2785 H 0.74096 0.88323 0.55731 0.0
O2786 O 0.83789 0.91586 0.7072 0.0
C2787 C 0.83024 0.90658 0.60321 0.0
Co2788 Co 0.40847 0.06549 0.92069 0.0
Co2789 Co 0.4247 0.02257 0.8707 0.0
C2790 C 0.46711 0.05664 0.90805 0.0
O2791 O 0.44926 0.05474 0.92934 0.0
O2792 O 0.45988 0.04588 0.88329 0.0
C2793 C 0.40795 0.0778 0.98216 0.0
O2794 O 0.42279 0.0528 0.98317 0.0
C2795 C 0.45632 0.96898 0.86898 0.0
C2796 C 0.45801 0.95478 0.82225 0.0
C2797 C 0.46749 0.94741 0.85055 0.0
N2798 N 0.44039 0.98805 0.85282 0.0
N2799 N 0.44108 0.97942 0.82481 0.0
C2800 C 0.46319 0.97308 0.90124 0.0
H2801 H 0.44896 0.99046 0.91119 0.0
H2802 H 0.46 0.95189 0.9133 0.0
H2803 H 0.48676 0.97963 0.90379 0.0
C2804 C 0.36415 0.01966 0.93509 0.0
N2805 N 0.38571 0.03129 0.91809 0.0
N2806 N 0.39438 0.01157 0.89856 0.0
C2807 C 0.3787 0.98646 0.90295 0.0
C2808 C 0.35927 0.9906 0.9265 0.0
C2809 C 0.35115 0.03449 0.96176 0.0
H2810 H 0.34936 0.05872 0.95804 0.0
H2811 H 0.36556 0.03033 0.98124 0.0
H2812 H 0.32886 0.0253 0.96672 0.0
O2813 O 0.40787 0.08773 0.88087 0.0
O2814 O 0.40923 0.05312 0.84488 0.0
H2815 H 0.3644 0.94302 0.88911 0.0
H2816 H 0.40336 0.94647 0.89671 0.0
C2817 C 0.38391 0.95789 0.88693 0.0
H2818 H 0.38837 0.96219 0.86315 0.0
H2819 H 0.43108 0.99091 0.80739 0.0
O2820 O 0.39857 0.08786 0.95732 0.0
C2821 C 0.40775 0.08021 0.8533 0.0
Co2822 Co 0.24898 0.65847 0.17067 0.0
Co2823 Co 0.29189 0.67477 0.1207 0.0
C2824 C 0.25785 0.71712 0.15812 0.0
O2825 O 0.25976 0.69924 0.17938 0.0
O2826 O 0.26859 0.70994 0.13335 0.0
C2827 C 0.23663 0.65787 0.23213 0.0
O2828 O 0.26165 0.67268 0.23318 0.0
C2829 C 0.34549 0.70638 0.11897 0.0
C2830 C 0.35963 0.70814 0.07223 0.0
C2831 C 0.36703 0.71758 0.10053 0.0
N2832 N 0.3264 0.69047 0.10281 0.0
N2833 N 0.33499 0.69121 0.07478 0.0
C2834 C 0.34142 0.71321 0.15124 0.0
H2835 H 0.32405 0.69897 0.16119 0.0
H2836 H 0.36263 0.70999 0.16327 0.0
H2837 H 0.33488 0.73678 0.15384 0.0
C2838 C 0.29481 0.61412 0.18499 0.0
N2839 N 0.28318 0.63571 0.16803 0.0
N2840 N 0.30289 0.6444 0.1485 0.0
C2841 C 0.328 0.62871 0.15286 0.0
C2842 C 0.32387 0.60925 0.17638 0.0
C2843 C 0.27999 0.6011 0.21166 0.0
H2844 H 0.25576 0.59932 0.20795 0.0
H2845 H 0.28417 0.6155 0.23115 0.0
H2846 H 0.28918 0.5788 0.2166 0.0
O2847 O 0.22673 0.65793 0.13087 0.0
O2848 O 0.26133 0.65934 0.09486 0.0
H2849 H 0.37143 0.61442 0.13897 0.0
H2850 H 0.36798 0.65337 0.14663 0.0
C2851 C 0.35656 0.63393 0.13683 0.0
H2852 H 0.35225 0.63843 0.11306 0.0
H2853 H 0.32348 0.68124 0.05736 0.0
O2854 O 0.2266 0.64853 0.20727 0.0
C2855 C 0.23424 0.65785 0.10329 0.0
Co2856 Co 0.65594 0.56549 0.64383 0.0
Co2857 Co 0.63969 0.5226 0.69383 0.0
C2858 C 0.59729 0.55665 0.65646 0.0
O2859 O 0.61513 0.55476 0.63517 0.0
O2860 O 0.60451 0.54591 0.68122 0.0
C2861 C 0.65647 0.57783 0.58237 0.0
O2862 O 0.6416 0.55286 0.58134 0.0
C2863 C 0.60807 0.46901 0.69552 0.0
C2864 C 0.60635 0.45481 0.74224 0.0
C2865 C 0.59689 0.44744 0.71393 0.0
N2866 N 0.62398 0.48808 0.7117 0.0
N2867 N 0.62327 0.47945 0.73971 0.0
C2868 C 0.60122 0.47311 0.66326 0.0
H2869 H 0.61545 0.4905 0.65332 0.0
H2870 H 0.60442 0.45192 0.6512 0.0
H2871 H 0.57765 0.47966 0.66069 0.0
C2872 C 0.70024 0.51963 0.62944 0.0
N2873 N 0.67868 0.53127 0.64644 0.0
N2874 N 0.67002 0.51158 0.66599 0.0
C2875 C 0.68569 0.48646 0.66162 0.0
C2876 C 0.70512 0.49058 0.63807 0.0
C2877 C 0.71323 0.53443 0.60275 0.0
H2878 H 0.71504 0.55866 0.60646 0.0
H2879 H 0.69878 0.53027 0.58329 0.0
H2880 H 0.7355 0.52522 0.59777 0.0
O2881 O 0.65654 0.58774 0.68364 0.0
O2882 O 0.65516 0.55315 0.71966 0.0
H2883 H 0.70001 0.44305 0.67552 0.0
H2884 H 0.66105 0.44648 0.66791 0.0
C2885 C 0.6805 0.45791 0.67768 0.0
H2886 H 0.67602 0.46224 0.70145 0.0
H2887 H 0.63326 0.49093 0.75714 0.0
O2888 O 0.66586 0.58786 0.60722 0.0
C2889 C 0.65665 0.58024 0.71122 0.0
Co2890 Co 0.74889 0.90594 0.89384 0.0
Co2891 Co 0.79184 0.88971 0.9438 0.0
C2892 C 0.7578 0.8473 0.90643 0.0
O2893 O 0.75968 0.86516 0.88516 0.0
O2894 O 0.76855 0.85451 0.9312 0.0
C2895 C 0.73658 0.90651 0.83238 0.0
O2896 O 0.7616 0.8917 0.83135 0.0
C2897 C 0.84545 0.85811 0.94553 0.0
C2898 C 0.85958 0.85636 0.99227 0.0
C2899 C 0.86698 0.8469 0.96397 0.0
N2900 N 0.82636 0.87403 0.96168 0.0
N2901 N 0.83495 0.8733 0.98971 0.0
C2902 C 0.84137 0.85126 0.91327 0.0
H2903 H 0.82398 0.86547 0.90332 0.0
H2904 H 0.86257 0.8545 0.90122 0.0
H2905 H 0.83486 0.82768 0.91069 0.0
C2906 C 0.79465 0.95035 0.87951 0.0
N2907 N 0.78307 0.92873 0.89646 0.0
N2908 N 0.80281 0.92005 0.91596 0.0
C2909 C 0.8279 0.93578 0.91156 0.0
C2910 C 0.82371 0.9553 0.88809 0.0
C2911 C 0.77976 0.9634 0.85289 0.0
H2912 H 0.75553 0.96515 0.85666 0.0
H2913 H 0.7839 0.94903 0.83337 0.0
H2914 H 0.78892 0.98571 0.84797 0.0
O2915 O 0.72665 0.90651 0.93365 0.0
O2916 O 0.76127 0.90515 0.96964 0.0
H2917 H 0.87135 0.95007 0.92535 0.0
H2918 H 0.86789 0.91112 0.9177 0.0
C2919 C 0.8565 0.93056 0.92753 0.0
H2920 H 0.85223 0.92605 0.95131 0.0
H2921 H 0.82344 0.88328 0.00713 0.0
O2922 O 0.72652 0.91585 0.85723 0.0
C2923 C 0.73418 0.90662 0.96122 0.0
Co2924 Co 0.40855 -0.00108 0.14389 0.0
Co2925 Co 0.42475 0.04184 0.19389 0.0
C2926 C 0.46718 0.00783 0.15652 0.0
O2927 O 0.44933 0.00972 0.13523 0.0
O2928 O 0.45995 0.01857 0.18128 0.0
C2929 C 0.40802 0.9866 0.08244 0.0
O2930 O 0.42284 0.0116 0.0814 0.0
C2931 C 0.45629 0.09548 0.19558 0.0
C2932 C 0.458 0.10968 0.24231 0.0
C2933 C 0.46744 0.11706 0.214 0.0
N2934 N 0.4404 0.07638 0.21176 0.0
N2935 N 0.44111 0.08501 0.23977 0.0
C2936 C 0.46315 0.09138 0.16332 0.0
H2937 H 0.44895 0.07397 0.15339 0.0
H2938 H 0.4599 0.11256 0.15126 0.0
H2939 H 0.48673 0.08488 0.16076 0.0
C2940 C 0.36417 0.0447 0.12952 0.0
N2941 N 0.38575 0.0331 0.14651 0.0
N2942 N 0.3944 0.05281 0.16605 0.0
C2943 C 0.37869 0.07791 0.16167 0.0
C2944 C 0.35926 0.07376 0.13813 0.0
C2945 C 0.35118 0.02987 0.10285 0.0
H2946 H 0.34942 0.00563 0.10656 0.0
H2947 H 0.3656 0.03405 0.08337 0.0
H2948 H 0.32889 0.03904 0.09789 0.0
O2949 O 0.40799 0.97667 0.1837 0.0
O2950 O 0.40932 0.01127 0.21972 0.0
H2951 H 0.36433 0.12131 0.17555 0.0
H2952 H 0.40329 0.11793 0.16793 0.0
C2953 C 0.38386 0.10648 0.17771 0.0
H2954 H 0.38834 0.10216 0.20149 0.0
H2955 H 0.43114 0.07351 0.2572 0.0
O2956 O 0.39866 0.97654 0.10728 0.0
C2957 C 0.40787 0.98418 0.21128 0.0
Co2958 Co 0.31554 0.6585 0.39375 0.0
Co2959 Co 0.27259 0.67478 0.44371 0.0
C2960 C 0.3066 0.71715 0.40628 0.0
O2961 O 0.3047 0.69926 0.38502 0.0
O2962 O 0.29586 0.70996 0.43105 0.0
C2963 C 0.3279 0.65789 0.33229 0.0
O2964 O 0.30289 0.6727 0.33122 0.0
C2965 C 0.21897 0.70636 0.44542 0.0
C2966 C 0.20488 0.70818 0.49218 0.0
C2967 C 0.19745 0.71759 0.46387 0.0
N2968 N 0.23807 0.69046 0.46159 0.0
N2969 N 0.2295 0.69123 0.48962 0.0
C2970 C 0.22302 0.71316 0.41315 0.0
H2971 H 0.24041 0.69894 0.40321 0.0
H2972 H 0.20182 0.70991 0.40112 0.0
H2973 H 0.22953 0.73674 0.41054 0.0
C2974 C 0.26979 0.61406 0.37948 0.0
N2975 N 0.28137 0.6357 0.39641 0.0
N2976 N 0.26163 0.64438 0.41591 0.0
C2977 C 0.23655 0.62864 0.41155 0.0
C2978 C 0.24073 0.6091 0.38809 0.0
C2979 C 0.28466 0.60102 0.35285 0.0
H2980 H 0.30889 0.59927 0.3566 0.0
H2981 H 0.28051 0.6154 0.33334 0.0
H2982 H 0.2755 0.57871 0.34792 0.0
O2983 O 0.33778 0.65799 0.43356 0.0
O2984 O 0.30317 0.65938 0.46956 0.0
H2985 H 0.19311 0.61435 0.42538 0.0
H2986 H 0.19655 0.65329 0.41769 0.0
C2987 C 0.20796 0.63387 0.42753 0.0
H2988 H 0.21224 0.6384 0.4513 0.0
H2989 H 0.24103 0.68129 0.50704 0.0
O2990 O 0.33793 0.64857 0.35716 0.0
C2991 C 0.33026 0.65791 0.46113 0.0
Co2992 Co 0.92062 0.65585 -0.00106 0.0
Co2993 Co 0.87062 0.63963 0.04186 0.0
C2994 C 0.90796 0.59721 0.0078 0.0
O2995 O 0.92926 0.61505 0.0097 0.0
O2996 O 0.8832 0.60444 0.01855 0.0
C2997 C 0.98208 0.65636 0.98663 0.0
O2998 O 0.9831 0.64152 0.01162 0.0
C2999 C 0.8689 0.60802 0.09546 0.0
C3000 C 0.82217 0.60634 0.10965 0.0
C3001 C 0.85047 0.59686 0.11703 0.0
N3002 N 0.85274 0.62395 0.07638 0.0
N3003 N 0.82472 0.62326 0.08501 0.0
C3004 C 0.90116 0.60116 0.09136 0.0
H3005 H 0.9111 0.61537 0.07397 0.0
H3006 H 0.91322 0.60437 0.11255 0.0
H3007 H 0.90371 0.57758 0.08483 0.0
C3008 C 0.935 0.70018 0.04476 0.0
N3009 N 0.91801 0.67861 0.03314 0.0
N3010 N 0.89847 0.66995 0.05285 0.0
C3011 C 0.90286 0.68564 0.07796 0.0
C3012 C 0.9264 0.70507 0.07382 0.0
C3013 C 0.96168 0.71318 0.02992 0.0
H3014 H 0.95795 0.71497 0.0057 0.0
H3015 H 0.98115 0.69876 0.03409 0.0
H3016 H 0.96664 0.73547 0.03911 0.0
O3017 O 0.8808 0.65646 0.9767 0.0
O3018 O 0.8448 0.6551 0.01131 0.0
H3019 H 0.88901 0.69995 0.12139 0.0
H3020 H 0.89661 0.661 0.11795 0.0
C3021 C 0.88684 0.68044 0.10653 0.0
H3022 H 0.86306 0.67598 0.10223 0.0
H3023 H 0.8073 0.63325 0.07352 0.0
O3024 O 0.95724 0.66574 0.97657 0.0
C3025 C 0.85323 0.65658 0.98422 0.0
Co3026 Co 0.42058 0.40854 0.56547 0.0
Co3027 Co 0.3706 0.42477 0.52254 0.0
C3028 C 0.40801 0.46717 0.55654 0.0
O3029 O 0.42927 0.4493 0.55463 0.0
O3030 O 0.38323 0.45996 0.5458 0.0
C3031 C 0.48204 0.40796 0.57781 0.0
O3032 O 0.48309 0.42277 0.5528 0.0
C3033 C 0.36889 0.45632 0.46891 0.0
C3034 C 0.32215 0.45808 0.45476 0.0
C3035 C 0.35046 0.46751 0.44735 0.0
N3036 N 0.35272 0.44043 0.48801 0.0
N3037 N 0.32469 0.44116 0.47941 0.0
C3038 C 0.40115 0.46316 0.47299 0.0
H3039 H 0.41109 0.44895 0.49038 0.0
H3040 H 0.4132 0.45991 0.4518 0.0
H3041 H 0.40374 0.48674 0.4795 0.0
C3042 C 0.43491 0.36413 0.5197 0.0
N3043 N 0.41794 0.38573 0.5313 0.0
N3044 N 0.39841 0.39439 0.51158 0.0
C3045 C 0.40278 0.37868 0.48648 0.0
C3046 C 0.42631 0.35922 0.49065 0.0
C3047 C 0.46157 0.35113 0.53455 0.0
H3048 H 0.45785 0.34937 0.55878 0.0
H3049 H 0.48106 0.36552 0.53036 0.0
H3050 H 0.46651 0.32882 0.52538 0.0
O3051 O 0.38077 0.40801 0.58772 0.0
O3052 O 0.34476 0.40936 0.55312 0.0
H3053 H 0.38892 0.36434 0.44307 0.0
H3054 H 0.39657 0.4033 0.44647 0.0
C3055 C 0.38677 0.38387 0.45791 0.0
H3056 H 0.36299 0.38837 0.46221 0.0
H3057 H 0.30727 0.4312 0.49092 0.0
O3058 O 0.45718 0.39863 0.58786 0.0
C3059 C 0.3532 0.40791 0.58021 0.0
Co3060 Co 0.90589 0.6706 0.81553 0.0
Co3061 Co 0.88966 0.62062 0.7726 0.0
C3062 C 0.84725 0.65798 0.80665 0.0
O3063 O 0.86511 0.67926 0.80476 0.0
O3064 O 0.85447 0.63321 0.7959 0.0
C3065 C 0.90643 0.73206 0.82786 0.0
O3066 O 0.8916 0.73309 0.80286 0.0
C3067 C 0.85805 0.61891 0.71899 0.0
C3068 C 0.85633 0.57217 0.70482 0.0
C3069 C 0.84687 0.60048 0.69743 0.0
N3070 N 0.87397 0.60274 0.73807 0.0
N3071 N 0.87326 0.57472 0.72946 0.0
C3072 C 0.85121 0.65117 0.72309 0.0
H3073 H 0.86542 0.66111 0.74048 0.0
H3074 H 0.85443 0.66322 0.7019 0.0
H3075 H 0.82763 0.65374 0.72961 0.0
C3076 C 0.95025 0.68497 0.76973 0.0
N3077 N 0.92866 0.66798 0.78134 0.0
N3078 N 0.92 0.64846 0.76162 0.0
C3079 C 0.93569 0.65285 0.73651 0.0
C3080 C 0.95514 0.67637 0.74067 0.0
C3081 C 0.96326 0.71163 0.78458 0.0
H3082 H 0.96503 0.7079 0.8088 0.0
H3083 H 0.94885 0.73111 0.78041 0.0
H3084 H 0.98555 0.71658 0.7754 0.0
O3085 O 0.90647 0.63078 0.83777 0.0
O3086 O 0.90511 0.59478 0.80315 0.0
H3087 H 0.95 0.639 0.69308 0.0
H3088 H 0.91105 0.64663 0.69652 0.0
C3089 C 0.93049 0.63683 0.70794 0.0
H3090 H 0.92601 0.61306 0.71223 0.0
H3091 H 0.88324 0.5573 0.74095 0.0
O3092 O 0.91579 0.70721 0.83791 0.0
C3093 C 0.90659 0.60321 0.83025 0.0
Co3094 Co 0.64373 0.15589 0.06557 0.0
Co3095 Co 0.69372 0.13968 0.02264 0.0
C3096 C 0.65636 0.09727 0.05666 0.0
O3097 O 0.63507 0.11511 0.05474 0.0
O3098 O 0.68113 0.10449 0.04593 0.0
C3099 C 0.58226 0.15641 0.07788 0.0
O3100 O 0.58123 0.1416 0.05287 0.0
C3101 C 0.69544 0.10811 0.96901 0.0
C3102 C 0.74218 0.10639 0.95485 0.0
C3103 C 0.71388 0.09693 0.94746 0.0
N3104 N 0.7116 0.12402 0.98811 0.0
N3105 N 0.73962 0.12331 0.9795 0.0
C3106 C 0.66318 0.10125 0.9731 0.0
H3107 H 0.65324 0.11546 0.99049 0.0
H3108 H 0.65113 0.10448 0.95191 0.0
H3109 H 0.66061 0.07767 0.97962 0.0
C3110 C 0.62936 0.20027 0.01978 0.0
N3111 N 0.64635 0.17868 0.03139 0.0
N3112 N 0.66588 0.17003 0.01167 0.0
C3113 C 0.66149 0.18573 0.98657 0.0
C3114 C 0.63796 0.20517 0.99073 0.0
C3115 C 0.60268 0.21326 0.03463 0.0
H3116 H 0.60641 0.21502 0.05886 0.0
H3117 H 0.58321 0.19885 0.03045 0.0
H3118 H 0.59773 0.23556 0.02546 0.0
O3119 O 0.68354 0.15647 0.08781 0.0
O3120 O 0.71955 0.15513 0.0532 0.0
H3121 H 0.67534 0.20006 0.94315 0.0
H3122 H 0.66772 0.16111 0.94656 0.0
C3123 C 0.67751 0.18055 0.95799 0.0
H3124 H 0.70129 0.17606 0.96229 0.0
H3125 H 0.75704 0.13329 0.991 0.0
O3126 O 0.60711 0.16577 0.08794 0.0
C3127 C 0.71112 0.15659 0.0803 0.0
Co3128 Co 0.65853 0.39375 0.31552 0.0
Co3129 Co 0.67482 0.44373 0.27262 0.0
C3130 C 0.71718 0.40631 0.30665 0.0
O3131 O 0.6993 0.38504 0.30473 0.0
O3132 O 0.70999 0.43108 0.29592 0.0
C3133 C 0.65796 0.33229 0.32788 0.0
O3134 O 0.67279 0.33123 0.30288 0.0
C3135 C 0.70641 0.44541 0.219 0.0
C3136 C 0.70815 0.49214 0.20482 0.0
C3137 C 0.71758 0.46383 0.19743 0.0
N3138 N 0.69052 0.46159 0.2381 0.0
N3139 N 0.69124 0.48961 0.22948 0.0
C3140 C 0.71323 0.41315 0.22309 0.0
H3141 H 0.69901 0.40321 0.24048 0.0
H3142 H 0.71 0.40109 0.2019 0.0
H3143 H 0.73681 0.41056 0.22961 0.0
C3144 C 0.61418 0.37942 0.26969 0.0
N3145 N 0.63577 0.39639 0.28132 0.0
N3146 N 0.64444 0.41593 0.26163 0.0
C3147 C 0.62875 0.41158 0.23651 0.0
C3148 C 0.60929 0.38805 0.24064 0.0
C3149 C 0.60118 0.35273 0.2845 0.0
H3150 H 0.59939 0.35644 0.30873 0.0
H3151 H 0.6156 0.33326 0.28033 0.0
H3152 H 0.57889 0.34778 0.2753 0.0
O3153 O 0.65798 0.43356 0.33777 0.0
O3154 O 0.65938 0.46957 0.30318 0.0
H3155 H 0.61443 0.42549 0.19311 0.0
H3156 H 0.65338 0.41784 0.19652 0.0
C3157 C 0.63395 0.42762 0.20796 0.0
H3158 H 0.63845 0.45139 0.21229 0.0
H3159 H 0.68128 0.50704 0.24097 0.0
O3160 O 0.6486 0.35715 0.3379 0.0
C3161 C 0.65789 0.46113 0.33027 0.0
Co3162 Co 0.14386 0.40856 -0.0011 0.0
Co3163 Co 0.19385 0.42478 0.04183 0.0
C3164 C 0.15647 0.4672 0.00781 0.0
O3165 O 0.13519 0.44934 0.00971 0.0
O3166 O 0.18123 0.45998 0.01855 0.0
C3167 C 0.0824 0.40801 0.98657 0.0
O3168 O 0.08136 0.42284 0.01157 0.0
C3169 C 0.19554 0.45632 0.09547 0.0
C3170 C 0.24226 0.45801 0.10968 0.0
C3171 C 0.21396 0.46746 0.11706 0.0
N3172 N 0.21172 0.44044 0.07637 0.0
N3173 N 0.23973 0.44113 0.085 0.0
C3174 C 0.16328 0.46318 0.09137 0.0
H3175 H 0.15335 0.44898 0.07396 0.0
H3176 H 0.15121 0.45994 0.11255 0.0
H3177 H 0.16072 0.48677 0.08487 0.0
C3178 C 0.1295 0.36419 0.04469 0.0
N3179 N 0.14648 0.38577 0.03308 0.0
N3180 N 0.16602 0.39443 0.0528 0.0
C3181 C 0.16165 0.37872 0.0779 0.0
C3182 C 0.13811 0.35928 0.07375 0.0
C3183 C 0.10282 0.3512 0.02986 0.0
H3184 H 0.10654 0.34943 0.00563 0.0
H3185 H 0.08335 0.36561 0.03404 0.0
H3186 H 0.09787 0.3289 0.03903 0.0
O3187 O 0.18367 0.40801 0.97666 0.0
O3188 O 0.21968 0.40936 0.01126 0.0
H3189 H 0.17553 0.36436 0.1213 0.0
H3190 H 0.16791 0.40332 0.11791 0.0
C3191 C 0.17769 0.38389 0.10646 0.0
H3192 H 0.20146 0.38837 0.10215 0.0
H3193 H 0.25716 0.43116 0.07351 0.0
O3194 O 0.10725 0.39866 0.97652 0.0
C3195 C 0.21124 0.4079 0.98417 0.0
Co3196 Co 0.90597 0.89383 0.74894 0.0
Co3197 Co 0.88971 0.94381 0.79186 0.0
C3198 C 0.84731 0.90648 0.75776 0.0
O3199 O 0.86515 0.88518 0.75965 0.0
O3200 O 0.85453 0.93123 0.76852 0.0
C3201 C 0.90649 0.83237 0.73664 0.0
O3202 O 0.89164 0.83136 0.76162 0.0
C3203 C 0.85807 0.9455 0.84544 0.0
C3204 C 0.85641 0.99221 0.85968 0.0
C3205 C 0.84692 0.96391 0.86703 0.0
N3206 N 0.874 0.96167 0.82637 0.0
N3207 N 0.87332 0.98968 0.83503 0.0
C3208 C 0.8512 0.91325 0.84131 0.0
H3209 H 0.86542 0.90331 0.82392 0.0
H3210 H 0.8544 0.90117 0.86249 0.0
H3211 H 0.82762 0.9107 0.83477 0.0
C3212 C 0.95025 0.87942 0.79481 0.0
N3213 N 0.92869 0.89642 0.78317 0.0
N3214 N 0.92002 0.91596 0.80287 0.0
C3215 C 0.93568 0.91156 0.828 0.0
C3216 C 0.95512 0.88802 0.82387 0.0
C3217 C 0.96326 0.85275 0.77998 0.0
H3218 H 0.96507 0.85647 0.75576 0.0
H3219 H 0.94885 0.83327 0.78414 0.0
H3220 H 0.98555 0.84779 0.78919 0.0
O3221 O 0.90659 0.93365 0.72671 0.0
O3222 O 0.90521 0.96965 0.76132 0.0
H3223 H 0.94997 0.92542 0.87143 0.0
H3224 H 0.91102 0.91782 0.86798 0.0
C3225 C 0.93047 0.9276 0.85656 0.0
H3226 H 0.92601 0.95138 0.85225 0.0
H3227 H 0.88333 0.00711 0.82356 0.0
O3228 O 0.91588 0.85721 0.72659 0.0
C3229 C 0.9067 0.96122 0.73423 0.0
Co3230 Co 0.15845 0.67054 0.24897 0.0
Co3231 Co 0.17471 0.62057 0.29189 0.0
C3232 C 0.21711 0.65791 0.25781 0.0
O3233 O 0.19926 0.6792 0.25968 0.0
O3234 O 0.20989 0.63315 0.26857 0.0
C3235 C 0.15791 0.732 0.23668 0.0
O3236 O 0.17274 0.73301 0.26168 0.0
C3237 C 0.20634 0.61889 0.34547 0.0
C3238 C 0.20804 0.57218 0.3597 0.0
C3239 C 0.21751 0.60049 0.36705 0.0
N3240 N 0.19041 0.60271 0.32641 0.0
N3241 N 0.19111 0.5747 0.33506 0.0
C3242 C 0.21319 0.65115 0.34134 0.0
H3243 H 0.19897 0.66108 0.32395 0.0
H3244 H 0.20999 0.66323 0.36252 0.0
H3245 H 0.23677 0.6537 0.33479 0.0
C3246 C 0.11414 0.68494 0.29481 0.0
N3247 N 0.13571 0.66795 0.28318 0.0
N3248 N 0.14438 0.64842 0.3029 0.0
C3249 C 0.12871 0.65282 0.32802 0.0
C3250 C 0.10927 0.67635 0.32387 0.0
C3251 C 0.10111 0.71159 0.27996 0.0
H3252 H 0.09933 0.70786 0.25574 0.0
H3253 H 0.11551 0.73108 0.28413 0.0
H3254 H 0.07882 0.71653 0.28915 0.0
O3255 O 0.15785 0.63073 0.22674 0.0
O3256 O 0.15923 0.59473 0.26135 0.0
H3257 H 0.11443 0.63898 0.37146 0.0
H3258 H 0.15338 0.64659 0.368 0.0
C3259 C 0.13393 0.63681 0.35659 0.0
H3260 H 0.1384 0.61303 0.35229 0.0
H3261 H 0.18112 0.55727 0.32359 0.0
O3262 O 0.14854 0.70716 0.22661 0.0
C3263 C 0.15774 0.60315 0.23426 0.0
loop_
_geom_bond_atom_site_label_1
_geom_bond_atom_site_label_2
_geom_bond_distance
_geom_bond_site_symmetry_2
_ccdc_geom_bond_type
Co0 O3 1.970 . S
Co0 N17 1.989 1_655 S
Co0 O25 1.967 . S
Co0 O32 1.920 . S
Co1 O4 1.966 . S
Co1 N10 2.022 . S
Co1 N18 1.993 . S
Co1 O26 1.941 . S
C2 O3 1.258 . S
C2 O4 1.263 1_655 S
O3 Co0 1.970 . S
O3 C2 1.258 . S
O4 Co1 1.966 . S
O4 C2 1.263 1_455 S
C5 O6 1.235 . S
C5 O32 1.289 . S
O6 C5 1.235 . S
C7 C9 1.400 . S
C7 N10 1.351 . S
C7 C12 1.501 . S
C8 C9 1.387 . S
C8 N11 1.341 . S
C9 C7 1.400 . S
C9 C8 1.387 . S
N10 Co1 2.022 . S
N10 C7 1.351 . S
N10 N11 1.365 . S
N11 C8 1.341 . S
N11 N10 1.365 . S
N11 H31 0.862 . S
C12 C7 1.501 . S
C12 H13 0.961 . S
C12 H14 0.961 . S
C12 H15 0.960 . S
H13 C12 0.961 . S
H14 C12 0.961 . S
H15 C12 0.960 . S
C16 N17 1.342 . S
C16 C20 1.401 . S
C16 C21 1.499 . S
N17 Co0 1.989 1_455 S
N17 C16 1.342 . S
N17 N18 1.388 . S
N18 Co1 1.993 . S
N18 N17 1.388 . S
N18 C19 1.346 . S
C19 N18 1.346 . S
C19 C20 1.396 . S
C19 C29 1.510 . S
C20 C16 1.401 . S
C20 C19 1.396 . S
C21 C16 1.499 . S
C21 H22 0.959 . S
C21 H23 0.960 . S
C21 H24 0.961 . S
H22 C21 0.959 . S
H23 C21 0.960 . S
H24 C21 0.961 . S
O25 Co0 1.967 . S
O25 C33 1.258 1_655 S
O26 Co1 1.941 . S
O26 C33 1.266 . S
H27 C29 0.959 . S
H28 C29 0.961 . S
C29 C19 1.510 . S
C29 H27 0.959 . S
C29 H28 0.961 . S
C29 H30 0.960 . S
H30 C29 0.960 . S
H31 N11 0.862 . S
O32 Co0 1.920 . S
O32 C5 1.289 . S
C33 O25 1.258 1_455 S
C33 O26 1.266 . S
Co34 O37 1.970 . S
Co34 N51 1.989 . S
Co34 O59 1.967 . S
Co34 O66 1.920 . S
Co35 O38 1.966 . S
Co35 N44 2.022 . S
Co35 N52 1.993 . S
Co35 O60 1.941 . S
C36 O37 1.258 . S
C36 O38 1.263 . S
O37 Co34 1.970 . S
O37 C36 1.258 . S
O38 Co35 1.966 . S
O38 C36 1.263 . S
C39 O40 1.235 . S
C39 O66 1.289 . S
O40 C39 1.235 . S
C41 C43 1.400 . S
C41 N44 1.351 . S
C41 C46 1.501 . S
C42 C43 1.387 . S
C42 N45 1.341 . S
C43 C41 1.400 . S
C43 C42 1.387 . S
N44 Co35 2.022 . S
N44 C41 1.351 . S
N44 N45 1.365 . S
N45 C42 1.341 . S
N45 N44 1.365 . S
N45 H65 0.862 . S
C46 C41 1.501 . S
C46 H47 0.961 . S
C46 H48 0.961 . S
C46 H49 0.960 . S
H47 C46 0.961 . S
H48 C46 0.961 . S
H49 C46 0.960 . S
C50 N51 1.342 . S
C50 C54 1.401 . S
C50 C55 1.499 . S
N51 Co34 1.989 . S
N51 C50 1.342 . S
N51 N52 1.388 . S
N52 Co35 1.993 . S
N52 N51 1.388 . S
N52 C53 1.346 . S
C53 N52 1.346 . S
C53 C54 1.396 . S
C53 C63 1.510 . S
C54 C50 1.401 . S
C54 C53 1.396 . S
C55 C50 1.499 . S
C55 H56 0.959 . S
C55 H57 0.960 . S
C55 H58 0.961 . S
H56 C55 0.959 . S
H57 C55 0.960 . S
H58 C55 0.961 . S
O59 Co34 1.967 . S
O59 C67 1.258 . S
O60 Co35 1.941 . S
O60 C67 1.266 . S
H61 C63 0.959 . S
H62 C63 0.961 . S
C63 C53 1.510 . S
C63 H61 0.959 . S
C63 H62 0.961 . S
C63 H64 0.960 . S
H64 C63 0.960 . S
H65 N45 0.862 . S
O66 Co34 1.920 . S
O66 C39 1.289 . S
C67 O59 1.258 . S
C67 O60 1.266 . S
Co68 O71 1.970 . S
Co68 N85 1.989 . S
Co68 O93 1.967 . S
Co68 O100 1.920 . S
Co69 O72 1.966 . S
Co69 N78 2.022 1_455 S
Co69 N86 1.993 . S
Co69 O94 1.941 . S
C70 O71 1.258 . S
C70 O72 1.263 . S
O71 Co68 1.970 . S
O71 C70 1.258 . S
O72 Co69 1.966 . S
O72 C70 1.263 . S
C73 O74 1.235 . S
C73 O100 1.289 . S
O74 C73 1.235 . S
C75 C77 1.400 . S
C75 N78 1.351 . S
C75 C80 1.501 1_655 S
C76 C77 1.387 . S
C76 N79 1.341 . S
C77 C75 1.400 . S
C77 C76 1.387 . S
N78 Co69 2.022 1_655 S
N78 C75 1.351 . S
N78 N79 1.365 . S
N79 C76 1.341 . S
N79 N78 1.365 . S
N79 H99 0.862 . S
C80 C75 1.501 1_455 S
C80 H81 0.961 . S
C80 H82 0.961 . S
C80 H83 0.960 . S
H81 C80 0.961 . S
H82 C80 0.961 . S
H83 C80 0.960 . S
C84 N85 1.342 . S
C84 C88 1.401 1_455 S
C84 C89 1.499 . S
N85 Co68 1.989 . S
N85 C84 1.342 . S
N85 N86 1.388 . S
N86 Co69 1.993 . S
N86 N85 1.388 . S
N86 C87 1.346 1_455 S
C87 N86 1.346 1_655 S
C87 C88 1.396 . S
C87 C97 1.510 . S
C88 C84 1.401 1_655 S
C88 C87 1.396 . S
C89 C84 1.499 . S
C89 H90 0.959 . S
C89 H91 0.960 . S
C89 H92 0.961 . S
H90 C89 0.959 . S
H91 C89 0.960 . S
H92 C89 0.961 . S
O93 Co68 1.967 . S
O93 C101 1.258 . S
O94 Co69 1.941 . S
O94 C101 1.266 . S
H95 C97 0.959 . S
H96 C97 0.961 . S
C97 C87 1.510 . S
C97 H95 0.959 . S
C97 H96 0.961 . S
C97 H98 0.960 . S
H98 C97 0.960 . S
H99 N79 0.862 . S
O100 Co68 1.920 . S
O100 C73 1.289 . S
C101 O93 1.258 . S
C101 O94 1.266 . S
Co102 O105 1.970 . S
Co102 N119 1.989 . S
Co102 O127 1.967 . S
Co102 O134 1.920 . S
Co103 O106 1.966 . S
Co103 N112 2.022 . S
Co103 N120 1.993 . S
Co103 O128 1.941 . S
C104 O105 1.258 . S
C104 O106 1.263 . S
O105 Co102 1.970 . S
O105 C104 1.258 . S
O106 Co103 1.966 . S
O106 C104 1.263 . S
C107 O108 1.235 . S
C107 O134 1.289 . S
O108 C107 1.235 . S
C109 C111 1.400 . S
C109 N112 1.351 . S
C109 C114 1.501 . S
C110 C111 1.387 . S
C110 N113 1.341 . S
C111 C109 1.400 . S
C111 C110 1.387 . S
N112 Co103 2.022 . S
N112 C109 1.351 . S
N112 N113 1.365 . S
N113 C110 1.341 . S
N113 N112 1.365 . S
N113 H133 0.862 . S
C114 C109 1.501 . S
C114 H115 0.961 . S
C114 H116 0.961 . S
C114 H117 0.960 . S
H115 C114 0.961 . S
H116 C114 0.961 . S
H117 C114 0.960 . S
C118 N119 1.342 . S
C118 C122 1.401 . S
C118 C123 1.499 . S
N119 Co102 1.989 . S
N119 C118 1.342 . S
N119 N120 1.388 . S
N120 Co103 1.993 . S
N120 N119 1.388 . S
N120 C121 1.346 . S
C121 N120 1.346 . S
C121 C122 1.396 . S
C121 C131 1.510 . S
C122 C118 1.401 . S
C122 C121 1.396 . S
C123 C118 1.499 . S
C123 H124 0.959 . S
C123 H125 0.960 . S
C123 H126 0.961 1_556 S
H124 C123 0.959 . S
H125 C123 0.960 . S
H126 C123 0.961 1_554 S
O127 Co102 1.967 . S
O127 C135 1.258 . S
O128 Co103 1.941 . S
O128 C135 1.266 . S
H129 C131 0.959 . S
H130 C131 0.961 . S
C131 C121 1.510 . S
C131 H129 0.959 . S
C131 H130 0.961 . S
C131 H132 0.960 . S
H132 C131 0.960 . S
H133 N113 0.862 . S
O134 Co102 1.920 . S
O134 C107 1.289 . S
C135 O127 1.258 . S
C135 O128 1.266 . S
Co136 O139 1.970 . S
Co136 N153 1.989 1_655 S
Co136 O161 1.967 . S
Co136 O168 1.920 . S
Co137 O140 1.966 . S
Co137 N146 2.022 . S
Co137 N154 1.993 . S
Co137 O162 1.941 . S
C138 O139 1.258 . S
C138 O140 1.263 1_655 S
O139 Co136 1.970 . S
O139 C138 1.258 . S
O140 Co137 1.966 . S
O140 C138 1.263 1_455 S
C141 O142 1.235 . S
C141 O168 1.289 . S
O142 C141 1.235 . S
C143 C145 1.400 . S
C143 N146 1.351 . S
C143 C148 1.501 . S
C144 C145 1.387 . S
C144 N147 1.341 . S
C145 C143 1.400 . S
C145 C144 1.387 . S
N146 Co137 2.022 . S
N146 C143 1.351 . S
N146 N147 1.365 . S
N147 C144 1.341 . S
N147 N146 1.365 . S
N147 H167 0.862 . S
C148 C143 1.501 . S
C148 H149 0.961 . S
C148 H150 0.961 . S
C148 H151 0.961 . S
H149 C148 0.961 . S
H150 C148 0.961 . S
H151 C148 0.961 . S
C152 N153 1.342 . S
C152 C156 1.401 . S
C152 C157 1.499 . S
N153 Co136 1.989 1_455 S
N153 C152 1.342 . S
N153 N154 1.388 . S
N154 Co137 1.993 . S
N154 N153 1.388 . S
N154 C155 1.346 . S
C155 N154 1.346 . S
C155 C156 1.396 . S
C155 C165 1.510 . S
C156 C152 1.401 . S
C156 C155 1.396 . S
C157 C152 1.499 . S
C157 H158 0.959 . S
C157 H159 0.960 . S
C157 H160 0.961 . S
H158 C157 0.959 . S
H159 C157 0.960 . S
H160 C157 0.961 . S
O161 Co136 1.967 . S
O161 C169 1.258 1_655 S
O162 Co137 1.941 . S
O162 C169 1.266 . S
H163 C165 0.959 . S
H164 C165 0.961 . S
C165 C155 1.510 . S
C165 H163 0.959 . S
C165 H164 0.961 . S
C165 H166 0.960 . S
H166 C165 0.960 . S
H167 N147 0.862 . S
O168 Co136 1.920 . S
O168 C141 1.289 . S
C169 O161 1.258 1_455 S
C169 O162 1.266 . S
Co170 O173 1.970 . S
Co170 N187 1.989 . S
Co170 O195 1.967 . S
Co170 O202 1.920 . S
Co171 O174 1.966 . S
Co171 N180 2.022 . S
Co171 N188 1.993 . S
Co171 O196 1.941 . S
C172 O173 1.258 . S
C172 O174 1.263 . S
O173 Co170 1.970 . S
O173 C172 1.258 . S
O174 Co171 1.966 . S
O174 C172 1.263 . S
C175 O176 1.235 . S
C175 O202 1.289 . S
O176 C175 1.235 . S
C177 C179 1.400 . S
C177 N180 1.351 . S
C177 C182 1.501 . S
C178 C179 1.387 . S
C178 N181 1.341 . S
C179 C177 1.400 . S
C179 C178 1.387 . S
N180 Co171 2.022 . S
N180 C177 1.351 . S
N180 N181 1.365 . S
N181 C178 1.341 . S
N181 N180 1.365 . S
N181 H201 0.862 . S
C182 C177 1.501 . S
C182 H183 0.961 . S
C182 H184 0.961 . S
C182 H185 0.960 . S
H183 C182 0.961 . S
H184 C182 0.961 . S
H185 C182 0.960 . S
C186 N187 1.342 . S
C186 C190 1.401 . S
C186 C191 1.499 . S
N187 Co170 1.989 . S
N187 C186 1.342 . S
N187 N188 1.388 . S
N188 Co171 1.993 . S
N188 N187 1.388 . S
N188 C189 1.346 . S
C189 N188 1.346 . S
C189 C190 1.396 . S
C189 C199 1.510 . S
C190 C186 1.401 . S
C190 C189 1.396 . S
C191 C186 1.499 . S
C191 H192 0.959 . S
C191 H193 0.960 . S
C191 H194 0.961 . S
H192 C191 0.959 . S
H193 C191 0.960 . S
H194 C191 0.961 . S
O195 Co170 1.967 . S
O195 C203 1.258 . S
O196 Co171 1.941 . S
O196 C203 1.266 . S
H197 C199 0.959 . S
H198 C199 0.961 . S
C199 C189 1.510 . S
C199 H197 0.959 . S
C199 H198 0.961 . S
C199 H200 0.960 . S
H200 C199 0.960 . S
H201 N181 0.862 . S
O202 Co170 1.920 . S
O202 C175 1.289 . S
C203 O195 1.258 . S
C203 O196 1.266 . S
Co204 O207 1.970 . S
Co204 N221 1.989 . S
Co204 O229 1.967 . S
Co204 O236 1.920 . S
Co205 O208 1.966 . S
Co205 N214 2.022 1_455 S
Co205 N222 1.993 . S
Co205 O230 1.941 . S
C206 O207 1.258 . S
C206 O208 1.263 . S
O207 Co204 1.970 . S
O207 C206 1.258 . S
O208 Co205 1.966 . S
O208 C206 1.263 . S
C209 O210 1.235 . S
C209 O236 1.289 . S
O210 C209 1.235 . S
C211 C213 1.400 . S
C211 N214 1.351 . S
C211 C216 1.501 1_655 S
C212 C213 1.387 . S
C212 N215 1.341 . S
C213 C211 1.400 . S
C213 C212 1.387 . S
N214 Co205 2.022 1_655 S
N214 C211 1.351 . S
N214 N215 1.365 . S
N215 C212 1.341 . S
N215 N214 1.365 . S
N215 H235 0.862 . S
C216 C211 1.501 1_455 S
C216 H217 0.961 . S
C216 H218 0.961 . S
C216 H219 0.960 . S
H217 C216 0.961 . S
H218 C216 0.961 . S
H219 C216 0.960 . S
C220 N221 1.342 . S
C220 C224 1.401 1_455 S
C220 C225 1.499 . S
N221 Co204 1.989 . S
N221 C220 1.342 . S
N221 N222 1.388 . S
N222 Co205 1.993 . S
N222 N221 1.388 . S
N222 C223 1.346 1_455 S
C223 N222 1.346 1_655 S
C223 C224 1.396 . S
C223 C233 1.510 . S
C224 C220 1.401 1_655 S
C224 C223 1.396 . S
C225 C220 1.499 . S
C225 H226 0.959 . S
C225 H227 0.960 . S
C225 H228 0.961 . S
H226 C225 0.959 . S
H227 C225 0.960 . S
H228 C225 0.961 . S
O229 Co204 1.967 . S
O229 C237 1.258 . S
O230 Co205 1.941 . S
O230 C237 1.266 . S
H231 C233 0.959 . S
H232 C233 0.961 . S
C233 C223 1.510 . S
C233 H231 0.959 . S
C233 H232 0.961 . S
C233 H234 0.960 . S
H234 C233 0.960 . S
H235 N215 0.862 . S
O236 Co204 1.920 . S
O236 C209 1.289 . S
C237 O229 1.258 . S
C237 O230 1.266 . S
Co238 O241 1.970 . S
Co238 N255 1.989 . S
Co238 O263 1.967 . S
Co238 O270 1.920 . S
Co239 O242 1.966 . S
Co239 N248 2.022 . S
Co239 N256 1.993 . S
Co239 O264 1.941 . S
C240 O241 1.258 . S
C240 O242 1.263 . S
O241 Co238 1.970 . S
O241 C240 1.258 . S
O242 Co239 1.966 . S
O242 C240 1.263 . S
C243 O244 1.235 . S
C243 O270 1.289 . S
O244 C243 1.235 . S
C245 C247 1.400 . S
C245 N248 1.351 . S
C245 C250 1.501 . S
C246 C247 1.387 . S
C246 N249 1.341 . S
C247 C245 1.400 . S
C247 C246 1.387 . S
N248 Co239 2.022 . S
N248 C245 1.351 . S
N248 N249 1.365 . S
N249 C246 1.341 . S
N249 N248 1.365 . S
N249 H269 0.862 . S
C250 C245 1.501 . S
C250 H251 0.961 . S
C250 H252 0.961 . S
C250 H253 0.960 . S
H251 C250 0.961 . S
H252 C250 0.961 . S
H253 C250 0.960 . S
C254 N255 1.342 . S
C254 C258 1.401 . S
C254 C259 1.499 . S
N255 Co238 1.989 . S
N255 C254 1.342 . S
N255 N256 1.388 . S
N256 Co239 1.993 . S
N256 N255 1.388 . S
N256 C257 1.346 . S
C257 N256 1.346 . S
C257 C258 1.396 . S
C257 C267 1.510 . S
C258 C254 1.401 . S
C258 C257 1.396 . S
C259 C254 1.499 . S
C259 H260 0.959 . S
C259 H261 0.960 . S
C259 H262 0.961 . S
H260 C259 0.959 . S
H261 C259 0.960 . S
H262 C259 0.961 . S
O263 Co238 1.967 . S
O263 C271 1.258 . S
O264 Co239 1.941 . S
O264 C271 1.266 . S
H265 C267 0.959 . S
H266 C267 0.961 . S
C267 C257 1.510 . S
C267 H265 0.959 . S
C267 H266 0.961 . S
C267 H268 0.960 . S
H268 C267 0.960 . S
H269 N249 0.862 . S
O270 Co238 1.920 . S
O270 C243 1.289 . S
C271 O263 1.258 . S
C271 O264 1.266 . S
Co272 O275 1.970 . S
Co272 N289 1.989 1_565 S
Co272 O297 1.967 . S
Co272 O304 1.920 . S
Co273 O276 1.966 . S
Co273 N282 2.022 . S
Co273 N290 1.993 . S
Co273 O298 1.941 . S
C274 O275 1.258 . S
C274 O276 1.263 1_565 S
O275 Co272 1.970 . S
O275 C274 1.258 . S
O276 Co273 1.966 . S
O276 C274 1.263 1_545 S
C277 O278 1.235 . S
C277 O304 1.289 . S
O278 C277 1.235 . S
C279 C281 1.400 . S
C279 N282 1.351 . S
C279 C284 1.501 . S
C280 C281 1.387 . S
C280 N283 1.341 . S
C281 C279 1.400 . S
C281 C280 1.387 . S
N282 Co273 2.022 . S
N282 C279 1.351 . S
N282 N283 1.365 . S
N283 C280 1.341 . S
N283 N282 1.365 . S
N283 H303 0.862 . S
C284 C279 1.501 . S
C284 H285 0.961 . S
C284 H286 0.961 . S
C284 H287 0.960 . S
H285 C284 0.961 . S
H286 C284 0.961 . S
H287 C284 0.960 . S
C288 N289 1.342 . S
C288 C292 1.401 . S
C288 C293 1.499 . S
N289 Co272 1.989 1_545 S
N289 C288 1.342 . S
N289 N290 1.388 . S
N290 Co273 1.993 . S
N290 N289 1.388 . S
N290 C291 1.346 . S
C291 N290 1.346 . S
C291 C292 1.396 . S
C291 C301 1.510 . S
C292 C288 1.401 . S
C292 C291 1.396 . S
C293 C288 1.499 . S
C293 H294 0.959 . S
C293 H295 0.960 . S
C293 H296 0.961 . S
H294 C293 0.959 . S
H295 C293 0.960 . S
H296 C293 0.961 . S
O297 Co272 1.967 . S
O297 C305 1.258 1_565 S
O298 Co273 1.941 . S
O298 C305 1.266 . S
H299 C301 0.959 . S
H300 C301 0.961 . S
C301 C291 1.510 . S
C301 H299 0.959 . S
C301 H300 0.961 . S
C301 H302 0.960 . S
H302 C301 0.960 . S
H303 N283 0.862 . S
O304 Co272 1.920 . S
O304 C277 1.289 . S
C305 O297 1.258 1_545 S
C305 O298 1.266 . S
Co306 O309 1.970 . S
Co306 N323 1.989 . S
Co306 O331 1.967 . S
Co306 O338 1.920 . S
Co307 O310 1.966 . S
Co307 N316 2.022 . S
Co307 N324 1.993 . S
Co307 O332 1.941 . S
C308 O309 1.258 . S
C308 O310 1.263 . S
O309 Co306 1.970 . S
O309 C308 1.258 . S
O310 Co307 1.966 . S
O310 C308 1.263 . S
C311 O312 1.235 . S
C311 O338 1.289 . S
O312 C311 1.235 . S
C313 C315 1.400 . S
C313 N316 1.351 . S
C313 C318 1.501 . S
C314 C315 1.387 . S
C314 N317 1.341 . S
C315 C313 1.400 . S
C315 C314 1.387 . S
N316 Co307 2.022 . S
N316 C313 1.351 . S
N316 N317 1.365 . S
N317 C314 1.341 . S
N317 N316 1.365 . S
N317 H337 0.862 . S
C318 C313 1.501 . S
C318 H319 0.961 . S
C318 H320 0.961 . S
C318 H321 0.960 . S
H319 C318 0.961 . S
H320 C318 0.961 . S
H321 C318 0.960 . S
C322 N323 1.342 . S
C322 C326 1.401 . S
C322 C327 1.499 . S
N323 Co306 1.989 . S
N323 C322 1.342 . S
N323 N324 1.388 . S
N324 Co307 1.993 . S
N324 N323 1.388 . S
N324 C325 1.346 . S
C325 N324 1.346 . S
C325 C326 1.396 . S
C325 C335 1.510 . S
C326 C322 1.401 . S
C326 C325 1.396 . S
C327 C322 1.499 . S
C327 H328 0.959 . S
C327 H329 0.960 . S
C327 H330 0.961 . S
H328 C327 0.959 . S
H329 C327 0.960 . S
H330 C327 0.961 . S
O331 Co306 1.967 . S
O331 C339 1.258 . S
O332 Co307 1.941 . S
O332 C339 1.266 . S
H333 C335 0.959 . S
H334 C335 0.961 . S
C335 C325 1.510 . S
C335 H333 0.959 . S
C335 H334 0.961 . S
C335 H336 0.960 . S
H336 C335 0.960 . S
H337 N317 0.862 . S
O338 Co306 1.920 . S
O338 C311 1.289 . S
C339 O331 1.258 . S
C339 O332 1.266 . S
Co340 O343 1.970 . S
Co340 N357 1.989 . S
Co340 O365 1.967 . S
Co340 O372 1.920 . S
Co341 O344 1.966 . S
Co341 N350 2.022 . S
Co341 N358 1.993 . S
Co341 O366 1.941 . S
C342 O343 1.258 . S
C342 O344 1.263 . S
O343 Co340 1.970 . S
O343 C342 1.258 . S
O344 Co341 1.966 . S
O344 C342 1.263 . S
C345 O346 1.235 . S
C345 O372 1.289 . S
O346 C345 1.235 . S
C347 C349 1.400 . S
C347 N350 1.351 . S
C347 C352 1.501 . S
C348 C349 1.387 . S
C348 N351 1.341 . S
C349 C347 1.400 . S
C349 C348 1.387 . S
N350 Co341 2.022 . S
N350 C347 1.351 . S
N350 N351 1.365 . S
N351 C348 1.341 . S
N351 N350 1.365 . S
N351 H371 0.862 . S
C352 C347 1.501 . S
C352 H353 0.961 . S
C352 H354 0.961 . S
C352 H355 0.961 . S
H353 C352 0.961 . S
H354 C352 0.961 . S
H355 C352 0.961 . S
C356 N357 1.342 . S
C356 C360 1.401 . S
C356 C361 1.499 . S
N357 Co340 1.989 . S
N357 C356 1.342 . S
N357 N358 1.388 . S
N358 Co341 1.993 . S
N358 N357 1.388 . S
N358 C359 1.346 . S
C359 N358 1.346 . S
C359 C360 1.396 . S
C359 C369 1.510 . S
C360 C356 1.401 . S
C360 C359 1.396 . S
C361 C356 1.499 . S
C361 H362 0.959 . S
C361 H363 0.960 . S
C361 H364 0.961 . S
H362 C361 0.959 . S
H363 C361 0.960 . S
H364 C361 0.961 . S
O365 Co340 1.967 . S
O365 C373 1.258 . S
O366 Co341 1.941 . S
O366 C373 1.266 . S
H367 C369 0.959 . S
H368 C369 0.961 . S
C369 C359 1.510 . S
C369 H367 0.959 . S
C369 H368 0.961 . S
C369 H370 0.960 . S
H370 C369 0.960 . S
H371 N351 0.862 . S
O372 Co340 1.920 . S
O372 C345 1.289 . S
C373 O365 1.258 . S
C373 O366 1.266 . S
Co374 O377 1.970 . S
Co374 N391 1.989 . S
Co374 O399 1.967 . S
Co374 O406 1.920 . S
Co375 O378 1.966 . S
Co375 N384 2.022 . S
Co375 N392 1.993 . S
Co375 O400 1.941 . S
C376 O377 1.258 . S
C376 O378 1.263 . S
O377 Co374 1.970 . S
O377 C376 1.258 . S
O378 Co375 1.966 . S
O378 C376 1.263 . S
C379 O380 1.235 . S
C379 O406 1.289 . S
O380 C379 1.235 . S
C381 C383 1.400 . S
C381 N384 1.351 . S
C381 C386 1.501 . S
C382 C383 1.387 . S
C382 N385 1.341 . S
C383 C381 1.400 . S
C383 C382 1.387 . S
N384 Co375 2.022 . S
N384 C381 1.351 . S
N384 N385 1.365 . S
N385 C382 1.341 . S
N385 N384 1.365 . S
N385 H405 0.862 . S
C386 C381 1.501 . S
C386 H387 0.961 . S
C386 H388 0.961 . S
C386 H389 0.960 . S
H387 C386 0.961 . S
H388 C386 0.961 . S
H389 C386 0.960 . S
C390 N391 1.342 . S
C390 C394 1.401 . S
C390 C395 1.499 . S
N391 Co374 1.989 . S
N391 C390 1.342 . S
N391 N392 1.388 . S
N392 Co375 1.993 . S
N392 N391 1.388 . S
N392 C393 1.346 . S
C393 N392 1.346 . S
C393 C394 1.396 . S
C393 C403 1.510 . S
C394 C390 1.401 . S
C394 C393 1.396 . S
C395 C390 1.499 . S
C395 H396 0.959 . S
C395 H397 0.960 . S
C395 H398 0.961 . S
H396 C395 0.959 . S
H397 C395 0.960 . S
H398 C395 0.961 . S
O399 Co374 1.967 . S
O399 C407 1.258 . S
O400 Co375 1.941 . S
O400 C407 1.266 . S
H401 C403 0.959 . S
H402 C403 0.961 . S
C403 C393 1.510 . S
C403 H401 0.959 . S
C403 H402 0.961 . S
C403 H404 0.960 . S
H404 C403 0.960 . S
H405 N385 0.862 . S
O406 Co374 1.920 . S
O406 C379 1.289 . S
C407 O399 1.258 . S
C407 O400 1.266 . S
Co408 O411 1.970 . S
Co408 N425 1.989 . S
Co408 O433 1.967 . S
Co408 O440 1.920 . S
Co409 O412 1.966 . S
Co409 N418 2.022 1_545 S
Co409 N426 1.993 . S
Co409 O434 1.941 . S
C410 O411 1.258 . S
C410 O412 1.263 . S
O411 Co408 1.970 . S
O411 C410 1.258 . S
O412 Co409 1.966 . S
O412 C410 1.263 . S
C413 O414 1.235 . S
C413 O440 1.289 . S
O414 C413 1.235 . S
C415 C417 1.400 . S
C415 N418 1.351 . S
C415 C420 1.501 1_565 S
C416 C417 1.387 . S
C416 N419 1.341 . S
C417 C415 1.400 . S
C417 C416 1.387 . S
N418 Co409 2.022 1_565 S
N418 C415 1.351 . S
N418 N419 1.365 . S
N419 C416 1.341 . S
N419 N418 1.365 . S
N419 H439 0.862 . S
C420 C415 1.501 1_545 S
C420 H421 0.961 . S
C420 H422 0.961 . S
C420 H423 0.960 . S
H421 C420 0.961 . S
H422 C420 0.961 . S
H423 C420 0.960 . S
C424 N425 1.342 . S
C424 C428 1.401 1_545 S
C424 C429 1.499 . S
N425 Co408 1.989 . S
N425 C424 1.342 . S
N425 N426 1.388 . S
N426 Co409 1.993 . S
N426 N425 1.388 . S
N426 C427 1.346 1_545 S
C427 N426 1.346 1_565 S
C427 C428 1.396 . S
C427 C437 1.510 . S
C428 C424 1.401 1_565 S
C428 C427 1.396 . S
C429 C424 1.499 . S
C429 H430 0.959 . S
C429 H431 0.960 . S
C429 H432 0.961 . S
H430 C429 0.959 . S
H431 C429 0.960 . S
H432 C429 0.961 . S
O433 Co408 1.967 . S
O433 C441 1.258 . S
O434 Co409 1.941 . S
O434 C441 1.266 . S
H435 C437 0.959 . S
H436 C437 0.961 . S
C437 C427 1.510 . S
C437 H435 0.959 . S
C437 H436 0.961 . S
C437 H438 0.960 . S
H438 C437 0.960 . S
H439 N419 0.862 . S
O440 Co408 1.920 . S
O440 C413 1.289 . S
C441 O433 1.258 . S
C441 O434 1.266 . S
Co442 O445 1.970 . S
Co442 N459 1.989 . S
Co442 O467 1.967 . S
Co442 O474 1.920 . S
Co443 O446 1.966 . S
Co443 N452 2.022 . S
Co443 N460 1.993 . S
Co443 O468 1.941 . S
C444 O445 1.258 . S
C444 O446 1.263 . S
O445 Co442 1.970 . S
O445 C444 1.258 . S
O446 Co443 1.966 . S
O446 C444 1.263 . S
C447 O448 1.235 . S
C447 O474 1.289 . S
O448 C447 1.235 . S
C449 C451 1.400 . S
C449 N452 1.351 . S
C449 C454 1.501 . S
C450 C451 1.387 . S
C450 N453 1.341 . S
C451 C449 1.400 . S
C451 C450 1.387 . S
N452 Co443 2.022 . S
N452 C449 1.351 . S
N452 N453 1.365 . S
N453 C450 1.341 . S
N453 N452 1.365 . S
N453 H473 0.862 . S
C454 C449 1.501 . S
C454 H455 0.961 . S
C454 H456 0.961 . S
C454 H457 0.960 . S
H455 C454 0.961 . S
H456 C454 0.961 . S
H457 C454 0.960 . S
C458 N459 1.342 . S
C458 C462 1.401 . S
C458 C463 1.499 . S
N459 Co442 1.989 . S
N459 C458 1.342 . S
N459 N460 1.388 . S
N460 Co443 1.993 . S
N460 N459 1.388 . S
N460 C461 1.346 . S
C461 N460 1.346 . S
C461 C462 1.396 . S
C461 C471 1.510 . S
C462 C458 1.401 . S
C462 C461 1.396 . S
C463 C458 1.499 . S
C463 H464 0.959 . S
C463 H465 0.960 . S
C463 H466 0.961 . S
H464 C463 0.959 . S
H465 C463 0.960 . S
H466 C463 0.961 . S
O467 Co442 1.967 . S
O467 C475 1.258 . S
O468 Co443 1.941 . S
O468 C475 1.266 . S
H469 C471 0.959 . S
H470 C471 0.961 . S
C471 C461 1.510 . S
C471 H469 0.959 . S
C471 H470 0.961 . S
C471 H472 0.960 . S
H472 C471 0.960 . S
H473 N453 0.862 . S
O474 Co442 1.920 . S
O474 C447 1.289 . S
C475 O467 1.258 . S
C475 O468 1.266 . S
Co476 O479 1.970 . S
Co476 N493 1.989 . S
Co476 O501 1.967 . S
Co476 O508 1.920 . S
Co477 O480 1.966 . S
Co477 N486 2.022 . S
Co477 N494 1.993 . S
Co477 O502 1.941 . S
C478 O479 1.258 . S
C478 O480 1.263 . S
O479 Co476 1.970 . S
O479 C478 1.258 . S
O480 Co477 1.966 . S
O480 C478 1.263 . S
C481 O482 1.235 . S
C481 O508 1.289 . S
O482 C481 1.235 . S
C483 C485 1.400 . S
C483 N486 1.351 . S
C483 C488 1.501 . S
C484 C485 1.387 . S
C484 N487 1.341 . S
C485 C483 1.400 . S
C485 C484 1.387 . S
N486 Co477 2.022 . S
N486 C483 1.351 . S
N486 N487 1.365 . S
N487 C484 1.341 . S
N487 N486 1.365 . S
N487 H507 0.862 . S
C488 C483 1.501 . S
C488 H489 0.961 . S
C488 H490 0.961 . S
C488 H491 0.961 . S
H489 C488 0.961 . S
H490 C488 0.961 . S
H491 C488 0.961 . S
C492 N493 1.342 . S
C492 C496 1.401 . S
C492 C497 1.499 . S
N493 Co476 1.989 . S
N493 C492 1.342 . S
N493 N494 1.388 . S
N494 Co477 1.993 . S
N494 N493 1.388 . S
N494 C495 1.346 . S
C495 N494 1.346 . S
C495 C496 1.396 . S
C495 C505 1.510 . S
C496 C492 1.401 . S
C496 C495 1.396 . S
C497 C492 1.499 . S
C497 H498 0.959 . S
C497 H499 0.960 . S
C497 H500 0.961 . S
H498 C497 0.959 . S
H499 C497 0.960 . S
H500 C497 0.961 . S
O501 Co476 1.967 . S
O501 C509 1.258 . S
O502 Co477 1.941 . S
O502 C509 1.266 . S
H503 C505 0.959 . S
H504 C505 0.961 . S
C505 C495 1.510 . S
C505 H503 0.959 . S
C505 H504 0.961 . S
C505 H506 0.960 . S
H506 C505 0.960 . S
H507 N487 0.862 . S
O508 Co476 1.920 . S
O508 C481 1.289 . S
C509 O501 1.258 . S
C509 O502 1.266 . S
Co510 O513 1.970 . S
Co510 N527 1.989 . S
Co510 O535 1.967 . S
Co510 O542 1.920 . S
Co511 O514 1.966 . S
Co511 N520 2.022 . S
Co511 N528 1.993 . S
Co511 O536 1.941 . S
C512 O513 1.258 . S
C512 O514 1.263 . S
O513 Co510 1.970 . S
O513 C512 1.258 . S
O514 Co511 1.966 . S
O514 C512 1.263 . S
C515 O516 1.235 . S
C515 O542 1.289 . S
O516 C515 1.235 . S
C517 C519 1.400 . S
C517 N520 1.351 . S
C517 C522 1.501 . S
C518 C519 1.387 . S
C518 N521 1.341 . S
C519 C517 1.400 . S
C519 C518 1.387 . S
N520 Co511 2.022 . S
N520 C517 1.351 . S
N520 N521 1.365 . S
N521 C518 1.341 . S
N521 N520 1.365 . S
N521 H541 0.862 . S
C522 C517 1.501 . S
C522 H523 0.961 . S
C522 H524 0.961 . S
C522 H525 0.960 . S
H523 C522 0.961 . S
H524 C522 0.961 . S
H525 C522 0.960 . S
C526 N527 1.342 . S
C526 C530 1.401 . S
C526 C531 1.499 . S
N527 Co510 1.989 . S
N527 C526 1.342 . S
N527 N528 1.388 . S
N528 Co511 1.993 . S
N528 N527 1.388 . S
N528 C529 1.346 . S
C529 N528 1.346 . S
C529 C530 1.396 . S
C529 C539 1.510 . S
C530 C526 1.401 . S
C530 C529 1.396 . S
C531 C526 1.499 . S
C531 H532 0.959 . S
C531 H533 0.960 . S
C531 H534 0.961 . S
H532 C531 0.959 . S
H533 C531 0.960 . S
H534 C531 0.961 . S
O535 Co510 1.967 . S
O535 C543 1.258 . S
O536 Co511 1.941 . S
O536 C543 1.266 . S
H537 C539 0.959 . S
H538 C539 0.961 . S
C539 C529 1.510 . S
C539 H537 0.959 . S
C539 H538 0.961 . S
C539 H540 0.960 . S
H540 C539 0.960 . S
H541 N521 0.862 . S
O542 Co510 1.920 . S
O542 C515 1.289 . S
C543 O535 1.258 . S
C543 O536 1.266 . S
Co544 O547 1.970 . S
Co544 N561 1.989 1_556 S
Co544 O569 1.967 . S
Co544 O576 1.920 . S
Co545 O548 1.966 . S
Co545 N554 2.022 . S
Co545 N562 1.993 . S
Co545 O570 1.941 . S
C546 O547 1.258 . S
C546 O548 1.263 1_556 S
O547 Co544 1.970 . S
O547 C546 1.258 . S
O548 Co545 1.966 . S
O548 C546 1.263 1_554 S
C549 O550 1.235 . S
C549 O576 1.289 . S
O550 C549 1.235 . S
C551 C553 1.400 . S
C551 N554 1.351 . S
C551 C556 1.501 . S
C552 C553 1.387 . S
C552 N555 1.341 . S
C553 C551 1.400 . S
C553 C552 1.387 . S
N554 Co545 2.022 . S
N554 C551 1.351 . S
N554 N555 1.365 . S
N555 C552 1.341 . S
N555 N554 1.365 . S
N555 H575 0.862 . S
C556 C551 1.501 . S
C556 H557 0.961 . S
C556 H558 0.961 . S
C556 H559 0.960 . S
H557 C556 0.961 . S
H558 C556 0.961 . S
H559 C556 0.960 . S
C560 N561 1.342 . S
C560 C564 1.401 . S
C560 C565 1.499 . S
N561 Co544 1.989 1_554 S
N561 C560 1.342 . S
N561 N562 1.388 . S
N562 Co545 1.993 . S
N562 N561 1.388 . S
N562 C563 1.346 . S
C563 N562 1.346 . S
C563 C564 1.396 . S
C563 C573 1.510 . S
C564 C560 1.401 . S
C564 C563 1.396 . S
C565 C560 1.499 . S
C565 H566 0.959 . S
C565 H567 0.960 . S
C565 H568 0.961 . S
H566 C565 0.959 . S
H567 C565 0.960 . S
H568 C565 0.961 . S
O569 Co544 1.967 . S
O569 C577 1.258 1_556 S
O570 Co545 1.941 . S
O570 C577 1.266 . S
H571 C573 0.959 . S
H572 C573 0.961 . S
C573 C563 1.510 . S
C573 H571 0.959 . S
C573 H572 0.961 . S
C573 H574 0.960 . S
H574 C573 0.960 . S
H575 N555 0.862 . S
O576 Co544 1.920 . S
O576 C549 1.289 . S
C577 O569 1.258 1_554 S
C577 O570 1.266 . S
Co578 O581 1.970 . S
Co578 N595 1.989 . S
Co578 O603 1.967 . S
Co578 O610 1.920 . S
Co579 O582 1.966 . S
Co579 N588 2.022 . S
Co579 N596 1.993 . S
Co579 O604 1.941 . S
C580 O581 1.258 . S
C580 O582 1.263 . S
O581 Co578 1.970 . S
O581 C580 1.258 . S
O582 Co579 1.966 . S
O582 C580 1.263 . S
C583 O584 1.235 . S
C583 O610 1.289 . S
O584 C583 1.235 . S
C585 C587 1.400 . S
C585 N588 1.351 . S
C585 C590 1.501 . S
C586 C587 1.387 . S
C586 N589 1.341 . S
C587 C585 1.400 . S
C587 C586 1.387 . S
N588 Co579 2.022 . S
N588 C585 1.351 . S
N588 N589 1.365 . S
N589 C586 1.341 . S
N589 N588 1.365 . S
N589 H609 0.862 . S
C590 C585 1.501 . S
C590 H591 0.961 . S
C590 H592 0.961 . S
C590 H593 0.961 . S
H591 C590 0.961 . S
H592 C590 0.961 . S
H593 C590 0.961 . S
C594 N595 1.342 . S
C594 C598 1.401 . S
C594 C599 1.499 . S
N595 Co578 1.989 . S
N595 C594 1.342 . S
N595 N596 1.388 . S
N596 Co579 1.993 . S
N596 N595 1.388 . S
N596 C597 1.346 . S
C597 N596 1.346 . S
C597 C598 1.396 . S
C597 C607 1.510 . S
C598 C594 1.401 . S
C598 C597 1.396 . S
C599 C594 1.499 . S
C599 H600 0.959 . S
C599 H601 0.960 . S
C599 H602 0.961 . S
H600 C599 0.959 . S
H601 C599 0.960 . S
H602 C599 0.961 . S
O603 Co578 1.967 . S
O603 C611 1.258 . S
O604 Co579 1.941 . S
O604 C611 1.266 . S
H605 C607 0.959 . S
H606 C607 0.961 . S
C607 C597 1.510 . S
C607 H605 0.959 . S
C607 H606 0.961 . S
C607 H608 0.960 . S
H608 C607 0.960 . S
H609 N589 0.862 . S
O610 Co578 1.920 . S
O610 C583 1.289 . S
C611 O603 1.258 . S
C611 O604 1.266 . S
Co612 O615 1.970 . S
Co612 N629 1.989 . S
Co612 O637 1.967 . S
Co612 O644 1.920 . S
Co613 O616 1.966 . S
Co613 N622 2.022 . S
Co613 N630 1.993 . S
Co613 O638 1.941 . S
C614 O615 1.258 . S
C614 O616 1.263 . S
O615 Co612 1.970 . S
O615 C614 1.258 . S
O616 Co613 1.966 . S
O616 C614 1.263 . S
C617 O618 1.235 . S
C617 O644 1.289 . S
O618 C617 1.235 . S
C619 C621 1.400 . S
C619 N622 1.351 . S
C619 C624 1.501 . S
C620 C621 1.387 . S
C620 N623 1.341 . S
C621 C619 1.400 . S
C621 C620 1.387 . S
N622 Co613 2.022 . S
N622 C619 1.351 . S
N622 N623 1.365 . S
N623 C620 1.341 . S
N623 N622 1.365 . S
N623 H643 0.862 . S
C624 C619 1.501 . S
C624 H625 0.961 . S
C624 H626 0.961 . S
C624 H627 0.960 . S
H625 C624 0.961 . S
H626 C624 0.961 . S
H627 C624 0.960 . S
C628 N629 1.342 . S
C628 C632 1.401 . S
C628 C633 1.499 . S
N629 Co612 1.989 . S
N629 C628 1.342 . S
N629 N630 1.388 . S
N630 Co613 1.993 . S
N630 N629 1.388 . S
N630 C631 1.346 . S
C631 N630 1.346 . S
C631 C632 1.396 . S
C631 C641 1.510 . S
C632 C628 1.401 . S
C632 C631 1.396 . S
C633 C628 1.499 . S
C633 H634 0.959 . S
C633 H635 0.960 . S
C633 H636 0.961 . S
H634 C633 0.959 . S
H635 C633 0.960 . S
H636 C633 0.961 . S
O637 Co612 1.967 . S
O637 C645 1.258 . S
O638 Co613 1.941 . S
O638 C645 1.266 . S
H639 C641 0.959 . S
H640 C641 0.961 . S
C641 C631 1.510 . S
C641 H639 0.959 . S
C641 H640 0.961 . S
C641 H642 0.960 . S
H642 C641 0.960 . S
H643 N623 0.862 . S
O644 Co612 1.920 . S
O644 C617 1.289 . S
C645 O637 1.258 . S
C645 O638 1.266 . S
Co646 O649 1.970 . S
Co646 N663 1.989 . S
Co646 O671 1.967 . S
Co646 O678 1.920 . S
Co647 O650 1.966 . S
Co647 N656 2.022 1_554 S
Co647 N664 1.993 . S
Co647 O672 1.941 . S
C648 O649 1.258 . S
C648 O650 1.263 . S
O649 Co646 1.970 . S
O649 C648 1.258 . S
O650 Co647 1.966 . S
O650 C648 1.263 . S
C651 O652 1.235 . S
C651 O678 1.289 . S
O652 C651 1.235 . S
C653 C655 1.400 . S
C653 N656 1.351 . S
C653 C658 1.501 1_556 S
C654 C655 1.387 . S
C654 N657 1.341 . S
C655 C653 1.400 . S
C655 C654 1.387 . S
N656 Co647 2.022 1_556 S
N656 C653 1.351 . S
N656 N657 1.365 . S
N657 C654 1.341 . S
N657 N656 1.365 . S
N657 H677 0.862 . S
C658 C653 1.501 1_554 S
C658 H659 0.961 . S
C658 H660 0.961 . S
C658 H661 0.960 . S
H659 C658 0.961 . S
H660 C658 0.961 . S
H661 C658 0.960 . S
C662 N663 1.342 . S
C662 C666 1.401 1_554 S
C662 C667 1.499 . S
N663 Co646 1.989 . S
N663 C662 1.342 . S
N663 N664 1.388 . S
N664 Co647 1.993 . S
N664 N663 1.388 . S
N664 C665 1.346 1_554 S
C665 N664 1.346 1_556 S
C665 C666 1.396 . S
C665 C675 1.510 . S
C666 C662 1.401 1_556 S
C666 C665 1.396 . S
C667 C662 1.499 . S
C667 H668 0.959 . S
C667 H669 0.960 . S
C667 H670 0.961 . S
H668 C667 0.959 . S
H669 C667 0.960 . S
H670 C667 0.961 . S
O671 Co646 1.967 . S
O671 C679 1.258 . S
O672 Co647 1.941 . S
O672 C679 1.266 . S
H673 C675 0.959 . S
H674 C675 0.961 . S
C675 C665 1.510 . S
C675 H673 0.959 . S
C675 H674 0.961 . S
C675 H676 0.960 . S
H676 C675 0.960 . S
H677 N657 0.862 . S
O678 Co646 1.920 . S
O678 C651 1.289 . S
C679 O671 1.258 . S
C679 O672 1.266 . S
Co680 O683 1.970 . S
Co680 N697 1.989 . S
Co680 O705 1.967 . S
Co680 O712 1.920 . S
Co681 O684 1.966 . S
Co681 N690 2.022 . S
Co681 N698 1.993 . S
Co681 O706 1.941 . S
C682 O683 1.258 . S
C682 O684 1.263 . S
O683 Co680 1.970 . S
O683 C682 1.258 . S
O684 Co681 1.966 . S
O684 C682 1.263 . S
C685 O686 1.235 . S
C685 O712 1.289 . S
O686 C685 1.235 . S
C687 C689 1.400 . S
C687 N690 1.351 . S
C687 C692 1.501 . S
C688 C689 1.387 . S
C688 N691 1.341 . S
C689 C687 1.400 . S
C689 C688 1.387 . S
N690 Co681 2.022 . S
N690 C687 1.351 . S
N690 N691 1.365 . S
N691 C688 1.341 . S
N691 N690 1.365 . S
N691 H711 0.862 . S
C692 C687 1.501 . S
C692 H693 0.961 . S
C692 H694 0.961 . S
C692 H695 0.960 . S
H693 C692 0.961 . S
H694 C692 0.961 . S
H695 C692 0.960 . S
C696 N697 1.342 . S
C696 C700 1.401 . S
C696 C701 1.499 . S
N697 Co680 1.989 . S
N697 C696 1.342 . S
N697 N698 1.388 . S
N698 Co681 1.993 . S
N698 N697 1.388 . S
N698 C699 1.346 . S
C699 N698 1.346 . S
C699 C700 1.396 . S
C699 C709 1.510 . S
C700 C696 1.401 . S
C700 C699 1.396 . S
C701 C696 1.499 . S
C701 H702 0.959 . S
C701 H703 0.960 . S
C701 H704 0.961 . S
H702 C701 0.959 . S
H703 C701 0.960 . S
H704 C701 0.961 . S
O705 Co680 1.967 . S
O705 C713 1.258 . S
O706 Co681 1.941 . S
O706 C713 1.266 . S
H707 C709 0.959 . S
H708 C709 0.961 . S
C709 C699 1.510 . S
C709 H707 0.959 . S
C709 H708 0.961 . S
C709 H710 0.960 . S
H710 C709 0.960 . S
H711 N691 0.862 . S
O712 Co680 1.920 . S
O712 C685 1.289 . S
C713 O705 1.258 . S
C713 O706 1.266 . S
Co714 O717 1.970 . S
Co714 N731 1.989 1_556 S
Co714 O739 1.967 . S
Co714 O746 1.920 . S
Co715 O718 1.966 . S
Co715 N724 2.022 . S
Co715 N732 1.993 . S
Co715 O740 1.941 . S
C716 O717 1.258 . S
C716 O718 1.263 1_556 S
O717 Co714 1.970 . S
O717 C716 1.258 . S
O718 Co715 1.966 . S
O718 C716 1.263 1_554 S
C719 O720 1.235 . S
C719 O746 1.289 . S
O720 C719 1.235 . S
C721 C723 1.400 . S
C721 N724 1.351 . S
C721 C726 1.501 . S
C722 C723 1.387 . S
C722 N725 1.341 . S
C723 C721 1.400 . S
C723 C722 1.387 . S
N724 Co715 2.022 . S
N724 C721 1.351 . S
N724 N725 1.365 . S
N725 C722 1.341 . S
N725 N724 1.365 . S
N725 H745 0.862 . S
C726 C721 1.501 . S
C726 H727 0.961 . S
C726 H728 0.961 . S
C726 H729 0.961 . S
H727 C726 0.961 . S
H728 C726 0.961 . S
H729 C726 0.961 . S
C730 N731 1.342 . S
C730 C734 1.401 . S
C730 C735 1.499 . S
N731 Co714 1.989 1_554 S
N731 C730 1.342 . S
N731 N732 1.388 . S
N732 Co715 1.993 . S
N732 N731 1.388 . S
N732 C733 1.346 . S
C733 N732 1.346 . S
C733 C734 1.396 . S
C733 C743 1.510 . S
C734 C730 1.401 . S
C734 C733 1.396 . S
C735 C730 1.499 . S
C735 H736 0.959 . S
C735 H737 0.960 . S
C735 H738 0.961 . S
H736 C735 0.959 . S
H737 C735 0.960 . S
H738 C735 0.961 . S
O739 Co714 1.967 . S
O739 C747 1.258 1_556 S
O740 Co715 1.941 . S
O740 C747 1.266 . S
H741 C743 0.959 . S
H742 C743 0.961 . S
C743 C733 1.510 . S
C743 H741 0.959 . S
C743 H742 0.961 . S
C743 H744 0.960 . S
H744 C743 0.960 . S
H745 N725 0.862 . S
O746 Co714 1.920 . S
O746 C719 1.289 . S
C747 O739 1.258 1_554 S
C747 O740 1.266 . S
Co748 O751 1.970 . S
Co748 N765 1.989 . S
Co748 O773 1.967 . S
Co748 O780 1.920 . S
Co749 O752 1.966 . S
Co749 N758 2.022 . S
Co749 N766 1.993 . S
Co749 O774 1.941 . S
C750 O751 1.258 . S
C750 O752 1.263 . S
O751 Co748 1.970 . S
O751 C750 1.258 . S
O752 Co749 1.966 . S
O752 C750 1.263 . S
C753 O754 1.235 . S
C753 O780 1.289 . S
O754 C753 1.235 . S
C755 C757 1.400 . S
C755 N758 1.351 . S
C755 C760 1.501 . S
C756 C757 1.387 . S
C756 N759 1.341 . S
C757 C755 1.400 . S
C757 C756 1.387 . S
N758 Co749 2.022 . S
N758 C755 1.351 . S
N758 N759 1.365 . S
N759 C756 1.341 . S
N759 N758 1.365 . S
N759 H779 0.862 . S
C760 C755 1.501 . S
C760 H761 0.961 . S
C760 H762 0.961 . S
C760 H763 0.960 . S
H761 C760 0.961 . S
H762 C760 0.961 . S
H763 C760 0.960 . S
C764 N765 1.342 . S
C764 C768 1.401 . S
C764 C769 1.499 . S
N765 Co748 1.989 . S
N765 C764 1.342 . S
N765 N766 1.388 . S
N766 Co749 1.993 . S
N766 N765 1.388 . S
N766 C767 1.346 . S
C767 N766 1.346 . S
C767 C768 1.396 . S
C767 C777 1.510 . S
C768 C764 1.401 . S
C768 C767 1.396 . S
C769 C764 1.499 . S
C769 H770 0.959 . S
C769 H771 0.960 . S
C769 H772 0.961 . S
H770 C769 0.959 . S
H771 C769 0.960 . S
H772 C769 0.961 . S
O773 Co748 1.967 . S
O773 C781 1.258 . S
O774 Co749 1.941 . S
O774 C781 1.266 . S
H775 C777 0.959 . S
H776 C777 0.961 . S
C777 C767 1.510 . S
C777 H775 0.959 . S
C777 H776 0.961 . S
C777 H778 0.960 . S
H778 C777 0.960 . S
H779 N759 0.862 . S
O780 Co748 1.920 . S
O780 C753 1.289 . S
C781 O773 1.258 . S
C781 O774 1.266 . S
Co782 O785 1.970 . S
Co782 N799 1.989 . S
Co782 O807 1.967 . S
Co782 O814 1.920 . S
Co783 O786 1.966 . S
Co783 N792 2.022 . S
Co783 N800 1.993 . S
Co783 O808 1.941 . S
C784 O785 1.258 . S
C784 O786 1.263 . S
O785 Co782 1.970 . S
O785 C784 1.258 . S
O786 Co783 1.966 . S
O786 C784 1.263 . S
C787 O788 1.235 . S
C787 O814 1.289 . S
O788 C787 1.235 . S
C789 C791 1.400 . S
C789 N792 1.351 . S
C789 C794 1.501 . S
C790 C791 1.387 . S
C790 N793 1.341 . S
C791 C789 1.400 . S
C791 C790 1.387 . S
N792 Co783 2.022 . S
N792 C789 1.351 . S
N792 N793 1.365 . S
N793 C790 1.341 . S
N793 N792 1.365 . S
N793 H813 0.862 . S
C794 C789 1.501 . S
C794 H795 0.961 . S
C794 H796 0.961 . S
C794 H797 0.960 . S
H795 C794 0.961 . S
H796 C794 0.961 . S
H797 C794 0.960 . S
C798 N799 1.342 . S
C798 C802 1.401 . S
C798 C803 1.499 . S
N799 Co782 1.989 . S
N799 C798 1.342 . S
N799 N800 1.388 . S
N800 Co783 1.993 . S
N800 N799 1.388 . S
N800 C801 1.346 . S
C801 N800 1.346 . S
C801 C802 1.396 . S
C801 C811 1.510 . S
C802 C798 1.401 . S
C802 C801 1.396 . S
C803 C798 1.499 . S
C803 H804 0.959 . S
C803 H805 0.960 . S
C803 H806 0.961 . S
H804 C803 0.959 . S
H805 C803 0.960 . S
H806 C803 0.961 . S
O807 Co782 1.967 . S
O807 C815 1.258 . S
O808 Co783 1.941 . S
O808 C815 1.266 . S
H809 C811 0.959 . S
H810 C811 0.961 . S
C811 C801 1.510 . S
C811 H809 0.959 . S
C811 H810 0.961 . S
C811 H812 0.960 . S
H812 C811 0.960 . S
H813 N793 0.862 . S
O814 Co782 1.920 . S
O814 C787 1.289 . S
C815 O807 1.258 . S
C815 O808 1.266 . S
Co816 O819 1.970 . S
Co816 N833 1.989 1_655 S
Co816 O841 1.967 . S
Co816 O848 1.920 . S
Co817 O820 1.966 . S
Co817 N826 2.022 . S
Co817 N834 1.993 . S
Co817 O842 1.941 . S
C818 O819 1.258 . S
C818 O820 1.263 1_655 S
O819 Co816 1.970 . S
O819 C818 1.258 . S
O820 Co817 1.966 . S
O820 C818 1.263 1_455 S
C821 O822 1.235 . S
C821 O848 1.289 . S
O822 C821 1.235 . S
C823 C825 1.400 . S
C823 N826 1.351 . S
C823 C828 1.501 . S
C824 C825 1.387 . S
C824 N827 1.341 . S
C825 C823 1.400 . S
C825 C824 1.387 . S
N826 Co817 2.022 . S
N826 C823 1.351 . S
N826 N827 1.365 . S
N827 C824 1.341 . S
N827 N826 1.365 . S
N827 H847 0.862 . S
C828 C823 1.501 . S
C828 H829 0.961 . S
C828 H830 0.961 . S
C828 H831 0.960 . S
H829 C828 0.961 . S
H830 C828 0.961 . S
H831 C828 0.960 . S
C832 N833 1.342 . S
C832 C836 1.401 . S
C832 C837 1.499 . S
N833 Co816 1.989 1_455 S
N833 C832 1.342 . S
N833 N834 1.388 . S
N834 Co817 1.993 . S
N834 N833 1.388 . S
N834 C835 1.346 . S
C835 N834 1.346 . S
C835 C836 1.396 . S
C835 C845 1.510 . S
C836 C832 1.401 . S
C836 C835 1.396 . S
C837 C832 1.499 . S
C837 H838 0.959 . S
C837 H839 0.960 . S
C837 H840 0.961 . S
H838 C837 0.959 . S
H839 C837 0.960 . S
H840 C837 0.961 . S
O841 Co816 1.967 . S
O841 C849 1.258 1_655 S
O842 Co817 1.941 . S
O842 C849 1.266 . S
H843 C845 0.959 . S
H844 C845 0.961 . S
C845 C835 1.510 . S
C845 H843 0.959 . S
C845 H844 0.961 . S
C845 H846 0.960 . S
H846 C845 0.960 . S
H847 N827 0.862 . S
O848 Co816 1.920 . S
O848 C821 1.289 . S
C849 O841 1.258 1_455 S
C849 O842 1.266 . S
Co850 O853 1.970 . S
Co850 N867 1.989 . S
Co850 O875 1.967 . S
Co850 O882 1.920 . S
Co851 O854 1.966 . S
Co851 N860 2.022 . S
Co851 N868 1.993 . S
Co851 O876 1.941 . S
C852 O853 1.258 . S
C852 O854 1.263 . S
O853 Co850 1.970 . S
O853 C852 1.258 . S
O854 Co851 1.966 . S
O854 C852 1.263 . S
C855 O856 1.235 . S
C855 O882 1.289 . S
O856 C855 1.235 . S
C857 C859 1.400 . S
C857 N860 1.351 . S
C857 C862 1.501 . S
C858 C859 1.387 . S
C858 N861 1.341 . S
C859 C857 1.400 . S
C859 C858 1.387 . S
N860 Co851 2.022 . S
N860 C857 1.351 . S
N860 N861 1.365 . S
N861 C858 1.341 . S
N861 N860 1.365 . S
N861 H881 0.862 . S
C862 C857 1.501 . S
C862 H863 0.961 . S
C862 H864 0.961 . S
C862 H865 0.960 . S
H863 C862 0.961 . S
H864 C862 0.961 . S
H865 C862 0.960 . S
C866 N867 1.342 . S
C866 C870 1.401 . S
C866 C871 1.499 . S
N867 Co850 1.989 . S
N867 C866 1.342 . S
N867 N868 1.388 . S
N868 Co851 1.993 . S
N868 N867 1.388 . S
N868 C869 1.346 . S
C869 N868 1.346 . S
C869 C870 1.396 . S
C869 C879 1.510 . S
C870 C866 1.401 . S
C870 C869 1.396 . S
C871 C866 1.499 . S
C871 H872 0.959 . S
C871 H873 0.960 . S
C871 H874 0.961 1_556 S
H872 C871 0.959 . S
H873 C871 0.960 . S
H874 C871 0.961 1_554 S
O875 Co850 1.967 . S
O875 C883 1.258 . S
O876 Co851 1.941 . S
O876 C883 1.266 . S
H877 C879 0.959 . S
H878 C879 0.961 . S
C879 C869 1.510 . S
C879 H877 0.959 . S
C879 H878 0.961 . S
C879 H880 0.960 . S
H880 C879 0.960 . S
H881 N861 0.862 . S
O882 Co850 1.920 . S
O882 C855 1.289 . S
C883 O875 1.258 . S
C883 O876 1.266 . S
Co884 O887 1.970 . S
Co884 N901 1.989 . S
Co884 O909 1.967 . S
Co884 O916 1.920 . S
Co885 O888 1.966 . S
Co885 N894 2.022 1_455 S
Co885 N902 1.993 . S
Co885 O910 1.941 . S
C886 O887 1.258 . S
C886 O888 1.263 . S
O887 Co884 1.970 . S
O887 C886 1.258 . S
O888 Co885 1.966 . S
O888 C886 1.263 . S
C889 O890 1.235 . S
C889 O916 1.289 . S
O890 C889 1.235 . S
C891 C893 1.400 . S
C891 N894 1.351 . S
C891 C896 1.501 1_655 S
C892 C893 1.387 . S
C892 N895 1.341 . S
C893 C891 1.400 . S
C893 C892 1.387 . S
N894 Co885 2.022 1_655 S
N894 C891 1.351 . S
N894 N895 1.365 . S
N895 C892 1.341 . S
N895 N894 1.365 . S
N895 H915 0.862 . S
C896 C891 1.501 1_455 S
C896 H897 0.961 . S
C896 H898 0.961 . S
C896 H899 0.960 . S
H897 C896 0.961 . S
H898 C896 0.961 . S
H899 C896 0.960 . S
C900 N901 1.342 . S
C900 C904 1.401 1_455 S
C900 C905 1.499 . S
N901 Co884 1.989 . S
N901 C900 1.342 . S
N901 N902 1.388 . S
N902 Co885 1.993 . S
N902 N901 1.388 . S
N902 C903 1.346 1_455 S
C903 N902 1.346 1_655 S
C903 C904 1.396 . S
C903 C913 1.510 . S
C904 C900 1.401 1_655 S
C904 C903 1.396 . S
C905 C900 1.499 . S
C905 H906 0.959 . S
C905 H907 0.960 . S
C905 H908 0.961 . S
H906 C905 0.959 . S
H907 C905 0.960 . S
H908 C905 0.961 . S
O909 Co884 1.967 . S
O909 C917 1.258 . S
O910 Co885 1.941 . S
O910 C917 1.266 . S
H911 C913 0.959 . S
H912 C913 0.961 . S
C913 C903 1.510 . S
C913 H911 0.959 . S
C913 H912 0.961 . S
C913 H914 0.960 . S
H914 C913 0.960 . S
H915 N895 0.862 . S
O916 Co884 1.920 . S
O916 C889 1.289 . S
C917 O909 1.258 . S
C917 O910 1.266 . S
Co918 O921 1.970 . S
Co918 N935 1.989 . S
Co918 O943 1.967 . S
Co918 O950 1.920 . S
Co919 O922 1.966 . S
Co919 N928 2.022 . S
Co919 N936 1.993 . S
Co919 O944 1.941 . S
C920 O921 1.258 . S
C920 O922 1.263 . S
O921 Co918 1.970 . S
O921 C920 1.258 . S
O922 Co919 1.966 . S
O922 C920 1.263 . S
C923 O924 1.235 . S
C923 O950 1.289 . S
O924 C923 1.235 . S
C925 C927 1.400 . S
C925 N928 1.351 . S
C925 C930 1.501 . S
C926 C927 1.387 . S
C926 N929 1.341 . S
C927 C925 1.400 . S
C927 C926 1.387 . S
N928 Co919 2.022 . S
N928 C925 1.351 . S
N928 N929 1.365 . S
N929 C926 1.341 . S
N929 N928 1.365 . S
N929 H949 0.862 . S
C930 C925 1.501 . S
C930 H931 0.961 . S
C930 H932 0.961 . S
C930 H933 0.960 . S
H931 C930 0.961 . S
H932 C930 0.961 . S
H933 C930 0.960 . S
C934 N935 1.342 . S
C934 C938 1.401 . S
C934 C939 1.499 . S
N935 Co918 1.989 . S
N935 C934 1.342 . S
N935 N936 1.388 . S
N936 Co919 1.993 . S
N936 N935 1.388 . S
N936 C937 1.346 . S
C937 N936 1.346 . S
C937 C938 1.396 . S
C937 C947 1.510 . S
C938 C934 1.401 . S
C938 C937 1.396 . S
C939 C934 1.499 . S
C939 H940 0.959 . S
C939 H941 0.960 . S
C939 H942 0.961 . S
H940 C939 0.959 . S
H941 C939 0.960 . S
H942 C939 0.961 . S
O943 Co918 1.967 . S
O943 C951 1.258 . S
O944 Co919 1.941 . S
O944 C951 1.266 . S
H945 C947 0.959 . S
H946 C947 0.961 . S
C947 C937 1.510 . S
C947 H945 0.959 . S
C947 H946 0.961 . S
C947 H948 0.960 . S
H948 C947 0.960 . S
H949 N929 0.862 . S
O950 Co918 1.920 . S
O950 C923 1.289 . S
C951 O943 1.258 . S
C951 O944 1.266 . S
Co952 O955 1.970 . S
Co952 N969 1.989 1_655 S
Co952 O977 1.967 . S
Co952 O984 1.920 . S
Co953 O956 1.966 . S
Co953 N962 2.022 . S
Co953 N970 1.993 . S
Co953 O978 1.941 . S
C954 O955 1.258 . S
C954 O956 1.263 1_655 S
O955 Co952 1.970 . S
O955 C954 1.258 . S
O956 Co953 1.966 . S
O956 C954 1.263 1_455 S
C957 O958 1.235 . S
C957 O984 1.289 . S
O958 C957 1.235 . S
C959 C961 1.400 . S
C959 N962 1.351 . S
C959 C964 1.501 . S
C960 C961 1.387 . S
C960 N963 1.341 . S
C961 C959 1.400 . S
C961 C960 1.387 . S
N962 Co953 2.022 . S
N962 C959 1.351 . S
N962 N963 1.365 . S
N963 C960 1.341 . S
N963 N962 1.365 . S
N963 H983 0.862 . S
C964 C959 1.501 . S
C964 H965 0.961 . S
C964 H966 0.961 . S
C964 H967 0.960 . S
H965 C964 0.961 . S
H966 C964 0.961 . S
H967 C964 0.960 . S
C968 N969 1.342 . S
C968 C972 1.401 . S
C968 C973 1.499 . S
N969 Co952 1.989 1_455 S
N969 C968 1.342 . S
N969 N970 1.388 . S
N970 Co953 1.993 . S
N970 N969 1.388 . S
N970 C971 1.346 . S
C971 N970 1.346 . S
C971 C972 1.396 . S
C971 C981 1.510 . S
C972 C968 1.401 . S
C972 C971 1.396 . S
C973 C968 1.499 . S
C973 H974 0.959 . S
C973 H975 0.960 . S
C973 H976 0.961 . S
H974 C973 0.959 . S
H975 C973 0.960 . S
H976 C973 0.961 . S
O977 Co952 1.967 . S
O977 C985 1.258 1_655 S
O978 Co953 1.941 . S
O978 C985 1.266 . S
H979 C981 0.959 . S
H980 C981 0.961 . S
C981 C971 1.510 . S
C981 H979 0.959 . S
C981 H980 0.961 . S
C981 H982 0.960 . S
H982 C981 0.960 . S
H983 N963 0.862 . S
O984 Co952 1.920 . S
O984 C957 1.289 . S
C985 O977 1.258 1_455 S
C985 O978 1.266 . S
Co986 O989 1.970 . S
Co986 N1003 1.989 . S
Co986 O1011 1.967 . S
Co986 O1018 1.920 . S
Co987 O990 1.966 . S
Co987 N996 2.022 . S
Co987 N1004 1.993 . S
Co987 O1012 1.941 . S
C988 O989 1.258 . S
C988 O990 1.263 . S
O989 Co986 1.970 . S
O989 C988 1.258 . S
O990 Co987 1.966 . S
O990 C988 1.263 . S
C991 O992 1.235 . S
C991 O1018 1.289 . S
O992 C991 1.235 . S
C993 C995 1.400 . S
C993 N996 1.351 . S
C993 C998 1.501 . S
C994 C995 1.387 . S
C994 N997 1.341 . S
C995 C993 1.400 . S
C995 C994 1.387 . S
N996 Co987 2.022 . S
N996 C993 1.351 . S
N996 N997 1.365 . S
N997 C994 1.341 . S
N997 N996 1.365 . S
N997 H1017 0.862 . S
C998 C993 1.501 . S
C998 H999 0.961 . S
C998 H1000 0.961 . S
C998 H1001 0.960 . S
H999 C998 0.961 . S
H1000 C998 0.961 . S
H1001 C998 0.960 . S
C1002 N1003 1.342 . S
C1002 C1006 1.401 . S
C1002 C1007 1.499 . S
N1003 Co986 1.989 . S
N1003 C1002 1.342 . S
N1003 N1004 1.388 . S
N1004 Co987 1.993 . S
N1004 N1003 1.388 . S
N1004 C1005 1.346 . S
C1005 N1004 1.346 . S
C1005 C1006 1.396 . S
C1005 C1015 1.510 . S
C1006 C1002 1.401 . S
C1006 C1005 1.396 . S
C1007 C1002 1.499 . S
C1007 H1008 0.959 . S
C1007 H1009 0.960 . S
C1007 H1010 0.961 . S
H1008 C1007 0.959 . S
H1009 C1007 0.960 . S
H1010 C1007 0.961 . S
O1011 Co986 1.967 . S
O1011 C1019 1.258 . S
O1012 Co987 1.941 . S
O1012 C1019 1.266 . S
H1013 C1015 0.959 . S
H1014 C1015 0.961 . S
C1015 C1005 1.510 . S
C1015 H1013 0.959 . S
C1015 H1014 0.961 . S
C1015 H1016 0.960 . S
H1016 C1015 0.960 . S
H1017 N997 0.862 . S
O1018 Co986 1.920 . S
O1018 C991 1.289 . S
C1019 O1011 1.258 . S
C1019 O1012 1.266 . S
Co1020 O1023 1.970 . S
Co1020 N1037 1.989 . S
Co1020 O1045 1.967 . S
Co1020 O1052 1.920 . S
Co1021 O1024 1.966 . S
Co1021 N1030 2.022 1_455 S
Co1021 N1038 1.993 . S
Co1021 O1046 1.941 . S
C1022 O1023 1.258 . S
C1022 O1024 1.263 . S
O1023 Co1020 1.970 . S
O1023 C1022 1.258 . S
O1024 Co1021 1.966 . S
O1024 C1022 1.263 . S
C1025 O1026 1.235 . S
C1025 O1052 1.289 . S
O1026 C1025 1.235 . S
C1027 C1029 1.400 . S
C1027 N1030 1.351 . S
C1027 C1032 1.501 1_655 S
C1028 C1029 1.387 . S
C1028 N1031 1.341 . S
C1029 C1027 1.400 . S
C1029 C1028 1.387 . S
N1030 Co1021 2.022 1_655 S
N1030 C1027 1.351 . S
N1030 N1031 1.365 . S
N1031 C1028 1.341 . S
N1031 N1030 1.365 . S
N1031 H1051 0.862 . S
C1032 C1027 1.501 1_455 S
C1032 H1033 0.961 . S
C1032 H1034 0.961 . S
C1032 H1035 0.962 . S
H1033 C1032 0.961 . S
H1034 C1032 0.961 . S
H1035 C1032 0.962 . S
C1036 N1037 1.342 . S
C1036 C1040 1.401 1_455 S
C1036 C1041 1.499 . S
N1037 Co1020 1.989 . S
N1037 C1036 1.342 . S
N1037 N1038 1.388 . S
N1038 Co1021 1.993 . S
N1038 N1037 1.388 . S
N1038 C1039 1.346 1_455 S
C1039 N1038 1.346 1_655 S
C1039 C1040 1.396 . S
C1039 C1049 1.510 . S
C1040 C1036 1.401 1_655 S
C1040 C1039 1.396 . S
C1041 C1036 1.499 . S
C1041 H1042 0.959 . S
C1041 H1043 0.960 . S
C1041 H1044 0.961 . S
H1042 C1041 0.959 . S
H1043 C1041 0.960 . S
H1044 C1041 0.961 . S
O1045 Co1020 1.967 . S
O1045 C1053 1.258 . S
O1046 Co1021 1.941 . S
O1046 C1053 1.266 . S
H1047 C1049 0.959 . S
H1048 C1049 0.961 . S
C1049 C1039 1.510 . S
C1049 H1047 0.959 . S
C1049 H1048 0.961 . S
C1049 H1050 0.960 . S
H1050 C1049 0.960 . S
H1051 N1031 0.862 . S
O1052 Co1020 1.920 . S
O1052 C1025 1.289 . S
C1053 O1045 1.258 . S
C1053 O1046 1.266 . S
Co1054 O1057 1.970 . S
Co1054 N1071 1.989 . S
Co1054 O1079 1.967 . S
Co1054 O1086 1.920 . S
Co1055 O1058 1.966 . S
Co1055 N1064 2.022 . S
Co1055 N1072 1.993 . S
Co1055 O1080 1.941 . S
C1056 O1057 1.258 . S
C1056 O1058 1.263 . S
O1057 Co1054 1.970 . S
O1057 C1056 1.258 . S
O1058 Co1055 1.966 . S
O1058 C1056 1.263 . S
C1059 O1060 1.235 . S
C1059 O1086 1.289 . S
O1060 C1059 1.235 . S
C1061 C1063 1.400 . S
C1061 N1064 1.351 . S
C1061 C1066 1.501 . S
C1062 C1063 1.387 . S
C1062 N1065 1.341 . S
C1063 C1061 1.400 . S
C1063 C1062 1.387 . S
N1064 Co1055 2.022 . S
N1064 C1061 1.351 . S
N1064 N1065 1.365 . S
N1065 C1062 1.341 . S
N1065 N1064 1.365 . S
N1065 H1085 0.862 . S
C1066 C1061 1.501 . S
C1066 H1067 0.961 . S
C1066 H1068 0.961 . S
C1066 H1069 0.960 . S
H1067 C1066 0.961 . S
H1068 C1066 0.961 . S
H1069 C1066 0.960 . S
C1070 N1071 1.342 . S
C1070 C1074 1.401 . S
C1070 C1075 1.499 . S
N1071 Co1054 1.989 . S
N1071 C1070 1.342 . S
N1071 N1072 1.388 . S
N1072 Co1055 1.993 . S
N1072 N1071 1.388 . S
N1072 C1073 1.346 . S
C1073 N1072 1.346 . S
C1073 C1074 1.396 . S
C1073 C1083 1.510 . S
C1074 C1070 1.401 . S
C1074 C1073 1.396 . S
C1075 C1070 1.499 . S
C1075 H1076 0.959 . S
C1075 H1077 0.960 . S
C1075 H1078 0.961 . S
H1076 C1075 0.959 . S
H1077 C1075 0.960 . S
H1078 C1075 0.961 . S
O1079 Co1054 1.967 . S
O1079 C1087 1.258 . S
O1080 Co1055 1.941 . S
O1080 C1087 1.266 . S
H1081 C1083 0.959 . S
H1082 C1083 0.961 . S
C1083 C1073 1.510 . S
C1083 H1081 0.959 . S
C1083 H1082 0.961 . S
C1083 H1084 0.960 . S
H1084 C1083 0.960 . S
H1085 N1065 0.862 . S
O1086 Co1054 1.920 . S
O1086 C1059 1.289 . S
C1087 O1079 1.258 . S
C1087 O1080 1.266 . S
Co1088 O1091 1.970 . S
Co1088 N1105 1.989 . S
Co1088 O1113 1.967 . S
Co1088 O1120 1.920 . S
Co1089 O1092 1.966 . S
Co1089 N1098 2.022 . S
Co1089 N1106 1.993 . S
Co1089 O1114 1.941 . S
C1090 O1091 1.258 . S
C1090 O1092 1.263 . S
O1091 Co1088 1.970 . S
O1091 C1090 1.258 . S
O1092 Co1089 1.966 . S
O1092 C1090 1.263 . S
C1093 O1094 1.235 . S
C1093 O1120 1.289 . S
O1094 C1093 1.235 . S
C1095 C1097 1.400 . S
C1095 N1098 1.351 . S
C1095 C1100 1.501 . S
C1096 C1097 1.387 . S
C1096 N1099 1.341 . S
C1097 C1095 1.400 . S
C1097 C1096 1.387 . S
N1098 Co1089 2.022 . S
N1098 C1095 1.351 . S
N1098 N1099 1.365 . S
N1099 C1096 1.341 . S
N1099 N1098 1.365 . S
N1099 H1119 0.862 . S
C1100 C1095 1.501 . S
C1100 H1101 0.961 . S
C1100 H1102 0.961 . S
C1100 H1103 0.960 . S
H1101 C1100 0.961 . S
H1102 C1100 0.961 . S
H1103 C1100 0.960 . S
C1104 N1105 1.342 . S
C1104 C1108 1.401 . S
C1104 C1109 1.499 . S
N1105 Co1088 1.989 . S
N1105 C1104 1.342 . S
N1105 N1106 1.388 . S
N1106 Co1089 1.993 . S
N1106 N1105 1.388 . S
N1106 C1107 1.346 . S
C1107 N1106 1.346 . S
C1107 C1108 1.396 . S
C1107 C1117 1.510 . S
C1108 C1104 1.401 . S
C1108 C1107 1.396 . S
C1109 C1104 1.499 . S
C1109 H1110 0.959 . S
C1109 H1111 0.960 . S
C1109 H1112 0.961 . S
H1110 C1109 0.959 . S
H1111 C1109 0.960 . S
H1112 C1109 0.961 . S
O1113 Co1088 1.967 . S
O1113 C1121 1.258 . S
O1114 Co1089 1.941 . S
O1114 C1121 1.266 . S
H1115 C1117 0.959 . S
H1116 C1117 0.961 . S
C1117 C1107 1.510 . S
C1117 H1115 0.959 . S
C1117 H1116 0.961 . S
C1117 H1118 0.960 . S
H1118 C1117 0.960 . S
H1119 N1099 0.862 . S
O1120 Co1088 1.920 . S
O1120 C1093 1.289 . S
C1121 O1113 1.258 . S
C1121 O1114 1.266 . S
Co1122 O1125 1.970 . S
Co1122 N1139 1.989 . S
Co1122 O1147 1.967 . S
Co1122 O1154 1.920 . S
Co1123 O1126 1.966 . S
Co1123 N1132 2.022 . S
Co1123 N1140 1.993 . S
Co1123 O1148 1.941 . S
C1124 O1125 1.258 . S
C1124 O1126 1.263 . S
O1125 Co1122 1.970 . S
O1125 C1124 1.258 . S
O1126 Co1123 1.966 . S
O1126 C1124 1.263 . S
C1127 O1128 1.235 . S
C1127 O1154 1.289 . S
O1128 C1127 1.235 . S
C1129 C1131 1.400 . S
C1129 N1132 1.351 . S
C1129 C1134 1.501 . S
C1130 C1131 1.387 . S
C1130 N1133 1.341 . S
C1131 C1129 1.400 . S
C1131 C1130 1.387 . S
N1132 Co1123 2.022 . S
N1132 C1129 1.351 . S
N1132 N1133 1.365 . S
N1133 C1130 1.341 . S
N1133 N1132 1.365 . S
N1133 H1153 0.862 . S
C1134 C1129 1.501 . S
C1134 H1135 0.961 . S
C1134 H1136 0.961 . S
C1134 H1137 0.960 . S
H1135 C1134 0.961 . S
H1136 C1134 0.961 . S
H1137 C1134 0.960 . S
C1138 N1139 1.342 . S
C1138 C1142 1.401 . S
C1138 C1143 1.499 . S
N1139 Co1122 1.989 . S
N1139 C1138 1.342 . S
N1139 N1140 1.388 . S
N1140 Co1123 1.993 . S
N1140 N1139 1.388 . S
N1140 C1141 1.346 . S
C1141 N1140 1.346 . S
C1141 C1142 1.396 . S
C1141 C1151 1.510 . S
C1142 C1138 1.401 . S
C1142 C1141 1.396 . S
C1143 C1138 1.499 . S
C1143 H1144 0.959 . S
C1143 H1145 0.960 . S
C1143 H1146 0.961 1_565 S
H1144 C1143 0.959 . S
H1145 C1143 0.960 . S
H1146 C1143 0.961 1_545 S
O1147 Co1122 1.967 . S
O1147 C1155 1.258 . S
O1148 Co1123 1.941 . S
O1148 C1155 1.266 . S
H1149 C1151 0.959 . S
H1150 C1151 0.961 . S
C1151 C1141 1.510 . S
C1151 H1149 0.959 . S
C1151 H1150 0.961 . S
C1151 H1152 0.960 . S
H1152 C1151 0.960 . S
H1153 N1133 0.862 . S
O1154 Co1122 1.920 . S
O1154 C1127 1.289 . S
C1155 O1147 1.258 . S
C1155 O1148 1.266 . S
Co1156 O1159 1.970 . S
Co1156 N1173 1.989 . S
Co1156 O1181 1.967 . S
Co1156 O1188 1.920 . S
Co1157 O1160 1.966 . S
Co1157 N1166 2.022 1_545 S
Co1157 N1174 1.993 . S
Co1157 O1182 1.941 . S
C1158 O1159 1.258 . S
C1158 O1160 1.263 . S
O1159 Co1156 1.970 . S
O1159 C1158 1.258 . S
O1160 Co1157 1.966 . S
O1160 C1158 1.263 . S
C1161 O1162 1.235 . S
C1161 O1188 1.289 . S
O1162 C1161 1.235 . S
C1163 C1165 1.400 . S
C1163 N1166 1.351 . S
C1163 C1168 1.501 1_565 S
C1164 C1165 1.387 . S
C1164 N1167 1.341 . S
C1165 C1163 1.400 . S
C1165 C1164 1.387 . S
N1166 Co1157 2.022 1_565 S
N1166 C1163 1.351 . S
N1166 N1167 1.365 . S
N1167 C1164 1.341 . S
N1167 N1166 1.365 . S
N1167 H1187 0.862 . S
C1168 C1163 1.501 1_545 S
C1168 H1169 0.961 . S
C1168 H1170 0.961 . S
C1168 H1171 0.962 . S
H1169 C1168 0.961 . S
H1170 C1168 0.961 . S
H1171 C1168 0.962 . S
C1172 N1173 1.342 . S
C1172 C1176 1.401 1_545 S
C1172 C1177 1.499 . S
N1173 Co1156 1.989 . S
N1173 C1172 1.342 . S
N1173 N1174 1.388 . S
N1174 Co1157 1.993 . S
N1174 N1173 1.388 . S
N1174 C1175 1.346 1_545 S
C1175 N1174 1.346 1_565 S
C1175 C1176 1.396 . S
C1175 C1185 1.510 . S
C1176 C1172 1.401 1_565 S
C1176 C1175 1.396 . S
C1177 C1172 1.499 . S
C1177 H1178 0.959 . S
C1177 H1179 0.960 . S
C1177 H1180 0.961 . S
H1178 C1177 0.959 . S
H1179 C1177 0.960 . S
H1180 C1177 0.961 . S
O1181 Co1156 1.967 . S
O1181 C1189 1.258 . S
O1182 Co1157 1.941 . S
O1182 C1189 1.266 . S
H1183 C1185 0.959 . S
H1184 C1185 0.961 . S
C1185 C1175 1.510 . S
C1185 H1183 0.959 . S
C1185 H1184 0.961 . S
C1185 H1186 0.960 . S
H1186 C1185 0.960 . S
H1187 N1167 0.862 . S
O1188 Co1156 1.920 . S
O1188 C1161 1.289 . S
C1189 O1181 1.258 . S
C1189 O1182 1.266 . S
Co1190 O1193 1.970 . S
Co1190 N1207 1.989 . S
Co1190 O1215 1.967 . S
Co1190 O1222 1.920 . S
Co1191 O1194 1.966 . S
Co1191 N1200 2.022 . S
Co1191 N1208 1.993 . S
Co1191 O1216 1.941 . S
C1192 O1193 1.258 . S
C1192 O1194 1.263 . S
O1193 Co1190 1.970 . S
O1193 C1192 1.258 . S
O1194 Co1191 1.966 . S
O1194 C1192 1.263 . S
C1195 O1196 1.235 . S
C1195 O1222 1.289 . S
O1196 C1195 1.235 . S
C1197 C1199 1.400 . S
C1197 N1200 1.351 . S
C1197 C1202 1.501 . S
C1198 C1199 1.387 . S
C1198 N1201 1.341 . S
C1199 C1197 1.400 . S
C1199 C1198 1.387 . S
N1200 Co1191 2.022 . S
N1200 C1197 1.351 . S
N1200 N1201 1.365 . S
N1201 C1198 1.341 . S
N1201 N1200 1.365 . S
N1201 H1221 0.862 . S
C1202 C1197 1.501 . S
C1202 H1203 0.961 . S
C1202 H1204 0.961 . S
C1202 H1205 0.960 . S
H1203 C1202 0.961 . S
H1204 C1202 0.961 . S
H1205 C1202 0.960 . S
C1206 N1207 1.342 . S
C1206 C1210 1.401 . S
C1206 C1211 1.499 . S
N1207 Co1190 1.989 . S
N1207 C1206 1.342 . S
N1207 N1208 1.388 . S
N1208 Co1191 1.993 . S
N1208 N1207 1.388 . S
N1208 C1209 1.346 . S
C1209 N1208 1.346 . S
C1209 C1210 1.396 . S
C1209 C1219 1.510 . S
C1210 C1206 1.401 . S
C1210 C1209 1.396 . S
C1211 C1206 1.499 . S
C1211 H1212 0.959 . S
C1211 H1213 0.960 . S
C1211 H1214 0.961 . S
H1212 C1211 0.959 . S
H1213 C1211 0.960 . S
H1214 C1211 0.961 . S
O1215 Co1190 1.967 . S
O1215 C1223 1.258 . S
O1216 Co1191 1.941 . S
O1216 C1223 1.266 . S
H1217 C1219 0.959 . S
H1218 C1219 0.961 . S
C1219 C1209 1.510 . S
C1219 H1217 0.959 . S
C1219 H1218 0.961 . S
C1219 H1220 0.960 . S
H1220 C1219 0.960 . S
H1221 N1201 0.862 . S
O1222 Co1190 1.920 . S
O1222 C1195 1.289 . S
C1223 O1215 1.258 . S
C1223 O1216 1.266 . S
Co1224 O1227 1.970 . S
Co1224 N1241 1.989 . S
Co1224 O1249 1.967 . S
Co1224 O1256 1.920 . S
Co1225 O1228 1.966 . S
Co1225 N1234 2.022 . S
Co1225 N1242 1.993 . S
Co1225 O1250 1.941 . S
C1226 O1227 1.258 . S
C1226 O1228 1.263 . S
O1227 Co1224 1.970 . S
O1227 C1226 1.258 . S
O1228 Co1225 1.966 . S
O1228 C1226 1.263 . S
C1229 O1230 1.235 . S
C1229 O1256 1.289 . S
O1230 C1229 1.235 . S
C1231 C1233 1.400 . S
C1231 N1234 1.351 . S
C1231 C1236 1.501 . S
C1232 C1233 1.387 . S
C1232 N1235 1.341 . S
C1233 C1231 1.400 . S
C1233 C1232 1.387 . S
N1234 Co1225 2.022 . S
N1234 C1231 1.351 . S
N1234 N1235 1.365 . S
N1235 C1232 1.341 . S
N1235 N1234 1.365 . S
N1235 H1255 0.862 . S
C1236 C1231 1.501 . S
C1236 H1237 0.961 . S
C1236 H1238 0.961 . S
C1236 H1239 0.960 . S
H1237 C1236 0.961 . S
H1238 C1236 0.961 . S
H1239 C1236 0.960 . S
C1240 N1241 1.342 . S
C1240 C1244 1.401 . S
C1240 C1245 1.499 . S
N1241 Co1224 1.989 . S
N1241 C1240 1.342 . S
N1241 N1242 1.388 . S
N1242 Co1225 1.993 . S
N1242 N1241 1.388 . S
N1242 C1243 1.346 . S
C1243 N1242 1.346 . S
C1243 C1244 1.396 . S
C1243 C1253 1.510 . S
C1244 C1240 1.401 . S
C1244 C1243 1.396 . S
C1245 C1240 1.499 . S
C1245 H1246 0.959 . S
C1245 H1247 0.960 . S
C1245 H1248 0.961 . S
H1246 C1245 0.959 . S
H1247 C1245 0.960 . S
H1248 C1245 0.961 . S
O1249 Co1224 1.967 . S
O1249 C1257 1.258 . S
O1250 Co1225 1.941 . S
O1250 C1257 1.266 . S
H1251 C1253 0.959 . S
H1252 C1253 0.961 . S
C1253 C1243 1.510 . S
C1253 H1251 0.959 . S
C1253 H1252 0.961 . S
C1253 H1254 0.960 . S
H1254 C1253 0.960 . S
H1255 N1235 0.862 . S
O1256 Co1224 1.920 . S
O1256 C1229 1.289 . S
C1257 O1249 1.258 . S
C1257 O1250 1.266 . S
Co1258 O1261 1.970 . S
Co1258 N1275 1.989 . S
Co1258 O1283 1.967 . S
Co1258 O1290 1.920 . S
Co1259 O1262 1.966 . S
Co1259 N1268 2.022 . S
Co1259 N1276 1.993 . S
Co1259 O1284 1.941 . S
C1260 O1261 1.258 . S
C1260 O1262 1.263 . S
O1261 Co1258 1.970 . S
O1261 C1260 1.258 . S
O1262 Co1259 1.966 . S
O1262 C1260 1.263 . S
C1263 O1264 1.235 . S
C1263 O1290 1.289 . S
O1264 C1263 1.235 . S
C1265 C1267 1.400 . S
C1265 N1268 1.351 . S
C1265 C1270 1.501 . S
C1266 C1267 1.387 . S
C1266 N1269 1.341 . S
C1267 C1265 1.400 . S
C1267 C1266 1.387 . S
N1268 Co1259 2.022 . S
N1268 C1265 1.351 . S
N1268 N1269 1.365 . S
N1269 C1266 1.341 . S
N1269 N1268 1.365 . S
N1269 H1289 0.862 . S
C1270 C1265 1.501 . S
C1270 H1271 0.961 . S
C1270 H1272 0.961 . S
C1270 H1273 0.960 . S
H1271 C1270 0.961 . S
H1272 C1270 0.961 . S
H1273 C1270 0.960 . S
C1274 N1275 1.342 . S
C1274 C1278 1.401 . S
C1274 C1279 1.499 . S
N1275 Co1258 1.989 . S
N1275 C1274 1.342 . S
N1275 N1276 1.388 . S
N1276 Co1259 1.993 . S
N1276 N1275 1.388 . S
N1276 C1277 1.346 . S
C1277 N1276 1.346 . S
C1277 C1278 1.396 . S
C1277 C1287 1.510 . S
C1278 C1274 1.401 . S
C1278 C1277 1.396 . S
C1279 C1274 1.499 . S
C1279 H1280 0.959 . S
C1279 H1281 0.960 . S
C1279 H1282 0.961 1_565 S
H1280 C1279 0.959 . S
H1281 C1279 0.960 . S
H1282 C1279 0.961 1_545 S
O1283 Co1258 1.967 . S
O1283 C1291 1.258 . S
O1284 Co1259 1.941 . S
O1284 C1291 1.266 . S
H1285 C1287 0.959 . S
H1286 C1287 0.961 . S
C1287 C1277 1.510 . S
C1287 H1285 0.959 . S
C1287 H1286 0.961 . S
C1287 H1288 0.960 . S
H1288 C1287 0.960 . S
H1289 N1269 0.862 . S
O1290 Co1258 1.920 . S
O1290 C1263 1.289 . S
C1291 O1283 1.258 . S
C1291 O1284 1.266 . S
Co1292 O1295 1.970 . S
Co1292 N1309 1.989 1_565 S
Co1292 O1317 1.967 . S
Co1292 O1324 1.920 . S
Co1293 O1296 1.966 . S
Co1293 N1302 2.022 . S
Co1293 N1310 1.993 . S
Co1293 O1318 1.941 . S
C1294 O1295 1.258 . S
C1294 O1296 1.263 1_565 S
O1295 Co1292 1.970 . S
O1295 C1294 1.258 . S
O1296 Co1293 1.966 . S
O1296 C1294 1.263 1_545 S
C1297 O1298 1.235 . S
C1297 O1324 1.289 . S
O1298 C1297 1.235 . S
C1299 C1301 1.400 . S
C1299 N1302 1.351 . S
C1299 C1304 1.501 . S
C1300 C1301 1.387 . S
C1300 N1303 1.341 . S
C1301 C1299 1.400 . S
C1301 C1300 1.387 . S
N1302 Co1293 2.022 . S
N1302 C1299 1.351 . S
N1302 N1303 1.365 . S
N1303 C1300 1.341 . S
N1303 N1302 1.365 . S
N1303 H1323 0.862 . S
C1304 C1299 1.501 . S
C1304 H1305 0.961 . S
C1304 H1306 0.961 . S
C1304 H1307 0.961 . S
H1305 C1304 0.961 . S
H1306 C1304 0.961 . S
H1307 C1304 0.961 . S
C1308 N1309 1.342 . S
C1308 C1312 1.401 . S
C1308 C1313 1.499 . S
N1309 Co1292 1.989 1_545 S
N1309 C1308 1.342 . S
N1309 N1310 1.388 . S
N1310 Co1293 1.993 . S
N1310 N1309 1.388 . S
N1310 C1311 1.346 . S
C1311 N1310 1.346 . S
C1311 C1312 1.396 . S
C1311 C1321 1.510 . S
C1312 C1308 1.401 . S
C1312 C1311 1.396 . S
C1313 C1308 1.499 . S
C1313 H1314 0.959 . S
C1313 H1315 0.960 . S
C1313 H1316 0.961 . S
H1314 C1313 0.959 . S
H1315 C1313 0.960 . S
H1316 C1313 0.961 . S
O1317 Co1292 1.967 . S
O1317 C1325 1.258 1_565 S
O1318 Co1293 1.941 . S
O1318 C1325 1.266 . S
H1319 C1321 0.959 . S
H1320 C1321 0.961 . S
C1321 C1311 1.510 . S
C1321 H1319 0.959 . S
C1321 H1320 0.961 . S
C1321 H1322 0.960 . S
H1322 C1321 0.960 . S
H1323 N1303 0.862 . S
O1324 Co1292 1.920 . S
O1324 C1297 1.289 . S
C1325 O1317 1.258 1_545 S
C1325 O1318 1.266 . S
Co1326 O1329 1.970 . S
Co1326 N1343 1.989 . S
Co1326 O1351 1.967 . S
Co1326 O1358 1.920 . S
Co1327 O1330 1.966 . S
Co1327 N1336 2.022 . S
Co1327 N1344 1.993 . S
Co1327 O1352 1.941 . S
C1328 O1329 1.258 . S
C1328 O1330 1.263 . S
O1329 Co1326 1.970 . S
O1329 C1328 1.258 . S
O1330 Co1327 1.966 . S
O1330 C1328 1.263 . S
C1331 O1332 1.235 . S
C1331 O1358 1.289 . S
O1332 C1331 1.235 . S
C1333 C1335 1.400 . S
C1333 N1336 1.351 . S
C1333 C1338 1.501 . S
C1334 C1335 1.387 . S
C1334 N1337 1.341 . S
C1335 C1333 1.400 . S
C1335 C1334 1.387 . S
N1336 Co1327 2.022 . S
N1336 C1333 1.351 . S
N1336 N1337 1.365 . S
N1337 C1334 1.341 . S
N1337 N1336 1.365 . S
N1337 H1357 0.862 . S
C1338 C1333 1.501 . S
C1338 H1339 0.961 . S
C1338 H1340 0.961 . S
C1338 H1341 0.960 . S
H1339 C1338 0.961 . S
H1340 C1338 0.961 . S
H1341 C1338 0.960 . S
C1342 N1343 1.342 . S
C1342 C1346 1.401 . S
C1342 C1347 1.499 . S
N1343 Co1326 1.989 . S
N1343 C1342 1.342 . S
N1343 N1344 1.388 . S
N1344 Co1327 1.993 . S
N1344 N1343 1.388 . S
N1344 C1345 1.346 . S
C1345 N1344 1.346 . S
C1345 C1346 1.396 . S
C1345 C1355 1.510 . S
C1346 C1342 1.401 . S
C1346 C1345 1.396 . S
C1347 C1342 1.499 . S
C1347 H1348 0.959 . S
C1347 H1349 0.960 . S
C1347 H1350 0.961 . S
H1348 C1347 0.959 . S
H1349 C1347 0.960 . S
H1350 C1347 0.961 . S
O1351 Co1326 1.967 . S
O1351 C1359 1.258 . S
O1352 Co1327 1.941 . S
O1352 C1359 1.266 . S
H1353 C1355 0.959 . S
H1354 C1355 0.961 . S
C1355 C1345 1.510 . S
C1355 H1353 0.959 . S
C1355 H1354 0.961 . S
C1355 H1356 0.960 . S
H1356 C1355 0.960 . S
H1357 N1337 0.862 . S
O1358 Co1326 1.920 . S
O1358 C1331 1.289 . S
C1359 O1351 1.258 . S
C1359 O1352 1.266 . S
Co1360 O1363 1.970 . S
Co1360 N1377 1.989 . S
Co1360 O1385 1.967 . S
Co1360 O1392 1.920 . S
Co1361 O1364 1.966 . S
Co1361 N1370 2.022 . S
Co1361 N1378 1.993 . S
Co1361 O1386 1.941 . S
C1362 O1363 1.258 . S
C1362 O1364 1.263 . S
O1363 Co1360 1.970 . S
O1363 C1362 1.258 . S
O1364 Co1361 1.966 . S
O1364 C1362 1.263 . S
C1365 O1366 1.235 . S
C1365 O1392 1.289 . S
O1366 C1365 1.235 . S
C1367 C1369 1.400 . S
C1367 N1370 1.351 . S
C1367 C1372 1.501 . S
C1368 C1369 1.387 . S
C1368 N1371 1.341 . S
C1369 C1367 1.400 . S
C1369 C1368 1.387 . S
N1370 Co1361 2.022 . S
N1370 C1367 1.351 . S
N1370 N1371 1.365 . S
N1371 C1368 1.341 . S
N1371 N1370 1.365 . S
N1371 H1391 0.862 . S
C1372 C1367 1.501 . S
C1372 H1373 0.961 . S
C1372 H1374 0.961 . S
C1372 H1375 0.960 . S
H1373 C1372 0.961 . S
H1374 C1372 0.961 . S
H1375 C1372 0.960 . S
C1376 N1377 1.342 . S
C1376 C1380 1.401 . S
C1376 C1381 1.499 . S
N1377 Co1360 1.989 . S
N1377 C1376 1.342 . S
N1377 N1378 1.388 . S
N1378 Co1361 1.993 . S
N1378 N1377 1.388 . S
N1378 C1379 1.346 . S
C1379 N1378 1.346 . S
C1379 C1380 1.396 . S
C1379 C1389 1.510 . S
C1380 C1376 1.401 . S
C1380 C1379 1.396 . S
C1381 C1376 1.499 . S
C1381 H1382 0.959 . S
C1381 H1383 0.960 . S
C1381 H1384 0.961 . S
H1382 C1381 0.959 . S
H1383 C1381 0.960 . S
H1384 C1381 0.961 . S
O1385 Co1360 1.967 . S
O1385 C1393 1.258 . S
O1386 Co1361 1.941 . S
O1386 C1393 1.266 . S
H1387 C1389 0.959 . S
H1388 C1389 0.961 . S
C1389 C1379 1.510 . S
C1389 H1387 0.959 . S
C1389 H1388 0.961 . S
C1389 H1390 0.960 . S
H1390 C1389 0.960 . S
H1391 N1371 0.862 . S
O1392 Co1360 1.920 . S
O1392 C1365 1.289 . S
C1393 O1385 1.258 . S
C1393 O1386 1.266 . S
Co1394 O1397 1.970 . S
Co1394 N1411 1.989 . S
Co1394 O1419 1.967 . S
Co1394 O1426 1.920 . S
Co1395 O1398 1.966 . S
Co1395 N1404 2.022 1_554 S
Co1395 N1412 1.993 . S
Co1395 O1420 1.941 . S
C1396 O1397 1.258 . S
C1396 O1398 1.263 . S
O1397 Co1394 1.970 . S
O1397 C1396 1.258 . S
O1398 Co1395 1.966 . S
O1398 C1396 1.263 . S
C1399 O1400 1.235 . S
C1399 O1426 1.289 . S
O1400 C1399 1.235 . S
C1401 C1403 1.400 . S
C1401 N1404 1.351 . S
C1401 C1406 1.501 1_556 S
C1402 C1403 1.387 . S
C1402 N1405 1.341 . S
C1403 C1401 1.400 . S
C1403 C1402 1.387 . S
N1404 Co1395 2.022 1_556 S
N1404 C1401 1.351 . S
N1404 N1405 1.365 . S
N1405 C1402 1.341 . S
N1405 N1404 1.365 . S
N1405 H1425 0.862 . S
C1406 C1401 1.501 1_554 S
C1406 H1407 0.961 . S
C1406 H1408 0.961 . S
C1406 H1409 0.960 . S
H1407 C1406 0.961 . S
H1408 C1406 0.961 . S
H1409 C1406 0.960 . S
C1410 N1411 1.342 . S
C1410 C1414 1.401 1_554 S
C1410 C1415 1.499 . S
N1411 Co1394 1.989 . S
N1411 C1410 1.342 . S
N1411 N1412 1.388 . S
N1412 Co1395 1.993 . S
N1412 N1411 1.388 . S
N1412 C1413 1.346 1_554 S
C1413 N1412 1.346 1_556 S
C1413 C1414 1.396 . S
C1413 C1423 1.510 . S
C1414 C1410 1.401 1_556 S
C1414 C1413 1.396 . S
C1415 C1410 1.499 . S
C1415 H1416 0.959 . S
C1415 H1417 0.960 . S
C1415 H1418 0.961 . S
H1416 C1415 0.959 . S
H1417 C1415 0.960 . S
H1418 C1415 0.961 . S
O1419 Co1394 1.967 . S
O1419 C1427 1.258 . S
O1420 Co1395 1.941 . S
O1420 C1427 1.266 . S
H1421 C1423 0.959 . S
H1422 C1423 0.961 . S
C1423 C1413 1.510 . S
C1423 H1421 0.959 . S
C1423 H1422 0.961 . S
C1423 H1424 0.960 . S
H1424 C1423 0.960 . S
H1425 N1405 0.862 . S
O1426 Co1394 1.920 . S
O1426 C1399 1.289 . S
C1427 O1419 1.258 . S
C1427 O1420 1.266 . S
Co1428 O1431 1.970 . S
Co1428 N1445 1.989 . S
Co1428 O1453 1.967 . S
Co1428 O1460 1.920 . S
Co1429 O1432 1.966 . S
Co1429 N1438 2.022 . S
Co1429 N1446 1.993 . S
Co1429 O1454 1.941 . S
C1430 O1431 1.258 . S
C1430 O1432 1.263 . S
O1431 Co1428 1.970 . S
O1431 C1430 1.258 . S
O1432 Co1429 1.966 . S
O1432 C1430 1.263 . S
C1433 O1434 1.235 . S
C1433 O1460 1.289 . S
O1434 C1433 1.235 . S
C1435 C1437 1.400 . S
C1435 N1438 1.351 . S
C1435 C1440 1.501 . S
C1436 C1437 1.387 . S
C1436 N1439 1.341 . S
C1437 C1435 1.400 . S
C1437 C1436 1.387 . S
N1438 Co1429 2.022 . S
N1438 C1435 1.351 . S
N1438 N1439 1.365 . S
N1439 C1436 1.341 . S
N1439 N1438 1.365 . S
N1439 H1459 0.862 . S
C1440 C1435 1.501 . S
C1440 H1441 0.961 . S
C1440 H1442 0.961 . S
C1440 H1443 0.960 . S
H1441 C1440 0.961 . S
H1442 C1440 0.961 . S
H1443 C1440 0.960 . S
C1444 N1445 1.342 . S
C1444 C1448 1.401 . S
C1444 C1449 1.499 . S
N1445 Co1428 1.989 . S
N1445 C1444 1.342 . S
N1445 N1446 1.388 . S
N1446 Co1429 1.993 . S
N1446 N1445 1.388 . S
N1446 C1447 1.346 . S
C1447 N1446 1.346 . S
C1447 C1448 1.396 . S
C1447 C1457 1.510 . S
C1448 C1444 1.401 . S
C1448 C1447 1.396 . S
C1449 C1444 1.499 . S
C1449 H1450 0.959 . S
C1449 H1451 0.960 . S
C1449 H1452 0.961 . S
H1450 C1449 0.959 . S
H1451 C1449 0.960 . S
H1452 C1449 0.961 . S
O1453 Co1428 1.967 . S
O1453 C1461 1.258 . S
O1454 Co1429 1.941 . S
O1454 C1461 1.266 . S
H1455 C1457 0.959 . S
H1456 C1457 0.961 . S
C1457 C1447 1.510 . S
C1457 H1455 0.959 . S
C1457 H1456 0.961 . S
C1457 H1458 0.960 . S
H1458 C1457 0.960 . S
H1459 N1439 0.862 . S
O1460 Co1428 1.920 . S
O1460 C1433 1.289 . S
C1461 O1453 1.258 . S
C1461 O1454 1.266 . S
Co1462 O1465 1.970 . S
Co1462 N1479 1.989 . S
Co1462 O1487 1.967 . S
Co1462 O1494 1.920 . S
Co1463 O1466 1.966 . S
Co1463 N1472 2.022 . S
Co1463 N1480 1.993 . S
Co1463 O1488 1.941 . S
C1464 O1465 1.258 . S
C1464 O1466 1.263 . S
O1465 Co1462 1.970 . S
O1465 C1464 1.258 . S
O1466 Co1463 1.966 . S
O1466 C1464 1.263 . S
C1467 O1468 1.235 . S
C1467 O1494 1.289 . S
O1468 C1467 1.235 . S
C1469 C1471 1.400 . S
C1469 N1472 1.351 . S
C1469 C1474 1.501 . S
C1470 C1471 1.387 . S
C1470 N1473 1.341 . S
C1471 C1469 1.400 . S
C1471 C1470 1.387 . S
N1472 Co1463 2.022 . S
N1472 C1469 1.351 . S
N1472 N1473 1.365 . S
N1473 C1470 1.341 . S
N1473 N1472 1.365 . S
N1473 H1493 0.862 . S
C1474 C1469 1.501 . S
C1474 H1475 0.961 . S
C1474 H1476 0.961 . S
C1474 H1477 0.960 . S
H1475 C1474 0.961 . S
H1476 C1474 0.961 . S
H1477 C1474 0.960 . S
C1478 N1479 1.342 . S
C1478 C1482 1.401 . S
C1478 C1483 1.499 . S
N1479 Co1462 1.989 . S
N1479 C1478 1.342 . S
N1479 N1480 1.388 . S
N1480 Co1463 1.993 . S
N1480 N1479 1.388 . S
N1480 C1481 1.346 . S
C1481 N1480 1.346 . S
C1481 C1482 1.396 . S
C1481 C1491 1.510 . S
C1482 C1478 1.401 . S
C1482 C1481 1.396 . S
C1483 C1478 1.499 . S
C1483 H1484 0.959 . S
C1483 H1485 0.960 . S
C1483 H1486 0.961 . S
H1484 C1483 0.959 . S
H1485 C1483 0.960 . S
H1486 C1483 0.961 . S
O1487 Co1462 1.967 . S
O1487 C1495 1.258 . S
O1488 Co1463 1.941 . S
O1488 C1495 1.266 . S
H1489 C1491 0.959 . S
H1490 C1491 0.961 . S
C1491 C1481 1.510 . S
C1491 H1489 0.959 . S
C1491 H1490 0.961 . S
C1491 H1492 0.960 . S
H1492 C1491 0.960 . S
H1493 N1473 0.862 . S
O1494 Co1462 1.920 . S
O1494 C1467 1.289 . S
C1495 O1487 1.258 . S
C1495 O1488 1.266 . S
Co1496 O1499 1.970 . S
Co1496 N1513 1.989 . S
Co1496 O1521 1.967 . S
Co1496 O1528 1.920 . S
Co1497 O1500 1.966 . S
Co1497 N1506 2.022 . S
Co1497 N1514 1.993 . S
Co1497 O1522 1.941 . S
C1498 O1499 1.258 . S
C1498 O1500 1.263 . S
O1499 Co1496 1.970 . S
O1499 C1498 1.258 . S
O1500 Co1497 1.966 . S
O1500 C1498 1.263 . S
C1501 O1502 1.235 . S
C1501 O1528 1.289 . S
O1502 C1501 1.235 . S
C1503 C1505 1.400 . S
C1503 N1506 1.351 . S
C1503 C1508 1.501 . S
C1504 C1505 1.387 . S
C1504 N1507 1.341 . S
C1505 C1503 1.400 . S
C1505 C1504 1.387 . S
N1506 Co1497 2.022 . S
N1506 C1503 1.351 . S
N1506 N1507 1.365 . S
N1507 C1504 1.341 . S
N1507 N1506 1.365 . S
N1507 H1527 0.862 . S
C1508 C1503 1.501 . S
C1508 H1509 0.961 . S
C1508 H1510 0.961 . S
C1508 H1511 0.960 . S
H1509 C1508 0.961 . S
H1510 C1508 0.961 . S
H1511 C1508 0.960 . S
C1512 N1513 1.342 . S
C1512 C1516 1.401 . S
C1512 C1517 1.499 . S
N1513 Co1496 1.989 . S
N1513 C1512 1.342 . S
N1513 N1514 1.388 . S
N1514 Co1497 1.993 . S
N1514 N1513 1.388 . S
N1514 C1515 1.346 . S
C1515 N1514 1.346 . S
C1515 C1516 1.396 . S
C1515 C1525 1.510 . S
C1516 C1512 1.401 . S
C1516 C1515 1.396 . S
C1517 C1512 1.499 . S
C1517 H1518 0.959 . S
C1517 H1519 0.960 . S
C1517 H1520 0.961 . S
H1518 C1517 0.959 . S
H1519 C1517 0.960 . S
H1520 C1517 0.961 . S
O1521 Co1496 1.967 . S
O1521 C1529 1.258 . S
O1522 Co1497 1.941 . S
O1522 C1529 1.266 . S
H1523 C1525 0.959 . S
H1524 C1525 0.961 . S
C1525 C1515 1.510 . S
C1525 H1523 0.959 . S
C1525 H1524 0.961 . S
C1525 H1526 0.960 . S
H1526 C1525 0.960 . S
H1527 N1507 0.862 . S
O1528 Co1496 1.920 . S
O1528 C1501 1.289 . S
C1529 O1521 1.258 . S
C1529 O1522 1.266 . S
Co1530 O1533 1.970 . S
Co1530 N1547 1.989 . S
Co1530 O1555 1.967 . S
Co1530 O1562 1.920 . S
Co1531 O1534 1.966 . S
Co1531 N1540 2.022 . S
Co1531 N1548 1.993 . S
Co1531 O1556 1.941 . S
C1532 O1533 1.258 . S
C1532 O1534 1.263 . S
O1533 Co1530 1.970 . S
O1533 C1532 1.258 . S
O1534 Co1531 1.966 . S
O1534 C1532 1.263 . S
C1535 O1536 1.235 . S
C1535 O1562 1.289 . S
O1536 C1535 1.235 . S
C1537 C1539 1.400 . S
C1537 N1540 1.351 . S
C1537 C1542 1.501 . S
C1538 C1539 1.387 . S
C1538 N1541 1.341 . S
C1539 C1537 1.400 . S
C1539 C1538 1.387 . S
N1540 Co1531 2.022 . S
N1540 C1537 1.351 . S
N1540 N1541 1.365 . S
N1541 C1538 1.341 . S
N1541 N1540 1.365 . S
N1541 H1561 0.862 . S
C1542 C1537 1.501 . S
C1542 H1543 0.961 . S
C1542 H1544 0.961 . S
C1542 H1545 0.960 . S
H1543 C1542 0.961 . S
H1544 C1542 0.961 . S
H1545 C1542 0.960 . S
C1546 N1547 1.342 . S
C1546 C1550 1.401 . S
C1546 C1551 1.499 . S
N1547 Co1530 1.989 . S
N1547 C1546 1.342 . S
N1547 N1548 1.388 . S
N1548 Co1531 1.993 . S
N1548 N1547 1.388 . S
N1548 C1549 1.346 . S
C1549 N1548 1.346 . S
C1549 C1550 1.396 . S
C1549 C1559 1.510 . S
C1550 C1546 1.401 . S
C1550 C1549 1.396 . S
C1551 C1546 1.499 . S
C1551 H1552 0.959 . S
C1551 H1553 0.960 . S
C1551 H1554 0.961 . S
H1552 C1551 0.959 . S
H1553 C1551 0.960 . S
H1554 C1551 0.961 . S
O1555 Co1530 1.967 . S
O1555 C1563 1.258 . S
O1556 Co1531 1.941 . S
O1556 C1563 1.266 . S
H1557 C1559 0.959 . S
H1558 C1559 0.961 . S
C1559 C1549 1.510 . S
C1559 H1557 0.959 . S
C1559 H1558 0.961 . S
C1559 H1560 0.960 . S
H1560 C1559 0.960 . S
H1561 N1541 0.862 . S
O1562 Co1530 1.920 . S
O1562 C1535 1.289 . S
C1563 O1555 1.258 . S
C1563 O1556 1.266 . S
Co1564 O1567 1.970 . S
Co1564 N1581 1.989 . S
Co1564 O1589 1.967 . S
Co1564 O1596 1.920 . S
Co1565 O1568 1.966 . S
Co1565 N1574 2.022 . S
Co1565 N1582 1.993 . S
Co1565 O1590 1.941 . S
C1566 O1567 1.258 . S
C1566 O1568 1.263 . S
O1567 Co1564 1.970 . S
O1567 C1566 1.258 . S
O1568 Co1565 1.966 . S
O1568 C1566 1.263 . S
C1569 O1570 1.235 . S
C1569 O1596 1.289 . S
O1570 C1569 1.235 . S
C1571 C1573 1.400 . S
C1571 N1574 1.351 . S
C1571 C1576 1.501 . S
C1572 C1573 1.387 . S
C1572 N1575 1.341 . S
C1573 C1571 1.400 . S
C1573 C1572 1.387 . S
N1574 Co1565 2.022 . S
N1574 C1571 1.351 . S
N1574 N1575 1.365 . S
N1575 C1572 1.341 . S
N1575 N1574 1.365 . S
N1575 H1595 0.862 . S
C1576 C1571 1.501 . S
C1576 H1577 0.961 . S
C1576 H1578 0.961 . S
C1576 H1579 0.960 . S
H1577 C1576 0.961 . S
H1578 C1576 0.961 . S
H1579 C1576 0.960 . S
C1580 N1581 1.342 . S
C1580 C1584 1.401 . S
C1580 C1585 1.499 . S
N1581 Co1564 1.989 . S
N1581 C1580 1.342 . S
N1581 N1582 1.388 . S
N1582 Co1565 1.993 . S
N1582 N1581 1.388 . S
N1582 C1583 1.346 . S
C1583 N1582 1.346 . S
C1583 C1584 1.396 . S
C1583 C1593 1.510 . S
C1584 C1580 1.401 . S
C1584 C1583 1.396 . S
C1585 C1580 1.499 . S
C1585 H1586 0.959 . S
C1585 H1587 0.960 . S
C1585 H1588 0.961 . S
H1586 C1585 0.959 . S
H1587 C1585 0.960 . S
H1588 C1585 0.961 . S
O1589 Co1564 1.967 . S
O1589 C1597 1.258 . S
O1590 Co1565 1.941 . S
O1590 C1597 1.266 . S
H1591 C1593 0.959 . S
H1592 C1593 0.961 . S
C1593 C1583 1.510 . S
C1593 H1591 0.959 . S
C1593 H1592 0.961 . S
C1593 H1594 0.960 . S
H1594 C1593 0.960 . S
H1595 N1575 0.862 . S
O1596 Co1564 1.920 . S
O1596 C1569 1.289 . S
C1597 O1589 1.258 . S
C1597 O1590 1.266 . S
Co1598 O1601 1.970 . S
Co1598 N1615 1.989 . S
Co1598 O1623 1.967 . S
Co1598 O1630 1.920 . S
Co1599 O1602 1.966 . S
Co1599 N1608 2.022 . S
Co1599 N1616 1.993 . S
Co1599 O1624 1.941 . S
C1600 O1601 1.258 . S
C1600 O1602 1.263 . S
O1601 Co1598 1.970 . S
O1601 C1600 1.258 . S
O1602 Co1599 1.966 . S
O1602 C1600 1.263 . S
C1603 O1604 1.235 . S
C1603 O1630 1.289 . S
O1604 C1603 1.235 . S
C1605 C1607 1.400 . S
C1605 N1608 1.351 . S
C1605 C1610 1.501 . S
C1606 C1607 1.387 . S
C1606 N1609 1.341 . S
C1607 C1605 1.400 . S
C1607 C1606 1.387 . S
N1608 Co1599 2.022 . S
N1608 C1605 1.351 . S
N1608 N1609 1.365 . S
N1609 C1606 1.341 . S
N1609 N1608 1.365 . S
N1609 H1629 0.862 . S
C1610 C1605 1.501 . S
C1610 H1611 0.961 . S
C1610 H1612 0.961 . S
C1610 H1613 0.960 . S
H1611 C1610 0.961 . S
H1612 C1610 0.961 . S
H1613 C1610 0.960 . S
C1614 N1615 1.342 . S
C1614 C1618 1.401 . S
C1614 C1619 1.499 . S
N1615 Co1598 1.989 . S
N1615 C1614 1.342 . S
N1615 N1616 1.388 . S
N1616 Co1599 1.993 . S
N1616 N1615 1.388 . S
N1616 C1617 1.346 . S
C1617 N1616 1.346 . S
C1617 C1618 1.396 . S
C1617 C1627 1.510 . S
C1618 C1614 1.401 . S
C1618 C1617 1.396 . S
C1619 C1614 1.499 . S
C1619 H1620 0.959 . S
C1619 H1621 0.960 . S
C1619 H1622 0.961 . S
H1620 C1619 0.959 . S
H1621 C1619 0.960 . S
H1622 C1619 0.961 . S
O1623 Co1598 1.967 . S
O1623 C1631 1.258 . S
O1624 Co1599 1.941 . S
O1624 C1631 1.266 . S
H1625 C1627 0.959 . S
H1626 C1627 0.961 . S
C1627 C1617 1.510 . S
C1627 H1625 0.959 . S
C1627 H1626 0.961 . S
C1627 H1628 0.960 . S
H1628 C1627 0.960 . S
H1629 N1609 0.862 . S
O1630 Co1598 1.920 . S
O1630 C1603 1.289 . S
C1631 O1623 1.258 . S
C1631 O1624 1.266 . S
Co1632 O1635 1.970 . S
Co1632 N1649 1.989 . S
Co1632 O1657 1.967 . S
Co1632 O1664 1.920 . S
Co1633 O1636 1.966 . S
Co1633 N1642 2.022 . S
Co1633 N1650 1.993 . S
Co1633 O1658 1.941 . S
C1634 O1635 1.258 . S
C1634 O1636 1.263 . S
O1635 Co1632 1.970 . S
O1635 C1634 1.258 . S
O1636 Co1633 1.966 . S
O1636 C1634 1.263 . S
C1637 O1638 1.235 . S
C1637 O1664 1.289 . S
O1638 C1637 1.235 . S
C1639 C1641 1.400 . S
C1639 N1642 1.351 . S
C1639 C1644 1.501 . S
C1640 C1641 1.387 . S
C1640 N1643 1.341 . S
C1641 C1639 1.400 . S
C1641 C1640 1.387 . S
N1642 Co1633 2.022 . S
N1642 C1639 1.351 . S
N1642 N1643 1.365 . S
N1643 C1640 1.341 . S
N1643 N1642 1.365 . S
N1643 H1663 0.862 . S
C1644 C1639 1.501 . S
C1644 H1645 0.961 . S
C1644 H1646 0.961 . S
C1644 H1647 0.960 . S
H1645 C1644 0.961 . S
H1646 C1644 0.961 . S
H1647 C1644 0.960 . S
C1648 N1649 1.342 . S
C1648 C1652 1.401 . S
C1648 C1653 1.499 . S
N1649 Co1632 1.989 . S
N1649 C1648 1.342 . S
N1649 N1650 1.388 . S
N1650 Co1633 1.993 . S
N1650 N1649 1.388 . S
N1650 C1651 1.346 . S
C1651 N1650 1.346 . S
C1651 C1652 1.396 . S
C1651 C1661 1.510 . S
C1652 C1648 1.401 . S
C1652 C1651 1.396 . S
C1653 C1648 1.499 . S
C1653 H1654 0.959 . S
C1653 H1655 0.960 . S
C1653 H1656 0.961 . S
H1654 C1653 0.959 . S
H1655 C1653 0.960 . S
H1656 C1653 0.961 . S
O1657 Co1632 1.967 . S
O1657 C1665 1.258 . S
O1658 Co1633 1.941 . S
O1658 C1665 1.266 . S
H1659 C1661 0.959 . S
H1660 C1661 0.961 . S
C1661 C1651 1.510 . S
C1661 H1659 0.959 . S
C1661 H1660 0.961 . S
C1661 H1662 0.960 . S
H1662 C1661 0.960 . S
H1663 N1643 0.862 . S
O1664 Co1632 1.920 . S
O1664 C1637 1.289 . S
C1665 O1657 1.258 . S
C1665 O1658 1.266 . S
Co1666 O1669 1.970 . S
Co1666 N1683 1.989 . S
Co1666 O1691 1.967 . S
Co1666 O1698 1.920 . S
Co1667 O1670 1.966 . S
Co1667 N1676 2.022 . S
Co1667 N1684 1.993 . S
Co1667 O1692 1.941 . S
C1668 O1669 1.258 . S
C1668 O1670 1.263 . S
O1669 Co1666 1.970 . S
O1669 C1668 1.258 . S
O1670 Co1667 1.966 . S
O1670 C1668 1.263 . S
C1671 O1672 1.235 . S
C1671 O1698 1.289 . S
O1672 C1671 1.235 . S
C1673 C1675 1.400 . S
C1673 N1676 1.351 . S
C1673 C1678 1.501 . S
C1674 C1675 1.387 . S
C1674 N1677 1.341 . S
C1675 C1673 1.400 . S
C1675 C1674 1.387 . S
N1676 Co1667 2.022 . S
N1676 C1673 1.351 . S
N1676 N1677 1.365 . S
N1677 C1674 1.341 . S
N1677 N1676 1.365 . S
N1677 H1697 0.862 . S
C1678 C1673 1.501 . S
C1678 H1679 0.961 . S
C1678 H1680 0.961 . S
C1678 H1681 0.960 . S
H1679 C1678 0.961 . S
H1680 C1678 0.961 . S
H1681 C1678 0.960 . S
C1682 N1683 1.342 . S
C1682 C1686 1.401 . S
C1682 C1687 1.499 . S
N1683 Co1666 1.989 . S
N1683 C1682 1.342 . S
N1683 N1684 1.388 . S
N1684 Co1667 1.993 . S
N1684 N1683 1.388 . S
N1684 C1685 1.346 . S
C1685 N1684 1.346 . S
C1685 C1686 1.396 . S
C1685 C1695 1.510 . S
C1686 C1682 1.401 . S
C1686 C1685 1.396 . S
C1687 C1682 1.499 . S
C1687 H1688 0.959 . S
C1687 H1689 0.960 . S
C1687 H1690 0.961 1_556 S
H1688 C1687 0.959 . S
H1689 C1687 0.960 . S
H1690 C1687 0.961 1_554 S
O1691 Co1666 1.967 . S
O1691 C1699 1.258 . S
O1692 Co1667 1.941 . S
O1692 C1699 1.266 . S
H1693 C1695 0.959 . S
H1694 C1695 0.961 . S
C1695 C1685 1.510 . S
C1695 H1693 0.959 . S
C1695 H1694 0.961 . S
C1695 H1696 0.960 . S
H1696 C1695 0.960 . S
H1697 N1677 0.862 . S
O1698 Co1666 1.920 . S
O1698 C1671 1.289 . S
C1699 O1691 1.258 . S
C1699 O1692 1.266 . S
Co1700 O1703 1.970 . S
Co1700 N1717 1.989 . S
Co1700 O1725 1.967 . S
Co1700 O1732 1.920 . S
Co1701 O1704 1.966 . S
Co1701 N1710 2.022 . S
Co1701 N1718 1.993 . S
Co1701 O1726 1.941 . S
C1702 O1703 1.258 . S
C1702 O1704 1.263 . S
O1703 Co1700 1.970 . S
O1703 C1702 1.258 . S
O1704 Co1701 1.966 . S
O1704 C1702 1.263 . S
C1705 O1706 1.235 . S
C1705 O1732 1.289 . S
O1706 C1705 1.235 . S
C1707 C1709 1.400 . S
C1707 N1710 1.351 . S
C1707 C1712 1.501 . S
C1708 C1709 1.387 . S
C1708 N1711 1.341 . S
C1709 C1707 1.400 . S
C1709 C1708 1.387 . S
N1710 Co1701 2.022 . S
N1710 C1707 1.351 . S
N1710 N1711 1.365 . S
N1711 C1708 1.341 . S
N1711 N1710 1.365 . S
N1711 H1731 0.862 . S
C1712 C1707 1.501 . S
C1712 H1713 0.961 . S
C1712 H1714 0.961 . S
C1712 H1715 0.960 . S
H1713 C1712 0.961 . S
H1714 C1712 0.961 . S
H1715 C1712 0.960 . S
C1716 N1717 1.342 . S
C1716 C1720 1.401 . S
C1716 C1721 1.499 . S
N1717 Co1700 1.989 . S
N1717 C1716 1.342 . S
N1717 N1718 1.388 . S
N1718 Co1701 1.993 . S
N1718 N1717 1.388 . S
N1718 C1719 1.346 . S
C1719 N1718 1.346 . S
C1719 C1720 1.396 . S
C1719 C1729 1.510 . S
C1720 C1716 1.401 . S
C1720 C1719 1.396 . S
C1721 C1716 1.499 . S
C1721 H1722 0.959 . S
C1721 H1723 0.960 . S
C1721 H1724 0.961 . S
H1722 C1721 0.959 . S
H1723 C1721 0.960 . S
H1724 C1721 0.961 . S
O1725 Co1700 1.967 . S
O1725 C1733 1.258 . S
O1726 Co1701 1.941 . S
O1726 C1733 1.266 . S
H1727 C1729 0.959 . S
H1728 C1729 0.961 . S
C1729 C1719 1.510 . S
C1729 H1727 0.959 . S
C1729 H1728 0.961 . S
C1729 H1730 0.960 . S
H1730 C1729 0.960 . S
H1731 N1711 0.862 . S
O1732 Co1700 1.920 . S
O1732 C1705 1.289 . S
C1733 O1725 1.258 . S
C1733 O1726 1.266 . S
Co1734 O1737 1.970 . S
Co1734 N1751 1.989 . S
Co1734 O1759 1.967 . S
Co1734 O1766 1.920 . S
Co1735 O1738 1.966 . S
Co1735 N1744 2.022 . S
Co1735 N1752 1.993 . S
Co1735 O1760 1.941 . S
C1736 O1737 1.258 . S
C1736 O1738 1.263 . S
O1737 Co1734 1.970 . S
O1737 C1736 1.258 . S
O1738 Co1735 1.966 . S
O1738 C1736 1.263 . S
C1739 O1740 1.235 . S
C1739 O1766 1.289 . S
O1740 C1739 1.235 . S
C1741 C1743 1.400 . S
C1741 N1744 1.351 . S
C1741 C1746 1.501 . S
C1742 C1743 1.387 . S
C1742 N1745 1.341 . S
C1743 C1741 1.400 . S
C1743 C1742 1.387 . S
N1744 Co1735 2.022 . S
N1744 C1741 1.351 . S
N1744 N1745 1.365 . S
N1745 C1742 1.341 . S
N1745 N1744 1.365 . S
N1745 H1765 0.862 . S
C1746 C1741 1.501 . S
C1746 H1747 0.961 . S
C1746 H1748 0.961 . S
C1746 H1749 0.960 . S
H1747 C1746 0.961 . S
H1748 C1746 0.961 . S
H1749 C1746 0.960 . S
C1750 N1751 1.342 . S
C1750 C1754 1.401 . S
C1750 C1755 1.499 . S
N1751 Co1734 1.989 . S
N1751 C1750 1.342 . S
N1751 N1752 1.388 . S
N1752 Co1735 1.993 . S
N1752 N1751 1.388 . S
N1752 C1753 1.346 . S
C1753 N1752 1.346 . S
C1753 C1754 1.396 . S
C1753 C1763 1.510 . S
C1754 C1750 1.401 . S
C1754 C1753 1.396 . S
C1755 C1750 1.499 . S
C1755 H1756 0.959 . S
C1755 H1757 0.960 . S
C1755 H1758 0.961 . S
H1756 C1755 0.959 . S
H1757 C1755 0.960 . S
H1758 C1755 0.961 . S
O1759 Co1734 1.967 . S
O1759 C1767 1.258 . S
O1760 Co1735 1.941 . S
O1760 C1767 1.266 . S
H1761 C1763 0.959 . S
H1762 C1763 0.961 . S
C1763 C1753 1.510 . S
C1763 H1761 0.959 . S
C1763 H1762 0.961 . S
C1763 H1764 0.960 . S
H1764 C1763 0.960 . S
H1765 N1745 0.862 . S
O1766 Co1734 1.920 . S
O1766 C1739 1.289 . S
C1767 O1759 1.258 . S
C1767 O1760 1.266 . S
Co1768 O1771 1.970 . S
Co1768 N1785 1.989 . S
Co1768 O1793 1.967 . S
Co1768 O1800 1.920 . S
Co1769 O1772 1.966 . S
Co1769 N1778 2.022 . S
Co1769 N1786 1.993 . S
Co1769 O1794 1.941 . S
C1770 O1771 1.258 . S
C1770 O1772 1.263 . S
O1771 Co1768 1.970 . S
O1771 C1770 1.258 . S
O1772 Co1769 1.966 . S
O1772 C1770 1.263 . S
C1773 O1774 1.235 . S
C1773 O1800 1.289 . S
O1774 C1773 1.235 . S
C1775 C1777 1.400 . S
C1775 N1778 1.351 . S
C1775 C1780 1.501 . S
C1776 C1777 1.387 . S
C1776 N1779 1.341 . S
C1777 C1775 1.400 . S
C1777 C1776 1.387 . S
N1778 Co1769 2.022 . S
N1778 C1775 1.351 . S
N1778 N1779 1.365 . S
N1779 C1776 1.341 . S
N1779 N1778 1.365 . S
N1779 H1799 0.862 . S
C1780 C1775 1.501 . S
C1780 H1781 0.961 . S
C1780 H1782 0.961 . S
C1780 H1783 0.960 . S
H1781 C1780 0.961 . S
H1782 C1780 0.961 . S
H1783 C1780 0.960 . S
C1784 N1785 1.342 . S
C1784 C1788 1.401 . S
C1784 C1789 1.499 . S
N1785 Co1768 1.989 . S
N1785 C1784 1.342 . S
N1785 N1786 1.388 . S
N1786 Co1769 1.993 . S
N1786 N1785 1.388 . S
N1786 C1787 1.346 . S
C1787 N1786 1.346 . S
C1787 C1788 1.396 . S
C1787 C1797 1.510 . S
C1788 C1784 1.401 . S
C1788 C1787 1.396 . S
C1789 C1784 1.499 . S
C1789 H1790 0.959 . S
C1789 H1791 0.960 . S
C1789 H1792 0.961 . S
H1790 C1789 0.959 . S
H1791 C1789 0.960 . S
H1792 C1789 0.961 . S
O1793 Co1768 1.967 . S
O1793 C1801 1.258 . S
O1794 Co1769 1.941 . S
O1794 C1801 1.266 . S
H1795 C1797 0.959 . S
H1796 C1797 0.961 . S
C1797 C1787 1.510 . S
C1797 H1795 0.959 . S
C1797 H1796 0.961 . S
C1797 H1798 0.960 . S
H1798 C1797 0.960 . S
H1799 N1779 0.862 . S
O1800 Co1768 1.920 . S
O1800 C1773 1.289 . S
C1801 O1793 1.258 . S
C1801 O1794 1.266 . S
Co1802 O1805 1.970 . S
Co1802 N1819 1.989 . S
Co1802 O1827 1.967 . S
Co1802 O1834 1.920 . S
Co1803 O1806 1.966 . S
Co1803 N1812 2.022 . S
Co1803 N1820 1.993 . S
Co1803 O1828 1.941 . S
C1804 O1805 1.258 . S
C1804 O1806 1.263 . S
O1805 Co1802 1.970 . S
O1805 C1804 1.258 . S
O1806 Co1803 1.966 . S
O1806 C1804 1.263 . S
C1807 O1808 1.235 . S
C1807 O1834 1.289 . S
O1808 C1807 1.235 . S
C1809 C1811 1.400 . S
C1809 N1812 1.351 . S
C1809 C1814 1.501 . S
C1810 C1811 1.387 . S
C1810 N1813 1.341 . S
C1811 C1809 1.400 . S
C1811 C1810 1.387 . S
N1812 Co1803 2.022 . S
N1812 C1809 1.351 . S
N1812 N1813 1.365 . S
N1813 C1810 1.341 . S
N1813 N1812 1.365 . S
N1813 H1833 0.862 . S
C1814 C1809 1.501 . S
C1814 H1815 0.961 . S
C1814 H1816 0.961 . S
C1814 H1817 0.960 . S
H1815 C1814 0.961 . S
H1816 C1814 0.961 . S
H1817 C1814 0.960 . S
C1818 N1819 1.342 . S
C1818 C1822 1.401 . S
C1818 C1823 1.499 . S
N1819 Co1802 1.989 . S
N1819 C1818 1.342 . S
N1819 N1820 1.388 . S
N1820 Co1803 1.993 . S
N1820 N1819 1.388 . S
N1820 C1821 1.346 . S
C1821 N1820 1.346 . S
C1821 C1822 1.396 . S
C1821 C1831 1.510 . S
C1822 C1818 1.401 . S
C1822 C1821 1.396 . S
C1823 C1818 1.499 . S
C1823 H1824 0.959 . S
C1823 H1825 0.960 . S
C1823 H1826 0.961 . S
H1824 C1823 0.959 . S
H1825 C1823 0.960 . S
H1826 C1823 0.961 . S
O1827 Co1802 1.967 . S
O1827 C1835 1.258 . S
O1828 Co1803 1.941 . S
O1828 C1835 1.266 . S
H1829 C1831 0.959 . S
H1830 C1831 0.961 . S
C1831 C1821 1.510 . S
C1831 H1829 0.959 . S
C1831 H1830 0.961 . S
C1831 H1832 0.960 . S
H1832 C1831 0.960 . S
H1833 N1813 0.862 . S
O1834 Co1802 1.920 . S
O1834 C1807 1.289 . S
C1835 O1827 1.258 . S
C1835 O1828 1.266 . S
Co1836 O1839 1.970 . S
Co1836 N1853 1.989 . S
Co1836 O1861 1.967 . S
Co1836 O1868 1.920 . S
Co1837 O1840 1.966 . S
Co1837 N1846 2.022 . S
Co1837 N1854 1.993 . S
Co1837 O1862 1.941 . S
C1838 O1839 1.258 . S
C1838 O1840 1.263 . S
O1839 Co1836 1.970 . S
O1839 C1838 1.258 . S
O1840 Co1837 1.966 . S
O1840 C1838 1.263 . S
C1841 O1842 1.235 . S
C1841 O1868 1.289 . S
O1842 C1841 1.235 . S
C1843 C1845 1.400 . S
C1843 N1846 1.351 . S
C1843 C1848 1.501 . S
C1844 C1845 1.387 . S
C1844 N1847 1.341 . S
C1845 C1843 1.400 . S
C1845 C1844 1.387 . S
N1846 Co1837 2.022 . S
N1846 C1843 1.351 . S
N1846 N1847 1.365 . S
N1847 C1844 1.341 . S
N1847 N1846 1.365 . S
N1847 H1867 0.862 . S
C1848 C1843 1.501 . S
C1848 H1849 0.961 . S
C1848 H1850 0.961 . S
C1848 H1851 0.961 . S
H1849 C1848 0.961 . S
H1850 C1848 0.961 . S
H1851 C1848 0.961 . S
C1852 N1853 1.342 . S
C1852 C1856 1.401 . S
C1852 C1857 1.499 . S
N1853 Co1836 1.989 . S
N1853 C1852 1.342 . S
N1853 N1854 1.388 . S
N1854 Co1837 1.993 . S
N1854 N1853 1.388 . S
N1854 C1855 1.346 . S
C1855 N1854 1.346 . S
C1855 C1856 1.396 . S
C1855 C1865 1.510 . S
C1856 C1852 1.401 . S
C1856 C1855 1.396 . S
C1857 C1852 1.499 . S
C1857 H1858 0.959 . S
C1857 H1859 0.960 . S
C1857 H1860 0.961 . S
H1858 C1857 0.959 . S
H1859 C1857 0.960 . S
H1860 C1857 0.961 . S
O1861 Co1836 1.967 . S
O1861 C1869 1.258 . S
O1862 Co1837 1.941 . S
O1862 C1869 1.266 . S
H1863 C1865 0.959 . S
H1864 C1865 0.961 . S
C1865 C1855 1.510 . S
C1865 H1863 0.959 . S
C1865 H1864 0.961 . S
C1865 H1866 0.960 . S
H1866 C1865 0.960 . S
H1867 N1847 0.862 . S
O1868 Co1836 1.920 . S
O1868 C1841 1.289 . S
C1869 O1861 1.258 . S
C1869 O1862 1.266 . S
Co1870 O1873 1.970 . S
Co1870 N1887 1.989 . S
Co1870 O1895 1.967 . S
Co1870 O1902 1.920 . S
Co1871 O1874 1.966 . S
Co1871 N1880 2.022 . S
Co1871 N1888 1.993 . S
Co1871 O1896 1.941 . S
C1872 O1873 1.258 . S
C1872 O1874 1.263 . S
O1873 Co1870 1.970 . S
O1873 C1872 1.258 . S
O1874 Co1871 1.966 . S
O1874 C1872 1.263 . S
C1875 O1876 1.235 . S
C1875 O1902 1.289 . S
O1876 C1875 1.235 . S
C1877 C1879 1.400 . S
C1877 N1880 1.351 . S
C1877 C1882 1.501 . S
C1878 C1879 1.387 . S
C1878 N1881 1.341 . S
C1879 C1877 1.400 . S
C1879 C1878 1.387 . S
N1880 Co1871 2.022 . S
N1880 C1877 1.351 . S
N1880 N1881 1.365 . S
N1881 C1878 1.341 . S
N1881 N1880 1.365 . S
N1881 H1901 0.862 . S
C1882 C1877 1.501 . S
C1882 H1883 0.961 . S
C1882 H1884 0.961 . S
C1882 H1885 0.960 . S
H1883 C1882 0.961 . S
H1884 C1882 0.961 . S
H1885 C1882 0.960 . S
C1886 N1887 1.342 . S
C1886 C1890 1.401 . S
C1886 C1891 1.499 . S
N1887 Co1870 1.989 . S
N1887 C1886 1.342 . S
N1887 N1888 1.388 . S
N1888 Co1871 1.993 . S
N1888 N1887 1.388 . S
N1888 C1889 1.346 . S
C1889 N1888 1.346 . S
C1889 C1890 1.396 . S
C1889 C1899 1.510 . S
C1890 C1886 1.401 . S
C1890 C1889 1.396 . S
C1891 C1886 1.499 . S
C1891 H1892 0.959 . S
C1891 H1893 0.960 . S
C1891 H1894 0.961 . S
H1892 C1891 0.959 . S
H1893 C1891 0.960 . S
H1894 C1891 0.961 . S
O1895 Co1870 1.967 . S
O1895 C1903 1.258 . S
O1896 Co1871 1.941 . S
O1896 C1903 1.266 . S
H1897 C1899 0.959 . S
H1898 C1899 0.961 . S
C1899 C1889 1.510 . S
C1899 H1897 0.959 . S
C1899 H1898 0.961 . S
C1899 H1900 0.960 . S
H1900 C1899 0.960 . S
H1901 N1881 0.862 . S
O1902 Co1870 1.920 . S
O1902 C1875 1.289 . S
C1903 O1895 1.258 . S
C1903 O1896 1.266 . S
Co1904 O1907 1.970 . S
Co1904 N1921 1.989 1_565 S
Co1904 O1929 1.967 . S
Co1904 O1936 1.920 . S
Co1905 O1908 1.966 . S
Co1905 N1914 2.022 . S
Co1905 N1922 1.993 . S
Co1905 O1930 1.941 . S
C1906 O1907 1.258 . S
C1906 O1908 1.263 1_565 S
O1907 Co1904 1.970 . S
O1907 C1906 1.258 . S
O1908 Co1905 1.966 . S
O1908 C1906 1.263 1_545 S
C1909 O1910 1.235 . S
C1909 O1936 1.289 . S
O1910 C1909 1.235 . S
C1911 C1913 1.400 . S
C1911 N1914 1.351 . S
C1911 C1916 1.501 . S
C1912 C1913 1.387 . S
C1912 N1915 1.341 . S
C1913 C1911 1.400 . S
C1913 C1912 1.387 . S
N1914 Co1905 2.022 . S
N1914 C1911 1.351 . S
N1914 N1915 1.365 . S
N1915 C1912 1.341 . S
N1915 N1914 1.365 . S
N1915 H1935 0.862 . S
C1916 C1911 1.501 . S
C1916 H1917 0.961 . S
C1916 H1918 0.961 . S
C1916 H1919 0.960 . S
H1917 C1916 0.961 . S
H1918 C1916 0.961 . S
H1919 C1916 0.960 . S
C1920 N1921 1.342 . S
C1920 C1924 1.401 . S
C1920 C1925 1.499 . S
N1921 Co1904 1.989 1_545 S
N1921 C1920 1.342 . S
N1921 N1922 1.388 . S
N1922 Co1905 1.993 . S
N1922 N1921 1.388 . S
N1922 C1923 1.346 . S
C1923 N1922 1.346 . S
C1923 C1924 1.396 . S
C1923 C1933 1.510 . S
C1924 C1920 1.401 . S
C1924 C1923 1.396 . S
C1925 C1920 1.499 . S
C1925 H1926 0.959 . S
C1925 H1927 0.960 . S
C1925 H1928 0.961 . S
H1926 C1925 0.959 . S
H1927 C1925 0.960 . S
H1928 C1925 0.961 . S
O1929 Co1904 1.967 . S
O1929 C1937 1.258 1_565 S
O1930 Co1905 1.941 . S
O1930 C1937 1.266 . S
H1931 C1933 0.959 . S
H1932 C1933 0.961 . S
C1933 C1923 1.510 . S
C1933 H1931 0.959 . S
C1933 H1932 0.961 . S
C1933 H1934 0.960 . S
H1934 C1933 0.960 . S
H1935 N1915 0.862 . S
O1936 Co1904 1.920 . S
O1936 C1909 1.289 . S
C1937 O1929 1.258 1_545 S
C1937 O1930 1.266 . S
Co1938 O1941 1.970 . S
Co1938 N1955 1.989 . S
Co1938 O1963 1.967 . S
Co1938 O1970 1.920 . S
Co1939 O1942 1.966 . S
Co1939 N1948 2.022 . S
Co1939 N1956 1.993 . S
Co1939 O1964 1.941 . S
C1940 O1941 1.258 . S
C1940 O1942 1.263 . S
O1941 Co1938 1.970 . S
O1941 C1940 1.258 . S
O1942 Co1939 1.966 . S
O1942 C1940 1.263 . S
C1943 O1944 1.235 . S
C1943 O1970 1.289 . S
O1944 C1943 1.235 . S
C1945 C1947 1.400 . S
C1945 N1948 1.351 . S
C1945 C1950 1.501 . S
C1946 C1947 1.387 . S
C1946 N1949 1.341 . S
C1947 C1945 1.400 . S
C1947 C1946 1.387 . S
N1948 Co1939 2.022 . S
N1948 C1945 1.351 . S
N1948 N1949 1.365 . S
N1949 C1946 1.341 . S
N1949 N1948 1.365 . S
N1949 H1969 0.862 . S
C1950 C1945 1.501 . S
C1950 H1951 0.961 . S
C1950 H1952 0.961 . S
C1950 H1953 0.960 . S
H1951 C1950 0.961 . S
H1952 C1950 0.961 . S
H1953 C1950 0.960 . S
C1954 N1955 1.342 . S
C1954 C1958 1.401 . S
C1954 C1959 1.499 . S
N1955 Co1938 1.989 . S
N1955 C1954 1.342 . S
N1955 N1956 1.388 . S
N1956 Co1939 1.993 . S
N1956 N1955 1.388 . S
N1956 C1957 1.346 . S
C1957 N1956 1.346 . S
C1957 C1958 1.396 . S
C1957 C1967 1.510 . S
C1958 C1954 1.401 . S
C1958 C1957 1.396 . S
C1959 C1954 1.499 . S
C1959 H1960 0.959 . S
C1959 H1961 0.960 . S
C1959 H1962 0.961 . S
H1960 C1959 0.959 . S
H1961 C1959 0.960 . S
H1962 C1959 0.961 . S
O1963 Co1938 1.967 . S
O1963 C1971 1.258 . S
O1964 Co1939 1.941 . S
O1964 C1971 1.266 . S
H1965 C1967 0.959 . S
H1966 C1967 0.961 . S
C1967 C1957 1.510 . S
C1967 H1965 0.959 . S
C1967 H1966 0.961 . S
C1967 H1968 0.960 . S
H1968 C1967 0.960 . S
H1969 N1949 0.862 . S
O1970 Co1938 1.920 . S
O1970 C1943 1.289 . S
C1971 O1963 1.258 . S
C1971 O1964 1.266 . S
Co1972 O1975 1.970 . S
Co1972 N1989 1.989 . S
Co1972 O1997 1.967 . S
Co1972 O2004 1.920 . S
Co1973 O1976 1.966 . S
Co1973 N1982 2.022 . S
Co1973 N1990 1.993 . S
Co1973 O1998 1.941 . S
C1974 O1975 1.258 . S
C1974 O1976 1.263 . S
O1975 Co1972 1.970 . S
O1975 C1974 1.258 . S
O1976 Co1973 1.966 . S
O1976 C1974 1.263 . S
C1977 O1978 1.235 . S
C1977 O2004 1.289 . S
O1978 C1977 1.235 . S
C1979 C1981 1.400 . S
C1979 N1982 1.351 . S
C1979 C1984 1.501 . S
C1980 C1981 1.387 . S
C1980 N1983 1.341 . S
C1981 C1979 1.400 . S
C1981 C1980 1.387 . S
N1982 Co1973 2.022 . S
N1982 C1979 1.351 . S
N1982 N1983 1.365 . S
N1983 C1980 1.341 . S
N1983 N1982 1.365 . S
N1983 H2003 0.862 . S
C1984 C1979 1.501 . S
C1984 H1985 0.961 . S
C1984 H1986 0.961 . S
C1984 H1987 0.960 . S
H1985 C1984 0.961 . S
H1986 C1984 0.961 . S
H1987 C1984 0.960 . S
C1988 N1989 1.342 . S
C1988 C1992 1.401 . S
C1988 C1993 1.499 . S
N1989 Co1972 1.989 . S
N1989 C1988 1.342 . S
N1989 N1990 1.388 . S
N1990 Co1973 1.993 . S
N1990 N1989 1.388 . S
N1990 C1991 1.346 . S
C1991 N1990 1.346 . S
C1991 C1992 1.396 . S
C1991 C2001 1.510 . S
C1992 C1988 1.401 . S
C1992 C1991 1.396 . S
C1993 C1988 1.499 . S
C1993 H1994 0.959 . S
C1993 H1995 0.960 . S
C1993 H1996 0.961 . S
H1994 C1993 0.959 . S
H1995 C1993 0.960 . S
H1996 C1993 0.961 . S
O1997 Co1972 1.967 . S
O1997 C2005 1.258 . S
O1998 Co1973 1.941 . S
O1998 C2005 1.266 . S
H1999 C2001 0.959 . S
H2000 C2001 0.961 . S
C2001 C1991 1.510 . S
C2001 H1999 0.959 . S
C2001 H2000 0.961 . S
C2001 H2002 0.960 . S
H2002 C2001 0.960 . S
H2003 N1983 0.862 . S
O2004 Co1972 1.920 . S
O2004 C1977 1.289 . S
C2005 O1997 1.258 . S
C2005 O1998 1.266 . S
Co2006 O2009 1.970 . S
Co2006 N2023 1.989 . S
Co2006 O2031 1.967 . S
Co2006 O2038 1.920 . S
Co2007 O2010 1.966 . S
Co2007 N2016 2.022 . S
Co2007 N2024 1.993 . S
Co2007 O2032 1.941 . S
C2008 O2009 1.258 . S
C2008 O2010 1.263 . S
O2009 Co2006 1.970 . S
O2009 C2008 1.258 . S
O2010 Co2007 1.966 . S
O2010 C2008 1.263 . S
C2011 O2012 1.235 . S
C2011 O2038 1.289 . S
O2012 C2011 1.235 . S
C2013 C2015 1.400 . S
C2013 N2016 1.351 . S
C2013 C2018 1.501 . S
C2014 C2015 1.387 . S
C2014 N2017 1.341 . S
C2015 C2013 1.400 . S
C2015 C2014 1.387 . S
N2016 Co2007 2.022 . S
N2016 C2013 1.351 . S
N2016 N2017 1.365 . S
N2017 C2014 1.341 . S
N2017 N2016 1.365 . S
N2017 H2037 0.862 . S
C2018 C2013 1.501 . S
C2018 H2019 0.961 . S
C2018 H2020 0.961 . S
C2018 H2021 0.960 . S
H2019 C2018 0.961 . S
H2020 C2018 0.961 . S
H2021 C2018 0.960 . S
C2022 N2023 1.342 . S
C2022 C2026 1.401 . S
C2022 C2027 1.499 . S
N2023 Co2006 1.989 . S
N2023 C2022 1.342 . S
N2023 N2024 1.388 . S
N2024 Co2007 1.993 . S
N2024 N2023 1.388 . S
N2024 C2025 1.346 . S
C2025 N2024 1.346 . S
C2025 C2026 1.396 . S
C2025 C2035 1.510 . S
C2026 C2022 1.401 . S
C2026 C2025 1.396 . S
C2027 C2022 1.499 . S
C2027 H2028 0.959 . S
C2027 H2029 0.960 . S
C2027 H2030 0.961 . S
H2028 C2027 0.959 . S
H2029 C2027 0.960 . S
H2030 C2027 0.961 . S
O2031 Co2006 1.967 . S
O2031 C2039 1.258 . S
O2032 Co2007 1.941 . S
O2032 C2039 1.266 . S
H2033 C2035 0.959 . S
H2034 C2035 0.961 . S
C2035 C2025 1.510 . S
C2035 H2033 0.959 . S
C2035 H2034 0.961 . S
C2035 H2036 0.960 . S
H2036 C2035 0.960 . S
H2037 N2017 0.862 . S
O2038 Co2006 1.920 . S
O2038 C2011 1.289 . S
C2039 O2031 1.258 . S
C2039 O2032 1.266 . S
Co2040 O2043 1.970 . S
Co2040 N2057 1.989 . S
Co2040 O2065 1.967 . S
Co2040 O2072 1.920 . S
Co2041 O2044 1.966 . S
Co2041 N2050 2.022 1_545 S
Co2041 N2058 1.993 . S
Co2041 O2066 1.941 . S
C2042 O2043 1.258 . S
C2042 O2044 1.263 . S
O2043 Co2040 1.970 . S
O2043 C2042 1.258 . S
O2044 Co2041 1.966 . S
O2044 C2042 1.263 . S
C2045 O2046 1.235 . S
C2045 O2072 1.289 . S
O2046 C2045 1.235 . S
C2047 C2049 1.400 . S
C2047 N2050 1.351 . S
C2047 C2052 1.501 1_565 S
C2048 C2049 1.387 . S
C2048 N2051 1.341 . S
C2049 C2047 1.400 . S
C2049 C2048 1.387 . S
N2050 Co2041 2.022 1_565 S
N2050 C2047 1.351 . S
N2050 N2051 1.365 . S
N2051 C2048 1.341 . S
N2051 N2050 1.365 . S
N2051 H2071 0.862 . S
C2052 C2047 1.501 1_545 S
C2052 H2053 0.961 . S
C2052 H2054 0.961 . S
C2052 H2055 0.960 . S
H2053 C2052 0.961 . S
H2054 C2052 0.961 . S
H2055 C2052 0.960 . S
C2056 N2057 1.342 . S
C2056 C2060 1.401 1_545 S
C2056 C2061 1.499 . S
N2057 Co2040 1.989 . S
N2057 C2056 1.342 . S
N2057 N2058 1.388 . S
N2058 Co2041 1.993 . S
N2058 N2057 1.388 . S
N2058 C2059 1.346 1_545 S
C2059 N2058 1.346 1_565 S
C2059 C2060 1.396 . S
C2059 C2069 1.510 . S
C2060 C2056 1.401 1_565 S
C2060 C2059 1.396 . S
C2061 C2056 1.499 . S
C2061 H2062 0.959 . S
C2061 H2063 0.960 . S
C2061 H2064 0.961 . S
H2062 C2061 0.959 . S
H2063 C2061 0.960 . S
H2064 C2061 0.961 . S
O2065 Co2040 1.967 . S
O2065 C2073 1.258 . S
O2066 Co2041 1.941 . S
O2066 C2073 1.266 . S
H2067 C2069 0.959 . S
H2068 C2069 0.961 . S
C2069 C2059 1.510 . S
C2069 H2067 0.959 . S
C2069 H2068 0.961 . S
C2069 H2070 0.960 . S
H2070 C2069 0.960 . S
H2071 N2051 0.862 . S
O2072 Co2040 1.920 . S
O2072 C2045 1.289 . S
C2073 O2065 1.258 . S
C2073 O2066 1.266 . S
Co2074 O2077 1.970 . S
Co2074 N2091 1.989 . S
Co2074 O2099 1.967 . S
Co2074 O2106 1.920 . S
Co2075 O2078 1.966 . S
Co2075 N2084 2.022 . S
Co2075 N2092 1.993 . S
Co2075 O2100 1.941 . S
C2076 O2077 1.258 . S
C2076 O2078 1.263 . S
O2077 Co2074 1.970 . S
O2077 C2076 1.258 . S
O2078 Co2075 1.966 . S
O2078 C2076 1.263 . S
C2079 O2080 1.235 . S
C2079 O2106 1.289 . S
O2080 C2079 1.235 . S
C2081 C2083 1.400 . S
C2081 N2084 1.351 . S
C2081 C2086 1.501 . S
C2082 C2083 1.387 . S
C2082 N2085 1.341 . S
C2083 C2081 1.400 . S
C2083 C2082 1.387 . S
N2084 Co2075 2.022 . S
N2084 C2081 1.351 . S
N2084 N2085 1.365 . S
N2085 C2082 1.341 . S
N2085 N2084 1.365 . S
N2085 H2105 0.862 . S
C2086 C2081 1.501 . S
C2086 H2087 0.961 . S
C2086 H2088 0.961 . S
C2086 H2089 0.960 . S
H2087 C2086 0.961 . S
H2088 C2086 0.961 . S
H2089 C2086 0.960 . S
C2090 N2091 1.342 . S
C2090 C2094 1.401 . S
C2090 C2095 1.499 . S
N2091 Co2074 1.989 . S
N2091 C2090 1.342 . S
N2091 N2092 1.388 . S
N2092 Co2075 1.993 . S
N2092 N2091 1.388 . S
N2092 C2093 1.346 . S
C2093 N2092 1.346 . S
C2093 C2094 1.396 . S
C2093 C2103 1.510 . S
C2094 C2090 1.401 . S
C2094 C2093 1.396 . S
C2095 C2090 1.499 . S
C2095 H2096 0.959 . S
C2095 H2097 0.960 . S
C2095 H2098 0.961 . S
H2096 C2095 0.959 . S
H2097 C2095 0.960 . S
H2098 C2095 0.961 . S
O2099 Co2074 1.967 . S
O2099 C2107 1.258 . S
O2100 Co2075 1.941 . S
O2100 C2107 1.266 . S
H2101 C2103 0.959 . S
H2102 C2103 0.961 . S
C2103 C2093 1.510 . S
C2103 H2101 0.959 . S
C2103 H2102 0.961 . S
C2103 H2104 0.960 . S
H2104 C2103 0.960 . S
H2105 N2085 0.862 . S
O2106 Co2074 1.920 . S
O2106 C2079 1.289 . S
C2107 O2099 1.258 . S
C2107 O2100 1.266 . S
Co2108 O2111 1.970 . S
Co2108 N2125 1.989 . S
Co2108 O2133 1.967 . S
Co2108 O2140 1.920 . S
Co2109 O2112 1.966 . S
Co2109 N2118 2.022 . S
Co2109 N2126 1.993 . S
Co2109 O2134 1.941 . S
C2110 O2111 1.258 . S
C2110 O2112 1.263 . S
O2111 Co2108 1.970 . S
O2111 C2110 1.258 . S
O2112 Co2109 1.966 . S
O2112 C2110 1.263 . S
C2113 O2114 1.235 . S
C2113 O2140 1.289 . S
O2114 C2113 1.235 . S
C2115 C2117 1.400 . S
C2115 N2118 1.351 . S
C2115 C2120 1.501 . S
C2116 C2117 1.387 . S
C2116 N2119 1.341 . S
C2117 C2115 1.400 . S
C2117 C2116 1.387 . S
N2118 Co2109 2.022 . S
N2118 C2115 1.351 . S
N2118 N2119 1.365 . S
N2119 C2116 1.341 . S
N2119 N2118 1.365 . S
N2119 H2139 0.862 . S
C2120 C2115 1.501 . S
C2120 H2121 0.961 . S
C2120 H2122 0.961 . S
C2120 H2123 0.960 . S
H2121 C2120 0.961 . S
H2122 C2120 0.961 . S
H2123 C2120 0.960 . S
C2124 N2125 1.342 . S
C2124 C2128 1.401 . S
C2124 C2129 1.499 . S
N2125 Co2108 1.989 . S
N2125 C2124 1.342 . S
N2125 N2126 1.388 . S
N2126 Co2109 1.993 . S
N2126 N2125 1.388 . S
N2126 C2127 1.346 . S
C2127 N2126 1.346 . S
C2127 C2128 1.396 . S
C2127 C2137 1.510 . S
C2128 C2124 1.401 . S
C2128 C2127 1.396 . S
C2129 C2124 1.499 . S
C2129 H2130 0.959 . S
C2129 H2131 0.960 . S
C2129 H2132 0.961 . S
H2130 C2129 0.959 . S
H2131 C2129 0.960 . S
H2132 C2129 0.961 . S
O2133 Co2108 1.967 . S
O2133 C2141 1.258 . S
O2134 Co2109 1.941 . S
O2134 C2141 1.266 . S
H2135 C2137 0.959 . S
H2136 C2137 0.961 . S
C2137 C2127 1.510 . S
C2137 H2135 0.959 . S
C2137 H2136 0.961 . S
C2137 H2138 0.960 . S
H2138 C2137 0.960 . S
H2139 N2119 0.862 . S
O2140 Co2108 1.920 . S
O2140 C2113 1.289 . S
C2141 O2133 1.258 . S
C2141 O2134 1.266 . S
Co2142 O2145 1.970 . S
Co2142 N2159 1.989 . S
Co2142 O2167 1.967 . S
Co2142 O2174 1.920 . S
Co2143 O2146 1.966 . S
Co2143 N2152 2.022 . S
Co2143 N2160 1.993 . S
Co2143 O2168 1.941 . S
C2144 O2145 1.258 . S
C2144 O2146 1.263 . S
O2145 Co2142 1.970 . S
O2145 C2144 1.258 . S
O2146 Co2143 1.966 . S
O2146 C2144 1.263 . S
C2147 O2148 1.235 . S
C2147 O2174 1.289 . S
O2148 C2147 1.235 . S
C2149 C2151 1.400 . S
C2149 N2152 1.351 . S
C2149 C2154 1.501 . S
C2150 C2151 1.387 . S
C2150 N2153 1.341 . S
C2151 C2149 1.400 . S
C2151 C2150 1.387 . S
N2152 Co2143 2.022 . S
N2152 C2149 1.351 . S
N2152 N2153 1.365 . S
N2153 C2150 1.341 . S
N2153 N2152 1.365 . S
N2153 H2173 0.862 . S
C2154 C2149 1.501 . S
C2154 H2155 0.961 . S
C2154 H2156 0.961 . S
C2154 H2157 0.960 . S
H2155 C2154 0.961 . S
H2156 C2154 0.961 . S
H2157 C2154 0.960 . S
C2158 N2159 1.342 . S
C2158 C2162 1.401 . S
C2158 C2163 1.499 . S
N2159 Co2142 1.989 . S
N2159 C2158 1.342 . S
N2159 N2160 1.388 . S
N2160 Co2143 1.993 . S
N2160 N2159 1.388 . S
N2160 C2161 1.346 . S
C2161 N2160 1.346 . S
C2161 C2162 1.396 . S
C2161 C2171 1.510 . S
C2162 C2158 1.401 . S
C2162 C2161 1.396 . S
C2163 C2158 1.499 . S
C2163 H2164 0.959 . S
C2163 H2165 0.960 . S
C2163 H2166 0.961 . S
H2164 C2163 0.959 . S
H2165 C2163 0.960 . S
H2166 C2163 0.961 . S
O2167 Co2142 1.967 . S
O2167 C2175 1.258 . S
O2168 Co2143 1.941 . S
O2168 C2175 1.266 . S
H2169 C2171 0.959 . S
H2170 C2171 0.961 . S
C2171 C2161 1.510 . S
C2171 H2169 0.959 . S
C2171 H2170 0.961 . S
C2171 H2172 0.960 . S
H2172 C2171 0.960 . S
H2173 N2153 0.862 . S
O2174 Co2142 1.920 . S
O2174 C2147 1.289 . S
C2175 O2167 1.258 . S
C2175 O2168 1.266 . S
Co2176 O2179 1.970 . S
Co2176 N2193 1.989 . S
Co2176 O2201 1.967 . S
Co2176 O2208 1.920 . S
Co2177 O2180 1.966 . S
Co2177 N2186 2.022 . S
Co2177 N2194 1.993 . S
Co2177 O2202 1.941 . S
C2178 O2179 1.258 . S
C2178 O2180 1.263 . S
O2179 Co2176 1.970 . S
O2179 C2178 1.258 . S
O2180 Co2177 1.966 . S
O2180 C2178 1.263 . S
C2181 O2182 1.235 . S
C2181 O2208 1.289 . S
O2182 C2181 1.235 . S
C2183 C2185 1.400 . S
C2183 N2186 1.351 . S
C2183 C2188 1.501 . S
C2184 C2185 1.387 . S
C2184 N2187 1.341 . S
C2185 C2183 1.400 . S
C2185 C2184 1.387 . S
N2186 Co2177 2.022 . S
N2186 C2183 1.351 . S
N2186 N2187 1.365 . S
N2187 C2184 1.341 . S
N2187 N2186 1.365 . S
N2187 H2207 0.862 . S
C2188 C2183 1.501 . S
C2188 H2189 0.961 . S
C2188 H2190 0.961 . S
C2188 H2191 0.960 . S
H2189 C2188 0.961 . S
H2190 C2188 0.961 . S
H2191 C2188 0.960 . S
C2192 N2193 1.342 . S
C2192 C2196 1.401 . S
C2192 C2197 1.499 . S
N2193 Co2176 1.989 . S
N2193 C2192 1.342 . S
N2193 N2194 1.388 . S
N2194 Co2177 1.993 . S
N2194 N2193 1.388 . S
N2194 C2195 1.346 . S
C2195 N2194 1.346 . S
C2195 C2196 1.396 . S
C2195 C2205 1.510 . S
C2196 C2192 1.401 . S
C2196 C2195 1.396 . S
C2197 C2192 1.499 . S
C2197 H2198 0.959 . S
C2197 H2199 0.960 . S
C2197 H2200 0.961 . S
H2198 C2197 0.959 . S
H2199 C2197 0.960 . S
H2200 C2197 0.961 . S
O2201 Co2176 1.967 . S
O2201 C2209 1.258 . S
O2202 Co2177 1.941 . S
O2202 C2209 1.266 . S
H2203 C2205 0.959 . S
H2204 C2205 0.961 . S
C2205 C2195 1.510 . S
C2205 H2203 0.959 . S
C2205 H2204 0.961 . S
C2205 H2206 0.960 . S
H2206 C2205 0.960 . S
H2207 N2187 0.862 . S
O2208 Co2176 1.920 . S
O2208 C2181 1.289 . S
C2209 O2201 1.258 . S
C2209 O2202 1.266 . S
Co2210 O2213 1.970 . S
Co2210 N2227 1.989 . S
Co2210 O2235 1.967 . S
Co2210 O2242 1.920 . S
Co2211 O2214 1.966 . S
Co2211 N2220 2.022 1_554 S
Co2211 N2228 1.993 . S
Co2211 O2236 1.941 . S
C2212 O2213 1.258 . S
C2212 O2214 1.263 . S
O2213 Co2210 1.970 . S
O2213 C2212 1.258 . S
O2214 Co2211 1.966 . S
O2214 C2212 1.263 . S
C2215 O2216 1.235 . S
C2215 O2242 1.289 . S
O2216 C2215 1.235 . S
C2217 C2219 1.400 . S
C2217 N2220 1.351 . S
C2217 C2222 1.501 1_556 S
C2218 C2219 1.387 . S
C2218 N2221 1.341 . S
C2219 C2217 1.400 . S
C2219 C2218 1.387 . S
N2220 Co2211 2.022 1_556 S
N2220 C2217 1.351 . S
N2220 N2221 1.365 . S
N2221 C2218 1.341 . S
N2221 N2220 1.365 . S
N2221 H2241 0.862 . S
C2222 C2217 1.501 1_554 S
C2222 H2223 0.961 . S
C2222 H2224 0.961 . S
C2222 H2225 0.962 . S
H2223 C2222 0.961 . S
H2224 C2222 0.961 . S
H2225 C2222 0.962 . S
C2226 N2227 1.342 . S
C2226 C2230 1.401 1_554 S
C2226 C2231 1.499 . S
N2227 Co2210 1.989 . S
N2227 C2226 1.342 . S
N2227 N2228 1.388 . S
N2228 Co2211 1.993 . S
N2228 N2227 1.388 . S
N2228 C2229 1.346 1_554 S
C2229 N2228 1.346 1_556 S
C2229 C2230 1.396 . S
C2229 C2239 1.510 . S
C2230 C2226 1.401 1_556 S
C2230 C2229 1.396 . S
C2231 C2226 1.499 . S
C2231 H2232 0.959 . S
C2231 H2233 0.960 . S
C2231 H2234 0.961 . S
H2232 C2231 0.959 . S
H2233 C2231 0.960 . S
H2234 C2231 0.961 . S
O2235 Co2210 1.967 . S
O2235 C2243 1.258 . S
O2236 Co2211 1.941 . S
O2236 C2243 1.266 . S
H2237 C2239 0.959 . S
H2238 C2239 0.961 . S
C2239 C2229 1.510 . S
C2239 H2237 0.959 . S
C2239 H2238 0.961 . S
C2239 H2240 0.960 . S
H2240 C2239 0.960 . S
H2241 N2221 0.862 . S
O2242 Co2210 1.920 . S
O2242 C2215 1.289 . S
C2243 O2235 1.258 . S
C2243 O2236 1.266 . S
Co2244 O2247 1.970 . S
Co2244 N2261 1.989 . S
Co2244 O2269 1.967 . S
Co2244 O2276 1.920 . S
Co2245 O2248 1.966 . S
Co2245 N2254 2.022 . S
Co2245 N2262 1.993 . S
Co2245 O2270 1.941 . S
C2246 O2247 1.258 . S
C2246 O2248 1.263 . S
O2247 Co2244 1.970 . S
O2247 C2246 1.258 . S
O2248 Co2245 1.966 . S
O2248 C2246 1.263 . S
C2249 O2250 1.235 . S
C2249 O2276 1.289 . S
O2250 C2249 1.235 . S
C2251 C2253 1.400 . S
C2251 N2254 1.351 . S
C2251 C2256 1.501 . S
C2252 C2253 1.387 . S
C2252 N2255 1.341 . S
C2253 C2251 1.400 . S
C2253 C2252 1.387 . S
N2254 Co2245 2.022 . S
N2254 C2251 1.351 . S
N2254 N2255 1.365 . S
N2255 C2252 1.341 . S
N2255 N2254 1.365 . S
N2255 H2275 0.862 . S
C2256 C2251 1.501 . S
C2256 H2257 0.961 . S
C2256 H2258 0.961 . S
C2256 H2259 0.960 . S
H2257 C2256 0.961 . S
H2258 C2256 0.961 . S
H2259 C2256 0.960 . S
C2260 N2261 1.342 . S
C2260 C2264 1.401 . S
C2260 C2265 1.499 . S
N2261 Co2244 1.989 . S
N2261 C2260 1.342 . S
N2261 N2262 1.388 . S
N2262 Co2245 1.993 . S
N2262 N2261 1.388 . S
N2262 C2263 1.346 . S
C2263 N2262 1.346 . S
C2263 C2264 1.396 . S
C2263 C2273 1.510 . S
C2264 C2260 1.401 . S
C2264 C2263 1.396 . S
C2265 C2260 1.499 . S
C2265 H2266 0.959 . S
C2265 H2267 0.960 . S
C2265 H2268 0.961 1_655 S
H2266 C2265 0.959 . S
H2267 C2265 0.960 . S
H2268 C2265 0.961 1_455 S
O2269 Co2244 1.967 . S
O2269 C2277 1.258 . S
O2270 Co2245 1.941 . S
O2270 C2277 1.266 . S
H2271 C2273 0.959 . S
H2272 C2273 0.961 . S
C2273 C2263 1.510 . S
C2273 H2271 0.959 . S
C2273 H2272 0.961 . S
C2273 H2274 0.960 . S
H2274 C2273 0.960 . S
H2275 N2255 0.862 . S
O2276 Co2244 1.920 . S
O2276 C2249 1.289 . S
C2277 O2269 1.258 . S
C2277 O2270 1.266 . S
Co2278 O2281 1.970 . S
Co2278 N2295 1.989 . S
Co2278 O2303 1.967 . S
Co2278 O2310 1.920 . S
Co2279 O2282 1.966 . S
Co2279 N2288 2.022 . S
Co2279 N2296 1.993 . S
Co2279 O2304 1.941 . S
C2280 O2281 1.258 . S
C2280 O2282 1.263 . S
O2281 Co2278 1.970 . S
O2281 C2280 1.258 . S
O2282 Co2279 1.966 . S
O2282 C2280 1.263 . S
C2283 O2284 1.235 . S
C2283 O2310 1.289 . S
O2284 C2283 1.235 . S
C2285 C2287 1.400 . S
C2285 N2288 1.351 . S
C2285 C2290 1.501 . S
C2286 C2287 1.387 . S
C2286 N2289 1.341 . S
C2287 C2285 1.400 . S
C2287 C2286 1.387 . S
N2288 Co2279 2.022 . S
N2288 C2285 1.351 . S
N2288 N2289 1.365 . S
N2289 C2286 1.341 . S
N2289 N2288 1.365 . S
N2289 H2309 0.862 . S
C2290 C2285 1.501 . S
C2290 H2291 0.961 . S
C2290 H2292 0.961 . S
C2290 H2293 0.960 . S
H2291 C2290 0.961 . S
H2292 C2290 0.961 . S
H2293 C2290 0.960 . S
C2294 N2295 1.342 . S
C2294 C2298 1.401 . S
C2294 C2299 1.499 . S
N2295 Co2278 1.989 . S
N2295 C2294 1.342 . S
N2295 N2296 1.388 . S
N2296 Co2279 1.993 . S
N2296 N2295 1.388 . S
N2296 C2297 1.346 . S
C2297 N2296 1.346 . S
C2297 C2298 1.396 . S
C2297 C2307 1.510 . S
C2298 C2294 1.401 . S
C2298 C2297 1.396 . S
C2299 C2294 1.499 . S
C2299 H2300 0.959 . S
C2299 H2301 0.960 . S
C2299 H2302 0.961 . S
H2300 C2299 0.959 . S
H2301 C2299 0.960 . S
H2302 C2299 0.961 . S
O2303 Co2278 1.967 . S
O2303 C2311 1.258 . S
O2304 Co2279 1.941 . S
O2304 C2311 1.266 . S
H2305 C2307 0.959 . S
H2306 C2307 0.961 . S
C2307 C2297 1.510 . S
C2307 H2305 0.959 . S
C2307 H2306 0.961 . S
C2307 H2308 0.960 . S
H2308 C2307 0.960 . S
H2309 N2289 0.862 . S
O2310 Co2278 1.920 . S
O2310 C2283 1.289 . S
C2311 O2303 1.258 . S
C2311 O2304 1.266 . S
Co2312 O2315 1.970 . S
Co2312 N2329 1.989 . S
Co2312 O2337 1.967 . S
Co2312 O2344 1.920 . S
Co2313 O2316 1.966 . S
Co2313 N2322 2.022 . S
Co2313 N2330 1.993 . S
Co2313 O2338 1.941 . S
C2314 O2315 1.258 . S
C2314 O2316 1.263 . S
O2315 Co2312 1.970 . S
O2315 C2314 1.258 . S
O2316 Co2313 1.966 . S
O2316 C2314 1.263 . S
C2317 O2318 1.235 . S
C2317 O2344 1.289 . S
O2318 C2317 1.235 . S
C2319 C2321 1.400 . S
C2319 N2322 1.351 . S
C2319 C2324 1.501 . S
C2320 C2321 1.387 . S
C2320 N2323 1.341 . S
C2321 C2319 1.400 . S
C2321 C2320 1.387 . S
N2322 Co2313 2.022 . S
N2322 C2319 1.351 . S
N2322 N2323 1.365 . S
N2323 C2320 1.341 . S
N2323 N2322 1.365 . S
N2323 H2343 0.862 . S
C2324 C2319 1.501 . S
C2324 H2325 0.961 . S
C2324 H2326 0.961 . S
C2324 H2327 0.960 . S
H2325 C2324 0.961 . S
H2326 C2324 0.961 . S
H2327 C2324 0.960 . S
C2328 N2329 1.342 . S
C2328 C2332 1.401 . S
C2328 C2333 1.499 . S
N2329 Co2312 1.989 . S
N2329 C2328 1.342 . S
N2329 N2330 1.388 . S
N2330 Co2313 1.993 . S
N2330 N2329 1.388 . S
N2330 C2331 1.346 . S
C2331 N2330 1.346 . S
C2331 C2332 1.396 . S
C2331 C2341 1.510 . S
C2332 C2328 1.401 . S
C2332 C2331 1.396 . S
C2333 C2328 1.499 . S
C2333 H2334 0.959 . S
C2333 H2335 0.960 . S
C2333 H2336 0.961 . S
H2334 C2333 0.959 . S
H2335 C2333 0.960 . S
H2336 C2333 0.961 . S
O2337 Co2312 1.967 . S
O2337 C2345 1.258 . S
O2338 Co2313 1.941 . S
O2338 C2345 1.266 . S
H2339 C2341 0.959 . S
H2340 C2341 0.961 . S
C2341 C2331 1.510 . S
C2341 H2339 0.959 . S
C2341 H2340 0.961 . S
C2341 H2342 0.960 . S
H2342 C2341 0.960 . S
H2343 N2323 0.862 . S
O2344 Co2312 1.920 . S
O2344 C2317 1.289 . S
C2345 O2337 1.258 . S
C2345 O2338 1.266 . S
Co2346 O2349 1.970 . S
Co2346 N2363 1.989 . S
Co2346 O2371 1.967 . S
Co2346 O2378 1.920 . S
Co2347 O2350 1.966 . S
Co2347 N2356 2.022 . S
Co2347 N2364 1.993 . S
Co2347 O2372 1.941 . S
C2348 O2349 1.258 . S
C2348 O2350 1.263 . S
O2349 Co2346 1.970 . S
O2349 C2348 1.258 . S
O2350 Co2347 1.966 . S
O2350 C2348 1.263 . S
C2351 O2352 1.235 . S
C2351 O2378 1.289 . S
O2352 C2351 1.235 . S
C2353 C2355 1.400 . S
C2353 N2356 1.351 . S
C2353 C2358 1.501 . S
C2354 C2355 1.387 . S
C2354 N2357 1.341 . S
C2355 C2353 1.400 . S
C2355 C2354 1.387 . S
N2356 Co2347 2.022 . S
N2356 C2353 1.351 . S
N2356 N2357 1.365 . S
N2357 C2354 1.341 . S
N2357 N2356 1.365 . S
N2357 H2377 0.862 . S
C2358 C2353 1.501 . S
C2358 H2359 0.961 . S
C2358 H2360 0.961 . S
C2358 H2361 0.961 . S
H2359 C2358 0.961 . S
H2360 C2358 0.961 . S
H2361 C2358 0.961 . S
C2362 N2363 1.342 . S
C2362 C2366 1.401 . S
C2362 C2367 1.499 . S
N2363 Co2346 1.989 . S
N2363 C2362 1.342 . S
N2363 N2364 1.388 . S
N2364 Co2347 1.993 . S
N2364 N2363 1.388 . S
N2364 C2365 1.346 . S
C2365 N2364 1.346 . S
C2365 C2366 1.396 . S
C2365 C2375 1.510 . S
C2366 C2362 1.401 . S
C2366 C2365 1.396 . S
C2367 C2362 1.499 . S
C2367 H2368 0.959 . S
C2367 H2369 0.960 . S
C2367 H2370 0.961 . S
H2368 C2367 0.959 . S
H2369 C2367 0.960 . S
H2370 C2367 0.961 . S
O2371 Co2346 1.967 . S
O2371 C2379 1.258 . S
O2372 Co2347 1.941 . S
O2372 C2379 1.266 . S
H2373 C2375 0.959 . S
H2374 C2375 0.961 . S
C2375 C2365 1.510 . S
C2375 H2373 0.959 . S
C2375 H2374 0.961 . S
C2375 H2376 0.960 . S
H2376 C2375 0.960 . S
H2377 N2357 0.862 . S
O2378 Co2346 1.920 . S
O2378 C2351 1.289 . S
C2379 O2371 1.258 . S
C2379 O2372 1.266 . S
Co2380 O2383 1.970 . S
Co2380 N2397 1.989 . S
Co2380 O2405 1.967 . S
Co2380 O2412 1.920 . S
Co2381 O2384 1.966 . S
Co2381 N2390 2.022 . S
Co2381 N2398 1.993 . S
Co2381 O2406 1.941 . S
C2382 O2383 1.258 . S
C2382 O2384 1.263 . S
O2383 Co2380 1.970 . S
O2383 C2382 1.258 . S
O2384 Co2381 1.966 . S
O2384 C2382 1.263 . S
C2385 O2386 1.235 . S
C2385 O2412 1.289 . S
O2386 C2385 1.235 . S
C2387 C2389 1.400 . S
C2387 N2390 1.351 . S
C2387 C2392 1.501 . S
C2388 C2389 1.387 . S
C2388 N2391 1.341 . S
C2389 C2387 1.400 . S
C2389 C2388 1.387 . S
N2390 Co2381 2.022 . S
N2390 C2387 1.351 . S
N2390 N2391 1.365 . S
N2391 C2388 1.341 . S
N2391 N2390 1.365 . S
N2391 H2411 0.862 . S
C2392 C2387 1.501 . S
C2392 H2393 0.961 . S
C2392 H2394 0.961 . S
C2392 H2395 0.960 . S
H2393 C2392 0.961 . S
H2394 C2392 0.961 . S
H2395 C2392 0.960 . S
C2396 N2397 1.342 . S
C2396 C2400 1.401 . S
C2396 C2401 1.499 . S
N2397 Co2380 1.989 . S
N2397 C2396 1.342 . S
N2397 N2398 1.388 . S
N2398 Co2381 1.993 . S
N2398 N2397 1.388 . S
N2398 C2399 1.346 . S
C2399 N2398 1.346 . S
C2399 C2400 1.396 . S
C2399 C2409 1.510 . S
C2400 C2396 1.401 . S
C2400 C2399 1.396 . S
C2401 C2396 1.499 . S
C2401 H2402 0.959 . S
C2401 H2403 0.960 . S
C2401 H2404 0.961 1_655 S
H2402 C2401 0.959 . S
H2403 C2401 0.960 . S
H2404 C2401 0.961 1_455 S
O2405 Co2380 1.967 . S
O2405 C2413 1.258 . S
O2406 Co2381 1.941 . S
O2406 C2413 1.266 . S
H2407 C2409 0.959 . S
H2408 C2409 0.961 . S
C2409 C2399 1.510 . S
C2409 H2407 0.959 . S
C2409 H2408 0.961 . S
C2409 H2410 0.960 . S
H2410 C2409 0.960 . S
H2411 N2391 0.862 . S
O2412 Co2380 1.920 . S
O2412 C2385 1.289 . S
C2413 O2405 1.258 . S
C2413 O2406 1.266 . S
Co2414 O2417 1.970 . S
Co2414 N2431 1.989 . S
Co2414 O2439 1.967 . S
Co2414 O2446 1.920 . S
Co2415 O2418 1.966 . S
Co2415 N2424 2.022 . S
Co2415 N2432 1.993 . S
Co2415 O2440 1.941 . S
C2416 O2417 1.258 . S
C2416 O2418 1.263 . S
O2417 Co2414 1.970 . S
O2417 C2416 1.258 . S
O2418 Co2415 1.966 . S
O2418 C2416 1.263 . S
C2419 O2420 1.235 . S
C2419 O2446 1.289 . S
O2420 C2419 1.235 . S
C2421 C2423 1.400 . S
C2421 N2424 1.351 . S
C2421 C2426 1.501 . S
C2422 C2423 1.387 . S
C2422 N2425 1.341 . S
C2423 C2421 1.400 . S
C2423 C2422 1.387 . S
N2424 Co2415 2.022 . S
N2424 C2421 1.351 . S
N2424 N2425 1.365 . S
N2425 C2422 1.341 . S
N2425 N2424 1.365 . S
N2425 H2445 0.862 . S
C2426 C2421 1.501 . S
C2426 H2427 0.961 . S
C2426 H2428 0.961 . S
C2426 H2429 0.960 . S
H2427 C2426 0.961 . S
H2428 C2426 0.961 . S
H2429 C2426 0.960 . S
C2430 N2431 1.342 . S
C2430 C2434 1.401 . S
C2430 C2435 1.499 . S
N2431 Co2414 1.989 . S
N2431 C2430 1.342 . S
N2431 N2432 1.388 . S
N2432 Co2415 1.993 . S
N2432 N2431 1.388 . S
N2432 C2433 1.346 . S
C2433 N2432 1.346 . S
C2433 C2434 1.396 . S
C2433 C2443 1.510 . S
C2434 C2430 1.401 . S
C2434 C2433 1.396 . S
C2435 C2430 1.499 . S
C2435 H2436 0.959 . S
C2435 H2437 0.960 . S
C2435 H2438 0.961 . S
H2436 C2435 0.959 . S
H2437 C2435 0.960 . S
H2438 C2435 0.961 . S
O2439 Co2414 1.967 . S
O2439 C2447 1.258 . S
O2440 Co2415 1.941 . S
O2440 C2447 1.266 . S
H2441 C2443 0.959 . S
H2442 C2443 0.961 . S
C2443 C2433 1.510 . S
C2443 H2441 0.959 . S
C2443 H2442 0.961 . S
C2443 H2444 0.960 . S
H2444 C2443 0.960 . S
H2445 N2425 0.862 . S
O2446 Co2414 1.920 . S
O2446 C2419 1.289 . S
C2447 O2439 1.258 . S
C2447 O2440 1.266 . S
Co2448 O2451 1.970 . S
Co2448 N2465 1.989 . S
Co2448 O2473 1.967 . S
Co2448 O2480 1.920 . S
Co2449 O2452 1.966 . S
Co2449 N2458 2.022 . S
Co2449 N2466 1.993 . S
Co2449 O2474 1.941 . S
C2450 O2451 1.258 . S
C2450 O2452 1.263 . S
O2451 Co2448 1.970 . S
O2451 C2450 1.258 . S
O2452 Co2449 1.966 . S
O2452 C2450 1.263 . S
C2453 O2454 1.235 . S
C2453 O2480 1.289 . S
O2454 C2453 1.235 . S
C2455 C2457 1.400 . S
C2455 N2458 1.351 . S
C2455 C2460 1.501 . S
C2456 C2457 1.387 . S
C2456 N2459 1.341 . S
C2457 C2455 1.400 . S
C2457 C2456 1.387 . S
N2458 Co2449 2.022 . S
N2458 C2455 1.351 . S
N2458 N2459 1.365 . S
N2459 C2456 1.341 . S
N2459 N2458 1.365 . S
N2459 H2479 0.862 . S
C2460 C2455 1.501 . S
C2460 H2461 0.961 . S
C2460 H2462 0.961 . S
C2460 H2463 0.960 . S
H2461 C2460 0.961 . S
H2462 C2460 0.961 . S
H2463 C2460 0.960 . S
C2464 N2465 1.342 . S
C2464 C2468 1.401 . S
C2464 C2469 1.499 . S
N2465 Co2448 1.989 . S
N2465 C2464 1.342 . S
N2465 N2466 1.388 . S
N2466 Co2449 1.993 . S
N2466 N2465 1.388 . S
N2466 C2467 1.346 . S
C2467 N2466 1.346 . S
C2467 C2468 1.396 . S
C2467 C2477 1.510 . S
C2468 C2464 1.401 . S
C2468 C2467 1.396 . S
C2469 C2464 1.499 . S
C2469 H2470 0.959 . S
C2469 H2471 0.960 . S
C2469 H2472 0.961 . S
H2470 C2469 0.959 . S
H2471 C2469 0.960 . S
H2472 C2469 0.961 . S
O2473 Co2448 1.967 . S
O2473 C2481 1.258 . S
O2474 Co2449 1.941 . S
O2474 C2481 1.266 . S
H2475 C2477 0.959 . S
H2476 C2477 0.961 . S
C2477 C2467 1.510 . S
C2477 H2475 0.959 . S
C2477 H2476 0.961 . S
C2477 H2478 0.960 . S
H2478 C2477 0.960 . S
H2479 N2459 0.862 . S
O2480 Co2448 1.920 . S
O2480 C2453 1.289 . S
C2481 O2473 1.258 . S
C2481 O2474 1.266 . S
Co2482 O2485 1.970 . S
Co2482 N2499 1.989 . S
Co2482 O2507 1.967 . S
Co2482 O2514 1.920 . S
Co2483 O2486 1.966 . S
Co2483 N2492 2.022 . S
Co2483 N2500 1.993 . S
Co2483 O2508 1.941 . S
C2484 O2485 1.258 . S
C2484 O2486 1.263 . S
O2485 Co2482 1.970 . S
O2485 C2484 1.258 . S
O2486 Co2483 1.966 . S
O2486 C2484 1.263 . S
C2487 O2488 1.235 . S
C2487 O2514 1.289 . S
O2488 C2487 1.235 . S
C2489 C2491 1.400 . S
C2489 N2492 1.351 . S
C2489 C2494 1.501 . S
C2490 C2491 1.387 . S
C2490 N2493 1.341 . S
C2491 C2489 1.400 . S
C2491 C2490 1.387 . S
N2492 Co2483 2.022 . S
N2492 C2489 1.351 . S
N2492 N2493 1.365 . S
N2493 C2490 1.341 . S
N2493 N2492 1.365 . S
N2493 H2513 0.862 . S
C2494 C2489 1.501 . S
C2494 H2495 0.961 . S
C2494 H2496 0.961 . S
C2494 H2497 0.960 . S
H2495 C2494 0.961 . S
H2496 C2494 0.961 . S
H2497 C2494 0.960 . S
C2498 N2499 1.342 . S
C2498 C2502 1.401 . S
C2498 C2503 1.499 . S
N2499 Co2482 1.989 . S
N2499 C2498 1.342 . S
N2499 N2500 1.388 . S
N2500 Co2483 1.993 . S
N2500 N2499 1.388 . S
N2500 C2501 1.346 . S
C2501 N2500 1.346 . S
C2501 C2502 1.396 . S
C2501 C2511 1.510 . S
C2502 C2498 1.401 . S
C2502 C2501 1.396 . S
C2503 C2498 1.499 . S
C2503 H2504 0.959 . S
C2503 H2505 0.960 . S
C2503 H2506 0.961 . S
H2504 C2503 0.959 . S
H2505 C2503 0.960 . S
H2506 C2503 0.961 . S
O2507 Co2482 1.967 . S
O2507 C2515 1.258 . S
O2508 Co2483 1.941 . S
O2508 C2515 1.266 . S
H2509 C2511 0.959 . S
H2510 C2511 0.961 . S
C2511 C2501 1.510 . S
C2511 H2509 0.959 . S
C2511 H2510 0.961 . S
C2511 H2512 0.960 . S
H2512 C2511 0.960 . S
H2513 N2493 0.862 . S
O2514 Co2482 1.920 . S
O2514 C2487 1.289 . S
C2515 O2507 1.258 . S
C2515 O2508 1.266 . S
Co2516 O2519 1.970 . S
Co2516 N2533 1.989 . S
Co2516 O2541 1.967 . S
Co2516 O2548 1.920 . S
Co2517 O2520 1.966 . S
Co2517 N2526 2.022 . S
Co2517 N2534 1.993 . S
Co2517 O2542 1.941 . S
C2518 O2519 1.258 . S
C2518 O2520 1.263 . S
O2519 Co2516 1.970 . S
O2519 C2518 1.258 . S
O2520 Co2517 1.966 . S
O2520 C2518 1.263 . S
C2521 O2522 1.235 . S
C2521 O2548 1.289 . S
O2522 C2521 1.235 . S
C2523 C2525 1.400 . S
C2523 N2526 1.351 . S
C2523 C2528 1.501 . S
C2524 C2525 1.387 . S
C2524 N2527 1.341 . S
C2525 C2523 1.400 . S
C2525 C2524 1.387 . S
N2526 Co2517 2.022 . S
N2526 C2523 1.351 . S
N2526 N2527 1.365 . S
N2527 C2524 1.341 . S
N2527 N2526 1.365 . S
N2527 H2547 0.862 . S
C2528 C2523 1.501 . S
C2528 H2529 0.961 . S
C2528 H2530 0.961 . S
C2528 H2531 0.960 . S
H2529 C2528 0.961 . S
H2530 C2528 0.961 . S
H2531 C2528 0.960 . S
C2532 N2533 1.342 . S
C2532 C2536 1.401 . S
C2532 C2537 1.499 . S
N2533 Co2516 1.989 . S
N2533 C2532 1.342 . S
N2533 N2534 1.388 . S
N2534 Co2517 1.993 . S
N2534 N2533 1.388 . S
N2534 C2535 1.346 . S
C2535 N2534 1.346 . S
C2535 C2536 1.396 . S
C2535 C2545 1.510 . S
C2536 C2532 1.401 . S
C2536 C2535 1.396 . S
C2537 C2532 1.499 . S
C2537 H2538 0.959 . S
C2537 H2539 0.960 . S
C2537 H2540 0.961 . S
H2538 C2537 0.959 . S
H2539 C2537 0.960 . S
H2540 C2537 0.961 . S
O2541 Co2516 1.967 . S
O2541 C2549 1.258 . S
O2542 Co2517 1.941 . S
O2542 C2549 1.266 . S
H2543 C2545 0.959 . S
H2544 C2545 0.961 . S
C2545 C2535 1.510 . S
C2545 H2543 0.959 . S
C2545 H2544 0.961 . S
C2545 H2546 0.960 . S
H2546 C2545 0.960 . S
H2547 N2527 0.862 . S
O2548 Co2516 1.920 . S
O2548 C2521 1.289 . S
C2549 O2541 1.258 . S
C2549 O2542 1.266 . S
Co2550 O2553 1.970 . S
Co2550 N2567 1.989 . S
Co2550 O2575 1.967 . S
Co2550 O2582 1.920 . S
Co2551 O2554 1.966 . S
Co2551 N2560 2.022 . S
Co2551 N2568 1.993 . S
Co2551 O2576 1.941 . S
C2552 O2553 1.258 . S
C2552 O2554 1.263 . S
O2553 Co2550 1.970 . S
O2553 C2552 1.258 . S
O2554 Co2551 1.966 . S
O2554 C2552 1.263 . S
C2555 O2556 1.235 . S
C2555 O2582 1.289 . S
O2556 C2555 1.235 . S
C2557 C2559 1.400 . S
C2557 N2560 1.351 . S
C2557 C2562 1.501 . S
C2558 C2559 1.387 . S
C2558 N2561 1.341 . S
C2559 C2557 1.400 . S
C2559 C2558 1.387 . S
N2560 Co2551 2.022 . S
N2560 C2557 1.351 . S
N2560 N2561 1.365 . S
N2561 C2558 1.341 . S
N2561 N2560 1.365 . S
N2561 H2581 0.862 . S
C2562 C2557 1.501 . S
C2562 H2563 0.961 . S
C2562 H2564 0.961 . S
C2562 H2565 0.960 . S
H2563 C2562 0.961 . S
H2564 C2562 0.961 . S
H2565 C2562 0.960 . S
C2566 N2567 1.342 . S
C2566 C2570 1.401 . S
C2566 C2571 1.499 . S
N2567 Co2550 1.989 . S
N2567 C2566 1.342 . S
N2567 N2568 1.388 . S
N2568 Co2551 1.993 . S
N2568 N2567 1.388 . S
N2568 C2569 1.346 . S
C2569 N2568 1.346 . S
C2569 C2570 1.396 . S
C2569 C2579 1.510 . S
C2570 C2566 1.401 . S
C2570 C2569 1.396 . S
C2571 C2566 1.499 . S
C2571 H2572 0.959 . S
C2571 H2573 0.960 . S
C2571 H2574 0.961 1_556 S
H2572 C2571 0.959 . S
H2573 C2571 0.960 . S
H2574 C2571 0.961 1_554 S
O2575 Co2550 1.967 . S
O2575 C2583 1.258 . S
O2576 Co2551 1.941 . S
O2576 C2583 1.266 . S
H2577 C2579 0.959 . S
H2578 C2579 0.961 . S
C2579 C2569 1.510 . S
C2579 H2577 0.959 . S
C2579 H2578 0.961 . S
C2579 H2580 0.960 . S
H2580 C2579 0.960 . S
H2581 N2561 0.862 . S
O2582 Co2550 1.920 . S
O2582 C2555 1.289 . S
C2583 O2575 1.258 . S
C2583 O2576 1.266 . S
Co2584 O2587 1.970 . S
Co2584 N2601 1.989 . S
Co2584 O2609 1.967 . S
Co2584 O2616 1.920 . S
Co2585 O2588 1.966 . S
Co2585 N2594 2.022 . S
Co2585 N2602 1.993 . S
Co2585 O2610 1.941 . S
C2586 O2587 1.258 . S
C2586 O2588 1.263 . S
O2587 Co2584 1.970 . S
O2587 C2586 1.258 . S
O2588 Co2585 1.966 . S
O2588 C2586 1.263 . S
C2589 O2590 1.235 . S
C2589 O2616 1.289 . S
O2590 C2589 1.235 . S
C2591 C2593 1.400 . S
C2591 N2594 1.351 . S
C2591 C2596 1.501 . S
C2592 C2593 1.387 . S
C2592 N2595 1.341 . S
C2593 C2591 1.400 . S
C2593 C2592 1.387 . S
N2594 Co2585 2.022 . S
N2594 C2591 1.351 . S
N2594 N2595 1.365 . S
N2595 C2592 1.341 . S
N2595 N2594 1.365 . S
N2595 H2615 0.862 . S
C2596 C2591 1.501 . S
C2596 H2597 0.961 . S
C2596 H2598 0.961 . S
C2596 H2599 0.961 . S
H2597 C2596 0.961 . S
H2598 C2596 0.961 . S
H2599 C2596 0.961 . S
C2600 N2601 1.342 . S
C2600 C2604 1.401 . S
C2600 C2605 1.499 . S
N2601 Co2584 1.989 . S
N2601 C2600 1.342 . S
N2601 N2602 1.388 . S
N2602 Co2585 1.993 . S
N2602 N2601 1.388 . S
N2602 C2603 1.346 . S
C2603 N2602 1.346 . S
C2603 C2604 1.396 . S
C2603 C2613 1.510 . S
C2604 C2600 1.401 . S
C2604 C2603 1.396 . S
C2605 C2600 1.499 . S
C2605 H2606 0.959 . S
C2605 H2607 0.960 . S
C2605 H2608 0.961 . S
H2606 C2605 0.959 . S
H2607 C2605 0.960 . S
H2608 C2605 0.961 . S
O2609 Co2584 1.967 . S
O2609 C2617 1.258 . S
O2610 Co2585 1.941 . S
O2610 C2617 1.266 . S
H2611 C2613 0.959 . S
H2612 C2613 0.961 . S
C2613 C2603 1.510 . S
C2613 H2611 0.959 . S
C2613 H2612 0.961 . S
C2613 H2614 0.960 . S
H2614 C2613 0.960 . S
H2615 N2595 0.862 . S
O2616 Co2584 1.920 . S
O2616 C2589 1.289 . S
C2617 O2609 1.258 . S
C2617 O2610 1.266 . S
Co2618 O2621 1.970 . S
Co2618 N2635 1.989 . S
Co2618 O2643 1.967 . S
Co2618 O2650 1.920 . S
Co2619 O2622 1.966 . S
Co2619 N2628 2.022 . S
Co2619 N2636 1.993 . S
Co2619 O2644 1.941 . S
C2620 O2621 1.258 . S
C2620 O2622 1.263 . S
O2621 Co2618 1.970 . S
O2621 C2620 1.258 . S
O2622 Co2619 1.966 . S
O2622 C2620 1.263 . S
C2623 O2624 1.235 . S
C2623 O2650 1.289 . S
O2624 C2623 1.235 . S
C2625 C2627 1.400 . S
C2625 N2628 1.351 . S
C2625 C2630 1.501 . S
C2626 C2627 1.387 . S
C2626 N2629 1.341 . S
C2627 C2625 1.400 . S
C2627 C2626 1.387 . S
N2628 Co2619 2.022 . S
N2628 C2625 1.351 . S
N2628 N2629 1.365 . S
N2629 C2626 1.341 . S
N2629 N2628 1.365 . S
N2629 H2649 0.862 . S
C2630 C2625 1.501 . S
C2630 H2631 0.961 . S
C2630 H2632 0.961 . S
C2630 H2633 0.960 . S
H2631 C2630 0.961 . S
H2632 C2630 0.961 . S
H2633 C2630 0.960 . S
C2634 N2635 1.342 . S
C2634 C2638 1.401 . S
C2634 C2639 1.499 . S
N2635 Co2618 1.989 . S
N2635 C2634 1.342 . S
N2635 N2636 1.388 . S
N2636 Co2619 1.993 . S
N2636 N2635 1.388 . S
N2636 C2637 1.346 . S
C2637 N2636 1.346 . S
C2637 C2638 1.396 . S
C2637 C2647 1.510 . S
C2638 C2634 1.401 . S
C2638 C2637 1.396 . S
C2639 C2634 1.499 . S
C2639 H2640 0.959 . S
C2639 H2641 0.960 . S
C2639 H2642 0.961 . S
H2640 C2639 0.959 . S
H2641 C2639 0.960 . S
H2642 C2639 0.961 . S
O2643 Co2618 1.967 . S
O2643 C2651 1.258 . S
O2644 Co2619 1.941 . S
O2644 C2651 1.266 . S
H2645 C2647 0.959 . S
H2646 C2647 0.961 . S
C2647 C2637 1.510 . S
C2647 H2645 0.959 . S
C2647 H2646 0.961 . S
C2647 H2648 0.960 . S
H2648 C2647 0.960 . S
H2649 N2629 0.862 . S
O2650 Co2618 1.920 . S
O2650 C2623 1.289 . S
C2651 O2643 1.258 . S
C2651 O2644 1.266 . S
Co2652 O2655 1.970 . S
Co2652 N2669 1.989 . S
Co2652 O2677 1.967 . S
Co2652 O2684 1.920 . S
Co2653 O2656 1.966 . S
Co2653 N2662 2.022 . S
Co2653 N2670 1.993 . S
Co2653 O2678 1.941 . S
C2654 O2655 1.258 . S
C2654 O2656 1.263 . S
O2655 Co2652 1.970 . S
O2655 C2654 1.258 . S
O2656 Co2653 1.966 . S
O2656 C2654 1.263 . S
C2657 O2658 1.235 . S
C2657 O2684 1.289 . S
O2658 C2657 1.235 . S
C2659 C2661 1.400 . S
C2659 N2662 1.351 . S
C2659 C2664 1.501 . S
C2660 C2661 1.387 . S
C2660 N2663 1.341 . S
C2661 C2659 1.400 . S
C2661 C2660 1.387 . S
N2662 Co2653 2.022 . S
N2662 C2659 1.351 . S
N2662 N2663 1.365 . S
N2663 C2660 1.341 . S
N2663 N2662 1.365 . S
N2663 H2683 0.862 . S
C2664 C2659 1.501 . S
C2664 H2665 0.961 . S
C2664 H2666 0.961 . S
C2664 H2667 0.960 . S
H2665 C2664 0.961 . S
H2666 C2664 0.961 . S
H2667 C2664 0.960 . S
C2668 N2669 1.342 . S
C2668 C2672 1.401 . S
C2668 C2673 1.499 . S
N2669 Co2652 1.989 . S
N2669 C2668 1.342 . S
N2669 N2670 1.388 . S
N2670 Co2653 1.993 . S
N2670 N2669 1.388 . S
N2670 C2671 1.346 . S
C2671 N2670 1.346 . S
C2671 C2672 1.396 . S
C2671 C2681 1.510 . S
C2672 C2668 1.401 . S
C2672 C2671 1.396 . S
C2673 C2668 1.499 . S
C2673 H2674 0.959 . S
C2673 H2675 0.960 . S
C2673 H2676 0.961 . S
H2674 C2673 0.959 . S
H2675 C2673 0.960 . S
H2676 C2673 0.961 . S
O2677 Co2652 1.967 . S
O2677 C2685 1.258 . S
O2678 Co2653 1.941 . S
O2678 C2685 1.266 . S
H2679 C2681 0.959 . S
H2680 C2681 0.961 . S
C2681 C2671 1.510 . S
C2681 H2679 0.959 . S
C2681 H2680 0.961 . S
C2681 H2682 0.960 . S
H2682 C2681 0.960 . S
H2683 N2663 0.862 . S
O2684 Co2652 1.920 . S
O2684 C2657 1.289 . S
C2685 O2677 1.258 . S
C2685 O2678 1.266 . S
Co2686 O2689 1.970 . S
Co2686 N2703 1.989 . S
Co2686 O2711 1.967 . S
Co2686 O2718 1.920 . S
Co2687 O2690 1.966 . S
Co2687 N2696 2.022 . S
Co2687 N2704 1.993 . S
Co2687 O2712 1.941 . S
C2688 O2689 1.258 . S
C2688 O2690 1.263 . S
O2689 Co2686 1.970 . S
O2689 C2688 1.258 . S
O2690 Co2687 1.966 . S
O2690 C2688 1.263 . S
C2691 O2692 1.235 . S
C2691 O2718 1.289 . S
O2692 C2691 1.235 . S
C2693 C2695 1.400 . S
C2693 N2696 1.351 . S
C2693 C2698 1.501 . S
C2694 C2695 1.387 . S
C2694 N2697 1.341 . S
C2695 C2693 1.400 . S
C2695 C2694 1.387 . S
N2696 Co2687 2.022 . S
N2696 C2693 1.351 . S
N2696 N2697 1.365 . S
N2697 C2694 1.341 . S
N2697 N2696 1.365 . S
N2697 H2717 0.862 . S
C2698 C2693 1.501 . S
C2698 H2699 0.961 . S
C2698 H2700 0.961 . S
C2698 H2701 0.960 . S
H2699 C2698 0.961 . S
H2700 C2698 0.961 . S
H2701 C2698 0.960 . S
C2702 N2703 1.342 . S
C2702 C2706 1.401 . S
C2702 C2707 1.499 . S
N2703 Co2686 1.989 . S
N2703 C2702 1.342 . S
N2703 N2704 1.388 . S
N2704 Co2687 1.993 . S
N2704 N2703 1.388 . S
N2704 C2705 1.346 . S
C2705 N2704 1.346 . S
C2705 C2706 1.396 . S
C2705 C2715 1.510 . S
C2706 C2702 1.401 . S
C2706 C2705 1.396 . S
C2707 C2702 1.499 . S
C2707 H2708 0.959 . S
C2707 H2709 0.960 . S
C2707 H2710 0.961 . S
H2708 C2707 0.959 . S
H2709 C2707 0.960 . S
H2710 C2707 0.961 . S
O2711 Co2686 1.967 . S
O2711 C2719 1.258 . S
O2712 Co2687 1.941 . S
O2712 C2719 1.266 . S
H2713 C2715 0.959 . S
H2714 C2715 0.961 . S
C2715 C2705 1.510 . S
C2715 H2713 0.959 . S
C2715 H2714 0.961 . S
C2715 H2716 0.960 . S
H2716 C2715 0.960 . S
H2717 N2697 0.862 . S
O2718 Co2686 1.920 . S
O2718 C2691 1.289 . S
C2719 O2711 1.258 . S
C2719 O2712 1.266 . S
Co2720 O2723 1.970 . S
Co2720 N2737 1.989 . S
Co2720 O2745 1.967 . S
Co2720 O2752 1.920 . S
Co2721 O2724 1.966 . S
Co2721 N2730 2.022 . S
Co2721 N2738 1.993 . S
Co2721 O2746 1.941 . S
C2722 O2723 1.258 . S
C2722 O2724 1.263 . S
O2723 Co2720 1.970 . S
O2723 C2722 1.258 . S
O2724 Co2721 1.966 . S
O2724 C2722 1.263 . S
C2725 O2726 1.235 . S
C2725 O2752 1.289 . S
O2726 C2725 1.235 . S
C2727 C2729 1.400 . S
C2727 N2730 1.351 . S
C2727 C2732 1.501 . S
C2728 C2729 1.387 . S
C2728 N2731 1.341 . S
C2729 C2727 1.400 . S
C2729 C2728 1.387 . S
N2730 Co2721 2.022 . S
N2730 C2727 1.351 . S
N2730 N2731 1.365 . S
N2731 C2728 1.341 . S
N2731 N2730 1.365 . S
N2731 H2751 0.862 . S
C2732 C2727 1.501 . S
C2732 H2733 0.961 . S
C2732 H2734 0.961 . S
C2732 H2735 0.960 . S
H2733 C2732 0.961 . S
H2734 C2732 0.961 . S
H2735 C2732 0.960 . S
C2736 N2737 1.342 . S
C2736 C2740 1.401 . S
C2736 C2741 1.499 . S
N2737 Co2720 1.989 . S
N2737 C2736 1.342 . S
N2737 N2738 1.388 . S
N2738 Co2721 1.993 . S
N2738 N2737 1.388 . S
N2738 C2739 1.346 . S
C2739 N2738 1.346 . S
C2739 C2740 1.396 . S
C2739 C2749 1.510 . S
C2740 C2736 1.401 . S
C2740 C2739 1.396 . S
C2741 C2736 1.499 . S
C2741 H2742 0.959 . S
C2741 H2743 0.960 . S
C2741 H2744 0.961 . S
H2742 C2741 0.959 . S
H2743 C2741 0.960 . S
H2744 C2741 0.961 . S
O2745 Co2720 1.967 . S
O2745 C2753 1.258 . S
O2746 Co2721 1.941 . S
O2746 C2753 1.266 . S
H2747 C2749 0.959 . S
H2748 C2749 0.961 . S
C2749 C2739 1.510 . S
C2749 H2747 0.959 . S
C2749 H2748 0.961 . S
C2749 H2750 0.960 . S
H2750 C2749 0.960 . S
H2751 N2731 0.862 . S
O2752 Co2720 1.920 . S
O2752 C2725 1.289 . S
C2753 O2745 1.258 . S
C2753 O2746 1.266 . S
Co2754 O2757 1.970 . S
Co2754 N2771 1.989 . S
Co2754 O2779 1.967 . S
Co2754 O2786 1.920 . S
Co2755 O2758 1.966 . S
Co2755 N2764 2.022 . S
Co2755 N2772 1.993 . S
Co2755 O2780 1.941 . S
C2756 O2757 1.258 . S
C2756 O2758 1.263 . S
O2757 Co2754 1.970 . S
O2757 C2756 1.258 . S
O2758 Co2755 1.966 . S
O2758 C2756 1.263 . S
C2759 O2760 1.235 . S
C2759 O2786 1.289 . S
O2760 C2759 1.235 . S
C2761 C2763 1.400 . S
C2761 N2764 1.351 . S
C2761 C2766 1.501 . S
C2762 C2763 1.387 . S
C2762 N2765 1.341 . S
C2763 C2761 1.400 . S
C2763 C2762 1.387 . S
N2764 Co2755 2.022 . S
N2764 C2761 1.351 . S
N2764 N2765 1.365 . S
N2765 C2762 1.341 . S
N2765 N2764 1.365 . S
N2765 H2785 0.862 . S
C2766 C2761 1.501 . S
C2766 H2767 0.961 . S
C2766 H2768 0.961 . S
C2766 H2769 0.960 . S
H2767 C2766 0.961 . S
H2768 C2766 0.961 . S
H2769 C2766 0.960 . S
C2770 N2771 1.342 . S
C2770 C2774 1.401 . S
C2770 C2775 1.499 . S
N2771 Co2754 1.989 . S
N2771 C2770 1.342 . S
N2771 N2772 1.388 . S
N2772 Co2755 1.993 . S
N2772 N2771 1.388 . S
N2772 C2773 1.346 . S
C2773 N2772 1.346 . S
C2773 C2774 1.396 . S
C2773 C2783 1.510 . S
C2774 C2770 1.401 . S
C2774 C2773 1.396 . S
C2775 C2770 1.499 . S
C2775 H2776 0.959 . S
C2775 H2777 0.960 . S
C2775 H2778 0.961 1_565 S
H2776 C2775 0.959 . S
H2777 C2775 0.960 . S
H2778 C2775 0.961 1_545 S
O2779 Co2754 1.967 . S
O2779 C2787 1.258 . S
O2780 Co2755 1.941 . S
O2780 C2787 1.266 . S
H2781 C2783 0.959 . S
H2782 C2783 0.961 . S
C2783 C2773 1.510 . S
C2783 H2781 0.959 . S
C2783 H2782 0.961 . S
C2783 H2784 0.960 . S
H2784 C2783 0.960 . S
H2785 N2765 0.862 . S
O2786 Co2754 1.920 . S
O2786 C2759 1.289 . S
C2787 O2779 1.258 . S
C2787 O2780 1.266 . S
Co2788 O2791 1.970 . S
Co2788 N2805 1.989 . S
Co2788 O2813 1.967 . S
Co2788 O2820 1.920 . S
Co2789 O2792 1.966 . S
Co2789 N2798 2.022 1_545 S
Co2789 N2806 1.993 . S
Co2789 O2814 1.941 . S
C2790 O2791 1.258 . S
C2790 O2792 1.263 . S
O2791 Co2788 1.970 . S
O2791 C2790 1.258 . S
O2792 Co2789 1.966 . S
O2792 C2790 1.263 . S
C2793 O2794 1.235 . S
C2793 O2820 1.289 . S
O2794 C2793 1.235 . S
C2795 C2797 1.400 . S
C2795 N2798 1.351 . S
C2795 C2800 1.501 1_565 S
C2796 C2797 1.387 . S
C2796 N2799 1.341 . S
C2797 C2795 1.400 . S
C2797 C2796 1.387 . S
N2798 Co2789 2.022 1_565 S
N2798 C2795 1.351 . S
N2798 N2799 1.365 . S
N2799 C2796 1.341 . S
N2799 N2798 1.365 . S
N2799 H2819 0.862 . S
C2800 C2795 1.501 1_545 S
C2800 H2801 0.961 . S
C2800 H2802 0.961 . S
C2800 H2803 0.960 . S
H2801 C2800 0.961 . S
H2802 C2800 0.961 . S
H2803 C2800 0.960 . S
C2804 N2805 1.342 . S
C2804 C2808 1.401 1_545 S
C2804 C2809 1.499 . S
N2805 Co2788 1.989 . S
N2805 C2804 1.342 . S
N2805 N2806 1.388 . S
N2806 Co2789 1.993 . S
N2806 N2805 1.388 . S
N2806 C2807 1.346 1_545 S
C2807 N2806 1.346 1_565 S
C2807 C2808 1.396 . S
C2807 C2817 1.510 . S
C2808 C2804 1.401 1_565 S
C2808 C2807 1.396 . S
C2809 C2804 1.499 . S
C2809 H2810 0.959 . S
C2809 H2811 0.960 . S
C2809 H2812 0.961 . S
H2810 C2809 0.959 . S
H2811 C2809 0.960 . S
H2812 C2809 0.961 . S
O2813 Co2788 1.967 . S
O2813 C2821 1.258 . S
O2814 Co2789 1.941 . S
O2814 C2821 1.266 . S
H2815 C2817 0.959 . S
H2816 C2817 0.961 . S
C2817 C2807 1.510 . S
C2817 H2815 0.959 . S
C2817 H2816 0.961 . S
C2817 H2818 0.960 . S
H2818 C2817 0.960 . S
H2819 N2799 0.862 . S
O2820 Co2788 1.920 . S
O2820 C2793 1.289 . S
C2821 O2813 1.258 . S
C2821 O2814 1.266 . S
Co2822 O2825 1.970 . S
Co2822 N2839 1.989 . S
Co2822 O2847 1.967 . S
Co2822 O2854 1.920 . S
Co2823 O2826 1.966 . S
Co2823 N2832 2.022 . S
Co2823 N2840 1.993 . S
Co2823 O2848 1.941 . S
C2824 O2825 1.258 . S
C2824 O2826 1.263 . S
O2825 Co2822 1.970 . S
O2825 C2824 1.258 . S
O2826 Co2823 1.966 . S
O2826 C2824 1.263 . S
C2827 O2828 1.235 . S
C2827 O2854 1.289 . S
O2828 C2827 1.235 . S
C2829 C2831 1.400 . S
C2829 N2832 1.351 . S
C2829 C2834 1.501 . S
C2830 C2831 1.387 . S
C2830 N2833 1.341 . S
C2831 C2829 1.400 . S
C2831 C2830 1.387 . S
N2832 Co2823 2.022 . S
N2832 C2829 1.351 . S
N2832 N2833 1.365 . S
N2833 C2830 1.341 . S
N2833 N2832 1.365 . S
N2833 H2853 0.862 . S
C2834 C2829 1.501 . S
C2834 H2835 0.961 . S
C2834 H2836 0.961 . S
C2834 H2837 0.960 . S
H2835 C2834 0.961 . S
H2836 C2834 0.961 . S
H2837 C2834 0.960 . S
C2838 N2839 1.342 . S
C2838 C2842 1.401 . S
C2838 C2843 1.499 . S
N2839 Co2822 1.989 . S
N2839 C2838 1.342 . S
N2839 N2840 1.388 . S
N2840 Co2823 1.993 . S
N2840 N2839 1.388 . S
N2840 C2841 1.346 . S
C2841 N2840 1.346 . S
C2841 C2842 1.396 . S
C2841 C2851 1.510 . S
C2842 C2838 1.401 . S
C2842 C2841 1.396 . S
C2843 C2838 1.499 . S
C2843 H2844 0.959 . S
C2843 H2845 0.960 . S
C2843 H2846 0.961 . S
H2844 C2843 0.959 . S
H2845 C2843 0.960 . S
H2846 C2843 0.961 . S
O2847 Co2822 1.967 . S
O2847 C2855 1.258 . S
O2848 Co2823 1.941 . S
O2848 C2855 1.266 . S
H2849 C2851 0.959 . S
H2850 C2851 0.961 . S
C2851 C2841 1.510 . S
C2851 H2849 0.959 . S
C2851 H2850 0.961 . S
C2851 H2852 0.960 . S
H2852 C2851 0.960 . S
H2853 N2833 0.862 . S
O2854 Co2822 1.920 . S
O2854 C2827 1.289 . S
C2855 O2847 1.258 . S
C2855 O2848 1.266 . S
Co2856 O2859 1.970 . S
Co2856 N2873 1.989 . S
Co2856 O2881 1.967 . S
Co2856 O2888 1.920 . S
Co2857 O2860 1.966 . S
Co2857 N2866 2.022 . S
Co2857 N2874 1.993 . S
Co2857 O2882 1.941 . S
C2858 O2859 1.258 . S
C2858 O2860 1.263 . S
O2859 Co2856 1.970 . S
O2859 C2858 1.258 . S
O2860 Co2857 1.966 . S
O2860 C2858 1.263 . S
C2861 O2862 1.235 . S
C2861 O2888 1.289 . S
O2862 C2861 1.235 . S
C2863 C2865 1.400 . S
C2863 N2866 1.351 . S
C2863 C2868 1.501 . S
C2864 C2865 1.387 . S
C2864 N2867 1.341 . S
C2865 C2863 1.400 . S
C2865 C2864 1.387 . S
N2866 Co2857 2.022 . S
N2866 C2863 1.351 . S
N2866 N2867 1.365 . S
N2867 C2864 1.341 . S
N2867 N2866 1.365 . S
N2867 H2887 0.862 . S
C2868 C2863 1.501 . S
C2868 H2869 0.961 . S
C2868 H2870 0.961 . S
C2868 H2871 0.960 . S
H2869 C2868 0.961 . S
H2870 C2868 0.961 . S
H2871 C2868 0.960 . S
C2872 N2873 1.342 . S
C2872 C2876 1.401 . S
C2872 C2877 1.499 . S
N2873 Co2856 1.989 . S
N2873 C2872 1.342 . S
N2873 N2874 1.388 . S
N2874 Co2857 1.993 . S
N2874 N2873 1.388 . S
N2874 C2875 1.346 . S
C2875 N2874 1.346 . S
C2875 C2876 1.396 . S
C2875 C2885 1.510 . S
C2876 C2872 1.401 . S
C2876 C2875 1.396 . S
C2877 C2872 1.499 . S
C2877 H2878 0.959 . S
C2877 H2879 0.960 . S
C2877 H2880 0.961 . S
H2878 C2877 0.959 . S
H2879 C2877 0.960 . S
H2880 C2877 0.961 . S
O2881 Co2856 1.967 . S
O2881 C2889 1.258 . S
O2882 Co2857 1.941 . S
O2882 C2889 1.266 . S
H2883 C2885 0.959 . S
H2884 C2885 0.961 . S
C2885 C2875 1.510 . S
C2885 H2883 0.959 . S
C2885 H2884 0.961 . S
C2885 H2886 0.960 . S
H2886 C2885 0.960 . S
H2887 N2867 0.862 . S
O2888 Co2856 1.920 . S
O2888 C2861 1.289 . S
C2889 O2881 1.258 . S
C2889 O2882 1.266 . S
Co2890 O2893 1.970 . S
Co2890 N2907 1.989 . S
Co2890 O2915 1.967 . S
Co2890 O2922 1.920 . S
Co2891 O2894 1.966 . S
Co2891 N2900 2.022 . S
Co2891 N2908 1.993 . S
Co2891 O2916 1.941 . S
C2892 O2893 1.258 . S
C2892 O2894 1.263 . S
O2893 Co2890 1.970 . S
O2893 C2892 1.258 . S
O2894 Co2891 1.966 . S
O2894 C2892 1.263 . S
C2895 O2896 1.235 . S
C2895 O2922 1.289 . S
O2896 C2895 1.235 . S
C2897 C2899 1.400 . S
C2897 N2900 1.351 . S
C2897 C2902 1.501 . S
C2898 C2899 1.387 . S
C2898 N2901 1.341 . S
C2899 C2897 1.400 . S
C2899 C2898 1.387 . S
N2900 Co2891 2.022 . S
N2900 C2897 1.351 . S
N2900 N2901 1.365 . S
N2901 C2898 1.341 . S
N2901 N2900 1.365 . S
N2901 H2921 0.862 . S
C2902 C2897 1.501 . S
C2902 H2903 0.961 . S
C2902 H2904 0.961 . S
C2902 H2905 0.960 . S
H2903 C2902 0.961 . S
H2904 C2902 0.961 . S
H2905 C2902 0.960 . S
C2906 N2907 1.342 . S
C2906 C2910 1.401 . S
C2906 C2911 1.499 . S
N2907 Co2890 1.989 . S
N2907 C2906 1.342 . S
N2907 N2908 1.388 . S
N2908 Co2891 1.993 . S
N2908 N2907 1.388 . S
N2908 C2909 1.346 . S
C2909 N2908 1.346 . S
C2909 C2910 1.396 . S
C2909 C2919 1.510 . S
C2910 C2906 1.401 . S
C2910 C2909 1.396 . S
C2911 C2906 1.499 . S
C2911 H2912 0.959 . S
C2911 H2913 0.960 . S
C2911 H2914 0.961 1_565 S
H2912 C2911 0.959 . S
H2913 C2911 0.960 . S
H2914 C2911 0.961 1_545 S
O2915 Co2890 1.967 . S
O2915 C2923 1.258 . S
O2916 Co2891 1.941 . S
O2916 C2923 1.266 . S
H2917 C2919 0.959 . S
H2918 C2919 0.961 . S
C2919 C2909 1.510 . S
C2919 H2917 0.959 . S
C2919 H2918 0.961 . S
C2919 H2920 0.960 . S
H2920 C2919 0.960 . S
H2921 N2901 0.862 . S
O2922 Co2890 1.920 . S
O2922 C2895 1.289 . S
C2923 O2915 1.258 . S
C2923 O2916 1.266 . S
Co2924 O2927 1.970 . S
Co2924 N2941 1.989 1_565 S
Co2924 O2949 1.967 . S
Co2924 O2956 1.920 . S
Co2925 O2928 1.966 . S
Co2925 N2934 2.022 . S
Co2925 N2942 1.993 . S
Co2925 O2950 1.941 . S
C2926 O2927 1.258 . S
C2926 O2928 1.263 1_565 S
O2927 Co2924 1.970 . S
O2927 C2926 1.258 . S
O2928 Co2925 1.966 . S
O2928 C2926 1.263 1_545 S
C2929 O2930 1.235 . S
C2929 O2956 1.289 . S
O2930 C2929 1.235 . S
C2931 C2933 1.400 . S
C2931 N2934 1.351 . S
C2931 C2936 1.501 . S
C2932 C2933 1.387 . S
C2932 N2935 1.341 . S
C2933 C2931 1.400 . S
C2933 C2932 1.387 . S
N2934 Co2925 2.022 . S
N2934 C2931 1.351 . S
N2934 N2935 1.365 . S
N2935 C2932 1.341 . S
N2935 N2934 1.365 . S
N2935 H2955 0.862 . S
C2936 C2931 1.501 . S
C2936 H2937 0.961 . S
C2936 H2938 0.961 . S
C2936 H2939 0.960 . S
H2937 C2936 0.961 . S
H2938 C2936 0.961 . S
H2939 C2936 0.960 . S
C2940 N2941 1.342 . S
C2940 C2944 1.401 . S
C2940 C2945 1.499 . S
N2941 Co2924 1.989 1_545 S
N2941 C2940 1.342 . S
N2941 N2942 1.388 . S
N2942 Co2925 1.993 . S
N2942 N2941 1.388 . S
N2942 C2943 1.346 . S
C2943 N2942 1.346 . S
C2943 C2944 1.396 . S
C2943 C2953 1.510 . S
C2944 C2940 1.401 . S
C2944 C2943 1.396 . S
C2945 C2940 1.499 . S
C2945 H2946 0.959 . S
C2945 H2947 0.960 . S
C2945 H2948 0.961 . S
H2946 C2945 0.959 . S
H2947 C2945 0.960 . S
H2948 C2945 0.961 . S
O2949 Co2924 1.967 . S
O2949 C2957 1.258 1_565 S
O2950 Co2925 1.941 . S
O2950 C2957 1.266 . S
H2951 C2953 0.959 . S
H2952 C2953 0.961 . S
C2953 C2943 1.510 . S
C2953 H2951 0.959 . S
C2953 H2952 0.961 . S
C2953 H2954 0.960 . S
H2954 C2953 0.960 . S
H2955 N2935 0.862 . S
O2956 Co2924 1.920 . S
O2956 C2929 1.289 . S
C2957 O2949 1.258 1_545 S
C2957 O2950 1.266 . S
Co2958 O2961 1.970 . S
Co2958 N2975 1.989 . S
Co2958 O2983 1.967 . S
Co2958 O2990 1.920 . S
Co2959 O2962 1.966 . S
Co2959 N2968 2.022 . S
Co2959 N2976 1.993 . S
Co2959 O2984 1.941 . S
C2960 O2961 1.258 . S
C2960 O2962 1.263 . S
O2961 Co2958 1.970 . S
O2961 C2960 1.258 . S
O2962 Co2959 1.966 . S
O2962 C2960 1.263 . S
C2963 O2964 1.235 . S
C2963 O2990 1.289 . S
O2964 C2963 1.235 . S
C2965 C2967 1.400 . S
C2965 N2968 1.351 . S
C2965 C2970 1.501 . S
C2966 C2967 1.387 . S
C2966 N2969 1.341 . S
C2967 C2965 1.400 . S
C2967 C2966 1.387 . S
N2968 Co2959 2.022 . S
N2968 C2965 1.351 . S
N2968 N2969 1.365 . S
N2969 C2966 1.341 . S
N2969 N2968 1.365 . S
N2969 H2989 0.862 . S
C2970 C2965 1.501 . S
C2970 H2971 0.961 . S
C2970 H2972 0.961 . S
C2970 H2973 0.960 . S
H2971 C2970 0.961 . S
H2972 C2970 0.961 . S
H2973 C2970 0.960 . S
C2974 N2975 1.342 . S
C2974 C2978 1.401 . S
C2974 C2979 1.499 . S
N2975 Co2958 1.989 . S
N2975 C2974 1.342 . S
N2975 N2976 1.388 . S
N2976 Co2959 1.993 . S
N2976 N2975 1.388 . S
N2976 C2977 1.346 . S
C2977 N2976 1.346 . S
C2977 C2978 1.396 . S
C2977 C2987 1.510 . S
C2978 C2974 1.401 . S
C2978 C2977 1.396 . S
C2979 C2974 1.499 . S
C2979 H2980 0.959 . S
C2979 H2981 0.960 . S
C2979 H2982 0.961 . S
H2980 C2979 0.959 . S
H2981 C2979 0.960 . S
H2982 C2979 0.961 . S
O2983 Co2958 1.967 . S
O2983 C2991 1.258 . S
O2984 Co2959 1.941 . S
O2984 C2991 1.266 . S
H2985 C2987 0.959 . S
H2986 C2987 0.961 . S
C2987 C2977 1.510 . S
C2987 H2985 0.959 . S
C2987 H2986 0.961 . S
C2987 H2988 0.960 . S
H2988 C2987 0.960 . S
H2989 N2969 0.862 . S
O2990 Co2958 1.920 . S
O2990 C2963 1.289 . S
C2991 O2983 1.258 . S
C2991 O2984 1.266 . S
Co2992 O2995 1.970 . S
Co2992 N3009 1.989 1_556 S
Co2992 O3017 1.967 . S
Co2992 O3024 1.920 . S
Co2993 O2996 1.966 . S
Co2993 N3002 2.022 . S
Co2993 N3010 1.993 . S
Co2993 O3018 1.941 . S
C2994 O2995 1.258 . S
C2994 O2996 1.263 1_556 S
O2995 Co2992 1.970 . S
O2995 C2994 1.258 . S
O2996 Co2993 1.966 . S
O2996 C2994 1.263 1_554 S
C2997 O2998 1.235 . S
C2997 O3024 1.289 . S
O2998 C2997 1.235 . S
C2999 C3001 1.400 . S
C2999 N3002 1.351 . S
C2999 C3004 1.501 . S
C3000 C3001 1.387 . S
C3000 N3003 1.341 . S
C3001 C2999 1.400 . S
C3001 C3000 1.387 . S
N3002 Co2993 2.022 . S
N3002 C2999 1.351 . S
N3002 N3003 1.365 . S
N3003 C3000 1.341 . S
N3003 N3002 1.365 . S
N3003 H3023 0.862 . S
C3004 C2999 1.501 . S
C3004 H3005 0.961 . S
C3004 H3006 0.961 . S
C3004 H3007 0.960 . S
H3005 C3004 0.961 . S
H3006 C3004 0.961 . S
H3007 C3004 0.960 . S
C3008 N3009 1.342 . S
C3008 C3012 1.401 . S
C3008 C3013 1.499 . S
N3009 Co2992 1.989 1_554 S
N3009 C3008 1.342 . S
N3009 N3010 1.388 . S
N3010 Co2993 1.993 . S
N3010 N3009 1.388 . S
N3010 C3011 1.346 . S
C3011 N3010 1.346 . S
C3011 C3012 1.396 . S
C3011 C3021 1.510 . S
C3012 C3008 1.401 . S
C3012 C3011 1.396 . S
C3013 C3008 1.499 . S
C3013 H3014 0.959 . S
C3013 H3015 0.960 . S
C3013 H3016 0.961 . S
H3014 C3013 0.959 . S
H3015 C3013 0.960 . S
H3016 C3013 0.961 . S
O3017 Co2992 1.967 . S
O3017 C3025 1.258 1_556 S
O3018 Co2993 1.941 . S
O3018 C3025 1.266 . S
H3019 C3021 0.959 . S
H3020 C3021 0.961 . S
C3021 C3011 1.510 . S
C3021 H3019 0.959 . S
C3021 H3020 0.961 . S
C3021 H3022 0.960 . S
H3022 C3021 0.960 . S
H3023 N3003 0.862 . S
O3024 Co2992 1.920 . S
O3024 C2997 1.289 . S
C3025 O3017 1.258 1_554 S
C3025 O3018 1.266 . S
Co3026 O3029 1.970 . S
Co3026 N3043 1.989 . S
Co3026 O3051 1.967 . S
Co3026 O3058 1.920 . S
Co3027 O3030 1.966 . S
Co3027 N3036 2.022 . S
Co3027 N3044 1.993 . S
Co3027 O3052 1.941 . S
C3028 O3029 1.258 . S
C3028 O3030 1.263 . S
O3029 Co3026 1.970 . S
O3029 C3028 1.258 . S
O3030 Co3027 1.966 . S
O3030 C3028 1.263 . S
C3031 O3032 1.235 . S
C3031 O3058 1.289 . S
O3032 C3031 1.235 . S
C3033 C3035 1.400 . S
C3033 N3036 1.351 . S
C3033 C3038 1.501 . S
C3034 C3035 1.387 . S
C3034 N3037 1.341 . S
C3035 C3033 1.400 . S
C3035 C3034 1.387 . S
N3036 Co3027 2.022 . S
N3036 C3033 1.351 . S
N3036 N3037 1.365 . S
N3037 C3034 1.341 . S
N3037 N3036 1.365 . S
N3037 H3057 0.862 . S
C3038 C3033 1.501 . S
C3038 H3039 0.961 . S
C3038 H3040 0.961 . S
C3038 H3041 0.960 . S
H3039 C3038 0.961 . S
H3040 C3038 0.961 . S
H3041 C3038 0.960 . S
C3042 N3043 1.342 . S
C3042 C3046 1.401 . S
C3042 C3047 1.499 . S
N3043 Co3026 1.989 . S
N3043 C3042 1.342 . S
N3043 N3044 1.388 . S
N3044 Co3027 1.993 . S
N3044 N3043 1.388 . S
N3044 C3045 1.346 . S
C3045 N3044 1.346 . S
C3045 C3046 1.396 . S
C3045 C3055 1.510 . S
C3046 C3042 1.401 . S
C3046 C3045 1.396 . S
C3047 C3042 1.499 . S
C3047 H3048 0.959 . S
C3047 H3049 0.960 . S
C3047 H3050 0.961 . S
H3048 C3047 0.959 . S
H3049 C3047 0.960 . S
H3050 C3047 0.961 . S
O3051 Co3026 1.967 . S
O3051 C3059 1.258 . S
O3052 Co3027 1.941 . S
O3052 C3059 1.266 . S
H3053 C3055 0.959 . S
H3054 C3055 0.961 . S
C3055 C3045 1.510 . S
C3055 H3053 0.959 . S
C3055 H3054 0.961 . S
C3055 H3056 0.960 . S
H3056 C3055 0.960 . S
H3057 N3037 0.862 . S
O3058 Co3026 1.920 . S
O3058 C3031 1.289 . S
C3059 O3051 1.258 . S
C3059 O3052 1.266 . S
Co3060 O3063 1.970 . S
Co3060 N3077 1.989 . S
Co3060 O3085 1.967 . S
Co3060 O3092 1.920 . S
Co3061 O3064 1.966 . S
Co3061 N3070 2.022 . S
Co3061 N3078 1.993 . S
Co3061 O3086 1.941 . S
C3062 O3063 1.258 . S
C3062 O3064 1.263 . S
O3063 Co3060 1.970 . S
O3063 C3062 1.258 . S
O3064 Co3061 1.966 . S
O3064 C3062 1.263 . S
C3065 O3066 1.235 . S
C3065 O3092 1.289 . S
O3066 C3065 1.235 . S
C3067 C3069 1.400 . S
C3067 N3070 1.351 . S
C3067 C3072 1.501 . S
C3068 C3069 1.387 . S
C3068 N3071 1.341 . S
C3069 C3067 1.400 . S
C3069 C3068 1.387 . S
N3070 Co3061 2.022 . S
N3070 C3067 1.351 . S
N3070 N3071 1.365 . S
N3071 C3068 1.341 . S
N3071 N3070 1.365 . S
N3071 H3091 0.862 . S
C3072 C3067 1.501 . S
C3072 H3073 0.961 . S
C3072 H3074 0.961 . S
C3072 H3075 0.960 . S
H3073 C3072 0.961 . S
H3074 C3072 0.961 . S
H3075 C3072 0.960 . S
C3076 N3077 1.342 . S
C3076 C3080 1.401 . S
C3076 C3081 1.499 . S
N3077 Co3060 1.989 . S
N3077 C3076 1.342 . S
N3077 N3078 1.388 . S
N3078 Co3061 1.993 . S
N3078 N3077 1.388 . S
N3078 C3079 1.346 . S
C3079 N3078 1.346 . S
C3079 C3080 1.396 . S
C3079 C3089 1.510 . S
C3080 C3076 1.401 . S
C3080 C3079 1.396 . S
C3081 C3076 1.499 . S
C3081 H3082 0.959 . S
C3081 H3083 0.960 . S
C3081 H3084 0.961 1_655 S
H3082 C3081 0.959 . S
H3083 C3081 0.960 . S
H3084 C3081 0.961 1_455 S
O3085 Co3060 1.967 . S
O3085 C3093 1.258 . S
O3086 Co3061 1.941 . S
O3086 C3093 1.266 . S
H3087 C3089 0.959 . S
H3088 C3089 0.961 . S
C3089 C3079 1.510 . S
C3089 H3087 0.959 . S
C3089 H3088 0.961 . S
C3089 H3090 0.960 . S
H3090 C3089 0.960 . S
H3091 N3071 0.862 . S
O3092 Co3060 1.920 . S
O3092 C3065 1.289 . S
C3093 O3085 1.258 . S
C3093 O3086 1.266 . S
Co3094 O3097 1.970 . S
Co3094 N3111 1.989 . S
Co3094 O3119 1.967 . S
Co3094 O3126 1.920 . S
Co3095 O3098 1.966 . S
Co3095 N3104 2.022 1_554 S
Co3095 N3112 1.993 . S
Co3095 O3120 1.941 . S
C3096 O3097 1.258 . S
C3096 O3098 1.263 . S
O3097 Co3094 1.970 . S
O3097 C3096 1.258 . S
O3098 Co3095 1.966 . S
O3098 C3096 1.263 . S
C3099 O3100 1.235 . S
C3099 O3126 1.289 . S
O3100 C3099 1.235 . S
C3101 C3103 1.400 . S
C3101 N3104 1.351 . S
C3101 C3106 1.501 1_556 S
C3102 C3103 1.387 . S
C3102 N3105 1.341 . S
C3103 C3101 1.400 . S
C3103 C3102 1.387 . S
N3104 Co3095 2.022 1_556 S
N3104 C3101 1.351 . S
N3104 N3105 1.365 . S
N3105 C3102 1.341 . S
N3105 N3104 1.365 . S
N3105 H3125 0.862 . S
C3106 C3101 1.501 1_554 S
C3106 H3107 0.961 . S
C3106 H3108 0.961 . S
C3106 H3109 0.960 . S
H3107 C3106 0.961 . S
H3108 C3106 0.961 . S
H3109 C3106 0.960 . S
C3110 N3111 1.342 . S
C3110 C3114 1.401 1_554 S
C3110 C3115 1.499 . S
N3111 Co3094 1.989 . S
N3111 C3110 1.342 . S
N3111 N3112 1.388 . S
N3112 Co3095 1.993 . S
N3112 N3111 1.388 . S
N3112 C3113 1.346 1_554 S
C3113 N3112 1.346 1_556 S
C3113 C3114 1.396 . S
C3113 C3123 1.510 . S
C3114 C3110 1.401 1_556 S
C3114 C3113 1.396 . S
C3115 C3110 1.499 . S
C3115 H3116 0.959 . S
C3115 H3117 0.960 . S
C3115 H3118 0.961 . S
H3116 C3115 0.959 . S
H3117 C3115 0.960 . S
H3118 C3115 0.961 . S
O3119 Co3094 1.967 . S
O3119 C3127 1.258 . S
O3120 Co3095 1.941 . S
O3120 C3127 1.266 . S
H3121 C3123 0.959 . S
H3122 C3123 0.961 . S
C3123 C3113 1.510 . S
C3123 H3121 0.959 . S
C3123 H3122 0.961 . S
C3123 H3124 0.960 . S
H3124 C3123 0.960 . S
H3125 N3105 0.862 . S
O3126 Co3094 1.920 . S
O3126 C3099 1.289 . S
C3127 O3119 1.258 . S
C3127 O3120 1.266 . S
Co3128 O3131 1.970 . S
Co3128 N3145 1.989 . S
Co3128 O3153 1.967 . S
Co3128 O3160 1.920 . S
Co3129 O3132 1.966 . S
Co3129 N3138 2.022 . S
Co3129 N3146 1.993 . S
Co3129 O3154 1.941 . S
C3130 O3131 1.258 . S
C3130 O3132 1.263 . S
O3131 Co3128 1.970 . S
O3131 C3130 1.258 . S
O3132 Co3129 1.966 . S
O3132 C3130 1.263 . S
C3133 O3134 1.235 . S
C3133 O3160 1.289 . S
O3134 C3133 1.235 . S
C3135 C3137 1.400 . S
C3135 N3138 1.351 . S
C3135 C3140 1.501 . S
C3136 C3137 1.387 . S
C3136 N3139 1.341 . S
C3137 C3135 1.400 . S
C3137 C3136 1.387 . S
N3138 Co3129 2.022 . S
N3138 C3135 1.351 . S
N3138 N3139 1.365 . S
N3139 C3136 1.341 . S
N3139 N3138 1.365 . S
N3139 H3159 0.862 . S
C3140 C3135 1.501 . S
C3140 H3141 0.961 . S
C3140 H3142 0.961 . S
C3140 H3143 0.960 . S
H3141 C3140 0.961 . S
H3142 C3140 0.961 . S
H3143 C3140 0.960 . S
C3144 N3145 1.342 . S
C3144 C3148 1.401 . S
C3144 C3149 1.499 . S
N3145 Co3128 1.989 . S
N3145 C3144 1.342 . S
N3145 N3146 1.388 . S
N3146 Co3129 1.993 . S
N3146 N3145 1.388 . S
N3146 C3147 1.346 . S
C3147 N3146 1.346 . S
C3147 C3148 1.396 . S
C3147 C3157 1.510 . S
C3148 C3144 1.401 . S
C3148 C3147 1.396 . S
C3149 C3144 1.499 . S
C3149 H3150 0.959 . S
C3149 H3151 0.960 . S
C3149 H3152 0.961 . S
H3150 C3149 0.959 . S
H3151 C3149 0.960 . S
H3152 C3149 0.961 . S
O3153 Co3128 1.967 . S
O3153 C3161 1.258 . S
O3154 Co3129 1.941 . S
O3154 C3161 1.266 . S
H3155 C3157 0.959 . S
H3156 C3157 0.961 . S
C3157 C3147 1.510 . S
C3157 H3155 0.959 . S
C3157 H3156 0.961 . S
C3157 H3158 0.960 . S
H3158 C3157 0.960 . S
H3159 N3139 0.862 . S
O3160 Co3128 1.920 . S
O3160 C3133 1.289 . S
C3161 O3153 1.258 . S
C3161 O3154 1.266 . S
Co3162 O3165 1.970 . S
Co3162 N3179 1.989 1_556 S
Co3162 O3187 1.967 . S
Co3162 O3194 1.920 . S
Co3163 O3166 1.966 . S
Co3163 N3172 2.022 . S
Co3163 N3180 1.993 . S
Co3163 O3188 1.941 . S
C3164 O3165 1.258 . S
C3164 O3166 1.263 1_556 S
O3165 Co3162 1.970 . S
O3165 C3164 1.258 . S
O3166 Co3163 1.966 . S
O3166 C3164 1.263 1_554 S
C3167 O3168 1.235 . S
C3167 O3194 1.289 . S
O3168 C3167 1.235 . S
C3169 C3171 1.400 . S
C3169 N3172 1.351 . S
C3169 C3174 1.501 . S
C3170 C3171 1.387 . S
C3170 N3173 1.341 . S
C3171 C3169 1.400 . S
C3171 C3170 1.387 . S
N3172 Co3163 2.022 . S
N3172 C3169 1.351 . S
N3172 N3173 1.365 . S
N3173 C3170 1.341 . S
N3173 N3172 1.365 . S
N3173 H3193 0.862 . S
C3174 C3169 1.501 . S
C3174 H3175 0.961 . S
C3174 H3176 0.961 . S
C3174 H3177 0.960 . S
H3175 C3174 0.961 . S
H3176 C3174 0.961 . S
H3177 C3174 0.960 . S
C3178 N3179 1.342 . S
C3178 C3182 1.401 . S
C3178 C3183 1.499 . S
N3179 Co3162 1.989 1_554 S
N3179 C3178 1.342 . S
N3179 N3180 1.388 . S
N3180 Co3163 1.993 . S
N3180 N3179 1.388 . S
N3180 C3181 1.346 . S
C3181 N3180 1.346 . S
C3181 C3182 1.396 . S
C3181 C3191 1.510 . S
C3182 C3178 1.401 . S
C3182 C3181 1.396 . S
C3183 C3178 1.499 . S
C3183 H3184 0.959 . S
C3183 H3185 0.960 . S
C3183 H3186 0.961 . S
H3184 C3183 0.959 . S
H3185 C3183 0.960 . S
H3186 C3183 0.961 . S
O3187 Co3162 1.967 . S
O3187 C3195 1.258 1_556 S
O3188 Co3163 1.941 . S
O3188 C3195 1.266 . S
H3189 C3191 0.959 . S
H3190 C3191 0.961 . S
C3191 C3181 1.510 . S
C3191 H3189 0.959 . S
C3191 H3190 0.961 . S
C3191 H3192 0.960 . S
H3192 C3191 0.960 . S
H3193 N3173 0.862 . S
O3194 Co3162 1.920 . S
O3194 C3167 1.289 . S
C3195 O3187 1.258 1_554 S
C3195 O3188 1.266 . S
Co3196 O3199 1.970 . S
Co3196 N3213 1.989 . S
Co3196 O3221 1.967 . S
Co3196 O3228 1.920 . S
Co3197 O3200 1.966 . S
Co3197 N3206 2.022 . S
Co3197 N3214 1.993 . S
Co3197 O3222 1.941 . S
C3198 O3199 1.258 . S
C3198 O3200 1.263 . S
O3199 Co3196 1.970 . S
O3199 C3198 1.258 . S
O3200 Co3197 1.966 . S
O3200 C3198 1.263 . S
C3201 O3202 1.235 . S
C3201 O3228 1.289 . S
O3202 C3201 1.235 . S
C3203 C3205 1.400 . S
C3203 N3206 1.351 . S
C3203 C3208 1.501 . S
C3204 C3205 1.387 . S
C3204 N3207 1.341 . S
C3205 C3203 1.400 . S
C3205 C3204 1.387 . S
N3206 Co3197 2.022 . S
N3206 C3203 1.351 . S
N3206 N3207 1.365 . S
N3207 C3204 1.341 . S
N3207 N3206 1.365 . S
N3207 H3227 0.862 . S
C3208 C3203 1.501 . S
C3208 H3209 0.961 . S
C3208 H3210 0.961 . S
C3208 H3211 0.960 . S
H3209 C3208 0.961 . S
H3210 C3208 0.961 . S
H3211 C3208 0.960 . S
C3212 N3213 1.342 . S
C3212 C3216 1.401 . S
C3212 C3217 1.499 . S
N3213 Co3196 1.989 . S
N3213 C3212 1.342 . S
N3213 N3214 1.388 . S
N3214 Co3197 1.993 . S
N3214 N3213 1.388 . S
N3214 C3215 1.346 . S
C3215 N3214 1.346 . S
C3215 C3216 1.396 . S
C3215 C3225 1.510 . S
C3216 C3212 1.401 . S
C3216 C3215 1.396 . S
C3217 C3212 1.499 . S
C3217 H3218 0.959 . S
C3217 H3219 0.960 . S
C3217 H3220 0.961 1_655 S
H3218 C3217 0.959 . S
H3219 C3217 0.960 . S
H3220 C3217 0.961 1_455 S
O3221 Co3196 1.967 . S
O3221 C3229 1.258 . S
O3222 Co3197 1.941 . S
O3222 C3229 1.266 . S
H3223 C3225 0.959 . S
H3224 C3225 0.961 . S
C3225 C3215 1.510 . S
C3225 H3223 0.959 . S
C3225 H3224 0.961 . S
C3225 H3226 0.960 . S
H3226 C3225 0.960 . S
H3227 N3207 0.862 . S
O3228 Co3196 1.920 . S
O3228 C3201 1.289 . S
C3229 O3221 1.258 . S
C3229 O3222 1.266 . S
Co3230 O3233 1.970 . S
Co3230 N3247 1.989 . S
Co3230 O3255 1.967 . S
Co3230 O3262 1.920 . S
Co3231 O3234 1.966 . S
Co3231 N3240 2.022 . S
Co3231 N3248 1.993 . S
Co3231 O3256 1.941 . S
C3232 O3233 1.258 . S
C3232 O3234 1.263 . S
O3233 Co3230 1.970 . S
O3233 C3232 1.258 . S
O3234 Co3231 1.966 . S
O3234 C3232 1.263 . S
C3235 O3236 1.235 . S
C3235 O3262 1.289 . S
O3236 C3235 1.235 . S
C3237 C3239 1.400 . S
C3237 N3240 1.351 . S
C3237 C3242 1.501 . S
C3238 C3239 1.387 . S
C3238 N3241 1.341 . S
C3239 C3237 1.400 . S
C3239 C3238 1.387 . S
N3240 Co3231 2.022 . S
N3240 C3237 1.351 . S
N3240 N3241 1.365 . S
N3241 C3238 1.341 . S
N3241 N3240 1.365 . S
N3241 H3261 0.862 . S
C3242 C3237 1.501 . S
C3242 H3243 0.961 . S
C3242 H3244 0.961 . S
C3242 H3245 0.960 . S
H3243 C3242 0.961 . S
H3244 C3242 0.961 . S
H3245 C3242 0.960 . S
C3246 N3247 1.342 . S
C3246 C3250 1.401 . S
C3246 C3251 1.499 . S
N3247 Co3230 1.989 . S
N3247 C3246 1.342 . S
N3247 N3248 1.388 . S
N3248 Co3231 1.993 . S
N3248 N3247 1.388 . S
N3248 C3249 1.346 . S
C3249 N3248 1.346 . S
C3249 C3250 1.396 . S
C3249 C3259 1.510 . S
C3250 C3246 1.401 . S
C3250 C3249 1.396 . S
C3251 C3246 1.499 . S
C3251 H3252 0.959 . S
C3251 H3253 0.960 . S
C3251 H3254 0.961 . S
H3252 C3251 0.959 . S
H3253 C3251 0.960 . S
H3254 C3251 0.961 . S
O3255 Co3230 1.967 . S
O3255 C3263 1.258 . S
O3256 Co3231 1.941 . S
O3256 C3263 1.266 . S
H3257 C3259 0.959 . S
H3258 C3259 0.961 . S
C3259 C3249 1.510 . S
C3259 H3257 0.959 . S
C3259 H3258 0.961 . S
C3259 H3260 0.960 . S
H3260 C3259 0.960 . S
H3261 N3241 0.862 . S
O3262 Co3230 1.920 . S
O3262 C3235 1.289 . S
C3263 O3255 1.258 . S
C3263 O3256 1.266 . S
C2 C1399 2.443 . S
C36 C2249 2.444 . S
C70 C1467 2.444 . S
C104 C1501 2.443 . S
C138 C2997 2.444 . S
C172 C787 2.444 . S
C2351 C206 2.444 . S
C240 C753 2.443 . S
C274 C209 2.443 . S
C243 C308 2.444 . S
C141 C342 2.444 . S
C175 C376 2.443 . S
C410 C73 2.443 . S
C444 C107 2.444 . S
C5 C478 2.444 . S
C39 C512 2.444 . S
C546 C2793 2.443 . S
C580 C1297 2.444 . S
C614 C2147 2.444 . S
C648 C1229 2.444 . S
C1263 C682 2.444 . S
C716 C1909 2.444 . S
C750 C311 2.444 . S
C784 C379 2.444 . S
C583 C818 2.443 . S
C852 C3065 2.444 . S
C651 C886 2.443 . S
C685 C920 2.444 . S
C954 C2181 2.444 . S
C1603 C988 2.444 . S
C1022 C3167 2.444 . S
C1569 C1056 2.444 . S
C1090 C1025 2.443 . S
C1059 C1124 2.443 . S
C957 C1158 2.444 . S
C991 C1192 2.444 . S
C1226 C889 2.444 . S
C923 C1260 2.444 . S
C821 C1294 2.444 . S
C855 C1328 2.443 . S
C1977 C1362 2.444 . S
C481 C1396 2.444 . S
C2963 C1430 2.444 . S
C1464 C413 2.444 . S
C1498 C447 2.444 . S
C1532 C2725 2.443 . S
C1566 C1127 2.444 . S
C1600 C1195 2.444 . S
C1634 C3031 2.444 . S
C1668 C617 2.444 . S
C1702 C3099 2.444 . S
C1736 C3133 2.444 . S
C1770 C1365 2.443 . S
C2419 C1804 2.444 . S
C719 C1838 2.444 . S
C1872 C2385 2.444 . S
C1841 C1906 2.443 . S
C1940 C1875 2.444 . S
C1974 C1773 2.443 . S
C1807 C2008 2.444 . S
C1705 C2042 2.444 . S
C2076 C1739 2.444 . S
C2110 C1637 2.443 . S
C1671 C2144 2.444 . S
C1161 C2178 2.443 . S
C2212 C2929 2.444 . S
C2246 C515 2.443 . S
C2861 C2280 2.444 . S
C2314 C2895 2.443 . S
C2348 C277 2.444 . S
C2382 C1943 2.444 . S
C2416 C2011 2.443 . S
C2215 C2450 2.443 . S
C2484 C1433 2.444 . S
C2518 C2283 2.444 . S
C2552 C2317 2.443 . S
C549 C2586 2.444 . S
C3235 C2620 2.443 . S
C1535 C2654 2.443 . S
C2688 C3201 2.443 . S
C2657 C2722 2.444 . S
C2756 C2691 2.443 . S
C2589 C2790 2.444 . S
C2623 C2824 2.444 . S
C2521 C2858 2.444 . S
C2892 C2555 2.444 . S
C2926 C2453 2.444 . S
C2487 C2960 2.443 . S
C345 C2994 2.443 . S
C3028 C2113 2.443 . S
C3062 C1331 2.443 . S
C3096 C2045 2.443 . S
C2079 C3130 2.443 . S
C3164 C1093 2.444 . S
C2759 C3198 2.444 . S
C2827 C3232 2.444 . S
C33 C1903 3.899 1_455 S
C985 C67 3.899 1_455 S
C1835 C101 3.899 . S
C1053 C135 3.899 . S
C169 C883 3.899 1_455 S
C1733 C203 3.899 . S
C951 C237 3.899 . S
C1665 C271 3.898 . S
C305 C713 3.899 1_545 S
C3059 C339 3.899 . S
C373 C3093 3.899 . S
C407 C3127 3.899 . S
C2447 C441 3.899 . S
C475 C3195 3.899 1_556 S
C2413 C509 3.900 . S
C2209 C543 3.899 . S
C577 C2175 3.899 1_554 S
C2787 C611 3.899 . S
C2821 C645 3.899 . S
C679 C2855 3.899 . S
C2923 C747 3.899 1_556 S
C781 C2141 3.898 . S
C815 C2073 3.899 . S
C2719 C849 3.899 1_655 S
C2651 C917 3.899 . S
C1019 C2549 3.900 . S
C1087 C2481 3.899 . S
C1529 C1121 3.899 . S
C1155 C2243 3.899 . S
C2277 C1189 3.899 . S
C2311 C1223 3.900 . S
C1257 C3263 3.899 . S
C1291 C2379 3.900 . S
C3229 C1325 3.899 1_565 S
C1359 C3025 3.899 1_556 S
C2991 C1393 3.898 . S
C1427 C1971 3.899 . S
C2005 C1461 3.899 . S
C2039 C1495 3.899 . S
C1563 C2107 3.898 . S
C2957 C1597 3.899 1_545 S
C1631 C2889 3.900 . S
C2617 C1699 3.900 . S
C2685 C1767 3.899 . S
C2515 C1801 3.898 . S
C1869 C2583 3.899 . S
C2345 C1937 3.899 1_565 S
C3161 C2753 3.898 . S
C3182 C9 1.987 . S
C2400 C43 1.987 . S
C2196 C77 1.987 . S
C2434 C111 1.987 . S
C145 C666 1.987 . S
C3148 C179 1.987 . S
C598 C213 1.987 . S
C632 C247 1.987 . S
C281 C972 1.987 . S
C315 C1822 1.987 . S
C349 C1040 1.987 . S
C1890 C383 1.987 . S
C417 C836 1.986 . S
C1686 C451 1.987 . S
C904 C485 1.987 . S
C1754 C519 1.987 . S
C553 C2944 1.987 . S
C587 C1176 1.987 . S
C2026 C621 1.987 . S
C1108 C655 1.987 . S
C689 C1142 1.987 . S
C2060 C723 1.987 . S
C462 C757 1.987 . S
C791 C530 1.986 . S
C2366 C825 1.987 . S
C3216 C859 1.987 . S
C3012 C893 1.986 . S
C3250 C927 1.987 . S
C961 C1482 1.987 . S
C995 C2332 1.987 . S
C1029 C1414 1.987 . S
C1063 C1448 1.987 . S
C156 C1097 1.987 . S
C2638 C1131 1.987 . S
C1165 C224 1.987 . S
C2706 C1199 1.987 . S
C20 C1233 1.987 . S
C2502 C1267 1.986 . S
C88 C1301 1.987 . S
C2570 C1335 1.987 . S
C1369 C2128 1.987 . S
C360 C1403 1.987 . S
C1437 C2842 1.987 . S
C292 C1471 1.987 . S
C326 C1505 1.987 . S
C2876 C1539 1.987 . S
C1573 C1278 1.987 . S
C1607 C1346 1.987 . S
C1550 C1641 1.987 . S
C1675 C768 1.986 . S
C1709 C564 1.987 . S
C1743 C802 1.987 . S
C2298 C1777 1.987 . S
C1811 C1516 1.986 . S
C2230 C1845 1.987 . S
C1879 C2264 1.987 . S
C1913 C2604 1.987 . S
C190 C1947 1.987 . S
C1981 C2672 1.986 . S
C258 C2015 1.987 . S
C2049 C2468 1.987 . S
C2083 C54 1.987 . S
C2536 C2117 1.987 . S
C122 C2151 1.987 . S
C1312 C2185 1.987 . S
C2808 C2219 1.987 . S
C2253 C394 1.987 . S
C2287 C2740 1.987 . S
C2774 C2321 1.987 . S
C2355 C428 1.987 . S
C2094 C2389 1.986 . S
C2162 C2423 1.987 . S
C734 C2457 1.987 . S
C1584 C2491 1.987 . S
C1380 C2525 1.987 . S
C2559 C1618 1.987 . S
C2593 C3114 1.987 . S
C2627 C700 1.987 . S
C2661 C3046 1.986 . S
C3080 C2695 1.987 . S
C1788 C2729 1.987 . S
C1006 C2763 1.987 . S
C1856 C2797 1.987 . S
C1074 C2831 1.986 . S
C1652 C2865 1.987 . S
C2899 C870 1.987 . S
C2933 C1720 1.987 . S
C938 C2967 1.987 . S
C496 C3001 1.987 . S
C1992 C3035 1.986 . S
C3069 C1210 1.987 . S
C1924 C3103 1.986 . S
C3137 C1958 1.987 . S
C1244 C3171 1.987 . S
C3205 C2910 1.987 . S
C2978 C3239 1.987 . S
