# Generated by pormake.
# Topology skb, (5)-cn, num edge types: 1
# Building blocks:
#     Node 0, Type 0, BuildingBlock: BEQFEK_clean_sbu_0, # of connection points: 5
#     Node 1, Type 0, BuildingBlock: BEQFEK_clean_sbu_0, # of connection points: 5
#     Node 2, Type 0, BuildingBlock: BEQFEK_clean_sbu_0, # of connection points: 5
#     Node 3, Type 0, BuildingBlock: BEQFEK_clean_sbu_0, # of connection points: 5
#     Node 4, Type 0, BuildingBlock: BEQFEK_clean_sbu_0, # of connection points: 5
#     Node 5, Type 0, BuildingBlock: BEQFEK_clean_sbu_0, # of connection points: 5
#     Node 6, Type 0, BuildingBlock: BEQFEK_clean_sbu_0, # of connection points: 5
#     Node 7, Type 0, BuildingBlock: BEQFEK_clean_sbu_0, # of connection points: 5
#     Node 8, Type 0, BuildingBlock: BEQFEK_clean_sbu_0, # of connection points: 5
#     Node 9, Type 0, BuildingBlock: BEQFEK_clean_sbu_0, # of connection points: 5
#     Node 10, Type 0, BuildingBlock: BEQFEK_clean_sbu_0, # of connection points: 5
#     Node 11, Type 0, BuildingBlock: BEQFEK_clean_sbu_0, # of connection points: 5
#     Node 12, Type 0, BuildingBlock: BEQFEK_clean_sbu_0, # of connection points: 5
#     Node 13, Type 0, BuildingBlock: BEQFEK_clean_sbu_0, # of connection points: 5
#     Node 14, Type 0, BuildingBlock: BEQFEK_clean_sbu_0, # of connection points: 5
#     Node 15, Type 0, BuildingBlock: BEQFEK_clean_sbu_0, # of connection points: 5
#     Edge 16, Type (0, 0), BuildingBlock: UVAHIK_clean_linker_0, # of connection points: 2
#     Edge 17, Type (0, 0), BuildingBlock: UVAHIK_clean_linker_0, # of connection points: 2
#     Edge 18, Type (0, 0), BuildingBlock: UVAHIK_clean_linker_0, # of connection points: 2
#     Edge 19, Type (0, 0), BuildingBlock: UVAHIK_clean_linker_0, # of connection points: 2
#     Edge 20, Type (0, 0), BuildingBlock: UVAHIK_clean_linker_0, # of connection points: 2
#     Edge 21, Type (0, 0), BuildingBlock: UVAHIK_clean_linker_0, # of connection points: 2
#     Edge 22, Type (0, 0), BuildingBlock: UVAHIK_clean_linker_0, # of connection points: 2
#     Edge 23, Type (0, 0), BuildingBlock: UVAHIK_clean_linker_0, # of connection points: 2
#     Edge 24, Type (0, 0), BuildingBlock: UVAHIK_clean_linker_0, # of connection points: 2
#     Edge 25, Type (0, 0), BuildingBlock: UVAHIK_clean_linker_0, # of connection points: 2
#     Edge 26, Type (0, 0), BuildingBlock: UVAHIK_clean_linker_0, # of connection points: 2
#     Edge 27, Type (0, 0), BuildingBlock: UVAHIK_clean_linker_0, # of connection points: 2
#     Edge 28, Type (0, 0), BuildingBlock: UVAHIK_clean_linker_0, # of connection points: 2
#     Edge 29, Type (0, 0), BuildingBlock: UVAHIK_clean_linker_0, # of connection points: 2
#     Edge 30, Type (0, 0), BuildingBlock: UVAHIK_clean_linker_0, # of connection points: 2
#     Edge 31, Type (0, 0), BuildingBlock: UVAHIK_clean_linker_0, # of connection points: 2
#     Edge 32, Type (0, 0), BuildingBlock: UVAHIK_clean_linker_0, # of connection points: 2
#     Edge 33, Type (0, 0), BuildingBlock: UVAHIK_clean_linker_0, # of connection points: 2
#     Edge 34, Type (0, 0), BuildingBlock: UVAHIK_clean_linker_0, # of connection points: 2
#     Edge 35, Type (0, 0), BuildingBlock: UVAHIK_clean_linker_0, # of connection points: 2
#     Edge 36, Type (0, 0), BuildingBlock: UVAHIK_clean_linker_0, # of connection points: 2
#     Edge 37, Type (0, 0), BuildingBlock: UVAHIK_clean_linker_0, # of connection points: 2
#     Edge 38, Type (0, 0), BuildingBlock: UVAHIK_clean_linker_0, # of connection points: 2
#     Edge 39, Type (0, 0), BuildingBlock: UVAHIK_clean_linker_0, # of connection points: 2
#     Edge 40, Type (0, 0), BuildingBlock: UVAHIK_clean_linker_0, # of connection points: 2
#     Edge 41, Type (0, 0), BuildingBlock: UVAHIK_clean_linker_0, # of connection points: 2
#     Edge 42, Type (0, 0), BuildingBlock: UVAHIK_clean_linker_0, # of connection points: 2
#     Edge 43, Type (0, 0), BuildingBlock: UVAHIK_clean_linker_0, # of connection points: 2
#     Edge 44, Type (0, 0), BuildingBlock: UVAHIK_clean_linker_0, # of connection points: 2
#     Edge 45, Type (0, 0), BuildingBlock: UVAHIK_clean_linker_0, # of connection points: 2
#     Edge 46, Type (0, 0), BuildingBlock: UVAHIK_clean_linker_0, # of connection points: 2
#     Edge 47, Type (0, 0), BuildingBlock: UVAHIK_clean_linker_0, # of connection points: 2
#     Edge 48, Type (0, 0), BuildingBlock: UVAHIK_clean_linker_0, # of connection points: 2
#     Edge 49, Type (0, 0), BuildingBlock: UVAHIK_clean_linker_0, # of connection points: 2
#     Edge 50, Type (0, 0), BuildingBlock: UVAHIK_clean_linker_0, # of connection points: 2
#     Edge 51, Type (0, 0), BuildingBlock: UVAHIK_clean_linker_0, # of connection points: 2
#     Edge 52, Type (0, 0), BuildingBlock: UVAHIK_clean_linker_0, # of connection points: 2
#     Edge 53, Type (0, 0), BuildingBlock: UVAHIK_clean_linker_0, # of connection points: 2
#     Edge 54, Type (0, 0), BuildingBlock: UVAHIK_clean_linker_0, # of connection points: 2
#     Edge 55, Type (0, 0), BuildingBlock: UVAHIK_clean_linker_0, # of connection points: 2
# Relax obj value: 0.049
# Max RMSD: 0.094
# Mean RMSD: 0.094
data_MOF--net-skb--node1-BEQFEK_clean_sbu_0--edge1-UVAHIK_clean_linker_0
_symmetry_space_group_name_H-M    P1
_symmetry_Int_Tables_number       1
_symmetry_cell_setting            triclinic
loop_
_symmetry_equiv_pos_as_xyz
'x, y, z'
_cell_length_a     51.563212
_cell_length_b     39.24805
_cell_length_c     94.287033
_cell_angle_alpha  89.995086
_cell_angle_beta   89.989635
_cell_angle_gamma 89.957058
loop_
_atom_site_label
_atom_site_type_symbol
_atom_site_fract_x
_atom_site_fract_y
_atom_site_fract_z
_atom_type_partial_charge
Co0 Co 0.18571 0.05736 0.10627 0.0
Co1 Co 0.18448 0.0546 0.13956 0.0
C2 C 0.20502 0.11546 0.12443 0.0
O3 O 0.2006 0.10164 0.11244 0.0
O4 O 0.19988 0.10002 0.13597 0.0
C5 C 0.21138 0.05646 0.079 0.0
O6 O 0.23266 0.06076 0.08645 0.0
C7 C 0.20076 0.05572 0.16962 0.0
C8 C 0.17186 0.02109 0.17921 0.0
C9 C 0.19338 0.04077 0.18235 0.0
N10 N 0.18432 0.04525 0.15944 0.0
N11 N 0.16695 0.02487 0.16529 0.0
C12 C 0.22422 0.07711 0.16688 0.0
H13 H 0.23118 0.0732 0.15586 0.0
H14 H 0.23996 0.07091 0.17448 0.0
H15 H 0.21897 0.10435 0.16817 0.0
C16 C 0.21089 0.99 0.11062 0.0
N17 N 0.20179 0.01996 0.11555 0.0
N18 N 0.20224 0.01951 0.12952 0.0
C19 C 0.21224 0.98954 0.13388 0.0
C20 C 0.21787 0.96975 0.12208 0.0
C21 C 0.20927 0.97909 0.09543 0.0
H22 H 0.1916 0.98981 0.09043 0.0
H23 H 0.2265 0.98877 0.08965 0.0
H24 H 0.20884 0.95093 0.09443 0.0
O25 O 0.14812 0.05652 0.11025 0.0
O26 O 0.14749 0.0549 0.13377 0.0
H27 H 0.19611 0.97304 0.15359 0.0
H28 H 0.22828 0.95687 0.15015 0.0
C29 C 0.21538 0.97937 0.14908 0.0
H30 H 0.22376 0.0008 0.15518 0.0
H31 H 0.15204 0.01294 0.15969 0.0
O32 O 0.18973 0.0542 0.08538 0.0
C33 C 0.13569 0.05547 0.12191 0.0
Co34 Co 0.80744 0.02357 0.10513 0.0
Co35 Co 0.80839 0.02776 0.13842 0.0
C36 C 0.78767 0.9664 0.12348 0.0
O37 O 0.79234 0.97963 0.11141 0.0
O38 O 0.79276 0.98228 0.13494 0.0
C39 C 0.7836 0.01819 0.0775 0.0
O40 O 0.76332 0.00735 0.08463 0.0
C41 C 0.79101 0.02784 0.1683 0.0
C42 C 0.82086 0.06042 0.17823 0.0
C43 C 0.79856 0.04207 0.18113 0.0
N44 N 0.80809 0.03742 0.15828 0.0
N45 N 0.82601 0.05659 0.16434 0.0
C46 C 0.76706 0.00759 0.16532 0.0
H47 H 0.76058 0.01184 0.15424 0.0
H48 H 0.75128 0.01452 0.1728 0.0
H49 H 0.77152 0.98011 0.16665 0.0
C50 C 0.78125 0.09024 0.10885 0.0
N51 N 0.79101 0.06104 0.11413 0.0
N52 N 0.79097 0.06266 0.12808 0.0
C53 C 0.78093 0.09289 0.13212 0.0
C54 C 0.77454 0.11145 0.12005 0.0
C55 C 0.7795 0.09815 0.09335 0.0
H56 H 0.76591 0.07999 0.08829 0.0
H57 H 0.77231 0.12434 0.09136 0.0
H58 H 0.79883 0.09481 0.08836 0.0
O59 O 0.84502 0.02453 0.10936 0.0
O60 O 0.8454 0.02701 0.13286 0.0
H61 H 0.80101 0.10786 0.1509 0.0
H62 H 0.77114 0.13056 0.14816 0.0
C63 C 0.78075 0.10544 0.14711 0.0
H64 H 0.7706 0.08672 0.15394 0.0
H65 H 0.84156 0.06755 0.15891 0.0
O66 O 0.804 0.02665 0.0842 0.0
C67 C 0.85732 0.02595 0.12105 0.0
Co68 Co 0.18694 0.02336 0.89932 0.0
Co69 Co 0.1857 0.02772 0.86603 0.0
C70 C 0.20562 0.96571 0.88084 0.0
O71 O 0.20121 0.979 0.89294 0.0
O72 O 0.20077 0.98181 0.8694 0.0
C73 C 0.21033 0.01611 0.92706 0.0
O74 O 0.22991 0.00273 0.92008 0.0
C75 C 0.20218 0.02797 0.83595 0.0
C76 C 0.17234 0.06145 0.8265 0.0
C77 C 0.1943 0.0427 0.82325 0.0
N78 N 0.1856 0.03771 0.8462 0.0
N79 N 0.16769 0.05742 0.84043 0.0
C80 C 0.22593 0.00702 0.83855 0.0
H81 H 0.23282 0.01067 0.8496 0.0
H82 H 0.24156 0.01386 0.83097 0.0
H83 H 0.22107 0.9797 0.83709 0.0
C84 C 0.2141 0.08923 0.89556 0.0
N85 N 0.20384 0.06036 0.89027 0.0
N86 N 0.20369 0.06213 0.87633 0.0
C87 C 0.21405 0.09218 0.87231 0.0
C88 C 0.22088 0.11043 0.88438 0.0
C89 C 0.21622 0.09686 0.91108 0.0
H90 H 0.22886 0.07752 0.91613 0.0
H91 H 0.22465 0.12239 0.91308 0.0
H92 H 0.19675 0.09516 0.91604 0.0
O93 O 0.14932 0.02534 0.89526 0.0
O94 O 0.14877 0.02773 0.87176 0.0
H95 H 0.19378 0.10796 0.8537 0.0
H96 H 0.22405 0.12977 0.85628 0.0
C97 C 0.21408 0.10492 0.85734 0.0
H98 H 0.22378 0.086 0.8504 0.0
H99 H 0.15249 0.0686 0.84608 0.0
O100 O 0.19061 0.02656 0.92024 0.0
C101 C 0.13693 0.02699 0.8836 0.0
Co102 Co 0.80827 0.0574 0.89809 0.0
Co103 Co 0.80993 0.05441 0.8648 0.0
C104 C 0.78855 0.11505 0.87979 0.0
O105 O 0.793 0.10141 0.89182 0.0
O106 O 0.794 0.09962 0.86828 0.0
C107 C 0.78289 0.05787 0.9255 0.0
O108 O 0.76171 0.06435 0.91824 0.0
C109 C 0.7946 0.055 0.83454 0.0
C110 C 0.82388 0.02013 0.82544 0.0
C111 C 0.8025 0.03977 0.82195 0.0
N112 N 0.81061 0.04469 0.84496 0.0
N113 N 0.8282 0.02415 0.8394 0.0
C114 C 0.7711 0.07662 0.83691 0.0
H115 H 0.76365 0.07294 0.84785 0.0
H116 H 0.75568 0.07042 0.82912 0.0
H117 H 0.77651 0.10381 0.83562 0.0
C118 C 0.78326 0.99 0.89376 0.0
N119 N 0.79252 0.01983 0.88879 0.0
N120 N 0.79235 0.01917 0.87483 0.0
C121 C 0.78245 0.98916 0.87049 0.0
C122 C 0.77655 0.96957 0.88231 0.0
C123 C 0.78426 0.97956 0.90902 0.0
H124 H 0.80223 0.98937 0.91402 0.0
H125 H 0.76736 0.99065 0.91466 0.0
H126 H 0.78366 0.95146 0.91023 0.0
O127 O 0.84592 0.057 0.89424 0.0
O128 O 0.84682 0.05529 0.87073 0.0
H129 H 0.79887 0.9723 0.8509 0.0
H130 H 0.76661 0.95638 0.85421 0.0
C131 C 0.77955 0.97881 0.8553 0.0
H132 H 0.77133 0.00021 0.8491 0.0
H133 H 0.84289 0.01232 0.84522 0.0
O134 O 0.80424 0.05396 0.91896 0.0
C135 C 0.85849 0.05607 0.88262 0.0
Co136 Co 0.18572 0.55729 0.60546 0.0
Co137 Co 0.1846 0.5546 0.63878 0.0
C138 C 0.20485 0.61556 0.62353 0.0
O139 O 0.20045 0.6018 0.61152 0.0
O140 O 0.19979 0.60003 0.63506 0.0
C141 C 0.21073 0.55905 0.57801 0.0
O142 O 0.23149 0.56755 0.58527 0.0
C143 C 0.20129 0.5561 0.66875 0.0
C144 C 0.17239 0.52189 0.67859 0.0
C145 C 0.19403 0.54149 0.68157 0.0
N146 N 0.18468 0.54553 0.65868 0.0
N147 N 0.16731 0.5254 0.66467 0.0
C148 C 0.2248 0.57727 0.66583 0.0
H149 H 0.2315 0.57323 0.65477 0.0
H150 H 0.24068 0.57096 0.67333 0.0
H151 H 0.21972 0.60456 0.66713 0.0
C152 C 0.21139 0.49035 0.60983 0.0
N153 N 0.20209 0.52018 0.61479 0.0
N154 N 0.20241 0.51961 0.62876 0.0
C155 C 0.2124 0.48963 0.6331 0.0
C156 C 0.21821 0.46997 0.62128 0.0
C157 C 0.21021 0.47985 0.59458 0.0
H158 H 0.19178 0.48877 0.58978 0.0
H159 H 0.22651 0.49189 0.58877 0.0
H160 H 0.21164 0.45182 0.59334 0.0
O161 O 0.14811 0.55615 0.60954 0.0
O162 O 0.14763 0.55458 0.63307 0.0
H163 H 0.19587 0.47321 0.65272 0.0
H164 H 0.22795 0.45658 0.64939 0.0
C165 C 0.21525 0.47927 0.64829 0.0
H166 H 0.22373 0.50052 0.65446 0.0
H167 H 0.15226 0.51346 0.65918 0.0
O168 O 0.18961 0.55349 0.58457 0.0
C169 C 0.13576 0.55503 0.62123 0.0
Co170 Co 0.80738 0.52372 0.60601 0.0
Co171 Co 0.80866 0.52639 0.63934 0.0
C172 C 0.7879 0.4657 0.62417 0.0
O173 O 0.79235 0.47949 0.61218 0.0
O174 O 0.7931 0.48109 0.63572 0.0
C175 C 0.78187 0.52398 0.57867 0.0
O176 O 0.76065 0.51864 0.58606 0.0
C177 C 0.7925 0.5252 0.66945 0.0
C178 C 0.8215 0.55973 0.67899 0.0
C179 C 0.79998 0.54008 0.68217 0.0
N180 N 0.80888 0.53568 0.65923 0.0
N181 N 0.82631 0.55601 0.66506 0.0
C182 C 0.76902 0.50382 0.66674 0.0
H183 H 0.76199 0.50778 0.65574 0.0
H184 H 0.75334 0.50999 0.67439 0.0
H185 H 0.77429 0.47657 0.668 0.0
C186 C 0.78238 0.59112 0.61041 0.0
N187 N 0.79142 0.56113 0.61534 0.0
N188 N 0.79103 0.5616 0.62931 0.0
C189 C 0.78117 0.59163 0.63368 0.0
C190 C 0.77556 0.61145 0.62187 0.0
C191 C 0.78389 0.60189 0.5952 0.0
H192 H 0.80172 0.59152 0.59024 0.0
H193 H 0.76684 0.59166 0.58943 0.0
H194 H 0.78392 0.63004 0.59412 0.0
O195 O 0.84497 0.52432 0.61 0.0
O196 O 0.84563 0.52586 0.63353 0.0
H197 H 0.79743 0.60809 0.65335 0.0
H198 H 0.76528 0.62438 0.64996 0.0
C199 C 0.77813 0.60183 0.64888 0.0
H200 H 0.76973 0.58044 0.655 0.0
H201 H 0.8412 0.56793 0.65943 0.0
O202 O 0.8034 0.52708 0.58511 0.0
C203 C 0.85741 0.52525 0.62166 0.0
Co204 Co 0.18668 0.52309 0.39842 0.0
Co205 Co 0.18521 0.52614 0.36511 0.0
C206 C 0.20632 0.46538 0.38008 0.0
O207 O 0.20182 0.47902 0.3921 0.0
O208 O 0.20104 0.48088 0.36856 0.0
C209 C 0.21224 0.52316 0.42579 0.0
O210 O 0.23351 0.5179 0.41843 0.0
C211 C 0.20054 0.52567 0.33482 0.0
C212 C 0.17126 0.56062 0.32576 0.0
C213 C 0.19263 0.54097 0.32225 0.0
N214 N 0.18455 0.53594 0.34526 0.0
N215 N 0.16697 0.55653 0.33973 0.0
C216 C 0.22401 0.50398 0.33715 0.0
H217 H 0.23146 0.50753 0.34809 0.0
H218 H 0.23944 0.51023 0.32937 0.0
H219 H 0.21857 0.47682 0.33581 0.0
C220 C 0.21146 0.59065 0.39411 0.0
N221 N 0.20243 0.5607 0.38914 0.0
N222 N 0.20276 0.56131 0.37518 0.0
C223 C 0.21256 0.59139 0.37085 0.0
C224 C 0.2182 0.61109 0.38267 0.0
C225 C 0.21009 0.60124 0.40935 0.0
H226 H 0.1923 0.59083 0.41433 0.0
H227 H 0.22719 0.59091 0.41505 0.0
H228 H 0.21006 0.62937 0.41048 0.0
O229 O 0.14905 0.52355 0.39454 0.0
O230 O 0.14831 0.52524 0.37103 0.0
H231 H 0.1963 0.60825 0.35122 0.0
H232 H 0.22854 0.62413 0.3546 0.0
C233 C 0.21558 0.60171 0.35566 0.0
H234 H 0.22383 0.58029 0.34948 0.0
H235 H 0.15229 0.56834 0.34557 0.0
O236 O 0.19074 0.52625 0.41933 0.0
C237 C 0.13656 0.52447 0.38291 0.0
Co238 Co 0.80807 0.55734 0.39902 0.0
Co239 Co 0.80955 0.55433 0.36571 0.0
C240 C 0.78954 0.61571 0.38073 0.0
O241 O 0.79377 0.60201 0.39277 0.0
O242 O 0.79454 0.59998 0.36923 0.0
C243 C 0.78282 0.55961 0.42645 0.0
O244 O 0.76209 0.56825 0.41918 0.0
C245 C 0.79396 0.55545 0.33551 0.0
C246 C 0.82298 0.52046 0.32623 0.0
C247 C 0.80168 0.54039 0.32286 0.0
N248 N 0.80999 0.54479 0.34586 0.0
N249 N 0.82741 0.52417 0.3402 0.0
C250 C 0.77061 0.57727 0.33801 0.0
H251 H 0.76339 0.57374 0.349 0.0
H252 H 0.75499 0.57109 0.33033 0.0
H253 H 0.7761 0.6044 0.33663 0.0
C254 C 0.78192 0.49074 0.39466 0.0
N255 N 0.79154 0.52037 0.3897 0.0
N256 N 0.79137 0.5197 0.37573 0.0
C257 C 0.78116 0.48988 0.37139 0.0
C258 C 0.77504 0.4704 0.38322 0.0
C259 C 0.78282 0.48034 0.40993 0.0
H260 H 0.80125 0.48899 0.4148 0.0
H261 H 0.76653 0.49268 0.41566 0.0
H262 H 0.78113 0.45233 0.4112 0.0
O263 O 0.84573 0.55562 0.39513 0.0
O264 O 0.84641 0.55402 0.37161 0.0
H265 H 0.79772 0.47284 0.35187 0.0
H266 H 0.76537 0.45709 0.3551 0.0
C267 C 0.77837 0.47946 0.35621 0.0
H268 H 0.77027 0.50087 0.34996 0.0
H269 H 0.84208 0.5121 0.34595 0.0
O270 O 0.80392 0.55381 0.4199 0.0
C271 C 0.85818 0.55435 0.38348 0.0
Co272 Co 0.68579 0.05786 0.60536 0.0
Co273 Co 0.68477 0.05361 0.63862 0.0
C274 C 0.70508 0.11526 0.62366 0.0
O275 O 0.70056 0.10199 0.61158 0.0
O276 O 0.70005 0.0993 0.6351 0.0
C277 C 0.70925 0.06387 0.57765 0.0
O278 O 0.72927 0.07592 0.58466 0.0
C279 C 0.70266 0.05358 0.66835 0.0
C280 C 0.6728 0.02146 0.67855 0.0
C281 C 0.69529 0.03959 0.68126 0.0
N282 N 0.6853 0.04408 0.65847 0.0
N283 N 0.66738 0.02519 0.66468 0.0
C284 C 0.72669 0.07347 0.66517 0.0
H285 H 0.73281 0.06913 0.65403 0.0
H286 H 0.74262 0.06629 0.6725 0.0
H287 H 0.72251 0.10102 0.66653 0.0
C288 C 0.71272 0.9917 0.60907 0.0
N289 N 0.70257 0.02066 0.61436 0.0
N290 N 0.70246 0.01891 0.62831 0.0
C291 C 0.71269 0.98878 0.63233 0.0
C292 C 0.71945 0.97047 0.62026 0.0
C293 C 0.71487 0.98406 0.59356 0.0
H294 H 0.72799 0.00293 0.58857 0.0
H295 H 0.72284 0.95826 0.59155 0.0
H296 H 0.69552 0.98649 0.58851 0.0
O297 O 0.64821 0.05638 0.6096 0.0
O298 O 0.64775 0.05381 0.63311 0.0
H299 H 0.69242 0.97412 0.6511 0.0
H300 H 0.72195 0.9507 0.6483 0.0
C301 C 0.7127 0.97606 0.64729 0.0
H302 H 0.72311 0.99447 0.65415 0.0
H303 H 0.65165 0.01433 0.65938 0.0
O304 O 0.68917 0.05459 0.58445 0.0
C305 C 0.63587 0.05474 0.62128 0.0
Co306 Co 0.30745 0.02322 0.60592 0.0
Co307 Co 0.30866 0.02717 0.6392 0.0
C308 C 0.28781 0.96592 0.62418 0.0
O309 O 0.29238 0.97929 0.61212 0.0
O310 O 0.29301 0.98166 0.63565 0.0
C311 C 0.28386 0.01789 0.5782 0.0
O312 O 0.26362 0.00638 0.58518 0.0
C313 C 0.29127 0.02713 0.66907 0.0
C314 C 0.32118 0.05955 0.67904 0.0
C315 C 0.29884 0.04127 0.68192 0.0
N316 N 0.30839 0.03669 0.65907 0.0
N317 N 0.32634 0.05577 0.66514 0.0
C318 C 0.26729 0.00699 0.66607 0.0
H319 H 0.26083 0.01133 0.65499 0.0
H320 H 0.25151 0.01396 0.67354 0.0
H321 H 0.27167 0.97949 0.66738 0.0
C322 C 0.28113 0.08971 0.60973 0.0
N323 N 0.29104 0.06057 0.61499 0.0
N324 N 0.29117 0.06219 0.62894 0.0
C325 C 0.28114 0.09242 0.633 0.0
C326 C 0.27455 0.11093 0.62095 0.0
C327 C 0.27906 0.09752 0.59423 0.0
H328 H 0.26567 0.07901 0.58924 0.0
H329 H 0.27147 0.12352 0.59226 0.0
H330 H 0.29837 0.09465 0.58918 0.0
O331 O 0.34502 0.02413 0.6101 0.0
O332 O 0.34568 0.02649 0.6336 0.0
H333 H 0.3014 0.10726 0.65174 0.0
H334 H 0.2716 0.13018 0.64904 0.0
C335 C 0.2811 0.10499 0.64798 0.0
H336 H 0.27093 0.08634 0.65484 0.0
H337 H 0.34192 0.06671 0.65973 0.0
O338 O 0.30405 0.02661 0.58502 0.0
C339 C 0.35746 0.02549 0.62174 0.0
Co340 Co 0.68672 0.023 0.39847 0.0
Co341 Co 0.68544 0.02742 0.3652 0.0
C342 C 0.70696 0.9663 0.37997 0.0
O343 O 0.70223 0.97944 0.39206 0.0
O344 O 0.70161 0.98211 0.36853 0.0
C345 C 0.71096 0.01861 0.42603 0.0
O346 O 0.73166 0.00929 0.41888 0.0
C347 C 0.7019 0.02811 0.33512 0.0
C348 C 0.67167 0.06101 0.32569 0.0
C349 C 0.69384 0.04269 0.32244 0.0
N350 N 0.68522 0.03751 0.34538 0.0
N351 N 0.66708 0.05688 0.33962 0.0
C352 C 0.72589 0.00763 0.33772 0.0
H353 H 0.73288 0.01168 0.34873 0.0
H354 H 0.74136 0.01456 0.33006 0.0
H355 H 0.72129 0.98021 0.33639 0.0
C356 C 0.71212 0.09017 0.3948 0.0
N357 N 0.70263 0.06085 0.3895 0.0
N358 N 0.70263 0.06253 0.37555 0.0
C359 C 0.71243 0.0929 0.37154 0.0
C360 C 0.71864 0.11149 0.38361 0.0
C361 C 0.71382 0.09804 0.4103 0.0
H362 H 0.72809 0.08061 0.41527 0.0
H363 H 0.72021 0.12457 0.41231 0.0
H364 H 0.6947 0.09363 0.41538 0.0
O365 O 0.64912 0.02339 0.39439 0.0
O366 O 0.64847 0.02602 0.3709 0.0
H367 H 0.69239 0.10831 0.3528 0.0
H368 H 0.7225 0.13042 0.3555 0.0
C369 C 0.71265 0.10548 0.35655 0.0
H370 H 0.72256 0.08659 0.34969 0.0
H371 H 0.65175 0.06774 0.34527 0.0
O372 O 0.69025 0.02581 0.41937 0.0
C373 C 0.63668 0.0247 0.38275 0.0
Co374 Co 0.30829 0.05752 0.39902 0.0
Co375 Co 0.30952 0.05298 0.36578 0.0
C376 C 0.28893 0.1147 0.38051 0.0
O377 O 0.29346 0.10152 0.39261 0.0
O378 O 0.29403 0.09866 0.36909 0.0
C379 C 0.28408 0.06279 0.42656 0.0
O380 O 0.26365 0.07293 0.41938 0.0
C381 C 0.29273 0.05255 0.33581 0.0
C382 C 0.32281 0.01976 0.32616 0.0
C383 C 0.3006 0.03815 0.32306 0.0
N384 N 0.30954 0.043 0.34597 0.0
N385 N 0.32759 0.02368 0.34009 0.0
C386 C 0.26877 0.07298 0.33857 0.0
H387 H 0.26204 0.06896 0.34963 0.0
H388 H 0.25313 0.06598 0.33103 0.0
H389 H 0.2733 0.10041 0.33719 0.0
C390 C 0.28176 0.99105 0.39537 0.0
N391 N 0.29176 0.02008 0.39007 0.0
N392 N 0.29183 0.01834 0.37612 0.0
C393 C 0.28163 0.9882 0.37211 0.0
C394 C 0.27501 0.96984 0.38418 0.0
C395 C 0.27976 0.98333 0.41088 0.0
H396 H 0.26591 0.00138 0.41581 0.0
H397 H 0.27271 0.9571 0.41289 0.0
H398 H 0.29895 0.98695 0.41598 0.0
O399 O 0.34591 0.05611 0.39495 0.0
O400 O 0.34647 0.05348 0.37145 0.0
H401 H 0.30174 0.97287 0.35338 0.0
H402 H 0.27173 0.95052 0.3561 0.0
C403 C 0.28148 0.97554 0.35713 0.0
H404 H 0.27148 0.99433 0.35026 0.0
H405 H 0.34299 0.01273 0.34565 0.0
O406 O 0.30466 0.0548 0.41993 0.0
C407 C 0.35831 0.0545 0.38329 0.0
Co408 Co 0.6859 0.55738 0.10623 0.0
Co409 Co 0.68453 0.55509 0.13952 0.0
C410 C 0.7047 0.616 0.12419 0.0
O411 O 0.70044 0.602 0.11222 0.0
O412 O 0.69959 0.60063 0.13576 0.0
C413 C 0.71116 0.55782 0.07882 0.0
O414 O 0.73222 0.56495 0.08608 0.0
C415 C 0.70111 0.55683 0.16951 0.0
C416 C 0.6722 0.52262 0.17935 0.0
C417 C 0.69383 0.54225 0.18233 0.0
N418 N 0.68452 0.54621 0.15943 0.0
N419 N 0.66714 0.52609 0.16543 0.0
C420 C 0.72463 0.57797 0.16658 0.0
H421 H 0.73132 0.57393 0.15552 0.0
H422 H 0.7405 0.57165 0.17408 0.0
H423 H 0.71957 0.60528 0.16788 0.0
C424 C 0.71187 0.49069 0.11076 0.0
N425 N 0.70235 0.52047 0.11564 0.0
N426 N 0.70258 0.52007 0.12961 0.0
C427 C 0.71275 0.49027 0.13403 0.0
C428 C 0.7188 0.47056 0.12226 0.0
C429 C 0.71077 0.47988 0.09554 0.0
H430 H 0.69259 0.48919 0.0906 0.0
H431 H 0.72742 0.49121 0.08978 0.0
H432 H 0.71173 0.45177 0.09444 0.0
O433 O 0.6483 0.55606 0.11022 0.0
O434 O 0.64756 0.55477 0.13374 0.0
H435 H 0.69621 0.47404 0.15368 0.0
H436 H 0.72835 0.4575 0.15041 0.0
C437 C 0.71559 0.48011 0.14925 0.0
H438 H 0.724 0.50149 0.15538 0.0
H439 H 0.65213 0.5141 0.15993 0.0
O440 O 0.68985 0.55355 0.08536 0.0
C441 C 0.63582 0.555 0.12186 0.0
Co442 Co 0.30751 0.52296 0.10518 0.0
Co443 Co 0.30847 0.5274 0.13847 0.0
C444 C 0.2878 0.4659 0.12359 0.0
O445 O 0.29244 0.47904 0.1115 0.0
O446 O 0.2929 0.48188 0.13502 0.0
C447 C 0.28372 0.51722 0.07757 0.0
O448 O 0.26351 0.50621 0.08471 0.0
C449 C 0.29081 0.52761 0.16826 0.0
C450 C 0.32074 0.55981 0.17834 0.0
C451 C 0.2983 0.54165 0.18114 0.0
N452 N 0.30806 0.5371 0.15832 0.0
N453 N 0.32602 0.55605 0.16445 0.0
C454 C 0.26678 0.50763 0.16518 0.0
H455 H 0.26048 0.51199 0.15407 0.0
H456 H 0.25094 0.51472 0.17259 0.0
H457 H 0.27104 0.4801 0.16651 0.0
C458 C 0.2811 0.58955 0.10883 0.0
N459 N 0.29101 0.56046 0.11414 0.0
N460 N 0.29104 0.56222 0.12809 0.0
C461 C 0.28093 0.59244 0.13209 0.0
C462 C 0.2744 0.61083 0.12001 0.0
C463 C 0.27913 0.59722 0.09332 0.0
H464 H 0.26566 0.57878 0.08834 0.0
H465 H 0.27168 0.62327 0.09129 0.0
H466 H 0.29844 0.59411 0.08828 0.0
O467 O 0.34511 0.52398 0.10943 0.0
O468 O 0.34549 0.52668 0.13293 0.0
H469 H 0.30109 0.60718 0.15088 0.0
H470 H 0.27149 0.63044 0.14807 0.0
C471 C 0.28083 0.60513 0.14706 0.0
H472 H 0.27045 0.58665 0.1539 0.0
H473 H 0.34169 0.56689 0.15909 0.0
O474 O 0.30408 0.52592 0.08425 0.0
C475 C 0.35741 0.52551 0.12112 0.0
Co476 Co 0.68675 0.52304 0.89933 0.0
Co477 Co 0.68562 0.52756 0.86606 0.0
C478 C 0.70587 0.4657 0.88081 0.0
O479 O 0.70136 0.4789 0.89291 0.0
O480 O 0.70093 0.4818 0.86938 0.0
C481 C 0.71086 0.51733 0.9269 0.0
O482 O 0.73115 0.50669 0.91972 0.0
C483 C 0.70234 0.52792 0.83605 0.0
C484 C 0.67234 0.56093 0.82646 0.0
C485 C 0.69446 0.54241 0.82331 0.0
N486 N 0.6856 0.53756 0.84624 0.0
N487 N 0.6676 0.557 0.84039 0.0
C488 C 0.72622 0.5073 0.83876 0.0
H489 H 0.73299 0.51119 0.84982 0.0
H490 H 0.74186 0.51425 0.83121 0.0
H491 H 0.72157 0.47991 0.83735 0.0
C492 C 0.71325 0.58949 0.89566 0.0
N493 N 0.70336 0.5604 0.89036 0.0
N494 N 0.70335 0.56213 0.87641 0.0
C495 C 0.7135 0.5923 0.8724 0.0
C496 C 0.72 0.61072 0.88448 0.0
C497 C 0.71503 0.5973 0.91117 0.0
H498 H 0.72868 0.57912 0.9162 0.0
H499 H 0.7222 0.62348 0.91318 0.0
H500 H 0.69573 0.5939 0.91618 0.0
O501 O 0.64913 0.52459 0.89524 0.0
O502 O 0.64866 0.5272 0.87174 0.0
H503 H 0.69339 0.60782 0.8537 0.0
H504 H 0.72352 0.6299 0.85638 0.0
C505 C 0.71366 0.60496 0.85743 0.0
H506 H 0.72354 0.5861 0.85054 0.0
H507 H 0.65227 0.56804 0.84598 0.0
O508 O 0.69039 0.52579 0.92025 0.0
C509 C 0.63678 0.52623 0.88357 0.0
Co510 Co 0.30817 0.5573 0.8982 0.0
Co511 Co 0.30984 0.55458 0.86492 0.0
C512 C 0.28839 0.61507 0.88 0.0
O513 O 0.29283 0.60136 0.89202 0.0
O514 O 0.29388 0.59972 0.86848 0.0
C515 C 0.28277 0.55735 0.92561 0.0
O516 O 0.26157 0.56371 0.91834 0.0
C517 C 0.29427 0.55554 0.83471 0.0
C518 C 0.32371 0.52122 0.8254 0.0
C519 C 0.30217 0.5407 0.82205 0.0
N520 N 0.31043 0.54518 0.84505 0.0
N521 N 0.32811 0.52496 0.83937 0.0
C522 C 0.27064 0.57682 0.83723 0.0
H523 H 0.26336 0.5729 0.84819 0.0
H524 H 0.25516 0.57052 0.82949 0.0
H525 H 0.27582 0.60409 0.83598 0.0
C526 C 0.28335 0.48983 0.89377 0.0
N527 N 0.29248 0.51977 0.88885 0.0
N528 N 0.2923 0.51923 0.87488 0.0
C529 C 0.28252 0.48918 0.8705 0.0
C530 C 0.27672 0.46944 0.8823 0.0
C531 C 0.28448 0.47924 0.90902 0.0
H532 H 0.3024 0.48919 0.91401 0.0
H533 H 0.26753 0.49006 0.91469 0.0
H534 H 0.28408 0.45112 0.91017 0.0
O535 O 0.34582 0.55698 0.89434 0.0
O536 O 0.34674 0.55542 0.87083 0.0
H537 H 0.29904 0.4727 0.85088 0.0
H538 H 0.26687 0.45639 0.85417 0.0
C539 C 0.27967 0.47894 0.8553 0.0
H540 H 0.27132 0.50032 0.84913 0.0
H541 H 0.34292 0.51317 0.84511 0.0
O542 O 0.30415 0.55367 0.91907 0.0
C543 C 0.35839 0.55611 0.88273 0.0
C544 C 0.21409 0.0742 0.202 0.0
C545 C 0.20606 0.04281 0.19636 0.0
C546 C 0.22491 0.07581 0.21561 0.0
C547 C 0.26001 0.02547 0.24173 0.0
H548 H 0.22955 0.08462 0.27017 0.0
C549 C 0.28692 0.01105 0.30043 0.0
C550 C 0.28836 0.04029 0.30893 0.0
C551 C 0.27684 0.01286 0.28671 0.0
C552 C 0.23863 0.06837 0.26233 0.0
H553 H 0.20309 0.9886 0.20035 0.0
H554 H 0.22265 0.99128 0.22394 0.0
H555 H 0.21318 0.08596 0.24585 0.0
H556 H 0.2809 0.09455 0.30974 0.0
H557 H 0.26394 0.0981 0.2856 0.0
H558 H 0.28586 0.00832 0.2579 0.0
C559 C 0.22047 0.0146 0.2179 0.0
C560 C 0.22916 0.06911 0.24842 0.0
C561 C 0.20921 0.01309 0.20446 0.0
C562 C 0.27949 0.07148 0.30349 0.0
C563 C 0.26978 0.07346 0.28964 0.0
C564 C 0.26976 0.02512 0.25554 0.0
C565 C 0.22826 0.04597 0.22364 0.0
C566 C 0.23951 0.04727 0.23807 0.0
C567 C 0.26851 0.04418 0.28102 0.0
C568 C 0.25891 0.0461 0.26611 0.0
H569 H 0.21145 0.09753 0.19605 0.0
H570 H 0.23078 0.10028 0.21983 0.0
H571 H 0.26852 0.00868 0.23388 0.0
H572 H 0.29352 0.98665 0.30442 0.0
H573 H 0.27558 0.98958 0.2806 0.0
C574 C 0.77706 0.00875 0.20056 0.0
C575 C 0.78574 0.04004 0.19511 0.0
C576 C 0.76643 0.00699 0.21421 0.0
C577 C 0.73288 0.05723 0.24093 0.0
H578 H 0.76331 0.99654 0.26879 0.0
C579 C 0.70737 0.07026 0.29987 0.0
C580 C 0.70589 0.04081 0.30825 0.0
C581 C 0.71715 0.06871 0.28609 0.0
C582 C 0.75423 0.01323 0.26112 0.0
H583 H 0.78998 0.09393 0.19945 0.0
H584 H 0.77066 0.09103 0.22312 0.0
H585 H 0.779 0.99559 0.24434 0.0
H586 H 0.71303 0.98647 0.30878 0.0
H587 H 0.72943 0.98335 0.2845 0.0
H588 H 0.70766 0.07442 0.25738 0.0
C589 C 0.77223 0.06791 0.2169 0.0
C590 C 0.76331 0.01271 0.24712 0.0
C591 C 0.78333 0.06953 0.20342 0.0
C592 C 0.71446 0.00968 0.30262 0.0
C593 C 0.72385 0.00796 0.28869 0.0
C594 C 0.72348 0.05736 0.25481 0.0
C595 C 0.76388 0.0366 0.22247 0.0
C596 C 0.75297 0.0351 0.23698 0.0
C597 C 0.72512 0.03745 0.28019 0.0
C598 C 0.73433 0.03581 0.26519 0.0
H599 H 0.77913 0.98556 0.19444 0.0
H600 H 0.76011 0.98257 0.2183 0.0
H601 H 0.72439 0.07447 0.23324 0.0
H602 H 0.701 0.09462 0.30402 0.0
H603 H 0.71845 0.09214 0.28008 0.0
C604 C 0.28367 0.06874 0.70421 0.0
C605 C 0.28599 0.03926 0.69589 0.0
C606 C 0.27255 0.06714 0.7177 0.0
C607 C 0.26342 0.01188 0.74789 0.0
H608 H 0.20813 0.0741 0.7582 0.0
C609 C 0.21467 0.00939 0.80343 0.0
C610 C 0.20634 0.04063 0.80907 0.0
C611 C 0.22402 0.00754 0.7895 0.0
C612 C 0.22385 0.05689 0.75562 0.0
H613 H 0.2792 0.98483 0.69519 0.0
H614 H 0.26015 0.98187 0.71904 0.0
H615 H 0.2248 0.07402 0.73404 0.0
H616 H 0.20186 0.0945 0.80483 0.0
H617 H 0.21923 0.09178 0.78088 0.0
H618 H 0.26338 0.99568 0.76956 0.0
C619 C 0.26655 0.00627 0.71497 0.0
C620 C 0.23321 0.05669 0.74172 0.0
C621 C 0.2772 0.00801 0.70132 0.0
C622 C 0.20804 0.07005 0.80069 0.0
C623 C 0.21777 0.06836 0.7869 0.0
C624 C 0.25437 0.01246 0.76189 0.0
C625 C 0.2641 0.03586 0.72325 0.0
C626 C 0.25318 0.03438 0.73776 0.0
C627 C 0.22548 0.037 0.78099 0.0
C628 C 0.23462 0.03524 0.76598 0.0
H629 H 0.2904 0.09311 0.70027 0.0
H630 H 0.27106 0.09026 0.72393 0.0
H631 H 0.27901 0.99463 0.74509 0.0
H632 H 0.21308 0.9862 0.8096 0.0
H633 H 0.22941 0.98286 0.78531 0.0
C634 C 0.71072 0.01232 0.70355 0.0
C635 C 0.70843 0.04168 0.69514 0.0
C636 C 0.72219 0.01402 0.71694 0.0
C637 C 0.73269 0.06993 0.74681 0.0
H638 H 0.7875 0.00685 0.75699 0.0
C639 C 0.78281 0.07306 0.80193 0.0
C640 C 0.79066 0.04177 0.80772 0.0
C641 C 0.77331 0.07472 0.78803 0.0
C642 C 0.77193 0.02432 0.75444 0.0
H643 H 0.71562 0.09601 0.69421 0.0
H644 H 0.73532 0.09914 0.71789 0.0
H645 H 0.77016 0.00656 0.73297 0.0
H646 H 0.79425 0.98766 0.80377 0.0
H647 H 0.77667 0.9901 0.77986 0.0
H648 H 0.73356 0.08679 0.76838 0.0
C649 C 0.72861 0.07475 0.71395 0.0
C650 C 0.76218 0.02429 0.74063 0.0
C651 C 0.71759 0.07291 0.7004 0.0
C652 C 0.78846 0.01214 0.7995 0.0
C653 C 0.77859 0.01366 0.78574 0.0
C654 C 0.74214 0.06959 0.76073 0.0
C655 C 0.73105 0.04528 0.72231 0.0
C656 C 0.74236 0.0469 0.73672 0.0
C657 C 0.77124 0.04503 0.77971 0.0
C658 C 0.76173 0.04653 0.76477 0.0
H659 H 0.7037 0.98797 0.69973 0.0
H660 H 0.72366 0.991 0.72323 0.0
H661 H 0.71723 0.08742 0.74406 0.0
H662 H 0.78481 0.09639 0.80797 0.0
H663 H 0.76823 0.0994 0.78372 0.0
C664 C 0.21523 0.57524 0.70097 0.0
C665 C 0.2069 0.54379 0.69552 0.0
C666 C 0.22626 0.57712 0.71451 0.0
C667 C 0.26131 0.52699 0.74076 0.0
H668 H 0.23197 0.58769 0.76897 0.0
C669 C 0.28831 0.51352 0.79947 0.0
C670 C 0.29022 0.54292 0.80784 0.0
C671 C 0.27829 0.51526 0.78574 0.0
C672 C 0.24074 0.571 0.76119 0.0
H673 H 0.20359 0.48975 0.69981 0.0
H674 H 0.2235 0.49289 0.7233 0.0
H675 H 0.21527 0.58856 0.74472 0.0
H676 H 0.28369 0.5974 0.80841 0.0
H677 H 0.2668 0.60081 0.78423 0.0
H678 H 0.28716 0.50981 0.75692 0.0
C679 C 0.22141 0.51605 0.71715 0.0
C680 C 0.23109 0.57148 0.74731 0.0
C681 C 0.20995 0.51428 0.70376 0.0
C682 C 0.28192 0.57422 0.80225 0.0
C683 C 0.27225 0.57612 0.78839 0.0
C684 C 0.27124 0.52688 0.75453 0.0
C685 C 0.22952 0.54749 0.72269 0.0
C686 C 0.24102 0.54907 0.73705 0.0
C687 C 0.27047 0.54665 0.77991 0.0
C688 C 0.26078 0.54841 0.76502 0.0
H689 H 0.21266 0.59843 0.6949 0.0
H690 H 0.23238 0.60165 0.71858 0.0
H691 H 0.26951 0.50976 0.73297 0.0
H692 H 0.29445 0.48902 0.80358 0.0
H693 H 0.27663 0.49187 0.77973 0.0
C694 C 0.77943 0.50657 0.70186 0.0
C695 C 0.78743 0.53798 0.69622 0.0
C696 C 0.76879 0.5049 0.71551 0.0
C697 C 0.73413 0.5552 0.74185 0.0
H698 H 0.76482 0.49575 0.7701 0.0
C699 C 0.70807 0.56951 0.80066 0.0
C700 C 0.70662 0.54025 0.80915 0.0
C701 C 0.71799 0.5677 0.78691 0.0
C702 C 0.75568 0.51209 0.76231 0.0
H703 H 0.79052 0.59215 0.70026 0.0
H704 H 0.77127 0.58936 0.72393 0.0
H705 H 0.78084 0.49447 0.7457 0.0
H706 H 0.71395 0.48597 0.80991 0.0
H707 H 0.73064 0.48241 0.7857 0.0
H708 H 0.70857 0.5724 0.75814 0.0
C709 C 0.77334 0.56608 0.71785 0.0
C710 C 0.76495 0.51138 0.74835 0.0
C711 C 0.78442 0.56765 0.70436 0.0
C712 C 0.71536 0.50905 0.80367 0.0
C713 C 0.72491 0.50707 0.78978 0.0
C714 C 0.72458 0.55553 0.7557 0.0
C715 C 0.76558 0.53469 0.72359 0.0
C716 C 0.75451 0.53333 0.73807 0.0
C717 C 0.72615 0.53637 0.78117 0.0
C718 C 0.73553 0.53445 0.76621 0.0
H719 H 0.78196 0.48327 0.69587 0.0
H720 H 0.76293 0.48041 0.71973 0.0
H721 H 0.72556 0.57208 0.73405 0.0
H722 H 0.70157 0.59393 0.80468 0.0
H723 H 0.71924 0.591 0.7808 0.0
C724 C 0.2763 0.50829 0.20039 0.0
C725 C 0.28535 0.53954 0.19508 0.0
C726 C 0.26548 0.50641 0.21399 0.0
C727 C 0.23228 0.55685 0.24083 0.0
H728 H 0.26118 0.49418 0.26843 0.0
C729 C 0.20659 0.56871 0.2998 0.0
C730 C 0.20443 0.53905 0.30799 0.0
C731 C 0.21635 0.56726 0.28601 0.0
C732 C 0.25252 0.51143 0.26082 0.0
H733 H 0.2901 0.59324 0.19966 0.0
H734 H 0.2705 0.59016 0.22325 0.0
H735 H 0.27721 0.49364 0.24404 0.0
H736 H 0.2103 0.48443 0.30818 0.0
H737 H 0.22669 0.48154 0.2839 0.0
H738 H 0.20716 0.57424 0.25729 0.0
C739 C 0.27189 0.56715 0.21695 0.0
C740 C 0.2618 0.51115 0.24686 0.0
C741 C 0.28316 0.56888 0.2035 0.0
C742 C 0.21225 0.50779 0.30216 0.0
C743 C 0.22165 0.5062 0.28824 0.0
C744 C 0.22269 0.55677 0.25468 0.0
C745 C 0.26314 0.53587 0.22236 0.0
C746 C 0.25202 0.53423 0.23682 0.0
C747 C 0.22365 0.53593 0.27993 0.0
C748 C 0.233 0.5345 0.26496 0.0
H749 H 0.2782 0.4852 0.19419 0.0
H750 H 0.25885 0.48202 0.21795 0.0
H751 H 0.22421 0.57462 0.23321 0.0
H752 H 0.20081 0.59318 0.30409 0.0
H753 H 0.21822 0.59085 0.28015 0.0
C754 C 0.71512 0.57592 0.20172 0.0
C755 C 0.70671 0.54451 0.19628 0.0
C756 C 0.72618 0.57775 0.21527 0.0
C757 C 0.76105 0.52734 0.24152 0.0
H758 H 0.73198 0.58832 0.26972 0.0
C759 C 0.78765 0.51343 0.30026 0.0
C760 C 0.78978 0.5428 0.30864 0.0
C761 C 0.77771 0.51534 0.28652 0.0
C762 C 0.74067 0.57155 0.26194 0.0
H763 H 0.70328 0.49048 0.20056 0.0
H764 H 0.72321 0.49353 0.22405 0.0
H765 H 0.71534 0.58936 0.24546 0.0
H766 H 0.78372 0.59737 0.3092 0.0
H767 H 0.76693 0.60105 0.28501 0.0
H768 H 0.78674 0.50989 0.25771 0.0
C769 C 0.72117 0.5167 0.2179 0.0
C770 C 0.73105 0.57213 0.24806 0.0
C771 C 0.7097 0.51498 0.20452 0.0
C772 C 0.78177 0.57423 0.30305 0.0
C773 C 0.77217 0.57627 0.28918 0.0
C774 C 0.77094 0.52712 0.2553 0.0
C775 C 0.72937 0.5481 0.22344 0.0
C776 C 0.74088 0.54962 0.23781 0.0
C777 C 0.77018 0.54684 0.28069 0.0
C778 C 0.76056 0.54875 0.26579 0.0
H779 H 0.71261 0.59913 0.19566 0.0
H780 H 0.73237 0.60225 0.21933 0.0
H781 H 0.76917 0.51004 0.23375 0.0
H782 H 0.79357 0.48884 0.30437 0.0
H783 H 0.77587 0.49197 0.28051 0.0
C784 C 0.21917 0.16742 0.13794 0.0
C785 C 0.21503 0.15085 0.1249 0.0
C786 C 0.2269 0.20156 0.13831 0.0
C787 C 0.22573 0.27963 0.11657 0.0
H788 H 0.27805 0.3119 0.14286 0.0
C789 C 0.27193 0.41264 0.1118 0.0
C790 C 0.27727 0.4308 0.12432 0.0
C791 C 0.26333 0.37895 0.11239 0.0
C792 C 0.26314 0.30338 0.13559 0.0
H793 H 0.21656 0.15704 0.10203 0.0
H794 H 0.23022 0.21634 0.10272 0.0
H795 H 0.26586 0.25179 0.14288 0.0
H796 H 0.27719 0.42785 0.14731 0.0
H797 H 0.26191 0.36906 0.14831 0.0
H798 H 0.22302 0.33108 0.10924 0.0
C799 C 0.22707 0.2031 0.11265 0.0
C800 C 0.2562 0.26893 0.13559 0.0
C801 C 0.21941 0.16899 0.11226 0.0
C802 C 0.27334 0.4146 0.13746 0.0
C803 C 0.26475 0.38083 0.13804 0.0
C804 C 0.23263 0.31402 0.11658 0.0
C805 C 0.23059 0.21991 0.12567 0.0
C806 C 0.23759 0.25662 0.12598 0.0
C807 C 0.25982 0.36254 0.1255 0.0
C808 C 0.25158 0.32627 0.126 0.0
H809 H 0.21599 0.15423 0.14788 0.0
H810 H 0.2293 0.21385 0.14851 0.0
H811 H 0.21094 0.27109 0.10923 0.0
H812 H 0.27476 0.42424 0.10149 0.0
H813 H 0.26002 0.36549 0.10252 0.0
C814 C 0.71863 0.66812 0.13765 0.0
C815 C 0.71455 0.65147 0.12462 0.0
C816 C 0.72634 0.70227 0.138 0.0
C817 C 0.72543 0.78026 0.1162 0.0
H818 H 0.77763 0.81237 0.14259 0.0
C819 C 0.77182 0.91323 0.11161 0.0
C820 C 0.7771 0.93132 0.12415 0.0
C821 C 0.76318 0.87956 0.11214 0.0
C822 C 0.76276 0.8039 0.13529 0.0
H823 H 0.7161 0.65754 0.10175 0.0
H824 H 0.72973 0.71686 0.10239 0.0
H825 H 0.76534 0.75231 0.14259 0.0
H826 H 0.77684 0.92825 0.14714 0.0
H827 H 0.76148 0.86949 0.14805 0.0
H828 H 0.72285 0.83173 0.10887 0.0
C829 C 0.72656 0.70367 0.11233 0.0
C830 C 0.75576 0.76948 0.13528 0.0
C831 C 0.71892 0.66956 0.11197 0.0
C832 C 0.77305 0.91507 0.13727 0.0
C833 C 0.76441 0.88131 0.1378 0.0
C834 C 0.73239 0.81464 0.11623 0.0
C835 C 0.73007 0.72054 0.12534 0.0
C836 C 0.73717 0.75722 0.12564 0.0
C837 C 0.75955 0.86309 0.12523 0.0
C838 C 0.75129 0.82683 0.12569 0.0
H839 H 0.71545 0.65498 0.1476 0.0
H840 H 0.72872 0.7146 0.14819 0.0
H841 H 0.71067 0.77177 0.10884 0.0
H842 H 0.77474 0.92489 0.10131 0.0
H843 H 0.75993 0.86615 0.10226 0.0
C844 C 0.2198 0.91165 0.89268 0.0
C845 C 0.21537 0.93019 0.88014 0.0
C846 C 0.22734 0.87751 0.89211 0.0
C847 C 0.25623 0.81219 0.86883 0.0
H848 H 0.22337 0.74953 0.89507 0.0
C849 C 0.27367 0.66665 0.86641 0.0
C850 C 0.27771 0.65014 0.87947 0.0
C851 C 0.26499 0.70041 0.86599 0.0
C852 C 0.2329 0.76673 0.88775 0.0
H853 H 0.21609 0.92745 0.85715 0.0
H854 H 0.22921 0.86771 0.85619 0.0
H855 H 0.21119 0.8095 0.89529 0.0
H856 H 0.27529 0.65611 0.90233 0.0
H857 H 0.26041 0.71487 0.90157 0.0
H858 H 0.27811 0.76939 0.86138 0.0
C859 C 0.22692 0.87974 0.86646 0.0
C860 C 0.22593 0.80111 0.88789 0.0
C861 C 0.21932 0.91395 0.86701 0.0
C862 C 0.27237 0.66796 0.89207 0.0
C863 C 0.26369 0.70166 0.89165 0.0
C864 C 0.26324 0.77775 0.86871 0.0
C865 C 0.23069 0.86103 0.87901 0.0
C866 C 0.23767 0.82431 0.87852 0.0
C867 C 0.26009 0.71839 0.87861 0.0
C868 C 0.2518 0.75467 0.87825 0.0
H869 H 0.21712 0.92335 0.90298 0.0
H870 H 0.23055 0.864 0.90197 0.0
H871 H 0.26581 0.82947 0.86157 0.0
H872 H 0.2775 0.65367 0.85649 0.0
H873 H 0.26207 0.71242 0.85577 0.0
C874 C 0.71979 0.41412 0.86693 0.0
C875 C 0.71578 0.43026 0.88008 0.0
C876 C 0.72746 0.37993 0.86634 0.0
C877 C 0.72633 0.30119 0.88768 0.0
H878 H 0.77856 0.26949 0.86119 0.0
C879 C 0.77254 0.16797 0.89184 0.0
C880 C 0.77792 0.15014 0.87924 0.0
C881 C 0.76392 0.20168 0.89141 0.0
C882 C 0.76367 0.27785 0.86851 0.0
H883 H 0.71751 0.42329 0.90291 0.0
H884 H 0.73104 0.36398 0.90184 0.0
H885 H 0.76635 0.32961 0.86143 0.0
H886 H 0.77783 0.15371 0.85626 0.0
H887 H 0.7625 0.21251 0.85553 0.0
H888 H 0.72364 0.24958 0.8948 0.0
C889 C 0.72783 0.37755 0.892 0.0
C890 C 0.75672 0.31231 0.86866 0.0
C891 C 0.72024 0.41167 0.89259 0.0
C892 C 0.77397 0.16669 0.86618 0.0
C893 C 0.76535 0.20047 0.86575 0.0
C894 C 0.73323 0.26679 0.88751 0.0
C895 C 0.73121 0.36115 0.87888 0.0
C896 C 0.73815 0.32442 0.87835 0.0
C897 C 0.76041 0.21844 0.87837 0.0
C898 C 0.75216 0.25474 0.87802 0.0
H899 H 0.71656 0.42766 0.85708 0.0
H900 H 0.72977 0.36797 0.85607 0.0
H901 H 0.71157 0.30958 0.89507 0.0
H902 H 0.77539 0.15609 0.90209 0.0
H903 H 0.76061 0.21489 0.90133 0.0
C904 C 0.78557 0.90963 0.8751 0.0
C905 C 0.77015 0.9329 0.88261 0.0
C906 C 0.78013 0.87483 0.87558 0.0
C907 C 0.74558 0.80969 0.89674 0.0
H908 H 0.75353 0.75548 0.86261 0.0
C909 C 0.71043 0.67022 0.89218 0.0
C910 C 0.72689 0.64719 0.88521 0.0
C911 C 0.71612 0.705 0.89231 0.0
C912 C 0.7515 0.77021 0.87227 0.0
H913 H 0.73709 0.93846 0.89653 0.0
H914 H 0.72711 0.87745 0.89722 0.0
H915 H 0.76179 0.81654 0.86177 0.0
H916 H 0.76223 0.64195 0.87305 0.0
H917 H 0.77228 0.70299 0.87318 0.0
H918 H 0.73496 0.76324 0.90716 0.0
C919 C 0.74365 0.88598 0.8911 0.0
C920 C 0.75624 0.80522 0.87179 0.0
C921 C 0.74921 0.92086 0.89066 0.0
C922 C 0.74926 0.65937 0.87845 0.0
C923 C 0.7549 0.69421 0.87849 0.0
C924 C 0.7407 0.77467 0.89718 0.0
C925 C 0.75907 0.86254 0.88355 0.0
C926 C 0.75343 0.82539 0.88403 0.0
C927 C 0.73829 0.71742 0.88535 0.0
C928 C 0.7437 0.75454 0.88496 0.0
H929 H 0.80216 0.9183 0.86905 0.0
H930 H 0.79273 0.8575 0.86988 0.0
H931 H 0.74362 0.82434 0.90641 0.0
H932 H 0.69286 0.66136 0.89729 0.0
H933 H 0.70279 0.72227 0.89752 0.0
C934 C 0.24971 0.42044 0.89066 0.0
C935 C 0.27049 0.43272 0.88255 0.0
C936 C 0.24436 0.38551 0.89111 0.0
C937 C 0.25705 0.30494 0.87172 0.0
H938 H 0.23673 0.26271 0.9072 0.0
C939 C 0.25013 0.15901 0.87821 0.0
C940 C 0.22793 0.14685 0.88513 0.0
C941 C 0.25586 0.19383 0.87827 0.0
C942 C 0.2422 0.2742 0.8972 0.0
H943 H 0.30241 0.41849 0.86885 0.0
H944 H 0.29332 0.35759 0.86967 0.0
H945 H 0.24515 0.32386 0.90643 0.0
H946 H 0.19434 0.16101 0.89758 0.0
H947 H 0.20441 0.22186 0.89784 0.0
H948 H 0.25426 0.25523 0.86252 0.0
C949 C 0.2807 0.37477 0.87543 0.0
C950 C 0.24695 0.30925 0.89674 0.0
C951 C 0.28594 0.40963 0.87496 0.0
C952 C 0.21177 0.16985 0.89232 0.0
C953 C 0.21754 0.2046 0.89247 0.0
C954 C 0.25243 0.2699 0.8722 0.0
C955 C 0.25983 0.36225 0.88349 0.0
C956 C 0.25443 0.32505 0.88399 0.0
C957 C 0.23952 0.21702 0.88533 0.0
C958 C 0.24494 0.25415 0.88494 0.0
H959 H 0.23758 0.43789 0.8966 0.0
H960 H 0.22797 0.37678 0.89729 0.0
H961 H 0.26234 0.31634 0.86167 0.0
H962 H 0.26289 0.1416 0.87265 0.0
H963 H 0.27309 0.20261 0.87282 0.0
C964 C 0.70977 0.41069 0.12955 0.0
C965 C 0.72527 0.43389 0.12207 0.0
C966 C 0.71519 0.37588 0.1291 0.0
C967 C 0.74966 0.31064 0.10796 0.0
H968 H 0.74144 0.25632 0.14204 0.0
C969 C 0.78432 0.1709 0.11241 0.0
C970 C 0.76777 0.14797 0.11936 0.0
C971 C 0.77874 0.20572 0.11231 0.0
C972 C 0.74354 0.27108 0.1324 0.0
H973 H 0.75843 0.43932 0.10822 0.0
H974 H 0.76837 0.37827 0.10758 0.0
H975 H 0.73338 0.31745 0.14292 0.0
H976 H 0.73239 0.14292 0.1315 0.0
H977 H 0.72255 0.20404 0.13142 0.0
H978 H 0.76014 0.26416 0.09751 0.0
C979 C 0.75181 0.38688 0.11367 0.0
C980 C 0.73893 0.30613 0.13289 0.0
C981 C 0.74627 0.42178 0.11408 0.0
C982 C 0.74543 0.16028 0.12611 0.0
C983 C 0.73991 0.19515 0.1261 0.0
C984 C 0.75442 0.27559 0.10749 0.0
C985 C 0.73629 0.36351 0.12117 0.0
C986 C 0.74183 0.32633 0.12067 0.0
C987 C 0.7566 0.21827 0.11927 0.0
C988 C 0.75132 0.25543 0.11969 0.0
H989 H 0.69313 0.41944 0.13555 0.0
H990 H 0.70251 0.3586 0.13477 0.0
H991 H 0.75169 0.32533 0.0983 0.0
H992 H 0.80186 0.16194 0.1073 0.0
H993 H 0.79214 0.22292 0.10712 0.0
C994 C 0.24478 0.92076 0.11357 0.0
C995 C 0.22417 0.93303 0.12182 0.0
C996 C 0.2502 0.88584 0.11312 0.0
C997 C 0.238 0.80531 0.13265 0.0
H998 H 0.25816 0.76302 0.09715 0.0
C999 C 0.24507 0.6594 0.12614 0.0
C1000 C 0.26734 0.64726 0.11925 0.0
C1001 C 0.23929 0.69421 0.12608 0.0
C1002 C 0.25272 0.77453 0.10715 0.0
H1003 H 0.19256 0.9188 0.13572 0.0
H1004 H 0.20174 0.85792 0.13487 0.0
H1005 H 0.24952 0.82414 0.09789 0.0
H1006 H 0.30102 0.66148 0.1069 0.0
H1007 H 0.29082 0.72232 0.10662 0.0
H1008 H 0.24099 0.75563 0.14187 0.0
C1009 C 0.21422 0.8751 0.12903 0.0
C1010 C 0.24786 0.80957 0.1076 0.0
C1011 C 0.20892 0.90995 0.12952 0.0
C1012 C 0.28354 0.67029 0.11212 0.0
C1013 C 0.27769 0.70504 0.11196 0.0
C1014 C 0.2427 0.77028 0.13218 0.0
C1015 C 0.23495 0.86258 0.12085 0.0
C1016 C 0.24044 0.82539 0.12036 0.0
C1017 C 0.25564 0.71742 0.11905 0.0
C1018 C 0.25013 0.75452 0.11943 0.0
H1019 H 0.25674 0.93822 0.10754 0.0
H1020 H 0.26648 0.87713 0.10684 0.0
H1021 H 0.23277 0.81672 0.14271 0.0
H1022 H 0.2323 0.64197 0.13167 0.0
H1023 H 0.22201 0.70297 0.1315 0.0
C1024 C 0.21897 0.66942 0.61149 0.0
C1025 C 0.2148 0.65097 0.62407 0.0
C1026 C 0.22666 0.70351 0.61199 0.0
C1027 C 0.25628 0.76862 0.63513 0.0
H1028 H 0.22274 0.8317 0.60931 0.0
C1029 C 0.27348 0.91421 0.63782 0.0
C1030 C 0.27726 0.93082 0.62477 0.0
C1031 C 0.26487 0.88043 0.63824 0.0
C1032 C 0.23245 0.81438 0.61651 0.0
H1033 H 0.21615 0.6538 0.64706 0.0
H1034 H 0.2295 0.71335 0.64789 0.0
H1035 H 0.21065 0.77171 0.60898 0.0
H1036 H 0.27443 0.92502 0.60191 0.0
H1037 H 0.25967 0.86628 0.60266 0.0
H1038 H 0.27822 0.81131 0.64258 0.0
C1039 C 0.22692 0.70133 0.63764 0.0
C1040 C 0.22555 0.77999 0.6163 0.0
C1041 C 0.21916 0.66722 0.63716 0.0
C1042 C 0.27173 0.91309 0.61217 0.0
C1043 C 0.26311 0.8794 0.61259 0.0
C1044 C 0.26322 0.80306 0.63532 0.0
C1045 C 0.23043 0.71998 0.62506 0.0
C1046 C 0.23752 0.75665 0.62553 0.0
C1047 C 0.25976 0.86257 0.62562 0.0
C1048 C 0.25152 0.82629 0.62593 0.0
H1049 H 0.21593 0.65771 0.60122 0.0
H1050 H 0.22965 0.71701 0.6021 0.0
H1051 H 0.26603 0.75122 0.64228 0.0
H1052 H 0.27747 0.92713 0.64774 0.0
H1053 H 0.26216 0.86831 0.64845 0.0
C1054 C 0.77361 0.41383 0.6377 0.0
C1055 C 0.77779 0.43036 0.62465 0.0
C1056 C 0.7658 0.37972 0.63809 0.0
C1057 C 0.76684 0.30162 0.61639 0.0
H1058 H 0.71454 0.26952 0.64274 0.0
C1059 C 0.72072 0.16855 0.6118 0.0
C1060 C 0.71545 0.15045 0.62434 0.0
C1061 C 0.72925 0.20227 0.61234 0.0
C1062 C 0.72944 0.27799 0.63545 0.0
H1063 H 0.77624 0.42414 0.60178 0.0
H1064 H 0.76244 0.36489 0.6025 0.0
H1065 H 0.72675 0.32962 0.6427 0.0
H1066 H 0.71556 0.15354 0.64733 0.0
H1067 H 0.73071 0.2124 0.64825 0.0
H1068 H 0.76953 0.25012 0.60911 0.0
C1069 C 0.76562 0.37814 0.61242 0.0
C1070 C 0.73639 0.31243 0.63541 0.0
C1071 C 0.77336 0.41221 0.61202 0.0
C1072 C 0.71935 0.16674 0.63746 0.0
C1073 C 0.72788 0.20055 0.63799 0.0
C1074 C 0.75992 0.26723 0.61644 0.0
C1075 C 0.76207 0.36137 0.62545 0.0
C1076 C 0.75501 0.32468 0.62579 0.0
C1077 C 0.73276 0.21877 0.62543 0.0
C1078 C 0.74098 0.25505 0.62588 0.0
H1079 H 0.77683 0.42702 0.64763 0.0
H1080 H 0.76338 0.36746 0.64829 0.0
H1081 H 0.78163 0.3101 0.60904 0.0
H1082 H 0.71791 0.15687 0.60151 0.0
H1083 H 0.73251 0.21568 0.60246 0.0
C1084 C 0.22065 0.41362 0.36646 0.0
C1085 C 0.2165 0.43005 0.37953 0.0
C1086 C 0.22845 0.37948 0.36603 0.0
C1087 C 0.22728 0.30126 0.38765 0.0
H1088 H 0.27954 0.26896 0.3613 0.0
C1089 C 0.27322 0.16806 0.3923 0.0
C1090 C 0.27854 0.14989 0.37978 0.0
C1091 C 0.26472 0.2018 0.39173 0.0
C1092 C 0.26464 0.27749 0.36858 0.0
H1093 H 0.21814 0.42366 0.40239 0.0
H1094 H 0.23191 0.36439 0.40159 0.0
H1095 H 0.26742 0.32912 0.36135 0.0
H1096 H 0.27853 0.1529 0.35679 0.0
H1097 H 0.26341 0.21181 0.35581 0.0
H1098 H 0.22449 0.24977 0.39491 0.0
C1099 C 0.22872 0.37773 0.39169 0.0
C1100 C 0.25775 0.31197 0.36863 0.0
C1101 C 0.22099 0.41181 0.39213 0.0
C1102 C 0.2747 0.16615 0.36665 0.0
C1103 C 0.26619 0.19999 0.36608 0.0
C1104 C 0.23413 0.26684 0.38758 0.0
C1105 C 0.2322 0.36102 0.37864 0.0
C1106 C 0.23916 0.32429 0.37826 0.0
C1107 C 0.26127 0.21827 0.37863 0.0
C1108 C 0.25307 0.25458 0.37815 0.0
H1109 H 0.2174 0.42689 0.35655 0.0
H1110 H 0.23083 0.36729 0.3558 0.0
H1111 H 0.2125 0.3098 0.395 0.0
H1112 H 0.27599 0.15641 0.40261 0.0
H1113 H 0.26143 0.21525 0.4016 0.0
C1114 C 0.77562 0.66741 0.36698 0.0
C1115 C 0.77988 0.65128 0.3801 0.0
C1116 C 0.76812 0.70164 0.36642 0.0
C1117 C 0.76999 0.78057 0.38758 0.0
H1118 H 0.71717 0.81205 0.3614 0.0
C1119 C 0.72361 0.9136 0.39188 0.0
C1120 C 0.71783 0.93136 0.37931 0.0
C1121 C 0.73242 0.87999 0.3914 0.0
C1122 C 0.73222 0.80376 0.36862 0.0
H1123 H 0.77889 0.65836 0.40293 0.0
H1124 H 0.76563 0.71784 0.40192 0.0
H1125 H 0.72925 0.7519 0.36172 0.0
H1126 H 0.71742 0.9278 0.35634 0.0
H1127 H 0.73306 0.8691 0.35552 0.0
H1128 H 0.77293 0.8323 0.39453 0.0
C1129 C 0.76848 0.70417 0.39207 0.0
C1130 C 0.7391 0.76928 0.36883 0.0
C1131 C 0.77591 0.66997 0.39264 0.0
C1132 C 0.7216 0.91486 0.36623 0.0
C1133 C 0.7304 0.88114 0.36575 0.0
C1134 C 0.76315 0.815 0.38736 0.0
C1135 C 0.76478 0.72051 0.37895 0.0
C1136 C 0.75788 0.75725 0.37841 0.0
C1137 C 0.73571 0.86324 0.37834 0.0
C1138 C 0.74401 0.82696 0.37798 0.0
H1139 H 0.77849 0.6538 0.35711 0.0
H1140 H 0.76558 0.71354 0.35615 0.0
H1141 H 0.78491 0.77225 0.39489 0.0
H1142 H 0.72094 0.92544 0.40215 0.0
H1143 H 0.73602 0.86683 0.4013 0.0
C1144 C 0.7844 0.41054 0.37607 0.0
C1145 C 0.76871 0.43372 0.38347 0.0
C1146 C 0.77889 0.37576 0.37637 0.0
C1147 C 0.74344 0.31017 0.3968 0.0
H1148 H 0.75232 0.25712 0.36242 0.0
C1149 C 0.70852 0.17086 0.39125 0.0
C1150 C 0.72524 0.14805 0.38435 0.0
C1151 C 0.7141 0.20566 0.39154 0.0
C1152 C 0.75003 0.27152 0.37215 0.0
H1153 H 0.73519 0.43912 0.39707 0.0
H1154 H 0.72511 0.37809 0.39745 0.0
H1155 H 0.76073 0.31817 0.36203 0.0
H1156 H 0.76087 0.14321 0.37241 0.0
H1157 H 0.77073 0.2043 0.37282 0.0
H1158 H 0.73244 0.2634 0.40684 0.0
C1159 C 0.74188 0.38671 0.39154 0.0
C1160 C 0.75485 0.30652 0.37193 0.0
C1161 C 0.7475 0.42159 0.39127 0.0
C1162 C 0.7477 0.16047 0.37776 0.0
C1163 C 0.75323 0.19534 0.37796 0.0
C1164 C 0.73849 0.27516 0.39699 0.0
C1165 C 0.75751 0.36339 0.38406 0.0
C1166 C 0.75173 0.32627 0.38427 0.0
C1167 C 0.73642 0.21832 0.38481 0.0
C1168 C 0.74182 0.25545 0.38467 0.0
H1169 H 0.80119 0.4193 0.37021 0.0
H1170 H 0.79167 0.35851 0.37075 0.0
H1171 H 0.74122 0.3245 0.40654 0.0
H1172 H 0.69088 0.1618 0.39623 0.0
H1173 H 0.70061 0.22276 0.39673 0.0
C1174 C 0.20891 0.67088 0.37533 0.0
C1175 C 0.22434 0.64783 0.38295 0.0
C1176 C 0.21416 0.70573 0.37577 0.0
C1177 C 0.24815 0.77141 0.39692 0.0
H1178 H 0.24083 0.82501 0.36258 0.0
C1179 C 0.28417 0.91032 0.39199 0.0
C1180 C 0.26791 0.93344 0.38493 0.0
C1181 C 0.27822 0.87562 0.3922 0.0
C1182 C 0.24267 0.81045 0.37229 0.0
H1183 H 0.25716 0.64273 0.39707 0.0
H1184 H 0.2668 0.70383 0.39768 0.0
H1185 H 0.23247 0.76395 0.3619 0.0
H1186 H 0.23272 0.93893 0.37266 0.0
H1187 H 0.22225 0.87799 0.37293 0.0
H1188 H 0.25872 0.81802 0.40722 0.0
C1189 C 0.25041 0.69508 0.3915 0.0
C1190 C 0.23788 0.77544 0.37191 0.0
C1191 C 0.24505 0.66015 0.3911 0.0
C1192 C 0.24553 0.92142 0.37814 0.0
C1193 C 0.23964 0.88665 0.37826 0.0
C1194 C 0.25308 0.80642 0.39727 0.0
C1195 C 0.23501 0.7183 0.38383 0.0
C1196 C 0.2405 0.75549 0.38423 0.0
C1197 C 0.25601 0.86337 0.38524 0.0
C1198 C 0.25035 0.82631 0.38496 0.0
H1199 H 0.19248 0.66198 0.36921 0.0
H1200 H 0.20156 0.72288 0.36997 0.0
H1201 H 0.24995 0.75693 0.40664 0.0
H1202 H 0.30175 0.91903 0.39712 0.0
H1203 H 0.29138 0.85827 0.3975 0.0
C1204 C 0.78486 0.67115 0.62932 0.0
C1205 C 0.76946 0.64822 0.62163 0.0
C1206 C 0.77971 0.70604 0.62887 0.0
C1207 C 0.74629 0.77195 0.60757 0.0
H1208 H 0.75309 0.82549 0.64194 0.0
C1209 C 0.71051 0.91105 0.61227 0.0
C1210 C 0.72658 0.93407 0.6195 0.0
C1211 C 0.71643 0.87634 0.61207 0.0
C1212 C 0.75141 0.81095 0.63222 0.0
H1213 H 0.73677 0.64336 0.60741 0.0
H1214 H 0.72732 0.70453 0.60677 0.0
H1215 H 0.76127 0.76437 0.64267 0.0
H1216 H 0.76145 0.93935 0.63204 0.0
H1217 H 0.77189 0.87839 0.63179 0.0
H1218 H 0.73609 0.81863 0.59719 0.0
C1219 C 0.7436 0.69565 0.61302 0.0
C1220 C 0.75609 0.77591 0.63263 0.0
C1221 C 0.74886 0.66069 0.61343 0.0
C1222 C 0.74878 0.92193 0.62644 0.0
C1223 C 0.75465 0.88715 0.62633 0.0
C1224 C 0.74149 0.807 0.60718 0.0
C1225 C 0.75899 0.71875 0.62074 0.0
C1226 C 0.75363 0.75598 0.6203 0.0
C1227 C 0.73844 0.86396 0.6192 0.0
C1228 C 0.74402 0.82687 0.61951 0.0
H1229 H 0.80121 0.66214 0.63548 0.0
H1230 H 0.79228 0.7231 0.63471 0.0
H1231 H 0.74463 0.75748 0.59783 0.0
H1232 H 0.69307 0.91985 0.60701 0.0
H1233 H 0.7034 0.85907 0.60665 0.0
C1234 C 0.20862 0.41026 0.62855 0.0
C1235 C 0.22431 0.4332 0.62104 0.0
C1236 C 0.21391 0.3754 0.62824 0.0
C1237 C 0.24851 0.30932 0.60763 0.0
H1238 H 0.24055 0.25656 0.64215 0.0
C1239 C 0.28402 0.17028 0.61308 0.0
C1240 C 0.2677 0.14742 0.62022 0.0
C1241 C 0.27822 0.20503 0.61278 0.0
C1242 C 0.24257 0.27087 0.63239 0.0
H1243 H 0.25759 0.43811 0.60724 0.0
H1244 H 0.26725 0.37696 0.60683 0.0
H1245 H 0.23215 0.31764 0.64252 0.0
H1246 H 0.23253 0.14243 0.63254 0.0
H1247 H 0.22227 0.20344 0.6321 0.0
H1248 H 0.25922 0.26246 0.59756 0.0
C1249 C 0.25067 0.38582 0.61284 0.0
C1250 C 0.23776 0.30589 0.63259 0.0
C1251 C 0.24529 0.42077 0.61312 0.0
C1252 C 0.2454 0.15974 0.62702 0.0
C1253 C 0.23964 0.19456 0.62679 0.0
C1254 C 0.25343 0.27429 0.60745 0.0
C1255 C 0.23504 0.36272 0.62043 0.0
C1256 C 0.24061 0.32555 0.62021 0.0
C1257 C 0.25606 0.21759 0.61972 0.0
C1258 C 0.25047 0.25469 0.61982 0.0
H1259 H 0.192 0.41925 0.63451 0.0
H1260 H 0.20115 0.35833 0.63397 0.0
H1261 H 0.25049 0.32358 0.59786 0.0
H1262 H 0.30154 0.16132 0.60794 0.0
H1263 H 0.29143 0.22216 0.60741 0.0
C1264 C 0.89993 0.02899 0.13376 0.0
C1265 C 0.88602 0.02744 0.12094 0.0
C1266 C 0.92694 0.03157 0.1337 0.0
C1267 C 0.98159 0.05852 0.11125 0.0
H1268 H 0.02271 0.00647 0.13803 0.0
C1269 C 0.09347 0.05283 0.10874 0.0
C1270 C 0.10701 0.05379 0.12169 0.0
C1271 C 0.06648 0.0499 0.10855 0.0
C1272 C 0.01148 0.02149 0.1306 0.0
H1273 H 0.8897 0.02699 0.09801 0.0
H1274 H 0.93687 0.03126 0.09794 0.0
H1275 H 0.9757 2e-05 0.13781 0.0
H1276 H 0.10265 0.05298 0.14459 0.0
H1277 H 0.05558 0.0483 0.14423 0.0
H1278 H 0.01737 0.0801 0.10408 0.0
C1279 C 0.92681 0.03086 0.10802 0.0
C1280 C 0.98456 0.01774 0.13046 0.0
C1281 C 0.89978 0.0282 0.10807 0.0
C1282 C 0.09288 0.0522 0.13443 0.0
C1283 C 0.06589 0.04928 0.13423 0.0
C1284 C 0.00852 0.0623 0.1114 0.0
C1285 C 0.94066 0.03272 0.12083 0.0
C1286 C 0.96931 0.03626 0.1208 0.0
C1287 C 0.0524 0.04787 0.12129 0.0
C1288 C 0.02377 0.04388 0.1211 0.0
H1289 H 0.88998 0.02857 0.14387 0.0
H1290 H 0.93703 0.03335 0.14374 0.0
H1291 H 0.97033 0.07352 0.10383 0.0
H1292 H 0.10373 0.05391 0.09873 0.0
H1293 H 0.05668 0.04851 0.09841 0.0
C1294 C 0.09456 0.02978 0.89666 0.0
C1295 C 0.10825 0.02889 0.88376 0.0
C1296 C 0.06753 0.03253 0.89676 0.0
C1297 C 0.00976 0.01911 0.87438 0.0
H1298 H 0.9767 0.08136 0.90073 0.0
C1299 C 0.90143 0.05318 0.87023 0.0
C1300 C 0.88719 0.05468 0.88293 0.0
C1301 C 0.92842 0.05042 0.87049 0.0
C1302 C 0.98562 0.06359 0.89342 0.0
H1303 H 0.10417 0.03003 0.86084 0.0
H1304 H 0.05713 0.03498 0.86105 0.0
H1305 H 0.02378 0.07498 0.901 0.0
H1306 H 0.89027 0.05483 0.9059 0.0
H1307 H 0.93735 0.0497 0.90633 0.0
H1308 H 0.97167 0.00767 0.8668 0.0
C1309 C 0.06727 0.0332 0.87108 0.0
C1310 C 0.01258 0.05993 0.89357 0.0
C1311 C 0.09427 0.03053 0.87098 0.0
C1312 C 0.90062 0.05382 0.89591 0.0
C1313 C 0.92763 0.05104 0.89617 0.0
C1314 C 0.98283 0.02274 0.87423 0.0
C1315 C 0.05361 0.03435 0.88396 0.0
C1316 C 0.02494 0.03773 0.88402 0.0
C1317 C 0.94182 0.04905 0.88346 0.0
C1318 C 0.97045 0.04511 0.88371 0.0
H1319 H 0.1047 0.02852 0.90671 0.0
H1320 H 0.05752 0.03295 0.90685 0.0
H1321 H 0.01869 0.00141 0.86703 0.0
H1322 H 0.89174 0.0539 0.86004 0.0
H1323 H 0.93881 0.04949 0.86052 0.0
C1324 C 0.90024 0.52806 0.63417 0.0
C1325 C 0.88611 0.52666 0.62143 0.0
C1326 C 0.92725 0.53058 0.63397 0.0
C1327 C 0.98152 0.5576 0.61124 0.0
H1328 H 0.02311 0.5054 0.63774 0.0
C1329 C 0.0934 0.55207 0.60819 0.0
C1330 C 0.10708 0.55314 0.62109 0.0
C1331 C 0.0664 0.54899 0.6081 0.0
C1332 C 0.01175 0.52044 0.63038 0.0
H1333 H 0.8894 0.52643 0.59847 0.0
H1334 H 0.93655 0.53057 0.59816 0.0
H1335 H 0.97609 0.499 0.63779 0.0
H1336 H 0.10299 0.55233 0.64401 0.0
H1337 H 0.05595 0.5474 0.64382 0.0
H1338 H 0.01717 0.57914 0.60386 0.0
C1339 C 0.92667 0.53011 0.60829 0.0
C1340 C 0.98482 0.51674 0.6304 0.0
C1341 C 0.89965 0.52752 0.60848 0.0
C1342 C 0.09311 0.55147 0.63388 0.0
C1343 C 0.06614 0.54841 0.63378 0.0
C1344 C 0.00846 0.56133 0.61123 0.0
C1345 C 0.94075 0.53183 0.62103 0.0
C1346 C 0.9694 0.53533 0.62085 0.0
C1347 C 0.05249 0.54691 0.6209 0.0
C1348 C 0.02387 0.54286 0.62083 0.0
H1349 H 0.89045 0.52756 0.64433 0.0
H1350 H 0.93752 0.53225 0.64396 0.0
H1351 H 0.97013 0.57265 0.60389 0.0
H1352 H 0.10354 0.55319 0.59814 0.0
H1353 H 0.05648 0.54756 0.598 0.0
C1354 C 0.9009 0.55087 0.3709 0.0
C1355 C 0.88686 0.55231 0.38368 0.0
C1356 C 0.92788 0.54802 0.37103 0.0
C1357 C 0.98238 0.52052 0.39351 0.0
H1358 H 0.02358 0.57312 0.36698 0.0
C1359 C 0.09433 0.5265 0.39611 0.0
C1360 C 0.10786 0.52582 0.38316 0.0
C1361 C 0.06731 0.52924 0.39631 0.0
C1362 C 0.01233 0.55795 0.37434 0.0
H1363 H 0.89029 0.55213 0.40662 0.0
H1364 H 0.93745 0.5474 0.40682 0.0
H1365 H 0.97658 0.57956 0.36715 0.0
H1366 H 0.10349 0.52687 0.36025 0.0
H1367 H 0.05641 0.53124 0.36064 0.0
H1368 H 0.01816 0.49884 0.40067 0.0
C1369 C 0.92749 0.54812 0.39671 0.0
C1370 C 0.98541 0.56168 0.37445 0.0
C1371 C 0.90047 0.55104 0.39659 0.0
C1372 C 0.09372 0.52745 0.37042 0.0
C1373 C 0.06673 0.53018 0.37064 0.0
C1374 C 0.00933 0.51676 0.39339 0.0
C1375 C 0.94147 0.54649 0.38393 0.0
C1376 C 0.97013 0.54295 0.38401 0.0
C1377 C 0.05323 0.53138 0.38358 0.0
C1378 C 0.0246 0.53537 0.38378 0.0
H1379 H 0.89106 0.55166 0.36076 0.0
H1380 H 0.93807 0.5464 0.36101 0.0
H1381 H 0.9711 0.50538 0.40087 0.0
H1382 H 0.1046 0.52537 0.40611 0.0
H1383 H 0.05751 0.53044 0.40646 0.0
C1384 C 0.40031 0.02836 0.63423 0.0
C1385 C 0.38616 0.02692 0.6215 0.0
C1386 C 0.42732 0.03083 0.63402 0.0
C1387 C 0.48161 0.05766 0.61129 0.0
H1388 H 0.52312 0.00517 0.63773 0.0
C1389 C 0.5935 0.05201 0.60824 0.0
C1390 C 0.60718 0.05285 0.62113 0.0
C1391 C 0.5665 0.04896 0.60814 0.0
C1392 C 0.51179 0.0203 0.63039 0.0
H1393 H 0.38942 0.02658 0.59854 0.0
H1394 H 0.43658 0.03066 0.59821 0.0
H1395 H 0.47609 -0.00105 0.63779 0.0
H1396 H 0.6031 0.05169 0.64405 0.0
H1397 H 0.55606 0.04685 0.64385 0.0
H1398 H 0.5173 0.07913 0.60393 0.0
C1399 C 0.42671 0.03025 0.60835 0.0
C1400 C 0.48485 0.01669 0.63041 0.0
C1401 C 0.39969 0.0277 0.60855 0.0
C1402 C 0.59321 0.051 0.63392 0.0
C1403 C 0.56624 0.04798 0.63382 0.0
C1404 C 0.50856 0.0613 0.61127 0.0
C1405 C 0.44081 0.03198 0.62108 0.0
C1406 C 0.46946 0.03539 0.62088 0.0
C1407 C 0.55258 0.04671 0.62093 0.0
C1408 C 0.52395 0.04273 0.62085 0.0
H1409 H 0.39053 0.02792 0.6444 0.0
H1410 H 0.43761 0.03251 0.64401 0.0
H1411 H 0.47025 0.07278 0.60395 0.0
H1412 H 0.60364 0.05328 0.59819 0.0
H1413 H 0.55657 0.04769 0.59803 0.0
C1414 C 0.40064 0.05174 0.39637 0.0
C1415 C 0.387 0.05276 0.38346 0.0
C1416 C 0.42766 0.04889 0.39648 0.0
C1417 C 0.48558 0.06214 0.3742 0.0
H1418 H 0.5182 -0.00078 0.40044 0.0
C1419 C 0.59388 0.02774 0.37023 0.0
C1420 C 0.60798 0.02598 0.38297 0.0
C1421 C 0.56688 0.03051 0.37042 0.0
C1422 C 0.50941 0.01717 0.39316 0.0
H1423 H 0.39114 0.05186 0.36054 0.0
H1424 H 0.43818 0.04677 0.36077 0.0
H1425 H 0.47116 0.00595 0.40064 0.0
H1426 H 0.60465 0.02532 0.40592 0.0
H1427 H 0.55757 0.03049 0.40624 0.0
H1428 H 0.52377 0.07344 0.36672 0.0
C1429 C 0.428 0.04849 0.3708 0.0
C1430 C 0.48247 0.02103 0.39328 0.0
C1431 C 0.40101 0.05124 0.37068 0.0
C1432 C 0.59441 0.02654 0.39591 0.0
C1433 C 0.5674 0.02934 0.39609 0.0
C1434 C 0.5125 0.05832 0.37409 0.0
C1435 C 0.44162 0.04712 0.38369 0.0
C1436 C 0.47026 0.04349 0.38377 0.0
C1437 C 0.55335 0.03164 0.38335 0.0
C1438 C 0.52472 0.03571 0.38353 0.0
H1439 H 0.39048 0.05289 0.40641 0.0
H1440 H 0.43764 0.04831 0.40658 0.0
H1441 H 0.47678 0.08002 0.36689 0.0
H1442 H 0.60367 0.02724 0.36007 0.0
H1443 H 0.5566 0.03167 0.36042 0.0
C1444 C 0.59367 0.55166 0.10865 0.0
C1445 C 0.60714 0.55307 0.1216 0.0
C1446 C 0.56667 0.54879 0.10843 0.0
C1447 C 0.50843 0.56276 0.13038 0.0
H1448 H 0.47613 0.49967 0.10412 0.0
C1449 C 0.4 0.52895 0.13382 0.0
C1450 C 0.38611 0.52702 0.12101 0.0
C1451 C 0.42699 0.5317 0.13376 0.0
C1452 C 0.48483 0.51767 0.11141 0.0
H1453 H 0.60269 0.55274 0.1445 0.0
H1454 H 0.55565 0.54758 0.1441 0.0
H1455 H 0.5232 0.506 0.1042 0.0
H1456 H 0.38982 0.52609 0.09808 0.0
H1457 H 0.43692 0.5312 0.098 0.0
H1458 H 0.47012 0.57449 0.13758 0.0
C1459 C 0.56596 0.54904 0.13411 0.0
C1460 C 0.51179 0.5213 0.11145 0.0
C1461 C 0.59296 0.55184 0.13433 0.0
C1462 C 0.3999 0.52745 0.10814 0.0
C1463 C 0.42692 0.53022 0.10809 0.0
C1464 C 0.48149 0.55916 0.13033 0.0
C1465 C 0.55253 0.54735 0.12116 0.0
C1466 C 0.52388 0.54383 0.12096 0.0
C1467 C 0.44075 0.53262 0.1209 0.0
C1468 C 0.46939 0.5365 0.12087 0.0
H1469 H 0.60397 0.55259 0.09864 0.0
H1470 H 0.55683 0.54796 0.09829 0.0
H1471 H 0.51714 0.58071 0.13768 0.0
H1472 H 0.39004 0.52856 0.14394 0.0
H1473 H 0.4371 0.53295 0.14381 0.0
C1474 C 0.40136 0.55361 0.87034 0.0
C1475 C 0.38709 0.55475 0.88304 0.0
C1476 C 0.42837 0.55105 0.87061 0.0
C1477 C 0.48243 0.52345 0.89337 0.0
H1478 H 0.5242 0.57628 0.86719 0.0
C1479 C 0.59436 0.52871 0.89659 0.0
C1480 C 0.60809 0.52807 0.88371 0.0
C1481 C 0.56735 0.53176 0.89667 0.0
C1482 C 0.5128 0.56106 0.87446 0.0
H1483 H 0.39013 0.55447 0.90601 0.0
H1484 H 0.43729 0.55025 0.90645 0.0
H1485 H 0.47719 0.58274 0.86708 0.0
H1486 H 0.60408 0.52955 0.86079 0.0
H1487 H 0.55704 0.53443 0.86096 0.0
H1488 H 0.51805 0.50165 0.90072 0.0
C1489 C 0.42751 0.55096 0.89629 0.0
C1490 C 0.48587 0.5648 0.8744 0.0
C1491 C 0.40049 0.5536 0.89602 0.0
C1492 C 0.59416 0.5301 0.87091 0.0
C1493 C 0.56719 0.53313 0.871 0.0
C1494 C 0.50938 0.51967 0.89342 0.0
C1495 C 0.44173 0.5495 0.88358 0.0
C1496 C 0.47038 0.54598 0.88383 0.0
C1497 C 0.55348 0.53424 0.88388 0.0
C1498 C 0.52486 0.53836 0.88393 0.0
H1499 H 0.39168 0.55433 0.86015 0.0
H1500 H 0.43875 0.54959 0.86064 0.0
H1501 H 0.47099 0.50823 0.90063 0.0
H1502 H 0.60447 0.52728 0.90664 0.0
H1503 H 0.55739 0.53288 0.90677 0.0
C1504 C 0.2346 0.01419 0.95013 0.0
C1505 C 0.21147 0.02023 0.94266 0.0
C1506 C 0.23565 0.01874 0.96484 0.0
C1507 C 0.2005 0.06085 0.99452 0.0
H1508 H 0.24033 -0.00131 0.01793 0.0
C1509 C 0.18959 0.05456 0.0553 0.0
C1510 C 0.21249 0.05321 0.06337 0.0
C1511 C 0.19045 0.05135 0.04056 0.0
C1512 C 0.22934 0.01644 0.01151 0.0
H1513 H 0.17117 0.03528 0.94482 0.0
H1514 H 0.17277 0.04231 0.97041 0.0
H1515 H 0.23978 0.9911 0.99224 0.0
H1516 H 0.25426 0.04715 0.06228 0.0
H1517 H 0.2557 0.04116 0.03646 0.0
H1518 H 0.18958 0.08565 0.01385 0.0
C1519 C 0.19034 0.0349 0.96492 0.0
C1520 C 0.22906 0.01217 0.99677 0.0
C1521 C 0.18936 0.03062 0.95023 0.0
C1522 C 0.23628 0.0484 0.05636 0.0
C1523 C 0.23711 0.04478 0.0416 0.0
C1524 C 0.20059 0.0649 0.00923 0.0
C1525 C 0.21353 0.02922 0.97243 0.0
C1526 C 0.21449 0.03421 0.98809 0.0
C1527 C 0.2142 0.04635 0.03355 0.0
C1528 C 0.21489 0.04264 0.01789 0.0
H1529 H 0.25202 0.00632 0.9446 0.0
H1530 H 0.25392 0.01455 0.97022 0.0
H1531 H 0.18953 0.07879 0.98818 0.0
H1532 H 0.17094 0.05823 0.06036 0.0
H1533 H 0.17246 0.0523 0.03464 0.0
C1534 C 0.80505 0.05118 0.94895 0.0
C1535 C 0.78196 0.05396 0.94112 0.0
C1536 C 0.80437 0.047 0.96365 0.0
C1537 C 0.76156 0.05699 0.99506 0.0
H1538 H 0.81273 -0.00179 0.0127 0.0
C1539 C 0.75888 0.01902 0.05457 0.0
C1540 C 0.78257 0.02161 0.06188 0.0
C1541 C 0.75802 0.02263 0.03981 0.0
C1542 C 0.79842 0.01487 0.00793 0.0
H1543 H 0.74 0.05449 0.94261 0.0
H1544 H 0.73877 0.04643 0.96827 0.0
H1545 H 0.81243 0.0048 0.98702 0.0
H1546 H 0.82393 0.02987 0.0594 0.0
H1547 H 0.82242 0.03576 0.03367 0.0
H1548 H 0.74741 0.06657 0.01607 0.0
C1549 C 0.75745 0.04813 0.96307 0.0
C1550 C 0.79828 0.01877 0.99321 0.0
C1551 C 0.75814 0.05258 0.94834 0.0
C1552 C 0.80537 0.02772 0.05411 0.0
C1553 C 0.80454 0.03092 0.03936 0.0
C1554 C 0.76156 0.05282 0.0098 0.0
C1555 C 0.78057 0.04518 0.97091 0.0
C1556 C 0.78003 0.04016 0.98657 0.0
C1557 C 0.78087 0.02846 0.03205 0.0
C1558 C 0.78015 0.03196 0.01639 0.0
H1559 H 0.82375 0.05238 0.94374 0.0
H1560 H 0.82258 0.04555 0.96934 0.0
H1561 H 0.74744 0.07401 0.99036 0.0
H1562 H 0.74097 0.01442 0.06026 0.0
H1563 H 0.73953 0.0204 0.03444 0.0
C1564 C 0.23565 0.55749 0.55513 0.0
C1565 C 0.21191 0.55515 0.5624 0.0
C1566 C 0.23665 0.5534 0.54039 0.0
C1567 C 0.19881 0.51841 0.51019 0.0
H1568 H 0.24414 0.57528 0.48747 0.0
C1569 C 0.1901 0.52728 0.44937 0.0
C1570 C 0.21319 0.52622 0.44145 0.0
C1571 C 0.19082 0.53011 0.46413 0.0
C1572 C 0.23158 0.55898 0.49369 0.0
H1573 H 0.17055 0.54706 0.55984 0.0
H1574 H 0.1722 0.54069 0.53421 0.0
H1575 H 0.24367 0.58181 0.51322 0.0
H1576 H 0.25516 0.52761 0.44283 0.0
H1577 H 0.25638 0.53277 0.46867 0.0
H1578 H 0.1864 0.49605 0.49062 0.0
C1579 C 0.19017 0.54494 0.53988 0.0
C1580 C 0.23133 0.56265 0.50846 0.0
C1581 C 0.1892 0.54883 0.55459 0.0
C1582 C 0.23703 0.52828 0.44863 0.0
C1583 C 0.23774 0.53143 0.46341 0.0
C1584 C 0.19893 0.51492 0.49544 0.0
C1585 C 0.21391 0.54701 0.53258 0.0
C1586 C 0.21481 0.54255 0.51689 0.0
C1587 C 0.21463 0.53223 0.47132 0.0
C1588 C 0.2152 0.53529 0.48702 0.0
H1589 H 0.25352 0.56219 0.56083 0.0
H1590 H 0.25531 0.55475 0.53515 0.0
H1591 H 0.18624 0.50197 0.51634 0.0
H1592 H 0.17139 0.52581 0.44418 0.0
H1593 H 0.17268 0.53107 0.46992 0.0
C1594 C 0.75792 0.55829 0.44934 0.0
C1595 C 0.78164 0.55577 0.44207 0.0
C1596 C 0.75693 0.55423 0.46409 0.0
C1597 C 0.79476 0.51898 0.49427 0.0
H1598 H 0.7497 0.57621 0.51703 0.0
C1599 C 0.80387 0.52805 0.55505 0.0
C1600 C 0.78084 0.52707 0.56302 0.0
C1601 C 0.80306 0.53086 0.54029 0.0
C1602 C 0.76217 0.55981 0.51079 0.0
H1603 H 0.82298 0.54741 0.44461 0.0
H1604 H 0.82136 0.54108 0.47024 0.0
H1605 H 0.75005 0.58267 0.49127 0.0
H1606 H 0.73885 0.5286 0.56171 0.0
H1607 H 0.73747 0.53374 0.53587 0.0
H1608 H 0.80722 0.49661 0.51382 0.0
C1609 C 0.80339 0.54544 0.46458 0.0
C1610 C 0.76235 0.56344 0.49602 0.0
C1611 C 0.80435 0.54932 0.44986 0.0
C1612 C 0.75695 0.5292 0.55588 0.0
C1613 C 0.75615 0.53233 0.5411 0.0
C1614 C 0.7947 0.51554 0.50901 0.0
C1615 C 0.77967 0.54768 0.47189 0.0
C1616 C 0.77879 0.54322 0.48758 0.0
C1617 C 0.77921 0.53303 0.53315 0.0
C1618 C 0.77854 0.53604 0.51745 0.0
H1619 H 0.74005 0.56311 0.44365 0.0
H1620 H 0.73829 0.55571 0.46933 0.0
H1621 H 0.80725 0.50245 0.48811 0.0
H1622 H 0.82261 0.52652 0.56021 0.0
H1623 H 0.82116 0.53174 0.53447 0.0
C1624 C 0.68775 0.05182 0.55441 0.0
C1625 C 0.71036 0.0595 0.56208 0.0
C1626 C 0.6887 0.04709 0.53974 0.0
C1627 C 0.72983 0.06324 0.50806 0.0
H1628 H 0.68497 0.99523 0.4911 0.0
C1629 C 0.73571 0.02287 0.44887 0.0
C1630 C 0.71187 0.02213 0.44165 0.0
C1631 C 0.73641 0.02695 0.46361 0.0
C1632 C 0.69752 0.01442 0.49569 0.0
H1633 H 0.75177 0.06811 0.56035 0.0
H1634 H 0.7536 0.05893 0.53479 0.0
H1635 H 0.68482 0.00304 0.51672 0.0
H1636 H 0.6701 0.02473 0.44421 0.0
H1637 H 0.67136 0.0313 0.46992 0.0
H1638 H 0.74278 0.07404 0.48691 0.0
C1639 C 0.73498 0.05731 0.54006 0.0
C1640 C 0.69736 0.01905 0.51037 0.0
C1641 C 0.73397 0.06241 0.55474 0.0
C1642 C 0.68878 0.02522 0.44946 0.0
C1643 C 0.68947 0.02881 0.46419 0.0
C1644 C 0.73019 0.0583 0.49336 0.0
C1645 C 0.71236 0.04949 0.53237 0.0
C1646 C 0.7133 0.04379 0.51675 0.0
C1647 C 0.71328 0.02984 0.47141 0.0
C1648 C 0.71383 0.03408 0.48703 0.0
H1649 H 0.6692 0.04966 0.55973 0.0
H1650 H 0.67078 0.04185 0.53418 0.0
H1651 H 0.7421 0.08285 0.51254 0.0
H1652 H 0.75383 0.02067 0.44314 0.0
H1653 H 0.75502 0.02748 0.46894 0.0
C1654 C 0.30594 0.05514 0.45002 0.0
C1655 C 0.28299 0.05931 0.44217 0.0
C1656 C 0.30507 0.05159 0.46475 0.0
C1657 C 0.26342 0.02413 0.49388 0.0
H1658 H 0.31012 0.07735 0.51727 0.0
C1659 C 0.25927 0.02034 0.55526 0.0
C1660 C 0.28291 0.02225 0.56262 0.0
C1661 C 0.25845 0.02544 0.54058 0.0
C1662 C 0.29719 0.0619 0.51091 0.0
H1663 H 0.24109 0.06275 0.44361 0.0
H1664 H 0.23958 0.05603 0.46941 0.0
H1665 H 0.31032 0.08506 0.49164 0.0
H1666 H 0.32431 0.03027 0.56032 0.0
H1667 H 0.32304 0.03804 0.53476 0.0
H1668 H 0.25076 0.00023 0.51306 0.0
C1669 C 0.25822 0.05566 0.46411 0.0
C1670 C 0.29724 0.06648 0.49622 0.0
C1671 C 0.25911 0.05969 0.44937 0.0
C1672 C 0.30574 0.0289 0.55498 0.0
C1673 C 0.30497 0.03362 0.54031 0.0
C1674 C 0.26357 0.01923 0.50858 0.0
C1675 C 0.28121 0.0517 0.47194 0.0
C1676 C 0.28045 0.04754 0.48756 0.0
C1677 C 0.28129 0.03224 0.53291 0.0
C1678 C 0.28057 0.03794 0.51729 0.0
H1679 H 0.32465 0.05474 0.4448 0.0
H1680 H 0.32307 0.04826 0.47051 0.0
H1681 H 0.25045 0.00896 0.48743 0.0
H1682 H 0.24132 0.01545 0.56087 0.0
H1683 H 0.23982 0.02463 0.53529 0.0
C1684 C 0.68918 0.55016 0.05538 0.0
C1685 C 0.7122 0.55363 0.06322 0.0
C1686 C 0.68997 0.54576 0.04069 0.0
C1687 C 0.73272 0.55636 0.00931 0.0
H1688 H 0.68239 0.49632 0.99174 0.0
C1689 C 0.73569 0.51836 0.94979 0.0
C1690 C 0.71194 0.52059 0.94253 0.0
C1691 C 0.73659 0.5219 0.96455 0.0
C1692 C 0.69647 0.51332 0.99649 0.0
H1693 H 0.75415 0.55511 0.06177 0.0
H1694 H 0.75559 0.54666 0.03614 0.0
H1695 H 0.68261 0.50307 0.01742 0.0
H1696 H 0.6705 0.52811 0.94507 0.0
H1697 H 0.67208 0.53386 0.9708 0.0
H1698 H 0.74672 0.56613 0.98828 0.0
C1699 C 0.73687 0.54799 0.04132 0.0
C1700 C 0.69656 0.51732 0.01121 0.0
C1701 C 0.73606 0.55267 0.05603 0.0
C1702 C 0.68912 0.52624 0.95034 0.0
C1703 C 0.68999 0.52936 0.96509 0.0
C1704 C 0.73277 0.55209 0.99457 0.0
C1705 C 0.71382 0.54438 0.03346 0.0
C1706 C 0.71449 0.53919 0.01781 0.0
C1707 C 0.71372 0.52729 0.97235 0.0
C1708 C 0.71447 0.53079 0.98801 0.0
H1709 H 0.67045 0.55101 0.06057 0.0
H1710 H 0.67181 0.54378 0.03499 0.0
H1711 H 0.74659 0.57375 0.01398 0.0
H1712 H 0.75363 0.51412 0.94407 0.0
H1713 H 0.75514 0.51998 0.96989 0.0
C1714 C 0.30493 0.55065 0.94905 0.0
C1715 C 0.28184 0.55331 0.94121 0.0
C1716 C 0.30425 0.54636 0.96374 0.0
C1717 C 0.26139 0.55587 0.99514 0.0
H1718 H 0.31281 0.4974 0.01275 0.0
C1719 C 0.25897 0.5178 0.05465 0.0
C1720 C 0.28265 0.52059 0.06194 0.0
C1721 C 0.25806 0.52138 0.03989 0.0
C1722 C 0.29843 0.51397 0.00799 0.0
H1723 H 0.23987 0.55351 0.94269 0.0
H1724 H 0.23865 0.54526 0.96834 0.0
H1725 H 0.31246 0.50407 0.98707 0.0
H1726 H 0.32397 0.52919 0.05945 0.0
H1727 H 0.32238 0.53504 0.03372 0.0
H1728 H 0.24721 0.56528 0.01617 0.0
C1729 C 0.25733 0.54713 0.96315 0.0
C1730 C 0.29826 0.51792 0.99327 0.0
C1731 C 0.25802 0.55169 0.94843 0.0
C1732 C 0.30541 0.52688 0.05416 0.0
C1733 C 0.30454 0.53006 0.03941 0.0
C1734 C 0.26141 0.55165 0.00988 0.0
C1735 C 0.28046 0.54431 0.97099 0.0
C1736 C 0.27992 0.5392 0.98665 0.0
C1737 C 0.28086 0.5274 0.03212 0.0
C1738 C 0.2801 0.53091 0.01646 0.0
H1739 H 0.32363 0.55203 0.94384 0.0
H1740 H 0.32246 0.545 0.96943 0.0
H1741 H 0.24719 0.57281 0.99046 0.0
H1742 H 0.24108 0.51306 0.06035 0.0
H1743 H 0.23957 0.519 0.03453 0.0
loop_
_geom_bond_atom_site_label_1
_geom_bond_atom_site_label_2
_geom_bond_distance
_geom_bond_site_symmetry_2
_ccdc_geom_bond_type
Co0 O3 1.970 . S
Co0 N17 1.989 . S
Co0 O25 1.967 . S
Co0 O32 1.920 . S
Co1 O4 1.966 . S
Co1 N10 2.022 . S
Co1 N18 1.993 . S
Co1 O26 1.941 . S
C2 O3 1.258 . S
C2 O4 1.263 . S
O3 Co0 1.970 . S
O3 C2 1.258 . S
O4 Co1 1.966 . S
O4 C2 1.263 . S
C5 O6 1.235 . S
C5 O32 1.289 . S
O6 C5 1.235 . S
C7 C9 1.400 . S
C7 N10 1.351 . S
C7 C12 1.501 . S
C8 C9 1.387 . S
C8 N11 1.341 . S
C9 C7 1.400 . S
C9 C8 1.387 . S
N10 Co1 2.022 . S
N10 C7 1.351 . S
N10 N11 1.365 . S
N11 C8 1.341 . S
N11 N10 1.365 . S
N11 H31 0.862 . S
C12 C7 1.501 . S
C12 H13 0.961 . S
C12 H14 0.961 . S
C12 H15 0.960 . S
H13 C12 0.961 . S
H14 C12 0.961 . S
H15 C12 0.960 . S
C16 N17 1.342 1_565 S
C16 C20 1.401 . S
C16 C21 1.499 . S
N17 Co0 1.989 . S
N17 C16 1.342 1_545 S
N17 N18 1.388 . S
N18 Co1 1.993 . S
N18 N17 1.388 . S
N18 C19 1.346 1_545 S
C19 N18 1.346 1_565 S
C19 C20 1.396 . S
C19 C29 1.510 . S
C20 C16 1.401 . S
C20 C19 1.396 . S
C21 C16 1.499 . S
C21 H22 0.959 . S
C21 H23 0.960 . S
C21 H24 0.961 . S
H22 C21 0.959 . S
H23 C21 0.960 . S
H24 C21 0.961 . S
O25 Co0 1.967 . S
O25 C33 1.258 . S
O26 Co1 1.941 . S
O26 C33 1.266 . S
H27 C29 0.959 . S
H28 C29 0.961 . S
C29 C19 1.510 . S
C29 H27 0.959 . S
C29 H28 0.961 . S
C29 H30 0.960 . S
H30 C29 0.960 . S
H31 N11 0.862 . S
O32 Co0 1.920 . S
O32 C5 1.289 . S
C33 O25 1.258 . S
C33 O26 1.266 . S
Co34 O37 1.970 1_545 S
Co34 N51 1.989 . S
Co34 O59 1.967 . S
Co34 O66 1.920 . S
Co35 O38 1.966 1_545 S
Co35 N44 2.022 . S
Co35 N52 1.993 . S
Co35 O60 1.941 . S
C36 O37 1.258 . S
C36 O38 1.263 . S
O37 Co34 1.970 1_565 S
O37 C36 1.258 . S
O38 Co35 1.966 1_565 S
O38 C36 1.263 . S
C39 O40 1.235 . S
C39 O66 1.289 . S
O40 C39 1.235 . S
C41 C43 1.400 . S
C41 N44 1.351 . S
C41 C46 1.501 . S
C42 C43 1.387 . S
C42 N45 1.341 . S
C43 C41 1.400 . S
C43 C42 1.387 . S
N44 Co35 2.022 . S
N44 C41 1.351 . S
N44 N45 1.365 . S
N45 C42 1.341 . S
N45 N44 1.365 . S
N45 H65 0.862 . S
C46 C41 1.501 . S
C46 H47 0.961 1_545 S
C46 H48 0.961 . S
C46 H49 0.960 1_545 S
H47 C46 0.961 1_565 S
H48 C46 0.961 . S
H49 C46 0.960 1_565 S
C50 N51 1.342 . S
C50 C54 1.401 . S
C50 C55 1.499 . S
N51 Co34 1.989 . S
N51 C50 1.342 . S
N51 N52 1.388 . S
N52 Co35 1.993 . S
N52 N51 1.388 . S
N52 C53 1.346 . S
C53 N52 1.346 . S
C53 C54 1.396 . S
C53 C63 1.510 . S
C54 C50 1.401 . S
C54 C53 1.396 . S
C55 C50 1.499 . S
C55 H56 0.959 . S
C55 H57 0.960 . S
C55 H58 0.961 . S
H56 C55 0.959 . S
H57 C55 0.960 . S
H58 C55 0.961 . S
O59 Co34 1.967 . S
O59 C67 1.258 . S
O60 Co35 1.941 . S
O60 C67 1.266 . S
H61 C63 0.959 . S
H62 C63 0.961 . S
C63 C53 1.510 . S
C63 H61 0.959 . S
C63 H62 0.961 . S
C63 H64 0.960 . S
H64 C63 0.960 . S
H65 N45 0.862 . S
O66 Co34 1.920 . S
O66 C39 1.289 . S
C67 O59 1.258 . S
C67 O60 1.266 . S
Co68 O71 1.970 1_545 S
Co68 N85 1.989 . S
Co68 O93 1.967 . S
Co68 O100 1.920 . S
Co69 O72 1.966 1_545 S
Co69 N78 2.022 . S
Co69 N86 1.993 . S
Co69 O94 1.941 . S
C70 O71 1.258 . S
C70 O72 1.263 . S
O71 Co68 1.970 1_565 S
O71 C70 1.258 . S
O72 Co69 1.966 1_565 S
O72 C70 1.263 . S
C73 O74 1.235 . S
C73 O100 1.289 . S
O74 C73 1.235 . S
C75 C77 1.400 . S
C75 N78 1.351 . S
C75 C80 1.501 . S
C76 C77 1.387 . S
C76 N79 1.341 . S
C77 C75 1.400 . S
C77 C76 1.387 . S
N78 Co69 2.022 . S
N78 C75 1.351 . S
N78 N79 1.365 . S
N79 C76 1.341 . S
N79 N78 1.365 . S
N79 H99 0.862 . S
C80 C75 1.501 . S
C80 H81 0.961 1_545 S
C80 H82 0.961 . S
C80 H83 0.960 1_545 S
H81 C80 0.961 1_565 S
H82 C80 0.961 . S
H83 C80 0.960 1_565 S
C84 N85 1.342 . S
C84 C88 1.401 . S
C84 C89 1.499 . S
N85 Co68 1.989 . S
N85 C84 1.342 . S
N85 N86 1.388 . S
N86 Co69 1.993 . S
N86 N85 1.388 . S
N86 C87 1.346 . S
C87 N86 1.346 . S
C87 C88 1.396 . S
C87 C97 1.510 . S
C88 C84 1.401 . S
C88 C87 1.396 . S
C89 C84 1.499 . S
C89 H90 0.959 . S
C89 H91 0.960 . S
C89 H92 0.961 . S
H90 C89 0.959 . S
H91 C89 0.960 . S
H92 C89 0.961 . S
O93 Co68 1.967 . S
O93 C101 1.258 . S
O94 Co69 1.941 . S
O94 C101 1.266 . S
H95 C97 0.959 . S
H96 C97 0.961 . S
C97 C87 1.510 . S
C97 H95 0.959 . S
C97 H96 0.961 . S
C97 H98 0.960 . S
H98 C97 0.960 . S
H99 N79 0.862 . S
O100 Co68 1.920 . S
O100 C73 1.289 . S
C101 O93 1.258 . S
C101 O94 1.266 . S
Co102 O105 1.970 . S
Co102 N119 1.989 . S
Co102 O127 1.967 . S
Co102 O134 1.920 . S
Co103 O106 1.966 . S
Co103 N112 2.022 . S
Co103 N120 1.993 . S
Co103 O128 1.941 . S
C104 O105 1.258 . S
C104 O106 1.263 . S
O105 Co102 1.970 . S
O105 C104 1.258 . S
O106 Co103 1.966 . S
O106 C104 1.263 . S
C107 O108 1.235 . S
C107 O134 1.289 . S
O108 C107 1.235 . S
C109 C111 1.400 . S
C109 N112 1.351 . S
C109 C114 1.501 . S
C110 C111 1.387 . S
C110 N113 1.341 . S
C111 C109 1.400 . S
C111 C110 1.387 . S
N112 Co103 2.022 . S
N112 C109 1.351 . S
N112 N113 1.365 . S
N113 C110 1.341 . S
N113 N112 1.365 . S
N113 H133 0.862 . S
C114 C109 1.501 . S
C114 H115 0.961 . S
C114 H116 0.961 . S
C114 H117 0.960 . S
H115 C114 0.961 . S
H116 C114 0.961 . S
H117 C114 0.960 . S
C118 N119 1.342 1_565 S
C118 C122 1.401 . S
C118 C123 1.499 . S
N119 Co102 1.989 . S
N119 C118 1.342 1_545 S
N119 N120 1.388 . S
N120 Co103 1.993 . S
N120 N119 1.388 . S
N120 C121 1.346 1_545 S
C121 N120 1.346 1_565 S
C121 C122 1.396 . S
C121 C131 1.510 . S
C122 C118 1.401 . S
C122 C121 1.396 . S
C123 C118 1.499 . S
C123 H124 0.959 . S
C123 H125 0.960 . S
C123 H126 0.961 . S
H124 C123 0.959 . S
H125 C123 0.960 . S
H126 C123 0.961 . S
O127 Co102 1.967 . S
O127 C135 1.258 . S
O128 Co103 1.941 . S
O128 C135 1.266 . S
H129 C131 0.959 . S
H130 C131 0.961 . S
C131 C121 1.510 . S
C131 H129 0.959 . S
C131 H130 0.961 . S
C131 H132 0.960 . S
H132 C131 0.960 . S
H133 N113 0.862 . S
O134 Co102 1.920 . S
O134 C107 1.289 . S
C135 O127 1.258 . S
C135 O128 1.266 . S
Co136 O139 1.970 . S
Co136 N153 1.989 . S
Co136 O161 1.967 . S
Co136 O168 1.920 . S
Co137 O140 1.966 . S
Co137 N146 2.022 . S
Co137 N154 1.993 . S
Co137 O162 1.941 . S
C138 O139 1.258 . S
C138 O140 1.263 . S
O139 Co136 1.970 . S
O139 C138 1.258 . S
O140 Co137 1.966 . S
O140 C138 1.263 . S
C141 O142 1.235 . S
C141 O168 1.289 . S
O142 C141 1.235 . S
C143 C145 1.400 . S
C143 N146 1.351 . S
C143 C148 1.501 . S
C144 C145 1.387 . S
C144 N147 1.341 . S
C145 C143 1.400 . S
C145 C144 1.387 . S
N146 Co137 2.022 . S
N146 C143 1.351 . S
N146 N147 1.365 . S
N147 C144 1.341 . S
N147 N146 1.365 . S
N147 H167 0.862 . S
C148 C143 1.501 . S
C148 H149 0.961 . S
C148 H150 0.961 . S
C148 H151 0.960 . S
H149 C148 0.961 . S
H150 C148 0.961 . S
H151 C148 0.960 . S
C152 N153 1.342 . S
C152 C156 1.401 . S
C152 C157 1.499 . S
N153 Co136 1.989 . S
N153 C152 1.342 . S
N153 N154 1.388 . S
N154 Co137 1.993 . S
N154 N153 1.388 . S
N154 C155 1.346 . S
C155 N154 1.346 . S
C155 C156 1.396 . S
C155 C165 1.510 . S
C156 C152 1.401 . S
C156 C155 1.396 . S
C157 C152 1.499 . S
C157 H158 0.959 . S
C157 H159 0.960 . S
C157 H160 0.961 . S
H158 C157 0.959 . S
H159 C157 0.960 . S
H160 C157 0.961 . S
O161 Co136 1.967 . S
O161 C169 1.258 . S
O162 Co137 1.941 . S
O162 C169 1.266 . S
H163 C165 0.959 . S
H164 C165 0.961 . S
C165 C155 1.510 . S
C165 H163 0.959 . S
C165 H164 0.961 . S
C165 H166 0.960 . S
H166 C165 0.960 . S
H167 N147 0.862 . S
O168 Co136 1.920 . S
O168 C141 1.289 . S
C169 O161 1.258 . S
C169 O162 1.266 . S
Co170 O173 1.970 . S
Co170 N187 1.989 . S
Co170 O195 1.967 . S
Co170 O202 1.920 . S
Co171 O174 1.966 . S
Co171 N180 2.022 . S
Co171 N188 1.993 . S
Co171 O196 1.941 . S
C172 O173 1.258 . S
C172 O174 1.263 . S
O173 Co170 1.970 . S
O173 C172 1.258 . S
O174 Co171 1.966 . S
O174 C172 1.263 . S
C175 O176 1.235 . S
C175 O202 1.289 . S
O176 C175 1.235 . S
C177 C179 1.400 . S
C177 N180 1.351 . S
C177 C182 1.501 . S
C178 C179 1.387 . S
C178 N181 1.341 . S
C179 C177 1.400 . S
C179 C178 1.387 . S
N180 Co171 2.022 . S
N180 C177 1.351 . S
N180 N181 1.365 . S
N181 C178 1.341 . S
N181 N180 1.365 . S
N181 H201 0.862 . S
C182 C177 1.501 . S
C182 H183 0.961 . S
C182 H184 0.961 . S
C182 H185 0.960 . S
H183 C182 0.961 . S
H184 C182 0.961 . S
H185 C182 0.960 . S
C186 N187 1.342 . S
C186 C190 1.401 . S
C186 C191 1.499 . S
N187 Co170 1.989 . S
N187 C186 1.342 . S
N187 N188 1.388 . S
N188 Co171 1.993 . S
N188 N187 1.388 . S
N188 C189 1.346 . S
C189 N188 1.346 . S
C189 C190 1.396 . S
C189 C199 1.510 . S
C190 C186 1.401 . S
C190 C189 1.396 . S
C191 C186 1.499 . S
C191 H192 0.959 . S
C191 H193 0.960 . S
C191 H194 0.961 . S
H192 C191 0.959 . S
H193 C191 0.960 . S
H194 C191 0.961 . S
O195 Co170 1.967 . S
O195 C203 1.258 . S
O196 Co171 1.941 . S
O196 C203 1.266 . S
H197 C199 0.959 . S
H198 C199 0.961 . S
C199 C189 1.510 . S
C199 H197 0.959 . S
C199 H198 0.961 . S
C199 H200 0.960 . S
H200 C199 0.960 . S
H201 N181 0.862 . S
O202 Co170 1.920 . S
O202 C175 1.289 . S
C203 O195 1.258 . S
C203 O196 1.266 . S
Co204 O207 1.970 . S
Co204 N221 1.989 . S
Co204 O229 1.967 . S
Co204 O236 1.920 . S
Co205 O208 1.966 . S
Co205 N214 2.022 . S
Co205 N222 1.993 . S
Co205 O230 1.941 . S
C206 O207 1.258 . S
C206 O208 1.263 . S
O207 Co204 1.970 . S
O207 C206 1.258 . S
O208 Co205 1.966 . S
O208 C206 1.263 . S
C209 O210 1.235 . S
C209 O236 1.289 . S
O210 C209 1.235 . S
C211 C213 1.400 . S
C211 N214 1.351 . S
C211 C216 1.501 . S
C212 C213 1.387 . S
C212 N215 1.341 . S
C213 C211 1.400 . S
C213 C212 1.387 . S
N214 Co205 2.022 . S
N214 C211 1.351 . S
N214 N215 1.365 . S
N215 C212 1.341 . S
N215 N214 1.365 . S
N215 H235 0.862 . S
C216 C211 1.501 . S
C216 H217 0.961 . S
C216 H218 0.961 . S
C216 H219 0.960 . S
H217 C216 0.961 . S
H218 C216 0.961 . S
H219 C216 0.960 . S
C220 N221 1.342 . S
C220 C224 1.401 . S
C220 C225 1.499 . S
N221 Co204 1.989 . S
N221 C220 1.342 . S
N221 N222 1.388 . S
N222 Co205 1.993 . S
N222 N221 1.388 . S
N222 C223 1.346 . S
C223 N222 1.346 . S
C223 C224 1.396 . S
C223 C233 1.510 . S
C224 C220 1.401 . S
C224 C223 1.396 . S
C225 C220 1.499 . S
C225 H226 0.959 . S
C225 H227 0.960 . S
C225 H228 0.961 . S
H226 C225 0.959 . S
H227 C225 0.960 . S
H228 C225 0.961 . S
O229 Co204 1.967 . S
O229 C237 1.258 . S
O230 Co205 1.941 . S
O230 C237 1.266 . S
H231 C233 0.959 . S
H232 C233 0.961 . S
C233 C223 1.510 . S
C233 H231 0.959 . S
C233 H232 0.961 . S
C233 H234 0.960 . S
H234 C233 0.960 . S
H235 N215 0.862 . S
O236 Co204 1.920 . S
O236 C209 1.289 . S
C237 O229 1.258 . S
C237 O230 1.266 . S
Co238 O241 1.970 . S
Co238 N255 1.989 . S
Co238 O263 1.967 . S
Co238 O270 1.920 . S
Co239 O242 1.966 . S
Co239 N248 2.022 . S
Co239 N256 1.993 . S
Co239 O264 1.941 . S
C240 O241 1.258 . S
C240 O242 1.263 . S
O241 Co238 1.970 . S
O241 C240 1.258 . S
O242 Co239 1.966 . S
O242 C240 1.263 . S
C243 O244 1.235 . S
C243 O270 1.289 . S
O244 C243 1.235 . S
C245 C247 1.400 . S
C245 N248 1.351 . S
C245 C250 1.501 . S
C246 C247 1.387 . S
C246 N249 1.341 . S
C247 C245 1.400 . S
C247 C246 1.387 . S
N248 Co239 2.022 . S
N248 C245 1.351 . S
N248 N249 1.365 . S
N249 C246 1.341 . S
N249 N248 1.365 . S
N249 H269 0.862 . S
C250 C245 1.501 . S
C250 H251 0.961 . S
C250 H252 0.961 . S
C250 H253 0.960 . S
H251 C250 0.961 . S
H252 C250 0.961 . S
H253 C250 0.960 . S
C254 N255 1.342 . S
C254 C258 1.401 . S
C254 C259 1.499 . S
N255 Co238 1.989 . S
N255 C254 1.342 . S
N255 N256 1.388 . S
N256 Co239 1.993 . S
N256 N255 1.388 . S
N256 C257 1.346 . S
C257 N256 1.346 . S
C257 C258 1.396 . S
C257 C267 1.510 . S
C258 C254 1.401 . S
C258 C257 1.396 . S
C259 C254 1.499 . S
C259 H260 0.959 . S
C259 H261 0.960 . S
C259 H262 0.961 . S
H260 C259 0.959 . S
H261 C259 0.960 . S
H262 C259 0.961 . S
O263 Co238 1.967 . S
O263 C271 1.258 . S
O264 Co239 1.941 . S
O264 C271 1.266 . S
H265 C267 0.959 . S
H266 C267 0.961 . S
C267 C257 1.510 . S
C267 H265 0.959 . S
C267 H266 0.961 . S
C267 H268 0.960 . S
H268 C267 0.960 . S
H269 N249 0.862 . S
O270 Co238 1.920 . S
O270 C243 1.289 . S
C271 O263 1.258 . S
C271 O264 1.266 . S
Co272 O275 1.970 . S
Co272 N289 1.989 . S
Co272 O297 1.967 . S
Co272 O304 1.920 . S
Co273 O276 1.966 . S
Co273 N282 2.022 . S
Co273 N290 1.993 . S
Co273 O298 1.941 . S
C274 O275 1.258 . S
C274 O276 1.263 . S
O275 Co272 1.970 . S
O275 C274 1.258 . S
O276 Co273 1.966 . S
O276 C274 1.263 . S
C277 O278 1.235 . S
C277 O304 1.289 . S
O278 C277 1.235 . S
C279 C281 1.400 . S
C279 N282 1.351 . S
C279 C284 1.501 . S
C280 C281 1.387 . S
C280 N283 1.341 . S
C281 C279 1.400 . S
C281 C280 1.387 . S
N282 Co273 2.022 . S
N282 C279 1.351 . S
N282 N283 1.365 . S
N283 C280 1.341 . S
N283 N282 1.365 . S
N283 H303 0.862 . S
C284 C279 1.501 . S
C284 H285 0.961 . S
C284 H286 0.961 . S
C284 H287 0.960 . S
H285 C284 0.961 . S
H286 C284 0.961 . S
H287 C284 0.960 . S
C288 N289 1.342 1_565 S
C288 C292 1.401 . S
C288 C293 1.499 . S
N289 Co272 1.989 . S
N289 C288 1.342 1_545 S
N289 N290 1.388 . S
N290 Co273 1.993 . S
N290 N289 1.388 . S
N290 C291 1.346 1_545 S
C291 N290 1.346 1_565 S
C291 C292 1.396 . S
C291 C301 1.510 . S
C292 C288 1.401 . S
C292 C291 1.396 . S
C293 C288 1.499 . S
C293 H294 0.959 . S
C293 H295 0.960 . S
C293 H296 0.961 . S
H294 C293 0.959 . S
H295 C293 0.960 . S
H296 C293 0.961 . S
O297 Co272 1.967 . S
O297 C305 1.258 . S
O298 Co273 1.941 . S
O298 C305 1.266 . S
H299 C301 0.959 . S
H300 C301 0.961 . S
C301 C291 1.510 . S
C301 H299 0.959 . S
C301 H300 0.961 . S
C301 H302 0.960 . S
H302 C301 0.960 . S
H303 N283 0.862 . S
O304 Co272 1.920 . S
O304 C277 1.289 . S
C305 O297 1.258 . S
C305 O298 1.266 . S
Co306 O309 1.970 1_545 S
Co306 N323 1.989 . S
Co306 O331 1.967 . S
Co306 O338 1.920 . S
Co307 O310 1.966 1_545 S
Co307 N316 2.022 . S
Co307 N324 1.993 . S
Co307 O332 1.941 . S
C308 O309 1.258 . S
C308 O310 1.263 . S
O309 Co306 1.970 1_565 S
O309 C308 1.258 . S
O310 Co307 1.966 1_565 S
O310 C308 1.263 . S
C311 O312 1.235 . S
C311 O338 1.289 . S
O312 C311 1.235 . S
C313 C315 1.400 . S
C313 N316 1.351 . S
C313 C318 1.501 . S
C314 C315 1.387 . S
C314 N317 1.341 . S
C315 C313 1.400 . S
C315 C314 1.387 . S
N316 Co307 2.022 . S
N316 C313 1.351 . S
N316 N317 1.365 . S
N317 C314 1.341 . S
N317 N316 1.365 . S
N317 H337 0.862 . S
C318 C313 1.501 . S
C318 H319 0.961 1_545 S
C318 H320 0.961 . S
C318 H321 0.960 1_545 S
H319 C318 0.961 1_565 S
H320 C318 0.961 . S
H321 C318 0.960 1_565 S
C322 N323 1.342 . S
C322 C326 1.401 . S
C322 C327 1.499 . S
N323 Co306 1.989 . S
N323 C322 1.342 . S
N323 N324 1.388 . S
N324 Co307 1.993 . S
N324 N323 1.388 . S
N324 C325 1.346 . S
C325 N324 1.346 . S
C325 C326 1.396 . S
C325 C335 1.510 . S
C326 C322 1.401 . S
C326 C325 1.396 . S
C327 C322 1.499 . S
C327 H328 0.959 . S
C327 H329 0.960 . S
C327 H330 0.961 . S
H328 C327 0.959 . S
H329 C327 0.960 . S
H330 C327 0.961 . S
O331 Co306 1.967 . S
O331 C339 1.258 . S
O332 Co307 1.941 . S
O332 C339 1.266 . S
H333 C335 0.959 . S
H334 C335 0.961 . S
C335 C325 1.510 . S
C335 H333 0.959 . S
C335 H334 0.961 . S
C335 H336 0.960 . S
H336 C335 0.960 . S
H337 N317 0.862 . S
O338 Co306 1.920 . S
O338 C311 1.289 . S
C339 O331 1.258 . S
C339 O332 1.266 . S
Co340 O343 1.970 1_545 S
Co340 N357 1.989 . S
Co340 O365 1.967 . S
Co340 O372 1.920 . S
Co341 O344 1.966 1_545 S
Co341 N350 2.022 . S
Co341 N358 1.993 . S
Co341 O366 1.941 . S
C342 O343 1.258 . S
C342 O344 1.263 . S
O343 Co340 1.970 1_565 S
O343 C342 1.258 . S
O344 Co341 1.966 1_565 S
O344 C342 1.263 . S
C345 O346 1.235 . S
C345 O372 1.289 . S
O346 C345 1.235 . S
C347 C349 1.400 . S
C347 N350 1.351 . S
C347 C352 1.501 . S
C348 C349 1.387 . S
C348 N351 1.341 . S
C349 C347 1.400 . S
C349 C348 1.387 . S
N350 Co341 2.022 . S
N350 C347 1.351 . S
N350 N351 1.365 . S
N351 C348 1.341 . S
N351 N350 1.365 . S
N351 H371 0.862 . S
C352 C347 1.501 . S
C352 H353 0.961 1_545 S
C352 H354 0.961 . S
C352 H355 0.960 1_545 S
H353 C352 0.961 1_565 S
H354 C352 0.961 . S
H355 C352 0.960 1_565 S
C356 N357 1.342 . S
C356 C360 1.401 . S
C356 C361 1.499 . S
N357 Co340 1.989 . S
N357 C356 1.342 . S
N357 N358 1.388 . S
N358 Co341 1.993 . S
N358 N357 1.388 . S
N358 C359 1.346 . S
C359 N358 1.346 . S
C359 C360 1.396 . S
C359 C369 1.510 . S
C360 C356 1.401 . S
C360 C359 1.396 . S
C361 C356 1.499 . S
C361 H362 0.959 . S
C361 H363 0.960 . S
C361 H364 0.961 . S
H362 C361 0.959 . S
H363 C361 0.960 . S
H364 C361 0.961 . S
O365 Co340 1.967 . S
O365 C373 1.258 . S
O366 Co341 1.941 . S
O366 C373 1.266 . S
H367 C369 0.959 . S
H368 C369 0.961 . S
C369 C359 1.510 . S
C369 H367 0.959 . S
C369 H368 0.961 . S
C369 H370 0.960 . S
H370 C369 0.960 . S
H371 N351 0.862 . S
O372 Co340 1.920 . S
O372 C345 1.289 . S
C373 O365 1.258 . S
C373 O366 1.266 . S
Co374 O377 1.970 . S
Co374 N391 1.989 . S
Co374 O399 1.967 . S
Co374 O406 1.920 . S
Co375 O378 1.966 . S
Co375 N384 2.022 . S
Co375 N392 1.993 . S
Co375 O400 1.941 . S
C376 O377 1.258 . S
C376 O378 1.263 . S
O377 Co374 1.970 . S
O377 C376 1.258 . S
O378 Co375 1.966 . S
O378 C376 1.263 . S
C379 O380 1.235 . S
C379 O406 1.289 . S
O380 C379 1.235 . S
C381 C383 1.400 . S
C381 N384 1.351 . S
C381 C386 1.501 . S
C382 C383 1.387 . S
C382 N385 1.341 . S
C383 C381 1.400 . S
C383 C382 1.387 . S
N384 Co375 2.022 . S
N384 C381 1.351 . S
N384 N385 1.365 . S
N385 C382 1.341 . S
N385 N384 1.365 . S
N385 H405 0.862 . S
C386 C381 1.501 . S
C386 H387 0.961 . S
C386 H388 0.961 . S
C386 H389 0.960 . S
H387 C386 0.961 . S
H388 C386 0.961 . S
H389 C386 0.960 . S
C390 N391 1.342 1_565 S
C390 C394 1.401 . S
C390 C395 1.499 . S
N391 Co374 1.989 . S
N391 C390 1.342 1_545 S
N391 N392 1.388 . S
N392 Co375 1.993 . S
N392 N391 1.388 . S
N392 C393 1.346 1_545 S
C393 N392 1.346 1_565 S
C393 C394 1.396 . S
C393 C403 1.510 . S
C394 C390 1.401 . S
C394 C393 1.396 . S
C395 C390 1.499 . S
C395 H396 0.959 . S
C395 H397 0.960 . S
C395 H398 0.961 . S
H396 C395 0.959 . S
H397 C395 0.960 . S
H398 C395 0.961 . S
O399 Co374 1.967 . S
O399 C407 1.258 . S
O400 Co375 1.941 . S
O400 C407 1.266 . S
H401 C403 0.959 . S
H402 C403 0.961 . S
C403 C393 1.510 . S
C403 H401 0.959 . S
C403 H402 0.961 . S
C403 H404 0.960 . S
H404 C403 0.960 . S
H405 N385 0.862 . S
O406 Co374 1.920 . S
O406 C379 1.289 . S
C407 O399 1.258 . S
C407 O400 1.266 . S
Co408 O411 1.970 . S
Co408 N425 1.989 . S
Co408 O433 1.967 . S
Co408 O440 1.920 . S
Co409 O412 1.966 . S
Co409 N418 2.022 . S
Co409 N426 1.993 . S
Co409 O434 1.941 . S
C410 O411 1.258 . S
C410 O412 1.263 . S
O411 Co408 1.970 . S
O411 C410 1.258 . S
O412 Co409 1.966 . S
O412 C410 1.263 . S
C413 O414 1.235 . S
C413 O440 1.289 . S
O414 C413 1.235 . S
C415 C417 1.400 . S
C415 N418 1.351 . S
C415 C420 1.501 . S
C416 C417 1.387 . S
C416 N419 1.341 . S
C417 C415 1.400 . S
C417 C416 1.387 . S
N418 Co409 2.022 . S
N418 C415 1.351 . S
N418 N419 1.365 . S
N419 C416 1.341 . S
N419 N418 1.365 . S
N419 H439 0.862 . S
C420 C415 1.501 . S
C420 H421 0.961 . S
C420 H422 0.961 . S
C420 H423 0.960 . S
H421 C420 0.961 . S
H422 C420 0.961 . S
H423 C420 0.960 . S
C424 N425 1.342 . S
C424 C428 1.401 . S
C424 C429 1.499 . S
N425 Co408 1.989 . S
N425 C424 1.342 . S
N425 N426 1.388 . S
N426 Co409 1.993 . S
N426 N425 1.388 . S
N426 C427 1.346 . S
C427 N426 1.346 . S
C427 C428 1.396 . S
C427 C437 1.510 . S
C428 C424 1.401 . S
C428 C427 1.396 . S
C429 C424 1.499 . S
C429 H430 0.959 . S
C429 H431 0.960 . S
C429 H432 0.961 . S
H430 C429 0.959 . S
H431 C429 0.960 . S
H432 C429 0.961 . S
O433 Co408 1.967 . S
O433 C441 1.258 . S
O434 Co409 1.941 . S
O434 C441 1.266 . S
H435 C437 0.959 . S
H436 C437 0.961 . S
C437 C427 1.510 . S
C437 H435 0.959 . S
C437 H436 0.961 . S
C437 H438 0.960 . S
H438 C437 0.960 . S
H439 N419 0.862 . S
O440 Co408 1.920 . S
O440 C413 1.289 . S
C441 O433 1.258 . S
C441 O434 1.266 . S
Co442 O445 1.970 . S
Co442 N459 1.989 . S
Co442 O467 1.967 . S
Co442 O474 1.920 . S
Co443 O446 1.966 . S
Co443 N452 2.022 . S
Co443 N460 1.993 . S
Co443 O468 1.941 . S
C444 O445 1.258 . S
C444 O446 1.263 . S
O445 Co442 1.970 . S
O445 C444 1.258 . S
O446 Co443 1.966 . S
O446 C444 1.263 . S
C447 O448 1.235 . S
C447 O474 1.289 . S
O448 C447 1.235 . S
C449 C451 1.400 . S
C449 N452 1.351 . S
C449 C454 1.501 . S
C450 C451 1.387 . S
C450 N453 1.341 . S
C451 C449 1.400 . S
C451 C450 1.387 . S
N452 Co443 2.022 . S
N452 C449 1.351 . S
N452 N453 1.365 . S
N453 C450 1.341 . S
N453 N452 1.365 . S
N453 H473 0.862 . S
C454 C449 1.501 . S
C454 H455 0.961 . S
C454 H456 0.961 . S
C454 H457 0.960 . S
H455 C454 0.961 . S
H456 C454 0.961 . S
H457 C454 0.960 . S
C458 N459 1.342 . S
C458 C462 1.401 . S
C458 C463 1.499 . S
N459 Co442 1.989 . S
N459 C458 1.342 . S
N459 N460 1.388 . S
N460 Co443 1.993 . S
N460 N459 1.388 . S
N460 C461 1.346 . S
C461 N460 1.346 . S
C461 C462 1.396 . S
C461 C471 1.510 . S
C462 C458 1.401 . S
C462 C461 1.396 . S
C463 C458 1.499 . S
C463 H464 0.959 . S
C463 H465 0.960 . S
C463 H466 0.961 . S
H464 C463 0.959 . S
H465 C463 0.960 . S
H466 C463 0.961 . S
O467 Co442 1.967 . S
O467 C475 1.258 . S
O468 Co443 1.941 . S
O468 C475 1.266 . S
H469 C471 0.959 . S
H470 C471 0.961 . S
C471 C461 1.510 . S
C471 H469 0.959 . S
C471 H470 0.961 . S
C471 H472 0.960 . S
H472 C471 0.960 . S
H473 N453 0.862 . S
O474 Co442 1.920 . S
O474 C447 1.289 . S
C475 O467 1.258 . S
C475 O468 1.266 . S
Co476 O479 1.970 . S
Co476 N493 1.989 . S
Co476 O501 1.967 . S
Co476 O508 1.920 . S
Co477 O480 1.966 . S
Co477 N486 2.022 . S
Co477 N494 1.993 . S
Co477 O502 1.941 . S
C478 O479 1.258 . S
C478 O480 1.263 . S
O479 Co476 1.970 . S
O479 C478 1.258 . S
O480 Co477 1.966 . S
O480 C478 1.263 . S
C481 O482 1.235 . S
C481 O508 1.289 . S
O482 C481 1.235 . S
C483 C485 1.400 . S
C483 N486 1.351 . S
C483 C488 1.501 . S
C484 C485 1.387 . S
C484 N487 1.341 . S
C485 C483 1.400 . S
C485 C484 1.387 . S
N486 Co477 2.022 . S
N486 C483 1.351 . S
N486 N487 1.365 . S
N487 C484 1.341 . S
N487 N486 1.365 . S
N487 H507 0.862 . S
C488 C483 1.501 . S
C488 H489 0.961 . S
C488 H490 0.961 . S
C488 H491 0.960 . S
H489 C488 0.961 . S
H490 C488 0.961 . S
H491 C488 0.960 . S
C492 N493 1.342 . S
C492 C496 1.401 . S
C492 C497 1.499 . S
N493 Co476 1.989 . S
N493 C492 1.342 . S
N493 N494 1.388 . S
N494 Co477 1.993 . S
N494 N493 1.388 . S
N494 C495 1.346 . S
C495 N494 1.346 . S
C495 C496 1.396 . S
C495 C505 1.510 . S
C496 C492 1.401 . S
C496 C495 1.396 . S
C497 C492 1.499 . S
C497 H498 0.959 . S
C497 H499 0.960 . S
C497 H500 0.961 . S
H498 C497 0.959 . S
H499 C497 0.960 . S
H500 C497 0.961 . S
O501 Co476 1.967 . S
O501 C509 1.258 . S
O502 Co477 1.941 . S
O502 C509 1.266 . S
H503 C505 0.959 . S
H504 C505 0.961 . S
C505 C495 1.510 . S
C505 H503 0.959 . S
C505 H504 0.961 . S
C505 H506 0.960 . S
H506 C505 0.960 . S
H507 N487 0.862 . S
O508 Co476 1.920 . S
O508 C481 1.289 . S
C509 O501 1.258 . S
C509 O502 1.266 . S
Co510 O513 1.970 . S
Co510 N527 1.989 . S
Co510 O535 1.967 . S
Co510 O542 1.920 . S
Co511 O514 1.966 . S
Co511 N520 2.022 . S
Co511 N528 1.993 . S
Co511 O536 1.941 . S
C512 O513 1.258 . S
C512 O514 1.263 . S
O513 Co510 1.970 . S
O513 C512 1.258 . S
O514 Co511 1.966 . S
O514 C512 1.263 . S
C515 O516 1.235 . S
C515 O542 1.289 . S
O516 C515 1.235 . S
C517 C519 1.400 . S
C517 N520 1.351 . S
C517 C522 1.501 . S
C518 C519 1.387 . S
C518 N521 1.341 . S
C519 C517 1.400 . S
C519 C518 1.387 . S
N520 Co511 2.022 . S
N520 C517 1.351 . S
N520 N521 1.365 . S
N521 C518 1.341 . S
N521 N520 1.365 . S
N521 H541 0.862 . S
C522 C517 1.501 . S
C522 H523 0.961 . S
C522 H524 0.961 . S
C522 H525 0.960 . S
H523 C522 0.961 . S
H524 C522 0.961 . S
H525 C522 0.960 . S
C526 N527 1.342 . S
C526 C530 1.401 . S
C526 C531 1.499 . S
N527 Co510 1.989 . S
N527 C526 1.342 . S
N527 N528 1.388 . S
N528 Co511 1.993 . S
N528 N527 1.388 . S
N528 C529 1.346 . S
C529 N528 1.346 . S
C529 C530 1.396 . S
C529 C539 1.510 . S
C530 C526 1.401 . S
C530 C529 1.396 . S
C531 C526 1.499 . S
C531 H532 0.959 . S
C531 H533 0.960 . S
C531 H534 0.961 . S
H532 C531 0.959 . S
H533 C531 0.960 . S
H534 C531 0.961 . S
O535 Co510 1.967 . S
O535 C543 1.258 . S
O536 Co511 1.941 . S
O536 C543 1.266 . S
H537 C539 0.959 . S
H538 C539 0.961 . S
C539 C529 1.510 . S
C539 H537 0.959 . S
C539 H538 0.961 . S
C539 H540 0.960 . S
H540 C539 0.960 . S
H541 N521 0.862 . S
O542 Co510 1.920 . S
O542 C515 1.289 . S
C543 O535 1.258 . S
C543 O536 1.266 . S
C544 C545 1.349 . S
C544 C546 1.327 . S
C544 H569 0.950 . S
C545 C544 1.349 . S
C545 C561 1.349 . S
C546 C544 1.327 . S
C546 C565 1.429 . S
C546 H570 0.950 . S
C547 C564 1.574 . S
C547 C566 1.368 . S
C547 H571 0.949 1_545 S
H548 C552 0.949 . S
C549 C550 1.349 . S
C549 C551 1.327 . S
C549 H572 0.950 1_545 S
C550 C549 1.349 . S
C550 C562 1.349 . S
C551 C549 1.327 . S
C551 C567 1.429 . S
C551 H573 0.950 1_545 S
C552 H548 0.949 . S
C552 C560 1.574 . S
C552 C568 1.368 . S
H553 C561 0.950 1_565 S
H554 C559 0.950 1_565 S
H555 C560 0.949 . S
H556 C562 0.950 . S
H557 C563 0.950 . S
H558 C564 0.949 1_565 S
C559 H554 0.950 1_545 S
C559 C561 1.327 . S
C559 C565 1.429 . S
C560 C552 1.574 . S
C560 H555 0.949 . S
C560 C566 1.368 . S
C561 C545 1.349 . S
C561 H553 0.950 1_545 S
C561 C559 1.327 . S
C562 C550 1.349 . S
C562 H556 0.950 . S
C562 C563 1.327 . S
C563 H557 0.950 . S
C563 C562 1.327 . S
C563 C567 1.429 . S
C564 C547 1.574 . S
C564 H558 0.949 1_545 S
C564 C568 1.368 . S
C565 C546 1.429 . S
C565 C559 1.429 . S
C565 C566 1.523 . S
C566 C547 1.368 . S
C566 C560 1.368 . S
C566 C565 1.523 . S
C567 C551 1.429 . S
C567 C563 1.429 . S
C567 C568 1.523 . S
C568 C552 1.368 . S
C568 C564 1.368 . S
C568 C567 1.523 . S
H569 C544 0.950 . S
H570 C546 0.950 . S
H571 C547 0.949 1_565 S
H572 C549 0.950 1_565 S
H573 C551 0.950 1_565 S
C574 C575 1.349 . S
C574 C576 1.327 . S
C574 H599 0.950 . S
C575 C574 1.349 . S
C575 C591 1.349 . S
C576 C574 1.327 . S
C576 C595 1.429 . S
C576 H600 0.950 . S
C577 C594 1.574 . S
C577 C596 1.368 . S
C577 H601 0.949 . S
H578 C582 0.949 . S
C579 C580 1.349 . S
C579 C581 1.327 . S
C579 H602 0.950 . S
C580 C579 1.349 . S
C580 C592 1.349 . S
C581 C579 1.327 . S
C581 C597 1.429 . S
C581 H603 0.950 . S
C582 H578 0.949 . S
C582 C590 1.574 . S
C582 C598 1.368 . S
H583 C591 0.950 . S
H584 C589 0.950 . S
H585 C590 0.949 . S
H586 C592 0.950 . S
H587 C593 0.950 . S
H588 C594 0.949 . S
C589 H584 0.950 . S
C589 C591 1.327 . S
C589 C595 1.429 . S
C590 C582 1.574 . S
C590 H585 0.949 . S
C590 C596 1.368 . S
C591 C575 1.349 . S
C591 H583 0.950 . S
C591 C589 1.327 . S
C592 C580 1.349 . S
C592 H586 0.950 . S
C592 C593 1.327 . S
C593 H587 0.950 . S
C593 C592 1.327 . S
C593 C597 1.429 . S
C594 C577 1.574 . S
C594 H588 0.949 . S
C594 C598 1.368 . S
C595 C576 1.429 . S
C595 C589 1.429 . S
C595 C596 1.523 . S
C596 C577 1.368 . S
C596 C590 1.368 . S
C596 C595 1.523 . S
C597 C581 1.429 . S
C597 C593 1.429 . S
C597 C598 1.523 . S
C598 C582 1.368 . S
C598 C594 1.368 . S
C598 C597 1.523 . S
H599 C574 0.950 . S
H600 C576 0.950 . S
H601 C577 0.949 . S
H602 C579 0.950 . S
H603 C581 0.950 . S
C604 C605 1.349 . S
C604 C606 1.327 . S
C604 H629 0.950 . S
C605 C604 1.349 . S
C605 C621 1.349 . S
C606 C604 1.327 . S
C606 C625 1.429 . S
C606 H630 0.950 . S
C607 C624 1.574 . S
C607 C626 1.368 . S
C607 H631 0.949 . S
H608 C612 0.949 . S
C609 C610 1.349 . S
C609 C611 1.327 . S
C609 H632 0.950 . S
C610 C609 1.349 . S
C610 C622 1.349 . S
C611 C609 1.327 . S
C611 C627 1.429 . S
C611 H633 0.950 . S
C612 H608 0.949 . S
C612 C620 1.574 . S
C612 C628 1.368 . S
H613 C621 0.950 . S
H614 C619 0.950 . S
H615 C620 0.949 . S
H616 C622 0.950 . S
H617 C623 0.950 . S
H618 C624 0.949 . S
C619 H614 0.950 . S
C619 C621 1.327 . S
C619 C625 1.429 . S
C620 C612 1.574 . S
C620 H615 0.949 . S
C620 C626 1.368 . S
C621 C605 1.349 . S
C621 H613 0.950 . S
C621 C619 1.327 . S
C622 C610 1.349 . S
C622 H616 0.950 . S
C622 C623 1.327 . S
C623 H617 0.950 . S
C623 C622 1.327 . S
C623 C627 1.429 . S
C624 C607 1.574 . S
C624 H618 0.949 . S
C624 C628 1.368 . S
C625 C606 1.429 . S
C625 C619 1.429 . S
C625 C626 1.523 . S
C626 C607 1.368 . S
C626 C620 1.368 . S
C626 C625 1.523 . S
C627 C611 1.429 . S
C627 C623 1.429 . S
C627 C628 1.523 . S
C628 C612 1.368 . S
C628 C624 1.368 . S
C628 C627 1.523 . S
H629 C604 0.950 . S
H630 C606 0.950 . S
H631 C607 0.949 . S
H632 C609 0.950 . S
H633 C611 0.950 . S
C634 C635 1.349 . S
C634 C636 1.327 . S
C634 H659 0.950 1_545 S
C635 C634 1.349 . S
C635 C651 1.349 . S
C636 C634 1.327 . S
C636 C655 1.429 . S
C636 H660 0.950 1_545 S
C637 C654 1.574 . S
C637 C656 1.368 . S
C637 H661 0.949 . S
H638 C642 0.949 1_565 S
C639 C640 1.349 . S
C639 C641 1.327 . S
C639 H662 0.950 . S
C640 C639 1.349 . S
C640 C652 1.349 . S
C641 C639 1.327 . S
C641 C657 1.429 . S
C641 H663 0.950 . S
C642 H638 0.949 1_545 S
C642 C650 1.574 . S
C642 C658 1.368 . S
H643 C651 0.950 . S
H644 C649 0.950 . S
H645 C650 0.949 1_565 S
H646 C652 0.950 1_565 S
H647 C653 0.950 1_565 S
H648 C654 0.949 . S
C649 H644 0.950 . S
C649 C651 1.327 . S
C649 C655 1.429 . S
C650 C642 1.574 . S
C650 H645 0.949 1_545 S
C650 C656 1.368 . S
C651 C635 1.349 . S
C651 H643 0.950 . S
C651 C649 1.327 . S
C652 C640 1.349 . S
C652 H646 0.950 1_545 S
C652 C653 1.327 . S
C653 H647 0.950 1_545 S
C653 C652 1.327 . S
C653 C657 1.429 . S
C654 C637 1.574 . S
C654 H648 0.949 . S
C654 C658 1.368 . S
C655 C636 1.429 . S
C655 C649 1.429 . S
C655 C656 1.523 . S
C656 C637 1.368 . S
C656 C650 1.368 . S
C656 C655 1.523 . S
C657 C641 1.429 . S
C657 C653 1.429 . S
C657 C658 1.523 . S
C658 C642 1.368 . S
C658 C654 1.368 . S
C658 C657 1.523 . S
H659 C634 0.950 1_565 S
H660 C636 0.950 1_565 S
H661 C637 0.949 . S
H662 C639 0.950 . S
H663 C641 0.950 . S
C664 C665 1.349 . S
C664 C666 1.327 . S
C664 H689 0.950 . S
C665 C664 1.349 . S
C665 C681 1.349 . S
C666 C664 1.327 . S
C666 C685 1.429 . S
C666 H690 0.950 . S
C667 C684 1.574 . S
C667 C686 1.368 . S
C667 H691 0.949 . S
H668 C672 0.949 . S
C669 C670 1.349 . S
C669 C671 1.327 . S
C669 H692 0.950 . S
C670 C669 1.349 . S
C670 C682 1.349 . S
C671 C669 1.327 . S
C671 C687 1.429 . S
C671 H693 0.950 . S
C672 H668 0.949 . S
C672 C680 1.574 . S
C672 C688 1.368 . S
H673 C681 0.950 . S
H674 C679 0.950 . S
H675 C680 0.949 . S
H676 C682 0.950 . S
H677 C683 0.950 . S
H678 C684 0.949 . S
C679 H674 0.950 . S
C679 C681 1.327 . S
C679 C685 1.429 . S
C680 C672 1.574 . S
C680 H675 0.949 . S
C680 C686 1.368 . S
C681 C665 1.349 . S
C681 H673 0.950 . S
C681 C679 1.327 . S
C682 C670 1.349 . S
C682 H676 0.950 . S
C682 C683 1.327 . S
C683 H677 0.950 . S
C683 C682 1.327 . S
C683 C687 1.429 . S
C684 C667 1.574 . S
C684 H678 0.949 . S
C684 C688 1.368 . S
C685 C666 1.429 . S
C685 C679 1.429 . S
C685 C686 1.523 . S
C686 C667 1.368 . S
C686 C680 1.368 . S
C686 C685 1.523 . S
C687 C671 1.429 . S
C687 C683 1.429 . S
C687 C688 1.523 . S
C688 C672 1.368 . S
C688 C684 1.368 . S
C688 C687 1.523 . S
H689 C664 0.950 . S
H690 C666 0.950 . S
H691 C667 0.949 . S
H692 C669 0.950 . S
H693 C671 0.950 . S
C694 C695 1.349 . S
C694 C696 1.327 . S
C694 H719 0.950 . S
C695 C694 1.349 . S
C695 C711 1.349 . S
C696 C694 1.327 . S
C696 C715 1.429 . S
C696 H720 0.950 . S
C697 C714 1.574 . S
C697 C716 1.368 . S
C697 H721 0.949 . S
H698 C702 0.949 . S
C699 C700 1.349 . S
C699 C701 1.327 . S
C699 H722 0.950 . S
C700 C699 1.349 . S
C700 C712 1.349 . S
C701 C699 1.327 . S
C701 C717 1.429 . S
C701 H723 0.950 . S
C702 H698 0.949 . S
C702 C710 1.574 . S
C702 C718 1.368 . S
H703 C711 0.950 . S
H704 C709 0.950 . S
H705 C710 0.949 . S
H706 C712 0.950 . S
H707 C713 0.950 . S
H708 C714 0.949 . S
C709 H704 0.950 . S
C709 C711 1.327 . S
C709 C715 1.429 . S
C710 C702 1.574 . S
C710 H705 0.949 . S
C710 C716 1.368 . S
C711 C695 1.349 . S
C711 H703 0.950 . S
C711 C709 1.327 . S
C712 C700 1.349 . S
C712 H706 0.950 . S
C712 C713 1.327 . S
C713 H707 0.950 . S
C713 C712 1.327 . S
C713 C717 1.429 . S
C714 C697 1.574 . S
C714 H708 0.949 . S
C714 C718 1.368 . S
C715 C696 1.429 . S
C715 C709 1.429 . S
C715 C716 1.523 . S
C716 C697 1.368 . S
C716 C710 1.368 . S
C716 C715 1.523 . S
C717 C701 1.429 . S
C717 C713 1.429 . S
C717 C718 1.523 . S
C718 C702 1.368 . S
C718 C714 1.368 . S
C718 C717 1.523 . S
H719 C694 0.950 . S
H720 C696 0.950 . S
H721 C697 0.949 . S
H722 C699 0.950 . S
H723 C701 0.950 . S
C724 C725 1.349 . S
C724 C726 1.327 . S
C724 H749 0.950 . S
C725 C724 1.349 . S
C725 C741 1.349 . S
C726 C724 1.327 . S
C726 C745 1.429 . S
C726 H750 0.950 . S
C727 C744 1.574 . S
C727 C746 1.368 . S
C727 H751 0.949 . S
H728 C732 0.949 . S
C729 C730 1.349 . S
C729 C731 1.327 . S
C729 H752 0.950 . S
C730 C729 1.349 . S
C730 C742 1.349 . S
C731 C729 1.327 . S
C731 C747 1.429 . S
C731 H753 0.950 . S
C732 H728 0.949 . S
C732 C740 1.574 . S
C732 C748 1.368 . S
H733 C741 0.950 . S
H734 C739 0.950 . S
H735 C740 0.949 . S
H736 C742 0.950 . S
H737 C743 0.950 . S
H738 C744 0.949 . S
C739 H734 0.950 . S
C739 C741 1.327 . S
C739 C745 1.429 . S
C740 C732 1.574 . S
C740 H735 0.949 . S
C740 C746 1.368 . S
C741 C725 1.349 . S
C741 H733 0.950 . S
C741 C739 1.327 . S
C742 C730 1.349 . S
C742 H736 0.950 . S
C742 C743 1.327 . S
C743 H737 0.950 . S
C743 C742 1.327 . S
C743 C747 1.429 . S
C744 C727 1.574 . S
C744 H738 0.949 . S
C744 C748 1.368 . S
C745 C726 1.429 . S
C745 C739 1.429 . S
C745 C746 1.523 . S
C746 C727 1.368 . S
C746 C740 1.368 . S
C746 C745 1.523 . S
C747 C731 1.429 . S
C747 C743 1.429 . S
C747 C748 1.523 . S
C748 C732 1.368 . S
C748 C744 1.368 . S
C748 C747 1.523 . S
H749 C724 0.950 . S
H750 C726 0.950 . S
H751 C727 0.949 . S
H752 C729 0.950 . S
H753 C731 0.950 . S
C754 C755 1.349 . S
C754 C756 1.327 . S
C754 H779 0.950 . S
C755 C754 1.349 . S
C755 C771 1.349 . S
C756 C754 1.327 . S
C756 C775 1.429 . S
C756 H780 0.950 . S
C757 C774 1.574 . S
C757 C776 1.368 . S
C757 H781 0.949 . S
H758 C762 0.949 . S
C759 C760 1.349 . S
C759 C761 1.327 . S
C759 H782 0.950 . S
C760 C759 1.349 . S
C760 C772 1.349 . S
C761 C759 1.327 . S
C761 C777 1.429 . S
C761 H783 0.950 . S
C762 H758 0.949 . S
C762 C770 1.574 . S
C762 C778 1.368 . S
H763 C771 0.950 . S
H764 C769 0.950 . S
H765 C770 0.949 . S
H766 C772 0.950 . S
H767 C773 0.950 . S
H768 C774 0.949 . S
C769 H764 0.950 . S
C769 C771 1.327 . S
C769 C775 1.429 . S
C770 C762 1.574 . S
C770 H765 0.949 . S
C770 C776 1.368 . S
C771 C755 1.349 . S
C771 H763 0.950 . S
C771 C769 1.327 . S
C772 C760 1.349 . S
C772 H766 0.950 . S
C772 C773 1.327 . S
C773 H767 0.950 . S
C773 C772 1.327 . S
C773 C777 1.429 . S
C774 C757 1.574 . S
C774 H768 0.949 . S
C774 C778 1.368 . S
C775 C756 1.429 . S
C775 C769 1.429 . S
C775 C776 1.523 . S
C776 C757 1.368 . S
C776 C770 1.368 . S
C776 C775 1.523 . S
C777 C761 1.429 . S
C777 C773 1.429 . S
C777 C778 1.523 . S
C778 C762 1.368 . S
C778 C774 1.368 . S
C778 C777 1.523 . S
H779 C754 0.950 . S
H780 C756 0.950 . S
H781 C757 0.949 . S
H782 C759 0.950 . S
H783 C761 0.950 . S
C784 C785 1.349 . S
C784 C786 1.327 . S
C784 H809 0.950 . S
C785 C784 1.349 . S
C785 C801 1.349 . S
C786 C784 1.327 . S
C786 C805 1.429 . S
C786 H810 0.950 . S
C787 C804 1.574 . S
C787 C806 1.368 . S
C787 H811 0.949 . S
H788 C792 0.949 . S
C789 C790 1.349 . S
C789 C791 1.327 . S
C789 H812 0.950 . S
C790 C789 1.349 . S
C790 C802 1.349 . S
C791 C789 1.327 . S
C791 C807 1.429 . S
C791 H813 0.950 . S
C792 H788 0.949 . S
C792 C800 1.574 . S
C792 C808 1.368 . S
H793 C801 0.950 . S
H794 C799 0.950 . S
H795 C800 0.949 . S
H796 C802 0.950 . S
H797 C803 0.950 . S
H798 C804 0.949 . S
C799 H794 0.950 . S
C799 C801 1.327 . S
C799 C805 1.429 . S
C800 C792 1.574 . S
C800 H795 0.949 . S
C800 C806 1.368 . S
C801 C785 1.349 . S
C801 H793 0.950 . S
C801 C799 1.327 . S
C802 C790 1.349 . S
C802 H796 0.950 . S
C802 C803 1.327 . S
C803 H797 0.950 . S
C803 C802 1.327 . S
C803 C807 1.429 . S
C804 C787 1.574 . S
C804 H798 0.949 . S
C804 C808 1.368 . S
C805 C786 1.429 . S
C805 C799 1.429 . S
C805 C806 1.523 . S
C806 C787 1.368 . S
C806 C800 1.368 . S
C806 C805 1.523 . S
C807 C791 1.429 . S
C807 C803 1.429 . S
C807 C808 1.523 . S
C808 C792 1.368 . S
C808 C804 1.368 . S
C808 C807 1.523 . S
H809 C784 0.950 . S
H810 C786 0.950 . S
H811 C787 0.949 . S
H812 C789 0.950 . S
H813 C791 0.950 . S
C814 C815 1.349 . S
C814 C816 1.327 . S
C814 H839 0.950 . S
C815 C814 1.349 . S
C815 C831 1.349 . S
C816 C814 1.327 . S
C816 C835 1.429 . S
C816 H840 0.950 . S
C817 C834 1.574 . S
C817 C836 1.368 . S
C817 H841 0.949 . S
H818 C822 0.949 . S
C819 C820 1.349 . S
C819 C821 1.327 . S
C819 H842 0.950 . S
C820 C819 1.349 . S
C820 C832 1.349 . S
C821 C819 1.327 . S
C821 C837 1.429 . S
C821 H843 0.950 . S
C822 H818 0.949 . S
C822 C830 1.574 . S
C822 C838 1.368 . S
H823 C831 0.950 . S
H824 C829 0.950 . S
H825 C830 0.949 . S
H826 C832 0.950 . S
H827 C833 0.950 . S
H828 C834 0.949 . S
C829 H824 0.950 . S
C829 C831 1.327 . S
C829 C835 1.429 . S
C830 C822 1.574 . S
C830 H825 0.949 . S
C830 C836 1.368 . S
C831 C815 1.349 . S
C831 H823 0.950 . S
C831 C829 1.327 . S
C832 C820 1.349 . S
C832 H826 0.950 . S
C832 C833 1.327 . S
C833 H827 0.950 . S
C833 C832 1.327 . S
C833 C837 1.429 . S
C834 C817 1.574 . S
C834 H828 0.949 . S
C834 C838 1.368 . S
C835 C816 1.429 . S
C835 C829 1.429 . S
C835 C836 1.523 . S
C836 C817 1.368 . S
C836 C830 1.368 . S
C836 C835 1.523 . S
C837 C821 1.429 . S
C837 C833 1.429 . S
C837 C838 1.523 . S
C838 C822 1.368 . S
C838 C834 1.368 . S
C838 C837 1.523 . S
H839 C814 0.950 . S
H840 C816 0.950 . S
H841 C817 0.949 . S
H842 C819 0.950 . S
H843 C821 0.950 . S
C844 C845 1.349 . S
C844 C846 1.327 . S
C844 H869 0.950 . S
C845 C844 1.349 . S
C845 C861 1.349 . S
C846 C844 1.327 . S
C846 C865 1.429 . S
C846 H870 0.950 . S
C847 C864 1.574 . S
C847 C866 1.368 . S
C847 H871 0.949 . S
H848 C852 0.949 . S
C849 C850 1.349 . S
C849 C851 1.327 . S
C849 H872 0.950 . S
C850 C849 1.349 . S
C850 C862 1.349 . S
C851 C849 1.327 . S
C851 C867 1.429 . S
C851 H873 0.950 . S
C852 H848 0.949 . S
C852 C860 1.574 . S
C852 C868 1.368 . S
H853 C861 0.950 . S
H854 C859 0.950 . S
H855 C860 0.949 . S
H856 C862 0.950 . S
H857 C863 0.950 . S
H858 C864 0.949 . S
C859 H854 0.950 . S
C859 C861 1.327 . S
C859 C865 1.429 . S
C860 C852 1.574 . S
C860 H855 0.949 . S
C860 C866 1.368 . S
C861 C845 1.349 . S
C861 H853 0.950 . S
C861 C859 1.327 . S
C862 C850 1.349 . S
C862 H856 0.950 . S
C862 C863 1.327 . S
C863 H857 0.950 . S
C863 C862 1.327 . S
C863 C867 1.429 . S
C864 C847 1.574 . S
C864 H858 0.949 . S
C864 C868 1.368 . S
C865 C846 1.429 . S
C865 C859 1.429 . S
C865 C866 1.523 . S
C866 C847 1.368 . S
C866 C860 1.368 . S
C866 C865 1.523 . S
C867 C851 1.429 . S
C867 C863 1.429 . S
C867 C868 1.523 . S
C868 C852 1.368 . S
C868 C864 1.368 . S
C868 C867 1.523 . S
H869 C844 0.950 . S
H870 C846 0.950 . S
H871 C847 0.949 . S
H872 C849 0.950 . S
H873 C851 0.950 . S
C874 C875 1.349 . S
C874 C876 1.327 . S
C874 H899 0.950 . S
C875 C874 1.349 . S
C875 C891 1.349 . S
C876 C874 1.327 . S
C876 C895 1.429 . S
C876 H900 0.950 . S
C877 C894 1.574 . S
C877 C896 1.368 . S
C877 H901 0.949 . S
H878 C882 0.949 . S
C879 C880 1.349 . S
C879 C881 1.327 . S
C879 H902 0.950 . S
C880 C879 1.349 . S
C880 C892 1.349 . S
C881 C879 1.327 . S
C881 C897 1.429 . S
C881 H903 0.950 . S
C882 H878 0.949 . S
C882 C890 1.574 . S
C882 C898 1.368 . S
H883 C891 0.950 . S
H884 C889 0.950 . S
H885 C890 0.949 . S
H886 C892 0.950 . S
H887 C893 0.950 . S
H888 C894 0.949 . S
C889 H884 0.950 . S
C889 C891 1.327 . S
C889 C895 1.429 . S
C890 C882 1.574 . S
C890 H885 0.949 . S
C890 C896 1.368 . S
C891 C875 1.349 . S
C891 H883 0.950 . S
C891 C889 1.327 . S
C892 C880 1.349 . S
C892 H886 0.950 . S
C892 C893 1.327 . S
C893 H887 0.950 . S
C893 C892 1.327 . S
C893 C897 1.429 . S
C894 C877 1.574 . S
C894 H888 0.949 . S
C894 C898 1.368 . S
C895 C876 1.429 . S
C895 C889 1.429 . S
C895 C896 1.523 . S
C896 C877 1.368 . S
C896 C890 1.368 . S
C896 C895 1.523 . S
C897 C881 1.429 . S
C897 C893 1.429 . S
C897 C898 1.523 . S
C898 C882 1.368 . S
C898 C894 1.368 . S
C898 C897 1.523 . S
H899 C874 0.950 . S
H900 C876 0.950 . S
H901 C877 0.949 . S
H902 C879 0.950 . S
H903 C881 0.950 . S
C904 C905 1.349 . S
C904 C906 1.327 . S
C904 H929 0.950 . S
C905 C904 1.349 . S
C905 C921 1.349 . S
C906 C904 1.327 . S
C906 C925 1.429 . S
C906 H930 0.950 . S
C907 C924 1.574 . S
C907 C926 1.368 . S
C907 H931 0.949 . S
H908 C912 0.949 . S
C909 C910 1.349 . S
C909 C911 1.327 . S
C909 H932 0.950 . S
C910 C909 1.349 . S
C910 C922 1.349 . S
C911 C909 1.327 . S
C911 C927 1.429 . S
C911 H933 0.950 . S
C912 H908 0.949 . S
C912 C920 1.574 . S
C912 C928 1.368 . S
H913 C921 0.950 . S
H914 C919 0.950 . S
H915 C920 0.949 . S
H916 C922 0.950 . S
H917 C923 0.950 . S
H918 C924 0.949 . S
C919 H914 0.950 . S
C919 C921 1.327 . S
C919 C925 1.429 . S
C920 C912 1.574 . S
C920 H915 0.949 . S
C920 C926 1.368 . S
C921 C905 1.349 . S
C921 H913 0.950 . S
C921 C919 1.327 . S
C922 C910 1.349 . S
C922 H916 0.950 . S
C922 C923 1.327 . S
C923 H917 0.950 . S
C923 C922 1.327 . S
C923 C927 1.429 . S
C924 C907 1.574 . S
C924 H918 0.949 . S
C924 C928 1.368 . S
C925 C906 1.429 . S
C925 C919 1.429 . S
C925 C926 1.523 . S
C926 C907 1.368 . S
C926 C920 1.368 . S
C926 C925 1.523 . S
C927 C911 1.429 . S
C927 C923 1.429 . S
C927 C928 1.523 . S
C928 C912 1.368 . S
C928 C924 1.368 . S
C928 C927 1.523 . S
H929 C904 0.950 . S
H930 C906 0.950 . S
H931 C907 0.949 . S
H932 C909 0.950 . S
H933 C911 0.950 . S
C934 C935 1.349 . S
C934 C936 1.327 . S
C934 H959 0.950 . S
C935 C934 1.349 . S
C935 C951 1.349 . S
C936 C934 1.327 . S
C936 C955 1.429 . S
C936 H960 0.950 . S
C937 C954 1.574 . S
C937 C956 1.368 . S
C937 H961 0.949 . S
H938 C942 0.949 . S
C939 C940 1.349 . S
C939 C941 1.327 . S
C939 H962 0.950 . S
C940 C939 1.349 . S
C940 C952 1.349 . S
C941 C939 1.327 . S
C941 C957 1.429 . S
C941 H963 0.950 . S
C942 H938 0.949 . S
C942 C950 1.574 . S
C942 C958 1.368 . S
H943 C951 0.950 . S
H944 C949 0.950 . S
H945 C950 0.949 . S
H946 C952 0.950 . S
H947 C953 0.950 . S
H948 C954 0.949 . S
C949 H944 0.950 . S
C949 C951 1.327 . S
C949 C955 1.429 . S
C950 C942 1.574 . S
C950 H945 0.949 . S
C950 C956 1.368 . S
C951 C935 1.349 . S
C951 H943 0.950 . S
C951 C949 1.327 . S
C952 C940 1.349 . S
C952 H946 0.950 . S
C952 C953 1.327 . S
C953 H947 0.950 . S
C953 C952 1.327 . S
C953 C957 1.429 . S
C954 C937 1.574 . S
C954 H948 0.949 . S
C954 C958 1.368 . S
C955 C936 1.429 . S
C955 C949 1.429 . S
C955 C956 1.523 . S
C956 C937 1.368 . S
C956 C950 1.368 . S
C956 C955 1.523 . S
C957 C941 1.429 . S
C957 C953 1.429 . S
C957 C958 1.523 . S
C958 C942 1.368 . S
C958 C954 1.368 . S
C958 C957 1.523 . S
H959 C934 0.950 . S
H960 C936 0.950 . S
H961 C937 0.949 . S
H962 C939 0.950 . S
H963 C941 0.950 . S
C964 C965 1.349 . S
C964 C966 1.327 . S
C964 H989 0.950 . S
C965 C964 1.349 . S
C965 C981 1.349 . S
C966 C964 1.327 . S
C966 C985 1.429 . S
C966 H990 0.950 . S
C967 C984 1.574 . S
C967 C986 1.368 . S
C967 H991 0.949 . S
H968 C972 0.949 . S
C969 C970 1.349 . S
C969 C971 1.327 . S
C969 H992 0.950 . S
C970 C969 1.349 . S
C970 C982 1.349 . S
C971 C969 1.327 . S
C971 C987 1.429 . S
C971 H993 0.950 . S
C972 H968 0.949 . S
C972 C980 1.574 . S
C972 C988 1.368 . S
H973 C981 0.950 . S
H974 C979 0.950 . S
H975 C980 0.949 . S
H976 C982 0.950 . S
H977 C983 0.950 . S
H978 C984 0.949 . S
C979 H974 0.950 . S
C979 C981 1.327 . S
C979 C985 1.429 . S
C980 C972 1.574 . S
C980 H975 0.949 . S
C980 C986 1.368 . S
C981 C965 1.349 . S
C981 H973 0.950 . S
C981 C979 1.327 . S
C982 C970 1.349 . S
C982 H976 0.950 . S
C982 C983 1.327 . S
C983 H977 0.950 . S
C983 C982 1.327 . S
C983 C987 1.429 . S
C984 C967 1.574 . S
C984 H978 0.949 . S
C984 C988 1.368 . S
C985 C966 1.429 . S
C985 C979 1.429 . S
C985 C986 1.523 . S
C986 C967 1.368 . S
C986 C980 1.368 . S
C986 C985 1.523 . S
C987 C971 1.429 . S
C987 C983 1.429 . S
C987 C988 1.523 . S
C988 C972 1.368 . S
C988 C984 1.368 . S
C988 C987 1.523 . S
H989 C964 0.950 . S
H990 C966 0.950 . S
H991 C967 0.949 . S
H992 C969 0.950 . S
H993 C971 0.950 . S
C994 C995 1.349 . S
C994 C996 1.327 . S
C994 H1019 0.950 . S
C995 C994 1.349 . S
C995 C1011 1.349 . S
C996 C994 1.327 . S
C996 C1015 1.429 . S
C996 H1020 0.950 . S
C997 C1014 1.574 . S
C997 C1016 1.368 . S
C997 H1021 0.949 . S
H998 C1002 0.949 . S
C999 C1000 1.349 . S
C999 C1001 1.327 . S
C999 H1022 0.950 . S
C1000 C999 1.349 . S
C1000 C1012 1.349 . S
C1001 C999 1.327 . S
C1001 C1017 1.429 . S
C1001 H1023 0.950 . S
C1002 H998 0.949 . S
C1002 C1010 1.574 . S
C1002 C1018 1.368 . S
H1003 C1011 0.950 . S
H1004 C1009 0.950 . S
H1005 C1010 0.949 . S
H1006 C1012 0.950 . S
H1007 C1013 0.950 . S
H1008 C1014 0.949 . S
C1009 H1004 0.950 . S
C1009 C1011 1.327 . S
C1009 C1015 1.429 . S
C1010 C1002 1.574 . S
C1010 H1005 0.949 . S
C1010 C1016 1.368 . S
C1011 C995 1.349 . S
C1011 H1003 0.950 . S
C1011 C1009 1.327 . S
C1012 C1000 1.349 . S
C1012 H1006 0.950 . S
C1012 C1013 1.327 . S
C1013 H1007 0.950 . S
C1013 C1012 1.327 . S
C1013 C1017 1.429 . S
C1014 C997 1.574 . S
C1014 H1008 0.949 . S
C1014 C1018 1.368 . S
C1015 C996 1.429 . S
C1015 C1009 1.429 . S
C1015 C1016 1.523 . S
C1016 C997 1.368 . S
C1016 C1010 1.368 . S
C1016 C1015 1.523 . S
C1017 C1001 1.429 . S
C1017 C1013 1.429 . S
C1017 C1018 1.523 . S
C1018 C1002 1.368 . S
C1018 C1014 1.368 . S
C1018 C1017 1.523 . S
H1019 C994 0.950 . S
H1020 C996 0.950 . S
H1021 C997 0.949 . S
H1022 C999 0.950 . S
H1023 C1001 0.950 . S
C1024 C1025 1.349 . S
C1024 C1026 1.327 . S
C1024 H1049 0.950 . S
C1025 C1024 1.349 . S
C1025 C1041 1.349 . S
C1026 C1024 1.327 . S
C1026 C1045 1.429 . S
C1026 H1050 0.950 . S
C1027 C1044 1.574 . S
C1027 C1046 1.368 . S
C1027 H1051 0.949 . S
H1028 C1032 0.949 . S
C1029 C1030 1.349 . S
C1029 C1031 1.327 . S
C1029 H1052 0.950 . S
C1030 C1029 1.349 . S
C1030 C1042 1.349 . S
C1031 C1029 1.327 . S
C1031 C1047 1.429 . S
C1031 H1053 0.950 . S
C1032 H1028 0.949 . S
C1032 C1040 1.574 . S
C1032 C1048 1.368 . S
H1033 C1041 0.950 . S
H1034 C1039 0.950 . S
H1035 C1040 0.949 . S
H1036 C1042 0.950 . S
H1037 C1043 0.950 . S
H1038 C1044 0.949 . S
C1039 H1034 0.950 . S
C1039 C1041 1.327 . S
C1039 C1045 1.429 . S
C1040 C1032 1.574 . S
C1040 H1035 0.949 . S
C1040 C1046 1.368 . S
C1041 C1025 1.349 . S
C1041 H1033 0.950 . S
C1041 C1039 1.327 . S
C1042 C1030 1.349 . S
C1042 H1036 0.950 . S
C1042 C1043 1.327 . S
C1043 H1037 0.950 . S
C1043 C1042 1.327 . S
C1043 C1047 1.429 . S
C1044 C1027 1.574 . S
C1044 H1038 0.949 . S
C1044 C1048 1.368 . S
C1045 C1026 1.429 . S
C1045 C1039 1.429 . S
C1045 C1046 1.523 . S
C1046 C1027 1.368 . S
C1046 C1040 1.368 . S
C1046 C1045 1.523 . S
C1047 C1031 1.429 . S
C1047 C1043 1.429 . S
C1047 C1048 1.523 . S
C1048 C1032 1.368 . S
C1048 C1044 1.368 . S
C1048 C1047 1.523 . S
H1049 C1024 0.950 . S
H1050 C1026 0.950 . S
H1051 C1027 0.949 . S
H1052 C1029 0.950 . S
H1053 C1031 0.950 . S
C1054 C1055 1.349 . S
C1054 C1056 1.327 . S
C1054 H1079 0.950 . S
C1055 C1054 1.349 . S
C1055 C1071 1.349 . S
C1056 C1054 1.327 . S
C1056 C1075 1.429 . S
C1056 H1080 0.950 . S
C1057 C1074 1.574 . S
C1057 C1076 1.368 . S
C1057 H1081 0.949 . S
H1058 C1062 0.949 . S
C1059 C1060 1.349 . S
C1059 C1061 1.327 . S
C1059 H1082 0.950 . S
C1060 C1059 1.349 . S
C1060 C1072 1.349 . S
C1061 C1059 1.327 . S
C1061 C1077 1.429 . S
C1061 H1083 0.950 . S
C1062 H1058 0.949 . S
C1062 C1070 1.574 . S
C1062 C1078 1.368 . S
H1063 C1071 0.950 . S
H1064 C1069 0.950 . S
H1065 C1070 0.949 . S
H1066 C1072 0.950 . S
H1067 C1073 0.950 . S
H1068 C1074 0.949 . S
C1069 H1064 0.950 . S
C1069 C1071 1.327 . S
C1069 C1075 1.429 . S
C1070 C1062 1.574 . S
C1070 H1065 0.949 . S
C1070 C1076 1.368 . S
C1071 C1055 1.349 . S
C1071 H1063 0.950 . S
C1071 C1069 1.327 . S
C1072 C1060 1.349 . S
C1072 H1066 0.950 . S
C1072 C1073 1.327 . S
C1073 H1067 0.950 . S
C1073 C1072 1.327 . S
C1073 C1077 1.429 . S
C1074 C1057 1.574 . S
C1074 H1068 0.949 . S
C1074 C1078 1.368 . S
C1075 C1056 1.429 . S
C1075 C1069 1.429 . S
C1075 C1076 1.523 . S
C1076 C1057 1.368 . S
C1076 C1070 1.368 . S
C1076 C1075 1.523 . S
C1077 C1061 1.429 . S
C1077 C1073 1.429 . S
C1077 C1078 1.523 . S
C1078 C1062 1.368 . S
C1078 C1074 1.368 . S
C1078 C1077 1.523 . S
H1079 C1054 0.950 . S
H1080 C1056 0.950 . S
H1081 C1057 0.949 . S
H1082 C1059 0.950 . S
H1083 C1061 0.950 . S
C1084 C1085 1.349 . S
C1084 C1086 1.327 . S
C1084 H1109 0.950 . S
C1085 C1084 1.349 . S
C1085 C1101 1.349 . S
C1086 C1084 1.327 . S
C1086 C1105 1.429 . S
C1086 H1110 0.950 . S
C1087 C1104 1.574 . S
C1087 C1106 1.368 . S
C1087 H1111 0.949 . S
H1088 C1092 0.949 . S
C1089 C1090 1.349 . S
C1089 C1091 1.327 . S
C1089 H1112 0.950 . S
C1090 C1089 1.349 . S
C1090 C1102 1.349 . S
C1091 C1089 1.327 . S
C1091 C1107 1.429 . S
C1091 H1113 0.950 . S
C1092 H1088 0.949 . S
C1092 C1100 1.574 . S
C1092 C1108 1.368 . S
H1093 C1101 0.950 . S
H1094 C1099 0.950 . S
H1095 C1100 0.949 . S
H1096 C1102 0.950 . S
H1097 C1103 0.950 . S
H1098 C1104 0.949 . S
C1099 H1094 0.950 . S
C1099 C1101 1.327 . S
C1099 C1105 1.429 . S
C1100 C1092 1.574 . S
C1100 H1095 0.949 . S
C1100 C1106 1.368 . S
C1101 C1085 1.349 . S
C1101 H1093 0.950 . S
C1101 C1099 1.327 . S
C1102 C1090 1.349 . S
C1102 H1096 0.950 . S
C1102 C1103 1.327 . S
C1103 H1097 0.950 . S
C1103 C1102 1.327 . S
C1103 C1107 1.429 . S
C1104 C1087 1.574 . S
C1104 H1098 0.949 . S
C1104 C1108 1.368 . S
C1105 C1086 1.429 . S
C1105 C1099 1.429 . S
C1105 C1106 1.523 . S
C1106 C1087 1.368 . S
C1106 C1100 1.368 . S
C1106 C1105 1.523 . S
C1107 C1091 1.429 . S
C1107 C1103 1.429 . S
C1107 C1108 1.523 . S
C1108 C1092 1.368 . S
C1108 C1104 1.368 . S
C1108 C1107 1.523 . S
H1109 C1084 0.950 . S
H1110 C1086 0.950 . S
H1111 C1087 0.949 . S
H1112 C1089 0.950 . S
H1113 C1091 0.950 . S
C1114 C1115 1.349 . S
C1114 C1116 1.327 . S
C1114 H1139 0.950 . S
C1115 C1114 1.349 . S
C1115 C1131 1.349 . S
C1116 C1114 1.327 . S
C1116 C1135 1.429 . S
C1116 H1140 0.950 . S
C1117 C1134 1.574 . S
C1117 C1136 1.368 . S
C1117 H1141 0.949 . S
H1118 C1122 0.949 . S
C1119 C1120 1.349 . S
C1119 C1121 1.327 . S
C1119 H1142 0.950 . S
C1120 C1119 1.349 . S
C1120 C1132 1.349 . S
C1121 C1119 1.327 . S
C1121 C1137 1.429 . S
C1121 H1143 0.950 . S
C1122 H1118 0.949 . S
C1122 C1130 1.574 . S
C1122 C1138 1.368 . S
H1123 C1131 0.950 . S
H1124 C1129 0.950 . S
H1125 C1130 0.949 . S
H1126 C1132 0.950 . S
H1127 C1133 0.950 . S
H1128 C1134 0.949 . S
C1129 H1124 0.950 . S
C1129 C1131 1.327 . S
C1129 C1135 1.429 . S
C1130 C1122 1.574 . S
C1130 H1125 0.949 . S
C1130 C1136 1.368 . S
C1131 C1115 1.349 . S
C1131 H1123 0.950 . S
C1131 C1129 1.327 . S
C1132 C1120 1.349 . S
C1132 H1126 0.950 . S
C1132 C1133 1.327 . S
C1133 H1127 0.950 . S
C1133 C1132 1.327 . S
C1133 C1137 1.429 . S
C1134 C1117 1.574 . S
C1134 H1128 0.949 . S
C1134 C1138 1.368 . S
C1135 C1116 1.429 . S
C1135 C1129 1.429 . S
C1135 C1136 1.523 . S
C1136 C1117 1.368 . S
C1136 C1130 1.368 . S
C1136 C1135 1.523 . S
C1137 C1121 1.429 . S
C1137 C1133 1.429 . S
C1137 C1138 1.523 . S
C1138 C1122 1.368 . S
C1138 C1134 1.368 . S
C1138 C1137 1.523 . S
H1139 C1114 0.950 . S
H1140 C1116 0.950 . S
H1141 C1117 0.949 . S
H1142 C1119 0.950 . S
H1143 C1121 0.950 . S
C1144 C1145 1.349 . S
C1144 C1146 1.327 . S
C1144 H1169 0.950 . S
C1145 C1144 1.349 . S
C1145 C1161 1.349 . S
C1146 C1144 1.327 . S
C1146 C1165 1.429 . S
C1146 H1170 0.950 . S
C1147 C1164 1.574 . S
C1147 C1166 1.368 . S
C1147 H1171 0.949 . S
H1148 C1152 0.949 . S
C1149 C1150 1.349 . S
C1149 C1151 1.327 . S
C1149 H1172 0.950 . S
C1150 C1149 1.349 . S
C1150 C1162 1.349 . S
C1151 C1149 1.327 . S
C1151 C1167 1.429 . S
C1151 H1173 0.950 . S
C1152 H1148 0.949 . S
C1152 C1160 1.574 . S
C1152 C1168 1.368 . S
H1153 C1161 0.950 . S
H1154 C1159 0.950 . S
H1155 C1160 0.949 . S
H1156 C1162 0.950 . S
H1157 C1163 0.950 . S
H1158 C1164 0.949 . S
C1159 H1154 0.950 . S
C1159 C1161 1.327 . S
C1159 C1165 1.429 . S
C1160 C1152 1.574 . S
C1160 H1155 0.949 . S
C1160 C1166 1.368 . S
C1161 C1145 1.349 . S
C1161 H1153 0.950 . S
C1161 C1159 1.327 . S
C1162 C1150 1.349 . S
C1162 H1156 0.950 . S
C1162 C1163 1.327 . S
C1163 H1157 0.950 . S
C1163 C1162 1.327 . S
C1163 C1167 1.429 . S
C1164 C1147 1.574 . S
C1164 H1158 0.949 . S
C1164 C1168 1.368 . S
C1165 C1146 1.429 . S
C1165 C1159 1.429 . S
C1165 C1166 1.523 . S
C1166 C1147 1.368 . S
C1166 C1160 1.368 . S
C1166 C1165 1.523 . S
C1167 C1151 1.429 . S
C1167 C1163 1.429 . S
C1167 C1168 1.523 . S
C1168 C1152 1.368 . S
C1168 C1164 1.368 . S
C1168 C1167 1.523 . S
H1169 C1144 0.950 . S
H1170 C1146 0.950 . S
H1171 C1147 0.949 . S
H1172 C1149 0.950 . S
H1173 C1151 0.950 . S
C1174 C1175 1.349 . S
C1174 C1176 1.327 . S
C1174 H1199 0.950 . S
C1175 C1174 1.349 . S
C1175 C1191 1.349 . S
C1176 C1174 1.327 . S
C1176 C1195 1.429 . S
C1176 H1200 0.950 . S
C1177 C1194 1.574 . S
C1177 C1196 1.368 . S
C1177 H1201 0.949 . S
H1178 C1182 0.949 . S
C1179 C1180 1.349 . S
C1179 C1181 1.327 . S
C1179 H1202 0.950 . S
C1180 C1179 1.349 . S
C1180 C1192 1.349 . S
C1181 C1179 1.327 . S
C1181 C1197 1.429 . S
C1181 H1203 0.950 . S
C1182 H1178 0.949 . S
C1182 C1190 1.574 . S
C1182 C1198 1.368 . S
H1183 C1191 0.950 . S
H1184 C1189 0.950 . S
H1185 C1190 0.949 . S
H1186 C1192 0.950 . S
H1187 C1193 0.950 . S
H1188 C1194 0.949 . S
C1189 H1184 0.950 . S
C1189 C1191 1.327 . S
C1189 C1195 1.429 . S
C1190 C1182 1.574 . S
C1190 H1185 0.949 . S
C1190 C1196 1.368 . S
C1191 C1175 1.349 . S
C1191 H1183 0.950 . S
C1191 C1189 1.327 . S
C1192 C1180 1.349 . S
C1192 H1186 0.950 . S
C1192 C1193 1.327 . S
C1193 H1187 0.950 . S
C1193 C1192 1.327 . S
C1193 C1197 1.429 . S
C1194 C1177 1.574 . S
C1194 H1188 0.949 . S
C1194 C1198 1.368 . S
C1195 C1176 1.429 . S
C1195 C1189 1.429 . S
C1195 C1196 1.523 . S
C1196 C1177 1.368 . S
C1196 C1190 1.368 . S
C1196 C1195 1.523 . S
C1197 C1181 1.429 . S
C1197 C1193 1.429 . S
C1197 C1198 1.523 . S
C1198 C1182 1.368 . S
C1198 C1194 1.368 . S
C1198 C1197 1.523 . S
H1199 C1174 0.950 . S
H1200 C1176 0.950 . S
H1201 C1177 0.949 . S
H1202 C1179 0.950 . S
H1203 C1181 0.950 . S
C1204 C1205 1.349 . S
C1204 C1206 1.327 . S
C1204 H1229 0.950 . S
C1205 C1204 1.349 . S
C1205 C1221 1.349 . S
C1206 C1204 1.327 . S
C1206 C1225 1.429 . S
C1206 H1230 0.950 . S
C1207 C1224 1.574 . S
C1207 C1226 1.368 . S
C1207 H1231 0.949 . S
H1208 C1212 0.949 . S
C1209 C1210 1.349 . S
C1209 C1211 1.327 . S
C1209 H1232 0.950 . S
C1210 C1209 1.349 . S
C1210 C1222 1.349 . S
C1211 C1209 1.327 . S
C1211 C1227 1.429 . S
C1211 H1233 0.950 . S
C1212 H1208 0.949 . S
C1212 C1220 1.574 . S
C1212 C1228 1.368 . S
H1213 C1221 0.950 . S
H1214 C1219 0.950 . S
H1215 C1220 0.949 . S
H1216 C1222 0.950 . S
H1217 C1223 0.950 . S
H1218 C1224 0.949 . S
C1219 H1214 0.950 . S
C1219 C1221 1.327 . S
C1219 C1225 1.429 . S
C1220 C1212 1.574 . S
C1220 H1215 0.949 . S
C1220 C1226 1.368 . S
C1221 C1205 1.349 . S
C1221 H1213 0.950 . S
C1221 C1219 1.327 . S
C1222 C1210 1.349 . S
C1222 H1216 0.950 . S
C1222 C1223 1.327 . S
C1223 H1217 0.950 . S
C1223 C1222 1.327 . S
C1223 C1227 1.429 . S
C1224 C1207 1.574 . S
C1224 H1218 0.949 . S
C1224 C1228 1.368 . S
C1225 C1206 1.429 . S
C1225 C1219 1.429 . S
C1225 C1226 1.523 . S
C1226 C1207 1.368 . S
C1226 C1220 1.368 . S
C1226 C1225 1.523 . S
C1227 C1211 1.429 . S
C1227 C1223 1.429 . S
C1227 C1228 1.523 . S
C1228 C1212 1.368 . S
C1228 C1224 1.368 . S
C1228 C1227 1.523 . S
H1229 C1204 0.950 . S
H1230 C1206 0.950 . S
H1231 C1207 0.949 . S
H1232 C1209 0.950 . S
H1233 C1211 0.950 . S
C1234 C1235 1.349 . S
C1234 C1236 1.327 . S
C1234 H1259 0.950 . S
C1235 C1234 1.349 . S
C1235 C1251 1.349 . S
C1236 C1234 1.327 . S
C1236 C1255 1.429 . S
C1236 H1260 0.950 . S
C1237 C1254 1.574 . S
C1237 C1256 1.368 . S
C1237 H1261 0.949 . S
H1238 C1242 0.949 . S
C1239 C1240 1.349 . S
C1239 C1241 1.327 . S
C1239 H1262 0.950 . S
C1240 C1239 1.349 . S
C1240 C1252 1.349 . S
C1241 C1239 1.327 . S
C1241 C1257 1.429 . S
C1241 H1263 0.950 . S
C1242 H1238 0.949 . S
C1242 C1250 1.574 . S
C1242 C1258 1.368 . S
H1243 C1251 0.950 . S
H1244 C1249 0.950 . S
H1245 C1250 0.949 . S
H1246 C1252 0.950 . S
H1247 C1253 0.950 . S
H1248 C1254 0.949 . S
C1249 H1244 0.950 . S
C1249 C1251 1.327 . S
C1249 C1255 1.429 . S
C1250 C1242 1.574 . S
C1250 H1245 0.949 . S
C1250 C1256 1.368 . S
C1251 C1235 1.349 . S
C1251 H1243 0.950 . S
C1251 C1249 1.327 . S
C1252 C1240 1.349 . S
C1252 H1246 0.950 . S
C1252 C1253 1.327 . S
C1253 H1247 0.950 . S
C1253 C1252 1.327 . S
C1253 C1257 1.429 . S
C1254 C1237 1.574 . S
C1254 H1248 0.949 . S
C1254 C1258 1.368 . S
C1255 C1236 1.429 . S
C1255 C1249 1.429 . S
C1255 C1256 1.523 . S
C1256 C1237 1.368 . S
C1256 C1250 1.368 . S
C1256 C1255 1.523 . S
C1257 C1241 1.429 . S
C1257 C1253 1.429 . S
C1257 C1258 1.523 . S
C1258 C1242 1.368 . S
C1258 C1254 1.368 . S
C1258 C1257 1.523 . S
H1259 C1234 0.950 . S
H1260 C1236 0.950 . S
H1261 C1237 0.949 . S
H1262 C1239 0.950 . S
H1263 C1241 0.950 . S
C1264 C1265 1.349 . S
C1264 C1266 1.327 . S
C1264 H1289 0.950 . S
C1265 C1264 1.349 . S
C1265 C1281 1.349 . S
C1266 C1264 1.327 . S
C1266 C1285 1.429 . S
C1266 H1290 0.950 . S
C1267 C1284 1.574 1_655 S
C1267 C1286 1.368 . S
C1267 H1291 0.949 . S
H1268 C1272 0.949 . S
C1269 C1270 1.349 . S
C1269 C1271 1.327 . S
C1269 H1292 0.950 . S
C1270 C1269 1.349 . S
C1270 C1282 1.349 . S
C1271 C1269 1.327 . S
C1271 C1287 1.429 . S
C1271 H1293 0.950 . S
C1272 H1268 0.949 . S
C1272 C1280 1.574 1_455 S
C1272 C1288 1.368 . S
H1273 C1281 0.950 . S
H1274 C1279 0.950 . S
H1275 C1280 0.949 . S
H1276 C1282 0.950 . S
H1277 C1283 0.950 . S
H1278 C1284 0.949 . S
C1279 H1274 0.950 . S
C1279 C1281 1.327 . S
C1279 C1285 1.429 . S
C1280 C1272 1.574 1_655 S
C1280 H1275 0.949 . S
C1280 C1286 1.368 . S
C1281 C1265 1.349 . S
C1281 H1273 0.950 . S
C1281 C1279 1.327 . S
C1282 C1270 1.349 . S
C1282 H1276 0.950 . S
C1282 C1283 1.327 . S
C1283 H1277 0.950 . S
C1283 C1282 1.327 . S
C1283 C1287 1.429 . S
C1284 C1267 1.574 1_455 S
C1284 H1278 0.949 . S
C1284 C1288 1.368 . S
C1285 C1266 1.429 . S
C1285 C1279 1.429 . S
C1285 C1286 1.523 . S
C1286 C1267 1.368 . S
C1286 C1280 1.368 . S
C1286 C1285 1.523 . S
C1287 C1271 1.429 . S
C1287 C1283 1.429 . S
C1287 C1288 1.523 . S
C1288 C1272 1.368 . S
C1288 C1284 1.368 . S
C1288 C1287 1.523 . S
H1289 C1264 0.950 . S
H1290 C1266 0.950 . S
H1291 C1267 0.949 . S
H1292 C1269 0.950 . S
H1293 C1271 0.950 . S
C1294 C1295 1.349 . S
C1294 C1296 1.327 . S
C1294 H1319 0.950 . S
C1295 C1294 1.349 . S
C1295 C1311 1.349 . S
C1296 C1294 1.327 . S
C1296 C1315 1.429 . S
C1296 H1320 0.950 . S
C1297 C1314 1.574 1_455 S
C1297 C1316 1.368 . S
C1297 H1321 0.949 . S
H1298 C1302 0.949 . S
C1299 C1300 1.349 . S
C1299 C1301 1.327 . S
C1299 H1322 0.950 . S
C1300 C1299 1.349 . S
C1300 C1312 1.349 . S
C1301 C1299 1.327 . S
C1301 C1317 1.429 . S
C1301 H1323 0.950 . S
C1302 H1298 0.949 . S
C1302 C1310 1.574 1_655 S
C1302 C1318 1.368 . S
H1303 C1311 0.950 . S
H1304 C1309 0.950 . S
H1305 C1310 0.949 . S
H1306 C1312 0.950 . S
H1307 C1313 0.950 . S
H1308 C1314 0.949 . S
C1309 H1304 0.950 . S
C1309 C1311 1.327 . S
C1309 C1315 1.429 . S
C1310 C1302 1.574 1_455 S
C1310 H1305 0.949 . S
C1310 C1316 1.368 . S
C1311 C1295 1.349 . S
C1311 H1303 0.950 . S
C1311 C1309 1.327 . S
C1312 C1300 1.349 . S
C1312 H1306 0.950 . S
C1312 C1313 1.327 . S
C1313 H1307 0.950 . S
C1313 C1312 1.327 . S
C1313 C1317 1.429 . S
C1314 C1297 1.574 1_655 S
C1314 H1308 0.949 . S
C1314 C1318 1.368 . S
C1315 C1296 1.429 . S
C1315 C1309 1.429 . S
C1315 C1316 1.523 . S
C1316 C1297 1.368 . S
C1316 C1310 1.368 . S
C1316 C1315 1.523 . S
C1317 C1301 1.429 . S
C1317 C1313 1.429 . S
C1317 C1318 1.523 . S
C1318 C1302 1.368 . S
C1318 C1314 1.368 . S
C1318 C1317 1.523 . S
H1319 C1294 0.950 . S
H1320 C1296 0.950 . S
H1321 C1297 0.949 . S
H1322 C1299 0.950 . S
H1323 C1301 0.950 . S
C1324 C1325 1.349 . S
C1324 C1326 1.327 . S
C1324 H1349 0.950 . S
C1325 C1324 1.349 . S
C1325 C1341 1.349 . S
C1326 C1324 1.327 . S
C1326 C1345 1.429 . S
C1326 H1350 0.950 . S
C1327 C1344 1.574 1_655 S
C1327 C1346 1.368 . S
C1327 H1351 0.949 . S
H1328 C1332 0.949 . S
C1329 C1330 1.349 . S
C1329 C1331 1.327 . S
C1329 H1352 0.950 . S
C1330 C1329 1.349 . S
C1330 C1342 1.349 . S
C1331 C1329 1.327 . S
C1331 C1347 1.429 . S
C1331 H1353 0.950 . S
C1332 H1328 0.949 . S
C1332 C1340 1.574 1_455 S
C1332 C1348 1.368 . S
H1333 C1341 0.950 . S
H1334 C1339 0.950 . S
H1335 C1340 0.949 . S
H1336 C1342 0.950 . S
H1337 C1343 0.950 . S
H1338 C1344 0.949 . S
C1339 H1334 0.950 . S
C1339 C1341 1.327 . S
C1339 C1345 1.429 . S
C1340 C1332 1.574 1_655 S
C1340 H1335 0.949 . S
C1340 C1346 1.368 . S
C1341 C1325 1.349 . S
C1341 H1333 0.950 . S
C1341 C1339 1.327 . S
C1342 C1330 1.349 . S
C1342 H1336 0.950 . S
C1342 C1343 1.327 . S
C1343 H1337 0.950 . S
C1343 C1342 1.327 . S
C1343 C1347 1.429 . S
C1344 C1327 1.574 1_455 S
C1344 H1338 0.949 . S
C1344 C1348 1.368 . S
C1345 C1326 1.429 . S
C1345 C1339 1.429 . S
C1345 C1346 1.523 . S
C1346 C1327 1.368 . S
C1346 C1340 1.368 . S
C1346 C1345 1.523 . S
C1347 C1331 1.429 . S
C1347 C1343 1.429 . S
C1347 C1348 1.523 . S
C1348 C1332 1.368 . S
C1348 C1344 1.368 . S
C1348 C1347 1.523 . S
H1349 C1324 0.950 . S
H1350 C1326 0.950 . S
H1351 C1327 0.949 . S
H1352 C1329 0.950 . S
H1353 C1331 0.950 . S
C1354 C1355 1.349 . S
C1354 C1356 1.327 . S
C1354 H1379 0.950 . S
C1355 C1354 1.349 . S
C1355 C1371 1.349 . S
C1356 C1354 1.327 . S
C1356 C1375 1.429 . S
C1356 H1380 0.950 . S
C1357 C1374 1.574 1_655 S
C1357 C1376 1.368 . S
C1357 H1381 0.949 . S
H1358 C1362 0.949 . S
C1359 C1360 1.349 . S
C1359 C1361 1.327 . S
C1359 H1382 0.950 . S
C1360 C1359 1.349 . S
C1360 C1372 1.349 . S
C1361 C1359 1.327 . S
C1361 C1377 1.429 . S
C1361 H1383 0.950 . S
C1362 H1358 0.949 . S
C1362 C1370 1.574 1_455 S
C1362 C1378 1.368 . S
H1363 C1371 0.950 . S
H1364 C1369 0.950 . S
H1365 C1370 0.949 . S
H1366 C1372 0.950 . S
H1367 C1373 0.950 . S
H1368 C1374 0.949 . S
C1369 H1364 0.950 . S
C1369 C1371 1.327 . S
C1369 C1375 1.429 . S
C1370 C1362 1.574 1_655 S
C1370 H1365 0.949 . S
C1370 C1376 1.368 . S
C1371 C1355 1.349 . S
C1371 H1363 0.950 . S
C1371 C1369 1.327 . S
C1372 C1360 1.349 . S
C1372 H1366 0.950 . S
C1372 C1373 1.327 . S
C1373 H1367 0.950 . S
C1373 C1372 1.327 . S
C1373 C1377 1.429 . S
C1374 C1357 1.574 1_455 S
C1374 H1368 0.949 . S
C1374 C1378 1.368 . S
C1375 C1356 1.429 . S
C1375 C1369 1.429 . S
C1375 C1376 1.523 . S
C1376 C1357 1.368 . S
C1376 C1370 1.368 . S
C1376 C1375 1.523 . S
C1377 C1361 1.429 . S
C1377 C1373 1.429 . S
C1377 C1378 1.523 . S
C1378 C1362 1.368 . S
C1378 C1374 1.368 . S
C1378 C1377 1.523 . S
H1379 C1354 0.950 . S
H1380 C1356 0.950 . S
H1381 C1357 0.949 . S
H1382 C1359 0.950 . S
H1383 C1361 0.950 . S
C1384 C1385 1.349 . S
C1384 C1386 1.327 . S
C1384 H1409 0.950 . S
C1385 C1384 1.349 . S
C1385 C1401 1.349 . S
C1386 C1384 1.327 . S
C1386 C1405 1.429 . S
C1386 H1410 0.950 . S
C1387 C1404 1.574 . S
C1387 C1406 1.368 . S
C1387 H1411 0.949 . S
H1388 C1392 0.949 . S
C1389 C1390 1.349 . S
C1389 C1391 1.327 . S
C1389 H1412 0.950 . S
C1390 C1389 1.349 . S
C1390 C1402 1.349 . S
C1391 C1389 1.327 . S
C1391 C1407 1.429 . S
C1391 H1413 0.950 . S
C1392 H1388 0.949 . S
C1392 C1400 1.574 . S
C1392 C1408 1.368 . S
H1393 C1401 0.950 . S
H1394 C1399 0.950 . S
H1395 C1400 0.949 . S
H1396 C1402 0.950 . S
H1397 C1403 0.950 . S
H1398 C1404 0.949 . S
C1399 H1394 0.950 . S
C1399 C1401 1.327 . S
C1399 C1405 1.429 . S
C1400 C1392 1.574 . S
C1400 H1395 0.949 . S
C1400 C1406 1.368 . S
C1401 C1385 1.349 . S
C1401 H1393 0.950 . S
C1401 C1399 1.327 . S
C1402 C1390 1.349 . S
C1402 H1396 0.950 . S
C1402 C1403 1.327 . S
C1403 H1397 0.950 . S
C1403 C1402 1.327 . S
C1403 C1407 1.429 . S
C1404 C1387 1.574 . S
C1404 H1398 0.949 . S
C1404 C1408 1.368 . S
C1405 C1386 1.429 . S
C1405 C1399 1.429 . S
C1405 C1406 1.523 . S
C1406 C1387 1.368 . S
C1406 C1400 1.368 . S
C1406 C1405 1.523 . S
C1407 C1391 1.429 . S
C1407 C1403 1.429 . S
C1407 C1408 1.523 . S
C1408 C1392 1.368 . S
C1408 C1404 1.368 . S
C1408 C1407 1.523 . S
H1409 C1384 0.950 . S
H1410 C1386 0.950 . S
H1411 C1387 0.949 . S
H1412 C1389 0.950 . S
H1413 C1391 0.950 . S
C1414 C1415 1.349 . S
C1414 C1416 1.327 . S
C1414 H1439 0.950 . S
C1415 C1414 1.349 . S
C1415 C1431 1.349 . S
C1416 C1414 1.327 . S
C1416 C1435 1.429 . S
C1416 H1440 0.950 . S
C1417 C1434 1.574 . S
C1417 C1436 1.368 . S
C1417 H1441 0.949 . S
H1418 C1422 0.949 . S
C1419 C1420 1.349 . S
C1419 C1421 1.327 . S
C1419 H1442 0.950 . S
C1420 C1419 1.349 . S
C1420 C1432 1.349 . S
C1421 C1419 1.327 . S
C1421 C1437 1.429 . S
C1421 H1443 0.950 . S
C1422 H1418 0.949 . S
C1422 C1430 1.574 . S
C1422 C1438 1.368 . S
H1423 C1431 0.950 . S
H1424 C1429 0.950 . S
H1425 C1430 0.949 . S
H1426 C1432 0.950 . S
H1427 C1433 0.950 . S
H1428 C1434 0.949 . S
C1429 H1424 0.950 . S
C1429 C1431 1.327 . S
C1429 C1435 1.429 . S
C1430 C1422 1.574 . S
C1430 H1425 0.949 . S
C1430 C1436 1.368 . S
C1431 C1415 1.349 . S
C1431 H1423 0.950 . S
C1431 C1429 1.327 . S
C1432 C1420 1.349 . S
C1432 H1426 0.950 . S
C1432 C1433 1.327 . S
C1433 H1427 0.950 . S
C1433 C1432 1.327 . S
C1433 C1437 1.429 . S
C1434 C1417 1.574 . S
C1434 H1428 0.949 . S
C1434 C1438 1.368 . S
C1435 C1416 1.429 . S
C1435 C1429 1.429 . S
C1435 C1436 1.523 . S
C1436 C1417 1.368 . S
C1436 C1430 1.368 . S
C1436 C1435 1.523 . S
C1437 C1421 1.429 . S
C1437 C1433 1.429 . S
C1437 C1438 1.523 . S
C1438 C1422 1.368 . S
C1438 C1434 1.368 . S
C1438 C1437 1.523 . S
H1439 C1414 0.950 . S
H1440 C1416 0.950 . S
H1441 C1417 0.949 . S
H1442 C1419 0.950 . S
H1443 C1421 0.950 . S
C1444 C1445 1.349 . S
C1444 C1446 1.327 . S
C1444 H1469 0.950 . S
C1445 C1444 1.349 . S
C1445 C1461 1.349 . S
C1446 C1444 1.327 . S
C1446 C1465 1.429 . S
C1446 H1470 0.950 . S
C1447 C1464 1.574 . S
C1447 C1466 1.368 . S
C1447 H1471 0.949 . S
H1448 C1452 0.949 . S
C1449 C1450 1.349 . S
C1449 C1451 1.327 . S
C1449 H1472 0.950 . S
C1450 C1449 1.349 . S
C1450 C1462 1.349 . S
C1451 C1449 1.327 . S
C1451 C1467 1.429 . S
C1451 H1473 0.950 . S
C1452 H1448 0.949 . S
C1452 C1460 1.574 . S
C1452 C1468 1.368 . S
H1453 C1461 0.950 . S
H1454 C1459 0.950 . S
H1455 C1460 0.949 . S
H1456 C1462 0.950 . S
H1457 C1463 0.950 . S
H1458 C1464 0.949 . S
C1459 H1454 0.950 . S
C1459 C1461 1.327 . S
C1459 C1465 1.429 . S
C1460 C1452 1.574 . S
C1460 H1455 0.949 . S
C1460 C1466 1.368 . S
C1461 C1445 1.349 . S
C1461 H1453 0.950 . S
C1461 C1459 1.327 . S
C1462 C1450 1.349 . S
C1462 H1456 0.950 . S
C1462 C1463 1.327 . S
C1463 H1457 0.950 . S
C1463 C1462 1.327 . S
C1463 C1467 1.429 . S
C1464 C1447 1.574 . S
C1464 H1458 0.949 . S
C1464 C1468 1.368 . S
C1465 C1446 1.429 . S
C1465 C1459 1.429 . S
C1465 C1466 1.523 . S
C1466 C1447 1.368 . S
C1466 C1460 1.368 . S
C1466 C1465 1.523 . S
C1467 C1451 1.429 . S
C1467 C1463 1.429 . S
C1467 C1468 1.523 . S
C1468 C1452 1.368 . S
C1468 C1464 1.368 . S
C1468 C1467 1.523 . S
H1469 C1444 0.950 . S
H1470 C1446 0.950 . S
H1471 C1447 0.949 . S
H1472 C1449 0.950 . S
H1473 C1451 0.950 . S
C1474 C1475 1.349 . S
C1474 C1476 1.327 . S
C1474 H1499 0.950 . S
C1475 C1474 1.349 . S
C1475 C1491 1.349 . S
C1476 C1474 1.327 . S
C1476 C1495 1.429 . S
C1476 H1500 0.950 . S
C1477 C1494 1.574 . S
C1477 C1496 1.368 . S
C1477 H1501 0.949 . S
H1478 C1482 0.949 . S
C1479 C1480 1.349 . S
C1479 C1481 1.327 . S
C1479 H1502 0.950 . S
C1480 C1479 1.349 . S
C1480 C1492 1.349 . S
C1481 C1479 1.327 . S
C1481 C1497 1.429 . S
C1481 H1503 0.950 . S
C1482 H1478 0.949 . S
C1482 C1490 1.574 . S
C1482 C1498 1.368 . S
H1483 C1491 0.950 . S
H1484 C1489 0.950 . S
H1485 C1490 0.949 . S
H1486 C1492 0.950 . S
H1487 C1493 0.950 . S
H1488 C1494 0.949 . S
C1489 H1484 0.950 . S
C1489 C1491 1.327 . S
C1489 C1495 1.429 . S
C1490 C1482 1.574 . S
C1490 H1485 0.949 . S
C1490 C1496 1.368 . S
C1491 C1475 1.349 . S
C1491 H1483 0.950 . S
C1491 C1489 1.327 . S
C1492 C1480 1.349 . S
C1492 H1486 0.950 . S
C1492 C1493 1.327 . S
C1493 H1487 0.950 . S
C1493 C1492 1.327 . S
C1493 C1497 1.429 . S
C1494 C1477 1.574 . S
C1494 H1488 0.949 . S
C1494 C1498 1.368 . S
C1495 C1476 1.429 . S
C1495 C1489 1.429 . S
C1495 C1496 1.523 . S
C1496 C1477 1.368 . S
C1496 C1490 1.368 . S
C1496 C1495 1.523 . S
C1497 C1481 1.429 . S
C1497 C1493 1.429 . S
C1497 C1498 1.523 . S
C1498 C1482 1.368 . S
C1498 C1494 1.368 . S
C1498 C1497 1.523 . S
H1499 C1474 0.950 . S
H1500 C1476 0.950 . S
H1501 C1477 0.949 . S
H1502 C1479 0.950 . S
H1503 C1481 0.950 . S
C1504 C1505 1.349 . S
C1504 C1506 1.327 . S
C1504 H1529 0.950 . S
C1505 C1504 1.349 . S
C1505 C1521 1.349 . S
C1506 C1504 1.327 . S
C1506 C1525 1.429 . S
C1506 H1530 0.968 . S
C1507 C1524 1.574 1_556 S
C1507 C1526 1.368 . S
C1507 H1531 0.949 . S
H1508 C1512 0.948 . S
C1509 C1510 1.349 . S
C1509 C1511 1.327 . S
C1509 H1532 0.950 . S
C1510 C1509 1.349 . S
C1510 C1522 1.349 . S
C1511 C1509 1.327 . S
C1511 C1527 1.429 . S
C1511 H1533 0.950 . S
C1512 H1508 0.948 . S
C1512 C1520 1.574 1_554 S
C1512 C1528 1.368 . S
H1513 C1521 0.950 . S
H1514 C1519 0.950 . S
H1515 C1520 0.954 . S
H1516 C1522 0.950 . S
H1517 C1523 0.951 . S
H1518 C1524 0.949 . S
C1519 H1514 0.950 . S
C1519 C1521 1.327 . S
C1519 C1525 1.429 . S
C1520 C1512 1.574 1_556 S
C1520 H1515 0.954 . S
C1520 C1526 1.368 . S
C1521 C1505 1.349 . S
C1521 H1513 0.950 . S
C1521 C1519 1.327 . S
C1522 C1510 1.349 . S
C1522 H1516 0.950 . S
C1522 C1523 1.327 . S
C1523 H1517 0.951 . S
C1523 C1522 1.327 . S
C1523 C1527 1.429 . S
C1524 C1507 1.574 1_554 S
C1524 H1518 0.949 . S
C1524 C1528 1.368 . S
C1525 C1506 1.429 . S
C1525 C1519 1.429 . S
C1525 C1526 1.523 . S
C1526 C1507 1.368 . S
C1526 C1520 1.368 . S
C1526 C1525 1.523 . S
C1527 C1511 1.429 . S
C1527 C1523 1.429 . S
C1527 C1528 1.523 . S
C1528 C1512 1.368 . S
C1528 C1524 1.368 . S
C1528 C1527 1.523 . S
H1529 C1504 0.950 . S
H1530 C1506 0.968 . S
H1531 C1507 0.949 . S
H1532 C1509 0.950 . S
H1533 C1511 0.950 . S
C1534 C1535 1.349 . S
C1534 C1536 1.327 . S
C1534 H1559 0.950 . S
C1535 C1534 1.349 . S
C1535 C1551 1.349 . S
C1536 C1534 1.327 . S
C1536 C1555 1.429 . S
C1536 H1560 0.951 . S
C1537 C1554 1.574 1_556 S
C1537 C1556 1.368 . S
C1537 H1561 0.949 . S
H1538 C1542 0.954 . S
C1539 C1540 1.349 . S
C1539 C1541 1.327 . S
C1539 H1562 0.950 . S
C1540 C1539 1.349 . S
C1540 C1552 1.349 . S
C1541 C1539 1.327 . S
C1541 C1557 1.429 . S
C1541 H1563 0.950 . S
C1542 H1538 0.954 . S
C1542 C1550 1.574 1_554 S
C1542 C1558 1.368 . S
H1543 C1551 0.950 . S
H1544 C1549 0.950 . S
H1545 C1550 0.948 . S
H1546 C1552 0.950 . S
H1547 C1553 0.968 . S
H1548 C1554 0.949 . S
C1549 H1544 0.950 . S
C1549 C1551 1.327 . S
C1549 C1555 1.429 . S
C1550 C1542 1.574 1_556 S
C1550 H1545 0.948 . S
C1550 C1556 1.368 . S
C1551 C1535 1.349 . S
C1551 H1543 0.950 . S
C1551 C1549 1.327 . S
C1552 C1540 1.349 . S
C1552 H1546 0.950 . S
C1552 C1553 1.327 . S
C1553 H1547 0.968 . S
C1553 C1552 1.327 . S
C1553 C1557 1.429 . S
C1554 C1537 1.574 1_554 S
C1554 H1548 0.949 . S
C1554 C1558 1.368 . S
C1555 C1536 1.429 . S
C1555 C1549 1.429 . S
C1555 C1556 1.523 . S
C1556 C1537 1.368 . S
C1556 C1550 1.368 . S
C1556 C1555 1.523 . S
C1557 C1541 1.429 . S
C1557 C1553 1.429 . S
C1557 C1558 1.523 . S
C1558 C1542 1.368 . S
C1558 C1554 1.368 . S
C1558 C1557 1.523 . S
H1559 C1534 0.950 . S
H1560 C1536 0.951 . S
H1561 C1537 0.949 . S
H1562 C1539 0.950 . S
H1563 C1541 0.950 . S
C1564 C1565 1.349 . S
C1564 C1566 1.327 . S
C1564 H1589 0.950 . S
C1565 C1564 1.349 . S
C1565 C1581 1.349 . S
C1566 C1564 1.327 . S
C1566 C1585 1.429 . S
C1566 H1590 0.950 . S
C1567 C1584 1.574 . S
C1567 C1586 1.368 . S
C1567 H1591 0.949 . S
H1568 C1572 0.949 . S
C1569 C1570 1.349 . S
C1569 C1571 1.327 . S
C1569 H1592 0.950 . S
C1570 C1569 1.349 . S
C1570 C1582 1.349 . S
C1571 C1569 1.327 . S
C1571 C1587 1.429 . S
C1571 H1593 0.950 . S
C1572 H1568 0.949 . S
C1572 C1580 1.574 . S
C1572 C1588 1.368 . S
H1573 C1581 0.950 . S
H1574 C1579 0.950 . S
H1575 C1580 0.949 . S
H1576 C1582 0.950 . S
H1577 C1583 0.950 . S
H1578 C1584 0.949 . S
C1579 H1574 0.950 . S
C1579 C1581 1.327 . S
C1579 C1585 1.429 . S
C1580 C1572 1.574 . S
C1580 H1575 0.949 . S
C1580 C1586 1.368 . S
C1581 C1565 1.349 . S
C1581 H1573 0.950 . S
C1581 C1579 1.327 . S
C1582 C1570 1.349 . S
C1582 H1576 0.950 . S
C1582 C1583 1.327 . S
C1583 H1577 0.950 . S
C1583 C1582 1.327 . S
C1583 C1587 1.429 . S
C1584 C1567 1.574 . S
C1584 H1578 0.949 . S
C1584 C1588 1.368 . S
C1585 C1566 1.429 . S
C1585 C1579 1.429 . S
C1585 C1586 1.523 . S
C1586 C1567 1.368 . S
C1586 C1580 1.368 . S
C1586 C1585 1.523 . S
C1587 C1571 1.429 . S
C1587 C1583 1.429 . S
C1587 C1588 1.523 . S
C1588 C1572 1.368 . S
C1588 C1584 1.368 . S
C1588 C1587 1.523 . S
H1589 C1564 0.950 . S
H1590 C1566 0.950 . S
H1591 C1567 0.949 . S
H1592 C1569 0.950 . S
H1593 C1571 0.950 . S
C1594 C1595 1.349 . S
C1594 C1596 1.327 . S
C1594 H1619 0.950 . S
C1595 C1594 1.349 . S
C1595 C1611 1.349 . S
C1596 C1594 1.327 . S
C1596 C1615 1.429 . S
C1596 H1620 0.950 . S
C1597 C1614 1.574 . S
C1597 C1616 1.368 . S
C1597 H1621 0.949 . S
H1598 C1602 0.949 . S
C1599 C1600 1.349 . S
C1599 C1601 1.327 . S
C1599 H1622 0.950 . S
C1600 C1599 1.349 . S
C1600 C1612 1.349 . S
C1601 C1599 1.327 . S
C1601 C1617 1.429 . S
C1601 H1623 0.950 . S
C1602 H1598 0.949 . S
C1602 C1610 1.574 . S
C1602 C1618 1.368 . S
H1603 C1611 0.950 . S
H1604 C1609 0.950 . S
H1605 C1610 0.949 . S
H1606 C1612 0.950 . S
H1607 C1613 0.950 . S
H1608 C1614 0.949 . S
C1609 H1604 0.950 . S
C1609 C1611 1.327 . S
C1609 C1615 1.429 . S
C1610 C1602 1.574 . S
C1610 H1605 0.949 . S
C1610 C1616 1.368 . S
C1611 C1595 1.349 . S
C1611 H1603 0.950 . S
C1611 C1609 1.327 . S
C1612 C1600 1.349 . S
C1612 H1606 0.950 . S
C1612 C1613 1.327 . S
C1613 H1607 0.950 . S
C1613 C1612 1.327 . S
C1613 C1617 1.429 . S
C1614 C1597 1.574 . S
C1614 H1608 0.949 . S
C1614 C1618 1.368 . S
C1615 C1596 1.429 . S
C1615 C1609 1.429 . S
C1615 C1616 1.523 . S
C1616 C1597 1.368 . S
C1616 C1610 1.368 . S
C1616 C1615 1.523 . S
C1617 C1601 1.429 . S
C1617 C1613 1.429 . S
C1617 C1618 1.523 . S
C1618 C1602 1.368 . S
C1618 C1614 1.368 . S
C1618 C1617 1.523 . S
H1619 C1594 0.950 . S
H1620 C1596 0.950 . S
H1621 C1597 0.949 . S
H1622 C1599 0.950 . S
H1623 C1601 0.950 . S
C1624 C1625 1.349 . S
C1624 C1626 1.327 . S
C1624 H1649 0.950 . S
C1625 C1624 1.349 . S
C1625 C1641 1.349 . S
C1626 C1624 1.327 . S
C1626 C1645 1.429 . S
C1626 H1650 0.951 . S
C1627 C1644 1.574 . S
C1627 C1646 1.368 . S
C1627 H1651 0.949 . S
H1628 C1632 0.954 . S
C1629 C1630 1.349 . S
C1629 C1631 1.327 . S
C1629 H1652 0.950 . S
C1630 C1629 1.349 . S
C1630 C1642 1.349 . S
C1631 C1629 1.327 . S
C1631 C1647 1.429 . S
C1631 H1653 0.950 . S
C1632 H1628 0.954 . S
C1632 C1640 1.574 . S
C1632 C1648 1.368 . S
H1633 C1641 0.950 . S
H1634 C1639 0.950 . S
H1635 C1640 0.947 . S
H1636 C1642 0.950 . S
H1637 C1643 0.968 . S
H1638 C1644 0.949 . S
C1639 H1634 0.950 . S
C1639 C1641 1.327 . S
C1639 C1645 1.429 . S
C1640 C1632 1.574 . S
C1640 H1635 0.947 . S
C1640 C1646 1.368 . S
C1641 C1625 1.349 . S
C1641 H1633 0.950 . S
C1641 C1639 1.327 . S
C1642 C1630 1.349 . S
C1642 H1636 0.950 . S
C1642 C1643 1.327 . S
C1643 H1637 0.968 . S
C1643 C1642 1.327 . S
C1643 C1647 1.429 . S
C1644 C1627 1.574 . S
C1644 H1638 0.949 . S
C1644 C1648 1.368 . S
C1645 C1626 1.429 . S
C1645 C1639 1.429 . S
C1645 C1646 1.523 . S
C1646 C1627 1.368 . S
C1646 C1640 1.368 . S
C1646 C1645 1.523 . S
C1647 C1631 1.429 . S
C1647 C1643 1.429 . S
C1647 C1648 1.523 . S
C1648 C1632 1.368 . S
C1648 C1644 1.368 . S
C1648 C1647 1.523 . S
H1649 C1624 0.950 . S
H1650 C1626 0.951 . S
H1651 C1627 0.949 . S
H1652 C1629 0.950 . S
H1653 C1631 0.950 . S
C1654 C1655 1.349 . S
C1654 C1656 1.327 . S
C1654 H1679 0.950 . S
C1655 C1654 1.349 . S
C1655 C1671 1.349 . S
C1656 C1654 1.327 . S
C1656 C1675 1.429 . S
C1656 H1680 0.950 . S
C1657 C1674 1.574 . S
C1657 C1676 1.368 . S
C1657 H1681 0.949 . S
H1658 C1662 0.949 . S
C1659 C1660 1.349 . S
C1659 C1661 1.327 . S
C1659 H1682 0.950 . S
C1660 C1659 1.349 . S
C1660 C1672 1.349 . S
C1661 C1659 1.327 . S
C1661 C1677 1.429 . S
C1661 H1683 0.950 . S
C1662 H1658 0.949 . S
C1662 C1670 1.574 . S
C1662 C1678 1.368 . S
H1663 C1671 0.950 . S
H1664 C1669 0.950 . S
H1665 C1670 0.949 . S
H1666 C1672 0.950 . S
H1667 C1673 0.950 . S
H1668 C1674 0.949 . S
C1669 H1664 0.950 . S
C1669 C1671 1.327 . S
C1669 C1675 1.429 . S
C1670 C1662 1.574 . S
C1670 H1665 0.949 . S
C1670 C1676 1.368 . S
C1671 C1655 1.349 . S
C1671 H1663 0.950 . S
C1671 C1669 1.327 . S
C1672 C1660 1.349 . S
C1672 H1666 0.950 . S
C1672 C1673 1.327 . S
C1673 H1667 0.950 . S
C1673 C1672 1.327 . S
C1673 C1677 1.429 . S
C1674 C1657 1.574 . S
C1674 H1668 0.949 . S
C1674 C1678 1.368 . S
C1675 C1656 1.429 . S
C1675 C1669 1.429 . S
C1675 C1676 1.523 . S
C1676 C1657 1.368 . S
C1676 C1670 1.368 . S
C1676 C1675 1.523 . S
C1677 C1661 1.429 . S
C1677 C1673 1.429 . S
C1677 C1678 1.523 . S
C1678 C1662 1.368 . S
C1678 C1674 1.368 . S
C1678 C1677 1.523 . S
H1679 C1654 0.950 . S
H1680 C1656 0.950 . S
H1681 C1657 0.949 . S
H1682 C1659 0.950 . S
H1683 C1661 0.950 . S
C1684 C1685 1.349 . S
C1684 C1686 1.327 . S
C1684 H1709 0.950 . S
C1685 C1684 1.349 . S
C1685 C1701 1.349 . S
C1686 C1684 1.327 . S
C1686 C1705 1.429 . S
C1686 H1710 0.950 . S
C1687 C1704 1.574 1_554 S
C1687 C1706 1.368 . S
C1687 H1711 0.949 . S
H1688 C1692 0.949 . S
C1689 C1690 1.349 . S
C1689 C1691 1.327 . S
C1689 H1712 0.950 . S
C1690 C1689 1.349 . S
C1690 C1702 1.349 . S
C1691 C1689 1.327 . S
C1691 C1707 1.429 . S
C1691 H1713 0.950 . S
C1692 H1688 0.949 . S
C1692 C1700 1.574 1_556 S
C1692 C1708 1.368 . S
H1693 C1701 0.950 . S
H1694 C1699 0.950 . S
H1695 C1700 0.949 . S
H1696 C1702 0.950 . S
H1697 C1703 0.950 . S
H1698 C1704 0.949 . S
C1699 H1694 0.950 . S
C1699 C1701 1.327 . S
C1699 C1705 1.429 . S
C1700 C1692 1.574 1_554 S
C1700 H1695 0.949 . S
C1700 C1706 1.368 . S
C1701 C1685 1.349 . S
C1701 H1693 0.950 . S
C1701 C1699 1.327 . S
C1702 C1690 1.349 . S
C1702 H1696 0.950 . S
C1702 C1703 1.327 . S
C1703 H1697 0.950 . S
C1703 C1702 1.327 . S
C1703 C1707 1.429 . S
C1704 C1687 1.574 1_556 S
C1704 H1698 0.949 . S
C1704 C1708 1.368 . S
C1705 C1686 1.429 . S
C1705 C1699 1.429 . S
C1705 C1706 1.523 . S
C1706 C1687 1.368 . S
C1706 C1700 1.368 . S
C1706 C1705 1.523 . S
C1707 C1691 1.429 . S
C1707 C1703 1.429 . S
C1707 C1708 1.523 . S
C1708 C1692 1.368 . S
C1708 C1704 1.368 . S
C1708 C1707 1.523 . S
H1709 C1684 0.950 . S
H1710 C1686 0.950 . S
H1711 C1687 0.949 . S
H1712 C1689 0.950 . S
H1713 C1691 0.950 . S
C1714 C1715 1.349 . S
C1714 C1716 1.327 . S
C1714 H1739 0.950 . S
C1715 C1714 1.349 . S
C1715 C1731 1.349 . S
C1716 C1714 1.327 . S
C1716 C1735 1.429 . S
C1716 H1740 0.950 . S
C1717 C1734 1.574 1_556 S
C1717 C1736 1.368 . S
C1717 H1741 0.949 . S
H1718 C1722 0.949 . S
C1719 C1720 1.349 . S
C1719 C1721 1.327 . S
C1719 H1742 0.950 . S
C1720 C1719 1.349 . S
C1720 C1732 1.349 . S
C1721 C1719 1.327 . S
C1721 C1737 1.429 . S
C1721 H1743 0.950 . S
C1722 H1718 0.949 . S
C1722 C1730 1.574 1_554 S
C1722 C1738 1.368 . S
H1723 C1731 0.950 . S
H1724 C1729 0.950 . S
H1725 C1730 0.949 . S
H1726 C1732 0.950 . S
H1727 C1733 0.950 . S
H1728 C1734 0.949 . S
C1729 H1724 0.950 . S
C1729 C1731 1.327 . S
C1729 C1735 1.429 . S
C1730 C1722 1.574 1_556 S
C1730 H1725 0.949 . S
C1730 C1736 1.368 . S
C1731 C1715 1.349 . S
C1731 H1723 0.950 . S
C1731 C1729 1.327 . S
C1732 C1720 1.349 . S
C1732 H1726 0.950 . S
C1732 C1733 1.327 . S
C1733 H1727 0.950 . S
C1733 C1732 1.327 . S
C1733 C1737 1.429 . S
C1734 C1717 1.574 1_554 S
C1734 H1728 0.949 . S
C1734 C1738 1.368 . S
C1735 C1716 1.429 . S
C1735 C1729 1.429 . S
C1735 C1736 1.523 . S
C1736 C1717 1.368 . S
C1736 C1730 1.368 . S
C1736 C1735 1.523 . S
C1737 C1721 1.429 . S
C1737 C1733 1.429 . S
C1737 C1738 1.523 . S
C1738 C1722 1.368 . S
C1738 C1734 1.368 . S
C1738 C1737 1.523 . S
H1739 C1714 0.950 . S
H1740 C1716 0.950 . S
H1741 C1717 0.949 . S
H1742 C1719 0.950 . S
H1743 C1721 0.950 . S
C545 C9 1.424 . S
C550 C383 1.424 . S
C575 C43 1.424 . S
C580 C349 1.424 . S
C605 C315 1.424 . S
C610 C77 1.424 . S
C635 C281 1.424 . S
C640 C111 1.424 . S
C665 C145 1.424 . S
C670 C519 1.424 . S
C695 C179 1.424 . S
C700 C485 1.424 . S
C725 C451 1.424 . S
C730 C213 1.424 . S
C755 C417 1.424 . S
C760 C247 1.424 . S
C785 C2 2.094 . S
C790 C444 2.094 . S
C815 C410 2.094 . S
C820 C36 2.094 . S
C845 C70 2.094 . S
C850 C512 2.094 . S
C875 C478 2.094 . S
C880 C104 2.094 . S
C905 C122 0.917 . S
C910 C496 0.917 . S
C935 C530 0.917 . S
C940 C88 0.917 . S
C965 C428 0.917 . S
C970 C54 0.917 . S
C995 C20 0.917 . S
C1000 C462 0.917 . S
C1025 C138 2.094 . S
C1030 C308 2.094 . S
C1055 C172 2.094 . S
C1060 C274 2.094 . S
C1085 C206 2.094 . S
C1090 C376 2.094 . S
C1115 C240 2.094 . S
C1120 C342 2.094 . S
C1145 C258 0.917 . S
C1150 C360 0.917 . S
C1175 C224 0.917 . S
C1180 C394 0.917 . S
C1205 C190 0.917 . S
C1210 C292 0.917 . S
C1235 C156 0.917 . S
C1240 C326 0.917 . S
C1265 C67 1.597 . S
C1270 C33 1.597 . S
C1295 C101 1.597 . S
C1300 C135 1.597 . S
C1325 C203 1.597 . S
C1330 C169 1.597 . S
C1355 C271 1.597 . S
C1360 C237 1.597 . S
C1385 C339 1.597 . S
C1390 C305 1.597 . S
C1415 C407 1.597 . S
C1420 C373 1.597 . S
C1445 C441 1.597 . S
C1450 C475 1.597 . S
C1475 C543 1.597 . S
C1480 C509 1.597 . S
C1505 C73 1.472 . S
C1510 C5 1.472 . S
C1535 C107 1.472 . S
C1540 C39 1.472 . S
C1565 C141 1.472 . S
C1570 C209 1.472 . S
C1595 C243 1.472 . S
C1600 C175 1.472 . S
C1625 C277 1.472 . S
C1630 C345 1.472 . S
C1655 C379 1.472 . S
C1660 C311 1.472 . S
C1685 C413 1.472 . S
C1690 C481 1.472 . S
C1715 C515 1.472 . S
C1720 C447 1.472 . S
