# Generated by pormake.
# Topology ilc, (8)-cn, num edge types: 1
# Building blocks:
#     Node 0, Type 0, BuildingBlock: EBIMEJ_clean_sbu_0, # of connection points: 8
#     Node 1, Type 0, BuildingBlock: EBIMEJ_clean_sbu_0, # of connection points: 8
#     Node 2, Type 0, BuildingBlock: EBIMEJ_clean_sbu_0, # of connection points: 8
#     Edge 3, Type (0, 0), BuildingBlock: XIVTED_clean_linker_0, # of connection points: 2
#     Edge 4, Type (0, 0), BuildingBlock: XIVTED_clean_linker_0, # of connection points: 2
#     Edge 5, Type (0, 0), BuildingBlock: XIVTED_clean_linker_0, # of connection points: 2
#     Edge 6, Type (0, 0), BuildingBlock: XIVTED_clean_linker_0, # of connection points: 2
#     Edge 7, Type (0, 0), BuildingBlock: XIVTED_clean_linker_0, # of connection points: 2
#     Edge 8, Type (0, 0), BuildingBlock: XIVTED_clean_linker_0, # of connection points: 2
#     Edge 9, Type (0, 0), BuildingBlock: XIVTED_clean_linker_0, # of connection points: 2
#     Edge 10, Type (0, 0), BuildingBlock: XIVTED_clean_linker_0, # of connection points: 2
#     Edge 11, Type (0, 0), BuildingBlock: XIVTED_clean_linker_0, # of connection points: 2
#     Edge 12, Type (0, 0), BuildingBlock: XIVTED_clean_linker_0, # of connection points: 2
#     Edge 13, Type (0, 0), BuildingBlock: XIVTED_clean_linker_0, # of connection points: 2
#     Edge 14, Type (0, 0), BuildingBlock: XIVTED_clean_linker_0, # of connection points: 2
# Relax obj value: 0.144
# Max RMSD: 0.227
# Mean RMSD: 0.227
data_MOF--net-ilc--node1-EBIMEJ_clean_sbu_0--edge1-XIVTED_clean_linker_0
_symmetry_space_group_name_H-M    P1
_symmetry_Int_Tables_number       1
_symmetry_cell_setting            triclinic
loop_
_symmetry_equiv_pos_as_xyz
'x, y, z'
_cell_length_a     25.991386
_cell_length_b     23.288711
_cell_length_c     16.900508
_cell_angle_alpha  85.63803
_cell_angle_beta   96.088909
_cell_angle_gamma 136.69864
loop_
_atom_site_label
_atom_site_type_symbol
_atom_site_fract_x
_atom_site_fract_y
_atom_site_fract_z
_atom_type_partial_charge
Co0 Co 1.00723 0.96332 0.17765 0.0
Co1 Co 0.04778 0.9495 0.02096 0.0
Co2 Co 0.93425 0.95666 0.01889 0.0
H3 H 0.96371 0.93714 0.08742 0.0
O4 O 0.96047 0.89849 0.07873 0.0
H5 H 0.03158 0.98667 0.9558 0.0
O6 O 0.02988 0.01931 0.97233 0.0
Co7 Co 0.01887 0.00368 0.86021 0.0
O8 O 0.08586 0.99266 0.83414 0.0
O9 O 0.13583 0.00304 0.95619 0.0
O10 O 0.93334 0.98966 0.82504 0.0
O11 O 0.90384 0.0009 0.9393 0.0
O12 O 0.99374 0.0061 0.2653 0.0
O13 O 0.09467 0.04336 0.2618 0.0
O14 O 0.92641 0.88059 0.86596 0.0
O15 O 0.97999 0.85201 0.94351 0.0
C16 C 0.84508 0.88109 0.16016 0.0
C17 C 0.06007 0.88088 0.16934 0.0
C18 C 0.10874 0.13887 0.78951 0.0
C19 C 0.06158 0.10823 0.1121 0.0
C20 C 0.13552 0.00475 0.87972 0.0
C21 C 0.90213 0.00259 0.86224 0.0
C22 C 0.059 0.05023 0.29667 0.0
C23 C 0.93105 0.83125 0.88833 0.0
O24 O 0.90125 0.90064 0.19896 0.0
O25 O 0.84481 0.89578 0.08466 0.0
O26 O 0.06639 0.89079 0.09321 0.0
O27 O 0.03778 0.90482 0.20639 0.0
O28 O 0.10473 0.0821 0.78683 0.0
O29 O 0.05926 0.11757 0.82974 0.0
O30 O 0.08537 0.07653 0.12761 0.0
O31 O 0.99321 0.05987 0.08524 0.0
Co32 Co 0.6667 0.28541 0.51261 0.0
Co33 Co 0.70751 0.27558 0.3503 0.0
Co34 Co 0.59843 0.28857 0.35394 0.0
H35 H 0.62602 0.26554 0.42126 0.0
O36 O 0.62182 0.2265 0.41071 0.0
H37 H 0.6905 0.3131 0.28754 0.0
O38 O 0.69183 0.34805 0.30493 0.0
Co39 Co 0.67233 0.3264 0.19353 0.0
O40 O 0.73174 0.30754 0.16136 0.0
O41 O 0.79109 0.3248 0.27881 0.0
O42 O 0.58384 0.30722 0.16191 0.0
O43 O 0.56973 0.33593 0.27637 0.0
O44 O 0.75546 0.35808 0.597 0.0
O45 O 0.65995 0.33092 0.60484 0.0
O46 O 0.57969 0.2035 0.20104 0.0
O47 O 0.63572 0.17648 0.27522 0.0
C48 C 0.50552 0.20524 0.49238 0.0
C49 C 0.72027 0.20436 0.49679 0.0
C50 C 0.76029 0.46274 0.12476 0.0
C51 C 0.72687 0.43542 0.45212 0.0
C52 C 0.78425 0.32133 0.20179 0.0
C53 C 0.56074 0.3298 0.19941 0.0
C54 C 0.72438 0.36927 0.63504 0.0
C55 C 0.585 0.15456 0.22226 0.0
O56 O 0.55815 0.21799 0.53183 0.0
O57 O 0.51043 0.22967 0.41971 0.0
O58 O 0.72644 0.21606 0.42062 0.0
O59 O 0.69738 0.22647 0.53606 0.0
O60 O 0.69027 0.40645 0.10978 0.0
O61 O 0.78058 0.44085 0.1779 0.0
O62 O 0.74753 0.40032 0.4664 0.0
O63 O 0.6599 0.39103 0.42243 0.0
Co64 Co 0.33791 0.62288 0.84306 0.0
Co65 Co 0.37305 0.60687 0.6814 0.0
Co66 Co 0.26329 0.61885 0.68678 0.0
H67 H 0.29305 0.59811 0.75358 0.0
O68 O 0.28873 0.5588 0.74384 0.0
H69 H 0.35603 0.64485 0.61963 0.0
O70 O 0.35685 0.67926 0.6374 0.0
Co71 Co 0.33817 0.65931 0.526 0.0
O72 O 0.39663 0.64003 0.49175 0.0
O73 O 0.45589 0.6558 0.60857 0.0
O74 O 0.24901 0.63862 0.49449 0.0
O75 O 0.23335 0.66514 0.60931 0.0
O76 O 0.42643 0.6954 0.92814 0.0
O77 O 0.32993 0.66647 0.9355 0.0
O78 O 0.24415 0.53744 0.53744 0.0
O79 O 0.30033 0.50827 0.60574 0.0
C80 C 0.17791 0.54735 0.82995 0.0
C81 C 0.38772 0.53774 0.82741 0.0
C82 C 0.42901 0.79712 0.46008 0.0
C83 C 0.39215 0.769 0.78154 0.0
C84 C 0.44917 0.65342 0.53145 0.0
C85 C 0.22551 0.66057 0.53224 0.0
C86 C 0.39423 0.70511 0.96623 0.0
C87 C 0.24925 0.4878 0.55444 0.0
O88 O 0.23443 0.56688 0.86778 0.0
O89 O 0.17565 0.55953 0.75422 0.0
O90 O 0.39208 0.54702 0.75089 0.0
O91 O 0.36727 0.56276 0.86633 0.0
O92 O 0.35931 0.74141 0.44257 0.0
O93 O 0.44728 0.77387 0.51428 0.0
O94 O 0.4157 0.73687 0.79454 0.0
O95 O 0.32411 0.72175 0.75417 0.0
H96 H 0.24435 0.22581 0.73528 0.0
H97 H 0.9952 0.08752 0.36176 0.0
H98 H 0.06571 0.20661 0.71179 0.0
H99 H 0.19832 0.15041 0.37463 0.0
H100 H 0.04542 0.17765 0.47563 0.0
H101 H 0.26484 0.26245 0.59546 0.0
C102 C 0.21193 0.23352 0.70138 0.0
C103 C 0.15001 0.20781 0.73266 0.0
C104 C 0.07969 0.17286 0.4532 0.0
C105 C 0.1697 0.24426 0.57325 0.0
C106 C 0.05057 0.12054 0.38879 0.0
C107 C 0.09163 0.10919 0.36135 0.0
C108 C 0.14981 0.21286 0.49123 0.0
C109 C 0.16408 0.15568 0.39605 0.0
C110 C 0.22302 0.25362 0.62114 0.0
C111 C 0.11172 0.22209 0.68806 0.0
N112 N 0.19041 0.20439 0.46043 0.0
N113 N 0.1197 0.23563 0.60881 0.0
H114 H 0.86041 0.45266 0.71502 0.0
H115 H 0.74157 0.54936 0.03603 0.0
H116 H 0.67594 0.42403 0.70115 0.0
H117 H 0.89184 0.5259 0.08254 0.0
H118 H 0.77547 0.58628 0.89894 0.0
H119 H 0.91713 0.54457 0.83103 0.0
C120 C 0.83227 0.46628 0.73617 0.0
C121 C 0.76213 0.42845 0.70103 0.0
C122 C 0.80369 0.57667 0.93981 0.0
C123 C 0.8271 0.53435 0.8309 0.0
C124 C 0.78479 0.55638 0.0183 0.0
C125 C 0.81076 0.52997 0.06835 0.0
C126 C 0.84573 0.56642 0.91211 0.0
C127 C 0.86815 0.54241 0.04394 0.0
C128 C 0.86503 0.5194 0.80141 0.0
C129 C 0.72875 0.44956 0.72864 0.0
N130 N 0.88131 0.55593 0.96576 0.0
N131 N 0.76108 0.50024 0.79264 0.0
H132 H 0.34293 0.75712 0.03017 0.0
H133 H 0.55818 0.85391 0.41953 0.0
H134 H 0.52778 0.78609 0.05175 0.0
H135 H 0.41759 0.89061 0.37201 0.0
H136 H 0.58783 0.8847 0.28114 0.0
H137 H 0.39717 0.84614 0.14532 0.0
C138 C 0.39516 0.78237 0.05955 0.0
C139 C 0.42987 0.76237 0.03344 0.0
C140 C 0.55349 0.89032 0.30145 0.0
C141 C 0.49285 0.86484 0.16572 0.0
C142 C 0.5372 0.87363 0.38103 0.0
C143 C 0.48155 0.86455 0.40481 0.0
C144 C 0.51297 0.89689 0.24747 0.0
C145 C 0.45783 0.89292 0.35396 0.0
C146 C 0.42681 0.83424 0.12483 0.0
C147 C 0.49865 0.79888 0.07164 0.0
N148 N 0.47145 0.90495 0.27619 0.0
N149 N 0.52727 0.84712 0.13732 0.0
H150 H 0.21466 0.66603 0.36953 0.0
H151 H 0.04795 0.85121 0.32985 0.0
H152 H 0.1684 0.71989 0.57365 0.0
H153 H 0.12014 0.82476 0.13004 0.0
H154 H 0.08533 0.79753 0.41762 0.0
H155 H 0.17495 0.71728 0.2826 0.0
C156 C 0.19556 0.68792 0.39684 0.0
C157 C 0.19503 0.68769 0.48052 0.0
C158 C 0.09303 0.80318 0.35472 0.0
C159 C 0.14836 0.74757 0.37801 0.0
C160 C 0.07144 0.83392 0.30366 0.0
C161 C 0.08056 0.84314 0.22103 0.0
C162 C 0.12414 0.78035 0.32416 0.0
C163 C 0.11154 0.81898 0.19261 0.0
C164 C 0.17294 0.71769 0.34621 0.0
C165 C 0.16972 0.718 0.51018 0.0
N166 N 0.13208 0.78885 0.24391 0.0
N167 N 0.14738 0.74643 0.45912 0.0
H168 H 0.11594 0.39454 0.46578 0.0
H169 H 0.20721 0.22706 0.17565 0.0
H170 H 0.31522 0.4496 0.49588 0.0
H171 H 1.00318 0.16302 0.15075 0.0
H172 H 0.25713 0.32762 0.27933 0.0
H173 H 0.07935 0.32075 0.34197 0.0
C174 C 0.15097 0.3892 0.44721 0.0
C175 C 0.21755 0.42616 0.49223 0.0
C176 C 0.20203 0.29278 0.25013 0.0
C177 C 0.1781 0.34547 0.34877 0.0
C178 C 0.17369 0.23576 0.19046 0.0
C179 C 0.10021 0.18517 0.15571 0.0
C180 C 0.15639 0.29887 0.27542 0.0
C181 C 0.05965 0.19973 0.17669 0.0
C182 C 0.1309 0.34859 0.37581 0.0
C183 C 0.26228 0.4199 0.46425 0.0
N184 N 0.08771 0.25408 0.23632 0.0
N185 N 0.2419 0.38066 0.39414 0.0
H186 H 0.60061 0.75189 0.57098 0.0
H187 H 0.69265 0.78393 0.11737 0.0
H188 H 0.42927 0.61046 0.37715 0.0
H189 H 0.8555 0.89796 0.32004 0.0
H190 H 0.59505 0.72333 0.20917 0.0
H191 H 0.69513 0.80672 0.47855 0.0
C192 C 0.58257 0.73099 0.50965 0.0
C193 C 0.50665 0.67629 0.48234 0.0
C194 C 0.65238 0.76165 0.23312 0.0
C195 C 0.61489 0.74052 0.37503 0.0
C196 C 0.70814 0.7966 0.18053 0.0
C197 C 0.78275 0.84563 0.21031 0.0
C198 C 0.67154 0.77651 0.31593 0.0
C199 C 0.79901 0.85974 0.29338 0.0
C200 C 0.63665 0.76303 0.45639 0.0
C201 C 0.48714 0.65283 0.40123 0.0
N202 N 0.74443 0.82564 0.34256 0.0
N203 N 0.54059 0.6853 0.3507 0.0
H204 H 0.78738 0.15778 0.45352 0.0
H205 H 0.83046 0.04384 0.90434 0.0
H206 H 0.70565 0.16754 0.65605 0.0
H207 H 0.89996 0.01945 0.69987 0.0
H208 H 0.78432 0.08939 0.81456 0.0
H209 H 0.82878 0.10656 0.54244 0.0
C210 C 0.77751 0.14876 0.51606 0.0
C211 C 0.74255 0.16736 0.54625 0.0
C212 C 0.80945 0.07362 0.78949 0.0
C213 C 0.79069 0.10915 0.6494 0.0
C214 C 0.83569 0.04732 0.841 0.0
C215 C 0.86903 0.02678 0.81061 0.0
C216 C 0.81673 0.08004 0.70666 0.0
C217 C 0.87445 0.03368 0.72721 0.0
C218 C 0.80144 0.1197 0.56715 0.0
C219 C 0.73215 0.15451 0.6288 0.0
N220 N 0.84903 0.0596 0.6789 0.0
N221 N 0.75607 0.12681 0.67681 0.0
H222 H 0.67479 0.49849 0.48648 0.0
H223 H 0.99252 0.78321 0.8413 0.0
H224 H 0.8691 0.54432 0.5259 0.0
H225 H 0.79757 0.73574 0.79968 0.0
H226 H 0.95242 0.70237 0.72171 0.0
H227 H 0.72701 0.59867 0.59147 0.0
C228 C 0.7293 0.53104 0.51585 0.0
C229 C 0.7668 0.51152 0.49848 0.0
C230 C 0.91804 0.70899 0.73912 0.0
C231 C 0.82619 0.6251 0.62011 0.0
C232 C 0.94003 0.75355 0.80837 0.0
C233 C 0.89752 0.76488 0.83113 0.0
C234 C 0.85246 0.67446 0.69306 0.0
C235 C 0.83131 0.72738 0.78478 0.0
C236 C 0.7588 0.58774 0.57647 0.0
C237 C 0.83765 0.55644 0.5382 0.0
N238 N 0.81077 0.6838 0.71809 0.0
N239 N 0.86447 0.61009 0.5981 0.0
H240 H 0.40905 0.05197 0.56359 0.0
H241 H 0.26588 0.16499 0.84864 0.0
H242 H 0.46 0.27395 0.53223 0.0
H243 H 0.14361 0.90997 0.80864 0.0
H244 H 0.35139 0.21127 0.74777 0.0
H245 H 0.32148 0.00179 0.66357 0.0
C246 C 0.40019 0.08907 0.57626 0.0
C247 C 0.44027 0.16615 0.53778 0.0
C248 C 0.30681 0.14532 0.76209 0.0
C249 C 0.3433 0.11137 0.65578 0.0
C250 C 0.25888 0.11907 0.82073 0.0
C251 C 0.19904 0.03378 0.83894 0.0
C252 C 0.29534 0.08588 0.72139 0.0
C253 C 0.19048 0.97653 0.79832 0.0
C254 C 0.35083 0.06084 0.63396 0.0
C255 C 0.42859 0.21307 0.55864 0.0
N256 N 0.23815 0.00353 0.74183 0.0
N257 N 0.382 0.18551 0.61677 0.0
H258 H 0.50371 0.38877 0.24109 0.0
H259 H 0.44643 0.4806 0.7854 0.0
H260 H 0.54664 0.33166 0.0365 0.0
H261 H 0.37886 0.5098 0.98813 0.0
H262 H 0.48568 0.42802 0.87629 0.0
H263 H 0.45975 0.43597 0.14969 0.0
C264 C 0.50364 0.38554 0.1775 0.0
C265 C 0.52897 0.35543 0.14756 0.0
C266 C 0.46197 0.44583 0.90056 0.0
C267 C 0.47948 0.41074 0.04173 0.0
C268 C 0.43932 0.47571 0.84836 0.0
C269 C 0.40898 0.50016 0.87799 0.0
C270 C 0.45472 0.44054 0.98333 0.0
C271 C 0.40184 0.49229 0.96117 0.0
C272 C 0.47868 0.41278 0.12504 0.0
C273 C 0.5277 0.35375 0.06367 0.0
N274 N 0.42456 0.46385 1.01018 0.0
N275 N 0.50396 0.38102 1.01447 0.0
H276 H 0.33561 0.82687 0.81653 0.0
H277 H 0.6482 0.10898 0.17466 0.0
H278 H 0.53445 0.88105 0.85508 0.0
H279 H 0.45224 0.05962 0.13175 0.0
H280 H 0.61126 0.03222 0.05333 0.0
H281 H 0.38508 0.92536 0.92209 0.0
C282 C 0.39054 0.86096 0.84578 0.0
C283 C 0.43018 0.84425 0.82804 0.0
C284 C 0.57601 0.03763 0.07069 0.0
C285 C 0.48644 0.95594 0.95015 0.0
C286 C 0.5961 0.07971 0.14103 0.0
C287 C 0.55243 0.08939 0.164 0.0
C288 C 0.51106 0.00371 0.02369 0.0
C289 C 0.48678 0.05241 0.11673 0.0
C290 C 0.41849 0.91674 0.90666 0.0
C291 C 0.5014 0.891 0.86762 0.0
N292 N 0.46804 0.01113 0.04889 0.0
N293 N 0.52666 0.94363 0.92781 0.0
H294 H 0.19681 0.59033 0.98289 0.0
H295 H 0.75979 0.26165 0.05502 0.0
H296 H 0.02165 0.4311 0.79607 0.0
H297 H 0.93855 0.43301 0.23457 0.0
H298 H 0.85299 0.31652 0.96206 0.0
H299 H 0.10254 0.53094 0.07475 0.0
C300 C 0.13825 0.5427 0.96077 0.0
C301 C 0.11762 0.51537 0.88107 0.0
C302 C 0.87207 0.3417 0.02188 0.0
C303 C 1.00773 0.44586 0.98822 0.0
C304 C 0.81884 0.30998 0.07553 0.0
C305 C 0.84112 0.34247 0.15335 0.0
C306 C 0.94893 0.40696 0.04551 0.0
C307 C 0.91846 0.4051 0.17593 0.0
C308 C 0.08421 0.5087 1.01385 0.0
C309 C 0.04052 0.45439 0.85658 0.0
N310 N 0.96941 0.4356 0.12217 0.0
N311 N 0.98839 0.42128 0.91009 0.0
loop_
_geom_bond_atom_site_label_1
_geom_bond_atom_site_label_2
_geom_bond_distance
_geom_bond_site_symmetry_2
_ccdc_geom_bond_type
Co0 H3 2.400 . S
Co0 O4 2.009 . S
Co0 O12 2.115 . S
Co0 O13 2.315 . S
Co0 O24 2.053 . S
Co0 O27 2.094 1_655 S
Co0 O30 2.122 1_665 S
Co1 O4 2.126 1_456 S
Co1 H5 2.388 1_565 S
Co1 O6 2.053 1_565 S
Co1 O9 2.047 1_565 S
Co1 O15 2.113 1_455 S
Co1 O26 2.063 1_556 S
Co2 H3 2.388 1_545 S
Co2 O4 2.053 1_545 S
Co2 O6 2.126 1_654 S
Co2 O11 2.063 1_554 S
Co2 O25 2.047 1_545 S
Co2 O31 2.113 1_655 S
H3 Co0 2.400 . S
H3 Co2 2.388 1_565 S
H3 O4 0.760 . S
O4 Co0 2.009 . S
O4 Co1 2.126 1_654 S
O4 Co2 2.053 1_565 S
O4 H3 0.760 . S
H5 Co1 2.388 1_545 S
H5 O6 0.760 . S
H5 Co7 2.400 . S
O6 Co1 2.053 1_545 S
O6 Co2 2.126 1_456 S
O6 H5 0.760 . S
O6 Co7 2.009 . S
Co7 H5 2.400 . S
Co7 O6 2.009 . S
Co7 O8 2.053 . S
Co7 O10 2.094 1_455 S
Co7 O14 2.122 1_445 S
Co7 O28 2.115 . S
Co7 O29 2.315 . S
O8 Co7 2.053 . S
O8 C20 1.259 . S
O9 Co1 2.047 1_545 S
O9 C20 1.257 . S
O10 Co7 2.094 1_655 S
O10 C21 1.253 . S
O11 Co2 2.063 1_556 S
O11 C21 1.268 . S
O12 Co0 2.115 . S
O12 C22 1.281 . S
O13 Co0 2.315 . S
O13 C22 1.252 . S
O14 Co7 2.122 1_665 S
O14 C23 1.272 . S
O15 Co1 2.113 1_655 S
O15 C23 1.245 . S
C16 O24 1.259 . S
C16 O25 1.257 . S
C17 O26 1.268 . S
C17 O27 1.253 . S
C18 O28 1.281 . S
C18 O29 1.252 . S
C19 O30 1.272 . S
C19 O31 1.245 . S
C20 O8 1.259 . S
C20 O9 1.257 . S
C21 O10 1.253 . S
C21 O11 1.268 . S
C22 O12 1.281 . S
C22 O13 1.252 . S
C23 O14 1.272 . S
C23 O15 1.245 . S
O24 Co0 2.053 . S
O24 C16 1.259 . S
O25 Co2 2.047 1_565 S
O25 C16 1.257 . S
O26 Co1 2.063 1_554 S
O26 C17 1.268 . S
O27 Co0 2.094 1_455 S
O27 C17 1.253 . S
O28 Co7 2.115 . S
O28 C18 1.281 . S
O29 Co7 2.315 . S
O29 C18 1.252 . S
O30 Co0 2.122 1_445 S
O30 C19 1.272 . S
O31 Co2 2.113 1_455 S
O31 C19 1.245 . S
Co32 H35 2.400 . S
Co32 O36 2.009 . S
Co32 O44 2.115 . S
Co32 O45 2.315 . S
Co32 O56 2.053 . S
Co32 O59 2.094 . S
Co32 O62 2.122 . S
Co33 O36 2.126 . S
Co33 H37 2.388 . S
Co33 O38 2.053 . S
Co33 O41 2.047 . S
Co33 O47 2.113 . S
Co33 O58 2.063 . S
Co34 H35 2.388 . S
Co34 O36 2.053 . S
Co34 O38 2.126 . S
Co34 O43 2.063 . S
Co34 O57 2.047 . S
Co34 O63 2.113 . S
H35 Co32 2.400 . S
H35 Co34 2.388 . S
H35 O36 0.760 . S
O36 Co32 2.009 . S
O36 Co33 2.126 . S
O36 Co34 2.053 . S
O36 H35 0.760 . S
H37 Co33 2.388 . S
H37 O38 0.760 . S
H37 Co39 2.400 . S
O38 Co33 2.053 . S
O38 Co34 2.126 . S
O38 H37 0.760 . S
O38 Co39 2.009 . S
Co39 H37 2.400 . S
Co39 O38 2.009 . S
Co39 O40 2.053 . S
Co39 O42 2.094 . S
Co39 O46 2.122 . S
Co39 O60 2.115 . S
Co39 O61 2.315 . S
O40 Co39 2.053 . S
O40 C52 1.259 . S
O41 Co33 2.047 . S
O41 C52 1.257 . S
O42 Co39 2.094 . S
O42 C53 1.253 . S
O43 Co34 2.063 . S
O43 C53 1.268 . S
O44 Co32 2.115 . S
O44 C54 1.281 . S
O45 Co32 2.315 . S
O45 C54 1.252 . S
O46 Co39 2.122 . S
O46 C55 1.272 . S
O47 Co33 2.113 . S
O47 C55 1.245 . S
C48 O56 1.259 . S
C48 O57 1.257 . S
C49 O58 1.268 . S
C49 O59 1.253 . S
C50 O60 1.281 . S
C50 O61 1.252 . S
C51 O62 1.272 . S
C51 O63 1.245 . S
C52 O40 1.259 . S
C52 O41 1.257 . S
C53 O42 1.253 . S
C53 O43 1.268 . S
C54 O44 1.281 . S
C54 O45 1.252 . S
C55 O46 1.272 . S
C55 O47 1.245 . S
O56 Co32 2.053 . S
O56 C48 1.259 . S
O57 Co34 2.047 . S
O57 C48 1.257 . S
O58 Co33 2.063 . S
O58 C49 1.268 . S
O59 Co32 2.094 . S
O59 C49 1.253 . S
O60 Co39 2.115 . S
O60 C50 1.281 . S
O61 Co39 2.315 . S
O61 C50 1.252 . S
O62 Co32 2.122 . S
O62 C51 1.272 . S
O63 Co34 2.113 . S
O63 C51 1.245 . S
Co64 H67 2.400 . S
Co64 O68 2.009 . S
Co64 O76 2.115 . S
Co64 O77 2.315 . S
Co64 O88 2.053 . S
Co64 O91 2.094 . S
Co64 O94 2.122 . S
Co65 O68 2.126 . S
Co65 H69 2.388 . S
Co65 O70 2.053 . S
Co65 O73 2.047 . S
Co65 O79 2.113 . S
Co65 O90 2.063 . S
Co66 H67 2.388 . S
Co66 O68 2.053 . S
Co66 O70 2.126 . S
Co66 O75 2.063 . S
Co66 O89 2.047 . S
Co66 O95 2.113 . S
H67 Co64 2.400 . S
H67 Co66 2.388 . S
H67 O68 0.760 . S
O68 Co64 2.009 . S
O68 Co65 2.126 . S
O68 Co66 2.053 . S
O68 H67 0.760 . S
H69 Co65 2.388 . S
H69 O70 0.760 . S
H69 Co71 2.400 . S
O70 Co65 2.053 . S
O70 Co66 2.126 . S
O70 H69 0.760 . S
O70 Co71 2.009 . S
Co71 H69 2.400 . S
Co71 O70 2.009 . S
Co71 O72 2.053 . S
Co71 O74 2.094 . S
Co71 O78 2.122 . S
Co71 O92 2.115 . S
Co71 O93 2.315 . S
O72 Co71 2.053 . S
O72 C84 1.259 . S
O73 Co65 2.047 . S
O73 C84 1.257 . S
O74 Co71 2.094 . S
O74 C85 1.253 . S
O75 Co66 2.063 . S
O75 C85 1.268 . S
O76 Co64 2.115 . S
O76 C86 1.281 . S
O77 Co64 2.315 . S
O77 C86 1.252 . S
O78 Co71 2.122 . S
O78 C87 1.272 . S
O79 Co65 2.113 . S
O79 C87 1.245 . S
C80 O88 1.259 . S
C80 O89 1.257 . S
C81 O90 1.268 . S
C81 O91 1.253 . S
C82 O92 1.281 . S
C82 O93 1.252 . S
C83 O94 1.272 . S
C83 O95 1.245 . S
C84 O72 1.259 . S
C84 O73 1.257 . S
C85 O74 1.253 . S
C85 O75 1.268 . S
C86 O76 1.281 . S
C86 O77 1.252 . S
C87 O78 1.272 . S
C87 O79 1.245 . S
O88 Co64 2.053 . S
O88 C80 1.259 . S
O89 Co66 2.047 . S
O89 C80 1.257 . S
O90 Co65 2.063 . S
O90 C81 1.268 . S
O91 Co64 2.094 . S
O91 C81 1.253 . S
O92 Co71 2.115 . S
O92 C82 1.281 . S
O93 Co71 2.315 . S
O93 C82 1.252 . S
O94 Co64 2.122 . S
O94 C83 1.272 . S
O95 Co66 2.113 . S
O95 C83 1.245 . S
H96 C102 0.930 . S
H97 C106 0.930 . S
H98 C111 0.929 . S
H99 C109 0.929 . S
H100 C104 0.929 . S
H101 C110 0.929 . S
C102 H96 0.930 . S
C102 C103 1.367 . S
C102 C110 1.378 . S
C103 C102 1.367 . S
C103 C111 1.433 1_455 S
C104 H100 0.929 . S
C104 C106 1.378 . S
C104 C108 1.350 . S
C105 C108 1.463 1_445 S
C105 C110 1.350 . S
C105 N113 1.427 1_455 S
C106 H97 0.930 . S
C106 C104 1.378 . S
C106 C107 1.367 . S
C107 C106 1.367 . S
C107 C109 1.433 1_655 S
C108 C104 1.350 . S
C108 C105 1.463 1_665 S
C108 N112 1.427 1_655 S
C109 H99 0.929 . S
C109 C107 1.433 1_455 S
C109 N112 1.384 . S
C110 H101 0.929 . S
C110 C102 1.378 . S
C110 C105 1.350 . S
C111 H98 0.929 . S
C111 C103 1.433 1_655 S
C111 N113 1.384 . S
N112 C108 1.427 1_455 S
N112 C109 1.384 . S
N113 C105 1.427 1_655 S
N113 C111 1.384 . S
H114 C120 0.930 . S
H115 C124 0.930 . S
H116 C129 0.929 . S
H117 C127 0.929 . S
H118 C122 0.929 . S
H119 C128 0.929 . S
C120 H114 0.930 . S
C120 C121 1.367 . S
C120 C128 1.378 . S
C121 C120 1.367 . S
C121 C129 1.433 . S
C122 H118 0.929 . S
C122 C124 1.378 . S
C122 C126 1.350 . S
C123 C126 1.463 . S
C123 C128 1.350 . S
C123 N131 1.427 . S
C124 H115 0.930 . S
C124 C122 1.378 . S
C124 C125 1.359 1_556 S
C125 C124 1.359 1_554 S
C125 C127 1.434 . S
C126 C122 1.350 . S
C126 C123 1.463 . S
C126 N130 1.427 . S
C127 H117 0.929 . S
C127 C125 1.434 . S
C127 N130 1.384 1_554 S
C128 H119 0.929 . S
C128 C120 1.378 . S
C128 C123 1.350 . S
C129 H116 0.929 . S
C129 C121 1.433 . S
C129 N131 1.384 . S
N130 C126 1.427 . S
N130 C127 1.384 1_556 S
N131 C123 1.427 . S
N131 C129 1.384 . S
H132 C138 0.930 . S
H133 C142 0.930 . S
H134 C147 0.929 . S
H135 C145 0.929 . S
H136 C140 0.929 . S
H137 C146 0.929 . S
C138 H132 0.930 . S
C138 C139 1.367 . S
C138 C146 1.378 1_556 S
C139 C138 1.367 . S
C139 C147 1.433 1_556 S
C140 H136 0.929 . S
C140 C142 1.378 . S
C140 C144 1.350 . S
C141 C144 1.463 . S
C141 C146 1.350 . S
C141 N149 1.427 . S
C142 H133 0.930 . S
C142 C140 1.378 . S
C142 C143 1.367 . S
C143 C142 1.367 . S
C143 C145 1.433 . S
C144 C140 1.350 . S
C144 C141 1.463 . S
C144 N148 1.427 . S
C145 H135 0.929 . S
C145 C143 1.433 . S
C145 N148 1.384 . S
C146 H137 0.929 . S
C146 C138 1.378 1_554 S
C146 C141 1.350 . S
C147 H134 0.929 . S
C147 C139 1.433 1_554 S
C147 N149 1.384 . S
N148 C144 1.427 . S
N148 C145 1.384 . S
N149 C141 1.427 . S
N149 C147 1.384 . S
H150 C156 0.930 . S
H151 C160 0.930 . S
H152 C165 0.929 . S
H153 C163 0.929 . S
H154 C158 0.929 . S
H155 C164 0.929 . S
C156 H150 0.930 . S
C156 C157 1.367 . S
C156 C164 1.378 . S
C157 C156 1.367 . S
C157 C165 1.433 . S
C158 H154 0.929 . S
C158 C160 1.378 . S
C158 C162 1.350 . S
C159 C162 1.463 . S
C159 C164 1.350 . S
C159 N167 1.427 . S
C160 H151 0.930 . S
C160 C158 1.378 . S
C160 C161 1.367 . S
C161 C160 1.367 . S
C161 C163 1.433 . S
C162 C158 1.350 . S
C162 C159 1.463 . S
C162 N166 1.427 . S
C163 H153 0.929 . S
C163 C161 1.433 . S
C163 N166 1.384 . S
C164 H155 0.929 . S
C164 C156 1.378 . S
C164 C159 1.350 . S
C165 H152 0.929 . S
C165 C157 1.433 . S
C165 N167 1.384 . S
N166 C162 1.427 . S
N166 C163 1.384 . S
N167 C159 1.427 . S
N167 C165 1.384 . S
H168 C174 0.930 . S
H169 C178 0.930 . S
H170 C183 0.929 . S
H171 C181 0.932 . S
H172 C176 0.929 . S
H173 C182 0.929 . S
C174 H168 0.930 . S
C174 C175 1.367 . S
C174 C182 1.378 . S
C175 C174 1.367 . S
C175 C183 1.433 . S
C176 H172 0.929 . S
C176 C178 1.378 . S
C176 C180 1.350 . S
C177 C180 1.463 . S
C177 C182 1.350 . S
C177 N185 1.427 . S
C178 H169 0.930 . S
C178 C176 1.378 . S
C178 C179 1.367 . S
C179 C178 1.367 . S
C179 C181 1.433 . S
C180 C176 1.350 . S
C180 C177 1.463 . S
C180 N184 1.427 . S
C181 H171 0.932 . S
C181 C179 1.433 . S
C181 N184 1.384 . S
C182 H173 0.929 . S
C182 C174 1.378 . S
C182 C177 1.350 . S
C183 H170 0.929 . S
C183 C175 1.433 . S
C183 N185 1.384 . S
N184 C180 1.427 . S
N184 C181 1.384 . S
N185 C177 1.427 . S
N185 C183 1.384 . S
H186 C192 0.930 . S
H187 C196 0.930 . S
H188 C201 0.929 . S
H189 C199 0.929 1_545 S
H190 C194 0.929 . S
H191 C200 0.929 . S
C192 H186 0.930 . S
C192 C193 1.367 . S
C192 C200 1.378 . S
C193 C192 1.367 . S
C193 C201 1.433 . S
C194 H190 0.929 . S
C194 C196 1.378 . S
C194 C198 1.350 . S
C195 C198 1.463 . S
C195 C200 1.350 . S
C195 N203 1.427 . S
C196 H187 0.930 . S
C196 C194 1.378 . S
C196 C197 1.367 . S
C197 C196 1.367 . S
C197 C199 1.433 . S
C198 C194 1.350 . S
C198 C195 1.463 . S
C198 N202 1.427 . S
C199 H189 0.929 1_565 S
C199 C197 1.433 . S
C199 N202 1.384 . S
C200 H191 0.929 . S
C200 C192 1.378 . S
C200 C195 1.350 . S
C201 H188 0.929 . S
C201 C193 1.433 . S
C201 N203 1.384 . S
N202 C198 1.427 . S
N202 C199 1.384 . S
N203 C195 1.427 . S
N203 C201 1.384 . S
H204 C210 0.930 . S
H205 C214 0.930 . S
H206 C219 0.929 . S
H207 C217 0.929 . S
H208 C212 0.929 . S
H209 C218 0.929 . S
C210 H204 0.930 . S
C210 C211 1.367 . S
C210 C218 1.378 . S
C211 C210 1.367 . S
C211 C219 1.433 . S
C212 H208 0.929 . S
C212 C214 1.378 . S
C212 C216 1.350 . S
C213 C216 1.463 . S
C213 C218 1.350 . S
C213 N221 1.427 . S
C214 H205 0.930 . S
C214 C212 1.378 . S
C214 C215 1.367 . S
C215 C214 1.367 . S
C215 C217 1.433 . S
C216 C212 1.350 . S
C216 C213 1.463 . S
C216 N220 1.427 . S
C217 H207 0.929 . S
C217 C215 1.433 . S
C217 N220 1.384 . S
C218 H209 0.929 . S
C218 C210 1.378 . S
C218 C213 1.350 . S
C219 H206 0.929 . S
C219 C211 1.433 . S
C219 N221 1.384 . S
N220 C216 1.427 . S
N220 C217 1.384 . S
N221 C213 1.427 . S
N221 C219 1.384 . S
H222 C228 0.930 . S
H223 C232 0.930 . S
H224 C237 0.929 . S
H225 C235 0.929 . S
H226 C230 0.929 . S
H227 C236 0.929 . S
C228 H222 0.930 . S
C228 C229 1.367 . S
C228 C236 1.378 . S
C229 C228 1.367 . S
C229 C237 1.433 . S
C230 H226 0.929 . S
C230 C232 1.378 . S
C230 C234 1.350 . S
C231 C234 1.463 . S
C231 C236 1.350 . S
C231 N239 1.427 . S
C232 H223 0.930 . S
C232 C230 1.378 . S
C232 C233 1.367 . S
C233 C232 1.367 . S
C233 C235 1.433 . S
C234 C230 1.350 . S
C234 C231 1.463 . S
C234 N238 1.427 . S
C235 H225 0.929 . S
C235 C233 1.433 . S
C235 N238 1.384 . S
C236 H227 0.929 . S
C236 C228 1.378 . S
C236 C231 1.350 . S
C237 H224 0.929 . S
C237 C229 1.433 . S
C237 N239 1.384 . S
N238 C234 1.427 . S
N238 C235 1.384 . S
N239 C231 1.427 . S
N239 C237 1.384 . S
H240 C246 0.930 . S
H241 C250 0.930 . S
H242 C255 0.929 . S
H243 C253 0.929 . S
H244 C248 0.929 . S
H245 C254 0.929 . S
C246 H240 0.930 . S
C246 C247 1.367 . S
C246 C254 1.378 . S
C247 C246 1.367 . S
C247 C255 1.433 . S
C248 H244 0.929 . S
C248 C250 1.378 . S
C248 C252 1.350 . S
C249 C252 1.463 . S
C249 C254 1.350 . S
C249 N257 1.427 . S
C250 H241 0.930 . S
C250 C248 1.378 . S
C250 C251 1.367 . S
C251 C250 1.367 . S
C251 C253 1.433 . S
C252 C248 1.350 . S
C252 C249 1.463 . S
C252 N256 1.427 . S
C253 H243 0.929 . S
C253 C251 1.433 . S
C253 N256 1.384 . S
C254 H245 0.929 . S
C254 C246 1.378 . S
C254 C249 1.350 . S
C255 H242 0.929 . S
C255 C247 1.433 . S
C255 N257 1.384 . S
N256 C252 1.427 . S
N256 C253 1.384 . S
N257 C249 1.427 . S
N257 C255 1.384 . S
H258 C264 0.930 . S
H259 C268 0.930 . S
H260 C273 0.929 . S
H261 C271 0.929 . S
H262 C266 0.929 . S
H263 C272 0.929 . S
C264 H258 0.930 . S
C264 C265 1.367 . S
C264 C272 1.378 . S
C265 C264 1.367 . S
C265 C273 1.433 . S
C266 H262 0.929 . S
C266 C268 1.378 . S
C266 C270 1.350 . S
C267 C270 1.463 1_554 S
C267 C272 1.350 . S
C267 N275 1.427 . S
C268 H259 0.930 . S
C268 C266 1.378 . S
C268 C269 1.367 . S
C269 C268 1.367 . S
C269 C271 1.433 . S
C270 C266 1.350 . S
C270 C267 1.463 1_556 S
C270 N274 1.427 . S
C271 H261 0.929 . S
C271 C269 1.433 . S
C271 N274 1.384 . S
C272 H263 0.929 . S
C272 C264 1.378 . S
C272 C267 1.350 . S
C273 H260 0.929 . S
C273 C265 1.433 . S
C273 N275 1.384 . S
N274 C270 1.427 . S
N274 C271 1.384 . S
N275 C267 1.427 . S
N275 C273 1.384 . S
H276 C282 0.930 . S
H277 C286 0.930 . S
H278 C291 0.929 . S
H279 C289 0.929 . S
H280 C284 0.929 1_565 S
H281 C290 0.929 1_545 S
C282 H276 0.930 . S
C282 C283 1.367 . S
C282 C290 1.378 . S
C283 C282 1.367 . S
C283 C291 1.433 . S
C284 H280 0.929 1_545 S
C284 C286 1.378 . S
C284 C288 1.350 . S
C285 C288 1.463 1_566 S
C285 C290 1.350 . S
C285 N293 1.427 . S
C286 H277 0.930 . S
C286 C284 1.378 . S
C286 C287 1.367 . S
C287 C286 1.367 . S
C287 C289 1.433 . S
C288 C284 1.350 . S
C288 C285 1.463 1_544 S
C288 N292 1.427 . S
C289 H279 0.929 . S
C289 C287 1.433 . S
C289 N292 1.384 . S
C290 H281 0.929 1_565 S
C290 C282 1.378 . S
C290 C285 1.350 . S
C291 H278 0.929 . S
C291 C283 1.433 . S
C291 N293 1.384 . S
N292 C288 1.427 . S
N292 C289 1.384 . S
N293 C285 1.427 . S
N293 C291 1.384 . S
H294 C300 0.930 . S
H295 C304 0.930 . S
H296 C309 0.929 . S
H297 C307 0.929 . S
H298 C302 0.929 1_556 S
H299 C308 0.929 1_554 S
C300 H294 0.930 . S
C300 C301 1.367 . S
C300 C308 1.378 . S
C301 C300 1.367 . S
C301 C309 1.433 . S
C302 H298 0.929 1_554 S
C302 C304 1.378 . S
C302 C306 1.350 . S
C303 C306 1.463 1_456 S
C303 C308 1.350 . S
C303 N311 1.427 . S
C304 H295 0.930 . S
C304 C302 1.378 . S
C304 C305 1.367 . S
C305 C304 1.367 . S
C305 C307 1.433 . S
C306 C302 1.350 . S
C306 C303 1.463 1_654 S
C306 N310 1.427 . S
C307 H297 0.929 . S
C307 C305 1.433 . S
C307 N310 1.384 . S
C308 H299 0.929 1_556 S
C308 C300 1.378 . S
C308 C303 1.350 . S
C309 H296 0.929 . S
C309 C301 1.433 . S
C309 N311 1.384 . S
N310 C306 1.427 . S
N310 C307 1.384 . S
N311 C303 1.427 . S
N311 C309 1.384 . S
C103 C18 0.855 . S
C107 C22 0.855 . S
C121 C54 0.880 . S
C125 C50 0.888 . S
C139 C86 0.834 . S
C143 C82 0.834 . S
C157 C85 2.512 . S
C161 C17 2.511 . S
C175 C87 0.983 . S
C179 C19 0.981 . S
C193 C84 1.760 . S
C197 C16 1.760 . S
C211 C49 2.514 . S
C215 C21 2.515 . S
C229 C51 0.983 . S
C233 C23 0.985 . S
C247 C48 1.754 . S
C251 C20 1.754 . S
C265 C53 2.515 . S
C269 C81 2.515 . S
C283 C83 0.984 . S
C287 C55 0.984 . S
C301 C80 1.762 . S
C305 C52 1.762 . S
