# Generated by pormake.
# Topology why, (6)-cn, num edge types: 1
# Building blocks:
#     Node 0, Type 0, BuildingBlock: KUMJIN_clean_sbu_1, # of connection points: 6
#     Node 1, Type 0, BuildingBlock: KUMJIN_clean_sbu_1, # of connection points: 6
#     Node 2, Type 0, BuildingBlock: KUMJIN_clean_sbu_1, # of connection points: 6
#     Node 3, Type 0, BuildingBlock: KUMJIN_clean_sbu_1, # of connection points: 6
#     Node 4, Type 0, BuildingBlock: KUMJIN_clean_sbu_1, # of connection points: 6
#     Node 5, Type 0, BuildingBlock: KUMJIN_clean_sbu_1, # of connection points: 6
#     Node 6, Type 0, BuildingBlock: KUMJIN_clean_sbu_1, # of connection points: 6
#     Node 7, Type 0, BuildingBlock: KUMJIN_clean_sbu_1, # of connection points: 6
#     Node 8, Type 0, BuildingBlock: KUMJIN_clean_sbu_1, # of connection points: 6
#     Node 9, Type 0, BuildingBlock: KUMJIN_clean_sbu_1, # of connection points: 6
#     Node 10, Type 0, BuildingBlock: KUMJIN_clean_sbu_1, # of connection points: 6
#     Node 11, Type 0, BuildingBlock: KUMJIN_clean_sbu_1, # of connection points: 6
#     Node 12, Type 0, BuildingBlock: KUMJIN_clean_sbu_1, # of connection points: 6
#     Node 13, Type 0, BuildingBlock: KUMJIN_clean_sbu_1, # of connection points: 6
#     Node 14, Type 0, BuildingBlock: KUMJIN_clean_sbu_1, # of connection points: 6
#     Node 15, Type 0, BuildingBlock: KUMJIN_clean_sbu_1, # of connection points: 6
#     Edge 16, Type (0, 0), BuildingBlock: TEMPAE_clean_linker_10, # of connection points: 2
#     Edge 17, Type (0, 0), BuildingBlock: TEMPAE_clean_linker_10, # of connection points: 2
#     Edge 18, Type (0, 0), BuildingBlock: TEMPAE_clean_linker_10, # of connection points: 2
#     Edge 19, Type (0, 0), BuildingBlock: TEMPAE_clean_linker_10, # of connection points: 2
#     Edge 20, Type (0, 0), BuildingBlock: TEMPAE_clean_linker_10, # of connection points: 2
#     Edge 21, Type (0, 0), BuildingBlock: TEMPAE_clean_linker_10, # of connection points: 2
#     Edge 22, Type (0, 0), BuildingBlock: TEMPAE_clean_linker_10, # of connection points: 2
#     Edge 23, Type (0, 0), BuildingBlock: TEMPAE_clean_linker_10, # of connection points: 2
#     Edge 24, Type (0, 0), BuildingBlock: TEMPAE_clean_linker_10, # of connection points: 2
#     Edge 25, Type (0, 0), BuildingBlock: TEMPAE_clean_linker_10, # of connection points: 2
#     Edge 26, Type (0, 0), BuildingBlock: TEMPAE_clean_linker_10, # of connection points: 2
#     Edge 27, Type (0, 0), BuildingBlock: TEMPAE_clean_linker_10, # of connection points: 2
#     Edge 28, Type (0, 0), BuildingBlock: TEMPAE_clean_linker_10, # of connection points: 2
#     Edge 29, Type (0, 0), BuildingBlock: TEMPAE_clean_linker_10, # of connection points: 2
#     Edge 30, Type (0, 0), BuildingBlock: TEMPAE_clean_linker_10, # of connection points: 2
#     Edge 31, Type (0, 0), BuildingBlock: TEMPAE_clean_linker_10, # of connection points: 2
#     Edge 32, Type (0, 0), BuildingBlock: TEMPAE_clean_linker_10, # of connection points: 2
#     Edge 33, Type (0, 0), BuildingBlock: TEMPAE_clean_linker_10, # of connection points: 2
#     Edge 34, Type (0, 0), BuildingBlock: TEMPAE_clean_linker_10, # of connection points: 2
#     Edge 35, Type (0, 0), BuildingBlock: TEMPAE_clean_linker_10, # of connection points: 2
#     Edge 36, Type (0, 0), BuildingBlock: TEMPAE_clean_linker_10, # of connection points: 2
#     Edge 37, Type (0, 0), BuildingBlock: TEMPAE_clean_linker_10, # of connection points: 2
#     Edge 38, Type (0, 0), BuildingBlock: TEMPAE_clean_linker_10, # of connection points: 2
#     Edge 39, Type (0, 0), BuildingBlock: TEMPAE_clean_linker_10, # of connection points: 2
#     Edge 40, Type (0, 0), BuildingBlock: TEMPAE_clean_linker_10, # of connection points: 2
#     Edge 41, Type (0, 0), BuildingBlock: TEMPAE_clean_linker_10, # of connection points: 2
#     Edge 42, Type (0, 0), BuildingBlock: TEMPAE_clean_linker_10, # of connection points: 2
#     Edge 43, Type (0, 0), BuildingBlock: TEMPAE_clean_linker_10, # of connection points: 2
#     Edge 44, Type (0, 0), BuildingBlock: TEMPAE_clean_linker_10, # of connection points: 2
#     Edge 45, Type (0, 0), BuildingBlock: TEMPAE_clean_linker_10, # of connection points: 2
#     Edge 46, Type (0, 0), BuildingBlock: TEMPAE_clean_linker_10, # of connection points: 2
#     Edge 47, Type (0, 0), BuildingBlock: TEMPAE_clean_linker_10, # of connection points: 2
#     Edge 48, Type (0, 0), BuildingBlock: TEMPAE_clean_linker_10, # of connection points: 2
#     Edge 49, Type (0, 0), BuildingBlock: TEMPAE_clean_linker_10, # of connection points: 2
#     Edge 50, Type (0, 0), BuildingBlock: TEMPAE_clean_linker_10, # of connection points: 2
#     Edge 51, Type (0, 0), BuildingBlock: TEMPAE_clean_linker_10, # of connection points: 2
#     Edge 52, Type (0, 0), BuildingBlock: TEMPAE_clean_linker_10, # of connection points: 2
#     Edge 53, Type (0, 0), BuildingBlock: TEMPAE_clean_linker_10, # of connection points: 2
#     Edge 54, Type (0, 0), BuildingBlock: TEMPAE_clean_linker_10, # of connection points: 2
#     Edge 55, Type (0, 0), BuildingBlock: TEMPAE_clean_linker_10, # of connection points: 2
#     Edge 56, Type (0, 0), BuildingBlock: TEMPAE_clean_linker_10, # of connection points: 2
#     Edge 57, Type (0, 0), BuildingBlock: TEMPAE_clean_linker_10, # of connection points: 2
#     Edge 58, Type (0, 0), BuildingBlock: TEMPAE_clean_linker_10, # of connection points: 2
#     Edge 59, Type (0, 0), BuildingBlock: TEMPAE_clean_linker_10, # of connection points: 2
#     Edge 60, Type (0, 0), BuildingBlock: TEMPAE_clean_linker_10, # of connection points: 2
#     Edge 61, Type (0, 0), BuildingBlock: TEMPAE_clean_linker_10, # of connection points: 2
#     Edge 62, Type (0, 0), BuildingBlock: TEMPAE_clean_linker_10, # of connection points: 2
#     Edge 63, Type (0, 0), BuildingBlock: TEMPAE_clean_linker_10, # of connection points: 2
# Relax obj value: 0.279
# Max RMSD: 0.218
# Mean RMSD: 0.217
data_MOF--net-why--node1-KUMJIN_clean_sbu_1--edge1-TEMPAE_clean_linker_10
_symmetry_space_group_name_H-M    P1
_symmetry_Int_Tables_number       1
_symmetry_cell_setting            triclinic
loop_
_symmetry_equiv_pos_as_xyz
'x, y, z'
_cell_length_a     49.437116
_cell_length_b     49.258767
_cell_length_c     42.118855
_cell_angle_alpha  90.17994
_cell_angle_beta   89.745177
_cell_angle_gamma 89.778548
loop_
_atom_site_label
_atom_site_type_symbol
_atom_site_fract_x
_atom_site_fract_y
_atom_site_fract_z
_atom_type_partial_charge
Eu0 Eu 0.40752 0.19735 0.09155 0.0
C1 C 0.43176 0.12668 0.9652 0.0
N2 N 0.42685 0.12318 0.99662 0.0
C3 C 0.40177 0.08266 0.98531 0.0
C4 C 0.42115 0.10864 0.94239 0.0
C5 C 0.4128 0.10104 1.00702 0.0
C6 C 0.40567 0.08665 0.95282 0.0
C7 C 0.4551 0.15126 0.9237 0.0
C8 C 0.4485 0.14762 0.95604 0.0
C9 C 0.44377 0.13403 0.90073 0.0
C10 C 0.42682 0.11275 0.91007 0.0
Eu11 Eu 0.44383 0.15664 0.03192 0.0
N12 N 0.45938 0.16361 0.97891 0.0
C13 C 0.47338 0.17168 0.91545 0.0
C14 C 0.47814 0.18282 0.97098 0.0
C15 C 0.48525 0.18726 0.93926 0.0
H16 H 0.4095 0.09781 0.03205 0.0
H17 H 0.4999 0.2027 0.93322 0.0
H18 H 0.35671 0.23628 0.06596 0.0
H19 H 0.48149 0.21771 0.18513 0.0
H20 H 0.48774 0.19494 0.98899 0.0
H21 H 0.47893 0.17515 0.89089 0.0
H22 H 0.45653 0.18943 0.14679 0.0
H23 H 0.39021 0.06546 0.99366 0.0
H24 H 0.44847 0.13663 0.87577 0.0
H25 H 0.41867 0.09925 0.89217 0.0
H26 H 0.34157 0.28413 0.07012 0.0
H27 H 0.39713 0.07237 0.93605 0.0
H28 H 0.4711 0.2667 0.19004 0.0
N29 N 0.39074 0.24203 0.09577 0.0
C30 C 0.40444 0.25915 0.11522 0.0
C31 C 0.35938 0.27741 0.08276 0.0
C32 C 0.39633 0.28646 0.11871 0.0
C33 C 0.36806 0.25044 0.08028 0.0
C34 C 0.37372 0.29558 0.10181 0.0
N35 N 0.4325 0.2222 0.12975 0.0
C36 C 0.45165 0.21072 0.14887 0.0
C37 C 0.43948 0.26575 0.15465 0.0
C38 C 0.42572 0.24889 0.13302 0.0
C39 C 0.46 0.25439 0.17322 0.0
C40 C 0.46591 0.22672 0.17054 0.0
H41 H 0.36685 0.31643 0.10385 0.0
H42 H 0.40478 0.32467 0.14225 0.0
H43 H 0.44261 0.30656 0.17363 0.0
O44 O 0.37764 0.1678 0.10847 0.0
O45 O 0.45048 0.21785 0.08458 0.0
O46 O 0.47039 0.19611 0.04211 0.0
O47 O 0.38172 0.20674 0.13204 0.0
O48 O 0.42952 0.1593 0.11278 0.0
O49 O 0.42268 0.13104 0.07206 0.0
O50 O 0.47195 0.12392 0.02279 0.0
O51 O 0.39814 0.15484 0.01772 0.0
O52 O 0.37742 0.18799 0.04819 0.0
O53 O 0.47719 0.14873 0.06519 0.0
O54 O 0.43804 0.1996 0.01376 0.0
O55 O 0.40182 0.21547 0.043 0.0
C56 C 0.47079 0.2162 0.06368 0.0
C57 C 0.33843 0.18727 0.13408 0.0
C58 C 0.30045 0.20553 0.16503 0.0
C59 C 0.28243 0.19193 0.14486 0.0
C60 C 0.3201 0.17411 0.11389 0.0
C61 C 0.29225 0.17651 0.1193 0.0
C62 C 0.32839 0.20311 0.15944 0.0
C63 C 0.42614 0.13399 0.10305 0.0
C64 C 0.36802 0.18435 0.13019 0.0
C65 C 0.41058 0.30356 0.13944 0.0
C66 C 0.4321 0.29323 0.15735 0.0
C67 C 0.37659 0.1703 0.0237 0.0
C68 C 0.5167 0.13204 0.03815 0.0
C69 C 0.55162 0.13475 0.99666 0.0
C70 C 0.5713 0.1289 0.01979 0.0
C71 C 0.53661 0.12645 0.06073 0.0
C72 C 0.5245 0.13687 1.00655 0.0
C73 C 0.56382 0.12514 0.05158 0.0
C74 C 0.41771 0.21645 0.01795 0.0
C75 C 0.48772 0.1301 0.04646 0.0
H76 H 0.2608 0.19343 0.14874 0.0
H77 H 0.32723 0.16189 0.09411 0.0
H78 H 0.27822 0.16625 0.10374 0.0
H79 H 0.3424 0.21312 0.17535 0.0
H80 H 0.5924 0.12655 1.0134 0.0
H81 H 0.53108 0.12249 0.0852 0.0
H82 H 0.50911 0.14159 0.98942 0.0
H83 H 0.57913 0.1205 0.06906 0.0
Eu84 Eu 0.64517 0.65307 0.33866 0.0
C85 C 0.72191 0.67132 0.22002 0.0
N86 N 0.72192 0.66827 0.25218 0.0
C87 C 0.76146 0.63996 0.24847 0.0
C88 C 0.74165 0.65849 0.20085 0.0
C89 C 0.7415 0.65304 0.26658 0.0
C90 C 0.7615 0.64261 0.21549 0.0
C91 C 0.70183 0.69156 0.1731 0.0
C92 C 0.70211 0.68747 0.20622 0.0
C93 C 0.72124 0.6785 0.15394 0.0
C94 C 0.74107 0.66198 0.16776 0.0
Eu95 Eu 0.68614 0.69042 0.27999 0.0
N96 N 0.6837 0.70001 0.22532 0.0
C97 C 0.68229 0.70901 0.16029 0.0
C98 C 0.66498 0.71748 0.21312 0.0
C99 C 0.66391 0.72218 0.18044 0.0
H100 H 0.74149 0.65016 0.2919 0.0
H101 H 0.64899 0.73599 0.17082 0.0
H102 H 0.57892 0.64018 0.32661 0.0
H103 H 0.6864 0.74371 0.39897 0.0
H104 H 0.6509 0.72789 0.22871 0.0
H105 H 0.68147 0.71273 0.13497 0.0
H106 H 0.6859 0.70803 0.35884 0.0
H107 H 0.77673 0.62769 0.25998 0.0
H108 H 0.72127 0.68127 0.12842 0.0
H109 H 0.75602 0.65219 0.15267 0.0
H110 H 0.53538 0.64951 0.35384 0.0
H111 H 0.77699 0.6324 0.20157 0.0
H112 H 0.64691 0.7504 0.43426 0.0
N113 N 0.60177 0.66475 0.35818 0.0
C114 C 0.60137 0.68235 0.38315 0.0
C115 C 0.5538 0.65874 0.36241 0.0
C116 C 0.57693 0.68841 0.39913 0.0
C117 C 0.57841 0.65355 0.34703 0.0
C118 C 0.55312 0.67587 0.38889 0.0
N119 N 0.64732 0.69275 0.37142 0.0
C120 C 0.66883 0.70985 0.37409 0.0
C121 C 0.62401 0.71776 0.41297 0.0
C122 C 0.6248 0.69694 0.38984 0.0
C123 C 0.64674 0.73418 0.41682 0.0
C124 C 0.66903 0.73051 0.3969 0.0
H125 H 0.53395 0.68007 0.40051 0.0
H126 H 0.55819 0.71252 0.43634 0.0
H127 H 0.5994 0.73814 0.44856 0.0
O128 O 0.64957 0.63141 0.38374 0.0
O129 O 0.61948 0.69194 0.32392 0.0
O130 O 0.64624 0.71665 0.28999 0.0
O131 O 0.62074 0.61728 0.34938 0.0
O132 O 0.6892 0.65419 0.35945 0.0
O133 O 0.71396 0.67915 0.32389 0.0
O134 O 0.7113 0.72242 0.25995 0.0
O135 O 0.68506 0.6451 0.26209 0.0
O136 O 0.66232 0.62093 0.30066 0.0
O137 O 0.69519 0.72679 0.30763 0.0
O138 O 0.64391 0.68276 0.26157 0.0
O139 O 0.62882 0.6455 0.28943 0.0
C140 C 0.62342 0.71454 0.30714 0.0
C141 C 0.63187 0.58697 0.39084 0.0
C142 C 0.61157 0.55314 0.42569 0.0
C143 C 0.63245 0.53491 0.41744 0.0
C144 C 0.65244 0.56864 0.38254 0.0
C145 C 0.6527 0.54266 0.39593 0.0
C146 C 0.61165 0.5792 0.41228 0.0
C147 C 0.71251 0.6657 0.35136 0.0
C148 C 0.63027 0.61439 0.37773 0.0
C149 C 0.57671 0.70783 0.42356 0.0
C150 C 0.60018 0.72245 0.43048 0.0
C151 C 0.67554 0.62153 0.27267 0.0
C152 C 0.69431 0.76576 0.27446 0.0
C153 C 0.6796 0.79757 0.23335 0.0
C154 C 0.66619 0.81303 0.25673 0.0
C155 C 0.68107 0.78181 0.29745 0.0
C156 C 0.69404 0.77425 0.24251 0.0
C157 C 0.66718 0.8053 0.28857 0.0
C158 C 0.6284 0.66132 0.26435 0.0
C159 C 0.70615 0.73913 0.28329 0.0
H160 H 0.63292 0.51463 0.42728 0.0
H161 H 0.66814 0.5744 0.36587 0.0
H162 H 0.66859 0.52845 0.38956 0.0
H163 H 0.59604 0.59374 0.41883 0.0
H164 H 0.65505 0.83119 0.2504 0.0
H165 H 0.68093 0.77588 0.3222 0.0
H166 H 0.70406 0.76209 0.22444 0.0
H167 H 0.65677 0.81735 0.30639 0.0
Eu168 Eu 0.1502 0.93483 0.53933 0.0
C169 C 0.24333 0.84856 0.57864 0.0
N170 N 0.21592 0.84693 0.57951 0.0
C171 C 0.21818 0.79896 0.57003 0.0
C172 C 0.25932 0.82524 0.57304 0.0
C173 C 0.20317 0.82259 0.57582 0.0
C174 C 0.24638 0.80031 0.56845 0.0
C175 C 0.28388 0.87568 0.58437 0.0
C176 C 0.25544 0.87349 0.58428 0.0
C177 C 0.29987 0.85261 0.5782 0.0
C178 C 0.28763 0.82747 0.57254 0.0
Eu179 Eu 0.19198 0.88796 0.58718 0.0
N180 N 0.2394 0.8956 0.58964 0.0
C181 C 0.29544 0.90097 0.5908 0.0
C182 C 0.25066 0.92016 0.5969 0.0
C183 C 0.27876 0.92323 0.59732 0.0
H184 H 0.18137 0.82145 0.57733 0.0
H185 H 0.28754 0.94282 0.60257 0.0
H186 H 0.21484 0.96143 0.5508 0.0
H187 H 0.05453 0.97659 0.58014 0.0
H188 H 0.23822 0.93771 0.60162 0.0
H189 H 0.3172 0.90348 0.59106 0.0
H190 H 0.08612 0.94061 0.56165 0.0
H191 H 0.20801 0.77973 0.56686 0.0
H192 H 0.32175 0.85397 0.57799 0.0
H193 H 0.30025 0.80981 0.56811 0.0
H194 H 0.23489 1.00531 0.56264 0.0
H195 H 0.25796 0.78195 0.56406 0.0
H196 H 0.07143 1.02309 0.5898 0.0
N197 N 0.17397 0.97536 0.55347 0.0
C198 C 0.15762 0.99654 0.56229 0.0
C199 C 0.2131 1.00326 0.56204 0.0
C200 C 0.16855 1.02212 0.57025 0.0
C201 C 0.20146 0.97827 0.55446 0.0
C202 C 0.1966 1.02539 0.56945 0.0
N203 N 0.12018 0.96666 0.56132 0.0
C204 C 0.09356 0.96086 0.56617 0.0
C205 C 0.11275 1.01313 0.57681 0.0
C206 C 0.12999 0.99206 0.56616 0.0
C207 C 0.0853 1.00744 0.58165 0.0
C208 C 0.07569 0.98117 0.57641 0.0
H209 H 0.20576 0.04464 0.57566 0.0
H210 H 0.15943 0.0631 0.586 0.0
H211 H 0.11057 0.05531 0.59133 0.0
O212 O 0.11542 0.93021 0.50778 0.0
O213 O 0.14752 0.94309 0.59427 0.0
O214 O 0.19073 0.93352 0.60516 0.0
O215 O 0.14419 0.96229 0.49931 0.0
O216 O 0.12135 0.89802 0.55371 0.0
O217 O 0.14881 0.86728 0.57984 0.0
O218 O 0.20351 0.86277 0.6275 0.0
O219 O 0.17444 0.86508 0.54516 0.0
O220 O 0.16749 0.90034 0.51083 0.0
O221 O 0.17292 0.89396 0.63366 0.0
O222 O 0.21993 0.90284 0.54508 0.0
O223 O 0.1937 0.93113 0.51392 0.0
C224 C 0.16891 0.94823 0.61213 0.0
C225 C 0.09937 0.96891 0.48025 0.0
C226 C 0.06096 0.97575 0.44488 0.0
C227 C 0.05758 1.00211 0.4572 0.0
C228 C 0.09631 0.99561 0.49149 0.0
C229 C 0.07518 1.0119 0.48042 0.0
C230 C 0.08156 0.95911 0.45716 0.0
C231 C 0.12445 0.87377 0.56783 0.0
C232 C 0.12166 0.9511 0.49046 0.0
C233 C 0.15133 0.04333 0.58002 0.0
C234 C 0.1235 1.03889 0.58313 0.0
C235 C 0.17146 0.87456 0.51635 0.0
C236 C 0.20276 0.88546 0.6772 0.0
C237 C 0.23663 0.8774 0.71874 0.0
C238 C 0.22856 0.90187 0.73341 0.0
C239 C 0.19525 0.90978 0.69245 0.0
C240 C 0.22348 0.86937 0.69055 0.0
C241 C 0.20815 0.9179 0.72026 0.0
C242 C 0.21735 0.91812 0.51913 0.0
C243 C 0.18895 0.87658 0.64773 0.0
H244 H 0.042 1.01547 0.4481 0.0
H245 H 0.11037 1.00405 0.50832 0.0
H246 H 0.07285 1.03243 0.48929 0.0
H247 H 0.08414 0.93858 0.44825 0.0
H248 H 0.23771 0.90851 0.75539 0.0
H249 H 0.17934 0.92254 0.683 0.0
H250 H 0.22955 0.85074 0.67874 0.0
H251 H 0.20216 0.93665 0.73183 0.0
Eu252 Eu 0.95077 0.43157 0.83731 0.0
C253 C 0.87795 0.41128 0.71634 0.0
N254 N 0.87507 0.41426 0.74833 0.0
C255 C 0.83483 0.44079 0.74071 0.0
C256 C 0.85965 0.42368 0.69523 0.0
C257 C 0.85342 0.42807 0.76077 0.0
C258 C 0.8381 0.43882 0.70782 0.0
C259 C 0.90163 0.39046 0.67183 0.0
C260 C 0.89878 0.395 0.70476 0.0
C261 C 0.88412 0.40366 0.65067 0.0
C262 C 0.86319 0.42024 0.66234 0.0
Eu263 Eu 0.90873 0.39328 0.77996 0.0
N264 N 0.91522 0.38229 0.7258 0.0
C265 C 0.9215 0.37219 0.66122 0.0
C266 C 0.93378 0.36352 0.71571 0.0
C267 C 0.93742 0.35842 0.68329 0.0
H268 H 0.85088 0.42998 0.78612 0.0
H269 H 0.95244 0.34383 0.67537 0.0
H270 H 1.01723 0.44456 0.82717 0.0
H271 H 0.90791 0.34182 0.89717 0.0
H272 H 0.94594 0.3526 0.73272 0.0
H273 H 0.92429 0.36813 0.63612 0.0
H274 H 0.90974 0.37704 0.85655 0.0
H275 H 0.81803 0.45218 0.75064 0.0
H276 H 0.8862 0.40069 0.62528 0.0
H277 H 0.84952 0.42987 0.64575 0.0
H278 H 0.06007 0.43543 0.8555 0.0
H279 H 0.82365 0.44872 0.69238 0.0
H280 H 0.94629 0.33562 0.93381 0.0
N281 N 0.99355 0.42048 0.85844 0.0
C282 C 0.99328 0.40313 0.88352 0.0
C283 C 0.04141 0.42637 0.86372 0.0
C284 C 1.0173 0.39716 0.90011 0.0
C285 C 1.0172 0.43147 0.84775 0.0
C286 C 0.04139 0.40951 0.89032 0.0
N287 N 0.94769 0.39261 0.87069 0.0
C288 C 0.92618 0.37546 0.87265 0.0
C289 C 0.9698 0.36806 0.91301 0.0
C290 C 0.96966 0.38866 0.88976 0.0
C291 C 0.94695 0.35167 0.91629 0.0
C292 C 0.92528 0.35507 0.89562 0.0
H293 H 0.06026 0.40536 0.9024 0.0
H294 H 1.03503 0.37338 0.93792 0.0
H295 H 0.99345 0.34799 0.94931 0.0
O296 O 0.94413 0.45491 0.88083 0.0
O297 O 0.97611 0.39224 0.82384 0.0
O298 O 0.94759 0.36634 0.79306 0.0
O299 O 0.97464 0.46781 0.84783 0.0
O300 O 0.9066 0.43093 0.85812 0.0
O301 O 0.88096 0.40629 0.82323 0.0
O302 O 0.88074 0.36383 0.76018 0.0
O303 O 0.90793 0.43916 0.76365 0.0
O304 O 0.9368 0.46219 0.79689 0.0
O305 O 0.89827 0.35652 0.80635 0.0
O306 O 0.95153 0.39885 0.76245 0.0
O307 O 0.96701 0.43735 0.78748 0.0
C308 C 0.97095 0.36882 0.80907 0.0
C309 C 0.9553 0.50125 0.88101 0.0
C310 C 0.96111 0.54105 0.91468 0.0
C311 C 0.94092 0.55461 0.89746 0.0
C312 C 0.93539 0.51499 0.86364 0.0
C313 C 0.92832 0.54165 0.87186 0.0
C314 C 0.9682 0.51438 0.90618 0.0
C315 C 0.88298 0.41994 0.85047 0.0
C316 C 0.96245 0.4729 0.87446 0.0
C317 C 1.01685 0.378 0.92467 0.0
C318 C 0.99316 0.36351 0.93114 0.0
C319 C 0.92082 0.46198 0.77124 0.0
C320 C 0.89395 0.31873 0.77136 0.0
C321 C 0.90352 0.28677 0.72793 0.0
C322 C 0.91303 0.26792 0.75037 0.0
C323 C 0.90346 0.29952 0.79321 0.0
C324 C 0.89384 0.31204 0.73877 0.0
C325 C 0.91295 0.27431 0.78271 0.0
C326 C 0.96726 0.42017 0.76356 0.0
C327 C 0.88526 0.34603 0.7823 0.0
H328 H 0.93502 0.57514 0.90373 0.0
H329 H 0.92522 0.50504 0.8441 0.0
H330 H 0.91285 0.55221 0.85856 0.0
H331 H 0.98328 0.50347 0.91982 0.0
H332 H 0.92017 0.24805 0.74304 0.0
H333 H 0.90379 0.30409 0.81839 0.0
H334 H 0.88681 0.3268 0.72165 0.0
H335 H 0.92029 0.25962 0.79972 0.0
Eu336 Eu 0.63034 0.92334 0.99188 0.0
C337 C 0.64031 0.83671 0.89018 0.0
N338 N 0.65741 0.83672 0.91541 0.0
C339 C 0.66286 0.78848 0.91133 0.0
C340 C 0.63418 0.81231 0.87419 0.0
C341 C 0.66815 0.81308 0.92668 0.0
C342 C 0.64613 0.78814 0.88469 0.0
C343 C 0.60637 0.86037 0.85921 0.0
C344 C 0.62646 0.86063 0.88295 0.0
C345 C 0.60145 0.83646 0.84194 0.0
C346 C 0.6153 0.8125 0.84942 0.0
Eu347 Eu 0.66883 0.87985 0.93569 0.0
N348 N 0.63087 0.8833 0.90102 0.0
C349 C 0.59101 0.88384 0.85428 0.0
C350 C 0.61514 0.90581 0.89686 0.0
C351 C 0.59519 0.90651 0.87347 0.0
H352 H 0.68111 0.81332 0.9473 0.0
H353 H 0.58302 0.9246 0.87029 0.0
H354 H 0.66742 0.98086 0.99076 0.0
H355 H 0.5715 0.8812 0.09008 0.0
H356 H 0.61769 0.92341 0.9112 0.0
H357 H 0.57538 0.88443 0.83633 0.0
H358 H 0.58477 0.88773 0.03408 0.0
H359 H 0.67165 0.7698 0.92005 0.0
H360 H 0.58628 0.83605 0.82346 0.0
H361 H 0.61051 0.794 0.83669 0.0
H362 H 0.68795 1.0126 0.02905 0.0
H363 H 0.64183 0.76898 0.87307 0.0
H364 H 0.59372 0.90789 0.13235 0.0
N365 N 0.64901 0.95645 0.02637 0.0
C366 C 0.64388 0.95327 0.05786 0.0
C367 C 0.67567 0.99595 0.03746 0.0
C368 C 0.65525 0.97091 0.08057 0.0
C369 C 0.66387 0.978 0.01581 0.0
C370 C 0.67163 0.99219 0.07 0.0
N371 N 0.61459 0.91741 0.04455 0.0
C372 C 0.59469 0.89941 0.05231 0.0
C373 C 0.61922 0.93004 0.09954 0.0
C374 C 0.62616 0.93309 0.06723 0.0
C375 C 0.59968 0.91079 0.10781 0.0
C376 C 0.58708 0.89569 0.08402 0.0
H377 H 0.68079 1.00614 0.08669 0.0
H378 H 0.6582 0.9803 0.13075 0.0
H379 H 0.62656 0.94453 0.14736 0.0
O380 O 0.60091 0.95395 1.00581 0.0
O381 O 0.67586 0.92415 1.00855 0.0
O382 O 0.69905 0.89446 0.97584 0.0
O383 O 0.59646 0.93302 0.96074 0.0
O384 O 0.6357 0.88118 1.01111 0.0
O385 O 0.67377 0.86417 0.98614 0.0
O386 O 0.69226 0.88407 0.8919 0.0
O387 O 0.62956 0.85493 0.94938 0.0
O388 O 0.60332 0.88442 0.97892 0.0
O389 O 0.70519 0.85536 0.92692 0.0
O390 O 0.6694 0.92432 0.91479 0.0
O391 O 0.64654 0.95094 0.95072 0.0
C392 C 0.69862 0.91088 1.00126 0.0
C393 C 0.55675 0.9412 0.99122 0.0
C394 C 0.52331 0.93367 0.033 0.0
C395 C 0.50612 0.92146 1.01071 0.0
C396 C 0.53917 0.92935 0.96907 0.0
C397 C 0.51393 0.91965 0.97883 0.0
C398 C 0.54826 0.94391 0.02296 0.0
C399 C 0.65701 0.86537 1.01048 0.0
C400 C 0.58476 0.94834 0.98227 0.0
C401 C 0.64941 0.96714 0.11293 0.0
C402 C 0.63141 0.94677 0.12239 0.0
C403 C 0.606 0.86054 0.96359 0.0
C404 C 0.73853 0.87303 0.89272 0.0
C405 C 0.77848 0.86584 0.85966 0.0
C406 C 0.79156 0.88705 0.87574 0.0
C407 C 0.75181 0.89397 0.90893 0.0
C408 C 0.75197 0.8589 0.86845 0.0
C409 C 0.77831 0.90086 0.90046 0.0
C410 C 0.65985 0.9486 0.92337 0.0
C411 C 0.71032 0.8661 0.89955 0.0
H412 H 0.48672 0.91337 0.01796 0.0
H413 H 0.54519 0.927 0.94445 0.0
H414 H 0.5006 0.91024 0.96174 0.0
H415 H 0.56166 0.95273 0.04046 0.0
H416 H 0.81195 0.89284 0.86924 0.0
H417 H 0.74162 0.90509 0.92775 0.0
H418 H 0.74145 0.84298 0.85569 0.0
H419 H 0.78851 0.91713 0.91286 0.0
Eu420 Eu 0.38801 0.39353 0.74187 0.0
C421 C 0.46628 0.3964 0.63493 0.0
N422 N 0.46942 0.41498 0.65852 0.0
C423 C 0.51609 0.42061 0.64451 0.0
C424 C 0.48807 0.38967 0.6146 0.0
C425 C 0.49401 0.42652 0.66421 0.0
C426 C 0.51299 0.40248 0.61924 0.0
C427 C 0.43995 0.35976 0.61233 0.0
C428 C 0.44226 0.38175 0.63377 0.0
C429 C 0.46072 0.35457 0.59024 0.0
C430 C 0.48474 0.36947 0.5914 0.0
Eu431 Eu 0.42932 0.42834 0.68483 0.0
N432 N 0.42298 0.38649 0.65651 0.0
C433 C 0.41783 0.34237 0.61527 0.0
C434 C 0.40374 0.36721 0.66199 0.0
C435 C 0.40022 0.34554 0.64093 0.0
H436 H 0.49646 0.44066 0.68367 0.0
H437 H 0.38441 0.33082 0.64509 0.0
H438 H 0.35199 0.44759 0.71226 0.0
H439 H 0.4014 0.36739 0.86635 0.0
H440 H 0.39202 0.36727 0.68334 0.0
H441 H 0.41538 0.32522 0.59937 0.0
H442 H 0.41228 0.36746 0.80907 0.0
H443 H 0.53546 0.43008 0.64876 0.0
H444 H 0.45901 0.33806 0.57331 0.0
H445 H 0.50111 0.36433 0.57525 0.0
H446 H 0.31343 0.476 0.72819 0.0
H447 H 0.53021 0.39778 0.60416 0.0
H448 H 0.36145 0.39273 0.8863 0.0
N449 N 0.35357 0.42567 0.7557 0.0
C450 C 0.34414 0.42426 0.7861 0.0
C451 C 0.32161 0.46124 0.74457 0.0
C452 C 0.32275 0.44109 0.79669 0.0
C453 C 0.34315 0.44451 0.7353 0.0
C454 C 0.31107 0.45925 0.77524 0.0
N455 N 0.37951 0.39342 0.79702 0.0
C456 C 0.39514 0.37906 0.81768 0.0
C457 C 0.35053 0.408 0.8399 0.0
C458 C 0.35782 0.40791 0.80749 0.0
C459 C 0.36629 0.39305 0.86119 0.0
C460 C 0.38891 0.3788 0.85006 0.0
H461 H 0.29463 0.47254 0.78246 0.0
H462 H 0.29794 0.45278 0.83708 0.0
H463 H 0.32232 0.42382 0.87495 0.0
O464 O 0.38718 0.35161 0.75853 0.0
O465 O 0.39601 0.436 0.76533 0.0
O466 O 0.41305 0.46068 0.72345 0.0
O467 O 0.35169 0.36847 0.73689 0.0
O468 O 0.42951 0.39951 0.76324 0.0
O469 O 0.45016 0.4322 0.73228 0.0
O470 O 0.4286 0.44917 0.63889 0.0
O471 O 0.45656 0.39124 0.69992 0.0
O472 O 0.42615 0.36521 0.72769 0.0
O473 O 0.45264 0.46547 0.67705 0.0
O474 O 0.38588 0.42798 0.66219 0.0
O475 O 0.36208 0.40004 0.6951 0.0
C476 C 0.40402 0.45976 0.75368 0.0
C477 C 0.34484 0.33608 0.77802 0.0
C478 C 0.34101 0.31101 0.8277 0.0
C479 C 0.31277 0.31157 0.82516 0.0
C480 C 0.31646 0.33648 0.7758 0.0
C481 C 0.30058 0.3243 0.79928 0.0
C482 C 0.35695 0.3231 0.8041 0.0
C483 C 0.44879 0.41736 0.75816 0.0
C484 C 0.3617 0.34815 0.75263 0.0
C485 C 0.31448 0.44015 0.82861 0.0
C486 C 0.32838 0.42369 0.85019 0.0
C487 C 0.45077 0.36789 0.71424 0.0
C488 C 0.44633 0.49369 0.63184 0.0
C489 C 0.46677 0.52291 0.59176 0.0
C490 C 0.44939 0.54409 0.60148 0.0
C491 C 0.42907 0.51483 0.64129 0.0
C492 C 0.46501 0.49777 0.60723 0.0
C493 C 0.43063 0.53998 0.62604 0.0
C494 C 0.3635 0.41399 0.6681 0.0
C495 C 0.44629 0.46715 0.64729 0.0
H496 H 0.30022 0.30229 0.84325 0.0
H497 H 0.30655 0.34605 0.75584 0.0
H498 H 0.27875 0.3247 0.79738 0.0
H499 H 0.37878 0.32217 0.80613 0.0
H500 H 0.45012 0.56368 0.58993 0.0
H501 H 0.41462 0.51191 0.66038 0.0
H502 H 0.47863 0.48137 0.60057 0.0
H503 H 0.41731 0.55637 0.6333 0.0
Eu504 Eu 0.8819 0.18749 0.44094 0.0
C505 C 0.9184 0.08066 0.46772 0.0
N506 N 0.90112 0.10121 0.47623 0.0
C507 C 0.8632 0.07169 0.46789 0.0
C508 C 0.90852 0.05466 0.45971 0.0
C509 C 0.87378 0.09715 0.47552 0.0
C510 C 0.88061 0.05028 0.46034 0.0
C511 C 0.96403 0.06573 0.4539 0.0
C512 C 0.94596 0.08615 0.46439 0.0
C513 C 0.95428 1.03961 0.44737 0.0
C514 C 0.92662 1.03413 0.45012 0.0
Eu515 Eu 0.92316 0.14267 0.49007 0.0
N516 N 0.95481 0.11193 0.46917 0.0
C517 C 0.99128 0.07242 0.44927 0.0
C518 C 0.98123 0.1187 0.46461 0.0
C519 C 0.99989 0.09904 0.45456 0.0
H520 H 0.85973 0.1134 0.47964 0.0
H521 H 1.02088 0.1044 0.45094 0.0
H522 H 0.89436 0.2539 0.4415 0.0
H523 H 0.78528 0.13402 0.42926 0.0
H524 H 0.98788 0.13924 0.46904 0.0
H525 H 1.00574 0.05729 0.4412 0.0
H526 H 0.83485 0.13807 0.43029 0.0
H527 H 0.84153 0.0687 0.4674 0.0
H528 H 0.9679 1.02372 0.43933 0.0
H529 H 0.91933 1.01405 0.44407 0.0
H530 H 0.86884 0.29715 0.44521 0.0
H531 H 0.87226 1.03068 0.4541 0.0
H532 H 0.75651 0.1748 0.43618 0.0
N533 N 0.8591 0.22944 0.44291 0.0
C534 C 0.83166 0.22863 0.44359 0.0
C535 C 0.85815 0.27802 0.44494 0.0
C536 C 0.81629 0.25274 0.44557 0.0
C537 C 0.87253 0.25357 0.44294 0.0
C538 C 0.82991 0.27761 0.44654 0.0
N539 N 0.83444 0.18089 0.43783 0.0
C540 C 0.82268 0.15615 0.43293 0.0
C541 C 0.79046 0.20219 0.4404 0.0
C542 C 0.81894 0.20366 0.44081 0.0
C543 C 0.77833 0.17678 0.43653 0.0
C544 C 0.79451 0.15372 0.43254 0.0
H545 H 0.81882 0.2966 0.448 0.0
H546 H 0.77575 0.26959 0.44767 0.0
H547 H 0.75314 0.22533 0.44334 0.0
O548 O 0.86784 0.204 0.39612 0.0
O549 O 0.89602 0.21231 0.48317 0.0
O550 O 0.90599 0.1778 0.51787 0.0
O551 O 0.90747 0.18489 0.39839 0.0
O552 O 0.85363 0.17393 0.48332 0.0
O553 O 0.87961 0.14576 0.51465 0.0
O554 O 0.95716 0.1469 0.52282 0.0
O555 O 0.92659 0.13393 0.43526 0.0
O556 O 0.88313 0.14166 0.4247 0.0
O557 O 0.92864 0.11432 0.52911 0.0
O558 O 0.95164 0.17974 0.47642 0.0
O559 O 0.92376 0.20999 0.45022 0.0
C560 C 0.9003 0.20324 0.51196 0.0
C561 C 0.90162 0.22317 0.36389 0.0
C562 C 0.8932 0.26264 0.32993 0.0
C563 C 0.92073 0.26946 0.3322 0.0
C564 C 0.92903 0.23038 0.36569 0.0
C565 C 0.93846 0.25338 0.34988 0.0
C566 C 0.88392 0.23927 0.34571 0.0
C567 C 0.85607 0.15873 0.50932 0.0
C568 C 0.89072 0.19963 0.3815 0.0
C569 C 0.78792 0.2513 0.44593 0.0
C570 C 0.77504 0.22609 0.44342 0.0
C571 C 0.90539 0.1278 0.41755 0.0
C572 C 0.94453 0.13596 0.575 0.0
C573 C 0.96383 0.14664 0.62651 0.0
C574 C 0.93793 0.15339 0.63799 0.0
C575 C 0.91871 0.14271 0.58682 0.0
C576 C 0.96697 0.13792 0.59492 0.0
C577 C 0.91548 0.15124 0.61821 0.0
C578 C 0.94806 0.20401 0.46262 0.0
C579 C 0.94835 0.12797 0.54165 0.0
H580 H 0.92852 0.28749 0.32074 0.0
H581 H 0.94313 0.21846 0.37952 0.0
H582 H 0.95957 0.25893 0.3516 0.0
H583 H 0.86283 0.23354 0.34391 0.0
H584 H 0.93501 0.15996 0.66235 0.0
H585 H 0.90104 0.14144 0.57184 0.0
H586 H 0.98693 0.13308 0.58566 0.0
H587 H 0.89552 0.15611 0.62725 0.0
Eu588 Eu 0.16563 0.68353 0.24851 0.0
C589 C 0.08279 0.67165 0.14423 0.0
N590 N 0.08368 0.65294 0.16794 0.0
C591 C 0.03696 0.64245 0.16059 0.0
C592 C 0.05857 0.67625 0.12751 0.0
C593 C 0.06128 0.63882 0.17686 0.0
C594 C 1.03566 0.66105 0.13563 0.0
C595 C 0.10421 0.70871 0.11585 0.0
C596 C 0.10571 0.68755 0.13832 0.0
C597 C 0.08041 0.71257 0.09829 0.0
C598 C 0.05771 0.69636 0.10403 0.0
Eu599 Eu 0.12636 0.64516 0.19009 0.0
N600 N 0.12848 0.68381 0.15627 0.0
C601 C 0.1263 0.72611 0.11249 0.0
C602 C 0.14927 0.70186 0.15424 0.0
C603 C 0.1487 0.72294 0.13213 0.0
H604 H 0.0625 0.62434 0.19605 0.0
H605 H 0.16548 0.73692 0.13047 0.0
H606 H 0.22474 0.64851 0.24327 0.0
H607 H 0.12081 0.73412 0.35166 0.0
H608 H 0.16625 0.70056 0.16969 0.0
H609 H 0.12589 0.74264 0.09557 0.0
H610 H 0.12715 0.72387 0.29459 0.0
H611 H 1.01927 0.63087 0.16723 0.0
H612 H 0.07909 0.72858 0.08077 0.0
H613 H 0.03932 0.70008 0.09081 0.0
H614 H 0.2582 0.62811 0.2793 0.0
H615 H 1.01672 0.66394 0.12322 0.0
H616 H 0.14992 0.71177 0.39152 0.0
N617 N 0.20012 0.66445 0.28059 0.0
C618 C 0.1971 0.66791 0.31249 0.0
C619 C 0.24109 0.63923 0.28893 0.0
C620 C 0.21582 0.65657 0.33392 0.0
C621 C 0.22213 0.65097 0.26854 0.0
C622 C 0.23779 0.64181 0.32174 0.0
N623 N 0.1589 0.69547 0.30233 0.0
C624 C 0.13979 0.71388 0.3119 0.0
C625 C 0.17302 0.68915 0.35644 0.0
C626 C 0.17583 0.68382 0.32366 0.0
C627 C 0.15266 0.70708 0.36656 0.0
C628 C 0.1362 0.71976 0.34414 0.0
H629 H 0.25256 0.63271 0.33744 0.0
H630 H 0.2264 0.65204 0.38351 0.0
H631 H 0.18905 0.68072 0.40321 0.0
O632 O 0.19313 0.71405 0.26702 0.0
O633 O 0.16815 0.63765 0.26408 0.0
O634 O 0.13688 0.61576 0.23314 0.0
O635 O 0.17349 0.72068 0.22179 0.0
O636 O 0.124 0.67461 0.26897 0.0
O637 O 0.10508 0.64141 0.23711 0.0
O638 O 0.1146 0.62435 0.14595 0.0
O639 O 0.09845 0.68249 0.20495 0.0
O640 O 0.12652 0.70953 0.23477 0.0
O641 O 0.12646 0.6009 0.18591 0.0
O642 O 0.17008 0.64791 0.16909 0.0
O643 O 0.1948 0.67111 0.20608 0.0
C644 C 0.15362 0.61555 0.25806 0.0
C645 C 0.17667 0.75832 0.25716 0.0
C646 C 0.16598 0.78871 0.30173 0.0
C647 C 0.15311 0.80646 0.28042 0.0
C648 C 0.16383 0.77647 0.23641 0.0
C649 C 0.15218 0.80038 0.24803 0.0
C650 C 0.17807 0.76489 0.28974 0.0
C651 C 0.10606 0.65551 0.26361 0.0
C652 C 0.18674 0.73174 0.24536 0.0
C653 C 0.21235 0.66078 0.36669 0.0
C654 C 0.19105 0.67709 0.37792 0.0
C655 C 0.10312 0.7063 0.2192 0.0
C656 C 0.09066 0.58361 0.15474 0.0
C657 C 0.05194 0.5696 0.12283 0.0
C658 C 0.04196 0.55491 0.14893 0.0
C659 C 0.08045 0.56848 0.18039 0.0
C660 C 0.07641 0.58383 0.12595 0.0
C661 C 0.05623 0.55429 0.17742 0.0
C662 C 0.19348 0.65839 0.17813 0.0
C663 C 0.11522 0.60037 0.15824 0.0
H664 H 0.14399 0.82523 0.2887 0.0
H665 H 0.16241 0.77196 0.21128 0.0
H666 H 0.14218 0.81419 0.2319 0.0
H667 H 0.18767 0.75095 0.30607 0.0
H668 H 1.02301 0.54403 0.14741 0.0
H669 H 0.09087 0.56795 0.20296 0.0
H670 H 0.08442 0.59512 0.10598 0.0
H671 H 0.04836 0.54295 0.19738 0.0
Eu672 Eu 0.90398 0.69689 0.59227 0.0
C673 C 0.92296 0.61482 0.48313 0.0
N674 N 0.91875 0.6205 0.51445 0.0
C675 C 0.8891 0.58206 0.5186 0.0
C676 C 0.9102 0.59253 0.46838 0.0
C677 C 0.90174 0.60461 0.53211 0.0
C678 C 0.89352 0.57584 0.48668 0.0
C679 C 0.94068 0.62912 0.43208 0.0
C680 C 0.9382 0.63275 0.46522 0.0
C681 C 0.92876 0.60649 0.41752 0.0
C682 C 0.91367 0.58816 0.43565 0.0
Eu683 Eu 0.9439 0.65761 0.53578 0.0
N684 N 0.94935 0.65457 0.47987 0.0
C685 C 0.95455 0.64868 0.41441 0.0
C686 C 0.96294 0.67372 0.46265 0.0
C687 C 0.96574 0.67106 0.42977 0.0
H688 H 0.897 0.60961 0.55637 0.0
H689 H 0.97657 0.68626 0.41631 0.0
H690 H 0.88185 0.76089 0.58824 0.0
H691 H 0.99888 0.66059 0.64711 0.0
H692 H 0.97218 0.69083 0.47445 0.0
H693 H 0.95646 0.64685 0.38888 0.0
H694 H 0.9636 0.66093 0.60659 0.0
H695 H 0.87565 0.56968 0.53276 0.0
H696 H 0.93071 0.60323 0.39215 0.0
H697 H 0.90412 0.57109 0.42398 0.0
H698 H 0.88662 0.80354 0.61927 0.0
H699 H 0.88336 0.55856 0.47621 0.0
H700 H 1.00109 0.69772 0.68652 0.0
N701 N 0.91031 0.73936 0.61612 0.0
C702 C 0.92858 0.73995 0.64024 0.0
C703 C 0.8985 0.78582 0.62536 0.0
C704 C 0.93214 0.76383 0.65824 0.0
C705 C 0.89587 0.76184 0.60784 0.0
C706 C 0.91648 0.78674 0.65088 0.0
N707 N 0.94268 0.69503 0.62573 0.0
C708 C 0.96267 0.67584 0.62504 0.0
C709 C 0.96602 0.71864 0.66791 0.0
C710 C 0.94511 0.71719 0.64525 0.0
C711 C 0.9847 0.6973 0.66954 0.0
C712 C 0.98344 0.67622 0.64743 0.0
H713 H 0.91858 0.80542 0.66428 0.0
H714 H 0.95459 0.78249 0.69651 0.0
H715 H 0.98438 0.74314 0.70476 0.0
O716 O 0.88163 0.70935 0.63532 0.0
O717 O 0.94057 0.72591 0.57829 0.0
O718 O 0.96967 0.69595 0.55358 0.0
O719 O 0.85985 0.69526 0.59505 0.0
O720 O 0.90721 0.65369 0.61493 0.0
O721 O 0.93496 0.63036 0.58098 0.0
O722 O 0.98472 0.65301 0.51714 0.0
O723 O 0.90055 0.65928 0.51301 0.0
O724 O 0.87563 0.685 0.54828 0.0
O725 O 0.97114 0.62595 0.55391 0.0
O726 O 0.9369 0.70017 0.51635 0.0
O727 O 0.90122 0.71804 0.54535 0.0
C728 C 0.96527 0.72058 0.56658 0.0
C729 C 0.83991 0.73106 0.6248 0.0
C730 C 0.82103 0.7684 0.65633 0.0
C731 C 0.80747 0.77784 0.6292 0.0
C732 C 0.82595 0.74077 0.59807 0.0
C733 C 0.80989 0.76404 0.60036 0.0
C734 C 0.83722 0.7449 0.65389 0.0
C735 C 0.92054 0.6311 0.6078 0.0
C736 C 0.8581 0.70724 0.62238 0.0
C737 C 0.95172 0.7644 0.68223 0.0
C738 C 0.96863 0.74192 0.68701 0.0
C739 C 0.87719 0.67105 0.52083 0.0
C740 C 1.00076 0.6078 0.51419 0.0
C741 C 1.02174 0.59055 0.46559 0.0
C742 C 1.02465 0.56494 0.47959 0.0
C743 C 1.00356 0.58196 0.5279 0.0
C744 C 1.00976 0.61177 0.48285 0.0
C745 C 1.01533 0.56064 0.51057 0.0
C746 C 0.91675 0.71747 0.51998 0.0
C747 C 0.98978 0.63092 0.53274 0.0
H748 H 0.79517 0.79606 0.63021 0.0
H749 H 0.8277 0.73068 0.57527 0.0
H750 H 0.79941 0.77151 0.57962 0.0
H751 H 0.84767 0.73729 0.67462 0.0
H752 H 1.03407 0.54838 0.46659 0.0
H753 H 0.99692 0.57833 0.55206 0.0
H754 H 1.0082 0.6316 0.47191 0.0
H755 H 1.0175 0.54081 0.52131 0.0
Eu756 Eu 0.14624 0.15021 0.84352 0.0
C757 C 0.2149 0.16624 0.71808 0.0
N758 N 0.21856 0.16407 0.75 0.0
C759 C 0.25835 0.13698 0.74141 0.0
C760 C 0.23256 0.15309 0.69656 0.0
C761 C 0.2404 0.15044 0.76188 0.0
C762 C 0.25425 0.13805 0.70864 0.0
C763 C 0.19026 0.18601 0.67401 0.0
C764 C 0.19391 0.18242 0.70692 0.0
C765 C 0.20724 0.17218 0.65252 0.0
C766 C 0.2283 0.15574 0.66376 0.0
Eu767 Eu 0.18582 0.18612 0.78238 0.0
N768 N 0.17799 0.19578 0.72826 0.0
C769 C 0.17009 0.20391 0.66368 0.0
C770 C 0.15896 0.21403 0.71836 0.0
C771 C 0.15464 0.21828 0.68596 0.0
H772 H 0.24355 0.14922 0.78717 0.0
H773 H 0.13937 0.23256 0.67821 0.0
H774 H 0.08272 0.12743 0.8407 0.0
H775 H 0.18382 0.24559 0.89644 0.0
H776 H 0.147 0.22522 0.73553 0.0
H777 H 0.16667 0.20722 0.6386 0.0
H778 H 0.18493 0.20732 0.85938 0.0
H779 H 0.2753 0.12571 0.75092 0.0
H780 H 0.20459 0.1745 0.62714 0.0
H781 H 0.24151 0.14558 0.64687 0.0
H782 H 0.03904 0.13605 0.86829 0.0
H783 H 0.26823 0.12761 0.69287 0.0
H784 H 0.14442 0.2523 0.93185 0.0
N785 N 0.10359 0.1578 0.86656 0.0
C786 C 0.10241 0.178 0.88876 0.0
C787 C 0.0567 0.14791 0.87425 0.0
C788 C 0.07798 0.18355 0.90496 0.0
C789 C 0.08123 0.14319 0.85855 0.0
C790 C 0.05512 0.16799 0.89773 0.0
N791 N 0.14802 0.19014 0.87549 0.0
C792 C 0.16826 0.20891 0.87552 0.0
C793 C 0.12334 0.21688 0.91435 0.0
C794 C 0.1252 0.19443 0.89349 0.0
C795 C 0.14512 0.23483 0.91616 0.0
C796 C 0.16742 0.2311 0.89624 0.0
H797 H 0.03599 0.17171 0.90967 0.0
H798 H 0.05825 0.20943 0.93975 0.0
H799 H 0.0978 0.23857 0.9479 0.0
O800 O 0.15597 0.10761 0.85335 0.0
O801 O 0.11917 0.18762 0.82775 0.0
O802 O 0.14712 0.21316 0.79566 0.0
O803 O 0.13007 0.12918 0.88539 0.0
O804 O 0.18912 0.15604 0.86496 0.0
O805 O 0.21485 0.17439 0.82519 0.0
O806 O 0.21429 0.21408 0.76069 0.0
O807 O 0.18622 0.13983 0.7684 0.0
O808 O 0.15444 0.11964 0.80053 0.0
O809 O 0.19663 0.22426 0.80641 0.0
O810 O 0.14341 0.17755 0.7643 0.0
O811 O 0.12377 0.14561 0.79749 0.0
C812 C 0.1238 0.21061 0.81187 0.0
C813 C 0.11977 0.0833 0.87709 0.0
C814 C 0.08774 0.05492 0.90621 0.0
C815 C 0.0799 0.04287 0.87739 0.0
C816 C 0.11151 0.07114 0.84854 0.0
C817 C 0.0918 0.05091 0.8488 0.0
C818 C 0.10787 0.07505 0.90582 0.0
C819 C 0.21291 0.16461 0.85468 0.0
C820 C 0.13944 0.10571 0.87728 0.0
C821 C 0.07681 0.20498 0.92694 0.0
C822 C 0.09938 0.22156 0.93162 0.0
C823 C 0.17099 0.1184 0.77527 0.0
C824 C 0.20925 0.26096 0.7721 0.0
C825 C 0.20215 0.29457 0.72966 0.0
C826 C 0.2108 0.31494 0.75095 0.0
C827 C 0.21705 0.28181 0.79272 0.0
C828 C 0.20164 0.26751 0.74079 0.0
C829 C 0.2178 0.3086 0.78217 0.0
C830 C 0.12442 0.15973 0.77102 0.0
C831 C 0.21177 0.23244 0.78276 0.0
H832 H 0.06463 1.02716 0.87698 0.0
H833 H 0.11999 0.07748 0.82603 0.0
H834 H 0.08555 1.0416 0.82672 0.0
H835 H 0.11376 0.08492 0.92776 0.0
H836 H 0.2128 0.33584 0.74359 0.0
H837 H 0.22327 0.27727 0.81677 0.0
H838 H 0.19574 0.25137 0.72511 0.0
H839 H 0.22436 0.32452 0.79811 0.0
Eu840 Eu 0.65396 0.43404 0.04029 0.0
C841 C 0.67133 0.33745 0.1329 0.0
N842 N 0.66723 0.36477 0.13063 0.0
C843 C 0.63554 0.36302 0.17396 0.0
C844 C 0.65697 0.32181 0.15532 0.0
C845 C 0.65013 0.37772 0.15135 0.0
C846 C 0.6388 0.33494 0.17581 0.0
C847 C 0.69421 0.29671 0.11396 0.0
C848 C 0.68972 0.32497 0.11242 0.0
C849 C 0.67967 0.2811 0.13599 0.0
C850 C 0.66112 0.29361 0.15661 0.0
Eu851 Eu 0.69272 0.3872 0.09056 0.0
N852 N 0.70364 0.34053 0.0914 0.0
C853 C 0.71334 0.28496 0.09344 0.0
C854 C 0.72266 0.32928 0.0717 0.0
C855 C 0.72771 0.30135 0.07233 0.0
H856 H 0.6473 0.39935 0.15069 0.0
H857 H 0.74273 0.29249 0.05662 0.0
H858 H 0.6858 0.49224 0.02296 0.0
H859 H 0.58526 0.41725 0.143 0.0
H860 H 0.7341 0.34196 0.05563 0.0
H861 H 0.71733 0.26332 0.09391 0.0
H862 H 0.61889 0.40447 0.10391 0.0
H863 H 0.62176 0.3734 0.18998 0.0
H864 H 0.68276 0.25935 0.13741 0.0
H865 H 0.65014 0.2813 0.17357 0.0
H866 H 0.68104 0.54132 0.03349 0.0
H867 H 0.62738 0.32363 0.19332 0.0
H868 H 0.57256 0.46535 0.14997 0.0
N869 N 0.65231 0.48122 0.05213 0.0
C870 C 0.63288 0.48991 0.07265 0.0
C871 C 0.66723 0.52713 0.04448 0.0
C872 C 0.62976 0.51785 0.07967 0.0
C873 C 0.66972 0.49933 0.03842 0.0
C874 C 0.64699 0.53648 0.06495 0.0
N875 N 0.62344 0.44381 0.0839 0.0
C876 C 0.61254 0.42506 0.10409 0.0
C877 C 0.59941 0.47921 0.11275 0.0
C878 C 0.61791 0.47068 0.08892 0.0
C879 C 0.58673 0.45963 0.1314 0.0
C880 C 0.59377 0.43249 0.12746 0.0
H881 H 0.64528 0.55803 0.06988 0.0
H882 H 0.60758 0.54762 0.10754 0.0
H883 H 0.58097 0.51377 0.13655 0.0
O884 O 0.61866 0.44158 1.00922 0.0
O885 O 0.6814 0.45533 0.07812 0.0
O886 O 0.67372 0.42559 0.11664 0.0
O887 O 0.65767 0.45723 0.99719 0.0
O888 O 0.62629 0.39423 0.04782 0.0
O889 O 0.65028 0.36625 0.08172 0.0
O890 O 0.72583 0.37091 0.11917 0.0
O891 O 0.69553 0.37239 0.03961 0.0
O892 O 0.65908 0.3932 0.01604 0.0
O893 O 0.72213 0.41428 0.11272 0.0
O894 O 0.72098 0.39991 0.04701 0.0
O895 O 0.69796 0.43242 0.01824 0.0
C896 C 0.6783 0.45125 0.10886 0.0
C897 C 0.63175 0.44282 0.95427 0.0
C898 C 0.60561 0.43116 0.90719 0.0
C899 C 0.62983 0.42677 0.89031 0.0
C900 C 0.65573 0.4378 0.93684 0.0
C901 C 0.65467 0.43022 0.90507 0.0
C902 C 0.60666 0.43951 0.9392 0.0
C903 C 0.62833 0.37055 0.06389 0.0
C904 C 0.63337 0.45298 0.98732 0.0
C905 C 0.61037 0.52628 0.10203 0.0
C906 C 0.59519 0.507 0.1185 0.0
C907 C 0.67772 0.37424 0.0167 0.0
C908 C 0.73933 0.39834 0.16215 0.0
C909 C 0.76307 0.38426 0.21034 0.0
C910 C 0.74889 0.40437 0.22748 0.0
C911 C 0.72531 0.41816 0.17985 0.0
C912 C 0.75813 0.38143 0.17756 0.0
C913 C 0.73016 0.42114 0.21229 0.0
C914 C 0.72037 0.41773 0.02288 0.0
C915 C 0.73442 0.39468 0.12782 0.0
H916 H 0.62957 0.4211 0.86544 0.0
H917 H 0.6755 0.44019 0.94745 0.0
H918 H 0.67323 0.42723 0.89177 0.0
H919 H 0.58811 0.44341 0.95228 0.0
H920 H 0.75197 0.40687 0.25276 0.0
H921 H 0.71056 0.43131 0.16873 0.0
H922 H 0.76907 0.36621 0.16392 0.0
H923 H 0.71925 0.43643 0.22577 0.0
Eu924 Eu 0.44998 0.93511 0.33394 0.0
C925 C 0.37541 0.91859 0.21503 0.0
N926 N 0.37309 0.92074 0.24715 0.0
C927 C 0.33314 0.94811 0.24135 0.0
C928 C 0.35708 0.93197 0.19478 0.0
C929 C 0.35172 0.93439 0.26051 0.0
C930 C 0.33603 0.9472 0.20837 0.0
C931 C 0.3973 0.89772 0.16937 0.0
C932 C 0.3954 0.90186 0.20245 0.0
C933 C 0.3799 0.91198 0.14905 0.0
C934 C 0.35988 0.92913 0.16172 0.0
Eu935 Eu 0.40693 0.89829 0.27729 0.0
N936 N 0.41182 0.88822 0.22268 0.0
C937 C 0.41603 0.87869 0.15779 0.0
C938 C 0.4294 0.86889 0.21165 0.0
C939 C 0.43184 0.86391 0.17908 0.0
H940 H 0.34945 0.93553 0.28596 0.0
H941 H 0.4459 0.84867 0.17042 0.0
H942 H 0.51577 0.94866 0.31901 0.0
H943 H 0.41259 0.84518 0.39824 0.0
H944 H 0.44153 0.85726 0.22806 0.0
H945 H 0.418 0.87481 0.13255 0.0
H946 H 0.41204 0.87913 0.35586 0.0
H947 H 0.31665 0.95944 0.25205 0.0
H948 H 0.38131 0.90936 0.12355 0.0
H949 H 0.34618 0.9395 0.14579 0.0
H950 H 0.56017 0.94039 0.34456 0.0
H951 H 0.32157 0.95782 0.19361 0.0
H952 H 0.4518 0.84207 0.43418 0.0
N953 N 0.49379 0.92651 0.35378 0.0
C954 C 0.49485 0.90974 0.37942 0.0
C955 C 0.54194 0.93189 0.35471 0.0
C956 C 0.5197 0.90445 0.39457 0.0
C957 C 0.51695 0.93639 0.34023 0.0
C958 C 0.54325 0.91635 0.38237 0.0
N959 N 0.449 0.89756 0.36944 0.0
C960 C 0.42862 0.87908 0.37211 0.0
C961 C 0.47336 0.87495 0.41148 0.0
C962 C 0.47173 0.89498 0.38764 0.0
C963 C 0.4513 0.8577 0.41615 0.0
C964 C 0.42913 0.85937 0.39588 0.0
H965 H 0.56271 0.91265 0.3933 0.0
H966 H 0.53945 0.88214 0.43221 0.0
H967 H 0.49891 0.85646 0.44714 0.0
O968 O 0.43146 0.96952 0.35932 0.0
O969 O 0.47402 0.89489 0.32174 0.0
O970 O 0.44596 0.87061 0.28881 0.0
O971 O 0.47446 0.9637 0.36102 0.0
O972 O 0.40693 0.93032 0.35783 0.0
O973 O 0.37957 0.91016 0.32106 0.0
O974 O 0.37885 0.86905 0.25732 0.0
O975 O 0.40546 0.94524 0.26424 0.0
O976 O 0.44141 0.96435 0.29041 0.0
O977 O 0.39558 0.86203 0.30405 0.0
O978 O 0.44957 0.90231 0.25899 0.0
O979 O 0.46697 0.94005 0.2839 0.0
C980 C 0.46902 0.87214 0.30568 0.0
C981 C 0.45915 1.00836 0.36728 0.0
C982 C 0.47688 0.04923 0.39253 0.0
C983 C 0.47233 0.06367 0.36431 0.0
C984 C 0.45454 1.02301 0.33931 0.0
C985 C 0.46109 0.0506 0.33792 0.0
C986 C 0.47021 1.02153 0.39367 0.0
C987 C 0.3826 0.92122 0.34964 0.0
C988 C 0.45444 0.97902 0.36938 0.0
C989 C 0.52062 0.88614 0.41999 0.0
C990 C 0.4975 0.87149 0.42848 0.0
C991 C 0.42226 0.96616 0.26812 0.0
C992 C 0.39247 0.82419 0.26877 0.0
C993 C 0.40271 0.79265 0.22514 0.0
C994 C 0.41507 0.77506 0.24702 0.0
C995 C 0.40473 0.80615 0.29013 0.0
C996 C 0.39109 0.81697 0.23636 0.0
C997 C 0.41589 0.78174 0.27926 0.0
C998 C 0.4662 0.92288 0.25986 0.0
C999 C 0.38313 0.85133 0.27964 0.0
H1000 H 0.47726 0.08503 0.36276 0.0
H1001 H 0.44621 1.01313 0.31857 0.0
H1002 H 0.4576 0.06184 0.31627 0.0
H1003 H 0.47431 1.00991 0.41497 0.0
H1004 H 0.42387 0.75598 0.23928 0.0
H1005 H 0.40612 0.81111 0.31514 0.0
H1006 H 0.38188 0.83076 0.21953 0.0
H1007 H 0.42547 0.76803 0.29585 0.0
Eu1008 Eu 0.12917 0.421 0.49208 0.0
C1009 C 0.13781 0.33539 0.39169 0.0
N1010 N 0.15687 0.33559 0.41497 0.0
C1011 C 0.16429 0.28788 0.40873 0.0
C1012 C 0.13155 0.31103 0.37572 0.0
C1013 C 0.16965 0.31239 0.42423 0.0
C1014 C 0.14539 0.28724 0.38416 0.0
C1015 C 0.10161 0.35852 0.36374 0.0
C1016 C 0.12314 0.35922 0.38567 0.0
C1017 C 0.09614 0.33453 0.34687 0.0
C1018 C 0.11107 0.3109 0.35279 0.0
Eu1019 Eu 0.16747 0.37837 0.43582 0.0
N1020 N 0.12841 0.38222 0.40297 0.0
C1021 C 0.08543 0.38164 0.36023 0.0
C1022 C 0.11147 0.40407 0.40086 0.0
C1023 C 0.09011 0.4043 0.37925 0.0
H1024 H 0.18412 0.31303 0.44335 0.0
H1025 H 0.07708 0.42194 0.37751 0.0
H1026 H 0.16382 0.47953 0.49568 0.0
H1027 H 0.07038 0.37255 0.58677 0.0
H1028 H 0.11389 0.42136 0.4158 0.0
H1029 H 0.06869 0.38186 0.34371 0.0
H1030 H 0.08305 0.38292 0.53143 0.0
H1031 H 0.1747 0.2695 0.41577 0.0
H1032 H 0.07983 0.33382 0.32978 0.0
H1033 H 0.10606 0.2924 0.34017 0.0
H1034 H 0.18353 0.50971 0.53651 0.0
H1035 H 0.1411 0.26814 0.37242 0.0
H1036 H 0.09296 0.39634 0.63107 0.0
N1037 N 0.14698 0.45225 0.52935 0.0
C1038 C 0.14211 0.44696 0.56047 0.0
C1039 C 0.17204 0.49205 0.54356 0.0
C1040 C 0.15302 0.46353 0.58454 0.0
C1041 C 0.1608 0.47503 0.52053 0.0
C1042 C 0.16848 0.48606 0.57571 0.0
N1043 N 0.11312 0.41171 0.54417 0.0
C1044 C 0.0931 0.39339 0.55052 0.0
C1045 C 0.11803 0.42077 0.60011 0.0
C1046 C 0.12476 0.42594 0.56811 0.0
C1047 C 0.09868 0.4009 0.60681 0.0
C1048 C 0.08585 0.38747 0.58187 0.0
H1049 H 0.17722 0.49928 0.5935 0.0
H1050 H 0.15605 0.46981 0.63536 0.0
H1051 H 0.12549 0.43224 0.64901 0.0
O1052 O 0.10399 0.45517 0.50573 0.0
O1053 O 0.17507 0.42319 0.50705 0.0
O1054 O 0.1968 0.38996 0.4782 0.0
O1055 O 0.09195 0.43041 0.46569 0.0
O1056 O 0.1362 0.37963 0.51381 0.0
O1057 O 0.17096 0.35952 0.48501 0.0
O1058 O 0.18725 0.36283 0.39229 0.0
O1059 O 0.13069 0.3513 0.45307 0.0
O1060 O 0.10224 0.3826 0.47671 0.0
O1061 O 0.21154 0.37681 0.43036 0.0
O1062 O 0.16551 0.42189 0.41282 0.0
O1063 O 0.14563 0.44884 0.45072 0.0
C1064 C 0.19698 0.40791 0.50209 0.0
C1065 C 0.05739 0.45332 0.49547 0.0
C1066 C 1.02504 0.45566 0.53961 0.0
C1067 C 1.00566 0.46641 0.51862 0.0
C1068 C 0.03773 0.46372 0.47498 0.0
C1069 C 1.01193 0.47007 0.48651 0.0
C1070 C 0.05073 0.44882 0.52745 0.0
C1071 C 0.15565 0.3616 0.51068 0.0
C1072 C 0.08557 0.45065 0.48443 0.0
C1073 C 0.14753 0.45755 0.61651 0.0
C1074 C 0.13014 0.43615 0.62428 0.0
C1075 C 0.1062 0.35754 0.46463 0.0
C1076 C 0.22818 0.33915 0.40084 0.0
C1077 C 0.24907 0.30347 0.36801 0.0
C1078 C 0.25734 0.2903 0.39601 0.0
C1079 C 0.23743 0.32588 0.42823 0.0
C1080 C 0.23428 0.32799 0.37077 0.0
C1081 C 0.25174 0.30155 0.42575 0.0
C1082 C 0.15706 0.44634 0.42215 0.0
C1083 C 0.21144 0.36405 0.40346 0.0
H1084 H 0.98583 0.47259 0.52697 0.0
H1085 H 0.04257 0.46767 0.45031 0.0
H1086 H 0.99693 0.47852 0.47067 0.0
H1087 H 0.06594 0.44062 0.54301 0.0
H1088 H 0.26794 0.27104 0.39508 0.0
H1089 H 0.23304 0.33393 0.45167 0.0
H1090 H 0.22762 0.33856 0.34967 0.0
H1091 H 0.25832 0.29121 0.44701 0.0
Eu1092 Eu 0.89021 0.89178 0.23965 0.0
C1093 C 0.97608 0.90526 0.13818 0.0
N1094 N 0.97378 0.92379 0.16211 0.0
C1095 C 1.02007 0.9366 0.1558 0.0
C1096 C 1.0008 0.90202 0.12178 0.0
C1097 C 0.99528 0.93891 0.17168 0.0
C1098 C 1.02278 0.91827 0.13055 0.0
C1099 C 0.95721 0.86722 0.10903 0.0
C1100 C 0.95413 0.88826 0.13163 0.0
C1101 C 0.9814 0.86486 0.09158 0.0
C1102 C 1.00309 0.88223 0.09789 0.0
Eu1103 Eu 0.93043 0.92914 0.18381 0.0
N1104 N 0.93106 0.89043 0.14963 0.0
C1105 C 0.9365 0.84817 0.10585 0.0
C1106 C 0.9124 0.87008 0.14887 0.0
C1107 C 0.91437 0.84919 0.12645 0.0
H1108 H 0.99297 0.95316 0.19109 0.0
H1109 H 0.89916 0.83346 0.12564 0.0
H1110 H 0.85913 0.94768 0.20629 0.0
H1111 H 0.89657 0.87263 0.36678 0.0
H1112 H 0.8967 0.86887 0.16633 0.0
H1113 H 0.93816 0.83167 0.08886 0.0
H1114 H 0.91222 0.87163 0.31101 0.0
H1115 H 0.03704 0.94895 0.16298 0.0
H1116 H 0.98389 0.849 0.07391 0.0
H1117 H 1.02187 0.87959 0.08485 0.0
H1118 H 0.81878 0.97561 0.21662 0.0
H1119 H 0.04208 0.91642 0.11843 0.0
H1120 H 0.85332 0.89526 0.38073 0.0
N1121 N 0.85534 0.92458 0.24864 0.0
C1122 C 0.84311 0.92311 0.27767 0.0
C1123 C 0.82506 0.96052 0.23373 0.0
C1124 C 0.8207 0.93975 0.28531 0.0
C1125 C 0.84755 0.94402 0.22747 0.0
C1126 C 0.81117 0.95794 0.26246 0.0
N1127 N 0.87847 0.89397 0.29387 0.0
C1128 C 0.89355 0.88197 0.317 0.0
C1129 C 0.84539 0.90827 0.33256 0.0
C1130 C 0.85529 0.90754 0.30112 0.0
C1131 C 0.86017 0.89504 0.35626 0.0
C1132 C 0.88464 0.88233 0.34852 0.0
H1133 H 0.79405 0.9711 0.26744 0.0
H1134 H 0.79211 0.95129 0.32217 0.0
H1135 H 0.81377 0.92375 0.36355 0.0
O1136 O 0.89044 0.85118 0.26023 0.0
O1137 O 0.8974 0.93346 0.26563 0.0
O1138 O 0.917 0.95895 0.22614 0.0
O1139 O 0.85549 0.86463 0.23443 0.0
O1140 O 0.93166 0.89799 0.26149 0.0
O1141 O 0.95217 0.93108 0.23081 0.0
O1142 O 0.94295 0.95102 0.1406 0.0
O1143 O 0.95854 0.8923 0.19918 0.0
O1144 O 0.92716 0.86403 0.22178 0.0
O1145 O 0.92864 0.97336 0.18078 0.0
O1146 O 0.88777 0.92464 0.15991 0.0
O1147 O 0.86446 0.89614 0.19264 0.0
C1148 C 0.90654 0.95734 0.25557 0.0
C1149 C 0.848 0.83388 0.27713 0.0
C1150 C 0.84287 0.80917 0.32683 0.0
C1151 C 0.81487 0.8079 0.32209 0.0
C1152 C 0.81985 0.83258 0.27272 0.0
C1153 C 0.80342 0.81971 0.29517 0.0
C1154 C 0.85932 0.82209 0.30439 0.0
C1155 C 0.95057 0.91636 0.25682 0.0
C1156 C 0.86565 0.84585 0.25248 0.0
C1157 C 0.80954 0.93891 0.31602 0.0
C1158 C 0.82189 0.92325 0.33962 0.0
C1159 C 0.95234 0.8678 0.21058 0.0
C1160 C 0.96331 0.99376 0.15003 0.0
C1161 C 0.99739 1.0157 0.11669 0.0
C1162 C 1.00698 1.02965 0.14352 0.0
C1163 C 0.97322 1.00804 0.1765 0.0
C1164 C 0.97556 0.99766 0.12019 0.0
C1165 C 0.99497 1.02577 0.17319 0.0
C1166 C 0.86559 0.91036 0.16581 0.0
C1167 C 0.94031 0.97481 0.15324 0.0
H1168 H 0.80195 0.79791 0.33925 0.0
H1169 H 0.81057 0.8412 0.25178 0.0
H1170 H 0.78178 0.81872 0.29155 0.0
H1171 H 0.88101 0.82246 0.30806 0.0
H1172 H 1.02395 0.04341 0.1416 0.0
H1173 H 0.96434 1.00541 0.19985 0.0
H1174 H 0.96784 0.98694 0.09963 0.0
H1175 H 1.00256 1.03655 0.19371 0.0
Eu1176 Eu 0.38135 0.69066 0.93958 0.0
C1177 C 0.41839 0.58384 0.9636 0.0
N1178 N 0.40151 0.60415 0.97385 0.0
C1179 C 0.36335 0.57456 0.96738 0.0
C1180 C 0.40824 0.55792 0.95574 0.0
C1181 C 0.37419 0.59994 0.97484 0.0
C1182 C 0.38044 0.55336 0.95823 0.0
C1183 C 0.46331 0.56937 0.94632 0.0
C1184 C 0.44567 0.58954 0.95835 0.0
C1185 C 0.45336 0.54329 0.93993 0.0
C1186 C 0.42591 0.53762 0.94451 0.0
Eu1187 Eu 0.42411 0.64544 0.98743 0.0
N1188 N 0.45469 0.61523 0.9634 0.0
C1189 C 0.49034 0.5762 0.94037 0.0
C1190 C 0.48091 0.62211 0.95765 0.0
C1191 C 0.49915 0.6027 0.946 0.0
H1192 H 0.36025 0.61598 0.98023 0.0
H1193 H 0.52 0.60814 0.94147 0.0
H1194 H 0.39446 0.757 0.93979 0.0
H1195 H 0.28391 0.63835 0.93123 0.0
H1196 H 0.48776 0.64252 0.96245 0.0
H1197 H 0.50448 0.56125 0.93114 0.0
H1198 H 0.33358 0.64197 0.92991 0.0
H1199 H 0.34169 0.57147 0.9683 0.0
H1200 H 0.46661 0.52755 0.93067 0.0
H1201 H 0.41841 0.51759 0.93864 0.0
H1202 H 0.36952 0.80046 0.94525 0.0
H1203 H 0.37187 0.53381 0.95217 0.0
H1204 H 0.25579 0.67927 0.94053 0.0
N1205 N 0.35908 0.73285 0.94309 0.0
C1206 C 0.33168 0.73229 0.94522 0.0
C1207 C 0.35866 0.78143 0.94545 0.0
C1208 C 0.31662 0.75653 0.94821 0.0
C1209 C 0.37271 0.75686 0.94245 0.0
C1210 C 0.3305 0.78126 0.94863 0.0
N1211 N 0.33377 0.68459 0.93866 0.0
C1212 C 0.32162 0.66006 0.93362 0.0
C1213 C 0.29013 0.70628 0.94368 0.0
C1214 C 0.31861 0.70747 0.94278 0.0
C1215 C 0.27762 0.68104 0.93988 0.0
C1216 C 0.29343 0.65789 0.93455 0.0
H1217 H 0.31965 0.80034 0.95083 0.0
H1218 H 0.27635 0.77374 0.95254 0.0
H1219 H 0.25317 0.72973 0.94878 0.0
O1220 O 0.36466 0.706 0.89555 0.0
O1221 O 0.39572 0.71532 0.98181 0.0
O1222 O 0.40775 0.68079 0.0157 0.0
O1223 O 0.40563 0.68997 0.8958 0.0
O1224 O 0.35439 0.6763 0.98254 0.0
O1225 O 0.38124 0.64866 1.01363 0.0
O1226 O 0.45935 0.64949 0.01831 0.0
O1227 O 0.42602 0.63752 0.93219 0.0
O1228 O 0.38228 0.64488 0.92316 0.0
O1229 O 0.43022 0.6179 0.02739 0.0
O1230 O 0.45177 0.68304 0.97387 0.0
O1231 O 0.4235 0.71302 0.94775 0.0
C1232 C 0.40102 0.70611 1.01033 0.0
C1233 C 0.39523 0.72702 0.86062 0.0
C1234 C 0.38207 0.76484 0.82616 0.0
C1235 C 0.40937 0.77246 0.82394 0.0
C1236 C 0.42236 0.73515 0.85823 0.0
C1237 C 0.42931 0.75774 0.83997 0.0
C1238 C 0.37522 0.74202 0.84448 0.0
C1239 C 0.35749 0.66137 1.00861 0.0
C1240 C 0.38713 0.70315 0.87968 0.0
C1241 C 0.28827 0.75535 0.95 0.0
C1242 C 0.27507 0.73028 0.94781 0.0
C1243 C 0.40445 0.63128 0.91509 0.0
C1244 C 0.47523 0.61058 0.04528 0.0
C1245 C 0.51456 0.60311 0.0788 0.0
C1246 C 0.51842 0.57752 0.06469 0.0
C1247 C 0.47862 0.58449 0.03231 0.0
C1248 C 0.49312 0.61964 0.06867 0.0
C1249 C 0.50039 0.56824 0.04165 0.0
C1250 C 0.44788 0.70725 0.96009 0.0
C1251 C 0.45303 0.62874 0.03581 0.0
H1252 H 0.41525 0.79004 0.81019 0.0
H1253 H 0.43818 0.72415 0.87046 0.0
H1254 H 0.45025 0.76394 0.83831 0.0
H1255 H 0.35425 0.73577 0.84595 0.0
H1256 H 0.53486 0.56444 0.07217 0.0
H1257 H 0.46441 0.57652 0.01535 0.0
H1258 H 0.49026 0.63959 0.07919 0.0
H1259 H 0.50305 0.54824 0.03136 0.0
Eu1260 Eu 0.66823 0.18791 0.75061 0.0
C1261 C 0.58253 0.17314 0.64932 0.0
N1262 N 0.58262 0.15698 0.67542 0.0
C1263 C 0.53515 0.14901 0.67013 0.0
C1264 C 0.55845 0.1776 0.63229 0.0
C1265 C 0.55944 0.14545 0.68653 0.0
C1266 C 0.53473 0.16482 0.64263 0.0
C1267 C 0.60544 0.20688 0.61726 0.0
C1268 C 0.60598 0.18746 0.64181 0.0
C1269 C 0.58193 0.21017 0.59901 0.0
C1270 C 0.55853 0.19551 0.60645 0.0
Eu1271 Eu 0.62547 0.147 0.69615 0.0
N1272 N 0.62829 0.18436 0.66053 0.0
C1273 C 0.62811 0.22334 0.6127 0.0
C1274 C 0.64953 0.20174 0.65749 0.0
C1275 C 0.64998 0.22114 0.63334 0.0
H1276 H 0.55997 0.13285 0.7075 0.0
H1277 H 0.66715 0.23455 0.63084 0.0
H1278 H 0.7258 0.15114 0.74947 0.0
H1279 H 0.62362 0.24549 0.84916 0.0
H1280 H 0.66603 0.20115 0.6737 0.0
H1281 H 0.62846 0.23856 0.59418 0.0
H1282 H 0.63084 0.23258 0.79302 0.0
H1283 H 0.51684 0.13941 0.67856 0.0
H1284 H 0.58133 0.22474 0.5798 0.0
H1285 H 0.54029 0.19898 0.59284 0.0
H1286 H 0.75777 0.13093 0.78784 0.0
H1287 H 0.51584 0.16767 0.6301 0.0
H1288 H 0.65058 0.22354 0.89127 0.0
N1289 N 0.70053 0.16847 0.78521 0.0
C1290 C 0.69692 0.17349 0.81674 0.0
C1291 C 0.74067 0.14275 0.79626 0.0
C1292 C 0.7147 0.16246 0.83942 0.0
C1293 C 0.72261 0.15426 0.7746 0.0
C1294 C 0.73651 0.14657 0.82881 0.0
N1295 N 0.66064 0.20269 0.80347 0.0
C1296 C 0.64239 0.22255 0.81131 0.0
C1297 C 0.67305 0.19801 0.85843 0.0
C1298 C 0.67629 0.19102 0.82613 0.0
C1299 C 0.65357 0.21752 0.86674 0.0
C1300 C 0.63834 0.23 0.84303 0.0
H1301 H 0.75059 0.13769 0.8455 0.0
H1302 H 0.72393 0.15974 0.88957 0.0
H1303 H 0.6875 0.19093 0.90621 0.0
O1304 O 0.69924 0.21543 0.76734 0.0
O1305 O 0.66935 0.14239 0.76892 0.0
O1306 O 0.64197 0.11757 0.73586 0.0
O1307 O 0.67905 0.22422 0.72305 0.0
O1308 O 0.62593 0.18368 0.76959 0.0
O1309 O 0.61013 0.14428 0.74702 0.0
O1310 O 0.60678 0.10716 0.69532 0.0
O1311 O 0.59935 0.1859 0.70937 0.0
O1312 O 0.62927 0.21422 0.73521 0.0
O1313 O 0.6233 0.12272 0.65209 0.0
O1314 O 0.66921 0.14699 0.6738 0.0
O1315 O 0.69514 0.17238 0.70778 0.0
C1316 C 0.65755 0.11888 0.76162 0.0
C1317 C 0.69473 0.26175 0.75416 0.0
C1318 C 0.69332 0.29682 0.79584 0.0
C1319 C 0.69917 0.31636 0.77236 0.0
C1320 C 0.69989 0.28173 0.73142 0.0
C1321 C 0.70203 0.30888 0.7405 0.0
C1322 C 0.69111 0.26946 0.7862 0.0
C1323 C 0.61056 0.16218 0.77023 0.0
C1324 C 0.69589 0.23287 0.74463 0.0
C1325 C 0.71065 0.16828 0.87177 0.0
C1326 C 0.68989 0.18603 0.88125 0.0
C1327 C 0.60505 0.21042 0.72123 0.0
C1328 C 0.58401 0.09447 0.64857 0.0
C1329 C 0.55604 0.09012 0.6013 0.0
C1330 C 0.53578 0.07776 0.61955 0.0
C1331 C 0.56369 0.0812 0.66617 0.0
C1332 C 0.58018 0.09857 0.61577 0.0
C1333 C 0.53966 0.07326 0.6518 0.0
C1334 C 0.69292 0.15815 0.68095 0.0
C1335 C 0.60886 0.10368 0.66493 0.0
H1336 H 0.70215 0.33749 0.77842 0.0
H1337 H 0.70297 0.27625 0.70672 0.0
H1338 H 0.70652 0.32415 0.72285 0.0
H1339 H 0.68695 0.254 0.80359 0.0
H1340 H 0.51716 0.07105 0.6086 0.0
H1341 H 0.56616 0.07727 0.69129 0.0
H1342 H 0.59579 0.1081 0.60157 0.0
H1343 H 0.52408 0.06339 0.66567 0.0
C1344 C 0.51643 0.23877 0.04185 0.0
C1345 C 0.49421 0.23869 0.0636 0.0
C1346 C 0.53747 0.25946 0.04139 0.0
C1347 C 0.53779 0.28204 0.0632 0.0
C1348 C 0.51545 0.28202 0.08522 0.0
C1349 C 0.49467 0.26112 0.0851 0.0
C1350 C 0.55973 0.25703 0.01703 0.0
C1351 C 0.51332 0.30447 0.10945 0.0
C1352 C 0.60629 0.32364 0.08129 0.0
C1353 C 0.60479 0.34821 0.06349 0.0
C1354 C 0.58546 0.30282 0.08144 0.0
C1355 C 0.56104 0.30503 0.06318 0.0
C1356 C 0.5594 0.32973 0.04503 0.0
C1357 C 0.58055 0.35034 0.04541 0.0
C1358 C 0.58981 0.278 0.1016 0.0
C1359 C 0.53487 0.33455 0.02474 0.0
H1360 H 0.51754 0.22237 0.02471 0.0
H1361 H 0.47841 0.26258 0.10227 0.0
H1362 H 0.56016 0.27552 1.00204 0.0
H1363 H 0.57959 0.2556 0.02909 0.0
H1364 H 0.55725 0.23899 1.00144 0.0
H1365 H 0.49545 0.30214 0.12528 0.0
H1366 H 0.53185 0.30487 0.12423 0.0
H1367 H 0.51191 0.32435 0.09725 0.0
H1368 H 0.62417 0.32041 0.09551 0.0
H1369 H 0.57795 0.3684 0.03113 0.0
H1370 H 0.58961 0.25955 0.08642 0.0
H1371 H 0.57301 0.27605 0.11899 0.0
H1372 H 0.60925 0.27867 0.1147 0.0
H1373 H 0.53282 0.31782 1.00722 0.0
H1374 H 0.53588 0.35413 1.0118 0.0
H1375 H 0.51638 0.33448 0.03979 0.0
C1376 C 0.60191 0.76094 0.28626 0.0
C1377 C 0.60059 0.7376 0.30613 0.0
C1378 C 0.5811 0.78195 0.28533 0.0
C1379 C 0.55722 0.7812 0.30502 0.0
C1380 C 0.55594 0.7578 0.32527 0.0
C1381 C 0.57679 0.7369 0.32533 0.0
C1382 C 0.5849 0.80534 0.26285 0.0
C1383 C 0.53226 0.75477 0.34758 0.0
C1384 C 0.51501 0.84941 0.32424 0.0
C1385 C 0.49126 0.84849 0.3052 0.0
C1386 C 0.53572 0.8284 0.32453 0.0
C1387 C 0.5343 0.80455 0.3049 0.0
C1388 C 0.51041 0.80348 0.28545 0.0
C1389 C 0.48976 0.8247 0.28595 0.0
C1390 C 0.55945 0.83187 0.34646 0.0
C1391 C 0.5066 0.77964 0.26349 0.0
H1392 H 0.61945 0.7629 0.27095 0.0
H1393 H 0.57432 0.71975 0.34099 0.0
H1394 H 0.56642 0.80832 0.24838 0.0
H1395 H 0.58817 0.82427 0.27662 0.0
H1396 H 0.60245 0.80221 0.2467 0.0
H1397 H 0.53412 0.73654 0.36289 0.0
H1398 H 0.53049 0.77302 0.36299 0.0
H1399 H 0.51327 0.75326 0.33378 0.0
H1400 H 0.5176 0.86691 0.33947 0.0
H1401 H 0.47226 0.82258 0.27076 0.0
H1402 H 0.57839 0.83318 0.33235 0.0
H1403 H 0.56131 0.8139 0.36215 0.0
H1404 H 0.55759 0.85037 0.36147 0.0
H1405 H 0.52417 0.77794 0.2471 0.0
H1406 H 0.48781 0.78138 0.24926 0.0
H1407 H 0.50577 0.7606 0.27745 0.0
C1408 C 0.07655 0.85384 0.54947 0.0
C1409 C 0.10049 0.85176 0.56815 0.0
C1410 C 0.05524 0.83339 0.54882 0.0
C1411 C 0.05609 0.80909 0.56776 0.0
C1412 C 0.08005 0.80705 0.58692 0.0
C1413 C 0.10133 0.82749 0.58658 0.0
C1414 C 1.03155 0.83781 0.52708 0.0
C1415 C 0.08331 0.78291 0.60841 0.0
C1416 C 0.98761 0.76699 0.58639 0.0
C1417 C 0.98855 0.74324 0.56692 0.0
C1418 C 1.00875 0.78757 0.58721 0.0
C1419 C 1.03258 0.78626 0.56743 0.0
C1420 C 1.03346 0.76251 0.54741 0.0
C1421 C 1.01238 0.74185 0.5477 0.0
C1422 C 1.00548 0.81101 0.60994 0.0
C1423 C 0.05698 0.75887 0.52494 0.0
H1424 H 0.07448 0.8716 0.53457 0.0
H1425 H 0.11893 0.82435 0.60138 0.0
H1426 H 1.02928 0.82007 0.511 0.0
H1427 H 1.01267 0.83951 0.54127 0.0
H1428 H 1.03378 0.85643 0.5125 0.0
H1429 H 0.10149 0.78454 0.62369 0.0
H1430 H 0.06516 0.78077 0.6238 0.0
H1431 H 0.08503 0.76412 0.59395 0.0
H1432 H 0.97015 0.76953 0.60171 0.0
H1433 H 1.01453 0.72445 0.5321 0.0
H1434 H 1.0032 0.83016 0.59643 0.0
H1435 H 1.02386 0.813 0.62482 0.0
H1436 H 0.9876 0.80861 0.62575 0.0
H1437 H 0.05929 0.77723 0.50998 0.0
H1438 H 0.05453 0.7409 0.50923 0.0
H1439 H 0.07594 0.75643 0.53864 0.0
C1440 C 1.01709 0.34642 0.82747 0.0
C1441 C 0.99311 0.34521 0.80893 0.0
C1442 C 0.03752 0.32519 0.82813 0.0
C1443 C 1.03556 0.30094 0.80927 0.0
C1444 C 1.01147 0.29962 0.79026 0.0
C1445 C 0.99106 0.321 0.7905 0.0
C1446 C 0.06153 0.32885 0.8496 0.0
C1447 C 1.00716 0.27532 0.76911 0.0
C1448 C 0.10243 0.2567 0.79044 0.0
C1449 C 0.1012 0.23376 0.81089 0.0
C1450 C 0.08175 0.27777 0.78937 0.0
C1451 C 0.05823 0.27749 0.80959 0.0
C1452 C 0.05703 0.25449 0.83044 0.0
C1453 C 0.0777 0.23345 0.83056 0.0
C1454 C 0.08516 0.30061 0.76604 0.0
C1455 C 1.03365 0.25204 0.85329 0.0
H1456 H 1.02007 0.36427 0.84201 0.0
H1457 H 0.97332 0.31869 0.77574 0.0
H1458 H 0.06344 0.31115 0.86568 0.0
H1459 H 0.08033 0.32977 0.83517 0.0
H1460 H 0.05998 0.34762 0.86419 0.0
H1461 H 0.98821 0.27692 0.75515 0.0
H1462 H 1.0245 0.27307 0.75246 0.0
H1463 H 1.00633 0.2566 0.78365 0.0
H1464 H 0.11973 0.25824 0.7747 0.0
H1465 H 0.07537 0.21656 0.84667 0.0
H1466 H 0.08675 0.32018 0.77899 0.0
H1467 H 0.06709 0.30196 0.75057 0.0
H1468 H 0.10342 0.29797 0.75087 0.0
H1469 H 1.03213 0.27063 0.86815 0.0
H1470 H 1.03569 0.23415 0.86912 0.0
H1471 H 1.01447 0.25026 0.8399 0.0
C1472 C 0.58367 0.81412 0.94495 0.0
C1473 C 0.58232 0.8384 0.96343 0.0
C1474 C 0.56246 0.79377 0.94386 0.0
C1475 C 0.53803 0.79589 0.96237 0.0
C1476 C 0.53659 0.82024 0.9814 0.0
C1477 C 0.55789 0.84067 0.98141 0.0
C1478 C 0.56633 0.76966 0.9222 0.0
C1479 C 0.51225 0.8248 1.00238 0.0
C1480 C 0.47058 0.75356 0.94111 0.0
C1481 C 0.47118 0.72978 0.96034 0.0
C1482 C 0.49153 0.77431 0.94126 0.0
C1483 C 0.51468 0.77307 0.96183 0.0
C1484 C 0.51518 0.7493 0.9816 0.0
C1485 C 0.49432 0.7285 0.98038 0.0
C1486 C 0.48881 0.79783 0.91875 0.0
C1487 C 0.53801 0.74581 1.0048 0.0
H1488 H 0.60164 0.81085 0.93077 0.0
H1489 H 0.55533 0.8586 0.99609 0.0
H1490 H 0.56805 0.7509 0.93654 0.0
H1491 H 0.54846 0.76733 0.90657 0.0
H1492 H 0.58473 0.77151 0.90713 0.0
H1493 H 0.51417 0.84335 0.01726 0.0
H1494 H 0.49386 0.82676 0.98757 0.0
H1495 H 0.50928 0.80702 0.01814 0.0
H1496 H 0.45355 0.756 0.92525 0.0
H1497 H 0.49608 0.71111 0.99592 0.0
H1498 H 0.50765 0.80007 0.90456 0.0
H1499 H 0.48591 0.8169 0.93243 0.0
H1500 H 0.47149 0.79536 0.90229 0.0
H1501 H 0.55745 0.74383 0.99174 0.0
H1502 H 0.53534 0.72766 0.02006 0.0
H1503 H 0.5395 0.76408 0.0202 0.0
C1504 C 0.49679 0.34453 0.69611 0.0
C1505 C 0.47309 0.34438 0.71551 0.0
C1506 C 0.51755 0.32355 0.69671 0.0
C1507 C 0.51634 0.30076 0.71789 0.0
C1508 C 0.49259 0.30061 0.7378 0.0
C1509 C 0.47178 0.32158 0.73619 0.0
C1510 C 0.54106 0.32586 0.67405 0.0
C1511 C 0.48915 0.27806 0.76151 0.0
C1512 C 0.55853 0.23187 0.70212 0.0
C1513 C 0.58254 0.23381 0.72059 0.0
C1514 C 0.5378 0.25284 0.70077 0.0
C1515 C 0.53932 0.27751 0.71897 0.0
C1516 C 0.56335 0.2795 0.73802 0.0
C1517 C 0.58415 0.25845 0.73831 0.0
C1518 C 0.51397 0.24843 0.67923 0.0
C1519 C 0.56715 0.30417 0.75869 0.0
H1520 H 0.4992 0.36127 0.67976 0.0
H1521 H 0.45438 0.32019 0.75182 0.0
H1522 H 0.56007 0.32844 0.6876 0.0
H1523 H 0.54313 0.3069 0.65991 0.0
H1524 H 0.5388 0.34327 0.65754 0.0
H1525 H 0.47082 0.28084 0.77653 0.0
H1526 H 0.48766 0.25832 0.74889 0.0
H1527 H 0.50716 0.27695 0.7771 0.0
H1528 H 0.55583 0.21368 0.68809 0.0
H1529 H 0.6018 0.26134 0.75305 0.0
H1530 H 0.5117 0.26595 0.66293 0.0
H1531 H 0.49516 0.24717 0.69358 0.0
H1532 H 0.51602 0.22957 0.66487 0.0
H1533 H 0.56872 0.32254 0.74365 0.0
H1534 H 0.58558 0.30268 0.77359 0.0
H1535 H 0.54928 0.30698 0.77443 0.0
C1536 C 0.99441 0.22542 0.48323 0.0
C1537 C 0.97152 0.22639 0.46276 0.0
C1538 C 1.01534 0.24618 0.48425 0.0
C1539 C 1.01526 0.2695 0.46372 0.0
C1540 C 0.99239 0.27038 0.44271 0.0
C1541 C 0.9713 0.2498 0.44289 0.0
C1542 C 0.03773 0.24318 0.50812 0.0
C1543 C 0.99021 0.29329 0.41926 0.0
C1544 C 0.05772 0.33793 0.4815 0.0
C1545 C 0.0827 0.33516 0.46469 0.0
C1546 C 0.0366 0.31732 0.48186 0.0
C1547 C 0.03863 0.29234 0.46408 0.0
C1548 C 0.06359 0.28969 0.44666 0.0
C1549 C 0.08475 0.31013 0.4477 0.0
C1550 C 1.0118 0.32238 0.50194 0.0
C1551 C 0.06814 0.26492 0.42625 0.0
H1552 H 0.99586 0.20836 0.49929 0.0
H1553 H 0.95445 0.25205 0.42676 0.0
H1554 H 0.05724 0.2399 0.49558 0.0
H1555 H 0.03964 0.26211 0.5223 0.0
H1556 H 1.03427 0.22591 0.52452 0.0
H1557 H 0.97286 0.29072 0.40287 0.0
H1558 H 0.98772 0.31281 0.43213 0.0
H1559 H 1.00912 0.29466 0.40505 0.0
H1560 H 0.05459 0.35639 0.49505 0.0
H1561 H 0.10322 0.30636 0.43459 0.0
H1562 H 1.00767 0.30451 0.51718 0.0
H1563 H 0.994 0.3253 0.48639 0.0
H1564 H 1.01394 0.34061 0.5173 0.0
H1565 H 0.07076 0.24685 0.44159 0.0
H1566 H 0.08634 0.26688 0.41086 0.0
H1567 H 0.05026 0.26125 0.411 0.0
C1568 C 0.08262 0.75438 0.23668 0.0
C1569 C 0.08095 0.73008 0.2183 0.0
C1570 C 0.06253 0.77612 0.23587 0.0
C1571 C 0.03916 0.7753 0.21559 0.0
C1572 C 0.03763 0.75099 0.19665 0.0
C1573 C 0.05764 0.7293 0.1985 0.0
C1574 C 0.06647 0.80029 0.2573 0.0
C1575 C 1.0146 0.74781 0.17367 0.0
C1576 C 0.97197 0.82048 0.23106 0.0
C1577 C 0.97448 0.844 0.21162 0.0
C1578 C 0.99227 0.79902 0.23285 0.0
C1579 C 1.01676 0.79922 0.21424 0.0
C1580 C 1.01921 0.82273 0.19421 0.0
C1581 C 0.99894 0.84428 0.19354 0.0
C1582 C 0.98747 0.77586 0.25541 0.0
C1583 C 0.04356 0.82521 0.17284 0.0
H1584 H 0.09985 0.7565 0.25229 0.0
H1585 H 0.05497 0.7115 0.18379 0.0
H1586 H 0.06985 0.8187 0.24275 0.0
H1587 H 0.04795 0.80387 0.27175 0.0
H1588 H 0.08397 0.79765 0.27348 0.0
H1589 H 1.01683 0.72937 0.15861 0.0
H1590 H 0.99522 0.74652 0.18693 0.0
H1591 H 1.01334 0.76588 0.15804 0.0
H1592 H 0.95396 0.81892 0.24569 0.0
H1593 H 1.00229 0.86152 0.17815 0.0
H1594 H 1.00495 0.77374 0.27168 0.0
H1595 H 0.98578 0.75659 0.2419 0.0
H1596 H 0.96878 0.77873 0.26979 0.0
H1597 H 0.06199 0.82778 0.18744 0.0
H1598 H 0.04189 0.84272 0.15639 0.0
H1599 H 0.04625 0.80635 0.15865 0.0
C1600 C 0.23663 0.15199 0.90877 0.0
C1601 C 0.2376 0.16518 0.87873 0.0
C1602 C 0.25837 0.15273 0.93174 0.0
C1603 C 0.2829 0.16748 0.92627 0.0
C1604 C 0.28396 0.18102 0.89609 0.0
C1605 C 0.26205 0.1796 0.87326 0.0
C1606 C 0.25496 0.13734 0.96234 0.0
C1607 C 0.30849 0.19756 0.88784 0.0
C1608 C 0.33 0.18823 1.0 0.0
C1609 C 0.35193 0.16942 0.99962 0.0
C1610 C 0.3083 0.18808 0.97683 0.0
C1611 C 0.30699 0.16842 0.95156 0.0
C1612 C 0.32901 0.14935 0.95122 0.0
C1613 C 0.3506 0.15021 0.97435 0.0
C1614 C 0.28664 0.20955 0.97927 0.0
C1615 C 0.32986 0.12756 0.92606 0.0
H1616 H 0.21852 0.14069 0.91456 0.0
H1617 H 0.26405 0.19035 0.85098 0.0
H1618 H 0.27179 0.12257 0.96508 0.0
H1619 H 0.25592 0.1516 0.98275 0.0
H1620 H 0.23548 0.12623 0.96343 0.0
H1621 H 0.30684 0.20729 0.86417 0.0
H1622 H 0.31142 0.21361 0.90603 0.0
H1623 H 0.32675 0.18441 0.88805 0.0
H1624 H 0.32985 0.2036 0.01844 0.0
H1625 H 0.36676 0.13539 0.97248 0.0
H1626 H 0.26652 0.19989 0.98181 0.0
H1627 H 0.28626 0.22168 0.95711 0.0
H1628 H 0.28984 0.22347 0.9997 0.0
H1629 H 0.31104 0.11538 0.92706 0.0
H1630 H 0.3475 0.11374 0.92878 0.0
H1631 H 0.33083 0.13699 0.9022 0.0
C1632 C 0.66109 0.47644 0.16105 0.0
C1633 C 0.67799 0.47565 0.13368 0.0
C1634 C 0.65978 0.49929 0.18295 0.0
C1635 C 0.67705 0.52272 0.17996 0.0
C1636 C 0.69459 0.52158 0.15252 0.0
C1637 C 0.69421 0.49919 0.13003 0.0
C1638 C 0.63885 0.49798 0.20898 0.0
C1639 C 0.71451 0.54402 0.14622 0.0
C1640 C 0.66924 0.59788 0.21702 0.0
C1641 C 0.67618 0.59586 0.24964 0.0
C1642 C 0.66839 0.57497 0.19533 0.0
C1643 C 0.67652 0.54799 0.20441 0.0
C1644 C 0.68428 0.54601 0.23735 0.0
C1645 C 0.68319 0.56906 0.25907 0.0
C1646 C 0.65758 0.5804 0.16262 0.0
C1647 C 0.6943 0.51944 0.25053 0.0
H1648 H 0.64781 0.45931 0.165 0.0
H1649 H 0.70749 0.5 0.10951 0.0
H1650 H 0.64649 0.48473 0.22824 0.0
H1651 H 0.63385 0.51823 0.21903 0.0
H1652 H 0.61994 0.48866 0.19996 0.0
H1653 H 0.73356 0.53568 0.13598 0.0
H1654 H 0.70584 0.55807 0.12839 0.0
H1655 H 0.71954 0.5557 0.16795 0.0
H1656 H 0.66332 0.6177 0.20828 0.0
H1657 H 0.68876 0.56603 0.28366 0.0
H1658 H 0.65188 0.5617 0.14958 0.0
H1659 H 0.67291 0.5917 0.14867 0.0
H1660 H 0.63945 0.59358 0.16457 0.0
H1661 H 0.6775 0.5094 0.26344 0.0
H1662 H 0.71074 0.52295 0.26795 0.0
H1663 H 0.70197 0.5055 0.23179 0.0
C1664 C 0.33379 0.90661 0.36969 0.0
C1665 C 0.35809 0.92153 0.37437 0.0
C1666 C 0.31157 0.90598 0.39239 0.0
C1667 C 0.31202 0.92103 0.42166 0.0
C1668 C 0.33636 0.93637 0.42637 0.0
C1669 C 0.35853 0.9362 0.40356 0.0
C1670 C 0.28738 0.8886 0.38501 0.0
C1671 C 0.33908 0.95341 0.45591 0.0
C1672 C 0.24254 0.93765 0.4681 0.0
C1673 C 0.24167 0.91946 0.49428 0.0
C1674 C 0.26468 0.93858 0.44529 0.0
C1675 C 0.28761 0.92058 0.44691 0.0
C1676 C 0.28668 0.90202 0.47313 0.0
C1677 C 0.26454 0.90185 0.49587 0.0
C1678 C 0.26351 0.95931 0.41914 0.0
C1679 C 0.30923 0.8817 0.47713 0.0
H1680 H 0.33213 0.8948 0.34805 0.0
H1681 H 0.37643 0.94801 0.40871 0.0
H1682 H 0.28406 0.87381 0.40445 0.0
H1683 H 0.26896 0.90146 0.38357 0.0
H1684 H 0.28979 0.8773 0.3623 0.0
H1685 H 0.35809 0.96536 0.45607 0.0
H1686 H 0.32164 0.96759 0.45796 0.0
H1687 H 0.33871 0.94019 0.47717 0.0
H1688 H 0.22573 0.95161 0.46539 0.0
H1689 H 0.26509 0.88726 0.51503 0.0
H1690 H 0.26255 0.94889 0.39579 0.0
H1691 H 0.28218 0.97175 0.41924 0.0
H1692 H 0.2457 0.97301 0.42149 0.0
H1693 H 0.31106 0.86897 0.45543 0.0
H1694 H 0.30596 0.86824 0.49791 0.0
H1695 H 0.32874 0.89242 0.48017 0.0
C1696 C 0.93651 0.5824 0.62723 0.0
C1697 C 0.92021 0.60601 0.63153 0.0
C1698 C 0.93663 0.55957 0.64898 0.0
C1699 C 0.92007 0.55888 0.67713 0.0
C1700 C 0.9034 0.58258 0.68141 0.0
C1701 C 0.90378 0.6052 0.65937 0.0
C1702 C 0.9556 0.53636 0.64188 0.0
C1703 C 0.88467 0.58408 0.70966 0.0
C1704 C 0.90338 0.48819 0.72028 0.0
C1705 C 0.91984 0.48735 0.74791 0.0
C1706 C 0.90314 0.51058 0.69794 0.0
C1707 C 0.92006 0.53402 0.70166 0.0
C1708 C 0.93695 0.53318 0.72932 0.0
C1709 C 0.93651 0.51067 0.75154 0.0
C1710 C 0.88458 0.50892 0.66977 0.0
C1711 C 0.95638 0.55609 0.73518 0.0
H1712 H 0.9497 0.58171 0.60663 0.0
H1713 H 0.8908 0.62252 0.66413 0.0
H1714 H 0.97441 0.53939 0.65568 0.0
H1715 H 0.94675 0.51659 0.64885 0.0
H1716 H 0.96114 0.5355 0.6163 0.0
H1717 H 0.87223 0.6029 0.70982 0.0
H1718 H 0.87098 0.56626 0.70969 0.0
H1719 H 0.89659 0.58329 0.7319 0.0
H1720 H 0.8904 0.471 0.71581 0.0
H1721 H 0.94992 0.51122 0.7718 0.0
H1722 H 0.89672 0.50892 0.64754 0.0
H1723 H 0.87119 0.52705 0.66919 0.0
H1724 H 0.87185 0.49039 0.67016 0.0
H1725 H 0.9705 0.55782 0.71472 0.0
H1726 H 0.96834 0.55313 0.75716 0.0
H1727 H 0.94516 0.57558 0.73705 0.0
C1728 C 0.72379 0.92755 0.05314 0.0
C1729 C 0.72365 0.91179 0.02476 0.0
C1730 C 0.74596 0.92761 0.0756 0.0
C1731 C 0.76983 0.91129 0.07112 0.0
C1732 C 0.76971 0.8952 0.04263 0.0
C1733 C 0.74734 0.89568 0.02043 0.0
C1734 C 0.74361 0.94538 0.10464 0.0
C1735 C 0.79343 0.87685 0.03556 0.0
C1736 C 0.8398 0.92804 0.11483 0.0
C1737 C 0.84101 0.91049 0.14158 0.0
C1738 C 0.81741 0.92865 0.09266 0.0
C1739 C 0.79446 0.91106 0.09569 0.0
C1740 C 0.7956 0.89321 0.12256 0.0
C1741 C 0.8181 0.89325 0.14462 0.0
C1742 C 0.81834 0.94862 0.06568 0.0
C1743 C 0.77291 0.87342 0.12793 0.0
H1744 H 0.70619 0.94 0.05816 0.0
H1745 H 0.74842 0.88289 0.99949 0.0
H1746 H 0.74335 0.93256 0.12625 0.0
H1747 H 0.76147 0.95888 0.10632 0.0
H1748 H 0.72498 0.95807 0.10447 0.0
H1749 H 0.79093 0.86542 1.013 0.0
H1750 H 0.81226 0.88898 0.03406 0.0
H1751 H 0.79606 0.86213 0.05522 0.0
H1752 H 0.85655 0.9418 0.11115 0.0
H1753 H 0.81772 0.87931 0.16445 0.0
H1754 H 0.80017 0.96191 0.06653 0.0
H1755 H 0.81795 0.93758 0.04269 0.0
H1756 H 0.83669 0.96154 0.06637 0.0
H1757 H 0.75329 0.88438 0.1294 0.0
H1758 H 0.77564 0.86137 0.14993 0.0
H1759 H 0.77172 0.85928 0.10742 0.0
C1760 C 0.38043 0.59657 0.87598 0.0
C1761 C 0.40437 0.60669 0.89039 0.0
C1762 C 0.38006 0.57383 0.8539 0.0
C1763 C 0.40413 0.55916 0.845 0.0
C1764 C 0.42832 0.5692 0.85964 0.0
C1765 C 0.42819 0.59238 0.88102 0.0
C1766 C 0.35339 0.56541 0.83992 0.0
C1767 C 0.45481 0.55503 0.85305 0.0
C1768 C 0.39901 0.4835 0.80976 0.0
C1769 C 0.40376 0.48565 0.77645 0.0
C1770 C 0.39923 0.50638 0.83154 0.0
C1771 C 0.40396 0.53369 0.82113 0.0
C1772 C 0.40852 0.53607 0.78748 0.0
C1773 C 0.40862 0.51272 0.76622 0.0
C1774 C 0.395 0.50099 0.86639 0.0
C1775 C 0.41327 0.56378 0.77358 0.0
H1776 H 0.36151 0.60651 0.88203 0.0
H1777 H 0.44723 0.59929 0.89065 0.0
H1778 H 0.35474 0.56551 0.81361 0.0
H1779 H 0.34859 0.54435 0.84725 0.0
H1780 H 0.33653 0.57896 0.84748 0.0
H1781 H 0.47192 0.5645 0.86594 0.0
H1782 H 0.45336 0.53342 0.86023 0.0
H1783 H 0.45927 0.55536 0.82722 0.0
H1784 H 0.39539 0.46343 0.81928 0.0
H1785 H 0.4124 0.51587 0.74116 0.0
H1786 H 0.37938 0.51487 0.87636 0.0
H1787 H 0.41412 0.50504 0.87923 0.0
H1788 H 0.38885 0.4797 0.87104 0.0
H1789 H 0.39616 0.57747 0.77986 0.0
H1790 H 0.41548 0.56315 0.74734 0.0
H1791 H 0.43184 0.57271 0.78389 0.0
C1792 C 0.74086 0.17363 0.6592 0.0
C1793 C 0.71742 0.15706 0.65632 0.0
C1794 C 0.76278 0.17394 0.63614 0.0
C1795 C 0.76285 0.15699 0.60833 0.0
C1796 C 0.73941 0.14002 0.60546 0.0
C1797 C 0.71753 0.14045 0.6286 0.0
C1798 C 0.78606 0.19305 0.64149 0.0
C1799 C 0.73735 0.12099 0.57753 0.0
C1800 C 0.80833 0.17401 0.53181 0.0
C1801 C 0.832 0.15764 0.5344 0.0
C1802 C 0.7865 0.17409 0.55495 0.0
C1803 C 0.78686 0.15716 0.58265 0.0
C1804 C 0.81065 0.14049 0.58532 0.0
C1805 C 0.83236 0.14104 0.56199 0.0
C1806 C 0.76286 0.1929 0.54974 0.0
C1807 C 0.8133 0.12165 0.61322 0.0
H1808 H 0.742 0.18701 0.67959 0.0
H1809 H 0.70025 0.1274 0.62481 0.0
H1810 H 0.80521 0.18137 0.64347 0.0
H1811 H 0.78824 0.20681 0.62082 0.0
H1812 H 0.78337 0.20552 0.6633 0.0
H1813 H 0.719 0.1081 0.57872 0.0
H1814 H 0.73685 0.13281 0.55517 0.0
H1815 H 0.75549 0.10765 0.57645 0.0
H1816 H 0.80684 0.18736 0.5115 0.0
H1817 H 0.84988 0.12815 0.56552 0.0
H1818 H 0.7608 0.207 0.57023 0.0
H1819 H 0.74387 0.18105 0.54833 0.0
H1820 H 0.76505 0.20502 0.52767 0.0
H1821 H 0.81385 0.13361 0.63556 0.0
H1822 H 0.83186 0.10891 0.61179 0.0
H1823 H 0.79539 0.10816 0.61457 0.0
C1824 C 0.14359 0.49626 0.40439 0.0
C1825 C 0.15766 0.47147 0.39834 0.0
C1826 C 0.14279 0.5189 0.38237 0.0
C1827 C 0.15664 0.51843 0.35229 0.0
C1828 C 0.17108 0.49355 0.34616 0.0
C1829 C 0.17121 0.471 0.3684 0.0
C1830 C 0.12656 0.54363 0.39143 0.0
C1831 C 0.18677 0.49064 0.31561 0.0
C1832 C 0.13629 0.56817 0.28042 0.0
C1833 C 0.1548 0.59024 0.28159 0.0
C1834 C 0.13649 0.54562 0.30264 0.0
C1835 C 0.15598 0.54338 0.32776 0.0
C1836 C 0.1748 0.56554 0.32893 0.0
C1837 C 0.17384 0.58807 0.30675 0.0
C1838 C 0.11519 0.52404 0.29935 0.0
C1839 C 0.19644 0.56554 0.35398 0.0
H1840 H 0.13257 0.49798 0.42659 0.0
H1841 H 0.18224 0.45271 0.36211 0.0
H1842 H 0.13994 0.56163 0.39194 0.0
H1843 H 0.11081 0.54741 0.37328 0.0
H1844 H 0.11659 0.54156 0.41498 0.0
H1845 H 0.1979 0.47104 0.31413 0.0
H1846 H 0.17279 0.49205 0.29515 0.0
H1847 H 0.20147 0.50751 0.31337 0.0
H1848 H 0.12103 0.56857 0.26205 0.0
H1849 H 0.18847 0.60422 0.30922 0.0
H1850 H 0.10311 0.52289 0.32157 0.0
H1851 H 0.12493 0.50393 0.29575 0.0
H1852 H 0.10131 0.52802 0.27921 0.0
H1853 H 0.18697 0.56634 0.37788 0.0
H1854 H 0.21042 0.58303 0.35155 0.0
H1855 H 0.20836 0.54643 0.35254 0.0
C1856 C 0.73721 0.65078 0.40458 0.0
C1857 C 0.73714 0.66591 0.37577 0.0
C1858 C 0.75911 0.65139 0.42753 0.0
C1859 C 0.78277 0.66791 0.42338 0.0
C1860 C 0.7827 0.68337 0.39446 0.0
C1861 C 0.76072 0.68208 0.37166 0.0
C1862 C 0.75683 0.63396 0.45671 0.0
C1863 C 0.80624 0.70163 0.38734 0.0
C1864 C 0.82939 0.68729 0.49842 0.0
C1865 C 0.85259 0.67011 0.49642 0.0
C1866 C 0.80748 0.68706 0.47543 0.0
C1867 C 0.80708 0.66883 0.44866 0.0
C1868 C 0.83041 0.6514 0.44663 0.0
C1869 C 0.85226 0.65244 0.46956 0.0
C1870 C 0.78459 0.70699 0.47971 0.0
C1871 C 0.83247 0.63122 0.41979 0.0
H1872 H 0.71985 0.63809 0.40941 0.0
H1873 H 0.762 0.69431 0.35038 0.0
H1874 H 0.77458 0.62015 0.45817 0.0
H1875 H 0.75698 0.64696 0.47827 0.0
H1876 H 0.73809 0.62159 0.45685 0.0
H1877 H 0.80295 0.71413 0.36579 0.0
H1878 H 0.81003 0.71531 0.40779 0.0
H1879 H 0.82464 0.68904 0.38373 0.0
H1880 H 0.82843 0.70156 0.51801 0.0
H1881 H 0.86936 0.63892 0.46634 0.0
H1882 H 0.76514 0.69597 0.48181 0.0
H1883 H 0.78319 0.72022 0.45849 0.0
H1884 H 0.78721 0.72 0.50106 0.0
H1885 H 0.81407 0.61841 0.41915 0.0
H1886 H 0.85052 0.61784 0.42191 0.0
H1887 H 0.83365 0.64216 0.39685 0.0
C1888 C 0.16208 0.0665 0.76101 0.0
C1889 C 0.17118 0.09279 0.7521 0.0
C1890 C 0.16208 0.04323 0.73967 0.0
C1891 C 0.1706 0.04504 0.70705 0.0
C1892 C 0.17943 0.07163 0.69784 0.0
C1893 C 0.17991 0.09435 0.71987 0.0
C1894 C 0.15301 1.01622 0.75246 0.0
C1895 C 0.18804 0.07642 0.66396 0.0
C1896 C 0.19266 0.98019 0.65455 0.0
C1897 C 0.16925 0.97254 0.63717 0.0
C1898 C 0.19325 1.00263 0.67702 0.0
C1899 C 0.17012 1.01973 0.68298 0.0
C1900 C 0.14649 1.01213 0.66542 0.0
C1901 C 0.14621 0.98899 0.644 0.0
C1902 C 0.21907 1.00794 0.69478 0.0
C1903 C 0.12112 1.02895 0.66876 0.0
H1904 H 0.15518 0.06383 0.78522 0.0
H1905 H 0.18671 0.11387 0.71132 0.0
H1906 H 0.13455 1.0095 0.73983 0.0
H1907 H 0.1689 1.00065 0.74806 0.0
H1908 H 0.14854 1.01705 0.77831 0.0
H1909 H 0.1939 0.09785 0.65965 0.0
H1910 H 0.20542 0.06308 0.65782 0.0
H1911 H 0.17125 0.07105 0.64772 0.0
H1912 H 0.21092 0.96837 0.65075 0.0
H1913 H 0.12748 0.98388 0.6323 0.0
H1914 H 0.21492 1.00892 0.72068 0.0
H1915 H 0.22742 1.02788 0.68764 0.0
H1916 H 0.23461 0.99204 0.69021 0.0
H1917 H 0.11447 1.02953 0.69393 0.0
H1918 H 0.1043 1.02103 0.65405 0.0
H1919 H 0.12535 0.05017 0.66153 0.0
C1920 C 0.76705 0.40071 0.99853 0.0
C1921 C 0.74451 0.41878 0.99781 0.0
C1922 C 0.78868 0.40073 0.9751 0.0
C1923 C 0.78931 0.4195 0.94909 0.0
C1924 C 0.76664 0.4378 0.94825 0.0
C1925 C 0.7451 0.43714 0.97177 0.0
C1926 C 0.811 0.38003 0.97809 0.0
C1927 C 0.76499 0.45843 0.92201 0.0
C1928 C 0.85917 0.4356 0.90407 0.0
C1929 C 0.85849 0.42062 0.87512 0.0
C1930 C 0.83744 0.4356 0.92737 0.0
C1931 C 0.81322 0.41998 0.92328 0.0
C1932 C 0.81241 0.40481 0.89412 0.0
C1933 C 0.83436 0.40533 0.87108 0.0
C1934 C 0.84056 0.45261 0.9569 0.0
C1935 C 0.78834 0.3871 0.88733 0.0
H1936 H 0.76771 0.38592 0.0175 0.0
H1937 H 0.72843 0.45134 0.9696 0.0
H1938 H 0.81153 0.367 0.95654 0.0
H1939 H 0.83084 0.39038 0.97966 0.0
H1940 H 0.80839 0.36688 0.99925 0.0
H1941 H 0.74685 0.47168 0.92424 0.0
H1942 H 0.78335 0.47133 0.92216 0.0
H1943 H 0.76439 0.44792 0.89868 0.0
H1944 H 0.87703 0.4476 0.90879 0.0
H1945 H 0.83261 0.39316 0.84973 0.0
H1946 H 0.84014 0.43937 0.97816 0.0
H1947 H 0.82331 0.467 0.95908 0.0
H1948 H 0.85971 0.46432 0.9569 0.0
H1949 H 0.78883 0.36928 0.90336 0.0
H1950 H 0.78822 0.37966 0.86241 0.0
H1951 H 0.76919 0.39824 0.89209 0.0
C1952 C 0.44489 1.00831 0.2399 0.0
C1953 C 0.42213 0.99106 0.24416 0.0
C1954 C 0.44584 1.0304 0.21721 0.0
C1955 C 0.42324 1.03734 0.19748 0.0
C1956 C 0.40011 1.02008 0.20181 0.0
C1957 C 0.40001 0.99757 0.22404 0.0
C1958 C 0.47175 0.04614 0.21388 0.0
C1959 C 0.37493 1.02543 0.18282 0.0
C1960 C 0.41915 0.11217 0.15995 0.0
C1961 C 0.42534 0.10912 0.12709 0.0
C1962 C 0.4179 0.0897 0.18216 0.0
C1963 C 0.42384 0.06219 0.17294 0.0
C1964 C 0.43058 0.05904 0.13988 0.0
C1965 C 0.43074 0.08176 0.11792 0.0
C1966 C 0.40973 0.09555 0.21599 0.0
C1967 C 0.43811 1.03129 0.12746 0.0
H1968 H 0.46266 1.00417 0.25407 0.0
H1969 H 0.38209 0.98512 0.22587 0.0
H1970 H 0.47889 0.04526 0.18886 0.0
H1971 H 0.46814 0.0678 0.21981 0.0
H1972 H 0.488 1.0382 0.22948 0.0
H1973 H 0.35766 1.01275 0.19078 0.0
H1974 H 0.36909 0.04716 0.18471 0.0
H1975 H 0.37894 1.02101 0.1574 0.0
H1976 H 0.41467 0.13246 0.16851 0.0
H1977 H 0.43573 0.07799 0.09322 0.0
H1978 H 0.42673 0.09071 0.23213 0.0
H1979 H 0.39248 0.08241 0.22288 0.0
H1980 H 0.40381 0.11712 0.21964 0.0
H1981 H 0.45375 1.02193 0.14281 0.0
H1982 H 0.44589 1.03199 0.1027 0.0
H1983 H 0.42015 1.01789 0.12811 0.0
C1984 C 0.2227 0.42753 0.55232 0.0
C1985 C 0.22196 0.40955 0.52581 0.0
C1986 C 0.24482 0.42864 0.57486 0.0
C1987 C 0.26815 0.41126 0.57241 0.0
C1988 C 0.26742 0.39287 0.54588 0.0
C1989 C 0.24511 0.39234 0.52352 0.0
C1990 C 0.24298 0.44862 0.60191 0.0
C1991 C 0.29035 0.37302 0.54128 0.0
C1992 C 0.33842 0.42927 0.61529 0.0
C1993 C 0.33895 0.41372 0.64374 0.0
C1994 C 0.31621 0.42879 0.59278 0.0
C1995 C 0.29267 0.41217 0.59726 0.0
C1996 C 0.29311 0.39648 0.62597 0.0
C1997 C 0.31553 0.3974 0.6481 0.0
C1998 C 0.31803 0.44643 0.56373 0.0
C1999 C 0.27002 0.37766 0.63328 0.0
H2000 H 0.20561 0.44099 0.55579 0.0
H2001 H 0.24577 0.37784 0.50414 0.0
H2002 H 0.24328 0.43757 0.62483 0.0
H2003 H 0.26083 0.46221 0.60154 0.0
H2004 H 0.22432 0.46121 0.60092 0.0
H2005 H 0.28756 0.35999 0.51998 0.0
H2006 H 0.30973 0.38413 0.53889 0.0
H2007 H 0.29201 0.35983 0.5625 0.0
H2008 H 0.35564 0.44215 0.61039 0.0
H2009 H 0.31466 0.38482 0.66913 0.0
H2010 H 0.30034 0.46035 0.5629 0.0
H2011 H 0.31738 0.43359 0.54205 0.0
H2012 H 0.33684 0.45869 0.56322 0.0
H2013 H 0.2503 0.3868 0.62663 0.0
H2014 H 0.26935 0.3721 0.65881 0.0
H2015 H 0.27279 0.35877 0.61921 0.0
C2016 C 0.88221 0.09353 0.37742 0.0
C2017 C 0.90574 0.10308 0.39318 0.0
C2018 C 0.88224 0.0707 0.35553 0.0
C2019 C 0.9063 0.05543 0.34821 0.0
C2020 C 0.93008 0.06487 0.36423 0.0
C2021 C 0.92957 0.08808 0.38551 0.0
C2022 C 0.85602 0.06286 0.34 0.0
C2023 C 0.95645 0.04998 0.35941 0.0
C2024 C 0.9007 0.98019 0.31209 0.0
C2025 C 0.90648 0.98264 0.27906 0.0
C2026 C 0.9009 1.00286 0.33417 0.0
C2027 C 0.90655 1.03012 0.32425 0.0
C2028 C 0.91237 1.03271 0.29094 0.0
C2029 C 0.9125 1.0096 0.26944 0.0
C2030 C 0.89541 0.99736 0.36876 0.0
C2031 C 0.9185 0.06037 0.27767 0.0
H2032 H 0.86333 0.10402 0.38221 0.0
H2033 H 0.94829 0.09446 0.39641 0.0
H2034 H 0.85843 0.06319 0.31378 0.0
H2035 H 0.85061 0.04181 0.34675 0.0
H2036 H 0.8391 0.07662 0.34681 0.0
H2037 H 0.97362 0.06033 0.37123 0.0
H2038 H 0.95469 1.02921 0.36928 0.0
H2039 H 0.96105 0.04786 0.33371 0.0
H2040 H 0.89622 0.96012 0.3211 0.0
H2041 H 0.9172 1.01288 0.2446 0.0
H2042 H 0.87844 1.01024 0.37738 0.0
H2043 H 0.91349 1.0028 0.38292 0.0
H2044 H 0.89044 0.97573 0.37325 0.0
H2045 H 0.90137 0.07439 0.28272 0.0
H2046 H 0.92217 0.05983 0.25164 0.0
H2047 H 0.93662 0.06886 0.28948 0.0
C2048 C 0.21876 0.64208 0.12602 0.0
C2049 C 0.21843 0.65802 0.15426 0.0
C2050 C 0.24087 0.64201 0.1033 0.0
C2051 C 0.26434 0.6587 0.10719 0.0
C2052 C 0.26411 0.67498 0.13555 0.0
C2053 C 0.24191 0.67429 0.15823 0.0
C2054 C 0.239 0.62368 0.0747 0.0
C2055 C 0.28747 0.69375 0.14189 0.0
C2056 C 0.33381 0.643 0.06093 0.0
C2057 C 0.33363 0.66015 0.03384 0.0
C2058 C 0.31205 0.64223 0.08416 0.0
C2059 C 0.2885 0.65928 0.08186 0.0
C2060 C 0.28836 0.67678 0.05469 0.0
C2061 C 0.31018 0.67688 0.03164 0.0
C2062 C 0.31431 0.6227 0.11146 0.0
C2063 C 0.26495 0.69599 0.04994 0.0
H2064 H 0.20144 0.62926 0.12148 0.0
H2065 H 0.24285 0.68714 0.17911 0.0
H2066 H 0.23883 0.63604 0.05274 0.0
H2067 H 0.25704 0.61023 0.07346 0.0
H2068 H 0.22054 0.6109 0.07516 0.0
H2069 H 0.28477 0.70548 0.16426 0.0
H2070 H 0.30656 0.68192 0.14337 0.0
H2071 H 0.28975 0.7082 0.1219 0.0
H2072 H 0.35116 0.6298 0.06408 0.0
H2073 H 0.30888 0.69064 1.01171 0.0
H2074 H 0.29633 0.60929 0.11209 0.0
H2075 H 0.31467 0.63412 0.1342 0.0
H2076 H 0.33282 0.6099 0.10987 0.0
H2077 H 0.24586 0.68438 0.04789 0.0
H2078 H 0.26743 0.70866 0.02835 0.0
H2079 H 0.26288 0.70955 0.07091 0.0
C2080 C 0.6424 0.0704 0.78213 0.0
C2081 C 0.6595 0.0935 0.78489 0.0
C2082 C 0.64263 0.04775 0.80412 0.0
C2083 C 0.66087 0.04636 0.83051 0.0
C2084 C 0.67835 0.06951 0.83329 0.0
C2085 C 0.67724 0.09223 0.81138 0.0
C2086 C 0.62246 1.02528 0.79943 0.0
C2087 C 0.69857 0.07044 0.8599 0.0
C2088 C 0.64642 0.99823 0.90554 0.0
C2089 C 0.66129 0.97387 0.89998 0.0
C2090 C 0.64622 1.02117 0.88404 0.0
C2091 C 0.66137 1.02135 0.85486 0.0
C2092 C 0.67676 0.99694 0.84928 0.0
C2093 C 0.67634 0.97408 0.87107 0.0
C2094 C 0.62865 0.04512 0.8925 0.0
C2095 C 0.69407 0.99487 0.81986 0.0
H2096 H 0.628 0.0702 0.76283 0.0
H2097 H 0.69062 0.10924 0.81516 0.0
H2098 H 0.63316 1.00561 0.7964 0.0
H2099 H 0.60945 1.02357 0.82087 0.0
H2100 H 0.60936 1.02874 0.77846 0.0
H2101 H 0.71189 0.08852 0.85845 0.0
H2102 H 0.68779 0.07084 0.88305 0.0
H2103 H 0.71133 0.05185 0.8594 0.0
H2104 H 0.6342 0.99936 0.92692 0.0
H2105 H 0.6881 0.95613 0.86526 0.0
H2106 H 0.60999 0.04427 0.87801 0.0
H2107 H 0.6391 0.06447 0.88719 0.0
H2108 H 0.62267 0.04509 0.91796 0.0
H2109 H 0.68108 0.99555 0.79847 0.0
H2110 H 0.70623 0.97587 0.81919 0.0
H2111 H 0.70796 1.0125 0.81859 0.0
C2112 C 0.58413 0.14819 0.95295 0.0
C2113 C 0.55884 0.13789 0.96224 0.0
C2114 C 0.59095 0.15118 0.92073 0.0
C2115 C 0.57162 0.14492 0.89711 0.0
C2116 C 0.54603 0.13483 0.90614 0.0
C2117 C 0.54023 0.13078 0.93839 0.0
C2118 C 0.61886 0.16114 0.91198 0.0
C2119 C 0.52456 0.12872 0.88174 0.0
C2120 C 0.58494 0.17848 0.81758 0.0
C2121 C 0.59586 0.15686 0.79997 0.0
C2122 C 0.57555 0.17457 0.84872 0.0
C2123 C 0.57835 0.1487 0.86294 0.0
C2124 C 0.58872 0.12669 0.84484 0.0
C2125 C 0.59667 0.13091 0.81325 0.0
C2126 C 0.56356 0.19833 0.86667 0.0
C2127 C 0.59298 0.09908 0.85937 0.0
H2128 H 0.59865 0.1542 0.97078 0.0
H2129 H 0.52096 0.12189 0.94469 0.0
H2130 H 0.62816 0.14774 0.89367 0.0
H2131 H 0.61734 0.18175 0.90171 0.0
H2132 H 0.63255 0.16204 0.9328 0.0
H2133 H 0.50556 0.12116 0.89269 0.0
H2134 H 0.51993 0.14736 0.86803 0.0
H2135 H 0.53199 0.11328 0.86458 0.0
H2136 H 0.5843 0.1986 0.80721 0.0
H2137 H 0.60524 0.11427 0.79965 0.0
H2138 H 0.57813 0.20549 0.88477 0.0
H2139 H 0.54481 0.19219 0.87931 0.0
H2140 H 0.55877 0.2156 0.85073 0.0
H2141 H 0.60525 0.10103 0.88125 0.0
H2142 H 0.60337 0.08482 0.84281 0.0
H2143 H 0.57329 0.09016 0.86632 0.0
C2144 C 0.70107 0.80549 0.18006 0.0
C2145 C 0.67785 0.80529 0.19934 0.0
C2146 C 0.69972 0.81361 0.14815 0.0
C2147 C 0.67448 0.82123 0.13508 0.0
C2148 C 0.65087 0.82039 0.15422 0.0
C2149 C 0.65287 0.81253 0.18613 0.0
C2150 C 0.72536 0.81444 0.12859 0.0
C2151 C 0.62354 0.82829 0.14117 0.0
C2152 C 0.67014 0.87043 0.06642 0.0
C2153 C 0.66468 0.85312 0.04086 0.0
C2154 C 0.6746 0.86019 0.09688 0.0
C2155 C 0.67285 0.83187 0.10208 0.0
C2156 C 0.66802 0.81416 0.07607 0.0
C2157 C 0.66418 0.82505 0.04552 0.0
C2158 C 0.6803 0.87984 0.12362 0.0
C2159 C 0.66576 0.7839 0.0808 0.0
H2160 H 0.72043 0.79996 0.19019 0.0
H2161 H 0.6348 0.81196 0.20077 0.0
H2162 H 0.72475 0.7983 0.11019 0.0
H2163 H 0.72709 0.83415 0.1161 0.0
H2164 H 0.74373 0.81135 0.14328 0.0
H2165 H 0.62357 0.85007 0.13453 0.0
H2166 H 0.61923 0.81646 0.11932 0.0
H2167 H 0.60694 0.82488 0.15855 0.0
H2168 H 0.67047 0.89218 0.06264 0.0
H2169 H 0.65967 0.8118 0.02565 0.0
H2170 H 0.69836 0.87318 0.13712 0.0
H2171 H 0.6629 0.88025 0.14035 0.0
H2172 H 0.68377 0.90083 0.11492 0.0
H2173 H 0.68396 0.77602 0.09306 0.0
H2174 H 0.66336 0.77281 0.05798 0.0
H2175 H 0.64807 0.77945 0.09621 0.0
C2176 C 0.98074 0.94893 0.28463 0.0
C2177 C 0.96848 0.92331 0.28356 0.0
C2178 C 0.99522 0.95734 0.31139 0.0
C2179 C 0.99779 0.93958 0.33753 0.0
C2180 C 0.98583 0.91352 0.33643 0.0
C2181 C 0.97121 0.90572 0.30945 0.0
C2182 C 1.00734 0.98545 0.31189 0.0
C2183 C 0.98828 0.89401 0.36385 0.0
C2184 C 0.05674 0.95211 0.39262 0.0
C2185 C 0.04432 0.96606 0.4179 0.0
C2186 C 0.04173 0.94302 0.3666 0.0
C2187 C 1.01359 0.94813 0.36569 0.0
C2188 C 1.0008 0.96214 0.39109 0.0
C2189 C 1.01636 0.97099 0.41694 0.0
C2190 C 0.05609 0.92834 0.33982 0.0
C2191 C 0.97074 0.96775 0.39087 0.0
H2192 H 0.97831 0.96285 0.26496 0.0
H2193 H 0.96173 0.88593 0.30875 0.0
H2194 H 0.99852 0.9974 0.3318 0.0
H2195 H 1.02947 0.98413 0.31593 0.0
H2196 H 1.00375 0.99665 0.28943 0.0
H2197 H 0.97762 0.87457 0.35931 0.0
H2198 H 1.00992 0.88954 0.36849 0.0
H2199 H 0.97977 0.90336 0.38573 0.0
H2200 H 0.07842 0.94872 0.39287 0.0
H2201 H 1.00662 0.98159 0.43651 0.0
H2202 H 0.05415 0.94018 0.31757 0.0
H2203 H 0.04657 0.9083 0.33561 0.0
H2204 H 0.07793 0.92513 0.34473 0.0
H2205 H 0.96522 0.97944 0.36937 0.0
H2206 H 0.96391 0.97924 0.41218 0.0
H2207 H 0.95947 0.94834 0.38984 0.0
C2208 C 0.90827 0.24717 0.54074 0.0
C2209 C 0.89703 0.22114 0.53981 0.0
C2210 C 0.90894 0.26194 0.56944 0.0
C2211 C 0.89776 0.25042 0.5974 0.0
C2212 C 0.88475 0.22492 0.59579 0.0
C2213 C 0.88482 0.21053 0.56715 0.0
C2214 C 0.92277 0.28918 0.57022 0.0
C2215 C 0.87187 0.21215 0.6247 0.0
C2216 C 0.9246 0.26467 0.67988 0.0
C2217 C 0.90346 0.27999 0.69336 0.0
C2218 C 0.92372 0.25621 0.64805 0.0
C2219 C 0.90132 0.26354 0.629 0.0
C2220 C 0.88073 0.28036 0.64183 0.0
C2221 C 0.88191 0.28818 0.6739 0.0
C2222 C 0.94607 0.23815 0.63537 0.0
C2223 C 0.85666 0.28886 0.62225 0.0
H2224 H 0.91781 0.25528 0.51958 0.0
H2225 H 0.87588 0.19049 0.56636 0.0
H2226 H 0.91002 0.30434 0.58289 0.0
H2227 H 0.94205 0.28739 0.58345 0.0
H2228 H 0.92732 0.29682 0.54599 0.0
H2229 H 0.86055 0.19338 0.61874 0.0
H2230 H 0.88776 0.20703 0.64224 0.0
H2231 H 0.8577 0.22662 0.63631 0.0
H2232 H 0.9417 0.25883 0.69438 0.0
H2233 H 0.86533 0.29984 0.68397 0.0
H2234 H 0.95317 0.24542 0.61188 0.0
H2235 H 0.93822 0.21726 0.63204 0.0
H2236 H 0.96364 0.23724 0.65169 0.0
H2237 H 0.86318 0.29563 0.59833 0.0
H2238 H 0.84496 0.30551 0.63379 0.0
H2239 H 0.84301 0.27126 0.61898 0.0
C2240 C 0.50791 0.91071 0.08249 0.0
C2241 C 0.51637 0.93439 0.06718 0.0
C2242 C 0.50256 0.91069 0.11518 0.0
C2243 C 0.50552 0.93501 0.13286 0.0
C2244 C 0.51443 0.95891 0.11759 0.0
C2245 C 0.51982 0.95829 0.08488 0.0
C2246 C 0.49305 0.88481 0.13062 0.0
C2247 C 0.51778 0.98518 0.13569 0.0
C2248 C 0.46044 0.93847 0.20515 0.0
C2249 C 0.47807 0.93048 0.22929 0.0
C2250 C 0.4695 0.94147 0.17395 0.0
C2251 C 0.4969 0.93583 0.16663 0.0
C2252 C 0.51517 0.92888 0.19123 0.0
C2253 C 0.50546 0.92626 0.22254 0.0
C2254 C 0.44933 0.94912 0.14861 0.0
C2255 C 0.54454 0.92283 0.18419 0.0
H2256 H 0.50583 0.89209 0.06893 0.0
H2257 H 0.52647 0.97661 0.07301 0.0
H2258 H 0.49351 0.86724 0.11402 0.0
H2259 H 0.50574 0.87997 0.15152 0.0
H2260 H 0.47204 0.88768 0.13922 0.0
H2261 H 0.52579 1.00173 0.1205 0.0
H2262 H 0.49802 0.99176 0.14574 0.0
H2263 H 0.53173 0.98212 0.15594 0.0
H2264 H 0.43917 0.94131 0.21044 0.0
H2265 H 0.51888 0.91968 0.24131 0.0
H2266 H 0.44593 0.93148 0.1327 0.0
H2267 H 0.45724 0.96592 0.13382 0.0
H2268 H 0.42953 0.9555 0.15885 0.0
H2269 H 0.54616 0.90358 0.17054 0.0
H2270 H 0.55666 0.9208 0.20621 0.0
H2271 H 0.55344 0.93906 0.16928 0.0
C2272 C 0.36396 0.31435 0.87984 0.0
C2273 C 0.35407 0.29818 0.85521 0.0
C2274 C 0.37696 0.30267 0.906 0.0
C2275 C 0.37961 0.27408 0.90765 0.0
C2276 C 0.36984 0.25767 0.88253 0.0
C2277 C 0.35714 0.26998 0.85648 0.0
C2278 C 0.38733 0.32086 0.93212 0.0
C2279 C 0.37259 0.22715 0.88333 0.0
C2280 C 0.42708 0.24011 0.9664 0.0
C2281 C 0.40917 0.23371 0.99113 0.0
C2282 C 0.41801 0.25407 0.93938 0.0
C2283 C 0.3903 0.2612 0.93689 0.0
C2284 C 0.37231 0.25519 0.96207 0.0
C2285 C 0.38204 0.24189 0.98901 0.0
C2286 C 0.43793 0.26071 0.9133 0.0
C2287 C 0.34248 0.26177 0.96007 0.0
H2288 H 0.3611 0.33611 0.87883 0.0
H2289 H 0.34956 0.25762 0.83715 0.0
H2290 H 0.3754 0.31752 0.95412 0.0
H2291 H 0.40871 0.31581 0.93753 0.0
H2292 H 0.38599 0.3427 0.92576 0.0
H2293 H 0.36274 0.21726 0.86268 0.0
H2294 H 0.39429 0.22139 0.88328 0.0
H2295 H 0.3636 0.21906 0.90554 0.0
H2296 H 0.44812 0.23406 0.96806 0.0
H2297 H 0.36798 0.23688 1.00785 0.0
H2298 H 0.43654 0.28255 0.90711 0.0
H2299 H 0.43296 0.24894 0.89163 0.0
H2300 H 0.4591 0.25592 0.92013 0.0
H2301 H 0.33946 0.28368 0.9552 0.0
H2302 H 0.3314 0.25658 0.98223 0.0
H2303 H 0.33336 0.25031 0.94011 0.0
C2304 C 0.10382 0.16531 0.71746 0.0
C2305 C 0.10148 0.15691 0.74907 0.0
C2306 C 0.08168 0.16406 0.69689 0.0
C2307 C 0.0568 0.15369 0.70819 0.0
C2308 C 0.05447 0.14459 0.73989 0.0
C2309 C 0.07685 0.14637 0.75999 0.0
C2310 C 0.08487 0.17396 0.66319 0.0
C2311 C 1.02829 0.13315 0.75265 0.0
C2312 C 0.99179 0.17179 0.66596 0.0
C2313 C 0.98764 0.14854 0.64742 0.0
C2314 C 1.01449 0.17394 0.68558 0.0
C2315 C 1.03319 0.15214 0.68683 0.0
C2316 C 1.02905 0.12858 0.66822 0.0
C2317 C 1.00632 0.12711 0.6486 0.0
C2318 C 1.01845 0.19948 0.70494 0.0
C2319 C 0.04845 0.10482 0.66929 0.0
H2320 H 0.12299 0.17267 0.70868 0.0
H2321 H 0.07487 0.13986 0.78442 0.0
H2322 H 0.08046 0.15727 0.64628 0.0
H2323 H 0.07011 0.19049 0.65852 0.0
H2324 H 0.10556 0.18167 0.65827 0.0
H2325 H 1.03003 0.12653 0.77776 0.0
H2326 H 1.01202 0.14865 0.7511 0.0
H2327 H 1.02196 0.11552 0.73805 0.0
H2328 H 0.97743 0.18843 0.66481 0.0
H2329 H 1.00292 0.109 0.6345 0.0
H2330 H 0.03833 0.20866 0.69917 0.0
H2331 H 1.0186 0.1945 0.73061 0.0
H2332 H 1.00234 0.2148 0.70064 0.0
H2333 H 0.06913 0.11153 0.66276 0.0
H2334 H 0.04244 0.08814 0.65301 0.0
H2335 H 0.04944 0.0967 0.6938 0.0
C2336 C 0.16627 0.82933 0.48891 0.0
C2337 C 0.17401 0.85666 0.48825 0.0
C2338 C 0.16571 0.81383 0.46069 0.0
C2339 C 0.17318 0.82606 0.43148 0.0
C2340 C 0.18246 0.85318 0.43123 0.0
C2341 C 0.18274 0.86806 0.45952 0.0
C2342 C 0.15608 0.78484 0.46194 0.0
C2343 C 0.191 0.86702 0.40081 0.0
C2344 C 0.19022 0.79014 0.35417 0.0
C2345 C 0.16674 0.79503 0.33637 0.0
C2346 C 0.19188 0.79814 0.38616 0.0
C2347 C 0.1697 0.81168 0.4006 0.0
C2348 C 0.14542 0.81523 0.38333 0.0
C2349 C 0.1442 0.80674 0.35153 0.0
C2350 C 0.218 0.79362 0.40384 0.0
C2351 C 0.12126 0.82956 0.39779 0.0
H2352 H 0.15961 0.82044 0.51111 0.0
H2353 H 0.18931 0.88903 0.45896 0.0
H2354 H 0.13562 0.78351 0.45134 0.0
H2355 H 0.16966 0.77142 0.44783 0.0
H2356 H 0.155 0.77712 0.48667 0.0
H2357 H 0.19903 0.88775 0.40503 0.0
H2358 H 0.20681 0.85487 0.38847 0.0
H2359 H 0.17343 0.86859 0.3846 0.0
H2360 H 0.20779 0.78112 0.34278 0.0
H2361 H 0.12571 0.80986 0.33829 0.0
H2362 H 0.21394 0.78633 0.42829 0.0
H2363 H 0.22902 0.81313 0.40583 0.0
H2364 H 0.23135 0.77872 0.39153 0.0
H2365 H 0.11644 0.82094 0.42143 0.0
H2366 H 0.10304 0.82808 0.38256 0.0
H2367 H 0.12607 0.85135 0.40131 0.0
C2368 C 1.0144 0.60387 0.40945 0.0
C2369 C 1.03224 0.59618 0.43353 0.0
C2370 C 1.02415 0.61324 0.38017 0.0
C2371 C 0.0524 0.61544 0.3753 0.0
C2372 C 0.0705 0.60709 0.3994 0.0
C2373 C 0.06015 0.59734 0.42825 0.0
C2374 C 1.00415 0.62189 0.35516 0.0
C2375 C 0.10074 0.60948 0.39517 0.0
C2376 C 0.081 0.61932 0.29197 0.0
C2377 C 0.08877 0.64663 0.29019 0.0
C2378 C 0.06868 0.609 0.31933 0.0
C2379 C 0.06322 0.62662 0.34515 0.0
C2380 C 0.06948 0.65459 0.34275 0.0
C2381 C 0.08256 0.66422 0.31539 0.0
C2382 C 0.06263 0.57901 0.32114 0.0
C2383 C 0.06308 0.67415 0.36943 0.0
H2384 H 0.99281 0.603 0.41383 0.0
H2385 H 0.07384 0.59176 0.44722 0.0
H2386 H 1.0022 0.64434 0.35561 0.0
H2387 H 1.01101 0.61589 0.33103 0.0
H2388 H 0.98385 0.61299 0.35944 0.0
H2389 H 0.11203 0.6002 0.41515 0.0
H2390 H 0.10722 0.5997 0.37259 0.0
H2391 H 0.10643 0.6312 0.39366 0.0
H2392 H 0.08584 0.60559 0.27259 0.0
H2393 H 0.08823 0.6854 0.31388 0.0
H2394 H 0.0411 0.57579 0.32754 0.0
H2395 H 0.07508 0.56964 0.34005 0.0
H2396 H 0.06695 0.56832 0.2984 0.0
H2397 H 0.06754 0.69552 0.36291 0.0
H2398 H 0.07514 0.66884 0.39068 0.0
H2399 H 0.04141 0.6726 0.37615 0.0
C2400 C 0.19637 0.28227 0.6713 0.0
C2401 C 0.19427 0.30152 0.69606 0.0
C2402 C 0.189 0.28867 0.63995 0.0
C2403 C 0.18045 0.31534 0.63253 0.0
C2404 C 0.1786 0.335 0.65703 0.0
C2405 C 0.18472 0.32768 0.68842 0.0
C2406 C 0.18991 0.26669 0.61489 0.0
C2407 C 0.17073 0.36406 0.65 0.0
C2408 C 0.18897 0.34195 0.54833 0.0
C2409 C 0.16205 0.34502 0.53883 0.0
C2410 C 0.19531 0.3318 0.57854 0.0
C2411 C 0.17423 0.32319 0.59909 0.0
C2412 C 0.14709 0.32426 0.58845 0.0
C2413 C 0.14128 0.33577 0.55875 0.0
C2414 C 0.22445 0.33164 0.58906 0.0
C2415 C 0.12405 0.3143 0.60889 0.0
H2416 H 0.20409 0.26212 0.676 0.0
H2417 H 0.18194 0.34273 0.7069 0.0
H2418 H 0.16897 0.26201 0.60727 0.0
H2419 H 0.20115 0.27357 0.59358 0.0
H2420 H 0.19947 0.24771 0.62368 0.0
H2421 H 0.17177 0.37729 0.67136 0.0
H2422 H 0.18434 0.3725 0.63148 0.0
H2423 H 0.14985 0.36493 0.64057 0.0
H2424 H 0.20503 0.34918 0.53299 0.0
H2425 H 0.12042 0.33801 0.55132 0.0
H2426 H 0.23174 0.31042 0.59128 0.0
H2427 H 0.22623 0.34131 0.61276 0.0
H2428 H 0.23788 0.34244 0.57213 0.0
H2429 H 0.12943 0.29479 0.62042 0.0
H2430 H 0.10525 0.31144 0.59493 0.0
H2431 H 0.11976 0.32931 0.62794 0.0
C2432 C 0.49419 0.43393 0.77522 0.0
C2433 C 0.46998 0.42058 0.7825 0.0
C2434 C 0.51484 0.43613 0.79778 0.0
C2435 C 0.51108 0.42481 0.82834 0.0
C2436 C 0.48642 0.41198 0.83611 0.0
C2437 C 0.46619 0.41 0.81307 0.0
C2438 C 0.54094 0.44995 0.78864 0.0
C2439 C 0.48162 0.3998 0.86851 0.0
C2440 C 0.57553 0.40539 0.87072 0.0
C2441 C 0.57957 0.42796 0.89046 0.0
C2442 C 0.5528 0.4037 0.85115 0.0
C2443 C 0.53361 0.42509 0.85145 0.0
C2444 C 0.53684 0.44729 0.87252 0.0
C2445 C 0.55986 0.44846 0.89186 0.0
C2446 C 0.54992 0.37957 0.82919 0.0
C2447 C 0.51665 0.47036 0.87359 0.0
H2448 H 0.49729 0.44218 0.75166 0.0
H2449 H 0.44742 0.40008 0.81908 0.0
H2450 H 0.54558 0.4664 0.80581 0.0
H2451 H 0.55787 0.43512 0.78953 0.0
H2452 H 0.54017 0.45876 0.76441 0.0
H2453 H 0.4607 0.39197 0.87134 0.0
H2454 H 0.49603 0.38282 0.87243 0.0
H2455 H 0.48537 0.41516 0.88729 0.0
H2456 H 0.5906 0.38933 0.87 0.0
H2457 H 0.56305 0.46601 0.90697 0.0
H2458 H 0.55125 0.38638 0.80414 0.0
H2459 H 0.52981 0.37003 0.83244 0.0
H2460 H 0.5658 0.36395 0.83321 0.0
H2461 H 0.51735 0.48166 0.85086 0.0
H2462 H 0.52075 0.48479 0.8933 0.0
H2463 H 0.49581 0.46242 0.87637 0.0
C2464 C 0.40449 0.75127 0.03825 0.0
C2465 C 0.3977 0.7237 0.03859 0.0
C2466 C 0.40438 0.76658 0.06663 0.0
C2467 C 0.397 0.75394 0.09565 0.0
C2468 C 0.38859 0.72652 0.09552 0.0
C2469 C 0.38918 0.71179 0.06711 0.0
C2470 C 0.41324 0.79583 0.0658 0.0
C2471 C 0.38006 0.71227 0.12566 0.0
C2472 C 0.42492 0.77409 0.17593 0.0
C2473 C 0.40215 0.7857 0.19068 0.0
C2474 C 0.42405 0.76529 0.14422 0.0
C2475 C 0.39983 0.76825 0.12669 0.0
C2476 C 0.37728 0.78144 0.14082 0.0
C2477 C 0.37867 0.78994 0.17267 0.0
C2478 C 0.4486 0.75141 0.13008 0.0
C2479 C 0.35115 0.78516 0.12293 0.0
H2480 H 0.41103 0.76051 0.01619 0.0
H2481 H 0.38341 0.69057 0.06737 0.0
H2482 H 0.39887 0.80883 0.07936 0.0
H2483 H 0.4333 0.79774 0.07728 0.0
H2484 H 0.41485 0.80362 0.04114 0.0
H2485 H 0.37237 0.69145 0.12108 0.0
H2486 H 0.39755 0.7108 0.14201 0.0
H2487 H 0.36399 0.72405 0.13803 0.0
H2488 H 0.44337 0.77141 0.1894 0.0
H2489 H 0.36095 0.79887 0.18383 0.0
H2490 H 0.45348 0.76013 0.1065 0.0
H2491 H 0.44425 0.72953 0.1265 0.0
H2492 H 0.46666 0.75324 0.14554 0.0
H2493 H 0.35514 0.79269 0.09857 0.0
H2494 H 0.33722 0.79955 0.13519 0.0
H2495 H 0.34081 0.7653 0.12068 0.0
C2496 C 0.03948 0.45479 0.597 0.0
C2497 C 1.01893 0.45208 0.57415 0.0
C2498 C 1.0344 0.45012 0.6293 0.0
C2499 C 1.00794 0.44352 0.63931 0.0
C2500 C 0.98683 0.44195 0.61679 0.0
C2501 C 0.99267 0.44568 0.58448 0.0
C2502 C 0.05741 0.45187 0.65263 0.0
C2503 C 0.95801 0.43643 0.6269 0.0
C2504 C 0.99147 0.4053 0.71463 0.0
C2505 C 0.98302 0.42639 0.73479 0.0
C2506 C 1.00133 0.41078 0.6841 0.0
C2507 C 1.0021 0.43795 0.67329 0.0
C2508 C 0.99511 0.45941 0.69432 0.0
C2509 C 0.98614 0.45334 0.72511 0.0
C2510 C 1.00965 0.38739 0.6629 0.0
C2511 C 0.99625 0.4888 0.68439 0.0
H2512 H 0.05968 0.46066 0.58981 0.0
H2513 H 0.9766 0.44321 0.56734 0.0
H2514 H 0.05232 0.46631 0.672 0.0
H2515 H 0.06074 0.43169 0.66365 0.0
H2516 H 0.07656 0.45851 0.64123 0.0
H2517 H 0.9437 0.43701 0.60665 0.0
H2518 H 0.9567 0.4162 0.63824 0.0
H2519 H 0.95146 0.45171 0.64483 0.0
H2520 H 0.98958 0.38443 0.72241 0.0
H2521 H 0.97992 0.46968 0.74083 0.0
H2522 H 1.0293 0.39173 0.65114 0.0
H2523 H 0.99436 0.38459 0.64398 0.0
H2524 H 1.01147 0.36806 0.67626 0.0
H2525 H 1.01659 0.49695 0.68984 0.0
H2526 H 0.98121 0.50122 0.69774 0.0
H2527 H 0.99262 0.49139 0.65863 0.0
C2528 C 0.85771 0.76876 0.35755 0.0
C2529 C 0.85524 0.79696 0.35511 0.0
C2530 C 0.87025 0.757 0.38401 0.0
C2531 C 0.88016 0.77395 0.40855 0.0
C2532 C 0.87799 0.80251 0.40582 0.0
C2533 C 0.86547 0.81367 0.37906 0.0
C2534 C 0.87273 0.72649 0.38589 0.0
C2535 C 0.88842 0.82122 0.43141 0.0
C2536 C 0.88174 0.74313 0.49054 0.0
C2537 C 0.90881 0.73478 0.49304 0.0
C2538 C 0.87232 0.75616 0.46331 0.0
C2539 C 0.89057 0.76168 0.43822 0.0
C2540 C 0.91821 0.75443 0.44112 0.0
C2541 C 0.92698 0.74076 0.46845 0.0
C2542 C 0.84255 0.76294 0.46087 0.0
C2543 C 0.93833 0.76043 0.41503 0.0
H2544 H 0.84997 0.75598 0.33868 0.0
H2545 H 0.86323 0.83545 0.37703 0.0
H2546 H 0.89432 0.72055 0.38779 0.0
H2547 H 0.86239 0.71898 0.40758 0.0
H2548 H 0.86404 0.71623 0.36478 0.0
H2549 H 0.88717 0.84292 0.42442 0.0
H2550 H 0.87647 0.81837 0.4535 0.0
H2551 H 0.90978 0.8162 0.43697 0.0
H2552 H 0.86748 0.73835 0.50932 0.0
H2553 H 0.94794 0.73453 0.47043 0.0
H2554 H 0.83354 0.75154 0.4408 0.0
H2555 H 0.83979 0.78488 0.45592 0.0
H2556 H 0.83119 0.75783 0.48286 0.0
H2557 H 0.93363 0.74797 0.3938 0.0
H2558 H 0.95945 0.75598 0.42232 0.0
H2559 H 0.9369 0.78205 0.4079 0.0
C2560 C 0.56026 0.61257 0.10128 0.0
C2561 C 0.53213 0.61231 0.10495 0.0
C2562 C 0.577 0.6217 0.12587 0.0
C2563 C 0.56525 0.62988 0.15519 0.0
C2564 C 0.53676 0.6298 0.15882 0.0
C2565 C 0.52054 0.62116 0.13358 0.0
C2566 C 0.60706 0.62242 0.11964 0.0
C2567 C 0.52339 0.63879 0.18944 0.0
C2568 C 0.60429 0.62631 0.23238 0.0
C2569 C 0.61158 0.65352 0.23693 0.0
C2570 C 0.5901 0.61819 0.20522 0.0
C2571 C 0.58238 0.63787 0.18256 0.0
C2572 C 0.58986 0.66533 0.18691 0.0
C2573 C 0.60445 0.67282 0.21402 0.0
C2574 C 0.58346 0.58853 0.20071 0.0
C2575 C 0.58256 0.68672 0.16281 0.0
H2576 H 0.56919 0.60606 0.07893 0.0
H2577 H 0.49872 0.6209 0.13636 0.0
H2578 H 0.61108 0.63353 0.09721 0.0
H2579 H 0.61876 0.63222 0.13888 0.0
H2580 H 0.61456 0.60136 0.11603 0.0
H2581 H 0.50096 0.63839 0.188 0.0
H2582 H 0.52984 0.62534 0.20911 0.0
H2583 H 0.52982 0.65971 0.19556 0.0
H2584 H 0.61027 0.61119 0.24965 0.0
H2585 H 0.61012 0.69385 0.21737 0.0
H2586 H 0.58999 0.58162 0.17675 0.0
H2587 H 0.56124 0.58567 0.20231 0.0
H2588 H 0.59332 0.57546 0.21876 0.0
H2589 H 0.5911 0.68106 0.13928 0.0
H2590 H 0.59023 0.70712 0.16948 0.0
H2591 H 0.56025 0.68788 0.16025 0.0
C2592 C 0.70578 0.35403 0.97333 0.0
C2593 C 0.68057 0.35691 0.98824 0.0
C2594 C 0.70801 0.34186 0.94319 0.0
C2595 C 0.68464 0.33113 0.92837 0.0
C2596 C 0.65947 0.33219 0.94461 0.0
C2597 C 0.65762 0.34571 0.97398 0.0
C2598 C 0.73502 0.34228 0.92633 0.0
C2599 C 0.63424 0.32008 0.93043 0.0
C2600 C 0.68113 0.3312 0.8382 0.0
C2601 C 0.69014 0.30497 0.83012 0.0
C2602 C 0.6797 0.33991 0.86991 0.0
C2603 C 0.68594 0.32162 0.89467 0.0
C2604 C 0.69367 0.29469 0.88703 0.0
C2605 C 0.69635 0.28689 0.85497 0.0
C2606 C 0.67188 0.36895 0.87686 0.0
C2607 C 0.69919 0.2741 0.9127 0.0
H2608 H 0.72347 0.36282 0.98432 0.0
H2609 H 0.63812 0.34785 0.98565 0.0
H2610 H 0.74067 0.32159 0.91819 0.0
H2611 H 0.73355 0.35528 0.90492 0.0
H2612 H 0.75142 0.35025 0.94167 0.0
H2613 H 0.61798 0.31761 0.94849 0.0
H2614 H 0.6265 0.33355 0.91145 0.0
H2615 H 0.63868 0.29999 0.91954 0.0
H2616 H 0.67516 0.34524 0.81978 0.0
H2617 H 0.70372 0.26667 0.84967 0.0
H2618 H 0.68749 0.37857 0.89199 0.0
H2619 H 0.65251 0.36955 0.89018 0.0
H2620 H 0.66955 0.38119 0.85492 0.0
H2621 H 0.71749 0.27998 0.92616 0.0
H2622 H 0.70232 0.25334 0.90291 0.0
H2623 H 0.68204 0.27359 0.92979 0.0
C2624 C 0.27365 0.20958 0.21539 0.0
C2625 C 0.29035 0.22162 0.19251 0.0
C2626 C 0.26578 0.22388 0.24288 0.0
C2627 C 0.27431 0.25108 0.24721 0.0
C2628 C 0.29029 0.26366 0.22347 0.0
C2629 C 0.29843 0.24865 0.19661 0.0
C2630 C 0.24927 0.20949 0.26789 0.0
C2631 C 0.29928 0.29278 0.22675 0.0
C2632 C 0.23766 0.29276 0.31083 0.0
C2633 C 0.25587 0.29132 0.33631 0.0
C2634 C 0.24364 0.28037 0.28143 0.0
C2635 C 0.26812 0.26566 0.27754 0.0
C2636 C 0.28667 0.26436 0.303 0.0
C2637 C 0.28052 0.27749 0.33177 0.0
C2638 C 0.22359 0.28273 0.25464 0.0
C2639 C 0.31288 0.24866 0.30006 0.0
H2640 H 0.2676 0.18861 0.21232 0.0
H2641 H 0.3112 0.25801 0.17877 0.0
H2642 H 0.26112 0.208 0.29014 0.0
H2643 H 0.23067 0.22126 0.27344 0.0
H2644 H 0.24338 0.18871 0.26038 0.0
H2645 H 0.30946 0.3003 0.20493 0.0
H2646 H 0.28165 0.30607 0.23208 0.0
H2647 H 0.31354 0.29466 0.24689 0.0
H2648 H 0.21845 0.30308 0.31398 0.0
H2649 H 0.29514 0.27679 0.35084 0.0
H2650 H 0.21547 0.26239 0.24869 0.0
H2651 H 0.23378 0.29057 0.23302 0.0
H2652 H 0.20638 0.29638 0.26071 0.0
H2653 H 0.3086 0.22715 0.29406 0.0
H2654 H 0.32492 0.24922 0.32226 0.0
H2655 H 0.32536 0.25705 0.2805 0.0
C2656 C 0.56292 0.55331 0.44258 0.0
C2657 C 0.5898 0.5456 0.44847 0.0
C2658 C 0.54243 0.54881 0.46507 0.0
C2659 C 0.5489 0.53613 0.49418 0.0
C2660 C 0.57578 0.52739 0.49984 0.0
C2661 C 0.59593 0.53223 0.47691 0.0
C2662 C 0.514 0.55825 0.45799 0.0
C2663 C 0.58342 0.51363 0.53052 0.0
C2664 C 0.50289 0.55041 0.56497 0.0
C2665 C 0.48711 0.52683 0.56604 0.0
C2666 C 0.52312 0.55364 0.54176 0.0
C2667 C 0.52764 0.53282 0.51903 0.0
C2668 C 0.51161 0.5091 0.5198 0.0
C2669 C 0.49153 0.50641 0.54324 0.0
C2670 C 0.53981 0.57924 0.54171 0.0
C2671 C 0.5157 0.48652 0.49589 0.0
H2672 H 0.55793 0.5632 0.42039 0.0
H2673 H 0.61667 0.52639 0.48172 0.0
H2674 H 0.49964 0.54112 0.46041 0.0
H2675 H 0.50778 0.57405 0.47543 0.0
H2676 H 0.51211 0.56681 0.43373 0.0
H2677 H 0.60484 0.50674 0.53055 0.0
H2678 H 0.58029 0.52788 0.55067 0.0
H2679 H 0.57022 0.49583 0.53474 0.0
H2680 H 0.49983 0.5661 0.58273 0.0
H2681 H 0.47918 0.48828 0.54366 0.0
H2682 H 0.53768 0.58978 0.51861 0.0
H2683 H 0.56153 0.57409 0.54457 0.0
H2684 H 0.53377 0.59349 0.561 0.0
H2685 H 0.51254 0.49436 0.47152 0.0
H2686 H 0.50169 0.46928 0.4999 0.0
H2687 H 0.53679 0.47883 0.49707 0.0
C2688 C 0.28085 0.87256 0.74781 0.0
C2689 C 0.2585 0.86034 0.73309 0.0
C2690 C 0.30098 0.85694 0.76264 0.0
C2691 C 0.29913 0.82827 0.76238 0.0
C2692 C 0.277 0.81572 0.74701 0.0
C2693 C 0.2569 0.83186 0.73277 0.0
C2694 C 0.32414 0.87118 0.77889 0.0
C2695 C 0.2744 0.7852 0.74588 0.0
C2696 C 0.3639 0.78822 0.77775 0.0
C2697 C 0.36069 0.78077 0.80966 0.0
C2698 C 0.34386 0.80329 0.76193 0.0
C2699 C 0.3202 0.81148 0.77854 0.0
C2700 C 0.3169 0.80405 0.81081 0.0
C2701 C 0.33709 0.78865 0.8259 0.0
C2702 C 0.348 0.81041 0.72742 0.0
C2703 C 0.29222 0.8127 0.82956 0.0
H2704 H 0.2827 0.89447 0.74771 0.0
H2705 H 0.23964 0.82211 0.72191 0.0
H2706 H 0.32468 0.86545 0.80434 0.0
H2707 H 0.34364 0.86467 0.76814 0.0
H2708 H 0.32254 0.89363 0.77722 0.0
H2709 H 0.25663 0.77854 0.73186 0.0
H2710 H 0.29291 0.77606 0.7353 0.0
H2711 H 0.27242 0.77711 0.77033 0.0
H2712 H 0.38198 0.78194 0.76501 0.0
H2713 H 0.33464 0.78319 0.85066 0.0
H2714 H 0.34832 0.83279 0.72456 0.0
H2715 H 0.3309 0.80263 0.7131 0.0
H2716 H 0.36716 0.8019 0.71766 0.0
H2717 H 0.29076 0.83518 0.83006 0.0
H2718 H 0.29265 0.80517 0.85439 0.0
H2719 H 0.27366 0.80502 0.81793 0.0
C2720 C 1.03449 0.59349 0.07438 0.0
C2721 C 0.03713 0.5696 0.09223 0.0
C2722 C 1.02143 0.59332 0.04482 0.0
C2723 C 1.01071 0.56871 0.03297 0.0
C2724 C 1.0128 0.5447 0.05122 0.0
C2725 C 1.02605 0.54543 0.08053 0.0
C2726 C 1.01959 0.61929 0.02603 0.0
C2727 C 1.00159 0.51802 0.03945 0.0
C2728 C 0.95823 0.56341 0.96793 0.0
C2729 C 0.97406 0.55361 0.9427 0.0
C2730 C 0.97012 0.57024 0.9971 0.0
C2731 C 0.99845 0.56733 1.00084 0.0
C2732 C 1.01467 0.5595 0.97457 0.0
C2733 C 1.00225 0.55259 0.94584 0.0
C2734 C 0.95214 0.57852 0.02455 0.0
C2735 C 0.04497 0.5565 0.97742 0.0
H2736 H 0.04267 0.61234 0.08352 0.0
H2737 H 1.02831 0.52684 0.09398 0.0
H2738 H 1.03146 0.6172 1.00373 0.0
H2739 H 0.99831 0.62337 0.01922 0.0
H2740 H 1.02735 0.63705 0.03949 0.0
H2741 H 1.00373 0.50153 0.05722 0.0
H2742 H 0.97985 0.52032 0.03356 0.0
H2743 H 1.01231 0.51176 0.0174 0.0
H2744 H 0.93641 0.56407 0.96553 0.0
H2745 H 1.01449 0.54526 0.92615 0.0
H2746 H 0.96074 0.5962 0.03731 0.0
H2747 H 0.95083 0.56153 0.04172 0.0
H2748 H 0.93134 0.58373 0.01667 0.0
H2749 H 0.05378 0.57456 0.98922 0.0
H2750 H 0.05493 0.55371 0.95392 0.0
H2751 H 0.04973 0.53859 0.99234 0.0
C2752 C 0.79152 0.82321 0.83121 0.0
C2753 C 0.79147 0.85164 0.83254 0.0
C2754 C 0.79986 0.80942 0.80367 0.0
C2755 C 0.80791 0.82447 0.77667 0.0
C2756 C 0.80929 0.85316 0.7785 0.0
C2757 C 0.80118 0.86643 0.80656 0.0
C2758 C 0.79853 0.77881 0.80289 0.0
C2759 C 0.81756 0.86994 0.75017 0.0
C2760 C 0.84041 0.78727 0.70684 0.0
C2761 C 0.818 0.78291 0.68713 0.0
C2762 C 0.83756 0.80089 0.73605 0.0
C2763 C 0.81173 0.81043 0.74565 0.0
C2764 C 0.7891 0.80619 0.72577 0.0
C2765 C 0.7925 0.79242 0.69686 0.0
C2766 C 0.86211 0.80494 0.75667 0.0
C2767 C 0.76119 0.81603 0.73514 0.0
H2768 H 0.78422 0.8118 0.85147 0.0
H2769 H 0.80096 0.88843 0.80753 0.0
H2770 H 0.78169 0.77233 0.78731 0.0
H2771 H 0.81748 0.77017 0.79282 0.0
H2772 H 0.79518 0.77008 0.82687 0.0
H2773 H 0.82056 0.89163 0.75648 0.0
H2774 H 0.83652 0.8619 0.7395 0.0
H2775 H 0.80163 0.8687 0.73174 0.0
H2776 H 0.86023 0.78027 0.69926 0.0
H2777 H 0.77504 0.78876 0.682 0.0
H2778 H 0.85894 0.79501 0.77999 0.0
H2779 H 0.86516 0.82689 0.76133 0.0
H2780 H 0.88081 0.79651 0.74564 0.0
H2781 H 0.75473 0.80609 0.75751 0.0
H2782 H 0.74587 0.81174 0.7166 0.0
H2783 H 0.76153 0.83823 0.73964 0.0
C2784 C 0.78311 0.33816 0.22081 0.0
C2785 C 0.78276 0.3662 0.2268 0.0
C2786 C 0.80102 0.32083 0.23695 0.0
C2787 C 0.81915 0.33179 0.25953 0.0
C2788 C 0.81911 0.36012 0.2654 0.0
C2789 C 0.80091 0.37694 0.24903 0.0
C2790 C 0.80031 0.29073 0.23014 0.0
C2791 C 0.83824 0.37267 0.28908 0.0
C2792 C 0.84814 0.28584 0.32359 0.0
C2793 C 0.8741 0.28008 0.31163 0.0
C2794 C 0.83 0.3024 0.30677 0.0
C2795 C 0.83799 0.31365 0.27729 0.0
C2796 C 0.86413 0.3079 0.26505 0.0
C2797 C 0.88183 0.29118 0.28231 0.0
C2798 C 0.80234 0.30804 0.3207 0.0
C2799 C 0.87345 0.3195 0.23373 0.0
H2800 H 0.76894 0.32965 0.20395 0.0
H2801 H 0.80102 0.39863 0.25348 0.0
H2802 H 0.82058 0.28358 0.22228 0.0
H2803 H 0.79514 0.27952 0.25213 0.0
H2804 H 0.78534 0.28546 0.21154 0.0
H2805 H 0.8359 0.39508 0.29063 0.0
H2806 H 0.83464 0.36393 0.31297 0.0
H2807 H 0.85946 0.36788 0.28239 0.0
H2808 H 0.84211 0.27774 0.34644 0.0
H2809 H 0.90169 0.28658 0.27267 0.0
H2810 H 0.78645 0.30175 0.30371 0.0
H2811 H 0.7998 0.33015 0.32488 0.0
H2812 H 0.79901 0.29726 0.3435 0.0
H2813 H 0.85962 0.31302 0.21449 0.0
H2814 H 0.89435 0.31303 0.22743 0.0
H2815 H 0.87276 0.34201 0.23472 0.0
C2816 C 0.08978 0.04281 0.96397 0.0
C2817 C 0.0744 0.04711 0.93653 0.0
C2818 C 0.07734 1.03635 0.993 0.0
C2819 C 0.0488 1.03435 0.99469 0.0
C2820 C 1.03318 1.0383 0.96697 0.0
C2821 C 0.04618 0.04457 0.93822 0.0
C2822 C 0.0947 1.0321 0.02198 0.0
C2823 C 1.0027 1.03655 0.96786 0.0
C2824 C 1.01686 0.99835 0.06532 0.0
C2825 C 1.01005 1.0203 0.08513 0.0
C2826 C 1.02947 1.00257 0.03578 0.0
C2827 C 1.03521 1.02938 0.02576 0.0
C2828 C 1.0281 0.0516 0.04555 0.0
C2829 C 1.01569 0.04679 0.075 0.0
C2830 C 0.03691 0.97836 0.01545 0.0
C2831 C 1.03365 0.0805 0.03563 0.0
H2832 H 0.11162 0.04443 0.9627 0.0
H2833 H 1.03416 0.04819 0.91718 0.0
H2834 H 0.08987 0.0478 0.0401 0.0
H2835 H 0.09031 1.01205 0.03274 0.0
H2836 H 0.11665 1.03313 0.01638 0.0
H2837 H 0.99359 1.03905 0.94397 0.0
H2838 H 0.99633 1.01669 0.97765 0.0
H2839 H 0.99442 0.05255 0.9838 0.0
H2840 H 1.01278 0.97784 0.07323 0.0
H2841 H 1.01015 0.06382 0.09006 0.0
H2842 H 0.05907 0.97801 1.01115 0.0
H2843 H 1.02698 0.97995 0.99196 0.0
H2844 H 1.03092 0.95885 0.02658 0.0
H2845 H 0.05567 0.08336 0.03184 0.0
H2846 H 1.02653 0.09551 0.05357 0.0
H2847 H 1.0235 0.08485 1.01275 0.0
C2848 C 0.53558 0.11255 0.55433 0.0
C2849 C 0.55201 0.09204 0.5668 0.0
C2850 C 0.52561 0.11061 0.52322 0.0
C2851 C 0.53181 0.0873 0.50471 0.0
C2852 C 0.55008 0.06759 0.51658 0.0
C2853 C 0.56001 0.07025 0.54756 0.0
C2854 C 0.50668 0.13233 0.51124 0.0
C2855 C 0.55713 0.04236 0.49778 0.0
C2856 C 0.47854 0.05709 0.45105 0.0
C2857 C 0.48912 0.06237 0.42078 0.0
C2858 C 0.49168 0.06617 0.47846 0.0
C2859 C 0.51599 0.08111 0.4756 0.0
C2860 C 0.52599 0.08788 0.44508 0.0
C2861 C 0.51243 0.07837 0.41795 0.0
C2862 C 0.48019 0.0586 0.51053 0.0
C2863 C 0.55165 0.10402 0.44109 0.0
H2864 H 0.52928 0.12925 0.56953 0.0
H2865 H 0.57245 0.05427 0.55758 0.0
H2866 H 0.51105 0.13712 0.48601 0.0
H2867 H 0.48555 0.1249 0.51264 0.0
H2868 H 0.50814 0.15127 0.52552 0.0
H2869 H 0.57402 1.03078 0.50865 0.0
H2870 H 0.53916 1.02895 0.49659 0.0
H2871 H 0.56282 0.04767 0.47308 0.0
H2872 H 0.46024 0.04516 0.45331 0.0
H2873 H 0.52074 0.08244 0.3946 0.0
H2874 H 0.4775 0.077 0.52547 0.0
H2875 H 0.49453 0.04496 0.523 0.0
H2876 H 0.4604 0.04814 0.50862 0.0
H2877 H 0.55148 0.122 0.45703 0.0
H2878 H 0.55455 0.11094 0.41623 0.0
H2879 H 0.56926 0.09128 0.44779 0.0
loop_
_geom_bond_atom_site_label_1
_geom_bond_atom_site_label_2
_geom_bond_distance
_geom_bond_site_symmetry_2
_ccdc_geom_bond_type
Eu0 N29 2.600 . S
Eu0 N35 2.562 . S
Eu0 O44 2.462 . S
Eu0 O45 2.373 . S
Eu0 O47 2.432 . S
Eu0 O48 2.291 . S
Eu0 O52 2.335 . S
Eu0 O55 2.372 . S
Eu0 C64 2.787 . S
C1 N2 1.365 1_556 S
C1 C4 1.405 . S
C1 C8 1.448 . S
N2 C1 1.365 1_554 S
N2 C5 1.319 . S
N2 Eu11 2.600 . S
C3 C5 1.397 . S
C3 C6 1.367 . S
C3 H23 0.931 . S
C4 C1 1.405 . S
C4 C6 1.403 1_556 S
C4 C10 1.439 . S
C5 N2 1.319 . S
C5 C3 1.397 . S
C5 H16 0.930 . S
C6 C3 1.367 . S
C6 C4 1.403 1_554 S
C6 H27 0.929 . S
C7 C8 1.430 . S
C7 C9 1.387 . S
C7 C13 1.404 . S
C8 C1 1.448 . S
C8 C7 1.430 . S
C8 N12 1.351 . S
C9 C7 1.387 . S
C9 C10 1.374 . S
C9 H24 0.931 . S
C10 C4 1.439 . S
C10 C9 1.374 . S
C10 H25 0.931 . S
Eu11 N2 2.600 . S
Eu11 N12 2.562 1_554 S
Eu11 O46 2.335 . S
Eu11 O49 2.372 . S
Eu11 O50 2.462 1_554 S
Eu11 O51 2.373 . S
Eu11 O53 2.432 1_554 S
Eu11 O54 2.291 1_554 S
Eu11 C75 2.787 1_554 S
N12 C8 1.351 . S
N12 Eu11 2.562 1_556 S
N12 C14 1.325 . S
C13 C7 1.404 . S
C13 C15 1.366 . S
C13 H21 0.930 . S
C14 N12 1.325 . S
C14 C15 1.416 . S
C14 H20 0.929 . S
C15 C13 1.366 . S
C15 C14 1.416 . S
C15 H17 0.930 . S
H16 C5 0.930 . S
H17 C15 0.930 . S
H18 C33 0.930 . S
H19 C40 0.930 . S
H20 C14 0.929 . S
H21 C13 0.930 . S
H22 C36 0.929 . S
H23 C3 0.931 . S
H24 C9 0.931 . S
H25 C10 0.931 . S
H26 C31 0.931 . S
H27 C6 0.929 . S
H28 C39 0.930 . S
N29 Eu0 2.600 . S
N29 C30 1.365 . S
N29 C33 1.319 . S
C30 N29 1.365 . S
C30 C32 1.405 . S
C30 C38 1.448 . S
C31 H26 0.931 . S
C31 C33 1.397 . S
C31 C34 1.367 . S
C32 C30 1.405 . S
C32 C34 1.403 . S
C32 C65 1.439 . S
C33 H18 0.930 . S
C33 N29 1.319 . S
C33 C31 1.397 . S
C34 C31 1.367 . S
C34 C32 1.403 . S
C34 H41 0.929 . S
N35 Eu0 2.562 . S
N35 C36 1.325 . S
N35 C38 1.351 . S
C36 H22 0.929 . S
C36 N35 1.325 . S
C36 C40 1.416 . S
C37 C38 1.430 . S
C37 C39 1.404 . S
C37 C66 1.387 . S
C38 C30 1.448 . S
C38 N35 1.351 . S
C38 C37 1.430 . S
C39 H28 0.930 . S
C39 C37 1.404 . S
C39 C40 1.366 . S
C40 H19 0.930 . S
C40 C36 1.416 . S
C40 C39 1.366 . S
H41 C34 0.929 . S
H42 C65 0.931 . S
H43 C66 0.931 . S
O44 Eu0 2.462 . S
O44 C64 1.252 . S
O45 Eu0 2.373 . S
O45 C56 1.249 . S
O46 Eu11 2.335 . S
O46 C56 1.264 . S
O47 Eu0 2.432 . S
O47 C64 1.268 . S
O48 Eu0 2.291 . S
O48 C63 1.255 . S
O49 Eu11 2.372 . S
O49 C63 1.257 . S
O50 Eu11 2.462 1_556 S
O50 C75 1.252 . S
O51 Eu11 2.373 . S
O51 C67 1.249 . S
O52 Eu0 2.335 . S
O52 C67 1.264 . S
O53 Eu11 2.432 1_556 S
O53 C75 1.268 . S
O54 Eu11 2.291 1_556 S
O54 C74 1.255 . S
O55 Eu0 2.372 . S
O55 C74 1.257 1_554 S
C56 O45 1.249 . S
C56 O46 1.264 . S
C57 C60 1.382 . S
C57 C62 1.390 . S
C57 C64 1.506 . S
C58 C59 1.398 . S
C58 C62 1.392 . S
C59 C58 1.398 . S
C59 C61 1.372 . S
C59 H76 0.931 . S
C60 C57 1.382 . S
C60 C61 1.390 . S
C60 H77 0.931 . S
C61 C59 1.372 . S
C61 C60 1.390 . S
C61 H78 0.929 . S
C62 C57 1.390 . S
C62 C58 1.392 . S
C62 H79 0.930 . S
C63 O48 1.255 . S
C63 O49 1.257 . S
C64 Eu0 2.787 . S
C64 O44 1.252 . S
C64 O47 1.268 . S
C64 C57 1.506 . S
C65 C32 1.439 . S
C65 H42 0.931 . S
C65 C66 1.374 . S
C66 C37 1.387 . S
C66 H43 0.931 . S
C66 C65 1.374 . S
C67 O51 1.249 . S
C67 O52 1.264 . S
C68 C71 1.382 . S
C68 C72 1.390 . S
C68 C75 1.506 . S
C69 C70 1.398 . S
C69 C72 1.392 . S
C70 C69 1.398 . S
C70 C73 1.372 . S
C70 H80 0.931 . S
C71 C68 1.382 . S
C71 C73 1.390 . S
C71 H81 0.931 . S
C72 C68 1.390 . S
C72 C69 1.392 . S
C72 H82 0.930 . S
C73 C70 1.372 . S
C73 C71 1.390 . S
C73 H83 0.929 . S
C74 O54 1.255 . S
C74 O55 1.257 1_556 S
C75 Eu11 2.787 1_556 S
C75 O50 1.252 . S
C75 O53 1.268 . S
C75 C68 1.506 . S
H76 C59 0.931 . S
H77 C60 0.931 . S
H78 C61 0.929 . S
H79 C62 0.930 . S
H80 C70 0.931 . S
H81 C71 0.931 . S
H82 C72 0.930 . S
H83 C73 0.929 . S
Eu84 N113 2.600 . S
Eu84 N119 2.562 . S
Eu84 O128 2.462 . S
Eu84 O129 2.373 . S
Eu84 O131 2.432 . S
Eu84 O132 2.291 . S
Eu84 O136 2.335 . S
Eu84 O139 2.372 . S
Eu84 C148 2.787 . S
C85 N86 1.365 . S
C85 C88 1.405 . S
C85 C92 1.448 . S
N86 C85 1.365 . S
N86 C89 1.319 . S
N86 Eu95 2.600 . S
C87 C89 1.397 . S
C87 C90 1.367 . S
C87 H107 0.931 . S
C88 C85 1.405 . S
C88 C90 1.403 . S
C88 C94 1.439 . S
C89 N86 1.319 . S
C89 C87 1.397 . S
C89 H100 0.930 . S
C90 C87 1.367 . S
C90 C88 1.403 . S
C90 H111 0.929 . S
C91 C92 1.430 . S
C91 C93 1.387 . S
C91 C97 1.404 . S
C92 C85 1.448 . S
C92 C91 1.430 . S
C92 N96 1.351 . S
C93 C91 1.387 . S
C93 C94 1.374 . S
C93 H108 0.931 . S
C94 C88 1.439 . S
C94 C93 1.374 . S
C94 H109 0.931 . S
Eu95 N86 2.600 . S
Eu95 N96 2.562 . S
Eu95 O130 2.335 . S
Eu95 O133 2.372 . S
Eu95 O134 2.462 . S
Eu95 O135 2.373 . S
Eu95 O137 2.432 . S
Eu95 O138 2.291 . S
Eu95 C159 2.787 . S
N96 C92 1.351 . S
N96 Eu95 2.562 . S
N96 C98 1.325 . S
C97 C91 1.404 . S
C97 C99 1.366 . S
C97 H105 0.930 . S
C98 N96 1.325 . S
C98 C99 1.416 . S
C98 H104 0.929 . S
C99 C97 1.366 . S
C99 C98 1.416 . S
C99 H101 0.930 . S
H100 C89 0.930 . S
H101 C99 0.930 . S
H102 C117 0.930 . S
H103 C124 0.930 . S
H104 C98 0.929 . S
H105 C97 0.930 . S
H106 C120 0.929 . S
H107 C87 0.931 . S
H108 C93 0.931 . S
H109 C94 0.931 . S
H110 C115 0.931 . S
H111 C90 0.929 . S
H112 C123 0.930 . S
N113 Eu84 2.600 . S
N113 C114 1.365 . S
N113 C117 1.319 . S
C114 N113 1.365 . S
C114 C116 1.405 . S
C114 C122 1.448 . S
C115 H110 0.931 . S
C115 C117 1.397 . S
C115 C118 1.367 . S
C116 C114 1.405 . S
C116 C118 1.403 . S
C116 C149 1.439 . S
C117 H102 0.930 . S
C117 N113 1.319 . S
C117 C115 1.397 . S
C118 C115 1.367 . S
C118 C116 1.403 . S
C118 H125 0.929 . S
N119 Eu84 2.562 . S
N119 C120 1.325 . S
N119 C122 1.351 . S
C120 H106 0.929 . S
C120 N119 1.325 . S
C120 C124 1.416 . S
C121 C122 1.430 . S
C121 C123 1.404 . S
C121 C150 1.387 . S
C122 C114 1.448 . S
C122 N119 1.351 . S
C122 C121 1.430 . S
C123 H112 0.930 . S
C123 C121 1.404 . S
C123 C124 1.366 . S
C124 H103 0.930 . S
C124 C120 1.416 . S
C124 C123 1.366 . S
H125 C118 0.929 . S
H126 C149 0.931 . S
H127 C150 0.931 . S
O128 Eu84 2.462 . S
O128 C148 1.252 . S
O129 Eu84 2.373 . S
O129 C140 1.249 . S
O130 Eu95 2.335 . S
O130 C140 1.264 . S
O131 Eu84 2.432 . S
O131 C148 1.268 . S
O132 Eu84 2.291 . S
O132 C147 1.255 . S
O133 Eu95 2.372 . S
O133 C147 1.257 . S
O134 Eu95 2.462 . S
O134 C159 1.252 . S
O135 Eu95 2.373 . S
O135 C151 1.249 . S
O136 Eu84 2.335 . S
O136 C151 1.264 . S
O137 Eu95 2.432 . S
O137 C159 1.268 . S
O138 Eu95 2.291 . S
O138 C158 1.255 . S
O139 Eu84 2.372 . S
O139 C158 1.257 . S
C140 O129 1.249 . S
C140 O130 1.264 . S
C141 C144 1.382 . S
C141 C146 1.390 . S
C141 C148 1.506 . S
C142 C143 1.398 . S
C142 C146 1.392 . S
C143 C142 1.398 . S
C143 C145 1.372 . S
C143 H160 0.931 . S
C144 C141 1.382 . S
C144 C145 1.390 . S
C144 H161 0.931 . S
C145 C143 1.372 . S
C145 C144 1.390 . S
C145 H162 0.929 . S
C146 C141 1.390 . S
C146 C142 1.392 . S
C146 H163 0.930 . S
C147 O132 1.255 . S
C147 O133 1.257 . S
C148 Eu84 2.787 . S
C148 O128 1.252 . S
C148 O131 1.268 . S
C148 C141 1.506 . S
C149 C116 1.439 . S
C149 H126 0.931 . S
C149 C150 1.374 . S
C150 C121 1.387 . S
C150 H127 0.931 . S
C150 C149 1.374 . S
C151 O135 1.249 . S
C151 O136 1.264 . S
C152 C155 1.382 . S
C152 C156 1.390 . S
C152 C159 1.506 . S
C153 C154 1.398 . S
C153 C156 1.392 . S
C154 C153 1.398 . S
C154 C157 1.372 . S
C154 H164 0.931 . S
C155 C152 1.382 . S
C155 C157 1.390 . S
C155 H165 0.931 . S
C156 C152 1.390 . S
C156 C153 1.392 . S
C156 H166 0.930 . S
C157 C154 1.372 . S
C157 C155 1.390 . S
C157 H167 0.929 . S
C158 O138 1.255 . S
C158 O139 1.257 . S
C159 Eu95 2.787 . S
C159 O134 1.252 . S
C159 O137 1.268 . S
C159 C152 1.506 . S
H160 C143 0.931 . S
H161 C144 0.931 . S
H162 C145 0.929 . S
H163 C146 0.930 . S
H164 C154 0.931 . S
H165 C155 0.931 . S
H166 C156 0.930 . S
H167 C157 0.929 . S
Eu168 N197 2.600 . S
Eu168 N203 2.562 . S
Eu168 O212 2.462 . S
Eu168 O213 2.373 . S
Eu168 O215 2.432 . S
Eu168 O216 2.291 . S
Eu168 O220 2.335 . S
Eu168 O223 2.372 . S
Eu168 C232 2.787 . S
C169 N170 1.365 . S
C169 C172 1.405 . S
C169 C176 1.448 . S
N170 C169 1.365 . S
N170 C173 1.319 . S
N170 Eu179 2.600 . S
C171 C173 1.397 . S
C171 C174 1.367 . S
C171 H191 0.931 . S
C172 C169 1.405 . S
C172 C174 1.403 . S
C172 C178 1.439 . S
C173 N170 1.319 . S
C173 C171 1.397 . S
C173 H184 0.930 . S
C174 C171 1.367 . S
C174 C172 1.403 . S
C174 H195 0.929 . S
C175 C176 1.430 . S
C175 C177 1.387 . S
C175 C181 1.404 . S
C176 C169 1.448 . S
C176 C175 1.430 . S
C176 N180 1.351 . S
C177 C175 1.387 . S
C177 C178 1.374 . S
C177 H192 0.931 . S
C178 C172 1.439 . S
C178 C177 1.374 . S
C178 H193 0.931 . S
Eu179 N170 2.600 . S
Eu179 N180 2.562 . S
Eu179 O214 2.335 . S
Eu179 O217 2.372 . S
Eu179 O218 2.462 . S
Eu179 O219 2.373 . S
Eu179 O221 2.432 . S
Eu179 O222 2.291 . S
Eu179 C243 2.787 . S
N180 C176 1.351 . S
N180 Eu179 2.562 . S
N180 C182 1.325 . S
C181 C175 1.404 . S
C181 C183 1.366 . S
C181 H189 0.930 . S
C182 N180 1.325 . S
C182 C183 1.416 . S
C182 H188 0.929 . S
C183 C181 1.366 . S
C183 C182 1.416 . S
C183 H185 0.930 . S
H184 C173 0.930 . S
H185 C183 0.930 . S
H186 C201 0.930 . S
H187 C208 0.930 . S
H188 C182 0.929 . S
H189 C181 0.930 . S
H190 C204 0.929 . S
H191 C171 0.931 . S
H192 C177 0.931 . S
H193 C178 0.931 . S
H194 C199 0.931 . S
H195 C174 0.929 . S
H196 C207 0.930 . S
N197 Eu168 2.600 . S
N197 C198 1.365 . S
N197 C201 1.319 . S
C198 N197 1.365 . S
C198 C200 1.405 . S
C198 C206 1.448 . S
C199 H194 0.931 . S
C199 C201 1.397 . S
C199 C202 1.367 . S
C200 C198 1.405 . S
C200 C202 1.403 . S
C200 C233 1.439 . S
C201 H186 0.930 . S
C201 N197 1.319 . S
C201 C199 1.397 . S
C202 C199 1.367 . S
C202 C200 1.403 . S
C202 H209 0.929 . S
N203 Eu168 2.562 . S
N203 C204 1.325 . S
N203 C206 1.351 . S
C204 H190 0.929 . S
C204 N203 1.325 . S
C204 C208 1.416 . S
C205 C206 1.430 . S
C205 C207 1.404 . S
C205 C234 1.387 . S
C206 C198 1.448 . S
C206 N203 1.351 . S
C206 C205 1.430 . S
C207 H196 0.930 . S
C207 C205 1.404 . S
C207 C208 1.366 . S
C208 H187 0.930 . S
C208 C204 1.416 . S
C208 C207 1.366 . S
H209 C202 0.929 . S
H210 C233 0.931 . S
H211 C234 0.931 . S
O212 Eu168 2.462 . S
O212 C232 1.252 . S
O213 Eu168 2.373 . S
O213 C224 1.249 . S
O214 Eu179 2.335 . S
O214 C224 1.264 . S
O215 Eu168 2.432 . S
O215 C232 1.268 . S
O216 Eu168 2.291 . S
O216 C231 1.255 . S
O217 Eu179 2.372 . S
O217 C231 1.257 . S
O218 Eu179 2.462 . S
O218 C243 1.252 . S
O219 Eu179 2.373 . S
O219 C235 1.249 . S
O220 Eu168 2.335 . S
O220 C235 1.264 . S
O221 Eu179 2.432 . S
O221 C243 1.268 . S
O222 Eu179 2.291 . S
O222 C242 1.255 . S
O223 Eu168 2.372 . S
O223 C242 1.257 . S
C224 O213 1.249 . S
C224 O214 1.264 . S
C225 C228 1.382 . S
C225 C230 1.390 . S
C225 C232 1.506 . S
C226 C227 1.398 . S
C226 C230 1.392 . S
C227 C226 1.398 . S
C227 C229 1.372 . S
C227 H244 0.931 . S
C228 C225 1.382 . S
C228 C229 1.390 . S
C228 H245 0.931 . S
C229 C227 1.372 . S
C229 C228 1.390 . S
C229 H246 0.929 . S
C230 C225 1.390 . S
C230 C226 1.392 . S
C230 H247 0.930 . S
C231 O216 1.255 . S
C231 O217 1.257 . S
C232 Eu168 2.787 . S
C232 O212 1.252 . S
C232 O215 1.268 . S
C232 C225 1.506 . S
C233 C200 1.439 . S
C233 H210 0.931 . S
C233 C234 1.374 . S
C234 C205 1.387 . S
C234 H211 0.931 . S
C234 C233 1.374 . S
C235 O219 1.249 . S
C235 O220 1.264 . S
C236 C239 1.382 . S
C236 C240 1.390 . S
C236 C243 1.506 . S
C237 C238 1.398 . S
C237 C240 1.392 . S
C238 C237 1.398 . S
C238 C241 1.372 . S
C238 H248 0.931 . S
C239 C236 1.382 . S
C239 C241 1.390 . S
C239 H249 0.931 . S
C240 C236 1.390 . S
C240 C237 1.392 . S
C240 H250 0.930 . S
C241 C238 1.372 . S
C241 C239 1.390 . S
C241 H251 0.929 . S
C242 O222 1.255 . S
C242 O223 1.257 . S
C243 Eu179 2.787 . S
C243 O218 1.252 . S
C243 O221 1.268 . S
C243 C236 1.506 . S
H244 C227 0.931 . S
H245 C228 0.931 . S
H246 C229 0.929 . S
H247 C230 0.930 . S
H248 C238 0.931 . S
H249 C239 0.931 . S
H250 C240 0.930 . S
H251 C241 0.929 . S
Eu252 N281 2.600 . S
Eu252 N287 2.562 . S
Eu252 O296 2.462 . S
Eu252 O297 2.373 . S
Eu252 O299 2.432 . S
Eu252 O300 2.291 . S
Eu252 O304 2.335 . S
Eu252 O307 2.372 . S
Eu252 C316 2.787 . S
C253 N254 1.365 . S
C253 C256 1.405 . S
C253 C260 1.448 . S
N254 C253 1.365 . S
N254 C257 1.319 . S
N254 Eu263 2.600 . S
C255 C257 1.397 . S
C255 C258 1.367 . S
C255 H275 0.931 . S
C256 C253 1.405 . S
C256 C258 1.403 . S
C256 C262 1.439 . S
C257 N254 1.319 . S
C257 C255 1.397 . S
C257 H268 0.930 . S
C258 C255 1.367 . S
C258 C256 1.403 . S
C258 H279 0.929 . S
C259 C260 1.430 . S
C259 C261 1.387 . S
C259 C265 1.404 . S
C260 C253 1.448 . S
C260 C259 1.430 . S
C260 N264 1.351 . S
C261 C259 1.387 . S
C261 C262 1.374 . S
C261 H276 0.931 . S
C262 C256 1.439 . S
C262 C261 1.374 . S
C262 H277 0.931 . S
Eu263 N254 2.600 . S
Eu263 N264 2.562 . S
Eu263 O298 2.335 . S
Eu263 O301 2.372 . S
Eu263 O302 2.462 . S
Eu263 O303 2.373 . S
Eu263 O305 2.432 . S
Eu263 O306 2.291 . S
Eu263 C327 2.787 . S
N264 C260 1.351 . S
N264 Eu263 2.562 . S
N264 C266 1.325 . S
C265 C259 1.404 . S
C265 C267 1.366 . S
C265 H273 0.930 . S
C266 N264 1.325 . S
C266 C267 1.416 . S
C266 H272 0.929 . S
C267 C265 1.366 . S
C267 C266 1.416 . S
C267 H269 0.930 . S
H268 C257 0.930 . S
H269 C267 0.930 . S
H270 C285 0.930 . S
H271 C292 0.930 . S
H272 C266 0.929 . S
H273 C265 0.930 . S
H274 C288 0.929 . S
H275 C255 0.931 . S
H276 C261 0.931 . S
H277 C262 0.931 . S
H278 C283 0.931 . S
H279 C258 0.929 . S
H280 C291 0.930 . S
N281 Eu252 2.600 . S
N281 C282 1.365 . S
N281 C285 1.319 1_655 S
C282 N281 1.365 . S
C282 C284 1.405 1_655 S
C282 C290 1.448 . S
C283 H278 0.931 . S
C283 C285 1.397 . S
C283 C286 1.367 . S
C284 C282 1.405 1_455 S
C284 C286 1.403 . S
C284 C317 1.439 . S
C285 H270 0.930 . S
C285 N281 1.319 1_455 S
C285 C283 1.397 . S
C286 C283 1.367 . S
C286 C284 1.403 . S
C286 H293 0.929 . S
N287 Eu252 2.562 . S
N287 C288 1.325 . S
N287 C290 1.351 . S
C288 H274 0.929 . S
C288 N287 1.325 . S
C288 C292 1.416 . S
C289 C290 1.430 . S
C289 C291 1.404 . S
C289 C318 1.387 1_655 S
C290 C282 1.448 . S
C290 N287 1.351 . S
C290 C289 1.430 . S
C291 H280 0.930 . S
C291 C289 1.404 . S
C291 C292 1.366 . S
C292 H271 0.930 . S
C292 C288 1.416 . S
C292 C291 1.366 . S
H293 C286 0.929 . S
H294 C317 0.931 . S
H295 C318 0.931 . S
O296 Eu252 2.462 . S
O296 C316 1.252 . S
O297 Eu252 2.373 . S
O297 C308 1.249 . S
O298 Eu263 2.335 . S
O298 C308 1.264 . S
O299 Eu252 2.432 . S
O299 C316 1.268 . S
O300 Eu252 2.291 . S
O300 C315 1.255 . S
O301 Eu263 2.372 . S
O301 C315 1.257 . S
O302 Eu263 2.462 . S
O302 C327 1.252 . S
O303 Eu263 2.373 . S
O303 C319 1.249 . S
O304 Eu252 2.335 . S
O304 C319 1.264 . S
O305 Eu263 2.432 . S
O305 C327 1.268 . S
O306 Eu263 2.291 . S
O306 C326 1.255 . S
O307 Eu252 2.372 . S
O307 C326 1.257 . S
C308 O297 1.249 . S
C308 O298 1.264 . S
C309 C312 1.382 . S
C309 C314 1.390 . S
C309 C316 1.506 . S
C310 C311 1.398 . S
C310 C314 1.392 . S
C311 C310 1.398 . S
C311 C313 1.372 . S
C311 H328 0.931 . S
C312 C309 1.382 . S
C312 C313 1.390 . S
C312 H329 0.931 . S
C313 C311 1.372 . S
C313 C312 1.390 . S
C313 H330 0.934 1_655 S
C314 C309 1.390 . S
C314 C310 1.392 . S
C314 H331 0.930 . S
C315 O300 1.255 . S
C315 O301 1.257 . S
C316 Eu252 2.787 . S
C316 O296 1.252 . S
C316 O299 1.268 . S
C316 C309 1.506 . S
C317 C284 1.439 . S
C317 H294 0.931 . S
C317 C318 1.374 . S
C318 C289 1.387 1_455 S
C318 H295 0.931 . S
C318 C317 1.374 . S
C319 O303 1.249 . S
C319 O304 1.264 . S
C320 C323 1.382 . S
C320 C324 1.390 . S
C320 C327 1.506 . S
C321 C322 1.398 . S
C321 C324 1.392 . S
C322 C321 1.398 . S
C322 C325 1.372 . S
C322 H332 0.931 . S
C323 C320 1.382 . S
C323 C325 1.390 . S
C323 H333 0.931 . S
C324 C320 1.390 . S
C324 C321 1.392 . S
C324 H334 0.930 . S
C325 C322 1.372 . S
C325 C323 1.390 . S
C325 H335 0.929 . S
C326 O306 1.255 . S
C326 O307 1.257 . S
C327 Eu263 2.787 . S
C327 O302 1.252 . S
C327 O305 1.268 . S
C327 C320 1.506 . S
H328 C311 0.931 . S
H329 C312 0.931 . S
H330 C313 0.934 1_455 S
H331 C314 0.930 . S
H332 C322 0.931 . S
H333 C323 0.931 . S
H334 C324 0.930 . S
H335 C325 0.929 . S
Eu336 N365 2.600 . S
Eu336 N371 2.562 1_556 S
Eu336 O380 2.462 1_556 S
Eu336 O381 2.373 . S
Eu336 O383 2.432 1_556 S
Eu336 O384 2.291 1_556 S
Eu336 O388 2.335 . S
Eu336 O391 2.372 . S
Eu336 C400 2.787 1_556 S
C337 N338 1.365 . S
C337 C340 1.405 . S
C337 C344 1.448 . S
N338 C337 1.365 . S
N338 C341 1.319 . S
N338 Eu347 2.600 . S
C339 C341 1.397 . S
C339 C342 1.367 . S
C339 H359 0.931 . S
C340 C337 1.405 . S
C340 C342 1.403 . S
C340 C346 1.439 . S
C341 N338 1.319 . S
C341 C339 1.397 . S
C341 H352 0.930 . S
C342 C339 1.367 . S
C342 C340 1.403 . S
C342 H363 0.929 . S
C343 C344 1.430 . S
C343 C345 1.387 . S
C343 C349 1.404 . S
C344 C337 1.448 . S
C344 C343 1.430 . S
C344 N348 1.351 . S
C345 C343 1.387 . S
C345 C346 1.374 . S
C345 H360 0.931 . S
C346 C340 1.439 . S
C346 C345 1.374 . S
C346 H361 0.931 . S
Eu347 N338 2.600 . S
Eu347 N348 2.562 . S
Eu347 O382 2.335 . S
Eu347 O385 2.372 . S
Eu347 O386 2.462 . S
Eu347 O387 2.373 . S
Eu347 O389 2.432 . S
Eu347 O390 2.291 . S
Eu347 C411 2.787 . S
N348 C344 1.351 . S
N348 Eu347 2.562 . S
N348 C350 1.325 . S
C349 C343 1.404 . S
C349 C351 1.366 . S
C349 H357 0.930 . S
C350 N348 1.325 . S
C350 C351 1.416 . S
C350 H356 0.929 . S
C351 C349 1.366 . S
C351 C350 1.416 . S
C351 H353 0.930 . S
H352 C341 0.930 . S
H353 C351 0.930 . S
H354 C369 0.930 . S
H355 C376 0.930 . S
H356 C350 0.929 . S
H357 C349 0.930 . S
H358 C372 0.929 . S
H359 C339 0.931 . S
H360 C345 0.931 . S
H361 C346 0.931 . S
H362 C367 0.931 . S
H363 C342 0.929 . S
H364 C375 0.930 . S
N365 Eu336 2.600 . S
N365 C366 1.365 1_556 S
N365 C369 1.319 . S
C366 N365 1.365 1_554 S
C366 C368 1.405 . S
C366 C374 1.448 . S
C367 H362 0.931 . S
C367 C369 1.397 . S
C367 C370 1.367 . S
C368 C366 1.405 . S
C368 C370 1.403 1_554 S
C368 C401 1.439 . S
C369 H354 0.930 . S
C369 N365 1.319 . S
C369 C367 1.397 . S
C370 C367 1.367 . S
C370 C368 1.403 1_556 S
C370 H377 0.929 . S
N371 Eu336 2.562 1_554 S
N371 C372 1.325 . S
N371 C374 1.351 . S
C372 H358 0.929 . S
C372 N371 1.325 . S
C372 C376 1.416 . S
C373 C374 1.430 . S
C373 C375 1.404 . S
C373 C402 1.387 . S
C374 C366 1.448 . S
C374 N371 1.351 . S
C374 C373 1.430 . S
C375 H364 0.930 . S
C375 C373 1.404 . S
C375 C376 1.366 . S
C376 H355 0.930 . S
C376 C372 1.416 . S
C376 C375 1.366 . S
H377 C370 0.929 . S
H378 C401 0.931 . S
H379 C402 0.931 . S
O380 Eu336 2.462 1_554 S
O380 C400 1.252 . S
O381 Eu336 2.373 . S
O381 C392 1.249 . S
O382 Eu347 2.335 . S
O382 C392 1.264 . S
O383 Eu336 2.432 1_554 S
O383 C400 1.268 . S
O384 Eu336 2.291 1_554 S
O384 C399 1.255 . S
O385 Eu347 2.372 . S
O385 C399 1.257 1_556 S
O386 Eu347 2.462 . S
O386 C411 1.252 . S
O387 Eu347 2.373 . S
O387 C403 1.249 . S
O388 Eu336 2.335 . S
O388 C403 1.264 . S
O389 Eu347 2.432 . S
O389 C411 1.268 . S
O390 Eu347 2.291 . S
O390 C410 1.255 . S
O391 Eu336 2.372 . S
O391 C410 1.257 . S
C392 O381 1.249 . S
C392 O382 1.264 . S
C393 C396 1.382 . S
C393 C398 1.390 . S
C393 C400 1.506 . S
C394 C395 1.398 . S
C394 C398 1.392 . S
C395 C394 1.398 . S
C395 C397 1.372 . S
C395 H412 0.931 . S
C396 C393 1.382 . S
C396 C397 1.390 . S
C396 H413 0.931 . S
C397 C395 1.372 . S
C397 C396 1.390 . S
C397 H414 0.929 . S
C398 C393 1.390 . S
C398 C394 1.392 . S
C398 H415 0.930 . S
C399 O384 1.255 . S
C399 O385 1.257 1_554 S
C400 Eu336 2.787 1_554 S
C400 O380 1.252 . S
C400 O383 1.268 . S
C400 C393 1.506 . S
C401 C368 1.439 . S
C401 H378 0.931 . S
C401 C402 1.374 . S
C402 C373 1.387 . S
C402 H379 0.931 . S
C402 C401 1.374 . S
C403 O387 1.249 . S
C403 O388 1.264 . S
C404 C407 1.382 . S
C404 C408 1.390 . S
C404 C411 1.506 . S
C405 C406 1.398 . S
C405 C408 1.392 . S
C406 C405 1.398 . S
C406 C409 1.372 . S
C406 H416 0.931 . S
C407 C404 1.382 . S
C407 C409 1.390 . S
C407 H417 0.931 . S
C408 C404 1.390 . S
C408 C405 1.392 . S
C408 H418 0.930 . S
C409 C406 1.372 . S
C409 C407 1.390 . S
C409 H419 0.929 . S
C410 O390 1.255 . S
C410 O391 1.257 . S
C411 Eu347 2.787 . S
C411 O386 1.252 . S
C411 O389 1.268 . S
C411 C404 1.506 . S
H412 C395 0.931 . S
H413 C396 0.931 . S
H414 C397 0.929 . S
H415 C398 0.930 . S
H416 C406 0.931 . S
H417 C407 0.931 . S
H418 C408 0.930 . S
H419 C409 0.929 . S
Eu420 N449 2.600 . S
Eu420 N455 2.562 . S
Eu420 O464 2.462 . S
Eu420 O465 2.373 . S
Eu420 O467 2.432 . S
Eu420 O468 2.291 . S
Eu420 O472 2.335 . S
Eu420 O475 2.372 . S
Eu420 C484 2.787 . S
C421 N422 1.365 . S
C421 C424 1.405 . S
C421 C428 1.448 . S
N422 C421 1.365 . S
N422 C425 1.319 . S
N422 Eu431 2.600 . S
C423 C425 1.397 . S
C423 C426 1.367 . S
C423 H443 0.931 . S
C424 C421 1.405 . S
C424 C426 1.403 . S
C424 C430 1.439 . S
C425 N422 1.319 . S
C425 C423 1.397 . S
C425 H436 0.930 . S
C426 C423 1.367 . S
C426 C424 1.403 . S
C426 H447 0.929 . S
C427 C428 1.430 . S
C427 C429 1.387 . S
C427 C433 1.404 . S
C428 C421 1.448 . S
C428 C427 1.430 . S
C428 N432 1.351 . S
C429 C427 1.387 . S
C429 C430 1.374 . S
C429 H444 0.931 . S
C430 C424 1.439 . S
C430 C429 1.374 . S
C430 H445 0.931 . S
Eu431 N422 2.600 . S
Eu431 N432 2.562 . S
Eu431 O466 2.335 . S
Eu431 O469 2.372 . S
Eu431 O470 2.462 . S
Eu431 O471 2.373 . S
Eu431 O473 2.432 . S
Eu431 O474 2.291 . S
Eu431 C495 2.787 . S
N432 C428 1.351 . S
N432 Eu431 2.562 . S
N432 C434 1.325 . S
C433 C427 1.404 . S
C433 C435 1.366 . S
C433 H441 0.930 . S
C434 N432 1.325 . S
C434 C435 1.416 . S
C434 H440 0.929 . S
C435 C433 1.366 . S
C435 C434 1.416 . S
C435 H437 0.930 . S
H436 C425 0.930 . S
H437 C435 0.930 . S
H438 C453 0.930 . S
H439 C460 0.930 . S
H440 C434 0.929 . S
H441 C433 0.930 . S
H442 C456 0.929 . S
H443 C423 0.931 . S
H444 C429 0.931 . S
H445 C430 0.931 . S
H446 C451 0.931 . S
H447 C426 0.929 . S
H448 C459 0.930 . S
N449 Eu420 2.600 . S
N449 C450 1.365 . S
N449 C453 1.319 . S
C450 N449 1.365 . S
C450 C452 1.405 . S
C450 C458 1.448 . S
C451 H446 0.931 . S
C451 C453 1.397 . S
C451 C454 1.367 . S
C452 C450 1.405 . S
C452 C454 1.403 . S
C452 C485 1.439 . S
C453 H438 0.930 . S
C453 N449 1.319 . S
C453 C451 1.397 . S
C454 C451 1.367 . S
C454 C452 1.403 . S
C454 H461 0.929 . S
N455 Eu420 2.562 . S
N455 C456 1.325 . S
N455 C458 1.351 . S
C456 H442 0.929 . S
C456 N455 1.325 . S
C456 C460 1.416 . S
C457 C458 1.430 . S
C457 C459 1.404 . S
C457 C486 1.387 . S
C458 C450 1.448 . S
C458 N455 1.351 . S
C458 C457 1.430 . S
C459 H448 0.930 . S
C459 C457 1.404 . S
C459 C460 1.366 . S
C460 H439 0.930 . S
C460 C456 1.416 . S
C460 C459 1.366 . S
H461 C454 0.929 . S
H462 C485 0.931 . S
H463 C486 0.931 . S
O464 Eu420 2.462 . S
O464 C484 1.252 . S
O465 Eu420 2.373 . S
O465 C476 1.249 . S
O466 Eu431 2.335 . S
O466 C476 1.264 . S
O467 Eu420 2.432 . S
O467 C484 1.268 . S
O468 Eu420 2.291 . S
O468 C483 1.255 . S
O469 Eu431 2.372 . S
O469 C483 1.257 . S
O470 Eu431 2.462 . S
O470 C495 1.252 . S
O471 Eu431 2.373 . S
O471 C487 1.249 . S
O472 Eu420 2.335 . S
O472 C487 1.264 . S
O473 Eu431 2.432 . S
O473 C495 1.268 . S
O474 Eu431 2.291 . S
O474 C494 1.255 . S
O475 Eu420 2.372 . S
O475 C494 1.257 . S
C476 O465 1.249 . S
C476 O466 1.264 . S
C477 C480 1.382 . S
C477 C482 1.390 . S
C477 C484 1.506 . S
C478 C479 1.398 . S
C478 C482 1.392 . S
C479 C478 1.398 . S
C479 C481 1.372 . S
C479 H496 0.931 . S
C480 C477 1.382 . S
C480 C481 1.390 . S
C480 H497 0.931 . S
C481 C479 1.372 . S
C481 C480 1.390 . S
C481 H498 0.929 . S
C482 C477 1.390 . S
C482 C478 1.392 . S
C482 H499 0.930 . S
C483 O468 1.255 . S
C483 O469 1.257 . S
C484 Eu420 2.787 . S
C484 O464 1.252 . S
C484 O467 1.268 . S
C484 C477 1.506 . S
C485 C452 1.439 . S
C485 H462 0.931 . S
C485 C486 1.374 . S
C486 C457 1.387 . S
C486 H463 0.931 . S
C486 C485 1.374 . S
C487 O471 1.249 . S
C487 O472 1.264 . S
C488 C491 1.382 . S
C488 C492 1.390 . S
C488 C495 1.506 . S
C489 C490 1.398 . S
C489 C492 1.392 . S
C490 C489 1.398 . S
C490 C493 1.372 . S
C490 H500 0.931 . S
C491 C488 1.382 . S
C491 C493 1.390 . S
C491 H501 0.931 . S
C492 C488 1.390 . S
C492 C489 1.392 . S
C492 H502 0.930 . S
C493 C490 1.372 . S
C493 C491 1.390 . S
C493 H503 0.929 . S
C494 O474 1.255 . S
C494 O475 1.257 . S
C495 Eu431 2.787 . S
C495 O470 1.252 . S
C495 O473 1.268 . S
C495 C488 1.506 . S
H496 C479 0.931 . S
H497 C480 0.931 . S
H498 C481 0.929 . S
H499 C482 0.930 . S
H500 C490 0.931 . S
H501 C491 0.931 . S
H502 C492 0.930 . S
H503 C493 0.929 . S
Eu504 N533 2.600 . S
Eu504 N539 2.562 . S
Eu504 O548 2.462 . S
Eu504 O549 2.373 . S
Eu504 O551 2.432 . S
Eu504 O552 2.291 . S
Eu504 O556 2.335 . S
Eu504 O559 2.372 . S
Eu504 C568 2.787 . S
C505 N506 1.365 . S
C505 C508 1.405 . S
C505 C512 1.448 . S
N506 C505 1.365 . S
N506 C509 1.319 . S
N506 Eu515 2.600 . S
C507 C509 1.397 . S
C507 C510 1.367 . S
C507 H527 0.931 . S
C508 C505 1.405 . S
C508 C510 1.403 . S
C508 C514 1.439 . S
C509 N506 1.319 . S
C509 C507 1.397 . S
C509 H520 0.930 . S
C510 C507 1.367 . S
C510 C508 1.403 . S
C510 H531 0.929 . S
C511 C512 1.430 . S
C511 C513 1.387 . S
C511 C517 1.404 . S
C512 C505 1.448 . S
C512 C511 1.430 . S
C512 N516 1.351 . S
C513 C511 1.387 . S
C513 C514 1.374 . S
C513 H528 0.931 . S
C514 C508 1.439 . S
C514 C513 1.374 . S
C514 H529 0.931 . S
Eu515 N506 2.600 . S
Eu515 N516 2.562 . S
Eu515 O550 2.335 . S
Eu515 O553 2.372 . S
Eu515 O554 2.462 . S
Eu515 O555 2.373 . S
Eu515 O557 2.432 . S
Eu515 O558 2.291 . S
Eu515 C579 2.787 . S
N516 C512 1.351 . S
N516 Eu515 2.562 . S
N516 C518 1.325 . S
C517 C511 1.404 . S
C517 C519 1.366 . S
C517 H525 0.930 . S
C518 N516 1.325 . S
C518 C519 1.416 . S
C518 H524 0.929 . S
C519 C517 1.366 . S
C519 C518 1.416 . S
C519 H521 0.930 . S
H520 C509 0.930 . S
H521 C519 0.930 . S
H522 C537 0.930 . S
H523 C544 0.930 . S
H524 C518 0.929 . S
H525 C517 0.930 . S
H526 C540 0.929 . S
H527 C507 0.931 . S
H528 C513 0.931 . S
H529 C514 0.931 . S
H530 C535 0.931 . S
H531 C510 0.929 . S
H532 C543 0.930 . S
N533 Eu504 2.600 . S
N533 C534 1.365 . S
N533 C537 1.319 . S
C534 N533 1.365 . S
C534 C536 1.405 . S
C534 C542 1.448 . S
C535 H530 0.931 . S
C535 C537 1.397 . S
C535 C538 1.367 . S
C536 C534 1.405 . S
C536 C538 1.403 . S
C536 C569 1.439 . S
C537 H522 0.930 . S
C537 N533 1.319 . S
C537 C535 1.397 . S
C538 C535 1.367 . S
C538 C536 1.403 . S
C538 H545 0.929 . S
N539 Eu504 2.562 . S
N539 C540 1.325 . S
N539 C542 1.351 . S
C540 H526 0.929 . S
C540 N539 1.325 . S
C540 C544 1.416 . S
C541 C542 1.430 . S
C541 C543 1.404 . S
C541 C570 1.387 . S
C542 C534 1.448 . S
C542 N539 1.351 . S
C542 C541 1.430 . S
C543 H532 0.930 . S
C543 C541 1.404 . S
C543 C544 1.366 . S
C544 H523 0.930 . S
C544 C540 1.416 . S
C544 C543 1.366 . S
H545 C538 0.929 . S
H546 C569 0.931 . S
H547 C570 0.931 . S
O548 Eu504 2.462 . S
O548 C568 1.252 . S
O549 Eu504 2.373 . S
O549 C560 1.249 . S
O550 Eu515 2.335 . S
O550 C560 1.264 . S
O551 Eu504 2.432 . S
O551 C568 1.268 . S
O552 Eu504 2.291 . S
O552 C567 1.255 . S
O553 Eu515 2.372 . S
O553 C567 1.257 . S
O554 Eu515 2.462 . S
O554 C579 1.252 . S
O555 Eu515 2.373 . S
O555 C571 1.249 . S
O556 Eu504 2.335 . S
O556 C571 1.264 . S
O557 Eu515 2.432 . S
O557 C579 1.268 . S
O558 Eu515 2.291 . S
O558 C578 1.255 . S
O559 Eu504 2.372 . S
O559 C578 1.257 . S
C560 O549 1.249 . S
C560 O550 1.264 . S
C561 C564 1.382 . S
C561 C566 1.390 . S
C561 C568 1.506 . S
C562 C563 1.398 . S
C562 C566 1.392 . S
C563 C562 1.398 . S
C563 C565 1.372 . S
C563 H580 0.931 . S
C564 C561 1.382 . S
C564 C565 1.390 . S
C564 H581 0.931 . S
C565 C563 1.372 . S
C565 C564 1.390 . S
C565 H582 0.929 . S
C566 C561 1.390 . S
C566 C562 1.392 . S
C566 H583 0.930 . S
C567 O552 1.255 . S
C567 O553 1.257 . S
C568 Eu504 2.787 . S
C568 O548 1.252 . S
C568 O551 1.268 . S
C568 C561 1.506 . S
C569 C536 1.439 . S
C569 H546 0.931 . S
C569 C570 1.374 . S
C570 C541 1.387 . S
C570 H547 0.931 . S
C570 C569 1.374 . S
C571 O555 1.249 . S
C571 O556 1.264 . S
C572 C575 1.382 . S
C572 C576 1.390 . S
C572 C579 1.506 . S
C573 C574 1.398 . S
C573 C576 1.392 . S
C574 C573 1.398 . S
C574 C577 1.372 . S
C574 H584 0.931 . S
C575 C572 1.382 . S
C575 C577 1.390 . S
C575 H585 0.931 . S
C576 C572 1.390 . S
C576 C573 1.392 . S
C576 H586 0.930 . S
C577 C574 1.372 . S
C577 C575 1.390 . S
C577 H587 0.929 . S
C578 O558 1.255 . S
C578 O559 1.257 . S
C579 Eu515 2.787 . S
C579 O554 1.252 . S
C579 O557 1.268 . S
C579 C572 1.506 . S
H580 C563 0.931 . S
H581 C564 0.931 . S
H582 C565 0.929 . S
H583 C566 0.930 . S
H584 C574 0.931 . S
H585 C575 0.931 . S
H586 C576 0.930 . S
H587 C577 0.929 . S
Eu588 N617 2.600 . S
Eu588 N623 2.562 . S
Eu588 O632 2.462 . S
Eu588 O633 2.373 . S
Eu588 O635 2.432 . S
Eu588 O636 2.291 . S
Eu588 O640 2.335 . S
Eu588 O643 2.372 . S
Eu588 C652 2.787 . S
C589 N590 1.365 . S
C589 C592 1.405 1_455 S
C589 C596 1.448 . S
N590 C589 1.365 . S
N590 C593 1.319 1_455 S
N590 Eu599 2.600 . S
C591 C593 1.397 . S
C591 C594 1.367 . S
C591 H611 0.931 . S
C592 C589 1.405 1_655 S
C592 C594 1.403 . S
C592 C598 1.439 . S
C593 N590 1.319 1_655 S
C593 C591 1.397 . S
C593 H604 0.930 . S
C594 C591 1.367 . S
C594 C592 1.403 . S
C594 H615 0.929 . S
C595 C596 1.430 . S
C595 C597 1.387 1_455 S
C595 C601 1.404 . S
C596 C589 1.448 . S
C596 C595 1.430 . S
C596 N600 1.351 . S
C597 C595 1.387 1_655 S
C597 C598 1.374 . S
C597 H612 0.931 . S
C598 C592 1.439 . S
C598 C597 1.374 . S
C598 H613 0.931 . S
Eu599 N590 2.600 . S
Eu599 N600 2.562 . S
Eu599 O634 2.335 . S
Eu599 O637 2.372 . S
Eu599 O638 2.462 . S
Eu599 O639 2.373 . S
Eu599 O641 2.432 . S
Eu599 O642 2.291 . S
Eu599 C663 2.787 . S
N600 C596 1.351 . S
N600 Eu599 2.562 . S
N600 C602 1.325 . S
C601 C595 1.404 . S
C601 C603 1.366 . S
C601 H609 0.930 . S
C602 N600 1.325 . S
C602 C603 1.416 . S
C602 H608 0.929 . S
C603 C601 1.366 . S
C603 C602 1.416 . S
C603 H605 0.930 . S
H604 C593 0.930 . S
H605 C603 0.930 . S
H606 C621 0.930 . S
H607 C628 0.930 . S
H608 C602 0.929 . S
H609 C601 0.930 . S
H610 C624 0.929 . S
H611 C591 0.931 . S
H612 C597 0.931 . S
H613 C598 0.931 . S
H614 C619 0.931 . S
H615 C594 0.929 . S
H616 C627 0.930 . S
N617 Eu588 2.600 . S
N617 C618 1.365 . S
N617 C621 1.319 . S
C618 N617 1.365 . S
C618 C620 1.405 . S
C618 C626 1.448 . S
C619 H614 0.931 . S
C619 C621 1.397 . S
C619 C622 1.367 . S
C620 C618 1.405 . S
C620 C622 1.403 . S
C620 C653 1.439 . S
C621 H606 0.930 . S
C621 N617 1.319 . S
C621 C619 1.397 . S
C622 C619 1.367 . S
C622 C620 1.403 . S
C622 H629 0.929 . S
N623 Eu588 2.562 . S
N623 C624 1.325 . S
N623 C626 1.351 . S
C624 H610 0.929 . S
C624 N623 1.325 . S
C624 C628 1.416 . S
C625 C626 1.430 . S
C625 C627 1.404 . S
C625 C654 1.387 . S
C626 C618 1.448 . S
C626 N623 1.351 . S
C626 C625 1.430 . S
C627 H616 0.930 . S
C627 C625 1.404 . S
C627 C628 1.366 . S
C628 H607 0.930 . S
C628 C624 1.416 . S
C628 C627 1.366 . S
H629 C622 0.929 . S
H630 C653 0.931 . S
H631 C654 0.931 . S
O632 Eu588 2.462 . S
O632 C652 1.252 . S
O633 Eu588 2.373 . S
O633 C644 1.249 . S
O634 Eu599 2.335 . S
O634 C644 1.264 . S
O635 Eu588 2.432 . S
O635 C652 1.268 . S
O636 Eu588 2.291 . S
O636 C651 1.255 . S
O637 Eu599 2.372 . S
O637 C651 1.257 . S
O638 Eu599 2.462 . S
O638 C663 1.252 . S
O639 Eu599 2.373 . S
O639 C655 1.249 . S
O640 Eu588 2.335 . S
O640 C655 1.264 . S
O641 Eu599 2.432 . S
O641 C663 1.268 . S
O642 Eu599 2.291 . S
O642 C662 1.255 . S
O643 Eu588 2.372 . S
O643 C662 1.257 . S
C644 O633 1.249 . S
C644 O634 1.264 . S
C645 C648 1.382 . S
C645 C650 1.390 . S
C645 C652 1.506 . S
C646 C647 1.398 . S
C646 C650 1.392 . S
C647 C646 1.398 . S
C647 C649 1.372 . S
C647 H664 0.931 . S
C648 C645 1.382 . S
C648 C649 1.390 . S
C648 H665 0.931 . S
C649 C647 1.372 . S
C649 C648 1.390 . S
C649 H666 0.929 . S
C650 C645 1.390 . S
C650 C646 1.392 . S
C650 H667 0.930 . S
C651 O636 1.255 . S
C651 O637 1.257 . S
C652 Eu588 2.787 . S
C652 O632 1.252 . S
C652 O635 1.268 . S
C652 C645 1.506 . S
C653 C620 1.439 . S
C653 H630 0.931 . S
C653 C654 1.374 . S
C654 C625 1.387 . S
C654 H631 0.931 . S
C654 C653 1.374 . S
C655 O639 1.249 . S
C655 O640 1.264 . S
C656 C659 1.382 . S
C656 C660 1.390 . S
C656 C663 1.506 . S
C657 C658 1.398 . S
C657 C660 1.392 . S
C658 C657 1.398 . S
C658 C661 1.372 . S
C658 H668 0.931 . S
C659 C656 1.382 . S
C659 C661 1.390 . S
C659 H669 0.931 . S
C660 C656 1.390 . S
C660 C657 1.392 . S
C660 H670 0.930 . S
C661 C658 1.372 . S
C661 C659 1.390 . S
C661 H671 0.934 1_455 S
C662 O642 1.255 . S
C662 O643 1.257 . S
C663 Eu599 2.787 . S
C663 O638 1.252 . S
C663 O641 1.268 . S
C663 C656 1.506 . S
H664 C647 0.931 . S
H665 C648 0.931 . S
H666 C649 0.929 . S
H667 C650 0.930 . S
H668 C658 0.931 . S
H669 C659 0.931 . S
H670 C660 0.930 . S
H671 C661 0.934 1_655 S
Eu672 N701 2.600 . S
Eu672 N707 2.562 . S
Eu672 O716 2.462 . S
Eu672 O717 2.373 . S
Eu672 O719 2.432 . S
Eu672 O720 2.291 . S
Eu672 O724 2.335 . S
Eu672 O727 2.372 . S
Eu672 C736 2.787 . S
C673 N674 1.365 . S
C673 C676 1.405 . S
C673 C680 1.448 . S
N674 C673 1.365 . S
N674 C677 1.319 . S
N674 Eu683 2.600 . S
C675 C677 1.397 . S
C675 C678 1.367 . S
C675 H695 0.931 . S
C676 C673 1.405 . S
C676 C678 1.403 . S
C676 C682 1.439 . S
C677 N674 1.319 . S
C677 C675 1.397 . S
C677 H688 0.930 . S
C678 C675 1.367 . S
C678 C676 1.403 . S
C678 H699 0.929 . S
C679 C680 1.430 . S
C679 C681 1.387 . S
C679 C685 1.404 . S
C680 C673 1.448 . S
C680 C679 1.430 . S
C680 N684 1.351 . S
C681 C679 1.387 . S
C681 C682 1.374 . S
C681 H696 0.931 . S
C682 C676 1.439 . S
C682 C681 1.374 . S
C682 H697 0.931 . S
Eu683 N674 2.600 . S
Eu683 N684 2.562 . S
Eu683 O718 2.335 . S
Eu683 O721 2.372 . S
Eu683 O722 2.462 . S
Eu683 O723 2.373 . S
Eu683 O725 2.432 . S
Eu683 O726 2.291 . S
Eu683 C747 2.787 . S
N684 C680 1.351 . S
N684 Eu683 2.562 . S
N684 C686 1.325 . S
C685 C679 1.404 . S
C685 C687 1.366 . S
C685 H693 0.930 . S
C686 N684 1.325 . S
C686 C687 1.416 . S
C686 H692 0.929 . S
C687 C685 1.366 . S
C687 C686 1.416 . S
C687 H689 0.930 . S
H688 C677 0.930 . S
H689 C687 0.930 . S
H690 C705 0.930 . S
H691 C712 0.930 . S
H692 C686 0.929 . S
H693 C685 0.930 . S
H694 C708 0.929 . S
H695 C675 0.931 . S
H696 C681 0.931 . S
H697 C682 0.931 . S
H698 C703 0.931 . S
H699 C678 0.929 . S
H700 C711 0.930 . S
N701 Eu672 2.600 . S
N701 C702 1.365 . S
N701 C705 1.319 . S
C702 N701 1.365 . S
C702 C704 1.405 . S
C702 C710 1.448 . S
C703 H698 0.931 . S
C703 C705 1.397 . S
C703 C706 1.367 . S
C704 C702 1.405 . S
C704 C706 1.403 . S
C704 C737 1.439 . S
C705 H690 0.930 . S
C705 N701 1.319 . S
C705 C703 1.397 . S
C706 C703 1.367 . S
C706 C704 1.403 . S
C706 H713 0.929 . S
N707 Eu672 2.562 . S
N707 C708 1.325 . S
N707 C710 1.351 . S
C708 H694 0.929 . S
C708 N707 1.325 . S
C708 C712 1.416 . S
C709 C710 1.430 . S
C709 C711 1.404 . S
C709 C738 1.387 . S
C710 C702 1.448 . S
C710 N707 1.351 . S
C710 C709 1.430 . S
C711 H700 0.930 . S
C711 C709 1.404 . S
C711 C712 1.366 . S
C712 H691 0.930 . S
C712 C708 1.416 . S
C712 C711 1.366 . S
H713 C706 0.929 . S
H714 C737 0.931 . S
H715 C738 0.931 . S
O716 Eu672 2.462 . S
O716 C736 1.252 . S
O717 Eu672 2.373 . S
O717 C728 1.249 . S
O718 Eu683 2.335 . S
O718 C728 1.264 . S
O719 Eu672 2.432 . S
O719 C736 1.268 . S
O720 Eu672 2.291 . S
O720 C735 1.255 . S
O721 Eu683 2.372 . S
O721 C735 1.257 . S
O722 Eu683 2.462 . S
O722 C747 1.252 . S
O723 Eu683 2.373 . S
O723 C739 1.249 . S
O724 Eu672 2.335 . S
O724 C739 1.264 . S
O725 Eu683 2.432 . S
O725 C747 1.268 . S
O726 Eu683 2.291 . S
O726 C746 1.255 . S
O727 Eu672 2.372 . S
O727 C746 1.257 . S
C728 O717 1.249 . S
C728 O718 1.264 . S
C729 C732 1.382 . S
C729 C734 1.390 . S
C729 C736 1.506 . S
C730 C731 1.398 . S
C730 C734 1.392 . S
C731 C730 1.398 . S
C731 C733 1.372 . S
C731 H748 0.931 . S
C732 C729 1.382 . S
C732 C733 1.390 . S
C732 H749 0.931 . S
C733 C731 1.372 . S
C733 C732 1.390 . S
C733 H750 0.929 . S
C734 C729 1.390 . S
C734 C730 1.392 . S
C734 H751 0.930 . S
C735 O720 1.255 . S
C735 O721 1.257 . S
C736 Eu672 2.787 . S
C736 O716 1.252 . S
C736 O719 1.268 . S
C736 C729 1.506 . S
C737 C704 1.439 . S
C737 H714 0.931 . S
C737 C738 1.374 . S
C738 C709 1.387 . S
C738 H715 0.931 . S
C738 C737 1.374 . S
C739 O723 1.249 . S
C739 O724 1.264 . S
C740 C743 1.382 . S
C740 C744 1.390 . S
C740 C747 1.506 . S
C741 C742 1.420 . S
C741 C744 1.392 . S
C742 C741 1.420 . S
C742 C745 1.383 . S
C742 H752 0.899 1_655 S
C743 C740 1.382 . S
C743 C745 1.390 . S
C743 H753 0.931 . S
C744 C740 1.390 . S
C744 C741 1.392 . S
C744 H754 0.930 . S
C745 C742 1.383 . S
C745 C743 1.390 . S
C745 H755 0.929 1_655 S
C746 O726 1.255 . S
C746 O727 1.257 . S
C747 Eu683 2.787 . S
C747 O722 1.252 . S
C747 O725 1.268 . S
C747 C740 1.506 . S
H748 C731 0.931 . S
H749 C732 0.931 . S
H750 C733 0.929 . S
H751 C734 0.930 . S
H752 C742 0.899 1_455 S
H753 C743 0.931 . S
H754 C744 0.930 . S
H755 C745 0.929 1_455 S
Eu756 N785 2.600 . S
Eu756 N791 2.562 . S
Eu756 O800 2.462 . S
Eu756 O801 2.373 . S
Eu756 O803 2.432 . S
Eu756 O804 2.291 . S
Eu756 O808 2.335 . S
Eu756 O811 2.372 . S
Eu756 C820 2.787 . S
C757 N758 1.365 . S
C757 C760 1.405 . S
C757 C764 1.448 . S
N758 C757 1.365 . S
N758 C761 1.319 . S
N758 Eu767 2.600 . S
C759 C761 1.397 . S
C759 C762 1.367 . S
C759 H779 0.931 . S
C760 C757 1.405 . S
C760 C762 1.403 . S
C760 C766 1.439 . S
C761 N758 1.319 . S
C761 C759 1.397 . S
C761 H772 0.930 . S
C762 C759 1.367 . S
C762 C760 1.403 . S
C762 H783 0.929 . S
C763 C764 1.430 . S
C763 C765 1.387 . S
C763 C769 1.404 . S
C764 C757 1.448 . S
C764 C763 1.430 . S
C764 N768 1.351 . S
C765 C763 1.387 . S
C765 C766 1.374 . S
C765 H780 0.931 . S
C766 C760 1.439 . S
C766 C765 1.374 . S
C766 H781 0.931 . S
Eu767 N758 2.600 . S
Eu767 N768 2.562 . S
Eu767 O802 2.335 . S
Eu767 O805 2.372 . S
Eu767 O806 2.462 . S
Eu767 O807 2.373 . S
Eu767 O809 2.432 . S
Eu767 O810 2.291 . S
Eu767 C831 2.787 . S
N768 C764 1.351 . S
N768 Eu767 2.562 . S
N768 C770 1.325 . S
C769 C763 1.404 . S
C769 C771 1.366 . S
C769 H777 0.930 . S
C770 N768 1.325 . S
C770 C771 1.416 . S
C770 H776 0.929 . S
C771 C769 1.366 . S
C771 C770 1.416 . S
C771 H773 0.930 . S
H772 C761 0.930 . S
H773 C771 0.930 . S
H774 C789 0.930 . S
H775 C796 0.930 . S
H776 C770 0.929 . S
H777 C769 0.930 . S
H778 C792 0.929 . S
H779 C759 0.931 . S
H780 C765 0.931 . S
H781 C766 0.931 . S
H782 C787 0.931 . S
H783 C762 0.929 . S
H784 C795 0.930 . S
N785 Eu756 2.600 . S
N785 C786 1.365 . S
N785 C789 1.319 1_455 S
C786 N785 1.365 . S
C786 C788 1.405 1_455 S
C786 C794 1.448 . S
C787 H782 0.931 . S
C787 C789 1.397 . S
C787 C790 1.367 . S
C788 C786 1.405 1_655 S
C788 C790 1.403 . S
C788 C821 1.439 . S
C789 H774 0.930 . S
C789 N785 1.319 1_655 S
C789 C787 1.397 . S
C790 C787 1.367 . S
C790 C788 1.403 . S
C790 H797 0.929 . S
N791 Eu756 2.562 . S
N791 C792 1.325 . S
N791 C794 1.351 . S
C792 H778 0.929 . S
C792 N791 1.325 . S
C792 C796 1.416 . S
C793 C794 1.430 . S
C793 C795 1.404 . S
C793 C822 1.387 1_455 S
C794 C786 1.448 . S
C794 N791 1.351 . S
C794 C793 1.430 . S
C795 H784 0.930 . S
C795 C793 1.404 . S
C795 C796 1.366 . S
C796 H775 0.930 . S
C796 C792 1.416 . S
C796 C795 1.366 . S
H797 C790 0.929 . S
H798 C821 0.931 . S
H799 C822 0.931 . S
O800 Eu756 2.462 . S
O800 C820 1.252 . S
O801 Eu756 2.373 . S
O801 C812 1.249 . S
O802 Eu767 2.335 . S
O802 C812 1.264 . S
O803 Eu756 2.432 . S
O803 C820 1.268 . S
O804 Eu756 2.291 . S
O804 C819 1.255 . S
O805 Eu767 2.372 . S
O805 C819 1.257 . S
O806 Eu767 2.462 . S
O806 C831 1.252 . S
O807 Eu767 2.373 . S
O807 C823 1.249 . S
O808 Eu756 2.335 . S
O808 C823 1.264 . S
O809 Eu767 2.432 . S
O809 C831 1.268 . S
O810 Eu767 2.291 . S
O810 C830 1.255 . S
O811 Eu756 2.372 . S
O811 C830 1.257 . S
C812 O801 1.249 . S
C812 O802 1.264 . S
C813 C816 1.382 . S
C813 C818 1.390 . S
C813 C820 1.506 . S
C814 C815 1.398 . S
C814 C818 1.392 . S
C815 C814 1.398 . S
C815 C817 1.372 . S
C815 H832 0.931 1_545 S
C816 C813 1.382 . S
C816 C817 1.390 . S
C816 H833 0.931 . S
C817 C815 1.372 . S
C817 C816 1.390 . S
C817 H834 0.932 1_455 S
C818 C813 1.390 . S
C818 C814 1.392 . S
C818 H835 0.930 . S
C819 O804 1.255 . S
C819 O805 1.257 . S
C820 Eu756 2.787 . S
C820 O800 1.252 . S
C820 O803 1.268 . S
C820 C813 1.506 . S
C821 C788 1.439 . S
C821 H798 0.931 . S
C821 C822 1.374 . S
C822 C793 1.387 1_655 S
C822 H799 0.931 . S
C822 C821 1.374 . S
C823 O807 1.249 . S
C823 O808 1.264 . S
C824 C827 1.382 . S
C824 C828 1.390 . S
C824 C831 1.506 . S
C825 C826 1.398 . S
C825 C828 1.392 . S
C826 C825 1.398 . S
C826 C829 1.372 . S
C826 H836 0.931 . S
C827 C824 1.382 . S
C827 C829 1.390 . S
C827 H837 0.931 . S
C828 C824 1.390 . S
C828 C825 1.392 . S
C828 H838 0.930 . S
C829 C826 1.372 . S
C829 C827 1.390 . S
C829 H839 0.929 . S
C830 O810 1.255 . S
C830 O811 1.257 . S
C831 Eu767 2.787 . S
C831 O806 1.252 . S
C831 O809 1.268 . S
C831 C824 1.506 . S
H832 C815 0.931 1_565 S
H833 C816 0.931 . S
H834 C817 0.932 1_655 S
H835 C818 0.930 . S
H836 C826 0.931 . S
H837 C827 0.931 . S
H838 C828 0.930 . S
H839 C829 0.929 . S
Eu840 N869 2.600 . S
Eu840 N875 2.562 . S
Eu840 O884 2.462 1_554 S
Eu840 O885 2.373 . S
Eu840 O887 2.432 1_554 S
Eu840 O888 2.291 . S
Eu840 O892 2.335 1_554 S
Eu840 O895 2.372 . S
Eu840 C904 2.787 1_554 S
C841 N842 1.365 . S
C841 C844 1.405 . S
C841 C848 1.448 . S
N842 C841 1.365 . S
N842 C845 1.319 . S
N842 Eu851 2.600 . S
C843 C845 1.397 . S
C843 C846 1.367 . S
C843 H863 0.931 . S
C844 C841 1.405 . S
C844 C846 1.403 . S
C844 C850 1.439 . S
C845 N842 1.319 . S
C845 C843 1.397 . S
C845 H856 0.930 . S
C846 C843 1.367 . S
C846 C844 1.403 . S
C846 H867 0.929 . S
C847 C848 1.430 . S
C847 C849 1.387 . S
C847 C853 1.404 . S
C848 C841 1.448 . S
C848 C847 1.430 . S
C848 N852 1.351 . S
C849 C847 1.387 . S
C849 C850 1.374 . S
C849 H864 0.931 . S
C850 C844 1.439 . S
C850 C849 1.374 . S
C850 H865 0.931 . S
Eu851 N842 2.600 . S
Eu851 N852 2.562 . S
Eu851 O886 2.335 . S
Eu851 O889 2.372 . S
Eu851 O890 2.462 . S
Eu851 O891 2.373 . S
Eu851 O893 2.432 . S
Eu851 O894 2.291 . S
Eu851 C915 2.787 . S
N852 C848 1.351 . S
N852 Eu851 2.562 . S
N852 C854 1.325 . S
C853 C847 1.404 . S
C853 C855 1.366 . S
C853 H861 0.930 . S
C854 N852 1.325 . S
C854 C855 1.416 . S
C854 H860 0.929 . S
C855 C853 1.366 . S
C855 C854 1.416 . S
C855 H857 0.930 . S
H856 C845 0.930 . S
H857 C855 0.930 . S
H858 C873 0.930 . S
H859 C880 0.930 . S
H860 C854 0.929 . S
H861 C853 0.930 . S
H862 C876 0.929 . S
H863 C843 0.931 . S
H864 C849 0.931 . S
H865 C850 0.931 . S
H866 C871 0.931 . S
H867 C846 0.929 . S
H868 C879 0.930 . S
N869 Eu840 2.600 . S
N869 C870 1.365 . S
N869 C873 1.319 1_554 S
C870 N869 1.365 . S
C870 C872 1.405 . S
C870 C878 1.448 . S
C871 H866 0.931 . S
C871 C873 1.397 . S
C871 C874 1.367 . S
C872 C870 1.405 . S
C872 C874 1.403 1_554 S
C872 C905 1.439 . S
C873 H858 0.930 . S
C873 N869 1.319 1_556 S
C873 C871 1.397 . S
C874 C871 1.367 . S
C874 C872 1.403 1_556 S
C874 H881 0.929 . S
N875 Eu840 2.562 . S
N875 C876 1.325 . S
N875 C878 1.351 . S
C876 H862 0.929 . S
C876 N875 1.325 . S
C876 C880 1.416 . S
C877 C878 1.430 . S
C877 C879 1.404 . S
C877 C906 1.387 . S
C878 C870 1.448 . S
C878 N875 1.351 . S
C878 C877 1.430 . S
C879 H868 0.930 . S
C879 C877 1.404 . S
C879 C880 1.366 . S
C880 H859 0.930 . S
C880 C876 1.416 . S
C880 C879 1.366 . S
H881 C874 0.929 . S
H882 C905 0.931 . S
H883 C906 0.931 . S
O884 Eu840 2.462 1_556 S
O884 C904 1.252 . S
O885 Eu840 2.373 . S
O885 C896 1.249 . S
O886 Eu851 2.335 . S
O886 C896 1.264 . S
O887 Eu840 2.432 1_556 S
O887 C904 1.268 . S
O888 Eu840 2.291 . S
O888 C903 1.255 . S
O889 Eu851 2.372 . S
O889 C903 1.257 . S
O890 Eu851 2.462 . S
O890 C915 1.252 . S
O891 Eu851 2.373 . S
O891 C907 1.249 1_554 S
O892 Eu840 2.335 1_556 S
O892 C907 1.264 . S
O893 Eu851 2.432 . S
O893 C915 1.268 . S
O894 Eu851 2.291 . S
O894 C914 1.255 . S
O895 Eu840 2.372 . S
O895 C914 1.257 . S
C896 O885 1.249 . S
C896 O886 1.264 . S
C897 C900 1.382 . S
C897 C902 1.390 . S
C897 C904 1.506 . S
C898 C899 1.398 . S
C898 C902 1.392 . S
C899 C898 1.398 . S
C899 C901 1.372 . S
C899 H916 0.931 . S
C900 C897 1.382 . S
C900 C901 1.390 . S
C900 H917 0.931 . S
C901 C899 1.372 . S
C901 C900 1.390 . S
C901 H918 0.929 . S
C902 C897 1.390 . S
C902 C898 1.392 . S
C902 H919 0.930 . S
C903 O888 1.255 . S
C903 O889 1.257 . S
C904 Eu840 2.787 1_556 S
C904 O884 1.252 . S
C904 O887 1.268 . S
C904 C897 1.506 . S
C905 C872 1.439 . S
C905 H882 0.931 . S
C905 C906 1.374 . S
C906 C877 1.387 . S
C906 H883 0.931 . S
C906 C905 1.374 . S
C907 O891 1.249 1_556 S
C907 O892 1.264 . S
C908 C911 1.382 . S
C908 C912 1.390 . S
C908 C915 1.506 . S
C909 C910 1.398 . S
C909 C912 1.392 . S
C910 C909 1.398 . S
C910 C913 1.372 . S
C910 H920 0.931 . S
C911 C908 1.382 . S
C911 C913 1.390 . S
C911 H921 0.931 . S
C912 C908 1.390 . S
C912 C909 1.392 . S
C912 H922 0.930 . S
C913 C910 1.372 . S
C913 C911 1.390 . S
C913 H923 0.929 . S
C914 O894 1.255 . S
C914 O895 1.257 . S
C915 Eu851 2.787 . S
C915 O890 1.252 . S
C915 O893 1.268 . S
C915 C908 1.506 . S
H916 C899 0.931 . S
H917 C900 0.931 . S
H918 C901 0.929 . S
H919 C902 0.930 . S
H920 C910 0.931 . S
H921 C911 0.931 . S
H922 C912 0.930 . S
H923 C913 0.929 . S
Eu924 N953 2.600 . S
Eu924 N959 2.562 . S
Eu924 O968 2.462 . S
Eu924 O969 2.373 . S
Eu924 O971 2.432 . S
Eu924 O972 2.291 . S
Eu924 O976 2.335 . S
Eu924 O979 2.372 . S
Eu924 C988 2.787 . S
C925 N926 1.365 . S
C925 C928 1.405 . S
C925 C932 1.448 . S
N926 C925 1.365 . S
N926 C929 1.319 . S
N926 Eu935 2.600 . S
C927 C929 1.397 . S
C927 C930 1.367 . S
C927 H947 0.931 . S
C928 C925 1.405 . S
C928 C930 1.403 . S
C928 C934 1.439 . S
C929 N926 1.319 . S
C929 C927 1.397 . S
C929 H940 0.930 . S
C930 C927 1.367 . S
C930 C928 1.403 . S
C930 H951 0.929 . S
C931 C932 1.430 . S
C931 C933 1.387 . S
C931 C937 1.404 . S
C932 C925 1.448 . S
C932 C931 1.430 . S
C932 N936 1.351 . S
C933 C931 1.387 . S
C933 C934 1.374 . S
C933 H948 0.931 . S
C934 C928 1.439 . S
C934 C933 1.374 . S
C934 H949 0.931 . S
Eu935 N926 2.600 . S
Eu935 N936 2.562 . S
Eu935 O970 2.335 . S
Eu935 O973 2.372 . S
Eu935 O974 2.462 . S
Eu935 O975 2.373 . S
Eu935 O977 2.432 . S
Eu935 O978 2.291 . S
Eu935 C999 2.787 . S
N936 C932 1.351 . S
N936 Eu935 2.562 . S
N936 C938 1.325 . S
C937 C931 1.404 . S
C937 C939 1.366 . S
C937 H945 0.930 . S
C938 N936 1.325 . S
C938 C939 1.416 . S
C938 H944 0.929 . S
C939 C937 1.366 . S
C939 C938 1.416 . S
C939 H941 0.930 . S
H940 C929 0.930 . S
H941 C939 0.930 . S
H942 C957 0.930 . S
H943 C964 0.930 . S
H944 C938 0.929 . S
H945 C937 0.930 . S
H946 C960 0.929 . S
H947 C927 0.931 . S
H948 C933 0.931 . S
H949 C934 0.931 . S
H950 C955 0.931 . S
H951 C930 0.929 . S
H952 C963 0.930 . S
N953 Eu924 2.600 . S
N953 C954 1.365 . S
N953 C957 1.319 . S
C954 N953 1.365 . S
C954 C956 1.405 . S
C954 C962 1.448 . S
C955 H950 0.931 . S
C955 C957 1.397 . S
C955 C958 1.367 . S
C956 C954 1.405 . S
C956 C958 1.403 . S
C956 C989 1.439 . S
C957 H942 0.930 . S
C957 N953 1.319 . S
C957 C955 1.397 . S
C958 C955 1.367 . S
C958 C956 1.403 . S
C958 H965 0.929 . S
N959 Eu924 2.562 . S
N959 C960 1.325 . S
N959 C962 1.351 . S
C960 H946 0.929 . S
C960 N959 1.325 . S
C960 C964 1.416 . S
C961 C962 1.430 . S
C961 C963 1.404 . S
C961 C990 1.387 . S
C962 C954 1.448 . S
C962 N959 1.351 . S
C962 C961 1.430 . S
C963 H952 0.930 . S
C963 C961 1.404 . S
C963 C964 1.366 . S
C964 H943 0.930 . S
C964 C960 1.416 . S
C964 C963 1.366 . S
H965 C958 0.929 . S
H966 C989 0.931 . S
H967 C990 0.931 . S
O968 Eu924 2.462 . S
O968 C988 1.252 . S
O969 Eu924 2.373 . S
O969 C980 1.249 . S
O970 Eu935 2.335 . S
O970 C980 1.264 . S
O971 Eu924 2.432 . S
O971 C988 1.268 . S
O972 Eu924 2.291 . S
O972 C987 1.255 . S
O973 Eu935 2.372 . S
O973 C987 1.257 . S
O974 Eu935 2.462 . S
O974 C999 1.252 . S
O975 Eu935 2.373 . S
O975 C991 1.249 . S
O976 Eu924 2.335 . S
O976 C991 1.264 . S
O977 Eu935 2.432 . S
O977 C999 1.268 . S
O978 Eu935 2.291 . S
O978 C998 1.255 . S
O979 Eu924 2.372 . S
O979 C998 1.257 . S
C980 O969 1.249 . S
C980 O970 1.264 . S
C981 C984 1.382 . S
C981 C986 1.390 . S
C981 C988 1.506 . S
C982 C983 1.398 . S
C982 C986 1.392 . S
C983 C982 1.398 . S
C983 C985 1.372 . S
C983 H1000 0.931 1_565 S
C984 C981 1.382 . S
C984 C985 1.390 . S
C984 H1001 0.931 . S
C985 C983 1.372 . S
C985 C984 1.390 . S
C985 H1002 0.929 . S
C986 C981 1.390 . S
C986 C982 1.392 . S
C986 H1003 0.930 . S
C987 O972 1.255 . S
C987 O973 1.257 . S
C988 Eu924 2.787 . S
C988 O968 1.252 . S
C988 O971 1.268 . S
C988 C981 1.506 . S
C989 C956 1.439 . S
C989 H966 0.931 . S
C989 C990 1.374 . S
C990 C961 1.387 . S
C990 H967 0.931 . S
C990 C989 1.374 . S
C991 O975 1.249 . S
C991 O976 1.264 . S
C992 C995 1.382 . S
C992 C996 1.390 . S
C992 C999 1.506 . S
C993 C994 1.398 . S
C993 C996 1.392 . S
C994 C993 1.398 . S
C994 C997 1.372 . S
C994 H1004 0.931 . S
C995 C992 1.382 . S
C995 C997 1.390 . S
C995 H1005 0.931 . S
C996 C992 1.390 . S
C996 C993 1.392 . S
C996 H1006 0.930 . S
C997 C994 1.372 . S
C997 C995 1.390 . S
C997 H1007 0.929 . S
C998 O978 1.255 . S
C998 O979 1.257 . S
C999 Eu935 2.787 . S
C999 O974 1.252 . S
C999 O977 1.268 . S
C999 C992 1.506 . S
H1000 C983 0.931 1_545 S
H1001 C984 0.931 . S
H1002 C985 0.929 . S
H1003 C986 0.930 . S
H1004 C994 0.931 . S
H1005 C995 0.931 . S
H1006 C996 0.930 . S
H1007 C997 0.929 . S
Eu1008 N1037 2.600 . S
Eu1008 N1043 2.562 . S
Eu1008 O1052 2.462 . S
Eu1008 O1053 2.373 . S
Eu1008 O1055 2.432 . S
Eu1008 O1056 2.291 . S
Eu1008 O1060 2.335 . S
Eu1008 O1063 2.372 . S
Eu1008 C1072 2.787 . S
C1009 N1010 1.365 . S
C1009 C1012 1.405 . S
C1009 C1016 1.448 . S
N1010 C1009 1.365 . S
N1010 C1013 1.319 . S
N1010 Eu1019 2.600 . S
C1011 C1013 1.397 . S
C1011 C1014 1.367 . S
C1011 H1031 0.931 . S
C1012 C1009 1.405 . S
C1012 C1014 1.403 . S
C1012 C1018 1.439 . S
C1013 N1010 1.319 . S
C1013 C1011 1.397 . S
C1013 H1024 0.930 . S
C1014 C1011 1.367 . S
C1014 C1012 1.403 . S
C1014 H1035 0.929 . S
C1015 C1016 1.430 . S
C1015 C1017 1.387 . S
C1015 C1021 1.404 . S
C1016 C1009 1.448 . S
C1016 C1015 1.430 . S
C1016 N1020 1.351 . S
C1017 C1015 1.387 . S
C1017 C1018 1.374 . S
C1017 H1032 0.931 . S
C1018 C1012 1.439 . S
C1018 C1017 1.374 . S
C1018 H1033 0.931 . S
Eu1019 N1010 2.600 . S
Eu1019 N1020 2.562 . S
Eu1019 O1054 2.335 . S
Eu1019 O1057 2.372 . S
Eu1019 O1058 2.462 . S
Eu1019 O1059 2.373 . S
Eu1019 O1061 2.432 . S
Eu1019 O1062 2.291 . S
Eu1019 C1083 2.787 . S
N1020 C1016 1.351 . S
N1020 Eu1019 2.562 . S
N1020 C1022 1.325 . S
C1021 C1015 1.404 . S
C1021 C1023 1.366 . S
C1021 H1029 0.930 . S
C1022 N1020 1.325 . S
C1022 C1023 1.416 . S
C1022 H1028 0.929 . S
C1023 C1021 1.366 . S
C1023 C1022 1.416 . S
C1023 H1025 0.930 . S
H1024 C1013 0.930 . S
H1025 C1023 0.930 . S
H1026 C1041 0.930 . S
H1027 C1048 0.930 . S
H1028 C1022 0.929 . S
H1029 C1021 0.930 . S
H1030 C1044 0.929 . S
H1031 C1011 0.931 . S
H1032 C1017 0.931 . S
H1033 C1018 0.931 . S
H1034 C1039 0.931 . S
H1035 C1014 0.929 . S
H1036 C1047 0.930 . S
N1037 Eu1008 2.600 . S
N1037 C1038 1.365 . S
N1037 C1041 1.319 . S
C1038 N1037 1.365 . S
C1038 C1040 1.405 . S
C1038 C1046 1.448 . S
C1039 H1034 0.931 . S
C1039 C1041 1.397 . S
C1039 C1042 1.367 . S
C1040 C1038 1.405 . S
C1040 C1042 1.403 . S
C1040 C1073 1.439 . S
C1041 H1026 0.930 . S
C1041 N1037 1.319 . S
C1041 C1039 1.397 . S
C1042 C1039 1.367 . S
C1042 C1040 1.403 . S
C1042 H1049 0.929 . S
N1043 Eu1008 2.562 . S
N1043 C1044 1.325 . S
N1043 C1046 1.351 . S
C1044 H1030 0.929 . S
C1044 N1043 1.325 . S
C1044 C1048 1.416 . S
C1045 C1046 1.430 . S
C1045 C1047 1.404 . S
C1045 C1074 1.387 . S
C1046 C1038 1.448 . S
C1046 N1043 1.351 . S
C1046 C1045 1.430 . S
C1047 H1036 0.930 . S
C1047 C1045 1.404 . S
C1047 C1048 1.366 . S
C1048 H1027 0.930 . S
C1048 C1044 1.416 . S
C1048 C1047 1.366 . S
H1049 C1042 0.929 . S
H1050 C1073 0.931 . S
H1051 C1074 0.931 . S
O1052 Eu1008 2.462 . S
O1052 C1072 1.252 . S
O1053 Eu1008 2.373 . S
O1053 C1064 1.249 . S
O1054 Eu1019 2.335 . S
O1054 C1064 1.264 . S
O1055 Eu1008 2.432 . S
O1055 C1072 1.268 . S
O1056 Eu1008 2.291 . S
O1056 C1071 1.255 . S
O1057 Eu1019 2.372 . S
O1057 C1071 1.257 . S
O1058 Eu1019 2.462 . S
O1058 C1083 1.252 . S
O1059 Eu1019 2.373 . S
O1059 C1075 1.249 . S
O1060 Eu1008 2.335 . S
O1060 C1075 1.264 . S
O1061 Eu1019 2.432 . S
O1061 C1083 1.268 . S
O1062 Eu1019 2.291 . S
O1062 C1082 1.255 . S
O1063 Eu1008 2.372 . S
O1063 C1082 1.257 . S
C1064 O1053 1.249 . S
C1064 O1054 1.264 . S
C1065 C1068 1.382 . S
C1065 C1070 1.390 . S
C1065 C1072 1.506 . S
C1066 C1067 1.420 . S
C1066 C1070 1.392 . S
C1067 C1066 1.420 . S
C1067 C1069 1.383 . S
C1067 H1084 0.899 1_455 S
C1068 C1065 1.382 . S
C1068 C1069 1.390 . S
C1068 H1085 0.931 . S
C1069 C1067 1.383 . S
C1069 C1068 1.390 . S
C1069 H1086 0.929 1_455 S
C1070 C1065 1.390 . S
C1070 C1066 1.392 . S
C1070 H1087 0.930 . S
C1071 O1056 1.255 . S
C1071 O1057 1.257 . S
C1072 Eu1008 2.787 . S
C1072 O1052 1.252 . S
C1072 O1055 1.268 . S
C1072 C1065 1.506 . S
C1073 C1040 1.439 . S
C1073 H1050 0.931 . S
C1073 C1074 1.374 . S
C1074 C1045 1.387 . S
C1074 H1051 0.931 . S
C1074 C1073 1.374 . S
C1075 O1059 1.249 . S
C1075 O1060 1.264 . S
C1076 C1079 1.382 . S
C1076 C1080 1.390 . S
C1076 C1083 1.506 . S
C1077 C1078 1.398 . S
C1077 C1080 1.392 . S
C1078 C1077 1.398 . S
C1078 C1081 1.372 . S
C1078 H1088 0.931 . S
C1079 C1076 1.382 . S
C1079 C1081 1.390 . S
C1079 H1089 0.931 . S
C1080 C1076 1.390 . S
C1080 C1077 1.392 . S
C1080 H1090 0.930 . S
C1081 C1078 1.372 . S
C1081 C1079 1.390 . S
C1081 H1091 0.929 . S
C1082 O1062 1.255 . S
C1082 O1063 1.257 . S
C1083 Eu1019 2.787 . S
C1083 O1058 1.252 . S
C1083 O1061 1.268 . S
C1083 C1076 1.506 . S
H1084 C1067 0.899 1_655 S
H1085 C1068 0.931 . S
H1086 C1069 0.929 1_655 S
H1087 C1070 0.930 . S
H1088 C1078 0.931 . S
H1089 C1079 0.931 . S
H1090 C1080 0.930 . S
H1091 C1081 0.929 . S
Eu1092 N1121 2.600 . S
Eu1092 N1127 2.562 . S
Eu1092 O1136 2.462 . S
Eu1092 O1137 2.373 . S
Eu1092 O1139 2.432 . S
Eu1092 O1140 2.291 . S
Eu1092 O1144 2.335 . S
Eu1092 O1147 2.372 . S
Eu1092 C1156 2.787 . S
C1093 N1094 1.365 . S
C1093 C1096 1.405 1_655 S
C1093 C1100 1.448 . S
N1094 C1093 1.365 . S
N1094 C1097 1.319 1_655 S
N1094 Eu1103 2.600 . S
C1095 C1097 1.397 . S
C1095 C1098 1.367 . S
C1095 H1115 0.931 . S
C1096 C1093 1.405 1_455 S
C1096 C1098 1.403 . S
C1096 C1102 1.439 . S
C1097 N1094 1.319 1_455 S
C1097 C1095 1.397 . S
C1097 H1108 0.930 . S
C1098 C1095 1.367 . S
C1098 C1096 1.403 . S
C1098 H1119 0.929 . S
C1099 C1100 1.430 . S
C1099 C1101 1.387 1_655 S
C1099 C1105 1.404 . S
C1100 C1093 1.448 . S
C1100 C1099 1.430 . S
C1100 N1104 1.351 . S
C1101 C1099 1.387 1_455 S
C1101 C1102 1.374 . S
C1101 H1116 0.931 . S
C1102 C1096 1.439 . S
C1102 C1101 1.374 . S
C1102 H1117 0.931 . S
Eu1103 N1094 2.600 . S
Eu1103 N1104 2.562 . S
Eu1103 O1138 2.335 . S
Eu1103 O1141 2.372 . S
Eu1103 O1142 2.462 . S
Eu1103 O1143 2.373 . S
Eu1103 O1145 2.432 . S
Eu1103 O1146 2.291 . S
Eu1103 C1167 2.787 . S
N1104 C1100 1.351 . S
N1104 Eu1103 2.562 . S
N1104 C1106 1.325 . S
C1105 C1099 1.404 . S
C1105 C1107 1.366 . S
C1105 H1113 0.930 . S
C1106 N1104 1.325 . S
C1106 C1107 1.416 . S
C1106 H1112 0.929 . S
C1107 C1105 1.366 . S
C1107 C1106 1.416 . S
C1107 H1109 0.930 . S
H1108 C1097 0.930 . S
H1109 C1107 0.930 . S
H1110 C1125 0.930 . S
H1111 C1132 0.930 . S
H1112 C1106 0.929 . S
H1113 C1105 0.930 . S
H1114 C1128 0.929 . S
H1115 C1095 0.931 . S
H1116 C1101 0.931 . S
H1117 C1102 0.931 . S
H1118 C1123 0.931 . S
H1119 C1098 0.929 . S
H1120 C1131 0.930 . S
N1121 Eu1092 2.600 . S
N1121 C1122 1.365 . S
N1121 C1125 1.319 . S
C1122 N1121 1.365 . S
C1122 C1124 1.405 . S
C1122 C1130 1.448 . S
C1123 H1118 0.931 . S
C1123 C1125 1.397 . S
C1123 C1126 1.367 . S
C1124 C1122 1.405 . S
C1124 C1126 1.403 . S
C1124 C1157 1.439 . S
C1125 H1110 0.930 . S
C1125 N1121 1.319 . S
C1125 C1123 1.397 . S
C1126 C1123 1.367 . S
C1126 C1124 1.403 . S
C1126 H1133 0.929 . S
N1127 Eu1092 2.562 . S
N1127 C1128 1.325 . S
N1127 C1130 1.351 . S
C1128 H1114 0.929 . S
C1128 N1127 1.325 . S
C1128 C1132 1.416 . S
C1129 C1130 1.430 . S
C1129 C1131 1.404 . S
C1129 C1158 1.387 . S
C1130 C1122 1.448 . S
C1130 N1127 1.351 . S
C1130 C1129 1.430 . S
C1131 H1120 0.930 . S
C1131 C1129 1.404 . S
C1131 C1132 1.366 . S
C1132 H1111 0.930 . S
C1132 C1128 1.416 . S
C1132 C1131 1.366 . S
H1133 C1126 0.929 . S
H1134 C1157 0.931 . S
H1135 C1158 0.931 . S
O1136 Eu1092 2.462 . S
O1136 C1156 1.252 . S
O1137 Eu1092 2.373 . S
O1137 C1148 1.249 . S
O1138 Eu1103 2.335 . S
O1138 C1148 1.264 . S
O1139 Eu1092 2.432 . S
O1139 C1156 1.268 . S
O1140 Eu1092 2.291 . S
O1140 C1155 1.255 . S
O1141 Eu1103 2.372 . S
O1141 C1155 1.257 . S
O1142 Eu1103 2.462 . S
O1142 C1167 1.252 . S
O1143 Eu1103 2.373 . S
O1143 C1159 1.249 . S
O1144 Eu1092 2.335 . S
O1144 C1159 1.264 . S
O1145 Eu1103 2.432 . S
O1145 C1167 1.268 . S
O1146 Eu1103 2.291 . S
O1146 C1166 1.255 . S
O1147 Eu1092 2.372 . S
O1147 C1166 1.257 . S
C1148 O1137 1.249 . S
C1148 O1138 1.264 . S
C1149 C1152 1.382 . S
C1149 C1154 1.390 . S
C1149 C1156 1.506 . S
C1150 C1151 1.398 . S
C1150 C1154 1.392 . S
C1151 C1150 1.398 . S
C1151 C1153 1.372 . S
C1151 H1168 0.931 . S
C1152 C1149 1.382 . S
C1152 C1153 1.390 . S
C1152 H1169 0.931 . S
C1153 C1151 1.372 . S
C1153 C1152 1.390 . S
C1153 H1170 0.929 . S
C1154 C1149 1.390 . S
C1154 C1150 1.392 . S
C1154 H1171 0.930 . S
C1155 O1140 1.255 . S
C1155 O1141 1.257 . S
C1156 Eu1092 2.787 . S
C1156 O1136 1.252 . S
C1156 O1139 1.268 . S
C1156 C1149 1.506 . S
C1157 C1124 1.439 . S
C1157 H1134 0.931 . S
C1157 C1158 1.374 . S
C1158 C1129 1.387 . S
C1158 H1135 0.931 . S
C1158 C1157 1.374 . S
C1159 O1143 1.249 . S
C1159 O1144 1.264 . S
C1160 C1163 1.382 . S
C1160 C1164 1.390 . S
C1160 C1167 1.506 . S
C1161 C1162 1.398 . S
C1161 C1164 1.392 . S
C1162 C1161 1.398 . S
C1162 C1165 1.372 . S
C1162 H1172 0.931 1_565 S
C1163 C1160 1.382 . S
C1163 C1165 1.390 . S
C1163 H1173 0.931 . S
C1164 C1160 1.390 . S
C1164 C1161 1.392 . S
C1164 H1174 0.930 . S
C1165 C1162 1.372 . S
C1165 C1163 1.390 . S
C1165 H1175 0.932 1_655 S
C1166 O1146 1.255 . S
C1166 O1147 1.257 . S
C1167 Eu1103 2.787 . S
C1167 O1142 1.252 . S
C1167 O1145 1.268 . S
C1167 C1160 1.506 . S
H1168 C1151 0.931 . S
H1169 C1152 0.931 . S
H1170 C1153 0.929 . S
H1171 C1154 0.930 . S
H1172 C1162 0.931 1_545 S
H1173 C1163 0.931 . S
H1174 C1164 0.930 . S
H1175 C1165 0.932 1_455 S
Eu1176 N1205 2.600 . S
Eu1176 N1211 2.562 . S
Eu1176 O1220 2.462 . S
Eu1176 O1221 2.373 . S
Eu1176 O1223 2.432 . S
Eu1176 O1224 2.291 . S
Eu1176 O1228 2.335 . S
Eu1176 O1231 2.372 . S
Eu1176 C1240 2.787 . S
C1177 N1178 1.365 . S
C1177 C1180 1.405 . S
C1177 C1184 1.448 . S
N1178 C1177 1.365 . S
N1178 C1181 1.319 1_556 S
N1178 Eu1187 2.600 . S
C1179 C1181 1.397 . S
C1179 C1182 1.367 . S
C1179 H1199 0.931 . S
C1180 C1177 1.405 . S
C1180 C1182 1.403 1_556 S
C1180 C1186 1.439 . S
C1181 N1178 1.319 1_554 S
C1181 C1179 1.397 . S
C1181 H1192 0.930 . S
C1182 C1179 1.367 . S
C1182 C1180 1.403 1_554 S
C1182 H1203 0.929 . S
C1183 C1184 1.430 . S
C1183 C1185 1.387 . S
C1183 C1189 1.404 . S
C1184 C1177 1.448 . S
C1184 C1183 1.430 . S
C1184 N1188 1.351 . S
C1185 C1183 1.387 . S
C1185 C1186 1.374 . S
C1185 H1200 0.931 . S
C1186 C1180 1.439 . S
C1186 C1185 1.374 . S
C1186 H1201 0.931 . S
Eu1187 N1178 2.600 . S
Eu1187 N1188 2.562 . S
Eu1187 O1222 2.335 1_556 S
Eu1187 O1225 2.372 . S
Eu1187 O1226 2.462 1_556 S
Eu1187 O1227 2.373 . S
Eu1187 O1229 2.432 1_556 S
Eu1187 O1230 2.291 . S
Eu1187 C1251 2.787 1_556 S
N1188 C1184 1.351 . S
N1188 Eu1187 2.562 . S
N1188 C1190 1.325 . S
C1189 C1183 1.404 . S
C1189 C1191 1.366 . S
C1189 H1197 0.930 . S
C1190 N1188 1.325 . S
C1190 C1191 1.416 . S
C1190 H1196 0.929 . S
C1191 C1189 1.366 . S
C1191 C1190 1.416 . S
C1191 H1193 0.930 . S
H1192 C1181 0.930 . S
H1193 C1191 0.930 . S
H1194 C1209 0.930 . S
H1195 C1216 0.930 . S
H1196 C1190 0.929 . S
H1197 C1189 0.930 . S
H1198 C1212 0.929 . S
H1199 C1179 0.931 . S
H1200 C1185 0.931 . S
H1201 C1186 0.931 . S
H1202 C1207 0.931 . S
H1203 C1182 0.929 . S
H1204 C1215 0.930 . S
N1205 Eu1176 2.600 . S
N1205 C1206 1.365 . S
N1205 C1209 1.319 . S
C1206 N1205 1.365 . S
C1206 C1208 1.405 . S
C1206 C1214 1.448 . S
C1207 H1202 0.931 . S
C1207 C1209 1.397 . S
C1207 C1210 1.367 . S
C1208 C1206 1.405 . S
C1208 C1210 1.403 . S
C1208 C1241 1.439 . S
C1209 H1194 0.930 . S
C1209 N1205 1.319 . S
C1209 C1207 1.397 . S
C1210 C1207 1.367 . S
C1210 C1208 1.403 . S
C1210 H1217 0.929 . S
N1211 Eu1176 2.562 . S
N1211 C1212 1.325 . S
N1211 C1214 1.351 . S
C1212 H1198 0.929 . S
C1212 N1211 1.325 . S
C1212 C1216 1.416 . S
C1213 C1214 1.430 . S
C1213 C1215 1.404 . S
C1213 C1242 1.387 . S
C1214 C1206 1.448 . S
C1214 N1211 1.351 . S
C1214 C1213 1.430 . S
C1215 H1204 0.930 . S
C1215 C1213 1.404 . S
C1215 C1216 1.366 . S
C1216 H1195 0.930 . S
C1216 C1212 1.416 . S
C1216 C1215 1.366 . S
H1217 C1210 0.929 . S
H1218 C1241 0.931 . S
H1219 C1242 0.931 . S
O1220 Eu1176 2.462 . S
O1220 C1240 1.252 . S
O1221 Eu1176 2.373 . S
O1221 C1232 1.249 1_556 S
O1222 Eu1187 2.335 1_554 S
O1222 C1232 1.264 . S
O1223 Eu1176 2.432 . S
O1223 C1240 1.268 . S
O1224 Eu1176 2.291 . S
O1224 C1239 1.255 . S
O1225 Eu1187 2.372 . S
O1225 C1239 1.257 . S
O1226 Eu1187 2.462 1_554 S
O1226 C1251 1.252 . S
O1227 Eu1187 2.373 . S
O1227 C1243 1.249 . S
O1228 Eu1176 2.335 . S
O1228 C1243 1.264 . S
O1229 Eu1187 2.432 1_554 S
O1229 C1251 1.268 . S
O1230 Eu1187 2.291 . S
O1230 C1250 1.255 . S
O1231 Eu1176 2.372 . S
O1231 C1250 1.257 . S
C1232 O1221 1.249 1_554 S
C1232 O1222 1.264 . S
C1233 C1236 1.382 . S
C1233 C1238 1.390 . S
C1233 C1240 1.506 . S
C1234 C1235 1.398 . S
C1234 C1238 1.392 . S
C1235 C1234 1.398 . S
C1235 C1237 1.372 . S
C1235 H1252 0.931 . S
C1236 C1233 1.382 . S
C1236 C1237 1.390 . S
C1236 H1253 0.931 . S
C1237 C1235 1.372 . S
C1237 C1236 1.390 . S
C1237 H1254 0.929 . S
C1238 C1233 1.390 . S
C1238 C1234 1.392 . S
C1238 H1255 0.930 . S
C1239 O1224 1.255 . S
C1239 O1225 1.257 . S
C1240 Eu1176 2.787 . S
C1240 O1220 1.252 . S
C1240 O1223 1.268 . S
C1240 C1233 1.506 . S
C1241 C1208 1.439 . S
C1241 H1218 0.931 . S
C1241 C1242 1.374 . S
C1242 C1213 1.387 . S
C1242 H1219 0.931 . S
C1242 C1241 1.374 . S
C1243 O1227 1.249 . S
C1243 O1228 1.264 . S
C1244 C1247 1.382 . S
C1244 C1248 1.390 . S
C1244 C1251 1.506 . S
C1245 C1246 1.398 . S
C1245 C1248 1.392 . S
C1246 C1245 1.398 . S
C1246 C1249 1.372 . S
C1246 H1256 0.931 . S
C1247 C1244 1.382 . S
C1247 C1249 1.390 . S
C1247 H1257 0.931 . S
C1248 C1244 1.390 . S
C1248 C1245 1.392 . S
C1248 H1258 0.930 . S
C1249 C1246 1.372 . S
C1249 C1247 1.390 . S
C1249 H1259 0.929 . S
C1250 O1230 1.255 . S
C1250 O1231 1.257 . S
C1251 Eu1187 2.787 1_554 S
C1251 O1226 1.252 . S
C1251 O1229 1.268 . S
C1251 C1244 1.506 . S
H1252 C1235 0.931 . S
H1253 C1236 0.931 . S
H1254 C1237 0.929 . S
H1255 C1238 0.930 . S
H1256 C1246 0.931 . S
H1257 C1247 0.931 . S
H1258 C1248 0.930 . S
H1259 C1249 0.929 . S
Eu1260 N1289 2.600 . S
Eu1260 N1295 2.562 . S
Eu1260 O1304 2.462 . S
Eu1260 O1305 2.373 . S
Eu1260 O1307 2.432 . S
Eu1260 O1308 2.291 . S
Eu1260 O1312 2.335 . S
Eu1260 O1315 2.372 . S
Eu1260 C1324 2.787 . S
C1261 N1262 1.365 . S
C1261 C1264 1.405 . S
C1261 C1268 1.448 . S
N1262 C1261 1.365 . S
N1262 C1265 1.319 . S
N1262 Eu1271 2.600 . S
C1263 C1265 1.397 . S
C1263 C1266 1.367 . S
C1263 H1283 0.931 . S
C1264 C1261 1.405 . S
C1264 C1266 1.403 . S
C1264 C1270 1.439 . S
C1265 N1262 1.319 . S
C1265 C1263 1.397 . S
C1265 H1276 0.930 . S
C1266 C1263 1.367 . S
C1266 C1264 1.403 . S
C1266 H1287 0.929 . S
C1267 C1268 1.430 . S
C1267 C1269 1.387 . S
C1267 C1273 1.404 . S
C1268 C1261 1.448 . S
C1268 C1267 1.430 . S
C1268 N1272 1.351 . S
C1269 C1267 1.387 . S
C1269 C1270 1.374 . S
C1269 H1284 0.931 . S
C1270 C1264 1.439 . S
C1270 C1269 1.374 . S
C1270 H1285 0.931 . S
Eu1271 N1262 2.600 . S
Eu1271 N1272 2.562 . S
Eu1271 O1306 2.335 . S
Eu1271 O1309 2.372 . S
Eu1271 O1310 2.462 . S
Eu1271 O1311 2.373 . S
Eu1271 O1313 2.432 . S
Eu1271 O1314 2.291 . S
Eu1271 C1335 2.787 . S
N1272 C1268 1.351 . S
N1272 Eu1271 2.562 . S
N1272 C1274 1.325 . S
C1273 C1267 1.404 . S
C1273 C1275 1.366 . S
C1273 H1281 0.930 . S
C1274 N1272 1.325 . S
C1274 C1275 1.416 . S
C1274 H1280 0.929 . S
C1275 C1273 1.366 . S
C1275 C1274 1.416 . S
C1275 H1277 0.930 . S
H1276 C1265 0.930 . S
H1277 C1275 0.930 . S
H1278 C1293 0.930 . S
H1279 C1300 0.930 . S
H1280 C1274 0.929 . S
H1281 C1273 0.930 . S
H1282 C1296 0.929 . S
H1283 C1263 0.931 . S
H1284 C1269 0.931 . S
H1285 C1270 0.931 . S
H1286 C1291 0.931 . S
H1287 C1266 0.929 . S
H1288 C1299 0.930 . S
N1289 Eu1260 2.600 . S
N1289 C1290 1.365 . S
N1289 C1293 1.319 . S
C1290 N1289 1.365 . S
C1290 C1292 1.405 . S
C1290 C1298 1.448 . S
C1291 H1286 0.931 . S
C1291 C1293 1.397 . S
C1291 C1294 1.367 . S
C1292 C1290 1.405 . S
C1292 C1294 1.403 . S
C1292 C1325 1.439 . S
C1293 H1278 0.930 . S
C1293 N1289 1.319 . S
C1293 C1291 1.397 . S
C1294 C1291 1.367 . S
C1294 C1292 1.403 . S
C1294 H1301 0.929 . S
N1295 Eu1260 2.562 . S
N1295 C1296 1.325 . S
N1295 C1298 1.351 . S
C1296 H1282 0.929 . S
C1296 N1295 1.325 . S
C1296 C1300 1.416 . S
C1297 C1298 1.430 . S
C1297 C1299 1.404 . S
C1297 C1326 1.387 . S
C1298 C1290 1.448 . S
C1298 N1295 1.351 . S
C1298 C1297 1.430 . S
C1299 H1288 0.930 . S
C1299 C1297 1.404 . S
C1299 C1300 1.366 . S
C1300 H1279 0.930 . S
C1300 C1296 1.416 . S
C1300 C1299 1.366 . S
H1301 C1294 0.929 . S
H1302 C1325 0.931 . S
H1303 C1326 0.931 . S
O1304 Eu1260 2.462 . S
O1304 C1324 1.252 . S
O1305 Eu1260 2.373 . S
O1305 C1316 1.249 . S
O1306 Eu1271 2.335 . S
O1306 C1316 1.264 . S
O1307 Eu1260 2.432 . S
O1307 C1324 1.268 . S
O1308 Eu1260 2.291 . S
O1308 C1323 1.255 . S
O1309 Eu1271 2.372 . S
O1309 C1323 1.257 . S
O1310 Eu1271 2.462 . S
O1310 C1335 1.252 . S
O1311 Eu1271 2.373 . S
O1311 C1327 1.249 . S
O1312 Eu1260 2.335 . S
O1312 C1327 1.264 . S
O1313 Eu1271 2.432 . S
O1313 C1335 1.268 . S
O1314 Eu1271 2.291 . S
O1314 C1334 1.255 . S
O1315 Eu1260 2.372 . S
O1315 C1334 1.257 . S
C1316 O1305 1.249 . S
C1316 O1306 1.264 . S
C1317 C1320 1.382 . S
C1317 C1322 1.390 . S
C1317 C1324 1.506 . S
C1318 C1319 1.398 . S
C1318 C1322 1.392 . S
C1319 C1318 1.398 . S
C1319 C1321 1.372 . S
C1319 H1336 0.931 . S
C1320 C1317 1.382 . S
C1320 C1321 1.390 . S
C1320 H1337 0.931 . S
C1321 C1319 1.372 . S
C1321 C1320 1.390 . S
C1321 H1338 0.929 . S
C1322 C1317 1.390 . S
C1322 C1318 1.392 . S
C1322 H1339 0.930 . S
C1323 O1308 1.255 . S
C1323 O1309 1.257 . S
C1324 Eu1260 2.787 . S
C1324 O1304 1.252 . S
C1324 O1307 1.268 . S
C1324 C1317 1.506 . S
C1325 C1292 1.439 . S
C1325 H1302 0.931 . S
C1325 C1326 1.374 . S
C1326 C1297 1.387 . S
C1326 H1303 0.931 . S
C1326 C1325 1.374 . S
C1327 O1311 1.249 . S
C1327 O1312 1.264 . S
C1328 C1331 1.382 . S
C1328 C1332 1.390 . S
C1328 C1335 1.506 . S
C1329 C1330 1.398 . S
C1329 C1332 1.392 . S
C1330 C1329 1.398 . S
C1330 C1333 1.372 . S
C1330 H1340 0.931 1_545 S
C1331 C1328 1.382 . S
C1331 C1333 1.390 . S
C1331 H1341 0.931 . S
C1332 C1328 1.390 . S
C1332 C1329 1.392 . S
C1332 H1342 0.930 . S
C1333 C1330 1.372 . S
C1333 C1331 1.390 . S
C1333 H1343 0.929 . S
C1334 O1314 1.255 . S
C1334 O1315 1.257 . S
C1335 Eu1271 2.787 . S
C1335 O1310 1.252 . S
C1335 O1313 1.268 . S
C1335 C1328 1.506 . S
H1336 C1319 0.931 . S
H1337 C1320 0.931 . S
H1338 C1321 0.929 . S
H1339 C1322 0.930 . S
H1340 C1330 0.931 1_565 S
H1341 C1331 0.931 . S
H1342 C1332 0.930 . S
H1343 C1333 0.929 . S
C1344 C1345 1.391 . S
C1344 C1346 1.394 . S
C1344 H1360 0.931 . S
C1345 C1344 1.391 . S
C1345 C1349 1.376 . S
C1346 C1344 1.394 . S
C1346 C1347 1.369 . S
C1346 C1350 1.531 . S
C1347 C1346 1.369 . S
C1347 C1348 1.410 . S
C1347 C1355 1.503 . S
C1348 C1347 1.410 . S
C1348 C1349 1.392 . S
C1348 C1351 1.511 . S
C1349 C1345 1.376 . S
C1349 C1348 1.392 . S
C1349 H1361 0.929 . S
C1350 C1346 1.531 . S
C1350 H1362 0.960 . S
C1350 H1363 0.962 . S
C1350 H1364 0.960 . S
C1351 C1348 1.511 . S
C1351 H1365 0.961 . S
C1351 H1366 0.961 . S
C1351 H1367 0.961 . S
C1352 C1353 1.370 . S
C1352 C1354 1.363 . S
C1352 H1368 0.931 . S
C1353 C1352 1.370 . S
C1353 C1357 1.408 . S
C1354 C1352 1.363 . S
C1354 C1355 1.370 . S
C1354 C1358 1.524 . S
C1355 C1347 1.503 . S
C1355 C1354 1.370 . S
C1355 C1356 1.403 . S
C1356 C1355 1.403 . S
C1356 C1357 1.404 . S
C1356 C1359 1.539 . S
C1357 C1353 1.408 . S
C1357 C1356 1.404 . S
C1357 H1369 0.930 . S
C1358 C1354 1.524 . S
C1358 H1370 0.956 . S
C1358 H1371 0.961 . S
C1358 H1372 0.961 . S
C1359 C1356 1.539 . S
C1359 H1373 0.958 . S
C1359 H1374 0.961 . S
C1359 H1375 0.960 . S
H1360 C1344 0.931 . S
H1361 C1349 0.929 . S
H1362 C1350 0.960 . S
H1363 C1350 0.962 . S
H1364 C1350 0.960 . S
H1365 C1351 0.961 . S
H1366 C1351 0.961 . S
H1367 C1351 0.961 . S
H1368 C1352 0.931 . S
H1369 C1357 0.930 . S
H1370 C1358 0.956 . S
H1371 C1358 0.961 . S
H1372 C1358 0.961 . S
H1373 C1359 0.958 . S
H1374 C1359 0.961 . S
H1375 C1359 0.960 . S
C1376 C1377 1.391 . S
C1376 C1378 1.394 . S
C1376 H1392 0.931 . S
C1377 C1376 1.391 . S
C1377 C1381 1.376 . S
C1378 C1376 1.394 . S
C1378 C1379 1.369 . S
C1378 C1382 1.531 . S
C1379 C1378 1.369 . S
C1379 C1380 1.410 . S
C1379 C1387 1.503 . S
C1380 C1379 1.410 . S
C1380 C1381 1.392 . S
C1380 C1383 1.511 . S
C1381 C1377 1.376 . S
C1381 C1380 1.392 . S
C1381 H1393 0.929 . S
C1382 C1378 1.531 . S
C1382 H1394 0.960 . S
C1382 H1395 0.962 . S
C1382 H1396 0.960 . S
C1383 C1380 1.511 . S
C1383 H1397 0.961 . S
C1383 H1398 0.961 . S
C1383 H1399 0.961 . S
C1384 C1385 1.370 . S
C1384 C1386 1.363 . S
C1384 H1400 0.931 . S
C1385 C1384 1.370 . S
C1385 C1389 1.408 . S
C1386 C1384 1.363 . S
C1386 C1387 1.370 . S
C1386 C1390 1.524 . S
C1387 C1379 1.503 . S
C1387 C1386 1.370 . S
C1387 C1388 1.403 . S
C1388 C1387 1.403 . S
C1388 C1389 1.404 . S
C1388 C1391 1.539 . S
C1389 C1385 1.408 . S
C1389 C1388 1.404 . S
C1389 H1401 0.930 . S
C1390 C1386 1.524 . S
C1390 H1402 0.956 . S
C1390 H1403 0.961 . S
C1390 H1404 0.961 . S
C1391 C1388 1.539 . S
C1391 H1405 0.958 . S
C1391 H1406 0.961 . S
C1391 H1407 0.960 . S
H1392 C1376 0.931 . S
H1393 C1381 0.929 . S
H1394 C1382 0.960 . S
H1395 C1382 0.962 . S
H1396 C1382 0.960 . S
H1397 C1383 0.961 . S
H1398 C1383 0.961 . S
H1399 C1383 0.961 . S
H1400 C1384 0.931 . S
H1401 C1389 0.930 . S
H1402 C1390 0.956 . S
H1403 C1390 0.961 . S
H1404 C1390 0.961 . S
H1405 C1391 0.958 . S
H1406 C1391 0.961 . S
H1407 C1391 0.960 . S
C1408 C1409 1.391 . S
C1408 C1410 1.394 . S
C1408 H1424 0.931 . S
C1409 C1408 1.391 . S
C1409 C1413 1.376 . S
C1410 C1408 1.394 . S
C1410 C1411 1.369 . S
C1410 C1414 1.531 . S
C1411 C1410 1.369 . S
C1411 C1412 1.410 . S
C1411 C1419 1.503 1_455 S
C1412 C1411 1.410 . S
C1412 C1413 1.392 . S
C1412 C1415 1.511 . S
C1413 C1409 1.376 . S
C1413 C1412 1.392 . S
C1413 H1425 0.929 . S
C1414 C1410 1.531 . S
C1414 H1426 0.960 . S
C1414 H1427 0.962 1_455 S
C1414 H1428 0.960 . S
C1415 C1412 1.511 . S
C1415 H1429 0.961 . S
C1415 H1430 0.961 . S
C1415 H1431 0.961 . S
C1416 C1417 1.370 . S
C1416 C1418 1.363 . S
C1416 H1432 0.931 . S
C1417 C1416 1.370 . S
C1417 C1421 1.408 . S
C1418 C1416 1.363 . S
C1418 C1419 1.370 . S
C1418 C1422 1.524 . S
C1419 C1411 1.503 1_655 S
C1419 C1418 1.370 . S
C1419 C1420 1.403 1_655 S
C1420 C1419 1.403 1_455 S
C1420 C1421 1.404 1_455 S
C1420 C1423 1.539 . S
C1421 C1417 1.408 . S
C1421 C1420 1.404 1_655 S
C1421 H1433 0.930 . S
C1422 C1418 1.524 . S
C1422 H1434 0.956 . S
C1422 H1435 0.961 . S
C1422 H1436 0.961 . S
C1423 C1420 1.539 . S
C1423 H1437 0.958 . S
C1423 H1438 0.961 . S
C1423 H1439 0.960 . S
H1424 C1408 0.931 . S
H1425 C1413 0.929 . S
H1426 C1414 0.960 . S
H1427 C1414 0.962 1_655 S
H1428 C1414 0.960 . S
H1429 C1415 0.961 . S
H1430 C1415 0.961 . S
H1431 C1415 0.961 . S
H1432 C1416 0.931 . S
H1433 C1421 0.930 . S
H1434 C1422 0.956 . S
H1435 C1422 0.961 . S
H1436 C1422 0.961 . S
H1437 C1423 0.958 . S
H1438 C1423 0.961 . S
H1439 C1423 0.960 . S
C1440 C1441 1.391 . S
C1440 C1442 1.394 . S
C1440 H1456 0.931 . S
C1441 C1440 1.391 . S
C1441 C1445 1.376 . S
C1442 C1440 1.394 . S
C1442 C1443 1.369 . S
C1442 C1446 1.531 1_655 S
C1443 C1442 1.369 . S
C1443 C1444 1.410 . S
C1443 C1451 1.503 1_655 S
C1444 C1443 1.410 . S
C1444 C1445 1.392 . S
C1444 C1447 1.511 . S
C1445 C1441 1.376 . S
C1445 C1444 1.392 . S
C1445 H1457 0.929 . S
C1446 C1442 1.531 1_455 S
C1446 H1458 0.960 . S
C1446 H1459 0.962 . S
C1446 H1460 0.960 . S
C1447 C1444 1.511 . S
C1447 H1461 0.961 . S
C1447 H1462 0.961 . S
C1447 H1463 0.961 . S
C1448 C1449 1.370 . S
C1448 C1450 1.363 . S
C1448 H1464 0.931 . S
C1449 C1448 1.370 . S
C1449 C1453 1.408 . S
C1450 C1448 1.363 . S
C1450 C1451 1.370 . S
C1450 C1454 1.524 . S
C1451 C1443 1.503 1_455 S
C1451 C1450 1.370 . S
C1451 C1452 1.403 . S
C1452 C1451 1.403 . S
C1452 C1453 1.404 . S
C1452 C1455 1.539 . S
C1453 C1449 1.408 . S
C1453 C1452 1.404 . S
C1453 H1465 0.930 . S
C1454 C1450 1.524 . S
C1454 H1466 0.956 . S
C1454 H1467 0.961 1_455 S
C1454 H1468 0.961 . S
C1455 C1452 1.539 . S
C1455 H1469 0.958 . S
C1455 H1470 0.961 . S
C1455 H1471 0.960 1_455 S
H1456 C1440 0.931 . S
H1457 C1445 0.929 . S
H1458 C1446 0.960 . S
H1459 C1446 0.962 . S
H1460 C1446 0.960 . S
H1461 C1447 0.961 . S
H1462 C1447 0.961 . S
H1463 C1447 0.961 . S
H1464 C1448 0.931 . S
H1465 C1453 0.930 . S
H1466 C1454 0.956 . S
H1467 C1454 0.961 1_655 S
H1468 C1454 0.961 . S
H1469 C1455 0.958 . S
H1470 C1455 0.961 . S
H1471 C1455 0.960 1_655 S
C1472 C1473 1.391 . S
C1472 C1474 1.394 . S
C1472 H1488 0.931 . S
C1473 C1472 1.391 . S
C1473 C1477 1.376 . S
C1474 C1472 1.394 . S
C1474 C1475 1.369 . S
C1474 C1478 1.531 . S
C1475 C1474 1.369 . S
C1475 C1476 1.410 . S
C1475 C1483 1.503 . S
C1476 C1475 1.410 . S
C1476 C1477 1.392 . S
C1476 C1479 1.511 . S
C1477 C1473 1.376 . S
C1477 C1476 1.392 . S
C1477 H1489 0.929 . S
C1478 C1474 1.531 . S
C1478 H1490 0.960 . S
C1478 H1491 0.962 . S
C1478 H1492 0.960 . S
C1479 C1476 1.511 . S
C1479 H1493 0.961 . S
C1479 H1494 0.961 . S
C1479 H1495 0.961 . S
C1480 C1481 1.370 . S
C1480 C1482 1.363 . S
C1480 H1496 0.931 . S
C1481 C1480 1.370 . S
C1481 C1485 1.408 . S
C1482 C1480 1.363 . S
C1482 C1483 1.370 . S
C1482 C1486 1.524 . S
C1483 C1475 1.503 . S
C1483 C1482 1.370 . S
C1483 C1484 1.403 . S
C1484 C1483 1.403 . S
C1484 C1485 1.404 . S
C1484 C1487 1.539 1_556 S
C1485 C1481 1.408 . S
C1485 C1484 1.404 . S
C1485 H1497 0.930 . S
C1486 C1482 1.524 . S
C1486 H1498 0.956 . S
C1486 H1499 0.961 . S
C1486 H1500 0.961 . S
C1487 C1484 1.539 1_554 S
C1487 H1501 0.958 . S
C1487 H1502 0.961 . S
C1487 H1503 0.960 1_554 S
H1488 C1472 0.931 . S
H1489 C1477 0.929 . S
H1490 C1478 0.960 . S
H1491 C1478 0.962 . S
H1492 C1478 0.960 . S
H1493 C1479 0.961 . S
H1494 C1479 0.961 . S
H1495 C1479 0.961 . S
H1496 C1480 0.931 . S
H1497 C1485 0.930 . S
H1498 C1486 0.956 . S
H1499 C1486 0.961 . S
H1500 C1486 0.961 . S
H1501 C1487 0.958 . S
H1502 C1487 0.961 . S
H1503 C1487 0.960 1_556 S
C1504 C1505 1.391 . S
C1504 C1506 1.394 . S
C1504 H1520 0.931 . S
C1505 C1504 1.391 . S
C1505 C1509 1.376 . S
C1506 C1504 1.394 . S
C1506 C1507 1.369 . S
C1506 C1510 1.531 . S
C1507 C1506 1.369 . S
C1507 C1508 1.410 . S
C1507 C1515 1.503 . S
C1508 C1507 1.410 . S
C1508 C1509 1.392 . S
C1508 C1511 1.511 . S
C1509 C1505 1.376 . S
C1509 C1508 1.392 . S
C1509 H1521 0.929 . S
C1510 C1506 1.531 . S
C1510 H1522 0.960 . S
C1510 H1523 0.962 . S
C1510 H1524 0.960 . S
C1511 C1508 1.511 . S
C1511 H1525 0.961 . S
C1511 H1526 0.961 . S
C1511 H1527 0.961 . S
C1512 C1513 1.370 . S
C1512 C1514 1.363 . S
C1512 H1528 0.931 . S
C1513 C1512 1.370 . S
C1513 C1517 1.408 . S
C1514 C1512 1.363 . S
C1514 C1515 1.370 . S
C1514 C1518 1.524 . S
C1515 C1507 1.503 . S
C1515 C1514 1.370 . S
C1515 C1516 1.403 . S
C1516 C1515 1.403 . S
C1516 C1517 1.404 . S
C1516 C1519 1.539 . S
C1517 C1513 1.408 . S
C1517 C1516 1.404 . S
C1517 H1529 0.930 . S
C1518 C1514 1.524 . S
C1518 H1530 0.956 . S
C1518 H1531 0.961 . S
C1518 H1532 0.961 . S
C1519 C1516 1.539 . S
C1519 H1533 0.958 . S
C1519 H1534 0.961 . S
C1519 H1535 0.960 . S
H1520 C1504 0.931 . S
H1521 C1509 0.929 . S
H1522 C1510 0.960 . S
H1523 C1510 0.962 . S
H1524 C1510 0.960 . S
H1525 C1511 0.961 . S
H1526 C1511 0.961 . S
H1527 C1511 0.961 . S
H1528 C1512 0.931 . S
H1529 C1517 0.930 . S
H1530 C1518 0.956 . S
H1531 C1518 0.961 . S
H1532 C1518 0.961 . S
H1533 C1519 0.958 . S
H1534 C1519 0.961 . S
H1535 C1519 0.960 . S
C1536 C1537 1.391 . S
C1536 C1538 1.394 . S
C1536 H1552 0.931 . S
C1537 C1536 1.391 . S
C1537 C1541 1.376 . S
C1538 C1536 1.394 . S
C1538 C1539 1.369 . S
C1538 C1542 1.531 . S
C1539 C1538 1.369 . S
C1539 C1540 1.410 . S
C1539 C1547 1.503 1_655 S
C1540 C1539 1.410 . S
C1540 C1541 1.392 . S
C1540 C1543 1.511 1_655 S
C1541 C1537 1.376 . S
C1541 C1540 1.392 . S
C1541 H1553 0.929 . S
C1542 C1538 1.531 . S
C1542 H1554 0.960 . S
C1542 H1555 0.962 . S
C1542 H1556 0.960 . S
C1543 C1540 1.511 1_455 S
C1543 H1557 0.961 . S
C1543 H1558 0.961 . S
C1543 H1559 0.961 . S
C1544 C1545 1.370 . S
C1544 C1546 1.363 . S
C1544 H1560 0.931 . S
C1545 C1544 1.370 . S
C1545 C1549 1.408 . S
C1546 C1544 1.363 . S
C1546 C1547 1.370 . S
C1546 C1550 1.524 1_455 S
C1547 C1539 1.503 1_455 S
C1547 C1546 1.370 . S
C1547 C1548 1.403 . S
C1548 C1547 1.403 . S
C1548 C1549 1.404 . S
C1548 C1551 1.539 . S
C1549 C1545 1.408 . S
C1549 C1548 1.404 . S
C1549 H1561 0.930 . S
C1550 C1546 1.524 1_655 S
C1550 H1562 0.956 . S
C1550 H1563 0.961 . S
C1550 H1564 0.961 . S
C1551 C1548 1.539 . S
C1551 H1565 0.958 . S
C1551 H1566 0.961 . S
C1551 H1567 0.960 . S
H1552 C1536 0.931 . S
H1553 C1541 0.929 . S
H1554 C1542 0.960 . S
H1555 C1542 0.962 . S
H1556 C1542 0.960 . S
H1557 C1543 0.961 . S
H1558 C1543 0.961 . S
H1559 C1543 0.961 . S
H1560 C1544 0.931 . S
H1561 C1549 0.930 . S
H1562 C1550 0.956 . S
H1563 C1550 0.961 . S
H1564 C1550 0.961 . S
H1565 C1551 0.958 . S
H1566 C1551 0.961 . S
H1567 C1551 0.960 . S
C1568 C1569 1.391 . S
C1568 C1570 1.394 . S
C1568 H1584 0.931 . S
C1569 C1568 1.391 . S
C1569 C1573 1.376 . S
C1570 C1568 1.394 . S
C1570 C1571 1.369 . S
C1570 C1574 1.531 . S
C1571 C1570 1.369 . S
C1571 C1572 1.410 . S
C1571 C1579 1.503 1_455 S
C1572 C1571 1.410 . S
C1572 C1573 1.392 . S
C1572 C1575 1.511 1_455 S
C1573 C1569 1.376 . S
C1573 C1572 1.392 . S
C1573 H1585 0.929 . S
C1574 C1570 1.531 . S
C1574 H1586 0.960 . S
C1574 H1587 0.962 . S
C1574 H1588 0.960 . S
C1575 C1572 1.511 1_655 S
C1575 H1589 0.961 . S
C1575 H1590 0.961 . S
C1575 H1591 0.961 . S
C1576 C1577 1.370 . S
C1576 C1578 1.363 . S
C1576 H1592 0.931 . S
C1577 C1576 1.370 . S
C1577 C1581 1.408 . S
C1578 C1576 1.363 . S
C1578 C1579 1.370 . S
C1578 C1582 1.524 . S
C1579 C1571 1.503 1_655 S
C1579 C1578 1.370 . S
C1579 C1580 1.403 . S
C1580 C1579 1.403 . S
C1580 C1581 1.404 . S
C1580 C1583 1.539 . S
C1581 C1577 1.408 . S
C1581 C1580 1.404 . S
C1581 H1593 0.930 . S
C1582 C1578 1.524 . S
C1582 H1594 0.956 1_655 S
C1582 H1595 0.961 . S
C1582 H1596 0.961 . S
C1583 C1580 1.539 . S
C1583 H1597 0.958 . S
C1583 H1598 0.961 . S
C1583 H1599 0.960 . S
H1584 C1568 0.931 . S
H1585 C1573 0.929 . S
H1586 C1574 0.960 . S
H1587 C1574 0.962 . S
H1588 C1574 0.960 . S
H1589 C1575 0.961 . S
H1590 C1575 0.961 . S
H1591 C1575 0.961 . S
H1592 C1576 0.931 . S
H1593 C1581 0.930 . S
H1594 C1582 0.956 1_455 S
H1595 C1582 0.961 . S
H1596 C1582 0.961 . S
H1597 C1583 0.958 . S
H1598 C1583 0.961 . S
H1599 C1583 0.960 . S
C1600 C1601 1.391 . S
C1600 C1602 1.394 . S
C1600 H1616 0.931 . S
C1601 C1600 1.391 . S
C1601 C1605 1.376 . S
C1602 C1600 1.394 . S
C1602 C1603 1.369 . S
C1602 C1606 1.531 . S
C1603 C1602 1.369 . S
C1603 C1604 1.410 . S
C1603 C1611 1.503 . S
C1604 C1603 1.410 . S
C1604 C1605 1.392 . S
C1604 C1607 1.511 . S
C1605 C1601 1.376 . S
C1605 C1604 1.392 . S
C1605 H1617 0.929 . S
C1606 C1602 1.531 . S
C1606 H1618 0.960 . S
C1606 H1619 0.962 . S
C1606 H1620 0.960 . S
C1607 C1604 1.511 . S
C1607 H1621 0.961 . S
C1607 H1622 0.961 . S
C1607 H1623 0.961 . S
C1608 C1609 1.370 . S
C1608 C1610 1.363 . S
C1608 H1624 0.931 1_556 S
C1609 C1608 1.370 . S
C1609 C1613 1.408 . S
C1610 C1608 1.363 . S
C1610 C1611 1.370 . S
C1610 C1614 1.524 . S
C1611 C1603 1.503 . S
C1611 C1610 1.370 . S
C1611 C1612 1.403 . S
C1612 C1611 1.403 . S
C1612 C1613 1.404 . S
C1612 C1615 1.539 . S
C1613 C1609 1.408 . S
C1613 C1612 1.404 . S
C1613 H1625 0.930 . S
C1614 C1610 1.524 . S
C1614 H1626 0.956 . S
C1614 H1627 0.961 . S
C1614 H1628 0.961 1_556 S
C1615 C1612 1.539 . S
C1615 H1629 0.958 . S
C1615 H1630 0.961 . S
C1615 H1631 0.960 . S
H1616 C1600 0.931 . S
H1617 C1605 0.929 . S
H1618 C1606 0.960 . S
H1619 C1606 0.962 . S
H1620 C1606 0.960 . S
H1621 C1607 0.961 . S
H1622 C1607 0.961 . S
H1623 C1607 0.961 . S
H1624 C1608 0.931 1_554 S
H1625 C1613 0.930 . S
H1626 C1614 0.956 . S
H1627 C1614 0.961 . S
H1628 C1614 0.961 1_554 S
H1629 C1615 0.958 . S
H1630 C1615 0.961 . S
H1631 C1615 0.960 . S
C1632 C1633 1.391 . S
C1632 C1634 1.394 . S
C1632 H1648 0.931 . S
C1633 C1632 1.391 . S
C1633 C1637 1.376 . S
C1634 C1632 1.394 . S
C1634 C1635 1.369 . S
C1634 C1638 1.531 . S
C1635 C1634 1.369 . S
C1635 C1636 1.410 . S
C1635 C1643 1.503 . S
C1636 C1635 1.410 . S
C1636 C1637 1.392 . S
C1636 C1639 1.511 . S
C1637 C1633 1.376 . S
C1637 C1636 1.392 . S
C1637 H1649 0.929 . S
C1638 C1634 1.531 . S
C1638 H1650 0.960 . S
C1638 H1651 0.962 . S
C1638 H1652 0.960 . S
C1639 C1636 1.511 . S
C1639 H1653 0.961 . S
C1639 H1654 0.961 . S
C1639 H1655 0.961 . S
C1640 C1641 1.370 . S
C1640 C1642 1.363 . S
C1640 H1656 0.931 . S
C1641 C1640 1.370 . S
C1641 C1645 1.408 . S
C1642 C1640 1.363 . S
C1642 C1643 1.370 . S
C1642 C1646 1.524 . S
C1643 C1635 1.503 . S
C1643 C1642 1.370 . S
C1643 C1644 1.403 . S
C1644 C1643 1.403 . S
C1644 C1645 1.404 . S
C1644 C1647 1.539 . S
C1645 C1641 1.408 . S
C1645 C1644 1.404 . S
C1645 H1657 0.930 . S
C1646 C1642 1.524 . S
C1646 H1658 0.956 . S
C1646 H1659 0.961 . S
C1646 H1660 0.961 . S
C1647 C1644 1.539 . S
C1647 H1661 0.958 . S
C1647 H1662 0.961 . S
C1647 H1663 0.960 . S
H1648 C1632 0.931 . S
H1649 C1637 0.929 . S
H1650 C1638 0.960 . S
H1651 C1638 0.962 . S
H1652 C1638 0.960 . S
H1653 C1639 0.961 . S
H1654 C1639 0.961 . S
H1655 C1639 0.961 . S
H1656 C1640 0.931 . S
H1657 C1645 0.930 . S
H1658 C1646 0.956 . S
H1659 C1646 0.961 . S
H1660 C1646 0.961 . S
H1661 C1647 0.958 . S
H1662 C1647 0.961 . S
H1663 C1647 0.960 . S
C1664 C1665 1.391 . S
C1664 C1666 1.394 . S
C1664 H1680 0.931 . S
C1665 C1664 1.391 . S
C1665 C1669 1.376 . S
C1666 C1664 1.394 . S
C1666 C1667 1.369 . S
C1666 C1670 1.531 . S
C1667 C1666 1.369 . S
C1667 C1668 1.410 . S
C1667 C1675 1.503 . S
C1668 C1667 1.410 . S
C1668 C1669 1.392 . S
C1668 C1671 1.511 . S
C1669 C1665 1.376 . S
C1669 C1668 1.392 . S
C1669 H1681 0.929 . S
C1670 C1666 1.531 . S
C1670 H1682 0.960 . S
C1670 H1683 0.962 . S
C1670 H1684 0.960 . S
C1671 C1668 1.511 . S
C1671 H1685 0.961 . S
C1671 H1686 0.961 . S
C1671 H1687 0.961 . S
C1672 C1673 1.370 . S
C1672 C1674 1.363 . S
C1672 H1688 0.931 . S
C1673 C1672 1.370 . S
C1673 C1677 1.408 . S
C1674 C1672 1.363 . S
C1674 C1675 1.370 . S
C1674 C1678 1.524 . S
C1675 C1667 1.503 . S
C1675 C1674 1.370 . S
C1675 C1676 1.403 . S
C1676 C1675 1.403 . S
C1676 C1677 1.404 . S
C1676 C1679 1.539 . S
C1677 C1673 1.408 . S
C1677 C1676 1.404 . S
C1677 H1689 0.930 . S
C1678 C1674 1.524 . S
C1678 H1690 0.956 . S
C1678 H1691 0.961 . S
C1678 H1692 0.961 . S
C1679 C1676 1.539 . S
C1679 H1693 0.958 . S
C1679 H1694 0.961 . S
C1679 H1695 0.960 . S
H1680 C1664 0.931 . S
H1681 C1669 0.929 . S
H1682 C1670 0.960 . S
H1683 C1670 0.962 . S
H1684 C1670 0.960 . S
H1685 C1671 0.961 . S
H1686 C1671 0.961 . S
H1687 C1671 0.961 . S
H1688 C1672 0.931 . S
H1689 C1677 0.930 . S
H1690 C1678 0.956 . S
H1691 C1678 0.961 . S
H1692 C1678 0.961 . S
H1693 C1679 0.958 . S
H1694 C1679 0.961 . S
H1695 C1679 0.960 . S
C1696 C1697 1.391 . S
C1696 C1698 1.394 . S
C1696 H1712 0.931 . S
C1697 C1696 1.391 . S
C1697 C1701 1.376 . S
C1698 C1696 1.394 . S
C1698 C1699 1.369 . S
C1698 C1702 1.531 . S
C1699 C1698 1.369 . S
C1699 C1700 1.410 . S
C1699 C1707 1.503 . S
C1700 C1699 1.410 . S
C1700 C1701 1.392 . S
C1700 C1703 1.511 . S
C1701 C1697 1.376 . S
C1701 C1700 1.392 . S
C1701 H1713 0.929 . S
C1702 C1698 1.531 . S
C1702 H1714 0.960 . S
C1702 H1715 0.962 . S
C1702 H1716 0.960 . S
C1703 C1700 1.511 . S
C1703 H1717 0.961 . S
C1703 H1718 0.961 . S
C1703 H1719 0.961 . S
C1704 C1705 1.370 . S
C1704 C1706 1.363 . S
C1704 H1720 0.931 . S
C1705 C1704 1.370 . S
C1705 C1709 1.408 . S
C1706 C1704 1.363 . S
C1706 C1707 1.370 . S
C1706 C1710 1.524 . S
C1707 C1699 1.503 . S
C1707 C1706 1.370 . S
C1707 C1708 1.403 . S
C1708 C1707 1.403 . S
C1708 C1709 1.404 . S
C1708 C1711 1.539 . S
C1709 C1705 1.408 . S
C1709 C1708 1.404 . S
C1709 H1721 0.930 . S
C1710 C1706 1.524 . S
C1710 H1722 0.956 . S
C1710 H1723 0.961 . S
C1710 H1724 0.961 . S
C1711 C1708 1.539 . S
C1711 H1725 0.958 . S
C1711 H1726 0.961 . S
C1711 H1727 0.960 . S
H1712 C1696 0.931 . S
H1713 C1701 0.929 . S
H1714 C1702 0.960 . S
H1715 C1702 0.962 . S
H1716 C1702 0.960 . S
H1717 C1703 0.961 . S
H1718 C1703 0.961 . S
H1719 C1703 0.961 . S
H1720 C1704 0.931 . S
H1721 C1709 0.930 . S
H1722 C1710 0.956 . S
H1723 C1710 0.961 . S
H1724 C1710 0.961 . S
H1725 C1711 0.958 . S
H1726 C1711 0.961 . S
H1727 C1711 0.960 . S
C1728 C1729 1.391 . S
C1728 C1730 1.394 . S
C1728 H1744 0.931 . S
C1729 C1728 1.391 . S
C1729 C1733 1.376 . S
C1730 C1728 1.394 . S
C1730 C1731 1.369 . S
C1730 C1734 1.531 . S
C1731 C1730 1.369 . S
C1731 C1732 1.410 . S
C1731 C1739 1.503 . S
C1732 C1731 1.410 . S
C1732 C1733 1.392 . S
C1732 C1735 1.511 . S
C1733 C1729 1.376 . S
C1733 C1732 1.392 . S
C1733 H1745 0.929 . S
C1734 C1730 1.531 . S
C1734 H1746 0.960 . S
C1734 H1747 0.962 . S
C1734 H1748 0.960 . S
C1735 C1732 1.511 . S
C1735 H1749 0.961 . S
C1735 H1750 0.961 . S
C1735 H1751 0.961 . S
C1736 C1737 1.370 . S
C1736 C1738 1.363 . S
C1736 H1752 0.931 . S
C1737 C1736 1.370 . S
C1737 C1741 1.408 . S
C1738 C1736 1.363 . S
C1738 C1739 1.370 . S
C1738 C1742 1.524 . S
C1739 C1731 1.503 . S
C1739 C1738 1.370 . S
C1739 C1740 1.403 . S
C1740 C1739 1.403 . S
C1740 C1741 1.404 . S
C1740 C1743 1.539 . S
C1741 C1737 1.408 . S
C1741 C1740 1.404 . S
C1741 H1753 0.930 . S
C1742 C1738 1.524 . S
C1742 H1754 0.956 . S
C1742 H1755 0.961 . S
C1742 H1756 0.961 . S
C1743 C1740 1.539 . S
C1743 H1757 0.958 . S
C1743 H1758 0.961 . S
C1743 H1759 0.960 . S
H1744 C1728 0.931 . S
H1745 C1733 0.929 . S
H1746 C1734 0.960 . S
H1747 C1734 0.962 . S
H1748 C1734 0.960 . S
H1749 C1735 0.961 . S
H1750 C1735 0.961 . S
H1751 C1735 0.961 . S
H1752 C1736 0.931 . S
H1753 C1741 0.930 . S
H1754 C1742 0.956 . S
H1755 C1742 0.961 . S
H1756 C1742 0.961 . S
H1757 C1743 0.958 . S
H1758 C1743 0.961 . S
H1759 C1743 0.960 . S
C1760 C1761 1.391 . S
C1760 C1762 1.394 . S
C1760 H1776 0.931 . S
C1761 C1760 1.391 . S
C1761 C1765 1.376 . S
C1762 C1760 1.394 . S
C1762 C1763 1.369 . S
C1762 C1766 1.531 . S
C1763 C1762 1.369 . S
C1763 C1764 1.410 . S
C1763 C1771 1.503 . S
C1764 C1763 1.410 . S
C1764 C1765 1.392 . S
C1764 C1767 1.511 . S
C1765 C1761 1.376 . S
C1765 C1764 1.392 . S
C1765 H1777 0.929 . S
C1766 C1762 1.531 . S
C1766 H1778 0.960 . S
C1766 H1779 0.962 . S
C1766 H1780 0.960 . S
C1767 C1764 1.511 . S
C1767 H1781 0.961 . S
C1767 H1782 0.961 . S
C1767 H1783 0.961 . S
C1768 C1769 1.370 . S
C1768 C1770 1.363 . S
C1768 H1784 0.931 . S
C1769 C1768 1.370 . S
C1769 C1773 1.408 . S
C1770 C1768 1.363 . S
C1770 C1771 1.370 . S
C1770 C1774 1.524 . S
C1771 C1763 1.503 . S
C1771 C1770 1.370 . S
C1771 C1772 1.403 . S
C1772 C1771 1.403 . S
C1772 C1773 1.404 . S
C1772 C1775 1.539 . S
C1773 C1769 1.408 . S
C1773 C1772 1.404 . S
C1773 H1785 0.930 . S
C1774 C1770 1.524 . S
C1774 H1786 0.956 . S
C1774 H1787 0.961 . S
C1774 H1788 0.961 . S
C1775 C1772 1.539 . S
C1775 H1789 0.958 . S
C1775 H1790 0.961 . S
C1775 H1791 0.960 . S
H1776 C1760 0.931 . S
H1777 C1765 0.929 . S
H1778 C1766 0.960 . S
H1779 C1766 0.962 . S
H1780 C1766 0.960 . S
H1781 C1767 0.961 . S
H1782 C1767 0.961 . S
H1783 C1767 0.961 . S
H1784 C1768 0.931 . S
H1785 C1773 0.930 . S
H1786 C1774 0.956 . S
H1787 C1774 0.961 . S
H1788 C1774 0.961 . S
H1789 C1775 0.958 . S
H1790 C1775 0.961 . S
H1791 C1775 0.960 . S
C1792 C1793 1.391 . S
C1792 C1794 1.394 . S
C1792 H1808 0.931 . S
C1793 C1792 1.391 . S
C1793 C1797 1.376 . S
C1794 C1792 1.394 . S
C1794 C1795 1.369 . S
C1794 C1798 1.531 . S
C1795 C1794 1.369 . S
C1795 C1796 1.410 . S
C1795 C1803 1.503 . S
C1796 C1795 1.410 . S
C1796 C1797 1.392 . S
C1796 C1799 1.511 . S
C1797 C1793 1.376 . S
C1797 C1796 1.392 . S
C1797 H1809 0.929 . S
C1798 C1794 1.531 . S
C1798 H1810 0.960 . S
C1798 H1811 0.962 . S
C1798 H1812 0.960 . S
C1799 C1796 1.511 . S
C1799 H1813 0.961 . S
C1799 H1814 0.961 . S
C1799 H1815 0.961 . S
C1800 C1801 1.370 . S
C1800 C1802 1.363 . S
C1800 H1816 0.931 . S
C1801 C1800 1.370 . S
C1801 C1805 1.408 . S
C1802 C1800 1.363 . S
C1802 C1803 1.370 . S
C1802 C1806 1.524 . S
C1803 C1795 1.503 . S
C1803 C1802 1.370 . S
C1803 C1804 1.403 . S
C1804 C1803 1.403 . S
C1804 C1805 1.404 . S
C1804 C1807 1.539 . S
C1805 C1801 1.408 . S
C1805 C1804 1.404 . S
C1805 H1817 0.930 . S
C1806 C1802 1.524 . S
C1806 H1818 0.956 . S
C1806 H1819 0.961 . S
C1806 H1820 0.961 . S
C1807 C1804 1.539 . S
C1807 H1821 0.958 . S
C1807 H1822 0.961 . S
C1807 H1823 0.960 . S
H1808 C1792 0.931 . S
H1809 C1797 0.929 . S
H1810 C1798 0.960 . S
H1811 C1798 0.962 . S
H1812 C1798 0.960 . S
H1813 C1799 0.961 . S
H1814 C1799 0.961 . S
H1815 C1799 0.961 . S
H1816 C1800 0.931 . S
H1817 C1805 0.930 . S
H1818 C1806 0.956 . S
H1819 C1806 0.961 . S
H1820 C1806 0.961 . S
H1821 C1807 0.958 . S
H1822 C1807 0.961 . S
H1823 C1807 0.960 . S
C1824 C1825 1.391 . S
C1824 C1826 1.394 . S
C1824 H1840 0.931 . S
C1825 C1824 1.391 . S
C1825 C1829 1.376 . S
C1826 C1824 1.394 . S
C1826 C1827 1.369 . S
C1826 C1830 1.531 . S
C1827 C1826 1.369 . S
C1827 C1828 1.410 . S
C1827 C1835 1.503 . S
C1828 C1827 1.410 . S
C1828 C1829 1.392 . S
C1828 C1831 1.511 . S
C1829 C1825 1.376 . S
C1829 C1828 1.392 . S
C1829 H1841 0.929 . S
C1830 C1826 1.531 . S
C1830 H1842 0.960 . S
C1830 H1843 0.962 . S
C1830 H1844 0.960 . S
C1831 C1828 1.511 . S
C1831 H1845 0.961 . S
C1831 H1846 0.961 . S
C1831 H1847 0.961 . S
C1832 C1833 1.370 . S
C1832 C1834 1.363 . S
C1832 H1848 0.931 . S
C1833 C1832 1.370 . S
C1833 C1837 1.408 . S
C1834 C1832 1.363 . S
C1834 C1835 1.370 . S
C1834 C1838 1.524 . S
C1835 C1827 1.503 . S
C1835 C1834 1.370 . S
C1835 C1836 1.403 . S
C1836 C1835 1.403 . S
C1836 C1837 1.404 . S
C1836 C1839 1.539 . S
C1837 C1833 1.408 . S
C1837 C1836 1.404 . S
C1837 H1849 0.930 . S
C1838 C1834 1.524 . S
C1838 H1850 0.956 . S
C1838 H1851 0.961 . S
C1838 H1852 0.961 . S
C1839 C1836 1.539 . S
C1839 H1853 0.958 . S
C1839 H1854 0.961 . S
C1839 H1855 0.960 . S
H1840 C1824 0.931 . S
H1841 C1829 0.929 . S
H1842 C1830 0.960 . S
H1843 C1830 0.962 . S
H1844 C1830 0.960 . S
H1845 C1831 0.961 . S
H1846 C1831 0.961 . S
H1847 C1831 0.961 . S
H1848 C1832 0.931 . S
H1849 C1837 0.930 . S
H1850 C1838 0.956 . S
H1851 C1838 0.961 . S
H1852 C1838 0.961 . S
H1853 C1839 0.958 . S
H1854 C1839 0.961 . S
H1855 C1839 0.960 . S
C1856 C1857 1.391 . S
C1856 C1858 1.394 . S
C1856 H1872 0.931 . S
C1857 C1856 1.391 . S
C1857 C1861 1.376 . S
C1858 C1856 1.394 . S
C1858 C1859 1.369 . S
C1858 C1862 1.531 . S
C1859 C1858 1.369 . S
C1859 C1860 1.410 . S
C1859 C1867 1.503 . S
C1860 C1859 1.410 . S
C1860 C1861 1.392 . S
C1860 C1863 1.511 . S
C1861 C1857 1.376 . S
C1861 C1860 1.392 . S
C1861 H1873 0.929 . S
C1862 C1858 1.531 . S
C1862 H1874 0.960 . S
C1862 H1875 0.962 . S
C1862 H1876 0.960 . S
C1863 C1860 1.511 . S
C1863 H1877 0.961 . S
C1863 H1878 0.961 . S
C1863 H1879 0.961 . S
C1864 C1865 1.370 . S
C1864 C1866 1.363 . S
C1864 H1880 0.931 . S
C1865 C1864 1.370 . S
C1865 C1869 1.408 . S
C1866 C1864 1.363 . S
C1866 C1867 1.370 . S
C1866 C1870 1.524 . S
C1867 C1859 1.503 . S
C1867 C1866 1.370 . S
C1867 C1868 1.403 . S
C1868 C1867 1.403 . S
C1868 C1869 1.404 . S
C1868 C1871 1.539 . S
C1869 C1865 1.408 . S
C1869 C1868 1.404 . S
C1869 H1881 0.930 . S
C1870 C1866 1.524 . S
C1870 H1882 0.956 . S
C1870 H1883 0.961 . S
C1870 H1884 0.961 . S
C1871 C1868 1.539 . S
C1871 H1885 0.958 . S
C1871 H1886 0.961 . S
C1871 H1887 0.960 . S
H1872 C1856 0.931 . S
H1873 C1861 0.929 . S
H1874 C1862 0.960 . S
H1875 C1862 0.962 . S
H1876 C1862 0.960 . S
H1877 C1863 0.961 . S
H1878 C1863 0.961 . S
H1879 C1863 0.961 . S
H1880 C1864 0.931 . S
H1881 C1869 0.930 . S
H1882 C1870 0.956 . S
H1883 C1870 0.961 . S
H1884 C1870 0.961 . S
H1885 C1871 0.958 . S
H1886 C1871 0.961 . S
H1887 C1871 0.960 . S
C1888 C1889 1.391 . S
C1888 C1890 1.394 1_545 S
C1888 H1904 0.930 1_545 S
C1889 C1888 1.391 . S
C1889 C1893 1.376 . S
C1890 C1888 1.394 1_565 S
C1890 C1891 1.369 . S
C1890 C1894 1.531 . S
C1891 C1890 1.369 . S
C1891 C1892 1.410 1_565 S
C1891 C1899 1.503 . S
C1892 C1891 1.410 1_545 S
C1892 C1893 1.392 . S
C1892 C1895 1.511 . S
C1893 C1889 1.376 . S
C1893 C1892 1.392 . S
C1893 H1905 0.929 . S
C1894 C1890 1.531 . S
C1894 H1906 0.960 . S
C1894 H1907 0.962 . S
C1894 H1908 0.960 . S
C1895 C1892 1.511 . S
C1895 H1909 0.961 . S
C1895 H1910 0.961 1_545 S
C1895 H1911 0.961 . S
C1896 C1897 1.370 . S
C1896 C1898 1.363 . S
C1896 H1912 0.931 . S
C1897 C1896 1.370 . S
C1897 C1901 1.408 . S
C1898 C1896 1.363 . S
C1898 C1899 1.370 . S
C1898 C1902 1.524 . S
C1899 C1891 1.503 . S
C1899 C1898 1.370 . S
C1899 C1900 1.403 . S
C1900 C1899 1.403 . S
C1900 C1901 1.404 . S
C1900 C1903 1.539 . S
C1901 C1897 1.408 . S
C1901 C1900 1.404 . S
C1901 H1913 0.930 . S
C1902 C1898 1.524 . S
C1902 H1914 0.956 . S
C1902 H1915 0.961 . S
C1902 H1916 0.961 . S
C1903 C1900 1.539 . S
C1903 H1917 0.958 . S
C1903 H1918 0.961 . S
C1903 H1919 0.960 . S
H1904 C1888 0.930 1_565 S
H1905 C1893 0.929 . S
H1906 C1894 0.960 . S
H1907 C1894 0.962 . S
H1908 C1894 0.960 . S
H1909 C1895 0.961 . S
H1910 C1895 0.961 1_565 S
H1911 C1895 0.961 . S
H1912 C1896 0.931 . S
H1913 C1901 0.930 . S
H1914 C1902 0.956 . S
H1915 C1902 0.961 . S
H1916 C1902 0.961 . S
H1917 C1903 0.958 . S
H1918 C1903 0.961 . S
H1919 C1903 0.960 . S
C1920 C1921 1.391 . S
C1920 C1922 1.394 . S
C1920 H1936 0.931 1_556 S
C1921 C1920 1.391 . S
C1921 C1925 1.376 . S
C1922 C1920 1.394 . S
C1922 C1923 1.369 . S
C1922 C1926 1.531 . S
C1923 C1922 1.369 . S
C1923 C1924 1.410 . S
C1923 C1931 1.503 . S
C1924 C1923 1.410 . S
C1924 C1925 1.392 . S
C1924 C1927 1.511 . S
C1925 C1921 1.376 . S
C1925 C1924 1.392 . S
C1925 H1937 0.929 . S
C1926 C1922 1.531 . S
C1926 H1938 0.960 . S
C1926 H1939 0.962 . S
C1926 H1940 0.960 . S
C1927 C1924 1.511 . S
C1927 H1941 0.961 . S
C1927 H1942 0.961 . S
C1927 H1943 0.961 . S
C1928 C1929 1.370 . S
C1928 C1930 1.363 . S
C1928 H1944 0.931 . S
C1929 C1928 1.370 . S
C1929 C1933 1.408 . S
C1930 C1928 1.363 . S
C1930 C1931 1.370 . S
C1930 C1934 1.524 . S
C1931 C1923 1.503 . S
C1931 C1930 1.370 . S
C1931 C1932 1.403 . S
C1932 C1931 1.403 . S
C1932 C1933 1.404 . S
C1932 C1935 1.539 . S
C1933 C1929 1.408 . S
C1933 C1932 1.404 . S
C1933 H1945 0.930 . S
C1934 C1930 1.524 . S
C1934 H1946 0.956 . S
C1934 H1947 0.961 . S
C1934 H1948 0.961 . S
C1935 C1932 1.539 . S
C1935 H1949 0.958 . S
C1935 H1950 0.961 . S
C1935 H1951 0.960 . S
H1936 C1920 0.931 1_554 S
H1937 C1925 0.929 . S
H1938 C1926 0.960 . S
H1939 C1926 0.962 . S
H1940 C1926 0.960 . S
H1941 C1927 0.961 . S
H1942 C1927 0.961 . S
H1943 C1927 0.961 . S
H1944 C1928 0.931 . S
H1945 C1933 0.930 . S
H1946 C1934 0.956 . S
H1947 C1934 0.961 . S
H1948 C1934 0.961 . S
H1949 C1935 0.958 . S
H1950 C1935 0.961 . S
H1951 C1935 0.960 . S
C1952 C1953 1.391 . S
C1952 C1954 1.426 . S
C1952 H1968 0.931 . S
C1953 C1952 1.391 . S
C1953 C1957 1.376 . S
C1954 C1952 1.426 . S
C1954 C1955 1.346 1_565 S
C1954 C1958 1.522 1_565 S
C1955 C1954 1.346 1_545 S
C1955 C1956 1.410 . S
C1955 C1963 1.503 . S
C1956 C1955 1.410 . S
C1956 C1957 1.392 1_545 S
C1956 C1959 1.511 . S
C1957 C1953 1.376 . S
C1957 C1956 1.392 1_565 S
C1957 H1969 0.929 . S
C1958 C1954 1.522 1_545 S
C1958 H1970 0.960 . S
C1958 H1971 0.962 . S
C1958 H1972 0.960 1_545 S
C1959 C1956 1.511 . S
C1959 H1973 0.961 . S
C1959 H1974 0.961 . S
C1959 H1975 0.961 . S
C1960 C1961 1.370 . S
C1960 C1962 1.363 . S
C1960 H1976 0.931 . S
C1961 C1960 1.370 . S
C1961 C1965 1.408 . S
C1962 C1960 1.363 . S
C1962 C1963 1.370 . S
C1962 C1966 1.524 . S
C1963 C1955 1.503 . S
C1963 C1962 1.370 . S
C1963 C1964 1.403 . S
C1964 C1963 1.403 . S
C1964 C1965 1.404 . S
C1964 C1967 1.539 . S
C1965 C1961 1.408 . S
C1965 C1964 1.404 . S
C1965 H1977 0.930 . S
C1966 C1962 1.524 . S
C1966 H1978 0.956 . S
C1966 H1979 0.961 . S
C1966 H1980 0.961 . S
C1967 C1964 1.539 . S
C1967 H1981 0.958 . S
C1967 H1982 0.961 . S
C1967 H1983 0.966 . S
H1968 C1952 0.931 . S
H1969 C1957 0.929 . S
H1970 C1958 0.960 . S
H1971 C1958 0.962 . S
H1972 C1958 0.960 1_565 S
H1973 C1959 0.961 . S
H1974 C1959 0.961 . S
H1975 C1959 0.961 . S
H1976 C1960 0.931 . S
H1977 C1965 0.930 . S
H1978 C1966 0.956 . S
H1979 C1966 0.961 . S
H1980 C1966 0.961 . S
H1981 C1967 0.958 . S
H1982 C1967 0.961 . S
H1983 C1967 0.966 . S
C1984 C1985 1.391 . S
C1984 C1986 1.394 . S
C1984 H2000 0.931 . S
C1985 C1984 1.391 . S
C1985 C1989 1.376 . S
C1986 C1984 1.394 . S
C1986 C1987 1.369 . S
C1986 C1990 1.531 . S
C1987 C1986 1.369 . S
C1987 C1988 1.410 . S
C1987 C1995 1.503 . S
C1988 C1987 1.410 . S
C1988 C1989 1.392 . S
C1988 C1991 1.511 . S
C1989 C1985 1.376 . S
C1989 C1988 1.392 . S
C1989 H2001 0.929 . S
C1990 C1986 1.531 . S
C1990 H2002 0.960 . S
C1990 H2003 0.962 . S
C1990 H2004 0.960 . S
C1991 C1988 1.511 . S
C1991 H2005 0.961 . S
C1991 H2006 0.961 . S
C1991 H2007 0.961 . S
C1992 C1993 1.370 . S
C1992 C1994 1.363 . S
C1992 H2008 0.931 . S
C1993 C1992 1.370 . S
C1993 C1997 1.408 . S
C1994 C1992 1.363 . S
C1994 C1995 1.370 . S
C1994 C1998 1.524 . S
C1995 C1987 1.503 . S
C1995 C1994 1.370 . S
C1995 C1996 1.403 . S
C1996 C1995 1.403 . S
C1996 C1997 1.404 . S
C1996 C1999 1.539 . S
C1997 C1993 1.408 . S
C1997 C1996 1.404 . S
C1997 H2009 0.930 . S
C1998 C1994 1.524 . S
C1998 H2010 0.956 . S
C1998 H2011 0.961 . S
C1998 H2012 0.961 . S
C1999 C1996 1.539 . S
C1999 H2013 0.958 . S
C1999 H2014 0.961 . S
C1999 H2015 0.960 . S
H2000 C1984 0.931 . S
H2001 C1989 0.929 . S
H2002 C1990 0.960 . S
H2003 C1990 0.962 . S
H2004 C1990 0.960 . S
H2005 C1991 0.961 . S
H2006 C1991 0.961 . S
H2007 C1991 0.961 . S
H2008 C1992 0.931 . S
H2009 C1997 0.930 . S
H2010 C1998 0.956 . S
H2011 C1998 0.961 . S
H2012 C1998 0.961 . S
H2013 C1999 0.958 . S
H2014 C1999 0.961 . S
H2015 C1999 0.960 . S
C2016 C2017 1.391 . S
C2016 C2018 1.394 . S
C2016 H2032 0.931 . S
C2017 C2016 1.391 . S
C2017 C2021 1.376 . S
C2018 C2016 1.394 . S
C2018 C2019 1.369 . S
C2018 C2022 1.531 . S
C2019 C2018 1.369 . S
C2019 C2020 1.410 . S
C2019 C2027 1.503 . S
C2020 C2019 1.410 . S
C2020 C2021 1.392 . S
C2020 C2023 1.511 . S
C2021 C2017 1.376 . S
C2021 C2020 1.392 . S
C2021 H2033 0.929 . S
C2022 C2018 1.531 . S
C2022 H2034 0.960 . S
C2022 H2035 0.962 . S
C2022 H2036 0.960 . S
C2023 C2020 1.511 . S
C2023 H2037 0.961 . S
C2023 H2038 0.961 . S
C2023 H2039 0.961 . S
C2024 C2025 1.370 . S
C2024 C2026 1.363 . S
C2024 H2040 0.931 . S
C2025 C2024 1.370 . S
C2025 C2029 1.408 . S
C2026 C2024 1.363 . S
C2026 C2027 1.370 1_565 S
C2026 C2030 1.524 . S
C2027 C2019 1.503 . S
C2027 C2026 1.370 1_545 S
C2027 C2028 1.403 . S
C2028 C2027 1.403 . S
C2028 C2029 1.404 1_545 S
C2028 C2031 1.539 . S
C2029 C2025 1.408 . S
C2029 C2028 1.404 1_565 S
C2029 H2041 0.930 . S
C2030 C2026 1.524 . S
C2030 H2042 0.956 1_565 S
C2030 H2043 0.961 1_565 S
C2030 H2044 0.961 . S
C2031 C2028 1.539 . S
C2031 H2045 0.958 . S
C2031 H2046 0.961 . S
C2031 H2047 0.960 . S
H2032 C2016 0.931 . S
H2033 C2021 0.929 . S
H2034 C2022 0.960 . S
H2035 C2022 0.962 . S
H2036 C2022 0.960 . S
H2037 C2023 0.961 . S
H2038 C2023 0.961 . S
H2039 C2023 0.961 . S
H2040 C2024 0.931 . S
H2041 C2029 0.930 . S
H2042 C2030 0.956 1_545 S
H2043 C2030 0.961 1_545 S
H2044 C2030 0.961 . S
H2045 C2031 0.958 . S
H2046 C2031 0.961 . S
H2047 C2031 0.960 . S
C2048 C2049 1.391 . S
C2048 C2050 1.394 . S
C2048 H2064 0.931 . S
C2049 C2048 1.391 . S
C2049 C2053 1.376 . S
C2050 C2048 1.394 . S
C2050 C2051 1.369 . S
C2050 C2054 1.531 . S
C2051 C2050 1.369 . S
C2051 C2052 1.410 . S
C2051 C2059 1.503 . S
C2052 C2051 1.410 . S
C2052 C2053 1.392 . S
C2052 C2055 1.511 . S
C2053 C2049 1.376 . S
C2053 C2052 1.392 . S
C2053 H2065 0.929 . S
C2054 C2050 1.531 . S
C2054 H2066 0.960 . S
C2054 H2067 0.962 . S
C2054 H2068 0.960 . S
C2055 C2052 1.511 . S
C2055 H2069 0.961 . S
C2055 H2070 0.961 . S
C2055 H2071 0.961 . S
C2056 C2057 1.370 . S
C2056 C2058 1.363 . S
C2056 H2072 0.931 . S
C2057 C2056 1.370 . S
C2057 C2061 1.408 . S
C2058 C2056 1.363 . S
C2058 C2059 1.370 . S
C2058 C2062 1.524 . S
C2059 C2051 1.503 . S
C2059 C2058 1.370 . S
C2059 C2060 1.403 . S
C2060 C2059 1.403 . S
C2060 C2061 1.404 . S
C2060 C2063 1.539 . S
C2061 C2057 1.408 . S
C2061 C2060 1.404 . S
C2061 H2073 0.930 . S
C2062 C2058 1.524 . S
C2062 H2074 0.956 . S
C2062 H2075 0.961 . S
C2062 H2076 0.961 . S
C2063 C2060 1.539 . S
C2063 H2077 0.958 . S
C2063 H2078 0.961 . S
C2063 H2079 0.960 . S
H2064 C2048 0.931 . S
H2065 C2053 0.929 . S
H2066 C2054 0.960 . S
H2067 C2054 0.962 . S
H2068 C2054 0.960 . S
H2069 C2055 0.961 . S
H2070 C2055 0.961 . S
H2071 C2055 0.961 . S
H2072 C2056 0.931 . S
H2073 C2061 0.930 . S
H2074 C2062 0.956 . S
H2075 C2062 0.961 . S
H2076 C2062 0.961 . S
H2077 C2063 0.958 . S
H2078 C2063 0.961 . S
H2079 C2063 0.960 . S
C2080 C2081 1.391 . S
C2080 C2082 1.394 1_545 S
C2080 H2096 0.931 . S
C2081 C2080 1.391 . S
C2081 C2085 1.376 . S
C2082 C2080 1.394 1_565 S
C2082 C2083 1.369 . S
C2082 C2086 1.531 . S
C2083 C2082 1.369 . S
C2083 C2084 1.410 . S
C2083 C2091 1.503 . S
C2084 C2083 1.410 . S
C2084 C2085 1.392 1_565 S
C2084 C2087 1.511 . S
C2085 C2081 1.376 . S
C2085 C2084 1.392 1_545 S
C2085 H2097 0.929 . S
C2086 C2082 1.531 . S
C2086 H2098 0.960 . S
C2086 H2099 0.962 . S
C2086 H2100 0.960 . S
C2087 C2084 1.511 . S
C2087 H2101 0.961 1_565 S
C2087 H2102 0.961 . S
C2087 H2103 0.961 . S
C2088 C2089 1.370 . S
C2088 C2090 1.363 . S
C2088 H2104 0.931 . S
C2089 C2088 1.370 . S
C2089 C2093 1.408 . S
C2090 C2088 1.363 . S
C2090 C2091 1.370 . S
C2090 C2094 1.524 . S
C2091 C2083 1.503 . S
C2091 C2090 1.370 . S
C2091 C2092 1.403 . S
C2092 C2091 1.403 . S
C2092 C2093 1.404 . S
C2092 C2095 1.539 . S
C2093 C2089 1.408 . S
C2093 C2092 1.404 . S
C2093 H2105 0.930 . S
C2094 C2090 1.524 . S
C2094 H2106 0.956 . S
C2094 H2107 0.986 . S
C2094 H2108 0.961 . S
C2095 C2092 1.539 . S
C2095 H2109 0.958 . S
C2095 H2110 0.961 . S
C2095 H2111 0.960 . S
H2096 C2080 0.931 . S
H2097 C2085 0.929 . S
H2098 C2086 0.960 . S
H2099 C2086 0.962 . S
H2100 C2086 0.960 . S
H2101 C2087 0.961 1_545 S
H2102 C2087 0.961 . S
H2103 C2087 0.961 . S
H2104 C2088 0.931 . S
H2105 C2093 0.930 . S
H2106 C2094 0.956 . S
H2107 C2094 0.986 . S
H2108 C2094 0.961 . S
H2109 C2095 0.958 . S
H2110 C2095 0.961 . S
H2111 C2095 0.960 . S
C2112 C2113 1.391 . S
C2112 C2114 1.394 . S
C2112 H2128 0.931 . S
C2113 C2112 1.391 . S
C2113 C2117 1.376 . S
C2114 C2112 1.394 . S
C2114 C2115 1.369 . S
C2114 C2118 1.531 . S
C2115 C2114 1.369 . S
C2115 C2116 1.410 . S
C2115 C2123 1.503 . S
C2116 C2115 1.410 . S
C2116 C2117 1.392 . S
C2116 C2119 1.511 . S
C2117 C2113 1.376 . S
C2117 C2116 1.392 . S
C2117 H2129 0.929 . S
C2118 C2114 1.531 . S
C2118 H2130 0.960 . S
C2118 H2131 0.962 . S
C2118 H2132 0.960 . S
C2119 C2116 1.511 . S
C2119 H2133 0.961 . S
C2119 H2134 0.961 . S
C2119 H2135 0.961 . S
C2120 C2121 1.370 . S
C2120 C2122 1.363 . S
C2120 H2136 0.931 . S
C2121 C2120 1.370 . S
C2121 C2125 1.408 . S
C2122 C2120 1.363 . S
C2122 C2123 1.370 . S
C2122 C2126 1.524 . S
C2123 C2115 1.503 . S
C2123 C2122 1.370 . S
C2123 C2124 1.403 . S
C2124 C2123 1.403 . S
C2124 C2125 1.404 . S
C2124 C2127 1.539 . S
C2125 C2121 1.408 . S
C2125 C2124 1.404 . S
C2125 H2137 0.930 . S
C2126 C2122 1.524 . S
C2126 H2138 0.956 . S
C2126 H2139 0.961 . S
C2126 H2140 0.961 . S
C2127 C2124 1.539 . S
C2127 H2141 0.958 . S
C2127 H2142 0.961 . S
C2127 H2143 0.960 . S
H2128 C2112 0.931 . S
H2129 C2117 0.929 . S
H2130 C2118 0.960 . S
H2131 C2118 0.962 . S
H2132 C2118 0.960 . S
H2133 C2119 0.961 . S
H2134 C2119 0.961 . S
H2135 C2119 0.961 . S
H2136 C2120 0.931 . S
H2137 C2125 0.930 . S
H2138 C2126 0.956 . S
H2139 C2126 0.961 . S
H2140 C2126 0.961 . S
H2141 C2127 0.958 . S
H2142 C2127 0.961 . S
H2143 C2127 0.960 . S
C2144 C2145 1.391 . S
C2144 C2146 1.394 . S
C2144 H2160 0.931 . S
C2145 C2144 1.391 . S
C2145 C2149 1.376 . S
C2146 C2144 1.394 . S
C2146 C2147 1.369 . S
C2146 C2150 1.531 . S
C2147 C2146 1.369 . S
C2147 C2148 1.410 . S
C2147 C2155 1.503 . S
C2148 C2147 1.410 . S
C2148 C2149 1.392 . S
C2148 C2151 1.511 . S
C2149 C2145 1.376 . S
C2149 C2148 1.392 . S
C2149 H2161 0.929 . S
C2150 C2146 1.531 . S
C2150 H2162 0.960 . S
C2150 H2163 0.962 . S
C2150 H2164 0.960 . S
C2151 C2148 1.511 . S
C2151 H2165 0.961 . S
C2151 H2166 0.961 . S
C2151 H2167 0.961 . S
C2152 C2153 1.370 . S
C2152 C2154 1.363 . S
C2152 H2168 0.931 . S
C2153 C2152 1.370 . S
C2153 C2157 1.408 . S
C2154 C2152 1.363 . S
C2154 C2155 1.370 . S
C2154 C2158 1.524 . S
C2155 C2147 1.503 . S
C2155 C2154 1.370 . S
C2155 C2156 1.403 . S
C2156 C2155 1.403 . S
C2156 C2157 1.404 . S
C2156 C2159 1.539 . S
C2157 C2153 1.408 . S
C2157 C2156 1.404 . S
C2157 H2169 0.930 1_554 S
C2158 C2154 1.524 . S
C2158 H2170 0.956 . S
C2158 H2171 0.961 . S
C2158 H2172 0.961 . S
C2159 C2156 1.539 . S
C2159 H2173 0.958 . S
C2159 H2174 0.961 . S
C2159 H2175 0.960 . S
H2160 C2144 0.931 . S
H2161 C2149 0.929 . S
H2162 C2150 0.960 . S
H2163 C2150 0.962 . S
H2164 C2150 0.960 . S
H2165 C2151 0.961 . S
H2166 C2151 0.961 . S
H2167 C2151 0.961 . S
H2168 C2152 0.931 . S
H2169 C2157 0.930 1_556 S
H2170 C2158 0.956 . S
H2171 C2158 0.961 . S
H2172 C2158 0.961 . S
H2173 C2159 0.958 . S
H2174 C2159 0.961 . S
H2175 C2159 0.960 . S
C2176 C2177 1.391 . S
C2176 C2178 1.394 . S
C2176 H2192 0.931 . S
C2177 C2176 1.391 . S
C2177 C2181 1.376 . S
C2178 C2176 1.394 . S
C2178 C2179 1.369 . S
C2178 C2182 1.531 1_655 S
C2179 C2178 1.369 . S
C2179 C2180 1.410 . S
C2179 C2187 1.503 . S
C2180 C2179 1.410 . S
C2180 C2181 1.392 . S
C2180 C2183 1.511 . S
C2181 C2177 1.376 . S
C2181 C2180 1.392 . S
C2181 H2193 0.929 . S
C2182 C2178 1.531 1_455 S
C2182 H2194 0.960 . S
C2182 H2195 0.962 . S
C2182 H2196 0.960 . S
C2183 C2180 1.511 . S
C2183 H2197 0.961 . S
C2183 H2198 0.961 . S
C2183 H2199 0.961 . S
C2184 C2185 1.370 . S
C2184 C2186 1.363 . S
C2184 H2200 0.931 . S
C2185 C2184 1.370 . S
C2185 C2189 1.408 1_455 S
C2186 C2184 1.363 . S
C2186 C2187 1.370 1_455 S
C2186 C2190 1.524 . S
C2187 C2179 1.503 . S
C2187 C2186 1.370 1_655 S
C2187 C2188 1.403 . S
C2188 C2187 1.403 . S
C2188 C2189 1.404 . S
C2188 C2191 1.539 . S
C2189 C2185 1.408 1_655 S
C2189 C2188 1.404 . S
C2189 H2201 0.930 . S
C2190 C2186 1.524 . S
C2190 H2202 0.956 . S
C2190 H2203 0.961 1_455 S
C2190 H2204 0.961 . S
C2191 C2188 1.539 . S
C2191 H2205 0.958 . S
C2191 H2206 0.961 . S
C2191 H2207 0.960 . S
H2192 C2176 0.931 . S
H2193 C2181 0.929 . S
H2194 C2182 0.960 . S
H2195 C2182 0.962 . S
H2196 C2182 0.960 . S
H2197 C2183 0.961 . S
H2198 C2183 0.961 . S
H2199 C2183 0.961 . S
H2200 C2184 0.931 . S
H2201 C2189 0.930 . S
H2202 C2190 0.956 . S
H2203 C2190 0.961 1_655 S
H2204 C2190 0.961 . S
H2205 C2191 0.958 . S
H2206 C2191 0.961 . S
H2207 C2191 0.960 . S
C2208 C2209 1.391 . S
C2208 C2210 1.394 . S
C2208 H2224 0.931 . S
C2209 C2208 1.391 . S
C2209 C2213 1.376 . S
C2210 C2208 1.394 . S
C2210 C2211 1.369 . S
C2210 C2214 1.531 . S
C2211 C2210 1.369 . S
C2211 C2212 1.410 . S
C2211 C2219 1.503 . S
C2212 C2211 1.410 . S
C2212 C2213 1.392 . S
C2212 C2215 1.511 . S
C2213 C2209 1.376 . S
C2213 C2212 1.392 . S
C2213 H2225 0.929 . S
C2214 C2210 1.531 . S
C2214 H2226 0.960 . S
C2214 H2227 0.962 . S
C2214 H2228 0.960 . S
C2215 C2212 1.511 . S
C2215 H2229 0.961 . S
C2215 H2230 0.961 . S
C2215 H2231 0.961 . S
C2216 C2217 1.370 . S
C2216 C2218 1.363 . S
C2216 H2232 0.931 . S
C2217 C2216 1.370 . S
C2217 C2221 1.408 . S
C2218 C2216 1.363 . S
C2218 C2219 1.370 . S
C2218 C2222 1.524 . S
C2219 C2211 1.503 . S
C2219 C2218 1.370 . S
C2219 C2220 1.403 . S
C2220 C2219 1.403 . S
C2220 C2221 1.404 . S
C2220 C2223 1.539 . S
C2221 C2217 1.408 . S
C2221 C2220 1.404 . S
C2221 H2233 0.930 . S
C2222 C2218 1.524 . S
C2222 H2234 0.956 . S
C2222 H2235 0.961 . S
C2222 H2236 0.961 . S
C2223 C2220 1.539 . S
C2223 H2237 0.958 . S
C2223 H2238 0.961 . S
C2223 H2239 0.960 . S
H2224 C2208 0.931 . S
H2225 C2213 0.929 . S
H2226 C2214 0.960 . S
H2227 C2214 0.962 . S
H2228 C2214 0.960 . S
H2229 C2215 0.961 . S
H2230 C2215 0.961 . S
H2231 C2215 0.961 . S
H2232 C2216 0.931 . S
H2233 C2221 0.930 . S
H2234 C2222 0.956 . S
H2235 C2222 0.961 . S
H2236 C2222 0.961 . S
H2237 C2223 0.958 . S
H2238 C2223 0.961 . S
H2239 C2223 0.960 . S
C2240 C2241 1.391 . S
C2240 C2242 1.394 . S
C2240 H2256 0.931 . S
C2241 C2240 1.391 . S
C2241 C2245 1.376 . S
C2242 C2240 1.394 . S
C2242 C2243 1.369 . S
C2242 C2246 1.531 . S
C2243 C2242 1.369 . S
C2243 C2244 1.410 . S
C2243 C2251 1.503 . S
C2244 C2243 1.410 . S
C2244 C2245 1.392 . S
C2244 C2247 1.511 . S
C2245 C2241 1.376 . S
C2245 C2244 1.392 . S
C2245 H2257 0.929 . S
C2246 C2242 1.531 . S
C2246 H2258 0.960 . S
C2246 H2259 0.962 . S
C2246 H2260 0.960 . S
C2247 C2244 1.511 . S
C2247 H2261 0.961 . S
C2247 H2262 0.961 . S
C2247 H2263 0.961 . S
C2248 C2249 1.370 . S
C2248 C2250 1.363 . S
C2248 H2264 0.931 . S
C2249 C2248 1.370 . S
C2249 C2253 1.408 . S
C2250 C2248 1.363 . S
C2250 C2251 1.370 . S
C2250 C2254 1.524 . S
C2251 C2243 1.503 . S
C2251 C2250 1.370 . S
C2251 C2252 1.403 . S
C2252 C2251 1.403 . S
C2252 C2253 1.404 . S
C2252 C2255 1.539 . S
C2253 C2249 1.408 . S
C2253 C2252 1.404 . S
C2253 H2265 0.930 . S
C2254 C2250 1.524 . S
C2254 H2266 0.956 . S
C2254 H2267 0.961 . S
C2254 H2268 0.961 . S
C2255 C2252 1.539 . S
C2255 H2269 0.958 . S
C2255 H2270 0.961 . S
C2255 H2271 0.960 . S
H2256 C2240 0.931 . S
H2257 C2245 0.929 . S
H2258 C2246 0.960 . S
H2259 C2246 0.962 . S
H2260 C2246 0.960 . S
H2261 C2247 0.961 . S
H2262 C2247 0.961 . S
H2263 C2247 0.961 . S
H2264 C2248 0.931 . S
H2265 C2253 0.930 . S
H2266 C2254 0.956 . S
H2267 C2254 0.961 . S
H2268 C2254 0.961 . S
H2269 C2255 0.958 . S
H2270 C2255 0.961 . S
H2271 C2255 0.960 . S
C2272 C2273 1.391 . S
C2272 C2274 1.394 . S
C2272 H2288 0.931 . S
C2273 C2272 1.391 . S
C2273 C2277 1.376 . S
C2274 C2272 1.394 . S
C2274 C2275 1.369 . S
C2274 C2278 1.531 . S
C2275 C2274 1.369 . S
C2275 C2276 1.410 . S
C2275 C2283 1.503 . S
C2276 C2275 1.410 . S
C2276 C2277 1.392 . S
C2276 C2279 1.511 . S
C2277 C2273 1.376 . S
C2277 C2276 1.392 . S
C2277 H2289 0.929 . S
C2278 C2274 1.531 . S
C2278 H2290 0.960 . S
C2278 H2291 0.962 . S
C2278 H2292 0.960 . S
C2279 C2276 1.511 . S
C2279 H2293 0.961 . S
C2279 H2294 0.961 . S
C2279 H2295 0.961 . S
C2280 C2281 1.370 . S
C2280 C2282 1.363 . S
C2280 H2296 0.931 . S
C2281 C2280 1.370 . S
C2281 C2285 1.408 . S
C2282 C2280 1.363 . S
C2282 C2283 1.370 . S
C2282 C2286 1.524 . S
C2283 C2275 1.503 . S
C2283 C2282 1.370 . S
C2283 C2284 1.403 . S
C2284 C2283 1.403 . S
C2284 C2285 1.404 . S
C2284 C2287 1.539 . S
C2285 C2281 1.408 . S
C2285 C2284 1.404 . S
C2285 H2297 0.930 . S
C2286 C2282 1.524 . S
C2286 H2298 0.956 . S
C2286 H2299 0.961 . S
C2286 H2300 0.961 . S
C2287 C2284 1.539 . S
C2287 H2301 0.958 . S
C2287 H2302 0.961 . S
C2287 H2303 0.960 . S
H2288 C2272 0.931 . S
H2289 C2277 0.929 . S
H2290 C2278 0.960 . S
H2291 C2278 0.962 . S
H2292 C2278 0.960 . S
H2293 C2279 0.961 . S
H2294 C2279 0.961 . S
H2295 C2279 0.961 . S
H2296 C2280 0.931 . S
H2297 C2285 0.930 . S
H2298 C2286 0.956 . S
H2299 C2286 0.961 . S
H2300 C2286 0.961 . S
H2301 C2287 0.958 . S
H2302 C2287 0.961 . S
H2303 C2287 0.960 . S
C2304 C2305 1.391 . S
C2304 C2306 1.394 . S
C2304 H2320 0.931 . S
C2305 C2304 1.391 . S
C2305 C2309 1.376 . S
C2306 C2304 1.394 . S
C2306 C2307 1.369 . S
C2306 C2310 1.531 . S
C2307 C2306 1.369 . S
C2307 C2308 1.410 . S
C2307 C2315 1.503 . S
C2308 C2307 1.410 . S
C2308 C2309 1.392 . S
C2308 C2311 1.511 1_455 S
C2309 C2305 1.376 . S
C2309 C2308 1.392 . S
C2309 H2321 0.929 . S
C2310 C2306 1.531 . S
C2310 H2322 0.960 . S
C2310 H2323 0.962 . S
C2310 H2324 0.960 . S
C2311 C2308 1.511 1_655 S
C2311 H2325 0.961 . S
C2311 H2326 0.961 . S
C2311 H2327 0.961 . S
C2312 C2313 1.370 1_455 S
C2312 C2314 1.363 . S
C2312 H2328 0.931 . S
C2313 C2312 1.370 1_655 S
C2313 C2317 1.408 . S
C2314 C2312 1.363 . S
C2314 C2315 1.370 . S
C2314 C2318 1.524 . S
C2315 C2307 1.503 . S
C2315 C2314 1.370 . S
C2315 C2316 1.403 1_455 S
C2316 C2315 1.403 1_655 S
C2316 C2317 1.404 . S
C2316 C2319 1.539 . S
C2317 C2313 1.408 . S
C2317 C2316 1.404 . S
C2317 H2329 0.930 . S
C2318 C2314 1.524 . S
C2318 H2330 0.956 . S
C2318 H2331 0.961 . S
C2318 H2332 0.961 . S
C2319 C2316 1.539 . S
C2319 H2333 0.958 . S
C2319 H2334 0.961 . S
C2319 H2335 0.960 . S
H2320 C2304 0.931 . S
H2321 C2309 0.929 . S
H2322 C2310 0.960 . S
H2323 C2310 0.962 . S
H2324 C2310 0.960 . S
H2325 C2311 0.961 . S
H2326 C2311 0.961 . S
H2327 C2311 0.961 . S
H2328 C2312 0.931 . S
H2329 C2317 0.930 . S
H2330 C2318 0.956 . S
H2331 C2318 0.961 . S
H2332 C2318 0.961 . S
H2333 C2319 0.958 . S
H2334 C2319 0.961 . S
H2335 C2319 0.960 . S
C2336 C2337 1.391 . S
C2336 C2338 1.394 . S
C2336 H2352 0.931 . S
C2337 C2336 1.391 . S
C2337 C2341 1.376 . S
C2338 C2336 1.394 . S
C2338 C2339 1.369 . S
C2338 C2342 1.531 . S
C2339 C2338 1.369 . S
C2339 C2340 1.410 . S
C2339 C2347 1.503 . S
C2340 C2339 1.410 . S
C2340 C2341 1.392 . S
C2340 C2343 1.511 . S
C2341 C2337 1.376 . S
C2341 C2340 1.392 . S
C2341 H2353 0.929 . S
C2342 C2338 1.531 . S
C2342 H2354 0.960 . S
C2342 H2355 0.962 . S
C2342 H2356 0.960 . S
C2343 C2340 1.511 . S
C2343 H2357 0.961 . S
C2343 H2358 0.961 . S
C2343 H2359 0.961 . S
C2344 C2345 1.370 . S
C2344 C2346 1.363 . S
C2344 H2360 0.931 . S
C2345 C2344 1.370 . S
C2345 C2349 1.408 . S
C2346 C2344 1.363 . S
C2346 C2347 1.370 . S
C2346 C2350 1.524 . S
C2347 C2339 1.503 . S
C2347 C2346 1.370 . S
C2347 C2348 1.403 . S
C2348 C2347 1.403 . S
C2348 C2349 1.404 . S
C2348 C2351 1.539 . S
C2349 C2345 1.408 . S
C2349 C2348 1.404 . S
C2349 H2361 0.930 . S
C2350 C2346 1.524 . S
C2350 H2362 0.956 . S
C2350 H2363 0.961 . S
C2350 H2364 0.961 . S
C2351 C2348 1.539 . S
C2351 H2365 0.958 . S
C2351 H2366 0.961 . S
C2351 H2367 0.960 . S
H2352 C2336 0.931 . S
H2353 C2341 0.929 . S
H2354 C2342 0.960 . S
H2355 C2342 0.962 . S
H2356 C2342 0.960 . S
H2357 C2343 0.961 . S
H2358 C2343 0.961 . S
H2359 C2343 0.961 . S
H2360 C2344 0.931 . S
H2361 C2349 0.930 . S
H2362 C2350 0.956 . S
H2363 C2350 0.961 . S
H2364 C2350 0.961 . S
H2365 C2351 0.958 . S
H2366 C2351 0.961 . S
H2367 C2351 0.960 . S
C2368 C2369 1.391 . S
C2368 C2370 1.394 . S
C2368 H2384 0.931 . S
C2369 C2368 1.391 . S
C2369 C2373 1.376 1_655 S
C2370 C2368 1.394 . S
C2370 C2371 1.369 1_655 S
C2370 C2374 1.531 . S
C2371 C2370 1.369 1_455 S
C2371 C2372 1.410 . S
C2371 C2379 1.503 . S
C2372 C2371 1.410 . S
C2372 C2373 1.392 . S
C2372 C2375 1.511 . S
C2373 C2369 1.376 1_455 S
C2373 C2372 1.392 . S
C2373 H2385 0.929 . S
C2374 C2370 1.531 . S
C2374 H2386 0.960 . S
C2374 H2387 0.962 . S
C2374 H2388 0.960 . S
C2375 C2372 1.511 . S
C2375 H2389 0.961 . S
C2375 H2390 0.961 . S
C2375 H2391 0.961 . S
C2376 C2377 1.370 . S
C2376 C2378 1.363 . S
C2376 H2392 0.931 . S
C2377 C2376 1.370 . S
C2377 C2381 1.408 . S
C2378 C2376 1.363 . S
C2378 C2379 1.370 . S
C2378 C2382 1.506 1_455 S
C2379 C2371 1.503 . S
C2379 C2378 1.370 . S
C2379 C2380 1.403 . S
C2380 C2379 1.403 . S
C2380 C2381 1.404 . S
C2380 C2383 1.539 . S
C2381 C2377 1.408 . S
C2381 C2380 1.404 . S
C2381 H2393 0.930 . S
C2382 C2378 1.506 1_655 S
C2382 H2394 0.980 . S
C2382 H2395 0.953 1_655 S
C2382 H2396 0.963 . S
C2383 C2380 1.539 . S
C2383 H2397 0.958 . S
C2383 H2398 0.961 . S
C2383 H2399 0.960 . S
H2384 C2368 0.931 . S
H2385 C2373 0.929 . S
H2386 C2374 0.960 . S
H2387 C2374 0.962 . S
H2388 C2374 0.960 . S
H2389 C2375 0.961 . S
H2390 C2375 0.961 . S
H2391 C2375 0.961 . S
H2392 C2376 0.931 . S
H2393 C2381 0.930 . S
H2394 C2382 0.980 . S
H2395 C2382 0.953 1_455 S
H2396 C2382 0.963 . S
H2397 C2383 0.958 . S
H2398 C2383 0.961 . S
H2399 C2383 0.960 . S
C2400 C2401 1.391 . S
C2400 C2402 1.394 . S
C2400 H2416 0.931 . S
C2401 C2400 1.391 . S
C2401 C2405 1.376 . S
C2402 C2400 1.394 . S
C2402 C2403 1.369 . S
C2402 C2406 1.531 . S
C2403 C2402 1.369 . S
C2403 C2404 1.410 . S
C2403 C2411 1.503 . S
C2404 C2403 1.410 . S
C2404 C2405 1.392 . S
C2404 C2407 1.511 . S
C2405 C2401 1.376 . S
C2405 C2404 1.392 . S
C2405 H2417 0.929 . S
C2406 C2402 1.531 . S
C2406 H2418 0.960 . S
C2406 H2419 0.962 . S
C2406 H2420 0.960 . S
C2407 C2404 1.511 . S
C2407 H2421 0.961 . S
C2407 H2422 0.961 . S
C2407 H2423 0.961 . S
C2408 C2409 1.370 . S
C2408 C2410 1.363 . S
C2408 H2424 0.931 . S
C2409 C2408 1.370 . S
C2409 C2413 1.408 . S
C2410 C2408 1.363 . S
C2410 C2411 1.370 . S
C2410 C2414 1.524 . S
C2411 C2403 1.503 . S
C2411 C2410 1.370 . S
C2411 C2412 1.403 . S
C2412 C2411 1.403 . S
C2412 C2413 1.404 . S
C2412 C2415 1.539 . S
C2413 C2409 1.408 . S
C2413 C2412 1.404 . S
C2413 H2425 0.930 . S
C2414 C2410 1.524 . S
C2414 H2426 0.956 . S
C2414 H2427 0.961 . S
C2414 H2428 0.961 . S
C2415 C2412 1.539 . S
C2415 H2429 0.958 . S
C2415 H2430 0.961 . S
C2415 H2431 0.960 . S
H2416 C2400 0.931 . S
H2417 C2405 0.929 . S
H2418 C2406 0.960 . S
H2419 C2406 0.962 . S
H2420 C2406 0.960 . S
H2421 C2407 0.961 . S
H2422 C2407 0.961 . S
H2423 C2407 0.961 . S
H2424 C2408 0.931 . S
H2425 C2413 0.930 . S
H2426 C2414 0.956 . S
H2427 C2414 0.961 . S
H2428 C2414 0.961 . S
H2429 C2415 0.958 . S
H2430 C2415 0.961 . S
H2431 C2415 0.960 . S
C2432 C2433 1.391 . S
C2432 C2434 1.394 . S
C2432 H2448 0.931 . S
C2433 C2432 1.391 . S
C2433 C2437 1.376 . S
C2434 C2432 1.394 . S
C2434 C2435 1.369 . S
C2434 C2438 1.531 . S
C2435 C2434 1.369 . S
C2435 C2436 1.410 . S
C2435 C2443 1.503 . S
C2436 C2435 1.410 . S
C2436 C2437 1.392 . S
C2436 C2439 1.511 . S
C2437 C2433 1.376 . S
C2437 C2436 1.392 . S
C2437 H2449 0.929 . S
C2438 C2434 1.531 . S
C2438 H2450 0.960 . S
C2438 H2451 0.962 . S
C2438 H2452 0.960 . S
C2439 C2436 1.511 . S
C2439 H2453 0.961 . S
C2439 H2454 0.961 . S
C2439 H2455 0.961 . S
C2440 C2441 1.370 . S
C2440 C2442 1.363 . S
C2440 H2456 0.931 . S
C2441 C2440 1.370 . S
C2441 C2445 1.408 . S
C2442 C2440 1.363 . S
C2442 C2443 1.370 . S
C2442 C2446 1.524 . S
C2443 C2435 1.503 . S
C2443 C2442 1.370 . S
C2443 C2444 1.403 . S
C2444 C2443 1.403 . S
C2444 C2445 1.404 . S
C2444 C2447 1.539 . S
C2445 C2441 1.408 . S
C2445 C2444 1.404 . S
C2445 H2457 0.930 . S
C2446 C2442 1.524 . S
C2446 H2458 0.956 . S
C2446 H2459 0.961 . S
C2446 H2460 0.961 . S
C2447 C2444 1.539 . S
C2447 H2461 0.958 . S
C2447 H2462 0.961 . S
C2447 H2463 0.960 . S
H2448 C2432 0.931 . S
H2449 C2437 0.929 . S
H2450 C2438 0.960 . S
H2451 C2438 0.962 . S
H2452 C2438 0.960 . S
H2453 C2439 0.961 . S
H2454 C2439 0.961 . S
H2455 C2439 0.961 . S
H2456 C2440 0.931 . S
H2457 C2445 0.930 . S
H2458 C2446 0.956 . S
H2459 C2446 0.961 . S
H2460 C2446 0.961 . S
H2461 C2447 0.958 . S
H2462 C2447 0.961 . S
H2463 C2447 0.960 . S
C2464 C2465 1.391 . S
C2464 C2466 1.394 . S
C2464 H2480 0.931 1_554 S
C2465 C2464 1.391 . S
C2465 C2469 1.376 . S
C2466 C2464 1.394 . S
C2466 C2467 1.369 . S
C2466 C2470 1.531 . S
C2467 C2466 1.369 . S
C2467 C2468 1.410 . S
C2467 C2475 1.503 . S
C2468 C2467 1.410 . S
C2468 C2469 1.392 . S
C2468 C2471 1.511 . S
C2469 C2465 1.376 . S
C2469 C2468 1.392 . S
C2469 H2481 0.929 . S
C2470 C2466 1.531 . S
C2470 H2482 0.960 . S
C2470 H2483 0.962 . S
C2470 H2484 0.960 . S
C2471 C2468 1.511 . S
C2471 H2485 0.961 . S
C2471 H2486 0.961 . S
C2471 H2487 0.961 . S
C2472 C2473 1.370 . S
C2472 C2474 1.363 . S
C2472 H2488 0.931 . S
C2473 C2472 1.370 . S
C2473 C2477 1.408 . S
C2474 C2472 1.363 . S
C2474 C2475 1.370 . S
C2474 C2478 1.524 . S
C2475 C2467 1.503 . S
C2475 C2474 1.370 . S
C2475 C2476 1.403 . S
C2476 C2475 1.403 . S
C2476 C2477 1.404 . S
C2476 C2479 1.539 . S
C2477 C2473 1.408 . S
C2477 C2476 1.404 . S
C2477 H2489 0.930 . S
C2478 C2474 1.524 . S
C2478 H2490 0.956 . S
C2478 H2491 0.961 . S
C2478 H2492 0.961 . S
C2479 C2476 1.539 . S
C2479 H2493 0.958 . S
C2479 H2494 0.961 . S
C2479 H2495 0.960 . S
H2480 C2464 0.931 1_556 S
H2481 C2469 0.929 . S
H2482 C2470 0.960 . S
H2483 C2470 0.962 . S
H2484 C2470 0.960 . S
H2485 C2471 0.961 . S
H2486 C2471 0.961 . S
H2487 C2471 0.961 . S
H2488 C2472 0.931 . S
H2489 C2477 0.930 . S
H2490 C2478 0.956 . S
H2491 C2478 0.961 . S
H2492 C2478 0.961 . S
H2493 C2479 0.958 . S
H2494 C2479 0.961 . S
H2495 C2479 0.960 . S
C2496 C2497 1.391 . S
C2496 C2498 1.394 . S
C2496 H2512 0.931 . S
C2497 C2496 1.391 . S
C2497 C2501 1.376 1_455 S
C2498 C2496 1.394 . S
C2498 C2499 1.369 1_455 S
C2498 C2502 1.531 . S
C2499 C2498 1.369 1_655 S
C2499 C2500 1.410 . S
C2499 C2507 1.503 . S
C2500 C2499 1.410 . S
C2500 C2501 1.392 . S
C2500 C2503 1.511 . S
C2501 C2497 1.376 1_655 S
C2501 C2500 1.392 . S
C2501 H2513 0.929 . S
C2502 C2498 1.531 . S
C2502 H2514 0.960 . S
C2502 H2515 0.962 . S
C2502 H2516 0.960 . S
C2503 C2500 1.511 . S
C2503 H2517 0.961 . S
C2503 H2518 0.961 . S
C2503 H2519 0.961 . S
C2504 C2505 1.370 . S
C2504 C2506 1.363 . S
C2504 H2520 0.931 . S
C2505 C2504 1.370 . S
C2505 C2509 1.408 . S
C2506 C2504 1.363 . S
C2506 C2507 1.370 . S
C2506 C2510 1.524 . S
C2507 C2499 1.503 . S
C2507 C2506 1.370 . S
C2507 C2508 1.403 . S
C2508 C2507 1.403 . S
C2508 C2509 1.404 . S
C2508 C2511 1.539 . S
C2509 C2505 1.408 . S
C2509 C2508 1.404 . S
C2509 H2521 0.930 . S
C2510 C2506 1.524 . S
C2510 H2522 0.956 1_655 S
C2510 H2523 0.961 . S
C2510 H2524 0.961 . S
C2511 C2508 1.539 . S
C2511 H2525 0.958 . S
C2511 H2526 0.961 . S
C2511 H2527 0.960 . S
H2512 C2496 0.931 . S
H2513 C2501 0.929 . S
H2514 C2502 0.960 . S
H2515 C2502 0.962 . S
H2516 C2502 0.960 . S
H2517 C2503 0.961 . S
H2518 C2503 0.961 . S
H2519 C2503 0.961 . S
H2520 C2504 0.931 . S
H2521 C2509 0.930 . S
H2522 C2510 0.956 1_455 S
H2523 C2510 0.961 . S
H2524 C2510 0.961 . S
H2525 C2511 0.958 . S
H2526 C2511 0.961 . S
H2527 C2511 0.960 . S
C2528 C2529 1.391 . S
C2528 C2530 1.394 . S
C2528 H2544 0.931 . S
C2529 C2528 1.391 . S
C2529 C2533 1.376 . S
C2530 C2528 1.394 . S
C2530 C2531 1.369 . S
C2530 C2534 1.531 . S
C2531 C2530 1.369 . S
C2531 C2532 1.410 . S
C2531 C2539 1.503 . S
C2532 C2531 1.410 . S
C2532 C2533 1.392 . S
C2532 C2535 1.511 . S
C2533 C2529 1.376 . S
C2533 C2532 1.392 . S
C2533 H2545 0.929 . S
C2534 C2530 1.531 . S
C2534 H2546 0.960 . S
C2534 H2547 0.962 . S
C2534 H2548 0.960 . S
C2535 C2532 1.511 . S
C2535 H2549 0.961 . S
C2535 H2550 0.961 . S
C2535 H2551 0.961 . S
C2536 C2537 1.370 . S
C2536 C2538 1.363 . S
C2536 H2552 0.931 . S
C2537 C2536 1.370 . S
C2537 C2541 1.408 . S
C2538 C2536 1.363 . S
C2538 C2539 1.370 . S
C2538 C2542 1.524 . S
C2539 C2531 1.503 . S
C2539 C2538 1.370 . S
C2539 C2540 1.403 . S
C2540 C2539 1.403 . S
C2540 C2541 1.404 . S
C2540 C2543 1.539 . S
C2541 C2537 1.408 . S
C2541 C2540 1.404 . S
C2541 H2553 0.930 . S
C2542 C2538 1.524 . S
C2542 H2554 0.956 . S
C2542 H2555 0.961 . S
C2542 H2556 0.961 . S
C2543 C2540 1.539 . S
C2543 H2557 0.958 . S
C2543 H2558 0.961 . S
C2543 H2559 0.960 . S
H2544 C2528 0.931 . S
H2545 C2533 0.929 . S
H2546 C2534 0.960 . S
H2547 C2534 0.962 . S
H2548 C2534 0.960 . S
H2549 C2535 0.961 . S
H2550 C2535 0.961 . S
H2551 C2535 0.961 . S
H2552 C2536 0.931 . S
H2553 C2541 0.930 . S
H2554 C2542 0.956 . S
H2555 C2542 0.961 . S
H2556 C2542 0.961 . S
H2557 C2543 0.958 . S
H2558 C2543 0.961 . S
H2559 C2543 0.960 . S
C2560 C2561 1.391 . S
C2560 C2562 1.394 . S
C2560 H2576 0.931 . S
C2561 C2560 1.391 . S
C2561 C2565 1.376 . S
C2562 C2560 1.394 . S
C2562 C2563 1.369 . S
C2562 C2566 1.531 . S
C2563 C2562 1.369 . S
C2563 C2564 1.410 . S
C2563 C2571 1.503 . S
C2564 C2563 1.410 . S
C2564 C2565 1.392 . S
C2564 C2567 1.511 . S
C2565 C2561 1.376 . S
C2565 C2564 1.392 . S
C2565 H2577 0.929 . S
C2566 C2562 1.531 . S
C2566 H2578 0.960 . S
C2566 H2579 0.962 . S
C2566 H2580 0.960 . S
C2567 C2564 1.511 . S
C2567 H2581 0.961 . S
C2567 H2582 0.961 . S
C2567 H2583 0.961 . S
C2568 C2569 1.370 . S
C2568 C2570 1.363 . S
C2568 H2584 0.931 . S
C2569 C2568 1.370 . S
C2569 C2573 1.408 . S
C2570 C2568 1.363 . S
C2570 C2571 1.370 . S
C2570 C2574 1.524 . S
C2571 C2563 1.503 . S
C2571 C2570 1.370 . S
C2571 C2572 1.403 . S
C2572 C2571 1.403 . S
C2572 C2573 1.404 . S
C2572 C2575 1.539 . S
C2573 C2569 1.408 . S
C2573 C2572 1.404 . S
C2573 H2585 0.930 . S
C2574 C2570 1.524 . S
C2574 H2586 0.956 . S
C2574 H2587 0.961 . S
C2574 H2588 0.961 . S
C2575 C2572 1.539 . S
C2575 H2589 0.958 . S
C2575 H2590 0.961 . S
C2575 H2591 0.960 . S
H2576 C2560 0.931 . S
H2577 C2565 0.929 . S
H2578 C2566 0.960 . S
H2579 C2566 0.962 . S
H2580 C2566 0.960 . S
H2581 C2567 0.961 . S
H2582 C2567 0.961 . S
H2583 C2567 0.961 . S
H2584 C2568 0.931 . S
H2585 C2573 0.930 . S
H2586 C2574 0.956 . S
H2587 C2574 0.961 . S
H2588 C2574 0.961 . S
H2589 C2575 0.958 . S
H2590 C2575 0.961 . S
H2591 C2575 0.960 . S
C2592 C2593 1.391 . S
C2592 C2594 1.394 . S
C2592 H2608 0.931 . S
C2593 C2592 1.391 . S
C2593 C2597 1.376 . S
C2594 C2592 1.394 . S
C2594 C2595 1.369 . S
C2594 C2598 1.531 . S
C2595 C2594 1.369 . S
C2595 C2596 1.410 . S
C2595 C2603 1.503 . S
C2596 C2595 1.410 . S
C2596 C2597 1.392 . S
C2596 C2599 1.511 . S
C2597 C2593 1.376 . S
C2597 C2596 1.392 . S
C2597 H2609 0.929 . S
C2598 C2594 1.531 . S
C2598 H2610 0.960 . S
C2598 H2611 0.962 . S
C2598 H2612 0.960 . S
C2599 C2596 1.511 . S
C2599 H2613 0.961 . S
C2599 H2614 0.961 . S
C2599 H2615 0.961 . S
C2600 C2601 1.370 . S
C2600 C2602 1.363 . S
C2600 H2616 0.931 . S
C2601 C2600 1.370 . S
C2601 C2605 1.408 . S
C2602 C2600 1.363 . S
C2602 C2603 1.370 . S
C2602 C2606 1.524 . S
C2603 C2595 1.503 . S
C2603 C2602 1.370 . S
C2603 C2604 1.403 . S
C2604 C2603 1.403 . S
C2604 C2605 1.404 . S
C2604 C2607 1.539 . S
C2605 C2601 1.408 . S
C2605 C2604 1.404 . S
C2605 H2617 0.930 . S
C2606 C2602 1.524 . S
C2606 H2618 0.956 . S
C2606 H2619 0.961 . S
C2606 H2620 0.961 . S
C2607 C2604 1.539 . S
C2607 H2621 0.958 . S
C2607 H2622 0.961 . S
C2607 H2623 0.960 . S
H2608 C2592 0.931 . S
H2609 C2597 0.929 . S
H2610 C2598 0.960 . S
H2611 C2598 0.962 . S
H2612 C2598 0.960 . S
H2613 C2599 0.961 . S
H2614 C2599 0.961 . S
H2615 C2599 0.961 . S
H2616 C2600 0.931 . S
H2617 C2605 0.930 . S
H2618 C2606 0.956 . S
H2619 C2606 0.961 . S
H2620 C2606 0.961 . S
H2621 C2607 0.958 . S
H2622 C2607 0.961 . S
H2623 C2607 0.960 . S
C2624 C2625 1.391 . S
C2624 C2626 1.394 . S
C2624 H2640 0.931 . S
C2625 C2624 1.391 . S
C2625 C2629 1.376 . S
C2626 C2624 1.394 . S
C2626 C2627 1.369 . S
C2626 C2630 1.531 . S
C2627 C2626 1.369 . S
C2627 C2628 1.410 . S
C2627 C2635 1.503 . S
C2628 C2627 1.410 . S
C2628 C2629 1.392 . S
C2628 C2631 1.511 . S
C2629 C2625 1.376 . S
C2629 C2628 1.392 . S
C2629 H2641 0.929 . S
C2630 C2626 1.531 . S
C2630 H2642 0.960 . S
C2630 H2643 0.962 . S
C2630 H2644 0.960 . S
C2631 C2628 1.511 . S
C2631 H2645 0.961 . S
C2631 H2646 0.961 . S
C2631 H2647 0.961 . S
C2632 C2633 1.370 . S
C2632 C2634 1.363 . S
C2632 H2648 0.931 . S
C2633 C2632 1.370 . S
C2633 C2637 1.408 . S
C2634 C2632 1.363 . S
C2634 C2635 1.370 . S
C2634 C2638 1.524 . S
C2635 C2627 1.503 . S
C2635 C2634 1.370 . S
C2635 C2636 1.403 . S
C2636 C2635 1.403 . S
C2636 C2637 1.404 . S
C2636 C2639 1.539 . S
C2637 C2633 1.408 . S
C2637 C2636 1.404 . S
C2637 H2649 0.930 . S
C2638 C2634 1.524 . S
C2638 H2650 0.956 . S
C2638 H2651 0.961 . S
C2638 H2652 0.961 . S
C2639 C2636 1.539 . S
C2639 H2653 0.958 . S
C2639 H2654 0.961 . S
C2639 H2655 0.960 . S
H2640 C2624 0.931 . S
H2641 C2629 0.929 . S
H2642 C2630 0.960 . S
H2643 C2630 0.962 . S
H2644 C2630 0.960 . S
H2645 C2631 0.961 . S
H2646 C2631 0.961 . S
H2647 C2631 0.961 . S
H2648 C2632 0.931 . S
H2649 C2637 0.930 . S
H2650 C2638 0.956 . S
H2651 C2638 0.961 . S
H2652 C2638 0.961 . S
H2653 C2639 0.958 . S
H2654 C2639 0.961 . S
H2655 C2639 0.960 . S
C2656 C2657 1.391 . S
C2656 C2658 1.394 . S
C2656 H2672 0.931 . S
C2657 C2656 1.391 . S
C2657 C2661 1.376 . S
C2658 C2656 1.394 . S
C2658 C2659 1.369 . S
C2658 C2662 1.531 . S
C2659 C2658 1.369 . S
C2659 C2660 1.410 . S
C2659 C2667 1.503 . S
C2660 C2659 1.410 . S
C2660 C2661 1.392 . S
C2660 C2663 1.511 . S
C2661 C2657 1.376 . S
C2661 C2660 1.392 . S
C2661 H2673 0.929 . S
C2662 C2658 1.531 . S
C2662 H2674 0.960 . S
C2662 H2675 0.962 . S
C2662 H2676 0.960 . S
C2663 C2660 1.511 . S
C2663 H2677 0.961 . S
C2663 H2678 0.961 . S
C2663 H2679 0.961 . S
C2664 C2665 1.370 . S
C2664 C2666 1.363 . S
C2664 H2680 0.931 . S
C2665 C2664 1.370 . S
C2665 C2669 1.408 . S
C2666 C2664 1.363 . S
C2666 C2667 1.370 . S
C2666 C2670 1.524 . S
C2667 C2659 1.503 . S
C2667 C2666 1.370 . S
C2667 C2668 1.403 . S
C2668 C2667 1.403 . S
C2668 C2669 1.404 . S
C2668 C2671 1.539 . S
C2669 C2665 1.408 . S
C2669 C2668 1.404 . S
C2669 H2681 0.930 . S
C2670 C2666 1.524 . S
C2670 H2682 0.956 . S
C2670 H2683 0.961 . S
C2670 H2684 0.961 . S
C2671 C2668 1.539 . S
C2671 H2685 0.958 . S
C2671 H2686 0.961 . S
C2671 H2687 0.960 . S
H2672 C2656 0.931 . S
H2673 C2661 0.929 . S
H2674 C2662 0.960 . S
H2675 C2662 0.962 . S
H2676 C2662 0.960 . S
H2677 C2663 0.961 . S
H2678 C2663 0.961 . S
H2679 C2663 0.961 . S
H2680 C2664 0.931 . S
H2681 C2669 0.930 . S
H2682 C2670 0.956 . S
H2683 C2670 0.961 . S
H2684 C2670 0.961 . S
H2685 C2671 0.958 . S
H2686 C2671 0.961 . S
H2687 C2671 0.960 . S
C2688 C2689 1.391 . S
C2688 C2690 1.394 . S
C2688 H2704 0.931 . S
C2689 C2688 1.391 . S
C2689 C2693 1.376 . S
C2690 C2688 1.394 . S
C2690 C2691 1.369 . S
C2690 C2694 1.531 . S
C2691 C2690 1.369 . S
C2691 C2692 1.410 . S
C2691 C2699 1.503 . S
C2692 C2691 1.410 . S
C2692 C2693 1.392 . S
C2692 C2695 1.511 . S
C2693 C2689 1.376 . S
C2693 C2692 1.392 . S
C2693 H2705 0.929 . S
C2694 C2690 1.531 . S
C2694 H2706 0.960 . S
C2694 H2707 0.962 . S
C2694 H2708 0.960 . S
C2695 C2692 1.511 . S
C2695 H2709 0.961 . S
C2695 H2710 0.961 . S
C2695 H2711 0.961 . S
C2696 C2697 1.370 . S
C2696 C2698 1.363 . S
C2696 H2712 0.931 . S
C2697 C2696 1.370 . S
C2697 C2701 1.408 . S
C2698 C2696 1.363 . S
C2698 C2699 1.370 . S
C2698 C2702 1.524 . S
C2699 C2691 1.503 . S
C2699 C2698 1.370 . S
C2699 C2700 1.403 . S
C2700 C2699 1.403 . S
C2700 C2701 1.404 . S
C2700 C2703 1.539 . S
C2701 C2697 1.408 . S
C2701 C2700 1.404 . S
C2701 H2713 0.930 . S
C2702 C2698 1.524 . S
C2702 H2714 0.956 . S
C2702 H2715 0.961 . S
C2702 H2716 0.961 . S
C2703 C2700 1.539 . S
C2703 H2717 0.958 . S
C2703 H2718 0.961 . S
C2703 H2719 0.960 . S
H2704 C2688 0.931 . S
H2705 C2693 0.929 . S
H2706 C2694 0.960 . S
H2707 C2694 0.962 . S
H2708 C2694 0.960 . S
H2709 C2695 0.961 . S
H2710 C2695 0.961 . S
H2711 C2695 0.961 . S
H2712 C2696 0.931 . S
H2713 C2701 0.930 . S
H2714 C2702 0.956 . S
H2715 C2702 0.961 . S
H2716 C2702 0.961 . S
H2717 C2703 0.958 . S
H2718 C2703 0.961 . S
H2719 C2703 0.960 . S
C2720 C2721 1.391 . S
C2720 C2722 1.394 . S
C2720 H2736 0.931 . S
C2721 C2720 1.391 . S
C2721 C2725 1.376 . S
C2722 C2720 1.394 . S
C2722 C2723 1.369 . S
C2722 C2726 1.531 1_554 S
C2723 C2722 1.369 . S
C2723 C2724 1.410 . S
C2723 C2731 1.503 1_454 S
C2724 C2723 1.410 . S
C2724 C2725 1.392 . S
C2724 C2727 1.511 . S
C2725 C2721 1.376 . S
C2725 C2724 1.392 . S
C2725 H2737 0.929 . S
C2726 C2722 1.531 1_556 S
C2726 H2738 0.960 . S
C2726 H2739 0.946 1_456 S
C2726 H2740 0.960 . S
C2727 C2724 1.511 . S
C2727 H2741 0.961 . S
C2727 H2742 0.943 1_455 S
C2727 H2743 0.961 . S
C2728 C2729 1.370 . S
C2728 C2730 1.363 . S
C2728 H2744 0.931 . S
C2729 C2728 1.370 . S
C2729 C2733 1.408 . S
C2730 C2728 1.363 . S
C2730 C2731 1.370 . S
C2730 C2734 1.524 1_556 S
C2731 C2723 1.503 1_656 S
C2731 C2730 1.370 . S
C2731 C2732 1.403 . S
C2732 C2731 1.403 . S
C2732 C2733 1.404 . S
C2732 C2735 1.539 1_655 S
C2733 C2729 1.408 . S
C2733 C2732 1.404 . S
C2733 H2745 0.930 . S
C2734 C2730 1.524 1_554 S
C2734 H2746 0.956 . S
C2734 H2747 0.961 . S
C2734 H2748 0.961 . S
C2735 C2732 1.539 1_455 S
C2735 H2749 0.958 . S
C2735 H2750 0.961 . S
C2735 H2751 0.960 . S
H2736 C2720 0.931 . S
H2737 C2725 0.929 . S
H2738 C2726 0.960 . S
H2739 C2726 0.946 1_654 S
H2740 C2726 0.960 . S
H2741 C2727 0.961 . S
H2742 C2727 0.943 1_655 S
H2743 C2727 0.961 . S
H2744 C2728 0.931 . S
H2745 C2733 0.930 . S
H2746 C2734 0.956 . S
H2747 C2734 0.961 . S
H2748 C2734 0.961 . S
H2749 C2735 0.958 . S
H2750 C2735 0.961 . S
H2751 C2735 0.960 . S
C2752 C2753 1.391 . S
C2752 C2754 1.394 . S
C2752 H2768 0.931 . S
C2753 C2752 1.391 . S
C2753 C2757 1.376 . S
C2754 C2752 1.394 . S
C2754 C2755 1.369 . S
C2754 C2758 1.531 . S
C2755 C2754 1.369 . S
C2755 C2756 1.410 . S
C2755 C2763 1.503 . S
C2756 C2755 1.410 . S
C2756 C2757 1.392 . S
C2756 C2759 1.511 . S
C2757 C2753 1.376 . S
C2757 C2756 1.392 . S
C2757 H2769 0.929 . S
C2758 C2754 1.531 . S
C2758 H2770 0.960 . S
C2758 H2771 0.962 . S
C2758 H2772 0.960 . S
C2759 C2756 1.511 . S
C2759 H2773 0.961 . S
C2759 H2774 0.961 . S
C2759 H2775 0.961 . S
C2760 C2761 1.370 . S
C2760 C2762 1.363 . S
C2760 H2776 0.931 . S
C2761 C2760 1.370 . S
C2761 C2765 1.408 . S
C2762 C2760 1.363 . S
C2762 C2763 1.370 . S
C2762 C2766 1.524 . S
C2763 C2755 1.503 . S
C2763 C2762 1.370 . S
C2763 C2764 1.403 . S
C2764 C2763 1.403 . S
C2764 C2765 1.404 . S
C2764 C2767 1.539 . S
C2765 C2761 1.408 . S
C2765 C2764 1.404 . S
C2765 H2777 0.930 . S
C2766 C2762 1.524 . S
C2766 H2778 0.956 . S
C2766 H2779 0.961 . S
C2766 H2780 0.961 . S
C2767 C2764 1.539 . S
C2767 H2781 0.958 . S
C2767 H2782 0.961 . S
C2767 H2783 0.960 . S
H2768 C2752 0.931 . S
H2769 C2757 0.929 . S
H2770 C2758 0.960 . S
H2771 C2758 0.962 . S
H2772 C2758 0.960 . S
H2773 C2759 0.961 . S
H2774 C2759 0.961 . S
H2775 C2759 0.961 . S
H2776 C2760 0.931 . S
H2777 C2765 0.930 . S
H2778 C2766 0.956 . S
H2779 C2766 0.961 . S
H2780 C2766 0.961 . S
H2781 C2767 0.958 . S
H2782 C2767 0.961 . S
H2783 C2767 0.960 . S
C2784 C2785 1.391 . S
C2784 C2786 1.394 . S
C2784 H2800 0.931 . S
C2785 C2784 1.391 . S
C2785 C2789 1.376 . S
C2786 C2784 1.394 . S
C2786 C2787 1.369 . S
C2786 C2790 1.531 . S
C2787 C2786 1.369 . S
C2787 C2788 1.410 . S
C2787 C2795 1.503 . S
C2788 C2787 1.410 . S
C2788 C2789 1.392 . S
C2788 C2791 1.511 . S
C2789 C2785 1.376 . S
C2789 C2788 1.392 . S
C2789 H2801 0.929 . S
C2790 C2786 1.531 . S
C2790 H2802 0.960 . S
C2790 H2803 0.962 . S
C2790 H2804 0.960 . S
C2791 C2788 1.511 . S
C2791 H2805 0.961 . S
C2791 H2806 0.961 . S
C2791 H2807 0.961 . S
C2792 C2793 1.370 . S
C2792 C2794 1.363 . S
C2792 H2808 0.931 . S
C2793 C2792 1.370 . S
C2793 C2797 1.408 . S
C2794 C2792 1.363 . S
C2794 C2795 1.370 . S
C2794 C2798 1.524 . S
C2795 C2787 1.503 . S
C2795 C2794 1.370 . S
C2795 C2796 1.403 . S
C2796 C2795 1.403 . S
C2796 C2797 1.404 . S
C2796 C2799 1.539 . S
C2797 C2793 1.408 . S
C2797 C2796 1.404 . S
C2797 H2809 0.930 . S
C2798 C2794 1.524 . S
C2798 H2810 0.956 . S
C2798 H2811 0.961 . S
C2798 H2812 0.961 . S
C2799 C2796 1.539 . S
C2799 H2813 0.958 . S
C2799 H2814 0.961 . S
C2799 H2815 0.960 . S
H2800 C2784 0.931 . S
H2801 C2789 0.929 . S
H2802 C2790 0.960 . S
H2803 C2790 0.962 . S
H2804 C2790 0.960 . S
H2805 C2791 0.961 . S
H2806 C2791 0.961 . S
H2807 C2791 0.961 . S
H2808 C2792 0.931 . S
H2809 C2797 0.930 . S
H2810 C2798 0.956 . S
H2811 C2798 0.961 . S
H2812 C2798 0.961 . S
H2813 C2799 0.958 . S
H2814 C2799 0.961 . S
H2815 C2799 0.960 . S
C2816 C2817 1.391 . S
C2816 C2818 1.394 . S
C2816 H2832 0.931 . S
C2817 C2816 1.391 . S
C2817 C2821 1.376 . S
C2818 C2816 1.394 . S
C2818 C2819 1.369 . S
C2818 C2822 1.531 1_556 S
C2819 C2818 1.369 . S
C2819 C2820 1.410 . S
C2819 C2827 1.503 1_456 S
C2820 C2819 1.410 . S
C2820 C2821 1.392 . S
C2820 C2823 1.510 1_455 S
C2821 C2817 1.376 . S
C2821 C2820 1.392 . S
C2821 H2833 0.929 . S
C2822 C2818 1.531 1_554 S
C2822 H2834 0.960 . S
C2822 H2835 0.962 . S
C2822 H2836 0.960 . S
C2823 C2820 1.510 1_655 S
C2823 H2837 0.962 1_545 S
C2823 H2838 0.963 1_545 S
C2823 H2839 0.958 . S
C2824 C2825 1.370 . S
C2824 C2826 1.363 . S
C2824 H2840 0.931 . S
C2825 C2824 1.370 . S
C2825 C2829 1.408 1_565 S
C2826 C2824 1.363 . S
C2826 C2827 1.370 1_565 S
C2826 C2830 1.524 1_655 S
C2827 C2819 1.503 1_654 S
C2827 C2826 1.370 1_545 S
C2827 C2828 1.403 . S
C2828 C2827 1.403 . S
C2828 C2829 1.404 . S
C2828 C2831 1.539 . S
C2829 C2825 1.408 1_545 S
C2829 C2828 1.404 . S
C2829 H2841 0.930 . S
C2830 C2826 1.524 1_455 S
C2830 H2842 0.956 . S
C2830 H2843 0.961 1_554 S
C2830 H2844 0.956 1_455 S
C2831 C2828 1.539 . S
C2831 H2845 0.958 . S
C2831 H2846 0.961 . S
C2831 H2847 0.960 1_554 S
H2832 C2816 0.931 . S
H2833 C2821 0.929 . S
H2834 C2822 0.960 . S
H2835 C2822 0.962 . S
H2836 C2822 0.960 . S
H2837 C2823 0.962 1_565 S
H2838 C2823 0.963 1_565 S
H2839 C2823 0.958 . S
H2840 C2824 0.931 . S
H2841 C2829 0.930 . S
H2842 C2830 0.956 . S
H2843 C2830 0.961 1_556 S
H2844 C2830 0.956 1_655 S
H2845 C2831 0.958 . S
H2846 C2831 0.961 . S
H2847 C2831 0.960 1_556 S
C2848 C2849 1.391 . S
C2848 C2850 1.394 . S
C2848 H2864 0.931 . S
C2849 C2848 1.391 . S
C2849 C2853 1.376 1_545 S
C2850 C2848 1.394 . S
C2850 C2851 1.373 . S
C2850 C2854 1.531 . S
C2851 C2850 1.373 . S
C2851 C2852 1.406 1_545 S
C2851 C2859 1.502 1_545 S
C2852 C2851 1.406 1_565 S
C2852 C2853 1.392 . S
C2852 C2855 1.511 . S
C2853 C2849 1.376 1_565 S
C2853 C2852 1.392 . S
C2853 H2865 0.929 . S
C2854 C2850 1.531 . S
C2854 H2866 0.960 . S
C2854 H2867 0.962 . S
C2854 H2868 0.960 . S
C2855 C2852 1.511 . S
C2855 H2869 0.961 . S
C2855 H2870 0.961 . S
C2855 H2871 0.961 . S
C2856 C2857 1.368 1_545 S
C2856 C2858 1.364 . S
C2856 H2872 0.932 . S
C2857 C2856 1.368 1_565 S
C2857 C2861 1.408 . S
C2858 C2856 1.364 . S
C2858 C2859 1.370 1_545 S
C2858 C2862 1.524 . S
C2859 C2851 1.502 1_565 S
C2859 C2858 1.370 1_565 S
C2859 C2860 1.403 . S
C2860 C2859 1.403 . S
C2860 C2861 1.404 . S
C2860 C2863 1.539 . S
C2861 C2857 1.408 . S
C2861 C2860 1.404 . S
C2861 H2873 0.930 . S
C2862 C2858 1.524 . S
C2862 H2874 0.956 . S
C2862 H2875 0.961 . S
C2862 H2876 0.961 . S
C2863 C2860 1.539 . S
C2863 H2877 0.958 . S
C2863 H2878 0.961 . S
C2863 H2879 0.960 . S
H2864 C2848 0.931 . S
H2865 C2853 0.929 . S
H2866 C2854 0.960 . S
H2867 C2854 0.962 . S
H2868 C2854 0.960 . S
H2869 C2855 0.961 . S
H2870 C2855 0.961 . S
H2871 C2855 0.961 . S
H2872 C2856 0.932 . S
H2873 C2861 0.930 . S
H2874 C2862 0.956 . S
H2875 C2862 0.961 . S
H2876 C2862 0.961 . S
H2877 C2863 0.958 . S
H2878 C2863 0.961 . S
H2879 C2863 0.960 . S
C1345 C56 2.069 . S
C1353 C903 2.137 . S
C1377 C140 2.010 . S
C1385 C980 2.047 . S
C1409 C231 2.108 . S
C1417 C728 2.088 . S
C1441 C308 2.059 . S
C1449 C812 2.044 . S
C1473 C403 2.068 . S
C1481 C1250 2.131 . S
C1505 C487 2.024 . S
C1513 C1327 2.034 . S
C1537 C578 2.149 . S
C1545 C1075 2.066 . S
C1569 C655 2.050 . S
C1577 C1159 2.051 . S
C1601 C819 3.505 . S
C1609 C67 3.558 1_556 S
C1633 C896 3.585 . S
C1641 C151 3.585 . S
C1665 C987 3.474 . S
C1673 C242 3.406 . S
C1697 C735 3.499 . S
C1705 C319 3.556 . S
C1729 C392 3.548 1_554 S
C1737 C1166 3.513 . S
C1761 C1243 3.585 . S
C1769 C476 3.583 . S
C1793 C1334 3.491 . S
C1801 C567 3.409 . S
C1825 C1082 3.499 . S
C1833 C644 3.552 . S
C1857 C147 3.517 . S
C1865 C739 3.560 . S
C1889 C823 3.573 . S
C1897 C224 3.586 . S
C1921 C914 3.387 1_556 S
C1929 C315 3.485 . S
C1953 C991 3.543 . S
C1961 C63 3.511 . S
C1985 C1064 3.554 . S
C1993 C494 3.513 . S
C2017 C571 3.587 . S
C2025 C1148 3.585 . S
C2049 C662 3.472 . S
C2057 C1239 3.402 1_554 S
C2081 C1316 3.556 . S
C2089 C410 3.516 . S
C2113 C69 0.521 . S
C2121 C1323 0.547 . S
C2145 C153 0.678 . S
C2153 C399 0.582 . S
C2177 C1155 0.497 . S
C2185 C226 0.699 . S
C2209 C560 0.581 . S
C2217 C321 0.569 . S
C2241 C394 0.695 . S
C2249 C998 0.573 . S
C2273 C478 0.551 . S
C2281 C74 0.558 . S
C2305 C830 0.515 . S
C2313 C573 0.634 . S
C2337 C235 0.484 . S
C2345 C646 0.624 . S
C2369 C741 0.687 . S
C2377 C651 0.559 . S
C2401 C825 0.711 . S
C2409 C1071 0.580 . S
C2433 C483 0.497 . S
C2441 C898 0.699 . S
C2465 C1232 0.581 . S
C2473 C993 0.556 . S
C2497 C1066 0.521 . S
C2505 C326 0.538 . S
C2529 C1150 0.686 . S
C2537 C746 0.574 . S
C2561 C1245 0.693 . S
C2569 C158 0.551 . S
C2593 C907 0.561 . S
C2601 C1318 0.612 . S
C2625 C58 1.326 . S
C2633 C1077 1.280 . S
C2657 C142 1.192 . S
C2665 C489 1.287 . S
C2689 C237 1.207 . S
C2697 C1234 1.205 . S
C2721 C657 1.343 . S
C2729 C310 1.249 . S
C2753 C405 1.262 . S
C2761 C730 1.298 . S
C2785 C909 1.229 . S
C2793 C562 1.185 . S
C2817 C814 1.227 . S
C2825 C1161 1.279 . S
C2849 C1329 1.342 . S
C2857 C982 1.252 . S
