# Generated by pormake.
# Topology snk, (6)-cn, num edge types: 1
# Building blocks:
#     Node 0, Type 0, BuildingBlock: BETDEL_clean_sbu_0, # of connection points: 6
#     Node 1, Type 0, BuildingBlock: BETDEL_clean_sbu_0, # of connection points: 6
#     Node 2, Type 0, BuildingBlock: BETDEL_clean_sbu_0, # of connection points: 6
#     Node 3, Type 0, BuildingBlock: BETDEL_clean_sbu_0, # of connection points: 6
#     Node 4, Type 0, BuildingBlock: BETDEL_clean_sbu_0, # of connection points: 6
#     Node 5, Type 0, BuildingBlock: BETDEL_clean_sbu_0, # of connection points: 6
#     Node 6, Type 0, BuildingBlock: BETDEL_clean_sbu_0, # of connection points: 6
#     Node 7, Type 0, BuildingBlock: BETDEL_clean_sbu_0, # of connection points: 6
#     Edge 8, Type (0, 0), BuildingBlock: TEMPAE_clean_linker_10, # of connection points: 2
#     Edge 9, Type (0, 0), BuildingBlock: TEMPAE_clean_linker_10, # of connection points: 2
#     Edge 10, Type (0, 0), BuildingBlock: TEMPAE_clean_linker_10, # of connection points: 2
#     Edge 11, Type (0, 0), BuildingBlock: TEMPAE_clean_linker_10, # of connection points: 2
#     Edge 12, Type (0, 0), BuildingBlock: TEMPAE_clean_linker_10, # of connection points: 2
#     Edge 13, Type (0, 0), BuildingBlock: TEMPAE_clean_linker_10, # of connection points: 2
#     Edge 14, Type (0, 0), BuildingBlock: TEMPAE_clean_linker_10, # of connection points: 2
#     Edge 15, Type (0, 0), BuildingBlock: TEMPAE_clean_linker_10, # of connection points: 2
#     Edge 16, Type (0, 0), BuildingBlock: TEMPAE_clean_linker_10, # of connection points: 2
#     Edge 17, Type (0, 0), BuildingBlock: TEMPAE_clean_linker_10, # of connection points: 2
#     Edge 18, Type (0, 0), BuildingBlock: TEMPAE_clean_linker_10, # of connection points: 2
#     Edge 19, Type (0, 0), BuildingBlock: TEMPAE_clean_linker_10, # of connection points: 2
#     Edge 20, Type (0, 0), BuildingBlock: TEMPAE_clean_linker_10, # of connection points: 2
#     Edge 21, Type (0, 0), BuildingBlock: TEMPAE_clean_linker_10, # of connection points: 2
#     Edge 22, Type (0, 0), BuildingBlock: TEMPAE_clean_linker_10, # of connection points: 2
#     Edge 23, Type (0, 0), BuildingBlock: TEMPAE_clean_linker_10, # of connection points: 2
#     Edge 24, Type (0, 0), BuildingBlock: TEMPAE_clean_linker_10, # of connection points: 2
#     Edge 25, Type (0, 0), BuildingBlock: TEMPAE_clean_linker_10, # of connection points: 2
#     Edge 26, Type (0, 0), BuildingBlock: TEMPAE_clean_linker_10, # of connection points: 2
#     Edge 27, Type (0, 0), BuildingBlock: TEMPAE_clean_linker_10, # of connection points: 2
#     Edge 28, Type (0, 0), BuildingBlock: TEMPAE_clean_linker_10, # of connection points: 2
#     Edge 29, Type (0, 0), BuildingBlock: TEMPAE_clean_linker_10, # of connection points: 2
#     Edge 30, Type (0, 0), BuildingBlock: TEMPAE_clean_linker_10, # of connection points: 2
#     Edge 31, Type (0, 0), BuildingBlock: TEMPAE_clean_linker_10, # of connection points: 2
# Relax obj value: 0.058
# Max RMSD: 0.101
# Mean RMSD: 0.095
data_MOF--net-snk--node1-BETDEL_clean_sbu_0--edge1-TEMPAE_clean_linker_10
_symmetry_space_group_name_H-M    P1
_symmetry_Int_Tables_number       1
_symmetry_cell_setting            triclinic
loop_
_symmetry_equiv_pos_as_xyz
'x, y, z'
_cell_length_a     40.515184
_cell_length_b     40.491047
_cell_length_c     18.292267
_cell_angle_alpha  85.177441
_cell_angle_beta   95.003426
_cell_angle_gamma 90.324474
loop_
_atom_site_label
_atom_site_type_symbol
_atom_site_fract_x
_atom_site_fract_y
_atom_site_fract_z
_atom_type_partial_charge
Dy0 Dy 1.00016 0.99491 0.42859 0.0
C1 C 0.01912 0.00658 0.73534 0.0
C2 C 0.99946 0.99332 0.2801 0.0
Dy3 Dy 0.0105 0.0112 0.58565 0.0
O4 O 0.02375 0.98386 0.32772 0.0
O5 O 0.97478 0.00348 0.31347 0.0
O6 O 0.01604 0.94288 0.4651 0.0
O7 O 0.03853 0.98252 0.51793 0.0
C8 C 0.0371 0.95148 0.51757 0.0
C9 C 0.97256 0.05535 0.50124 0.0
O10 O 0.05613 0.03463 0.54474 0.0
O11 O 0.03319 0.03952 0.42418 0.0
O12 O 0.01571 0.03409 0.69365 0.0
O13 O 0.01873 0.98162 0.69521 0.0
O14 O 0.9917 0.06259 0.55821 0.0
O15 O 0.97207 0.02442 0.49647 0.0
O16 O 0.95596 0.9674 0.46471 0.0
O17 O 0.96965 0.97317 0.58901 0.0
C18 C 0.05624 0.0473 0.47568 0.0
C19 C 0.95103 0.96045 0.53492 0.0
Dy20 Dy 0.24144 0.74369 0.85046 0.0
C21 C 0.25054 0.76547 0.53814 0.0
C22 C 0.23671 0.73343 0.99824 0.0
Dy23 Dy 0.25272 0.75226 0.68684 0.0
O24 O 0.21546 0.74938 0.95146 0.0
O25 O 0.26017 0.72154 0.96389 0.0
O26 O 0.21831 0.79388 0.84175 0.0
O27 O 0.21291 0.76536 0.75094 0.0
C28 C 0.20746 0.79326 0.77324 0.0
C29 C 0.28854 0.70369 0.76337 0.0
O30 O 0.27885 0.79734 0.72718 0.0
O31 O 0.28414 0.77849 0.85131 0.0
O32 O 0.27765 0.76308 0.58185 0.0
O33 O 0.22503 0.76214 0.57614 0.0
O34 O 0.27864 0.70352 0.6941 0.0
O35 O 0.28171 0.73117 0.78609 0.0
O36 O 0.21305 0.69963 0.81222 0.0
O37 O 0.21307 0.71406 0.68646 0.0
C38 C 0.29126 0.79989 0.7961 0.0
C39 C 0.20351 0.69481 0.74275 0.0
Dy40 Dy 0.50534 0.98528 0.08902 0.0
C41 C 0.48275 0.00905 0.77568 0.0
C42 C 0.50714 0.98097 0.2394 0.0
Dy43 Dy 0.4925 0.01099 0.92521 0.0
O44 O 0.4821 0.97366 0.19471 0.0
O45 O 0.53225 0.98957 0.20201 0.0
O46 O 0.48338 0.93655 0.06088 0.0
O47 O 0.46528 0.98075 1.00255 0.0
C48 C 0.4636 0.94959 1.00646 0.0
C49 C 0.53575 0.04645 1.00485 0.0
O50 O 0.4499 0.03494 0.97021 0.0
O51 O 0.47749 0.03325 0.08692 0.0
O52 O 0.49096 0.03542 0.80906 0.0
O53 O 0.47839 0.98449 0.8241 0.0
O54 O 0.51729 0.05927 0.94792 0.0
O55 O 0.5327 0.01542 0.01095 0.0
O56 O 0.54667 0.95725 0.04898 0.0
O57 O 0.52809 0.9686 0.92513 0.0
C58 C 0.45348 0.04483 0.03779 0.0
C59 C 0.54755 0.9524 0.97824 0.0
Dy60 Dy 0.23972 0.26089 0.17234 0.0
C61 C 0.27206 0.24541 0.48695 0.0
C62 C 0.24199 0.26973 0.02276 0.0
Dy63 Dy 0.26723 0.24878 0.33624 0.0
O64 O 0.21557 0.26152 0.05575 0.0
O65 O 0.26637 0.2745 0.0715 0.0
O66 O 0.19117 0.23776 0.1978 0.0
O67 O 0.23509 0.22189 0.26041 0.0
C68 C 0.20396 0.21982 0.25558 0.0
C69 C 0.303 0.28855 0.25022 0.0
O70 O 0.29364 0.20641 0.29584 0.0
O71 O 0.28034 0.22337 0.17171 0.0
O72 O 0.28294 0.26934 0.44388 0.0
O73 O 0.25968 0.22218 0.4477 0.0
O74 O 0.31612 0.2692 0.30542 0.0
O75 O 0.27182 0.28761 0.24786 0.0
O76 O 0.21608 0.30424 0.21499 0.0
O77 O 0.22278 0.28169 0.33677 0.0
C78 C 0.29704 0.20431 0.22477 0.0
C79 C 0.20971 0.30384 0.285 0.0
Dy80 Dy 0.74147 0.24231 0.3366 0.0
C81 C 0.75588 0.25409 0.03026 0.0
C82 C 0.74618 0.23386 0.48622 0.0
Dy83 Dy 0.75569 0.25333 0.17887 0.0
O84 O 0.71868 0.23512 0.44421 0.0
O85 O 0.77121 0.23629 0.44647 0.0
O86 O 0.68954 0.26049 0.31165 0.0
O87 O 0.72675 0.28067 0.24855 0.0
C88 C 0.69602 0.27984 0.25464 0.0
C89 C 0.80167 0.21793 0.26412 0.0
O90 O 0.78264 0.29806 0.21483 0.0
O91 O 0.77883 0.28361 0.33947 0.0
O92 O 0.76598 0.2299 0.07741 0.0
O93 O 0.74572 0.27865 0.06412 0.0
O94 O 0.80826 0.23912 0.21022 0.0
O95 O 0.77079 0.21524 0.26761 0.0
O96 O 0.71937 0.19589 0.29644 0.0
O97 O 0.71204 0.21914 0.17654 0.0
C98 C 0.79042 0.30277 0.28502 0.0
C99 C 0.70582 0.19559 0.22807 0.0
Dy100 Dy 0.74238 0.75896 0.67282 0.0
C101 C 0.77434 0.75024 0.99287 0.0
C102 C 0.7481 0.77456 0.52728 0.0
Dy103 Dy 0.76917 0.7482 0.84423 0.0
O104 O 0.71995 0.77142 0.55684 0.0
O105 O 0.7727 0.77047 0.57775 0.0
O106 O 0.70314 0.7185 0.67495 0.0
O107 O 0.73311 0.72791 0.76831 0.0
C108 C 0.71004 0.70987 0.74487 0.0
C109 C 0.80482 0.78683 0.75486 0.0
O110 O 0.79242 0.70388 0.80498 0.0
O111 O 0.78212 0.72011 0.67863 0.0
O112 O 0.77906 0.77505 0.94532 0.0
O113 O 0.76771 0.72346 0.9593 0.0
O114 O 0.81789 0.76895 0.81237 0.0
O115 O 0.7737 0.78511 0.75172 0.0
O116 O 0.714 0.79862 0.71862 0.0
O117 O 0.72101 0.77557 0.84059 0.0
C118 C 0.79601 0.70037 0.73447 0.0
C119 C 0.70649 0.79666 0.78822 0.0
Dy120 Dy 0.49944 0.49588 0.92176 0.0
C121 C 0.51923 0.50594 0.22897 0.0
C122 C 0.49937 0.49651 0.77309 0.0
Dy123 Dy 0.5106 0.50984 0.07938 0.0
O124 O 0.52431 0.4888 0.82039 0.0
O125 O 0.47372 0.50387 0.80684 0.0
O126 O 0.51484 0.44349 0.95099 0.0
O127 O 0.53797 0.48107 0.00998 0.0
C128 C 0.53572 0.4502 1.00546 0.0
C129 C 0.4712 0.5539 0.99709 0.0
O130 O 0.55691 0.53128 0.03822 0.0
O131 O 0.53063 0.54204 0.92206 0.0
O132 O 0.51707 0.53328 0.18653 0.0
O133 O 0.51761 0.48068 0.18964 0.0
O134 O 0.49147 0.56169 0.05169 0.0
O135 O 0.47121 0.52311 0.99289 0.0
O136 O 0.45535 0.46778 0.95776 0.0
O137 O 0.47046 0.47122 0.08239 0.0
C138 C 0.55522 0.54732 0.97214 0.0
C139 C 0.45119 0.45953 0.02801 0.0
Dy140 Dy 0.00407 0.48316 0.5943 0.0
C141 C 0.98494 0.5096 0.2813 0.0
C142 C 0.00664 0.47835 0.74486 0.0
Dy143 Dy 0.99356 0.51231 0.43074 0.0
O144 O 0.98224 0.46878 0.70094 0.0
O145 O 0.03069 0.48927 0.70657 0.0
O146 O 0.98412 0.43447 0.56067 0.0
O147 O 0.96648 0.47902 0.503 0.0
C148 C 0.96563 0.44786 0.50427 0.0
C149 C 0.03221 0.54816 0.51911 0.0
O150 O 0.94955 0.53524 0.47234 0.0
O151 O 0.97071 0.52719 0.59503 0.0
O152 O 0.99243 0.53634 0.31416 0.0
O153 O 0.98089 0.4851 0.33013 0.0
O154 O 0.01519 0.56113 0.45996 0.0
O155 O 0.03073 0.51699 0.52207 0.0
O156 O 0.04677 0.45698 0.55508 0.0
O157 O 0.035 0.47552 0.43103 0.0
C158 C 0.94898 0.54067 0.54279 0.0
C159 C 0.05235 0.45722 0.48452 0.0
C160 C 0.09635 0.09292 0.50279 0.0
C161 C 0.08224 0.07085 0.45395 0.0
C162 C 0.11845 0.11767 0.47898 0.0
C163 C 0.12703 0.11972 0.40525 0.0
C164 C 0.11407 0.09632 0.35706 0.0
C165 C 0.09156 0.07245 0.38177 0.0
C166 C 0.13135 0.14251 0.53151 0.0
C167 C 0.12313 0.09714 0.27853 0.0
C168 C 0.15077 0.19982 0.30097 0.0
C169 C 0.18506 0.19603 0.30084 0.0
C170 C 0.13185 0.17609 0.33893 0.0
C171 C 0.14758 0.14752 0.37607 0.0
C172 C 0.18245 0.1442 0.37833 0.0
C173 C 0.20087 0.16877 0.34125 0.0
C174 C 0.09483 0.18093 0.3366 0.0
C175 C 0.20006 0.11388 0.41625 0.0
H176 H 0.08901 0.09178 0.55854 0.0
H177 H 0.08096 0.05512 0.34416 0.0
H178 H 0.15869 0.14461 0.53233 0.0
H179 H 0.12085 0.16732 0.51251 0.0
H180 H 0.12471 0.13582 0.58853 0.0
H181 H 0.11322 0.07544 0.25035 0.0
H182 H 0.11313 0.12003 0.24692 0.0
H183 H 0.15046 0.09765 0.27713 0.0
H184 H 0.13864 0.22117 0.27047 0.0
H185 H 0.22747 0.1659 0.34122 0.0
H186 H 0.08644 0.17683 0.3928 0.0
H187 H 0.08202 0.16249 0.30259 0.0
H188 H 0.08702 0.20613 0.31293 0.0
H189 H 0.19233 0.10863 0.47274 0.0
H190 H 0.22744 0.11665 0.41957 0.0
H191 H 0.19317 0.09204 0.38543 0.0
C192 C 0.09201 0.94075 0.58646 0.0
C193 C 0.0614 0.92874 0.5586 0.0
C194 C 0.11639 0.919 0.62115 0.0
C195 C 0.10943 0.88468 0.62989 0.0
C196 C 0.07813 0.87259 0.60373 0.0
C197 C 0.05457 0.89481 0.56733 0.0
C198 C 0.14976 0.93264 0.64706 0.0
C199 C 0.06957 0.83624 0.61407 0.0
C200 C 0.18024 0.82297 0.65973 0.0
C201 C 0.18303 0.81703 0.73635 0.0
C202 C 0.15664 0.84539 0.62417 0.0
C203 C 0.13493 0.86141 0.66658 0.0
C204 C 0.13757 0.85524 0.74413 0.0
C205 C 0.16201 0.83344 0.77824 0.0
C206 C 0.15508 0.85211 0.54148 0.0
C207 C 0.11429 0.87124 0.7909 0.0
H208 H 0.09727 0.96705 0.57917 0.0
H209 H 0.03072 0.8857 0.54601 0.0
H210 H 0.15484 0.92683 0.70731 0.0
H211 H 0.16956 0.9207 0.62019 0.0
H212 H 0.15134 0.95991 0.6347 0.0
H213 H 0.04361 0.83115 0.59326 0.0
H214 H 0.08643 0.82156 0.58474 0.0
H215 H 0.07311 0.82742 0.67333 0.0
H216 H 0.19689 0.81056 0.62784 0.0
H217 H 0.16413 0.82858 0.83767 0.0
H218 H 0.15829 0.879 0.52664 0.0
H219 H 0.13042 0.84503 0.51639 0.0
H220 H 0.17439 0.83828 0.51697 0.0
H221 H 0.11661 0.8986 0.78364 0.0
H222 H 0.1192 0.86314 0.85039 0.0
H223 H 0.08827 0.86505 0.77299 0.0
C224 C 0.31606 0.83834 0.88396 0.0
C225 C 0.31451 0.82684 0.81363 0.0
C226 C 0.34015 0.86121 0.90596 0.0
C227 C 0.36368 0.8725 0.85678 0.0
C228 C 0.36146 0.86204 0.78449 0.0
C229 C 0.3366 0.83944 0.76345 0.0
C230 C 0.34122 0.87219 0.98308 0.0
C231 C 0.3863 0.87335 0.73085 0.0
C232 C 0.41344 0.94643 0.91791 0.0
C233 C 0.44017 0.93059 0.9603 0.0
C234 C 0.38907 0.92797 0.88006 0.0
C235 C 0.39192 0.89301 0.88412 0.0
C236 C 0.4201 0.87722 0.92293 0.0
C237 C 0.44376 0.89622 0.96111 0.0
C238 C 0.35932 0.94569 0.83971 0.0
C239 C 0.42437 0.84006 0.92751 0.0
H240 H 0.29868 0.82897 0.92253 0.0
H241 H 0.33547 0.83046 0.7091 0.0
H242 H 0.36401 0.86247 0.01567 0.0
H243 H 0.34212 0.89963 0.98155 0.0
H244 H 0.31946 0.86333 0.01211 0.0
H245 H 0.37893 0.86616 0.67444 0.0
H246 H 0.38941 0.90064 0.72854 0.0
H247 H 0.4108 0.8621 0.7498 0.0
H248 H 0.4108 0.9731 0.91689 0.0
H249 H 0.46475 0.88404 0.993 0.0
H250 H 0.33728 0.94037 0.87075 0.0
H251 H 0.35385 0.93665 0.78437 0.0
H252 H 0.36294 0.97297 0.83338 0.0
H253 H 0.40574 0.82807 0.96203 0.0
H254 H 0.44944 0.83213 0.9519 0.0
H255 H 0.42015 0.83089 0.872 0.0
C256 C 0.3969 0.06962 0.03587 0.0
C257 C 0.4305 0.06917 0.06137 0.0
C258 C 0.37456 0.09061 0.06442 0.0
C259 C 0.3864 0.11211 0.11818 0.0
C260 C 0.42051 0.11225 0.14255 0.0
C261 C 0.44204 0.09051 0.11447 0.0
C262 C 0.33827 0.08947 0.0379 0.0
C263 C 0.43433 0.13546 0.19804 0.0
C264 C 0.33601 0.18909 0.13591 0.0
C265 C 0.32077 0.18072 0.20095 0.0
C266 C 0.35749 0.16707 0.10875 0.0
C267 C 0.36348 0.13553 0.1468 0.0
C268 C 0.34825 0.12687 0.21274 0.0
C269 C 0.3273 0.14981 0.23963 0.0
C270 C 0.37389 0.17768 0.03947 0.0
C271 C 0.35372 0.09324 0.25414 0.0
H272 H 0.38791 0.05282 0.99551 0.0
H273 H 0.46811 0.0903 0.13396 0.0
H274 H 0.32333 0.08385 0.08545 0.0
H275 H 0.33007 0.11402 0.01126 0.0
H276 H 0.33287 0.07055 0.99792 0.0
H277 H 0.46157 0.1328 0.2103 0.0
H278 H 0.42871 0.16151 0.17705 0.0
H279 H 0.4224 0.13065 0.2502 0.0
H280 H 0.33131 0.21317 0.10623 0.0
H281 H 0.31534 0.14325 0.28958 0.0
H282 H 0.36702 0.1605 0.99653 0.0
H283 H 0.40123 0.17654 0.05096 0.0
H284 H 0.36683 0.20326 0.01698 0.0
H285 H 0.34639 0.07354 0.2173 0.0
H286 H 0.33939 0.09002 0.30332 0.0
H287 H 0.3804 0.08964 0.2722 0.0
C288 C 0.91358 0.91266 0.50816 0.0
C289 C 0.92474 0.93681 0.55515 0.0
C290 C 0.89164 0.88764 0.53122 0.0
C291 C 0.88036 0.88717 0.60244 0.0
C292 C 0.89021 0.91255 0.64841 0.0
C293 C 0.91245 0.93688 0.62442 0.0
C294 C 0.8819 0.86084 0.48096 0.0
C295 C 0.87831 0.91327 0.72428 0.0
C296 C 0.80734 0.83564 0.66246 0.0
C297 C 0.8236 0.8101 0.70797 0.0
C298 C 0.82545 0.86024 0.62463 0.0
C299 C 0.86052 0.85888 0.63203 0.0
C300 C 0.87687 0.83194 0.67439 0.0
C301 C 0.85818 0.80798 0.7123 0.0
C302 C 0.80712 0.88862 0.58027 0.0
C303 C 0.9142 0.82924 0.68261 0.0
H304 H 0.92313 0.91241 0.45466 0.0
H305 H 0.9207 0.9557 0.66068 0.0
H306 H 0.89365 0.83709 0.50406 0.0
H307 H 0.8547 0.85696 0.47716 0.0
H308 H 0.8897 0.86674 0.4246 0.0
H309 H 0.88599 0.93621 0.75047 0.0
H310 H 0.8509 0.91143 0.72131 0.0
H311 H 0.8885 0.89163 0.76026 0.0
H312 H 0.78053 0.83719 0.65886 0.0
H313 H 0.87074 0.78798 0.74683 0.0
H314 H 0.81667 0.89313 0.52531 0.0
H315 H 0.81126 0.91159 0.60886 0.0
H316 H 0.78003 0.884 0.57275 0.0
H317 H 0.92417 0.83231 0.62785 0.0
H318 H 0.92286 0.80509 0.71087 0.0
H319 H 0.92475 0.84936 0.71504 0.0
C320 C 0.92537 0.06893 0.4067 0.0
C321 C 0.94737 0.07846 0.46441 0.0
C322 C 0.90068 0.09078 0.37336 0.0
C323 C 0.89794 0.12257 0.39923 0.0
C324 C 0.92011 0.1322 0.45761 0.0
C325 C 0.94476 0.11009 0.4891 0.0
C326 C 0.87771 0.08 0.31034 0.0
C327 C 0.91782 0.16586 0.48683 0.0
C328 C 0.8577 0.19286 0.27466 0.0
C329 C 0.8261 0.19379 0.29996 0.0
C330 C 0.88105 0.16923 0.30543 0.0
C331 C 0.8727 0.14642 0.36374 0.0
C332 C 0.8409 0.14743 0.39007 0.0
C333 C 0.81779 0.17108 0.35739 0.0
C334 C 0.91468 0.16874 0.27569 0.0
C335 C 0.83146 0.1238 0.45311 0.0
H336 H 0.92749 0.04445 0.38763 0.0
H337 H 0.96178 0.11749 0.53384 0.0
H338 H 0.85163 0.08107 0.32414 0.0
H339 H 0.87991 0.09722 0.2605 0.0
H340 H 0.88313 0.05444 0.29694 0.0
H341 H 0.9363 0.169 0.53429 0.0
H342 H 0.92184 0.18561 0.44269 0.0
H343 H 0.89268 0.1696 0.50443 0.0
H344 H 0.8641 0.21038 0.23001 0.0
H345 H 0.79332 0.17193 0.37694 0.0
H346 H 0.91976 0.1438 0.25832 0.0
H347 H 0.93425 0.17393 0.31949 0.0
H348 H 0.91667 0.1873 0.22798 0.0
H349 H 0.83421 0.09783 0.43948 0.0
H350 H 0.80559 0.1276 0.46637 0.0
H351 H 0.8484 0.12709 0.503 0.0
C352 C 0.66094 0.15482 0.25558 0.0
C353 C 0.68308 0.16881 0.20705 0.0
C354 C 0.63656 0.1323 0.23172 0.0
C355 C 0.63501 0.12319 0.15836 0.0
C356 C 0.65864 0.13589 0.11075 0.0
C357 C 0.6821 0.15885 0.13543 0.0
C358 C 0.61146 0.11967 0.28361 0.0
C359 C 0.65836 0.12625 0.03267 0.0
C360 C 0.58618 0.0494 0.09267 0.0
C361 C 0.55934 0.06531 0.05088 0.0
C362 C 0.61047 0.06776 0.13103 0.0
C363 C 0.60728 0.10267 0.12851 0.0
C364 C 0.57905 0.11849 0.09002 0.0
C365 C 0.5556 0.09963 0.05091 0.0
C366 C 0.6404 0.05005 0.17059 0.0
C367 C 0.57434 0.15556 0.08738 0.0
H368 H 0.66164 0.16271 0.31088 0.0
H369 H 0.69951 0.16939 0.09815 0.0
H370 H 0.58683 0.13055 0.26429 0.0
H371 H 0.60898 0.09236 0.28408 0.0
H372 H 0.61813 0.12622 0.3408 0.0
H373 H 0.68033 0.13583 1.0053 0.0
H374 H 0.65774 0.09888 0.03194 0.0
H375 H 0.63574 0.13623 0.99987 0.0
H376 H 0.58894 0.02277 0.09283 0.0
H377 H 0.53451 0.11182 0.01946 0.0
H378 H 0.64534 0.05811 0.22696 0.0
H379 H 0.66253 0.05651 0.14061 0.0
H380 H 0.63736 0.02269 0.1744 0.0
H381 H 0.57809 0.16407 0.1436 0.0
H382 H 0.5493 0.16344 0.06269 0.0
H383 H 0.59306 0.16821 0.05413 0.0
C384 C 0.6618 0.80732 0.86784 0.0
C385 C 0.6812 0.81877 0.81109 0.0
C386 C 0.63983 0.82847 0.89633 0.0
C387 C 0.63774 0.86213 0.86856 0.0
C388 C 0.65707 0.87381 0.81072 0.0
C389 C 0.67834 0.85182 0.78195 0.0
C390 C 0.61895 0.81478 0.95634 0.0
C391 C 0.6558 0.90967 0.78042 0.0
C392 C 0.56042 0.91075 0.89309 0.0
C393 C 0.57038 0.92787 0.95484 0.0
C394 C 0.58197 0.88905 0.8651 0.0
C395 C 0.61459 0.88481 0.89879 0.0
C396 C 0.62477 0.90179 0.9617 0.0
C397 C 0.60232 0.9229 0.98965 0.0
C398 C 0.56979 0.87074 0.79931 0.0
C399 C 0.65955 0.8982 0.9984 0.0
H400 H 0.6639 0.78167 0.8902 0.0
H401 H 0.69366 0.86076 0.73876 0.0
H402 H 0.62496 0.82773 1.00689 0.0
H403 H 0.59231 0.81924 0.93896 0.0
H404 H 0.62283 0.78776 0.97022 0.0
H405 H 0.67288 0.91496 0.73658 0.0
H406 H 0.63025 0.91638 0.75743 0.0
H407 H 0.66247 0.92587 0.82544 0.0
H408 H 0.53556 0.91433 0.86648 0.0
H409 H 0.61009 0.93637 0.03696 0.0
H410 H 0.57261 0.84362 0.81298 0.0
H411 H 0.58494 0.87761 0.7527 0.0
H412 H 0.54339 0.87619 0.78081 0.0
H413 H 0.66465 0.87189 0.01785 0.0
H414 H 0.66373 0.91347 0.04604 0.0
H415 H 0.67767 0.90569 0.958 0.0
C416 C 0.61418 0.56531 0.9703 0.0
C417 C 0.58042 0.57214 0.95334 0.0
C418 C 0.6383 0.58735 0.9443 0.0
C419 C 0.62819 0.61725 0.90267 0.0
C420 C 0.59403 0.62505 0.88967 0.0
C421 C 0.57055 0.60208 0.91398 0.0
C422 C 0.67439 0.57774 0.95757 0.0
C423 C 0.5822 0.6571 0.84754 0.0
C424 C 0.68865 0.68737 0.86286 0.0
C425 C 0.6924 0.68441 0.78833 0.0
C426 C 0.6685 0.6651 0.90198 0.0
C427 C 0.65273 0.63884 0.86593 0.0
C428 C 0.65819 0.63479 0.79176 0.0
C429 C 0.67749 0.65801 0.75349 0.0
C430 C 0.66261 0.67081 0.98027 0.0
C431 C 0.64269 0.60658 0.7519 0.0
H432 H 0.62167 0.54197 1.00046 0.0
H433 H 0.54434 0.60741 0.90169 0.0
H434 H 0.68392 0.57267 0.90454 0.0
H435 H 0.68928 0.59837 0.97943 0.0
H436 H 0.67834 0.55531 0.99666 0.0
H437 H 0.55527 0.66123 0.85035 0.0
H438 H 0.59601 0.67841 0.86943 0.0
H439 H 0.587 0.65667 0.78884 0.0
H440 H 0.70009 0.70802 0.88946 0.0
H441 H 0.68072 0.65567 0.69591 0.0
H442 H 0.66582 0.64746 0.01642 0.0
H443 H 0.63669 0.67921 0.98208 0.0
H444 H 0.67954 0.68986 1.00289 0.0
H445 H 0.64722 0.58269 0.78562 0.0
H446 H 0.65249 0.60474 0.69752 0.0
H447 H 0.61547 0.61022 0.74296 0.0
C448 C 0.68149 0.32585 0.15848 0.0
C449 C 0.67249 0.30463 0.21782 0.0
C450 C 0.65947 0.35021 0.12452 0.0
C451 C 0.62802 0.35347 0.15137 0.0
C452 C 0.6189 0.33212 0.21148 0.0
C453 C 0.64121 0.30773 0.24367 0.0
C454 C 0.66975 0.37227 0.05972 0.0
C455 C 0.58561 0.33504 0.24175 0.0
C456 C 0.58126 0.43426 0.10238 0.0
C457 C 0.55877 0.42558 0.04468 0.0
C458 C 0.60392 0.41091 0.13821 0.0
C459 C 0.60411 0.37843 0.11494 0.0
C460 C 0.58128 0.36958 0.05694 0.0
C461 C 0.5587 0.39325 0.02281 0.0
C462 C 0.62764 0.42095 0.20073 0.0
C463 C 0.58089 0.3352 0.03048 0.0
H464 H 0.70571 0.32338 0.13856 0.0
H465 H 0.63428 0.29133 0.28975 0.0
H466 H 0.65213 0.3694 0.01071 0.0
H467 H 0.66889 0.39862 0.07185 0.0
H468 H 0.69512 0.36652 0.04577 0.0
H469 H 0.58283 0.31719 0.29036 0.0
H470 H 0.58218 0.36052 0.25793 0.0
H471 H 0.56548 0.33055 0.19863 0.0
H472 H 0.58114 0.45927 0.11941 0.0
H473 H 0.54126 0.38652 0.97816 0.0
H474 H 0.65355 0.41812 0.18696 0.0
H475 H 0.62457 0.40444 0.25124 0.0
H476 H 0.62382 0.44701 0.21297 0.0
H477 H 0.60544 0.3294 0.01216 0.0
H478 H 0.5617 0.33248 0.98415 0.0
H479 H 0.57612 0.31653 0.07628 0.0
C480 C 0.94378 0.39471 0.46106 0.0
C481 C 0.94178 0.42929 0.45804 0.0
C482 C 0.91945 0.37631 0.42322 0.0
C483 C 0.89228 0.39295 0.38225 0.0
C484 C 0.89097 0.42801 0.37631 0.0
C485 C 0.91591 0.44582 0.41403 0.0
C486 C 0.92203 0.33896 0.42997 0.0
C487 C 0.86233 0.44662 0.33357 0.0
C488 C 0.83759 0.34076 0.25751 0.0
C489 C 0.81385 0.3293 0.30494 0.0
C490 C 0.86275 0.36258 0.28075 0.0
C491 C 0.86378 0.37338 0.35258 0.0
C492 C 0.83872 0.36331 0.39895 0.0
C493 C 0.81422 0.34123 0.37475 0.0
C494 C 0.88917 0.37264 0.22999 0.0
C495 C 0.83858 0.3747 0.4755 0.0
H496 H 0.96401 0.38194 0.49444 0.0
H497 H 0.91443 0.47263 0.4114 0.0
H498 H 0.90211 0.32825 0.46255 0.0
H499 H 0.91858 0.32935 0.37478 0.0
H500 H 0.94629 0.33008 0.45738 0.0
H501 H 0.86691 0.47375 0.32715 0.0
H502 H 0.85739 0.43752 0.27815 0.0
H503 H 0.83961 0.44222 0.36273 0.0
H504 H 0.83747 0.33148 0.20361 0.0
H505 H 0.79569 0.33274 0.41133 0.0
H506 H 0.91301 0.36077 0.25202 0.0
H507 H 0.89306 0.39984 0.22714 0.0
H508 H 0.88285 0.36521 0.17336 0.0
H509 H 0.86037 0.36421 0.51059 0.0
H510 H 0.81582 0.36691 0.50204 0.0
H511 H 0.84055 0.40209 0.4736 0.0
C512 C 0.85061 0.67245 0.73683 0.0
C513 C 0.81671 0.67348 0.71465 0.0
C514 C 0.87155 0.65034 0.7076 0.0
C515 C 0.85791 0.62828 0.65675 0.0
C516 C 0.82336 0.62844 0.63674 0.0
C517 C 0.80326 0.65151 0.66496 0.0
C518 C 0.90836 0.6514 0.72899 0.0
C519 C 0.80772 0.60463 0.58467 0.0
C520 C 0.91422 0.59209 0.52747 0.0
C521 C 0.92331 0.56192 0.5668 0.0
C522 C 0.89289 0.61407 0.55613 0.0
C523 C 0.87977 0.60505 0.62445 0.0
C524 C 0.8879 0.57393 0.66259 0.0
C525 C 0.90994 0.55298 0.63379 0.0
C526 C 0.88533 0.64737 0.51471 0.0
C527 C 0.87369 0.56292 0.73433 0.0
H528 H 0.86094 0.69005 0.77411 0.0
H529 H 0.77697 0.65268 0.64758 0.0
H530 H 0.91722 0.62678 0.75393 0.0
H531 H 0.92175 0.65731 0.67912 0.0
H532 H 0.91501 0.67015 0.76875 0.0
H533 H 0.78025 0.60653 0.57862 0.0
H534 H 0.81697 0.6097 0.52954 0.0
H535 H 0.81477 0.57878 0.60464 0.0
H536 H 0.92493 0.5991 0.47614 0.0
H537 H 0.91691 0.52949 0.66401 0.0
H538 H 0.89386 0.66742 0.54962 0.0
H539 H 0.8582 0.65045 0.50193 0.0
H540 H 0.89745 0.65058 0.4624 0.0
H541 H 0.88222 0.57971 0.77699 0.0
H542 H 0.88108 0.53718 0.75485 0.0
H543 H 0.84624 0.56435 0.72727 0.0
C544 C 0.35649 0.30866 0.20635 0.0
C545 C 0.322 0.31166 0.20351 0.0
C546 C 0.37541 0.33213 0.16766 0.0
C547 C 0.35941 0.35944 0.1259 0.0
C548 C 0.3244 0.3617 0.12001 0.0
C549 C 0.30604 0.33761 0.15872 0.0
C550 C 0.41266 0.32855 0.17448 0.0
C551 C 0.30645 0.39048 0.07629 0.0
C552 C 0.41274 0.43639 0.11785 0.0
C553 C 0.42464 0.43623 0.0482 0.0
C554 C 0.39024 0.41242 0.14214 0.0
C555 C 0.37966 0.38733 0.09603 0.0
C556 C 0.39052 0.38776 0.0244 0.0
C557 C 0.4128 0.41242 1.00105 0.0
C558 C 0.37886 0.41319 0.21849 0.0
C559 C 0.37992 0.36128 0.97394 0.0
H560 H 0.3688 0.28833 0.24025 0.0
H561 H 0.2793 0.33982 0.15615 0.0
H562 H 0.42223 0.33143 0.11931 0.0
H563 H 0.42397 0.34838 0.20676 0.0
H564 H 0.42094 0.30418 0.20228 0.0
H565 H 0.27924 0.38649 0.06972 0.0
H566 H 0.31138 0.41336 0.10481 0.0
H567 H 0.31566 0.39474 0.02093 0.0
H568 H 0.42149 0.455 0.15419 0.0
H569 H 0.42204 0.41216 0.94725 0.0
H570 H 0.38872 0.39123 0.25386 0.0
H571 H 0.35143 0.412 0.21624 0.0
H572 H 0.38726 0.43585 0.24496 0.0
H573 H 0.39126 0.33725 0.99646 0.0
H574 H 0.38752 0.36714 0.9174 0.0
H575 H 0.35265 0.35798 0.97077 0.0
C576 C 0.45076 0.60933 0.94561 0.0
C577 C 0.44452 0.57576 0.96313 0.0
C578 C 0.4253 0.63052 0.91353 0.0
C579 C 0.39279 0.61785 0.90169 0.0
C580 C 0.38633 0.58399 0.92096 0.0
C581 C 0.41251 0.56315 0.9502 0.0
C582 C 0.43326 0.66623 0.89117 0.0
C583 C 0.35179 0.56987 0.91121 0.0
C584 C 0.32225 0.68 0.87577 0.0
C585 C 0.31433 0.6811 0.79965 0.0
C586 C 0.34739 0.65899 0.91022 0.0
C587 C 0.36568 0.63969 0.86677 0.0
C588 C 0.358 0.64107 0.78966 0.0
C589 C 0.33199 0.66136 0.75717 0.0
C590 C 0.35426 0.65733 0.99292 0.0
C591 C 0.37759 0.62155 0.74133 0.0
H592 H 0.4757 0.61881 0.95563 0.0
H593 H 0.40779 0.53713 0.96476 0.0
H594 H 0.42628 0.67187 0.83141 0.0
H595 H 0.41861 0.68295 0.92089 0.0
H596 H 0.45998 0.67191 0.90271 0.0
H597 H 0.35071 0.54349 0.93321 0.0
H598 H 0.33447 0.58446 0.93962 0.0
H599 H 0.34284 0.57164 0.85197 0.0
H600 H 0.3087 0.6954 0.90835 0.0
H601 H 0.32607 0.66241 0.69806 0.0
H602 H 0.37977 0.66609 0.00761 0.0
H603 H 0.3527 0.63128 0.01662 0.0
H604 H 0.3366 0.67262 0.01891 0.0
H605 H 0.40428 0.62784 0.74957 0.0
H606 H 0.36924 0.62645 0.68194 0.0
H607 H 0.37523 0.59462 0.75683 0.0
C608 C 0.15568 0.65777 0.77155 0.0
C609 C 0.18033 0.66778 0.72526 0.0
C610 C 0.13068 0.63563 0.74877 0.0
C611 C 0.13084 0.62308 0.67877 0.0
C612 C 0.15695 0.63157 0.63416 0.0
C613 C 0.1812 0.65396 0.65775 0.0
C614 C 0.10317 0.6272 0.79765 0.0
C615 C 0.15842 0.61833 0.55969 0.0
C616 C 0.07928 0.55053 0.61617 0.0
C617 C 0.05491 0.56694 0.56747 0.0
C618 C 0.10322 0.56848 0.65657 0.0
C619 C 0.10247 0.60356 0.64824 0.0
C620 C 0.07659 0.62011 0.60257 0.0
C621 C 0.05322 0.60157 0.56236 0.0
C622 C 0.13043 0.54992 0.70447 0.0
C623 C 0.07463 0.65748 0.59295 0.0
H624 H 0.15493 0.66852 0.82369 0.0
H625 H 0.20053 0.66133 0.62228 0.0
H626 H 0.07997 0.63956 0.77296 0.0
H627 H 0.09845 0.60013 0.80206 0.0
H628 H 0.10886 0.63536 0.85385 0.0
H629 H 0.18189 0.625 0.53491 0.0
H630 H 0.15596 0.59095 0.56436 0.0
H631 H 0.13744 0.62852 0.52154 0.0
H632 H 0.0805 0.52369 0.6204 0.0
H633 H 0.03409 0.61424 0.52541 0.0
H634 H 0.13453 0.56038 0.75865 0.0
H635 H 0.15393 0.55262 0.67762 0.0
H636 H 0.12479 0.52308 0.71365 0.0
H637 H 0.07706 0.66792 0.64732 0.0
H638 H 0.05099 0.66639 0.5625 0.0
H639 H 0.09543 0.66733 0.56197 0.0
C640 C 0.15574 0.33374 0.27854 0.0
C641 C 0.18839 0.32929 0.30919 0.0
C642 C 0.13408 0.35472 0.30913 0.0
C643 C 0.14586 0.37228 0.37013 0.0
C644 C 0.17928 0.36864 0.39929 0.0
C645 C 0.19996 0.34671 0.36926 0.0
C646 C 0.09839 0.35734 0.27771 0.0
C647 C 0.19313 0.38769 0.46256 0.0
C648 C 0.09662 0.44825 0.40265 0.0
C649 C 0.07884 0.43649 0.46191 0.0
C650 C 0.11914 0.42787 0.37358 0.0
C651 C 0.12333 0.39461 0.40323 0.0
C652 C 0.10585 0.38273 0.464 0.0
C653 C 0.08406 0.40402 0.49334 0.0
C654 C 0.13804 0.44181 0.31036 0.0
C655 C 0.10923 0.34722 0.49621 0.0
H656 H 0.14678 0.31969 0.23293 0.0
H657 H 0.22529 0.34301 0.39295 0.0
H658 H 0.08182 0.34977 0.32135 0.0
H659 H 0.09225 0.38342 0.258 0.0
H660 H 0.09301 0.34159 0.23123 0.0
H661 H 0.22008 0.38328 0.47625 0.0
H662 H 0.18897 0.41465 0.44883 0.0
H663 H 0.18007 0.38044 0.51226 0.0
H664 H 0.09264 0.47344 0.37845 0.0
H665 H 0.06994 0.39482 0.53847 0.0
H666 H 0.13069 0.42875 0.26057 0.0
H667 H 0.16502 0.43774 0.3239 0.0
H668 H 0.13352 0.46876 0.29688 0.0
H669 H 0.10142 0.33029 0.45324 0.0
H670 H 0.09404 0.3419 0.54353 0.0
H671 H 0.1355 0.34149 0.51489 0.0
C672 C 0.01184 0.97327 0.85319 0.0
C673 C 0.0182 0.00391 0.81568 0.0
C674 C 0.00764 0.97087 0.92869 0.0
C675 C 0.01047 0.99974 0.96738 0.0
C676 C 0.01759 0.03063 0.9299 0.0
C677 C 0.02111 0.03238 0.85414 0.0
C678 C 0.99979 0.93758 0.96684 0.0
C679 C 0.02144 0.06179 0.96977 0.0
C680 C 0.97346 1.00129 0.15081 0.0
C681 C 1.00138 0.99428 0.20012 0.0
C682 C 0.97589 0.00268 0.07448 0.0
C683 C 0.00706 0.99747 0.04763 0.0
C684 C 0.03528 0.99046 0.09749 0.0
C685 C 0.03202 0.9887 0.17317 0.0
C686 C 0.94523 0.0098 0.02262 0.0
C687 C 0.069 0.98523 0.07093 0.0
H688 H 0.00927 0.9513 0.82313 0.0
H689 H 0.02597 0.05608 0.82489 0.0
H690 H 0.01941 0.93053 0.01148 0.0
H691 H 0.97614 0.93905 0.99278 0.0
H692 H 0.99767 0.9177 0.92838 0.0
H693 H 0.02732 0.08376 0.93261 0.0
H694 H 0.99828 0.06686 0.99507 0.0
H695 H 0.04151 0.05844 0.01508 0.0
H696 H 0.94979 0.00556 0.17185 0.0
H697 H 0.0537 0.98346 0.21139 0.0
H698 H 0.94116 0.9896 0.98541 0.0
H699 H 0.94858 0.03306 0.98749 0.0
H700 H 0.92273 0.01228 0.05237 0.0
H701 H 0.06818 0.96416 0.03581 0.0
H702 H 0.08847 0.98014 0.11712 0.0
H703 H 0.07625 0.00756 0.03661 0.0
C704 C 0.27475 0.77367 0.41695 0.0
C705 C 0.24871 0.76286 0.45832 0.0
C706 C 0.27369 0.76877 0.34164 0.0
C707 C 0.24659 0.75149 0.30841 0.0
C708 C 0.22052 0.74014 0.35061 0.0
C709 C 0.2216 0.74655 0.42473 0.0
C710 C 0.3013 0.7823 0.29753 0.0
C711 C 0.19168 0.72082 0.31778 0.0
C712 C 0.22299 0.76363 0.10343 0.0
C713 C 0.2382 0.73635 0.07795 0.0
C714 C 0.22645 0.76935 0.17804 0.0
C715 C 0.24453 0.74649 0.22875 0.0
C716 C 0.25939 0.71842 0.20355 0.0
C717 C 0.25658 0.71402 0.12785 0.0
C718 C 0.21108 0.80007 0.2024 0.0
C719 C 0.27787 0.69295 0.25653 0.0
H720 H 0.29574 0.78613 0.44334 0.0
H721 H 0.20171 0.73766 0.45719 0.0
H722 H 0.31373 0.76181 0.27402 0.0
H723 H 0.29096 0.79942 0.25065 0.0
H724 H 0.32016 0.79582 0.33127 0.0
H725 H 0.17463 0.71182 0.35948 0.0
H726 H 0.17737 0.73659 0.27372 0.0
H727 H 0.2009 0.69916 0.29214 0.0
H728 H 0.20923 0.78125 0.06453 0.0
H729 H 0.26847 0.69305 0.10778 0.0
H730 H 0.23015 0.81443 0.23345 0.0
H731 H 0.19171 0.79301 0.24 0.0
H732 H 0.19966 0.81642 0.15524 0.0
H733 H 0.29908 0.70472 0.28682 0.0
H734 H 0.28736 0.6722 0.22818 0.0
H735 H 0.2613 0.68267 0.29801 0.0
C736 C 0.48763 0.97369 0.67222 0.0
C737 C 0.48481 0.00542 0.69642 0.0
C738 C 0.49281 0.96939 0.59871 0.0
C739 C 0.49439 0.9975 0.54758 0.0
C740 C 0.49095 0.02964 0.57149 0.0
C741 C 0.48661 0.03323 0.64594 0.0
C742 C 0.4969 0.93475 0.57599 0.0
C743 C 0.49167 0.06018 0.51833 0.0
C744 C 0.53297 0.98904 0.36677 0.0
C745 C 0.50485 0.98393 0.3189 0.0
C746 C 0.53006 0.99324 0.44167 0.0
C747 C 0.49823 0.9931 0.46854 0.0
C748 C 0.46982 0.98819 0.41998 0.0
C749 C 0.47352 0.9833 0.34615 0.0
C750 C 0.56098 0.99771 0.49208 0.0
C751 C 0.4354 0.98847 0.44579 0.0
H752 H 0.48669 0.95211 0.71132 0.0
H753 H 0.48461 0.05778 0.66466 0.0
H754 H 0.47664 0.92921 0.53402 0.0
H755 H 0.5206 0.93278 0.55043 0.0
H756 H 0.4967 0.91563 0.62323 0.0
H757 H 0.48836 0.08334 0.54545 0.0
H758 H 0.51558 0.06157 0.49298 0.0
H759 H 0.47175 0.05877 0.47305 0.0
H760 H 0.55719 0.98964 0.34577 0.0
H761 H 0.45163 0.97971 0.30918 0.0
H762 H 0.56229 0.97821 0.53864 0.0
H763 H 0.56019 0.02196 0.51592 0.0
H764 H 0.58387 0.99656 0.46309 0.0
H765 H 0.43295 0.96824 0.48978 0.0
H766 H 0.41581 0.98535 0.40049 0.0
H767 H 0.43103 0.01218 0.46973 0.0
C768 C 0.27762 0.26301 0.9208 0.0
C769 C 0.24591 0.26749 0.94363 0.0
C770 C 0.28211 0.25795 0.84731 0.0
C771 C 0.2543 0.25835 0.79467 0.0
C772 C 0.22222 0.26351 0.81721 0.0
C773 C 0.21836 0.26751 0.89176 0.0
C774 C 0.31664 0.25181 0.82622 0.0
C775 C 0.19204 0.26504 0.76248 0.0
C776 C 0.27156 0.27885 0.59487 0.0
C777 C 0.26891 0.24775 0.56639 0.0
C778 C 0.26627 0.28266 0.6685 0.0
C779 C 0.25903 0.25453 0.71569 0.0
C780 C 0.25692 0.22289 0.68758 0.0
C781 C 0.26142 0.21995 0.61284 0.0
C782 C 0.26799 0.31693 0.69549 0.0
C783 C 0.25008 0.19218 0.73652 0.0
H784 H 0.29897 0.2625 0.96098 0.0
H785 H 0.19382 0.27085 0.90939 0.0
H786 H 0.31729 0.22828 0.79936 0.0
H787 H 0.32379 0.27197 0.7858 0.0
H788 H 0.33537 0.25043 0.8745 0.0
H789 H 0.16895 0.26979 0.78852 0.0
H790 H 0.19509 0.28498 0.71812 0.0
H791 H 0.18925 0.24139 0.73609 0.0
H792 H 0.27691 0.30052 0.5589 0.0
H793 H 0.25924 0.19591 0.59087 0.0
H794 H 0.28812 0.31799 0.74039 0.0
H795 H 0.24446 0.32271 0.71859 0.0
H796 H 0.27254 0.33641 0.65103 0.0
H797 H 0.26908 0.18949 0.78415 0.0
H798 H 0.25006 0.16935 0.7068 0.0
H799 H 0.22569 0.19443 0.75888 0.0
C800 C 0.74652 0.27989 0.90115 0.0
C801 C 0.75491 0.25228 0.95029 0.0
C802 C 0.74546 0.27754 0.82482 0.0
C803 C 0.75256 0.24677 0.79789 0.0
C804 C 0.76092 0.21886 0.8476 0.0
C805 C 0.76217 0.22203 0.92324 0.0
C806 C 0.73674 0.30784 0.77304 0.0
C807 C 0.76825 0.18556 0.82093 0.0
C808 C 0.71982 0.23046 0.6041 0.0
C809 C 0.74833 0.23507 0.56643 0.0
C810 C 0.72082 0.23431 0.67964 0.0
C811 C 0.75097 0.24341 0.71771 0.0
C812 C 0.77988 0.24797 0.67985 0.0
C813 C 0.77826 0.24348 0.60451 0.0
C814 C 0.68966 0.22865 0.71866 0.0
C815 C 0.81239 0.25787 0.71878 0.0
H816 H 0.74092 0.30325 0.92231 0.0
H817 H 0.76852 0.20058 0.96134 0.0
H818 H 0.75691 0.31331 0.73655 0.0
H819 H 0.71398 0.30312 0.73719 0.0
H820 H 0.73258 0.33004 0.80288 0.0
H821 H 0.77419 0.16629 0.86705 0.0
H822 H 0.74659 0.17714 0.78596 0.0
H823 H 0.78948 0.1877 0.78642 0.0
H824 H 0.69666 0.22405 0.57438 0.0
H825 H 0.80023 0.24736 0.57504 0.0
H826 H 0.68316 0.25141 0.74405 0.0
H827 H 0.69387 0.20866 0.76382 0.0
H828 H 0.66825 0.22168 0.68092 0.0
H829 H 0.80925 0.28131 0.74477 0.0
H830 H 0.83232 0.26133 0.68082 0.0
H831 H 0.82044 0.23863 0.76346 0.0
C832 C 0.72442 0.7763 0.3962 0.0
C833 C 0.75209 0.77539 0.44782 0.0
C834 C 0.72804 0.77274 0.32157 0.0
C835 C 0.76003 0.76776 0.29865 0.0
C836 C 0.78809 0.76763 0.35044 0.0
C837 C 0.78379 0.7717 0.42434 0.0
C838 C 0.69761 0.77366 0.26753 0.0
C839 C 0.82258 0.76228 0.32823 0.0
C840 C 0.76664 0.72647 0.12112 0.0
C841 C 0.77239 0.75383 0.0719 0.0
C842 C 0.76277 0.73058 0.19546 0.0
C843 C 0.76427 0.76283 0.22041 0.0
C844 C 0.77018 0.79046 0.17074 0.0
C845 C 0.77439 0.78558 0.09724 0.0
C846 C 0.75693 0.7005 0.24723 0.0
C847 C 0.77162 0.82524 0.19498 0.0
H848 H 0.6999 0.77906 0.41439 0.0
H849 H 0.80525 0.77085 0.46424 0.0
H850 H 0.7005 0.79283 0.22152 0.0
H851 H 0.69458 0.74948 0.24336 0.0
H852 H 0.67471 0.77903 0.29366 0.0
H853 H 0.84182 0.76327 0.37515 0.0
H854 H 0.82403 0.73779 0.30566 0.0
H855 H 0.82836 0.78137 0.28409 0.0
H856 H 0.76494 0.70195 0.10145 0.0
H857 H 0.77861 0.80686 0.05913 0.0
H858 H 0.73275 0.70279 0.27055 0.0
H859 H 0.77637 0.69885 0.29403 0.0
H860 H 0.757 0.67712 0.21949 0.0
H861 H 0.74798 0.8313 0.21727 0.0
H862 H 0.77613 0.84409 0.14921 0.0
H863 H 0.79163 0.82708 0.23987 0.0
C864 C 0.53202 0.49255 0.66618 0.0
C865 C 0.50126 0.49752 0.69312 0.0
C866 C 0.53518 0.49372 0.59055 0.0
C867 C 0.50678 0.49969 0.54074 0.0
C868 C 0.47552 0.50449 0.56755 0.0
C869 C 0.47314 0.5035 0.64385 0.0
C870 C 0.56897 0.4888 0.564 0.0
C871 C 0.44471 0.51066 0.51567 0.0
C872 C 0.52073 0.53289 0.34619 0.0
C873 C 0.51818 0.50398 0.30921 0.0
C874 C 0.51693 0.53187 0.42172 0.0
C875 C 0.51009 0.50124 0.46057 0.0
C876 C 0.50771 0.47191 0.42344 0.0
C877 C 0.512 0.47361 0.34804 0.0
C878 C 0.52019 0.56354 0.45991 0.0
C879 C 0.50033 0.43884 0.46321 0.0
H880 H 0.55385 0.48801 0.70434 0.0
H881 H 0.44937 0.50729 0.66489 0.0
H882 H 0.56849 0.46733 0.53005 0.0
H883 H 0.57577 0.51094 0.52852 0.0
H884 H 0.58857 0.48448 0.61018 0.0
H885 H 0.42222 0.51328 0.54542 0.0
H886 H 0.44772 0.53357 0.47913 0.0
H887 H 0.44084 0.48993 0.47986 0.0
H888 H 0.52542 0.55639 0.31592 0.0
H889 H 0.50975 0.4513 0.31913 0.0
H890 H 0.54041 0.56101 0.505 0.0
H891 H 0.49699 0.56839 0.48527 0.0
H892 H 0.52552 0.5853 0.42162 0.0
H893 H 0.52005 0.43248 0.50807 0.0
H894 H 0.49853 0.41853 0.42585 0.0
H895 H 0.47666 0.44025 0.48908 0.0
C896 C 0.9731 0.48105 0.85187 0.0
C897 C 0.00433 0.48184 0.82417 0.0
C898 C 0.96952 0.48671 0.92544 0.0
C899 C 0.99798 0.49245 0.97329 0.0
C900 C 0.0297 0.49278 0.94587 0.0
C901 C 0.03245 0.48793 0.87124 0.0
C902 C 0.9352 0.4869 0.9517 0.0
C903 C 0.0607 0.49807 0.99545 0.0
C904 C 0.98755 0.53336 0.15057 0.0
C905 C 0.98655 0.50575 0.20189 0.0
C906 C 0.99102 0.52946 0.0758 0.0
C907 C 0.99444 0.49722 0.05237 0.0
C908 C 0.99361 0.46932 0.10432 0.0
C909 C 0.98926 0.47391 0.17811 0.0
C910 C 0.99091 0.55979 0.02184 0.0
C911 C 0.99775 0.43458 0.08218 0.0
H912 H 0.95121 0.47683 0.81539 0.0
H913 H 0.05659 0.48872 0.84983 0.0
H914 H 0.93298 0.46677 0.99601 0.0
H915 H 0.93076 0.51066 0.97537 0.0
H916 H 0.91553 0.48355 0.9067 0.0
H917 H 0.08349 0.49709 0.96606 0.0
H918 H 0.05962 0.52248 0.01848 0.0
H919 H 0.06249 0.47886 0.04262 0.0
H920 H 0.98554 0.558 0.16885 0.0
H921 H 0.98886 0.45247 0.21774 0.0
H922 H 0.97083 0.55779 0.97712 0.0
H923 H 0.01464 0.5615 0.99581 0.0
H924 H 0.9873 0.58302 0.04845 0.0
H925 H 0.9774 0.4288 0.04063 0.0
H926 H 0.99776 0.41562 0.12976 0.0
H927 H 0.02136 0.43261 0.05631 0.0
loop_
_geom_bond_atom_site_label_1
_geom_bond_atom_site_label_2
_geom_bond_distance
_geom_bond_site_symmetry_2
_ccdc_geom_bond_type
Dy0 O4 2.398 1_655 S
Dy0 O5 2.491 1_565 S
Dy0 O6 2.403 1_655 S
Dy0 O7 2.664 1_655 S
Dy0 O11 2.326 1_665 S
Dy0 O15 2.310 1_565 S
Dy0 O16 2.351 . S
C1 O12 1.175 1_565 S
C1 O13 1.364 1_655 S
C2 O4 1.162 1_545 S
C2 O5 1.375 1_455 S
Dy3 O7 2.310 1_545 S
Dy3 O10 2.351 . S
Dy3 O12 2.398 1_455 S
Dy3 O13 2.491 1_545 S
Dy3 O14 2.403 1_455 S
Dy3 O15 2.664 1_455 S
Dy3 O17 2.326 1_445 S
O4 Dy0 2.398 1_455 S
O4 C2 1.162 1_565 S
O5 Dy0 2.491 1_545 S
O5 C2 1.375 1_655 S
O6 Dy0 2.403 1_455 S
O6 C8 1.254 . S
O7 Dy0 2.664 1_455 S
O7 Dy3 2.310 1_565 S
O7 C8 1.268 . S
C8 O6 1.254 . S
C8 O7 1.268 . S
C9 O14 1.254 . S
C9 O15 1.268 . S
O10 Dy3 2.351 . S
O10 C18 1.249 . S
O11 Dy0 2.326 1_445 S
O11 C18 1.267 . S
O12 C1 1.175 1_545 S
O12 Dy3 2.398 1_655 S
O13 C1 1.364 1_455 S
O13 Dy3 2.491 1_565 S
O14 Dy3 2.403 1_655 S
O14 C9 1.254 . S
O15 Dy0 2.310 1_545 S
O15 Dy3 2.664 1_655 S
O15 C9 1.268 . S
O16 Dy0 2.351 . S
O16 C19 1.249 . S
O17 Dy3 2.326 1_665 S
O17 C19 1.267 . S
C18 O10 1.249 . S
C18 O11 1.267 . S
C19 O16 1.249 . S
C19 O17 1.267 . S
Dy20 O24 2.398 . S
Dy20 O25 2.491 . S
Dy20 O26 2.403 . S
Dy20 O27 2.664 . S
Dy20 O31 2.326 . S
Dy20 O35 2.310 . S
Dy20 O36 2.351 . S
C21 O32 1.185 . S
C21 O33 1.355 . S
C22 O24 1.185 . S
C22 O25 1.355 . S
Dy23 O27 2.310 . S
Dy23 O30 2.351 . S
Dy23 O32 2.398 . S
Dy23 O33 2.491 . S
Dy23 O34 2.403 . S
Dy23 O35 2.664 . S
Dy23 O37 2.326 . S
O24 Dy20 2.398 . S
O24 C22 1.185 . S
O25 Dy20 2.491 . S
O25 C22 1.355 . S
O26 Dy20 2.403 . S
O26 C28 1.254 . S
O27 Dy20 2.664 . S
O27 Dy23 2.310 . S
O27 C28 1.268 . S
C28 O26 1.254 . S
C28 O27 1.268 . S
C29 O34 1.254 . S
C29 O35 1.268 . S
O30 Dy23 2.351 . S
O30 C38 1.249 . S
O31 Dy20 2.326 . S
O31 C38 1.267 . S
O32 C21 1.185 . S
O32 Dy23 2.398 . S
O33 C21 1.355 . S
O33 Dy23 2.491 . S
O34 Dy23 2.403 . S
O34 C29 1.254 . S
O35 Dy20 2.310 . S
O35 Dy23 2.664 . S
O35 C29 1.268 . S
O36 Dy20 2.351 . S
O36 C39 1.249 . S
O37 Dy23 2.326 . S
O37 C39 1.267 . S
C38 O30 1.249 . S
C38 O31 1.267 . S
C39 O36 1.249 . S
C39 O37 1.267 . S
Dy40 O44 2.398 . S
Dy40 O45 2.491 1_565 S
Dy40 O46 2.403 . S
Dy40 O47 2.664 1_554 S
Dy40 O51 2.326 1_565 S
Dy40 O55 2.310 1_565 S
Dy40 O56 2.351 . S
C41 O52 1.185 . S
C41 O53 1.355 1_545 S
C42 O44 1.185 . S
C42 O45 1.355 1_565 S
Dy43 O47 2.310 1_545 S
Dy43 O50 2.351 . S
Dy43 O52 2.398 . S
Dy43 O53 2.491 1_545 S
Dy43 O54 2.403 . S
Dy43 O55 2.664 1_556 S
Dy43 O57 2.326 1_545 S
O44 Dy40 2.398 . S
O44 C42 1.185 . S
O45 Dy40 2.491 1_545 S
O45 C42 1.355 1_545 S
O46 Dy40 2.403 . S
O46 C48 1.254 1_554 S
O47 Dy40 2.664 1_556 S
O47 Dy43 2.310 1_565 S
O47 C48 1.268 . S
C48 O46 1.254 1_556 S
C48 O47 1.268 . S
C49 O54 1.254 1_554 S
C49 O55 1.268 . S
O50 Dy43 2.351 . S
O50 C58 1.249 1_556 S
O51 Dy40 2.326 1_545 S
O51 C58 1.267 . S
O52 C41 1.185 . S
O52 Dy43 2.398 . S
O53 C41 1.355 1_565 S
O53 Dy43 2.491 1_565 S
O54 Dy43 2.403 . S
O54 C49 1.254 1_556 S
O55 Dy40 2.310 1_545 S
O55 Dy43 2.664 1_554 S
O55 C49 1.268 . S
O56 Dy40 2.351 . S
O56 C59 1.249 1_554 S
O57 Dy43 2.326 1_565 S
O57 C59 1.267 . S
C58 O50 1.249 1_554 S
C58 O51 1.267 . S
C59 O56 1.249 1_556 S
C59 O57 1.267 . S
Dy60 O64 2.398 . S
Dy60 O65 2.491 . S
Dy60 O66 2.403 . S
Dy60 O67 2.664 . S
Dy60 O71 2.326 . S
Dy60 O75 2.310 . S
Dy60 O76 2.351 . S
C61 O72 1.185 . S
C61 O73 1.355 . S
C62 O64 1.185 . S
C62 O65 1.355 . S
Dy63 O67 2.310 . S
Dy63 O70 2.351 . S
Dy63 O72 2.398 . S
Dy63 O73 2.491 . S
Dy63 O74 2.403 . S
Dy63 O75 2.664 . S
Dy63 O77 2.326 . S
O64 Dy60 2.398 . S
O64 C62 1.185 . S
O65 Dy60 2.491 . S
O65 C62 1.355 . S
O66 Dy60 2.403 . S
O66 C68 1.254 . S
O67 Dy60 2.664 . S
O67 Dy63 2.310 . S
O67 C68 1.268 . S
C68 O66 1.254 . S
C68 O67 1.268 . S
C69 O74 1.254 . S
C69 O75 1.268 . S
O70 Dy63 2.351 . S
O70 C78 1.249 . S
O71 Dy60 2.326 . S
O71 C78 1.267 . S
O72 C61 1.185 . S
O72 Dy63 2.398 . S
O73 C61 1.355 . S
O73 Dy63 2.491 . S
O74 Dy63 2.403 . S
O74 C69 1.254 . S
O75 Dy60 2.310 . S
O75 Dy63 2.664 . S
O75 C69 1.268 . S
O76 Dy60 2.351 . S
O76 C79 1.249 . S
O77 Dy63 2.326 . S
O77 C79 1.267 . S
C78 O70 1.249 . S
C78 O71 1.267 . S
C79 O76 1.249 . S
C79 O77 1.267 . S
Dy80 O84 2.398 . S
Dy80 O85 2.491 . S
Dy80 O86 2.403 . S
Dy80 O87 2.664 . S
Dy80 O91 2.326 . S
Dy80 O95 2.310 . S
Dy80 O96 2.351 . S
C81 O92 1.185 . S
C81 O93 1.355 . S
C82 O84 1.185 . S
C82 O85 1.355 . S
Dy83 O87 2.310 . S
Dy83 O90 2.351 . S
Dy83 O92 2.398 . S
Dy83 O93 2.491 . S
Dy83 O94 2.403 . S
Dy83 O95 2.664 . S
Dy83 O97 2.326 . S
O84 Dy80 2.398 . S
O84 C82 1.185 . S
O85 Dy80 2.491 . S
O85 C82 1.355 . S
O86 Dy80 2.403 . S
O86 C88 1.254 . S
O87 Dy80 2.664 . S
O87 Dy83 2.310 . S
O87 C88 1.268 . S
C88 O86 1.254 . S
C88 O87 1.268 . S
C89 O94 1.254 . S
C89 O95 1.268 . S
O90 Dy83 2.351 . S
O90 C98 1.249 . S
O91 Dy80 2.326 . S
O91 C98 1.267 . S
O92 C81 1.185 . S
O92 Dy83 2.398 . S
O93 C81 1.355 . S
O93 Dy83 2.491 . S
O94 Dy83 2.403 . S
O94 C89 1.254 . S
O95 Dy80 2.310 . S
O95 Dy83 2.664 . S
O95 C89 1.268 . S
O96 Dy80 2.351 . S
O96 C99 1.249 . S
O97 Dy83 2.326 . S
O97 C99 1.267 . S
C98 O90 1.249 . S
C98 O91 1.267 . S
C99 O96 1.249 . S
C99 O97 1.267 . S
Dy100 O104 2.398 . S
Dy100 O105 2.491 . S
Dy100 O106 2.403 . S
Dy100 O107 2.664 . S
Dy100 O111 2.326 . S
Dy100 O115 2.310 . S
Dy100 O116 2.351 . S
C101 O112 1.185 . S
C101 O113 1.355 . S
C102 O104 1.185 . S
C102 O105 1.355 . S
Dy103 O107 2.310 . S
Dy103 O110 2.351 . S
Dy103 O112 2.398 . S
Dy103 O113 2.491 . S
Dy103 O114 2.403 . S
Dy103 O115 2.664 . S
Dy103 O117 2.326 . S
O104 Dy100 2.398 . S
O104 C102 1.185 . S
O105 Dy100 2.491 . S
O105 C102 1.355 . S
O106 Dy100 2.403 . S
O106 C108 1.254 . S
O107 Dy100 2.664 . S
O107 Dy103 2.310 . S
O107 C108 1.268 . S
C108 O106 1.254 . S
C108 O107 1.268 . S
C109 O114 1.254 . S
C109 O115 1.268 . S
O110 Dy103 2.351 . S
O110 C118 1.249 . S
O111 Dy100 2.326 . S
O111 C118 1.267 . S
O112 C101 1.185 . S
O112 Dy103 2.398 . S
O113 C101 1.355 . S
O113 Dy103 2.491 . S
O114 Dy103 2.403 . S
O114 C109 1.254 . S
O115 Dy100 2.310 . S
O115 Dy103 2.664 . S
O115 C109 1.268 . S
O116 Dy100 2.351 . S
O116 C119 1.249 . S
O117 Dy103 2.326 . S
O117 C119 1.267 . S
C118 O110 1.249 . S
C118 O111 1.267 . S
C119 O116 1.249 . S
C119 O117 1.267 . S
Dy120 O124 2.398 . S
Dy120 O125 2.491 . S
Dy120 O126 2.403 . S
Dy120 O127 2.664 1_556 S
Dy120 O131 2.326 . S
Dy120 O135 2.310 . S
Dy120 O136 2.351 . S
C121 O132 1.185 . S
C121 O133 1.355 . S
C122 O124 1.185 . S
C122 O125 1.355 . S
Dy123 O127 2.310 . S
Dy123 O130 2.351 . S
Dy123 O132 2.398 . S
Dy123 O133 2.491 . S
Dy123 O134 2.403 . S
Dy123 O135 2.664 1_554 S
Dy123 O137 2.326 . S
O124 Dy120 2.398 . S
O124 C122 1.185 . S
O125 Dy120 2.491 . S
O125 C122 1.355 . S
O126 Dy120 2.403 . S
O126 C128 1.254 1_556 S
O127 Dy120 2.664 1_554 S
O127 Dy123 2.310 . S
O127 C128 1.268 . S
C128 O126 1.254 1_554 S
C128 O127 1.268 . S
C129 O134 1.254 1_556 S
C129 O135 1.268 . S
O130 Dy123 2.351 . S
O130 C138 1.249 1_554 S
O131 Dy120 2.326 . S
O131 C138 1.267 . S
O132 C121 1.185 . S
O132 Dy123 2.398 . S
O133 C121 1.355 . S
O133 Dy123 2.491 . S
O134 Dy123 2.403 . S
O134 C129 1.254 1_554 S
O135 Dy120 2.310 . S
O135 Dy123 2.664 1_556 S
O135 C129 1.268 . S
O136 Dy120 2.351 . S
O136 C139 1.249 1_556 S
O137 Dy123 2.326 . S
O137 C139 1.267 . S
C138 O130 1.249 1_556 S
C138 O131 1.267 . S
C139 O136 1.249 1_554 S
C139 O137 1.267 . S
Dy140 O144 2.398 1_455 S
Dy140 O145 2.491 . S
Dy140 O146 2.403 1_455 S
Dy140 O147 2.664 1_455 S
Dy140 O151 2.326 1_455 S
Dy140 O155 2.310 . S
Dy140 O156 2.351 . S
C141 O152 1.185 . S
C141 O153 1.355 1_455 S
C142 O144 1.185 . S
C142 O145 1.355 1_655 S
Dy143 O147 2.310 . S
Dy143 O150 2.351 . S
Dy143 O152 2.398 1_655 S
Dy143 O153 2.491 . S
Dy143 O154 2.403 1_655 S
Dy143 O155 2.664 1_655 S
Dy143 O157 2.326 1_655 S
O144 Dy140 2.398 1_655 S
O144 C142 1.185 . S
O145 Dy140 2.491 . S
O145 C142 1.355 1_455 S
O146 Dy140 2.403 1_655 S
O146 C148 1.254 . S
O147 Dy140 2.664 1_655 S
O147 Dy143 2.310 . S
O147 C148 1.268 . S
C148 O146 1.254 . S
C148 O147 1.268 . S
C149 O154 1.254 . S
C149 O155 1.268 . S
O150 Dy143 2.351 . S
O150 C158 1.249 . S
O151 Dy140 2.326 1_655 S
O151 C158 1.267 . S
O152 C141 1.185 . S
O152 Dy143 2.398 1_455 S
O153 C141 1.355 1_655 S
O153 Dy143 2.491 . S
O154 Dy143 2.403 1_455 S
O154 C149 1.254 . S
O155 Dy140 2.310 . S
O155 Dy143 2.664 1_455 S
O155 C149 1.268 . S
O156 Dy140 2.351 . S
O156 C159 1.249 . S
O157 Dy143 2.326 1_455 S
O157 C159 1.267 . S
C158 O150 1.249 . S
C158 O151 1.267 . S
C159 O156 1.249 . S
C159 O157 1.267 . S
C160 C161 1.391 . S
C160 C162 1.394 . S
C160 H176 0.931 . S
C161 C160 1.391 . S
C161 C165 1.376 . S
C162 C160 1.394 . S
C162 C163 1.369 . S
C162 C166 1.531 . S
C163 C162 1.369 . S
C163 C164 1.410 . S
C163 C171 1.503 . S
C164 C163 1.410 . S
C164 C165 1.392 . S
C164 C167 1.511 . S
C165 C161 1.376 . S
C165 C164 1.392 . S
C165 H177 0.929 . S
C166 C162 1.531 . S
C166 H178 0.960 . S
C166 H179 0.962 . S
C166 H180 0.960 . S
C167 C164 1.511 . S
C167 H181 0.961 . S
C167 H182 0.961 . S
C167 H183 0.961 . S
C168 C169 1.370 . S
C168 C170 1.363 . S
C168 H184 0.931 . S
C169 C168 1.370 . S
C169 C173 1.408 . S
C170 C168 1.363 . S
C170 C171 1.370 . S
C170 C174 1.524 . S
C171 C163 1.503 . S
C171 C170 1.370 . S
C171 C172 1.403 . S
C172 C171 1.403 . S
C172 C173 1.404 . S
C172 C175 1.539 . S
C173 C169 1.408 . S
C173 C172 1.404 . S
C173 H185 0.930 . S
C174 C170 1.524 . S
C174 H186 0.956 . S
C174 H187 0.961 . S
C174 H188 0.961 . S
C175 C172 1.539 . S
C175 H189 0.958 . S
C175 H190 0.961 . S
C175 H191 0.960 . S
H176 C160 0.931 . S
H177 C165 0.929 . S
H178 C166 0.960 . S
H179 C166 0.962 . S
H180 C166 0.960 . S
H181 C167 0.961 . S
H182 C167 0.961 . S
H183 C167 0.961 . S
H184 C168 0.931 . S
H185 C173 0.930 . S
H186 C174 0.956 . S
H187 C174 0.961 . S
H188 C174 0.961 . S
H189 C175 0.958 . S
H190 C175 0.961 . S
H191 C175 0.960 . S
C192 C193 1.391 . S
C192 C194 1.394 . S
C192 H208 0.931 . S
C193 C192 1.391 . S
C193 C197 1.376 . S
C194 C192 1.394 . S
C194 C195 1.369 . S
C194 C198 1.531 . S
C195 C194 1.369 . S
C195 C196 1.410 . S
C195 C203 1.503 . S
C196 C195 1.410 . S
C196 C197 1.392 . S
C196 C199 1.511 . S
C197 C193 1.376 . S
C197 C196 1.392 . S
C197 H209 0.929 . S
C198 C194 1.531 . S
C198 H210 0.960 . S
C198 H211 0.962 . S
C198 H212 0.960 . S
C199 C196 1.511 . S
C199 H213 0.961 . S
C199 H214 0.961 . S
C199 H215 0.961 . S
C200 C201 1.370 . S
C200 C202 1.363 . S
C200 H216 0.931 . S
C201 C200 1.370 . S
C201 C205 1.408 . S
C202 C200 1.363 . S
C202 C203 1.370 . S
C202 C206 1.524 . S
C203 C195 1.503 . S
C203 C202 1.370 . S
C203 C204 1.403 . S
C204 C203 1.403 . S
C204 C205 1.404 . S
C204 C207 1.539 . S
C205 C201 1.408 . S
C205 C204 1.404 . S
C205 H217 0.930 . S
C206 C202 1.524 . S
C206 H218 0.956 . S
C206 H219 0.961 . S
C206 H220 0.961 . S
C207 C204 1.539 . S
C207 H221 0.958 . S
C207 H222 0.961 . S
C207 H223 0.960 . S
H208 C192 0.931 . S
H209 C197 0.929 . S
H210 C198 0.960 . S
H211 C198 0.962 . S
H212 C198 0.960 . S
H213 C199 0.961 . S
H214 C199 0.961 . S
H215 C199 0.961 . S
H216 C200 0.931 . S
H217 C205 0.930 . S
H218 C206 0.956 . S
H219 C206 0.961 . S
H220 C206 0.961 . S
H221 C207 0.958 . S
H222 C207 0.961 . S
H223 C207 0.960 . S
C224 C225 1.391 . S
C224 C226 1.394 . S
C224 H240 0.931 . S
C225 C224 1.391 . S
C225 C229 1.376 . S
C226 C224 1.394 . S
C226 C227 1.369 . S
C226 C230 1.531 . S
C227 C226 1.369 . S
C227 C228 1.410 . S
C227 C235 1.503 . S
C228 C227 1.410 . S
C228 C229 1.392 . S
C228 C231 1.511 . S
C229 C225 1.376 . S
C229 C228 1.392 . S
C229 H241 0.929 . S
C230 C226 1.531 . S
C230 H242 0.960 . S
C230 H243 0.962 . S
C230 H244 0.960 . S
C231 C228 1.511 . S
C231 H245 0.961 . S
C231 H246 0.961 . S
C231 H247 0.961 . S
C232 C233 1.370 . S
C232 C234 1.363 . S
C232 H248 0.931 . S
C233 C232 1.370 . S
C233 C237 1.408 1_556 S
C234 C232 1.363 . S
C234 C235 1.370 . S
C234 C238 1.524 . S
C235 C227 1.503 . S
C235 C234 1.370 . S
C235 C236 1.403 . S
C236 C235 1.403 . S
C236 C237 1.404 1_556 S
C236 C239 1.539 1_556 S
C237 C233 1.408 1_554 S
C237 C236 1.404 1_554 S
C237 H249 0.930 . S
C238 C234 1.524 . S
C238 H250 0.956 . S
C238 H251 0.961 . S
C238 H252 0.961 . S
C239 C236 1.539 1_554 S
C239 H253 0.958 . S
C239 H254 0.961 . S
C239 H255 0.960 . S
H240 C224 0.931 . S
H241 C229 0.929 . S
H242 C230 0.960 . S
H243 C230 0.962 . S
H244 C230 0.960 . S
H245 C231 0.961 . S
H246 C231 0.961 . S
H247 C231 0.961 . S
H248 C232 0.931 . S
H249 C237 0.930 . S
H250 C238 0.956 . S
H251 C238 0.961 . S
H252 C238 0.961 . S
H253 C239 0.958 . S
H254 C239 0.961 . S
H255 C239 0.960 . S
C256 C257 1.391 . S
C256 C258 1.394 . S
C256 H272 0.931 . S
C257 C256 1.391 . S
C257 C261 1.376 . S
C258 C256 1.394 . S
C258 C259 1.369 . S
C258 C262 1.531 . S
C259 C258 1.369 . S
C259 C260 1.410 . S
C259 C267 1.503 . S
C260 C259 1.410 . S
C260 C261 1.392 . S
C260 C263 1.511 . S
C261 C257 1.376 . S
C261 C260 1.392 . S
C261 H273 0.929 . S
C262 C258 1.531 . S
C262 H274 0.960 . S
C262 H275 0.962 1_554 S
C262 H276 0.960 . S
C263 C260 1.511 . S
C263 H277 0.961 . S
C263 H278 0.961 . S
C263 H279 0.961 . S
C264 C265 1.370 . S
C264 C266 1.363 . S
C264 H280 0.931 . S
C265 C264 1.370 . S
C265 C269 1.408 . S
C266 C264 1.363 . S
C266 C267 1.370 . S
C266 C270 1.524 . S
C267 C259 1.503 . S
C267 C266 1.370 . S
C267 C268 1.403 . S
C268 C267 1.403 . S
C268 C269 1.404 . S
C268 C271 1.539 . S
C269 C265 1.408 . S
C269 C268 1.404 . S
C269 H281 0.930 . S
C270 C266 1.524 . S
C270 H282 0.956 . S
C270 H283 0.961 . S
C270 H284 0.961 . S
C271 C268 1.539 . S
C271 H285 0.958 . S
C271 H286 0.961 . S
C271 H287 0.960 . S
H272 C256 0.931 . S
H273 C261 0.929 . S
H274 C262 0.960 . S
H275 C262 0.962 1_556 S
H276 C262 0.960 . S
H277 C263 0.961 . S
H278 C263 0.961 . S
H279 C263 0.961 . S
H280 C264 0.931 . S
H281 C269 0.930 . S
H282 C270 0.956 . S
H283 C270 0.961 . S
H284 C270 0.961 . S
H285 C271 0.958 . S
H286 C271 0.961 . S
H287 C271 0.960 . S
C288 C289 1.391 . S
C288 C290 1.394 . S
C288 H304 0.931 . S
C289 C288 1.391 . S
C289 C293 1.376 . S
C290 C288 1.394 . S
C290 C291 1.369 . S
C290 C294 1.531 . S
C291 C290 1.369 . S
C291 C292 1.410 . S
C291 C299 1.503 . S
C292 C291 1.410 . S
C292 C293 1.392 . S
C292 C295 1.511 . S
C293 C289 1.376 . S
C293 C292 1.392 . S
C293 H305 0.929 . S
C294 C290 1.531 . S
C294 H306 0.960 . S
C294 H307 0.962 . S
C294 H308 0.960 . S
C295 C292 1.511 . S
C295 H309 0.961 . S
C295 H310 0.961 . S
C295 H311 0.961 . S
C296 C297 1.370 . S
C296 C298 1.363 . S
C296 H312 0.931 . S
C297 C296 1.370 . S
C297 C301 1.408 . S
C298 C296 1.363 . S
C298 C299 1.370 . S
C298 C302 1.524 . S
C299 C291 1.503 . S
C299 C298 1.370 . S
C299 C300 1.403 . S
C300 C299 1.403 . S
C300 C301 1.404 . S
C300 C303 1.539 . S
C301 C297 1.408 . S
C301 C300 1.404 . S
C301 H313 0.930 . S
C302 C298 1.524 . S
C302 H314 0.956 . S
C302 H315 0.961 . S
C302 H316 0.961 . S
C303 C300 1.539 . S
C303 H317 0.958 . S
C303 H318 0.961 . S
C303 H319 0.960 . S
H304 C288 0.931 . S
H305 C293 0.929 . S
H306 C294 0.960 . S
H307 C294 0.962 . S
H308 C294 0.960 . S
H309 C295 0.961 . S
H310 C295 0.961 . S
H311 C295 0.961 . S
H312 C296 0.931 . S
H313 C301 0.930 . S
H314 C302 0.956 . S
H315 C302 0.961 . S
H316 C302 0.961 . S
H317 C303 0.958 . S
H318 C303 0.961 . S
H319 C303 0.960 . S
C320 C321 1.391 . S
C320 C322 1.394 . S
C320 H336 0.931 . S
C321 C320 1.391 . S
C321 C325 1.376 . S
C322 C320 1.394 . S
C322 C323 1.369 . S
C322 C326 1.531 . S
C323 C322 1.369 . S
C323 C324 1.410 . S
C323 C331 1.503 . S
C324 C323 1.410 . S
C324 C325 1.392 . S
C324 C327 1.511 . S
C325 C321 1.376 . S
C325 C324 1.392 . S
C325 H337 0.929 . S
C326 C322 1.531 . S
C326 H338 0.960 . S
C326 H339 0.962 . S
C326 H340 0.960 . S
C327 C324 1.511 . S
C327 H341 0.961 . S
C327 H342 0.961 . S
C327 H343 0.961 . S
C328 C329 1.370 . S
C328 C330 1.363 . S
C328 H344 0.931 . S
C329 C328 1.370 . S
C329 C333 1.408 . S
C330 C328 1.363 . S
C330 C331 1.370 . S
C330 C334 1.524 . S
C331 C323 1.503 . S
C331 C330 1.370 . S
C331 C332 1.403 . S
C332 C331 1.403 . S
C332 C333 1.404 . S
C332 C335 1.539 . S
C333 C329 1.408 . S
C333 C332 1.404 . S
C333 H345 0.930 . S
C334 C330 1.524 . S
C334 H346 0.956 . S
C334 H347 0.961 . S
C334 H348 0.961 . S
C335 C332 1.539 . S
C335 H349 0.958 . S
C335 H350 0.961 . S
C335 H351 0.960 . S
H336 C320 0.931 . S
H337 C325 0.929 . S
H338 C326 0.960 . S
H339 C326 0.962 . S
H340 C326 0.960 . S
H341 C327 0.961 . S
H342 C327 0.961 . S
H343 C327 0.961 . S
H344 C328 0.931 . S
H345 C333 0.930 . S
H346 C334 0.956 . S
H347 C334 0.961 . S
H348 C334 0.961 . S
H349 C335 0.958 . S
H350 C335 0.961 . S
H351 C335 0.960 . S
C352 C353 1.391 . S
C352 C354 1.394 . S
C352 H368 0.931 . S
C353 C352 1.391 . S
C353 C357 1.376 . S
C354 C352 1.394 . S
C354 C355 1.369 . S
C354 C358 1.531 . S
C355 C354 1.369 . S
C355 C356 1.410 . S
C355 C363 1.503 . S
C356 C355 1.410 . S
C356 C357 1.392 . S
C356 C359 1.511 . S
C357 C353 1.376 . S
C357 C356 1.392 . S
C357 H369 0.929 . S
C358 C354 1.531 . S
C358 H370 0.960 . S
C358 H371 0.962 . S
C358 H372 0.960 . S
C359 C356 1.511 . S
C359 H373 0.961 . S
C359 H374 0.961 . S
C359 H375 0.961 . S
C360 C361 1.370 . S
C360 C362 1.363 . S
C360 H376 0.931 . S
C361 C360 1.370 . S
C361 C365 1.408 1_554 S
C362 C360 1.363 . S
C362 C363 1.370 . S
C362 C366 1.524 . S
C363 C355 1.503 . S
C363 C362 1.370 . S
C363 C364 1.403 . S
C364 C363 1.403 . S
C364 C365 1.404 1_554 S
C364 C367 1.539 1_554 S
C365 C361 1.408 1_556 S
C365 C364 1.404 1_556 S
C365 H377 0.930 . S
C366 C362 1.524 . S
C366 H378 0.956 . S
C366 H379 0.961 . S
C366 H380 0.961 . S
C367 C364 1.539 1_556 S
C367 H381 0.958 . S
C367 H382 0.961 . S
C367 H383 0.960 . S
H368 C352 0.931 . S
H369 C357 0.929 . S
H370 C358 0.960 . S
H371 C358 0.962 . S
H372 C358 0.960 . S
H373 C359 0.961 . S
H374 C359 0.961 . S
H375 C359 0.961 . S
H376 C360 0.931 . S
H377 C365 0.930 . S
H378 C366 0.956 . S
H379 C366 0.961 . S
H380 C366 0.961 . S
H381 C367 0.958 . S
H382 C367 0.961 . S
H383 C367 0.960 . S
C384 C385 1.391 . S
C384 C386 1.394 . S
C384 H400 0.931 . S
C385 C384 1.391 . S
C385 C389 1.376 . S
C386 C384 1.394 . S
C386 C387 1.369 . S
C386 C390 1.531 . S
C387 C386 1.369 . S
C387 C388 1.410 . S
C387 C395 1.503 . S
C388 C387 1.410 . S
C388 C389 1.392 . S
C388 C391 1.511 . S
C389 C385 1.376 . S
C389 C388 1.392 . S
C389 H401 0.929 . S
C390 C386 1.531 . S
C390 H402 0.960 . S
C390 H403 0.962 . S
C390 H404 0.960 . S
C391 C388 1.511 . S
C391 H405 0.961 . S
C391 H406 0.961 . S
C391 H407 0.961 . S
C392 C393 1.370 . S
C392 C394 1.363 . S
C392 H408 0.931 . S
C393 C392 1.370 . S
C393 C397 1.408 . S
C394 C392 1.363 . S
C394 C395 1.370 . S
C394 C398 1.524 . S
C395 C387 1.503 . S
C395 C394 1.370 . S
C395 C396 1.403 . S
C396 C395 1.403 . S
C396 C397 1.404 . S
C396 C399 1.539 1_556 S
C397 C393 1.408 . S
C397 C396 1.404 . S
C397 H409 0.930 1_556 S
C398 C394 1.524 . S
C398 H410 0.956 . S
C398 H411 0.961 . S
C398 H412 0.961 . S
C399 C396 1.539 1_554 S
C399 H413 0.958 . S
C399 H414 0.961 . S
C399 H415 0.960 . S
H400 C384 0.931 . S
H401 C389 0.929 . S
H402 C390 0.960 . S
H403 C390 0.962 . S
H404 C390 0.960 . S
H405 C391 0.961 . S
H406 C391 0.961 . S
H407 C391 0.961 . S
H408 C392 0.931 . S
H409 C397 0.930 1_554 S
H410 C398 0.956 . S
H411 C398 0.961 . S
H412 C398 0.961 . S
H413 C399 0.958 . S
H414 C399 0.961 . S
H415 C399 0.960 . S
C416 C417 1.391 . S
C416 C418 1.394 . S
C416 H432 0.931 . S
C417 C416 1.391 . S
C417 C421 1.376 . S
C418 C416 1.394 . S
C418 C419 1.369 . S
C418 C422 1.531 . S
C419 C418 1.369 . S
C419 C420 1.410 . S
C419 C427 1.503 . S
C420 C419 1.410 . S
C420 C421 1.392 . S
C420 C423 1.511 . S
C421 C417 1.376 . S
C421 C420 1.392 . S
C421 H433 0.929 . S
C422 C418 1.531 . S
C422 H434 0.960 . S
C422 H435 0.962 . S
C422 H436 0.960 . S
C423 C420 1.511 . S
C423 H437 0.961 . S
C423 H438 0.961 . S
C423 H439 0.961 . S
C424 C425 1.370 . S
C424 C426 1.363 . S
C424 H440 0.931 . S
C425 C424 1.370 . S
C425 C429 1.408 . S
C426 C424 1.363 . S
C426 C427 1.370 . S
C426 C430 1.524 . S
C427 C419 1.503 . S
C427 C426 1.370 . S
C427 C428 1.403 . S
C428 C427 1.403 . S
C428 C429 1.404 . S
C428 C431 1.539 . S
C429 C425 1.408 . S
C429 C428 1.404 . S
C429 H441 0.930 . S
C430 C426 1.524 . S
C430 H442 0.956 . S
C430 H443 0.961 . S
C430 H444 0.961 . S
C431 C428 1.539 . S
C431 H445 0.958 . S
C431 H446 0.961 . S
C431 H447 0.960 . S
H432 C416 0.931 . S
H433 C421 0.929 . S
H434 C422 0.960 . S
H435 C422 0.962 . S
H436 C422 0.960 . S
H437 C423 0.961 . S
H438 C423 0.961 . S
H439 C423 0.961 . S
H440 C424 0.931 . S
H441 C429 0.930 . S
H442 C430 0.956 . S
H443 C430 0.961 . S
H444 C430 0.961 . S
H445 C431 0.958 . S
H446 C431 0.961 . S
H447 C431 0.960 . S
C448 C449 1.391 . S
C448 C450 1.394 . S
C448 H464 0.931 . S
C449 C448 1.391 . S
C449 C453 1.376 . S
C450 C448 1.394 . S
C450 C451 1.369 . S
C450 C454 1.531 . S
C451 C450 1.369 . S
C451 C452 1.410 . S
C451 C459 1.503 . S
C452 C451 1.410 . S
C452 C453 1.392 . S
C452 C455 1.511 . S
C453 C449 1.376 . S
C453 C452 1.392 . S
C453 H465 0.929 . S
C454 C450 1.531 . S
C454 H466 0.960 1_554 S
C454 H467 0.962 . S
C454 H468 0.960 1_554 S
C455 C452 1.511 . S
C455 H469 0.961 . S
C455 H470 0.961 . S
C455 H471 0.961 . S
C456 C457 1.370 . S
C456 C458 1.363 . S
C456 H472 0.931 . S
C457 C456 1.370 . S
C457 C461 1.408 . S
C458 C456 1.363 . S
C458 C459 1.370 . S
C458 C462 1.524 . S
C459 C451 1.503 . S
C459 C458 1.370 . S
C459 C460 1.403 . S
C460 C459 1.403 . S
C460 C461 1.404 . S
C460 C463 1.539 . S
C461 C457 1.408 . S
C461 C460 1.404 . S
C461 H473 0.930 . S
C462 C458 1.524 . S
C462 H474 0.956 . S
C462 H475 0.961 . S
C462 H476 0.961 . S
C463 C460 1.539 . S
C463 H477 0.958 . S
C463 H478 0.961 . S
C463 H479 0.960 . S
H464 C448 0.931 . S
H465 C453 0.929 . S
H466 C454 0.960 1_556 S
H467 C454 0.962 . S
H468 C454 0.960 1_556 S
H469 C455 0.961 . S
H470 C455 0.961 . S
H471 C455 0.961 . S
H472 C456 0.931 . S
H473 C461 0.930 . S
H474 C462 0.956 . S
H475 C462 0.961 . S
H476 C462 0.961 . S
H477 C463 0.958 . S
H478 C463 0.961 . S
H479 C463 0.960 . S
C480 C481 1.391 . S
C480 C482 1.394 . S
C480 H496 0.931 . S
C481 C480 1.391 . S
C481 C485 1.376 . S
C482 C480 1.394 . S
C482 C483 1.369 . S
C482 C486 1.531 . S
C483 C482 1.369 . S
C483 C484 1.410 . S
C483 C491 1.503 . S
C484 C483 1.410 . S
C484 C485 1.392 . S
C484 C487 1.511 . S
C485 C481 1.376 . S
C485 C484 1.392 . S
C485 H497 0.929 . S
C486 C482 1.531 . S
C486 H498 0.960 . S
C486 H499 0.962 . S
C486 H500 0.960 . S
C487 C484 1.511 . S
C487 H501 0.961 . S
C487 H502 0.961 . S
C487 H503 0.961 . S
C488 C489 1.370 . S
C488 C490 1.363 . S
C488 H504 0.931 . S
C489 C488 1.370 . S
C489 C493 1.408 . S
C490 C488 1.363 . S
C490 C491 1.370 . S
C490 C494 1.524 . S
C491 C483 1.503 . S
C491 C490 1.370 . S
C491 C492 1.403 . S
C492 C491 1.403 . S
C492 C493 1.404 . S
C492 C495 1.539 . S
C493 C489 1.408 . S
C493 C492 1.404 . S
C493 H505 0.930 . S
C494 C490 1.524 . S
C494 H506 0.956 . S
C494 H507 0.961 . S
C494 H508 0.961 . S
C495 C492 1.539 . S
C495 H509 0.958 . S
C495 H510 0.961 . S
C495 H511 0.960 . S
H496 C480 0.931 . S
H497 C485 0.929 . S
H498 C486 0.960 . S
H499 C486 0.962 . S
H500 C486 0.960 . S
H501 C487 0.961 . S
H502 C487 0.961 . S
H503 C487 0.961 . S
H504 C488 0.931 . S
H505 C493 0.930 . S
H506 C494 0.956 . S
H507 C494 0.961 . S
H508 C494 0.961 . S
H509 C495 0.958 . S
H510 C495 0.961 . S
H511 C495 0.960 . S
C512 C513 1.391 . S
C512 C514 1.394 . S
C512 H528 0.931 . S
C513 C512 1.391 . S
C513 C517 1.376 . S
C514 C512 1.394 . S
C514 C515 1.369 . S
C514 C518 1.531 . S
C515 C514 1.369 . S
C515 C516 1.410 . S
C515 C523 1.503 . S
C516 C515 1.410 . S
C516 C517 1.392 . S
C516 C519 1.511 . S
C517 C513 1.376 . S
C517 C516 1.392 . S
C517 H529 0.929 . S
C518 C514 1.531 . S
C518 H530 0.960 . S
C518 H531 0.962 . S
C518 H532 0.960 . S
C519 C516 1.511 . S
C519 H533 0.961 . S
C519 H534 0.961 . S
C519 H535 0.961 . S
C520 C521 1.370 . S
C520 C522 1.363 . S
C520 H536 0.931 . S
C521 C520 1.370 . S
C521 C525 1.408 . S
C522 C520 1.363 . S
C522 C523 1.370 . S
C522 C526 1.524 . S
C523 C515 1.503 . S
C523 C522 1.370 . S
C523 C524 1.403 . S
C524 C523 1.403 . S
C524 C525 1.404 . S
C524 C527 1.539 . S
C525 C521 1.408 . S
C525 C524 1.404 . S
C525 H537 0.930 . S
C526 C522 1.524 . S
C526 H538 0.956 . S
C526 H539 0.961 . S
C526 H540 0.961 . S
C527 C524 1.539 . S
C527 H541 0.958 . S
C527 H542 0.961 . S
C527 H543 0.960 . S
H528 C512 0.931 . S
H529 C517 0.929 . S
H530 C518 0.960 . S
H531 C518 0.962 . S
H532 C518 0.960 . S
H533 C519 0.961 . S
H534 C519 0.961 . S
H535 C519 0.961 . S
H536 C520 0.931 . S
H537 C525 0.930 . S
H538 C526 0.956 . S
H539 C526 0.961 . S
H540 C526 0.961 . S
H541 C527 0.958 . S
H542 C527 0.961 . S
H543 C527 0.960 . S
C544 C545 1.391 . S
C544 C546 1.394 . S
C544 H560 0.931 . S
C545 C544 1.391 . S
C545 C549 1.376 . S
C546 C544 1.394 . S
C546 C547 1.369 . S
C546 C550 1.531 . S
C547 C546 1.369 . S
C547 C548 1.410 . S
C547 C555 1.503 . S
C548 C547 1.410 . S
C548 C549 1.392 . S
C548 C551 1.511 . S
C549 C545 1.376 . S
C549 C548 1.392 . S
C549 H561 0.929 . S
C550 C546 1.531 . S
C550 H562 0.960 . S
C550 H563 0.962 . S
C550 H564 0.960 . S
C551 C548 1.511 . S
C551 H565 0.961 . S
C551 H566 0.961 . S
C551 H567 0.961 . S
C552 C553 1.370 . S
C552 C554 1.363 . S
C552 H568 0.931 . S
C553 C552 1.370 . S
C553 C557 1.408 . S
C554 C552 1.363 . S
C554 C555 1.370 . S
C554 C558 1.524 . S
C555 C547 1.503 . S
C555 C554 1.370 . S
C555 C556 1.403 . S
C556 C555 1.403 . S
C556 C557 1.404 . S
C556 C559 1.539 . S
C557 C553 1.408 . S
C557 C556 1.404 . S
C557 H569 0.930 . S
C558 C554 1.524 . S
C558 H570 0.956 . S
C558 H571 0.961 . S
C558 H572 0.961 . S
C559 C556 1.539 . S
C559 H573 0.958 . S
C559 H574 0.961 1_554 S
C559 H575 0.960 . S
H560 C544 0.931 . S
H561 C549 0.929 . S
H562 C550 0.960 . S
H563 C550 0.962 . S
H564 C550 0.960 . S
H565 C551 0.961 . S
H566 C551 0.961 . S
H567 C551 0.961 . S
H568 C552 0.931 . S
H569 C557 0.930 . S
H570 C558 0.956 . S
H571 C558 0.961 . S
H572 C558 0.961 . S
H573 C559 0.958 . S
H574 C559 0.961 1_556 S
H575 C559 0.960 . S
C576 C577 1.391 . S
C576 C578 1.394 . S
C576 H592 0.931 . S
C577 C576 1.391 . S
C577 C581 1.376 . S
C578 C576 1.394 . S
C578 C579 1.369 . S
C578 C582 1.531 . S
C579 C578 1.369 . S
C579 C580 1.410 . S
C579 C587 1.503 . S
C580 C579 1.410 . S
C580 C581 1.392 . S
C580 C583 1.511 . S
C581 C577 1.376 . S
C581 C580 1.392 . S
C581 H593 0.929 1_556 S
C582 C578 1.531 . S
C582 H594 0.960 . S
C582 H595 0.962 . S
C582 H596 0.960 . S
C583 C580 1.511 . S
C583 H597 0.961 1_556 S
C583 H598 0.961 . S
C583 H599 0.961 . S
C584 C585 1.370 . S
C584 C586 1.363 . S
C584 H600 0.931 . S
C585 C584 1.370 . S
C585 C589 1.408 . S
C586 C584 1.363 . S
C586 C587 1.370 . S
C586 C590 1.524 . S
C587 C579 1.503 . S
C587 C586 1.370 . S
C587 C588 1.403 . S
C588 C587 1.403 . S
C588 C589 1.404 . S
C588 C591 1.539 . S
C589 C585 1.408 . S
C589 C588 1.404 . S
C589 H601 0.930 . S
C590 C586 1.524 . S
C590 H602 0.956 . S
C590 H603 0.961 . S
C590 H604 0.961 . S
C591 C588 1.539 . S
C591 H605 0.958 . S
C591 H606 0.961 . S
C591 H607 0.960 . S
H592 C576 0.931 . S
H593 C581 0.929 1_554 S
H594 C582 0.960 . S
H595 C582 0.962 . S
H596 C582 0.960 . S
H597 C583 0.961 1_554 S
H598 C583 0.961 . S
H599 C583 0.961 . S
H600 C584 0.931 . S
H601 C589 0.930 . S
H602 C590 0.956 . S
H603 C590 0.961 . S
H604 C590 0.961 . S
H605 C591 0.958 . S
H606 C591 0.961 . S
H607 C591 0.960 . S
C608 C609 1.391 . S
C608 C610 1.394 . S
C608 H624 0.931 . S
C609 C608 1.391 . S
C609 C613 1.376 . S
C610 C608 1.394 . S
C610 C611 1.369 . S
C610 C614 1.531 . S
C611 C610 1.369 . S
C611 C612 1.410 . S
C611 C619 1.503 . S
C612 C611 1.410 . S
C612 C613 1.392 . S
C612 C615 1.511 . S
C613 C609 1.376 . S
C613 C612 1.392 . S
C613 H625 0.929 . S
C614 C610 1.531 . S
C614 H626 0.960 . S
C614 H627 0.962 . S
C614 H628 0.960 . S
C615 C612 1.511 . S
C615 H629 0.961 . S
C615 H630 0.961 . S
C615 H631 0.961 . S
C616 C617 1.370 . S
C616 C618 1.363 . S
C616 H632 0.931 . S
C617 C616 1.370 . S
C617 C621 1.408 . S
C618 C616 1.363 . S
C618 C619 1.370 . S
C618 C622 1.524 . S
C619 C611 1.503 . S
C619 C618 1.370 . S
C619 C620 1.403 . S
C620 C619 1.403 . S
C620 C621 1.404 . S
C620 C623 1.539 . S
C621 C617 1.408 . S
C621 C620 1.404 . S
C621 H633 0.930 . S
C622 C618 1.524 . S
C622 H634 0.956 . S
C622 H635 0.961 . S
C622 H636 0.961 . S
C623 C620 1.539 . S
C623 H637 0.958 . S
C623 H638 0.961 . S
C623 H639 0.960 . S
H624 C608 0.931 . S
H625 C613 0.929 . S
H626 C614 0.960 . S
H627 C614 0.962 . S
H628 C614 0.960 . S
H629 C615 0.961 . S
H630 C615 0.961 . S
H631 C615 0.961 . S
H632 C616 0.931 . S
H633 C621 0.930 . S
H634 C622 0.956 . S
H635 C622 0.961 . S
H636 C622 0.961 . S
H637 C623 0.958 . S
H638 C623 0.961 . S
H639 C623 0.960 . S
C640 C641 1.391 . S
C640 C642 1.394 . S
C640 H656 0.931 . S
C641 C640 1.391 . S
C641 C645 1.376 . S
C642 C640 1.394 . S
C642 C643 1.369 . S
C642 C646 1.531 . S
C643 C642 1.369 . S
C643 C644 1.410 . S
C643 C651 1.503 . S
C644 C643 1.410 . S
C644 C645 1.392 . S
C644 C647 1.511 . S
C645 C641 1.376 . S
C645 C644 1.392 . S
C645 H657 0.929 . S
C646 C642 1.531 . S
C646 H658 0.960 . S
C646 H659 0.962 . S
C646 H660 0.960 . S
C647 C644 1.511 . S
C647 H661 0.961 . S
C647 H662 0.961 . S
C647 H663 0.961 . S
C648 C649 1.370 . S
C648 C650 1.363 . S
C648 H664 0.931 . S
C649 C648 1.370 . S
C649 C653 1.408 . S
C650 C648 1.363 . S
C650 C651 1.370 . S
C650 C654 1.524 . S
C651 C643 1.503 . S
C651 C650 1.370 . S
C651 C652 1.403 . S
C652 C651 1.403 . S
C652 C653 1.404 . S
C652 C655 1.539 . S
C653 C649 1.408 . S
C653 C652 1.404 . S
C653 H665 0.930 . S
C654 C650 1.524 . S
C654 H666 0.956 . S
C654 H667 0.961 . S
C654 H668 0.961 . S
C655 C652 1.539 . S
C655 H669 0.958 . S
C655 H670 0.961 . S
C655 H671 0.960 . S
H656 C640 0.931 . S
H657 C645 0.929 . S
H658 C646 0.960 . S
H659 C646 0.962 . S
H660 C646 0.960 . S
H661 C647 0.961 . S
H662 C647 0.961 . S
H663 C647 0.961 . S
H664 C648 0.931 . S
H665 C653 0.930 . S
H666 C654 0.956 . S
H667 C654 0.961 . S
H668 C654 0.961 . S
H669 C655 0.958 . S
H670 C655 0.961 . S
H671 C655 0.960 . S
C672 C673 1.391 . S
C672 C674 1.394 . S
C672 H688 0.931 . S
C673 C672 1.391 . S
C673 C677 1.376 1_665 S
C674 C672 1.394 . S
C674 C675 1.369 1_655 S
C674 C678 1.531 . S
C675 C674 1.369 1_455 S
C675 C676 1.410 1_565 S
C675 C683 1.503 1_556 S
C676 C675 1.410 1_545 S
C676 C677 1.392 . S
C676 C679 1.511 . S
C677 C673 1.376 1_445 S
C677 C676 1.392 . S
C677 H689 0.929 . S
C678 C674 1.531 . S
C678 H690 0.960 1_556 S
C678 H691 0.962 . S
C678 H692 0.960 . S
C679 C676 1.511 . S
C679 H693 0.961 . S
C679 H694 0.961 . S
C679 H695 0.961 . S
C680 C681 1.370 1_655 S
C680 C682 1.363 . S
C680 H696 0.931 . S
C681 C680 1.370 1_455 S
C681 C685 1.408 1_545 S
C682 C680 1.363 . S
C682 C683 1.370 1_645 S
C682 C686 1.524 . S
C683 C675 1.503 1_554 S
C683 C682 1.370 1_465 S
C683 C684 1.403 . S
C684 C683 1.403 . S
C684 C685 1.404 . S
C684 C687 1.539 . S
C685 C681 1.408 1_565 S
C685 C684 1.404 . S
C685 H697 0.930 . S
C686 C682 1.524 . S
C686 H698 0.956 1_554 S
C686 H699 0.961 1_554 S
C686 H700 0.961 . S
C687 C684 1.539 . S
C687 H701 0.958 . S
C687 H702 0.961 . S
C687 H703 0.960 . S
H688 C672 0.931 . S
H689 C677 0.929 . S
H690 C678 0.960 1_554 S
H691 C678 0.962 . S
H692 C678 0.960 . S
H693 C679 0.961 . S
H694 C679 0.961 . S
H695 C679 0.961 . S
H696 C680 0.931 . S
H697 C685 0.930 . S
H698 C686 0.956 1_556 S
H699 C686 0.961 1_556 S
H700 C686 0.961 . S
H701 C687 0.958 . S
H702 C687 0.961 . S
H703 C687 0.960 . S
C704 C705 1.391 . S
C704 C706 1.394 . S
C704 H720 0.931 . S
C705 C704 1.391 . S
C705 C709 1.376 . S
C706 C704 1.394 . S
C706 C707 1.369 . S
C706 C710 1.531 . S
C707 C706 1.369 . S
C707 C708 1.410 . S
C707 C715 1.503 . S
C708 C707 1.410 . S
C708 C709 1.392 . S
C708 C711 1.511 . S
C709 C705 1.376 . S
C709 C708 1.392 . S
C709 H721 0.929 . S
C710 C706 1.531 . S
C710 H722 0.960 . S
C710 H723 0.962 . S
C710 H724 0.960 . S
C711 C708 1.511 . S
C711 H725 0.961 . S
C711 H726 0.961 . S
C711 H727 0.961 . S
C712 C713 1.370 . S
C712 C714 1.363 . S
C712 H728 0.931 . S
C713 C712 1.370 . S
C713 C717 1.408 . S
C714 C712 1.363 . S
C714 C715 1.370 . S
C714 C718 1.524 . S
C715 C707 1.503 . S
C715 C714 1.370 . S
C715 C716 1.403 . S
C716 C715 1.403 . S
C716 C717 1.404 . S
C716 C719 1.539 . S
C717 C713 1.408 . S
C717 C716 1.404 . S
C717 H729 0.930 . S
C718 C714 1.524 . S
C718 H730 0.956 . S
C718 H731 0.961 . S
C718 H732 0.961 . S
C719 C716 1.539 . S
C719 H733 0.958 . S
C719 H734 0.961 . S
C719 H735 0.960 . S
H720 C704 0.931 . S
H721 C709 0.929 . S
H722 C710 0.960 . S
H723 C710 0.962 . S
H724 C710 0.960 . S
H725 C711 0.961 . S
H726 C711 0.961 . S
H727 C711 0.961 . S
H728 C712 0.931 . S
H729 C717 0.930 . S
H730 C718 0.956 . S
H731 C718 0.961 . S
H732 C718 0.961 . S
H733 C719 0.958 . S
H734 C719 0.961 . S
H735 C719 0.960 . S
C736 C737 1.391 1_565 S
C736 C738 1.394 . S
C736 H752 0.931 . S
C737 C736 1.391 1_545 S
C737 C741 1.376 . S
C738 C736 1.394 . S
C738 C739 1.369 . S
C738 C742 1.531 . S
C739 C738 1.369 . S
C739 C740 1.410 1_565 S
C739 C747 1.503 . S
C740 C739 1.410 1_545 S
C740 C741 1.392 . S
C740 C743 1.511 . S
C741 C737 1.376 . S
C741 C740 1.392 . S
C741 H753 0.929 . S
C742 C738 1.531 . S
C742 H754 0.960 . S
C742 H755 0.962 . S
C742 H756 0.960 . S
C743 C740 1.511 . S
C743 H757 0.961 . S
C743 H758 0.961 . S
C743 H759 0.961 . S
C744 C745 1.370 1_545 S
C744 C746 1.363 . S
C744 H760 0.931 . S
C745 C744 1.370 1_565 S
C745 C749 1.408 . S
C746 C744 1.363 . S
C746 C747 1.370 1_545 S
C746 C750 1.524 . S
C747 C739 1.503 . S
C747 C746 1.370 1_565 S
C747 C748 1.403 . S
C748 C747 1.403 . S
C748 C749 1.404 . S
C748 C751 1.539 . S
C749 C745 1.408 . S
C749 C748 1.404 . S
C749 H761 0.930 . S
C750 C746 1.524 . S
C750 H762 0.956 . S
C750 H763 0.961 . S
C750 H764 0.961 . S
C751 C748 1.539 . S
C751 H765 0.958 . S
C751 H766 0.961 . S
C751 H767 0.960 . S
H752 C736 0.931 . S
H753 C741 0.929 . S
H754 C742 0.960 . S
H755 C742 0.962 . S
H756 C742 0.960 . S
H757 C743 0.961 . S
H758 C743 0.961 . S
H759 C743 0.961 . S
H760 C744 0.931 . S
H761 C749 0.930 . S
H762 C750 0.956 . S
H763 C750 0.961 . S
H764 C750 0.961 . S
H765 C751 0.958 . S
H766 C751 0.961 . S
H767 C751 0.960 . S
C768 C769 1.391 . S
C768 C770 1.394 . S
C768 H784 0.931 . S
C769 C768 1.391 . S
C769 C773 1.376 . S
C770 C768 1.394 . S
C770 C771 1.369 . S
C770 C774 1.531 . S
C771 C770 1.369 . S
C771 C772 1.410 . S
C771 C779 1.503 . S
C772 C771 1.410 . S
C772 C773 1.392 . S
C772 C775 1.511 . S
C773 C769 1.376 . S
C773 C772 1.392 . S
C773 H785 0.929 . S
C774 C770 1.531 . S
C774 H786 0.960 . S
C774 H787 0.962 . S
C774 H788 0.960 . S
C775 C772 1.511 . S
C775 H789 0.961 . S
C775 H790 0.961 . S
C775 H791 0.961 . S
C776 C777 1.370 . S
C776 C778 1.363 . S
C776 H792 0.931 . S
C777 C776 1.370 . S
C777 C781 1.408 . S
C778 C776 1.363 . S
C778 C779 1.370 . S
C778 C782 1.524 . S
C779 C771 1.503 . S
C779 C778 1.370 . S
C779 C780 1.403 . S
C780 C779 1.403 . S
C780 C781 1.404 . S
C780 C783 1.539 . S
C781 C777 1.408 . S
C781 C780 1.404 . S
C781 H793 0.930 . S
C782 C778 1.524 . S
C782 H794 0.956 . S
C782 H795 0.961 . S
C782 H796 0.961 . S
C783 C780 1.539 . S
C783 H797 0.958 . S
C783 H798 0.961 . S
C783 H799 0.960 . S
H784 C768 0.931 . S
H785 C773 0.929 . S
H786 C774 0.960 . S
H787 C774 0.962 . S
H788 C774 0.960 . S
H789 C775 0.961 . S
H790 C775 0.961 . S
H791 C775 0.961 . S
H792 C776 0.931 . S
H793 C781 0.930 . S
H794 C782 0.956 . S
H795 C782 0.961 . S
H796 C782 0.961 . S
H797 C783 0.958 . S
H798 C783 0.961 . S
H799 C783 0.960 . S
C800 C801 1.391 . S
C800 C802 1.394 . S
C800 H816 0.931 . S
C801 C800 1.391 . S
C801 C805 1.376 . S
C802 C800 1.394 . S
C802 C803 1.369 . S
C802 C806 1.531 . S
C803 C802 1.369 . S
C803 C804 1.410 . S
C803 C811 1.503 . S
C804 C803 1.410 . S
C804 C805 1.392 . S
C804 C807 1.511 . S
C805 C801 1.376 . S
C805 C804 1.392 . S
C805 H817 0.929 . S
C806 C802 1.531 . S
C806 H818 0.960 . S
C806 H819 0.962 . S
C806 H820 0.960 . S
C807 C804 1.511 . S
C807 H821 0.961 . S
C807 H822 0.961 . S
C807 H823 0.961 . S
C808 C809 1.370 . S
C808 C810 1.363 . S
C808 H824 0.931 . S
C809 C808 1.370 . S
C809 C813 1.408 . S
C810 C808 1.363 . S
C810 C811 1.370 . S
C810 C814 1.524 . S
C811 C803 1.503 . S
C811 C810 1.370 . S
C811 C812 1.403 . S
C812 C811 1.403 . S
C812 C813 1.404 . S
C812 C815 1.539 . S
C813 C809 1.408 . S
C813 C812 1.404 . S
C813 H825 0.930 . S
C814 C810 1.524 . S
C814 H826 0.956 . S
C814 H827 0.961 . S
C814 H828 0.961 . S
C815 C812 1.539 . S
C815 H829 0.958 . S
C815 H830 0.961 . S
C815 H831 0.960 . S
H816 C800 0.931 . S
H817 C805 0.929 . S
H818 C806 0.960 . S
H819 C806 0.962 . S
H820 C806 0.960 . S
H821 C807 0.961 . S
H822 C807 0.961 . S
H823 C807 0.961 . S
H824 C808 0.931 . S
H825 C813 0.930 . S
H826 C814 0.956 . S
H827 C814 0.961 . S
H828 C814 0.961 . S
H829 C815 0.958 . S
H830 C815 0.961 . S
H831 C815 0.960 . S
C832 C833 1.391 . S
C832 C834 1.394 . S
C832 H848 0.931 . S
C833 C832 1.391 . S
C833 C837 1.376 . S
C834 C832 1.394 . S
C834 C835 1.369 . S
C834 C838 1.531 . S
C835 C834 1.369 . S
C835 C836 1.410 . S
C835 C843 1.503 . S
C836 C835 1.410 . S
C836 C837 1.392 . S
C836 C839 1.511 . S
C837 C833 1.376 . S
C837 C836 1.392 . S
C837 H849 0.929 . S
C838 C834 1.531 . S
C838 H850 0.960 . S
C838 H851 0.962 . S
C838 H852 0.960 . S
C839 C836 1.511 . S
C839 H853 0.961 . S
C839 H854 0.961 . S
C839 H855 0.961 . S
C840 C841 1.370 . S
C840 C842 1.363 . S
C840 H856 0.931 . S
C841 C840 1.370 . S
C841 C845 1.408 . S
C842 C840 1.363 . S
C842 C843 1.370 . S
C842 C846 1.524 . S
C843 C835 1.503 . S
C843 C842 1.370 . S
C843 C844 1.403 . S
C844 C843 1.403 . S
C844 C845 1.404 . S
C844 C847 1.539 . S
C845 C841 1.408 . S
C845 C844 1.404 . S
C845 H857 0.930 . S
C846 C842 1.524 . S
C846 H858 0.956 . S
C846 H859 0.961 . S
C846 H860 0.961 . S
C847 C844 1.539 . S
C847 H861 0.958 . S
C847 H862 0.961 . S
C847 H863 0.960 . S
H848 C832 0.931 . S
H849 C837 0.929 . S
H850 C838 0.960 . S
H851 C838 0.962 . S
H852 C838 0.960 . S
H853 C839 0.961 . S
H854 C839 0.961 . S
H855 C839 0.961 . S
H856 C840 0.931 . S
H857 C845 0.930 . S
H858 C846 0.956 . S
H859 C846 0.961 . S
H860 C846 0.961 . S
H861 C847 0.958 . S
H862 C847 0.961 . S
H863 C847 0.960 . S
C864 C865 1.391 . S
C864 C866 1.394 . S
C864 H880 0.931 . S
C865 C864 1.391 . S
C865 C869 1.376 . S
C866 C864 1.394 . S
C866 C867 1.369 . S
C866 C870 1.531 . S
C867 C866 1.369 . S
C867 C868 1.410 . S
C867 C875 1.503 . S
C868 C867 1.410 . S
C868 C869 1.392 . S
C868 C871 1.511 . S
C869 C865 1.376 . S
C869 C868 1.392 . S
C869 H881 0.929 . S
C870 C866 1.531 . S
C870 H882 0.960 . S
C870 H883 0.962 . S
C870 H884 0.960 . S
C871 C868 1.511 . S
C871 H885 0.961 . S
C871 H886 0.961 . S
C871 H887 0.961 . S
C872 C873 1.370 . S
C872 C874 1.363 . S
C872 H888 0.931 . S
C873 C872 1.370 . S
C873 C877 1.408 . S
C874 C872 1.363 . S
C874 C875 1.370 . S
C874 C878 1.524 . S
C875 C867 1.503 . S
C875 C874 1.370 . S
C875 C876 1.403 . S
C876 C875 1.403 . S
C876 C877 1.404 . S
C876 C879 1.539 . S
C877 C873 1.408 . S
C877 C876 1.404 . S
C877 H889 0.930 . S
C878 C874 1.524 . S
C878 H890 0.956 . S
C878 H891 0.961 . S
C878 H892 0.961 . S
C879 C876 1.539 . S
C879 H893 0.958 . S
C879 H894 0.961 . S
C879 H895 0.960 . S
H880 C864 0.931 . S
H881 C869 0.929 . S
H882 C870 0.960 . S
H883 C870 0.962 . S
H884 C870 0.960 . S
H885 C871 0.961 . S
H886 C871 0.961 . S
H887 C871 0.961 . S
H888 C872 0.931 . S
H889 C877 0.930 . S
H890 C878 0.956 . S
H891 C878 0.961 . S
H892 C878 0.961 . S
H893 C879 0.958 . S
H894 C879 0.961 . S
H895 C879 0.960 . S
C896 C897 1.391 . S
C896 C898 1.394 . S
C896 H912 0.931 . S
C897 C896 1.391 . S
C897 C901 1.376 1_655 S
C898 C896 1.394 . S
C898 C899 1.369 1_655 S
C898 C902 1.531 . S
C899 C898 1.369 1_455 S
C899 C900 1.410 . S
C899 C907 1.503 1_556 S
C900 C899 1.410 . S
C900 C901 1.392 . S
C900 C903 1.511 . S
C901 C897 1.376 1_455 S
C901 C900 1.392 . S
C901 H913 0.929 . S
C902 C898 1.531 . S
C902 H914 0.960 1_556 S
C902 H915 0.962 . S
C902 H916 0.960 . S
C903 C900 1.511 . S
C903 H917 0.961 . S
C903 H918 0.961 . S
C903 H919 0.961 . S
C904 C905 1.370 1_655 S
C904 C906 1.363 . S
C904 H920 0.931 . S
C905 C904 1.370 1_455 S
C905 C909 1.408 . S
C906 C904 1.363 . S
C906 C907 1.370 1_655 S
C906 C910 1.524 . S
C907 C899 1.503 1_554 S
C907 C906 1.370 1_455 S
C907 C908 1.403 . S
C908 C907 1.403 . S
C908 C909 1.404 . S
C908 C911 1.539 . S
C909 C905 1.408 . S
C909 C908 1.404 . S
C909 H921 0.930 . S
C910 C906 1.524 . S
C910 H922 0.956 1_554 S
C910 H923 0.961 1_554 S
C910 H924 0.961 . S
C911 C908 1.539 . S
C911 H925 0.958 . S
C911 H926 0.961 . S
C911 H927 0.960 . S
H912 C896 0.931 . S
H913 C901 0.929 . S
H914 C902 0.960 1_554 S
H915 C902 0.962 . S
H916 C902 0.960 . S
H917 C903 0.961 . S
H918 C903 0.961 . S
H919 C903 0.961 . S
H920 C904 0.931 . S
H921 C909 0.930 . S
H922 C910 0.956 1_556 S
H923 C910 0.961 1_556 S
H924 C910 0.961 . S
H925 C911 0.958 . S
H926 C911 0.961 . S
H927 C911 0.960 . S
C161 C18 1.506 . S
C169 C68 1.486 . S
C193 C8 1.155 . S
C201 C28 1.128 . S
C225 C38 1.516 . S
C233 C48 1.483 . S
C257 C58 1.797 . S
C265 C78 1.798 . S
C289 C19 1.515 . S
C297 C109 1.486 . S
C321 C9 1.109 . S
C329 C89 1.147 . S
C353 C99 1.517 . S
C361 C49 1.484 . S
C385 C119 1.801 . S
C393 C59 1.798 . S
C417 C138 1.516 . S
C425 C108 1.483 . S
C449 C88 1.132 . S
C457 C128 1.135 . S
C481 C148 1.485 . S
C489 C98 1.508 . S
C513 C118 1.787 . S
C521 C158 1.804 . S
C545 C69 1.493 . S
C553 C139 1.504 . S
C577 C129 1.171 . S
C585 C29 1.143 . S
C609 C39 1.518 . S
C617 C149 1.481 . S
C641 C79 1.807 . S
C649 C159 1.798 . S
C673 C1 1.449 . S
C681 C2 1.459 . S
C705 C21 1.477 . S
C713 C22 1.444 1_554 S
C737 C41 1.475 . S
C745 C42 1.497 . S
C769 C62 1.503 1_556 S
C777 C61 1.485 . S
C801 C81 1.421 1_556 S
C809 C82 1.468 . S
C833 C102 1.473 . S
C841 C101 1.496 1_554 S
C865 C122 1.425 . S
C873 C121 1.468 . S
C897 C142 1.468 . S
C905 C141 1.500 . S
