# Generated by pormake.
# Topology wgu, (5)-cn, num edge types: 1
# Building blocks:
#     Node 0, Type 0, BuildingBlock: XOMCOT_clean_sbu_1, # of connection points: 5
#     Node 1, Type 0, BuildingBlock: XOMCOT_clean_sbu_1, # of connection points: 5
#     Node 2, Type 0, BuildingBlock: XOMCOT_clean_sbu_1, # of connection points: 5
#     Node 3, Type 0, BuildingBlock: XOMCOT_clean_sbu_1, # of connection points: 5
#     Node 4, Type 0, BuildingBlock: XOMCOT_clean_sbu_1, # of connection points: 5
#     Node 5, Type 0, BuildingBlock: XOMCOT_clean_sbu_1, # of connection points: 5
#     Node 6, Type 0, BuildingBlock: XOMCOT_clean_sbu_1, # of connection points: 5
#     Node 7, Type 0, BuildingBlock: XOMCOT_clean_sbu_1, # of connection points: 5
#     Edge 8, Type (0, 0), BuildingBlock: OJICUG_clean_linker_0, # of connection points: 2
#     Edge 9, Type (0, 0), BuildingBlock: OJICUG_clean_linker_0, # of connection points: 2
#     Edge 10, Type (0, 0), BuildingBlock: OJICUG_clean_linker_0, # of connection points: 2
#     Edge 11, Type (0, 0), BuildingBlock: OJICUG_clean_linker_0, # of connection points: 2
#     Edge 12, Type (0, 0), BuildingBlock: OJICUG_clean_linker_0, # of connection points: 2
#     Edge 13, Type (0, 0), BuildingBlock: OJICUG_clean_linker_0, # of connection points: 2
#     Edge 14, Type (0, 0), BuildingBlock: OJICUG_clean_linker_0, # of connection points: 2
#     Edge 15, Type (0, 0), BuildingBlock: OJICUG_clean_linker_0, # of connection points: 2
#     Edge 16, Type (0, 0), BuildingBlock: OJICUG_clean_linker_0, # of connection points: 2
#     Edge 17, Type (0, 0), BuildingBlock: OJICUG_clean_linker_0, # of connection points: 2
#     Edge 18, Type (0, 0), BuildingBlock: OJICUG_clean_linker_0, # of connection points: 2
#     Edge 19, Type (0, 0), BuildingBlock: OJICUG_clean_linker_0, # of connection points: 2
#     Edge 20, Type (0, 0), BuildingBlock: OJICUG_clean_linker_0, # of connection points: 2
#     Edge 21, Type (0, 0), BuildingBlock: OJICUG_clean_linker_0, # of connection points: 2
#     Edge 22, Type (0, 0), BuildingBlock: OJICUG_clean_linker_0, # of connection points: 2
#     Edge 23, Type (0, 0), BuildingBlock: OJICUG_clean_linker_0, # of connection points: 2
#     Edge 24, Type (0, 0), BuildingBlock: OJICUG_clean_linker_0, # of connection points: 2
#     Edge 25, Type (0, 0), BuildingBlock: OJICUG_clean_linker_0, # of connection points: 2
#     Edge 26, Type (0, 0), BuildingBlock: OJICUG_clean_linker_0, # of connection points: 2
#     Edge 27, Type (0, 0), BuildingBlock: OJICUG_clean_linker_0, # of connection points: 2
# Relax obj value: 0.232
# Max RMSD: 0.186
# Mean RMSD: 0.175
data_MOF--net-wgu--node1-XOMCOT_clean_sbu_1--edge1-OJICUG_clean_linker_0
_symmetry_space_group_name_H-M    P1
_symmetry_Int_Tables_number       1
_symmetry_cell_setting            triclinic
loop_
_symmetry_equiv_pos_as_xyz
'x, y, z'
_cell_length_a     24.982463
_cell_length_b     25.0636
_cell_length_c     21.388638
_cell_angle_alpha  94.347822
_cell_angle_beta   91.95052
_cell_angle_gamma 90.478923
loop_
_atom_site_label
_atom_site_type_symbol
_atom_site_fract_x
_atom_site_fract_y
_atom_site_fract_z
_atom_type_partial_charge
C0 C 0.27818 0.44534 0.23039 0.0
C1 C 0.25535 0.49404 0.22333 0.0
N2 N 0.26631 0.50871 0.16605 0.0
N3 N 0.3033 0.42856 0.17744 0.0
C4 C 0.29649 0.46926 0.1397 0.0
H5 H 0.27415 0.42319 0.27128 0.0
Co6 Co 0.3324 0.3596 0.15918 0.0
C7 C 0.45198 0.38224 0.14568 0.0
O8 O 0.46243 0.33296 0.12494 0.0
N9 N 0.35984 0.29014 0.1428 0.0
C10 C 0.39043 0.20977 0.16269 0.0
C11 C 0.39498 0.26392 0.17851 0.0
C12 C 0.33395 0.25091 0.10664 0.0
N13 N 0.3513 0.20158 0.11803 0.0
O14 O 0.33493 0.34793 0.24664 0.0
H15 H 0.41863 0.28245 0.21772 0.0
H16 H 0.29907 0.25808 0.07737 0.0
O17 O 0.40415 0.39487 0.16056 0.0
C18 C 0.29151 0.32046 0.24905 0.0
O19 O 0.26125 0.31231 0.19762 0.0
N20 N 0.32103 0.3653 0.07329 0.0
C21 C 0.28283 0.32056 0.95763 0.0
C22 C 0.33811 0.32932 0.96918 0.0
C23 C 0.35655 0.35236 0.02767 0.0
C24 C 0.26726 0.36324 0.05978 0.0
C25 C 0.24731 0.34182 1.00185 0.0
H26 H 0.39893 0.35322 0.03812 0.0
H27 H 0.23933 0.37221 0.09654 0.0
H28 H 0.31005 0.46849 0.09213 0.0
H29 H 0.23069 0.51604 0.25682 0.0
H30 H 0.40997 0.17874 0.18734 0.0
H31 H 0.36704 0.31381 0.93609 0.0
H32 H 0.20437 0.3375 0.99412 0.0
C33 C 0.57132 0.30484 0.39868 0.0
C34 C 0.52231 0.27938 0.39232 0.0
N35 N 0.51438 0.2535 0.44426 0.0
N36 N 0.59476 0.29523 0.45426 0.0
C37 C 0.55894 0.26401 0.48143 0.0
H38 H 0.58927 0.32853 0.36456 0.0
Co39 Co 0.66399 0.32095 0.47565 0.0
C40 C 0.69423 0.28865 0.60075 0.0
O41 O 0.71355 0.3372 0.61426 0.0
N42 N 0.73566 0.34625 0.49432 0.0
C43 C 0.81145 0.39368 0.50837 0.0
C44 C 0.75704 0.39604 0.49664 0.0
C45 C 0.77857 0.3144 0.5036 0.0
N46 N 0.82517 0.34219 0.51306 0.0
O47 O 0.69209 0.26374 0.42184 0.0
H48 H 0.7354 0.43217 0.48937 0.0
H49 H 0.77526 0.27139 0.50437 0.0
O50 O 0.66964 0.27646 0.54797 0.0
C51 C 0.71125 0.28012 0.37213 0.0
O52 O 0.71107 0.33164 0.36441 0.0
N53 N 0.63352 0.38001 0.52256 0.0
C54 C 0.57392 0.46925 0.56653 0.0
C55 C 0.57596 0.42256 0.59923 0.0
C56 C 0.60523 0.37813 0.576 0.0
C57 C 0.63087 0.42449 0.48961 0.0
C58 C 0.60253 0.46977 0.51129 0.0
H59 H 0.60251 0.34158 0.59936 0.0
H60 H 0.64918 0.42405 0.44446 0.0
H61 H 0.56582 0.24836 0.52677 0.0
H62 H 0.49439 0.28029 0.35259 0.0
H63 H 0.83877 0.42757 0.51196 0.0
H64 H 0.55365 0.41964 0.64138 0.0
H65 H 0.60054 0.50373 0.4829 0.0
C66 C 0.83877 0.60147 0.05239 0.0
C67 C 0.86148 0.55151 0.05011 0.0
N68 N 0.82475 0.51584 0.02485 0.0
N69 N 0.78809 0.597 0.02852 0.0
C70 C 0.78091 0.54449 1.01175 0.0
H71 H 0.85827 0.63872 0.06931 0.0
Co72 Co 0.73996 0.6511 0.01668 0.0
C73 C 0.74599 0.72146 0.13619 0.0
O74 O 0.69435 0.73051 0.13091 0.0
N75 N 0.69212 0.70653 1.00316 0.0
C76 C 0.62672 0.75854 0.97055 0.0
C77 C 0.64036 0.70707 0.98263 0.0
C78 C 0.7087 0.75783 1.00304 0.0
N79 N 0.67017 0.79017 0.98297 0.0
O80 O 0.79257 0.68661 0.96813 0.0
H81 H 0.61456 0.67248 0.97348 0.0
H82 H 0.74917 0.7709 0.01614 0.0
O83 O 0.76817 0.68995 0.09503 0.0
C84 C 0.78173 0.68527 0.9092 0.0
O85 O 0.7382 0.65997 0.88661 0.0
N86 N 0.68751 0.6131 0.05858 0.0
C87 C 0.6105 0.54348 0.10049 0.0
C88 C 0.64634 0.57151 0.14324 0.0
C89 C 0.68541 0.60551 0.12118 0.0
C90 C 0.65351 0.58504 0.01674 0.0
C91 C 0.6146 0.55041 0.03659 0.0
H92 H 0.71492 0.62363 0.1543 0.0
H93 H 0.65775 0.58847 0.96703 0.0
H94 H 0.74478 0.5277 0.98857 0.0
H95 H 0.90178 0.54216 0.06563 0.0
H96 H 0.58881 0.77099 0.95074 0.0
H97 H 0.64553 0.5655 0.19282 0.0
H98 H 0.58866 0.52823 1.00205 0.0
C99 C 0.45699 0.84642 0.66096 0.0
C100 C 0.50636 0.86733 0.65029 0.0
N101 N 0.53199 0.83181 0.61202 0.0
N102 N 0.45138 0.79769 0.62988 0.0
C103 C 0.49797 0.78973 0.60049 0.0
H104 H 0.42659 0.86686 0.68784 0.0
Co105 Co 0.38798 0.75811 0.62351 0.0
C106 C 0.4202 0.63993 0.60957 0.0
O107 O 0.3709 0.62386 0.5954 0.0
N108 N 0.32268 0.7215 0.61891 0.0
C109 C 0.24923 0.67828 0.64424 0.0
C110 C 0.30243 0.68849 0.65965 0.0
C111 C 0.28057 0.73264 0.58133 0.0
N112 N 0.23582 0.70653 0.59522 0.0
O113 O 0.38571 0.7602 0.71445 0.0
H114 H 0.32462 0.67377 0.69896 0.0
H115 H 0.28189 0.7613 0.54608 0.0
O116 O 0.43094 0.69019 0.61989 0.0
C117 C 0.35594 0.79786 0.73682 0.0
O118 O 0.33419 0.83029 0.6979 0.0
N119 N 0.38638 0.76095 0.53452 0.0
C120 C 0.353 0.77573 0.41042 0.0
C121 C 0.36516 0.72455 0.42905 0.0
C122 C 0.38229 0.71801 0.49114 0.0
C123 C 0.37807 0.81132 0.5161 0.0
C124 C 0.36188 0.81966 0.45426 0.0
H125 H 0.3881 0.67805 0.50462 0.0
H126 H 0.38001 0.8451 0.55073 0.0
H127 H 0.50566 0.75514 0.56874 0.0
H128 H 0.52186 0.90611 0.66846 0.0
H129 H 0.2219 0.6545 0.66917 0.0
H130 H 0.35903 0.68953 0.39661 0.0
H131 H 0.35243 0.8598 0.44224 0.0
C132 C 0.68283 0.08659 0.89487 0.0
C133 C 0.66016 0.03745 0.90134 0.0
N134 N 0.69702 1.00716 0.92862 0.0
N135 N 0.73396 0.08729 0.91759 0.0
C136 C 0.74135 0.0383 0.93817 0.0
H137 H 0.66242 0.11991 0.87612 0.0
Co138 Co 0.77943 0.14655 0.92386 0.0
C139 C 0.89397 0.10313 0.92748 0.0
O140 O 0.91493 0.15079 0.94198 0.0
N141 N 0.82224 0.20831 0.92866 0.0
C142 C 0.87018 0.27679 0.89943 0.0
C143 C 0.85558 0.22423 0.88501 0.0
C144 C 0.81561 0.25253 0.96761 0.0
N145 N 0.84459 0.2946 0.95114 0.0
O146 O 0.77522 0.14839 0.83403 0.0
H147 H 0.86679 0.19982 0.84373 0.0
H148 H 0.7875 0.2548 1.00506 0.0
O149 O 0.84288 0.09743 0.92014 0.0
C150 C 0.73805 0.18024 0.81917 0.0
O151 O 0.71115 0.20511 0.8642 0.0
N152 N 0.77832 0.14791 1.01212 0.0
C153 C 0.76382 0.16783 0.14068 0.0
C154 C 0.81447 0.15466 0.11803 0.0
C155 C 0.82087 0.14445 0.0534 0.0
C156 C 0.72868 0.15948 0.03372 0.0
C157 C 0.72039 0.16884 0.09772 0.0
H158 H 0.86043 0.13654 0.03719 0.0
H159 H 0.69554 0.16391 1.00074 0.0
H160 H 0.77779 0.02638 0.96175 0.0
H161 H 0.61973 0.02499 0.88693 0.0
H162 H 0.89445 0.3011 0.87141 0.0
H163 H 0.84912 0.15405 0.14982 0.0
H164 H 0.6809 0.18017 0.11305 0.0
C165 C 0.94813 0.72204 0.44408 0.0
C166 C 0.99781 0.69999 0.45236 0.0
N167 N 0.02739 0.73434 0.49093 0.0
N168 N 0.94673 0.76984 0.47757 0.0
C169 C 0.99564 0.77625 0.50555 0.0
H170 H 0.91463 0.70336 0.41735 0.0
Co171 Co 0.8873 0.81212 0.48914 0.0
C172 C 0.93393 0.92731 0.51083 0.0
O173 O 0.88893 0.94914 0.52899 0.0
N174 N 0.82559 0.85224 0.4988 0.0
C175 C 0.75363 0.89999 0.47727 0.0
C176 C 0.80653 0.89123 0.46416 0.0
C177 C 0.78328 0.83671 0.53068 0.0
N178 N 0.73913 0.86517 0.51871 0.0
O179 O 0.87945 0.81556 0.3995 0.0
H180 H 0.82865 0.90975 0.4288 0.0
H181 H 0.78409 0.80311 0.55958 0.0
O182 O 0.93584 0.87666 0.4965 0.0
C183 C 0.84388 0.78197 0.3768 0.0
O184 O 0.81906 0.75224 0.41496 0.0
N185 N 0.89165 0.8033 0.57687 0.0
C186 C 0.87536 0.77632 0.69991 0.0
C187 C 0.8815 0.83007 0.68648 0.0
C188 C 0.89024 0.84276 0.62457 0.0
C189 C 0.88641 0.75099 0.58965 0.0
C190 C 0.87933 0.73665 0.65063 0.0
H191 H 0.89237 0.88421 0.61473 0.0
H192 H 0.88481 0.71995 0.55169 0.0
H193 H 1.00678 0.80951 0.53881 0.0
H194 H 1.0109 0.66146 0.43253 0.0
H195 H 0.72703 0.92727 0.45499 0.0
H196 H 0.87795 0.86199 0.72312 0.0
H197 H 0.87346 0.69482 0.65841 0.0
C198 C 0.17412 0.95291 0.13608 0.0
C199 C 0.19273 1.00461 0.13991 0.0
N200 N 0.23404 1.00714 0.10147 0.0
N201 N 0.2031 0.92304 0.09492 0.0
C202 C 0.24004 0.95699 0.07489 0.0
H203 H 0.14107 0.93785 0.16122 0.0
Co204 Co 0.18505 0.85223 0.07681 0.0
C205 C 0.23478 0.81226 0.95825 0.0
O206 O 0.19146 0.78315 0.94444 0.0
N207 N 0.16531 0.77948 0.06191 0.0
C208 C 0.12131 0.70155 0.05424 0.0
C209 C 0.11648 0.75601 0.05233 0.0
C210 C 0.19902 0.73812 0.0683 0.0
N211 N 0.17331 0.69053 0.06473 0.0
O212 O 0.24017 0.83321 0.13773 0.0
H213 H 0.07905 0.77651 0.04724 0.0
H214 H 0.24142 0.74305 0.0795 0.0
O215 O 0.2373 0.84438 1.0081 0.0
C216 C 0.22396 0.81808 0.18966 0.0
O217 O 0.17215 0.81456 0.19758 0.0
N218 N 0.12887 0.87466 0.02269 0.0
C219 C 0.04581 0.93479 0.9714 0.0
C220 C 0.09464 0.92766 0.94108 0.0
C221 C 0.13586 0.89812 0.96781 0.0
C222 C 0.08128 0.88021 0.05191 0.0
C223 C 0.0391 0.90917 0.02673 0.0
H224 H 0.17438 0.89807 0.94658 0.0
H225 H 0.07719 0.86495 0.09751 0.0
H226 H 0.26977 0.94566 0.04085 0.0
H227 H 0.1775 0.03782 0.16921 0.0
H228 H 0.08874 0.67262 0.05132 0.0
H229 H 0.10205 0.94704 0.8986 0.0
H230 H 1.00304 0.91466 0.05305 0.0
C231 C 0.11757 0.26014 0.61298 0.0
C232 C 0.07037 0.28768 0.61498 0.0
N233 N 0.03526 0.26375 0.57219 0.0
N234 N 0.11247 0.21783 0.57032 0.0
C235 C 0.06196 0.22132 0.54565 0.0
H236 H 0.15395 0.27079 0.6401 0.0
Co237 Co 0.17121 0.17562 0.54534 0.0
C238 C 0.12292 0.06649 0.52783 0.0
O239 O 0.16552 0.04813 0.55644 0.0
N240 N 0.23249 0.13971 0.51634 0.0
C241 C 0.29189 0.10435 0.4502 0.0
C242 C 0.23947 0.10199 0.46891 0.0
C243 C 0.28081 0.16479 0.52445 0.0
N244 N 0.31781 0.1441 0.48537 0.0
O245 O 0.16788 0.20595 0.46685 0.0
H246 H 0.20765 0.07822 0.44493 0.0
H247 H 0.28731 0.2007 0.55527 0.0
O248 O 0.12135 0.11605 0.51662 0.0
C249 C 0.19644 0.24866 0.47006 0.0
O250 O 0.2131 0.2695 0.52562 0.0
N251 N 0.17861 0.14776 0.62757 0.0
C252 C 0.20719 0.1736 0.75186 0.0
C253 C 0.15292 0.17174 0.73283 0.0
C254 C 0.13915 0.15605 0.67004 0.0
C255 C 0.22848 0.13485 0.64994 0.0
C256 C 0.24404 0.14873 0.712 0.0
H257 H 0.0977 0.1586 0.65453 0.0
H258 H 0.25866 0.11808 0.6201 0.0
H259 H 0.04625 0.19515 0.50665 0.0
H260 H 0.06303 0.32328 0.64518 0.0
H261 H 0.30852 0.08094 0.41104 0.0
H262 H 0.12241 0.18774 0.76356 0.0
H263 H 0.28571 0.14518 0.72675 0.0
C264 C 0.32084 0.05423 0.0972 0.0
C265 C 0.26468 0.05456 0.09307 0.0
H266 H 0.39298 0.10174 0.10839 0.0
C267 C 0.23821 0.10331 0.08903 0.0
H268 H 0.34194 0.01695 0.10067 0.0
C269 C 0.26693 0.15135 0.09319 0.0
C270 C 0.32298 0.15177 0.10209 0.0
H271 H 0.19488 0.1043 0.0855 0.0
H272 H 0.24461 0.18814 0.09359 0.0
C273 C 0.34982 0.1026 0.10211 0.0
C274 C 0.96948 0.33713 0.56904 0.0
C275 C 0.98235 0.28296 0.55577 0.0
H276 H 0.91045 0.39789 0.56731 0.0
C277 C 0.94244 0.24842 0.52714 0.0
H278 H 0.99903 0.36542 0.58998 0.0
C279 C 0.89098 0.26758 0.51298 0.0
C280 C 0.87819 0.32182 0.52689 0.0
H281 H 0.95068 0.20646 0.51645 0.0
H282 H 0.86147 0.23985 0.49076 0.0
C283 C 0.91839 0.35613 0.55508 0.0
C284 C 0.63943 0.93297 0.95725 0.0
C285 C 0.69029 0.95283 0.94402 0.0
H286 H 0.59328 0.8655 0.98091 0.0
C287 C 0.73433 0.91861 0.94459 0.0
H288 H 0.60487 0.95872 0.95801 0.0
C289 C 0.72768 0.86546 0.9576 0.0
C290 C 0.67681 0.84535 0.97056 0.0
H291 H 0.77377 0.93253 0.93348 0.0
H292 H 0.76239 0.83999 0.95601 0.0
C293 C 0.63275 0.87968 0.97038 0.0
C294 C 0.09691 0.67597 0.53186 0.0
C295 C 0.0805 0.72667 0.5155 0.0
H296 H 0.15994 0.63007 0.57131 0.0
C297 C 0.11595 0.77037 0.52521 0.0
H298 H 0.06986 0.64189 0.52529 0.0
C299 C 0.16713 0.76355 0.55086 0.0
C300 C 0.18339 0.71306 0.56804 0.0
H301 H 0.10406 0.80972 0.51267 0.0
H302 H 0.19366 0.79798 0.55843 0.0
C303 C 0.14793 0.66932 0.55855 0.0
C304 C 0.78732 0.42429 1.01454 0.0
C305 C 0.83117 0.45928 1.0114 0.0
H306 H 0.75733 0.34416 0.99816 0.0
C307 C 0.88056 0.43857 0.99229 0.0
H308 H 0.74899 0.43923 0.02982 0.0
C309 C 0.88535 0.38415 0.97409 0.0
C310 C 0.84107 0.34942 0.97556 0.0
H311 H 0.91488 0.46476 0.9892 0.0
H312 H 0.92343 0.36925 0.95797 0.0
C313 C 0.79228 0.36984 0.99713 0.0
C314 C 0.61789 0.79624 0.57466 0.0
C315 C 0.58351 0.83957 0.5861 0.0
H316 H 0.69482 0.7705 0.54415 0.0
C317 C 0.60059 0.89112 0.57344 0.0
H318 H 0.60566 0.75619 0.58417 0.0
C319 C 0.65138 0.89936 0.55064 0.0
C320 C 0.68631 0.85632 0.54063 0.0
H321 H 0.57455 0.92513 0.58097 0.0
H322 H 0.66378 0.93955 0.54195 0.0
C323 C 0.66901 0.80459 0.55247 0.0
C324 C 0.18845 0.56496 0.14652 0.0
C325 C 0.24218 0.55224 0.13596 0.0
H326 H 0.12423 0.61861 0.13141 0.0
C327 C 0.27178 0.58307 0.09702 0.0
H328 H 0.16456 0.54116 0.17552 0.0
C329 C 0.24862 0.62768 0.07167 0.0
C330 C 0.19527 0.6413 0.08394 0.0
H331 H 0.3132 0.57372 0.08815 0.0
H332 H 0.27254 0.65209 0.04337 0.0
C333 C 0.16515 0.60881 0.12052 0.0
C334 C 0.3904 0.16729 0.41556 0.0
C335 C 0.37 0.16724 0.47597 0.0
H336 H 0.45221 0.19441 0.35829 0.0
C337 C 0.39985 0.19344 0.52656 0.0
H338 H 0.36835 0.14809 0.37548 0.0
C339 C 0.44824 0.22004 0.51674 0.0
C340 C 0.46749 0.2218 0.45593 0.0
H341 H 0.38535 0.19389 0.57372 0.0
H342 H 0.46954 0.24088 0.55636 0.0
C343 C 0.43829 0.19441 0.40566 0.0
C344 C 0.58298 0.44854 0.10788 0.0
C345 C 0.57227 0.50301 0.12049 0.0
H346 H 0.55423 0.36806 0.1071 0.0
C347 C 0.52301 0.51795 0.14603 0.0
H348 H 0.62058 0.43614 0.08783 0.0
C349 C 0.48425 0.47885 0.15658 0.0
C350 C 0.49431 0.42415 0.14197 0.0
H351 H 0.51376 0.55986 0.15557 0.0
H352 H 0.44593 0.49156 0.1743 0.0
C353 C 0.54473 0.40962 0.11886 0.0
C354 C 0.55235 0.56842 0.57969 0.0
C355 C 0.53751 0.51454 0.58537 0.0
H356 H 0.52758 0.65076 0.58415 0.0
C357 C 0.48553 0.50374 0.60455 0.0
H358 H 0.59218 0.57831 0.56543 0.0
C359 C 0.44877 0.545 0.61488 0.0
C360 C 0.46278 0.59855 0.60698 0.0
H361 H 0.47221 0.46298 0.60874 0.0
H362 H 0.40857 0.53462 0.62749 0.0
C363 C 0.51551 0.61004 0.59086 0.0
C364 C 0.94978 0.96529 0.95541 0.0
C365 C 1.00531 0.9743 0.95082 0.0
H366 H 0.87062 0.99825 0.95035 0.0
C367 C 0.02244 0.02402 0.93199 0.0
H368 H 0.93503 0.92735 0.96931 0.0
C369 C 0.98568 0.0644 0.92137 0.0
C370 C 0.93049 0.05644 0.9288 0.0
H371 H 0.06468 0.03298 0.92866 0.0
H372 H 1.00089 0.10279 0.90937 0.0
C373 C 0.91273 1.0058 0.9441 0.0
C374 C 0.97772 0.01823 0.50919 0.0
C375 C 0.98273 0.96222 0.50936 0.0
H376 H 0.01748 0.0948 0.51334 0.0
C377 C 0.03458 0.9408 0.51063 0.0
H378 H 0.9385 0.03629 0.50778 0.0
C379 C 0.07999 0.97459 0.51459 0.0
C380 C 0.07489 0.03068 0.516 0.0
H381 H 0.04015 0.89803 0.51064 0.0
H382 H 0.11924 0.95674 0.51763 0.0
C383 C 0.0231 0.05193 0.51191 0.0
C384 C 0.28582 0.32434 0.36637 0.0
C385 C 0.27128 0.30044 0.30689 0.0
H386 H 0.27233 0.32751 0.46482 0.0
C387 C 0.23222 0.25934 0.30149 0.0
H388 H 0.31548 0.35627 0.37173 0.0
C389 C 0.20719 0.24317 0.3542 0.0
C390 C 0.22055 0.26781 0.41364 0.0
H391 H 0.22044 0.23979 0.25612 0.0
H392 H 0.17744 0.21133 0.34828 0.0
C393 C 0.26047 0.30827 0.41936 0.0
C394 C 0.76906 0.21005 0.71767 0.0
C395 C 0.72715 0.19432 0.75437 0.0
H396 H 0.79081 0.25335 0.63931 0.0
C397 C 0.67387 0.2023 0.7339 0.0
H398 H 0.81037 0.20513 0.73304 0.0
C399 C 0.66265 0.22871 0.6797 0.0
C400 C 0.70464 0.24856 0.64621 0.0
H401 H 0.64093 0.19081 0.76189 0.0
H402 H 0.62145 0.23733 0.66692 0.0
C403 C 0.75785 0.23775 0.66438 0.0
C404 C 0.77809 0.79918 0.29204 0.0
C405 C 0.82703 0.77709 0.31008 0.0
H406 H 0.71451 0.79948 0.22258 0.0
C407 C 0.85205 0.74023 0.26815 0.0
H408 H 0.75758 0.82675 0.32433 0.0
C409 C 0.82719 0.72397 0.20988 0.0
C410 C 0.77655 0.74382 0.19318 0.0
H411 H 0.88912 0.72157 0.28202 0.0
H412 H 0.84623 0.69374 0.17958 0.0
C413 C 0.75322 0.78296 0.23409 0.0
C414 C 0.29322 0.75932 0.88511 0.0
C415 C 0.27766 0.80954 0.91212 0.0
H416 H 0.33262 0.71611 0.80959 0.0
C417 C 0.29613 0.85593 0.88672 0.0
H418 H 0.27919 0.72291 0.90379 0.0
C419 C 0.32551 0.85195 0.83183 0.0
C420 C 0.33816 0.8016 0.80244 0.0
H421 H 0.28418 0.89503 0.90617 0.0
H422 H 0.3358 0.88828 0.81035 0.0
C423 C 0.32394 0.75537 0.83133 0.0
C424 C 0.78879 0.75997 0.83944 0.0
C425 C 0.81279 0.71632 0.86651 0.0
H426 H 0.79086 0.81438 0.76673 0.0
C427 C 0.86134 0.69688 0.84334 0.0
H428 H 0.75067 0.77482 0.85562 0.0
C429 C 0.88377 0.71869 0.79143 0.0
C430 C 0.85846 0.76088 0.76242 0.0
H431 H 0.88 0.66258 0.86261 0.0
H432 H 0.91961 0.70098 0.77212 0.0
C433 C 0.81178 0.78256 0.78854 0.0
C434 C 0.34008 0.82261 0.31011 0.0
C435 C 0.32455 0.78272 0.34906 0.0
H436 H 0.32128 0.86415 0.22766 0.0
C437 C 0.27821 0.75215 0.33187 0.0
H438 H 0.37553 0.84688 0.32222 0.0
C439 C 0.24684 0.76274 0.27887 0.0
C440 C 0.2615 0.80337 0.24076 0.0
H441 H 0.26475 0.7216 0.36115 0.0
H442 H 0.21031 0.73969 0.26836 0.0
C443 C 0.30924 0.83233 0.25591 0.0
C444 C 0.26847 0.24625 0.79715 0.0
C445 C 0.22684 0.20958 0.80578 0.0
H446 H 0.31775 0.31096 0.83747 0.0
C447 C 0.20286 0.21042 0.86402 0.0
H448 H 0.28678 0.24738 0.75206 0.0
C449 C 0.22092 0.24674 0.91314 0.0
C450 C 0.26255 0.28363 0.90447 0.0
H451 H 0.1707 0.18267 0.87173 0.0
H452 H 0.2028 0.24522 0.95826 0.0
C453 C 0.28608 0.28289 0.84589 0.0
C454 C 0.78953 0.23063 0.23297 0.0
C455 C 0.75705 0.1881 0.2069 0.0
H456 H 0.80003 0.2932 0.30638 0.0
C457 C 0.71368 0.17098 0.24098 0.0
H458 H 0.82281 0.24504 0.20751 0.0
C459 C 0.70123 0.19804 0.29838 0.0
C460 C 0.73126 0.24327 0.32152 0.0
H461 H 0.68799 0.1383 0.22178 0.0
H462 H 0.66592 0.18612 0.3221 0.0
C463 C 0.77638 0.25832 0.28937 0.0
loop_
_geom_bond_atom_site_label_1
_geom_bond_atom_site_label_2
_geom_bond_distance
_geom_bond_site_symmetry_2
_ccdc_geom_bond_type
C0 C1 1.351 . S
C0 N3 1.368 . S
C0 H5 0.931 . S
C1 C0 1.351 . S
C1 N2 1.373 . S
C1 H29 0.930 . S
N2 C1 1.373 . S
N2 C4 1.340 . S
N3 C0 1.368 . S
N3 C4 1.321 . S
N3 Co6 2.135 . S
C4 N2 1.340 . S
C4 N3 1.321 . S
C4 H28 0.930 . S
H5 C0 0.931 . S
Co6 N3 2.135 . S
Co6 N9 2.121 . S
Co6 O14 2.055 . S
Co6 O17 2.039 . S
Co6 N20 2.140 . S
C7 O8 1.227 . S
C7 O17 1.265 . S
O8 C7 1.227 . S
N9 Co6 2.121 . S
N9 C11 1.375 . S
N9 C12 1.313 . S
C10 C11 1.338 . S
C10 N13 1.377 . S
C10 H30 0.930 . S
C11 N9 1.375 . S
C11 C10 1.338 . S
C11 H15 0.931 . S
C12 N9 1.313 . S
C12 N13 1.344 . S
C12 H16 0.930 . S
N13 C10 1.377 . S
N13 C12 1.344 . S
O14 Co6 2.055 . S
O14 C18 1.253 . S
H15 C11 0.931 . S
H16 C12 0.930 . S
O17 Co6 2.039 . S
O17 C7 1.265 . S
C18 O14 1.253 . S
C18 O19 1.227 . S
O19 C18 1.227 . S
N20 Co6 2.140 . S
N20 C23 1.346 1_554 S
N20 C24 1.345 1_554 S
C21 C22 1.387 . S
C21 C25 1.391 . S
C22 C21 1.387 . S
C22 C23 1.369 . S
C22 H31 0.929 . S
C23 N20 1.346 1_556 S
C23 C22 1.369 . S
C23 H26 0.928 . S
C24 N20 1.345 1_556 S
C24 C25 1.371 . S
C24 H27 0.931 1_556 S
C25 C21 1.391 . S
C25 C24 1.371 . S
C25 H32 0.930 . S
H26 C23 0.928 . S
H27 C24 0.931 1_554 S
H28 C4 0.930 . S
H29 C1 0.930 . S
H30 C10 0.930 . S
H31 C22 0.929 . S
H32 C25 0.930 . S
C33 C34 1.351 . S
C33 N36 1.368 . S
C33 H38 0.931 . S
C34 C33 1.351 . S
C34 N35 1.373 . S
C34 H62 0.930 . S
N35 C34 1.373 . S
N35 C37 1.340 . S
N36 C33 1.368 . S
N36 C37 1.321 . S
N36 Co39 2.135 . S
C37 N35 1.340 . S
C37 N36 1.321 . S
C37 H61 0.930 . S
H38 C33 0.931 . S
Co39 N36 2.135 . S
Co39 N42 2.121 . S
Co39 O47 2.055 . S
Co39 O50 2.039 . S
Co39 N53 2.140 . S
C40 O41 1.227 . S
C40 O50 1.265 . S
O41 C40 1.227 . S
N42 Co39 2.121 . S
N42 C44 1.375 . S
N42 C45 1.313 . S
C43 C44 1.338 . S
C43 N46 1.377 . S
C43 H63 0.930 . S
C44 N42 1.375 . S
C44 C43 1.338 . S
C44 H48 0.931 . S
C45 N42 1.313 . S
C45 N46 1.344 . S
C45 H49 0.930 . S
N46 C43 1.377 . S
N46 C45 1.344 . S
O47 Co39 2.055 . S
O47 C51 1.253 . S
H48 C44 0.931 . S
H49 C45 0.930 . S
O50 Co39 2.039 . S
O50 C40 1.265 . S
C51 O47 1.253 . S
C51 O52 1.227 . S
O52 C51 1.227 . S
N53 Co39 2.140 . S
N53 C56 1.346 . S
N53 C57 1.345 . S
C54 C55 1.387 . S
C54 C58 1.391 . S
C55 C54 1.387 . S
C55 C56 1.369 . S
C55 H64 0.929 . S
C56 N53 1.346 . S
C56 C55 1.369 . S
C56 H59 0.928 . S
C57 N53 1.345 . S
C57 C58 1.371 . S
C57 H60 0.931 . S
C58 C54 1.391 . S
C58 C57 1.371 . S
C58 H65 0.930 . S
H59 C56 0.928 . S
H60 C57 0.931 . S
H61 C37 0.930 . S
H62 C34 0.930 . S
H63 C43 0.930 . S
H64 C55 0.929 . S
H65 C58 0.930 . S
C66 C67 1.351 . S
C66 N69 1.368 1_556 S
C66 H71 0.931 . S
C67 C66 1.351 . S
C67 N68 1.373 1_556 S
C67 H95 0.930 . S
N68 C67 1.373 1_554 S
N68 C70 1.340 . S
N69 C66 1.368 1_554 S
N69 C70 1.321 . S
N69 Co72 2.135 . S
C70 N68 1.340 . S
C70 N69 1.321 . S
C70 H94 0.930 . S
H71 C66 0.931 . S
Co72 N69 2.135 . S
Co72 N75 2.121 . S
Co72 O80 2.055 1_554 S
Co72 O83 2.039 . S
Co72 N86 2.140 . S
C73 O74 1.227 . S
C73 O83 1.265 . S
O74 C73 1.227 . S
N75 Co72 2.121 . S
N75 C77 1.375 . S
N75 C78 1.313 . S
C76 C77 1.338 . S
C76 N79 1.377 . S
C76 H96 0.930 . S
C77 N75 1.375 . S
C77 C76 1.338 . S
C77 H81 0.931 . S
C78 N75 1.313 . S
C78 N79 1.344 . S
C78 H82 0.930 1_554 S
N79 C76 1.377 . S
N79 C78 1.344 . S
O80 Co72 2.055 1_556 S
O80 C84 1.253 . S
H81 C77 0.931 . S
H82 C78 0.930 1_556 S
O83 Co72 2.039 . S
O83 C73 1.265 . S
C84 O80 1.253 . S
C84 O85 1.227 . S
O85 C84 1.227 . S
N86 Co72 2.140 . S
N86 C89 1.346 . S
N86 C90 1.354 . S
C87 C88 1.387 . S
C87 C91 1.391 . S
C88 C87 1.387 . S
C88 C89 1.369 . S
C88 H97 0.929 . S
C89 N86 1.346 . S
C89 C88 1.369 . S
C89 H92 0.928 . S
C90 N86 1.354 . S
C90 C91 1.373 . S
C90 H93 0.920 1_554 S
C91 C87 1.391 . S
C91 C90 1.373 . S
C91 H98 0.930 1_554 S
H92 C89 0.928 . S
H93 C90 0.920 1_556 S
H94 C70 0.930 . S
H95 C67 0.930 . S
H96 C76 0.930 . S
H97 C88 0.929 . S
H98 C91 0.930 1_556 S
C99 C100 1.351 . S
C99 N102 1.368 . S
C99 H104 0.931 . S
C100 C99 1.351 . S
C100 N101 1.373 . S
C100 H128 0.930 . S
N101 C100 1.373 . S
N101 C103 1.340 . S
N102 C99 1.368 . S
N102 C103 1.321 . S
N102 Co105 2.135 . S
C103 N101 1.340 . S
C103 N102 1.321 . S
C103 H127 0.930 . S
H104 C99 0.931 . S
Co105 N102 2.135 . S
Co105 N108 2.121 . S
Co105 O113 2.055 . S
Co105 O116 2.039 . S
Co105 N119 2.140 . S
C106 O107 1.227 . S
C106 O116 1.265 . S
O107 C106 1.227 . S
N108 Co105 2.121 . S
N108 C110 1.375 . S
N108 C111 1.313 . S
C109 C110 1.338 . S
C109 N112 1.377 . S
C109 H129 0.930 . S
C110 N108 1.375 . S
C110 C109 1.338 . S
C110 H114 0.931 . S
C111 N108 1.313 . S
C111 N112 1.344 . S
C111 H115 0.930 . S
N112 C109 1.377 . S
N112 C111 1.344 . S
O113 Co105 2.055 . S
O113 C117 1.253 . S
H114 C110 0.931 . S
H115 C111 0.930 . S
O116 Co105 2.039 . S
O116 C106 1.265 . S
C117 O113 1.253 . S
C117 O118 1.227 . S
O118 C117 1.227 . S
N119 Co105 2.140 . S
N119 C122 1.346 . S
N119 C123 1.345 . S
C120 C121 1.387 . S
C120 C124 1.391 . S
C121 C120 1.387 . S
C121 C122 1.369 . S
C121 H130 0.929 . S
C122 N119 1.346 . S
C122 C121 1.369 . S
C122 H125 0.928 . S
C123 N119 1.345 . S
C123 C124 1.371 . S
C123 H126 0.931 . S
C124 C120 1.391 . S
C124 C123 1.371 . S
C124 H131 0.930 . S
H125 C122 0.928 . S
H126 C123 0.931 . S
H127 C103 0.930 . S
H128 C100 0.930 . S
H129 C109 0.930 . S
H130 C121 0.929 . S
H131 C124 0.930 . S
C132 C133 1.351 . S
C132 N135 1.368 . S
C132 H137 0.931 1_565 S
C133 C132 1.351 . S
C133 N134 1.373 . S
C133 H161 0.930 . S
N134 C133 1.373 . S
N134 C136 1.340 . S
N135 C132 1.368 . S
N135 C136 1.321 . S
N135 Co138 2.135 1_565 S
C136 N134 1.340 . S
C136 N135 1.321 . S
C136 H160 0.930 . S
H137 C132 0.931 1_545 S
Co138 N135 2.135 1_545 S
Co138 N141 2.121 . S
Co138 O146 2.055 . S
Co138 O149 2.039 . S
Co138 N152 2.140 1_556 S
C139 O140 1.227 . S
C139 O149 1.265 1_554 S
O140 C139 1.227 . S
N141 Co138 2.121 . S
N141 C143 1.375 1_556 S
N141 C144 1.313 . S
C142 C143 1.338 . S
C142 N145 1.377 1_554 S
C142 H162 0.930 . S
C143 N141 1.375 1_554 S
C143 C142 1.338 . S
C143 H147 0.931 . S
C144 N141 1.313 . S
C144 N145 1.344 . S
C144 H148 0.930 . S
N145 C142 1.377 1_556 S
N145 C144 1.344 . S
O146 Co138 2.055 . S
O146 C150 1.253 . S
H147 C143 0.931 . S
H148 C144 0.930 . S
O149 Co138 2.039 . S
O149 C139 1.265 1_556 S
C150 O146 1.253 . S
C150 O151 1.227 . S
O151 C150 1.227 . S
N152 Co138 2.140 1_554 S
N152 C155 1.346 . S
N152 C156 1.345 . S
C153 C154 1.387 . S
C153 C157 1.391 . S
C154 C153 1.387 . S
C154 C155 1.369 . S
C154 H163 0.929 . S
C155 N152 1.346 . S
C155 C154 1.369 . S
C155 H158 0.928 . S
C156 N152 1.345 . S
C156 C157 1.371 . S
C156 H159 0.931 . S
C157 C153 1.391 . S
C157 C156 1.371 . S
C157 H164 0.930 . S
H158 C155 0.928 . S
H159 C156 0.931 . S
H160 C136 0.930 . S
H161 C133 0.930 . S
H162 C142 0.930 . S
H163 C154 0.929 . S
H164 C157 0.930 . S
C165 C166 1.351 . S
C165 N168 1.368 . S
C165 H170 0.931 1_455 S
C166 C165 1.351 . S
C166 N167 1.373 . S
C166 H194 0.930 . S
N167 C166 1.373 . S
N167 C169 1.340 . S
N168 C165 1.368 . S
N168 C169 1.321 . S
N168 Co171 2.135 1_455 S
C169 N167 1.340 . S
C169 N168 1.321 . S
C169 H193 0.930 . S
H170 C165 0.931 1_655 S
Co171 N168 2.135 1_655 S
Co171 N174 2.121 . S
Co171 O179 2.055 . S
Co171 O182 2.039 . S
Co171 N185 2.140 . S
C172 O173 1.227 . S
C172 O182 1.265 . S
O173 C172 1.227 . S
N174 Co171 2.121 . S
N174 C176 1.375 . S
N174 C177 1.313 . S
C175 C176 1.338 . S
C175 N178 1.377 . S
C175 H195 0.930 . S
C176 N174 1.375 . S
C176 C175 1.338 . S
C176 H180 0.931 . S
C177 N174 1.313 . S
C177 N178 1.344 . S
C177 H181 0.930 . S
N178 C175 1.377 . S
N178 C177 1.344 . S
O179 Co171 2.055 . S
O179 C183 1.253 . S
H180 C176 0.931 . S
H181 C177 0.930 . S
O182 Co171 2.039 . S
O182 C172 1.265 . S
C183 O179 1.253 . S
C183 O184 1.227 . S
O184 C183 1.227 . S
N185 Co171 2.140 . S
N185 C188 1.346 . S
N185 C189 1.345 . S
C186 C187 1.387 . S
C186 C190 1.391 . S
C187 C186 1.387 . S
C187 C188 1.369 . S
C187 H196 0.929 . S
C188 N185 1.346 . S
C188 C187 1.369 . S
C188 H191 0.928 . S
C189 N185 1.345 . S
C189 C190 1.371 . S
C189 H192 0.931 . S
C190 C186 1.391 . S
C190 C189 1.371 . S
C190 H197 0.930 . S
H191 C188 0.928 . S
H192 C189 0.931 . S
H193 C169 0.930 . S
H194 C166 0.930 . S
H195 C175 0.930 . S
H196 C187 0.929 . S
H197 C190 0.930 . S
C198 C199 1.351 . S
C198 N201 1.368 . S
C198 H203 0.931 . S
C199 C198 1.351 . S
C199 N200 1.373 . S
C199 H227 0.930 . S
N200 C199 1.373 . S
N200 C202 1.340 . S
N201 C198 1.368 . S
N201 C202 1.321 . S
N201 Co204 2.135 1_545 S
C202 N200 1.340 . S
C202 N201 1.321 . S
C202 H226 0.930 1_554 S
H203 C198 0.931 . S
Co204 N201 2.135 1_565 S
Co204 N207 2.121 . S
Co204 O212 2.055 . S
Co204 O215 2.039 1_554 S
Co204 N218 2.140 . S
C205 O206 1.227 . S
C205 O215 1.265 . S
O206 C205 1.227 . S
N207 Co204 2.121 . S
N207 C209 1.375 1_554 S
N207 C210 1.313 . S
C208 C209 1.338 . S
C208 N211 1.377 1_556 S
C208 H228 0.930 . S
C209 N207 1.375 1_556 S
C209 C208 1.338 . S
C209 H213 0.931 . S
C210 N207 1.313 . S
C210 N211 1.344 . S
C210 H214 0.930 . S
N211 C208 1.377 1_554 S
N211 C210 1.344 . S
O212 Co204 2.055 . S
O212 C216 1.253 . S
H213 C209 0.931 . S
H214 C210 0.930 . S
O215 Co204 2.039 1_556 S
O215 C205 1.265 . S
C216 O212 1.253 . S
C216 O217 1.227 . S
O217 C216 1.227 . S
N218 Co204 2.140 . S
N218 C221 1.346 . S
N218 C222 1.345 . S
C219 C220 1.387 1_554 S
C219 C223 1.391 . S
C220 C219 1.387 1_556 S
C220 C221 1.369 1_556 S
C220 H229 0.929 1_565 S
C221 N218 1.346 . S
C221 C220 1.369 1_554 S
C221 H224 0.924 1_564 S
C222 N218 1.345 . S
C222 C223 1.371 . S
C222 H225 0.931 . S
C223 C219 1.391 . S
C223 C222 1.371 . S
C223 H230 0.930 . S
H224 C221 0.924 1_546 S
H225 C222 0.931 . S
H226 C202 0.930 1_556 S
H227 C199 0.930 . S
H228 C208 0.930 . S
H229 C220 0.929 1_545 S
H230 C223 0.930 . S
C231 C232 1.351 . S
C231 N234 1.368 . S
C231 H236 0.931 1_655 S
C232 C231 1.351 . S
C232 N233 1.373 . S
C232 H260 0.930 . S
N233 C232 1.373 . S
N233 C235 1.340 . S
N234 C231 1.368 . S
N234 C235 1.321 . S
N234 Co237 2.135 1_655 S
C235 N233 1.340 . S
C235 N234 1.321 . S
C235 H259 0.930 . S
H236 C231 0.931 1_455 S
Co237 N234 2.135 1_455 S
Co237 N240 2.121 . S
Co237 O245 2.055 . S
Co237 O248 2.039 . S
Co237 N251 2.140 . S
C238 O239 1.227 . S
C238 O248 1.265 . S
O239 C238 1.227 . S
N240 Co237 2.121 . S
N240 C242 1.375 . S
N240 C243 1.313 . S
C241 C242 1.338 . S
C241 N244 1.377 . S
C241 H261 0.930 . S
C242 N240 1.375 . S
C242 C241 1.338 . S
C242 H246 0.931 . S
C243 N240 1.313 . S
C243 N244 1.344 . S
C243 H247 0.930 . S
N244 C241 1.377 . S
N244 C243 1.344 . S
O245 Co237 2.055 . S
O245 C249 1.253 . S
H246 C242 0.931 . S
H247 C243 0.930 . S
O248 Co237 2.039 . S
O248 C238 1.265 . S
C249 O245 1.253 . S
C249 O250 1.227 . S
O250 C249 1.227 . S
N251 Co237 2.140 . S
N251 C254 1.346 . S
N251 C255 1.345 . S
C252 C253 1.387 . S
C252 C256 1.391 . S
C253 C252 1.387 . S
C253 C254 1.369 . S
C253 H262 0.929 . S
C254 N251 1.346 . S
C254 C253 1.369 . S
C254 H257 0.928 . S
C255 N251 1.345 . S
C255 C256 1.371 . S
C255 H258 0.931 . S
C256 C252 1.391 . S
C256 C255 1.371 . S
C256 H263 0.930 . S
H257 C254 0.928 . S
H258 C255 0.931 . S
H259 C235 0.930 . S
H260 C232 0.930 . S
H261 C241 0.930 . S
H262 C253 0.929 . S
H263 C256 0.930 . S
C264 C265 1.387 . S
C264 H268 0.950 1_554 S
C264 C273 1.390 . S
C265 C264 1.387 . S
C265 C267 1.387 . S
H266 C273 0.950 . S
C267 C265 1.387 . S
C267 C269 1.390 . S
C267 H271 0.950 . S
H268 C264 0.950 1_556 S
C269 C267 1.390 . S
C269 C270 1.387 . S
C269 H272 0.950 . S
C270 C269 1.387 . S
C270 C273 1.387 . S
H271 C267 0.950 . S
H272 C269 0.950 . S
C273 C264 1.390 . S
C273 H266 0.950 . S
C273 C270 1.387 . S
C274 C275 1.387 . S
C274 H278 0.950 . S
C274 C283 1.390 . S
C275 C274 1.387 . S
C275 C277 1.387 . S
H276 C283 0.950 . S
C277 C275 1.387 . S
C277 C279 1.390 . S
C277 H281 0.950 . S
H278 C274 0.950 . S
C279 C277 1.390 . S
C279 C280 1.387 . S
C279 H282 0.950 . S
C280 C279 1.387 . S
C280 C283 1.387 . S
H281 C277 0.950 . S
H282 C279 0.950 . S
C283 C274 1.390 . S
C283 H276 0.950 . S
C283 C280 1.387 . S
C284 C285 1.387 1_554 S
C284 H288 0.950 . S
C284 C293 1.390 . S
C285 C284 1.387 1_556 S
C285 C287 1.387 . S
H286 C293 0.950 . S
C287 C285 1.387 . S
C287 C289 1.390 . S
C287 H291 0.950 . S
H288 C284 0.950 . S
C289 C287 1.390 . S
C289 C290 1.387 1_556 S
C289 H292 0.950 . S
C290 C289 1.387 1_554 S
C290 C293 1.387 . S
H291 C287 0.950 . S
H292 C289 0.950 . S
C293 C284 1.390 . S
C293 H286 0.950 . S
C293 C290 1.387 . S
C294 C295 1.387 . S
C294 H298 0.950 . S
C294 C303 1.390 . S
C295 C294 1.387 . S
C295 C297 1.387 . S
H296 C303 0.950 . S
C297 C295 1.387 . S
C297 C299 1.390 . S
C297 H301 0.950 . S
H298 C294 0.950 . S
C299 C297 1.390 . S
C299 C300 1.387 . S
C299 H302 0.950 . S
C300 C299 1.387 . S
C300 C303 1.387 . S
H301 C297 0.950 . S
H302 C299 0.950 . S
C303 C294 1.390 . S
C303 H296 0.950 . S
C303 C300 1.387 . S
C304 C305 1.387 . S
C304 H308 0.950 . S
C304 C313 1.390 . S
C305 C304 1.387 . S
C305 C307 1.387 1_554 S
H306 C313 0.950 . S
C307 C305 1.387 1_556 S
C307 C309 1.390 . S
C307 H311 0.950 . S
H308 C304 0.950 . S
C309 C307 1.390 . S
C309 C310 1.387 . S
C309 H312 0.950 . S
C310 C309 1.387 . S
C310 C313 1.387 1_556 S
H311 C307 0.950 . S
H312 C309 0.950 . S
C313 C304 1.390 . S
C313 H306 0.950 . S
C313 C310 1.387 1_554 S
C314 C315 1.387 . S
C314 H318 0.950 . S
C314 C323 1.390 . S
C315 C314 1.387 . S
C315 C317 1.387 . S
H316 C323 0.950 . S
C317 C315 1.387 . S
C317 C319 1.390 . S
C317 H321 0.950 . S
H318 C314 0.950 . S
C319 C317 1.390 . S
C319 C320 1.387 . S
C319 H322 0.950 . S
C320 C319 1.387 . S
C320 C323 1.387 . S
H321 C317 0.950 . S
H322 C319 0.950 . S
C323 C314 1.390 . S
C323 H316 0.950 . S
C323 C320 1.387 . S
C324 C325 1.387 . S
C324 H328 0.950 . S
C324 C333 1.390 . S
C325 C324 1.387 . S
C325 C327 1.387 . S
H326 C333 0.950 . S
C327 C325 1.387 . S
C327 C329 1.390 . S
C327 H331 0.950 . S
H328 C324 0.950 . S
C329 C327 1.390 . S
C329 C330 1.387 . S
C329 H332 0.950 . S
C330 C329 1.387 . S
C330 C333 1.387 . S
H331 C327 0.950 . S
H332 C329 0.950 . S
C333 C324 1.390 . S
C333 H326 0.950 . S
C333 C330 1.387 . S
C334 C335 1.387 . S
C334 H338 0.950 . S
C334 C343 1.390 . S
C335 C334 1.387 . S
C335 C337 1.387 . S
H336 C343 0.950 . S
C337 C335 1.387 . S
C337 C339 1.390 . S
C337 H341 0.950 . S
H338 C334 0.950 . S
C339 C337 1.390 . S
C339 C340 1.387 . S
C339 H342 0.950 . S
C340 C339 1.387 . S
C340 C343 1.387 . S
H341 C337 0.950 . S
H342 C339 0.950 . S
C343 C334 1.390 . S
C343 H336 0.950 . S
C343 C340 1.387 . S
C344 C345 1.387 1_556 S
C344 H348 0.950 . S
C344 C353 1.390 . S
C345 C344 1.387 1_554 S
C345 C347 1.387 . S
H346 C353 0.950 . S
C347 C345 1.387 . S
C347 C349 1.390 . S
C347 H351 0.950 . S
H348 C344 0.950 . S
C349 C347 1.390 . S
C349 C350 1.387 . S
C349 H352 0.950 . S
C350 C349 1.387 . S
C350 C353 1.387 1_554 S
H351 C347 0.950 . S
H352 C349 0.950 . S
C353 C344 1.390 . S
C353 H346 0.950 . S
C353 C350 1.387 1_556 S
C354 C355 1.387 . S
C354 H358 0.950 . S
C354 C363 1.390 . S
C355 C354 1.387 . S
C355 C357 1.387 . S
H356 C363 0.950 . S
C357 C355 1.387 . S
C357 C359 1.390 . S
C357 H361 0.950 . S
H358 C354 0.950 . S
C359 C357 1.390 . S
C359 C360 1.387 . S
C359 H362 0.950 . S
C360 C359 1.387 . S
C360 C363 1.387 . S
H361 C357 0.950 . S
H362 C359 0.950 . S
C363 C354 1.390 . S
C363 H356 0.950 . S
C363 C360 1.387 . S
C364 C365 1.387 1_656 S
C364 H368 0.950 1_655 S
C364 C373 1.390 1_565 S
C365 C364 1.387 1_454 S
C365 C367 1.387 1_465 S
H366 C373 0.950 . S
C367 C365 1.387 1_645 S
C367 C369 1.390 . S
C367 H371 0.950 1_655 S
H368 C364 0.950 1_455 S
C369 C367 1.390 . S
C369 C370 1.387 . S
C369 H372 0.950 . S
C370 C369 1.387 . S
C370 C373 1.387 1_554 S
H371 C367 0.950 1_455 S
H372 C369 0.950 . S
C373 C364 1.390 1_545 S
C373 H366 0.950 . S
C373 C370 1.387 1_556 S
C374 C375 1.387 . S
C374 H378 0.950 . S
C374 C383 1.390 1_565 S
C375 C374 1.387 . S
C375 C377 1.387 1_655 S
H376 C383 0.950 . S
C377 C375 1.387 1_455 S
C377 C379 1.390 . S
C377 H381 0.950 . S
H378 C374 0.950 . S
C379 C377 1.390 . S
C379 C380 1.387 1_565 S
C379 H382 0.950 1_565 S
C380 C379 1.387 1_545 S
C380 C383 1.387 1_455 S
H381 C377 0.950 . S
H382 C379 0.950 1_545 S
C383 C374 1.390 1_545 S
C383 H376 0.950 . S
C383 C380 1.387 1_655 S
C384 C385 1.387 . S
C384 H388 0.950 . S
C384 C393 1.390 . S
C385 C384 1.387 . S
C385 C387 1.387 . S
H386 C393 0.950 . S
C387 C385 1.387 . S
C387 C389 1.390 . S
C387 H391 0.950 . S
H388 C384 0.950 . S
C389 C387 1.390 . S
C389 C390 1.387 . S
C389 H392 0.950 . S
C390 C389 1.387 . S
C390 C393 1.387 . S
H391 C387 0.950 . S
H392 C389 0.950 . S
C393 C384 1.390 . S
C393 H386 0.950 . S
C393 C390 1.387 . S
C394 C395 1.387 . S
C394 H398 0.950 . S
C394 C403 1.390 . S
C395 C394 1.387 . S
C395 C397 1.387 . S
H396 C403 0.950 . S
C397 C395 1.387 . S
C397 C399 1.390 . S
C397 H401 0.950 . S
H398 C394 0.950 . S
C399 C397 1.390 . S
C399 C400 1.387 . S
C399 H402 0.950 . S
C400 C399 1.387 . S
C400 C403 1.387 . S
H401 C397 0.950 . S
H402 C399 0.950 . S
C403 C394 1.390 . S
C403 H396 0.950 . S
C403 C400 1.387 . S
C404 C405 1.387 . S
C404 H408 0.950 . S
C404 C413 1.390 . S
C405 C404 1.387 . S
C405 C407 1.387 . S
H406 C413 0.950 . S
C407 C405 1.387 . S
C407 C409 1.390 . S
C407 H411 0.950 . S
H408 C404 0.950 . S
C409 C407 1.390 . S
C409 C410 1.387 . S
C409 H412 0.950 . S
C410 C409 1.387 . S
C410 C413 1.387 . S
H411 C407 0.950 . S
H412 C409 0.950 . S
C413 C404 1.390 . S
C413 H406 0.950 . S
C413 C410 1.387 . S
C414 C415 1.387 . S
C414 H418 0.950 . S
C414 C423 1.390 . S
C415 C414 1.387 . S
C415 C417 1.387 . S
H416 C423 0.950 . S
C417 C415 1.387 . S
C417 C419 1.390 . S
C417 H421 0.950 . S
H418 C414 0.950 . S
C419 C417 1.390 . S
C419 C420 1.387 . S
C419 H422 0.950 . S
C420 C419 1.387 . S
C420 C423 1.387 . S
H421 C417 0.950 . S
H422 C419 0.950 . S
C423 C414 1.390 . S
C423 H416 0.950 . S
C423 C420 1.387 . S
C424 C425 1.387 . S
C424 H428 0.950 . S
C424 C433 1.390 . S
C425 C424 1.387 . S
C425 C427 1.387 . S
H426 C433 0.950 . S
C427 C425 1.387 . S
C427 C429 1.390 . S
C427 H431 0.950 . S
H428 C424 0.950 . S
C429 C427 1.390 . S
C429 C430 1.387 . S
C429 H432 0.950 . S
C430 C429 1.387 . S
C430 C433 1.387 . S
H431 C427 0.950 . S
H432 C429 0.950 . S
C433 C424 1.390 . S
C433 H426 0.950 . S
C433 C430 1.387 . S
C434 C435 1.387 . S
C434 H438 0.950 . S
C434 C443 1.390 . S
C435 C434 1.387 . S
C435 C437 1.387 . S
H436 C443 0.950 . S
C437 C435 1.387 . S
C437 C439 1.390 . S
C437 H441 0.950 . S
H438 C434 0.950 . S
C439 C437 1.390 . S
C439 C440 1.387 . S
C439 H442 0.950 . S
C440 C439 1.387 . S
C440 C443 1.387 . S
H441 C437 0.950 . S
H442 C439 0.950 . S
C443 C434 1.390 . S
C443 H436 0.950 . S
C443 C440 1.387 . S
C444 C445 1.387 . S
C444 H448 0.950 . S
C444 C453 1.390 . S
C445 C444 1.387 . S
C445 C447 1.387 . S
H446 C453 0.950 . S
C447 C445 1.387 . S
C447 C449 1.390 . S
C447 H451 0.950 . S
H448 C444 0.950 . S
C449 C447 1.390 . S
C449 C450 1.387 . S
C449 H452 0.950 . S
C450 C449 1.387 . S
C450 C453 1.387 . S
H451 C447 0.950 . S
H452 C449 0.950 . S
C453 C444 1.390 . S
C453 H446 0.950 . S
C453 C450 1.387 . S
C454 C455 1.387 . S
C454 H458 0.950 . S
C454 C463 1.390 . S
C455 C454 1.387 . S
C455 C457 1.387 . S
H456 C463 0.950 . S
C457 C455 1.387 . S
C457 C459 1.390 . S
C457 H461 0.950 . S
H458 C454 0.950 . S
C459 C457 1.390 . S
C459 C460 1.387 . S
C459 H462 0.950 . S
C460 C459 1.387 . S
C460 C463 1.387 . S
H461 C457 0.950 . S
H462 C459 0.950 . S
C463 C454 1.390 . S
C463 H456 0.950 . S
C463 C460 1.387 . S
C265 N200 0.874 . S
C270 N13 0.892 . S
C275 N233 0.882 . S
C280 N46 0.878 . S
C285 N134 0.936 . S
C290 N79 0.931 . S
C295 N167 1.013 . S
C300 N112 0.958 . S
C305 N68 0.978 . S
C310 N145 1.000 . S
C315 N101 1.073 . S
C320 N178 1.001 . S
C325 N2 0.965 . S
C330 N211 0.961 . S
C335 N244 0.945 . S
C340 N35 0.925 . S
C345 C87 1.989 . S
C350 C7 1.972 . S
C355 C54 2.123 . S
C360 C106 2.118 . S
C365 C219 2.033 . S
C370 C139 2.022 . S
C375 C172 2.322 . S
C380 C238 2.308 . S
C385 C18 1.796 . S
C390 C249 1.818 . S
C395 C150 1.969 . S
C400 C40 1.976 . S
C405 C183 1.812 . S
C410 C73 1.808 . S
C415 C205 1.917 . S
C420 C117 1.900 . S
C425 C84 1.596 . S
C430 C186 1.558 . S
C435 C120 1.409 . S
C440 C216 1.445 . S
C445 C252 1.202 . S
C450 C21 1.196 . S
C455 C153 1.400 . S
C460 C51 1.415 . S
