# Generated by pormake.
# Topology bcg, (8)-cn, num edge types: 1
# Building blocks:
#     Node 0, Type 0, BuildingBlock: XADDAJ01_clean_sbu_3, # of connection points: 8
#     Node 1, Type 0, BuildingBlock: XADDAJ01_clean_sbu_3, # of connection points: 8
#     Node 2, Type 0, BuildingBlock: XADDAJ01_clean_sbu_3, # of connection points: 8
#     Node 3, Type 0, BuildingBlock: XADDAJ01_clean_sbu_3, # of connection points: 8
#     Edge 4, Type (0, 0), BuildingBlock: FUNLAD_clean_linker_1, # of connection points: 2
#     Edge 5, Type (0, 0), BuildingBlock: FUNLAD_clean_linker_1, # of connection points: 2
#     Edge 6, Type (0, 0), BuildingBlock: FUNLAD_clean_linker_1, # of connection points: 2
#     Edge 7, Type (0, 0), BuildingBlock: FUNLAD_clean_linker_1, # of connection points: 2
#     Edge 8, Type (0, 0), BuildingBlock: FUNLAD_clean_linker_1, # of connection points: 2
#     Edge 9, Type (0, 0), BuildingBlock: FUNLAD_clean_linker_1, # of connection points: 2
#     Edge 10, Type (0, 0), BuildingBlock: FUNLAD_clean_linker_1, # of connection points: 2
#     Edge 11, Type (0, 0), BuildingBlock: FUNLAD_clean_linker_1, # of connection points: 2
#     Edge 12, Type (0, 0), BuildingBlock: FUNLAD_clean_linker_1, # of connection points: 2
#     Edge 13, Type (0, 0), BuildingBlock: FUNLAD_clean_linker_1, # of connection points: 2
#     Edge 14, Type (0, 0), BuildingBlock: FUNLAD_clean_linker_1, # of connection points: 2
#     Edge 15, Type (0, 0), BuildingBlock: FUNLAD_clean_linker_1, # of connection points: 2
#     Edge 16, Type (0, 0), BuildingBlock: FUNLAD_clean_linker_1, # of connection points: 2
#     Edge 17, Type (0, 0), BuildingBlock: FUNLAD_clean_linker_1, # of connection points: 2
#     Edge 18, Type (0, 0), BuildingBlock: FUNLAD_clean_linker_1, # of connection points: 2
#     Edge 19, Type (0, 0), BuildingBlock: FUNLAD_clean_linker_1, # of connection points: 2
# Relax obj value: 0.162
# Max RMSD: 0.229
# Mean RMSD: 0.229
data_MOF--net-bcg--node1-XADDAJ01_clean_sbu_3--edge1-FUNLAD_clean_linker_1
_symmetry_space_group_name_H-M    P1
_symmetry_Int_Tables_number       1
_symmetry_cell_setting            triclinic
loop_
_symmetry_equiv_pos_as_xyz
'x, y, z'
_cell_length_a     22.407389
_cell_length_b     18.958704
_cell_length_c     34.121551
_cell_angle_alpha  80.19118
_cell_angle_beta   89.440488
_cell_angle_gamma 89.70938
loop_
_atom_site_label
_atom_site_type_symbol
_atom_site_fract_x
_atom_site_fract_y
_atom_site_fract_z
_atom_type_partial_charge
C0 C 0.08122 0.31029 0.07031 0.0
C1 C 0.02748 0.30337 0.05022 0.0
C2 C 0.97248 0.30416 0.07071 0.0
C3 C 0.97246 0.31157 0.11089 0.0
C4 C 1.02568 0.31924 0.13067 0.0
C5 C 0.08002 0.31822 0.1103 0.0
O6 O 0.2433 0.20581 0.98489 0.0
Tb7 Tb 0.18948 0.30088 0.9863 0.0
Tb8 Tb 0.36319 0.18145 0.01479 0.0
O9 O 0.13054 0.31511 0.93584 0.0
O10 O 0.28679 0.11 0.01981 0.0
O11 O 0.15492 0.36563 0.02506 0.0
C12 C 0.42059 0.18421 0.95135 0.0
O13 O 0.15614 0.24817 0.04057 0.0
O14 O 0.31584 0.27961 0.02111 0.0
O15 O 0.27003 0.36662 0.97852 0.0
C16 C 0.13991 0.30892 0.05116 0.0
C17 C 0.4183 0.10915 0.09163 0.0
O18 O 0.39163 0.05398 0.08099 0.0
C19 C 0.23721 0.14091 1.00553 0.0
C20 C 0.31955 0.33998 0.99574 0.0
O21 O 0.41647 0.17135 0.06788 0.0
C22 C 0.47407 0.21281 0.92908 0.0
C23 C 0.52092 0.24827 0.86418 0.0
C24 C 0.47146 0.22245 0.88753 0.0
C25 C 0.52672 0.22945 0.94774 0.0
C26 C 0.57678 0.25606 0.92442 0.0
C27 C 0.57261 0.26633 0.88281 0.0
C28 C 0.13081 0.37647 0.91139 0.0
O29 O 0.16408 0.42898 0.91947 0.0
O30 O 0.42775 0.13403 0.98277 0.0
O31 O 0.37881 0.23091 0.95603 0.0
H32 H 0.02887 0.29842 0.01907 0.0
H33 H 0.93043 0.31236 0.1269 0.0
H34 H 0.12166 0.32237 0.12566 0.0
H35 H 0.4306 0.20971 0.87353 0.0
H36 H 0.52793 0.22206 0.97986 0.0
H37 H 0.61098 0.28608 0.86463 0.0
C38 C 0.59816 0.82025 0.06343 0.0
C39 C 0.54896 0.79032 0.04687 0.0
C40 C 0.49439 0.77909 0.06785 0.0
C41 C 0.49071 0.79545 0.10664 0.0
C42 C 0.53942 0.82516 0.12387 0.0
C43 C 0.59277 0.8378 0.10174 0.0
O44 O 0.7037 0.68126 0.98962 0.0
Tb45 Tb 0.71826 0.79444 0.98869 0.0
Tb46 Tb 0.83038 0.69129 0.04215 0.0
O47 O 0.68556 0.82505 0.92817 0.0
O48 O 0.74405 0.63677 0.05064 0.0
O49 O 0.64889 0.86101 1.00192 0.0
C50 C 0.89397 0.6486 0.9899 0.0
O51 O 0.70014 0.79512 0.04923 0.0
O52 O 0.84458 0.8052 0.04014 0.0
O53 O 0.80459 0.84737 0.97895 0.0
C54 C 0.65419 0.83841 0.04041 0.0
C55 C 0.84217 0.64463 0.13259 0.0
O56 O 0.78647 0.62589 0.12901 0.0
C57 C 0.70545 0.63287 0.02214 0.0
C58 C 0.84383 0.85172 0.00684 0.0
O59 O 0.87278 0.67187 0.10049 0.0
C60 C 0.95196 0.66363 0.96881 0.0
C61 C 1.01024 0.66902 0.90759 0.0
C62 C 0.9553 0.66106 0.92788 0.0
C63 C 1.00436 0.67648 0.98908 0.0
C64 C 0.05991 0.68474 0.96906 0.0
C65 C 0.062 0.68125 0.92817 0.0
C66 C 0.63491 0.8011 0.9164 0.0
O67 O 0.60054 0.76035 0.94218 0.0
O68 O 0.89571 0.62044 0.02793 0.0
O69 O 0.85146 0.69694 0.98151 0.0
H70 H 0.55258 0.77782 0.0171 0.0
H71 H 0.44953 0.7867 0.12318 0.0
H72 H 0.63018 0.86221 0.11423 0.0
H73 H 0.91535 0.65111 0.91199 0.0
H74 H 1.00211 0.67905 0.02056 0.0
H75 H 0.10343 0.69022 0.91156 0.0
C76 C 0.09191 0.65906 0.46926 0.0
C77 C 0.03926 0.67207 0.48986 0.0
C78 C 0.98424 0.68161 0.47003 0.0
C79 C 0.9823 0.67581 0.4295 0.0
C80 C 0.0342 0.66304 0.40834 0.0
C81 C 0.08908 0.65608 0.42832 0.0
O82 O 0.20192 0.79267 0.54806 0.0
Tb83 Tb 0.21006 0.67967 0.54523 0.0
Tb84 Tb 0.31806 0.78739 0.48917 0.0
O85 O 0.16551 0.65611 0.60299 0.0
O86 O 0.23127 0.84154 0.48465 0.0
O87 O 0.14734 0.61059 0.52728 0.0
C88 C 0.3825 0.82478 0.54167 0.0
O89 O 0.19026 0.6948 0.4842 0.0
O90 O 0.32774 0.67309 0.49007 0.0
O91 O 0.29691 0.62801 0.55322 0.0
C92 C 0.1496 0.64407 0.49014 0.0
C93 C 0.3805 0.85476 0.40816 0.0
O94 O 0.37562 0.91683 0.42013 0.0
C95 C 0.19733 0.84247 0.51642 0.0
C96 C 0.33404 0.62743 0.5233 0.0
O97 O 0.3602 0.7961 0.43048 0.0
C98 C 0.43978 0.80813 0.56268 0.0
C99 C 0.49557 0.79877 0.62464 0.0
C100 C 0.44156 0.80862 0.60384 0.0
C101 C 0.49272 0.79533 0.5424 0.0
C102 C 0.54707 0.78329 0.56291 0.0
C103 C 0.54791 0.78569 0.60394 0.0
C104 C 0.18034 0.59971 0.62922 0.0
O105 O 0.21967 0.55406 0.61942 0.0
O106 O 0.38476 0.85507 0.50391 0.0
O107 O 0.33996 0.77662 0.54955 0.0
H108 H 0.04103 0.67452 0.52134 0.0
H109 H 0.94019 0.68109 0.41415 0.0
H110 H 0.12941 0.64625 0.41223 0.0
H111 H 0.40093 0.81862 0.61958 0.0
H112 H 0.49173 0.79496 0.51068 0.0
H113 H 0.58936 0.77773 0.61995 0.0
C114 C 0.59834 0.20558 0.42711 0.0
C115 C 0.5493 0.21126 0.45225 0.0
C116 C 0.49109 0.21094 0.43762 0.0
C117 C 0.48217 0.20097 0.39819 0.0
C118 C 0.53117 0.19249 0.37325 0.0
C119 C 0.58912 0.19617 0.38787 0.0
O120 O 0.75007 0.31033 0.51635 0.0
Tb121 Tb 0.70708 0.21154 0.50688 0.0
Tb122 Tb 0.87508 0.356 0.48725 0.0
O123 O 0.64382 0.18291 0.55507 0.0
O124 O 0.78948 0.41192 0.48287 0.0
O125 O 0.68051 0.15276 0.46351 0.0
C126 C 0.92475 0.35324 0.5526 0.0
O127 O 0.67216 0.26983 0.45468 0.0
O128 O 0.82978 0.25823 0.47878 0.0
O129 O 0.79241 0.15482 0.51101 0.0
C130 C 0.65948 0.2108 0.44113 0.0
C131 C 0.95912 0.35479 0.41779 0.0
O132 O 0.94952 0.28593 0.42821 0.0
C133 C 0.7417 0.37499 0.49599 0.0
C134 C 0.83964 0.19295 0.49782 0.0
O135 O 0.93328 0.39916 0.43814 0.0
C136 C 0.98447 0.37179 0.56478 0.0
C137 C 0.04878 0.41158 0.6136 0.0
C138 C 0.99189 0.3937 0.60163 0.0
C139 C 0.03427 0.36718 0.54 0.0
C140 C 0.09141 0.38233 0.5525 0.0
C141 C 0.09831 0.40613 0.58891 0.0
C142 C 0.65215 0.20815 0.58799 0.0
O143 O 0.69959 0.24721 0.59113 0.0
O144 O 0.89191 0.4075 0.5356 0.0
O145 O 0.92213 0.29735 0.53447 0.0
H146 H 0.55654 0.21907 0.48261 0.0
H147 H 0.43714 0.20095 0.38703 0.0
H148 H 0.6273 0.19154 0.36866 0.0
H149 H 0.9535 0.39731 0.62081 0.0
H150 H 0.02887 0.34931 0.51168 0.0
H151 H 0.14247 0.41859 0.59853 0.0
H152 H 0.66886 0.29743 0.92007 0.0
C153 C 0.63544 0.27176 0.94107 0.0
H154 H 0.62217 0.22188 1.00087 0.0
H155 H 0.89245 0.13686 0.02922 0.0
H156 H 0.84374 0.0213 0.03646 0.0
H157 H 0.73733 0.01202 0.02101 0.0
H158 H 0.67796 0.11842 0.99942 0.0
C159 C 0.65231 0.25117 0.97898 0.0
C160 C 0.7162 0.2576 0.98994 0.0
C161 C 0.7506 0.19462 1.00182 0.0
C162 C 0.81255 0.19975 0.00981 0.0
C163 C 0.84542 0.13607 0.02245 0.0
C164 C 0.81816 0.06933 0.02658 0.0
C165 C 0.7581 0.06415 0.018 0.0
C166 C 0.72451 0.1258 0.00569 0.0
H167 H 0.87506 0.31903 0.06728 0.0
C168 C 0.9134 0.30065 0.05187 0.0
H169 H 0.93875 0.24945 1.0037 0.0
H170 H 0.66261 0.38938 0.97212 0.0
H171 H 0.71232 0.50469 0.96198 0.0
H172 H 0.82089 0.51282 0.97057 0.0
H173 H 0.8808 0.40563 0.98948 0.0
C174 C 0.90303 0.27327 0.01883 0.0
C175 C 0.84018 0.26773 1.00561 0.0
C176 C 0.80616 0.33063 0.99273 0.0
C177 C 0.74386 0.32573 0.986 0.0
C178 C 0.71047 0.38977 0.97579 0.0
C179 C 0.73828 0.45634 0.9703 0.0
C180 C 0.79948 0.46095 0.97522 0.0
C181 C 0.83324 0.39904 0.98633 0.0
H182 H 0.10877 0.71989 0.01876 0.0
C183 C 0.11464 0.69941 0.99107 0.0
H184 H 0.17828 0.66307 0.9526 0.0
H185 H 0.3465 0.88308 0.03522 0.0
H186 H 0.28006 0.97736 1.00503 0.0
H187 H 0.18878 0.94957 0.97144 0.0
H188 H 0.16283 0.82726 0.96749 0.0
C189 C 0.17073 0.68866 0.97833 0.0
C190 C 0.22505 0.70633 0.99982 0.0
C191 C 0.23966 0.77859 1.00139 0.0
C192 C 0.2929 0.79483 0.02053 0.0
C193 C 0.30644 0.86744 0.02151 0.0
C194 C 0.26882 0.92229 1.00414 0.0
C195 C 0.21734 0.90658 0.98516 0.0
C196 C 0.20285 0.83585 0.98343 0.0
H197 H 0.44951 0.73185 0.02047 0.0
C198 C 0.44165 0.7526 0.04789 0.0
H199 H 0.37417 0.78246 0.086 0.0
H200 H 0.21114 0.56247 1.0018 0.0
H201 H 0.27798 0.46815 0.03189 0.0
H202 H 0.36985 0.49641 0.06496 0.0
H203 H 0.39592 0.61913 0.06828 0.0
C204 C 0.38464 0.75731 0.06057 0.0
C205 C 0.3321 0.73918 0.03758 0.0
C206 C 0.31802 0.66705 0.03549 0.0
C207 C 0.26463 0.65071 0.01648 0.0
C208 C 0.25127 0.5781 0.01544 0.0
C209 C 0.2892 0.52333 0.03266 0.0
C210 C 0.34099 0.53926 0.05131 0.0
C211 C 0.35543 0.61007 0.05292 0.0
H212 H 0.60388 0.79204 0.50861 0.0
C213 C 0.603 0.77261 0.54049 0.0
H214 H 0.65301 0.71891 0.58926 0.0
H215 H 0.81933 0.63689 0.44297 0.0
H216 H 0.73434 0.56824 0.42742 0.0
H217 H 0.63755 0.57529 0.4618 0.0
H218 H 0.62549 0.65006 0.51214 0.0
C219 C 0.65237 0.74072 0.55777 0.0
C220 C 0.70976 0.73812 0.5356 0.0
C221 C 0.71652 0.6926 0.50693 0.0
C222 C 0.77246 0.6884 0.48728 0.0
C223 C 0.77784 0.6426 0.45865 0.0
C224 C 0.72946 0.60264 0.44954 0.0
C225 C 0.67503 0.60646 0.46893 0.0
C226 C 0.66856 0.65015 0.4976 0.0
H227 H 0.92786 0.67507 0.52449 0.0
C228 C 0.92865 0.69353 0.49252 0.0
H229 H 0.87912 0.74638 0.44335 0.0
H230 H 0.71133 0.83265 0.58792 0.0
H231 H 0.79503 0.90545 0.60132 0.0
H232 H 0.89171 0.89875 0.56687 0.0
H233 H 0.90555 0.81852 0.51932 0.0
C234 C 0.87945 0.72544 0.47496 0.0
C235 C 0.82184 0.72885 0.49676 0.0
C236 C 0.81483 0.77516 0.52502 0.0
C237 C 0.75884 0.77951 0.54458 0.0
C238 C 0.75289 0.82691 0.57233 0.0
C239 C 0.80053 0.86919 0.58022 0.0
C240 C 0.85497 0.86537 0.56087 0.0
C241 C 0.86234 0.81892 0.53365 0.0
H242 H 0.14327 0.38878 0.49646 0.0
C243 C 0.14391 0.36921 0.52831 0.0
H244 H 0.18833 0.30605 0.57608 0.0
H245 H 0.31416 0.20772 0.41523 0.0
H246 H 0.2157 0.16855 0.39985 0.0
H247 H 0.12789 0.19272 0.43968 0.0
H248 H 0.13805 0.25572 0.49504 0.0
C249 C 0.18894 0.32727 0.5444 0.0
C250 C 0.24154 0.31034 0.52061 0.0
C251 C 0.23455 0.27329 0.48809 0.0
C252 C 0.28528 0.25863 0.46538 0.0
C253 C 0.27719 0.22091 0.43332 0.0
C254 C 0.2209 0.19781 0.42421 0.0
C255 C 0.17148 0.21147 0.44659 0.0
C256 C 0.17797 0.24845 0.4782 0.0
H257 H 0.44176 0.19975 0.49493 0.0
C258 C 0.44018 0.22328 0.46359 0.0
H259 H 0.3937 0.2921 0.41892 0.0
H260 H 0.27099 0.37779 0.58279 0.0
H261 H 0.37025 0.40931 0.60101 0.0
H262 H 0.45806 0.38491 0.56132 0.0
H263 H 0.44708 0.32914 0.50316 0.0
C264 C 0.39483 0.26712 0.45003 0.0
C265 C 0.34295 0.27985 0.47553 0.0
C266 C 0.35019 0.31477 0.50886 0.0
C267 C 0.29943 0.32946 0.53158 0.0
C268 C 0.30788 0.36443 0.56469 0.0
C269 C 0.36466 0.38323 0.57543 0.0
C270 C 0.41408 0.36955 0.55306 0.0
C271 C 0.40712 0.33673 0.51986 0.0
H272 H 0.67227 0.52489 0.04841 0.0
C273 C 0.66267 0.57252 0.02678 0.0
H274 H 0.60284 0.62434 0.98397 0.0
H275 H 0.46351 0.37031 0.93593 0.0
H276 H 0.51592 0.41806 0.87479 0.0
H277 H 0.59296 0.51089 0.8736 0.0
H278 H 0.61786 0.55656 0.93339 0.0
C279 C 0.61194 0.57646 1.0055 0.0
C280 C 0.56827 0.51627 0.00764 0.0
C281 C 0.55369 0.49034 0.9722 0.0
C282 C 0.50885 0.43712 0.97273 0.0
C283 C 0.49617 0.41167 0.93704 0.0
C284 C 0.52622 0.4383 0.90175 0.0
C285 C 0.56961 0.49047 0.9011 0.0
C286 C 0.58335 0.51638 0.93573 0.0
H287 H 0.37369 0.43429 0.97127 0.0
C288 C 0.37559 0.38162 0.98974 0.0
H289 H 0.4282 0.30843 0.02838 0.0
H290 H 0.57778 0.56003 0.08015 0.0
H291 H 0.52867 0.50783 0.14155 0.0
H292 H 0.45807 0.40789 0.14353 0.0
H293 H 0.43463 0.36148 0.08374 0.0
C294 C 0.42648 0.36 0.00891 0.0
C295 C 0.47827 0.40972 0.00865 0.0
C296 C 0.49486 0.43285 0.04447 0.0
C297 C 0.53819 0.48796 0.04375 0.0
C298 C 0.54844 0.51536 0.07922 0.0
C299 C 0.5199 0.4864 0.11473 0.0
C300 C 0.48003 0.43031 0.11583 0.0
C301 C 0.46717 0.40397 0.0812 0.0
H302 H 0.67862 0.45283 0.46395 0.0
C303 C 0.68211 0.40741 0.48793 0.0
H304 H 0.63951 0.34841 0.53822 0.0
H305 H 0.48137 0.6174 0.56096 0.0
H306 H 0.55245 0.6139 0.61417 0.0
H307 H 0.63656 0.52843 0.62105 0.0
H308 H 0.65065 0.44682 0.57422 0.0
C309 C 0.63518 0.39024 0.51241 0.0
C310 C 0.58123 0.43736 0.50969 0.0
C311 C 0.57173 0.48207 0.5386 0.0
C312 C 0.5221 0.52987 0.53539 0.0
C313 C 0.51656 0.57779 0.5629 0.0
C314 C 0.55744 0.57685 0.59346 0.0
C315 C 0.60487 0.52885 0.59727 0.0
C316 C 0.6123 0.48211 0.5702 0.0
H317 H 0.38634 0.53558 0.5541 0.0
C318 C 0.38412 0.57584 0.5274 0.0
H319 H 0.42626 0.62047 0.47327 0.0
H320 H 0.58664 0.36074 0.4488 0.0
H321 H 0.51579 0.3642 0.39529 0.0
H322 H 0.42668 0.44177 0.39186 0.0
H323 H 0.40889 0.51766 0.44125 0.0
C324 C 0.42844 0.58056 0.50017 0.0
C325 C 0.48038 0.53047 0.50428 0.0
C326 C 0.48983 0.48574 0.47543 0.0
C327 C 0.5406 0.43981 0.47787 0.0
C328 C 0.54899 0.39642 0.4484 0.0
C329 C 0.50851 0.3978 0.41757 0.0
C330 C 0.45842 0.44159 0.41558 0.0
C331 C 0.44889 0.48507 0.4441 0.0
H332 H 0.17971 0.05578 0.03735 0.0
C333 C 0.17938 0.10383 0.01482 0.0
H334 H 0.12901 0.16577 0.96944 0.0
H335 H 0.98414 0.87926 0.95738 0.0
H336 H 0.04417 0.89313 0.89723 0.0
H337 H 0.1171 0.99123 0.88197 0.0
H338 H 0.13204 0.07439 0.92769 0.0
C339 C 0.1292 0.1209 0.99392 0.0
C340 C 0.0765 0.07161 0.99965 0.0
C341 C 0.065 0.02677 0.97127 0.0
C342 C 1.02056 0.97247 0.97905 0.0
C343 C 1.01473 0.92385 0.95206 0.0
C344 C 0.04934 0.9308 0.9175 0.0
C345 C 0.09051 0.9859 0.90897 0.0
C346 C 0.09854 0.03337 0.93545 0.0
H347 H 0.88482 0.94956 0.97296 0.0
C348 C 0.88949 0.90875 0.9993 0.0
H349 H 0.94231 0.86985 0.04931 0.0
H350 H 0.08201 0.1528 0.05815 0.0
H351 H 1.01914 0.14344 0.11696 0.0
H352 H 0.94026 0.05182 0.12973 0.0
H353 H 0.92386 0.96977 0.08367 0.0
C354 C 0.9376 0.90973 0.02258 0.0
C355 C 0.98454 0.96629 0.01397 0.0
C356 C 0.9945 0.01298 0.04162 0.0
C357 C 0.04034 0.06556 0.03445 0.0
C358 C 0.04839 0.11188 0.06232 0.0
C359 C 1.01246 0.10701 0.09618 0.0
C360 C 0.96807 0.05549 0.10334 0.0
C361 C 0.95917 0.00868 0.07662 0.0
H362 H 0.93709 0.19447 0.48736 0.0
C363 C 0.9003 0.16148 0.50034 0.0
H364 H 0.87318 0.05753 0.52585 0.0
H365 H 0.05965 0.87995 0.44658 0.0
H366 H 0.96604 0.84578 0.42041 0.0
H367 H 0.87249 0.90849 0.43192 0.0
H368 H 0.87182 1.00513 0.46998 0.0
C369 C 0.9102 0.09158 0.51383 0.0
C370 C 0.96791 0.05619 0.50597 0.0
C371 C 0.96775 1.00088 0.48255 0.0
C372 C 1.02193 0.9657 0.47507 0.0
C373 C 1.02003 0.90921 0.45271 0.0
C374 C 0.96656 0.88898 0.43746 0.0
C375 C 0.91392 0.92431 0.44394 0.0
C376 C 0.91421 0.97961 0.4661 0.0
H377 H 0.12942 0.89764 0.54669 0.0
C378 C 0.15153 0.89806 0.51812 0.0
H379 H 0.15014 0.94207 0.457 0.0
H380 H 0.98443 0.15502 0.5551 0.0
H381 H 0.07883 0.19173 0.57904 0.0
H382 H 0.17329 0.13621 0.56207 0.0
H383 H 0.17378 0.0436 0.52086 0.0
C384 C 0.13157 0.94336 0.4864 0.0
C385 C 0.07646 0.98632 0.49047 0.0
C386 C 0.077 0.04283 0.51292 0.0
C387 C 1.02263 0.07678 0.52142 0.0
C388 C 1.02441 0.12965 0.54615 0.0
C389 C 0.07831 0.15065 0.56054 0.0
C390 C 0.13148 0.11917 0.55113 0.0
C391 C 0.13112 0.06597 0.52757 0.0
H392 H 0.56142 0.19813 0.31097 0.0
C393 C 0.52394 0.18354 0.33121 0.0
H394 H 0.43623 0.14084 0.33593 0.0
H395 H 0.38863 0.26115 0.15328 0.0
H396 H 0.3312 0.34521 0.18435 0.0
H397 H 0.33666 0.344 0.25662 0.0
H398 H 0.39863 0.25732 0.29838 0.0
C399 C 0.47458 0.15727 0.31699 0.0
C400 C 0.46967 0.15501 0.27385 0.0
C401 C 0.43302 0.2057 0.2499 0.0
C402 C 0.43106 0.20738 0.20813 0.0
C403 C 0.3931 0.25804 0.18504 0.0
C404 C 0.35959 0.30665 0.20252 0.0
C405 C 0.36255 0.30586 0.24321 0.0
C406 C 0.39844 0.25588 0.26681 0.0
H407 H 0.4319 0.05376 0.15274 0.0
C408 C 0.43973 0.10357 0.13262 0.0
H409 H 0.46858 0.21037 0.12685 0.0
H410 H 0.53989 0.04671 0.31204 0.0
H411 H 0.60302 0.96727 0.28094 0.0
H412 H 0.60588 0.97588 0.20808 0.0
H413 H 0.54492 0.06308 0.16578 0.0
C414 C 0.46189 0.15976 0.14675 0.0
C415 C 0.46629 0.15862 0.19038 0.0
C416 C 0.50347 0.10825 0.21444 0.0
C417 C 0.50401 0.10541 0.25635 0.0
C418 C 0.53954 0.05287 0.27993 0.0
C419 C 0.5757 0.00668 0.2625 0.0
C420 C 0.57704 0.01128 0.22146 0.0
C421 C 0.54145 0.06128 0.19756 0.0
H422 H 0.5654 0.88872 0.17007 0.0
C423 C 0.53431 0.84856 0.16358 0.0
H424 H 0.46199 0.7819 0.18664 0.0
H425 H 0.53306 0.84396 0.36131 0.0
H426 H 0.62112 0.77146 0.35456 0.0
H427 H 0.64697 0.73569 0.29026 0.0
H428 H 0.58503 0.77215 0.23225 0.0
C429 C 0.49286 0.82335 0.19138 0.0
C430 C 0.48363 0.85363 0.22866 0.0
C431 C 0.52007 0.83157 0.26229 0.0
C432 C 0.50455 0.8512 0.29963 0.0
C433 C 0.54203 0.82899 0.3326 0.0
C434 C 0.59286 0.78782 0.32905 0.0
C435 C 0.60746 0.76776 0.29281 0.0
C436 C 0.57156 0.78904 0.25975 0.0
H437 H 0.4088 0.79532 0.3611 0.0
C438 C 0.40788 0.84835 0.36922 0.0
H439 H 0.42841 0.95766 0.35015 0.0
H440 H 0.40692 0.9097 0.1696 0.0
H441 H 0.32233 0.98778 0.17558 0.0
H442 H 0.29807 0.0258 0.23953 0.0
H443 H 0.35701 0.98406 0.29827 0.0
C444 C 0.4303 0.90372 0.34339 0.0
C445 C 0.45257 0.89278 0.30333 0.0
C446 C 0.41919 0.91988 0.26894 0.0
C447 C 0.43396 0.8991 0.23182 0.0
C448 C 0.39778 0.92388 0.19849 0.0
C449 C 0.34918 0.96887 0.20149 0.0
C450 C 0.33557 0.99035 0.23748 0.0
C451 C 0.36979 0.96601 0.27096 0.0
H452 H 0.45643 0.78273 0.68563 0.0
C453 C 0.49628 0.79996 0.66826 0.0
H454 H 0.58407 0.8399 0.6701 0.0
H455 H 0.4901 0.88595 0.84853 0.0
H456 H 0.42299 0.97591 0.81363 0.0
H457 H 0.41391 0.99285 0.74064 0.0
H458 H 0.47081 0.91901 0.70208 0.0
C459 C 0.54427 0.82081 0.6869 0.0
C460 C 0.54831 0.8111 0.73113 0.0
C461 C 0.515 0.85506 0.75317 0.0
C462 C 0.52137 0.84652 0.79524 0.0
C463 C 0.48712 0.89052 0.81656 0.0
C464 C 0.44851 0.94233 0.7969 0.0
C465 C 0.44337 0.95184 0.75578 0.0
C466 C 0.47615 0.90894 0.73401 0.0
H467 H 0.65303 0.84374 0.85312 0.0
C468 C 0.62051 0.81477 0.87355 0.0
H469 H 0.53769 0.7606 0.87862 0.0
H470 H 0.61819 0.71723 0.69813 0.0
H471 H 0.68553 0.62812 0.73305 0.0
H472 H 0.69641 0.61343 0.80586 0.0
H473 H 0.64031 0.68812 0.84417 0.0
C474 C 0.57122 0.78896 0.85884 0.0
C475 C 0.56236 0.7957 0.81505 0.0
C476 C 0.59509 0.75113 0.79309 0.0
C477 C 0.58833 0.75914 0.75112 0.0
C478 C 0.62173 0.71385 0.73001 0.0
C479 C 0.66044 0.66223 0.74969 0.0
C480 C 0.6666 0.65401 0.79067 0.0
C481 C 0.63432 0.69757 0.81228 0.0
H482 H 0.55514 0.28891 0.80383 0.0
C483 C 0.5218 0.25392 0.82036 0.0
H484 H 0.46059 0.17043 0.81668 0.0
H485 H 0.54189 0.33345 0.63288 0.0
H486 H 0.47314 0.42792 0.64399 0.0
H487 H 0.41873 0.42062 0.70789 0.0
H488 H 0.43322 0.31885 0.76116 0.0
C489 C 0.49076 0.21032 0.80092 0.0
C490 C 0.50814 0.20547 0.7594 0.0
C491 C 0.4981 0.2642 0.7285 0.0
C492 C 0.52907 0.26813 0.69174 0.0
C493 C 0.5196 0.32821 0.66153 0.0
C494 C 0.48014 0.38255 0.66748 0.0
C495 C 0.44955 0.37845 0.70346 0.0
C496 C 0.45838 0.32012 0.7338 0.0
H497 H 0.57169 0.15734 0.6184 0.0
C498 C 0.60814 0.19406 0.62057 0.0
H499 H 0.64742 0.26495 0.65418 0.0
H500 H 0.52874 0.07964 0.81034 0.0
H501 H 0.59338 0.98254 0.79798 0.0
H502 H 0.64599 0.98839 0.73374 0.0
H503 H 0.63624 0.09258 0.68202 0.0
C504 C 0.61254 0.22596 0.65254 0.0
C505 C 0.56936 0.21295 0.68604 0.0
C506 C 0.57418 0.1504 0.71526 0.0
C507 C 0.54329 0.14662 0.7521 0.0
C508 C 0.55101 0.08521 0.78172 0.0
C509 C 0.58779 0.02895 0.77498 0.0
C510 C 0.61757 0.03234 0.73884 0.0
C511 C 0.61141 0.09245 0.70934 0.0
H512 H 0.06722 0.68482 0.34573 0.0
C513 C 0.03127 0.66044 0.36491 0.0
H514 H 0.94872 0.60665 0.3679 0.0
H515 H 0.84795 0.75562 0.20434 0.0
H516 H 0.78896 0.8119 0.25027 0.0
H517 H 0.81291 0.79286 0.32169 0.0
H518 H 0.89633 0.71817 0.3474 0.0
C519 C 0.9841 0.63235 0.34869 0.0
C520 C 0.97227 0.64518 0.30497 0.0
C521 C 0.92241 0.68792 0.29037 0.0
C522 C 0.9075 0.69729 0.24932 0.0
C523 C 0.85947 0.74354 0.23545 0.0
C524 C 0.82564 0.77705 0.26144 0.0
C525 C 0.83919 0.76645 0.30162 0.0
C526 C 0.88713 0.72297 0.31602 0.0
H527 H 0.83864 0.61596 0.19776 0.0
C528 C 0.86729 0.63889 0.173 0.0
H529 H 0.95087 0.68655 0.15656 0.0
H530 H 0.0701 0.55915 0.32274 0.0
H531 H 0.13255 0.50865 0.27598 0.0
H532 H 0.10912 0.52905 0.20446 0.0
H533 H 1.02179 0.59777 0.17941 0.0
C534 C 0.92117 0.66426 0.18082 0.0
C535 C 0.94126 0.66204 0.22288 0.0
C536 C 0.99334 0.62314 0.23698 0.0
C537 C 1.00817 0.61346 0.27817 0.0
C538 C 0.05817 0.57055 0.29167 0.0
C539 C 0.09427 0.54101 0.26516 0.0
C540 C 0.08102 0.55242 0.22488 0.0
C541 C 0.03077 0.59209 0.21087 0.0
H542 H 0.99519 0.44002 0.37131 0.0
C543 C 0.99018 0.38249 0.38023 0.0
H544 H 1.00076 0.28066 0.36392 0.0
H545 H 0.96612 0.44939 0.18393 0.0
H546 H 0.87002 0.48881 0.20538 0.0
H547 H 0.84343 0.47301 0.27662 0.0
H548 H 0.91156 0.41552 0.3265 0.0
C549 C 1.00485 0.33827 0.35492 0.0
C550 C 1.0244 0.36385 0.31338 0.0
C551 C 0.98302 0.3975 0.2848 0.0
C552 C 0.99742 0.40503 0.24371 0.0
C553 C 0.95623 0.43971 0.21549 0.0
C554 C 0.90131 0.46366 0.22742 0.0
C555 C 0.88635 0.45458 0.2675 0.0
C556 C 0.92632 0.42161 0.29595 0.0
H557 H 0.98547 0.30191 0.19059 0.0
C558 C 1.02274 0.32703 0.17289 0.0
H559 H 0.09734 0.39561 0.1724 0.0
H560 H 0.11713 0.31017 0.36092 0.0
H561 H 0.21351 0.27107 0.33883 0.0
H562 H 0.23638 0.27909 0.26739 0.0
H563 H 0.16415 0.32846 0.21744 0.0
C564 C 0.06043 0.36828 0.18933 0.0
C565 C 0.05181 0.37664 0.23145 0.0
C566 C 0.09525 0.34952 0.25995 0.0
C567 C 0.0815 0.34332 0.30108 0.0
C568 C 0.12513 0.31489 0.32923 0.0
C569 C 0.18054 0.29249 0.31699 0.0
C570 C 0.19357 0.29737 0.27672 0.0
C571 C 0.15163 0.32557 0.24837 0.0
H572 H 0.07697 0.33518 0.86677 0.0
C573 C 0.10111 0.38175 0.87277 0.0
H574 H 0.1349 0.48372 0.84883 0.0
H575 H 0.15586 0.37666 0.68269 0.0
H576 H 0.25933 0.39122 0.69886 0.0
H577 H 0.2869 0.43009 0.76166 0.0
H578 H 0.21095 0.45126 0.80934 0.0
C579 C 0.10834 0.4385 0.84373 0.0
C580 C 0.09017 0.43453 0.80242 0.0
C581 C 0.13489 0.42874 0.77348 0.0
C582 C 0.11879 0.41153 0.73606 0.0
C583 C 0.16494 0.39552 0.71015 0.0
C584 C 0.22481 0.40258 0.71935 0.0
C585 C 0.24032 0.42419 0.75474 0.0
C586 C 0.19616 0.43634 0.78182 0.0
H587 H 0.08703 0.47888 0.65356 0.0
C588 C 0.05807 0.4336 0.65244 0.0
H589 H 1.0121 0.34608 0.68536 0.0
H590 H 0.99363 0.44789 0.85029 0.0
H591 H 0.88945 0.43771 0.8334 0.0
H592 H 0.86086 0.41722 0.76661 0.0
H593 H 0.93621 0.40537 0.71664 0.0
C594 C 0.03982 0.39261 0.68639 0.0
C595 C 0.05752 0.40797 0.72606 0.0
C596 C 1.01275 0.41678 0.75453 0.0
C597 C 0.02913 0.42912 0.79293 0.0
C598 C 0.98363 0.43667 0.82102 0.0
C599 C 0.92365 0.43156 0.81159 0.0
C600 C 0.90757 0.42015 0.77397 0.0
C601 C 0.95134 0.41328 0.74558 0.0
H602 H 0.1744 0.54513 0.69152 0.0
C603 C 0.15792 0.59046 0.67068 0.0
H604 H 0.10394 0.68319 0.66347 0.0
H605 H 0.9468 0.60245 0.8184 0.0
H606 H 0.87445 0.59522 0.76711 0.0
H607 H 0.90606 0.60148 0.6972 0.0
H608 H 1.01029 0.61651 0.67809 0.0
C609 C 0.12179 0.63816 0.68408 0.0
C610 C 0.10374 0.6306 0.72696 0.0
C611 C 0.04262 0.62206 0.73788 0.0
C612 C 1.02438 0.6185 0.77835 0.0
C613 C 0.96312 0.60831 0.78814 0.0
C614 C 0.92106 0.60319 0.75898 0.0
C615 C 0.93886 0.60655 0.71963 0.0
C616 C 0.99885 0.61548 0.70906 0.0
H617 H 0.99037 0.70608 0.84382 0.0
C618 C 1.0143 0.66614 0.86449 0.0
H619 H 0.07332 0.57898 0.87257 0.0
H620 H 0.22438 0.65326 0.71642 0.0
H621 H 0.29708 0.65761 0.76765 0.0
H622 H 0.26621 0.64722 0.83791 0.0
H623 H 0.1625 0.63304 0.85718 0.0
C624 C 0.05021 0.61824 0.85098 0.0
C625 C 0.06749 0.62315 0.80807 0.0
C626 C 0.12885 0.63048 0.79718 0.0
C627 C 0.14689 0.63513 0.75666 0.0
C628 C 0.20811 0.64622 0.74672 0.0
C629 C 0.2505 0.64968 0.77587 0.0
C630 C 0.23313 0.64393 0.81539 0.0
C631 C 0.17317 0.63529 0.82604 0.0
loop_
_geom_bond_atom_site_label_1
_geom_bond_atom_site_label_2
_geom_bond_distance
_geom_bond_site_symmetry_2
_ccdc_geom_bond_type
C0 C1 1.386 . S
C0 C5 1.384 . S
C0 C16 1.497 . S
C1 C0 1.386 . S
C1 C2 1.393 1_455 S
C1 H32 0.932 1_455 S
C2 C1 1.393 1_655 S
C2 C3 1.387 . S
C3 C2 1.387 . S
C3 C4 1.392 1_655 S
C3 H33 0.930 . S
C4 C3 1.392 1_455 S
C4 C5 1.402 . S
C5 C0 1.384 . S
C5 C4 1.402 . S
C5 H34 0.930 . S
O6 Tb7 2.288 . S
O6 C19 1.256 1_556 S
Tb7 O6 2.288 . S
Tb7 O9 2.303 . S
Tb7 O11 2.430 . S
Tb7 O13 2.459 1_556 S
Tb7 O15 2.301 . S
Tb7 C16 2.808 1_556 S
Tb8 O10 2.301 . S
Tb8 C12 2.808 1_554 S
Tb8 O14 2.288 . S
Tb8 O21 2.303 . S
Tb8 O30 2.430 . S
Tb8 O31 2.459 1_554 S
O9 Tb7 2.303 . S
O9 C28 1.255 . S
O10 Tb8 2.301 . S
O10 C19 1.239 . S
O11 Tb7 2.430 . S
O11 C16 1.248 1_556 S
C12 Tb8 2.808 1_556 S
C12 C22 1.497 . S
C12 O30 1.248 1_556 S
C12 O31 1.260 . S
O13 Tb7 2.459 1_554 S
O13 C16 1.260 . S
O14 Tb8 2.288 . S
O14 C20 1.257 . S
O15 Tb7 2.301 . S
O15 C20 1.237 1_556 S
C16 C0 1.497 . S
C16 Tb7 2.808 1_554 S
C16 O11 1.248 1_554 S
C16 O13 1.260 . S
C17 O18 1.255 . S
C17 O21 1.255 . S
O18 C17 1.255 . S
C19 O6 1.256 1_554 S
C19 O10 1.239 . S
C20 O14 1.257 . S
C20 O15 1.237 1_554 S
O21 Tb8 2.303 . S
O21 C17 1.255 . S
C22 C12 1.497 . S
C22 C24 1.384 . S
C22 C25 1.386 . S
C23 C24 1.402 . S
C23 C27 1.392 . S
C24 C22 1.384 . S
C24 C23 1.402 . S
C24 H35 0.930 . S
C25 C22 1.386 . S
C25 C26 1.393 . S
C25 H36 0.932 . S
C26 C25 1.393 . S
C26 C27 1.387 . S
C27 C23 1.392 . S
C27 C26 1.387 . S
C27 H37 0.930 . S
C28 O9 1.255 . S
C28 O29 1.255 . S
O29 C28 1.255 . S
O30 Tb8 2.430 . S
O30 C12 1.248 1_554 S
O31 Tb8 2.459 1_556 S
O31 C12 1.260 . S
H32 C1 0.932 1_655 S
H33 C3 0.930 . S
H34 C5 0.930 . S
H35 C24 0.930 . S
H36 C25 0.932 . S
H37 C27 0.930 . S
C38 C39 1.386 . S
C38 C43 1.384 . S
C38 C54 1.497 . S
C39 C38 1.386 . S
C39 C40 1.393 . S
C39 H70 0.932 . S
C40 C39 1.393 . S
C40 C41 1.387 . S
C41 C40 1.387 . S
C41 C42 1.392 . S
C41 H71 0.930 . S
C42 C41 1.392 . S
C42 C43 1.402 . S
C43 C38 1.384 . S
C43 C42 1.402 . S
C43 H72 0.930 . S
O44 Tb45 2.288 . S
O44 C57 1.256 1_556 S
Tb45 O44 2.288 . S
Tb45 O47 2.303 . S
Tb45 O49 2.430 . S
Tb45 O51 2.459 1_556 S
Tb45 O53 2.301 . S
Tb45 C54 2.808 1_556 S
Tb46 O48 2.301 . S
Tb46 C50 2.808 1_554 S
Tb46 O52 2.288 . S
Tb46 O59 2.303 . S
Tb46 O68 2.430 . S
Tb46 O69 2.459 1_554 S
O47 Tb45 2.303 . S
O47 C66 1.255 . S
O48 Tb46 2.301 . S
O48 C57 1.239 . S
O49 Tb45 2.430 . S
O49 C54 1.248 1_556 S
C50 Tb46 2.808 1_556 S
C50 C60 1.497 . S
C50 O68 1.248 1_556 S
C50 O69 1.260 . S
O51 Tb45 2.459 1_554 S
O51 C54 1.260 . S
O52 Tb46 2.288 . S
O52 C58 1.257 . S
O53 Tb45 2.301 . S
O53 C58 1.237 1_556 S
C54 C38 1.497 . S
C54 Tb45 2.808 1_554 S
C54 O49 1.248 1_554 S
C54 O51 1.260 . S
C55 O56 1.255 . S
C55 O59 1.255 . S
O56 C55 1.255 . S
C57 O44 1.256 1_554 S
C57 O48 1.239 . S
C58 O52 1.257 . S
C58 O53 1.237 1_554 S
O59 Tb46 2.303 . S
O59 C55 1.255 . S
C60 C50 1.497 . S
C60 C62 1.384 . S
C60 C63 1.386 . S
C61 C62 1.402 . S
C61 C65 1.392 1_655 S
C62 C60 1.384 . S
C62 C61 1.402 . S
C62 H73 0.930 . S
C63 C60 1.386 . S
C63 C64 1.393 1_655 S
C63 H74 0.932 1_655 S
C64 C63 1.393 1_455 S
C64 C65 1.387 . S
C65 C61 1.392 1_455 S
C65 C64 1.387 . S
C65 H75 0.930 . S
C66 O47 1.255 . S
C66 O67 1.255 . S
O67 C66 1.255 . S
O68 Tb46 2.430 . S
O68 C50 1.248 1_554 S
O69 Tb46 2.459 1_556 S
O69 C50 1.260 . S
H70 C39 0.932 . S
H71 C41 0.930 . S
H72 C43 0.930 . S
H73 C62 0.930 . S
H74 C63 0.932 1_455 S
H75 C65 0.930 . S
C76 C77 1.386 . S
C76 C81 1.384 . S
C76 C92 1.497 . S
C77 C76 1.386 . S
C77 C78 1.393 1_455 S
C77 H108 0.932 1_455 S
C78 C77 1.393 1_655 S
C78 C79 1.387 . S
C79 C78 1.387 . S
C79 C80 1.392 1_655 S
C79 H109 0.930 . S
C80 C79 1.392 1_455 S
C80 C81 1.402 . S
C81 C76 1.384 . S
C81 C80 1.402 . S
C81 H110 0.930 . S
O82 Tb83 2.288 . S
O82 C95 1.257 . S
Tb83 O82 2.288 . S
Tb83 O85 2.303 . S
Tb83 O87 2.430 . S
Tb83 O89 2.459 . S
Tb83 O91 2.301 . S
Tb83 C92 2.808 . S
Tb84 O86 2.301 . S
Tb84 C88 2.808 . S
Tb84 O90 2.288 . S
Tb84 O97 2.303 . S
Tb84 O106 2.430 . S
Tb84 O107 2.459 . S
O85 Tb83 2.303 . S
O85 C104 1.255 . S
O86 Tb84 2.301 . S
O86 C95 1.237 . S
O87 Tb83 2.430 . S
O87 C92 1.248 . S
C88 Tb84 2.808 . S
C88 C98 1.497 . S
C88 O106 1.248 . S
C88 O107 1.260 . S
O89 Tb83 2.459 . S
O89 C92 1.260 . S
O90 Tb84 2.288 . S
O90 C96 1.257 . S
O91 Tb83 2.301 . S
O91 C96 1.237 . S
C92 C76 1.497 . S
C92 Tb83 2.808 . S
C92 O87 1.248 . S
C92 O89 1.260 . S
C93 O94 1.255 . S
C93 O97 1.255 . S
O94 C93 1.255 . S
C95 O82 1.257 . S
C95 O86 1.237 . S
C96 O90 1.257 . S
C96 O91 1.237 . S
O97 Tb84 2.303 . S
O97 C93 1.255 . S
C98 C88 1.497 . S
C98 C100 1.384 . S
C98 C101 1.386 . S
C99 C100 1.402 . S
C99 C103 1.392 . S
C100 C98 1.384 . S
C100 C99 1.402 . S
C100 H111 0.930 . S
C101 C98 1.386 . S
C101 C102 1.393 . S
C101 H112 0.932 . S
C102 C101 1.393 . S
C102 C103 1.387 . S
C103 C99 1.392 . S
C103 C102 1.387 . S
C103 H113 0.930 . S
C104 O85 1.255 . S
C104 O105 1.255 . S
O105 C104 1.255 . S
O106 Tb84 2.430 . S
O106 C88 1.248 . S
O107 Tb84 2.459 . S
O107 C88 1.260 . S
H108 C77 0.932 1_655 S
H109 C79 0.930 . S
H110 C81 0.930 . S
H111 C100 0.930 . S
H112 C101 0.932 . S
H113 C103 0.930 . S
C114 C115 1.386 . S
C114 C119 1.384 . S
C114 C130 1.497 . S
C115 C114 1.386 . S
C115 C116 1.393 . S
C115 H146 0.932 . S
C116 C115 1.393 . S
C116 C117 1.387 . S
C117 C116 1.387 . S
C117 C118 1.392 . S
C117 H147 0.930 . S
C118 C117 1.392 . S
C118 C119 1.402 . S
C119 C114 1.384 . S
C119 C118 1.402 . S
C119 H148 0.930 . S
O120 Tb121 2.288 . S
O120 C133 1.257 . S
Tb121 O120 2.288 . S
Tb121 O123 2.303 . S
Tb121 O125 2.430 . S
Tb121 O127 2.459 . S
Tb121 O129 2.301 . S
Tb121 C130 2.808 . S
Tb122 O124 2.301 . S
Tb122 C126 2.808 . S
Tb122 O128 2.288 . S
Tb122 O135 2.303 . S
Tb122 O144 2.430 . S
Tb122 O145 2.459 . S
O123 Tb121 2.303 . S
O123 C142 1.255 . S
O124 Tb122 2.301 . S
O124 C133 1.237 . S
O125 Tb121 2.430 . S
O125 C130 1.248 . S
C126 Tb122 2.808 . S
C126 C136 1.497 . S
C126 O144 1.248 . S
C126 O145 1.260 . S
O127 Tb121 2.459 . S
O127 C130 1.260 . S
O128 Tb122 2.288 . S
O128 C134 1.257 . S
O129 Tb121 2.301 . S
O129 C134 1.237 . S
C130 C114 1.497 . S
C130 Tb121 2.808 . S
C130 O125 1.248 . S
C130 O127 1.260 . S
C131 O132 1.255 . S
C131 O135 1.255 . S
O132 C131 1.255 . S
C133 O120 1.257 . S
C133 O124 1.237 . S
C134 O128 1.257 . S
C134 O129 1.237 . S
O135 Tb122 2.303 . S
O135 C131 1.255 . S
C136 C126 1.497 . S
C136 C138 1.384 . S
C136 C139 1.386 . S
C137 C138 1.402 . S
C137 C141 1.392 1_655 S
C138 C136 1.384 . S
C138 C137 1.402 . S
C138 H149 0.930 . S
C139 C136 1.386 . S
C139 C140 1.393 1_655 S
C139 H150 0.932 1_655 S
C140 C139 1.393 1_455 S
C140 C141 1.387 . S
C141 C137 1.392 1_455 S
C141 C140 1.387 . S
C141 H151 0.930 . S
C142 O123 1.255 . S
C142 O143 1.255 . S
O143 C142 1.255 . S
O144 Tb122 2.430 . S
O144 C126 1.248 . S
O145 Tb122 2.459 . S
O145 C126 1.260 . S
H146 C115 0.932 . S
H147 C117 0.930 . S
H148 C119 0.930 . S
H149 C138 0.930 . S
H150 C139 0.932 1_455 S
H151 C141 0.930 . S
H152 C153 0.951 . S
C153 H152 0.951 . S
C153 C159 1.265 . S
H154 C159 0.950 1_554 S
H155 C163 0.949 . S
H156 C164 0.950 . S
H157 C165 0.951 . S
H158 C166 0.951 . S
C159 C153 1.265 . S
C159 H154 0.950 1_556 S
C159 C160 1.478 . S
C160 C159 1.478 . S
C160 C161 1.397 1_556 S
C160 C177 1.394 . S
C161 C160 1.397 1_554 S
C161 C162 1.438 . S
C161 C166 1.429 . S
C162 C161 1.438 . S
C162 C163 1.428 . S
C162 C175 1.394 . S
C163 H155 0.949 . S
C163 C162 1.428 . S
C163 C164 1.345 . S
C164 H156 0.950 . S
C164 C163 1.345 . S
C164 C165 1.424 . S
C165 H157 0.951 . S
C165 C164 1.424 . S
C165 C166 1.347 . S
C166 H158 0.951 . S
C166 C161 1.429 . S
C166 C165 1.347 . S
H167 C168 0.951 . S
C168 H167 0.951 . S
C168 C174 1.265 . S
H169 C174 0.950 1_556 S
H170 C178 0.949 . S
H171 C179 0.950 . S
H172 C180 0.951 . S
H173 C181 0.951 . S
C174 C168 1.265 . S
C174 H169 0.950 1_554 S
C174 C175 1.478 . S
C175 C162 1.394 . S
C175 C174 1.478 . S
C175 C176 1.397 1_554 S
C176 C175 1.397 1_556 S
C176 C177 1.438 . S
C176 C181 1.429 . S
C177 C160 1.394 . S
C177 C176 1.438 . S
C177 C178 1.428 . S
C178 H170 0.949 . S
C178 C177 1.428 . S
C178 C179 1.345 . S
C179 H171 0.950 . S
C179 C178 1.345 . S
C179 C180 1.424 . S
C180 H172 0.951 . S
C180 C179 1.424 . S
C180 C181 1.347 . S
C181 H173 0.951 . S
C181 C176 1.429 . S
C181 C180 1.347 . S
H182 C183 0.951 . S
C183 H182 0.951 . S
C183 C189 1.265 . S
H184 C189 0.950 . S
H185 C193 0.949 . S
H186 C194 0.950 . S
H187 C195 0.951 . S
H188 C196 0.951 . S
C189 C183 1.265 . S
C189 H184 0.950 . S
C189 C190 1.478 . S
C190 C189 1.478 . S
C190 C191 1.397 . S
C190 C207 1.394 1_556 S
C191 C190 1.397 . S
C191 C192 1.438 . S
C191 C196 1.429 . S
C192 C191 1.438 . S
C192 C193 1.428 . S
C192 C205 1.394 1_556 S
C193 H185 0.949 . S
C193 C192 1.428 . S
C193 C194 1.345 . S
C194 H186 0.950 . S
C194 C193 1.345 . S
C194 C195 1.424 . S
C195 H187 0.951 . S
C195 C194 1.424 . S
C195 C196 1.347 . S
C196 H188 0.951 . S
C196 C191 1.429 . S
C196 C195 1.347 . S
H197 C198 0.951 . S
C198 H197 0.951 . S
C198 C204 1.265 . S
H199 C204 0.950 . S
H200 C208 0.949 . S
H201 C209 0.950 . S
H202 C210 0.951 . S
H203 C211 0.951 . S
C204 C198 1.265 . S
C204 H199 0.950 . S
C204 C205 1.478 . S
C205 C192 1.394 1_554 S
C205 C204 1.478 . S
C205 C206 1.397 . S
C206 C205 1.397 . S
C206 C207 1.438 . S
C206 C211 1.429 . S
C207 C190 1.394 1_554 S
C207 C206 1.438 . S
C207 C208 1.428 . S
C208 H200 0.949 . S
C208 C207 1.428 . S
C208 C209 1.345 . S
C209 H201 0.950 . S
C209 C208 1.345 . S
C209 C210 1.424 . S
C210 H202 0.951 . S
C210 C209 1.424 . S
C210 C211 1.347 . S
C211 H203 0.951 . S
C211 C206 1.429 . S
C211 C210 1.347 . S
H212 C213 0.951 . S
C213 H212 0.951 . S
C213 C219 1.265 . S
H214 C219 0.950 . S
H215 C223 0.949 . S
H216 C224 0.950 . S
H217 C225 0.951 . S
H218 C226 0.951 . S
C219 C213 1.265 . S
C219 H214 0.950 . S
C219 C220 1.478 . S
C220 C219 1.478 . S
C220 C221 1.397 . S
C220 C237 1.394 . S
C221 C220 1.397 . S
C221 C222 1.438 . S
C221 C226 1.429 . S
C222 C221 1.438 . S
C222 C223 1.428 . S
C222 C235 1.394 . S
C223 H215 0.949 . S
C223 C222 1.428 . S
C223 C224 1.345 . S
C224 H216 0.950 . S
C224 C223 1.345 . S
C224 C225 1.424 . S
C225 H217 0.951 . S
C225 C224 1.424 . S
C225 C226 1.347 . S
C226 H218 0.951 . S
C226 C221 1.429 . S
C226 C225 1.347 . S
H227 C228 0.951 . S
C228 H227 0.951 . S
C228 C234 1.265 . S
H229 C234 0.950 . S
H230 C238 0.949 . S
H231 C239 0.950 . S
H232 C240 0.951 . S
H233 C241 0.951 . S
C234 C228 1.265 . S
C234 H229 0.950 . S
C234 C235 1.478 . S
C235 C222 1.394 . S
C235 C234 1.478 . S
C235 C236 1.397 . S
C236 C235 1.397 . S
C236 C237 1.438 . S
C236 C241 1.429 . S
C237 C220 1.394 . S
C237 C236 1.438 . S
C237 C238 1.428 . S
C238 H230 0.949 . S
C238 C237 1.428 . S
C238 C239 1.345 . S
C239 H231 0.950 . S
C239 C238 1.345 . S
C239 C240 1.424 . S
C240 H232 0.951 . S
C240 C239 1.424 . S
C240 C241 1.347 . S
C241 H233 0.951 . S
C241 C236 1.429 . S
C241 C240 1.347 . S
H242 C243 0.951 . S
C243 H242 0.951 . S
C243 C249 1.265 . S
H244 C249 0.950 . S
H245 C253 0.949 . S
H246 C254 0.950 . S
H247 C255 0.951 . S
H248 C256 0.951 . S
C249 C243 1.265 . S
C249 H244 0.950 . S
C249 C250 1.478 . S
C250 C249 1.478 . S
C250 C251 1.397 . S
C250 C267 1.394 . S
C251 C250 1.397 . S
C251 C252 1.438 . S
C251 C256 1.429 . S
C252 C251 1.438 . S
C252 C253 1.428 . S
C252 C265 1.394 . S
C253 H245 0.949 . S
C253 C252 1.428 . S
C253 C254 1.345 . S
C254 H246 0.950 . S
C254 C253 1.345 . S
C254 C255 1.424 . S
C255 H247 0.951 . S
C255 C254 1.424 . S
C255 C256 1.347 . S
C256 H248 0.951 . S
C256 C251 1.429 . S
C256 C255 1.347 . S
H257 C258 0.951 . S
C258 H257 0.951 . S
C258 C264 1.265 . S
H259 C264 0.950 . S
H260 C268 0.949 . S
H261 C269 0.950 . S
H262 C270 0.951 . S
H263 C271 0.951 . S
C264 C258 1.265 . S
C264 H259 0.950 . S
C264 C265 1.478 . S
C265 C252 1.394 . S
C265 C264 1.478 . S
C265 C266 1.397 . S
C266 C265 1.397 . S
C266 C267 1.438 . S
C266 C271 1.429 . S
C267 C250 1.394 . S
C267 C266 1.438 . S
C267 C268 1.428 . S
C268 H260 0.949 . S
C268 C267 1.428 . S
C268 C269 1.345 . S
C269 H261 0.950 . S
C269 C268 1.345 . S
C269 C270 1.424 . S
C270 H262 0.951 . S
C270 C269 1.424 . S
C270 C271 1.347 . S
C271 H263 0.951 . S
C271 C266 1.429 . S
C271 C270 1.347 . S
H272 C273 0.951 1_554 S
C273 H272 0.951 1_556 S
C273 C279 1.265 . S
H274 C279 0.950 . S
H275 C283 0.949 . S
H276 C284 0.950 . S
H277 C285 0.951 . S
H278 C286 0.951 . S
C279 C273 1.265 . S
C279 H274 0.950 . S
C279 C280 1.478 . S
C280 C279 1.478 . S
C280 C281 1.397 . S
C280 C297 1.394 1_556 S
C281 C280 1.397 . S
C281 C282 1.438 . S
C281 C286 1.429 . S
C282 C281 1.438 . S
C282 C283 1.428 . S
C282 C295 1.394 1_556 S
C283 H275 0.949 . S
C283 C282 1.428 . S
C283 C284 1.345 . S
C284 H276 0.950 . S
C284 C283 1.345 . S
C284 C285 1.424 . S
C285 H277 0.951 . S
C285 C284 1.424 . S
C285 C286 1.347 . S
C286 H278 0.951 . S
C286 C281 1.429 . S
C286 C285 1.347 . S
H287 C288 0.951 1_556 S
C288 H287 0.951 1_554 S
C288 C294 1.265 . S
H289 C294 0.950 . S
H290 C298 0.949 . S
H291 C299 0.950 . S
H292 C300 0.951 . S
H293 C301 0.951 . S
C294 C288 1.265 . S
C294 H289 0.950 . S
C294 C295 1.478 . S
C295 C282 1.394 1_554 S
C295 C294 1.478 . S
C295 C296 1.397 . S
C296 C295 1.397 . S
C296 C297 1.438 . S
C296 C301 1.429 . S
C297 C280 1.394 1_554 S
C297 C296 1.438 . S
C297 C298 1.428 . S
C298 H290 0.949 . S
C298 C297 1.428 . S
C298 C299 1.345 . S
C299 H291 0.950 . S
C299 C298 1.345 . S
C299 C300 1.424 . S
C300 H292 0.951 . S
C300 C299 1.424 . S
C300 C301 1.347 . S
C301 H293 0.951 . S
C301 C296 1.429 . S
C301 C300 1.347 . S
H302 C303 0.951 . S
C303 H302 0.951 . S
C303 C309 1.265 . S
H304 C309 0.950 . S
H305 C313 0.949 . S
H306 C314 0.950 . S
H307 C315 0.951 . S
H308 C316 0.951 . S
C309 C303 1.265 . S
C309 H304 0.950 . S
C309 C310 1.478 . S
C310 C309 1.478 . S
C310 C311 1.397 . S
C310 C327 1.394 . S
C311 C310 1.397 . S
C311 C312 1.438 . S
C311 C316 1.429 . S
C312 C311 1.438 . S
C312 C313 1.428 . S
C312 C325 1.394 . S
C313 H305 0.949 . S
C313 C312 1.428 . S
C313 C314 1.345 . S
C314 H306 0.950 . S
C314 C313 1.345 . S
C314 C315 1.424 . S
C315 H307 0.951 . S
C315 C314 1.424 . S
C315 C316 1.347 . S
C316 H308 0.951 . S
C316 C311 1.429 . S
C316 C315 1.347 . S
H317 C318 0.951 . S
C318 H317 0.951 . S
C318 C324 1.265 . S
H319 C324 0.950 . S
H320 C328 0.949 . S
H321 C329 0.950 . S
H322 C330 0.951 . S
H323 C331 0.951 . S
C324 C318 1.265 . S
C324 H319 0.950 . S
C324 C325 1.478 . S
C325 C312 1.394 . S
C325 C324 1.478 . S
C325 C326 1.397 . S
C326 C325 1.397 . S
C326 C327 1.438 . S
C326 C331 1.429 . S
C327 C310 1.394 . S
C327 C326 1.438 . S
C327 C328 1.428 . S
C328 H320 0.949 . S
C328 C327 1.428 . S
C328 C329 1.345 . S
C329 H321 0.950 . S
C329 C328 1.345 . S
C329 C330 1.424 . S
C330 H322 0.951 . S
C330 C329 1.424 . S
C330 C331 1.347 . S
C331 H323 0.951 . S
C331 C326 1.429 . S
C331 C330 1.347 . S
H332 C333 0.951 1_554 S
C333 H332 0.951 1_556 S
C333 C339 1.265 . S
H334 C339 0.950 . S
H335 C343 0.949 . S
H336 C344 0.950 . S
H337 C345 0.951 . S
H338 C346 0.951 . S
C339 C333 1.265 . S
C339 H334 0.950 . S
C339 C340 1.477 . S
C340 C339 1.477 . S
C340 C341 1.420 . S
C340 C357 1.372 1_556 S
C341 C340 1.420 . S
C341 C342 1.438 1_445 S
C341 C346 1.429 . S
C342 C341 1.438 1_665 S
C342 C343 1.428 . S
C342 C355 1.394 1_556 S
C343 H335 0.949 . S
C343 C342 1.428 . S
C343 C344 1.345 1_565 S
C344 H336 0.950 . S
C344 C343 1.345 1_545 S
C344 C345 1.424 . S
C345 H337 0.951 . S
C345 C344 1.424 . S
C345 C346 1.347 1_655 S
C346 H338 0.951 . S
C346 C341 1.429 . S
C346 C345 1.347 1_455 S
H347 C348 0.951 1_556 S
C348 H347 0.951 1_554 S
C348 C354 1.265 . S
H349 C354 0.950 . S
H350 C358 0.949 . S
H351 C359 0.950 . S
H352 C360 0.951 . S
H353 C361 0.951 . S
C354 C348 1.265 . S
C354 H349 0.950 . S
C354 C355 1.478 . S
C355 C342 1.394 1_554 S
C355 C354 1.478 . S
C355 C356 1.397 . S
C356 C355 1.397 . S
C356 C357 1.438 1_665 S
C356 C361 1.429 . S
C357 C340 1.372 1_554 S
C357 C356 1.438 1_445 S
C357 C358 1.428 . S
C358 H350 0.949 . S
C358 C357 1.428 . S
C358 C359 1.345 1_545 S
C359 H351 0.950 . S
C359 C358 1.345 1_565 S
C359 C360 1.424 . S
C360 H352 0.951 . S
C360 C359 1.424 . S
C360 C361 1.347 1_455 S
C361 H353 0.951 . S
C361 C356 1.429 . S
C361 C360 1.347 1_655 S
H362 C363 0.951 . S
C363 H362 0.951 . S
C363 C369 1.265 . S
H364 C369 0.950 . S
H365 C373 0.949 . S
H366 C374 0.951 . S
H367 C375 0.951 . S
H368 C376 0.951 . S
C369 C363 1.265 . S
C369 H364 0.950 . S
C369 C370 1.478 . S
C370 C369 1.478 . S
C370 C371 1.397 1_545 S
C370 C387 1.394 . S
C371 C370 1.397 1_565 S
C371 C372 1.438 1_655 S
C371 C376 1.429 . S
C372 C371 1.438 1_455 S
C372 C373 1.428 . S
C372 C385 1.394 . S
C373 H365 0.949 . S
C373 C372 1.428 . S
C373 C374 1.348 . S
C374 H366 0.951 . S
C374 C373 1.348 . S
C374 C375 1.419 1_455 S
C375 H367 0.951 . S
C375 C374 1.419 1_655 S
C375 C376 1.347 . S
C376 H368 0.951 . S
C376 C371 1.429 . S
C376 C375 1.347 . S
H377 C378 0.951 . S
C378 H377 0.951 . S
C378 C384 1.265 . S
H379 C384 0.950 . S
H380 C388 0.949 . S
H381 C389 0.951 . S
H382 C390 0.951 . S
H383 C391 0.951 . S
C384 C378 1.265 . S
C384 H379 0.950 . S
C384 C385 1.478 . S
C385 C372 1.394 . S
C385 C384 1.478 . S
C385 C386 1.397 1_565 S
C386 C385 1.397 1_545 S
C386 C387 1.438 1_455 S
C386 C391 1.429 . S
C387 C370 1.394 . S
C387 C386 1.438 1_655 S
C387 C388 1.428 . S
C388 H380 0.949 . S
C388 C387 1.428 . S
C388 C389 1.348 . S
C389 H381 0.951 . S
C389 C388 1.348 . S
C389 C390 1.419 1_655 S
C390 H382 0.951 . S
C390 C389 1.419 1_455 S
C390 C391 1.347 . S
C391 H383 0.951 . S
C391 C386 1.429 . S
C391 C390 1.347 . S
H392 C393 0.951 . S
C393 H392 0.951 . S
C393 C399 1.265 . S
H394 C399 0.950 . S
H395 C403 0.949 . S
H396 C404 0.950 . S
H397 C405 0.951 . S
H398 C406 0.951 . S
C399 C393 1.265 . S
C399 H394 0.950 . S
C399 C400 1.478 . S
C400 C399 1.478 . S
C400 C401 1.397 . S
C400 C417 1.394 . S
C401 C400 1.397 . S
C401 C402 1.438 . S
C401 C406 1.429 . S
C402 C401 1.438 . S
C402 C403 1.428 . S
C402 C415 1.394 . S
C403 H395 0.949 . S
C403 C402 1.428 . S
C403 C404 1.345 . S
C404 H396 0.950 . S
C404 C403 1.345 . S
C404 C405 1.424 . S
C405 H397 0.951 . S
C405 C404 1.424 . S
C405 C406 1.347 . S
C406 H398 0.951 . S
C406 C401 1.429 . S
C406 C405 1.347 . S
H407 C408 0.951 . S
C408 H407 0.951 . S
C408 C414 1.265 . S
H409 C414 0.950 . S
H410 C418 0.949 . S
H411 C419 0.950 1_565 S
H412 C420 0.951 1_565 S
H413 C421 0.951 . S
C414 C408 1.265 . S
C414 H409 0.950 . S
C414 C415 1.478 . S
C415 C402 1.394 . S
C415 C414 1.478 . S
C415 C416 1.397 . S
C416 C415 1.397 . S
C416 C417 1.438 . S
C416 C421 1.429 . S
C417 C400 1.394 . S
C417 C416 1.438 . S
C417 C418 1.428 . S
C418 H410 0.949 . S
C418 C417 1.428 . S
C418 C419 1.345 . S
C419 H411 0.950 1_545 S
C419 C418 1.345 . S
C419 C420 1.424 . S
C420 H412 0.951 1_545 S
C420 C419 1.424 . S
C420 C421 1.347 . S
C421 H413 0.951 . S
C421 C416 1.429 . S
C421 C420 1.347 . S
H422 C423 0.951 . S
C423 H422 0.951 . S
C423 C429 1.265 . S
H424 C429 0.950 . S
H425 C433 0.949 . S
H426 C434 0.949 . S
H427 C435 0.951 1_545 S
H428 C436 0.951 . S
C429 C423 1.265 . S
C429 H424 0.950 . S
C429 C430 1.478 . S
C430 C429 1.478 . S
C430 C431 1.397 . S
C430 C447 1.394 . S
C431 C430 1.397 . S
C431 C432 1.438 . S
C431 C436 1.429 . S
C432 C431 1.438 . S
C432 C433 1.428 . S
C432 C445 1.394 . S
C433 H425 0.949 . S
C433 C432 1.428 . S
C433 C434 1.345 . S
C434 H426 0.949 . S
C434 C433 1.345 . S
C434 C435 1.424 . S
C435 H427 0.951 1_565 S
C435 C434 1.424 . S
C435 C436 1.347 . S
C436 H428 0.951 . S
C436 C431 1.429 . S
C436 C435 1.347 . S
H437 C438 0.951 . S
C438 H437 0.951 . S
C438 C444 1.265 . S
H439 C444 0.950 . S
H440 C448 0.949 . S
H441 C449 0.950 . S
H442 C450 0.951 . S
H443 C451 0.951 . S
C444 C438 1.265 . S
C444 H439 0.950 . S
C444 C445 1.478 . S
C445 C432 1.394 . S
C445 C444 1.478 . S
C445 C446 1.397 . S
C446 C445 1.397 . S
C446 C447 1.438 . S
C446 C451 1.429 . S
C447 C430 1.394 . S
C447 C446 1.438 . S
C447 C448 1.428 . S
C448 H440 0.949 . S
C448 C447 1.428 . S
C448 C449 1.345 . S
C449 H441 0.950 . S
C449 C448 1.345 . S
C449 C450 1.424 . S
C450 H442 0.951 . S
C450 C449 1.424 . S
C450 C451 1.347 . S
C451 H443 0.951 . S
C451 C446 1.429 . S
C451 C450 1.347 . S
H452 C453 0.951 . S
C453 H452 0.951 . S
C453 C459 1.265 . S
H454 C459 0.950 . S
H455 C463 0.949 . S
H456 C464 0.950 . S
H457 C465 0.951 . S
H458 C466 0.951 . S
C459 C453 1.265 . S
C459 H454 0.950 . S
C459 C460 1.478 . S
C460 C459 1.478 . S
C460 C461 1.397 . S
C460 C477 1.394 . S
C461 C460 1.397 . S
C461 C462 1.438 . S
C461 C466 1.429 . S
C462 C461 1.438 . S
C462 C463 1.428 . S
C462 C475 1.394 . S
C463 H455 0.949 . S
C463 C462 1.428 . S
C463 C464 1.345 . S
C464 H456 0.950 . S
C464 C463 1.345 . S
C464 C465 1.424 . S
C465 H457 0.951 . S
C465 C464 1.424 . S
C465 C466 1.347 . S
C466 H458 0.951 . S
C466 C461 1.429 . S
C466 C465 1.347 . S
H467 C468 0.951 . S
C468 H467 0.951 . S
C468 C474 1.265 . S
H469 C474 0.950 . S
H470 C478 0.949 . S
H471 C479 0.950 1_545 S
H472 C480 0.951 1_545 S
H473 C481 0.951 . S
C474 C468 1.265 . S
C474 H469 0.950 . S
C474 C475 1.478 . S
C475 C462 1.394 . S
C475 C474 1.478 . S
C475 C476 1.397 . S
C476 C475 1.397 . S
C476 C477 1.438 . S
C476 C481 1.429 . S
C477 C460 1.394 . S
C477 C476 1.438 . S
C477 C478 1.428 . S
C478 H470 0.949 . S
C478 C477 1.428 . S
C478 C479 1.345 . S
C479 H471 0.950 1_565 S
C479 C478 1.345 . S
C479 C480 1.424 . S
C480 H472 0.951 1_565 S
C480 C479 1.424 . S
C480 C481 1.347 . S
C481 H473 0.951 . S
C481 C476 1.429 . S
C481 C480 1.347 . S
H482 C483 0.951 . S
C483 H482 0.951 . S
C483 C489 1.265 . S
H484 C489 0.950 . S
H485 C493 0.949 . S
H486 C494 0.950 . S
H487 C495 0.951 . S
H488 C496 0.951 . S
C489 C483 1.265 . S
C489 H484 0.950 . S
C489 C490 1.478 . S
C490 C489 1.478 . S
C490 C491 1.397 . S
C490 C507 1.394 . S
C491 C490 1.397 . S
C491 C492 1.438 . S
C491 C496 1.429 . S
C492 C491 1.438 . S
C492 C493 1.428 . S
C492 C505 1.394 . S
C493 H485 0.949 . S
C493 C492 1.428 . S
C493 C494 1.345 . S
C494 H486 0.950 . S
C494 C493 1.345 . S
C494 C495 1.424 . S
C495 H487 0.951 . S
C495 C494 1.424 . S
C495 C496 1.347 . S
C496 H488 0.951 . S
C496 C491 1.429 . S
C496 C495 1.347 . S
H497 C498 0.951 . S
C498 H497 0.951 . S
C498 C504 1.265 . S
H499 C504 0.950 . S
H500 C508 0.949 . S
H501 C509 0.950 1_565 S
H502 C510 0.951 1_565 S
H503 C511 0.951 . S
C504 C498 1.265 . S
C504 H499 0.950 . S
C504 C505 1.478 . S
C505 C492 1.394 . S
C505 C504 1.478 . S
C505 C506 1.397 . S
C506 C505 1.397 . S
C506 C507 1.438 . S
C506 C511 1.429 . S
C507 C490 1.394 . S
C507 C506 1.438 . S
C507 C508 1.428 . S
C508 H500 0.949 . S
C508 C507 1.428 . S
C508 C509 1.345 . S
C509 H501 0.950 1_545 S
C509 C508 1.345 . S
C509 C510 1.424 . S
C510 H502 0.951 1_545 S
C510 C509 1.424 . S
C510 C511 1.347 . S
C511 H503 0.951 . S
C511 C506 1.429 . S
C511 C510 1.347 . S
H512 C513 0.951 . S
C513 H512 0.951 . S
C513 C519 1.265 1_455 S
H514 C519 0.950 . S
H515 C523 0.949 . S
H516 C524 0.950 . S
H517 C525 0.951 . S
H518 C526 0.951 . S
C519 C513 1.265 1_655 S
C519 H514 0.950 . S
C519 C520 1.478 . S
C520 C519 1.478 . S
C520 C521 1.397 . S
C520 C537 1.394 . S
C521 C520 1.397 . S
C521 C522 1.438 . S
C521 C526 1.429 . S
C522 C521 1.438 . S
C522 C523 1.428 . S
C522 C535 1.394 . S
C523 H515 0.949 . S
C523 C522 1.428 . S
C523 C524 1.345 . S
C524 H516 0.950 . S
C524 C523 1.345 . S
C524 C525 1.424 . S
C525 H517 0.951 . S
C525 C524 1.424 . S
C525 C526 1.347 . S
C526 H518 0.951 . S
C526 C521 1.429 . S
C526 C525 1.347 . S
H527 C528 0.951 . S
C528 H527 0.951 . S
C528 C534 1.265 . S
H529 C534 0.950 . S
H530 C538 0.949 . S
H531 C539 0.950 . S
H532 C540 0.951 . S
H533 C541 0.951 . S
C534 C528 1.265 . S
C534 H529 0.950 . S
C534 C535 1.478 . S
C535 C522 1.394 . S
C535 C534 1.478 . S
C535 C536 1.397 . S
C536 C535 1.397 . S
C536 C537 1.438 . S
C536 C541 1.429 . S
C537 C520 1.394 . S
C537 C536 1.438 . S
C537 C538 1.428 1_655 S
C538 H530 0.949 . S
C538 C537 1.428 1_455 S
C538 C539 1.345 . S
C539 H531 0.950 . S
C539 C538 1.345 . S
C539 C540 1.424 1_455 S
C540 H532 0.951 . S
C540 C539 1.424 1_655 S
C540 C541 1.347 . S
C541 H533 0.951 . S
C541 C536 1.429 . S
C541 C540 1.347 . S
H542 C543 0.951 . S
C543 H542 0.951 . S
C543 C549 1.265 . S
H544 C549 0.950 . S
H545 C553 0.938 1_455 S
H546 C554 0.950 . S
H547 C555 0.951 . S
H548 C556 0.951 . S
C549 C543 1.265 . S
C549 H544 0.950 . S
C549 C550 1.478 . S
C550 C549 1.478 . S
C550 C551 1.397 . S
C550 C567 1.394 . S
C551 C550 1.397 . S
C551 C552 1.438 . S
C551 C556 1.429 . S
C552 C551 1.438 . S
C552 C553 1.428 . S
C552 C565 1.394 1_655 S
C553 H545 0.938 1_655 S
C553 C552 1.428 . S
C553 C554 1.345 . S
C554 H546 0.950 . S
C554 C553 1.345 . S
C554 C555 1.424 . S
C555 H547 0.951 . S
C555 C554 1.424 . S
C555 C556 1.347 . S
C556 H548 0.951 . S
C556 C551 1.429 . S
C556 C555 1.347 . S
H557 C558 0.951 1_655 S
C558 H557 0.951 1_455 S
C558 C564 1.265 . S
H559 C564 0.950 . S
H560 C568 0.949 . S
H561 C569 0.950 . S
H562 C570 0.951 . S
H563 C571 0.951 . S
C564 C558 1.265 . S
C564 H559 0.950 . S
C564 C565 1.478 . S
C565 C552 1.394 1_455 S
C565 C564 1.478 . S
C565 C566 1.397 1_455 S
C566 C565 1.397 1_655 S
C566 C567 1.438 . S
C566 C571 1.429 1_655 S
C567 C550 1.394 . S
C567 C566 1.438 . S
C567 C568 1.428 . S
C568 H560 0.949 . S
C568 C567 1.428 . S
C568 C569 1.345 . S
C569 H561 0.950 . S
C569 C568 1.345 . S
C569 C570 1.424 1_655 S
C570 H562 0.951 . S
C570 C569 1.424 1_455 S
C570 C571 1.347 . S
C571 H563 0.951 . S
C571 C566 1.429 1_455 S
C571 C570 1.347 . S
H572 C573 0.951 . S
C573 H572 0.951 . S
C573 C579 1.265 . S
H574 C579 0.950 . S
H575 C583 0.949 . S
H576 C584 0.950 . S
H577 C585 0.951 . S
H578 C586 0.951 . S
C579 C573 1.265 . S
C579 H574 0.950 . S
C579 C580 1.478 . S
C580 C579 1.478 . S
C580 C581 1.397 . S
C580 C597 1.394 . S
C581 C580 1.397 . S
C581 C582 1.438 . S
C581 C586 1.429 . S
C582 C581 1.438 . S
C582 C583 1.428 . S
C582 C595 1.394 1_455 S
C583 H575 0.949 . S
C583 C582 1.428 . S
C583 C584 1.345 . S
C584 H576 0.950 . S
C584 C583 1.345 . S
C584 C585 1.424 . S
C585 H577 0.951 . S
C585 C584 1.424 . S
C585 C586 1.347 . S
C586 H578 0.951 . S
C586 C581 1.429 . S
C586 C585 1.347 . S
H587 C588 0.951 1_455 S
C588 H587 0.951 1_655 S
C588 C594 1.265 . S
H589 C594 0.950 . S
H590 C598 0.949 . S
H591 C599 0.950 . S
H592 C600 0.951 . S
H593 C601 0.951 . S
C594 C588 1.265 . S
C594 H589 0.950 . S
C594 C595 1.478 . S
C595 C582 1.394 1_655 S
C595 C594 1.478 . S
C595 C596 1.397 . S
C596 C595 1.397 . S
C596 C597 1.438 1_655 S
C596 C601 1.429 . S
C597 C580 1.394 . S
C597 C596 1.438 1_455 S
C597 C598 1.428 . S
C598 H590 0.949 . S
C598 C597 1.428 . S
C598 C599 1.345 1_455 S
C599 H591 0.950 . S
C599 C598 1.345 1_655 S
C599 C600 1.424 . S
C600 H592 0.951 . S
C600 C599 1.424 . S
C600 C601 1.347 . S
C601 H593 0.951 . S
C601 C596 1.429 . S
C601 C600 1.347 . S
H602 C603 0.951 . S
C603 H602 0.951 . S
C603 C609 1.265 . S
H604 C609 0.950 . S
H605 C613 0.952 . S
H606 C614 0.950 . S
H607 C615 0.951 . S
H608 C616 0.951 . S
C609 C603 1.265 . S
C609 H604 0.950 . S
C609 C610 1.478 . S
C610 C609 1.478 . S
C610 C611 1.397 . S
C610 C627 1.394 . S
C611 C610 1.397 . S
C611 C612 1.438 . S
C611 C616 1.429 . S
C612 C611 1.438 . S
C612 C613 1.425 1_455 S
C612 C625 1.394 . S
C613 H605 0.952 . S
C613 C612 1.425 1_655 S
C613 C614 1.345 . S
C614 H606 0.950 . S
C614 C613 1.345 . S
C614 C615 1.424 1_655 S
C615 H607 0.951 . S
C615 C614 1.424 1_455 S
C615 C616 1.347 . S
C616 H608 0.951 . S
C616 C611 1.429 . S
C616 C615 1.347 . S
H617 C618 0.951 . S
C618 H617 0.951 . S
C618 C624 1.265 1_655 S
H619 C624 0.950 . S
H620 C628 0.949 . S
H621 C629 0.950 . S
H622 C630 0.951 . S
H623 C631 0.951 . S
C624 C618 1.265 1_455 S
C624 H619 0.950 . S
C624 C625 1.478 . S
C625 C612 1.394 . S
C625 C624 1.478 . S
C625 C626 1.397 . S
C626 C625 1.397 . S
C626 C627 1.438 . S
C626 C631 1.429 . S
C627 C610 1.394 . S
C627 C626 1.438 . S
C627 C628 1.428 . S
C628 H620 0.949 . S
C628 C627 1.428 . S
C628 C629 1.345 . S
C629 H621 0.950 . S
C629 C628 1.345 . S
C629 C630 1.424 . S
C630 H622 0.951 . S
C630 C629 1.424 . S
C630 C631 1.347 . S
C631 H623 0.951 . S
C631 C626 1.429 . S
C631 C630 1.347 . S
C153 C26 1.992 . S
C168 C2 1.992 . S
C183 C64 1.965 . S
C198 C40 1.965 . S
C213 C102 1.987 . S
C228 C78 1.987 . S
C243 C140 1.992 . S
C258 C116 1.992 . S
C273 C57 1.633 1_556 S
C288 C20 1.633 . S
C303 C133 1.633 . S
C318 C96 1.633 . S
C333 C19 1.633 1_556 S
C348 C58 1.634 . S
C363 C134 1.610 . S
C378 C95 1.610 . S
C393 C118 1.245 . S
C408 C17 1.167 . S
C423 C42 1.084 . S
C438 C93 1.238 . S
C453 C99 1.085 . S
C468 C66 1.243 . S
C483 C23 1.084 . S
C498 C142 1.241 . S
C513 C80 1.244 . S
C528 C55 1.172 . S
C543 C131 1.243 . S
C558 C4 1.084 . S
C573 C28 1.245 . S
C588 C137 1.085 . S
C603 C104 1.176 . S
C618 C61 1.243 . S
