# Generated by pormake.
# Topology wjx, (5)-cn, num edge types: 1
# Building blocks:
#     Node 0, Type 0, BuildingBlock: XOMCOT_clean_sbu_0, # of connection points: 5
#     Node 1, Type 0, BuildingBlock: XOMCOT_clean_sbu_0, # of connection points: 5
#     Node 2, Type 0, BuildingBlock: XOMCOT_clean_sbu_0, # of connection points: 5
#     Node 3, Type 0, BuildingBlock: XOMCOT_clean_sbu_0, # of connection points: 5
#     Node 4, Type 0, BuildingBlock: XOMCOT_clean_sbu_0, # of connection points: 5
#     Node 5, Type 0, BuildingBlock: XOMCOT_clean_sbu_0, # of connection points: 5
#     Node 6, Type 0, BuildingBlock: XOMCOT_clean_sbu_0, # of connection points: 5
#     Node 7, Type 0, BuildingBlock: XOMCOT_clean_sbu_0, # of connection points: 5
#     Node 8, Type 0, BuildingBlock: XOMCOT_clean_sbu_0, # of connection points: 5
#     Node 9, Type 0, BuildingBlock: XOMCOT_clean_sbu_0, # of connection points: 5
#     Node 10, Type 0, BuildingBlock: XOMCOT_clean_sbu_0, # of connection points: 5
#     Node 11, Type 0, BuildingBlock: XOMCOT_clean_sbu_0, # of connection points: 5
#     Edge 12, Type (0, 0), BuildingBlock: EZIPEK_clean_linker_0, # of connection points: 2
#     Edge 13, Type (0, 0), BuildingBlock: EZIPEK_clean_linker_0, # of connection points: 2
#     Edge 14, Type (0, 0), BuildingBlock: EZIPEK_clean_linker_0, # of connection points: 2
#     Edge 15, Type (0, 0), BuildingBlock: EZIPEK_clean_linker_0, # of connection points: 2
#     Edge 16, Type (0, 0), BuildingBlock: EZIPEK_clean_linker_0, # of connection points: 2
#     Edge 17, Type (0, 0), BuildingBlock: EZIPEK_clean_linker_0, # of connection points: 2
#     Edge 18, Type (0, 0), BuildingBlock: EZIPEK_clean_linker_0, # of connection points: 2
#     Edge 19, Type (0, 0), BuildingBlock: EZIPEK_clean_linker_0, # of connection points: 2
#     Edge 20, Type (0, 0), BuildingBlock: EZIPEK_clean_linker_0, # of connection points: 2
#     Edge 21, Type (0, 0), BuildingBlock: EZIPEK_clean_linker_0, # of connection points: 2
#     Edge 22, Type (0, 0), BuildingBlock: EZIPEK_clean_linker_0, # of connection points: 2
#     Edge 23, Type (0, 0), BuildingBlock: EZIPEK_clean_linker_0, # of connection points: 2
#     Edge 24, Type (0, 0), BuildingBlock: EZIPEK_clean_linker_0, # of connection points: 2
#     Edge 25, Type (0, 0), BuildingBlock: EZIPEK_clean_linker_0, # of connection points: 2
#     Edge 26, Type (0, 0), BuildingBlock: EZIPEK_clean_linker_0, # of connection points: 2
#     Edge 27, Type (0, 0), BuildingBlock: EZIPEK_clean_linker_0, # of connection points: 2
#     Edge 28, Type (0, 0), BuildingBlock: EZIPEK_clean_linker_0, # of connection points: 2
#     Edge 29, Type (0, 0), BuildingBlock: EZIPEK_clean_linker_0, # of connection points: 2
#     Edge 30, Type (0, 0), BuildingBlock: EZIPEK_clean_linker_0, # of connection points: 2
#     Edge 31, Type (0, 0), BuildingBlock: EZIPEK_clean_linker_0, # of connection points: 2
#     Edge 32, Type (0, 0), BuildingBlock: EZIPEK_clean_linker_0, # of connection points: 2
#     Edge 33, Type (0, 0), BuildingBlock: EZIPEK_clean_linker_0, # of connection points: 2
#     Edge 34, Type (0, 0), BuildingBlock: EZIPEK_clean_linker_0, # of connection points: 2
#     Edge 35, Type (0, 0), BuildingBlock: EZIPEK_clean_linker_0, # of connection points: 2
#     Edge 36, Type (0, 0), BuildingBlock: EZIPEK_clean_linker_0, # of connection points: 2
#     Edge 37, Type (0, 0), BuildingBlock: EZIPEK_clean_linker_0, # of connection points: 2
#     Edge 38, Type (0, 0), BuildingBlock: EZIPEK_clean_linker_0, # of connection points: 2
#     Edge 39, Type (0, 0), BuildingBlock: EZIPEK_clean_linker_0, # of connection points: 2
#     Edge 40, Type (0, 0), BuildingBlock: EZIPEK_clean_linker_0, # of connection points: 2
#     Edge 41, Type (0, 0), BuildingBlock: EZIPEK_clean_linker_0, # of connection points: 2
# Relax obj value: 0.149
# Max RMSD: 0.137
# Mean RMSD: 0.137
data_MOF--net-wjx--node1-XOMCOT_clean_sbu_0--edge1-EZIPEK_clean_linker_0
_symmetry_space_group_name_H-M    P1
_symmetry_Int_Tables_number       1
_symmetry_cell_setting            triclinic
loop_
_symmetry_equiv_pos_as_xyz
'x, y, z'
_cell_length_a     53.759358
_cell_length_b     53.892602
_cell_length_c     13.701449
_cell_angle_alpha  89.79334
_cell_angle_beta   89.734861
_cell_angle_gamma 120.12075
loop_
_atom_site_label
_atom_site_type_symbol
_atom_site_fract_x
_atom_site_fract_y
_atom_site_fract_z
_atom_type_partial_charge
Co0 Co 0.11368 0.42531 0.1019 0.0
C1 C 0.1179 0.43328 0.31866 0.0
C2 C 0.1451 0.41773 0.26519 0.0
C3 C 0.14686 0.41908 0.36548 0.0
N4 N 0.12682 0.42648 0.23546 0.0
N5 N 0.12931 0.42827 0.39916 0.0
H6 H 0.10202 0.44002 0.32087 0.0
H7 H 0.15553 0.40961 0.21808 0.0
C8 C 0.17275 0.44291 1.00987 0.0
O9 O 0.17707 0.46835 0.98559 0.0
N10 N 0.1003 0.42354 0.96633 0.0
C11 C 0.07314 0.41534 0.93771 0.0
C12 C 0.07207 0.41601 0.83732 0.0
C13 C 0.1153 0.42946 0.88102 0.0
N14 N 0.09861 0.42495 0.80216 0.0
C15 C 0.1161 0.47852 0.06507 0.0
C16 C 0.16762 0.51417 0.15648 0.0
C17 C 0.15126 0.52581 0.12033 0.0
C18 C 0.12544 0.50766 0.07324 0.0
C19 C 0.15728 0.48461 0.14759 0.0
N20 N 0.132 0.46718 0.10059 0.0
H21 H 0.09521 0.46484 0.03412 0.0
H22 H 0.16943 0.47573 0.1797 0.0
H23 H 0.05497 0.40916 0.98578 0.0
H24 H 0.13774 0.4365 0.87446 0.0
O25 O 0.07649 0.41707 0.15295 0.0
O26 O 0.08753 0.38386 0.11628 0.0
O27 O 0.14928 0.42444 0.05212 0.0
C28 C 0.0684 0.38996 0.14909 0.0
H29 H 0.15864 0.41204 0.41077 0.0
H30 H 0.05321 0.40993 0.79336 0.0
H31 H 0.1876 0.52759 0.19429 0.0
H32 H 0.11201 0.51582 0.04592 0.0
Co33 Co 0.69611 0.10963 0.47436 0.0
C34 C 0.69594 0.11367 0.69394 0.0
C35 C 0.73654 0.12219 0.63535 0.0
C36 C 0.73802 0.12226 0.73584 0.0
N37 N 0.71018 0.11686 0.60855 0.0
N38 N 0.7125 0.1169 0.77226 0.0
H39 H 0.67369 0.10781 0.70039 0.0
H40 H 0.75325 0.12478 0.58501 0.0
C41 C 0.74744 0.1699 0.46882 0.0
O42 O 0.73715 0.17536 0.54794 0.0
N43 N 0.68245 0.10229 0.3409 0.0
C44 C 0.65504 0.0917 0.31167 0.0
C45 C 0.65444 0.09164 0.21106 0.0
C46 C 0.69812 0.10824 0.25769 0.0
N47 N 0.68151 0.10208 0.17753 0.0
C48 C 0.64851 0.11389 0.54503 0.0
C49 C 0.66048 0.1642 0.45167 0.0
C50 C 0.63417 0.14832 0.5016 0.0
C51 C 0.62859 0.12312 0.54944 0.0
C52 C 0.67973 0.15371 0.44687 0.0
N53 N 0.67391 0.12903 0.49504 0.0
H54 H 0.6425 0.09352 0.57846 0.0
H55 H 0.69844 0.16477 0.40038 0.0
H56 H 0.63678 0.08485 0.36008 0.0
H57 H 0.72113 0.1171 0.25544 0.0
O58 O 0.66672 0.07113 0.51186 0.0
O59 O 0.7102 0.08262 0.46012 0.0
O60 O 0.73208 0.14573 0.42713 0.0
C61 C 0.68503 0.06291 0.49187 0.0
H62 H 0.75612 0.12523 0.77897 0.0
H63 H 0.63566 0.08465 0.16579 0.0
H64 H 0.66539 0.18368 0.41273 0.0
H65 H 0.6084 0.11004 0.5877 0.0
Co66 Co 0.59055 0.6943 0.8267 0.0
C67 C 0.58487 0.69312 0.04566 0.0
C68 C 0.61774 0.73376 0.98975 0.0
C69 C 0.61855 0.73473 0.0903 0.0
N70 N 0.59667 0.70767 0.96134 0.0
N71 N 0.59794 0.70916 0.12493 0.0
H72 H 0.56814 0.67101 0.05074 0.0
H73 H 0.63227 0.75061 0.94046 0.0
C74 C 0.5756 0.74125 0.82757 0.0
O75 O 0.56122 0.72982 0.90888 0.0
N76 N 0.58484 0.68103 0.6931 0.0
C77 C 0.5707 0.65334 0.66525 0.0
C78 C 0.56971 0.65226 0.56494 0.0
C79 C 0.59252 0.69652 0.60931 0.0
N80 N 0.58341 0.67935 0.53012 0.0
C81 C 0.53954 0.64456 0.89515 0.0
C82 C 0.49988 0.65423 0.80085 0.0
C83 C 0.49039 0.62789 0.8484 0.0
C84 C 0.5106 0.6234 0.89693 0.0
C85 C 0.52933 0.67462 0.79838 0.0
N86 N 0.54889 0.67007 0.8472 0.0
H87 H 0.55459 0.63955 0.92865 0.0
H88 H 0.53622 0.69314 0.75251 0.0
H89 H 0.56151 0.63514 0.71456 0.0
H90 H 0.60433 0.71972 0.60608 0.0
O91 O 0.60178 0.66638 0.86158 0.0
O92 O 0.63217 0.71044 0.81093 0.0
O93 O 0.58808 0.7294 0.78388 0.0
C94 C 0.62805 0.68566 0.8407 0.0
H95 H 0.6336 0.75248 0.13467 0.0
H96 H 0.55977 0.63312 0.52065 0.0
H97 H 0.48489 0.65828 0.76112 0.0
H98 H 0.50419 0.60316 0.9333 0.0
Co99 Co 0.8999 0.58964 0.15811 0.0
C100 C 0.89648 0.58632 0.37934 0.0
C101 C 0.88279 0.61411 0.31838 0.0
C102 C 0.88158 0.61529 0.41864 0.0
N103 N 0.89164 0.59557 0.29292 0.0
N104 N 0.89055 0.5981 0.45675 0.0
H105 H 0.90548 0.57253 0.3871 0.0
H106 H 0.87821 0.62658 0.26727 0.0
C107 C 0.83746 0.57465 0.15397 0.0
O108 O 0.83389 0.56218 0.23954 0.0
N109 N 0.90825 0.58461 0.02394 0.0
C110 C 0.924 0.57293 0.99371 0.0
C111 C 0.92433 0.57273 0.89295 0.0
C112 C 0.89916 0.59134 0.9413 0.0
N113 N 0.90865 0.5842 0.8605 0.0
C114 C 0.89658 0.53841 0.23168 0.0
C115 C 0.8486 0.49941 0.12997 0.0
C116 C 0.8635 0.48938 0.18638 0.0
C117 C 0.88767 0.50934 0.23773 0.0
C118 C 0.8589 0.52903 0.1234 0.0
N119 N 0.88196 0.54814 0.17715 0.0
H120 H 0.91634 0.55315 0.26722 0.0
H121 H 0.84912 0.53651 0.07131 0.0
H122 H 0.93436 0.56492 0.04161 0.0
H123 H 0.88596 0.60127 0.93989 0.0
O124 O 0.93859 0.59991 0.19522 0.0
O125 O 0.92639 0.63125 0.14525 0.0
O126 O 0.86226 0.58662 0.11206 0.0
C127 C 0.94657 0.62636 0.17538 0.0
H128 H 0.87575 0.62863 0.46052 0.0
H129 H 0.93508 0.56466 0.8469 0.0
H130 H 0.83016 0.48466 0.0874 0.0
H131 H 0.9002 0.50255 0.28018 0.0
Co132 Co 0.31932 0.89544 0.47754 0.0
C133 C 0.32135 0.89412 0.69501 0.0
C134 C 0.27835 0.86896 0.64072 0.0
C135 C 0.27723 0.86793 0.74121 0.0
N136 N 0.30598 0.88533 0.61163 0.0
N137 N 0.30417 0.88402 0.77501 0.0
H138 H 0.3444 0.90836 0.6973 0.0
H139 H 0.26008 0.85907 0.59251 0.0
C140 C 0.28212 0.83768 0.37878 0.0
O141 O 0.30519 0.84074 0.33402 0.0
N142 N 0.33235 0.90611 0.34134 0.0
C143 C 0.35822 0.92778 0.31055 0.0
C144 C 0.35901 0.92894 0.21018 0.0
C145 C 0.31723 0.89569 0.25774 0.0
N146 N 0.33331 0.90863 0.17746 0.0
C147 C 0.37195 0.89441 0.48083 0.0
C148 C 0.34996 0.83818 0.54051 0.0
C149 C 0.37953 0.85513 0.52104 0.0
C150 C 0.39043 0.88358 0.49216 0.0
C151 C 0.33206 0.85006 0.52836 0.0
N152 N 0.34295 0.8775 0.49395 0.0
H153 H 0.38135 0.91683 0.46457 0.0
H154 H 0.30953 0.83728 0.54733 0.0
H155 H 0.37529 0.94275 0.35697 0.0
H156 H 0.29482 0.87944 0.25447 0.0
O157 O 0.34754 0.9337 0.51921 0.0
O158 O 0.30353 0.92131 0.47279 0.0
O159 O 0.28416 0.85768 0.43477 0.0
C160 C 0.32861 0.94139 0.5032 0.0
H161 H 0.25804 0.85714 0.78625 0.0
H162 H 0.37685 0.94382 0.16461 0.0
H163 H 0.34094 0.81626 0.56592 0.0
H164 H 0.4133 0.89757 0.47999 0.0
Co165 Co 0.42933 0.31766 0.77634 0.0
C166 C 0.43204 0.31865 0.99425 0.0
C167 C 0.41181 0.27581 0.93791 0.0
C168 C 0.41125 0.27429 0.03849 0.0
N169 N 0.4249 0.30358 0.90999 0.0
N170 N 0.42358 0.30117 0.07373 0.0
H171 H 0.44227 0.34179 0.99751 0.0
H172 H 0.40257 0.25778 0.88868 0.0
C173 C 0.44805 0.28009 0.66714 0.0
O174 O 0.46907 0.30308 0.62523 0.0
N175 N 0.43328 0.33151 0.64133 0.0
C176 C 0.44619 0.35897 0.60906 0.0
C177 C 0.44563 0.3593 0.50858 0.0
C178 C 0.42373 0.31557 0.55914 0.0
N179 N 0.43178 0.33204 0.47733 0.0
C180 C 0.4815 0.37053 0.80778 0.0
C181 C 0.51921 0.35002 0.81883 0.0
C182 C 0.53011 0.37976 0.82032 0.0
C183 C 0.51077 0.38979 0.81748 0.0
C184 C 0.48934 0.33127 0.81033 0.0
N185 N 0.47102 0.34172 0.7975 0.0
H186 H 0.46737 0.37924 0.80814 0.0
H187 H 0.48125 0.30854 0.81409 0.0
H188 H 0.4554 0.37779 0.65405 0.0
H189 H 0.41144 0.29239 0.55898 0.0
O190 O 0.41821 0.3451 0.818 0.0
O191 O 0.38753 0.30145 0.76757 0.0
O192 O 0.4315 0.2826 0.72936 0.0
C193 C 0.39182 0.32605 0.79963 0.0
H194 H 0.40165 0.25494 0.08261 0.0
H195 H 0.45507 0.3781 0.46176 0.0
H196 H 0.53356 0.34145 0.82449 0.0
H197 H 0.51831 0.41256 0.82175 0.0
Co198 Co 0.58516 0.89607 0.58552 0.0
C199 C 0.58185 0.89376 0.3677 0.0
C200 C 0.60163 0.87074 0.42488 0.0
C201 C 0.60208 0.86971 0.32431 0.0
N202 N 0.58888 0.88572 0.45231 0.0
N203 N 0.59009 0.88457 0.28848 0.0
H204 H 0.57201 0.90701 0.36398 0.0
H205 H 0.61088 0.86195 0.47436 0.0
C206 C 0.56671 0.84025 0.6979 0.0
O207 O 0.54531 0.84205 0.73699 0.0
N208 N 0.58201 0.90675 0.72017 0.0
C209 C 0.57053 0.92263 0.75164 0.0
C210 C 0.57111 0.92358 0.85212 0.0
C211 C 0.59097 0.89978 0.80292 0.0
N212 N 0.58365 0.90894 0.88423 0.0
C213 C 0.53209 0.89545 0.5614 0.0
C214 C 0.49583 0.83711 0.54259 0.0
C215 C 0.48405 0.85517 0.54613 0.0
C216 C 0.50264 0.88465 0.55307 0.0
C217 C 0.52579 0.84901 0.5507 0.0
N218 N 0.54337 0.87773 0.56729 0.0
H219 H 0.54574 0.91837 0.56195 0.0
H220 H 0.53463 0.83507 0.54371 0.0
H221 H 0.56246 0.93328 0.70611 0.0
H222 H 0.60243 0.88808 0.80393 0.0
O223 O 0.59546 0.93419 0.54035 0.0
O224 O 0.62689 0.92208 0.59074 0.0
O225 O 0.58356 0.85931 0.63577 0.0
C226 C 0.62206 0.94194 0.55709 0.0
H227 H 0.61155 0.85984 0.28059 0.0
H228 H 0.56261 0.93388 0.89833 0.0
H229 H 0.48208 0.81421 0.53337 0.0
H230 H 0.49441 0.89935 0.55185 0.0
Co231 Co 0.69472 0.58582 0.89825 0.0
C232 C 0.69277 0.58169 0.68257 0.0
C233 C 0.73514 0.6116 0.73393 0.0
C234 C 0.73546 0.61249 0.63325 0.0
N235 N 0.70838 0.59241 0.76462 0.0
N236 N 0.70883 0.59376 0.60145 0.0
H237 H 0.66998 0.56625 0.68202 0.0
H238 H 0.75291 0.62473 0.78156 0.0
C239 C 0.73218 0.56637 1.00001 0.0
O240 O 0.70891 0.54579 0.04206 0.0
N241 N 0.68077 0.5796 0.03362 0.0
C242 C 0.65308 0.56688 0.06421 0.0
C243 C 0.65213 0.56668 0.16447 0.0
C244 C 0.6963 0.58821 0.11703 0.0
N245 N 0.67925 0.57995 0.19746 0.0
C246 C 0.64193 0.53365 0.86226 0.0
C247 C 0.66401 0.49757 0.83815 0.0
C248 C 0.63407 0.48587 0.84022 0.0
C249 C 0.62319 0.50441 0.84941 0.0
C250 C 0.68213 0.52731 0.85041 0.0
N251 N 0.67094 0.54466 0.87014 0.0
H252 H 0.6328 0.5474 0.86548 0.0
H253 H 0.70504 0.53627 0.84334 0.0
H254 H 0.63452 0.55896 0.0182 0.0
H255 H 0.7195 0.60019 0.11942 0.0
O256 O 0.66726 0.5977 0.86354 0.0
O257 O 0.71122 0.62719 0.91595 0.0
O258 O 0.72992 0.5829 0.93752 0.0
C259 C 0.68674 0.62367 0.88552 0.0
H260 H 0.75365 0.62615 0.5868 0.0
H261 H 0.63301 0.55788 0.20995 0.0
H262 H 0.6732 0.48394 0.82687 0.0
H263 H 0.60023 0.49628 0.84725 0.0
Co264 Co 0.1146 0.69358 0.2228 0.0
C265 C 0.1148 0.69207 1.00554 0.0
C266 C 0.13215 0.73482 0.06117 0.0
C267 C 0.13256 0.73617 0.96066 0.0
N268 N 0.1211 0.70725 0.08918 0.0
N269 N 0.12173 0.70936 0.92623 0.0
H270 H 0.10503 0.66898 1.00259 0.0
H271 H 0.13905 0.75267 0.11057 0.0
C272 C 0.17291 0.73029 0.31892 0.0
O273 O 0.16875 0.70761 0.36857 0.0
N274 N 0.1078 0.68019 0.35876 0.0
C275 C 0.09395 0.65278 0.39192 0.0
C276 C 0.09314 0.65267 0.4923 0.0
C277 C 0.1143 0.69633 0.44063 0.0
N278 N 0.10606 0.67999 0.52258 0.0
C279 C 0.11201 0.64027 0.18312 0.0
C280 C 0.16996 0.66048 0.15603 0.0
C281 C 0.15083 0.63076 0.15792 0.0
C282 C 0.12152 0.62086 0.16863 0.0
C283 C 0.15933 0.67935 0.17026 0.0
N284 N 0.13086 0.66904 0.19125 0.0
H285 H 0.08917 0.63174 0.18888 0.0
H286 H 0.17399 0.7021 0.16361 0.0
H287 H 0.08408 0.63382 0.34775 0.0
H288 H 0.12497 0.7195 0.44053 0.0
O289 O 0.0748 0.66648 0.19251 0.0
O290 O 0.09002 0.71051 0.24393 0.0
O291 O 0.15383 0.72807 0.25788 0.0
C292 C 0.0686 0.68603 0.21538 0.0
H293 H 0.13992 0.75525 0.91608 0.0
H294 H 0.08368 0.63399 0.53968 0.0
H295 H 0.19274 0.66892 0.14391 0.0
H296 H 0.10601 0.59809 0.16686 0.0
Co297 Co 0.42636 0.11029 0.55562 0.0
C298 C 0.42993 0.11345 0.3354 0.0
C299 C 0.39765 0.12146 0.39453 0.0
C300 C 0.39636 0.122 0.29416 0.0
N301 N 0.41877 0.11624 0.42088 0.0
N302 N 0.41668 0.11702 0.25754 0.0
H303 H 0.44654 0.10796 0.32852 0.0
H304 H 0.38362 0.12401 0.44523 0.0
C305 C 0.44018 0.1719 0.54916 0.0
O306 O 0.45429 0.17459 0.46754 0.0
N307 N 0.43331 0.10422 0.68999 0.0
C308 C 0.4489 0.09235 0.71995 0.0
C309 C 0.4493 0.09218 0.8205 0.0
C310 C 0.4243 0.11104 0.7727 0.0
N311 N 0.43388 0.10392 0.85327 0.0
C312 C 0.47744 0.11284 0.48197 0.0
C313 C 0.5173 0.16342 0.56869 0.0
C314 C 0.52698 0.14712 0.5189 0.0
C315 C 0.50659 0.1217 0.47465 0.0
C316 C 0.48766 0.15325 0.57687 0.0
N317 N 0.46797 0.1286 0.53121 0.0
H318 H 0.46242 0.09237 0.45113 0.0
H319 H 0.48081 0.16464 0.62386 0.0
H320 H 0.45925 0.08432 0.67198 0.0
H321 H 0.41108 0.12094 0.77413 0.0
O322 O 0.41603 0.07111 0.52493 0.0
O323 O 0.38496 0.08379 0.57493 0.0
O324 O 0.42814 0.14778 0.59494 0.0
C325 C 0.38966 0.06342 0.54657 0.0
H326 H 0.38128 0.12513 0.25125 0.0
H327 H 0.45998 0.08402 0.86629 0.0
H328 H 0.53242 0.183 0.60536 0.0
H329 H 0.51312 0.10823 0.43689 0.0
Co330 Co 0.31857 0.42052 0.8658 0.0
C331 C 0.31915 0.42507 0.64629 0.0
C332 C 0.27848 0.39279 0.7043 0.0
C333 C 0.27702 0.39181 0.6038 0.0
N334 N 0.30482 0.41375 0.73143 0.0
N335 N 0.30258 0.41213 0.56783 0.0
H336 H 0.34144 0.44145 0.64019 0.0
H337 H 0.26176 0.37848 0.75445 0.0
C338 C 0.26944 0.43296 0.86933 0.0
O339 O 0.27881 0.44656 0.78557 0.0
N340 N 0.33206 0.42687 0.99958 0.0
C341 C 0.35974 0.44188 0.02804 0.0
C342 C 0.36062 0.44249 0.12858 0.0
C343 C 0.31642 0.41845 0.08327 0.0
N344 N 0.33343 0.42782 0.16289 0.0
C345 C 0.36757 0.47172 0.79556 0.0
C346 C 0.35672 0.51101 0.88612 0.0
C347 C 0.38337 0.52073 0.83989 0.0
C348 C 0.3884 0.5007 0.7929 0.0
C349 C 0.33665 0.48152 0.88951 0.0
N350 N 0.34192 0.46209 0.84338 0.0
H351 H 0.37305 0.45693 0.76292 0.0
H352 H 0.31781 0.47458 0.93388 0.0
H353 H 0.37806 0.45179 0.97908 0.0
H354 H 0.29318 0.40587 0.0861 0.0
O355 O 0.34731 0.41033 0.83072 0.0
O356 O 0.30352 0.37919 0.88238 0.0
O357 O 0.28297 0.42189 0.91068 0.0
C358 C 0.32855 0.38397 0.85188 0.0
H359 H 0.25897 0.3768 0.56036 0.0
H360 H 0.37968 0.45292 0.17329 0.0
H361 H 0.35218 0.5259 0.92417 0.0
H362 H 0.40883 0.50731 0.75713 0.0
Co363 Co 0.90145 0.32071 0.25325 0.0
C364 C 0.89882 0.32145 0.03395 0.0
C365 C 0.88548 0.27958 0.09193 0.0
C366 C 0.88523 0.27815 0.99131 0.0
N367 N 0.8937 0.30666 0.11913 0.0
N368 N 0.89358 0.30447 0.95532 0.0
H369 H 0.9073 0.34425 0.0282 0.0
H370 H 0.88088 0.26221 0.142 0.0
C371 C 0.83959 0.27035 0.26891 0.0
O372 O 0.8325 0.27855 0.18839 0.0
N373 N 0.9092 0.33445 0.38681 0.0
C374 C 0.92148 0.36201 0.41557 0.0
C375 C 0.92194 0.36283 0.51624 0.0
C376 C 0.90233 0.31883 0.47044 0.0
N377 N 0.90984 0.33572 0.55028 0.0
C378 C 0.89895 0.36925 0.18276 0.0
C379 C 0.84703 0.35721 0.26427 0.0
C380 C 0.86375 0.38349 0.21566 0.0
C381 C 0.88986 0.38919 0.17416 0.0
C382 C 0.85746 0.33806 0.27395 0.0
N383 N 0.88293 0.3438 0.23152 0.0
H384 H 0.91972 0.37518 0.15253 0.0
H385 H 0.84536 0.31937 0.31854 0.0
H386 H 0.92943 0.38027 0.36678 0.0
H387 H 0.89183 0.29566 0.47311 0.0
O388 O 0.9403 0.34935 0.21513 0.0
O389 O 0.9279 0.30581 0.26692 0.0
O390 O 0.86509 0.28516 0.30259 0.0
C391 C 0.94802 0.33069 0.23483 0.0
H392 H 0.88005 0.25946 0.94784 0.0
H393 H 0.93024 0.38179 0.56116 0.0
H394 H 0.82677 0.35214 0.29818 0.0
H395 H 0.90357 0.40936 0.13684 0.0
C396 C 0.01832 0.34829 0.11089 0.0
C397 C 0.03841 0.36773 0.17931 0.0
C398 C 0.99891 0.35664 0.29455 0.0
C399 C 0.97876 0.33863 0.2243 0.0
N400 N 0.96936 0.30989 0.08086 0.0
N401 N 0.04839 0.38076 0.34772 0.0
C402 C 0.98854 0.33197 0.13736 0.0
C403 C 0.02881 0.369 0.27477 0.0
N404 N 0.02733 0.34642 0.01931 0.0
N405 N 0.98947 0.36218 0.37993 0.0
H406 H 0.06976 0.38674 0.3358 0.0
H407 H 0.04302 0.38078 0.42083 0.0
H408 H 0.96783 0.35148 0.40018 0.0
H409 H 1.00291 0.37799 0.42867 0.0
H410 H 0.01331 0.33558 0.96237 0.0
H411 H 0.04894 0.35685 0.99882 0.0
H412 H 0.97535 0.30208 0.02122 0.0
H413 H 0.9476 0.29771 0.09923 0.0
C414 C 0.67874 0.02097 0.59226 0.0
C415 C 0.6764 0.03207 0.50098 0.0
C416 C 0.64797 0.98301 0.43978 0.0
C417 C 0.64516 0.97211 0.53617 0.0
N418 N 0.65772 0.98087 0.70629 0.0
N419 N 0.65967 0.02392 0.33528 0.0
C420 C 0.66097 0.99106 0.61291 0.0
C421 C 0.6615 0.01312 0.42359 0.0
N422 N 0.69821 0.03903 0.65852 0.0
N423 N 0.63839 0.96441 0.36349 0.0
H424 H 0.67104 0.0458 0.31918 0.0
H425 H 0.64606 0.01137 0.2797 0.0
H426 H 0.63039 0.94258 0.37408 0.0
H427 H 0.6415 0.97076 0.29049 0.0
H428 H 0.70286 0.03202 0.72318 0.0
H429 H 0.71163 0.06084 0.64394 0.0
H430 H 0.66592 0.99412 0.76687 0.0
H431 H 0.64529 0.95914 0.72384 0.0
C432 C 0.67248 0.6578 0.95841 0.0
C433 C 0.68055 0.64762 0.87588 0.0
C434 C 0.66139 0.6703 0.76747 0.0
C435 C 0.65155 0.67875 0.85002 0.0
N436 N 0.6587 0.69145 0.01919 0.0
N437 N 0.69395 0.65497 0.70656 0.0
C438 C 0.66061 0.67596 0.94423 0.0
C439 C 0.67856 0.65731 0.7816 0.0
N440 N 0.67503 0.64925 0.04986 0.0
N441 N 0.6534 0.67355 0.67607 0.0
H442 H 0.7073 0.64631 0.71665 0.0
H443 H 0.69574 0.66425 0.63812 0.0
H444 H 0.64177 0.68396 0.66327 0.0
H445 H 0.65719 0.66474 0.6141 0.0
H446 H 0.6664 0.65334 0.11187 0.0
H447 H 0.68464 0.63688 0.0627 0.0
H448 H 0.66758 0.69262 0.08763 0.0
H449 H 0.65088 0.7055 1.00893 0.0
C450 C 0.01975 0.66343 0.29437 0.0
C451 C 0.03793 0.67901 0.21495 0.0
C452 C 0.99542 0.66581 0.1133 0.0
C453 C 0.97725 0.64913 0.19179 0.0
N454 N 0.97175 0.63934 0.3642 0.0
N455 N 0.04346 0.70227 0.06036 0.0
C456 C 0.98941 0.65035 0.2847 0.0
C457 C 0.02582 0.68265 0.12818 0.0
N458 N 0.03154 0.66032 0.37821 0.0
N459 N 0.98399 0.66415 0.02315 0.0
H460 H 0.06562 0.71481 0.07065 0.0
H461 H 0.03595 0.708 0.99932 0.0
H462 H 0.96195 0.65247 1.01009 0.0
H463 H 0.99639 0.67299 0.96037 0.0
H464 H 0.01972 0.64605 0.43419 0.0
H465 H 0.05362 0.6715 0.38976 0.0
H466 H 0.97903 0.64142 0.43561 0.0
H467 H 0.94964 0.63072 0.35902 0.0
C468 C 0.35241 0.02039 0.45446 0.0
C469 C 0.36687 0.03245 0.54317 0.0
C470 C 0.34582 0.98396 0.61309 0.0
C471 C 0.3364 0.97194 0.51919 0.0
N472 N 0.33099 0.97886 0.34831 0.0
N473 N 0.37695 0.02589 0.70897 0.0
C474 C 0.33924 0.99015 0.43943 0.0
C475 C 0.36316 0.01424 0.62347 0.0
N476 N 0.35108 0.03789 0.38509 0.0
N477 N 0.33745 0.96627 0.69274 0.0
H478 H 0.38812 0.04794 0.72071 0.0
H479 H 0.37835 0.01387 0.76612 0.0
H480 H 0.32346 0.94431 0.68661 0.0
H481 H 0.34152 0.97349 0.76446 0.0
H482 H 0.33874 0.03033 0.32222 0.0
H483 H 0.36025 0.05993 0.39543 0.0
H484 H 0.33577 0.99135 0.2853 0.0
H485 H 0.32073 0.95689 0.33495 0.0
C486 C 0.33457 0.34736 0.75728 0.0
C487 C 0.33679 0.36138 0.84682 0.0
C488 C 0.36539 0.34139 0.91287 0.0
C489 C 0.36838 0.33279 0.8178 0.0
N490 N 0.35576 0.32765 0.64747 0.0
N491 N 0.35309 0.37079 1.01277 0.0
C492 C 0.35247 0.33522 0.73958 0.0
C493 C 0.35159 0.35781 0.92589 0.0
N494 N 0.31511 0.34543 0.68987 0.0
N495 N 0.37515 0.3331 0.99101 0.0
H496 H 0.34132 0.38097 0.02659 0.0
H497 H 0.36669 0.37238 0.06928 0.0
H498 H 0.38358 0.31957 0.98287 0.0
H499 H 0.3719 0.33669 0.06333 0.0
H500 H 0.3105 0.33331 0.62653 0.0
H501 H 0.30164 0.35384 0.70247 0.0
H502 H 0.34747 0.33214 0.58565 0.0
H503 H 0.36826 0.31833 0.63215 0.0
C504 C 0.11899 0.45236 0.6483 0.0
C505 C 0.10663 0.42606 0.70069 0.0
C506 C 0.10642 0.40093 0.55142 0.0
C507 C 0.12077 0.42754 0.50014 0.0
N508 N 0.14375 0.47894 0.50112 0.0
N509 N 0.09226 0.37617 0.70793 0.0
C510 C 0.12776 0.4534 0.54897 0.0
C511 C 0.1014 0.40058 0.65369 0.0
N512 N 0.12185 0.47615 0.69373 0.0
N513 N 0.09657 0.37588 0.50139 0.0
H514 H 0.0881 0.37528 0.7827 0.0
H515 H 0.091 0.35754 0.68094 0.0
H516 H 0.0995 0.37521 0.42647 0.0
H517 H 0.0833 0.35571 0.53213 0.0
H518 H 0.12815 0.49553 0.65814 0.0
H519 H 0.11614 0.47587 0.76682 0.0
H520 H 0.15192 0.49885 0.5343 0.0
H521 H 0.15056 0.4802 0.42893 0.0
C522 C 0.71409 0.13766 0.93484 0.0
C523 C 0.70422 0.11324 0.87429 0.0
C524 C 0.68227 0.0817 0.01694 0.0
C525 C 0.6904 0.10604 0.0762 0.0
N526 N 0.71088 0.157 0.09163 0.0
N527 N 0.67605 0.06216 0.85375 0.0
C528 C 0.70565 0.13404 0.03523 0.0
C529 C 0.6874 0.08527 0.91434 0.0
N530 N 0.73155 0.16428 0.8957 0.0
N531 N 0.67052 0.05525 0.06 0.0
H532 H 0.6798 0.06416 0.77881 0.0
H533 H 0.66131 0.04134 0.87607 0.0
H534 H 0.66697 0.05223 0.1351 0.0
H535 H 0.66651 0.03675 0.0233 0.0
H536 H 0.74216 0.18288 0.93691 0.0
H537 H 0.7366 0.16755 0.82142 0.0
H538 H 0.71955 0.17783 0.06494 0.0
H539 H 0.70465 0.15487 0.16479 0.0
C540 C 0.60461 0.68064 0.36872 0.0
C541 C 0.58744 0.68758 0.42837 0.0
C542 C 0.57731 0.70913 0.28692 0.0
C543 C 0.59284 0.70033 0.2262 0.0
N544 N 0.61545 0.6719 0.20515 0.0
N545 N 0.55248 0.70272 0.44157 0.0
C546 C 0.60477 0.68432 0.26595 0.0
C547 C 0.57248 0.70041 0.38682 0.0
N548 N 0.62137 0.67123 0.41097 0.0
N549 N 0.56715 0.72571 0.2486 0.0
H550 H 0.54773 0.69533 0.51348 0.0
H551 H 0.53888 0.70946 0.41343 0.0
H552 H 0.56913 0.73107 0.17458 0.0
H553 H 0.55828 0.7354 0.29086 0.0
H554 H 0.63649 0.66837 0.37254 0.0
H555 H 0.622 0.66884 0.48633 0.0
H556 H 0.62228 0.65792 0.2289 0.0
H557 H 0.61452 0.67315 0.12967 0.0
C558 C 0.92045 0.61496 0.71339 0.0
C559 C 0.90339 0.588 0.75963 0.0
C560 C 0.87671 0.56827 0.60727 0.0
C561 C 0.89488 0.59476 0.55924 0.0
N562 N 0.93527 0.64286 0.5629 0.0
N563 N 0.86665 0.53844 0.75256 0.0
C564 C 0.91699 0.61807 0.61163 0.0
C565 C 0.88189 0.56447 0.70686 0.0
N566 N 0.93988 0.63758 0.76772 0.0
N567 N 0.85378 0.54726 0.55816 0.0
H568 H 0.8691 0.53556 0.82651 0.0
H569 H 0.85265 0.51949 0.71703 0.0
H570 H 0.84935 0.54976 0.4859 0.0
H571 H 0.83803 0.52823 0.59006 0.0
H572 H 0.95121 0.65867 0.74263 0.0
H573 H 0.94366 0.63543 0.84098 0.0
H574 H 0.9537 0.65973 0.59303 0.0
H575 H 0.93293 0.64607 0.48937 0.0
C576 C 0.31382 0.91676 0.02552 0.0
C577 C 0.32527 0.90192 0.07656 0.0
C578 C 0.32483 0.87688 0.92632 0.0
C579 C 0.31217 0.89078 0.87612 0.0
N580 N 0.29199 0.92178 0.87747 0.0
N581 N 0.33997 0.86666 0.08144 0.0
C582 C 0.30593 0.91014 0.92577 0.0
C583 C 0.33034 0.88163 0.02836 0.0
N584 N 0.31121 0.93764 0.07264 0.0
N585 N 0.33154 0.85921 0.87564 0.0
H586 H 0.34458 0.87023 0.15568 0.0
H587 H 0.3421 0.84983 0.05421 0.0
H588 H 0.32657 0.85451 0.80206 0.0
H589 H 0.34305 0.85013 0.90435 0.0
H590 H 0.30583 0.95155 0.03836 0.0
H591 H 0.31604 0.94213 0.14641 0.0
H592 H 0.28413 0.93379 0.91089 0.0
H593 H 0.2869 0.91821 0.80369 0.0
C594 C 0.45224 0.32014 0.22449 0.0
C595 C 0.42559 0.30904 0.17566 0.0
C596 C 0.40298 0.3132 0.32695 0.0
C597 C 0.42925 0.32301 0.37671 0.0
N598 N 0.47798 0.33275 0.37862 0.0
N599 N 0.37465 0.29135 0.18192 0.0
C600 C 0.45369 0.3257 0.32679 0.0
C601 C 0.40065 0.30446 0.22756 0.0
N602 N 0.47612 0.32531 0.1724 0.0
N603 N 0.38062 0.31333 0.37425 0.0
H604 H 0.37234 0.28552 0.10872 0.0
H605 H 0.35514 0.28464 0.21758 0.0
H606 H 0.38184 0.31938 0.44711 0.0
H607 H 0.36174 0.30942 0.34023 0.0
H608 H 0.4969 0.33603 0.19999 0.0
H609 H 0.47531 0.32004 0.09885 0.0
H610 H 0.49588 0.33266 0.34997 0.0
H611 H 0.47944 0.33675 0.4534 0.0
C612 C 0.56069 0.88095 0.03496 0.0
C613 C 0.58565 0.90207 0.98514 0.0
C614 C 0.6139 0.91063 0.13457 0.0
C615 C 0.58853 0.89088 0.18638 0.0
N616 N 0.53757 0.85828 0.18914 0.0
N617 N 0.635 0.93946 0.98779 0.0
C618 C 0.56182 0.87641 0.1373 0.0
C619 C 0.61203 0.91749 0.03508 0.0
N620 N 0.53619 0.86464 0.98296 0.0
N621 N 0.63985 0.92252 0.18039 0.0
H622 H 0.63412 0.94458 0.91483 0.0
H623 H 0.65414 0.9538 0.02186 0.0
H624 H 0.64191 0.91886 0.25379 0.0
H625 H 0.65951 0.93466 0.14476 0.0
H626 H 0.51779 0.84708 1.01149 0.0
H627 H 0.53496 0.86748 0.90814 0.0
H628 H 0.51685 0.84912 0.16143 0.0
H629 H 0.53808 0.8534 0.26257 0.0
C630 C 0.68439 0.60125 0.46086 0.0
C631 C 0.69978 0.58866 0.50084 0.0
C632 C 0.69972 0.56836 0.34078 0.0
C633 C 0.68757 0.58393 0.2988 0.0
N634 N 0.67221 0.61857 0.31541 0.0
N635 N 0.72394 0.56174 0.4791 0.0
C636 C 0.681 0.60136 0.35808 0.0
C637 C 0.70816 0.5728 0.44047 0.0
N638 N 0.67227 0.61231 0.5214 0.0
N639 N 0.70149 0.54808 0.28685 0.0
H640 H 0.72865 0.56296 0.55331 0.0
H641 H 0.73352 0.55273 0.43704 0.0
H642 H 0.69377 0.54326 0.21589 0.0
H643 H 0.70784 0.53417 0.3151 0.0
H644 H 0.65874 0.61968 0.49751 0.0
H645 H 0.67322 0.61118 0.59688 0.0
H646 H 0.66968 0.63387 0.35336 0.0
H647 H 0.67002 0.61933 0.24006 0.0
C648 C 0.08939 0.69153 0.67496 0.0
C649 C 0.11089 0.68911 0.623 0.0
C650 C 0.13986 0.70051 0.77184 0.0
C651 C 0.11759 0.70128 0.8248 0.0
N652 N 0.07013 0.69477 0.83225 0.0
N653 N 0.15508 0.6882 0.62103 0.0
C654 C 0.09203 0.69602 0.77764 0.0
C655 C 0.1358 0.69284 0.67128 0.0
N656 N 0.06673 0.68994 0.62509 0.0
N657 N 0.16502 0.70763 0.81802 0.0
H658 H 0.15274 0.68305 0.54709 0.0
H659 H 0.17239 0.68781 0.65307 0.0
H660 H 0.168 0.71241 0.89228 0.0
H661 H 0.18336 0.71031 0.78249 0.0
H662 H 0.05127 0.69379 0.6559 0.0
H663 H 0.06454 0.68664 0.55005 0.0
H664 H 0.04977 0.68857 0.80539 0.0
H665 H 0.0719 0.69817 0.90727 0.0
C666 C 0.4076 0.08612 0.11366 0.0
C667 C 0.42142 0.11379 0.15573 0.0
C668 C 0.4442 0.13499 0.99791 0.0
C669 C 0.42877 0.10756 0.95441 0.0
N670 N 0.3932 0.05761 0.966 0.0
N671 N 0.45058 0.16489 0.13899 0.0
C672 C 0.40975 0.08326 1.01119 0.0
C673 C 0.43903 0.13837 0.09787 0.0
N674 N 0.39287 0.06261 0.17254 0.0
N675 N 0.46469 0.15745 0.94436 0.0
H676 H 0.44798 0.16772 0.2129 0.0
H677 H 0.46128 0.18399 0.0994 0.0
H678 H 0.4691 0.1553 0.87167 0.0
H679 H 0.47865 0.17754 0.97322 0.0
H680 H 0.38444 0.04158 0.149 0.0
H681 H 0.39092 0.06431 0.2475 0.0
H682 H 0.37684 0.03948 1.00059 0.0
H683 H 0.39444 0.05513 0.89113 0.0
C684 C 0.30559 0.43537 0.40849 0.0
C685 C 0.31109 0.4168 0.46616 0.0
C686 C 0.3288 0.40362 0.32115 0.0
C687 C 0.32488 0.42342 0.26451 0.0
N688 N 0.31421 0.46159 0.25552 0.0
N689 N 0.33183 0.38664 0.48262 0.0
C690 C 0.31443 0.44021 0.30854 0.0
C691 C 0.32386 0.40189 0.42379 0.0
N692 N 0.29166 0.4481 0.44964 0.0
N693 N 0.33663 0.38604 0.27578 0.0
H694 H 0.32861 0.38541 0.55785 0.0
H695 H 0.34358 0.37725 0.4587 0.0
H696 H 0.34036 0.38702 0.20081 0.0
H697 H 0.33732 0.36919 0.31048 0.0
H698 H 0.28431 0.45963 0.41002 0.0
H699 H 0.28596 0.44561 0.52345 0.0
H700 H 0.30937 0.47646 0.28495 0.0
H701 H 0.32104 0.46575 0.18287 0.0
C702 C 0.92832 0.32815 0.70593 0.0
C703 C 0.9054 0.32703 0.65181 0.0
C704 C 0.87441 0.31028 0.79803 0.0
C705 C 0.8978 0.31288 0.85339 0.0
N706 N 0.9478 0.32754 0.86521 0.0
N707 N 0.85817 0.32122 0.64689 0.0
C708 C 0.92503 0.32276 0.80857 0.0
C709 C 0.87879 0.31915 0.69808 0.0
N710 N 0.95302 0.33392 0.65812 0.0
N711 N 0.84797 0.29896 0.84134 0.0
H712 H 0.86096 0.32762 0.57379 0.0
H713 H 0.83922 0.31845 0.67782 0.0
H714 H 0.84458 0.29328 0.91514 0.0
H715 H 0.82922 0.29367 0.80356 0.0
H716 H 0.96983 0.33267 0.6905 0.0
H717 H 0.95587 0.33817 0.5833 0.0
H718 H 0.96893 0.33707 0.84004 0.0
H719 H 0.94569 0.32373 0.94016 0.0
C720 C 0.16667 0.57481 0.05222 0.0
C721 C 0.15958 0.55648 0.13498 0.0
C722 C 0.15907 0.59366 0.23652 0.0
C723 C 0.16035 0.60916 0.15104 0.0
N724 N 0.16548 0.61502 0.97652 0.0
N725 N 0.14773 0.5478 0.30667 0.0
C726 C 0.16475 0.60019 0.05859 0.0
C727 C 0.15602 0.56595 0.22794 0.0
N728 N 0.17514 0.56775 0.96764 0.0
N729 N 0.16037 0.60542 0.32588 0.0
H730 H 0.1452 0.52735 0.30399 0.0
H731 H 0.1414 0.55221 0.37326 0.0
H732 H 0.16253 0.62567 0.33374 0.0
H733 H 0.16216 0.59649 0.39115 0.0
H734 H 0.18295 0.58127 0.90694 0.0
H735 H 0.17685 0.54936 0.96159 0.0
H736 H 0.16509 0.60772 0.906 0.0
H737 H 0.165 0.63412 0.97907 0.0
C738 C 0.59622 0.15529 0.41629 0.0
C739 C 0.61128 0.1564 0.50268 0.0
C740 C 0.57275 0.1556 0.60188 0.0
C741 C 0.55798 0.15515 0.51549 0.0
N742 N 0.56039 0.16402 0.34231 0.0
N743 N 0.61839 0.16715 0.67411 0.0
C744 C 0.57145 0.15833 0.42329 0.0
C745 C 0.60108 0.15999 0.59421 0.0
N746 N 0.60405 0.14922 0.32852 0.0
N747 N 0.55918 0.14962 0.69061 0.0
H748 H 0.63935 0.17075 0.67003 0.0
H749 H 0.61305 0.17241 0.7411 0.0
H750 H 0.53804 0.14499 0.70007 0.0
H751 H 0.56804 0.14661 0.7539 0.0
H752 H 0.5917 0.14495 0.26577 0.0
H753 H 0.62148 0.14603 0.31962 0.0
H754 H 0.5707 0.16898 0.27453 0.0
H755 H 0.5425 0.16674 0.34565 0.0
C756 C 0.44464 0.59222 0.93304 0.0
C757 C 0.45986 0.60401 0.84436 0.0
C758 C 0.41912 0.56625 0.75479 0.0
C759 C 0.40705 0.55131 0.84365 0.0
N760 N 0.41105 0.54886 0.01901 0.0
N761 N 0.46283 0.59951 0.66946 0.0
C762 C 0.42026 0.5641 0.93363 0.0
C763 C 0.4473 0.59057 0.75444 0.0
N764 N 0.45362 0.60787 0.01681 0.0
N765 N 0.40367 0.55703 0.67061 0.0
H766 H 0.48399 0.61638 0.66555 0.0
H767 H 0.4556 0.58837 0.60413 0.0
H768 H 0.38278 0.53949 0.66906 0.0
H769 H 0.41039 0.56853 0.6052 0.0
H770 H 0.44189 0.60135 0.08188 0.0
H771 H 0.47118 0.62872 0.01822 0.0
H772 H 0.42205 0.55626 0.08454 0.0
H773 H 0.39409 0.52779 0.02326 0.0
C774 C 0.85361 0.41633 0.11525 0.0
C775 C 0.85533 0.40602 0.20897 0.0
C776 C 0.85024 0.44467 0.28244 0.0
C777 C 0.8555 0.45849 0.19008 0.0
N778 N 0.86545 0.45827 0.01757 0.0
N779 N 0.85821 0.41263 0.3841 0.0
C780 C 0.85754 0.44435 0.10561 0.0
C781 C 0.8539 0.42045 0.29358 0.0
N782 N 0.84865 0.39943 0.03536 0.0
N783 N 0.84209 0.45498 0.35972 0.0
H784 H 0.86197 0.39572 0.39625 0.0
H785 H 0.86056 0.42458 0.44653 0.0
H786 H 0.8389 0.47249 0.35308 0.0
H787 H 0.83563 0.44437 0.4268 0.0
H788 H 0.8448 0.40485 0.96623 0.0
H789 H 0.84535 0.37865 0.04075 0.0
H790 H 0.87028 0.44989 0.95668 0.0
H791 H 0.86978 0.47921 1.00703 0.0
C792 C 0.43816 0.84406 0.62982 0.0
C793 C 0.45253 0.84438 0.54236 0.0
C794 C 0.41143 0.83871 0.44736 0.0
C795 C 0.40012 0.84443 0.53257 0.0
N796 N 0.4015 0.85138 0.70638 0.0
N797 N 0.45283 0.84065 0.36744 0.0
C798 C 0.41276 0.84608 0.62476 0.0
C799 C 0.43883 0.84062 0.45097 0.0
N800 N 0.44924 0.8423 0.71743 0.0
N801 N 0.39598 0.83191 0.36299 0.0
H802 H 0.47245 0.84107 0.36817 0.0
H803 H 0.44574 0.84146 0.29759 0.0
H804 H 0.37588 0.83042 0.35932 0.0
H805 H 0.4017 0.8253 0.29971 0.0
H806 H 0.43882 0.83969 0.78409 0.0
H807 H 0.46786 0.84087 0.72234 0.0
H808 H 0.41155 0.85632 0.77398 0.0
H809 H 0.38245 0.85204 0.70549 0.0
C810 C 0.60064 0.43845 0.92031 0.0
C811 C 0.61331 0.45442 0.83343 0.0
C812 C 0.57558 0.41599 0.73564 0.0
C813 C 0.56149 0.40129 0.82306 0.0
N814 N 0.56329 0.3942 0.99553 0.0
N815 N 0.61753 0.45606 0.6586 0.0
C816 C 0.57514 0.41104 0.91449 0.0
C817 C 0.60237 0.44221 0.74094 0.0
N818 N 0.61232 0.45031 1.00842 0.0
N819 N 0.56245 0.40546 0.6481 0.0
H820 H 0.63702 0.47537 0.6611 0.0
H821 H 0.61214 0.44764 0.58868 0.0
H822 H 0.54363 0.38561 0.64198 0.0
H823 H 0.5695 0.41644 0.58203 0.0
H824 H 0.6027 0.44164 0.07553 0.0
H825 H 0.63167 0.46966 1.01436 0.0
H826 H 0.57295 0.39874 0.06373 0.0
H827 H 0.54448 0.37427 0.99283 0.0
C828 C 0.21654 0.41761 0.86427 0.0
C829 C 0.24307 0.431 0.91557 0.0
C830 C 0.22194 0.44907 0.03632 0.0
C831 C 0.19552 0.43568 0.98507 0.0
N832 N 0.16524 0.40047 0.86727 0.0
N833 N 0.26784 0.45235 0.06601 0.0
C834 C 0.19204 0.41779 0.90439 0.0
C835 C 0.24476 0.44441 1.00664 0.0
N836 N 0.21472 0.40485 0.77651 0.0
N837 N 0.22546 0.46674 0.11278 0.0
H838 H 0.2848 0.4491 0.04869 0.0
H839 H 0.26881 0.45942 0.13723 0.0
H840 H 0.20872 0.46904 0.14125 0.0
H841 H 0.24528 0.48031 0.14459 0.0
H842 H 0.19743 0.39824 0.7293 0.0
H843 H 0.23119 0.4021 0.74828 0.0
H844 H 0.16077 0.38506 0.81411 0.0
H845 H 0.1468 0.39924 0.89706 0.0
C846 C 0.80294 0.21693 0.27245 0.0
C847 C 0.81778 0.24365 0.32226 0.0
C848 C 0.79315 0.21876 0.47489 0.0
C849 C 0.77507 0.19338 0.42221 0.0
N850 N 0.77553 0.16516 0.28669 0.0
N851 N 0.82453 0.27007 0.4718 0.0
C852 C 0.78327 0.19143 0.32477 0.0
C853 C 0.81245 0.2445 0.4239 0.0
N854 N 0.80781 0.21565 0.17508 0.0
N855 N 0.79416 0.21758 0.57438 0.0
H856 H 0.839 0.28955 0.43953 0.0
H857 H 0.81813 0.27223 0.54162 0.0
H858 H 0.78363 0.19829 0.61325 0.0
H859 H 0.80884 0.23467 0.61668 0.0
H860 H 0.79453 0.19814 0.13174 0.0
H861 H 0.82428 0.23255 0.13594 0.0
H862 H 0.78205 0.16214 0.21829 0.0
H863 H 0.76704 0.1467 0.32968 0.0
C864 C 0.57026 0.79597 0.65802 0.0
C865 C 0.57142 0.81601 0.72801 0.0
C866 C 0.58271 0.79057 0.85464 0.0
C867 C 0.57705 0.76814 0.78858 0.0
N868 N 0.56215 0.74827 0.62728 0.0
N869 N 0.57486 0.82943 0.89823 0.0
C870 C 0.57034 0.77067 0.68984 0.0
C871 C 0.57643 0.81239 0.82778 0.0
N872 N 0.56854 0.80063 0.56084 0.0
N873 N 0.59539 0.79184 0.9422 0.0
H874 H 0.57119 0.84621 0.88346 0.0
H875 H 0.57478 0.82535 0.97267 0.0
H876 H 0.60165 0.77715 0.96278 0.0
H877 H 0.60281 0.80928 0.98912 0.0
H878 H 0.57165 0.78906 0.50609 0.0
H879 H 0.56594 0.81724 0.53406 0.0
H880 H 0.55312 0.74726 0.5593 0.0
H881 H 0.56211 0.72956 0.64558 0.0
C882 C 0.78737 0.54603 0.08286 0.0
C883 C 0.81188 0.57314 0.10395 0.0
C884 C 0.78485 0.59677 0.05156 0.0
C885 C 0.76093 0.56967 0.02569 0.0
N886 N 0.74365 0.51988 0.98973 0.0
N887 N 0.83566 0.62475 0.08956 0.0
C888 C 0.76348 0.54474 0.0335 0.0
C889 C 0.81124 0.59861 0.08131 0.0
N890 N 0.78647 0.52121 0.1107 0.0
N891 N 0.78206 0.62061 0.0544 0.0
H892 H 0.85493 0.62742 0.11642 0.0
H893 H 0.83745 0.64368 0.06257 0.0
H894 H 0.76354 0.62076 0.03391 0.0
H895 H 0.79737 0.63994 0.08501 0.0
H896 H 0.76778 0.50122 0.1088 0.0
H897 H 0.80364 0.52055 0.14252 0.0
H898 H 0.746 0.5019 0.98375 0.0
H899 H 0.72655 0.51824 0.94925 0.0
C900 C 0.25261 0.78347 0.36599 0.0
C901 C 0.25374 0.81043 0.36488 0.0
C902 C 0.20103 0.78462 0.34313 0.0
C903 C 0.20071 0.75821 0.33118 0.0
N904 N 0.22869 0.73484 0.3068 0.0
N905 N 0.22886 0.83643 0.33067 0.0
C906 C 0.22721 0.75832 0.33554 0.0
C907 C 0.22789 0.81096 0.34746 0.0
N908 N 0.27527 0.78132 0.40055 0.0
N909 N 0.17582 0.78468 0.35497 0.0
H910 H 0.24787 0.85615 0.32972 0.0
H911 H 0.21109 0.8377 0.30746 0.0
H912 H 0.15574 0.76607 0.35578 0.0
H913 H 0.17503 0.80296 0.37431 0.0
H914 H 0.27424 0.7617 0.41217 0.0
H915 H 0.29379 0.79861 0.42854 0.0
H916 H 0.24808 0.73503 0.29904 0.0
H917 H 0.21117 0.71631 0.27987 0.0
C918 C 0.44535 0.2328 0.71246 0.0
C919 C 0.4435 0.25097 0.64048 0.0
C920 C 0.43211 0.2134 0.51787 0.0
C921 C 0.43841 0.19734 0.58563 0.0
N922 N 0.45413 0.19374 0.74747 0.0
N923 N 0.43863 0.2594 0.46962 0.0
C924 C 0.44547 0.20734 0.68338 0.0
C925 C 0.43799 0.24153 0.54181 0.0
N926 N 0.44748 0.23993 0.80888 0.0
N927 N 0.41914 0.20123 0.43153 0.0
H928 H 0.44158 0.27966 0.48247 0.0
H929 H 0.43849 0.25497 0.39559 0.0
H930 H 0.41315 0.18023 0.41306 0.0
H931 H 0.41122 0.21062 0.38361 0.0
H932 H 0.44497 0.22581 0.86525 0.0
H933 H 0.44978 0.25919 0.83355 0.0
H934 H 0.46324 0.20218 0.8149 0.0
H935 H 0.45439 0.17508 0.73104 0.0
loop_
_geom_bond_atom_site_label_1
_geom_bond_atom_site_label_2
_geom_bond_distance
_geom_bond_site_symmetry_2
_ccdc_geom_bond_type
Co0 N4 2.148 . S
Co0 N10 2.128 1_554 S
Co0 N20 2.194 . S
Co0 O25 2.351 . S
Co0 O26 2.155 . S
Co0 O27 2.096 . S
C1 N4 1.301 . S
C1 N5 1.328 . S
C1 H6 0.930 . S
C2 C3 1.333 . S
C2 N4 1.317 . S
C2 H7 0.930 . S
C3 C2 1.333 . S
C3 N5 1.350 . S
C3 H29 0.931 . S
N4 Co0 2.148 . S
N4 C1 1.301 . S
N4 C2 1.317 . S
N5 C1 1.328 . S
N5 C3 1.350 . S
H6 C1 0.930 . S
H7 C2 0.930 . S
C8 O9 1.224 . S
C8 O27 1.247 . S
O9 C8 1.224 . S
N10 Co0 2.128 1_556 S
N10 C11 1.355 . S
N10 C13 1.311 . S
C11 N10 1.355 . S
C11 C12 1.363 . S
C11 H23 0.929 . S
C12 C11 1.363 . S
C12 N14 1.375 . S
C12 H30 0.931 . S
C13 N10 1.311 . S
C13 N14 1.347 . S
C13 H24 0.929 . S
N14 C12 1.375 . S
N14 C13 1.347 . S
C15 C18 1.365 . S
C15 N20 1.328 . S
C15 H21 0.929 . S
C16 C17 1.362 . S
C16 C19 1.378 . S
C16 H31 0.929 . S
C17 C16 1.362 . S
C17 C18 1.366 . S
C18 C15 1.365 . S
C18 C17 1.366 . S
C18 H32 0.930 . S
C19 C16 1.378 . S
C19 N20 1.315 . S
C19 H22 0.930 . S
N20 Co0 2.194 . S
N20 C15 1.328 . S
N20 C19 1.315 . S
H21 C15 0.929 . S
H22 C19 0.930 . S
H23 C11 0.929 . S
H24 C13 0.929 . S
O25 Co0 2.351 . S
O25 C28 1.244 . S
O26 Co0 2.155 . S
O26 C28 1.240 . S
O27 Co0 2.096 . S
O27 C8 1.247 . S
C28 O25 1.244 . S
C28 O26 1.240 . S
H29 C3 0.931 . S
H30 C12 0.931 . S
H31 C16 0.929 . S
H32 C18 0.930 . S
Co33 N37 2.148 . S
Co33 N43 2.128 . S
Co33 N53 2.194 . S
Co33 O58 2.351 . S
Co33 O59 2.155 . S
Co33 O60 2.096 . S
C34 N37 1.301 . S
C34 N38 1.328 . S
C34 H39 0.930 . S
C35 C36 1.333 . S
C35 N37 1.317 . S
C35 H40 0.930 . S
C36 C35 1.333 . S
C36 N38 1.350 . S
C36 H62 0.931 . S
N37 Co33 2.148 . S
N37 C34 1.301 . S
N37 C35 1.317 . S
N38 C34 1.328 . S
N38 C36 1.350 . S
H39 C34 0.930 . S
H40 C35 0.930 . S
C41 O42 1.224 . S
C41 O60 1.247 . S
O42 C41 1.224 . S
N43 Co33 2.128 . S
N43 C44 1.355 . S
N43 C46 1.311 . S
C44 N43 1.355 . S
C44 C45 1.363 . S
C44 H56 0.929 . S
C45 C44 1.363 . S
C45 N47 1.375 . S
C45 H63 0.931 . S
C46 N43 1.311 . S
C46 N47 1.347 . S
C46 H57 0.929 . S
N47 C45 1.375 . S
N47 C46 1.347 . S
C48 C51 1.365 . S
C48 N53 1.328 . S
C48 H54 0.929 . S
C49 C50 1.362 . S
C49 C52 1.378 . S
C49 H64 0.929 . S
C50 C49 1.362 . S
C50 C51 1.366 . S
C51 C48 1.365 . S
C51 C50 1.366 . S
C51 H65 0.930 . S
C52 C49 1.378 . S
C52 N53 1.315 . S
C52 H55 0.930 . S
N53 Co33 2.194 . S
N53 C48 1.328 . S
N53 C52 1.315 . S
H54 C48 0.929 . S
H55 C52 0.930 . S
H56 C44 0.929 . S
H57 C46 0.929 . S
O58 Co33 2.351 . S
O58 C61 1.244 . S
O59 Co33 2.155 . S
O59 C61 1.240 . S
O60 Co33 2.096 . S
O60 C41 1.247 . S
C61 O58 1.244 . S
C61 O59 1.240 . S
H62 C36 0.931 . S
H63 C45 0.931 . S
H64 C49 0.929 . S
H65 C51 0.930 . S
Co66 N70 2.148 . S
Co66 N76 2.128 . S
Co66 N86 2.194 . S
Co66 O91 2.351 . S
Co66 O92 2.155 . S
Co66 O93 2.096 . S
C67 N70 1.301 1_554 S
C67 N71 1.328 . S
C67 H72 0.930 . S
C68 C69 1.333 1_556 S
C68 N70 1.317 . S
C68 H73 0.930 . S
C69 C68 1.333 1_554 S
C69 N71 1.350 . S
C69 H95 0.931 . S
N70 Co66 2.148 . S
N70 C67 1.301 1_556 S
N70 C68 1.317 . S
N71 C67 1.328 . S
N71 C69 1.350 . S
H72 C67 0.930 . S
H73 C68 0.930 . S
C74 O75 1.224 . S
C74 O93 1.247 . S
O75 C74 1.224 . S
N76 Co66 2.128 . S
N76 C77 1.355 . S
N76 C79 1.311 . S
C77 N76 1.355 . S
C77 C78 1.363 . S
C77 H89 0.929 . S
C78 C77 1.363 . S
C78 N80 1.375 . S
C78 H96 0.931 . S
C79 N76 1.311 . S
C79 N80 1.347 . S
C79 H90 0.929 . S
N80 C78 1.375 . S
N80 C79 1.347 . S
C81 C84 1.365 . S
C81 N86 1.328 . S
C81 H87 0.929 . S
C82 C83 1.362 . S
C82 C85 1.378 . S
C82 H97 0.929 . S
C83 C82 1.362 . S
C83 C84 1.366 . S
C84 C81 1.365 . S
C84 C83 1.366 . S
C84 H98 0.930 . S
C85 C82 1.378 . S
C85 N86 1.315 . S
C85 H88 0.930 . S
N86 Co66 2.194 . S
N86 C81 1.328 . S
N86 C85 1.315 . S
H87 C81 0.929 . S
H88 C85 0.930 . S
H89 C77 0.929 . S
H90 C79 0.929 . S
O91 Co66 2.351 . S
O91 C94 1.244 . S
O92 Co66 2.155 . S
O92 C94 1.240 . S
O93 Co66 2.096 . S
O93 C74 1.247 . S
C94 O91 1.244 . S
C94 O92 1.240 . S
H95 C69 0.931 . S
H96 C78 0.931 . S
H97 C82 0.929 . S
H98 C84 0.930 . S
Co99 N103 2.148 . S
Co99 N109 2.128 1_554 S
Co99 N119 2.194 . S
Co99 O124 2.351 . S
Co99 O125 2.155 . S
Co99 O126 2.096 . S
C100 N103 1.301 . S
C100 N104 1.328 . S
C100 H105 0.930 . S
C101 C102 1.333 . S
C101 N103 1.317 . S
C101 H106 0.930 . S
C102 C101 1.333 . S
C102 N104 1.350 . S
C102 H128 0.931 . S
N103 Co99 2.148 . S
N103 C100 1.301 . S
N103 C101 1.317 . S
N104 C100 1.328 . S
N104 C102 1.350 . S
H105 C100 0.930 . S
H106 C101 0.930 . S
C107 O108 1.224 . S
C107 O126 1.247 . S
O108 C107 1.224 . S
N109 Co99 2.128 1_556 S
N109 C110 1.355 . S
N109 C112 1.311 . S
C110 N109 1.355 . S
C110 C111 1.363 . S
C110 H122 0.929 . S
C111 C110 1.363 . S
C111 N113 1.375 . S
C111 H129 0.931 . S
C112 N109 1.311 . S
C112 N113 1.347 . S
C112 H123 0.929 . S
N113 C111 1.375 . S
N113 C112 1.347 . S
C114 C117 1.365 . S
C114 N119 1.328 . S
C114 H120 0.929 . S
C115 C116 1.362 . S
C115 C118 1.378 . S
C115 H130 0.929 . S
C116 C115 1.362 . S
C116 C117 1.366 . S
C117 C114 1.365 . S
C117 C116 1.366 . S
C117 H131 0.930 . S
C118 C115 1.378 . S
C118 N119 1.315 . S
C118 H121 0.930 . S
N119 Co99 2.194 . S
N119 C114 1.328 . S
N119 C118 1.315 . S
H120 C114 0.929 . S
H121 C118 0.930 . S
H122 C110 0.929 . S
H123 C112 0.929 . S
O124 Co99 2.351 . S
O124 C127 1.244 . S
O125 Co99 2.155 . S
O125 C127 1.240 . S
O126 Co99 2.096 . S
O126 C107 1.247 . S
C127 O124 1.244 . S
C127 O125 1.240 . S
H128 C102 0.931 . S
H129 C111 0.931 . S
H130 C115 0.929 . S
H131 C117 0.930 . S
Co132 N136 2.148 . S
Co132 N142 2.128 . S
Co132 N152 2.194 . S
Co132 O157 2.351 . S
Co132 O158 2.155 . S
Co132 O159 2.096 . S
C133 N136 1.301 . S
C133 N137 1.328 . S
C133 H138 0.930 . S
C134 C135 1.333 . S
C134 N136 1.317 . S
C134 H139 0.930 . S
C135 C134 1.333 . S
C135 N137 1.350 . S
C135 H161 0.931 . S
N136 Co132 2.148 . S
N136 C133 1.301 . S
N136 C134 1.317 . S
N137 C133 1.328 . S
N137 C135 1.350 . S
H138 C133 0.930 . S
H139 C134 0.930 . S
C140 O141 1.224 . S
C140 O159 1.247 . S
O141 C140 1.224 . S
N142 Co132 2.128 . S
N142 C143 1.355 . S
N142 C145 1.311 . S
C143 N142 1.355 . S
C143 C144 1.363 . S
C143 H155 0.929 . S
C144 C143 1.363 . S
C144 N146 1.375 . S
C144 H162 0.931 . S
C145 N142 1.311 . S
C145 N146 1.347 . S
C145 H156 0.929 . S
N146 C144 1.375 . S
N146 C145 1.347 . S
C147 C150 1.365 . S
C147 N152 1.328 . S
C147 H153 0.929 . S
C148 C149 1.362 . S
C148 C151 1.378 . S
C148 H163 0.929 . S
C149 C148 1.362 . S
C149 C150 1.366 . S
C150 C147 1.365 . S
C150 C149 1.366 . S
C150 H164 0.930 . S
C151 C148 1.378 . S
C151 N152 1.315 . S
C151 H154 0.930 . S
N152 Co132 2.194 . S
N152 C147 1.328 . S
N152 C151 1.315 . S
H153 C147 0.929 . S
H154 C151 0.930 . S
H155 C143 0.929 . S
H156 C145 0.929 . S
O157 Co132 2.351 . S
O157 C160 1.244 . S
O158 Co132 2.155 . S
O158 C160 1.240 . S
O159 Co132 2.096 . S
O159 C140 1.247 . S
C160 O157 1.244 . S
C160 O158 1.240 . S
H161 C135 0.931 . S
H162 C144 0.931 . S
H163 C148 0.929 . S
H164 C150 0.930 . S
Co165 N169 2.148 . S
Co165 N175 2.128 . S
Co165 N185 2.194 . S
Co165 O190 2.351 . S
Co165 O191 2.155 . S
Co165 O192 2.096 . S
C166 N169 1.301 1_554 S
C166 N170 1.328 . S
C166 H171 0.930 . S
C167 C168 1.333 1_556 S
C167 N169 1.317 . S
C167 H172 0.930 . S
C168 C167 1.333 1_554 S
C168 N170 1.350 . S
C168 H194 0.931 . S
N169 Co165 2.148 . S
N169 C166 1.301 1_556 S
N169 C167 1.317 . S
N170 C166 1.328 . S
N170 C168 1.350 . S
H171 C166 0.930 . S
H172 C167 0.930 . S
C173 O174 1.224 . S
C173 O192 1.247 . S
O174 C173 1.224 . S
N175 Co165 2.128 . S
N175 C176 1.355 . S
N175 C178 1.311 . S
C176 N175 1.355 . S
C176 C177 1.363 . S
C176 H188 0.929 . S
C177 C176 1.363 . S
C177 N179 1.375 . S
C177 H195 0.931 . S
C178 N175 1.311 . S
C178 N179 1.347 . S
C178 H189 0.929 . S
N179 C177 1.375 . S
N179 C178 1.347 . S
C180 C183 1.365 . S
C180 N185 1.328 . S
C180 H186 0.929 . S
C181 C182 1.362 . S
C181 C184 1.378 . S
C181 H196 0.929 . S
C182 C181 1.362 . S
C182 C183 1.366 . S
C183 C180 1.365 . S
C183 C182 1.366 . S
C183 H197 0.930 . S
C184 C181 1.378 . S
C184 N185 1.315 . S
C184 H187 0.930 . S
N185 Co165 2.194 . S
N185 C180 1.328 . S
N185 C184 1.315 . S
H186 C180 0.929 . S
H187 C184 0.930 . S
H188 C176 0.929 . S
H189 C178 0.929 . S
O190 Co165 2.351 . S
O190 C193 1.244 . S
O191 Co165 2.155 . S
O191 C193 1.240 . S
O192 Co165 2.096 . S
O192 C173 1.247 . S
C193 O190 1.244 . S
C193 O191 1.240 . S
H194 C168 0.931 . S
H195 C177 0.931 . S
H196 C181 0.929 . S
H197 C183 0.930 . S
Co198 N202 2.148 . S
Co198 N208 2.128 . S
Co198 N218 2.194 . S
Co198 O223 2.351 . S
Co198 O224 2.155 . S
Co198 O225 2.096 . S
C199 N202 1.301 . S
C199 N203 1.328 . S
C199 H204 0.930 . S
C200 C201 1.333 . S
C200 N202 1.317 . S
C200 H205 0.930 . S
C201 C200 1.333 . S
C201 N203 1.350 . S
C201 H227 0.931 . S
N202 Co198 2.148 . S
N202 C199 1.301 . S
N202 C200 1.317 . S
N203 C199 1.328 . S
N203 C201 1.350 . S
H204 C199 0.930 . S
H205 C200 0.930 . S
C206 O207 1.224 . S
C206 O225 1.247 . S
O207 C206 1.224 . S
N208 Co198 2.128 . S
N208 C209 1.355 . S
N208 C211 1.311 . S
C209 N208 1.355 . S
C209 C210 1.363 . S
C209 H221 0.929 . S
C210 C209 1.363 . S
C210 N212 1.375 . S
C210 H228 0.931 . S
C211 N208 1.311 . S
C211 N212 1.347 . S
C211 H222 0.929 . S
N212 C210 1.375 . S
N212 C211 1.347 . S
C213 C216 1.365 . S
C213 N218 1.328 . S
C213 H219 0.929 . S
C214 C215 1.362 . S
C214 C217 1.378 . S
C214 H229 0.929 . S
C215 C214 1.362 . S
C215 C216 1.366 . S
C216 C213 1.365 . S
C216 C215 1.366 . S
C216 H230 0.930 . S
C217 C214 1.378 . S
C217 N218 1.315 . S
C217 H220 0.930 . S
N218 Co198 2.194 . S
N218 C213 1.328 . S
N218 C217 1.315 . S
H219 C213 0.929 . S
H220 C217 0.930 . S
H221 C209 0.929 . S
H222 C211 0.929 . S
O223 Co198 2.351 . S
O223 C226 1.244 . S
O224 Co198 2.155 . S
O224 C226 1.240 . S
O225 Co198 2.096 . S
O225 C206 1.247 . S
C226 O223 1.244 . S
C226 O224 1.240 . S
H227 C201 0.931 . S
H228 C210 0.931 . S
H229 C214 0.929 . S
H230 C216 0.930 . S
Co231 N235 2.148 . S
Co231 N241 2.128 1_556 S
Co231 N251 2.194 . S
Co231 O256 2.351 . S
Co231 O257 2.155 . S
Co231 O258 2.096 . S
C232 N235 1.301 . S
C232 N236 1.328 . S
C232 H237 0.930 . S
C233 C234 1.333 . S
C233 N235 1.317 . S
C233 H238 0.930 . S
C234 C233 1.333 . S
C234 N236 1.350 . S
C234 H260 0.931 . S
N235 Co231 2.148 . S
N235 C232 1.301 . S
N235 C233 1.317 . S
N236 C232 1.328 . S
N236 C234 1.350 . S
H237 C232 0.930 . S
H238 C233 0.930 . S
C239 O240 1.224 . S
C239 O258 1.247 . S
O240 C239 1.224 . S
N241 Co231 2.128 1_554 S
N241 C242 1.355 . S
N241 C244 1.311 . S
C242 N241 1.355 . S
C242 C243 1.363 . S
C242 H254 0.929 . S
C243 C242 1.363 . S
C243 N245 1.375 . S
C243 H261 0.931 . S
C244 N241 1.311 . S
C244 N245 1.347 . S
C244 H255 0.929 . S
N245 C243 1.375 . S
N245 C244 1.347 . S
C246 C249 1.365 . S
C246 N251 1.328 . S
C246 H252 0.929 . S
C247 C248 1.362 . S
C247 C250 1.378 . S
C247 H262 0.929 . S
C248 C247 1.362 . S
C248 C249 1.366 . S
C249 C246 1.365 . S
C249 C248 1.366 . S
C249 H263 0.930 . S
C250 C247 1.378 . S
C250 N251 1.315 . S
C250 H253 0.930 . S
N251 Co231 2.194 . S
N251 C246 1.328 . S
N251 C250 1.315 . S
H252 C246 0.929 . S
H253 C250 0.930 . S
H254 C242 0.929 . S
H255 C244 0.929 . S
O256 Co231 2.351 . S
O256 C259 1.244 . S
O257 Co231 2.155 . S
O257 C259 1.240 . S
O258 Co231 2.096 . S
O258 C239 1.247 . S
C259 O256 1.244 . S
C259 O257 1.240 . S
H260 C234 0.931 . S
H261 C243 0.931 . S
H262 C247 0.929 . S
H263 C249 0.930 . S
Co264 N268 2.148 . S
Co264 N274 2.128 . S
Co264 N284 2.194 . S
Co264 O289 2.351 . S
Co264 O290 2.155 . S
Co264 O291 2.096 . S
C265 N268 1.301 1_556 S
C265 N269 1.328 . S
C265 H270 0.930 . S
C266 C267 1.333 1_554 S
C266 N268 1.317 . S
C266 H271 0.930 . S
C267 C266 1.333 1_556 S
C267 N269 1.350 . S
C267 H293 0.931 . S
N268 Co264 2.148 . S
N268 C265 1.301 1_554 S
N268 C266 1.317 . S
N269 C265 1.328 . S
N269 C267 1.350 . S
H270 C265 0.930 . S
H271 C266 0.930 . S
C272 O273 1.224 . S
C272 O291 1.247 . S
O273 C272 1.224 . S
N274 Co264 2.128 . S
N274 C275 1.355 . S
N274 C277 1.311 . S
C275 N274 1.355 . S
C275 C276 1.363 . S
C275 H287 0.929 . S
C276 C275 1.363 . S
C276 N278 1.375 . S
C276 H294 0.931 . S
C277 N274 1.311 . S
C277 N278 1.347 . S
C277 H288 0.929 . S
N278 C276 1.375 . S
N278 C277 1.347 . S
C279 C282 1.365 . S
C279 N284 1.328 . S
C279 H285 0.929 . S
C280 C281 1.362 . S
C280 C283 1.378 . S
C280 H295 0.929 . S
C281 C280 1.362 . S
C281 C282 1.366 . S
C282 C279 1.365 . S
C282 C281 1.366 . S
C282 H296 0.930 . S
C283 C280 1.378 . S
C283 N284 1.315 . S
C283 H286 0.930 . S
N284 Co264 2.194 . S
N284 C279 1.328 . S
N284 C283 1.315 . S
H285 C279 0.929 . S
H286 C283 0.930 . S
H287 C275 0.929 . S
H288 C277 0.929 . S
O289 Co264 2.351 . S
O289 C292 1.244 . S
O290 Co264 2.155 . S
O290 C292 1.240 . S
O291 Co264 2.096 . S
O291 C272 1.247 . S
C292 O289 1.244 . S
C292 O290 1.240 . S
H293 C267 0.931 . S
H294 C276 0.931 . S
H295 C280 0.929 . S
H296 C282 0.930 . S
Co297 N301 2.148 . S
Co297 N307 2.128 . S
Co297 N317 2.194 . S
Co297 O322 2.351 . S
Co297 O323 2.155 . S
Co297 O324 2.096 . S
C298 N301 1.301 . S
C298 N302 1.328 . S
C298 H303 0.930 . S
C299 C300 1.333 . S
C299 N301 1.317 . S
C299 H304 0.930 . S
C300 C299 1.333 . S
C300 N302 1.350 . S
C300 H326 0.931 . S
N301 Co297 2.148 . S
N301 C298 1.301 . S
N301 C299 1.317 . S
N302 C298 1.328 . S
N302 C300 1.350 . S
H303 C298 0.930 . S
H304 C299 0.930 . S
C305 O306 1.224 . S
C305 O324 1.247 . S
O306 C305 1.224 . S
N307 Co297 2.128 . S
N307 C308 1.355 . S
N307 C310 1.311 . S
C308 N307 1.355 . S
C308 C309 1.363 . S
C308 H320 0.929 . S
C309 C308 1.363 . S
C309 N311 1.375 . S
C309 H327 0.931 . S
C310 N307 1.311 . S
C310 N311 1.347 . S
C310 H321 0.929 . S
N311 C309 1.375 . S
N311 C310 1.347 . S
C312 C315 1.365 . S
C312 N317 1.328 . S
C312 H318 0.929 . S
C313 C314 1.362 . S
C313 C316 1.378 . S
C313 H328 0.929 . S
C314 C313 1.362 . S
C314 C315 1.366 . S
C315 C312 1.365 . S
C315 C314 1.366 . S
C315 H329 0.930 . S
C316 C313 1.378 . S
C316 N317 1.315 . S
C316 H319 0.930 . S
N317 Co297 2.194 . S
N317 C312 1.328 . S
N317 C316 1.315 . S
H318 C312 0.929 . S
H319 C316 0.930 . S
H320 C308 0.929 . S
H321 C310 0.929 . S
O322 Co297 2.351 . S
O322 C325 1.244 . S
O323 Co297 2.155 . S
O323 C325 1.240 . S
O324 Co297 2.096 . S
O324 C305 1.247 . S
C325 O322 1.244 . S
C325 O323 1.240 . S
H326 C300 0.931 . S
H327 C309 0.931 . S
H328 C313 0.929 . S
H329 C315 0.930 . S
Co330 N334 2.148 . S
Co330 N340 2.128 1_556 S
Co330 N350 2.194 . S
Co330 O355 2.351 . S
Co330 O356 2.155 . S
Co330 O357 2.096 . S
C331 N334 1.301 . S
C331 N335 1.328 . S
C331 H336 0.930 . S
C332 C333 1.333 . S
C332 N334 1.317 . S
C332 H337 0.930 . S
C333 C332 1.333 . S
C333 N335 1.350 . S
C333 H359 0.931 . S
N334 Co330 2.148 . S
N334 C331 1.301 . S
N334 C332 1.317 . S
N335 C331 1.328 . S
N335 C333 1.350 . S
H336 C331 0.930 . S
H337 C332 0.930 . S
C338 O339 1.224 . S
C338 O357 1.247 . S
O339 C338 1.224 . S
N340 Co330 2.128 1_554 S
N340 C341 1.355 . S
N340 C343 1.311 . S
C341 N340 1.355 . S
C341 C342 1.363 . S
C341 H353 0.929 . S
C342 C341 1.363 . S
C342 N344 1.375 . S
C342 H360 0.931 . S
C343 N340 1.311 . S
C343 N344 1.347 . S
C343 H354 0.929 . S
N344 C342 1.375 . S
N344 C343 1.347 . S
C345 C348 1.365 . S
C345 N350 1.328 . S
C345 H351 0.929 . S
C346 C347 1.362 . S
C346 C349 1.378 . S
C346 H361 0.929 . S
C347 C346 1.362 . S
C347 C348 1.366 . S
C348 C345 1.365 . S
C348 C347 1.366 . S
C348 H362 0.930 . S
C349 C346 1.378 . S
C349 N350 1.315 . S
C349 H352 0.930 . S
N350 Co330 2.194 . S
N350 C345 1.328 . S
N350 C349 1.315 . S
H351 C345 0.929 . S
H352 C349 0.930 . S
H353 C341 0.929 . S
H354 C343 0.929 . S
O355 Co330 2.351 . S
O355 C358 1.244 . S
O356 Co330 2.155 . S
O356 C358 1.240 . S
O357 Co330 2.096 . S
O357 C338 1.247 . S
C358 O355 1.244 . S
C358 O356 1.240 . S
H359 C333 0.931 . S
H360 C342 0.931 . S
H361 C346 0.929 . S
H362 C348 0.930 . S
Co363 N367 2.148 . S
Co363 N373 2.128 . S
Co363 N383 2.194 . S
Co363 O388 2.351 . S
Co363 O389 2.155 . S
Co363 O390 2.096 . S
C364 N367 1.301 1_556 S
C364 N368 1.328 . S
C364 H369 0.930 . S
C365 C366 1.333 1_554 S
C365 N367 1.317 . S
C365 H370 0.930 . S
C366 C365 1.333 1_556 S
C366 N368 1.350 . S
C366 H392 0.931 . S
N367 Co363 2.148 . S
N367 C364 1.301 1_554 S
N367 C365 1.317 . S
N368 C364 1.328 . S
N368 C366 1.350 . S
H369 C364 0.930 . S
H370 C365 0.930 . S
C371 O372 1.224 . S
C371 O390 1.247 . S
O372 C371 1.224 . S
N373 Co363 2.128 . S
N373 C374 1.355 . S
N373 C376 1.311 . S
C374 N373 1.355 . S
C374 C375 1.363 . S
C374 H386 0.929 . S
C375 C374 1.363 . S
C375 N377 1.375 . S
C375 H393 0.931 . S
C376 N373 1.311 . S
C376 N377 1.347 . S
C376 H387 0.929 . S
N377 C375 1.375 . S
N377 C376 1.347 . S
C378 C381 1.365 . S
C378 N383 1.328 . S
C378 H384 0.929 . S
C379 C380 1.362 . S
C379 C382 1.378 . S
C379 H394 0.929 . S
C380 C379 1.362 . S
C380 C381 1.366 . S
C381 C378 1.365 . S
C381 C380 1.366 . S
C381 H395 0.930 . S
C382 C379 1.378 . S
C382 N383 1.315 . S
C382 H385 0.930 . S
N383 Co363 2.194 . S
N383 C378 1.328 . S
N383 C382 1.315 . S
H384 C378 0.929 . S
H385 C382 0.930 . S
H386 C374 0.929 . S
H387 C376 0.929 . S
O388 Co363 2.351 . S
O388 C391 1.244 . S
O389 Co363 2.155 . S
O389 C391 1.240 . S
O390 Co363 2.096 . S
O390 C371 1.247 . S
C391 O388 1.244 . S
C391 O389 1.240 . S
H392 C366 0.931 . S
H393 C375 0.931 . S
H394 C379 0.929 . S
H395 C381 0.930 . S
C396 C397 1.363 . S
C396 C402 1.379 1_455 S
C396 N404 1.356 . S
C397 C396 1.363 . S
C397 C403 1.363 . S
C398 C399 1.363 . S
C398 C403 1.379 1_655 S
C398 N405 1.356 . S
C399 C398 1.363 . S
C399 C402 1.363 . S
N400 C402 1.356 . S
N400 H412 0.984 1_554 S
N400 H413 0.985 . S
N401 C403 1.356 . S
N401 H406 0.984 . S
N401 H407 0.985 . S
C402 C396 1.379 1_655 S
C402 C399 1.363 . S
C402 N400 1.356 . S
C403 C397 1.363 . S
C403 C398 1.379 1_455 S
C403 N401 1.356 . S
N404 C396 1.356 . S
N404 H410 0.984 1_554 S
N404 H411 0.984 . S
N405 C398 1.356 . S
N405 H408 0.984 . S
N405 H409 0.985 . S
H406 N401 0.984 . S
H407 N401 0.985 . S
H408 N405 0.984 . S
H409 N405 0.985 . S
H410 N404 0.984 1_556 S
H411 N404 0.984 . S
H412 N400 0.984 1_556 S
H413 N400 0.985 . S
C414 C415 1.363 . S
C414 C420 1.379 1_545 S
C414 N422 1.356 . S
C415 C414 1.363 . S
C415 C421 1.363 . S
C416 C417 1.363 . S
C416 C421 1.379 1_565 S
C416 N423 1.356 . S
C417 C416 1.363 . S
C417 C420 1.363 . S
N418 C420 1.356 . S
N418 H430 0.984 . S
N418 H431 0.985 . S
N419 C421 1.356 . S
N419 H424 0.984 . S
N419 H425 0.985 . S
C420 C414 1.379 1_565 S
C420 C417 1.363 . S
C420 N418 1.356 . S
C421 C415 1.363 . S
C421 C416 1.379 1_545 S
C421 N419 1.356 . S
N422 C414 1.356 . S
N422 H428 0.984 . S
N422 H429 0.984 . S
N423 C416 1.356 . S
N423 H426 0.984 . S
N423 H427 0.985 . S
H424 N419 0.984 . S
H425 N419 0.985 . S
H426 N423 0.984 . S
H427 N423 0.985 . S
H428 N422 0.984 . S
H429 N422 0.984 . S
H430 N418 0.984 . S
H431 N418 0.985 . S
C432 C433 1.363 . S
C432 C438 1.379 . S
C432 N440 1.356 . S
C433 C432 1.363 . S
C433 C439 1.363 . S
C434 C435 1.363 . S
C434 C439 1.379 . S
C434 N441 1.356 . S
C435 C434 1.363 . S
C435 C438 1.363 . S
N436 C438 1.356 . S
N436 H448 0.984 1_556 S
N436 H449 0.985 . S
N437 C439 1.356 . S
N437 H442 0.984 . S
N437 H443 0.985 . S
C438 C432 1.379 . S
C438 C435 1.363 . S
C438 N436 1.356 . S
C439 C433 1.363 . S
C439 C434 1.379 . S
C439 N437 1.356 . S
N440 C432 1.356 . S
N440 H446 0.984 1_556 S
N440 H447 0.984 . S
N441 C434 1.356 . S
N441 H444 0.984 . S
N441 H445 0.985 . S
H442 N437 0.984 . S
H443 N437 0.985 . S
H444 N441 0.984 . S
H445 N441 0.985 . S
H446 N440 0.984 1_554 S
H447 N440 0.984 . S
H448 N436 0.984 1_554 S
H449 N436 0.985 . S
C450 C451 1.363 . S
C450 C456 1.379 1_455 S
C450 N458 1.356 . S
C451 C450 1.363 . S
C451 C457 1.363 . S
C452 C453 1.363 . S
C452 C457 1.379 1_655 S
C452 N459 1.356 . S
C453 C452 1.363 . S
C453 C456 1.363 . S
N454 C456 1.356 . S
N454 H466 0.984 . S
N454 H467 0.985 . S
N455 C457 1.356 . S
N455 H460 0.984 . S
N455 H461 0.977 1_554 S
C456 C450 1.379 1_655 S
C456 C453 1.363 . S
C456 N454 1.356 . S
C457 C451 1.363 . S
C457 C452 1.379 1_455 S
C457 N455 1.356 . S
N458 C450 1.356 . S
N458 H464 0.984 . S
N458 H465 0.984 . S
N459 C452 1.356 . S
N459 H462 0.984 . S
N459 H463 0.985 1_554 S
H460 N455 0.984 . S
H461 N455 0.977 1_556 S
H462 N459 0.984 . S
H463 N459 0.985 1_556 S
H464 N458 0.984 . S
H465 N458 0.984 . S
H466 N454 0.984 . S
H467 N454 0.985 . S
C468 C469 1.363 . S
C468 C474 1.379 1_545 S
C468 N476 1.356 . S
C469 C468 1.363 . S
C469 C475 1.363 . S
C470 C471 1.363 . S
C470 C475 1.379 1_565 S
C470 N477 1.356 . S
C471 C470 1.363 . S
C471 C474 1.363 . S
N472 C474 1.356 . S
N472 H484 0.984 . S
N472 H485 0.985 . S
N473 C475 1.356 . S
N473 H478 0.984 . S
N473 H479 0.985 . S
C474 C468 1.379 1_565 S
C474 C471 1.363 . S
C474 N472 1.356 . S
C475 C469 1.363 . S
C475 C470 1.379 1_545 S
C475 N473 1.356 . S
N476 C468 1.356 . S
N476 H482 0.984 . S
N476 H483 0.984 . S
N477 C470 1.356 . S
N477 H480 0.984 . S
N477 H481 0.985 . S
H478 N473 0.984 . S
H479 N473 0.985 . S
H480 N477 0.984 . S
H481 N477 0.985 . S
H482 N476 0.984 . S
H483 N476 0.984 . S
H484 N472 0.984 . S
H485 N472 0.985 . S
C486 C487 1.363 . S
C486 C492 1.379 . S
C486 N494 1.356 . S
C487 C486 1.363 . S
C487 C493 1.363 . S
C488 C489 1.363 . S
C488 C493 1.379 . S
C488 N495 1.356 . S
C489 C488 1.363 . S
C489 C492 1.363 . S
N490 C492 1.356 . S
N490 H502 0.984 . S
N490 H503 0.985 . S
N491 C493 1.356 . S
N491 H496 0.984 . S
N491 H497 0.985 . S
C492 C486 1.379 . S
C492 C489 1.363 . S
C492 N490 1.356 . S
C493 C487 1.363 . S
C493 C488 1.379 . S
C493 N491 1.356 . S
N494 C486 1.356 . S
N494 H500 0.984 . S
N494 H501 0.984 . S
N495 C488 1.356 . S
N495 H498 0.984 . S
N495 H499 0.985 . S
H496 N491 0.984 . S
H497 N491 0.985 . S
H498 N495 0.984 . S
H499 N495 0.985 . S
H500 N494 0.984 . S
H501 N494 0.984 . S
H502 N490 0.984 . S
H503 N490 0.985 . S
C504 C505 1.363 . S
C504 C510 1.379 . S
C504 N512 1.356 . S
C505 C504 1.363 . S
C505 C511 1.363 . S
C506 C507 1.363 . S
C506 C511 1.379 . S
C506 N513 1.356 . S
C507 C506 1.363 . S
C507 C510 1.363 . S
N508 C510 1.356 . S
N508 H520 0.984 . S
N508 H521 0.985 . S
N509 C511 1.356 . S
N509 H514 0.984 . S
N509 H515 0.985 . S
C510 C504 1.379 . S
C510 C507 1.363 . S
C510 N508 1.356 . S
C511 C505 1.363 . S
C511 C506 1.379 . S
C511 N509 1.356 . S
N512 C504 1.356 . S
N512 H518 0.984 . S
N512 H519 0.984 . S
N513 C506 1.356 . S
N513 H516 0.984 . S
N513 H517 0.985 . S
H514 N509 0.984 . S
H515 N509 0.985 . S
H516 N513 0.984 . S
H517 N513 0.985 . S
H518 N512 0.984 . S
H519 N512 0.984 . S
H520 N508 0.984 . S
H521 N508 0.985 . S
C522 C523 1.363 . S
C522 C528 1.379 1_556 S
C522 N530 1.356 . S
C523 C522 1.363 . S
C523 C529 1.363 . S
C524 C525 1.363 . S
C524 C529 1.379 1_554 S
C524 N531 1.356 . S
C525 C524 1.363 . S
C525 C528 1.363 . S
N526 C528 1.356 . S
N526 H538 0.984 . S
N526 H539 0.985 . S
N527 C529 1.356 . S
N527 H532 0.984 . S
N527 H533 0.985 . S
C528 C522 1.379 1_554 S
C528 C525 1.363 . S
C528 N526 1.356 . S
C529 C523 1.363 . S
C529 C524 1.379 1_556 S
C529 N527 1.356 . S
N530 C522 1.356 . S
N530 H536 0.984 . S
N530 H537 0.984 . S
N531 C524 1.356 . S
N531 H534 0.984 . S
N531 H535 0.985 . S
H532 N527 0.984 . S
H533 N527 0.985 . S
H534 N531 0.984 . S
H535 N531 0.985 . S
H536 N530 0.984 . S
H537 N530 0.984 . S
H538 N526 0.984 . S
H539 N526 0.985 . S
C540 C541 1.363 . S
C540 C546 1.379 . S
C540 N548 1.356 . S
C541 C540 1.363 . S
C541 C547 1.363 . S
C542 C543 1.363 . S
C542 C547 1.379 . S
C542 N549 1.356 . S
C543 C542 1.363 . S
C543 C546 1.363 . S
N544 C546 1.356 . S
N544 H556 0.984 . S
N544 H557 0.985 . S
N545 C547 1.356 . S
N545 H550 0.984 . S
N545 H551 0.985 . S
C546 C540 1.379 . S
C546 C543 1.363 . S
C546 N544 1.356 . S
C547 C541 1.363 . S
C547 C542 1.379 . S
C547 N545 1.356 . S
N548 C540 1.356 . S
N548 H554 0.984 . S
N548 H555 0.984 . S
N549 C542 1.356 . S
N549 H552 0.984 . S
N549 H553 0.985 . S
H550 N545 0.984 . S
H551 N545 0.985 . S
H552 N549 0.984 . S
H553 N549 0.985 . S
H554 N548 0.984 . S
H555 N548 0.984 . S
H556 N544 0.984 . S
H557 N544 0.985 . S
C558 C559 1.363 . S
C558 C564 1.379 . S
C558 N566 1.356 . S
C559 C558 1.363 . S
C559 C565 1.363 . S
C560 C561 1.363 . S
C560 C565 1.379 . S
C560 N567 1.356 . S
C561 C560 1.363 . S
C561 C564 1.363 . S
N562 C564 1.356 . S
N562 H574 0.984 . S
N562 H575 0.985 . S
N563 C565 1.356 . S
N563 H568 0.984 . S
N563 H569 0.985 . S
C564 C558 1.379 . S
C564 C561 1.363 . S
C564 N562 1.356 . S
C565 C559 1.363 . S
C565 C560 1.379 . S
C565 N563 1.356 . S
N566 C558 1.356 . S
N566 H572 0.984 . S
N566 H573 0.984 . S
N567 C560 1.356 . S
N567 H570 0.984 . S
N567 H571 0.985 . S
H568 N563 0.984 . S
H569 N563 0.985 . S
H570 N567 0.984 . S
H571 N567 0.985 . S
H572 N566 0.984 . S
H573 N566 0.984 . S
H574 N562 0.984 . S
H575 N562 0.985 . S
C576 C577 1.363 . S
C576 C582 1.379 1_554 S
C576 N584 1.356 . S
C577 C576 1.363 . S
C577 C583 1.363 . S
C578 C579 1.363 . S
C578 C583 1.379 1_556 S
C578 N585 1.356 . S
C579 C578 1.363 . S
C579 C582 1.363 . S
N580 C582 1.356 . S
N580 H592 0.984 . S
N580 H593 0.985 . S
N581 C583 1.356 . S
N581 H586 0.984 . S
N581 H587 0.985 . S
C582 C576 1.379 1_556 S
C582 C579 1.363 . S
C582 N580 1.356 . S
C583 C577 1.363 . S
C583 C578 1.379 1_554 S
C583 N581 1.356 . S
N584 C576 1.356 . S
N584 H590 0.984 . S
N584 H591 0.984 . S
N585 C578 1.356 . S
N585 H588 0.984 . S
N585 H589 0.985 . S
H586 N581 0.984 . S
H587 N581 0.985 . S
H588 N585 0.984 . S
H589 N585 0.985 . S
H590 N584 0.984 . S
H591 N584 0.984 . S
H592 N580 0.984 . S
H593 N580 0.985 . S
C594 C595 1.363 . S
C594 C600 1.379 . S
C594 N602 1.356 . S
C595 C594 1.363 . S
C595 C601 1.363 . S
C596 C597 1.363 . S
C596 C601 1.379 . S
C596 N603 1.356 . S
C597 C596 1.363 . S
C597 C600 1.363 . S
N598 C600 1.356 . S
N598 H610 0.984 . S
N598 H611 0.985 . S
N599 C601 1.356 . S
N599 H604 0.984 . S
N599 H605 0.985 . S
C600 C594 1.379 . S
C600 C597 1.363 . S
C600 N598 1.356 . S
C601 C595 1.363 . S
C601 C596 1.379 . S
C601 N599 1.356 . S
N602 C594 1.356 . S
N602 H608 0.984 . S
N602 H609 0.984 . S
N603 C596 1.356 . S
N603 H606 0.984 . S
N603 H607 0.985 . S
H604 N599 0.984 . S
H605 N599 0.985 . S
H606 N603 0.984 . S
H607 N603 0.985 . S
H608 N602 0.984 . S
H609 N602 0.984 . S
H610 N598 0.984 . S
H611 N598 0.985 . S
C612 C613 1.363 . S
C612 C618 1.379 1_556 S
C612 N620 1.356 . S
C613 C612 1.363 . S
C613 C619 1.363 . S
C614 C615 1.363 . S
C614 C619 1.379 1_554 S
C614 N621 1.356 . S
C615 C614 1.363 . S
C615 C618 1.363 . S
N616 C618 1.356 . S
N616 H628 0.984 . S
N616 H629 0.985 . S
N617 C619 1.356 . S
N617 H622 0.984 . S
N617 H623 0.985 . S
C618 C612 1.379 1_554 S
C618 C615 1.363 . S
C618 N616 1.356 . S
C619 C613 1.363 . S
C619 C614 1.379 1_556 S
C619 N617 1.356 . S
N620 C612 1.356 . S
N620 H626 0.984 . S
N620 H627 0.984 . S
N621 C614 1.356 . S
N621 H624 0.984 . S
N621 H625 0.985 . S
H622 N617 0.984 . S
H623 N617 0.985 . S
H624 N621 0.984 . S
H625 N621 0.985 . S
H626 N620 0.984 . S
H627 N620 0.984 . S
H628 N616 0.984 . S
H629 N616 0.985 . S
C630 C631 1.363 . S
C630 C636 1.379 . S
C630 N638 1.356 . S
C631 C630 1.363 . S
C631 C637 1.363 . S
C632 C633 1.363 . S
C632 C637 1.379 . S
C632 N639 1.356 . S
C633 C632 1.363 . S
C633 C636 1.363 . S
N634 C636 1.356 . S
N634 H646 0.984 . S
N634 H647 0.985 . S
N635 C637 1.356 . S
N635 H640 0.984 . S
N635 H641 0.985 . S
C636 C630 1.379 . S
C636 C633 1.363 . S
C636 N634 1.356 . S
C637 C631 1.363 . S
C637 C632 1.379 . S
C637 N635 1.356 . S
N638 C630 1.356 . S
N638 H644 0.984 . S
N638 H645 0.984 . S
N639 C632 1.356 . S
N639 H642 0.984 . S
N639 H643 0.985 . S
H640 N635 0.984 . S
H641 N635 0.985 . S
H642 N639 0.984 . S
H643 N639 0.985 . S
H644 N638 0.984 . S
H645 N638 0.984 . S
H646 N634 0.984 . S
H647 N634 0.985 . S
C648 C649 1.363 . S
C648 C654 1.379 . S
C648 N656 1.356 . S
C649 C648 1.363 . S
C649 C655 1.363 . S
C650 C651 1.363 . S
C650 C655 1.379 . S
C650 N657 1.356 . S
C651 C650 1.363 . S
C651 C654 1.363 . S
N652 C654 1.356 . S
N652 H664 0.984 . S
N652 H665 0.985 . S
N653 C655 1.356 . S
N653 H658 0.984 . S
N653 H659 0.985 . S
C654 C648 1.379 . S
C654 C651 1.363 . S
C654 N652 1.356 . S
C655 C649 1.363 . S
C655 C650 1.379 . S
C655 N653 1.356 . S
N656 C648 1.356 . S
N656 H662 0.984 . S
N656 H663 0.984 . S
N657 C650 1.356 . S
N657 H660 0.984 . S
N657 H661 0.985 . S
H658 N653 0.984 . S
H659 N653 0.985 . S
H660 N657 0.984 . S
H661 N657 0.985 . S
H662 N656 0.984 . S
H663 N656 0.984 . S
H664 N652 0.984 . S
H665 N652 0.985 . S
C666 C667 1.363 . S
C666 C672 1.379 1_554 S
C666 N674 1.356 . S
C667 C666 1.363 . S
C667 C673 1.363 . S
C668 C669 1.363 . S
C668 C673 1.379 1_556 S
C668 N675 1.356 . S
C669 C668 1.363 . S
C669 C672 1.363 . S
N670 C672 1.356 . S
N670 H682 0.984 . S
N670 H683 0.985 . S
N671 C673 1.356 . S
N671 H676 0.984 . S
N671 H677 0.985 . S
C672 C666 1.379 1_556 S
C672 C669 1.363 . S
C672 N670 1.356 . S
C673 C667 1.363 . S
C673 C668 1.379 1_554 S
C673 N671 1.356 . S
N674 C666 1.356 . S
N674 H680 0.984 . S
N674 H681 0.984 . S
N675 C668 1.356 . S
N675 H678 0.984 . S
N675 H679 0.985 . S
H676 N671 0.984 . S
H677 N671 0.985 . S
H678 N675 0.984 . S
H679 N675 0.985 . S
H680 N674 0.984 . S
H681 N674 0.984 . S
H682 N670 0.984 . S
H683 N670 0.985 . S
C684 C685 1.363 . S
C684 C690 1.379 . S
C684 N692 1.356 . S
C685 C684 1.363 . S
C685 C691 1.363 . S
C686 C687 1.363 . S
C686 C691 1.379 . S
C686 N693 1.356 . S
C687 C686 1.363 . S
C687 C690 1.363 . S
N688 C690 1.356 . S
N688 H700 0.984 . S
N688 H701 0.985 . S
N689 C691 1.356 . S
N689 H694 0.984 . S
N689 H695 0.985 . S
C690 C684 1.379 . S
C690 C687 1.363 . S
C690 N688 1.356 . S
C691 C685 1.363 . S
C691 C686 1.379 . S
C691 N689 1.356 . S
N692 C684 1.356 . S
N692 H698 0.984 . S
N692 H699 0.984 . S
N693 C686 1.356 . S
N693 H696 0.984 . S
N693 H697 0.985 . S
H694 N689 0.984 . S
H695 N689 0.985 . S
H696 N693 0.984 . S
H697 N693 0.985 . S
H698 N692 0.984 . S
H699 N692 0.984 . S
H700 N688 0.984 . S
H701 N688 0.985 . S
C702 C703 1.363 . S
C702 C708 1.379 . S
C702 N710 1.356 . S
C703 C702 1.363 . S
C703 C709 1.363 . S
C704 C705 1.363 . S
C704 C709 1.379 . S
C704 N711 1.356 . S
C705 C704 1.363 . S
C705 C708 1.363 . S
N706 C708 1.356 . S
N706 H718 0.984 . S
N706 H719 0.985 . S
N707 C709 1.356 . S
N707 H712 0.984 . S
N707 H713 0.985 . S
C708 C702 1.379 . S
C708 C705 1.363 . S
C708 N706 1.356 . S
C709 C703 1.363 . S
C709 C704 1.379 . S
C709 N707 1.356 . S
N710 C702 1.356 . S
N710 H716 0.984 . S
N710 H717 0.984 . S
N711 C704 1.356 . S
N711 H714 0.984 . S
N711 H715 0.985 . S
H712 N707 0.984 . S
H713 N707 0.985 . S
H714 N711 0.984 . S
H715 N711 0.985 . S
H716 N710 0.984 . S
H717 N710 0.984 . S
H718 N706 0.984 . S
H719 N706 0.985 . S
C720 C721 1.363 . S
C720 C726 1.379 . S
C720 N728 1.356 . S
C721 C720 1.363 . S
C721 C727 1.363 . S
C722 C723 1.363 . S
C722 C727 1.379 . S
C722 N729 1.356 . S
C723 C722 1.363 . S
C723 C726 1.363 . S
N724 C726 1.356 . S
N724 H736 0.984 . S
N724 H737 0.985 . S
N725 C727 1.356 . S
N725 H730 0.984 . S
N725 H731 0.985 . S
C726 C720 1.379 . S
C726 C723 1.363 . S
C726 N724 1.356 . S
C727 C721 1.363 . S
C727 C722 1.379 . S
C727 N725 1.356 . S
N728 C720 1.356 . S
N728 H734 0.984 . S
N728 H735 0.984 . S
N729 C722 1.356 . S
N729 H732 0.984 . S
N729 H733 0.985 . S
H730 N725 0.984 . S
H731 N725 0.985 . S
H732 N729 0.984 . S
H733 N729 0.985 . S
H734 N728 0.984 . S
H735 N728 0.984 . S
H736 N724 0.984 . S
H737 N724 0.985 . S
C738 C739 1.363 . S
C738 C744 1.379 . S
C738 N746 1.356 . S
C739 C738 1.363 . S
C739 C745 1.363 . S
C740 C741 1.363 . S
C740 C745 1.379 . S
C740 N747 1.356 . S
C741 C740 1.363 . S
C741 C744 1.363 . S
N742 C744 1.356 . S
N742 H754 0.984 . S
N742 H755 0.985 . S
N743 C745 1.356 . S
N743 H748 0.984 . S
N743 H749 0.985 . S
C744 C738 1.379 . S
C744 C741 1.363 . S
C744 N742 1.356 . S
C745 C739 1.363 . S
C745 C740 1.379 . S
C745 N743 1.356 . S
N746 C738 1.356 . S
N746 H752 0.984 . S
N746 H753 0.984 . S
N747 C740 1.356 . S
N747 H750 0.984 . S
N747 H751 0.985 . S
H748 N743 0.984 . S
H749 N743 0.985 . S
H750 N747 0.984 . S
H751 N747 0.985 . S
H752 N746 0.984 . S
H753 N746 0.984 . S
H754 N742 0.984 . S
H755 N742 0.985 . S
C756 C757 1.363 . S
C756 C762 1.379 . S
C756 N764 1.356 . S
C757 C756 1.363 . S
C757 C763 1.363 . S
C758 C759 1.363 . S
C758 C763 1.379 . S
C758 N765 1.356 . S
C759 C758 1.363 . S
C759 C762 1.363 . S
N760 C762 1.356 . S
N760 H772 0.984 1_556 S
N760 H773 0.985 . S
N761 C763 1.356 . S
N761 H766 0.984 . S
N761 H767 0.985 . S
C762 C756 1.379 . S
C762 C759 1.363 . S
C762 N760 1.356 . S
C763 C757 1.363 . S
C763 C758 1.379 . S
C763 N761 1.356 . S
N764 C756 1.356 . S
N764 H770 0.994 . S
N764 H771 0.984 . S
N765 C758 1.356 . S
N765 H768 0.984 . S
N765 H769 0.985 . S
H766 N761 0.984 . S
H767 N761 0.985 . S
H768 N765 0.984 . S
H769 N765 0.985 . S
H770 N764 0.994 . S
H771 N764 0.984 . S
H772 N760 0.984 1_554 S
H773 N760 0.985 . S
C774 C775 1.363 . S
C774 C780 1.379 . S
C774 N782 1.356 . S
C775 C774 1.363 . S
C775 C781 1.363 . S
C776 C777 1.363 . S
C776 C781 1.379 . S
C776 N783 1.356 . S
C777 C776 1.363 . S
C777 C780 1.363 . S
N778 C780 1.356 . S
N778 H790 0.984 1_554 S
N778 H791 0.985 . S
N779 C781 1.356 . S
N779 H784 0.984 . S
N779 H785 0.985 . S
C780 C774 1.379 . S
C780 C777 1.363 . S
C780 N778 1.356 . S
C781 C775 1.363 . S
C781 C776 1.379 . S
C781 N779 1.356 . S
N782 C774 1.356 . S
N782 H788 0.984 1_554 S
N782 H789 0.984 . S
N783 C776 1.356 . S
N783 H786 0.984 . S
N783 H787 0.985 . S
H784 N779 0.984 . S
H785 N779 0.985 . S
H786 N783 0.984 . S
H787 N783 0.985 . S
H788 N782 0.984 1_556 S
H789 N782 0.984 . S
H790 N778 0.984 1_556 S
H791 N778 0.985 . S
C792 C793 1.363 . S
C792 C798 1.379 . S
C792 N800 1.356 . S
C793 C792 1.363 . S
C793 C799 1.363 . S
C794 C795 1.363 . S
C794 C799 1.379 . S
C794 N801 1.356 . S
C795 C794 1.363 . S
C795 C798 1.363 . S
N796 C798 1.356 . S
N796 H808 0.984 . S
N796 H809 0.985 . S
N797 C799 1.356 . S
N797 H802 0.984 . S
N797 H803 0.985 . S
C798 C792 1.379 . S
C798 C795 1.363 . S
C798 N796 1.356 . S
C799 C793 1.363 . S
C799 C794 1.379 . S
C799 N797 1.356 . S
N800 C792 1.356 . S
N800 H806 0.984 . S
N800 H807 0.984 . S
N801 C794 1.356 . S
N801 H804 0.984 . S
N801 H805 0.985 . S
H802 N797 0.984 . S
H803 N797 0.985 . S
H804 N801 0.984 . S
H805 N801 0.985 . S
H806 N800 0.984 . S
H807 N800 0.984 . S
H808 N796 0.984 . S
H809 N796 0.985 . S
C810 C811 1.363 . S
C810 C816 1.379 . S
C810 N818 1.356 . S
C811 C810 1.363 . S
C811 C817 1.363 . S
C812 C813 1.363 . S
C812 C817 1.379 . S
C812 N819 1.356 . S
C813 C812 1.363 . S
C813 C816 1.363 . S
N814 C816 1.356 . S
N814 H826 0.984 . S
N814 H827 0.985 . S
N815 C817 1.356 . S
N815 H820 0.984 . S
N815 H821 0.985 . S
C816 C810 1.379 . S
C816 C813 1.363 . S
C816 N814 1.356 . S
C817 C811 1.363 . S
C817 C812 1.379 . S
C817 N815 1.356 . S
N818 C810 1.356 . S
N818 H824 0.984 . S
N818 H825 0.984 . S
N819 C812 1.356 . S
N819 H822 0.984 . S
N819 H823 0.985 . S
H820 N815 0.984 . S
H821 N815 0.985 . S
H822 N819 0.984 . S
H823 N819 0.985 . S
H824 N818 0.984 . S
H825 N818 0.984 . S
H826 N814 0.984 . S
H827 N814 0.985 . S
C828 C829 1.363 . S
C828 C834 1.379 . S
C828 N836 1.356 . S
C829 C828 1.363 . S
C829 C835 1.363 1_556 S
C830 C831 1.363 . S
C830 C835 1.379 . S
C830 N837 1.356 . S
C831 C830 1.363 . S
C831 C834 1.363 1_554 S
N832 C834 1.356 . S
N832 H844 0.984 . S
N832 H845 0.985 1_556 S
N833 C835 1.356 . S
N833 H838 0.984 1_554 S
N833 H839 0.985 . S
C834 C828 1.379 . S
C834 C831 1.363 1_556 S
C834 N832 1.356 . S
C835 C829 1.363 1_554 S
C835 C830 1.379 . S
C835 N833 1.356 . S
N836 C828 1.356 . S
N836 H842 0.984 . S
N836 H843 0.984 . S
N837 C830 1.356 . S
N837 H840 0.984 . S
N837 H841 0.985 . S
H838 N833 0.984 1_556 S
H839 N833 0.985 . S
H840 N837 0.984 . S
H841 N837 0.985 . S
H842 N836 0.984 . S
H843 N836 0.984 . S
H844 N832 0.984 . S
H845 N832 0.985 1_554 S
C846 C847 1.363 . S
C846 C852 1.379 . S
C846 N854 1.356 . S
C847 C846 1.363 . S
C847 C853 1.363 . S
C848 C849 1.363 . S
C848 C853 1.379 . S
C848 N855 1.356 . S
C849 C848 1.363 . S
C849 C852 1.363 . S
N850 C852 1.356 . S
N850 H862 0.984 . S
N850 H863 0.985 . S
N851 C853 1.356 . S
N851 H856 0.984 . S
N851 H857 0.985 . S
C852 C846 1.379 . S
C852 C849 1.363 . S
C852 N850 1.356 . S
C853 C847 1.363 . S
C853 C848 1.379 . S
C853 N851 1.356 . S
N854 C846 1.356 . S
N854 H860 0.984 . S
N854 H861 0.984 . S
N855 C848 1.356 . S
N855 H858 0.984 . S
N855 H859 0.985 . S
H856 N851 0.984 . S
H857 N851 0.985 . S
H858 N855 0.984 . S
H859 N855 0.985 . S
H860 N854 0.984 . S
H861 N854 0.984 . S
H862 N850 0.984 . S
H863 N850 0.985 . S
C864 C865 1.363 . S
C864 C870 1.379 . S
C864 N872 1.356 . S
C865 C864 1.363 . S
C865 C871 1.363 . S
C866 C867 1.363 . S
C866 C871 1.379 . S
C866 N873 1.356 . S
C867 C866 1.363 . S
C867 C870 1.363 . S
N868 C870 1.356 . S
N868 H880 0.984 . S
N868 H881 0.985 . S
N869 C871 1.356 . S
N869 H874 0.984 . S
N869 H875 0.985 . S
C870 C864 1.379 . S
C870 C867 1.363 . S
C870 N868 1.356 . S
C871 C865 1.363 . S
C871 C866 1.379 . S
C871 N869 1.356 . S
N872 C864 1.356 . S
N872 H878 0.984 . S
N872 H879 0.984 . S
N873 C866 1.356 . S
N873 H876 0.984 . S
N873 H877 0.985 . S
H874 N869 0.984 . S
H875 N869 0.985 . S
H876 N873 0.984 . S
H877 N873 0.985 . S
H878 N872 0.984 . S
H879 N872 0.984 . S
H880 N868 0.984 . S
H881 N868 0.985 . S
C882 C883 1.363 1_556 S
C882 C888 1.379 . S
C882 N890 1.356 . S
C883 C882 1.363 1_554 S
C883 C889 1.363 . S
C884 C885 1.363 1_554 S
C884 C889 1.379 . S
C884 N891 1.356 . S
C885 C884 1.363 1_556 S
C885 C888 1.363 . S
N886 C888 1.356 . S
N886 H898 0.984 . S
N886 H899 0.985 . S
N887 C889 1.356 . S
N887 H892 0.984 . S
N887 H893 0.985 . S
C888 C882 1.379 . S
C888 C885 1.363 . S
C888 N886 1.356 . S
C889 C883 1.363 . S
C889 C884 1.379 . S
C889 N887 1.356 . S
N890 C882 1.356 . S
N890 H896 0.984 . S
N890 H897 0.984 1_556 S
N891 C884 1.356 . S
N891 H894 0.984 1_554 S
N891 H895 0.985 . S
H892 N887 0.984 . S
H893 N887 0.985 . S
H894 N891 0.984 1_556 S
H895 N891 0.985 . S
H896 N890 0.984 . S
H897 N890 0.984 1_554 S
H898 N886 0.984 . S
H899 N886 0.985 . S
C900 C901 1.363 . S
C900 C906 1.379 . S
C900 N908 1.356 . S
C901 C900 1.363 . S
C901 C907 1.363 . S
C902 C903 1.363 . S
C902 C907 1.379 . S
C902 N909 1.356 . S
C903 C902 1.363 . S
C903 C906 1.363 . S
N904 C906 1.356 . S
N904 H916 0.984 . S
N904 H917 0.985 . S
N905 C907 1.356 . S
N905 H910 0.984 . S
N905 H911 0.985 . S
C906 C900 1.379 . S
C906 C903 1.363 . S
C906 N904 1.356 . S
C907 C901 1.363 . S
C907 C902 1.379 . S
C907 N905 1.356 . S
N908 C900 1.356 . S
N908 H914 0.984 . S
N908 H915 0.984 . S
N909 C902 1.356 . S
N909 H912 0.984 . S
N909 H913 0.985 . S
H910 N905 0.984 . S
H911 N905 0.985 . S
H912 N909 0.984 . S
H913 N909 0.985 . S
H914 N908 0.984 . S
H915 N908 0.984 . S
H916 N904 0.984 . S
H917 N904 0.985 . S
C918 C919 1.363 . S
C918 C924 1.379 . S
C918 N926 1.356 . S
C919 C918 1.363 . S
C919 C925 1.363 . S
C920 C921 1.363 . S
C920 C925 1.379 . S
C920 N927 1.356 . S
C921 C920 1.363 . S
C921 C924 1.363 . S
N922 C924 1.356 . S
N922 H934 0.984 . S
N922 H935 0.985 . S
N923 C925 1.356 . S
N923 H928 0.984 . S
N923 H929 0.985 . S
C924 C918 1.379 . S
C924 C921 1.363 . S
C924 N922 1.356 . S
C925 C919 1.363 . S
C925 C920 1.379 . S
C925 N923 1.356 . S
N926 C918 1.356 . S
N926 H932 0.984 . S
N926 H933 0.984 . S
N927 C920 1.356 . S
N927 H930 0.984 . S
N927 H931 0.985 . S
H928 N923 0.984 . S
H929 N923 0.985 . S
H930 N927 0.984 . S
H931 N927 0.985 . S
H932 N926 0.984 . S
H933 N926 0.984 . S
H934 N922 0.984 . S
H935 N922 0.985 . S
C397 C28 1.418 . S
C399 C391 1.418 . S
C415 C61 1.418 . S
C417 C226 1.418 . S
C433 C259 1.418 . S
C435 C94 1.418 . S
C451 C292 1.418 . S
C453 C127 1.418 . S
C469 C325 1.418 . S
C471 C160 1.418 . S
C487 C358 1.418 . S
C489 C193 1.418 . S
C505 N14 1.441 . S
C507 N5 1.444 . S
C523 N38 1.444 . S
C525 N47 1.441 . S
C541 N80 1.441 . S
C543 N71 1.444 . S
C559 N113 1.441 . S
C561 N104 1.444 . S
C577 N146 1.441 . S
C579 N137 1.444 . S
C595 N170 1.444 . S
C597 N179 1.441 . S
C613 N212 1.441 . S
C615 N203 1.444 . S
C631 N236 1.444 . S
C633 N245 1.441 . S
C649 N278 1.441 . S
C651 N269 1.444 . S
C667 N302 1.444 . S
C669 N311 1.441 . S
C685 N335 1.444 . S
C687 N344 1.441 . S
C703 N377 1.441 . S
C705 N368 1.444 . S
C721 C17 1.595 . S
C723 C281 1.595 . S
C739 C50 1.595 . S
C741 C314 1.595 . S
C757 C83 1.595 . S
C759 C347 1.595 . S
C775 C380 1.595 . S
C777 C116 1.595 . S
C793 C215 1.595 . S
C795 C149 1.595 . S
C811 C248 1.595 . S
C813 C182 1.595 . S
C829 C338 1.227 . S
C831 C8 1.227 . S
C847 C371 1.227 . S
C849 C41 1.227 . S
C865 C206 1.227 . S
C867 C74 1.227 . S
C883 C107 1.227 . S
C885 C239 1.227 . S
C901 C140 1.227 . S
C903 C272 1.227 . S
C919 C173 1.227 . S
C921 C305 1.227 . S
