# Generated by pormake.
# Topology snz, (6)-cn, num edge types: 1
# Building blocks:
#     Node 0, Type 0, BuildingBlock: MIFKUJ_clean_sbu_0, # of connection points: 6
#     Node 1, Type 0, BuildingBlock: MIFKUJ_clean_sbu_0, # of connection points: 6
#     Node 2, Type 0, BuildingBlock: MIFKUJ_clean_sbu_0, # of connection points: 6
#     Node 3, Type 0, BuildingBlock: MIFKUJ_clean_sbu_0, # of connection points: 6
#     Node 4, Type 0, BuildingBlock: MIFKUJ_clean_sbu_0, # of connection points: 6
#     Node 5, Type 0, BuildingBlock: MIFKUJ_clean_sbu_0, # of connection points: 6
#     Node 6, Type 0, BuildingBlock: MIFKUJ_clean_sbu_0, # of connection points: 6
#     Node 7, Type 0, BuildingBlock: MIFKUJ_clean_sbu_0, # of connection points: 6
#     Node 8, Type 0, BuildingBlock: MIFKUJ_clean_sbu_0, # of connection points: 6
#     Edge 9, Type (0, 0), BuildingBlock: XIVTED_clean_linker_0, # of connection points: 2
#     Edge 10, Type (0, 0), BuildingBlock: XIVTED_clean_linker_0, # of connection points: 2
#     Edge 11, Type (0, 0), BuildingBlock: XIVTED_clean_linker_0, # of connection points: 2
#     Edge 12, Type (0, 0), BuildingBlock: XIVTED_clean_linker_0, # of connection points: 2
#     Edge 13, Type (0, 0), BuildingBlock: XIVTED_clean_linker_0, # of connection points: 2
#     Edge 14, Type (0, 0), BuildingBlock: XIVTED_clean_linker_0, # of connection points: 2
#     Edge 15, Type (0, 0), BuildingBlock: XIVTED_clean_linker_0, # of connection points: 2
#     Edge 16, Type (0, 0), BuildingBlock: XIVTED_clean_linker_0, # of connection points: 2
#     Edge 17, Type (0, 0), BuildingBlock: XIVTED_clean_linker_0, # of connection points: 2
#     Edge 18, Type (0, 0), BuildingBlock: XIVTED_clean_linker_0, # of connection points: 2
#     Edge 19, Type (0, 0), BuildingBlock: XIVTED_clean_linker_0, # of connection points: 2
#     Edge 20, Type (0, 0), BuildingBlock: XIVTED_clean_linker_0, # of connection points: 2
#     Edge 21, Type (0, 0), BuildingBlock: XIVTED_clean_linker_0, # of connection points: 2
#     Edge 22, Type (0, 0), BuildingBlock: XIVTED_clean_linker_0, # of connection points: 2
#     Edge 23, Type (0, 0), BuildingBlock: XIVTED_clean_linker_0, # of connection points: 2
#     Edge 24, Type (0, 0), BuildingBlock: XIVTED_clean_linker_0, # of connection points: 2
#     Edge 25, Type (0, 0), BuildingBlock: XIVTED_clean_linker_0, # of connection points: 2
#     Edge 26, Type (0, 0), BuildingBlock: XIVTED_clean_linker_0, # of connection points: 2
#     Edge 27, Type (0, 0), BuildingBlock: XIVTED_clean_linker_0, # of connection points: 2
#     Edge 28, Type (0, 0), BuildingBlock: XIVTED_clean_linker_0, # of connection points: 2
#     Edge 29, Type (0, 0), BuildingBlock: XIVTED_clean_linker_0, # of connection points: 2
#     Edge 30, Type (0, 0), BuildingBlock: XIVTED_clean_linker_0, # of connection points: 2
#     Edge 31, Type (0, 0), BuildingBlock: XIVTED_clean_linker_0, # of connection points: 2
#     Edge 32, Type (0, 0), BuildingBlock: XIVTED_clean_linker_0, # of connection points: 2
#     Edge 33, Type (0, 0), BuildingBlock: XIVTED_clean_linker_0, # of connection points: 2
#     Edge 34, Type (0, 0), BuildingBlock: XIVTED_clean_linker_0, # of connection points: 2
#     Edge 35, Type (0, 0), BuildingBlock: XIVTED_clean_linker_0, # of connection points: 2
# Relax obj value: 0.115
# Max RMSD: 0.178
# Mean RMSD: 0.123
data_MOF--net-snz--node1-MIFKUJ_clean_sbu_0--edge1-XIVTED_clean_linker_0
_symmetry_space_group_name_H-M    P1
_symmetry_Int_Tables_number       1
_symmetry_cell_setting            triclinic
loop_
_symmetry_equiv_pos_as_xyz
'x, y, z'
_cell_length_a     58.112177
_cell_length_b     54.745543
_cell_length_c     14.7947
_cell_angle_alpha  93.712511
_cell_angle_beta   94.129951
_cell_angle_gamma 120.26765
loop_
_atom_site_label
_atom_site_type_symbol
_atom_site_fract_x
_atom_site_fract_y
_atom_site_fract_z
_atom_type_partial_charge
Zn0 Zn 0.04582 0.51717 0.99249 0.0
Zn1 Zn 0.07716 0.48189 0.99816 0.0
C2 C 0.08803 0.56833 0.09161 0.0
O3 O 0.07039 0.55978 0.15049 0.0
C4 C 0.03605 0.42794 0.89873 0.0
O5 O 0.04934 0.43893 0.82981 0.0
O6 O 0.02114 0.53296 0.97336 0.0
O7 O 0.04169 0.49547 0.8716 0.0
O8 O 0.08239 0.50191 0.88428 0.0
C9 C 0.02475 0.54681 0.90465 0.0
O10 O 0.0431 0.54907 0.85327 0.0
O11 O 0.08269 0.5526 0.01686 0.0
C12 C 0.10022 0.45398 0.07846 0.0
O13 O 0.07942 0.44765 0.12255 0.0
O14 O 0.10546 0.471 0.0181 0.0
O15 O 0.07867 0.50196 0.11965 0.0
O16 O 0.03824 0.49636 0.10455 0.0
O17 O 0.04304 0.44297 0.97586 0.0
C18 C 0.0622 0.49926 0.83517 0.0
C19 C 0.05798 0.49834 0.15462 0.0
Zn20 Zn 0.55029 0.47679 0.07225 0.0
Zn21 Zn 0.61464 0.50592 0.09893 0.0
C22 C 0.53065 0.4233 0.96555 0.0
O23 O 0.5283 0.43795 0.90237 0.0
C24 C 0.62314 0.55635 0.19451 0.0
O25 O 0.63349 0.54695 0.2552 0.0
O26 O 0.51417 0.47374 0.07244 0.0
O27 O 0.56858 0.4925 0.20188 0.0
O28 O 0.60164 0.48368 0.2059 0.0
C29 C 0.50232 0.46495 0.14265 0.0
O30 O 0.51436 0.45934 0.20971 0.0
O31 O 0.54054 0.43557 0.04642 0.0
C32 C 0.66533 0.51418 0.04526 0.0
O33 O 0.65006 0.49012 0.99224 0.0
O34 O 0.65465 0.52315 0.10025 0.0
O35 O 0.59844 0.48558 0.97294 0.0
O36 O 0.56762 0.49762 0.96518 0.0
O37 O 0.61185 0.54126 0.11799 0.0
C38 C 0.58467 0.48701 0.2463 0.0
C39 C 0.58342 0.49188 0.92615 0.0
Zn40 Zn 0.62138 0.02982 0.15211 0.0
Zn41 Zn 0.54931 0.02472 0.13611 0.0
C42 C 0.6154 0.97911 0.22354 0.0
O43 O 0.61743 0.99314 0.30202 0.0
C44 C 0.537 0.06909 0.10314 0.0
O45 O 0.56104 0.08215 0.07655 0.0
O46 O 0.66116 0.05383 0.14195 0.0
O47 O 0.60479 0.03409 0.03318 0.0
O48 O 0.56539 0.03135 0.01652 0.0
C49 C 0.66697 0.04587 0.06865 0.0
O50 O 0.64793 0.0235 0.01551 0.0
O51 O 0.61473 0.98979 0.15025 0.0
C52 C 0.50924 0.97663 0.20642 0.0
O53 O 0.52011 0.99493 0.28054 0.0
O54 O 0.51984 0.98376 0.13305 0.0
O55 O 0.57292 0.03673 0.25789 0.0
O56 O 0.61333 0.0415 0.27396 0.0
O57 O 0.52872 0.0454 0.13488 0.0
C58 C 0.58634 0.03478 0.98392 0.0
C59 C 0.5943 0.04269 0.30769 0.0
Zn60 Zn 0.74129 0.85584 0.3595 0.0
Zn61 Zn 0.77134 0.81286 0.35813 0.0
C62 C 0.7877 0.91475 0.36865 0.0
O63 O 0.79321 0.90621 0.29249 0.0
C64 C 0.72061 0.76476 0.27022 0.0
O65 O 0.7298 0.77597 0.19562 0.0
O66 O 0.70687 0.85631 0.3345 0.0
O67 O 0.75061 0.84672 0.23661 0.0
O68 O 0.77764 0.82916 0.23776 0.0
C69 C 0.70522 0.86866 0.26652 0.0
O70 O 0.72474 0.8784 0.2148 0.0
O71 O 0.768 0.89702 0.40687 0.0
C72 C 0.79504 0.77732 0.3323 0.0
O73 O 0.77896 0.76744 0.25514 0.0
O74 O 0.79593 0.7974 0.38363 0.0
O75 O 0.77853 0.839 0.47253 0.0
O76 O 0.73814 0.83326 0.4665 0.0
O77 O 0.73406 0.77773 0.34725 0.0
C78 C 0.76482 0.83901 0.19555 0.0
C79 C 0.75903 0.83656 0.51277 0.0
Zn80 Zn 0.20254 0.8281 0.26322 0.0
Zn81 Zn 0.26841 0.85838 0.28351 0.0
C82 C 0.194 0.77631 0.17529 0.0
O83 O 0.18472 0.78516 0.10937 0.0
C84 C 0.29047 0.91162 0.39348 0.0
O85 O 0.2929 0.89622 0.4537 0.0
O86 O 0.16313 0.81265 0.27536 0.0
O87 O 0.22196 0.85206 0.38303 0.0
O88 O 0.25108 0.83775 0.3909 0.0
C89 C 0.1565 0.80061 0.34769 0.0
O90 O 0.17489 0.79978 0.40225 0.0
O91 O 0.2046 0.79221 0.25079 0.0
C92 C 0.31535 0.86905 0.20836 0.0
O93 O 0.30328 0.87558 0.14408 0.0
O94 O 0.30392 0.86009 0.27921 0.0
O95 O 0.24944 0.84375 0.154 0.0
O96 O 0.213 0.84706 0.14844 0.0
O97 O 0.27963 0.89998 0.31265 0.0
C98 C 0.23617 0.8448 0.43013 0.0
C99 C 0.23118 0.84587 0.10874 0.0
Zn100 Zn 0.27051 0.30652 0.22874 0.0
Zn101 Zn 0.19515 0.29568 0.21324 0.0
C102 C 0.28357 0.26303 0.2683 0.0
O103 O 0.26017 0.25075 0.29968 0.0
C104 C 0.17778 0.32846 0.13648 0.0
O105 O 0.16497 0.30371 0.08558 0.0
O106 O 0.29994 0.34741 0.2302 0.0
O107 O 0.24645 0.29385 0.10779 0.0
O108 O 0.20464 0.2853 0.09251 0.0
C109 C 0.30841 0.35686 0.15576 0.0
O110 O 0.29542 0.34091 0.07837 0.0
O111 O 0.29112 0.28582 0.23146 0.0
C112 C 0.14978 0.27583 0.29974 0.0
O113 O 0.16786 0.29943 0.35029 0.0
O114 O 0.15618 0.26795 0.22768 0.0
O115 O 0.21448 0.29594 0.33386 0.0
O116 O 0.25496 0.30122 0.34904 0.0
O117 O 0.19533 0.33245 0.20151 0.0
C118 C 0.22455 0.2863 0.0583 0.0
C119 C 0.23413 0.2975 0.38314 0.0
Zn120 Zn 0.39063 0.1584 0.7593 0.0
Zn121 Zn 0.43377 0.17682 0.60371 0.0
C122 C 0.40696 0.12526 0.86569 0.0
O123 O 0.38129 0.10585 0.85229 0.0
C124 C 0.41648 0.20958 0.49822 0.0
O125 O 0.44214 0.22903 0.50811 0.0
O126 O 0.35671 0.14848 0.81675 0.0
O127 O 0.41083 0.2009 0.75472 0.0
O128 O 0.44814 0.20288 0.72215 0.0
C129 C 0.34949 0.14573 0.89649 0.0
O130 O 0.32424 0.137 0.90519 0.0
O131 O 0.41502 0.14885 0.83355 0.0
C132 C 0.47485 0.19004 0.46544 0.0
O133 O 0.50016 0.19901 0.45691 0.0
O134 O 0.46761 0.18717 0.54512 0.0
O135 O 0.41383 0.13432 0.60724 0.0
O136 O 0.37642 0.13181 0.64175 0.0
O137 O 0.40893 0.18628 0.53181 0.0
C138 C 0.43618 0.21476 0.75564 0.0
C139 C 0.3885 0.12025 0.60695 0.0
Zn140 Zn 0.92725 0.18098 0.61002 0.0
Zn141 Zn 0.89212 0.15886 0.76578 0.0
C142 C 0.97518 0.18908 0.55876 0.0
O143 O 0.97268 0.17709 0.63444 0.0
C144 C 0.84373 0.14737 0.82257 0.0
O145 O 0.8443 0.1582 0.74543 0.0
O146 O 0.89823 0.18942 0.56679 0.0
O147 O 0.91052 0.13826 0.60659 0.0
O148 O 0.87287 0.13239 0.64992 0.0
C149 C 0.88778 0.19117 0.49073 0.0
O150 O 0.86965 0.19878 0.49142 0.0
O151 O 0.95684 0.19371 0.52874 0.0
C152 C 0.93401 0.15139 0.87999 0.0
O153 O 0.95281 0.14477 0.87849 0.0
O154 O 0.92268 0.15221 0.80432 0.0
O155 O 0.90663 0.20088 0.7606 0.0
O156 O 0.94525 0.20641 0.73011 0.0
O157 O 0.86381 0.14552 0.85219 0.0
C158 C 0.88541 0.12252 0.60872 0.0
C159 C 0.93188 0.2167 0.76287 0.0
Zn160 Zn 0.89253 0.67191 0.77068 0.0
Zn161 Zn 0.91791 0.64621 0.53299 0.0
C162 C 0.84028 0.6517 0.83615 0.0
O163 O 0.8466 0.67841 0.83809 0.0
C164 C 0.97265 0.69114 0.5401 0.0
O165 O 0.96688 0.69951 0.616 0.0
O166 O 0.90562 0.71188 0.8295 0.0
O167 O 0.91745 0.65759 0.81314 0.0
O168 O 0.91965 0.65058 0.66919 0.0
C169 C 0.90803 0.71978 0.91418 0.0
O170 O 0.91438 0.746 0.9407 0.0
O171 O 0.85624 0.64435 0.80738 0.0
C172 C 0.88684 0.59497 0.40335 0.0
O173 O 0.87196 0.56735 0.38014 0.0
O174 O 0.89815 0.60449 0.48484 0.0
O175 O 0.8963 0.66385 0.48994 0.0
O176 O 0.89032 0.67162 0.6314 0.0
O177 O 0.95484 0.66815 0.4927 0.0
C178 C 0.92594 0.64832 0.75064 0.0
C179 C 0.88672 0.67375 0.54692 0.0
H180 H 0.1007 0.50279 0.73073 0.0
H181 H 0.01929 0.49524 0.25808 0.0
H182 H 0.02299 0.49564 0.71095 0.0
H183 H 0.09646 0.50107 0.27957 0.0
H184 H 0.02018 0.49547 0.42382 0.0
H185 H 0.09949 0.50243 0.56523 0.0
C186 C 0.08339 0.50117 0.69168 0.0
C187 C 0.06191 0.49922 0.73495 0.0
C188 C 0.0369 0.49669 0.39217 0.0
C189 C 0.06038 0.49879 0.54516 0.0
C190 C 0.0364 0.49654 0.29751 0.0
C191 C 0.05784 0.49818 0.25469 0.0
C192 C 0.059 0.49848 0.44442 0.0
C193 C 0.07949 0.49985 0.30943 0.0
C194 C 0.08269 0.50094 0.59708 0.0
C195 C 0.03999 0.49713 0.68062 0.0
N196 N 0.07951 0.49996 0.40124 0.0
N197 N 0.0398 0.49698 0.58867 0.0
H198 H 0.55206 0.50125 0.80241 0.0
H199 H 0.6166 0.47741 0.36818 0.0
H200 H 0.61508 0.48117 0.82127 0.0
H201 H 0.55341 0.49725 0.35356 0.0
H202 H 0.61654 0.47855 0.53403 0.0
H203 H 0.55245 0.4998 0.6373 0.0
C204 C 0.56602 0.49659 0.77193 0.0
C205 C 0.58357 0.49136 0.82596 0.0
C206 C 0.60266 0.4826 0.49433 0.0
C207 C 0.58412 0.48961 0.63653 0.0
C208 C 0.60268 0.48193 0.39964 0.0
C209 C 0.58493 0.48714 0.3466 0.0
C210 C 0.58478 0.48855 0.53623 0.0
C211 C 0.56739 0.49296 0.39129 0.0
C212 C 0.56622 0.49572 0.67751 0.0
C213 C 0.60117 0.48534 0.78242 0.0
N214 N 0.56778 0.4935 0.48324 0.0
N215 N 0.601 0.48464 0.69033 0.0
H216 H 0.62884 0.04452 0.88991 0.0
H217 H 0.557 0.04502 0.40671 0.0
H218 H 0.55033 0.03519 0.85306 0.0
H219 H 0.63342 0.04931 0.44067 0.0
H220 H 0.55602 0.0455 0.57157 0.0
H221 H 0.63234 0.04982 0.72802 0.0
C222 C 0.61229 0.04357 0.84803 0.0
C223 C 0.58912 0.03911 0.88576 0.0
C224 C 0.57311 0.04656 0.54312 0.0
C225 C 0.59314 0.04542 0.69912 0.0
C226 C 0.57376 0.04639 0.44869 0.0
C227 C 0.59528 0.04698 0.40893 0.0
C228 C 0.59413 0.04733 0.59898 0.0
C229 C 0.61638 0.04881 0.46768 0.0
C230 C 0.61436 0.04668 0.75529 0.0
C231 C 0.56854 0.03843 0.82745 0.0
N232 N 0.61518 0.04873 0.55934 0.0
N233 N 0.571 0.04144 0.73732 0.0
H234 H 0.79693 0.83516 0.6307 0.0
H235 H 0.73365 0.8505 0.07878 0.0
H236 H 0.72496 0.83996 0.62537 0.0
H237 H 0.7963 0.82992 0.08309 0.0
H238 H 0.73278 0.85055 0.91404 0.0
H239 H 0.79928 0.83664 0.79692 0.0
C240 C 0.78163 0.83658 0.66438 0.0
C241 C 0.76068 0.83742 0.6137 0.0
C242 C 0.74679 0.8461 0.9509 0.0
C243 C 0.76337 0.83924 0.80441 0.0
C244 C 0.74744 0.84624 0.0454 0.0
C245 C 0.76519 0.84034 0.09552 0.0
C246 C 0.76407 0.84011 0.90541 0.0
C247 C 0.7823 0.83463 0.04756 0.0
C248 C 0.78298 0.83736 0.75937 0.0
C249 C 0.74142 0.83917 0.66135 0.0
N250 N 0.78133 0.83468 0.95527 0.0
N251 N 0.74327 0.8401 0.75385 0.0
H252 H 0.26657 0.83447 0.55481 0.0
H253 H 0.19776 0.85302 0.98496 0.0
H254 H 0.20394 0.85508 0.53352 0.0
H255 H 0.26388 0.83776 1.00269 0.0
H256 H 0.19855 0.85264 0.81926 0.0
H257 H 0.26484 0.83449 0.71919 0.0
C258 C 0.25243 0.83898 0.58463 0.0
C259 C 0.2354 0.8448 0.53011 0.0
C260 C 0.21289 0.84943 0.85967 0.0
C261 C 0.23325 0.84483 0.7188 0.0
C262 C 0.21242 0.84961 0.95424 0.0
C263 C 0.23086 0.84558 0.00822 0.0
C264 C 0.23186 0.84507 0.8188 0.0
C265 C 0.24938 0.84119 0.96439 0.0
C266 C 0.25146 0.83902 0.67865 0.0
C267 C 0.21751 0.85055 0.57284 0.0
N268 N 0.24938 0.84106 0.87263 0.0
N269 N 0.21688 0.85039 0.66455 0.0
H270 H 0.27225 0.30042 0.51243 0.0
H271 H 0.184 0.27688 0.92684 0.0
H272 H 0.19187 0.28626 0.48072 0.0
H273 H 0.26353 0.28864 0.95759 0.0
H274 H 0.18565 0.27786 0.76241 0.0
H275 H 0.26885 0.29458 0.67432 0.0
C276 C 0.25388 0.29614 0.53925 0.0
C277 C 0.23239 0.29408 0.48223 0.0
C278 C 0.20267 0.28001 0.805 0.0
C279 C 0.22833 0.28721 0.66856 0.0
C280 C 0.20169 0.27929 0.89915 0.0
C281 C 0.22371 0.2828 0.95695 0.0
C282 C 0.22585 0.28434 0.76772 0.0
C283 C 0.24609 0.28597 0.91633 0.0
C284 C 0.25194 0.29273 0.63194 0.0
C285 C 0.20907 0.28832 0.52156 0.0
N286 N 0.24664 0.28686 0.82466 0.0
N287 N 0.20771 0.28517 0.61195 0.0
H288 H 0.48691 0.21478 0.30909 0.0
H289 H 0.33749 0.12055 0.05211 0.0
H290 H 0.42065 0.1515 0.43311 0.0
H291 H 0.40362 0.18446 0.9293 0.0
H292 H 0.36762 0.1314 0.19179 0.0
H293 H 0.45678 0.20382 0.16939 0.0
C294 C 0.46591 0.19868 0.30705 0.0
C295 C 0.45612 0.18431 0.38323 0.0
C296 C 0.37564 0.14295 0.1342 0.0
C297 C 0.42153 0.17147 0.2231 0.0
C298 C 0.35846 0.13676 0.05442 0.0
C299 C 0.36821 0.15134 0.97859 0.0
C300 C 0.4028 0.16406 0.13863 0.0
C301 C 0.39546 0.17226 0.98541 0.0
C302 C 0.44873 0.19243 0.22723 0.0
C303 C 0.42884 0.16354 0.37671 0.0
N304 N 0.41183 0.178 0.06411 0.0
N305 N 0.41246 0.15773 0.29794 0.0
H306 H 0.90791 0.15655 0.44776 0.0
H307 H 0.91344 0.18546 0.92341 0.0
H308 H 0.8844 0.21214 0.33212 0.0
H309 H 0.93844 0.13105 0.0391 0.0
H310 H 0.90205 0.195 0.07232 0.0
H311 H 0.91953 0.14703 0.29911 0.0
C312 C 0.90564 0.16712 0.39156 0.0
C313 C 0.89572 0.18559 0.40275 0.0
C314 C 0.90991 0.18085 0.06512 0.0
C315 C 0.90809 0.17418 0.23173 0.0
C316 C 0.91611 0.17517 0.97977 0.0
C317 C 0.92633 0.15699 0.96846 0.0
C318 C 0.91421 0.16843 0.13988 0.0
C319 C 0.93043 0.14509 0.04479 0.0
C320 C 0.91197 0.16145 0.30637 0.0
C321 C 0.89213 0.19785 0.32657 0.0
N322 N 0.92431 0.15096 0.12722 0.0
N323 N 0.89834 0.19196 0.24438 0.0
H324 H 0.93297 0.6326 0.34 0.0
H325 H 0.86863 0.7004 0.02547 0.0
H326 H 0.8479 0.60047 0.30996 0.0
H327 H 0.9377 0.696 0.96161 0.0
H328 H 0.86289 0.66983 0.14692 0.0
H329 H 0.93781 0.66304 0.21922 0.0
C330 C 0.91543 0.6324 0.30882 0.0
C331 C 0.89009 0.61446 0.33511 0.0
C332 C 0.87912 0.67533 0.10562 0.0
C333 C 0.89531 0.64868 0.19712 0.0
C334 C 0.88236 0.69266 0.0366 0.0
C335 C 0.90324 0.69996 0.9826 0.0
C336 C 0.89749 0.66615 0.12238 0.0
C337 C 0.92091 0.69006 1.00043 0.0
C338 C 0.91811 0.64943 0.23942 0.0
C339 C 0.86777 0.6142 0.29131 0.0
N340 N 0.91778 0.67379 0.06941 0.0
N341 N 0.87089 0.63126 0.22466 0.0
H342 H 0.12901 0.31665 0.06074 0.0
H343 H 0.15196 0.46989 0.04726 0.0
H344 H 0.2054 0.38665 0.18773 0.0
H345 H 0.08064 0.40207 0.13679 0.0
H346 H 0.17358 0.44113 0.06367 0.0
H347 H 0.11225 0.34924 0.04862 0.0
C348 C 0.1424 0.33897 0.08522 0.0
C349 C 0.16864 0.34897 0.12556 0.0
C350 C 0.1533 0.43287 0.08028 0.0
C351 C 0.14953 0.38636 0.11068 0.0
C352 C 0.14095 0.44909 0.07058 0.0
C353 C 0.11452 0.43831 0.09087 0.0
C354 C 0.13868 0.40554 0.10753 0.0
C355 C 0.10109 0.41129 0.12095 0.0
C356 C 0.13273 0.35747 0.07863 0.0
C357 C 0.18499 0.37813 0.15665 0.0
N358 N 0.11317 0.39569 0.12709 0.0
N359 N 0.1752 0.39599 0.14806 0.0
H360 H 0.63917 0.59015 0.35681 0.0
H361 H 0.68768 0.7309 0.11698 0.0
H362 H 0.61994 0.58982 0.06937 0.0
H363 H 0.70241 0.73042 0.40686 0.0
H364 H 0.65663 0.67953 0.1017 0.0
H365 H 0.65593 0.64114 0.37989 0.0
C366 C 0.63811 0.60075 0.29866 0.0
C367 C 0.62853 0.5858 0.21078 0.0
C368 C 0.66632 0.6907 0.16889 0.0
C369 C 0.64806 0.64437 0.23654 0.0
C370 C 0.68406 0.72009 0.17774 0.0
C371 C 0.69805 0.73496 0.26316 0.0
C372 C 0.66268 0.676 0.24589 0.0
C373 C 0.69231 0.71982 0.3395 0.0
C374 C 0.6477 0.62991 0.3119 0.0
C375 C 0.62733 0.60056 0.1382 0.0
N376 N 0.67539 0.69113 0.32883 0.0
N377 N 0.63743 0.62915 0.15244 0.0
H378 H 0.477 0.93767 0.0597 0.0
H379 H 0.34105 0.87888 0.05648 0.0
H380 H 0.47953 0.95785 0.34852 0.0
H381 H 0.3528 0.87423 0.34473 0.0
H382 H 0.38843 0.89701 0.04918 0.0
H383 H 0.42933 0.90242 0.05302 0.0
C384 C 0.46759 0.93451 0.1219 0.0
C385 C 0.48213 0.95132 0.2043 0.0
C386 C 0.38073 0.89122 0.11367 0.0
C387 C 0.42726 0.91182 0.19658 0.0
C388 C 0.35357 0.88111 0.11803 0.0
C389 C 0.34302 0.87534 0.20155 0.0
C390 C 0.39763 0.8958 0.19373 0.0
C391 C 0.36014 0.87852 0.27897 0.0
C392 C 0.44022 0.91461 0.11784 0.0
C393 C 0.46899 0.94584 0.28304 0.0
N394 N 0.38672 0.88906 0.2735 0.0
N395 N 0.44223 0.92689 0.27695 0.0
H396 H 0.48389 0.04376 0.12915 0.0
H397 H 0.46174 0.15918 0.89348 0.0
H398 H 0.54756 0.11861 0.03461 0.0
H399 H 0.39694 0.0779 0.94781 0.0
H400 H 0.49391 0.1477 0.9641 0.0
H401 H 0.45244 0.05918 0.08295 0.0
C402 C 0.49136 0.06361 0.0996 0.0
C403 C 0.51842 0.0798 0.0851 0.0
C404 C 0.47265 0.13243 0.96097 0.0
C405 C 0.48239 0.0975 0.03162 0.0
C406 C 0.45424 0.13897 0.92072 0.0
C407 C 0.42656 0.11934 0.91383 0.0
C408 C 0.46337 0.10609 0.99497 0.0
C409 C 0.41807 0.09358 0.95089 0.0
C410 C 0.47333 0.07234 0.07292 0.0
C411 C 0.52687 0.10535 0.04662 0.0
N412 N 0.4364 0.08765 0.98947 0.0
N413 N 0.5089 0.11331 0.02077 0.0
H414 H 0.91131 0.25122 0.7398 0.0
H415 H 0.03212 0.39103 0.0201 0.0
H416 H 0.98233 0.25212 0.85225 0.0
H417 H 0.99775 0.39464 0.75669 0.0
H418 H 0.00513 0.33869 0.99419 0.0
H419 H 0.93452 0.3031 0.78033 0.0
C420 C 0.93165 0.26231 0.77415 0.0
C421 C 0.94504 0.24751 0.79254 0.0
C422 C 0.00326 0.35107 0.94298 0.0
C423 C 0.97121 0.30634 0.84057 0.0
C424 C 0.01838 0.3808 0.95794 0.0
C425 C 0.01695 0.39701 0.89047 0.0
C426 C 0.98611 0.33765 0.8613 0.0
C427 C 0.99929 0.38279 0.81029 0.0
C428 C 0.94482 0.29179 0.79676 0.0
C429 C 0.97144 0.26285 0.83649 0.0
N430 N 0.98438 0.35384 0.79803 0.0
N431 N 0.98365 0.29149 0.85973 0.0
H432 H 0.81645 0.59357 0.81593 0.0
H433 H 0.69943 0.56966 0.11765 0.0
H434 H 0.80808 0.6619 0.93911 0.0
H435 H 0.69528 0.50257 0.93406 0.0
H436 H 0.74329 0.60279 0.07294 0.0
H437 H 0.77564 0.55922 0.8766 0.0
C438 C 0.80604 0.60135 0.85574 0.0
C439 C 0.81554 0.63065 0.87174 0.0
C440 C 0.73287 0.58077 0.04298 0.0
C441 C 0.76906 0.59148 0.94223 0.0
C442 C 0.70788 0.56175 0.06891 0.0
C443 C 0.69351 0.53328 0.02902 0.0
C444 C 0.74371 0.57127 0.97713 0.0
C445 C 0.70555 0.52435 0.96618 0.0
C446 C 0.78276 0.58173 0.89032 0.0
C447 C 0.80131 0.63951 0.92416 0.0
N448 N 0.7299 0.54331 0.94183 0.0
N449 N 0.77882 0.62002 0.95761 0.0
H450 H 0.95068 0.63035 0.63503 0.0
H451 H 0.99194 0.55565 0.01032 0.0
H452 H 0.93588 0.6337 0.91605 0.0
H453 H 0.02252 0.57032 0.7496 0.0
H454 H 0.96806 0.58072 0.97328 0.0
H455 H 0.97437 0.60522 0.67237 0.0
C456 C 0.95249 0.62589 0.7046 0.0
C457 C 0.94131 0.63417 0.77251 0.0
C458 C 0.98001 0.57842 0.92426 0.0
C459 C 0.96814 0.60515 0.81557 0.0
C460 C 0.99354 0.56401 0.94521 0.0
C461 C 0.0093 0.56092 0.88308 0.0
C462 C 0.98205 0.58956 0.84023 0.0
C463 C 0.01071 0.57228 0.79979 0.0
C464 C 0.96601 0.61154 0.72591 0.0
C465 C 0.94424 0.62778 0.86156 0.0
N466 N 0.99724 0.58602 0.78077 0.0
N467 N 0.95725 0.61354 0.8804 0.0
H468 H 0.5073 0.38084 0.07557 0.0
H469 H 0.4829 0.25595 0.70317 0.0
H470 H 0.529 0.39581 0.80334 0.0
H471 H 0.42534 0.24279 0.89118 0.0
H472 H 0.50813 0.30677 0.76011 0.0
H473 H 0.4852 0.32922 0.02937 0.0
C474 C 0.50779 0.37326 1.00665 0.0
C475 C 0.51991 0.3925 0.94297 0.0
C476 C 0.49005 0.29269 0.78913 0.0
C477 C 0.49509 0.33394 0.89048 0.0
C478 C 0.47572 0.26373 0.75704 0.0
C479 C 0.45195 0.24522 0.79229 0.0
C480 C 0.48092 0.30311 0.85846 0.0
C481 C 0.44346 0.25645 0.8617 0.0
C482 C 0.49503 0.34392 0.98028 0.0
C483 C 0.51976 0.38164 0.85428 0.0
N484 N 0.45804 0.2847 0.89301 0.0
N485 N 0.50765 0.35308 0.83073 0.0
H486 H 0.83657 0.1308 0.99568 0.0
H487 H 0.6785 0.04843 0.89451 0.0
H488 H 0.79446 0.13612 0.7521 0.0
H489 H 0.71614 0.08084 0.17188 0.0
H490 H 0.72222 0.07505 0.84067 0.0
H491 H 0.7939 0.10783 0.06266 0.0
C492 C 0.81845 0.12728 0.95659 0.0
C493 C 0.81902 0.13522 0.86795 0.0
C494 C 0.72096 0.07643 0.91335 0.0
C495 C 0.77053 0.10884 0.94328 0.0
C496 C 0.69604 0.06111 0.94424 0.0
C497 C 0.69372 0.06243 0.03784 0.0
C498 C 0.74398 0.09285 0.97637 0.0
C499 C 0.71713 0.0794 0.09909 0.0
C500 C 0.79423 0.11433 0.99493 0.0
C501 C 0.79503 0.13033 0.82047 0.0
N502 N 0.74146 0.09382 0.06731 0.0
N503 N 0.77177 0.11718 0.85825 0.0
H504 H 0.6221 0.95121 0.07637 0.0
H505 H 0.67142 0.86836 0.3877 0.0
H506 H 0.61837 0.95106 0.36676 0.0
H507 H 0.69107 0.88599 0.11455 0.0
H508 H 0.64206 0.88826 0.37106 0.0
H509 H 0.6371 0.91684 0.08006 0.0
C510 C 0.62394 0.94358 0.14068 0.0
C511 C 0.6194 0.95443 0.2217 0.0
C512 C 0.6525 0.88736 0.31435 0.0
C513 C 0.63677 0.9152 0.22637 0.0
C514 C 0.66916 0.87589 0.32364 0.0
C515 C 0.684 0.87591 0.25285 0.0
C516 C 0.65056 0.8987 0.23352 0.0
C517 C 0.68029 0.88594 0.17135 0.0
C518 C 0.63263 0.92403 0.14276 0.0
C519 C 0.62199 0.94358 0.30285 0.0
N520 N 0.66414 0.89715 0.16422 0.0
N521 N 0.63082 0.92483 0.30334 0.0
H522 H 0.19166 0.74362 0.31123 0.0
H523 H 0.1195 0.59997 0.96575 0.0
H524 H 0.18127 0.74087 0.01827 0.0
H525 H 0.10963 0.60357 0.25174 0.0
H526 H 0.15285 0.651 0.98839 0.0
H527 H 0.17249 0.6919 0.29361 0.0
C528 C 0.18593 0.73224 0.24319 0.0
C529 C 0.18768 0.74646 0.16609 0.0
C530 C 0.14367 0.64049 0.0464 0.0
C531 C 0.16571 0.68745 0.14557 0.0
C532 C 0.12473 0.61135 0.03364 0.0
C533 C 0.11148 0.59762 0.10673 0.0
C534 C 0.14952 0.6559 0.13295 0.0
C535 C 0.11908 0.61342 0.19323 0.0
C536 C 0.17486 0.70273 0.23321 0.0
C537 C 0.17991 0.73066 0.07957 0.0
N538 N 0.13741 0.64178 0.20379 0.0
N539 N 0.16902 0.70197 0.07164 0.0
H540 H 0.46578 0.45912 1.00168 0.0
H541 H 0.34476 0.38984 0.30426 0.0
H542 H 0.47508 0.45474 0.29122 0.0
H543 H 0.33422 0.38094 0.0097 0.0
H544 H 0.39239 0.42412 0.30317 0.0
H545 H 0.41776 0.4406 1.00667 0.0
C546 C 0.45782 0.45473 0.06651 0.0
C547 C 0.47433 0.45801 0.14588 0.0
C548 C 0.37957 0.415 0.23878 0.0
C549 C 0.41957 0.43687 0.15206 0.0
C550 C 0.35232 0.3955 0.23934 0.0
C551 C 0.33556 0.38203 0.15686 0.0
C552 C 0.39016 0.42104 0.15519 0.0
C553 C 0.34648 0.39044 0.07492 0.0
C554 C 0.43042 0.4441 0.06928 0.0
C555 C 0.46299 0.45209 0.22808 0.0
N556 N 0.37318 0.40908 0.07609 0.0
N557 N 0.43629 0.44155 0.22886 0.0
H558 H 0.87034 0.67555 0.3708 0.0
H559 H 0.82201 0.78515 0.50133 0.0
H560 H 0.87117 0.70545 0.64904 0.0
H561 H 0.80176 0.73748 0.23489 0.0
H562 H 0.84411 0.75978 0.55408 0.0
H563 H 0.8487 0.70126 0.31773 0.0
C564 C 0.86591 0.68747 0.42085 0.0
C565 C 0.87259 0.68834 0.51465 0.0
C566 C 0.83486 0.75491 0.48406 0.0
C567 C 0.84801 0.71808 0.45401 0.0
C568 C 0.82237 0.76951 0.45365 0.0
C569 C 0.80998 0.76344 0.36343 0.0
C570 C 0.83523 0.73427 0.42367 0.0
C571 C 0.811 0.74284 0.305 0.0
C572 C 0.85353 0.70213 0.39039 0.0
C573 C 0.86633 0.70414 0.57617 0.0
N574 N 0.82343 0.72904 0.33607 0.0
N575 N 0.85452 0.71851 0.54474 0.0
H576 H 0.39953 0.09315 0.4691 0.0
H577 H 0.29305 0.93784 0.55926 0.0
H578 H 0.34198 0.0784 0.65854 0.0
H579 H 0.31433 0.95521 0.28774 0.0
H580 H 0.3155 0.98916 0.60662 0.0
H581 H 0.37337 0.04226 0.41019 0.0
C582 C 0.38142 0.0792 0.49818 0.0
C583 C 0.37287 0.08992 0.56876 0.0
C584 C 0.31504 0.98171 0.53649 0.0
C585 C 0.34328 0.03199 0.50293 0.0
C586 C 0.30231 0.95251 0.50951 0.0
C587 C 0.30179 0.94238 0.41946 0.0
C588 C 0.32804 1.00094 0.47369 0.0
C589 C 0.31411 0.96224 0.35762 0.0
C590 C 0.36646 0.05031 0.46422 0.0
C591 C 0.34918 0.07101 0.60377 0.0
N592 N 0.32713 0.99068 0.38623 0.0
N593 N 0.3354 0.0429 0.57133 0.0
H594 H 0.02169 0.19316 0.62855 0.0
H595 H 0.10054 0.24416 0.19514 0.0
H596 H 0.98469 0.206 0.38686 0.0
H597 H 0.13847 0.26973 0.47339 0.0
H598 H 0.05629 0.22007 0.25237 0.0
H599 H 0.06314 0.21075 0.55917 0.0
C600 C 0.0222 0.1995 0.56052 0.0
C601 C -0.00024 0.1984 0.51382 0.0
C602 C 0.0744 0.23084 0.30041 0.0
C603 C 0.04726 0.21838 0.43374 0.0
C604 C 0.09953 0.24434 0.26798 0.0
C605 C 0.12305 0.25894 0.32986 0.0
C606 C 0.07309 0.23147 0.39496 0.0
C607 C 0.12078 0.25884 0.4235 0.0
C608 C 0.04592 0.2096 0.52111 0.0
C609 C 0.00165 0.20683 0.42559 0.0
N610 N 0.09629 0.24524 0.45313 0.0
N611 N 0.02508 0.21652 0.38818 0.0
H612 H 0.3617 0.17592 0.48029 0.0
H613 H 0.33596 0.28749 0.23375 0.0
H614 H 0.42523 0.25576 0.41109 0.0
H615 H 0.27434 0.2151 0.3452 0.0
H616 H 0.36799 0.27274 0.27902 0.0
H617 H 0.32873 0.18671 0.4125 0.0
C618 C 0.36875 0.19566 0.45038 0.0
C619 C 0.39633 0.2151 0.45219 0.0
C620 C 0.34742 0.25998 0.293 0.0
C621 C 0.35857 0.22754 0.37423 0.0
C622 C 0.32906 0.26832 0.26685 0.0
C623 C 0.30241 0.25262 0.28626 0.0
C624 C 0.33911 0.2357 0.33865 0.0
C625 C 0.29469 0.22795 0.32927 0.0
C626 C 0.34987 0.20181 0.41177 0.0
C627 C 0.4042 0.24026 0.41193 0.0
N628 N 0.31297 0.22034 0.3544 0.0
N629 N 0.38543 0.2458 0.37494 0.0
H630 H 0.77614 0.94078 0.5074 0.0
H631 H 0.90341 0.0959 0.49481 0.0
H632 H 0.83356 0.95832 0.31512 0.0
H633 H 0.83509 0.08009 0.6331 0.0
H634 H 0.88017 0.04527 0.43618 0.0
H635 H 0.79986 0.99135 0.56382 0.0
C636 C 0.79384 0.95523 0.47729 0.0
C637 C 0.80285 0.94524 0.40623 0.0
C638 C 0.87026 0.05294 0.4791 0.0
C639 C 0.83013 0.00336 0.47071 0.0
C640 C 0.88352 0.08181 0.5127 0.0
C641 C 0.8712 0.09226 0.56911 0.0
C642 C 0.84463 0.03431 0.5029 0.0
C643 C 0.84535 0.07303 0.58972 0.0
C644 C 0.8073 0.98417 0.50931 0.0
C645 C 0.82587 0.96507 0.36984 0.0
N646 N 0.83302 0.045 0.55709 0.0
N647 N 0.83875 0.99318 0.4026 0.0
H648 H 0.01821 0.73347 0.64175 0.0
H649 H 0.10911 0.77771 0.23322 0.0
H650 H 0.98797 0.68877 0.36983 0.0
H651 H 0.141 0.79263 0.5168 0.0
H652 H 0.06337 0.7518 0.27752 0.0
H653 H 0.06242 0.76217 0.59203 0.0
C654 C 0.02085 0.72973 0.57148 0.0
C655 C 0.99943 0.70856 0.51002 0.0
C656 C 0.08046 0.76092 0.32977 0.0
C657 C 0.04996 0.74159 0.45242 0.0
C658 C 0.10646 0.77583 0.30467 0.0
C659 C 0.12878 0.78718 0.37148 0.0
C660 C 0.07694 0.75795 0.42228 0.0
C661 C 0.12433 0.78401 0.46305 0.0
C662 C 0.04611 0.7461 0.5432 0.0
C663 C 0.00404 0.7047 0.41965 0.0
N664 N 0.09896 0.76978 0.48572 0.0
N665 N 0.02883 0.72114 0.39339 0.0
loop_
_geom_bond_atom_site_label_1
_geom_bond_atom_site_label_2
_geom_bond_distance
_geom_bond_site_symmetry_2
_ccdc_geom_bond_type
Zn0 O6 1.969 1_455 S
Zn0 O7 1.965 1_554 S
Zn0 O11 2.024 . S
Zn0 O16 1.969 . S
Zn1 O8 1.969 1_554 S
Zn1 O14 1.969 . S
Zn1 O15 1.965 . S
Zn1 O17 2.022 . S
C2 O3 1.229 . S
C2 O11 1.058 . S
O3 C2 1.229 . S
C4 O5 1.222 1_655 S
C4 O17 1.061 1_656 S
O5 C4 1.222 1_455 S
O6 Zn0 1.969 1_655 S
O6 C9 1.267 1_554 S
O7 Zn0 1.965 1_556 S
O7 C18 1.260 . S
O8 Zn1 1.969 1_556 S
O8 C18 1.258 . S
C9 O6 1.267 1_556 S
C9 O10 1.228 1_655 S
O10 C9 1.228 1_455 S
O11 Zn0 2.024 . S
O11 C2 1.058 . S
C12 O13 1.228 . S
C12 O14 1.267 . S
O13 C12 1.228 . S
O14 Zn1 1.969 . S
O14 C12 1.267 . S
O15 Zn1 1.965 . S
O15 C19 1.260 . S
O16 Zn0 1.969 . S
O16 C19 1.258 . S
O17 Zn1 2.022 . S
O17 C4 1.061 1_454 S
C18 O7 1.260 . S
C18 O8 1.258 . S
C19 O15 1.260 . S
C19 O16 1.258 . S
Zn20 O26 1.969 . S
Zn20 O27 1.965 . S
Zn20 O31 2.024 . S
Zn20 O36 1.969 1_554 S
Zn21 O28 1.969 . S
Zn21 O34 1.969 . S
Zn21 O35 1.965 1_554 S
Zn21 O37 2.024 . S
C22 O23 1.229 1_554 S
C22 O31 1.058 . S
O23 C22 1.229 1_556 S
C24 O25 1.229 . S
C24 O37 1.058 . S
O25 C24 1.229 . S
O26 Zn20 1.969 . S
O26 C29 1.267 . S
O27 Zn20 1.965 . S
O27 C38 1.260 . S
O28 Zn21 1.969 . S
O28 C38 1.258 . S
C29 O26 1.267 . S
C29 O30 1.228 . S
O30 C29 1.228 . S
O31 Zn20 2.024 . S
O31 C22 1.058 . S
C32 O33 1.228 1_554 S
C32 O34 1.267 . S
O33 C32 1.228 1_556 S
O34 Zn21 1.969 . S
O34 C32 1.267 . S
O35 Zn21 1.965 1_556 S
O35 C39 1.260 . S
O36 Zn20 1.969 1_556 S
O36 C39 1.258 . S
O37 Zn21 2.024 . S
O37 C24 1.058 . S
C38 O27 1.260 . S
C38 O28 1.258 . S
C39 O35 1.260 . S
C39 O36 1.258 . S
Zn40 O46 1.969 . S
Zn40 O47 1.965 . S
Zn40 O51 2.024 1_545 S
Zn40 O56 1.969 . S
Zn41 O48 1.969 1_554 S
Zn41 O54 1.969 1_545 S
Zn41 O55 1.965 . S
Zn41 O57 2.024 . S
C42 O43 1.218 1_565 S
C42 O51 1.046 . S
O43 C42 1.218 1_545 S
C44 O45 1.229 . S
C44 O57 1.058 . S
O45 C44 1.229 . S
O46 Zn40 1.969 . S
O46 C49 1.267 . S
O47 Zn40 1.965 . S
O47 C58 1.260 1_554 S
O48 Zn41 1.969 1_556 S
O48 C58 1.258 . S
C49 O46 1.267 . S
C49 O50 1.228 . S
O50 C49 1.228 . S
O51 Zn40 2.024 1_565 S
O51 C42 1.046 . S
C52 O53 1.228 1_565 S
C52 O54 1.267 . S
O53 C52 1.228 1_545 S
O54 Zn41 1.969 1_565 S
O54 C52 1.267 . S
O55 Zn41 1.965 . S
O55 C59 1.260 . S
O56 Zn40 1.969 . S
O56 C59 1.258 . S
O57 Zn41 2.024 . S
O57 C44 1.058 . S
C58 O47 1.260 1_556 S
C58 O48 1.258 . S
C59 O55 1.260 . S
C59 O56 1.258 . S
Zn60 O66 1.969 . S
Zn60 O67 1.965 . S
Zn60 O71 2.024 . S
Zn60 O76 1.969 . S
Zn61 O68 1.969 . S
Zn61 O74 1.969 . S
Zn61 O75 1.965 . S
Zn61 O77 2.024 . S
C62 O63 1.229 . S
C62 O71 1.058 . S
O63 C62 1.229 . S
C64 O65 1.229 . S
C64 O77 1.058 . S
O65 C64 1.229 . S
O66 Zn60 1.969 . S
O66 C69 1.267 . S
O67 Zn60 1.965 . S
O67 C78 1.260 . S
O68 Zn61 1.969 . S
O68 C78 1.258 . S
C69 O66 1.267 . S
C69 O70 1.228 . S
O70 C69 1.228 . S
O71 Zn60 2.024 . S
O71 C62 1.058 . S
C72 O73 1.228 . S
C72 O74 1.267 . S
O73 C72 1.228 . S
O74 Zn61 1.969 . S
O74 C72 1.267 . S
O75 Zn61 1.965 . S
O75 C79 1.260 . S
O76 Zn60 1.969 . S
O76 C79 1.258 . S
O77 Zn61 2.024 . S
O77 C64 1.058 . S
C78 O67 1.260 . S
C78 O68 1.258 . S
C79 O75 1.260 . S
C79 O76 1.258 . S
Zn80 O86 1.969 . S
Zn80 O87 1.965 . S
Zn80 O91 2.024 . S
Zn80 O96 1.969 . S
Zn81 O88 1.969 . S
Zn81 O94 1.969 . S
Zn81 O95 1.965 . S
Zn81 O97 2.024 . S
C82 O83 1.229 . S
C82 O91 1.058 . S
O83 C82 1.229 . S
C84 O85 1.229 . S
C84 O97 1.058 . S
O85 C84 1.229 . S
O86 Zn80 1.969 . S
O86 C89 1.267 . S
O87 Zn80 1.965 . S
O87 C98 1.260 . S
O88 Zn81 1.969 . S
O88 C98 1.258 . S
C89 O86 1.267 . S
C89 O90 1.228 . S
O90 C89 1.228 . S
O91 Zn80 2.024 . S
O91 C82 1.058 . S
C92 O93 1.228 . S
C92 O94 1.267 . S
O93 C92 1.228 . S
O94 Zn81 1.969 . S
O94 C92 1.267 . S
O95 Zn81 1.965 . S
O95 C99 1.260 . S
O96 Zn80 1.969 . S
O96 C99 1.258 . S
O97 Zn81 2.024 . S
O97 C84 1.058 . S
C98 O87 1.260 . S
C98 O88 1.258 . S
C99 O95 1.260 . S
C99 O96 1.258 . S
Zn100 O106 1.969 . S
Zn100 O107 1.965 . S
Zn100 O111 2.024 . S
Zn100 O116 1.969 . S
Zn101 O108 1.969 . S
Zn101 O114 1.969 . S
Zn101 O115 1.965 . S
Zn101 O117 2.024 . S
C102 O103 1.229 . S
C102 O111 1.058 . S
O103 C102 1.229 . S
C104 O105 1.229 . S
C104 O117 1.058 . S
O105 C104 1.229 . S
O106 Zn100 1.969 . S
O106 C109 1.267 . S
O107 Zn100 1.965 . S
O107 C118 1.260 . S
O108 Zn101 1.969 . S
O108 C118 1.258 . S
C109 O106 1.267 . S
C109 O110 1.228 . S
O110 C109 1.228 . S
O111 Zn100 2.024 . S
O111 C102 1.058 . S
C112 O113 1.228 . S
C112 O114 1.267 . S
O113 C112 1.228 . S
O114 Zn101 1.969 . S
O114 C112 1.267 . S
O115 Zn101 1.965 . S
O115 C119 1.260 . S
O116 Zn100 1.969 . S
O116 C119 1.258 . S
O117 Zn101 2.024 . S
O117 C104 1.058 . S
C118 O107 1.260 . S
C118 O108 1.258 . S
C119 O115 1.260 . S
C119 O116 1.258 . S
Zn120 O126 1.969 . S
Zn120 O127 1.965 . S
Zn120 O131 2.024 . S
Zn120 O136 1.969 . S
Zn121 O128 1.969 . S
Zn121 O134 1.969 . S
Zn121 O135 1.965 . S
Zn121 O137 2.024 . S
C122 O123 1.229 . S
C122 O131 1.058 . S
O123 C122 1.229 . S
C124 O125 1.229 . S
C124 O137 1.058 . S
O125 C124 1.229 . S
O126 Zn120 1.969 . S
O126 C129 1.267 . S
O127 Zn120 1.965 . S
O127 C138 1.260 . S
O128 Zn121 1.969 . S
O128 C138 1.258 . S
C129 O126 1.267 . S
C129 O130 1.228 . S
O130 C129 1.228 . S
O131 Zn120 2.024 . S
O131 C122 1.058 . S
C132 O133 1.228 . S
C132 O134 1.267 . S
O133 C132 1.228 . S
O134 Zn121 1.969 . S
O134 C132 1.267 . S
O135 Zn121 1.965 . S
O135 C139 1.260 . S
O136 Zn120 1.969 . S
O136 C139 1.258 . S
O137 Zn121 2.024 . S
O137 C124 1.058 . S
C138 O127 1.260 . S
C138 O128 1.258 . S
C139 O135 1.260 . S
C139 O136 1.258 . S
Zn140 O146 1.969 . S
Zn140 O147 1.965 . S
Zn140 O151 2.024 . S
Zn140 O156 1.969 . S
Zn141 O148 1.969 . S
Zn141 O154 1.969 . S
Zn141 O155 1.965 . S
Zn141 O157 2.024 . S
C142 O143 1.229 . S
C142 O151 1.058 . S
O143 C142 1.229 . S
C144 O145 1.229 . S
C144 O157 1.058 . S
O145 C144 1.229 . S
O146 Zn140 1.969 . S
O146 C149 1.267 . S
O147 Zn140 1.965 . S
O147 C158 1.260 . S
O148 Zn141 1.969 . S
O148 C158 1.258 . S
C149 O146 1.267 . S
C149 O150 1.228 . S
O150 C149 1.228 . S
O151 Zn140 2.024 . S
O151 C142 1.058 . S
C152 O153 1.228 . S
C152 O154 1.267 . S
O153 C152 1.228 . S
O154 Zn141 1.969 . S
O154 C152 1.267 . S
O155 Zn141 1.965 . S
O155 C159 1.260 . S
O156 Zn140 1.969 . S
O156 C159 1.258 . S
O157 Zn141 2.024 . S
O157 C144 1.058 . S
C158 O147 1.260 . S
C158 O148 1.258 . S
C159 O155 1.260 . S
C159 O156 1.258 . S
Zn160 O166 1.969 . S
Zn160 O167 1.965 . S
Zn160 O171 2.024 . S
Zn160 O176 1.969 . S
Zn161 O168 1.969 . S
Zn161 O174 1.969 . S
Zn161 O175 1.965 . S
Zn161 O177 2.024 . S
C162 O163 1.229 . S
C162 O171 1.058 . S
O163 C162 1.229 . S
C164 O165 1.229 . S
C164 O177 1.058 . S
O165 C164 1.229 . S
O166 Zn160 1.969 . S
O166 C169 1.267 . S
O167 Zn160 1.965 . S
O167 C178 1.260 . S
O168 Zn161 1.969 . S
O168 C178 1.258 . S
C169 O166 1.267 . S
C169 O170 1.228 . S
O170 C169 1.228 . S
O171 Zn160 2.024 . S
O171 C162 1.058 . S
C172 O173 1.228 . S
C172 O174 1.267 . S
O173 C172 1.228 . S
O174 Zn161 1.969 . S
O174 C172 1.267 . S
O175 Zn161 1.965 . S
O175 C179 1.260 . S
O176 Zn160 1.969 . S
O176 C179 1.258 . S
O177 Zn161 2.024 . S
O177 C164 1.058 . S
C178 O167 1.260 . S
C178 O168 1.258 . S
C179 O175 1.260 . S
C179 O176 1.258 . S
H180 C186 0.930 . S
H181 C190 0.930 . S
H182 C195 0.929 . S
H183 C193 0.929 . S
H184 C188 0.929 . S
H185 C194 0.929 . S
C186 H180 0.930 . S
C186 C187 1.367 . S
C186 C194 1.378 . S
C187 C186 1.367 . S
C187 C195 1.433 . S
C188 H184 0.929 . S
C188 C190 1.378 . S
C188 C192 1.350 . S
C189 C192 1.463 . S
C189 C194 1.350 . S
C189 N197 1.427 . S
C190 H181 0.930 . S
C190 C188 1.378 . S
C190 C191 1.367 . S
C191 C190 1.367 . S
C191 C193 1.433 . S
C192 C188 1.350 . S
C192 C189 1.463 . S
C192 N196 1.427 . S
C193 H183 0.929 . S
C193 C191 1.433 . S
C193 N196 1.384 . S
C194 H185 0.929 . S
C194 C186 1.378 . S
C194 C189 1.350 . S
C195 H182 0.929 . S
C195 C187 1.433 . S
C195 N197 1.384 . S
N196 C192 1.427 . S
N196 C193 1.384 . S
N197 C189 1.427 . S
N197 C195 1.384 . S
H198 C204 0.930 . S
H199 C208 0.930 . S
H200 C213 0.929 . S
H201 C211 0.929 . S
H202 C206 0.929 . S
H203 C212 0.929 . S
C204 H198 0.930 . S
C204 C205 1.367 . S
C204 C212 1.378 . S
C205 C204 1.367 . S
C205 C213 1.433 . S
C206 H202 0.929 . S
C206 C208 1.378 . S
C206 C210 1.350 . S
C207 C210 1.463 . S
C207 C212 1.350 . S
C207 N215 1.427 . S
C208 H199 0.930 . S
C208 C206 1.378 . S
C208 C209 1.367 . S
C209 C208 1.367 . S
C209 C211 1.433 . S
C210 C206 1.350 . S
C210 C207 1.463 . S
C210 N214 1.427 . S
C211 H201 0.929 . S
C211 C209 1.433 . S
C211 N214 1.384 . S
C212 H203 0.929 . S
C212 C204 1.378 . S
C212 C207 1.350 . S
C213 H200 0.929 . S
C213 C205 1.433 . S
C213 N215 1.384 . S
N214 C210 1.427 . S
N214 C211 1.384 . S
N215 C207 1.427 . S
N215 C213 1.384 . S
H216 C222 0.930 . S
H217 C226 0.933 . S
H218 C231 0.929 1_565 S
H219 C229 0.929 . S
H220 C224 0.929 1_565 S
H221 C230 0.929 . S
C222 H216 0.930 . S
C222 C223 1.367 . S
C222 C230 1.378 . S
C223 C222 1.367 . S
C223 C231 1.433 . S
C224 H220 0.929 1_545 S
C224 C226 1.378 . S
C224 C228 1.350 . S
C225 C228 1.463 . S
C225 C230 1.350 . S
C225 N233 1.427 . S
C226 H217 0.933 . S
C226 C224 1.378 . S
C226 C227 1.367 . S
C227 C226 1.367 . S
C227 C229 1.433 . S
C228 C224 1.350 . S
C228 C225 1.463 . S
C228 N232 1.427 . S
C229 H219 0.929 . S
C229 C227 1.433 . S
C229 N232 1.384 . S
C230 H221 0.929 . S
C230 C222 1.378 . S
C230 C225 1.350 . S
C231 H218 0.929 1_545 S
C231 C223 1.433 . S
C231 N233 1.384 . S
N232 C228 1.427 . S
N232 C229 1.384 . S
N233 C225 1.427 . S
N233 C231 1.384 . S
H234 C240 0.930 . S
H235 C244 0.930 . S
H236 C249 0.929 . S
H237 C247 0.924 1_554 S
H238 C242 0.929 . S
H239 C248 0.929 . S
C240 H234 0.930 . S
C240 C241 1.367 . S
C240 C248 1.378 . S
C241 C240 1.367 . S
C241 C249 1.433 . S
C242 H238 0.929 . S
C242 C244 1.378 1_556 S
C242 C246 1.350 . S
C243 C246 1.463 . S
C243 C248 1.350 . S
C243 N251 1.427 . S
C244 H235 0.930 . S
C244 C242 1.378 1_554 S
C244 C245 1.367 . S
C245 C244 1.367 . S
C245 C247 1.429 1_554 S
C246 C242 1.350 . S
C246 C243 1.463 . S
C246 N250 1.427 . S
C247 H237 0.924 1_556 S
C247 C245 1.429 1_556 S
C247 N250 1.393 . S
C248 H239 0.929 . S
C248 C240 1.378 . S
C248 C243 1.350 . S
C249 H236 0.929 . S
C249 C241 1.433 . S
C249 N251 1.384 . S
N250 C246 1.427 . S
N250 C247 1.393 . S
N251 C243 1.427 . S
N251 C249 1.384 . S
H252 C258 0.930 . S
H253 C262 0.930 . S
H254 C267 0.929 . S
H255 C265 0.929 . S
H256 C260 0.929 . S
H257 C266 0.929 . S
C258 H252 0.930 . S
C258 C259 1.367 . S
C258 C266 1.378 . S
C259 C258 1.367 . S
C259 C267 1.433 . S
C260 H256 0.929 . S
C260 C262 1.378 . S
C260 C264 1.350 . S
C261 C264 1.463 . S
C261 C266 1.350 . S
C261 N269 1.427 . S
C262 H253 0.930 . S
C262 C260 1.378 . S
C262 C263 1.367 . S
C263 C262 1.367 . S
C263 C265 1.433 . S
C264 C260 1.350 . S
C264 C261 1.463 . S
C264 N268 1.427 . S
C265 H255 0.929 . S
C265 C263 1.433 . S
C265 N268 1.384 . S
C266 H257 0.929 . S
C266 C258 1.378 . S
C266 C261 1.350 . S
C267 H254 0.929 . S
C267 C259 1.433 . S
C267 N269 1.384 . S
N268 C264 1.427 . S
N268 C265 1.384 . S
N269 C261 1.427 . S
N269 C267 1.384 . S
H270 C276 0.930 . S
H271 C280 0.930 . S
H272 C285 0.929 . S
H273 C283 0.929 . S
H274 C278 0.929 . S
H275 C284 0.929 . S
C276 H270 0.930 . S
C276 C277 1.367 . S
C276 C284 1.378 . S
C277 C276 1.367 . S
C277 C285 1.433 . S
C278 H274 0.929 . S
C278 C280 1.378 . S
C278 C282 1.350 . S
C279 C282 1.463 . S
C279 C284 1.350 . S
C279 N287 1.427 . S
C280 H271 0.930 . S
C280 C278 1.378 . S
C280 C281 1.367 . S
C281 C280 1.367 . S
C281 C283 1.433 . S
C282 C278 1.350 . S
C282 C279 1.463 . S
C282 N286 1.427 . S
C283 H273 0.929 . S
C283 C281 1.433 . S
C283 N286 1.384 . S
C284 H275 0.929 . S
C284 C276 1.378 . S
C284 C279 1.350 . S
C285 H272 0.929 . S
C285 C277 1.433 . S
C285 N287 1.384 . S
N286 C282 1.427 . S
N286 C283 1.384 . S
N287 C279 1.427 . S
N287 C285 1.384 . S
H288 C294 0.930 . S
H289 C298 0.930 . S
H290 C303 0.929 . S
H291 C301 0.929 . S
H292 C296 0.929 . S
H293 C302 0.929 . S
C294 H288 0.930 . S
C294 C295 1.367 . S
C294 C302 1.378 . S
C295 C294 1.367 . S
C295 C303 1.433 . S
C296 H292 0.929 . S
C296 C298 1.378 1_554 S
C296 C300 1.350 . S
C297 C300 1.463 . S
C297 C302 1.350 . S
C297 N305 1.427 . S
C298 H289 0.930 . S
C298 C296 1.378 1_556 S
C298 C299 1.367 . S
C299 C298 1.367 . S
C299 C301 1.433 . S
C300 C296 1.350 . S
C300 C297 1.463 . S
C300 N304 1.427 . S
C301 H291 0.929 . S
C301 C299 1.433 . S
C301 N304 1.384 1_556 S
C302 H293 0.929 . S
C302 C294 1.378 . S
C302 C297 1.350 . S
C303 H290 0.929 . S
C303 C295 1.433 . S
C303 N305 1.384 . S
N304 C300 1.427 . S
N304 C301 1.384 1_554 S
N305 C297 1.427 . S
N305 C303 1.384 . S
H306 C312 0.930 . S
H307 C316 0.930 . S
H308 C321 0.929 . S
H309 C319 0.929 . S
H310 C314 0.929 . S
H311 C320 0.929 . S
C312 H306 0.930 . S
C312 C313 1.367 . S
C312 C320 1.378 . S
C313 C312 1.367 . S
C313 C321 1.433 . S
C314 H310 0.929 . S
C314 C316 1.378 1_554 S
C314 C318 1.350 . S
C315 C318 1.463 . S
C315 C320 1.350 . S
C315 N323 1.427 . S
C316 H307 0.930 . S
C316 C314 1.378 1_556 S
C316 C317 1.367 . S
C317 C316 1.367 . S
C317 C319 1.433 . S
C318 C314 1.350 . S
C318 C315 1.463 . S
C318 N322 1.427 . S
C319 H309 0.929 . S
C319 C317 1.433 . S
C319 N322 1.384 1_556 S
C320 H311 0.929 . S
C320 C312 1.378 . S
C320 C315 1.350 . S
C321 H308 0.929 . S
C321 C313 1.433 . S
C321 N323 1.384 . S
N322 C318 1.427 . S
N322 C319 1.384 1_554 S
N323 C315 1.427 . S
N323 C321 1.384 . S
H324 C330 0.930 . S
H325 C334 0.930 . S
H326 C339 0.929 . S
H327 C337 0.929 1_556 S
H328 C332 0.929 . S
H329 C338 0.929 . S
C330 H324 0.930 . S
C330 C331 1.367 . S
C330 C338 1.378 . S
C331 C330 1.367 . S
C331 C339 1.433 . S
C332 H328 0.929 . S
C332 C334 1.378 1_554 S
C332 C336 1.350 . S
C333 C336 1.463 . S
C333 C338 1.350 . S
C333 N341 1.427 . S
C334 H325 0.930 . S
C334 C332 1.378 1_556 S
C334 C335 1.367 . S
C335 C334 1.367 . S
C335 C337 1.433 1_556 S
C336 C332 1.350 . S
C336 C333 1.463 . S
C336 N340 1.427 . S
C337 H327 0.929 1_554 S
C337 C335 1.433 1_554 S
C337 N340 1.384 . S
C338 H329 0.929 . S
C338 C330 1.378 . S
C338 C333 1.350 . S
C339 H326 0.929 . S
C339 C331 1.433 . S
C339 N341 1.384 . S
N340 C336 1.427 . S
N340 C337 1.384 . S
N341 C333 1.427 . S
N341 C339 1.384 . S
H342 C348 0.930 . S
H343 C352 0.930 . S
H344 C357 0.929 . S
H345 C355 0.929 . S
H346 C350 0.929 . S
H347 C356 0.929 . S
C348 H342 0.930 . S
C348 C349 1.367 . S
C348 C356 1.378 . S
C349 C348 1.367 . S
C349 C357 1.433 . S
C350 H346 0.929 . S
C350 C352 1.378 . S
C350 C354 1.350 . S
C351 C354 1.463 . S
C351 C356 1.350 . S
C351 N359 1.427 . S
C352 H343 0.930 . S
C352 C350 1.378 . S
C352 C353 1.367 . S
C353 C352 1.367 . S
C353 C355 1.433 . S
C354 C350 1.350 . S
C354 C351 1.463 . S
C354 N358 1.427 . S
C355 H345 0.929 . S
C355 C353 1.433 . S
C355 N358 1.384 . S
C356 H347 0.929 . S
C356 C348 1.378 . S
C356 C351 1.350 . S
C357 H344 0.929 . S
C357 C349 1.433 . S
C357 N359 1.384 . S
N358 C354 1.427 . S
N358 C355 1.384 . S
N359 C351 1.427 . S
N359 C357 1.384 . S
H360 C366 0.930 . S
H361 C370 0.930 . S
H362 C375 0.929 . S
H363 C373 0.929 . S
H364 C368 0.929 . S
H365 C374 0.929 . S
C366 H360 0.930 . S
C366 C367 1.367 . S
C366 C374 1.378 . S
C367 C366 1.367 . S
C367 C375 1.433 . S
C368 H364 0.929 . S
C368 C370 1.378 . S
C368 C372 1.350 . S
C369 C372 1.463 . S
C369 C374 1.350 . S
C369 N377 1.427 . S
C370 H361 0.930 . S
C370 C368 1.378 . S
C370 C371 1.367 . S
C371 C370 1.367 . S
C371 C373 1.433 . S
C372 C368 1.350 . S
C372 C369 1.463 . S
C372 N376 1.427 . S
C373 H363 0.929 . S
C373 C371 1.433 . S
C373 N376 1.384 . S
C374 H365 0.929 . S
C374 C366 1.378 . S
C374 C369 1.350 . S
C375 H362 0.929 . S
C375 C367 1.433 . S
C375 N377 1.384 . S
N376 C372 1.427 . S
N376 C373 1.384 . S
N377 C369 1.427 . S
N377 C375 1.384 . S
H378 C384 0.930 . S
H379 C388 0.930 . S
H380 C393 0.929 1_545 S
H381 C391 0.929 . S
H382 C386 0.929 . S
H383 C392 0.929 . S
C384 H378 0.930 . S
C384 C385 1.367 . S
C384 C392 1.378 . S
C385 C384 1.367 . S
C385 C393 1.433 . S
C386 H382 0.929 . S
C386 C388 1.378 . S
C386 C390 1.350 . S
C387 C390 1.463 . S
C387 C392 1.350 . S
C387 N395 1.427 . S
C388 H379 0.930 . S
C388 C386 1.378 . S
C388 C389 1.367 . S
C389 C388 1.367 . S
C389 C391 1.433 . S
C390 C386 1.350 . S
C390 C387 1.463 . S
C390 N394 1.427 . S
C391 H381 0.929 . S
C391 C389 1.433 . S
C391 N394 1.384 . S
C392 H383 0.929 . S
C392 C384 1.378 . S
C392 C387 1.350 . S
C393 H380 0.929 1_565 S
C393 C385 1.433 . S
C393 N395 1.384 . S
N394 C390 1.427 . S
N394 C391 1.384 . S
N395 C387 1.427 . S
N395 C393 1.384 . S
H396 C402 0.930 . S
H397 C406 0.930 . S
H398 C411 0.929 . S
H399 C409 0.929 . S
H400 C404 0.929 . S
H401 C410 0.929 . S
C402 H396 0.930 . S
C402 C403 1.367 . S
C402 C410 1.378 1_554 S
C403 C402 1.367 . S
C403 C411 1.433 . S
C404 H400 0.929 . S
C404 C406 1.378 . S
C404 C408 1.350 . S
C405 C408 1.463 . S
C405 C410 1.350 . S
C405 N413 1.427 . S
C406 H397 0.930 . S
C406 C404 1.378 . S
C406 C407 1.367 . S
C407 C406 1.367 . S
C407 C409 1.433 . S
C408 C404 1.350 . S
C408 C405 1.463 . S
C408 N412 1.427 . S
C409 H399 0.929 . S
C409 C407 1.433 . S
C409 N412 1.384 . S
C410 H401 0.929 . S
C410 C402 1.378 1_556 S
C410 C405 1.350 . S
C411 H398 0.929 . S
C411 C403 1.433 . S
C411 N413 1.384 1_554 S
N412 C408 1.427 . S
N412 C409 1.384 . S
N413 C405 1.427 . S
N413 C411 1.384 1_556 S
H414 C420 0.930 . S
H415 C424 0.930 1_454 S
H416 C429 0.929 . S
H417 C427 0.929 . S
H418 C422 0.929 . S
H419 C428 0.929 . S
C420 H414 0.930 . S
C420 C421 1.367 . S
C420 C428 1.378 . S
C421 C420 1.367 . S
C421 C429 1.433 . S
C422 H418 0.929 . S
C422 C424 1.378 . S
C422 C426 1.350 . S
C423 C426 1.463 . S
C423 C428 1.350 . S
C423 N431 1.427 . S
C424 H415 0.930 1_656 S
C424 C422 1.378 . S
C424 C425 1.367 . S
C425 C424 1.367 . S
C425 C427 1.433 . S
C426 C422 1.350 . S
C426 C423 1.463 . S
C426 N430 1.427 . S
C427 H417 0.929 . S
C427 C425 1.433 . S
C427 N430 1.384 . S
C428 H419 0.929 . S
C428 C420 1.378 . S
C428 C423 1.350 . S
C429 H416 0.929 . S
C429 C421 1.433 . S
C429 N431 1.384 . S
N430 C426 1.427 . S
N430 C427 1.384 . S
N431 C423 1.427 . S
N431 C429 1.384 . S
H432 C438 0.930 . S
H433 C442 0.930 . S
H434 C447 0.929 . S
H435 C445 0.929 . S
H436 C440 0.929 . S
H437 C446 0.929 . S
C438 H432 0.930 . S
C438 C439 1.367 . S
C438 C446 1.378 . S
C439 C438 1.367 . S
C439 C447 1.433 . S
C440 H436 0.929 . S
C440 C442 1.378 1_556 S
C440 C444 1.350 . S
C441 C444 1.463 . S
C441 C446 1.350 . S
C441 N449 1.427 . S
C442 H433 0.930 . S
C442 C440 1.378 1_554 S
C442 C443 1.367 . S
C443 C442 1.367 . S
C443 C445 1.433 1_554 S
C444 C440 1.350 . S
C444 C441 1.463 . S
C444 N448 1.427 . S
C445 H435 0.929 . S
C445 C443 1.433 1_556 S
C445 N448 1.384 . S
C446 H437 0.929 . S
C446 C438 1.378 . S
C446 C441 1.350 . S
C447 H434 0.929 . S
C447 C439 1.433 . S
C447 N449 1.384 . S
N448 C444 1.427 . S
N448 C445 1.384 . S
N449 C441 1.427 . S
N449 C447 1.384 . S
H450 C456 0.930 . S
H451 C460 0.930 1_554 S
H452 C465 0.929 . S
H453 C463 0.929 . S
H454 C458 0.929 . S
H455 C464 0.929 . S
C456 H450 0.930 . S
C456 C457 1.367 . S
C456 C464 1.378 . S
C457 C456 1.367 . S
C457 C465 1.433 . S
C458 H454 0.929 . S
C458 C460 1.378 . S
C458 C462 1.350 . S
C459 C462 1.463 . S
C459 C464 1.350 . S
C459 N467 1.427 . S
C460 H451 0.930 1_556 S
C460 C458 1.378 . S
C460 C461 1.367 . S
C461 C460 1.367 . S
C461 C463 1.433 . S
C462 C458 1.350 . S
C462 C459 1.463 . S
C462 N466 1.427 . S
C463 H453 0.929 . S
C463 C461 1.433 . S
C463 N466 1.384 . S
C464 H455 0.929 . S
C464 C456 1.378 . S
C464 C459 1.350 . S
C465 H452 0.929 . S
C465 C457 1.433 . S
C465 N467 1.384 . S
N466 C462 1.427 . S
N466 C463 1.384 . S
N467 C459 1.427 . S
N467 C465 1.384 . S
H468 C474 0.930 . S
H469 C478 0.930 . S
H470 C483 0.929 . S
H471 C481 0.929 . S
H472 C476 0.929 . S
H473 C482 0.929 1_554 S
C474 H468 0.930 . S
C474 C475 1.367 1_554 S
C474 C482 1.378 1_554 S
C475 C474 1.367 1_556 S
C475 C483 1.433 . S
C476 H472 0.929 . S
C476 C478 1.378 . S
C476 C480 1.350 . S
C477 C480 1.463 . S
C477 C482 1.350 . S
C477 N485 1.427 . S
C478 H469 0.930 . S
C478 C476 1.378 . S
C478 C479 1.367 . S
C479 C478 1.367 . S
C479 C481 1.433 . S
C480 C476 1.350 . S
C480 C477 1.463 . S
C480 N484 1.427 . S
C481 H471 0.929 . S
C481 C479 1.433 . S
C481 N484 1.384 . S
C482 H473 0.929 1_556 S
C482 C474 1.378 1_556 S
C482 C477 1.350 . S
C483 H470 0.929 . S
C483 C475 1.433 . S
C483 N485 1.384 . S
N484 C480 1.427 . S
N484 C481 1.384 . S
N485 C477 1.427 . S
N485 C483 1.384 . S
H486 C492 0.930 . S
H487 C496 0.930 . S
H488 C501 0.929 . S
H489 C499 0.929 . S
H490 C494 0.929 . S
H491 C500 0.929 1_554 S
C492 H486 0.930 . S
C492 C493 1.367 . S
C492 C500 1.378 . S
C493 C492 1.367 . S
C493 C501 1.433 . S
C494 H490 0.929 . S
C494 C496 1.378 . S
C494 C498 1.350 . S
C495 C498 1.463 . S
C495 C500 1.350 . S
C495 N503 1.427 . S
C496 H487 0.930 . S
C496 C494 1.378 . S
C496 C497 1.367 1_556 S
C497 C496 1.367 1_554 S
C497 C499 1.433 . S
C498 C494 1.350 . S
C498 C495 1.463 . S
C498 N502 1.427 1_556 S
C499 H489 0.929 . S
C499 C497 1.433 . S
C499 N502 1.384 . S
C500 H491 0.929 1_556 S
C500 C492 1.378 . S
C500 C495 1.350 . S
C501 H488 0.929 . S
C501 C493 1.433 . S
C501 N503 1.384 . S
N502 C498 1.427 1_554 S
N502 C499 1.384 . S
N503 C495 1.427 . S
N503 C501 1.384 . S
H504 C510 0.930 . S
H505 C514 0.930 . S
H506 C519 0.929 . S
H507 C517 0.929 . S
H508 C512 0.929 . S
H509 C518 0.929 . S
C510 H504 0.930 . S
C510 C511 1.367 . S
C510 C518 1.378 . S
C511 C510 1.367 . S
C511 C519 1.433 . S
C512 H508 0.929 . S
C512 C514 1.378 . S
C512 C516 1.350 . S
C513 C516 1.463 . S
C513 C518 1.350 . S
C513 N521 1.427 . S
C514 H505 0.930 . S
C514 C512 1.378 . S
C514 C515 1.367 . S
C515 C514 1.367 . S
C515 C517 1.433 . S
C516 C512 1.350 . S
C516 C513 1.463 . S
C516 N520 1.427 . S
C517 H507 0.929 . S
C517 C515 1.433 . S
C517 N520 1.384 . S
C518 H509 0.929 . S
C518 C510 1.378 . S
C518 C513 1.350 . S
C519 H506 0.929 . S
C519 C511 1.433 . S
C519 N521 1.384 . S
N520 C516 1.427 . S
N520 C517 1.384 . S
N521 C513 1.427 . S
N521 C519 1.384 . S
H522 C528 0.930 . S
H523 C532 0.930 1_556 S
H524 C537 0.929 . S
H525 C535 0.929 . S
H526 C530 0.933 . S
H527 C536 0.929 . S
C528 H522 0.930 . S
C528 C529 1.367 . S
C528 C536 1.378 . S
C529 C528 1.367 . S
C529 C537 1.433 . S
C530 H526 0.933 . S
C530 C532 1.378 . S
C530 C534 1.350 . S
C531 C534 1.463 . S
C531 C536 1.350 . S
C531 N539 1.427 . S
C532 H523 0.930 1_554 S
C532 C530 1.378 . S
C532 C533 1.367 . S
C533 C532 1.367 . S
C533 C535 1.433 . S
C534 C530 1.350 . S
C534 C531 1.463 . S
C534 N538 1.427 . S
C535 H525 0.929 . S
C535 C533 1.433 . S
C535 N538 1.384 . S
C536 H527 0.929 . S
C536 C528 1.378 . S
C536 C531 1.350 . S
C537 H524 0.929 . S
C537 C529 1.433 . S
C537 N539 1.384 . S
N538 C534 1.427 . S
N538 C535 1.384 . S
N539 C531 1.427 . S
N539 C537 1.384 . S
H540 C546 0.930 . S
H541 C550 0.930 . S
H542 C555 0.929 . S
H543 C553 0.929 . S
H544 C548 0.929 . S
H545 C554 0.929 . S
C546 H540 0.930 . S
C546 C547 1.367 . S
C546 C554 1.378 . S
C547 C546 1.367 . S
C547 C555 1.433 . S
C548 H544 0.929 . S
C548 C550 1.378 . S
C548 C552 1.350 . S
C549 C552 1.463 . S
C549 C554 1.350 . S
C549 N557 1.427 . S
C550 H541 0.930 . S
C550 C548 1.378 . S
C550 C551 1.367 . S
C551 C550 1.367 . S
C551 C553 1.433 . S
C552 C548 1.350 . S
C552 C549 1.463 . S
C552 N556 1.427 . S
C553 H543 0.929 . S
C553 C551 1.433 . S
C553 N556 1.384 . S
C554 H545 0.929 . S
C554 C546 1.378 . S
C554 C549 1.350 . S
C555 H542 0.929 . S
C555 C547 1.433 . S
C555 N557 1.384 . S
N556 C552 1.427 . S
N556 C553 1.384 . S
N557 C549 1.427 . S
N557 C555 1.384 . S
H558 C564 0.930 . S
H559 C568 0.930 . S
H560 C573 0.929 . S
H561 C571 0.929 . S
H562 C566 0.929 . S
H563 C572 0.929 . S
C564 H558 0.930 . S
C564 C565 1.367 . S
C564 C572 1.378 . S
C565 C564 1.367 . S
C565 C573 1.433 . S
C566 H562 0.929 . S
C566 C568 1.378 . S
C566 C570 1.350 . S
C567 C570 1.463 . S
C567 C572 1.350 . S
C567 N575 1.427 . S
C568 H559 0.930 . S
C568 C566 1.378 . S
C568 C569 1.367 . S
C569 C568 1.367 . S
C569 C571 1.433 . S
C570 C566 1.350 . S
C570 C567 1.463 . S
C570 N574 1.427 . S
C571 H561 0.929 . S
C571 C569 1.433 . S
C571 N574 1.384 . S
C572 H563 0.929 . S
C572 C564 1.378 . S
C572 C567 1.350 . S
C573 H560 0.929 . S
C573 C565 1.433 . S
C573 N575 1.384 . S
N574 C570 1.427 . S
N574 C571 1.384 . S
N575 C567 1.427 . S
N575 C573 1.384 . S
H576 C582 0.930 . S
H577 C586 0.930 . S
H578 C591 0.929 . S
H579 C589 0.929 . S
H580 C584 0.929 . S
H581 C590 0.929 . S
C582 H576 0.930 . S
C582 C583 1.367 . S
C582 C590 1.378 . S
C583 C582 1.367 . S
C583 C591 1.433 . S
C584 H580 0.929 . S
C584 C586 1.378 . S
C584 C588 1.350 1_565 S
C585 C588 1.463 . S
C585 C590 1.350 . S
C585 N593 1.427 . S
C586 H577 0.930 . S
C586 C584 1.378 . S
C586 C587 1.367 . S
C587 C586 1.367 . S
C587 C589 1.433 . S
C588 C584 1.350 1_545 S
C588 C585 1.463 . S
C588 N592 1.427 . S
C589 H579 0.929 . S
C589 C587 1.433 . S
C589 N592 1.384 1_565 S
C590 H581 0.929 . S
C590 C582 1.378 . S
C590 C585 1.350 . S
C591 H578 0.929 . S
C591 C583 1.433 . S
C591 N593 1.384 . S
N592 C588 1.427 . S
N592 C589 1.384 1_545 S
N593 C585 1.427 . S
N593 C591 1.384 . S
H594 C600 0.930 . S
H595 C604 0.930 . S
H596 C609 0.929 . S
H597 C607 0.929 . S
H598 C602 0.929 . S
H599 C608 0.929 . S
C600 H594 0.930 . S
C600 C601 1.368 . S
C600 C608 1.378 . S
C601 C600 1.368 . S
C601 C609 1.434 1_455 S
C602 H598 0.929 . S
C602 C604 1.378 . S
C602 C606 1.350 . S
C603 C606 1.463 . S
C603 C608 1.350 . S
C603 N611 1.427 . S
C604 H595 0.930 . S
C604 C602 1.378 . S
C604 C605 1.367 . S
C605 C604 1.367 . S
C605 C607 1.433 . S
C606 C602 1.350 . S
C606 C603 1.463 . S
C606 N610 1.427 . S
C607 H597 0.929 . S
C607 C605 1.433 . S
C607 N610 1.384 . S
C608 H599 0.929 . S
C608 C600 1.378 . S
C608 C603 1.350 . S
C609 H596 0.929 . S
C609 C601 1.434 1_655 S
C609 N611 1.384 1_655 S
N610 C606 1.427 . S
N610 C607 1.384 . S
N611 C603 1.427 . S
N611 C609 1.384 1_455 S
H612 C618 0.930 . S
H613 C622 0.930 . S
H614 C627 0.929 . S
H615 C625 0.929 . S
H616 C620 0.929 . S
H617 C626 0.929 . S
C618 H612 0.930 . S
C618 C619 1.367 . S
C618 C626 1.378 . S
C619 C618 1.367 . S
C619 C627 1.433 . S
C620 H616 0.929 . S
C620 C622 1.378 . S
C620 C624 1.350 . S
C621 C624 1.463 . S
C621 C626 1.350 . S
C621 N629 1.427 . S
C622 H613 0.930 . S
C622 C620 1.378 . S
C622 C623 1.367 . S
C623 C622 1.367 . S
C623 C625 1.433 . S
C624 C620 1.350 . S
C624 C621 1.463 . S
C624 N628 1.427 . S
C625 H615 0.929 . S
C625 C623 1.433 . S
C625 N628 1.384 . S
C626 H617 0.929 . S
C626 C618 1.378 . S
C626 C621 1.350 . S
C627 H614 0.929 . S
C627 C619 1.433 . S
C627 N629 1.384 . S
N628 C624 1.427 . S
N628 C625 1.384 . S
N629 C621 1.427 . S
N629 C627 1.384 . S
H630 C636 0.930 . S
H631 C640 0.930 . S
H632 C645 0.929 . S
H633 C643 0.929 . S
H634 C638 0.929 . S
H635 C644 0.929 . S
C636 H630 0.930 . S
C636 C637 1.367 . S
C636 C644 1.378 . S
C637 C636 1.367 . S
C637 C645 1.433 . S
C638 H634 0.929 . S
C638 C640 1.378 . S
C638 C642 1.350 . S
C639 C642 1.463 . S
C639 C644 1.350 1_545 S
C639 N647 1.427 . S
C640 H631 0.930 . S
C640 C638 1.378 . S
C640 C641 1.367 . S
C641 C640 1.367 . S
C641 C643 1.433 . S
C642 C638 1.350 . S
C642 C639 1.463 . S
C642 N646 1.427 . S
C643 H633 0.929 . S
C643 C641 1.433 . S
C643 N646 1.384 . S
C644 H635 0.929 . S
C644 C636 1.378 . S
C644 C639 1.350 1_565 S
C645 H632 0.929 . S
C645 C637 1.433 . S
C645 N647 1.384 1_565 S
N646 C642 1.427 . S
N646 C643 1.384 . S
N647 C639 1.427 . S
N647 C645 1.384 1_545 S
H648 C654 0.930 . S
H649 C658 0.930 . S
H650 C663 0.929 1_655 S
H651 C661 0.929 . S
H652 C656 0.929 . S
H653 C662 0.929 . S
C654 H648 0.930 . S
C654 C655 1.367 . S
C654 C662 1.378 . S
C655 C654 1.367 . S
C655 C663 1.433 . S
C656 H652 0.929 . S
C656 C658 1.378 . S
C656 C660 1.350 . S
C657 C660 1.463 . S
C657 C662 1.350 . S
C657 N665 1.427 . S
C658 H649 0.930 . S
C658 C656 1.378 . S
C658 C659 1.367 . S
C659 C658 1.367 . S
C659 C661 1.433 . S
C660 C656 1.350 . S
C660 C657 1.463 . S
C660 N664 1.427 . S
C661 H651 0.929 . S
C661 C659 1.433 . S
C661 N664 1.384 . S
C662 H653 0.929 . S
C662 C654 1.378 . S
C662 C657 1.350 . S
C663 H650 0.929 1_455 S
C663 C655 1.433 . S
C663 N665 1.384 . S
N664 C660 1.427 . S
N664 C661 1.384 . S
N665 C657 1.427 . S
N665 C663 1.384 . S
C187 C18 2.011 . S
C191 C19 2.011 . S
C205 C39 2.028 . S
C209 C38 2.028 . S
C223 C58 2.027 . S
C227 C59 2.027 . S
C241 C79 2.014 . S
C245 C78 2.014 . S
C259 C98 2.028 . S
C263 C99 2.028 1_556 S
C277 C119 2.029 . S
C281 C118 2.029 1_556 S
C295 C132 0.542 . S
C299 C129 0.542 . S
C313 C149 0.627 . S
C317 C152 0.627 . S
C331 C172 0.646 . S
C335 C169 0.646 . S
C349 C104 1.522 . S
C353 C12 1.597 . S
C367 C24 1.476 . S
C371 C64 1.505 . S
C385 C52 1.632 . S
C389 C92 1.636 . S
C403 C44 1.213 . S
C407 C122 1.272 . S
C421 C159 1.386 . S
C425 C4 1.257 . S
C439 C162 1.368 . S
C443 C32 1.375 . S
C457 C178 1.481 . S
C461 C9 1.420 . S
C475 C22 1.245 1_556 S
C479 C138 1.355 . S
C493 C144 1.340 . S
C497 C49 1.370 . S
C511 C42 1.565 . S
C515 C69 1.590 . S
C529 C82 1.483 . S
C533 C2 1.501 . S
C547 C29 1.646 . S
C551 C109 1.622 . S
C565 C179 1.478 . S
C569 C72 1.422 . S
C583 C139 1.353 . S
C587 C84 1.242 . S
C601 C142 1.353 1_455 S
C605 C112 1.385 . S
C619 C124 1.273 . S
C623 C102 1.214 . S
C637 C62 1.251 . S
C641 C158 1.387 . S
C655 C164 1.356 1_455 S
C659 C89 1.390 . S
