# Generated by pormake.
# Topology uoh, (4)-cn, num edge types: 1
# Building blocks:
#     Node 0, Type 0, BuildingBlock: QUQFOY_clean_sbu_3, # of connection points: 4
#     Node 1, Type 0, BuildingBlock: QUQFOY_clean_sbu_3, # of connection points: 4
#     Node 2, Type 0, BuildingBlock: QUQFOY_clean_sbu_3, # of connection points: 4
#     Node 3, Type 0, BuildingBlock: QUQFOY_clean_sbu_3, # of connection points: 4
#     Node 4, Type 0, BuildingBlock: QUQFOY_clean_sbu_3, # of connection points: 4
#     Node 5, Type 0, BuildingBlock: QUQFOY_clean_sbu_3, # of connection points: 4
#     Node 6, Type 0, BuildingBlock: QUQFOY_clean_sbu_3, # of connection points: 4
#     Node 7, Type 0, BuildingBlock: QUQFOY_clean_sbu_3, # of connection points: 4
#     Node 8, Type 0, BuildingBlock: QUQFOY_clean_sbu_3, # of connection points: 4
#     Node 9, Type 0, BuildingBlock: QUQFOY_clean_sbu_3, # of connection points: 4
#     Node 10, Type 0, BuildingBlock: QUQFOY_clean_sbu_3, # of connection points: 4
#     Node 11, Type 0, BuildingBlock: QUQFOY_clean_sbu_3, # of connection points: 4
#     Node 12, Type 0, BuildingBlock: QUQFOY_clean_sbu_3, # of connection points: 4
#     Node 13, Type 0, BuildingBlock: QUQFOY_clean_sbu_3, # of connection points: 4
#     Node 14, Type 0, BuildingBlock: QUQFOY_clean_sbu_3, # of connection points: 4
#     Node 15, Type 0, BuildingBlock: QUQFOY_clean_sbu_3, # of connection points: 4
#     Node 16, Type 0, BuildingBlock: QUQFOY_clean_sbu_3, # of connection points: 4
#     Node 17, Type 0, BuildingBlock: QUQFOY_clean_sbu_3, # of connection points: 4
#     Node 18, Type 0, BuildingBlock: QUQFOY_clean_sbu_3, # of connection points: 4
#     Node 19, Type 0, BuildingBlock: QUQFOY_clean_sbu_3, # of connection points: 4
#     Node 20, Type 0, BuildingBlock: QUQFOY_clean_sbu_3, # of connection points: 4
#     Node 21, Type 0, BuildingBlock: QUQFOY_clean_sbu_3, # of connection points: 4
#     Node 22, Type 0, BuildingBlock: QUQFOY_clean_sbu_3, # of connection points: 4
#     Node 23, Type 0, BuildingBlock: QUQFOY_clean_sbu_3, # of connection points: 4
#     Node 24, Type 0, BuildingBlock: QUQFOY_clean_sbu_3, # of connection points: 4
#     Node 25, Type 0, BuildingBlock: QUQFOY_clean_sbu_3, # of connection points: 4
#     Node 26, Type 0, BuildingBlock: QUQFOY_clean_sbu_3, # of connection points: 4
#     Node 27, Type 0, BuildingBlock: QUQFOY_clean_sbu_3, # of connection points: 4
#     Node 28, Type 0, BuildingBlock: QUQFOY_clean_sbu_3, # of connection points: 4
#     Node 29, Type 0, BuildingBlock: QUQFOY_clean_sbu_3, # of connection points: 4
#     Node 30, Type 0, BuildingBlock: QUQFOY_clean_sbu_3, # of connection points: 4
#     Node 31, Type 0, BuildingBlock: QUQFOY_clean_sbu_3, # of connection points: 4
#     Node 32, Type 0, BuildingBlock: QUQFOY_clean_sbu_3, # of connection points: 4
#     Node 33, Type 0, BuildingBlock: QUQFOY_clean_sbu_3, # of connection points: 4
#     Node 34, Type 0, BuildingBlock: QUQFOY_clean_sbu_3, # of connection points: 4
#     Node 35, Type 0, BuildingBlock: QUQFOY_clean_sbu_3, # of connection points: 4
#     Edge 36, Type (0, 0), BuildingBlock: ZUJKAS_clean_linker_0, # of connection points: 2
#     Edge 37, Type (0, 0), BuildingBlock: ZUJKAS_clean_linker_0, # of connection points: 2
#     Edge 38, Type (0, 0), BuildingBlock: ZUJKAS_clean_linker_0, # of connection points: 2
#     Edge 39, Type (0, 0), BuildingBlock: ZUJKAS_clean_linker_0, # of connection points: 2
#     Edge 40, Type (0, 0), BuildingBlock: ZUJKAS_clean_linker_0, # of connection points: 2
#     Edge 41, Type (0, 0), BuildingBlock: ZUJKAS_clean_linker_0, # of connection points: 2
#     Edge 42, Type (0, 0), BuildingBlock: ZUJKAS_clean_linker_0, # of connection points: 2
#     Edge 43, Type (0, 0), BuildingBlock: ZUJKAS_clean_linker_0, # of connection points: 2
#     Edge 44, Type (0, 0), BuildingBlock: ZUJKAS_clean_linker_0, # of connection points: 2
#     Edge 45, Type (0, 0), BuildingBlock: ZUJKAS_clean_linker_0, # of connection points: 2
#     Edge 46, Type (0, 0), BuildingBlock: ZUJKAS_clean_linker_0, # of connection points: 2
#     Edge 47, Type (0, 0), BuildingBlock: ZUJKAS_clean_linker_0, # of connection points: 2
#     Edge 48, Type (0, 0), BuildingBlock: ZUJKAS_clean_linker_0, # of connection points: 2
#     Edge 49, Type (0, 0), BuildingBlock: ZUJKAS_clean_linker_0, # of connection points: 2
#     Edge 50, Type (0, 0), BuildingBlock: ZUJKAS_clean_linker_0, # of connection points: 2
#     Edge 51, Type (0, 0), BuildingBlock: ZUJKAS_clean_linker_0, # of connection points: 2
#     Edge 52, Type (0, 0), BuildingBlock: ZUJKAS_clean_linker_0, # of connection points: 2
#     Edge 53, Type (0, 0), BuildingBlock: ZUJKAS_clean_linker_0, # of connection points: 2
#     Edge 54, Type (0, 0), BuildingBlock: ZUJKAS_clean_linker_0, # of connection points: 2
#     Edge 55, Type (0, 0), BuildingBlock: ZUJKAS_clean_linker_0, # of connection points: 2
#     Edge 56, Type (0, 0), BuildingBlock: ZUJKAS_clean_linker_0, # of connection points: 2
#     Edge 57, Type (0, 0), BuildingBlock: ZUJKAS_clean_linker_0, # of connection points: 2
#     Edge 58, Type (0, 0), BuildingBlock: ZUJKAS_clean_linker_0, # of connection points: 2
#     Edge 59, Type (0, 0), BuildingBlock: ZUJKAS_clean_linker_0, # of connection points: 2
#     Edge 60, Type (0, 0), BuildingBlock: ZUJKAS_clean_linker_0, # of connection points: 2
#     Edge 61, Type (0, 0), BuildingBlock: ZUJKAS_clean_linker_0, # of connection points: 2
#     Edge 62, Type (0, 0), BuildingBlock: ZUJKAS_clean_linker_0, # of connection points: 2
#     Edge 63, Type (0, 0), BuildingBlock: ZUJKAS_clean_linker_0, # of connection points: 2
#     Edge 64, Type (0, 0), BuildingBlock: ZUJKAS_clean_linker_0, # of connection points: 2
#     Edge 65, Type (0, 0), BuildingBlock: ZUJKAS_clean_linker_0, # of connection points: 2
#     Edge 66, Type (0, 0), BuildingBlock: ZUJKAS_clean_linker_0, # of connection points: 2
#     Edge 67, Type (0, 0), BuildingBlock: ZUJKAS_clean_linker_0, # of connection points: 2
#     Edge 68, Type (0, 0), BuildingBlock: ZUJKAS_clean_linker_0, # of connection points: 2
#     Edge 69, Type (0, 0), BuildingBlock: ZUJKAS_clean_linker_0, # of connection points: 2
#     Edge 70, Type (0, 0), BuildingBlock: ZUJKAS_clean_linker_0, # of connection points: 2
#     Edge 71, Type (0, 0), BuildingBlock: ZUJKAS_clean_linker_0, # of connection points: 2
#     Edge 72, Type (0, 0), BuildingBlock: ZUJKAS_clean_linker_0, # of connection points: 2
#     Edge 73, Type (0, 0), BuildingBlock: ZUJKAS_clean_linker_0, # of connection points: 2
#     Edge 74, Type (0, 0), BuildingBlock: ZUJKAS_clean_linker_0, # of connection points: 2
#     Edge 75, Type (0, 0), BuildingBlock: ZUJKAS_clean_linker_0, # of connection points: 2
#     Edge 76, Type (0, 0), BuildingBlock: ZUJKAS_clean_linker_0, # of connection points: 2
#     Edge 77, Type (0, 0), BuildingBlock: ZUJKAS_clean_linker_0, # of connection points: 2
#     Edge 78, Type (0, 0), BuildingBlock: ZUJKAS_clean_linker_0, # of connection points: 2
#     Edge 79, Type (0, 0), BuildingBlock: ZUJKAS_clean_linker_0, # of connection points: 2
#     Edge 80, Type (0, 0), BuildingBlock: ZUJKAS_clean_linker_0, # of connection points: 2
#     Edge 81, Type (0, 0), BuildingBlock: ZUJKAS_clean_linker_0, # of connection points: 2
#     Edge 82, Type (0, 0), BuildingBlock: ZUJKAS_clean_linker_0, # of connection points: 2
#     Edge 83, Type (0, 0), BuildingBlock: ZUJKAS_clean_linker_0, # of connection points: 2
#     Edge 84, Type (0, 0), BuildingBlock: ZUJKAS_clean_linker_0, # of connection points: 2
#     Edge 85, Type (0, 0), BuildingBlock: ZUJKAS_clean_linker_0, # of connection points: 2
#     Edge 86, Type (0, 0), BuildingBlock: ZUJKAS_clean_linker_0, # of connection points: 2
#     Edge 87, Type (0, 0), BuildingBlock: ZUJKAS_clean_linker_0, # of connection points: 2
#     Edge 88, Type (0, 0), BuildingBlock: ZUJKAS_clean_linker_0, # of connection points: 2
#     Edge 89, Type (0, 0), BuildingBlock: ZUJKAS_clean_linker_0, # of connection points: 2
#     Edge 90, Type (0, 0), BuildingBlock: ZUJKAS_clean_linker_0, # of connection points: 2
#     Edge 91, Type (0, 0), BuildingBlock: ZUJKAS_clean_linker_0, # of connection points: 2
#     Edge 92, Type (0, 0), BuildingBlock: ZUJKAS_clean_linker_0, # of connection points: 2
#     Edge 93, Type (0, 0), BuildingBlock: ZUJKAS_clean_linker_0, # of connection points: 2
#     Edge 94, Type (0, 0), BuildingBlock: ZUJKAS_clean_linker_0, # of connection points: 2
#     Edge 95, Type (0, 0), BuildingBlock: ZUJKAS_clean_linker_0, # of connection points: 2
#     Edge 96, Type (0, 0), BuildingBlock: ZUJKAS_clean_linker_0, # of connection points: 2
#     Edge 97, Type (0, 0), BuildingBlock: ZUJKAS_clean_linker_0, # of connection points: 2
#     Edge 98, Type (0, 0), BuildingBlock: ZUJKAS_clean_linker_0, # of connection points: 2
#     Edge 99, Type (0, 0), BuildingBlock: ZUJKAS_clean_linker_0, # of connection points: 2
#     Edge 100, Type (0, 0), BuildingBlock: ZUJKAS_clean_linker_0, # of connection points: 2
#     Edge 101, Type (0, 0), BuildingBlock: ZUJKAS_clean_linker_0, # of connection points: 2
#     Edge 102, Type (0, 0), BuildingBlock: ZUJKAS_clean_linker_0, # of connection points: 2
#     Edge 103, Type (0, 0), BuildingBlock: ZUJKAS_clean_linker_0, # of connection points: 2
#     Edge 104, Type (0, 0), BuildingBlock: ZUJKAS_clean_linker_0, # of connection points: 2
#     Edge 105, Type (0, 0), BuildingBlock: ZUJKAS_clean_linker_0, # of connection points: 2
#     Edge 106, Type (0, 0), BuildingBlock: ZUJKAS_clean_linker_0, # of connection points: 2
#     Edge 107, Type (0, 0), BuildingBlock: ZUJKAS_clean_linker_0, # of connection points: 2
# Relax obj value: 0.091
# Max RMSD: 0.145
# Mean RMSD: 0.145
data_MOF--net-uoh--node1-QUQFOY_clean_sbu_3--edge1-ZUJKAS_clean_linker_0
_symmetry_space_group_name_H-M    P1
_symmetry_Int_Tables_number       1
_symmetry_cell_setting            triclinic
loop_
_symmetry_equiv_pos_as_xyz
'x, y, z'
_cell_length_a     116.42654
_cell_length_b     116.43604
_cell_length_c     36.536343
_cell_angle_alpha  90.023668
_cell_angle_beta   89.990217
_cell_angle_gamma 119.99512
loop_
_atom_site_label
_atom_site_type_symbol
_atom_site_fract_x
_atom_site_fract_y
_atom_site_fract_z
_atom_type_partial_charge
C0 C 0.22568 0.12333 0.15591 0.0
O1 O 0.22643 0.11546 0.17855 0.0
Cd2 Cd 0.23412 0.12154 0.23974 0.0
O3 O 0.2289 0.13511 0.1653 0.0
Cd4 Cd 0.23666 0.14958 0.21986 0.0
C5 C 0.26502 0.14808 0.22099 0.0
O6 O 0.22208 0.13196 0.26043 0.0
O7 O 0.23616 0.15002 0.28727 0.0
O8 O 0.22277 0.15804 0.19696 0.0
C9 C 0.22626 0.13841 0.2899 0.0
O10 O 0.25809 0.13629 0.23304 0.0
C11 C 0.2309 0.17012 0.204 0.0
O12 O 0.2596 0.15489 0.21266 0.0
O13 O 0.242 0.17277 0.21761 0.0
C14 C 0.88342 0.09913 0.13833 0.0
O15 O 0.89159 0.10753 0.16086 0.0
Cd16 Cd 0.88443 0.11357 0.21519 0.0
O17 O 0.87105 0.09277 0.14544 0.0
Cd18 Cd 0.85614 0.0903 0.19678 0.0
C19 C 0.86131 0.12086 0.18035 0.0
O20 O 0.87083 0.09345 0.24812 0.0
O21 O 0.85371 0.09537 0.25992 0.0
O22 O 0.84536 0.06642 0.19001 0.0
C23 C 0.86354 0.09465 0.2718 0.0
O24 O 0.87257 0.12508 0.19555 0.0
C25 C 0.83361 0.06446 0.19004 0.0
O26 O 0.85356 0.10851 0.17538 0.0
O27 O 0.83231 0.07463 0.19198 0.0
C28 C 0.89609 0.77573 0.14658 0.0
O29 O 0.88565 0.77428 0.16187 0.0
Cd30 Cd 0.87729 0.76316 0.21871 0.0
O31 O 0.90289 0.77115 0.16135 0.0
Cd32 Cd 0.90268 0.75936 0.2177 0.0
C33 C 0.87299 0.73257 0.19657 0.0
O34 O 0.89675 0.77255 0.25606 0.0
O35 O 0.89704 0.75621 0.28282 0.0
O36 O 0.92664 0.7725 0.21305 0.0
C37 C 0.89584 0.76641 0.28541 0.0
O38 O 0.86768 0.73946 0.20525 0.0
C39 C 0.92879 0.76316 0.22139 0.0
O40 O 0.88553 0.73765 0.19694 0.0
O41 O 0.91871 0.75187 0.22749 0.0
C42 C 0.10616 0.20797 0.34392 0.0
O43 O 0.09624 0.20862 0.3322 0.0
Cd44 Cd 0.09663 0.21941 0.2759 0.0
O45 O 0.11687 0.21297 0.32554 0.0
Cd46 Cd 0.12566 0.22462 0.26731 0.0
C47 C 0.12232 0.25062 0.29373 0.0
O48 O 0.10585 0.21163 0.22984 0.0
O49 O 0.12159 0.22962 0.20609 0.0
O50 O 0.13723 0.2122 0.26176 0.0
C51 C 0.11053 0.21909 0.2021 0.0
O52 O 0.10996 0.24332 0.28751 0.0
C53 C 0.14852 0.22219 0.25509 0.0
O54 O 0.1301 0.24595 0.29087 0.0
O55 O 0.14922 0.23342 0.25414 0.0
C56 C 0.76902 0.8939 0.32939 0.0
O57 O 0.76853 0.88449 0.31055 0.0
Cd58 Cd 0.76041 0.8794 0.24953 0.0
O59 O 0.76507 0.90145 0.31614 0.0
Cd60 Cd 0.75605 0.9044 0.25798 0.0
C61 C 0.72887 0.87377 0.26462 0.0
O62 O 0.77127 0.90079 0.22155 0.0
O63 O 0.75618 0.90225 0.19128 0.0
O64 O 0.76871 0.92789 0.2717 0.0
C65 C 0.76663 0.90143 0.19086 0.0
O66 O 0.73629 0.86908 0.25574 0.0
C67 C 0.75979 0.93047 0.26179 0.0
O68 O 0.73369 0.88619 0.26886 0.0
O69 O 0.74884 0.92077 0.25118 0.0
C70 C 0.10348 0.87753 0.31717 0.0
O71 O 0.11161 0.88522 0.29331 0.0
Cd72 Cd 0.11308 0.87773 0.23367 0.0
O73 O 0.09546 0.8654 0.30964 0.0
Cd74 Cd 0.08943 0.8501 0.25707 0.0
C75 C 0.11993 0.85333 0.25778 0.0
O76 O 0.09055 0.86592 0.21199 0.0
O77 O 0.08906 0.84798 0.19038 0.0
O78 O 0.06664 0.84025 0.27812 0.0
C79 C 0.08875 0.85855 0.1846 0.0
O80 O 0.12414 0.8647 0.24338 0.0
C81 C 0.06389 0.82832 0.27384 0.0
O82 O 0.10781 0.84624 0.26684 0.0
O83 O 0.0732 0.8265 0.26282 0.0
C84 C 0.77773 0.87971 0.83495 0.0
O85 O 0.77634 0.88818 0.81646 0.0
Cd86 Cd 0.7648 0.88323 0.75945 0.0
O87 O 0.77273 0.86778 0.82389 0.0
Cd88 Cd 0.76007 0.85379 0.77162 0.0
C89 C 0.73396 0.85858 0.7866 0.0
O90 O 0.77311 0.87097 0.72768 0.0
O91 O 0.75662 0.85322 0.70557 0.0
O92 O 0.77276 0.84283 0.78289 0.0
C93 C 0.7667 0.8645 0.69983 0.0
O94 O 0.74113 0.87032 0.77445 0.0
C95 C 0.76315 0.83114 0.77823 0.0
O96 O 0.73868 0.85086 0.79013 0.0
O97 O 0.75192 0.82992 0.77115 0.0
C98 C 0.11422 0.89321 0.82229 0.0
O99 O 0.10655 0.88538 0.79783 0.0
Cd100 Cd 0.11415 0.88235 0.73978 0.0
O101 O 0.12662 0.90048 0.81634 0.0
Cd102 Cd 0.14253 0.90565 0.76574 0.0
C103 C 0.1376 0.87445 0.76758 0.0
O104 O 0.12768 0.90442 0.71717 0.0
O105 O 0.14611 0.90597 0.69998 0.0
O106 O 0.15334 0.92879 0.78413 0.0
C107 C 0.13549 0.90578 0.69129 0.0
O108 O 0.12643 0.87066 0.75235 0.0
C109 C 0.16506 0.93069 0.78189 0.0
O110 O 0.14502 0.88651 0.77682 0.0
O111 O 0.16625 0.92073 0.77383 0.0
C112 C 0.1029 0.22558 0.8407 0.0
O113 O 0.11408 0.2273 0.83053 0.0
Cd114 Cd 0.12405 0.23776 0.7739 0.0
O115 O 0.09661 0.22959 0.8209 0.0
Cd116 Cd 0.09882 0.24052 0.76146 0.0
C117 C 0.12696 0.26833 0.78623 0.0
O118 O 0.10631 0.22688 0.7306 0.0
O119 O 0.10659 0.24253 0.6984 0.0
O120 O 0.07494 0.2265 0.76461 0.0
C121 C 0.10787 0.23236 0.69969 0.0
O122 O 0.13272 0.26154 0.78255 0.0
C123 C 0.07219 0.23458 0.7492 0.0
O124 O 0.11446 0.26293 0.78212 0.0
O125 O 0.08189 0.2457 0.73958 0.0
C126 C 0.87577 0.77528 0.64917 0.0
O127 O 0.8849 0.77439 0.66568 0.0
Cd128 Cd 0.88257 0.76518 0.72541 0.0
O129 O 0.86447 0.77107 0.66403 0.0
Cd130 Cd 0.85303 0.76089 0.72186 0.0
C131 C 0.85644 0.73383 0.70962 0.0
O132 O 0.87221 0.77523 0.75868 0.0
O133 O 0.85559 0.75979 0.78795 0.0
O134 O 0.84181 0.77347 0.71251 0.0
C135 C 0.86708 0.76994 0.78901 0.0
O136 O 0.86867 0.74111 0.71766 0.0
C137 C 0.83034 0.7641 0.72099 0.0
O138 O 0.84887 0.73876 0.70739 0.0
O139 O 0.82937 0.75307 0.72947 0.0
C140 C 0.21658 0.0984 0.64895 0.0
O141 O 0.21793 0.10769 0.66998 0.0
Cd142 Cd 0.22941 0.11306 0.72705 0.0
O143 O 0.22129 0.09099 0.65781 0.0
Cd144 Cd 0.23335 0.08837 0.70986 0.0
C145 C 0.25976 0.11904 0.69625 0.0
O146 O 0.22084 0.0921 0.75692 0.0
O147 O 0.23797 0.09123 0.77532 0.0
O148 O 0.22063 0.06457 0.69959 0.0
C149 C 0.22773 0.09188 0.78338 0.0
O150 O 0.25297 0.12369 0.71065 0.0
C151 C 0.23042 0.0627 0.70337 0.0
O152 O 0.25471 0.10663 0.69113 0.0
O153 O 0.2417 0.0729 0.70859 0.0
C154 C 0.89222 0.12393 0.65101 0.0
O155 O 0.8847 0.11548 0.67452 0.0
Cd156 Cd 0.88397 0.12162 0.73627 0.0
O157 O 0.90029 0.13587 0.6603 0.0
Cd158 Cd 0.90801 0.14971 0.71629 0.0
C159 C 0.87812 0.14755 0.72173 0.0
O160 O 0.90672 0.13221 0.75539 0.0
O161 O 0.90926 0.14965 0.78318 0.0
O162 O 0.92973 0.159 0.6876 0.0
C163 C 0.90902 0.13867 0.78492 0.0
O164 O 0.87374 0.13568 0.7326 0.0
C165 C 0.934 0.17073 0.69912 0.0
O166 O 0.89023 0.15478 0.71277 0.0
O167 O 0.92603 0.17282 0.71777 0.0
C168 C 0.88529 0.45189 0.47849 0.0
O169 O 0.88589 0.44416 0.50192 0.0
Cd170 Cd 0.8964 0.45162 0.55986 0.0
O171 O 0.88995 0.46414 0.48579 0.0
Cd172 Cd 0.9006 0.47956 0.53765 0.0
C173 C 0.92716 0.4754 0.52942 0.0
O174 O 0.88704 0.46415 0.58501 0.0
O175 O 0.90447 0.4818 0.60384 0.0
O176 O 0.88749 0.4897 0.521 0.0
C177 C 0.89363 0.47145 0.61156 0.0
O178 O 0.92015 0.4642 0.54491 0.0
C179 C 0.89685 0.50157 0.52466 0.0
O180 O 0.92225 0.48274 0.5221 0.0
O181 O 0.90816 0.50324 0.53315 0.0
C182 C 0.5459 0.4326 0.47136 0.0
O183 O 0.5541 0.44275 0.48935 0.0
Cd184 Cd 0.54849 0.44982 0.54435 0.0
O185 O 0.53398 0.42551 0.48225 0.0
Cd186 Cd 0.52016 0.42501 0.53413 0.0
C187 C 0.52367 0.45468 0.51146 0.0
O188 O 0.53695 0.43013 0.58061 0.0
O189 O 0.51958 0.43076 0.5981 0.0
O190 O 0.50987 0.40111 0.5304 0.0
C191 C 0.53025 0.43102 0.60658 0.0
O192 O 0.53527 0.4598 0.52507 0.0
C193 C 0.49803 0.39876 0.53358 0.0
O194 O 0.51631 0.44216 0.50935 0.0
O195 O 0.4964 0.40873 0.5361 0.0
C196 C 0.5585 0.10209 0.48284 0.0
O197 O 0.54971 0.10117 0.50518 0.0
Cd198 Cd 0.54822 0.09461 0.56763 0.0
O199 O 0.56735 0.09934 0.49277 0.0
Cd200 Cd 0.57386 0.092 0.54851 0.0
C201 C 0.54382 0.0636 0.55341 0.0
O202 O 0.57084 0.1072 0.5867 0.0
O203 O 0.57616 0.09445 0.61556 0.0
O204 O 0.59649 0.10473 0.52585 0.0
C205 C 0.57389 0.10401 0.61663 0.0
O206 O 0.53891 0.07057 0.56474 0.0
C207 C 0.59961 0.09601 0.53364 0.0
O208 O 0.55599 0.06905 0.54439 0.0
O209 O 0.59057 0.08522 0.54726 0.0
C210 C 0.78161 0.55086 0.67084 0.0
O211 O 0.77269 0.55278 0.65709 0.0
Cd212 Cd 0.77574 0.56514 0.60227 0.0
O213 O 0.79301 0.55581 0.65603 0.0
Cd214 Cd 0.80484 0.56922 0.60207 0.0
C215 C 0.80166 0.59549 0.62724 0.0
O216 O 0.78601 0.55672 0.56196 0.0
O217 O 0.80277 0.57377 0.53792 0.0
O218 O 0.81588 0.55623 0.60364 0.0
C219 C 0.79148 0.56354 0.5337 0.0
O220 O 0.78952 0.58866 0.61795 0.0
C221 C 0.82736 0.5658 0.59643 0.0
O222 O 0.80917 0.59047 0.62628 0.0
O223 O 0.82848 0.57714 0.59238 0.0
C224 C 0.43507 0.22581 0.65793 0.0
O225 O 0.43436 0.2164 0.63866 0.0
Cd226 Cd 0.42645 0.21219 0.5772 0.0
O227 O 0.43139 0.23364 0.64511 0.0
Cd228 Cd 0.42258 0.23743 0.58795 0.0
C229 C 0.39506 0.20693 0.5922 0.0
O230 O 0.43784 0.23398 0.55132 0.0
O231 O 0.42341 0.23656 0.52103 0.0
O232 O 0.4353 0.26066 0.60461 0.0
C233 C 0.43366 0.23539 0.52069 0.0
O234 O 0.40233 0.20212 0.58275 0.0
C235 C 0.42644 0.26345 0.59562 0.0
O236 O 0.40009 0.21933 0.59744 0.0
O237 O 0.41553 0.25398 0.5839 0.0
C238 C 0.76404 0.21358 0.67335 0.0
O239 O 0.77452 0.22304 0.65952 0.0
Cd240 Cd 0.78439 0.22102 0.60431 0.0
O241 O 0.75809 0.20228 0.65785 0.0
Cd242 Cd 0.75995 0.19131 0.60236 0.0
C243 C 0.78972 0.19548 0.62843 0.0
O244 O 0.76622 0.21032 0.56267 0.0
O245 O 0.76709 0.19382 0.53887 0.0
O246 O 0.73595 0.1802 0.60251 0.0
C247 C 0.76809 0.20508 0.53464 0.0
O248 O 0.79459 0.20765 0.61992 0.0
C249 C 0.73413 0.16873 0.59551 0.0
O250 O 0.77727 0.18751 0.62662 0.0
O251 O 0.74441 0.16765 0.59215 0.0
C252 C 0.44522 0.21598 0.16496 0.0
O253 O 0.44365 0.22434 0.14655 0.0
Cd254 Cd 0.43117 0.219 0.09121 0.0
O255 O 0.43996 0.20394 0.15464 0.0
Cd256 Cd 0.42638 0.18966 0.10379 0.0
C257 C 0.40081 0.19475 0.12322 0.0
O258 O 0.43882 0.2064 0.05824 0.0
O259 O 0.42139 0.18893 0.03858 0.0
O260 O 0.43927 0.17872 0.1122 0.0
C261 C 0.43173 0.19985 0.03137 0.0
O262 O 0.40783 0.20631 0.10972 0.0
C263 C 0.42969 0.16705 0.10712 0.0
O264 O 0.40545 0.18695 0.12623 0.0
O265 O 0.41835 0.1658 0.1017 0.0
C266 C 0.78946 0.22734 0.16688 0.0
O267 O 0.78022 0.21682 0.15259 0.0
Cd268 Cd 0.78081 0.20932 0.09226 0.0
O269 O 0.80009 0.23473 0.14923 0.0
Cd270 Cd 0.80935 0.23518 0.08816 0.0
C271 C 0.80815 0.20575 0.10051 0.0
O272 O 0.78874 0.22904 0.05649 0.0
O273 O 0.80443 0.2299 0.02324 0.0
O274 O 0.82005 0.25914 0.09344 0.0
C275 C 0.79293 0.2285 0.025 0.0
O276 O 0.79569 0.20017 0.09514 0.0
C277 C 0.83125 0.26143 0.08158 0.0
O278 O 0.81524 0.21832 0.10158 0.0
O279 O 0.83235 0.25144 0.07329 0.0
C280 C 0.76918 0.55465 0.16405 0.0
O281 O 0.77932 0.55546 0.14852 0.0
Cd282 Cd 0.78596 0.56398 0.08808 0.0
O283 O 0.76202 0.55848 0.14771 0.0
Cd284 Cd 0.76058 0.56769 0.08846 0.0
C285 C 0.79052 0.59526 0.10067 0.0
O286 O 0.76555 0.55276 0.05463 0.0
O287 O 0.76439 0.56772 0.02278 0.0
O288 O 0.73702 0.55491 0.10138 0.0
C289 C 0.76554 0.55746 0.02347 0.0
O290 O 0.79568 0.58807 0.09404 0.0
C291 C 0.73421 0.56325 0.0879 0.0
O292 O 0.77799 0.59017 0.10205 0.0
O293 O 0.74377 0.57388 0.07509 0.0
C294 C 0.5449 0.11058 0.97673 0.0
O295 O 0.55226 0.10861 -0.00156 0.0
Cd296 Cd 0.54539 0.09782 0.05626 0.0
O297 O 0.53284 0.10669 0.98479 0.0
Cd298 Cd 0.51739 0.09514 0.03592 0.0
C299 C 0.52036 0.06777 0.0257 0.0
O300 O 0.53349 0.10744 0.08333 0.0
O301 O 0.515 0.09097 0.10176 0.0
O302 O 0.50749 0.10882 0.02325 0.0
C303 C 0.52609 0.10096 0.10982 0.0
O304 O 0.53167 0.07429 0.041 0.0
C305 C 0.49558 0.09947 0.02638 0.0
O306 O 0.51348 0.07324 0.01882 0.0
O307 O 0.4938 0.08796 0.03244 0.0
C308 C 0.88738 0.43523 0.97849 0.0
O309 O 0.88713 0.44285 0.00298 0.0
Cd310 Cd 0.8964 0.44509 0.06257 0.0
O311 O 0.89207 0.42763 0.98527 0.0
Cd312 Cd 0.90115 0.42125 0.03768 0.0
C313 C 0.92798 0.45214 0.03935 0.0
O314 O 0.88676 0.42266 0.08314 0.0
O315 O 0.90249 0.41997 0.1043 0.0
O316 O 0.88843 0.39844 0.01673 0.0
C317 C 0.89223 0.42079 0.11057 0.0
O318 O 0.92048 0.45615 0.05266 0.0
C319 C 0.89785 0.39597 0.01993 0.0
O320 O 0.92332 0.44005 0.03039 0.0
O321 O 0.909 0.40547 0.03016 0.0
C322 C 0.55728 0.45436 0.98241 0.0
O323 O 0.54868 0.44519 0.0025 0.0
Cd324 Cd 0.54442 0.44855 0.0639 0.0
O325 O 0.56473 0.46603 -0.00511 0.0
Cd326 Cd 0.56983 0.4784 0.05357 0.0
C327 C 0.53927 0.47518 0.05285 0.0
O328 O 0.5666 0.45906 0.08639 0.0
O329 O 0.57145 0.47601 0.12013 0.0
O330 O 0.59193 0.48913 0.02715 0.0
C331 C 0.56907 0.46417 0.11791 0.0
O332 O 0.53455 0.4628 0.05794 0.0
C333 C 0.59581 0.50028 0.04231 0.0
O334 O 0.5517 0.48305 0.05034 0.0
O335 O 0.58745 0.50142 0.06203 0.0
C336 C 0.55398 0.78772 0.80766 0.0
O337 O 0.55515 0.77828 0.82101 0.0
Cd338 Cd 0.56489 0.77904 0.87909 0.0
O339 O 0.55803 0.79849 0.82534 0.0
Cd340 Cd 0.56816 0.80796 0.88514 0.0
C341 C 0.59579 0.8063 0.86623 0.0
O342 O 0.5547 0.78755 0.91899 0.0
O343 O 0.57036 0.80366 0.94929 0.0
O344 O 0.5542 0.8179 0.88437 0.0
C345 C 0.5604 0.79205 0.94937 0.0
O346 O 0.58878 0.79385 0.8715 0.0
C347 C 0.56319 0.8294 0.89398 0.0
O348 O 0.59058 0.81365 0.86745 0.0
O349 O 0.57472 0.83107 0.89895 0.0
C350 C 0.20745 0.7634 0.80609 0.0
O351 O 0.21648 0.7738 0.82139 0.0
Cd352 Cd 0.21326 0.78246 0.87705 0.0
O353 O 0.19598 0.75687 0.82046 0.0
Cd354 Cd 0.18451 0.75773 0.87625 0.0
C355 C 0.18727 0.78691 0.85235 0.0
O356 O 0.20315 0.76368 0.91689 0.0
O357 O 0.18686 0.76519 0.93963 0.0
O358 O 0.17415 0.7338 0.87548 0.0
C359 C 0.19774 0.76544 0.94469 0.0
O360 O 0.19937 0.79216 0.86206 0.0
C361 C 0.16257 0.73152 0.88326 0.0
O362 O 0.17976 0.77438 0.85255 0.0
O363 O 0.16105 0.74152 0.88693 0.0
C364 C 0.23031 0.44678 0.813 0.0
O365 O 0.22016 0.44598 0.8285 0.0
Cd366 Cd 0.21294 0.43769 0.88915 0.0
O367 O 0.23749 0.44299 0.82942 0.0
Cd368 Cd 0.23833 0.43367 0.88907 0.0
C369 C 0.20781 0.40628 0.87756 0.0
O370 O 0.23305 0.44833 0.9239 0.0
O371 O 0.23544 0.43387 0.95479 0.0
O372 O 0.26224 0.44586 0.88073 0.0
C373 C 0.23354 0.44366 0.95475 0.0
O374 O 0.20274 0.41358 0.88377 0.0
C375 C 0.26404 0.4365 0.89132 0.0
O376 O 0.22034 0.41127 0.87637 0.0
O377 O 0.2538 0.42564 0.89995 0.0
C378 C 0.44926 0.89292 -0.01007 0.0
O379 O 0.4415 0.8929 0.96547 0.0
Cd380 Cd 0.44869 0.90093 0.90486 0.0
O381 O 0.46138 0.89682 0.9827 0.0
Cd382 Cd 0.47679 0.90469 0.93012 0.0
C383 C 0.47405 0.93234 0.925 0.0
O384 O 0.46016 0.88951 0.88775 0.0
O385 O 0.47885 0.90365 0.86358 0.0
O386 O 0.48597 0.89168 0.95511 0.0
C387 C 0.46744 0.89356 0.85962 0.0
O388 O 0.46247 0.92507 0.91188 0.0
C389 C 0.49802 0.90047 0.95011 0.0
O390 O 0.48106 0.9273 0.93477 0.0
O391 O 0.50022 0.91151 0.9372 0.0
C392 C 0.10785 0.55835 -0.0041 0.0
O393 O 0.10545 0.5493 0.97269 0.0
Cd394 Cd 0.09406 0.54705 0.91639 0.0
O395 O 0.10401 0.5667 -0.00961 0.0
Cd396 Cd 0.0918 0.5714 0.94311 0.0
C397 C 0.06441 0.54127 0.95143 0.0
O398 O 0.10345 0.56898 0.89126 0.0
O399 O 0.0858 0.56979 0.87847 0.0
O400 O 0.10584 0.59476 0.95724 0.0
C401 C 0.09613 0.56989 0.8672 0.0
O402 O 0.07054 0.53681 0.93259 0.0
C403 C 0.0965 0.5974 0.9581 0.0
O404 O 0.07021 0.55335 0.96143 0.0
O405 O 0.08482 0.58777 0.95329 0.0
C406 C 0.43613 0.55272 -0.00725 0.0
O407 O 0.44541 0.55904 0.96991 0.0
Cd408 Cd 0.44776 0.54902 0.91517 0.0
O409 O 0.42783 0.54047 0.98797 0.0
Cd410 Cd 0.42382 0.52302 0.94333 0.0
C411 C 0.45398 0.52628 0.95479 0.0
O412 O 0.42597 0.53615 0.88939 0.0
O413 O 0.42591 0.51786 0.87958 0.0
O414 O 0.40049 0.51365 0.95802 0.0
C415 C 0.42534 0.52766 0.86664 0.0
O416 O 0.45822 0.53606 0.93284 0.0
C417 C 0.3979 0.50169 0.95899 0.0
O418 O 0.44206 0.52048 0.96615 0.0
O419 O 0.40752 0.49966 0.9539 0.0
C420 C 0.09899 0.5421 0.48988 0.0
O421 O 0.0995 0.55016 0.46562 0.0
Cd422 Cd 0.0925 0.54365 0.404 0.0
O423 O 0.09534 0.5301 0.48183 0.0
Cd424 Cd 0.08888 0.51541 0.42771 0.0
C425 C 0.06103 0.51763 0.42141 0.0
O426 O 0.10458 0.53277 0.3877 0.0
O427 O 0.09103 0.51433 0.36129 0.0
O428 O 0.10121 0.50604 0.45659 0.0
C429 C 0.10104 0.52586 0.35882 0.0
O430 O 0.06831 0.52939 0.40943 0.0
C431 C 0.09323 0.49421 0.44667 0.0
O432 O 0.06611 0.51062 0.4308 0.0
O433 O 0.08293 0.49217 0.42935 0.0
C434 C 0.45034 0.55427 0.48576 0.0
O435 O 0.44218 0.54692 0.4614 0.0
Cd436 Cd 0.44852 0.54705 0.39908 0.0
O437 O 0.46228 0.56272 0.4775 0.0
Cd438 Cd 0.47668 0.57133 0.42304 0.0
C439 C 0.47444 0.54133 0.4128 0.0
O440 O 0.4595 0.5701 0.38296 0.0
O441 O 0.47793 0.57476 0.35683 0.0
O442 O 0.48622 0.59339 0.44953 0.0
C443 C 0.46651 0.57353 0.35425 0.0
O444 O 0.46263 0.53687 0.40137 0.0
C445 C 0.49819 0.59655 0.44351 0.0
O446 O 0.4814 0.55331 0.42319 0.0
O447 O 0.50015 0.58775 0.42912 0.0
C448 C 0.43795 0.88488 0.49313 0.0
O449 O 0.44699 0.88705 0.47012 0.0
Cd450 Cd 0.44947 0.89862 0.41413 0.0
O451 O 0.42984 0.88901 0.48735 0.0
Cd452 Cd 0.42549 0.9014 0.43986 0.0
C453 C 0.45592 0.92839 0.4497 0.0
O454 O 0.42748 0.88919 0.38884 0.0
O455 O 0.42679 0.90683 0.37479 0.0
O456 O 0.40214 0.88775 0.45492 0.0
C457 C 0.42634 0.89624 0.36435 0.0
O458 O 0.46035 0.92209 0.43154 0.0
C459 C 0.39967 0.8972 0.45509 0.0
O460 O 0.44371 0.92285 0.45825 0.0
O461 O 0.40937 0.90877 0.44946 0.0
C462 C 0.20459 0.43204 0.30956 0.0
O463 O 0.21314 0.42955 0.32327 0.0
Cd464 Cd 0.211 0.41993 0.38224 0.0
O465 O 0.19393 0.42904 0.32669 0.0
Cd466 Cd 0.18336 0.41877 0.38553 0.0
C467 C 0.18283 0.3899 0.36974 0.0
O468 O 0.20387 0.43214 0.41949 0.0
O469 O 0.18726 0.4175 0.45058 0.0
O470 O 0.17367 0.43279 0.37595 0.0
C471 C 0.19901 0.42721 0.45036 0.0
O472 O 0.19525 0.39622 0.37603 0.0
C473 C 0.16272 0.42506 0.39142 0.0
O474 O 0.17623 0.39591 0.36917 0.0
O475 O 0.16119 0.41418 0.40361 0.0
C476 C 0.55028 0.763 0.30827 0.0
O477 O 0.55107 0.77338 0.32207 0.0
Cd478 Cd 0.56132 0.78274 0.37934 0.0
O479 O 0.55492 0.75664 0.32518 0.0
Cd480 Cd 0.56584 0.75773 0.38399 0.0
C481 C 0.5924 0.78736 0.36161 0.0
O482 O 0.55243 0.7642 0.41979 0.0
O483 O 0.56905 0.76485 0.44777 0.0
O484 O 0.5526 0.73375 0.38312 0.0
C485 C 0.5588 0.76602 0.44928 0.0
O486 O 0.58515 0.79245 0.36822 0.0
C487 C 0.56193 0.7317 0.39232 0.0
O488 O 0.58764 0.77487 0.36333 0.0
O489 O 0.57328 0.74184 0.39727 0.0
C490 C 0.23127 0.78867 0.31339 0.0
O491 O 0.22187 0.77906 0.33039 0.0
Cd492 Cd 0.21377 0.7814 0.38787 0.0
O493 O 0.23755 0.8002 0.3276 0.0
Cd494 Cd 0.23848 0.81094 0.38688 0.0
C495 C 0.20851 0.80748 0.3685 0.0
O496 O 0.23359 0.79171 0.42303 0.0
O497 O 0.23285 0.80732 0.45247 0.0
O498 O 0.2623 0.82161 0.38022 0.0
C499 C 0.23232 0.79618 0.45329 0.0
O500 O 0.20367 0.79522 0.37595 0.0
C501 C 0.2647 0.83299 0.39069 0.0
O502 O 0.22098 0.81535 0.36904 0.0
O503 O 0.25478 0.83428 0.3986 0.0
H504 H 0.24092 0.09192 0.8449 0.0
H505 H 0.23691 0.09637 0.90754 0.0
H506 H 0.20417 0.10079 0.87037 0.0
H507 H 0.208 0.09619 0.80752 0.0
H508 H 0.23784 0.12023 0.92877 0.0
H509 H 0.18916 0.07556 0.95997 0.0
H510 H 0.19968 0.07595 0.92307 0.0
H511 H 0.19023 0.08419 0.91814 0.0
C512 C 0.23279 0.09371 0.85008 0.0
C513 C 0.22481 0.09377 0.82136 0.0
C514 C 0.23051 0.09623 0.88582 0.0
C515 C 0.2202 0.0988 0.89342 0.0
C516 C 0.21204 0.09863 0.86499 0.0
H517 H 0.2217 0.1369 0.10089 0.0
H518 H 0.21801 0.1309 0.03607 0.0
C519 C 0.2143 0.09607 0.82916 0.0
C520 C 0.21868 0.10255 0.93084 0.0
H521 H 0.19857 0.09199 0.00589 0.0
C522 C 0.22922 0.11414 0.94562 0.0
C523 C 0.2074 0.0945 0.95246 0.0
C524 C 0.19598 0.08179 0.93785 0.0
C525 C 0.22899 0.11775 0.98199 0.0
C526 C 0.21777 0.10965 0.00382 0.0
C527 C 0.20707 0.09821 -0.01119 0.0
C528 C 0.21767 0.11229 0.04321 0.0
C529 C 0.24101 0.12986 -0.00281 0.0
C530 C 0.21804 0.10348 0.06864 0.0
C531 C 0.22008 0.10682 0.10564 0.0
C532 C 0.2218 0.11906 0.1177 0.0
C533 C 0.2206 0.12749 0.09237 0.0
C534 C 0.21849 0.12409 0.05538 0.0
H535 H 0.24974 0.13348 0.97879 0.0
H536 H 0.23871 0.13797 0.00059 0.0
H537 H 0.24373 0.12771 0.02443 0.0
H538 H 0.21739 0.09431 0.05964 0.0
H539 H 0.22084 0.10006 0.12447 0.0
H540 H 0.9074 0.147 0.85326 0.0
H541 H 0.90765 0.13691 0.91138 0.0
H542 H 0.91349 0.10773 0.85446 0.0
H543 H 0.91267 0.11751 0.79583 0.0
H544 H 0.89528 0.09602 0.90357 0.0
H545 H 0.93691 0.13859 0.97099 0.0
H546 H 0.92563 0.14373 0.95516 0.0
H547 H 0.93383 0.13857 0.92256 0.0
C548 C 0.90889 0.13853 0.85311 0.0
C549 C 0.91002 0.13304 0.82008 0.0
C550 C 0.90918 0.13285 0.88639 0.0
C551 C 0.91096 0.12177 0.88737 0.0
C552 C 0.91225 0.11635 0.85437 0.0
H553 H 0.90832 0.10451 0.11921 0.0
H554 H 0.91687 0.10609 0.05711 0.0
C555 C 0.91176 0.12193 0.82095 0.0
C556 C 0.91024 0.1153 0.92285 0.0
H557 H 0.91911 0.12307 0.012 0.0
C558 C 0.90075 0.10184 0.92718 0.0
C559 C 0.91773 0.12265 0.95348 0.0
C560 C 0.9292 0.13663 0.95011 0.0
C561 C 0.89755 0.09597 0.96197 0.0
C562 C 0.90363 0.10393 -0.00683 0.0
C563 C 0.91415 0.11696 0.98834 0.0
C564 C 0.89802 0.09984 0.0305 0.0
C565 C 0.88742 0.08142 0.96482 0.0
C566 C 0.8845 0.09533 0.03639 0.0
C567 C 0.87956 0.09412 0.07179 0.0
C568 C 0.88813 0.09782 0.10197 0.0
C569 C 0.90152 0.10169 0.09634 0.0
C570 C 0.9064 0.10258 0.06089 0.0
H571 H 0.88853 0.07584 0.94171 0.0
H572 H 0.88831 0.07706 -0.00906 0.0
H573 H 0.87731 0.0801 0.96288 0.0
H574 H 0.87787 0.09359 0.01364 0.0
H575 H 0.86921 0.09123 0.07528 0.0
H576 H 0.91796 0.78099 0.10592 0.0
H577 H 0.92205 0.78786 0.04179 0.0
H578 H 0.88661 0.79092 0.04065 0.0
H579 H 0.88266 0.78446 0.10454 0.0
H580 H 0.90566 0.77252 -0.00831 0.0
H581 H 0.90956 0.82122 0.9752 0.0
H582 H 0.91208 0.81558 0.01897 0.0
H583 H 0.89562 0.81128 0.00401 0.0
C584 C 0.91125 0.78349 0.09225 0.0
C585 C 0.89986 0.78197 0.1101 0.0
C586 C 0.91365 0.78749 0.05568 0.0
C587 C 0.90473 0.79006 0.0365 0.0
C588 C 0.89385 0.78937 0.05505 0.0
H589 H 0.85953 0.75877 0.85649 0.0
H590 H 0.87248 0.76581 0.91289 0.0
C591 C 0.89149 0.78547 0.09157 0.0
C592 C 0.90503 0.7907 -0.0039 0.0
H593 H 0.89719 0.80482 0.92589 0.0
C594 C 0.9043 0.77987 0.97709 0.0
C595 C 0.90349 0.80036 0.97676 0.0
C596 C 0.90539 0.81282 -0.00511 0.0
C597 C 0.9005 0.77764 0.94032 0.0
C598 C 0.8972 0.78634 0.92249 0.0
C599 C 0.89944 0.79799 0.94006 0.0
C600 C 0.8896 0.78245 0.88812 0.0
C601 C 0.8992 0.76549 0.92154 0.0
C602 C 0.89487 0.78974 0.85594 0.0
C603 C 0.88748 0.78574 0.82361 0.0
C604 C 0.87469 0.77449 0.82329 0.0
C605 C 0.86937 0.76743 0.85586 0.0
C606 C 0.87677 0.77139 0.88801 0.0
H607 H 0.90588 0.76235 0.93406 0.0
H608 H 0.88885 0.7572 0.92451 0.0
H609 H 0.90149 0.76732 0.89189 0.0
H610 H 0.90472 0.79838 0.85577 0.0
H611 H 0.8918 0.79141 0.79887 0.0
H612 H 0.12438 0.20266 0.37502 0.0
H613 H 0.12642 0.19902 0.43996 0.0
H614 H 0.08988 0.19882 0.46169 0.0
H615 H 0.08756 0.202 0.39704 0.0
H616 H 0.13063 0.21739 0.48627 0.0
H617 H 0.08667 0.17241 0.53559 0.0
H618 H 0.09088 0.17502 0.48753 0.0
H619 H 0.08109 0.1814 0.50817 0.0
C620 C 0.11655 0.2014 0.39351 0.0
C621 C 0.10591 0.20284 0.38103 0.0
C622 C 0.11772 0.19926 0.43059 0.0
C623 C 0.10828 0.19857 0.45576 0.0
C624 C 0.09713 0.19897 0.44282 0.0
H625 H 0.11233 0.2425 0.63073 0.0
H626 H 0.11511 0.23258 0.57514 0.0
C627 C 0.09588 0.20095 0.40576 0.0
C628 C 0.1113 0.20026 0.4954 0.0
H629 H 0.09563 0.19179 0.57799 0.0
C630 C 0.12315 0.21149 0.50647 0.0
C631 C 0.10176 0.19247 0.52208 0.0
C632 C 0.08947 0.17957 0.51262 0.0
C633 C 0.12498 0.216 0.54266 0.0
C634 C 0.11459 0.20926 0.56806 0.0
C635 C 0.10346 0.19716 0.55816 0.0
C636 C 0.11413 0.21562 0.60254 0.0
C637 C 0.1377 0.2284 0.5528 0.0
C638 C 0.11245 0.20925 0.63629 0.0
C639 C 0.11077 0.21488 0.66819 0.0
C640 C 0.1106 0.22687 0.66662 0.0
C641 C 0.11247 0.23329 0.63283 0.0
C642 C 0.11418 0.22769 0.60108 0.0
H643 H 0.14612 0.22939 0.53607 0.0
H644 H 0.13664 0.23719 0.54724 0.0
H645 H 0.14011 0.22843 0.58222 0.0
H646 H 0.11224 0.19986 0.63783 0.0
H647 H 0.10932 0.2097 0.69389 0.0
H648 H 0.77536 0.87792 0.36852 0.0
H649 H 0.77964 0.87883 0.43395 0.0
H650 H 0.77749 0.91466 0.44271 0.0
H651 H 0.77285 0.91368 0.37708 0.0
H652 H 0.79816 0.89736 0.48302 0.0
H653 H 0.74688 0.88807 0.50687 0.0
H654 H 0.75261 0.88677 0.46206 0.0
H655 H 0.75791 0.90279 0.48177 0.0
C656 C 0.77596 0.8861 0.38417 0.0
C657 C 0.77348 0.89557 0.36778 0.0
C658 C 0.77849 0.88665 0.42153 0.0
C659 C 0.77866 0.89669 0.4431 0.0
C660 C 0.77716 0.90671 0.42648 0.0
H661 H 0.78606 0.88949 0.68123 0.0
H662 H 0.79063 0.89967 0.62038 0.0
C663 C 0.77451 0.90612 0.38905 0.0
C664 C 0.77884 0.89557 0.48323 0.0
H665 H 0.75837 0.88663 0.55735 0.0
C666 C 0.7896 0.89527 0.49957 0.0
C667 C 0.76756 0.89275 0.50442 0.0
C668 C 0.75553 0.8925 0.48801 0.0
C669 C 0.78907 0.89152 0.53625 0.0
C670 C 0.77756 0.88816 0.55687 0.0
C671 C 0.76715 0.88921 0.54117 0.0
C672 C 0.77539 0.88209 0.59338 0.0
C673 C 0.80042 0.89036 0.55206 0.0
C674 C 0.76528 0.8689 0.59807 0.0
C675 C 0.76259 0.8631 0.63263 0.0
C676 C 0.76997 0.87042 0.66306 0.0
C677 C 0.78024 0.8836 0.65819 0.0
C678 C 0.7829 0.88942 0.62354 0.0
H679 H 0.80786 0.8917 0.53095 0.0
H680 H 0.80546 0.89805 0.57345 0.0
H681 H 0.79667 0.88052 0.56519 0.0
H682 H 0.75939 0.86313 0.57494 0.0
H683 H 0.75465 0.85293 0.63556 0.0
H684 H 0.15047 0.90889 0.63092 0.0
H685 H 0.14351 0.90642 0.56698 0.0
H686 H 0.10495 0.89927 0.60051 0.0
H687 H 0.11188 0.9019 0.66465 0.0
H688 H 0.12224 0.88283 0.54075 0.0
H689 H 0.1149 0.92579 0.51483 0.0
H690 H 0.12465 0.92531 0.55267 0.0
H691 H 0.10687 0.91616 0.55496 0.0
C692 C 0.14057 0.90698 0.62468 0.0
C693 C 0.13168 0.90549 0.65273 0.0
C694 C 0.13663 0.90561 0.58819 0.0
C695 C 0.12377 0.90278 0.57915 0.0
C696 C 0.11499 0.90169 0.60698 0.0
H697 H 0.08693 0.86428 0.37425 0.0
H698 H 0.09012 0.87095 0.43855 0.0
C699 C 0.11894 0.9031 0.64356 0.0
C700 C 0.1192 0.89961 0.54095 0.0
H701 H 0.10818 0.90962 0.46778 0.0
C702 C 0.11914 0.88867 0.52478 0.0
C703 C 0.11521 0.9073 0.52039 0.0
C704 C 0.11548 0.91937 0.53638 0.0
C705 C 0.11533 0.88524 0.48833 0.0
C706 C 0.1112 0.89282 0.4678 0.0
C707 C 0.1112 0.90376 0.48392 0.0
C708 C 0.10772 0.88992 0.42882 0.0
C709 C 0.11611 0.87375 0.4718 0.0
C710 C 0.11618 0.89871 0.40212 0.0
C711 C 0.11438 0.89497 0.36536 0.0
C712 C 0.10409 0.88236 0.35487 0.0
C713 C 0.09506 0.87398 0.3815 0.0
C714 C 0.09685 0.87777 0.41822 0.0
H715 H 0.12204 0.87075 0.48896 0.0
H716 H 0.10596 0.86509 0.46921 0.0
H717 H 0.12058 0.87631 0.44404 0.0
H718 H 0.12461 0.90815 0.40992 0.0
H719 H 0.12144 0.9017 0.34548 0.0
H720 H 0.75702 0.89941 0.1218 0.0
H721 H 0.76582 0.89551 0.06538 0.0
H722 H 0.79784 0.89594 0.12582 0.0
H723 H 0.78909 0.89982 0.18267 0.0
H724 H 0.80435 0.91168 0.0545 0.0
H725 H 0.76493 0.85892 0.0458 0.0
H726 H 0.75881 0.86998 0.05628 0.0
H727 H 0.76952 0.86814 0.08825 0.0
C728 C 0.76596 0.89874 0.12312 0.0
C729 C 0.77231 0.8998 0.15661 0.0
C730 C 0.77095 0.89649 0.09095 0.0
C731 C 0.78235 0.89531 0.09179 0.0
C732 C 0.78898 0.89677 0.1249 0.0
H733 H 0.78527 0.86542 0.87799 0.0
H734 H 0.79215 0.86973 0.94204 0.0
C735 C 0.78395 0.89895 0.15721 0.0
C736 C 0.787 0.89226 0.05774 0.0
H737 H 0.77546 0.86947 -0.01068 0.0
C738 C 0.79829 0.90234 0.04042 0.0
C739 C 0.77928 0.87995 0.04015 0.0
C740 C 0.76752 0.86856 0.0587 0.0
C741 C 0.80125 0.90086 0.00413 0.0
C742 C 0.79253 0.88912 0.98495 0.0
C743 C 0.7821 0.87854 0.0038 0.0
C744 C 0.79233 0.88839 0.94457 0.0
C745 C 0.81331 0.91208 0.98625 0.0
C746 C 0.79063 0.89769 0.9244 0.0
C747 C 0.78675 0.89529 0.88784 0.0
C748 C 0.78426 0.88342 0.87102 0.0
C749 C 0.78693 0.87458 0.89041 0.0
C750 C 0.79095 0.87706 0.92691 0.0
H751 H 0.82149 0.91714 0.00641 0.0
H752 H 0.81688 0.90857 0.96297 0.0
H753 H 0.81081 0.91954 0.97601 0.0
H754 H 0.79127 0.90632 0.93759 0.0
H755 H 0.78483 0.90232 0.87362 0.0
H756 H 0.08279 0.87761 0.16559 0.0
H757 H 0.08147 0.88499 0.10378 0.0
H758 H 0.09125 0.85667 0.05862 0.0
H759 H 0.09198 0.84889 0.12 0.0
H760 H 0.09996 0.89664 0.05596 0.0
H761 H 0.06172 0.85047 -0.0075 0.0
H762 H 0.06433 0.85197 0.04137 0.0
H763 H 0.07397 0.84739 0.01241 0.0
C764 C 0.08446 0.87285 0.14236 0.0
C765 C 0.08746 0.86267 0.14747 0.0
C766 C 0.08368 0.87705 0.10713 0.0
C767 C 0.08597 0.87119 0.0765 0.0
C768 C 0.08896 0.86102 0.0817 0.0
H769 H 0.12791 0.90136 0.88623 0.0
H770 H 0.11882 0.89819 0.94763 0.0
C771 C 0.08953 0.85667 0.11683 0.0
C772 C 0.08654 0.87646 0.03928 0.0
H773 H 0.07898 0.86626 0.95085 0.0
C774 C 0.0951 0.89005 0.03302 0.0
C775 C 0.07985 0.86804 0.00938 0.0
C776 C 0.06933 0.85369 0.01442 0.0
C777 C 0.09814 0.89515 -0.00261 0.0
C778 C 0.09289 0.88633 0.96739 0.0
C779 C 0.08331 0.87302 0.97376 0.0
C780 C 0.09843 0.89015 0.92999 0.0
C781 C 0.10724 0.90986 -0.00757 0.0
C782 C 0.09003 0.88652 0.8994 0.0
C783 C 0.0952 0.88795 0.86412 0.0
C784 C 0.10888 0.89317 0.85889 0.0
C785 C 0.11734 0.89742 0.88938 0.0
C786 C 0.11215 0.89575 0.92459 0.0
H787 H 0.10554 0.91549 0.01429 0.0
H788 H 0.11769 0.9122 -0.00525 0.0
H789 H 0.1058 0.91333 0.96542 0.0
H790 H 0.07941 0.88212 0.90288 0.0
H791 H 0.08845 0.88466 0.84105 0.0
H792 H 0.11485 0.21869 0.89359 0.0
H793 H 0.10651 0.21026 0.95446 0.0
H794 H 0.06977 0.20919 0.92916 0.0
H795 H 0.07823 0.21802 0.86816 0.0
H796 H 0.07971 0.22221 -0.01048 0.0
H797 H 0.08103 0.17593 0.00146 0.0
H798 H 0.09659 0.18828 0.98298 0.0
H799 H 0.08152 0.18329 0.95752 0.0
C800 C 0.1049 0.21645 0.90065 0.0
C801 C 0.09726 0.21916 0.87617 0.0
C802 C 0.10005 0.21143 0.93537 0.0
C803 C 0.08738 0.2088 0.94615 0.0
C804 C 0.07951 0.21101 0.92126 0.0
H805 H 0.08769 0.19638 0.18292 0.0
H806 H 0.07656 0.19121 0.12309 0.0
C807 C 0.0844 0.21613 0.88652 0.0
C808 C 0.08351 0.20591 0.98507 0.0
H809 H 0.08772 0.19004 0.05765 0.0
C810 C 0.08097 0.21484 0.00433 0.0
C811 C 0.0847 0.19606 0.00454 0.0
C812 C 0.08595 0.18527 0.98534 0.0
C813 C 0.08143 0.21532 0.04259 0.0
C814 C 0.0848 0.20688 0.06173 0.0
C815 C 0.08548 0.19676 0.04283 0.0
C816 C 0.09034 0.21017 0.09907 0.0
C817 C 0.07929 0.22554 0.06201 0.0
C818 C 0.10181 0.22246 0.10504 0.0
C819 C 0.1082 0.22538 0.13874 0.0
C820 C 0.10328 0.21604 0.16716 0.0
C821 C 0.09167 0.20377 0.16144 0.0
C822 C 0.08528 0.20082 0.12744 0.0
H823 H 0.07197 0.22725 0.04707 0.0
H824 H 0.07576 0.22246 0.0905 0.0
H825 H 0.08879 0.2351 0.06285 0.0
H826 H 0.1061 0.22967 0.08316 0.0
H827 H 0.11713 0.2349 0.14226 0.0
H828 H 0.89137 0.75396 0.35126 0.0
H829 H 0.88599 0.76065 0.40914 0.0
H830 H 0.88769 0.79464 0.35659 0.0
H831 H 0.89315 0.78804 0.29835 0.0
H832 H 0.90191 0.80022 0.42385 0.0
H833 H 0.85054 0.75851 0.43699 0.0
H834 H 0.86196 0.75289 0.42617 0.0
H835 H 0.85935 0.76305 0.39391 0.0
C836 C 0.89055 0.76283 0.35194 0.0
C837 C 0.89262 0.77045 0.32032 0.0
C838 C 0.8874 0.76659 0.38492 0.0
C839 C 0.88622 0.77799 0.38678 0.0
C840 C 0.88843 0.78573 0.35544 0.0
H841 H 0.85919 0.78005 0.60694 0.0
H842 H 0.86154 0.78542 0.54171 0.0
C843 C 0.89155 0.78195 0.32232 0.0
C844 C 0.8832 0.78193 0.42217 0.0
H845 H 0.86179 0.76884 0.4936 0.0
C846 C 0.893 0.79357 0.43892 0.0
C847 C 0.87141 0.77345 0.44123 0.0
C848 C 0.86015 0.76135 0.42348 0.0
C849 C 0.89186 0.79622 0.47576 0.0
C850 C 0.88079 0.78685 0.49612 0.0
C851 C 0.87039 0.77596 0.47816 0.0
C852 C 0.88071 0.78679 0.53653 0.0
C853 C 0.90279 0.80871 0.49285 0.0
C854 C 0.89085 0.7861 0.55536 0.0
C855 C 0.88956 0.78306 0.59252 0.0
C856 C 0.87799 0.78045 0.61143 0.0
C857 C 0.86817 0.78189 0.59303 0.0
C858 C 0.86952 0.78502 0.55583 0.0
H859 H 0.90715 0.8169 0.47252 0.0
H860 H 0.89916 0.81192 0.51669 0.0
H861 H 0.91083 0.80692 0.50216 0.0
H862 H 0.8994 0.78705 0.54087 0.0
H863 H 0.89732 0.78206 0.60589 0.0
H864 H 0.20807 0.11421 0.61829 0.0
H865 H 0.20319 0.11516 0.55408 0.0
H866 H 0.20692 0.08077 0.5319 0.0
H867 H 0.21217 0.07992 0.59624 0.0
H868 H 0.22392 0.10157 0.49301 0.0
H869 H 0.17451 0.0967 0.47883 0.0
H870 H 0.18383 0.10843 0.51402 0.0
H871 H 0.17938 0.0913 0.51935 0.0
C872 C 0.2075 0.1066 0.60004 0.0
C873 C 0.21077 0.09714 0.61222 0.0
C874 C 0.20454 0.10707 0.56331 0.0
C875 C 0.2046 0.09798 0.53824 0.0
C876 C 0.20678 0.08785 0.55089 0.0
H877 H 0.20552 0.11355 0.30249 0.0
H878 H 0.19849 0.10204 0.36138 0.0
C879 C 0.20983 0.08742 0.58763 0.0
C880 C 0.20507 0.10074 0.49864 0.0
H881 H 0.19091 0.1103 0.43244 0.0
C882 C 0.21652 0.10314 0.47952 0.0
C883 C 0.1954 0.10274 0.48097 0.0
C884 C 0.18253 0.09951 0.49933 0.0
C885 C 0.21899 0.10836 0.44411 0.0
C886 C 0.20988 0.11142 0.4277 0.0
C887 C 0.19798 0.10817 0.4456 0.0
C888 C 0.21305 0.1187 0.39287 0.0
C889 C 0.23159 0.11105 0.42497 0.0
C890 C 0.22331 0.13195 0.39157 0.0
C891 C 0.22735 0.13855 0.35814 0.0
C892 C 0.22118 0.13196 0.32556 0.0
C893 C 0.21052 0.11884 0.32718 0.0
C894 C 0.20645 0.11227 0.36069 0.0
H895 H 0.23591 0.10535 0.43739 0.0
H896 H 0.22974 0.1085 0.39545 0.0
H897 H 0.23901 0.12176 0.4272 0.0
H898 H 0.22842 0.13705 0.41637 0.0
H899 H 0.23554 0.14866 0.35773 0.0
H900 H 0.90009 0.14011 0.59131 0.0
H901 H 0.89628 0.13348 0.52705 0.0
H902 H 0.87868 0.0924 0.55875 0.0
H903 H 0.88195 0.09892 0.62324 0.0
H904 H 0.90402 0.12044 0.48255 0.0
H905 H 0.84931 0.09167 0.49953 0.0
H906 H 0.86022 0.1022 0.5351 0.0
H907 H 0.858 0.08592 0.52781 0.0
C908 C 0.89548 0.12967 0.58459 0.0
C909 C 0.89114 0.12001 0.61225 0.0
C910 C 0.89332 0.1259 0.54788 0.0
C911 C 0.88693 0.11243 0.5382 0.0
C912 C 0.88327 0.10282 0.5657 0.0
H913 H 0.88102 0.08932 0.30706 0.0
H914 H 0.88698 0.09267 0.37204 0.0
C915 C 0.88521 0.10656 0.60247 0.0
C916 C 0.88365 0.10854 0.49941 0.0
H917 H 0.8577 0.09114 0.44124 0.0
C918 C 0.8939 0.11401 0.47344 0.0
C919 C 0.87041 0.10028 0.48768 0.0
C920 C 0.85884 0.09478 0.51391 0.0
C921 C 0.89125 0.11163 0.43592 0.0
C922 C 0.87803 0.1032 0.42427 0.0
C923 C 0.86784 0.09752 0.45032 0.0
C924 C 0.87436 0.10084 0.38513 0.0
C925 C 0.90255 0.11861 0.40914 0.0
C926 C 0.86495 0.10387 0.37129 0.0
C927 C 0.86132 0.10169 0.33452 0.0
C928 C 0.86714 0.09656 0.31083 0.0
C929 C 0.87649 0.09342 0.32471 0.0
C930 C 0.87997 0.09541 0.36171 0.0
H931 H 0.91124 0.12727 0.42183 0.0
H932 H 0.90579 0.11161 0.39978 0.0
H933 H 0.89944 0.12208 0.3848 0.0
H934 H 0.86048 0.10804 0.38893 0.0
H935 H 0.85409 0.10422 0.32455 0.0
H936 H 0.90256 0.41768 0.17422 0.0
H937 H 0.89704 0.42102 0.23643 0.0
H938 H 0.86723 0.42911 0.194 0.0
H939 H 0.87256 0.42563 0.13168 0.0
H940 H 0.8997 0.44534 0.25841 0.0
H941 H 0.84841 0.40353 0.28055 0.0
H942 H 0.85918 0.40325 0.24539 0.0
H943 H 0.85114 0.41284 0.23901 0.0
C944 C 0.89467 0.41998 0.17817 0.0
C945 C 0.88803 0.42149 0.14814 0.0
C946 C 0.89154 0.42185 0.21366 0.0
C947 C 0.88168 0.42521 0.21968 0.0
C948 C 0.87472 0.4263 0.18987 0.0
H949 H 0.88247 0.46544 0.42124 0.0
H950 H 0.87892 0.45866 0.35698 0.0
C951 C 0.87783 0.4244 0.15431 0.0
C952 C 0.87971 0.42888 0.25682 0.0
H953 H 0.85753 0.41988 0.32707 0.0
C954 C 0.89047 0.43981 0.27341 0.0
C955 C 0.86765 0.42161 0.27608 0.0
C956 C 0.85593 0.40958 0.25958 0.0
C957 C 0.8896 0.44358 0.30918 0.0
C958 C 0.87753 0.43635 0.32852 0.0
C959 C 0.86669 0.42548 0.31183 0.0
C960 C 0.87656 0.4393 0.36726 0.0
C961 C 0.90177 0.45495 0.32642 0.0
C962 C 0.87559 0.43032 0.39426 0.0
C963 C 0.87755 0.43411 0.43096 0.0
C964 C 0.88055 0.44698 0.44112 0.0
C965 C 0.88037 0.45553 0.41424 0.0
C966 C 0.87834 0.45169 0.37755 0.0
H967 H 0.9109 0.45773 0.31036 0.0
H968 H 0.90049 0.46377 0.32795 0.0
H969 H 0.90322 0.45241 0.35468 0.0
H970 H 0.87417 0.42069 0.38674 0.0
H971 H 0.87748 0.42723 0.45102 0.0
H972 H 0.5788 0.47348 0.18584 0.0
H973 H 0.5759 0.46044 0.24107 0.0
H974 H 0.55413 0.42428 0.17916 0.0
H975 H 0.55721 0.43727 0.12344 0.0
H976 H 0.54138 0.42975 0.24503 0.0
H977 H 0.59022 0.43406 0.27238 0.0
H978 H 0.59088 0.44899 0.25635 0.0
H979 H 0.58452 0.43478 0.2268 0.0
C980 C 0.57358 0.46276 0.18388 0.0
C981 C 0.56817 0.45637 0.15053 0.0
C982 C 0.57204 0.45534 0.21529 0.0
C983 C 0.56498 0.44145 0.21384 0.0
C984 C 0.55978 0.435 0.18049 0.0
H985 H 0.53319 0.40975 0.43097 0.0
H986 H 0.53783 0.40678 0.36733 0.0
C987 C 0.56151 0.44243 0.14887 0.0
C988 C 0.56154 0.43396 0.24833 0.0
H989 H 0.57609 0.43009 0.3245 0.0
C990 C 0.54878 0.42938 0.26226 0.0
C991 C 0.57128 0.43352 0.27021 0.0
C992 C 0.58499 0.43799 0.25565 0.0
C993 C 0.5459 0.42578 0.29911 0.0
C994 C 0.55601 0.4264 0.32206 0.0
C995 C 0.56837 0.42966 0.30691 0.0
C996 C 0.55489 0.42649 0.36234 0.0
C997 C 0.53252 0.42272 0.31374 0.0
C998 C 0.56355 0.43813 0.38134 0.0
C999 C 0.56111 0.43974 0.41773 0.0
C1000 C 0.54985 0.42979 0.43563 0.0
C1001 C 0.54179 0.41769 0.41756 0.0
C1002 C 0.5444 0.41599 0.38122 0.0
H1003 H 0.52664 0.42464 0.29322 0.0
H1004 H 0.52675 0.4121 0.32152 0.0
H1005 H 0.5337 0.42878 0.33843 0.0
H1006 H 0.57174 0.44636 0.36735 0.0
H1007 H 0.56757 0.44913 0.43098 0.0
H1008 H 0.53918 0.10516 0.44992 0.0
H1009 H 0.53721 0.1088 0.38507 0.0
H1010 H 0.57487 0.11134 0.36408 0.0
H1011 H 0.57684 0.10742 0.42896 0.0
H1012 H 0.55325 0.12876 0.33436 0.0
H1013 H 0.54845 0.0798 0.30166 0.0
H1014 H 0.54762 0.08476 0.3479 0.0
H1015 H 0.56335 0.09143 0.32512 0.0
C1016 C 0.54712 0.10663 0.43165 0.0
C1017 C 0.55805 0.10577 0.44446 0.0
C1018 C 0.546 0.10877 0.39463 0.0
C1019 C 0.5558 0.11013 0.36988 0.0
C1020 C 0.56711 0.11008 0.38281 0.0
H1021 H 0.54993 0.12094 0.13425 0.0
H1022 H 0.55835 0.12474 0.19713 0.0
C1023 C 0.5682 0.10784 0.41984 0.0
C1024 C 0.5535 0.11043 0.33032 0.0
H1025 H 0.54612 0.09162 0.25304 0.0
C1026 C 0.55185 0.12075 0.31637 0.0
C1027 C 0.55156 0.09985 0.30724 0.0
C1028 C 0.55273 0.08827 0.32114 0.0
C1029 C 0.54798 0.12059 0.27994 0.0
C1030 C 0.54581 0.10989 0.2572 0.0
C1031 C 0.54784 0.0998 0.27081 0.0
C1032 C 0.54052 0.10839 0.21987 0.0
C1033 C 0.54568 0.13151 0.26636 0.0
C1034 C 0.52772 0.09795 0.21218 0.0
C1035 C 0.5229 0.09573 0.17646 0.0
C1036 C 0.53085 0.10387 0.14786 0.0
C1037 C 0.54358 0.11451 0.15579 0.0
C1038 C 0.54839 0.11674 0.19161 0.0
H1039 H 0.54621 0.1382 0.28879 0.0
H1040 H 0.55332 0.13751 0.24563 0.0
H1041 H 0.53583 0.12723 0.25293 0.0
H1042 H 0.52155 0.09141 0.23381 0.0
H1043 H 0.51304 0.08748 0.17119 0.0
H1044 H 0.797 0.54224 0.70405 0.0
H1045 H 0.7945 0.53353 0.7662 0.0
H1046 H 0.75827 0.5348 0.77843 0.0
H1047 H 0.76045 0.54301 0.71637 0.0
H1048 H 0.7966 0.54838 0.82044 0.0
H1049 H 0.74874 0.50296 0.83853 0.0
H1050 H 0.75601 0.50851 0.79372 0.0
H1051 H 0.74566 0.51436 0.8136 0.0
C1052 C 0.7883 0.54029 0.71969 0.0
C1053 C 0.77904 0.54354 0.70561 0.0
C1054 C 0.78684 0.53522 0.75507 0.0
C1055 C 0.77613 0.53336 0.77693 0.0
C1056 C 0.76641 0.53574 0.76188 0.0
H1057 H 0.76901 0.56741 0.95455 0.0
H1058 H 0.77309 0.55842 0.89894 0.0
C1059 C 0.76779 0.54066 0.72645 0.0
C1060 C 0.77651 0.53195 0.81708 0.0
H1061 H 0.75528 0.5197 0.88947 0.0
C1062 C 0.78773 0.54171 0.83566 0.0
C1063 C 0.76511 0.52312 0.83731 0.0
C1064 C 0.75329 0.51157 0.81959 0.0
C1065 C 0.78715 0.54405 0.87294 0.0
C1066 C 0.77506 0.53656 0.89173 0.0
C1067 C 0.76445 0.52564 0.87457 0.0
C1068 C 0.77251 0.54159 0.92588 0.0
C1069 C 0.7991 0.55531 0.8912 0.0
C1070 C 0.7706 0.53489 0.95911 0.0
C1071 C 0.7683 0.54005 -0.00894 0.0
C1072 C 0.76775 0.55185 -0.01011 0.0
C1073 C 0.76943 0.55834 0.95633 0.0
C1074 C 0.7718 0.55325 0.92461 0.0
H1075 H 0.80843 0.55732 0.87739 0.0
H1076 H 0.79836 0.56443 0.88953 0.0
H1077 H 0.79963 0.55311 0.92053 0.0
H1078 H 0.77102 0.52581 0.96034 0.0
H1079 H 0.76697 0.53481 0.01661 0.0
H1080 H 0.44003 0.246 0.70511 0.0
H1081 H 0.445 0.24712 0.77041 0.0
H1082 H 0.4449 0.21009 0.76263 0.0
H1083 H 0.44025 0.20903 0.69739 0.0
H1084 H 0.42799 0.22912 0.81712 0.0
H1085 H 0.47607 0.23085 0.82966 0.0
H1086 H 0.47069 0.23476 0.78744 0.0
H1087 H 0.46523 0.21778 0.79939 0.0
C1088 C 0.44133 0.23823 0.71716 0.0
C1089 C 0.43961 0.22734 0.6962 0.0
C1090 C 0.44424 0.23893 0.7544 0.0
C1091 C 0.44549 0.22878 0.7712 0.0
C1092 C 0.44433 0.21821 0.75002 0.0
H1093 H 0.41741 0.18871 0.96945 0.0
H1094 H 0.4222 0.19802 0.90773 0.0
C1095 C 0.44152 0.21754 0.71277 0.0
C1096 C 0.44589 0.22808 0.81144 0.0
H1097 H 0.46081 0.2209 0.88098 0.0
C1098 C 0.43536 0.22765 0.83122 0.0
C1099 C 0.45558 0.22631 0.82985 0.0
C1100 C 0.4676 0.2276 0.81046 0.0
C1101 C 0.43371 0.22454 0.86849 0.0
C1102 C 0.44271 0.22156 0.88606 0.0
C1103 C 0.4538 0.22296 0.86707 0.0
C1104 C 0.44013 0.21599 0.92323 0.0
C1105 C 0.42212 0.22402 0.88846 0.0
C1106 C 0.44885 0.22289 0.95191 0.0
C1107 C 0.44616 0.21759 0.98717 0.0
C1108 C 0.43476 0.20527 -0.00597 0.0
C1109 C 0.42621 0.19826 0.965 0.0
C1110 C 0.4289 0.20358 0.92984 0.0
H1111 H 0.41858 0.23018 0.8746 0.0
H1112 H 0.41378 0.21363 0.88896 0.0
H1113 H 0.42477 0.22748 0.91717 0.0
H1114 H 0.45761 0.23244 0.94709 0.0
H1115 H 0.45296 0.22318 0.00905 0.0
H1116 H 0.74115 0.19627 0.70906 0.0
H1117 H 0.73591 0.19726 0.77334 0.0
H1118 H 0.77151 0.2354 0.78361 0.0
H1119 H 0.77655 0.23468 0.71956 0.0
H1120 H 0.75106 0.19619 0.82273 0.0
H1121 H 0.74846 0.24094 0.85279 0.0
H1122 H 0.74637 0.23443 0.80682 0.0
H1123 H 0.7627 0.2458 0.82446 0.0
C1124 C 0.74763 0.20506 0.72477 0.0
C1125 C 0.75941 0.21529 0.70946 0.0
C1126 C 0.74457 0.20564 0.76144 0.0
C1127 C 0.75324 0.21644 0.78332 0.0
C1128 C 0.76445 0.22712 0.7672 0.0
H1129 H 0.7984 0.22409 0.95577 0.0
H1130 H 0.78437 0.21892 0.90174 0.0
C1131 C 0.76744 0.22661 0.73055 0.0
C1132 C 0.75246 0.2154 0.82369 0.0
H1133 H 0.76084 0.23529 0.89895 0.0
C1134 C 0.75268 0.20453 0.83961 0.0
C1135 C 0.75427 0.22608 0.84613 0.0
C1136 C 0.75277 0.23737 0.83154 0.0
C1137 C 0.7564 0.20489 0.87615 0.0
C1138 C 0.76019 0.21647 0.89687 0.0
C1139 C 0.75828 0.22656 0.88256 0.0
C1140 C 0.76821 0.21919 0.93029 0.0
C1141 C 0.75721 0.19328 0.89144 0.0
C1142 C 0.76385 0.22136 0.96394 0.0
C1143 C 0.77188 0.22435 -0.00506 0.0
C1144 C 0.78442 0.22536 -0.00754 0.0
C1145 C 0.78878 0.22332 0.95856 0.0
C1146 C 0.78074 0.22028 0.92776 0.0
H1147 H 0.74994 0.18388 0.87788 0.0
H1148 H 0.76728 0.1948 0.88631 0.0
H1149 H 0.75537 0.19229 0.92141 0.0
H1150 H 0.75426 0.2207 0.96619 0.0
H1151 H 0.7683 0.22593 0.02075 0.0
H1152 H 0.42558 0.23596 0.4511 0.0
H1153 H 0.43506 0.23323 0.39431 0.0
H1154 H 0.46505 0.23019 0.45568 0.0
H1155 H 0.45563 0.23288 0.51288 0.0
H1156 H 0.47236 0.24845 0.38357 0.0
H1157 H 0.4336 0.19531 0.37392 0.0
H1158 H 0.42772 0.20637 0.38726 0.0
H1159 H 0.43876 0.20415 0.41694 0.0
C1160 C 0.43424 0.23481 0.45255 0.0
C1161 C 0.4398 0.23452 0.48637 0.0
C1162 C 0.43965 0.23328 0.42017 0.0
C1163 C 0.45068 0.23148 0.42115 0.0
C1164 C 0.45653 0.23158 0.45466 0.0
H1165 H 0.45363 0.20217 0.207 0.0
H1166 H 0.461 0.20674 0.27065 0.0
C1167 C 0.4511 0.23307 0.48716 0.0
C1168 C 0.45545 0.22874 0.38688 0.0
H1169 H 0.44438 0.20601 0.31835 0.0
C1170 C 0.46651 0.23908 0.36946 0.0
C1171 C 0.44799 0.2164 0.36925 0.0
C1172 C 0.43641 0.20485 0.38785 0.0
C1173 C 0.46952 0.23774 0.33308 0.0
C1174 C 0.46106 0.22591 0.31391 0.0
C1175 C 0.45085 0.21514 0.33284 0.0
C1176 C 0.46077 0.22519 0.2735 0.0
C1177 C 0.48136 0.24921 0.31516 0.0
C1178 C 0.45875 0.23433 0.25354 0.0
C1179 C 0.45463 0.2318 0.21719 0.0
C1180 C 0.4522 0.21994 0.2004 0.0
C1181 C 0.45524 0.2113 0.21944 0.0
C1182 C 0.45954 0.21394 0.25571 0.0
H1183 H 0.48956 0.25439 0.33519 0.0
H1184 H 0.48503 0.24593 0.29157 0.0
H1185 H 0.47857 0.2565 0.30537 0.0
H1186 H 0.45927 0.24289 0.26682 0.0
H1187 H 0.45242 0.23867 0.20322 0.0
H1188 H 0.77281 0.23006 0.51902 0.0
H1189 H 0.7792 0.24145 0.45971 0.0
H1190 H 0.77831 0.20717 0.41162 0.0
H1191 H 0.77213 0.19584 0.4705 0.0
H1192 H 0.80136 0.23218 0.395 0.0
H1193 H 0.75382 0.23166 0.37027 0.0
H1194 H 0.76266 0.23861 0.41233 0.0
H1195 H 0.75511 0.22112 0.40431 0.0
C1196 C 0.77399 0.22498 0.49575 0.0
C1197 C 0.77194 0.21205 0.49927 0.0
C1198 C 0.77761 0.23148 0.46199 0.0
C1199 C 0.77914 0.2251 0.43145 0.0
C1200 C 0.7772 0.21225 0.43504 0.0
H1201 H 0.76963 0.21236 0.21478 0.0
H1202 H 0.76857 0.21658 0.27952 0.0
C1203 C 0.77364 0.20578 0.46863 0.0
C1204 C 0.78254 0.23143 0.39514 0.0
H1205 H 0.76816 0.23653 0.3204 0.0
C1206 C 0.79431 0.2335 0.37877 0.0
C1207 C 0.77328 0.23318 0.37446 0.0
C1208 C 0.76046 0.23101 0.39098 0.0
C1209 C 0.79652 0.23603 0.34122 0.0
C1210 C 0.78677 0.23677 0.31988 0.0
C1211 C 0.77558 0.23595 0.33698 0.0
C1212 C 0.78668 0.23563 0.27965 0.0
C1213 C 0.80865 0.23665 0.32426 0.0
C1214 C 0.79702 0.24514 0.25807 0.0
C1215 C 0.79777 0.24266 0.22097 0.0
C1216 C 0.78809 0.2307 0.20498 0.0
C1217 C 0.77731 0.22161 0.22627 0.0
C1218 C 0.77664 0.22405 0.26327 0.0
H1219 H 0.81433 0.23423 0.3442 0.0
H1220 H 0.80578 0.22965 0.30089 0.0
H1221 H 0.81532 0.2468 0.31374 0.0
H1222 H 0.80473 0.25424 0.27016 0.0
H1223 H 0.8061 0.24994 0.2051 0.0
H1224 H 0.80028 0.57712 0.46966 0.0
H1225 H 0.78954 0.5708 0.4099 0.0
H1226 H 0.75699 0.53552 0.45677 0.0
H1227 H 0.76772 0.54173 0.5169 0.0
H1228 H 0.76762 0.53104 0.39261 0.0
H1229 H 0.75647 0.57154 0.3736 0.0
H1230 H 0.77333 0.57774 0.38758 0.0
H1231 H 0.76002 0.56715 0.41793 0.0
C1232 C 0.79079 0.56807 0.46736 0.0
C1233 C 0.78482 0.55993 0.49789 0.0
C1234 C 0.78463 0.56452 0.43329 0.0
C1235 C 0.77238 0.55283 0.42924 0.0
C1236 C 0.76638 0.54465 0.4596 0.0
H1237 H 0.74714 0.54942 0.20352 0.0
H1238 H 0.74348 0.54456 0.26892 0.0
C1239 C 0.77252 0.54821 0.4938 0.0
C1240 C 0.76642 0.54892 0.39259 0.0
H1241 H 0.75926 0.56173 0.31819 0.0
C1242 C 0.76545 0.53753 0.37646 0.0
C1243 C 0.76325 0.55721 0.37202 0.0
C1244 C 0.76317 0.56901 0.38882 0.0
C1245 C 0.76263 0.53495 0.3391 0.0
C1246 C 0.76101 0.54413 0.31759 0.0
C1247 C 0.76068 0.55478 0.33459 0.0
C1248 C 0.76168 0.54417 0.27725 0.0
C1249 C 0.76195 0.52272 0.32281 0.0
C1250 C 0.773 0.54529 0.2602 0.0
C1251 C 0.77512 0.54805 0.22292 0.0
C1252 C 0.76605 0.54993 0.20216 0.0
C1253 C 0.75438 0.54815 0.21889 0.0
C1254 C 0.75223 0.5453 0.25618 0.0
H1255 H 0.75808 0.51452 0.3431 0.0
H1256 H 0.75554 0.5193 0.29809 0.0
H1257 H 0.77208 0.52498 0.31503 0.0
H1258 H 0.78061 0.54484 0.2761 0.0
H1259 H 0.7842 0.54936 0.21086 0.0
H1260 H 0.56327 0.11991 0.62825 0.0
H1261 H 0.56045 0.12832 0.68702 0.0
H1262 H 0.58042 0.11044 0.74176 0.0
H1263 H 0.58314 0.10182 0.68325 0.0
H1264 H 0.54635 0.10871 0.7468 0.0
H1265 H 0.59636 0.1495 0.7855 0.0
H1266 H 0.59133 0.14476 0.73848 0.0
H1267 H 0.59583 0.13497 0.76656 0.0
C1268 C 0.56726 0.11795 0.65274 0.0
C1269 C 0.57334 0.11012 0.65134 0.0
C1270 C 0.56568 0.12281 0.68615 0.0
C1271 C 0.5704 0.12013 0.7184 0.0
C1272 C 0.57694 0.11278 0.71691 0.0
H1273 H 0.56649 0.11257 0.94209 0.0
H1274 H 0.5728 0.11849 0.87845 0.0
C1275 C 0.57837 0.10777 0.68361 0.0
C1276 C 0.5669 0.12328 0.75423 0.0
H1277 H 0.5806 0.13947 0.83405 0.0
C1278 C 0.55372 0.11565 0.76579 0.0
C1279 C 0.57662 0.13234 0.77851 0.0
C1280 C 0.59083 0.14097 0.76667 0.0
C1281 C 0.55016 0.11599 0.8022 0.0
C1282 C 0.56004 0.12458 0.82724 0.0
C1283 C 0.57305 0.13293 0.81482 0.0
C1284 C 0.55752 0.12344 0.8671 0.0
C1285 C 0.53612 0.10634 0.814 0.0
C1286 C 0.54719 0.1248 0.88228 0.0
C1287 C 0.54334 0.1211 0.91858 0.0
C1288 C 0.55002 0.11634 0.94036 0.0
C1289 C 0.56109 0.11612 0.92595 0.0
C1290 C 0.56475 0.11956 0.88957 0.0
H1291 H 0.53054 0.09872 0.79277 0.0
H1292 H 0.53606 0.10118 0.83962 0.0
H1293 H 0.53075 0.11181 0.81916 0.0
H1294 H 0.54173 0.12815 0.86565 0.0
H1295 H 0.53491 0.12159 0.92922 0.0
H1296 H 0.86939 0.45232 0.63578 0.0
H1297 H 0.86282 0.4449 0.6989 0.0
H1298 H 0.90224 0.47331 0.73575 0.0
H1299 H 0.90867 0.48111 0.67309 0.0
H1300 H 0.87164 0.43345 0.74286 0.0
H1301 H 0.88068 0.47981 0.80863 0.0
H1302 H 0.88033 0.47799 0.75952 0.0
H1303 H 0.89532 0.48263 0.78489 0.0
C1304 C 0.87659 0.45709 0.65747 0.0
C1305 C 0.88952 0.46732 0.64964 0.0
C1306 C 0.87282 0.45286 0.69346 0.0
C1307 C 0.88195 0.45873 0.72213 0.0
C1308 C 0.89489 0.46893 0.71426 0.0
H1309 H 0.89432 0.42795 0.91519 0.0
H1310 H 0.88957 0.43183 0.853 0.0
C1311 C 0.8986 0.4733 0.67839 0.0
C1312 C 0.87839 0.45358 0.7599 0.0
H1313 H 0.882 0.46379 0.84858 0.0
C1314 C 0.87363 0.44003 0.766 0.0
C1315 C 0.88058 0.46205 0.79005 0.0
C1316 C 0.88435 0.47639 0.78535 0.0
C1317 C 0.87198 0.43493 0.80156 0.0
C1318 C 0.87565 0.44372 0.83166 0.0
C1319 C 0.87942 0.45706 0.82555 0.0
C1320 C 0.87695 0.43972 0.86919 0.0
C1321 C 0.86653 0.42024 0.80634 0.0
C1322 C 0.87161 0.44303 0.89914 0.0
C1323 C 0.87464 0.44117 0.93483 0.0
C1324 C 0.88295 0.43583 0.94113 0.0
C1325 C 0.88778 0.43196 0.91117 0.0
C1326 C 0.88496 0.43406 0.87554 0.0
H1327 H 0.85944 0.41456 0.78409 0.0
H1328 H 0.87479 0.41809 0.80478 0.0
H1329 H 0.86142 0.41666 0.83306 0.0
H1330 H 0.86546 0.44746 0.89491 0.0
H1331 H 0.87073 0.44417 0.95746 0.0
H1332 H 0.55085 0.42866 0.63333 0.0
H1333 H 0.55809 0.43082 0.69713 0.0
H1334 H 0.52781 0.43988 0.72897 0.0
H1335 H 0.52028 0.43738 0.66562 0.0
H1336 H 0.56755 0.45153 0.74425 0.0
H1337 H 0.52085 0.40991 0.7976 0.0
H1338 H 0.52439 0.41252 0.74926 0.0
H1339 H 0.51782 0.4215 0.77327 0.0
C1340 C 0.54572 0.43108 0.654 0.0
C1341 C 0.53492 0.43274 0.64467 0.0
C1342 C 0.54987 0.43231 0.69034 0.0
C1343 C 0.54329 0.43522 0.71775 0.0
C1344 C 0.53277 0.43725 0.7083 0.0
H1345 H 0.56543 0.47156 0.92505 0.0
H1346 H 0.56434 0.46606 0.86021 0.0
C1347 C 0.52853 0.4359 0.6721 0.0
C1348 C 0.54748 0.43636 0.75631 0.0
H1349 H 0.53508 0.42613 0.8419 0.0
C1350 C 0.56054 0.44583 0.76567 0.0
C1351 C 0.53844 0.42864 0.78402 0.0
C1352 C 0.52464 0.41747 0.77548 0.0
C1353 C 0.56455 0.4484 0.80237 0.0
C1354 C 0.55511 0.44157 0.83021 0.0
C1355 C 0.5423 0.43151 0.82063 0.0
C1356 C 0.55779 0.44528 0.86928 0.0
C1357 C 0.5788 0.45845 0.81082 0.0
C1358 C 0.55435 0.43543 0.89598 0.0
C1359 C 0.55454 0.43847 0.93294 0.0
C1360 C 0.55838 0.45147 0.94383 0.0
C1361 C 0.56251 0.46148 0.91731 0.0
C1362 C 0.56204 0.45837 0.88027 0.0
H1363 H 0.5855 0.45871 0.78876 0.0
H1364 H 0.57987 0.46846 0.81243 0.0
H1365 H 0.58206 0.45628 0.8372 0.0
H1366 H 0.55103 0.42527 0.88812 0.0
H1367 H 0.55143 0.4306 0.95295 0.0
H1368 H 0.55026 0.80589 0.76963 0.0
H1369 H 0.54419 0.80481 0.70511 0.0
H1370 H 0.53987 0.76586 0.69702 0.0
H1371 H 0.54558 0.76671 0.76121 0.0
H1372 H 0.55918 0.80409 0.6529 0.0
H1373 H 0.5097 0.76068 0.63376 0.0
H1374 H 0.51559 0.76812 0.67824 0.0
H1375 H 0.51926 0.75576 0.66111 0.0
C1376 C 0.54769 0.79696 0.7543 0.0
C1377 C 0.54856 0.78645 0.7704 0.0
C1378 C 0.54416 0.79634 0.7175 0.0
C1379 C 0.54137 0.78518 0.69637 0.0
C1380 C 0.54158 0.77442 0.71297 0.0
H1381 H 0.57178 0.77231 0.5145 0.0
H1382 H 0.56579 0.77955 0.57026 0.0
C1383 C 0.54504 0.775 0.74966 0.0
C1384 C 0.54069 0.78556 0.65603 0.0
H1385 H 0.52591 0.76474 0.58392 0.0
C1386 C 0.55165 0.79571 0.63763 0.0
C1387 C 0.53073 0.77484 0.63581 0.0
C1388 C 0.5181 0.76434 0.65337 0.0
C1389 C 0.55373 0.79456 0.60043 0.0
C1390 C 0.54477 0.78287 0.58161 0.0
C1391 C 0.53297 0.77355 0.59874 0.0
C1392 C 0.54851 0.77917 0.54689 0.0
C1393 C 0.56597 0.80547 0.58223 0.0
C1394 C 0.54054 0.77621 0.51563 0.0
C1395 C 0.54391 0.77196 0.48369 0.0
C1396 C 0.5552 0.7705 0.48281 0.0
C1397 C 0.56307 0.7734 0.51428 0.0
C1398 C 0.55973 0.77766 0.54605 0.0
H1399 H 0.56891 0.81525 0.59482 0.0
H1400 H 0.57432 0.80355 0.58599 0.0
H1401 H 0.56439 0.80599 0.55244 0.0
H1402 H 0.53175 0.77715 0.51602 0.0
H1403 H 0.53764 0.76976 0.4598 0.0
H1404 H 0.22963 0.77165 0.46107 0.0
H1405 H 0.22291 0.75779 0.51613 0.0
H1406 H 0.22025 0.78842 0.57544 0.0
H1407 H 0.22684 0.80227 0.52067 0.0
H1408 H 0.23529 0.76355 0.58511 0.0
H1409 H 0.18426 0.75488 0.59464 0.0
H1410 H 0.19392 0.76047 0.55304 0.0
H1411 H 0.19598 0.77216 0.58833 0.0
C1412 C 0.22757 0.77541 0.48586 0.0
C1413 C 0.22867 0.78801 0.48661 0.0
C1414 C 0.22373 0.76747 0.51716 0.0
C1415 C 0.22083 0.772 0.54943 0.0
C1416 C 0.22214 0.78465 0.55041 0.0
H1417 H 0.22984 0.77637 0.76479 0.0
H1418 H 0.23228 0.77265 0.7007 0.0
C1419 C 0.226 0.79259 0.51923 0.0
C1420 C 0.21697 0.7639 0.58295 0.0
H1421 H 0.19461 0.75458 0.65223 0.0
C1422 C 0.22623 0.76121 0.59951 0.0
C1423 C 0.20494 0.7604 0.60101 0.0
C1424 C 0.19414 0.76199 0.5831 0.0
C1425 C 0.22445 0.75657 0.63563 0.0
C1426 C 0.21331 0.75493 0.65552 0.0
C1427 C 0.2033 0.75605 0.63729 0.0
C1428 C 0.21304 0.75485 0.69596 0.0
C1429 C 0.23486 0.75419 0.65269 0.0
C1430 C 0.20147 0.746 0.71495 0.0
C1431 C 0.19993 0.7483 0.75165 0.0
C1432 C 0.20993 0.7595 0.76981 0.0
C1433 C 0.22191 0.7677 0.75155 0.0
C1434 C 0.22341 0.76546 0.7149 0.0
H1435 H 0.23885 0.75004 0.63217 0.0
H1436 H 0.24327 0.76377 0.6622 0.0
H1437 H 0.23088 0.74729 0.67631 0.0
H1438 H 0.19333 0.7378 0.70077 0.0
H1439 H 0.19062 0.74171 0.76512 0.0
H1440 H 0.19093 0.41833 0.5196 0.0
H1441 H 0.20352 0.42694 0.5761 0.0
H1442 H 0.23715 0.45613 0.51474 0.0
H1443 H 0.22454 0.44761 0.45771 0.0
H1444 H 0.22903 0.42924 0.59279 0.0
H1445 H 0.22957 0.47741 0.59495 0.0
H1446 H 0.21784 0.46367 0.56731 0.0
H1447 H 0.23498 0.47266 0.55438 0.0
C1448 C 0.201 0.42657 0.51804 0.0
C1449 C 0.20674 0.43232 0.4843 0.0
C1450 C 0.20817 0.43146 0.5503 0.0
C1451 C 0.2212 0.44219 0.54942 0.0
C1452 C 0.22705 0.44792 0.51584 0.0
H1453 H 0.25229 0.45205 0.77287 0.0
H1454 H 0.25494 0.45507 0.7065 0.0
C1455 C 0.21985 0.44302 0.4834 0.0
C1456 C 0.22838 0.44716 0.58422 0.0
H1457 H 0.2356 0.47089 0.64899 0.0
C1458 C 0.23084 0.43851 0.60494 0.0
C1459 C 0.2307 0.45928 0.59954 0.0
C1460 C 0.22813 0.46884 0.57812 0.0
C1461 C 0.23444 0.44106 0.64185 0.0
C1462 C 0.23588 0.45277 0.65802 0.0
C1463 C 0.23452 0.46197 0.63636 0.0
C1464 C 0.23614 0.45422 0.69819 0.0
C1465 C 0.23546 0.43063 0.66389 0.0
C1466 C 0.22511 0.45365 0.71554 0.0
C1467 C 0.22363 0.45208 0.75334 0.0
C1468 C 0.23312 0.45095 0.77437 0.0
C1469 C 0.24469 0.45264 0.75727 0.0
C1470 C 0.24623 0.45436 0.7194 0.0
H1471 H 0.23225 0.42137 0.64808 0.0
H1472 H 0.24591 0.43452 0.67237 0.0
H1473 H 0.22929 0.42813 0.689 0.0
H1474 H 0.21722 0.45357 0.6996 0.0
H1475 H 0.21467 0.45095 0.76568 0.0
H1476 H 0.46389 0.89874 0.05225 0.0
H1477 H 0.4558 0.89382 0.1149 0.0
H1478 H 0.41544 0.87269 0.07555 0.0
H1479 H 0.42351 0.87813 0.01252 0.0
H1480 H 0.41746 0.88885 0.12649 0.0
H1481 H 0.44173 0.86188 0.17767 0.0
H1482 H 0.45409 0.87724 0.15822 0.0
H1483 H 0.44114 0.86498 0.1295 0.0
C1484 C 0.4533 0.89287 0.05687 0.0
C1485 C 0.44433 0.88884 0.02753 0.0
C1486 C 0.44868 0.88994 0.09273 0.0
C1487 C 0.43502 0.88261 0.09993 0.0
C1488 C 0.42603 0.87827 0.07059 0.0
H1489 H 0.4193 0.87203 0.33558 0.0
H1490 H 0.41819 0.86619 0.27083 0.0
C1491 C 0.43065 0.8814 0.03466 0.0
C1492 C 0.43023 0.88083 0.13815 0.0
H1493 H 0.43707 0.8743 0.22372 0.0
C1494 C 0.4215 0.88537 0.14767 0.0
C1495 C 0.43517 0.87594 0.16575 0.0
C1496 C 0.44342 0.86959 0.15709 0.0
C1497 C 0.41844 0.88614 0.18432 0.0
C1498 C 0.42468 0.88276 0.21212 0.0
C1499 C 0.43253 0.8772 0.20246 0.0
C1500 C 0.42413 0.88592 0.25107 0.0
C1501 C 0.40873 0.89078 0.19276 0.0
C1502 C 0.42787 0.89895 0.26144 0.0
C1503 C 0.42831 0.90224 0.29829 0.0
C1504 C 0.42536 0.89265 0.32543 0.0
C1505 C 0.42167 0.87963 0.31513 0.0
C1506 C 0.421 0.87627 0.27821 0.0
H1507 H 0.40123 0.88787 0.17063 0.0
H1508 H 0.40349 0.88667 0.21906 0.0
H1509 H 0.41413 0.90177 0.19447 0.0
H1510 H 0.4308 0.90667 0.24109 0.0
H1511 H 0.43131 0.91238 0.30553 0.0
H1512 H 0.10799 0.53753 0.0292 0.0
H1513 H 0.11404 0.53649 0.09249 0.0
H1514 H 0.1281 0.57829 0.10535 0.0
H1515 H 0.12139 0.57924 0.04241 0.0
H1516 H 0.13528 0.54783 0.13703 0.0
H1517 H 0.09846 0.56269 0.17828 0.0
H1518 H 0.10035 0.55907 0.13149 0.0
H1519 H 0.1121 0.57473 0.15156 0.0
C1520 C 0.11257 0.54655 0.0453 0.0
C1521 C 0.11394 0.5584 0.03126 0.0
C1522 C 0.11607 0.54596 0.08143 0.0
C1523 C 0.12117 0.55724 0.10388 0.0
C1524 C 0.12379 0.56939 0.08878 0.0
H1525 H 0.11857 0.55176 0.3431 0.0
H1526 H 0.12723 0.56136 0.28278 0.0
C1527 C 0.12 0.56993 0.05285 0.0
C1528 C 0.12216 0.55573 0.14376 0.0
H1529 H 0.10795 0.55647 0.22476 0.0
C1530 C 0.12947 0.54991 0.15633 0.0
C1531 C 0.1145 0.5584 0.16887 0.0
C1532 C 0.10582 0.56396 0.15696 0.0
C1533 C 0.12886 0.54615 0.19307 0.0
C1534 C 0.12082 0.54836 0.21761 0.0
C1535 C 0.11416 0.55489 0.20564 0.0
C1536 C 0.11768 0.54252 0.25451 0.0
C1537 C 0.13643 0.53944 0.2052 0.0
C1538 C 0.1095 0.52876 0.25832 0.0
C1539 C 0.10437 0.52328 0.29251 0.0
C1540 C 0.10739 0.53148 0.32338 0.0
C1541 C 0.11607 0.5452 0.31974 0.0
C1542 C 0.12108 0.5507 0.28543 0.0
H1543 H 0.1446 0.5414 0.18594 0.0
H1544 H 0.14063 0.54281 0.23301 0.0
H1545 H 0.12956 0.52857 0.2063 0.0
H1546 H 0.10657 0.52235 0.23454 0.0
H1547 H 0.09776 0.51267 0.29459 0.0
H1548 H 0.41496 0.54531 0.03811 0.0
H1549 H 0.41549 0.55313 0.1005 0.0
H1550 H 0.45711 0.5817 0.08808 0.0
H1551 H 0.45648 0.57436 0.02539 0.0
H1552 H 0.42897 0.54922 0.14925 0.0
H1553 H 0.44675 0.60277 0.15083 0.0
H1554 H 0.44052 0.59299 0.10962 0.0
H1555 H 0.45763 0.59975 0.12304 0.0
C1556 C 0.42411 0.55355 0.04836 0.0
C1557 C 0.43572 0.55913 0.02713 0.0
C1558 C 0.42439 0.55805 0.08394 0.0
C1559 C 0.43632 0.56806 0.09901 0.0
C1560 C 0.4477 0.57423 0.07689 0.0
H1561 H 0.4796 0.58161 0.28917 0.0
H1562 H 0.47018 0.58175 0.22946 0.0
C1563 C 0.44736 0.56991 0.04108 0.0
C1564 C 0.43759 0.57019 0.13912 0.0
H1565 H 0.45312 0.59417 0.20412 0.0
C1566 C 0.43385 0.55904 0.16139 0.0
C1567 C 0.44398 0.58298 0.15506 0.0
C1568 C 0.4473 0.59526 0.13331 0.0
C1569 C 0.43727 0.56039 0.19847 0.0
C1570 C 0.44458 0.57322 0.21362 0.0
C1571 C 0.44759 0.58435 0.19214 0.0
C1572 C 0.45046 0.57513 0.25033 0.0
C1573 C 0.43384 0.54814 0.22064 0.0
C1574 C 0.44248 0.5716 0.28167 0.0
C1575 C 0.44781 0.57147 0.31579 0.0
C1576 C 0.46117 0.5748 0.31887 0.0
C1577 C 0.46925 0.57889 0.28757 0.0
C1578 C 0.46393 0.57908 0.25354 0.0
H1579 H 0.42899 0.53895 0.20389 0.0
H1580 H 0.44295 0.54904 0.23319 0.0
H1581 H 0.42702 0.54715 0.24319 0.0
H1582 H 0.43205 0.56851 0.27951 0.0
H1583 H 0.44137 0.56835 0.33951 0.0
H1584 H 0.07839 0.56269 0.81139 0.0
H1585 H 0.08219 0.56025 0.74685 0.0
H1586 H 0.12345 0.57407 0.76973 0.0
H1587 H 0.11953 0.5759 0.83475 0.0
H1588 H 0.09741 0.5771 0.69633 0.0
H1589 H 0.11324 0.53988 0.71904 0.0
H1590 H 0.10632 0.54515 0.75504 0.0
H1591 H 0.12343 0.55536 0.74194 0.0
C1592 C 0.08827 0.56521 0.80263 0.0
C1593 C 0.09864 0.56932 0.828 0.0
C1594 C 0.09044 0.56384 0.76578 0.0
C1595 C 0.10304 0.56672 0.75363 0.0
C1596 C 0.11356 0.57141 0.7787 0.0
H1597 H 0.11397 0.56742 0.51543 0.0
H1598 H 0.11729 0.57469 0.57935 0.0
C1599 C 0.11133 0.57253 0.81573 0.0
C1600 C 0.10498 0.56459 0.71474 0.0
H1601 H 0.11383 0.54696 0.6583 0.0
C1602 C 0.10105 0.57055 0.68794 0.0
C1603 C 0.10963 0.55595 0.70401 0.0
C1604 C 0.11328 0.54861 0.73148 0.0
C1605 C 0.10119 0.56777 0.6507 0.0
C1606 C 0.10594 0.5592 0.63994 0.0
C1607 C 0.1103 0.5536 0.66667 0.0
C1608 C 0.10528 0.55493 0.60151 0.0
C1609 C 0.09561 0.57348 0.62359 0.0
C1610 C 0.09808 0.54137 0.59297 0.0
C1611 C 0.09648 0.53717 0.55666 0.0
C1612 C 0.1019 0.54649 0.52824 0.0
C1613 C 0.10952 0.56004 0.53685 0.0
C1614 C 0.11135 0.56421 0.57328 0.0
H1615 H 0.08935 0.57696 0.63718 0.0
H1616 H 0.10389 0.58213 0.60969 0.0
H1617 H 0.08953 0.56606 0.60246 0.0
H1618 H 0.09335 0.53402 0.61436 0.0
H1619 H 0.09055 0.52667 0.55083 0.0
H1620 H 0.43278 0.51657 0.81274 0.0
H1621 H 0.43473 0.52163 0.74738 0.0
H1622 H 0.41974 0.5484 0.76556 0.0
H1623 H 0.41839 0.54385 0.83128 0.0
H1624 H 0.41747 0.51866 0.69613 0.0
H1625 H 0.4536 0.57231 0.71325 0.0
H1626 H 0.44876 0.56071 0.75063 0.0
H1627 H 0.43815 0.567 0.73633 0.0
C1628 C 0.4299 0.52353 0.80277 0.0
C1629 C 0.42561 0.52996 0.82701 0.0
C1630 C 0.43099 0.52639 0.76546 0.0
C1631 C 0.42765 0.53561 0.75173 0.0
C1632 C 0.42276 0.54157 0.77571 0.0
H1633 H 0.42508 0.54292 0.51272 0.0
H1634 H 0.41829 0.53904 0.57703 0.0
C1635 C 0.42192 0.53891 0.81316 0.0
C1636 C 0.42956 0.53907 0.7124 0.0
H1637 H 0.44622 0.56485 0.6532 0.0
C1638 C 0.42372 0.52876 0.68667 0.0
C1639 C 0.43782 0.55226 0.70025 0.0
C1640 C 0.44505 0.56369 0.72653 0.0
C1641 C 0.42621 0.53121 0.64914 0.0
C1642 C 0.43437 0.54441 0.63697 0.0
C1643 C 0.43989 0.55476 0.66263 0.0
C1644 C 0.43828 0.54761 0.59816 0.0
C1645 C 0.42061 0.51955 0.6232 0.0
C1646 C 0.45179 0.5543 0.58886 0.0
C1647 C 0.45569 0.55682 0.55234 0.0
C1648 C 0.44615 0.55254 0.52438 0.0
C1649 C 0.43263 0.54616 0.53372 0.0
C1650 C 0.42874 0.54387 0.5704 0.0
H1651 H 0.41753 0.51007 0.63777 0.0
H1652 H 0.41171 0.51869 0.60944 0.0
H1653 H 0.42796 0.52086 0.60186 0.0
H1654 H 0.45932 0.55731 0.60987 0.0
H1655 H 0.46618 0.56174 0.54598 0.0
H1656 H 0.44194 0.87561 0.84139 0.0
H1657 H 0.43324 0.86699 0.78034 0.0
H1658 H 0.47273 0.889 0.73566 0.0
H1659 H 0.48152 0.89781 0.79651 0.0
H1660 H 0.43881 0.88679 0.72103 0.0
H1661 H 0.45473 0.85023 0.68836 0.0
H1662 H 0.45223 0.854 0.73472 0.0
H1663 H 0.46691 0.86534 0.71007 0.0
C1664 C 0.4488 0.87845 0.81866 0.0
C1665 C 0.4624 0.88747 0.82354 0.0
C1666 C 0.44382 0.87346 0.78394 0.0
C1667 C 0.45239 0.87723 0.75384 0.0
C1668 C 0.46603 0.88582 0.75883 0.0
H1669 H 0.4586 0.88479 0.52761 0.0
H1670 H 0.45942 0.87925 0.59154 0.0
C1671 C 0.47101 0.89094 0.79346 0.0
C1672 C 0.44699 0.8739 0.71651 0.0
H1673 H 0.44805 0.85864 0.63804 0.0
C1674 C 0.44054 0.88042 0.70292 0.0
C1675 C 0.44941 0.86565 0.69333 0.0
C1676 C 0.45612 0.8583 0.70729 0.0
C1677 C 0.43724 0.87968 0.66585 0.0
C1678 C 0.44003 0.87174 0.64213 0.0
C1679 C 0.44585 0.86463 0.6563 0.0
C1680 C 0.43864 0.87221 0.60203 0.0
C1681 C 0.43174 0.88821 0.65216 0.0
C1682 C 0.42652 0.86941 0.58624 0.0
C1683 C 0.42611 0.87292 0.54994 0.0
C1684 C 0.43772 0.87885 0.5287 0.0
C1685 C 0.44951 0.8803 0.54344 0.0
C1686 C 0.44998 0.8771 0.57995 0.0
H1687 H 0.43295 0.89583 0.67252 0.0
H1688 H 0.43671 0.89335 0.6264 0.0
H1689 H 0.42098 0.88187 0.64662 0.0
H1690 H 0.41756 0.86525 0.60255 0.0
H1691 H 0.41683 0.87147 0.53894 0.0
H1692 H 0.19091 0.44269 0.27637 0.0
H1693 H 0.19495 0.45287 0.21554 0.0
H1694 H 0.22779 0.44598 0.20056 0.0
H1695 H 0.22409 0.4362 0.26126 0.0
H1696 H 0.23316 0.47082 0.17577 0.0
H1697 H 0.18463 0.43037 0.12307 0.0
H1698 H 0.18453 0.44007 0.16124 0.0
H1699 H 0.19101 0.42906 0.16686 0.0
C1700 C 0.19902 0.44341 0.26011 0.0
C1701 C 0.2071 0.43851 0.27342 0.0
C1702 C 0.20131 0.44923 0.22543 0.0
C1703 C 0.21158 0.45005 0.2035 0.0
C1704 C 0.21984 0.4455 0.21718 0.0
H1705 H 0.24187 0.44172 0.02236 0.0
H1706 H 0.23669 0.44855 0.08027 0.0
C1707 C 0.21766 0.43982 0.25181 0.0
C1708 C 0.2134 0.45469 0.16521 0.0
H1709 H 0.20089 0.44309 0.08025 0.0
C1710 C 0.22595 0.46505 0.15483 0.0
C1711 C 0.20391 0.44726 0.13799 0.0
C1712 C 0.19027 0.43603 0.14758 0.0
C1713 C 0.22977 0.46714 0.118 0.0
C1714 C 0.2208 0.45869 0.09124 0.0
C1715 C 0.20773 0.44949 0.10112 0.0
C1716 C 0.22554 0.45685 0.05561 0.0
C1717 C 0.24373 0.47758 0.10819 0.0
C1718 C 0.22098 0.45931 0.0227 0.0
C1719 C 0.22405 0.45552 -0.01057 0.0
C1720 C 0.23137 0.4489 -0.01098 0.0
C1721 C 0.23615 0.44674 0.02199 0.0
C1722 C 0.23332 0.45075 0.05499 0.0
H1723 H 0.2479 0.48571 0.12872 0.0
H1724 H 0.25011 0.473 0.10765 0.0
H1725 H 0.24408 0.48182 0.08071 0.0
H1726 H 0.21479 0.46382 0.02287 0.0
H1727 H 0.22023 0.45725 0.96426 0.0
H1728 H 0.54074 0.76616 0.95613 0.0
H1729 H 0.53376 0.75275 0.01217 0.0
H1730 H 0.56331 0.78618 0.07351 0.0
H1731 H 0.57044 0.79952 0.01792 0.0
H1732 H 0.5625 0.76145 0.08621 0.0
H1733 H 0.51295 0.75767 0.09774 0.0
H1734 H 0.51737 0.75274 0.05575 0.0
H1735 H 0.52576 0.7699 0.06865 0.0
C1736 C 0.54573 0.77062 0.98161 0.0
C1737 C 0.55611 0.78389 0.98276 0.0
C1738 C 0.54171 0.76297 0.0135 0.0
C1739 C 0.54799 0.76853 0.04682 0.0
C1740 C 0.55838 0.78172 0.04791 0.0
H1741 H 0.54318 0.77636 0.2607 0.0
H1742 H 0.53881 0.77216 0.19565 0.0
C1743 C 0.56242 0.78934 0.01618 0.0
C1744 C 0.54386 0.76093 0.08123 0.0
H1745 H 0.52118 0.75245 0.14975 0.0
C1746 C 0.55331 0.75908 0.09994 0.0
C1747 C 0.5318 0.75781 0.09857 0.0
C1748 C 0.52134 0.75963 0.07939 0.0
C1749 C 0.55169 0.75557 0.13699 0.0
C1750 C 0.5401 0.75354 0.15535 0.0
C1751 C 0.53002 0.75402 0.1355 0.0
C1752 C 0.53972 0.75403 0.1957 0.0
C1753 C 0.56298 0.7554 0.15688 0.0
C1754 C 0.54107 0.74488 0.21763 0.0
C1755 C 0.54383 0.7474 0.25494 0.0
C1756 C 0.54507 0.759 0.27078 0.0
C1757 C 0.54245 0.76743 0.24931 0.0
C1758 C 0.53986 0.76499 0.21209 0.0
H1759 H 0.57186 0.75874 0.13924 0.0
H1760 H 0.5659 0.76192 0.18135 0.0
H1761 H 0.55977 0.74517 0.16619 0.0
H1762 H 0.54069 0.7362 0.20557 0.0
H1763 H 0.54556 0.74059 0.27096 0.0
H1764 H 0.24006 0.80676 0.25831 0.0
H1765 H 0.23892 0.80194 0.19292 0.0
H1766 H 0.22777 0.7614 0.21719 0.0
H1767 H 0.22822 0.76602 0.28271 0.0
H1768 H 0.24829 0.79162 0.14142 0.0
H1769 H 0.19471 0.75741 0.1695 0.0
H1770 H 0.20589 0.7684 0.20384 0.0
H1771 H 0.20573 0.75327 0.19267 0.0
C1772 C 0.23769 0.79691 0.2497 0.0
C1773 C 0.23389 0.78666 0.27531 0.0
C1774 C 0.23708 0.79417 0.21237 0.0
C1775 C 0.23287 0.78122 0.20036 0.0
C1776 C 0.23066 0.77137 0.22603 0.0
H1777 H 0.21843 0.76225 0.96585 0.0
H1778 H 0.22824 0.7658 0.02699 0.0
C1779 C 0.23094 0.77401 0.26334 0.0
C1780 C 0.22886 0.77771 0.16183 0.0
H1781 H 0.20152 0.75998 0.1085 0.0
C1782 C 0.23811 0.78461 0.13407 0.0
C1783 C 0.21548 0.7687 0.15256 0.0
C1784 C 0.20484 0.7616 0.18114 0.0
C1785 C 0.23424 0.78303 0.09718 0.0
C1786 C 0.22087 0.77408 0.0881 0.0
C1787 C 0.21177 0.76683 0.11574 0.0
C1788 C 0.2157 0.77269 0.05054 0.0
C1789 C 0.24433 0.79137 0.06855 0.0
C1790 C 0.2053 0.77521 0.0438 0.0
C1791 C 0.19952 0.77295 0.00926 0.0
C1792 C 0.20414 0.76824 0.9808 0.0
C1793 C 0.21474 0.76597 0.98733 0.0
C1794 C 0.22042 0.76808 0.0221 0.0
H1795 H 0.2533 0.79982 0.08089 0.0
H1796 H 0.24748 0.78514 0.05345 0.0
H1797 H 0.24 0.79532 0.04851 0.0
H1798 H 0.20152 0.77877 0.06549 0.0
H1799 H 0.19141 0.77484 0.00492 0.0
H1800 H 0.15046 0.20009 0.26532 0.0
H1801 H 0.16961 0.19738 0.25364 0.0
H1802 H 0.19219 0.23806 0.21808 0.0
H1803 H 0.173 0.24093 0.22996 0.0
H1804 H 0.19217 0.21756 0.16939 0.0
H1805 H 0.20529 0.21441 0.31339 0.0
H1806 H 0.18787 0.20439 0.30378 0.0
H1807 H 0.19575 0.22214 0.30036 0.0
C1808 C 0.1595 0.20849 0.25519 0.0
C1809 C 0.16024 0.22073 0.24861 0.0
C1810 C 0.17045 0.20694 0.24871 0.0
C1811 C 0.18231 0.21757 0.23544 0.0
C1812 C 0.18312 0.22979 0.22859 0.0
H1813 H 0.24405 0.19573 0.22885 0.0
H1814 H 0.23553 0.21116 0.23119 0.0
C1815 C 0.17217 0.2314 0.23542 0.0
C1816 C 0.19357 0.2155 0.22755 0.0
H1817 H 0.21264 0.20453 0.26809 0.0
C1818 C 0.19692 0.21501 0.19093 0.0
C1819 C 0.19989 0.21244 0.25575 0.0
C1820 C 0.19713 0.21348 0.29558 0.0
C1821 C 0.20563 0.21043 0.18166 0.0
C1822 C 0.21094 0.20613 0.20978 0.0
C1823 C 0.20848 0.20773 0.2465 0.0
C1824 C 0.2174 0.1982 0.20204 0.0
C1825 C 0.20865 0.20974 0.14186 0.0
C1826 C 0.21014 0.18594 0.18428 0.0
C1827 C 0.21493 0.1771 0.18308 0.0
C1828 C 0.22705 0.18036 0.19978 0.0
C1829 C 0.23468 0.19296 0.21572 0.0
C1830 C 0.22984 0.20178 0.21706 0.0
H1831 H 0.208 0.21747 0.12565 0.0
H1832 H 0.21867 0.21097 0.13826 0.0
H1833 H 0.20122 0.19993 0.13064 0.0
H1834 H 0.20038 0.18283 0.17325 0.0
H1835 H 0.20882 0.16748 0.17056 0.0
H1836 H 0.74433 0.93955 0.23123 0.0
H1837 H 0.75086 0.96271 0.21851 0.0
H1838 H 0.78816 0.97562 0.27331 0.0
H1839 H 0.78171 0.95264 0.28641 0.0
H1840 H 0.77638 0.9918 0.2868 0.0
H1841 H 0.77959 0.98214 0.13864 0.0
H1842 H 0.76404 0.97209 0.16166 0.0
H1843 H 0.77817 0.97057 0.17363 0.0
C1844 C 0.7538 0.94735 0.2412 0.0
C1845 C 0.76259 0.94429 0.25939 0.0
C1846 C 0.75753 0.96055 0.23378 0.0
C1847 C 0.77006 0.97081 0.2445 0.0
C1848 C 0.77845 0.96781 0.26476 0.0
H1849 H 0.83365 0.04131 0.18055 0.0
H1850 H 0.81524 0.01887 0.1902 0.0
C1851 C 0.77477 0.95467 0.27211 0.0
C1852 C 0.77519 0.98459 0.23193 0.0
H1853 H 0.78913 0.00427 0.1571 0.0
C1854 C 0.77888 0.99457 0.25833 0.0
C1855 C 0.77848 0.98808 0.19475 0.0
C1856 C 0.77496 0.97772 0.16539 0.0
C1857 C 0.78652 0.00801 0.24887 0.0
C1858 C 0.79045 0.01146 0.21202 0.0
C1859 C 0.78602 0.00152 0.18527 0.0
C1860 C 0.80088 0.025 0.20193 0.0
C1861 C 0.7912 0.01835 0.27869 0.0
C1862 C 0.79876 0.03581 0.2043 0.0
C1863 C 0.80929 0.0487 0.19873 0.0
C1864 C 0.82207 0.0509 0.19085 0.0
C1865 C 0.82395 0.03996 0.18677 0.0
C1866 C 0.81344 0.02713 0.19219 0.0
H1867 H 0.78833 0.01388 0.30641 0.0
H1868 H 0.80215 0.02475 0.27768 0.0
H1869 H 0.7868 0.02479 0.2744 0.0
H1870 H 0.78907 0.03432 0.21143 0.0
H1871 H 0.80755 0.05695 0.20196 0.0
H1872 H 0.95165 0.78504 0.20031 0.0
H1873 H 0.97431 0.78996 0.2116 0.0
H1874 H 0.95956 0.75188 0.26351 0.0
H1875 H 0.93671 0.74681 0.25217 0.0
H1876 H 0.97848 0.77426 0.30542 0.0
H1877 H 0.99629 0.77474 0.16472 0.0
H1878 H 0.98778 0.78397 0.16861 0.0
H1879 H 0.97888 0.76636 0.17649 0.0
C1880 C 0.9532 0.77762 0.21368 0.0
C1881 C 0.94242 0.76555 0.22539 0.0
C1882 C 0.96616 0.78041 0.21989 0.0
C1883 C 0.96857 0.7712 0.23795 0.0
C1884 C 0.95785 0.75904 0.24923 0.0
H1885 H 0.05411 0.80234 0.2549 0.0
H1886 H 0.03074 0.78496 0.25215 0.0
C1887 C 0.94484 0.75617 0.2427 0.0
C1888 C 0.98233 0.77497 0.24754 0.0
H1889 H 0.01305 0.78797 0.20949 0.0
C1890 C 0.98603 0.77695 0.28456 0.0
C1891 C 0.9921 0.77824 0.22032 0.0
C1892 C 0.98855 0.77559 0.18031 0.0
C1893 C -0.00058 0.78322 0.29485 0.0
C1894 C 0.00927 0.78771 0.26735 0.0
C1895 C 0.00549 0.78465 0.23057 0.0
C1896 C 0.02338 0.79715 0.27532 0.0
C1897 C 0.00293 0.78548 0.33494 0.0
C1898 C 0.02696 0.80966 0.28985 0.0
C1899 C 0.04025 0.81959 0.29128 0.0
C1900 C 0.05019 0.81721 0.27804 0.0
C1901 C 0.04666 0.80446 0.26534 0.0
C1902 C 0.03333 0.79452 0.26375 0.0
H1903 H 0.99491 0.77771 0.35202 0.0
H1904 H 0.01233 0.78556 0.34068 0.0
H1905 H 0.00415 0.7952 0.34325 0.0
H1906 H 0.01943 0.81199 0.29816 0.0
H1907 H 0.04265 0.82931 0.30122 0.0
H1908 H 0.80575 0.74753 0.74964 0.0
H1909 H 0.78769 0.75236 0.75844 0.0
H1910 H 0.81119 0.79031 0.70597 0.0
H1911 H 0.82916 0.78559 0.69701 0.0
H1912 H 0.79045 0.7737 0.79971 0.0
H1913 H 0.77472 0.7765 0.65902 0.0
H1914 H 0.78382 0.76812 0.66986 0.0
H1915 H 0.79243 0.78583 0.66349 0.0
C1916 C 0.80694 0.75679 0.73936 0.0
C1917 C 0.81888 0.76622 0.72276 0.0
C1918 C 0.79663 0.75952 0.74439 0.0
C1919 C 0.79804 0.7716 0.73236 0.0
C1920 C 0.80978 0.7808 0.7147 0.0
H1921 H 0.78503 0.8306 0.80164 0.0
H1922 H 0.78981 0.81259 0.79479 0.0
C1923 C 0.82009 0.77814 0.70989 0.0
C1924 C 0.78809 0.77545 0.74182 0.0
H1925 H 0.77178 0.7901 0.70461 0.0
C1926 C 0.78603 0.77694 0.77895 0.0
C1927 C 0.78215 0.77945 0.71476 0.0
C1928 C 0.78328 0.77726 0.67455 0.0
C1929 C 0.77926 0.78352 0.78964 0.0
C1930 C 0.77461 0.78883 0.76247 0.0
C1931 C 0.77552 0.78618 0.72544 0.0
C1932 C 0.7707 0.79879 0.77136 0.0
C1933 C 0.77772 0.7853 0.82988 0.0
C1934 C 0.75836 0.797 0.76044 0.0
C1935 C 0.7556 0.80733 0.76432 0.0
C1936 C 0.76524 0.81964 0.77858 0.0
C1937 C 0.77741 0.82123 0.79056 0.0
C1938 C 0.78011 0.8109 0.78695 0.0
H1939 H 0.7774 0.77709 0.84619 0.0
H1940 H 0.78637 0.79471 0.83938 0.0
H1941 H 0.76856 0.78575 0.83533 0.0
H1942 H 0.75104 0.78776 0.74798 0.0
H1943 H 0.74615 0.80585 0.75473 0.0
H1944 H 0.24796 0.0554 0.72837 0.0
H1945 H 0.24328 0.03283 0.7417 0.0
H1946 H 0.20387 0.01711 0.69764 0.0
H1947 H 0.20841 0.03954 0.68444 0.0
H1948 H 0.22232 0.01611 0.78998 0.0
H1949 H 0.21662 0.99255 0.65461 0.0
H1950 H 0.22569 0.01033 0.66101 0.0
H1951 H 0.20788 0.00158 0.65763 0.0
C1952 C 0.23841 0.0471 0.72068 0.0
C1953 C 0.22851 0.04921 0.7055 0.0
C1954 C 0.23577 0.03425 0.72838 0.0
C1955 C 0.22329 0.02334 0.72034 0.0
C1956 C 0.21364 0.0254 0.70345 0.0
H1957 H 0.16565 0.95323 0.80491 0.0
H1958 H 0.18356 0.97595 0.79573 0.0
C1959 C 0.21622 0.03822 0.69612 0.0
C1960 C 0.21959 0.00994 0.73349 0.0
H1961 H 0.20461 0.97783 0.70484 0.0
C1962 C 0.21877 0.00775 0.77142 0.0
C1963 C 0.21516 -0.0009 0.70925 0.0
C1964 C 0.2165 0.001 0.66833 0.0
C1965 C 0.21252 0.99484 0.78569 0.0
C1966 C 0.20691 0.98396 0.76134 0.0
C1967 C 0.20882 0.9862 0.7235 0.0
C1968 C 0.19738 0.9704 0.77384 0.0
C1969 C 0.21143 0.99296 0.82662 0.0
C1970 C 0.19931 0.95974 0.7652 0.0
C1971 C 0.18906 0.94671 0.77047 0.0
C1972 C 0.17668 0.94418 0.78386 0.0
C1973 C 0.17507 0.95488 0.79452 0.0
C1974 C 0.18534 0.96787 0.78953 0.0
H1975 H 0.21975 0.00151 0.84084 0.0
H1976 H 0.20204 0.99225 0.8361 0.0
H1977 H 0.21137 0.98373 0.83467 0.0
H1978 H 0.2085 0.96151 0.75279 0.0
H1979 H 0.19058 0.93865 0.76193 0.0
H1980 H 0.94885 0.19177 0.74355 0.0
H1981 H 0.9729 0.20597 0.74263 0.0
H1982 H 0.97479 0.18731 0.64242 0.0
H1983 H 0.95077 0.17251 0.64463 0.0
H1984 H 0.99054 0.18641 0.68784 0.0
H1985 H 0.00036 0.23782 0.69224 0.0
H1986 H 0.98948 0.22857 0.729 0.0
H1987 H 0.98409 0.22403 0.68226 0.0
C1988 C 0.95437 0.19095 0.72083 0.0
C1989 C 0.948 0.18101 0.69428 0.0
C1990 C 0.96814 0.19916 0.72013 0.0
C1991 C 0.97572 0.19786 0.6922 0.0
C1992 C 0.96919 0.18851 0.66427 0.0
H1993 H 0.06298 0.2455 0.69893 0.0
H1994 H 0.03976 0.23736 0.68195 0.0
C1995 C 0.95547 0.18007 0.6655 0.0
C1996 C 0.99041 0.20473 0.69519 0.0
H1997 H 0.01783 0.23429 0.71689 0.0
C1998 C 0.9965 0.19694 0.69344 0.0
C1999 C -0.00167 0.21851 0.70204 0.0
C2000 C 0.99271 0.22771 0.70106 0.0
C2001 C 0.01008 0.20237 0.7 0.0
C2002 C 0.01774 0.21586 0.71013 0.0
C2003 C 0.01187 0.22386 0.71 0.0
C2004 C 0.0317 0.2216 0.72216 0.0
C2005 C 0.01604 0.19351 0.6961 0.0
C2006 C 0.03481 0.21576 0.75123 0.0
C2007 C 0.04798 0.22022 0.76053 0.0
C2008 C 0.05831 0.23085 0.74154 0.0
C2009 C 0.05519 0.23726 0.71394 0.0
C2010 C 0.04196 0.23262 0.70422 0.0
H2011 H 0.01024 0.18524 0.6767 0.0
H2012 H 0.02646 0.19914 0.68631 0.0
H2013 H 0.0159 0.18907 0.72308 0.0
H2014 H 0.02702 0.20752 0.76625 0.0
H2015 H 0.05009 0.21523 0.78231 0.0
H2016 H 0.82858 0.54375 0.61403 0.0
H2017 H 0.8464 0.53917 0.60028 0.0
H2018 H 0.86947 0.57806 0.55258 0.0
H2019 H 0.8516 0.58279 0.56644 0.0
H2020 H 0.86587 0.5564 0.50711 0.0
H2021 H 0.88377 0.55365 0.64528 0.0
H2022 H 0.86601 0.54449 0.64194 0.0
H2023 H 0.87471 0.56221 0.63623 0.0
C2024 C 0.83752 0.55142 0.60112 0.0
C2025 C 0.8387 0.56362 0.59125 0.0
C2026 C 0.84772 0.54882 0.5935 0.0
C2027 C 0.85929 0.55834 0.57585 0.0
C2028 C 0.86065 0.57065 0.56653 0.0
H2029 H 0.91338 0.52729 0.54542 0.0
H2030 H 0.90755 0.5447 0.55226 0.0
C2031 C 0.85046 0.57332 0.57449 0.0
C2032 C 0.86926 0.55477 0.56437 0.0
H2033 H 0.88703 0.54109 0.59771 0.0
C2034 C 0.87081 0.55337 0.52683 0.0
C2035 C 0.87584 0.55104 0.59011 0.0
C2036 C 0.87512 0.55305 0.63065 0.0
C2037 C 0.87782 0.54722 0.5145 0.0
C2038 C 0.88326 0.54227 0.54045 0.0
C2039 C 0.88273 0.54477 0.57782 0.0
C2040 C 0.88777 0.53289 0.53016 0.0
C2041 C 0.87885 0.54555 0.47392 0.0
C2042 C 0.87865 0.52058 0.51491 0.0
C2043 C 0.8819 0.51063 0.51119 0.0
C2044 C 0.89433 0.51278 0.52277 0.0
C2045 C 0.90373 0.52536 0.53618 0.0
C2046 C 0.90043 0.53531 0.54012 0.0
H2047 H 0.87849 0.55355 0.45826 0.0
H2048 H 0.88815 0.54558 0.46698 0.0
H2049 H 0.87032 0.53595 0.46504 0.0
H2050 H 0.86873 0.5184 0.50778 0.0
H2051 H 0.87445 0.50105 0.50077 0.0
H2052 H 0.41071 0.27298 0.56981 0.0
H2053 H 0.41706 0.29631 0.56131 0.0
H2054 H 0.45486 0.30838 0.61214 0.0
H2055 H 0.44858 0.28522 0.62112 0.0
H2056 H 0.44336 0.3243 0.63124 0.0
H2057 H 0.44485 0.31707 0.48074 0.0
H2058 H 0.4295 0.30666 0.50427 0.0
H2059 H 0.44371 0.30492 0.51336 0.0
C2060 C 0.42027 0.28062 0.57981 0.0
C2061 C 0.42923 0.27729 0.59566 0.0
C2062 C 0.42388 0.29391 0.57482 0.0
C2063 C 0.43649 0.30401 0.58559 0.0
C2064 C 0.44508 0.30071 0.60358 0.0
H2065 H 0.49868 0.376 0.52265 0.0
H2066 H 0.48089 0.35333 0.53339 0.0
C2067 C 0.4415 0.28746 0.60856 0.0
C2068 C 0.44148 0.31798 0.57515 0.0
H2069 H 0.45427 0.33885 0.50206 0.0
C2070 C 0.44546 0.32753 0.60296 0.0
C2071 C 0.44426 0.32207 0.53818 0.0
C2072 C 0.44045 0.3122 0.50729 0.0
C2073 C 0.45288 0.34111 0.59494 0.0
C2074 C 0.45626 0.34516 0.55815 0.0
C2075 C 0.45157 0.33564 0.53018 0.0
C2076 C 0.46638 0.35889 0.54882 0.0
C2077 C 0.45787 0.351 0.62595 0.0
C2078 C 0.46398 0.36947 0.5532 0.0
C2079 C 0.47415 0.38249 0.54699 0.0
C2080 C 0.48685 0.38505 0.53646 0.0
C2081 C 0.48903 0.37436 0.53089 0.0
C2082 C 0.47888 0.3614 0.53693 0.0
H2083 H 0.45533 0.34611 0.6532 0.0
H2084 H 0.46881 0.35744 0.62416 0.0
H2085 H 0.45342 0.35747 0.62383 0.0
H2086 H 0.45434 0.36767 0.56206 0.0
H2087 H 0.47219 0.39055 0.55145 0.0
H2088 H 0.62069 0.11801 0.50464 0.0
H2089 H 0.64403 0.12448 0.50956 0.0
H2090 H 0.63328 0.0871 0.56104 0.0
H2091 H 0.60981 0.08057 0.55655 0.0
H2092 H 0.65028 0.10829 0.60222 0.0
H2093 H 0.66964 0.11508 0.46122 0.0
H2094 H 0.66012 0.12318 0.46744 0.0
H2095 H 0.65213 0.10541 0.47152 0.0
C2096 C 0.62325 0.11102 0.51617 0.0
C2097 C 0.61343 0.09883 0.53049 0.0
C2098 C 0.63661 0.11468 0.51867 0.0
C2099 C 0.64039 0.10621 0.53529 0.0
C2100 C 0.63056 0.09373 0.54786 0.0
H2101 H 0.72702 0.14434 0.56663 0.0
H2102 H 0.70444 0.12621 0.55372 0.0
C2103 C 0.61717 0.09003 0.54528 0.0
C2104 C 0.6545 0.11131 0.54442 0.0
H2105 H 0.68556 0.12884 0.50808 0.0
C2106 C 0.658 0.11246 0.58156 0.0
C2107 C 0.66457 0.11659 0.51751 0.0
C2108 C 0.66141 0.11487 0.47718 0.0
C2109 C 0.67128 0.11978 0.5926 0.0
C2110 C 0.68124 0.12618 0.56581 0.0
C2111 C 0.67786 0.12405 0.52858 0.0
C2112 C 0.69482 0.13648 0.5759 0.0
C2113 C 0.6745 0.12113 0.6329 0.0
C2114 C 0.6968 0.14819 0.59249 0.0
C2115 C 0.70959 0.15853 0.59958 0.0
C2116 C 0.72065 0.15735 0.59024 0.0
C2117 C 0.71866 0.14549 0.57427 0.0
C2118 C 0.70581 0.13516 0.56685 0.0
H2119 H 0.66672 0.11263 0.64866 0.0
H2120 H 0.68422 0.12178 0.63794 0.0
H2121 H 0.67503 0.13033 0.64339 0.0
H2122 H 0.68844 0.14947 0.59907 0.0
H2123 H 0.7108 0.16754 0.61187 0.0
H2124 H 0.41292 0.14237 0.07942 0.0
H2125 H 0.41826 0.1249 0.06616 0.0
H2126 H 0.45695 0.14883 0.11433 0.0
H2127 H 0.45175 0.16627 0.12751 0.0
H2128 H 0.43988 0.12971 0.02018 0.0
H2129 H 0.4444 0.11151 0.15624 0.0
H2130 H 0.43525 0.12009 0.14897 0.0
H2131 H 0.45301 0.12928 0.15372 0.0
C2132 C 0.42244 0.14376 0.08795 0.0
C2133 C 0.43195 0.15569 0.10437 0.0
C2134 C 0.42547 0.13379 0.08031 0.0
C2135 C 0.43793 0.13554 0.08961 0.0
C2136 C 0.44718 0.14719 0.10754 0.0
H2137 H 0.49619 0.12237 0.00727 0.0
H2138 H 0.47894 0.12807 0.01785 0.0
C2139 C 0.44423 0.15718 0.11485 0.0
C2140 C 0.44205 0.12609 0.07692 0.0
H2141 H 0.45692 0.10902 0.10705 0.0
C2142 C 0.4433 0.12488 0.03911 0.0
C2143 C 0.44634 0.11969 0.10163 0.0
C2144 C 0.44456 0.12008 0.14241 0.0
C2145 C 0.44975 0.11834 0.02547 0.0
C2146 C 0.45513 0.113 0.05034 0.0
C2147 C 0.45289 0.11324 0.08801 0.0
C2148 C 0.46453 0.1087 0.03848 0.0
C2149 C 0.45124 0.11767 0.98465 0.0
C2150 C 0.46209 0.09588 0.04626 0.0
C2151 C 0.47195 0.09258 0.04016 0.0
C2152 C 0.48446 0.10215 0.02679 0.0
C2153 C 0.48665 0.1148 0.01757 0.0
C2154 C 0.47677 0.11804 0.02338 0.0
H2155 H 0.44322 0.11821 0.96966 0.0
H2156 H 0.46086 0.12622 0.97593 0.0
H2157 H 0.45112 0.1084 0.97673 0.0
H2158 H 0.45273 0.08858 0.05822 0.0
H2159 H 0.46999 0.08276 0.04765 0.0
H2160 H 0.9148 0.38687 0.0365 0.0
H2161 H 0.90935 0.36367 0.03994 0.0
H2162 H 0.87012 0.35122 -0.00125 0.0
H2163 H 0.87549 0.37427 -0.00503 0.0
H2164 H 0.8897 0.34617 0.08518 0.0
H2165 H 0.87951 0.32663 0.94406 0.0
H2166 H 0.88894 0.34418 0.95395 0.0
H2167 H 0.87108 0.33562 0.95384 0.0
C2168 C 0.90514 0.3792 0.02721 0.0
C2169 C 0.89553 0.38237 0.0157 0.0
C2170 C 0.90206 0.36597 0.0292 0.0
C2171 C 0.88939 0.35575 0.01925 0.0
C2172 C 0.88006 0.35896 0.0058 0.0
H2173 H 0.83241 0.28427 0.10403 0.0
H2174 H 0.8496 0.30695 0.09032 0.0
C2175 C 0.8831 0.37215 0.00395 0.0
C2176 C 0.88512 0.34178 0.02791 0.0
H2177 H 0.86755 0.31058 -0.00755 0.0
C2178 C 0.88518 0.33839 0.06476 0.0
C2179 C 0.8794 0.33165 0.00125 0.0
C2180 C 0.87986 0.33472 0.96101 0.0
C2181 C 0.87861 0.32511 0.07603 0.0
C2182 C 0.87173 0.31504 0.04982 0.0
C2183 C 0.87269 0.31836 0.01259 0.0
C2184 C 0.86214 0.3013 0.06083 0.0
C2185 C 0.8786 0.32201 0.11611 0.0
C2186 C 0.86348 0.29062 0.04855 0.0
C2187 C 0.85364 0.2776 0.05638 0.0
C2188 C 0.84224 0.27511 0.07609 0.0
C2189 C 0.84107 0.28586 0.08884 0.0
C2190 C 0.85093 0.29883 0.08124 0.0
H2191 H 0.8875 0.32993 0.13022 0.0
H2192 H 0.86971 0.32134 0.12934 0.0
H2193 H 0.8783 0.3124 0.12 0.0
H2194 H 0.87202 0.29236 0.03246 0.0
H2195 H 0.85478 0.2695 0.04609 0.0
H2196 H 0.71302 0.54494 0.12677 0.0
H2197 H 0.68966 0.53777 0.1164 0.0
H2198 H 0.70062 0.56706 0.0312 0.0
H2199 H 0.72411 0.57464 0.04237 0.0
H2200 H 0.67928 0.5641 0.07155 0.0
H2201 H 0.67168 0.51531 0.02705 0.0
H2202 H 0.6781 0.51941 0.07272 0.0
H2203 H 0.68794 0.52939 0.03487 0.0
C2204 C 0.71047 0.54998 0.10618 0.0
C2205 C 0.72034 0.5602 0.08499 0.0
C2206 C 0.69713 0.54584 0.10019 0.0
C2207 C 0.69342 0.55164 0.07234 0.0
C2208 C 0.70329 0.56239 0.05262 0.0
H2209 H 0.61355 0.50419 -0.01148 0.0
H2210 H 0.63752 0.51921 -0.00978 0.0
C2211 C 0.71668 0.56669 0.05901 0.0
C2212 C 0.67929 0.54583 0.06227 0.0
H2213 H 0.65221 0.51663 0.0376 0.0
C2214 C 0.67334 0.55375 0.06378 0.0
C2215 C 0.67168 0.53244 0.05114 0.0
C2216 C 0.67771 0.52368 0.04593 0.0
C2217 C 0.65981 0.54845 0.05588 0.0
C2218 C 0.65201 0.53481 0.04715 0.0
C2219 C 0.65812 0.52707 0.04445 0.0
C2220 C 0.63741 0.52802 0.04237 0.0
C2221 C 0.65406 0.55754 0.0567 0.0
C2222 C 0.62931 0.52833 0.07039 0.0
C2223 C 0.61557 0.51996 0.069 0.0
C2224 C 0.60977 0.51089 0.04009 0.0
C2225 C 0.61779 0.51104 0.01121 0.0
C2226 C 0.63148 0.51962 0.01218 0.0
H2227 H 0.66175 0.56792 0.05035 0.0
H2228 H 0.64578 0.55434 0.0369 0.0
H2229 H 0.65026 0.55746 0.08459 0.0
H2230 H 0.63363 0.53443 0.09444 0.0
H2231 H 0.60961 0.51994 0.09179 0.0
H2232 H 0.52438 0.91624 0.93406 0.0
H2233 H 0.54108 0.90934 0.93073 0.0
H2234 H 0.51257 0.87076 0.97229 0.0
H2235 H 0.49593 0.87759 0.97622 0.0
H2236 H 0.53894 0.88046 -0.0016 0.0
H2237 H 0.53603 0.88349 0.84665 0.0
H2238 H 0.54073 0.89837 0.87234 0.0
H2239 H 0.52426 0.88444 0.87678 0.0
C2240 C 0.52177 0.9064 0.9433 0.0
C2241 C 0.50878 0.89738 0.95485 0.0
C2242 C 0.53131 0.90247 0.94124 0.0
C2243 C 0.52796 0.88948 0.9506 0.0
C2244 C 0.51533 0.88083 0.96482 0.0
H2245 H 0.53995 0.8288 0.88014 0.0
H2246 H 0.53425 0.84582 0.89411 0.0
C2247 C 0.50581 0.88473 0.96693 0.0
C2248 C 0.53686 0.88423 0.94183 0.0
H2249 H 0.54748 0.87333 0.86967 0.0
C2250 C 0.5411 0.87915 0.97033 0.0
C2251 C 0.53952 0.88246 0.90509 0.0
C2252 C 0.53486 0.88738 0.87332 0.0
C2253 C 0.54735 0.87175 0.96296 0.0
C2254 C 0.54945 0.8695 0.92619 0.0
C2255 C 0.54587 0.87518 0.8978 0.0
C2256 C 0.5535 0.85972 0.91648 0.0
C2257 C 0.55088 0.86566 -0.00567 0.0
C2258 C 0.56629 0.86202 0.92395 0.0
C2259 C 0.56961 0.85228 0.91589 0.0
C2260 C 0.56015 0.84013 0.90035 0.0
C2261 C 0.54745 0.83803 0.8922 0.0
C2262 C 0.54418 0.84775 0.90011 0.0
H2263 H 0.54742 0.86733 0.02109 0.0
H2264 H 0.54644 0.85482 -0.01002 0.0
H2265 H 0.5618 0.87006 -0.00444 0.0
H2266 H 0.57364 0.87128 0.93626 0.0
H2267 H 0.57948 0.85418 0.92242 0.0
H2268 H 0.07912 0.60657 0.94918 0.0
H2269 H 0.08475 0.62977 0.9427 0.0
H2270 H 0.12575 0.64249 0.96541 0.0
H2271 H 0.12025 0.61946 0.97217 0.0
H2272 H 0.11589 0.65873 -0.00239 0.0
H2273 H 0.10552 0.64916 0.84824 0.0
H2274 H 0.09254 0.63898 0.87992 0.0
H2275 H 0.10723 0.63765 0.87764 0.0
C2276 C 0.08928 0.61433 0.95357 0.0
C2277 C 0.09929 0.61121 0.96068 0.0
C2278 C 0.09247 0.62755 0.94975 0.0
C2279 C 0.10567 0.63777 0.95306 0.0
C2280 C 0.11549 0.63471 0.9627 0.0
H2281 H 0.16244 0.70861 0.86834 0.0
H2282 H 0.14557 0.68613 0.88521 0.0
C2283 C 0.11234 0.62154 0.96642 0.0
C2284 C 0.10974 0.65155 0.94277 0.0
H2285 H 0.11673 0.67127 0.86744 0.0
C2286 C 0.11578 0.66152 0.96934 0.0
C2287 C 0.10961 0.65506 0.90576 0.0
C2288 C 0.10345 0.64471 0.87605 0.0
C2289 C 0.12242 0.67496 0.9595 0.0
C2290 C 0.12295 0.67843 0.92223 0.0
C2291 C 0.1162 0.6685 0.896 0.0
C2292 C 0.13228 0.69197 0.90933 0.0
C2293 C 0.12967 0.68534 -0.01147 0.0
C2294 C 0.1302 0.70261 0.91662 0.0
C2295 C 0.13983 0.71551 0.90683 0.0
C2296 C 0.15168 0.71789 0.88989 0.0
C2297 C 0.15346 0.70711 0.88152 0.0
C2298 C 0.14382 0.69426 0.89105 0.0
H2299 H 0.12893 0.68091 0.01597 0.0
H2300 H 0.14031 0.69148 0.98115 0.0
H2301 H 0.12546 0.69203 -0.0098 0.0
H2302 H 0.12128 0.70096 0.93051 0.0
H2303 H 0.13821 0.72365 0.91361 0.0
H2304 H 0.28725 0.45731 0.86713 0.0
H2305 H 0.30969 0.46204 0.8812 0.0
H2306 H 0.29386 0.42525 0.94076 0.0
H2307 H 0.27127 0.42038 0.92668 0.0
H2308 H 0.31205 0.44807 0.98061 0.0
H2309 H 0.33239 0.44614 0.84542 0.0
H2310 H 0.32402 0.45556 0.84435 0.0
H2311 H 0.31478 0.4381 0.85443 0.0
C2312 C 0.28853 0.45009 0.88263 0.0
C2313 C 0.27751 0.43849 0.89589 0.0
C2314 C 0.30135 0.45277 0.89044 0.0
C2315 C 0.3034 0.44391 0.91164 0.0
C2316 C 0.29245 0.43213 0.92407 0.0
H2317 H 0.3885 0.47535 0.94577 0.0
H2318 H 0.3652 0.4579 0.94073 0.0
C2319 C 0.27958 0.42938 0.91598 0.0
C2320 C 0.31697 0.44782 0.92385 0.0
H2321 H 0.34835 0.46022 0.89103 0.0
C2322 C 0.31997 0.45041 0.96119 0.0
C2323 C 0.32723 0.45066 0.89858 0.0
C2324 C 0.32443 0.44734 0.85849 0.0
C2325 C 0.33314 0.45687 0.97346 0.0
C2326 C 0.34349 0.46091 0.94763 0.0
C2327 C 0.3404 0.45723 0.91078 0.0
C2328 C 0.3574 0.47054 0.95698 0.0
C2329 C 0.33591 0.45985 0.0137 0.0
C2330 C 0.36069 0.48334 0.96834 0.0
C2331 C 0.37392 0.49331 0.97097 0.0
C2332 C 0.38412 0.49067 0.96222 0.0
C2333 C 0.38084 0.47766 0.95278 0.0
C2334 C 0.36756 0.46769 0.94987 0.0
H2335 H 0.32752 0.45247 0.03062 0.0
H2336 H 0.34511 0.45991 0.02204 0.0
H2337 H 0.33716 0.46977 0.01955 0.0
H2338 H 0.353 0.48581 0.97322 0.0
H2339 H 0.37614 0.50323 0.97832 0.0
H2340 H 0.11033 0.49313 0.49579 0.0
H2341 H 0.1193 0.47808 0.49393 0.0
H2342 H 0.09368 0.45728 0.40281 0.0
H2343 H 0.08418 0.47178 0.40591 0.0
H2344 H 0.09729 0.44055 0.44402 0.0
H2345 H 0.14596 0.48525 0.41539 0.0
H2346 H 0.13939 0.48574 0.45937 0.0
H2347 H 0.13085 0.48587 0.41841 0.0
C2348 C 0.1064 0.48513 0.47599 0.0
C2349 C 0.09672 0.48373 0.45063 0.0
C2350 C 0.11159 0.47661 0.47477 0.0
C2351 C 0.1075 0.46688 0.44737 0.0
C2352 C 0.09708 0.46481 0.42395 0.0
H2353 H 0.15896 0.44236 0.35051 0.0
H2354 H 0.14401 0.45088 0.36346 0.0
C2355 C 0.09166 0.47311 0.42575 0.0
C2356 C 0.11489 0.45978 0.44055 0.0
H2357 H 0.14567 0.46497 0.41976 0.0
C2358 C 0.10788 0.44586 0.43874 0.0
C2359 C 0.12865 0.46675 0.43283 0.0
C2360 C 0.13663 0.48172 0.4312 0.0
C2361 C 0.11425 0.43873 0.42927 0.0
C2362 C 0.12808 0.44572 0.42262 0.0
C2363 C 0.13508 0.45961 0.4249 0.0
C2364 C 0.13562 0.43904 0.41232 0.0
C2365 C 0.10601 0.42387 0.42526 0.0
C2366 C 0.13565 0.4293 0.43491 0.0
C2367 C 0.14397 0.42418 0.42698 0.0
C2368 C 0.15265 0.42901 0.39695 0.0
C2369 C 0.15239 0.43851 0.37391 0.0
C2370 C 0.14387 0.44339 0.38134 0.0
H2371 H 0.09542 0.42063 0.42004 0.0
H2372 H 0.10972 0.42024 0.40258 0.0
H2373 H 0.10653 0.41912 0.45105 0.0
H2374 H 0.12965 0.42603 0.45948 0.0
H2375 H 0.1441 0.41695 0.44539 0.0
H2376 H 0.5243 0.60692 0.42525 0.0
H2377 H 0.54138 0.63039 0.42435 0.0
H2378 H 0.51377 0.64055 0.47233 0.0
H2379 H 0.49676 0.6172 0.47373 0.0
H2380 H 0.53812 0.64786 0.38314 0.0
H2381 H 0.54767 0.66559 0.52602 0.0
H2382 H 0.54 0.6482 0.51437 0.0
H2383 H 0.5302 0.65622 0.51701 0.0
C2384 C 0.522 0.61413 0.43658 0.0
C2385 C 0.50916 0.61024 0.44928 0.0
C2386 C 0.53177 0.62752 0.43605 0.0
C2387 C 0.52889 0.6372 0.44859 0.0
C2388 C 0.51632 0.63324 0.46329 0.0
H2389 H 0.53986 0.70861 0.37372 0.0
H2390 H 0.53505 0.68608 0.38644 0.0
C2391 C 0.50655 0.61988 0.46377 0.0
C2392 C 0.53808 0.65142 0.44106 0.0
H2393 H 0.55081 0.68206 0.47973 0.0
C2394 C 0.54122 0.65534 0.40439 0.0
C2395 C 0.54227 0.66118 0.46876 0.0
C2396 C 0.53998 0.65757 0.50877 0.0
C2397 C 0.54741 0.66873 0.39443 0.0
C2398 C 0.55039 0.67839 0.42181 0.0
C2399 C 0.54833 0.67459 0.45874 0.0
C2400 C 0.55395 0.69209 0.41232 0.0
C2401 C 0.55015 0.67241 0.35452 0.0
C2402 C 0.56614 0.70292 0.42296 0.0
C2403 C 0.56895 0.71587 0.41558 0.0
C2404 C 0.55949 0.71811 0.39803 0.0
C2405 C 0.54734 0.70721 0.38725 0.0
C2406 C 0.54461 0.69433 0.39431 0.0
H2407 H 0.55112 0.66477 0.33877 0.0
H2408 H 0.54176 0.67316 0.34274 0.0
H2409 H 0.55935 0.68214 0.35101 0.0
H2410 H 0.5734 0.70135 0.43718 0.0
H2411 H 0.57837 0.7241 0.42436 0.0
H2412 H 0.37743 0.87366 0.46969 0.0
H2413 H 0.35448 0.86854 0.46424 0.0
H2414 H 0.36771 0.90964 0.44146 0.0
H2415 H 0.39084 0.91487 0.44653 0.0
H2416 H 0.33899 0.87862 0.49814 0.0
H2417 H 0.347 0.88921 0.34854 0.0
H2418 H 0.35874 0.88737 0.3765 0.0
H2419 H 0.35761 0.90214 0.37978 0.0
C2420 C 0.37549 0.88166 0.46414 0.0
C2421 C 0.38593 0.89463 0.45804 0.0
C2422 C 0.36236 0.87873 0.46115 0.0
C2423 C 0.35944 0.88868 0.45193 0.0
C2424 C 0.3698 0.90181 0.44814 0.0
H2425 H 0.27321 0.85702 0.42404 0.0
H2426 H 0.29619 0.87377 0.43869 0.0
C2427 C 0.38298 0.90477 0.45118 0.0
C2428 C 0.34561 0.88485 0.44296 0.0
H2429 H 0.32511 0.87847 0.36967 0.0
C2430 C 0.33592 0.87887 0.47026 0.0
C2431 C 0.34172 0.88516 0.40645 0.0
C2432 C 0.35175 0.89124 0.37595 0.0
C2433 C 0.32237 0.87245 0.4616 0.0
C2434 C 0.3185 0.87213 0.42476 0.0
C2435 C 0.32818 0.87883 0.39788 0.0
C2436 C 0.30475 0.86307 0.4128 0.0
C2437 C 0.31231 0.86522 0.49137 0.0
C2438 C 0.30207 0.85179 0.39242 0.0
C2439 C 0.28906 0.84227 0.38406 0.0
C2440 C 0.27846 0.84388 0.3958 0.0
C2441 C 0.28119 0.85551 0.41471 0.0
C2442 C 0.29427 0.86504 0.42323 0.0
H2443 H 0.31705 0.86542 0.51794 0.0
H2444 H 0.30611 0.86989 0.49529 0.0
H2445 H 0.30564 0.85472 0.48336 0.0
H2446 H 0.31006 0.85012 0.38411 0.0
H2447 H 0.28729 0.83347 0.36929 0.0
H2448 H 0.28297 0.17282 0.19568 0.0
H2449 H 0.30638 0.1814 0.18156 0.0
H2450 H 0.30309 0.14458 0.21727 0.0
H2451 H 0.27971 0.13594 0.23198 0.0
H2452 H 0.32606 0.16727 0.24254 0.0
H2453 H 0.31931 0.16944 0.09266 0.0
H2454 H 0.31335 0.17822 0.1199 0.0
H2455 H 0.30555 0.16049 0.12356 0.0
C2456 C 0.28722 0.16655 0.20072 0.0
C2457 C 0.27942 0.15365 0.21471 0.0
C2458 C 0.30059 0.17146 0.19243 0.0
C2459 C 0.30638 0.16352 0.19773 0.0
C2460 C 0.29876 0.15082 0.21277 0.0
H2461 H 0.38309 0.17104 0.15463 0.0
H2462 H 0.36036 0.16373 0.17395 0.0
C2463 C 0.2854 0.14591 0.22113 0.0
C2464 C 0.32034 0.1684 0.18721 0.0
H2465 H 0.34136 0.17853 0.11398 0.0
C2466 C 0.32942 0.16971 0.21445 0.0
C2467 C 0.32465 0.17154 0.1505 0.0
C2468 C 0.3152 0.16975 0.11986 0.0
C2469 C 0.34278 0.17428 0.20601 0.0
C2470 C 0.34708 0.17742 0.16931 0.0
C2471 C 0.33801 0.17614 0.14211 0.0
C2472 C 0.36094 0.18194 0.15839 0.0
C2473 C 0.35223 0.17593 0.23649 0.0
C2474 C 0.36868 0.1945 0.14259 0.0
C2475 C 0.38166 0.19869 0.13135 0.0
C2476 C 0.38709 0.19035 0.13547 0.0
C2477 C 0.37925 0.17773 0.15119 0.0
C2478 C 0.36628 0.17357 0.16246 0.0
H2479 H 0.34819 0.17629 0.26376 0.0
H2480 H 0.35395 0.16738 0.23628 0.0
H2481 H 0.36194 0.18512 0.23271 0.0
H2482 H 0.36469 0.20107 0.13903 0.0
H2483 H 0.3874 0.20845 0.1193 0.0
H2484 H 0.83404 0.21417 0.11783 0.0
H2485 H 0.84428 0.20053 0.12819 0.0
H2486 H 0.80687 0.16522 0.10664 0.0
H2487 H 0.79651 0.17873 0.09606 0.0
H2488 H 0.83617 0.17987 0.18155 0.0
H2489 H 0.83364 0.16157 0.03971 0.0
H2490 H 0.83205 0.17588 0.0501 0.0
H2491 H 0.81828 0.15946 0.0572 0.0
C2492 C 0.82799 0.20351 0.11505 0.0
C2493 C 0.81445 0.19754 0.10603 0.0
C2494 C 0.83387 0.19575 0.121 0.0
C2495 C 0.82636 0.18191 0.1177 0.0
C2496 C 0.81287 0.17591 0.10868 0.0
H2497 H 0.8373 0.11512 0.152 0.0
H2498 H 0.82969 0.1306 0.13651 0.0
C2499 C 0.80696 0.18365 0.10285 0.0
C2500 C 0.83249 0.17369 0.1252 0.0
H2501 H 0.83952 0.15125 0.08643 0.0
C2502 C 0.83703 0.17369 0.16074 0.0
C2503 C 0.83354 0.16566 0.09791 0.0
C2504 C 0.82923 0.16568 0.05898 0.0
C2505 C 0.84222 0.1655 0.1701 0.0
C2506 C 0.84315 0.15735 0.1429 0.0
C2507 C 0.83879 0.15752 0.10719 0.0
C2508 C 0.84809 0.14815 0.15132 0.0
C2509 C 0.84622 0.1653 0.20929 0.0
C2510 C 0.86105 0.15291 0.16418 0.0
C2511 C 0.86544 0.14408 0.17328 0.0
C2512 C 0.85695 0.13032 0.16933 0.0
C2513 C 0.84409 0.12563 0.15549 0.0
C2514 C 0.83971 0.13447 0.14656 0.0
H2515 H 0.84194 0.16963 0.22826 0.0
H2516 H 0.84301 0.15502 0.21828 0.0
H2517 H 0.85718 0.17123 0.21158 0.0
H2518 H 0.86776 0.16347 0.1673 0.0
H2519 H 0.87543 0.14803 0.18358 0.0
H2520 H 0.81768 0.60957 0.10057 0.0
H2521 H 0.83188 0.63306 0.11524 0.0
H2522 H 0.7973 0.63687 0.13254 0.0
H2523 H 0.78299 0.61345 0.11751 0.0
H2524 H 0.81729 0.65747 0.09043 0.0
H2525 H 0.83739 0.64877 0.2188 0.0
H2526 H 0.83919 0.64074 0.17901 0.0
H2527 H 0.8229 0.63583 0.19613 0.0
C2528 C 0.81307 0.6154 0.10742 0.0
C2529 C 0.79918 0.60959 0.10809 0.0
C2530 C 0.82121 0.6288 0.11598 0.0
C2531 C 0.81562 0.63662 0.12556 0.0
C2532 C 0.80179 0.63096 0.12541 0.0
H2533 H 0.84587 0.71831 0.19233 0.0
H2534 H 0.83198 0.69512 0.17424 0.0
C2535 C 0.79364 0.61757 0.11684 0.0
C2536 C 0.82417 0.65071 0.13575 0.0
H2537 H 0.84692 0.67102 0.19879 0.0
C2538 C 0.82375 0.66045 0.11416 0.0
C2539 C 0.83256 0.65453 0.16674 0.0
C2540 C 0.833 0.64444 0.19175 0.0
C2541 C 0.83167 0.67398 0.12243 0.0
C2542 C 0.84005 0.67779 0.15346 0.0
C2543 C 0.84049 0.66804 0.17499 0.0
C2544 C 0.84844 0.69185 0.16416 0.0
C2545 C 0.83121 0.68407 0.09754 0.0
C2546 C 0.86227 0.69758 0.16529 0.0
C2547 C 0.87024 0.71081 0.17582 0.0
C2548 C 0.86451 0.71852 0.18563 0.0
C2549 C 0.85062 0.71269 0.18478 0.0
C2550 C 0.84266 0.69946 0.17424 0.0
H2551 H 0.82694 0.67978 0.07035 0.0
H2552 H 0.82489 0.68763 0.11019 0.0
H2553 H 0.84127 0.69276 0.09349 0.0
H2554 H 0.8669 0.69184 0.15781 0.0
H2555 H 0.8809 0.71496 0.17624 0.0
H2556 H 0.15644 0.3731 0.35625 0.0
H2557 H 0.14526 0.34915 0.3458 0.0
H2558 H 0.18255 0.35003 0.35717 0.0
H2559 H 0.19381 0.37391 0.36808 0.0
H2560 H 0.15018 0.33546 0.2905 0.0
H2561 H 0.15818 0.32066 0.42827 0.0
H2562 H 0.16035 0.33685 0.41894 0.0
H2563 H 0.17309 0.33312 0.40665 0.0
C2564 C 0.16227 0.3682 0.35669 0.0
C2565 C 0.17602 0.37542 0.36319 0.0
C2566 C 0.15586 0.35452 0.3507 0.0
C2567 C 0.16305 0.34782 0.35132 0.0
C2568 C 0.17678 0.35499 0.35738 0.0
H2569 H 0.14807 0.26886 0.30974 0.0
H2570 H 0.15725 0.29234 0.32399 0.0
C2571 C 0.1832 0.36866 0.36339 0.0
C2572 C 0.15629 0.33337 0.34452 0.0
H2573 H 0.15031 0.30404 0.38196 0.0
C2574 C 0.15009 0.32856 0.31058 0.0
C2575 C 0.15621 0.32443 0.37083 0.0
C2576 C 0.1622 0.32898 0.40836 0.0
C2577 C 0.14414 0.31505 0.30179 0.0
C2578 C 0.14424 0.30614 0.3279 0.0
C2579 C 0.15028 0.31092 0.36202 0.0
C2580 C 0.13848 0.29185 0.31991 0.0
C2581 C 0.13816 0.31047 0.26425 0.0
C2582 C 0.12485 0.28379 0.31345 0.0
C2583 C 0.11954 0.27035 0.30528 0.0
C2584 C 0.1278 0.26474 0.30356 0.0
C2585 C 0.14143 0.27285 0.31071 0.0
C2586 C 0.14671 0.28626 0.3189 0.0
H2587 H 0.14144 0.31888 0.24486 0.0
H2588 H 0.14085 0.30329 0.25278 0.0
H2589 H 0.12719 0.3054 0.26638 0.0
H2590 H 0.11831 0.2879 0.31474 0.0
H2591 H 0.109 0.26438 0.30009 0.0
H2592 H 0.61063 0.78004 0.34277 0.0
H2593 H 0.63385 0.79455 0.3257 0.0
H2594 H 0.62924 0.82879 0.33971 0.0
H2595 H 0.60607 0.81444 0.35707 0.0
H2596 H 0.64402 0.81327 0.26704 0.0
H2597 H 0.66195 0.83714 0.40275 0.0
H2598 H 0.64635 0.82195 0.39685 0.0
H2599 H 0.64774 0.83762 0.38557 0.0
C2600 C 0.61455 0.79066 0.3424 0.0
C2601 C 0.60649 0.79608 0.35147 0.0
C2602 C 0.62782 0.79892 0.33257 0.0
C2603 C 0.63327 0.81272 0.33192 0.0
C2604 C 0.62525 0.81816 0.34068 0.0
H2605 H 0.71001 0.88024 0.28289 0.0
H2606 H 0.68668 0.86515 0.2972 0.0
C2607 C 0.612 0.80993 0.35043 0.0
C2608 C 0.64729 0.82145 0.32142 0.0
H2609 H 0.67692 0.84636 0.353 0.0
C2610 C 0.65125 0.82047 0.28583 0.0
C2611 C 0.65665 0.83081 0.34606 0.0
C2612 C 0.65303 0.83191 0.38506 0.0
C2613 C 0.66431 0.82884 0.27392 0.0
C2614 C 0.67366 0.83826 0.29852 0.0
C2615 C 0.6697 0.83916 0.33418 0.0
C2616 C 0.68762 0.84729 0.28795 0.0
C2617 C 0.66791 0.82777 0.23488 0.0
C2618 C 0.69588 0.84223 0.27803 0.0
C2619 C 0.70922 0.85082 0.26972 0.0
C2620 C 0.71457 0.86464 0.27149 0.0
C2621 C 0.70623 0.86966 0.28121 0.0
C2622 C 0.69289 0.86106 0.28944 0.0
H2623 H 0.65897 0.82259 0.21722 0.0
H2624 H 0.67461 0.83773 0.22314 0.0
H2625 H 0.67315 0.82202 0.23424 0.0
H2626 H 0.69206 0.83163 0.27742 0.0
H2627 H 0.71537 0.84661 0.26254 0.0
H2628 H 0.21543 0.83243 0.34501 0.0
H2629 H 0.20071 0.84049 0.32499 0.0
H2630 H 0.1667 0.80221 0.34786 0.0
H2631 H 0.18135 0.79395 0.36734 0.0
H2632 H 0.16552 0.81207 0.28 0.0
H2633 H 0.17789 0.85009 0.38789 0.0
H2634 H 0.19203 0.85181 0.36341 0.0
H2635 H 0.18242 0.8374 0.39135 0.0
C2636 C 0.20482 0.82573 0.34608 0.0
C2637 C 0.19957 0.81255 0.35791 0.0
C2638 C 0.19642 0.83039 0.33478 0.0
C2639 C 0.18262 0.822 0.33546 0.0
C2640 C 0.17734 0.80885 0.34729 0.0
H2641 H 0.11403 0.82893 0.28345 0.0
H2642 H 0.12951 0.8214 0.3 0.0
C2643 C 0.18573 0.80416 0.35847 0.0
C2644 C 0.17369 0.8268 0.32264 0.0
H2645 H 0.16456 0.85003 0.33864 0.0
C2646 C 0.16527 0.82034 0.29289 0.0
C2647 C 0.17343 0.83761 0.33947 0.0
C2648 C 0.18183 0.84457 0.37251 0.0
C2649 C 0.15666 0.82448 0.27928 0.0
C2650 C 0.15639 0.83527 0.29615 0.0
C2651 C 0.16487 0.8418 0.32571 0.0
C2652 C 0.14705 0.83966 0.28436 0.0
C2653 C 0.14804 0.81741 0.24669 0.0
C2654 C 0.15183 0.85247 0.27037 0.0
C2655 C 0.14301 0.85684 0.26085 0.0
C2656 C 0.12926 0.84849 0.26558 0.0
C2657 C 0.12454 0.83561 0.27936 0.0
C2658 C 0.13336 0.83125 0.28869 0.0
H2659 H 0.15171 0.8116 0.23155 0.0
H2660 H 0.13782 0.81043 0.25625 0.0
H2661 H 0.14756 0.82457 0.22756 0.0
H2662 H 0.16239 0.85912 0.26703 0.0
H2663 H 0.14698 0.86682 0.25045 0.0
H2664 H 0.72069 0.87248 0.78516 0.0
H2665 H 0.69746 0.8644 0.80078 0.0
H2666 H 0.69218 0.8258 0.82482 0.0
H2667 H 0.71541 0.83379 0.80985 0.0
H2668 H 0.67502 0.84384 0.76865 0.0
H2669 H 0.67731 0.83385 0.9161 0.0
H2670 H 0.69198 0.84372 0.88896 0.0
H2671 H 0.68359 0.82591 0.88665 0.0
C2672 C 0.71462 0.86229 0.79399 0.0
C2673 C 0.71994 0.8538 0.79641 0.0
C2674 C 0.70135 0.8577 0.80288 0.0
C2675 C 0.69318 0.84458 0.8145 0.0
C2676 C 0.69841 0.83605 0.81671 0.0
H2677 H 0.61045 0.79387 0.86475 0.0
H2678 H 0.63412 0.80371 0.85185 0.0
C2679 C 0.71168 0.84063 0.80792 0.0
C2680 C 0.67904 0.83964 0.82304 0.0
H2681 H 0.65574 0.82517 0.89023 0.0
C2682 C 0.67081 0.83986 0.79532 0.0
C2683 C 0.67361 0.83447 0.85787 0.0
C2684 C 0.68209 0.83457 0.88923 0.0
C2685 C 0.65719 0.8347 0.80118 0.0
C2686 C 0.65174 0.82934 0.83581 0.0
C2687 C 0.65998 0.82926 0.86367 0.0
C2688 C 0.63742 0.82352 0.8435 0.0
C2689 C 0.64867 0.83467 0.77003 0.0
C2690 C 0.63151 0.83146 0.84342 0.0
C2691 C 0.61798 0.82589 0.85082 0.0
C2692 C 0.61014 0.81227 0.85852 0.0
C2693 C 0.61617 0.80438 0.85883 0.0
C2694 C 0.62969 0.80997 0.85152 0.0
H2695 H 0.65382 0.83654 0.74324 0.0
H2696 H 0.63924 0.82505 0.76862 0.0
H2697 H 0.64617 0.84259 0.77464 0.0
H2698 H 0.63738 0.84199 0.83784 0.0
H2699 H 0.61368 0.83226 0.85049 0.0
H2700 H 0.16234 0.77919 0.82678 0.0
H2701 H 0.15339 0.79338 0.80874 0.0
H2702 H 0.19075 0.82808 0.83501 0.0
H2703 H 0.19988 0.81402 0.85253 0.0
H2704 H 0.15064 0.8115 0.85112 0.0
H2705 H 0.1834 0.83642 0.73233 0.0
H2706 H 0.18193 0.82165 0.75293 0.0
H2707 H 0.19233 0.83761 0.77353 0.0
C2708 C 0.1687 0.78984 0.82851 0.0
C2709 C 0.18186 0.79547 0.84096 0.0
C2710 C 0.16355 0.79793 0.81819 0.0
C2711 C 0.17147 0.81177 0.81999 0.0
C2712 C 0.18457 0.81742 0.83261 0.0
H2713 H 0.16148 0.87948 0.79523 0.0
H2714 H 0.16895 0.86362 0.80698 0.0
C2715 C 0.18975 0.80936 0.84283 0.0
C2716 C 0.16589 0.82031 0.81004 0.0
H2717 H 0.1707 0.84591 0.75451 0.0
C2718 C 0.15492 0.81893 0.82975 0.0
C2719 C 0.17151 0.82997 0.78209 0.0
C2720 C 0.18286 0.83144 0.75874 0.0
C2721 C 0.14968 0.82727 0.82305 0.0
C2722 C 0.1555 0.83712 0.79569 0.0
C2723 C 0.16631 0.83835 0.77556 0.0
C2724 C 0.15079 0.84656 0.78839 0.0
C2725 C 0.13824 0.82579 0.84603 0.0
C2726 C 0.13814 0.84219 0.77374 0.0
C2727 C 0.13381 0.85124 0.7669 0.0
C2728 C 0.1421 0.8648 0.7746 0.0
C2729 C 0.15482 0.86911 0.78909 0.0
C2730 C 0.15913 0.86008 0.79577 0.0
H2731 H 0.13657 0.81946 0.87046 0.0
H2732 H 0.14002 0.83563 0.85526 0.0
H2733 H 0.12906 0.82114 0.8293 0.0
H2734 H 0.13164 0.83181 0.76742 0.0
H2735 H 0.12399 0.84759 0.75564 0.0
H2736 H 0.18066 0.39235 0.87411 0.0
H2737 H 0.16636 0.36874 0.86083 0.0
H2738 H 0.20076 0.36415 0.85148 0.0
H2739 H 0.21515 0.38767 0.865 0.0
H2740 H 0.16691 0.35515 0.79706 0.0
H2741 H 0.17649 0.33438 0.92254 0.0
H2742 H 0.18048 0.35146 0.91919 0.0
H2743 H 0.19118 0.34625 0.89877 0.0
C2744 C 0.1852 0.38631 0.86953 0.0
C2745 C 0.19906 0.39191 0.87074 0.0
C2746 C 0.177 0.37283 0.86189 0.0
C2747 C 0.18251 0.36469 0.85565 0.0
C2748 C 0.19632 0.37022 0.8569 0.0
H2749 H 0.15384 0.28323 0.79518 0.0
H2750 H 0.16686 0.30667 0.81153 0.0
C2751 C 0.20452 0.38369 0.86445 0.0
C2752 C 0.17386 0.35052 0.84641 0.0
H2753 H 0.1649 0.31919 0.87444 0.0
C2754 C 0.16637 0.34727 0.81408 0.0
C2755 C 0.17323 0.3403 0.86868 0.0
C2756 C 0.18067 0.34322 0.90441 0.0
C2757 C 0.15852 0.33403 0.80287 0.0
C2758 C 0.15798 0.3238 0.82499 0.0
C2759 C 0.16536 0.32706 0.85752 0.0
C2760 C 0.14998 0.30965 0.81461 0.0
C2761 C 0.15119 0.33113 0.76694 0.0
C2762 C 0.13615 0.30354 0.81121 0.0
C2763 C 0.12866 0.29014 0.80175 0.0
C2764 C 0.13487 0.28258 0.79579 0.0
C2765 C 0.14873 0.28874 0.79949 0.0
C2766 C 0.1562 0.30214 0.80888 0.0
H2767 H 0.15521 0.34006 0.74919 0.0
H2768 H 0.15172 0.32313 0.75182 0.0
H2769 H 0.14059 0.32777 0.77234 0.0
H2770 H 0.13113 0.3091 0.81624 0.0
H2771 H 0.11801 0.28569 0.79937 0.0
H2772 H 0.8695 0.71973 0.71207 0.0
H2773 H 0.86037 0.69609 0.69989 0.0
H2774 H 0.82201 0.69187 0.67879 0.0
H2775 H 0.83096 0.71544 0.69131 0.0
H2776 H 0.82137 0.67219 0.72521 0.0
H2777 H 0.85037 0.67829 0.59865 0.0
H2778 H 0.8601 0.68712 0.63786 0.0
H2779 H 0.84877 0.69166 0.61828 0.0
C2780 C 0.85912 0.71379 0.70479 0.0
C2781 C 0.85098 0.7195 0.70251 0.0
C2782 C 0.85395 0.7003 0.69766 0.0
C2783 C 0.84058 0.6923 0.68794 0.0
C2784 C 0.83238 0.69791 0.6861 0.0
H2785 H 0.78886 0.60982 0.63064 0.0
H2786 H 0.7983 0.63318 0.64698 0.0
C2787 C 0.83753 0.71139 0.69322 0.0
C2788 C 0.83505 0.67803 0.6801 0.0
H2789 H 0.83747 0.65647 0.62161 0.0
C2790 C 0.82485 0.66873 0.70253 0.0
C2791 C 0.83966 0.67359 0.65051 0.0
C2792 C 0.85025 0.68316 0.62469 0.0
C2793 C 0.81922 0.65507 0.69642 0.0
C2794 C 0.82378 0.65063 0.66672 0.0
C2795 C 0.83403 0.65993 0.6444 0.0
C2796 C 0.81795 0.63638 0.65797 0.0
C2797 C 0.8086 0.64549 0.72215 0.0
C2798 C 0.82594 0.63052 0.65813 0.0
C2799 C 0.82061 0.61719 0.64859 0.0
C2800 C 0.80719 0.6095 0.6385 0.0
C2801 C 0.79921 0.61542 0.63846 0.0
C2802 C 0.80456 0.62876 0.64798 0.0
H2803 H 0.80873 0.65028 0.74858 0.0
H2804 H 0.79874 0.64187 0.70937 0.0
H2805 H 0.80982 0.63679 0.72778 0.0
H2806 H 0.83632 0.63628 0.66558 0.0
H2807 H 0.82705 0.61297 0.64887 0.0
H2808 H 0.27721 0.11252 0.66585 0.0
H2809 H 0.30003 0.12752 0.64664 0.0
H2810 H 0.29666 0.16108 0.68167 0.0
H2811 H 0.27374 0.14617 0.70074 0.0
H2812 H 0.30787 0.16361 0.61058 0.0
H2813 H 0.33214 0.14817 0.71504 0.0
H2814 H 0.31933 0.13481 0.68901 0.0
H2815 H 0.31514 0.14439 0.71903 0.0
C2816 C 0.28131 0.12308 0.66962 0.0
C2817 C 0.27365 0.12814 0.685 0.0
C2818 C 0.29437 0.13163 0.65876 0.0
C2819 C 0.30005 0.14537 0.66321 0.0
C2820 C 0.29244 0.15048 0.6782 0.0
H2821 H 0.3768 0.2136 0.61534 0.0
H2822 H 0.35354 0.19865 0.63054 0.0
C2823 C 0.27936 0.14194 0.68914 0.0
C2824 C 0.31388 0.15442 0.65162 0.0
H2825 H 0.3459 0.1625 0.66816 0.0
C2826 C 0.31621 0.16343 0.62321 0.0
C2827 C 0.32469 0.15409 0.66817 0.0
C2828 C 0.32277 0.14493 0.69972 0.0
C2829 C 0.3291 0.17201 0.61044 0.0
C2830 C 0.33991 0.17169 0.62701 0.0
C2831 C 0.33757 0.16267 0.65543 0.0
C2832 C 0.35379 0.18078 0.61582 0.0
C2833 C 0.33101 0.18115 0.57887 0.0
C2834 C 0.36168 0.17566 0.60293 0.0
C2835 C 0.37502 0.18417 0.59442 0.0
C2836 C 0.38073 0.19796 0.59888 0.0
C2837 C 0.37272 0.20305 0.61139 0.0
C2838 C 0.35939 0.19452 0.61992 0.0
H2839 H 0.3217 0.17772 0.56309 0.0
H2840 H 0.33411 0.1912 0.58964 0.0
H2841 H 0.33885 0.18194 0.55998 0.0
H2842 H 0.35754 0.16506 0.59976 0.0
H2843 H 0.38089 0.17991 0.58491 0.0
H2844 H 0.88422 0.17267 0.70244 0.0
H2845 H 0.86887 0.18079 0.69063 0.0
H2846 H 0.83584 0.14237 0.71795 0.0
H2847 H 0.85112 0.13419 0.73044 0.0
H2848 H 0.8492 0.171 0.63826 0.0
H2849 H 0.82769 0.16729 0.77634 0.0
H2850 H 0.84265 0.16656 0.7691 0.0
H2851 H 0.82671 0.15223 0.76049 0.0
C2852 C 0.8737 0.16597 0.70642 0.0
C2853 C 0.86891 0.15277 0.71741 0.0
C2854 C 0.86495 0.17064 0.69962 0.0
C2855 C 0.85124 0.16223 0.70378 0.0
C2856 C 0.84641 0.14911 0.7153 0.0
H2857 H 0.78289 0.17042 0.65107 0.0
H2858 H 0.79779 0.16229 0.66937 0.0
C2859 C 0.85516 0.14443 0.72225 0.0
C2860 C 0.84199 0.16697 0.69373 0.0
H2861 H 0.81741 0.17198 0.72687 0.0
C2862 C 0.8423 0.17128 0.65768 0.0
C2863 C 0.83295 0.16725 0.71909 0.0
C2864 C 0.83252 0.1632 0.75851 0.0
C2865 C 0.83372 0.17575 0.64617 0.0
C2866 C 0.82473 0.17608 0.67155 0.0
C2867 C 0.82433 0.1717 0.70753 0.0
C2868 C 0.81574 0.1811 0.66122 0.0
C2869 C 0.83419 0.17987 0.60679 0.0
C2870 C 0.82094 0.1944 0.65112 0.0
C2871 C 0.81248 0.19909 0.64068 0.0
C2872 C 0.79865 0.19055 0.64024 0.0
C2873 C 0.79349 0.17725 0.65095 0.0
C2874 C 0.80197 0.17259 0.66148 0.0
H2875 H 0.83928 0.17606 0.589 0.0
H2876 H 0.82403 0.17626 0.59598 0.0
H2877 H 0.83971 0.19086 0.60507 0.0
H2878 H 0.83155 0.20117 0.65133 0.0
H2879 H 0.81681 0.2094 0.63278 0.0
H2880 H 0.04692 0.53037 0.4097 0.0
H2881 H 0.02381 0.52258 0.42621 0.0
H2882 H 0.01955 0.48548 0.46309 0.0
H2883 H 0.04264 0.49317 0.44706 0.0
H2884 H -0.00034 0.49949 0.40439 0.0
H2885 H 0.00954 0.50003 0.5534 0.0
H2886 H 0.02264 0.50826 0.52014 0.0
H2887 H 0.01469 0.49059 0.52597 0.0
C2888 C 0.04105 0.5205 0.42101 0.0
C2889 C 0.04669 0.51245 0.4274 0.0
C2890 C 0.02785 0.51608 0.43043 0.0
C2891 C 0.02009 0.50357 0.44649 0.0
C2892 C 0.02548 0.49528 0.45139 0.0
H2893 H 0.94069 0.46192 0.53763 0.0
H2894 H 0.96313 0.46866 0.51656 0.0
C2895 C 0.03867 0.49967 0.44201 0.0
C2896 C 0.00647 0.49934 0.45905 0.0
H2897 H 0.98716 0.49122 0.53562 0.0
C2898 C -0.0031 0.4977 0.43306 0.0
C2899 C 0.00297 0.49704 0.4965 0.0
C2900 C 0.013 0.49917 0.52573 0.0
C2901 C 0.98381 0.4936 0.4435 0.0
C2902 C 0.98031 0.49133 0.48097 0.0
C2903 C 0.98988 0.49295 0.50692 0.0
C2904 C 0.96678 0.48736 0.4939 0.0
C2905 C 0.97377 0.49149 0.4143 0.0
C2906 C 0.96154 0.49577 0.48877 0.0
C2907 C 0.94873 0.49197 0.50076 0.0
C2908 C 0.94096 0.47969 0.51834 0.0
C2909 C 0.94638 0.47142 0.52414 0.0
C2910 C 0.95919 0.47524 0.5121 0.0
H2911 H 0.9771 0.49029 0.38677 0.0
H2912 H 0.96403 0.4826 0.42034 0.0
H2913 H 0.97238 0.50024 0.41339 0.0
H2914 H 0.96736 0.5053 0.47552 0.0
H2915 H 0.94491 0.49862 0.49603 0.0
H2916 H 0.46163 0.51441 0.40205 0.0
H2917 H 0.47012 0.49938 0.41523 0.0
H2918 H 0.50797 0.53273 0.4452 0.0
H2919 H 0.4996 0.54781 0.43256 0.0
H2920 H 0.49269 0.49831 0.38813 0.0
H2921 H 0.4961 0.50898 0.53715 0.0
H2922 H 0.4869 0.51344 0.50608 0.0
H2923 H 0.50466 0.52343 0.50874 0.0
C2924 C 0.4718 0.51856 0.41111 0.0
C2925 C 0.47989 0.5323 0.41666 0.0
C2926 C 0.47662 0.50996 0.41862 0.0
C2927 C 0.48957 0.51495 0.43185 0.0
C2928 C 0.49785 0.52868 0.43572 0.0
H2929 H 0.53655 0.48181 0.51183 0.0
H2930 H 0.52817 0.49612 0.49039 0.0
C2931 C 0.49306 0.53728 0.42833 0.0
C2932 C 0.49431 0.50582 0.44286 0.0
H2933 H 0.50546 0.49617 0.51646 0.0
C2934 C 0.49543 0.49777 0.41618 0.0
C2935 C 0.49781 0.50514 0.47954 0.0
C2936 C 0.49621 0.51311 0.50965 0.0
C2937 C 0.50033 0.48927 0.42509 0.0
C2938 C 0.50397 0.48872 0.4617 0.0
C2939 C 0.50272 0.49668 0.48839 0.0
C2940 C 0.50914 0.47997 0.47309 0.0
C2941 C 0.50185 0.4812 0.39517 0.0
C2942 C 0.50115 0.46615 0.47067 0.0
C2943 C 0.5059 0.45792 0.48292 0.0
C2944 C 0.5187 0.46339 0.49801 0.0
C2945 C 0.52666 0.47726 0.50035 0.0
C2946 C 0.5219 0.48546 0.4881 0.0
H2947 H 0.50166 0.48508 0.36754 0.0
H2948 H 0.51128 0.48108 0.39836 0.0
H2949 H 0.49354 0.47082 0.39683 0.0
H2950 H 0.49117 0.46171 0.45984 0.0
H2951 H 0.49948 0.44728 0.48082 0.0
H2952 H 0.51733 0.04857 0.5689 0.0
H2953 H 0.50261 0.02509 0.55523 0.0
H2954 H 0.53564 0.02249 0.51156 0.0
H2955 H 0.55049 0.04588 0.52557 0.0
H2956 H 0.49803 0.01406 0.48587 0.0
H2957 H 0.51766 0.98995 0.57773 0.0
H2958 H 0.52164 0.00695 0.5836 0.0
H2959 H 0.53004 0.00276 0.5494 0.0
C2960 C 0.52152 0.04297 0.55689 0.0
C2961 C 0.5351 0.04913 0.54831 0.0
C2962 C 0.51308 0.02956 0.54907 0.0
C2963 C 0.51806 0.02203 0.53275 0.0
C2964 C 0.53164 0.02805 0.52485 0.0
H2965 H 0.48276 0.94322 0.4388 0.0
H2966 H 0.49774 0.96599 0.45893 0.0
C2967 C 0.5401 0.04146 0.5327 0.0
C2968 C 0.50889 0.00816 0.52152 0.0
H2969 H 0.5023 0.9763 0.53202 0.0
C2970 C 0.49889 0.00578 0.49616 0.0
C2971 C 0.51012 0.99742 0.53484 0.0
C2972 C 0.52036 -0.00066 0.56315 0.0
C2973 C 0.49019 0.99296 0.48326 0.0
C2974 C 0.49143 0.98222 0.49652 0.0
C2975 C 0.50142 0.98458 0.52189 0.0
C2976 C 0.48235 0.96845 0.48453 0.0
C2977 C 0.47993 0.99103 0.45496 0.0
C2978 C 0.46878 0.96228 0.49261 0.0
C2979 C 0.46019 0.9493 0.48114 0.0
C2980 C 0.46504 0.94221 0.46149 0.0
C2981 C 0.47869 0.9484 0.45372 0.0
C2982 C 0.48727 0.9614 0.46527 0.0
H2983 H 0.48236 0.00049 0.44123 0.0
H2984 H 0.47902 0.98377 0.43381 0.0
H2985 H 0.47015 0.98711 0.46851 0.0
H2986 H 0.46484 0.9675 0.50798 0.0
H2987 H 0.44976 0.94482 0.4878 0.0
H2988 H 0.49671 0.05074 -0.00727 0.0
H2989 H 0.48858 0.0277 0.97469 0.0
H2990 H 0.52443 0.03015 0.01591 0.0
H2991 H 0.5326 0.0531 0.03446 0.0
H2992 H 0.50033 0.01783 0.92619 0.0
H2993 H 0.49508 0.99678 0.06552 0.0
H2994 H 0.49695 0.01293 0.05752 0.0
H2995 H 0.51118 0.01074 0.05626 0.0
C2996 C 0.50285 0.04637 -0.00183 0.0
C2997 C 0.51529 0.05376 0.01522 0.0
C2998 C 0.49818 0.03321 0.98778 0.0
C2999 C 0.50583 0.02719 -0.00557 0.0
C3000 C 0.51827 0.03454 0.0112 0.0
H3001 H 0.4981 0.95069 0.95309 0.0
H3002 H 0.50579 0.9739 0.96745 0.0
C3003 C 0.52295 0.04769 0.02162 0.0
C3004 C 0.50094 0.01331 0.98305 0.0
H3005 H 0.49302 0.98277 0.01567 0.0
C3006 C 0.49865 0.01013 0.94572 0.0
C3007 C 0.49876 0.00332 0.00867 0.0
C3008 C 0.50049 0.00604 0.04927 0.0
C3009 C 0.49452 0.99724 0.93318 0.0
C3010 C 0.49249 0.98729 0.95877 0.0
C3011 C 0.49467 0.99046 -0.00388 0.0
C3012 C 0.4881 0.9735 0.94753 0.0
C3013 C 0.4927 0.99445 0.89263 0.0
C3014 C 0.47562 0.96561 0.93139 0.0
C3015 C 0.47118 0.95232 0.92306 0.0
C3016 C 0.47912 0.94667 0.93099 0.0
C3017 C 0.49173 0.9547 0.94659 0.0
C3018 C 0.49614 0.96797 0.95489 0.0
H3019 H 0.49769 0.00372 0.87622 0.0
H3020 H 0.49665 0.98792 0.88423 0.0
H3021 H 0.48196 0.98929 0.88604 0.0
H3022 H 0.46917 0.96964 0.92609 0.0
H3023 H 0.46141 0.94642 0.91122 0.0
H3024 H 0.9475 0.44658 0.02172 0.0
H3025 H 0.97089 0.46234 0.00978 0.0
H3026 H 0.96415 0.49492 0.03091 0.0
H3027 H 0.9407 0.47925 0.04314 0.0
H3028 H 0.97812 0.49537 0.96116 0.0
H3029 H -0.00023 0.48726 0.08762 0.0
H3030 H 0.98763 0.47265 0.06388 0.0
H3031 H 0.98272 0.48345 0.08496 0.0
C3032 C 0.95098 0.45709 0.02404 0.0
C3033 C 0.94223 0.46166 0.03341 0.0
C3034 C 0.96435 0.46606 0.01735 0.0
C3035 C 0.9692 0.47973 0.01976 0.0
C3036 C 0.96055 0.48437 0.02911 0.0
H3037 H 0.04916 0.54651 -0.00212 0.0
H3038 H 0.02595 0.53171 0.01472 0.0
C3039 C 0.94718 0.4754 0.03614 0.0
C3040 C 0.98321 0.48919 0.01115 0.0
H3041 H 0.01485 0.50055 0.04129 0.0
C3042 C 0.98616 0.49657 0.97872 0.0
C3043 C 0.99361 0.49069 0.03425 0.0
C3044 C 0.99086 0.48318 0.0698 0.0
C3045 C -0.00067 0.50527 0.96839 0.0
C3046 C 0.00971 0.5066 -0.00883 0.0
C3047 C 0.00679 0.4994 0.02391 0.0
C3048 C 0.0237 0.51542 0.9812 0.0
C3049 C 0.00216 0.51297 0.93316 0.0
C3050 C 0.03002 0.51103 0.95696 0.0
C3051 C 0.04328 0.51941 0.94736 0.0
C3052 C 0.05039 0.53233 0.96179 0.0
C3053 C 0.04397 0.53664 0.98619 0.0
C3054 C 0.03073 0.52822 -0.00409 0.0
H3055 H 0.99296 0.51148 0.91967 0.0
H3056 H 0.00875 0.52372 0.93857 0.0
H3057 H 0.00745 0.5098 0.91402 0.0
H3058 H 0.02468 0.50114 0.94545 0.0
H3059 H 0.04792 0.51578 0.92848 0.0
H3060 H 0.54306 0.49933 0.07353 0.0
H3061 H 0.52821 0.50821 0.06293 0.0
H3062 H 0.50082 0.47212 0.00669 0.0
H3063 H 0.51517 0.4629 0.01965 0.0
H3064 H 0.52111 0.51457 0.00512 0.0
H3065 H 0.47508 0.47542 0.06823 0.0
H3066 H 0.4907 0.47592 0.07379 0.0
H3067 H 0.48059 0.46834 0.03379 0.0
C3068 C 0.53374 0.49324 0.05948 0.0
C3069 C 0.53015 0.48039 0.04778 0.0
C3070 C 0.52528 0.49832 0.05333 0.0
C3071 C 0.51321 0.49075 0.03465 0.0
C3072 C 0.50977 0.47798 0.02243 0.0
H3073 H 0.4737 0.52575 0.91619 0.0
H3074 H 0.48814 0.51736 0.93656 0.0
C3075 C 0.51803 0.47275 0.02957 0.0
C3076 C 0.50464 0.49651 0.02605 0.0
H3077 H 0.4725 0.48958 0.02512 0.0
C3078 C 0.5105 0.50916 0.01002 0.0
C3079 C 0.49082 0.48964 0.03301 0.0
C3080 C 0.48399 0.47666 0.05354 0.0
C3081 C 0.50292 0.51498 -0.0 0.0
C3082 C 0.48897 0.50766 0.00431 0.0
C3083 C 0.48315 0.49515 0.02117 0.0
C3084 C 0.48018 0.51273 -0.00835 0.0
C3085 C 0.51008 0.52903 0.98572 0.0
C3086 C 0.47042 0.51234 0.01511 0.0
C3087 C 0.46181 0.51663 0.00297 0.0
C3088 C 0.46299 0.52165 0.9674 0.0
C3089 C 0.47275 0.5221 0.94394 0.0
C3090 C 0.48109 0.51743 0.95572 0.0
H3091 H 0.52036 0.53463 -0.00344 0.0
H3092 H 0.51077 0.52884 0.95546 0.0
H3093 H 0.50483 0.53445 -0.00679 0.0
H3094 H 0.46945 0.50872 0.0429 0.0
H3095 H 0.45437 0.51621 0.02159 0.0
loop_
_geom_bond_atom_site_label_1
_geom_bond_atom_site_label_2
_geom_bond_distance
_geom_bond_site_symmetry_2
_ccdc_geom_bond_type
C0 O1 1.306 . S
C0 O3 1.160 . S
O1 C0 1.306 . S
O1 Cd2 2.228 . S
Cd2 O1 2.228 . S
Cd2 O6 2.273 . S
Cd2 O10 2.277 . S
O3 C0 1.160 . S
O3 Cd4 2.203 . S
Cd4 O3 2.203 . S
Cd4 O6 2.411 . S
Cd4 O7 2.333 . S
Cd4 O8 2.352 . S
Cd4 O12 2.277 . S
Cd4 O13 2.356 . S
C5 O10 1.209 . S
C5 O12 1.226 . S
O6 Cd2 2.273 . S
O6 Cd4 2.411 . S
O6 C9 1.320 . S
O7 Cd4 2.333 . S
O7 C9 1.214 . S
O8 Cd4 2.352 . S
O8 C11 1.258 . S
C9 O6 1.320 . S
C9 O7 1.214 . S
O10 Cd2 2.277 . S
O10 C5 1.209 . S
C11 O8 1.258 . S
C11 O13 1.282 . S
O12 Cd4 2.277 . S
O12 C5 1.226 . S
O13 Cd4 2.356 . S
O13 C11 1.282 . S
C14 O15 1.306 . S
C14 O17 1.160 . S
O15 C14 1.306 . S
O15 Cd16 2.228 . S
Cd16 O15 2.228 . S
Cd16 O20 2.273 . S
Cd16 O24 2.277 . S
O17 C14 1.160 . S
O17 Cd18 2.203 . S
Cd18 O17 2.203 . S
Cd18 O20 2.411 . S
Cd18 O21 2.333 . S
Cd18 O22 2.352 . S
Cd18 O26 2.277 . S
Cd18 O27 2.356 . S
C19 O24 1.209 . S
C19 O26 1.226 . S
O20 Cd16 2.273 . S
O20 Cd18 2.411 . S
O20 C23 1.320 . S
O21 Cd18 2.333 . S
O21 C23 1.214 . S
O22 Cd18 2.352 . S
O22 C25 1.258 . S
C23 O20 1.320 . S
C23 O21 1.214 . S
O24 Cd16 2.277 . S
O24 C19 1.209 . S
C25 O22 1.258 . S
C25 O27 1.282 . S
O26 Cd18 2.277 . S
O26 C19 1.226 . S
O27 Cd18 2.356 . S
O27 C25 1.282 . S
C28 O29 1.306 . S
C28 O31 1.160 . S
O29 C28 1.306 . S
O29 Cd30 2.228 . S
Cd30 O29 2.228 . S
Cd30 O34 2.273 . S
Cd30 O38 2.277 . S
O31 C28 1.160 . S
O31 Cd32 2.203 . S
Cd32 O31 2.203 . S
Cd32 O34 2.411 . S
Cd32 O35 2.333 . S
Cd32 O36 2.352 . S
Cd32 O40 2.277 . S
Cd32 O41 2.356 . S
C33 O38 1.209 . S
C33 O40 1.226 . S
O34 Cd30 2.273 . S
O34 Cd32 2.411 . S
O34 C37 1.320 . S
O35 Cd32 2.333 . S
O35 C37 1.214 . S
O36 Cd32 2.352 . S
O36 C39 1.258 . S
C37 O34 1.320 . S
C37 O35 1.214 . S
O38 Cd30 2.277 . S
O38 C33 1.209 . S
C39 O36 1.258 . S
C39 O41 1.282 . S
O40 Cd32 2.277 . S
O40 C33 1.226 . S
O41 Cd32 2.356 . S
O41 C39 1.282 . S
C42 O43 1.306 . S
C42 O45 1.160 . S
O43 C42 1.306 . S
O43 Cd44 2.228 . S
Cd44 O43 2.228 . S
Cd44 O48 2.273 . S
Cd44 O52 2.277 . S
O45 C42 1.160 . S
O45 Cd46 2.203 . S
Cd46 O45 2.203 . S
Cd46 O48 2.411 . S
Cd46 O49 2.333 . S
Cd46 O50 2.352 . S
Cd46 O54 2.277 . S
Cd46 O55 2.356 . S
C47 O52 1.209 . S
C47 O54 1.226 . S
O48 Cd44 2.273 . S
O48 Cd46 2.411 . S
O48 C51 1.320 . S
O49 Cd46 2.333 . S
O49 C51 1.214 . S
O50 Cd46 2.352 . S
O50 C53 1.258 . S
C51 O48 1.320 . S
C51 O49 1.214 . S
O52 Cd44 2.277 . S
O52 C47 1.209 . S
C53 O50 1.258 . S
C53 O55 1.282 . S
O54 Cd46 2.277 . S
O54 C47 1.226 . S
O55 Cd46 2.356 . S
O55 C53 1.282 . S
C56 O57 1.306 . S
C56 O59 1.160 . S
O57 C56 1.306 . S
O57 Cd58 2.228 . S
Cd58 O57 2.228 . S
Cd58 O62 2.273 . S
Cd58 O66 2.277 . S
O59 C56 1.160 . S
O59 Cd60 2.203 . S
Cd60 O59 2.203 . S
Cd60 O62 2.411 . S
Cd60 O63 2.333 . S
Cd60 O64 2.352 . S
Cd60 O68 2.277 . S
Cd60 O69 2.356 . S
C61 O66 1.209 . S
C61 O68 1.226 . S
O62 Cd58 2.273 . S
O62 Cd60 2.411 . S
O62 C65 1.320 . S
O63 Cd60 2.333 . S
O63 C65 1.214 . S
O64 Cd60 2.352 . S
O64 C67 1.258 . S
C65 O62 1.320 . S
C65 O63 1.214 . S
O66 Cd58 2.277 . S
O66 C61 1.209 . S
C67 O64 1.258 . S
C67 O69 1.282 . S
O68 Cd60 2.277 . S
O68 C61 1.226 . S
O69 Cd60 2.356 . S
O69 C67 1.282 . S
C70 O71 1.306 . S
C70 O73 1.160 . S
O71 C70 1.306 . S
O71 Cd72 2.228 . S
Cd72 O71 2.228 . S
Cd72 O76 2.273 . S
Cd72 O80 2.277 . S
O73 C70 1.160 . S
O73 Cd74 2.203 . S
Cd74 O73 2.203 . S
Cd74 O76 2.411 . S
Cd74 O77 2.333 . S
Cd74 O78 2.352 . S
Cd74 O82 2.277 . S
Cd74 O83 2.356 . S
C75 O80 1.209 . S
C75 O82 1.226 . S
O76 Cd72 2.273 . S
O76 Cd74 2.411 . S
O76 C79 1.320 . S
O77 Cd74 2.333 . S
O77 C79 1.214 . S
O78 Cd74 2.352 . S
O78 C81 1.258 . S
C79 O76 1.320 . S
C79 O77 1.214 . S
O80 Cd72 2.277 . S
O80 C75 1.209 . S
C81 O78 1.258 . S
C81 O83 1.282 . S
O82 Cd74 2.277 . S
O82 C75 1.226 . S
O83 Cd74 2.356 . S
O83 C81 1.282 . S
C84 O85 1.306 . S
C84 O87 1.160 . S
O85 C84 1.306 . S
O85 Cd86 2.228 . S
Cd86 O85 2.228 . S
Cd86 O90 2.273 . S
Cd86 O94 2.277 . S
O87 C84 1.160 . S
O87 Cd88 2.203 . S
Cd88 O87 2.203 . S
Cd88 O90 2.411 . S
Cd88 O91 2.333 . S
Cd88 O92 2.352 . S
Cd88 O96 2.277 . S
Cd88 O97 2.356 . S
C89 O94 1.209 . S
C89 O96 1.226 . S
O90 Cd86 2.273 . S
O90 Cd88 2.411 . S
O90 C93 1.320 . S
O91 Cd88 2.333 . S
O91 C93 1.214 . S
O92 Cd88 2.352 . S
O92 C95 1.258 . S
C93 O90 1.320 . S
C93 O91 1.214 . S
O94 Cd86 2.277 . S
O94 C89 1.209 . S
C95 O92 1.258 . S
C95 O97 1.282 . S
O96 Cd88 2.277 . S
O96 C89 1.226 . S
O97 Cd88 2.356 . S
O97 C95 1.282 . S
C98 O99 1.306 . S
C98 O101 1.160 . S
O99 C98 1.306 . S
O99 Cd100 2.228 . S
Cd100 O99 2.228 . S
Cd100 O104 2.273 . S
Cd100 O108 2.277 . S
O101 C98 1.160 . S
O101 Cd102 2.203 . S
Cd102 O101 2.203 . S
Cd102 O104 2.411 . S
Cd102 O105 2.333 . S
Cd102 O106 2.352 . S
Cd102 O110 2.277 . S
Cd102 O111 2.356 . S
C103 O108 1.209 . S
C103 O110 1.226 . S
O104 Cd100 2.273 . S
O104 Cd102 2.411 . S
O104 C107 1.320 . S
O105 Cd102 2.333 . S
O105 C107 1.214 . S
O106 Cd102 2.352 . S
O106 C109 1.258 . S
C107 O104 1.320 . S
C107 O105 1.214 . S
O108 Cd100 2.277 . S
O108 C103 1.209 . S
C109 O106 1.258 . S
C109 O111 1.282 . S
O110 Cd102 2.277 . S
O110 C103 1.226 . S
O111 Cd102 2.356 . S
O111 C109 1.282 . S
C112 O113 1.306 . S
C112 O115 1.160 . S
O113 C112 1.306 . S
O113 Cd114 2.228 . S
Cd114 O113 2.228 . S
Cd114 O118 2.273 . S
Cd114 O122 2.277 . S
O115 C112 1.160 . S
O115 Cd116 2.203 . S
Cd116 O115 2.203 . S
Cd116 O118 2.411 . S
Cd116 O119 2.333 . S
Cd116 O120 2.352 . S
Cd116 O124 2.277 . S
Cd116 O125 2.356 . S
C117 O122 1.209 . S
C117 O124 1.226 . S
O118 Cd114 2.273 . S
O118 Cd116 2.411 . S
O118 C121 1.320 . S
O119 Cd116 2.333 . S
O119 C121 1.214 . S
O120 Cd116 2.352 . S
O120 C123 1.258 . S
C121 O118 1.320 . S
C121 O119 1.214 . S
O122 Cd114 2.277 . S
O122 C117 1.209 . S
C123 O120 1.258 . S
C123 O125 1.282 . S
O124 Cd116 2.277 . S
O124 C117 1.226 . S
O125 Cd116 2.356 . S
O125 C123 1.282 . S
C126 O127 1.306 . S
C126 O129 1.160 . S
O127 C126 1.306 . S
O127 Cd128 2.228 . S
Cd128 O127 2.228 . S
Cd128 O132 2.273 . S
Cd128 O136 2.277 . S
O129 C126 1.160 . S
O129 Cd130 2.203 . S
Cd130 O129 2.203 . S
Cd130 O132 2.411 . S
Cd130 O133 2.333 . S
Cd130 O134 2.352 . S
Cd130 O138 2.277 . S
Cd130 O139 2.356 . S
C131 O136 1.209 . S
C131 O138 1.226 . S
O132 Cd128 2.273 . S
O132 Cd130 2.411 . S
O132 C135 1.320 . S
O133 Cd130 2.333 . S
O133 C135 1.214 . S
O134 Cd130 2.352 . S
O134 C137 1.258 . S
C135 O132 1.320 . S
C135 O133 1.214 . S
O136 Cd128 2.277 . S
O136 C131 1.209 . S
C137 O134 1.258 . S
C137 O139 1.282 . S
O138 Cd130 2.277 . S
O138 C131 1.226 . S
O139 Cd130 2.356 . S
O139 C137 1.282 . S
C140 O141 1.306 . S
C140 O143 1.160 . S
O141 C140 1.306 . S
O141 Cd142 2.228 . S
Cd142 O141 2.228 . S
Cd142 O146 2.273 . S
Cd142 O150 2.277 . S
O143 C140 1.160 . S
O143 Cd144 2.203 . S
Cd144 O143 2.203 . S
Cd144 O146 2.411 . S
Cd144 O147 2.333 . S
Cd144 O148 2.352 . S
Cd144 O152 2.277 . S
Cd144 O153 2.356 . S
C145 O150 1.209 . S
C145 O152 1.226 . S
O146 Cd142 2.273 . S
O146 Cd144 2.411 . S
O146 C149 1.320 . S
O147 Cd144 2.333 . S
O147 C149 1.214 . S
O148 Cd144 2.352 . S
O148 C151 1.258 . S
C149 O146 1.320 . S
C149 O147 1.214 . S
O150 Cd142 2.277 . S
O150 C145 1.209 . S
C151 O148 1.258 . S
C151 O153 1.282 . S
O152 Cd144 2.277 . S
O152 C145 1.226 . S
O153 Cd144 2.356 . S
O153 C151 1.282 . S
C154 O155 1.306 . S
C154 O157 1.160 . S
O155 C154 1.306 . S
O155 Cd156 2.228 . S
Cd156 O155 2.228 . S
Cd156 O160 2.273 . S
Cd156 O164 2.277 . S
O157 C154 1.160 . S
O157 Cd158 2.203 . S
Cd158 O157 2.203 . S
Cd158 O160 2.411 . S
Cd158 O161 2.333 . S
Cd158 O162 2.352 . S
Cd158 O166 2.277 . S
Cd158 O167 2.356 . S
C159 O164 1.209 . S
C159 O166 1.226 . S
O160 Cd156 2.273 . S
O160 Cd158 2.411 . S
O160 C163 1.320 . S
O161 Cd158 2.333 . S
O161 C163 1.214 . S
O162 Cd158 2.352 . S
O162 C165 1.258 . S
C163 O160 1.320 . S
C163 O161 1.214 . S
O164 Cd156 2.277 . S
O164 C159 1.209 . S
C165 O162 1.258 . S
C165 O167 1.282 . S
O166 Cd158 2.277 . S
O166 C159 1.226 . S
O167 Cd158 2.356 . S
O167 C165 1.282 . S
C168 O169 1.306 . S
C168 O171 1.160 . S
O169 C168 1.306 . S
O169 Cd170 2.228 . S
Cd170 O169 2.228 . S
Cd170 O174 2.273 . S
Cd170 O178 2.277 . S
O171 C168 1.160 . S
O171 Cd172 2.203 . S
Cd172 O171 2.203 . S
Cd172 O174 2.411 . S
Cd172 O175 2.333 . S
Cd172 O176 2.352 . S
Cd172 O180 2.277 . S
Cd172 O181 2.356 . S
C173 O178 1.209 . S
C173 O180 1.226 . S
O174 Cd170 2.273 . S
O174 Cd172 2.411 . S
O174 C177 1.320 . S
O175 Cd172 2.333 . S
O175 C177 1.214 . S
O176 Cd172 2.352 . S
O176 C179 1.258 . S
C177 O174 1.320 . S
C177 O175 1.214 . S
O178 Cd170 2.277 . S
O178 C173 1.209 . S
C179 O176 1.258 . S
C179 O181 1.282 . S
O180 Cd172 2.277 . S
O180 C173 1.226 . S
O181 Cd172 2.356 . S
O181 C179 1.282 . S
C182 O183 1.306 . S
C182 O185 1.160 . S
O183 C182 1.306 . S
O183 Cd184 2.228 . S
Cd184 O183 2.228 . S
Cd184 O188 2.273 . S
Cd184 O192 2.277 . S
O185 C182 1.160 . S
O185 Cd186 2.203 . S
Cd186 O185 2.203 . S
Cd186 O188 2.411 . S
Cd186 O189 2.333 . S
Cd186 O190 2.352 . S
Cd186 O194 2.277 . S
Cd186 O195 2.356 . S
C187 O192 1.209 . S
C187 O194 1.226 . S
O188 Cd184 2.273 . S
O188 Cd186 2.411 . S
O188 C191 1.320 . S
O189 Cd186 2.333 . S
O189 C191 1.214 . S
O190 Cd186 2.352 . S
O190 C193 1.258 . S
C191 O188 1.320 . S
C191 O189 1.214 . S
O192 Cd184 2.277 . S
O192 C187 1.209 . S
C193 O190 1.258 . S
C193 O195 1.282 . S
O194 Cd186 2.277 . S
O194 C187 1.226 . S
O195 Cd186 2.356 . S
O195 C193 1.282 . S
C196 O197 1.306 . S
C196 O199 1.160 . S
O197 C196 1.306 . S
O197 Cd198 2.228 . S
Cd198 O197 2.228 . S
Cd198 O202 2.273 . S
Cd198 O206 2.277 . S
O199 C196 1.160 . S
O199 Cd200 2.203 . S
Cd200 O199 2.203 . S
Cd200 O202 2.411 . S
Cd200 O203 2.333 . S
Cd200 O204 2.352 . S
Cd200 O208 2.277 . S
Cd200 O209 2.356 . S
C201 O206 1.209 . S
C201 O208 1.226 . S
O202 Cd198 2.273 . S
O202 Cd200 2.411 . S
O202 C205 1.320 . S
O203 Cd200 2.333 . S
O203 C205 1.214 . S
O204 Cd200 2.352 . S
O204 C207 1.258 . S
C205 O202 1.320 . S
C205 O203 1.214 . S
O206 Cd198 2.277 . S
O206 C201 1.209 . S
C207 O204 1.258 . S
C207 O209 1.282 . S
O208 Cd200 2.277 . S
O208 C201 1.226 . S
O209 Cd200 2.356 . S
O209 C207 1.282 . S
C210 O211 1.306 . S
C210 O213 1.160 . S
O211 C210 1.306 . S
O211 Cd212 2.228 . S
Cd212 O211 2.228 . S
Cd212 O216 2.273 . S
Cd212 O220 2.277 . S
O213 C210 1.160 . S
O213 Cd214 2.203 . S
Cd214 O213 2.203 . S
Cd214 O216 2.411 . S
Cd214 O217 2.333 . S
Cd214 O218 2.352 . S
Cd214 O222 2.277 . S
Cd214 O223 2.356 . S
C215 O220 1.209 . S
C215 O222 1.226 . S
O216 Cd212 2.273 . S
O216 Cd214 2.411 . S
O216 C219 1.320 . S
O217 Cd214 2.333 . S
O217 C219 1.214 . S
O218 Cd214 2.352 . S
O218 C221 1.258 . S
C219 O216 1.320 . S
C219 O217 1.214 . S
O220 Cd212 2.277 . S
O220 C215 1.209 . S
C221 O218 1.258 . S
C221 O223 1.282 . S
O222 Cd214 2.277 . S
O222 C215 1.226 . S
O223 Cd214 2.356 . S
O223 C221 1.282 . S
C224 O225 1.306 . S
C224 O227 1.160 . S
O225 C224 1.306 . S
O225 Cd226 2.228 . S
Cd226 O225 2.228 . S
Cd226 O230 2.273 . S
Cd226 O234 2.277 . S
O227 C224 1.160 . S
O227 Cd228 2.203 . S
Cd228 O227 2.203 . S
Cd228 O230 2.411 . S
Cd228 O231 2.333 . S
Cd228 O232 2.352 . S
Cd228 O236 2.277 . S
Cd228 O237 2.356 . S
C229 O234 1.209 . S
C229 O236 1.226 . S
O230 Cd226 2.273 . S
O230 Cd228 2.411 . S
O230 C233 1.320 . S
O231 Cd228 2.333 . S
O231 C233 1.214 . S
O232 Cd228 2.352 . S
O232 C235 1.258 . S
C233 O230 1.320 . S
C233 O231 1.214 . S
O234 Cd226 2.277 . S
O234 C229 1.209 . S
C235 O232 1.258 . S
C235 O237 1.282 . S
O236 Cd228 2.277 . S
O236 C229 1.226 . S
O237 Cd228 2.356 . S
O237 C235 1.282 . S
C238 O239 1.306 . S
C238 O241 1.160 . S
O239 C238 1.306 . S
O239 Cd240 2.228 . S
Cd240 O239 2.228 . S
Cd240 O244 2.273 . S
Cd240 O248 2.277 . S
O241 C238 1.160 . S
O241 Cd242 2.203 . S
Cd242 O241 2.203 . S
Cd242 O244 2.411 . S
Cd242 O245 2.333 . S
Cd242 O246 2.352 . S
Cd242 O250 2.277 . S
Cd242 O251 2.356 . S
C243 O248 1.209 . S
C243 O250 1.226 . S
O244 Cd240 2.273 . S
O244 Cd242 2.411 . S
O244 C247 1.320 . S
O245 Cd242 2.333 . S
O245 C247 1.214 . S
O246 Cd242 2.352 . S
O246 C249 1.258 . S
C247 O244 1.320 . S
C247 O245 1.214 . S
O248 Cd240 2.277 . S
O248 C243 1.209 . S
C249 O246 1.258 . S
C249 O251 1.282 . S
O250 Cd242 2.277 . S
O250 C243 1.226 . S
O251 Cd242 2.356 . S
O251 C249 1.282 . S
C252 O253 1.306 . S
C252 O255 1.160 . S
O253 C252 1.306 . S
O253 Cd254 2.228 . S
Cd254 O253 2.228 . S
Cd254 O258 2.273 . S
Cd254 O262 2.277 . S
O255 C252 1.160 . S
O255 Cd256 2.203 . S
Cd256 O255 2.203 . S
Cd256 O258 2.411 . S
Cd256 O259 2.333 . S
Cd256 O260 2.352 . S
Cd256 O264 2.277 . S
Cd256 O265 2.356 . S
C257 O262 1.209 . S
C257 O264 1.226 . S
O258 Cd254 2.273 . S
O258 Cd256 2.411 . S
O258 C261 1.320 . S
O259 Cd256 2.333 . S
O259 C261 1.214 . S
O260 Cd256 2.352 . S
O260 C263 1.258 . S
C261 O258 1.320 . S
C261 O259 1.214 . S
O262 Cd254 2.277 . S
O262 C257 1.209 . S
C263 O260 1.258 . S
C263 O265 1.282 . S
O264 Cd256 2.277 . S
O264 C257 1.226 . S
O265 Cd256 2.356 . S
O265 C263 1.282 . S
C266 O267 1.306 . S
C266 O269 1.160 . S
O267 C266 1.306 . S
O267 Cd268 2.228 . S
Cd268 O267 2.228 . S
Cd268 O272 2.273 . S
Cd268 O276 2.277 . S
O269 C266 1.160 . S
O269 Cd270 2.203 . S
Cd270 O269 2.203 . S
Cd270 O272 2.411 . S
Cd270 O273 2.333 . S
Cd270 O274 2.352 . S
Cd270 O278 2.277 . S
Cd270 O279 2.356 . S
C271 O276 1.209 . S
C271 O278 1.226 . S
O272 Cd268 2.273 . S
O272 Cd270 2.411 . S
O272 C275 1.320 . S
O273 Cd270 2.333 . S
O273 C275 1.214 . S
O274 Cd270 2.352 . S
O274 C277 1.258 . S
C275 O272 1.320 . S
C275 O273 1.214 . S
O276 Cd268 2.277 . S
O276 C271 1.209 . S
C277 O274 1.258 . S
C277 O279 1.282 . S
O278 Cd270 2.277 . S
O278 C271 1.226 . S
O279 Cd270 2.356 . S
O279 C277 1.282 . S
C280 O281 1.306 . S
C280 O283 1.160 . S
O281 C280 1.306 . S
O281 Cd282 2.228 . S
Cd282 O281 2.228 . S
Cd282 O286 2.273 . S
Cd282 O290 2.277 . S
O283 C280 1.160 . S
O283 Cd284 2.203 . S
Cd284 O283 2.203 . S
Cd284 O286 2.411 . S
Cd284 O287 2.333 . S
Cd284 O288 2.352 . S
Cd284 O292 2.277 . S
Cd284 O293 2.356 . S
C285 O290 1.209 . S
C285 O292 1.226 . S
O286 Cd282 2.273 . S
O286 Cd284 2.411 . S
O286 C289 1.320 . S
O287 Cd284 2.333 . S
O287 C289 1.214 . S
O288 Cd284 2.352 . S
O288 C291 1.258 . S
C289 O286 1.320 . S
C289 O287 1.214 . S
O290 Cd282 2.277 . S
O290 C285 1.209 . S
C291 O288 1.258 . S
C291 O293 1.282 . S
O292 Cd284 2.277 . S
O292 C285 1.226 . S
O293 Cd284 2.356 . S
O293 C291 1.282 . S
C294 O295 1.306 . S
C294 O297 1.160 . S
O295 C294 1.306 . S
O295 Cd296 2.228 1_556 S
Cd296 O295 2.228 1_554 S
Cd296 O300 2.273 . S
Cd296 O304 2.277 . S
O297 C294 1.160 . S
O297 Cd298 2.203 1_556 S
Cd298 O297 2.203 1_554 S
Cd298 O300 2.411 . S
Cd298 O301 2.333 . S
Cd298 O302 2.352 . S
Cd298 O306 2.277 . S
Cd298 O307 2.356 . S
C299 O304 1.209 . S
C299 O306 1.226 . S
O300 Cd296 2.273 . S
O300 Cd298 2.411 . S
O300 C303 1.320 . S
O301 Cd298 2.333 . S
O301 C303 1.214 . S
O302 Cd298 2.352 . S
O302 C305 1.258 . S
C303 O300 1.320 . S
C303 O301 1.214 . S
O304 Cd296 2.277 . S
O304 C299 1.209 . S
C305 O302 1.258 . S
C305 O307 1.282 . S
O306 Cd298 2.277 . S
O306 C299 1.226 . S
O307 Cd298 2.356 . S
O307 C305 1.282 . S
C308 O309 1.306 . S
C308 O311 1.160 . S
O309 C308 1.306 . S
O309 Cd310 2.228 1_556 S
Cd310 O309 2.228 1_554 S
Cd310 O314 2.273 . S
Cd310 O318 2.277 . S
O311 C308 1.160 . S
O311 Cd312 2.203 1_556 S
Cd312 O311 2.203 1_554 S
Cd312 O314 2.411 . S
Cd312 O315 2.333 . S
Cd312 O316 2.352 . S
Cd312 O320 2.277 . S
Cd312 O321 2.356 . S
C313 O318 1.209 . S
C313 O320 1.226 . S
O314 Cd310 2.273 . S
O314 Cd312 2.411 . S
O314 C317 1.320 . S
O315 Cd312 2.333 . S
O315 C317 1.214 . S
O316 Cd312 2.352 . S
O316 C319 1.258 . S
C317 O314 1.320 . S
C317 O315 1.214 . S
O318 Cd310 2.277 . S
O318 C313 1.209 . S
C319 O316 1.258 . S
C319 O321 1.282 . S
O320 Cd312 2.277 . S
O320 C313 1.226 . S
O321 Cd312 2.356 . S
O321 C319 1.282 . S
C322 O323 1.306 . S
C322 O325 1.160 . S
O323 C322 1.306 . S
O323 Cd324 2.228 1_556 S
Cd324 O323 2.228 1_554 S
Cd324 O328 2.273 . S
Cd324 O332 2.277 . S
O325 C322 1.160 . S
O325 Cd326 2.203 1_556 S
Cd326 O325 2.203 1_554 S
Cd326 O328 2.411 . S
Cd326 O329 2.333 . S
Cd326 O330 2.352 . S
Cd326 O334 2.277 . S
Cd326 O335 2.356 . S
C327 O332 1.209 . S
C327 O334 1.226 . S
O328 Cd324 2.273 . S
O328 Cd326 2.411 . S
O328 C331 1.320 . S
O329 Cd326 2.333 . S
O329 C331 1.214 . S
O330 Cd326 2.352 . S
O330 C333 1.258 . S
C331 O328 1.320 . S
C331 O329 1.214 . S
O332 Cd324 2.277 . S
O332 C327 1.209 . S
C333 O330 1.258 . S
C333 O335 1.282 . S
O334 Cd326 2.277 . S
O334 C327 1.226 . S
O335 Cd326 2.356 . S
O335 C333 1.282 . S
C336 O337 1.306 . S
C336 O339 1.160 . S
O337 C336 1.306 . S
O337 Cd338 2.228 . S
Cd338 O337 2.228 . S
Cd338 O342 2.273 . S
Cd338 O346 2.277 . S
O339 C336 1.160 . S
O339 Cd340 2.203 . S
Cd340 O339 2.203 . S
Cd340 O342 2.411 . S
Cd340 O343 2.333 . S
Cd340 O344 2.352 . S
Cd340 O348 2.277 . S
Cd340 O349 2.356 . S
C341 O346 1.209 . S
C341 O348 1.226 . S
O342 Cd338 2.273 . S
O342 Cd340 2.411 . S
O342 C345 1.320 . S
O343 Cd340 2.333 . S
O343 C345 1.214 . S
O344 Cd340 2.352 . S
O344 C347 1.258 . S
C345 O342 1.320 . S
C345 O343 1.214 . S
O346 Cd338 2.277 . S
O346 C341 1.209 . S
C347 O344 1.258 . S
C347 O349 1.282 . S
O348 Cd340 2.277 . S
O348 C341 1.226 . S
O349 Cd340 2.356 . S
O349 C347 1.282 . S
C350 O351 1.306 . S
C350 O353 1.160 . S
O351 C350 1.306 . S
O351 Cd352 2.228 . S
Cd352 O351 2.228 . S
Cd352 O356 2.273 . S
Cd352 O360 2.277 . S
O353 C350 1.160 . S
O353 Cd354 2.203 . S
Cd354 O353 2.203 . S
Cd354 O356 2.411 . S
Cd354 O357 2.333 . S
Cd354 O358 2.352 . S
Cd354 O362 2.277 . S
Cd354 O363 2.356 . S
C355 O360 1.209 . S
C355 O362 1.226 . S
O356 Cd352 2.273 . S
O356 Cd354 2.411 . S
O356 C359 1.320 . S
O357 Cd354 2.333 . S
O357 C359 1.214 . S
O358 Cd354 2.352 . S
O358 C361 1.258 . S
C359 O356 1.320 . S
C359 O357 1.214 . S
O360 Cd352 2.277 . S
O360 C355 1.209 . S
C361 O358 1.258 . S
C361 O363 1.282 . S
O362 Cd354 2.277 . S
O362 C355 1.226 . S
O363 Cd354 2.356 . S
O363 C361 1.282 . S
C364 O365 1.306 . S
C364 O367 1.160 . S
O365 C364 1.306 . S
O365 Cd366 2.228 . S
Cd366 O365 2.228 . S
Cd366 O370 2.273 . S
Cd366 O374 2.277 . S
O367 C364 1.160 . S
O367 Cd368 2.203 . S
Cd368 O367 2.203 . S
Cd368 O370 2.411 . S
Cd368 O371 2.333 . S
Cd368 O372 2.352 . S
Cd368 O376 2.277 . S
Cd368 O377 2.356 . S
C369 O374 1.209 . S
C369 O376 1.226 . S
O370 Cd366 2.273 . S
O370 Cd368 2.411 . S
O370 C373 1.320 . S
O371 Cd368 2.333 . S
O371 C373 1.214 . S
O372 Cd368 2.352 . S
O372 C375 1.258 . S
C373 O370 1.320 . S
C373 O371 1.214 . S
O374 Cd366 2.277 . S
O374 C369 1.209 . S
C375 O372 1.258 . S
C375 O377 1.282 . S
O376 Cd368 2.277 . S
O376 C369 1.226 . S
O377 Cd368 2.356 . S
O377 C375 1.282 . S
C378 O379 1.306 . S
C378 O381 1.160 . S
O379 C378 1.306 . S
O379 Cd380 2.228 1_554 S
Cd380 O379 2.228 1_556 S
Cd380 O384 2.273 . S
Cd380 O388 2.277 . S
O381 C378 1.160 . S
O381 Cd382 2.203 1_554 S
Cd382 O381 2.203 1_556 S
Cd382 O384 2.411 . S
Cd382 O385 2.333 . S
Cd382 O386 2.352 . S
Cd382 O390 2.277 . S
Cd382 O391 2.356 . S
C383 O388 1.209 . S
C383 O390 1.226 . S
O384 Cd380 2.273 . S
O384 Cd382 2.411 . S
O384 C387 1.320 . S
O385 Cd382 2.333 . S
O385 C387 1.214 . S
O386 Cd382 2.352 . S
O386 C389 1.258 . S
C387 O384 1.320 . S
C387 O385 1.214 . S
O388 Cd380 2.277 . S
O388 C383 1.209 . S
C389 O386 1.258 . S
C389 O391 1.282 . S
O390 Cd382 2.277 . S
O390 C383 1.226 . S
O391 Cd382 2.356 . S
O391 C389 1.282 . S
C392 O393 1.306 . S
C392 O395 1.160 . S
O393 C392 1.306 . S
O393 Cd394 2.228 1_554 S
Cd394 O393 2.228 1_556 S
Cd394 O398 2.273 . S
Cd394 O402 2.277 . S
O395 C392 1.160 . S
O395 Cd396 2.203 1_554 S
Cd396 O395 2.203 1_556 S
Cd396 O398 2.411 . S
Cd396 O399 2.333 . S
Cd396 O400 2.352 . S
Cd396 O404 2.277 . S
Cd396 O405 2.356 . S
C397 O402 1.209 . S
C397 O404 1.226 . S
O398 Cd394 2.273 . S
O398 Cd396 2.411 . S
O398 C401 1.320 . S
O399 Cd396 2.333 . S
O399 C401 1.214 . S
O400 Cd396 2.352 . S
O400 C403 1.258 . S
C401 O398 1.320 . S
C401 O399 1.214 . S
O402 Cd394 2.277 . S
O402 C397 1.209 . S
C403 O400 1.258 . S
C403 O405 1.282 . S
O404 Cd396 2.277 . S
O404 C397 1.226 . S
O405 Cd396 2.356 . S
O405 C403 1.282 . S
C406 O407 1.306 . S
C406 O409 1.160 . S
O407 C406 1.306 . S
O407 Cd408 2.228 1_554 S
Cd408 O407 2.228 1_556 S
Cd408 O412 2.273 . S
Cd408 O416 2.277 . S
O409 C406 1.160 . S
O409 Cd410 2.203 1_554 S
Cd410 O409 2.203 1_556 S
Cd410 O412 2.411 . S
Cd410 O413 2.333 . S
Cd410 O414 2.352 . S
Cd410 O418 2.277 . S
Cd410 O419 2.356 . S
C411 O416 1.209 . S
C411 O418 1.226 . S
O412 Cd408 2.273 . S
O412 Cd410 2.411 . S
O412 C415 1.320 . S
O413 Cd410 2.333 . S
O413 C415 1.214 . S
O414 Cd410 2.352 . S
O414 C417 1.258 . S
C415 O412 1.320 . S
C415 O413 1.214 . S
O416 Cd408 2.277 . S
O416 C411 1.209 . S
C417 O414 1.258 . S
C417 O419 1.282 . S
O418 Cd410 2.277 . S
O418 C411 1.226 . S
O419 Cd410 2.356 . S
O419 C417 1.282 . S
C420 O421 1.306 . S
C420 O423 1.160 . S
O421 C420 1.306 . S
O421 Cd422 2.228 . S
Cd422 O421 2.228 . S
Cd422 O426 2.273 . S
Cd422 O430 2.277 . S
O423 C420 1.160 . S
O423 Cd424 2.203 . S
Cd424 O423 2.203 . S
Cd424 O426 2.411 . S
Cd424 O427 2.333 . S
Cd424 O428 2.352 . S
Cd424 O432 2.277 . S
Cd424 O433 2.356 . S
C425 O430 1.209 . S
C425 O432 1.226 . S
O426 Cd422 2.273 . S
O426 Cd424 2.411 . S
O426 C429 1.320 . S
O427 Cd424 2.333 . S
O427 C429 1.214 . S
O428 Cd424 2.352 . S
O428 C431 1.258 . S
C429 O426 1.320 . S
C429 O427 1.214 . S
O430 Cd422 2.277 . S
O430 C425 1.209 . S
C431 O428 1.258 . S
C431 O433 1.282 . S
O432 Cd424 2.277 . S
O432 C425 1.226 . S
O433 Cd424 2.356 . S
O433 C431 1.282 . S
C434 O435 1.306 . S
C434 O437 1.160 . S
O435 C434 1.306 . S
O435 Cd436 2.228 . S
Cd436 O435 2.228 . S
Cd436 O440 2.273 . S
Cd436 O444 2.277 . S
O437 C434 1.160 . S
O437 Cd438 2.203 . S
Cd438 O437 2.203 . S
Cd438 O440 2.411 . S
Cd438 O441 2.333 . S
Cd438 O442 2.352 . S
Cd438 O446 2.277 . S
Cd438 O447 2.356 . S
C439 O444 1.209 . S
C439 O446 1.226 . S
O440 Cd436 2.273 . S
O440 Cd438 2.411 . S
O440 C443 1.320 . S
O441 Cd438 2.333 . S
O441 C443 1.214 . S
O442 Cd438 2.352 . S
O442 C445 1.258 . S
C443 O440 1.320 . S
C443 O441 1.214 . S
O444 Cd436 2.277 . S
O444 C439 1.209 . S
C445 O442 1.258 . S
C445 O447 1.282 . S
O446 Cd438 2.277 . S
O446 C439 1.226 . S
O447 Cd438 2.356 . S
O447 C445 1.282 . S
C448 O449 1.306 . S
C448 O451 1.160 . S
O449 C448 1.306 . S
O449 Cd450 2.228 . S
Cd450 O449 2.228 . S
Cd450 O454 2.273 . S
Cd450 O458 2.277 . S
O451 C448 1.160 . S
O451 Cd452 2.203 . S
Cd452 O451 2.203 . S
Cd452 O454 2.411 . S
Cd452 O455 2.333 . S
Cd452 O456 2.352 . S
Cd452 O460 2.277 . S
Cd452 O461 2.356 . S
C453 O458 1.209 . S
C453 O460 1.226 . S
O454 Cd450 2.273 . S
O454 Cd452 2.411 . S
O454 C457 1.320 . S
O455 Cd452 2.333 . S
O455 C457 1.214 . S
O456 Cd452 2.352 . S
O456 C459 1.258 . S
C457 O454 1.320 . S
C457 O455 1.214 . S
O458 Cd450 2.277 . S
O458 C453 1.209 . S
C459 O456 1.258 . S
C459 O461 1.282 . S
O460 Cd452 2.277 . S
O460 C453 1.226 . S
O461 Cd452 2.356 . S
O461 C459 1.282 . S
C462 O463 1.306 . S
C462 O465 1.160 . S
O463 C462 1.306 . S
O463 Cd464 2.228 . S
Cd464 O463 2.228 . S
Cd464 O468 2.273 . S
Cd464 O472 2.277 . S
O465 C462 1.160 . S
O465 Cd466 2.203 . S
Cd466 O465 2.203 . S
Cd466 O468 2.411 . S
Cd466 O469 2.333 . S
Cd466 O470 2.352 . S
Cd466 O474 2.277 . S
Cd466 O475 2.356 . S
C467 O472 1.209 . S
C467 O474 1.226 . S
O468 Cd464 2.273 . S
O468 Cd466 2.411 . S
O468 C471 1.320 . S
O469 Cd466 2.333 . S
O469 C471 1.214 . S
O470 Cd466 2.352 . S
O470 C473 1.258 . S
C471 O468 1.320 . S
C471 O469 1.214 . S
O472 Cd464 2.277 . S
O472 C467 1.209 . S
C473 O470 1.258 . S
C473 O475 1.282 . S
O474 Cd466 2.277 . S
O474 C467 1.226 . S
O475 Cd466 2.356 . S
O475 C473 1.282 . S
C476 O477 1.306 . S
C476 O479 1.160 . S
O477 C476 1.306 . S
O477 Cd478 2.228 . S
Cd478 O477 2.228 . S
Cd478 O482 2.273 . S
Cd478 O486 2.277 . S
O479 C476 1.160 . S
O479 Cd480 2.203 . S
Cd480 O479 2.203 . S
Cd480 O482 2.411 . S
Cd480 O483 2.333 . S
Cd480 O484 2.352 . S
Cd480 O488 2.277 . S
Cd480 O489 2.356 . S
C481 O486 1.209 . S
C481 O488 1.226 . S
O482 Cd478 2.273 . S
O482 Cd480 2.411 . S
O482 C485 1.320 . S
O483 Cd480 2.333 . S
O483 C485 1.214 . S
O484 Cd480 2.352 . S
O484 C487 1.258 . S
C485 O482 1.320 . S
C485 O483 1.214 . S
O486 Cd478 2.277 . S
O486 C481 1.209 . S
C487 O484 1.258 . S
C487 O489 1.282 . S
O488 Cd480 2.277 . S
O488 C481 1.226 . S
O489 Cd480 2.356 . S
O489 C487 1.282 . S
C490 O491 1.306 . S
C490 O493 1.160 . S
O491 C490 1.306 . S
O491 Cd492 2.228 . S
Cd492 O491 2.228 . S
Cd492 O496 2.273 . S
Cd492 O500 2.277 . S
O493 C490 1.160 . S
O493 Cd494 2.203 . S
Cd494 O493 2.203 . S
Cd494 O496 2.411 . S
Cd494 O497 2.333 . S
Cd494 O498 2.352 . S
Cd494 O502 2.277 . S
Cd494 O503 2.356 . S
C495 O500 1.209 . S
C495 O502 1.226 . S
O496 Cd492 2.273 . S
O496 Cd494 2.411 . S
O496 C499 1.320 . S
O497 Cd494 2.333 . S
O497 C499 1.214 . S
O498 Cd494 2.352 . S
O498 C501 1.258 . S
C499 O496 1.320 . S
C499 O497 1.214 . S
O500 Cd492 2.277 . S
O500 C495 1.209 . S
C501 O498 1.258 . S
C501 O503 1.282 . S
O502 Cd494 2.277 . S
O502 C495 1.226 . S
O503 Cd494 2.356 . S
O503 C501 1.282 . S
H504 C512 0.929 . S
H505 C514 0.930 . S
H506 C516 0.930 . S
H507 C519 0.929 . S
H508 C522 0.930 . S
H509 C524 0.960 . S
H510 C524 0.960 . S
H511 C524 0.960 . S
C512 H504 0.929 . S
C512 C513 1.377 . S
C512 C514 1.384 . S
C513 C512 1.377 . S
C513 C519 1.390 . S
C514 H505 0.930 . S
C514 C512 1.384 . S
C514 C515 1.372 . S
C515 C514 1.372 . S
C515 C516 1.400 . S
C515 C520 1.490 . S
C516 H506 0.930 . S
C516 C515 1.400 . S
C516 C519 1.386 . S
H517 C533 0.930 . S
H518 C534 0.931 . S
C519 H507 0.929 . S
C519 C513 1.390 . S
C519 C516 1.386 . S
C520 C515 1.490 . S
C520 C522 1.395 . S
C520 C523 1.403 . S
H521 C527 0.930 . S
C522 H508 0.930 . S
C522 C520 1.395 . S
C522 C525 1.403 . S
C523 C520 1.403 . S
C523 C524 1.524 . S
C523 C527 1.400 . S
C524 H509 0.960 . S
C524 H510 0.960 . S
C524 H511 0.960 . S
C524 C523 1.524 . S
C525 C522 1.403 . S
C525 C526 1.392 . S
C525 C529 1.510 . S
C526 C525 1.392 . S
C526 C527 1.385 . S
C526 C528 1.478 1_556 S
C527 H521 0.930 . S
C527 C523 1.400 . S
C527 C526 1.385 . S
C528 C526 1.478 1_554 S
C528 C530 1.381 . S
C528 C534 1.383 . S
C529 C525 1.510 . S
C529 H535 0.977 . S
C529 H536 0.949 1_556 S
C529 H537 0.940 1_556 S
C530 C528 1.381 . S
C530 C531 1.394 . S
C530 H538 0.930 . S
C531 C530 1.394 . S
C531 C532 1.383 . S
C531 H539 0.929 . S
C532 C531 1.383 . S
C532 C533 1.377 . S
C533 H517 0.930 . S
C533 C532 1.377 . S
C533 C534 1.379 . S
C534 H518 0.931 . S
C534 C528 1.383 . S
C534 C533 1.379 . S
H535 C529 0.977 . S
H536 C529 0.949 1_554 S
H537 C529 0.940 1_554 S
H538 C530 0.930 . S
H539 C531 0.929 . S
H540 C548 0.929 . S
H541 C550 0.930 . S
H542 C552 0.930 . S
H543 C555 0.929 . S
H544 C558 0.930 . S
H545 C560 0.960 . S
H546 C560 0.960 . S
H547 C560 0.960 . S
C548 H540 0.929 . S
C548 C549 1.377 . S
C548 C550 1.384 . S
C549 C548 1.377 . S
C549 C555 1.390 . S
C550 H541 0.930 . S
C550 C548 1.384 . S
C550 C551 1.372 . S
C551 C550 1.372 . S
C551 C552 1.400 . S
C551 C556 1.490 . S
C552 H542 0.930 . S
C552 C551 1.400 . S
C552 C555 1.386 . S
H553 C569 0.930 . S
H554 C570 0.931 . S
C555 H543 0.929 . S
C555 C549 1.390 . S
C555 C552 1.386 . S
C556 C551 1.490 . S
C556 C558 1.395 . S
C556 C559 1.403 . S
H557 C563 0.930 . S
C558 H544 0.930 . S
C558 C556 1.395 . S
C558 C561 1.403 . S
C559 C556 1.403 . S
C559 C560 1.524 . S
C559 C563 1.400 . S
C560 H545 0.960 . S
C560 H546 0.960 . S
C560 H547 0.960 . S
C560 C559 1.524 . S
C561 C558 1.403 . S
C561 C562 1.392 . S
C561 C565 1.495 . S
C562 C561 1.392 . S
C562 C563 1.385 . S
C562 C564 1.478 1_556 S
C563 H557 0.930 . S
C563 C559 1.400 . S
C563 C562 1.385 . S
C564 C562 1.478 1_554 S
C564 C566 1.381 . S
C564 C570 1.383 . S
C565 C561 1.495 . S
C565 H571 0.959 . S
C565 H572 0.961 . S
C565 H573 0.960 . S
C566 C564 1.381 . S
C566 C567 1.394 . S
C566 H574 0.930 . S
C567 C566 1.394 . S
C567 C568 1.383 . S
C567 H575 0.929 . S
C568 C567 1.383 . S
C568 C569 1.377 . S
C569 H553 0.930 . S
C569 C568 1.377 . S
C569 C570 1.379 . S
C570 H554 0.931 . S
C570 C564 1.383 . S
C570 C569 1.379 . S
H571 C565 0.959 . S
H572 C565 0.961 . S
H573 C565 0.960 . S
H574 C566 0.930 . S
H575 C567 0.929 . S
H576 C584 0.929 . S
H577 C586 0.930 . S
H578 C588 0.930 . S
H579 C591 0.929 . S
H580 C594 0.930 . S
H581 C596 0.960 . S
H582 C596 0.960 . S
H583 C596 0.960 1_554 S
C584 H576 0.929 . S
C584 C585 1.377 . S
C584 C586 1.384 . S
C585 C584 1.377 . S
C585 C591 1.390 . S
C586 H577 0.930 . S
C586 C584 1.384 . S
C586 C587 1.372 . S
C587 C586 1.372 . S
C587 C588 1.400 . S
C587 C592 1.490 1_554 S
C588 H578 0.930 . S
C588 C587 1.400 . S
C588 C591 1.386 . S
H589 C605 0.930 . S
H590 C606 0.931 . S
C591 H579 0.929 . S
C591 C585 1.390 . S
C591 C588 1.386 . S
C592 C587 1.490 1_556 S
C592 C594 1.395 . S
C592 C595 1.403 . S
H593 C599 0.930 . S
C594 H580 0.930 . S
C594 C592 1.395 . S
C594 C597 1.403 . S
C595 C592 1.403 . S
C595 C596 1.524 . S
C595 C599 1.400 . S
C596 H581 0.960 . S
C596 H582 0.960 . S
C596 H583 0.960 1_556 S
C596 C595 1.524 . S
C597 C594 1.403 . S
C597 C598 1.392 . S
C597 C601 1.495 . S
C598 C597 1.392 . S
C598 C599 1.385 . S
C598 C600 1.478 . S
C599 H593 0.930 . S
C599 C595 1.400 . S
C599 C598 1.385 . S
C600 C598 1.478 . S
C600 C602 1.381 . S
C600 C606 1.383 . S
C601 C597 1.495 . S
C601 H607 0.959 . S
C601 H608 0.961 . S
C601 H609 0.960 . S
C602 C600 1.381 . S
C602 C603 1.394 . S
C602 H610 0.930 . S
C603 C602 1.394 . S
C603 C604 1.383 . S
C603 H611 0.929 . S
C604 C603 1.383 . S
C604 C605 1.377 . S
C605 H589 0.930 . S
C605 C604 1.377 . S
C605 C606 1.379 . S
C606 H590 0.931 . S
C606 C600 1.383 . S
C606 C605 1.379 . S
H607 C601 0.959 . S
H608 C601 0.961 . S
H609 C601 0.960 . S
H610 C602 0.930 . S
H611 C603 0.929 . S
H612 C620 0.929 . S
H613 C622 0.930 . S
H614 C624 0.930 . S
H615 C627 0.929 . S
H616 C630 0.930 . S
H617 C632 0.960 . S
H618 C632 0.960 . S
H619 C632 0.960 . S
C620 H612 0.929 . S
C620 C621 1.377 . S
C620 C622 1.384 . S
C621 C620 1.377 . S
C621 C627 1.390 . S
C622 H613 0.930 . S
C622 C620 1.384 . S
C622 C623 1.372 . S
C623 C622 1.372 . S
C623 C624 1.400 . S
C623 C628 1.490 . S
C624 H614 0.930 . S
C624 C623 1.400 . S
C624 C627 1.386 . S
H625 C641 0.930 . S
H626 C642 0.931 . S
C627 H615 0.929 . S
C627 C621 1.390 . S
C627 C624 1.386 . S
C628 C623 1.490 . S
C628 C630 1.395 . S
C628 C631 1.403 . S
H629 C635 0.930 . S
C630 H616 0.930 . S
C630 C628 1.395 . S
C630 C633 1.403 . S
C631 C628 1.403 . S
C631 C632 1.524 . S
C631 C635 1.400 . S
C632 H617 0.960 . S
C632 H618 0.960 . S
C632 H619 0.960 . S
C632 C631 1.524 . S
C633 C630 1.403 . S
C633 C634 1.392 . S
C633 C637 1.495 . S
C634 C633 1.392 . S
C634 C635 1.385 . S
C634 C636 1.478 . S
C635 H629 0.930 . S
C635 C631 1.400 . S
C635 C634 1.385 . S
C636 C634 1.478 . S
C636 C638 1.381 . S
C636 C642 1.383 . S
C637 C633 1.495 . S
C637 H643 0.959 . S
C637 H644 0.961 . S
C637 H645 0.960 . S
C638 C636 1.381 . S
C638 C639 1.394 . S
C638 H646 0.930 . S
C639 C638 1.394 . S
C639 C640 1.383 . S
C639 H647 0.929 . S
C640 C639 1.383 . S
C640 C641 1.377 . S
C641 H625 0.930 . S
C641 C640 1.377 . S
C641 C642 1.379 . S
C642 H626 0.931 . S
C642 C636 1.383 . S
C642 C641 1.379 . S
H643 C637 0.959 . S
H644 C637 0.961 . S
H645 C637 0.960 . S
H646 C638 0.930 . S
H647 C639 0.929 . S
H648 C656 0.929 . S
H649 C658 0.930 . S
H650 C660 0.930 . S
H651 C663 0.929 . S
H652 C666 0.930 . S
H653 C668 0.960 . S
H654 C668 0.960 . S
H655 C668 0.960 . S
C656 H648 0.929 . S
C656 C657 1.377 . S
C656 C658 1.384 . S
C657 C656 1.377 . S
C657 C663 1.390 . S
C658 H649 0.930 . S
C658 C656 1.384 . S
C658 C659 1.372 . S
C659 C658 1.372 . S
C659 C660 1.400 . S
C659 C664 1.490 . S
C660 H650 0.930 . S
C660 C659 1.400 . S
C660 C663 1.386 . S
H661 C677 0.930 . S
H662 C678 0.931 . S
C663 H651 0.929 . S
C663 C657 1.390 . S
C663 C660 1.386 . S
C664 C659 1.490 . S
C664 C666 1.395 . S
C664 C667 1.403 . S
H665 C671 0.930 . S
C666 H652 0.930 . S
C666 C664 1.395 . S
C666 C669 1.403 . S
C667 C664 1.403 . S
C667 C668 1.524 . S
C667 C671 1.400 . S
C668 H653 0.960 . S
C668 H654 0.960 . S
C668 H655 0.960 . S
C668 C667 1.524 . S
C669 C666 1.403 . S
C669 C670 1.392 . S
C669 C673 1.495 . S
C670 C669 1.392 . S
C670 C671 1.385 . S
C670 C672 1.478 . S
C671 H665 0.930 . S
C671 C667 1.400 . S
C671 C670 1.385 . S
C672 C670 1.478 . S
C672 C674 1.381 . S
C672 C678 1.383 . S
C673 C669 1.495 . S
C673 H679 0.959 . S
C673 H680 0.961 . S
C673 H681 0.960 . S
C674 C672 1.381 . S
C674 C675 1.394 . S
C674 H682 0.930 . S
C675 C674 1.394 . S
C675 C676 1.383 . S
C675 H683 0.929 . S
C676 C675 1.383 . S
C676 C677 1.377 . S
C677 H661 0.930 . S
C677 C676 1.377 . S
C677 C678 1.379 . S
C678 H662 0.931 . S
C678 C672 1.383 . S
C678 C677 1.379 . S
H679 C673 0.959 . S
H680 C673 0.961 . S
H681 C673 0.960 . S
H682 C674 0.930 . S
H683 C675 0.929 . S
H684 C692 0.929 . S
H685 C694 0.930 . S
H686 C696 0.930 . S
H687 C699 0.929 . S
H688 C702 0.930 . S
H689 C704 0.960 . S
H690 C704 0.960 . S
H691 C704 0.960 . S
C692 H684 0.929 . S
C692 C693 1.377 . S
C692 C694 1.384 . S
C693 C692 1.377 . S
C693 C699 1.390 . S
C694 H685 0.930 . S
C694 C692 1.384 . S
C694 C695 1.372 . S
C695 C694 1.372 . S
C695 C696 1.400 . S
C695 C700 1.490 . S
C696 H686 0.930 . S
C696 C695 1.400 . S
C696 C699 1.386 . S
H697 C713 0.930 . S
H698 C714 0.931 . S
C699 H687 0.929 . S
C699 C693 1.390 . S
C699 C696 1.386 . S
C700 C695 1.490 . S
C700 C702 1.395 . S
C700 C703 1.403 . S
H701 C707 0.930 . S
C702 H688 0.930 . S
C702 C700 1.395 . S
C702 C705 1.403 . S
C703 C700 1.403 . S
C703 C704 1.524 . S
C703 C707 1.400 . S
C704 H689 0.960 . S
C704 H690 0.960 . S
C704 H691 0.960 . S
C704 C703 1.524 . S
C705 C702 1.403 . S
C705 C706 1.392 . S
C705 C709 1.495 . S
C706 C705 1.392 . S
C706 C707 1.385 . S
C706 C708 1.478 . S
C707 H701 0.930 . S
C707 C703 1.400 . S
C707 C706 1.385 . S
C708 C706 1.478 . S
C708 C710 1.381 . S
C708 C714 1.383 . S
C709 C705 1.495 . S
C709 H715 0.959 . S
C709 H716 0.961 . S
C709 H717 0.960 . S
C710 C708 1.381 . S
C710 C711 1.394 . S
C710 H718 0.930 . S
C711 C710 1.394 . S
C711 C712 1.383 . S
C711 H719 0.929 . S
C712 C711 1.383 . S
C712 C713 1.377 . S
C713 H697 0.930 . S
C713 C712 1.377 . S
C713 C714 1.379 . S
C714 H698 0.931 . S
C714 C708 1.383 . S
C714 C713 1.379 . S
H715 C709 0.959 . S
H716 C709 0.961 . S
H717 C709 0.960 . S
H718 C710 0.930 . S
H719 C711 0.929 . S
H720 C728 0.929 . S
H721 C730 0.930 . S
H722 C732 0.930 . S
H723 C735 0.929 . S
H724 C738 0.930 . S
H725 C740 0.960 . S
H726 C740 0.960 . S
H727 C740 0.960 . S
C728 H720 0.929 . S
C728 C729 1.377 . S
C728 C730 1.384 . S
C729 C728 1.377 . S
C729 C735 1.390 . S
C730 H721 0.930 . S
C730 C728 1.384 . S
C730 C731 1.372 . S
C731 C730 1.372 . S
C731 C732 1.400 . S
C731 C736 1.490 . S
C732 H722 0.930 . S
C732 C731 1.400 . S
C732 C735 1.386 . S
H733 C749 0.930 . S
H734 C750 0.931 . S
C735 H723 0.929 . S
C735 C729 1.390 . S
C735 C732 1.386 . S
C736 C731 1.490 . S
C736 C738 1.395 . S
C736 C739 1.403 . S
H737 C743 0.930 . S
C738 H724 0.930 . S
C738 C736 1.395 . S
C738 C741 1.403 . S
C739 C736 1.403 . S
C739 C740 1.524 . S
C739 C743 1.400 . S
C740 H725 0.960 . S
C740 H726 0.960 . S
C740 H727 0.960 . S
C740 C739 1.524 . S
C741 C738 1.403 . S
C741 C742 1.392 . S
C741 C745 1.495 . S
C742 C741 1.392 . S
C742 C743 1.385 . S
C742 C744 1.478 1_554 S
C743 H737 0.930 . S
C743 C739 1.400 . S
C743 C742 1.385 . S
C744 C742 1.478 1_556 S
C744 C746 1.381 . S
C744 C750 1.383 . S
C745 C741 1.495 . S
C745 H751 0.959 . S
C745 H752 0.961 1_554 S
C745 H753 0.960 1_554 S
C746 C744 1.381 . S
C746 C747 1.394 . S
C746 H754 0.930 . S
C747 C746 1.394 . S
C747 C748 1.383 . S
C747 H755 0.929 . S
C748 C747 1.383 . S
C748 C749 1.377 . S
C749 H733 0.930 . S
C749 C748 1.377 . S
C749 C750 1.379 . S
C750 H734 0.931 . S
C750 C744 1.383 . S
C750 C749 1.379 . S
H751 C745 0.959 . S
H752 C745 0.961 1_556 S
H753 C745 0.960 1_556 S
H754 C746 0.930 . S
H755 C747 0.929 . S
H756 C764 0.929 . S
H757 C766 0.930 . S
H758 C768 0.930 . S
H759 C771 0.929 . S
H760 C774 0.930 . S
H761 C776 0.960 . S
H762 C776 0.960 . S
H763 C776 0.960 . S
C764 H756 0.929 . S
C764 C765 1.377 . S
C764 C766 1.384 . S
C765 C764 1.377 . S
C765 C771 1.390 . S
C766 H757 0.930 . S
C766 C764 1.384 . S
C766 C767 1.372 . S
C767 C766 1.372 . S
C767 C768 1.400 . S
C767 C772 1.490 . S
C768 H758 0.930 . S
C768 C767 1.400 . S
C768 C771 1.386 . S
H769 C785 0.930 . S
H770 C786 0.931 . S
C771 H759 0.929 . S
C771 C765 1.390 . S
C771 C768 1.386 . S
C772 C767 1.490 . S
C772 C774 1.395 . S
C772 C775 1.403 . S
H773 C779 0.930 . S
C774 H760 0.930 . S
C774 C772 1.395 . S
C774 C777 1.403 . S
C775 C772 1.403 . S
C775 C776 1.524 . S
C775 C779 1.400 . S
C776 H761 0.960 . S
C776 H762 0.960 . S
C776 H763 0.960 . S
C776 C775 1.524 . S
C777 C774 1.403 . S
C777 C778 1.392 . S
C777 C781 1.495 . S
C778 C777 1.392 . S
C778 C779 1.385 . S
C778 C780 1.478 1_554 S
C779 H773 0.930 . S
C779 C775 1.400 . S
C779 C778 1.385 . S
C780 C778 1.478 1_556 S
C780 C782 1.381 . S
C780 C786 1.383 . S
C781 C777 1.495 . S
C781 H787 0.959 . S
C781 H788 0.961 . S
C781 H789 0.960 . S
C782 C780 1.381 . S
C782 C783 1.394 . S
C782 H790 0.930 . S
C783 C782 1.394 . S
C783 C784 1.383 . S
C783 H791 0.929 . S
C784 C783 1.383 . S
C784 C785 1.377 . S
C785 H769 0.930 . S
C785 C784 1.377 . S
C785 C786 1.379 . S
C786 H770 0.931 . S
C786 C780 1.383 . S
C786 C785 1.379 . S
H787 C781 0.959 . S
H788 C781 0.961 . S
H789 C781 0.960 . S
H790 C782 0.930 . S
H791 C783 0.929 . S
H792 C800 0.929 . S
H793 C802 0.930 . S
H794 C804 0.930 . S
H795 C807 0.929 . S
H796 C810 0.930 . S
H797 C812 0.979 . S
H798 C812 0.943 1_556 S
H799 C812 0.944 1_556 S
C800 H792 0.929 . S
C800 C801 1.377 . S
C800 C802 1.384 . S
C801 C800 1.377 . S
C801 C807 1.390 . S
C802 H793 0.930 . S
C802 C800 1.384 . S
C802 C803 1.372 . S
C803 C802 1.372 . S
C803 C804 1.400 . S
C803 C808 1.490 1_556 S
C804 H794 0.930 . S
C804 C803 1.400 . S
C804 C807 1.386 . S
H805 C821 0.930 . S
H806 C822 0.931 . S
C807 H795 0.929 . S
C807 C801 1.390 . S
C807 C804 1.386 . S
C808 C803 1.490 1_554 S
C808 C810 1.395 . S
C808 C811 1.403 . S
H809 C815 0.930 . S
C810 H796 0.930 . S
C810 C808 1.395 . S
C810 C813 1.403 . S
C811 C808 1.403 . S
C811 C812 1.540 . S
C811 C815 1.400 . S
C812 H797 0.979 . S
C812 H798 0.943 1_554 S
C812 H799 0.944 1_554 S
C812 C811 1.540 . S
C813 C810 1.403 . S
C813 C814 1.392 . S
C813 C817 1.495 . S
C814 C813 1.392 . S
C814 C815 1.385 . S
C814 C816 1.478 . S
C815 H809 0.930 . S
C815 C811 1.400 . S
C815 C814 1.385 . S
C816 C814 1.478 . S
C816 C818 1.381 . S
C816 C822 1.383 . S
C817 C813 1.495 . S
C817 H823 0.959 . S
C817 H824 0.961 . S
C817 H825 0.960 . S
C818 C816 1.381 . S
C818 C819 1.394 . S
C818 H826 0.930 . S
C819 C818 1.394 . S
C819 C820 1.383 . S
C819 H827 0.929 . S
C820 C819 1.383 . S
C820 C821 1.377 . S
C821 H805 0.930 . S
C821 C820 1.377 . S
C821 C822 1.379 . S
C822 H806 0.931 . S
C822 C816 1.383 . S
C822 C821 1.379 . S
H823 C817 0.959 . S
H824 C817 0.961 . S
H825 C817 0.960 . S
H826 C818 0.930 . S
H827 C819 0.929 . S
H828 C836 0.929 . S
H829 C838 0.930 . S
H830 C840 0.930 . S
H831 C843 0.929 . S
H832 C846 0.930 . S
H833 C848 0.960 . S
H834 C848 0.960 . S
H835 C848 0.960 . S
C836 H828 0.929 . S
C836 C837 1.377 . S
C836 C838 1.384 . S
C837 C836 1.377 . S
C837 C843 1.390 . S
C838 H829 0.930 . S
C838 C836 1.384 . S
C838 C839 1.372 . S
C839 C838 1.372 . S
C839 C840 1.400 . S
C839 C844 1.490 . S
C840 H830 0.930 . S
C840 C839 1.400 . S
C840 C843 1.386 . S
H841 C857 0.930 . S
H842 C858 0.931 . S
C843 H831 0.929 . S
C843 C837 1.390 . S
C843 C840 1.386 . S
C844 C839 1.490 . S
C844 C846 1.395 . S
C844 C847 1.403 . S
H845 C851 0.930 . S
C846 H832 0.930 . S
C846 C844 1.395 . S
C846 C849 1.403 . S
C847 C844 1.403 . S
C847 C848 1.524 . S
C847 C851 1.400 . S
C848 H833 0.960 . S
C848 H834 0.960 . S
C848 H835 0.960 . S
C848 C847 1.524 . S
C849 C846 1.403 . S
C849 C850 1.392 . S
C849 C853 1.495 . S
C850 C849 1.392 . S
C850 C851 1.385 . S
C850 C852 1.478 . S
C851 H845 0.930 . S
C851 C847 1.400 . S
C851 C850 1.385 . S
C852 C850 1.478 . S
C852 C854 1.381 . S
C852 C858 1.383 . S
C853 C849 1.495 . S
C853 H859 0.959 . S
C853 H860 0.961 . S
C853 H861 0.960 . S
C854 C852 1.381 . S
C854 C855 1.394 . S
C854 H862 0.930 . S
C855 C854 1.394 . S
C855 C856 1.383 . S
C855 H863 0.929 . S
C856 C855 1.383 . S
C856 C857 1.377 . S
C857 H841 0.930 . S
C857 C856 1.377 . S
C857 C858 1.379 . S
C858 H842 0.931 . S
C858 C852 1.383 . S
C858 C857 1.379 . S
H859 C853 0.959 . S
H860 C853 0.961 . S
H861 C853 0.960 . S
H862 C854 0.930 . S
H863 C855 0.929 . S
H864 C872 0.929 . S
H865 C874 0.930 . S
H866 C876 0.930 . S
H867 C879 0.929 . S
H868 C882 0.930 . S
H869 C884 0.960 . S
H870 C884 0.960 . S
H871 C884 0.960 . S
C872 H864 0.929 . S
C872 C873 1.377 . S
C872 C874 1.384 . S
C873 C872 1.377 . S
C873 C879 1.390 . S
C874 H865 0.930 . S
C874 C872 1.384 . S
C874 C875 1.372 . S
C875 C874 1.372 . S
C875 C876 1.400 . S
C875 C880 1.490 . S
C876 H866 0.930 . S
C876 C875 1.400 . S
C876 C879 1.386 . S
H877 C893 0.930 . S
H878 C894 0.931 . S
C879 H867 0.929 . S
C879 C873 1.390 . S
C879 C876 1.386 . S
C880 C875 1.490 . S
C880 C882 1.395 . S
C880 C883 1.403 . S
H881 C887 0.930 . S
C882 H868 0.930 . S
C882 C880 1.395 . S
C882 C885 1.403 . S
C883 C880 1.403 . S
C883 C884 1.524 . S
C883 C887 1.400 . S
C884 H869 0.960 . S
C884 H870 0.960 . S
C884 H871 0.960 . S
C884 C883 1.524 . S
C885 C882 1.403 . S
C885 C886 1.392 . S
C885 C889 1.495 . S
C886 C885 1.392 . S
C886 C887 1.385 . S
C886 C888 1.478 . S
C887 H881 0.930 . S
C887 C883 1.400 . S
C887 C886 1.385 . S
C888 C886 1.478 . S
C888 C890 1.381 . S
C888 C894 1.383 . S
C889 C885 1.495 . S
C889 H895 0.959 . S
C889 H896 0.961 . S
C889 H897 0.960 . S
C890 C888 1.381 . S
C890 C891 1.394 . S
C890 H898 0.930 . S
C891 C890 1.394 . S
C891 C892 1.383 . S
C891 H899 0.929 . S
C892 C891 1.383 . S
C892 C893 1.377 . S
C893 H877 0.930 . S
C893 C892 1.377 . S
C893 C894 1.379 . S
C894 H878 0.931 . S
C894 C888 1.383 . S
C894 C893 1.379 . S
H895 C889 0.959 . S
H896 C889 0.961 . S
H897 C889 0.960 . S
H898 C890 0.930 . S
H899 C891 0.929 . S
H900 C908 0.929 . S
H901 C910 0.930 . S
H902 C912 0.930 . S
H903 C915 0.929 . S
H904 C918 0.930 . S
H905 C920 0.960 . S
H906 C920 0.960 . S
H907 C920 0.960 . S
C908 H900 0.929 . S
C908 C909 1.377 . S
C908 C910 1.384 . S
C909 C908 1.377 . S
C909 C915 1.390 . S
C910 H901 0.930 . S
C910 C908 1.384 . S
C910 C911 1.372 . S
C911 C910 1.372 . S
C911 C912 1.400 . S
C911 C916 1.490 . S
C912 H902 0.930 . S
C912 C911 1.400 . S
C912 C915 1.386 . S
H913 C929 0.930 . S
H914 C930 0.931 . S
C915 H903 0.929 . S
C915 C909 1.390 . S
C915 C912 1.386 . S
C916 C911 1.490 . S
C916 C918 1.395 . S
C916 C919 1.403 . S
H917 C923 0.930 . S
C918 H904 0.930 . S
C918 C916 1.395 . S
C918 C921 1.403 . S
C919 C916 1.403 . S
C919 C920 1.524 . S
C919 C923 1.400 . S
C920 H905 0.960 . S
C920 H906 0.960 . S
C920 H907 0.960 . S
C920 C919 1.524 . S
C921 C918 1.403 . S
C921 C922 1.392 . S
C921 C925 1.495 . S
C922 C921 1.392 . S
C922 C923 1.385 . S
C922 C924 1.478 . S
C923 H917 0.930 . S
C923 C919 1.400 . S
C923 C922 1.385 . S
C924 C922 1.478 . S
C924 C926 1.381 . S
C924 C930 1.383 . S
C925 C921 1.495 . S
C925 H931 0.959 . S
C925 H932 0.961 . S
C925 H933 0.960 . S
C926 C924 1.381 . S
C926 C927 1.394 . S
C926 H934 0.930 . S
C927 C926 1.394 . S
C927 C928 1.383 . S
C927 H935 0.929 . S
C928 C927 1.383 . S
C928 C929 1.377 . S
C929 H913 0.930 . S
C929 C928 1.377 . S
C929 C930 1.379 . S
C930 H914 0.931 . S
C930 C924 1.383 . S
C930 C929 1.379 . S
H931 C925 0.959 . S
H932 C925 0.961 . S
H933 C925 0.960 . S
H934 C926 0.930 . S
H935 C927 0.929 . S
H936 C944 0.929 . S
H937 C946 0.930 . S
H938 C948 0.930 . S
H939 C951 0.929 . S
H940 C954 0.930 . S
H941 C956 0.960 . S
H942 C956 0.960 . S
H943 C956 0.960 . S
C944 H936 0.929 . S
C944 C945 1.377 . S
C944 C946 1.384 . S
C945 C944 1.377 . S
C945 C951 1.390 . S
C946 H937 0.930 . S
C946 C944 1.384 . S
C946 C947 1.372 . S
C947 C946 1.372 . S
C947 C948 1.400 . S
C947 C952 1.490 . S
C948 H938 0.930 . S
C948 C947 1.400 . S
C948 C951 1.386 . S
H949 C965 0.930 . S
H950 C966 0.931 . S
C951 H939 0.929 . S
C951 C945 1.390 . S
C951 C948 1.386 . S
C952 C947 1.490 . S
C952 C954 1.395 . S
C952 C955 1.403 . S
H953 C959 0.930 . S
C954 H940 0.930 . S
C954 C952 1.395 . S
C954 C957 1.403 . S
C955 C952 1.403 . S
C955 C956 1.524 . S
C955 C959 1.400 . S
C956 H941 0.960 . S
C956 H942 0.960 . S
C956 H943 0.960 . S
C956 C955 1.524 . S
C957 C954 1.403 . S
C957 C958 1.392 . S
C957 C961 1.495 . S
C958 C957 1.392 . S
C958 C959 1.385 . S
C958 C960 1.478 . S
C959 H953 0.930 . S
C959 C955 1.400 . S
C959 C958 1.385 . S
C960 C958 1.478 . S
C960 C962 1.381 . S
C960 C966 1.383 . S
C961 C957 1.495 . S
C961 H967 0.959 . S
C961 H968 0.961 . S
C961 H969 0.960 . S
C962 C960 1.381 . S
C962 C963 1.394 . S
C962 H970 0.930 . S
C963 C962 1.394 . S
C963 C964 1.383 . S
C963 H971 0.929 . S
C964 C963 1.383 . S
C964 C965 1.377 . S
C965 H949 0.930 . S
C965 C964 1.377 . S
C965 C966 1.379 . S
C966 H950 0.931 . S
C966 C960 1.383 . S
C966 C965 1.379 . S
H967 C961 0.959 . S
H968 C961 0.961 . S
H969 C961 0.960 . S
H970 C962 0.930 . S
H971 C963 0.929 . S
H972 C980 0.929 . S
H973 C982 0.930 . S
H974 C984 0.930 . S
H975 C987 0.929 . S
H976 C990 0.930 . S
H977 C992 0.960 . S
H978 C992 0.960 . S
H979 C992 0.960 . S
C980 H972 0.929 . S
C980 C981 1.377 . S
C980 C982 1.384 . S
C981 C980 1.377 . S
C981 C987 1.390 . S
C982 H973 0.930 . S
C982 C980 1.384 . S
C982 C983 1.372 . S
C983 C982 1.372 . S
C983 C984 1.400 . S
C983 C988 1.490 . S
C984 H974 0.930 . S
C984 C983 1.400 . S
C984 C987 1.386 . S
H985 C1001 0.930 . S
H986 C1002 0.931 . S
C987 H975 0.929 . S
C987 C981 1.390 . S
C987 C984 1.386 . S
C988 C983 1.490 . S
C988 C990 1.395 . S
C988 C991 1.403 . S
H989 C995 0.930 . S
C990 H976 0.930 . S
C990 C988 1.395 . S
C990 C993 1.403 . S
C991 C988 1.403 . S
C991 C992 1.524 . S
C991 C995 1.400 . S
C992 H977 0.960 . S
C992 H978 0.960 . S
C992 H979 0.960 . S
C992 C991 1.524 . S
C993 C990 1.403 . S
C993 C994 1.392 . S
C993 C997 1.495 . S
C994 C993 1.392 . S
C994 C995 1.385 . S
C994 C996 1.478 . S
C995 H989 0.930 . S
C995 C991 1.400 . S
C995 C994 1.385 . S
C996 C994 1.478 . S
C996 C998 1.381 . S
C996 C1002 1.383 . S
C997 C993 1.495 . S
C997 H1003 0.959 . S
C997 H1004 0.961 . S
C997 H1005 0.960 . S
C998 C996 1.381 . S
C998 C999 1.394 . S
C998 H1006 0.930 . S
C999 C998 1.394 . S
C999 C1000 1.383 . S
C999 H1007 0.929 . S
C1000 C999 1.383 . S
C1000 C1001 1.377 . S
C1001 H985 0.930 . S
C1001 C1000 1.377 . S
C1001 C1002 1.379 . S
C1002 H986 0.931 . S
C1002 C996 1.383 . S
C1002 C1001 1.379 . S
H1003 C997 0.959 . S
H1004 C997 0.961 . S
H1005 C997 0.960 . S
H1006 C998 0.930 . S
H1007 C999 0.929 . S
H1008 C1016 0.929 . S
H1009 C1018 0.930 . S
H1010 C1020 0.930 . S
H1011 C1023 0.929 . S
H1012 C1026 0.930 . S
H1013 C1028 0.960 . S
H1014 C1028 0.960 . S
H1015 C1028 0.960 . S
C1016 H1008 0.929 . S
C1016 C1017 1.377 . S
C1016 C1018 1.384 . S
C1017 C1016 1.377 . S
C1017 C1023 1.390 . S
C1018 H1009 0.930 . S
C1018 C1016 1.384 . S
C1018 C1019 1.372 . S
C1019 C1018 1.372 . S
C1019 C1020 1.400 . S
C1019 C1024 1.490 . S
C1020 H1010 0.930 . S
C1020 C1019 1.400 . S
C1020 C1023 1.386 . S
H1021 C1037 0.930 . S
H1022 C1038 0.931 . S
C1023 H1011 0.929 . S
C1023 C1017 1.390 . S
C1023 C1020 1.386 . S
C1024 C1019 1.490 . S
C1024 C1026 1.395 . S
C1024 C1027 1.403 . S
H1025 C1031 0.930 . S
C1026 H1012 0.930 . S
C1026 C1024 1.395 . S
C1026 C1029 1.403 . S
C1027 C1024 1.403 . S
C1027 C1028 1.524 . S
C1027 C1031 1.400 . S
C1028 H1013 0.960 . S
C1028 H1014 0.960 . S
C1028 H1015 0.960 . S
C1028 C1027 1.524 . S
C1029 C1026 1.403 . S
C1029 C1030 1.392 . S
C1029 C1033 1.495 . S
C1030 C1029 1.392 . S
C1030 C1031 1.385 . S
C1030 C1032 1.478 . S
C1031 H1025 0.930 . S
C1031 C1027 1.400 . S
C1031 C1030 1.385 . S
C1032 C1030 1.478 . S
C1032 C1034 1.381 . S
C1032 C1038 1.383 . S
C1033 C1029 1.495 . S
C1033 H1039 0.959 . S
C1033 H1040 0.961 . S
C1033 H1041 0.960 . S
C1034 C1032 1.381 . S
C1034 C1035 1.394 . S
C1034 H1042 0.930 . S
C1035 C1034 1.394 . S
C1035 C1036 1.383 . S
C1035 H1043 0.929 . S
C1036 C1035 1.383 . S
C1036 C1037 1.377 . S
C1037 H1021 0.930 . S
C1037 C1036 1.377 . S
C1037 C1038 1.379 . S
C1038 H1022 0.931 . S
C1038 C1032 1.383 . S
C1038 C1037 1.379 . S
H1039 C1033 0.959 . S
H1040 C1033 0.961 . S
H1041 C1033 0.960 . S
H1042 C1034 0.930 . S
H1043 C1035 0.929 . S
H1044 C1052 0.929 . S
H1045 C1054 0.930 . S
H1046 C1056 0.930 . S
H1047 C1059 0.929 . S
H1048 C1062 0.930 . S
H1049 C1064 0.960 . S
H1050 C1064 0.960 . S
H1051 C1064 0.960 . S
C1052 H1044 0.929 . S
C1052 C1053 1.377 . S
C1052 C1054 1.384 . S
C1053 C1052 1.377 . S
C1053 C1059 1.390 . S
C1054 H1045 0.930 . S
C1054 C1052 1.384 . S
C1054 C1055 1.372 . S
C1055 C1054 1.372 . S
C1055 C1056 1.400 . S
C1055 C1060 1.490 . S
C1056 H1046 0.930 . S
C1056 C1055 1.400 . S
C1056 C1059 1.386 . S
H1057 C1073 0.930 . S
H1058 C1074 0.931 . S
C1059 H1047 0.929 . S
C1059 C1053 1.390 . S
C1059 C1056 1.386 . S
C1060 C1055 1.490 . S
C1060 C1062 1.395 . S
C1060 C1063 1.403 . S
H1061 C1067 0.930 . S
C1062 H1048 0.930 . S
C1062 C1060 1.395 . S
C1062 C1065 1.403 . S
C1063 C1060 1.403 . S
C1063 C1064 1.524 . S
C1063 C1067 1.400 . S
C1064 H1049 0.960 . S
C1064 H1050 0.960 . S
C1064 H1051 0.960 . S
C1064 C1063 1.524 . S
C1065 C1062 1.403 . S
C1065 C1066 1.392 . S
C1065 C1069 1.495 . S
C1066 C1065 1.392 . S
C1066 C1067 1.385 . S
C1066 C1068 1.478 . S
C1067 H1061 0.930 . S
C1067 C1063 1.400 . S
C1067 C1066 1.385 . S
C1068 C1066 1.478 . S
C1068 C1070 1.381 . S
C1068 C1074 1.383 . S
C1069 C1065 1.495 . S
C1069 H1075 0.959 . S
C1069 H1076 0.961 . S
C1069 H1077 0.960 . S
C1070 C1068 1.381 . S
C1070 C1071 1.394 1_556 S
C1070 H1078 0.930 . S
C1071 C1070 1.394 1_554 S
C1071 C1072 1.383 . S
C1071 H1079 0.929 . S
C1072 C1071 1.383 . S
C1072 C1073 1.377 . S
C1073 H1057 0.930 . S
C1073 C1072 1.377 . S
C1073 C1074 1.379 1_554 S
C1074 H1058 0.931 . S
C1074 C1068 1.383 . S
C1074 C1073 1.379 1_556 S
H1075 C1069 0.959 . S
H1076 C1069 0.961 . S
H1077 C1069 0.960 . S
H1078 C1070 0.930 . S
H1079 C1071 0.929 . S
H1080 C1088 0.929 . S
H1081 C1090 0.930 . S
H1082 C1092 0.930 . S
H1083 C1095 0.929 . S
H1084 C1098 0.930 . S
H1085 C1100 0.960 . S
H1086 C1100 0.960 . S
H1087 C1100 0.960 . S
C1088 H1080 0.929 . S
C1088 C1089 1.377 . S
C1088 C1090 1.384 . S
C1089 C1088 1.377 . S
C1089 C1095 1.390 . S
C1090 H1081 0.930 . S
C1090 C1088 1.384 . S
C1090 C1091 1.372 . S
C1091 C1090 1.372 . S
C1091 C1092 1.400 . S
C1091 C1096 1.490 . S
C1092 H1082 0.930 . S
C1092 C1091 1.400 . S
C1092 C1095 1.386 . S
H1093 C1109 0.930 . S
H1094 C1110 0.931 . S
C1095 H1083 0.929 . S
C1095 C1089 1.390 . S
C1095 C1092 1.386 . S
C1096 C1091 1.490 . S
C1096 C1098 1.395 . S
C1096 C1099 1.403 . S
H1097 C1103 0.930 . S
C1098 H1084 0.930 . S
C1098 C1096 1.395 . S
C1098 C1101 1.403 . S
C1099 C1096 1.403 . S
C1099 C1100 1.524 . S
C1099 C1103 1.400 . S
C1100 H1085 0.960 . S
C1100 H1086 0.960 . S
C1100 H1087 0.960 . S
C1100 C1099 1.524 . S
C1101 C1098 1.403 . S
C1101 C1102 1.392 . S
C1101 C1105 1.495 . S
C1102 C1101 1.392 . S
C1102 C1103 1.385 . S
C1102 C1104 1.478 . S
C1103 H1097 0.930 . S
C1103 C1099 1.400 . S
C1103 C1102 1.385 . S
C1104 C1102 1.478 . S
C1104 C1106 1.381 . S
C1104 C1110 1.383 . S
C1105 C1101 1.495 . S
C1105 H1111 0.959 . S
C1105 H1112 0.961 . S
C1105 H1113 0.960 . S
C1106 C1104 1.381 . S
C1106 C1107 1.394 1_556 S
C1106 H1114 0.930 . S
C1107 C1106 1.394 1_554 S
C1107 C1108 1.383 . S
C1107 H1115 0.929 . S
C1108 C1107 1.383 . S
C1108 C1109 1.377 . S
C1109 H1093 0.930 . S
C1109 C1108 1.377 . S
C1109 C1110 1.379 1_554 S
C1110 H1094 0.931 . S
C1110 C1104 1.383 . S
C1110 C1109 1.379 1_556 S
H1111 C1105 0.959 . S
H1112 C1105 0.961 . S
H1113 C1105 0.960 . S
H1114 C1106 0.930 . S
H1115 C1107 0.929 . S
H1116 C1124 0.929 . S
H1117 C1126 0.930 . S
H1118 C1128 0.930 . S
H1119 C1131 0.929 . S
H1120 C1134 0.930 . S
H1121 C1136 0.960 . S
H1122 C1136 0.960 . S
H1123 C1136 0.960 . S
C1124 H1116 0.929 . S
C1124 C1125 1.377 . S
C1124 C1126 1.384 . S
C1125 C1124 1.377 . S
C1125 C1131 1.390 . S
C1126 H1117 0.930 . S
C1126 C1124 1.384 . S
C1126 C1127 1.372 . S
C1127 C1126 1.372 . S
C1127 C1128 1.400 . S
C1127 C1132 1.490 . S
C1128 H1118 0.930 . S
C1128 C1127 1.400 . S
C1128 C1131 1.386 . S
H1129 C1145 0.930 . S
H1130 C1146 0.931 . S
C1131 H1119 0.929 . S
C1131 C1125 1.390 . S
C1131 C1128 1.386 . S
C1132 C1127 1.490 . S
C1132 C1134 1.395 . S
C1132 C1135 1.403 . S
H1133 C1139 0.930 . S
C1134 H1120 0.930 . S
C1134 C1132 1.395 . S
C1134 C1137 1.403 . S
C1135 C1132 1.403 . S
C1135 C1136 1.524 . S
C1135 C1139 1.400 . S
C1136 H1121 0.960 . S
C1136 H1122 0.960 . S
C1136 H1123 0.960 . S
C1136 C1135 1.524 . S
C1137 C1134 1.403 . S
C1137 C1138 1.392 . S
C1137 C1141 1.495 . S
C1138 C1137 1.392 . S
C1138 C1139 1.385 . S
C1138 C1140 1.478 . S
C1139 H1133 0.930 . S
C1139 C1135 1.400 . S
C1139 C1138 1.385 . S
C1140 C1138 1.478 . S
C1140 C1142 1.381 . S
C1140 C1146 1.383 . S
C1141 C1137 1.495 . S
C1141 H1147 0.959 . S
C1141 H1148 0.961 . S
C1141 H1149 0.960 . S
C1142 C1140 1.381 . S
C1142 C1143 1.394 1_556 S
C1142 H1150 0.930 . S
C1143 C1142 1.394 1_554 S
C1143 C1144 1.383 . S
C1143 H1151 0.929 . S
C1144 C1143 1.383 . S
C1144 C1145 1.377 . S
C1145 H1129 0.930 . S
C1145 C1144 1.377 . S
C1145 C1146 1.379 1_554 S
C1146 H1130 0.931 . S
C1146 C1140 1.383 . S
C1146 C1145 1.379 1_556 S
H1147 C1141 0.959 . S
H1148 C1141 0.961 . S
H1149 C1141 0.960 . S
H1150 C1142 0.930 . S
H1151 C1143 0.929 . S
H1152 C1160 0.929 . S
H1153 C1162 0.930 . S
H1154 C1164 0.930 . S
H1155 C1167 0.929 . S
H1156 C1170 0.930 . S
H1157 C1172 0.960 . S
H1158 C1172 0.960 . S
H1159 C1172 0.960 . S
C1160 H1152 0.929 . S
C1160 C1161 1.377 . S
C1160 C1162 1.384 . S
C1161 C1160 1.377 . S
C1161 C1167 1.390 . S
C1162 H1153 0.930 . S
C1162 C1160 1.384 . S
C1162 C1163 1.372 . S
C1163 C1162 1.372 . S
C1163 C1164 1.400 . S
C1163 C1168 1.490 . S
C1164 H1154 0.930 . S
C1164 C1163 1.400 . S
C1164 C1167 1.386 . S
H1165 C1181 0.930 . S
H1166 C1182 0.931 . S
C1167 H1155 0.929 . S
C1167 C1161 1.390 . S
C1167 C1164 1.386 . S
C1168 C1163 1.490 . S
C1168 C1170 1.395 . S
C1168 C1171 1.403 . S
H1169 C1175 0.930 . S
C1170 H1156 0.930 . S
C1170 C1168 1.395 . S
C1170 C1173 1.403 . S
C1171 C1168 1.403 . S
C1171 C1172 1.524 . S
C1171 C1175 1.400 . S
C1172 H1157 0.960 . S
C1172 H1158 0.960 . S
C1172 H1159 0.960 . S
C1172 C1171 1.524 . S
C1173 C1170 1.403 . S
C1173 C1174 1.392 . S
C1173 C1177 1.495 . S
C1174 C1173 1.392 . S
C1174 C1175 1.385 . S
C1174 C1176 1.478 . S
C1175 H1169 0.930 . S
C1175 C1171 1.400 . S
C1175 C1174 1.385 . S
C1176 C1174 1.478 . S
C1176 C1178 1.381 . S
C1176 C1182 1.383 . S
C1177 C1173 1.495 . S
C1177 H1183 0.959 . S
C1177 H1184 0.961 . S
C1177 H1185 0.960 . S
C1178 C1176 1.381 . S
C1178 C1179 1.394 . S
C1178 H1186 0.930 . S
C1179 C1178 1.394 . S
C1179 C1180 1.383 . S
C1179 H1187 0.929 . S
C1180 C1179 1.383 . S
C1180 C1181 1.377 . S
C1181 H1165 0.930 . S
C1181 C1180 1.377 . S
C1181 C1182 1.379 . S
C1182 H1166 0.931 . S
C1182 C1176 1.383 . S
C1182 C1181 1.379 . S
H1183 C1177 0.959 . S
H1184 C1177 0.961 . S
H1185 C1177 0.960 . S
H1186 C1178 0.930 . S
H1187 C1179 0.929 . S
H1188 C1196 0.929 . S
H1189 C1198 0.930 . S
H1190 C1200 0.930 . S
H1191 C1203 0.929 . S
H1192 C1206 0.930 . S
H1193 C1208 0.960 . S
H1194 C1208 0.960 . S
H1195 C1208 0.960 . S
C1196 H1188 0.929 . S
C1196 C1197 1.377 . S
C1196 C1198 1.384 . S
C1197 C1196 1.377 . S
C1197 C1203 1.390 . S
C1198 H1189 0.930 . S
C1198 C1196 1.384 . S
C1198 C1199 1.372 . S
C1199 C1198 1.372 . S
C1199 C1200 1.400 . S
C1199 C1204 1.490 . S
C1200 H1190 0.930 . S
C1200 C1199 1.400 . S
C1200 C1203 1.386 . S
H1201 C1217 0.930 . S
H1202 C1218 0.931 . S
C1203 H1191 0.929 . S
C1203 C1197 1.390 . S
C1203 C1200 1.386 . S
C1204 C1199 1.490 . S
C1204 C1206 1.395 . S
C1204 C1207 1.403 . S
H1205 C1211 0.930 . S
C1206 H1192 0.930 . S
C1206 C1204 1.395 . S
C1206 C1209 1.403 . S
C1207 C1204 1.403 . S
C1207 C1208 1.524 . S
C1207 C1211 1.400 . S
C1208 H1193 0.960 . S
C1208 H1194 0.960 . S
C1208 H1195 0.960 . S
C1208 C1207 1.524 . S
C1209 C1206 1.403 . S
C1209 C1210 1.392 . S
C1209 C1213 1.495 . S
C1210 C1209 1.392 . S
C1210 C1211 1.385 . S
C1210 C1212 1.478 . S
C1211 H1205 0.930 . S
C1211 C1207 1.400 . S
C1211 C1210 1.385 . S
C1212 C1210 1.478 . S
C1212 C1214 1.381 . S
C1212 C1218 1.383 . S
C1213 C1209 1.495 . S
C1213 H1219 0.959 . S
C1213 H1220 0.961 . S
C1213 H1221 0.960 . S
C1214 C1212 1.381 . S
C1214 C1215 1.394 . S
C1214 H1222 0.930 . S
C1215 C1214 1.394 . S
C1215 C1216 1.383 . S
C1215 H1223 0.929 . S
C1216 C1215 1.383 . S
C1216 C1217 1.377 . S
C1217 H1201 0.930 . S
C1217 C1216 1.377 . S
C1217 C1218 1.379 . S
C1218 H1202 0.931 . S
C1218 C1212 1.383 . S
C1218 C1217 1.379 . S
H1219 C1213 0.959 . S
H1220 C1213 0.961 . S
H1221 C1213 0.960 . S
H1222 C1214 0.930 . S
H1223 C1215 0.929 . S
H1224 C1232 0.929 . S
H1225 C1234 0.930 . S
H1226 C1236 0.930 . S
H1227 C1239 0.929 . S
H1228 C1242 0.930 . S
H1229 C1244 0.960 . S
H1230 C1244 0.960 . S
H1231 C1244 0.960 . S
C1232 H1224 0.929 . S
C1232 C1233 1.377 . S
C1232 C1234 1.384 . S
C1233 C1232 1.377 . S
C1233 C1239 1.390 . S
C1234 H1225 0.930 . S
C1234 C1232 1.384 . S
C1234 C1235 1.372 . S
C1235 C1234 1.372 . S
C1235 C1236 1.400 . S
C1235 C1240 1.490 . S
C1236 H1226 0.930 . S
C1236 C1235 1.400 . S
C1236 C1239 1.386 . S
H1237 C1253 0.930 . S
H1238 C1254 0.931 . S
C1239 H1227 0.929 . S
C1239 C1233 1.390 . S
C1239 C1236 1.386 . S
C1240 C1235 1.490 . S
C1240 C1242 1.395 . S
C1240 C1243 1.403 . S
H1241 C1247 0.930 . S
C1242 H1228 0.930 . S
C1242 C1240 1.395 . S
C1242 C1245 1.403 . S
C1243 C1240 1.403 . S
C1243 C1244 1.524 . S
C1243 C1247 1.400 . S
C1244 H1229 0.960 . S
C1244 H1230 0.960 . S
C1244 H1231 0.960 . S
C1244 C1243 1.524 . S
C1245 C1242 1.403 . S
C1245 C1246 1.392 . S
C1245 C1249 1.495 . S
C1246 C1245 1.392 . S
C1246 C1247 1.385 . S
C1246 C1248 1.478 . S
C1247 H1241 0.930 . S
C1247 C1243 1.400 . S
C1247 C1246 1.385 . S
C1248 C1246 1.478 . S
C1248 C1250 1.381 . S
C1248 C1254 1.383 . S
C1249 C1245 1.495 . S
C1249 H1255 0.959 . S
C1249 H1256 0.961 . S
C1249 H1257 0.960 . S
C1250 C1248 1.381 . S
C1250 C1251 1.394 . S
C1250 H1258 0.930 . S
C1251 C1250 1.394 . S
C1251 C1252 1.383 . S
C1251 H1259 0.929 . S
C1252 C1251 1.383 . S
C1252 C1253 1.377 . S
C1253 H1237 0.930 . S
C1253 C1252 1.377 . S
C1253 C1254 1.379 . S
C1254 H1238 0.931 . S
C1254 C1248 1.383 . S
C1254 C1253 1.379 . S
H1255 C1249 0.959 . S
H1256 C1249 0.961 . S
H1257 C1249 0.960 . S
H1258 C1250 0.930 . S
H1259 C1251 0.929 . S
H1260 C1268 0.929 . S
H1261 C1270 0.930 . S
H1262 C1272 0.930 . S
H1263 C1275 0.929 . S
H1264 C1278 0.930 . S
H1265 C1280 0.960 . S
H1266 C1280 0.960 . S
H1267 C1280 0.960 . S
C1268 H1260 0.929 . S
C1268 C1269 1.377 . S
C1268 C1270 1.384 . S
C1269 C1268 1.377 . S
C1269 C1275 1.390 . S
C1270 H1261 0.930 . S
C1270 C1268 1.384 . S
C1270 C1271 1.372 . S
C1271 C1270 1.372 . S
C1271 C1272 1.400 . S
C1271 C1276 1.490 . S
C1272 H1262 0.930 . S
C1272 C1271 1.400 . S
C1272 C1275 1.386 . S
H1273 C1289 0.930 . S
H1274 C1290 0.931 . S
C1275 H1263 0.929 . S
C1275 C1269 1.390 . S
C1275 C1272 1.386 . S
C1276 C1271 1.490 . S
C1276 C1278 1.395 . S
C1276 C1279 1.403 . S
H1277 C1283 0.930 . S
C1278 H1264 0.930 . S
C1278 C1276 1.395 . S
C1278 C1281 1.403 . S
C1279 C1276 1.403 . S
C1279 C1280 1.524 . S
C1279 C1283 1.400 . S
C1280 H1265 0.960 . S
C1280 H1266 0.960 . S
C1280 H1267 0.960 . S
C1280 C1279 1.524 . S
C1281 C1278 1.403 . S
C1281 C1282 1.392 . S
C1281 C1285 1.495 . S
C1282 C1281 1.392 . S
C1282 C1283 1.385 . S
C1282 C1284 1.478 . S
C1283 H1277 0.930 . S
C1283 C1279 1.400 . S
C1283 C1282 1.385 . S
C1284 C1282 1.478 . S
C1284 C1286 1.381 . S
C1284 C1290 1.383 . S
C1285 C1281 1.495 . S
C1285 H1291 0.959 . S
C1285 H1292 0.961 . S
C1285 H1293 0.960 . S
C1286 C1284 1.381 . S
C1286 C1287 1.394 . S
C1286 H1294 0.930 . S
C1287 C1286 1.394 . S
C1287 C1288 1.383 . S
C1287 H1295 0.929 . S
C1288 C1287 1.383 . S
C1288 C1289 1.377 . S
C1289 H1273 0.930 . S
C1289 C1288 1.377 . S
C1289 C1290 1.379 . S
C1290 H1274 0.931 . S
C1290 C1284 1.383 . S
C1290 C1289 1.379 . S
H1291 C1285 0.959 . S
H1292 C1285 0.961 . S
H1293 C1285 0.960 . S
H1294 C1286 0.930 . S
H1295 C1287 0.929 . S
H1296 C1304 0.929 . S
H1297 C1306 0.930 . S
H1298 C1308 0.930 . S
H1299 C1311 0.929 . S
H1300 C1314 0.930 . S
H1301 C1316 0.960 . S
H1302 C1316 0.960 . S
H1303 C1316 0.960 . S
C1304 H1296 0.929 . S
C1304 C1305 1.377 . S
C1304 C1306 1.384 . S
C1305 C1304 1.377 . S
C1305 C1311 1.390 . S
C1306 H1297 0.930 . S
C1306 C1304 1.384 . S
C1306 C1307 1.372 . S
C1307 C1306 1.372 . S
C1307 C1308 1.400 . S
C1307 C1312 1.490 . S
C1308 H1298 0.930 . S
C1308 C1307 1.400 . S
C1308 C1311 1.386 . S
H1309 C1325 0.930 . S
H1310 C1326 0.931 . S
C1311 H1299 0.929 . S
C1311 C1305 1.390 . S
C1311 C1308 1.386 . S
C1312 C1307 1.490 . S
C1312 C1314 1.395 . S
C1312 C1315 1.403 . S
H1313 C1319 0.930 . S
C1314 H1300 0.930 . S
C1314 C1312 1.395 . S
C1314 C1317 1.403 . S
C1315 C1312 1.403 . S
C1315 C1316 1.524 . S
C1315 C1319 1.400 . S
C1316 H1301 0.960 . S
C1316 H1302 0.960 . S
C1316 H1303 0.960 . S
C1316 C1315 1.524 . S
C1317 C1314 1.403 . S
C1317 C1318 1.392 . S
C1317 C1321 1.495 . S
C1318 C1317 1.392 . S
C1318 C1319 1.385 . S
C1318 C1320 1.478 . S
C1319 H1313 0.930 . S
C1319 C1315 1.400 . S
C1319 C1318 1.385 . S
C1320 C1318 1.478 . S
C1320 C1322 1.381 . S
C1320 C1326 1.383 . S
C1321 C1317 1.495 . S
C1321 H1327 0.959 . S
C1321 H1328 0.961 . S
C1321 H1329 0.960 . S
C1322 C1320 1.381 . S
C1322 C1323 1.394 . S
C1322 H1330 0.930 . S
C1323 C1322 1.394 . S
C1323 C1324 1.383 . S
C1323 H1331 0.929 . S
C1324 C1323 1.383 . S
C1324 C1325 1.377 . S
C1325 H1309 0.930 . S
C1325 C1324 1.377 . S
C1325 C1326 1.379 . S
C1326 H1310 0.931 . S
C1326 C1320 1.383 . S
C1326 C1325 1.379 . S
H1327 C1321 0.959 . S
H1328 C1321 0.961 . S
H1329 C1321 0.960 . S
H1330 C1322 0.930 . S
H1331 C1323 0.929 . S
H1332 C1340 0.929 . S
H1333 C1342 0.930 . S
H1334 C1344 0.930 . S
H1335 C1347 0.929 . S
H1336 C1350 0.930 . S
H1337 C1352 0.960 . S
H1338 C1352 0.960 . S
H1339 C1352 0.960 . S
C1340 H1332 0.929 . S
C1340 C1341 1.377 . S
C1340 C1342 1.384 . S
C1341 C1340 1.377 . S
C1341 C1347 1.390 . S
C1342 H1333 0.930 . S
C1342 C1340 1.384 . S
C1342 C1343 1.372 . S
C1343 C1342 1.372 . S
C1343 C1344 1.400 . S
C1343 C1348 1.490 . S
C1344 H1334 0.930 . S
C1344 C1343 1.400 . S
C1344 C1347 1.386 . S
H1345 C1361 0.930 . S
H1346 C1362 0.931 . S
C1347 H1335 0.929 . S
C1347 C1341 1.390 . S
C1347 C1344 1.386 . S
C1348 C1343 1.490 . S
C1348 C1350 1.395 . S
C1348 C1351 1.403 . S
H1349 C1355 0.930 . S
C1350 H1336 0.930 . S
C1350 C1348 1.395 . S
C1350 C1353 1.403 . S
C1351 C1348 1.403 . S
C1351 C1352 1.524 . S
C1351 C1355 1.400 . S
C1352 H1337 0.960 . S
C1352 H1338 0.960 . S
C1352 H1339 0.960 . S
C1352 C1351 1.524 . S
C1353 C1350 1.403 . S
C1353 C1354 1.392 . S
C1353 C1357 1.495 . S
C1354 C1353 1.392 . S
C1354 C1355 1.385 . S
C1354 C1356 1.478 . S
C1355 H1349 0.930 . S
C1355 C1351 1.400 . S
C1355 C1354 1.385 . S
C1356 C1354 1.478 . S
C1356 C1358 1.381 . S
C1356 C1362 1.383 . S
C1357 C1353 1.495 . S
C1357 H1363 0.959 . S
C1357 H1364 0.961 . S
C1357 H1365 0.960 . S
C1358 C1356 1.381 . S
C1358 C1359 1.394 . S
C1358 H1366 0.930 . S
C1359 C1358 1.394 . S
C1359 C1360 1.383 . S
C1359 H1367 0.929 . S
C1360 C1359 1.383 . S
C1360 C1361 1.377 . S
C1361 H1345 0.930 . S
C1361 C1360 1.377 . S
C1361 C1362 1.379 . S
C1362 H1346 0.931 . S
C1362 C1356 1.383 . S
C1362 C1361 1.379 . S
H1363 C1357 0.959 . S
H1364 C1357 0.961 . S
H1365 C1357 0.960 . S
H1366 C1358 0.930 . S
H1367 C1359 0.929 . S
H1368 C1376 0.929 . S
H1369 C1378 0.930 . S
H1370 C1380 0.930 . S
H1371 C1383 0.929 . S
H1372 C1386 0.930 . S
H1373 C1388 0.960 . S
H1374 C1388 0.960 . S
H1375 C1388 0.960 . S
C1376 H1368 0.929 . S
C1376 C1377 1.377 . S
C1376 C1378 1.384 . S
C1377 C1376 1.377 . S
C1377 C1383 1.390 . S
C1378 H1369 0.930 . S
C1378 C1376 1.384 . S
C1378 C1379 1.372 . S
C1379 C1378 1.372 . S
C1379 C1380 1.400 . S
C1379 C1384 1.490 . S
C1380 H1370 0.930 . S
C1380 C1379 1.400 . S
C1380 C1383 1.386 . S
H1381 C1397 0.930 . S
H1382 C1398 0.931 . S
C1383 H1371 0.929 . S
C1383 C1377 1.390 . S
C1383 C1380 1.386 . S
C1384 C1379 1.490 . S
C1384 C1386 1.395 . S
C1384 C1387 1.403 . S
H1385 C1391 0.930 . S
C1386 H1372 0.930 . S
C1386 C1384 1.395 . S
C1386 C1389 1.403 . S
C1387 C1384 1.403 . S
C1387 C1388 1.524 . S
C1387 C1391 1.400 . S
C1388 H1373 0.960 . S
C1388 H1374 0.960 . S
C1388 H1375 0.960 . S
C1388 C1387 1.524 . S
C1389 C1386 1.403 . S
C1389 C1390 1.392 . S
C1389 C1393 1.495 . S
C1390 C1389 1.392 . S
C1390 C1391 1.385 . S
C1390 C1392 1.478 . S
C1391 H1385 0.930 . S
C1391 C1387 1.400 . S
C1391 C1390 1.385 . S
C1392 C1390 1.478 . S
C1392 C1394 1.381 . S
C1392 C1398 1.383 . S
C1393 C1389 1.495 . S
C1393 H1399 0.959 . S
C1393 H1400 0.961 . S
C1393 H1401 0.960 . S
C1394 C1392 1.381 . S
C1394 C1395 1.394 . S
C1394 H1402 0.930 . S
C1395 C1394 1.394 . S
C1395 C1396 1.383 . S
C1395 H1403 0.929 . S
C1396 C1395 1.383 . S
C1396 C1397 1.377 . S
C1397 H1381 0.930 . S
C1397 C1396 1.377 . S
C1397 C1398 1.379 . S
C1398 H1382 0.931 . S
C1398 C1392 1.383 . S
C1398 C1397 1.379 . S
H1399 C1393 0.959 . S
H1400 C1393 0.961 . S
H1401 C1393 0.960 . S
H1402 C1394 0.930 . S
H1403 C1395 0.929 . S
H1404 C1412 0.929 . S
H1405 C1414 0.930 . S
H1406 C1416 0.930 . S
H1407 C1419 0.929 . S
H1408 C1422 0.930 . S
H1409 C1424 0.960 . S
H1410 C1424 0.960 . S
H1411 C1424 0.960 . S
C1412 H1404 0.929 . S
C1412 C1413 1.377 . S
C1412 C1414 1.384 . S
C1413 C1412 1.377 . S
C1413 C1419 1.390 . S
C1414 H1405 0.930 . S
C1414 C1412 1.384 . S
C1414 C1415 1.372 . S
C1415 C1414 1.372 . S
C1415 C1416 1.400 . S
C1415 C1420 1.490 . S
C1416 H1406 0.930 . S
C1416 C1415 1.400 . S
C1416 C1419 1.386 . S
H1417 C1433 0.930 . S
H1418 C1434 0.931 . S
C1419 H1407 0.929 . S
C1419 C1413 1.390 . S
C1419 C1416 1.386 . S
C1420 C1415 1.490 . S
C1420 C1422 1.395 . S
C1420 C1423 1.403 . S
H1421 C1427 0.930 . S
C1422 H1408 0.930 . S
C1422 C1420 1.395 . S
C1422 C1425 1.403 . S
C1423 C1420 1.403 . S
C1423 C1424 1.524 . S
C1423 C1427 1.400 . S
C1424 H1409 0.960 . S
C1424 H1410 0.960 . S
C1424 H1411 0.960 . S
C1424 C1423 1.524 . S
C1425 C1422 1.403 . S
C1425 C1426 1.392 . S
C1425 C1429 1.495 . S
C1426 C1425 1.392 . S
C1426 C1427 1.385 . S
C1426 C1428 1.478 . S
C1427 H1421 0.930 . S
C1427 C1423 1.400 . S
C1427 C1426 1.385 . S
C1428 C1426 1.478 . S
C1428 C1430 1.381 . S
C1428 C1434 1.383 . S
C1429 C1425 1.495 . S
C1429 H1435 0.959 . S
C1429 H1436 0.961 . S
C1429 H1437 0.960 . S
C1430 C1428 1.381 . S
C1430 C1431 1.394 . S
C1430 H1438 0.930 . S
C1431 C1430 1.394 . S
C1431 C1432 1.383 . S
C1431 H1439 0.929 . S
C1432 C1431 1.383 . S
C1432 C1433 1.377 . S
C1433 H1417 0.930 . S
C1433 C1432 1.377 . S
C1433 C1434 1.379 . S
C1434 H1418 0.931 . S
C1434 C1428 1.383 . S
C1434 C1433 1.379 . S
H1435 C1429 0.959 . S
H1436 C1429 0.961 . S
H1437 C1429 0.960 . S
H1438 C1430 0.930 . S
H1439 C1431 0.929 . S
H1440 C1448 0.929 . S
H1441 C1450 0.930 . S
H1442 C1452 0.930 . S
H1443 C1455 0.929 . S
H1444 C1458 0.930 . S
H1445 C1460 0.960 . S
H1446 C1460 0.960 . S
H1447 C1460 0.960 . S
C1448 H1440 0.929 . S
C1448 C1449 1.377 . S
C1448 C1450 1.384 . S
C1449 C1448 1.377 . S
C1449 C1455 1.390 . S
C1450 H1441 0.930 . S
C1450 C1448 1.384 . S
C1450 C1451 1.372 . S
C1451 C1450 1.372 . S
C1451 C1452 1.400 . S
C1451 C1456 1.490 . S
C1452 H1442 0.930 . S
C1452 C1451 1.400 . S
C1452 C1455 1.386 . S
H1453 C1469 0.930 . S
H1454 C1470 0.931 . S
C1455 H1443 0.929 . S
C1455 C1449 1.390 . S
C1455 C1452 1.386 . S
C1456 C1451 1.490 . S
C1456 C1458 1.395 . S
C1456 C1459 1.403 . S
H1457 C1463 0.930 . S
C1458 H1444 0.930 . S
C1458 C1456 1.395 . S
C1458 C1461 1.403 . S
C1459 C1456 1.403 . S
C1459 C1460 1.524 . S
C1459 C1463 1.400 . S
C1460 H1445 0.960 . S
C1460 H1446 0.960 . S
C1460 H1447 0.960 . S
C1460 C1459 1.524 . S
C1461 C1458 1.403 . S
C1461 C1462 1.392 . S
C1461 C1465 1.495 . S
C1462 C1461 1.392 . S
C1462 C1463 1.385 . S
C1462 C1464 1.478 . S
C1463 H1457 0.930 . S
C1463 C1459 1.400 . S
C1463 C1462 1.385 . S
C1464 C1462 1.478 . S
C1464 C1466 1.381 . S
C1464 C1470 1.383 . S
C1465 C1461 1.495 . S
C1465 H1471 0.959 . S
C1465 H1472 0.961 . S
C1465 H1473 0.960 . S
C1466 C1464 1.381 . S
C1466 C1467 1.394 . S
C1466 H1474 0.930 . S
C1467 C1466 1.394 . S
C1467 C1468 1.383 . S
C1467 H1475 0.929 . S
C1468 C1467 1.383 . S
C1468 C1469 1.377 . S
C1469 H1453 0.930 . S
C1469 C1468 1.377 . S
C1469 C1470 1.379 . S
C1470 H1454 0.931 . S
C1470 C1464 1.383 . S
C1470 C1469 1.379 . S
H1471 C1465 0.959 . S
H1472 C1465 0.961 . S
H1473 C1465 0.960 . S
H1474 C1466 0.930 . S
H1475 C1467 0.929 . S
H1476 C1484 0.929 . S
H1477 C1486 0.930 . S
H1478 C1488 0.930 . S
H1479 C1491 0.929 . S
H1480 C1494 0.930 . S
H1481 C1496 0.960 . S
H1482 C1496 0.960 . S
H1483 C1496 0.960 . S
C1484 H1476 0.929 . S
C1484 C1485 1.377 . S
C1484 C1486 1.384 . S
C1485 C1484 1.377 . S
C1485 C1491 1.390 . S
C1486 H1477 0.930 . S
C1486 C1484 1.384 . S
C1486 C1487 1.372 . S
C1487 C1486 1.372 . S
C1487 C1488 1.400 . S
C1487 C1492 1.490 . S
C1488 H1478 0.930 . S
C1488 C1487 1.400 . S
C1488 C1491 1.386 . S
H1489 C1505 0.930 . S
H1490 C1506 0.931 . S
C1491 H1479 0.929 . S
C1491 C1485 1.390 . S
C1491 C1488 1.386 . S
C1492 C1487 1.490 . S
C1492 C1494 1.395 . S
C1492 C1495 1.403 . S
H1493 C1499 0.930 . S
C1494 H1480 0.930 . S
C1494 C1492 1.395 . S
C1494 C1497 1.403 . S
C1495 C1492 1.403 . S
C1495 C1496 1.524 . S
C1495 C1499 1.400 . S
C1496 H1481 0.960 . S
C1496 H1482 0.960 . S
C1496 H1483 0.960 . S
C1496 C1495 1.524 . S
C1497 C1494 1.403 . S
C1497 C1498 1.392 . S
C1497 C1501 1.495 . S
C1498 C1497 1.392 . S
C1498 C1499 1.385 . S
C1498 C1500 1.478 . S
C1499 H1493 0.930 . S
C1499 C1495 1.400 . S
C1499 C1498 1.385 . S
C1500 C1498 1.478 . S
C1500 C1502 1.381 . S
C1500 C1506 1.383 . S
C1501 C1497 1.495 . S
C1501 H1507 0.959 . S
C1501 H1508 0.961 . S
C1501 H1509 0.960 . S
C1502 C1500 1.381 . S
C1502 C1503 1.394 . S
C1502 H1510 0.930 . S
C1503 C1502 1.394 . S
C1503 C1504 1.383 . S
C1503 H1511 0.929 . S
C1504 C1503 1.383 . S
C1504 C1505 1.377 . S
C1505 H1489 0.930 . S
C1505 C1504 1.377 . S
C1505 C1506 1.379 . S
C1506 H1490 0.931 . S
C1506 C1500 1.383 . S
C1506 C1505 1.379 . S
H1507 C1501 0.959 . S
H1508 C1501 0.961 . S
H1509 C1501 0.960 . S
H1510 C1502 0.930 . S
H1511 C1503 0.929 . S
H1512 C1520 0.929 . S
H1513 C1522 0.930 . S
H1514 C1524 0.930 . S
H1515 C1527 0.929 . S
H1516 C1530 0.930 . S
H1517 C1532 0.960 . S
H1518 C1532 0.960 . S
H1519 C1532 0.960 . S
C1520 H1512 0.929 . S
C1520 C1521 1.377 . S
C1520 C1522 1.384 . S
C1521 C1520 1.377 . S
C1521 C1527 1.390 . S
C1522 H1513 0.930 . S
C1522 C1520 1.384 . S
C1522 C1523 1.372 . S
C1523 C1522 1.372 . S
C1523 C1524 1.400 . S
C1523 C1528 1.490 . S
C1524 H1514 0.930 . S
C1524 C1523 1.400 . S
C1524 C1527 1.386 . S
H1525 C1541 0.930 . S
H1526 C1542 0.931 . S
C1527 H1515 0.929 . S
C1527 C1521 1.390 . S
C1527 C1524 1.386 . S
C1528 C1523 1.490 . S
C1528 C1530 1.395 . S
C1528 C1531 1.403 . S
H1529 C1535 0.930 . S
C1530 H1516 0.930 . S
C1530 C1528 1.395 . S
C1530 C1533 1.403 . S
C1531 C1528 1.403 . S
C1531 C1532 1.524 . S
C1531 C1535 1.400 . S
C1532 H1517 0.960 . S
C1532 H1518 0.960 . S
C1532 H1519 0.960 . S
C1532 C1531 1.524 . S
C1533 C1530 1.403 . S
C1533 C1534 1.392 . S
C1533 C1537 1.495 . S
C1534 C1533 1.392 . S
C1534 C1535 1.385 . S
C1534 C1536 1.478 . S
C1535 H1529 0.930 . S
C1535 C1531 1.400 . S
C1535 C1534 1.385 . S
C1536 C1534 1.478 . S
C1536 C1538 1.381 . S
C1536 C1542 1.383 . S
C1537 C1533 1.495 . S
C1537 H1543 0.959 . S
C1537 H1544 0.961 . S
C1537 H1545 0.960 . S
C1538 C1536 1.381 . S
C1538 C1539 1.394 . S
C1538 H1546 0.930 . S
C1539 C1538 1.394 . S
C1539 C1540 1.383 . S
C1539 H1547 0.929 . S
C1540 C1539 1.383 . S
C1540 C1541 1.377 . S
C1541 H1525 0.930 . S
C1541 C1540 1.377 . S
C1541 C1542 1.379 . S
C1542 H1526 0.931 . S
C1542 C1536 1.383 . S
C1542 C1541 1.379 . S
H1543 C1537 0.959 . S
H1544 C1537 0.961 . S
H1545 C1537 0.960 . S
H1546 C1538 0.930 . S
H1547 C1539 0.929 . S
H1548 C1556 0.929 . S
H1549 C1558 0.930 . S
H1550 C1560 0.930 . S
H1551 C1563 0.929 . S
H1552 C1566 0.930 . S
H1553 C1568 0.960 . S
H1554 C1568 0.960 . S
H1555 C1568 0.960 . S
C1556 H1548 0.929 . S
C1556 C1557 1.377 . S
C1556 C1558 1.384 . S
C1557 C1556 1.377 . S
C1557 C1563 1.390 . S
C1558 H1549 0.930 . S
C1558 C1556 1.384 . S
C1558 C1559 1.372 . S
C1559 C1558 1.372 . S
C1559 C1560 1.400 . S
C1559 C1564 1.490 . S
C1560 H1550 0.930 . S
C1560 C1559 1.400 . S
C1560 C1563 1.386 . S
H1561 C1577 0.930 . S
H1562 C1578 0.931 . S
C1563 H1551 0.929 . S
C1563 C1557 1.390 . S
C1563 C1560 1.386 . S
C1564 C1559 1.490 . S
C1564 C1566 1.395 . S
C1564 C1567 1.403 . S
H1565 C1571 0.930 . S
C1566 H1552 0.930 . S
C1566 C1564 1.395 . S
C1566 C1569 1.403 . S
C1567 C1564 1.403 . S
C1567 C1568 1.524 . S
C1567 C1571 1.400 . S
C1568 H1553 0.960 . S
C1568 H1554 0.960 . S
C1568 H1555 0.960 . S
C1568 C1567 1.524 . S
C1569 C1566 1.403 . S
C1569 C1570 1.392 . S
C1569 C1573 1.495 . S
C1570 C1569 1.392 . S
C1570 C1571 1.385 . S
C1570 C1572 1.478 . S
C1571 H1565 0.930 . S
C1571 C1567 1.400 . S
C1571 C1570 1.385 . S
C1572 C1570 1.478 . S
C1572 C1574 1.381 . S
C1572 C1578 1.383 . S
C1573 C1569 1.495 . S
C1573 H1579 0.959 . S
C1573 H1580 0.961 . S
C1573 H1581 0.960 . S
C1574 C1572 1.381 . S
C1574 C1575 1.394 . S
C1574 H1582 0.930 . S
C1575 C1574 1.394 . S
C1575 C1576 1.383 . S
C1575 H1583 0.929 . S
C1576 C1575 1.383 . S
C1576 C1577 1.377 . S
C1577 H1561 0.930 . S
C1577 C1576 1.377 . S
C1577 C1578 1.379 . S
C1578 H1562 0.931 . S
C1578 C1572 1.383 . S
C1578 C1577 1.379 . S
H1579 C1573 0.959 . S
H1580 C1573 0.961 . S
H1581 C1573 0.960 . S
H1582 C1574 0.930 . S
H1583 C1575 0.929 . S
H1584 C1592 0.929 . S
H1585 C1594 0.930 . S
H1586 C1596 0.930 . S
H1587 C1599 0.929 . S
H1588 C1602 0.930 . S
H1589 C1604 0.960 . S
H1590 C1604 0.960 . S
H1591 C1604 0.960 . S
C1592 H1584 0.929 . S
C1592 C1593 1.377 . S
C1592 C1594 1.384 . S
C1593 C1592 1.377 . S
C1593 C1599 1.390 . S
C1594 H1585 0.930 . S
C1594 C1592 1.384 . S
C1594 C1595 1.372 . S
C1595 C1594 1.372 . S
C1595 C1596 1.400 . S
C1595 C1600 1.490 . S
C1596 H1586 0.930 . S
C1596 C1595 1.400 . S
C1596 C1599 1.386 . S
H1597 C1613 0.930 . S
H1598 C1614 0.931 . S
C1599 H1587 0.929 . S
C1599 C1593 1.390 . S
C1599 C1596 1.386 . S
C1600 C1595 1.490 . S
C1600 C1602 1.395 . S
C1600 C1603 1.403 . S
H1601 C1607 0.930 . S
C1602 H1588 0.930 . S
C1602 C1600 1.395 . S
C1602 C1605 1.403 . S
C1603 C1600 1.403 . S
C1603 C1604 1.524 . S
C1603 C1607 1.400 . S
C1604 H1589 0.960 . S
C1604 H1590 0.960 . S
C1604 H1591 0.960 . S
C1604 C1603 1.524 . S
C1605 C1602 1.403 . S
C1605 C1606 1.392 . S
C1605 C1609 1.495 . S
C1606 C1605 1.392 . S
C1606 C1607 1.385 . S
C1606 C1608 1.478 . S
C1607 H1601 0.930 . S
C1607 C1603 1.400 . S
C1607 C1606 1.385 . S
C1608 C1606 1.478 . S
C1608 C1610 1.381 . S
C1608 C1614 1.383 . S
C1609 C1605 1.495 . S
C1609 H1615 0.959 . S
C1609 H1616 0.961 . S
C1609 H1617 0.960 . S
C1610 C1608 1.381 . S
C1610 C1611 1.394 . S
C1610 H1618 0.930 . S
C1611 C1610 1.394 . S
C1611 C1612 1.383 . S
C1611 H1619 0.929 . S
C1612 C1611 1.383 . S
C1612 C1613 1.377 . S
C1613 H1597 0.930 . S
C1613 C1612 1.377 . S
C1613 C1614 1.379 . S
C1614 H1598 0.931 . S
C1614 C1608 1.383 . S
C1614 C1613 1.379 . S
H1615 C1609 0.959 . S
H1616 C1609 0.961 . S
H1617 C1609 0.960 . S
H1618 C1610 0.930 . S
H1619 C1611 0.929 . S
H1620 C1628 0.929 . S
H1621 C1630 0.930 . S
H1622 C1632 0.930 . S
H1623 C1635 0.929 . S
H1624 C1638 0.930 . S
H1625 C1640 0.960 . S
H1626 C1640 0.960 . S
H1627 C1640 0.960 . S
C1628 H1620 0.929 . S
C1628 C1629 1.377 . S
C1628 C1630 1.384 . S
C1629 C1628 1.377 . S
C1629 C1635 1.390 . S
C1630 H1621 0.930 . S
C1630 C1628 1.384 . S
C1630 C1631 1.372 . S
C1631 C1630 1.372 . S
C1631 C1632 1.400 . S
C1631 C1636 1.490 . S
C1632 H1622 0.930 . S
C1632 C1631 1.400 . S
C1632 C1635 1.386 . S
H1633 C1649 0.930 . S
H1634 C1650 0.931 . S
C1635 H1623 0.929 . S
C1635 C1629 1.390 . S
C1635 C1632 1.386 . S
C1636 C1631 1.490 . S
C1636 C1638 1.395 . S
C1636 C1639 1.403 . S
H1637 C1643 0.930 . S
C1638 H1624 0.930 . S
C1638 C1636 1.395 . S
C1638 C1641 1.403 . S
C1639 C1636 1.403 . S
C1639 C1640 1.524 . S
C1639 C1643 1.400 . S
C1640 H1625 0.960 . S
C1640 H1626 0.960 . S
C1640 H1627 0.960 . S
C1640 C1639 1.524 . S
C1641 C1638 1.403 . S
C1641 C1642 1.392 . S
C1641 C1645 1.495 . S
C1642 C1641 1.392 . S
C1642 C1643 1.385 . S
C1642 C1644 1.478 . S
C1643 H1637 0.930 . S
C1643 C1639 1.400 . S
C1643 C1642 1.385 . S
C1644 C1642 1.478 . S
C1644 C1646 1.381 . S
C1644 C1650 1.383 . S
C1645 C1641 1.495 . S
C1645 H1651 0.959 . S
C1645 H1652 0.961 . S
C1645 H1653 0.960 . S
C1646 C1644 1.381 . S
C1646 C1647 1.394 . S
C1646 H1654 0.930 . S
C1647 C1646 1.394 . S
C1647 C1648 1.383 . S
C1647 H1655 0.929 . S
C1648 C1647 1.383 . S
C1648 C1649 1.377 . S
C1649 H1633 0.930 . S
C1649 C1648 1.377 . S
C1649 C1650 1.379 . S
C1650 H1634 0.931 . S
C1650 C1644 1.383 . S
C1650 C1649 1.379 . S
H1651 C1645 0.959 . S
H1652 C1645 0.961 . S
H1653 C1645 0.960 . S
H1654 C1646 0.930 . S
H1655 C1647 0.929 . S
H1656 C1664 0.929 . S
H1657 C1666 0.930 . S
H1658 C1668 0.930 . S
H1659 C1671 0.929 . S
H1660 C1674 0.930 . S
H1661 C1676 0.960 . S
H1662 C1676 0.960 . S
H1663 C1676 0.960 . S
C1664 H1656 0.929 . S
C1664 C1665 1.377 . S
C1664 C1666 1.384 . S
C1665 C1664 1.377 . S
C1665 C1671 1.390 . S
C1666 H1657 0.930 . S
C1666 C1664 1.384 . S
C1666 C1667 1.372 . S
C1667 C1666 1.372 . S
C1667 C1668 1.400 . S
C1667 C1672 1.490 . S
C1668 H1658 0.930 . S
C1668 C1667 1.400 . S
C1668 C1671 1.386 . S
H1669 C1685 0.930 . S
H1670 C1686 0.931 . S
C1671 H1659 0.929 . S
C1671 C1665 1.390 . S
C1671 C1668 1.386 . S
C1672 C1667 1.490 . S
C1672 C1674 1.395 . S
C1672 C1675 1.403 . S
H1673 C1679 0.930 . S
C1674 H1660 0.930 . S
C1674 C1672 1.395 . S
C1674 C1677 1.403 . S
C1675 C1672 1.403 . S
C1675 C1676 1.524 . S
C1675 C1679 1.400 . S
C1676 H1661 0.960 . S
C1676 H1662 0.960 . S
C1676 H1663 0.960 . S
C1676 C1675 1.524 . S
C1677 C1674 1.403 . S
C1677 C1678 1.392 . S
C1677 C1681 1.495 . S
C1678 C1677 1.392 . S
C1678 C1679 1.385 . S
C1678 C1680 1.478 . S
C1679 H1673 0.930 . S
C1679 C1675 1.400 . S
C1679 C1678 1.385 . S
C1680 C1678 1.478 . S
C1680 C1682 1.381 . S
C1680 C1686 1.383 . S
C1681 C1677 1.495 . S
C1681 H1687 0.959 . S
C1681 H1688 0.961 . S
C1681 H1689 0.960 . S
C1682 C1680 1.381 . S
C1682 C1683 1.394 . S
C1682 H1690 0.930 . S
C1683 C1682 1.394 . S
C1683 C1684 1.383 . S
C1683 H1691 0.929 . S
C1684 C1683 1.383 . S
C1684 C1685 1.377 . S
C1685 H1669 0.930 . S
C1685 C1684 1.377 . S
C1685 C1686 1.379 . S
C1686 H1670 0.931 . S
C1686 C1680 1.383 . S
C1686 C1685 1.379 . S
H1687 C1681 0.959 . S
H1688 C1681 0.961 . S
H1689 C1681 0.960 . S
H1690 C1682 0.930 . S
H1691 C1683 0.929 . S
H1692 C1700 0.929 . S
H1693 C1702 0.930 . S
H1694 C1704 0.930 . S
H1695 C1707 0.929 . S
H1696 C1710 0.930 . S
H1697 C1712 0.960 . S
H1698 C1712 0.960 . S
H1699 C1712 0.960 . S
C1700 H1692 0.929 . S
C1700 C1701 1.377 . S
C1700 C1702 1.384 . S
C1701 C1700 1.377 . S
C1701 C1707 1.390 . S
C1702 H1693 0.930 . S
C1702 C1700 1.384 . S
C1702 C1703 1.372 . S
C1703 C1702 1.372 . S
C1703 C1704 1.400 . S
C1703 C1708 1.490 . S
C1704 H1694 0.930 . S
C1704 C1703 1.400 . S
C1704 C1707 1.386 . S
H1705 C1721 0.930 . S
H1706 C1722 0.931 . S
C1707 H1695 0.929 . S
C1707 C1701 1.390 . S
C1707 C1704 1.386 . S
C1708 C1703 1.490 . S
C1708 C1710 1.395 . S
C1708 C1711 1.403 . S
H1709 C1715 0.930 . S
C1710 H1696 0.930 . S
C1710 C1708 1.395 . S
C1710 C1713 1.403 . S
C1711 C1708 1.403 . S
C1711 C1712 1.524 . S
C1711 C1715 1.400 . S
C1712 H1697 0.960 . S
C1712 H1698 0.960 . S
C1712 H1699 0.960 . S
C1712 C1711 1.524 . S
C1713 C1710 1.403 . S
C1713 C1714 1.392 . S
C1713 C1717 1.495 . S
C1714 C1713 1.392 . S
C1714 C1715 1.385 . S
C1714 C1716 1.478 . S
C1715 H1709 0.930 . S
C1715 C1711 1.400 . S
C1715 C1714 1.385 . S
C1716 C1714 1.478 . S
C1716 C1718 1.381 . S
C1716 C1722 1.383 . S
C1717 C1713 1.495 . S
C1717 H1723 0.959 . S
C1717 H1724 0.961 . S
C1717 H1725 0.960 . S
C1718 C1716 1.381 . S
C1718 C1719 1.394 1_554 S
C1718 H1726 0.930 . S
C1719 C1718 1.394 1_556 S
C1719 C1720 1.383 . S
C1719 H1727 0.929 . S
C1720 C1719 1.383 . S
C1720 C1721 1.377 . S
C1721 H1705 0.930 . S
C1721 C1720 1.377 . S
C1721 C1722 1.379 1_556 S
C1722 H1706 0.931 . S
C1722 C1716 1.383 . S
C1722 C1721 1.379 1_554 S
H1723 C1717 0.959 . S
H1724 C1717 0.961 . S
H1725 C1717 0.960 . S
H1726 C1718 0.930 . S
H1727 C1719 0.929 . S
H1728 C1736 0.929 . S
H1729 C1738 0.930 . S
H1730 C1740 0.930 . S
H1731 C1743 0.929 . S
H1732 C1746 0.930 . S
H1733 C1748 0.960 . S
H1734 C1748 0.960 . S
H1735 C1748 0.960 . S
C1736 H1728 0.929 . S
C1736 C1737 1.377 . S
C1736 C1738 1.384 1_556 S
C1737 C1736 1.377 . S
C1737 C1743 1.390 . S
C1738 H1729 0.930 . S
C1738 C1736 1.384 1_554 S
C1738 C1739 1.372 . S
C1739 C1738 1.372 . S
C1739 C1740 1.400 . S
C1739 C1744 1.490 . S
C1740 H1730 0.930 . S
C1740 C1739 1.400 . S
C1740 C1743 1.386 1_554 S
H1741 C1757 0.930 . S
H1742 C1758 0.931 . S
C1743 H1731 0.929 . S
C1743 C1737 1.390 . S
C1743 C1740 1.386 1_556 S
C1744 C1739 1.490 . S
C1744 C1746 1.395 . S
C1744 C1747 1.403 . S
H1745 C1751 0.930 . S
C1746 H1732 0.930 . S
C1746 C1744 1.395 . S
C1746 C1749 1.403 . S
C1747 C1744 1.403 . S
C1747 C1748 1.524 . S
C1747 C1751 1.400 . S
C1748 H1733 0.960 . S
C1748 H1734 0.960 . S
C1748 H1735 0.960 . S
C1748 C1747 1.524 . S
C1749 C1746 1.403 . S
C1749 C1750 1.392 . S
C1749 C1753 1.495 . S
C1750 C1749 1.392 . S
C1750 C1751 1.385 . S
C1750 C1752 1.478 . S
C1751 H1745 0.930 . S
C1751 C1747 1.400 . S
C1751 C1750 1.385 . S
C1752 C1750 1.478 . S
C1752 C1754 1.381 . S
C1752 C1758 1.383 . S
C1753 C1749 1.495 . S
C1753 H1759 0.959 . S
C1753 H1760 0.961 . S
C1753 H1761 0.960 . S
C1754 C1752 1.381 . S
C1754 C1755 1.394 . S
C1754 H1762 0.930 . S
C1755 C1754 1.394 . S
C1755 C1756 1.383 . S
C1755 H1763 0.929 . S
C1756 C1755 1.383 . S
C1756 C1757 1.377 . S
C1757 H1741 0.930 . S
C1757 C1756 1.377 . S
C1757 C1758 1.379 . S
C1758 H1742 0.931 . S
C1758 C1752 1.383 . S
C1758 C1757 1.379 . S
H1759 C1753 0.959 . S
H1760 C1753 0.961 . S
H1761 C1753 0.960 . S
H1762 C1754 0.930 . S
H1763 C1755 0.929 . S
H1764 C1772 0.929 . S
H1765 C1774 0.930 . S
H1766 C1776 0.930 . S
H1767 C1779 0.929 . S
H1768 C1782 0.930 . S
H1769 C1784 0.960 . S
H1770 C1784 0.960 . S
H1771 C1784 0.960 . S
C1772 H1764 0.929 . S
C1772 C1773 1.377 . S
C1772 C1774 1.384 . S
C1773 C1772 1.377 . S
C1773 C1779 1.390 . S
C1774 H1765 0.930 . S
C1774 C1772 1.384 . S
C1774 C1775 1.372 . S
C1775 C1774 1.372 . S
C1775 C1776 1.400 . S
C1775 C1780 1.490 . S
C1776 H1766 0.930 . S
C1776 C1775 1.400 . S
C1776 C1779 1.386 . S
H1777 C1793 0.930 . S
H1778 C1794 0.931 . S
C1779 H1767 0.929 . S
C1779 C1773 1.390 . S
C1779 C1776 1.386 . S
C1780 C1775 1.490 . S
C1780 C1782 1.395 . S
C1780 C1783 1.403 . S
H1781 C1787 0.930 . S
C1782 H1768 0.930 . S
C1782 C1780 1.395 . S
C1782 C1785 1.403 . S
C1783 C1780 1.403 . S
C1783 C1784 1.524 . S
C1783 C1787 1.400 . S
C1784 H1769 0.960 . S
C1784 H1770 0.960 . S
C1784 H1771 0.960 . S
C1784 C1783 1.524 . S
C1785 C1782 1.403 . S
C1785 C1786 1.392 . S
C1785 C1789 1.495 . S
C1786 C1785 1.392 . S
C1786 C1787 1.385 . S
C1786 C1788 1.478 . S
C1787 H1781 0.930 . S
C1787 C1783 1.400 . S
C1787 C1786 1.385 . S
C1788 C1786 1.478 . S
C1788 C1790 1.381 . S
C1788 C1794 1.383 . S
C1789 C1785 1.495 . S
C1789 H1795 0.959 . S
C1789 H1796 0.961 . S
C1789 H1797 0.960 . S
C1790 C1788 1.381 . S
C1790 C1791 1.394 1_554 S
C1790 H1798 0.930 . S
C1791 C1790 1.394 1_556 S
C1791 C1792 1.383 . S
C1791 H1799 0.929 . S
C1792 C1791 1.383 . S
C1792 C1793 1.377 . S
C1793 H1777 0.930 . S
C1793 C1792 1.377 . S
C1793 C1794 1.379 1_556 S
C1794 H1778 0.931 . S
C1794 C1788 1.383 . S
C1794 C1793 1.379 1_554 S
H1795 C1789 0.959 . S
H1796 C1789 0.961 . S
H1797 C1789 0.960 . S
H1798 C1790 0.930 . S
H1799 C1791 0.929 . S
H1800 C1808 0.929 . S
H1801 C1810 0.930 . S
H1802 C1812 0.930 . S
H1803 C1815 0.929 . S
H1804 C1818 0.930 . S
H1805 C1820 0.960 . S
H1806 C1820 0.960 . S
H1807 C1820 0.960 . S
C1808 H1800 0.929 . S
C1808 C1809 1.377 . S
C1808 C1810 1.384 . S
C1809 C1808 1.377 . S
C1809 C1815 1.390 . S
C1810 H1801 0.930 . S
C1810 C1808 1.384 . S
C1810 C1811 1.372 . S
C1811 C1810 1.372 . S
C1811 C1812 1.400 . S
C1811 C1816 1.490 . S
C1812 H1802 0.930 . S
C1812 C1811 1.400 . S
C1812 C1815 1.386 . S
H1813 C1829 0.930 . S
H1814 C1830 0.931 . S
C1815 H1803 0.929 . S
C1815 C1809 1.390 . S
C1815 C1812 1.386 . S
C1816 C1811 1.490 . S
C1816 C1818 1.395 . S
C1816 C1819 1.403 . S
H1817 C1823 0.930 . S
C1818 H1804 0.930 . S
C1818 C1816 1.395 . S
C1818 C1821 1.403 . S
C1819 C1816 1.403 . S
C1819 C1820 1.524 . S
C1819 C1823 1.400 . S
C1820 H1805 0.960 . S
C1820 H1806 0.960 . S
C1820 H1807 0.960 . S
C1820 C1819 1.524 . S
C1821 C1818 1.403 . S
C1821 C1822 1.392 . S
C1821 C1825 1.495 . S
C1822 C1821 1.392 . S
C1822 C1823 1.385 . S
C1822 C1824 1.478 . S
C1823 H1817 0.930 . S
C1823 C1819 1.400 . S
C1823 C1822 1.385 . S
C1824 C1822 1.478 . S
C1824 C1826 1.381 . S
C1824 C1830 1.383 . S
C1825 C1821 1.495 . S
C1825 H1831 0.959 . S
C1825 H1832 0.961 . S
C1825 H1833 0.960 . S
C1826 C1824 1.381 . S
C1826 C1827 1.394 . S
C1826 H1834 0.930 . S
C1827 C1826 1.394 . S
C1827 C1828 1.383 . S
C1827 H1835 0.929 . S
C1828 C1827 1.383 . S
C1828 C1829 1.377 . S
C1829 H1813 0.930 . S
C1829 C1828 1.377 . S
C1829 C1830 1.379 . S
C1830 H1814 0.931 . S
C1830 C1824 1.383 . S
C1830 C1829 1.379 . S
H1831 C1825 0.959 . S
H1832 C1825 0.961 . S
H1833 C1825 0.960 . S
H1834 C1826 0.930 . S
H1835 C1827 0.929 . S
H1836 C1844 0.929 . S
H1837 C1846 0.930 . S
H1838 C1848 0.930 . S
H1839 C1851 0.929 . S
H1840 C1854 0.930 . S
H1841 C1856 0.960 . S
H1842 C1856 0.960 . S
H1843 C1856 0.960 . S
C1844 H1836 0.929 . S
C1844 C1845 1.377 . S
C1844 C1846 1.384 . S
C1845 C1844 1.377 . S
C1845 C1851 1.390 . S
C1846 H1837 0.930 . S
C1846 C1844 1.384 . S
C1846 C1847 1.372 . S
C1847 C1846 1.372 . S
C1847 C1848 1.400 . S
C1847 C1852 1.490 . S
C1848 H1838 0.930 . S
C1848 C1847 1.400 . S
C1848 C1851 1.386 . S
H1849 C1865 0.930 . S
H1850 C1866 0.931 . S
C1851 H1839 0.929 . S
C1851 C1845 1.390 . S
C1851 C1848 1.386 . S
C1852 C1847 1.490 . S
C1852 C1854 1.395 . S
C1852 C1855 1.403 . S
H1853 C1859 0.930 . S
C1854 H1840 0.930 . S
C1854 C1852 1.395 . S
C1854 C1857 1.403 1_565 S
C1855 C1852 1.403 . S
C1855 C1856 1.524 . S
C1855 C1859 1.400 1_565 S
C1856 H1841 0.960 . S
C1856 H1842 0.960 . S
C1856 H1843 0.960 . S
C1856 C1855 1.524 . S
C1857 C1854 1.403 1_545 S
C1857 C1858 1.392 . S
C1857 C1861 1.495 . S
C1858 C1857 1.392 . S
C1858 C1859 1.385 . S
C1858 C1860 1.478 . S
C1859 H1853 0.930 . S
C1859 C1855 1.400 1_545 S
C1859 C1858 1.385 . S
C1860 C1858 1.478 . S
C1860 C1862 1.381 . S
C1860 C1866 1.383 . S
C1861 C1857 1.495 . S
C1861 H1867 0.959 . S
C1861 H1868 0.961 . S
C1861 H1869 0.960 . S
C1862 C1860 1.381 . S
C1862 C1863 1.394 . S
C1862 H1870 0.930 . S
C1863 C1862 1.394 . S
C1863 C1864 1.383 . S
C1863 H1871 0.929 . S
C1864 C1863 1.383 . S
C1864 C1865 1.377 . S
C1865 H1849 0.930 . S
C1865 C1864 1.377 . S
C1865 C1866 1.379 . S
C1866 H1850 0.931 . S
C1866 C1860 1.383 . S
C1866 C1865 1.379 . S
H1867 C1861 0.959 . S
H1868 C1861 0.961 . S
H1869 C1861 0.960 . S
H1870 C1862 0.930 . S
H1871 C1863 0.929 . S
H1872 C1880 0.929 . S
H1873 C1882 0.930 . S
H1874 C1884 0.930 . S
H1875 C1887 0.929 . S
H1876 C1890 0.930 . S
H1877 C1892 0.960 . S
H1878 C1892 0.960 . S
H1879 C1892 0.960 . S
C1880 H1872 0.929 . S
C1880 C1881 1.377 . S
C1880 C1882 1.384 . S
C1881 C1880 1.377 . S
C1881 C1887 1.390 . S
C1882 H1873 0.930 . S
C1882 C1880 1.384 . S
C1882 C1883 1.372 . S
C1883 C1882 1.372 . S
C1883 C1884 1.400 . S
C1883 C1888 1.490 . S
C1884 H1874 0.930 . S
C1884 C1883 1.400 . S
C1884 C1887 1.386 . S
H1885 C1901 0.930 . S
H1886 C1902 0.931 . S
C1887 H1875 0.929 . S
C1887 C1881 1.390 . S
C1887 C1884 1.386 . S
C1888 C1883 1.490 . S
C1888 C1890 1.395 . S
C1888 C1891 1.403 . S
H1889 C1895 0.930 . S
C1890 H1876 0.930 . S
C1890 C1888 1.395 . S
C1890 C1893 1.403 1_655 S
C1891 C1888 1.403 . S
C1891 C1892 1.524 . S
C1891 C1895 1.400 1_655 S
C1892 H1877 0.960 . S
C1892 H1878 0.960 . S
C1892 H1879 0.960 . S
C1892 C1891 1.524 . S
C1893 C1890 1.403 1_455 S
C1893 C1894 1.392 . S
C1893 C1897 1.495 . S
C1894 C1893 1.392 . S
C1894 C1895 1.385 . S
C1894 C1896 1.478 . S
C1895 H1889 0.930 . S
C1895 C1891 1.400 1_455 S
C1895 C1894 1.385 . S
C1896 C1894 1.478 . S
C1896 C1898 1.381 . S
C1896 C1902 1.383 . S
C1897 C1893 1.495 . S
C1897 H1903 0.959 . S
C1897 H1904 0.961 . S
C1897 H1905 0.960 . S
C1898 C1896 1.381 . S
C1898 C1899 1.394 . S
C1898 H1906 0.930 . S
C1899 C1898 1.394 . S
C1899 C1900 1.383 . S
C1899 H1907 0.929 . S
C1900 C1899 1.383 . S
C1900 C1901 1.377 . S
C1901 H1885 0.930 . S
C1901 C1900 1.377 . S
C1901 C1902 1.379 . S
C1902 H1886 0.931 . S
C1902 C1896 1.383 . S
C1902 C1901 1.379 . S
H1903 C1897 0.959 . S
H1904 C1897 0.961 . S
H1905 C1897 0.960 . S
H1906 C1898 0.930 . S
H1907 C1899 0.929 . S
H1908 C1916 0.929 . S
H1909 C1918 0.930 . S
H1910 C1920 0.930 . S
H1911 C1923 0.929 . S
H1912 C1926 0.930 . S
H1913 C1928 0.960 . S
H1914 C1928 0.960 . S
H1915 C1928 0.960 . S
C1916 H1908 0.929 . S
C1916 C1917 1.377 . S
C1916 C1918 1.384 . S
C1917 C1916 1.377 . S
C1917 C1923 1.390 . S
C1918 H1909 0.930 . S
C1918 C1916 1.384 . S
C1918 C1919 1.372 . S
C1919 C1918 1.372 . S
C1919 C1920 1.400 . S
C1919 C1924 1.490 . S
C1920 H1910 0.930 . S
C1920 C1919 1.400 . S
C1920 C1923 1.386 . S
H1921 C1937 0.930 . S
H1922 C1938 0.931 . S
C1923 H1911 0.929 . S
C1923 C1917 1.390 . S
C1923 C1920 1.386 . S
C1924 C1919 1.490 . S
C1924 C1926 1.395 . S
C1924 C1927 1.403 . S
H1925 C1931 0.930 . S
C1926 H1912 0.930 . S
C1926 C1924 1.395 . S
C1926 C1929 1.403 . S
C1927 C1924 1.403 . S
C1927 C1928 1.524 . S
C1927 C1931 1.400 . S
C1928 H1913 0.960 . S
C1928 H1914 0.960 . S
C1928 H1915 0.960 . S
C1928 C1927 1.524 . S
C1929 C1926 1.403 . S
C1929 C1930 1.392 . S
C1929 C1933 1.495 . S
C1930 C1929 1.392 . S
C1930 C1931 1.385 . S
C1930 C1932 1.478 . S
C1931 H1925 0.930 . S
C1931 C1927 1.400 . S
C1931 C1930 1.385 . S
C1932 C1930 1.478 . S
C1932 C1934 1.381 . S
C1932 C1938 1.383 . S
C1933 C1929 1.495 . S
C1933 H1939 0.959 . S
C1933 H1940 0.961 . S
C1933 H1941 0.960 . S
C1934 C1932 1.381 . S
C1934 C1935 1.394 . S
C1934 H1942 0.930 . S
C1935 C1934 1.394 . S
C1935 C1936 1.383 . S
C1935 H1943 0.929 . S
C1936 C1935 1.383 . S
C1936 C1937 1.377 . S
C1937 H1921 0.930 . S
C1937 C1936 1.377 . S
C1937 C1938 1.379 . S
C1938 H1922 0.931 . S
C1938 C1932 1.383 . S
C1938 C1937 1.379 . S
H1939 C1933 0.959 . S
H1940 C1933 0.961 . S
H1941 C1933 0.960 . S
H1942 C1934 0.930 . S
H1943 C1935 0.929 . S
H1944 C1952 0.929 . S
H1945 C1954 0.930 . S
H1946 C1956 0.930 . S
H1947 C1959 0.929 . S
H1948 C1962 0.930 . S
H1949 C1964 0.891 1_565 S
H1950 C1964 0.960 . S
H1951 C1964 0.960 . S
C1952 H1944 0.929 . S
C1952 C1953 1.377 . S
C1952 C1954 1.384 . S
C1953 C1952 1.377 . S
C1953 C1959 1.390 . S
C1954 H1945 0.930 . S
C1954 C1952 1.384 . S
C1954 C1955 1.372 . S
C1955 C1954 1.372 . S
C1955 C1956 1.400 . S
C1955 C1960 1.490 . S
C1956 H1946 0.930 . S
C1956 C1955 1.400 . S
C1956 C1959 1.386 . S
H1957 C1973 0.930 . S
H1958 C1974 0.931 . S
C1959 H1947 0.929 . S
C1959 C1953 1.390 . S
C1959 C1956 1.386 . S
C1960 C1955 1.490 . S
C1960 C1962 1.395 . S
C1960 C1963 1.403 . S
H1961 C1967 0.930 . S
C1962 H1948 0.930 . S
C1962 C1960 1.395 . S
C1962 C1965 1.403 1_545 S
C1963 C1960 1.403 . S
C1963 C1964 1.524 . S
C1963 C1967 1.400 1_545 S
C1964 H1949 0.891 1_545 S
C1964 H1950 0.960 . S
C1964 H1951 0.960 . S
C1964 C1963 1.524 . S
C1965 C1962 1.403 1_565 S
C1965 C1966 1.392 . S
C1965 C1969 1.495 . S
C1966 C1965 1.392 . S
C1966 C1967 1.385 . S
C1966 C1968 1.478 . S
C1967 H1961 0.930 . S
C1967 C1963 1.400 1_565 S
C1967 C1966 1.385 . S
C1968 C1966 1.478 . S
C1968 C1970 1.381 . S
C1968 C1974 1.383 . S
C1969 C1965 1.495 . S
C1969 H1975 0.889 1_565 S
C1969 H1976 0.961 . S
C1969 H1977 0.960 . S
C1970 C1968 1.381 . S
C1970 C1971 1.394 . S
C1970 H1978 0.930 . S
C1971 C1970 1.394 . S
C1971 C1972 1.383 . S
C1971 H1979 0.929 . S
C1972 C1971 1.383 . S
C1972 C1973 1.377 . S
C1973 H1957 0.930 . S
C1973 C1972 1.377 . S
C1973 C1974 1.379 . S
C1974 H1958 0.931 . S
C1974 C1968 1.383 . S
C1974 C1973 1.379 . S
H1975 C1969 0.889 1_545 S
H1976 C1969 0.961 . S
H1977 C1969 0.960 . S
H1978 C1970 0.930 . S
H1979 C1971 0.929 . S
H1980 C1988 0.929 . S
H1981 C1990 0.930 . S
H1982 C1992 0.930 . S
H1983 C1995 0.929 . S
H1984 C1998 0.930 . S
H1985 C2000 0.960 . S
H1986 C2000 0.960 . S
H1987 C2000 0.960 . S
C1988 H1980 0.929 . S
C1988 C1989 1.377 . S
C1988 C1990 1.384 . S
C1989 C1988 1.377 . S
C1989 C1995 1.390 . S
C1990 H1981 0.930 . S
C1990 C1988 1.384 . S
C1990 C1991 1.372 . S
C1991 C1990 1.372 . S
C1991 C1992 1.400 . S
C1991 C1996 1.490 . S
C1992 H1982 0.930 . S
C1992 C1991 1.400 . S
C1992 C1995 1.386 . S
H1993 C2009 0.930 . S
H1994 C2010 0.931 . S
C1995 H1983 0.929 . S
C1995 C1989 1.390 . S
C1995 C1992 1.386 . S
C1996 C1991 1.490 . S
C1996 C1998 1.395 . S
C1996 C1999 1.403 . S
H1997 C2003 0.930 . S
C1998 H1984 0.930 . S
C1998 C1996 1.395 . S
C1998 C2001 1.403 1_655 S
C1999 C1996 1.403 . S
C1999 C2000 1.524 . S
C1999 C2003 1.400 1_655 S
C2000 H1985 0.960 . S
C2000 H1986 0.960 . S
C2000 H1987 0.960 . S
C2000 C1999 1.524 . S
C2001 C1998 1.403 1_455 S
C2001 C2002 1.392 . S
C2001 C2005 1.495 . S
C2002 C2001 1.392 . S
C2002 C2003 1.385 . S
C2002 C2004 1.478 . S
C2003 H1997 0.930 . S
C2003 C1999 1.400 1_455 S
C2003 C2002 1.385 . S
C2004 C2002 1.478 . S
C2004 C2006 1.381 . S
C2004 C2010 1.383 . S
C2005 C2001 1.495 . S
C2005 H2011 0.959 . S
C2005 H2012 0.961 . S
C2005 H2013 0.960 . S
C2006 C2004 1.381 . S
C2006 C2007 1.394 . S
C2006 H2014 0.930 . S
C2007 C2006 1.394 . S
C2007 C2008 1.383 . S
C2007 H2015 0.929 . S
C2008 C2007 1.383 . S
C2008 C2009 1.377 . S
C2009 H1993 0.930 . S
C2009 C2008 1.377 . S
C2009 C2010 1.379 . S
C2010 H1994 0.931 . S
C2010 C2004 1.383 . S
C2010 C2009 1.379 . S
H2011 C2005 0.959 . S
H2012 C2005 0.961 . S
H2013 C2005 0.960 . S
H2014 C2006 0.930 . S
H2015 C2007 0.929 . S
H2016 C2024 0.929 . S
H2017 C2026 0.930 . S
H2018 C2028 0.930 . S
H2019 C2031 0.929 . S
H2020 C2034 0.930 . S
H2021 C2036 0.960 . S
H2022 C2036 0.960 . S
H2023 C2036 0.960 . S
C2024 H2016 0.929 . S
C2024 C2025 1.377 . S
C2024 C2026 1.384 . S
C2025 C2024 1.377 . S
C2025 C2031 1.390 . S
C2026 H2017 0.930 . S
C2026 C2024 1.384 . S
C2026 C2027 1.372 . S
C2027 C2026 1.372 . S
C2027 C2028 1.400 . S
C2027 C2032 1.490 . S
C2028 H2018 0.930 . S
C2028 C2027 1.400 . S
C2028 C2031 1.386 . S
H2029 C2045 0.930 . S
H2030 C2046 0.931 . S
C2031 H2019 0.929 . S
C2031 C2025 1.390 . S
C2031 C2028 1.386 . S
C2032 C2027 1.490 . S
C2032 C2034 1.395 . S
C2032 C2035 1.403 . S
H2033 C2039 0.930 . S
C2034 H2020 0.930 . S
C2034 C2032 1.395 . S
C2034 C2037 1.403 . S
C2035 C2032 1.403 . S
C2035 C2036 1.524 . S
C2035 C2039 1.400 . S
C2036 H2021 0.960 . S
C2036 H2022 0.960 . S
C2036 H2023 0.960 . S
C2036 C2035 1.524 . S
C2037 C2034 1.403 . S
C2037 C2038 1.392 . S
C2037 C2041 1.495 . S
C2038 C2037 1.392 . S
C2038 C2039 1.385 . S
C2038 C2040 1.478 . S
C2039 H2033 0.930 . S
C2039 C2035 1.400 . S
C2039 C2038 1.385 . S
C2040 C2038 1.478 . S
C2040 C2042 1.381 . S
C2040 C2046 1.383 . S
C2041 C2037 1.495 . S
C2041 H2047 0.959 . S
C2041 H2048 0.961 . S
C2041 H2049 0.960 . S
C2042 C2040 1.381 . S
C2042 C2043 1.394 . S
C2042 H2050 0.930 . S
C2043 C2042 1.394 . S
C2043 C2044 1.383 . S
C2043 H2051 0.929 . S
C2044 C2043 1.383 . S
C2044 C2045 1.377 . S
C2045 H2029 0.930 . S
C2045 C2044 1.377 . S
C2045 C2046 1.379 . S
C2046 H2030 0.931 . S
C2046 C2040 1.383 . S
C2046 C2045 1.379 . S
H2047 C2041 0.959 . S
H2048 C2041 0.961 . S
H2049 C2041 0.960 . S
H2050 C2042 0.930 . S
H2051 C2043 0.929 . S
H2052 C2060 0.929 . S
H2053 C2062 0.930 . S
H2054 C2064 0.930 . S
H2055 C2067 0.929 . S
H2056 C2070 0.930 . S
H2057 C2072 0.960 . S
H2058 C2072 0.960 . S
H2059 C2072 0.960 . S
C2060 H2052 0.929 . S
C2060 C2061 1.377 . S
C2060 C2062 1.384 . S
C2061 C2060 1.377 . S
C2061 C2067 1.390 . S
C2062 H2053 0.930 . S
C2062 C2060 1.384 . S
C2062 C2063 1.372 . S
C2063 C2062 1.372 . S
C2063 C2064 1.400 . S
C2063 C2068 1.490 . S
C2064 H2054 0.930 . S
C2064 C2063 1.400 . S
C2064 C2067 1.386 . S
H2065 C2081 0.930 . S
H2066 C2082 0.931 . S
C2067 H2055 0.929 . S
C2067 C2061 1.390 . S
C2067 C2064 1.386 . S
C2068 C2063 1.490 . S
C2068 C2070 1.395 . S
C2068 C2071 1.403 . S
H2069 C2075 0.930 . S
C2070 H2056 0.930 . S
C2070 C2068 1.395 . S
C2070 C2073 1.403 . S
C2071 C2068 1.403 . S
C2071 C2072 1.524 . S
C2071 C2075 1.400 . S
C2072 H2057 0.960 . S
C2072 H2058 0.960 . S
C2072 H2059 0.960 . S
C2072 C2071 1.524 . S
C2073 C2070 1.403 . S
C2073 C2074 1.392 . S
C2073 C2077 1.495 . S
C2074 C2073 1.392 . S
C2074 C2075 1.385 . S
C2074 C2076 1.478 . S
C2075 H2069 0.930 . S
C2075 C2071 1.400 . S
C2075 C2074 1.385 . S
C2076 C2074 1.478 . S
C2076 C2078 1.381 . S
C2076 C2082 1.383 . S
C2077 C2073 1.495 . S
C2077 H2083 0.959 . S
C2077 H2084 0.961 . S
C2077 H2085 0.960 . S
C2078 C2076 1.381 . S
C2078 C2079 1.394 . S
C2078 H2086 0.930 . S
C2079 C2078 1.394 . S
C2079 C2080 1.383 . S
C2079 H2087 0.929 . S
C2080 C2079 1.383 . S
C2080 C2081 1.377 . S
C2081 H2065 0.930 . S
C2081 C2080 1.377 . S
C2081 C2082 1.379 . S
C2082 H2066 0.931 . S
C2082 C2076 1.383 . S
C2082 C2081 1.379 . S
H2083 C2077 0.959 . S
H2084 C2077 0.961 . S
H2085 C2077 0.960 . S
H2086 C2078 0.930 . S
H2087 C2079 0.929 . S
H2088 C2096 0.929 . S
H2089 C2098 0.930 . S
H2090 C2100 0.930 . S
H2091 C2103 0.929 . S
H2092 C2106 0.930 . S
H2093 C2108 0.960 . S
H2094 C2108 0.960 . S
H2095 C2108 0.960 . S
C2096 H2088 0.929 . S
C2096 C2097 1.377 . S
C2096 C2098 1.384 . S
C2097 C2096 1.377 . S
C2097 C2103 1.390 . S
C2098 H2089 0.930 . S
C2098 C2096 1.384 . S
C2098 C2099 1.372 . S
C2099 C2098 1.372 . S
C2099 C2100 1.400 . S
C2099 C2104 1.490 . S
C2100 H2090 0.930 . S
C2100 C2099 1.400 . S
C2100 C2103 1.386 . S
H2101 C2117 0.930 . S
H2102 C2118 0.931 . S
C2103 H2091 0.929 . S
C2103 C2097 1.390 . S
C2103 C2100 1.386 . S
C2104 C2099 1.490 . S
C2104 C2106 1.395 . S
C2104 C2107 1.403 . S
H2105 C2111 0.930 . S
C2106 H2092 0.930 . S
C2106 C2104 1.395 . S
C2106 C2109 1.403 . S
C2107 C2104 1.403 . S
C2107 C2108 1.524 . S
C2107 C2111 1.400 . S
C2108 H2093 0.960 . S
C2108 H2094 0.960 . S
C2108 H2095 0.960 . S
C2108 C2107 1.524 . S
C2109 C2106 1.403 . S
C2109 C2110 1.392 . S
C2109 C2113 1.495 . S
C2110 C2109 1.392 . S
C2110 C2111 1.385 . S
C2110 C2112 1.478 . S
C2111 H2105 0.930 . S
C2111 C2107 1.400 . S
C2111 C2110 1.385 . S
C2112 C2110 1.478 . S
C2112 C2114 1.381 . S
C2112 C2118 1.383 . S
C2113 C2109 1.495 . S
C2113 H2119 0.959 . S
C2113 H2120 0.961 . S
C2113 H2121 0.960 . S
C2114 C2112 1.381 . S
C2114 C2115 1.394 . S
C2114 H2122 0.930 . S
C2115 C2114 1.394 . S
C2115 C2116 1.383 . S
C2115 H2123 0.929 . S
C2116 C2115 1.383 . S
C2116 C2117 1.377 . S
C2117 H2101 0.930 . S
C2117 C2116 1.377 . S
C2117 C2118 1.379 . S
C2118 H2102 0.931 . S
C2118 C2112 1.383 . S
C2118 C2117 1.379 . S
H2119 C2113 0.959 . S
H2120 C2113 0.961 . S
H2121 C2113 0.960 . S
H2122 C2114 0.930 . S
H2123 C2115 0.929 . S
H2124 C2132 0.929 . S
H2125 C2134 0.930 . S
H2126 C2136 0.930 . S
H2127 C2139 0.929 . S
H2128 C2142 0.930 . S
H2129 C2144 0.960 . S
H2130 C2144 0.960 . S
H2131 C2144 0.960 . S
C2132 H2124 0.929 . S
C2132 C2133 1.377 . S
C2132 C2134 1.384 . S
C2133 C2132 1.377 . S
C2133 C2139 1.390 . S
C2134 H2125 0.930 . S
C2134 C2132 1.384 . S
C2134 C2135 1.372 . S
C2135 C2134 1.372 . S
C2135 C2136 1.400 . S
C2135 C2140 1.490 . S
C2136 H2126 0.930 . S
C2136 C2135 1.400 . S
C2136 C2139 1.386 . S
H2137 C2153 0.930 . S
H2138 C2154 0.931 . S
C2139 H2127 0.929 . S
C2139 C2133 1.390 . S
C2139 C2136 1.386 . S
C2140 C2135 1.490 . S
C2140 C2142 1.395 . S
C2140 C2143 1.403 . S
H2141 C2147 0.930 . S
C2142 H2128 0.930 . S
C2142 C2140 1.395 . S
C2142 C2145 1.403 . S
C2143 C2140 1.403 . S
C2143 C2144 1.524 . S
C2143 C2147 1.400 . S
C2144 H2129 0.960 . S
C2144 H2130 0.960 . S
C2144 H2131 0.960 . S
C2144 C2143 1.524 . S
C2145 C2142 1.403 . S
C2145 C2146 1.392 . S
C2145 C2149 1.495 . S
C2146 C2145 1.392 . S
C2146 C2147 1.385 . S
C2146 C2148 1.478 . S
C2147 H2141 0.930 . S
C2147 C2143 1.400 . S
C2147 C2146 1.385 . S
C2148 C2146 1.478 . S
C2148 C2150 1.381 . S
C2148 C2154 1.383 . S
C2149 C2145 1.495 . S
C2149 H2155 0.959 1_554 S
C2149 H2156 0.961 . S
C2149 H2157 0.960 1_554 S
C2150 C2148 1.381 . S
C2150 C2151 1.394 . S
C2150 H2158 0.930 . S
C2151 C2150 1.394 . S
C2151 C2152 1.383 . S
C2151 H2159 0.929 . S
C2152 C2151 1.383 . S
C2152 C2153 1.377 . S
C2153 H2137 0.930 . S
C2153 C2152 1.377 . S
C2153 C2154 1.379 . S
C2154 H2138 0.931 . S
C2154 C2148 1.383 . S
C2154 C2153 1.379 . S
H2155 C2149 0.959 1_556 S
H2156 C2149 0.961 . S
H2157 C2149 0.960 1_556 S
H2158 C2150 0.930 . S
H2159 C2151 0.929 . S
H2160 C2168 0.929 . S
H2161 C2170 0.930 . S
H2162 C2172 0.930 . S
H2163 C2175 0.929 . S
H2164 C2178 0.930 . S
H2165 C2180 0.960 . S
H2166 C2180 0.960 . S
H2167 C2180 0.960 . S
C2168 H2160 0.929 . S
C2168 C2169 1.377 . S
C2168 C2170 1.384 . S
C2169 C2168 1.377 . S
C2169 C2175 1.390 . S
C2170 H2161 0.930 . S
C2170 C2168 1.384 . S
C2170 C2171 1.372 . S
C2171 C2170 1.372 . S
C2171 C2172 1.400 . S
C2171 C2176 1.490 . S
C2172 H2162 0.930 . S
C2172 C2171 1.400 . S
C2172 C2175 1.386 . S
H2173 C2189 0.930 . S
H2174 C2190 0.931 . S
C2175 H2163 0.929 . S
C2175 C2169 1.390 . S
C2175 C2172 1.386 . S
C2176 C2171 1.490 . S
C2176 C2178 1.395 . S
C2176 C2179 1.403 . S
H2177 C2183 0.930 . S
C2178 H2164 0.930 . S
C2178 C2176 1.395 . S
C2178 C2181 1.403 . S
C2179 C2176 1.403 . S
C2179 C2180 1.524 . S
C2179 C2183 1.400 . S
C2180 H2165 0.960 . S
C2180 H2166 0.960 . S
C2180 H2167 0.960 . S
C2180 C2179 1.524 . S
C2181 C2178 1.403 . S
C2181 C2182 1.392 . S
C2181 C2185 1.495 . S
C2182 C2181 1.392 . S
C2182 C2183 1.385 . S
C2182 C2184 1.478 . S
C2183 H2177 0.930 . S
C2183 C2179 1.400 . S
C2183 C2182 1.385 . S
C2184 C2182 1.478 . S
C2184 C2186 1.381 . S
C2184 C2190 1.383 . S
C2185 C2181 1.495 . S
C2185 H2191 0.959 . S
C2185 H2192 0.961 . S
C2185 H2193 0.960 . S
C2186 C2184 1.381 . S
C2186 C2187 1.394 . S
C2186 H2194 0.930 . S
C2187 C2186 1.394 . S
C2187 C2188 1.383 . S
C2187 H2195 0.929 . S
C2188 C2187 1.383 . S
C2188 C2189 1.377 . S
C2189 H2173 0.930 . S
C2189 C2188 1.377 . S
C2189 C2190 1.379 . S
C2190 H2174 0.931 . S
C2190 C2184 1.383 . S
C2190 C2189 1.379 . S
H2191 C2185 0.959 . S
H2192 C2185 0.961 . S
H2193 C2185 0.960 . S
H2194 C2186 0.930 . S
H2195 C2187 0.929 . S
H2196 C2204 0.929 . S
H2197 C2206 0.930 . S
H2198 C2208 0.930 . S
H2199 C2211 0.929 . S
H2200 C2214 0.930 . S
H2201 C2216 0.960 . S
H2202 C2216 0.960 . S
H2203 C2216 0.960 . S
C2204 H2196 0.929 . S
C2204 C2205 1.377 . S
C2204 C2206 1.384 . S
C2205 C2204 1.377 . S
C2205 C2211 1.390 . S
C2206 H2197 0.930 . S
C2206 C2204 1.384 . S
C2206 C2207 1.372 . S
C2207 C2206 1.372 . S
C2207 C2208 1.400 . S
C2207 C2212 1.490 . S
C2208 H2198 0.930 . S
C2208 C2207 1.400 . S
C2208 C2211 1.386 . S
H2209 C2225 0.942 . S
H2210 C2226 0.931 . S
C2211 H2199 0.929 . S
C2211 C2205 1.390 . S
C2211 C2208 1.386 . S
C2212 C2207 1.490 . S
C2212 C2214 1.395 . S
C2212 C2215 1.403 . S
H2213 C2219 0.930 . S
C2214 H2200 0.930 . S
C2214 C2212 1.395 . S
C2214 C2217 1.403 . S
C2215 C2212 1.403 . S
C2215 C2216 1.524 . S
C2215 C2219 1.400 . S
C2216 H2201 0.960 . S
C2216 H2202 0.960 . S
C2216 H2203 0.960 . S
C2216 C2215 1.524 . S
C2217 C2214 1.403 . S
C2217 C2218 1.392 . S
C2217 C2221 1.495 . S
C2218 C2217 1.392 . S
C2218 C2219 1.385 . S
C2218 C2220 1.478 . S
C2219 H2213 0.930 . S
C2219 C2215 1.400 . S
C2219 C2218 1.385 . S
C2220 C2218 1.478 . S
C2220 C2222 1.381 . S
C2220 C2226 1.383 . S
C2221 C2217 1.495 . S
C2221 H2227 0.959 . S
C2221 H2228 0.961 . S
C2221 H2229 0.960 . S
C2222 C2220 1.381 . S
C2222 C2223 1.394 . S
C2222 H2230 0.930 . S
C2223 C2222 1.394 . S
C2223 C2224 1.383 . S
C2223 H2231 0.929 . S
C2224 C2223 1.383 . S
C2224 C2225 1.377 . S
C2225 H2209 0.942 . S
C2225 C2224 1.377 . S
C2225 C2226 1.379 . S
C2226 H2210 0.931 . S
C2226 C2220 1.383 . S
C2226 C2225 1.379 . S
H2227 C2221 0.959 . S
H2228 C2221 0.961 . S
H2229 C2221 0.960 . S
H2230 C2222 0.930 . S
H2231 C2223 0.929 . S
H2232 C2240 0.929 . S
H2233 C2242 0.930 . S
H2234 C2244 0.930 . S
H2235 C2247 0.929 . S
H2236 C2250 0.930 . S
H2237 C2252 0.960 . S
H2238 C2252 0.960 . S
H2239 C2252 0.960 . S
C2240 H2232 0.929 . S
C2240 C2241 1.377 . S
C2240 C2242 1.384 . S
C2241 C2240 1.377 . S
C2241 C2247 1.390 . S
C2242 H2233 0.930 . S
C2242 C2240 1.384 . S
C2242 C2243 1.372 . S
C2243 C2242 1.372 . S
C2243 C2244 1.400 . S
C2243 C2248 1.490 . S
C2244 H2234 0.930 . S
C2244 C2243 1.400 . S
C2244 C2247 1.386 . S
H2245 C2261 0.930 . S
H2246 C2262 0.931 . S
C2247 H2235 0.929 . S
C2247 C2241 1.390 . S
C2247 C2244 1.386 . S
C2248 C2243 1.490 . S
C2248 C2250 1.395 . S
C2248 C2251 1.403 . S
H2249 C2255 0.930 . S
C2250 H2236 0.930 . S
C2250 C2248 1.395 . S
C2250 C2253 1.403 . S
C2251 C2248 1.403 . S
C2251 C2252 1.524 . S
C2251 C2255 1.400 . S
C2252 H2237 0.960 . S
C2252 H2238 0.960 . S
C2252 H2239 0.960 . S
C2252 C2251 1.524 . S
C2253 C2250 1.403 . S
C2253 C2254 1.392 . S
C2253 C2257 1.495 . S
C2254 C2253 1.392 . S
C2254 C2255 1.385 . S
C2254 C2256 1.478 . S
C2255 H2249 0.930 . S
C2255 C2251 1.400 . S
C2255 C2254 1.385 . S
C2256 C2254 1.478 . S
C2256 C2258 1.381 . S
C2256 C2262 1.383 . S
C2257 C2253 1.495 . S
C2257 H2263 0.959 . S
C2257 H2264 0.961 . S
C2257 H2265 0.960 . S
C2258 C2256 1.381 . S
C2258 C2259 1.394 . S
C2258 H2266 0.930 . S
C2259 C2258 1.394 . S
C2259 C2260 1.383 . S
C2259 H2267 0.929 . S
C2260 C2259 1.383 . S
C2260 C2261 1.377 . S
C2261 H2245 0.930 . S
C2261 C2260 1.377 . S
C2261 C2262 1.379 . S
C2262 H2246 0.931 . S
C2262 C2256 1.383 . S
C2262 C2261 1.379 . S
H2263 C2257 0.959 . S
H2264 C2257 0.961 . S
H2265 C2257 0.960 . S
H2266 C2258 0.930 . S
H2267 C2259 0.929 . S
H2268 C2276 0.929 . S
H2269 C2278 0.930 . S
H2270 C2280 0.930 . S
H2271 C2283 0.929 . S
H2272 C2286 0.930 . S
H2273 C2288 0.960 . S
H2274 C2288 0.960 . S
H2275 C2288 0.960 . S
C2276 H2268 0.929 . S
C2276 C2277 1.377 . S
C2276 C2278 1.384 . S
C2277 C2276 1.377 . S
C2277 C2283 1.390 . S
C2278 H2269 0.930 . S
C2278 C2276 1.384 . S
C2278 C2279 1.372 . S
C2279 C2278 1.372 . S
C2279 C2280 1.400 . S
C2279 C2284 1.490 . S
C2280 H2270 0.930 . S
C2280 C2279 1.400 . S
C2280 C2283 1.386 . S
H2281 C2297 0.930 . S
H2282 C2298 0.931 . S
C2283 H2271 0.929 . S
C2283 C2277 1.390 . S
C2283 C2280 1.386 . S
C2284 C2279 1.490 . S
C2284 C2286 1.395 . S
C2284 C2287 1.403 . S
H2285 C2291 0.930 . S
C2286 H2272 0.930 . S
C2286 C2284 1.395 . S
C2286 C2289 1.403 . S
C2287 C2284 1.403 . S
C2287 C2288 1.524 . S
C2287 C2291 1.400 . S
C2288 H2273 0.960 . S
C2288 H2274 0.960 . S
C2288 H2275 0.960 . S
C2288 C2287 1.524 . S
C2289 C2286 1.403 . S
C2289 C2290 1.392 . S
C2289 C2293 1.495 . S
C2290 C2289 1.392 . S
C2290 C2291 1.385 . S
C2290 C2292 1.478 . S
C2291 H2285 0.930 . S
C2291 C2287 1.400 . S
C2291 C2290 1.385 . S
C2292 C2290 1.478 . S
C2292 C2294 1.381 . S
C2292 C2298 1.383 . S
C2293 C2289 1.495 . S
C2293 H2299 0.959 . S
C2293 H2300 0.961 . S
C2293 H2301 0.960 . S
C2294 C2292 1.381 . S
C2294 C2295 1.394 . S
C2294 H2302 0.930 . S
C2295 C2294 1.394 . S
C2295 C2296 1.383 . S
C2295 H2303 0.929 . S
C2296 C2295 1.383 . S
C2296 C2297 1.377 . S
C2297 H2281 0.930 . S
C2297 C2296 1.377 . S
C2297 C2298 1.379 . S
C2298 H2282 0.931 . S
C2298 C2292 1.383 . S
C2298 C2297 1.379 . S
H2299 C2293 0.959 . S
H2300 C2293 0.961 . S
H2301 C2293 0.960 . S
H2302 C2294 0.930 . S
H2303 C2295 0.929 . S
H2304 C2312 0.929 . S
H2305 C2314 0.930 . S
H2306 C2316 0.930 . S
H2307 C2319 0.929 . S
H2308 C2322 0.930 . S
H2309 C2324 0.960 . S
H2310 C2324 0.960 . S
H2311 C2324 0.960 . S
C2312 H2304 0.929 . S
C2312 C2313 1.377 . S
C2312 C2314 1.384 . S
C2313 C2312 1.377 . S
C2313 C2319 1.390 . S
C2314 H2305 0.930 . S
C2314 C2312 1.384 . S
C2314 C2315 1.372 . S
C2315 C2314 1.372 . S
C2315 C2316 1.400 . S
C2315 C2320 1.490 . S
C2316 H2306 0.930 . S
C2316 C2315 1.400 . S
C2316 C2319 1.386 . S
H2317 C2333 0.930 . S
H2318 C2334 0.931 . S
C2319 H2307 0.929 . S
C2319 C2313 1.390 . S
C2319 C2316 1.386 . S
C2320 C2315 1.490 . S
C2320 C2322 1.395 . S
C2320 C2323 1.403 . S
H2321 C2327 0.930 . S
C2322 H2308 0.930 . S
C2322 C2320 1.395 . S
C2322 C2325 1.403 . S
C2323 C2320 1.403 . S
C2323 C2324 1.524 . S
C2323 C2327 1.400 . S
C2324 H2309 0.960 . S
C2324 H2310 0.960 . S
C2324 H2311 0.960 . S
C2324 C2323 1.524 . S
C2325 C2322 1.403 . S
C2325 C2326 1.392 . S
C2325 C2329 1.495 . S
C2326 C2325 1.392 . S
C2326 C2327 1.385 . S
C2326 C2328 1.478 . S
C2327 H2321 0.930 . S
C2327 C2323 1.400 . S
C2327 C2326 1.385 . S
C2328 C2326 1.478 . S
C2328 C2330 1.381 . S
C2328 C2334 1.383 . S
C2329 C2325 1.495 . S
C2329 H2335 0.959 1_556 S
C2329 H2336 0.961 . S
C2329 H2337 0.960 1_556 S
C2330 C2328 1.381 . S
C2330 C2331 1.394 . S
C2330 H2338 0.930 . S
C2331 C2330 1.394 . S
C2331 C2332 1.383 . S
C2331 H2339 0.929 . S
C2332 C2331 1.383 . S
C2332 C2333 1.377 . S
C2333 H2317 0.930 . S
C2333 C2332 1.377 . S
C2333 C2334 1.379 . S
C2334 H2318 0.931 . S
C2334 C2328 1.383 . S
C2334 C2333 1.379 . S
H2335 C2329 0.959 1_554 S
H2336 C2329 0.961 . S
H2337 C2329 0.960 1_554 S
H2338 C2330 0.930 . S
H2339 C2331 0.929 . S
H2340 C2348 0.929 . S
H2341 C2350 0.930 . S
H2342 C2352 0.930 . S
H2343 C2355 0.929 . S
H2344 C2358 0.930 . S
H2345 C2360 0.960 . S
H2346 C2360 0.960 . S
H2347 C2360 0.960 . S
C2348 H2340 0.929 . S
C2348 C2349 1.377 . S
C2348 C2350 1.384 . S
C2349 C2348 1.377 . S
C2349 C2355 1.390 . S
C2350 H2341 0.930 . S
C2350 C2348 1.384 . S
C2350 C2351 1.372 . S
C2351 C2350 1.372 . S
C2351 C2352 1.400 . S
C2351 C2356 1.490 . S
C2352 H2342 0.930 . S
C2352 C2351 1.400 . S
C2352 C2355 1.386 . S
H2353 C2369 0.930 . S
H2354 C2370 0.931 . S
C2355 H2343 0.929 . S
C2355 C2349 1.390 . S
C2355 C2352 1.386 . S
C2356 C2351 1.490 . S
C2356 C2358 1.395 . S
C2356 C2359 1.403 . S
H2357 C2363 0.930 . S
C2358 H2344 0.930 . S
C2358 C2356 1.395 . S
C2358 C2361 1.403 . S
C2359 C2356 1.403 . S
C2359 C2360 1.524 . S
C2359 C2363 1.400 . S
C2360 H2345 0.960 . S
C2360 H2346 0.960 . S
C2360 H2347 0.960 . S
C2360 C2359 1.524 . S
C2361 C2358 1.403 . S
C2361 C2362 1.392 . S
C2361 C2365 1.495 . S
C2362 C2361 1.392 . S
C2362 C2363 1.385 . S
C2362 C2364 1.478 . S
C2363 H2357 0.930 . S
C2363 C2359 1.400 . S
C2363 C2362 1.385 . S
C2364 C2362 1.478 . S
C2364 C2366 1.381 . S
C2364 C2370 1.383 . S
C2365 C2361 1.495 . S
C2365 H2371 0.959 . S
C2365 H2372 0.961 . S
C2365 H2373 0.960 . S
C2366 C2364 1.381 . S
C2366 C2367 1.394 . S
C2366 H2374 0.930 . S
C2367 C2366 1.394 . S
C2367 C2368 1.383 . S
C2367 H2375 0.929 . S
C2368 C2367 1.383 . S
C2368 C2369 1.377 . S
C2369 H2353 0.930 . S
C2369 C2368 1.377 . S
C2369 C2370 1.379 . S
C2370 H2354 0.931 . S
C2370 C2364 1.383 . S
C2370 C2369 1.379 . S
H2371 C2365 0.959 . S
H2372 C2365 0.961 . S
H2373 C2365 0.960 . S
H2374 C2366 0.930 . S
H2375 C2367 0.929 . S
H2376 C2384 0.929 . S
H2377 C2386 0.930 . S
H2378 C2388 0.930 . S
H2379 C2391 0.929 . S
H2380 C2394 0.930 . S
H2381 C2396 0.960 . S
H2382 C2396 0.960 . S
H2383 C2396 0.960 . S
C2384 H2376 0.929 . S
C2384 C2385 1.377 . S
C2384 C2386 1.384 . S
C2385 C2384 1.377 . S
C2385 C2391 1.390 . S
C2386 H2377 0.930 . S
C2386 C2384 1.384 . S
C2386 C2387 1.372 . S
C2387 C2386 1.372 . S
C2387 C2388 1.400 . S
C2387 C2392 1.490 . S
C2388 H2378 0.930 . S
C2388 C2387 1.400 . S
C2388 C2391 1.386 . S
H2389 C2405 0.930 . S
H2390 C2406 0.931 . S
C2391 H2379 0.929 . S
C2391 C2385 1.390 . S
C2391 C2388 1.386 . S
C2392 C2387 1.490 . S
C2392 C2394 1.395 . S
C2392 C2395 1.403 . S
H2393 C2399 0.930 . S
C2394 H2380 0.930 . S
C2394 C2392 1.395 . S
C2394 C2397 1.403 . S
C2395 C2392 1.403 . S
C2395 C2396 1.524 . S
C2395 C2399 1.400 . S
C2396 H2381 0.960 . S
C2396 H2382 0.960 . S
C2396 H2383 0.960 . S
C2396 C2395 1.524 . S
C2397 C2394 1.403 . S
C2397 C2398 1.392 . S
C2397 C2401 1.495 . S
C2398 C2397 1.392 . S
C2398 C2399 1.385 . S
C2398 C2400 1.478 . S
C2399 H2393 0.930 . S
C2399 C2395 1.400 . S
C2399 C2398 1.385 . S
C2400 C2398 1.478 . S
C2400 C2402 1.381 . S
C2400 C2406 1.383 . S
C2401 C2397 1.495 . S
C2401 H2407 0.959 . S
C2401 H2408 0.961 . S
C2401 H2409 0.960 . S
C2402 C2400 1.381 . S
C2402 C2403 1.394 . S
C2402 H2410 0.930 . S
C2403 C2402 1.394 . S
C2403 C2404 1.383 . S
C2403 H2411 0.929 . S
C2404 C2403 1.383 . S
C2404 C2405 1.377 . S
C2405 H2389 0.930 . S
C2405 C2404 1.377 . S
C2405 C2406 1.379 . S
C2406 H2390 0.931 . S
C2406 C2400 1.383 . S
C2406 C2405 1.379 . S
H2407 C2401 0.959 . S
H2408 C2401 0.961 . S
H2409 C2401 0.960 . S
H2410 C2402 0.930 . S
H2411 C2403 0.929 . S
H2412 C2420 0.929 . S
H2413 C2422 0.930 . S
H2414 C2424 0.930 . S
H2415 C2427 0.929 . S
H2416 C2430 0.930 . S
H2417 C2432 0.960 . S
H2418 C2432 0.960 . S
H2419 C2432 0.960 . S
C2420 H2412 0.929 . S
C2420 C2421 1.377 . S
C2420 C2422 1.384 . S
C2421 C2420 1.377 . S
C2421 C2427 1.390 . S
C2422 H2413 0.930 . S
C2422 C2420 1.384 . S
C2422 C2423 1.372 . S
C2423 C2422 1.372 . S
C2423 C2424 1.400 . S
C2423 C2428 1.490 . S
C2424 H2414 0.930 . S
C2424 C2423 1.400 . S
C2424 C2427 1.386 . S
H2425 C2441 0.930 . S
H2426 C2442 0.931 . S
C2427 H2415 0.929 . S
C2427 C2421 1.390 . S
C2427 C2424 1.386 . S
C2428 C2423 1.490 . S
C2428 C2430 1.395 . S
C2428 C2431 1.403 . S
H2429 C2435 0.930 . S
C2430 H2416 0.930 . S
C2430 C2428 1.395 . S
C2430 C2433 1.403 . S
C2431 C2428 1.403 . S
C2431 C2432 1.524 . S
C2431 C2435 1.400 . S
C2432 H2417 0.960 . S
C2432 H2418 0.960 . S
C2432 H2419 0.960 . S
C2432 C2431 1.524 . S
C2433 C2430 1.403 . S
C2433 C2434 1.392 . S
C2433 C2437 1.495 . S
C2434 C2433 1.392 . S
C2434 C2435 1.385 . S
C2434 C2436 1.478 . S
C2435 H2429 0.930 . S
C2435 C2431 1.400 . S
C2435 C2434 1.385 . S
C2436 C2434 1.478 . S
C2436 C2438 1.381 . S
C2436 C2442 1.383 . S
C2437 C2433 1.495 . S
C2437 H2443 0.959 . S
C2437 H2444 0.961 . S
C2437 H2445 0.960 . S
C2438 C2436 1.381 . S
C2438 C2439 1.394 . S
C2438 H2446 0.930 . S
C2439 C2438 1.394 . S
C2439 C2440 1.383 . S
C2439 H2447 0.929 . S
C2440 C2439 1.383 . S
C2440 C2441 1.377 . S
C2441 H2425 0.930 . S
C2441 C2440 1.377 . S
C2441 C2442 1.379 . S
C2442 H2426 0.931 . S
C2442 C2436 1.383 . S
C2442 C2441 1.379 . S
H2443 C2437 0.959 . S
H2444 C2437 0.961 . S
H2445 C2437 0.960 . S
H2446 C2438 0.930 . S
H2447 C2439 0.929 . S
H2448 C2456 0.929 . S
H2449 C2458 0.930 . S
H2450 C2460 0.930 . S
H2451 C2463 0.929 . S
H2452 C2466 0.930 . S
H2453 C2468 0.960 . S
H2454 C2468 0.960 . S
H2455 C2468 0.960 . S
C2456 H2448 0.929 . S
C2456 C2457 1.377 . S
C2456 C2458 1.384 . S
C2457 C2456 1.377 . S
C2457 C2463 1.390 . S
C2458 H2449 0.930 . S
C2458 C2456 1.384 . S
C2458 C2459 1.372 . S
C2459 C2458 1.372 . S
C2459 C2460 1.400 . S
C2459 C2464 1.490 . S
C2460 H2450 0.930 . S
C2460 C2459 1.400 . S
C2460 C2463 1.386 . S
H2461 C2477 0.930 . S
H2462 C2478 0.931 . S
C2463 H2451 0.929 . S
C2463 C2457 1.390 . S
C2463 C2460 1.386 . S
C2464 C2459 1.490 . S
C2464 C2466 1.395 . S
C2464 C2467 1.403 . S
H2465 C2471 0.930 . S
C2466 H2452 0.930 . S
C2466 C2464 1.395 . S
C2466 C2469 1.403 . S
C2467 C2464 1.403 . S
C2467 C2468 1.524 . S
C2467 C2471 1.400 . S
C2468 H2453 0.960 . S
C2468 H2454 0.960 . S
C2468 H2455 0.960 . S
C2468 C2467 1.524 . S
C2469 C2466 1.403 . S
C2469 C2470 1.392 . S
C2469 C2473 1.495 . S
C2470 C2469 1.392 . S
C2470 C2471 1.385 . S
C2470 C2472 1.478 . S
C2471 H2465 0.930 . S
C2471 C2467 1.400 . S
C2471 C2470 1.385 . S
C2472 C2470 1.478 . S
C2472 C2474 1.381 . S
C2472 C2478 1.383 . S
C2473 C2469 1.495 . S
C2473 H2479 0.959 . S
C2473 H2480 0.961 . S
C2473 H2481 0.960 . S
C2474 C2472 1.381 . S
C2474 C2475 1.394 . S
C2474 H2482 0.930 . S
C2475 C2474 1.394 . S
C2475 C2476 1.383 . S
C2475 H2483 0.929 . S
C2476 C2475 1.383 . S
C2476 C2477 1.377 . S
C2477 H2461 0.930 . S
C2477 C2476 1.377 . S
C2477 C2478 1.379 . S
C2478 H2462 0.931 . S
C2478 C2472 1.383 . S
C2478 C2477 1.379 . S
H2479 C2473 0.959 . S
H2480 C2473 0.961 . S
H2481 C2473 0.960 . S
H2482 C2474 0.930 . S
H2483 C2475 0.929 . S
H2484 C2492 0.929 . S
H2485 C2494 0.930 . S
H2486 C2496 0.930 . S
H2487 C2499 0.929 . S
H2488 C2502 0.930 . S
H2489 C2504 0.960 . S
H2490 C2504 0.960 . S
H2491 C2504 0.960 . S
C2492 H2484 0.929 . S
C2492 C2493 1.377 . S
C2492 C2494 1.384 . S
C2493 C2492 1.377 . S
C2493 C2499 1.390 . S
C2494 H2485 0.930 . S
C2494 C2492 1.384 . S
C2494 C2495 1.372 . S
C2495 C2494 1.372 . S
C2495 C2496 1.400 . S
C2495 C2500 1.490 . S
C2496 H2486 0.930 . S
C2496 C2495 1.400 . S
C2496 C2499 1.386 . S
H2497 C2513 0.930 . S
H2498 C2514 0.931 . S
C2499 H2487 0.929 . S
C2499 C2493 1.390 . S
C2499 C2496 1.386 . S
C2500 C2495 1.490 . S
C2500 C2502 1.395 . S
C2500 C2503 1.403 . S
H2501 C2507 0.930 . S
C2502 H2488 0.930 . S
C2502 C2500 1.395 . S
C2502 C2505 1.403 . S
C2503 C2500 1.403 . S
C2503 C2504 1.524 . S
C2503 C2507 1.400 . S
C2504 H2489 0.960 . S
C2504 H2490 0.960 . S
C2504 H2491 0.960 . S
C2504 C2503 1.524 . S
C2505 C2502 1.403 . S
C2505 C2506 1.392 . S
C2505 C2509 1.495 . S
C2506 C2505 1.392 . S
C2506 C2507 1.385 . S
C2506 C2508 1.478 . S
C2507 H2501 0.930 . S
C2507 C2503 1.400 . S
C2507 C2506 1.385 . S
C2508 C2506 1.478 . S
C2508 C2510 1.381 . S
C2508 C2514 1.383 . S
C2509 C2505 1.495 . S
C2509 H2515 0.959 . S
C2509 H2516 0.961 . S
C2509 H2517 0.960 . S
C2510 C2508 1.381 . S
C2510 C2511 1.394 . S
C2510 H2518 0.930 . S
C2511 C2510 1.394 . S
C2511 C2512 1.383 . S
C2511 H2519 0.929 . S
C2512 C2511 1.383 . S
C2512 C2513 1.377 . S
C2513 H2497 0.930 . S
C2513 C2512 1.377 . S
C2513 C2514 1.379 . S
C2514 H2498 0.931 . S
C2514 C2508 1.383 . S
C2514 C2513 1.379 . S
H2515 C2509 0.959 . S
H2516 C2509 0.961 . S
H2517 C2509 0.960 . S
H2518 C2510 0.930 . S
H2519 C2511 0.929 . S
H2520 C2528 0.929 . S
H2521 C2530 0.930 . S
H2522 C2532 0.930 . S
H2523 C2535 0.929 . S
H2524 C2538 0.930 . S
H2525 C2540 0.960 . S
H2526 C2540 0.960 . S
H2527 C2540 0.960 . S
C2528 H2520 0.929 . S
C2528 C2529 1.377 . S
C2528 C2530 1.384 . S
C2529 C2528 1.377 . S
C2529 C2535 1.390 . S
C2530 H2521 0.930 . S
C2530 C2528 1.384 . S
C2530 C2531 1.372 . S
C2531 C2530 1.372 . S
C2531 C2532 1.400 . S
C2531 C2536 1.490 . S
C2532 H2522 0.930 . S
C2532 C2531 1.400 . S
C2532 C2535 1.386 . S
H2533 C2549 0.930 . S
H2534 C2550 0.931 . S
C2535 H2523 0.929 . S
C2535 C2529 1.390 . S
C2535 C2532 1.386 . S
C2536 C2531 1.490 . S
C2536 C2538 1.395 . S
C2536 C2539 1.403 . S
H2537 C2543 0.930 . S
C2538 H2524 0.930 . S
C2538 C2536 1.395 . S
C2538 C2541 1.403 . S
C2539 C2536 1.403 . S
C2539 C2540 1.524 . S
C2539 C2543 1.400 . S
C2540 H2525 0.960 . S
C2540 H2526 0.960 . S
C2540 H2527 0.960 . S
C2540 C2539 1.524 . S
C2541 C2538 1.403 . S
C2541 C2542 1.392 . S
C2541 C2545 1.495 . S
C2542 C2541 1.392 . S
C2542 C2543 1.385 . S
C2542 C2544 1.478 . S
C2543 H2537 0.930 . S
C2543 C2539 1.400 . S
C2543 C2542 1.385 . S
C2544 C2542 1.478 . S
C2544 C2546 1.381 . S
C2544 C2550 1.383 . S
C2545 C2541 1.495 . S
C2545 H2551 0.959 . S
C2545 H2552 0.961 . S
C2545 H2553 0.960 . S
C2546 C2544 1.381 . S
C2546 C2547 1.394 . S
C2546 H2554 0.930 . S
C2547 C2546 1.394 . S
C2547 C2548 1.383 . S
C2547 H2555 0.929 . S
C2548 C2547 1.383 . S
C2548 C2549 1.377 . S
C2549 H2533 0.930 . S
C2549 C2548 1.377 . S
C2549 C2550 1.379 . S
C2550 H2534 0.931 . S
C2550 C2544 1.383 . S
C2550 C2549 1.379 . S
H2551 C2545 0.959 . S
H2552 C2545 0.961 . S
H2553 C2545 0.960 . S
H2554 C2546 0.930 . S
H2555 C2547 0.929 . S
H2556 C2564 0.929 . S
H2557 C2566 0.930 . S
H2558 C2568 0.930 . S
H2559 C2571 0.929 . S
H2560 C2574 0.930 . S
H2561 C2576 0.960 . S
H2562 C2576 0.960 . S
H2563 C2576 0.960 . S
C2564 H2556 0.929 . S
C2564 C2565 1.377 . S
C2564 C2566 1.384 . S
C2565 C2564 1.377 . S
C2565 C2571 1.390 . S
C2566 H2557 0.930 . S
C2566 C2564 1.384 . S
C2566 C2567 1.372 . S
C2567 C2566 1.372 . S
C2567 C2568 1.400 . S
C2567 C2572 1.490 . S
C2568 H2558 0.930 . S
C2568 C2567 1.400 . S
C2568 C2571 1.386 . S
H2569 C2585 0.930 . S
H2570 C2586 0.931 . S
C2571 H2559 0.929 . S
C2571 C2565 1.390 . S
C2571 C2568 1.386 . S
C2572 C2567 1.490 . S
C2572 C2574 1.395 . S
C2572 C2575 1.403 . S
H2573 C2579 0.930 . S
C2574 H2560 0.930 . S
C2574 C2572 1.395 . S
C2574 C2577 1.403 . S
C2575 C2572 1.403 . S
C2575 C2576 1.524 . S
C2575 C2579 1.400 . S
C2576 H2561 0.960 . S
C2576 H2562 0.960 . S
C2576 H2563 0.960 . S
C2576 C2575 1.524 . S
C2577 C2574 1.403 . S
C2577 C2578 1.392 . S
C2577 C2581 1.495 . S
C2578 C2577 1.392 . S
C2578 C2579 1.385 . S
C2578 C2580 1.478 . S
C2579 H2573 0.930 . S
C2579 C2575 1.400 . S
C2579 C2578 1.385 . S
C2580 C2578 1.478 . S
C2580 C2582 1.381 . S
C2580 C2586 1.383 . S
C2581 C2577 1.495 . S
C2581 H2587 0.959 . S
C2581 H2588 0.961 . S
C2581 H2589 0.960 . S
C2582 C2580 1.381 . S
C2582 C2583 1.394 . S
C2582 H2590 0.930 . S
C2583 C2582 1.394 . S
C2583 C2584 1.383 . S
C2583 H2591 0.929 . S
C2584 C2583 1.383 . S
C2584 C2585 1.377 . S
C2585 H2569 0.930 . S
C2585 C2584 1.377 . S
C2585 C2586 1.379 . S
C2586 H2570 0.931 . S
C2586 C2580 1.383 . S
C2586 C2585 1.379 . S
H2587 C2581 0.959 . S
H2588 C2581 0.961 . S
H2589 C2581 0.960 . S
H2590 C2582 0.930 . S
H2591 C2583 0.929 . S
H2592 C2600 0.929 . S
H2593 C2602 0.930 . S
H2594 C2604 0.930 . S
H2595 C2607 0.929 . S
H2596 C2610 0.930 . S
H2597 C2612 0.960 . S
H2598 C2612 0.960 . S
H2599 C2612 0.960 . S
C2600 H2592 0.929 . S
C2600 C2601 1.377 . S
C2600 C2602 1.384 . S
C2601 C2600 1.377 . S
C2601 C2607 1.390 . S
C2602 H2593 0.930 . S
C2602 C2600 1.384 . S
C2602 C2603 1.372 . S
C2603 C2602 1.372 . S
C2603 C2604 1.400 . S
C2603 C2608 1.490 . S
C2604 H2594 0.930 . S
C2604 C2603 1.400 . S
C2604 C2607 1.386 . S
H2605 C2621 0.930 . S
H2606 C2622 0.931 . S
C2607 H2595 0.929 . S
C2607 C2601 1.390 . S
C2607 C2604 1.386 . S
C2608 C2603 1.490 . S
C2608 C2610 1.395 . S
C2608 C2611 1.403 . S
H2609 C2615 0.930 . S
C2610 H2596 0.930 . S
C2610 C2608 1.395 . S
C2610 C2613 1.403 . S
C2611 C2608 1.403 . S
C2611 C2612 1.524 . S
C2611 C2615 1.400 . S
C2612 H2597 0.960 . S
C2612 H2598 0.960 . S
C2612 H2599 0.960 . S
C2612 C2611 1.524 . S
C2613 C2610 1.403 . S
C2613 C2614 1.392 . S
C2613 C2617 1.495 . S
C2614 C2613 1.392 . S
C2614 C2615 1.385 . S
C2614 C2616 1.478 . S
C2615 H2609 0.930 . S
C2615 C2611 1.400 . S
C2615 C2614 1.385 . S
C2616 C2614 1.478 . S
C2616 C2618 1.381 . S
C2616 C2622 1.383 . S
C2617 C2613 1.495 . S
C2617 H2623 0.959 . S
C2617 H2624 0.961 . S
C2617 H2625 0.960 . S
C2618 C2616 1.381 . S
C2618 C2619 1.394 . S
C2618 H2626 0.930 . S
C2619 C2618 1.394 . S
C2619 C2620 1.383 . S
C2619 H2627 0.929 . S
C2620 C2619 1.383 . S
C2620 C2621 1.377 . S
C2621 H2605 0.930 . S
C2621 C2620 1.377 . S
C2621 C2622 1.379 . S
C2622 H2606 0.931 . S
C2622 C2616 1.383 . S
C2622 C2621 1.379 . S
H2623 C2617 0.959 . S
H2624 C2617 0.961 . S
H2625 C2617 0.960 . S
H2626 C2618 0.930 . S
H2627 C2619 0.929 . S
H2628 C2636 0.929 . S
H2629 C2638 0.930 . S
H2630 C2640 0.930 . S
H2631 C2643 0.929 . S
H2632 C2646 0.930 . S
H2633 C2648 0.960 . S
H2634 C2648 0.960 . S
H2635 C2648 0.960 . S
C2636 H2628 0.929 . S
C2636 C2637 1.377 . S
C2636 C2638 1.384 . S
C2637 C2636 1.377 . S
C2637 C2643 1.390 . S
C2638 H2629 0.930 . S
C2638 C2636 1.384 . S
C2638 C2639 1.372 . S
C2639 C2638 1.372 . S
C2639 C2640 1.400 . S
C2639 C2644 1.490 . S
C2640 H2630 0.930 . S
C2640 C2639 1.400 . S
C2640 C2643 1.386 . S
H2641 C2657 0.930 . S
H2642 C2658 0.931 . S
C2643 H2631 0.929 . S
C2643 C2637 1.390 . S
C2643 C2640 1.386 . S
C2644 C2639 1.490 . S
C2644 C2646 1.395 . S
C2644 C2647 1.403 . S
H2645 C2651 0.930 . S
C2646 H2632 0.930 . S
C2646 C2644 1.395 . S
C2646 C2649 1.403 . S
C2647 C2644 1.403 . S
C2647 C2648 1.524 . S
C2647 C2651 1.400 . S
C2648 H2633 0.960 . S
C2648 H2634 0.960 . S
C2648 H2635 0.960 . S
C2648 C2647 1.524 . S
C2649 C2646 1.403 . S
C2649 C2650 1.392 . S
C2649 C2653 1.495 . S
C2650 C2649 1.392 . S
C2650 C2651 1.385 . S
C2650 C2652 1.478 . S
C2651 H2645 0.930 . S
C2651 C2647 1.400 . S
C2651 C2650 1.385 . S
C2652 C2650 1.478 . S
C2652 C2654 1.381 . S
C2652 C2658 1.383 . S
C2653 C2649 1.495 . S
C2653 H2659 0.959 . S
C2653 H2660 0.961 . S
C2653 H2661 0.960 . S
C2654 C2652 1.381 . S
C2654 C2655 1.394 . S
C2654 H2662 0.930 . S
C2655 C2654 1.394 . S
C2655 C2656 1.383 . S
C2655 H2663 0.929 . S
C2656 C2655 1.383 . S
C2656 C2657 1.377 . S
C2657 H2641 0.930 . S
C2657 C2656 1.377 . S
C2657 C2658 1.379 . S
C2658 H2642 0.931 . S
C2658 C2652 1.383 . S
C2658 C2657 1.379 . S
H2659 C2653 0.959 . S
H2660 C2653 0.961 . S
H2661 C2653 0.960 . S
H2662 C2654 0.930 . S
H2663 C2655 0.929 . S
H2664 C2672 0.929 . S
H2665 C2674 0.930 . S
H2666 C2676 0.930 . S
H2667 C2679 0.929 . S
H2668 C2682 0.930 . S
H2669 C2684 0.960 . S
H2670 C2684 0.960 . S
H2671 C2684 0.960 . S
C2672 H2664 0.929 . S
C2672 C2673 1.377 . S
C2672 C2674 1.384 . S
C2673 C2672 1.377 . S
C2673 C2679 1.390 . S
C2674 H2665 0.930 . S
C2674 C2672 1.384 . S
C2674 C2675 1.372 . S
C2675 C2674 1.372 . S
C2675 C2676 1.400 . S
C2675 C2680 1.490 . S
C2676 H2666 0.930 . S
C2676 C2675 1.400 . S
C2676 C2679 1.386 . S
H2677 C2693 0.930 . S
H2678 C2694 0.931 . S
C2679 H2667 0.929 . S
C2679 C2673 1.390 . S
C2679 C2676 1.386 . S
C2680 C2675 1.490 . S
C2680 C2682 1.395 . S
C2680 C2683 1.403 . S
H2681 C2687 0.930 . S
C2682 H2668 0.930 . S
C2682 C2680 1.395 . S
C2682 C2685 1.403 . S
C2683 C2680 1.403 . S
C2683 C2684 1.524 . S
C2683 C2687 1.400 . S
C2684 H2669 0.960 . S
C2684 H2670 0.960 . S
C2684 H2671 0.960 . S
C2684 C2683 1.524 . S
C2685 C2682 1.403 . S
C2685 C2686 1.392 . S
C2685 C2689 1.495 . S
C2686 C2685 1.392 . S
C2686 C2687 1.385 . S
C2686 C2688 1.478 . S
C2687 H2681 0.930 . S
C2687 C2683 1.400 . S
C2687 C2686 1.385 . S
C2688 C2686 1.478 . S
C2688 C2690 1.381 . S
C2688 C2694 1.383 . S
C2689 C2685 1.495 . S
C2689 H2695 0.959 . S
C2689 H2696 0.961 . S
C2689 H2697 0.960 . S
C2690 C2688 1.381 . S
C2690 C2691 1.394 . S
C2690 H2698 0.930 . S
C2691 C2690 1.394 . S
C2691 C2692 1.383 . S
C2691 H2699 0.929 . S
C2692 C2691 1.383 . S
C2692 C2693 1.377 . S
C2693 H2677 0.930 . S
C2693 C2692 1.377 . S
C2693 C2694 1.379 . S
C2694 H2678 0.931 . S
C2694 C2688 1.383 . S
C2694 C2693 1.379 . S
H2695 C2689 0.959 . S
H2696 C2689 0.961 . S
H2697 C2689 0.960 . S
H2698 C2690 0.930 . S
H2699 C2691 0.929 . S
H2700 C2708 0.929 . S
H2701 C2710 0.930 . S
H2702 C2712 0.930 . S
H2703 C2715 0.929 . S
H2704 C2718 0.930 . S
H2705 C2720 0.960 . S
H2706 C2720 0.960 . S
H2707 C2720 0.960 . S
C2708 H2700 0.929 . S
C2708 C2709 1.377 . S
C2708 C2710 1.384 . S
C2709 C2708 1.377 . S
C2709 C2715 1.390 . S
C2710 H2701 0.930 . S
C2710 C2708 1.384 . S
C2710 C2711 1.372 . S
C2711 C2710 1.372 . S
C2711 C2712 1.400 . S
C2711 C2716 1.490 . S
C2712 H2702 0.930 . S
C2712 C2711 1.400 . S
C2712 C2715 1.386 . S
H2713 C2729 0.930 . S
H2714 C2730 0.931 . S
C2715 H2703 0.929 . S
C2715 C2709 1.390 . S
C2715 C2712 1.386 . S
C2716 C2711 1.490 . S
C2716 C2718 1.395 . S
C2716 C2719 1.403 . S
H2717 C2723 0.930 . S
C2718 H2704 0.930 . S
C2718 C2716 1.395 . S
C2718 C2721 1.403 . S
C2719 C2716 1.403 . S
C2719 C2720 1.524 . S
C2719 C2723 1.400 . S
C2720 H2705 0.960 . S
C2720 H2706 0.960 . S
C2720 H2707 0.960 . S
C2720 C2719 1.524 . S
C2721 C2718 1.403 . S
C2721 C2722 1.392 . S
C2721 C2725 1.495 . S
C2722 C2721 1.392 . S
C2722 C2723 1.385 . S
C2722 C2724 1.478 . S
C2723 H2717 0.930 . S
C2723 C2719 1.400 . S
C2723 C2722 1.385 . S
C2724 C2722 1.478 . S
C2724 C2726 1.381 . S
C2724 C2730 1.383 . S
C2725 C2721 1.495 . S
C2725 H2731 0.959 . S
C2725 H2732 0.961 . S
C2725 H2733 0.960 . S
C2726 C2724 1.381 . S
C2726 C2727 1.394 . S
C2726 H2734 0.930 . S
C2727 C2726 1.394 . S
C2727 C2728 1.383 . S
C2727 H2735 0.929 . S
C2728 C2727 1.383 . S
C2728 C2729 1.377 . S
C2729 H2713 0.930 . S
C2729 C2728 1.377 . S
C2729 C2730 1.379 . S
C2730 H2714 0.931 . S
C2730 C2724 1.383 . S
C2730 C2729 1.379 . S
H2731 C2725 0.959 . S
H2732 C2725 0.961 . S
H2733 C2725 0.960 . S
H2734 C2726 0.930 . S
H2735 C2727 0.929 . S
H2736 C2744 0.929 . S
H2737 C2746 0.930 . S
H2738 C2748 0.930 . S
H2739 C2751 0.929 . S
H2740 C2754 0.930 . S
H2741 C2756 0.960 . S
H2742 C2756 0.960 . S
H2743 C2756 0.960 . S
C2744 H2736 0.929 . S
C2744 C2745 1.377 . S
C2744 C2746 1.384 . S
C2745 C2744 1.377 . S
C2745 C2751 1.390 . S
C2746 H2737 0.930 . S
C2746 C2744 1.384 . S
C2746 C2747 1.372 . S
C2747 C2746 1.372 . S
C2747 C2748 1.400 . S
C2747 C2752 1.490 . S
C2748 H2738 0.930 . S
C2748 C2747 1.400 . S
C2748 C2751 1.386 . S
H2749 C2765 0.930 . S
H2750 C2766 0.931 . S
C2751 H2739 0.929 . S
C2751 C2745 1.390 . S
C2751 C2748 1.386 . S
C2752 C2747 1.490 . S
C2752 C2754 1.395 . S
C2752 C2755 1.403 . S
H2753 C2759 0.930 . S
C2754 H2740 0.930 . S
C2754 C2752 1.395 . S
C2754 C2757 1.403 . S
C2755 C2752 1.403 . S
C2755 C2756 1.524 . S
C2755 C2759 1.400 . S
C2756 H2741 0.960 . S
C2756 H2742 0.960 . S
C2756 H2743 0.960 . S
C2756 C2755 1.524 . S
C2757 C2754 1.403 . S
C2757 C2758 1.392 . S
C2757 C2761 1.495 . S
C2758 C2757 1.392 . S
C2758 C2759 1.385 . S
C2758 C2760 1.478 . S
C2759 H2753 0.930 . S
C2759 C2755 1.400 . S
C2759 C2758 1.385 . S
C2760 C2758 1.478 . S
C2760 C2762 1.381 . S
C2760 C2766 1.383 . S
C2761 C2757 1.495 . S
C2761 H2767 0.959 . S
C2761 H2768 0.961 . S
C2761 H2769 0.960 . S
C2762 C2760 1.381 . S
C2762 C2763 1.394 . S
C2762 H2770 0.930 . S
C2763 C2762 1.394 . S
C2763 C2764 1.383 . S
C2763 H2771 0.929 . S
C2764 C2763 1.383 . S
C2764 C2765 1.377 . S
C2765 H2749 0.930 . S
C2765 C2764 1.377 . S
C2765 C2766 1.379 . S
C2766 H2750 0.931 . S
C2766 C2760 1.383 . S
C2766 C2765 1.379 . S
H2767 C2761 0.959 . S
H2768 C2761 0.961 . S
H2769 C2761 0.960 . S
H2770 C2762 0.930 . S
H2771 C2763 0.929 . S
H2772 C2780 0.929 . S
H2773 C2782 0.930 . S
H2774 C2784 0.930 . S
H2775 C2787 0.929 . S
H2776 C2790 0.930 . S
H2777 C2792 0.960 . S
H2778 C2792 0.960 . S
H2779 C2792 0.960 . S
C2780 H2772 0.929 . S
C2780 C2781 1.377 . S
C2780 C2782 1.384 . S
C2781 C2780 1.377 . S
C2781 C2787 1.390 . S
C2782 H2773 0.930 . S
C2782 C2780 1.384 . S
C2782 C2783 1.372 . S
C2783 C2782 1.372 . S
C2783 C2784 1.400 . S
C2783 C2788 1.490 . S
C2784 H2774 0.930 . S
C2784 C2783 1.400 . S
C2784 C2787 1.386 . S
H2785 C2801 0.930 . S
H2786 C2802 0.931 . S
C2787 H2775 0.929 . S
C2787 C2781 1.390 . S
C2787 C2784 1.386 . S
C2788 C2783 1.490 . S
C2788 C2790 1.395 . S
C2788 C2791 1.403 . S
H2789 C2795 0.930 . S
C2790 H2776 0.930 . S
C2790 C2788 1.395 . S
C2790 C2793 1.403 . S
C2791 C2788 1.403 . S
C2791 C2792 1.524 . S
C2791 C2795 1.400 . S
C2792 H2777 0.960 . S
C2792 H2778 0.960 . S
C2792 H2779 0.960 . S
C2792 C2791 1.524 . S
C2793 C2790 1.403 . S
C2793 C2794 1.392 . S
C2793 C2797 1.495 . S
C2794 C2793 1.392 . S
C2794 C2795 1.385 . S
C2794 C2796 1.478 . S
C2795 H2789 0.930 . S
C2795 C2791 1.400 . S
C2795 C2794 1.385 . S
C2796 C2794 1.478 . S
C2796 C2798 1.381 . S
C2796 C2802 1.383 . S
C2797 C2793 1.495 . S
C2797 H2803 0.959 . S
C2797 H2804 0.961 . S
C2797 H2805 0.960 . S
C2798 C2796 1.381 . S
C2798 C2799 1.394 . S
C2798 H2806 0.930 . S
C2799 C2798 1.394 . S
C2799 C2800 1.383 . S
C2799 H2807 0.929 . S
C2800 C2799 1.383 . S
C2800 C2801 1.377 . S
C2801 H2785 0.930 . S
C2801 C2800 1.377 . S
C2801 C2802 1.379 . S
C2802 H2786 0.931 . S
C2802 C2796 1.383 . S
C2802 C2801 1.379 . S
H2803 C2797 0.959 . S
H2804 C2797 0.961 . S
H2805 C2797 0.960 . S
H2806 C2798 0.930 . S
H2807 C2799 0.929 . S
H2808 C2816 0.929 . S
H2809 C2818 0.930 . S
H2810 C2820 0.930 . S
H2811 C2823 0.929 . S
H2812 C2826 0.930 . S
H2813 C2828 0.960 . S
H2814 C2828 0.960 . S
H2815 C2828 0.960 . S
C2816 H2808 0.929 . S
C2816 C2817 1.377 . S
C2816 C2818 1.384 . S
C2817 C2816 1.377 . S
C2817 C2823 1.390 . S
C2818 H2809 0.930 . S
C2818 C2816 1.384 . S
C2818 C2819 1.372 . S
C2819 C2818 1.372 . S
C2819 C2820 1.400 . S
C2819 C2824 1.490 . S
C2820 H2810 0.930 . S
C2820 C2819 1.400 . S
C2820 C2823 1.386 . S
H2821 C2837 0.930 . S
H2822 C2838 0.931 . S
C2823 H2811 0.929 . S
C2823 C2817 1.390 . S
C2823 C2820 1.386 . S
C2824 C2819 1.490 . S
C2824 C2826 1.395 . S
C2824 C2827 1.403 . S
H2825 C2831 0.930 . S
C2826 H2812 0.930 . S
C2826 C2824 1.395 . S
C2826 C2829 1.403 . S
C2827 C2824 1.403 . S
C2827 C2828 1.524 . S
C2827 C2831 1.400 . S
C2828 H2813 0.960 . S
C2828 H2814 0.960 . S
C2828 H2815 0.960 . S
C2828 C2827 1.524 . S
C2829 C2826 1.403 . S
C2829 C2830 1.392 . S
C2829 C2833 1.495 . S
C2830 C2829 1.392 . S
C2830 C2831 1.385 . S
C2830 C2832 1.478 . S
C2831 H2825 0.930 . S
C2831 C2827 1.400 . S
C2831 C2830 1.385 . S
C2832 C2830 1.478 . S
C2832 C2834 1.381 . S
C2832 C2838 1.383 . S
C2833 C2829 1.495 . S
C2833 H2839 0.959 . S
C2833 H2840 0.961 . S
C2833 H2841 0.960 . S
C2834 C2832 1.381 . S
C2834 C2835 1.394 . S
C2834 H2842 0.930 . S
C2835 C2834 1.394 . S
C2835 C2836 1.383 . S
C2835 H2843 0.929 . S
C2836 C2835 1.383 . S
C2836 C2837 1.377 . S
C2837 H2821 0.930 . S
C2837 C2836 1.377 . S
C2837 C2838 1.379 . S
C2838 H2822 0.931 . S
C2838 C2832 1.383 . S
C2838 C2837 1.379 . S
H2839 C2833 0.959 . S
H2840 C2833 0.961 . S
H2841 C2833 0.960 . S
H2842 C2834 0.930 . S
H2843 C2835 0.929 . S
H2844 C2852 0.929 . S
H2845 C2854 0.930 . S
H2846 C2856 0.930 . S
H2847 C2859 0.929 . S
H2848 C2862 0.930 . S
H2849 C2864 0.960 . S
H2850 C2864 0.960 . S
H2851 C2864 0.960 . S
C2852 H2844 0.929 . S
C2852 C2853 1.377 . S
C2852 C2854 1.384 . S
C2853 C2852 1.377 . S
C2853 C2859 1.390 . S
C2854 H2845 0.930 . S
C2854 C2852 1.384 . S
C2854 C2855 1.372 . S
C2855 C2854 1.372 . S
C2855 C2856 1.400 . S
C2855 C2860 1.490 . S
C2856 H2846 0.930 . S
C2856 C2855 1.400 . S
C2856 C2859 1.386 . S
H2857 C2873 0.930 . S
H2858 C2874 0.931 . S
C2859 H2847 0.929 . S
C2859 C2853 1.390 . S
C2859 C2856 1.386 . S
C2860 C2855 1.490 . S
C2860 C2862 1.395 . S
C2860 C2863 1.403 . S
H2861 C2867 0.930 . S
C2862 H2848 0.930 . S
C2862 C2860 1.395 . S
C2862 C2865 1.403 . S
C2863 C2860 1.403 . S
C2863 C2864 1.524 . S
C2863 C2867 1.400 . S
C2864 H2849 0.960 . S
C2864 H2850 0.960 . S
C2864 H2851 0.960 . S
C2864 C2863 1.524 . S
C2865 C2862 1.403 . S
C2865 C2866 1.392 . S
C2865 C2869 1.495 . S
C2866 C2865 1.392 . S
C2866 C2867 1.385 . S
C2866 C2868 1.478 . S
C2867 H2861 0.930 . S
C2867 C2863 1.400 . S
C2867 C2866 1.385 . S
C2868 C2866 1.478 . S
C2868 C2870 1.381 . S
C2868 C2874 1.383 . S
C2869 C2865 1.495 . S
C2869 H2875 0.959 . S
C2869 H2876 0.961 . S
C2869 H2877 0.960 . S
C2870 C2868 1.381 . S
C2870 C2871 1.394 . S
C2870 H2878 0.930 . S
C2871 C2870 1.394 . S
C2871 C2872 1.383 . S
C2871 H2879 0.929 . S
C2872 C2871 1.383 . S
C2872 C2873 1.377 . S
C2873 H2857 0.930 . S
C2873 C2872 1.377 . S
C2873 C2874 1.379 . S
C2874 H2858 0.931 . S
C2874 C2868 1.383 . S
C2874 C2873 1.379 . S
H2875 C2869 0.959 . S
H2876 C2869 0.961 . S
H2877 C2869 0.960 . S
H2878 C2870 0.930 . S
H2879 C2871 0.929 . S
H2880 C2888 0.929 . S
H2881 C2890 0.930 . S
H2882 C2892 0.930 . S
H2883 C2895 0.929 . S
H2884 C2898 0.930 . S
H2885 C2900 0.960 . S
H2886 C2900 0.960 . S
H2887 C2900 0.960 . S
C2888 H2880 0.929 . S
C2888 C2889 1.377 . S
C2888 C2890 1.384 . S
C2889 C2888 1.377 . S
C2889 C2895 1.390 . S
C2890 H2881 0.930 . S
C2890 C2888 1.384 . S
C2890 C2891 1.372 . S
C2891 C2890 1.372 . S
C2891 C2892 1.400 . S
C2891 C2896 1.490 . S
C2892 H2882 0.930 . S
C2892 C2891 1.400 . S
C2892 C2895 1.386 . S
H2893 C2909 0.930 . S
H2894 C2910 0.931 . S
C2895 H2883 0.929 . S
C2895 C2889 1.390 . S
C2895 C2892 1.386 . S
C2896 C2891 1.490 . S
C2896 C2898 1.395 . S
C2896 C2899 1.403 . S
H2897 C2903 0.930 . S
C2898 H2884 0.930 . S
C2898 C2896 1.395 . S
C2898 C2901 1.403 1_455 S
C2899 C2896 1.403 . S
C2899 C2900 1.524 . S
C2899 C2903 1.400 1_455 S
C2900 H2885 0.960 . S
C2900 H2886 0.960 . S
C2900 H2887 0.960 . S
C2900 C2899 1.524 . S
C2901 C2898 1.403 1_655 S
C2901 C2902 1.392 . S
C2901 C2905 1.495 . S
C2902 C2901 1.392 . S
C2902 C2903 1.385 . S
C2902 C2904 1.478 . S
C2903 H2897 0.930 . S
C2903 C2899 1.400 1_655 S
C2903 C2902 1.385 . S
C2904 C2902 1.478 . S
C2904 C2906 1.381 . S
C2904 C2910 1.383 . S
C2905 C2901 1.495 . S
C2905 H2911 0.959 . S
C2905 H2912 0.961 . S
C2905 H2913 0.960 . S
C2906 C2904 1.381 . S
C2906 C2907 1.394 . S
C2906 H2914 0.930 . S
C2907 C2906 1.394 . S
C2907 C2908 1.383 . S
C2907 H2915 0.929 . S
C2908 C2907 1.383 . S
C2908 C2909 1.377 . S
C2909 H2893 0.930 . S
C2909 C2908 1.377 . S
C2909 C2910 1.379 . S
C2910 H2894 0.931 . S
C2910 C2904 1.383 . S
C2910 C2909 1.379 . S
H2911 C2905 0.959 . S
H2912 C2905 0.961 . S
H2913 C2905 0.960 . S
H2914 C2906 0.930 . S
H2915 C2907 0.929 . S
H2916 C2924 0.929 . S
H2917 C2926 0.930 . S
H2918 C2928 0.930 . S
H2919 C2931 0.929 . S
H2920 C2934 0.930 . S
H2921 C2936 0.960 . S
H2922 C2936 0.960 . S
H2923 C2936 0.960 . S
C2924 H2916 0.929 . S
C2924 C2925 1.377 . S
C2924 C2926 1.384 . S
C2925 C2924 1.377 . S
C2925 C2931 1.390 . S
C2926 H2917 0.930 . S
C2926 C2924 1.384 . S
C2926 C2927 1.372 . S
C2927 C2926 1.372 . S
C2927 C2928 1.400 . S
C2927 C2932 1.490 . S
C2928 H2918 0.930 . S
C2928 C2927 1.400 . S
C2928 C2931 1.386 . S
H2929 C2945 0.930 . S
H2930 C2946 0.931 . S
C2931 H2919 0.929 . S
C2931 C2925 1.390 . S
C2931 C2928 1.386 . S
C2932 C2927 1.490 . S
C2932 C2934 1.395 . S
C2932 C2935 1.403 . S
H2933 C2939 0.930 . S
C2934 H2920 0.930 . S
C2934 C2932 1.395 . S
C2934 C2937 1.403 . S
C2935 C2932 1.403 . S
C2935 C2936 1.524 . S
C2935 C2939 1.400 . S
C2936 H2921 0.960 . S
C2936 H2922 0.960 . S
C2936 H2923 0.960 . S
C2936 C2935 1.524 . S
C2937 C2934 1.403 . S
C2937 C2938 1.392 . S
C2937 C2941 1.495 . S
C2938 C2937 1.392 . S
C2938 C2939 1.385 . S
C2938 C2940 1.478 . S
C2939 H2933 0.930 . S
C2939 C2935 1.400 . S
C2939 C2938 1.385 . S
C2940 C2938 1.478 . S
C2940 C2942 1.381 . S
C2940 C2946 1.383 . S
C2941 C2937 1.495 . S
C2941 H2947 0.959 . S
C2941 H2948 0.961 . S
C2941 H2949 0.960 . S
C2942 C2940 1.381 . S
C2942 C2943 1.394 . S
C2942 H2950 0.930 . S
C2943 C2942 1.394 . S
C2943 C2944 1.383 . S
C2943 H2951 0.929 . S
C2944 C2943 1.383 . S
C2944 C2945 1.377 . S
C2945 H2929 0.930 . S
C2945 C2944 1.377 . S
C2945 C2946 1.379 . S
C2946 H2930 0.931 . S
C2946 C2940 1.383 . S
C2946 C2945 1.379 . S
H2947 C2941 0.959 . S
H2948 C2941 0.961 . S
H2949 C2941 0.960 . S
H2950 C2942 0.930 . S
H2951 C2943 0.929 . S
H2952 C2960 0.929 . S
H2953 C2962 0.930 . S
H2954 C2964 0.930 . S
H2955 C2967 0.929 . S
H2956 C2970 0.930 . S
H2957 C2972 0.960 1_565 S
H2958 C2972 0.960 . S
H2959 C2972 0.960 . S
C2960 H2952 0.929 . S
C2960 C2961 1.377 . S
C2960 C2962 1.384 . S
C2961 C2960 1.377 . S
C2961 C2967 1.390 . S
C2962 H2953 0.930 . S
C2962 C2960 1.384 . S
C2962 C2963 1.372 . S
C2963 C2962 1.372 . S
C2963 C2964 1.400 . S
C2963 C2968 1.490 . S
C2964 H2954 0.930 . S
C2964 C2963 1.400 . S
C2964 C2967 1.386 . S
H2965 C2981 0.930 . S
H2966 C2982 0.931 . S
C2967 H2955 0.929 . S
C2967 C2961 1.390 . S
C2967 C2964 1.386 . S
C2968 C2963 1.490 . S
C2968 C2970 1.395 . S
C2968 C2971 1.403 . S
H2969 C2975 0.930 . S
C2970 H2956 0.930 . S
C2970 C2968 1.395 . S
C2970 C2973 1.403 1_545 S
C2971 C2968 1.403 . S
C2971 C2972 1.524 . S
C2971 C2975 1.400 1_545 S
C2972 H2957 0.960 1_545 S
C2972 H2958 0.960 . S
C2972 H2959 0.960 . S
C2972 C2971 1.524 . S
C2973 C2970 1.403 1_565 S
C2973 C2974 1.392 . S
C2973 C2977 1.495 . S
C2974 C2973 1.392 . S
C2974 C2975 1.385 . S
C2974 C2976 1.478 . S
C2975 H2969 0.930 . S
C2975 C2971 1.400 1_565 S
C2975 C2974 1.385 . S
C2976 C2974 1.478 . S
C2976 C2978 1.381 . S
C2976 C2982 1.383 . S
C2977 C2973 1.495 . S
C2977 H2983 0.959 1_565 S
C2977 H2984 0.961 . S
C2977 H2985 0.960 . S
C2978 C2976 1.381 . S
C2978 C2979 1.394 . S
C2978 H2986 0.930 . S
C2979 C2978 1.394 . S
C2979 C2980 1.383 . S
C2979 H2987 0.929 . S
C2980 C2979 1.383 . S
C2980 C2981 1.377 . S
C2981 H2965 0.930 . S
C2981 C2980 1.377 . S
C2981 C2982 1.379 . S
C2982 H2966 0.931 . S
C2982 C2976 1.383 . S
C2982 C2981 1.379 . S
H2983 C2977 0.959 1_545 S
H2984 C2977 0.961 . S
H2985 C2977 0.960 . S
H2986 C2978 0.930 . S
H2987 C2979 0.929 . S
H2988 C2996 0.929 . S
H2989 C2998 0.930 . S
H2990 C3000 0.930 . S
H2991 C3003 0.929 . S
H2992 C3006 0.930 . S
H2993 C3008 0.960 . S
H2994 C3008 0.960 . S
H2995 C3008 0.960 . S
C2996 H2988 0.929 . S
C2996 C2997 1.377 . S
C2996 C2998 1.384 . S
C2997 C2996 1.377 . S
C2997 C3003 1.390 . S
C2998 H2989 0.930 . S
C2998 C2996 1.384 . S
C2998 C2999 1.372 . S
C2999 C2998 1.372 . S
C2999 C3000 1.400 . S
C2999 C3004 1.490 . S
C3000 H2990 0.930 . S
C3000 C2999 1.400 . S
C3000 C3003 1.386 . S
H3001 C3017 0.930 . S
H3002 C3018 0.931 . S
C3003 H2991 0.929 . S
C3003 C2997 1.390 . S
C3003 C3000 1.386 . S
C3004 C2999 1.490 . S
C3004 C3006 1.395 1_554 S
C3004 C3007 1.403 . S
H3005 C3011 0.930 . S
C3006 H2992 0.930 . S
C3006 C3004 1.395 1_556 S
C3006 C3009 1.403 1_545 S
C3007 C3004 1.403 . S
C3007 C3008 1.524 . S
C3007 C3011 1.400 1_545 S
C3008 H2993 0.960 . S
C3008 H2994 0.960 . S
C3008 H2995 0.960 . S
C3008 C3007 1.524 . S
C3009 C3006 1.403 1_565 S
C3009 C3010 1.392 . S
C3009 C3013 1.495 . S
C3010 C3009 1.392 . S
C3010 C3011 1.385 1_556 S
C3010 C3012 1.478 . S
C3011 H3005 0.930 . S
C3011 C3007 1.400 1_565 S
C3011 C3010 1.385 1_554 S
C3012 C3010 1.478 . S
C3012 C3014 1.381 . S
C3012 C3018 1.383 . S
C3013 C3009 1.495 . S
C3013 H3019 0.959 . S
C3013 H3020 0.961 . S
C3013 H3021 0.960 . S
C3014 C3012 1.381 . S
C3014 C3015 1.394 . S
C3014 H3022 0.930 . S
C3015 C3014 1.394 . S
C3015 C3016 1.383 . S
C3015 H3023 0.929 . S
C3016 C3015 1.383 . S
C3016 C3017 1.377 . S
C3017 H3001 0.930 . S
C3017 C3016 1.377 . S
C3017 C3018 1.379 . S
C3018 H3002 0.931 . S
C3018 C3012 1.383 . S
C3018 C3017 1.379 . S
H3019 C3013 0.959 . S
H3020 C3013 0.961 . S
H3021 C3013 0.960 . S
H3022 C3014 0.930 . S
H3023 C3015 0.929 . S
H3024 C3032 0.929 . S
H3025 C3034 0.930 . S
H3026 C3036 0.930 . S
H3027 C3039 0.929 . S
H3028 C3042 0.930 . S
H3029 C3044 0.960 1_455 S
H3030 C3044 0.960 . S
H3031 C3044 0.960 . S
C3032 H3024 0.929 . S
C3032 C3033 1.377 1_556 S
C3032 C3034 1.384 . S
C3033 C3032 1.377 1_554 S
C3033 C3039 1.390 . S
C3034 H3025 0.930 . S
C3034 C3032 1.384 . S
C3034 C3035 1.372 1_556 S
C3035 C3034 1.372 1_554 S
C3035 C3036 1.400 . S
C3035 C3040 1.490 . S
C3036 H3026 0.930 . S
C3036 C3035 1.400 . S
C3036 C3039 1.386 . S
H3037 C3053 0.930 . S
H3038 C3054 0.931 . S
C3039 H3027 0.929 . S
C3039 C3033 1.390 . S
C3039 C3036 1.386 . S
C3040 C3035 1.490 . S
C3040 C3042 1.395 1_554 S
C3040 C3043 1.403 . S
H3041 C3047 0.930 . S
C3042 H3028 0.930 . S
C3042 C3040 1.395 1_556 S
C3042 C3045 1.403 1_655 S
C3043 C3040 1.403 . S
C3043 C3044 1.524 . S
C3043 C3047 1.400 1_655 S
C3044 H3029 0.960 1_655 S
C3044 H3030 0.960 . S
C3044 H3031 0.960 . S
C3044 C3043 1.524 . S
C3045 C3042 1.403 1_455 S
C3045 C3046 1.392 . S
C3045 C3049 1.495 . S
C3046 C3045 1.392 . S
C3046 C3047 1.385 1_556 S
C3046 C3048 1.478 . S
C3047 H3041 0.930 . S
C3047 C3043 1.400 1_455 S
C3047 C3046 1.385 1_554 S
C3048 C3046 1.478 . S
C3048 C3050 1.381 . S
C3048 C3054 1.383 1_556 S
C3049 C3045 1.495 . S
C3049 H3055 0.959 1_455 S
C3049 H3056 0.961 . S
C3049 H3057 0.960 . S
C3050 C3048 1.381 . S
C3050 C3051 1.394 . S
C3050 H3058 0.930 . S
C3051 C3050 1.394 . S
C3051 C3052 1.383 . S
C3051 H3059 0.929 . S
C3052 C3051 1.383 . S
C3052 C3053 1.377 1_556 S
C3053 H3037 0.930 . S
C3053 C3052 1.377 1_554 S
C3053 C3054 1.379 . S
C3054 H3038 0.931 . S
C3054 C3048 1.383 1_554 S
C3054 C3053 1.379 . S
H3055 C3049 0.959 1_655 S
H3056 C3049 0.961 . S
H3057 C3049 0.960 . S
H3058 C3050 0.930 . S
H3059 C3051 0.929 . S
H3060 C3068 0.929 . S
H3061 C3070 0.930 . S
H3062 C3072 0.930 . S
H3063 C3075 0.929 . S
H3064 C3078 0.930 . S
H3065 C3080 0.958 1_556 S
H3066 C3080 0.960 . S
H3067 C3080 0.960 1_556 S
C3068 H3060 0.929 . S
C3068 C3069 1.377 . S
C3068 C3070 1.384 . S
C3069 C3068 1.377 . S
C3069 C3075 1.390 1_554 S
C3070 H3061 0.930 . S
C3070 C3068 1.384 . S
C3070 C3071 1.372 . S
C3071 C3070 1.372 . S
C3071 C3072 1.400 1_554 S
C3071 C3076 1.490 . S
C3072 H3062 0.930 . S
C3072 C3071 1.400 1_556 S
C3072 C3075 1.386 . S
H3073 C3089 0.930 . S
H3074 C3090 0.931 . S
C3075 H3063 0.929 . S
C3075 C3069 1.390 1_556 S
C3075 C3072 1.386 . S
C3076 C3071 1.490 . S
C3076 C3078 1.395 . S
C3076 C3079 1.403 . S
H3077 C3083 0.930 . S
C3078 H3064 0.930 . S
C3078 C3076 1.395 . S
C3078 C3081 1.403 . S
C3079 C3076 1.403 . S
C3079 C3080 1.524 . S
C3079 C3083 1.400 1_554 S
C3080 H3065 0.958 1_554 S
C3080 H3066 0.960 . S
C3080 H3067 0.960 1_554 S
C3080 C3079 1.524 . S
C3081 C3078 1.403 . S
C3081 C3082 1.392 1_554 S
C3081 C3085 1.496 . S
C3082 C3081 1.392 1_556 S
C3082 C3083 1.385 . S
C3082 C3084 1.478 . S
C3083 H3077 0.930 . S
C3083 C3079 1.400 1_556 S
C3083 C3082 1.385 . S
C3084 C3082 1.478 . S
C3084 C3086 1.381 1_556 S
C3084 C3090 1.383 . S
C3085 C3081 1.496 . S
C3085 H3091 0.963 . S
C3085 H3092 0.945 1_554 S
C3085 H3093 0.972 . S
C3086 C3084 1.381 1_554 S
C3086 C3087 1.394 . S
C3086 H3094 0.930 . S
C3087 C3086 1.394 . S
C3087 C3088 1.383 1_554 S
C3087 H3095 0.929 . S
C3088 C3087 1.383 1_556 S
C3088 C3089 1.377 . S
C3089 H3073 0.930 . S
C3089 C3088 1.377 . S
C3089 C3090 1.379 . S
C3090 H3074 0.931 . S
C3090 C3084 1.383 . S
C3090 C3089 1.379 . S
H3091 C3085 0.963 . S
H3092 C3085 0.945 1_556 S
H3093 C3085 0.972 . S
H3094 C3086 0.930 . S
H3095 C3087 0.929 . S
C513 C149 1.031 . S
C532 C0 1.009 . S
C549 C163 1.031 . S
C568 C14 1.046 . S
C585 C28 1.037 . S
C604 C135 1.016 . S
C621 C42 1.040 . S
C640 C121 1.061 . S
C657 C56 1.030 . S
C676 C93 1.016 . S
C693 C107 1.027 . S
C712 C70 1.005 . S
C729 C65 1.026 . S
C748 C84 1.062 . S
C765 C79 1.027 . S
C784 C98 1.054 . S
C801 C112 1.031 . S
C820 C51 1.057 . S
C837 C37 1.033 . S
C856 C126 1.039 . S
C873 C140 1.038 . S
C892 C9 1.027 . S
C909 C154 1.029 . S
C928 C23 1.061 . S
C945 C317 1.027 . S
C964 C168 1.005 . S
C981 C331 1.028 . S
C1000 C182 1.005 . S
C1017 C196 1.034 . S
C1036 C303 1.046 . S
C1053 C210 1.039 . S
C1072 C289 1.028 . S
C1089 C224 1.037 . S
C1108 C261 1.016 . S
C1125 C238 1.039 . S
C1144 C275 1.028 . S
C1161 C233 1.033 . S
C1180 C252 1.038 . S
C1197 C247 1.037 . S
C1216 C266 1.008 . S
C1233 C219 1.032 . S
C1252 C280 1.044 . S
C1269 C205 1.034 . S
C1288 C294 1.021 . S
C1305 C177 1.028 . S
C1324 C308 1.047 . S
C1341 C191 1.027 . S
C1360 C322 1.054 . S
C1377 C336 1.038 . S
C1396 C485 1.021 . S
C1413 C499 1.032 . S
C1432 C350 1.050 . S
C1449 C471 1.026 . S
C1468 C364 1.012 . S
C1485 C378 1.032 . S
C1504 C457 1.001 . S
C1521 C392 1.030 . S
C1540 C429 1.001 . S
C1557 C406 1.041 . S
C1576 C443 1.054 . S
C1593 C401 1.037 . S
C1612 C420 1.020 . S
C1629 C415 1.037 . S
C1648 C434 1.021 . S
C1665 C387 1.034 . S
C1684 C448 1.019 . S
C1701 C462 1.038 . S
C1720 C373 1.011 . S
C1737 C345 1.039 . S
C1756 C476 1.006 . S
C1773 C490 1.029 . S
C1792 C359 1.061 . S
C1809 C53 1.486 . S
C1828 C11 1.490 . S
C1845 C67 1.482 . S
C1864 C25 1.473 . S
C1881 C39 1.484 . S
C1900 C81 1.487 . S
C1917 C137 1.483 . S
C1936 C95 1.490 . S
C1953 C151 1.483 . S
C1972 C109 1.490 . S
C1989 C165 1.481 . S
C2008 C123 1.488 . S
C2025 C221 1.484 . S
C2044 C179 1.480 . S
C2061 C235 1.483 . S
C2080 C193 1.479 . S
C2097 C207 1.485 . S
C2116 C249 1.490 . S
C2133 C263 1.483 . S
C2152 C305 1.491 . S
C2169 C319 1.482 . S
C2188 C277 1.490 . S
C2205 C291 1.485 . S
C2224 C333 1.472 . S
C2241 C389 1.483 . S
C2260 C347 1.478 . S
C2277 C403 1.483 . S
C2296 C361 1.477 . S
C2313 C375 1.485 . S
C2332 C417 1.485 . S
C2349 C431 1.486 . S
C2368 C473 1.472 . S
C2385 C445 1.485 . S
C2404 C487 1.483 . S
C2421 C459 1.482 . S
C2440 C501 1.482 . S
C2457 C5 1.487 . S
C2476 C257 1.479 . S
C2493 C271 1.486 . S
C2512 C19 1.477 . S
C2529 C285 1.485 . S
C2548 C33 1.475 . S
C2565 C467 1.487 . S
C2584 C47 1.480 . S
C2601 C481 1.488 . S
C2620 C61 1.482 . S
C2637 C495 1.486 . S
C2656 C75 1.490 . S
C2673 C89 1.486 . S
C2692 C341 1.489 . S
C2709 C355 1.485 . S
C2728 C103 1.479 . S
C2745 C369 1.488 . S
C2764 C117 1.489 . S
C2781 C131 1.486 . S
C2800 C215 1.476 . S
C2817 C145 1.486 . S
C2836 C229 1.490 . S
C2853 C159 1.488 . S
C2872 C243 1.485 . S
C2889 C425 1.485 . S
C2908 C173 1.480 . S
C2925 C439 1.485 . S
C2944 C187 1.482 . S
C2961 C201 1.488 . S
C2980 C453 1.490 . S
C2997 C299 1.488 . S
C3016 C383 1.487 . S
C3033 C313 1.487 . S
C3052 C397 1.491 . S
C3069 C327 1.486 . S
C3088 C411 1.477 . S
