# Generated by pormake.
# Topology cag, (4)-cn, num edge types: 1
# Building blocks:
#     Node 0, Type 0, BuildingBlock: KUFVIS_clean_sbu_0, # of connection points: 4
#     Node 1, Type 0, BuildingBlock: KUFVIS_clean_sbu_0, # of connection points: 4
#     Node 2, Type 0, BuildingBlock: KUFVIS_clean_sbu_0, # of connection points: 4
#     Node 3, Type 0, BuildingBlock: KUFVIS_clean_sbu_0, # of connection points: 4
#     Node 4, Type 0, BuildingBlock: KUFVIS_clean_sbu_0, # of connection points: 4
#     Node 5, Type 0, BuildingBlock: KUFVIS_clean_sbu_0, # of connection points: 4
#     Node 6, Type 0, BuildingBlock: KUFVIS_clean_sbu_0, # of connection points: 4
#     Node 7, Type 0, BuildingBlock: KUFVIS_clean_sbu_0, # of connection points: 4
#     Node 8, Type 0, BuildingBlock: KUFVIS_clean_sbu_0, # of connection points: 4
#     Node 9, Type 0, BuildingBlock: KUFVIS_clean_sbu_0, # of connection points: 4
#     Node 10, Type 0, BuildingBlock: KUFVIS_clean_sbu_0, # of connection points: 4
#     Node 11, Type 0, BuildingBlock: KUFVIS_clean_sbu_0, # of connection points: 4
#     Node 12, Type 0, BuildingBlock: KUFVIS_clean_sbu_0, # of connection points: 4
#     Node 13, Type 0, BuildingBlock: KUFVIS_clean_sbu_0, # of connection points: 4
#     Node 14, Type 0, BuildingBlock: KUFVIS_clean_sbu_0, # of connection points: 4
#     Node 15, Type 0, BuildingBlock: KUFVIS_clean_sbu_0, # of connection points: 4
#     Edge 16, Type (0, 0), BuildingBlock: TEMPAE_clean_linker_10, # of connection points: 2
#     Edge 17, Type (0, 0), BuildingBlock: TEMPAE_clean_linker_10, # of connection points: 2
#     Edge 18, Type (0, 0), BuildingBlock: TEMPAE_clean_linker_10, # of connection points: 2
#     Edge 19, Type (0, 0), BuildingBlock: TEMPAE_clean_linker_10, # of connection points: 2
#     Edge 20, Type (0, 0), BuildingBlock: TEMPAE_clean_linker_10, # of connection points: 2
#     Edge 21, Type (0, 0), BuildingBlock: TEMPAE_clean_linker_10, # of connection points: 2
#     Edge 22, Type (0, 0), BuildingBlock: TEMPAE_clean_linker_10, # of connection points: 2
#     Edge 23, Type (0, 0), BuildingBlock: TEMPAE_clean_linker_10, # of connection points: 2
#     Edge 24, Type (0, 0), BuildingBlock: TEMPAE_clean_linker_10, # of connection points: 2
#     Edge 25, Type (0, 0), BuildingBlock: TEMPAE_clean_linker_10, # of connection points: 2
#     Edge 26, Type (0, 0), BuildingBlock: TEMPAE_clean_linker_10, # of connection points: 2
#     Edge 27, Type (0, 0), BuildingBlock: TEMPAE_clean_linker_10, # of connection points: 2
#     Edge 28, Type (0, 0), BuildingBlock: TEMPAE_clean_linker_10, # of connection points: 2
#     Edge 29, Type (0, 0), BuildingBlock: TEMPAE_clean_linker_10, # of connection points: 2
#     Edge 30, Type (0, 0), BuildingBlock: TEMPAE_clean_linker_10, # of connection points: 2
#     Edge 31, Type (0, 0), BuildingBlock: TEMPAE_clean_linker_10, # of connection points: 2
#     Edge 32, Type (0, 0), BuildingBlock: TEMPAE_clean_linker_10, # of connection points: 2
#     Edge 33, Type (0, 0), BuildingBlock: TEMPAE_clean_linker_10, # of connection points: 2
#     Edge 34, Type (0, 0), BuildingBlock: TEMPAE_clean_linker_10, # of connection points: 2
#     Edge 35, Type (0, 0), BuildingBlock: TEMPAE_clean_linker_10, # of connection points: 2
#     Edge 36, Type (0, 0), BuildingBlock: TEMPAE_clean_linker_10, # of connection points: 2
#     Edge 37, Type (0, 0), BuildingBlock: TEMPAE_clean_linker_10, # of connection points: 2
#     Edge 38, Type (0, 0), BuildingBlock: TEMPAE_clean_linker_10, # of connection points: 2
#     Edge 39, Type (0, 0), BuildingBlock: TEMPAE_clean_linker_10, # of connection points: 2
#     Edge 40, Type (0, 0), BuildingBlock: TEMPAE_clean_linker_10, # of connection points: 2
#     Edge 41, Type (0, 0), BuildingBlock: TEMPAE_clean_linker_10, # of connection points: 2
#     Edge 42, Type (0, 0), BuildingBlock: TEMPAE_clean_linker_10, # of connection points: 2
#     Edge 43, Type (0, 0), BuildingBlock: TEMPAE_clean_linker_10, # of connection points: 2
#     Edge 44, Type (0, 0), BuildingBlock: TEMPAE_clean_linker_10, # of connection points: 2
#     Edge 45, Type (0, 0), BuildingBlock: TEMPAE_clean_linker_10, # of connection points: 2
#     Edge 46, Type (0, 0), BuildingBlock: TEMPAE_clean_linker_10, # of connection points: 2
#     Edge 47, Type (0, 0), BuildingBlock: TEMPAE_clean_linker_10, # of connection points: 2
# Relax obj value: 0.083
# Max RMSD: 0.120
# Mean RMSD: 0.116
data_MOF--net-cag--node1-KUFVIS_clean_sbu_0--edge1-TEMPAE_clean_linker_10
_symmetry_space_group_name_H-M    P1
_symmetry_Int_Tables_number       1
_symmetry_cell_setting            triclinic
loop_
_symmetry_equiv_pos_as_xyz
'x, y, z'
_cell_length_a     42.204905
_cell_length_b     50.52925
_cell_length_c     41.967583
_cell_angle_alpha  90.025381
_cell_angle_beta   90.006516
_cell_angle_gamma 90.041212
loop_
_atom_site_label
_atom_site_type_symbol
_atom_site_fract_x
_atom_site_fract_y
_atom_site_fract_z
_atom_type_partial_charge
Mn0 Mn 0.35265 0.12857 0.09231 0.0
Mn1 Mn 0.38206 0.17691 0.13979 0.0
C2 C 0.40583 0.14147 0.08774 0.0
C3 C 0.34113 0.08507 0.07521 0.0
C4 C 0.33721 0.18756 0.08504 0.0
O5 O 0.32142 0.12862 0.13086 0.0
O6 O 0.34633 0.15909 0.1614 0.0
C7 C 0.4069 0.14742 0.19545 0.0
N8 N 0.41157 0.16457 0.17088 0.0
C9 C 0.46333 0.17625 0.19045 0.0
C10 C 0.45885 0.15906 0.2163 0.0
C11 C 0.43066 0.14436 0.21859 0.0
C12 C 0.43885 0.17843 0.16812 0.0
H13 H 0.38515 0.13631 0.19744 0.0
C14 C 0.32472 0.14159 0.15714 0.0
O15 O 0.32522 0.10542 0.06568 0.0
O16 O 0.36232 0.08952 0.09713 0.0
N17 N 0.41717 0.19516 0.12137 0.0
C18 C 0.41835 0.20968 0.09404 0.0
C19 C 0.44572 0.22433 0.087 0.0
C20 C 0.4714 0.22407 0.10826 0.0
C21 C 0.4698 0.20856 0.13591 0.0
C22 C 0.44197 0.19436 0.14164 0.0
H23 H 0.39845 0.21028 0.07789 0.0
O24 O 0.39074 0.13131 0.06369 0.0
O25 O 0.38908 0.14488 0.11342 0.0
O26 O 0.33583 0.16384 0.07524 0.0
O27 O 0.35246 0.19419 0.10986 0.0
C28 C 0.49472 0.20666 0.15802 0.0
C29 C 0.49146 0.19073 0.18543 0.0
H30 H 0.47714 0.1566 0.23415 0.0
H31 H 0.42717 0.13083 0.23826 0.0
H32 H 0.44688 0.23605 0.06545 0.0
H33 H 0.4923 0.23572 0.10298 0.0
H34 H 0.51652 0.21723 0.15391 0.0
H35 H 0.51097 0.18931 0.20212 0.0
Mn36 Mn 0.15309 0.88785 0.59667 0.0
Mn37 Mn 0.12074 0.84086 0.6438 0.0
C38 C 0.09915 0.87758 0.59282 0.0
C39 C 0.16626 0.93067 0.57847 0.0
C40 C 0.15976 0.82755 0.58626 0.0
O41 O 0.18486 0.88714 0.63404 0.0
O42 O 0.16315 0.8522 0.65917 0.0
C43 C 0.11355 0.87266 0.70281 0.0
N44 N 0.10084 0.85655 0.6801 0.0
C45 C 0.05252 0.85196 0.70999 0.0
C46 C 0.06513 0.8684 0.73374 0.0
C47 C 0.09569 0.87897 0.73 0.0
C48 C 0.07127 0.84665 0.68323 0.0
H49 H 0.1372 0.88049 0.70041 0.0
C50 C 0.18462 0.87003 0.65664 0.0
O51 O 0.18121 0.90973 0.56906 0.0
O52 O 0.14529 0.92713 0.6008 0.0
N53 N 0.07943 0.82812 0.63311 0.0
C54 C 0.0699 0.81434 0.6069 0.0
C55 C 0.03906 0.80393 0.60584 0.0
C56 C 0.01859 0.80742 0.63192 0.0
C57 C 0.02905 0.82147 0.65873 0.0
C58 C 0.05987 0.83165 0.65827 0.0
H59 H 0.08573 0.81136 0.58701 0.0
O60 O 0.11498 0.88608 0.56837 0.0
O61 O 0.11552 0.87379 0.61876 0.0
O62 O 0.16851 0.8513 0.5813 0.0
O63 O 0.1399 0.8214 0.60782 0.0
C64 C 0.01006 0.82599 0.68582 0.0
C65 C 0.02183 0.84106 0.71152 0.0
H66 H 0.05147 0.87321 0.75481 0.0
H67 H 0.10558 0.89172 0.74818 0.0
H68 H 0.03112 0.79311 0.58506 0.0
H69 H 0.99484 0.79939 0.631 0.0
H70 H 0.98616 0.81843 0.68698 0.0
H71 H 0.00678 0.84475 0.73194 0.0
Mn72 Mn 0.35238 0.87757 0.91676 0.0
Mn73 Mn 0.38659 0.83213 0.86856 0.0
C74 C 0.40573 0.86633 0.92425 0.0
C75 C 0.34007 0.92012 0.93644 0.0
C76 C 0.34235 0.8173 0.92219 0.0
O77 O 0.32317 0.87929 0.87738 0.0
O78 O 0.34734 0.84702 0.84958 0.0
C79 C 0.40353 0.86606 0.81342 0.0
N80 N 0.41164 0.84758 0.83556 0.0
C81 C 0.4603 0.83774 0.80813 0.0
C82 C 0.45241 0.85656 0.78489 0.0
C83 C 0.42407 0.87099 0.78776 0.0
C84 C 0.43919 0.83407 0.83344 0.0
H85 H 0.38145 0.87672 0.81518 0.0
C86 C 0.32583 0.86473 0.85248 0.0
O87 O 0.3235 0.89942 0.94374 0.0
O88 O 0.36205 0.91665 0.91515 0.0
N89 N 0.42507 0.81595 0.88236 0.0
C90 C 0.43064 0.80094 0.9087 0.0
C91 C 0.45895 0.78643 0.91081 0.0
C92 C 0.48078 0.78706 0.88552 0.0
C93 C 0.47462 0.80289 0.85878 0.0
C94 C 0.44632 0.81725 0.85831 0.0
H95 H 0.41339 0.79978 0.92767 0.0
O96 O 0.38773 0.87381 0.94761 0.0
O97 O 0.39159 0.86365 0.89668 0.0
O98 O 0.33481 0.84092 0.92947 0.0
O99 O 0.36229 0.81207 0.90045 0.0
C100 C 0.49544 0.8051 0.83262 0.0
C101 C 0.48838 0.82264 0.8074 0.0
H102 H 0.46804 0.86025 0.76491 0.0
H103 H 0.41786 0.8856 0.76997 0.0
H104 H 0.46363 0.77434 0.93157 0.0
H105 H 0.5022 0.77535 0.88689 0.0
H106 H 0.51728 0.79387 0.83197 0.0
H107 H 0.50498 0.82473 0.78787 0.0
Mn108 Mn 0.15442 0.13635 0.41598 0.0
Mn109 Mn 0.1217 0.17887 0.36319 0.0
C110 C 0.1016 0.14997 0.42103 0.0
C111 C 0.16592 0.09448 0.43804 0.0
C112 C 0.16565 0.19679 0.41591 0.0
O113 O 0.18476 0.13267 0.37733 0.0
O114 O 0.16081 0.16276 0.34599 0.0
C115 C 0.10427 0.13971 0.31361 0.0
N116 N 0.0959 0.15963 0.33379 0.0
C117 C 0.04416 0.16281 0.31011 0.0
C118 C 0.05216 0.14229 0.2891 0.0
C119 C 0.08224 0.13049 0.29111 0.0
C120 C 0.06661 0.17037 0.33292 0.0
H121 H 0.12766 0.13111 0.31446 0.0
C122 C 0.1827 0.1458 0.35119 0.0
O123 O 0.18236 0.11537 0.4449 0.0
O124 O 0.14427 0.09737 0.41628 0.0
N125 N 0.08335 0.19606 0.37576 0.0
C126 C 0.0796 0.21598 0.39732 0.0
C127 C 0.05101 0.23009 0.39822 0.0
C128 C 0.02689 0.22408 0.37637 0.0
C129 C 0.03139 0.20375 0.3541 0.0
C130 C 0.06011 0.18993 0.35485 0.0
H131 H 0.0983 0.22111 0.4137 0.0
O132 O 0.11759 0.14205 0.44562 0.0
O133 O 0.11688 0.15009 0.39423 0.0
O134 O 0.17168 0.17357 0.42611 0.0
O135 O 0.14694 0.20111 0.39263 0.0
C136 C 0.00901 0.19732 0.33041 0.0
C137 C 0.01517 0.17657 0.30876 0.0
H138 H 0.03551 0.13559 0.27118 0.0
H139 H 0.08864 0.1147 0.27491 0.0
H140 H 0.04777 0.24588 0.41534 0.0
H141 H 0.00533 0.23558 0.37656 0.0
H142 H 0.98679 0.20794 0.32888 0.0
H143 H 0.99752 0.17148 0.29104 0.0
Mn144 Mn 0.69775 0.89137 0.94446 0.0
Mn145 Mn 0.6704 0.82953 0.93051 0.0
C146 C 0.64442 0.88482 0.9328 0.0
C147 C 0.7088 0.92974 0.97416 0.0
C148 C 0.70696 0.86062 0.88158 0.0
O149 O 0.73116 0.86861 0.96677 0.0
O150 O 0.71262 0.82855 0.95188 0.0
C151 C 0.66251 0.81058 0.99691 0.0
N152 N 0.65033 0.81485 0.9673 0.0
C153 C 0.60331 0.78998 0.97991 0.0
C154 C 0.61539 0.78527 0.01051 0.0
C155 C 0.64501 0.79579 0.01912 0.0
C156 C 0.62166 0.80512 0.95894 0.0
H157 H 0.68552 0.81812 1.00344 0.0
C158 C 0.73293 0.84334 0.96598 0.0
O159 O 0.72365 0.92411 0.94805 0.0
O160 O 0.68888 0.91205 0.98448 0.0
N161 N 0.6298 0.82674 0.91069 0.0
C162 C 0.62046 0.83516 0.88133 0.0
C163 C 0.59028 0.8282 0.87003 0.0
C164 C 0.57033 0.81228 0.88878 0.0
C165 C 0.58061 0.80362 0.91877 0.0
C166 C 0.61069 0.81157 0.92899 0.0
H167 H 0.63595 0.8471 0.86672 0.0
O168 O 0.65872 0.9068 0.92567 0.0
O169 O 0.6621 0.86629 0.9453 0.0
O170 O 0.71345 0.87986 0.90003 0.0
O171 O 0.68987 0.84122 0.8903 0.0
C172 C 0.5621 0.78766 0.93909 0.0
C173 C 0.57353 0.78069 0.96956 0.0
H174 H 0.60202 0.77378 0.02767 0.0
H175 H 0.65449 0.79226 0.0427 0.0
H176 H 0.58244 0.83494 0.84686 0.0
H177 H 0.54711 0.80702 0.88002 0.0
H178 H 0.53881 0.78104 0.93181 0.0
H179 H 0.55885 0.76881 0.98517 0.0
Mn180 Mn 0.80889 0.14042 0.43992 0.0
Mn181 Mn 0.83626 0.203 0.4322 0.0
C182 C 0.86149 0.14834 0.42567 0.0
C183 C 0.79908 0.10098 0.46779 0.0
C184 C 0.79525 0.17623 0.3823 0.0
O185 O 0.77571 0.16204 0.46484 0.0
O186 O 0.79737 0.20266 0.45887 0.0
C187 C 0.85437 0.21296 0.49935 0.0
N188 N 0.86224 0.21194 0.46792 0.0
C189 C 0.91374 0.23039 0.47846 0.0
C190 C 0.90619 0.23166 0.51096 0.0
C191 C 0.87648 0.22266 0.52149 0.0
C192 C 0.89116 0.21967 0.4577 0.0
H193 H 0.83133 0.20662 0.50741 0.0
C194 C 0.77614 0.18705 0.4699 0.0
O195 O 0.78339 0.10734 0.4424 0.0
O196 O 0.81929 0.11836 0.47829 0.0
N197 N 0.874 0.20669 0.40738 0.0
C198 C 0.87749 0.2043 0.37523 0.0
C199 C 0.90583 0.21248 0.36081 0.0
C200 C 0.92999 0.22363 0.37947 0.0
C201 C 0.92578 0.22618 0.41246 0.0
C202 C 0.89726 0.21718 0.42559 0.0
H203 H 0.85879 0.19625 0.36064 0.0
O204 O 0.84777 0.12615 0.41845 0.0
O205 O 0.84409 0.16535 0.44084 0.0
O206 O 0.79224 0.15447 0.39728 0.0
O207 O 0.81071 0.19586 0.39348 0.0
C208 C 0.94834 0.23802 0.4327 0.0
C209 C 0.94248 0.23985 0.46574 0.0
H210 H 0.92295 0.23962 0.52801 0.0
H211 H 0.87044 0.22359 0.54653 0.0
H212 H 0.90888 0.21057 0.33531 0.0
H213 H 0.95141 0.23052 0.36809 0.0
H214 H 0.97045 0.2455 0.4232 0.0
H215 H 0.96024 0.24859 0.48113 0.0
Mn216 Mn 0.69791 0.15402 0.09296 0.0
Mn217 Mn 0.66851 0.21431 0.11132 0.0
C218 C 0.64468 0.15751 0.10752 0.0
C219 C 0.70887 0.11684 0.06113 0.0
C220 C 0.7104 0.18334 0.156 0.0
O221 O 0.72868 0.17857 0.06949 0.0
O222 O 0.70806 0.21749 0.08562 0.0
C223 C 0.65187 0.23421 0.04697 0.0
N224 N 0.6439 0.22959 0.07789 0.0
C225 C 0.596 0.25508 0.07283 0.0
C226 C 0.60361 0.26008 0.04085 0.0
C227 C 0.63154 0.24942 0.02781 0.0
C228 C 0.61691 0.23948 0.09055 0.0
H229 H 0.67369 0.22657 0.03716 0.0
C230 C 0.72852 0.20387 0.07017 0.0
O231 O 0.72519 0.12244 0.08635 0.0
O232 O 0.68749 0.13402 0.05279 0.0
N233 N 0.63049 0.21553 0.13583 0.0
C234 C 0.62517 0.20641 0.16589 0.0
C235 C 0.59809 0.21483 0.18244 0.0
C236 C 0.57703 0.23271 0.16802 0.0
C237 C 0.58254 0.2412 0.13668 0.0
C238 C 0.60996 0.2322 0.12146 0.0
H239 H 0.64183 0.1933 0.17735 0.0
O240 O 0.66138 0.13654 0.11356 0.0
O241 O 0.66037 0.17752 0.09532 0.0
O242 O 0.71597 0.16447 0.13681 0.0
O243 O 0.69249 0.20254 0.14877 0.0
C244 C 0.5619 0.25811 0.11985 0.0
C245 C 0.56842 0.26476 0.0878 0.0
H246 H 0.58814 0.27196 0.02606 0.0
H247 H 0.63758 0.25323 1.00317 0.0
H248 H 0.59379 0.20798 0.20649 0.0
H249 H 0.55662 0.23966 0.18122 0.0
H250 H 0.54052 0.26548 0.13101 0.0
H251 H 0.55192 0.27713 0.07482 0.0
Mn252 Mn 0.8061 0.87854 0.59144 0.0
Mn253 Mn 0.83247 0.81779 0.61146 0.0
C254 C 0.85904 0.87324 0.60596 0.0
C255 C 0.79636 0.9153 0.5586 0.0
C256 C 0.79406 0.85149 0.65616 0.0
O257 O 0.77388 0.85478 0.56901 0.0
O258 O 0.79116 0.81585 0.58846 0.0
C259 C 0.8431 0.7961 0.54663 0.0
N260 N 0.85366 0.80093 0.57674 0.0
C261 C 0.8992 0.77307 0.56887 0.0
C262 C 0.88883 0.76776 0.53776 0.0
C263 C 0.86082 0.77954 0.5265 0.0
C264 C 0.88091 0.79016 0.58755 0.0
H265 H 0.8212 0.80457 0.53816 0.0
C266 C 0.77174 0.82968 0.57198 0.0
O267 O 0.78023 0.91083 0.58426 0.0
O268 O 0.81697 0.89736 0.5506 0.0
N269 N 0.872 0.81505 0.63335 0.0
C270 C 0.87996 0.82401 0.6629 0.0
C271 C 0.90784 0.81475 0.67739 0.0
C272 C 0.92679 0.796 0.66161 0.0
C273 C 0.91833 0.78736 0.63104 0.0
C274 C 0.89052 0.79749 0.6177 0.0
H275 H 0.86477 0.83764 0.67554 0.0
O276 O 0.84371 0.89508 0.61121 0.0
O277 O 0.84226 0.85373 0.59412 0.0
O278 O 0.7881 0.86936 0.63571 0.0
O279 O 0.81172 0.83182 0.6499 0.0
C280 C 0.93632 0.76902 0.61332 0.0
C281 C 0.92693 0.76209 0.58211 0.0
H282 H 0.90223 0.75475 0.52229 0.0
H283 H 0.85265 0.77553 0.50253 0.0
H284 H 0.9143 0.82154 0.70097 0.0
H285 H 0.94768 0.7882 0.67321 0.0
H286 H 0.95775 0.76056 0.62318 0.0
H287 H 0.94136 0.74849 0.56842 0.0
Mn288 Mn 0.85161 0.64501 0.09795 0.0
Mn289 Mn 0.88642 0.68651 0.15052 0.0
C290 C 0.90493 0.65749 0.09236 0.0
C291 C 0.83855 0.60353 0.07597 0.0
C292 C 0.84148 0.70545 0.09904 0.0
O293 O 0.82171 0.64174 0.13696 0.0
O294 O 0.8476 0.67053 0.16863 0.0
C295 C 0.90466 0.64597 0.19818 0.0
N296 N 0.91258 0.66663 0.17891 0.0
C297 C 0.96462 0.66932 0.20192 0.0
C298 C 0.9569 0.64838 0.22242 0.0
C299 C 0.92693 0.63638 0.22019 0.0
C300 C 0.9419 0.6773 0.17964 0.0
H301 H 0.88152 0.63696 0.19684 0.0
C302 C 0.82522 0.65395 0.16359 0.0
O303 O 0.82265 0.62475 0.06939 0.0
O304 O 0.86065 0.60592 0.09736 0.0
N305 N 0.92484 0.70329 0.13724 0.0
C306 C 0.92871 0.72297 0.11542 0.0
C307 C 0.95763 0.73664 0.11395 0.0
C308 C 0.98195 0.73046 0.13552 0.0
C309 C 0.97734 0.71032 0.15802 0.0
C310 C 0.9483 0.69692 0.15779 0.0
H311 H 0.90989 0.72818 0.09926 0.0
O312 O 0.88839 0.65009 0.06788 0.0
O313 O 0.8898 0.6579 0.11919 0.0
O314 O 0.83513 0.68241 0.08851 0.0
O315 O 0.86076 0.70946 0.12199 0.0
C316 C 0.99995 0.70359 0.18137 0.0
C317 C 0.99372 0.68293 0.20311 0.0
H318 H 0.97379 0.64133 0.23989 0.0
H319 H 0.92085 0.62008 0.23574 0.0
H320 H 0.96098 0.75223 0.09659 0.0
H321 H 0.00384 0.74157 0.13482 0.0
H322 H 0.02231 0.71397 0.18275 0.0
H323 H 0.01156 0.6776 0.22052 0.0
Mn324 Mn 0.64709 0.38505 0.59407 0.0
Mn325 Mn 0.61536 0.34304 0.64812 0.0
C326 C 0.59452 0.37021 0.58941 0.0
C327 C 0.65761 0.42691 0.57153 0.0
C328 C 0.66102 0.32516 0.59658 0.0
O329 O 0.67735 0.38991 0.63268 0.0
O330 O 0.65267 0.36151 0.66578 0.0
C331 C 0.59349 0.38385 0.69388 0.0
N332 N 0.58756 0.36203 0.67578 0.0
C333 C 0.5363 0.35631 0.69966 0.0
C334 C 0.54211 0.37831 0.7192 0.0
C335 C 0.57061 0.39244 0.71587 0.0
C336 C 0.55943 0.34941 0.67728 0.0
H337 H 0.61548 0.39456 0.69153 0.0
C338 C 0.67426 0.37859 0.65992 0.0
O339 O 0.67447 0.40624 0.56483 0.0
O340 O 0.63592 0.42379 0.5932 0.0
N341 N 0.57845 0.32376 0.63539 0.0
C342 C 0.57628 0.30332 0.61431 0.0
C343 C 0.54865 0.28784 0.61353 0.0
C344 C 0.524 0.29292 0.63516 0.0
C345 C 0.52703 0.3137 0.6571 0.0
C346 C 0.55468 0.32898 0.65607 0.0
H347 H 0.59555 0.29878 0.59832 0.0
O348 O 0.61016 0.37821 0.56462 0.0
O349 O 0.61002 0.37078 0.616 0.0
O350 O 0.66531 0.34814 0.58484 0.0
O351 O 0.64291 0.32097 0.62042 0.0
C352 C 0.50422 0.31928 0.6807 0.0
C353 C 0.50874 0.3407 0.70182 0.0
H354 H 0.52481 0.3846 0.73669 0.0
H355 H 0.57515 0.40963 0.73056 0.0
H356 H 0.54661 0.27169 0.59671 0.0
H357 H 0.50309 0.28051 0.63501 0.0
H358 H 0.48299 0.30741 0.68273 0.0
H359 H 0.49071 0.34514 0.71939 0.0
Mn360 Mn 0.84336 0.39746 0.91676 0.0
Mn361 Mn 0.87379 0.35011 0.86906 0.0
C362 C 0.89664 0.38576 0.92085 0.0
C363 C 0.83178 0.44039 0.93524 0.0
C364 C 0.83433 0.3373 0.92644 0.0
O365 O 0.8121 0.39819 0.87925 0.0
O366 O 0.83173 0.36253 0.85377 0.0
C367 C 0.88214 0.38224 0.81044 0.0
N368 N 0.89425 0.36564 0.83294 0.0
C369 C 0.94246 0.36022 0.80305 0.0
C370 C 0.93045 0.37715 0.77952 0.0
C371 C 0.90026 0.38837 0.78337 0.0
C372 C 0.92347 0.35509 0.8297 0.0
H373 H 0.85877 0.39058 0.81291 0.0
C374 C 0.81138 0.38121 0.85656 0.0
O375 O 0.81592 0.41982 0.94438 0.0
O376 O 0.85283 0.43645 0.9131 0.0
N377 N 0.9146 0.33632 0.87956 0.0
C378 C 0.92362 0.32214 0.90561 0.0
C379 C 0.95409 0.31106 0.90658 0.0
C380 C 0.97473 0.31438 0.88062 0.0
C381 C 0.96478 0.32878 0.85392 0.0
C382 C 0.9343 0.33961 0.85445 0.0
H383 H 0.90769 0.31938 0.92546 0.0
O384 O 0.88094 0.39437 0.94535 0.0
O385 O 0.88039 0.38265 0.89466 0.0
O386 O 0.82631 0.3612 0.93155 0.0
O387 O 0.854 0.33084 0.90484 0.0
C388 C 0.98397 0.33305 0.82692 0.0
C389 C 0.97275 0.34861 0.80141 0.0
H390 H 0.94431 0.38184 0.75854 0.0
H391 H 0.89084 0.40151 0.76536 0.0
H392 H 0.96165 0.29991 0.92725 0.0
H393 H 0.99823 0.30601 0.88155 0.0
H394 H 0.00763 0.32496 0.82572 0.0
H395 H 0.98795 0.35212 0.78104 0.0
Mn396 Mn 0.65175 0.63695 0.41837 0.0
Mn397 Mn 0.62332 0.68613 0.372 0.0
C398 C 0.5986 0.64968 0.42256 0.0
C399 C 0.66208 0.59338 0.43574 0.0
C400 C 0.66283 0.6966 0.43008 0.0
O401 O 0.68339 0.63628 0.38113 0.0
O402 O 0.66468 0.67252 0.35631 0.0
C403 C 0.61333 0.65588 0.3122 0.0
N404 N 0.6023 0.67263 0.33509 0.0
C405 C 0.55615 0.68299 0.30384 0.0
C406 C 0.56703 0.6659 0.2799 0.0
C407 C 0.59559 0.65209 0.28425 0.0
C408 C 0.57456 0.6856 0.3314 0.0
H409 H 0.63562 0.64571 0.31506 0.0
C410 C 0.68457 0.65347 0.35873 0.0
O411 O 0.67836 0.6135 0.44551 0.0
O412 O 0.64122 0.59813 0.41363 0.0
N413 N 0.58338 0.70143 0.38271 0.0
C414 C 0.57478 0.71485 0.40948 0.0
C415 C 0.54579 0.72846 0.41 0.0
C416 C 0.52642 0.72859 0.38276 0.0
C417 C 0.53569 0.71446 0.35556 0.0
C418 C 0.56453 0.70091 0.35667 0.0
H419 H 0.59006 0.7153 0.43012 0.0
O420 O 0.61415 0.64027 0.44671 0.0
O421 O 0.61501 0.65312 0.39647 0.0
O422 O 0.66992 0.67243 0.43465 0.0
O423 O 0.64376 0.70389 0.4084 0.0
C424 C 0.51748 0.71318 0.32742 0.0
C425 C 0.52764 0.69738 0.30162 0.0
H426 H 0.55356 0.66311 0.25818 0.0
H427 H 0.60414 0.63884 0.26589 0.0
H428 H 0.53866 0.73922 0.43111 0.0
H429 H 0.50453 0.73963 0.38302 0.0
H430 H 0.49542 0.72392 0.32543 0.0
H431 H 0.51308 0.69608 0.28042 0.0
Mn432 Mn 0.18926 0.37094 0.92839 0.0
Mn433 Mn 0.15517 0.31234 0.90964 0.0
C434 C 0.13576 0.36989 0.91327 0.0
C435 C 0.20218 0.40707 0.96138 0.0
C436 C 0.19916 0.3416 0.86487 0.0
O437 O 0.2192 0.34464 0.95072 0.0
O438 O 0.19419 0.30749 0.93528 0.0
C439 C 0.13731 0.29471 0.97466 0.0
N440 N 0.12989 0.29851 0.94344 0.0
C441 C 0.08143 0.27386 0.94886 0.0
C442 C 0.08881 0.26919 0.98096 0.0
C443 C 0.11665 0.27999 0.99403 0.0
C444 C 0.1026 0.28912 0.93099 0.0
H445 H 0.15888 0.30274 0.98456 0.0
C446 C 0.21626 0.31941 0.95049 0.0
O447 O 0.21823 0.4015 0.93595 0.0
O448 O 0.18011 0.39035 0.96922 0.0
N449 N 0.11687 0.31252 0.88545 0.0
C450 C 0.11171 0.32154 0.85533 0.0
C451 C 0.08399 0.31393 0.83919 0.0
C452 C 0.06235 0.29666 0.85393 0.0
C453 C 0.06801 0.28791 0.88511 0.0
C454 C 0.09576 0.29646 0.90011 0.0
H455 H 0.12896 0.33393 0.84353 0.0
O456 O 0.15357 0.39043 0.90847 0.0
O457 O 0.15012 0.34928 0.92542 0.0
O458 O 0.20606 0.36014 0.88418 0.0
O459 O 0.1799 0.32317 0.87198 0.0
C460 C 0.04729 0.27101 0.90192 0.0
C461 C 0.05381 0.26424 0.93391 0.0
H462 H 0.07309 0.25763 0.99588 0.0
H463 H 0.12236 0.2767 0.01886 0.0
H464 H 0.07969 0.3208 0.81516 0.0
H465 H 0.04149 0.29017 0.84111 0.0
H466 H 0.02588 0.26365 0.89076 0.0
H467 H 0.0372 0.25197 0.94691 0.0
Mn468 Mn 0.30438 0.64352 0.43059 0.0
Mn469 Mn 0.332 0.7045 0.41317 0.0
C470 C 0.35778 0.6491 0.41823 0.0
C471 C 0.29321 0.60639 0.46242 0.0
C472 C 0.2955 0.6718 0.36597 0.0
O473 O 0.2713 0.66712 0.45195 0.0
O474 O 0.2894 0.70626 0.43371 0.0
C475 C 0.33883 0.72549 0.47884 0.0
N476 N 0.35132 0.72063 0.44949 0.0
C477 C 0.39752 0.74678 0.46132 0.0
C478 C 0.38513 0.75213 0.49165 0.0
C479 C 0.35577 0.74126 0.50053 0.0
C480 C 0.37974 0.73067 0.4409 0.0
H481 H 0.31601 0.71765 0.48556 0.0
C482 C 0.26923 0.69224 0.44907 0.0
O483 O 0.27818 0.61111 0.43614 0.0
O484 O 0.31345 0.62427 0.47154 0.0
N485 N 0.37282 0.70698 0.39385 0.0
C486 C 0.38275 0.69756 0.36513 0.0
C487 C 0.41267 0.70501 0.35357 0.0
C488 C 0.43161 0.7225 0.37133 0.0
C489 C 0.42089 0.7319 0.40084 0.0
C490 C 0.39115 0.72342 0.41137 0.0
H491 H 0.36786 0.68459 0.35117 0.0
O492 O 0.34292 0.62715 0.41223 0.0
O493 O 0.34051 0.66831 0.42995 0.0
O494 O 0.28832 0.65364 0.38572 0.0
O495 O 0.31332 0.69113 0.37336 0.0
C496 C 0.43861 0.74913 0.4204 0.0
C497 C 0.42694 0.75654 0.45064 0.0
H498 H 0.39804 0.76442 0.50837 0.0
H499 H 0.34606 0.74528 0.5239 0.0
H500 H 0.42092 0.69761 0.33084 0.0
H501 H 0.45435 0.72854 0.3621 0.0
H502 H 0.46147 0.75643 0.41275 0.0
H503 H 0.4411 0.7693 0.46574 0.0
Mn504 Mn 0.19697 0.63302 0.08003 0.0
Mn505 Mn 0.17341 0.6966 0.0888 0.0
C506 C 0.14455 0.64313 0.09316 0.0
C507 C 0.20529 0.59324 0.05197 0.0
C508 C 0.21062 0.66735 0.13935 0.0
O509 O 0.23185 0.65341 0.05594 0.0
O510 O 0.21388 0.6948 0.06505 0.0
C511 C 0.16097 0.70806 0.0207 0.0
N512 N 0.1508 0.70723 0.05149 0.0
C513 C 0.10175 0.72848 0.03764 0.0
C514 C 0.11166 0.72957 1.00577 0.0
C515 C 0.14128 0.71908 0.99723 0.0
C516 C 0.12188 0.71635 0.05975 0.0
H517 H 0.18399 0.70057 0.01415 0.0
C518 C 0.23395 0.67862 0.05325 0.0
O519 O 0.22064 0.59897 0.07779 0.0
O520 O 0.18618 0.61135 0.04124 0.0
N521 N 0.13442 0.70213 0.11097 0.0
C522 C 0.12886 0.70036 0.14289 0.0
C523 C 0.10054 0.71047 0.15548 0.0
C524 C 0.07868 0.72296 0.13528 0.0
C525 C 0.08508 0.72492 0.10263 0.0
C526 C 0.1134 0.71402 0.09133 0.0
H527 H 0.146 0.69151 0.1587 0.0
O528 O 0.15669 0.62034 0.10047 0.0
O529 O 0.16338 0.6595 0.0787 0.0
O530 O 0.21371 0.64614 0.12322 0.0
O531 O 0.19572 0.68752 0.12888 0.0
C532 C 0.06503 0.73818 0.08106 0.0
C533 C 0.07309 0.73955 0.04848 0.0
H534 H 0.09683 0.73859 0.98773 0.0
H535 H 0.14915 0.71989 0.9727 0.0
H536 H 0.09587 0.70912 0.18078 0.0
H537 H 0.05744 0.73152 0.1452 0.0
H538 H 0.04315 0.7471 0.08919 0.0
H539 H 0.05722 0.7494 0.03203 0.0
Mn540 Mn 0.30211 0.38105 0.58127 0.0
Mn541 Mn 0.32791 0.31812 0.58961 0.0
C542 C 0.35462 0.37223 0.59484 0.0
C543 C 0.29307 0.42064 0.55334 0.0
C544 C 0.28867 0.34596 0.63989 0.0
O545 O 0.26852 0.36001 0.55634 0.0
O546 O 0.28787 0.31894 0.56482 0.0
C547 C 0.3423 0.30718 0.52176 0.0
N548 N 0.35181 0.30836 0.55274 0.0
C549 C 0.40239 0.28934 0.53971 0.0
C550 C 0.39315 0.28791 0.50766 0.0
C551 C 0.36307 0.2971 0.49861 0.0
C552 C 0.38108 0.30041 0.56152 0.0
H553 H 0.319 0.3137 0.51478 0.0
C554 C 0.26748 0.33483 0.55291 0.0
O555 O 0.2774 0.41456 0.57886 0.0
O556 O 0.31289 0.40298 0.54286 0.0
N557 N 0.36674 0.31387 0.61257 0.0
C558 C 0.37189 0.31626 0.6445 0.0
C559 C 0.40084 0.30783 0.65746 0.0
C560 C 0.42382 0.29637 0.63761 0.0
C561 C 0.41786 0.29376 0.60493 0.0
C562 C 0.38885 0.30303 0.59325 0.0
H563 H 0.354 0.32442 0.66001 0.0
O564 O 0.34155 0.3946 0.60245 0.0
O565 O 0.33654 0.35549 0.58004 0.0
O566 O 0.28516 0.36725 0.62404 0.0
O567 O 0.30438 0.32624 0.62934 0.0
C568 C 0.43916 0.28159 0.58366 0.0
C569 C 0.43162 0.2797 0.55099 0.0
H570 H 0.40889 0.27966 0.48985 0.0
H571 H 0.35572 0.29603 0.47394 0.0
H572 H 0.40522 0.30974 0.68276 0.0
H573 H 0.44573 0.28921 0.64775 0.0
H574 H 0.4616 0.27393 0.59208 0.0
H575 H 0.44844 0.27071 0.53477 0.0
C576 C 0.30779 0.2306 0.08069 0.0
C577 C 0.32194 0.20871 0.06585 0.0
C578 C 0.2929 0.25055 0.06266 0.0
C579 C 0.29315 0.2491 0.02891 0.0
C580 C 0.30872 0.22761 0.01385 0.0
C581 C 0.3224 0.20748 0.03247 0.0
C582 C 0.27564 0.2725 0.07978 0.0
C583 C 0.31034 0.22555 0.978 0.0
C584 C 0.22484 0.27787 0.98141 0.0
C585 C 0.23682 0.30235 0.97087 0.0
C586 C 0.24256 0.26102 1.00099 0.0
C587 C 0.27387 0.26804 0.00947 0.0
C588 C 0.28648 0.29255 0.99873 0.0
C589 C 0.26758 0.30967 0.98 0.0
C590 C 0.2276 0.23557 0.01255 0.0
C591 C 0.32011 0.30037 1.00642 0.0
H592 H 0.30747 0.23167 0.10649 0.0
H593 H 0.33387 0.19087 0.02087 0.0
H594 H 0.28354 0.29207 0.07084 0.0
H595 H 0.24986 0.27091 0.07492 0.0
H596 H 0.27936 0.2718 0.10597 0.0
H597 H 0.32675 0.20969 0.97005 0.0
H598 H 0.28643 0.22123 0.96833 0.0
H599 H 0.31823 0.24464 0.96758 0.0
H600 H 0.20117 0.27181 0.97465 0.0
H601 H 0.27713 0.32841 0.97188 0.0
H602 H 0.2296 0.2341 0.03885 0.0
H603 H 0.24027 0.21837 1.00222 0.0
H604 H 0.20217 0.23406 1.00594 0.0
H605 H 0.32365 0.30085 0.0326 0.0
H606 H 0.32641 0.32005 0.99647 0.0
H607 H 0.33669 0.28538 0.99666 0.0
C608 C 0.22925 0.72839 0.45433 0.0
C609 C 0.24556 0.70709 0.46804 0.0
C610 C 0.21219 0.74643 0.47326 0.0
C611 C 0.21254 0.74378 0.50689 0.0
C612 C 0.22812 0.72173 0.52075 0.0
C613 C 0.24403 0.70344 0.50111 0.0
C614 C 0.19506 0.76904 0.45731 0.0
C615 C 0.22997 0.71849 0.55645 0.0
C616 C 0.20417 0.80799 0.55417 0.0
C617 C 0.17319 0.80609 0.56605 0.0
C618 C 0.21739 0.78764 0.5355 0.0
C619 C 0.19887 0.76515 0.52752 0.0
C620 C 0.16738 0.76332 0.53905 0.0
C621 C 0.15513 0.78356 0.55859 0.0
C622 C 0.25134 0.79013 0.52451 0.0
C623 C 0.14647 0.74018 0.53034 0.0
H624 H 0.23069 0.73142 0.42879 0.0
H625 H 0.25729 0.68737 0.51184 0.0
H626 H 0.1708 0.77113 0.46719 0.0
H627 H 0.20784 0.78782 0.46203 0.0
H628 H 0.19334 0.76627 0.4311 0.0
H629 H 0.24085 0.69933 0.56343 0.0
H630 H 0.24439 0.73479 0.56669 0.0
H631 H 0.20604 0.71979 0.56723 0.0
H632 H 0.21836 0.82521 0.56004 0.0
H633 H 0.13109 0.78202 0.56748 0.0
H634 H 0.25223 0.79098 0.49812 0.0
H635 H 0.26508 0.77248 0.53202 0.0
H636 H 0.26309 0.8081 0.53416 0.0
H637 H 0.14442 0.73869 0.50404 0.0
H638 H 0.12231 0.74196 0.54063 0.0
H639 H 0.15722 0.72146 0.53887 0.0
C640 C 0.34395 0.77005 0.94092 0.0
C641 C 0.32845 0.79469 0.94036 0.0
C642 C 0.33188 0.7486 0.95854 0.0
C643 C 0.30315 0.75149 0.97557 0.0
C644 C 0.28709 0.77616 0.97471 0.0
C645 C 0.30009 0.79751 0.95748 0.0
C646 C 0.35016 0.72293 0.95931 0.0
C647 C 0.25606 0.78 0.99201 0.0
C648 C 0.25349 0.69156 0.99975 0.0
C649 C 0.25831 0.6909 0.03277 0.0
C650 C 0.26886 0.71049 0.98055 0.0
C651 C 0.28999 0.72894 0.99468 0.0
C652 C 0.2967 0.72695 0.0277 0.0
C653 C 0.28036 0.70828 0.04641 0.0
C654 C 0.26051 0.71209 0.94564 0.0
C655 C 0.3196 0.74567 0.0437 0.0
H656 H 0.36598 0.76761 0.92799 0.0
H657 H 0.28783 0.81635 0.95711 0.0
H658 H 0.35645 0.71793 0.98426 0.0
H659 H 0.33524 0.70656 0.95006 0.0
H660 H 0.37226 0.72389 0.94498 0.0
H661 H 0.24582 0.79996 0.98789 0.0
H662 H 0.23866 0.76489 0.98412 0.0
H663 H 0.25961 0.77729 0.01799 0.0
H664 H 0.23568 0.67872 0.98933 0.0
H665 H 0.28349 0.70826 0.07206 0.0
H666 H 0.28225 0.71324 0.93087 0.0
H667 H 0.24667 0.73039 0.9412 0.0
H668 H 0.24622 0.69484 0.93767 0.0
H669 H 0.34193 0.74705 0.02983 0.0
H670 H 0.32535 0.73937 0.06839 0.0
H671 H 0.30913 0.76578 0.04466 0.0
C672 C 0.25177 0.32218 0.49813 0.0
C673 C 0.24461 0.32259 0.53073 0.0
C674 C 0.23752 0.30364 0.47758 0.0
C675 C 0.21492 0.28551 0.4898 0.0
C676 C 0.20579 0.28737 0.52226 0.0
C677 C 0.22125 0.3055 0.54247 0.0
C678 C 0.2487 0.302 0.44348 0.0
C679 C 0.18111 0.26908 0.53614 0.0
C680 C 0.16504 0.24496 0.43148 0.0
C681 C 0.17951 0.21993 0.43314 0.0
C682 C 0.17609 0.2664 0.44984 0.0
C683 C 0.20304 0.26315 0.46956 0.0
C684 C 0.21852 0.23824 0.47037 0.0
C685 C 0.20632 0.2169 0.4526 0.0
C686 C 0.1584 0.29234 0.44881 0.0
C687 C 0.2479 0.23405 0.49027 0.0
H688 H 0.27048 0.3349 0.48922 0.0
H689 H 0.21623 0.30539 0.56781 0.0
H690 H 0.26268 0.28361 0.44018 0.0
H691 H 0.22828 0.30102 0.4269 0.0
H692 H 0.2638 0.31915 0.43679 0.0
H693 H 0.1734 0.27553 0.56023 0.0
H694 H 0.16005 0.26807 0.52034 0.0
H695 H 0.19095 0.24879 0.53803 0.0
H696 H 0.14441 0.24768 0.41651 0.0
H697 H 0.21788 0.19778 0.45389 0.0
H698 H 0.1745 0.30852 0.44128 0.0
H699 H 0.14968 0.29737 0.47301 0.0
H700 H 0.13787 0.29172 0.43225 0.0
H701 H 0.26601 0.24919 0.48429 0.0
H702 H 0.25837 0.21411 0.48667 0.0
H703 H 0.24208 0.23641 0.51589 0.0
C704 C 0.79733 0.72602 0.0675 0.0
C705 C 0.82682 0.72859 0.08266 0.0
C706 C 0.78401 0.74709 0.05014 0.0
C707 C 0.80106 0.77112 0.04672 0.0
C708 C 0.83074 0.77392 0.06217 0.0
C709 C 0.84292 0.75287 0.08046 0.0
C710 C 0.75177 0.74349 0.03513 0.0
C711 C 0.85016 0.79883 0.05844 0.0
C712 C 0.77597 0.81003 0.97314 0.0
C713 C 0.75623 0.82945 0.98629 0.0
C714 C 0.79253 0.79214 0.99272 0.0
C715 C 0.78806 0.79286 0.02622 0.0
C716 C 0.76892 0.81306 0.03963 0.0
C717 C 0.75365 0.83136 0.01951 0.0
C718 C 0.81353 0.7716 0.97739 0.0
C719 C 0.76248 0.8141 0.07498 0.0
H720 H 0.78454 0.70746 0.0693 0.0
H721 H 0.86564 0.75515 0.09208 0.0
H722 H 0.73593 0.76009 0.04194 0.0
H723 H 0.75397 0.74374 0.0088 0.0
H724 H 0.7404 0.72458 0.04232 0.0
H725 H 0.87261 0.79807 0.07224 0.0
H726 H 0.85596 0.80186 0.03291 0.0
H727 H 0.83635 0.81629 0.06636 0.0
H728 H 0.77756 0.80826 0.94744 0.0
H729 H 0.73765 0.84588 0.02965 0.0
H730 H 0.80207 0.75188 0.97901 0.0
H731 H 0.83655 0.77036 0.99009 0.0
H732 H 0.8181 0.77602 0.95187 0.0
H733 H 0.74782 0.79679 0.08189 0.0
H734 H 0.74972 0.83242 0.08201 0.0
H735 H 0.78489 0.81292 0.08868 0.0
C736 C 0.76105 0.20357 0.52346 0.0
C737 C 0.75278 0.19941 0.49151 0.0
C738 C 0.74454 0.22191 0.54247 0.0
C739 C 0.71882 0.23627 0.52931 0.0
C740 C 0.70905 0.23071 0.49763 0.0
C741 C 0.72644 0.21263 0.47897 0.0
C742 C 0.7562 0.22736 0.57584 0.0
C743 C 0.68144 0.2451 0.48277 0.0
C744 C 0.66531 0.27622 0.58509 0.0
C745 C 0.67671 0.30213 0.58074 0.0
C746 C 0.67854 0.25464 0.56845 0.0
C747 C 0.70434 0.25884 0.54743 0.0
C748 C 0.71647 0.28482 0.54358 0.0
C749 C 0.70236 0.30609 0.55996 0.0
C750 C 0.66453 0.2274 0.5729 0.0
C751 C 0.74436 0.29022 0.52199 0.0
H752 H 0.78178 0.19369 0.533 0.0
H753 H 0.72047 0.20988 0.45406 0.0
H754 H 0.7669 0.24741 0.57678 0.0
H755 H 0.73622 0.22707 0.59299 0.0
H756 H 0.77427 0.21276 0.58366 0.0
H757 H 0.67417 0.23607 0.45976 0.0
H758 H 0.66082 0.24511 0.49917 0.0
H759 H 0.68807 0.26603 0.47838 0.0
H760 H 0.64549 0.27283 0.60097 0.0
H761 H 0.71155 0.32592 0.55649 0.0
H762 H 0.68294 0.21351 0.58157 0.0
H763 H 0.65594 0.21972 0.54967 0.0
H764 H 0.64448 0.22737 0.59005 0.0
H765 H 0.76483 0.27781 0.52916 0.0
H766 H 0.75175 0.31132 0.52249 0.0
H767 H 0.73825 0.28484 0.49711 0.0
C768 C 0.78989 0.3184 0.95918 0.0
C769 C 0.82065 0.31606 0.94686 0.0
C770 C 0.77668 0.29842 0.97846 0.0
C771 C 0.79502 0.2759 0.98663 0.0
C772 C 0.82624 0.27359 0.97452 0.0
C773 C 0.83845 0.29343 0.95438 0.0
C774 C 0.74299 0.30141 0.99003 0.0
C775 C 0.84701 0.25042 0.98338 0.0
C776 C 0.76699 0.24079 0.06198 0.0
C777 C 0.75051 0.21902 0.04955 0.0
C778 C 0.78312 0.25856 0.04187 0.0
C779 C 0.78163 0.25515 0.00837 0.0
C780 C 0.76563 0.23276 0.99577 0.0
C781 C 0.75066 0.21475 0.01656 0.0
C782 C 0.80071 0.28158 0.0565 0.0
C783 C 0.76259 0.2287 0.96027 0.0
H784 H 0.77589 0.3357 0.95328 0.0
H785 H 0.86232 0.29154 0.94515 0.0
H786 H 0.72894 0.28365 0.98348 0.0
H787 H 0.74266 0.30297 0.01639 0.0
H788 H 0.73122 0.31919 0.97994 0.0
H789 H 0.87084 0.25164 0.97224 0.0
H790 H 0.8499 0.24962 0.00965 0.0
H791 H 0.83565 0.23162 0.97593 0.0
H792 H 0.7666 0.24428 0.08747 0.0
H793 H 0.73726 0.1983 1.00686 0.0
H794 H 0.78804 0.30028 0.05114 0.0
H795 H 0.82481 0.28321 0.04608 0.0
H796 H 0.80289 0.27965 0.08277 0.0
H797 H 0.7482 0.24494 0.94993 0.0
H798 H 0.75115 0.20953 0.95428 0.0
H799 H 0.78621 0.22944 0.94873 0.0
C800 C 0.73196 0.79349 0.56511 0.0
C801 C 0.74905 0.81465 0.552 0.0
C802 C 0.71548 0.77551 0.54555 0.0
C803 C 0.71723 0.77804 0.51196 0.0
C804 C 0.7338 0.79984 0.49865 0.0
C805 C 0.74909 0.8181 0.51886 0.0
C806 C 0.69721 0.7532 0.56087 0.0
C807 C 0.73714 0.80294 0.46304 0.0
C808 C 0.70729 0.71427 0.46393 0.0
C809 C 0.67681 0.71728 0.45112 0.0
C810 C 0.72091 0.7341 0.48321 0.0
C811 C 0.70324 0.75714 0.49083 0.0
C812 C 0.67223 0.76003 0.4784 0.0
C813 C 0.65964 0.74033 0.45831 0.0
C814 C 0.75437 0.73049 0.49516 0.0
C815 C 0.65216 0.78377 0.48667 0.0
H816 H 0.73221 0.79061 0.59071 0.0
H817 H 0.76298 0.83403 0.50863 0.0
H818 H 0.67313 0.75176 0.55038 0.0
H819 H 0.7094 0.73414 0.55624 0.0
H820 H 0.69496 0.75582 0.58706 0.0
H821 H 0.74929 0.82167 0.45644 0.0
H822 H 0.75098 0.7861 0.45333 0.0
H823 H 0.71355 0.80251 0.45142 0.0
H824 H 0.7208 0.69664 0.45828 0.0
H825 H 0.636 0.74276 0.44869 0.0
H826 H 0.75449 0.72962 0.52156 0.0
H827 H 0.76915 0.7477 0.48807 0.0
H828 H 0.76551 0.71216 0.4858 0.0
H829 H 0.64958 0.78532 0.51293 0.0
H830 H 0.62817 0.78272 0.47583 0.0
H831 H 0.66392 0.80216 0.47841 0.0
C832 C 0.31604 0.05695 0.03293 0.0
C833 C 0.33794 0.05926 0.05805 0.0
C834 C 0.31528 0.03449 0.01311 0.0
C835 C 0.33673 0.01343 0.0185 0.0
C836 C 0.35817 0.01516 0.04452 0.0
C837 C 0.35862 0.03807 0.06388 0.0
C838 C 0.29206 0.03368 0.98573 0.0
C839 C 0.38115 0.99305 0.05146 0.0
C840 C 0.31707 0.94601 0.98202 0.0
C841 C 0.33716 0.94509 0.95532 0.0
C842 C 0.3168 0.96795 1.00274 0.0
C843 C 0.33687 0.98985 0.99662 0.0
C844 C 0.35661 0.98938 0.96924 0.0
C845 C 0.35666 0.96701 0.94907 0.0
C846 C 0.29545 0.96744 0.03161 0.0
C847 C 0.37803 0.01241 0.96146 0.0
H848 H 0.29996 0.07315 0.02803 0.0
H849 H 0.37575 0.03965 0.08303 0.0
H850 H 0.30514 0.03254 0.96284 0.0
H851 H 0.27702 0.01572 0.98739 0.0
H852 H 0.27643 0.05135 0.98516 0.0
H853 H 0.3952 0.99675 0.0734 0.0
H854 H 0.36819 0.97407 0.05421 0.0
H855 H 0.39771 0.99067 0.03113 0.0
H856 H 0.30206 0.92917 0.98734 0.0
H857 H 0.37242 0.9665 0.92869 0.0
H858 H 0.27905 0.98457 0.03108 0.0
H859 H 0.30988 0.96924 0.05361 0.0
H860 H 0.28122 0.94898 0.03304 0.0
H861 H 0.36385 0.0308 0.95919 0.0
H862 H 0.39144 1.0093 0.93899 0.0
H863 H 0.39518 0.01555 0.98114 0.0
C864 C 0.14973 0.97777 0.56693 0.0
C865 C 0.16983 0.95621 0.56087 0.0
C866 C 0.15014 1.00047 0.54732 0.0
C867 C 0.17103 1.00171 0.52084 0.0
C868 C 0.19201 0.98034 0.51523 0.0
C869 C 0.19121 0.958 0.53527 0.0
C870 C 0.1276 0.02287 0.55444 0.0
C871 C 0.2147 0.98069 0.48742 0.0
C872 C 0.14961 0.04771 0.45153 0.0
C873 C 0.16912 0.06972 0.45726 0.0
C874 C 0.1502 0.02542 0.47178 0.0
C875 C 0.17062 0.02507 0.49866 0.0
C876 C 0.19075 0.04705 0.50422 0.0
C877 C 0.18984 0.06896 0.48348 0.0
C878 C 0.12858 1.00236 0.46468 0.0
C879 C 0.21286 0.04766 0.5325 0.0
H880 H 0.13299 0.9766 0.58647 0.0
H881 H 0.20681 0.9415 0.5302 0.0
H882 H 0.14086 0.04175 0.55668 0.0
H883 H 0.11066 0.02522 0.53442 0.0
H884 H 0.11395 0.01952 0.5767 0.0
H885 H 0.23024 0.96296 0.4869 0.0
H886 H 0.20119 0.98154 0.46476 0.0
H887 H 0.22983 0.99862 0.48843 0.0
H888 H 0.1334 0.04808 0.4315 0.0
H889 H 0.20492 0.08586 0.48835 0.0
H890 H 0.11187 0.99939 0.48477 0.0
H891 H 0.14266 0.98394 0.46225 0.0
H892 H 0.11467 1.00534 0.4425 0.0
H893 H 0.19898 0.04621 0.55489 0.0
H894 H 0.22733 0.06602 0.53331 0.0
H895 H 0.22904 0.03038 0.53178 0.0
C896 C 0.73165 0.9755 0.97467 0.0
C897 C 0.7118 0.95648 0.98879 0.0
C898 C 0.73227 1.00182 0.98552 0.0
C899 C 0.71272 1.00947 0.01132 0.0
C900 C 0.69324 0.99024 0.02627 0.0
C901 C 0.69294 0.96401 0.01479 0.0
C902 C 0.7534 0.02159 0.96887 0.0
C903 C 0.67228 0.99749 0.05406 0.0
C904 C 0.73381 0.07199 0.05757 0.0
C905 C 0.71185 0.09041 0.0457 0.0
C906 C 0.73448 0.04575 0.04647 0.0
C907 C 0.71278 0.03758 0.02269 0.0
C908 C 0.69118 0.05626 0.00988 0.0
C909 C 0.69091 0.08242 0.02158 0.0
C910 C 0.75792 0.02657 0.0608 0.0
C911 C 0.66786 0.04845 0.98427 0.0
H912 H 0.74625 0.96998 0.9545 0.0
H913 H 0.67742 0.94955 0.02575 0.0
H914 H 0.7388 0.03771 0.95856 0.0
H915 H 0.76988 0.03081 0.98622 0.0
H916 H 0.76754 0.01242 0.94946 0.0
H917 H 0.65917 0.98016 0.06362 0.0
H918 H 0.68673 1.00621 0.0735 0.0
H919 H 0.65487 0.01272 0.0466 0.0
H920 H 0.75005 0.07787 0.07629 0.0
H921 H 0.67375 0.09642 0.01238 0.0
H922 H 0.77283 0.01773 0.04181 0.0
H923 H 0.74505 1.01012 0.07259 0.0
H924 H 0.77367 0.03615 0.07861 0.0
H925 H 0.68062 0.03999 0.96352 0.0
H926 H 0.65336 0.06546 0.97601 0.0
H927 H 0.65173 0.03287 0.99343 0.0
C928 C 0.81466 0.06657 0.5082 0.0
C929 C 0.79622 0.07406 0.4819 0.0
C930 C 0.81402 0.04044 0.51986 0.0
C931 C 0.79459 0.02123 0.50478 0.0
C932 C 0.77565 0.02878 0.47847 0.0
C933 C 0.77662 0.05504 0.46744 0.0
C934 C 0.83438 0.03329 0.54815 0.0
C935 C 0.75464 1.009 0.46167 0.0
C936 C 0.81516 0.94837 0.51786 0.0
C937 C 0.79384 0.94125 0.54202 0.0
C938 C 0.81534 0.97418 0.5051 0.0
C939 C 0.79374 0.99336 0.51682 0.0
C940 C 0.77156 0.98601 0.54053 0.0
C941 C 0.77185 0.96012 0.55275 0.0
C942 C 0.8392 0.98113 0.47965 0.0
C943 C 0.74807 1.00572 0.55368 0.0
H944 H 0.82998 0.08105 0.51944 0.0
H945 H 0.76239 0.06053 0.447 0.0
H946 H 0.81936 0.02532 0.56761 0.0
H947 H 0.85138 0.01753 0.5414 0.0
H948 H 0.8479 0.05053 0.55742 0.0
H949 H 0.74129 0.018 0.4416 0.0
H950 H 0.76918 0.99247 0.45225 0.0
H951 H 0.73744 1.00036 0.47874 0.0
H952 H 0.83234 0.93402 0.50953 0.0
H953 H 0.75526 0.95489 0.57143 0.0
H954 H 0.85558 0.99658 0.4887 0.0
H955 H 0.82697 0.98945 0.45851 0.0
H956 H 0.85339 0.96373 0.47204 0.0
H957 H 0.76091 0.02225 0.56538 0.0
H958 H 0.7317 0.99668 0.57132 0.0
H959 H 0.73382 0.01436 0.53407 0.0
C960 C 0.84952 0.48715 0.9466 0.0
C961 C 0.82901 0.46592 0.95291 0.0
C962 C 0.8499 0.50981 0.96627 0.0
C963 C 0.82942 0.51127 0.99304 0.0
C964 C 0.80801 0.49025 0.99889 0.0
C965 C 0.80799 0.46797 0.97877 0.0
C966 C 0.87284 0.5319 0.9589 0.0
C967 C 0.78577 0.49087 0.02707 0.0
C968 C 0.85326 0.55656 0.06213 0.0
C969 C 0.83426 0.57891 0.05681 0.0
C970 C 0.8517 0.53436 0.04181 0.0
C971 C 0.83079 0.53449 0.01532 0.0
C972 C 0.81113 0.55679 0.01022 0.0
C973 C 0.81301 0.5786 0.03102 0.0
C974 C 0.87283 0.51091 0.04838 0.0
C975 C 0.78855 0.55787 0.98234 0.0
H976 H 0.86596 0.48577 0.92684 0.0
H977 H 0.79207 0.4517 0.984 0.0
H978 H 0.86 0.55099 0.95703 0.0
H979 H 0.89019 0.53389 0.97862 0.0
H980 H 0.88601 0.52844 0.93637 0.0
H981 H 0.76975 0.47342 0.0277 0.0
H982 H 0.79965 0.49136 0.04951 0.0
H983 H 0.77111 0.50907 0.02644 0.0
H984 H 0.86986 0.5566 0.08184 0.0
H985 H 0.79831 0.59578 0.0265 0.0
H986 H 0.88914 0.50775 0.02801 0.0
H987 H 0.85832 0.49271 0.0509 0.0
H988 H 0.88716 0.51354 0.07037 0.0
H989 H 0.80199 0.55632 0.9597 0.0
H990 H 0.77449 0.57644 0.98193 0.0
H991 H 0.77198 0.54083 0.98321 0.0
C992 C 0.64147 0.47383 0.55878 0.0
C993 C 0.66073 0.45179 0.55255 0.0
C994 C 0.64238 0.49645 0.53908 0.0
C995 C 0.66284 0.49707 0.51225 0.0
C996 C 0.68258 0.47499 0.50608 0.0
C997 C 0.68138 0.45276 0.52629 0.0
C998 C 0.62119 0.51962 0.54682 0.0
C999 C 0.70468 0.47466 0.47779 0.0
C1000 C 0.64366 0.54647 0.44566 0.0
C1001 C 0.66445 0.5674 0.45258 0.0
C1002 C 0.64327 0.52329 0.46445 0.0
C1003 C 0.66398 0.52097 0.49097 0.0
C1004 C 0.68557 0.54174 0.49747 0.0
C1005 C 0.68562 0.56454 0.47822 0.0
C1006 C 0.62014 0.50151 0.45638 0.0
C1007 C 0.70806 0.54026 0.52541 0.0
H1008 H 0.62532 0.47329 0.57885 0.0
H1009 H 0.69624 0.43583 0.52104 0.0
H1010 H 0.63568 0.53775 0.55013 0.0
H1011 H 0.60479 0.5234 0.52667 0.0
H1012 H 0.60697 0.51627 0.56872 0.0
H1013 H 0.71849 0.456 0.47621 0.0
H1014 H 0.69091 0.47711 0.45546 0.0
H1015 H 0.72148 0.49151 0.47928 0.0
H1016 H 0.62711 0.54847 0.42608 0.0
H1017 H 0.70175 0.58055 0.48394 0.0
H1018 H 0.60303 0.49896 0.47621 0.0
H1019 H 0.63287 0.48246 0.45348 0.0
H1020 H 0.60671 0.5057 0.43418 0.0
H1021 H 0.69438 0.53895 0.54793 0.0
H1022 H 0.724 0.55773 0.52677 0.0
H1023 H 0.7228 0.52215 0.52373 0.0
C1024 C 0.18873 0.55916 0.01131 0.0
C1025 C 0.2075 0.56633 0.03753 0.0
C1026 C 0.18883 0.53305 0.99941 0.0
C1027 C 0.20808 0.51354 0.0141 0.0
C1028 C 0.22746 0.5208 0.04023 0.0
C1029 C 0.22697 0.54702 0.05155 0.0
C1030 C 0.16797 0.52625 0.97136 0.0
C1031 C 0.24834 0.50074 0.05664 0.0
C1032 C 0.18527 0.44093 1.00204 0.0
C1033 C 0.20598 0.43314 0.97761 0.0
C1034 C 0.18602 0.46685 0.01448 0.0
C1035 C 0.20794 0.48554 1.00218 0.0
C1036 C 0.2295 0.47754 0.97819 0.0
C1037 C 0.2283 0.45151 0.96628 0.0
C1038 C 0.16279 0.47444 0.04025 0.0
C1039 C 0.25331 0.4967 0.96442 0.0
H1040 H 0.17351 0.57385 1.00038 0.0
H1041 H 0.24152 0.55224 0.07189 0.0
H1042 H 0.18251 0.51786 0.95178 0.0
H1043 H 0.15053 0.51088 0.97838 0.0
H1044 H 0.15491 0.54373 0.96215 0.0
H1045 H 0.2624 0.5096 0.07632 0.0
H1046 H 0.23358 0.48452 0.06652 0.0
H1047 H 0.26488 0.49171 0.03921 0.0
H1048 H 0.16783 0.42699 0.01086 0.0
H1049 H 0.24436 0.4458 0.94734 0.0
H1050 H 0.1468 0.49022 0.03137 0.0
H1051 H 0.17562 0.48257 0.06116 0.0
H1052 H 0.14814 0.4574 0.04818 0.0
H1053 H 0.24073 0.51335 0.95273 0.0
H1054 H 0.26913 0.48719 0.94663 0.0
H1055 H 0.2681 0.50525 0.98369 0.0
C1056 C 0.31017 0.57319 0.50379 0.0
C1057 C 0.29001 0.58032 0.47863 0.0
C1058 C 0.30983 0.54736 0.51645 0.0
C1059 C 0.28887 0.52813 0.50365 0.0
C1060 C 0.26784 0.53547 0.4789 0.0
C1061 C 0.26864 0.56139 0.46676 0.0
C1062 C 0.3325 0.54043 0.54298 0.0
C1063 C 0.24504 0.51571 0.46461 0.0
C1064 C 0.30984 0.45502 0.51334 0.0
C1065 C 0.29049 0.4475 0.53898 0.0
C1066 C 0.30945 0.48111 0.50153 0.0
C1067 C 0.28927 0.50023 0.51569 0.0
C1068 C 0.26933 0.49262 0.54123 0.0
C1069 C 0.27015 0.46642 0.5525 0.0
C1070 C 0.33096 0.48833 0.47414 0.0
C1071 C 0.24741 0.51228 0.55698 0.0
H1072 H 0.32686 0.58759 0.51303 0.0
H1073 H 0.25297 0.56662 0.4473 0.0
H1074 H 0.31931 0.53213 0.56355 0.0
H1075 H 0.34925 0.52497 0.53472 0.0
H1076 H 0.34636 0.55783 0.55123 0.0
H1077 H 0.22945 0.52476 0.44628 0.0
H1078 H 0.25845 0.49926 0.45344 0.0
H1079 H 0.22995 0.50697 0.48352 0.0
H1080 H 0.32574 0.44062 0.50282 0.0
H1081 H 0.25517 0.46089 0.57239 0.0
H1082 H 0.34762 0.50414 0.48163 0.0
H1083 H 0.31677 0.49627 0.45405 0.0
H1084 H 0.34491 0.47114 0.46545 0.0
H1085 H 0.2614 0.52884 0.56719 0.0
H1086 H 0.23311 0.50318 0.57632 0.0
H1087 H 0.23107 0.52089 0.53908 0.0
C1088 C 0.5906 0.17372 0.09047 0.0
C1089 C 0.6097 0.15379 0.10302 0.0
C1090 C 0.55776 0.17045 0.08655 0.0
C1091 C 0.5438 0.14517 0.0914 0.0
C1092 C 0.564 0.12372 0.09949 0.0
C1093 C 0.59602 0.12858 0.10696 0.0
C1094 C 0.53902 0.19467 0.07738 0.0
C1095 C 0.55308 0.09525 0.09871 0.0
C1096 C 0.45748 0.13563 0.1161 0.0
C1097 C 0.44109 0.1419 0.0881 0.0
C1098 C 0.49075 0.13629 0.11749 0.0
C1099 C 0.50845 0.1416 0.08945 0.0
C1100 C 0.49191 0.14457 0.06012 0.0
C1101 C 0.4585 0.14548 0.05999 0.0
C1102 C 0.5067 0.13115 0.14911 0.0
C1103 C 0.5091 0.14719 0.02876 0.0
H1104 H 0.60129 0.1918 0.08294 0.0
H1105 H 0.61067 0.11205 0.11428 0.0
H1106 H 0.51322 0.19145 0.07565 0.0
H1107 H 0.54302 0.2102 0.09548 0.0
H1108 H 0.54786 0.20252 0.05432 0.0
H1109 H 0.55776 0.08574 0.12209 0.0
H1110 H 0.52772 0.09286 0.09244 0.0
H1111 H 0.56735 0.08428 0.08083 0.0
H1112 H 0.44423 0.13007 0.13712 0.0
H1113 H 0.44603 0.14881 0.03776 0.0
H1114 H 0.52478 0.14656 0.15416 0.0
H1115 H 0.5187 0.11173 0.14867 0.0
H1116 H 0.48954 0.13025 0.16902 0.0
H1117 H 0.51114 0.16844 0.02244 0.0
H1118 H 0.49552 0.13739 0.00939 0.0
H1119 H 0.53321 0.13846 0.02962 0.0
C1120 C 0.91197 0.85491 0.5884 0.0
C1121 C 0.89434 0.87484 0.60317 0.0
C1122 C 0.94512 0.8566 0.58542 0.0
C1123 C 0.96102 0.88039 0.59398 0.0
C1124 C 0.94251 0.90212 0.60463 0.0
C1125 C 0.91002 0.89859 0.61078 0.0
C1126 C 0.96223 0.83296 0.57182 0.0
C1127 C 0.95574 0.92979 0.60774 0.0
C1128 C 0.04738 0.88394 0.621 0.0
C1129 C 0.0639 0.87885 0.59277 0.0
C1130 C 0.01409 0.88444 0.6218 0.0
C1131 C 0.99661 0.88206 0.593 0.0
C1132 C 0.01357 0.88032 0.56377 0.0
C1133 C 0.04682 0.87784 0.56414 0.0
C1134 C 0.99793 0.88748 0.65369 0.0
C1135 C 0.99729 0.88123 0.53178 0.0
H1136 H 0.89987 0.83822 0.57826 0.0
H1137 H 0.8966 0.9152 0.62002 0.0
H1138 H 0.98772 0.83256 0.57782 0.0
H1139 H 0.95141 0.81443 0.58053 0.0
H1140 H 0.95952 0.83296 0.54553 0.0
H1141 H 0.95137 0.93742 0.63216 0.0
H1142 H 0.98135 0.93127 0.60213 0.0
H1143 H 0.94276 0.94311 0.59123 0.0
H1144 H 0.06055 0.88742 0.6427 0.0
H1145 H 0.05946 0.87549 0.54182 0.0
H1146 H 0.97836 0.87293 0.65629 0.0
H1147 H 0.98788 0.90758 0.65596 0.0
H1148 H 0.01471 0.88521 0.67375 0.0
H1149 H 0.99867 0.86143 0.52042 0.0
H1150 H 0.00996 0.89519 0.51579 0.0
H1151 H 0.97214 0.88746 0.53328 0.0
C1152 C 0.46062 0.86998 0.90097 0.0
C1153 C 0.44072 0.87011 0.92753 0.0
C1154 C 0.49349 0.87362 0.9038 0.0
C1155 C 0.50667 0.88126 0.93355 0.0
C1156 C 0.48585 0.88518 0.95972 0.0
C1157 C 0.4537 0.8781 0.95687 0.0
C1158 C 0.51341 0.87017 0.87424 0.0
C1159 C 0.49614 0.89856 0.9902 0.0
C1160 C 0.59306 0.86771 0.95505 0.0
C1161 C 0.60917 0.88442 0.93399 0.0
C1162 C 0.55976 0.86664 0.95567 0.0
C1163 C 0.5419 0.88462 0.93687 0.0
C1164 C 0.55836 0.90431 0.91924 0.0
C1165 C 0.59158 0.90326 0.91699 0.0
C1166 C 0.544 0.84606 0.97637 0.0
C1167 C 0.54161 0.92691 0.90285 0.0
H1168 H 0.4505 0.86783 0.87769 0.0
H1169 H 0.43839 0.88038 0.97743 0.0
H1170 H 0.53807 0.86425 0.87964 0.0
H1171 H 0.50301 0.85507 0.85842 0.0
H1172 H 0.51366 0.88895 0.86061 0.0
H1173 H 0.49104 0.88546 0.01082 0.0
H1174 H 0.52149 0.90431 0.99044 0.0
H1175 H 0.48178 0.91674 0.99372 0.0
H1176 H 0.60653 0.85536 0.97109 0.0
H1177 H 0.60379 0.91766 0.90228 0.0
H1178 H 0.52572 0.83505 0.9627 0.0
H1179 H 0.53238 0.85563 0.99695 0.0
H1180 H 0.56131 0.83195 0.98647 0.0
H1181 H 0.54558 0.92562 0.87675 0.0
H1182 H 0.55222 0.94594 0.91076 0.0
H1183 H 0.51582 0.9276 0.90779 0.0
C1184 C 0.04977 0.12938 0.40797 0.0
C1185 C 0.06663 0.15012 0.42211 0.0
C1186 C 0.01663 0.12762 0.41077 0.0
C1187 C 0.99944 0.14845 0.42568 0.0
C1188 C 0.01687 0.16941 0.44026 0.0
C1189 C 0.0502 0.16929 0.43939 0.0
C1190 C 1.00072 0.1031 0.3978 0.0
C1191 C 0.00125 0.19215 0.45731 0.0
C1192 C 0.91312 0.1503 0.39684 0.0
C1193 C 0.8964 0.14997 0.42547 0.0
C1194 C 0.94642 0.15068 0.3965 0.0
C1195 C 0.9637 0.14842 0.42559 0.0
C1196 C 0.94634 0.14595 0.45453 0.0
C1197 C 0.91309 0.14791 0.45416 0.0
C1198 C 0.9622 0.15302 0.36446 0.0
C1199 C 0.96219 0.14076 0.48617 0.0
H1200 H 0.06267 0.11387 0.39568 0.0
H1201 H 0.06338 0.18473 0.45151 0.0
H1202 H 0.97647 0.10013 0.40733 0.0
H1203 H 0.99962 0.1044 0.37144 0.0
H1204 H 0.01502 0.08529 0.40359 0.0
H1205 H 0.01196 0.21118 0.44968 0.0
H1206 H 0.97546 0.19305 0.45323 0.0
H1207 H 0.00569 0.19029 0.48327 0.0
H1208 H 0.90013 0.15078 0.37455 0.0
H1209 H 0.9 0.14656 0.47635 0.0
H1210 H 0.98787 0.15695 0.36615 0.0
H1211 H 0.95094 0.16906 0.35041 0.0
H1212 H 0.9585 0.1344 0.35091 0.0
H1213 H 0.98662 0.13296 0.48368 0.0
H1214 H 0.94812 0.12632 0.50026 0.0
H1215 H 0.96287 0.1594 0.50015 0.0
C1216 C 0.09228 0.64746 0.12058 0.0
C1217 C 0.10978 0.64635 0.09243 0.0
C1218 C 0.05909 0.6498 0.11993 0.0
C1219 C 0.04254 0.64875 0.09032 0.0
C1220 C 0.06049 0.64558 0.06185 0.0
C1221 C 0.09381 0.64557 0.06324 0.0
C1222 C 0.04255 0.65296 0.15148 0.0
C1223 C 0.04517 0.64174 0.02967 0.0
C1224 C 0.95483 0.6339 0.10535 0.0
C1225 C 0.93985 0.65571 0.09143 0.0
C1226 C 0.98782 0.63049 0.10325 0.0
C1227 C 0.00687 0.65061 0.08925 0.0
C1228 C 0.99137 0.67264 0.0748 0.0
C1229 C 0.95808 0.67428 0.07503 0.0
C1230 C 0.00158 0.60504 0.11604 0.0
C1231 C 0.00909 0.69475 0.05863 0.0
H1232 H 0.10463 0.6471 0.14324 0.0
H1233 H 0.1074 0.64374 0.04141 0.0
H1234 H 0.05488 0.66807 0.16614 0.0
H1235 H 0.01743 0.65868 0.149 0.0
H1236 H 0.04393 0.63405 0.16485 0.0
H1237 H 0.05854 0.62689 0.01552 0.0
H1238 H 0.02016 0.63512 0.03133 0.0
H1239 H 0.04617 0.66063 0.01624 0.0
H1240 H 0.94053 0.61891 0.11702 0.0
H1241 H 0.94636 0.69058 0.06308 0.0
H1242 H 0.00225 0.60597 0.14244 0.0
H1243 H 0.02574 0.60093 0.10692 0.0
H1244 H 0.98608 0.58807 0.10963 0.0
H1245 H 0.0348 0.6942 0.06322 0.0
H1246 H 0.99971 0.71419 0.06652 0.0
H1247 H 0.00505 0.69352 0.03254 0.0
C1248 C 0.54262 0.35013 0.57348 0.0
C1249 C 0.55956 0.37003 0.589 0.0
C1250 C 0.50928 0.34986 0.57389 0.0
C1251 C 0.49231 0.37122 0.58814 0.0
C1252 C 0.5099 0.39263 0.60128 0.0
C1253 C 0.54312 0.39118 0.60272 0.0
C1254 C 0.49309 0.32651 0.55864 0.0
C1255 C 0.49428 0.41739 0.6139 0.0
C1256 C 0.40474 0.37149 0.56387 0.0
C1257 C 0.38946 0.37031 0.59342 0.0
C1258 C 0.43796 0.37301 0.56177 0.0
C1259 C 0.45664 0.37109 0.5899 0.0
C1260 C 0.44081 0.3695 0.61986 0.0
C1261 C 0.40755 0.3702 0.62119 0.0
C1262 C 0.45236 0.37713 0.52921 0.0
C1263 C 0.45815 0.36743 0.65108 0.0
H1264 H 0.55543 0.33428 0.56175 0.0
H1265 H 0.55637 0.40714 0.61377 0.0
H1266 H 0.50395 0.30779 0.56707 0.0
H1267 H 0.46743 0.32585 0.5635 0.0
H1268 H 0.49678 0.32732 0.53248 0.0
H1269 H 0.50843 0.43512 0.60735 0.0
H1270 H 0.46983 0.42012 0.6048 0.0
H1271 H 0.49369 0.41656 0.64031 0.0
H1272 H 0.39059 0.37248 0.54231 0.0
H1273 H 0.39566 0.37016 0.6441 0.0
H1274 H 0.45284 0.35795 0.51634 0.0
H1275 H 0.47674 0.38528 0.53026 0.0
H1276 H 0.4375 0.39082 0.51489 0.0
H1277 H 0.48368 0.36337 0.64812 0.0
H1278 H 0.44748 0.35155 0.66586 0.0
H1279 H 0.45525 0.38618 0.66455 0.0
C1280 C 0.08083 0.35546 0.92943 0.0
C1281 C 0.10069 0.37393 0.91483 0.0
C1282 C 0.0479 0.35925 0.93128 0.0
C1283 C 0.03453 0.38383 0.92182 0.0
C1284 C 0.05529 0.40415 0.91125 0.0
C1285 C 0.08756 0.39847 0.90621 0.0
C1286 C 0.02834 0.33683 0.94456 0.0
C1287 C 0.04476 0.4325 0.90713 0.0
C1288 C 0.94902 0.39083 0.89333 0.0
C1289 C 0.93189 0.38632 0.92135 0.0
C1290 C 0.98232 0.39043 0.89306 0.0
C1291 C 0.99921 0.38772 0.92216 0.0
C1292 C 0.98176 0.38702 0.95114 0.0
C1293 C 0.94847 0.38535 0.95028 0.0
C1294 C 0.9991 0.39279 0.86142 0.0
C1295 C 0.99764 0.38787 0.98335 0.0
H1296 H 0.091 0.3383 0.94037 0.0
H1297 H 0.1028 0.41399 0.89707 0.0
H1298 H 0.00287 0.33828 0.93877 0.0
H1299 H 0.03704 0.31775 0.93526 0.0
H1300 H 0.03125 0.33619 0.97082 0.0
H1301 H 0.05027 0.43931 0.88259 0.0
H1302 H 0.01926 0.4357 0.91219 0.0
H1303 H 0.05864 0.4453 0.92352 0.0
H1304 H 0.93631 0.39449 0.87141 0.0
H1305 H 0.93543 0.38358 0.97244 0.0
H1306 H 0.01796 0.37759 0.85918 0.0
H1307 H 0.01014 0.41254 0.85924 0.0
H1308 H 0.98251 0.391 0.84112 0.0
H1309 H 0.99534 0.36825 0.995 0.0
H1310 H 0.98531 0.40235 0.99893 0.0
H1311 H 0.02304 0.39342 0.98206 0.0
C1312 C 0.54695 0.64496 0.45187 0.0
C1313 C 0.56322 0.64914 0.42312 0.0
C1314 C 0.5138 0.64183 0.45259 0.0
C1315 C 0.4959 0.64556 0.42426 0.0
C1316 C 0.51234 0.6493 0.39513 0.0
C1317 C 0.54566 0.64928 0.39486 0.0
C1318 C 0.49892 0.63335 0.48368 0.0
C1319 C 0.4949 0.65351 0.36413 0.0
C1320 C 0.40982 0.6272 0.40652 0.0
C1321 C 0.39314 0.64862 0.41971 0.0
C1322 C 0.44281 0.62473 0.41015 0.0
C1323 C 0.46032 0.64553 0.42462 0.0
C1324 C 0.44349 0.66681 0.43875 0.0
C1325 C 0.41014 0.6671 0.43773 0.0
C1326 C 0.45799 0.59919 0.39932 0.0
C1327 C 0.46054 0.68948 0.45473 0.0
H1328 H 0.56021 0.64299 0.47388 0.0
H1329 H 0.55796 0.64904 0.37239 0.0
H1330 H 0.47297 0.6302 0.4822 0.0
H1331 H 0.51002 0.61457 0.49168 0.0
H1332 H 0.50407 0.64831 0.50237 0.0
H1333 H 0.48073 0.63587 0.35786 0.0
H1334 H 0.4784 0.67052 0.36644 0.0
H1335 H 0.51128 0.65712 0.34402 0.0
H1336 H 0.39696 0.61163 0.39429 0.0
H1337 H 0.39737 0.68166 0.45138 0.0
H1338 H 0.4838 0.59817 0.40405 0.0
H1339 H 0.45364 0.59627 0.37346 0.0
H1340 H 0.44644 0.58234 0.41174 0.0
H1341 H 0.47463 0.68237 0.47519 0.0
H1342 H 0.4439 0.70454 0.46402 0.0
H1343 H 0.47711 0.69893 0.43759 0.0
C1344 C 0.31432 0.14522 0.21572 0.0
C1345 C 0.30413 0.13625 0.18559 0.0
C1346 C 0.29557 0.14257 0.24309 0.0
C1347 C 0.26523 0.1309 0.24079 0.0
C1348 C 0.25508 0.1207 0.21086 0.0
C1349 C 0.27471 0.12335 0.18363 0.0
C1350 C 0.30766 0.15377 0.27421 0.0
C1351 C 0.22289 0.10809 0.20734 0.0
C1352 C 0.22326 0.11823 0.32073 0.0
C1353 C 0.20516 0.14138 0.32405 0.0
C1354 C 0.24209 0.11391 0.29325 0.0
C1355 C 0.24294 0.13319 0.26859 0.0
C1356 C 0.22472 0.1565 0.27197 0.0
C1357 C 0.20633 0.16028 0.29942 0.0
C1358 C 0.26123 0.08882 0.29063 0.0
C1359 C 0.22507 0.17788 0.24679 0.0
H1360 H 0.33703 0.15502 0.21807 0.0
H1361 H 0.26655 0.11618 0.16071 0.0
H1362 H 0.29379 0.17166 0.28056 0.0
H1363 H 0.30456 0.13925 0.29376 0.0
H1364 H 0.33309 0.15937 0.27293 0.0
H1365 H 0.22013 0.09797 0.18399 0.0
H1366 H 0.21876 0.09355 0.2267 0.0
H1367 H 0.20432 0.12353 0.20937 0.0
H1368 H 0.22234 0.10334 0.33928 0.0
H1369 H 0.1927 0.17838 0.3015 0.0
H1370 H 0.28687 0.09367 0.29016 0.0
H1371 H 0.25562 0.07853 0.26796 0.0
H1372 H 0.25669 0.07508 0.31078 0.0
H1373 H 0.24918 0.18652 0.24497 0.0
H1374 H 0.2081 0.1941 0.25207 0.0
H1375 H 0.2191 0.16938 0.22317 0.0
C1376 C 0.31461 0.85813 0.79437 0.0
C1377 C 0.30533 0.86914 0.82378 0.0
C1378 C 0.2965 0.86137 0.76662 0.0
C1379 C 0.26777 0.87569 0.76789 0.0
C1380 C 0.25843 0.88747 0.79719 0.0
C1381 C 0.27742 0.88424 0.82474 0.0
C1382 C 0.30768 0.84853 0.73609 0.0
C1383 C 0.22783 0.90271 0.79967 0.0
C1384 C 0.22883 0.89283 0.68768 0.0
C1385 C 0.2077 0.87157 0.68377 0.0
C1386 C 0.24813 0.89487 0.71518 0.0
C1387 C 0.2461 0.87537 0.73949 0.0
C1388 C 0.22486 0.85397 0.73559 0.0
C1389 C 0.2063 0.85224 0.70794 0.0
C1390 C 0.27078 0.91783 0.71822 0.0
C1391 C 0.2218 0.83261 0.76061 0.0
H1392 H 0.33627 0.8467 0.79284 0.0
H1393 H 0.27004 0.89301 0.84711 0.0
H1394 H 0.29147 0.83208 0.72964 0.0
H1395 H 0.30721 0.86299 0.71622 0.0
H1396 H 0.33207 0.84046 0.7382 0.0
H1397 H 0.22522 0.91268 0.82312 0.0
H1398 H 0.22648 0.91783 0.78056 0.0
H1399 H 0.20753 0.88903 0.79629 0.0
H1400 H 0.23002 0.90802 0.6695 0.0
H1401 H 0.19021 0.83564 0.7056 0.0
H1402 H 0.29546 0.91039 0.7197 0.0
H1403 H 0.26597 0.92886 0.74057 0.0
H1404 H 0.26902 0.93173 0.6978 0.0
H1405 H 0.24453 0.82176 0.76288 0.0
H1406 H 0.20284 0.81811 0.75489 0.0
H1407 H 0.21655 0.84157 0.78416 0.0
C1408 C 0.74406 0.87763 0.83908 0.0
C1409 C 0.71926 0.86072 0.84824 0.0
C1410 C 0.75614 0.87727 0.80776 0.0
C1411 C 0.74286 0.85985 0.78485 0.0
C1412 C 0.7174 0.84317 0.79379 0.0
C1413 C 0.7061 0.84367 0.8253 0.0
C1414 C 0.78352 0.89518 0.79935 0.0
C1415 C 0.70224 0.82454 0.77012 0.0
C1416 C 0.75702 0.87241 0.69615 0.0
C1417 C 0.78076 0.85385 0.689 0.0
C1418 C 0.74456 0.87469 0.72719 0.0
C1419 C 0.75631 0.85826 0.75188 0.0
C1420 C 0.78047 0.8397 0.74489 0.0
C1421 C 0.79223 0.83763 0.71364 0.0
C1422 C 0.71858 0.89453 0.73351 0.0
C1423 C 0.7939 0.82193 0.77046 0.0
H1424 H 0.75445 0.89085 0.85653 0.0
H1425 H 0.68673 0.83069 0.8319 0.0
H1426 H 0.80421 0.8831 0.79199 0.0
H1427 H 0.77711 0.90793 0.77883 0.0
H1428 H 0.7907 0.90803 0.81959 0.0
H1429 H 0.68167 0.81378 0.78038 0.0
H1430 H 0.69415 0.83568 0.74885 0.0
H1431 H 0.71991 0.8098 0.76187 0.0
H1432 H 0.74792 0.88503 0.67739 0.0
H1433 H 0.81071 0.82335 0.70862 0.0
H1434 H 0.72606 0.90852 0.75244 0.0
H1435 H 0.69709 0.88417 0.74226 0.0
H1436 H 0.71222 0.90603 0.71189 0.0
H1437 H 0.80313 0.83404 0.79048 0.0
H1438 H 0.81333 0.80915 0.76143 0.0
H1439 H 0.77493 0.80906 0.7802 0.0
C1440 C 0.75952 0.1596 0.33861 0.0
C1441 C 0.78183 0.17817 0.34949 0.0
C1442 C 0.74799 0.16032 0.30715 0.0
C1443 C 0.75948 0.17973 0.28569 0.0
C1444 C 0.78197 0.19853 0.29649 0.0
C1445 C 0.79252 0.19775 0.32828 0.0
C1446 C 0.72341 0.14033 0.29689 0.0
C1447 C 0.79522 0.21931 0.27433 0.0
C1448 C 0.74973 0.16646 0.19652 0.0
C1449 C 0.72379 0.18262 0.18887 0.0
C1450 C 0.76192 0.1656 0.22779 0.0
C1451 C 0.74738 0.18078 0.25219 0.0
C1452 C 0.72108 0.19695 0.24462 0.0
C1453 C 0.7099 0.19792 0.21312 0.0
C1454 C 0.79041 0.14852 0.23471 0.0
C1455 C 0.70442 0.21304 0.26992 0.0
H1456 H 0.75093 0.14447 0.35474 0.0
H1457 H 0.80974 0.2122 0.33628 0.0
H1458 H 0.70194 0.15068 0.28809 0.0
H1459 H 0.73269 0.12824 0.27691 0.0
H1460 H 0.71641 0.12686 0.31659 0.0
H1461 H 0.81341 0.23188 0.28606 0.0
H1462 H 0.80603 0.20969 0.25319 0.0
H1463 H 0.77586 0.23224 0.26558 0.0
H1464 H 0.76073 0.15467 0.178 0.0
H1465 H 0.68973 0.21038 0.20765 0.0
H1466 H 0.78415 0.13316 0.2525 0.0
H1467 H 0.80963 0.16074 0.2452 0.0
H1468 H 0.79962 0.13858 0.21299 0.0
H1469 H 0.69597 0.19983 0.28926 0.0
H1470 H 0.68383 0.22415 0.26029 0.0
H1471 H 0.72118 0.22735 0.28077 0.0
C1472 C 0.71128 0.67173 0.3102 0.0
C1473 C 0.70745 0.65061 0.33171 0.0
C1474 C 0.7292 0.6691 0.28222 0.0
C1475 C 0.74417 0.64473 0.27522 0.0
C1476 C 0.74086 0.62333 0.29689 0.0
C1477 C 0.72255 0.62649 0.32487 0.0
C1478 C 0.73227 0.69262 0.2602 0.0
C1479 C 0.75664 0.59709 0.29046 0.0
C1480 C 0.77338 0.6387 0.18888 0.0
C1481 C 0.80445 0.64833 0.1917 0.0
C1482 C 0.75372 0.63611 0.21607 0.0
C1483 C 0.76557 0.64292 0.24674 0.0
C1484 C 0.7974 0.6512 0.24972 0.0
C1485 C 0.81617 0.65395 0.2224 0.0
C1486 C 0.71986 0.62725 0.21184 0.0
C1487 C 0.81134 0.65855 0.28171 0.0
H1488 H 0.69985 0.69052 0.31502 0.0
H1489 H 0.71948 0.60992 0.34096 0.0
H1490 H 0.75741 0.69896 0.25892 0.0
H1491 H 0.72481 0.6871 0.23574 0.0
H1492 H 0.71779 0.70974 0.26817 0.0
H1493 H 0.75106 0.58214 0.30904 0.0
H1494 H 0.74899 0.58933 0.26695 0.0
H1495 H 0.78272 0.59974 0.2894 0.0
H1496 H 0.76405 0.6342 0.16543 0.0
H1497 H 0.8402 0.66113 0.22525 0.0
H1498 H 0.70372 0.64413 0.21658 0.0
H1499 H 0.71396 0.61146 0.22921 0.0
H1500 H 0.71522 0.6198 0.18737 0.0
H1501 H 0.80008 0.677 0.2905 0.0
H1502 H 0.83735 0.66181 0.28048 0.0
H1503 H 0.80652 0.64283 0.2995 0.0
C1504 C 0.7263 0.39366 0.68493 0.0
C1505 C 0.69457 0.38575 0.68782 0.0
C1506 C 0.74565 0.39663 0.71231 0.0
C1507 C 0.7328 0.39195 0.74315 0.0
C1508 C 0.70032 0.38568 0.74607 0.0
C1509 C 0.68188 0.38248 0.71861 0.0
C1510 C 0.78021 0.40335 0.70816 0.0
C1511 C 0.6853 0.38063 0.7782 0.0
C1512 C 0.78346 0.36247 0.80911 0.0
C1513 C 0.78867 0.38412 0.8295 0.0
C1514 C 0.76623 0.36506 0.78068 0.0
C1515 C 0.75354 0.38998 0.77207 0.0
C1516 C 0.75825 0.41194 0.79266 0.0
C1517 C 0.77571 0.40876 0.82116 0.0
C1518 C 0.76148 0.34095 0.75991 0.0
C1519 C 0.74498 0.4388 0.78446 0.0
H1520 H 0.73638 0.39624 0.66139 0.0
H1521 H 0.65741 0.37651 0.72146 0.0
H1522 H 0.78728 0.41925 0.72497 0.0
H1523 H 0.79481 0.3857 0.71375 0.0
H1524 H 0.78568 0.4098 0.68346 0.0
H1525 H 0.65908 0.37905 0.77669 0.0
H1526 H 0.69464 0.36188 0.78824 0.0
H1527 H 0.69135 0.39671 0.79515 0.0
H1528 H 0.79331 0.34331 0.81517 0.0
H1529 H 0.78002 0.42573 0.83636 0.0
H1530 H 0.76992 0.34502 0.73536 0.0
H1531 H 0.73587 0.33615 0.75836 0.0
H1532 H 0.7742 0.32331 0.76916 0.0
H1533 H 0.75389 0.44518 0.7608 0.0
H1534 H 0.7514 0.45405 0.8024 0.0
H1535 H 0.71878 0.4377 0.78278 0.0
C1536 C 0.25255 0.36324 0.68293 0.0
C1537 C 0.27496 0.34453 0.67268 0.0
C1538 C 0.24029 0.36274 0.71413 0.0
C1539 C 0.25097 0.34331 0.73598 0.0
C1540 C 0.27359 0.32438 0.72582 0.0
C1541 C 0.28506 0.32506 0.69432 0.0
C1542 C 0.2158 0.38301 0.72371 0.0
C1543 C 0.28593 0.30352 0.74837 0.0
C1544 C 0.23971 0.35729 0.82484 0.0
C1545 C 0.21309 0.34174 0.83215 0.0
C1546 C 0.25255 0.3577 0.79383 0.0
C1547 C 0.23815 0.3426 0.76928 0.0
C1548 C 0.21123 0.32696 0.77649 0.0
C1549 C 0.19924 0.32655 0.80776 0.0
C1550 C 0.28157 0.37432 0.78733 0.0
C1551 C 0.19477 0.31089 0.75105 0.0
H1552 H 0.24443 0.37832 0.6665 0.0
H1553 H 0.30243 0.31055 0.68685 0.0
H1554 H 0.19394 0.37291 0.73196 0.0
H1555 H 0.22478 0.39503 0.74391 0.0
H1556 H 0.20955 0.39653 0.70381 0.0
H1557 H 0.30399 0.29059 0.73706 0.0
H1558 H 0.29662 0.31308 0.76962 0.0
H1559 H 0.2661 0.29096 0.7569 0.0
H1560 H 0.2507 0.36902 0.84344 0.0
H1561 H 0.17856 0.31458 0.81295 0.0
H1562 H 0.27602 0.38963 0.76923 0.0
H1563 H 0.30072 0.36175 0.7774 0.0
H1564 H 0.29054 0.3843 0.80912 0.0
H1565 H 0.18678 0.32407 0.7315 0.0
H1566 H 0.17391 0.29997 0.76042 0.0
H1567 H 0.21154 0.29642 0.74054 0.0
C1568 C 0.29804 0.68497 0.30834 0.0
C1569 C 0.28316 0.67048 0.3327 0.0
C1570 C 0.28687 0.6842 0.27679 0.0
C1571 C 0.25972 0.66894 0.26927 0.0
C1572 C 0.24451 0.6543 0.29371 0.0
C1573 C 0.25656 0.65504 0.32503 0.0
C1574 C 0.3042 0.69974 0.25147 0.0
C1575 C 0.21525 0.63808 0.28684 0.0
C1576 C 0.21417 0.68776 0.19402 0.0
C1577 C 0.22389 0.66819 0.17233 0.0
C1578 C 0.22529 0.68801 0.22564 0.0
C1579 C 0.24718 0.66854 0.23587 0.0
C1580 C 0.25747 0.64897 0.21401 0.0
C1581 C 0.24554 0.6489 0.18267 0.0
C1582 C 0.21338 0.70905 0.24821 0.0
C1583 C 0.28121 0.62813 0.22369 0.0
H1584 H 0.31876 0.6968 0.31385 0.0
H1585 H 0.24479 0.64387 0.34363 0.0
H1586 H 0.31165 0.68635 0.23189 0.0
H1587 H 0.28817 0.71477 0.24096 0.0
H1588 H 0.32551 0.70996 0.26098 0.0
H1589 H 0.20604 0.62796 0.30843 0.0
H1590 H 0.19634 0.65101 0.2771 0.0
H1591 H 0.22055 0.62292 0.26847 0.0
H1592 H 0.1974 0.70272 0.18647 0.0
H1593 H 0.25337 0.63373 0.16619 0.0
H1594 H 0.2335 0.72124 0.25686 0.0
H1595 H 0.20235 0.69966 0.26938 0.0
H1596 H 0.19571 0.72233 0.23687 0.0
H1597 H 0.30335 0.63772 0.2321 0.0
H1598 H 0.28714 0.61449 0.2038 0.0
H1599 H 0.27174 0.61631 0.24382 0.0
loop_
_geom_bond_atom_site_label_1
_geom_bond_atom_site_label_2
_geom_bond_distance
_geom_bond_site_symmetry_2
_ccdc_geom_bond_type
Mn0 O5 2.095 . S
Mn0 O15 2.162 . S
Mn0 O16 2.297 . S
Mn0 O24 2.385 . S
Mn0 O25 2.209 . S
Mn0 O26 2.094 . S
Mn1 O6 2.121 . S
Mn1 N8 2.257 . S
Mn1 N17 2.282 . S
Mn1 O25 2.215 . S
Mn1 O27 2.117 . S
C2 O24 1.234 . S
C2 O25 1.283 . S
C3 O15 1.281 . S
C3 O16 1.236 . S
C4 O26 1.240 . S
C4 O27 1.264 . S
O5 Mn0 2.095 . S
O5 C14 1.250 . S
O6 Mn1 2.121 . S
O6 C14 1.258 . S
C7 N8 1.326 . S
C7 C11 1.460 . S
C7 H13 0.929 . S
N8 Mn1 2.257 . S
N8 C7 1.326 . S
N8 C12 1.362 . S
C9 C10 1.258 . S
C9 C12 1.431 . S
C9 C29 1.449 . S
C10 C9 1.258 . S
C10 C11 1.477 . S
C10 H30 0.931 . S
C11 C7 1.460 . S
C11 C10 1.477 . S
C11 H31 0.930 . S
C12 N8 1.362 . S
C12 C9 1.431 . S
C12 C22 1.476 . S
H13 C7 0.929 . S
C14 O5 1.250 . S
C14 O6 1.258 . S
O15 Mn0 2.162 . S
O15 C3 1.281 . S
O16 Mn0 2.297 . S
O16 C3 1.236 . S
N17 Mn1 2.282 . S
N17 C18 1.328 . S
N17 C22 1.318 . S
C18 N17 1.328 . S
C18 C19 1.457 . S
C18 H23 0.929 . S
C19 C18 1.457 . S
C19 C20 1.291 . S
C19 H32 0.931 . S
C20 C19 1.291 . S
C20 C21 1.373 . S
C20 H33 0.929 . S
C21 C20 1.373 . S
C21 C22 1.396 . S
C21 C28 1.403 . S
C22 C12 1.476 . S
C22 N17 1.318 . S
C22 C21 1.396 . S
H23 C18 0.929 . S
O24 Mn0 2.385 . S
O24 C2 1.234 . S
O25 Mn0 2.209 . S
O25 Mn1 2.215 . S
O25 C2 1.283 . S
O26 Mn0 2.094 . S
O26 C4 1.240 . S
O27 Mn1 2.117 . S
O27 C4 1.264 . S
C28 C21 1.403 . S
C28 C29 1.399 . S
C28 H34 0.929 . S
C29 C9 1.449 . S
C29 C28 1.399 . S
C29 H35 0.930 . S
H30 C10 0.931 . S
H31 C11 0.930 . S
H32 C19 0.931 . S
H33 C20 0.929 . S
H34 C28 0.929 . S
H35 C29 0.930 . S
Mn36 O41 2.095 . S
Mn36 O51 2.162 . S
Mn36 O52 2.297 . S
Mn36 O60 2.385 . S
Mn36 O61 2.209 . S
Mn36 O62 2.094 . S
Mn37 O42 2.121 . S
Mn37 N44 2.257 . S
Mn37 N53 2.282 . S
Mn37 O61 2.215 . S
Mn37 O63 2.117 . S
C38 O60 1.234 . S
C38 O61 1.283 . S
C39 O51 1.281 . S
C39 O52 1.236 . S
C40 O62 1.240 . S
C40 O63 1.264 . S
O41 Mn36 2.095 . S
O41 C50 1.250 . S
O42 Mn37 2.121 . S
O42 C50 1.258 . S
C43 N44 1.326 . S
C43 C47 1.460 . S
C43 H49 0.929 . S
N44 Mn37 2.257 . S
N44 C43 1.326 . S
N44 C48 1.362 . S
C45 C46 1.258 . S
C45 C48 1.431 . S
C45 C65 1.449 . S
C46 C45 1.258 . S
C46 C47 1.477 . S
C46 H66 0.931 . S
C47 C43 1.460 . S
C47 C46 1.477 . S
C47 H67 0.930 . S
C48 N44 1.362 . S
C48 C45 1.431 . S
C48 C58 1.476 . S
H49 C43 0.929 . S
C50 O41 1.250 . S
C50 O42 1.258 . S
O51 Mn36 2.162 . S
O51 C39 1.281 . S
O52 Mn36 2.297 . S
O52 C39 1.236 . S
N53 Mn37 2.282 . S
N53 C54 1.328 . S
N53 C58 1.318 . S
C54 N53 1.328 . S
C54 C55 1.457 . S
C54 H59 0.929 . S
C55 C54 1.457 . S
C55 C56 1.291 . S
C55 H68 0.931 . S
C56 C55 1.291 . S
C56 C57 1.373 . S
C56 H69 0.929 . S
C57 C56 1.373 . S
C57 C58 1.396 . S
C57 C64 1.403 . S
C58 C48 1.476 . S
C58 N53 1.318 . S
C58 C57 1.396 . S
H59 C54 0.929 . S
O60 Mn36 2.385 . S
O60 C38 1.234 . S
O61 Mn36 2.209 . S
O61 Mn37 2.215 . S
O61 C38 1.283 . S
O62 Mn36 2.094 . S
O62 C40 1.240 . S
O63 Mn37 2.117 . S
O63 C40 1.264 . S
C64 C57 1.403 . S
C64 C65 1.399 . S
C64 H70 0.929 . S
C65 C45 1.449 . S
C65 C64 1.399 . S
C65 H71 0.930 . S
H66 C46 0.931 . S
H67 C47 0.930 . S
H68 C55 0.931 . S
H69 C56 0.929 . S
H70 C64 0.929 . S
H71 C65 0.930 . S
Mn72 O77 2.095 . S
Mn72 O87 2.162 . S
Mn72 O88 2.297 . S
Mn72 O96 2.385 . S
Mn72 O97 2.209 . S
Mn72 O98 2.094 . S
Mn73 O78 2.121 . S
Mn73 N80 2.257 . S
Mn73 N89 2.282 . S
Mn73 O97 2.215 . S
Mn73 O99 2.117 . S
C74 O96 1.234 . S
C74 O97 1.283 . S
C75 O87 1.281 . S
C75 O88 1.236 . S
C76 O98 1.240 . S
C76 O99 1.264 . S
O77 Mn72 2.095 . S
O77 C86 1.250 . S
O78 Mn73 2.121 . S
O78 C86 1.258 . S
C79 N80 1.326 . S
C79 C83 1.460 . S
C79 H85 0.929 . S
N80 Mn73 2.257 . S
N80 C79 1.326 . S
N80 C84 1.362 . S
C81 C82 1.258 . S
C81 C84 1.431 . S
C81 C101 1.449 . S
C82 C81 1.258 . S
C82 C83 1.477 . S
C82 H102 0.931 . S
C83 C79 1.460 . S
C83 C82 1.477 . S
C83 H103 0.930 . S
C84 N80 1.362 . S
C84 C81 1.431 . S
C84 C94 1.476 . S
H85 C79 0.929 . S
C86 O77 1.250 . S
C86 O78 1.258 . S
O87 Mn72 2.162 . S
O87 C75 1.281 . S
O88 Mn72 2.297 . S
O88 C75 1.236 . S
N89 Mn73 2.282 . S
N89 C90 1.328 . S
N89 C94 1.318 . S
C90 N89 1.328 . S
C90 C91 1.457 . S
C90 H95 0.929 . S
C91 C90 1.457 . S
C91 C92 1.291 . S
C91 H104 0.931 . S
C92 C91 1.291 . S
C92 C93 1.373 . S
C92 H105 0.929 . S
C93 C92 1.373 . S
C93 C94 1.396 . S
C93 C100 1.403 . S
C94 C84 1.476 . S
C94 N89 1.318 . S
C94 C93 1.396 . S
H95 C90 0.929 . S
O96 Mn72 2.385 . S
O96 C74 1.234 . S
O97 Mn72 2.209 . S
O97 Mn73 2.215 . S
O97 C74 1.283 . S
O98 Mn72 2.094 . S
O98 C76 1.240 . S
O99 Mn73 2.117 . S
O99 C76 1.264 . S
C100 C93 1.403 . S
C100 C101 1.399 . S
C100 H106 0.929 . S
C101 C81 1.449 . S
C101 C100 1.399 . S
C101 H107 0.930 . S
H102 C82 0.931 . S
H103 C83 0.930 . S
H104 C91 0.931 . S
H105 C92 0.929 . S
H106 C100 0.929 . S
H107 C101 0.930 . S
Mn108 O113 2.095 . S
Mn108 O123 2.162 . S
Mn108 O124 2.297 . S
Mn108 O132 2.385 . S
Mn108 O133 2.209 . S
Mn108 O134 2.094 . S
Mn109 O114 2.121 . S
Mn109 N116 2.257 . S
Mn109 N125 2.282 . S
Mn109 O133 2.215 . S
Mn109 O135 2.117 . S
C110 O132 1.234 . S
C110 O133 1.283 . S
C111 O123 1.281 . S
C111 O124 1.236 . S
C112 O134 1.240 . S
C112 O135 1.264 . S
O113 Mn108 2.095 . S
O113 C122 1.250 . S
O114 Mn109 2.121 . S
O114 C122 1.258 . S
C115 N116 1.326 . S
C115 C119 1.460 . S
C115 H121 0.929 . S
N116 Mn109 2.257 . S
N116 C115 1.326 . S
N116 C120 1.362 . S
C117 C118 1.258 . S
C117 C120 1.431 . S
C117 C137 1.449 . S
C118 C117 1.258 . S
C118 C119 1.477 . S
C118 H138 0.931 . S
C119 C115 1.460 . S
C119 C118 1.477 . S
C119 H139 0.930 . S
C120 N116 1.362 . S
C120 C117 1.431 . S
C120 C130 1.476 . S
H121 C115 0.929 . S
C122 O113 1.250 . S
C122 O114 1.258 . S
O123 Mn108 2.162 . S
O123 C111 1.281 . S
O124 Mn108 2.297 . S
O124 C111 1.236 . S
N125 Mn109 2.282 . S
N125 C126 1.328 . S
N125 C130 1.318 . S
C126 N125 1.328 . S
C126 C127 1.457 . S
C126 H131 0.929 . S
C127 C126 1.457 . S
C127 C128 1.291 . S
C127 H140 0.931 . S
C128 C127 1.291 . S
C128 C129 1.373 . S
C128 H141 0.929 . S
C129 C128 1.373 . S
C129 C130 1.396 . S
C129 C136 1.403 . S
C130 C120 1.476 . S
C130 N125 1.318 . S
C130 C129 1.396 . S
H131 C126 0.929 . S
O132 Mn108 2.385 . S
O132 C110 1.234 . S
O133 Mn108 2.209 . S
O133 Mn109 2.215 . S
O133 C110 1.283 . S
O134 Mn108 2.094 . S
O134 C112 1.240 . S
O135 Mn109 2.117 . S
O135 C112 1.264 . S
C136 C129 1.403 . S
C136 C137 1.399 . S
C136 H142 0.929 . S
C137 C117 1.449 . S
C137 C136 1.399 . S
C137 H143 0.930 . S
H138 C118 0.931 . S
H139 C119 0.930 . S
H140 C127 0.931 . S
H141 C128 0.929 . S
H142 C136 0.929 . S
H143 C137 0.930 . S
Mn144 O149 2.095 . S
Mn144 O159 2.162 . S
Mn144 O160 2.297 . S
Mn144 O168 2.385 . S
Mn144 O169 2.209 . S
Mn144 O170 2.094 . S
Mn145 O150 2.121 . S
Mn145 N152 2.257 . S
Mn145 N161 2.282 . S
Mn145 O169 2.215 . S
Mn145 O171 2.117 . S
C146 O168 1.234 . S
C146 O169 1.283 . S
C147 O159 1.281 . S
C147 O160 1.236 . S
C148 O170 1.240 . S
C148 O171 1.264 . S
O149 Mn144 2.095 . S
O149 C158 1.250 . S
O150 Mn145 2.121 . S
O150 C158 1.258 . S
C151 N152 1.326 . S
C151 C155 1.460 . S
C151 H157 0.929 . S
N152 Mn145 2.257 . S
N152 C151 1.326 . S
N152 C156 1.362 . S
C153 C154 1.258 . S
C153 C156 1.431 . S
C153 C173 1.449 . S
C154 C153 1.258 . S
C154 C155 1.477 . S
C154 H174 0.931 . S
C155 C151 1.460 . S
C155 C154 1.477 . S
C155 H175 0.930 . S
C156 N152 1.362 . S
C156 C153 1.431 . S
C156 C166 1.476 . S
H157 C151 0.929 . S
C158 O149 1.250 . S
C158 O150 1.258 . S
O159 Mn144 2.162 . S
O159 C147 1.281 . S
O160 Mn144 2.297 . S
O160 C147 1.236 . S
N161 Mn145 2.282 . S
N161 C162 1.328 . S
N161 C166 1.318 . S
C162 N161 1.328 . S
C162 C163 1.457 . S
C162 H167 0.929 . S
C163 C162 1.457 . S
C163 C164 1.291 . S
C163 H176 0.931 . S
C164 C163 1.291 . S
C164 C165 1.373 . S
C164 H177 0.929 . S
C165 C164 1.373 . S
C165 C166 1.396 . S
C165 C172 1.403 . S
C166 C156 1.476 . S
C166 N161 1.318 . S
C166 C165 1.396 . S
H167 C162 0.929 . S
O168 Mn144 2.385 . S
O168 C146 1.234 . S
O169 Mn144 2.209 . S
O169 Mn145 2.215 . S
O169 C146 1.283 . S
O170 Mn144 2.094 . S
O170 C148 1.240 . S
O171 Mn145 2.117 . S
O171 C148 1.264 . S
C172 C165 1.403 . S
C172 C173 1.399 . S
C172 H178 0.929 . S
C173 C153 1.449 . S
C173 C172 1.399 . S
C173 H179 0.930 . S
H174 C154 0.931 . S
H175 C155 0.930 . S
H176 C163 0.931 . S
H177 C164 0.929 . S
H178 C172 0.929 . S
H179 C173 0.930 . S
Mn180 O185 2.095 . S
Mn180 O195 2.162 . S
Mn180 O196 2.297 . S
Mn180 O204 2.385 . S
Mn180 O205 2.209 . S
Mn180 O206 2.094 . S
Mn181 O186 2.121 . S
Mn181 N188 2.257 . S
Mn181 N197 2.282 . S
Mn181 O205 2.215 . S
Mn181 O207 2.117 . S
C182 O204 1.234 . S
C182 O205 1.283 . S
C183 O195 1.281 . S
C183 O196 1.236 . S
C184 O206 1.240 . S
C184 O207 1.264 . S
O185 Mn180 2.095 . S
O185 C194 1.250 . S
O186 Mn181 2.121 . S
O186 C194 1.258 . S
C187 N188 1.326 . S
C187 C191 1.460 . S
C187 H193 0.929 . S
N188 Mn181 2.257 . S
N188 C187 1.326 . S
N188 C192 1.362 . S
C189 C190 1.258 . S
C189 C192 1.431 . S
C189 C209 1.449 . S
C190 C189 1.258 . S
C190 C191 1.477 . S
C190 H210 0.931 . S
C191 C187 1.460 . S
C191 C190 1.477 . S
C191 H211 0.930 . S
C192 N188 1.362 . S
C192 C189 1.431 . S
C192 C202 1.476 . S
H193 C187 0.929 . S
C194 O185 1.250 . S
C194 O186 1.258 . S
O195 Mn180 2.162 . S
O195 C183 1.281 . S
O196 Mn180 2.297 . S
O196 C183 1.236 . S
N197 Mn181 2.282 . S
N197 C198 1.328 . S
N197 C202 1.318 . S
C198 N197 1.328 . S
C198 C199 1.457 . S
C198 H203 0.929 . S
C199 C198 1.457 . S
C199 C200 1.291 . S
C199 H212 0.931 . S
C200 C199 1.291 . S
C200 C201 1.373 . S
C200 H213 0.929 . S
C201 C200 1.373 . S
C201 C202 1.396 . S
C201 C208 1.403 . S
C202 C192 1.476 . S
C202 N197 1.318 . S
C202 C201 1.396 . S
H203 C198 0.929 . S
O204 Mn180 2.385 . S
O204 C182 1.234 . S
O205 Mn180 2.209 . S
O205 Mn181 2.215 . S
O205 C182 1.283 . S
O206 Mn180 2.094 . S
O206 C184 1.240 . S
O207 Mn181 2.117 . S
O207 C184 1.264 . S
C208 C201 1.403 . S
C208 C209 1.399 . S
C208 H214 0.929 . S
C209 C189 1.449 . S
C209 C208 1.399 . S
C209 H215 0.930 . S
H210 C190 0.931 . S
H211 C191 0.930 . S
H212 C199 0.931 . S
H213 C200 0.929 . S
H214 C208 0.929 . S
H215 C209 0.930 . S
Mn216 O221 2.095 . S
Mn216 O231 2.162 . S
Mn216 O232 2.297 . S
Mn216 O240 2.385 . S
Mn216 O241 2.209 . S
Mn216 O242 2.094 . S
Mn217 O222 2.121 . S
Mn217 N224 2.257 . S
Mn217 N233 2.282 . S
Mn217 O241 2.215 . S
Mn217 O243 2.117 . S
C218 O240 1.234 . S
C218 O241 1.283 . S
C219 O231 1.281 . S
C219 O232 1.236 . S
C220 O242 1.240 . S
C220 O243 1.264 . S
O221 Mn216 2.095 . S
O221 C230 1.250 . S
O222 Mn217 2.121 . S
O222 C230 1.258 . S
C223 N224 1.326 . S
C223 C227 1.460 . S
C223 H229 0.929 . S
N224 Mn217 2.257 . S
N224 C223 1.326 . S
N224 C228 1.362 . S
C225 C226 1.258 . S
C225 C228 1.431 . S
C225 C245 1.449 . S
C226 C225 1.258 . S
C226 C227 1.477 . S
C226 H246 0.931 . S
C227 C223 1.460 . S
C227 C226 1.477 . S
C227 H247 0.930 . S
C228 N224 1.362 . S
C228 C225 1.431 . S
C228 C238 1.476 . S
H229 C223 0.929 . S
C230 O221 1.250 . S
C230 O222 1.258 . S
O231 Mn216 2.162 . S
O231 C219 1.281 . S
O232 Mn216 2.297 . S
O232 C219 1.236 . S
N233 Mn217 2.282 . S
N233 C234 1.328 . S
N233 C238 1.318 . S
C234 N233 1.328 . S
C234 C235 1.457 . S
C234 H239 0.929 . S
C235 C234 1.457 . S
C235 C236 1.291 . S
C235 H248 0.931 . S
C236 C235 1.291 . S
C236 C237 1.373 . S
C236 H249 0.929 . S
C237 C236 1.373 . S
C237 C238 1.396 . S
C237 C244 1.403 . S
C238 C228 1.476 . S
C238 N233 1.318 . S
C238 C237 1.396 . S
H239 C234 0.929 . S
O240 Mn216 2.385 . S
O240 C218 1.234 . S
O241 Mn216 2.209 . S
O241 Mn217 2.215 . S
O241 C218 1.283 . S
O242 Mn216 2.094 . S
O242 C220 1.240 . S
O243 Mn217 2.117 . S
O243 C220 1.264 . S
C244 C237 1.403 . S
C244 C245 1.399 . S
C244 H250 0.929 . S
C245 C225 1.449 . S
C245 C244 1.399 . S
C245 H251 0.930 . S
H246 C226 0.931 . S
H247 C227 0.930 . S
H248 C235 0.931 . S
H249 C236 0.929 . S
H250 C244 0.929 . S
H251 C245 0.930 . S
Mn252 O257 2.095 . S
Mn252 O267 2.162 . S
Mn252 O268 2.297 . S
Mn252 O276 2.385 . S
Mn252 O277 2.209 . S
Mn252 O278 2.094 . S
Mn253 O258 2.121 . S
Mn253 N260 2.257 . S
Mn253 N269 2.282 . S
Mn253 O277 2.215 . S
Mn253 O279 2.117 . S
C254 O276 1.234 . S
C254 O277 1.283 . S
C255 O267 1.281 . S
C255 O268 1.236 . S
C256 O278 1.240 . S
C256 O279 1.264 . S
O257 Mn252 2.095 . S
O257 C266 1.250 . S
O258 Mn253 2.121 . S
O258 C266 1.258 . S
C259 N260 1.326 . S
C259 C263 1.460 . S
C259 H265 0.929 . S
N260 Mn253 2.257 . S
N260 C259 1.326 . S
N260 C264 1.362 . S
C261 C262 1.258 . S
C261 C264 1.431 . S
C261 C281 1.449 . S
C262 C261 1.258 . S
C262 C263 1.477 . S
C262 H282 0.931 . S
C263 C259 1.460 . S
C263 C262 1.477 . S
C263 H283 0.930 . S
C264 N260 1.362 . S
C264 C261 1.431 . S
C264 C274 1.476 . S
H265 C259 0.929 . S
C266 O257 1.250 . S
C266 O258 1.258 . S
O267 Mn252 2.162 . S
O267 C255 1.281 . S
O268 Mn252 2.297 . S
O268 C255 1.236 . S
N269 Mn253 2.282 . S
N269 C270 1.328 . S
N269 C274 1.318 . S
C270 N269 1.328 . S
C270 C271 1.457 . S
C270 H275 0.929 . S
C271 C270 1.457 . S
C271 C272 1.291 . S
C271 H284 0.931 . S
C272 C271 1.291 . S
C272 C273 1.373 . S
C272 H285 0.929 . S
C273 C272 1.373 . S
C273 C274 1.396 . S
C273 C280 1.403 . S
C274 C264 1.476 . S
C274 N269 1.318 . S
C274 C273 1.396 . S
H275 C270 0.929 . S
O276 Mn252 2.385 . S
O276 C254 1.234 . S
O277 Mn252 2.209 . S
O277 Mn253 2.215 . S
O277 C254 1.283 . S
O278 Mn252 2.094 . S
O278 C256 1.240 . S
O279 Mn253 2.117 . S
O279 C256 1.264 . S
C280 C273 1.403 . S
C280 C281 1.399 . S
C280 H286 0.929 . S
C281 C261 1.449 . S
C281 C280 1.399 . S
C281 H287 0.930 . S
H282 C262 0.931 . S
H283 C263 0.930 . S
H284 C271 0.931 . S
H285 C272 0.929 . S
H286 C280 0.929 . S
H287 C281 0.930 . S
Mn288 O293 2.095 . S
Mn288 O303 2.162 . S
Mn288 O304 2.297 . S
Mn288 O312 2.385 . S
Mn288 O313 2.209 . S
Mn288 O314 2.094 . S
Mn289 O294 2.121 . S
Mn289 N296 2.257 . S
Mn289 N305 2.282 . S
Mn289 O313 2.215 . S
Mn289 O315 2.117 . S
C290 O312 1.234 . S
C290 O313 1.283 . S
C291 O303 1.281 . S
C291 O304 1.236 . S
C292 O314 1.240 . S
C292 O315 1.264 . S
O293 Mn288 2.095 . S
O293 C302 1.250 . S
O294 Mn289 2.121 . S
O294 C302 1.258 . S
C295 N296 1.326 . S
C295 C299 1.460 . S
C295 H301 0.929 . S
N296 Mn289 2.257 . S
N296 C295 1.326 . S
N296 C300 1.362 . S
C297 C298 1.258 . S
C297 C300 1.431 . S
C297 C317 1.449 . S
C298 C297 1.258 . S
C298 C299 1.477 . S
C298 H318 0.931 . S
C299 C295 1.460 . S
C299 C298 1.477 . S
C299 H319 0.930 . S
C300 N296 1.362 . S
C300 C297 1.431 . S
C300 C310 1.476 . S
H301 C295 0.929 . S
C302 O293 1.250 . S
C302 O294 1.258 . S
O303 Mn288 2.162 . S
O303 C291 1.281 . S
O304 Mn288 2.297 . S
O304 C291 1.236 . S
N305 Mn289 2.282 . S
N305 C306 1.328 . S
N305 C310 1.318 . S
C306 N305 1.328 . S
C306 C307 1.457 . S
C306 H311 0.929 . S
C307 C306 1.457 . S
C307 C308 1.291 . S
C307 H320 0.931 . S
C308 C307 1.291 . S
C308 C309 1.373 . S
C308 H321 0.929 . S
C309 C308 1.373 . S
C309 C310 1.396 . S
C309 C316 1.403 . S
C310 C300 1.476 . S
C310 N305 1.318 . S
C310 C309 1.396 . S
H311 C306 0.929 . S
O312 Mn288 2.385 . S
O312 C290 1.234 . S
O313 Mn288 2.209 . S
O313 Mn289 2.215 . S
O313 C290 1.283 . S
O314 Mn288 2.094 . S
O314 C292 1.240 . S
O315 Mn289 2.117 . S
O315 C292 1.264 . S
C316 C309 1.403 . S
C316 C317 1.399 . S
C316 H322 0.929 . S
C317 C297 1.449 . S
C317 C316 1.399 . S
C317 H323 0.930 . S
H318 C298 0.931 . S
H319 C299 0.930 . S
H320 C307 0.931 . S
H321 C308 0.929 . S
H322 C316 0.929 . S
H323 C317 0.930 . S
Mn324 O329 2.095 . S
Mn324 O339 2.162 . S
Mn324 O340 2.297 . S
Mn324 O348 2.385 . S
Mn324 O349 2.209 . S
Mn324 O350 2.094 . S
Mn325 O330 2.121 . S
Mn325 N332 2.257 . S
Mn325 N341 2.282 . S
Mn325 O349 2.215 . S
Mn325 O351 2.117 . S
C326 O348 1.234 . S
C326 O349 1.283 . S
C327 O339 1.281 . S
C327 O340 1.236 . S
C328 O350 1.240 . S
C328 O351 1.264 . S
O329 Mn324 2.095 . S
O329 C338 1.250 . S
O330 Mn325 2.121 . S
O330 C338 1.258 . S
C331 N332 1.326 . S
C331 C335 1.460 . S
C331 H337 0.929 . S
N332 Mn325 2.257 . S
N332 C331 1.326 . S
N332 C336 1.362 . S
C333 C334 1.258 . S
C333 C336 1.431 . S
C333 C353 1.449 . S
C334 C333 1.258 . S
C334 C335 1.477 . S
C334 H354 0.931 . S
C335 C331 1.460 . S
C335 C334 1.477 . S
C335 H355 0.930 . S
C336 N332 1.362 . S
C336 C333 1.431 . S
C336 C346 1.476 . S
H337 C331 0.929 . S
C338 O329 1.250 . S
C338 O330 1.258 . S
O339 Mn324 2.162 . S
O339 C327 1.281 . S
O340 Mn324 2.297 . S
O340 C327 1.236 . S
N341 Mn325 2.282 . S
N341 C342 1.328 . S
N341 C346 1.318 . S
C342 N341 1.328 . S
C342 C343 1.457 . S
C342 H347 0.929 . S
C343 C342 1.457 . S
C343 C344 1.291 . S
C343 H356 0.931 . S
C344 C343 1.291 . S
C344 C345 1.373 . S
C344 H357 0.929 . S
C345 C344 1.373 . S
C345 C346 1.396 . S
C345 C352 1.403 . S
C346 C336 1.476 . S
C346 N341 1.318 . S
C346 C345 1.396 . S
H347 C342 0.929 . S
O348 Mn324 2.385 . S
O348 C326 1.234 . S
O349 Mn324 2.209 . S
O349 Mn325 2.215 . S
O349 C326 1.283 . S
O350 Mn324 2.094 . S
O350 C328 1.240 . S
O351 Mn325 2.117 . S
O351 C328 1.264 . S
C352 C345 1.403 . S
C352 C353 1.399 . S
C352 H358 0.929 . S
C353 C333 1.449 . S
C353 C352 1.399 . S
C353 H359 0.930 . S
H354 C334 0.931 . S
H355 C335 0.930 . S
H356 C343 0.931 . S
H357 C344 0.929 . S
H358 C352 0.929 . S
H359 C353 0.930 . S
Mn360 O365 2.095 . S
Mn360 O375 2.162 . S
Mn360 O376 2.297 . S
Mn360 O384 2.385 . S
Mn360 O385 2.209 . S
Mn360 O386 2.094 . S
Mn361 O366 2.121 . S
Mn361 N368 2.257 . S
Mn361 N377 2.282 . S
Mn361 O385 2.215 . S
Mn361 O387 2.117 . S
C362 O384 1.234 . S
C362 O385 1.283 . S
C363 O375 1.281 . S
C363 O376 1.236 . S
C364 O386 1.240 . S
C364 O387 1.264 . S
O365 Mn360 2.095 . S
O365 C374 1.250 . S
O366 Mn361 2.121 . S
O366 C374 1.258 . S
C367 N368 1.326 . S
C367 C371 1.460 . S
C367 H373 0.929 . S
N368 Mn361 2.257 . S
N368 C367 1.326 . S
N368 C372 1.362 . S
C369 C370 1.258 . S
C369 C372 1.431 . S
C369 C389 1.449 . S
C370 C369 1.258 . S
C370 C371 1.477 . S
C370 H390 0.931 . S
C371 C367 1.460 . S
C371 C370 1.477 . S
C371 H391 0.930 . S
C372 N368 1.362 . S
C372 C369 1.431 . S
C372 C382 1.476 . S
H373 C367 0.929 . S
C374 O365 1.250 . S
C374 O366 1.258 . S
O375 Mn360 2.162 . S
O375 C363 1.281 . S
O376 Mn360 2.297 . S
O376 C363 1.236 . S
N377 Mn361 2.282 . S
N377 C378 1.328 . S
N377 C382 1.318 . S
C378 N377 1.328 . S
C378 C379 1.457 . S
C378 H383 0.929 . S
C379 C378 1.457 . S
C379 C380 1.291 . S
C379 H392 0.931 . S
C380 C379 1.291 . S
C380 C381 1.373 . S
C380 H393 0.929 . S
C381 C380 1.373 . S
C381 C382 1.396 . S
C381 C388 1.403 . S
C382 C372 1.476 . S
C382 N377 1.318 . S
C382 C381 1.396 . S
H383 C378 0.929 . S
O384 Mn360 2.385 . S
O384 C362 1.234 . S
O385 Mn360 2.209 . S
O385 Mn361 2.215 . S
O385 C362 1.283 . S
O386 Mn360 2.094 . S
O386 C364 1.240 . S
O387 Mn361 2.117 . S
O387 C364 1.264 . S
C388 C381 1.403 . S
C388 C389 1.399 . S
C388 H394 0.929 . S
C389 C369 1.449 . S
C389 C388 1.399 . S
C389 H395 0.930 . S
H390 C370 0.931 . S
H391 C371 0.930 . S
H392 C379 0.931 . S
H393 C380 0.929 . S
H394 C388 0.929 . S
H395 C389 0.930 . S
Mn396 O401 2.095 . S
Mn396 O411 2.162 . S
Mn396 O412 2.297 . S
Mn396 O420 2.385 . S
Mn396 O421 2.209 . S
Mn396 O422 2.094 . S
Mn397 O402 2.121 . S
Mn397 N404 2.257 . S
Mn397 N413 2.282 . S
Mn397 O421 2.215 . S
Mn397 O423 2.117 . S
C398 O420 1.234 . S
C398 O421 1.283 . S
C399 O411 1.281 . S
C399 O412 1.236 . S
C400 O422 1.240 . S
C400 O423 1.264 . S
O401 Mn396 2.095 . S
O401 C410 1.250 . S
O402 Mn397 2.121 . S
O402 C410 1.258 . S
C403 N404 1.326 . S
C403 C407 1.460 . S
C403 H409 0.929 . S
N404 Mn397 2.257 . S
N404 C403 1.326 . S
N404 C408 1.362 . S
C405 C406 1.258 . S
C405 C408 1.431 . S
C405 C425 1.449 . S
C406 C405 1.258 . S
C406 C407 1.477 . S
C406 H426 0.931 . S
C407 C403 1.460 . S
C407 C406 1.477 . S
C407 H427 0.930 . S
C408 N404 1.362 . S
C408 C405 1.431 . S
C408 C418 1.476 . S
H409 C403 0.929 . S
C410 O401 1.250 . S
C410 O402 1.258 . S
O411 Mn396 2.162 . S
O411 C399 1.281 . S
O412 Mn396 2.297 . S
O412 C399 1.236 . S
N413 Mn397 2.282 . S
N413 C414 1.328 . S
N413 C418 1.318 . S
C414 N413 1.328 . S
C414 C415 1.457 . S
C414 H419 0.929 . S
C415 C414 1.457 . S
C415 C416 1.291 . S
C415 H428 0.931 . S
C416 C415 1.291 . S
C416 C417 1.373 . S
C416 H429 0.929 . S
C417 C416 1.373 . S
C417 C418 1.396 . S
C417 C424 1.403 . S
C418 C408 1.476 . S
C418 N413 1.318 . S
C418 C417 1.396 . S
H419 C414 0.929 . S
O420 Mn396 2.385 . S
O420 C398 1.234 . S
O421 Mn396 2.209 . S
O421 Mn397 2.215 . S
O421 C398 1.283 . S
O422 Mn396 2.094 . S
O422 C400 1.240 . S
O423 Mn397 2.117 . S
O423 C400 1.264 . S
C424 C417 1.403 . S
C424 C425 1.399 . S
C424 H430 0.929 . S
C425 C405 1.449 . S
C425 C424 1.399 . S
C425 H431 0.930 . S
H426 C406 0.931 . S
H427 C407 0.930 . S
H428 C415 0.931 . S
H429 C416 0.929 . S
H430 C424 0.929 . S
H431 C425 0.930 . S
Mn432 O437 2.095 . S
Mn432 O447 2.162 . S
Mn432 O448 2.297 . S
Mn432 O456 2.385 . S
Mn432 O457 2.209 . S
Mn432 O458 2.094 . S
Mn433 O438 2.121 . S
Mn433 N440 2.257 . S
Mn433 N449 2.282 . S
Mn433 O457 2.215 . S
Mn433 O459 2.117 . S
C434 O456 1.234 . S
C434 O457 1.283 . S
C435 O447 1.281 . S
C435 O448 1.236 . S
C436 O458 1.240 . S
C436 O459 1.264 . S
O437 Mn432 2.095 . S
O437 C446 1.250 . S
O438 Mn433 2.121 . S
O438 C446 1.258 . S
C439 N440 1.326 . S
C439 C443 1.460 . S
C439 H445 0.929 . S
N440 Mn433 2.257 . S
N440 C439 1.326 . S
N440 C444 1.362 . S
C441 C442 1.258 . S
C441 C444 1.431 . S
C441 C461 1.449 . S
C442 C441 1.258 . S
C442 C443 1.477 . S
C442 H462 0.931 . S
C443 C439 1.460 . S
C443 C442 1.477 . S
C443 H463 0.930 . S
C444 N440 1.362 . S
C444 C441 1.431 . S
C444 C454 1.476 . S
H445 C439 0.929 . S
C446 O437 1.250 . S
C446 O438 1.258 . S
O447 Mn432 2.162 . S
O447 C435 1.281 . S
O448 Mn432 2.297 . S
O448 C435 1.236 . S
N449 Mn433 2.282 . S
N449 C450 1.328 . S
N449 C454 1.318 . S
C450 N449 1.328 . S
C450 C451 1.457 . S
C450 H455 0.929 . S
C451 C450 1.457 . S
C451 C452 1.291 . S
C451 H464 0.931 . S
C452 C451 1.291 . S
C452 C453 1.373 . S
C452 H465 0.929 . S
C453 C452 1.373 . S
C453 C454 1.396 . S
C453 C460 1.403 . S
C454 C444 1.476 . S
C454 N449 1.318 . S
C454 C453 1.396 . S
H455 C450 0.929 . S
O456 Mn432 2.385 . S
O456 C434 1.234 . S
O457 Mn432 2.209 . S
O457 Mn433 2.215 . S
O457 C434 1.283 . S
O458 Mn432 2.094 . S
O458 C436 1.240 . S
O459 Mn433 2.117 . S
O459 C436 1.264 . S
C460 C453 1.403 . S
C460 C461 1.399 . S
C460 H466 0.929 . S
C461 C441 1.449 . S
C461 C460 1.399 . S
C461 H467 0.930 . S
H462 C442 0.931 . S
H463 C443 0.930 . S
H464 C451 0.931 . S
H465 C452 0.929 . S
H466 C460 0.929 . S
H467 C461 0.930 . S
Mn468 O473 2.095 . S
Mn468 O483 2.162 . S
Mn468 O484 2.297 . S
Mn468 O492 2.385 . S
Mn468 O493 2.209 . S
Mn468 O494 2.094 . S
Mn469 O474 2.121 . S
Mn469 N476 2.257 . S
Mn469 N485 2.282 . S
Mn469 O493 2.215 . S
Mn469 O495 2.117 . S
C470 O492 1.234 . S
C470 O493 1.283 . S
C471 O483 1.281 . S
C471 O484 1.236 . S
C472 O494 1.240 . S
C472 O495 1.264 . S
O473 Mn468 2.095 . S
O473 C482 1.250 . S
O474 Mn469 2.121 . S
O474 C482 1.258 . S
C475 N476 1.326 . S
C475 C479 1.460 . S
C475 H481 0.929 . S
N476 Mn469 2.257 . S
N476 C475 1.326 . S
N476 C480 1.362 . S
C477 C478 1.258 . S
C477 C480 1.431 . S
C477 C497 1.449 . S
C478 C477 1.258 . S
C478 C479 1.477 . S
C478 H498 0.931 . S
C479 C475 1.460 . S
C479 C478 1.477 . S
C479 H499 0.930 . S
C480 N476 1.362 . S
C480 C477 1.431 . S
C480 C490 1.476 . S
H481 C475 0.929 . S
C482 O473 1.250 . S
C482 O474 1.258 . S
O483 Mn468 2.162 . S
O483 C471 1.281 . S
O484 Mn468 2.297 . S
O484 C471 1.236 . S
N485 Mn469 2.282 . S
N485 C486 1.328 . S
N485 C490 1.318 . S
C486 N485 1.328 . S
C486 C487 1.457 . S
C486 H491 0.929 . S
C487 C486 1.457 . S
C487 C488 1.291 . S
C487 H500 0.931 . S
C488 C487 1.291 . S
C488 C489 1.373 . S
C488 H501 0.929 . S
C489 C488 1.373 . S
C489 C490 1.396 . S
C489 C496 1.403 . S
C490 C480 1.476 . S
C490 N485 1.318 . S
C490 C489 1.396 . S
H491 C486 0.929 . S
O492 Mn468 2.385 . S
O492 C470 1.234 . S
O493 Mn468 2.209 . S
O493 Mn469 2.215 . S
O493 C470 1.283 . S
O494 Mn468 2.094 . S
O494 C472 1.240 . S
O495 Mn469 2.117 . S
O495 C472 1.264 . S
C496 C489 1.403 . S
C496 C497 1.399 . S
C496 H502 0.929 . S
C497 C477 1.449 . S
C497 C496 1.399 . S
C497 H503 0.930 . S
H498 C478 0.931 . S
H499 C479 0.930 . S
H500 C487 0.931 . S
H501 C488 0.929 . S
H502 C496 0.929 . S
H503 C497 0.930 . S
Mn504 O509 2.095 . S
Mn504 O519 2.162 . S
Mn504 O520 2.297 . S
Mn504 O528 2.385 . S
Mn504 O529 2.209 . S
Mn504 O530 2.094 . S
Mn505 O510 2.121 . S
Mn505 N512 2.257 . S
Mn505 N521 2.282 . S
Mn505 O529 2.215 . S
Mn505 O531 2.117 . S
C506 O528 1.234 . S
C506 O529 1.283 . S
C507 O519 1.281 . S
C507 O520 1.236 . S
C508 O530 1.240 . S
C508 O531 1.264 . S
O509 Mn504 2.095 . S
O509 C518 1.250 . S
O510 Mn505 2.121 . S
O510 C518 1.258 . S
C511 N512 1.326 . S
C511 C515 1.460 . S
C511 H517 0.929 . S
N512 Mn505 2.257 . S
N512 C511 1.326 . S
N512 C516 1.362 . S
C513 C514 1.258 . S
C513 C516 1.431 . S
C513 C533 1.449 . S
C514 C513 1.258 . S
C514 C515 1.477 . S
C514 H534 0.931 . S
C515 C511 1.460 . S
C515 C514 1.477 . S
C515 H535 0.930 . S
C516 N512 1.362 . S
C516 C513 1.431 . S
C516 C526 1.476 . S
H517 C511 0.929 . S
C518 O509 1.250 . S
C518 O510 1.258 . S
O519 Mn504 2.162 . S
O519 C507 1.281 . S
O520 Mn504 2.297 . S
O520 C507 1.236 . S
N521 Mn505 2.282 . S
N521 C522 1.328 . S
N521 C526 1.318 . S
C522 N521 1.328 . S
C522 C523 1.457 . S
C522 H527 0.929 . S
C523 C522 1.457 . S
C523 C524 1.291 . S
C523 H536 0.931 . S
C524 C523 1.291 . S
C524 C525 1.373 . S
C524 H537 0.929 . S
C525 C524 1.373 . S
C525 C526 1.396 . S
C525 C532 1.403 . S
C526 C516 1.476 . S
C526 N521 1.318 . S
C526 C525 1.396 . S
H527 C522 0.929 . S
O528 Mn504 2.385 . S
O528 C506 1.234 . S
O529 Mn504 2.209 . S
O529 Mn505 2.215 . S
O529 C506 1.283 . S
O530 Mn504 2.094 . S
O530 C508 1.240 . S
O531 Mn505 2.117 . S
O531 C508 1.264 . S
C532 C525 1.403 . S
C532 C533 1.399 . S
C532 H538 0.929 . S
C533 C513 1.449 . S
C533 C532 1.399 . S
C533 H539 0.930 . S
H534 C514 0.931 . S
H535 C515 0.930 . S
H536 C523 0.931 . S
H537 C524 0.929 . S
H538 C532 0.929 . S
H539 C533 0.930 . S
Mn540 O545 2.095 . S
Mn540 O555 2.162 . S
Mn540 O556 2.297 . S
Mn540 O564 2.385 . S
Mn540 O565 2.209 . S
Mn540 O566 2.094 . S
Mn541 O546 2.121 . S
Mn541 N548 2.257 . S
Mn541 N557 2.282 . S
Mn541 O565 2.215 . S
Mn541 O567 2.117 . S
C542 O564 1.234 . S
C542 O565 1.283 . S
C543 O555 1.281 . S
C543 O556 1.236 . S
C544 O566 1.240 . S
C544 O567 1.264 . S
O545 Mn540 2.095 . S
O545 C554 1.250 . S
O546 Mn541 2.121 . S
O546 C554 1.258 . S
C547 N548 1.326 . S
C547 C551 1.460 . S
C547 H553 0.929 . S
N548 Mn541 2.257 . S
N548 C547 1.326 . S
N548 C552 1.362 . S
C549 C550 1.258 . S
C549 C552 1.431 . S
C549 C569 1.449 . S
C550 C549 1.258 . S
C550 C551 1.477 . S
C550 H570 0.931 . S
C551 C547 1.460 . S
C551 C550 1.477 . S
C551 H571 0.930 . S
C552 N548 1.362 . S
C552 C549 1.431 . S
C552 C562 1.476 . S
H553 C547 0.929 . S
C554 O545 1.250 . S
C554 O546 1.258 . S
O555 Mn540 2.162 . S
O555 C543 1.281 . S
O556 Mn540 2.297 . S
O556 C543 1.236 . S
N557 Mn541 2.282 . S
N557 C558 1.328 . S
N557 C562 1.318 . S
C558 N557 1.328 . S
C558 C559 1.457 . S
C558 H563 0.929 . S
C559 C558 1.457 . S
C559 C560 1.291 . S
C559 H572 0.931 . S
C560 C559 1.291 . S
C560 C561 1.373 . S
C560 H573 0.929 . S
C561 C560 1.373 . S
C561 C562 1.396 . S
C561 C568 1.403 . S
C562 C552 1.476 . S
C562 N557 1.318 . S
C562 C561 1.396 . S
H563 C558 0.929 . S
O564 Mn540 2.385 . S
O564 C542 1.234 . S
O565 Mn540 2.209 . S
O565 Mn541 2.215 . S
O565 C542 1.283 . S
O566 Mn540 2.094 . S
O566 C544 1.240 . S
O567 Mn541 2.117 . S
O567 C544 1.264 . S
C568 C561 1.403 . S
C568 C569 1.399 . S
C568 H574 0.929 . S
C569 C549 1.449 . S
C569 C568 1.399 . S
C569 H575 0.930 . S
H570 C550 0.931 . S
H571 C551 0.930 . S
H572 C559 0.931 . S
H573 C560 0.929 . S
H574 C568 0.929 . S
H575 C569 0.930 . S
C576 C577 1.391 . S
C576 C578 1.394 . S
C576 H592 0.931 . S
C577 C576 1.391 . S
C577 C581 1.376 . S
C578 C576 1.394 . S
C578 C579 1.369 . S
C578 C582 1.531 . S
C579 C578 1.369 . S
C579 C580 1.410 . S
C579 C587 1.516 . S
C580 C579 1.410 . S
C580 C581 1.392 . S
C580 C583 1.511 1_554 S
C581 C577 1.376 . S
C581 C580 1.392 . S
C581 H593 0.929 . S
C582 C578 1.531 . S
C582 H594 0.960 . S
C582 H595 0.962 . S
C582 H596 0.960 . S
C583 C580 1.511 1_556 S
C583 H597 0.961 . S
C583 H598 0.961 . S
C583 H599 0.961 . S
C584 C585 1.370 . S
C584 C586 1.363 . S
C584 H600 0.931 . S
C585 C584 1.370 . S
C585 C589 1.408 . S
C586 C584 1.363 . S
C586 C587 1.353 1_556 S
C586 C590 1.524 . S
C587 C579 1.516 . S
C587 C586 1.353 1_554 S
C587 C588 1.408 . S
C588 C587 1.408 . S
C588 C589 1.404 1_554 S
C588 C591 1.539 . S
C589 C585 1.408 . S
C589 C588 1.404 1_556 S
C589 H601 0.930 . S
C590 C586 1.524 . S
C590 H602 0.956 . S
C590 H603 0.961 . S
C590 H604 0.961 . S
C591 C588 1.539 . S
C591 H605 0.958 . S
C591 H606 0.961 . S
C591 H607 0.960 . S
H592 C576 0.931 . S
H593 C581 0.929 . S
H594 C582 0.960 . S
H595 C582 0.962 . S
H596 C582 0.960 . S
H597 C583 0.961 . S
H598 C583 0.961 . S
H599 C583 0.961 . S
H600 C584 0.931 . S
H601 C589 0.930 . S
H602 C590 0.956 . S
H603 C590 0.961 . S
H604 C590 0.961 . S
H605 C591 0.958 . S
H606 C591 0.961 . S
H607 C591 0.960 . S
C608 C609 1.391 . S
C608 C610 1.394 . S
C608 H624 0.931 . S
C609 C608 1.391 . S
C609 C613 1.376 . S
C610 C608 1.394 . S
C610 C611 1.369 . S
C610 C614 1.531 . S
C611 C610 1.369 . S
C611 C612 1.410 . S
C611 C619 1.503 . S
C612 C611 1.410 . S
C612 C613 1.392 . S
C612 C615 1.511 . S
C613 C609 1.376 . S
C613 C612 1.392 . S
C613 H625 0.929 . S
C614 C610 1.531 . S
C614 H626 0.960 . S
C614 H627 0.962 . S
C614 H628 0.960 . S
C615 C612 1.511 . S
C615 H629 0.961 . S
C615 H630 0.961 . S
C615 H631 0.961 . S
C616 C617 1.370 . S
C616 C618 1.363 . S
C616 H632 0.931 . S
C617 C616 1.370 . S
C617 C621 1.408 . S
C618 C616 1.363 . S
C618 C619 1.370 . S
C618 C622 1.524 . S
C619 C611 1.503 . S
C619 C618 1.370 . S
C619 C620 1.403 . S
C620 C619 1.403 . S
C620 C621 1.404 . S
C620 C623 1.539 . S
C621 C617 1.408 . S
C621 C620 1.404 . S
C621 H633 0.930 . S
C622 C618 1.524 . S
C622 H634 0.956 . S
C622 H635 0.961 . S
C622 H636 0.961 . S
C623 C620 1.539 . S
C623 H637 0.958 . S
C623 H638 0.961 . S
C623 H639 0.960 . S
H624 C608 0.931 . S
H625 C613 0.929 . S
H626 C614 0.960 . S
H627 C614 0.962 . S
H628 C614 0.960 . S
H629 C615 0.961 . S
H630 C615 0.961 . S
H631 C615 0.961 . S
H632 C616 0.931 . S
H633 C621 0.930 . S
H634 C622 0.956 . S
H635 C622 0.961 . S
H636 C622 0.961 . S
H637 C623 0.958 . S
H638 C623 0.961 . S
H639 C623 0.960 . S
C640 C641 1.391 . S
C640 C642 1.394 . S
C640 H656 0.931 . S
C641 C640 1.391 . S
C641 C645 1.376 . S
C642 C640 1.394 . S
C642 C643 1.369 . S
C642 C646 1.531 . S
C643 C642 1.369 . S
C643 C644 1.406 1_556 S
C643 C651 1.503 1_556 S
C644 C643 1.406 1_554 S
C644 C645 1.388 1_554 S
C644 C647 1.519 . S
C645 C641 1.376 . S
C645 C644 1.388 1_556 S
C645 H657 0.929 . S
C646 C642 1.531 . S
C646 H658 0.960 . S
C646 H659 0.962 . S
C646 H660 0.960 . S
C647 C644 1.519 . S
C647 H661 0.961 . S
C647 H662 0.961 . S
C647 H663 0.961 . S
C648 C649 1.370 . S
C648 C650 1.363 . S
C648 H664 0.931 . S
C649 C648 1.370 . S
C649 C653 1.408 . S
C650 C648 1.363 . S
C650 C651 1.370 . S
C650 C654 1.524 . S
C651 C643 1.503 1_554 S
C651 C650 1.370 . S
C651 C652 1.403 . S
C652 C651 1.403 . S
C652 C653 1.404 . S
C652 C655 1.539 1_554 S
C653 C649 1.408 . S
C653 C652 1.404 . S
C653 H665 0.930 . S
C654 C650 1.524 . S
C654 H666 0.956 1_554 S
C654 H667 0.961 . S
C654 H668 0.961 . S
C655 C652 1.539 1_556 S
C655 H669 0.958 . S
C655 H670 0.961 1_556 S
C655 H671 0.960 . S
H656 C640 0.931 . S
H657 C645 0.929 . S
H658 C646 0.960 . S
H659 C646 0.962 . S
H660 C646 0.960 . S
H661 C647 0.961 . S
H662 C647 0.961 . S
H663 C647 0.961 . S
H664 C648 0.931 . S
H665 C653 0.930 . S
H666 C654 0.956 1_556 S
H667 C654 0.961 . S
H668 C654 0.961 . S
H669 C655 0.958 . S
H670 C655 0.961 1_554 S
H671 C655 0.960 . S
C672 C673 1.391 . S
C672 C674 1.394 . S
C672 H688 0.931 . S
C673 C672 1.391 . S
C673 C677 1.376 . S
C674 C672 1.394 . S
C674 C675 1.369 . S
C674 C678 1.531 . S
C675 C674 1.369 . S
C675 C676 1.410 . S
C675 C683 1.503 . S
C676 C675 1.410 . S
C676 C677 1.392 . S
C676 C679 1.511 . S
C677 C673 1.376 . S
C677 C676 1.392 . S
C677 H689 0.929 . S
C678 C674 1.531 . S
C678 H690 0.960 . S
C678 H691 0.962 . S
C678 H692 0.960 . S
C679 C676 1.511 . S
C679 H693 0.961 . S
C679 H694 0.961 . S
C679 H695 0.961 . S
C680 C681 1.370 . S
C680 C682 1.363 . S
C680 H696 0.931 . S
C681 C680 1.370 . S
C681 C685 1.408 . S
C682 C680 1.363 . S
C682 C683 1.370 . S
C682 C686 1.524 . S
C683 C675 1.503 . S
C683 C682 1.370 . S
C683 C684 1.403 . S
C684 C683 1.403 . S
C684 C685 1.404 . S
C684 C687 1.539 . S
C685 C681 1.408 . S
C685 C684 1.404 . S
C685 H697 0.930 . S
C686 C682 1.524 . S
C686 H698 0.956 . S
C686 H699 0.961 . S
C686 H700 0.961 . S
C687 C684 1.539 . S
C687 H701 0.958 . S
C687 H702 0.961 . S
C687 H703 0.960 . S
H688 C672 0.931 . S
H689 C677 0.929 . S
H690 C678 0.960 . S
H691 C678 0.962 . S
H692 C678 0.960 . S
H693 C679 0.961 . S
H694 C679 0.961 . S
H695 C679 0.961 . S
H696 C680 0.931 . S
H697 C685 0.930 . S
H698 C686 0.956 . S
H699 C686 0.961 . S
H700 C686 0.961 . S
H701 C687 0.958 . S
H702 C687 0.961 . S
H703 C687 0.960 . S
C704 C705 1.391 . S
C704 C706 1.394 . S
C704 H720 0.931 . S
C705 C704 1.391 . S
C705 C709 1.376 . S
C706 C704 1.394 . S
C706 C707 1.369 . S
C706 C710 1.531 . S
C707 C706 1.369 . S
C707 C708 1.410 . S
C707 C715 1.503 . S
C708 C707 1.410 . S
C708 C709 1.392 . S
C708 C711 1.511 . S
C709 C705 1.376 . S
C709 C708 1.392 . S
C709 H721 0.929 . S
C710 C706 1.531 . S
C710 H722 0.960 . S
C710 H723 0.962 1_554 S
C710 H724 0.960 . S
C711 C708 1.511 . S
C711 H725 0.961 . S
C711 H726 0.961 . S
C711 H727 0.961 . S
C712 C713 1.370 . S
C712 C714 1.363 . S
C712 H728 0.931 . S
C713 C712 1.370 . S
C713 C717 1.408 . S
C714 C712 1.363 . S
C714 C715 1.370 1_556 S
C714 C718 1.524 . S
C715 C707 1.503 . S
C715 C714 1.370 1_554 S
C715 C716 1.403 . S
C716 C715 1.403 . S
C716 C717 1.404 1_554 S
C716 C719 1.539 . S
C717 C713 1.408 . S
C717 C716 1.404 1_556 S
C717 H729 0.930 1_556 S
C718 C714 1.524 . S
C718 H730 0.956 . S
C718 H731 0.961 . S
C718 H732 0.961 . S
C719 C716 1.539 . S
C719 H733 0.958 . S
C719 H734 0.961 . S
C719 H735 0.960 . S
H720 C704 0.931 . S
H721 C709 0.929 . S
H722 C710 0.960 . S
H723 C710 0.962 1_556 S
H724 C710 0.960 . S
H725 C711 0.961 . S
H726 C711 0.961 . S
H727 C711 0.961 . S
H728 C712 0.931 . S
H729 C717 0.930 1_554 S
H730 C718 0.956 . S
H731 C718 0.961 . S
H732 C718 0.961 . S
H733 C719 0.958 . S
H734 C719 0.961 . S
H735 C719 0.960 . S
C736 C737 1.391 . S
C736 C738 1.394 . S
C736 H752 0.931 . S
C737 C736 1.391 . S
C737 C741 1.376 . S
C738 C736 1.394 . S
C738 C739 1.369 . S
C738 C742 1.531 . S
C739 C738 1.369 . S
C739 C740 1.410 . S
C739 C747 1.503 . S
C740 C739 1.410 . S
C740 C741 1.392 . S
C740 C743 1.511 . S
C741 C737 1.376 . S
C741 C740 1.392 . S
C741 H753 0.929 . S
C742 C738 1.531 . S
C742 H754 0.960 . S
C742 H755 0.962 . S
C742 H756 0.960 . S
C743 C740 1.511 . S
C743 H757 0.961 . S
C743 H758 0.961 . S
C743 H759 0.961 . S
C744 C745 1.370 . S
C744 C746 1.363 . S
C744 H760 0.931 . S
C745 C744 1.370 . S
C745 C749 1.408 . S
C746 C744 1.363 . S
C746 C747 1.370 . S
C746 C750 1.524 . S
C747 C739 1.503 . S
C747 C746 1.370 . S
C747 C748 1.403 . S
C748 C747 1.403 . S
C748 C749 1.404 . S
C748 C751 1.539 . S
C749 C745 1.408 . S
C749 C748 1.404 . S
C749 H761 0.930 . S
C750 C746 1.524 . S
C750 H762 0.956 . S
C750 H763 0.961 . S
C750 H764 0.961 . S
C751 C748 1.539 . S
C751 H765 0.958 . S
C751 H766 0.961 . S
C751 H767 0.960 . S
H752 C736 0.931 . S
H753 C741 0.929 . S
H754 C742 0.960 . S
H755 C742 0.962 . S
H756 C742 0.960 . S
H757 C743 0.961 . S
H758 C743 0.961 . S
H759 C743 0.961 . S
H760 C744 0.931 . S
H761 C749 0.930 . S
H762 C750 0.956 . S
H763 C750 0.961 . S
H764 C750 0.961 . S
H765 C751 0.958 . S
H766 C751 0.961 . S
H767 C751 0.960 . S
C768 C769 1.391 . S
C768 C770 1.394 . S
C768 H784 0.931 . S
C769 C768 1.391 . S
C769 C773 1.376 . S
C770 C768 1.394 . S
C770 C771 1.369 . S
C770 C774 1.531 1_556 S
C771 C770 1.369 . S
C771 C772 1.410 . S
C771 C779 1.503 . S
C772 C771 1.410 . S
C772 C773 1.392 . S
C772 C775 1.511 . S
C773 C769 1.376 . S
C773 C772 1.392 . S
C773 H785 0.929 . S
C774 C770 1.531 1_554 S
C774 H786 0.960 . S
C774 H787 0.962 . S
C774 H788 0.960 1_554 S
C775 C772 1.511 . S
C775 H789 0.961 . S
C775 H790 0.961 . S
C775 H791 0.961 . S
C776 C777 1.370 . S
C776 C778 1.363 . S
C776 H792 0.931 . S
C777 C776 1.370 . S
C777 C781 1.408 . S
C778 C776 1.363 . S
C778 C779 1.370 1_554 S
C778 C782 1.524 . S
C779 C771 1.503 . S
C779 C778 1.370 1_556 S
C779 C780 1.403 . S
C780 C779 1.403 . S
C780 C781 1.404 1_556 S
C780 C783 1.539 . S
C781 C777 1.408 . S
C781 C780 1.404 1_554 S
C781 H793 0.930 1_554 S
C782 C778 1.524 . S
C782 H794 0.956 . S
C782 H795 0.961 . S
C782 H796 0.961 . S
C783 C780 1.539 . S
C783 H797 0.958 . S
C783 H798 0.961 . S
C783 H799 0.960 . S
H784 C768 0.931 . S
H785 C773 0.929 . S
H786 C774 0.960 . S
H787 C774 0.962 . S
H788 C774 0.960 1_556 S
H789 C775 0.961 . S
H790 C775 0.961 . S
H791 C775 0.961 . S
H792 C776 0.931 . S
H793 C781 0.930 1_556 S
H794 C782 0.956 . S
H795 C782 0.961 . S
H796 C782 0.961 . S
H797 C783 0.958 . S
H798 C783 0.961 . S
H799 C783 0.960 . S
C800 C801 1.391 . S
C800 C802 1.394 . S
C800 H816 0.931 . S
C801 C800 1.391 . S
C801 C805 1.376 . S
C802 C800 1.394 . S
C802 C803 1.369 . S
C802 C806 1.531 . S
C803 C802 1.369 . S
C803 C804 1.410 . S
C803 C811 1.503 . S
C804 C803 1.410 . S
C804 C805 1.392 . S
C804 C807 1.511 . S
C805 C801 1.376 . S
C805 C804 1.392 . S
C805 H817 0.929 . S
C806 C802 1.531 . S
C806 H818 0.960 . S
C806 H819 0.962 . S
C806 H820 0.960 . S
C807 C804 1.511 . S
C807 H821 0.961 . S
C807 H822 0.961 . S
C807 H823 0.961 . S
C808 C809 1.370 . S
C808 C810 1.363 . S
C808 H824 0.931 . S
C809 C808 1.370 . S
C809 C813 1.408 . S
C810 C808 1.363 . S
C810 C811 1.370 . S
C810 C814 1.524 . S
C811 C803 1.503 . S
C811 C810 1.370 . S
C811 C812 1.403 . S
C812 C811 1.403 . S
C812 C813 1.404 . S
C812 C815 1.539 . S
C813 C809 1.408 . S
C813 C812 1.404 . S
C813 H825 0.930 . S
C814 C810 1.524 . S
C814 H826 0.956 . S
C814 H827 0.961 . S
C814 H828 0.961 . S
C815 C812 1.539 . S
C815 H829 0.958 . S
C815 H830 0.961 . S
C815 H831 0.960 . S
H816 C800 0.931 . S
H817 C805 0.929 . S
H818 C806 0.960 . S
H819 C806 0.962 . S
H820 C806 0.960 . S
H821 C807 0.961 . S
H822 C807 0.961 . S
H823 C807 0.961 . S
H824 C808 0.931 . S
H825 C813 0.930 . S
H826 C814 0.956 . S
H827 C814 0.961 . S
H828 C814 0.961 . S
H829 C815 0.958 . S
H830 C815 0.961 . S
H831 C815 0.960 . S
C832 C833 1.391 . S
C832 C834 1.394 . S
C832 H848 0.931 . S
C833 C832 1.391 . S
C833 C837 1.376 . S
C834 C832 1.394 . S
C834 C835 1.369 . S
C834 C838 1.531 1_554 S
C835 C834 1.369 . S
C835 C836 1.410 . S
C835 C843 1.503 1_544 S
C836 C835 1.410 . S
C836 C837 1.392 . S
C836 C839 1.511 . S
C837 C833 1.376 . S
C837 C836 1.392 . S
C837 H849 0.929 . S
C838 C834 1.531 1_556 S
C838 H850 0.960 . S
C838 H851 0.962 . S
C838 H852 0.960 . S
C839 C836 1.511 . S
C839 H853 0.961 . S
C839 H854 0.961 1_545 S
C839 H855 0.961 . S
C840 C841 1.370 . S
C840 C842 1.382 . S
C840 H856 0.931 . S
C841 C840 1.370 . S
C841 C845 1.408 . S
C842 C840 1.382 . S
C842 C843 1.385 . S
C842 C846 1.491 1_556 S
C843 C835 1.503 1_566 S
C843 C842 1.385 . S
C843 C844 1.403 . S
C844 C843 1.403 . S
C844 C845 1.404 . S
C844 C847 1.539 1_565 S
C845 C841 1.408 . S
C845 C844 1.404 . S
C845 H857 0.930 . S
C846 C842 1.491 1_554 S
C846 H858 0.956 . S
C846 H859 0.961 . S
C846 H860 0.961 . S
C847 C844 1.539 1_545 S
C847 H861 0.958 . S
C847 H862 0.961 . S
C847 H863 0.960 . S
H848 C832 0.931 . S
H849 C837 0.929 . S
H850 C838 0.960 . S
H851 C838 0.962 . S
H852 C838 0.960 . S
H853 C839 0.961 . S
H854 C839 0.961 1_565 S
H855 C839 0.961 . S
H856 C840 0.931 . S
H857 C845 0.930 . S
H858 C846 0.956 . S
H859 C846 0.961 . S
H860 C846 0.961 . S
H861 C847 0.958 . S
H862 C847 0.961 . S
H863 C847 0.960 . S
C864 C865 1.391 . S
C864 C866 1.394 . S
C864 H880 0.931 . S
C865 C864 1.391 . S
C865 C869 1.376 . S
C866 C864 1.394 . S
C866 C867 1.369 . S
C866 C870 1.531 1_565 S
C867 C866 1.369 . S
C867 C868 1.410 . S
C867 C875 1.503 1_565 S
C868 C867 1.410 . S
C868 C869 1.392 . S
C868 C871 1.511 . S
C869 C865 1.376 . S
C869 C868 1.392 . S
C869 H881 0.929 . S
C870 C866 1.531 1_545 S
C870 H882 0.960 . S
C870 H883 0.962 . S
C870 H884 0.960 . S
C871 C868 1.511 . S
C871 H885 0.961 . S
C871 H886 0.961 . S
C871 H887 0.961 . S
C872 C873 1.370 . S
C872 C874 1.363 . S
C872 H888 0.931 . S
C873 C872 1.370 . S
C873 C877 1.408 . S
C874 C872 1.363 . S
C874 C875 1.370 . S
C874 C878 1.524 1_545 S
C875 C867 1.503 1_545 S
C875 C874 1.370 . S
C875 C876 1.403 . S
C876 C875 1.403 . S
C876 C877 1.404 . S
C876 C879 1.539 . S
C877 C873 1.408 . S
C877 C876 1.404 . S
C877 H889 0.930 . S
C878 C874 1.524 1_565 S
C878 H890 0.956 . S
C878 H891 0.961 . S
C878 H892 0.961 . S
C879 C876 1.539 . S
C879 H893 0.958 . S
C879 H894 0.961 . S
C879 H895 0.960 . S
H880 C864 0.931 . S
H881 C869 0.929 . S
H882 C870 0.960 . S
H883 C870 0.962 . S
H884 C870 0.960 . S
H885 C871 0.961 . S
H886 C871 0.961 . S
H887 C871 0.961 . S
H888 C872 0.931 . S
H889 C877 0.930 . S
H890 C878 0.956 . S
H891 C878 0.961 . S
H892 C878 0.961 . S
H893 C879 0.958 . S
H894 C879 0.961 . S
H895 C879 0.960 . S
C896 C897 1.391 . S
C896 C898 1.394 . S
C896 H912 0.931 . S
C897 C896 1.391 . S
C897 C901 1.376 . S
C898 C896 1.394 . S
C898 C899 1.369 . S
C898 C902 1.531 . S
C899 C898 1.369 . S
C899 C900 1.410 . S
C899 C907 1.503 1_566 S
C900 C899 1.410 . S
C900 C901 1.392 . S
C900 C903 1.511 1_556 S
C901 C897 1.376 . S
C901 C900 1.392 . S
C901 H913 0.929 . S
C902 C898 1.531 . S
C902 H914 0.960 1_565 S
C902 H915 0.962 . S
C902 H916 0.960 . S
C903 C900 1.511 1_554 S
C903 H917 0.961 . S
C903 H918 0.961 . S
C903 H919 0.961 . S
C904 C905 1.370 . S
C904 C906 1.363 . S
C904 H920 0.931 . S
C905 C904 1.370 . S
C905 C909 1.408 1_554 S
C906 C904 1.363 . S
C906 C907 1.370 . S
C906 C910 1.524 1_545 S
C907 C899 1.503 1_544 S
C907 C906 1.370 . S
C907 C908 1.403 1_554 S
C908 C907 1.403 1_556 S
C908 C909 1.404 . S
C908 C911 1.539 . S
C909 C905 1.408 1_556 S
C909 C908 1.404 . S
C909 H921 0.930 . S
C910 C906 1.524 1_565 S
C910 H922 0.956 . S
C910 H923 0.961 . S
C910 H924 0.961 1_565 S
C911 C908 1.539 . S
C911 H925 0.958 . S
C911 H926 0.961 . S
C911 H927 0.960 . S
H912 C896 0.931 . S
H913 C901 0.929 . S
H914 C902 0.960 1_545 S
H915 C902 0.962 . S
H916 C902 0.960 . S
H917 C903 0.961 . S
H918 C903 0.961 . S
H919 C903 0.961 . S
H920 C904 0.931 . S
H921 C909 0.930 . S
H922 C910 0.956 . S
H923 C910 0.961 . S
H924 C910 0.961 1_545 S
H925 C911 0.958 . S
H926 C911 0.961 . S
H927 C911 0.960 . S
C928 C929 1.391 . S
C928 C930 1.394 . S
C928 H944 0.931 . S
C929 C928 1.391 . S
C929 C933 1.376 . S
C930 C928 1.394 . S
C930 C931 1.369 . S
C930 C934 1.531 . S
C931 C930 1.369 . S
C931 C932 1.410 . S
C931 C939 1.503 1_545 S
C932 C931 1.410 . S
C932 C933 1.392 . S
C932 C935 1.511 . S
C933 C929 1.376 . S
C933 C932 1.392 . S
C933 H945 0.929 . S
C934 C930 1.531 . S
C934 H946 0.960 . S
C934 H947 0.962 . S
C934 H948 0.960 . S
C935 C932 1.511 . S
C935 H949 0.961 . S
C935 H950 0.961 1_545 S
C935 H951 0.961 . S
C936 C937 1.370 . S
C936 C938 1.363 . S
C936 H952 0.931 . S
C937 C936 1.370 . S
C937 C941 1.408 . S
C938 C936 1.363 . S
C938 C939 1.370 . S
C938 C942 1.524 . S
C939 C931 1.503 1_565 S
C939 C938 1.370 . S
C939 C940 1.403 . S
C940 C939 1.403 . S
C940 C941 1.404 . S
C940 C943 1.539 . S
C941 C937 1.408 . S
C941 C940 1.404 . S
C941 H953 0.930 . S
C942 C938 1.524 . S
C942 H954 0.956 . S
C942 H955 0.961 . S
C942 H956 0.961 . S
C943 C940 1.539 . S
C943 H957 0.958 1_565 S
C943 H958 0.961 . S
C943 H959 0.960 1_565 S
H944 C928 0.931 . S
H945 C933 0.929 . S
H946 C934 0.960 . S
H947 C934 0.962 . S
H948 C934 0.960 . S
H949 C935 0.961 . S
H950 C935 0.961 1_565 S
H951 C935 0.961 . S
H952 C936 0.931 . S
H953 C941 0.930 . S
H954 C942 0.956 . S
H955 C942 0.961 . S
H956 C942 0.961 . S
H957 C943 0.958 1_545 S
H958 C943 0.961 . S
H959 C943 0.960 1_545 S
C960 C961 1.391 . S
C960 C962 1.394 . S
C960 H976 0.931 . S
C961 C960 1.391 . S
C961 C965 1.376 . S
C962 C960 1.394 . S
C962 C963 1.369 . S
C962 C966 1.531 . S
C963 C962 1.369 . S
C963 C964 1.410 . S
C963 C971 1.503 1_556 S
C964 C963 1.410 . S
C964 C965 1.392 . S
C964 C967 1.511 . S
C965 C961 1.376 . S
C965 C964 1.392 . S
C965 H977 0.929 . S
C966 C962 1.531 . S
C966 H978 0.960 . S
C966 H979 0.962 . S
C966 H980 0.960 . S
C967 C964 1.511 . S
C967 H981 0.961 . S
C967 H982 0.961 1_556 S
C967 H983 0.961 . S
C968 C969 1.370 . S
C968 C970 1.363 . S
C968 H984 0.931 . S
C969 C968 1.370 . S
C969 C973 1.408 . S
C970 C968 1.363 . S
C970 C971 1.370 . S
C970 C974 1.524 . S
C971 C963 1.503 1_554 S
C971 C970 1.370 . S
C971 C972 1.403 1_554 S
C972 C971 1.403 1_556 S
C972 C973 1.404 1_556 S
C972 C975 1.539 . S
C973 C969 1.408 . S
C973 C972 1.404 1_554 S
C973 H985 0.930 . S
C974 C970 1.524 . S
C974 H986 0.956 . S
C974 H987 0.961 . S
C974 H988 0.961 . S
C975 C972 1.539 . S
C975 H989 0.958 . S
C975 H990 0.961 . S
C975 H991 0.960 . S
H976 C960 0.931 . S
H977 C965 0.929 . S
H978 C966 0.960 . S
H979 C966 0.962 . S
H980 C966 0.960 . S
H981 C967 0.961 . S
H982 C967 0.961 1_554 S
H983 C967 0.961 . S
H984 C968 0.931 . S
H985 C973 0.930 . S
H986 C974 0.956 . S
H987 C974 0.961 . S
H988 C974 0.961 . S
H989 C975 0.958 . S
H990 C975 0.961 . S
H991 C975 0.960 . S
C992 C993 1.391 . S
C992 C994 1.394 . S
C992 H1008 0.931 . S
C993 C992 1.391 . S
C993 C997 1.376 . S
C994 C992 1.394 . S
C994 C995 1.369 . S
C994 C998 1.531 . S
C995 C994 1.369 . S
C995 C996 1.410 . S
C995 C1003 1.503 . S
C996 C995 1.410 . S
C996 C997 1.392 . S
C996 C999 1.511 . S
C997 C993 1.376 . S
C997 C996 1.392 . S
C997 H1009 0.929 . S
C998 C994 1.531 . S
C998 H1010 0.960 . S
C998 H1011 0.962 . S
C998 H1012 0.960 . S
C999 C996 1.511 . S
C999 H1013 0.961 . S
C999 H1014 0.961 . S
C999 H1015 0.961 . S
C1000 C1001 1.370 . S
C1000 C1002 1.363 . S
C1000 H1016 0.931 . S
C1001 C1000 1.370 . S
C1001 C1005 1.408 . S
C1002 C1000 1.363 . S
C1002 C1003 1.370 . S
C1002 C1006 1.524 . S
C1003 C995 1.503 . S
C1003 C1002 1.370 . S
C1003 C1004 1.403 . S
C1004 C1003 1.403 . S
C1004 C1005 1.404 . S
C1004 C1007 1.539 . S
C1005 C1001 1.408 . S
C1005 C1004 1.404 . S
C1005 H1017 0.930 . S
C1006 C1002 1.524 . S
C1006 H1018 0.956 . S
C1006 H1019 0.961 . S
C1006 H1020 0.961 . S
C1007 C1004 1.539 . S
C1007 H1021 0.958 . S
C1007 H1022 0.961 . S
C1007 H1023 0.960 . S
H1008 C992 0.931 . S
H1009 C997 0.929 . S
H1010 C998 0.960 . S
H1011 C998 0.962 . S
H1012 C998 0.960 . S
H1013 C999 0.961 . S
H1014 C999 0.961 . S
H1015 C999 0.961 . S
H1016 C1000 0.931 . S
H1017 C1005 0.930 . S
H1018 C1006 0.956 . S
H1019 C1006 0.961 . S
H1020 C1006 0.961 . S
H1021 C1007 0.958 . S
H1022 C1007 0.961 . S
H1023 C1007 0.960 . S
C1024 C1025 1.391 1_556 S
C1024 C1026 1.394 . S
C1024 H1040 0.931 . S
C1025 C1024 1.391 1_554 S
C1025 C1029 1.376 . S
C1026 C1024 1.394 . S
C1026 C1027 1.354 1_556 S
C1026 C1030 1.531 . S
C1027 C1026 1.354 1_554 S
C1027 C1028 1.437 . S
C1027 C1035 1.494 1_554 S
C1028 C1027 1.437 . S
C1028 C1029 1.392 . S
C1028 C1031 1.511 . S
C1029 C1025 1.376 . S
C1029 C1028 1.392 . S
C1029 H1041 0.929 . S
C1030 C1026 1.531 . S
C1030 H1042 0.960 . S
C1030 H1043 0.962 . S
C1030 H1044 0.960 . S
C1031 C1028 1.511 . S
C1031 H1045 0.961 . S
C1031 H1046 0.961 . S
C1031 H1047 0.961 . S
C1032 C1033 1.370 . S
C1032 C1034 1.363 1_556 S
C1032 H1048 0.931 1_556 S
C1033 C1032 1.370 . S
C1033 C1037 1.408 . S
C1034 C1032 1.363 1_554 S
C1034 C1035 1.370 1_554 S
C1034 C1038 1.524 . S
C1035 C1027 1.494 1_556 S
C1035 C1034 1.370 1_556 S
C1035 C1036 1.403 . S
C1036 C1035 1.403 . S
C1036 C1037 1.404 . S
C1036 C1039 1.539 . S
C1037 C1033 1.408 . S
C1037 C1036 1.404 . S
C1037 H1049 0.930 . S
C1038 C1034 1.524 . S
C1038 H1050 0.956 . S
C1038 H1051 0.961 . S
C1038 H1052 0.961 . S
C1039 C1036 1.539 . S
C1039 H1053 0.958 . S
C1039 H1054 0.961 . S
C1039 H1055 0.960 . S
H1040 C1024 0.931 . S
H1041 C1029 0.929 . S
H1042 C1030 0.960 . S
H1043 C1030 0.962 . S
H1044 C1030 0.960 . S
H1045 C1031 0.961 . S
H1046 C1031 0.961 . S
H1047 C1031 0.961 . S
H1048 C1032 0.931 1_554 S
H1049 C1037 0.930 . S
H1050 C1038 0.956 . S
H1051 C1038 0.961 . S
H1052 C1038 0.961 . S
H1053 C1039 0.958 . S
H1054 C1039 0.961 . S
H1055 C1039 0.960 . S
C1056 C1057 1.391 . S
C1056 C1058 1.394 . S
C1056 H1072 0.931 . S
C1057 C1056 1.391 . S
C1057 C1061 1.376 . S
C1058 C1056 1.394 . S
C1058 C1059 1.369 . S
C1058 C1062 1.531 . S
C1059 C1058 1.369 . S
C1059 C1060 1.410 . S
C1059 C1067 1.503 . S
C1060 C1059 1.410 . S
C1060 C1061 1.392 . S
C1060 C1063 1.511 . S
C1061 C1057 1.376 . S
C1061 C1060 1.392 . S
C1061 H1073 0.929 . S
C1062 C1058 1.531 . S
C1062 H1074 0.960 . S
C1062 H1075 0.962 . S
C1062 H1076 0.960 . S
C1063 C1060 1.511 . S
C1063 H1077 0.961 . S
C1063 H1078 0.961 . S
C1063 H1079 0.961 . S
C1064 C1065 1.370 . S
C1064 C1066 1.363 . S
C1064 H1080 0.931 . S
C1065 C1064 1.370 . S
C1065 C1069 1.408 . S
C1066 C1064 1.363 . S
C1066 C1067 1.370 . S
C1066 C1070 1.524 . S
C1067 C1059 1.503 . S
C1067 C1066 1.370 . S
C1067 C1068 1.403 . S
C1068 C1067 1.403 . S
C1068 C1069 1.404 . S
C1068 C1071 1.539 . S
C1069 C1065 1.408 . S
C1069 C1068 1.404 . S
C1069 H1081 0.930 . S
C1070 C1066 1.524 . S
C1070 H1082 0.956 . S
C1070 H1083 0.961 . S
C1070 H1084 0.961 . S
C1071 C1068 1.539 . S
C1071 H1085 0.958 . S
C1071 H1086 0.961 . S
C1071 H1087 0.960 . S
H1072 C1056 0.931 . S
H1073 C1061 0.929 . S
H1074 C1062 0.960 . S
H1075 C1062 0.962 . S
H1076 C1062 0.960 . S
H1077 C1063 0.961 . S
H1078 C1063 0.961 . S
H1079 C1063 0.961 . S
H1080 C1064 0.931 . S
H1081 C1069 0.930 . S
H1082 C1070 0.956 . S
H1083 C1070 0.961 . S
H1084 C1070 0.961 . S
H1085 C1071 0.958 . S
H1086 C1071 0.961 . S
H1087 C1071 0.960 . S
C1088 C1089 1.391 . S
C1088 C1090 1.394 . S
C1088 H1104 0.931 . S
C1089 C1088 1.391 . S
C1089 C1093 1.376 . S
C1090 C1088 1.394 . S
C1090 C1091 1.369 . S
C1090 C1094 1.531 . S
C1091 C1090 1.369 . S
C1091 C1092 1.410 . S
C1091 C1099 1.503 . S
C1092 C1091 1.410 . S
C1092 C1093 1.392 . S
C1092 C1095 1.511 . S
C1093 C1089 1.376 . S
C1093 C1092 1.392 . S
C1093 H1105 0.929 . S
C1094 C1090 1.531 . S
C1094 H1106 0.960 . S
C1094 H1107 0.962 . S
C1094 H1108 0.960 . S
C1095 C1092 1.511 . S
C1095 H1109 0.961 . S
C1095 H1110 0.961 . S
C1095 H1111 0.961 . S
C1096 C1097 1.370 . S
C1096 C1098 1.363 . S
C1096 H1112 0.931 . S
C1097 C1096 1.370 . S
C1097 C1101 1.408 . S
C1098 C1096 1.363 . S
C1098 C1099 1.370 . S
C1098 C1102 1.524 . S
C1099 C1091 1.503 . S
C1099 C1098 1.370 . S
C1099 C1100 1.403 . S
C1100 C1099 1.403 . S
C1100 C1101 1.404 . S
C1100 C1103 1.539 . S
C1101 C1097 1.408 . S
C1101 C1100 1.404 . S
C1101 H1113 0.930 . S
C1102 C1098 1.524 . S
C1102 H1114 0.956 . S
C1102 H1115 0.961 . S
C1102 H1116 0.961 . S
C1103 C1100 1.539 . S
C1103 H1117 0.958 . S
C1103 H1118 0.961 . S
C1103 H1119 0.960 . S
H1104 C1088 0.931 . S
H1105 C1093 0.929 . S
H1106 C1094 0.960 . S
H1107 C1094 0.962 . S
H1108 C1094 0.960 . S
H1109 C1095 0.961 . S
H1110 C1095 0.961 . S
H1111 C1095 0.961 . S
H1112 C1096 0.931 . S
H1113 C1101 0.930 . S
H1114 C1102 0.956 . S
H1115 C1102 0.961 . S
H1116 C1102 0.961 . S
H1117 C1103 0.958 . S
H1118 C1103 0.961 . S
H1119 C1103 0.960 . S
C1120 C1121 1.391 . S
C1120 C1122 1.394 . S
C1120 H1136 0.931 . S
C1121 C1120 1.391 . S
C1121 C1125 1.376 . S
C1122 C1120 1.394 . S
C1122 C1123 1.369 . S
C1122 C1126 1.531 . S
C1123 C1122 1.369 . S
C1123 C1124 1.410 . S
C1123 C1131 1.503 1_655 S
C1124 C1123 1.410 . S
C1124 C1125 1.392 . S
C1124 C1127 1.511 . S
C1125 C1121 1.376 . S
C1125 C1124 1.392 . S
C1125 H1137 0.929 . S
C1126 C1122 1.531 . S
C1126 H1138 0.960 . S
C1126 H1139 0.962 . S
C1126 H1140 0.960 . S
C1127 C1124 1.511 . S
C1127 H1141 0.961 . S
C1127 H1142 0.961 . S
C1127 H1143 0.961 . S
C1128 C1129 1.370 . S
C1128 C1130 1.363 . S
C1128 H1144 0.931 . S
C1129 C1128 1.370 . S
C1129 C1133 1.408 . S
C1130 C1128 1.363 . S
C1130 C1131 1.370 . S
C1130 C1134 1.524 . S
C1131 C1123 1.503 1_455 S
C1131 C1130 1.370 . S
C1131 C1132 1.403 . S
C1132 C1131 1.403 . S
C1132 C1133 1.404 . S
C1132 C1135 1.539 . S
C1133 C1129 1.408 . S
C1133 C1132 1.404 . S
C1133 H1145 0.930 . S
C1134 C1130 1.524 . S
C1134 H1146 0.956 1_455 S
C1134 H1147 0.961 1_455 S
C1134 H1148 0.961 . S
C1135 C1132 1.539 . S
C1135 H1149 0.958 . S
C1135 H1150 0.961 . S
C1135 H1151 0.960 1_455 S
H1136 C1120 0.931 . S
H1137 C1125 0.929 . S
H1138 C1126 0.960 . S
H1139 C1126 0.962 . S
H1140 C1126 0.960 . S
H1141 C1127 0.961 . S
H1142 C1127 0.961 . S
H1143 C1127 0.961 . S
H1144 C1128 0.931 . S
H1145 C1133 0.930 . S
H1146 C1134 0.956 1_655 S
H1147 C1134 0.961 1_655 S
H1148 C1134 0.961 . S
H1149 C1135 0.958 . S
H1150 C1135 0.961 . S
H1151 C1135 0.960 1_655 S
C1152 C1153 1.391 . S
C1152 C1154 1.394 . S
C1152 H1168 0.931 . S
C1153 C1152 1.391 . S
C1153 C1157 1.376 . S
C1154 C1152 1.394 . S
C1154 C1155 1.369 . S
C1154 C1158 1.531 . S
C1155 C1154 1.369 . S
C1155 C1156 1.410 . S
C1155 C1163 1.503 . S
C1156 C1155 1.410 . S
C1156 C1157 1.392 . S
C1156 C1159 1.511 . S
C1157 C1153 1.376 . S
C1157 C1156 1.392 . S
C1157 H1169 0.929 . S
C1158 C1154 1.531 . S
C1158 H1170 0.960 . S
C1158 H1171 0.962 . S
C1158 H1172 0.960 . S
C1159 C1156 1.511 . S
C1159 H1173 0.961 . S
C1159 H1174 0.961 . S
C1159 H1175 0.961 . S
C1160 C1161 1.370 . S
C1160 C1162 1.363 . S
C1160 H1176 0.931 . S
C1161 C1160 1.370 . S
C1161 C1165 1.408 . S
C1162 C1160 1.363 . S
C1162 C1163 1.370 . S
C1162 C1166 1.524 . S
C1163 C1155 1.503 . S
C1163 C1162 1.370 . S
C1163 C1164 1.403 . S
C1164 C1163 1.403 . S
C1164 C1165 1.404 . S
C1164 C1167 1.539 . S
C1165 C1161 1.408 . S
C1165 C1164 1.404 . S
C1165 H1177 0.930 . S
C1166 C1162 1.524 . S
C1166 H1178 0.956 . S
C1166 H1179 0.961 . S
C1166 H1180 0.961 . S
C1167 C1164 1.539 . S
C1167 H1181 0.958 . S
C1167 H1182 0.961 . S
C1167 H1183 0.960 . S
H1168 C1152 0.931 . S
H1169 C1157 0.929 . S
H1170 C1158 0.960 . S
H1171 C1158 0.962 . S
H1172 C1158 0.960 . S
H1173 C1159 0.961 . S
H1174 C1159 0.961 . S
H1175 C1159 0.961 . S
H1176 C1160 0.931 . S
H1177 C1165 0.930 . S
H1178 C1166 0.956 . S
H1179 C1166 0.961 . S
H1180 C1166 0.961 . S
H1181 C1167 0.958 . S
H1182 C1167 0.961 . S
H1183 C1167 0.960 . S
C1184 C1185 1.391 . S
C1184 C1186 1.394 . S
C1184 H1200 0.931 . S
C1185 C1184 1.391 . S
C1185 C1189 1.376 . S
C1186 C1184 1.394 . S
C1186 C1187 1.369 . S
C1186 C1190 1.531 . S
C1187 C1186 1.369 . S
C1187 C1188 1.410 . S
C1187 C1195 1.503 1_455 S
C1188 C1187 1.410 . S
C1188 C1189 1.392 . S
C1188 C1191 1.511 . S
C1189 C1185 1.376 . S
C1189 C1188 1.392 . S
C1189 H1201 0.929 . S
C1190 C1186 1.531 . S
C1190 H1202 0.960 1_455 S
C1190 H1203 0.966 . S
C1190 H1204 0.960 . S
C1191 C1188 1.511 . S
C1191 H1205 0.961 . S
C1191 H1206 0.961 1_455 S
C1191 H1207 0.961 1_455 S
C1192 C1193 1.370 . S
C1192 C1194 1.363 . S
C1192 H1208 0.931 . S
C1193 C1192 1.370 . S
C1193 C1197 1.408 . S
C1194 C1192 1.363 . S
C1194 C1195 1.370 . S
C1194 C1198 1.524 . S
C1195 C1187 1.503 1_655 S
C1195 C1194 1.370 . S
C1195 C1196 1.403 . S
C1196 C1195 1.403 . S
C1196 C1197 1.404 . S
C1196 C1199 1.539 . S
C1197 C1193 1.408 . S
C1197 C1196 1.404 . S
C1197 H1209 0.930 . S
C1198 C1194 1.524 . S
C1198 H1210 0.956 . S
C1198 H1211 0.961 . S
C1198 H1212 0.961 . S
C1199 C1196 1.539 . S
C1199 H1213 0.958 . S
C1199 H1214 0.961 . S
C1199 H1215 0.960 . S
H1200 C1184 0.931 . S
H1201 C1189 0.929 . S
H1202 C1190 0.960 1_655 S
H1203 C1190 0.966 . S
H1204 C1190 0.960 . S
H1205 C1191 0.961 . S
H1206 C1191 0.961 1_655 S
H1207 C1191 0.961 1_655 S
H1208 C1192 0.931 . S
H1209 C1197 0.930 . S
H1210 C1198 0.956 . S
H1211 C1198 0.961 . S
H1212 C1198 0.961 . S
H1213 C1199 0.958 . S
H1214 C1199 0.961 . S
H1215 C1199 0.960 . S
C1216 C1217 1.391 . S
C1216 C1218 1.394 . S
C1216 H1232 0.931 . S
C1217 C1216 1.391 . S
C1217 C1221 1.376 . S
C1218 C1216 1.394 . S
C1218 C1219 1.369 . S
C1218 C1222 1.531 . S
C1219 C1218 1.369 . S
C1219 C1220 1.410 . S
C1219 C1227 1.503 1_455 S
C1220 C1219 1.410 . S
C1220 C1221 1.392 . S
C1220 C1223 1.511 . S
C1221 C1217 1.376 . S
C1221 C1220 1.392 . S
C1221 H1233 0.929 . S
C1222 C1218 1.531 . S
C1222 H1234 0.960 . S
C1222 H1235 0.962 . S
C1222 H1236 0.960 . S
C1223 C1220 1.511 . S
C1223 H1237 0.961 . S
C1223 H1238 0.961 . S
C1223 H1239 0.961 . S
C1224 C1225 1.370 . S
C1224 C1226 1.363 . S
C1224 H1240 0.931 . S
C1225 C1224 1.370 . S
C1225 C1229 1.408 . S
C1226 C1224 1.363 . S
C1226 C1227 1.370 . S
C1226 C1230 1.524 . S
C1227 C1219 1.503 1_655 S
C1227 C1226 1.370 . S
C1227 C1228 1.403 . S
C1228 C1227 1.403 . S
C1228 C1229 1.404 . S
C1228 C1231 1.539 . S
C1229 C1225 1.408 . S
C1229 C1228 1.404 . S
C1229 H1241 0.930 . S
C1230 C1226 1.524 . S
C1230 H1242 0.956 1_655 S
C1230 H1243 0.961 1_655 S
C1230 H1244 0.961 . S
C1231 C1228 1.539 . S
C1231 H1245 0.958 . S
C1231 H1246 0.961 . S
C1231 H1247 0.960 1_655 S
H1232 C1216 0.931 . S
H1233 C1221 0.929 . S
H1234 C1222 0.960 . S
H1235 C1222 0.962 . S
H1236 C1222 0.960 . S
H1237 C1223 0.961 . S
H1238 C1223 0.961 . S
H1239 C1223 0.961 . S
H1240 C1224 0.931 . S
H1241 C1229 0.930 . S
H1242 C1230 0.956 1_455 S
H1243 C1230 0.961 1_455 S
H1244 C1230 0.961 . S
H1245 C1231 0.958 . S
H1246 C1231 0.961 . S
H1247 C1231 0.960 1_455 S
C1248 C1249 1.391 . S
C1248 C1250 1.394 . S
C1248 H1264 0.931 . S
C1249 C1248 1.391 . S
C1249 C1253 1.376 . S
C1250 C1248 1.394 . S
C1250 C1251 1.369 . S
C1250 C1254 1.531 . S
C1251 C1250 1.369 . S
C1251 C1252 1.410 . S
C1251 C1259 1.503 . S
C1252 C1251 1.410 . S
C1252 C1253 1.392 . S
C1252 C1255 1.511 . S
C1253 C1249 1.376 . S
C1253 C1252 1.392 . S
C1253 H1265 0.929 . S
C1254 C1250 1.531 . S
C1254 H1266 0.960 . S
C1254 H1267 0.962 . S
C1254 H1268 0.960 . S
C1255 C1252 1.511 . S
C1255 H1269 0.961 . S
C1255 H1270 0.961 . S
C1255 H1271 0.961 . S
C1256 C1257 1.370 . S
C1256 C1258 1.363 . S
C1256 H1272 0.931 . S
C1257 C1256 1.370 . S
C1257 C1261 1.408 . S
C1258 C1256 1.363 . S
C1258 C1259 1.370 . S
C1258 C1262 1.524 . S
C1259 C1251 1.503 . S
C1259 C1258 1.370 . S
C1259 C1260 1.403 . S
C1260 C1259 1.403 . S
C1260 C1261 1.404 . S
C1260 C1263 1.539 . S
C1261 C1257 1.408 . S
C1261 C1260 1.404 . S
C1261 H1273 0.930 . S
C1262 C1258 1.524 . S
C1262 H1274 0.956 . S
C1262 H1275 0.961 . S
C1262 H1276 0.961 . S
C1263 C1260 1.539 . S
C1263 H1277 0.958 . S
C1263 H1278 0.961 . S
C1263 H1279 0.960 . S
H1264 C1248 0.931 . S
H1265 C1253 0.929 . S
H1266 C1254 0.960 . S
H1267 C1254 0.962 . S
H1268 C1254 0.960 . S
H1269 C1255 0.961 . S
H1270 C1255 0.961 . S
H1271 C1255 0.961 . S
H1272 C1256 0.931 . S
H1273 C1261 0.930 . S
H1274 C1262 0.956 . S
H1275 C1262 0.961 . S
H1276 C1262 0.961 . S
H1277 C1263 0.958 . S
H1278 C1263 0.961 . S
H1279 C1263 0.960 . S
C1280 C1281 1.391 . S
C1280 C1282 1.394 . S
C1280 H1296 0.931 . S
C1281 C1280 1.391 . S
C1281 C1285 1.376 . S
C1282 C1280 1.394 . S
C1282 C1283 1.369 . S
C1282 C1286 1.531 . S
C1283 C1282 1.369 . S
C1283 C1284 1.410 . S
C1283 C1291 1.503 1_455 S
C1284 C1283 1.410 . S
C1284 C1285 1.392 . S
C1284 C1287 1.511 . S
C1285 C1281 1.376 . S
C1285 C1284 1.392 . S
C1285 H1297 0.929 . S
C1286 C1282 1.531 . S
C1286 H1298 0.960 . S
C1286 H1299 0.962 . S
C1286 H1300 0.960 . S
C1287 C1284 1.511 . S
C1287 H1301 0.961 . S
C1287 H1302 0.961 . S
C1287 H1303 0.961 . S
C1288 C1289 1.370 . S
C1288 C1290 1.363 . S
C1288 H1304 0.931 . S
C1289 C1288 1.370 . S
C1289 C1293 1.408 . S
C1290 C1288 1.363 . S
C1290 C1291 1.370 . S
C1290 C1294 1.544 . S
C1291 C1283 1.503 1_655 S
C1291 C1290 1.370 . S
C1291 C1292 1.403 . S
C1292 C1291 1.403 . S
C1292 C1293 1.404 . S
C1292 C1295 1.539 . S
C1293 C1289 1.408 . S
C1293 C1292 1.404 . S
C1293 H1305 0.930 . S
C1294 C1290 1.544 . S
C1294 H1306 0.936 1_655 S
C1294 H1307 0.938 1_655 S
C1294 H1308 0.985 . S
C1295 C1292 1.539 . S
C1295 H1309 0.958 . S
C1295 H1310 0.961 . S
C1295 H1311 0.960 1_655 S
H1296 C1280 0.931 . S
H1297 C1285 0.929 . S
H1298 C1286 0.960 . S
H1299 C1286 0.962 . S
H1300 C1286 0.960 . S
H1301 C1287 0.961 . S
H1302 C1287 0.961 . S
H1303 C1287 0.961 . S
H1304 C1288 0.931 . S
H1305 C1293 0.930 . S
H1306 C1294 0.936 1_455 S
H1307 C1294 0.938 1_455 S
H1308 C1294 0.985 . S
H1309 C1295 0.958 . S
H1310 C1295 0.961 . S
H1311 C1295 0.960 1_455 S
C1312 C1313 1.391 . S
C1312 C1314 1.394 . S
C1312 H1328 0.931 . S
C1313 C1312 1.391 . S
C1313 C1317 1.376 . S
C1314 C1312 1.394 . S
C1314 C1315 1.369 . S
C1314 C1318 1.531 . S
C1315 C1314 1.369 . S
C1315 C1316 1.410 . S
C1315 C1323 1.503 . S
C1316 C1315 1.410 . S
C1316 C1317 1.392 . S
C1316 C1319 1.511 . S
C1317 C1313 1.376 . S
C1317 C1316 1.392 . S
C1317 H1329 0.929 . S
C1318 C1314 1.531 . S
C1318 H1330 0.960 . S
C1318 H1331 0.962 . S
C1318 H1332 0.960 . S
C1319 C1316 1.511 . S
C1319 H1333 0.961 . S
C1319 H1334 0.961 . S
C1319 H1335 0.961 . S
C1320 C1321 1.370 . S
C1320 C1322 1.363 . S
C1320 H1336 0.931 . S
C1321 C1320 1.370 . S
C1321 C1325 1.408 . S
C1322 C1320 1.363 . S
C1322 C1323 1.370 . S
C1322 C1326 1.524 . S
C1323 C1315 1.503 . S
C1323 C1322 1.370 . S
C1323 C1324 1.403 . S
C1324 C1323 1.403 . S
C1324 C1325 1.404 . S
C1324 C1327 1.539 . S
C1325 C1321 1.408 . S
C1325 C1324 1.404 . S
C1325 H1337 0.930 . S
C1326 C1322 1.524 . S
C1326 H1338 0.956 . S
C1326 H1339 0.961 . S
C1326 H1340 0.961 . S
C1327 C1324 1.539 . S
C1327 H1341 0.958 . S
C1327 H1342 0.961 . S
C1327 H1343 0.960 . S
H1328 C1312 0.931 . S
H1329 C1317 0.929 . S
H1330 C1318 0.960 . S
H1331 C1318 0.962 . S
H1332 C1318 0.960 . S
H1333 C1319 0.961 . S
H1334 C1319 0.961 . S
H1335 C1319 0.961 . S
H1336 C1320 0.931 . S
H1337 C1325 0.930 . S
H1338 C1326 0.956 . S
H1339 C1326 0.961 . S
H1340 C1326 0.961 . S
H1341 C1327 0.958 . S
H1342 C1327 0.961 . S
H1343 C1327 0.960 . S
C1344 C1345 1.391 . S
C1344 C1346 1.394 . S
C1344 H1360 0.931 . S
C1345 C1344 1.391 . S
C1345 C1349 1.376 . S
C1346 C1344 1.394 . S
C1346 C1347 1.369 . S
C1346 C1350 1.531 . S
C1347 C1346 1.369 . S
C1347 C1348 1.410 . S
C1347 C1355 1.503 . S
C1348 C1347 1.410 . S
C1348 C1349 1.392 . S
C1348 C1351 1.511 . S
C1349 C1345 1.376 . S
C1349 C1348 1.392 . S
C1349 H1361 0.929 . S
C1350 C1346 1.531 . S
C1350 H1362 0.960 . S
C1350 H1363 0.962 . S
C1350 H1364 0.960 . S
C1351 C1348 1.511 . S
C1351 H1365 0.961 . S
C1351 H1366 0.961 . S
C1351 H1367 0.961 . S
C1352 C1353 1.370 . S
C1352 C1354 1.363 . S
C1352 H1368 0.931 . S
C1353 C1352 1.370 . S
C1353 C1357 1.408 . S
C1354 C1352 1.363 . S
C1354 C1355 1.370 . S
C1354 C1358 1.524 . S
C1355 C1347 1.503 . S
C1355 C1354 1.370 . S
C1355 C1356 1.403 . S
C1356 C1355 1.403 . S
C1356 C1357 1.404 . S
C1356 C1359 1.539 . S
C1357 C1353 1.408 . S
C1357 C1356 1.404 . S
C1357 H1369 0.930 . S
C1358 C1354 1.524 . S
C1358 H1370 0.956 . S
C1358 H1371 0.961 . S
C1358 H1372 0.961 . S
C1359 C1356 1.539 . S
C1359 H1373 0.958 . S
C1359 H1374 0.961 . S
C1359 H1375 0.960 . S
H1360 C1344 0.931 . S
H1361 C1349 0.929 . S
H1362 C1350 0.960 . S
H1363 C1350 0.962 . S
H1364 C1350 0.960 . S
H1365 C1351 0.961 . S
H1366 C1351 0.961 . S
H1367 C1351 0.961 . S
H1368 C1352 0.931 . S
H1369 C1357 0.930 . S
H1370 C1358 0.956 . S
H1371 C1358 0.961 . S
H1372 C1358 0.961 . S
H1373 C1359 0.958 . S
H1374 C1359 0.961 . S
H1375 C1359 0.960 . S
C1376 C1377 1.391 . S
C1376 C1378 1.394 . S
C1376 H1392 0.931 . S
C1377 C1376 1.391 . S
C1377 C1381 1.376 . S
C1378 C1376 1.394 . S
C1378 C1379 1.369 . S
C1378 C1382 1.531 . S
C1379 C1378 1.369 . S
C1379 C1380 1.410 . S
C1379 C1387 1.503 . S
C1380 C1379 1.410 . S
C1380 C1381 1.392 . S
C1380 C1383 1.511 . S
C1381 C1377 1.376 . S
C1381 C1380 1.392 . S
C1381 H1393 0.929 . S
C1382 C1378 1.531 . S
C1382 H1394 0.960 . S
C1382 H1395 0.962 . S
C1382 H1396 0.960 . S
C1383 C1380 1.511 . S
C1383 H1397 0.961 . S
C1383 H1398 0.961 . S
C1383 H1399 0.961 . S
C1384 C1385 1.370 . S
C1384 C1386 1.363 . S
C1384 H1400 0.931 . S
C1385 C1384 1.370 . S
C1385 C1389 1.408 . S
C1386 C1384 1.363 . S
C1386 C1387 1.370 . S
C1386 C1390 1.524 . S
C1387 C1379 1.503 . S
C1387 C1386 1.370 . S
C1387 C1388 1.403 . S
C1388 C1387 1.403 . S
C1388 C1389 1.404 . S
C1388 C1391 1.539 . S
C1389 C1385 1.408 . S
C1389 C1388 1.404 . S
C1389 H1401 0.930 . S
C1390 C1386 1.524 . S
C1390 H1402 0.956 . S
C1390 H1403 0.961 . S
C1390 H1404 0.961 . S
C1391 C1388 1.539 . S
C1391 H1405 0.958 . S
C1391 H1406 0.961 . S
C1391 H1407 0.960 . S
H1392 C1376 0.931 . S
H1393 C1381 0.929 . S
H1394 C1382 0.960 . S
H1395 C1382 0.962 . S
H1396 C1382 0.960 . S
H1397 C1383 0.961 . S
H1398 C1383 0.961 . S
H1399 C1383 0.961 . S
H1400 C1384 0.931 . S
H1401 C1389 0.930 . S
H1402 C1390 0.956 . S
H1403 C1390 0.961 . S
H1404 C1390 0.961 . S
H1405 C1391 0.958 . S
H1406 C1391 0.961 . S
H1407 C1391 0.960 . S
C1408 C1409 1.391 . S
C1408 C1410 1.394 . S
C1408 H1424 0.931 . S
C1409 C1408 1.391 . S
C1409 C1413 1.376 . S
C1410 C1408 1.394 . S
C1410 C1411 1.369 . S
C1410 C1414 1.531 . S
C1411 C1410 1.369 . S
C1411 C1412 1.410 . S
C1411 C1419 1.503 . S
C1412 C1411 1.410 . S
C1412 C1413 1.392 . S
C1412 C1415 1.511 . S
C1413 C1409 1.376 . S
C1413 C1412 1.392 . S
C1413 H1425 0.929 . S
C1414 C1410 1.531 . S
C1414 H1426 0.960 . S
C1414 H1427 0.962 . S
C1414 H1428 0.960 . S
C1415 C1412 1.511 . S
C1415 H1429 0.961 . S
C1415 H1430 0.961 . S
C1415 H1431 0.961 . S
C1416 C1417 1.370 . S
C1416 C1418 1.363 . S
C1416 H1432 0.931 . S
C1417 C1416 1.370 . S
C1417 C1421 1.408 . S
C1418 C1416 1.363 . S
C1418 C1419 1.370 . S
C1418 C1422 1.524 . S
C1419 C1411 1.503 . S
C1419 C1418 1.370 . S
C1419 C1420 1.403 . S
C1420 C1419 1.403 . S
C1420 C1421 1.404 . S
C1420 C1423 1.539 . S
C1421 C1417 1.408 . S
C1421 C1420 1.404 . S
C1421 H1433 0.930 . S
C1422 C1418 1.524 . S
C1422 H1434 0.956 . S
C1422 H1435 0.961 . S
C1422 H1436 0.961 . S
C1423 C1420 1.539 . S
C1423 H1437 0.958 . S
C1423 H1438 0.961 . S
C1423 H1439 0.960 . S
H1424 C1408 0.931 . S
H1425 C1413 0.929 . S
H1426 C1414 0.960 . S
H1427 C1414 0.962 . S
H1428 C1414 0.960 . S
H1429 C1415 0.961 . S
H1430 C1415 0.961 . S
H1431 C1415 0.961 . S
H1432 C1416 0.931 . S
H1433 C1421 0.930 . S
H1434 C1422 0.956 . S
H1435 C1422 0.961 . S
H1436 C1422 0.961 . S
H1437 C1423 0.958 . S
H1438 C1423 0.961 . S
H1439 C1423 0.960 . S
C1440 C1441 1.391 . S
C1440 C1442 1.394 . S
C1440 H1456 0.931 . S
C1441 C1440 1.391 . S
C1441 C1445 1.376 . S
C1442 C1440 1.394 . S
C1442 C1443 1.369 . S
C1442 C1446 1.531 . S
C1443 C1442 1.369 . S
C1443 C1444 1.410 . S
C1443 C1451 1.503 . S
C1444 C1443 1.410 . S
C1444 C1445 1.392 . S
C1444 C1447 1.511 . S
C1445 C1441 1.376 . S
C1445 C1444 1.392 . S
C1445 H1457 0.929 . S
C1446 C1442 1.531 . S
C1446 H1458 0.960 . S
C1446 H1459 0.962 . S
C1446 H1460 0.960 . S
C1447 C1444 1.511 . S
C1447 H1461 0.961 . S
C1447 H1462 0.961 . S
C1447 H1463 0.961 . S
C1448 C1449 1.370 . S
C1448 C1450 1.363 . S
C1448 H1464 0.931 . S
C1449 C1448 1.370 . S
C1449 C1453 1.408 . S
C1450 C1448 1.363 . S
C1450 C1451 1.370 . S
C1450 C1454 1.524 . S
C1451 C1443 1.503 . S
C1451 C1450 1.370 . S
C1451 C1452 1.403 . S
C1452 C1451 1.403 . S
C1452 C1453 1.404 . S
C1452 C1455 1.539 . S
C1453 C1449 1.408 . S
C1453 C1452 1.404 . S
C1453 H1465 0.930 . S
C1454 C1450 1.524 . S
C1454 H1466 0.956 . S
C1454 H1467 0.961 . S
C1454 H1468 0.961 . S
C1455 C1452 1.539 . S
C1455 H1469 0.958 . S
C1455 H1470 0.961 . S
C1455 H1471 0.960 . S
H1456 C1440 0.931 . S
H1457 C1445 0.929 . S
H1458 C1446 0.960 . S
H1459 C1446 0.962 . S
H1460 C1446 0.960 . S
H1461 C1447 0.961 . S
H1462 C1447 0.961 . S
H1463 C1447 0.961 . S
H1464 C1448 0.931 . S
H1465 C1453 0.930 . S
H1466 C1454 0.956 . S
H1467 C1454 0.961 . S
H1468 C1454 0.961 . S
H1469 C1455 0.958 . S
H1470 C1455 0.961 . S
H1471 C1455 0.960 . S
C1472 C1473 1.391 . S
C1472 C1474 1.394 . S
C1472 H1488 0.931 . S
C1473 C1472 1.391 . S
C1473 C1477 1.376 . S
C1474 C1472 1.394 . S
C1474 C1475 1.369 . S
C1474 C1478 1.531 . S
C1475 C1474 1.369 . S
C1475 C1476 1.410 . S
C1475 C1483 1.503 . S
C1476 C1475 1.410 . S
C1476 C1477 1.392 . S
C1476 C1479 1.511 . S
C1477 C1473 1.376 . S
C1477 C1476 1.392 . S
C1477 H1489 0.929 . S
C1478 C1474 1.531 . S
C1478 H1490 0.960 . S
C1478 H1491 0.962 . S
C1478 H1492 0.960 . S
C1479 C1476 1.511 . S
C1479 H1493 0.961 . S
C1479 H1494 0.961 . S
C1479 H1495 0.961 . S
C1480 C1481 1.370 . S
C1480 C1482 1.363 . S
C1480 H1496 0.931 . S
C1481 C1480 1.370 . S
C1481 C1485 1.408 . S
C1482 C1480 1.363 . S
C1482 C1483 1.370 . S
C1482 C1486 1.524 . S
C1483 C1475 1.503 . S
C1483 C1482 1.370 . S
C1483 C1484 1.403 . S
C1484 C1483 1.403 . S
C1484 C1485 1.404 . S
C1484 C1487 1.539 . S
C1485 C1481 1.408 . S
C1485 C1484 1.404 . S
C1485 H1497 0.930 . S
C1486 C1482 1.524 . S
C1486 H1498 0.956 . S
C1486 H1499 0.961 . S
C1486 H1500 0.961 . S
C1487 C1484 1.539 . S
C1487 H1501 0.958 . S
C1487 H1502 0.961 . S
C1487 H1503 0.960 . S
H1488 C1472 0.931 . S
H1489 C1477 0.929 . S
H1490 C1478 0.960 . S
H1491 C1478 0.962 . S
H1492 C1478 0.960 . S
H1493 C1479 0.961 . S
H1494 C1479 0.961 . S
H1495 C1479 0.961 . S
H1496 C1480 0.931 . S
H1497 C1485 0.930 . S
H1498 C1486 0.956 . S
H1499 C1486 0.961 . S
H1500 C1486 0.961 . S
H1501 C1487 0.958 . S
H1502 C1487 0.961 . S
H1503 C1487 0.960 . S
C1504 C1505 1.391 . S
C1504 C1506 1.394 . S
C1504 H1520 0.931 . S
C1505 C1504 1.391 . S
C1505 C1509 1.376 . S
C1506 C1504 1.394 . S
C1506 C1507 1.369 . S
C1506 C1510 1.531 . S
C1507 C1506 1.369 . S
C1507 C1508 1.410 . S
C1507 C1515 1.503 . S
C1508 C1507 1.410 . S
C1508 C1509 1.392 . S
C1508 C1511 1.511 . S
C1509 C1505 1.376 . S
C1509 C1508 1.392 . S
C1509 H1521 0.929 . S
C1510 C1506 1.531 . S
C1510 H1522 0.960 . S
C1510 H1523 0.962 . S
C1510 H1524 0.960 . S
C1511 C1508 1.511 . S
C1511 H1525 0.961 . S
C1511 H1526 0.961 . S
C1511 H1527 0.961 . S
C1512 C1513 1.370 . S
C1512 C1514 1.363 . S
C1512 H1528 0.931 . S
C1513 C1512 1.370 . S
C1513 C1517 1.408 . S
C1514 C1512 1.363 . S
C1514 C1515 1.370 . S
C1514 C1518 1.524 . S
C1515 C1507 1.503 . S
C1515 C1514 1.370 . S
C1515 C1516 1.403 . S
C1516 C1515 1.403 . S
C1516 C1517 1.404 . S
C1516 C1519 1.539 . S
C1517 C1513 1.408 . S
C1517 C1516 1.404 . S
C1517 H1529 0.930 . S
C1518 C1514 1.524 . S
C1518 H1530 0.956 . S
C1518 H1531 0.961 . S
C1518 H1532 0.961 . S
C1519 C1516 1.539 . S
C1519 H1533 0.958 . S
C1519 H1534 0.961 . S
C1519 H1535 0.960 . S
H1520 C1504 0.931 . S
H1521 C1509 0.929 . S
H1522 C1510 0.960 . S
H1523 C1510 0.962 . S
H1524 C1510 0.960 . S
H1525 C1511 0.961 . S
H1526 C1511 0.961 . S
H1527 C1511 0.961 . S
H1528 C1512 0.931 . S
H1529 C1517 0.930 . S
H1530 C1518 0.956 . S
H1531 C1518 0.961 . S
H1532 C1518 0.961 . S
H1533 C1519 0.958 . S
H1534 C1519 0.961 . S
H1535 C1519 0.960 . S
C1536 C1537 1.391 . S
C1536 C1538 1.394 . S
C1536 H1552 0.931 . S
C1537 C1536 1.391 . S
C1537 C1541 1.376 . S
C1538 C1536 1.394 . S
C1538 C1539 1.369 . S
C1538 C1542 1.531 . S
C1539 C1538 1.369 . S
C1539 C1540 1.410 . S
C1539 C1547 1.503 . S
C1540 C1539 1.410 . S
C1540 C1541 1.392 . S
C1540 C1543 1.511 . S
C1541 C1537 1.376 . S
C1541 C1540 1.392 . S
C1541 H1553 0.929 . S
C1542 C1538 1.531 . S
C1542 H1554 0.960 . S
C1542 H1555 0.962 . S
C1542 H1556 0.960 . S
C1543 C1540 1.511 . S
C1543 H1557 0.961 . S
C1543 H1558 0.961 . S
C1543 H1559 0.961 . S
C1544 C1545 1.370 . S
C1544 C1546 1.363 . S
C1544 H1560 0.931 . S
C1545 C1544 1.370 . S
C1545 C1549 1.408 . S
C1546 C1544 1.363 . S
C1546 C1547 1.370 . S
C1546 C1550 1.524 . S
C1547 C1539 1.503 . S
C1547 C1546 1.370 . S
C1547 C1548 1.403 . S
C1548 C1547 1.403 . S
C1548 C1549 1.404 . S
C1548 C1551 1.539 . S
C1549 C1545 1.408 . S
C1549 C1548 1.404 . S
C1549 H1561 0.930 . S
C1550 C1546 1.524 . S
C1550 H1562 0.956 . S
C1550 H1563 0.961 . S
C1550 H1564 0.961 . S
C1551 C1548 1.539 . S
C1551 H1565 0.958 . S
C1551 H1566 0.961 . S
C1551 H1567 0.960 . S
H1552 C1536 0.931 . S
H1553 C1541 0.929 . S
H1554 C1542 0.960 . S
H1555 C1542 0.962 . S
H1556 C1542 0.960 . S
H1557 C1543 0.961 . S
H1558 C1543 0.961 . S
H1559 C1543 0.961 . S
H1560 C1544 0.931 . S
H1561 C1549 0.930 . S
H1562 C1550 0.956 . S
H1563 C1550 0.961 . S
H1564 C1550 0.961 . S
H1565 C1551 0.958 . S
H1566 C1551 0.961 . S
H1567 C1551 0.960 . S
C1568 C1569 1.391 . S
C1568 C1570 1.394 . S
C1568 H1584 0.931 . S
C1569 C1568 1.391 . S
C1569 C1573 1.376 . S
C1570 C1568 1.394 . S
C1570 C1571 1.369 . S
C1570 C1574 1.531 . S
C1571 C1570 1.369 . S
C1571 C1572 1.410 . S
C1571 C1579 1.503 . S
C1572 C1571 1.410 . S
C1572 C1573 1.392 . S
C1572 C1575 1.511 . S
C1573 C1569 1.376 . S
C1573 C1572 1.392 . S
C1573 H1585 0.929 . S
C1574 C1570 1.531 . S
C1574 H1586 0.960 . S
C1574 H1587 0.962 . S
C1574 H1588 0.960 . S
C1575 C1572 1.511 . S
C1575 H1589 0.961 . S
C1575 H1590 0.961 . S
C1575 H1591 0.961 . S
C1576 C1577 1.370 . S
C1576 C1578 1.363 . S
C1576 H1592 0.931 . S
C1577 C1576 1.370 . S
C1577 C1581 1.408 . S
C1578 C1576 1.363 . S
C1578 C1579 1.370 . S
C1578 C1582 1.524 . S
C1579 C1571 1.503 . S
C1579 C1578 1.370 . S
C1579 C1580 1.403 . S
C1580 C1579 1.403 . S
C1580 C1581 1.404 . S
C1580 C1583 1.539 . S
C1581 C1577 1.408 . S
C1581 C1580 1.404 . S
C1581 H1593 0.930 . S
C1582 C1578 1.524 . S
C1582 H1594 0.956 . S
C1582 H1595 0.961 . S
C1582 H1596 0.961 . S
C1583 C1580 1.539 . S
C1583 H1597 0.958 . S
C1583 H1598 0.961 . S
C1583 H1599 0.960 . S
H1584 C1568 0.931 . S
H1585 C1573 0.929 . S
H1586 C1574 0.960 . S
H1587 C1574 0.962 . S
H1588 C1574 0.960 . S
H1589 C1575 0.961 . S
H1590 C1575 0.961 . S
H1591 C1575 0.961 . S
H1592 C1576 0.931 . S
H1593 C1581 0.930 . S
H1594 C1582 0.956 . S
H1595 C1582 0.961 . S
H1596 C1582 0.961 . S
H1597 C1583 0.958 . S
H1598 C1583 0.961 . S
H1599 C1583 0.960 . S
C577 C4 1.486 . S
C585 C446 1.445 . S
C609 C482 1.422 . S
C617 C40 1.490 . S
C641 C76 1.484 . S
C649 C518 1.440 . S
C673 C554 1.418 . S
C681 C112 1.490 . S
C705 C292 1.488 . S
C713 C158 1.441 . S
C737 C194 1.408 . S
C745 C328 1.491 . S
C769 C364 1.489 . S
C777 C230 1.437 . S
C801 C266 1.430 . S
C809 C400 1.490 . S
C833 C3 1.588 . S
C841 C75 1.610 . S
C865 C39 1.613 . S
C873 C111 1.600 . S
C897 C147 1.453 . S
C905 C219 1.479 . S
C929 C183 1.486 . S
C937 C255 1.468 . S
C961 C363 1.615 . S
C969 C291 1.599 . S
C993 C327 1.614 . S
C1001 C399 1.600 . S
C1025 C507 1.482 . S
C1033 C435 1.470 . S
C1057 C471 1.488 . S
C1065 C543 1.466 . S
C1089 C218 1.478 . S
C1097 C2 1.469 . S
C1121 C254 1.478 . S
C1129 C38 1.469 . S
C1153 C74 1.462 . S
C1161 C146 1.472 . S
C1185 C110 1.453 . S
C1193 C182 1.474 . S
C1217 C506 1.483 . S
C1225 C290 1.475 . S
C1249 C326 1.481 . S
C1257 C542 1.478 . S
C1281 C434 1.475 . S
C1289 C362 1.467 . S
C1313 C398 1.465 . S
C1321 C470 1.480 . S
C1345 C14 1.610 . S
C1353 C122 1.625 . S
C1377 C86 1.613 . S
C1385 C50 1.625 . S
C1409 C148 1.253 . S
C1417 C256 1.253 . S
C1441 C184 1.257 . S
C1449 C220 1.252 . S
C1473 C410 1.613 . S
C1481 C302 1.625 . S
C1505 C338 1.657 . S
C1513 C374 1.649 . S
C1537 C544 1.248 . S
C1545 C436 1.256 . S
C1569 C472 1.251 . S
C1577 C508 1.255 . S
