# Generated by pormake.
# Topology umm, (4)-cn, num edge types: 1
# Building blocks:
#     Node 0, Type 0, BuildingBlock: GALJAG_clean_sbu_0, # of connection points: 4
#     Node 1, Type 0, BuildingBlock: GALJAG_clean_sbu_0, # of connection points: 4
#     Node 2, Type 0, BuildingBlock: GALJAG_clean_sbu_0, # of connection points: 4
#     Node 3, Type 0, BuildingBlock: GALJAG_clean_sbu_0, # of connection points: 4
#     Node 4, Type 0, BuildingBlock: GALJAG_clean_sbu_0, # of connection points: 4
#     Node 5, Type 0, BuildingBlock: GALJAG_clean_sbu_0, # of connection points: 4
#     Node 6, Type 0, BuildingBlock: GALJAG_clean_sbu_0, # of connection points: 4
#     Node 7, Type 0, BuildingBlock: GALJAG_clean_sbu_0, # of connection points: 4
#     Node 8, Type 0, BuildingBlock: GALJAG_clean_sbu_0, # of connection points: 4
#     Node 9, Type 0, BuildingBlock: GALJAG_clean_sbu_0, # of connection points: 4
#     Node 10, Type 0, BuildingBlock: GALJAG_clean_sbu_0, # of connection points: 4
#     Node 11, Type 0, BuildingBlock: GALJAG_clean_sbu_0, # of connection points: 4
#     Edge 12, Type (0, 0), BuildingBlock: EYOCIG_clean_linker_4, # of connection points: 2
#     Edge 13, Type (0, 0), BuildingBlock: EYOCIG_clean_linker_4, # of connection points: 2
#     Edge 14, Type (0, 0), BuildingBlock: EYOCIG_clean_linker_4, # of connection points: 2
#     Edge 15, Type (0, 0), BuildingBlock: EYOCIG_clean_linker_4, # of connection points: 2
#     Edge 16, Type (0, 0), BuildingBlock: EYOCIG_clean_linker_4, # of connection points: 2
#     Edge 17, Type (0, 0), BuildingBlock: EYOCIG_clean_linker_4, # of connection points: 2
#     Edge 18, Type (0, 0), BuildingBlock: EYOCIG_clean_linker_4, # of connection points: 2
#     Edge 19, Type (0, 0), BuildingBlock: EYOCIG_clean_linker_4, # of connection points: 2
#     Edge 20, Type (0, 0), BuildingBlock: EYOCIG_clean_linker_4, # of connection points: 2
#     Edge 21, Type (0, 0), BuildingBlock: EYOCIG_clean_linker_4, # of connection points: 2
#     Edge 22, Type (0, 0), BuildingBlock: EYOCIG_clean_linker_4, # of connection points: 2
#     Edge 23, Type (0, 0), BuildingBlock: EYOCIG_clean_linker_4, # of connection points: 2
#     Edge 24, Type (0, 0), BuildingBlock: EYOCIG_clean_linker_4, # of connection points: 2
#     Edge 25, Type (0, 0), BuildingBlock: EYOCIG_clean_linker_4, # of connection points: 2
#     Edge 26, Type (0, 0), BuildingBlock: EYOCIG_clean_linker_4, # of connection points: 2
#     Edge 27, Type (0, 0), BuildingBlock: EYOCIG_clean_linker_4, # of connection points: 2
#     Edge 28, Type (0, 0), BuildingBlock: EYOCIG_clean_linker_4, # of connection points: 2
#     Edge 29, Type (0, 0), BuildingBlock: EYOCIG_clean_linker_4, # of connection points: 2
#     Edge 30, Type (0, 0), BuildingBlock: EYOCIG_clean_linker_4, # of connection points: 2
#     Edge 31, Type (0, 0), BuildingBlock: EYOCIG_clean_linker_4, # of connection points: 2
#     Edge 32, Type (0, 0), BuildingBlock: EYOCIG_clean_linker_4, # of connection points: 2
#     Edge 33, Type (0, 0), BuildingBlock: EYOCIG_clean_linker_4, # of connection points: 2
#     Edge 34, Type (0, 0), BuildingBlock: EYOCIG_clean_linker_4, # of connection points: 2
#     Edge 35, Type (0, 0), BuildingBlock: EYOCIG_clean_linker_4, # of connection points: 2
# Relax obj value: 0.093
# Max RMSD: 0.221
# Mean RMSD: 0.220
data_MOF--net-umm--node1-GALJAG_clean_sbu_0--edge1-EYOCIG_clean_linker_4
_symmetry_space_group_name_H-M    P1
_symmetry_Int_Tables_number       1
_symmetry_cell_setting            triclinic
loop_
_symmetry_equiv_pos_as_xyz
'x, y, z'
_cell_length_a     44.633894
_cell_length_b     44.709425
_cell_length_c     22.920511
_cell_angle_alpha  90.034325
_cell_angle_beta   90.008343
_cell_angle_gamma 120.00359
loop_
_atom_site_label
_atom_site_type_symbol
_atom_site_fract_x
_atom_site_fract_y
_atom_site_fract_z
_atom_type_partial_charge
In0 In 0.38483 0.53767 0.07599 0.0
O1 O 0.40427 0.58197 0.14204 0.0
O2 O 0.37466 0.53008 0.17329 0.0
C3 C 0.40107 0.5627 0.96802 0.0
C4 C 0.43071 0.51579 0.08371 0.0
C5 C 0.3174 0.5109 0.05189 0.0
O6 O 0.40679 0.58262 0.01118 0.0
O7 O 0.38863 0.53115 0.97974 0.0
O8 O 0.33035 0.49167 0.06018 0.0
O9 O 0.33768 0.54277 0.05955 0.0
C10 C 0.39141 0.56189 0.18525 0.0
O11 O 0.39843 0.4948 0.08499 0.0
O12 O 0.43959 0.54725 0.07889 0.0
In13 In 0.84276 0.38673 0.40859 0.0
O14 O 0.81771 0.40596 0.47466 0.0
O15 O 0.84026 0.37656 0.50587 0.0
C16 C 0.83387 0.40286 0.30059 0.0
C17 C 0.91051 0.43272 0.41632 0.0
C18 C 0.80219 0.31939 0.38453 0.0
O19 O 0.81966 0.40859 0.34373 0.0
O20 O 0.85304 0.39045 0.31234 0.0
O21 O 0.8344 0.33235 0.39282 0.0
O22 O 0.79052 0.33962 0.39213 0.0
C23 C 0.82503 0.39316 0.51784 0.0
O24 O 0.89937 0.40051 0.41754 0.0
O25 O 0.88779 0.44147 0.41157 0.0
In26 In 0.45208 0.84502 0.74212 0.0
O27 O 0.40771 0.82011 0.80806 0.0
O28 O 0.45969 0.84253 0.83944 0.0
C29 C 0.42715 0.8363 0.63402 0.0
C30 C 0.47389 0.9127 0.74986 0.0
C31 C 0.47867 0.80424 0.71822 0.0
O32 O 0.40713 0.82216 0.67708 0.0
O33 O 0.45877 0.85532 0.64589 0.0
O34 O 0.49803 0.83639 0.72656 0.0
O35 O 0.44676 0.79275 0.7257 0.0
C36 C 0.42783 0.82739 0.85131 0.0
O37 O 0.49497 0.90152 0.75115 0.0
O38 O 0.44239 0.89005 0.74504 0.0
In39 In 0.60173 0.45307 0.07606 0.0
O40 O 0.58225 0.40879 0.14203 0.0
O41 O 0.61194 0.46068 0.17337 0.0
C42 C 0.58538 0.42801 0.96805 0.0
C43 C 0.55595 0.47508 0.0838 0.0
C44 C 0.66914 0.47972 0.05196 0.0
O45 O 0.57964 0.4081 0.01118 0.0
O46 O 0.5979 0.45957 0.97981 0.0
O47 O 0.65625 0.49899 0.06031 0.0
O48 O 0.64881 0.44786 0.05954 0.0
C49 C 0.59516 0.42887 0.18527 0.0
O50 O 0.58825 0.49603 0.08511 0.0
O51 O 0.54701 0.44361 0.07896 0.0
In52 In 0.14413 0.60407 0.40863 0.0
O53 O 0.16904 0.58468 0.47466 0.0
O54 O 0.14667 0.61425 0.50593 0.0
C55 C 0.15284 0.58783 0.30057 0.0
C56 C 0.07634 0.55824 0.41631 0.0
C57 C 0.18493 0.67135 0.38468 0.0
O58 O 0.16703 0.58203 0.34366 0.0
O59 O 0.13377 0.60036 0.31239 0.0
O60 O 0.15274 0.65853 0.39297 0.0
O61 O 0.19647 0.65102 0.39225 0.0
C62 C 0.16178 0.59754 0.51787 0.0
O63 O 0.08758 0.59047 0.4176 0.0
O64 O 0.09898 0.5494 0.4115 0.0
In65 In 0.53546 0.14586 0.74208 0.0
O66 O 0.57974 0.17084 0.80823 0.0
O67 O 0.52772 0.14835 0.83935 0.0
C68 C 0.56052 0.15461 0.63412 0.0
C69 C 0.51378 0.07821 0.74979 0.0
C70 C 0.50875 0.1865 0.71798 0.0
O71 O 0.58048 0.16881 0.67727 0.0
O72 O 0.5289 0.13552 0.64584 0.0
O73 O 0.48944 0.15435 0.72623 0.0
O74 O 0.54066 0.19807 0.72565 0.0
C75 C 0.55957 0.16353 0.85138 0.0
O76 O 0.49264 0.08933 0.75096 0.0
O77 O 0.54526 0.1009 0.74508 0.0
In78 In 0.45159 0.60404 0.5762 0.0
O79 O 0.40733 0.58488 0.51002 0.0
O80 O 0.45937 0.61423 0.47893 0.0
C81 C 0.4265 0.58793 0.68415 0.0
C82 C 0.47314 0.55792 0.56854 0.0
C83 C 0.47844 0.67139 0.60027 0.0
O84 O 0.40656 0.58219 0.64097 0.0
O85 O 0.4581 0.60032 0.67247 0.0
O86 O 0.4977 0.65844 0.59206 0.0
O87 O 0.44652 0.65114 0.59259 0.0
C88 C 0.42751 0.59768 0.46688 0.0
O89 O 0.49433 0.59012 0.56737 0.0
O90 O 0.44168 0.54925 0.57321 0.0
In91 In 0.84248 0.4531 0.90874 0.0
O92 O 0.81757 0.40885 0.84263 0.0
O93 O 0.83991 0.46075 0.81147 0.0
C94 C 0.83373 0.42809 0.0167 0.0
C95 C 0.91027 0.47499 0.90098 0.0
C96 C 0.80179 0.47976 0.93292 0.0
O97 O 0.8195 0.40816 0.97355 0.0
O98 O 0.85285 0.45964 0.00499 0.0
O99 O 0.83398 0.49903 0.92463 0.0
O100 O 0.79019 0.4479 0.92522 0.0
C101 C 0.82481 0.42895 0.79946 0.0
O102 O 0.89902 0.49599 0.89977 0.0
O103 O 0.88764 0.44353 0.90576 0.0
In104 In 0.38507 0.84479 0.24214 0.0
O105 O 0.40453 0.81998 0.17601 0.0
O106 O 0.37482 0.84223 0.14486 0.0
C107 C 0.40151 0.83617 0.3501 0.0
C108 C 0.43085 0.91249 0.23441 0.0
C109 C 0.3177 0.80398 0.26626 0.0
O110 O 0.40729 0.82201 0.30695 0.0
O111 O 0.3889 0.85516 0.33838 0.0
O112 O 0.3305 0.83611 0.25798 0.0
O113 O 0.3381 0.7925 0.25861 0.0
C114 C 0.39161 0.8272 0.13284 0.0
O115 O 0.39855 0.90121 0.23322 0.0
O116 O 0.43978 0.88994 0.23914 0.0
In117 In 0.53486 0.38632 0.57604 0.0
O118 O 0.57917 0.40571 0.50998 0.0
O119 O 0.52716 0.37615 0.47873 0.0
C120 C 0.55983 0.40254 0.68411 0.0
C121 C 0.51298 0.43218 0.56843 0.0
C122 C 0.50839 0.31903 0.59993 0.0
O123 O 0.57983 0.4084 0.64101 0.0
O124 O 0.52821 0.38996 0.67229 0.0
O125 O 0.48898 0.33178 0.59168 0.0
O126 O 0.54029 0.33943 0.59237 0.0
C127 C 0.55902 0.39286 0.46678 0.0
O128 O 0.49192 0.39995 0.56714 0.0
O129 O 0.54449 0.441 0.57319 0.0
In130 In 0.14403 0.53738 0.90861 0.0
O131 O 0.08748 0.49449 0.89956 0.0
O132 O 0.09886 0.54695 0.90565 0.0
C133 C 0.18471 0.51072 0.93278 0.0
C134 C 0.16172 0.56153 0.79939 0.0
C135 C 0.1528 0.56243 0.01662 0.0
O136 O 0.15251 0.49144 0.92441 0.0
O137 O 0.19631 0.54258 0.92517 0.0
O138 O 0.16701 0.58235 0.9735 0.0
O139 O 0.13368 0.53087 0.00484 0.0
C140 C 0.07623 0.51549 0.90083 0.0
O141 O 0.16895 0.58163 0.84261 0.0
O142 O 0.14661 0.52973 0.81132 0.0
In143 In 0.60212 0.14586 0.24215 0.0
O144 O 0.58853 0.08941 0.23311 0.0
O145 O 0.54737 0.10077 0.23919 0.0
C146 C 0.66953 0.18661 0.26615 0.0
C147 C 0.59555 0.16349 0.13296 0.0
C148 C 0.5859 0.15457 0.35021 0.0
O149 O 0.6567 0.15447 0.2578 0.0
O150 O 0.64915 0.19811 0.25863 0.0
O151 O 0.58005 0.16871 0.30713 0.0
O152 O 0.59846 0.13556 0.33838 0.0
C153 C 0.55625 0.07817 0.23437 0.0
O154 O 0.58268 0.17073 0.17618 0.0
O155 O 0.61228 0.14839 0.14486 0.0
C156 C 0.40166 0.58134 0.29581 0.0
C157 C 0.39774 0.57386 0.24466 0.0
C158 C 0.40808 0.58769 0.35629 0.0
C159 C 0.41558 0.59151 0.40744 0.0
C160 C 0.81562 0.40321 0.62839 0.0
C161 C 0.81928 0.39936 0.57726 0.0
C162 C 0.81557 0.40955 0.68888 0.0
C163 C 0.81915 0.41702 0.74003 0.0
C164 C 0.40828 0.81805 0.96181 0.0
C165 C 0.41582 0.82168 0.91069 0.0
C166 C 0.40184 0.81801 0.02227 0.0
C167 C 0.39791 0.82158 0.07341 0.0
C168 C 0.58491 0.40941 0.29578 0.0
C169 C 0.58884 0.41692 0.24466 0.0
C170 C 0.57849 0.40301 0.35624 0.0
C171 C 0.57097 0.39912 0.40736 0.0
C172 C 0.17106 0.58736 0.62841 0.0
C173 C 0.16746 0.59126 0.57728 0.0
C174 C 0.17104 0.58097 0.68887 0.0
C175 C 0.16742 0.57347 0.73999 0.0
C176 C 0.58537 0.17281 0.02244 0.0
C177 C 0.58926 0.16919 0.07357 0.0
C178 C 0.57899 0.17282 0.96197 0.0
C179 C 0.5715 0.16921 0.91082 0.0
C180 C 0.25669 0.49362 0.00596 0.0
C181 C 0.28363 0.49865 0.02705 0.0
C182 C 0.22819 0.49357 0.97874 0.0
C183 C 0.20625 0.49853 0.95762 0.0
C184 C 0.75875 0.25871 0.33884 0.0
C185 C 0.78067 0.28564 0.35983 0.0
C186 C 0.73026 0.23018 0.31179 0.0
C187 C 0.70333 0.20821 0.29082 0.0
C188 C 0.49576 0.76063 0.67279 0.0
C189 C 0.49083 0.78262 0.69367 0.0
C190 C 0.49572 0.73209 0.64585 0.0
C191 C 0.49071 0.70516 0.62492 0.0
C192 C 0.72981 0.49689 0.00607 0.0
C193 C 0.70289 0.49191 0.02715 0.0
C194 C 0.7583 0.49691 0.97887 0.0
C195 C 0.78024 0.49194 0.95776 0.0
C196 C 0.22852 0.73196 0.33904 0.0
C197 C 0.20655 0.70507 0.36001 0.0
C198 C 0.25703 0.76043 0.31199 0.0
C199 C 0.28394 0.78237 0.29099 0.0
C200 C 0.49153 0.22997 0.67239 0.0
C201 C 0.49654 0.20805 0.69332 0.0
C202 C 0.49144 0.25842 0.64543 0.0
C203 C 0.49631 0.28529 0.62453 0.0
C204 C 0.47938 0.49868 0.08775 0.0
C205 C 0.45612 0.50506 0.0861 0.0
C206 C 0.50736 0.49229 0.08778 0.0
C207 C 0.53059 0.48588 0.08616 0.0
C208 C 0.97624 0.48152 0.42031 0.0
C209 C 0.94664 0.4582 0.41868 0.0
C210 C 0.01057 0.50956 0.42031 0.0
C211 C 0.04018 0.53285 0.41868 0.0
C212 C 0.49697 0.0126 0.75382 0.0
C213 C 0.50318 0.04214 0.75216 0.0
C214 C 0.49079 0.97834 0.75384 0.0
C215 C 0.48455 0.94879 0.75222 0.0
C216 C 0.48986 0.50902 0.56456 0.0
C217 C 0.48368 0.53238 0.56619 0.0
C218 C 0.49604 0.48092 0.56453 0.0
C219 C 0.50229 0.45761 0.56611 0.0
C220 C 0.01043 0.4984 0.89685 0.0
C221 C 0.04006 0.50475 0.89848 0.0
C222 C 0.97606 0.49206 0.8969 0.0
C223 C 0.94643 0.48572 0.89857 0.0
C224 C 0.47949 0.97819 0.23037 0.0
C225 C 0.45622 0.94861 0.23202 0.0
C226 C 0.50753 0.01249 0.23036 0.0
C227 C 0.53082 0.04207 0.232 0.0
C228 C 0.41057 0.58074 0.79543 0.0
C229 C 0.41512 0.58301 0.74351 0.0
C230 C 0.40834 0.57855 0.85673 0.0
C231 C 0.40603 0.57403 0.90865 0.0
C232 C 0.82519 0.41005 0.18929 0.0
C233 C 0.82745 0.40777 0.24122 0.0
C234 C 0.82516 0.41224 0.12799 0.0
C235 C 0.82737 0.41676 0.07607 0.0
C236 C 0.4113 0.82777 0.52267 0.0
C237 C 0.41585 0.82999 0.57461 0.0
C238 C 0.409 0.82774 0.46139 0.0
C239 C 0.4066 0.82991 0.40947 0.0
C240 C 0.57571 0.40984 0.79544 0.0
C241 C 0.57116 0.40753 0.74351 0.0
C242 C 0.57797 0.41209 0.85674 0.0
C243 C 0.58034 0.41665 0.90867 0.0
C244 C 0.16138 0.57833 0.12793 0.0
C245 C 0.15916 0.57378 0.076 0.0
C246 C 0.16138 0.58055 0.18923 0.0
C247 C 0.15917 0.58286 0.24117 0.0
C248 C 0.57641 0.16314 0.52283 0.0
C249 C 0.57187 0.16094 0.57476 0.0
C250 C 0.57863 0.16313 0.46155 0.0
C251 C 0.58093 0.1609 0.40961 0.0
loop_
_geom_bond_atom_site_label_1
_geom_bond_atom_site_label_2
_geom_bond_distance
_geom_bond_site_symmetry_2
_ccdc_geom_bond_type
In0 O1 2.294 . S
In0 O2 2.326 . S
In0 O6 2.266 . S
In0 O7 2.326 1_554 S
In0 O8 2.266 . S
In0 O9 2.326 . S
In0 O11 2.294 . S
In0 O12 2.326 . S
O1 In0 2.294 . S
O1 C10 1.240 . S
O2 In0 2.326 . S
O2 C10 1.252 . S
C3 O6 1.252 1_556 S
C3 O7 1.260 . S
C4 O11 1.240 . S
C4 O12 1.252 . S
C5 O8 1.252 . S
C5 O9 1.260 . S
O6 In0 2.266 . S
O6 C3 1.252 1_554 S
O7 In0 2.326 1_556 S
O7 C3 1.260 . S
O8 In0 2.266 . S
O8 C5 1.252 . S
O9 In0 2.326 . S
O9 C5 1.260 . S
C10 O1 1.240 . S
C10 O2 1.252 . S
O11 In0 2.294 . S
O11 C4 1.240 . S
O12 In0 2.326 . S
O12 C4 1.252 . S
In13 O14 2.294 . S
In13 O15 2.326 . S
In13 O19 2.266 . S
In13 O20 2.326 . S
In13 O21 2.266 . S
In13 O22 2.326 . S
In13 O24 2.294 . S
In13 O25 2.326 . S
O14 In13 2.294 . S
O14 C23 1.240 . S
O15 In13 2.326 . S
O15 C23 1.252 . S
C16 O19 1.252 . S
C16 O20 1.260 . S
C17 O24 1.240 . S
C17 O25 1.252 . S
C18 O21 1.252 . S
C18 O22 1.260 . S
O19 In13 2.266 . S
O19 C16 1.252 . S
O20 In13 2.326 . S
O20 C16 1.260 . S
O21 In13 2.266 . S
O21 C18 1.252 . S
O22 In13 2.326 . S
O22 C18 1.260 . S
C23 O14 1.240 . S
C23 O15 1.252 . S
O24 In13 2.294 . S
O24 C17 1.240 . S
O25 In13 2.326 . S
O25 C17 1.252 . S
In26 O27 2.294 . S
In26 O28 2.326 . S
In26 O32 2.266 . S
In26 O33 2.326 . S
In26 O34 2.266 . S
In26 O35 2.326 . S
In26 O37 2.294 . S
In26 O38 2.326 . S
O27 In26 2.294 . S
O27 C36 1.240 . S
O28 In26 2.326 . S
O28 C36 1.252 . S
C29 O32 1.252 . S
C29 O33 1.260 . S
C30 O37 1.240 . S
C30 O38 1.252 . S
C31 O34 1.252 . S
C31 O35 1.260 . S
O32 In26 2.266 . S
O32 C29 1.252 . S
O33 In26 2.326 . S
O33 C29 1.260 . S
O34 In26 2.266 . S
O34 C31 1.252 . S
O35 In26 2.326 . S
O35 C31 1.260 . S
C36 O27 1.240 . S
C36 O28 1.252 . S
O37 In26 2.294 . S
O37 C30 1.240 . S
O38 In26 2.326 . S
O38 C30 1.252 . S
In39 O40 2.294 . S
In39 O41 2.326 . S
In39 O45 2.266 . S
In39 O46 2.326 1_554 S
In39 O47 2.266 . S
In39 O48 2.326 . S
In39 O50 2.294 . S
In39 O51 2.326 . S
O40 In39 2.294 . S
O40 C49 1.240 . S
O41 In39 2.326 . S
O41 C49 1.252 . S
C42 O45 1.252 1_556 S
C42 O46 1.260 . S
C43 O50 1.240 . S
C43 O51 1.252 . S
C44 O47 1.252 . S
C44 O48 1.260 . S
O45 In39 2.266 . S
O45 C42 1.252 1_554 S
O46 In39 2.326 1_556 S
O46 C42 1.260 . S
O47 In39 2.266 . S
O47 C44 1.252 . S
O48 In39 2.326 . S
O48 C44 1.260 . S
C49 O40 1.240 . S
C49 O41 1.252 . S
O50 In39 2.294 . S
O50 C43 1.240 . S
O51 In39 2.326 . S
O51 C43 1.252 . S
In52 O53 2.294 . S
In52 O54 2.326 . S
In52 O58 2.266 . S
In52 O59 2.326 . S
In52 O60 2.266 . S
In52 O61 2.326 . S
In52 O63 2.294 . S
In52 O64 2.326 . S
O53 In52 2.294 . S
O53 C62 1.240 . S
O54 In52 2.326 . S
O54 C62 1.252 . S
C55 O58 1.252 . S
C55 O59 1.260 . S
C56 O63 1.240 . S
C56 O64 1.252 . S
C57 O60 1.252 . S
C57 O61 1.260 . S
O58 In52 2.266 . S
O58 C55 1.252 . S
O59 In52 2.326 . S
O59 C55 1.260 . S
O60 In52 2.266 . S
O60 C57 1.252 . S
O61 In52 2.326 . S
O61 C57 1.260 . S
C62 O53 1.240 . S
C62 O54 1.252 . S
O63 In52 2.294 . S
O63 C56 1.240 . S
O64 In52 2.326 . S
O64 C56 1.252 . S
In65 O66 2.294 . S
In65 O67 2.326 . S
In65 O71 2.266 . S
In65 O72 2.326 . S
In65 O73 2.266 . S
In65 O74 2.326 . S
In65 O76 2.294 . S
In65 O77 2.326 . S
O66 In65 2.294 . S
O66 C75 1.240 . S
O67 In65 2.326 . S
O67 C75 1.252 . S
C68 O71 1.252 . S
C68 O72 1.260 . S
C69 O76 1.240 . S
C69 O77 1.252 . S
C70 O73 1.252 . S
C70 O74 1.260 . S
O71 In65 2.266 . S
O71 C68 1.252 . S
O72 In65 2.326 . S
O72 C68 1.260 . S
O73 In65 2.266 . S
O73 C70 1.252 . S
O74 In65 2.326 . S
O74 C70 1.260 . S
C75 O66 1.240 . S
C75 O67 1.252 . S
O76 In65 2.294 . S
O76 C69 1.240 . S
O77 In65 2.326 . S
O77 C69 1.252 . S
In78 O79 2.294 . S
In78 O80 2.326 . S
In78 O84 2.266 . S
In78 O85 2.326 . S
In78 O86 2.266 . S
In78 O87 2.326 . S
In78 O89 2.294 . S
In78 O90 2.326 . S
O79 In78 2.294 . S
O79 C88 1.240 . S
O80 In78 2.326 . S
O80 C88 1.252 . S
C81 O84 1.252 . S
C81 O85 1.260 . S
C82 O89 1.240 . S
C82 O90 1.252 . S
C83 O86 1.252 . S
C83 O87 1.260 . S
O84 In78 2.266 . S
O84 C81 1.252 . S
O85 In78 2.326 . S
O85 C81 1.260 . S
O86 In78 2.266 . S
O86 C83 1.252 . S
O87 In78 2.326 . S
O87 C83 1.260 . S
C88 O79 1.240 . S
C88 O80 1.252 . S
O89 In78 2.294 . S
O89 C82 1.240 . S
O90 In78 2.326 . S
O90 C82 1.252 . S
In91 O92 2.294 . S
In91 O93 2.326 . S
In91 O97 2.266 . S
In91 O98 2.326 1_556 S
In91 O99 2.266 . S
In91 O100 2.326 . S
In91 O102 2.294 . S
In91 O103 2.326 . S
O92 In91 2.294 . S
O92 C101 1.240 . S
O93 In91 2.326 . S
O93 C101 1.252 . S
C94 O97 1.252 1_554 S
C94 O98 1.260 . S
C95 O102 1.240 . S
C95 O103 1.252 . S
C96 O99 1.252 . S
C96 O100 1.260 . S
O97 In91 2.266 . S
O97 C94 1.252 1_556 S
O98 In91 2.326 1_554 S
O98 C94 1.260 . S
O99 In91 2.266 . S
O99 C96 1.252 . S
O100 In91 2.326 . S
O100 C96 1.260 . S
C101 O92 1.240 . S
C101 O93 1.252 . S
O102 In91 2.294 . S
O102 C95 1.240 . S
O103 In91 2.326 . S
O103 C95 1.252 . S
In104 O105 2.294 . S
In104 O106 2.326 . S
In104 O110 2.266 . S
In104 O111 2.326 . S
In104 O112 2.266 . S
In104 O113 2.326 . S
In104 O115 2.294 . S
In104 O116 2.326 . S
O105 In104 2.294 . S
O105 C114 1.240 . S
O106 In104 2.326 . S
O106 C114 1.252 . S
C107 O110 1.252 . S
C107 O111 1.260 . S
C108 O115 1.240 . S
C108 O116 1.252 . S
C109 O112 1.252 . S
C109 O113 1.260 . S
O110 In104 2.266 . S
O110 C107 1.252 . S
O111 In104 2.326 . S
O111 C107 1.260 . S
O112 In104 2.266 . S
O112 C109 1.252 . S
O113 In104 2.326 . S
O113 C109 1.260 . S
C114 O105 1.240 . S
C114 O106 1.252 . S
O115 In104 2.294 . S
O115 C108 1.240 . S
O116 In104 2.326 . S
O116 C108 1.252 . S
In117 O118 2.294 . S
In117 O119 2.326 . S
In117 O123 2.266 . S
In117 O124 2.326 . S
In117 O125 2.266 . S
In117 O126 2.326 . S
In117 O128 2.294 . S
In117 O129 2.326 . S
O118 In117 2.294 . S
O118 C127 1.240 . S
O119 In117 2.326 . S
O119 C127 1.252 . S
C120 O123 1.252 . S
C120 O124 1.260 . S
C121 O128 1.240 . S
C121 O129 1.252 . S
C122 O125 1.252 . S
C122 O126 1.260 . S
O123 In117 2.266 . S
O123 C120 1.252 . S
O124 In117 2.326 . S
O124 C120 1.260 . S
O125 In117 2.266 . S
O125 C122 1.252 . S
O126 In117 2.326 . S
O126 C122 1.260 . S
C127 O118 1.240 . S
C127 O119 1.252 . S
O128 In117 2.294 . S
O128 C121 1.240 . S
O129 In117 2.326 . S
O129 C121 1.252 . S
In130 O131 2.294 . S
In130 O132 2.326 . S
In130 O136 2.266 . S
In130 O137 2.326 . S
In130 O138 2.266 . S
In130 O139 2.326 1_556 S
In130 O141 2.294 . S
In130 O142 2.326 . S
O131 In130 2.294 . S
O131 C140 1.240 . S
O132 In130 2.326 . S
O132 C140 1.252 . S
C133 O136 1.252 . S
C133 O137 1.260 . S
C134 O141 1.240 . S
C134 O142 1.252 . S
C135 O138 1.252 1_554 S
C135 O139 1.260 . S
O136 In130 2.266 . S
O136 C133 1.252 . S
O137 In130 2.326 . S
O137 C133 1.260 . S
O138 In130 2.266 . S
O138 C135 1.252 1_556 S
O139 In130 2.326 1_554 S
O139 C135 1.260 . S
C140 O131 1.240 . S
C140 O132 1.252 . S
O141 In130 2.294 . S
O141 C134 1.240 . S
O142 In130 2.326 . S
O142 C134 1.252 . S
In143 O144 2.294 . S
In143 O145 2.326 . S
In143 O149 2.266 . S
In143 O150 2.326 . S
In143 O151 2.266 . S
In143 O152 2.326 . S
In143 O154 2.294 . S
In143 O155 2.326 . S
O144 In143 2.294 . S
O144 C153 1.240 . S
O145 In143 2.326 . S
O145 C153 1.252 . S
C146 O149 1.252 . S
C146 O150 1.260 . S
C147 O154 1.240 . S
C147 O155 1.252 . S
C148 O151 1.252 . S
C148 O152 1.260 . S
O149 In143 2.266 . S
O149 C146 1.252 . S
O150 In143 2.326 . S
O150 C146 1.260 . S
O151 In143 2.266 . S
O151 C148 1.252 . S
O152 In143 2.326 . S
O152 C148 1.260 . S
C153 O144 1.240 . S
C153 O145 1.252 . S
O154 In143 2.294 . S
O154 C147 1.240 . S
O155 In143 2.326 . S
O155 C147 1.252 . S
C156 C157 1.170 . S
C156 C158 1.380 . S
C157 C156 1.170 . S
C158 C156 1.380 . S
C158 C159 1.170 . S
C159 C158 1.170 . S
C160 C161 1.170 . S
C160 C162 1.380 . S
C161 C160 1.170 . S
C162 C160 1.380 . S
C162 C163 1.170 . S
C163 C162 1.170 . S
C164 C165 1.170 . S
C164 C166 1.380 1_556 S
C165 C164 1.170 . S
C166 C164 1.380 1_554 S
C166 C167 1.170 . S
C167 C166 1.170 . S
C168 C169 1.170 . S
C168 C170 1.380 . S
C169 C168 1.170 . S
C170 C168 1.380 . S
C170 C171 1.170 . S
C171 C170 1.170 . S
C172 C173 1.170 . S
C172 C174 1.380 . S
C173 C172 1.170 . S
C174 C172 1.380 . S
C174 C175 1.170 . S
C175 C174 1.170 . S
C176 C177 1.170 . S
C176 C178 1.380 1_554 S
C177 C176 1.170 . S
C178 C176 1.380 1_556 S
C178 C179 1.170 . S
C179 C178 1.170 . S
C180 C181 1.170 . S
C180 C182 1.380 1_554 S
C181 C180 1.170 . S
C182 C180 1.380 1_556 S
C182 C183 1.170 . S
C183 C182 1.170 . S
C184 C185 1.170 . S
C184 C186 1.380 . S
C185 C184 1.170 . S
C186 C184 1.380 . S
C186 C187 1.170 . S
C187 C186 1.170 . S
C188 C189 1.170 . S
C188 C190 1.380 . S
C189 C188 1.170 . S
C190 C188 1.380 . S
C190 C191 1.170 . S
C191 C190 1.170 . S
C192 C193 1.170 . S
C192 C194 1.380 1_554 S
C193 C192 1.170 . S
C194 C192 1.380 1_556 S
C194 C195 1.170 . S
C195 C194 1.170 . S
C196 C197 1.170 . S
C196 C198 1.380 . S
C197 C196 1.170 . S
C198 C196 1.380 . S
C198 C199 1.170 . S
C199 C198 1.170 . S
C200 C201 1.170 . S
C200 C202 1.380 . S
C201 C200 1.170 . S
C202 C200 1.380 . S
C202 C203 1.170 . S
C203 C202 1.170 . S
C204 C205 1.170 . S
C204 C206 1.380 . S
C205 C204 1.170 . S
C206 C204 1.380 . S
C206 C207 1.170 . S
C207 C206 1.170 . S
C208 C209 1.170 . S
C208 C210 1.380 1_655 S
C209 C208 1.170 . S
C210 C208 1.380 1_455 S
C210 C211 1.170 . S
C211 C210 1.170 . S
C212 C213 1.170 . S
C212 C214 1.380 1_545 S
C213 C212 1.170 . S
C214 C212 1.380 1_565 S
C214 C215 1.170 . S
C215 C214 1.170 . S
C216 C217 1.170 . S
C216 C218 1.380 . S
C217 C216 1.170 . S
C218 C216 1.380 . S
C218 C219 1.170 . S
C219 C218 1.170 . S
C220 C221 1.170 . S
C220 C222 1.380 1_455 S
C221 C220 1.170 . S
C222 C220 1.380 1_655 S
C222 C223 1.170 . S
C223 C222 1.170 . S
C224 C225 1.170 . S
C224 C226 1.380 1_565 S
C225 C224 1.170 . S
C226 C224 1.380 1_545 S
C226 C227 1.170 . S
C227 C226 1.170 . S
C228 C229 1.170 . S
C228 C230 1.380 . S
C229 C228 1.170 . S
C230 C228 1.380 . S
C230 C231 1.170 . S
C231 C230 1.170 . S
C232 C233 1.170 . S
C232 C234 1.380 . S
C233 C232 1.170 . S
C234 C232 1.380 . S
C234 C235 1.170 . S
C235 C234 1.170 . S
C236 C237 1.170 . S
C236 C238 1.380 . S
C237 C236 1.170 . S
C238 C236 1.380 . S
C238 C239 1.170 . S
C239 C238 1.170 . S
C240 C241 1.170 . S
C240 C242 1.380 . S
C241 C240 1.170 . S
C242 C240 1.380 . S
C242 C243 1.170 . S
C243 C242 1.170 . S
C244 C245 1.170 . S
C244 C246 1.380 . S
C245 C244 1.170 . S
C246 C244 1.380 . S
C246 C247 1.170 . S
C247 C246 1.170 . S
C248 C249 1.170 . S
C248 C250 1.380 . S
C249 C248 1.170 . S
C250 C248 1.380 . S
C250 C251 1.170 . S
C251 C250 1.170 . S
C157 C10 1.461 . S
C159 C88 1.433 . S
C161 C23 1.440 . S
C163 C101 1.457 . S
C165 C36 1.462 . S
C167 C114 1.434 . S
C169 C49 1.459 . S
C171 C127 1.435 . S
C173 C62 1.446 . S
C175 C134 1.452 . S
C177 C147 1.453 . S
C179 C75 1.445 . S
C181 C5 1.425 . S
C183 C133 1.418 . S
C185 C18 1.398 . S
C187 C146 1.401 . S
C189 C31 1.426 . S
C191 C83 1.418 . S
C193 C44 1.424 . S
C195 C96 1.412 . S
C197 C57 1.397 . S
C199 C109 1.404 . S
C201 C70 1.400 . S
C203 C122 1.399 . S
C205 C4 1.515 . S
C207 C43 1.517 . S
C209 C17 1.502 . S
C211 C56 1.502 . S
C213 C69 1.502 . S
C215 C30 1.529 . S
C217 C82 1.493 . S
C219 C121 1.526 . S
C221 C140 1.511 . S
C223 C95 1.522 . S
C225 C108 1.510 . S
C227 C153 1.524 . S
C229 C81 1.266 . S
C231 C3 1.225 . S
C233 C16 1.261 . S
C235 C94 1.255 . S
C237 C29 1.228 . S
C239 C107 1.233 . S
C241 C120 1.219 . S
C243 C42 1.249 . S
C245 C135 1.237 . S
C247 C55 1.224 . S
C249 C68 1.256 . S
C251 C148 1.219 . S
