# Generated by pormake.
# Topology ghw, (5)-cn, num edge types: 1
# Building blocks:
#     Node 0, Type 0, BuildingBlock: XOMCOT_clean_sbu_0, # of connection points: 5
#     Node 1, Type 0, BuildingBlock: XOMCOT_clean_sbu_0, # of connection points: 5
#     Node 2, Type 0, BuildingBlock: XOMCOT_clean_sbu_0, # of connection points: 5
#     Node 3, Type 0, BuildingBlock: XOMCOT_clean_sbu_0, # of connection points: 5
#     Node 4, Type 0, BuildingBlock: XOMCOT_clean_sbu_0, # of connection points: 5
#     Node 5, Type 0, BuildingBlock: XOMCOT_clean_sbu_0, # of connection points: 5
#     Node 6, Type 0, BuildingBlock: XOMCOT_clean_sbu_0, # of connection points: 5
#     Node 7, Type 0, BuildingBlock: XOMCOT_clean_sbu_0, # of connection points: 5
#     Node 8, Type 0, BuildingBlock: XOMCOT_clean_sbu_0, # of connection points: 5
#     Node 9, Type 0, BuildingBlock: XOMCOT_clean_sbu_0, # of connection points: 5
#     Node 10, Type 0, BuildingBlock: XOMCOT_clean_sbu_0, # of connection points: 5
#     Node 11, Type 0, BuildingBlock: XOMCOT_clean_sbu_0, # of connection points: 5
#     Node 12, Type 0, BuildingBlock: XOMCOT_clean_sbu_0, # of connection points: 5
#     Node 13, Type 0, BuildingBlock: XOMCOT_clean_sbu_0, # of connection points: 5
#     Node 14, Type 0, BuildingBlock: XOMCOT_clean_sbu_0, # of connection points: 5
#     Node 15, Type 0, BuildingBlock: XOMCOT_clean_sbu_0, # of connection points: 5
#     Edge 16, Type (0, 0), BuildingBlock: UVAHIK_clean_linker_0, # of connection points: 2
#     Edge 17, Type (0, 0), BuildingBlock: UVAHIK_clean_linker_0, # of connection points: 2
#     Edge 18, Type (0, 0), BuildingBlock: UVAHIK_clean_linker_0, # of connection points: 2
#     Edge 19, Type (0, 0), BuildingBlock: UVAHIK_clean_linker_0, # of connection points: 2
#     Edge 20, Type (0, 0), BuildingBlock: UVAHIK_clean_linker_0, # of connection points: 2
#     Edge 21, Type (0, 0), BuildingBlock: UVAHIK_clean_linker_0, # of connection points: 2
#     Edge 22, Type (0, 0), BuildingBlock: UVAHIK_clean_linker_0, # of connection points: 2
#     Edge 23, Type (0, 0), BuildingBlock: UVAHIK_clean_linker_0, # of connection points: 2
#     Edge 24, Type (0, 0), BuildingBlock: UVAHIK_clean_linker_0, # of connection points: 2
#     Edge 25, Type (0, 0), BuildingBlock: UVAHIK_clean_linker_0, # of connection points: 2
#     Edge 26, Type (0, 0), BuildingBlock: UVAHIK_clean_linker_0, # of connection points: 2
#     Edge 27, Type (0, 0), BuildingBlock: UVAHIK_clean_linker_0, # of connection points: 2
#     Edge 28, Type (0, 0), BuildingBlock: UVAHIK_clean_linker_0, # of connection points: 2
#     Edge 29, Type (0, 0), BuildingBlock: UVAHIK_clean_linker_0, # of connection points: 2
#     Edge 30, Type (0, 0), BuildingBlock: UVAHIK_clean_linker_0, # of connection points: 2
#     Edge 31, Type (0, 0), BuildingBlock: UVAHIK_clean_linker_0, # of connection points: 2
#     Edge 32, Type (0, 0), BuildingBlock: UVAHIK_clean_linker_0, # of connection points: 2
#     Edge 33, Type (0, 0), BuildingBlock: UVAHIK_clean_linker_0, # of connection points: 2
#     Edge 34, Type (0, 0), BuildingBlock: UVAHIK_clean_linker_0, # of connection points: 2
#     Edge 35, Type (0, 0), BuildingBlock: UVAHIK_clean_linker_0, # of connection points: 2
#     Edge 36, Type (0, 0), BuildingBlock: UVAHIK_clean_linker_0, # of connection points: 2
#     Edge 37, Type (0, 0), BuildingBlock: UVAHIK_clean_linker_0, # of connection points: 2
#     Edge 38, Type (0, 0), BuildingBlock: UVAHIK_clean_linker_0, # of connection points: 2
#     Edge 39, Type (0, 0), BuildingBlock: UVAHIK_clean_linker_0, # of connection points: 2
#     Edge 40, Type (0, 0), BuildingBlock: UVAHIK_clean_linker_0, # of connection points: 2
#     Edge 41, Type (0, 0), BuildingBlock: UVAHIK_clean_linker_0, # of connection points: 2
#     Edge 42, Type (0, 0), BuildingBlock: UVAHIK_clean_linker_0, # of connection points: 2
#     Edge 43, Type (0, 0), BuildingBlock: UVAHIK_clean_linker_0, # of connection points: 2
#     Edge 44, Type (0, 0), BuildingBlock: UVAHIK_clean_linker_0, # of connection points: 2
#     Edge 45, Type (0, 0), BuildingBlock: UVAHIK_clean_linker_0, # of connection points: 2
#     Edge 46, Type (0, 0), BuildingBlock: UVAHIK_clean_linker_0, # of connection points: 2
#     Edge 47, Type (0, 0), BuildingBlock: UVAHIK_clean_linker_0, # of connection points: 2
#     Edge 48, Type (0, 0), BuildingBlock: UVAHIK_clean_linker_0, # of connection points: 2
#     Edge 49, Type (0, 0), BuildingBlock: UVAHIK_clean_linker_0, # of connection points: 2
#     Edge 50, Type (0, 0), BuildingBlock: UVAHIK_clean_linker_0, # of connection points: 2
#     Edge 51, Type (0, 0), BuildingBlock: UVAHIK_clean_linker_0, # of connection points: 2
#     Edge 52, Type (0, 0), BuildingBlock: UVAHIK_clean_linker_0, # of connection points: 2
#     Edge 53, Type (0, 0), BuildingBlock: UVAHIK_clean_linker_0, # of connection points: 2
#     Edge 54, Type (0, 0), BuildingBlock: UVAHIK_clean_linker_0, # of connection points: 2
#     Edge 55, Type (0, 0), BuildingBlock: UVAHIK_clean_linker_0, # of connection points: 2
# Relax obj value: 0.149
# Max RMSD: 0.189
# Mean RMSD: 0.189
data_MOF--net-ghw--node1-XOMCOT_clean_sbu_0--edge1-UVAHIK_clean_linker_0
_symmetry_space_group_name_H-M    P1
_symmetry_Int_Tables_number       1
_symmetry_cell_setting            triclinic
loop_
_symmetry_equiv_pos_as_xyz
'x, y, z'
_cell_length_a     41.515489
_cell_length_b     52.840483
_cell_length_c     44.296251
_cell_angle_alpha  90.05323
_cell_angle_beta   91.412498
_cell_angle_gamma 89.995272
loop_
_atom_site_label
_atom_site_type_symbol
_atom_site_fract_x
_atom_site_fract_y
_atom_site_fract_z
_atom_type_partial_charge
Co0 Co 0.12788 0.13282 0.40043 0.0
C1 C 0.19126 0.10573 0.40185 0.0
C2 C 0.16457 0.10043 0.44213 0.0
C3 C 0.19346 0.08793 0.44548 0.0
N4 N 0.16295 0.1113 0.4146 0.0
N5 N 0.21023 0.09129 0.42011 0.0
H6 H 0.19873 0.1129 0.38042 0.0
H7 H 0.14602 0.10172 0.45879 0.0
C8 C 0.09923 0.08204 0.41174 0.0
O9 O 0.12361 0.07203 0.39759 0.0
N10 N 0.09299 0.15441 0.38727 0.0
C11 C 0.09346 0.1716 0.36488 0.0
C12 C 0.06293 0.18143 0.36097 0.0
C13 C 0.06249 0.15407 0.39685 0.0
N14 N 0.04345 0.17029 0.38101 0.0
C15 C 0.15407 0.12839 0.34142 0.0
C16 C 0.10401 0.10119 0.3151 0.0
C17 C 0.12926 0.1092 0.29686 0.0
C18 C 0.1545 0.12299 0.3106 0.0
C19 C 0.1044 0.10723 0.34591 0.0
N20 N 0.12978 0.11998 0.35906 0.0
H21 H 0.17279 0.14043 0.35073 0.0
H22 H 0.08342 0.1026 0.35867 0.0
H23 H 0.11429 0.17606 0.3517 0.0
H24 H 0.05438 0.14198 0.41481 0.0
O25 O 0.1576 0.16084 0.39739 0.0
O26 O 0.13096 0.15097 0.43841 0.0
O27 O 0.09605 0.10608 0.4131 0.0
C28 C 0.1517 0.16564 0.4255 0.0
H29 H 0.20154 0.0774 0.46519 0.0
H30 H 0.05545 0.19496 0.34387 0.0
H31 H 0.08368 0.09081 0.30563 0.0
H32 H 0.17385 0.13066 0.29745 0.0
Co33 Co 0.1193 0.13369 0.86698 0.0
C34 C 0.0575 0.10474 0.86671 0.0
C35 C 0.08516 0.09783 0.82737 0.0
C36 C 0.05661 0.08478 0.8244 0.0
N37 N 0.08597 0.11006 0.85412 0.0
N38 N 0.03925 0.08917 0.84918 0.0
H39 H 0.04923 0.11314 0.88725 0.0
H40 H 0.10381 0.09885 0.81079 0.0
C41 C 0.1527 0.0844 0.8568 0.0
O42 O 0.13027 0.07334 0.87254 0.0
N43 N 0.15244 0.15743 0.87902 0.0
C44 C 0.14974 0.17603 0.89961 0.0
C45 C 0.17948 0.18709 0.90416 0.0
C46 C 0.18359 0.15745 0.87118 0.0
N47 N 0.20074 0.17531 0.88635 0.0
C48 C 0.09475 0.12878 0.92666 0.0
C49 C 0.14758 0.10466 0.95246 0.0
C50 C 0.12195 0.11127 0.97102 0.0
C51 C 0.09532 0.12357 0.95756 0.0
C52 C 0.14618 0.11052 0.92164 0.0
N53 N 0.11942 0.12158 0.90871 0.0
H54 H 0.07494 0.13978 0.91756 0.0
H55 H 0.16734 0.10707 0.90863 0.0
H56 H 0.1279 0.18068 0.91122 0.0
H57 H 0.19382 0.14395 0.85576 0.0
O58 O 0.08723 0.16013 0.8698 0.0
O59 O 0.11393 0.15086 0.8286 0.0
O60 O 0.15302 0.1085 0.85422 0.0
C61 C 0.0923 0.16472 0.84148 0.0
H62 H 0.04902 0.07338 0.80521 0.0
H63 H 0.18508 0.20231 0.91979 0.0
H64 H 0.16896 0.09547 0.96166 0.0
H65 H 0.07556 0.13022 0.97095 0.0
Co66 Co 0.86831 0.88016 0.61556 0.0
C67 C 0.80764 0.91027 0.61823 0.0
C68 C 0.83259 0.916 0.57704 0.0
C69 C 0.8042 0.92946 0.5755 0.0
N70 N 0.83487 0.90411 0.60396 0.0
N71 N 0.78868 0.92585 0.6015 0.0
H72 H 0.80061 0.90257 0.63955 0.0
H73 H 0.85006 0.91444 0.55941 0.0
C74 C 0.90213 0.92941 0.60531 0.0
O75 O 0.88085 0.94091 0.622 0.0
N76 N 0.90159 0.85619 0.6265 0.0
C77 C 0.89906 0.8371 0.64642 0.0
C78 C 0.92888 0.82609 0.65056 0.0
C79 C 0.93274 0.85652 0.61865 0.0
N80 N 0.95004 0.83839 0.63317 0.0
C81 C 0.84492 0.88367 0.67566 0.0
C82 C 0.89693 0.90889 0.70141 0.0
C83 C 0.87139 0.90193 0.71991 0.0
C84 C 0.84533 0.88891 0.70651 0.0
C85 C 0.89564 0.90305 0.67052 0.0
N86 N 0.86914 0.89159 0.65762 0.0
H87 H 0.8253 0.87246 0.66653 0.0
H88 H 0.91657 0.90702 0.65739 0.0
H89 H 0.8773 0.83209 0.65794 0.0
H90 H 0.94289 0.87044 0.60375 0.0
O91 O 0.8362 0.8537 0.61818 0.0
O92 O 0.86222 0.86358 0.57684 0.0
O93 O 0.90174 0.90534 0.60256 0.0
C94 C 0.84085 0.8495 0.5897 0.0
H95 H 0.79538 0.94061 0.55655 0.0
H96 H 0.93462 0.81056 0.66566 0.0
H97 H 0.91798 0.91849 0.71069 0.0
H98 H 0.82575 0.88192 0.71988 0.0
Co99 Co 0.87793 0.88168 0.14983 0.0
C100 C 0.93894 0.91146 0.14785 0.0
C101 C 0.91447 0.91618 0.18949 0.0
C102 C 0.94297 0.92947 0.19131 0.0
N103 N 0.91182 0.90503 0.16212 0.0
N104 N 0.9582 0.92649 0.16504 0.0
H105 H 0.94561 0.90437 0.1261 0.0
H106 H 0.89713 0.91429 0.20717 0.0
C107 C 0.84581 0.93143 0.16058 0.0
O108 O 0.86857 0.94232 0.1451 0.0
N109 N 0.84433 0.85821 0.13824 0.0
C110 C 0.84679 0.83921 0.11815 0.0
C111 C 0.81695 0.82825 0.11397 0.0
C112 C 0.8132 0.85854 0.14615 0.0
N113 N 0.79585 0.84049 0.13151 0.0
C114 C 0.90182 0.88515 0.08987 0.0
C115 C 0.85042 0.91113 0.06418 0.0
C116 C 0.87559 0.90353 0.04557 0.0
C117 C 0.90143 0.89024 0.05897 0.0
C118 C 0.85164 0.9054 0.09507 0.0
N119 N 0.87778 0.89342 0.10792 0.0
H120 H 0.92124 0.87373 0.09902 0.0
H121 H 0.83083 0.90977 0.10819 0.0
H122 H 0.86856 0.83415 0.10667 0.0
H123 H 0.80316 0.87235 0.16129 0.0
O124 O 0.90953 0.85488 0.14712 0.0
O125 O 0.88328 0.86471 0.18838 0.0
O126 O 0.84478 0.9073 0.16265 0.0
C127 C 0.90457 0.85052 0.17549 0.0
H128 H 0.95204 0.9401 0.21062 0.0
H129 H 0.8112 0.81272 0.09883 0.0
H130 H 0.82961 0.92107 0.05498 0.0
H131 H 0.92075 0.88284 0.04557 0.0
Co132 Co 0.12734 0.63383 0.90124 0.0
C133 C 0.18942 0.60526 0.90088 0.0
C134 C 0.16231 0.59817 0.9405 0.0
C135 C 0.19099 0.58523 0.94309 0.0
N136 N 0.16109 0.61044 0.91381 0.0
N137 N 0.208 0.58973 0.91813 0.0
H138 H 0.19736 0.61368 0.88026 0.0
H139 H 0.14383 0.59904 0.95727 0.0
C140 C 0.09456 0.58424 0.91143 0.0
O141 O 0.11711 0.57326 0.89572 0.0
N142 N 0.09381 0.65731 0.88941 0.0
C143 C 0.09631 0.67611 0.86909 0.0
C144 C 0.06644 0.68694 0.86458 0.0
C145 C 0.06262 0.65698 0.89712 0.0
N146 N 0.04526 0.67482 0.88214 0.0
C147 C 0.15185 0.62951 0.84154 0.0
C148 C 0.0998 0.60448 0.81557 0.0
C149 C 0.12535 0.61148 0.79712 0.0
C150 C 0.15154 0.62427 0.81066 0.0
C151 C 0.10094 0.61036 0.84642 0.0
N152 N 0.12735 0.62186 0.85942 0.0
H153 H 0.17137 0.6408 0.8507 0.0
H154 H 0.07986 0.60652 0.85939 0.0
H155 H 0.11813 0.68106 0.85763 0.0
H156 H 0.05251 0.64328 0.91234 0.0
O157 O 0.15903 0.66054 0.89851 0.0
O158 O 0.1326 0.65095 0.93973 0.0
O159 O 0.09398 0.60835 0.91394 0.0
C160 C 0.15401 0.66502 0.92686 0.0
H161 H 0.19887 0.57379 0.96213 0.0
H162 H 0.0607 0.70226 0.84917 0.0
H163 H 0.07872 0.59494 0.80627 0.0
H164 H 0.17117 0.63126 0.79735 0.0
Co165 Co 0.11934 0.63418 0.36725 0.0
C166 C 0.05809 0.6047 0.36974 0.0
C167 C 0.08228 0.59968 0.32799 0.0
C168 C 0.05373 0.58643 0.32645 0.0
N169 N 0.08514 0.61098 0.35526 0.0
N170 N 0.03867 0.5896 0.35278 0.0
H171 H 0.05159 0.61189 0.39148 0.0
H172 H 0.09955 0.60138 0.31022 0.0
C173 C 0.15095 0.58419 0.35673 0.0
O174 O 0.12814 0.57348 0.37231 0.0
N175 N 0.15325 0.65749 0.37856 0.0
C176 C 0.15103 0.67665 0.39847 0.0
C177 C 0.181 0.68741 0.40254 0.0
C178 C 0.18437 0.65686 0.37066 0.0
N179 N 0.20196 0.67489 0.38512 0.0
C180 C 0.09556 0.63111 0.42724 0.0
C181 C 0.14655 0.60467 0.453 0.0
C182 C 0.1213 0.6123 0.4715 0.0
C183 C 0.09573 0.62589 0.45808 0.0
C184 C 0.14552 0.6105 0.42212 0.0
N185 N 0.11953 0.62265 0.40923 0.0
H186 H 0.07631 0.64268 0.41808 0.0
H187 H 0.1663 0.606 0.40903 0.0
H188 H 0.12933 0.68196 0.40992 0.0
H189 H 0.19425 0.64287 0.35565 0.0
O190 O 0.08803 0.66119 0.36988 0.0
O191 O 0.11399 0.651 0.32859 0.0
O192 O 0.15219 0.60829 0.35451 0.0
C193 C 0.09289 0.66537 0.34146 0.0
H194 H 0.04456 0.57565 0.30731 0.0
H195 H 0.18694 0.703 0.41752 0.0
H196 H 0.1672 0.59458 0.46228 0.0
H197 H 0.0764 0.63333 0.47145 0.0
Co198 Co 0.86789 0.38314 0.11748 0.0
C199 C 0.80509 0.41091 0.11709 0.0
C200 C 0.83248 0.41796 0.07762 0.0
C201 C 0.80366 0.43062 0.07465 0.0
N202 N 0.83363 0.40589 0.10445 0.0
N203 N 0.78647 0.42615 0.09951 0.0
H204 H 0.7971 0.40262 0.13777 0.0
H205 H 0.85117 0.41718 0.06106 0.0
C206 C 0.89958 0.43318 0.10716 0.0
O207 O 0.87668 0.44395 0.12261 0.0
N208 N 0.90206 0.36042 0.12954 0.0
C209 C 0.90142 0.34305 0.15171 0.0
C210 C 0.93179 0.3328 0.15528 0.0
C211 C 0.93248 0.36043 0.11973 0.0
N212 N 0.95135 0.34388 0.13526 0.0
C213 C 0.84271 0.3876 0.17688 0.0
C214 C 0.89423 0.41308 0.20318 0.0
C215 C 0.86855 0.40596 0.22142 0.0
C216 C 0.84264 0.39295 0.20772 0.0
C217 C 0.89342 0.40714 0.17233 0.0
N218 N 0.86728 0.39538 0.15917 0.0
H219 H 0.82345 0.37609 0.16762 0.0
H220 H 0.91456 0.41112 0.15948 0.0
H221 H 0.88067 0.33885 0.16512 0.0
H222 H 0.94073 0.37265 0.10196 0.0
O223 O 0.83703 0.35586 0.12035 0.0
O224 O 0.86332 0.36572 0.07913 0.0
O225 O 0.90064 0.40909 0.10477 0.0
C226 C 0.84227 0.35134 0.09204 0.0
H227 H 0.79582 0.4419 0.05545 0.0
H228 H 0.93915 0.31914 0.17227 0.0
H229 H 0.91511 0.42276 0.21266 0.0
H230 H 0.82295 0.38588 0.22089 0.0
Co231 Co 0.87699 0.38143 0.65099 0.0
C232 C 0.93901 0.41 0.64887 0.0
C233 C 0.91507 0.41473 0.6908 0.0
C234 C 0.94389 0.42758 0.69254 0.0
N235 N 0.91187 0.40387 0.6633 0.0
N236 N 0.9588 0.4246 0.6661 0.0
H237 H 0.94524 0.40308 0.62693 0.0
H238 H 0.8978 0.41302 0.70857 0.0
C239 C 0.84657 0.43174 0.66284 0.0
O240 O 0.86966 0.4425 0.64767 0.0
N241 N 0.84229 0.35897 0.63951 0.0
C242 C 0.84261 0.34127 0.61765 0.0
C243 C 0.81213 0.33118 0.61443 0.0
C244 C 0.81192 0.35936 0.64945 0.0
N245 N 0.79281 0.34268 0.63435 0.0
C246 C 0.90047 0.38505 0.59089 0.0
C247 C 0.84971 0.41232 0.56603 0.0
C248 C 0.87442 0.40438 0.54708 0.0
C249 C 0.89995 0.39046 0.56006 0.0
C250 C 0.85104 0.40626 0.59683 0.0
N251 N 0.87686 0.3936 0.60926 0.0
H252 H 0.91957 0.37315 0.59971 0.0
H253 H 0.83052 0.41093 0.61019 0.0
H254 H 0.86324 0.3367 0.60424 0.0
H255 H 0.80388 0.37188 0.66705 0.0
O256 O 0.90745 0.35388 0.6476 0.0
O257 O 0.88208 0.36401 0.68926 0.0
O258 O 0.8449 0.40762 0.66443 0.0
C259 C 0.90269 0.34945 0.67601 0.0
H260 H 0.95331 0.43799 0.71187 0.0
H261 H 0.80455 0.3173 0.59776 0.0
H262 H 0.82914 0.42275 0.55714 0.0
H263 H 0.91889 0.38283 0.54637 0.0
Co264 Co 0.62864 0.13391 0.90057 0.0
C265 C 0.6906 0.10524 0.89842 0.0
C266 C 0.66659 0.10053 0.9403 0.0
C267 C 0.69536 0.08761 0.94203 0.0
N268 N 0.66347 0.11142 0.91284 0.0
N269 N 0.71031 0.09058 0.91561 0.0
H270 H 0.69689 0.11216 0.87651 0.0
H271 H 0.64929 0.10224 0.95805 0.0
C272 C 0.59817 0.08358 0.91206 0.0
O273 O 0.6213 0.07284 0.89688 0.0
N274 N 0.59396 0.15639 0.88915 0.0
C275 C 0.59427 0.17409 0.86733 0.0
C276 C 0.56379 0.18418 0.86414 0.0
C277 C 0.56359 0.156 0.8991 0.0
N278 N 0.54447 0.17267 0.88403 0.0
C279 C 0.65226 0.13037 0.84051 0.0
C280 C 0.60153 0.10319 0.81541 0.0
C281 C 0.62631 0.11113 0.79656 0.0
C282 C 0.65182 0.12501 0.80966 0.0
C283 C 0.60278 0.1092 0.84624 0.0
N284 N 0.62859 0.12182 0.85879 0.0
H285 H 0.67136 0.14224 0.84943 0.0
H286 H 0.58222 0.10453 0.85953 0.0
H287 H 0.6149 0.17867 0.85393 0.0
H288 H 0.55557 0.14347 0.91666 0.0
O289 O 0.65911 0.16145 0.89737 0.0
O290 O 0.63366 0.15125 0.93894 0.0
O291 O 0.59651 0.10769 0.9138 0.0
C292 C 0.65431 0.16582 0.92579 0.0
H293 H 0.70472 0.07716 0.96132 0.0
H294 H 0.55619 0.19806 0.8475 0.0
H295 H 0.58097 0.09279 0.80643 0.0
H296 H 0.67081 0.13265 0.79605 0.0
Co297 Co 0.6181 0.1326 0.36677 0.0
C298 C 0.55738 0.10248 0.36883 0.0
C299 C 0.5817 0.09802 0.32708 0.0
C300 C 0.55334 0.08453 0.32533 0.0
N301 N 0.58435 0.10913 0.35447 0.0
N302 N 0.53822 0.08734 0.35168 0.0
H303 H 0.55071 0.10946 0.39062 0.0
H304 H 0.59896 0.10005 0.30934 0.0
C305 C 0.65049 0.08298 0.35605 0.0
O306 O 0.62782 0.07203 0.37159 0.0
N307 N 0.65157 0.15618 0.37835 0.0
C308 C 0.6491 0.17508 0.39857 0.0
C309 C 0.6789 0.18612 0.40269 0.0
C310 C 0.68264 0.15599 0.3703 0.0
N311 N 0.69996 0.17403 0.38497 0.0
C312 C 0.59421 0.12894 0.42669 0.0
C313 C 0.6458 0.10322 0.45244 0.0
C314 C 0.62041 0.11051 0.47095 0.0
C315 C 0.59451 0.1237 0.45754 0.0
C316 C 0.64462 0.10903 0.42155 0.0
N317 N 0.61837 0.12083 0.40867 0.0
H318 H 0.57472 0.14028 0.41754 0.0
H319 H 0.6655 0.10482 0.40846 0.0
H320 H 0.62736 0.18 0.41019 0.0
H321 H 0.69268 0.14227 0.35503 0.0
O322 O 0.58637 0.15929 0.36955 0.0
O323 O 0.61262 0.1496 0.32824 0.0
O324 O 0.65139 0.1071 0.35392 0.0
C325 C 0.59129 0.16372 0.34118 0.0
H326 H 0.54429 0.07389 0.30603 0.0
H327 H 0.68466 0.20159 0.41792 0.0
H328 H 0.6667 0.09343 0.46172 0.0
H329 H 0.57503 0.13088 0.47092 0.0
Co330 Co 0.36872 0.88279 0.11657 0.0
C331 C 0.30595 0.91056 0.11611 0.0
C332 C 0.33318 0.91731 0.07647 0.0
C333 C 0.30435 0.92995 0.07346 0.0
N334 N 0.33444 0.90545 0.10342 0.0
N335 N 0.28725 0.92567 0.09842 0.0
H336 H 0.29805 0.90242 0.13691 0.0
H337 H 0.3518 0.9164 0.05984 0.0
C338 C 0.40042 0.93272 0.10555 0.0
O339 O 0.3775 0.94364 0.12082 0.0
N340 N 0.40292 0.86013 0.12876 0.0
C341 C 0.40233 0.84292 0.15112 0.0
C342 C 0.43271 0.8327 0.15473 0.0
C343 C 0.43331 0.86007 0.11889 0.0
N344 N 0.45221 0.84363 0.13455 0.0
C345 C 0.34395 0.8877 0.17611 0.0
C346 C 0.39573 0.91332 0.20173 0.0
C347 C 0.37038 0.90615 0.22033 0.0
C348 C 0.34428 0.89312 0.20696 0.0
C349 C 0.39458 0.90724 0.17094 0.0
N350 N 0.36834 0.89537 0.15812 0.0
H351 H 0.32459 0.87616 0.16711 0.0
H352 H 0.41559 0.91114 0.1579 0.0
H353 H 0.38162 0.83883 0.16463 0.0
H354 H 0.44151 0.87216 0.10097 0.0
O355 O 0.33784 0.85556 0.11988 0.0
O356 O 0.36397 0.86507 0.07845 0.0
O357 O 0.40146 0.9086 0.10345 0.0
C358 C 0.34297 0.85081 0.0916 0.0
H359 H 0.29644 0.94108 0.05416 0.0
H360 H 0.44013 0.81916 0.17185 0.0
H361 H 0.41671 0.92309 0.21088 0.0
H362 H 0.3248 0.88604 0.22038 0.0
Co363 Co 0.37749 0.88245 0.64972 0.0
C364 C 0.44051 0.90993 0.65026 0.0
C365 C 0.41322 0.91693 0.68982 0.0
C366 C 0.44216 0.92943 0.69289 0.0
N367 N 0.41194 0.905 0.66288 0.0
N368 N 0.45928 0.92499 0.66797 0.0
H369 H 0.44841 0.90171 0.62949 0.0
H370 H 0.39456 0.91616 0.7064 0.0
C371 C 0.34623 0.93258 0.66048 0.0
O372 O 0.36918 0.94326 0.64503 0.0
N373 N 0.34313 0.85992 0.63752 0.0
C374 C 0.34376 0.84253 0.61533 0.0
C375 C 0.31339 0.83232 0.61172 0.0
C376 C 0.31269 0.85999 0.64729 0.0
N377 N 0.29382 0.84343 0.63174 0.0
C378 C 0.40254 0.88713 0.59031 0.0
C379 C 0.35108 0.91291 0.56438 0.0
C380 C 0.37666 0.90579 0.54601 0.0
C381 C 0.40254 0.89262 0.55952 0.0
C382 C 0.35193 0.9068 0.59517 0.0
N383 N 0.37806 0.89489 0.60815 0.0
H384 H 0.42176 0.8755 0.59941 0.0
H385 H 0.33085 0.91076 0.60809 0.0
H386 H 0.36453 0.83828 0.60195 0.0
H387 H 0.30444 0.87223 0.66508 0.0
O388 O 0.40816 0.85508 0.64651 0.0
O389 O 0.38206 0.86482 0.6879 0.0
O390 O 0.34496 0.90848 0.66273 0.0
C391 C 0.40299 0.85044 0.67479 0.0
H392 H 0.45011 0.94056 0.71218 0.0
H393 H 0.30603 0.81863 0.59473 0.0
H394 H 0.33023 0.92271 0.55505 0.0
H395 H 0.42215 0.88554 0.54624 0.0
Co396 Co 0.62859 0.63024 0.39996 0.0
C397 C 0.69135 0.60226 0.40099 0.0
C398 C 0.66284 0.59439 0.43947 0.0
C399 C 0.69163 0.58171 0.44283 0.0
N400 N 0.66237 0.60696 0.41295 0.0
N401 N 0.70948 0.58668 0.41855 0.0
H402 H 0.70017 0.61112 0.38099 0.0
H403 H 0.64378 0.59494 0.45567 0.0
C404 C 0.59544 0.58082 0.40983 0.0
O405 O 0.61766 0.56989 0.39369 0.0
N406 N 0.59486 0.65348 0.38809 0.0
C407 C 0.59561 0.67064 0.36568 0.0
C408 C 0.56536 0.6811 0.36211 0.0
C409 C 0.5645 0.65383 0.39804 0.0
N410 N 0.54575 0.67037 0.38236 0.0
C411 C 0.65361 0.62376 0.34058 0.0
C412 C 0.59899 0.60243 0.3144 0.0
C413 C 0.62546 0.60739 0.29632 0.0
C414 C 0.65309 0.61803 0.30982 0.0
C415 C 0.60082 0.60789 0.34534 0.0
N416 N 0.6283 0.61777 0.35838 0.0
H417 H 0.67373 0.63446 0.34956 0.0
H418 H 0.57942 0.60542 0.35836 0.0
H419 H 0.61631 0.67444 0.35203 0.0
H420 H 0.55617 0.64179 0.41595 0.0
O421 O 0.66009 0.65702 0.39657 0.0
O422 O 0.63393 0.64773 0.43811 0.0
O423 O 0.59532 0.60487 0.41297 0.0
C424 C 0.65511 0.66179 0.42489 0.0
H425 H 0.69905 0.57015 0.46192 0.0
H426 H 0.55806 0.6946 0.34491 0.0
H427 H 0.57679 0.59498 0.30457 0.0
H428 H 0.67345 0.6233 0.29633 0.0
Co429 Co 0.6176 0.63358 0.86584 0.0
C430 C 0.55614 0.60385 0.86775 0.0
C431 C 0.5811 0.59891 0.82645 0.0
C432 C 0.5526 0.58563 0.82439 0.0
N433 N 0.58346 0.61025 0.85373 0.0
N434 N 0.53708 0.58873 0.85047 0.0
H435 H 0.5491 0.61089 0.88935 0.0
H436 H 0.59868 0.60066 0.80894 0.0
C437 C 0.64969 0.58363 0.85642 0.0
O438 O 0.62698 0.57298 0.8722 0.0
N439 N 0.65167 0.65679 0.87691 0.0
C440 C 0.6511 0.67459 0.89864 0.0
C441 C 0.68154 0.68474 0.90204 0.0
C442 C 0.68214 0.65645 0.86719 0.0
N443 N 0.7011 0.67318 0.88238 0.0
C444 C 0.59297 0.62983 0.92538 0.0
C445 C 0.64635 0.6076 0.9526 0.0
C446 C 0.62049 0.61465 0.97072 0.0
C447 C 0.59333 0.62545 0.95638 0.0
C448 C 0.64463 0.61176 0.92132 0.0
N449 N 0.61777 0.62223 0.90786 0.0
H450 H 0.57301 0.64036 0.91575 0.0
H451 H 0.66574 0.6079 0.90836 0.0
H452 H 0.63039 0.67905 0.912 0.0
H453 H 0.69038 0.6438 0.84983 0.0
O454 O 0.58643 0.66064 0.86848 0.0
O455 O 0.61226 0.6503 0.82713 0.0
O456 O 0.65048 0.60767 0.85348 0.0
C457 C 0.59124 0.66475 0.84002 0.0
H458 H 0.54375 0.5749 0.80508 0.0
H459 H 0.68897 0.69862 0.91879 0.0
H460 H 0.66839 0.60005 0.96256 0.0
H461 H 0.57258 0.63122 0.96902 0.0
Co462 Co 0.36768 0.3815 0.61717 0.0
C463 C 0.30595 0.41053 0.61691 0.0
C464 C 0.33361 0.41738 0.57757 0.0
C465 C 0.30508 0.43046 0.57462 0.0
N466 N 0.3344 0.40517 0.60431 0.0
N467 N 0.28772 0.42611 0.5994 0.0
H468 H 0.29766 0.40216 0.63744 0.0
H469 H 0.35226 0.41632 0.56099 0.0
C470 C 0.40124 0.43073 0.60702 0.0
O471 O 0.37883 0.44191 0.6227 0.0
N472 N 0.40077 0.35774 0.62923 0.0
C473 C 0.39806 0.33918 0.64981 0.0
C474 C 0.42779 0.3281 0.65436 0.0
C475 C 0.43192 0.35769 0.62139 0.0
N476 N 0.44907 0.33984 0.63655 0.0
C477 C 0.34296 0.38636 0.67675 0.0
C478 C 0.39553 0.41066 0.70282 0.0
C479 C 0.36981 0.40399 0.72124 0.0
C480 C 0.34334 0.39159 0.70764 0.0
C481 C 0.39432 0.40477 0.67197 0.0
N482 N 0.36768 0.39363 0.65892 0.0
H483 H 0.32323 0.37531 0.66756 0.0
H484 H 0.41552 0.40829 0.65905 0.0
H485 H 0.37622 0.33456 0.66142 0.0
H486 H 0.44217 0.37115 0.60596 0.0
O487 O 0.33556 0.35511 0.61991 0.0
O488 O 0.36232 0.36431 0.57875 0.0
O489 O 0.40147 0.40662 0.6045 0.0
C490 C 0.34064 0.3505 0.5916 0.0
H491 H 0.2975 0.44186 0.55544 0.0
H492 H 0.43338 0.31291 0.66999 0.0
H493 H 0.4168 0.41992 0.71214 0.0
H494 H 0.32354 0.38486 0.72091 0.0
Co495 Co 0.37719 0.38149 0.15112 0.0
C496 C 0.43826 0.41123 0.14919 0.0
C497 C 0.41382 0.41588 0.19086 0.0
C498 C 0.44232 0.42917 0.1927 0.0
N499 N 0.41115 0.40477 0.16347 0.0
N500 N 0.45753 0.42624 0.1664 0.0
H501 H 0.44492 0.40419 0.12743 0.0
H502 H 0.39647 0.41398 0.20854 0.0
C503 C 0.34523 0.43128 0.16184 0.0
O504 O 0.36803 0.4421 0.14633 0.0
N505 N 0.34353 0.35809 0.13948 0.0
C506 C 0.34596 0.33911 0.11935 0.0
C507 C 0.3161 0.3282 0.11512 0.0
C508 C 0.31239 0.35847 0.14734 0.0
N509 N 0.29501 0.34046 0.13265 0.0
C510 C 0.40118 0.38504 0.09124 0.0
C511 C 0.34988 0.41111 0.06548 0.0
C512 C 0.3752 0.40364 0.04697 0.0
C513 C 0.40094 0.39027 0.06039 0.0
C514 C 0.35096 0.40526 0.09635 0.0
N515 N 0.37708 0.39328 0.10924 0.0
H516 H 0.42055 0.37358 0.10039 0.0
H517 H 0.33011 0.40958 0.10942 0.0
H518 H 0.36773 0.33402 0.10789 0.0
H519 H 0.30236 0.37228 0.16249 0.0
O520 O 0.40871 0.35465 0.14836 0.0
O521 O 0.38249 0.36445 0.18964 0.0
O522 O 0.34411 0.40716 0.16396 0.0
C523 C 0.40374 0.35024 0.17672 0.0
H524 H 0.45139 0.43979 0.21201 0.0
H525 H 0.31032 0.31271 0.09994 0.0
H526 H 0.3291 0.42105 0.05621 0.0
H527 H 0.42035 0.38295 0.04703 0.0
C528 C 0.25344 0.08065 0.38482 0.0
C529 C 0.24266 0.0831 0.41453 0.0
C530 C 0.28558 0.0748 0.3794 0.0
C531 C 0.36531 0.08149 0.41557 0.0
H532 H 0.39332 0.04123 0.34782 0.0
C533 C 0.49903 0.074 0.38938 0.0
C534 C 0.50656 0.07868 0.35915 0.0
C535 C 0.46742 0.06873 0.39728 0.0
C536 C 0.38582 0.05254 0.3668 0.0
H537 H 0.25709 0.08018 0.46183 0.0
H538 H 0.31289 0.06945 0.45235 0.0
H539 H 0.33617 0.04252 0.35988 0.0
H540 H 0.48722 0.08025 0.31331 0.0
H541 H 0.43186 0.07132 0.32709 0.0
H542 H 0.41456 0.09215 0.42206 0.0
C543 C 0.29656 0.07249 0.43325 0.0
C544 C 0.35314 0.05329 0.37369 0.0
C545 C 0.26445 0.07841 0.43867 0.0
C546 C 0.48216 0.07658 0.33676 0.0
C547 C 0.45046 0.07141 0.34467 0.0
C548 C 0.39787 0.08073 0.40872 0.0
C549 C 0.30765 0.07117 0.40357 0.0
C550 C 0.3425 0.06811 0.39788 0.0
C551 C 0.44262 0.06814 0.37512 0.0
C552 C 0.40846 0.06657 0.38399 0.0
H553 H 0.23717 0.08364 0.3657 0.0
H554 H 0.29338 0.07409 0.35626 0.0
H555 H 0.35788 0.09347 0.43399 0.0
H556 H 0.51752 0.07497 0.40701 0.0
H557 H 0.46225 0.06576 0.42086 0.0
C558 C 0.99002 0.15403 0.39513 0.0
C559 C 0.00908 0.17344 0.38321 0.0
C560 C 0.95663 0.15665 0.39623 0.0
C561 C 0.88863 0.1902 0.36022 0.0
H562 H 0.84264 0.16694 0.43012 0.0
C563 C 0.75157 0.17089 0.35854 0.0
C564 C 0.73431 0.17777 0.38418 0.0
C565 C 0.78512 0.17303 0.3585 0.0
C566 C 0.85513 0.17377 0.41055 0.0
H567 H 0.0078 0.21111 0.36377 0.0
H568 H 0.94938 0.21555 0.36546 0.0
H569 H 0.90135 0.16593 0.43085 0.0
H570 H 0.73884 0.19269 0.42974 0.0
H571 H 0.79724 0.19672 0.42951 0.0
H572 H 0.84231 0.19797 0.33991 0.0
C573 C 0.9604 0.19821 0.37367 0.0
C574 C 0.88873 0.17294 0.41086 0.0
C575 C 0.99387 0.19565 0.37269 0.0
C576 C 0.7513 0.18742 0.40952 0.0
C577 C 0.78482 0.18948 0.40952 0.0
C578 C 0.85496 0.19092 0.35986 0.0
C579 C 0.94143 0.17869 0.38535 0.0
C580 C 0.90583 0.18092 0.3856 0.0
C581 C 0.80213 0.18202 0.38415 0.0
C582 C 0.83786 0.18252 0.38494 0.0
H583 H 0.00072 0.13648 0.40293 0.0
H584 H 0.94261 0.1411 0.40491 0.0
H585 H 0.90114 0.1963 0.34033 0.0
H586 H 0.73918 0.16368 0.33854 0.0
H587 H 0.7978 0.16695 0.33868 0.0
C588 C 0.49476 0.19805 0.87646 0.0
C589 C 0.51009 0.17573 0.88648 0.0
C590 C 0.46127 0.20047 0.87744 0.0
C591 C 0.38949 0.17424 0.91363 0.0
H592 H 0.34341 0.2002 0.84298 0.0
C593 C 0.25187 0.18829 0.91165 0.0
C594 C 0.23511 0.17908 0.88595 0.0
C595 C 0.28541 0.19037 0.91197 0.0
C596 C 0.35596 0.19289 0.86285 0.0
H597 H 0.50187 0.13844 0.9054 0.0
H598 H 0.44375 0.14282 0.90739 0.0
H599 H 0.40225 0.19882 0.84377 0.0
H600 H 0.24043 0.16575 0.84004 0.0
H601 H 0.29905 0.16909 0.84072 0.0
H602 H 0.34327 0.1677 0.93244 0.0
C603 C 0.45769 0.15856 0.89908 0.0
C604 C 0.38963 0.19233 0.86342 0.0
C605 C 0.49112 0.15608 0.89798 0.0
C606 C 0.25263 0.17263 0.8603 0.0
C607 C 0.28618 0.17481 0.86058 0.0
C608 C 0.35586 0.17491 0.91312 0.0
C609 C 0.44238 0.18069 0.88861 0.0
C610 C 0.40673 0.18273 0.8887 0.0
C611 C 0.30296 0.18338 0.88657 0.0
C612 C 0.33871 0.184 0.88761 0.0
H613 H 0.50862 0.2137 0.86789 0.0
H614 H 0.45017 0.21789 0.86957 0.0
H615 H 0.40201 0.16696 0.93354 0.0
H616 H 0.23921 0.19321 0.93189 0.0
H617 H 0.29764 0.19729 0.93223 0.0
C618 C 0.98518 0.07625 0.83023 0.0
C619 C 0.00665 0.08132 0.85452 0.0
C620 C 0.95283 0.07097 0.83537 0.0
C621 C 0.89485 0.05411 0.89459 0.0
H622 H 0.83522 0.09352 0.84497 0.0
C623 C 0.76641 0.07996 0.93051 0.0
C624 C 0.74208 0.08217 0.90807 0.0
C625 C 0.79805 0.07446 0.92269 0.0
C626 C 0.85139 0.08194 0.85867 0.0
H627 H 0.01138 0.08319 0.90334 0.0
H628 H 0.95478 0.07459 0.91229 0.0
H629 H 0.89206 0.09334 0.83344 0.0
H630 H 0.73125 0.07854 0.86017 0.0
H631 H 0.78641 0.06875 0.84648 0.0
H632 H 0.85406 0.04333 0.92034 0.0
C633 C 0.96299 0.07456 0.88926 0.0
C634 C 0.88404 0.08185 0.85205 0.0
C635 C 0.99534 0.07984 0.88412 0.0
C636 C 0.74967 0.07749 0.87785 0.0
C637 C 0.78123 0.07187 0.87004 0.0
C638 C 0.86209 0.05418 0.90121 0.0
C639 C 0.94123 0.07062 0.86491 0.0
C640 C 0.90622 0.0683 0.87022 0.0
C641 C 0.80593 0.07093 0.89228 0.0
C642 C 0.8401 0.06846 0.88362 0.0
H643 H 0.993 0.07732 0.80716 0.0
H644 H 0.93671 0.0677 0.81616 0.0
H645 H 0.91134 0.04323 0.90876 0.0
H646 H 0.76135 0.08366 0.95395 0.0
H647 H 0.81656 0.07416 0.94035 0.0
C648 C 0.73275 0.93677 0.58633 0.0
C649 C 0.75688 0.93423 0.60891 0.0
C650 C 0.70096 0.94186 0.59404 0.0
C651 C 0.64733 0.93243 0.65758 0.0
H652 H 0.5868 0.97136 0.60836 0.0
C653 C 0.51366 0.93727 0.68673 0.0
C654 C 0.49196 0.93257 0.66251 0.0
C655 C 0.54598 0.94254 0.68145 0.0
C656 C 0.60345 0.9604 0.62228 0.0
H657 H 0.76724 0.93695 0.65696 0.0
H658 H 0.71185 0.94612 0.67047 0.0
H659 H 0.64409 0.97203 0.59682 0.0
H660 H 0.48687 0.93122 0.61369 0.0
H661 H 0.54344 0.9398 0.6045 0.0
H662 H 0.60683 0.92025 0.68255 0.0
C663 C 0.71727 0.94353 0.64687 0.0
C664 C 0.63622 0.96077 0.61567 0.0
C665 C 0.74897 0.93829 0.63917 0.0
C666 C 0.50307 0.9343 0.63285 0.0
C667 C 0.53541 0.93957 0.62757 0.0
C668 C 0.61469 0.93209 0.66419 0.0
C669 C 0.69273 0.94465 0.62448 0.0
C670 C 0.65845 0.94647 0.63299 0.0
C671 C 0.55735 0.94323 0.65184 0.0
C672 C 0.5923 0.94575 0.64636 0.0
H673 H 0.73811 0.93356 0.56285 0.0
H674 H 0.6826 0.94234 0.57625 0.0
H675 H 0.66366 0.9208 0.67103 0.0
H676 H 0.506 0.936 0.70984 0.0
H677 H 0.56224 0.94558 0.70061 0.0
C678 C 0.00193 0.84194 0.60726 0.0
C679 C 0.98445 0.83487 0.63269 0.0
C680 C 0.03551 0.84001 0.60753 0.0
C681 C 0.10511 0.83946 0.66015 0.0
H682 H 0.15191 0.81713 0.59026 0.0
C683 C 0.24022 0.85946 0.64587 0.0
C684 C 0.25945 0.84012 0.63394 0.0
C685 C 0.20682 0.85676 0.64678 0.0
C686 C 0.13918 0.82318 0.61006 0.0
H687 H 0.98865 0.81989 0.67821 0.0
H688 H 0.04713 0.81625 0.67851 0.0
H689 H 0.09308 0.81536 0.58931 0.0
H690 H 0.25841 0.80247 0.61435 0.0
H691 H 0.19998 0.7979 0.6157 0.0
H692 H 0.15113 0.84736 0.68087 0.0
C693 C 0.03485 0.82346 0.65845 0.0
C694 C 0.10551 0.8224 0.6094 0.0
C695 C 0.00128 0.82529 0.65814 0.0
C696 C 0.24437 0.81789 0.62327 0.0
C697 C 0.21089 0.81525 0.62405 0.0
C698 C 0.13873 0.84036 0.66075 0.0
C699 C 0.05236 0.83107 0.63329 0.0
C700 C 0.08812 0.83071 0.63436 0.0
C701 C 0.19175 0.83472 0.63568 0.0
C702 C 0.15613 0.83244 0.63562 0.0
H703 H 0.98967 0.84912 0.5872 0.0
H704 H 0.04834 0.8462 0.58786 0.0
H705 H 0.0924 0.84622 0.67964 0.0
H706 H 0.25077 0.87703 0.65379 0.0
H707 H 0.19268 0.87226 0.65545 0.0
C708 C 0.74409 0.84385 0.15771 0.0
C709 C 0.76147 0.83679 0.1322 0.0
C710 C 0.71055 0.84163 0.15768 0.0
C711 C 0.64066 0.84015 0.10544 0.0
H712 H 0.59453 0.81805 0.17578 0.0
C713 C 0.50569 0.85972 0.12026 0.0
C714 C 0.48659 0.84041 0.13236 0.0
C715 C 0.53908 0.85711 0.11927 0.0
C716 C 0.60709 0.82402 0.15586 0.0
H717 H 0.75714 0.8215 0.0868 0.0
H718 H 0.69876 0.81732 0.08692 0.0
H719 H 0.65339 0.81666 0.17643 0.0
H720 H 0.48786 0.8029 0.15225 0.0
H721 H 0.54632 0.79847 0.15075 0.0
H722 H 0.59445 0.84759 0.08489 0.0
C723 C 0.71108 0.82477 0.10686 0.0
C724 C 0.64076 0.82347 0.15634 0.0
C725 C 0.74459 0.82692 0.10692 0.0
C726 C 0.5018 0.81829 0.14317 0.0
C727 C 0.53529 0.81573 0.1423 0.0
C728 C 0.60705 0.84081 0.105 0.0
C729 C 0.69365 0.83237 0.13209 0.0
C730 C 0.65791 0.83171 0.13121 0.0
C731 C 0.55428 0.83517 0.13044 0.0
C732 C 0.5899 0.83299 0.1303 0.0
H733 H 0.75639 0.85125 0.17766 0.0
H734 H 0.69778 0.84782 0.17739 0.0
H735 H 0.65317 0.84686 0.08582 0.0
H736 H 0.49504 0.87723 0.11225 0.0
H737 H 0.55311 0.8726 0.11044 0.0
C738 C 0.99774 0.93958 0.12752 0.0
C739 C 0.98998 0.93498 0.1577 0.0
C740 C 0.0294 0.94494 0.11982 0.0
C741 C 0.11054 0.96172 0.1511 0.0
H742 H 0.13973 0.92183 0.08352 0.0
C743 C 0.24352 0.93508 0.13359 0.0
C744 C 0.25463 0.93341 0.10393 0.0
C745 C 0.21122 0.94046 0.13889 0.0
C746 C 0.13194 0.93351 0.10208 0.0
H747 H 0.00899 0.93349 0.20366 0.0
H748 H 0.06441 0.94253 0.19026 0.0
H749 H 0.08291 0.92238 0.09509 0.0
H750 H 0.24064 0.93713 0.05661 0.0
H751 H 0.1845 0.94696 0.0659 0.0
H752 H 0.15998 0.97216 0.15854 0.0
C753 C 0.04596 0.94236 0.17254 0.0
C754 C 0.0993 0.93384 0.10872 0.0
C755 C 0.01422 0.93712 0.18024 0.0
C756 C 0.233 0.93834 0.07974 0.0
C757 C 0.20071 0.94374 0.08504 0.0
C758 C 0.14329 0.96137 0.14445 0.0
C759 C 0.05403 0.94568 0.14215 0.0
C760 C 0.08826 0.94762 0.13356 0.0
C761 C 0.18932 0.94433 0.11464 0.0
C762 C 0.15438 0.94693 0.12013 0.0
H763 H 0.97939 0.93856 0.10977 0.0
H764 H 0.03472 0.94793 0.09628 0.0
H765 H 0.10271 0.97278 0.17016 0.0
H766 H 0.25967 0.93184 0.15274 0.0
H767 H 0.20318 0.94061 0.16197 0.0
C768 C 0.25144 0.58061 0.88253 0.0
C769 C 0.24053 0.58191 0.91229 0.0
C770 C 0.28369 0.57527 0.87692 0.0
C771 C 0.36324 0.58172 0.91341 0.0
H772 H 0.39204 0.54333 0.84445 0.0
C773 C 0.49736 0.57547 0.88772 0.0
C774 C 0.50523 0.58027 0.85761 0.0
C775 C 0.46564 0.57021 0.8953 0.0
C776 C 0.38433 0.55416 0.86375 0.0
H777 H 0.25482 0.57753 0.95944 0.0
H778 H 0.3109 0.56779 0.94963 0.0
H779 H 0.33482 0.5439 0.8563 0.0
H780 H 0.48636 0.58221 0.81164 0.0
H781 H 0.43079 0.57338 0.82484 0.0
H782 H 0.41233 0.59267 0.92043 0.0
C783 C 0.29456 0.57127 0.93065 0.0
C784 C 0.35161 0.55448 0.87054 0.0
C785 C 0.26231 0.57662 0.93625 0.0
C786 C 0.48103 0.57843 0.835 0.0
C787 C 0.4492 0.57331 0.84259 0.0
C788 C 0.39585 0.58143 0.90663 0.0
C789 C 0.30575 0.57108 0.90096 0.0
C790 C 0.34067 0.56857 0.89521 0.0
C791 C 0.44103 0.5698 0.87293 0.0
C792 C 0.40675 0.56794 0.88149 0.0
H793 H 0.23516 0.58413 0.86353 0.0
H794 H 0.29157 0.57543 0.85379 0.0
H795 H 0.35558 0.59315 0.93223 0.0
H796 H 0.51569 0.57625 0.90551 0.0
H797 H 0.46026 0.56704 0.91879 0.0
C798 C 0.75105 0.69814 0.89094 0.0
C799 C 0.73558 0.67602 0.88043 0.0
C800 C 0.78461 0.70033 0.89039 0.0
C801 C 0.85643 0.67398 0.85434 0.0
H802 H 0.90238 0.699 0.9256 0.0
C803 C 0.99409 0.68781 0.85693 0.0
C804 C 0.01083 0.67837 0.8825 0.0
C805 C 0.96054 0.68983 0.85658 0.0
C806 C 0.88987 0.69194 0.90557 0.0
H807 H 0.74371 0.63878 0.8612 0.0
H808 H 0.80187 0.64278 0.85991 0.0
H809 H 0.8435 0.69795 0.92452 0.0
H810 H 0.00544 0.66451 0.92815 0.0
H811 H 0.94679 0.66778 0.92742 0.0
H812 H 0.90269 0.66741 0.83563 0.0
C813 C 0.788 0.65856 0.86827 0.0
C814 C 0.85618 0.69158 0.90483 0.0
C815 C 0.75453 0.65631 0.86895 0.0
C816 C 0.99326 0.67158 0.90799 0.0
C817 C 0.95969 0.67371 0.90769 0.0
C818 C 0.89007 0.67447 0.85501 0.0
C819 C 0.80344 0.68051 0.87915 0.0
C820 C 0.83912 0.68233 0.87932 0.0
C821 C 0.94294 0.68256 0.88183 0.0
C822 C 0.90717 0.68324 0.88073 0.0
H823 H 0.73726 0.71383 0.89955 0.0
H824 H 0.79582 0.71761 0.8986 0.0
H825 H 0.84396 0.66697 0.83426 0.0
H826 H 0.00677 0.69298 0.83681 0.0
H827 H 0.94834 0.69697 0.83643 0.0
C828 C 0.49215 0.65455 0.39672 0.0
C829 C 0.51137 0.67372 0.38446 0.0
C830 C 0.45876 0.65726 0.39761 0.0
C831 C 0.3909 0.69021 0.36057 0.0
H832 H 0.34468 0.66811 0.43086 0.0
C833 C 0.2537 0.67095 0.35897 0.0
C834 C 0.23638 0.67833 0.38439 0.0
C835 C 0.28727 0.67299 0.35896 0.0
C836 C 0.35722 0.67461 0.41116 0.0
H837 H 0.51029 0.71106 0.36414 0.0
H838 H 0.45183 0.71564 0.36545 0.0
H839 H 0.40339 0.66721 0.43183 0.0
H840 H 0.24088 0.69396 0.42961 0.0
H841 H 0.29929 0.69781 0.42943 0.0
H842 H 0.34463 0.69752 0.33989 0.0
C843 C 0.46277 0.69843 0.37413 0.0
C844 C 0.39084 0.67385 0.41162 0.0
C845 C 0.49626 0.69578 0.37336 0.0
C846 C 0.25337 0.68831 0.40955 0.0
C847 C 0.28691 0.69026 0.40958 0.0
C848 C 0.35722 0.69085 0.36006 0.0
C849 C 0.44367 0.67914 0.38617 0.0
C850 C 0.40804 0.68142 0.38624 0.0
C851 C 0.30426 0.68236 0.38443 0.0
C852 C 0.34002 0.68287 0.38528 0.0
H853 H 0.50269 0.63707 0.40494 0.0
H854 H 0.44465 0.64188 0.40658 0.0
H855 H 0.40349 0.69598 0.34059 0.0
H856 H 0.24133 0.66346 0.33911 0.0
H857 H 0.29998 0.66657 0.33931 0.0
C858 C 0.75383 0.57762 0.38403 0.0
C859 C 0.74227 0.57915 0.41353 0.0
C860 C 0.78627 0.57254 0.37913 0.0
C861 C 0.86498 0.58047 0.41654 0.0
H862 H 0.89541 0.54144 0.34874 0.0
C863 C -0.00055 0.5767 0.39074 0.0
C864 C 0.00701 0.58103 0.36044 0.0
C865 C 0.96794 0.571 0.39865 0.0
C866 C 0.88726 0.55245 0.36772 0.0
H867 H 0.75553 0.57553 0.461 0.0
H868 H 0.81212 0.56633 0.45243 0.0
H869 H 0.83813 0.54115 0.36026 0.0
H870 H 0.98773 0.58182 0.31455 0.0
H871 H 0.93261 0.57219 0.32831 0.0
H872 H 0.91368 0.5925 0.42349 0.0
C873 C 0.79609 0.56936 0.4331 0.0
C874 C 0.8545 0.55226 0.37432 0.0
C875 C 0.76361 0.57441 0.438 0.0
C876 C 0.9827 0.57839 0.33805 0.0
C877 C 0.95111 0.57281 0.34596 0.0
C878 C 0.89765 0.5807 0.40993 0.0
C879 C 0.8079 0.56887 0.40364 0.0
C880 C 0.84295 0.56664 0.39849 0.0
C881 C 0.94325 0.56963 0.37643 0.0
C882 C 0.9091 0.56705 0.38514 0.0
H883 H 0.73788 0.58076 0.3647 0.0
H884 H 0.79464 0.57249 0.35616 0.0
H885 H 0.85681 0.59209 0.435 0.0
H886 H 0.01786 0.57809 0.4084 0.0
H887 H 0.9628 0.56815 0.42226 0.0
C888 C 0.49697 0.43945 0.12885 0.0
C889 C 0.48928 0.43478 0.15903 0.0
C890 C 0.5286 0.4449 0.12112 0.0
C891 C 0.60972 0.46184 0.15233 0.0
H892 H 0.63898 0.42222 0.08457 0.0
C893 C 0.74272 0.43544 0.13469 0.0
C894 C 0.75385 0.43388 0.10503 0.0
C895 C 0.71042 0.44078 0.14001 0.0
C896 C 0.63116 0.43382 0.10318 0.0
H897 H 0.50837 0.43325 0.20496 0.0
H898 H 0.56373 0.44245 0.1915 0.0
H899 H 0.58218 0.42258 0.0962 0.0
H900 H 0.7399 0.43776 0.05773 0.0
H901 H 0.68372 0.4475 0.06703 0.0
H902 H 0.65913 0.47239 0.15976 0.0
C903 C 0.54526 0.44226 0.17381 0.0
C904 C 0.59853 0.43405 0.10986 0.0
C905 C 0.51355 0.43693 0.18154 0.0
C906 C 0.73223 0.43888 0.08085 0.0
C907 C 0.69993 0.44424 0.08616 0.0
C908 C 0.64246 0.4616 0.14565 0.0
C909 C 0.55326 0.44566 0.14341 0.0
C910 C 0.58748 0.44773 0.13478 0.0
C911 C 0.68853 0.44472 0.11577 0.0
C912 C 0.65357 0.44725 0.12126 0.0
H913 H 0.47859 0.43844 0.11112 0.0
H914 H 0.53387 0.44795 0.09758 0.0
H915 H 0.60187 0.47283 0.17145 0.0
H916 H 0.75887 0.43214 0.15383 0.0
H917 H 0.70236 0.44084 0.16308 0.0
C918 C 0.24322 0.34386 0.15879 0.0
C919 C 0.26062 0.33683 0.13328 0.0
C920 C 0.20967 0.34169 0.15871 0.0
C921 C 0.13985 0.34046 0.1064 0.0
H922 H 0.09359 0.31811 0.17655 0.0
C923 C 0.00486 0.36003 0.12117 0.0
C924 C 0.98573 0.34066 0.1331 0.0
C925 C 0.03826 0.35742 0.12021 0.0
C926 C 0.10618 0.32415 0.15668 0.0
H927 H 0.25631 0.32167 0.08782 0.0
H928 H 0.19792 0.31759 0.08785 0.0
H929 H 0.15245 0.31669 0.17727 0.0
H930 H 0.98694 0.30305 0.15271 0.0
H931 H 0.04541 0.29862 0.15128 0.0
H932 H 0.09368 0.34801 0.08583 0.0
C933 C 0.21023 0.32496 0.10783 0.0
C934 C 0.13985 0.32358 0.15721 0.0
C935 C 0.24375 0.32705 0.10795 0.0
C936 C 0.00091 0.31849 0.14377 0.0
C937 C 0.0344 0.31593 0.14293 0.0
C938 C 0.10623 0.34115 0.10593 0.0
C939 C 0.19279 0.33253 0.13307 0.0
C940 C 0.15704 0.33191 0.13215 0.0
C941 C 0.05342 0.33542 0.13125 0.0
C942 C 0.08904 0.33323 0.13116 0.0
H943 H 0.25551 0.35118 0.17878 0.0
H944 H 0.19689 0.34785 0.17844 0.0
H945 H 0.1524 0.34723 0.08684 0.0
H946 H 0.99424 0.37758 0.11328 0.0
H947 H 0.05231 0.37295 0.11152 0.0
C948 C 0.50096 0.34249 0.61051 0.0
C949 C 0.48344 0.33606 0.63615 0.0
C950 C 0.53452 0.34033 0.6108 0.0
C951 C 0.60418 0.34032 0.66337 0.0
H952 H 0.65064 0.31643 0.594 0.0
C953 C 0.73943 0.35924 0.64833 0.0
C954 C 0.75843 0.3396 0.63679 0.0
C955 C 0.70601 0.35674 0.64941 0.0
C956 C 0.638 0.32291 0.61367 0.0
H957 H 0.48753 0.32197 0.68208 0.0
H958 H 0.54597 0.31792 0.68243 0.0
H959 H 0.5918 0.31499 0.59319 0.0
H960 H 0.75701 0.30163 0.61812 0.0
H961 H 0.69856 0.29741 0.61978 0.0
H962 H 0.6503 0.34832 0.68382 0.0
C963 C 0.53374 0.32481 0.66218 0.0
C964 C 0.60433 0.32232 0.61308 0.0
C965 C 0.5002 0.32688 0.66185 0.0
C966 C 0.74313 0.31727 0.62672 0.0
C967 C 0.70964 0.31483 0.62769 0.0
C968 C 0.6378 0.34102 0.6639 0.0
C969 C 0.5513 0.33179 0.63679 0.0
C970 C 0.58705 0.3312 0.63784 0.0
C971 C 0.69072 0.3346 0.6389 0.0
C972 C 0.65508 0.33254 0.63896 0.0
H973 H 0.48876 0.34935 0.59025 0.0
H974 H 0.54739 0.34604 0.59095 0.0
H975 H 0.59157 0.34753 0.6827 0.0
H976 H 0.75017 0.37688 0.65579 0.0
H977 H 0.69204 0.37248 0.65775 0.0
C978 C -0.00185 0.43762 0.62832 0.0
C979 C 0.99058 0.43296 0.65854 0.0
C980 C 0.02972 0.44323 0.6205 0.0
C981 C 0.11058 0.46097 0.65165 0.0
H982 H 0.14056 0.42187 0.58376 0.0
C983 C 0.24385 0.43551 0.63438 0.0
C984 C 0.25513 0.43399 0.60477 0.0
C985 C 0.2115 0.44076 0.63956 0.0
C986 C 0.13252 0.43334 0.6024 0.0
H987 H 0.00989 0.43146 0.70441 0.0
H988 H 0.0651 0.44093 0.69078 0.0
H989 H 0.08373 0.4216 0.59535 0.0
H990 H 0.24144 0.43794 0.55742 0.0
H991 H 0.18514 0.44752 0.56648 0.0
H992 H 0.1598 0.472 0.65917 0.0
C993 C 0.04657 0.44064 0.67314 0.0
C994 C 0.09988 0.4332 0.60906 0.0
C995 C 0.01494 0.43515 0.68097 0.0
C996 C 0.23364 0.43902 0.5805 0.0
C997 C 0.20128 0.44428 0.58568 0.0
C998 C 0.14332 0.46109 0.64499 0.0
C999 C 0.05444 0.44417 0.64273 0.0
C1000 C 0.08859 0.44666 0.63405 0.0
C1001 C 0.18971 0.44465 0.61523 0.0
C1002 C 0.1547 0.44692 0.62058 0.0
H1003 H 0.97972 0.43658 0.61065 0.0
H1004 H 0.03488 0.44634 0.59695 0.0
H1005 H 0.10254 0.47182 0.67081 0.0
H1006 H 0.25991 0.43218 0.65358 0.0
H1007 H 0.20332 0.44074 0.66259 0.0
C1008 C 0.09928 0.10569 0.24668 0.0
C1009 C 0.12851 0.10485 0.2635 0.0
C1010 C 0.09898 0.10353 0.21516 0.0
C1011 C 0.14908 0.11618 0.15049 0.0
H1012 H 0.08961 0.07272 0.10588 0.0
C1013 C 0.15305 0.10912 0.02068 0.0
C1014 C 0.12363 0.10698 1.0044 0.0
C1015 C 0.15426 0.10661 0.05214 0.0
C1016 C 0.10611 0.08524 0.11789 0.0
H1017 H 0.18022 0.09982 0.26 0.0
H1018 H 0.17963 0.09689 0.20506 0.0
H1019 H 0.08993 0.07262 0.16101 0.0
H1020 H 0.07253 0.09959 0.00884 0.0
H1021 H 0.07437 0.09654 0.06352 0.0
H1022 H 0.16452 0.12965 0.10778 0.0
C1023 C 0.15701 0.09936 0.21639 0.0
C1024 C 0.10636 0.08506 0.14952 0.0
C1025 C 0.1573 0.10115 0.2479 0.0
C1026 C 0.09558 0.1018 0.02051 0.0
C1027 C 0.09672 0.09964 0.052 0.0
C1028 C 0.14852 0.11667 0.11892 0.0
C1029 C 0.1279 0.1008 0.19967 0.0
C1030 C 0.12788 0.10051 0.16613 0.0
C1031 C 0.12604 0.10224 0.06834 0.0
C1032 C 0.12704 0.1012 0.1021 0.0
H1033 H 0.07665 0.10893 0.25768 0.0
H1034 H 0.0762 0.10492 0.20281 0.0
H1035 H 0.16561 0.12857 0.1627 0.0
H1036 H 0.17517 0.1134 0.00931 0.0
H1037 H 0.17743 0.10826 0.06373 0.0
C1038 C 0.84493 0.90673 0.99573 0.0
C1039 C 0.87431 0.90791 0.01221 0.0
C1040 C 0.84415 0.90904 0.96424 0.0
C1041 C 0.89427 0.92782 0.8986 0.0
H1042 H 0.83297 0.88594 0.85394 0.0
C1043 C 0.90135 0.90512 0.77019 0.0
C1044 C 0.87231 0.90678 0.75318 0.0
C1045 C 0.90154 0.90775 0.80168 0.0
C1046 C 0.85004 0.89791 0.86611 0.0
H1047 H 0.92582 0.91359 1.00811 0.0
H1048 H 0.92465 0.91627 0.95344 0.0
H1049 H 0.83321 0.88572 0.90887 0.0
H1050 H 0.82095 0.91391 0.75622 0.0
H1051 H 0.8213 0.91763 0.81104 0.0
H1052 H 0.9118 0.93912 0.85545 0.0
C1053 C 0.90203 0.91404 0.96479 0.0
C1054 C 0.8501 0.89793 0.89768 0.0
C1055 C 0.90276 0.91208 0.99628 0.0
C1056 C 0.84368 0.91187 0.7685 0.0
C1057 C 0.84384 0.91412 0.79994 0.0
C1058 C 0.89452 0.92748 0.86698 0.0
C1059 C 0.87275 0.91227 0.94823 0.0
C1060 C 0.8722 0.91288 0.91445 0.0
C1061 C 0.87269 0.91179 0.8169 0.0
C1062 C 0.87237 0.91254 0.85043 0.0
H1063 H 0.8225 0.90329 1.00699 0.0
H1064 H 0.82102 0.90807 0.95247 0.0
H1065 H 0.9113 0.93994 0.91056 0.0
H1066 H 0.92383 0.9009 0.75938 0.0
H1067 H 0.92412 0.90569 0.81423 0.0
C1068 C 0.0933 0.60312 0.52011 0.0
C1069 C 0.12207 0.60753 0.50476 0.0
C1070 C 0.09342 0.60095 0.55155 0.0
C1071 C 0.14373 0.58676 0.61856 0.0
H1072 H 0.08392 0.62997 0.6604 0.0
C1073 C 0.1524 0.60236 0.74788 0.0
C1074 C 0.12405 0.60711 0.76375 0.0
C1075 C 0.15167 0.60035 0.71638 0.0
C1076 C 0.10038 0.61736 0.64922 0.0
H1077 H 0.17379 0.61231 0.51089 0.0
H1078 H 0.17399 0.60769 0.56573 0.0
H1079 H 0.08363 0.62956 0.60548 0.0
H1080 H 0.07241 0.61276 0.7584 0.0
H1081 H 0.0709 0.60789 0.70391 0.0
H1082 H 0.16013 0.57411 0.66216 0.0
C1083 C 0.15133 0.60608 0.55322 0.0
C1084 C 0.10029 0.61726 0.61766 0.0
C1085 C 0.15119 0.60861 0.52173 0.0
C1086 C 0.09475 0.60885 0.74721 0.0
C1087 C 0.09396 0.6065 0.71573 0.0
C1088 C 0.14351 0.58654 0.65018 0.0
C1089 C 0.12237 0.60271 0.56847 0.0
C1090 C 0.12208 0.60209 0.602 0.0
C1091 C 0.12249 0.60267 0.69977 0.0
C1092 C 0.12197 0.60199 0.666 0.0
H1093 H 0.07049 0.60154 0.50785 0.0
H1094 H 0.07079 0.59797 0.56269 0.0
H1095 H 0.1606 0.5747 0.60704 0.0
H1096 H 0.17537 0.60043 0.75976 0.0
H1097 H 0.17423 0.59766 0.70507 0.0
C1098 C 0.9013 0.41298 0.49767 0.0
C1099 C 0.87292 0.40908 0.51379 0.0
C1100 C 0.90029 0.41529 0.4662 0.0
C1101 C 0.84744 0.40058 0.3993 0.0
H1102 H 0.90944 0.44163 0.35725 0.0
C1103 C 0.84073 0.41533 0.27014 0.0
C1104 C 0.86938 0.41047 0.25475 0.0
C1105 C 0.84091 0.41732 0.30163 0.0
C1106 C 0.89206 0.43003 0.36873 0.0
H1107 H 0.82097 0.4053 0.50899 0.0
H1108 H 0.81905 0.41062 0.45452 0.0
H1109 H 0.90941 0.44185 0.41237 0.0
H1110 H 0.92091 0.40457 0.26089 0.0
H1111 H 0.92122 0.40887 0.31575 0.0
H1112 H 0.82982 0.38916 0.35551 0.0
C1113 C 0.84231 0.41114 0.46611 0.0
C1114 C 0.89209 0.43003 0.40035 0.0
C1115 C 0.84336 0.40851 0.49757 0.0
C1116 C 0.89842 0.40868 0.27175 0.0
C1117 C 0.89863 0.41102 0.30325 0.0
C1118 C 0.84714 0.40088 0.36773 0.0
C1119 C 0.87081 0.41413 0.44989 0.0
C1120 C 0.86993 0.41514 0.41613 0.0
C1121 C 0.86979 0.41491 0.31855 0.0
C1122 C 0.86958 0.41544 0.3521 0.0
H1123 H 0.9245 0.414 0.50931 0.0
H1124 H 0.92283 0.4173 0.45467 0.0
H1125 H 0.83046 0.38842 0.41045 0.0
H1126 H 0.818 0.41742 0.25789 0.0
H1127 H 0.81838 0.4207 0.31278 0.0
C1128 C 0.65051 0.10749 0.52113 0.0
C1129 C 0.6214 0.10584 0.50423 0.0
C1130 C 0.65082 0.10505 0.55263 0.0
C1131 C 0.59946 0.11519 0.61724 0.0
H1132 H 0.66158 0.07398 0.66167 0.0
C1133 C 0.59537 0.10712 0.74697 0.0
C1134 C 0.62489 0.10648 0.76325 0.0
C1135 C 0.5944 0.10458 0.7155 0.0
C1136 C 0.6443 0.08586 0.6497 0.0
H1137 H 0.57001 0.09898 0.50748 0.0
H1138 H 0.57058 0.09551 0.56233 0.0
H1139 H 0.66166 0.07436 0.60654 0.0
H1140 H 0.67648 0.10152 0.75887 0.0
H1141 H 0.67495 0.09836 0.7042 0.0
H1142 H 0.58276 0.12753 0.66002 0.0
C1143 C 0.59308 0.09888 0.55113 0.0
C1144 C 0.64431 0.08596 0.61808 0.0
C1145 C 0.5928 0.10098 0.51967 0.0
C1146 C 0.65331 0.10259 0.74717 0.0
C1147 C 0.65238 0.10037 0.7157 0.0
C1148 C 0.59972 0.11538 0.64881 0.0
C1149 C 0.62202 0.1012 0.56799 0.0
C1150 C 0.62187 0.10062 0.60153 0.0
C1151 C 0.62294 0.10161 0.69932 0.0
C1152 C 0.62215 0.10073 0.66556 0.0
H1153 H 0.67297 0.11156 0.51021 0.0
H1154 H 0.67347 0.10711 0.56507 0.0
H1155 H 0.58217 0.12697 0.60509 0.0
H1156 H 0.57296 0.11033 0.75835 0.0
H1157 H 0.57117 0.10514 0.70386 0.0
C1158 C 0.40134 0.9091 0.27002 0.0
C1159 C 0.37188 0.91056 0.25369 0.0
C1160 C 0.40238 0.91149 0.30149 0.0
C1161 C 0.35314 0.93107 0.36739 0.0
H1162 H 0.41413 0.88877 0.41176 0.0
C1163 C 0.34663 0.90897 0.49581 0.0
C1164 C 0.37576 0.91047 0.51272 0.0
C1165 C 0.34632 0.91146 0.46433 0.0
C1166 C 0.39716 0.90087 0.39967 0.0
H1167 H 0.3205 0.91673 0.25808 0.0
H1168 H 0.32209 0.91956 0.31277 0.0
H1169 H 0.41335 0.88825 0.35683 0.0
H1170 H 0.4272 0.91706 0.50946 0.0
H1171 H 0.42664 0.92054 0.45459 0.0
H1172 H 0.33622 0.9428 0.41063 0.0
C1173 C 0.34459 0.91707 0.30128 0.0
C1174 C 0.39679 0.90071 0.3681 0.0
C1175 C 0.3436 0.91504 0.26978 0.0
C1176 C 0.4044 0.91519 0.49727 0.0
C1177 C 0.40412 0.91731 0.46581 0.0
C1178 C 0.3532 0.93091 0.39901 0.0
C1179 C 0.37395 0.91506 0.31767 0.0
C1180 C 0.37478 0.91581 0.35144 0.0
C1181 C 0.37515 0.91519 0.44898 0.0
C1182 C 0.37524 0.91582 0.41546 0.0
H1183 H 0.42364 0.90538 0.25866 0.0
H1184 H 0.42557 0.91033 0.31312 0.0
H1185 H 0.3362 0.94331 0.3555 0.0
H1186 H 0.32413 0.90497 0.5067 0.0
H1187 H 0.32366 0.90955 0.45189 0.0
C1188 C 0.6391 0.59241 0.01876 0.0
C1189 C 0.62232 0.61238 1.0044 0.0
C1190 C 0.64047 0.59056 0.05036 0.0
C1191 C 0.62534 0.62876 0.12006 0.0
H1192 H 0.62594 0.56319 0.15931 0.0
C1193 C 0.59849 0.61564 0.24617 0.0
C1194 C 0.62345 0.60406 0.26309 0.0
C1195 C 0.59853 0.6151 0.2146 0.0
C1196 C 0.62586 0.58159 0.14855 0.0
H1197 H 0.59463 0.64651 0.01272 0.0
H1198 H 0.59504 0.6423 0.06685 0.0
H1199 H 0.62605 0.56557 0.10416 0.0
H1200 H 0.6673 0.58206 0.26048 0.0
H1201 H 0.66675 0.58037 0.20504 0.0
H1202 H 0.62379 0.64463 0.16454 0.0
C1203 C 0.60798 0.62834 0.054 0.0
C1204 C 0.62618 0.58303 0.11695 0.0
C1205 C 0.60713 0.63044 0.0226 0.0
C1206 C 0.64778 0.59109 0.24789 0.0
C1207 C 0.64743 0.59007 0.21629 0.0
C1208 C 0.62431 0.62728 0.15149 0.0
C1209 C 0.6248 0.60848 0.06846 0.0
C1210 C 0.62572 0.60667 0.1022 0.0
C1211 C 0.62316 0.60253 0.19939 0.0
C1212 C 0.62444 0.60372 0.16602 0.0
H1213 H 0.65096 0.57802 1.00564 0.0
H1214 H 0.65406 0.57516 0.06053 0.0
H1215 H 0.62597 0.64735 0.10984 0.0
H1216 H 0.57965 0.62598 0.25734 0.0
H1217 H 0.57953 0.62479 0.20202 0.0
C1218 C 0.40052 0.40628 0.77112 0.0
C1219 C 0.37122 0.40829 0.75463 0.0
C1220 C 0.40142 0.40863 0.8026 0.0
C1221 C 0.35228 0.42901 0.86826 0.0
H1222 H 0.41205 0.38584 0.91288 0.0
C1223 C 0.3451 0.4071 0.99681 0.0
C1224 C 0.37427 0.40832 0.01368 0.0
C1225 C 0.3448 0.40955 0.96531 0.0
C1226 C 0.39542 0.39817 0.90071 0.0
H1227 H 0.32001 0.41543 0.75874 0.0
H1228 H 0.32131 0.41816 0.81342 0.0
H1229 H 0.41148 0.38527 0.85795 0.0
H1230 H 0.42581 0.41445 0.01035 0.0
H1231 H 0.42525 0.41783 0.95549 0.0
H1232 H 0.33547 0.44102 0.91144 0.0
C1233 C 0.34381 0.41527 0.80207 0.0
C1234 C 0.39518 0.39799 0.86915 0.0
C1235 C 0.34298 0.41328 0.77056 0.0
C1236 C 0.40296 0.41276 0.9982 0.0
C1237 C 0.40269 0.41483 0.96674 0.0
C1238 C 0.3522 0.42887 0.89988 0.0
C1239 C 0.373 0.4127 0.81862 0.0
C1240 C 0.37364 0.41343 0.85239 0.0
C1241 C 0.37368 0.41295 0.94994 0.0
C1242 C 0.37382 0.41348 0.91641 0.0
H1243 H 0.42278 0.40216 0.75989 0.0
H1244 H 0.42451 0.40705 0.81435 0.0
H1245 H 0.33571 0.4415 0.85631 0.0
H1246 H 0.32256 0.40335 1.00774 0.0
H1247 H 0.32211 0.40785 0.95288 0.0
C1248 C 0.32649 0.32719 0.54374 0.0
C1249 C 0.32178 0.33113 0.57469 0.0
C1250 C 0.3078 0.30949 0.52761 0.0
C1251 C 0.25599 0.2532 0.53762 0.0
H1252 H 0.22358 0.2702 0.45733 0.0
C1253 C 0.16386 0.1899 0.47313 0.0
C1254 C 0.1691 0.18588 0.44228 0.0
C1255 C 0.1817 0.2081 0.48928 0.0
C1256 C 0.23269 0.26504 0.4796 0.0
H1257 H 0.29389 0.31951 0.61304 0.0
H1258 H 0.26121 0.28878 0.58493 0.0
H1259 H 0.25689 0.30056 0.48542 0.0
H1260 H 0.19688 0.19804 0.40409 0.0
H1261 H 0.2281 0.22961 0.43224 0.0
H1262 H 0.23189 0.21766 0.53178 0.0
C1263 C 0.27956 0.29914 0.57314 0.0
C1264 C 0.25184 0.28245 0.4957 0.0
C1265 C 0.2982 0.31685 0.58923 0.0
C1266 C 0.19217 0.20073 0.42782 0.0
C1267 C 0.20998 0.21893 0.44394 0.0
C1268 C 0.23687 0.23579 0.52152 0.0
C1269 C 0.28402 0.29531 0.5421 0.0
C1270 C 0.26375 0.27673 0.5249 0.0
C1271 C 0.20517 0.22272 0.47494 0.0
C1272 C 0.225 0.24147 0.49229 0.0
H1273 H 0.34448 0.33789 0.53189 0.0
H1274 H 0.31216 0.30678 0.50382 0.0
H1275 H 0.26515 0.24802 0.55987 0.0
H1276 H 0.14622 0.17878 0.48492 0.0
H1277 H 0.17705 0.21077 0.51303 0.0
C1278 C 0.93574 0.93449 0.55977 0.0
C1279 C 0.92439 0.94445 0.58691 0.0
C1280 C 0.95449 0.94922 0.54081 0.0
C1281 C 0.00556 0.97875 0.50921 0.0
H1282 H 0.99362 0.05143 0.50728 0.0
C1283 C 0.08961 0.04263 0.44108 0.0
C1284 C 0.07787 0.06559 0.42934 0.0
C1285 C 0.07077 0.02794 0.46002 0.0
C1286 C 0.997 0.03112 0.50703 0.0
H1287 H 0.92462 0.97739 0.61599 0.0
H1288 H 0.95904 1.00269 0.58393 0.0
H1289 H 0.96117 0.02592 0.54025 0.0
H1290 H 0.03686 0.0909 0.42743 0.0
H1291 H 0.00305 0.06454 0.4589 0.0
H1292 H 0.03971 0.98367 0.47454 0.0
C1293 C 0.95242 0.98384 0.57649 0.0
C1294 C 0.97874 0.01643 0.52658 0.0
C1295 C 0.93293 0.96926 0.59512 0.0
C1296 C 0.04654 0.07328 0.43627 0.0
C1297 C 0.02731 0.05824 0.45463 0.0
C1298 C 0.02322 0.99334 0.48917 0.0
C1299 C 0.96316 0.97417 0.5488 0.0
C1300 C 0.98283 0.99 0.5281 0.0
C1301 C 0.0393 0.03547 0.46715 0.0
C1302 C 0.01946 0.01981 0.48789 0.0
H1303 H 0.92916 0.91554 0.55258 0.0
H1304 H 0.96142 0.94111 0.51949 0.0
H1305 H 0.01006 0.95859 0.5099 0.0
H1306 H 0.11389 0.03643 0.43657 0.0
H1307 H 0.08142 0.01099 0.46964 0.0
C1308 C 0.32707 0.97495 0.67835 0.0
C1309 C 0.32391 0.94845 0.67802 0.0
C1310 C 0.30827 0.98975 0.69731 0.0
C1311 C 0.26275 0.98554 0.76768 0.0
H1312 H 0.22744 0.05019 0.74208 0.0
C1313 C 0.1729 0.04232 0.83912 0.0
C1314 C 0.1754 0.06885 0.83928 0.0
C1315 C 0.19196 0.02772 0.82018 0.0
C1316 C 0.2375 0.03234 0.74974 0.0
H1317 H 0.29757 0.91684 0.69662 0.0
H1318 H 0.2646 0.94269 0.72939 0.0
H1319 H 0.25733 0.02457 0.70652 0.0
H1320 H 0.20083 0.10078 0.82037 0.0
H1321 H 0.23438 0.0753 0.78769 0.0
H1322 H 0.24298 0.9933 0.8109 0.0
C1323 C 0.28202 0.95199 0.71537 0.0
C1324 C 0.25458 0.01762 0.7293 0.0
C1325 C 0.30077 0.93719 0.69638 0.0
C1326 C 0.19817 0.08039 0.82076 0.0
C1327 C 0.21723 0.06579 0.80181 0.0
C1328 C 0.24571 1.00027 0.78812 0.0
C1329 C 0.28589 0.97842 0.71643 0.0
C1330 C 0.26736 0.99401 0.738 0.0
C1331 C 0.21401 0.0393 0.80093 0.0
C1332 C 0.23283 0.02385 0.77941 0.0
H1333 H 0.34469 0.98426 0.66457 0.0
H1334 H 0.31204 0.01003 0.69771 0.0
H1335 H 0.27277 0.96767 0.77531 0.0
H1336 H 0.15556 0.03278 0.85301 0.0
H1337 H 0.18862 1.0074 0.81991 0.0
C1338 C 0.9163 0.32572 0.72363 0.0
C1339 C 0.9209 0.32958 0.69265 0.0
C1340 C 0.93454 0.30766 0.73958 0.0
C1341 C 0.01093 0.27184 0.73657 0.0
H1342 H 0.97148 0.22938 0.79666 0.0
C1343 C 0.07828 0.188 0.79364 0.0
C1344 C 0.07357 0.18415 0.82459 0.0
C1345 C 0.05979 0.2058 0.77752 0.0
C1346 C 0.98297 0.24129 0.78021 0.0
H1347 H 0.94795 0.3173 0.65402 0.0
H1348 H 0.97952 0.28565 0.68176 0.0
H1349 H 0.93861 0.25997 0.76854 0.0
H1350 H 0.046 0.19616 0.86301 0.0
H1351 H 0.01404 0.2274 0.83503 0.0
H1352 H 0.0553 0.25322 0.74828 0.0
C1353 C 0.96213 0.29679 0.69384 0.0
C1354 C 0.9641 0.25882 0.76407 0.0
C1355 C 0.94387 0.31482 0.6779 0.0
C1356 C 0.05017 0.19863 0.83915 0.0
C1357 C 0.03168 0.21642 0.82306 0.0
C1358 C 0.0298 0.25432 0.75273 0.0
C1359 C 0.95783 0.29309 0.72493 0.0
C1360 C 0.97785 0.27432 0.74204 0.0
C1361 C 0.03614 0.22016 0.792 0.0
C1362 C 0.01607 0.23883 0.77477 0.0
H1363 H 0.89887 0.33687 0.73567 0.0
H1364 H 0.93085 0.3055 0.76356 0.0
H1365 H 0.02242 0.28376 0.72012 0.0
H1366 H 0.09603 0.17707 0.78174 0.0
H1367 H 0.06361 0.20797 0.75357 0.0
C1368 C 0.79893 0.81545 0.5872 0.0
C1369 C 0.82225 0.83003 0.57272 0.0
C1370 C 0.78089 0.79736 0.5711 0.0
C1371 C 0.75464 0.77942 0.49356 0.0
H1372 H 0.73621 0.71469 0.53052 0.0
C1373 C 0.69654 0.69627 0.42678 0.0
C1374 C 0.67333 0.68171 0.44146 0.0
C1375 C 0.71443 0.7146 0.44263 0.0
C1376 C 0.74081 0.73278 0.51999 0.0
H1377 H 0.84508 0.83699 0.53002 0.0
H1378 H 0.81385 0.80522 0.50197 0.0
H1379 H 0.76827 0.74595 0.5584 0.0
H1380 H 0.65045 0.67515 0.48423 0.0
H1381 H 0.68144 0.7073 0.51183 0.0
H1382 H 0.7272 0.76621 0.45513 0.0
C1383 C 0.80919 0.80798 0.5257 0.0
C1384 C 0.75921 0.75071 0.53598 0.0
C1385 C 0.82724 0.82608 0.54181 0.0
C1386 C 0.66821 0.68602 0.47228 0.0
C1387 C 0.68613 0.70433 0.48815 0.0
C1388 C 0.73624 0.76147 0.47756 0.0
C1389 C 0.78575 0.79342 0.54014 0.0
C1390 C 0.76635 0.77427 0.52299 0.0
C1391 C 0.70956 0.71878 0.47355 0.0
C1392 C 0.72907 0.73794 0.49059 0.0
H1393 H 0.79441 0.81812 0.61097 0.0
H1394 H 0.76276 0.78673 0.58285 0.0
H1395 H 0.75925 0.79751 0.48304 0.0
H1396 H 0.70113 0.69335 0.40306 0.0
H1397 H 0.73253 0.72517 0.43077 0.0
C1398 C 0.67058 0.04076 0.33858 0.0
C1399 C 0.67306 0.0673 0.3385 0.0
C1400 C 0.68958 0.02605 0.31971 0.0
C1401 C 0.76285 0.02757 0.27343 0.0
H1402 H 0.72139 0.97158 0.23123 0.0
C1403 C 0.8258 0.97368 0.178 0.0
C1404 C 0.82325 0.94715 0.17809 0.0
C1405 C 0.8068 0.98843 0.19684 0.0
C1406 C 0.73344 0.98698 0.24304 0.0
H1407 H 0.69828 0.09911 0.31908 0.0
H1408 H 0.73126 0.07348 0.2861 0.0
H1409 H 0.69085 0.99681 0.26666 0.0
H1410 H 0.79792 0.91538 0.19749 0.0
H1411 H 0.76495 0.94107 0.2304 0.0
H1412 H 0.80545 0.01774 0.24982 0.0
C1413 C 0.71478 0.064 0.30092 0.0
C1414 C 0.71594 1.00144 0.26343 0.0
C1415 C 0.69576 0.07872 0.31979 0.0
C1416 C 0.8005 0.93577 0.19678 0.0
C1417 C 0.78148 0.95053 0.21561 0.0
C1418 C 0.78036 0.01312 0.25305 0.0
C1419 C 0.71157 0.03749 0.30029 0.0
C1420 C 0.73042 0.02192 0.2789 0.0
C1421 C 0.78474 0.97703 0.21622 0.0
C1422 C 0.76588 0.99263 0.23758 0.0
H1423 H 0.65344 0.03131 0.35277 0.0
H1424 H 0.6869 1.00567 0.32022 0.0
H1425 H 0.7749 0.04298 0.28524 0.0
H1426 H 0.84299 0.9831 0.16384 0.0
H1427 H 0.80952 0.00881 0.19632 0.0
C1428 C 0.9461 0.8162 0.17774 0.0
C1429 C 0.92303 0.83094 0.19238 0.0
C1430 C 0.96436 0.79824 0.19379 0.0
C1431 C 0.96593 0.76035 0.26405 0.0
H1432 H 0.05704 0.75408 0.24815 0.0
C1433 C 0.05144 0.69975 0.33909 0.0
C1434 C 0.07447 0.68493 0.3245 0.0
C1435 C 0.03319 0.71766 0.32298 0.0
C1436 C 0.03156 0.75539 0.25263 0.0
H1437 H 0.90087 0.83833 0.23531 0.0
H1438 H 0.93289 0.8071 0.2634 0.0
H1439 H 0.02449 0.7849 0.22007 0.0
H1440 H 0.09657 0.67737 0.28158 0.0
H1441 H 0.06456 0.70856 0.25337 0.0
H1442 H 0.97302 0.73085 0.29662 0.0
C1443 C 0.93664 0.80921 0.23943 0.0
C1444 C 0.01288 0.77306 0.23652 0.0
C1445 C 0.91838 0.82719 0.22336 0.0
C1446 C 0.07909 0.68857 0.29349 0.0
C1447 C 0.06084 0.70652 0.27736 0.0
C1448 C 0.98462 0.74268 0.28016 0.0
C1449 C 0.95997 0.79459 0.22487 0.0
C1450 C 0.97983 0.77576 0.24202 0.0
C1451 C 0.03754 0.7212 0.29188 0.0
C1452 C 0.01767 0.73999 0.27467 0.0
H1453 H 0.95021 0.81858 0.15386 0.0
H1454 H 0.98176 0.78706 0.18177 0.0
H1455 H 0.94046 0.76165 0.26853 0.0
H1456 H 0.04736 0.69744 0.36299 0.0
H1457 H 0.01581 0.72889 0.33497 0.0
C1458 C 0.32968 0.82673 0.04411 0.0
C1459 C 0.32481 0.83087 0.07499 0.0
C1460 C 0.31149 0.8086 0.02819 0.0
C1461 C 0.26056 0.7518 0.03861 0.0
H1462 H 0.22791 0.76824 0.95823 0.0
C1463 C 0.16776 0.68852 0.97469 0.0
C1464 C 0.17257 0.68457 0.94376 0.0
C1465 C 0.18613 0.70646 0.99077 0.0
C1466 C 0.23712 0.76323 0.98052 0.0
H1467 H 0.29722 0.81909 0.11347 0.0
H1468 H 0.26537 0.78762 0.0857 0.0
H1469 H 0.26094 0.79891 0.98607 0.0
H1470 H 0.2003 0.69639 0.90539 0.0
H1471 H 0.23244 0.7275 0.93342 0.0
H1472 H 0.23671 0.71611 0.03305 0.0
C1473 C 0.28348 0.79816 0.07381 0.0
C1474 C 0.2561 0.78082 0.99648 0.0
C1475 C 0.30164 0.8163 0.08971 0.0
C1476 C 0.19592 0.69906 0.92919 0.0
C1477 C 0.21425 0.71699 0.94523 0.0
C1478 C 0.24157 0.73421 0.02264 0.0
C1479 C 0.28803 0.79418 0.0428 0.0
C1480 C 0.26807 0.77533 0.02573 0.0
C1481 C 0.20968 0.72086 0.97625 0.0
C1482 C 0.22962 0.73969 0.99339 0.0
H1483 H 0.34739 0.83763 0.03213 0.0
H1484 H 0.31594 0.80578 1.00443 0.0
H1485 H 0.26975 0.7468 0.06091 0.0
H1486 H 0.14993 0.67767 0.98655 0.0
H1487 H 0.1817 0.70918 0.01454 0.0
C1488 C 0.04922 0.5801 0.94758 0.0
C1489 C 0.07196 0.56861 0.92894 0.0
C1490 C 0.0302 0.56545 0.96648 0.0
C1491 C 0.0293 0.50322 1.00444 0.0
H1492 H 0.93963 0.51924 0.0177 0.0
C1493 C 0.94514 0.43764 0.07132 0.0
C1494 C 0.9221 0.44898 0.08976 0.0
C1495 C 0.96412 0.45239 0.05251 0.0
C1496 C 0.96477 0.5147 0.01457 0.0
H1497 H 0.09166 0.53258 0.91484 0.0
H1498 H 0.05822 0.50706 0.9475 0.0
H1499 H 0.97008 0.54432 0.9821 0.0
H1500 H 0.90183 0.48488 0.10362 0.0
H1501 H 0.93527 0.51061 0.07117 0.0
H1502 H 0.02402 0.47363 0.03693 0.0
C1503 C 0.05549 0.52744 0.94789 0.0
C1504 C 0.98221 0.52906 0.99408 0.0
C1505 C 0.07448 0.54208 0.92896 0.0
C1506 C 0.91924 0.47549 0.08965 0.0
C1507 C 0.93823 0.49025 0.07083 0.0
C1508 C 0.01187 0.48887 0.02494 0.0
C1509 C 0.03347 0.53896 0.96724 0.0
C1510 C 0.01469 0.52349 0.98873 0.0
C1511 C 0.96056 0.47886 0.05167 0.0
C1512 C 0.97937 0.49442 0.03028 0.0
H1513 H 0.04665 0.60049 0.9482 0.0
H1514 H 0.01368 0.57498 0.98124 0.0
H1515 H 0.05443 0.49868 1.00129 0.0
H1516 H 0.94797 0.41726 0.07078 0.0
H1517 H 0.98086 0.44294 0.03789 0.0
C1518 C 0.17054 0.54177 0.33942 0.0
C1519 C 0.17335 0.56829 0.33927 0.0
C1520 C 0.18943 0.52687 0.32065 0.0
C1521 C 0.26288 0.52781 0.27457 0.0
H1522 H 0.221 0.47198 0.23241 0.0
C1523 C 0.32544 0.4736 0.1792 0.0
C1524 C 0.32275 0.44708 0.17932 0.0
C1525 C 0.30651 0.48843 0.19802 0.0
C1526 C 0.23316 0.48734 0.24421 0.0
H1527 H 0.19901 0.59986 0.3198 0.0
H1528 H 0.23177 0.57391 0.287 0.0
H1529 H 0.19061 0.49744 0.26774 0.0
H1530 H 0.29725 0.41541 0.19876 0.0
H1531 H 0.26441 0.44125 0.23164 0.0
H1532 H 0.30542 0.51772 0.25103 0.0
C1533 C 0.21513 0.56458 0.3018 0.0
C1534 C 0.21575 0.50192 0.26454 0.0
C1535 C 0.19623 0.57949 0.32057 0.0
C1536 C 0.29993 0.43579 0.19802 0.0
C1537 C 0.28099 0.45063 0.21684 0.0
C1538 C 0.28029 0.51323 0.25423 0.0
C1539 C 0.21162 0.5381 0.30126 0.0
C1540 C 0.23038 0.52234 0.27999 0.0
C1541 C 0.2844 0.47712 0.21743 0.0
C1542 C 0.26565 0.49282 0.23877 0.0
H1543 H 0.15325 0.53248 0.35359 0.0
H1544 H 0.1865 0.50651 0.32122 0.0
H1545 H 0.27505 0.54316 0.28636 0.0
H1546 H 0.34267 0.48296 0.16503 0.0
H1547 H 0.30935 0.5088 0.19748 0.0
C1548 C 0.80114 0.3167 0.08972 0.0
C1549 C 0.82413 0.33154 0.07515 0.0
C1550 C 0.78296 0.29872 0.07359 0.0
C1551 C 0.78117 0.2611 1.00296 0.0
H1552 H 0.69012 0.25486 0.01907 0.0
C1553 C 0.69539 0.20052 0.92789 0.0
C1554 C 0.67251 0.18564 0.94257 0.0
C1555 C 0.71363 0.21851 0.94395 0.0
C1556 C 0.71557 0.25616 0.01452 0.0
H1557 H 0.8463 0.33902 0.03226 0.0
H1558 H 0.81442 0.30775 1.00403 0.0
H1559 H 0.72281 0.28549 0.04734 0.0
H1560 H 0.65064 0.17811 0.98559 0.0
H1561 H 0.68258 0.20941 0.01367 0.0
H1562 H 0.77391 0.23177 0.97012 0.0
C1563 C 0.81066 0.3098 0.02801 0.0
C1564 C 0.73434 0.27372 0.03075 0.0
C1565 C 0.82885 0.32781 0.04416 0.0
C1566 C 0.66799 0.18935 0.97359 0.0
C1567 C 0.68621 0.20737 0.98966 0.0
C1568 C 0.76239 0.24354 0.98672 0.0
C1569 C 0.78733 0.29515 0.04249 0.0
C1570 C 0.76739 0.27641 0.0252 0.0
C1571 C 0.70941 0.22207 0.97508 0.0
C1572 C 0.72935 0.24085 0.9923 0.0
H1573 H 0.79698 0.31907 0.1136 0.0
H1574 H 0.76557 0.2875 0.08556 0.0
H1575 H 0.80663 0.26239 0.99841 0.0
H1576 H 0.69942 0.19816 0.90399 0.0
H1577 H 0.73094 0.22976 0.93191 0.0
C1578 C 0.8003 0.43613 0.69791 0.0
C1579 C 0.82408 0.4475 0.68036 0.0
C1580 C 0.78113 0.45079 0.71669 0.0
C1581 C 0.75395 0.51648 0.73094 0.0
H1582 H 0.73879 0.49125 0.81155 0.0
C1583 C 0.69616 0.57901 0.82167 0.0
C1584 C 0.67239 0.56774 0.83931 0.0
C1585 C 0.71539 0.56426 0.80307 0.0
C1586 C 0.74252 0.49847 0.78903 0.0
H1587 H 0.84566 0.48335 0.66822 0.0
H1588 H 0.81233 0.50886 0.70101 0.0
H1589 H 0.76951 0.46574 0.7765 0.0
H1590 H 0.65093 0.53195 0.85185 0.0
H1591 H 0.68436 0.50625 0.81932 0.0
H1592 H 0.72695 0.54919 0.74344 0.0
C1593 C 0.80834 0.48862 0.70011 0.0
C1594 C 0.76009 0.48382 0.76889 0.0
C1595 C 0.82754 0.47396 0.68135 0.0
C1596 C 0.66905 0.54126 0.83864 0.0
C1597 C 0.6883 0.5265 0.82002 0.0
C1598 C 0.73637 0.53112 0.75107 0.0
C1599 C 0.78521 0.47718 0.71835 0.0
C1600 C 0.76604 0.49264 0.73959 0.0
C1601 C 0.71136 0.53785 0.80163 0.0
C1602 C 0.73046 0.52233 0.78039 0.0
H1603 H 0.79686 0.41581 0.69763 0.0
H1604 H 0.76317 0.44141 0.73003 0.0
H1605 H 0.75769 0.52371 0.70842 0.0
H1606 H 0.69954 0.59934 0.82173 0.0
H1607 H 0.73333 0.57358 0.78965 0.0
C1608 C 0.44698 0.93684 0.07079 0.0
C1609 C 0.4232 0.94834 0.08824 0.0
C1610 C 0.46637 0.95139 0.05213 0.0
C1611 C 0.4939 0.01702 0.03791 0.0
H1612 H 0.50936 0.99147 0.95744 0.0
C1613 C 0.55173 0.07914 0.94689 0.0
C1614 C 0.57564 0.06779 0.92945 0.0
C1615 C 0.53253 0.06447 0.96559 0.0
C1616 C 0.50554 0.99878 0.97993 0.0
H1617 H 0.40185 0.98431 0.10036 0.0
H1618 H 0.43553 0.00963 0.06775 0.0
H1619 H 0.47847 0.96612 0.99245 0.0
H1620 H 0.59741 0.03196 0.9174 0.0
H1621 H 0.56402 1.00643 0.95008 0.0
H1622 H 0.52094 0.04968 0.02538 0.0
C1623 C 0.43938 0.98937 0.06864 0.0
C1624 C 0.48788 0.98422 1.00004 0.0
C1625 C 0.41997 0.97482 0.0873 0.0
C1626 C 0.57919 0.04134 0.93045 0.0
C1627 C 0.55996 0.02667 0.94915 0.0
C1628 C 0.51155 0.03158 0.0178 0.0
C1629 C 0.46249 0.97781 0.05048 0.0
C1630 C 0.48182 0.99315 0.02929 0.0
C1631 C 0.53672 0.03809 0.9673 0.0
C1632 C 0.51757 0.02266 0.98853 0.0
H1633 H 0.45025 0.9165 0.07105 0.0
H1634 H 0.48432 0.94191 0.03886 0.0
H1635 H 0.49009 0.02433 0.06039 0.0
H1636 H 0.5482 0.09945 0.94658 0.0
H1637 H 0.51447 0.07384 0.97885 0.0
C1638 C 0.44521 0.31588 0.17884 0.0
C1639 C 0.42213 0.33058 0.19353 0.0
C1640 C 0.46338 0.29782 0.19479 0.0
C1641 C 0.46463 0.25948 0.26466 0.0
H1642 H 0.55577 0.25318 0.24894 0.0
C1643 C 0.54972 0.19801 0.33911 0.0
C1644 C 0.57282 0.18334 0.3244 0.0
C1645 C 0.53153 0.21608 0.32319 0.0
C1646 C 0.53028 0.25449 0.25337 0.0
H1647 H 0.39988 0.33779 0.23645 0.0
H1648 H 0.43175 0.30635 0.26439 0.0
H1649 H 0.52341 0.28429 0.22115 0.0
H1650 H 0.59507 0.17621 0.28146 0.0
H1651 H 0.56316 0.20764 0.25358 0.0
H1652 H 0.4715 0.22968 0.29687 0.0
C1653 C 0.43557 0.30859 0.24044 0.0
C1654 C 0.51171 0.27233 0.23743 0.0
C1655 C 0.4174 0.32669 0.22447 0.0
C1656 C 0.57754 0.18727 0.29346 0.0
C1657 C 0.55934 0.20538 0.27752 0.0
C1658 C 0.48319 0.24163 0.2806 0.0
C1659 C 0.4589 0.29402 0.22582 0.0
C1660 C 0.47865 0.27504 0.24286 0.0
C1661 C 0.53601 0.21992 0.29217 0.0
C1662 C 0.51626 0.23892 0.27516 0.0
H1663 H 0.44938 0.31838 0.15498 0.0
H1664 H 0.48078 0.28668 0.18272 0.0
H1665 H 0.43914 0.26079 0.26908 0.0
H1666 H 0.54556 0.19548 0.36297 0.0
H1667 H 0.51411 0.22719 0.33528 0.0
C1668 C 0.41646 0.82662 0.7224 0.0
C1669 C 0.42108 0.83051 0.69143 0.0
C1670 C 0.43462 0.80849 0.73831 0.0
C1671 C 0.51078 0.77225 0.73503 0.0
H1672 H 0.4712 0.73012 0.79537 0.0
C1673 C 0.5773 0.68788 0.79202 0.0
C1674 C 0.57279 0.68429 0.82305 0.0
C1675 C 0.55898 0.70579 0.77588 0.0
C1676 C 0.48272 0.74193 0.77884 0.0
H1677 H 0.44807 0.81818 0.65278 0.0
H1678 H 0.47943 0.78639 0.68042 0.0
H1679 H 0.43852 0.76089 0.76737 0.0
H1680 H 0.54579 0.69688 0.86158 0.0
H1681 H 0.51413 0.72825 0.83357 0.0
H1682 H 0.55498 0.75329 0.74651 0.0
C1683 C 0.46213 0.79758 0.69255 0.0
C1684 C 0.46396 0.75957 0.76277 0.0
C1685 C 0.44397 0.81569 0.67665 0.0
C1686 C 0.5498 0.69914 0.83766 0.0
C1687 C 0.53148 0.71701 0.82155 0.0
C1688 C 0.52953 0.75459 0.75109 0.0
C1689 C 0.45784 0.79385 0.72362 0.0
C1690 C 0.47775 0.77497 0.74066 0.0
C1691 C 0.53571 0.72048 0.79043 0.0
C1692 C 0.51575 0.73923 0.77322 0.0
H1693 H 0.3991 0.83781 0.73446 0.0
H1694 H 0.43094 0.80631 0.76229 0.0
H1695 H 0.52231 0.78407 0.71852 0.0
H1696 H 0.59475 0.67666 0.78009 0.0
H1697 H 0.56262 0.70778 0.75188 0.0
C1698 C 0.55026 0.57671 0.4461 0.0
C1699 C 0.57292 0.56519 0.42741 0.0
C1700 C 0.53139 0.56211 0.46516 0.0
C1701 C 0.50281 0.49676 0.479 0.0
H1702 H 0.4924 0.52114 0.5608 0.0
C1703 C 0.44656 0.43445 0.5708 0.0
C1704 C 0.42401 0.44615 0.58945 0.0
C1705 C 0.46564 0.44891 0.55176 0.0
C1706 C 0.4948 0.51416 0.53797 0.0
H1707 H 0.5927 0.52915 0.41344 0.0
H1708 H 0.55988 0.50372 0.44674 0.0
H1709 H 0.52229 0.54648 0.52504 0.0
H1710 H 0.40462 0.48235 0.60335 0.0
H1711 H 0.43775 0.50751 0.5701 0.0
H1712 H 0.47529 0.46445 0.49192 0.0
C1713 C 0.55655 0.52405 0.44654 0.0
C1714 C 0.51189 0.52872 0.51743 0.0
C1715 C 0.57545 0.53866 0.42748 0.0
C1716 C 0.42178 0.4727 0.58935 0.0
C1717 C 0.44088 0.48716 0.57032 0.0
C1718 C 0.48571 0.4822 0.49955 0.0
C1719 C 0.53468 0.53563 0.46599 0.0
C1720 C 0.51608 0.52022 0.48767 0.0
C1721 C 0.46267 0.47542 0.55093 0.0
C1722 C 0.48148 0.49072 0.52929 0.0
H1723 H 0.54753 0.5971 0.44653 0.0
H1724 H 0.51436 0.57161 0.47943 0.0
H1725 H 0.50522 0.48979 0.45617 0.0
H1726 H 0.44902 0.41405 0.57037 0.0
H1727 H 0.48259 0.43929 0.53752 0.0
loop_
_geom_bond_atom_site_label_1
_geom_bond_atom_site_label_2
_geom_bond_distance
_geom_bond_site_symmetry_2
_ccdc_geom_bond_type
Co0 N4 2.148 . S
Co0 N10 2.128 . S
Co0 N20 2.194 . S
Co0 O25 2.351 . S
Co0 O26 2.155 . S
Co0 O27 2.096 . S
C1 N4 1.301 . S
C1 N5 1.328 . S
C1 H6 0.930 . S
C2 C3 1.333 . S
C2 N4 1.317 . S
C2 H7 0.930 . S
C3 C2 1.333 . S
C3 N5 1.350 . S
C3 H29 0.931 . S
N4 Co0 2.148 . S
N4 C1 1.301 . S
N4 C2 1.317 . S
N5 C1 1.328 . S
N5 C3 1.350 . S
H6 C1 0.930 . S
H7 C2 0.930 . S
C8 O9 1.224 . S
C8 O27 1.247 . S
O9 C8 1.224 . S
N10 Co0 2.128 . S
N10 C11 1.355 . S
N10 C13 1.311 . S
C11 N10 1.355 . S
C11 C12 1.363 . S
C11 H23 0.929 . S
C12 C11 1.363 . S
C12 N14 1.375 . S
C12 H30 0.931 . S
C13 N10 1.311 . S
C13 N14 1.347 . S
C13 H24 0.929 . S
N14 C12 1.375 . S
N14 C13 1.347 . S
C15 C18 1.365 . S
C15 N20 1.328 . S
C15 H21 0.929 . S
C16 C17 1.362 . S
C16 C19 1.378 . S
C16 H31 0.929 . S
C17 C16 1.362 . S
C17 C18 1.366 . S
C18 C15 1.365 . S
C18 C17 1.366 . S
C18 H32 0.930 . S
C19 C16 1.378 . S
C19 N20 1.315 . S
C19 H22 0.930 . S
N20 Co0 2.194 . S
N20 C15 1.328 . S
N20 C19 1.315 . S
H21 C15 0.929 . S
H22 C19 0.930 . S
H23 C11 0.929 . S
H24 C13 0.929 . S
O25 Co0 2.351 . S
O25 C28 1.244 . S
O26 Co0 2.155 . S
O26 C28 1.240 . S
O27 Co0 2.096 . S
O27 C8 1.247 . S
C28 O25 1.244 . S
C28 O26 1.240 . S
H29 C3 0.931 . S
H30 C12 0.931 . S
H31 C16 0.929 . S
H32 C18 0.930 . S
Co33 N37 2.148 . S
Co33 N43 2.128 . S
Co33 N53 2.194 . S
Co33 O58 2.351 . S
Co33 O59 2.155 . S
Co33 O60 2.096 . S
C34 N37 1.301 . S
C34 N38 1.328 . S
C34 H39 0.930 . S
C35 C36 1.333 . S
C35 N37 1.317 . S
C35 H40 0.930 . S
C36 C35 1.333 . S
C36 N38 1.350 . S
C36 H62 0.931 . S
N37 Co33 2.148 . S
N37 C34 1.301 . S
N37 C35 1.317 . S
N38 C34 1.328 . S
N38 C36 1.350 . S
H39 C34 0.930 . S
H40 C35 0.930 . S
C41 O42 1.224 . S
C41 O60 1.247 . S
O42 C41 1.224 . S
N43 Co33 2.128 . S
N43 C44 1.355 . S
N43 C46 1.311 . S
C44 N43 1.355 . S
C44 C45 1.363 . S
C44 H56 0.929 . S
C45 C44 1.363 . S
C45 N47 1.375 . S
C45 H63 0.931 . S
C46 N43 1.311 . S
C46 N47 1.347 . S
C46 H57 0.929 . S
N47 C45 1.375 . S
N47 C46 1.347 . S
C48 C51 1.365 . S
C48 N53 1.328 . S
C48 H54 0.929 . S
C49 C50 1.362 . S
C49 C52 1.378 . S
C49 H64 0.929 . S
C50 C49 1.362 . S
C50 C51 1.366 . S
C51 C48 1.365 . S
C51 C50 1.366 . S
C51 H65 0.930 . S
C52 C49 1.378 . S
C52 N53 1.315 . S
C52 H55 0.930 . S
N53 Co33 2.194 . S
N53 C48 1.328 . S
N53 C52 1.315 . S
H54 C48 0.929 . S
H55 C52 0.930 . S
H56 C44 0.929 . S
H57 C46 0.929 . S
O58 Co33 2.351 . S
O58 C61 1.244 . S
O59 Co33 2.155 . S
O59 C61 1.240 . S
O60 Co33 2.096 . S
O60 C41 1.247 . S
C61 O58 1.244 . S
C61 O59 1.240 . S
H62 C36 0.931 . S
H63 C45 0.931 . S
H64 C49 0.929 . S
H65 C51 0.930 . S
Co66 N70 2.148 . S
Co66 N76 2.128 . S
Co66 N86 2.194 . S
Co66 O91 2.351 . S
Co66 O92 2.155 . S
Co66 O93 2.096 . S
C67 N70 1.301 . S
C67 N71 1.328 . S
C67 H72 0.930 . S
C68 C69 1.333 . S
C68 N70 1.317 . S
C68 H73 0.930 . S
C69 C68 1.333 . S
C69 N71 1.350 . S
C69 H95 0.931 . S
N70 Co66 2.148 . S
N70 C67 1.301 . S
N70 C68 1.317 . S
N71 C67 1.328 . S
N71 C69 1.350 . S
H72 C67 0.930 . S
H73 C68 0.930 . S
C74 O75 1.224 . S
C74 O93 1.247 . S
O75 C74 1.224 . S
N76 Co66 2.128 . S
N76 C77 1.355 . S
N76 C79 1.311 . S
C77 N76 1.355 . S
C77 C78 1.363 . S
C77 H89 0.929 . S
C78 C77 1.363 . S
C78 N80 1.375 . S
C78 H96 0.931 . S
C79 N76 1.311 . S
C79 N80 1.347 . S
C79 H90 0.929 . S
N80 C78 1.375 . S
N80 C79 1.347 . S
C81 C84 1.365 . S
C81 N86 1.328 . S
C81 H87 0.929 . S
C82 C83 1.362 . S
C82 C85 1.378 . S
C82 H97 0.929 . S
C83 C82 1.362 . S
C83 C84 1.366 . S
C84 C81 1.365 . S
C84 C83 1.366 . S
C84 H98 0.930 . S
C85 C82 1.378 . S
C85 N86 1.315 . S
C85 H88 0.930 . S
N86 Co66 2.194 . S
N86 C81 1.328 . S
N86 C85 1.315 . S
H87 C81 0.929 . S
H88 C85 0.930 . S
H89 C77 0.929 . S
H90 C79 0.929 . S
O91 Co66 2.351 . S
O91 C94 1.244 . S
O92 Co66 2.155 . S
O92 C94 1.240 . S
O93 Co66 2.096 . S
O93 C74 1.247 . S
C94 O91 1.244 . S
C94 O92 1.240 . S
H95 C69 0.931 . S
H96 C78 0.931 . S
H97 C82 0.929 . S
H98 C84 0.930 . S
Co99 N103 2.148 . S
Co99 N109 2.128 . S
Co99 N119 2.194 . S
Co99 O124 2.351 . S
Co99 O125 2.155 . S
Co99 O126 2.096 . S
C100 N103 1.301 . S
C100 N104 1.328 . S
C100 H105 0.930 . S
C101 C102 1.333 . S
C101 N103 1.317 . S
C101 H106 0.930 . S
C102 C101 1.333 . S
C102 N104 1.350 . S
C102 H128 0.931 . S
N103 Co99 2.148 . S
N103 C100 1.301 . S
N103 C101 1.317 . S
N104 C100 1.328 . S
N104 C102 1.350 . S
H105 C100 0.930 . S
H106 C101 0.930 . S
C107 O108 1.224 . S
C107 O126 1.247 . S
O108 C107 1.224 . S
N109 Co99 2.128 . S
N109 C110 1.355 . S
N109 C112 1.311 . S
C110 N109 1.355 . S
C110 C111 1.363 . S
C110 H122 0.929 . S
C111 C110 1.363 . S
C111 N113 1.375 . S
C111 H129 0.931 . S
C112 N109 1.311 . S
C112 N113 1.347 . S
C112 H123 0.929 . S
N113 C111 1.375 . S
N113 C112 1.347 . S
C114 C117 1.365 . S
C114 N119 1.328 . S
C114 H120 0.929 . S
C115 C116 1.362 . S
C115 C118 1.378 . S
C115 H130 0.929 . S
C116 C115 1.362 . S
C116 C117 1.366 . S
C117 C114 1.365 . S
C117 C116 1.366 . S
C117 H131 0.930 . S
C118 C115 1.378 . S
C118 N119 1.315 . S
C118 H121 0.930 . S
N119 Co99 2.194 . S
N119 C114 1.328 . S
N119 C118 1.315 . S
H120 C114 0.929 . S
H121 C118 0.930 . S
H122 C110 0.929 . S
H123 C112 0.929 . S
O124 Co99 2.351 . S
O124 C127 1.244 . S
O125 Co99 2.155 . S
O125 C127 1.240 . S
O126 Co99 2.096 . S
O126 C107 1.247 . S
C127 O124 1.244 . S
C127 O125 1.240 . S
H128 C102 0.931 . S
H129 C111 0.931 . S
H130 C115 0.929 . S
H131 C117 0.930 . S
Co132 N136 2.148 . S
Co132 N142 2.128 . S
Co132 N152 2.194 . S
Co132 O157 2.351 . S
Co132 O158 2.155 . S
Co132 O159 2.096 . S
C133 N136 1.301 . S
C133 N137 1.328 . S
C133 H138 0.930 . S
C134 C135 1.333 . S
C134 N136 1.317 . S
C134 H139 0.930 . S
C135 C134 1.333 . S
C135 N137 1.350 . S
C135 H161 0.931 . S
N136 Co132 2.148 . S
N136 C133 1.301 . S
N136 C134 1.317 . S
N137 C133 1.328 . S
N137 C135 1.350 . S
H138 C133 0.930 . S
H139 C134 0.930 . S
C140 O141 1.224 . S
C140 O159 1.247 . S
O141 C140 1.224 . S
N142 Co132 2.128 . S
N142 C143 1.355 . S
N142 C145 1.311 . S
C143 N142 1.355 . S
C143 C144 1.363 . S
C143 H155 0.929 . S
C144 C143 1.363 . S
C144 N146 1.375 . S
C144 H162 0.931 . S
C145 N142 1.311 . S
C145 N146 1.347 . S
C145 H156 0.929 . S
N146 C144 1.375 . S
N146 C145 1.347 . S
C147 C150 1.365 . S
C147 N152 1.328 . S
C147 H153 0.929 . S
C148 C149 1.362 . S
C148 C151 1.378 . S
C148 H163 0.929 . S
C149 C148 1.362 . S
C149 C150 1.366 . S
C150 C147 1.365 . S
C150 C149 1.366 . S
C150 H164 0.930 . S
C151 C148 1.378 . S
C151 N152 1.315 . S
C151 H154 0.930 . S
N152 Co132 2.194 . S
N152 C147 1.328 . S
N152 C151 1.315 . S
H153 C147 0.929 . S
H154 C151 0.930 . S
H155 C143 0.929 . S
H156 C145 0.929 . S
O157 Co132 2.351 . S
O157 C160 1.244 . S
O158 Co132 2.155 . S
O158 C160 1.240 . S
O159 Co132 2.096 . S
O159 C140 1.247 . S
C160 O157 1.244 . S
C160 O158 1.240 . S
H161 C135 0.931 . S
H162 C144 0.931 . S
H163 C148 0.929 . S
H164 C150 0.930 . S
Co165 N169 2.148 . S
Co165 N175 2.128 . S
Co165 N185 2.194 . S
Co165 O190 2.351 . S
Co165 O191 2.155 . S
Co165 O192 2.096 . S
C166 N169 1.301 . S
C166 N170 1.328 . S
C166 H171 0.930 . S
C167 C168 1.333 . S
C167 N169 1.317 . S
C167 H172 0.930 . S
C168 C167 1.333 . S
C168 N170 1.350 . S
C168 H194 0.931 . S
N169 Co165 2.148 . S
N169 C166 1.301 . S
N169 C167 1.317 . S
N170 C166 1.328 . S
N170 C168 1.350 . S
H171 C166 0.930 . S
H172 C167 0.930 . S
C173 O174 1.224 . S
C173 O192 1.247 . S
O174 C173 1.224 . S
N175 Co165 2.128 . S
N175 C176 1.355 . S
N175 C178 1.311 . S
C176 N175 1.355 . S
C176 C177 1.363 . S
C176 H188 0.929 . S
C177 C176 1.363 . S
C177 N179 1.375 . S
C177 H195 0.931 . S
C178 N175 1.311 . S
C178 N179 1.347 . S
C178 H189 0.929 . S
N179 C177 1.375 . S
N179 C178 1.347 . S
C180 C183 1.365 . S
C180 N185 1.328 . S
C180 H186 0.929 . S
C181 C182 1.362 . S
C181 C184 1.378 . S
C181 H196 0.929 . S
C182 C181 1.362 . S
C182 C183 1.366 . S
C183 C180 1.365 . S
C183 C182 1.366 . S
C183 H197 0.930 . S
C184 C181 1.378 . S
C184 N185 1.315 . S
C184 H187 0.930 . S
N185 Co165 2.194 . S
N185 C180 1.328 . S
N185 C184 1.315 . S
H186 C180 0.929 . S
H187 C184 0.930 . S
H188 C176 0.929 . S
H189 C178 0.929 . S
O190 Co165 2.351 . S
O190 C193 1.244 . S
O191 Co165 2.155 . S
O191 C193 1.240 . S
O192 Co165 2.096 . S
O192 C173 1.247 . S
C193 O190 1.244 . S
C193 O191 1.240 . S
H194 C168 0.931 . S
H195 C177 0.931 . S
H196 C181 0.929 . S
H197 C183 0.930 . S
Co198 N202 2.148 . S
Co198 N208 2.128 . S
Co198 N218 2.194 . S
Co198 O223 2.351 . S
Co198 O224 2.155 . S
Co198 O225 2.096 . S
C199 N202 1.301 . S
C199 N203 1.328 . S
C199 H204 0.930 . S
C200 C201 1.333 . S
C200 N202 1.317 . S
C200 H205 0.930 . S
C201 C200 1.333 . S
C201 N203 1.350 . S
C201 H227 0.931 . S
N202 Co198 2.148 . S
N202 C199 1.301 . S
N202 C200 1.317 . S
N203 C199 1.328 . S
N203 C201 1.350 . S
H204 C199 0.930 . S
H205 C200 0.930 . S
C206 O207 1.224 . S
C206 O225 1.247 . S
O207 C206 1.224 . S
N208 Co198 2.128 . S
N208 C209 1.355 . S
N208 C211 1.311 . S
C209 N208 1.355 . S
C209 C210 1.363 . S
C209 H221 0.929 . S
C210 C209 1.363 . S
C210 N212 1.375 . S
C210 H228 0.931 . S
C211 N208 1.311 . S
C211 N212 1.347 . S
C211 H222 0.929 . S
N212 C210 1.375 . S
N212 C211 1.347 . S
C213 C216 1.365 . S
C213 N218 1.328 . S
C213 H219 0.929 . S
C214 C215 1.362 . S
C214 C217 1.378 . S
C214 H229 0.929 . S
C215 C214 1.362 . S
C215 C216 1.366 . S
C216 C213 1.365 . S
C216 C215 1.366 . S
C216 H230 0.930 . S
C217 C214 1.378 . S
C217 N218 1.315 . S
C217 H220 0.930 . S
N218 Co198 2.194 . S
N218 C213 1.328 . S
N218 C217 1.315 . S
H219 C213 0.929 . S
H220 C217 0.930 . S
H221 C209 0.929 . S
H222 C211 0.929 . S
O223 Co198 2.351 . S
O223 C226 1.244 . S
O224 Co198 2.155 . S
O224 C226 1.240 . S
O225 Co198 2.096 . S
O225 C206 1.247 . S
C226 O223 1.244 . S
C226 O224 1.240 . S
H227 C201 0.931 . S
H228 C210 0.931 . S
H229 C214 0.929 . S
H230 C216 0.930 . S
Co231 N235 2.148 . S
Co231 N241 2.128 . S
Co231 N251 2.194 . S
Co231 O256 2.351 . S
Co231 O257 2.155 . S
Co231 O258 2.096 . S
C232 N235 1.301 . S
C232 N236 1.328 . S
C232 H237 0.930 . S
C233 C234 1.333 . S
C233 N235 1.317 . S
C233 H238 0.930 . S
C234 C233 1.333 . S
C234 N236 1.350 . S
C234 H260 0.931 . S
N235 Co231 2.148 . S
N235 C232 1.301 . S
N235 C233 1.317 . S
N236 C232 1.328 . S
N236 C234 1.350 . S
H237 C232 0.930 . S
H238 C233 0.930 . S
C239 O240 1.224 . S
C239 O258 1.247 . S
O240 C239 1.224 . S
N241 Co231 2.128 . S
N241 C242 1.355 . S
N241 C244 1.311 . S
C242 N241 1.355 . S
C242 C243 1.363 . S
C242 H254 0.929 . S
C243 C242 1.363 . S
C243 N245 1.375 . S
C243 H261 0.931 . S
C244 N241 1.311 . S
C244 N245 1.347 . S
C244 H255 0.929 . S
N245 C243 1.375 . S
N245 C244 1.347 . S
C246 C249 1.365 . S
C246 N251 1.328 . S
C246 H252 0.929 . S
C247 C248 1.362 . S
C247 C250 1.378 . S
C247 H262 0.929 . S
C248 C247 1.362 . S
C248 C249 1.366 . S
C249 C246 1.365 . S
C249 C248 1.366 . S
C249 H263 0.930 . S
C250 C247 1.378 . S
C250 N251 1.315 . S
C250 H253 0.930 . S
N251 Co231 2.194 . S
N251 C246 1.328 . S
N251 C250 1.315 . S
H252 C246 0.929 . S
H253 C250 0.930 . S
H254 C242 0.929 . S
H255 C244 0.929 . S
O256 Co231 2.351 . S
O256 C259 1.244 . S
O257 Co231 2.155 . S
O257 C259 1.240 . S
O258 Co231 2.096 . S
O258 C239 1.247 . S
C259 O256 1.244 . S
C259 O257 1.240 . S
H260 C234 0.931 . S
H261 C243 0.931 . S
H262 C247 0.929 . S
H263 C249 0.930 . S
Co264 N268 2.148 . S
Co264 N274 2.128 . S
Co264 N284 2.194 . S
Co264 O289 2.351 . S
Co264 O290 2.155 . S
Co264 O291 2.096 . S
C265 N268 1.301 . S
C265 N269 1.328 . S
C265 H270 0.930 . S
C266 C267 1.333 . S
C266 N268 1.317 . S
C266 H271 0.930 . S
C267 C266 1.333 . S
C267 N269 1.350 . S
C267 H293 0.931 . S
N268 Co264 2.148 . S
N268 C265 1.301 . S
N268 C266 1.317 . S
N269 C265 1.328 . S
N269 C267 1.350 . S
H270 C265 0.930 . S
H271 C266 0.930 . S
C272 O273 1.224 . S
C272 O291 1.247 . S
O273 C272 1.224 . S
N274 Co264 2.128 . S
N274 C275 1.355 . S
N274 C277 1.311 . S
C275 N274 1.355 . S
C275 C276 1.363 . S
C275 H287 0.929 . S
C276 C275 1.363 . S
C276 N278 1.375 . S
C276 H294 0.931 . S
C277 N274 1.311 . S
C277 N278 1.347 . S
C277 H288 0.929 . S
N278 C276 1.375 . S
N278 C277 1.347 . S
C279 C282 1.365 . S
C279 N284 1.328 . S
C279 H285 0.929 . S
C280 C281 1.362 . S
C280 C283 1.378 . S
C280 H295 0.929 . S
C281 C280 1.362 . S
C281 C282 1.366 . S
C282 C279 1.365 . S
C282 C281 1.366 . S
C282 H296 0.930 . S
C283 C280 1.378 . S
C283 N284 1.315 . S
C283 H286 0.930 . S
N284 Co264 2.194 . S
N284 C279 1.328 . S
N284 C283 1.315 . S
H285 C279 0.929 . S
H286 C283 0.930 . S
H287 C275 0.929 . S
H288 C277 0.929 . S
O289 Co264 2.351 . S
O289 C292 1.244 . S
O290 Co264 2.155 . S
O290 C292 1.240 . S
O291 Co264 2.096 . S
O291 C272 1.247 . S
C292 O289 1.244 . S
C292 O290 1.240 . S
H293 C267 0.931 . S
H294 C276 0.931 . S
H295 C280 0.929 . S
H296 C282 0.930 . S
Co297 N301 2.148 . S
Co297 N307 2.128 . S
Co297 N317 2.194 . S
Co297 O322 2.351 . S
Co297 O323 2.155 . S
Co297 O324 2.096 . S
C298 N301 1.301 . S
C298 N302 1.328 . S
C298 H303 0.930 . S
C299 C300 1.333 . S
C299 N301 1.317 . S
C299 H304 0.930 . S
C300 C299 1.333 . S
C300 N302 1.350 . S
C300 H326 0.931 . S
N301 Co297 2.148 . S
N301 C298 1.301 . S
N301 C299 1.317 . S
N302 C298 1.328 . S
N302 C300 1.350 . S
H303 C298 0.930 . S
H304 C299 0.930 . S
C305 O306 1.224 . S
C305 O324 1.247 . S
O306 C305 1.224 . S
N307 Co297 2.128 . S
N307 C308 1.355 . S
N307 C310 1.311 . S
C308 N307 1.355 . S
C308 C309 1.363 . S
C308 H320 0.929 . S
C309 C308 1.363 . S
C309 N311 1.375 . S
C309 H327 0.931 . S
C310 N307 1.311 . S
C310 N311 1.347 . S
C310 H321 0.929 . S
N311 C309 1.375 . S
N311 C310 1.347 . S
C312 C315 1.365 . S
C312 N317 1.328 . S
C312 H318 0.929 . S
C313 C314 1.362 . S
C313 C316 1.378 . S
C313 H328 0.929 . S
C314 C313 1.362 . S
C314 C315 1.366 . S
C315 C312 1.365 . S
C315 C314 1.366 . S
C315 H329 0.930 . S
C316 C313 1.378 . S
C316 N317 1.315 . S
C316 H319 0.930 . S
N317 Co297 2.194 . S
N317 C312 1.328 . S
N317 C316 1.315 . S
H318 C312 0.929 . S
H319 C316 0.930 . S
H320 C308 0.929 . S
H321 C310 0.929 . S
O322 Co297 2.351 . S
O322 C325 1.244 . S
O323 Co297 2.155 . S
O323 C325 1.240 . S
O324 Co297 2.096 . S
O324 C305 1.247 . S
C325 O322 1.244 . S
C325 O323 1.240 . S
H326 C300 0.931 . S
H327 C309 0.931 . S
H328 C313 0.929 . S
H329 C315 0.930 . S
Co330 N334 2.148 . S
Co330 N340 2.128 . S
Co330 N350 2.194 . S
Co330 O355 2.351 . S
Co330 O356 2.155 . S
Co330 O357 2.096 . S
C331 N334 1.301 . S
C331 N335 1.328 . S
C331 H336 0.930 . S
C332 C333 1.333 . S
C332 N334 1.317 . S
C332 H337 0.930 . S
C333 C332 1.333 . S
C333 N335 1.350 . S
C333 H359 0.931 . S
N334 Co330 2.148 . S
N334 C331 1.301 . S
N334 C332 1.317 . S
N335 C331 1.328 . S
N335 C333 1.350 . S
H336 C331 0.930 . S
H337 C332 0.930 . S
C338 O339 1.224 . S
C338 O357 1.247 . S
O339 C338 1.224 . S
N340 Co330 2.128 . S
N340 C341 1.355 . S
N340 C343 1.311 . S
C341 N340 1.355 . S
C341 C342 1.363 . S
C341 H353 0.929 . S
C342 C341 1.363 . S
C342 N344 1.375 . S
C342 H360 0.931 . S
C343 N340 1.311 . S
C343 N344 1.347 . S
C343 H354 0.929 . S
N344 C342 1.375 . S
N344 C343 1.347 . S
C345 C348 1.365 . S
C345 N350 1.328 . S
C345 H351 0.929 . S
C346 C347 1.362 . S
C346 C349 1.378 . S
C346 H361 0.929 . S
C347 C346 1.362 . S
C347 C348 1.366 . S
C348 C345 1.365 . S
C348 C347 1.366 . S
C348 H362 0.930 . S
C349 C346 1.378 . S
C349 N350 1.315 . S
C349 H352 0.930 . S
N350 Co330 2.194 . S
N350 C345 1.328 . S
N350 C349 1.315 . S
H351 C345 0.929 . S
H352 C349 0.930 . S
H353 C341 0.929 . S
H354 C343 0.929 . S
O355 Co330 2.351 . S
O355 C358 1.244 . S
O356 Co330 2.155 . S
O356 C358 1.240 . S
O357 Co330 2.096 . S
O357 C338 1.247 . S
C358 O355 1.244 . S
C358 O356 1.240 . S
H359 C333 0.931 . S
H360 C342 0.931 . S
H361 C346 0.929 . S
H362 C348 0.930 . S
Co363 N367 2.148 . S
Co363 N373 2.128 . S
Co363 N383 2.194 . S
Co363 O388 2.351 . S
Co363 O389 2.155 . S
Co363 O390 2.096 . S
C364 N367 1.301 . S
C364 N368 1.328 . S
C364 H369 0.930 . S
C365 C366 1.333 . S
C365 N367 1.317 . S
C365 H370 0.930 . S
C366 C365 1.333 . S
C366 N368 1.350 . S
C366 H392 0.931 . S
N367 Co363 2.148 . S
N367 C364 1.301 . S
N367 C365 1.317 . S
N368 C364 1.328 . S
N368 C366 1.350 . S
H369 C364 0.930 . S
H370 C365 0.930 . S
C371 O372 1.224 . S
C371 O390 1.247 . S
O372 C371 1.224 . S
N373 Co363 2.128 . S
N373 C374 1.355 . S
N373 C376 1.311 . S
C374 N373 1.355 . S
C374 C375 1.363 . S
C374 H386 0.929 . S
C375 C374 1.363 . S
C375 N377 1.375 . S
C375 H393 0.931 . S
C376 N373 1.311 . S
C376 N377 1.347 . S
C376 H387 0.929 . S
N377 C375 1.375 . S
N377 C376 1.347 . S
C378 C381 1.365 . S
C378 N383 1.328 . S
C378 H384 0.929 . S
C379 C380 1.362 . S
C379 C382 1.378 . S
C379 H394 0.929 . S
C380 C379 1.362 . S
C380 C381 1.366 . S
C381 C378 1.365 . S
C381 C380 1.366 . S
C381 H395 0.930 . S
C382 C379 1.378 . S
C382 N383 1.315 . S
C382 H385 0.930 . S
N383 Co363 2.194 . S
N383 C378 1.328 . S
N383 C382 1.315 . S
H384 C378 0.929 . S
H385 C382 0.930 . S
H386 C374 0.929 . S
H387 C376 0.929 . S
O388 Co363 2.351 . S
O388 C391 1.244 . S
O389 Co363 2.155 . S
O389 C391 1.240 . S
O390 Co363 2.096 . S
O390 C371 1.247 . S
C391 O388 1.244 . S
C391 O389 1.240 . S
H392 C366 0.931 . S
H393 C375 0.931 . S
H394 C379 0.929 . S
H395 C381 0.930 . S
Co396 N400 2.148 . S
Co396 N406 2.128 . S
Co396 N416 2.194 . S
Co396 O421 2.351 . S
Co396 O422 2.155 . S
Co396 O423 2.096 . S
C397 N400 1.301 . S
C397 N401 1.328 . S
C397 H402 0.930 . S
C398 C399 1.333 . S
C398 N400 1.317 . S
C398 H403 0.930 . S
C399 C398 1.333 . S
C399 N401 1.350 . S
C399 H425 0.931 . S
N400 Co396 2.148 . S
N400 C397 1.301 . S
N400 C398 1.317 . S
N401 C397 1.328 . S
N401 C399 1.350 . S
H402 C397 0.930 . S
H403 C398 0.930 . S
C404 O405 1.224 . S
C404 O423 1.247 . S
O405 C404 1.224 . S
N406 Co396 2.128 . S
N406 C407 1.355 . S
N406 C409 1.311 . S
C407 N406 1.355 . S
C407 C408 1.363 . S
C407 H419 0.929 . S
C408 C407 1.363 . S
C408 N410 1.375 . S
C408 H426 0.931 . S
C409 N406 1.311 . S
C409 N410 1.347 . S
C409 H420 0.929 . S
N410 C408 1.375 . S
N410 C409 1.347 . S
C411 C414 1.365 . S
C411 N416 1.328 . S
C411 H417 0.929 . S
C412 C413 1.362 . S
C412 C415 1.378 . S
C412 H427 0.929 . S
C413 C412 1.362 . S
C413 C414 1.366 . S
C414 C411 1.365 . S
C414 C413 1.366 . S
C414 H428 0.930 . S
C415 C412 1.378 . S
C415 N416 1.315 . S
C415 H418 0.930 . S
N416 Co396 2.194 . S
N416 C411 1.328 . S
N416 C415 1.315 . S
H417 C411 0.929 . S
H418 C415 0.930 . S
H419 C407 0.929 . S
H420 C409 0.929 . S
O421 Co396 2.351 . S
O421 C424 1.244 . S
O422 Co396 2.155 . S
O422 C424 1.240 . S
O423 Co396 2.096 . S
O423 C404 1.247 . S
C424 O421 1.244 . S
C424 O422 1.240 . S
H425 C399 0.931 . S
H426 C408 0.931 . S
H427 C412 0.929 . S
H428 C414 0.930 . S
Co429 N433 2.148 . S
Co429 N439 2.128 . S
Co429 N449 2.194 . S
Co429 O454 2.351 . S
Co429 O455 2.155 . S
Co429 O456 2.096 . S
C430 N433 1.301 . S
C430 N434 1.328 . S
C430 H435 0.930 . S
C431 C432 1.333 . S
C431 N433 1.317 . S
C431 H436 0.930 . S
C432 C431 1.333 . S
C432 N434 1.350 . S
C432 H458 0.931 . S
N433 Co429 2.148 . S
N433 C430 1.301 . S
N433 C431 1.317 . S
N434 C430 1.328 . S
N434 C432 1.350 . S
H435 C430 0.930 . S
H436 C431 0.930 . S
C437 O438 1.224 . S
C437 O456 1.247 . S
O438 C437 1.224 . S
N439 Co429 2.128 . S
N439 C440 1.355 . S
N439 C442 1.311 . S
C440 N439 1.355 . S
C440 C441 1.363 . S
C440 H452 0.929 . S
C441 C440 1.363 . S
C441 N443 1.375 . S
C441 H459 0.931 . S
C442 N439 1.311 . S
C442 N443 1.347 . S
C442 H453 0.929 . S
N443 C441 1.375 . S
N443 C442 1.347 . S
C444 C447 1.365 . S
C444 N449 1.328 . S
C444 H450 0.929 . S
C445 C446 1.362 . S
C445 C448 1.378 . S
C445 H460 0.929 . S
C446 C445 1.362 . S
C446 C447 1.366 . S
C447 C444 1.365 . S
C447 C446 1.366 . S
C447 H461 0.930 . S
C448 C445 1.378 . S
C448 N449 1.315 . S
C448 H451 0.930 . S
N449 Co429 2.194 . S
N449 C444 1.328 . S
N449 C448 1.315 . S
H450 C444 0.929 . S
H451 C448 0.930 . S
H452 C440 0.929 . S
H453 C442 0.929 . S
O454 Co429 2.351 . S
O454 C457 1.244 . S
O455 Co429 2.155 . S
O455 C457 1.240 . S
O456 Co429 2.096 . S
O456 C437 1.247 . S
C457 O454 1.244 . S
C457 O455 1.240 . S
H458 C432 0.931 . S
H459 C441 0.931 . S
H460 C445 0.929 . S
H461 C447 0.930 . S
Co462 N466 2.148 . S
Co462 N472 2.128 . S
Co462 N482 2.194 . S
Co462 O487 2.351 . S
Co462 O488 2.155 . S
Co462 O489 2.096 . S
C463 N466 1.301 . S
C463 N467 1.328 . S
C463 H468 0.930 . S
C464 C465 1.333 . S
C464 N466 1.317 . S
C464 H469 0.930 . S
C465 C464 1.333 . S
C465 N467 1.350 . S
C465 H491 0.931 . S
N466 Co462 2.148 . S
N466 C463 1.301 . S
N466 C464 1.317 . S
N467 C463 1.328 . S
N467 C465 1.350 . S
H468 C463 0.930 . S
H469 C464 0.930 . S
C470 O471 1.224 . S
C470 O489 1.247 . S
O471 C470 1.224 . S
N472 Co462 2.128 . S
N472 C473 1.355 . S
N472 C475 1.311 . S
C473 N472 1.355 . S
C473 C474 1.363 . S
C473 H485 0.929 . S
C474 C473 1.363 . S
C474 N476 1.375 . S
C474 H492 0.931 . S
C475 N472 1.311 . S
C475 N476 1.347 . S
C475 H486 0.929 . S
N476 C474 1.375 . S
N476 C475 1.347 . S
C477 C480 1.365 . S
C477 N482 1.328 . S
C477 H483 0.929 . S
C478 C479 1.362 . S
C478 C481 1.378 . S
C478 H493 0.929 . S
C479 C478 1.362 . S
C479 C480 1.366 . S
C480 C477 1.365 . S
C480 C479 1.366 . S
C480 H494 0.930 . S
C481 C478 1.378 . S
C481 N482 1.315 . S
C481 H484 0.930 . S
N482 Co462 2.194 . S
N482 C477 1.328 . S
N482 C481 1.315 . S
H483 C477 0.929 . S
H484 C481 0.930 . S
H485 C473 0.929 . S
H486 C475 0.929 . S
O487 Co462 2.351 . S
O487 C490 1.244 . S
O488 Co462 2.155 . S
O488 C490 1.240 . S
O489 Co462 2.096 . S
O489 C470 1.247 . S
C490 O487 1.244 . S
C490 O488 1.240 . S
H491 C465 0.931 . S
H492 C474 0.931 . S
H493 C478 0.929 . S
H494 C480 0.930 . S
Co495 N499 2.148 . S
Co495 N505 2.128 . S
Co495 N515 2.194 . S
Co495 O520 2.351 . S
Co495 O521 2.155 . S
Co495 O522 2.096 . S
C496 N499 1.301 . S
C496 N500 1.328 . S
C496 H501 0.930 . S
C497 C498 1.333 . S
C497 N499 1.317 . S
C497 H502 0.930 . S
C498 C497 1.333 . S
C498 N500 1.350 . S
C498 H524 0.931 . S
N499 Co495 2.148 . S
N499 C496 1.301 . S
N499 C497 1.317 . S
N500 C496 1.328 . S
N500 C498 1.350 . S
H501 C496 0.930 . S
H502 C497 0.930 . S
C503 O504 1.224 . S
C503 O522 1.247 . S
O504 C503 1.224 . S
N505 Co495 2.128 . S
N505 C506 1.355 . S
N505 C508 1.311 . S
C506 N505 1.355 . S
C506 C507 1.363 . S
C506 H518 0.929 . S
C507 C506 1.363 . S
C507 N509 1.375 . S
C507 H525 0.931 . S
C508 N505 1.311 . S
C508 N509 1.347 . S
C508 H519 0.929 . S
N509 C507 1.375 . S
N509 C508 1.347 . S
C510 C513 1.365 . S
C510 N515 1.328 . S
C510 H516 0.929 . S
C511 C512 1.362 . S
C511 C514 1.378 . S
C511 H526 0.929 . S
C512 C511 1.362 . S
C512 C513 1.366 . S
C513 C510 1.365 . S
C513 C512 1.366 . S
C513 H527 0.930 . S
C514 C511 1.378 . S
C514 N515 1.315 . S
C514 H517 0.930 . S
N515 Co495 2.194 . S
N515 C510 1.328 . S
N515 C514 1.315 . S
H516 C510 0.929 . S
H517 C514 0.930 . S
H518 C506 0.929 . S
H519 C508 0.929 . S
O520 Co495 2.351 . S
O520 C523 1.244 . S
O521 Co495 2.155 . S
O521 C523 1.240 . S
O522 Co495 2.096 . S
O522 C503 1.247 . S
C523 O520 1.244 . S
C523 O521 1.240 . S
H524 C498 0.931 . S
H525 C507 0.931 . S
H526 C511 0.929 . S
H527 C513 0.930 . S
C528 C529 1.349 . S
C528 C530 1.327 . S
C528 H553 0.950 . S
C529 C528 1.349 . S
C529 C545 1.349 . S
C530 C528 1.327 . S
C530 C549 1.429 . S
C530 H554 0.950 . S
C531 C548 1.574 . S
C531 C550 1.368 . S
C531 H555 0.949 . S
H532 C536 0.949 . S
C533 C534 1.349 . S
C533 C535 1.327 . S
C533 H556 0.950 . S
C534 C533 1.349 . S
C534 C546 1.349 . S
C535 C533 1.327 . S
C535 C551 1.429 . S
C535 H557 0.950 . S
C536 H532 0.949 . S
C536 C544 1.574 . S
C536 C552 1.368 . S
H537 C545 0.950 . S
H538 C543 0.950 . S
H539 C544 0.949 . S
H540 C546 0.950 . S
H541 C547 0.950 . S
H542 C548 0.949 . S
C543 H538 0.950 . S
C543 C545 1.327 . S
C543 C549 1.429 . S
C544 C536 1.574 . S
C544 H539 0.949 . S
C544 C550 1.368 . S
C545 C529 1.349 . S
C545 H537 0.950 . S
C545 C543 1.327 . S
C546 C534 1.349 . S
C546 H540 0.950 . S
C546 C547 1.327 . S
C547 H541 0.950 . S
C547 C546 1.327 . S
C547 C551 1.429 . S
C548 C531 1.574 . S
C548 H542 0.949 . S
C548 C552 1.368 . S
C549 C530 1.429 . S
C549 C543 1.429 . S
C549 C550 1.523 . S
C550 C531 1.368 . S
C550 C544 1.368 . S
C550 C549 1.523 . S
C551 C535 1.429 . S
C551 C547 1.429 . S
C551 C552 1.523 . S
C552 C536 1.368 . S
C552 C548 1.368 . S
C552 C551 1.523 . S
H553 C528 0.950 . S
H554 C530 0.950 . S
H555 C531 0.949 . S
H556 C533 0.950 . S
H557 C535 0.950 . S
C558 C559 1.349 1_655 S
C558 C560 1.327 . S
C558 H583 0.950 1_655 S
C559 C558 1.349 1_455 S
C559 C575 1.349 1_455 S
C560 C558 1.327 . S
C560 C579 1.429 . S
C560 H584 0.950 . S
C561 C578 1.574 . S
C561 C580 1.368 . S
C561 H585 0.949 . S
H562 C566 0.949 . S
C563 C564 1.349 . S
C563 C565 1.327 . S
C563 H586 0.950 . S
C564 C563 1.349 . S
C564 C576 1.349 . S
C565 C563 1.327 . S
C565 C581 1.429 . S
C565 H587 0.950 . S
C566 H562 0.949 . S
C566 C574 1.574 . S
C566 C582 1.368 . S
H567 C575 0.950 1_455 S
H568 C573 0.950 . S
H569 C574 0.949 . S
H570 C576 0.950 . S
H571 C577 0.950 . S
H572 C578 0.949 . S
C573 H568 0.950 . S
C573 C575 1.327 . S
C573 C579 1.429 . S
C574 C566 1.574 . S
C574 H569 0.949 . S
C574 C580 1.368 . S
C575 C559 1.349 1_655 S
C575 H567 0.950 1_655 S
C575 C573 1.327 . S
C576 C564 1.349 . S
C576 H570 0.950 . S
C576 C577 1.327 . S
C577 H571 0.950 . S
C577 C576 1.327 . S
C577 C581 1.429 . S
C578 C561 1.574 . S
C578 H572 0.949 . S
C578 C582 1.368 . S
C579 C560 1.429 . S
C579 C573 1.429 . S
C579 C580 1.523 . S
C580 C561 1.368 . S
C580 C574 1.368 . S
C580 C579 1.523 . S
C581 C565 1.429 . S
C581 C577 1.429 . S
C581 C582 1.523 . S
C582 C566 1.368 . S
C582 C578 1.368 . S
C582 C581 1.523 . S
H583 C558 0.950 1_455 S
H584 C560 0.950 . S
H585 C561 0.949 . S
H586 C563 0.950 . S
H587 C565 0.950 . S
C588 C589 1.349 . S
C588 C590 1.327 . S
C588 H613 0.950 . S
C589 C588 1.349 . S
C589 C605 1.349 . S
C590 C588 1.327 . S
C590 C609 1.429 . S
C590 H614 0.950 . S
C591 C608 1.574 . S
C591 C610 1.368 . S
C591 H615 0.949 . S
H592 C596 0.949 . S
C593 C594 1.349 . S
C593 C595 1.327 . S
C593 H616 0.950 . S
C594 C593 1.349 . S
C594 C606 1.349 . S
C595 C593 1.327 . S
C595 C611 1.429 . S
C595 H617 0.950 . S
C596 H592 0.949 . S
C596 C604 1.574 . S
C596 C612 1.368 . S
H597 C605 0.950 . S
H598 C603 0.950 . S
H599 C604 0.949 . S
H600 C606 0.950 . S
H601 C607 0.950 . S
H602 C608 0.949 . S
C603 H598 0.950 . S
C603 C605 1.327 . S
C603 C609 1.429 . S
C604 C596 1.574 . S
C604 H599 0.949 . S
C604 C610 1.368 . S
C605 C589 1.349 . S
C605 H597 0.950 . S
C605 C603 1.327 . S
C606 C594 1.349 . S
C606 H600 0.950 . S
C606 C607 1.327 . S
C607 H601 0.950 . S
C607 C606 1.327 . S
C607 C611 1.429 . S
C608 C591 1.574 . S
C608 H602 0.949 . S
C608 C612 1.368 . S
C609 C590 1.429 . S
C609 C603 1.429 . S
C609 C610 1.523 . S
C610 C591 1.368 . S
C610 C604 1.368 . S
C610 C609 1.523 . S
C611 C595 1.429 . S
C611 C607 1.429 . S
C611 C612 1.523 . S
C612 C596 1.368 . S
C612 C608 1.368 . S
C612 C611 1.523 . S
H613 C588 0.950 . S
H614 C590 0.950 . S
H615 C591 0.949 . S
H616 C593 0.950 . S
H617 C595 0.950 . S
C618 C619 1.349 1_655 S
C618 C620 1.327 . S
C618 H643 0.950 1_655 S
C619 C618 1.349 1_455 S
C619 C635 1.349 1_455 S
C620 C618 1.327 . S
C620 C639 1.429 . S
C620 H644 0.950 . S
C621 C638 1.574 . S
C621 C640 1.368 . S
C621 H645 0.949 . S
H622 C626 0.949 . S
C623 C624 1.349 . S
C623 C625 1.327 . S
C623 H646 0.950 . S
C624 C623 1.349 . S
C624 C636 1.349 . S
C625 C623 1.327 . S
C625 C641 1.429 . S
C625 H647 0.950 . S
C626 H622 0.949 . S
C626 C634 1.574 . S
C626 C642 1.368 . S
H627 C635 0.950 1_455 S
H628 C633 0.950 . S
H629 C634 0.949 . S
H630 C636 0.950 . S
H631 C637 0.950 . S
H632 C638 0.949 . S
C633 H628 0.950 . S
C633 C635 1.327 . S
C633 C639 1.429 . S
C634 C626 1.574 . S
C634 H629 0.949 . S
C634 C640 1.368 . S
C635 C619 1.349 1_655 S
C635 H627 0.950 1_655 S
C635 C633 1.327 . S
C636 C624 1.349 . S
C636 H630 0.950 . S
C636 C637 1.327 . S
C637 H631 0.950 . S
C637 C636 1.327 . S
C637 C641 1.429 . S
C638 C621 1.574 . S
C638 H632 0.949 . S
C638 C642 1.368 . S
C639 C620 1.429 . S
C639 C633 1.429 . S
C639 C640 1.523 . S
C640 C621 1.368 . S
C640 C634 1.368 . S
C640 C639 1.523 . S
C641 C625 1.429 . S
C641 C637 1.429 . S
C641 C642 1.523 . S
C642 C626 1.368 . S
C642 C638 1.368 . S
C642 C641 1.523 . S
H643 C618 0.950 1_455 S
H644 C620 0.950 . S
H645 C621 0.949 . S
H646 C623 0.950 . S
H647 C625 0.950 . S
C648 C649 1.349 . S
C648 C650 1.327 . S
C648 H673 0.950 . S
C649 C648 1.349 . S
C649 C665 1.349 . S
C650 C648 1.327 . S
C650 C669 1.429 . S
C650 H674 0.950 . S
C651 C668 1.574 . S
C651 C670 1.368 . S
C651 H675 0.949 . S
H652 C656 0.949 . S
C653 C654 1.349 . S
C653 C655 1.327 . S
C653 H676 0.950 . S
C654 C653 1.349 . S
C654 C666 1.349 . S
C655 C653 1.327 . S
C655 C671 1.429 . S
C655 H677 0.950 . S
C656 H652 0.949 . S
C656 C664 1.574 . S
C656 C672 1.368 . S
H657 C665 0.950 . S
H658 C663 0.950 . S
H659 C664 0.949 . S
H660 C666 0.950 . S
H661 C667 0.950 . S
H662 C668 0.949 . S
C663 H658 0.950 . S
C663 C665 1.327 . S
C663 C669 1.429 . S
C664 C656 1.574 . S
C664 H659 0.949 . S
C664 C670 1.368 . S
C665 C649 1.349 . S
C665 H657 0.950 . S
C665 C663 1.327 . S
C666 C654 1.349 . S
C666 H660 0.950 . S
C666 C667 1.327 . S
C667 H661 0.950 . S
C667 C666 1.327 . S
C667 C671 1.429 . S
C668 C651 1.574 . S
C668 H662 0.949 . S
C668 C672 1.368 . S
C669 C650 1.429 . S
C669 C663 1.429 . S
C669 C670 1.523 . S
C670 C651 1.368 . S
C670 C664 1.368 . S
C670 C669 1.523 . S
C671 C655 1.429 . S
C671 C667 1.429 . S
C671 C672 1.523 . S
C672 C656 1.368 . S
C672 C668 1.368 . S
C672 C671 1.523 . S
H673 C648 0.950 . S
H674 C650 0.950 . S
H675 C651 0.949 . S
H676 C653 0.950 . S
H677 C655 0.950 . S
C678 C679 1.349 1_455 S
C678 C680 1.327 . S
C678 H703 0.950 1_455 S
C679 C678 1.349 1_655 S
C679 C695 1.349 1_655 S
C680 C678 1.327 . S
C680 C699 1.429 . S
C680 H704 0.950 . S
C681 C698 1.574 . S
C681 C700 1.368 . S
C681 H705 0.949 . S
H682 C686 0.949 . S
C683 C684 1.349 . S
C683 C685 1.327 . S
C683 H706 0.950 . S
C684 C683 1.349 . S
C684 C696 1.349 . S
C685 C683 1.327 . S
C685 C701 1.429 . S
C685 H707 0.950 . S
C686 H682 0.949 . S
C686 C694 1.574 . S
C686 C702 1.368 . S
H687 C695 0.950 1_655 S
H688 C693 0.950 . S
H689 C694 0.949 . S
H690 C696 0.950 . S
H691 C697 0.950 . S
H692 C698 0.949 . S
C693 H688 0.950 . S
C693 C695 1.327 . S
C693 C699 1.429 . S
C694 C686 1.574 . S
C694 H689 0.949 . S
C694 C700 1.368 . S
C695 C679 1.349 1_455 S
C695 H687 0.950 1_455 S
C695 C693 1.327 . S
C696 C684 1.349 . S
C696 H690 0.950 . S
C696 C697 1.327 . S
C697 H691 0.950 . S
C697 C696 1.327 . S
C697 C701 1.429 . S
C698 C681 1.574 . S
C698 H692 0.949 . S
C698 C702 1.368 . S
C699 C680 1.429 . S
C699 C693 1.429 . S
C699 C700 1.523 . S
C700 C681 1.368 . S
C700 C694 1.368 . S
C700 C699 1.523 . S
C701 C685 1.429 . S
C701 C697 1.429 . S
C701 C702 1.523 . S
C702 C686 1.368 . S
C702 C698 1.368 . S
C702 C701 1.523 . S
H703 C678 0.950 1_655 S
H704 C680 0.950 . S
H705 C681 0.949 . S
H706 C683 0.950 . S
H707 C685 0.950 . S
C708 C709 1.349 . S
C708 C710 1.327 . S
C708 H733 0.950 . S
C709 C708 1.349 . S
C709 C725 1.349 . S
C710 C708 1.327 . S
C710 C729 1.429 . S
C710 H734 0.950 . S
C711 C728 1.574 . S
C711 C730 1.368 . S
C711 H735 0.949 . S
H712 C716 0.949 . S
C713 C714 1.349 . S
C713 C715 1.327 . S
C713 H736 0.950 . S
C714 C713 1.349 . S
C714 C726 1.349 . S
C715 C713 1.327 . S
C715 C731 1.429 . S
C715 H737 0.950 . S
C716 H712 0.949 . S
C716 C724 1.574 . S
C716 C732 1.368 . S
H717 C725 0.950 . S
H718 C723 0.950 . S
H719 C724 0.949 . S
H720 C726 0.950 . S
H721 C727 0.950 . S
H722 C728 0.949 . S
C723 H718 0.950 . S
C723 C725 1.327 . S
C723 C729 1.429 . S
C724 C716 1.574 . S
C724 H719 0.949 . S
C724 C730 1.368 . S
C725 C709 1.349 . S
C725 H717 0.950 . S
C725 C723 1.327 . S
C726 C714 1.349 . S
C726 H720 0.950 . S
C726 C727 1.327 . S
C727 H721 0.950 . S
C727 C726 1.327 . S
C727 C731 1.429 . S
C728 C711 1.574 . S
C728 H722 0.949 . S
C728 C732 1.368 . S
C729 C710 1.429 . S
C729 C723 1.429 . S
C729 C730 1.523 . S
C730 C711 1.368 . S
C730 C724 1.368 . S
C730 C729 1.523 . S
C731 C715 1.429 . S
C731 C727 1.429 . S
C731 C732 1.523 . S
C732 C716 1.368 . S
C732 C728 1.368 . S
C732 C731 1.523 . S
H733 C708 0.950 . S
H734 C710 0.950 . S
H735 C711 0.949 . S
H736 C713 0.950 . S
H737 C715 0.950 . S
C738 C739 1.349 1_455 S
C738 C740 1.327 . S
C738 H763 0.950 1_455 S
C739 C738 1.349 1_655 S
C739 C755 1.349 1_655 S
C740 C738 1.327 . S
C740 C759 1.429 . S
C740 H764 0.950 . S
C741 C758 1.574 . S
C741 C760 1.368 . S
C741 H765 0.949 . S
H742 C746 0.949 . S
C743 C744 1.349 . S
C743 C745 1.327 . S
C743 H766 0.950 . S
C744 C743 1.349 . S
C744 C756 1.349 . S
C745 C743 1.327 . S
C745 C761 1.429 . S
C745 H767 0.950 . S
C746 H742 0.949 . S
C746 C754 1.574 . S
C746 C762 1.368 . S
H747 C755 0.950 1_655 S
H748 C753 0.950 . S
H749 C754 0.949 . S
H750 C756 0.950 . S
H751 C757 0.950 . S
H752 C758 0.949 . S
C753 H748 0.950 . S
C753 C755 1.327 . S
C753 C759 1.429 . S
C754 C746 1.574 . S
C754 H749 0.949 . S
C754 C760 1.368 . S
C755 C739 1.349 1_455 S
C755 H747 0.950 1_455 S
C755 C753 1.327 . S
C756 C744 1.349 . S
C756 H750 0.950 . S
C756 C757 1.327 . S
C757 H751 0.950 . S
C757 C756 1.327 . S
C757 C761 1.429 . S
C758 C741 1.574 . S
C758 H752 0.949 . S
C758 C762 1.368 . S
C759 C740 1.429 . S
C759 C753 1.429 . S
C759 C760 1.523 . S
C760 C741 1.368 . S
C760 C754 1.368 . S
C760 C759 1.523 . S
C761 C745 1.429 . S
C761 C757 1.429 . S
C761 C762 1.523 . S
C762 C746 1.368 . S
C762 C758 1.368 . S
C762 C761 1.523 . S
H763 C738 0.950 1_655 S
H764 C740 0.950 . S
H765 C741 0.949 . S
H766 C743 0.950 . S
H767 C745 0.950 . S
C768 C769 1.349 . S
C768 C770 1.327 . S
C768 H793 0.950 . S
C769 C768 1.349 . S
C769 C785 1.349 . S
C770 C768 1.327 . S
C770 C789 1.429 . S
C770 H794 0.950 . S
C771 C788 1.574 . S
C771 C790 1.368 . S
C771 H795 0.949 . S
H772 C776 0.949 . S
C773 C774 1.349 . S
C773 C775 1.327 . S
C773 H796 0.950 . S
C774 C773 1.349 . S
C774 C786 1.349 . S
C775 C773 1.327 . S
C775 C791 1.429 . S
C775 H797 0.950 . S
C776 H772 0.949 . S
C776 C784 1.574 . S
C776 C792 1.368 . S
H777 C785 0.950 . S
H778 C783 0.950 . S
H779 C784 0.949 . S
H780 C786 0.950 . S
H781 C787 0.950 . S
H782 C788 0.949 . S
C783 H778 0.950 . S
C783 C785 1.327 . S
C783 C789 1.429 . S
C784 C776 1.574 . S
C784 H779 0.949 . S
C784 C790 1.368 . S
C785 C769 1.349 . S
C785 H777 0.950 . S
C785 C783 1.327 . S
C786 C774 1.349 . S
C786 H780 0.950 . S
C786 C787 1.327 . S
C787 H781 0.950 . S
C787 C786 1.327 . S
C787 C791 1.429 . S
C788 C771 1.574 . S
C788 H782 0.949 . S
C788 C792 1.368 . S
C789 C770 1.429 . S
C789 C783 1.429 . S
C789 C790 1.523 . S
C790 C771 1.368 . S
C790 C784 1.368 . S
C790 C789 1.523 . S
C791 C775 1.429 . S
C791 C787 1.429 . S
C791 C792 1.523 . S
C792 C776 1.368 . S
C792 C788 1.368 . S
C792 C791 1.523 . S
H793 C768 0.950 . S
H794 C770 0.950 . S
H795 C771 0.949 . S
H796 C773 0.950 . S
H797 C775 0.950 . S
C798 C799 1.349 . S
C798 C800 1.327 . S
C798 H823 0.950 . S
C799 C798 1.349 . S
C799 C815 1.349 . S
C800 C798 1.327 . S
C800 C819 1.429 . S
C800 H824 0.950 . S
C801 C818 1.574 . S
C801 C820 1.368 . S
C801 H825 0.949 . S
H802 C806 0.949 . S
C803 C804 1.349 1_655 S
C803 C805 1.327 . S
C803 H826 0.950 1_655 S
C804 C803 1.349 1_455 S
C804 C816 1.349 1_455 S
C805 C803 1.327 . S
C805 C821 1.429 . S
C805 H827 0.950 . S
C806 H802 0.949 . S
C806 C814 1.574 . S
C806 C822 1.368 . S
H807 C815 0.950 . S
H808 C813 0.950 . S
H809 C814 0.949 . S
H810 C816 0.950 1_455 S
H811 C817 0.950 . S
H812 C818 0.949 . S
C813 H808 0.950 . S
C813 C815 1.327 . S
C813 C819 1.429 . S
C814 C806 1.574 . S
C814 H809 0.949 . S
C814 C820 1.368 . S
C815 C799 1.349 . S
C815 H807 0.950 . S
C815 C813 1.327 . S
C816 C804 1.349 1_655 S
C816 H810 0.950 1_655 S
C816 C817 1.327 . S
C817 H811 0.950 . S
C817 C816 1.327 . S
C817 C821 1.429 . S
C818 C801 1.574 . S
C818 H812 0.949 . S
C818 C822 1.368 . S
C819 C800 1.429 . S
C819 C813 1.429 . S
C819 C820 1.523 . S
C820 C801 1.368 . S
C820 C814 1.368 . S
C820 C819 1.523 . S
C821 C805 1.429 . S
C821 C817 1.429 . S
C821 C822 1.523 . S
C822 C806 1.368 . S
C822 C818 1.368 . S
C822 C821 1.523 . S
H823 C798 0.950 . S
H824 C800 0.950 . S
H825 C801 0.949 . S
H826 C803 0.950 1_455 S
H827 C805 0.950 . S
C828 C829 1.349 . S
C828 C830 1.327 . S
C828 H853 0.950 . S
C829 C828 1.349 . S
C829 C845 1.349 . S
C830 C828 1.327 . S
C830 C849 1.429 . S
C830 H854 0.950 . S
C831 C848 1.574 . S
C831 C850 1.368 . S
C831 H855 0.949 . S
H832 C836 0.949 . S
C833 C834 1.349 . S
C833 C835 1.327 . S
C833 H856 0.950 . S
C834 C833 1.349 . S
C834 C846 1.349 . S
C835 C833 1.327 . S
C835 C851 1.429 . S
C835 H857 0.950 . S
C836 H832 0.949 . S
C836 C844 1.574 . S
C836 C852 1.368 . S
H837 C845 0.950 . S
H838 C843 0.950 . S
H839 C844 0.949 . S
H840 C846 0.950 . S
H841 C847 0.950 . S
H842 C848 0.949 . S
C843 H838 0.950 . S
C843 C845 1.327 . S
C843 C849 1.429 . S
C844 C836 1.574 . S
C844 H839 0.949 . S
C844 C850 1.368 . S
C845 C829 1.349 . S
C845 H837 0.950 . S
C845 C843 1.327 . S
C846 C834 1.349 . S
C846 H840 0.950 . S
C846 C847 1.327 . S
C847 H841 0.950 . S
C847 C846 1.327 . S
C847 C851 1.429 . S
C848 C831 1.574 . S
C848 H842 0.949 . S
C848 C852 1.368 . S
C849 C830 1.429 . S
C849 C843 1.429 . S
C849 C850 1.523 . S
C850 C831 1.368 . S
C850 C844 1.368 . S
C850 C849 1.523 . S
C851 C835 1.429 . S
C851 C847 1.429 . S
C851 C852 1.523 . S
C852 C836 1.368 . S
C852 C848 1.368 . S
C852 C851 1.523 . S
H853 C828 0.950 . S
H854 C830 0.950 . S
H855 C831 0.949 . S
H856 C833 0.950 . S
H857 C835 0.950 . S
C858 C859 1.349 . S
C858 C860 1.327 . S
C858 H883 0.950 . S
C859 C858 1.349 . S
C859 C875 1.349 . S
C860 C858 1.327 . S
C860 C879 1.429 . S
C860 H884 0.950 . S
C861 C878 1.574 . S
C861 C880 1.368 . S
C861 H885 0.949 . S
H862 C866 0.949 . S
C863 C864 1.349 1_655 S
C863 C865 1.327 . S
C863 H886 0.950 1_655 S
C864 C863 1.349 1_455 S
C864 C876 1.349 1_455 S
C865 C863 1.327 . S
C865 C881 1.429 . S
C865 H887 0.950 . S
C866 H862 0.949 . S
C866 C874 1.574 . S
C866 C882 1.368 . S
H867 C875 0.950 . S
H868 C873 0.950 . S
H869 C874 0.949 . S
H870 C876 0.950 1_455 S
H871 C877 0.950 . S
H872 C878 0.949 . S
C873 H868 0.950 . S
C873 C875 1.327 . S
C873 C879 1.429 . S
C874 C866 1.574 . S
C874 H869 0.949 . S
C874 C880 1.368 . S
C875 C859 1.349 . S
C875 H867 0.950 . S
C875 C873 1.327 . S
C876 C864 1.349 1_655 S
C876 H870 0.950 1_655 S
C876 C877 1.327 . S
C877 H871 0.950 . S
C877 C876 1.327 . S
C877 C881 1.429 . S
C878 C861 1.574 . S
C878 H872 0.949 . S
C878 C882 1.368 . S
C879 C860 1.429 . S
C879 C873 1.429 . S
C879 C880 1.523 . S
C880 C861 1.368 . S
C880 C874 1.368 . S
C880 C879 1.523 . S
C881 C865 1.429 . S
C881 C877 1.429 . S
C881 C882 1.523 . S
C882 C866 1.368 . S
C882 C878 1.368 . S
C882 C881 1.523 . S
H883 C858 0.950 . S
H884 C860 0.950 . S
H885 C861 0.949 . S
H886 C863 0.950 1_455 S
H887 C865 0.950 . S
C888 C889 1.349 . S
C888 C890 1.327 . S
C888 H913 0.950 . S
C889 C888 1.349 . S
C889 C905 1.349 . S
C890 C888 1.327 . S
C890 C909 1.429 . S
C890 H914 0.950 . S
C891 C908 1.574 . S
C891 C910 1.368 . S
C891 H915 0.949 . S
H892 C896 0.949 . S
C893 C894 1.349 . S
C893 C895 1.327 . S
C893 H916 0.950 . S
C894 C893 1.349 . S
C894 C906 1.349 . S
C895 C893 1.327 . S
C895 C911 1.429 . S
C895 H917 0.950 . S
C896 H892 0.949 . S
C896 C904 1.574 . S
C896 C912 1.368 . S
H897 C905 0.950 . S
H898 C903 0.950 . S
H899 C904 0.949 . S
H900 C906 0.950 . S
H901 C907 0.950 . S
H902 C908 0.949 . S
C903 H898 0.950 . S
C903 C905 1.327 . S
C903 C909 1.429 . S
C904 C896 1.574 . S
C904 H899 0.949 . S
C904 C910 1.368 . S
C905 C889 1.349 . S
C905 H897 0.950 . S
C905 C903 1.327 . S
C906 C894 1.349 . S
C906 H900 0.950 . S
C906 C907 1.327 . S
C907 H901 0.950 . S
C907 C906 1.327 . S
C907 C911 1.429 . S
C908 C891 1.574 . S
C908 H902 0.949 . S
C908 C912 1.368 . S
C909 C890 1.429 . S
C909 C903 1.429 . S
C909 C910 1.523 . S
C910 C891 1.368 . S
C910 C904 1.368 . S
C910 C909 1.523 . S
C911 C895 1.429 . S
C911 C907 1.429 . S
C911 C912 1.523 . S
C912 C896 1.368 . S
C912 C908 1.368 . S
C912 C911 1.523 . S
H913 C888 0.950 . S
H914 C890 0.950 . S
H915 C891 0.949 . S
H916 C893 0.950 . S
H917 C895 0.950 . S
C918 C919 1.349 . S
C918 C920 1.327 . S
C918 H943 0.950 . S
C919 C918 1.349 . S
C919 C935 1.349 . S
C920 C918 1.327 . S
C920 C939 1.429 . S
C920 H944 0.950 . S
C921 C938 1.574 . S
C921 C940 1.368 . S
C921 H945 0.949 . S
H922 C926 0.949 . S
C923 C924 1.349 1_455 S
C923 C925 1.327 . S
C923 H946 0.950 1_455 S
C924 C923 1.349 1_655 S
C924 C936 1.349 1_655 S
C925 C923 1.327 . S
C925 C941 1.429 . S
C925 H947 0.950 . S
C926 H922 0.949 . S
C926 C934 1.574 . S
C926 C942 1.368 . S
H927 C935 0.950 . S
H928 C933 0.950 . S
H929 C934 0.949 . S
H930 C936 0.950 1_655 S
H931 C937 0.950 . S
H932 C938 0.949 . S
C933 H928 0.950 . S
C933 C935 1.327 . S
C933 C939 1.429 . S
C934 C926 1.574 . S
C934 H929 0.949 . S
C934 C940 1.368 . S
C935 C919 1.349 . S
C935 H927 0.950 . S
C935 C933 1.327 . S
C936 C924 1.349 1_455 S
C936 H930 0.950 1_455 S
C936 C937 1.327 . S
C937 H931 0.950 . S
C937 C936 1.327 . S
C937 C941 1.429 . S
C938 C921 1.574 . S
C938 H932 0.949 . S
C938 C942 1.368 . S
C939 C920 1.429 . S
C939 C933 1.429 . S
C939 C940 1.523 . S
C940 C921 1.368 . S
C940 C934 1.368 . S
C940 C939 1.523 . S
C941 C925 1.429 . S
C941 C937 1.429 . S
C941 C942 1.523 . S
C942 C926 1.368 . S
C942 C938 1.368 . S
C942 C941 1.523 . S
H943 C918 0.950 . S
H944 C920 0.950 . S
H945 C921 0.949 . S
H946 C923 0.950 1_655 S
H947 C925 0.950 . S
C948 C949 1.349 . S
C948 C950 1.327 . S
C948 H973 0.950 . S
C949 C948 1.349 . S
C949 C965 1.349 . S
C950 C948 1.327 . S
C950 C969 1.429 . S
C950 H974 0.950 . S
C951 C968 1.574 . S
C951 C970 1.368 . S
C951 H975 0.949 . S
H952 C956 0.949 . S
C953 C954 1.349 . S
C953 C955 1.327 . S
C953 H976 0.950 . S
C954 C953 1.349 . S
C954 C966 1.349 . S
C955 C953 1.327 . S
C955 C971 1.429 . S
C955 H977 0.950 . S
C956 H952 0.949 . S
C956 C964 1.574 . S
C956 C972 1.368 . S
H957 C965 0.950 . S
H958 C963 0.950 . S
H959 C964 0.949 . S
H960 C966 0.950 . S
H961 C967 0.950 . S
H962 C968 0.949 . S
C963 H958 0.950 . S
C963 C965 1.327 . S
C963 C969 1.429 . S
C964 C956 1.574 . S
C964 H959 0.949 . S
C964 C970 1.368 . S
C965 C949 1.349 . S
C965 H957 0.950 . S
C965 C963 1.327 . S
C966 C954 1.349 . S
C966 H960 0.950 . S
C966 C967 1.327 . S
C967 H961 0.950 . S
C967 C966 1.327 . S
C967 C971 1.429 . S
C968 C951 1.574 . S
C968 H962 0.949 . S
C968 C972 1.368 . S
C969 C950 1.429 . S
C969 C963 1.429 . S
C969 C970 1.523 . S
C970 C951 1.368 . S
C970 C964 1.368 . S
C970 C969 1.523 . S
C971 C955 1.429 . S
C971 C967 1.429 . S
C971 C972 1.523 . S
C972 C956 1.368 . S
C972 C968 1.368 . S
C972 C971 1.523 . S
H973 C948 0.950 . S
H974 C950 0.950 . S
H975 C951 0.949 . S
H976 C953 0.950 . S
H977 C955 0.950 . S
C978 C979 1.349 1_455 S
C978 C980 1.327 . S
C978 H1003 0.950 1_455 S
C979 C978 1.349 1_655 S
C979 C995 1.349 1_655 S
C980 C978 1.327 . S
C980 C999 1.429 . S
C980 H1004 0.950 . S
C981 C998 1.574 . S
C981 C1000 1.368 . S
C981 H1005 0.949 . S
H982 C986 0.949 . S
C983 C984 1.349 . S
C983 C985 1.327 . S
C983 H1006 0.950 . S
C984 C983 1.349 . S
C984 C996 1.349 . S
C985 C983 1.327 . S
C985 C1001 1.429 . S
C985 H1007 0.950 . S
C986 H982 0.949 . S
C986 C994 1.574 . S
C986 C1002 1.368 . S
H987 C995 0.950 1_655 S
H988 C993 0.950 . S
H989 C994 0.949 . S
H990 C996 0.950 . S
H991 C997 0.950 . S
H992 C998 0.949 . S
C993 H988 0.950 . S
C993 C995 1.327 . S
C993 C999 1.429 . S
C994 C986 1.574 . S
C994 H989 0.949 . S
C994 C1000 1.368 . S
C995 C979 1.349 1_455 S
C995 H987 0.950 1_455 S
C995 C993 1.327 . S
C996 C984 1.349 . S
C996 H990 0.950 . S
C996 C997 1.327 . S
C997 H991 0.950 . S
C997 C996 1.327 . S
C997 C1001 1.429 . S
C998 C981 1.574 . S
C998 H992 0.949 . S
C998 C1002 1.368 . S
C999 C980 1.429 . S
C999 C993 1.429 . S
C999 C1000 1.523 . S
C1000 C981 1.368 . S
C1000 C994 1.368 . S
C1000 C999 1.523 . S
C1001 C985 1.429 . S
C1001 C997 1.429 . S
C1001 C1002 1.523 . S
C1002 C986 1.368 . S
C1002 C998 1.368 . S
C1002 C1001 1.523 . S
H1003 C978 0.950 1_655 S
H1004 C980 0.950 . S
H1005 C981 0.949 . S
H1006 C983 0.950 . S
H1007 C985 0.950 . S
C1008 C1009 1.349 . S
C1008 C1010 1.327 . S
C1008 H1033 0.950 . S
C1009 C1008 1.349 . S
C1009 C1025 1.349 . S
C1010 C1008 1.327 . S
C1010 C1029 1.429 . S
C1010 H1034 0.950 . S
C1011 C1028 1.574 . S
C1011 C1030 1.368 . S
C1011 H1035 0.949 . S
H1012 C1016 0.949 . S
C1013 C1014 1.358 . S
C1013 C1015 1.327 . S
C1013 H1036 0.950 . S
C1014 C1013 1.358 . S
C1014 C1026 1.358 . S
C1015 C1013 1.327 . S
C1015 C1031 1.429 . S
C1015 H1037 0.950 . S
C1016 H1012 0.949 . S
C1016 C1024 1.574 . S
C1016 C1032 1.368 . S
H1017 C1025 0.950 . S
H1018 C1023 0.950 . S
H1019 C1024 0.949 . S
H1020 C1026 0.950 . S
H1021 C1027 0.950 . S
H1022 C1028 0.949 . S
C1023 H1018 0.950 . S
C1023 C1025 1.327 . S
C1023 C1029 1.429 . S
C1024 C1016 1.574 . S
C1024 H1019 0.949 . S
C1024 C1030 1.368 . S
C1025 C1009 1.349 . S
C1025 H1017 0.950 . S
C1025 C1023 1.327 . S
C1026 C1014 1.358 . S
C1026 H1020 0.950 . S
C1026 C1027 1.327 . S
C1027 H1021 0.950 . S
C1027 C1026 1.327 . S
C1027 C1031 1.429 . S
C1028 C1011 1.574 . S
C1028 H1022 0.949 . S
C1028 C1032 1.368 . S
C1029 C1010 1.429 . S
C1029 C1023 1.429 . S
C1029 C1030 1.523 . S
C1030 C1011 1.368 . S
C1030 C1024 1.368 . S
C1030 C1029 1.523 . S
C1031 C1015 1.429 . S
C1031 C1027 1.429 . S
C1031 C1032 1.523 . S
C1032 C1016 1.368 . S
C1032 C1028 1.368 . S
C1032 C1031 1.523 . S
H1033 C1008 0.950 . S
H1034 C1010 0.950 . S
H1035 C1011 0.949 . S
H1036 C1013 0.950 . S
H1037 C1015 0.950 . S
C1038 C1039 1.358 . S
C1038 C1040 1.327 . S
C1038 H1063 0.950 . S
C1039 C1038 1.358 . S
C1039 C1055 1.358 . S
C1040 C1038 1.327 . S
C1040 C1059 1.429 . S
C1040 H1064 0.950 . S
C1041 C1058 1.574 . S
C1041 C1060 1.368 . S
C1041 H1065 0.949 . S
H1042 C1046 0.949 . S
C1043 C1044 1.349 . S
C1043 C1045 1.327 . S
C1043 H1066 0.950 . S
C1044 C1043 1.349 . S
C1044 C1056 1.349 . S
C1045 C1043 1.327 . S
C1045 C1061 1.429 . S
C1045 H1067 0.950 . S
C1046 H1042 0.949 . S
C1046 C1054 1.574 . S
C1046 C1062 1.368 . S
H1047 C1055 0.950 . S
H1048 C1053 0.950 . S
H1049 C1054 0.949 . S
H1050 C1056 0.950 . S
H1051 C1057 0.950 . S
H1052 C1058 0.949 . S
C1053 H1048 0.950 . S
C1053 C1055 1.327 . S
C1053 C1059 1.429 . S
C1054 C1046 1.574 . S
C1054 H1049 0.949 . S
C1054 C1060 1.368 . S
C1055 C1039 1.358 . S
C1055 H1047 0.950 . S
C1055 C1053 1.327 . S
C1056 C1044 1.349 . S
C1056 H1050 0.950 . S
C1056 C1057 1.327 . S
C1057 H1051 0.950 . S
C1057 C1056 1.327 . S
C1057 C1061 1.429 . S
C1058 C1041 1.574 . S
C1058 H1052 0.949 . S
C1058 C1062 1.368 . S
C1059 C1040 1.429 . S
C1059 C1053 1.429 . S
C1059 C1060 1.523 . S
C1060 C1041 1.368 . S
C1060 C1054 1.368 . S
C1060 C1059 1.523 . S
C1061 C1045 1.429 . S
C1061 C1057 1.429 . S
C1061 C1062 1.523 . S
C1062 C1046 1.368 . S
C1062 C1058 1.368 . S
C1062 C1061 1.523 . S
H1063 C1038 0.950 . S
H1064 C1040 0.950 . S
H1065 C1041 0.949 . S
H1066 C1043 0.950 . S
H1067 C1045 0.950 . S
C1068 C1069 1.349 . S
C1068 C1070 1.327 . S
C1068 H1093 0.950 . S
C1069 C1068 1.349 . S
C1069 C1085 1.349 . S
C1070 C1068 1.327 . S
C1070 C1089 1.429 . S
C1070 H1094 0.950 . S
C1071 C1088 1.574 . S
C1071 C1090 1.368 . S
C1071 H1095 0.949 . S
H1072 C1076 0.949 . S
C1073 C1074 1.349 . S
C1073 C1075 1.327 . S
C1073 H1096 0.950 . S
C1074 C1073 1.349 . S
C1074 C1086 1.349 . S
C1075 C1073 1.327 . S
C1075 C1091 1.429 . S
C1075 H1097 0.950 . S
C1076 H1072 0.949 . S
C1076 C1084 1.574 . S
C1076 C1092 1.368 . S
H1077 C1085 0.950 . S
H1078 C1083 0.950 . S
H1079 C1084 0.949 . S
H1080 C1086 0.950 . S
H1081 C1087 0.950 . S
H1082 C1088 0.949 . S
C1083 H1078 0.950 . S
C1083 C1085 1.327 . S
C1083 C1089 1.429 . S
C1084 C1076 1.574 . S
C1084 H1079 0.949 . S
C1084 C1090 1.368 . S
C1085 C1069 1.349 . S
C1085 H1077 0.950 . S
C1085 C1083 1.327 . S
C1086 C1074 1.349 . S
C1086 H1080 0.950 . S
C1086 C1087 1.327 . S
C1087 H1081 0.950 . S
C1087 C1086 1.327 . S
C1087 C1091 1.429 . S
C1088 C1071 1.574 . S
C1088 H1082 0.949 . S
C1088 C1092 1.368 . S
C1089 C1070 1.429 . S
C1089 C1083 1.429 . S
C1089 C1090 1.523 . S
C1090 C1071 1.368 . S
C1090 C1084 1.368 . S
C1090 C1089 1.523 . S
C1091 C1075 1.429 . S
C1091 C1087 1.429 . S
C1091 C1092 1.523 . S
C1092 C1076 1.368 . S
C1092 C1088 1.368 . S
C1092 C1091 1.523 . S
H1093 C1068 0.950 . S
H1094 C1070 0.950 . S
H1095 C1071 0.949 . S
H1096 C1073 0.950 . S
H1097 C1075 0.950 . S
C1098 C1099 1.349 . S
C1098 C1100 1.327 . S
C1098 H1123 0.950 . S
C1099 C1098 1.349 . S
C1099 C1115 1.349 . S
C1100 C1098 1.327 . S
C1100 C1119 1.429 . S
C1100 H1124 0.950 . S
C1101 C1118 1.574 . S
C1101 C1120 1.368 . S
C1101 H1125 0.949 . S
H1102 C1106 0.949 . S
C1103 C1104 1.349 . S
C1103 C1105 1.327 . S
C1103 H1126 0.950 . S
C1104 C1103 1.349 . S
C1104 C1116 1.349 . S
C1105 C1103 1.327 . S
C1105 C1121 1.429 . S
C1105 H1127 0.950 . S
C1106 H1102 0.949 . S
C1106 C1114 1.574 . S
C1106 C1122 1.368 . S
H1107 C1115 0.950 . S
H1108 C1113 0.950 . S
H1109 C1114 0.949 . S
H1110 C1116 0.950 . S
H1111 C1117 0.950 . S
H1112 C1118 0.949 . S
C1113 H1108 0.950 . S
C1113 C1115 1.327 . S
C1113 C1119 1.429 . S
C1114 C1106 1.574 . S
C1114 H1109 0.949 . S
C1114 C1120 1.368 . S
C1115 C1099 1.349 . S
C1115 H1107 0.950 . S
C1115 C1113 1.327 . S
C1116 C1104 1.349 . S
C1116 H1110 0.950 . S
C1116 C1117 1.327 . S
C1117 H1111 0.950 . S
C1117 C1116 1.327 . S
C1117 C1121 1.429 . S
C1118 C1101 1.574 . S
C1118 H1112 0.949 . S
C1118 C1122 1.368 . S
C1119 C1100 1.429 . S
C1119 C1113 1.429 . S
C1119 C1120 1.523 . S
C1120 C1101 1.368 . S
C1120 C1114 1.368 . S
C1120 C1119 1.523 . S
C1121 C1105 1.429 . S
C1121 C1117 1.429 . S
C1121 C1122 1.523 . S
C1122 C1106 1.368 . S
C1122 C1118 1.368 . S
C1122 C1121 1.523 . S
H1123 C1098 0.950 . S
H1124 C1100 0.950 . S
H1125 C1101 0.949 . S
H1126 C1103 0.950 . S
H1127 C1105 0.950 . S
C1128 C1129 1.349 . S
C1128 C1130 1.327 . S
C1128 H1153 0.950 . S
C1129 C1128 1.349 . S
C1129 C1145 1.349 . S
C1130 C1128 1.327 . S
C1130 C1149 1.429 . S
C1130 H1154 0.950 . S
C1131 C1148 1.574 . S
C1131 C1150 1.368 . S
C1131 H1155 0.949 . S
H1132 C1136 0.949 . S
C1133 C1134 1.349 . S
C1133 C1135 1.327 . S
C1133 H1156 0.950 . S
C1134 C1133 1.349 . S
C1134 C1146 1.349 . S
C1135 C1133 1.327 . S
C1135 C1151 1.429 . S
C1135 H1157 0.950 . S
C1136 H1132 0.949 . S
C1136 C1144 1.574 . S
C1136 C1152 1.368 . S
H1137 C1145 0.950 . S
H1138 C1143 0.950 . S
H1139 C1144 0.949 . S
H1140 C1146 0.950 . S
H1141 C1147 0.950 . S
H1142 C1148 0.949 . S
C1143 H1138 0.950 . S
C1143 C1145 1.327 . S
C1143 C1149 1.429 . S
C1144 C1136 1.574 . S
C1144 H1139 0.949 . S
C1144 C1150 1.368 . S
C1145 C1129 1.349 . S
C1145 H1137 0.950 . S
C1145 C1143 1.327 . S
C1146 C1134 1.349 . S
C1146 H1140 0.950 . S
C1146 C1147 1.327 . S
C1147 H1141 0.950 . S
C1147 C1146 1.327 . S
C1147 C1151 1.429 . S
C1148 C1131 1.574 . S
C1148 H1142 0.949 . S
C1148 C1152 1.368 . S
C1149 C1130 1.429 . S
C1149 C1143 1.429 . S
C1149 C1150 1.523 . S
C1150 C1131 1.368 . S
C1150 C1144 1.368 . S
C1150 C1149 1.523 . S
C1151 C1135 1.429 . S
C1151 C1147 1.429 . S
C1151 C1152 1.523 . S
C1152 C1136 1.368 . S
C1152 C1148 1.368 . S
C1152 C1151 1.523 . S
H1153 C1128 0.950 . S
H1154 C1130 0.950 . S
H1155 C1131 0.949 . S
H1156 C1133 0.950 . S
H1157 C1135 0.950 . S
C1158 C1159 1.349 . S
C1158 C1160 1.327 . S
C1158 H1183 0.950 . S
C1159 C1158 1.349 . S
C1159 C1175 1.349 . S
C1160 C1158 1.327 . S
C1160 C1179 1.429 . S
C1160 H1184 0.950 . S
C1161 C1178 1.574 . S
C1161 C1180 1.368 . S
C1161 H1185 0.949 . S
H1162 C1166 0.949 . S
C1163 C1164 1.349 . S
C1163 C1165 1.327 . S
C1163 H1186 0.950 . S
C1164 C1163 1.349 . S
C1164 C1176 1.349 . S
C1165 C1163 1.327 . S
C1165 C1181 1.429 . S
C1165 H1187 0.950 . S
C1166 H1162 0.949 . S
C1166 C1174 1.574 . S
C1166 C1182 1.368 . S
H1167 C1175 0.950 . S
H1168 C1173 0.950 . S
H1169 C1174 0.949 . S
H1170 C1176 0.950 . S
H1171 C1177 0.950 . S
H1172 C1178 0.949 . S
C1173 H1168 0.950 . S
C1173 C1175 1.327 . S
C1173 C1179 1.429 . S
C1174 C1166 1.574 . S
C1174 H1169 0.949 . S
C1174 C1180 1.368 . S
C1175 C1159 1.349 . S
C1175 H1167 0.950 . S
C1175 C1173 1.327 . S
C1176 C1164 1.349 . S
C1176 H1170 0.950 . S
C1176 C1177 1.327 . S
C1177 H1171 0.950 . S
C1177 C1176 1.327 . S
C1177 C1181 1.429 . S
C1178 C1161 1.574 . S
C1178 H1172 0.949 . S
C1178 C1182 1.368 . S
C1179 C1160 1.429 . S
C1179 C1173 1.429 . S
C1179 C1180 1.523 . S
C1180 C1161 1.368 . S
C1180 C1174 1.368 . S
C1180 C1179 1.523 . S
C1181 C1165 1.429 . S
C1181 C1177 1.429 . S
C1181 C1182 1.523 . S
C1182 C1166 1.368 . S
C1182 C1178 1.368 . S
C1182 C1181 1.523 . S
H1183 C1158 0.950 . S
H1184 C1160 0.950 . S
H1185 C1161 0.949 . S
H1186 C1163 0.950 . S
H1187 C1165 0.950 . S
C1188 C1189 1.358 . S
C1188 C1190 1.327 . S
C1188 H1213 0.950 . S
C1189 C1188 1.358 . S
C1189 C1205 1.358 . S
C1190 C1188 1.327 . S
C1190 C1209 1.429 . S
C1190 H1214 0.950 . S
C1191 C1208 1.574 . S
C1191 C1210 1.368 . S
C1191 H1215 0.949 . S
H1192 C1196 0.949 . S
C1193 C1194 1.349 . S
C1193 C1195 1.327 . S
C1193 H1216 0.950 . S
C1194 C1193 1.349 . S
C1194 C1206 1.349 . S
C1195 C1193 1.327 . S
C1195 C1211 1.429 . S
C1195 H1217 0.950 . S
C1196 H1192 0.949 . S
C1196 C1204 1.574 . S
C1196 C1212 1.368 . S
H1197 C1205 0.950 . S
H1198 C1203 0.950 . S
H1199 C1204 0.949 . S
H1200 C1206 0.950 . S
H1201 C1207 0.950 . S
H1202 C1208 0.949 . S
C1203 H1198 0.950 . S
C1203 C1205 1.327 . S
C1203 C1209 1.429 . S
C1204 C1196 1.574 . S
C1204 H1199 0.949 . S
C1204 C1210 1.368 . S
C1205 C1189 1.358 . S
C1205 H1197 0.950 . S
C1205 C1203 1.327 . S
C1206 C1194 1.349 . S
C1206 H1200 0.950 . S
C1206 C1207 1.327 . S
C1207 H1201 0.950 . S
C1207 C1206 1.327 . S
C1207 C1211 1.429 . S
C1208 C1191 1.574 . S
C1208 H1202 0.949 . S
C1208 C1212 1.368 . S
C1209 C1190 1.429 . S
C1209 C1203 1.429 . S
C1209 C1210 1.523 . S
C1210 C1191 1.368 . S
C1210 C1204 1.368 . S
C1210 C1209 1.523 . S
C1211 C1195 1.429 . S
C1211 C1207 1.429 . S
C1211 C1212 1.523 . S
C1212 C1196 1.368 . S
C1212 C1208 1.368 . S
C1212 C1211 1.523 . S
H1213 C1188 0.950 . S
H1214 C1190 0.950 . S
H1215 C1191 0.949 . S
H1216 C1193 0.950 . S
H1217 C1195 0.950 . S
C1218 C1219 1.349 . S
C1218 C1220 1.327 . S
C1218 H1243 0.950 . S
C1219 C1218 1.349 . S
C1219 C1235 1.349 . S
C1220 C1218 1.327 . S
C1220 C1239 1.429 . S
C1220 H1244 0.950 . S
C1221 C1238 1.574 . S
C1221 C1240 1.368 . S
C1221 H1245 0.949 . S
H1222 C1226 0.949 . S
C1223 C1224 1.358 . S
C1223 C1225 1.327 . S
C1223 H1246 0.950 . S
C1224 C1223 1.358 . S
C1224 C1236 1.358 . S
C1225 C1223 1.327 . S
C1225 C1241 1.429 . S
C1225 H1247 0.950 . S
C1226 H1222 0.949 . S
C1226 C1234 1.574 . S
C1226 C1242 1.368 . S
H1227 C1235 0.950 . S
H1228 C1233 0.950 . S
H1229 C1234 0.949 . S
H1230 C1236 0.950 . S
H1231 C1237 0.950 . S
H1232 C1238 0.949 . S
C1233 H1228 0.950 . S
C1233 C1235 1.327 . S
C1233 C1239 1.429 . S
C1234 C1226 1.574 . S
C1234 H1229 0.949 . S
C1234 C1240 1.368 . S
C1235 C1219 1.349 . S
C1235 H1227 0.950 . S
C1235 C1233 1.327 . S
C1236 C1224 1.358 . S
C1236 H1230 0.950 . S
C1236 C1237 1.327 . S
C1237 H1231 0.950 . S
C1237 C1236 1.327 . S
C1237 C1241 1.429 . S
C1238 C1221 1.574 . S
C1238 H1232 0.949 . S
C1238 C1242 1.368 . S
C1239 C1220 1.429 . S
C1239 C1233 1.429 . S
C1239 C1240 1.523 . S
C1240 C1221 1.368 . S
C1240 C1234 1.368 . S
C1240 C1239 1.523 . S
C1241 C1225 1.429 . S
C1241 C1237 1.429 . S
C1241 C1242 1.523 . S
C1242 C1226 1.368 . S
C1242 C1238 1.368 . S
C1242 C1241 1.523 . S
H1243 C1218 0.950 . S
H1244 C1220 0.950 . S
H1245 C1221 0.949 . S
H1246 C1223 0.950 . S
H1247 C1225 0.950 . S
C1248 C1249 1.349 . S
C1248 C1250 1.327 . S
C1248 H1273 0.950 . S
C1249 C1248 1.349 . S
C1249 C1265 1.349 . S
C1250 C1248 1.327 . S
C1250 C1269 1.429 . S
C1250 H1274 0.950 . S
C1251 C1268 1.574 . S
C1251 C1270 1.368 . S
C1251 H1275 0.949 . S
H1252 C1256 0.949 . S
C1253 C1254 1.349 . S
C1253 C1255 1.327 . S
C1253 H1276 0.950 . S
C1254 C1253 1.349 . S
C1254 C1266 1.349 . S
C1255 C1253 1.327 . S
C1255 C1271 1.429 . S
C1255 H1277 0.950 . S
C1256 H1252 0.949 . S
C1256 C1264 1.574 . S
C1256 C1272 1.368 . S
H1257 C1265 0.950 . S
H1258 C1263 0.950 . S
H1259 C1264 0.949 . S
H1260 C1266 0.950 . S
H1261 C1267 0.950 . S
H1262 C1268 0.949 . S
C1263 H1258 0.950 . S
C1263 C1265 1.327 . S
C1263 C1269 1.429 . S
C1264 C1256 1.574 . S
C1264 H1259 0.949 . S
C1264 C1270 1.368 . S
C1265 C1249 1.349 . S
C1265 H1257 0.950 . S
C1265 C1263 1.327 . S
C1266 C1254 1.349 . S
C1266 H1260 0.950 . S
C1266 C1267 1.327 . S
C1267 H1261 0.950 . S
C1267 C1266 1.327 . S
C1267 C1271 1.429 . S
C1268 C1251 1.574 . S
C1268 H1262 0.949 . S
C1268 C1272 1.368 . S
C1269 C1250 1.429 . S
C1269 C1263 1.429 . S
C1269 C1270 1.523 . S
C1270 C1251 1.368 . S
C1270 C1264 1.368 . S
C1270 C1269 1.523 . S
C1271 C1255 1.429 . S
C1271 C1267 1.429 . S
C1271 C1272 1.523 . S
C1272 C1256 1.368 . S
C1272 C1268 1.368 . S
C1272 C1271 1.523 . S
H1273 C1248 0.950 . S
H1274 C1250 0.950 . S
H1275 C1251 0.949 . S
H1276 C1253 0.950 . S
H1277 C1255 0.950 . S
C1278 C1279 1.349 . S
C1278 C1280 1.327 . S
C1278 H1303 0.950 . S
C1279 C1278 1.349 . S
C1279 C1295 1.349 . S
C1280 C1278 1.327 . S
C1280 C1299 1.429 . S
C1280 H1304 0.950 . S
C1281 C1298 1.574 1_565 S
C1281 C1300 1.368 1_455 S
C1281 H1305 0.949 . S
H1282 C1286 0.949 . S
C1283 C1284 1.349 . S
C1283 C1285 1.327 . S
C1283 H1306 0.950 . S
C1284 C1283 1.349 . S
C1284 C1296 1.349 . S
C1285 C1283 1.327 . S
C1285 C1301 1.429 . S
C1285 H1307 0.950 . S
C1286 H1282 0.949 . S
C1286 C1294 1.574 1_545 S
C1286 C1302 1.368 1_655 S
H1287 C1295 0.950 . S
H1288 C1293 0.950 . S
H1289 C1294 0.949 . S
H1290 C1296 0.950 . S
H1291 C1297 0.950 . S
H1292 C1298 0.949 . S
C1293 H1288 0.950 . S
C1293 C1295 1.327 . S
C1293 C1299 1.429 . S
C1294 C1286 1.574 1_565 S
C1294 H1289 0.949 . S
C1294 C1300 1.368 . S
C1295 C1279 1.349 . S
C1295 H1287 0.950 . S
C1295 C1293 1.327 . S
C1296 C1284 1.349 . S
C1296 H1290 0.950 . S
C1296 C1297 1.327 . S
C1297 H1291 0.950 . S
C1297 C1296 1.327 . S
C1297 C1301 1.429 . S
C1298 C1281 1.574 1_545 S
C1298 H1292 0.949 . S
C1298 C1302 1.368 . S
C1299 C1280 1.429 . S
C1299 C1293 1.429 . S
C1299 C1300 1.523 . S
C1300 C1281 1.368 1_655 S
C1300 C1294 1.368 . S
C1300 C1299 1.523 . S
C1301 C1285 1.429 . S
C1301 C1297 1.429 . S
C1301 C1302 1.523 . S
C1302 C1286 1.368 1_455 S
C1302 C1298 1.368 . S
C1302 C1301 1.523 . S
H1303 C1278 0.950 . S
H1304 C1280 0.950 . S
H1305 C1281 0.949 . S
H1306 C1283 0.950 . S
H1307 C1285 0.950 . S
C1308 C1309 1.349 . S
C1308 C1310 1.327 . S
C1308 H1333 0.950 . S
C1309 C1308 1.349 . S
C1309 C1325 1.349 . S
C1310 C1308 1.327 . S
C1310 C1329 1.429 . S
C1310 H1334 0.950 . S
C1311 C1328 1.574 1_565 S
C1311 C1330 1.368 . S
C1311 H1335 0.949 . S
H1312 C1316 0.949 . S
C1313 C1314 1.349 . S
C1313 C1315 1.327 . S
C1313 H1336 0.950 . S
C1314 C1313 1.349 . S
C1314 C1326 1.349 . S
C1315 C1313 1.327 . S
C1315 C1331 1.429 . S
C1315 H1337 0.950 . S
C1316 H1312 0.949 . S
C1316 C1324 1.574 1_545 S
C1316 C1332 1.368 . S
H1317 C1325 0.950 . S
H1318 C1323 0.950 . S
H1319 C1324 0.949 . S
H1320 C1326 0.950 . S
H1321 C1327 0.950 . S
H1322 C1328 0.949 . S
C1323 H1318 0.950 . S
C1323 C1325 1.327 . S
C1323 C1329 1.429 . S
C1324 C1316 1.574 1_565 S
C1324 H1319 0.949 . S
C1324 C1330 1.368 . S
C1325 C1309 1.349 . S
C1325 H1317 0.950 . S
C1325 C1323 1.327 . S
C1326 C1314 1.349 . S
C1326 H1320 0.950 . S
C1326 C1327 1.327 . S
C1327 H1321 0.950 . S
C1327 C1326 1.327 . S
C1327 C1331 1.429 . S
C1328 C1311 1.574 1_545 S
C1328 H1322 0.949 . S
C1328 C1332 1.368 . S
C1329 C1310 1.429 . S
C1329 C1323 1.429 . S
C1329 C1330 1.523 . S
C1330 C1311 1.368 . S
C1330 C1324 1.368 . S
C1330 C1329 1.523 . S
C1331 C1315 1.429 . S
C1331 C1327 1.429 . S
C1331 C1332 1.523 . S
C1332 C1316 1.368 . S
C1332 C1328 1.368 . S
C1332 C1331 1.523 . S
H1333 C1308 0.950 . S
H1334 C1310 0.950 . S
H1335 C1311 0.949 . S
H1336 C1313 0.950 . S
H1337 C1315 0.950 . S
C1338 C1339 1.349 . S
C1338 C1340 1.327 . S
C1338 H1363 0.950 . S
C1339 C1338 1.349 . S
C1339 C1355 1.349 . S
C1340 C1338 1.327 . S
C1340 C1359 1.429 . S
C1340 H1364 0.950 . S
C1341 C1358 1.574 . S
C1341 C1360 1.368 1_455 S
C1341 H1365 0.949 . S
H1342 C1346 0.949 . S
C1343 C1344 1.349 . S
C1343 C1345 1.327 . S
C1343 H1366 0.950 . S
C1344 C1343 1.349 . S
C1344 C1356 1.349 . S
C1345 C1343 1.327 . S
C1345 C1361 1.429 . S
C1345 H1367 0.950 . S
C1346 H1342 0.949 . S
C1346 C1354 1.574 . S
C1346 C1362 1.368 1_655 S
H1347 C1355 0.950 . S
H1348 C1353 0.950 . S
H1349 C1354 0.949 . S
H1350 C1356 0.950 . S
H1351 C1357 0.950 . S
H1352 C1358 0.949 . S
C1353 H1348 0.950 . S
C1353 C1355 1.327 . S
C1353 C1359 1.429 . S
C1354 C1346 1.574 . S
C1354 H1349 0.949 . S
C1354 C1360 1.368 . S
C1355 C1339 1.349 . S
C1355 H1347 0.950 . S
C1355 C1353 1.327 . S
C1356 C1344 1.349 . S
C1356 H1350 0.950 . S
C1356 C1357 1.327 . S
C1357 H1351 0.950 . S
C1357 C1356 1.327 . S
C1357 C1361 1.429 . S
C1358 C1341 1.574 . S
C1358 H1352 0.949 . S
C1358 C1362 1.368 . S
C1359 C1340 1.429 . S
C1359 C1353 1.429 . S
C1359 C1360 1.523 . S
C1360 C1341 1.368 1_655 S
C1360 C1354 1.368 . S
C1360 C1359 1.523 . S
C1361 C1345 1.429 . S
C1361 C1357 1.429 . S
C1361 C1362 1.523 . S
C1362 C1346 1.368 1_455 S
C1362 C1358 1.368 . S
C1362 C1361 1.523 . S
H1363 C1338 0.950 . S
H1364 C1340 0.950 . S
H1365 C1341 0.949 . S
H1366 C1343 0.950 . S
H1367 C1345 0.950 . S
C1368 C1369 1.349 . S
C1368 C1370 1.327 . S
C1368 H1393 0.950 . S
C1369 C1368 1.349 . S
C1369 C1385 1.349 . S
C1370 C1368 1.327 . S
C1370 C1389 1.429 . S
C1370 H1394 0.950 . S
C1371 C1388 1.574 . S
C1371 C1390 1.368 . S
C1371 H1395 0.949 . S
H1372 C1376 0.949 . S
C1373 C1374 1.349 . S
C1373 C1375 1.327 . S
C1373 H1396 0.950 . S
C1374 C1373 1.349 . S
C1374 C1386 1.349 . S
C1375 C1373 1.327 . S
C1375 C1391 1.429 . S
C1375 H1397 0.950 . S
C1376 H1372 0.949 . S
C1376 C1384 1.574 . S
C1376 C1392 1.368 . S
H1377 C1385 0.950 . S
H1378 C1383 0.950 . S
H1379 C1384 0.949 . S
H1380 C1386 0.950 . S
H1381 C1387 0.950 . S
H1382 C1388 0.949 . S
C1383 H1378 0.950 . S
C1383 C1385 1.327 . S
C1383 C1389 1.429 . S
C1384 C1376 1.574 . S
C1384 H1379 0.949 . S
C1384 C1390 1.368 . S
C1385 C1369 1.349 . S
C1385 H1377 0.950 . S
C1385 C1383 1.327 . S
C1386 C1374 1.349 . S
C1386 H1380 0.950 . S
C1386 C1387 1.327 . S
C1387 H1381 0.950 . S
C1387 C1386 1.327 . S
C1387 C1391 1.429 . S
C1388 C1371 1.574 . S
C1388 H1382 0.949 . S
C1388 C1392 1.368 . S
C1389 C1370 1.429 . S
C1389 C1383 1.429 . S
C1389 C1390 1.523 . S
C1390 C1371 1.368 . S
C1390 C1384 1.368 . S
C1390 C1389 1.523 . S
C1391 C1375 1.429 . S
C1391 C1387 1.429 . S
C1391 C1392 1.523 . S
C1392 C1376 1.368 . S
C1392 C1388 1.368 . S
C1392 C1391 1.523 . S
H1393 C1368 0.950 . S
H1394 C1370 0.950 . S
H1395 C1371 0.949 . S
H1396 C1373 0.950 . S
H1397 C1375 0.950 . S
C1398 C1399 1.349 . S
C1398 C1400 1.327 . S
C1398 H1423 0.950 . S
C1399 C1398 1.349 . S
C1399 C1415 1.349 . S
C1400 C1398 1.327 . S
C1400 C1419 1.429 . S
C1400 H1424 0.950 . S
C1401 C1418 1.574 . S
C1401 C1420 1.368 . S
C1401 H1425 0.949 . S
H1402 C1406 0.949 . S
C1403 C1404 1.349 . S
C1403 C1405 1.327 . S
C1403 H1426 0.950 . S
C1404 C1403 1.349 . S
C1404 C1416 1.349 . S
C1405 C1403 1.327 . S
C1405 C1421 1.429 . S
C1405 H1427 0.950 . S
C1406 H1402 0.949 . S
C1406 C1414 1.574 . S
C1406 C1422 1.368 . S
H1407 C1415 0.950 . S
H1408 C1413 0.950 . S
H1409 C1414 0.949 . S
H1410 C1416 0.950 . S
H1411 C1417 0.950 . S
H1412 C1418 0.949 . S
C1413 H1408 0.950 . S
C1413 C1415 1.327 . S
C1413 C1419 1.429 . S
C1414 C1406 1.574 . S
C1414 H1409 0.949 . S
C1414 C1420 1.368 1_565 S
C1415 C1399 1.349 . S
C1415 H1407 0.950 . S
C1415 C1413 1.327 . S
C1416 C1404 1.349 . S
C1416 H1410 0.950 . S
C1416 C1417 1.327 . S
C1417 H1411 0.950 . S
C1417 C1416 1.327 . S
C1417 C1421 1.429 . S
C1418 C1401 1.574 . S
C1418 H1412 0.949 . S
C1418 C1422 1.368 1_545 S
C1419 C1400 1.429 . S
C1419 C1413 1.429 . S
C1419 C1420 1.523 . S
C1420 C1401 1.368 . S
C1420 C1414 1.368 1_545 S
C1420 C1419 1.523 . S
C1421 C1405 1.429 . S
C1421 C1417 1.429 . S
C1421 C1422 1.523 . S
C1422 C1406 1.368 . S
C1422 C1418 1.368 1_565 S
C1422 C1421 1.523 . S
H1423 C1398 0.950 . S
H1424 C1400 0.950 . S
H1425 C1401 0.949 . S
H1426 C1403 0.950 . S
H1427 C1405 0.950 . S
C1428 C1429 1.349 . S
C1428 C1430 1.327 . S
C1428 H1453 0.950 . S
C1429 C1428 1.349 . S
C1429 C1445 1.349 . S
C1430 C1428 1.327 . S
C1430 C1449 1.429 . S
C1430 H1454 0.950 . S
C1431 C1448 1.574 . S
C1431 C1450 1.368 . S
C1431 H1455 0.949 . S
H1432 C1436 0.949 . S
C1433 C1434 1.349 . S
C1433 C1435 1.327 . S
C1433 H1456 0.950 . S
C1434 C1433 1.349 . S
C1434 C1446 1.349 . S
C1435 C1433 1.327 . S
C1435 C1451 1.429 . S
C1435 H1457 0.950 . S
C1436 H1432 0.949 . S
C1436 C1444 1.574 . S
C1436 C1452 1.368 . S
H1437 C1445 0.950 . S
H1438 C1443 0.950 . S
H1439 C1444 0.949 . S
H1440 C1446 0.950 . S
H1441 C1447 0.950 . S
H1442 C1448 0.949 . S
C1443 H1438 0.950 . S
C1443 C1445 1.327 . S
C1443 C1449 1.429 . S
C1444 C1436 1.574 . S
C1444 H1439 0.949 . S
C1444 C1450 1.368 1_455 S
C1445 C1429 1.349 . S
C1445 H1437 0.950 . S
C1445 C1443 1.327 . S
C1446 C1434 1.349 . S
C1446 H1440 0.950 . S
C1446 C1447 1.327 . S
C1447 H1441 0.950 . S
C1447 C1446 1.327 . S
C1447 C1451 1.429 . S
C1448 C1431 1.574 . S
C1448 H1442 0.949 . S
C1448 C1452 1.368 1_655 S
C1449 C1430 1.429 . S
C1449 C1443 1.429 . S
C1449 C1450 1.523 . S
C1450 C1431 1.368 . S
C1450 C1444 1.368 1_655 S
C1450 C1449 1.523 . S
C1451 C1435 1.429 . S
C1451 C1447 1.429 . S
C1451 C1452 1.523 . S
C1452 C1436 1.368 . S
C1452 C1448 1.368 1_455 S
C1452 C1451 1.523 . S
H1453 C1428 0.950 . S
H1454 C1430 0.950 . S
H1455 C1431 0.949 . S
H1456 C1433 0.950 . S
H1457 C1435 0.950 . S
C1458 C1459 1.349 . S
C1458 C1460 1.327 . S
C1458 H1483 0.950 . S
C1459 C1458 1.349 . S
C1459 C1475 1.349 . S
C1460 C1458 1.327 . S
C1460 C1479 1.429 . S
C1460 H1484 0.950 . S
C1461 C1478 1.574 . S
C1461 C1480 1.368 . S
C1461 H1485 0.949 . S
H1462 C1466 0.949 . S
C1463 C1464 1.349 . S
C1463 C1465 1.327 . S
C1463 H1486 0.950 . S
C1464 C1463 1.349 . S
C1464 C1476 1.349 . S
C1465 C1463 1.327 . S
C1465 C1481 1.429 . S
C1465 H1487 0.950 . S
C1466 H1462 0.949 . S
C1466 C1474 1.574 . S
C1466 C1482 1.368 . S
H1467 C1475 0.950 . S
H1468 C1473 0.950 . S
H1469 C1474 0.949 . S
H1470 C1476 0.950 . S
H1471 C1477 0.950 . S
H1472 C1478 0.949 . S
C1473 H1468 0.950 . S
C1473 C1475 1.327 . S
C1473 C1479 1.429 . S
C1474 C1466 1.574 . S
C1474 H1469 0.949 . S
C1474 C1480 1.368 1_556 S
C1475 C1459 1.349 . S
C1475 H1467 0.950 . S
C1475 C1473 1.327 . S
C1476 C1464 1.349 . S
C1476 H1470 0.950 . S
C1476 C1477 1.327 . S
C1477 H1471 0.950 . S
C1477 C1476 1.327 . S
C1477 C1481 1.429 . S
C1478 C1461 1.574 . S
C1478 H1472 0.949 . S
C1478 C1482 1.368 1_554 S
C1479 C1460 1.429 . S
C1479 C1473 1.429 . S
C1479 C1480 1.523 . S
C1480 C1461 1.368 . S
C1480 C1474 1.368 1_554 S
C1480 C1479 1.523 . S
C1481 C1465 1.429 . S
C1481 C1477 1.429 . S
C1481 C1482 1.523 . S
C1482 C1466 1.368 . S
C1482 C1478 1.368 1_556 S
C1482 C1481 1.523 . S
H1483 C1458 0.950 . S
H1484 C1460 0.950 . S
H1485 C1461 0.949 . S
H1486 C1463 0.950 . S
H1487 C1465 0.950 . S
C1488 C1489 1.349 . S
C1488 C1490 1.327 . S
C1488 H1513 0.950 . S
C1489 C1488 1.349 . S
C1489 C1505 1.349 . S
C1490 C1488 1.327 . S
C1490 C1509 1.429 . S
C1490 H1514 0.950 . S
C1491 C1508 1.574 1_556 S
C1491 C1510 1.368 . S
C1491 H1515 0.949 . S
H1492 C1496 0.949 . S
C1493 C1494 1.349 . S
C1493 C1495 1.327 . S
C1493 H1516 0.950 . S
C1494 C1493 1.349 . S
C1494 C1506 1.349 . S
C1495 C1493 1.327 . S
C1495 C1511 1.429 . S
C1495 H1517 0.950 . S
C1496 H1492 0.949 . S
C1496 C1504 1.574 1_554 S
C1496 C1512 1.368 . S
H1497 C1505 0.950 . S
H1498 C1503 0.950 . S
H1499 C1504 0.949 . S
H1500 C1506 0.950 . S
H1501 C1507 0.950 . S
H1502 C1508 0.949 . S
C1503 H1498 0.950 . S
C1503 C1505 1.327 . S
C1503 C1509 1.429 . S
C1504 C1496 1.574 1_556 S
C1504 H1499 0.949 . S
C1504 C1510 1.368 1_655 S
C1505 C1489 1.349 . S
C1505 H1497 0.950 . S
C1505 C1503 1.327 . S
C1506 C1494 1.349 . S
C1506 H1500 0.950 . S
C1506 C1507 1.327 . S
C1507 H1501 0.950 . S
C1507 C1506 1.327 . S
C1507 C1511 1.429 . S
C1508 C1491 1.574 1_554 S
C1508 H1502 0.949 . S
C1508 C1512 1.368 1_455 S
C1509 C1490 1.429 . S
C1509 C1503 1.429 . S
C1509 C1510 1.523 . S
C1510 C1491 1.368 . S
C1510 C1504 1.368 1_455 S
C1510 C1509 1.523 . S
C1511 C1495 1.429 . S
C1511 C1507 1.429 . S
C1511 C1512 1.523 . S
C1512 C1496 1.368 . S
C1512 C1508 1.368 1_655 S
C1512 C1511 1.523 . S
H1513 C1488 0.950 . S
H1514 C1490 0.950 . S
H1515 C1491 0.949 . S
H1516 C1493 0.950 . S
H1517 C1495 0.950 . S
C1518 C1519 1.349 . S
C1518 C1520 1.327 . S
C1518 H1543 0.950 . S
C1519 C1518 1.349 . S
C1519 C1535 1.349 . S
C1520 C1518 1.327 . S
C1520 C1539 1.429 . S
C1520 H1544 0.950 . S
C1521 C1538 1.574 . S
C1521 C1540 1.368 . S
C1521 H1545 0.949 . S
H1522 C1526 0.949 . S
C1523 C1524 1.349 . S
C1523 C1525 1.327 . S
C1523 H1546 0.950 . S
C1524 C1523 1.349 . S
C1524 C1536 1.349 . S
C1525 C1523 1.327 . S
C1525 C1541 1.429 . S
C1525 H1547 0.950 . S
C1526 H1522 0.949 . S
C1526 C1534 1.574 . S
C1526 C1542 1.368 . S
H1527 C1535 0.950 . S
H1528 C1533 0.950 . S
H1529 C1534 0.949 . S
H1530 C1536 0.950 . S
H1531 C1537 0.950 . S
H1532 C1538 0.949 . S
C1533 H1528 0.950 . S
C1533 C1535 1.327 . S
C1533 C1539 1.429 . S
C1534 C1526 1.574 . S
C1534 H1529 0.949 . S
C1534 C1540 1.368 . S
C1535 C1519 1.349 . S
C1535 H1527 0.950 . S
C1535 C1533 1.327 . S
C1536 C1524 1.349 . S
C1536 H1530 0.950 . S
C1536 C1537 1.327 . S
C1537 H1531 0.950 . S
C1537 C1536 1.327 . S
C1537 C1541 1.429 . S
C1538 C1521 1.574 . S
C1538 H1532 0.949 . S
C1538 C1542 1.368 . S
C1539 C1520 1.429 . S
C1539 C1533 1.429 . S
C1539 C1540 1.523 . S
C1540 C1521 1.368 . S
C1540 C1534 1.368 . S
C1540 C1539 1.523 . S
C1541 C1525 1.429 . S
C1541 C1537 1.429 . S
C1541 C1542 1.523 . S
C1542 C1526 1.368 . S
C1542 C1538 1.368 . S
C1542 C1541 1.523 . S
H1543 C1518 0.950 . S
H1544 C1520 0.950 . S
H1545 C1521 0.949 . S
H1546 C1523 0.950 . S
H1547 C1525 0.950 . S
C1548 C1549 1.349 . S
C1548 C1550 1.327 . S
C1548 H1573 0.950 . S
C1549 C1548 1.349 . S
C1549 C1565 1.349 . S
C1550 C1548 1.327 . S
C1550 C1569 1.429 . S
C1550 H1574 0.950 . S
C1551 C1568 1.574 . S
C1551 C1570 1.368 1_556 S
C1551 H1575 0.949 . S
H1552 C1556 0.949 . S
C1553 C1554 1.349 . S
C1553 C1555 1.327 . S
C1553 H1576 0.950 . S
C1554 C1553 1.349 . S
C1554 C1566 1.349 . S
C1555 C1553 1.327 . S
C1555 C1571 1.429 . S
C1555 H1577 0.950 . S
C1556 H1552 0.949 . S
C1556 C1564 1.574 . S
C1556 C1572 1.368 1_554 S
H1557 C1565 0.950 . S
H1558 C1563 0.950 . S
H1559 C1564 0.949 . S
H1560 C1566 0.950 . S
H1561 C1567 0.950 . S
H1562 C1568 0.949 . S
C1563 H1558 0.950 . S
C1563 C1565 1.327 . S
C1563 C1569 1.429 . S
C1564 C1556 1.574 . S
C1564 H1559 0.949 . S
C1564 C1570 1.368 . S
C1565 C1549 1.349 . S
C1565 H1557 0.950 . S
C1565 C1563 1.327 . S
C1566 C1554 1.349 . S
C1566 H1560 0.950 . S
C1566 C1567 1.327 . S
C1567 H1561 0.950 . S
C1567 C1566 1.327 . S
C1567 C1571 1.429 . S
C1568 C1551 1.574 . S
C1568 H1562 0.949 . S
C1568 C1572 1.368 . S
C1569 C1550 1.429 . S
C1569 C1563 1.429 . S
C1569 C1570 1.523 . S
C1570 C1551 1.368 1_554 S
C1570 C1564 1.368 . S
C1570 C1569 1.523 . S
C1571 C1555 1.429 . S
C1571 C1567 1.429 . S
C1571 C1572 1.523 . S
C1572 C1556 1.368 1_556 S
C1572 C1568 1.368 . S
C1572 C1571 1.523 . S
H1573 C1548 0.950 . S
H1574 C1550 0.950 . S
H1575 C1551 0.949 . S
H1576 C1553 0.950 . S
H1577 C1555 0.950 . S
C1578 C1579 1.349 . S
C1578 C1580 1.327 . S
C1578 H1603 0.950 . S
C1579 C1578 1.349 . S
C1579 C1595 1.349 . S
C1580 C1578 1.327 . S
C1580 C1599 1.429 . S
C1580 H1604 0.950 . S
C1581 C1598 1.574 . S
C1581 C1600 1.368 . S
C1581 H1605 0.949 . S
H1582 C1586 0.949 . S
C1583 C1584 1.349 . S
C1583 C1585 1.327 . S
C1583 H1606 0.950 . S
C1584 C1583 1.349 . S
C1584 C1596 1.349 . S
C1585 C1583 1.327 . S
C1585 C1601 1.429 . S
C1585 H1607 0.950 . S
C1586 H1582 0.949 . S
C1586 C1594 1.574 . S
C1586 C1602 1.368 . S
H1587 C1595 0.950 . S
H1588 C1593 0.950 . S
H1589 C1594 0.949 . S
H1590 C1596 0.950 . S
H1591 C1597 0.950 . S
H1592 C1598 0.949 . S
C1593 H1588 0.950 . S
C1593 C1595 1.327 . S
C1593 C1599 1.429 . S
C1594 C1586 1.574 . S
C1594 H1589 0.949 . S
C1594 C1600 1.368 . S
C1595 C1579 1.349 . S
C1595 H1587 0.950 . S
C1595 C1593 1.327 . S
C1596 C1584 1.349 . S
C1596 H1590 0.950 . S
C1596 C1597 1.327 . S
C1597 H1591 0.950 . S
C1597 C1596 1.327 . S
C1597 C1601 1.429 . S
C1598 C1581 1.574 . S
C1598 H1592 0.949 . S
C1598 C1602 1.368 . S
C1599 C1580 1.429 . S
C1599 C1593 1.429 . S
C1599 C1600 1.523 . S
C1600 C1581 1.368 . S
C1600 C1594 1.368 . S
C1600 C1599 1.523 . S
C1601 C1585 1.429 . S
C1601 C1597 1.429 . S
C1601 C1602 1.523 . S
C1602 C1586 1.368 . S
C1602 C1598 1.368 . S
C1602 C1601 1.523 . S
H1603 C1578 0.950 . S
H1604 C1580 0.950 . S
H1605 C1581 0.949 . S
H1606 C1583 0.950 . S
H1607 C1585 0.950 . S
C1608 C1609 1.349 . S
C1608 C1610 1.327 . S
C1608 H1633 0.950 . S
C1609 C1608 1.349 . S
C1609 C1625 1.349 . S
C1610 C1608 1.327 . S
C1610 C1629 1.429 . S
C1610 H1634 0.950 . S
C1611 C1628 1.574 . S
C1611 C1630 1.368 1_545 S
C1611 H1635 0.949 . S
H1612 C1616 0.949 . S
C1613 C1614 1.349 . S
C1613 C1615 1.327 . S
C1613 H1636 0.950 . S
C1614 C1613 1.349 . S
C1614 C1626 1.349 . S
C1615 C1613 1.327 . S
C1615 C1631 1.429 . S
C1615 H1637 0.950 . S
C1616 H1612 0.949 . S
C1616 C1624 1.574 . S
C1616 C1632 1.368 1_565 S
H1617 C1625 0.950 . S
H1618 C1623 0.978 . S
H1619 C1624 0.949 . S
H1620 C1626 0.950 . S
H1621 C1627 0.978 . S
H1622 C1628 0.949 . S
C1623 H1618 0.978 . S
C1623 C1625 1.327 . S
C1623 C1629 1.429 . S
C1624 C1616 1.574 . S
C1624 H1619 0.949 . S
C1624 C1630 1.368 1_556 S
C1625 C1609 1.349 . S
C1625 H1617 0.950 . S
C1625 C1623 1.327 . S
C1626 C1614 1.349 . S
C1626 H1620 0.950 . S
C1626 C1627 1.327 . S
C1627 H1621 0.978 . S
C1627 C1626 1.327 . S
C1627 C1631 1.429 . S
C1628 C1611 1.574 . S
C1628 H1622 0.949 . S
C1628 C1632 1.368 1_554 S
C1629 C1610 1.429 . S
C1629 C1623 1.429 . S
C1629 C1630 1.523 . S
C1630 C1611 1.368 1_565 S
C1630 C1624 1.368 1_554 S
C1630 C1629 1.523 . S
C1631 C1615 1.429 . S
C1631 C1627 1.429 . S
C1631 C1632 1.523 . S
C1632 C1616 1.368 1_545 S
C1632 C1628 1.368 1_556 S
C1632 C1631 1.523 . S
H1633 C1608 0.950 . S
H1634 C1610 0.950 . S
H1635 C1611 0.949 . S
H1636 C1613 0.950 . S
H1637 C1615 0.950 . S
C1638 C1639 1.349 . S
C1638 C1640 1.327 . S
C1638 H1663 0.950 . S
C1639 C1638 1.349 . S
C1639 C1655 1.349 . S
C1640 C1638 1.327 . S
C1640 C1659 1.429 . S
C1640 H1664 0.950 . S
C1641 C1658 1.574 . S
C1641 C1660 1.368 . S
C1641 H1665 0.949 . S
H1642 C1646 0.949 . S
C1643 C1644 1.349 . S
C1643 C1645 1.327 . S
C1643 H1666 0.950 . S
C1644 C1643 1.349 . S
C1644 C1656 1.349 . S
C1645 C1643 1.327 . S
C1645 C1661 1.429 . S
C1645 H1667 0.950 . S
C1646 H1642 0.949 . S
C1646 C1654 1.574 . S
C1646 C1662 1.368 . S
H1647 C1655 0.950 . S
H1648 C1653 0.950 . S
H1649 C1654 0.949 . S
H1650 C1656 0.950 . S
H1651 C1657 0.950 . S
H1652 C1658 0.949 . S
C1653 H1648 0.950 . S
C1653 C1655 1.327 . S
C1653 C1659 1.429 . S
C1654 C1646 1.574 . S
C1654 H1649 0.949 . S
C1654 C1660 1.368 . S
C1655 C1639 1.349 . S
C1655 H1647 0.950 . S
C1655 C1653 1.327 . S
C1656 C1644 1.349 . S
C1656 H1650 0.950 . S
C1656 C1657 1.327 . S
C1657 H1651 0.950 . S
C1657 C1656 1.327 . S
C1657 C1661 1.429 . S
C1658 C1641 1.574 . S
C1658 H1652 0.949 . S
C1658 C1662 1.368 . S
C1659 C1640 1.429 . S
C1659 C1653 1.429 . S
C1659 C1660 1.523 . S
C1660 C1641 1.368 . S
C1660 C1654 1.368 . S
C1660 C1659 1.523 . S
C1661 C1645 1.429 . S
C1661 C1657 1.429 . S
C1661 C1662 1.523 . S
C1662 C1646 1.368 . S
C1662 C1658 1.368 . S
C1662 C1661 1.523 . S
H1663 C1638 0.950 . S
H1664 C1640 0.950 . S
H1665 C1641 0.949 . S
H1666 C1643 0.950 . S
H1667 C1645 0.950 . S
C1668 C1669 1.349 . S
C1668 C1670 1.327 . S
C1668 H1693 0.950 . S
C1669 C1668 1.349 . S
C1669 C1685 1.349 . S
C1670 C1668 1.327 . S
C1670 C1689 1.429 . S
C1670 H1694 0.950 . S
C1671 C1688 1.574 . S
C1671 C1690 1.368 . S
C1671 H1695 0.949 . S
H1672 C1676 0.949 . S
C1673 C1674 1.349 . S
C1673 C1675 1.327 . S
C1673 H1696 0.950 . S
C1674 C1673 1.349 . S
C1674 C1686 1.349 . S
C1675 C1673 1.327 . S
C1675 C1691 1.429 . S
C1675 H1697 0.950 . S
C1676 H1672 0.949 . S
C1676 C1684 1.574 . S
C1676 C1692 1.368 . S
H1677 C1685 0.950 . S
H1678 C1683 0.950 . S
H1679 C1684 0.949 . S
H1680 C1686 0.950 . S
H1681 C1687 0.950 . S
H1682 C1688 0.949 . S
C1683 H1678 0.950 . S
C1683 C1685 1.327 . S
C1683 C1689 1.429 . S
C1684 C1676 1.574 . S
C1684 H1679 0.949 . S
C1684 C1690 1.368 . S
C1685 C1669 1.349 . S
C1685 H1677 0.950 . S
C1685 C1683 1.327 . S
C1686 C1674 1.349 . S
C1686 H1680 0.950 . S
C1686 C1687 1.327 . S
C1687 H1681 0.950 . S
C1687 C1686 1.327 . S
C1687 C1691 1.429 . S
C1688 C1671 1.574 . S
C1688 H1682 0.949 . S
C1688 C1692 1.368 . S
C1689 C1670 1.429 . S
C1689 C1683 1.429 . S
C1689 C1690 1.523 . S
C1690 C1671 1.368 . S
C1690 C1684 1.368 . S
C1690 C1689 1.523 . S
C1691 C1675 1.429 . S
C1691 C1687 1.429 . S
C1691 C1692 1.523 . S
C1692 C1676 1.368 . S
C1692 C1688 1.368 . S
C1692 C1691 1.523 . S
H1693 C1668 0.950 . S
H1694 C1670 0.950 . S
H1695 C1671 0.949 . S
H1696 C1673 0.950 . S
H1697 C1675 0.950 . S
C1698 C1699 1.349 . S
C1698 C1700 1.327 . S
C1698 H1723 0.950 . S
C1699 C1698 1.349 . S
C1699 C1715 1.349 . S
C1700 C1698 1.327 . S
C1700 C1719 1.429 . S
C1700 H1724 0.950 . S
C1701 C1718 1.574 . S
C1701 C1720 1.368 . S
C1701 H1725 0.949 . S
H1702 C1706 0.949 . S
C1703 C1704 1.349 . S
C1703 C1705 1.327 . S
C1703 H1726 0.950 . S
C1704 C1703 1.349 . S
C1704 C1716 1.349 . S
C1705 C1703 1.327 . S
C1705 C1721 1.429 . S
C1705 H1727 0.950 . S
C1706 H1702 0.949 . S
C1706 C1714 1.574 . S
C1706 C1722 1.368 . S
H1707 C1715 0.950 . S
H1708 C1713 0.950 . S
H1709 C1714 0.949 . S
H1710 C1716 0.950 . S
H1711 C1717 0.950 . S
H1712 C1718 0.949 . S
C1713 H1708 0.950 . S
C1713 C1715 1.327 . S
C1713 C1719 1.429 . S
C1714 C1706 1.574 . S
C1714 H1709 0.949 . S
C1714 C1720 1.368 . S
C1715 C1699 1.349 . S
C1715 H1707 0.950 . S
C1715 C1713 1.327 . S
C1716 C1704 1.349 . S
C1716 H1710 0.950 . S
C1716 C1717 1.327 . S
C1717 H1711 0.950 . S
C1717 C1716 1.327 . S
C1717 C1721 1.429 . S
C1718 C1701 1.574 . S
C1718 H1712 0.949 . S
C1718 C1722 1.368 . S
C1719 C1700 1.429 . S
C1719 C1713 1.429 . S
C1719 C1720 1.523 . S
C1720 C1701 1.368 . S
C1720 C1714 1.368 . S
C1720 C1719 1.523 . S
C1721 C1705 1.429 . S
C1721 C1717 1.429 . S
C1721 C1722 1.523 . S
C1722 C1706 1.368 . S
C1722 C1718 1.368 . S
C1722 C1721 1.523 . S
H1723 C1698 0.950 . S
H1724 C1700 0.950 . S
H1725 C1701 0.949 . S
H1726 C1703 0.950 . S
H1727 C1705 0.950 . S
C529 N5 0.550 . S
C534 N302 0.550 . S
C559 N14 0.664 . S
C564 N311 0.664 . S
C589 N278 0.664 . S
C594 N47 0.664 . S
C619 N38 0.550 . S
C624 N269 0.550 . S
C649 N71 0.550 . S
C654 N368 0.550 . S
C679 N80 0.664 . S
C684 N377 0.664 . S
C709 N113 0.664 . S
C714 N344 0.664 . S
C739 N104 0.550 . S
C744 N335 0.550 . S
C769 N137 0.550 . S
C774 N434 0.550 . S
C799 N443 0.664 . S
C804 N146 0.664 . S
C829 N410 0.664 . S
C834 N179 0.664 . S
C859 N401 0.550 . S
C864 N170 0.550 . S
C889 N500 0.550 . S
C894 N203 0.550 . S
C919 N509 0.664 . S
C924 N212 0.664 . S
C949 N476 0.664 . S
C954 N245 0.664 . S
C979 N236 0.550 . S
C984 N467 0.550 . S
C1009 C17 1.142 . S
C1014 C50 1.124 1_554 S
C1039 C116 1.124 1_556 S
C1044 C83 1.142 . S
C1069 C182 1.142 . S
C1074 C149 1.142 . S
C1099 C248 1.142 . S
C1104 C215 1.142 . S
C1129 C314 1.142 . S
C1134 C281 1.142 . S
C1159 C347 1.142 . S
C1164 C380 1.142 . S
C1189 C446 1.124 1_554 S
C1194 C413 1.142 . S
C1219 C479 1.142 . S
C1224 C512 1.124 1_556 S
C1249 C490 1.794 . S
C1254 C28 1.794 . S
C1279 C74 1.815 . S
C1284 C8 1.815 . S
C1309 C371 1.815 . S
C1314 C41 1.815 . S
C1339 C259 1.794 . S
C1344 C61 1.794 . S
C1369 C94 1.794 . S
C1374 C424 1.794 . S
C1399 C305 1.815 . S
C1404 C107 1.815 . S
C1429 C127 1.794 . S
C1434 C193 1.794 . S
C1459 C358 1.794 . S
C1464 C160 1.794 . S
C1489 C140 1.815 . S
C1494 C206 1.815 . S
C1519 C173 1.815 . S
C1524 C503 1.815 . S
C1549 C226 1.794 . S
C1554 C292 1.794 . S
C1579 C239 1.815 . S
C1584 C437 1.815 . S
C1609 C338 1.815 . S
C1614 C272 1.815 . S
C1639 C523 1.794 . S
C1644 C325 1.794 . S
C1669 C391 1.794 . S
C1674 C457 1.794 . S
C1699 C404 1.815 . S
C1704 C470 1.815 . S
