# Generated by pormake.
# Topology wna, (6)-cn, num edge types: 1
# Building blocks:
#     Node 0, Type 0, BuildingBlock: BETFAJ_clean_sbu_0, # of connection points: 6
#     Node 1, Type 0, BuildingBlock: BETFAJ_clean_sbu_0, # of connection points: 6
#     Node 2, Type 0, BuildingBlock: BETFAJ_clean_sbu_0, # of connection points: 6
#     Node 3, Type 0, BuildingBlock: BETFAJ_clean_sbu_0, # of connection points: 6
#     Node 4, Type 0, BuildingBlock: BETFAJ_clean_sbu_0, # of connection points: 6
#     Node 5, Type 0, BuildingBlock: BETFAJ_clean_sbu_0, # of connection points: 6
#     Node 6, Type 0, BuildingBlock: BETFAJ_clean_sbu_0, # of connection points: 6
#     Node 7, Type 0, BuildingBlock: BETFAJ_clean_sbu_0, # of connection points: 6
#     Node 8, Type 0, BuildingBlock: BETFAJ_clean_sbu_0, # of connection points: 6
#     Node 9, Type 0, BuildingBlock: BETFAJ_clean_sbu_0, # of connection points: 6
#     Node 10, Type 0, BuildingBlock: BETFAJ_clean_sbu_0, # of connection points: 6
#     Node 11, Type 0, BuildingBlock: BETFAJ_clean_sbu_0, # of connection points: 6
#     Node 12, Type 0, BuildingBlock: BETFAJ_clean_sbu_0, # of connection points: 6
#     Node 13, Type 0, BuildingBlock: BETFAJ_clean_sbu_0, # of connection points: 6
#     Node 14, Type 0, BuildingBlock: BETFAJ_clean_sbu_0, # of connection points: 6
#     Node 15, Type 0, BuildingBlock: BETFAJ_clean_sbu_0, # of connection points: 6
#     Node 16, Type 0, BuildingBlock: BETFAJ_clean_sbu_0, # of connection points: 6
#     Node 17, Type 0, BuildingBlock: BETFAJ_clean_sbu_0, # of connection points: 6
#     Node 18, Type 0, BuildingBlock: BETFAJ_clean_sbu_0, # of connection points: 6
#     Node 19, Type 0, BuildingBlock: BETFAJ_clean_sbu_0, # of connection points: 6
#     Node 20, Type 0, BuildingBlock: BETFAJ_clean_sbu_0, # of connection points: 6
#     Node 21, Type 0, BuildingBlock: BETFAJ_clean_sbu_0, # of connection points: 6
#     Node 22, Type 0, BuildingBlock: BETFAJ_clean_sbu_0, # of connection points: 6
#     Node 23, Type 0, BuildingBlock: BETFAJ_clean_sbu_0, # of connection points: 6
#     Node 24, Type 0, BuildingBlock: BETFAJ_clean_sbu_0, # of connection points: 6
#     Node 25, Type 0, BuildingBlock: BETFAJ_clean_sbu_0, # of connection points: 6
#     Node 26, Type 0, BuildingBlock: BETFAJ_clean_sbu_0, # of connection points: 6
#     Node 27, Type 0, BuildingBlock: BETFAJ_clean_sbu_0, # of connection points: 6
#     Node 28, Type 0, BuildingBlock: BETFAJ_clean_sbu_0, # of connection points: 6
#     Node 29, Type 0, BuildingBlock: BETFAJ_clean_sbu_0, # of connection points: 6
#     Node 30, Type 0, BuildingBlock: BETFAJ_clean_sbu_0, # of connection points: 6
#     Node 31, Type 0, BuildingBlock: BETFAJ_clean_sbu_0, # of connection points: 6
#     Node 32, Type 0, BuildingBlock: BETFAJ_clean_sbu_0, # of connection points: 6
#     Node 33, Type 0, BuildingBlock: BETFAJ_clean_sbu_0, # of connection points: 6
#     Node 34, Type 0, BuildingBlock: BETFAJ_clean_sbu_0, # of connection points: 6
#     Node 35, Type 0, BuildingBlock: BETFAJ_clean_sbu_0, # of connection points: 6
#     Edge 36, Type (0, 0), BuildingBlock: XIVTED_clean_linker_0, # of connection points: 2
#     Edge 37, Type (0, 0), BuildingBlock: XIVTED_clean_linker_0, # of connection points: 2
#     Edge 38, Type (0, 0), BuildingBlock: XIVTED_clean_linker_0, # of connection points: 2
#     Edge 39, Type (0, 0), BuildingBlock: XIVTED_clean_linker_0, # of connection points: 2
#     Edge 40, Type (0, 0), BuildingBlock: XIVTED_clean_linker_0, # of connection points: 2
#     Edge 41, Type (0, 0), BuildingBlock: XIVTED_clean_linker_0, # of connection points: 2
#     Edge 42, Type (0, 0), BuildingBlock: XIVTED_clean_linker_0, # of connection points: 2
#     Edge 43, Type (0, 0), BuildingBlock: XIVTED_clean_linker_0, # of connection points: 2
#     Edge 44, Type (0, 0), BuildingBlock: XIVTED_clean_linker_0, # of connection points: 2
#     Edge 45, Type (0, 0), BuildingBlock: XIVTED_clean_linker_0, # of connection points: 2
#     Edge 46, Type (0, 0), BuildingBlock: XIVTED_clean_linker_0, # of connection points: 2
#     Edge 47, Type (0, 0), BuildingBlock: XIVTED_clean_linker_0, # of connection points: 2
#     Edge 48, Type (0, 0), BuildingBlock: XIVTED_clean_linker_0, # of connection points: 2
#     Edge 49, Type (0, 0), BuildingBlock: XIVTED_clean_linker_0, # of connection points: 2
#     Edge 50, Type (0, 0), BuildingBlock: XIVTED_clean_linker_0, # of connection points: 2
#     Edge 51, Type (0, 0), BuildingBlock: XIVTED_clean_linker_0, # of connection points: 2
#     Edge 52, Type (0, 0), BuildingBlock: XIVTED_clean_linker_0, # of connection points: 2
#     Edge 53, Type (0, 0), BuildingBlock: XIVTED_clean_linker_0, # of connection points: 2
#     Edge 54, Type (0, 0), BuildingBlock: XIVTED_clean_linker_0, # of connection points: 2
#     Edge 55, Type (0, 0), BuildingBlock: XIVTED_clean_linker_0, # of connection points: 2
#     Edge 56, Type (0, 0), BuildingBlock: XIVTED_clean_linker_0, # of connection points: 2
#     Edge 57, Type (0, 0), BuildingBlock: XIVTED_clean_linker_0, # of connection points: 2
#     Edge 58, Type (0, 0), BuildingBlock: XIVTED_clean_linker_0, # of connection points: 2
#     Edge 59, Type (0, 0), BuildingBlock: XIVTED_clean_linker_0, # of connection points: 2
#     Edge 60, Type (0, 0), BuildingBlock: XIVTED_clean_linker_0, # of connection points: 2
#     Edge 61, Type (0, 0), BuildingBlock: XIVTED_clean_linker_0, # of connection points: 2
#     Edge 62, Type (0, 0), BuildingBlock: XIVTED_clean_linker_0, # of connection points: 2
#     Edge 63, Type (0, 0), BuildingBlock: XIVTED_clean_linker_0, # of connection points: 2
#     Edge 64, Type (0, 0), BuildingBlock: XIVTED_clean_linker_0, # of connection points: 2
#     Edge 65, Type (0, 0), BuildingBlock: XIVTED_clean_linker_0, # of connection points: 2
#     Edge 66, Type (0, 0), BuildingBlock: XIVTED_clean_linker_0, # of connection points: 2
#     Edge 67, Type (0, 0), BuildingBlock: XIVTED_clean_linker_0, # of connection points: 2
#     Edge 68, Type (0, 0), BuildingBlock: XIVTED_clean_linker_0, # of connection points: 2
#     Edge 69, Type (0, 0), BuildingBlock: XIVTED_clean_linker_0, # of connection points: 2
#     Edge 70, Type (0, 0), BuildingBlock: XIVTED_clean_linker_0, # of connection points: 2
#     Edge 71, Type (0, 0), BuildingBlock: XIVTED_clean_linker_0, # of connection points: 2
#     Edge 72, Type (0, 0), BuildingBlock: XIVTED_clean_linker_0, # of connection points: 2
#     Edge 73, Type (0, 0), BuildingBlock: XIVTED_clean_linker_0, # of connection points: 2
#     Edge 74, Type (0, 0), BuildingBlock: XIVTED_clean_linker_0, # of connection points: 2
#     Edge 75, Type (0, 0), BuildingBlock: XIVTED_clean_linker_0, # of connection points: 2
#     Edge 76, Type (0, 0), BuildingBlock: XIVTED_clean_linker_0, # of connection points: 2
#     Edge 77, Type (0, 0), BuildingBlock: XIVTED_clean_linker_0, # of connection points: 2
#     Edge 78, Type (0, 0), BuildingBlock: XIVTED_clean_linker_0, # of connection points: 2
#     Edge 79, Type (0, 0), BuildingBlock: XIVTED_clean_linker_0, # of connection points: 2
#     Edge 80, Type (0, 0), BuildingBlock: XIVTED_clean_linker_0, # of connection points: 2
#     Edge 81, Type (0, 0), BuildingBlock: XIVTED_clean_linker_0, # of connection points: 2
#     Edge 82, Type (0, 0), BuildingBlock: XIVTED_clean_linker_0, # of connection points: 2
#     Edge 83, Type (0, 0), BuildingBlock: XIVTED_clean_linker_0, # of connection points: 2
#     Edge 84, Type (0, 0), BuildingBlock: XIVTED_clean_linker_0, # of connection points: 2
#     Edge 85, Type (0, 0), BuildingBlock: XIVTED_clean_linker_0, # of connection points: 2
#     Edge 86, Type (0, 0), BuildingBlock: XIVTED_clean_linker_0, # of connection points: 2
#     Edge 87, Type (0, 0), BuildingBlock: XIVTED_clean_linker_0, # of connection points: 2
#     Edge 88, Type (0, 0), BuildingBlock: XIVTED_clean_linker_0, # of connection points: 2
#     Edge 89, Type (0, 0), BuildingBlock: XIVTED_clean_linker_0, # of connection points: 2
#     Edge 90, Type (0, 0), BuildingBlock: XIVTED_clean_linker_0, # of connection points: 2
#     Edge 91, Type (0, 0), BuildingBlock: XIVTED_clean_linker_0, # of connection points: 2
#     Edge 92, Type (0, 0), BuildingBlock: XIVTED_clean_linker_0, # of connection points: 2
#     Edge 93, Type (0, 0), BuildingBlock: XIVTED_clean_linker_0, # of connection points: 2
#     Edge 94, Type (0, 0), BuildingBlock: XIVTED_clean_linker_0, # of connection points: 2
#     Edge 95, Type (0, 0), BuildingBlock: XIVTED_clean_linker_0, # of connection points: 2
#     Edge 96, Type (0, 0), BuildingBlock: XIVTED_clean_linker_0, # of connection points: 2
#     Edge 97, Type (0, 0), BuildingBlock: XIVTED_clean_linker_0, # of connection points: 2
#     Edge 98, Type (0, 0), BuildingBlock: XIVTED_clean_linker_0, # of connection points: 2
#     Edge 99, Type (0, 0), BuildingBlock: XIVTED_clean_linker_0, # of connection points: 2
#     Edge 100, Type (0, 0), BuildingBlock: XIVTED_clean_linker_0, # of connection points: 2
#     Edge 101, Type (0, 0), BuildingBlock: XIVTED_clean_linker_0, # of connection points: 2
#     Edge 102, Type (0, 0), BuildingBlock: XIVTED_clean_linker_0, # of connection points: 2
#     Edge 103, Type (0, 0), BuildingBlock: XIVTED_clean_linker_0, # of connection points: 2
#     Edge 104, Type (0, 0), BuildingBlock: XIVTED_clean_linker_0, # of connection points: 2
#     Edge 105, Type (0, 0), BuildingBlock: XIVTED_clean_linker_0, # of connection points: 2
#     Edge 106, Type (0, 0), BuildingBlock: XIVTED_clean_linker_0, # of connection points: 2
#     Edge 107, Type (0, 0), BuildingBlock: XIVTED_clean_linker_0, # of connection points: 2
#     Edge 108, Type (0, 0), BuildingBlock: XIVTED_clean_linker_0, # of connection points: 2
#     Edge 109, Type (0, 0), BuildingBlock: XIVTED_clean_linker_0, # of connection points: 2
#     Edge 110, Type (0, 0), BuildingBlock: XIVTED_clean_linker_0, # of connection points: 2
#     Edge 111, Type (0, 0), BuildingBlock: XIVTED_clean_linker_0, # of connection points: 2
#     Edge 112, Type (0, 0), BuildingBlock: XIVTED_clean_linker_0, # of connection points: 2
#     Edge 113, Type (0, 0), BuildingBlock: XIVTED_clean_linker_0, # of connection points: 2
#     Edge 114, Type (0, 0), BuildingBlock: XIVTED_clean_linker_0, # of connection points: 2
#     Edge 115, Type (0, 0), BuildingBlock: XIVTED_clean_linker_0, # of connection points: 2
#     Edge 116, Type (0, 0), BuildingBlock: XIVTED_clean_linker_0, # of connection points: 2
#     Edge 117, Type (0, 0), BuildingBlock: XIVTED_clean_linker_0, # of connection points: 2
#     Edge 118, Type (0, 0), BuildingBlock: XIVTED_clean_linker_0, # of connection points: 2
#     Edge 119, Type (0, 0), BuildingBlock: XIVTED_clean_linker_0, # of connection points: 2
#     Edge 120, Type (0, 0), BuildingBlock: XIVTED_clean_linker_0, # of connection points: 2
#     Edge 121, Type (0, 0), BuildingBlock: XIVTED_clean_linker_0, # of connection points: 2
#     Edge 122, Type (0, 0), BuildingBlock: XIVTED_clean_linker_0, # of connection points: 2
#     Edge 123, Type (0, 0), BuildingBlock: XIVTED_clean_linker_0, # of connection points: 2
#     Edge 124, Type (0, 0), BuildingBlock: XIVTED_clean_linker_0, # of connection points: 2
#     Edge 125, Type (0, 0), BuildingBlock: XIVTED_clean_linker_0, # of connection points: 2
#     Edge 126, Type (0, 0), BuildingBlock: XIVTED_clean_linker_0, # of connection points: 2
#     Edge 127, Type (0, 0), BuildingBlock: XIVTED_clean_linker_0, # of connection points: 2
#     Edge 128, Type (0, 0), BuildingBlock: XIVTED_clean_linker_0, # of connection points: 2
#     Edge 129, Type (0, 0), BuildingBlock: XIVTED_clean_linker_0, # of connection points: 2
#     Edge 130, Type (0, 0), BuildingBlock: XIVTED_clean_linker_0, # of connection points: 2
#     Edge 131, Type (0, 0), BuildingBlock: XIVTED_clean_linker_0, # of connection points: 2
#     Edge 132, Type (0, 0), BuildingBlock: XIVTED_clean_linker_0, # of connection points: 2
#     Edge 133, Type (0, 0), BuildingBlock: XIVTED_clean_linker_0, # of connection points: 2
#     Edge 134, Type (0, 0), BuildingBlock: XIVTED_clean_linker_0, # of connection points: 2
#     Edge 135, Type (0, 0), BuildingBlock: XIVTED_clean_linker_0, # of connection points: 2
#     Edge 136, Type (0, 0), BuildingBlock: XIVTED_clean_linker_0, # of connection points: 2
#     Edge 137, Type (0, 0), BuildingBlock: XIVTED_clean_linker_0, # of connection points: 2
#     Edge 138, Type (0, 0), BuildingBlock: XIVTED_clean_linker_0, # of connection points: 2
#     Edge 139, Type (0, 0), BuildingBlock: XIVTED_clean_linker_0, # of connection points: 2
#     Edge 140, Type (0, 0), BuildingBlock: XIVTED_clean_linker_0, # of connection points: 2
#     Edge 141, Type (0, 0), BuildingBlock: XIVTED_clean_linker_0, # of connection points: 2
#     Edge 142, Type (0, 0), BuildingBlock: XIVTED_clean_linker_0, # of connection points: 2
#     Edge 143, Type (0, 0), BuildingBlock: XIVTED_clean_linker_0, # of connection points: 2
# Relax obj value: 0.159
# Max RMSD: 0.226
# Mean RMSD: 0.209
data_MOF--net-wna--node1-BETFAJ_clean_sbu_0--edge1-XIVTED_clean_linker_0
_symmetry_space_group_name_H-M    P1
_symmetry_Int_Tables_number       1
_symmetry_cell_setting            triclinic
loop_
_symmetry_equiv_pos_as_xyz
'x, y, z'
_cell_length_a     41.322261
_cell_length_b     41.353665
_cell_length_c     152.43338
_cell_angle_alpha  89.994917
_cell_angle_beta   89.965997
_cell_angle_gamma 119.98519
loop_
_atom_site_label
_atom_site_type_symbol
_atom_site_fract_x
_atom_site_fract_y
_atom_site_fract_z
_atom_type_partial_charge
Sm0 Sm 0.11742 0.2576 0.17127 0.0
Sm1 Sm 0.12164 0.24516 0.19183 0.0
C2 C 0.10615 0.28287 0.15623 0.0
C3 C 0.11787 0.29211 0.14697 0.0
C4 C 0.1146 0.32083 0.14295 0.0
C5 C 0.12218 0.32839 0.13401 0.0
C6 C 0.13325 0.30737 0.12885 0.0
C7 C 0.13775 0.27934 0.13296 0.0
C8 C 0.13001 0.27168 0.14194 0.0
C9 C 0.13873 0.20453 0.17387 0.0
C10 C 0.19991 0.29908 0.18039 0.0
C11 C 0.13149 0.23505 0.20858 0.0
C12 C 0.1108 0.22558 0.21705 0.0
C13 C 0.09965 0.19093 0.22104 0.0
C14 C 0.08118 0.18184 0.22915 0.0
C15 C 0.0736 0.2073 0.23353 0.0
C16 C 0.08477 0.24202 0.22953 0.0
C17 C 0.1031 0.25104 0.22139 0.0
C18 C 0.08675 0.28464 0.18685 0.0
C19 C 0.0465 0.18807 0.18157 0.0
O20 O 0.12888 0.3048 0.16231 0.0
O21 O 0.08835 0.24758 0.15848 0.0
O22 O 0.13162 0.22194 0.17962 0.0
O23 O 0.13583 0.2162 0.16614 0.0
O24 O 0.18001 0.29673 0.17337 0.0
O25 O 0.18435 0.28107 0.18782 0.0
O26 O 0.12004 0.20846 0.20268 0.0
O27 O 0.14215 0.26799 0.20515 0.0
O28 O 0.11613 0.28779 0.18354 0.0
O29 O 0.07539 0.26092 0.19327 0.0
O30 O 0.06895 0.19109 0.18807 0.0
O31 O 0.0568 0.21391 0.17535 0.0
H32 H 0.10537 0.337 0.1467 0.0
H33 H 0.11905 0.35059 0.13111 0.0
H34 H 0.14606 0.26251 0.12918 0.0
H35 H 0.13273 0.24935 0.14491 0.0
H36 H 0.10554 0.17089 0.21793 0.0
H37 H 0.07354 0.15509 0.23207 0.0
H38 H 0.07908 0.26217 0.23265 0.0
H39 H 0.11134 0.27805 0.21853 0.0
Sm40 Sm 0.76522 0.86367 0.17114 0.0
Sm41 Sm 0.77349 0.87895 0.19065 0.0
C42 C 0.74062 0.83528 0.1553 0.0
C43 C 0.72544 0.83722 0.14663 0.0
C44 C 0.69554 0.80457 0.14314 0.0
C45 C 0.68465 0.80336 0.1344 0.0
C46 C 0.70349 0.83482 0.12892 0.0
C47 C 0.73217 0.86817 0.13257 0.0
C48 C 0.74314 0.86934 0.14133 0.0
C49 C 0.8225 0.93409 0.17495 0.0
C50 C 0.72102 0.90372 0.18016 0.0
C51 C 0.79416 0.89816 0.20725 0.0
C52 C 0.80323 0.88553 0.21555 0.0
C53 C 0.83834 0.90783 0.21945 0.0
C54 C 0.84661 0.89856 0.22765 0.0
C55 C 0.81987 0.86676 0.23224 0.0
C56 C 0.78497 0.8439 0.22822 0.0
C57 C 0.77672 0.85319 0.21999 0.0
C58 C 0.72018 0.8064 0.18607 0.0
C59 C 0.82882 0.85401 0.181 0.0
O60 O 0.71883 0.82514 0.16221 0.0
O61 O 0.77541 0.85986 0.15704 0.0
O62 O 0.79148 0.91814 0.17896 0.0
O63 O 0.8222 0.91448 0.16828 0.0
O64 O 0.7218 0.88302 0.17361 0.0
O65 O 0.74252 0.91049 0.18712 0.0
O66 O 0.81792 0.90772 0.20076 0.0
O67 O 0.75938 0.88103 0.20463 0.0
O68 O 0.75202 0.82554 0.18272 0.0
O69 O 0.71598 0.82486 0.19239 0.0
O70 O 0.8245 0.87212 0.18761 0.0
O71 O 0.80502 0.84165 0.17439 0.0
H72 H 0.68155 0.7794 0.14707 0.0
H73 H 0.66202 0.77741 0.13186 0.0
H74 H 0.7474 0.89286 0.12855 0.0
H75 H 0.76642 0.8949 0.14384 0.0
H76 H 0.85927 0.93297 0.2162 0.0
H77 H 0.87401 0.9165 0.23043 0.0
H78 H 0.76353 0.8194 0.23156 0.0
H79 H 0.7493 0.83544 0.2172 0.0
Sm80 Sm 0.15579 0.90392 0.17116 0.0
Sm81 Sm 0.13981 0.89609 0.19055 0.0
C82 C 0.18485 0.9086 0.15535 0.0
C83 C 0.18304 0.89163 0.14668 0.0
C84 C 0.21593 0.8951 0.14311 0.0
C85 C 0.21715 0.88558 0.13436 0.0
C86 C 0.18547 0.87239 0.12895 0.0
C87 C 0.1519 0.86696 0.13267 0.0
C88 C 0.15072 0.8766 0.14144 0.0
C89 C 0.08443 0.88851 0.17483 0.0
C90 C 0.11684 0.81931 0.18002 0.0
C91 C 0.12005 0.89697 0.20714 0.0
C92 C 0.13233 0.9187 0.21544 0.0
C93 C 0.11005 0.93186 0.21919 0.0
C94 C 0.11897 0.94946 0.22739 0.0
C95 C 0.15036 0.95422 0.23211 0.0
C96 C 0.17323 0.94185 0.22824 0.0
C97 C 0.1643 0.92424 0.22001 0.0
C98 C 0.21316 0.91715 0.18616 0.0
C99 C 0.16234 0.97592 0.18094 0.0
O100 O 0.19494 0.89687 0.16225 0.0
O101 O 0.16004 0.91852 0.15709 0.0
O102 O 0.10097 0.87411 0.17885 0.0
O103 O 0.10402 0.90841 0.16822 0.0
O104 O 0.13766 0.84132 0.17354 0.0
O105 O 0.10934 0.8335 0.18698 0.0
O106 O 0.11027 0.91091 0.20064 0.0
O107 O 0.13764 0.87978 0.20453 0.0
O108 O 0.1937 0.92943 0.18277 0.0
O109 O 0.19451 0.89394 0.19239 0.0
O110 O 0.1442 0.95292 0.18747 0.0
O111 O 0.17607 0.96543 0.17442 0.0
H112 H 0.24125 0.90675 0.147 0.0
H113 H 0.24328 0.88949 0.13177 0.0
H114 H 0.12702 0.85703 0.12868 0.0
H115 H 0.12496 0.87373 0.14401 0.0
H116 H 0.0852 0.92789 0.21585 0.0
H117 H 0.10105 0.95919 0.23006 0.0
H118 H 0.19742 0.94468 0.23168 0.0
H119 H 0.18202 0.91431 0.21733 0.0
Sm120 Sm 0.26041 0.11125 0.35555 0.0
Sm121 Sm 0.24532 0.11566 0.33401 0.0
C122 C 0.28782 0.10253 0.37051 0.0
C123 C 0.29816 0.11692 0.37958 0.0
C124 C 0.33063 0.12006 0.38331 0.0
C125 C 0.33946 0.13028 0.39212 0.0
C126 C 0.3159 0.13752 0.39743 0.0
C127 C 0.28376 0.13518 0.39361 0.0
C128 C 0.275 0.12504 0.38477 0.0
C129 C 0.20919 0.13467 0.35245 0.0
C130 C 0.30162 0.1927 0.34533 0.0
C131 C 0.221 0.1204 0.31826 0.0
C132 C 0.21545 0.10309 0.30948 0.0
C133 C 0.18639 0.09987 0.30414 0.0
C134 C 0.18034 0.08345 0.29582 0.0
C135 C 0.20328 0.06983 0.29264 0.0
C136 C 0.23251 0.07318 0.29803 0.0
C137 C 0.23845 0.08952 0.30638 0.0
C138 C 0.29513 0.08987 0.33747 0.0
C139 C 0.19212 0.03859 0.34521 0.0
O140 O 0.30912 0.12348 0.36407 0.0
O141 O 0.25213 0.08438 0.36855 0.0
O142 O 0.2265 0.1263 0.34693 0.0
O143 O 0.21976 0.13142 0.3603 0.0
O144 O 0.30237 0.17277 0.3521 0.0
O145 O 0.27996 0.17751 0.33833 0.0
O146 O 0.19879 0.09911 0.32452 0.0
O147 O 0.2556 0.14206 0.32086 0.0
O148 O 0.27817 0.09942 0.34274 0.0
O149 O 0.286 0.09439 0.32961 0.0
O150 O 0.19589 0.05912 0.3382 0.0
O151 O 0.21593 0.05067 0.35191 0.0
H152 H 0.34877 0.11367 0.37945 0.0
H153 H 0.36416 0.1313 0.39483 0.0
H154 H 0.26524 0.14105 0.39745 0.0
H155 H 0.2498 0.12295 0.38206 0.0
H156 H 0.16833 0.11017 0.30639 0.0
H157 H 0.15792 0.08188 0.29183 0.0
H158 H 0.25045 0.06263 0.29585 0.0
H159 H 0.26091 0.09142 0.31041 0.0
Sm160 Sm 0.91027 0.15132 0.35499 0.0
Sm161 Sm 0.90229 0.13162 0.33428 0.0
C162 C 0.9151 0.18201 0.37061 0.0
C163 C 0.89964 0.17599 0.37967 0.0
C164 C 0.87264 0.18577 0.38193 0.0
C165 C 0.86175 0.18462 0.3907 0.0
C166 C 0.87779 0.1739 0.39744 0.0
C167 C 0.90412 0.16326 0.39512 0.0
C168 C 0.91494 0.16438 0.38637 0.0
C169 C 0.89596 0.08038 0.35112 0.0
C170 C 0.82608 0.11234 0.34565 0.0
C171 C 0.89692 0.10226 0.31853 0.0
C172 C 0.91515 0.11409 0.30985 0.0
C173 C 0.91861 0.08829 0.30454 0.0
C174 C 0.93543 0.09871 0.29626 0.0
C175 C 0.94916 0.13526 0.29306 0.0
C176 C 0.9459 0.16117 0.29845 0.0
C177 C 0.92915 0.15073 0.30676 0.0
C178 C 0.93106 0.2082 0.33703 0.0
C179 C 0.98165 0.15853 0.34439 0.0
O180 O 0.89573 0.18447 0.3641 0.0
O181 O 0.93364 0.1652 0.36842 0.0
O182 O 0.88323 0.09799 0.34692 0.0
O183 O 0.91282 0.09839 0.3582 0.0
O184 O 0.84697 0.12905 0.35266 0.0
O185 O 0.84044 0.10829 0.33821 0.0
O186 O 0.91706 0.09985 0.32488 0.0
O187 O 0.87633 0.1165 0.32109 0.0
O188 O 0.92204 0.18273 0.34256 0.0
O189 O 0.92431 0.19297 0.32933 0.0
O190 O 0.95826 0.13668 0.33828 0.0
O191 O 0.97132 0.17433 0.35051 0.0
H192 H 0.86057 0.19526 0.37696 0.0
H193 H 0.84106 0.19257 0.3922 0.0
H194 H 0.91761 0.15546 0.40011 0.0
H195 H 0.9363 0.15728 0.38492 0.0
H196 H 0.90826 0.05996 0.30681 0.0
H197 H 0.93799 0.07812 0.2924 0.0
H198 H 0.95572 0.18942 0.29621 0.0
H199 H 0.92696 0.17124 0.31074 0.0
Sm200 Sm 0.86511 0.75974 0.35511 0.0
Sm201 Sm 0.88479 0.772 0.33433 0.0
C202 C 0.83446 0.73298 0.37068 0.0
C203 C 0.84135 0.72406 0.37967 0.0
C204 C 0.81889 0.68785 0.38301 0.0
C205 C 0.82137 0.67991 0.39184 0.0
C206 C 0.84621 0.70813 0.39757 0.0
C207 C 0.86959 0.7441 0.39414 0.0
C208 C 0.86723 0.75197 0.3853 0.0
C209 C 0.93555 0.81734 0.35126 0.0
C210 C 0.9048 0.71554 0.34564 0.0
C211 C 0.9141 0.79609 0.31857 0.0
C212 C 0.90271 0.80287 0.30987 0.0
C213 C 0.92873 0.83265 0.30471 0.0
C214 C 0.91883 0.83948 0.29641 0.0
C215 C 0.88258 0.8166 0.29306 0.0
C216 C 0.85649 0.78674 0.29827 0.0
C217 C 0.8664 0.78002 0.30659 0.0
C218 C 0.80835 0.72365 0.33724 0.0
C219 C 0.85662 0.82316 0.34455 0.0
O220 O 0.83297 0.71151 0.36418 0.0
O221 O 0.85005 0.76824 0.36849 0.0
O222 O 0.91851 0.78708 0.347 0.0
O223 O 0.91732 0.81549 0.35837 0.0
O224 O 0.88802 0.71944 0.35267 0.0
O225 O 0.90868 0.73394 0.33821 0.0
O226 O 0.91665 0.81859 0.32494 0.0
O227 O 0.89956 0.7612 0.32109 0.0
O228 O 0.83411 0.7403 0.34267 0.0
O229 O 0.82317 0.73214 0.32949 0.0
O230 O 0.87843 0.82208 0.33835 0.0
O231 O 0.8413 0.79704 0.35069 0.0
H232 H 0.79843 0.66591 0.37885 0.0
H233 H 0.80269 0.652 0.39425 0.0
H234 H 0.88941 0.76636 0.39833 0.0
H235 H 0.885 0.78021 0.38295 0.0
H236 H 0.9569 0.85059 0.30709 0.0
H237 H 0.93983 0.8624 0.29257 0.0
H238 H 0.82821 0.76883 0.29596 0.0
H239 H 0.84568 0.75699 0.31047 0.0
Sm240 Sm 0.90053 0.77032 0.83461 0.0
Sm241 Sm 0.90913 0.75935 0.85533 0.0
C242 C 0.89462 0.79365 0.81881 0.0
C243 C 0.91248 0.80001 0.81008 0.0
C244 C 0.91277 0.82709 0.80449 0.0
C245 C 0.92921 0.83344 0.79616 0.0
C246 C 0.94577 0.81277 0.79321 0.0
C247 C 0.94548 0.78563 0.79886 0.0
C248 C 0.92911 0.7794 0.80721 0.0
C249 C 0.92975 0.72283 0.83749 0.0
C250 C 0.98019 0.82323 0.84465 0.0
C251 C 0.91387 0.73297 0.87087 0.0
C252 C 0.89705 0.7211 0.8797 0.0
C253 C 0.89399 0.68862 0.8834 0.0
C254 C 0.88285 0.67915 0.89215 0.0
C255 C 0.87463 0.70208 0.89743 0.0
C256 C 0.87653 0.734 0.8936 0.0
C257 C 0.88759 0.74341 0.88484 0.0
C258 C 0.89542 0.81635 0.85139 0.0
C259 C 0.82446 0.71449 0.84614 0.0
O260 O 0.91483 0.81643 0.82511 0.0
O261 O 0.8745 0.75886 0.82141 0.0
O262 O 0.92069 0.73952 0.84294 0.0
O263 O 0.92273 0.73081 0.82976 0.0
O264 O 0.95671 0.8213 0.8385 0.0
O265 O 0.97006 0.79743 0.85084 0.0
O266 O 0.89671 0.71129 0.86416 0.0
O267 O 0.92996 0.76857 0.86898 0.0
O268 O 0.88203 0.78572 0.84727 0.0
O269 O 0.91287 0.81537 0.85839 0.0
O270 O 0.84559 0.71943 0.85316 0.0
O271 O 0.83862 0.73185 0.83858 0.0
H272 H 0.90007 0.84327 0.80656 0.0
H273 H 0.9284 0.85419 0.79198 0.0
H274 H 0.95834 0.76952 0.79687 0.0
H275 H 0.92946 0.75849 0.81143 0.0
H276 H 0.90148 0.67117 0.87961 0.0
H277 H 0.88217 0.65463 0.89487 0.0
H278 H 0.86987 0.752 0.89742 0.0
H279 H 0.88965 0.76863 0.88216 0.0
Sm280 Sm 0.24655 0.13329 0.83435 0.0
Sm281 Sm 0.2591 0.1502 0.85501 0.0
C282 C 0.23534 0.11168 0.81772 0.0
C283 C 0.22612 0.12239 0.80917 0.0
C284 C 0.19308 0.0971 0.80481 0.0
C285 C 0.18428 0.10583 0.7966 0.0
C286 C 0.20845 0.14006 0.79247 0.0
C287 C 0.24142 0.16556 0.79688 0.0
C288 C 0.25015 0.15685 0.80513 0.0
C289 C 0.28582 0.20792 0.83909 0.0
C290 C 0.18953 0.15142 0.84471 0.0
C291 C 0.28377 0.18475 0.8703 0.0
C292 C 0.28942 0.179 0.87969 0.0
C293 C 0.32579 0.1924 0.88291 0.0
C294 C 0.3321 0.19056 0.89188 0.0
C295 C 0.3022 0.17554 0.89788 0.0
C296 C 0.26571 0.16147 0.89462 0.0
C297 C 0.25938 0.16321 0.88565 0.0
C298 C 0.20671 0.07566 0.85233 0.0
C299 C 0.302 0.11097 0.8456 0.0
O300 O 0.20884 0.09785 0.82367 0.0
O301 O 0.2686 0.13361 0.82104 0.0
O302 O 0.28859 0.18195 0.84271 0.0
O303 O 0.26373 0.19514 0.83238 0.0
O304 O 0.19264 0.13209 0.83819 0.0
O305 O 0.21526 0.16693 0.85094 0.0
O306 O 0.30542 0.18168 0.86448 0.0
O307 O 0.24955 0.17195 0.86749 0.0
O308 O 0.22398 0.10045 0.84664 0.0
O309 O 0.21791 0.09016 0.86008 0.0
O310 O 0.29998 0.12878 0.85261 0.0
O311 O 0.28297 0.10741 0.8383 0.0
H312 H 0.17404 0.07034 0.80776 0.0
H313 H 0.15833 0.0857 0.79352 0.0
H314 H 0.26096 0.192 0.79389 0.0
H315 H 0.27591 0.177 0.80828 0.0
H316 H 0.34958 0.20524 0.87852 0.0
H317 H 0.36061 0.20214 0.89414 0.0
H318 H 0.24196 0.1493 0.89903 0.0
H319 H 0.23099 0.15279 0.88341 0.0
Sm320 Sm 0.88462 0.11371 0.83451 0.0
Sm321 Sm 0.8639 0.1064 0.85528 0.0
C322 C 0.91455 0.1191 0.81882 0.0
C323 C 0.9034 0.10181 0.81002 0.0
C324 C 0.92852 0.09569 0.8051 0.0
C325 C 0.91912 0.08036 0.79666 0.0
C326 C 0.88431 0.07084 0.79291 0.0
C327 C 0.85894 0.07657 0.79793 0.0
C328 C 0.86836 0.09183 0.80639 0.0
C329 C 0.80818 0.08626 0.83726 0.0
C330 C 0.85603 0.03435 0.84474 0.0
C331 C 0.83205 0.10251 0.87068 0.0
C332 C 0.83795 0.11821 0.87967 0.0
C333 C 0.81311 0.12895 0.88305 0.0
C334 C 0.81478 0.139 0.89189 0.0
C335 C 0.84122 0.13828 0.89759 0.0
C336 C 0.86695 0.12877 0.89411 0.0
C337 C 0.86537 0.11889 0.88526 0.0
C338 C 0.93416 0.11837 0.85163 0.0
C339 C 0.90544 0.19047 0.8458 0.0
O340 O 0.91599 0.09824 0.82513 0.0
O341 O 0.90085 0.14015 0.82138 0.0
O342 O 0.83374 0.09516 0.84273 0.0
O343 O 0.82323 0.09247 0.82953 0.0
O344 O 0.87788 0.05721 0.83854 0.0
O345 O 0.8408 0.04519 0.85091 0.0
O346 O 0.83089 0.12237 0.86411 0.0
O347 O 0.84815 0.08312 0.86866 0.0
O348 O 0.91746 0.13177 0.8473 0.0
O349 O 0.91572 0.10241 0.85876 0.0
O350 O 0.88835 0.17 0.85285 0.0
O351 O 0.909 0.1756 0.8384 0.0
H352 H 0.9556 0.10295 0.80778 0.0
H353 H 0.93913 0.07575 0.7931 0.0
H354 H 0.83205 0.06997 0.79526 0.0
H355 H 0.84836 0.09613 0.81006 0.0
H356 H 0.79147 0.1283 0.87892 0.0
H357 H 0.79429 0.1458 0.89434 0.0
H358 H 0.88804 0.12846 0.89827 0.0
H359 H 0.88499 0.1108 0.88287 0.0
Sm360 Sm 0.77478 0.89882 0.69081 0.0
Sm361 Sm 0.76524 0.90535 0.67135 0.0
C362 C 0.79629 0.90014 0.70733 0.0
C363 C 0.80519 0.92181 0.7156 0.0
C364 C 0.8384 0.93088 0.72005 0.0
C365 C 0.8465 0.94904 0.72818 0.0
C366 C 0.82147 0.95848 0.7321 0.0
C367 C 0.7884 0.94984 0.72757 0.0
C368 C 0.78037 0.93177 0.7194 0.0
C369 C 0.7223 0.91949 0.6865 0.0
C370 C 0.83118 0.97794 0.68093 0.0
C371 C 0.74031 0.90936 0.65556 0.0
C372 C 0.72492 0.89219 0.64692 0.0
C373 C 0.69417 0.89389 0.64358 0.0
C374 C 0.68299 0.88429 0.63485 0.0
C375 C 0.70241 0.87286 0.62923 0.0
C376 C 0.73198 0.86921 0.63271 0.0
C377 C 0.74321 0.87889 0.64146 0.0
C378 C 0.82124 0.88993 0.67498 0.0
C379 C 0.72005 0.82166 0.6806 0.0
O380 O 0.81976 0.91486 0.7008 0.0
O381 O 0.76143 0.88209 0.70478 0.0
O382 O 0.75369 0.93136 0.68296 0.0
O383 O 0.71824 0.89711 0.69288 0.0
O384 O 0.8269 0.95529 0.68748 0.0
O385 O 0.80657 0.96707 0.67449 0.0
O386 O 0.7187 0.89779 0.6625 0.0
O387 O 0.77512 0.91949 0.65725 0.0
O388 O 0.79049 0.87592 0.67906 0.0
O389 O 0.8213 0.90941 0.6683 0.0
O390 O 0.72039 0.84307 0.67407 0.0
O391 O 0.74282 0.8364 0.68735 0.0
H392 H 0.85786 0.92326 0.7173 0.0
H393 H 0.87197 0.95475 0.7315 0.0
H394 H 0.7687 0.9571 0.73032 0.0
H395 H 0.75455 0.92523 0.71612 0.0
H396 H 0.6797 0.90421 0.64763 0.0
H397 H 0.65968 0.88679 0.63245 0.0
H398 H 0.74768 0.86069 0.62857 0.0
H399 H 0.76715 0.87743 0.64383 0.0
Sm400 Sm 0.11893 0.87597 0.69086 0.0
Sm401 Sm 0.11308 0.86108 0.67135 0.0
C402 C 0.11678 0.89513 0.70744 0.0
C403 C 0.09488 0.88252 0.71572 0.0
C404 C 0.0785 0.9026 0.7191 0.0
C405 C 0.06091 0.89372 0.72731 0.0
C406 C 0.0594 0.86462 0.73242 0.0
C407 C 0.075 0.84389 0.72893 0.0
C408 C 0.09258 0.85276 0.7207 0.0
C409 C 0.10012 0.80352 0.68633 0.0
C410 C 0.03928 0.85099 0.68103 0.0
C411 C 0.11025 0.83367 0.65541 0.0
C412 C 0.12803 0.83765 0.64673 0.0
C413 C 0.12721 0.80635 0.64293 0.0
C414 C 0.13805 0.80718 0.63419 0.0
C415 C 0.14985 0.83937 0.62901 0.0
C416 C 0.15216 0.87127 0.63296 0.0
C417 C 0.14137 0.87043 0.64172 0.0
C418 C 0.12657 0.9317 0.67519 0.0
C419 C 0.19655 0.90019 0.68067 0.0
O420 O 0.1027 0.90455 0.70089 0.0
O421 O 0.13471 0.8782 0.70487 0.0
O422 O 0.08758 0.82257 0.68284 0.0
O423 O 0.12222 0.82197 0.69274 0.0
O424 O 0.06144 0.86931 0.68765 0.0
O425 O 0.05101 0.83856 0.67449 0.0
O426 O 0.12315 0.82445 0.66224 0.0
O427 O 0.09809 0.85657 0.65731 0.0
O428 O 0.14127 0.91549 0.67923 0.0
O429 O 0.10748 0.91223 0.66849 0.0
O430 O 0.17547 0.87928 0.6741 0.0
O431 O 0.18143 0.90756 0.68746 0.0
H432 H 0.07997 0.92579 0.71545 0.0
H433 H 0.04868 0.90993 0.72967 0.0
H434 H 0.07474 0.82153 0.73269 0.0
H435 H 0.10511 0.83683 0.71834 0.0
H436 H 0.11664 0.78062 0.64662 0.0
H437 H 0.13547 0.78195 0.63138 0.0
H438 H 0.16169 0.89674 0.62923 0.0
H439 H 0.1423 0.89504 0.64447 0.0
Sm440 Sm 0.13714 0.24151 0.69188 0.0
Sm441 Sm 0.15835 0.25588 0.6704 0.0
C442 C 0.10753 0.21665 0.70757 0.0
C443 C 0.11951 0.21074 0.71629 0.0
C444 C 0.09468 0.17989 0.72135 0.0
C445 C 0.10547 0.17326 0.72956 0.0
C446 C 0.14141 0.19743 0.73291 0.0
C447 C 0.16624 0.22848 0.72782 0.0
C448 C 0.15546 0.23498 0.71958 0.0
C449 C 0.21284 0.29185 0.68868 0.0
C450 C 0.16294 0.18856 0.68111 0.0
C451 C 0.19538 0.28356 0.65555 0.0
C452 C 0.19139 0.29357 0.64644 0.0
C453 C 0.22126 0.32509 0.64254 0.0
C454 C 0.21976 0.33348 0.6337 0.0
C455 C 0.1883 0.31041 0.62853 0.0
C456 C 0.15797 0.27927 0.63253 0.0
C457 C 0.15947 0.27096 0.64139 0.0
C458 C 0.08371 0.20424 0.67327 0.0
C459 C 0.11583 0.29629 0.6801 0.0
O460 O 0.1065 0.19464 0.70125 0.0
O461 O 0.12046 0.25132 0.70502 0.0
O462 O 0.18687 0.27434 0.68332 0.0
O463 O 0.1985 0.28301 0.69649 0.0
O464 O 0.14576 0.19259 0.68801 0.0
O465 O 0.17474 0.21191 0.67432 0.0
O466 O 0.19495 0.30471 0.66192 0.0
O467 O 0.1782 0.24792 0.65754 0.0
O468 O 0.10888 0.22197 0.67887 0.0
O469 O 0.09812 0.2145 0.66546 0.0
O470 O 0.13701 0.29675 0.67346 0.0
O471 O 0.10947 0.27549 0.68726 0.0
H472 H 0.06684 0.16081 0.71894 0.0
H473 H 0.08544 0.14937 0.73332 0.0
H474 H 0.19426 0.24742 0.73014 0.0
H475 H 0.1753 0.25882 0.71576 0.0
H476 H 0.24626 0.3428 0.64629 0.0
H477 H 0.24384 0.35739 0.63086 0.0
H478 H 0.13308 0.26118 0.6288 0.0
H479 H 0.13595 0.24652 0.64425 0.0
Sm480 Sm 0.78234 0.58742 0.50453 0.0
Sm481 Sm 0.78918 0.58028 0.52399 0.0
C482 C 0.77845 0.60966 0.48839 0.0
C483 C 0.79545 0.62093 0.47951 0.0
C484 C 0.8197 0.65865 0.4774 0.0
C485 C 0.8311 0.66946 0.4687 0.0
C486 C 0.8183 0.64286 0.46189 0.0
C487 C 0.7949 0.60505 0.46408 0.0
C488 C 0.7836 0.59428 0.47275 0.0
C489 C 0.79799 0.53179 0.5086 0.0
C490 C 0.86594 0.6341 0.51362 0.0
C491 C 0.78847 0.56095 0.54067 0.0
C492 C 0.76727 0.55333 0.549 0.0
C493 C 0.75541 0.51926 0.55333 0.0
C494 C 0.73781 0.51226 0.56152 0.0
C495 C 0.73175 0.53928 0.56562 0.0
C496 C 0.74318 0.57325 0.56122 0.0
C497 C 0.76069 0.5802 0.55299 0.0
C498 C 0.7691 0.63285 0.51925 0.0
C499 C 0.70943 0.52393 0.51446 0.0
O500 O 0.79313 0.63282 0.49499 0.0
O501 O 0.76464 0.57474 0.49067 0.0
O502 O 0.81192 0.56289 0.51251 0.0
O503 O 0.7785 0.53115 0.50188 0.0
O504 O 0.84424 0.63324 0.50712 0.0
O505 O 0.85154 0.61162 0.52044 0.0
O506 O 0.77328 0.53665 0.53433 0.0
O507 O 0.80668 0.59541 0.53786 0.0
O508 O 0.7567 0.60099 0.51594 0.0
O509 O 0.79172 0.63735 0.52561 0.0
O510 O 0.73213 0.52828 0.521 0.0
O511 O 0.72053 0.54801 0.50791 0.0
H512 H 0.82904 0.67998 0.48242 0.0
H513 H 0.84952 0.69877 0.4673 0.0
H514 H 0.78388 0.58376 0.45904 0.0
H515 H 0.76434 0.56506 0.4741 0.0
H516 H 0.76045 0.49823 0.55044 0.0
H517 H 0.7299 0.48601 0.56475 0.0
H518 H 0.73856 0.59451 0.56412 0.0
H519 H 0.76947 0.60676 0.54983 0.0
Sm520 Sm 0.43299 0.19689 0.50444 0.0
Sm521 Sm 0.4407 0.21244 0.52392 0.0
C522 C 0.4088 0.16826 0.48858 0.0
C523 C 0.39413 0.1711 0.47992 0.0
C524 C 0.36361 0.13919 0.47632 0.0
C525 C 0.35266 0.13904 0.46762 0.0
C526 C 0.37209 0.17085 0.46228 0.0
C527 C 0.40177 0.20332 0.46601 0.0
C528 C 0.41268 0.20346 0.47473 0.0
C529 C 0.4892 0.26793 0.50823 0.0
C530 C 0.38767 0.23604 0.51332 0.0
C531 C 0.46037 0.23196 0.54055 0.0
C532 C 0.46815 0.21887 0.54892 0.0
C533 C 0.50006 0.24327 0.55374 0.0
C534 C 0.50699 0.23283 0.56195 0.0
C535 C 0.48206 0.19768 0.56558 0.0
C536 C 0.45029 0.17301 0.56068 0.0
C537 C 0.44343 0.18345 0.55243 0.0
C538 C 0.38807 0.13963 0.51939 0.0
C539 C 0.4977 0.18943 0.5144 0.0
O540 O 0.38681 0.15843 0.49545 0.0
O541 O 0.44364 0.19239 0.4904 0.0
O542 O 0.45816 0.25143 0.51222 0.0
O543 O 0.48942 0.24856 0.50157 0.0
O544 O 0.38872 0.21528 0.50682 0.0
O545 O 0.40939 0.24345 0.52026 0.0
O546 O 0.48457 0.24072 0.53418 0.0
O547 O 0.42582 0.2154 0.53778 0.0
O548 O 0.41995 0.1589 0.51606 0.0
O549 O 0.38353 0.15809 0.52565 0.0
O550 O 0.49274 0.20729 0.52096 0.0
O551 O 0.4739 0.17631 0.50779 0.0
H552 H 0.34912 0.11375 0.48015 0.0
H553 H 0.32998 0.11339 0.46498 0.0
H554 H 0.41701 0.22852 0.46215 0.0
H555 H 0.43635 0.22853 0.47731 0.0
H556 H 0.51938 0.27082 0.55121 0.0
H557 H 0.53144 0.2528 0.56556 0.0
H558 H 0.43074 0.14555 0.5632 0.0
H559 H 0.4186 0.16397 0.54885 0.0
Sm560 Sm 0.82582 0.23995 0.50423 0.0
Sm561 Sm 0.80557 0.23302 0.52494 0.0
C562 C 0.85682 0.24336 0.48874 0.0
C563 C 0.85051 0.22743 0.47976 0.0
C564 C 0.87481 0.21599 0.47639 0.0
C565 C 0.87284 0.20573 0.46756 0.0
C566 C 0.84665 0.20695 0.46187 0.0
C567 C 0.82144 0.21716 0.46534 0.0
C568 C 0.8233 0.22724 0.47418 0.0
C569 C 0.75548 0.22787 0.50794 0.0
C570 C 0.78495 0.1561 0.51375 0.0
C571 C 0.77561 0.2284 0.54059 0.0
C572 C 0.78642 0.24657 0.54931 0.0
C573 C 0.76099 0.25293 0.55403 0.0
C574 C 0.77004 0.26918 0.56238 0.0
C575 C 0.80481 0.2794 0.56625 0.0
C576 C 0.83048 0.27339 0.56144 0.0
C577 C 0.82142 0.25721 0.55306 0.0
C578 C 0.88208 0.26067 0.52226 0.0
C579 C 0.83484 0.3124 0.51465 0.0
O580 O 0.8583 0.22368 0.49531 0.0
O581 O 0.84084 0.26282 0.49079 0.0
O582 O 0.77219 0.21441 0.51224 0.0
O583 O 0.77401 0.24416 0.50085 0.0
O584 O 0.80197 0.17659 0.50671 0.0
O585 O 0.7813 0.17092 0.52116 0.0
O586 O 0.77352 0.24832 0.53415 0.0
O587 O 0.79005 0.20778 0.5382 0.0
O588 O 0.85666 0.25154 0.51672 0.0
O589 O 0.86681 0.25449 0.52996 0.0
O590 O 0.81273 0.28971 0.52084 0.0
O591 O 0.84997 0.30122 0.50855 0.0
H592 H 0.89628 0.21625 0.48051 0.0
H593 H 0.89294 0.1984 0.46511 0.0
H594 H 0.80054 0.21786 0.46119 0.0
H595 H 0.80411 0.23589 0.47657 0.0
H596 H 0.73393 0.24518 0.55125 0.0
H597 H 0.74979 0.27397 0.56577 0.0
H598 H 0.85736 0.2805 0.56421 0.0
H599 H 0.84166 0.25276 0.54955 0.0
Sm600 Sm 0.92432 0.44101 0.68851 0.0
Sm601 Sm 0.91211 0.44699 0.66769 0.0
C602 C 0.95094 0.43786 0.70415 0.0
C603 C 0.95976 0.45361 0.71315 0.0
C604 C 0.99617 0.46811 0.71643 0.0
C605 C 1.00405 0.47818 0.72528 0.0
C606 C 0.97558 0.47367 0.73108 0.0
C607 C 0.9394 0.46041 0.72771 0.0
C608 C 0.93157 0.45053 0.71886 0.0
C609 C 0.86652 0.45333 0.68444 0.0
C610 C 0.96839 0.52426 0.67876 0.0
C611 C 0.88752 0.45088 0.65189 0.0
C612 C 0.88015 0.43197 0.64326 0.0
C613 C 0.84809 0.42477 0.63855 0.0
C614 C 0.84067 0.40743 0.63032 0.0
C615 C 0.86524 0.39694 0.62658 0.0
C616 C 0.89736 0.40409 0.63135 0.0
C617 C 0.90467 0.42129 0.63961 0.0
C618 C 0.96053 0.41915 0.67081 0.0
C619 C 0.86144 0.3682 0.67814 0.0
O620 O 0.97249 0.45778 0.69765 0.0
O621 O 0.91568 0.41807 0.70195 0.0
O622 O 0.89687 0.46635 0.68021 0.0
O623 O 0.86834 0.43744 0.69163 0.0
O624 O 0.96449 0.50409 0.68588 0.0
O625 O 0.95012 0.50917 0.67135 0.0
O626 O 0.86518 0.43165 0.65836 0.0
O627 O 0.92256 0.47131 0.65431 0.0
O628 O 0.94396 0.42864 0.67619 0.0
O629 O 0.952 0.42503 0.66302 0.0
O630 O 0.86229 0.3906 0.67184 0.0
O631 O 0.88753 0.37963 0.68429 0.0
H632 H 0.01833 0.47038 0.71221 0.0
H633 H 0.03214 0.48795 0.72765 0.0
H634 H 0.91692 0.45711 0.73196 0.0
H635 H 0.90317 0.43944 0.71656 0.0
H636 H 0.82882 0.4328 0.64122 0.0
H637 H 0.81594 0.40283 0.62681 0.0
H638 H 0.91666 0.39599 0.62874 0.0
H639 H 0.92949 0.42624 0.64314 0.0
Sm640 Sm 0.57462 0.48469 0.68803 0.0
Sm641 Sm 0.5677 0.46926 0.66854 0.0
C642 C 0.57863 0.51316 0.70389 0.0
C643 C 0.56121 0.51002 0.71259 0.0
C644 C 0.56354 0.54204 0.71637 0.0
C645 C 0.55294 0.54178 0.72511 0.0
C646 C 0.53985 0.50945 0.7303 0.0
C647 C 0.53605 0.47689 0.72637 0.0
C648 C 0.54663 0.47716 0.71761 0.0
C649 C 0.55953 0.41352 0.68424 0.0
C650 C 0.49058 0.44593 0.67895 0.0
C651 C 0.56816 0.44918 0.65198 0.0
C652 C 0.58872 0.46166 0.64357 0.0
C653 C 0.59486 0.43643 0.63871 0.0
C654 C 0.61127 0.44603 0.63038 0.0
C655 C 0.62186 0.48114 0.62668 0.0
C656 C 0.61665 0.50685 0.63168 0.0
C657 C 0.60021 0.4972 0.64003 0.0
C658 C 0.58787 0.54218 0.673 0.0
C659 C 0.64719 0.492 0.67828 0.0
O660 O 0.56598 0.52254 0.69704 0.0
O661 O 0.58993 0.4895 0.70206 0.0
O662 O 0.54543 0.4303 0.68022 0.0
O663 O 0.57874 0.43263 0.69097 0.0
O664 O 0.51214 0.46666 0.68548 0.0
O665 O 0.50519 0.43844 0.67207 0.0
O666 O 0.58382 0.44096 0.65839 0.0
O667 O 0.55007 0.46577 0.65466 0.0
O668 O 0.60019 0.52284 0.67644 0.0
O669 O 0.56536 0.52377 0.66666 0.0
O670 O 0.62464 0.4741 0.67168 0.0
O671 O 0.63625 0.50528 0.68481 0.0
H672 H 0.57509 0.56783 0.71267 0.0
H673 H 0.55669 0.5675 0.72791 0.0
H674 H 0.52551 0.4513 0.73011 0.0
H675 H 0.54452 0.45201 0.71487 0.0
H676 H 0.5863 0.40889 0.64129 0.0
H677 H 0.61549 0.42577 0.62682 0.0
H678 H 0.6242 0.53403 0.62904 0.0
H679 H 0.59581 0.51725 0.64364 0.0
Sm680 Sm 0.53355 0.0936 0.68827 0.0
Sm681 Sm 0.5487 0.10213 0.66879 0.0
C682 C 0.50672 0.06981 0.70429 0.0
C683 C 0.513 0.05844 0.71307 0.0
C684 C 0.48765 0.02278 0.71632 0.0
C685 C 0.48939 0.01347 0.72509 0.0
C686 C 0.51635 0.03978 0.73083 0.0
C687 C 0.54265 0.07498 0.72747 0.0
C688 C 0.54103 0.08421 0.7187 0.0
C689 C 0.60493 0.14958 0.68442 0.0
C690 C 0.57163 0.04811 0.67911 0.0
C691 C 0.56846 0.12264 0.65221 0.0
C692 C 0.55586 0.1307 0.64379 0.0
C693 C 0.57919 0.16447 0.63946 0.0
C694 C 0.56993 0.17155 0.63113 0.0
C695 C 0.53711 0.1449 0.62686 0.0
C696 C 0.51317 0.11145 0.63132 0.0
C697 C 0.52245 0.10439 0.63969 0.0
C698 C 0.47605 0.04873 0.6733 0.0
C699 C 0.52433 0.1575 0.67852 0.0
O700 O 0.49918 0.04711 0.69763 0.0
O701 O 0.52692 0.10499 0.70212 0.0
O702 O 0.58792 0.11875 0.68041 0.0
O703 O 0.58593 0.14973 0.69116 0.0
O704 O 0.55021 0.0483 0.68556 0.0
O705 O 0.57997 0.07102 0.67237 0.0
O706 O 0.5768 0.14651 0.65863 0.0
O707 O 0.5521 0.088 0.6549 0.0
O708 O 0.49504 0.08041 0.67673 0.0
O709 O 0.49462 0.04494 0.66693 0.0
O710 O 0.54303 0.15368 0.67197 0.0
O711 O 0.51108 0.13298 0.68498 0.0
H712 H 0.46548 1.00253 0.71218 0.0
H713 H 0.46849 0.98622 0.72746 0.0
H714 H 0.56413 0.09572 0.73167 0.0
H715 H 0.56101 0.112 0.71644 0.0
H716 H 0.6051 0.1852 0.64247 0.0
H717 H 0.58872 0.19791 0.62799 0.0
H718 H 0.48782 0.09015 0.62824 0.0
H719 H 0.50388 0.07802 0.64285 0.0
Sm720 Sm 0.57069 0.10796 0.16803 0.0
Sm721 Sm 0.57739 0.09365 0.18872 0.0
C722 C 0.56653 0.13373 0.1524 0.0
C723 C 0.58526 0.14131 0.14374 0.0
C724 C 0.59235 0.17345 0.13907 0.0
C725 C 0.60968 0.18114 0.13083 0.0
C726 C 0.62028 0.15677 0.12703 0.0
C727 C 0.61317 0.12455 0.13174 0.0
C728 C 0.59598 0.11697 0.14001 0.0
C729 C 0.59881 0.05941 0.1706 0.0
C730 C 0.64965 0.15866 0.17847 0.0
C731 C 0.58099 0.06518 0.20407 0.0
C732 C 0.56418 0.05357 0.21291 0.0
C733 C 0.56212 0.02183 0.21678 0.0
C734 C 0.55104 0.0128 0.22554 0.0
C735 C 0.54184 0.03542 0.23066 0.0
C736 C 0.54269 0.06656 0.22666 0.0
C737 C 0.55372 0.07553 0.21787 0.0
C738 C 0.56496 0.15172 0.18519 0.0
C739 C 0.4935 0.0511 0.17912 0.0
O740 O 0.58614 0.15555 0.1589 0.0
O741 O 0.54578 0.09864 0.15474 0.0
O742 O 0.58956 0.07555 0.17615 0.0
O743 O 0.59261 0.0686 0.16292 0.0
O744 O 0.62674 0.15787 0.17231 0.0
O745 O 0.63881 0.13204 0.18449 0.0
O746 O 0.56284 0.04435 0.19732 0.0
O747 O 0.5986 0.10095 0.20231 0.0
O748 O 0.55172 0.12174 0.18082 0.0
O749 O 0.58128 0.14934 0.19226 0.0
O750 O 0.51384 0.05435 0.18618 0.0
O751 O 0.50854 0.06984 0.17175 0.0
H752 H 0.58429 0.1926 0.1418 0.0
H753 H 0.61423 0.20595 0.12737 0.0
H754 H 0.62134 0.1054 0.12908 0.0
H755 H 0.59111 0.09209 0.14349 0.0
H756 H 0.57037 1.00467 0.21311 0.0
H757 H 0.55118 0.98889 0.2284 0.0
H758 H 0.53526 0.08429 0.23034 0.0
H759 H 0.55501 0.10018 0.21505 0.0
Sm760 Sm 0.91194 0.46545 0.1671 0.0
Sm761 Sm 0.92868 0.48548 0.18857 0.0
C762 C 0.88673 0.43606 0.15144 0.0
C763 C 0.88182 0.44741 0.14256 0.0
C764 C 0.8499 0.42337 0.13771 0.0
C765 C 0.84462 0.43304 0.12925 0.0
C766 C 0.87126 0.46704 0.12541 0.0
C767 C 0.90313 0.49132 0.13034 0.0
C768 C 0.90834 0.48163 0.13883 0.0
C769 C 0.96312 0.54099 0.17043 0.0
C770 C 0.85993 0.4902 0.17847 0.0
C771 C 0.95757 0.52281 0.20329 0.0
C772 C 0.96869 0.52036 0.21237 0.0
C773 C 0.99959 0.55163 0.21603 0.0
C774 C 1.00838 0.5521 0.22491 0.0
C775 C 0.98638 0.52125 0.23035 0.0
C776 C 0.95628 0.48925 0.22657 0.0
C777 C 0.94745 0.48884 0.21767 0.0
C778 C 0.87608 0.41121 0.18565 0.0
C779 C 0.96592 0.4415 0.17837 0.0
O780 O 0.86511 0.43693 0.15764 0.0
O781 O 0.92106 0.44749 0.15407 0.0
O782 O 0.9462 0.51454 0.17571 0.0
O783 O 0.9534 0.52722 0.16259 0.0
O784 O 0.86286 0.47267 0.1715 0.0
O785 O 0.88447 0.50235 0.18503 0.0
O786 O 0.97823 0.52203 0.19684 0.0
O787 O 0.92169 0.5052 0.20153 0.0
O788 O 0.89336 0.4367 0.1801 0.0
O789 O 0.88734 0.42505 0.19348 0.0
O790 O 0.96913 0.46385 0.185 0.0
O791 O 0.94356 0.43522 0.17153 0.0
H792 H 0.82895 0.39696 0.14048 0.0
H793 H 0.81939 0.41393 0.12576 0.0
H794 H 0.92441 0.51756 0.12759 0.0
H795 H 0.93316 0.50078 0.14246 0.0
H796 H 0.01638 0.57623 0.21207 0.0
H797 H 0.03214 0.57693 0.22754 0.0
H798 H 0.93865 0.46509 0.23057 0.0
H799 H 0.92343 0.46434 0.21499 0.0
Sm800 Sm 0.55364 0.4499 0.16745 0.0
Sm801 Sm 0.53437 0.44517 0.18903 0.0
C802 C 0.58224 0.45448 0.15164 0.0
C803 C 0.57049 0.43679 0.14289 0.0
C804 C 0.59505 0.42974 0.13799 0.0
C805 C 0.5848 0.41305 0.1297 0.0
C806 C 0.54966 0.40302 0.12608 0.0
C807 C 0.52506 0.4102 0.13101 0.0
C808 C 0.53531 0.42678 0.13934 0.0
C809 C 0.47805 0.42361 0.17107 0.0
C810 C 0.52964 0.37262 0.17855 0.0
C811 C 0.49813 0.43632 0.20398 0.0
C812 C 0.50223 0.45078 0.21304 0.0
C813 C 0.47284 0.45375 0.2168 0.0
C814 C 0.47434 0.46412 0.22559 0.0
C815 C 0.50531 0.47167 0.23087 0.0
C816 C 0.53517 0.4695 0.22702 0.0
C817 C 0.53369 0.45922 0.21819 0.0
C818 C 0.60885 0.46829 0.18586 0.0
C819 C 0.5745 0.5268 0.17884 0.0
O820 O 0.58391 0.43373 0.15794 0.0
O821 O 0.56897 0.47588 0.15425 0.0
O822 O 0.50479 0.43338 0.17626 0.0
O823 O 0.49145 0.42829 0.16318 0.0
O824 O 0.54638 0.39327 0.17155 0.0
O825 O 0.5181 0.38462 0.18531 0.0
O826 O 0.49776 0.45725 0.19755 0.0
O827 O 0.51573 0.41822 0.20202 0.0
O828 O 0.58322 0.46031 0.18036 0.0
O829 O 0.59507 0.46482 0.19373 0.0
O830 O 0.5541 0.50681 0.18564 0.0
O831 O 0.58074 0.5117 0.17179 0.0
H832 H 0.62235 0.43727 0.14058 0.0
H833 H 0.60469 0.40847 0.12607 0.0
H834 H 0.49764 0.40248 0.12849 0.0
H835 H 0.51569 0.43165 0.14301 0.0
H836 H 0.44818 0.44712 0.21297 0.0
H837 H 0.45061 0.46501 0.22833 0.0
H838 H 0.55968 0.47562 0.23083 0.0
H839 H 0.55684 0.45727 0.21545 0.0
Sm840 Sm 0.43834 0.23022 0.02394 0.0
Sm841 Sm 0.42989 0.23763 1.00449 0.0
C842 C 0.45953 0.23131 0.04049 0.0
C843 C 0.46896 0.25303 0.04877 0.0
C844 C 0.50265 0.2625 0.05303 0.0
C845 C 0.51107 0.2802 0.06122 0.0
C846 C 0.48588 0.28877 0.06541 0.0
C847 C 0.45249 0.28009 0.06102 0.0
C848 C 0.4441 0.26239 0.0528 0.0
C849 C 0.385 0.24969 0.01961 0.0
C850 C 0.49363 0.31044 0.0143 0.0
C851 C 0.40592 0.24129 0.98853 0.0
C852 C 0.39235 0.22374 0.97978 0.0
C853 C 0.35434 0.20756 0.97759 0.0
C854 C 0.34224 0.19653 0.96895 0.0
C855 C 0.36788 0.2017 0.96225 0.0
C856 C 0.40573 0.21667 0.96452 0.0
C857 C 0.41779 0.22759 0.97316 0.0
C858 C 0.48623 0.22262 1.00828 0.0
C859 C 0.38451 0.15355 0.01345 0.0
O860 O 0.4831 0.24543 0.03396 0.0
O861 O 0.42467 0.21396 0.03793 0.0
O862 O 0.41664 0.26241 0.01612 0.0
O863 O 0.38118 0.22707 0.02591 0.0
O864 O 0.4897 0.28777 0.02082 0.0
O865 O 0.46925 0.2993 1.00782 0.0
O866 O 0.38366 0.22815 0.99534 0.0
O867 O 0.44099 0.25371 0.99049 0.0
O868 O 0.45515 0.20819 1.01222 0.0
O869 O 0.48658 0.24248 1.00166 0.0
O870 O 0.38525 0.17543 1.00701 0.0
O871 O 0.40664 0.16777 0.02034 0.0
H872 H 0.52231 0.2556 0.05008 0.0
H873 H 0.53737 0.28704 0.06429 0.0
H874 H 0.43224 0.28593 0.06405 0.0
H875 H 0.41783 0.25541 0.0497 0.0
H876 H 0.33406 0.20457 0.9825 0.0
H877 H 0.3128 0.18458 0.9675 0.0
H878 H 0.42645 0.2216 0.95956 0.0
H879 H 0.44738 0.24046 0.97455 0.0
Sm880 Sm 0.78372 0.21306 0.02522 0.0
Sm881 Sm 0.7763 0.19254 1.00448 0.0
C882 C 0.7883 0.24295 0.04087 0.0
C883 C 0.76994 0.232 0.04958 0.0
C884 C 0.7631 0.25716 0.05427 0.0
C885 C 0.74655 0.24791 0.0626 0.0
C886 C 0.73649 0.2132 0.06648 0.0
C887 C 0.74303 0.18782 0.0617 0.0
C888 C 0.7595 0.19709 0.05334 0.0
C889 C 0.75641 0.1367 0.02253 0.0
C890 C 0.70403 0.18346 0.01503 0.0
C891 C 0.77233 0.16168 0.98893 0.0
C892 C 0.78769 0.1679 0.97986 0.0
C893 C 0.81492 0.15847 0.97756 0.0
C894 C 0.82574 0.15977 0.96878 0.0
C895 C 0.80941 0.17025 0.96206 0.0
C896 C 0.78285 0.18053 0.96441 0.0
C897 C 0.77209 0.17929 0.97317 0.0
C898 C 0.78856 0.26294 1.00821 0.0
C899 C 0.86031 0.23321 0.01393 0.0
O900 O 0.7685 0.24518 0.03442 0.0
O901 O 0.80894 0.22852 0.03848 0.0
O902 O 0.76509 0.16208 0.01701 0.0
O903 O 0.76278 0.15189 0.03024 0.0
O904 O 0.72683 0.20559 0.0212 0.0
O905 O 0.71509 0.16835 1.0089 0.0
O906 O 0.79231 0.16031 0.99545 0.0
O907 O 0.75277 0.17744 0.99109 0.0
O908 O 0.80205 0.24613 1.01246 0.0
O909 O 0.77208 0.24439 1.00115 0.0
O910 O 0.83965 0.216 1.00693 0.0
O911 O 0.8457 0.23725 0.02133 0.0
H912 H 0.77069 0.28416 0.05148 0.0
H913 H 0.74137 0.26794 0.06596 0.0
H914 H 0.73608 0.16101 0.06447 0.0
H915 H 0.76431 0.17704 0.04986 0.0
H916 H 0.82721 0.14916 0.98252 0.0
H917 H 0.84663 0.1521 0.96726 0.0
H918 H 0.76913 0.18815 0.95945 0.0
H919 H 0.75056 0.18612 0.97465 0.0
Sm920 Sm 0.80596 0.57782 0.0239 0.0
Sm921 Sm 0.82134 0.58615 1.00442 0.0
C922 C 0.78601 0.55704 0.04045 0.0
C923 C 0.79896 0.54795 0.04866 0.0
C924 C 0.7742 0.51575 0.05335 0.0
C925 C 0.7847 0.50745 0.06139 0.0
C926 C 0.82026 0.53129 0.06497 0.0
C927 C 0.84526 0.56336 0.0602 0.0
C928 C 0.83477 0.57157 0.05212 0.0
C929 C 0.87882 0.6305 0.01946 0.0
C930 C 0.82909 0.52128 0.01423 0.0
C931 C 0.84928 0.61023 0.98849 0.0
C932 C 0.84567 0.62461 0.97986 0.0
C933 C 0.87714 0.65532 0.97617 0.0
C934 C 0.87656 0.66608 0.96748 0.0
C935 C 0.84445 0.64623 0.96226 0.0
C936 C 0.81241 0.61634 0.96609 0.0
C937 C 0.813 0.60564 0.97479 0.0
C938 C 0.75007 0.53027 1.00832 0.0
C939 C 0.78324 0.63195 0.01352 0.0
O940 O 0.77651 0.53333 0.03396 0.0
O941 O 0.80339 0.59182 0.03785 0.0
O942 O 0.85959 0.59892 0.01597 0.0
O943 O 0.86031 0.63458 0.02579 0.0
O944 O 0.81133 0.5261 0.02084 0.0
O945 O 0.84198 0.54511 1.00762 0.0
O946 O 0.85922 0.6323 0.99534 0.0
O947 O 0.82552 0.57538 0.99037 0.0
O948 O 0.76697 0.56132 1.01224 0.0
O949 O 0.76912 0.52985 1.0016 0.0
O950 O 0.80413 0.6312 1.00701 0.0
O951 O 0.7753 0.60953 0.02035 0.0
H952 H 0.74637 0.49724 0.05085 0.0
H953 H 0.76452 0.4828 0.06492 0.0
H954 H 0.87301 0.58209 0.0627 0.0
H955 H 0.85454 0.59656 0.04864 0.0
H956 H 0.90281 0.67014 0.9799 0.0
H957 H 0.9019 0.68893 0.96476 0.0
H958 H 0.787 0.60078 0.96231 0.0
H959 H 0.78825 0.58181 0.97745 0.0
Sm960 Sm 0.44591 0.91705 0.83759 0.0
Sm961 Sm 0.45386 0.91091 0.85715 0.0
C962 C 0.44152 0.93868 0.82142 0.0
C963 C 0.45843 0.94956 0.81254 0.0
C964 C 0.48569 0.98655 0.81055 0.0
C965 C 0.49755 0.9972 0.80186 0.0
C966 C 0.48227 0.97117 0.79495 0.0
C967 C 0.45568 0.93401 0.79702 0.0
C968 C 0.44391 0.92341 0.80567 0.0
C969 C 0.46069 0.86109 0.84182 0.0
C970 C 0.53025 0.96351 0.84642 0.0
C971 C 0.4533 0.89164 0.87384 0.0
C972 C 0.43151 0.88216 0.88214 0.0
C973 C 0.41784 0.84654 0.88583 0.0
C974 C 0.40035 0.83788 0.89405 0.0
C975 C 0.39626 0.8647 0.89886 0.0
C976 C 0.40914 0.90013 0.89506 0.0
C977 C 0.42662 0.90879 0.88681 0.0
C978 C 0.4342 0.96355 0.85224 0.0
C979 C 0.37324 0.85499 0.84782 0.0
O980 O 0.45637 0.96207 0.82798 0.0
O981 O 0.42773 0.90381 0.82376 0.0
O982 O 0.4753 0.89249 0.8456 0.0
O983 O 0.44093 0.86024 0.83513 0.0
O984 O 0.50825 0.96192 0.83991 0.0
O985 O 0.5162 0.9423 0.85345 0.0
O986 O 0.43997 0.86746 0.86742 0.0
O987 O 0.46969 0.92623 0.8711 0.0
O988 O 0.42143 0.93143 0.84906 0.0
O989 O 0.45699 0.96834 0.85858 0.0
O990 O 0.39609 0.85944 0.85434 0.0
O991 O 0.38427 0.87868 0.84119 0.0
H992 H 0.4972 0.00752 0.81565 0.0
H993 H 0.51839 0.02596 0.80055 0.0
H994 H 0.44271 0.91327 0.7919 0.0
H995 H 0.42234 0.89486 0.80693 0.0
H996 H 0.42134 0.8255 0.88242 0.0
H997 H 0.39023 0.8101 0.89667 0.0
H998 H 0.40684 0.92165 0.89857 0.0
H999 H 0.43702 0.9366 0.88419 0.0
Sm1000 Sm 0.0979 0.5277 0.83779 0.0
Sm1001 Sm 0.10554 0.54339 0.85717 0.0
C1002 C 0.07483 0.50032 0.82178 0.0
C1003 C 0.06332 0.50607 0.81294 0.0
C1004 C 0.02544 0.49184 0.81085 0.0
C1005 C 0.01448 0.4927 0.80218 0.0
C1006 C 0.04109 0.50754 0.79538 0.0
C1007 C 0.07904 0.52268 0.79754 0.0
C1008 C 0.08997 0.52188 0.80618 0.0
C1009 C 0.15404 0.59888 0.84155 0.0
C1010 C 0.05256 0.56706 0.84654 0.0
C1011 C 0.12551 0.56331 0.87377 0.0
C1012 C 0.13281 0.55048 0.88224 0.0
C1013 C 0.16525 0.57453 0.88693 0.0
C1014 C 0.17161 0.56474 0.89528 0.0
C1015 C 0.14555 0.53061 0.89917 0.0
C1016 C 0.11347 0.50605 0.89434 0.0
C1017 C 0.10713 0.51589 0.88597 0.0
C1018 C 0.05264 0.47035 0.85277 0.0
C1019 C 0.16225 0.51993 0.84773 0.0
O1020 O 0.05197 0.49238 0.82844 0.0
O1021 O 0.10992 0.52127 0.82396 0.0
O1022 O 0.12299 0.58238 0.8455 0.0
O1023 O 0.15439 0.57944 0.83492 0.0
O1024 O 0.05341 0.5459 0.84011 0.0
O1025 O 0.07439 0.57464 0.85346 0.0
O1026 O 0.14958 0.57102 0.86742 0.0
O1027 O 0.091 0.54745 0.871 0.0
O1028 O 0.08445 0.48945 0.84938 0.0
O1029 O 0.04842 0.48907 0.85902 0.0
O1030 O 0.15805 0.53899 0.85413 0.0
O1031 O 0.13755 0.50573 0.84132 0.0
H1032 H 1.00412 0.47908 0.81586 0.0
H1033 H 0.98504 0.48121 0.8008 0.0
H1034 H 0.10036 0.53377 0.7925 0.0
H1035 H 0.11933 0.53249 0.8075 0.0
H1036 H 0.18548 0.60134 0.8842 0.0
H1037 H 0.19697 0.58407 0.8987 0.0
H1038 H 0.09265 0.47968 0.89714 0.0
H1039 H 0.08182 0.49675 0.8825 0.0
Sm1040 Sm 0.48973 0.5683 0.83722 0.0
Sm1041 Sm 0.47046 0.56253 0.85881 0.0
C1042 C 0.52544 0.57687 0.8222 0.0
C1043 C 0.52093 0.56282 0.81309 0.0
C1044 C 0.55009 0.5599 0.80918 0.0
C1045 C 0.54825 0.55007 0.80033 0.0
C1046 C 0.51717 0.54301 0.79515 0.0
C1047 C 0.48752 0.54508 0.79916 0.0
C1048 C 0.48934 0.55483 0.80804 0.0
C1049 C 0.41563 0.54691 0.8405 0.0
C1050 C 0.44716 0.48582 0.84703 0.0
C1051 C 0.44131 0.55765 0.87457 0.0
C1052 C 0.45263 0.57436 0.88341 0.0
C1053 C 0.42769 0.58056 0.88839 0.0
C1054 C 0.43733 0.59588 0.89682 0.0
C1055 C 0.47221 0.60534 0.90051 0.0
C1056 C 0.49737 0.59944 0.89544 0.0
C1057 C 0.4877 0.58416 0.88698 0.0
C1058 C 0.54584 0.58751 0.85526 0.0
C1059 C 0.49648 0.64094 0.84793 0.0
O1060 O 0.52531 0.55534 0.82856 0.0
O1061 O 0.50862 0.59561 0.82428 0.0
O1062 O 0.44122 0.55394 0.84594 0.0
O1063 O 0.42928 0.55064 0.8326 0.0
O1064 O 0.46731 0.506 0.84023 0.0
O1065 O 0.44234 0.50069 0.85431 0.0
O1066 O 0.44088 0.57938 0.86835 0.0
O1067 O 0.4539 0.53575 0.87191 0.0
O1068 O 0.51934 0.57838 0.85001 0.0
O1069 O 0.53222 0.5828 0.86314 0.0
O1070 O 0.47909 0.62001 0.85486 0.0
O1071 O 0.50795 0.62892 0.84118 0.0
H1072 H 0.57484 0.56619 0.81293 0.0
H1073 H 0.57182 0.54924 0.79747 0.0
H1074 H 0.46291 0.53932 0.79543 0.0
H1075 H 0.46636 0.55676 0.8109 0.0
H1076 H 0.4006 0.57347 0.88574 0.0
H1077 H 0.41747 0.60063 0.90041 0.0
H1078 H 0.52433 0.60603 0.89807 0.0
H1079 H 0.50755 0.57982 0.88326 0.0
Sm1080 Sm 0.58931 0.77539 0.02157 0.0
Sm1081 Sm 0.58144 0.7827 1.00208 0.0
C1082 C 0.6134 0.7711 0.03744 0.0
C1083 C 0.62869 0.78799 0.04612 0.0
C1084 C 0.6587 0.78521 0.04955 0.0
C1085 C 0.6697 0.79461 0.05829 0.0
C1086 C 0.65084 0.80696 0.06384 0.0
C1087 C 0.62205 0.81168 0.06027 0.0
C1088 C 0.61098 0.80215 0.0515 0.0
C1089 C 0.53314 0.79034 0.01771 0.0
C1090 C 0.63478 0.85953 1.01258 0.0
C1091 C 0.56107 0.78154 0.98547 0.0
C1092 C 0.55219 0.75942 0.97726 0.0
C1093 C 0.51892 0.74994 0.97279 0.0
C1094 C 0.51081 0.73124 0.96473 0.0
C1095 C 0.5359 0.72167 0.9609 0.0
C1096 C 0.56906 0.73077 0.96545 0.0
C1097 C 0.57709 0.74937 0.97354 0.0
C1098 C 0.63416 0.76264 1.00665 0.0
C1099 C 0.5251 0.70271 1.0117 0.0
O1100 O 0.63528 0.78241 0.03055 0.0
O1101 O 0.57878 0.76151 0.03568 0.0
O1102 O 0.56419 0.80469 0.01374 0.0
O1103 O 0.53274 0.77056 0.02436 0.0
O1104 O 0.63367 0.83783 0.01911 0.0
O1105 O 0.61311 0.84513 1.00563 0.0
O1106 O 0.53718 0.7675 0.99194 0.0
O1107 O 0.5958 0.79905 0.98812 0.0
O1108 O 0.60233 0.7502 1.01 0.0
O1109 O 0.63859 0.78538 1.00032 0.0
O1110 O 0.52981 0.7253 1.0051 0.0
O1111 O 0.54883 0.71378 0.01832 0.0
H1112 H 0.67271 0.7742 0.04556 0.0
H1113 H 0.69242 0.79127 0.06076 0.0
H1114 H 0.6068 0.82094 0.06435 0.0
H1115 H 0.58761 0.80446 0.04905 0.0
H1116 H 0.4994 0.75762 0.97547 0.0
H1117 H 0.48527 0.72519 0.96139 0.0
H1118 H 0.58881 0.72344 0.96276 0.0
H1119 H 0.60296 0.7562 0.97683 0.0
Sm1120 Sm 0.24227 0.81974 0.02164 0.0
Sm1121 Sm 0.23543 0.80001 1.00086 0.0
C1122 C 0.24664 0.85178 0.03702 0.0
C1123 C 0.23069 0.84915 0.04586 0.0
C1124 C 0.23192 0.88099 0.04943 0.0
C1125 C 0.2229 0.88174 0.05824 0.0
C1126 C 0.21245 0.85062 0.06371 0.0
C1127 C 0.20932 0.81799 0.06 0.0
C1128 C 0.2185 0.8173 0.05116 0.0
C1129 C 0.23049 0.74972 0.01784 0.0
C1130 C 0.15842 0.77886 1.01215 0.0
C1131 C 0.23054 0.77079 0.98512 0.0
C1132 C 0.24872 0.78245 0.97642 0.0
C1133 C 0.25139 0.7563 0.97107 0.0
C1134 C 0.26801 0.76648 0.96276 0.0
C1135 C 0.28234 0.80314 0.9596 0.0
C1136 C 0.27972 0.82937 0.96501 0.0
C1137 C 0.2632 0.81917 0.97334 0.0
C1138 C 0.26305 0.87628 1.00378 0.0
C1139 C 0.31476 0.82864 1.01115 0.0
O1140 O 0.22994 0.85624 0.0302 0.0
O1141 O 0.26176 0.83113 0.03539 0.0
O1142 O 0.21682 0.76632 0.01355 0.0
O1143 O 0.24701 0.76828 0.0249 0.0
O1144 O 0.17873 0.7954 0.01924 0.0
O1145 O 0.17342 0.77576 1.00471 0.0
O1146 O 0.25064 0.76848 0.99148 0.0
O1147 O 0.20991 0.78505 0.98763 0.0
O1148 O 0.25399 0.85043 1.00918 0.0
O1149 O 0.25684 0.86161 0.99602 0.0
O1150 O 0.29213 0.80705 1.0049 0.0
O1151 O 0.30359 0.84334 0.01737 0.0
H1152 H 0.24133 0.90591 0.04548 0.0
H1153 H 0.22497 0.9071 0.06084 0.0
H1154 H 0.20153 0.79359 0.06402 0.0
H1155 H 0.21741 0.79238 0.04857 0.0
H1156 H 0.24037 0.72781 0.97331 0.0
H1157 H 0.26906 0.74539 0.95876 0.0
H1158 H 0.29086 0.85795 0.96285 0.0
H1159 H 0.26172 0.83996 0.97737 0.0
Sm1160 Sm 0.19791 0.42592 0.0217 0.0
Sm1161 Sm 0.21291 0.43447 1.00218 0.0
C1162 C 0.16912 0.4014 0.03753 0.0
C1163 C 0.1693 0.38478 0.04614 0.0
C1164 C 0.13577 0.35489 0.04931 0.0
C1165 C 0.13288 0.3428 0.058 0.0
C1166 C 0.16348 0.3604 0.06376 0.0
C1167 C 0.1977 0.38905 0.06044 0.0
C1168 C 0.20056 0.40123 0.05173 0.0
C1169 C 0.2689 0.48218 0.01785 0.0
C1170 C 0.23644 0.38077 1.01249 0.0
C1171 C 0.23217 0.45456 0.98556 0.0
C1172 C 0.21899 0.46257 0.97723 0.0
C1173 C 0.24235 0.49595 0.97275 0.0
C1174 C 0.23203 0.50325 0.96457 0.0
C1175 C 0.19805 0.47725 0.96062 0.0
C1176 C 0.17439 0.44397 0.96517 0.0
C1177 C 0.1847 0.43673 0.97339 0.0
C1178 C 0.14003 0.38215 1.0068 0.0
C1179 C 0.19086 0.49155 1.01197 0.0
O1180 O 0.15758 0.38017 0.03054 0.0
O1181 O 0.1955 0.43561 0.0359 0.0
O1182 O 0.25226 0.45131 0.01381 0.0
O1183 O 0.24965 0.4822 0.02457 0.0
O1184 O 0.21563 0.38126 0.01905 0.0
O1185 O 0.24398 0.40317 1.00568 0.0
O1186 O 0.24102 0.47858 0.99196 0.0
O1187 O 0.21572 0.41996 0.98829 0.0
O1188 O 0.15968 0.4138 1.01018 0.0
O1189 O 0.15811 0.3777 1.00041 0.0
O1190 O 0.20807 0.48643 1.00528 0.0
O1191 O 0.17824 0.46788 0.01862 0.0
H1192 H 0.1112 0.34186 0.04517 0.0
H1193 H 0.10629 0.32023 0.06027 0.0
H1194 H 0.22179 0.40337 0.06469 0.0
H1195 H 0.22677 0.42449 0.0495 0.0
H1196 H 0.26907 0.51617 0.97553 0.0
H1197 H 0.25123 0.52892 0.96123 0.0
H1198 H 0.14783 0.42352 0.96239 0.0
H1199 H 0.16603 0.41073 0.97668 0.0
Sm1200 Sm 0.23646 0.43893 0.50092 0.0
Sm1201 Sm 0.24521 0.4268 0.52166 0.0
C1202 C 0.23083 0.46328 0.48524 0.0
C1203 C 0.24862 0.46958 0.47649 0.0
C1204 C 0.25205 0.49897 0.47124 0.0
C1205 C 0.2685 0.50533 0.46291 0.0
C1206 C 0.28188 0.48235 0.45962 0.0
C1207 C 0.27846 0.45291 0.46494 0.0
C1208 C 0.26212 0.44667 0.47329 0.0
C1209 C 0.26389 0.38995 0.50359 0.0
C1210 C 0.31685 0.48974 0.51089 0.0
C1211 C 0.24998 0.39938 0.53706 0.0
C1212 C 0.23368 0.38674 0.5459 0.0
C1213 C 0.2343 0.35616 0.5497 0.0
C1214 C 0.22397 0.34653 0.55848 0.0
C1215 C 0.21282 0.36735 0.5637 0.0
C1216 C 0.21092 0.39722 0.55977 0.0
C1217 C 0.22125 0.40683 0.55097 0.0
C1218 C 0.23392 0.48538 0.51784 0.0
C1219 C 0.16027 0.38438 0.51261 0.0
O1220 O 0.25135 0.48565 0.49156 0.0
O1221 O 0.21008 0.42848 0.48778 0.0
O1222 O 0.25552 0.40692 0.50911 0.0
O1223 O 0.25704 0.39842 0.49589 0.0
O1224 O 0.29374 0.4885 0.50473 0.0
O1225 O 0.30618 0.464 0.51712 0.0
O1226 O 0.23281 0.37813 0.53028 0.0
O1227 O 0.26566 0.4351 0.53534 0.0
O1228 O 0.21949 0.45473 0.51372 0.0
O1229 O 0.25108 0.48366 0.52483 0.0
O1230 O 0.18132 0.38872 0.5196 0.0
O1231 O 0.17459 0.40151 0.50503 0.0
H1232 H 0.24181 0.51698 0.47357 0.0
H1233 H 0.27018 0.52796 0.45899 0.0
H1234 H 0.28885 0.43495 0.46269 0.0
H1235 H 0.26006 0.42395 0.47724 0.0
H1236 H 0.24413 0.34048 0.54596 0.0
H1237 H 0.22627 0.32368 0.56127 0.0
H1238 H 0.20192 0.41354 0.56353 0.0
H1239 H 0.22047 0.43056 0.5482 0.0
Sm1240 Sm 0.58268 0.80346 0.50225 0.0
Sm1241 Sm 0.59064 0.81787 0.52173 0.0
C1242 C 0.56269 0.78465 0.48561 0.0
C1243 C 0.55531 0.79823 0.47725 0.0
C1244 C 0.5212 0.77616 0.47292 0.0
C1245 C 0.51442 0.78668 0.4647 0.0
C1246 C 0.54168 0.81954 0.46056 0.0
C1247 C 0.57569 0.84194 0.46497 0.0
C1248 C 0.58242 0.83145 0.47322 0.0
C1249 C 0.63501 0.8763 0.50686 0.0
C1250 C 0.52609 0.82622 0.51201 0.0
C1251 C 0.61415 0.84543 0.53769 0.0
C1252 C 0.62924 0.84363 0.54637 0.0
C1253 C 0.65825 0.8766 0.54998 0.0
C1254 C 0.66887 0.87775 0.55874 0.0
C1255 C 0.65065 0.8459 0.56411 0.0
C1256 C 0.6229 0.81229 0.56035 0.0
C1257 C 0.61218 0.81119 0.55157 0.0
C1258 C 0.53474 0.74676 0.51774 0.0
C1259 C 0.63682 0.78052 0.51254 0.0
O1260 O 0.53861 0.77624 0.49199 0.0
O1261 O 0.59722 0.80034 0.48838 0.0
O1262 O 0.60337 0.85665 0.51029 0.0
O1263 O 0.6394 0.85824 0.50048 0.0
O1264 O 0.53038 0.8078 0.50547 0.0
O1265 O 0.55043 0.8395 0.51851 0.0
O1266 O 0.63624 0.85643 0.53083 0.0
O1267 O 0.57966 0.8203 0.53585 0.0
O1268 O 0.56586 0.76368 0.51379 0.0
O1269 O 0.53414 0.76588 0.52442 0.0
O1270 O 0.63617 0.80139 0.51906 0.0
O1271 O 0.61421 0.77253 0.50576 0.0
H1272 H 0.49998 0.75025 0.47583 0.0
H1273 H 0.48812 0.76842 0.46148 0.0
H1274 H 0.59715 0.86766 0.46205 0.0
H1275 H 0.60903 0.84912 0.47639 0.0
H1276 H 0.67171 0.90201 0.54613 0.0
H1277 H 0.69079 0.90392 0.56137 0.0
H1278 H 0.60817 0.78729 0.5643 0.0
H1279 H 0.58958 0.78537 0.54897 0.0
Sm1280 Sm 0.21707 0.78311 0.50151 0.0
Sm1281 Sm 0.20081 0.77928 0.5222 0.0
C1282 C 0.23893 0.78178 0.48519 0.0
C1283 C 0.22607 0.76217 0.47667 0.0
C1284 C 0.24888 0.75143 0.47221 0.0
C1285 C 0.2391 0.73541 0.46386 0.0
C1286 C 0.20624 0.72984 0.45972 0.0
C1287 C 0.18285 0.73975 0.46431 0.0
C1288 C 0.19267 0.75578 0.4727 0.0
C1289 C 0.14528 0.76537 0.50632 0.0
C1290 C 0.19696 0.70614 0.51246 0.0
C1291 C 0.16611 0.77119 0.53736 0.0
C1292 C 0.17048 0.78659 0.54633 0.0
C1293 C 0.14026 0.78752 0.55026 0.0
C1294 C 0.14193 0.79788 0.55907 0.0
C1295 C 0.17387 0.80744 0.56417 0.0
C1296 C 0.2046 0.80757 0.56012 0.0
C1297 C 0.20294 0.7973 0.55129 0.0
C1298 C 0.27617 0.80596 0.51937 0.0
C1299 C 0.24054 0.86018 0.51209 0.0
O1300 O 0.24346 0.76362 0.49166 0.0
O1301 O 0.22542 0.80293 0.48772 0.0
O1302 O 0.16531 0.75459 0.51009 0.0
O1303 O 0.16203 0.78407 0.49932 0.0
O1304 O 0.2083 0.72507 0.50502 0.0
O1305 O 0.18935 0.71957 0.51958 0.0
O1306 O 0.1636 0.79037 0.53079 0.0
O1307 O 0.18513 0.75452 0.53545 0.0
O1308 O 0.25089 0.79684 0.51373 0.0
O1309 O 0.26169 0.80188 0.52715 0.0
O1310 O 0.21645 0.83965 0.51831 0.0
O1311 O 0.24988 0.84481 0.50567 0.0
H1312 H 0.27473 0.756 0.47514 0.0
H1313 H 0.25745 0.7275 0.46062 0.0
H1314 H 0.15748 0.73613 0.46133 0.0
H1315 H 0.17449 0.76377 0.47599 0.0
H1316 H 0.11483 0.7791 0.54659 0.0
H1317 H 0.11757 0.79702 0.56197 0.0
H1318 H 0.22985 0.8153 0.5638 0.0
H1319 H 0.22674 0.79694 0.54842 0.0
Sm1320 Sm 0.10439 0.56256 0.35728 0.0
Sm1321 Sm 0.09677 0.57017 0.33778 0.0
C1322 C 0.12434 0.56268 0.37387 0.0
C1323 C 0.13253 0.58382 0.38219 0.0
C1324 C 0.16435 0.59092 0.387 0.0
C1325 C 0.17173 0.6087 0.39516 0.0
C1326 C 0.14734 0.61976 0.39874 0.0
C1327 C 0.11565 0.61303 0.39386 0.0
C1328 C 0.10835 0.59532 0.38566 0.0
C1329 C 0.05203 0.58307 0.35272 0.0
C1330 C 0.16111 0.64268 0.34775 0.0
C1331 C 0.07286 0.57513 0.32195 0.0
C1332 C 0.05717 0.55866 0.31328 0.0
C1333 C 0.02904 0.56424 0.30972 0.0
C1334 C 0.01808 0.5552 0.30097 0.0
C1335 C 0.03506 0.54038 0.29555 0.0
C1336 C 0.06181 0.53285 0.29926 0.0
C1337 C 0.07288 0.54204 0.30803 0.0
C1338 C 0.15321 0.55581 0.3417 0.0
C1339 C 0.05156 0.48574 0.34666 0.0
O1340 O 0.14843 0.57778 0.36747 0.0
O1341 O 0.0897 0.54499 0.37115 0.0
O1342 O 0.08375 0.59524 0.34934 0.0
O1343 O 0.0475 0.56041 0.35907 0.0
O1344 O 0.15616 0.62002 0.35436 0.0
O1345 O 0.13755 0.63171 0.34109 0.0
O1346 O 0.05107 0.56424 0.32886 0.0
O1347 O 0.10726 0.58374 0.32366 0.0
O1348 O 0.12197 0.54099 0.3456 0.0
O1349 O 0.15363 0.57561 0.33505 0.0
O1350 O 0.05278 0.50742 0.34011 0.0
O1351 O 0.0729 0.50021 0.35365 0.0
H1352 H 0.18325 0.58208 0.3845 0.0
H1353 H 0.1961 0.61291 0.39877 0.0
H1354 H 0.09652 0.62157 0.39635 0.0
H1355 H 0.08361 0.59031 0.38208 0.0
H1356 H 0.01661 0.57715 0.31362 0.0
H1357 H 0.99694 0.56075 0.29838 0.0
H1358 H 0.07557 0.52161 0.29527 0.0
H1359 H 0.09477 0.53755 0.3106 0.0
Sm1360 Sm 0.45391 0.54474 0.35731 0.0
Sm1361 Sm 0.44601 0.52925 0.33783 0.0
C1362 C 0.45321 0.56452 0.3739 0.0
C1363 C 0.43152 0.55247 0.38221 0.0
C1364 C 0.41914 0.57527 0.38603 0.0
C1365 C 0.40165 0.56655 0.39425 0.0
C1366 C 0.39624 0.53484 0.39892 0.0
C1367 C 0.40784 0.51147 0.39499 0.0
C1368 C 0.42532 0.5202 0.38674 0.0
C1369 C 0.43414 0.47208 0.35278 0.0
C1370 C 0.37328 0.51979 0.34786 0.0
C1371 C 0.44189 0.50121 0.32191 0.0
C1372 C 0.45966 0.50434 0.31327 0.0
C1373 C 0.45843 0.47256 0.30965 0.0
C1374 C 0.46956 0.47271 0.30096 0.0
C1375 C 0.48209 0.50468 0.29567 0.0
C1376 C 0.48473 0.53702 0.29944 0.0
C1377 C 0.47364 0.53687 0.30814 0.0
C1378 C 0.46018 0.60006 0.34173 0.0
C1379 C 0.5305 0.56833 0.34665 0.0
O1380 O 0.43943 0.57453 0.36741 0.0
O1381 O 0.47008 0.54661 0.37128 0.0
O1382 O 0.42145 0.49121 0.34942 0.0
O1383 O 0.45704 0.49058 0.35907 0.0
O1384 O 0.39604 0.53811 0.3544 0.0
O1385 O 0.38436 0.50713 0.34124 0.0
O1386 O 0.45385 0.4911 0.32877 0.0
O1387 O 0.43118 0.52531 0.32378 0.0
O1388 O 0.47522 0.58382 0.3456 0.0
O1389 O 0.44026 0.58049 0.33513 0.0
O1390 O 0.50857 0.54757 0.34018 0.0
O1391 O 0.51632 0.57564 0.35364 0.0
H1392 H 0.42363 0.60037 0.38271 0.0
H1393 H 0.39252 0.58487 0.39696 0.0
H1394 H 0.4045 0.48701 0.3984 0.0
H1395 H 0.43465 0.50207 0.38401 0.0
H1396 H 0.44737 0.44701 0.31343 0.0
H1397 H 0.46669 0.44715 0.29829 0.0
H1398 H 0.4948 0.56233 0.29561 0.0
H1399 H 0.47491 0.56184 0.31075 0.0
Sm1400 Sm 0.47316 0.91309 0.35733 0.0
Sm1401 Sm 0.48793 0.9204 0.3378 0.0
C1402 C 0.45355 0.89326 0.37396 0.0
C1403 C 0.46591 0.88511 0.38239 0.0
C1404 C 0.44063 0.85363 0.38722 0.0
C1405 C 0.45003 0.84679 0.39556 0.0
C1406 C 0.48501 0.87137 0.39932 0.0
C1407 C 0.51078 0.9024 0.39436 0.0
C1408 C 0.50132 0.90923 0.38598 0.0
C1409 C 0.54601 0.96551 0.35267 0.0
C1410 C 0.49683 0.85666 0.34778 0.0
C1411 C 0.51538 0.94387 0.32181 0.0
C1412 C 0.51138 0.95761 0.31312 0.0
C1413 C 0.54261 0.98822 0.30932 0.0
C1414 C 0.54171 0.99831 0.3006 0.0
C1415 C 0.50951 0.97789 0.29542 0.0
C1416 C 0.47769 0.94813 0.29936 0.0
C1417 C 0.4786 0.93809 0.30811 0.0
C1418 C 0.41713 0.8641 0.34181 0.0
C1419 C 0.44946 0.96618 0.34676 0.0
O1420 O 0.44474 0.86913 0.36758 0.0
O1421 O 0.47051 0.92784 0.37122 0.0
O1422 O 0.52644 0.93378 0.3493 0.0
O1423 O 0.52792 0.96994 0.35906 0.0
O1424 O 0.47882 0.86135 0.35437 0.0
O1425 O 0.50962 0.88043 0.34117 0.0
O1426 O 0.52521 0.96629 0.32859 0.0
O1427 O 0.49199 0.90902 0.32379 0.0
O1428 O 0.4336 0.89531 0.34572 0.0
O1429 O 0.43638 0.86379 0.33513 0.0
O1430 O 0.47 0.96489 0.34023 0.0
O1431 O 0.44223 0.94465 0.35373 0.0
H1432 H 0.41317 0.8346 0.3846 0.0
H1433 H 0.42971 0.82223 0.39909 0.0
H1434 H 0.53786 0.92208 0.39704 0.0
H1435 H 0.52142 0.93378 0.38241 0.0
H1436 H 0.56835 1.00345 0.31301 0.0
H1437 H 0.56689 0.0211 0.29779 0.0
H1438 H 0.45222 0.93215 0.29564 0.0
H1439 H 0.45403 0.91432 0.31085 0.0
H1440 H 0.16336 0.17299 0.16193 0.0
H1441 H 0.14132 0.00913 0.19361 0.0
H1442 H 0.13361 0.16709 0.18923 0.0
H1443 H 0.18832 0.02737 0.16757 0.0
H1444 H 0.13962 0.06727 0.19239 0.0
H1445 H 0.17373 0.12035 0.16406 0.0
C1446 C 0.15925 0.16072 0.16841 0.0
C1447 C 0.14755 0.17439 0.17541 0.0
C1448 C 0.15063 0.05874 0.18697 0.0
C1449 C 0.15905 0.11362 0.1779 0.0
C1450 C 0.15164 0.02549 0.18766 0.0
C1451 C 0.16487 0.01311 0.18066 0.0
C1452 C 0.16261 0.07974 0.1792 0.0
C1453 C 0.17787 0.03565 0.17313 0.0
C1454 C 0.16522 0.13063 0.16962 0.0
C1455 C 0.1427 0.15743 0.18366 0.0
N1456 N 0.17611 0.0676 0.17258 0.0
N1457 N 0.14816 0.12771 0.18466 0.0
H1458 H 1.0071 0.13884 0.19476 0.0
H1459 H 0.87048 0.97992 0.16254 0.0
H1460 H 1.00154 0.1586 0.16715 0.0
H1461 H 0.8413 0.97801 0.18978 0.0
H1462 H 0.92133 0.044 0.16431 0.0
H1463 H 0.94891 0.07888 0.19339 0.0
C1464 C 0.99349 0.13075 0.18842 0.0
C1465 C 1.00935 0.15374 0.18104 0.0
C1466 C 0.90366 0.02978 0.1699 0.0
C1467 C 0.94313 0.08495 0.17943 0.0
C1468 C 0.87471 0.99311 0.16891 0.0
C1469 C 0.85168 0.97365 0.17604 0.0
C1470 C 0.91039 0.04703 0.17814 0.0
C1471 C 0.8584 0.99216 0.18412 0.0
C1472 C 0.96022 0.09659 0.18767 0.0
C1473 C 0.99036 0.14187 0.17301 0.0
N1474 N 0.88755 0.02776 0.18499 0.0
N1475 N 0.95858 0.10808 0.1724 0.0
H1476 H 0.03806 0.88942 0.16241 0.0
H1477 H 0.87703 0.86309 0.19442 0.0
H1478 H 0.04037 0.86214 0.18962 0.0
H1479 H 0.85866 0.83785 0.16678 0.0
H1480 H 0.93744 0.86556 0.19319 0.0
H1481 H 0.97333 0.87428 0.16415 0.0
C1482 C 0.02482 0.88005 0.16876 0.0
C1483 C 0.04456 0.87704 0.17589 0.0
C1484 C 0.91987 0.85893 0.18744 0.0
C1485 C 0.97042 0.86015 0.17796 0.0
C1486 C 0.88543 0.85759 0.18812 0.0
C1487 C 0.86278 0.85044 0.18067 0.0
C1488 C 0.93206 0.85388 0.17922 0.0
C1489 C 0.87511 0.84345 0.17269 0.0
C1490 C 0.98778 0.87123 0.16973 0.0
C1491 C 0.02598 0.86467 0.18396 0.0
N1492 N 0.90912 0.84592 0.17215 0.0
N1493 N 0.98999 0.85715 0.18482 0.0
H1494 H 0.17861 0.16154 0.36403 0.0
H1495 H 0.01592 0.13819 0.33191 0.0
H1496 H 0.17298 0.12993 0.33689 0.0
H1497 H 0.03333 0.18678 0.35775 0.0
H1498 H 0.0744 0.13736 0.3333 0.0
H1499 H 0.12688 0.17311 0.36161 0.0
C1500 C 0.16661 0.15729 0.35752 0.0
C1501 C 0.17999 0.14459 0.35065 0.0
C1502 C 0.06566 0.14857 0.33863 0.0
C1503 C 0.12027 0.15746 0.34783 0.0
C1504 C 0.0322 0.14907 0.33785 0.0
C1505 C 0.01941 0.16239 0.34476 0.0
C1506 C 0.08651 0.16112 0.34641 0.0
C1507 C 0.04194 0.17625 0.35226 0.0
C1508 C 0.13705 0.16395 0.35614 0.0
C1509 C 0.16347 0.13967 0.34236 0.0
N1510 N 0.07411 0.17488 0.35292 0.0
N1511 N 0.1342 0.14576 0.3412 0.0
H1512 H 0.83962 0.8512 0.35901 0.0
H1513 H 0.8699 0.03849 0.33601 0.0
H1514 H 0.86671 0.87304 0.33151 0.0
H1515 H 0.8966 0.03212 0.36307 0.0
H1516 H 0.85398 0.97291 0.33404 0.0
H1517 H 0.8442 0.91238 0.36036 0.0
C1518 C 0.84576 0.86848 0.35321 0.0
C1519 C 0.85304 0.85706 0.34515 0.0
C1520 C 0.86314 0.98598 0.34041 0.0
C1521 C 0.85836 0.92711 0.34666 0.0
C1522 C 0.87219 0.02326 0.34153 0.0
C1523 C 0.88486 0.04077 0.34969 0.0
C1524 C 0.86594 0.96603 0.34757 0.0
C1525 C 0.88723 0.01981 0.35665 0.0
C1526 C 0.84866 0.90352 0.35401 0.0
C1527 C 0.86117 0.88086 0.33787 0.0
N1528 N 0.87773 0.98358 0.35544 0.0
N1529 N 0.86373 0.91481 0.3388 0.0
H1530 H 0.97881 0.83396 0.3363 0.0
H1531 H 0.16118 0.996 0.35993 0.0
H1532 H 0.98195 0.86751 0.36322 0.0
H1533 H 0.14421 0.99658 0.332 0.0
H1534 H 0.10033 0.93912 0.36115 0.0
H1535 H 0.04401 0.88498 0.33452 0.0
C1536 C 0.99325 0.85188 0.34182 0.0
C1537 C 0.97494 0.8467 0.3499 0.0
C1538 C 0.11012 0.95154 0.35474 0.0
C1539 C 0.04921 0.90416 0.34798 0.0
C1540 C 0.145 0.98389 0.35403 0.0
C1541 C 0.1578 1.00137 0.34586 0.0
C1542 C 0.08794 0.93615 0.34723 0.0
C1543 C 0.13534 0.98429 0.33845 0.0
C1544 C 0.03031 0.8809 0.34081 0.0
C1545 C 0.99487 0.87062 0.35686 0.0
N1546 N 0.10146 0.9527 0.33931 0.0
N1547 N 0.03085 0.89811 0.35576 0.0
H1548 H 0.89628 0.86423 0.86364 0.0
H1549 H 0.86393 0.99432 0.83143 0.0
H1550 H 0.86853 0.83326 0.83651 0.0
H1551 H 0.84082 0.98926 0.85915 0.0
H1552 H 0.86785 0.9373 0.83278 0.0
H1553 H 0.87948 0.91255 0.86186 0.0
C1554 C 0.88657 0.86757 0.85729 0.0
C1555 C 0.88392 0.84474 0.85019 0.0
C1556 C 0.86132 0.94834 0.83853 0.0
C1557 C 0.86493 0.90057 0.8481 0.0
C1558 C 0.85911 0.9809 0.83778 0.0
C1559 C 0.85216 0.99671 0.84521 0.0
C1560 C 0.85742 0.9319 0.84681 0.0
C1561 C 0.84609 0.97806 0.85325 0.0
C1562 C 0.87675 0.89507 0.8563 0.0
C1563 C 0.87098 0.8503 0.84213 0.0
N1564 N 0.8495 0.94704 0.85387 0.0
N1565 N 0.86241 0.87805 0.84126 0.0
H1566 H 0.17538 0.01923 0.86421 0.0
H1567 H 0.0144 0.8774 0.83207 0.0
H1568 H 0.17068 0.04316 0.83687 0.0
H1569 H 0.03141 0.84761 0.85811 0.0
H1570 H 0.07241 0.93708 0.83346 0.0
H1571 H 0.12375 0.95573 0.86193 0.0
C1572 C 0.16359 0.01099 0.8577 0.0
C1573 C 0.17725 0.03652 0.85072 0.0
C1574 C 0.06369 0.91736 0.83883 0.0
C1575 C 0.11773 0.96376 0.84806 0.0
C1576 C 0.0305 0.88318 0.83805 0.0
C1577 C 0.01776 0.85735 0.84501 0.0
C1578 C 0.08427 0.92616 0.84666 0.0
C1579 C 0.04002 0.86652 0.85257 0.0
C1580 C 0.13412 0.97467 0.8564 0.0
C1581 C 0.16099 0.02433 0.84242 0.0
N1582 N 0.07192 0.90026 0.85323 0.0
N1583 N 0.13185 0.9889 0.84134 0.0
H1584 H 0.98027 0.11578 0.86386 0.0
H1585 H 0.14035 0.14137 0.8315 0.0
H1586 H 0.97742 0.14262 0.83663 0.0
H1587 H 0.15944 0.16607 0.85915 0.0
H1588 H 0.07971 0.13819 0.83289 0.0
H1589 H 0.04448 0.12961 0.86199 0.0
C1590 C 0.99322 0.12466 0.85747 0.0
C1591 C 0.97346 0.12797 0.85037 0.0
C1592 C 0.09742 0.14478 0.83861 0.0
C1593 C 0.04712 0.14351 0.84817 0.0
C1594 C 0.13197 0.14649 0.83785 0.0
C1595 C 0.15496 0.15381 0.84524 0.0
C1596 C 0.0854 0.14962 0.84687 0.0
C1597 C 0.14272 0.16039 0.85328 0.0
C1598 C 0.03 0.13276 0.85643 0.0
C1599 C 0.99174 0.13972 0.84226 0.0
N1600 N 0.10856 0.15759 0.8539 0.0
N1601 N 0.02752 0.14666 0.84134 0.0
H1602 H 0.86876 0.89119 0.66254 0.0
H1603 H 0.99926 0.85843 0.69446 0.0
H1604 H 0.8376 0.86178 0.68962 0.0
H1605 H 0.99445 0.83666 0.66666 0.0
H1606 H 0.94189 0.86184 0.69319 0.0
H1607 H 0.91728 0.8745 0.66417 0.0
C1608 C 0.87207 0.88105 0.66884 0.0
C1609 C 0.84921 0.8779 0.67597 0.0
C1610 C 0.95311 0.85573 0.68741 0.0
C1611 C 0.90515 0.85915 0.67791 0.0
C1612 C 0.98587 0.85384 0.68811 0.0
C1613 C 1.00182 0.84745 0.68063 0.0
C1614 C 0.93666 0.85201 0.67915 0.0
C1615 C 0.98319 0.84162 0.67259 0.0
C1616 C 0.89966 0.87132 0.66975 0.0
C1617 C 0.85466 0.86449 0.68397 0.0
N1618 N 0.95197 0.84464 0.67204 0.0
N1619 N 0.8825 0.85606 0.68477 0.0
H1620 H 0.1576 0.14194 0.69459 0.0
H1621 H 0.12327 0.97701 0.66281 0.0
H1622 H 0.17431 0.15634 0.66659 0.0
H1623 H 0.15466 0.97694 0.68978 0.0
H1624 H 0.13849 0.04173 0.66437 0.0
H1625 H 0.15414 0.08115 0.69336 0.0
C1626 C 0.16101 0.13258 0.68819 0.0
C1627 C 0.16608 0.15431 0.68067 0.0
C1628 C 0.14239 0.02778 0.66994 0.0
C1629 C 0.16149 0.08446 0.67923 0.0
C1630 C 0.13353 0.99071 0.66907 0.0
C1631 C 0.13769 0.97155 0.67618 0.0
C1632 C 0.15479 0.04586 0.67805 0.0
C1633 C 0.15119 0.9908 0.68413 0.0
C1634 C 0.15909 0.0979 0.68751 0.0
C1635 C 0.17042 0.14071 0.67257 0.0
N1636 N 0.15883 0.02685 0.6849 0.0
N1637 N 0.16747 0.10649 0.67206 0.0
H1638 H 0.88506 0.01199 0.6936 0.0
H1639 H 0.02725 0.17303 0.66148 0.0
H1640 H 0.85641 0.02874 0.66741 0.0
H1641 H 0.05122 0.16867 0.68883 0.0
H1642 H 0.96387 0.12139 0.66378 0.0
H1643 H 0.9448 0.0701 0.69228 0.0
C1644 C 0.89111 0.02803 0.68759 0.0
C1645 C 0.8656 0.01522 0.68058 0.0
C1646 C 0.98277 0.1318 0.66931 0.0
C1647 C 0.93436 0.08181 0.67902 0.0
C1648 C 0.01903 0.16131 0.668 0.0
C1649 C 0.04457 0.17502 0.67497 0.0
C1650 C 0.97188 0.1154 0.67765 0.0
C1651 C 0.03238 0.15887 0.68329 0.0
C1652 C 0.9253 0.06127 0.68686 0.0
C1653 C 0.8751 0.03737 0.67299 0.0
N1654 N 0.99698 0.12963 0.68438 0.0
N1655 N 0.90878 0.06932 0.67239 0.0
H1656 H 0.85224 0.35749 0.50018 0.0
H1657 H 0.82519 0.51611 0.52351 0.0
H1658 H 0.82611 0.3529 0.52773 0.0
H1659 H 0.79808 0.48396 0.49642 0.0
H1660 H 0.84103 0.46628 0.5253 0.0
H1661 H 0.84909 0.41493 0.49889 0.0
C1662 C 0.84662 0.36894 0.506 0.0
C1663 C 0.83918 0.3502 0.51406 0.0
C1664 C 0.8319 0.47049 0.51896 0.0
C1665 C 0.83554 0.4159 0.51262 0.0
C1666 C 0.82298 0.49887 0.51794 0.0
C1667 C 0.81012 0.50394 0.50983 0.0
C1668 C 0.82872 0.44779 0.51176 0.0
C1669 C 0.80762 0.48083 0.50281 0.0
C1670 C 0.84454 0.40156 0.50524 0.0
C1671 C 0.83173 0.36627 0.52136 0.0
N1672 N 0.81693 0.4539 0.50393 0.0
N1673 N 0.82999 0.39813 0.52047 0.0
H1674 H 0.53653 0.3145 0.49583 0.0
H1675 H 0.67083 0.47528 0.52786 0.0
H1676 H 0.50684 0.31169 0.52306 0.0
H1677 H 0.66334 0.49409 0.50027 0.0
H1678 H 0.61317 0.41468 0.52663 0.0
H1679 H 0.58595 0.37921 0.4976 0.0
C1680 C 0.54035 0.32762 0.50219 0.0
C1681 C 0.5176 0.30775 0.50932 0.0
C1682 C 0.62391 0.43238 0.52089 0.0
C1683 C 0.57466 0.38187 0.51142 0.0
C1684 C 0.65684 0.46692 0.52157 0.0
C1685 C 0.67209 0.48977 0.51414 0.0
C1686 C 0.6066 0.42028 0.51269 0.0
C1687 C 0.65268 0.47749 0.50617 0.0
C1688 C 0.56847 0.36465 0.50318 0.0
C1689 C 0.52375 0.32618 0.5174 0.0
N1690 N 0.62132 0.44338 0.50563 0.0
N1691 N 0.55212 0.36217 0.51828 0.0
H1692 H 0.54641 0.20006 0.52783 0.0
H1693 H 0.70938 0.23107 0.49579 0.0
H1694 H 0.52901 0.17518 0.50016 0.0
H1695 H 0.71187 0.20224 0.52288 0.0
H1696 H 0.64475 0.21597 0.49763 0.0
H1697 H 0.60796 0.20493 0.52661 0.0
C1698 C 0.55528 0.19514 0.52153 0.0
C1699 C 0.5325 0.18732 0.51407 0.0
C1700 C 0.65926 0.2127 0.50317 0.0
C1701 C 0.60309 0.1936 0.51263 0.0
C1702 C 0.69628 0.22153 0.50215 0.0
C1703 C 0.71605 0.21795 0.5092 0.0
C1704 C 0.64187 0.20094 0.51138 0.0
C1705 C 0.69756 0.20536 0.51728 0.0
C1706 C 0.59038 0.19788 0.52085 0.0
C1707 C 0.54549 0.18119 0.50609 0.0
N1708 N 0.66152 0.19769 0.51819 0.0
N1709 N 0.58009 0.18502 0.50555 0.0
H1710 H 0.84935 0.478 0.66924 0.0
H1711 H 0.69258 0.50762 0.69259 0.0
H1712 H 0.8171 0.45171 0.69637 0.0
H1713 H 0.68555 0.48016 0.66508 0.0
H1714 H 0.74881 0.50242 0.69373 0.0
H1715 H 0.7986 0.49251 0.66728 0.0
C1716 C 0.83177 0.47547 0.67477 0.0
C1717 C 0.83724 0.46342 0.68296 0.0
C1718 C 0.73515 0.4979 0.68743 0.0
C1719 C 0.78017 0.4807 0.68084 0.0
C1720 C 0.70317 0.50112 0.68675 0.0
C1721 C 0.68409 0.49408 0.67874 0.0
C1722 C 0.74859 0.48807 0.68002 0.0
C1723 C 0.69919 0.48557 0.67141 0.0
C1724 C 0.8029 0.48369 0.67365 0.0
C1725 C 0.81376 0.46067 0.68992 0.0
N1726 N 0.73052 0.48271 0.67222 0.0
N1727 N 0.78648 0.46941 0.68872 0.0
H1728 H 0.50742 0.1862 0.69283 0.0
H1729 H 0.53359 0.37079 0.66928 0.0
H1730 H 0.53474 0.2071 0.66532 0.0
H1731 H 0.56043 0.36617 0.69642 0.0
H1732 H 0.51912 0.30554 0.66748 0.0
H1733 H 0.51074 0.24679 0.69397 0.0
C1734 C 0.51348 0.2032 0.68699 0.0
C1735 C 0.52108 0.19162 0.67898 0.0
C1736 C 0.52793 0.3189 0.67383 0.0
C1737 C 0.52487 0.26104 0.68025 0.0
C1738 C 0.53604 0.35593 0.67486 0.0
C1739 C 0.54836 0.37383 0.68299 0.0
C1740 C 0.53135 0.29961 0.68104 0.0
C1741 C 0.55124 0.35349 0.69002 0.0
C1742 C 0.5156 0.23789 0.68766 0.0
C1743 C 0.52896 0.21503 0.67164 0.0
N1744 N 0.54267 0.3175 0.68889 0.0
N1745 N 0.53075 0.2487 0.67245 0.0
H1746 H 0.83342 0.32401 0.69272 0.0
H1747 H 0.64795 0.16469 0.66956 0.0
H1748 H 0.81239 0.32715 0.66509 0.0
H1749 H 0.65251 0.19824 0.69653 0.0
H1750 H 0.71365 0.21431 0.66775 0.0
H1751 H 0.77265 0.26684 0.69411 0.0
C1752 C 0.81641 0.31228 0.68691 0.0
C1753 C 0.82791 0.33054 0.67879 0.0
C1754 C 0.7002 0.21048 0.67407 0.0
C1755 C 0.75838 0.2652 0.68034 0.0
C1756 C 0.66289 0.18223 0.6751 0.0
C1757 C 0.64483 0.17759 0.68319 0.0
C1758 C 0.71962 0.2335 0.68122 0.0
C1759 C 0.66531 0.20105 0.69017 0.0
C1760 C 0.78162 0.27984 0.68772 0.0
C1761 C 0.80448 0.31415 0.6715 0.0
N1762 N 0.70159 0.22786 0.68904 0.0
N1763 N 0.77078 0.28246 0.67244 0.0
H1764 H 0.56967 0.20164 0.19733 0.0
H1765 H 0.53427 0.33058 0.16518 0.0
H1766 H 0.53792 0.16912 0.17042 0.0
H1767 H 0.5192 0.33007 0.19321 0.0
H1768 H 0.53807 0.27351 0.16655 0.0
H1769 H 0.55494 0.25139 0.1956 0.0
C1770 C 0.55953 0.20496 0.19104 0.0
C1771 C 0.55508 0.18124 0.18399 0.0
C1772 C 0.53341 0.28564 0.17237 0.0
C1773 C 0.53841 0.23865 0.18194 0.0
C1774 C 0.5313 0.31826 0.17161 0.0
C1775 C 0.52662 0.33536 0.17911 0.0
C1776 C 0.53156 0.27039 0.1807 0.0
C1777 C 0.52279 0.31797 0.18725 0.0
C1778 C 0.55091 0.23329 0.19007 0.0
C1779 C 0.54173 0.18685 0.176 0.0
N1780 N 0.5259 0.28681 0.18784 0.0
N1781 N 0.53423 0.21532 0.17515 0.0
H1782 H 0.84161 0.3795 0.16999 0.0
H1783 H 0.7003 0.18142 0.19205 0.0
H1784 H 0.84373 0.35415 0.19734 0.0
H1785 H 0.6851 0.21339 0.16609 0.0
H1786 H 0.75868 0.24112 0.19335 0.0
H1787 H 0.78968 0.31553 0.16773 0.0
C1788 C 0.83135 0.36038 0.17549 0.0
C1789 C 0.84676 0.37216 0.18387 0.0
C1790 C 0.74271 0.23491 0.18734 0.0
C1791 C 0.78759 0.29906 0.18136 0.0
C1792 C 0.70944 0.20069 0.18658 0.0
C1793 C 0.68749 0.19235 0.17898 0.0
C1794 C 0.7543 0.26101 0.18045 0.0
C1795 C 0.70084 0.21864 0.17211 0.0
C1796 C 0.80169 0.32392 0.17421 0.0
C1797 C 0.83249 0.34627 0.19078 0.0
N1798 N 0.73318 0.25176 0.17303 0.0
N1799 N 0.80371 0.31106 0.18938 0.0
H1800 H 0.8357 0.51429 0.19254 0.0
H1801 H 0.6405 0.46582 0.17013 0.0
H1802 H 0.80632 0.4744 0.16593 0.0
H1803 H 0.66554 0.49129 0.19756 0.0
H1804 H 0.70401 0.47631 0.16787 0.0
H1805 H 0.77654 0.5139 0.19389 0.0
C1806 C 0.81709 0.50585 0.18694 0.0
C1807 C 0.82608 0.49411 0.17913 0.0
C1808 C 0.69565 0.47985 0.17437 0.0
C1809 C 0.75792 0.49337 0.18066 0.0
C1810 C 0.65947 0.47395 0.17564 0.0
C1811 C 0.64772 0.47747 0.18404 0.0
C1812 C 0.72022 0.48953 0.18155 0.0
C1813 C 0.67339 0.48807 0.19098 0.0
C1814 C 0.78316 0.50548 0.18773 0.0
C1815 C 0.80061 0.48343 0.17212 0.0
N1816 N 0.70828 0.49358 0.18959 0.0
N1817 N 0.76771 0.48313 0.17306 0.0
H1818 H 0.66314 0.19048 0.02827 0.0
H1819 H 0.53505 0.22505 0.99602 0.0
H1820 H 0.65967 0.1685 1.00052 0.0
H1821 H 0.50143 0.19328 0.02288 0.0
H1822 H 0.58335 0.20801 0.99776 0.0
H1823 H 0.60588 0.19397 0.02679 0.0
C1824 C 0.65001 0.1858 0.02189 0.0
C1825 C 0.66629 0.17929 0.0145 0.0
C1826 C 0.56523 0.20441 1.00326 0.0
C1827 C 0.60131 0.18411 1.01275 0.0
C1828 C 0.53778 0.21434 1.00229 0.0
C1829 C 0.51426 0.21061 1.00933 0.0
C1830 C 0.56995 0.19147 1.0114 0.0
C1831 C 0.51898 0.19648 0.0173 0.0
C1832 C 0.61733 0.18776 0.02106 0.0
C1833 C 0.64805 0.17342 1.0064 0.0
N1834 N 0.5467 0.18788 0.01817 0.0
N1835 N 0.61693 0.17663 1.00571 0.0
H1836 H 0.78553 0.30883 0.99598 0.0
H1837 H 0.81994 0.47348 0.02774 0.0
H1838 H 0.81536 0.30715 0.02302 0.0
H1839 H 0.84217 0.48933 0.99994 0.0
H1840 H 0.81484 0.41189 0.0266 0.0
H1841 H 0.80151 0.3737 0.99767 0.0
C1842 C 0.79549 0.32216 1.0023 0.0
C1843 C 0.79906 0.30253 1.00939 0.0
C1844 C 0.82138 0.42914 0.02079 0.0
C1845 C 0.81712 0.37704 1.01138 0.0
C1846 C 0.82425 0.46426 0.02142 0.0
C1847 C 0.83135 0.4866 0.01391 0.0
C1848 C 0.82482 0.41594 1.01256 0.0
C1849 C 0.83673 0.47319 1.00591 0.0
C1850 C 0.80483 0.35932 1.00323 0.0
C1851 C 0.81222 0.32134 0.0174 0.0
N1852 N 0.83278 0.43855 1.00542 0.0
N1853 N 0.82039 0.35753 0.01822 0.0
H1854 H 0.5221 0.35629 1.00003 0.0
H1855 H 0.70757 0.51416 0.02331 0.0
H1856 H 0.54359 0.34926 0.02747 0.0
H1857 H 0.70243 0.48178 0.99623 0.0
H1858 H 0.64222 0.46364 0.02521 0.0
H1859 H 0.58281 0.41336 0.99886 0.0
C1860 C 0.53925 0.36705 1.00585 0.0
C1861 C 0.52781 0.34775 0.01385 0.0
C1862 C 0.65549 0.46793 0.01886 0.0
C1863 C 0.59738 0.41317 1.01253 0.0
C1864 C 0.69258 0.4967 0.01777 0.0
C1865 C 0.71035 0.50193 1.00962 0.0
C1866 C 0.63603 0.44507 1.01168 0.0
C1867 C 0.68985 0.47854 1.00264 0.0
C1868 C 0.57401 0.39951 1.00516 0.0
C1869 C 0.55143 0.36308 0.02116 0.0
N1870 N 0.6538 0.4513 1.00382 0.0
N1871 N 0.58518 0.39487 0.02033 0.0
H1872 H 0.48888 0.84617 0.85668 0.0
H1873 H 0.51094 0.68479 0.83335 0.0
H1874 H 0.45842 0.81168 0.82982 0.0
H1875 H 0.48957 0.68246 0.86114 0.0
H1876 H 0.50788 0.74209 0.83211 0.0
H1877 H 0.50397 0.79581 0.85854 0.0
C1878 C 0.48576 0.82828 0.85117 0.0
C1879 C 0.47223 0.83287 0.8431 0.0
C1880 C 0.50427 0.72922 0.8385 0.0
C1881 C 0.48993 0.77617 0.84511 0.0
C1882 C 0.50624 0.6966 0.83923 0.0
C1883 C 0.50016 0.67849 0.84735 0.0
C1884 C 0.49661 0.74422 0.84595 0.0
C1885 C 0.49407 0.69525 0.85473 0.0
C1886 C 0.49423 0.79961 0.85224 0.0
C1887 C 0.46853 0.80896 0.83617 0.0
N1888 N 0.4923 0.72711 0.85385 0.0
N1889 N 0.47744 0.78179 0.83732 0.0
H1890 H 0.20164 0.64555 0.8292 0.0
H1891 H 0.33501 0.80624 0.86124 0.0
H1892 H 0.17102 0.64246 0.85636 0.0
H1893 H 0.32666 0.82549 0.83372 0.0
H1894 H 0.27745 0.74553 0.86001 0.0
H1895 H 0.25068 0.71041 0.83101 0.0
C1896 C 0.20519 0.65864 0.83555 0.0
C1897 C 0.1823 0.63868 0.84265 0.0
C1898 C 0.28798 0.76338 0.85429 0.0
C1899 C 0.23886 0.71291 0.8448 0.0
C1900 C 0.32083 0.79797 0.85497 0.0
C1901 C 0.33583 0.82094 0.84755 0.0
C1902 C 0.27053 0.75138 0.8461 0.0
C1903 C 0.31621 0.80879 0.83961 0.0
C1904 C 0.23307 0.69574 0.83657 0.0
C1905 C 0.18807 0.65704 0.85073 0.0
N1906 N 0.28496 0.77463 0.83906 0.0
N1907 N 0.21622 0.6931 0.85163 0.0
H1908 H 0.38501 0.55134 0.85623 0.0
H1909 H 0.18538 0.49073 0.83459 0.0
H1910 H 0.35795 0.52175 0.82904 0.0
H1911 H 0.21837 0.54336 0.85999 0.0
H1912 H 0.24535 0.49282 0.83341 0.0
H1913 H 0.32123 0.54009 0.85863 0.0
C1914 C 0.36556 0.54215 0.8508 0.0
C1915 C 0.37679 0.53767 0.84242 0.0
C1916 C 0.23939 0.50368 0.83927 0.0
C1917 C 0.30399 0.5246 0.84509 0.0
C1918 C 0.205 0.50233 0.83997 0.0
C1919 C 0.19675 0.51709 0.84738 0.0
C1920 C 0.26589 0.51979 0.84603 0.0
C1921 C 0.2235 0.53181 0.85414 0.0
C1922 C 0.32925 0.53584 0.85216 0.0
C1923 C 0.35053 0.52575 0.8356 0.0
N1924 N 0.25689 0.53295 0.85328 0.0
N1925 N 0.31549 0.5197 0.83707 0.0
H1926 H 0.4849 0.78852 0.03005 0.0
H1927 H 0.35559 0.82179 0.99787 0.0
H1928 H 0.5174 0.81911 1.00308 0.0
H1929 H 0.35928 0.84359 0.02564 0.0
H1930 H 0.41303 0.81861 0.99929 0.0
H1931 H 0.43646 0.80534 0.02834 0.0
C1932 C 0.4819 0.79894 0.02376 0.0
C1933 C 0.50513 0.80237 0.01668 0.0
C1934 C 0.40159 0.8247 1.00504 0.0
C1935 C 0.44926 0.82127 0.01465 0.0
C1936 C 0.36879 0.82647 1.00425 0.0
C1937 C 0.3525 0.83283 1.01166 0.0
C1938 C 0.41774 0.82843 0.01334 0.0
C1939 C 0.37086 0.83875 0.01975 0.0
C1940 C 0.45436 0.80874 0.02281 0.0
C1941 C 0.50006 0.81614 1.00869 0.0
N1942 N 0.40212 0.83576 0.02039 0.0
N1943 N 0.47226 0.82462 1.00785 0.0
H1944 H 0.23391 0.70414 0.03009 0.0
H1945 H 0.19945 0.53903 0.99843 0.0
H1946 H 0.20392 0.70531 1.00304 0.0
H1947 H 0.17855 0.52395 0.02629 0.0
H1948 H 0.20445 0.60058 0.99954 0.0
H1949 H 0.21834 0.6394 0.02845 0.0
C1950 C 0.224 0.69073 0.02378 0.0
C1951 C 0.22025 0.71018 0.01668 0.0
C1952 C 0.19824 0.58351 1.00537 0.0
C1953 C 0.20263 0.63578 0.01474 0.0
C1954 C 0.19543 0.54842 1.00476 0.0
C1955 C 0.18871 0.5263 1.0123 0.0
C1956 C 0.19511 0.59691 0.0136 0.0
C1957 C 0.18369 0.53992 0.02031 0.0
C1958 C 0.21489 0.65363 0.02287 0.0
C1959 C 0.20716 0.69125 1.00868 0.0
N1960 N 0.18754 0.57452 0.02077 0.0
N1961 N 0.1992 0.65511 1.00788 0.0
H1962 H 0.31558 0.52905 0.03027 0.0
H1963 H 0.47656 0.66429 0.99827 0.0
H1964 H 0.31262 0.50041 1.00297 0.0
H1965 H 0.49493 0.65648 0.02587 0.0
H1966 H 0.41591 0.60663 0.99946 0.0
H1967 H 0.38025 0.5786 0.02851 0.0
C1968 C 0.32866 0.53312 0.0239 0.0
C1969 C 0.30874 0.51062 0.01675 0.0
C1970 C 0.43352 0.61731 1.00521 0.0
C1971 C 0.38287 0.56786 0.01466 0.0
C1972 C 0.46809 0.65024 1.00456 0.0
C1973 C 0.49084 0.66541 1.012 0.0
C1974 C 0.42129 0.59988 0.01341 0.0
C1975 C 0.47842 0.64591 0.01996 0.0
C1976 C 0.36568 0.56133 0.02291 0.0
C1977 C 0.32714 0.51712 1.00864 0.0
N1978 N 0.44431 0.61453 0.02047 0.0
N1979 N 0.36313 0.54557 1.00778 0.0
H1980 H 0.20411 0.50054 0.50323 0.0
H1981 H 0.19077 0.66568 0.52722 0.0
H1982 H 0.24258 0.53827 0.52956 0.0
H1983 H 0.2001 0.66312 0.49904 0.0
H1984 H 0.19589 0.60952 0.52824 0.0
H1985 H 0.19032 0.55189 0.5016 0.0
C1986 C 0.2095 0.51948 0.50865 0.0
C1987 C 0.22463 0.51528 0.51652 0.0
C1988 C 0.19653 0.6211 0.52182 0.0
C1989 C 0.20834 0.57313 0.51479 0.0
C1990 C 0.19336 0.65308 0.52122 0.0
C1991 C 0.19529 0.66945 0.51303 0.0
C1992 C 0.20127 0.60494 0.51418 0.0
C1993 C 0.19876 0.65168 0.5055 0.0
C1994 C 0.20169 0.54869 0.50772 0.0
C1995 C 0.23109 0.54052 0.52336 0.0
N1996 N 0.20175 0.62042 0.50625 0.0
N1997 N 0.22274 0.56814 0.52235 0.0
H1998 H 0.48695 0.6995 0.53001 0.0
H1999 H 0.35651 0.53848 0.49765 0.0
H2000 H 0.51859 0.70312 0.50292 0.0
H2001 H 0.36229 0.51885 0.52525 0.0
H2002 H 0.41372 0.59928 0.49908 0.0
H2003 H 0.43855 0.63436 0.52818 0.0
C2004 C 0.48378 0.68651 0.52368 0.0
C2005 C 0.50678 0.70675 0.51661 0.0
C2006 C 0.40277 0.58137 0.50478 0.0
C2007 C 0.45089 0.63208 0.51442 0.0
C2008 C 0.37011 0.54669 0.50398 0.0
C2009 C 0.35448 0.52353 0.51135 0.0
C2010 C 0.41944 0.59339 0.51305 0.0
C2011 C 0.37335 0.53565 0.51939 0.0
C2012 C 0.45625 0.64921 0.52264 0.0
C2013 C 0.50144 0.68838 0.50855 0.0
N2014 N 0.40444 0.56998 0.52005 0.0
N2015 N 0.47365 0.65215 0.50762 0.0
H2016 H 0.47213 0.80643 0.49937 0.0
H2017 H 0.33314 0.83257 0.53109 0.0
H2018 H 0.50207 0.85375 0.52535 0.0
H2019 H 0.30785 0.80082 0.50393 0.0
H2020 H 0.39612 0.84297 0.52882 0.0
H2021 H 0.41323 0.80664 0.50058 0.0
C2022 C 0.46654 0.81721 0.5053 0.0
C2023 C 0.49213 0.8299 0.51229 0.0
C2024 C 0.37702 0.83405 0.52332 0.0
C2025 C 0.42439 0.8299 0.51374 0.0
C2026 C 0.34102 0.8281 0.52461 0.0
C2027 C 0.31525 0.81567 0.51769 0.0
C2028 C 0.38735 0.82711 0.51506 0.0
C2029 C 0.32693 0.8104 0.50944 0.0
C2030 C 0.43283 0.81731 0.50598 0.0
C2031 C 0.48327 0.84362 0.5198 0.0
N2032 N 0.36205 0.81579 0.50837 0.0
N2033 N 0.45006 0.84293 0.52035 0.0
H2034 H 0.20072 0.55672 0.32933 0.0
H2035 H 0.3349 0.53002 0.3613 0.0
H2036 H 0.17055 0.52939 0.35652 0.0
H2037 H 0.32675 0.50297 0.33375 0.0
H2038 H 0.27718 0.53294 0.36011 0.0
H2039 H 0.25001 0.54121 0.33111 0.0
C2040 C 0.20441 0.54729 0.33569 0.0
C2041 C 0.18158 0.54435 0.3428 0.0
C2042 C 0.28779 0.52581 0.35437 0.0
C2043 C 0.23846 0.52702 0.34491 0.0
C2044 C 0.32075 0.5242 0.35503 0.0
C2045 C 0.33584 0.51643 0.34759 0.0
C2046 C 0.27031 0.52041 0.34618 0.0
C2047 C 0.31623 0.50906 0.33965 0.0
C2048 C 0.23245 0.53825 0.33668 0.0
C2049 C 0.18755 0.53188 0.35088 0.0
N2050 N 0.28486 0.51181 0.33913 0.0
N2051 N 0.21586 0.52414 0.35176 0.0
H2052 H 0.45822 0.64612 0.32937 0.0
H2053 H 0.48709 0.80831 0.36124 0.0
H2054 H 0.48727 0.64438 0.35647 0.0
H2055 H 0.51208 0.82607 0.33357 0.0
H2056 H 0.48372 0.74748 0.36005 0.0
H2057 H 0.47351 0.71085 0.33109 0.0
C2058 C 0.46798 0.65947 0.33569 0.0
C2059 C 0.47149 0.63988 0.3428 0.0
C2060 C 0.49048 0.76501 0.35428 0.0
C2061 C 0.48855 0.71405 0.34484 0.0
C2062 C 0.49234 0.79968 0.35494 0.0
C2063 C 0.49973 0.82232 0.34748 0.0
C2064 C 0.49521 0.75256 0.34607 0.0
C2065 C 0.50635 0.80967 0.3395 0.0
C2066 C 0.47688 0.69651 0.33665 0.0
C2067 C 0.48434 0.65862 0.35083 0.0
N2068 N 0.50336 0.77545 0.33899 0.0
N2069 N 0.49195 0.69463 0.35168 0.0
H2070 H 0.20978 0.68068 0.36121 0.0
H2071 H 0.37027 0.81795 0.32932 0.0
H2072 H 0.19126 0.68947 0.33366 0.0
H2073 H 0.37348 0.84512 0.35673 0.0
H2074 H 0.30571 0.76815 0.33104 0.0
H2075 H 0.27031 0.73854 0.36009 0.0
C2076 C 0.21818 0.69497 0.35495 0.0
C2077 C 0.1954 0.68002 0.3475 0.0
C2078 C 0.3203 0.78514 0.33668 0.0
C2079 C 0.26485 0.74582 0.34618 0.0
C2080 C 0.35726 0.81351 0.33571 0.0
C2081 C 0.37724 0.83568 0.3429 0.0
C2082 C 0.30321 0.77807 0.34496 0.0
C2083 C 0.35892 0.82869 0.35103 0.0
C2084 C 0.2527 0.72802 0.35434 0.0
C2085 C 0.20778 0.69985 0.33958 0.0
N2086 N 0.32298 0.80007 0.35187 0.0
N2087 N 0.24182 0.73134 0.3391 0.0
H2088 H 0.24143 0.3401 0.16635 0.0
H2089 H 0.44228 0.39965 0.18709 0.0
H2090 H 0.25368 0.30858 0.19261 0.0
H2091 H 0.42257 0.41251 0.15989 0.0
H2092 H 0.37474 0.37176 0.18994 0.0
H2093 H 0.30889 0.37257 0.16461 0.0
C2094 C 0.25823 0.3401 0.17179 0.0
C2095 C 0.24148 0.32123 0.17963 0.0
C2096 C 0.3853 0.38089 0.18336 0.0
C2097 C 0.31967 0.3587 0.17764 0.0
C2098 C 0.42382 0.39694 0.18175 0.0
C2099 C 0.43802 0.40847 0.17324 0.0
C2100 C 0.36101 0.37664 0.17642 0.0
C2101 C 0.41286 0.40399 0.16654 0.0
C2102 C 0.29697 0.35869 0.17078 0.0
C2103 C 0.26519 0.3226 0.18644 0.0
N2104 N 0.37578 0.38851 0.16827 0.0
N2105 N 0.30304 0.34086 0.18527 0.0
H2106 H 0.61116 0.0179 0.15868 0.0
H2107 H 0.70957 0.94563 0.19247 0.0
H2108 H 0.62098 0.04341 0.1863 0.0
H2109 H 0.68274 0.907 0.16573 0.0
H2110 H 0.6776 0.98148 0.19046 0.0
H2111 H 0.63782 0.97761 0.16121 0.0
C2112 C 0.61882 0.01488 0.1653 0.0
C2113 C 0.61381 0.03402 0.17229 0.0
C2114 C 0.67849 0.96497 0.18505 0.0
C2115 C 0.64473 0.98794 0.17525 0.0
C2116 C 0.69676 0.94442 0.18619 0.0
C2117 C 0.69903 0.9232 0.17925 0.0
C2118 C 0.66253 0.96467 0.1769 0.0
C2119 C 0.68178 0.92284 0.17128 0.0
C2120 C 0.63402 0.9918 0.16674 0.0
C2121 C 0.62427 0.02907 0.18073 0.0
N2122 N 0.66456 0.94341 0.17031 0.0
N2123 N 0.63943 1.00669 0.18197 0.0
H2124 H 0.11703 0.77903 0.16567 0.0
H2125 H 0.97652 0.5773 0.18638 0.0
H2126 H 0.07305 0.76462 0.19195 0.0
H2127 H 1.00696 0.59636 0.15905 0.0
H2128 H 0.01645 0.64472 0.18911 0.0
H2129 H 0.08205 0.71132 0.1637 0.0
C2130 C 0.1003 0.7617 0.17107 0.0
C2131 C 0.09803 0.77785 0.17899 0.0
C2132 C 0.01453 0.63409 0.18253 0.0
C2133 C 0.05749 0.6997 0.17675 0.0
C2134 C 0.99188 0.59559 0.18098 0.0
C2135 C 0.98847 0.58116 0.17248 0.0
C2136 C 0.0341 0.65831 0.17552 0.0
C2137 C 1.00871 0.60622 0.16571 0.0
C2138 C 0.08014 0.7229 0.16992 0.0
C2139 C 0.07567 0.75361 0.18572 0.0
N2140 N 0.03056 0.64338 0.16737 0.0
N2141 N 0.05627 0.7159 0.18444 0.0
H2142 H 0.30228 0.24444 0.33389 0.0
H2143 H 0.4474 0.42281 0.36196 0.0
H2144 H 0.35265 0.23619 0.35797 0.0
H2145 H 0.38402 0.42873 0.34018 0.0
H2146 H 0.41765 0.3551 0.35981 0.0
H2147 H 0.33662 0.31234 0.3353 0.0
C2148 C 0.32074 0.2568 0.33945 0.0
C2149 C 0.32436 0.23425 0.34583 0.0
C2150 C 0.41032 0.3712 0.35548 0.0
C2151 C 0.36391 0.31252 0.3475 0.0
C2152 C 0.42738 0.40988 0.35669 0.0
C2153 C 0.41803 0.43142 0.35127 0.0
C2154 C 0.38385 0.35387 0.34876 0.0
C2155 C 0.39192 0.41318 0.34454 0.0
C2156 C 0.34029 0.29571 0.34026 0.0
C2157 C 0.34877 0.25222 0.35289 0.0
N2158 N 0.37574 0.37554 0.34349 0.0
N2159 N 0.3675 0.29018 0.35354 0.0
H2160 H 0.58814 0.95986 0.33956 0.0
H2161 H 0.78431 0.117 0.3592 0.0
H2162 H 0.59679 0.0258 0.36228 0.0
H2163 H 0.77279 0.06575 0.33386 0.0
H2164 H 0.71611 0.08351 0.36062 0.0
H2165 H 0.6559 0.99772 0.33752 0.0
C2166 C 0.60431 0.98243 0.3441 0.0
C2167 C 0.58678 0.9896 0.35112 0.0
C2168 C 0.72852 0.07979 0.35473 0.0
C2169 C 0.66459 0.03301 0.34887 0.0
C2170 C 0.76754 0.09893 0.3539 0.0
C2171 C 0.78459 0.09428 0.3464 0.0
C2172 C 0.70618 0.05545 0.34803 0.0
C2173 C 0.76114 0.07039 0.33977 0.0
C2174 C 0.64302 1.00409 0.34293 0.0
C2175 C 0.60914 0.01928 0.35679 0.0
N2176 N 0.72333 0.05176 0.34077 0.0
N2177 N 0.64685 0.03969 0.35558 0.0
H2178 H 0.89968 0.66868 0.35909 0.0
H2179 H 0.05799 0.63098 0.33964 0.0
H2180 H 0.95198 0.70951 0.33387 0.0
H2181 H 0.99123 0.57301 0.36222 0.0
H2182 H 0.01997 0.66063 0.33754 0.0
H2183 H 0.9332 0.63407 0.3605 0.0
C2184 C 0.91801 0.67026 0.35382 0.0
C2185 C 0.92294 0.69223 0.34635 0.0
C2186 C 0.01346 0.64129 0.34293 0.0
C2187 C 0.9618 0.65275 0.34798 0.0
C2188 C 0.0352 0.62438 0.34414 0.0
C2189 C 0.02784 0.59957 0.35113 0.0
C2190 C 0.98427 0.63368 0.34882 0.0
C2191 C 0.9979 0.59198 0.35675 0.0
C2192 C 0.93715 0.65042 0.35463 0.0
C2193 C 0.94713 0.693 0.33975 0.0
N2194 N 0.9774 0.60915 0.35551 0.0
N2195 N 0.96577 0.67383 0.34075 0.0
H2196 H 0.58228 0.61053 0.83928 0.0
H2197 H 0.78384 0.67684 0.8607 0.0
H2198 H 0.60104 0.59959 0.86666 0.0
H2199 H 0.76999 0.69986 0.83377 0.0
H2200 H 0.71615 0.6435 0.86249 0.0
H2201 H 0.64993 0.63859 0.83663 0.0
C2202 C 0.60055 0.61371 0.84471 0.0
C2203 C 0.58602 0.60267 0.8532 0.0
C2204 C 0.72782 0.65568 0.85617 0.0
C2205 C 0.66328 0.63479 0.85025 0.0
C2206 C 0.76665 0.67473 0.85513 0.0
C2207 C 0.78297 0.69148 0.84707 0.0
C2208 C 0.70473 0.65315 0.84912 0.0
C2209 C 0.75886 0.68754 0.84011 0.0
C2210 C 0.63916 0.62984 0.8432 0.0
C2211 C 0.61099 0.60772 0.86001 0.0
N2212 N 0.72106 0.66897 0.8413 0.0
N2213 N 0.6482 0.62336 0.85839 0.0
H2214 H 0.35144 0.11772 0.85851 0.0
H2215 H 0.38486 0.95636 0.83939 0.0
H2216 H 0.3049 0.06158 0.83396 0.0
H2217 H 0.44599 0.02562 0.86137 0.0
H2218 H 0.3551 0.99432 0.8373 0.0
H2219 H 0.38598 0.08418 0.85971 0.0
C2220 C 0.34857 0.0985 0.85334 0.0
C2221 C 0.32504 0.09252 0.84613 0.0
C2222 C 0.37517 1.00138 0.84255 0.0
C2223 C 0.36453 0.05364 0.84751 0.0
C2224 C 0.39214 0.97969 0.84375 0.0
C2225 C 0.41781 0.98775 0.85059 0.0
C2226 C 0.38366 0.03124 0.84828 0.0
C2227 C 0.42631 0.01838 0.85602 0.0
C2228 C 0.3684 0.07935 0.85403 0.0
C2229 C 0.32267 0.06724 0.83964 0.0
N2230 N 0.4091 0.03882 0.8548 0.0
N2231 N 0.34191 0.0486 0.84051 0.0
H2232 H 0.95206 0.24238 0.83378 0.0
H2233 H 0.99204 0.42118 0.86252 0.0
H2234 H 0.90257 0.23379 0.85924 0.0
H2235 H 0.05787 0.42645 0.84004 0.0
H2236 H 0.95421 0.35328 0.86065 0.0
H2237 H 0.98589 0.31024 0.83519 0.0
C2238 C 0.94802 0.25466 0.83966 0.0
C2239 C 0.92433 0.23202 0.84641 0.0
C2240 C 0.97686 0.36928 0.85611 0.0
C2241 C 0.96336 0.31032 0.84806 0.0
C2242 C 0.99841 0.40807 0.85716 0.0
C2243 C 0.02828 0.4295 0.85145 0.0
C2244 C 0.98496 0.35173 0.84924 0.0
C2245 C 0.03522 0.411 0.84462 0.0
C2246 C 0.96755 0.29356 0.84046 0.0
C2247 C 0.92052 0.24992 0.85387 0.0
N2248 N 0.01377 0.37327 0.84371 0.0
N2249 N 0.9398 0.28792 0.85449 0.0
H2250 H 0.57569 0.59147 0.66352 0.0
H2251 H 0.71747 0.76951 0.6921 0.0
H2252 H 0.63731 0.58578 0.68571 0.0
H2253 H 0.67067 0.77877 0.66756 0.0
H2254 H 0.68347 0.70177 0.69056 0.0
H2255 H 0.60536 0.65924 0.66558 0.0
C2256 C 0.59532 0.60446 0.66886 0.0
C2257 C 0.60416 0.58294 0.67443 0.0
C2258 C 0.68047 0.71853 0.68551 0.0
C2259 C 0.63821 0.66058 0.67684 0.0
C2260 C 0.69986 0.75738 0.6864 0.0
C2261 C 0.69715 0.78017 0.67993 0.0
C2262 C 0.6579 0.70195 0.67812 0.0
C2263 C 0.67375 0.76248 0.67271 0.0
C2264 C 0.61233 0.64318 0.67001 0.0
C2265 C 0.62979 0.60129 0.68124 0.0
N2266 N 0.65512 0.7245 0.67199 0.0
N2267 N 0.64588 0.63895 0.68224 0.0
H2268 H 0.42722 0.98715 0.66381 0.0
H2269 H 0.24825 0.94985 0.69223 0.0
H2270 H 0.43215 0.05406 0.68601 0.0
H2271 H 0.23988 0.89416 0.66768 0.0
H2272 H 0.31609 0.9838 0.69077 0.0
H2273 H 0.35941 0.94871 0.66583 0.0
C2274 C 0.41405 0.99363 0.66914 0.0
C2275 C 0.43534 0.02398 0.67473 0.0
C2276 C 0.29949 0.96408 0.68571 0.0
C2277 C 0.3577 0.98003 0.67709 0.0
C2278 C 0.26061 0.94451 0.68654 0.0
C2279 C 0.23806 0.91905 0.68005 0.0
C2280 C 0.31633 0.95824 0.67833 0.0
C2281 C 0.25599 0.9135 0.67284 0.0
C2282 C 0.37532 0.97172 0.67027 0.0
C2283 C 0.4168 0.03104 0.68153 0.0
N2284 N 0.294 0.93297 0.67217 0.0
N2285 N 0.37913 0.00931 0.68251 0.0
H2286 H 0.97453 0.3969 0.68674 0.0
H2287 H 0.11514 0.33658 0.66584 0.0
H2288 H 1.00302 0.40628 0.65929 0.0
H2289 H 0.07126 0.30589 0.69213 0.0
H2290 H 0.07946 0.36847 0.66396 0.0
H2291 H 0.01449 0.36935 0.68943 0.0
C2292 C 0.98936 0.39337 0.6813 0.0
C2293 C 0.98545 0.40385 0.67278 0.0
C2294 C 0.0777 0.3549 0.67016 0.0
C2295 C 0.0312 0.37255 0.67579 0.0
C2296 C 0.09826 0.33671 0.67126 0.0
C2297 C 0.09627 0.31824 0.67916 0.0
C2298 C 0.05489 0.35495 0.677 0.0
C2299 C 0.07369 0.31957 0.68591 0.0
C2300 C 0.01206 0.37757 0.68283 0.0
C2301 C 1.00517 0.39855 0.66596 0.0
N2302 N 0.05387 0.33749 0.68467 0.0
N2303 N 0.02712 0.38337 0.66761 0.0
H2304 H 0.90765 0.68283 0.50041 0.0
H2305 H 0.10394 0.72088 0.52 0.0
H2306 H 0.91899 0.63858 0.52513 0.0
H2307 H 0.09447 0.7741 0.49659 0.0
H2308 H 0.0363 0.69179 0.52217 0.0
H2309 H 0.97587 0.71767 0.49902 0.0
C2310 C 0.9244 0.68059 0.50558 0.0
C2311 C 0.90734 0.65755 0.51289 0.0
C2312 C 0.04899 0.70999 0.51658 0.0
C2313 C 0.98569 0.69729 0.51131 0.0
C2314 C 0.08763 0.72663 0.51535 0.0
C2315 C 0.10484 0.74982 0.50809 0.0
C2316 C 0.02723 0.71636 0.51048 0.0
C2317 C 0.08235 0.75634 0.50227 0.0
C2318 C 0.96342 0.7005 0.50478 0.0
C2319 C 0.93069 0.65585 0.51937 0.0
N2320 N 0.04474 0.73953 0.50356 0.0
N2321 N 0.96849 0.67521 0.5184 0.0
H2322 H 0.37595 0.27792 0.52555 0.0
H2323 H 0.2746 0.34693 0.49178 0.0
H2324 H 0.34869 0.23822 0.4989 0.0
H2325 H 0.28776 0.37563 0.51924 0.0
H2326 H 0.30147 0.30686 0.49436 0.0
H2327 H 0.34346 0.31318 0.52351 0.0
C2328 C 0.36293 0.27635 0.51928 0.0
C2329 C 0.36526 0.25503 0.51238 0.0
C2330 C 0.29835 0.32169 0.49985 0.0
C2331 C 0.32811 0.29582 0.50998 0.0
C2332 C 0.28302 0.34465 0.49838 0.0
C2333 C 0.27889 0.36461 0.50531 0.0
C2334 C 0.31005 0.3188 0.50832 0.0
C2335 C 0.29031 0.3606 0.51372 0.0
C2336 C 0.34436 0.29657 0.51813 0.0
C2337 C 0.3477 0.25417 0.50442 0.0
N2338 N 0.30555 0.33832 0.51498 0.0
N2339 N 0.33016 0.27443 0.50343 0.0
H2340 H 0.62935 0.91874 0.51991 0.0
H2341 H 0.78935 0.11371 0.50035 0.0
H2342 H 0.69577 0.92667 0.49732 0.0
H2343 H 0.73708 0.10338 0.52552 0.0
H2344 H 0.75493 0.04561 0.49898 0.0
H2345 H 0.66782 0.98642 0.52195 0.0
C2346 C 0.65213 0.93473 0.51539 0.0
C2347 C 0.65927 0.91702 0.50841 0.0
C2348 C 0.75117 0.05824 0.50483 0.0
C2349 C 0.70339 0.99471 0.51067 0.0
C2350 C 0.77084 0.09722 0.50562 0.0
C2351 C 0.76621 0.11458 0.51307 0.0
C2352 C 0.72629 0.03624 0.51149 0.0
C2353 C 0.74173 0.09147 0.51966 0.0
C2354 C 0.67414 0.97339 0.51656 0.0
C2355 C 0.68924 0.93914 0.50278 0.0
N2356 N 0.72259 0.05366 0.51869 0.0
N2357 N 0.71 0.97679 0.50399 0.0
H2358 H 0.11127 0.75406 0.69602 0.0
H2359 H 0.97458 0.57639 0.66666 0.0
H2360 H 0.05273 0.76039 0.67326 0.0
H2361 H 0.01452 0.56724 0.69219 0.0
H2362 H 1.00887 0.6443 0.66814 0.0
H2363 H 0.0819 0.68637 0.69389 0.0
C2364 C 0.09241 0.74123 0.69054 0.0
C2365 C 0.08429 0.76288 0.68483 0.0
C2366 C 1.01027 0.62746 0.67341 0.0
C2367 C 0.0506 0.68535 0.68234 0.0
C2368 C 0.99077 0.58856 0.67256 0.0
C2369 C 0.99143 0.56577 0.67933 0.0
C2370 C 0.03093 0.64402 0.68106 0.0
C2371 C 0.01297 0.58349 0.68681 0.0
C2372 C 0.07556 0.70256 0.68934 0.0
C2373 C 0.05965 0.74475 0.67784 0.0
N2374 N 0.03177 0.62144 0.68747 0.0
N2375 N 0.04369 0.70711 0.6768 0.0
H2376 H 0.26642 0.33679 0.70022 0.0
H2377 H 0.43735 0.40316 0.66671 0.0
H2378 H 0.25084 0.30521 0.67294 0.0
H2379 H 0.44886 0.44492 0.69314 0.0
H2380 H 0.36946 0.36811 0.66864 0.0
H2381 H 0.33319 0.37699 0.69757 0.0
C2382 C 0.27707 0.3385 0.69364 0.0
C2383 C 0.25299 0.31765 0.68679 0.0
C2384 C 0.3868 0.38514 0.67399 0.0
C2385 C 0.32992 0.36363 0.68369 0.0
C2386 C 0.42567 0.40524 0.6729 0.0
C2387 C 0.44911 0.42706 0.67979 0.0
C2388 C 0.37103 0.38654 0.68205 0.0
C2389 C 0.43212 0.42856 0.68764 0.0
C2390 C 0.31529 0.36153 0.69213 0.0
C2391 C 0.2684 0.32097 0.6784 0.0
N2392 N 0.39428 0.40843 0.68857 0.0
N2393 N 0.30593 0.34334 0.67709 0.0
H2394 H 0.72791 0.96744 0.67348 0.0
H2395 H 0.56381 0.99843 0.69216 0.0
H2396 H 0.6609 0.90822 0.69594 0.0
H2397 H 0.62233 0.0459 0.66789 0.0
H2398 H 0.59827 0.9647 0.69368 0.0
H2399 H 0.68905 0.99609 0.67134 0.0
C2400 C 0.7049 0.96037 0.67795 0.0
C2401 C 0.69772 0.93552 0.68492 0.0
C2402 C 0.60339 0.98233 0.68799 0.0
C2403 C 0.65308 0.96842 0.68254 0.0
C2404 C 0.58367 1.0016 0.68711 0.0
C2405 C 0.59015 0.02521 0.67989 0.0
C2406 C 0.63 0.98681 0.68163 0.0
C2407 C 0.61632 0.02814 0.67358 0.0
C2408 C 0.68267 0.97672 0.67672 0.0
C2409 C 0.66745 0.92728 0.69048 0.0
N2410 N 0.63535 0.00941 0.67462 0.0
N2411 N 0.64639 0.94384 0.68921 0.0
H2412 H 0.26267 0.90589 0.1958 0.0
H2413 H 0.44152 0.04615 0.16715 0.0
H2414 H 0.25697 0.96684 0.17348 0.0
H2415 H 0.45008 1.00423 0.19246 0.0
H2416 H 0.37355 0.01192 0.16856 0.0
H2417 H 0.33062 0.93626 0.19389 0.0
C2418 C 0.27569 0.92552 0.19047 0.0
C2419 C 0.2541 0.93395 0.18481 0.0
C2420 C 0.39026 0.01008 0.1738 0.0
C2421 C 0.33199 0.96879 0.18256 0.0
C2422 C 0.42922 0.02956 0.17299 0.0
C2423 C 0.45189 0.02829 0.17971 0.0
C2424 C 0.37347 0.98878 0.18136 0.0
C2425 C 0.43395 1.00624 0.18712 0.0
C2426 C 0.31452 0.94294 0.18939 0.0
C2427 C 0.27253 0.95962 0.17801 0.0
N2428 N 0.39591 0.98742 0.18774 0.0
N2429 N 0.31031 0.97608 0.17707 0.0
H2430 H 0.94012 0.37008 0.17291 0.0
H2431 H 0.12215 0.35679 0.18069 0.0
H2432 H 0.03539 0.46233 0.18526 0.0
H2433 H 0.01401 0.26657 0.18833 0.0
H2434 H 0.09412 0.39668 0.17837 0.0
H2435 H 0.97031 0.33222 0.17451 0.0
C2436 C 0.96762 0.38254 0.17586 0.0
C2437 C 0.9853 0.41946 0.17896 0.0
C2438 C 0.07665 0.36808 0.18051 0.0
C2439 C 0.02017 0.37641 0.18064 0.0
C2440 C 0.09248 0.34529 0.18177 0.0
C2441 C 0.0703 0.30839 0.18472 0.0
C2442 C 0.03821 0.35339 0.18192 0.0
C2443 C 0.03206 0.2949 0.18609 0.0
C2444 C 0.98466 0.36084 0.17681 0.0
C2445 C 0.02076 0.43397 0.18282 0.0
N2446 N 0.01714 0.31724 0.18459 0.0
N2447 N 0.03725 0.41252 0.18348 0.0
H2448 H 0.62497 0.57862 0.16731 0.0
H2449 H 0.65804 0.75699 0.19536 0.0
H2450 H 0.56724 0.57023 0.19156 0.0
H2451 H 0.72681 0.76306 0.17343 0.0
H2452 H 0.62039 0.6892 0.19329 0.0
H2453 H 0.65819 0.64653 0.16867 0.0
C2454 C 0.619 0.59095 0.1729 0.0
C2455 C 0.59318 0.56835 0.17934 0.0
C2456 C 0.64363 0.70536 0.18891 0.0
C2457 C 0.63151 0.64666 0.18095 0.0
C2458 C 0.66507 0.74408 0.19007 0.0
C2459 C 0.69573 0.76569 0.18458 0.0
C2460 C 0.65272 0.68804 0.18217 0.0
C2461 C 0.70353 0.74746 0.17784 0.0
C2462 C 0.63816 0.62986 0.17368 0.0
C2463 C 0.5869 0.5863 0.18644 0.0
N2464 N 0.68225 0.70978 0.17683 0.0
N2465 N 0.60592 0.62427 0.18705 0.0
H2466 H 0.28608 0.9126 0.01963 0.0
H2467 H 0.34377 0.11345 0.99915 0.0
H2468 H 0.27419 0.93131 0.9923 0.0
H2469 H 0.37453 0.09911 0.02531 0.0
H2470 H 0.31183 0.04583 0.9971 0.0
H2471 H 0.31263 0.97978 0.02238 0.0
C2472 C 0.2888 0.9308 0.01423 0.0
C2473 C 0.27789 0.91639 1.00573 0.0
C2474 C 0.32541 0.05743 1.00331 0.0
C2475 C 0.30821 0.99318 1.0088 0.0
C2476 C 0.34356 0.09613 1.0045 0.0
C2477 C 0.3621 0.11222 1.01241 0.0
C2478 C 0.32551 0.03435 1.01007 0.0
C2479 C 0.36079 0.0881 0.01909 0.0
C2480 C 0.30406 0.96914 0.01579 0.0
C2481 C 0.28228 0.94125 0.99896 0.0
N2482 N 0.34295 0.05048 0.01776 0.0
N2483 N 0.29704 0.97831 1.00063 0.0
H2484 H 0.0978 0.38806 0.01985 0.0
H2485 H 0.9024 0.22833 1.00051 0.0
H2486 H 0.0896 0.32126 0.99734 0.0
H2487 H 0.91325 0.28095 0.02564 0.0
H2488 H 0.97055 0.26241 0.99909 0.0
H2489 H 0.03011 0.3497 0.02195 0.0
C2490 C 0.08175 0.3652 0.01537 0.0
C2491 C 0.09935 0.35792 1.00839 0.0
C2492 C 0.95802 0.26632 1.00494 0.0
C2493 C 0.02168 0.31396 1.01071 0.0
C2494 C 0.91902 0.24684 1.00576 0.0
C2495 C 0.90181 0.2517 0.0132 0.0
C2496 C 0.98016 0.29121 1.01156 0.0
C2497 C 0.92505 0.27615 0.01978 0.0
C2498 C 0.04309 0.34327 0.01658 0.0
C2499 C 0.07717 0.32788 1.0028 0.0
N2500 N 0.96287 0.2951 0.01877 0.0
N2501 N 0.03952 0.3072 1.00404 0.0
H2502 H 0.79069 0.68144 1.00044 0.0
H2503 H 0.62788 0.71365 0.01949 0.0
H2504 H 0.73321 0.63475 0.02486 0.0
H2505 H 0.69571 0.77415 0.99724 0.0
H2506 H 0.66627 0.68438 0.02147 0.0
H2507 H 0.75659 0.71562 0.99904 0.0
C2508 C 0.77113 0.67851 1.00554 0.0
C2509 C 0.76486 0.65501 1.01277 0.0
C2510 C 0.67294 0.70417 0.01617 0.0
C2511 C 0.72542 0.69392 1.01117 0.0
C2512 C 0.65097 0.72088 0.01504 0.0
C2513 C 0.65852 0.74629 1.00817 0.0
C2514 C 0.7026 0.71265 1.01036 0.0
C2515 C 0.68888 0.75469 1.00262 0.0
C2516 C 0.75163 0.69805 1.00473 0.0
C2517 C 0.73907 0.65242 0.01916 0.0
N2518 N 0.70964 0.73775 1.00379 0.0
N2519 N 0.72024 0.67137 0.01818 0.0
H2520 H 0.77135 0.06461 0.85308 0.0
H2521 H 0.57043 1.00242 0.83191 0.0
H2522 H 0.75339 0.07359 0.82555 0.0
H2523 H 0.58466 0.97561 0.85848 0.0
H2524 H 0.63821 0.03473 0.82995 0.0
H2525 H 0.70393 0.03769 0.85565 0.0
C2526 C 0.75324 0.06113 0.8476 0.0
C2527 C 0.76792 0.0713 0.83909 0.0
C2528 C 0.62654 0.02194 0.83622 0.0
C2529 C 0.69089 0.04062 0.84195 0.0
C2530 C 0.58775 1.00357 0.83736 0.0
C2531 C 0.5716 0.98604 0.84536 0.0
C2532 C 0.64961 0.02305 0.84314 0.0
C2533 C 0.59571 0.98853 0.85218 0.0
C2534 C 0.71478 0.04569 0.84905 0.0
C2535 C 0.74322 0.06606 0.83221 0.0
N2536 N 0.6334 1.00654 0.8509 0.0
N2537 N 0.70603 0.05113 0.83379 0.0
H2538 H 0.95313 0.70892 0.85327 0.0
H2539 H 0.01305 0.56819 0.83211 0.0
H2540 H 0.94183 0.6801 0.82584 0.0
H2541 H 0.04177 0.61053 0.85853 0.0
H2542 H 0.98117 0.60413 0.83018 0.0
H2543 H 0.98037 0.66866 0.8558 0.0
C2544 C 0.95617 0.69396 0.8478 0.0
C2545 C 0.94519 0.69786 0.83934 0.0
C2546 C 0.9943 0.60545 0.83642 0.0
C2547 C 0.97627 0.65172 0.84215 0.0
C2548 C 0.01242 0.58475 0.83754 0.0
C2549 C 0.03034 0.5863 0.84549 0.0
C2550 C 0.99379 0.62788 0.8433 0.0
C2551 C 0.02852 0.60847 0.85227 0.0
C2552 C 0.97181 0.67106 0.84923 0.0
C2553 C 0.94995 0.67796 0.83247 0.0
N2554 N 1.01072 0.62837 0.85102 0.0
N2555 N 0.96505 0.65583 0.83402 0.0
H2556 H 0.32823 0.24255 0.85378 0.0
H2557 H 0.42985 0.44497 0.8319 0.0
H2558 H 0.29977 0.26556 0.82822 0.0
H2559 H 0.41655 0.43202 0.85999 0.0
H2560 H 0.39173 0.37735 0.83027 0.0
H2561 H 0.36926 0.31025 0.85607 0.0
C2562 C 0.33064 0.26178 0.84866 0.0
C2563 C 0.31052 0.2484 0.84081 0.0
C2564 C 0.3973 0.38928 0.83679 0.0
C2565 C 0.35775 0.32546 0.8433 0.0
C2566 C 0.41932 0.42794 0.83775 0.0
C2567 C 0.42647 0.4444 0.8461 0.0
C2568 C 0.38266 0.36654 0.84425 0.0
C2569 C 0.41166 0.42063 0.85342 0.0
C2570 C 0.35394 0.30032 0.84998 0.0
C2571 C 0.31464 0.27457 0.83439 0.0
N2572 N 0.39056 0.38289 0.85233 0.0
N2573 N 0.33794 0.31168 0.83574 0.0
H2574 H 0.64666 0.91316 1.00033 0.0
H2575 H 0.74466 0.0827 0.03436 0.0
H2576 H 0.67328 0.90058 0.02703 0.0
H2577 H 0.73445 0.09903 1.00679 0.0
H2578 H 0.71843 0.01592 0.03171 0.0
H2579 H 0.67872 0.98087 1.00242 0.0
C2580 C 0.65946 0.92457 1.00661 0.0
C2581 C 0.65708 0.90091 0.01352 0.0
C2582 C 0.72205 0.03401 0.02621 0.0
C2583 C 0.69366 0.97873 0.01598 0.0
C2584 C 0.737 0.07219 0.02772 0.0
C2585 C 0.74174 0.09645 0.02078 0.0
C2586 C 0.71133 0.01969 0.01769 0.0
C2587 C 0.73132 0.08129 1.01232 0.0
C2588 C 0.67778 0.96333 1.0078 0.0
C2589 C 0.67433 0.91754 0.02151 0.0
N2590 N 0.71641 0.04385 1.01102 0.0
N2591 N 0.69159 0.95527 0.02253 0.0
H2592 H 0.92796 0.69102 0.02916 0.0
H2593 H 0.10657 0.73271 1.00007 0.0
H2594 H 0.92249 0.62583 1.00655 0.0
H2595 H 0.1151 0.78125 0.02564 0.0
H2596 H 0.03864 0.69863 1.00152 0.0
H2597 H 0.99576 0.72929 0.02716 0.0
C2598 C 0.94101 0.68489 0.02375 0.0
C2599 C 0.91957 0.65507 0.01804 0.0
C2600 C 0.05534 0.71683 1.0068 0.0
C2601 C 0.99721 0.69888 0.01568 0.0
C2602 C 0.09426 0.7365 1.00597 0.0
C2603 C 0.11688 0.75996 1.01275 0.0
C2604 C 0.03858 0.72068 0.01445 0.0
C2605 C 0.09897 0.76347 0.02024 0.0
C2606 C 0.97974 0.70669 0.02262 0.0
C2607 C 0.93797 0.64843 1.01113 0.0
N2608 N 0.06098 0.74407 0.02089 0.0
N2609 N 0.97567 0.67012 1.01015 0.0
H2610 H 0.28533 0.37786 1.00082 0.0
H2611 H 0.32371 0.23713 0.02925 0.0
H2612 H 0.2309 0.33198 0.02559 0.0
H2613 H 0.38996 0.29877 1.00692 0.0
H2614 H 0.2852 0.2665 0.02733 0.0
H2615 H 0.31924 0.34397 1.00226 0.0
C2616 C 0.28026 0.36048 1.00656 0.0
C2617 C 0.25517 0.358 0.01312 0.0
C2618 C 0.30808 0.27353 0.02284 0.0
C2619 C 0.29434 0.31888 0.0148 0.0
C2620 C 0.33002 0.25669 0.02391 0.0
C2621 C 0.36021 0.26565 0.01826 0.0
C2622 C 0.31618 0.29933 0.01601 0.0
C2623 C 0.36708 0.29117 1.01146 0.0
C2624 C 0.29981 0.34116 1.00738 0.0
C2625 C 0.24995 0.33488 0.02037 0.0
N2626 N 0.3453 0.30709 1.01053 0.0
N2627 N 0.2694 0.3163 0.02103 0.0
H2628 H 0.10641 0.36841 0.50002 0.0
H2629 H 0.93633 0.27503 0.53422 0.0
H2630 H 0.119 0.35041 0.5274 0.0
H2631 H 0.92 0.28159 0.50649 0.0
H2632 H 1.00331 0.30224 0.53168 0.0
H2633 H 0.03856 0.33623 0.50205 0.0
C2634 C 0.09502 0.35752 0.50645 0.0
C2635 C 0.11877 0.36235 0.51356 0.0
C2636 C 0.9852 0.29764 0.52612 0.0
C2637 C 0.04073 0.32557 0.51593 0.0
C2638 C 0.94688 0.2821 0.52757 0.0
C2639 C 0.92253 0.27601 0.52055 0.0
C2640 C 0.99963 0.30755 0.51757 0.0
C2641 C 0.9378 0.28575 0.51208 0.0
C2642 C 0.05617 0.33914 0.5076 0.0
C2643 C 0.10207 0.34751 0.52172 0.0
N2644 N 0.97539 0.30119 0.51083 0.0
N2645 N 0.06428 0.33006 0.52268 0.0
H2646 H 0.68687 0.7884 0.52552 0.0
H2647 H 0.71971 0.62612 0.50646 0.0
H2648 H 0.63937 0.73032 0.50122 0.0
H2649 H 0.78039 0.69432 0.52862 0.0
H2650 H 0.68995 0.66409 0.50451 0.0
H2651 H 0.72136 0.75462 0.52686 0.0
C2652 C 0.68382 0.76877 0.52044 0.0
C2653 C 0.66002 0.76225 0.51325 0.0
C2654 C 0.70989 0.67093 0.50978 0.0
C2655 C 0.6993 0.72316 0.51479 0.0
C2656 C 0.72687 0.6492 0.5109 0.0
C2657 C 0.75247 0.65697 0.51773 0.0
C2658 C 0.71829 0.70058 0.51558 0.0
C2659 C 0.76078 0.68732 0.52327 0.0
C2660 C 0.70355 0.74945 0.52121 0.0
C2661 C 0.65729 0.73637 0.50689 0.0
N2662 N 0.74359 0.70784 0.52211 0.0
N2663 N 0.67644 0.71772 0.50783 0.0
H2664 H 0.2947 0.91151 0.50118 0.0
H2665 H 0.32475 0.09073 0.52837 0.0
H2666 H 0.23065 0.90396 0.52425 0.0
H2667 H 0.39588 0.09583 0.50707 0.0
H2668 H 0.28677 0.02299 0.5263 0.0
H2669 H 0.32857 0.97935 0.50257 0.0
C2670 C 0.28751 0.92403 0.50652 0.0
C2671 C 0.25969 0.90171 0.51262 0.0
C2672 C 0.31061 0.03891 0.52206 0.0
C2673 C 0.29878 0.97996 0.51426 0.0
C2674 C 0.33226 0.07761 0.52322 0.0
C2675 C 0.36364 0.09893 0.51791 0.0
C2676 C 0.32027 0.02133 0.5155 0.0
C2677 C 0.37203 0.08045 0.51134 0.0
C2678 C 0.30702 0.96292 0.50732 0.0
C2679 C 0.25184 0.91986 0.5194 0.0
N2680 N 0.35056 0.04279 0.51033 0.0
N2681 N 0.27131 0.95784 0.52004 0.0
H2682 H 0.03935 0.43238 0.35901 0.0
H2683 H 0.94326 0.262 0.32513 0.0
H2684 H 0.01409 0.44428 0.33214 0.0
H2685 H 0.95299 0.24632 0.35276 0.0
H2686 H 0.96934 0.3288 0.32767 0.0
H2687 H 1.00784 0.36466 0.35699 0.0
C2688 C 0.02696 0.42081 0.3527 0.0
C2689 C 0.02956 0.44431 0.34573 0.0
C2690 C 0.96567 0.31086 0.3332 0.0
C2691 C 0.99359 0.36642 0.34336 0.0
C2692 C 0.95081 0.27265 0.33175 0.0
C2693 C 0.94594 0.24854 0.33874 0.0
C2694 C 0.97617 0.32541 0.34171 0.0
C2695 C 0.95622 0.26392 0.34718 0.0
C2696 C 1.00896 0.38204 0.35156 0.0
C2697 C 0.01284 0.42746 0.33771 0.0
N2698 N 0.97103 0.30141 0.34843 0.0
N2699 N 0.99587 0.3897 0.33674 0.0
H2700 H 0.77181 0.70895 0.35312 0.0
H2701 H 0.57071 0.56923 0.33219 0.0
H2702 H 0.75329 0.68138 0.32563 0.0
H2703 H 0.58493 0.61142 0.35864 0.0
H2704 H 0.63844 0.60485 0.33019 0.0
H2705 H 0.70441 0.66857 0.35576 0.0
C2706 C 0.75359 0.69423 0.34766 0.0
C2707 C 0.76811 0.69853 0.33914 0.0
C2708 C 0.62679 0.60621 0.33645 0.0
C2709 C 0.69112 0.65228 0.3421 0.0
C2710 C 0.58802 0.58569 0.33762 0.0
C2711 C 0.57187 0.58733 0.34559 0.0
C2712 C 0.64986 0.62852 0.34332 0.0
C2713 C 0.59599 0.60933 0.35236 0.0
C2714 C 0.71514 0.67127 0.34916 0.0
C2715 C 0.74327 0.67892 0.33229 0.0
N2716 N 0.63366 0.62908 0.35107 0.0
N2717 N 0.70612 0.65672 0.33392 0.0
H2718 H 0.30855 0.06693 0.35342 0.0
H2719 H 0.44965 0.00695 0.3325 0.0
H2720 H 0.33925 0.07898 0.32609 0.0
H2721 H 0.4059 0.97686 0.35879 0.0
H2722 H 0.41466 0.03973 0.33064 0.0
H2723 H 0.3489 0.03983 0.35611 0.0
C2724 C 0.32404 0.06421 0.34802 0.0
C2725 C 0.32058 0.07525 0.33952 0.0
C2726 C 0.41281 0.02611 0.33684 0.0
C2727 C 0.36666 0.04428 0.34252 0.0
C2728 C 0.43296 0.00745 0.33792 0.0
C2729 C 0.43072 0.98886 0.3458 0.0
C2730 C 0.39018 0.02647 0.3437 0.0
C2731 C 0.40845 0.99061 0.35258 0.0
C2732 C 0.34693 0.0486 0.34954 0.0
C2733 C 0.34102 0.07079 0.33274 0.0
N2734 N 0.38902 0.00892 0.35137 0.0
N2735 N 0.36308 0.05572 0.33438 0.0
H2736 H 0.10441 0.34644 0.07436 0.0
H2737 H 0.18838 0.30934 0.1182 0.0
H2738 H 0.21192 0.35299 0.07501 0.0
H2739 H 0.08971 0.31993 0.11739 0.0
H2740 H 0.19603 0.32096 0.10232 0.0
H2741 H 0.09707 0.33222 0.08998 0.0
C2742 C 0.12637 0.34449 0.07776 0.0
C2743 C 0.15876 0.35072 0.0733 0.0
C2744 C 0.17276 0.32078 0.10563 0.0
C2745 C 0.1507 0.33484 0.09137 0.0
C2746 C 0.16826 0.31395 0.11469 0.0
C2747 C 0.13849 0.3139 0.11918 0.0
C2748 C 0.14709 0.32721 0.101 0.0
C2749 C 0.11345 0.32031 0.11427 0.0
C2750 C 0.12228 0.33665 0.08673 0.0
C2751 C 0.18658 0.34862 0.07817 0.0
N2752 N 0.11829 0.32662 0.10549 0.0
N2753 N 0.18188 0.34078 0.08693 0.0
H2754 H 0.66476 0.76283 0.07476 0.0
H2755 H 0.69842 0.88573 0.11809 0.0
H2756 H 0.65587 0.86244 0.07486 0.0
H2757 H 0.68986 0.77738 0.11782 0.0
H2758 H 0.68606 0.88011 0.10223 0.0
H2759 H 0.67758 0.77033 0.09044 0.0
C2760 C 0.66587 0.78656 0.07806 0.0
C2761 C 0.65946 0.81219 0.07342 0.0
C2762 C 0.68675 0.85754 0.10567 0.0
C2763 C 0.67372 0.82071 0.09155 0.0
C2764 C 0.69395 0.86078 0.11471 0.0
C2765 C 0.69496 0.83188 0.11934 0.0
C2766 C 0.68092 0.82534 0.10119 0.0
C2767 C 0.68873 0.80012 0.1146 0.0
C2768 C 0.6729 0.79065 0.08706 0.0
C2769 C 0.66044 0.84189 0.07815 0.0
N2770 N 0.68213 0.7978 0.10582 0.0
N2771 N 0.66755 0.84541 0.08694 0.0
H2772 H 0.13513 0.81594 0.11813 0.0
H2773 H 0.25546 0.90893 0.07465 0.0
H2774 H 0.2422 0.91735 0.11779 0.0
H2775 H 0.15867 0.79841 0.07479 0.0
H2776 H 0.24822 0.9134 0.09038 0.0
H2777 H 0.14062 0.80974 0.10224 0.0
C2778 C 0.15977 0.83687 0.11473 0.0
C2779 C 0.18836 0.86709 0.11935 0.0
C2780 C 0.22846 0.88812 0.087 0.0
C2781 C 0.19474 0.86024 0.10116 0.0
C2782 C 0.23241 0.88567 0.07797 0.0
C2783 C 0.20748 0.85333 0.07334 0.0
C2784 C 0.19924 0.8581 0.09151 0.0
C2785 C 0.17865 0.8238 0.07809 0.0
C2786 C 0.16295 0.83323 0.10567 0.0
C2787 C 0.21973 0.89324 0.11458 0.0
N2788 N 0.17523 0.82693 0.0869 0.0
N2789 N 0.22198 0.88926 0.10579 0.0
H2790 H 0.30272 0.13594 0.45441 0.0
H2791 H 0.38416 0.1812 0.40535 0.0
H2792 H 0.42021 0.20179 0.44831 0.0
H2793 H 0.2668 0.11327 0.41135 0.0
H2794 H 0.39752 0.19171 0.42104 0.0
H2795 H 0.2887 0.13008 0.4387 0.0
C2796 C 0.32561 0.14924 0.44978 0.0
C2797 C 0.36277 0.16931 0.45274 0.0
C2798 C 0.36881 0.17463 0.41893 0.0
C2799 C 0.3468 0.16282 0.43467 0.0
C2800 C 0.36115 0.16845 0.40995 0.0
C2801 C 0.32427 0.14612 0.40697 0.0
C2802 C 0.33944 0.15833 0.42504 0.0
C2803 C 0.29563 0.13097 0.41329 0.0
C2804 C 0.31754 0.14599 0.4408 0.0
C2805 C 0.39112 0.1864 0.4464 0.0
N2806 N 0.30383 0.13718 0.422 0.0
N2807 N 0.38257 0.1826 0.4377 0.0
H2808 H 0.86996 0.1259 0.4109 0.0
H2809 H 0.83816 0.24467 0.44805 0.0
H2810 H 0.86525 0.22604 0.40562 0.0
H2811 H 0.85657 0.15292 0.45376 0.0
H2812 H 0.84207 0.23452 0.43239 0.0
H2813 H 0.85977 0.13203 0.42647 0.0
C2814 C 0.86679 0.1492 0.41299 0.0
C2815 C 0.86872 0.17559 0.40688 0.0
C2816 C 0.84511 0.21648 0.43706 0.0
C2817 C 0.8566 0.18254 0.42477 0.0
C2818 C 0.84259 0.22208 0.44602 0.0
C2819 C 0.84704 0.19963 0.45228 0.0
C2820 C 0.85203 0.18811 0.43427 0.0
C2821 C 0.85339 0.17121 0.44921 0.0
C2822 C 0.86081 0.15257 0.4219 0.0
C2823 C 0.8636 0.20472 0.41002 0.0
N2824 N 0.85572 0.1663 0.44044 0.0
N2825 N 0.85795 0.20746 0.41872 0.0
H2826 H 0.85042 0.75255 0.4114 0.0
H2827 H 0.8326 0.60689 0.44848 0.0
H2828 H 0.84158 0.64628 0.40562 0.0
H2829 H 0.82424 0.70506 0.45374 0.0
H2830 H 0.84201 0.62369 0.43294 0.0
H2831 H 0.84748 0.73861 0.42706 0.0
C2832 C 0.84829 0.72644 0.41342 0.0
C2833 C 0.84626 0.70056 0.40715 0.0
C2834 C 0.83829 0.64164 0.4375 0.0
C2835 C 0.84245 0.68421 0.42514 0.0
C2836 C 0.83276 0.632 0.4464 0.0
C2837 C 0.82734 0.65441 0.45249 0.0
C2838 C 0.83858 0.67405 0.43463 0.0
C2839 C 0.82867 0.68705 0.44935 0.0
C2840 C 0.84633 0.71838 0.42237 0.0
C2841 C 0.84285 0.6669 0.41019 0.0
N2842 N 0.83399 0.69575 0.44066 0.0
N2843 N 0.84104 0.65971 0.41896 0.0
H2844 H 0.83194 0.63365 0.90536 0.0
H2845 H 0.87774 0.71545 0.95435 0.0
H2846 H 0.89797 0.75114 0.91131 0.0
H2847 H 0.81341 0.59785 0.94837 0.0
H2848 H 0.8825 0.72929 0.93865 0.0
H2849 H 0.82193 0.62027 0.92107 0.0
C2850 C 0.84433 0.65668 0.90996 0.0
C2851 C 0.86599 0.69361 0.90696 0.0
C2852 C 0.86715 0.70045 0.94077 0.0
C2853 C 0.85442 0.67842 0.92503 0.0
C2854 C 0.86455 0.6925 0.94975 0.0
C2855 C 0.84524 0.65537 0.95274 0.0
C2856 C 0.85046 0.67112 0.93467 0.0
C2857 C 0.82822 0.62691 0.94643 0.0
C2858 C 0.83845 0.649 0.91894 0.0
C2859 C 0.88076 0.72227 0.91326 0.0
N2860 N 0.83141 0.63536 0.93772 0.0
N2861 N 0.87488 0.71406 0.92197 0.0
H2862 H 0.26825 0.19139 0.91139 0.0
H2863 H 0.39273 0.17272 0.94927 0.0
H2864 H 0.35258 0.16121 0.9064 0.0
H2865 H 0.31566 0.21289 0.95368 0.0
H2866 H 0.37547 0.16415 0.93375 0.0
H2867 H 0.28187 0.19457 0.92706 0.0
C2868 C 0.28937 0.18503 0.91358 0.0
C2869 C 0.30927 0.17602 0.90751 0.0
C2870 C 0.36222 0.17468 0.93813 0.0
C2871 C 0.3254 0.1801 0.92554 0.0
C2872 C 0.37217 0.17974 0.94701 0.0
C2873 C 0.35577 0.1937 0.95286 0.0
C2874 C 0.33558 0.18357 0.93502 0.0
C2875 C 0.32877 0.20161 0.9495 0.0
C2876 C 0.29734 0.18713 0.92255 0.0
C2877 C 0.33681 0.16873 0.91079 0.0
N2878 N 0.31968 0.19657 0.94083 0.0
N2879 N 0.34406 0.17095 0.91956 0.0
H2880 H 0.8505 0.10102 0.9114 0.0
H2881 H 0.8164 0.21799 0.94861 0.0
H2882 H 0.83 0.19145 0.90572 0.0
H2883 H 0.82273 0.1187 0.95384 0.0
H2884 H 0.82663 0.21209 0.93303 0.0
H2885 H 0.84631 0.11089 0.92706 0.0
C2886 C 0.84554 0.12326 0.91343 0.0
C2887 C 0.8406 0.14542 0.90718 0.0
C2888 C 0.82593 0.19168 0.9376 0.0
C2889 C 0.83531 0.15662 0.9252 0.0
C2890 C 0.81993 0.19492 0.94651 0.0
C2891 C 0.81845 0.1687 0.95261 0.0
C2892 C 0.83063 0.16203 0.9347 0.0
C2893 C 0.82403 0.13988 0.94945 0.0
C2894 C 0.84287 0.1287 0.9224 0.0
C2895 C 0.83358 0.17339 0.91027 0.0
N2896 N 0.8297 0.13727 0.94074 0.0
N2897 N 0.83113 0.17815 0.91904 0.0
H2898 H 0.65764 0.79579 0.57483 0.0
H2899 H 0.68608 0.91567 0.61844 0.0
H2900 H 0.66151 0.90198 0.57537 0.0
H2901 H 0.69933 0.81857 0.61809 0.0
H2902 H 0.67324 0.90825 0.60276 0.0
H2903 H 0.66956 0.80105 0.5907 0.0
C2904 C 0.66098 0.82018 0.57827 0.0
C2905 C 0.6588 0.8486 0.57371 0.0
C2906 C 0.67887 0.88846 0.60609 0.0
C2907 C 0.67233 0.85474 0.59188 0.0
C2908 C 0.68591 0.89248 0.61509 0.0
C2909 C 0.69358 0.86756 0.61965 0.0
C2910 C 0.67934 0.85918 0.60152 0.0
C2911 C 0.69378 0.83859 0.61486 0.0
C2912 C 0.66793 0.82323 0.58732 0.0
C2913 C 0.66358 0.87966 0.57853 0.0
N2914 N 0.68667 0.83513 0.60606 0.0
N2915 N 0.66997 0.8818 0.58732 0.0
H2916 H 0.20271 0.78578 0.57774 0.0
H2917 H 0.13128 0.87065 0.6154 0.0
H2918 H 0.14579 0.84731 0.57252 0.0
H2919 H 0.18514 0.80623 0.62069 0.0
H2920 H 0.14023 0.86604 0.59971 0.0
H2921 H 0.2003 0.79653 0.59343 0.0
C2922 C 0.19007 0.80193 0.57986 0.0
C2923 C 0.17437 0.81558 0.57374 0.0
C2924 C 0.15027 0.85305 0.6043 0.0
C2925 C 0.17108 0.8276 0.59181 0.0
C2926 C 0.14543 0.85593 0.61329 0.0
C2927 C 0.15742 0.83878 0.61943 0.0
C2928 C 0.16725 0.83287 0.60136 0.0
C2929 C 0.17496 0.8195 0.61622 0.0
C2930 C 0.18847 0.80783 0.58885 0.0
C2931 C 0.15781 0.83578 0.57697 0.0
N2932 N 0.17924 0.817 0.60743 0.0
N2933 N 0.15655 0.84109 0.58575 0.0
H2934 H 0.23162 0.41702 0.57737 0.0
H2935 H 0.16083 0.26015 0.61489 0.0
H2936 H 0.17714 0.29886 0.57198 0.0
H2937 H 0.21517 0.37833 0.62024 0.0
H2938 H 0.16334 0.27355 0.5992 0.0
H2939 H 0.22253 0.40319 0.59305 0.0
C2940 C 0.21732 0.38812 0.57946 0.0
C2941 C 0.20523 0.3591 0.57328 0.0
C2942 C 0.17458 0.29657 0.60381 0.0
C2943 C 0.19523 0.34304 0.59135 0.0
C2944 C 0.17293 0.28892 0.61279 0.0
C2945 C 0.1879 0.31813 0.61895 0.0
C2946 C 0.19132 0.33375 0.6009 0.0
C2947 C 0.20377 0.35488 0.61576 0.0
C2948 C 0.21239 0.38025 0.58844 0.0
C2949 C 0.18746 0.32223 0.57646 0.0
N2950 N 0.20513 0.3616 0.60699 0.0
N2951 N 0.18313 0.3153 0.58524 0.0
H2952 H 0.9318 0.43177 0.74483 0.0
H2953 H 0.07613 0.55908 0.78215 0.0
H2954 H 0.03675 0.53127 0.73925 0.0
H2955 H 0.97963 0.45093 0.7871 0.0
H2956 H 0.05923 0.5525 0.76662 0.0
H2957 H 0.94575 0.44183 0.76049 0.0
C2958 C 0.95761 0.45601 0.74689 0.0
C2959 C 0.98311 0.48071 0.74067 0.0
C2960 C 0.04167 0.53029 0.77112 0.0
C2961 C 0.9995 0.49219 0.75868 0.0
C2962 C 0.05137 0.53394 0.78 0.0
C2963 C 0.02945 0.50543 0.786 0.0
C2964 C 1.00969 0.49794 0.76816 0.0
C2965 C 0.99724 0.47388 0.78279 0.0
C2966 C 0.96569 0.46157 0.75585 0.0
C2967 C 0.01642 0.51126 0.74378 0.0
N2968 N 0.98847 0.47095 0.77411 0.0
N2969 N 0.02363 0.51611 0.75254 0.0
H2970 H 0.55599 0.47632 0.74395 0.0
H2971 H 0.49157 0.56794 0.78155 0.0
H2972 H 0.50729 0.54541 0.73859 0.0
H2973 H 0.54153 0.49993 0.78681 0.0
H2974 H 0.49362 0.55699 0.76585 0.0
H2975 H 0.54733 0.48152 0.75963 0.0
C2976 C 0.54302 0.49221 0.74605 0.0
C2977 C 0.53241 0.51048 0.73988 0.0
C2978 C 0.504 0.54433 0.77044 0.0
C2979 C 0.52295 0.51707 0.75795 0.0
C2980 C 0.5026 0.55036 0.77943 0.0
C2981 C 0.51648 0.53494 0.78557 0.0
C2982 C 0.51937 0.52265 0.7675 0.0
C2983 C 0.531 0.51288 0.78236 0.0
C2984 C 0.53836 0.49542 0.75503 0.0
C2985 C 0.51639 0.53124 0.74307 0.0
N2986 N 0.53213 0.5075 0.77357 0.0
N2987 N 0.51226 0.53404 0.75186 0.0
H2988 H 0.52618 0.08562 0.7448 0.0
H2989 H 0.49134 0.93221 0.7814 0.0
H2990 H 0.50423 0.97458 0.73868 0.0
H2991 H 0.49562 0.0366 0.78703 0.0
H2992 H 0.50228 0.94958 0.76591 0.0
H2993 H 0.52179 0.07057 0.76042 0.0
C2994 C 0.52087 0.05818 0.74673 0.0
C2995 C 0.5156 0.03135 0.74038 0.0
C2996 C 0.50099 0.96875 0.77054 0.0
C2997 C 0.51011 0.01375 0.75833 0.0
C2998 C 0.49459 0.9588 0.77941 0.0
C2999 C 0.49225 0.9828 0.78559 0.0
C3000 C 0.50525 1.00307 0.76778 0.0
C3001 C 0.49755 0.01727 0.78257 0.0
C3002 C 0.51809 0.04952 0.75566 0.0
C3003 C 0.50812 0.99604 0.74332 0.0
N3004 N 0.50362 0.02625 0.7739 0.0
N3005 N 0.5056 0.98829 0.75206 0.0
H3006 H 0.56362 0.08554 0.24431 0.0
H3007 H 0.47832 0.92837 0.28175 0.0
H3008 H 0.50102 0.96734 0.23891 0.0
H3009 H 0.54234 0.04648 0.28719 0.0
H3010 H 0.48281 0.94232 0.26608 0.0
H3011 H 0.55261 0.072 0.25998 0.0
C3012 C 0.54716 0.05673 0.24639 0.0
C3013 C 0.53332 0.02756 0.24022 0.0
C3014 C 0.49573 0.96522 0.2707 0.0
C3015 C 0.52105 0.01179 0.25827 0.0
C3016 C 0.49293 0.95729 0.27968 0.0
C3017 C 0.51001 0.98626 0.28586 0.0
C3018 C 0.51578 1.00245 0.26781 0.0
C3019 C 0.52914 0.02316 0.2827 0.0
C3020 C 0.54112 0.04901 0.25537 0.0
C3021 C 0.51273 0.99076 0.24339 0.0
N3022 N 0.53158 0.03015 0.27392 0.0
N3023 N 0.50733 0.98396 0.25217 0.0
H3024 H 0.02495 0.48242 0.28473 0.0
H3025 H 1.00443 0.58022 0.24131 0.0
H3026 H 0.02717 0.58784 0.28442 0.0
H3027 H 0.98452 0.46737 0.24141 0.0
H3028 H 0.01612 0.58407 0.25704 0.0
H3029 H 0.01307 0.47681 0.26885 0.0
C3030 C 0.02294 0.50435 0.28134 0.0
C3031 C 0.02683 0.53553 0.28595 0.0
C3032 C 1.00922 0.55841 0.25365 0.0
C3033 C 0.01337 0.52935 0.26779 0.0
C3034 C 1.00281 0.55628 0.24463 0.0
C3035 C 0.9937 0.52349 0.23998 0.0
C3036 C 1.00668 0.52757 0.25815 0.0
C3037 C 0.99125 0.49314 0.24472 0.0
C3038 C 0.01601 0.50106 0.27228 0.0
C3039 C 0.02375 0.56299 0.2812 0.0
N3040 N 0.99783 0.49595 0.25353 0.0
N3041 N 0.01736 0.5593 0.27242 0.0
H3042 H 0.4807 0.51533 0.23878 0.0
H3043 H 0.51698 0.4702 0.2878 0.0
H3044 H 0.53044 0.4477 0.24476 0.0
H3045 H 0.46509 0.5358 0.28174 0.0
H3046 H 0.52539 0.46457 0.2721 0.0
H3047 H 0.47796 0.52596 0.25446 0.0
C3048 C 0.49105 0.50268 0.24338 0.0
C3049 C 0.50566 0.4804 0.2404 0.0
C3050 C 0.51236 0.48038 0.2742 0.0
C3051 C 0.50281 0.49272 0.25845 0.0
C3052 C 0.5074 0.4835 0.28318 0.0
C3053 C 0.49015 0.50341 0.28615 0.0
C3054 C 0.4999 0.49719 0.26809 0.0
C3055 C 0.4789 0.52052 0.27981 0.0
C3056 C 0.48964 0.50893 0.25235 0.0
C3057 C 0.51927 0.46536 0.24671 0.0
N3058 N 0.48378 0.51684 0.27111 0.0
N3059 N 0.51732 0.47162 0.25541 0.0
H3060 H 0.92869 0.09327 0.27792 0.0
H3061 H 0.08893 0.25259 0.24799 0.0
H3062 H 1.0095 0.20214 0.28774 0.0
H3063 H 0.01479 0.14018 0.23906 0.0
H3064 H 0.05816 0.23588 0.26233 0.0
H3065 H 0.95823 0.11095 0.26351 0.0
C3066 C 0.95277 0.12084 0.27709 0.0
C3067 C 0.96661 0.14611 0.28414 0.0
C3068 C 0.04859 0.21487 0.25724 0.0
C3069 C 1.00043 0.16682 0.26749 0.0
C3070 C 0.06601 0.22446 0.24901 0.0
C3071 C 0.05456 0.19777 0.24227 0.0
C3072 C 0.01929 0.17831 0.25877 0.0
C3073 C 0.02499 0.1616 0.24406 0.0
C3074 C 0.96953 0.13101 0.26881 0.0
C3075 C 0.99747 0.18177 0.28252 0.0
N3076 N 1.00843 0.15299 0.25211 0.0
N3077 N 0.01331 0.19099 0.2744 0.0
H3078 H 0.90203 0.88426 0.28549 0.0
H3079 H 0.79955 0.79813 0.23961 0.0
H3080 H 0.83947 0.7659 0.28031 0.0
H3081 H 0.85877 0.91596 0.24553 0.0
H3082 H 0.81336 0.78542 0.25442 0.0
H3083 H 0.88644 0.89603 0.27083 0.0
C3084 C 0.88514 0.86069 0.28126 0.0
C3085 C 0.87224 0.82399 0.28418 0.0
C3086 C 0.82333 0.81405 0.25247 0.0
C3087 C 0.85391 0.83736 0.26729 0.0
C3088 C 0.8153 0.82136 0.24402 0.0
C3089 C 0.8281 0.85825 0.24124 0.0
C3090 C 0.84433 0.84381 0.25826 0.0
C3091 C 0.84882 0.88712 0.24726 0.0
C3092 C 0.87605 0.86745 0.27289 0.0
C3093 C 0.8498 0.79464 0.27842 0.0
N3094 N 0.85625 0.87929 0.25544 0.0
N3095 N 0.84149 0.80195 0.27026 0.0
H3096 H 0.25495 0.07687 0.2802 0.0
H3097 H 0.1003 0.9441 0.24518 0.0
H3098 H 0.13609 0.0223 0.28477 0.0
H3099 H 0.21865 1.0021 0.23973 0.0
H3100 H 0.1134 0.97167 0.2598 0.0
H3101 H 0.24279 0.04841 0.26559 0.0
C3102 C 0.2263 0.05874 0.27817 0.0
C3103 C 0.19653 0.05217 0.28376 0.0
C3104 C 0.13656 0.97845 0.25542 0.0
C3105 C 0.18238 0.01964 0.26696 0.0
C3106 C 0.12909 0.96288 0.24701 0.0
C3107 C 0.15835 0.9709 0.24112 0.0
C3108 C 0.17367 1.00233 0.25804 0.0
C3109 C 0.19513 0.99478 0.24402 0.0
C3110 C 0.21938 0.04266 0.26979 0.0
C3111 C 0.15998 0.02874 0.28068 0.0
N3112 N 0.20171 0.00967 0.25225 0.0
N3113 N 0.154 0.0134 0.27253 0.0
H3114 H 0.94332 0.76139 0.78129 0.0
H3115 H 0.06443 0.91507 0.74486 0.0
H3116 H 0.98801 0.8798 0.78471 0.0
H3117 H 0.01678 0.79663 0.7407 0.0
H3118 H 0.03726 0.90234 0.75953 0.0
H3119 H 0.97122 0.77344 0.76662 0.0
C3120 C 0.95918 0.78995 0.779 0.0
C3121 C 0.96314 0.81959 0.78429 0.0
C3122 C 0.03267 0.87907 0.75542 0.0
C3123 C 0.99499 0.83357 0.7674 0.0
C3124 C 0.048 0.88631 0.74698 0.0
C3125 C 0.04279 0.8569 0.74144 0.0
C3126 C 0.01187 0.84209 0.75843 0.0
C3127 C 0.02189 0.82028 0.74472 0.0
C3128 C 0.97493 0.79678 0.77059 0.0
C3129 C 0.98365 0.85595 0.78086 0.0
N3130 N 1.00719 0.81394 0.75297 0.0
N3131 N 0.99873 0.86186 0.77267 0.0
H3132 H 0.18234 0.24779 0.7459 0.0
H3133 H 0.17574 0.09228 0.77853 0.0
H3134 H 0.12668 0.13013 0.7399 0.0
H3135 H 0.22078 0.20768 0.78594 0.0
H3136 H 0.16016 0.10643 0.76414 0.0
H3137 H 0.19979 0.23457 0.76026 0.0
C3138 C 0.17396 0.2192 0.74757 0.0
C3139 C 0.15285 0.19004 0.74165 0.0
C3140 C 0.17344 0.1287 0.76891 0.0
C3141 C 0.17262 0.17466 0.75815 0.0
C3142 C 0.18217 0.12058 0.77718 0.0
C3143 C 0.19945 0.14871 0.78356 0.0
C3144 C 0.18209 0.16532 0.7669 0.0
C3145 C 0.20784 0.18507 0.78125 0.0
C3146 C 0.18376 0.21165 0.7558 0.0
C3147 C 0.14247 0.1535 0.74426 0.0
N3148 N 0.19905 0.19227 0.77314 0.0
N3149 N 0.15246 0.14691 0.75228 0.0
H3150 H 0.93051 0.09028 0.7785 0.0
H3151 H 0.77271 0.94467 0.7458 0.0
H3152 H 0.81634 0.01625 0.7864 0.0
H3153 H 0.88879 0.01319 0.73868 0.0
H3154 H 0.78719 0.9728 0.76043 0.0
H3155 H 0.91498 0.06404 0.76375 0.0
C3156 C 0.90219 0.06834 0.77717 0.0
C3157 C 0.87481 0.05541 0.78379 0.0
C3158 C 0.80948 0.98174 0.75566 0.0
C3159 C 0.85662 0.02546 0.76674 0.0
C3160 C 0.80119 0.96586 0.74727 0.0
C3161 C 0.82956 0.97643 0.74096 0.0
C3162 C 0.84644 0.00857 0.7578 0.0
C3163 C 0.86605 1.00369 0.74334 0.0
C3164 C 0.89328 0.05351 0.7687 0.0
C3165 C 0.83838 0.02747 0.78154 0.0
N3166 N 0.87339 0.01873 0.75154 0.0
N3167 N 0.8304 0.01343 0.77323 0.0
H3168 H 0.5999 0.43516 0.61228 0.0
H3169 H 0.7506 0.58817 0.57949 0.0
H3170 H 0.67851 0.54799 0.62017 0.0
H3171 H 0.67336 0.47419 0.57216 0.0
H3172 H 0.72324 0.5751 0.59422 0.0
H3173 H 0.62562 0.44979 0.59747 0.0
C3174 C 0.62277 0.46299 0.61093 0.0
C3175 C 0.63719 0.49025 0.61756 0.0
C3176 C 0.71222 0.55298 0.58938 0.0
C3177 C 0.66659 0.50745 0.60045 0.0
C3178 C 0.72768 0.56048 0.58094 0.0
C3179 C 0.7144 0.53223 0.57454 0.0
C3180 C 0.68315 0.51695 0.59147 0.0
C3181 C 0.68495 0.49674 0.57688 0.0
C3182 C 0.6373 0.47141 0.60243 0.0
C3183 C 0.66627 0.5261 0.61529 0.0
N3184 N 0.67042 0.49015 0.58513 0.0
N3185 N 0.68006 0.5336 0.60696 0.0
H3186 H 0.58608 0.1778 0.61317 0.0
H3187 H 0.4311 0.15971 0.57872 0.0
H3188 H 0.46892 0.127 0.61957 0.0
H3189 H 0.54887 0.21216 0.57288 0.0
H3190 H 0.44365 0.14537 0.59349 0.0
H3191 H 0.57237 0.18927 0.59832 0.0
C3192 C 0.55745 0.16927 0.61149 0.0
C3193 C 0.5287 0.15162 0.61772 0.0
C3194 C 0.46673 0.15995 0.58897 0.0
C3195 C 0.51264 0.16428 0.60054 0.0
C3196 C 0.45956 0.16795 0.5805 0.0
C3197 C 0.48896 0.18733 0.57451 0.0
C3198 C 0.5036 0.17132 0.5915 0.0
C3199 C 0.52533 0.1977 0.57728 0.0
C3200 C 0.5496 0.17562 0.60296 0.0
C3201 C 0.49202 0.14044 0.61501 0.0
N3202 N 0.53156 0.18963 0.58555 0.0
N3203 N 0.48508 0.14704 0.60665 0.0
H3204 H 0.9147 0.40906 0.61314 0.0
H3205 H 0.75805 0.26142 0.58053 0.0
H3206 H 0.79781 0.34344 0.61981 0.0
H3207 H 0.87248 0.33486 0.57272 0.0
H3208 H 0.77293 0.28929 0.59513 0.0
H3209 H 0.90076 0.37992 0.59861 0.0
C3210 C 0.88614 0.38835 0.61159 0.0
C3211 C 0.8574 0.37884 0.61775 0.0
C3212 C 0.79483 0.29935 0.59023 0.0
C3213 C 0.84117 0.34546 0.60103 0.0
C3214 C 0.78629 0.28357 0.58184 0.0
C3215 C 0.81393 0.29584 0.57529 0.0
C3216 C 0.83138 0.32768 0.59217 0.0
C3217 C 0.85024 0.32411 0.57753 0.0
C3218 C 0.87816 0.37188 0.60325 0.0
C3219 C 0.82085 0.35212 0.61527 0.0
N3220 N 0.85786 0.33906 0.58575 0.0
N3221 N 0.81383 0.33642 0.60714 0.0
H3222 H 0.68124 0.14518 0.07283 0.0
H3223 H 0.67376 0.2245 0.12039 0.0
H3224 H 0.75305 0.25961 0.08078 0.0
H3225 H 0.60867 0.10797 0.11347 0.0
H3226 H 0.70216 0.23781 0.10581 0.0
H3227 H 0.65401 0.13088 0.08755 0.0
C3228 C 0.69152 0.16731 0.07766 0.0
C3229 C 0.71956 0.20377 0.07548 0.0
C3230 C 0.68172 0.20929 0.10747 0.0
C3231 C 0.68793 0.18754 0.09241 0.0
C3232 C 0.66528 0.20167 0.1158 0.0
C3233 C 0.63857 0.16503 0.1182 0.0
C3234 C 0.67138 0.18014 0.10141 0.0
C3235 C 0.62933 0.13659 0.11197 0.0
C3236 C 0.67575 0.15912 0.08608 0.0
C3237 C 0.73112 0.23126 0.08205 0.0
N3238 N 0.64555 0.14475 0.10388 0.0
N3239 N 0.71528 0.2226 0.09017 0.0
H3240 H 0.84208 0.42065 0.11113 0.0
H3241 H 0.85899 0.58022 0.07835 0.0
H3242 H 0.88792 0.53586 0.1188 0.0
H3243 H 0.80521 0.46334 0.07162 0.0
H3244 H 0.87345 0.56545 0.09287 0.0
H3245 H 0.83134 0.43657 0.09642 0.0
C3246 C 0.84975 0.4493 0.10976 0.0
C3247 C 0.86572 0.47685 0.1163 0.0
C3248 C 0.85856 0.54304 0.08821 0.0
C3249 C 0.8539 0.49545 0.09931 0.0
C3250 C 0.8505 0.55149 0.07989 0.0
C3251 C 0.8307 0.52299 0.07373 0.0
C3252 C 0.84691 0.5058 0.09042 0.0
C3253 C 0.82002 0.4862 0.07617 0.0
C3254 C 0.84379 0.45842 0.10131 0.0
C3255 C 0.87584 0.51367 0.11399 0.0
N3256 N 0.82821 0.47872 0.0843 0.0
N3257 N 0.86967 0.52184 0.10572 0.0
H3258 H 0.56304 0.34955 0.1191 0.0
H3259 H 0.47135 0.34226 0.07218 0.0
H3260 H 0.51158 0.41532 0.11282 0.0
H3261 H 0.51893 0.27374 0.07927 0.0
H3262 H 0.48524 0.36917 0.08696 0.0
H3263 H 0.54704 0.32182 0.10449 0.0
C3264 C 0.54851 0.35834 0.11464 0.0
C3265 C 0.53888 0.38507 0.11723 0.0
C3266 C 0.49264 0.34825 0.08527 0.0
C3267 C 0.52007 0.35297 0.10039 0.0
C3268 C 0.48454 0.33269 0.07683 0.0
C3269 C 0.49409 0.3057 0.0744 0.0
C3270 C 0.51042 0.33679 0.09137 0.0
C3271 C 0.51161 0.29489 0.08073 0.0
C3272 C 0.53917 0.34229 0.10629 0.0
C3273 C 0.51935 0.39465 0.11118 0.0
N3274 N 0.51917 0.31043 0.08888 0.0
N3275 N 0.51075 0.37877 0.10305 0.0
H3276 H 0.40579 0.82389 0.91179 0.0
H3277 H 0.27595 0.84839 0.94725 0.0
H3278 H 0.3494 0.88602 0.90666 0.0
H3279 H 0.32864 0.78219 0.95156 0.0
H3280 H 0.30398 0.86431 0.9326 0.0
H3281 H 0.37862 0.8096 0.92646 0.0
C3282 C 0.38745 0.83433 0.9137 0.0
C3283 C 0.37977 0.85604 0.90789 0.0
C3284 C 0.30942 0.84632 0.93675 0.0
C3285 C 0.34882 0.84013 0.92487 0.0
C3286 C 0.29359 0.83738 0.94516 0.0
C3287 C 0.29978 0.81377 0.95069 0.0
C3288 C 0.3318 0.83172 0.93382 0.0
C3289 C 0.32254 0.80001 0.94751 0.0
C3290 C 0.37211 0.82634 0.92214 0.0
C3291 C 0.35644 0.86946 0.9109 0.0
N3292 N 0.33766 0.80917 0.93933 0.0
N3293 N 0.34178 0.86124 0.91915 0.0
H3294 H 0.20825 0.54349 0.95396 0.0
H3295 H 0.13066 0.4625 0.9059 0.0
H3296 H 0.16487 0.428 0.94692 0.0
H3297 H 0.17379 0.57753 0.91337 0.0
H3298 H 0.14119 0.44862 0.92091 0.0
H3299 H 0.19446 0.55583 0.93917 0.0
C3300 C 0.1959 0.52069 0.9493 0.0
C3301 C 0.18794 0.48465 0.95172 0.0
C3302 C 0.14834 0.47689 0.91926 0.0
C3303 C 0.17172 0.49862 0.93469 0.0
C3304 C 0.14216 0.48483 0.91069 0.0
C3305 C 0.15152 0.52134 0.9083 0.0
C3306 C 0.16393 0.50562 0.92553 0.0
C3307 C 0.16674 0.54912 0.91481 0.0
C3308 C 0.18784 0.52774 0.94085 0.0
C3309 C 0.17122 0.45614 0.94541 0.0
N3310 N 0.17247 0.5407 0.92308 0.0
N3311 N 0.16384 0.46376 0.93719 0.0
H3312 H 0.4265 0.58628 0.91499 0.0
H3313 H 0.58452 0.73474 0.94721 0.0
H3314 H 0.54036 0.66023 0.90687 0.0
H3315 H 0.46863 0.66622 0.95448 0.0
H3316 H 0.56995 0.70548 0.9327 0.0
H3317 H 0.44231 0.61341 0.92966 0.0
C3318 C 0.45481 0.60837 0.91625 0.0
C3319 C 0.48201 0.62106 0.90959 0.0
C3320 C 0.54772 0.69679 0.93747 0.0
C3321 C 0.50052 0.65206 0.92654 0.0
C3322 C 0.55606 0.71332 0.9458 0.0
C3323 C 0.52777 0.70308 0.95212 0.0
C3324 C 0.51079 0.66963 0.93542 0.0
C3325 C 0.49131 0.67548 0.94982 0.0
C3326 C 0.46389 0.62372 0.92468 0.0
C3327 C 0.51846 0.64921 0.91176 0.0
N3328 N 0.48392 0.6598 0.94168 0.0
N3329 N 0.52659 0.66379 0.92002 0.0
H3330 H 0.27393 0.43077 0.4471 0.0
H3331 H 0.4075 0.58496 0.41206 0.0
H3332 H 0.32958 0.54952 0.45175 0.0
H3333 H 0.34744 0.4668 0.40651 0.0
H3334 H 0.38015 0.57204 0.42671 0.0
H3335 H 0.30202 0.44289 0.43245 0.0
C3336 C 0.29223 0.45939 0.44508 0.0
C3337 C 0.29924 0.48915 0.45071 0.0
C3338 C 0.37288 0.54889 0.4223 0.0
C3339 C 0.33135 0.50325 0.43385 0.0
C3340 C 0.38833 0.55626 0.41387 0.0
C3341 C 0.37967 0.52698 0.40795 0.0
C3342 C 0.3485 0.51188 0.42491 0.0
C3343 C 0.35527 0.49031 0.41084 0.0
C3344 C 0.30809 0.46629 0.43668 0.0
C3345 C 0.32284 0.52565 0.44763 0.0
N3346 N 0.34053 0.48384 0.41908 0.0
N3347 N 0.33798 0.53162 0.43945 0.0
H3348 H 0.43849 0.84681 0.41366 0.0
H3349 H 0.59089 0.84942 0.44671 0.0
H3350 H 0.55187 0.88194 0.40596 0.0
H3351 H 0.4767 0.81287 0.45391 0.0
H3352 H 0.57817 0.86367 0.43195 0.0
H3353 H 0.45275 0.83565 0.42849 0.0
C3354 C 0.46637 0.85196 0.41505 0.0
C3355 C 0.49389 0.86509 0.40847 0.0
C3356 C 0.55593 0.85261 0.43676 0.0
C3357 C 0.51065 0.85277 0.42561 0.0
C3358 C 0.56323 0.84468 0.44523 0.0
C3359 C 0.53482 0.82977 0.45161 0.0
C3360 C 0.51994 0.84569 0.43462 0.0
C3361 C 0.49938 0.82377 0.44921 0.0
C3362 C 0.47457 0.8458 0.42357 0.0
C3363 C 0.52977 0.87207 0.4108 0.0
N3364 N 0.49299 0.83168 0.44094 0.0
N3365 N 0.53705 0.86573 0.41915 0.0
H3366 H 0.2543 0.74547 0.44586 0.0
H3367 H 0.09705 0.60816 0.41194 0.0
H3368 H 0.13747 0.68005 0.45264 0.0
H3369 H 0.21465 0.67187 0.40582 0.0
H3370 H 0.11047 0.63586 0.42663 0.0
H3371 H 0.2396 0.7199 0.43106 0.0
C3372 C 0.22553 0.72552 0.44427 0.0
C3373 C 0.19716 0.71474 0.45059 0.0
C3374 C 0.13332 0.64383 0.42206 0.0
C3375 C 0.17997 0.68558 0.43348 0.0
C3376 C 0.12565 0.62821 0.41364 0.0
C3377 C 0.15476 0.63753 0.4076 0.0
C3378 C 0.17038 0.6691 0.42449 0.0
C3379 C 0.19133 0.66333 0.41027 0.0
C3380 C 0.21712 0.71109 0.43577 0.0
C3381 C 0.16028 0.68943 0.44801 0.0
N3382 N 0.19805 0.6781 0.41849 0.0
N3383 N 0.15278 0.67565 0.43967 0.0
loop_
_geom_bond_atom_site_label_1
_geom_bond_atom_site_label_2
_geom_bond_distance
_geom_bond_site_symmetry_2
_ccdc_geom_bond_type
Sm0 C2 2.846 . S
Sm0 O20 2.543 . S
Sm0 O21 2.450 . S
Sm0 O22 2.681 . S
Sm0 O23 2.464 . S
Sm0 O24 2.396 . S
Sm0 O28 2.386 . S
Sm0 O31 2.408 . S
Sm1 C11 2.846 . S
Sm1 O22 2.386 . S
Sm1 O25 2.408 . S
Sm1 O26 2.543 . S
Sm1 O27 2.450 . S
Sm1 O28 2.681 . S
Sm1 O29 2.464 . S
Sm1 O30 2.396 . S
C2 Sm0 2.846 . S
C2 C3 1.506 . S
C2 O20 1.261 . S
C2 O21 1.242 . S
C3 C2 1.506 . S
C3 C4 1.358 . S
C3 C8 1.382 . S
C4 C3 1.358 . S
C4 C5 1.385 . S
C4 H32 0.930 . S
C5 C4 1.385 . S
C5 C6 1.395 . S
C5 H33 0.929 . S
C6 C5 1.395 . S
C6 C7 1.335 . S
C7 C6 1.335 . S
C7 C8 1.398 . S
C7 H34 0.930 . S
C8 C3 1.382 . S
C8 C7 1.398 . S
C8 H35 0.929 . S
C9 O22 1.271 . S
C9 O23 1.251 . S
C10 O24 1.252 . S
C10 O25 1.272 . S
C11 Sm1 2.846 . S
C11 C12 1.506 . S
C11 O26 1.261 . S
C11 O27 1.242 . S
C12 C11 1.506 . S
C12 C13 1.358 . S
C12 C17 1.382 . S
C13 C12 1.358 . S
C13 C14 1.385 . S
C13 H36 0.930 . S
C14 C13 1.385 . S
C14 C15 1.395 . S
C14 H37 0.929 . S
C15 C14 1.395 . S
C15 C16 1.335 . S
C16 C15 1.335 . S
C16 C17 1.398 . S
C16 H38 0.930 . S
C17 C12 1.382 . S
C17 C16 1.398 . S
C17 H39 0.929 . S
C18 O28 1.271 . S
C18 O29 1.251 . S
C19 O30 1.252 . S
C19 O31 1.272 . S
O20 Sm0 2.543 . S
O20 C2 1.261 . S
O21 Sm0 2.450 . S
O21 C2 1.242 . S
O22 Sm0 2.681 . S
O22 Sm1 2.386 . S
O22 C9 1.271 . S
O23 Sm0 2.464 . S
O23 C9 1.251 . S
O24 Sm0 2.396 . S
O24 C10 1.252 . S
O25 Sm1 2.408 . S
O25 C10 1.272 . S
O26 Sm1 2.543 . S
O26 C11 1.261 . S
O27 Sm1 2.450 . S
O27 C11 1.242 . S
O28 Sm0 2.386 . S
O28 Sm1 2.681 . S
O28 C18 1.271 . S
O29 Sm1 2.464 . S
O29 C18 1.251 . S
O30 Sm1 2.396 . S
O30 C19 1.252 . S
O31 Sm0 2.408 . S
O31 C19 1.272 . S
H32 C4 0.930 . S
H33 C5 0.929 . S
H34 C7 0.930 . S
H35 C8 0.929 . S
H36 C13 0.930 . S
H37 C14 0.929 . S
H38 C16 0.930 . S
H39 C17 0.929 . S
Sm40 C42 2.846 . S
Sm40 O60 2.543 . S
Sm40 O61 2.450 . S
Sm40 O62 2.681 . S
Sm40 O63 2.464 . S
Sm40 O64 2.396 . S
Sm40 O68 2.386 . S
Sm40 O71 2.408 . S
Sm41 C51 2.846 . S
Sm41 O62 2.386 . S
Sm41 O65 2.408 . S
Sm41 O66 2.543 . S
Sm41 O67 2.450 . S
Sm41 O68 2.681 . S
Sm41 O69 2.464 . S
Sm41 O70 2.396 . S
C42 Sm40 2.846 . S
C42 C43 1.506 . S
C42 O60 1.261 . S
C42 O61 1.242 . S
C43 C42 1.506 . S
C43 C44 1.358 . S
C43 C48 1.382 . S
C44 C43 1.358 . S
C44 C45 1.385 . S
C44 H72 0.930 . S
C45 C44 1.385 . S
C45 C46 1.395 . S
C45 H73 0.929 . S
C46 C45 1.395 . S
C46 C47 1.335 . S
C47 C46 1.335 . S
C47 C48 1.398 . S
C47 H74 0.930 . S
C48 C43 1.382 . S
C48 C47 1.398 . S
C48 H75 0.929 . S
C49 O62 1.271 . S
C49 O63 1.251 . S
C50 O64 1.252 . S
C50 O65 1.272 . S
C51 Sm41 2.846 . S
C51 C52 1.506 . S
C51 O66 1.261 . S
C51 O67 1.242 . S
C52 C51 1.506 . S
C52 C53 1.358 . S
C52 C57 1.382 . S
C53 C52 1.358 . S
C53 C54 1.385 . S
C53 H76 0.930 . S
C54 C53 1.385 . S
C54 C55 1.395 . S
C54 H77 0.929 . S
C55 C54 1.395 . S
C55 C56 1.335 . S
C56 C55 1.335 . S
C56 C57 1.398 . S
C56 H78 0.930 . S
C57 C52 1.382 . S
C57 C56 1.398 . S
C57 H79 0.929 . S
C58 O68 1.271 . S
C58 O69 1.251 . S
C59 O70 1.252 . S
C59 O71 1.272 . S
O60 Sm40 2.543 . S
O60 C42 1.261 . S
O61 Sm40 2.450 . S
O61 C42 1.242 . S
O62 Sm40 2.681 . S
O62 Sm41 2.386 . S
O62 C49 1.271 . S
O63 Sm40 2.464 . S
O63 C49 1.251 . S
O64 Sm40 2.396 . S
O64 C50 1.252 . S
O65 Sm41 2.408 . S
O65 C50 1.272 . S
O66 Sm41 2.543 . S
O66 C51 1.261 . S
O67 Sm41 2.450 . S
O67 C51 1.242 . S
O68 Sm40 2.386 . S
O68 Sm41 2.681 . S
O68 C58 1.271 . S
O69 Sm41 2.464 . S
O69 C58 1.251 . S
O70 Sm41 2.396 . S
O70 C59 1.252 . S
O71 Sm40 2.408 . S
O71 C59 1.272 . S
H72 C44 0.930 . S
H73 C45 0.929 . S
H74 C47 0.930 . S
H75 C48 0.929 . S
H76 C53 0.930 . S
H77 C54 0.929 . S
H78 C56 0.930 . S
H79 C57 0.929 . S
Sm80 C82 2.846 . S
Sm80 O100 2.543 . S
Sm80 O101 2.450 . S
Sm80 O102 2.681 . S
Sm80 O103 2.464 . S
Sm80 O104 2.396 . S
Sm80 O108 2.386 . S
Sm80 O111 2.408 . S
Sm81 C91 2.846 . S
Sm81 O102 2.386 . S
Sm81 O105 2.408 . S
Sm81 O106 2.543 . S
Sm81 O107 2.450 . S
Sm81 O108 2.681 . S
Sm81 O109 2.464 . S
Sm81 O110 2.396 . S
C82 Sm80 2.846 . S
C82 C83 1.506 . S
C82 O100 1.261 . S
C82 O101 1.242 . S
C83 C82 1.506 . S
C83 C84 1.358 . S
C83 C88 1.382 . S
C84 C83 1.358 . S
C84 C85 1.385 . S
C84 H112 0.930 . S
C85 C84 1.385 . S
C85 C86 1.395 . S
C85 H113 0.929 . S
C86 C85 1.395 . S
C86 C87 1.335 . S
C87 C86 1.335 . S
C87 C88 1.398 . S
C87 H114 0.930 . S
C88 C83 1.382 . S
C88 C87 1.398 . S
C88 H115 0.929 . S
C89 O102 1.271 . S
C89 O103 1.251 . S
C90 O104 1.252 . S
C90 O105 1.272 . S
C91 Sm81 2.846 . S
C91 C92 1.506 . S
C91 O106 1.261 . S
C91 O107 1.242 . S
C92 C91 1.506 . S
C92 C93 1.358 . S
C92 C97 1.382 . S
C93 C92 1.358 . S
C93 C94 1.385 . S
C93 H116 0.930 . S
C94 C93 1.385 . S
C94 C95 1.395 . S
C94 H117 0.929 . S
C95 C94 1.395 . S
C95 C96 1.335 . S
C96 C95 1.335 . S
C96 C97 1.398 . S
C96 H118 0.930 . S
C97 C92 1.382 . S
C97 C96 1.398 . S
C97 H119 0.929 . S
C98 O108 1.271 . S
C98 O109 1.251 . S
C99 O110 1.252 . S
C99 O111 1.272 . S
O100 Sm80 2.543 . S
O100 C82 1.261 . S
O101 Sm80 2.450 . S
O101 C82 1.242 . S
O102 Sm80 2.681 . S
O102 Sm81 2.386 . S
O102 C89 1.271 . S
O103 Sm80 2.464 . S
O103 C89 1.251 . S
O104 Sm80 2.396 . S
O104 C90 1.252 . S
O105 Sm81 2.408 . S
O105 C90 1.272 . S
O106 Sm81 2.543 . S
O106 C91 1.261 . S
O107 Sm81 2.450 . S
O107 C91 1.242 . S
O108 Sm80 2.386 . S
O108 Sm81 2.681 . S
O108 C98 1.271 . S
O109 Sm81 2.464 . S
O109 C98 1.251 . S
O110 Sm81 2.396 . S
O110 C99 1.252 . S
O111 Sm80 2.408 . S
O111 C99 1.272 . S
H112 C84 0.930 . S
H113 C85 0.929 . S
H114 C87 0.930 . S
H115 C88 0.929 . S
H116 C93 0.930 . S
H117 C94 0.929 . S
H118 C96 0.930 . S
H119 C97 0.929 . S
Sm120 C122 2.846 . S
Sm120 O140 2.543 . S
Sm120 O141 2.450 . S
Sm120 O142 2.681 . S
Sm120 O143 2.464 . S
Sm120 O144 2.396 . S
Sm120 O148 2.386 . S
Sm120 O151 2.408 . S
Sm121 C131 2.846 . S
Sm121 O142 2.386 . S
Sm121 O145 2.408 . S
Sm121 O146 2.543 . S
Sm121 O147 2.450 . S
Sm121 O148 2.681 . S
Sm121 O149 2.464 . S
Sm121 O150 2.396 . S
C122 Sm120 2.846 . S
C122 C123 1.506 . S
C122 O140 1.261 . S
C122 O141 1.242 . S
C123 C122 1.506 . S
C123 C124 1.358 . S
C123 C128 1.382 . S
C124 C123 1.358 . S
C124 C125 1.385 . S
C124 H152 0.930 . S
C125 C124 1.385 . S
C125 C126 1.395 . S
C125 H153 0.929 . S
C126 C125 1.395 . S
C126 C127 1.335 . S
C127 C126 1.335 . S
C127 C128 1.398 . S
C127 H154 0.930 . S
C128 C123 1.382 . S
C128 C127 1.398 . S
C128 H155 0.929 . S
C129 O142 1.271 . S
C129 O143 1.251 . S
C130 O144 1.252 . S
C130 O145 1.272 . S
C131 Sm121 2.846 . S
C131 C132 1.506 . S
C131 O146 1.261 . S
C131 O147 1.242 . S
C132 C131 1.506 . S
C132 C133 1.358 . S
C132 C137 1.382 . S
C133 C132 1.358 . S
C133 C134 1.385 . S
C133 H156 0.930 . S
C134 C133 1.385 . S
C134 C135 1.395 . S
C134 H157 0.929 . S
C135 C134 1.395 . S
C135 C136 1.335 . S
C136 C135 1.335 . S
C136 C137 1.398 . S
C136 H158 0.930 . S
C137 C132 1.382 . S
C137 C136 1.398 . S
C137 H159 0.929 . S
C138 O148 1.271 . S
C138 O149 1.251 . S
C139 O150 1.252 . S
C139 O151 1.272 . S
O140 Sm120 2.543 . S
O140 C122 1.261 . S
O141 Sm120 2.450 . S
O141 C122 1.242 . S
O142 Sm120 2.681 . S
O142 Sm121 2.386 . S
O142 C129 1.271 . S
O143 Sm120 2.464 . S
O143 C129 1.251 . S
O144 Sm120 2.396 . S
O144 C130 1.252 . S
O145 Sm121 2.408 . S
O145 C130 1.272 . S
O146 Sm121 2.543 . S
O146 C131 1.261 . S
O147 Sm121 2.450 . S
O147 C131 1.242 . S
O148 Sm120 2.386 . S
O148 Sm121 2.681 . S
O148 C138 1.271 . S
O149 Sm121 2.464 . S
O149 C138 1.251 . S
O150 Sm121 2.396 . S
O150 C139 1.252 . S
O151 Sm120 2.408 . S
O151 C139 1.272 . S
H152 C124 0.930 . S
H153 C125 0.929 . S
H154 C127 0.930 . S
H155 C128 0.929 . S
H156 C133 0.930 . S
H157 C134 0.929 . S
H158 C136 0.930 . S
H159 C137 0.929 . S
Sm160 C162 2.846 . S
Sm160 O180 2.543 . S
Sm160 O181 2.450 . S
Sm160 O182 2.681 . S
Sm160 O183 2.464 . S
Sm160 O184 2.396 . S
Sm160 O188 2.386 . S
Sm160 O191 2.408 . S
Sm161 C171 2.846 . S
Sm161 O182 2.386 . S
Sm161 O185 2.408 . S
Sm161 O186 2.543 . S
Sm161 O187 2.450 . S
Sm161 O188 2.681 . S
Sm161 O189 2.464 . S
Sm161 O190 2.396 . S
C162 Sm160 2.846 . S
C162 C163 1.506 . S
C162 O180 1.261 . S
C162 O181 1.242 . S
C163 C162 1.506 . S
C163 C164 1.358 . S
C163 C168 1.382 . S
C164 C163 1.358 . S
C164 C165 1.385 . S
C164 H192 0.930 . S
C165 C164 1.385 . S
C165 C166 1.395 . S
C165 H193 0.929 . S
C166 C165 1.395 . S
C166 C167 1.335 . S
C167 C166 1.335 . S
C167 C168 1.398 . S
C167 H194 0.930 . S
C168 C163 1.382 . S
C168 C167 1.398 . S
C168 H195 0.929 . S
C169 O182 1.271 . S
C169 O183 1.251 . S
C170 O184 1.252 . S
C170 O185 1.272 . S
C171 Sm161 2.846 . S
C171 C172 1.506 . S
C171 O186 1.261 . S
C171 O187 1.242 . S
C172 C171 1.506 . S
C172 C173 1.358 . S
C172 C177 1.382 . S
C173 C172 1.358 . S
C173 C174 1.385 . S
C173 H196 0.930 . S
C174 C173 1.385 . S
C174 C175 1.395 . S
C174 H197 0.929 . S
C175 C174 1.395 . S
C175 C176 1.335 . S
C176 C175 1.335 . S
C176 C177 1.398 . S
C176 H198 0.930 . S
C177 C172 1.382 . S
C177 C176 1.398 . S
C177 H199 0.929 . S
C178 O188 1.271 . S
C178 O189 1.251 . S
C179 O190 1.252 . S
C179 O191 1.272 . S
O180 Sm160 2.543 . S
O180 C162 1.261 . S
O181 Sm160 2.450 . S
O181 C162 1.242 . S
O182 Sm160 2.681 . S
O182 Sm161 2.386 . S
O182 C169 1.271 . S
O183 Sm160 2.464 . S
O183 C169 1.251 . S
O184 Sm160 2.396 . S
O184 C170 1.252 . S
O185 Sm161 2.408 . S
O185 C170 1.272 . S
O186 Sm161 2.543 . S
O186 C171 1.261 . S
O187 Sm161 2.450 . S
O187 C171 1.242 . S
O188 Sm160 2.386 . S
O188 Sm161 2.681 . S
O188 C178 1.271 . S
O189 Sm161 2.464 . S
O189 C178 1.251 . S
O190 Sm161 2.396 . S
O190 C179 1.252 . S
O191 Sm160 2.408 . S
O191 C179 1.272 . S
H192 C164 0.930 . S
H193 C165 0.929 . S
H194 C167 0.930 . S
H195 C168 0.929 . S
H196 C173 0.930 . S
H197 C174 0.929 . S
H198 C176 0.930 . S
H199 C177 0.929 . S
Sm200 C202 2.846 . S
Sm200 O220 2.543 . S
Sm200 O221 2.450 . S
Sm200 O222 2.681 . S
Sm200 O223 2.464 . S
Sm200 O224 2.396 . S
Sm200 O228 2.386 . S
Sm200 O231 2.408 . S
Sm201 C211 2.846 . S
Sm201 O222 2.386 . S
Sm201 O225 2.408 . S
Sm201 O226 2.543 . S
Sm201 O227 2.450 . S
Sm201 O228 2.681 . S
Sm201 O229 2.464 . S
Sm201 O230 2.396 . S
C202 Sm200 2.846 . S
C202 C203 1.506 . S
C202 O220 1.261 . S
C202 O221 1.242 . S
C203 C202 1.506 . S
C203 C204 1.358 . S
C203 C208 1.382 . S
C204 C203 1.358 . S
C204 C205 1.385 . S
C204 H232 0.930 . S
C205 C204 1.385 . S
C205 C206 1.395 . S
C205 H233 0.929 . S
C206 C205 1.395 . S
C206 C207 1.335 . S
C207 C206 1.335 . S
C207 C208 1.398 . S
C207 H234 0.930 . S
C208 C203 1.382 . S
C208 C207 1.398 . S
C208 H235 0.929 . S
C209 O222 1.271 . S
C209 O223 1.251 . S
C210 O224 1.252 . S
C210 O225 1.272 . S
C211 Sm201 2.846 . S
C211 C212 1.506 . S
C211 O226 1.261 . S
C211 O227 1.242 . S
C212 C211 1.506 . S
C212 C213 1.358 . S
C212 C217 1.382 . S
C213 C212 1.358 . S
C213 C214 1.385 . S
C213 H236 0.930 . S
C214 C213 1.385 . S
C214 C215 1.395 . S
C214 H237 0.929 . S
C215 C214 1.395 . S
C215 C216 1.335 . S
C216 C215 1.335 . S
C216 C217 1.398 . S
C216 H238 0.930 . S
C217 C212 1.382 . S
C217 C216 1.398 . S
C217 H239 0.929 . S
C218 O228 1.271 . S
C218 O229 1.251 . S
C219 O230 1.252 . S
C219 O231 1.272 . S
O220 Sm200 2.543 . S
O220 C202 1.261 . S
O221 Sm200 2.450 . S
O221 C202 1.242 . S
O222 Sm200 2.681 . S
O222 Sm201 2.386 . S
O222 C209 1.271 . S
O223 Sm200 2.464 . S
O223 C209 1.251 . S
O224 Sm200 2.396 . S
O224 C210 1.252 . S
O225 Sm201 2.408 . S
O225 C210 1.272 . S
O226 Sm201 2.543 . S
O226 C211 1.261 . S
O227 Sm201 2.450 . S
O227 C211 1.242 . S
O228 Sm200 2.386 . S
O228 Sm201 2.681 . S
O228 C218 1.271 . S
O229 Sm201 2.464 . S
O229 C218 1.251 . S
O230 Sm201 2.396 . S
O230 C219 1.252 . S
O231 Sm200 2.408 . S
O231 C219 1.272 . S
H232 C204 0.930 . S
H233 C205 0.929 . S
H234 C207 0.930 . S
H235 C208 0.929 . S
H236 C213 0.930 . S
H237 C214 0.929 . S
H238 C216 0.930 . S
H239 C217 0.929 . S
Sm240 C242 2.846 . S
Sm240 O260 2.543 . S
Sm240 O261 2.450 . S
Sm240 O262 2.681 . S
Sm240 O263 2.464 . S
Sm240 O264 2.396 . S
Sm240 O268 2.386 . S
Sm240 O271 2.408 . S
Sm241 C251 2.846 . S
Sm241 O262 2.386 . S
Sm241 O265 2.408 . S
Sm241 O266 2.543 . S
Sm241 O267 2.450 . S
Sm241 O268 2.681 . S
Sm241 O269 2.464 . S
Sm241 O270 2.396 . S
C242 Sm240 2.846 . S
C242 C243 1.506 . S
C242 O260 1.261 . S
C242 O261 1.242 . S
C243 C242 1.506 . S
C243 C244 1.358 . S
C243 C248 1.382 . S
C244 C243 1.358 . S
C244 C245 1.385 . S
C244 H272 0.930 . S
C245 C244 1.385 . S
C245 C246 1.395 . S
C245 H273 0.929 . S
C246 C245 1.395 . S
C246 C247 1.335 . S
C247 C246 1.335 . S
C247 C248 1.398 . S
C247 H274 0.930 . S
C248 C243 1.382 . S
C248 C247 1.398 . S
C248 H275 0.929 . S
C249 O262 1.271 . S
C249 O263 1.251 . S
C250 O264 1.252 . S
C250 O265 1.272 . S
C251 Sm241 2.846 . S
C251 C252 1.506 . S
C251 O266 1.261 . S
C251 O267 1.242 . S
C252 C251 1.506 . S
C252 C253 1.358 . S
C252 C257 1.382 . S
C253 C252 1.358 . S
C253 C254 1.385 . S
C253 H276 0.930 . S
C254 C253 1.385 . S
C254 C255 1.395 . S
C254 H277 0.929 . S
C255 C254 1.395 . S
C255 C256 1.335 . S
C256 C255 1.335 . S
C256 C257 1.398 . S
C256 H278 0.930 . S
C257 C252 1.382 . S
C257 C256 1.398 . S
C257 H279 0.929 . S
C258 O268 1.271 . S
C258 O269 1.251 . S
C259 O270 1.252 . S
C259 O271 1.272 . S
O260 Sm240 2.543 . S
O260 C242 1.261 . S
O261 Sm240 2.450 . S
O261 C242 1.242 . S
O262 Sm240 2.681 . S
O262 Sm241 2.386 . S
O262 C249 1.271 . S
O263 Sm240 2.464 . S
O263 C249 1.251 . S
O264 Sm240 2.396 . S
O264 C250 1.252 . S
O265 Sm241 2.408 . S
O265 C250 1.272 . S
O266 Sm241 2.543 . S
O266 C251 1.261 . S
O267 Sm241 2.450 . S
O267 C251 1.242 . S
O268 Sm240 2.386 . S
O268 Sm241 2.681 . S
O268 C258 1.271 . S
O269 Sm241 2.464 . S
O269 C258 1.251 . S
O270 Sm241 2.396 . S
O270 C259 1.252 . S
O271 Sm240 2.408 . S
O271 C259 1.272 . S
H272 C244 0.930 . S
H273 C245 0.929 . S
H274 C247 0.930 . S
H275 C248 0.929 . S
H276 C253 0.930 . S
H277 C254 0.929 . S
H278 C256 0.930 . S
H279 C257 0.929 . S
Sm280 C282 2.846 . S
Sm280 O300 2.543 . S
Sm280 O301 2.450 . S
Sm280 O302 2.681 . S
Sm280 O303 2.464 . S
Sm280 O304 2.396 . S
Sm280 O308 2.386 . S
Sm280 O311 2.408 . S
Sm281 C291 2.846 . S
Sm281 O302 2.386 . S
Sm281 O305 2.408 . S
Sm281 O306 2.543 . S
Sm281 O307 2.450 . S
Sm281 O308 2.681 . S
Sm281 O309 2.464 . S
Sm281 O310 2.396 . S
C282 Sm280 2.846 . S
C282 C283 1.506 . S
C282 O300 1.261 . S
C282 O301 1.242 . S
C283 C282 1.506 . S
C283 C284 1.358 . S
C283 C288 1.382 . S
C284 C283 1.358 . S
C284 C285 1.385 . S
C284 H312 0.930 . S
C285 C284 1.385 . S
C285 C286 1.395 . S
C285 H313 0.929 . S
C286 C285 1.395 . S
C286 C287 1.335 . S
C287 C286 1.335 . S
C287 C288 1.398 . S
C287 H314 0.930 . S
C288 C283 1.382 . S
C288 C287 1.398 . S
C288 H315 0.929 . S
C289 O302 1.271 . S
C289 O303 1.251 . S
C290 O304 1.252 . S
C290 O305 1.272 . S
C291 Sm281 2.846 . S
C291 C292 1.506 . S
C291 O306 1.261 . S
C291 O307 1.242 . S
C292 C291 1.506 . S
C292 C293 1.358 . S
C292 C297 1.382 . S
C293 C292 1.358 . S
C293 C294 1.385 . S
C293 H316 0.930 . S
C294 C293 1.385 . S
C294 C295 1.395 . S
C294 H317 0.929 . S
C295 C294 1.395 . S
C295 C296 1.335 . S
C296 C295 1.335 . S
C296 C297 1.398 . S
C296 H318 0.930 . S
C297 C292 1.382 . S
C297 C296 1.398 . S
C297 H319 0.929 . S
C298 O308 1.271 . S
C298 O309 1.251 . S
C299 O310 1.252 . S
C299 O311 1.272 . S
O300 Sm280 2.543 . S
O300 C282 1.261 . S
O301 Sm280 2.450 . S
O301 C282 1.242 . S
O302 Sm280 2.681 . S
O302 Sm281 2.386 . S
O302 C289 1.271 . S
O303 Sm280 2.464 . S
O303 C289 1.251 . S
O304 Sm280 2.396 . S
O304 C290 1.252 . S
O305 Sm281 2.408 . S
O305 C290 1.272 . S
O306 Sm281 2.543 . S
O306 C291 1.261 . S
O307 Sm281 2.450 . S
O307 C291 1.242 . S
O308 Sm280 2.386 . S
O308 Sm281 2.681 . S
O308 C298 1.271 . S
O309 Sm281 2.464 . S
O309 C298 1.251 . S
O310 Sm281 2.396 . S
O310 C299 1.252 . S
O311 Sm280 2.408 . S
O311 C299 1.272 . S
H312 C284 0.930 . S
H313 C285 0.929 . S
H314 C287 0.930 . S
H315 C288 0.929 . S
H316 C293 0.930 . S
H317 C294 0.929 . S
H318 C296 0.930 . S
H319 C297 0.929 . S
Sm320 C322 2.846 . S
Sm320 O340 2.543 . S
Sm320 O341 2.450 . S
Sm320 O342 2.681 . S
Sm320 O343 2.464 . S
Sm320 O344 2.396 . S
Sm320 O348 2.386 . S
Sm320 O351 2.408 . S
Sm321 C331 2.846 . S
Sm321 O342 2.386 . S
Sm321 O345 2.408 . S
Sm321 O346 2.543 . S
Sm321 O347 2.450 . S
Sm321 O348 2.681 . S
Sm321 O349 2.464 . S
Sm321 O350 2.396 . S
C322 Sm320 2.846 . S
C322 C323 1.506 . S
C322 O340 1.261 . S
C322 O341 1.242 . S
C323 C322 1.506 . S
C323 C324 1.358 . S
C323 C328 1.382 . S
C324 C323 1.358 . S
C324 C325 1.385 . S
C324 H352 0.930 . S
C325 C324 1.385 . S
C325 C326 1.395 . S
C325 H353 0.929 . S
C326 C325 1.395 . S
C326 C327 1.335 . S
C327 C326 1.335 . S
C327 C328 1.398 . S
C327 H354 0.930 . S
C328 C323 1.382 . S
C328 C327 1.398 . S
C328 H355 0.929 . S
C329 O342 1.271 . S
C329 O343 1.251 . S
C330 O344 1.252 . S
C330 O345 1.272 . S
C331 Sm321 2.846 . S
C331 C332 1.506 . S
C331 O346 1.261 . S
C331 O347 1.242 . S
C332 C331 1.506 . S
C332 C333 1.358 . S
C332 C337 1.382 . S
C333 C332 1.358 . S
C333 C334 1.385 . S
C333 H356 0.930 . S
C334 C333 1.385 . S
C334 C335 1.395 . S
C334 H357 0.929 . S
C335 C334 1.395 . S
C335 C336 1.335 . S
C336 C335 1.335 . S
C336 C337 1.398 . S
C336 H358 0.930 . S
C337 C332 1.382 . S
C337 C336 1.398 . S
C337 H359 0.929 . S
C338 O348 1.271 . S
C338 O349 1.251 . S
C339 O350 1.252 . S
C339 O351 1.272 . S
O340 Sm320 2.543 . S
O340 C322 1.261 . S
O341 Sm320 2.450 . S
O341 C322 1.242 . S
O342 Sm320 2.681 . S
O342 Sm321 2.386 . S
O342 C329 1.271 . S
O343 Sm320 2.464 . S
O343 C329 1.251 . S
O344 Sm320 2.396 . S
O344 C330 1.252 . S
O345 Sm321 2.408 . S
O345 C330 1.272 . S
O346 Sm321 2.543 . S
O346 C331 1.261 . S
O347 Sm321 2.450 . S
O347 C331 1.242 . S
O348 Sm320 2.386 . S
O348 Sm321 2.681 . S
O348 C338 1.271 . S
O349 Sm321 2.464 . S
O349 C338 1.251 . S
O350 Sm321 2.396 . S
O350 C339 1.252 . S
O351 Sm320 2.408 . S
O351 C339 1.272 . S
H352 C324 0.930 . S
H353 C325 0.929 . S
H354 C327 0.930 . S
H355 C328 0.929 . S
H356 C333 0.930 . S
H357 C334 0.929 . S
H358 C336 0.930 . S
H359 C337 0.929 . S
Sm360 C362 2.846 . S
Sm360 O380 2.543 . S
Sm360 O381 2.450 . S
Sm360 O382 2.681 . S
Sm360 O383 2.464 . S
Sm360 O384 2.396 . S
Sm360 O388 2.386 . S
Sm360 O391 2.408 . S
Sm361 C371 2.846 . S
Sm361 O382 2.386 . S
Sm361 O385 2.408 . S
Sm361 O386 2.543 . S
Sm361 O387 2.450 . S
Sm361 O388 2.681 . S
Sm361 O389 2.464 . S
Sm361 O390 2.396 . S
C362 Sm360 2.846 . S
C362 C363 1.506 . S
C362 O380 1.261 . S
C362 O381 1.242 . S
C363 C362 1.506 . S
C363 C364 1.358 . S
C363 C368 1.382 . S
C364 C363 1.358 . S
C364 C365 1.385 . S
C364 H392 0.930 . S
C365 C364 1.385 . S
C365 C366 1.395 . S
C365 H393 0.929 . S
C366 C365 1.395 . S
C366 C367 1.335 . S
C367 C366 1.335 . S
C367 C368 1.398 . S
C367 H394 0.930 . S
C368 C363 1.382 . S
C368 C367 1.398 . S
C368 H395 0.929 . S
C369 O382 1.271 . S
C369 O383 1.251 . S
C370 O384 1.252 . S
C370 O385 1.272 . S
C371 Sm361 2.846 . S
C371 C372 1.506 . S
C371 O386 1.261 . S
C371 O387 1.242 . S
C372 C371 1.506 . S
C372 C373 1.358 . S
C372 C377 1.382 . S
C373 C372 1.358 . S
C373 C374 1.385 . S
C373 H396 0.930 . S
C374 C373 1.385 . S
C374 C375 1.395 . S
C374 H397 0.929 . S
C375 C374 1.395 . S
C375 C376 1.335 . S
C376 C375 1.335 . S
C376 C377 1.398 . S
C376 H398 0.930 . S
C377 C372 1.382 . S
C377 C376 1.398 . S
C377 H399 0.929 . S
C378 O388 1.271 . S
C378 O389 1.251 . S
C379 O390 1.252 . S
C379 O391 1.272 . S
O380 Sm360 2.543 . S
O380 C362 1.261 . S
O381 Sm360 2.450 . S
O381 C362 1.242 . S
O382 Sm360 2.681 . S
O382 Sm361 2.386 . S
O382 C369 1.271 . S
O383 Sm360 2.464 . S
O383 C369 1.251 . S
O384 Sm360 2.396 . S
O384 C370 1.252 . S
O385 Sm361 2.408 . S
O385 C370 1.272 . S
O386 Sm361 2.543 . S
O386 C371 1.261 . S
O387 Sm361 2.450 . S
O387 C371 1.242 . S
O388 Sm360 2.386 . S
O388 Sm361 2.681 . S
O388 C378 1.271 . S
O389 Sm361 2.464 . S
O389 C378 1.251 . S
O390 Sm361 2.396 . S
O390 C379 1.252 . S
O391 Sm360 2.408 . S
O391 C379 1.272 . S
H392 C364 0.930 . S
H393 C365 0.929 . S
H394 C367 0.930 . S
H395 C368 0.929 . S
H396 C373 0.930 . S
H397 C374 0.929 . S
H398 C376 0.930 . S
H399 C377 0.929 . S
Sm400 C402 2.846 . S
Sm400 O420 2.543 . S
Sm400 O421 2.450 . S
Sm400 O422 2.681 . S
Sm400 O423 2.464 . S
Sm400 O424 2.396 . S
Sm400 O428 2.386 . S
Sm400 O431 2.408 . S
Sm401 C411 2.846 . S
Sm401 O422 2.386 . S
Sm401 O425 2.408 . S
Sm401 O426 2.543 . S
Sm401 O427 2.450 . S
Sm401 O428 2.681 . S
Sm401 O429 2.464 . S
Sm401 O430 2.396 . S
C402 Sm400 2.846 . S
C402 C403 1.506 . S
C402 O420 1.261 . S
C402 O421 1.242 . S
C403 C402 1.506 . S
C403 C404 1.358 . S
C403 C408 1.382 . S
C404 C403 1.358 . S
C404 C405 1.385 . S
C404 H432 0.930 . S
C405 C404 1.385 . S
C405 C406 1.395 . S
C405 H433 0.929 . S
C406 C405 1.395 . S
C406 C407 1.335 . S
C407 C406 1.335 . S
C407 C408 1.398 . S
C407 H434 0.930 . S
C408 C403 1.382 . S
C408 C407 1.398 . S
C408 H435 0.929 . S
C409 O422 1.271 . S
C409 O423 1.251 . S
C410 O424 1.252 . S
C410 O425 1.272 . S
C411 Sm401 2.846 . S
C411 C412 1.506 . S
C411 O426 1.261 . S
C411 O427 1.242 . S
C412 C411 1.506 . S
C412 C413 1.358 . S
C412 C417 1.382 . S
C413 C412 1.358 . S
C413 C414 1.385 . S
C413 H436 0.930 . S
C414 C413 1.385 . S
C414 C415 1.395 . S
C414 H437 0.929 . S
C415 C414 1.395 . S
C415 C416 1.335 . S
C416 C415 1.335 . S
C416 C417 1.398 . S
C416 H438 0.930 . S
C417 C412 1.382 . S
C417 C416 1.398 . S
C417 H439 0.929 . S
C418 O428 1.271 . S
C418 O429 1.251 . S
C419 O430 1.252 . S
C419 O431 1.272 . S
O420 Sm400 2.543 . S
O420 C402 1.261 . S
O421 Sm400 2.450 . S
O421 C402 1.242 . S
O422 Sm400 2.681 . S
O422 Sm401 2.386 . S
O422 C409 1.271 . S
O423 Sm400 2.464 . S
O423 C409 1.251 . S
O424 Sm400 2.396 . S
O424 C410 1.252 . S
O425 Sm401 2.408 . S
O425 C410 1.272 . S
O426 Sm401 2.543 . S
O426 C411 1.261 . S
O427 Sm401 2.450 . S
O427 C411 1.242 . S
O428 Sm400 2.386 . S
O428 Sm401 2.681 . S
O428 C418 1.271 . S
O429 Sm401 2.464 . S
O429 C418 1.251 . S
O430 Sm401 2.396 . S
O430 C419 1.252 . S
O431 Sm400 2.408 . S
O431 C419 1.272 . S
H432 C404 0.930 . S
H433 C405 0.929 . S
H434 C407 0.930 . S
H435 C408 0.929 . S
H436 C413 0.930 . S
H437 C414 0.929 . S
H438 C416 0.930 . S
H439 C417 0.929 . S
Sm440 C442 2.846 . S
Sm440 O460 2.543 . S
Sm440 O461 2.450 . S
Sm440 O462 2.681 . S
Sm440 O463 2.464 . S
Sm440 O464 2.396 . S
Sm440 O468 2.386 . S
Sm440 O471 2.408 . S
Sm441 C451 2.846 . S
Sm441 O462 2.386 . S
Sm441 O465 2.408 . S
Sm441 O466 2.543 . S
Sm441 O467 2.450 . S
Sm441 O468 2.681 . S
Sm441 O469 2.464 . S
Sm441 O470 2.396 . S
C442 Sm440 2.846 . S
C442 C443 1.506 . S
C442 O460 1.261 . S
C442 O461 1.242 . S
C443 C442 1.506 . S
C443 C444 1.358 . S
C443 C448 1.382 . S
C444 C443 1.358 . S
C444 C445 1.385 . S
C444 H472 0.930 . S
C445 C444 1.385 . S
C445 C446 1.395 . S
C445 H473 0.929 . S
C446 C445 1.395 . S
C446 C447 1.335 . S
C447 C446 1.335 . S
C447 C448 1.398 . S
C447 H474 0.930 . S
C448 C443 1.382 . S
C448 C447 1.398 . S
C448 H475 0.929 . S
C449 O462 1.271 . S
C449 O463 1.251 . S
C450 O464 1.252 . S
C450 O465 1.272 . S
C451 Sm441 2.846 . S
C451 C452 1.506 . S
C451 O466 1.261 . S
C451 O467 1.242 . S
C452 C451 1.506 . S
C452 C453 1.358 . S
C452 C457 1.382 . S
C453 C452 1.358 . S
C453 C454 1.385 . S
C453 H476 0.930 . S
C454 C453 1.385 . S
C454 C455 1.395 . S
C454 H477 0.929 . S
C455 C454 1.395 . S
C455 C456 1.335 . S
C456 C455 1.335 . S
C456 C457 1.398 . S
C456 H478 0.930 . S
C457 C452 1.382 . S
C457 C456 1.398 . S
C457 H479 0.929 . S
C458 O468 1.271 . S
C458 O469 1.251 . S
C459 O470 1.252 . S
C459 O471 1.272 . S
O460 Sm440 2.543 . S
O460 C442 1.261 . S
O461 Sm440 2.450 . S
O461 C442 1.242 . S
O462 Sm440 2.681 . S
O462 Sm441 2.386 . S
O462 C449 1.271 . S
O463 Sm440 2.464 . S
O463 C449 1.251 . S
O464 Sm440 2.396 . S
O464 C450 1.252 . S
O465 Sm441 2.408 . S
O465 C450 1.272 . S
O466 Sm441 2.543 . S
O466 C451 1.261 . S
O467 Sm441 2.450 . S
O467 C451 1.242 . S
O468 Sm440 2.386 . S
O468 Sm441 2.681 . S
O468 C458 1.271 . S
O469 Sm441 2.464 . S
O469 C458 1.251 . S
O470 Sm441 2.396 . S
O470 C459 1.252 . S
O471 Sm440 2.408 . S
O471 C459 1.272 . S
H472 C444 0.930 . S
H473 C445 0.929 . S
H474 C447 0.930 . S
H475 C448 0.929 . S
H476 C453 0.930 . S
H477 C454 0.929 . S
H478 C456 0.930 . S
H479 C457 0.929 . S
Sm480 C482 2.846 . S
Sm480 O500 2.543 . S
Sm480 O501 2.450 . S
Sm480 O502 2.681 . S
Sm480 O503 2.464 . S
Sm480 O504 2.396 . S
Sm480 O508 2.386 . S
Sm480 O511 2.408 . S
Sm481 C491 2.846 . S
Sm481 O502 2.386 . S
Sm481 O505 2.408 . S
Sm481 O506 2.543 . S
Sm481 O507 2.450 . S
Sm481 O508 2.681 . S
Sm481 O509 2.464 . S
Sm481 O510 2.396 . S
C482 Sm480 2.846 . S
C482 C483 1.506 . S
C482 O500 1.261 . S
C482 O501 1.242 . S
C483 C482 1.506 . S
C483 C484 1.358 . S
C483 C488 1.382 . S
C484 C483 1.358 . S
C484 C485 1.385 . S
C484 H512 0.930 . S
C485 C484 1.385 . S
C485 C486 1.395 . S
C485 H513 0.929 . S
C486 C485 1.395 . S
C486 C487 1.335 . S
C487 C486 1.335 . S
C487 C488 1.398 . S
C487 H514 0.930 . S
C488 C483 1.382 . S
C488 C487 1.398 . S
C488 H515 0.929 . S
C489 O502 1.271 . S
C489 O503 1.251 . S
C490 O504 1.252 . S
C490 O505 1.272 . S
C491 Sm481 2.846 . S
C491 C492 1.506 . S
C491 O506 1.261 . S
C491 O507 1.242 . S
C492 C491 1.506 . S
C492 C493 1.358 . S
C492 C497 1.382 . S
C493 C492 1.358 . S
C493 C494 1.385 . S
C493 H516 0.930 . S
C494 C493 1.385 . S
C494 C495 1.395 . S
C494 H517 0.929 . S
C495 C494 1.395 . S
C495 C496 1.335 . S
C496 C495 1.335 . S
C496 C497 1.398 . S
C496 H518 0.930 . S
C497 C492 1.382 . S
C497 C496 1.398 . S
C497 H519 0.929 . S
C498 O508 1.271 . S
C498 O509 1.251 . S
C499 O510 1.252 . S
C499 O511 1.272 . S
O500 Sm480 2.543 . S
O500 C482 1.261 . S
O501 Sm480 2.450 . S
O501 C482 1.242 . S
O502 Sm480 2.681 . S
O502 Sm481 2.386 . S
O502 C489 1.271 . S
O503 Sm480 2.464 . S
O503 C489 1.251 . S
O504 Sm480 2.396 . S
O504 C490 1.252 . S
O505 Sm481 2.408 . S
O505 C490 1.272 . S
O506 Sm481 2.543 . S
O506 C491 1.261 . S
O507 Sm481 2.450 . S
O507 C491 1.242 . S
O508 Sm480 2.386 . S
O508 Sm481 2.681 . S
O508 C498 1.271 . S
O509 Sm481 2.464 . S
O509 C498 1.251 . S
O510 Sm481 2.396 . S
O510 C499 1.252 . S
O511 Sm480 2.408 . S
O511 C499 1.272 . S
H512 C484 0.930 . S
H513 C485 0.929 . S
H514 C487 0.930 . S
H515 C488 0.929 . S
H516 C493 0.930 . S
H517 C494 0.929 . S
H518 C496 0.930 . S
H519 C497 0.929 . S
Sm520 C522 2.846 . S
Sm520 O540 2.543 . S
Sm520 O541 2.450 . S
Sm520 O542 2.681 . S
Sm520 O543 2.464 . S
Sm520 O544 2.396 . S
Sm520 O548 2.386 . S
Sm520 O551 2.408 . S
Sm521 C531 2.846 . S
Sm521 O542 2.386 . S
Sm521 O545 2.408 . S
Sm521 O546 2.543 . S
Sm521 O547 2.450 . S
Sm521 O548 2.681 . S
Sm521 O549 2.464 . S
Sm521 O550 2.396 . S
C522 Sm520 2.846 . S
C522 C523 1.506 . S
C522 O540 1.261 . S
C522 O541 1.242 . S
C523 C522 1.506 . S
C523 C524 1.358 . S
C523 C528 1.382 . S
C524 C523 1.358 . S
C524 C525 1.385 . S
C524 H552 0.930 . S
C525 C524 1.385 . S
C525 C526 1.395 . S
C525 H553 0.929 . S
C526 C525 1.395 . S
C526 C527 1.335 . S
C527 C526 1.335 . S
C527 C528 1.398 . S
C527 H554 0.930 . S
C528 C523 1.382 . S
C528 C527 1.398 . S
C528 H555 0.929 . S
C529 O542 1.271 . S
C529 O543 1.251 . S
C530 O544 1.252 . S
C530 O545 1.272 . S
C531 Sm521 2.846 . S
C531 C532 1.506 . S
C531 O546 1.261 . S
C531 O547 1.242 . S
C532 C531 1.506 . S
C532 C533 1.358 . S
C532 C537 1.382 . S
C533 C532 1.358 . S
C533 C534 1.385 . S
C533 H556 0.930 . S
C534 C533 1.385 . S
C534 C535 1.395 . S
C534 H557 0.929 . S
C535 C534 1.395 . S
C535 C536 1.335 . S
C536 C535 1.335 . S
C536 C537 1.398 . S
C536 H558 0.930 . S
C537 C532 1.382 . S
C537 C536 1.398 . S
C537 H559 0.929 . S
C538 O548 1.271 . S
C538 O549 1.251 . S
C539 O550 1.252 . S
C539 O551 1.272 . S
O540 Sm520 2.543 . S
O540 C522 1.261 . S
O541 Sm520 2.450 . S
O541 C522 1.242 . S
O542 Sm520 2.681 . S
O542 Sm521 2.386 . S
O542 C529 1.271 . S
O543 Sm520 2.464 . S
O543 C529 1.251 . S
O544 Sm520 2.396 . S
O544 C530 1.252 . S
O545 Sm521 2.408 . S
O545 C530 1.272 . S
O546 Sm521 2.543 . S
O546 C531 1.261 . S
O547 Sm521 2.450 . S
O547 C531 1.242 . S
O548 Sm520 2.386 . S
O548 Sm521 2.681 . S
O548 C538 1.271 . S
O549 Sm521 2.464 . S
O549 C538 1.251 . S
O550 Sm521 2.396 . S
O550 C539 1.252 . S
O551 Sm520 2.408 . S
O551 C539 1.272 . S
H552 C524 0.930 . S
H553 C525 0.929 . S
H554 C527 0.930 . S
H555 C528 0.929 . S
H556 C533 0.930 . S
H557 C534 0.929 . S
H558 C536 0.930 . S
H559 C537 0.929 . S
Sm560 C562 2.846 . S
Sm560 O580 2.543 . S
Sm560 O581 2.450 . S
Sm560 O582 2.681 . S
Sm560 O583 2.464 . S
Sm560 O584 2.396 . S
Sm560 O588 2.386 . S
Sm560 O591 2.408 . S
Sm561 C571 2.846 . S
Sm561 O582 2.386 . S
Sm561 O585 2.408 . S
Sm561 O586 2.543 . S
Sm561 O587 2.450 . S
Sm561 O588 2.681 . S
Sm561 O589 2.464 . S
Sm561 O590 2.396 . S
C562 Sm560 2.846 . S
C562 C563 1.506 . S
C562 O580 1.261 . S
C562 O581 1.242 . S
C563 C562 1.506 . S
C563 C564 1.358 . S
C563 C568 1.382 . S
C564 C563 1.358 . S
C564 C565 1.385 . S
C564 H592 0.930 . S
C565 C564 1.385 . S
C565 C566 1.395 . S
C565 H593 0.929 . S
C566 C565 1.395 . S
C566 C567 1.335 . S
C567 C566 1.335 . S
C567 C568 1.398 . S
C567 H594 0.930 . S
C568 C563 1.382 . S
C568 C567 1.398 . S
C568 H595 0.929 . S
C569 O582 1.271 . S
C569 O583 1.251 . S
C570 O584 1.252 . S
C570 O585 1.272 . S
C571 Sm561 2.846 . S
C571 C572 1.506 . S
C571 O586 1.261 . S
C571 O587 1.242 . S
C572 C571 1.506 . S
C572 C573 1.358 . S
C572 C577 1.382 . S
C573 C572 1.358 . S
C573 C574 1.385 . S
C573 H596 0.930 . S
C574 C573 1.385 . S
C574 C575 1.395 . S
C574 H597 0.929 . S
C575 C574 1.395 . S
C575 C576 1.335 . S
C576 C575 1.335 . S
C576 C577 1.398 . S
C576 H598 0.930 . S
C577 C572 1.382 . S
C577 C576 1.398 . S
C577 H599 0.929 . S
C578 O588 1.271 . S
C578 O589 1.251 . S
C579 O590 1.252 . S
C579 O591 1.272 . S
O580 Sm560 2.543 . S
O580 C562 1.261 . S
O581 Sm560 2.450 . S
O581 C562 1.242 . S
O582 Sm560 2.681 . S
O582 Sm561 2.386 . S
O582 C569 1.271 . S
O583 Sm560 2.464 . S
O583 C569 1.251 . S
O584 Sm560 2.396 . S
O584 C570 1.252 . S
O585 Sm561 2.408 . S
O585 C570 1.272 . S
O586 Sm561 2.543 . S
O586 C571 1.261 . S
O587 Sm561 2.450 . S
O587 C571 1.242 . S
O588 Sm560 2.386 . S
O588 Sm561 2.681 . S
O588 C578 1.271 . S
O589 Sm561 2.464 . S
O589 C578 1.251 . S
O590 Sm561 2.396 . S
O590 C579 1.252 . S
O591 Sm560 2.408 . S
O591 C579 1.272 . S
H592 C564 0.930 . S
H593 C565 0.929 . S
H594 C567 0.930 . S
H595 C568 0.929 . S
H596 C573 0.930 . S
H597 C574 0.929 . S
H598 C576 0.930 . S
H599 C577 0.929 . S
Sm600 C602 2.846 . S
Sm600 O620 2.543 . S
Sm600 O621 2.450 . S
Sm600 O622 2.681 . S
Sm600 O623 2.464 . S
Sm600 O624 2.396 . S
Sm600 O628 2.386 . S
Sm600 O631 2.408 . S
Sm601 C611 2.846 . S
Sm601 O622 2.386 . S
Sm601 O625 2.408 . S
Sm601 O626 2.543 . S
Sm601 O627 2.450 . S
Sm601 O628 2.681 . S
Sm601 O629 2.464 . S
Sm601 O630 2.396 . S
C602 Sm600 2.846 . S
C602 C603 1.506 . S
C602 O620 1.261 . S
C602 O621 1.242 . S
C603 C602 1.506 . S
C603 C604 1.358 . S
C603 C608 1.382 . S
C604 C603 1.358 . S
C604 C605 1.385 1_655 S
C604 H632 0.930 1_655 S
C605 C604 1.385 1_455 S
C605 C606 1.395 1_455 S
C605 H633 0.929 . S
C606 C605 1.395 1_655 S
C606 C607 1.335 . S
C607 C606 1.335 . S
C607 C608 1.398 . S
C607 H634 0.930 . S
C608 C603 1.382 . S
C608 C607 1.398 . S
C608 H635 0.929 . S
C609 O622 1.271 . S
C609 O623 1.251 . S
C610 O624 1.252 . S
C610 O625 1.272 . S
C611 Sm601 2.846 . S
C611 C612 1.506 . S
C611 O626 1.261 . S
C611 O627 1.242 . S
C612 C611 1.506 . S
C612 C613 1.358 . S
C612 C617 1.382 . S
C613 C612 1.358 . S
C613 C614 1.385 . S
C613 H636 0.930 . S
C614 C613 1.385 . S
C614 C615 1.395 . S
C614 H637 0.929 . S
C615 C614 1.395 . S
C615 C616 1.335 . S
C616 C615 1.335 . S
C616 C617 1.398 . S
C616 H638 0.930 . S
C617 C612 1.382 . S
C617 C616 1.398 . S
C617 H639 0.929 . S
C618 O628 1.271 . S
C618 O629 1.251 . S
C619 O630 1.252 . S
C619 O631 1.272 . S
O620 Sm600 2.543 . S
O620 C602 1.261 . S
O621 Sm600 2.450 . S
O621 C602 1.242 . S
O622 Sm600 2.681 . S
O622 Sm601 2.386 . S
O622 C609 1.271 . S
O623 Sm600 2.464 . S
O623 C609 1.251 . S
O624 Sm600 2.396 . S
O624 C610 1.252 . S
O625 Sm601 2.408 . S
O625 C610 1.272 . S
O626 Sm601 2.543 . S
O626 C611 1.261 . S
O627 Sm601 2.450 . S
O627 C611 1.242 . S
O628 Sm600 2.386 . S
O628 Sm601 2.681 . S
O628 C618 1.271 . S
O629 Sm601 2.464 . S
O629 C618 1.251 . S
O630 Sm601 2.396 . S
O630 C619 1.252 . S
O631 Sm600 2.408 . S
O631 C619 1.272 . S
H632 C604 0.930 1_455 S
H633 C605 0.929 . S
H634 C607 0.930 . S
H635 C608 0.929 . S
H636 C613 0.930 . S
H637 C614 0.929 . S
H638 C616 0.930 . S
H639 C617 0.929 . S
Sm640 C642 2.846 . S
Sm640 O660 2.543 . S
Sm640 O661 2.450 . S
Sm640 O662 2.681 . S
Sm640 O663 2.464 . S
Sm640 O664 2.396 . S
Sm640 O668 2.386 . S
Sm640 O671 2.408 . S
Sm641 C651 2.846 . S
Sm641 O662 2.386 . S
Sm641 O665 2.408 . S
Sm641 O666 2.543 . S
Sm641 O667 2.450 . S
Sm641 O668 2.681 . S
Sm641 O669 2.464 . S
Sm641 O670 2.396 . S
C642 Sm640 2.846 . S
C642 C643 1.506 . S
C642 O660 1.261 . S
C642 O661 1.242 . S
C643 C642 1.506 . S
C643 C644 1.358 . S
C643 C648 1.382 . S
C644 C643 1.358 . S
C644 C645 1.385 . S
C644 H672 0.930 . S
C645 C644 1.385 . S
C645 C646 1.395 . S
C645 H673 0.929 . S
C646 C645 1.395 . S
C646 C647 1.335 . S
C647 C646 1.335 . S
C647 C648 1.398 . S
C647 H674 0.930 . S
C648 C643 1.382 . S
C648 C647 1.398 . S
C648 H675 0.929 . S
C649 O662 1.271 . S
C649 O663 1.251 . S
C650 O664 1.252 . S
C650 O665 1.272 . S
C651 Sm641 2.846 . S
C651 C652 1.506 . S
C651 O666 1.261 . S
C651 O667 1.242 . S
C652 C651 1.506 . S
C652 C653 1.358 . S
C652 C657 1.382 . S
C653 C652 1.358 . S
C653 C654 1.385 . S
C653 H676 0.930 . S
C654 C653 1.385 . S
C654 C655 1.395 . S
C654 H677 0.929 . S
C655 C654 1.395 . S
C655 C656 1.335 . S
C656 C655 1.335 . S
C656 C657 1.398 . S
C656 H678 0.930 . S
C657 C652 1.382 . S
C657 C656 1.398 . S
C657 H679 0.929 . S
C658 O668 1.271 . S
C658 O669 1.251 . S
C659 O670 1.252 . S
C659 O671 1.272 . S
O660 Sm640 2.543 . S
O660 C642 1.261 . S
O661 Sm640 2.450 . S
O661 C642 1.242 . S
O662 Sm640 2.681 . S
O662 Sm641 2.386 . S
O662 C649 1.271 . S
O663 Sm640 2.464 . S
O663 C649 1.251 . S
O664 Sm640 2.396 . S
O664 C650 1.252 . S
O665 Sm641 2.408 . S
O665 C650 1.272 . S
O666 Sm641 2.543 . S
O666 C651 1.261 . S
O667 Sm641 2.450 . S
O667 C651 1.242 . S
O668 Sm640 2.386 . S
O668 Sm641 2.681 . S
O668 C658 1.271 . S
O669 Sm641 2.464 . S
O669 C658 1.251 . S
O670 Sm641 2.396 . S
O670 C659 1.252 . S
O671 Sm640 2.408 . S
O671 C659 1.272 . S
H672 C644 0.930 . S
H673 C645 0.929 . S
H674 C647 0.930 . S
H675 C648 0.929 . S
H676 C653 0.930 . S
H677 C654 0.929 . S
H678 C656 0.930 . S
H679 C657 0.929 . S
Sm680 C682 2.846 . S
Sm680 O700 2.543 . S
Sm680 O701 2.450 . S
Sm680 O702 2.681 . S
Sm680 O703 2.464 . S
Sm680 O704 2.396 . S
Sm680 O708 2.386 . S
Sm680 O711 2.408 . S
Sm681 C691 2.846 . S
Sm681 O702 2.386 . S
Sm681 O705 2.408 . S
Sm681 O706 2.543 . S
Sm681 O707 2.450 . S
Sm681 O708 2.681 . S
Sm681 O709 2.464 . S
Sm681 O710 2.396 . S
C682 Sm680 2.846 . S
C682 C683 1.506 . S
C682 O700 1.261 . S
C682 O701 1.242 . S
C683 C682 1.506 . S
C683 C684 1.358 . S
C683 C688 1.382 . S
C684 C683 1.358 . S
C684 C685 1.385 1_545 S
C684 H712 0.930 1_545 S
C685 C684 1.385 1_565 S
C685 C686 1.395 1_565 S
C685 H713 0.929 . S
C686 C685 1.395 1_545 S
C686 C687 1.335 . S
C687 C686 1.335 . S
C687 C688 1.398 . S
C687 H714 0.930 . S
C688 C683 1.382 . S
C688 C687 1.398 . S
C688 H715 0.929 . S
C689 O702 1.271 . S
C689 O703 1.251 . S
C690 O704 1.252 . S
C690 O705 1.272 . S
C691 Sm681 2.846 . S
C691 C692 1.506 . S
C691 O706 1.261 . S
C691 O707 1.242 . S
C692 C691 1.506 . S
C692 C693 1.358 . S
C692 C697 1.382 . S
C693 C692 1.358 . S
C693 C694 1.385 . S
C693 H716 0.930 . S
C694 C693 1.385 . S
C694 C695 1.395 . S
C694 H717 0.929 . S
C695 C694 1.395 . S
C695 C696 1.335 . S
C696 C695 1.335 . S
C696 C697 1.398 . S
C696 H718 0.930 . S
C697 C692 1.382 . S
C697 C696 1.398 . S
C697 H719 0.929 . S
C698 O708 1.271 . S
C698 O709 1.251 . S
C699 O710 1.252 . S
C699 O711 1.272 . S
O700 Sm680 2.543 . S
O700 C682 1.261 . S
O701 Sm680 2.450 . S
O701 C682 1.242 . S
O702 Sm680 2.681 . S
O702 Sm681 2.386 . S
O702 C689 1.271 . S
O703 Sm680 2.464 . S
O703 C689 1.251 . S
O704 Sm680 2.396 . S
O704 C690 1.252 . S
O705 Sm681 2.408 . S
O705 C690 1.272 . S
O706 Sm681 2.543 . S
O706 C691 1.261 . S
O707 Sm681 2.450 . S
O707 C691 1.242 . S
O708 Sm680 2.386 . S
O708 Sm681 2.681 . S
O708 C698 1.271 . S
O709 Sm681 2.464 . S
O709 C698 1.251 . S
O710 Sm681 2.396 . S
O710 C699 1.252 . S
O711 Sm680 2.408 . S
O711 C699 1.272 . S
H712 C684 0.930 1_565 S
H713 C685 0.929 . S
H714 C687 0.930 . S
H715 C688 0.929 . S
H716 C693 0.930 . S
H717 C694 0.929 . S
H718 C696 0.930 . S
H719 C697 0.929 . S
Sm720 C722 2.846 . S
Sm720 O740 2.543 . S
Sm720 O741 2.450 . S
Sm720 O742 2.681 . S
Sm720 O743 2.464 . S
Sm720 O744 2.396 . S
Sm720 O748 2.386 . S
Sm720 O751 2.408 . S
Sm721 C731 2.846 . S
Sm721 O742 2.386 . S
Sm721 O745 2.408 . S
Sm721 O746 2.543 . S
Sm721 O747 2.450 . S
Sm721 O748 2.681 . S
Sm721 O749 2.464 . S
Sm721 O750 2.396 . S
C722 Sm720 2.846 . S
C722 C723 1.506 . S
C722 O740 1.261 . S
C722 O741 1.242 . S
C723 C722 1.506 . S
C723 C724 1.358 . S
C723 C728 1.382 . S
C724 C723 1.358 . S
C724 C725 1.385 . S
C724 H752 0.930 . S
C725 C724 1.385 . S
C725 C726 1.395 . S
C725 H753 0.929 . S
C726 C725 1.395 . S
C726 C727 1.335 . S
C727 C726 1.335 . S
C727 C728 1.398 . S
C727 H754 0.930 . S
C728 C723 1.382 . S
C728 C727 1.398 . S
C728 H755 0.929 . S
C729 O742 1.271 . S
C729 O743 1.251 . S
C730 O744 1.252 . S
C730 O745 1.272 . S
C731 Sm721 2.846 . S
C731 C732 1.506 . S
C731 O746 1.261 . S
C731 O747 1.242 . S
C732 C731 1.506 . S
C732 C733 1.358 . S
C732 C737 1.382 . S
C733 C732 1.358 . S
C733 C734 1.385 1_545 S
C733 H756 0.930 1_545 S
C734 C733 1.385 1_565 S
C734 C735 1.395 1_565 S
C734 H757 0.929 . S
C735 C734 1.395 1_545 S
C735 C736 1.335 . S
C736 C735 1.335 . S
C736 C737 1.398 . S
C736 H758 0.930 . S
C737 C732 1.382 . S
C737 C736 1.398 . S
C737 H759 0.929 . S
C738 O748 1.271 . S
C738 O749 1.251 . S
C739 O750 1.252 . S
C739 O751 1.272 . S
O740 Sm720 2.543 . S
O740 C722 1.261 . S
O741 Sm720 2.450 . S
O741 C722 1.242 . S
O742 Sm720 2.681 . S
O742 Sm721 2.386 . S
O742 C729 1.271 . S
O743 Sm720 2.464 . S
O743 C729 1.251 . S
O744 Sm720 2.396 . S
O744 C730 1.252 . S
O745 Sm721 2.408 . S
O745 C730 1.272 . S
O746 Sm721 2.543 . S
O746 C731 1.261 . S
O747 Sm721 2.450 . S
O747 C731 1.242 . S
O748 Sm720 2.386 . S
O748 Sm721 2.681 . S
O748 C738 1.271 . S
O749 Sm721 2.464 . S
O749 C738 1.251 . S
O750 Sm721 2.396 . S
O750 C739 1.252 . S
O751 Sm720 2.408 . S
O751 C739 1.272 . S
H752 C724 0.930 . S
H753 C725 0.929 . S
H754 C727 0.930 . S
H755 C728 0.929 . S
H756 C733 0.930 1_565 S
H757 C734 0.929 . S
H758 C736 0.930 . S
H759 C737 0.929 . S
Sm760 C762 2.846 . S
Sm760 O780 2.543 . S
Sm760 O781 2.450 . S
Sm760 O782 2.681 . S
Sm760 O783 2.464 . S
Sm760 O784 2.396 . S
Sm760 O788 2.386 . S
Sm760 O791 2.408 . S
Sm761 C771 2.846 . S
Sm761 O782 2.386 . S
Sm761 O785 2.408 . S
Sm761 O786 2.543 . S
Sm761 O787 2.450 . S
Sm761 O788 2.681 . S
Sm761 O789 2.464 . S
Sm761 O790 2.396 . S
C762 Sm760 2.846 . S
C762 C763 1.506 . S
C762 O780 1.261 . S
C762 O781 1.242 . S
C763 C762 1.506 . S
C763 C764 1.358 . S
C763 C768 1.382 . S
C764 C763 1.358 . S
C764 C765 1.385 . S
C764 H792 0.930 . S
C765 C764 1.385 . S
C765 C766 1.395 . S
C765 H793 0.929 . S
C766 C765 1.395 . S
C766 C767 1.335 . S
C767 C766 1.335 . S
C767 C768 1.398 . S
C767 H794 0.930 . S
C768 C763 1.382 . S
C768 C767 1.398 . S
C768 H795 0.929 . S
C769 O782 1.271 . S
C769 O783 1.251 . S
C770 O784 1.252 . S
C770 O785 1.272 . S
C771 Sm761 2.846 . S
C771 C772 1.506 . S
C771 O786 1.261 . S
C771 O787 1.242 . S
C772 C771 1.506 . S
C772 C773 1.358 . S
C772 C777 1.382 . S
C773 C772 1.358 . S
C773 C774 1.385 1_655 S
C773 H796 0.930 1_655 S
C774 C773 1.385 1_455 S
C774 C775 1.395 1_455 S
C774 H797 0.929 . S
C775 C774 1.395 1_655 S
C775 C776 1.335 . S
C776 C775 1.335 . S
C776 C777 1.398 . S
C776 H798 0.930 . S
C777 C772 1.382 . S
C777 C776 1.398 . S
C777 H799 0.929 . S
C778 O788 1.271 . S
C778 O789 1.251 . S
C779 O790 1.252 . S
C779 O791 1.272 . S
O780 Sm760 2.543 . S
O780 C762 1.261 . S
O781 Sm760 2.450 . S
O781 C762 1.242 . S
O782 Sm760 2.681 . S
O782 Sm761 2.386 . S
O782 C769 1.271 . S
O783 Sm760 2.464 . S
O783 C769 1.251 . S
O784 Sm760 2.396 . S
O784 C770 1.252 . S
O785 Sm761 2.408 . S
O785 C770 1.272 . S
O786 Sm761 2.543 . S
O786 C771 1.261 . S
O787 Sm761 2.450 . S
O787 C771 1.242 . S
O788 Sm760 2.386 . S
O788 Sm761 2.681 . S
O788 C778 1.271 . S
O789 Sm761 2.464 . S
O789 C778 1.251 . S
O790 Sm761 2.396 . S
O790 C779 1.252 . S
O791 Sm760 2.408 . S
O791 C779 1.272 . S
H792 C764 0.930 . S
H793 C765 0.929 . S
H794 C767 0.930 . S
H795 C768 0.929 . S
H796 C773 0.930 1_455 S
H797 C774 0.929 . S
H798 C776 0.930 . S
H799 C777 0.929 . S
Sm800 C802 2.846 . S
Sm800 O820 2.543 . S
Sm800 O821 2.450 . S
Sm800 O822 2.681 . S
Sm800 O823 2.464 . S
Sm800 O824 2.396 . S
Sm800 O828 2.386 . S
Sm800 O831 2.408 . S
Sm801 C811 2.846 . S
Sm801 O822 2.386 . S
Sm801 O825 2.408 . S
Sm801 O826 2.543 . S
Sm801 O827 2.450 . S
Sm801 O828 2.681 . S
Sm801 O829 2.464 . S
Sm801 O830 2.396 . S
C802 Sm800 2.846 . S
C802 C803 1.506 . S
C802 O820 1.261 . S
C802 O821 1.242 . S
C803 C802 1.506 . S
C803 C804 1.358 . S
C803 C808 1.382 . S
C804 C803 1.358 . S
C804 C805 1.385 . S
C804 H832 0.930 . S
C805 C804 1.385 . S
C805 C806 1.395 . S
C805 H833 0.929 . S
C806 C805 1.395 . S
C806 C807 1.335 . S
C807 C806 1.335 . S
C807 C808 1.398 . S
C807 H834 0.930 . S
C808 C803 1.382 . S
C808 C807 1.398 . S
C808 H835 0.929 . S
C809 O822 1.271 . S
C809 O823 1.251 . S
C810 O824 1.252 . S
C810 O825 1.272 . S
C811 Sm801 2.846 . S
C811 C812 1.506 . S
C811 O826 1.261 . S
C811 O827 1.242 . S
C812 C811 1.506 . S
C812 C813 1.358 . S
C812 C817 1.382 . S
C813 C812 1.358 . S
C813 C814 1.385 . S
C813 H836 0.930 . S
C814 C813 1.385 . S
C814 C815 1.395 . S
C814 H837 0.929 . S
C815 C814 1.395 . S
C815 C816 1.335 . S
C816 C815 1.335 . S
C816 C817 1.398 . S
C816 H838 0.930 . S
C817 C812 1.382 . S
C817 C816 1.398 . S
C817 H839 0.929 . S
C818 O828 1.271 . S
C818 O829 1.251 . S
C819 O830 1.252 . S
C819 O831 1.272 . S
O820 Sm800 2.543 . S
O820 C802 1.261 . S
O821 Sm800 2.450 . S
O821 C802 1.242 . S
O822 Sm800 2.681 . S
O822 Sm801 2.386 . S
O822 C809 1.271 . S
O823 Sm800 2.464 . S
O823 C809 1.251 . S
O824 Sm800 2.396 . S
O824 C810 1.252 . S
O825 Sm801 2.408 . S
O825 C810 1.272 . S
O826 Sm801 2.543 . S
O826 C811 1.261 . S
O827 Sm801 2.450 . S
O827 C811 1.242 . S
O828 Sm800 2.386 . S
O828 Sm801 2.681 . S
O828 C818 1.271 . S
O829 Sm801 2.464 . S
O829 C818 1.251 . S
O830 Sm801 2.396 . S
O830 C819 1.252 . S
O831 Sm800 2.408 . S
O831 C819 1.272 . S
H832 C804 0.930 . S
H833 C805 0.929 . S
H834 C807 0.930 . S
H835 C808 0.929 . S
H836 C813 0.930 . S
H837 C814 0.929 . S
H838 C816 0.930 . S
H839 C817 0.929 . S
Sm840 C842 2.846 . S
Sm840 O860 2.543 . S
Sm840 O861 2.450 . S
Sm840 O862 2.681 1_554 S
Sm840 O863 2.464 . S
Sm840 O864 2.396 . S
Sm840 O868 2.386 . S
Sm840 O871 2.408 . S
Sm841 C851 2.846 . S
Sm841 O862 2.386 . S
Sm841 O865 2.408 . S
Sm841 O866 2.543 . S
Sm841 O867 2.450 . S
Sm841 O868 2.681 1_556 S
Sm841 O869 2.464 . S
Sm841 O870 2.396 . S
C842 Sm840 2.846 . S
C842 C843 1.506 . S
C842 O860 1.261 . S
C842 O861 1.242 . S
C843 C842 1.506 . S
C843 C844 1.358 . S
C843 C848 1.382 . S
C844 C843 1.358 . S
C844 C845 1.385 . S
C844 H872 0.930 . S
C845 C844 1.385 . S
C845 C846 1.395 . S
C845 H873 0.929 . S
C846 C845 1.395 . S
C846 C847 1.335 . S
C847 C846 1.335 . S
C847 C848 1.398 . S
C847 H874 0.930 . S
C848 C843 1.382 . S
C848 C847 1.398 . S
C848 H875 0.929 . S
C849 O862 1.271 1_554 S
C849 O863 1.251 . S
C850 O864 1.252 . S
C850 O865 1.272 1_554 S
C851 Sm841 2.846 . S
C851 C852 1.506 . S
C851 O866 1.261 . S
C851 O867 1.242 . S
C852 C851 1.506 . S
C852 C853 1.358 . S
C852 C857 1.382 . S
C853 C852 1.358 . S
C853 C854 1.385 . S
C853 H876 0.930 . S
C854 C853 1.385 . S
C854 C855 1.395 . S
C854 H877 0.929 . S
C855 C854 1.395 . S
C855 C856 1.335 . S
C856 C855 1.335 . S
C856 C857 1.398 . S
C856 H878 0.930 . S
C857 C852 1.382 . S
C857 C856 1.398 . S
C857 H879 0.929 . S
C858 O868 1.271 1_556 S
C858 O869 1.251 . S
C859 O870 1.252 . S
C859 O871 1.272 1_556 S
O860 Sm840 2.543 . S
O860 C842 1.261 . S
O861 Sm840 2.450 . S
O861 C842 1.242 . S
O862 Sm840 2.681 1_556 S
O862 Sm841 2.386 . S
O862 C849 1.271 1_556 S
O863 Sm840 2.464 . S
O863 C849 1.251 . S
O864 Sm840 2.396 . S
O864 C850 1.252 . S
O865 Sm841 2.408 . S
O865 C850 1.272 1_556 S
O866 Sm841 2.543 . S
O866 C851 1.261 . S
O867 Sm841 2.450 . S
O867 C851 1.242 . S
O868 Sm840 2.386 . S
O868 Sm841 2.681 1_554 S
O868 C858 1.271 1_554 S
O869 Sm841 2.464 . S
O869 C858 1.251 . S
O870 Sm841 2.396 . S
O870 C859 1.252 . S
O871 Sm840 2.408 . S
O871 C859 1.272 1_554 S
H872 C844 0.930 . S
H873 C845 0.929 . S
H874 C847 0.930 . S
H875 C848 0.929 . S
H876 C853 0.930 . S
H877 C854 0.929 . S
H878 C856 0.930 . S
H879 C857 0.929 . S
Sm880 C882 2.846 . S
Sm880 O900 2.543 . S
Sm880 O901 2.450 . S
Sm880 O902 2.681 1_554 S
Sm880 O903 2.464 . S
Sm880 O904 2.396 . S
Sm880 O908 2.386 . S
Sm880 O911 2.408 . S
Sm881 C891 2.846 . S
Sm881 O902 2.386 . S
Sm881 O905 2.408 . S
Sm881 O906 2.543 . S
Sm881 O907 2.450 . S
Sm881 O908 2.681 1_556 S
Sm881 O909 2.464 . S
Sm881 O910 2.396 . S
C882 Sm880 2.846 . S
C882 C883 1.506 . S
C882 O900 1.261 . S
C882 O901 1.242 . S
C883 C882 1.506 . S
C883 C884 1.358 . S
C883 C888 1.382 . S
C884 C883 1.358 . S
C884 C885 1.385 . S
C884 H912 0.930 . S
C885 C884 1.385 . S
C885 C886 1.395 . S
C885 H913 0.929 . S
C886 C885 1.395 . S
C886 C887 1.335 . S
C887 C886 1.335 . S
C887 C888 1.398 . S
C887 H914 0.930 . S
C888 C883 1.382 . S
C888 C887 1.398 . S
C888 H915 0.929 . S
C889 O902 1.271 1_554 S
C889 O903 1.251 . S
C890 O904 1.252 . S
C890 O905 1.272 1_554 S
C891 Sm881 2.846 . S
C891 C892 1.506 . S
C891 O906 1.261 . S
C891 O907 1.242 . S
C892 C891 1.506 . S
C892 C893 1.358 . S
C892 C897 1.382 . S
C893 C892 1.358 . S
C893 C894 1.385 . S
C893 H916 0.930 . S
C894 C893 1.385 . S
C894 C895 1.395 . S
C894 H917 0.929 . S
C895 C894 1.395 . S
C895 C896 1.335 . S
C896 C895 1.335 . S
C896 C897 1.398 . S
C896 H918 0.930 . S
C897 C892 1.382 . S
C897 C896 1.398 . S
C897 H919 0.929 . S
C898 O908 1.271 1_556 S
C898 O909 1.251 . S
C899 O910 1.252 . S
C899 O911 1.272 1_556 S
O900 Sm880 2.543 . S
O900 C882 1.261 . S
O901 Sm880 2.450 . S
O901 C882 1.242 . S
O902 Sm880 2.681 1_556 S
O902 Sm881 2.386 . S
O902 C889 1.271 1_556 S
O903 Sm880 2.464 . S
O903 C889 1.251 . S
O904 Sm880 2.396 . S
O904 C890 1.252 . S
O905 Sm881 2.408 . S
O905 C890 1.272 1_556 S
O906 Sm881 2.543 . S
O906 C891 1.261 . S
O907 Sm881 2.450 . S
O907 C891 1.242 . S
O908 Sm880 2.386 . S
O908 Sm881 2.681 1_554 S
O908 C898 1.271 1_554 S
O909 Sm881 2.464 . S
O909 C898 1.251 . S
O910 Sm881 2.396 . S
O910 C899 1.252 . S
O911 Sm880 2.408 . S
O911 C899 1.272 1_554 S
H912 C884 0.930 . S
H913 C885 0.929 . S
H914 C887 0.930 . S
H915 C888 0.929 . S
H916 C893 0.930 . S
H917 C894 0.929 . S
H918 C896 0.930 . S
H919 C897 0.929 . S
Sm920 C922 2.846 . S
Sm920 O940 2.543 . S
Sm920 O941 2.450 . S
Sm920 O942 2.681 1_554 S
Sm920 O943 2.464 . S
Sm920 O944 2.396 . S
Sm920 O948 2.386 . S
Sm920 O951 2.408 . S
Sm921 C931 2.846 . S
Sm921 O942 2.386 . S
Sm921 O945 2.408 . S
Sm921 O946 2.543 . S
Sm921 O947 2.450 . S
Sm921 O948 2.681 1_556 S
Sm921 O949 2.464 . S
Sm921 O950 2.396 . S
C922 Sm920 2.846 . S
C922 C923 1.506 . S
C922 O940 1.261 . S
C922 O941 1.242 . S
C923 C922 1.506 . S
C923 C924 1.358 . S
C923 C928 1.382 . S
C924 C923 1.358 . S
C924 C925 1.385 . S
C924 H952 0.930 . S
C925 C924 1.385 . S
C925 C926 1.395 . S
C925 H953 0.929 . S
C926 C925 1.395 . S
C926 C927 1.335 . S
C927 C926 1.335 . S
C927 C928 1.398 . S
C927 H954 0.930 . S
C928 C923 1.382 . S
C928 C927 1.398 . S
C928 H955 0.929 . S
C929 O942 1.271 1_554 S
C929 O943 1.251 . S
C930 O944 1.252 . S
C930 O945 1.272 1_554 S
C931 Sm921 2.846 . S
C931 C932 1.506 . S
C931 O946 1.261 . S
C931 O947 1.242 . S
C932 C931 1.506 . S
C932 C933 1.358 . S
C932 C937 1.382 . S
C933 C932 1.358 . S
C933 C934 1.385 . S
C933 H956 0.930 . S
C934 C933 1.385 . S
C934 C935 1.395 . S
C934 H957 0.929 . S
C935 C934 1.395 . S
C935 C936 1.335 . S
C936 C935 1.335 . S
C936 C937 1.398 . S
C936 H958 0.930 . S
C937 C932 1.382 . S
C937 C936 1.398 . S
C937 H959 0.929 . S
C938 O948 1.271 1_556 S
C938 O949 1.251 . S
C939 O950 1.252 . S
C939 O951 1.272 1_556 S
O940 Sm920 2.543 . S
O940 C922 1.261 . S
O941 Sm920 2.450 . S
O941 C922 1.242 . S
O942 Sm920 2.681 1_556 S
O942 Sm921 2.386 . S
O942 C929 1.271 1_556 S
O943 Sm920 2.464 . S
O943 C929 1.251 . S
O944 Sm920 2.396 . S
O944 C930 1.252 . S
O945 Sm921 2.408 . S
O945 C930 1.272 1_556 S
O946 Sm921 2.543 . S
O946 C931 1.261 . S
O947 Sm921 2.450 . S
O947 C931 1.242 . S
O948 Sm920 2.386 . S
O948 Sm921 2.681 1_554 S
O948 C938 1.271 1_554 S
O949 Sm921 2.464 . S
O949 C938 1.251 . S
O950 Sm921 2.396 . S
O950 C939 1.252 . S
O951 Sm920 2.408 . S
O951 C939 1.272 1_554 S
H952 C924 0.930 . S
H953 C925 0.929 . S
H954 C927 0.930 . S
H955 C928 0.929 . S
H956 C933 0.930 . S
H957 C934 0.929 . S
H958 C936 0.930 . S
H959 C937 0.929 . S
Sm960 C962 2.846 . S
Sm960 O980 2.543 . S
Sm960 O981 2.450 . S
Sm960 O982 2.681 . S
Sm960 O983 2.464 . S
Sm960 O984 2.396 . S
Sm960 O988 2.386 . S
Sm960 O991 2.408 . S
Sm961 C971 2.846 . S
Sm961 O982 2.386 . S
Sm961 O985 2.408 . S
Sm961 O986 2.543 . S
Sm961 O987 2.450 . S
Sm961 O988 2.681 . S
Sm961 O989 2.464 . S
Sm961 O990 2.396 . S
C962 Sm960 2.846 . S
C962 C963 1.506 . S
C962 O980 1.261 . S
C962 O981 1.242 . S
C963 C962 1.506 . S
C963 C964 1.358 . S
C963 C968 1.382 . S
C964 C963 1.358 . S
C964 C965 1.385 1_565 S
C964 H992 0.930 1_565 S
C965 C964 1.385 1_545 S
C965 C966 1.395 1_545 S
C965 H993 0.929 . S
C966 C965 1.395 1_565 S
C966 C967 1.335 . S
C967 C966 1.335 . S
C967 C968 1.398 . S
C967 H994 0.930 . S
C968 C963 1.382 . S
C968 C967 1.398 . S
C968 H995 0.929 . S
C969 O982 1.271 . S
C969 O983 1.251 . S
C970 O984 1.252 . S
C970 O985 1.272 . S
C971 Sm961 2.846 . S
C971 C972 1.506 . S
C971 O986 1.261 . S
C971 O987 1.242 . S
C972 C971 1.506 . S
C972 C973 1.358 . S
C972 C977 1.382 . S
C973 C972 1.358 . S
C973 C974 1.385 . S
C973 H996 0.930 . S
C974 C973 1.385 . S
C974 C975 1.395 . S
C974 H997 0.929 . S
C975 C974 1.395 . S
C975 C976 1.335 . S
C976 C975 1.335 . S
C976 C977 1.398 . S
C976 H998 0.930 . S
C977 C972 1.382 . S
C977 C976 1.398 . S
C977 H999 0.929 . S
C978 O988 1.271 . S
C978 O989 1.251 . S
C979 O990 1.252 . S
C979 O991 1.272 . S
O980 Sm960 2.543 . S
O980 C962 1.261 . S
O981 Sm960 2.450 . S
O981 C962 1.242 . S
O982 Sm960 2.681 . S
O982 Sm961 2.386 . S
O982 C969 1.271 . S
O983 Sm960 2.464 . S
O983 C969 1.251 . S
O984 Sm960 2.396 . S
O984 C970 1.252 . S
O985 Sm961 2.408 . S
O985 C970 1.272 . S
O986 Sm961 2.543 . S
O986 C971 1.261 . S
O987 Sm961 2.450 . S
O987 C971 1.242 . S
O988 Sm960 2.386 . S
O988 Sm961 2.681 . S
O988 C978 1.271 . S
O989 Sm961 2.464 . S
O989 C978 1.251 . S
O990 Sm961 2.396 . S
O990 C979 1.252 . S
O991 Sm960 2.408 . S
O991 C979 1.272 . S
H992 C964 0.930 1_545 S
H993 C965 0.929 . S
H994 C967 0.930 . S
H995 C968 0.929 . S
H996 C973 0.930 . S
H997 C974 0.929 . S
H998 C976 0.930 . S
H999 C977 0.929 . S
Sm1000 C1002 2.846 . S
Sm1000 O1020 2.543 . S
Sm1000 O1021 2.450 . S
Sm1000 O1022 2.681 . S
Sm1000 O1023 2.464 . S
Sm1000 O1024 2.396 . S
Sm1000 O1028 2.386 . S
Sm1000 O1031 2.408 . S
Sm1001 C1011 2.846 . S
Sm1001 O1022 2.386 . S
Sm1001 O1025 2.408 . S
Sm1001 O1026 2.543 . S
Sm1001 O1027 2.450 . S
Sm1001 O1028 2.681 . S
Sm1001 O1029 2.464 . S
Sm1001 O1030 2.396 . S
C1002 Sm1000 2.846 . S
C1002 C1003 1.506 . S
C1002 O1020 1.261 . S
C1002 O1021 1.242 . S
C1003 C1002 1.506 . S
C1003 C1004 1.358 . S
C1003 C1008 1.382 . S
C1004 C1003 1.358 . S
C1004 C1005 1.385 1_455 S
C1004 H1032 0.930 1_455 S
C1005 C1004 1.385 1_655 S
C1005 C1006 1.395 1_655 S
C1005 H1033 0.929 . S
C1006 C1005 1.395 1_455 S
C1006 C1007 1.335 . S
C1007 C1006 1.335 . S
C1007 C1008 1.398 . S
C1007 H1034 0.930 . S
C1008 C1003 1.382 . S
C1008 C1007 1.398 . S
C1008 H1035 0.929 . S
C1009 O1022 1.271 . S
C1009 O1023 1.251 . S
C1010 O1024 1.252 . S
C1010 O1025 1.272 . S
C1011 Sm1001 2.846 . S
C1011 C1012 1.506 . S
C1011 O1026 1.261 . S
C1011 O1027 1.242 . S
C1012 C1011 1.506 . S
C1012 C1013 1.358 . S
C1012 C1017 1.382 . S
C1013 C1012 1.358 . S
C1013 C1014 1.385 . S
C1013 H1036 0.930 . S
C1014 C1013 1.385 . S
C1014 C1015 1.395 . S
C1014 H1037 0.929 . S
C1015 C1014 1.395 . S
C1015 C1016 1.335 . S
C1016 C1015 1.335 . S
C1016 C1017 1.398 . S
C1016 H1038 0.930 . S
C1017 C1012 1.382 . S
C1017 C1016 1.398 . S
C1017 H1039 0.929 . S
C1018 O1028 1.271 . S
C1018 O1029 1.251 . S
C1019 O1030 1.252 . S
C1019 O1031 1.272 . S
O1020 Sm1000 2.543 . S
O1020 C1002 1.261 . S
O1021 Sm1000 2.450 . S
O1021 C1002 1.242 . S
O1022 Sm1000 2.681 . S
O1022 Sm1001 2.386 . S
O1022 C1009 1.271 . S
O1023 Sm1000 2.464 . S
O1023 C1009 1.251 . S
O1024 Sm1000 2.396 . S
O1024 C1010 1.252 . S
O1025 Sm1001 2.408 . S
O1025 C1010 1.272 . S
O1026 Sm1001 2.543 . S
O1026 C1011 1.261 . S
O1027 Sm1001 2.450 . S
O1027 C1011 1.242 . S
O1028 Sm1000 2.386 . S
O1028 Sm1001 2.681 . S
O1028 C1018 1.271 . S
O1029 Sm1001 2.464 . S
O1029 C1018 1.251 . S
O1030 Sm1001 2.396 . S
O1030 C1019 1.252 . S
O1031 Sm1000 2.408 . S
O1031 C1019 1.272 . S
H1032 C1004 0.930 1_655 S
H1033 C1005 0.929 . S
H1034 C1007 0.930 . S
H1035 C1008 0.929 . S
H1036 C1013 0.930 . S
H1037 C1014 0.929 . S
H1038 C1016 0.930 . S
H1039 C1017 0.929 . S
Sm1040 C1042 2.846 . S
Sm1040 O1060 2.543 . S
Sm1040 O1061 2.450 . S
Sm1040 O1062 2.681 . S
Sm1040 O1063 2.464 . S
Sm1040 O1064 2.396 . S
Sm1040 O1068 2.386 . S
Sm1040 O1071 2.408 . S
Sm1041 C1051 2.846 . S
Sm1041 O1062 2.386 . S
Sm1041 O1065 2.408 . S
Sm1041 O1066 2.543 . S
Sm1041 O1067 2.450 . S
Sm1041 O1068 2.681 . S
Sm1041 O1069 2.464 . S
Sm1041 O1070 2.396 . S
C1042 Sm1040 2.846 . S
C1042 C1043 1.506 . S
C1042 O1060 1.261 . S
C1042 O1061 1.242 . S
C1043 C1042 1.506 . S
C1043 C1044 1.358 . S
C1043 C1048 1.382 . S
C1044 C1043 1.358 . S
C1044 C1045 1.385 . S
C1044 H1072 0.930 . S
C1045 C1044 1.385 . S
C1045 C1046 1.395 . S
C1045 H1073 0.929 . S
C1046 C1045 1.395 . S
C1046 C1047 1.335 . S
C1047 C1046 1.335 . S
C1047 C1048 1.398 . S
C1047 H1074 0.930 . S
C1048 C1043 1.382 . S
C1048 C1047 1.398 . S
C1048 H1075 0.929 . S
C1049 O1062 1.271 . S
C1049 O1063 1.251 . S
C1050 O1064 1.252 . S
C1050 O1065 1.272 . S
C1051 Sm1041 2.846 . S
C1051 C1052 1.506 . S
C1051 O1066 1.261 . S
C1051 O1067 1.242 . S
C1052 C1051 1.506 . S
C1052 C1053 1.358 . S
C1052 C1057 1.382 . S
C1053 C1052 1.358 . S
C1053 C1054 1.385 . S
C1053 H1076 0.930 . S
C1054 C1053 1.385 . S
C1054 C1055 1.395 . S
C1054 H1077 0.929 . S
C1055 C1054 1.395 . S
C1055 C1056 1.335 . S
C1056 C1055 1.335 . S
C1056 C1057 1.398 . S
C1056 H1078 0.930 . S
C1057 C1052 1.382 . S
C1057 C1056 1.398 . S
C1057 H1079 0.929 . S
C1058 O1068 1.271 . S
C1058 O1069 1.251 . S
C1059 O1070 1.252 . S
C1059 O1071 1.272 . S
O1060 Sm1040 2.543 . S
O1060 C1042 1.261 . S
O1061 Sm1040 2.450 . S
O1061 C1042 1.242 . S
O1062 Sm1040 2.681 . S
O1062 Sm1041 2.386 . S
O1062 C1049 1.271 . S
O1063 Sm1040 2.464 . S
O1063 C1049 1.251 . S
O1064 Sm1040 2.396 . S
O1064 C1050 1.252 . S
O1065 Sm1041 2.408 . S
O1065 C1050 1.272 . S
O1066 Sm1041 2.543 . S
O1066 C1051 1.261 . S
O1067 Sm1041 2.450 . S
O1067 C1051 1.242 . S
O1068 Sm1040 2.386 . S
O1068 Sm1041 2.681 . S
O1068 C1058 1.271 . S
O1069 Sm1041 2.464 . S
O1069 C1058 1.251 . S
O1070 Sm1041 2.396 . S
O1070 C1059 1.252 . S
O1071 Sm1040 2.408 . S
O1071 C1059 1.272 . S
H1072 C1044 0.930 . S
H1073 C1045 0.929 . S
H1074 C1047 0.930 . S
H1075 C1048 0.929 . S
H1076 C1053 0.930 . S
H1077 C1054 0.929 . S
H1078 C1056 0.930 . S
H1079 C1057 0.929 . S
Sm1080 C1082 2.846 . S
Sm1080 O1100 2.543 . S
Sm1080 O1101 2.450 . S
Sm1080 O1102 2.681 1_554 S
Sm1080 O1103 2.464 . S
Sm1080 O1104 2.396 . S
Sm1080 O1108 2.386 . S
Sm1080 O1111 2.408 . S
Sm1081 C1091 2.846 . S
Sm1081 O1102 2.386 . S
Sm1081 O1105 2.408 . S
Sm1081 O1106 2.543 . S
Sm1081 O1107 2.450 . S
Sm1081 O1108 2.681 1_556 S
Sm1081 O1109 2.464 . S
Sm1081 O1110 2.396 . S
C1082 Sm1080 2.846 . S
C1082 C1083 1.506 . S
C1082 O1100 1.261 . S
C1082 O1101 1.242 . S
C1083 C1082 1.506 . S
C1083 C1084 1.358 . S
C1083 C1088 1.382 . S
C1084 C1083 1.358 . S
C1084 C1085 1.385 . S
C1084 H1112 0.930 . S
C1085 C1084 1.385 . S
C1085 C1086 1.395 . S
C1085 H1113 0.929 . S
C1086 C1085 1.395 . S
C1086 C1087 1.335 . S
C1087 C1086 1.335 . S
C1087 C1088 1.398 . S
C1087 H1114 0.930 . S
C1088 C1083 1.382 . S
C1088 C1087 1.398 . S
C1088 H1115 0.929 . S
C1089 O1102 1.271 1_554 S
C1089 O1103 1.251 . S
C1090 O1104 1.252 . S
C1090 O1105 1.272 1_554 S
C1091 Sm1081 2.846 . S
C1091 C1092 1.506 . S
C1091 O1106 1.261 . S
C1091 O1107 1.242 . S
C1092 C1091 1.506 . S
C1092 C1093 1.358 . S
C1092 C1097 1.382 . S
C1093 C1092 1.358 . S
C1093 C1094 1.385 . S
C1093 H1116 0.930 . S
C1094 C1093 1.385 . S
C1094 C1095 1.395 . S
C1094 H1117 0.929 . S
C1095 C1094 1.395 . S
C1095 C1096 1.335 . S
C1096 C1095 1.335 . S
C1096 C1097 1.398 . S
C1096 H1118 0.930 . S
C1097 C1092 1.382 . S
C1097 C1096 1.398 . S
C1097 H1119 0.929 . S
C1098 O1108 1.271 1_556 S
C1098 O1109 1.251 . S
C1099 O1110 1.252 . S
C1099 O1111 1.272 1_556 S
O1100 Sm1080 2.543 . S
O1100 C1082 1.261 . S
O1101 Sm1080 2.450 . S
O1101 C1082 1.242 . S
O1102 Sm1080 2.681 1_556 S
O1102 Sm1081 2.386 . S
O1102 C1089 1.271 1_556 S
O1103 Sm1080 2.464 . S
O1103 C1089 1.251 . S
O1104 Sm1080 2.396 . S
O1104 C1090 1.252 . S
O1105 Sm1081 2.408 . S
O1105 C1090 1.272 1_556 S
O1106 Sm1081 2.543 . S
O1106 C1091 1.261 . S
O1107 Sm1081 2.450 . S
O1107 C1091 1.242 . S
O1108 Sm1080 2.386 . S
O1108 Sm1081 2.681 1_554 S
O1108 C1098 1.271 1_554 S
O1109 Sm1081 2.464 . S
O1109 C1098 1.251 . S
O1110 Sm1081 2.396 . S
O1110 C1099 1.252 . S
O1111 Sm1080 2.408 . S
O1111 C1099 1.272 1_554 S
H1112 C1084 0.930 . S
H1113 C1085 0.929 . S
H1114 C1087 0.930 . S
H1115 C1088 0.929 . S
H1116 C1093 0.930 . S
H1117 C1094 0.929 . S
H1118 C1096 0.930 . S
H1119 C1097 0.929 . S
Sm1120 C1122 2.846 . S
Sm1120 O1140 2.543 . S
Sm1120 O1141 2.450 . S
Sm1120 O1142 2.681 1_554 S
Sm1120 O1143 2.464 . S
Sm1120 O1144 2.396 . S
Sm1120 O1148 2.386 . S
Sm1120 O1151 2.408 . S
Sm1121 C1131 2.846 . S
Sm1121 O1142 2.386 . S
Sm1121 O1145 2.408 . S
Sm1121 O1146 2.543 . S
Sm1121 O1147 2.450 . S
Sm1121 O1148 2.681 1_556 S
Sm1121 O1149 2.464 . S
Sm1121 O1150 2.396 . S
C1122 Sm1120 2.846 . S
C1122 C1123 1.506 . S
C1122 O1140 1.261 . S
C1122 O1141 1.242 . S
C1123 C1122 1.506 . S
C1123 C1124 1.358 . S
C1123 C1128 1.382 . S
C1124 C1123 1.358 . S
C1124 C1125 1.385 . S
C1124 H1152 0.930 . S
C1125 C1124 1.385 . S
C1125 C1126 1.395 . S
C1125 H1153 0.929 . S
C1126 C1125 1.395 . S
C1126 C1127 1.335 . S
C1127 C1126 1.335 . S
C1127 C1128 1.398 . S
C1127 H1154 0.930 . S
C1128 C1123 1.382 . S
C1128 C1127 1.398 . S
C1128 H1155 0.929 . S
C1129 O1142 1.271 1_554 S
C1129 O1143 1.251 . S
C1130 O1144 1.252 . S
C1130 O1145 1.272 1_554 S
C1131 Sm1121 2.846 . S
C1131 C1132 1.506 . S
C1131 O1146 1.261 . S
C1131 O1147 1.242 . S
C1132 C1131 1.506 . S
C1132 C1133 1.358 . S
C1132 C1137 1.382 . S
C1133 C1132 1.358 . S
C1133 C1134 1.385 . S
C1133 H1156 0.930 . S
C1134 C1133 1.385 . S
C1134 C1135 1.395 . S
C1134 H1157 0.929 . S
C1135 C1134 1.395 . S
C1135 C1136 1.335 . S
C1136 C1135 1.335 . S
C1136 C1137 1.398 . S
C1136 H1158 0.930 . S
C1137 C1132 1.382 . S
C1137 C1136 1.398 . S
C1137 H1159 0.929 . S
C1138 O1148 1.271 1_556 S
C1138 O1149 1.251 . S
C1139 O1150 1.252 . S
C1139 O1151 1.272 1_556 S
O1140 Sm1120 2.543 . S
O1140 C1122 1.261 . S
O1141 Sm1120 2.450 . S
O1141 C1122 1.242 . S
O1142 Sm1120 2.681 1_556 S
O1142 Sm1121 2.386 . S
O1142 C1129 1.271 1_556 S
O1143 Sm1120 2.464 . S
O1143 C1129 1.251 . S
O1144 Sm1120 2.396 . S
O1144 C1130 1.252 . S
O1145 Sm1121 2.408 . S
O1145 C1130 1.272 1_556 S
O1146 Sm1121 2.543 . S
O1146 C1131 1.261 . S
O1147 Sm1121 2.450 . S
O1147 C1131 1.242 . S
O1148 Sm1120 2.386 . S
O1148 Sm1121 2.681 1_554 S
O1148 C1138 1.271 1_554 S
O1149 Sm1121 2.464 . S
O1149 C1138 1.251 . S
O1150 Sm1121 2.396 . S
O1150 C1139 1.252 . S
O1151 Sm1120 2.408 . S
O1151 C1139 1.272 1_554 S
H1152 C1124 0.930 . S
H1153 C1125 0.929 . S
H1154 C1127 0.930 . S
H1155 C1128 0.929 . S
H1156 C1133 0.930 . S
H1157 C1134 0.929 . S
H1158 C1136 0.930 . S
H1159 C1137 0.929 . S
Sm1160 C1162 2.846 . S
Sm1160 O1180 2.543 . S
Sm1160 O1181 2.450 . S
Sm1160 O1182 2.681 1_554 S
Sm1160 O1183 2.464 . S
Sm1160 O1184 2.396 . S
Sm1160 O1188 2.386 . S
Sm1160 O1191 2.408 . S
Sm1161 C1171 2.846 . S
Sm1161 O1182 2.386 . S
Sm1161 O1185 2.408 . S
Sm1161 O1186 2.543 . S
Sm1161 O1187 2.450 . S
Sm1161 O1188 2.681 1_556 S
Sm1161 O1189 2.464 . S
Sm1161 O1190 2.396 . S
C1162 Sm1160 2.846 . S
C1162 C1163 1.506 . S
C1162 O1180 1.261 . S
C1162 O1181 1.242 . S
C1163 C1162 1.506 . S
C1163 C1164 1.358 . S
C1163 C1168 1.382 . S
C1164 C1163 1.358 . S
C1164 C1165 1.385 . S
C1164 H1192 0.930 . S
C1165 C1164 1.385 . S
C1165 C1166 1.395 . S
C1165 H1193 0.929 . S
C1166 C1165 1.395 . S
C1166 C1167 1.335 . S
C1167 C1166 1.335 . S
C1167 C1168 1.398 . S
C1167 H1194 0.930 . S
C1168 C1163 1.382 . S
C1168 C1167 1.398 . S
C1168 H1195 0.929 . S
C1169 O1182 1.271 1_554 S
C1169 O1183 1.251 . S
C1170 O1184 1.252 . S
C1170 O1185 1.272 1_554 S
C1171 Sm1161 2.846 . S
C1171 C1172 1.506 . S
C1171 O1186 1.261 . S
C1171 O1187 1.242 . S
C1172 C1171 1.506 . S
C1172 C1173 1.358 . S
C1172 C1177 1.382 . S
C1173 C1172 1.358 . S
C1173 C1174 1.385 . S
C1173 H1196 0.930 . S
C1174 C1173 1.385 . S
C1174 C1175 1.395 . S
C1174 H1197 0.929 . S
C1175 C1174 1.395 . S
C1175 C1176 1.335 . S
C1176 C1175 1.335 . S
C1176 C1177 1.398 . S
C1176 H1198 0.930 . S
C1177 C1172 1.382 . S
C1177 C1176 1.398 . S
C1177 H1199 0.929 . S
C1178 O1188 1.271 1_556 S
C1178 O1189 1.251 . S
C1179 O1190 1.252 . S
C1179 O1191 1.272 1_556 S
O1180 Sm1160 2.543 . S
O1180 C1162 1.261 . S
O1181 Sm1160 2.450 . S
O1181 C1162 1.242 . S
O1182 Sm1160 2.681 1_556 S
O1182 Sm1161 2.386 . S
O1182 C1169 1.271 1_556 S
O1183 Sm1160 2.464 . S
O1183 C1169 1.251 . S
O1184 Sm1160 2.396 . S
O1184 C1170 1.252 . S
O1185 Sm1161 2.408 . S
O1185 C1170 1.272 1_556 S
O1186 Sm1161 2.543 . S
O1186 C1171 1.261 . S
O1187 Sm1161 2.450 . S
O1187 C1171 1.242 . S
O1188 Sm1160 2.386 . S
O1188 Sm1161 2.681 1_554 S
O1188 C1178 1.271 1_554 S
O1189 Sm1161 2.464 . S
O1189 C1178 1.251 . S
O1190 Sm1161 2.396 . S
O1190 C1179 1.252 . S
O1191 Sm1160 2.408 . S
O1191 C1179 1.272 1_554 S
H1192 C1164 0.930 . S
H1193 C1165 0.929 . S
H1194 C1167 0.930 . S
H1195 C1168 0.929 . S
H1196 C1173 0.930 . S
H1197 C1174 0.929 . S
H1198 C1176 0.930 . S
H1199 C1177 0.929 . S
Sm1200 C1202 2.846 . S
Sm1200 O1220 2.543 . S
Sm1200 O1221 2.450 . S
Sm1200 O1222 2.681 . S
Sm1200 O1223 2.464 . S
Sm1200 O1224 2.396 . S
Sm1200 O1228 2.386 . S
Sm1200 O1231 2.408 . S
Sm1201 C1211 2.846 . S
Sm1201 O1222 2.386 . S
Sm1201 O1225 2.408 . S
Sm1201 O1226 2.543 . S
Sm1201 O1227 2.450 . S
Sm1201 O1228 2.681 . S
Sm1201 O1229 2.464 . S
Sm1201 O1230 2.396 . S
C1202 Sm1200 2.846 . S
C1202 C1203 1.506 . S
C1202 O1220 1.261 . S
C1202 O1221 1.242 . S
C1203 C1202 1.506 . S
C1203 C1204 1.358 . S
C1203 C1208 1.382 . S
C1204 C1203 1.358 . S
C1204 C1205 1.385 . S
C1204 H1232 0.930 . S
C1205 C1204 1.385 . S
C1205 C1206 1.395 . S
C1205 H1233 0.929 . S
C1206 C1205 1.395 . S
C1206 C1207 1.335 . S
C1207 C1206 1.335 . S
C1207 C1208 1.398 . S
C1207 H1234 0.930 . S
C1208 C1203 1.382 . S
C1208 C1207 1.398 . S
C1208 H1235 0.929 . S
C1209 O1222 1.271 . S
C1209 O1223 1.251 . S
C1210 O1224 1.252 . S
C1210 O1225 1.272 . S
C1211 Sm1201 2.846 . S
C1211 C1212 1.506 . S
C1211 O1226 1.261 . S
C1211 O1227 1.242 . S
C1212 C1211 1.506 . S
C1212 C1213 1.358 . S
C1212 C1217 1.382 . S
C1213 C1212 1.358 . S
C1213 C1214 1.385 . S
C1213 H1236 0.930 . S
C1214 C1213 1.385 . S
C1214 C1215 1.395 . S
C1214 H1237 0.929 . S
C1215 C1214 1.395 . S
C1215 C1216 1.335 . S
C1216 C1215 1.335 . S
C1216 C1217 1.398 . S
C1216 H1238 0.930 . S
C1217 C1212 1.382 . S
C1217 C1216 1.398 . S
C1217 H1239 0.929 . S
C1218 O1228 1.271 . S
C1218 O1229 1.251 . S
C1219 O1230 1.252 . S
C1219 O1231 1.272 . S
O1220 Sm1200 2.543 . S
O1220 C1202 1.261 . S
O1221 Sm1200 2.450 . S
O1221 C1202 1.242 . S
O1222 Sm1200 2.681 . S
O1222 Sm1201 2.386 . S
O1222 C1209 1.271 . S
O1223 Sm1200 2.464 . S
O1223 C1209 1.251 . S
O1224 Sm1200 2.396 . S
O1224 C1210 1.252 . S
O1225 Sm1201 2.408 . S
O1225 C1210 1.272 . S
O1226 Sm1201 2.543 . S
O1226 C1211 1.261 . S
O1227 Sm1201 2.450 . S
O1227 C1211 1.242 . S
O1228 Sm1200 2.386 . S
O1228 Sm1201 2.681 . S
O1228 C1218 1.271 . S
O1229 Sm1201 2.464 . S
O1229 C1218 1.251 . S
O1230 Sm1201 2.396 . S
O1230 C1219 1.252 . S
O1231 Sm1200 2.408 . S
O1231 C1219 1.272 . S
H1232 C1204 0.930 . S
H1233 C1205 0.929 . S
H1234 C1207 0.930 . S
H1235 C1208 0.929 . S
H1236 C1213 0.930 . S
H1237 C1214 0.929 . S
H1238 C1216 0.930 . S
H1239 C1217 0.929 . S
Sm1240 C1242 2.846 . S
Sm1240 O1260 2.543 . S
Sm1240 O1261 2.450 . S
Sm1240 O1262 2.681 . S
Sm1240 O1263 2.464 . S
Sm1240 O1264 2.396 . S
Sm1240 O1268 2.386 . S
Sm1240 O1271 2.408 . S
Sm1241 C1251 2.846 . S
Sm1241 O1262 2.386 . S
Sm1241 O1265 2.408 . S
Sm1241 O1266 2.543 . S
Sm1241 O1267 2.450 . S
Sm1241 O1268 2.681 . S
Sm1241 O1269 2.464 . S
Sm1241 O1270 2.396 . S
C1242 Sm1240 2.846 . S
C1242 C1243 1.506 . S
C1242 O1260 1.261 . S
C1242 O1261 1.242 . S
C1243 C1242 1.506 . S
C1243 C1244 1.358 . S
C1243 C1248 1.382 . S
C1244 C1243 1.358 . S
C1244 C1245 1.385 . S
C1244 H1272 0.930 . S
C1245 C1244 1.385 . S
C1245 C1246 1.395 . S
C1245 H1273 0.929 . S
C1246 C1245 1.395 . S
C1246 C1247 1.335 . S
C1247 C1246 1.335 . S
C1247 C1248 1.398 . S
C1247 H1274 0.930 . S
C1248 C1243 1.382 . S
C1248 C1247 1.398 . S
C1248 H1275 0.929 . S
C1249 O1262 1.271 . S
C1249 O1263 1.251 . S
C1250 O1264 1.252 . S
C1250 O1265 1.272 . S
C1251 Sm1241 2.846 . S
C1251 C1252 1.506 . S
C1251 O1266 1.261 . S
C1251 O1267 1.242 . S
C1252 C1251 1.506 . S
C1252 C1253 1.358 . S
C1252 C1257 1.382 . S
C1253 C1252 1.358 . S
C1253 C1254 1.385 . S
C1253 H1276 0.930 . S
C1254 C1253 1.385 . S
C1254 C1255 1.395 . S
C1254 H1277 0.929 . S
C1255 C1254 1.395 . S
C1255 C1256 1.335 . S
C1256 C1255 1.335 . S
C1256 C1257 1.398 . S
C1256 H1278 0.930 . S
C1257 C1252 1.382 . S
C1257 C1256 1.398 . S
C1257 H1279 0.929 . S
C1258 O1268 1.271 . S
C1258 O1269 1.251 . S
C1259 O1270 1.252 . S
C1259 O1271 1.272 . S
O1260 Sm1240 2.543 . S
O1260 C1242 1.261 . S
O1261 Sm1240 2.450 . S
O1261 C1242 1.242 . S
O1262 Sm1240 2.681 . S
O1262 Sm1241 2.386 . S
O1262 C1249 1.271 . S
O1263 Sm1240 2.464 . S
O1263 C1249 1.251 . S
O1264 Sm1240 2.396 . S
O1264 C1250 1.252 . S
O1265 Sm1241 2.408 . S
O1265 C1250 1.272 . S
O1266 Sm1241 2.543 . S
O1266 C1251 1.261 . S
O1267 Sm1241 2.450 . S
O1267 C1251 1.242 . S
O1268 Sm1240 2.386 . S
O1268 Sm1241 2.681 . S
O1268 C1258 1.271 . S
O1269 Sm1241 2.464 . S
O1269 C1258 1.251 . S
O1270 Sm1241 2.396 . S
O1270 C1259 1.252 . S
O1271 Sm1240 2.408 . S
O1271 C1259 1.272 . S
H1272 C1244 0.930 . S
H1273 C1245 0.929 . S
H1274 C1247 0.930 . S
H1275 C1248 0.929 . S
H1276 C1253 0.930 . S
H1277 C1254 0.929 . S
H1278 C1256 0.930 . S
H1279 C1257 0.929 . S
Sm1280 C1282 2.846 . S
Sm1280 O1300 2.543 . S
Sm1280 O1301 2.450 . S
Sm1280 O1302 2.681 . S
Sm1280 O1303 2.464 . S
Sm1280 O1304 2.396 . S
Sm1280 O1308 2.386 . S
Sm1280 O1311 2.408 . S
Sm1281 C1291 2.846 . S
Sm1281 O1302 2.386 . S
Sm1281 O1305 2.408 . S
Sm1281 O1306 2.543 . S
Sm1281 O1307 2.450 . S
Sm1281 O1308 2.681 . S
Sm1281 O1309 2.464 . S
Sm1281 O1310 2.396 . S
C1282 Sm1280 2.846 . S
C1282 C1283 1.506 . S
C1282 O1300 1.261 . S
C1282 O1301 1.242 . S
C1283 C1282 1.506 . S
C1283 C1284 1.358 . S
C1283 C1288 1.382 . S
C1284 C1283 1.358 . S
C1284 C1285 1.385 . S
C1284 H1312 0.930 . S
C1285 C1284 1.385 . S
C1285 C1286 1.395 . S
C1285 H1313 0.929 . S
C1286 C1285 1.395 . S
C1286 C1287 1.335 . S
C1287 C1286 1.335 . S
C1287 C1288 1.398 . S
C1287 H1314 0.930 . S
C1288 C1283 1.382 . S
C1288 C1287 1.398 . S
C1288 H1315 0.929 . S
C1289 O1302 1.271 . S
C1289 O1303 1.251 . S
C1290 O1304 1.252 . S
C1290 O1305 1.272 . S
C1291 Sm1281 2.846 . S
C1291 C1292 1.506 . S
C1291 O1306 1.261 . S
C1291 O1307 1.242 . S
C1292 C1291 1.506 . S
C1292 C1293 1.358 . S
C1292 C1297 1.382 . S
C1293 C1292 1.358 . S
C1293 C1294 1.385 . S
C1293 H1316 0.930 . S
C1294 C1293 1.385 . S
C1294 C1295 1.395 . S
C1294 H1317 0.929 . S
C1295 C1294 1.395 . S
C1295 C1296 1.335 . S
C1296 C1295 1.335 . S
C1296 C1297 1.398 . S
C1296 H1318 0.930 . S
C1297 C1292 1.382 . S
C1297 C1296 1.398 . S
C1297 H1319 0.929 . S
C1298 O1308 1.271 . S
C1298 O1309 1.251 . S
C1299 O1310 1.252 . S
C1299 O1311 1.272 . S
O1300 Sm1280 2.543 . S
O1300 C1282 1.261 . S
O1301 Sm1280 2.450 . S
O1301 C1282 1.242 . S
O1302 Sm1280 2.681 . S
O1302 Sm1281 2.386 . S
O1302 C1289 1.271 . S
O1303 Sm1280 2.464 . S
O1303 C1289 1.251 . S
O1304 Sm1280 2.396 . S
O1304 C1290 1.252 . S
O1305 Sm1281 2.408 . S
O1305 C1290 1.272 . S
O1306 Sm1281 2.543 . S
O1306 C1291 1.261 . S
O1307 Sm1281 2.450 . S
O1307 C1291 1.242 . S
O1308 Sm1280 2.386 . S
O1308 Sm1281 2.681 . S
O1308 C1298 1.271 . S
O1309 Sm1281 2.464 . S
O1309 C1298 1.251 . S
O1310 Sm1281 2.396 . S
O1310 C1299 1.252 . S
O1311 Sm1280 2.408 . S
O1311 C1299 1.272 . S
H1312 C1284 0.930 . S
H1313 C1285 0.929 . S
H1314 C1287 0.930 . S
H1315 C1288 0.929 . S
H1316 C1293 0.930 . S
H1317 C1294 0.929 . S
H1318 C1296 0.930 . S
H1319 C1297 0.929 . S
Sm1320 C1322 2.846 . S
Sm1320 O1340 2.543 . S
Sm1320 O1341 2.450 . S
Sm1320 O1342 2.681 . S
Sm1320 O1343 2.464 . S
Sm1320 O1344 2.396 . S
Sm1320 O1348 2.386 . S
Sm1320 O1351 2.408 . S
Sm1321 C1331 2.846 . S
Sm1321 O1342 2.386 . S
Sm1321 O1345 2.408 . S
Sm1321 O1346 2.543 . S
Sm1321 O1347 2.450 . S
Sm1321 O1348 2.681 . S
Sm1321 O1349 2.464 . S
Sm1321 O1350 2.396 . S
C1322 Sm1320 2.846 . S
C1322 C1323 1.506 . S
C1322 O1340 1.261 . S
C1322 O1341 1.242 . S
C1323 C1322 1.506 . S
C1323 C1324 1.358 . S
C1323 C1328 1.382 . S
C1324 C1323 1.358 . S
C1324 C1325 1.385 . S
C1324 H1352 0.930 . S
C1325 C1324 1.385 . S
C1325 C1326 1.395 . S
C1325 H1353 0.929 . S
C1326 C1325 1.395 . S
C1326 C1327 1.335 . S
C1327 C1326 1.335 . S
C1327 C1328 1.398 . S
C1327 H1354 0.930 . S
C1328 C1323 1.382 . S
C1328 C1327 1.398 . S
C1328 H1355 0.929 . S
C1329 O1342 1.271 . S
C1329 O1343 1.251 . S
C1330 O1344 1.252 . S
C1330 O1345 1.272 . S
C1331 Sm1321 2.846 . S
C1331 C1332 1.506 . S
C1331 O1346 1.261 . S
C1331 O1347 1.242 . S
C1332 C1331 1.506 . S
C1332 C1333 1.358 . S
C1332 C1337 1.382 . S
C1333 C1332 1.358 . S
C1333 C1334 1.385 1_455 S
C1333 H1356 0.930 1_455 S
C1334 C1333 1.385 1_655 S
C1334 C1335 1.395 1_655 S
C1334 H1357 0.929 . S
C1335 C1334 1.395 1_455 S
C1335 C1336 1.335 . S
C1336 C1335 1.335 . S
C1336 C1337 1.398 . S
C1336 H1358 0.930 . S
C1337 C1332 1.382 . S
C1337 C1336 1.398 . S
C1337 H1359 0.929 . S
C1338 O1348 1.271 . S
C1338 O1349 1.251 . S
C1339 O1350 1.252 . S
C1339 O1351 1.272 . S
O1340 Sm1320 2.543 . S
O1340 C1322 1.261 . S
O1341 Sm1320 2.450 . S
O1341 C1322 1.242 . S
O1342 Sm1320 2.681 . S
O1342 Sm1321 2.386 . S
O1342 C1329 1.271 . S
O1343 Sm1320 2.464 . S
O1343 C1329 1.251 . S
O1344 Sm1320 2.396 . S
O1344 C1330 1.252 . S
O1345 Sm1321 2.408 . S
O1345 C1330 1.272 . S
O1346 Sm1321 2.543 . S
O1346 C1331 1.261 . S
O1347 Sm1321 2.450 . S
O1347 C1331 1.242 . S
O1348 Sm1320 2.386 . S
O1348 Sm1321 2.681 . S
O1348 C1338 1.271 . S
O1349 Sm1321 2.464 . S
O1349 C1338 1.251 . S
O1350 Sm1321 2.396 . S
O1350 C1339 1.252 . S
O1351 Sm1320 2.408 . S
O1351 C1339 1.272 . S
H1352 C1324 0.930 . S
H1353 C1325 0.929 . S
H1354 C1327 0.930 . S
H1355 C1328 0.929 . S
H1356 C1333 0.930 1_655 S
H1357 C1334 0.929 . S
H1358 C1336 0.930 . S
H1359 C1337 0.929 . S
Sm1360 C1362 2.846 . S
Sm1360 O1380 2.543 . S
Sm1360 O1381 2.450 . S
Sm1360 O1382 2.681 . S
Sm1360 O1383 2.464 . S
Sm1360 O1384 2.396 . S
Sm1360 O1388 2.386 . S
Sm1360 O1391 2.408 . S
Sm1361 C1371 2.846 . S
Sm1361 O1382 2.386 . S
Sm1361 O1385 2.408 . S
Sm1361 O1386 2.543 . S
Sm1361 O1387 2.450 . S
Sm1361 O1388 2.681 . S
Sm1361 O1389 2.464 . S
Sm1361 O1390 2.396 . S
C1362 Sm1360 2.846 . S
C1362 C1363 1.506 . S
C1362 O1380 1.261 . S
C1362 O1381 1.242 . S
C1363 C1362 1.506 . S
C1363 C1364 1.358 . S
C1363 C1368 1.382 . S
C1364 C1363 1.358 . S
C1364 C1365 1.385 . S
C1364 H1392 0.930 . S
C1365 C1364 1.385 . S
C1365 C1366 1.395 . S
C1365 H1393 0.929 . S
C1366 C1365 1.395 . S
C1366 C1367 1.335 . S
C1367 C1366 1.335 . S
C1367 C1368 1.398 . S
C1367 H1394 0.930 . S
C1368 C1363 1.382 . S
C1368 C1367 1.398 . S
C1368 H1395 0.929 . S
C1369 O1382 1.271 . S
C1369 O1383 1.251 . S
C1370 O1384 1.252 . S
C1370 O1385 1.272 . S
C1371 Sm1361 2.846 . S
C1371 C1372 1.506 . S
C1371 O1386 1.261 . S
C1371 O1387 1.242 . S
C1372 C1371 1.506 . S
C1372 C1373 1.358 . S
C1372 C1377 1.382 . S
C1373 C1372 1.358 . S
C1373 C1374 1.385 . S
C1373 H1396 0.930 . S
C1374 C1373 1.385 . S
C1374 C1375 1.395 . S
C1374 H1397 0.929 . S
C1375 C1374 1.395 . S
C1375 C1376 1.335 . S
C1376 C1375 1.335 . S
C1376 C1377 1.398 . S
C1376 H1398 0.930 . S
C1377 C1372 1.382 . S
C1377 C1376 1.398 . S
C1377 H1399 0.929 . S
C1378 O1388 1.271 . S
C1378 O1389 1.251 . S
C1379 O1390 1.252 . S
C1379 O1391 1.272 . S
O1380 Sm1360 2.543 . S
O1380 C1362 1.261 . S
O1381 Sm1360 2.450 . S
O1381 C1362 1.242 . S
O1382 Sm1360 2.681 . S
O1382 Sm1361 2.386 . S
O1382 C1369 1.271 . S
O1383 Sm1360 2.464 . S
O1383 C1369 1.251 . S
O1384 Sm1360 2.396 . S
O1384 C1370 1.252 . S
O1385 Sm1361 2.408 . S
O1385 C1370 1.272 . S
O1386 Sm1361 2.543 . S
O1386 C1371 1.261 . S
O1387 Sm1361 2.450 . S
O1387 C1371 1.242 . S
O1388 Sm1360 2.386 . S
O1388 Sm1361 2.681 . S
O1388 C1378 1.271 . S
O1389 Sm1361 2.464 . S
O1389 C1378 1.251 . S
O1390 Sm1361 2.396 . S
O1390 C1379 1.252 . S
O1391 Sm1360 2.408 . S
O1391 C1379 1.272 . S
H1392 C1364 0.930 . S
H1393 C1365 0.929 . S
H1394 C1367 0.930 . S
H1395 C1368 0.929 . S
H1396 C1373 0.930 . S
H1397 C1374 0.929 . S
H1398 C1376 0.930 . S
H1399 C1377 0.929 . S
Sm1400 C1402 2.846 . S
Sm1400 O1420 2.543 . S
Sm1400 O1421 2.450 . S
Sm1400 O1422 2.681 . S
Sm1400 O1423 2.464 . S
Sm1400 O1424 2.396 . S
Sm1400 O1428 2.386 . S
Sm1400 O1431 2.408 . S
Sm1401 C1411 2.846 . S
Sm1401 O1422 2.386 . S
Sm1401 O1425 2.408 . S
Sm1401 O1426 2.543 . S
Sm1401 O1427 2.450 . S
Sm1401 O1428 2.681 . S
Sm1401 O1429 2.464 . S
Sm1401 O1430 2.396 . S
C1402 Sm1400 2.846 . S
C1402 C1403 1.506 . S
C1402 O1420 1.261 . S
C1402 O1421 1.242 . S
C1403 C1402 1.506 . S
C1403 C1404 1.358 . S
C1403 C1408 1.382 . S
C1404 C1403 1.358 . S
C1404 C1405 1.385 . S
C1404 H1432 0.930 . S
C1405 C1404 1.385 . S
C1405 C1406 1.395 . S
C1405 H1433 0.929 . S
C1406 C1405 1.395 . S
C1406 C1407 1.335 . S
C1407 C1406 1.335 . S
C1407 C1408 1.398 . S
C1407 H1434 0.930 . S
C1408 C1403 1.382 . S
C1408 C1407 1.398 . S
C1408 H1435 0.929 . S
C1409 O1422 1.271 . S
C1409 O1423 1.251 . S
C1410 O1424 1.252 . S
C1410 O1425 1.272 . S
C1411 Sm1401 2.846 . S
C1411 C1412 1.506 . S
C1411 O1426 1.261 . S
C1411 O1427 1.242 . S
C1412 C1411 1.506 . S
C1412 C1413 1.358 . S
C1412 C1417 1.382 . S
C1413 C1412 1.358 . S
C1413 C1414 1.385 1_565 S
C1413 H1436 0.930 1_565 S
C1414 C1413 1.385 1_545 S
C1414 C1415 1.395 1_545 S
C1414 H1437 0.929 . S
C1415 C1414 1.395 1_565 S
C1415 C1416 1.335 . S
C1416 C1415 1.335 . S
C1416 C1417 1.398 . S
C1416 H1438 0.930 . S
C1417 C1412 1.382 . S
C1417 C1416 1.398 . S
C1417 H1439 0.929 . S
C1418 O1428 1.271 . S
C1418 O1429 1.251 . S
C1419 O1430 1.252 . S
C1419 O1431 1.272 . S
O1420 Sm1400 2.543 . S
O1420 C1402 1.261 . S
O1421 Sm1400 2.450 . S
O1421 C1402 1.242 . S
O1422 Sm1400 2.681 . S
O1422 Sm1401 2.386 . S
O1422 C1409 1.271 . S
O1423 Sm1400 2.464 . S
O1423 C1409 1.251 . S
O1424 Sm1400 2.396 . S
O1424 C1410 1.252 . S
O1425 Sm1401 2.408 . S
O1425 C1410 1.272 . S
O1426 Sm1401 2.543 . S
O1426 C1411 1.261 . S
O1427 Sm1401 2.450 . S
O1427 C1411 1.242 . S
O1428 Sm1400 2.386 . S
O1428 Sm1401 2.681 . S
O1428 C1418 1.271 . S
O1429 Sm1401 2.464 . S
O1429 C1418 1.251 . S
O1430 Sm1401 2.396 . S
O1430 C1419 1.252 . S
O1431 Sm1400 2.408 . S
O1431 C1419 1.272 . S
H1432 C1404 0.930 . S
H1433 C1405 0.929 . S
H1434 C1407 0.930 . S
H1435 C1408 0.929 . S
H1436 C1413 0.930 1_545 S
H1437 C1414 0.929 . S
H1438 C1416 0.930 . S
H1439 C1417 0.929 . S
H1440 C1446 0.930 . S
H1441 C1450 0.930 . S
H1442 C1455 0.929 . S
H1443 C1453 0.929 . S
H1444 C1448 0.929 . S
H1445 C1454 0.929 . S
C1446 H1440 0.930 . S
C1446 C1447 1.367 . S
C1446 C1454 1.378 . S
C1447 C1446 1.367 . S
C1447 C1455 1.433 . S
C1448 H1444 0.929 . S
C1448 C1450 1.378 1_545 S
C1448 C1452 1.350 . S
C1449 C1452 1.463 . S
C1449 C1454 1.350 . S
C1449 N1457 1.427 . S
C1450 H1441 0.930 . S
C1450 C1448 1.378 1_565 S
C1450 C1451 1.367 . S
C1451 C1450 1.367 . S
C1451 C1453 1.433 . S
C1452 C1448 1.350 . S
C1452 C1449 1.463 . S
C1452 N1456 1.427 . S
C1453 H1443 0.929 . S
C1453 C1451 1.433 . S
C1453 N1456 1.384 1_565 S
C1454 H1445 0.929 . S
C1454 C1446 1.378 . S
C1454 C1449 1.350 . S
C1455 H1442 0.929 . S
C1455 C1447 1.433 . S
C1455 N1457 1.384 . S
N1456 C1452 1.427 . S
N1456 C1453 1.384 1_545 S
N1457 C1449 1.427 . S
N1457 C1455 1.384 . S
H1458 C1464 0.930 . S
H1459 C1468 0.930 . S
H1460 C1473 0.929 . S
H1461 C1471 0.929 1_565 S
H1462 C1466 0.929 . S
H1463 C1472 0.929 . S
C1464 H1458 0.930 . S
C1464 C1465 1.367 . S
C1464 C1472 1.378 1_455 S
C1465 C1464 1.367 . S
C1465 C1473 1.433 . S
C1466 H1462 0.929 . S
C1466 C1468 1.378 . S
C1466 C1470 1.350 . S
C1467 C1470 1.463 . S
C1467 C1472 1.350 . S
C1467 N1475 1.427 . S
C1468 H1459 0.930 . S
C1468 C1466 1.378 . S
C1468 C1469 1.367 . S
C1469 C1468 1.367 . S
C1469 C1471 1.433 . S
C1470 C1466 1.350 . S
C1470 C1467 1.463 . S
C1470 N1474 1.427 . S
C1471 H1461 0.929 1_545 S
C1471 C1469 1.433 . S
C1471 N1474 1.384 . S
C1472 H1463 0.929 . S
C1472 C1464 1.378 1_655 S
C1472 C1467 1.350 . S
C1473 H1460 0.929 . S
C1473 C1465 1.433 . S
C1473 N1475 1.384 1_455 S
N1474 C1470 1.427 . S
N1474 C1471 1.384 . S
N1475 C1467 1.427 . S
N1475 C1473 1.384 1_655 S
H1476 C1482 0.930 . S
H1477 C1486 0.930 . S
H1478 C1491 0.929 . S
H1479 C1489 0.929 . S
H1480 C1484 0.929 . S
H1481 C1490 0.929 . S
C1482 H1476 0.930 . S
C1482 C1483 1.367 . S
C1482 C1490 1.378 . S
C1483 C1482 1.367 . S
C1483 C1491 1.433 1_655 S
C1484 H1480 0.929 . S
C1484 C1486 1.378 . S
C1484 C1488 1.350 . S
C1485 C1488 1.463 . S
C1485 C1490 1.350 . S
C1485 N1493 1.427 . S
C1486 H1477 0.930 . S
C1486 C1484 1.378 . S
C1486 C1487 1.367 . S
C1487 C1486 1.367 . S
C1487 C1489 1.433 . S
C1488 C1484 1.350 . S
C1488 C1485 1.463 . S
C1488 N1492 1.427 . S
C1489 H1479 0.929 . S
C1489 C1487 1.433 . S
C1489 N1492 1.384 . S
C1490 H1481 0.929 . S
C1490 C1482 1.378 . S
C1490 C1485 1.350 . S
C1491 H1478 0.929 . S
C1491 C1483 1.433 1_455 S
C1491 N1493 1.384 1_455 S
N1492 C1488 1.427 . S
N1492 C1489 1.384 . S
N1493 C1485 1.427 . S
N1493 C1491 1.384 1_655 S
H1494 C1500 0.930 . S
H1495 C1504 0.930 . S
H1496 C1509 0.929 . S
H1497 C1507 0.929 . S
H1498 C1502 0.929 . S
H1499 C1508 0.929 . S
C1500 H1494 0.930 . S
C1500 C1501 1.367 . S
C1500 C1508 1.378 . S
C1501 C1500 1.367 . S
C1501 C1509 1.433 . S
C1502 H1498 0.929 . S
C1502 C1504 1.378 1_455 S
C1502 C1506 1.350 . S
C1503 C1506 1.463 . S
C1503 C1508 1.350 . S
C1503 N1511 1.427 . S
C1504 H1495 0.930 . S
C1504 C1502 1.378 1_655 S
C1504 C1505 1.367 . S
C1505 C1504 1.367 . S
C1505 C1507 1.433 . S
C1506 C1502 1.350 . S
C1506 C1503 1.463 . S
C1506 N1510 1.427 . S
C1507 H1497 0.929 . S
C1507 C1505 1.433 . S
C1507 N1510 1.384 1_655 S
C1508 H1499 0.929 . S
C1508 C1500 1.378 . S
C1508 C1503 1.350 . S
C1509 H1496 0.929 . S
C1509 C1501 1.433 . S
C1509 N1511 1.384 . S
N1510 C1506 1.427 . S
N1510 C1507 1.384 1_455 S
N1511 C1503 1.427 . S
N1511 C1509 1.384 . S
H1512 C1518 0.930 . S
H1513 C1522 0.930 1_545 S
H1514 C1527 0.929 . S
H1515 C1525 0.929 . S
H1516 C1520 0.929 . S
H1517 C1526 0.929 . S
C1518 H1512 0.930 . S
C1518 C1519 1.367 . S
C1518 C1526 1.378 . S
C1519 C1518 1.367 . S
C1519 C1527 1.433 . S
C1520 H1516 0.929 . S
C1520 C1522 1.378 . S
C1520 C1524 1.350 . S
C1521 C1524 1.463 . S
C1521 C1526 1.350 . S
C1521 N1529 1.427 . S
C1522 H1513 0.930 1_565 S
C1522 C1520 1.378 . S
C1522 C1523 1.367 . S
C1523 C1522 1.367 . S
C1523 C1525 1.433 . S
C1524 C1520 1.350 . S
C1524 C1521 1.463 . S
C1524 N1528 1.427 . S
C1525 H1515 0.929 . S
C1525 C1523 1.433 . S
C1525 N1528 1.384 . S
C1526 H1517 0.929 . S
C1526 C1518 1.378 . S
C1526 C1521 1.350 . S
C1527 H1514 0.929 . S
C1527 C1519 1.433 . S
C1527 N1529 1.384 . S
N1528 C1524 1.427 . S
N1528 C1525 1.384 . S
N1529 C1521 1.427 . S
N1529 C1527 1.384 . S
H1530 C1536 0.930 1_655 S
H1531 C1540 0.930 1_545 S
H1532 C1545 0.929 . S
H1533 C1543 0.929 . S
H1534 C1538 0.929 . S
H1535 C1544 0.929 . S
C1536 H1530 0.930 1_455 S
C1536 C1537 1.367 . S
C1536 C1544 1.378 . S
C1537 C1536 1.367 . S
C1537 C1545 1.433 . S
C1538 H1534 0.929 . S
C1538 C1540 1.378 . S
C1538 C1542 1.350 . S
C1539 C1542 1.463 . S
C1539 C1544 1.350 . S
C1539 N1547 1.427 . S
C1540 H1531 0.930 1_565 S
C1540 C1538 1.378 . S
C1540 C1541 1.367 1_565 S
C1541 C1540 1.367 1_545 S
C1541 C1543 1.433 . S
C1542 C1538 1.350 . S
C1542 C1539 1.463 . S
C1542 N1546 1.427 . S
C1543 H1533 0.929 . S
C1543 C1541 1.433 . S
C1543 N1546 1.384 1_545 S
C1544 H1535 0.929 . S
C1544 C1536 1.378 . S
C1544 C1539 1.350 . S
C1545 H1532 0.929 . S
C1545 C1537 1.433 . S
C1545 N1547 1.384 . S
N1546 C1542 1.427 . S
N1546 C1543 1.384 1_565 S
N1547 C1539 1.427 . S
N1547 C1545 1.384 . S
H1548 C1554 0.930 . S
H1549 C1558 0.930 1_545 S
H1550 C1563 0.929 . S
H1551 C1561 0.929 . S
H1552 C1556 0.929 . S
H1553 C1562 0.929 . S
C1554 H1548 0.930 . S
C1554 C1555 1.367 . S
C1554 C1562 1.378 . S
C1555 C1554 1.367 . S
C1555 C1563 1.433 . S
C1556 H1552 0.929 . S
C1556 C1558 1.378 . S
C1556 C1560 1.350 . S
C1557 C1560 1.463 . S
C1557 C1562 1.350 . S
C1557 N1565 1.427 . S
C1558 H1549 0.930 1_565 S
C1558 C1556 1.378 . S
C1558 C1559 1.367 1_565 S
C1559 C1558 1.367 1_545 S
C1559 C1561 1.433 . S
C1560 C1556 1.350 . S
C1560 C1557 1.463 . S
C1560 N1564 1.427 . S
C1561 H1551 0.929 . S
C1561 C1559 1.433 . S
C1561 N1564 1.384 1_545 S
C1562 H1553 0.929 . S
C1562 C1554 1.378 . S
C1562 C1557 1.350 . S
C1563 H1550 0.929 . S
C1563 C1555 1.433 . S
C1563 N1565 1.384 . S
N1564 C1560 1.427 . S
N1564 C1561 1.384 1_565 S
N1565 C1557 1.427 . S
N1565 C1563 1.384 . S
H1566 C1572 0.930 . S
H1567 C1576 0.930 . S
H1568 C1581 0.961 . S
H1569 C1579 0.938 1_655 S
H1570 C1574 0.929 . S
H1571 C1580 0.929 . S
C1572 H1566 0.930 . S
C1572 C1573 1.367 . S
C1572 C1580 1.378 . S
C1573 C1572 1.367 . S
C1573 C1581 1.412 1_565 S
C1574 H1570 0.929 . S
C1574 C1576 1.378 1_455 S
C1574 C1578 1.350 . S
C1575 C1578 1.463 . S
C1575 C1580 1.350 . S
C1575 N1583 1.427 . S
C1576 H1567 0.930 . S
C1576 C1574 1.378 1_655 S
C1576 C1577 1.367 . S
C1577 C1576 1.367 . S
C1577 C1579 1.433 1_655 S
C1578 C1574 1.350 . S
C1578 C1575 1.463 . S
C1578 N1582 1.427 . S
C1579 H1569 0.938 1_455 S
C1579 C1577 1.433 1_455 S
C1579 N1582 1.384 . S
C1580 H1571 0.929 . S
C1580 C1572 1.378 . S
C1580 C1575 1.350 . S
C1581 H1568 0.961 . S
C1581 C1573 1.412 1_545 S
C1581 N1583 1.372 1_545 S
N1582 C1578 1.427 . S
N1582 C1579 1.384 . S
N1583 C1575 1.427 . S
N1583 C1581 1.372 1_565 S
H1584 C1590 0.930 1_655 S
H1585 C1594 0.930 . S
H1586 C1599 0.929 . S
H1587 C1597 0.929 . S
H1588 C1592 0.929 . S
H1589 C1598 0.929 . S
C1590 H1584 0.930 1_455 S
C1590 C1591 1.367 . S
C1590 C1598 1.378 . S
C1591 C1590 1.367 . S
C1591 C1599 1.433 . S
C1592 H1588 0.929 . S
C1592 C1594 1.378 . S
C1592 C1596 1.350 . S
C1593 C1596 1.463 . S
C1593 C1598 1.350 . S
C1593 N1601 1.427 . S
C1594 H1585 0.930 . S
C1594 C1592 1.378 . S
C1594 C1595 1.367 . S
C1595 C1594 1.367 . S
C1595 C1597 1.433 . S
C1596 C1592 1.350 . S
C1596 C1593 1.463 . S
C1596 N1600 1.427 . S
C1597 H1587 0.929 . S
C1597 C1595 1.433 . S
C1597 N1600 1.384 . S
C1598 H1589 0.929 . S
C1598 C1590 1.378 . S
C1598 C1593 1.350 . S
C1599 H1586 0.929 . S
C1599 C1591 1.433 . S
C1599 N1601 1.384 . S
N1600 C1596 1.427 . S
N1600 C1597 1.384 . S
N1601 C1593 1.427 . S
N1601 C1599 1.384 . S
H1602 C1608 0.930 . S
H1603 C1612 0.930 1_455 S
H1604 C1617 0.929 . S
H1605 C1615 0.929 . S
H1606 C1610 0.929 . S
H1607 C1616 0.929 . S
C1608 H1602 0.930 . S
C1608 C1609 1.367 . S
C1608 C1616 1.378 . S
C1609 C1608 1.367 . S
C1609 C1617 1.433 . S
C1610 H1606 0.929 . S
C1610 C1612 1.378 . S
C1610 C1614 1.350 . S
C1611 C1614 1.463 . S
C1611 C1616 1.350 . S
C1611 N1619 1.427 . S
C1612 H1603 0.930 1_655 S
C1612 C1610 1.378 . S
C1612 C1613 1.367 1_655 S
C1613 C1612 1.367 1_455 S
C1613 C1615 1.433 . S
C1614 C1610 1.350 . S
C1614 C1611 1.463 . S
C1614 N1618 1.427 . S
C1615 H1605 0.929 . S
C1615 C1613 1.433 . S
C1615 N1618 1.384 1_455 S
C1616 H1607 0.929 . S
C1616 C1608 1.378 . S
C1616 C1611 1.350 . S
C1617 H1604 0.929 . S
C1617 C1609 1.433 . S
C1617 N1619 1.384 . S
N1618 C1614 1.427 . S
N1618 C1615 1.384 1_655 S
N1619 C1611 1.427 . S
N1619 C1617 1.384 . S
H1620 C1626 0.930 . S
H1621 C1630 0.930 1_565 S
H1622 C1635 0.929 . S
H1623 C1633 0.929 . S
H1624 C1628 0.929 . S
H1625 C1634 0.929 . S
C1626 H1620 0.930 . S
C1626 C1627 1.367 . S
C1626 C1634 1.378 . S
C1627 C1626 1.367 . S
C1627 C1635 1.433 . S
C1628 H1624 0.929 . S
C1628 C1630 1.378 . S
C1628 C1632 1.350 . S
C1629 C1632 1.463 . S
C1629 C1634 1.350 . S
C1629 N1637 1.427 . S
C1630 H1621 0.930 1_545 S
C1630 C1628 1.378 . S
C1630 C1631 1.367 . S
C1631 C1630 1.367 . S
C1631 C1633 1.433 . S
C1632 C1628 1.350 . S
C1632 C1629 1.463 . S
C1632 N1636 1.427 . S
C1633 H1623 0.929 . S
C1633 C1631 1.433 . S
C1633 N1636 1.384 . S
C1634 H1625 0.929 . S
C1634 C1626 1.378 . S
C1634 C1629 1.350 . S
C1635 H1622 0.929 . S
C1635 C1627 1.433 . S
C1635 N1637 1.384 . S
N1636 C1632 1.427 . S
N1636 C1633 1.384 . S
N1637 C1629 1.427 . S
N1637 C1635 1.384 . S
H1638 C1644 0.930 . S
H1639 C1648 0.930 . S
H1640 C1653 0.929 . S
H1641 C1651 0.929 1_455 S
H1642 C1646 0.929 . S
H1643 C1652 0.929 . S
C1644 H1638 0.930 . S
C1644 C1645 1.367 . S
C1644 C1652 1.378 1_565 S
C1645 C1644 1.367 . S
C1645 C1653 1.433 . S
C1646 H1642 0.929 . S
C1646 C1648 1.378 . S
C1646 C1650 1.350 . S
C1647 C1650 1.463 . S
C1647 C1652 1.350 . S
C1647 N1655 1.427 . S
C1648 H1639 0.930 . S
C1648 C1646 1.378 . S
C1648 C1649 1.367 . S
C1649 C1648 1.367 . S
C1649 C1651 1.433 . S
C1650 C1646 1.350 . S
C1650 C1647 1.463 . S
C1650 N1654 1.427 . S
C1651 H1641 0.929 1_655 S
C1651 C1649 1.433 . S
C1651 N1654 1.384 . S
C1652 H1643 0.929 . S
C1652 C1644 1.378 1_545 S
C1652 C1647 1.350 . S
C1653 H1640 0.929 . S
C1653 C1645 1.433 . S
C1653 N1655 1.384 1_565 S
N1654 C1650 1.427 . S
N1654 C1651 1.384 . S
N1655 C1647 1.427 . S
N1655 C1653 1.384 1_545 S
H1656 C1662 0.930 . S
H1657 C1666 0.930 . S
H1658 C1671 0.929 . S
H1659 C1669 0.929 . S
H1660 C1664 0.929 . S
H1661 C1670 0.929 . S
C1662 H1656 0.930 . S
C1662 C1663 1.367 . S
C1662 C1670 1.378 . S
C1663 C1662 1.367 . S
C1663 C1671 1.433 . S
C1664 H1660 0.929 . S
C1664 C1666 1.378 . S
C1664 C1668 1.350 . S
C1665 C1668 1.463 . S
C1665 C1670 1.350 . S
C1665 N1673 1.427 . S
C1666 H1657 0.930 . S
C1666 C1664 1.378 . S
C1666 C1667 1.367 . S
C1667 C1666 1.367 . S
C1667 C1669 1.433 . S
C1668 C1664 1.350 . S
C1668 C1665 1.463 . S
C1668 N1672 1.427 . S
C1669 H1659 0.929 . S
C1669 C1667 1.433 . S
C1669 N1672 1.384 . S
C1670 H1661 0.929 . S
C1670 C1662 1.378 . S
C1670 C1665 1.350 . S
C1671 H1658 0.929 . S
C1671 C1663 1.433 . S
C1671 N1673 1.384 . S
N1672 C1668 1.427 . S
N1672 C1669 1.384 . S
N1673 C1665 1.427 . S
N1673 C1671 1.384 . S
H1674 C1680 0.930 . S
H1675 C1684 0.930 . S
H1676 C1689 0.929 . S
H1677 C1687 0.929 . S
H1678 C1682 0.929 . S
H1679 C1688 0.929 . S
C1680 H1674 0.930 . S
C1680 C1681 1.367 . S
C1680 C1688 1.378 . S
C1681 C1680 1.367 . S
C1681 C1689 1.433 . S
C1682 H1678 0.929 . S
C1682 C1684 1.378 . S
C1682 C1686 1.350 . S
C1683 C1686 1.463 . S
C1683 C1688 1.350 . S
C1683 N1691 1.427 . S
C1684 H1675 0.930 . S
C1684 C1682 1.378 . S
C1684 C1685 1.367 . S
C1685 C1684 1.367 . S
C1685 C1687 1.433 . S
C1686 C1682 1.350 . S
C1686 C1683 1.463 . S
C1686 N1690 1.427 . S
C1687 H1677 0.929 . S
C1687 C1685 1.433 . S
C1687 N1690 1.384 . S
C1688 H1679 0.929 . S
C1688 C1680 1.378 . S
C1688 C1683 1.350 . S
C1689 H1676 0.929 . S
C1689 C1681 1.433 . S
C1689 N1691 1.384 . S
N1690 C1686 1.427 . S
N1690 C1687 1.384 . S
N1691 C1683 1.427 . S
N1691 C1689 1.384 . S
H1692 C1698 0.930 . S
H1693 C1702 0.930 . S
H1694 C1707 0.929 . S
H1695 C1705 0.929 . S
H1696 C1700 0.929 . S
H1697 C1706 0.929 . S
C1698 H1692 0.930 . S
C1698 C1699 1.367 . S
C1698 C1706 1.378 . S
C1699 C1698 1.367 . S
C1699 C1707 1.433 . S
C1700 H1696 0.929 . S
C1700 C1702 1.378 . S
C1700 C1704 1.350 . S
C1701 C1704 1.463 . S
C1701 C1706 1.350 . S
C1701 N1709 1.427 . S
C1702 H1693 0.930 . S
C1702 C1700 1.378 . S
C1702 C1703 1.367 . S
C1703 C1702 1.367 . S
C1703 C1705 1.433 . S
C1704 C1700 1.350 . S
C1704 C1701 1.463 . S
C1704 N1708 1.427 . S
C1705 H1695 0.929 . S
C1705 C1703 1.433 . S
C1705 N1708 1.384 . S
C1706 H1697 0.929 . S
C1706 C1698 1.378 . S
C1706 C1701 1.350 . S
C1707 H1694 0.929 . S
C1707 C1699 1.433 . S
C1707 N1709 1.384 . S
N1708 C1704 1.427 . S
N1708 C1705 1.384 . S
N1709 C1701 1.427 . S
N1709 C1707 1.384 . S
H1710 C1716 0.930 . S
H1711 C1720 0.930 . S
H1712 C1725 0.929 . S
H1713 C1723 0.929 . S
H1714 C1718 0.929 . S
H1715 C1724 0.929 . S
C1716 H1710 0.930 . S
C1716 C1717 1.367 . S
C1716 C1724 1.378 . S
C1717 C1716 1.367 . S
C1717 C1725 1.433 . S
C1718 H1714 0.929 . S
C1718 C1720 1.378 . S
C1718 C1722 1.350 . S
C1719 C1722 1.463 . S
C1719 C1724 1.350 . S
C1719 N1727 1.427 . S
C1720 H1711 0.930 . S
C1720 C1718 1.378 . S
C1720 C1721 1.367 . S
C1721 C1720 1.367 . S
C1721 C1723 1.433 . S
C1722 C1718 1.350 . S
C1722 C1719 1.463 . S
C1722 N1726 1.427 . S
C1723 H1713 0.929 . S
C1723 C1721 1.433 . S
C1723 N1726 1.384 . S
C1724 H1715 0.929 . S
C1724 C1716 1.378 . S
C1724 C1719 1.350 . S
C1725 H1712 0.929 . S
C1725 C1717 1.433 . S
C1725 N1727 1.384 . S
N1726 C1722 1.427 . S
N1726 C1723 1.384 . S
N1727 C1719 1.427 . S
N1727 C1725 1.384 . S
H1728 C1734 0.930 . S
H1729 C1738 0.930 . S
H1730 C1743 0.929 . S
H1731 C1741 0.929 . S
H1732 C1736 0.929 . S
H1733 C1742 0.929 . S
C1734 H1728 0.930 . S
C1734 C1735 1.367 . S
C1734 C1742 1.378 . S
C1735 C1734 1.367 . S
C1735 C1743 1.433 . S
C1736 H1732 0.929 . S
C1736 C1738 1.378 . S
C1736 C1740 1.350 . S
C1737 C1740 1.463 . S
C1737 C1742 1.350 . S
C1737 N1745 1.427 . S
C1738 H1729 0.930 . S
C1738 C1736 1.378 . S
C1738 C1739 1.367 . S
C1739 C1738 1.367 . S
C1739 C1741 1.433 . S
C1740 C1736 1.350 . S
C1740 C1737 1.463 . S
C1740 N1744 1.427 . S
C1741 H1731 0.929 . S
C1741 C1739 1.433 . S
C1741 N1744 1.384 . S
C1742 H1733 0.929 . S
C1742 C1734 1.378 . S
C1742 C1737 1.350 . S
C1743 H1730 0.929 . S
C1743 C1735 1.433 . S
C1743 N1745 1.384 . S
N1744 C1740 1.427 . S
N1744 C1741 1.384 . S
N1745 C1737 1.427 . S
N1745 C1743 1.384 . S
H1746 C1752 0.930 . S
H1747 C1756 0.930 . S
H1748 C1761 0.929 . S
H1749 C1759 0.929 . S
H1750 C1754 0.929 . S
H1751 C1760 0.929 . S
C1752 H1746 0.930 . S
C1752 C1753 1.367 . S
C1752 C1760 1.378 . S
C1753 C1752 1.367 . S
C1753 C1761 1.433 . S
C1754 H1750 0.929 . S
C1754 C1756 1.378 . S
C1754 C1758 1.350 . S
C1755 C1758 1.463 . S
C1755 C1760 1.350 . S
C1755 N1763 1.427 . S
C1756 H1747 0.930 . S
C1756 C1754 1.378 . S
C1756 C1757 1.367 . S
C1757 C1756 1.367 . S
C1757 C1759 1.433 . S
C1758 C1754 1.350 . S
C1758 C1755 1.463 . S
C1758 N1762 1.427 . S
C1759 H1749 0.929 . S
C1759 C1757 1.433 . S
C1759 N1762 1.384 . S
C1760 H1751 0.929 . S
C1760 C1752 1.378 . S
C1760 C1755 1.350 . S
C1761 H1748 0.929 . S
C1761 C1753 1.433 . S
C1761 N1763 1.384 . S
N1762 C1758 1.427 . S
N1762 C1759 1.384 . S
N1763 C1755 1.427 . S
N1763 C1761 1.384 . S
H1764 C1770 0.930 . S
H1765 C1774 0.930 . S
H1766 C1779 0.929 . S
H1767 C1777 0.929 . S
H1768 C1772 0.929 . S
H1769 C1778 0.929 . S
C1770 H1764 0.930 . S
C1770 C1771 1.367 . S
C1770 C1778 1.378 . S
C1771 C1770 1.367 . S
C1771 C1779 1.433 . S
C1772 H1768 0.929 . S
C1772 C1774 1.378 . S
C1772 C1776 1.350 . S
C1773 C1776 1.463 . S
C1773 C1778 1.350 . S
C1773 N1781 1.427 . S
C1774 H1765 0.930 . S
C1774 C1772 1.378 . S
C1774 C1775 1.367 . S
C1775 C1774 1.367 . S
C1775 C1777 1.433 . S
C1776 C1772 1.350 . S
C1776 C1773 1.463 . S
C1776 N1780 1.427 . S
C1777 H1767 0.929 . S
C1777 C1775 1.433 . S
C1777 N1780 1.384 . S
C1778 H1769 0.929 . S
C1778 C1770 1.378 . S
C1778 C1773 1.350 . S
C1779 H1766 0.929 . S
C1779 C1771 1.433 . S
C1779 N1781 1.384 . S
N1780 C1776 1.427 . S
N1780 C1777 1.384 . S
N1781 C1773 1.427 . S
N1781 C1779 1.384 . S
H1782 C1788 0.930 . S
H1783 C1792 0.930 . S
H1784 C1797 0.929 . S
H1785 C1795 0.929 . S
H1786 C1790 0.929 . S
H1787 C1796 0.929 . S
C1788 H1782 0.930 . S
C1788 C1789 1.367 . S
C1788 C1796 1.378 . S
C1789 C1788 1.367 . S
C1789 C1797 1.433 . S
C1790 H1786 0.929 . S
C1790 C1792 1.378 . S
C1790 C1794 1.350 . S
C1791 C1794 1.463 . S
C1791 C1796 1.350 . S
C1791 N1799 1.427 . S
C1792 H1783 0.930 . S
C1792 C1790 1.378 . S
C1792 C1793 1.367 . S
C1793 C1792 1.367 . S
C1793 C1795 1.433 . S
C1794 C1790 1.350 . S
C1794 C1791 1.463 . S
C1794 N1798 1.427 . S
C1795 H1785 0.929 . S
C1795 C1793 1.433 . S
C1795 N1798 1.384 . S
C1796 H1787 0.929 . S
C1796 C1788 1.378 . S
C1796 C1791 1.350 . S
C1797 H1784 0.929 . S
C1797 C1789 1.433 . S
C1797 N1799 1.384 . S
N1798 C1794 1.427 . S
N1798 C1795 1.384 . S
N1799 C1791 1.427 . S
N1799 C1797 1.384 . S
H1800 C1806 0.930 . S
H1801 C1810 0.930 . S
H1802 C1815 0.929 . S
H1803 C1813 0.929 . S
H1804 C1808 0.929 . S
H1805 C1814 0.929 . S
C1806 H1800 0.930 . S
C1806 C1807 1.367 . S
C1806 C1814 1.378 . S
C1807 C1806 1.367 . S
C1807 C1815 1.433 . S
C1808 H1804 0.929 . S
C1808 C1810 1.378 . S
C1808 C1812 1.350 . S
C1809 C1812 1.463 . S
C1809 C1814 1.350 . S
C1809 N1817 1.427 . S
C1810 H1801 0.930 . S
C1810 C1808 1.378 . S
C1810 C1811 1.367 . S
C1811 C1810 1.367 . S
C1811 C1813 1.433 . S
C1812 C1808 1.350 . S
C1812 C1809 1.463 . S
C1812 N1816 1.427 . S
C1813 H1803 0.929 . S
C1813 C1811 1.433 . S
C1813 N1816 1.384 . S
C1814 H1805 0.929 . S
C1814 C1806 1.378 . S
C1814 C1809 1.350 . S
C1815 H1802 0.929 . S
C1815 C1807 1.433 . S
C1815 N1817 1.384 . S
N1816 C1812 1.427 . S
N1816 C1813 1.384 . S
N1817 C1809 1.427 . S
N1817 C1815 1.384 . S
H1818 C1824 0.930 . S
H1819 C1828 0.930 . S
H1820 C1833 0.923 1_556 S
H1821 C1831 0.929 . S
H1822 C1826 0.929 . S
H1823 C1832 0.929 . S
C1824 H1818 0.930 . S
C1824 C1825 1.367 . S
C1824 C1832 1.378 . S
C1825 C1824 1.367 . S
C1825 C1833 1.441 . S
C1826 H1822 0.929 . S
C1826 C1828 1.378 . S
C1826 C1830 1.350 1_556 S
C1827 C1830 1.463 . S
C1827 C1832 1.350 . S
C1827 N1835 1.419 1_554 S
C1828 H1819 0.930 . S
C1828 C1826 1.378 . S
C1828 C1829 1.340 1_556 S
C1829 C1828 1.340 1_554 S
C1829 C1831 1.474 . S
C1830 C1826 1.350 1_554 S
C1830 C1827 1.463 . S
C1830 N1834 1.427 . S
C1831 H1821 0.929 . S
C1831 C1829 1.474 . S
C1831 N1834 1.384 . S
C1832 H1823 0.929 . S
C1832 C1824 1.378 . S
C1832 C1827 1.350 . S
C1833 H1820 0.923 1_554 S
C1833 C1825 1.441 . S
C1833 N1835 1.382 1_554 S
N1834 C1830 1.427 . S
N1834 C1831 1.384 . S
N1835 C1827 1.419 1_556 S
N1835 C1833 1.382 1_556 S
H1836 C1842 0.930 . S
H1837 C1846 0.930 . S
H1838 C1851 0.929 . S
H1839 C1849 0.928 1_556 S
H1840 C1844 0.929 . S
H1841 C1850 0.929 . S
C1842 H1836 0.930 . S
C1842 C1843 1.338 1_556 S
C1842 C1850 1.378 . S
C1843 C1842 1.338 1_554 S
C1843 C1851 1.475 . S
C1844 H1840 0.929 . S
C1844 C1846 1.378 . S
C1844 C1848 1.350 . S
C1845 C1848 1.463 . S
C1845 C1850 1.350 1_554 S
C1845 N1853 1.427 . S
C1846 H1837 0.930 . S
C1846 C1844 1.378 . S
C1846 C1847 1.367 . S
C1847 C1846 1.367 . S
C1847 C1849 1.435 . S
C1848 C1844 1.350 . S
C1848 C1845 1.463 . S
C1848 N1852 1.414 1_554 S
C1849 H1839 0.928 1_554 S
C1849 C1847 1.435 . S
C1849 N1852 1.382 1_554 S
C1850 H1841 0.929 . S
C1850 C1842 1.378 . S
C1850 C1845 1.350 1_556 S
C1851 H1838 0.929 . S
C1851 C1843 1.475 . S
C1851 N1853 1.384 . S
N1852 C1848 1.414 1_556 S
N1852 C1849 1.382 1_556 S
N1853 C1845 1.427 . S
N1853 C1851 1.384 . S
H1854 C1860 0.930 . S
H1855 C1864 0.930 . S
H1856 C1869 0.929 . S
H1857 C1867 0.929 . S
H1858 C1862 0.929 . S
H1859 C1868 0.929 . S
C1860 H1854 0.930 . S
C1860 C1861 1.367 1_556 S
C1860 C1868 1.378 . S
C1861 C1860 1.367 1_554 S
C1861 C1869 1.433 . S
C1862 H1858 0.929 . S
C1862 C1864 1.378 . S
C1862 C1866 1.350 . S
C1863 C1866 1.463 . S
C1863 C1868 1.350 1_554 S
C1863 N1871 1.427 . S
C1864 H1855 0.930 . S
C1864 C1862 1.378 . S
C1864 C1865 1.472 . S
C1865 C1864 1.472 . S
C1865 C1867 1.340 1_554 S
C1866 C1862 1.350 . S
C1866 C1863 1.463 . S
C1866 N1870 1.427 1_554 S
C1867 H1857 0.929 . S
C1867 C1865 1.340 1_556 S
C1867 N1870 1.384 . S
C1868 H1859 0.929 . S
C1868 C1860 1.378 . S
C1868 C1863 1.350 1_556 S
C1869 H1856 0.929 . S
C1869 C1861 1.433 . S
C1869 N1871 1.384 . S
N1870 C1866 1.427 1_556 S
N1870 C1867 1.384 . S
N1871 C1863 1.427 . S
N1871 C1869 1.384 . S
H1872 C1878 0.930 . S
H1873 C1882 0.930 . S
H1874 C1887 0.929 . S
H1875 C1885 0.929 . S
H1876 C1880 0.929 . S
H1877 C1886 0.929 . S
C1878 H1872 0.930 . S
C1878 C1879 1.367 . S
C1878 C1886 1.378 . S
C1879 C1878 1.367 . S
C1879 C1887 1.433 . S
C1880 H1876 0.929 . S
C1880 C1882 1.378 . S
C1880 C1884 1.350 . S
C1881 C1884 1.463 . S
C1881 C1886 1.350 . S
C1881 N1889 1.427 . S
C1882 H1873 0.930 . S
C1882 C1880 1.378 . S
C1882 C1883 1.367 . S
C1883 C1882 1.367 . S
C1883 C1885 1.433 . S
C1884 C1880 1.350 . S
C1884 C1881 1.463 . S
C1884 N1888 1.427 . S
C1885 H1875 0.929 . S
C1885 C1883 1.433 . S
C1885 N1888 1.384 . S
C1886 H1877 0.929 . S
C1886 C1878 1.378 . S
C1886 C1881 1.350 . S
C1887 H1874 0.929 . S
C1887 C1879 1.433 . S
C1887 N1889 1.384 . S
N1888 C1884 1.427 . S
N1888 C1885 1.384 . S
N1889 C1881 1.427 . S
N1889 C1887 1.384 . S
H1890 C1896 0.930 . S
H1891 C1900 0.930 . S
H1892 C1905 0.929 . S
H1893 C1903 0.929 . S
H1894 C1898 0.929 . S
H1895 C1904 0.929 . S
C1896 H1890 0.930 . S
C1896 C1897 1.367 . S
C1896 C1904 1.378 . S
C1897 C1896 1.367 . S
C1897 C1905 1.433 . S
C1898 H1894 0.929 . S
C1898 C1900 1.378 . S
C1898 C1902 1.350 . S
C1899 C1902 1.463 . S
C1899 C1904 1.350 . S
C1899 N1907 1.427 . S
C1900 H1891 0.930 . S
C1900 C1898 1.378 . S
C1900 C1901 1.367 . S
C1901 C1900 1.367 . S
C1901 C1903 1.433 . S
C1902 C1898 1.350 . S
C1902 C1899 1.463 . S
C1902 N1906 1.427 . S
C1903 H1893 0.929 . S
C1903 C1901 1.433 . S
C1903 N1906 1.384 . S
C1904 H1895 0.929 . S
C1904 C1896 1.378 . S
C1904 C1899 1.350 . S
C1905 H1892 0.929 . S
C1905 C1897 1.433 . S
C1905 N1907 1.384 . S
N1906 C1902 1.427 . S
N1906 C1903 1.384 . S
N1907 C1899 1.427 . S
N1907 C1905 1.384 . S
H1908 C1914 0.930 . S
H1909 C1918 0.930 . S
H1910 C1923 0.929 . S
H1911 C1921 0.929 . S
H1912 C1916 0.929 . S
H1913 C1922 0.929 . S
C1914 H1908 0.930 . S
C1914 C1915 1.367 . S
C1914 C1922 1.378 . S
C1915 C1914 1.367 . S
C1915 C1923 1.433 . S
C1916 H1912 0.929 . S
C1916 C1918 1.378 . S
C1916 C1920 1.350 . S
C1917 C1920 1.463 . S
C1917 C1922 1.350 . S
C1917 N1925 1.427 . S
C1918 H1909 0.930 . S
C1918 C1916 1.378 . S
C1918 C1919 1.367 . S
C1919 C1918 1.367 . S
C1919 C1921 1.433 . S
C1920 C1916 1.350 . S
C1920 C1917 1.463 . S
C1920 N1924 1.427 . S
C1921 H1911 0.929 . S
C1921 C1919 1.433 . S
C1921 N1924 1.384 . S
C1922 H1913 0.929 . S
C1922 C1914 1.378 . S
C1922 C1917 1.350 . S
C1923 H1910 0.929 . S
C1923 C1915 1.433 . S
C1923 N1925 1.384 . S
N1924 C1920 1.427 . S
N1924 C1921 1.384 . S
N1925 C1917 1.427 . S
N1925 C1923 1.384 . S
H1926 C1932 0.930 . S
H1927 C1936 0.930 . S
H1928 C1941 0.929 . S
H1929 C1939 0.929 . S
H1930 C1934 0.929 . S
H1931 C1940 0.929 . S
C1932 H1926 0.930 . S
C1932 C1933 1.297 1_554 S
C1932 C1940 1.378 . S
C1933 C1932 1.297 1_556 S
C1933 C1941 1.510 . S
C1934 H1930 0.929 . S
C1934 C1936 1.378 . S
C1934 C1938 1.350 . S
C1935 C1938 1.463 . S
C1935 C1940 1.350 1_556 S
C1935 N1943 1.427 . S
C1936 H1927 0.930 . S
C1936 C1934 1.378 . S
C1936 C1937 1.367 . S
C1937 C1936 1.367 . S
C1937 C1939 1.433 1_556 S
C1938 C1934 1.350 . S
C1938 C1935 1.463 . S
C1938 N1942 1.427 1_556 S
C1939 H1929 0.929 . S
C1939 C1937 1.433 1_554 S
C1939 N1942 1.384 . S
C1940 H1931 0.929 . S
C1940 C1932 1.378 . S
C1940 C1935 1.350 1_554 S
C1941 H1928 0.929 . S
C1941 C1933 1.510 . S
C1941 N1943 1.384 . S
N1942 C1938 1.427 1_554 S
N1942 C1939 1.384 . S
N1943 C1935 1.427 . S
N1943 C1941 1.384 . S
H1944 C1950 0.930 . S
H1945 C1954 0.930 . S
H1946 C1959 0.929 . S
H1947 C1957 0.929 . S
H1948 C1952 0.929 . S
H1949 C1958 0.929 . S
C1950 H1944 0.930 . S
C1950 C1951 1.327 1_554 S
C1950 C1958 1.378 . S
C1951 C1950 1.327 1_556 S
C1951 C1959 1.485 . S
C1952 H1948 0.929 . S
C1952 C1954 1.378 . S
C1952 C1956 1.350 . S
C1953 C1956 1.463 . S
C1953 C1958 1.350 1_556 S
C1953 N1961 1.427 . S
C1954 H1945 0.930 . S
C1954 C1952 1.378 . S
C1954 C1955 1.367 . S
C1955 C1954 1.367 . S
C1955 C1957 1.433 1_556 S
C1956 C1952 1.350 . S
C1956 C1953 1.463 . S
C1956 N1960 1.427 1_556 S
C1957 H1947 0.929 . S
C1957 C1955 1.433 1_554 S
C1957 N1960 1.384 . S
C1958 H1949 0.929 . S
C1958 C1950 1.378 . S
C1958 C1953 1.350 1_554 S
C1959 H1946 0.929 . S
C1959 C1951 1.485 . S
C1959 N1961 1.384 . S
N1960 C1956 1.427 1_554 S
N1960 C1957 1.384 . S
N1961 C1953 1.427 . S
N1961 C1959 1.384 . S
H1962 C1968 0.930 . S
H1963 C1972 0.930 . S
H1964 C1977 0.929 . S
H1965 C1975 0.929 . S
H1966 C1970 0.929 . S
H1967 C1976 0.929 . S
C1968 H1962 0.930 . S
C1968 C1969 1.305 1_554 S
C1968 C1976 1.378 . S
C1969 C1968 1.305 1_556 S
C1969 C1977 1.504 . S
C1970 H1966 0.929 . S
C1970 C1972 1.378 . S
C1970 C1974 1.350 . S
C1971 C1974 1.463 . S
C1971 C1976 1.350 1_556 S
C1971 N1979 1.427 . S
C1972 H1963 0.930 . S
C1972 C1970 1.378 . S
C1972 C1973 1.367 . S
C1973 C1972 1.367 . S
C1973 C1975 1.433 1_556 S
C1974 C1970 1.350 . S
C1974 C1971 1.463 . S
C1974 N1978 1.427 1_556 S
C1975 H1965 0.929 . S
C1975 C1973 1.433 1_554 S
C1975 N1978 1.384 . S
C1976 H1967 0.929 . S
C1976 C1968 1.378 . S
C1976 C1971 1.350 1_554 S
C1977 H1964 0.929 . S
C1977 C1969 1.504 . S
C1977 N1979 1.384 . S
N1978 C1974 1.427 1_554 S
N1978 C1975 1.384 . S
N1979 C1971 1.427 . S
N1979 C1977 1.384 . S
H1980 C1986 0.930 . S
H1981 C1990 0.930 . S
H1982 C1995 0.929 . S
H1983 C1993 0.929 . S
H1984 C1988 0.929 . S
H1985 C1994 0.929 . S
C1986 H1980 0.930 . S
C1986 C1987 1.367 . S
C1986 C1994 1.378 . S
C1987 C1986 1.367 . S
C1987 C1995 1.433 . S
C1988 H1984 0.929 . S
C1988 C1990 1.378 . S
C1988 C1992 1.350 . S
C1989 C1992 1.463 . S
C1989 C1994 1.350 . S
C1989 N1997 1.427 . S
C1990 H1981 0.930 . S
C1990 C1988 1.378 . S
C1990 C1991 1.367 . S
C1991 C1990 1.367 . S
C1991 C1993 1.433 . S
C1992 C1988 1.350 . S
C1992 C1989 1.463 . S
C1992 N1996 1.427 . S
C1993 H1983 0.929 . S
C1993 C1991 1.433 . S
C1993 N1996 1.384 . S
C1994 H1985 0.929 . S
C1994 C1986 1.378 . S
C1994 C1989 1.350 . S
C1995 H1982 0.929 . S
C1995 C1987 1.433 . S
C1995 N1997 1.384 . S
N1996 C1992 1.427 . S
N1996 C1993 1.384 . S
N1997 C1989 1.427 . S
N1997 C1995 1.384 . S
H1998 C2004 0.930 . S
H1999 C2008 0.930 . S
H2000 C2013 0.929 . S
H2001 C2011 0.929 . S
H2002 C2006 0.929 . S
H2003 C2012 0.929 . S
C2004 H1998 0.930 . S
C2004 C2005 1.367 . S
C2004 C2012 1.378 . S
C2005 C2004 1.367 . S
C2005 C2013 1.433 . S
C2006 H2002 0.929 . S
C2006 C2008 1.378 . S
C2006 C2010 1.350 . S
C2007 C2010 1.463 . S
C2007 C2012 1.350 . S
C2007 N2015 1.427 . S
C2008 H1999 0.930 . S
C2008 C2006 1.378 . S
C2008 C2009 1.367 . S
C2009 C2008 1.367 . S
C2009 C2011 1.433 . S
C2010 C2006 1.350 . S
C2010 C2007 1.463 . S
C2010 N2014 1.427 . S
C2011 H2001 0.929 . S
C2011 C2009 1.433 . S
C2011 N2014 1.384 . S
C2012 H2003 0.929 . S
C2012 C2004 1.378 . S
C2012 C2007 1.350 . S
C2013 H2000 0.929 . S
C2013 C2005 1.433 . S
C2013 N2015 1.384 . S
N2014 C2010 1.427 . S
N2014 C2011 1.384 . S
N2015 C2007 1.427 . S
N2015 C2013 1.384 . S
H2016 C2022 0.930 . S
H2017 C2026 0.930 . S
H2018 C2031 0.929 . S
H2019 C2029 0.929 . S
H2020 C2024 0.929 . S
H2021 C2030 0.929 . S
C2022 H2016 0.930 . S
C2022 C2023 1.367 . S
C2022 C2030 1.378 . S
C2023 C2022 1.367 . S
C2023 C2031 1.433 . S
C2024 H2020 0.929 . S
C2024 C2026 1.378 . S
C2024 C2028 1.350 . S
C2025 C2028 1.463 . S
C2025 C2030 1.350 . S
C2025 N2033 1.427 . S
C2026 H2017 0.930 . S
C2026 C2024 1.378 . S
C2026 C2027 1.367 . S
C2027 C2026 1.367 . S
C2027 C2029 1.433 . S
C2028 C2024 1.350 . S
C2028 C2025 1.463 . S
C2028 N2032 1.427 . S
C2029 H2019 0.929 . S
C2029 C2027 1.433 . S
C2029 N2032 1.384 . S
C2030 H2021 0.929 . S
C2030 C2022 1.378 . S
C2030 C2025 1.350 . S
C2031 H2018 0.929 . S
C2031 C2023 1.433 . S
C2031 N2033 1.384 . S
N2032 C2028 1.427 . S
N2032 C2029 1.384 . S
N2033 C2025 1.427 . S
N2033 C2031 1.384 . S
H2034 C2040 0.930 . S
H2035 C2044 0.930 . S
H2036 C2049 0.929 . S
H2037 C2047 0.929 . S
H2038 C2042 0.929 . S
H2039 C2048 0.929 . S
C2040 H2034 0.930 . S
C2040 C2041 1.367 . S
C2040 C2048 1.378 . S
C2041 C2040 1.367 . S
C2041 C2049 1.433 . S
C2042 H2038 0.929 . S
C2042 C2044 1.378 . S
C2042 C2046 1.350 . S
C2043 C2046 1.463 . S
C2043 C2048 1.350 . S
C2043 N2051 1.427 . S
C2044 H2035 0.930 . S
C2044 C2042 1.378 . S
C2044 C2045 1.367 . S
C2045 C2044 1.367 . S
C2045 C2047 1.433 . S
C2046 C2042 1.350 . S
C2046 C2043 1.463 . S
C2046 N2050 1.427 . S
C2047 H2037 0.929 . S
C2047 C2045 1.433 . S
C2047 N2050 1.384 . S
C2048 H2039 0.929 . S
C2048 C2040 1.378 . S
C2048 C2043 1.350 . S
C2049 H2036 0.929 . S
C2049 C2041 1.433 . S
C2049 N2051 1.384 . S
N2050 C2046 1.427 . S
N2050 C2047 1.384 . S
N2051 C2043 1.427 . S
N2051 C2049 1.384 . S
H2052 C2058 0.930 . S
H2053 C2062 0.930 . S
H2054 C2067 0.929 . S
H2055 C2065 0.929 . S
H2056 C2060 0.929 . S
H2057 C2066 0.929 . S
C2058 H2052 0.930 . S
C2058 C2059 1.367 . S
C2058 C2066 1.378 . S
C2059 C2058 1.367 . S
C2059 C2067 1.433 . S
C2060 H2056 0.929 . S
C2060 C2062 1.378 . S
C2060 C2064 1.350 . S
C2061 C2064 1.463 . S
C2061 C2066 1.350 . S
C2061 N2069 1.427 . S
C2062 H2053 0.930 . S
C2062 C2060 1.378 . S
C2062 C2063 1.367 . S
C2063 C2062 1.367 . S
C2063 C2065 1.433 . S
C2064 C2060 1.350 . S
C2064 C2061 1.463 . S
C2064 N2068 1.427 . S
C2065 H2055 0.929 . S
C2065 C2063 1.433 . S
C2065 N2068 1.384 . S
C2066 H2057 0.929 . S
C2066 C2058 1.378 . S
C2066 C2061 1.350 . S
C2067 H2054 0.929 . S
C2067 C2059 1.433 . S
C2067 N2069 1.384 . S
N2068 C2064 1.427 . S
N2068 C2065 1.384 . S
N2069 C2061 1.427 . S
N2069 C2067 1.384 . S
H2070 C2076 0.930 . S
H2071 C2080 0.930 . S
H2072 C2085 0.929 . S
H2073 C2083 0.929 . S
H2074 C2078 0.929 . S
H2075 C2084 0.929 . S
C2076 H2070 0.930 . S
C2076 C2077 1.367 . S
C2076 C2084 1.378 . S
C2077 C2076 1.367 . S
C2077 C2085 1.433 . S
C2078 H2074 0.929 . S
C2078 C2080 1.378 . S
C2078 C2082 1.350 . S
C2079 C2082 1.463 . S
C2079 C2084 1.350 . S
C2079 N2087 1.427 . S
C2080 H2071 0.930 . S
C2080 C2078 1.378 . S
C2080 C2081 1.367 . S
C2081 C2080 1.367 . S
C2081 C2083 1.433 . S
C2082 C2078 1.350 . S
C2082 C2079 1.463 . S
C2082 N2086 1.427 . S
C2083 H2073 0.929 . S
C2083 C2081 1.433 . S
C2083 N2086 1.384 . S
C2084 H2075 0.929 . S
C2084 C2076 1.378 . S
C2084 C2079 1.350 . S
C2085 H2072 0.929 . S
C2085 C2077 1.433 . S
C2085 N2087 1.384 . S
N2086 C2082 1.427 . S
N2086 C2083 1.384 . S
N2087 C2079 1.427 . S
N2087 C2085 1.384 . S
H2088 C2094 0.930 . S
H2089 C2098 0.930 . S
H2090 C2103 0.929 . S
H2091 C2101 0.929 . S
H2092 C2096 0.929 . S
H2093 C2102 0.929 . S
C2094 H2088 0.930 . S
C2094 C2095 1.367 . S
C2094 C2102 1.378 . S
C2095 C2094 1.367 . S
C2095 C2103 1.433 . S
C2096 H2092 0.929 . S
C2096 C2098 1.378 . S
C2096 C2100 1.350 . S
C2097 C2100 1.463 . S
C2097 C2102 1.350 . S
C2097 N2105 1.427 . S
C2098 H2089 0.930 . S
C2098 C2096 1.378 . S
C2098 C2099 1.367 . S
C2099 C2098 1.367 . S
C2099 C2101 1.433 . S
C2100 C2096 1.350 . S
C2100 C2097 1.463 . S
C2100 N2104 1.427 . S
C2101 H2091 0.929 . S
C2101 C2099 1.433 . S
C2101 N2104 1.384 . S
C2102 H2093 0.929 . S
C2102 C2094 1.378 . S
C2102 C2097 1.350 . S
C2103 H2090 0.929 . S
C2103 C2095 1.433 . S
C2103 N2105 1.384 . S
N2104 C2100 1.427 . S
N2104 C2101 1.384 . S
N2105 C2097 1.427 . S
N2105 C2103 1.384 . S
H2106 C2112 0.930 . S
H2107 C2116 0.930 . S
H2108 C2121 0.929 . S
H2109 C2119 0.929 . S
H2110 C2114 0.929 . S
H2111 C2120 0.929 . S
C2112 H2106 0.930 . S
C2112 C2113 1.367 1_565 S
C2112 C2120 1.378 . S
C2113 C2112 1.367 1_545 S
C2113 C2121 1.433 . S
C2114 H2110 0.929 . S
C2114 C2116 1.378 . S
C2114 C2118 1.350 . S
C2115 C2118 1.463 . S
C2115 C2120 1.350 . S
C2115 N2123 1.427 1_565 S
C2116 H2107 0.930 . S
C2116 C2114 1.378 . S
C2116 C2117 1.367 . S
C2117 C2116 1.367 . S
C2117 C2119 1.433 . S
C2118 C2114 1.350 . S
C2118 C2115 1.463 . S
C2118 N2122 1.427 . S
C2119 H2109 0.929 . S
C2119 C2117 1.433 . S
C2119 N2122 1.384 . S
C2120 H2111 0.929 . S
C2120 C2112 1.378 . S
C2120 C2115 1.350 . S
C2121 H2108 0.929 . S
C2121 C2113 1.433 . S
C2121 N2123 1.384 . S
N2122 C2118 1.427 . S
N2122 C2119 1.384 . S
N2123 C2115 1.427 1_545 S
N2123 C2121 1.384 . S
H2124 C2130 0.930 . S
H2125 C2134 0.930 . S
H2126 C2139 0.929 . S
H2127 C2137 0.929 . S
H2128 C2132 0.929 . S
H2129 C2138 0.929 . S
C2130 H2124 0.930 . S
C2130 C2131 1.367 . S
C2130 C2138 1.378 . S
C2131 C2130 1.367 . S
C2131 C2139 1.433 . S
C2132 H2128 0.929 . S
C2132 C2134 1.378 . S
C2132 C2136 1.350 1_655 S
C2133 C2136 1.463 . S
C2133 C2138 1.350 . S
C2133 N2141 1.427 . S
C2134 H2125 0.930 . S
C2134 C2132 1.378 . S
C2134 C2135 1.367 . S
C2135 C2134 1.367 . S
C2135 C2137 1.433 1_655 S
C2136 C2132 1.350 1_455 S
C2136 C2133 1.463 . S
C2136 N2140 1.427 . S
C2137 H2127 0.929 . S
C2137 C2135 1.433 1_455 S
C2137 N2140 1.384 . S
C2138 H2129 0.929 . S
C2138 C2130 1.378 . S
C2138 C2133 1.350 . S
C2139 H2126 0.929 . S
C2139 C2131 1.433 . S
C2139 N2141 1.384 . S
N2140 C2136 1.427 . S
N2140 C2137 1.384 . S
N2141 C2133 1.427 . S
N2141 C2139 1.384 . S
H2142 C2148 0.930 . S
H2143 C2152 0.930 . S
H2144 C2157 0.929 . S
H2145 C2155 0.929 . S
H2146 C2150 0.929 . S
H2147 C2156 0.929 . S
C2148 H2142 0.930 . S
C2148 C2149 1.367 . S
C2148 C2156 1.378 . S
C2149 C2148 1.367 . S
C2149 C2157 1.433 . S
C2150 H2146 0.929 . S
C2150 C2152 1.378 . S
C2150 C2154 1.350 . S
C2151 C2154 1.463 . S
C2151 C2156 1.350 . S
C2151 N2159 1.427 . S
C2152 H2143 0.930 . S
C2152 C2150 1.378 . S
C2152 C2153 1.367 . S
C2153 C2152 1.367 . S
C2153 C2155 1.433 . S
C2154 C2150 1.350 . S
C2154 C2151 1.463 . S
C2154 N2158 1.427 . S
C2155 H2145 0.929 . S
C2155 C2153 1.433 . S
C2155 N2158 1.384 . S
C2156 H2147 0.929 . S
C2156 C2148 1.378 . S
C2156 C2151 1.350 . S
C2157 H2144 0.929 . S
C2157 C2149 1.433 . S
C2157 N2159 1.384 . S
N2158 C2154 1.427 . S
N2158 C2155 1.384 . S
N2159 C2151 1.427 . S
N2159 C2157 1.384 . S
H2160 C2166 0.930 . S
H2161 C2170 0.930 . S
H2162 C2175 0.929 . S
H2163 C2173 0.929 . S
H2164 C2168 0.929 . S
H2165 C2174 0.929 . S
C2166 H2160 0.930 . S
C2166 C2167 1.367 . S
C2166 C2174 1.378 . S
C2167 C2166 1.367 . S
C2167 C2175 1.433 1_565 S
C2168 H2164 0.929 . S
C2168 C2170 1.378 . S
C2168 C2172 1.350 . S
C2169 C2172 1.463 . S
C2169 C2174 1.350 1_545 S
C2169 N2177 1.427 . S
C2170 H2161 0.930 . S
C2170 C2168 1.378 . S
C2170 C2171 1.367 . S
C2171 C2170 1.367 . S
C2171 C2173 1.433 . S
C2172 C2168 1.350 . S
C2172 C2169 1.463 . S
C2172 N2176 1.427 . S
C2173 H2163 0.929 . S
C2173 C2171 1.433 . S
C2173 N2176 1.384 . S
C2174 H2165 0.929 . S
C2174 C2166 1.378 . S
C2174 C2169 1.350 1_565 S
C2175 H2162 0.929 . S
C2175 C2167 1.433 1_545 S
C2175 N2177 1.384 . S
N2176 C2172 1.427 . S
N2176 C2173 1.384 . S
N2177 C2169 1.427 . S
N2177 C2175 1.384 . S
H2178 C2184 0.930 . S
H2179 C2188 0.930 . S
H2180 C2193 0.929 . S
H2181 C2191 0.929 . S
H2182 C2186 0.929 . S
H2183 C2192 0.929 . S
C2184 H2178 0.930 . S
C2184 C2185 1.367 . S
C2184 C2192 1.378 . S
C2185 C2184 1.367 . S
C2185 C2193 1.433 . S
C2186 H2182 0.929 . S
C2186 C2188 1.378 . S
C2186 C2190 1.350 . S
C2187 C2190 1.463 . S
C2187 C2192 1.350 . S
C2187 N2195 1.427 . S
C2188 H2179 0.930 . S
C2188 C2186 1.378 . S
C2188 C2189 1.367 1_655 S
C2189 C2188 1.367 1_455 S
C2189 C2191 1.433 . S
C2190 C2186 1.350 . S
C2190 C2187 1.463 . S
C2190 N2194 1.427 . S
C2191 H2181 0.929 . S
C2191 C2189 1.433 . S
C2191 N2194 1.384 1_455 S
C2192 H2183 0.929 . S
C2192 C2184 1.378 . S
C2192 C2187 1.350 . S
C2193 H2180 0.929 . S
C2193 C2185 1.433 . S
C2193 N2195 1.384 . S
N2194 C2190 1.427 . S
N2194 C2191 1.384 1_655 S
N2195 C2187 1.427 . S
N2195 C2193 1.384 . S
H2196 C2202 0.930 . S
H2197 C2206 0.930 . S
H2198 C2211 0.929 . S
H2199 C2209 0.929 . S
H2200 C2204 0.929 . S
H2201 C2210 0.929 . S
C2202 H2196 0.930 . S
C2202 C2203 1.367 . S
C2202 C2210 1.378 . S
C2203 C2202 1.367 . S
C2203 C2211 1.433 . S
C2204 H2200 0.929 . S
C2204 C2206 1.378 . S
C2204 C2208 1.350 . S
C2205 C2208 1.463 . S
C2205 C2210 1.350 . S
C2205 N2213 1.427 . S
C2206 H2197 0.930 . S
C2206 C2204 1.378 . S
C2206 C2207 1.367 . S
C2207 C2206 1.367 . S
C2207 C2209 1.433 . S
C2208 C2204 1.350 . S
C2208 C2205 1.463 . S
C2208 N2212 1.427 . S
C2209 H2199 0.929 . S
C2209 C2207 1.433 . S
C2209 N2212 1.384 . S
C2210 H2201 0.929 . S
C2210 C2202 1.378 . S
C2210 C2205 1.350 . S
C2211 H2198 0.929 . S
C2211 C2203 1.433 . S
C2211 N2213 1.384 . S
N2212 C2208 1.427 . S
N2212 C2209 1.384 . S
N2213 C2205 1.427 . S
N2213 C2211 1.384 . S
H2214 C2220 0.930 . S
H2215 C2224 0.930 . S
H2216 C2229 0.929 . S
H2217 C2227 0.929 . S
H2218 C2222 0.929 . S
H2219 C2228 0.929 . S
C2220 H2214 0.930 . S
C2220 C2221 1.367 . S
C2220 C2228 1.378 . S
C2221 C2220 1.367 . S
C2221 C2229 1.433 . S
C2222 H2218 0.929 . S
C2222 C2224 1.378 . S
C2222 C2226 1.350 1_565 S
C2223 C2226 1.463 . S
C2223 C2228 1.350 . S
C2223 N2231 1.427 . S
C2224 H2215 0.930 . S
C2224 C2222 1.378 . S
C2224 C2225 1.367 . S
C2225 C2224 1.367 . S
C2225 C2227 1.433 1_565 S
C2226 C2222 1.350 1_545 S
C2226 C2223 1.463 . S
C2226 N2230 1.427 . S
C2227 H2217 0.929 . S
C2227 C2225 1.433 1_545 S
C2227 N2230 1.384 . S
C2228 H2219 0.929 . S
C2228 C2220 1.378 . S
C2228 C2223 1.350 . S
C2229 H2216 0.929 . S
C2229 C2221 1.433 . S
C2229 N2231 1.384 . S
N2230 C2226 1.427 . S
N2230 C2227 1.384 . S
N2231 C2223 1.427 . S
N2231 C2229 1.384 . S
H2232 C2238 0.930 . S
H2233 C2242 0.930 . S
H2234 C2247 0.929 . S
H2235 C2245 0.929 . S
H2236 C2240 0.930 . S
H2237 C2246 0.929 . S
C2238 H2232 0.930 . S
C2238 C2239 1.367 . S
C2238 C2246 1.378 . S
C2239 C2238 1.367 . S
C2239 C2247 1.433 . S
C2240 H2236 0.930 . S
C2240 C2242 1.378 1_655 S
C2240 C2244 1.350 . S
C2241 C2244 1.463 . S
C2241 C2246 1.350 . S
C2241 N2249 1.427 . S
C2242 H2233 0.930 . S
C2242 C2240 1.378 1_455 S
C2242 C2243 1.367 . S
C2243 C2242 1.367 . S
C2243 C2245 1.433 1_455 S
C2244 C2240 1.350 . S
C2244 C2241 1.463 . S
C2244 N2248 1.427 . S
C2245 H2235 0.929 . S
C2245 C2243 1.433 1_655 S
C2245 N2248 1.384 . S
C2246 H2237 0.929 . S
C2246 C2238 1.378 . S
C2246 C2241 1.350 . S
C2247 H2234 0.929 . S
C2247 C2239 1.433 . S
C2247 N2249 1.384 . S
N2248 C2244 1.427 . S
N2248 C2245 1.384 . S
N2249 C2241 1.427 . S
N2249 C2247 1.384 . S
H2250 C2256 0.930 . S
H2251 C2260 0.930 . S
H2252 C2265 0.929 . S
H2253 C2263 0.929 . S
H2254 C2258 0.929 . S
H2255 C2264 0.929 . S
C2256 H2250 0.930 . S
C2256 C2257 1.367 . S
C2256 C2264 1.378 . S
C2257 C2256 1.367 . S
C2257 C2265 1.433 . S
C2258 H2254 0.929 . S
C2258 C2260 1.378 . S
C2258 C2262 1.350 . S
C2259 C2262 1.463 . S
C2259 C2264 1.350 . S
C2259 N2267 1.427 . S
C2260 H2251 0.930 . S
C2260 C2258 1.378 . S
C2260 C2261 1.367 . S
C2261 C2260 1.367 . S
C2261 C2263 1.433 . S
C2262 C2258 1.350 . S
C2262 C2259 1.463 . S
C2262 N2266 1.427 . S
C2263 H2253 0.929 . S
C2263 C2261 1.433 . S
C2263 N2266 1.384 . S
C2264 H2255 0.929 . S
C2264 C2256 1.378 . S
C2264 C2259 1.350 . S
C2265 H2252 0.929 . S
C2265 C2257 1.433 . S
C2265 N2267 1.384 . S
N2266 C2262 1.427 . S
N2266 C2263 1.384 . S
N2267 C2259 1.427 . S
N2267 C2265 1.384 . S
H2268 C2274 0.930 . S
H2269 C2278 0.930 . S
H2270 C2283 0.929 . S
H2271 C2281 0.929 . S
H2272 C2276 0.929 . S
H2273 C2282 0.929 . S
C2274 H2268 0.930 . S
C2274 C2275 1.367 . S
C2274 C2282 1.378 . S
C2275 C2274 1.367 . S
C2275 C2283 1.433 1_545 S
C2276 H2272 0.929 . S
C2276 C2278 1.378 . S
C2276 C2280 1.350 . S
C2277 C2280 1.463 . S
C2277 C2282 1.350 1_565 S
C2277 N2285 1.427 . S
C2278 H2269 0.930 . S
C2278 C2276 1.378 . S
C2278 C2279 1.367 . S
C2279 C2278 1.367 . S
C2279 C2281 1.433 . S
C2280 C2276 1.350 . S
C2280 C2277 1.463 . S
C2280 N2284 1.427 . S
C2281 H2271 0.929 . S
C2281 C2279 1.433 . S
C2281 N2284 1.384 . S
C2282 H2273 0.929 . S
C2282 C2274 1.378 . S
C2282 C2277 1.350 1_545 S
C2283 H2270 0.929 . S
C2283 C2275 1.433 1_565 S
C2283 N2285 1.384 . S
N2284 C2280 1.427 . S
N2284 C2281 1.384 . S
N2285 C2277 1.427 . S
N2285 C2283 1.384 . S
H2286 C2292 0.930 . S
H2287 C2296 0.930 . S
H2288 C2301 0.929 1_655 S
H2289 C2299 0.929 . S
H2290 C2294 0.929 . S
H2291 C2300 0.929 . S
C2292 H2286 0.930 . S
C2292 C2293 1.367 . S
C2292 C2300 1.378 1_655 S
C2293 C2292 1.367 . S
C2293 C2301 1.433 1_655 S
C2294 H2290 0.929 . S
C2294 C2296 1.378 . S
C2294 C2298 1.350 . S
C2295 C2298 1.463 . S
C2295 C2300 1.350 . S
C2295 N2303 1.427 . S
C2296 H2287 0.930 . S
C2296 C2294 1.378 . S
C2296 C2297 1.367 . S
C2297 C2296 1.367 . S
C2297 C2299 1.433 . S
C2298 C2294 1.350 . S
C2298 C2295 1.463 . S
C2298 N2302 1.427 . S
C2299 H2289 0.929 . S
C2299 C2297 1.433 . S
C2299 N2302 1.384 . S
C2300 H2291 0.929 . S
C2300 C2292 1.378 1_455 S
C2300 C2295 1.350 . S
C2301 H2288 0.929 1_455 S
C2301 C2293 1.433 1_455 S
C2301 N2303 1.384 . S
N2302 C2298 1.427 . S
N2302 C2299 1.384 . S
N2303 C2295 1.427 . S
N2303 C2301 1.384 . S
H2304 C2310 0.930 . S
H2305 C2314 0.930 . S
H2306 C2319 0.929 . S
H2307 C2317 0.929 . S
H2308 C2312 0.929 . S
H2309 C2318 0.929 . S
C2310 H2304 0.930 . S
C2310 C2311 1.367 . S
C2310 C2318 1.378 . S
C2311 C2310 1.367 . S
C2311 C2319 1.433 . S
C2312 H2308 0.929 . S
C2312 C2314 1.378 . S
C2312 C2316 1.350 . S
C2313 C2316 1.463 . S
C2313 C2318 1.350 1_455 S
C2313 N2321 1.427 1_455 S
C2314 H2305 0.930 . S
C2314 C2312 1.378 . S
C2314 C2315 1.367 . S
C2315 C2314 1.367 . S
C2315 C2317 1.433 . S
C2316 C2312 1.350 . S
C2316 C2313 1.463 . S
C2316 N2320 1.427 . S
C2317 H2307 0.929 . S
C2317 C2315 1.433 . S
C2317 N2320 1.384 . S
C2318 H2309 0.929 . S
C2318 C2310 1.378 . S
C2318 C2313 1.350 1_655 S
C2319 H2306 0.929 . S
C2319 C2311 1.433 . S
C2319 N2321 1.384 . S
N2320 C2316 1.427 . S
N2320 C2317 1.384 . S
N2321 C2313 1.427 1_655 S
N2321 C2319 1.384 . S
H2322 C2328 0.930 . S
H2323 C2332 0.930 . S
H2324 C2337 0.929 . S
H2325 C2335 0.929 . S
H2326 C2330 0.929 . S
H2327 C2336 0.929 . S
C2328 H2322 0.930 . S
C2328 C2329 1.367 . S
C2328 C2336 1.378 . S
C2329 C2328 1.367 . S
C2329 C2337 1.433 . S
C2330 H2326 0.929 . S
C2330 C2332 1.378 . S
C2330 C2334 1.350 . S
C2331 C2334 1.463 . S
C2331 C2336 1.350 . S
C2331 N2339 1.427 . S
C2332 H2323 0.930 . S
C2332 C2330 1.378 . S
C2332 C2333 1.367 . S
C2333 C2332 1.367 . S
C2333 C2335 1.433 . S
C2334 C2330 1.350 . S
C2334 C2331 1.463 . S
C2334 N2338 1.427 . S
C2335 H2325 0.929 . S
C2335 C2333 1.433 . S
C2335 N2338 1.384 . S
C2336 H2327 0.929 . S
C2336 C2328 1.378 . S
C2336 C2331 1.350 . S
C2337 H2324 0.929 . S
C2337 C2329 1.433 . S
C2337 N2339 1.384 . S
N2338 C2334 1.427 . S
N2338 C2335 1.384 . S
N2339 C2331 1.427 . S
N2339 C2337 1.384 . S
H2340 C2346 0.930 . S
H2341 C2350 0.930 . S
H2342 C2355 0.929 . S
H2343 C2353 0.929 . S
H2344 C2348 0.929 . S
H2345 C2354 0.929 . S
C2346 H2340 0.930 . S
C2346 C2347 1.367 . S
C2346 C2354 1.378 . S
C2347 C2346 1.367 . S
C2347 C2355 1.433 . S
C2348 H2344 0.929 . S
C2348 C2350 1.378 . S
C2348 C2352 1.350 1_545 S
C2349 C2352 1.463 . S
C2349 C2354 1.350 . S
C2349 N2357 1.427 . S
C2350 H2341 0.930 . S
C2350 C2348 1.378 . S
C2350 C2351 1.367 . S
C2351 C2350 1.367 . S
C2351 C2353 1.433 . S
C2352 C2348 1.350 1_565 S
C2352 C2349 1.463 . S
C2352 N2356 1.427 1_565 S
C2353 H2343 0.929 . S
C2353 C2351 1.433 . S
C2353 N2356 1.384 . S
C2354 H2345 0.929 . S
C2354 C2346 1.378 . S
C2354 C2349 1.350 . S
C2355 H2342 0.929 . S
C2355 C2347 1.433 . S
C2355 N2357 1.384 . S
N2356 C2352 1.427 1_545 S
N2356 C2353 1.384 . S
N2357 C2349 1.427 . S
N2357 C2355 1.384 . S
H2358 C2364 0.930 . S
H2359 C2368 0.930 . S
H2360 C2373 0.929 . S
H2361 C2371 0.929 . S
H2362 C2366 0.929 . S
H2363 C2372 0.929 . S
C2364 H2358 0.930 . S
C2364 C2365 1.367 . S
C2364 C2372 1.378 . S
C2365 C2364 1.367 . S
C2365 C2373 1.433 . S
C2366 H2362 0.929 . S
C2366 C2368 1.378 . S
C2366 C2370 1.350 . S
C2367 C2370 1.463 . S
C2367 C2372 1.350 . S
C2367 N2375 1.427 . S
C2368 H2359 0.930 . S
C2368 C2366 1.378 . S
C2368 C2369 1.350 1_455 S
C2369 C2368 1.350 1_655 S
C2369 C2371 1.449 . S
C2370 C2366 1.350 . S
C2370 C2367 1.463 . S
C2370 N2374 1.427 . S
C2371 H2361 0.929 . S
C2371 C2369 1.449 . S
C2371 N2374 1.384 1_655 S
C2372 H2363 0.929 . S
C2372 C2364 1.378 . S
C2372 C2367 1.350 . S
C2373 H2360 0.929 . S
C2373 C2365 1.433 . S
C2373 N2375 1.384 . S
N2374 C2370 1.427 . S
N2374 C2371 1.384 1_455 S
N2375 C2367 1.427 . S
N2375 C2373 1.384 . S
H2376 C2382 0.930 . S
H2377 C2386 0.930 . S
H2378 C2391 0.929 . S
H2379 C2389 0.929 . S
H2380 C2384 0.929 . S
H2381 C2390 0.929 . S
C2382 H2376 0.930 . S
C2382 C2383 1.367 . S
C2382 C2390 1.378 . S
C2383 C2382 1.367 . S
C2383 C2391 1.433 . S
C2384 H2380 0.929 . S
C2384 C2386 1.378 . S
C2384 C2388 1.350 . S
C2385 C2388 1.463 . S
C2385 C2390 1.350 . S
C2385 N2393 1.427 . S
C2386 H2377 0.930 . S
C2386 C2384 1.378 . S
C2386 C2387 1.367 . S
C2387 C2386 1.367 . S
C2387 C2389 1.433 . S
C2388 C2384 1.350 . S
C2388 C2385 1.463 . S
C2388 N2392 1.427 . S
C2389 H2379 0.929 . S
C2389 C2387 1.433 . S
C2389 N2392 1.384 . S
C2390 H2381 0.929 . S
C2390 C2382 1.378 . S
C2390 C2385 1.350 . S
C2391 H2378 0.929 . S
C2391 C2383 1.433 . S
C2391 N2393 1.384 . S
N2392 C2388 1.427 . S
N2392 C2389 1.384 . S
N2393 C2385 1.427 . S
N2393 C2391 1.384 . S
H2394 C2400 0.930 . S
H2395 C2404 0.930 . S
H2396 C2409 0.929 . S
H2397 C2407 0.929 . S
H2398 C2402 0.929 . S
H2399 C2408 0.929 . S
C2400 H2394 0.930 . S
C2400 C2401 1.367 . S
C2400 C2408 1.378 . S
C2401 C2400 1.367 . S
C2401 C2409 1.433 . S
C2402 H2398 0.929 . S
C2402 C2404 1.378 . S
C2402 C2406 1.350 . S
C2403 C2406 1.463 . S
C2403 C2408 1.350 . S
C2403 N2411 1.427 . S
C2404 H2395 0.930 . S
C2404 C2402 1.378 . S
C2404 C2405 1.345 1_565 S
C2405 C2404 1.345 1_545 S
C2405 C2407 1.432 . S
C2406 C2402 1.350 . S
C2406 C2403 1.463 . S
C2406 N2410 1.427 . S
C2407 H2397 0.929 . S
C2407 C2405 1.432 . S
C2407 N2410 1.384 1_545 S
C2408 H2399 0.929 . S
C2408 C2400 1.378 . S
C2408 C2403 1.350 . S
C2409 H2396 0.929 . S
C2409 C2401 1.433 . S
C2409 N2411 1.384 . S
N2410 C2406 1.427 . S
N2410 C2407 1.384 1_565 S
N2411 C2403 1.427 . S
N2411 C2409 1.384 . S
H2412 C2418 0.930 . S
H2413 C2422 0.930 . S
H2414 C2427 0.929 . S
H2415 C2425 0.929 . S
H2416 C2420 0.929 . S
H2417 C2426 0.929 . S
C2418 H2412 0.930 . S
C2418 C2419 1.367 . S
C2418 C2426 1.378 . S
C2419 C2418 1.367 . S
C2419 C2427 1.433 . S
C2420 H2416 0.929 . S
C2420 C2422 1.378 . S
C2420 C2424 1.350 . S
C2421 C2424 1.463 . S
C2421 C2426 1.350 . S
C2421 N2429 1.427 . S
C2422 H2413 0.930 . S
C2422 C2420 1.378 . S
C2422 C2423 1.367 1_565 S
C2423 C2422 1.367 1_545 S
C2423 C2425 1.433 . S
C2424 C2420 1.350 . S
C2424 C2421 1.463 . S
C2424 N2428 1.427 . S
C2425 H2415 0.929 . S
C2425 C2423 1.433 . S
C2425 N2428 1.384 1_545 S
C2426 H2417 0.929 . S
C2426 C2418 1.378 . S
C2426 C2421 1.350 . S
C2427 H2414 0.929 . S
C2427 C2419 1.433 . S
C2427 N2429 1.384 . S
N2428 C2424 1.427 . S
N2428 C2425 1.384 1_565 S
N2429 C2421 1.427 . S
N2429 C2427 1.384 . S
H2430 C2436 0.930 . S
H2431 C2440 0.930 . S
H2432 C2445 0.929 . S
H2433 C2443 0.929 . S
H2434 C2438 0.929 . S
H2435 C2444 0.929 1_655 S
C2436 H2430 0.930 . S
C2436 C2437 1.367 . S
C2436 C2444 1.378 1_655 S
C2437 C2436 1.367 . S
C2437 C2445 1.433 1_655 S
C2438 H2434 0.929 . S
C2438 C2440 1.378 . S
C2438 C2442 1.350 . S
C2439 C2442 1.463 . S
C2439 C2444 1.350 . S
C2439 N2447 1.427 . S
C2440 H2431 0.930 . S
C2440 C2438 1.378 . S
C2440 C2441 1.367 . S
C2441 C2440 1.367 . S
C2441 C2443 1.433 . S
C2442 C2438 1.350 . S
C2442 C2439 1.463 . S
C2442 N2446 1.427 . S
C2443 H2433 0.929 . S
C2443 C2441 1.433 . S
C2443 N2446 1.384 . S
C2444 H2435 0.929 1_455 S
C2444 C2436 1.378 1_455 S
C2444 C2439 1.350 . S
C2445 H2432 0.929 . S
C2445 C2437 1.433 1_455 S
C2445 N2447 1.384 . S
N2446 C2442 1.427 . S
N2446 C2443 1.384 . S
N2447 C2439 1.427 . S
N2447 C2445 1.384 . S
H2448 C2454 0.930 . S
H2449 C2458 0.930 . S
H2450 C2463 0.929 . S
H2451 C2461 0.929 . S
H2452 C2456 0.929 . S
H2453 C2462 0.929 . S
C2454 H2448 0.930 . S
C2454 C2455 1.367 . S
C2454 C2462 1.378 . S
C2455 C2454 1.367 . S
C2455 C2463 1.433 . S
C2456 H2452 0.929 . S
C2456 C2458 1.378 . S
C2456 C2460 1.350 . S
C2457 C2460 1.463 . S
C2457 C2462 1.350 . S
C2457 N2465 1.427 . S
C2458 H2449 0.930 . S
C2458 C2456 1.378 . S
C2458 C2459 1.367 . S
C2459 C2458 1.367 . S
C2459 C2461 1.433 . S
C2460 C2456 1.350 . S
C2460 C2457 1.463 . S
C2460 N2464 1.427 . S
C2461 H2451 0.929 . S
C2461 C2459 1.433 . S
C2461 N2464 1.384 . S
C2462 H2453 0.929 . S
C2462 C2454 1.378 . S
C2462 C2457 1.350 . S
C2463 H2450 0.929 . S
C2463 C2455 1.433 . S
C2463 N2465 1.384 . S
N2464 C2460 1.427 . S
N2464 C2461 1.384 . S
N2465 C2457 1.427 . S
N2465 C2463 1.384 . S
H2466 C2472 0.930 . S
H2467 C2476 0.930 . S
H2468 C2481 0.929 . S
H2469 C2479 0.929 . S
H2470 C2474 0.929 . S
H2471 C2480 0.929 . S
C2472 H2466 0.930 . S
C2472 C2473 1.376 . S
C2472 C2480 1.378 . S
C2473 C2472 1.376 . S
C2473 C2481 1.422 1_554 S
C2474 H2470 0.929 . S
C2474 C2476 1.378 . S
C2474 C2478 1.350 . S
C2475 C2478 1.463 1_565 S
C2475 C2480 1.350 1_556 S
C2475 N2483 1.427 . S
C2476 H2467 0.930 . S
C2476 C2474 1.378 . S
C2476 C2477 1.367 . S
C2477 C2476 1.367 . S
C2477 C2479 1.433 1_556 S
C2478 C2474 1.350 . S
C2478 C2475 1.463 1_545 S
C2478 N2482 1.427 1_556 S
C2479 H2469 0.929 . S
C2479 C2477 1.433 1_554 S
C2479 N2482 1.384 . S
C2480 H2471 0.929 . S
C2480 C2472 1.378 . S
C2480 C2475 1.350 1_554 S
C2481 H2468 0.929 . S
C2481 C2473 1.422 1_556 S
C2481 N2483 1.384 . S
N2482 C2478 1.427 1_554 S
N2482 C2479 1.384 . S
N2483 C2475 1.427 . S
N2483 C2481 1.384 . S
H2484 C2490 0.930 . S
H2485 C2494 0.930 . S
H2486 C2499 0.929 . S
H2487 C2497 0.929 . S
H2488 C2492 0.929 . S
H2489 C2498 0.929 . S
C2490 H2484 0.930 . S
C2490 C2491 1.384 . S
C2490 C2498 1.378 . S
C2491 C2490 1.384 . S
C2491 C2499 1.414 1_554 S
C2492 H2488 0.929 . S
C2492 C2494 1.378 . S
C2492 C2496 1.350 . S
C2493 C2496 1.463 1_455 S
C2493 C2498 1.350 1_556 S
C2493 N2501 1.427 . S
C2494 H2485 0.930 . S
C2494 C2492 1.378 . S
C2494 C2495 1.367 . S
C2495 C2494 1.367 . S
C2495 C2497 1.433 1_556 S
C2496 C2492 1.350 . S
C2496 C2493 1.463 1_655 S
C2496 N2500 1.427 1_556 S
C2497 H2487 0.929 . S
C2497 C2495 1.433 1_554 S
C2497 N2500 1.384 . S
C2498 H2489 0.929 . S
C2498 C2490 1.378 . S
C2498 C2493 1.350 1_554 S
C2499 H2486 0.929 . S
C2499 C2491 1.414 1_556 S
C2499 N2501 1.384 . S
N2500 C2496 1.427 1_554 S
N2500 C2497 1.384 . S
N2501 C2493 1.427 . S
N2501 C2499 1.384 . S
H2502 C2508 0.930 . S
H2503 C2512 0.930 . S
H2504 C2517 0.929 . S
H2505 C2515 0.929 . S
H2506 C2510 0.929 . S
H2507 C2516 0.929 . S
C2508 H2502 0.930 . S
C2508 C2509 1.367 . S
C2508 C2516 1.378 . S
C2509 C2508 1.367 . S
C2509 C2517 1.433 1_556 S
C2510 H2506 0.929 . S
C2510 C2512 1.378 . S
C2510 C2514 1.350 1_554 S
C2511 C2514 1.463 . S
C2511 C2516 1.350 . S
C2511 N2519 1.427 1_556 S
C2512 H2503 0.930 . S
C2512 C2510 1.378 . S
C2512 C2513 1.360 . S
C2513 C2512 1.360 . S
C2513 C2515 1.441 1_554 S
C2514 C2510 1.350 1_556 S
C2514 C2511 1.463 . S
C2514 N2518 1.427 . S
C2515 H2505 0.929 . S
C2515 C2513 1.441 1_556 S
C2515 N2518 1.384 . S
C2516 H2507 0.929 . S
C2516 C2508 1.378 . S
C2516 C2511 1.350 . S
C2517 H2504 0.929 . S
C2517 C2509 1.433 1_554 S
C2517 N2519 1.384 . S
N2518 C2514 1.427 . S
N2518 C2515 1.384 . S
N2519 C2511 1.427 1_554 S
N2519 C2517 1.384 . S
H2520 C2526 0.930 . S
H2521 C2530 0.930 . S
H2522 C2535 0.929 . S
H2523 C2533 0.929 . S
H2524 C2528 0.929 . S
H2525 C2534 0.929 . S
C2526 H2520 0.930 . S
C2526 C2527 1.367 . S
C2526 C2534 1.378 . S
C2527 C2526 1.367 . S
C2527 C2535 1.433 . S
C2528 H2524 0.929 . S
C2528 C2530 1.378 1_545 S
C2528 C2532 1.350 . S
C2529 C2532 1.463 . S
C2529 C2534 1.350 . S
C2529 N2537 1.427 . S
C2530 H2521 0.930 . S
C2530 C2528 1.378 1_565 S
C2530 C2531 1.367 . S
C2531 C2530 1.367 . S
C2531 C2533 1.433 1_565 S
C2532 C2528 1.350 . S
C2532 C2529 1.463 . S
C2532 N2536 1.427 . S
C2533 H2523 0.929 . S
C2533 C2531 1.433 1_545 S
C2533 N2536 1.384 . S
C2534 H2525 0.929 . S
C2534 C2526 1.378 . S
C2534 C2529 1.350 . S
C2535 H2522 0.929 . S
C2535 C2527 1.433 . S
C2535 N2537 1.384 . S
N2536 C2532 1.427 . S
N2536 C2533 1.384 . S
N2537 C2529 1.427 . S
N2537 C2535 1.384 . S
H2538 C2544 0.930 . S
H2539 C2548 0.930 1_455 S
H2540 C2553 0.929 . S
H2541 C2551 0.929 . S
H2542 C2546 0.929 . S
H2543 C2552 0.929 . S
C2544 H2538 0.930 . S
C2544 C2545 1.367 . S
C2544 C2552 1.378 . S
C2545 C2544 1.367 . S
C2545 C2553 1.433 . S
C2546 H2542 0.929 . S
C2546 C2548 1.378 . S
C2546 C2550 1.350 . S
C2547 C2550 1.463 . S
C2547 C2552 1.350 . S
C2547 N2555 1.427 . S
C2548 H2539 0.930 1_655 S
C2548 C2546 1.378 . S
C2548 C2549 1.367 1_655 S
C2549 C2548 1.367 1_455 S
C2549 C2551 1.433 1_455 S
C2550 C2546 1.350 . S
C2550 C2547 1.463 . S
C2550 N2554 1.427 . S
C2551 H2541 0.929 . S
C2551 C2549 1.433 1_655 S
C2551 N2554 1.384 . S
C2552 H2543 0.929 . S
C2552 C2544 1.378 . S
C2552 C2547 1.350 . S
C2553 H2540 0.929 . S
C2553 C2545 1.433 . S
C2553 N2555 1.384 . S
N2554 C2550 1.427 . S
N2554 C2551 1.384 . S
N2555 C2547 1.427 . S
N2555 C2553 1.384 . S
H2556 C2562 0.930 . S
H2557 C2566 0.930 . S
H2558 C2571 0.929 . S
H2559 C2569 0.929 . S
H2560 C2564 0.929 . S
H2561 C2570 0.929 . S
C2562 H2556 0.930 . S
C2562 C2563 1.367 . S
C2562 C2570 1.378 . S
C2563 C2562 1.367 . S
C2563 C2571 1.433 . S
C2564 H2560 0.929 . S
C2564 C2566 1.378 . S
C2564 C2568 1.350 . S
C2565 C2568 1.463 . S
C2565 C2570 1.350 . S
C2565 N2573 1.427 . S
C2566 H2557 0.930 . S
C2566 C2564 1.378 . S
C2566 C2567 1.367 . S
C2567 C2566 1.367 . S
C2567 C2569 1.433 . S
C2568 C2564 1.350 . S
C2568 C2565 1.463 . S
C2568 N2572 1.427 . S
C2569 H2559 0.929 . S
C2569 C2567 1.433 . S
C2569 N2572 1.384 . S
C2570 H2561 0.929 . S
C2570 C2562 1.378 . S
C2570 C2565 1.350 . S
C2571 H2558 0.929 . S
C2571 C2563 1.433 . S
C2571 N2573 1.384 . S
N2572 C2568 1.427 . S
N2572 C2569 1.384 . S
N2573 C2565 1.427 . S
N2573 C2571 1.384 . S
H2574 C2580 0.930 . S
H2575 C2584 0.930 . S
H2576 C2589 0.929 . S
H2577 C2587 0.929 . S
H2578 C2582 0.929 . S
H2579 C2588 0.929 . S
C2580 H2574 0.930 . S
C2580 C2581 1.367 1_556 S
C2580 C2588 1.378 . S
C2581 C2580 1.367 1_554 S
C2581 C2589 1.433 . S
C2582 H2578 0.929 . S
C2582 C2584 1.378 . S
C2582 C2586 1.350 . S
C2583 C2586 1.463 1_565 S
C2583 C2588 1.350 1_554 S
C2583 N2591 1.427 . S
C2584 H2575 0.930 . S
C2584 C2582 1.378 . S
C2584 C2585 1.394 . S
C2585 C2584 1.394 . S
C2585 C2587 1.408 1_554 S
C2586 C2582 1.350 . S
C2586 C2583 1.463 1_545 S
C2586 N2590 1.427 1_554 S
C2587 H2577 0.929 . S
C2587 C2585 1.408 1_556 S
C2587 N2590 1.384 . S
C2588 H2579 0.929 . S
C2588 C2580 1.378 . S
C2588 C2583 1.350 1_556 S
C2589 H2576 0.929 . S
C2589 C2581 1.433 . S
C2589 N2591 1.384 . S
N2590 C2586 1.427 1_556 S
N2590 C2587 1.384 . S
N2591 C2583 1.427 . S
N2591 C2589 1.384 . S
H2592 C2598 0.930 . S
H2593 C2602 0.930 . S
H2594 C2607 0.929 . S
H2595 C2605 0.918 1_556 S
H2596 C2600 0.929 . S
H2597 C2606 0.929 . S
C2598 H2592 0.930 . S
C2598 C2599 1.368 . S
C2598 C2606 1.378 . S
C2599 C2598 1.368 . S
C2599 C2607 1.431 1_556 S
C2600 H2596 0.929 . S
C2600 C2602 1.378 . S
C2600 C2604 1.350 . S
C2601 C2604 1.463 1_655 S
C2601 C2606 1.350 1_554 S
C2601 N2609 1.427 . S
C2602 H2593 0.930 . S
C2602 C2600 1.378 . S
C2602 C2603 1.367 . S
C2603 C2602 1.367 . S
C2603 C2605 1.450 . S
C2604 C2600 1.350 . S
C2604 C2601 1.463 1_455 S
C2604 N2608 1.422 1_554 S
C2605 H2595 0.918 1_554 S
C2605 C2603 1.450 . S
C2605 N2608 1.380 1_554 S
C2606 H2597 0.929 . S
C2606 C2598 1.378 . S
C2606 C2601 1.350 1_556 S
C2607 H2594 0.929 . S
C2607 C2599 1.431 1_554 S
C2607 N2609 1.384 . S
N2608 C2604 1.422 1_556 S
N2608 C2605 1.380 1_556 S
N2609 C2601 1.427 . S
N2609 C2607 1.384 . S
H2610 C2616 0.930 . S
H2611 C2620 0.958 . S
H2612 C2625 0.929 . S
H2613 C2623 0.929 . S
H2614 C2618 0.923 . S
H2615 C2624 0.929 . S
C2616 H2610 0.930 . S
C2616 C2617 1.367 . S
C2616 C2624 1.378 . S
C2617 C2616 1.367 . S
C2617 C2625 1.433 . S
C2618 H2614 0.923 . S
C2618 C2620 1.374 . S
C2618 C2622 1.349 1_556 S
C2619 C2622 1.463 . S
C2619 C2624 1.350 . S
C2619 N2627 1.427 . S
C2620 H2611 0.958 . S
C2620 C2618 1.374 . S
C2620 C2621 1.359 1_556 S
C2621 C2620 1.359 1_554 S
C2621 C2623 1.433 . S
C2622 C2618 1.349 1_554 S
C2622 C2619 1.463 . S
C2622 N2626 1.427 . S
C2623 H2613 0.929 . S
C2623 C2621 1.433 . S
C2623 N2626 1.384 . S
C2624 H2615 0.929 . S
C2624 C2616 1.378 . S
C2624 C2619 1.350 . S
C2625 H2612 0.929 . S
C2625 C2617 1.433 . S
C2625 N2627 1.384 . S
N2626 C2622 1.427 . S
N2626 C2623 1.384 . S
N2627 C2619 1.427 . S
N2627 C2625 1.384 . S
H2628 C2634 0.930 . S
H2629 C2638 0.930 . S
H2630 C2643 0.929 . S
H2631 C2641 0.929 . S
H2632 C2636 0.929 . S
H2633 C2642 0.929 1_655 S
C2634 H2628 0.930 . S
C2634 C2635 1.367 . S
C2634 C2642 1.378 . S
C2635 C2634 1.367 . S
C2635 C2643 1.433 . S
C2636 H2632 0.929 . S
C2636 C2638 1.378 . S
C2636 C2640 1.350 . S
C2637 C2640 1.463 . S
C2637 C2642 1.350 1_655 S
C2637 N2645 1.427 1_655 S
C2638 H2629 0.930 . S
C2638 C2636 1.378 . S
C2638 C2639 1.367 . S
C2639 C2638 1.367 . S
C2639 C2641 1.433 . S
C2640 C2636 1.350 . S
C2640 C2637 1.463 . S
C2640 N2644 1.427 . S
C2641 H2631 0.929 . S
C2641 C2639 1.433 . S
C2641 N2644 1.384 . S
C2642 H2633 0.929 1_455 S
C2642 C2634 1.378 . S
C2642 C2637 1.350 1_455 S
C2643 H2630 0.929 . S
C2643 C2635 1.433 . S
C2643 N2645 1.384 . S
N2644 C2640 1.427 . S
N2644 C2641 1.384 . S
N2645 C2637 1.427 1_455 S
N2645 C2643 1.384 . S
H2646 C2652 0.930 . S
H2647 C2656 0.930 . S
H2648 C2661 0.929 . S
H2649 C2659 0.929 . S
H2650 C2654 0.929 . S
H2651 C2660 0.929 . S
C2652 H2646 0.930 . S
C2652 C2653 1.367 . S
C2652 C2660 1.378 . S
C2653 C2652 1.367 . S
C2653 C2661 1.433 . S
C2654 H2650 0.929 . S
C2654 C2656 1.378 . S
C2654 C2658 1.350 . S
C2655 C2658 1.463 . S
C2655 C2660 1.350 . S
C2655 N2663 1.427 . S
C2656 H2647 0.930 . S
C2656 C2654 1.378 . S
C2656 C2657 1.367 . S
C2657 C2656 1.367 . S
C2657 C2659 1.433 . S
C2658 C2654 1.350 . S
C2658 C2655 1.463 . S
C2658 N2662 1.427 . S
C2659 H2649 0.929 . S
C2659 C2657 1.433 . S
C2659 N2662 1.384 . S
C2660 H2651 0.929 . S
C2660 C2652 1.378 . S
C2660 C2655 1.350 . S
C2661 H2648 0.929 . S
C2661 C2653 1.433 . S
C2661 N2663 1.384 . S
N2662 C2658 1.427 . S
N2662 C2659 1.384 . S
N2663 C2655 1.427 . S
N2663 C2661 1.384 . S
H2664 C2670 0.930 . S
H2665 C2674 0.930 . S
H2666 C2679 0.929 . S
H2667 C2677 0.929 . S
H2668 C2672 0.929 . S
H2669 C2678 0.929 . S
C2670 H2664 0.930 . S
C2670 C2671 1.367 . S
C2670 C2678 1.378 . S
C2671 C2670 1.367 . S
C2671 C2679 1.433 . S
C2672 H2668 0.929 . S
C2672 C2674 1.378 . S
C2672 C2676 1.350 . S
C2673 C2676 1.463 . S
C2673 C2678 1.350 1_545 S
C2673 N2681 1.427 1_545 S
C2674 H2665 0.930 . S
C2674 C2672 1.378 . S
C2674 C2675 1.367 . S
C2675 C2674 1.367 . S
C2675 C2677 1.433 . S
C2676 C2672 1.350 . S
C2676 C2673 1.463 . S
C2676 N2680 1.427 . S
C2677 H2667 0.929 . S
C2677 C2675 1.433 . S
C2677 N2680 1.384 . S
C2678 H2669 0.929 . S
C2678 C2670 1.378 . S
C2678 C2673 1.350 1_565 S
C2679 H2666 0.929 . S
C2679 C2671 1.433 . S
C2679 N2681 1.384 . S
N2680 C2676 1.427 . S
N2680 C2677 1.384 . S
N2681 C2673 1.427 1_565 S
N2681 C2679 1.384 . S
H2682 C2688 0.930 . S
H2683 C2692 0.930 . S
H2684 C2697 0.929 . S
H2685 C2695 0.929 . S
H2686 C2690 0.929 . S
H2687 C2696 0.929 . S
C2688 H2682 0.930 . S
C2688 C2689 1.367 . S
C2688 C2696 1.378 1_455 S
C2689 C2688 1.367 . S
C2689 C2697 1.433 1_455 S
C2690 H2686 0.929 . S
C2690 C2692 1.378 . S
C2690 C2694 1.350 . S
C2691 C2694 1.463 . S
C2691 C2696 1.350 . S
C2691 N2699 1.427 . S
C2692 H2683 0.930 . S
C2692 C2690 1.378 . S
C2692 C2693 1.367 . S
C2693 C2692 1.367 . S
C2693 C2695 1.433 . S
C2694 C2690 1.350 . S
C2694 C2691 1.463 . S
C2694 N2698 1.427 . S
C2695 H2685 0.929 . S
C2695 C2693 1.433 . S
C2695 N2698 1.384 . S
C2696 H2687 0.929 . S
C2696 C2688 1.378 1_655 S
C2696 C2691 1.350 . S
C2697 H2684 0.929 . S
C2697 C2689 1.433 1_655 S
C2697 N2699 1.384 . S
N2698 C2694 1.427 . S
N2698 C2695 1.384 . S
N2699 C2691 1.427 . S
N2699 C2697 1.384 . S
H2700 C2706 0.930 . S
H2701 C2710 0.930 . S
H2702 C2715 0.929 . S
H2703 C2713 0.929 . S
H2704 C2708 0.929 . S
H2705 C2714 0.929 . S
C2706 H2700 0.930 . S
C2706 C2707 1.367 . S
C2706 C2714 1.378 . S
C2707 C2706 1.367 . S
C2707 C2715 1.433 . S
C2708 H2704 0.929 . S
C2708 C2710 1.378 . S
C2708 C2712 1.350 . S
C2709 C2712 1.463 . S
C2709 C2714 1.350 . S
C2709 N2717 1.427 . S
C2710 H2701 0.930 . S
C2710 C2708 1.378 . S
C2710 C2711 1.367 . S
C2711 C2710 1.367 . S
C2711 C2713 1.433 . S
C2712 C2708 1.350 . S
C2712 C2709 1.463 . S
C2712 N2716 1.427 . S
C2713 H2703 0.929 . S
C2713 C2711 1.433 . S
C2713 N2716 1.384 . S
C2714 H2705 0.929 . S
C2714 C2706 1.378 . S
C2714 C2709 1.350 . S
C2715 H2702 0.929 . S
C2715 C2707 1.433 . S
C2715 N2717 1.384 . S
N2716 C2712 1.427 . S
N2716 C2713 1.384 . S
N2717 C2709 1.427 . S
N2717 C2715 1.384 . S
H2718 C2724 0.930 . S
H2719 C2728 0.930 . S
H2720 C2733 0.929 . S
H2721 C2731 0.929 . S
H2722 C2726 0.929 . S
H2723 C2732 0.929 . S
C2724 H2718 0.930 . S
C2724 C2725 1.367 . S
C2724 C2732 1.378 . S
C2725 C2724 1.367 . S
C2725 C2733 1.433 . S
C2726 H2722 0.929 . S
C2726 C2728 1.378 . S
C2726 C2730 1.350 . S
C2727 C2730 1.463 . S
C2727 C2732 1.350 . S
C2727 N2735 1.427 . S
C2728 H2719 0.930 . S
C2728 C2726 1.378 . S
C2728 C2729 1.343 1_545 S
C2729 C2728 1.343 1_565 S
C2729 C2731 1.427 . S
C2730 C2726 1.350 . S
C2730 C2727 1.463 . S
C2730 N2734 1.427 . S
C2731 H2721 0.929 . S
C2731 C2729 1.427 . S
C2731 N2734 1.384 1_565 S
C2732 H2723 0.929 . S
C2732 C2724 1.378 . S
C2732 C2727 1.350 . S
C2733 H2720 0.929 . S
C2733 C2725 1.433 . S
C2733 N2735 1.384 . S
N2734 C2730 1.427 . S
N2734 C2731 1.384 1_545 S
N2735 C2727 1.427 . S
N2735 C2733 1.384 . S
H2736 C2742 0.930 . S
H2737 C2746 0.930 . S
H2738 C2751 0.929 . S
H2739 C2749 0.929 . S
H2740 C2744 0.929 . S
H2741 C2750 0.929 . S
C2742 H2736 0.930 . S
C2742 C2743 1.367 . S
C2742 C2750 1.378 . S
C2743 C2742 1.367 . S
C2743 C2751 1.433 . S
C2744 H2740 0.929 . S
C2744 C2746 1.378 . S
C2744 C2748 1.350 . S
C2745 C2748 1.463 . S
C2745 C2750 1.350 . S
C2745 N2753 1.427 . S
C2746 H2737 0.930 . S
C2746 C2744 1.378 . S
C2746 C2747 1.367 . S
C2747 C2746 1.367 . S
C2747 C2749 1.433 . S
C2748 C2744 1.350 . S
C2748 C2745 1.463 . S
C2748 N2752 1.427 . S
C2749 H2739 0.929 . S
C2749 C2747 1.433 . S
C2749 N2752 1.384 . S
C2750 H2741 0.929 . S
C2750 C2742 1.378 . S
C2750 C2745 1.350 . S
C2751 H2738 0.929 . S
C2751 C2743 1.433 . S
C2751 N2753 1.384 . S
N2752 C2748 1.427 . S
N2752 C2749 1.384 . S
N2753 C2745 1.427 . S
N2753 C2751 1.384 . S
H2754 C2760 0.930 . S
H2755 C2764 0.930 . S
H2756 C2769 0.929 . S
H2757 C2767 0.929 . S
H2758 C2762 0.929 . S
H2759 C2768 0.929 . S
C2760 H2754 0.930 . S
C2760 C2761 1.367 . S
C2760 C2768 1.378 . S
C2761 C2760 1.367 . S
C2761 C2769 1.433 . S
C2762 H2758 0.929 . S
C2762 C2764 1.378 . S
C2762 C2766 1.350 . S
C2763 C2766 1.463 . S
C2763 C2768 1.350 . S
C2763 N2771 1.427 . S
C2764 H2755 0.930 . S
C2764 C2762 1.378 . S
C2764 C2765 1.367 . S
C2765 C2764 1.367 . S
C2765 C2767 1.433 . S
C2766 C2762 1.350 . S
C2766 C2763 1.463 . S
C2766 N2770 1.427 . S
C2767 H2757 0.929 . S
C2767 C2765 1.433 . S
C2767 N2770 1.384 . S
C2768 H2759 0.929 . S
C2768 C2760 1.378 . S
C2768 C2763 1.350 . S
C2769 H2756 0.929 . S
C2769 C2761 1.433 . S
C2769 N2771 1.384 . S
N2770 C2766 1.427 . S
N2770 C2767 1.384 . S
N2771 C2763 1.427 . S
N2771 C2769 1.384 . S
H2772 C2778 0.930 . S
H2773 C2782 0.930 . S
H2774 C2787 0.929 . S
H2775 C2785 0.929 . S
H2776 C2780 0.929 . S
H2777 C2786 0.929 . S
C2778 H2772 0.930 . S
C2778 C2779 1.367 . S
C2778 C2786 1.378 . S
C2779 C2778 1.367 . S
C2779 C2787 1.433 . S
C2780 H2776 0.929 . S
C2780 C2782 1.378 . S
C2780 C2784 1.350 . S
C2781 C2784 1.463 . S
C2781 C2786 1.350 . S
C2781 N2789 1.427 . S
C2782 H2773 0.930 . S
C2782 C2780 1.378 . S
C2782 C2783 1.367 . S
C2783 C2782 1.367 . S
C2783 C2785 1.433 . S
C2784 C2780 1.350 . S
C2784 C2781 1.463 . S
C2784 N2788 1.427 . S
C2785 H2775 0.929 . S
C2785 C2783 1.433 . S
C2785 N2788 1.384 . S
C2786 H2777 0.929 . S
C2786 C2778 1.378 . S
C2786 C2781 1.350 . S
C2787 H2774 0.929 . S
C2787 C2779 1.433 . S
C2787 N2789 1.384 . S
N2788 C2784 1.427 . S
N2788 C2785 1.384 . S
N2789 C2781 1.427 . S
N2789 C2787 1.384 . S
H2790 C2796 0.930 . S
H2791 C2800 0.930 . S
H2792 C2805 0.929 . S
H2793 C2803 0.929 . S
H2794 C2798 0.929 . S
H2795 C2804 0.929 . S
C2796 H2790 0.930 . S
C2796 C2797 1.367 . S
C2796 C2804 1.378 . S
C2797 C2796 1.367 . S
C2797 C2805 1.433 . S
C2798 H2794 0.929 . S
C2798 C2800 1.378 . S
C2798 C2802 1.350 . S
C2799 C2802 1.463 . S
C2799 C2804 1.350 . S
C2799 N2807 1.427 . S
C2800 H2791 0.930 . S
C2800 C2798 1.378 . S
C2800 C2801 1.367 . S
C2801 C2800 1.367 . S
C2801 C2803 1.433 . S
C2802 C2798 1.350 . S
C2802 C2799 1.463 . S
C2802 N2806 1.427 . S
C2803 H2793 0.929 . S
C2803 C2801 1.433 . S
C2803 N2806 1.384 . S
C2804 H2795 0.929 . S
C2804 C2796 1.378 . S
C2804 C2799 1.350 . S
C2805 H2792 0.929 . S
C2805 C2797 1.433 . S
C2805 N2807 1.384 . S
N2806 C2802 1.427 . S
N2806 C2803 1.384 . S
N2807 C2799 1.427 . S
N2807 C2805 1.384 . S
H2808 C2814 0.930 . S
H2809 C2818 0.930 . S
H2810 C2823 0.929 . S
H2811 C2821 0.929 . S
H2812 C2816 0.929 . S
H2813 C2822 0.929 . S
C2814 H2808 0.930 . S
C2814 C2815 1.367 . S
C2814 C2822 1.378 . S
C2815 C2814 1.367 . S
C2815 C2823 1.433 . S
C2816 H2812 0.929 . S
C2816 C2818 1.378 . S
C2816 C2820 1.350 . S
C2817 C2820 1.463 . S
C2817 C2822 1.350 . S
C2817 N2825 1.427 . S
C2818 H2809 0.930 . S
C2818 C2816 1.378 . S
C2818 C2819 1.367 . S
C2819 C2818 1.367 . S
C2819 C2821 1.433 . S
C2820 C2816 1.350 . S
C2820 C2817 1.463 . S
C2820 N2824 1.427 . S
C2821 H2811 0.929 . S
C2821 C2819 1.433 . S
C2821 N2824 1.384 . S
C2822 H2813 0.929 . S
C2822 C2814 1.378 . S
C2822 C2817 1.350 . S
C2823 H2810 0.929 . S
C2823 C2815 1.433 . S
C2823 N2825 1.384 . S
N2824 C2820 1.427 . S
N2824 C2821 1.384 . S
N2825 C2817 1.427 . S
N2825 C2823 1.384 . S
H2826 C2832 0.930 . S
H2827 C2836 0.930 . S
H2828 C2841 0.929 . S
H2829 C2839 0.929 . S
H2830 C2834 0.929 . S
H2831 C2840 0.929 . S
C2832 H2826 0.930 . S
C2832 C2833 1.367 . S
C2832 C2840 1.378 . S
C2833 C2832 1.367 . S
C2833 C2841 1.433 . S
C2834 H2830 0.929 . S
C2834 C2836 1.378 . S
C2834 C2838 1.350 . S
C2835 C2838 1.463 . S
C2835 C2840 1.350 . S
C2835 N2843 1.427 . S
C2836 H2827 0.930 . S
C2836 C2834 1.378 . S
C2836 C2837 1.367 . S
C2837 C2836 1.367 . S
C2837 C2839 1.433 . S
C2838 C2834 1.350 . S
C2838 C2835 1.463 . S
C2838 N2842 1.427 . S
C2839 H2829 0.929 . S
C2839 C2837 1.433 . S
C2839 N2842 1.384 . S
C2840 H2831 0.929 . S
C2840 C2832 1.378 . S
C2840 C2835 1.350 . S
C2841 H2828 0.929 . S
C2841 C2833 1.433 . S
C2841 N2843 1.384 . S
N2842 C2838 1.427 . S
N2842 C2839 1.384 . S
N2843 C2835 1.427 . S
N2843 C2841 1.384 . S
H2844 C2850 0.930 . S
H2845 C2854 0.930 . S
H2846 C2859 0.929 . S
H2847 C2857 0.929 . S
H2848 C2852 0.929 . S
H2849 C2858 0.929 . S
C2850 H2844 0.930 . S
C2850 C2851 1.367 . S
C2850 C2858 1.378 . S
C2851 C2850 1.367 . S
C2851 C2859 1.433 . S
C2852 H2848 0.929 . S
C2852 C2854 1.378 . S
C2852 C2856 1.350 . S
C2853 C2856 1.463 . S
C2853 C2858 1.350 . S
C2853 N2861 1.427 . S
C2854 H2845 0.930 . S
C2854 C2852 1.378 . S
C2854 C2855 1.367 . S
C2855 C2854 1.367 . S
C2855 C2857 1.433 . S
C2856 C2852 1.350 . S
C2856 C2853 1.463 . S
C2856 N2860 1.427 . S
C2857 H2847 0.929 . S
C2857 C2855 1.433 . S
C2857 N2860 1.384 . S
C2858 H2849 0.929 . S
C2858 C2850 1.378 . S
C2858 C2853 1.350 . S
C2859 H2846 0.929 . S
C2859 C2851 1.433 . S
C2859 N2861 1.384 . S
N2860 C2856 1.427 . S
N2860 C2857 1.384 . S
N2861 C2853 1.427 . S
N2861 C2859 1.384 . S
H2862 C2868 0.930 . S
H2863 C2872 0.930 . S
H2864 C2877 0.929 . S
H2865 C2875 0.929 . S
H2866 C2870 0.929 . S
H2867 C2876 0.929 . S
C2868 H2862 0.930 . S
C2868 C2869 1.367 . S
C2868 C2876 1.378 . S
C2869 C2868 1.367 . S
C2869 C2877 1.433 . S
C2870 H2866 0.929 . S
C2870 C2872 1.378 . S
C2870 C2874 1.350 . S
C2871 C2874 1.463 . S
C2871 C2876 1.350 . S
C2871 N2879 1.427 . S
C2872 H2863 0.930 . S
C2872 C2870 1.378 . S
C2872 C2873 1.367 . S
C2873 C2872 1.367 . S
C2873 C2875 1.433 . S
C2874 C2870 1.350 . S
C2874 C2871 1.463 . S
C2874 N2878 1.427 . S
C2875 H2865 0.929 . S
C2875 C2873 1.433 . S
C2875 N2878 1.384 . S
C2876 H2867 0.929 . S
C2876 C2868 1.378 . S
C2876 C2871 1.350 . S
C2877 H2864 0.929 . S
C2877 C2869 1.433 . S
C2877 N2879 1.384 . S
N2878 C2874 1.427 . S
N2878 C2875 1.384 . S
N2879 C2871 1.427 . S
N2879 C2877 1.384 . S
H2880 C2886 0.930 . S
H2881 C2890 0.930 . S
H2882 C2895 0.929 . S
H2883 C2893 0.929 . S
H2884 C2888 0.929 . S
H2885 C2894 0.929 . S
C2886 H2880 0.930 . S
C2886 C2887 1.367 . S
C2886 C2894 1.378 . S
C2887 C2886 1.367 . S
C2887 C2895 1.433 . S
C2888 H2884 0.929 . S
C2888 C2890 1.378 . S
C2888 C2892 1.350 . S
C2889 C2892 1.463 . S
C2889 C2894 1.350 . S
C2889 N2897 1.427 . S
C2890 H2881 0.930 . S
C2890 C2888 1.378 . S
C2890 C2891 1.367 . S
C2891 C2890 1.367 . S
C2891 C2893 1.433 . S
C2892 C2888 1.350 . S
C2892 C2889 1.463 . S
C2892 N2896 1.427 . S
C2893 H2883 0.929 . S
C2893 C2891 1.433 . S
C2893 N2896 1.384 . S
C2894 H2885 0.929 . S
C2894 C2886 1.378 . S
C2894 C2889 1.350 . S
C2895 H2882 0.929 . S
C2895 C2887 1.433 . S
C2895 N2897 1.384 . S
N2896 C2892 1.427 . S
N2896 C2893 1.384 . S
N2897 C2889 1.427 . S
N2897 C2895 1.384 . S
H2898 C2904 0.930 . S
H2899 C2908 0.930 . S
H2900 C2913 0.929 . S
H2901 C2911 0.929 . S
H2902 C2906 0.929 . S
H2903 C2912 0.929 . S
C2904 H2898 0.930 . S
C2904 C2905 1.367 . S
C2904 C2912 1.378 . S
C2905 C2904 1.367 . S
C2905 C2913 1.433 . S
C2906 H2902 0.929 . S
C2906 C2908 1.378 . S
C2906 C2910 1.350 . S
C2907 C2910 1.463 . S
C2907 C2912 1.350 . S
C2907 N2915 1.427 . S
C2908 H2899 0.930 . S
C2908 C2906 1.378 . S
C2908 C2909 1.367 . S
C2909 C2908 1.367 . S
C2909 C2911 1.433 . S
C2910 C2906 1.350 . S
C2910 C2907 1.463 . S
C2910 N2914 1.427 . S
C2911 H2901 0.929 . S
C2911 C2909 1.433 . S
C2911 N2914 1.384 . S
C2912 H2903 0.929 . S
C2912 C2904 1.378 . S
C2912 C2907 1.350 . S
C2913 H2900 0.929 . S
C2913 C2905 1.433 . S
C2913 N2915 1.384 . S
N2914 C2910 1.427 . S
N2914 C2911 1.384 . S
N2915 C2907 1.427 . S
N2915 C2913 1.384 . S
H2916 C2922 0.930 . S
H2917 C2926 0.930 . S
H2918 C2931 0.929 . S
H2919 C2929 0.929 . S
H2920 C2924 0.929 . S
H2921 C2930 0.929 . S
C2922 H2916 0.930 . S
C2922 C2923 1.367 . S
C2922 C2930 1.378 . S
C2923 C2922 1.367 . S
C2923 C2931 1.433 . S
C2924 H2920 0.929 . S
C2924 C2926 1.378 . S
C2924 C2928 1.350 . S
C2925 C2928 1.463 . S
C2925 C2930 1.350 . S
C2925 N2933 1.427 . S
C2926 H2917 0.930 . S
C2926 C2924 1.378 . S
C2926 C2927 1.367 . S
C2927 C2926 1.367 . S
C2927 C2929 1.433 . S
C2928 C2924 1.350 . S
C2928 C2925 1.463 . S
C2928 N2932 1.427 . S
C2929 H2919 0.929 . S
C2929 C2927 1.433 . S
C2929 N2932 1.384 . S
C2930 H2921 0.929 . S
C2930 C2922 1.378 . S
C2930 C2925 1.350 . S
C2931 H2918 0.929 . S
C2931 C2923 1.433 . S
C2931 N2933 1.384 . S
N2932 C2928 1.427 . S
N2932 C2929 1.384 . S
N2933 C2925 1.427 . S
N2933 C2931 1.384 . S
H2934 C2940 0.930 . S
H2935 C2944 0.930 . S
H2936 C2949 0.929 . S
H2937 C2947 0.929 . S
H2938 C2942 0.929 . S
H2939 C2948 0.929 . S
C2940 H2934 0.930 . S
C2940 C2941 1.367 . S
C2940 C2948 1.378 . S
C2941 C2940 1.367 . S
C2941 C2949 1.433 . S
C2942 H2938 0.929 . S
C2942 C2944 1.378 . S
C2942 C2946 1.350 . S
C2943 C2946 1.463 . S
C2943 C2948 1.350 . S
C2943 N2951 1.427 . S
C2944 H2935 0.930 . S
C2944 C2942 1.378 . S
C2944 C2945 1.367 . S
C2945 C2944 1.367 . S
C2945 C2947 1.433 . S
C2946 C2942 1.350 . S
C2946 C2943 1.463 . S
C2946 N2950 1.427 . S
C2947 H2937 0.929 . S
C2947 C2945 1.433 . S
C2947 N2950 1.384 . S
C2948 H2939 0.929 . S
C2948 C2940 1.378 . S
C2948 C2943 1.350 . S
C2949 H2936 0.929 . S
C2949 C2941 1.433 . S
C2949 N2951 1.384 . S
N2950 C2946 1.427 . S
N2950 C2947 1.384 . S
N2951 C2943 1.427 . S
N2951 C2949 1.384 . S
H2952 C2958 0.930 . S
H2953 C2962 0.930 . S
H2954 C2967 0.929 . S
H2955 C2965 0.929 . S
H2956 C2960 0.929 . S
H2957 C2966 0.929 . S
C2958 H2952 0.930 . S
C2958 C2959 1.367 . S
C2958 C2966 1.378 . S
C2959 C2958 1.367 . S
C2959 C2967 1.433 1_655 S
C2960 H2956 0.929 . S
C2960 C2962 1.378 . S
C2960 C2964 1.350 . S
C2961 C2964 1.463 . S
C2961 C2966 1.350 1_455 S
C2961 N2969 1.427 . S
C2962 H2953 0.930 . S
C2962 C2960 1.378 . S
C2962 C2963 1.367 . S
C2963 C2962 1.367 . S
C2963 C2965 1.433 1_455 S
C2964 C2960 1.350 . S
C2964 C2961 1.463 . S
C2964 N2968 1.427 1_455 S
C2965 H2955 0.929 . S
C2965 C2963 1.433 1_655 S
C2965 N2968 1.384 . S
C2966 H2957 0.929 . S
C2966 C2958 1.378 . S
C2966 C2961 1.350 1_655 S
C2967 H2954 0.929 . S
C2967 C2959 1.433 1_455 S
C2967 N2969 1.384 . S
N2968 C2964 1.427 1_655 S
N2968 C2965 1.384 . S
N2969 C2961 1.427 . S
N2969 C2967 1.384 . S
H2970 C2976 0.930 . S
H2971 C2980 0.930 . S
H2972 C2985 0.929 . S
H2973 C2983 0.929 . S
H2974 C2978 0.929 . S
H2975 C2984 0.929 . S
C2976 H2970 0.930 . S
C2976 C2977 1.367 . S
C2976 C2984 1.378 . S
C2977 C2976 1.367 . S
C2977 C2985 1.433 . S
C2978 H2974 0.929 . S
C2978 C2980 1.378 . S
C2978 C2982 1.350 . S
C2979 C2982 1.463 . S
C2979 C2984 1.350 . S
C2979 N2987 1.427 . S
C2980 H2971 0.930 . S
C2980 C2978 1.378 . S
C2980 C2981 1.367 . S
C2981 C2980 1.367 . S
C2981 C2983 1.433 . S
C2982 C2978 1.350 . S
C2982 C2979 1.463 . S
C2982 N2986 1.427 . S
C2983 H2973 0.929 . S
C2983 C2981 1.433 . S
C2983 N2986 1.384 . S
C2984 H2975 0.929 . S
C2984 C2976 1.378 . S
C2984 C2979 1.350 . S
C2985 H2972 0.929 . S
C2985 C2977 1.433 . S
C2985 N2987 1.384 . S
N2986 C2982 1.427 . S
N2986 C2983 1.384 . S
N2987 C2979 1.427 . S
N2987 C2985 1.384 . S
H2988 C2994 0.930 . S
H2989 C2998 0.930 . S
H2990 C3003 0.929 . S
H2991 C3001 0.929 . S
H2992 C2996 0.929 . S
H2993 C3002 0.929 . S
C2994 H2988 0.930 . S
C2994 C2995 1.367 . S
C2994 C3002 1.378 . S
C2995 C2994 1.367 . S
C2995 C3003 1.433 1_545 S
C2996 H2992 0.929 . S
C2996 C2998 1.378 . S
C2996 C3000 1.350 . S
C2997 C3000 1.463 . S
C2997 C3002 1.350 1_565 S
C2997 N3005 1.427 . S
C2998 H2989 0.930 . S
C2998 C2996 1.378 . S
C2998 C2999 1.367 . S
C2999 C2998 1.367 . S
C2999 C3001 1.433 1_565 S
C3000 C2996 1.350 . S
C3000 C2997 1.463 . S
C3000 N3004 1.427 1_565 S
C3001 H2991 0.929 . S
C3001 C2999 1.433 1_545 S
C3001 N3004 1.384 . S
C3002 H2993 0.929 . S
C3002 C2994 1.378 . S
C3002 C2997 1.350 1_545 S
C3003 H2990 0.929 . S
C3003 C2995 1.433 1_565 S
C3003 N3005 1.384 . S
N3004 C3000 1.427 1_545 S
N3004 C3001 1.384 . S
N3005 C2997 1.427 . S
N3005 C3003 1.384 . S
H3006 C3012 0.930 . S
H3007 C3016 0.930 . S
H3008 C3021 0.929 . S
H3009 C3019 0.929 . S
H3010 C3014 0.929 . S
H3011 C3020 0.929 . S
C3012 H3006 0.930 . S
C3012 C3013 1.367 . S
C3012 C3020 1.378 . S
C3013 C3012 1.367 . S
C3013 C3021 1.433 1_545 S
C3014 H3010 0.929 . S
C3014 C3016 1.378 . S
C3014 C3018 1.350 1_565 S
C3015 C3018 1.463 . S
C3015 C3020 1.350 . S
C3015 N3023 1.427 1_545 S
C3016 H3007 0.930 . S
C3016 C3014 1.378 . S
C3016 C3017 1.367 . S
C3017 C3016 1.367 . S
C3017 C3019 1.433 1_565 S
C3018 C3014 1.350 1_545 S
C3018 C3015 1.463 . S
C3018 N3022 1.427 . S
C3019 H3009 0.929 . S
C3019 C3017 1.433 1_545 S
C3019 N3022 1.384 . S
C3020 H3011 0.929 . S
C3020 C3012 1.378 . S
C3020 C3015 1.350 . S
C3021 H3008 0.929 . S
C3021 C3013 1.433 1_565 S
C3021 N3023 1.384 . S
N3022 C3018 1.427 . S
N3022 C3019 1.384 . S
N3023 C3015 1.427 1_565 S
N3023 C3021 1.384 . S
H3024 C3030 0.930 . S
H3025 C3034 0.930 . S
H3026 C3039 0.929 . S
H3027 C3037 0.929 . S
H3028 C3032 0.929 . S
H3029 C3038 0.929 . S
C3030 H3024 0.930 . S
C3030 C3031 1.367 1_655 S
C3030 C3038 1.378 . S
C3031 C3030 1.367 1_455 S
C3031 C3039 1.433 . S
C3032 H3028 0.929 . S
C3032 C3034 1.378 . S
C3032 C3036 1.350 1_455 S
C3033 C3036 1.463 . S
C3033 C3038 1.350 . S
C3033 N3041 1.427 1_655 S
C3034 H3025 0.930 . S
C3034 C3032 1.378 . S
C3034 C3035 1.367 1_455 S
C3035 C3034 1.367 1_655 S
C3035 C3037 1.433 . S
C3036 C3032 1.350 1_655 S
C3036 C3033 1.463 . S
C3036 N3040 1.427 . S
C3037 H3027 0.929 . S
C3037 C3035 1.433 . S
C3037 N3040 1.384 . S
C3038 H3029 0.929 . S
C3038 C3030 1.378 . S
C3038 C3033 1.350 . S
C3039 H3026 0.929 . S
C3039 C3031 1.433 . S
C3039 N3041 1.384 . S
N3040 C3036 1.427 . S
N3040 C3037 1.384 . S
N3041 C3033 1.427 1_455 S
N3041 C3039 1.384 . S
H3042 C3048 0.930 . S
H3043 C3052 0.930 . S
H3044 C3057 0.929 . S
H3045 C3055 0.929 . S
H3046 C3050 0.929 . S
H3047 C3056 0.929 . S
C3048 H3042 0.930 . S
C3048 C3049 1.367 . S
C3048 C3056 1.378 . S
C3049 C3048 1.367 . S
C3049 C3057 1.433 . S
C3050 H3046 0.929 . S
C3050 C3052 1.378 . S
C3050 C3054 1.350 . S
C3051 C3054 1.463 . S
C3051 C3056 1.350 . S
C3051 N3059 1.427 . S
C3052 H3043 0.930 . S
C3052 C3050 1.378 . S
C3052 C3053 1.367 . S
C3053 C3052 1.367 . S
C3053 C3055 1.433 . S
C3054 C3050 1.350 . S
C3054 C3051 1.463 . S
C3054 N3058 1.427 . S
C3055 H3045 0.929 . S
C3055 C3053 1.433 . S
C3055 N3058 1.384 . S
C3056 H3047 0.929 . S
C3056 C3048 1.378 . S
C3056 C3051 1.350 . S
C3057 H3044 0.929 . S
C3057 C3049 1.433 . S
C3057 N3059 1.384 . S
N3058 C3054 1.427 . S
N3058 C3055 1.384 . S
N3059 C3051 1.427 . S
N3059 C3057 1.384 . S
H3060 C3066 0.930 . S
H3061 C3070 0.930 . S
H3062 C3075 0.929 1_455 S
H3063 C3073 0.929 1_655 S
H3064 C3068 0.929 . S
H3065 C3074 0.929 . S
C3066 H3060 0.930 . S
C3066 C3067 1.367 . S
C3066 C3074 1.378 . S
C3067 C3066 1.367 . S
C3067 C3075 1.433 . S
C3068 H3064 0.929 . S
C3068 C3070 1.378 . S
C3068 C3072 1.350 . S
C3069 C3072 1.463 1_655 S
C3069 C3074 1.350 . S
C3069 N3077 1.427 1_655 S
C3070 H3061 0.930 . S
C3070 C3068 1.378 . S
C3070 C3071 1.367 . S
C3071 C3070 1.367 . S
C3071 C3073 1.433 . S
C3072 C3068 1.350 . S
C3072 C3069 1.463 1_455 S
C3072 N3076 1.427 1_455 S
C3073 H3063 0.929 1_455 S
C3073 C3071 1.433 . S
C3073 N3076 1.384 1_455 S
C3074 H3065 0.929 . S
C3074 C3066 1.378 . S
C3074 C3069 1.350 . S
C3075 H3062 0.929 1_655 S
C3075 C3067 1.433 . S
C3075 N3077 1.384 1_655 S
N3076 C3072 1.427 1_655 S
N3076 C3073 1.384 1_655 S
N3077 C3069 1.427 1_455 S
N3077 C3075 1.384 1_455 S
H3078 C3084 0.930 . S
H3079 C3088 0.930 . S
H3080 C3093 0.929 . S
H3081 C3091 0.929 . S
H3082 C3086 0.929 . S
H3083 C3092 0.929 . S
C3084 H3078 0.930 . S
C3084 C3085 1.367 . S
C3084 C3092 1.378 . S
C3085 C3084 1.367 . S
C3085 C3093 1.433 . S
C3086 H3082 0.929 . S
C3086 C3088 1.378 . S
C3086 C3090 1.350 . S
C3087 C3090 1.463 . S
C3087 C3092 1.350 . S
C3087 N3095 1.427 . S
C3088 H3079 0.930 . S
C3088 C3086 1.378 . S
C3088 C3089 1.367 . S
C3089 C3088 1.367 . S
C3089 C3091 1.433 . S
C3090 C3086 1.350 . S
C3090 C3087 1.463 . S
C3090 N3094 1.427 . S
C3091 H3081 0.929 . S
C3091 C3089 1.433 . S
C3091 N3094 1.384 . S
C3092 H3083 0.929 . S
C3092 C3084 1.378 . S
C3092 C3087 1.350 . S
C3093 H3080 0.929 . S
C3093 C3085 1.433 . S
C3093 N3095 1.384 . S
N3094 C3090 1.427 . S
N3094 C3091 1.384 . S
N3095 C3087 1.427 . S
N3095 C3093 1.384 . S
H3096 C3102 0.930 . S
H3097 C3106 0.930 . S
H3098 C3111 0.929 . S
H3099 C3109 0.929 . S
H3100 C3104 0.929 . S
H3101 C3110 0.929 . S
C3102 H3096 0.930 . S
C3102 C3103 1.367 . S
C3102 C3110 1.378 . S
C3103 C3102 1.367 . S
C3103 C3111 1.433 . S
C3104 H3100 0.929 . S
C3104 C3106 1.378 . S
C3104 C3108 1.350 . S
C3105 C3108 1.463 1_545 S
C3105 C3110 1.350 . S
C3105 N3113 1.427 1_545 S
C3106 H3097 0.930 . S
C3106 C3104 1.378 . S
C3106 C3107 1.367 . S
C3107 C3106 1.367 . S
C3107 C3109 1.433 . S
C3108 C3104 1.350 . S
C3108 C3105 1.463 1_565 S
C3108 N3112 1.427 1_565 S
C3109 H3099 0.929 . S
C3109 C3107 1.433 . S
C3109 N3112 1.384 1_565 S
C3110 H3101 0.929 . S
C3110 C3102 1.378 . S
C3110 C3105 1.350 . S
C3111 H3098 0.929 . S
C3111 C3103 1.433 . S
C3111 N3113 1.384 1_545 S
N3112 C3108 1.427 1_545 S
N3112 C3109 1.384 1_545 S
N3113 C3105 1.427 1_565 S
N3113 C3111 1.384 1_565 S
H3114 C3120 0.930 . S
H3115 C3124 0.930 . S
H3116 C3129 0.929 . S
H3117 C3127 0.929 . S
H3118 C3122 0.929 . S
H3119 C3128 0.929 . S
C3120 H3114 0.930 . S
C3120 C3121 1.367 . S
C3120 C3128 1.378 . S
C3121 C3120 1.367 . S
C3121 C3129 1.433 . S
C3122 H3118 0.929 . S
C3122 C3124 1.378 . S
C3122 C3126 1.350 . S
C3123 C3126 1.463 1_655 S
C3123 C3128 1.350 . S
C3123 N3131 1.427 . S
C3124 H3115 0.930 . S
C3124 C3122 1.378 . S
C3124 C3125 1.367 . S
C3125 C3124 1.367 . S
C3125 C3127 1.433 . S
C3126 C3122 1.350 . S
C3126 C3123 1.463 1_455 S
C3126 N3130 1.427 . S
C3127 H3117 0.929 . S
C3127 C3125 1.433 . S
C3127 N3130 1.384 . S
C3128 H3119 0.929 . S
C3128 C3120 1.378 . S
C3128 C3123 1.350 . S
C3129 H3116 0.929 . S
C3129 C3121 1.433 . S
C3129 N3131 1.384 . S
N3130 C3126 1.427 . S
N3130 C3127 1.384 . S
N3131 C3123 1.427 . S
N3131 C3129 1.384 . S
H3132 C3138 0.930 . S
H3133 C3142 0.930 . S
H3134 C3147 0.929 . S
H3135 C3145 0.929 . S
H3136 C3140 0.929 . S
H3137 C3146 0.929 . S
C3138 H3132 0.930 . S
C3138 C3139 1.367 . S
C3138 C3146 1.378 . S
C3139 C3138 1.367 . S
C3139 C3147 1.433 . S
C3140 H3136 0.929 . S
C3140 C3142 1.378 . S
C3140 C3144 1.350 . S
C3141 C3144 1.463 . S
C3141 C3146 1.350 . S
C3141 N3149 1.427 . S
C3142 H3133 0.930 . S
C3142 C3140 1.378 . S
C3142 C3143 1.367 . S
C3143 C3142 1.367 . S
C3143 C3145 1.433 . S
C3144 C3140 1.350 . S
C3144 C3141 1.463 . S
C3144 N3148 1.427 . S
C3145 H3135 0.929 . S
C3145 C3143 1.433 . S
C3145 N3148 1.384 . S
C3146 H3137 0.929 . S
C3146 C3138 1.378 . S
C3146 C3141 1.350 . S
C3147 H3134 0.929 . S
C3147 C3139 1.433 . S
C3147 N3149 1.384 . S
N3148 C3144 1.427 . S
N3148 C3145 1.384 . S
N3149 C3141 1.427 . S
N3149 C3147 1.384 . S
H3150 C3156 0.930 . S
H3151 C3160 0.930 . S
H3152 C3165 0.929 . S
H3153 C3163 0.929 . S
H3154 C3158 0.929 . S
H3155 C3164 0.929 . S
C3156 H3150 0.930 . S
C3156 C3157 1.367 . S
C3156 C3164 1.378 . S
C3157 C3156 1.367 . S
C3157 C3165 1.433 . S
C3158 H3154 0.929 . S
C3158 C3160 1.378 . S
C3158 C3162 1.350 . S
C3159 C3162 1.463 1_545 S
C3159 C3164 1.350 . S
C3159 N3167 1.427 . S
C3160 H3151 0.930 . S
C3160 C3158 1.378 . S
C3160 C3161 1.367 . S
C3161 C3160 1.367 . S
C3161 C3163 1.433 . S
C3162 C3158 1.350 . S
C3162 C3159 1.463 1_565 S
C3162 N3166 1.427 . S
C3163 H3153 0.929 . S
C3163 C3161 1.433 . S
C3163 N3166 1.384 . S
C3164 H3155 0.929 . S
C3164 C3156 1.378 . S
C3164 C3159 1.350 . S
C3165 H3152 0.929 . S
C3165 C3157 1.433 . S
C3165 N3167 1.384 . S
N3166 C3162 1.427 . S
N3166 C3163 1.384 . S
N3167 C3159 1.427 . S
N3167 C3165 1.384 . S
H3168 C3174 0.930 . S
H3169 C3178 0.930 . S
H3170 C3183 0.929 . S
H3171 C3181 0.929 . S
H3172 C3176 0.929 . S
H3173 C3182 0.929 . S
C3174 H3168 0.930 . S
C3174 C3175 1.367 . S
C3174 C3182 1.378 . S
C3175 C3174 1.367 . S
C3175 C3183 1.433 . S
C3176 H3172 0.929 . S
C3176 C3178 1.378 . S
C3176 C3180 1.350 . S
C3177 C3180 1.463 . S
C3177 C3182 1.350 . S
C3177 N3185 1.427 . S
C3178 H3169 0.930 . S
C3178 C3176 1.378 . S
C3178 C3179 1.367 . S
C3179 C3178 1.367 . S
C3179 C3181 1.433 . S
C3180 C3176 1.350 . S
C3180 C3177 1.463 . S
C3180 N3184 1.427 . S
C3181 H3171 0.929 . S
C3181 C3179 1.433 . S
C3181 N3184 1.384 . S
C3182 H3173 0.929 . S
C3182 C3174 1.378 . S
C3182 C3177 1.350 . S
C3183 H3170 0.929 . S
C3183 C3175 1.433 . S
C3183 N3185 1.384 . S
N3184 C3180 1.427 . S
N3184 C3181 1.384 . S
N3185 C3177 1.427 . S
N3185 C3183 1.384 . S
H3186 C3192 0.930 . S
H3187 C3196 0.930 . S
H3188 C3201 0.929 . S
H3189 C3199 0.929 . S
H3190 C3194 0.929 . S
H3191 C3200 0.929 . S
C3192 H3186 0.930 . S
C3192 C3193 1.367 . S
C3192 C3200 1.378 . S
C3193 C3192 1.367 . S
C3193 C3201 1.433 . S
C3194 H3190 0.929 . S
C3194 C3196 1.378 . S
C3194 C3198 1.350 . S
C3195 C3198 1.463 . S
C3195 C3200 1.350 . S
C3195 N3203 1.427 . S
C3196 H3187 0.930 . S
C3196 C3194 1.378 . S
C3196 C3197 1.367 . S
C3197 C3196 1.367 . S
C3197 C3199 1.433 . S
C3198 C3194 1.350 . S
C3198 C3195 1.463 . S
C3198 N3202 1.427 . S
C3199 H3189 0.929 . S
C3199 C3197 1.433 . S
C3199 N3202 1.384 . S
C3200 H3191 0.929 . S
C3200 C3192 1.378 . S
C3200 C3195 1.350 . S
C3201 H3188 0.929 . S
C3201 C3193 1.433 . S
C3201 N3203 1.384 . S
N3202 C3198 1.427 . S
N3202 C3199 1.384 . S
N3203 C3195 1.427 . S
N3203 C3201 1.384 . S
H3204 C3210 0.930 . S
H3205 C3214 0.930 . S
H3206 C3219 0.929 . S
H3207 C3217 0.929 . S
H3208 C3212 0.929 . S
H3209 C3218 0.929 . S
C3210 H3204 0.930 . S
C3210 C3211 1.367 . S
C3210 C3218 1.378 . S
C3211 C3210 1.367 . S
C3211 C3219 1.433 . S
C3212 H3208 0.929 . S
C3212 C3214 1.378 . S
C3212 C3216 1.350 . S
C3213 C3216 1.463 . S
C3213 C3218 1.350 . S
C3213 N3221 1.427 . S
C3214 H3205 0.930 . S
C3214 C3212 1.378 . S
C3214 C3215 1.367 . S
C3215 C3214 1.367 . S
C3215 C3217 1.433 . S
C3216 C3212 1.350 . S
C3216 C3213 1.463 . S
C3216 N3220 1.427 . S
C3217 H3207 0.929 . S
C3217 C3215 1.433 . S
C3217 N3220 1.384 . S
C3218 H3209 0.929 . S
C3218 C3210 1.378 . S
C3218 C3213 1.350 . S
C3219 H3206 0.929 . S
C3219 C3211 1.433 . S
C3219 N3221 1.384 . S
N3220 C3216 1.427 . S
N3220 C3217 1.384 . S
N3221 C3213 1.427 . S
N3221 C3219 1.384 . S
H3222 C3228 0.930 . S
H3223 C3232 0.930 . S
H3224 C3237 0.929 . S
H3225 C3235 0.929 . S
H3226 C3230 0.929 . S
H3227 C3236 0.929 . S
C3228 H3222 0.930 . S
C3228 C3229 1.367 . S
C3228 C3236 1.378 . S
C3229 C3228 1.367 . S
C3229 C3237 1.433 . S
C3230 H3226 0.929 . S
C3230 C3232 1.378 . S
C3230 C3234 1.350 . S
C3231 C3234 1.463 . S
C3231 C3236 1.350 . S
C3231 N3239 1.427 . S
C3232 H3223 0.930 . S
C3232 C3230 1.378 . S
C3232 C3233 1.367 . S
C3233 C3232 1.367 . S
C3233 C3235 1.433 . S
C3234 C3230 1.350 . S
C3234 C3231 1.463 . S
C3234 N3238 1.427 . S
C3235 H3225 0.929 . S
C3235 C3233 1.433 . S
C3235 N3238 1.384 . S
C3236 H3227 0.929 . S
C3236 C3228 1.378 . S
C3236 C3231 1.350 . S
C3237 H3224 0.929 . S
C3237 C3229 1.433 . S
C3237 N3239 1.384 . S
N3238 C3234 1.427 . S
N3238 C3235 1.384 . S
N3239 C3231 1.427 . S
N3239 C3237 1.384 . S
H3240 C3246 0.930 . S
H3241 C3250 0.930 . S
H3242 C3255 0.929 . S
H3243 C3253 0.929 . S
H3244 C3248 0.929 . S
H3245 C3254 0.929 . S
C3246 H3240 0.930 . S
C3246 C3247 1.367 . S
C3246 C3254 1.378 . S
C3247 C3246 1.367 . S
C3247 C3255 1.433 . S
C3248 H3244 0.929 . S
C3248 C3250 1.378 . S
C3248 C3252 1.350 . S
C3249 C3252 1.463 . S
C3249 C3254 1.350 . S
C3249 N3257 1.427 . S
C3250 H3241 0.930 . S
C3250 C3248 1.378 . S
C3250 C3251 1.367 . S
C3251 C3250 1.367 . S
C3251 C3253 1.433 . S
C3252 C3248 1.350 . S
C3252 C3249 1.463 . S
C3252 N3256 1.427 . S
C3253 H3243 0.929 . S
C3253 C3251 1.433 . S
C3253 N3256 1.384 . S
C3254 H3245 0.929 . S
C3254 C3246 1.378 . S
C3254 C3249 1.350 . S
C3255 H3242 0.929 . S
C3255 C3247 1.433 . S
C3255 N3257 1.384 . S
N3256 C3252 1.427 . S
N3256 C3253 1.384 . S
N3257 C3249 1.427 . S
N3257 C3255 1.384 . S
H3258 C3264 0.930 . S
H3259 C3268 0.930 . S
H3260 C3273 0.929 . S
H3261 C3271 0.929 . S
H3262 C3266 0.929 . S
H3263 C3272 0.929 . S
C3264 H3258 0.930 . S
C3264 C3265 1.367 . S
C3264 C3272 1.378 . S
C3265 C3264 1.367 . S
C3265 C3273 1.433 . S
C3266 H3262 0.929 . S
C3266 C3268 1.378 . S
C3266 C3270 1.350 . S
C3267 C3270 1.463 . S
C3267 C3272 1.350 . S
C3267 N3275 1.427 . S
C3268 H3259 0.930 . S
C3268 C3266 1.378 . S
C3268 C3269 1.367 . S
C3269 C3268 1.367 . S
C3269 C3271 1.433 . S
C3270 C3266 1.350 . S
C3270 C3267 1.463 . S
C3270 N3274 1.427 . S
C3271 H3261 0.929 . S
C3271 C3269 1.433 . S
C3271 N3274 1.384 . S
C3272 H3263 0.929 . S
C3272 C3264 1.378 . S
C3272 C3267 1.350 . S
C3273 H3260 0.929 . S
C3273 C3265 1.433 . S
C3273 N3275 1.384 . S
N3274 C3270 1.427 . S
N3274 C3271 1.384 . S
N3275 C3267 1.427 . S
N3275 C3273 1.384 . S
H3276 C3282 0.930 . S
H3277 C3286 0.930 . S
H3278 C3291 0.929 . S
H3279 C3289 0.929 . S
H3280 C3284 0.929 . S
H3281 C3290 0.929 . S
C3282 H3276 0.930 . S
C3282 C3283 1.367 . S
C3282 C3290 1.378 . S
C3283 C3282 1.367 . S
C3283 C3291 1.433 . S
C3284 H3280 0.929 . S
C3284 C3286 1.378 . S
C3284 C3288 1.350 . S
C3285 C3288 1.463 . S
C3285 C3290 1.350 . S
C3285 N3293 1.427 . S
C3286 H3277 0.930 . S
C3286 C3284 1.378 . S
C3286 C3287 1.367 . S
C3287 C3286 1.367 . S
C3287 C3289 1.433 . S
C3288 C3284 1.350 . S
C3288 C3285 1.463 . S
C3288 N3292 1.427 . S
C3289 H3279 0.929 . S
C3289 C3287 1.433 . S
C3289 N3292 1.384 . S
C3290 H3281 0.929 . S
C3290 C3282 1.378 . S
C3290 C3285 1.350 . S
C3291 H3278 0.929 . S
C3291 C3283 1.433 . S
C3291 N3293 1.384 . S
N3292 C3288 1.427 . S
N3292 C3289 1.384 . S
N3293 C3285 1.427 . S
N3293 C3291 1.384 . S
H3294 C3300 0.930 . S
H3295 C3304 0.930 . S
H3296 C3309 0.929 . S
H3297 C3307 0.929 . S
H3298 C3302 0.929 . S
H3299 C3308 0.929 . S
C3300 H3294 0.930 . S
C3300 C3301 1.367 . S
C3300 C3308 1.378 . S
C3301 C3300 1.367 . S
C3301 C3309 1.433 . S
C3302 H3298 0.929 . S
C3302 C3304 1.378 . S
C3302 C3306 1.350 . S
C3303 C3306 1.463 . S
C3303 C3308 1.350 . S
C3303 N3311 1.427 . S
C3304 H3295 0.930 . S
C3304 C3302 1.378 . S
C3304 C3305 1.367 . S
C3305 C3304 1.367 . S
C3305 C3307 1.433 . S
C3306 C3302 1.350 . S
C3306 C3303 1.463 . S
C3306 N3310 1.427 . S
C3307 H3297 0.929 . S
C3307 C3305 1.433 . S
C3307 N3310 1.384 . S
C3308 H3299 0.929 . S
C3308 C3300 1.378 . S
C3308 C3303 1.350 . S
C3309 H3296 0.929 . S
C3309 C3301 1.433 . S
C3309 N3311 1.384 . S
N3310 C3306 1.427 . S
N3310 C3307 1.384 . S
N3311 C3303 1.427 . S
N3311 C3309 1.384 . S
H3312 C3318 0.930 . S
H3313 C3322 0.930 . S
H3314 C3327 0.929 . S
H3315 C3325 0.929 . S
H3316 C3320 0.929 . S
H3317 C3326 0.929 . S
C3318 H3312 0.930 . S
C3318 C3319 1.367 . S
C3318 C3326 1.378 . S
C3319 C3318 1.367 . S
C3319 C3327 1.433 . S
C3320 H3316 0.929 . S
C3320 C3322 1.378 . S
C3320 C3324 1.350 . S
C3321 C3324 1.463 . S
C3321 C3326 1.350 . S
C3321 N3329 1.427 . S
C3322 H3313 0.930 . S
C3322 C3320 1.378 . S
C3322 C3323 1.367 . S
C3323 C3322 1.367 . S
C3323 C3325 1.433 . S
C3324 C3320 1.350 . S
C3324 C3321 1.463 . S
C3324 N3328 1.427 . S
C3325 H3315 0.929 . S
C3325 C3323 1.433 . S
C3325 N3328 1.384 . S
C3326 H3317 0.929 . S
C3326 C3318 1.378 . S
C3326 C3321 1.350 . S
C3327 H3314 0.929 . S
C3327 C3319 1.433 . S
C3327 N3329 1.384 . S
N3328 C3324 1.427 . S
N3328 C3325 1.384 . S
N3329 C3321 1.427 . S
N3329 C3327 1.384 . S
H3330 C3336 0.930 . S
H3331 C3340 0.930 . S
H3332 C3345 0.929 . S
H3333 C3343 0.929 . S
H3334 C3338 0.929 . S
H3335 C3344 0.929 . S
C3336 H3330 0.930 . S
C3336 C3337 1.367 . S
C3336 C3344 1.378 . S
C3337 C3336 1.367 . S
C3337 C3345 1.433 . S
C3338 H3334 0.929 . S
C3338 C3340 1.378 . S
C3338 C3342 1.350 . S
C3339 C3342 1.463 . S
C3339 C3344 1.350 . S
C3339 N3347 1.427 . S
C3340 H3331 0.930 . S
C3340 C3338 1.378 . S
C3340 C3341 1.367 . S
C3341 C3340 1.367 . S
C3341 C3343 1.433 . S
C3342 C3338 1.350 . S
C3342 C3339 1.463 . S
C3342 N3346 1.427 . S
C3343 H3333 0.929 . S
C3343 C3341 1.433 . S
C3343 N3346 1.384 . S
C3344 H3335 0.929 . S
C3344 C3336 1.378 . S
C3344 C3339 1.350 . S
C3345 H3332 0.929 . S
C3345 C3337 1.433 . S
C3345 N3347 1.384 . S
N3346 C3342 1.427 . S
N3346 C3343 1.384 . S
N3347 C3339 1.427 . S
N3347 C3345 1.384 . S
H3348 C3354 0.930 . S
H3349 C3358 0.930 . S
H3350 C3363 0.929 . S
H3351 C3361 0.929 . S
H3352 C3356 0.929 . S
H3353 C3362 0.929 . S
C3354 H3348 0.930 . S
C3354 C3355 1.367 . S
C3354 C3362 1.378 . S
C3355 C3354 1.367 . S
C3355 C3363 1.433 . S
C3356 H3352 0.929 . S
C3356 C3358 1.378 . S
C3356 C3360 1.350 . S
C3357 C3360 1.463 . S
C3357 C3362 1.350 . S
C3357 N3365 1.427 . S
C3358 H3349 0.930 . S
C3358 C3356 1.378 . S
C3358 C3359 1.367 . S
C3359 C3358 1.367 . S
C3359 C3361 1.433 . S
C3360 C3356 1.350 . S
C3360 C3357 1.463 . S
C3360 N3364 1.427 . S
C3361 H3351 0.929 . S
C3361 C3359 1.433 . S
C3361 N3364 1.384 . S
C3362 H3353 0.929 . S
C3362 C3354 1.378 . S
C3362 C3357 1.350 . S
C3363 H3350 0.929 . S
C3363 C3355 1.433 . S
C3363 N3365 1.384 . S
N3364 C3360 1.427 . S
N3364 C3361 1.384 . S
N3365 C3357 1.427 . S
N3365 C3363 1.384 . S
H3366 C3372 0.930 . S
H3367 C3376 0.930 . S
H3368 C3381 0.929 . S
H3369 C3379 0.929 . S
H3370 C3374 0.929 . S
H3371 C3380 0.929 . S
C3372 H3366 0.930 . S
C3372 C3373 1.367 . S
C3372 C3380 1.378 . S
C3373 C3372 1.367 . S
C3373 C3381 1.433 . S
C3374 H3370 0.929 . S
C3374 C3376 1.378 . S
C3374 C3378 1.350 . S
C3375 C3378 1.463 . S
C3375 C3380 1.350 . S
C3375 N3383 1.427 . S
C3376 H3367 0.930 . S
C3376 C3374 1.378 . S
C3376 C3377 1.367 . S
C3377 C3376 1.367 . S
C3377 C3379 1.433 . S
C3378 C3374 1.350 . S
C3378 C3375 1.463 . S
C3378 N3382 1.427 . S
C3379 H3369 0.929 . S
C3379 C3377 1.433 . S
C3379 N3382 1.384 . S
C3380 H3371 0.929 . S
C3380 C3372 1.378 . S
C3380 C3375 1.350 . S
C3381 H3368 0.929 . S
C3381 C3373 1.433 . S
C3381 N3383 1.384 . S
N3382 C3378 1.427 . S
N3382 C3379 1.384 . S
N3383 C3375 1.427 . S
N3383 C3381 1.384 . S
C1447 C9 1.720 . S
C1451 C99 1.797 . S
C1465 C19 1.797 . S
C1469 C49 1.720 1_545 S
C1483 C89 1.728 1_655 S
C1487 C59 1.793 . S
C1501 C129 1.794 . S
C1505 C179 1.872 . S
C1519 C219 1.865 . S
C1523 C169 1.799 1_565 S
C1537 C209 1.798 1_455 S
C1541 C139 1.865 . S
C1555 C258 1.716 . S
C1559 C330 1.795 . S
C1573 C298 1.727 1_565 S
C1577 C250 1.795 . S
C1591 C338 1.716 1_455 S
C1595 C290 1.794 . S
C1609 C378 1.793 . S
C1613 C410 1.871 . S
C1627 C450 1.870 . S
C1631 C418 1.793 1_545 S
C1645 C370 1.872 . S
C1649 C458 1.798 1_655 S
C1663 C579 1.856 . S
C1667 C489 1.783 . S
C1681 C529 1.789 . S
C1685 C499 1.860 . S
C1699 C539 1.860 . S
C1703 C569 1.781 . S
C1717 C609 1.817 . S
C1721 C659 1.884 . S
C1735 C699 1.884 . S
C1739 C649 1.826 . S
C1753 C619 1.885 . S
C1757 C689 1.826 . S
C1771 C738 1.751 . S
C1775 C810 1.828 . S
C1789 C778 1.760 . S
C1793 C730 1.821 . S
C1807 C770 1.821 . S
C1811 C818 1.760 . S
C1825 C890 1.720 . S
C1829 C858 1.641 1_554 S
C1843 C898 1.632 1_554 S
C1847 C930 1.718 . S
C1861 C850 1.714 . S
C1865 C938 1.636 1_554 S
C1879 C969 1.765 . S
C1883 C1059 1.823 . S
C1897 C1009 1.750 . S
C1901 C979 1.827 . S
C1915 C1049 1.760 . S
C1919 C1019 1.821 . S
C1933 C1089 1.637 1_556 S
C1937 C1139 1.722 . S
C1951 C1129 1.632 1_556 S
C1955 C1179 1.719 . S
C1969 C1169 1.639 1_556 S
C1973 C1099 1.721 . S
C1987 C1218 1.795 . S
C1991 C1290 1.856 . S
C2005 C1258 1.780 . S
C2009 C1210 1.859 . S
C2023 C1250 1.861 . S
C2027 C1298 1.783 . S
C2041 C1338 1.821 . S
C2045 C1370 1.890 . S
C2059 C1378 1.812 . S
C2063 C1410 1.890 . S
C2077 C1330 1.888 . S
C2081 C1418 1.824 . S
C2095 C10 1.797 . S
C2099 C809 1.789 . S
C2113 C729 1.782 . S
C2117 C50 1.790 . S
C2131 C90 1.799 . S
C2135 C769 1.786 . S
C2149 C130 1.687 . S
C2153 C1369 1.677 . S
C2167 C1409 1.678 . S
C2171 C170 1.698 . S
C2185 C210 1.694 . S
C2189 C1329 1.684 . S
C2203 C1058 1.788 . S
C2207 C259 1.797 . S
C2221 C299 1.798 . S
C2225 C978 1.781 . S
C2239 C339 1.794 . S
C2243 C1018 1.780 . S
C2257 C658 1.671 . S
C2261 C379 1.692 . S
C2275 C698 1.671 . S
C2279 C419 1.693 . S
C2293 C618 1.683 . S
C2297 C459 1.697 . S
C2311 C490 1.743 . S
C2315 C1289 1.737 . S
C2329 C530 1.738 . S
C2333 C1209 1.727 . S
C2347 C1249 1.738 . S
C2351 C570 1.744 . S
C2365 C409 1.712 . S
C2369 C610 1.742 . S
C2383 C449 1.712 . S
C2387 C650 1.730 . S
C2401 C369 1.717 . S
C2405 C690 1.764 . S
C2419 C98 1.775 . S
C2423 C739 1.789 . S
C2437 C779 1.784 . S
C2441 C18 1.785 . S
C2455 C819 1.790 . S
C2459 C58 1.776 . S
C2473 C1138 1.736 1_554 S
C2477 C859 1.764 . S
C2491 C1178 1.741 1_554 S
C2495 C899 1.761 . S
C2509 C939 1.763 . S
C2513 C1098 1.742 1_554 S
C2527 C329 1.786 . S
C2531 C970 1.787 . S
C2545 C249 1.786 . S
C2549 C1010 1.790 . S
C2563 C289 1.785 . S
C2567 C1050 1.784 . S
C2581 C1090 1.755 . S
C2585 C889 1.730 . S
C2599 C929 1.741 1_556 S
C2603 C1130 1.756 . S
C2617 C1170 1.757 . S
C2621 C849 1.737 . S
C2635 C1219 1.741 . S
C2639 C578 1.725 . S
C2653 C1259 1.743 . S
C2657 C498 1.737 . S
C2671 C1299 1.746 . S
C2675 C538 1.727 . S
C2689 C1339 1.726 . S
C2693 C178 1.717 . S
C2707 C218 1.720 . S
C2711 C1379 1.738 . S
C2725 C138 1.721 . S
C2729 C1419 1.772 . S
C2743 C1166 2.293 . S
C2747 C6 2.286 . S
C2761 C1086 2.292 . S
C2765 C46 2.286 . S
C2779 C86 2.302 . S
C2783 C1126 2.278 . S
C2797 C526 2.538 . S
C2801 C126 2.535 . S
C2815 C166 2.533 . S
C2819 C566 2.531 . S
C2833 C206 2.530 . S
C2837 C486 2.534 . S
C2851 C255 2.303 . S
C2855 C935 2.284 . S
C2869 C295 2.295 . S
C2873 C855 2.281 . S
C2887 C335 2.295 . S
C2891 C895 2.279 . S
C2905 C1255 2.538 . S
C2909 C375 2.531 . S
C2923 C1295 2.532 . S
C2927 C415 2.531 . S
C2941 C1215 2.533 . S
C2945 C455 2.530 . S
C2959 C606 2.585 . S
C2963 C1006 2.592 . S
C2977 C646 2.586 . S
C2981 C1046 2.587 . S
C2995 C686 2.584 . S
C2999 C966 2.590 . S
C3013 C735 2.589 . S
C3017 C1415 2.584 . S
C3031 C1335 2.591 . S
C3035 C775 2.590 . S
C3049 C815 2.594 . S
C3053 C1375 2.589 . S
C3067 C175 1.152 . S
C3071 C15 1.149 . S
C3085 C215 1.153 . S
C3089 C55 1.149 . S
C3103 C135 1.148 . S
C3107 C95 1.153 . S
C3121 C246 1.148 . S
C3125 C406 1.153 . S
C3139 C446 1.147 . S
C3143 C286 1.153 . S
C3157 C326 1.154 . S
C3161 C366 1.147 . S
C3175 C655 1.235 . S
C3179 C495 1.235 . S
C3193 C695 1.238 . S
C3197 C535 1.234 . S
C3211 C615 1.233 . S
C3215 C575 1.238 . S
C3229 C886 1.496 . S
C3233 C726 1.526 . S
C3247 C766 1.511 . S
C3251 C926 1.509 . S
C3265 C806 1.511 . S
C3269 C846 1.512 . S
C3283 C975 1.510 . S
C3287 C1135 1.509 . S
C3301 C1175 1.502 . S
C3305 C1015 1.523 . S
C3319 C1055 1.510 . S
C3323 C1095 1.508 . S
C3337 C1206 1.234 . S
C3341 C1366 1.237 . S
C3355 C1406 1.236 . S
C3359 C1246 1.235 . S
C3373 C1286 1.239 . S
C3377 C1326 1.233 . S
