# Generated by pormake.
# Topology snp, (6)-cn, num edge types: 1
# Building blocks:
#     Node 0, Type 0, BuildingBlock: UKALOJ_clean_sbu_0, # of connection points: 6
#     Node 1, Type 0, BuildingBlock: UKALOJ_clean_sbu_0, # of connection points: 6
#     Node 2, Type 0, BuildingBlock: UKALOJ_clean_sbu_0, # of connection points: 6
#     Node 3, Type 0, BuildingBlock: UKALOJ_clean_sbu_0, # of connection points: 6
#     Edge 4, Type (0, 0), BuildingBlock: CIFDUS_clean_linker_0, # of connection points: 2
#     Edge 5, Type (0, 0), BuildingBlock: CIFDUS_clean_linker_0, # of connection points: 2
#     Edge 6, Type (0, 0), BuildingBlock: CIFDUS_clean_linker_0, # of connection points: 2
#     Edge 7, Type (0, 0), BuildingBlock: CIFDUS_clean_linker_0, # of connection points: 2
#     Edge 8, Type (0, 0), BuildingBlock: CIFDUS_clean_linker_0, # of connection points: 2
#     Edge 9, Type (0, 0), BuildingBlock: CIFDUS_clean_linker_0, # of connection points: 2
#     Edge 10, Type (0, 0), BuildingBlock: CIFDUS_clean_linker_0, # of connection points: 2
#     Edge 11, Type (0, 0), BuildingBlock: CIFDUS_clean_linker_0, # of connection points: 2
#     Edge 12, Type (0, 0), BuildingBlock: CIFDUS_clean_linker_0, # of connection points: 2
#     Edge 13, Type (0, 0), BuildingBlock: CIFDUS_clean_linker_0, # of connection points: 2
#     Edge 14, Type (0, 0), BuildingBlock: CIFDUS_clean_linker_0, # of connection points: 2
#     Edge 15, Type (0, 0), BuildingBlock: CIFDUS_clean_linker_0, # of connection points: 2
# Relax obj value: 0.942
# Max RMSD: 0.249
# Mean RMSD: 0.247
data_MOF--net-snp--node1-UKALOJ_clean_sbu_0--edge1-CIFDUS_clean_linker_0
_symmetry_space_group_name_H-M    P1
_symmetry_Int_Tables_number       1
_symmetry_cell_setting            triclinic
loop_
_symmetry_equiv_pos_as_xyz
'x, y, z'
_cell_length_a     30.385328
_cell_length_b     29.876062
_cell_length_c     19.285329
_cell_angle_alpha  96.103408
_cell_angle_beta   95.666399
_cell_angle_gamma 90.140949
loop_
_atom_site_label
_atom_site_type_symbol
_atom_site_fract_x
_atom_site_fract_y
_atom_site_fract_z
_atom_type_partial_charge
Zn0 Zn 0.27089 0.99963 0.1049 0.0
O1 O 0.28472 0.95012 0.01652 0.0
C2 C 0.21352 0.04452 0.99567 0.0
Zn3 Zn 0.20167 0.97066 0.09232 0.0
C4 C 0.25563 0.92009 0.99301 0.0
O5 O 0.21948 0.9206 0.01968 0.0
C6 C 0.21117 0.05086 0.20414 0.0
O7 O 0.21205 0.92807 0.1655 0.0
O8 O 0.28205 0.94859 0.18451 0.0
N9 N 0.13898 0.94526 0.06859 0.0
C10 C 0.10468 0.95616 0.10207 0.0
C11 C 0.11425 0.94495 0.06036 0.0
N12 N 0.13205 0.92886 1.00097 0.0
N13 N 0.06955 0.95879 0.05692 0.0
C14 C 0.37691 0.99408 0.1051 0.0
C15 C 0.39868 0.06217 0.12534 0.0
N16 N 0.34025 0.01909 0.11596 0.0
N17 N 0.35434 0.06142 0.1287 0.0
N18 N 0.41427 0.02033 0.10993 0.0
H19 H 0.3477 0.92981 0.11666 0.0
H20 H 0.40717 0.92979 0.11697 0.0
H21 H 0.37216 0.93277 0.03641 0.0
C22 C 0.37601 0.94369 0.09351 0.0
C23 C 0.10424 0.97394 0.18378 0.0
H24 H 0.13403 0.96259 0.21487 0.0
H25 H 0.07405 0.96138 0.20349 0.0
H26 H 0.10266 1.01122 0.19029 0.0
O27 O 0.18414 0.02214 0.16956 0.0
O28 O 0.25178 0.05041 0.19057 0.0
C29 C 0.24978 0.92376 0.19738 0.0
O30 O 0.25283 0.04893 0.02693 0.0
O31 O 0.18829 0.01449 0.01282 0.0
Zn32 Zn 0.01991 0.23207 0.60434 0.0
O33 O 0.07018 0.21277 0.52708 0.0
C34 C 0.94167 0.23211 0.4968 0.0
Zn35 Zn 0.985 0.16469 0.58303 0.0
C36 C 0.06311 0.17349 0.49359 0.0
O37 O 0.02947 0.15134 0.50569 0.0
C38 C 0.94143 0.21271 0.69271 0.0
O39 O 0.03106 0.13538 0.65302 0.0
O40 O 0.06456 0.2008 0.68806 0.0
N41 N 0.94891 0.10592 0.54851 0.0
C42 C 0.92091 0.08252 0.49776 0.0
C43 C 0.95252 0.12596 0.43115 0.0
N44 N 0.93571 0.10012 0.47869 0.0
N45 N 0.92319 0.09204 0.43231 0.0
C46 C 0.05078 0.33409 0.58803 0.0
C47 C 0.04726 0.36655 0.69072 0.0
N48 N 0.0437 0.30099 0.62955 0.0
N49 N 0.04176 0.3218 0.69329 0.0
N50 N 0.05272 0.37594 0.62509 0.0
H51 H 0.04276 0.29047 0.49028 0.0
H52 H 0.08742 0.32977 0.49862 0.0
H53 H 0.03176 0.34956 0.48284 0.0
C54 C 0.05281 0.32536 0.51044 0.0
C55 C 0.88675 0.04777 0.5217 0.0
H56 H 0.89945 0.01313 0.51461 0.0
H57 H 0.85393 0.04963 0.49146 0.0
H58 H 0.88296 0.05583 0.57834 0.0
O59 O 0.94394 0.17483 0.658 0.0
O60 O 0.96794 0.24449 0.68247 0.0
C61 C 0.06107 0.15816 0.69303 0.0
O62 O 0.97502 0.2571 0.51937 0.0
O63 O 0.93864 0.195 0.52071 0.0
Zn64 Zn 0.88327 0.05718 0.04894 0.0
O65 O 0.89039 0.01395 0.95602 0.0
C66 C 0.81942 0.10755 0.96167 0.0
Zn67 Zn 0.81536 0.02774 0.04461 0.0
C68 C 0.86464 0.98211 0.92832 0.0
O69 O 0.82811 0.97655 0.9547 0.0
C70 C 0.84125 0.10486 0.16155 0.0
O71 O 0.84484 0.98005 0.12135 0.0
O72 O 0.91118 1.00663 0.10862 0.0
N73 N 0.74714 1.00648 0.04409 0.0
C74 C 0.71551 0.01516 0.0891 0.0
C75 C 0.68237 0.98546 0.99312 0.0
N76 N 0.72592 0.98782 0.98476 0.0
N77 N 0.67409 1.00289 0.05801 0.0
C78 C 0.95441 0.10337 0.97692 0.0
C79 C 0.99685 0.13449 0.06238 0.0
N80 N 0.94079 0.0898 0.03629 0.0
N81 N 0.96648 0.11039 0.08942 0.0
N82 N 0.99049 0.13095 0.99133 0.0
H83 H 0.94554 0.05915 0.88108 0.0
H84 H 0.93686 0.11797 0.87028 0.0
H85 H 0.89615 0.08486 0.90261 0.0
C86 C 0.93182 0.09097 0.90414 0.0
C87 C 0.72609 0.03292 0.16444 0.0
H88 H 0.75984 0.02273 0.18363 0.0
H89 H 0.70194 0.01992 0.19721 0.0
H90 H 0.72489 0.07023 0.16972 0.0
O91 O 0.80796 0.08081 0.13335 0.0
O92 O 0.8783 0.09864 0.138 0.0
C93 C 0.88728 0.97876 0.13507 0.0
O94 O 0.85637 0.10743 0.99675 0.0
O95 O 0.79235 0.07545 0.96604 0.0
Zn96 Zn 0.0715 0.85662 0.54992 0.0
O97 O 0.12274 0.84331 0.49058 0.0
C98 C 0.99912 0.82931 0.42866 0.0
Zn99 Zn 0.05305 0.78296 0.54003 0.0
C100 C 0.12906 0.80604 0.45628 0.0
O101 O 0.10334 0.77284 0.46182 0.0
C102 C 0.99704 0.84087 0.63873 0.0
O103 O 0.10634 0.7812 0.62702 0.0
O104 O 0.11612 0.85478 0.63613 0.0
N105 N 0.04361 0.71055 0.53376 0.0
C106 C 0.04212 0.67926 0.58025 0.0
C107 C 0.04277 0.64291 0.47952 0.0
N108 N 0.04387 0.68724 0.47144 0.0
N109 N 0.04177 0.6362 0.54746 0.0
C110 C 0.07896 0.94007 0.48402 0.0
C111 C 0.04806 0.98504 0.55487 0.0
N112 N 0.08373 0.92339 0.54649 0.0
N113 N 0.06629 0.95278 0.59166 0.0
N114 N 0.05306 0.97633 0.48575 0.0
H115 H 0.08448 0.88772 0.39847 0.0
H116 H 0.13507 0.91643 0.43233 0.0
H117 H 0.09425 0.9438 0.37759 0.0
C118 C 0.09907 0.92087 0.41931 0.0
C119 C 0.04369 0.69124 0.65781 0.0
H120 H 0.05537 0.72638 0.67289 0.0
H121 H 0.06545 0.66777 0.68576 0.0
H122 H 0.00987 0.68837 0.67404 0.0
O123 O 0.00407 0.79919 0.61893 0.0
O124 O 0.01938 0.87088 0.61492 0.0
C125 C 0.12652 0.81697 0.65671 0.0
O126 O 0.02583 0.85915 0.45976 0.0
O127 O 0.9997 0.7904 0.45122 0.0
H128 H 0.00721 0.09591 0.84798 0.0
H129 H 0.07171 0.18279 1.01044 0.0
H130 H 0.11749 0.12125 0.0515 0.0
H131 H 0.10606 0.04216 0.0767 0.0
H132 H 0.01955 0.9527 0.93353 0.0
H133 H 0.00744 0.01227 0.85494 0.0
C134 C 0.02961 0.0999 0.89542 0.0
C135 C 0.02549 0.13675 0.94614 0.0
C136 C 0.04755 0.0619 0.92385 0.0
C137 C 0.0668 0.14935 0.983 0.0
C138 C 0.09213 0.11406 1.0081 0.0
C139 C 0.08483 0.03543 0.02814 0.0
C140 C 0.06181 0.9939 0.01195 0.0
C141 C 0.0773 0.06961 0.98531 0.0
C142 C 0.03552 0.98526 0.94796 0.0
C143 C 0.02956 0.01876 0.90261 0.0
H144 H 0.04287 0.01753 0.3667 0.0
H145 H 0.97781 0.93081 0.49075 0.0
H146 H 0.90633 0.94604 0.43057 0.0
H147 H 0.86554 1.01094 0.38757 0.0
H148 H 0.92861 0.10511 0.28552 0.0
H149 H 0.99487 0.05884 0.27834 0.0
C150 C 0.01325 1.00105 0.37863 0.0
C151 C 0.01469 0.97597 0.43617 0.0
C152 C 0.9719 1.01143 0.34584 0.0
C153 C 0.97659 0.95231 0.44883 0.0
C154 C 0.93578 0.96055 0.41401 0.0
C155 C 0.89494 0.02108 0.36564 0.0
C156 C 0.90392 0.06682 0.3632 0.0
C157 C 0.93293 0.99463 0.36999 0.0
C158 C 0.9288 0.07295 0.30656 0.0
C159 C 0.96727 0.04696 0.30324 0.0
H160 H 0.59929 0.95433 1.01058 0.0
H161 H 0.64566 0.06971 0.15278 0.0
H162 H 0.5708 0.08296 0.18443 0.0
H163 H 0.49011 0.06422 0.16852 0.0
H164 H 0.44344 0.95381 0.0165 0.0
H165 H 0.51901 0.93671 0.99276 0.0
C166 C 0.59331 0.98218 0.04915 0.0
C167 C 0.62957 1.00969 0.08089 0.0
C168 C 0.54926 0.99077 0.0656 0.0
C169 C 0.61999 0.04618 0.12959 0.0
C170 C 0.5765 0.05439 0.14699 0.0
C171 C 0.49639 0.03611 0.13061 0.0
C172 C 0.46011 1.0093 0.09694 0.0
C173 C 0.54066 0.02712 0.11513 0.0
C174 C 0.46972 0.97376 0.04667 0.0
C175 C 0.51341 0.96433 0.03194 0.0
H176 H 0.01481 0.45271 0.68035 0.0
H177 H 0.09942 0.40459 0.52238 0.0
H178 H 0.10279 0.47971 0.48502 0.0
H179 H 0.08211 0.56034 0.49621 0.0
H180 H 0.99913 0.60953 0.65573 0.0
H181 H 0.99595 0.53422 0.69397 0.0
C182 C 0.03403 0.45848 0.63763 0.0
C183 C 0.05544 0.42145 0.60289 0.0
C184 C 0.03678 0.5028 0.6171 0.0
C185 C 0.08061 0.43072 0.54833 0.0
C186 C 0.08319 0.47438 0.52748 0.0
C187 C 0.06347 0.5548 0.5397 0.0
C188 C 0.04173 0.59177 0.5737 0.0
C189 C 0.0613 0.51075 0.56112 0.0
C190 C 0.01758 0.58303 0.62967 0.0
C191 C 0.01524 0.5394 0.65109 0.0
H192 H 0.12403 0.20419 0.40469 0.0
H193 H 0.07491 0.08426 0.48017 0.0
H194 H 0.11847 0.0376 0.40375 0.0
H195 H 0.16452 0.02814 0.30712 0.0
H196 H 0.21777 0.14422 0.229 0.0
H197 H 0.17877 0.19404 0.31261 0.0
C198 C 0.12305 0.16794 0.40461 0.0
C199 C 0.09494 0.14834 0.44816 0.0
C200 C 0.14843 0.14001 0.35859 0.0
C201 C 0.09494 0.10096 0.44689 0.0
C202 C 0.11996 0.07378 0.40279 0.0
C203 C 0.16815 0.06439 0.30888 0.0
C204 C 0.19416 0.08219 0.26159 0.0
C205 C 0.14581 0.09262 0.3571 0.0
C206 C 0.19844 0.12937 0.26512 0.0
C207 C 0.17571 0.15792 0.31276 0.0
H208 H 0.86279 0.16942 0.68243 0.0
H209 H 0.94868 0.25943 0.82511 0.0
H210 H 0.90705 0.24242 0.92224 0.0
H211 H 0.85759 0.18988 0.96865 0.0
H212 H 0.77939 0.09242 0.82688 0.0
H213 H 0.80517 0.12553 0.72703 0.0
C214 C 0.87161 0.18648 0.7345 0.0
C215 C 0.90914 0.21558 0.74649 0.0
C216 C 0.84884 0.1748 0.79028 0.0
C217 C 0.91993 0.23738 0.81412 0.0
C218 C 0.89635 0.22713 0.86978 0.0
C219 C 0.84464 0.17707 0.91579 0.0
C220 C 0.81657 0.13839 0.90547 0.0
C221 C 0.86222 0.19425 0.85888 0.0
C222 C 0.80035 0.12225 0.83671 0.0
C223 C 0.81596 0.1407 0.77954 0.0
H224 H 0.02379 0.86683 0.31716 0.0
H225 H 0.90716 0.8254 0.40377 0.0
H226 H 0.86077 0.86559 0.31867 0.0
H227 H 0.85446 0.92066 0.22635 0.0
H228 H 0.97485 0.96107 0.14646 0.0
H229 H 0.01749 0.9136 0.22127 0.0
C230 C 0.98814 0.86567 0.31672 0.0
C231 C 0.96934 0.84249 0.3669 0.0
C232 C 0.96193 0.88981 0.26894 0.0
C233 C 0.92285 0.84186 0.36509 0.0
C234 C 0.89627 0.86553 0.31675 0.0
C235 C 0.88995 0.9188 0.22474 0.0
C236 C 0.91083 0.9456 0.18025 0.0
C237 C 0.91549 0.89093 0.26939 0.0
C238 C 0.95714 0.94202 0.17988 0.0
C239 C 0.98202 0.91464 0.22292 0.0
H240 H 0.20046 0.86845 0.6819 0.0
H241 H 0.12848 0.76612 0.76712 0.0
H242 H 0.17337 0.78211 0.88003 0.0
H243 H 0.22069 0.83659 0.95922 0.0
H244 H 0.28944 0.94151 0.87468 0.0
H245 H 0.2598 0.91197 0.75605 0.0
C246 C 0.19552 0.84875 0.72471 0.0
C247 C 0.16074 0.81669 0.71686 0.0
C248 C 0.22089 0.85877 0.7895 0.0
C249 C 0.15495 0.79096 0.77206 0.0
C250 C 0.18043 0.80039 0.8367 0.0
C251 C 0.2308 0.8517 0.91445 0.0
C252 C 0.2568 0.89153 0.92569 0.0
C253 C 0.21186 0.83576 0.84685 0.0
C254 C 0.26978 0.91076 0.8675 0.0
C255 C 0.25206 0.89434 0.79971 0.0
H256 H 0.88721 0.8917 0.90266 0.0
H257 H 0.87491 0.01573 0.80731 0.0
H258 H 0.91255 0.98265 0.70857 0.0
H259 H 0.95497 0.92125 0.65351 0.0
H260 H 0.96772 0.79576 0.74451 0.0
H261 H 0.92389 0.826 0.83915 0.0
C262 C 0.89144 0.91088 0.85907 0.0
C263 C 0.87729 0.9562 0.86225 0.0
C264 C 0.91395 0.89147 0.80175 0.0
C265 C 0.88463 0.9808 0.80609 0.0
C266 C 0.90659 0.96194 0.74963 0.0
C267 C 0.94776 0.9001 0.69346 0.0
C268 C 0.96508 0.85609 0.69144 0.0
C269 C 0.92235 0.91773 0.74757 0.0
C270 C 0.95486 0.82951 0.74394 0.0
C271 C 0.92988 0.84702 0.79852 0.0
H272 H 0.21264 0.84119 0.18622 0.0
H273 H 0.28688 0.93843 0.33366 0.0
H274 H 0.26169 0.90191 0.43102 0.0
H275 H 0.20562 0.85382 0.47197 0.0
H276 H 0.12606 0.76139 0.32356 0.0
H277 H 0.16681 0.78364 0.22879 0.0
C278 C 0.22487 0.85318 0.23977 0.0
C279 C 0.25173 0.89255 0.25267 0.0
C280 C 0.20838 0.83331 0.29518 0.0
C281 C 0.26694 0.90795 0.32215 0.0
C282 C 0.25178 0.88745 0.37781 0.0
C283 C 0.19824 0.83732 0.41918 0.0
C284 C 0.16253 0.80608 0.4048 0.0
C285 C 0.2206 0.85177 0.36475 0.0
C286 C 0.15345 0.78507 0.33629 0.0
C287 C 0.17642 0.79836 0.28195 0.0
H288 H 0.12888 0.18944 0.79928 0.0
H289 H 0.06021 0.06834 0.70204 0.0
H290 H 0.10238 0.02408 0.78187 0.0
H291 H 0.15576 0.01804 0.88309 0.0
H292 H 0.22786 0.13544 0.98317 0.0
H293 H 0.18807 0.18189 0.89956 0.0
C294 C 0.12329 0.1534 0.79533 0.0
C295 C 0.09048 0.13301 0.74381 0.0
C296 C 0.14845 0.12695 0.84246 0.0
C297 C 0.08448 0.08587 0.74036 0.0
C298 C 0.1089 0.06002 0.78628 0.0
C299 C 0.16345 0.05373 0.88621 0.0
C300 C 0.19511 0.07292 0.93967 0.0
C301 C 0.14053 0.08005 0.83797 0.0
C302 C 0.20419 0.11938 0.9424 0.0
C303 C 0.18101 0.14607 0.8947 0.0
H304 H 0.88884 0.18182 0.1868 0.0
H305 H 0.79148 0.1048 0.27334 0.0
H306 H 0.80608 0.15118 0.38626 0.0
H307 H 0.85812 0.20094 0.46469 0.0
H308 H 0.96233 0.26969 0.38036 0.0
H309 H 0.93202 0.24134 0.26151 0.0
C310 C 0.86986 0.17602 0.22989 0.0
C311 C 0.83952 0.1395 0.2222 0.0
C312 C 0.87979 0.20159 0.29499 0.0
C313 C 0.81485 0.13264 0.27793 0.0
C314 C 0.82353 0.15898 0.34259 0.0
C315 C 0.873 0.21143 0.42002 0.0
C316 C 0.9129 0.23687 0.43141 0.0
C317 C 0.85749 0.19193 0.35248 0.0
C318 C 0.93167 0.2504 0.37329 0.0
C319 C 0.91484 0.23326 0.30532 0.0
loop_
_geom_bond_atom_site_label_1
_geom_bond_atom_site_label_2
_geom_bond_distance
_geom_bond_site_symmetry_2
_ccdc_geom_bond_type
Zn0 O1 2.069 1_554 S
Zn0 O8 2.067 . S
Zn0 N16 2.035 1_565 S
Zn0 O28 2.037 1_565 S
Zn0 O30 2.046 1_565 S
O1 Zn0 2.069 1_556 S
O1 C4 1.259 . S
C2 O30 1.256 1_556 S
C2 O31 1.244 . S
Zn3 O5 2.055 1_554 S
Zn3 O7 2.066 . S
Zn3 N9 2.035 1_565 S
Zn3 O27 2.057 1_565 S
Zn3 O31 2.042 1_564 S
C4 O1 1.259 . S
C4 O5 1.254 . S
O5 Zn3 2.055 1_556 S
O5 C4 1.254 . S
C6 O27 1.256 . S
C6 O28 1.244 . S
O7 Zn3 2.066 . S
O7 C29 1.259 . S
O8 Zn0 2.067 . S
O8 C29 1.254 . S
N9 Zn3 2.035 1_545 S
N9 C10 1.298 . S
N9 N12 1.398 1_554 S
C10 N9 1.298 . S
C10 N13 1.367 . S
C10 C23 1.481 1_545 S
C11 N12 1.299 . S
C11 N13 1.379 1_556 S
N12 N9 1.398 1_556 S
N12 C11 1.299 . S
N13 C10 1.367 . S
N13 C11 1.379 1_554 S
C14 N16 1.298 . S
C14 N18 1.367 . S
C14 C22 1.481 1_544 S
C15 N17 1.299 . S
C15 N18 1.379 . S
N16 Zn0 2.035 1_545 S
N16 C14 1.298 . S
N16 N17 1.398 . S
N17 C15 1.299 . S
N17 N16 1.398 . S
N18 C14 1.367 . S
N18 C15 1.379 . S
H19 C22 0.980 . S
H20 C22 0.981 . S
H21 C22 0.981 1_545 S
C22 C14 1.481 1_566 S
C22 H19 0.980 . S
C22 H20 0.981 . S
C22 H21 0.981 1_565 S
C23 C10 1.481 1_565 S
C23 H24 0.980 . S
C23 H25 0.981 . S
C23 H26 0.981 1_565 S
H24 C23 0.980 . S
H25 C23 0.981 . S
H26 C23 0.981 1_545 S
O27 Zn3 2.057 1_545 S
O27 C6 1.256 . S
O28 Zn0 2.037 1_545 S
O28 C6 1.244 . S
C29 O7 1.259 . S
C29 O8 1.254 . S
O30 Zn0 2.046 1_545 S
O30 C2 1.256 1_554 S
O31 C2 1.244 . S
O31 Zn3 2.042 1_546 S
Zn32 O33 2.055 . S
Zn32 O40 2.046 . S
Zn32 N48 2.036 . S
Zn32 O60 2.053 1_455 S
Zn32 O62 2.066 1_455 S
O33 Zn32 2.055 . S
O33 C36 1.259 . S
C34 O62 1.256 . S
C34 O63 1.244 . S
Zn35 O37 2.046 . S
Zn35 O39 2.055 . S
Zn35 N41 2.036 . S
Zn35 O59 2.066 1_455 S
Zn35 O63 2.053 1_455 S
C36 O33 1.259 . S
C36 O37 1.254 . S
O37 Zn35 2.046 . S
O37 C36 1.254 . S
C38 O59 1.256 . S
C38 O60 1.244 . S
O39 Zn35 2.055 . S
O39 C61 1.259 . S
O40 Zn32 2.046 . S
O40 C61 1.254 . S
N41 Zn35 2.036 . S
N41 C42 1.298 . S
N41 N44 1.398 . S
C42 N41 1.298 . S
C42 N45 1.367 . S
C42 C55 1.481 . S
C43 N44 1.299 . S
C43 N45 1.379 . S
N44 N41 1.398 . S
N44 C43 1.299 . S
N45 C42 1.367 . S
N45 C43 1.379 . S
C46 N48 1.298 . S
C46 N50 1.367 . S
C46 C54 1.481 . S
C47 N49 1.299 . S
C47 N50 1.379 . S
N48 Zn32 2.036 . S
N48 C46 1.298 . S
N48 N49 1.398 . S
N49 C47 1.299 . S
N49 N48 1.398 . S
N50 C46 1.367 . S
N50 C47 1.379 . S
H51 C54 0.980 . S
H52 C54 0.981 . S
H53 C54 0.981 . S
C54 C46 1.481 . S
C54 H51 0.980 . S
C54 H52 0.981 . S
C54 H53 0.981 . S
C55 C42 1.481 . S
C55 H56 0.980 . S
C55 H57 0.981 . S
C55 H58 0.981 . S
H56 C55 0.980 . S
H57 C55 0.981 . S
H58 C55 0.981 . S
O59 Zn35 2.066 1_655 S
O59 C38 1.256 . S
O60 Zn32 2.053 1_655 S
O60 C38 1.244 . S
C61 O39 1.259 . S
C61 O40 1.254 . S
O62 Zn32 2.066 1_655 S
O62 C34 1.256 . S
O63 C34 1.244 . S
O63 Zn35 2.053 1_655 S
Zn64 O65 2.055 1_554 S
Zn64 O72 2.046 . S
Zn64 N80 2.035 1_565 S
Zn64 O92 2.053 1_565 S
Zn64 O94 2.066 1_564 S
O65 Zn64 2.055 1_556 S
O65 C68 1.259 . S
C66 O94 1.256 . S
C66 O95 1.244 . S
Zn67 O69 2.046 1_554 S
Zn67 O71 2.055 . S
Zn67 N73 2.036 1_554 S
Zn67 O91 2.066 1_565 S
Zn67 O95 2.053 1_564 S
C68 O65 1.259 . S
C68 O69 1.254 . S
O69 Zn67 2.046 1_556 S
O69 C68 1.254 . S
C70 O91 1.256 . S
C70 O92 1.244 . S
O71 Zn67 2.055 . S
O71 C93 1.259 . S
O72 Zn64 2.046 . S
O72 C93 1.254 . S
N73 Zn67 2.036 1_556 S
N73 C74 1.298 1_556 S
N73 N76 1.398 1_565 S
C74 N73 1.298 1_554 S
C74 N77 1.367 1_565 S
C74 C87 1.481 . S
C75 N76 1.299 . S
C75 N77 1.379 1_556 S
N76 N73 1.398 1_545 S
N76 C75 1.299 . S
N77 C74 1.367 1_545 S
N77 C75 1.379 1_554 S
C78 N80 1.286 1_566 S
C78 N82 1.363 1_666 S
C78 C86 1.496 . S
C79 N81 1.299 1_455 S
C79 N82 1.379 . S
N80 Zn64 2.035 1_545 S
N80 C78 1.286 1_544 S
N80 N81 1.407 . S
N81 C79 1.299 1_655 S
N81 N80 1.407 . S
N82 C78 1.363 1_444 S
N82 C79 1.379 . S
H83 C86 0.980 . S
H84 C86 0.981 . S
H85 C86 0.981 1_545 S
C86 C78 1.496 . S
C86 H83 0.980 . S
C86 H84 0.981 . S
C86 H85 0.981 1_565 S
C87 C74 1.481 . S
C87 H88 0.980 . S
C87 H89 0.981 . S
C87 H90 0.981 1_565 S
H88 C87 0.980 . S
H89 C87 0.981 . S
H90 C87 0.981 1_545 S
O91 Zn67 2.066 1_545 S
O91 C70 1.256 . S
O92 Zn64 2.053 1_545 S
O92 C70 1.244 . S
C93 O71 1.259 . S
C93 O72 1.254 . S
O94 Zn64 2.066 1_546 S
O94 C66 1.256 . S
O95 C66 1.244 . S
O95 Zn67 2.053 1_546 S
Zn96 O97 2.055 . S
Zn96 O104 2.046 . S
Zn96 N112 2.036 . S
Zn96 O124 2.053 1_455 S
Zn96 O126 2.066 1_455 S
O97 Zn96 2.055 . S
O97 C100 1.259 . S
C98 O126 1.256 . S
C98 O127 1.244 . S
Zn99 O101 2.046 . S
Zn99 O103 2.055 . S
Zn99 N105 2.036 . S
Zn99 O123 2.066 1_455 S
Zn99 O127 2.053 1_455 S
C100 O97 1.259 . S
C100 O101 1.254 . S
O101 Zn99 2.046 . S
O101 C100 1.254 . S
C102 O123 1.256 . S
C102 O124 1.244 . S
O103 Zn99 2.055 . S
O103 C125 1.259 . S
O104 Zn96 2.046 . S
O104 C125 1.254 . S
N105 Zn99 2.036 . S
N105 C106 1.298 . S
N105 N108 1.398 . S
C106 N105 1.298 . S
C106 N109 1.367 . S
C106 C119 1.481 . S
C107 N108 1.303 . S
C107 N109 1.382 . S
N108 N105 1.398 . S
N108 C107 1.303 . S
N109 C106 1.367 . S
N109 C107 1.382 . S
C110 N112 1.298 . S
C110 N114 1.367 . S
C110 C118 1.481 . S
C111 N113 1.299 . S
C111 N114 1.379 . S
N112 Zn96 2.036 . S
N112 C110 1.298 . S
N112 N113 1.398 . S
N113 C111 1.299 . S
N113 N112 1.398 . S
N114 C110 1.367 . S
N114 C111 1.379 . S
H115 C118 0.980 . S
H116 C118 0.981 . S
H117 C118 0.981 . S
C118 C110 1.481 . S
C118 H115 0.980 . S
C118 H116 0.981 . S
C118 H117 0.981 . S
C119 C106 1.481 . S
C119 H120 0.980 . S
C119 H121 0.981 . S
C119 H122 0.981 . S
H120 C119 0.980 . S
H121 C119 0.981 . S
H122 C119 0.981 . S
O123 Zn99 2.066 1_655 S
O123 C102 1.256 . S
O124 Zn96 2.053 1_655 S
O124 C102 1.244 . S
C125 O103 1.259 . S
C125 O104 1.254 . S
O126 Zn96 2.066 1_655 S
O126 C98 1.256 . S
O127 C98 1.244 . S
O127 Zn99 2.053 1_655 S
H128 C134 0.930 1_655 S
H129 C137 0.930 . S
H130 C138 0.930 . S
H131 C139 0.930 . S
H132 C142 0.930 . S
H133 C143 0.930 . S
C134 H128 0.930 1_455 S
C134 C135 1.355 1_565 S
C134 C136 1.415 1_566 S
C135 C134 1.355 1_545 S
C135 C137 1.419 . S
C136 C134 1.415 1_544 S
C136 C141 1.425 . S
C136 C143 1.409 1_445 S
C137 H129 0.930 . S
C137 C135 1.419 . S
C137 C138 1.362 1_556 S
C138 H130 0.930 . S
C138 C137 1.362 1_554 S
C138 C141 1.409 . S
C139 H131 0.930 . S
C139 C140 1.355 . S
C139 C141 1.415 . S
C140 C139 1.355 . S
C140 C142 1.419 1_445 S
C141 C136 1.425 . S
C141 C138 1.409 . S
C141 C139 1.415 . S
C142 H132 0.930 . S
C142 C140 1.419 1_665 S
C142 C143 1.362 . S
C143 H133 0.930 . S
C143 C136 1.409 1_665 S
C143 C142 1.362 . S
H144 C150 0.930 . S
H145 C153 0.930 . S
H146 C154 0.930 . S
H147 C155 0.930 . S
H148 C158 0.930 . S
H149 C159 0.930 . S
C150 H144 0.930 . S
C150 C151 1.355 . S
C150 C152 1.415 . S
C151 C150 1.355 . S
C151 C153 1.419 1_545 S
C152 C150 1.415 . S
C152 C157 1.425 1_545 S
C152 C159 1.409 . S
C153 H145 0.930 . S
C153 C151 1.419 1_565 S
C153 C154 1.362 . S
C154 H146 0.930 . S
C154 C153 1.362 . S
C154 C157 1.409 . S
C155 H147 0.930 . S
C155 C156 1.355 . S
C155 C157 1.415 . S
C156 C155 1.355 . S
C156 C158 1.419 1_565 S
C157 C152 1.425 1_565 S
C157 C154 1.409 . S
C157 C155 1.415 . S
C158 H148 0.930 . S
C158 C156 1.419 1_545 S
C158 C159 1.362 . S
C159 H149 0.930 . S
C159 C152 1.409 . S
C159 C158 1.362 . S
H160 C166 0.930 . S
H161 C169 0.930 . S
H162 C170 0.930 . S
H163 C171 0.930 . S
H164 C174 0.930 . S
H165 C175 0.930 . S
C166 H160 0.930 . S
C166 C167 1.355 1_556 S
C166 C168 1.415 1_556 S
C167 C166 1.355 1_554 S
C167 C169 1.419 . S
C168 C166 1.415 1_554 S
C168 C173 1.425 . S
C168 C175 1.409 1_554 S
C169 H161 0.930 . S
C169 C167 1.419 . S
C169 C170 1.362 . S
C170 H162 0.930 . S
C170 C169 1.362 . S
C170 C173 1.409 . S
C171 H163 0.930 . S
C171 C172 1.355 . S
C171 C173 1.415 . S
C172 C171 1.355 . S
C172 C174 1.419 1_554 S
C173 C168 1.425 . S
C173 C170 1.409 . S
C173 C171 1.415 . S
C174 H164 0.930 . S
C174 C172 1.419 1_556 S
C174 C175 1.362 . S
C175 H165 0.930 . S
C175 C168 1.409 1_556 S
C175 C174 1.362 . S
H176 C182 0.944 . S
H177 C185 0.930 . S
H178 C186 0.930 . S
H179 C187 0.930 . S
H180 C190 0.930 . S
H181 C191 0.930 . S
C182 H176 0.944 . S
C182 C183 1.344 1_655 S
C182 C184 1.412 1_655 S
C183 C182 1.344 1_455 S
C183 C185 1.419 . S
C184 C182 1.412 1_455 S
C184 C189 1.425 . S
C184 C191 1.409 1_455 S
C185 H177 0.930 . S
C185 C183 1.419 . S
C185 C186 1.362 . S
C186 H178 0.930 . S
C186 C185 1.362 . S
C186 C189 1.409 . S
C187 H179 0.930 . S
C187 C188 1.355 . S
C187 C189 1.415 . S
C188 C187 1.355 . S
C188 C190 1.419 1_455 S
C189 C184 1.425 . S
C189 C186 1.409 . S
C189 C187 1.415 . S
C190 H180 0.930 . S
C190 C188 1.419 1_655 S
C190 C191 1.362 . S
C191 H181 0.930 . S
C191 C184 1.409 1_655 S
C191 C190 1.362 . S
H192 C198 0.930 . S
H193 C201 0.930 . S
H194 C202 0.930 . S
H195 C203 0.930 . S
H196 C206 0.930 . S
H197 C207 0.930 . S
C198 H192 0.930 . S
C198 C199 1.355 . S
C198 C200 1.415 . S
C199 C198 1.355 . S
C199 C201 1.419 . S
C200 C198 1.415 . S
C200 C205 1.425 . S
C200 C207 1.409 . S
C201 H193 0.930 . S
C201 C199 1.419 . S
C201 C202 1.362 . S
C202 H194 0.930 . S
C202 C201 1.362 . S
C202 C205 1.409 . S
C203 H195 0.930 . S
C203 C204 1.355 . S
C203 C205 1.415 . S
C204 C203 1.355 . S
C204 C206 1.419 . S
C205 C200 1.425 . S
C205 C202 1.409 . S
C205 C203 1.415 . S
C206 H196 0.930 . S
C206 C204 1.419 . S
C206 C207 1.362 . S
C207 H197 0.930 . S
C207 C200 1.409 . S
C207 C206 1.362 . S
H208 C214 0.930 . S
H209 C217 0.930 . S
H210 C218 0.930 . S
H211 C219 0.930 . S
H212 C222 0.930 . S
H213 C223 0.930 . S
C214 H208 0.930 . S
C214 C215 1.355 . S
C214 C216 1.415 . S
C215 C214 1.355 . S
C215 C217 1.419 . S
C216 C214 1.415 . S
C216 C221 1.425 . S
C216 C223 1.409 . S
C217 H209 0.930 . S
C217 C215 1.419 . S
C217 C218 1.362 . S
C218 H210 0.930 . S
C218 C217 1.362 . S
C218 C221 1.409 . S
C219 H211 0.930 . S
C219 C220 1.355 . S
C219 C221 1.415 . S
C220 C219 1.355 . S
C220 C222 1.419 . S
C221 C216 1.425 . S
C221 C218 1.409 . S
C221 C219 1.415 . S
C222 H212 0.930 . S
C222 C220 1.419 . S
C222 C223 1.362 . S
C223 H213 0.930 . S
C223 C216 1.409 . S
C223 C222 1.362 . S
H224 C230 0.930 . S
H225 C233 0.930 . S
H226 C234 0.930 . S
H227 C235 0.930 . S
H228 C238 0.930 . S
H229 C239 0.930 . S
C230 H224 0.930 . S
C230 C231 1.355 . S
C230 C232 1.415 . S
C231 C230 1.355 . S
C231 C233 1.419 . S
C232 C230 1.415 . S
C232 C237 1.425 . S
C232 C239 1.409 . S
C233 H225 0.930 . S
C233 C231 1.419 . S
C233 C234 1.362 . S
C234 H226 0.930 . S
C234 C233 1.362 . S
C234 C237 1.409 . S
C235 H227 0.930 . S
C235 C236 1.355 . S
C235 C237 1.415 . S
C236 C235 1.355 . S
C236 C238 1.419 . S
C237 C232 1.425 . S
C237 C234 1.409 . S
C237 C235 1.415 . S
C238 H228 0.930 . S
C238 C236 1.419 . S
C238 C239 1.362 . S
C239 H229 0.930 . S
C239 C232 1.409 . S
C239 C238 1.362 . S
H240 C246 0.930 . S
H241 C249 0.930 . S
H242 C250 0.930 . S
H243 C251 0.930 . S
H244 C254 0.930 . S
H245 C255 0.930 . S
C246 H240 0.930 . S
C246 C247 1.355 . S
C246 C248 1.415 . S
C247 C246 1.355 . S
C247 C249 1.419 . S
C248 C246 1.415 . S
C248 C253 1.425 . S
C248 C255 1.409 . S
C249 H241 0.930 . S
C249 C247 1.419 . S
C249 C250 1.362 . S
C250 H242 0.930 . S
C250 C249 1.362 . S
C250 C253 1.409 . S
C251 H243 0.930 . S
C251 C252 1.355 . S
C251 C253 1.415 . S
C252 C251 1.355 . S
C252 C254 1.419 . S
C253 C248 1.425 . S
C253 C250 1.409 . S
C253 C251 1.415 . S
C254 H244 0.930 . S
C254 C252 1.419 . S
C254 C255 1.362 . S
C255 H245 0.930 . S
C255 C248 1.409 . S
C255 C254 1.362 . S
H256 C262 0.930 . S
H257 C265 0.930 . S
H258 C266 0.930 . S
H259 C267 0.930 . S
H260 C270 0.930 . S
H261 C271 0.930 . S
C262 H256 0.930 . S
C262 C263 1.355 . S
C262 C264 1.415 . S
C263 C262 1.355 . S
C263 C265 1.419 . S
C264 C262 1.415 . S
C264 C269 1.425 . S
C264 C271 1.409 . S
C265 H257 0.930 . S
C265 C263 1.419 . S
C265 C266 1.362 . S
C266 H258 0.930 . S
C266 C265 1.362 . S
C266 C269 1.409 . S
C267 H259 0.930 . S
C267 C268 1.355 . S
C267 C269 1.415 . S
C268 C267 1.355 . S
C268 C270 1.419 . S
C269 C264 1.425 . S
C269 C266 1.409 . S
C269 C267 1.415 . S
C270 H260 0.930 . S
C270 C268 1.419 . S
C270 C271 1.362 . S
C271 H261 0.930 . S
C271 C264 1.409 . S
C271 C270 1.362 . S
H272 C278 0.930 . S
H273 C281 0.930 . S
H274 C282 0.930 . S
H275 C283 0.930 . S
H276 C286 0.930 . S
H277 C287 0.930 . S
C278 H272 0.930 . S
C278 C279 1.355 . S
C278 C280 1.415 . S
C279 C278 1.355 . S
C279 C281 1.419 . S
C280 C278 1.415 . S
C280 C285 1.425 . S
C280 C287 1.409 . S
C281 H273 0.930 . S
C281 C279 1.419 . S
C281 C282 1.362 . S
C282 H274 0.930 . S
C282 C281 1.362 . S
C282 C285 1.409 . S
C283 H275 0.930 . S
C283 C284 1.355 . S
C283 C285 1.415 . S
C284 C283 1.355 . S
C284 C286 1.419 . S
C285 C280 1.425 . S
C285 C282 1.409 . S
C285 C283 1.415 . S
C286 H276 0.930 . S
C286 C284 1.419 . S
C286 C287 1.362 . S
C287 H277 0.930 . S
C287 C280 1.409 . S
C287 C286 1.362 . S
H288 C294 0.930 . S
H289 C297 0.930 . S
H290 C298 0.930 . S
H291 C299 0.930 . S
H292 C302 0.930 . S
H293 C303 0.930 . S
C294 H288 0.930 . S
C294 C295 1.355 . S
C294 C296 1.415 . S
C295 C294 1.355 . S
C295 C297 1.419 . S
C296 C294 1.415 . S
C296 C301 1.425 . S
C296 C303 1.409 . S
C297 H289 0.930 . S
C297 C295 1.419 . S
C297 C298 1.362 . S
C298 H290 0.930 . S
C298 C297 1.362 . S
C298 C301 1.409 . S
C299 H291 0.930 . S
C299 C300 1.355 . S
C299 C301 1.415 . S
C300 C299 1.355 . S
C300 C302 1.419 . S
C301 C296 1.425 . S
C301 C298 1.409 . S
C301 C299 1.415 . S
C302 H292 0.930 . S
C302 C300 1.419 . S
C302 C303 1.362 . S
C303 H293 0.930 . S
C303 C296 1.409 . S
C303 C302 1.362 . S
H304 C310 0.930 . S
H305 C313 0.930 . S
H306 C314 0.930 . S
H307 C315 0.930 . S
H308 C318 0.930 . S
H309 C319 0.930 . S
C310 H304 0.930 . S
C310 C311 1.355 . S
C310 C312 1.415 . S
C311 C310 1.355 . S
C311 C313 1.419 . S
C312 C310 1.415 . S
C312 C317 1.425 . S
C312 C319 1.409 . S
C313 H305 0.930 . S
C313 C311 1.419 . S
C313 C314 1.362 . S
C314 H306 0.930 . S
C314 C313 1.362 . S
C314 C317 1.409 . S
C315 H307 0.930 . S
C315 C316 1.355 . S
C315 C317 1.415 . S
C316 C315 1.355 . S
C316 C318 1.419 . S
C317 C312 1.425 . S
C317 C314 1.409 . S
C317 C315 1.415 . S
C318 H308 0.930 . S
C318 C316 1.419 . S
C318 C319 1.362 . S
C319 H309 0.930 . S
C319 C312 1.409 . S
C319 C318 1.362 . S
C135 N82 2.470 1_556 S
C140 N13 2.474 . S
C151 N114 2.432 1_545 S
C156 N45 2.424 1_565 S
C167 N77 1.169 . S
C172 N18 1.164 . S
C183 N50 1.165 . S
C188 N109 1.169 . S
C199 C36 1.818 . S
C204 C6 1.808 . S
C215 C38 2.162 . S
C220 C66 2.121 . S
C231 C98 1.824 . S
C236 C93 1.806 . S
C247 C125 1.530 . S
C252 C4 1.579 . S
C263 C68 1.916 . S
C268 C102 1.969 . S
C279 C29 2.089 . S
C284 C100 2.061 . S
C295 C61 1.950 . S
C300 C2 1.930 . S
C311 C70 1.873 . S
C316 C34 1.830 . S
