# Generated by pormake.
# Topology umz, (4)-cn, num edge types: 1
# Building blocks:
#     Node 0, Type 0, BuildingBlock: UXUYUI_clean_sbu_0, # of connection points: 4
#     Node 1, Type 0, BuildingBlock: UXUYUI_clean_sbu_0, # of connection points: 4
#     Node 2, Type 0, BuildingBlock: UXUYUI_clean_sbu_0, # of connection points: 4
#     Node 3, Type 0, BuildingBlock: UXUYUI_clean_sbu_0, # of connection points: 4
#     Node 4, Type 0, BuildingBlock: UXUYUI_clean_sbu_0, # of connection points: 4
#     Node 5, Type 0, BuildingBlock: UXUYUI_clean_sbu_0, # of connection points: 4
#     Node 6, Type 0, BuildingBlock: UXUYUI_clean_sbu_0, # of connection points: 4
#     Node 7, Type 0, BuildingBlock: UXUYUI_clean_sbu_0, # of connection points: 4
#     Node 8, Type 0, BuildingBlock: UXUYUI_clean_sbu_0, # of connection points: 4
#     Node 9, Type 0, BuildingBlock: UXUYUI_clean_sbu_0, # of connection points: 4
#     Node 10, Type 0, BuildingBlock: UXUYUI_clean_sbu_0, # of connection points: 4
#     Node 11, Type 0, BuildingBlock: UXUYUI_clean_sbu_0, # of connection points: 4
#     Node 12, Type 0, BuildingBlock: UXUYUI_clean_sbu_0, # of connection points: 4
#     Node 13, Type 0, BuildingBlock: UXUYUI_clean_sbu_0, # of connection points: 4
#     Node 14, Type 0, BuildingBlock: UXUYUI_clean_sbu_0, # of connection points: 4
#     Node 15, Type 0, BuildingBlock: UXUYUI_clean_sbu_0, # of connection points: 4
#     Edge 16, Type (0, 0), BuildingBlock: TEMPAE_clean_linker_10, # of connection points: 2
#     Edge 17, Type (0, 0), BuildingBlock: TEMPAE_clean_linker_10, # of connection points: 2
#     Edge 18, Type (0, 0), BuildingBlock: TEMPAE_clean_linker_10, # of connection points: 2
#     Edge 19, Type (0, 0), BuildingBlock: TEMPAE_clean_linker_10, # of connection points: 2
#     Edge 20, Type (0, 0), BuildingBlock: TEMPAE_clean_linker_10, # of connection points: 2
#     Edge 21, Type (0, 0), BuildingBlock: TEMPAE_clean_linker_10, # of connection points: 2
#     Edge 22, Type (0, 0), BuildingBlock: TEMPAE_clean_linker_10, # of connection points: 2
#     Edge 23, Type (0, 0), BuildingBlock: TEMPAE_clean_linker_10, # of connection points: 2
#     Edge 24, Type (0, 0), BuildingBlock: TEMPAE_clean_linker_10, # of connection points: 2
#     Edge 25, Type (0, 0), BuildingBlock: TEMPAE_clean_linker_10, # of connection points: 2
#     Edge 26, Type (0, 0), BuildingBlock: TEMPAE_clean_linker_10, # of connection points: 2
#     Edge 27, Type (0, 0), BuildingBlock: TEMPAE_clean_linker_10, # of connection points: 2
#     Edge 28, Type (0, 0), BuildingBlock: TEMPAE_clean_linker_10, # of connection points: 2
#     Edge 29, Type (0, 0), BuildingBlock: TEMPAE_clean_linker_10, # of connection points: 2
#     Edge 30, Type (0, 0), BuildingBlock: TEMPAE_clean_linker_10, # of connection points: 2
#     Edge 31, Type (0, 0), BuildingBlock: TEMPAE_clean_linker_10, # of connection points: 2
#     Edge 32, Type (0, 0), BuildingBlock: TEMPAE_clean_linker_10, # of connection points: 2
#     Edge 33, Type (0, 0), BuildingBlock: TEMPAE_clean_linker_10, # of connection points: 2
#     Edge 34, Type (0, 0), BuildingBlock: TEMPAE_clean_linker_10, # of connection points: 2
#     Edge 35, Type (0, 0), BuildingBlock: TEMPAE_clean_linker_10, # of connection points: 2
#     Edge 36, Type (0, 0), BuildingBlock: TEMPAE_clean_linker_10, # of connection points: 2
#     Edge 37, Type (0, 0), BuildingBlock: TEMPAE_clean_linker_10, # of connection points: 2
#     Edge 38, Type (0, 0), BuildingBlock: TEMPAE_clean_linker_10, # of connection points: 2
#     Edge 39, Type (0, 0), BuildingBlock: TEMPAE_clean_linker_10, # of connection points: 2
#     Edge 40, Type (0, 0), BuildingBlock: TEMPAE_clean_linker_10, # of connection points: 2
#     Edge 41, Type (0, 0), BuildingBlock: TEMPAE_clean_linker_10, # of connection points: 2
#     Edge 42, Type (0, 0), BuildingBlock: TEMPAE_clean_linker_10, # of connection points: 2
#     Edge 43, Type (0, 0), BuildingBlock: TEMPAE_clean_linker_10, # of connection points: 2
#     Edge 44, Type (0, 0), BuildingBlock: TEMPAE_clean_linker_10, # of connection points: 2
#     Edge 45, Type (0, 0), BuildingBlock: TEMPAE_clean_linker_10, # of connection points: 2
#     Edge 46, Type (0, 0), BuildingBlock: TEMPAE_clean_linker_10, # of connection points: 2
#     Edge 47, Type (0, 0), BuildingBlock: TEMPAE_clean_linker_10, # of connection points: 2
# Relax obj value: 0.340
# Max RMSD: 0.205
# Mean RMSD: 0.205
data_MOF--net-umz--node1-UXUYUI_clean_sbu_0--edge1-TEMPAE_clean_linker_10
_symmetry_space_group_name_H-M    P1
_symmetry_Int_Tables_number       1
_symmetry_cell_setting            triclinic
loop_
_symmetry_equiv_pos_as_xyz
'x, y, z'
_cell_length_a     87.974938
_cell_length_b     87.989981
_cell_length_c     31.992791
_cell_angle_alpha  90.024755
_cell_angle_beta   89.969931
_cell_angle_gamma 90.011627
loop_
_atom_site_label
_atom_site_type_symbol
_atom_site_fract_x
_atom_site_fract_y
_atom_site_fract_z
_atom_type_partial_charge
Li0 Li 0.00888 0.62985 0.18633 0.0
Li1 Li 0.03064 0.64112 0.22625 0.0
Li2 Li 0.02053 0.65373 0.16552 0.0
Li3 Li 0.03558 0.63166 0.15718 0.0
C4 C 0.00393 0.66254 0.2301 0.0
N5 N 0.99261 0.69086 0.25045 0.0
C6 C 0.01341 0.67343 0.24831 0.0
C7 C 0.98869 0.66602 0.22232 0.0
C8 C 0.00746 0.6877 0.25836 0.0
C9 C 0.98319 0.68041 0.23282 0.0
C10 C 0.0314 0.61098 0.2395 0.0
C11 C 0.04939 0.60141 0.29003 0.0
N12 N 0.03798 0.59378 0.30955 0.0
C13 C 0.01986 0.60301 0.26009 0.0
C14 C 0.04631 0.61013 0.25453 0.0
C15 C 0.02341 0.59439 0.29542 0.0
C16 C 0.98988 0.60509 0.16789 0.0
N17 N 0.99121 0.61785 0.19151 0.0
C18 C 0.96801 0.6123 0.22709 0.0
C19 C 0.98061 0.62164 0.2206 0.0
C20 C 0.96642 0.5989 0.20363 0.0
C21 C 0.97748 0.5954 0.17342 0.0
H22 H -0.0014 0.60235 0.14524 0.0
H23 H 0.98216 0.63171 0.2395 0.0
C24 C 0.05226 0.64626 0.29138 0.0
N25 N 0.03766 0.64246 0.28232 0.0
C26 C 0.05834 0.64274 0.33048 0.0
C27 C 0.03369 0.63333 0.35167 0.0
C28 C 0.02814 0.63692 0.31208 0.0
C29 C 0.0492 0.63545 0.36047 0.0
H30 H 0.05945 0.65106 0.2675 0.0
H31 H 0.01653 0.63413 0.30397 0.0
C32 C 0.00755 0.64151 0.09657 0.0
N33 N 0.99098 0.65304 0.03033 0.0
C34 C 0.01473 0.65011 0.06553 0.0
C35 C 0.99194 0.63869 0.09366 0.0
C36 C 0.00615 0.65587 0.0324 0.0
C37 C 0.98376 0.64463 0.05997 0.0
C38 C 0.05585 0.65211 0.16086 0.0
C39 C 0.05668 0.65851 0.12091 0.0
C40 C 0.0689 0.64572 0.17859 0.0
C41 C 0.07053 0.65847 0.09951 0.0
C42 C 0.08254 0.64593 0.1562 0.0
N43 N 0.08306 0.65224 0.11745 0.0
C44 C 0.02639 0.68419 0.14212 0.0
C45 C 0.00132 0.67598 0.12737 0.0
C46 C 0.02381 0.69788 0.12134 0.0
N47 N 0.01543 0.67331 0.14315 0.0
C48 C -0.00173 0.68944 0.10595 0.0
C49 C 0.00975 0.70041 0.10178 0.0
H50 H 0.03732 0.68205 0.15635 0.0
H51 H 0.99255 0.66745 0.13019 0.0
C52 C 0.06139 0.61294 0.13932 0.0
N53 N 0.04988 0.62119 0.12227 0.0
C54 C 0.07248 0.60639 0.11381 0.0
C55 C 0.05929 0.61633 0.0535 0.0
C56 C 0.04854 0.62276 0.08019 0.0
C57 C 0.07155 0.60815 0.0703 0.0
H58 H 0.0622 0.61175 0.17275 0.0
H59 H 0.03925 0.62921 0.06731 0.0
O60 O 0.00965 0.64868 0.21906 0.0
O61 O 0.02808 0.61965 0.2051 0.0
O62 O 0.01572 0.63574 0.12938 0.0
O63 O 0.04225 0.65167 0.18183 0.0
H64 H 0.02526 0.67095 0.25419 0.0
H65 H 0.98126 0.65776 0.2078 0.0
H66 H 0.01468 0.69627 0.2723 0.0
H67 H 0.97144 0.6833 0.2268 0.0
H68 H 0.06083 0.60083 0.30229 0.0
H69 H 0.00826 0.6035 0.24909 0.0
H70 H 0.05533 0.61651 0.23984 0.0
H71 H 0.01458 0.5882 0.31167 0.0
H72 H 0.95986 0.61528 0.25113 0.0
H73 H 0.97661 0.58523 0.15446 0.0
H74 H 0.07034 0.64463 0.33585 0.0
H75 H 0.02615 0.62807 0.37418 0.0
H76 H 0.02674 0.65255 0.06728 0.0
H77 H 0.98613 0.63211 0.11728 0.0
H78 H 0.01156 0.66266 0.00842 0.0
H79 H 0.97167 0.64259 0.05747 0.0
H80 H 0.04672 0.66329 0.10626 0.0
H81 H 0.06846 0.64023 0.20872 0.0
H82 H 0.07128 0.66334 0.06853 0.0
H83 H 0.09267 0.64091 0.16947 0.0
H84 H 0.03294 0.7061 0.11901 0.0
H85 H 0.98717 0.69113 0.09208 0.0
H86 H 0.08167 0.60001 0.12793 0.0
H87 H 0.05821 0.61803 0.02011 0.0
Li88 Li 0.87091 0.01822 0.66509 0.0
Li89 Li 0.85909 0.03907 0.70354 0.0
Li90 Li 0.847 0.02799 0.64187 0.0
Li91 Li 0.86952 0.04399 0.63524 0.0
C92 C 0.83811 0.01116 0.70438 0.0
N93 N 0.81014 0.99784 0.7184 0.0
C94 C 0.82785 0.0178 0.73229 0.0
C95 C 0.8342 0.9977 0.68378 0.0
C96 C 0.81375 0.01089 0.73894 0.0
C97 C 0.81999 0.99116 0.69122 0.0
C98 C 0.88891 0.04158 0.71861 0.0
C99 C 0.89792 0.06121 0.7651 0.0
N100 N 0.90444 0.05042 0.78966 0.0
C101 C 0.89577 0.03069 0.74419 0.0
C102 C 0.89008 0.05698 0.72895 0.0
C103 C 0.90356 0.03539 0.77999 0.0
C104 C 0.89748 0.00026 0.6562 0.0
N105 N 0.88317 0.00066 0.67213 0.0
C106 C 0.88657 0.97635 0.70394 0.0
C107 C 0.87759 0.98905 0.69552 0.0
C108 C 0.90144 0.97556 0.68793 0.0
C109 C 0.90679 0.98768 0.66331 0.0
H110 H 0.90173 0.0098 0.63843 0.0
H111 H 0.86628 0.98982 0.70856 0.0
C112 C 0.85297 0.06196 0.76368 0.0
N113 N 0.85707 0.04722 0.75807 0.0
C114 C 0.8557 0.0691 0.80191 0.0
C115 C 0.86558 0.04537 0.82863 0.0
C116 C 0.86248 0.03866 0.79009 0.0
C117 C 0.86286 0.06099 0.83426 0.0
H118 H 0.8485 0.06843 0.73779 0.0
H119 H 0.86563 0.02695 0.78453 0.0
C120 C 0.87357 0.01464 0.58381 0.0
N121 N 0.8912 0.99467 0.53806 0.0
C122 C 0.88654 0.01984 0.56301 0.0
C123 C 0.86951 -0.00069 0.58114 0.0
C124 C 0.89531 0.00955 0.54005 0.0
C125 C 0.8786 0.98938 0.55794 0.0
C126 C 0.84626 0.06327 0.63803 0.0
C127 C 0.83595 0.06403 0.60486 0.0
C128 C 0.85406 0.07637 0.65043 0.0
C129 C 0.83369 0.07789 0.58446 0.0
C130 C 0.8515 0.08999 0.62916 0.0
N131 N 0.84146 0.09046 0.5969 0.0
C132 C 0.81492 0.02783 0.63064 0.0
C133 C 0.82937 0.01598 0.57722 0.0
C134 C 0.80152 0.02541 0.60822 0.0
N135 N 0.82847 0.02317 0.61472 0.0
C136 C 0.8163 0.01336 0.55376 0.0
C137 C 0.80214 0.01824 0.56897 0.0
H138 H 0.81459 0.03378 0.66021 0.0
H139 H 0.8403 0.01271 0.56484 0.0
C140 C 0.89243 0.06524 0.61231 0.0
N141 N 0.87918 0.05855 0.60049 0.0
C142 C 0.89903 0.07644 0.58725 0.0
C143 C 0.87827 0.07353 0.53836 0.0
C144 C 0.87224 0.06221 0.56392 0.0
C145 C 0.8918 0.08081 0.55008 0.0
H146 H 0.89785 0.06192 0.64119 0.0
H147 H 0.8619 0.05643 0.55488 0.0
O148 O 0.85186 0.01786 0.69698 0.0
O149 O 0.8809 0.03717 0.68399 0.0
O150 O 0.86491 0.02449 0.60675 0.0
O151 O 0.8488 0.04975 0.65801 0.0
H152 H 0.8307 0.02823 0.7484 0.0
H153 H 0.84201 0.99246 0.66196 0.0
H154 H 0.80567 0.01592 0.76033 0.0
H155 H 0.81677 0.9808 0.67531 0.0
H156 H 0.89875 0.07307 0.77375 0.0
H157 H 0.89494 0.01872 0.73679 0.0
H158 H 0.88477 0.06556 0.70967 0.0
H159 H 0.90885 0.02708 0.8002 0.0
H160 H 0.88205 0.96749 0.72383 0.0
H161 H 0.91809 0.98753 0.64988 0.0
H162 H 0.85305 0.08105 0.80524 0.0
H163 H 0.8712 0.03866 0.8524 0.0
H164 H 0.88987 0.03165 0.56476 0.0
H165 H 0.85955 0.99509 0.59726 0.0
H166 H 0.90541 0.0134 0.52391 0.0
H167 H 0.87565 0.97747 0.55584 0.0
H168 H 0.82987 0.05403 0.59462 0.0
H169 H 0.86219 0.07597 0.67572 0.0
H170 H 0.82579 0.07862 0.55863 0.0
H171 H 0.85756 0.10018 0.63821 0.0
H172 H 0.79082 0.02926 0.62122 0.0
H173 H 0.81735 0.00805 0.52334 0.0
H174 H 0.90955 0.08177 0.59702 0.0
H175 H 0.87255 0.07643 0.50946 0.0
Li176 Li 0.48101 0.85761 0.1846 0.0
Li177 Li 0.45667 0.84999 0.21482 0.0
Li178 Li 0.46798 0.83615 0.15679 0.0
Li179 Li 0.45723 0.86129 0.14605 0.0
C180 C 0.47959 0.8239 0.22222 0.0
N181 N 0.48581 0.79345 0.23418 0.0
C182 C 0.46907 0.81461 0.24266 0.0
C183 C 0.49329 0.81775 0.20799 0.0
C184 C 0.47243 0.79923 0.2484 0.0
C185 C 0.49622 0.80232 0.21429 0.0
C186 C 0.45946 0.87969 0.23161 0.0
C187 C 0.44023 0.89222 0.27303 0.0
N188 N 0.4511 0.89672 0.30058 0.0
C189 C 0.47044 0.88447 0.26035 0.0
C190 C 0.44422 0.88364 0.23794 0.0
C191 C 0.46598 0.89307 0.29498 0.0
C192 C 0.50214 0.88126 0.18356 0.0
N193 N 0.49979 0.86693 0.19791 0.0
C194 C 0.52308 0.8676 0.23618 0.0
C195 C 0.50994 0.85996 0.22351 0.0
C196 C 0.52571 0.88253 0.22233 0.0
C197 C 0.51515 0.88924 0.19502 0.0
H198 H 0.4937 0.88661 0.16389 0.0
H199 H 0.50761 0.84865 0.23506 0.0
C200 C 0.43051 0.84847 0.26679 0.0
N201 N 0.44591 0.84954 0.26614 0.0
C202 C 0.42246 0.85293 0.30234 0.0
C203 C 0.44636 0.85796 0.33697 0.0
C204 C 0.45393 0.85328 0.30091 0.0
C205 C 0.4304 0.85857 0.33721 0.0
H206 H 0.42444 0.84518 0.2389 0.0
H207 H 0.46619 0.85401 0.29932 0.0
C208 C 0.48898 0.85953 0.10569 0.0
N209 N 0.51404 0.87309 0.06932 0.0
C210 C 0.48734 0.87299 0.08296 0.0
C211 C 0.50336 0.85293 0.10979 0.0
C212 C 0.50015 0.87967 0.06481 0.0
C213 C 0.51589 0.85998 0.09125 0.0
C214 C 0.43382 0.84318 0.13969 0.0
C215 C 0.43302 0.83464 0.10287 0.0
C216 C 0.4219 0.85301 0.14999 0.0
C217 C 0.42028 0.83605 0.07707 0.0
C218 C 0.40939 0.85414 0.12329 0.0
N219 N 0.40884 0.8457 0.08771 0.0
C220 C 0.45913 0.80612 0.13774 0.0
C221 C 0.48122 0.81471 0.10238 0.0
C222 C 0.45889 0.79287 0.11372 0.0
N223 N 0.46996 0.81685 0.13085 0.0
C224 C 0.48157 0.80153 0.0782 0.0
C225 C 0.47006 0.79065 0.08297 0.0
H226 H 0.45024 0.80822 0.1604 0.0
H227 H 0.48956 0.82349 0.09716 0.0
C228 C 0.44006 0.88695 0.12002 0.0
N229 N 0.44654 0.8737 0.10743 0.0
C230 C 0.43097 0.89524 0.09255 0.0
C231 C 0.43595 0.87641 0.03917 0.0
C232 C 0.44493 0.8685 0.06768 0.0
C233 C 0.42866 0.88987 0.0517 0.0
H234 H 0.44178 0.89099 0.15149 0.0
H235 H 0.45035 0.85798 0.0585 0.0
O236 O 0.47632 0.83886 0.21529 0.0
O237 O 0.46356 0.87101 0.19786 0.0
O238 O 0.47659 0.85289 0.12405 0.0
O239 O 0.44635 0.8422 0.16496 0.0
H240 H 0.45837 0.81919 0.25362 0.0
H241 H 0.50149 0.82479 0.19181 0.0
H242 H 0.46438 0.79188 0.26402 0.0
H243 H 0.50674 0.79738 0.20324 0.0
H244 H 0.42846 0.8952 0.27851 0.0
H245 H 0.48225 0.88144 0.25633 0.0
H246 H 0.43552 0.87985 0.21652 0.0
H247 H 0.47436 0.89678 0.31753 0.0
H248 H 0.53081 0.86207 0.25768 0.0
H249 H 0.51681 0.90063 0.18304 0.0
H250 H 0.41015 0.85283 0.30161 0.0
H251 H 0.45298 0.86228 0.36291 0.0
H252 H 0.47633 0.87831 0.07961 0.0
H253 H 0.5049 0.84265 0.12783 0.0
H254 H 0.49905 0.89011 0.04724 0.0
H255 H 0.5271 0.85507 0.09446 0.0
H256 H 0.44222 0.82722 0.09379 0.0
H257 H 0.42243 0.85995 0.17782 0.0
H258 H 0.41956 0.82956 0.04842 0.0
H259 H 0.40016 0.8618 0.13075 0.0
H260 H 0.44986 0.78466 0.11829 0.0
H261 H 0.49028 0.80023 0.0545 0.0
H262 H 0.42579 0.90572 0.10315 0.0
H263 H 0.43439 0.87183 0.00805 0.0
Li264 Li 0.63381 0.48693 0.69012 0.0
Li265 Li 0.64015 0.46428 0.73097 0.0
Li266 Li 0.65688 0.47386 0.67503 0.0
Li267 Li 0.633 0.46137 0.65786 0.0
C268 C 0.65134 0.49666 0.75185 0.0
N269 N 0.64958 0.52308 0.79831 0.0
C270 C 0.64661 0.49614 0.79355 0.0
C271 C 0.65533 0.51059 0.73392 0.0
C272 C 0.64577 0.50963 0.81649 0.0
C273 C 0.6543 0.52383 0.75788 0.0
C274 C 0.60639 0.4648 0.69572 0.0
C275 C 0.5875 0.44497 0.69286 0.0
N276 N 0.5775 0.45494 0.67553 0.0
C277 C 0.59592 0.47488 0.67807 0.0
C278 C 0.60214 0.44976 0.70341 0.0
C279 C 0.58137 0.46966 0.66804 0.0
C280 C 0.62326 0.51676 0.66686 0.0
N281 N 0.62339 0.50564 0.69636 0.0
C282 C 0.60849 0.5208 0.74268 0.0
C283 C 0.61602 0.50732 0.7334 0.0
C284 C 0.60827 0.53257 0.71314 0.0
C285 C 0.61562 0.53042 0.67459 0.0
H286 H 0.62909 0.51504 0.63749 0.0
H287 H 0.61614 0.49815 0.75592 0.0
C288 C 0.64784 0.44773 0.80716 0.0
N289 N 0.63718 0.45543 0.78478 0.0
C290 C 0.64374 0.44022 0.84407 0.0
C291 C 0.61816 0.44974 0.83559 0.0
C292 C 0.62272 0.45694 0.79905 0.0
C293 C 0.62862 0.44099 0.85826 0.0
H294 H 0.6594 0.44709 0.79596 0.0
H295 H 0.61454 0.46348 0.78154 0.0
C296 C 0.64945 0.48406 0.60028 0.0
N297 N 0.66811 0.4902 0.5329 0.0
C298 C 0.65158 0.47314 0.56909 0.0
C299 C 0.65668 0.49816 0.59701 0.0
C300 C 0.66108 0.47646 0.53529 0.0
C301 C 0.66612 0.50102 0.56277 0.0
C302 C 0.65662 0.4403 0.70663 0.0
C303 C 0.67208 0.43989 0.71672 0.0
C304 C 0.64721 0.42819 0.71817 0.0
C305 C 0.67787 0.42733 0.73814 0.0
C306 C 0.65344 0.41586 0.73966 0.0
N307 N 0.66851 0.41569 0.7491 0.0
C308 C 0.68518 0.48884 0.65945 0.0
C309 C 0.68182 0.46456 0.62854 0.0
C310 C 0.69858 0.49107 0.63678 0.0
N311 N 0.67696 0.47589 0.65411 0.0
C312 C 0.69517 0.46625 0.60562 0.0
C313 C 0.70354 0.47978 0.60885 0.0
H314 H 0.68097 0.49771 0.67968 0.0
H315 H 0.67488 0.45452 0.62437 0.0
C316 C 0.61104 0.45319 0.59647 0.0
N317 N 0.62303 0.44821 0.61946 0.0
C318 C 0.60347 0.44326 0.56952 0.0
C319 C 0.62114 0.42347 0.58916 0.0
C320 C 0.62828 0.43375 0.61588 0.0
C321 C 0.60851 0.42816 0.56574 0.0
H322 H 0.60734 0.46487 0.59912 0.0
H323 H 0.63806 0.43018 0.63369 0.0
O324 O 0.65194 0.48361 0.72866 0.0
O325 O 0.62075 0.46962 0.70526 0.0
O326 O 0.64059 0.48084 0.63428 0.0
O327 O 0.65074 0.45245 0.68543 0.0
H328 H 0.64351 0.48547 0.80796 0.0
H329 H 0.65883 0.51122 0.70156 0.0
H330 H 0.64205 0.50942 0.84872 0.0
H331 H 0.65719 0.5347 0.74426 0.0
H332 H 0.58408 0.43334 0.69839 0.0
H333 H 0.59904 0.48655 0.67179 0.0
H334 H 0.61012 0.44183 0.71709 0.0
H335 H 0.57317 0.4773 0.65418 0.0
H336 H 0.6027 0.52194 0.7724 0.0
H337 H 0.61559 0.53925 0.65102 0.0
H338 H 0.65221 0.43376 0.861 0.0
H339 H 0.60636 0.45057 0.84502 0.0
H340 H 0.64613 0.46214 0.57124 0.0
H341 H 0.65526 0.50668 0.62108 0.0
H342 H 0.66293 0.46808 0.51107 0.0
H343 H 0.67192 0.51182 0.56006 0.0
H344 H 0.6795 0.44921 0.70838 0.0
H345 H 0.63521 0.42838 0.71092 0.0
H346 H 0.68981 0.42687 0.7462 0.0
H347 H 0.64628 0.40645 0.74894 0.0
H348 H 0.70478 0.50163 0.64023 0.0
H349 H 0.69849 0.45737 0.58398 0.0
H350 H 0.59395 0.44739 0.55135 0.0
H351 H 0.62538 0.41194 0.58714 0.0
Li352 Li 0.02141 0.83619 0.84027 0.0
Li353 Li 0.03685 0.85895 0.85117 0.0
Li354 Li 0.01274 0.85995 0.81289 0.0
Li355 Li 0.03523 0.84788 0.78245 0.0
C356 C 0.00512 0.86248 0.89227 0.0
N357 N 0.98242 0.87928 0.93003 0.0
C358 C 0.00873 0.87571 0.91429 0.0
C359 C 0.98999 0.85772 0.8897 0.0
C360 C 0.99708 0.88406 0.93314 0.0
C361 C 0.97867 0.86639 0.90891 0.0
C362 C 0.05584 0.83622 0.85879 0.0
C363 C 0.08152 0.84213 0.87966 0.0
N364 N 0.07992 0.83292 0.9135 0.0
C365 C 0.05446 0.82679 0.89376 0.0
C366 C 0.0695 0.84392 0.85159 0.0
C367 C 0.06677 0.82527 0.92102 0.0
C368 C 0.02083 0.80419 0.85036 0.0
N369 N 0.01564 0.8176 0.86588 0.0
C370 C 0.00467 0.80501 0.9247 0.0
C371 C 0.00758 0.81823 0.90206 0.0
C372 C 0.01015 0.79099 0.90999 0.0
C373 C 0.01808 0.79066 0.87181 0.0
H374 H 0.02753 0.80408 0.82202 0.0
H375 H 0.00393 0.82907 0.91425 0.0
C376 C 0.05818 0.88121 0.8769 0.0
N377 N 0.04959 0.86926 0.88982 0.0
C378 C 0.06836 0.88815 0.90435 0.0
C379 C 0.06018 0.87076 0.9584 0.0
C380 C 0.05024 0.86409 0.9298 0.0
C381 C 0.06951 0.88285 0.94559 0.0
H382 H 0.0572 0.88531 0.84527 0.0
H383 H 0.04319 0.85462 0.93921 0.0
C384 C 0.00725 0.8271 0.77234 0.0
N385 N 0.9941 0.79941 0.75381 0.0
C386 C 0.01484 0.81675 0.74661 0.0
C387 C 0.99293 0.82345 0.78837 0.0
C388 C 0.008 0.80279 0.73765 0.0
C389 C 0.9865 0.80936 0.77875 0.0
C390 C 0.03768 0.87748 0.76522 0.0
C391 C 0.02748 0.88367 0.73636 0.0
C392 C 0.05332 0.87905 0.75854 0.0
C393 C 0.0331 0.89131 0.70131 0.0
C394 C 0.05848 0.88678 0.72314 0.0
N395 N 0.04835 0.89269 0.69548 0.0
C396 C 0.99567 0.88686 0.81588 0.0
C397 C 0.98479 0.86742 0.77406 0.0
C398 C 0.98398 0.89682 0.80524 0.0
N399 N 0.99581 0.87248 0.8004 0.0
C400 C 0.97301 0.87711 0.76199 0.0
C401 C 0.97257 0.89201 0.77759 0.0
H402 H 0.00484 0.8907 0.83572 0.0
H403 H 0.98537 0.85601 0.76164 0.0
C404 C 0.06114 0.84251 0.73231 0.0
N405 N 0.04599 0.84546 0.73157 0.0
C406 C 0.07004 0.84565 0.69727 0.0
C407 C 0.0473 0.85315 0.66022 0.0
C408 C 0.03884 0.84986 0.69596 0.0
C409 C 0.06321 0.85184 0.66144 0.0
H410 H 0.06648 0.83888 0.76098 0.0
H411 H 0.02677 0.8522 0.69654 0.0
O412 O 0.01633 0.85425 0.87315 0.0
O413 O 0.04381 0.8381 0.83217 0.0
O414 O 0.01382 0.84075 0.78185 0.0
O415 O 0.03239 0.86981 0.79953 0.0
H416 H 0.02037 0.87959 0.91648 0.0
H417 H 0.98701 0.84751 0.87269 0.0
H418 H -0.00031 0.89437 0.95012 0.0
H419 H 0.9669 0.8629 0.90695 0.0
H420 H 0.0921 0.84814 0.87468 0.0
H421 H 0.04398 0.82081 0.90006 0.0
H422 H 0.0707 0.85149 0.82517 0.0
H423 H 0.06584 0.81805 0.94827 0.0
H424 H -0.00121 0.80588 0.95434 0.0
H425 H 0.0224 0.7801 0.85909 0.0
H426 H 0.07516 0.89763 0.89355 0.0
H427 H 0.06079 0.86632 0.98993 0.0
H428 H 0.02594 0.81941 0.73399 0.0
H429 H 0.98692 0.83136 0.80832 0.0
H430 H 0.01377 0.79463 0.71794 0.0
H431 H 0.97546 0.80633 0.79114 0.0
H432 H 0.01535 0.88249 0.74067 0.0
H433 H 0.06141 0.87407 0.77997 0.0
H434 H 0.02533 0.89609 0.67867 0.0
H435 H 0.07054 0.88801 0.71753 0.0
H436 H 0.98414 0.90833 0.81728 0.0
H437 H 0.9644 0.87305 0.74051 0.0
H438 H 0.08226 0.84425 0.69917 0.0
H439 H 0.04158 0.85801 0.63341 0.0
Li440 Li 0.65948 0.01297 0.3394 0.0
Li441 Li 0.63619 0.0216 0.36997 0.0
Li442 Li 0.63539 -0.00183 0.33104 0.0
Li443 Li 0.63793 0.02271 0.29573 0.0
C444 C 0.64653 0.00267 0.42469 0.0
N445 N 0.6446 0.00438 0.51074 0.0
C446 C 0.65762 0.0105 0.44741 0.0
C447 C 0.6345 0.99566 0.44571 0.0
C448 C 0.65643 0.01124 0.4909 0.0
C449 C 0.63371 0.99668 0.48924 0.0
C450 C 0.64731 0.04897 0.3347 0.0
C451 C 0.62878 0.0692 0.33539 0.0
N452 N 0.64012 0.07951 0.32995 0.0
C453 C 0.65877 0.05978 0.32914 0.0
C454 C 0.63218 0.05372 0.33785 0.0
C455 C 0.65491 0.07516 0.3268 0.0
C456 C 0.69005 0.02321 0.34534 0.0
N457 N 0.68046 0.01124 0.3503 0.0
C458 C 0.69912 0.99758 0.38912 0.0
C459 C 0.68481 -0.00156 0.37077 0.0
C460 C 0.70897 0.0101 0.38682 0.0
C461 C 0.70452 0.02286 0.36335 0.0
H462 H 0.68613 0.03335 0.32964 0.0
H463 H 0.67679 0.98924 0.37499 0.0
C464 C 0.6139 0.03024 0.42938 0.0
N465 N 0.62854 0.03229 0.41704 0.0
C466 C 0.60754 0.03979 0.45954 0.0
C467 C 0.63159 0.05304 0.46432 0.0
C468 C 0.63754 0.04309 0.43465 0.0
C469 C 0.61633 0.05162 0.47636 0.0
H470 H 0.60704 0.02155 0.41468 0.0
H471 H 0.64917 0.0444 0.42427 0.0
C472 C 0.6564 0.99501 0.25742 0.0
N473 N 0.6684 0.97593 0.19717 0.0
C474 C 0.65051 0.99506 0.21682 0.0
C475 C 0.66848 0.98533 0.26722 0.0
C476 C 0.65671 0.98531 0.18686 0.0
C477 C 0.67436 0.97575 0.23638 0.0
C478 C 0.60831 0.01125 0.30566 0.0
C479 C 0.61046 0.0032 0.26848 0.0
C480 C 0.59362 0.01531 0.31797 0.0
C481 C 0.59786 -0.00067 0.24415 0.0
C482 C 0.5813 0.01125 0.29275 0.0
N483 N 0.58366 0.00341 0.25668 0.0
C484 C 0.61304 0.97655 0.34761 0.0
C485 C 0.63189 0.96766 0.30065 0.0
C486 C 0.60441 0.96344 0.34136 0.0
N487 N 0.62632 0.97856 0.32662 0.0
C488 C 0.62359 0.95442 0.29327 0.0
C489 C 0.6095 0.95237 0.31304 0.0
H490 H 0.60879 0.98547 0.36772 0.0
H491 H 0.64247 0.9694 0.28445 0.0
C492 C 0.64131 0.03559 0.21371 0.0
N493 N 0.63213 0.03414 0.24771 0.0
C494 C 0.63633 0.04376 0.17872 0.0
C495 C 0.61282 0.04902 0.21506 0.0
C496 C 0.61823 0.04087 0.24909 0.0
C497 C 0.6218 0.0504 0.17907 0.0
H498 H 0.6524 0.0303 0.21363 0.0
H499 H 0.61126 0.03994 0.27671 0.0
O500 O 0.64729 0.00214 0.38203 0.0
O501 O 0.65096 0.03386 0.33711 0.0
O502 O 0.65057 0.00458 0.28715 0.0
O503 O 0.62045 0.01511 0.33023 0.0
H504 H 0.66691 0.01614 0.4316 0.0
H505 H 0.62581 0.98961 0.42858 0.0
H506 H 0.66488 0.01733 0.50887 0.0
H507 H 0.62443 0.99136 0.50592 0.0
H508 H 0.61712 0.07301 0.33784 0.0
H509 H 0.67054 0.05634 0.32665 0.0
H510 H 0.62314 0.04557 0.34232 0.0
H511 H 0.66368 0.08364 0.32248 0.0
H512 H 0.70219 0.98748 0.40653 0.0
H513 H 0.71172 0.03281 0.36121 0.0
H514 H 0.59571 0.03843 0.46814 0.0
H515 H 0.63871 0.06196 0.47703 0.0
H516 H 0.64127 0.00255 0.2084 0.0
H517 H 0.67315 0.98507 0.2984 0.0
H518 H 0.65223 0.98521 0.15537 0.0
H519 H 0.68366 0.96814 0.24363 0.0
H520 H 0.6217 -0.00013 0.25871 0.0
H521 H 0.59175 0.02156 0.34666 0.0
H522 H 0.59938 0.99306 0.21536 0.0
H523 H 0.56987 0.01433 0.30187 0.0
H524 H 0.5935 0.96238 0.35678 0.0
H525 H 0.62794 0.94606 0.27146 0.0
H526 H 0.64361 0.04463 0.15151 0.0
H527 H 0.60171 0.05429 0.21701 0.0
Li528 Li 0.47093 0.65854 0.81211 0.0
Li529 Li 0.46402 0.63447 0.84481 0.0
Li530 Li 0.48881 0.63878 0.80593 0.0
Li531 Li 0.46475 0.6381 0.7676 0.0
C532 C 0.4851 0.65835 0.88709 0.0
N533 N 0.49179 0.6811 0.94365 0.0
C534 C 0.47424 0.66291 0.9164 0.0
C535 C 0.49944 0.66519 0.88687 0.0
C536 C 0.47782 0.67448 0.94464 0.0
C537 C 0.50258 0.67672 0.91566 0.0
C538 C 0.43769 0.64654 0.79008 0.0
C539 C 0.4159 0.63136 0.77128 0.0
N540 N 0.41049 0.6431 0.74798 0.0
C541 C 0.43187 0.65848 0.76617 0.0
C542 C 0.42961 0.63289 0.79288 0.0
C543 C 0.41811 0.65651 0.74505 0.0
C544 C 0.4551 0.68334 0.84324 0.0
N545 N 0.46869 0.67955 0.8259 0.0
C546 C 0.4797 0.7029 0.84915 0.0
C547 C 0.48079 0.68917 0.82747 0.0
C548 C 0.46614 0.70651 0.86998 0.0
C549 C 0.45357 0.69684 0.86563 0.0
H550 H 0.4458 0.67532 0.84266 0.0
H551 H 0.49167 0.68564 0.8153 0.0
C552 C 0.45875 0.61381 0.91283 0.0
N553 N 0.4533 0.62563 0.89001 0.0
C554 C 0.44993 0.60752 0.94485 0.0
C555 C 0.43026 0.62586 0.92945 0.0
C556 C 0.43951 0.63189 0.8983 0.0
C557 C 0.43536 0.61344 0.95319 0.0
H558 H 0.4699 0.60927 0.90617 0.0
H559 H 0.43558 0.6415 0.88027 0.0
C560 C 0.48494 0.66619 0.74324 0.0
N561 N 0.49076 0.69446 0.70921 0.0
C562 C 0.47308 0.67487 0.72675 0.0
C563 C 0.49979 0.67185 0.74221 0.0
C564 C 0.47624 0.68915 0.7098 0.0
C565 C 0.50249 0.68617 0.72488 0.0
C566 C 0.48244 0.60968 0.78822 0.0
C567 C 0.48764 0.60932 0.74692 0.0
C568 C 0.48693 0.5983 0.81606 0.0
C569 C 0.49731 0.5976 0.73422 0.0
C570 C 0.49664 0.58678 0.80216 0.0
N571 N 0.50159 0.58669 0.76189 0.0
C572 C 0.51495 0.62394 0.83573 0.0
C573 C 0.51641 0.6326 0.76561 0.0
C574 C 0.52829 0.61555 0.83065 0.0
N575 N 0.50912 0.63186 0.80302 0.0
C576 C 0.52986 0.62455 0.75933 0.0
C577 C 0.53564 0.61548 0.79166 0.0
H578 H 0.50869 0.62332 0.86479 0.0
H579 H 0.51119 0.63853 0.73974 0.0
C580 C 0.45248 0.63835 0.68368 0.0
N581 N 0.45494 0.63023 0.71919 0.0
C582 C 0.44515 0.63157 0.64961 0.0
C583 C 0.44325 0.60829 0.68939 0.0
C584 C 0.45038 0.61552 0.72265 0.0
C585 C 0.44061 0.6163 0.65226 0.0
H586 H 0.45619 0.65002 0.68171 0.0
H587 H 0.45224 0.60941 0.75147 0.0
O588 O 0.48173 0.64725 0.85869 0.0
O589 O 0.45135 0.6481 0.81006 0.0
O590 O 0.48206 0.65214 0.75978 0.0
O591 O 0.47351 0.62145 0.80172 0.0
H592 H 0.46309 0.6577 0.91694 0.0
H593 H 0.50796 0.66175 0.86436 0.0
H594 H 0.46948 0.67823 0.96727 0.0
H595 H 0.51358 0.68222 0.91566 0.0
H596 H 0.4096 0.62082 0.77288 0.0
H597 H 0.4379 0.66917 0.76396 0.0
H598 H 0.43402 0.62348 0.81093 0.0
H599 H 0.4135 0.66564 0.72631 0.0
H600 H 0.4897 0.70997 0.8525 0.0
H601 H 0.44294 0.69929 0.88137 0.0
H602 H 0.45448 0.59816 0.96288 0.0
H603 H 0.41909 0.63072 0.93415 0.0
H604 H 0.46154 0.6707 0.72743 0.0
H605 H 0.5091 0.66536 0.75514 0.0
H606 H 0.46715 0.69603 0.69715 0.0
H607 H 0.51391 0.69072 0.72407 0.0
H608 H 0.4845 0.61818 0.72512 0.0
H609 H 0.48313 0.59846 0.84819 0.0
H610 H 0.50152 0.59726 0.70246 0.0
H611 H 0.50029 0.57797 0.82346 0.0
H612 H 0.53243 0.60865 0.85625 0.0
H613 H 0.53506 0.62455 0.72863 0.0
H614 H 0.44328 0.63808 0.62136 0.0
H615 H 0.43966 0.59658 0.69284 0.0
Li616 Li 0.83035 0.47121 0.32125 0.0
Li617 Li 0.85374 0.45735 0.34008 0.0
Li618 Li 0.85467 0.47982 0.29858 0.0
Li619 Li 0.84546 0.45724 0.2688 0.0
C620 C 0.84308 0.47849 0.39778 0.0
N621 N 0.83344 0.47902 0.48001 0.0
C622 C 0.83492 0.46623 0.41428 0.0
C623 C 0.84636 0.49099 0.42318 0.0
C624 C 0.83014 0.46673 0.4559 0.0
C625 C 0.84139 0.49105 0.46466 0.0
C626 C 0.82567 0.43818 0.29884 0.0
C627 C 0.81795 0.41217 0.28802 0.0
N628 N 0.80845 0.41676 0.25698 0.0
C629 C 0.81571 0.44265 0.26707 0.0
C630 C 0.82672 0.42283 0.30963 0.0
C631 C 0.80715 0.43165 0.24619 0.0
C632 C 0.80981 0.49094 0.36101 0.0
N633 N 0.81116 0.47687 0.3438 0.0
C634 C 0.78738 0.46929 0.37312 0.0
C635 C 0.80017 0.46617 0.34888 0.0
C636 C 0.78599 0.48348 0.39286 0.0
C637 C 0.79724 0.49451 0.38584 0.0
H638 H 0.81892 0.49909 0.35752 0.0
H639 H 0.80171 0.45491 0.33625 0.0
C640 C 0.87097 0.45147 0.41396 0.0
N641 N 0.86393 0.44523 0.38023 0.0
C642 C 0.87886 0.44224 0.44198 0.0
C643 C 0.87206 0.42038 0.4001 0.0
C644 C 0.86454 0.43006 0.37252 0.0
C645 C 0.87936 0.42649 0.43523 0.0
H646 H 0.87062 0.46362 0.41889 0.0
H647 H 0.85936 0.42554 0.34457 0.0
C648 C 0.83708 0.49044 0.24068 0.0
N649 N 0.84064 0.517 0.19571 0.0
C650 C 0.84523 0.49039 0.20316 0.0
C651 C 0.83063 0.50397 0.25515 0.0
C652 C 0.84692 0.50394 0.18091 0.0
C653 C 0.83259 0.51729 0.23202 0.0
C654 C 0.88091 0.46186 0.30064 0.0
C655 C 0.88551 0.47142 0.3332 0.0
C656 C 0.89173 0.45321 0.27929 0.0
C657 C 0.90089 0.47216 0.34382 0.0
C658 C 0.90701 0.45427 0.29086 0.0
N659 N 0.91123 0.46364 0.32261 0.0
C660 C 0.86525 0.51019 0.30929 0.0
C661 C 0.8766 0.49625 0.25402 0.0
C662 C 0.8744 0.52277 0.30038 0.0
N663 N 0.86658 0.49729 0.28621 0.0
C664 C 0.88588 0.50853 0.2439 0.0
C665 C 0.88491 0.52199 0.26732 0.0
H666 H 0.85714 0.51067 0.33467 0.0
H667 H 0.87742 0.48581 0.23631 0.0
C668 C 0.84109 0.44788 0.18307 0.0
N669 N 0.84661 0.44441 0.22156 0.0
C670 C 0.84523 0.43903 0.14854 0.0
C671 C 0.85977 0.42284 0.19471 0.0
C672 C 0.85542 0.43198 0.22811 0.0
C673 C 0.85507 0.42659 0.15407 0.0
H674 H 0.83407 0.45785 0.17889 0.0
H675 H 0.85973 0.42966 0.25912 0.0
O676 O 0.84763 0.47853 0.35683 0.0
O677 O 0.83436 0.4488 0.31907 0.0
O678 O 0.83559 0.47736 0.26342 0.0
O679 O 0.86591 0.46079 0.28969 0.0
H680 H 0.83223 0.45645 0.39529 0.0
H681 H 0.85263 0.50058 0.41088 0.0
H682 H 0.82378 0.45734 0.46901 0.0
H683 H 0.84383 0.50067 0.48463 0.0
H684 H 0.81867 0.40024 0.296 0.0
H685 H 0.81469 0.4545 0.25842 0.0
H686 H 0.83411 0.41915 0.33462 0.0
H687 H 0.79948 0.43495 0.22138 0.0
H688 H 0.77912 0.46036 0.37841 0.0
H689 H 0.79659 0.50559 0.40053 0.0
H690 H 0.88439 0.44731 0.46883 0.0
H691 H 0.87243 0.40829 0.39367 0.0
H692 H 0.85046 0.48006 0.19176 0.0
H693 H 0.82429 0.5042 0.28409 0.0
H694 H 0.85332 0.5041 0.15203 0.0
H695 H 0.82774 0.52786 0.24297 0.0
H696 H 0.87732 0.47819 0.3502 0.0
H697 H 0.88835 0.44573 0.25406 0.0
H698 H 0.90459 0.4795 0.36896 0.0
H699 H 0.91551 0.44763 0.2746 0.0
H700 H 0.87326 0.53298 0.319 0.0
H701 H 0.89398 0.50737 0.21859 0.0
H702 H 0.84126 0.44221 0.11772 0.0
H703 H 0.86755 0.41353 0.20041 0.0
Li704 Li 0.96101 0.36089 0.84942 0.0
Li705 Li 0.97602 0.33933 0.82293 0.0
Li706 Li 0.9852 0.36437 0.8093 0.0
Li707 Li 0.96206 0.35414 0.77461 0.0
C708 C 0.98714 0.36377 0.89769 0.0
N709 N 0.99647 0.38179 0.96361 0.0
C710 C 0.99282 0.35711 0.93411 0.0
C711 C 0.98621 0.37958 0.89478 0.0
C712 C 0.99748 0.36642 0.96711 0.0
C713 C 0.99099 0.3885 0.92842 0.0
C714 C 0.94052 0.33607 0.80731 0.0
C715 C 0.92688 0.3208 0.75718 0.0
N716 N 0.91359 0.32443 0.7765 0.0
C717 C 0.92674 0.33955 0.82686 0.0
C718 C 0.94061 0.32652 0.77238 0.0
C719 C 0.91324 0.33359 0.81074 0.0
C720 C 0.93558 0.37691 0.87478 0.0
N721 N 0.94749 0.36876 0.88985 0.0
C722 C 0.93815 0.37121 0.95961 0.0
C723 C 0.94897 0.36577 0.93131 0.0
C724 C 0.9257 0.37969 0.94491 0.0
C725 C 0.92454 0.38257 0.90186 0.0
H726 H 0.93458 0.37885 0.84151 0.0
H727 H 0.95838 0.35897 0.94231 0.0
C728 C 0.99495 0.31834 0.86325 0.0
N729 N 0.98231 0.3196 0.83911 0.0
C730 C -0.00142 0.30448 0.88198 0.0
C731 C 0.97643 0.29339 0.84917 0.0
C732 C 0.97327 0.30744 0.83099 0.0
C733 C 0.98896 0.29192 0.87604 0.0
H734 H 0.00184 0.32827 0.86946 0.0
H735 H 0.96325 0.30879 0.81195 0.0
C736 C 0.96259 0.38855 0.78817 0.0
N737 N 0.95712 0.41779 0.76022 0.0
C738 C 0.96283 0.39181 0.7454 0.0
C739 C 0.9595 0.4002 0.81669 0.0
C740 C 0.96006 0.40664 0.73189 0.0
C741 C 0.95679 0.4149 0.80196 0.0
C742 C 0.99257 0.33561 0.75804 0.0
C743 C 0.00749 0.3351 0.77299 0.0
C744 C 0.98699 0.32367 0.73371 0.0
C745 C 0.01654 0.32251 0.76371 0.0
C746 C 0.99641 0.31127 0.72511 0.0
N747 N 0.01086 0.31094 0.7402 0.0
C748 C 0.01479 0.37633 0.82678 0.0
C749 C 0.00244 0.38617 0.76681 0.0
C750 C 0.02736 0.38571 0.81969 0.0
N751 N 0.00256 0.37695 0.80083 0.0
C752 C 0.01467 0.3958 0.75873 0.0
C753 C 0.02729 0.39573 0.78554 0.0
H754 H 0.01481 0.36857 0.85296 0.0
H755 H 0.99292 0.38594 0.74564 0.0
C756 C 0.93563 0.36191 0.7331 0.0
N757 N 0.94985 0.35643 0.72641 0.0
C758 C 0.92677 0.36675 0.69969 0.0
C759 C 0.94736 0.36024 0.65287 0.0
C760 C 0.95572 0.35515 0.68728 0.0
C761 C 0.93282 0.36656 0.65902 0.0
H762 H 0.93145 0.36323 0.76467 0.0
H763 H 0.96724 0.35112 0.68311 0.0
O764 O 0.98236 0.35475 0.86543 0.0
O765 O 0.95384 0.34193 0.82248 0.0
O766 O 0.96493 0.37399 0.80201 0.0
O767 O 0.98342 0.34765 0.76777 0.0
H768 H 0.99356 0.34487 0.93691 0.0
H769 H 0.98202 0.38491 0.86672 0.0
H770 H 0.00188 0.36142 0.99552 0.0
H771 H 0.99037 0.40076 0.92652 0.0
H772 H 0.92677 0.3135 0.72997 0.0
H773 H 0.92646 0.34675 0.85425 0.0
H774 H 0.95116 0.32375 0.75679 0.0
H775 H 0.9025 0.33624 0.82548 0.0
H776 H 0.93936 0.36855 0.99249 0.0
H777 H 0.91524 0.38919 0.88922 0.0
H778 H 0.00826 0.30383 0.90278 0.0
H779 H 0.96884 0.28392 0.84351 0.0
H780 H 0.96533 0.38303 0.7228 0.0
H781 H 0.95912 0.39795 0.84991 0.0
H782 H 0.96027 0.40929 0.69888 0.0
H783 H 0.95439 0.424 0.82372 0.0
H784 H 0.01194 0.34425 0.79201 0.0
H785 H 0.9755 0.32395 0.7217 0.0
H786 H 0.02807 0.3219 0.77531 0.0
H787 H 0.99222 0.3019 0.70647 0.0
H788 H 0.03692 0.3853 0.84099 0.0
H789 H 0.01433 0.40311 0.73151 0.0
H790 H 0.91552 0.37118 0.70598 0.0
H791 H 0.9526 0.36005 0.62225 0.0
Li792 Li 0.13287 0.95735 0.36199 0.0
Li793 Li 0.15611 0.97078 0.34256 0.0
Li794 Li 0.13133 0.98106 0.32519 0.0
Li795 Li 0.14114 0.95857 0.28936 0.0
C796 C 0.13765 0.97602 0.42314 0.0
N797 N 0.13305 0.97116 0.50754 0.0
C798 C 0.15001 0.97318 0.44947 0.0
C799 C 0.12296 0.97644 0.43978 0.0
C800 C 0.14744 0.97076 0.49205 0.0
C801 C 0.12087 0.97392 0.48251 0.0
C802 C 0.15663 0.93552 0.32142 0.0
C803 C 0.1739 0.92122 0.27803 0.0
N804 N 0.166 0.90832 0.28679 0.0
C805 C 0.14873 0.92211 0.33019 0.0
C806 C 0.16936 0.93508 0.29532 0.0
C807 C 0.15363 0.90847 0.31231 0.0
C808 C 0.109 0.94085 0.40018 0.0
N809 N 0.12411 0.94398 0.40172 0.0
C810 C 0.12763 0.92621 0.45727 0.0
C811 C 0.13345 0.93698 0.42952 0.0
C812 C 0.11206 0.92271 0.45633 0.0
C813 C 0.10268 0.93026 0.42759 0.0
H814 H 0.10192 0.94632 0.37714 0.0
H815 H 0.14547 0.93957 0.42956 0.0
C816 C 0.1788 0.99064 0.37184 0.0
N817 N 0.17576 0.97593 0.36192 0.0
C818 C 0.19242 0.99446 0.39151 0.0
C819 C 0.19945 0.9679 0.39064 0.0
C820 C 0.18579 0.96463 0.37047 0.0
C821 C 0.20283 0.98297 0.40205 0.0
H822 H 0.17038 -0.00068 0.36597 0.0
H823 H 0.18286 0.95297 0.36348 0.0
C824 C 0.10746 0.96742 0.2958 0.0
N825 N 0.08169 0.98039 0.26167 0.0
C826 C 0.10605 0.96887 0.25246 0.0
C827 C 0.09573 0.97253 0.32176 0.0
C828 C 0.09293 0.97545 0.23582 0.0
C829 C 0.08281 0.97908 0.30391 0.0
C830 C 0.16143 0.98786 0.27596 0.0
C831 C 0.16141 0.00355 0.28275 0.0
C832 C 0.17407 0.98096 0.25755 0.0
C833 C 0.17416 0.01207 0.2714 0.0
C834 C 0.18661 0.98987 0.24669 0.0
N835 N 0.1864 0.00511 0.2538 0.0
C836 C 0.11194 0.00561 0.34794 0.0
C837 C 0.11961 0.00472 0.27688 0.0
C838 C 0.10264 0.01812 0.3399 0.0
N839 N 0.11999 -0.00091 0.31641 0.0
C840 C 0.11064 0.01733 0.26757 0.0
C841 C 0.10187 0.02404 0.29922 0.0
H842 H 0.11247 0.0009 0.37905 0.0
H843 H 0.12606 -0.0008 0.25242 0.0
C844 C 0.1318 0.9345 0.24094 0.0
N845 N 0.14023 0.94741 0.23896 0.0
C846 C 0.12837 0.92646 0.20474 0.0
C847 C 0.1423 0.94519 0.16477 0.0
C848 C 0.14568 0.95279 0.20205 0.0
C849 C 0.13334 0.93197 0.16594 0.0
H850 H 0.12709 0.93088 0.27052 0.0
H851 H 0.15199 0.96333 0.20133 0.0
O852 O 0.13989 0.97812 0.3812 0.0
O853 O 0.1519 0.94902 0.33821 0.0
O854 O 0.12043 0.96146 0.31279 0.0
O855 O 0.14911 0.9793 0.28717 0.0
H856 H 0.16145 0.97274 0.43721 0.0
H857 H 0.11324 0.97836 0.4198 0.0
H858 H 0.15689 0.96851 0.51275 0.0
H859 H 0.10955 0.97408 0.49573 0.0
H860 H 0.1837 0.92072 0.25764 0.0
H861 H 0.1388 0.92223 0.35012 0.0
H862 H 0.17565 0.94533 0.28841 0.0
H863 H 0.14757 0.89802 0.31862 0.0
H864 H 0.13521 0.92069 0.4792 0.0
H865 H 0.09065 0.92772 0.42559 0.0
H866 H 0.19458 0.00624 0.39936 0.0
H867 H 0.20691 0.9586 0.39895 0.0
H868 H 0.11505 0.96515 0.23185 0.0
H869 H 0.09673 0.97176 0.35539 0.0
H870 H 0.09172 0.9767 0.20235 0.0
H871 H 0.07372 0.98321 0.32365 0.0
H872 H 0.15174 0.00906 0.29712 0.0
H873 H 0.17421 0.96885 0.25178 0.0
H874 H 0.17435 0.02421 0.27672 0.0
H875 H 0.1965 0.98467 0.23258 0.0
H876 H 0.09606 0.02308 0.36509 0.0
H877 H 0.11019 0.02149 0.23574 0.0
H878 H 0.12112 0.91654 0.20685 0.0
H879 H 0.14621 0.94983 0.13531 0.0
Li880 Li 0.5264 0.15816 0.83584 0.0
Li881 Li 0.53738 0.13604 0.86276 0.0
Li882 Li 0.53661 0.14007 0.78856 0.0
Li883 Li 0.51238 0.1352 0.82632 0.0
C884 C 0.5564 0.16251 0.81053 0.0
N885 N 0.5739 0.18389 0.76943 0.0
C886 C 0.57157 0.16474 0.82193 0.0
C887 C 0.55014 0.17113 0.77813 0.0
C888 C 0.58023 0.17561 0.8008 0.0
C889 C 0.55917 0.18189 0.75777 0.0
C890 C 0.5118 0.15465 0.90781 0.0
C891 C 0.4908 0.16975 0.9328 0.0
N892 N 0.50005 0.17608 0.96206 0.0
C893 C 0.52107 0.16118 0.93842 0.0
C894 C 0.49651 0.15886 0.90515 0.0
C895 C 0.51493 0.17205 0.96545 0.0
C896 C 0.51016 0.18583 0.84354 0.0
N897 N 0.52382 0.17896 0.84961 0.0
C898 C 0.53243 0.19957 0.8918 0.0
C899 C 0.53502 0.18569 0.8722 0.0
C900 C 0.51809 0.20646 0.88855 0.0
C901 C 0.50699 0.19967 0.8631 0.0
H902 H 0.50138 0.18003 0.826 0.0
H903 H 0.54559 0.17976 0.87767 0.0
C904 C 0.56415 0.12333 0.89231 0.0
N905 N 0.54997 0.12752 0.90453 0.0
C906 C 0.57385 0.11601 0.92021 0.0
C907 C 0.55425 0.11778 0.97309 0.0
C908 C 0.54492 0.12509 0.94411 0.0
C909 C 0.56888 0.113 0.96109 0.0
H910 H 0.5678 0.12546 0.86056 0.0
H911 H 0.53352 0.12843 0.95275 0.0
C912 C 0.50979 0.14731 0.74663 0.0
N913 N 0.49534 0.13935 0.6731 0.0
C914 C 0.50944 0.13212 0.73369 0.0
C915 C 0.50278 0.15843 0.72214 0.0
C916 C 0.50207 0.12834 0.69645 0.0
C917 C 0.49555 0.15419 0.68506 0.0
C918 C 0.53409 0.10782 0.83588 0.0
C919 C 0.5443 0.0981 0.81572 0.0
C920 C 0.52796 0.10358 0.8745 0.0
C921 C 0.54845 0.08446 0.83491 0.0
C922 C 0.5324 0.08985 0.8927 0.0
N923 N 0.54248 0.08066 0.87271 0.0
C924 C 0.56082 0.12724 0.74981 0.0
C925 C 0.54495 0.13948 0.70041 0.0
C926 C 0.5697 0.12108 0.71808 0.0
N927 N 0.5484 0.13571 0.74051 0.0
C928 C 0.55363 0.13365 0.66747 0.0
C929 C 0.56594 0.12392 0.67613 0.0
H930 H 0.56342 0.12471 0.7821 0.0
H931 H 0.53526 0.14663 0.69381 0.0
C932 C 0.48105 0.13459 0.80654 0.0
N933 N 0.49284 0.12603 0.82079 0.0
C934 C 0.46726 0.1277 0.7959 0.0
C935 C 0.47775 0.10353 0.81714 0.0
C936 C 0.49138 0.11081 0.82657 0.0
C937 C 0.4656 0.11194 0.80079 0.0
H938 H 0.48257 0.14666 0.8018 0.0
H939 H 0.50095 0.10416 0.83679 0.0
O940 O 0.54791 0.15178 0.83091 0.0
O941 O 0.51769 0.14429 0.88037 0.0
O942 O 0.51668 0.15141 0.78331 0.0
O943 O 0.53019 0.12145 0.81816 0.0
H944 H 0.5766 0.15811 0.84685 0.0
H945 H 0.53845 0.16959 0.7687 0.0
H946 H 0.59198 0.17746 0.80933 0.0
H947 H 0.55446 0.18865 0.73267 0.0
H948 H 0.47903 0.17322 0.93087 0.0
H949 H 0.53294 0.15808 0.94077 0.0
H950 H 0.48919 0.15389 0.88166 0.0
H951 H 0.52201 0.17733 0.98897 0.0
H952 H 0.54118 0.20428 0.91176 0.0
H953 H 0.49581 0.20468 0.85986 0.0
H954 H 0.58509 0.11268 0.90985 0.0
H955 H 0.5499 0.11549 0.00412 0.0
H956 H 0.51476 0.12331 0.75203 0.0
H957 H 0.50291 0.17023 0.73178 0.0
H958 H 0.5017 0.11664 0.6861 0.0
H959 H 0.49007 0.16268 0.66583 0.0
H960 H 0.54892 0.10097 0.78544 0.0
H961 H 0.52002 0.11095 0.89057 0.0
H962 H 0.55638 0.07687 0.81969 0.0
H963 H 0.52786 0.08653 0.92277 0.0
H964 H 0.57894 0.11356 0.7265 0.0
H965 H 0.55054 0.13644 0.63564 0.0
H966 H 0.45812 0.13454 0.78322 0.0
H967 H 0.47699 0.0913 0.8206 0.0
Li968 Li 0.33276 0.51828 0.31368 0.0
Li969 Li 0.3568 0.52768 0.3366 0.0
Li970 Li 0.34931 0.53164 0.2651 0.0
Li971 Li 0.3566 0.50581 0.29048 0.0
C972 C 0.33216 0.54802 0.34558 0.0
N973 N 0.31701 0.56438 0.40639 0.0
C974 C 0.33113 0.54239 0.38628 0.0
C975 C 0.32556 0.56201 0.3358 0.0
C976 C 0.32341 0.55081 0.41659 0.0
C977 C 0.31793 0.57011 0.36698 0.0
C978 C 0.35198 0.49996 0.38312 0.0
C979 C 0.36912 0.48392 0.4221 0.0
N980 N 0.35974 0.48485 0.45581 0.0
C981 C 0.34241 0.50057 0.41801 0.0
C982 C 0.36536 0.49141 0.38503 0.0
C983 C 0.34658 0.49293 0.45452 0.0
C984 C 0.31008 0.50038 0.34916 0.0
N985 N 0.31266 0.51425 0.33194 0.0
C986 C 0.28856 0.52323 0.35561 0.0
C987 C 0.302 0.5254 0.3332 0.0
C988 C 0.28603 0.50937 0.3764 0.0
C989 C 0.29674 0.49765 0.3715 0.0
H990 H 0.31877 0.4917 0.34746 0.0
H991 H 0.30427 0.53629 0.31891 0.0
C992 C 0.36936 0.55324 0.37235 0.0
N993 N 0.36749 0.53814 0.3799 0.0
C994 C 0.37732 0.56234 0.40043 0.0
C995 C 0.38111 0.54029 0.44422 0.0
C996 C 0.37318 0.53155 0.41501 0.0
C997 C 0.38331 0.55587 0.4369 0.0
H998 H 0.36475 0.55817 0.34411 0.0
H999 H 0.37175 0.51956 0.42036 0.0
C1000 C 0.3262 0.51398 0.22972 0.0
N1001 N 0.3015 0.5183 0.17779 0.0
C1002 C 0.32155 0.5024 0.2027 0.0
C1003 C 0.3183 0.52776 0.23033 0.0
C1004 C 0.30903 0.5048 0.17668 0.0
C1005 C 0.30584 0.52972 0.20384 0.0
C1006 C 0.38316 0.52926 0.29748 0.0
C1007 C 0.3881 0.54378 0.28614 0.0
C1008 C 0.39253 0.52003 0.32191 0.0
C1009 C 0.40225 0.54893 0.30007 0.0
C1010 C 0.4066 0.52558 0.33525 0.0
N1011 N 0.41111 0.53981 0.32419 0.0
C1012 C 0.35449 0.55985 0.22871 0.0
C1013 C 0.35434 0.53921 0.18093 0.0
C1014 C 0.3609 0.56936 0.19863 0.0
N1015 N 0.35193 0.54498 0.21976 0.0
C1016 C 0.3605 0.54839 0.14965 0.0
C1017 C 0.36445 0.56347 0.15906 0.0
H1018 H 0.35276 0.56398 0.26023 0.0
H1019 H 0.35251 0.52723 0.17516 0.0
C1020 C 0.36109 0.47376 0.28494 0.0
N1021 N 0.36655 0.48772 0.27467 0.0
C1022 C 0.36934 0.46072 0.27441 0.0
C1023 C 0.38841 0.47678 0.24251 0.0
C1024 C 0.37979 0.48943 0.2534 0.0
C1025 C 0.38328 0.46216 0.2532 0.0
H1026 H 0.35048 0.47279 0.30185 0.0
H1027 H 0.3838 0.50068 0.24554 0.0
O1028 O 0.33956 0.53994 0.31522 0.0
O1029 O 0.34798 0.50719 0.34688 0.0
O1030 O 0.33842 0.51173 0.25542 0.0
O1031 O 0.36914 0.52417 0.28517 0.0
H1032 H 0.33629 0.53167 0.39437 0.0
H1033 H 0.32627 0.56653 0.30438 0.0
H1034 H 0.32252 0.54656 0.44823 0.0
H1035 H 0.31272 0.58094 0.35985 0.0
H1036 H 0.37948 0.47734 0.42404 0.0
H1037 H 0.33182 0.5068 0.41696 0.0
H1038 H 0.37277 0.49053 0.35826 0.0
H1039 H 0.33931 0.49338 0.48178 0.0
H1040 H 0.28072 0.53265 0.35867 0.0
H1041 H 0.29512 0.48668 0.38619 0.0
H1042 H 0.37867 0.57434 0.39386 0.0
H1043 H 0.38571 0.53487 0.47186 0.0
H1044 H 0.32756 0.49166 0.20189 0.0
H1045 H 0.32173 0.53687 0.25093 0.0
H1046 H 0.3053 0.49594 0.1556 0.0
H1047 H 0.29962 0.54032 0.204 0.0
H1048 H 0.38107 0.55108 0.26715 0.0
H1049 H 0.38896 0.50874 0.33073 0.0
H1050 H 0.40616 0.56019 0.29178 0.0
H1051 H 0.41391 0.51859 0.35443 0.0
H1052 H 0.36385 0.58094 0.20686 0.0
H1053 H 0.36326 0.54346 0.11956 0.0
H1054 H 0.3649 0.44967 0.28294 0.0
H1055 H 0.3992 0.4785 0.22692 0.0
Li1056 Li 0.96361 0.15051 0.20526 0.0
Li1057 Li 0.98632 0.13532 0.17437 0.0
Li1058 Li 0.97699 0.15889 0.14359 0.0
Li1059 Li 0.96218 0.13729 0.13758 0.0
C1060 C 0.99454 0.16832 0.20556 0.0
N1061 N 0.0127 0.1938 0.21201 0.0
C1062 C 0.00886 0.16854 0.18667 0.0
C1063 C 0.98949 0.18096 0.22808 0.0
C1064 C 0.01785 0.18157 0.19017 0.0
C1065 C -0.00116 0.19375 0.23091 0.0
C1066 C 0.95778 0.11547 0.1973 0.0
C1067 C 0.95588 0.08816 0.20032 0.0
N1068 N 0.94054 0.08937 0.20467 0.0
C1069 C 0.94201 0.11646 0.20189 0.0
C1070 C 0.9648 0.10123 0.19658 0.0
C1071 C 0.93349 0.10312 0.20552 0.0
C1072 C 0.93764 0.15333 0.25469 0.0
N1073 N 0.95307 0.15316 0.2559 0.0
C1074 C 0.95289 0.14819 0.32919 0.0
C1075 C 0.96079 0.15121 0.29226 0.0
C1076 C 0.93698 0.14695 0.32813 0.0
C1077 C 0.92929 0.15023 0.29076 0.0
H1078 H 0.93185 0.15457 0.22506 0.0
H1079 H 0.97308 0.15074 0.29187 0.0
C1080 C 0.01438 0.12017 0.16262 0.0
N1081 N 0.00295 0.12316 0.19 0.0
C1082 C 0.02627 0.11054 0.17417 0.0
C1083 C 0.01472 0.1079 0.24245 0.0
C1084 C 0.00297 0.11742 0.22941 0.0
C1085 C 0.02645 0.10422 0.21447 0.0
H1086 H 0.01416 0.12514 0.13171 0.0
H1087 H 0.99372 0.12009 0.25046 0.0
C1088 C 0.94939 0.1716 0.14126 0.0
N1089 N 0.93903 0.20001 0.11796 0.0
C1090 C 0.94801 0.17534 0.09895 0.0
C1091 C 0.94538 0.18228 0.17171 0.0
C1092 C 0.9428 0.18978 0.08781 0.0
C1093 C 0.94018 0.19658 0.15929 0.0
C1094 C 0.98144 0.1321 0.07846 0.0
C1095 C 0.97427 0.1389 0.04425 0.0
C1096 C 0.98658 0.11711 0.07537 0.0
C1097 C 0.97226 0.13052 0.00756 0.0
C1098 C 0.98439 0.10913 0.03808 0.0
N1099 N 0.97731 0.11594 0.00526 0.0
C1100 C 0.99272 0.17406 0.07963 0.0
C1101 C 0.98075 0.19086 0.12718 0.0
C1102 C 0.99708 0.18619 0.05428 0.0
N1103 N 0.98428 0.17653 0.11457 0.0
C1104 C 0.98473 0.20332 0.10255 0.0
C1105 C 0.99269 0.20104 0.06495 0.0
H1106 H 0.99582 0.16262 0.07086 0.0
H1107 H 0.9744 0.19262 0.15562 0.0
C1108 C 0.95001 0.11087 0.09684 0.0
N1109 N 0.94809 0.12598 0.10412 0.0
C1110 C 0.93962 0.10291 0.07221 0.0
C1111 C 0.92541 0.12616 0.06306 0.0
C1112 C 0.936 0.13363 0.08816 0.0
C1113 C 0.92716 0.11059 0.05465 0.0
H1114 H 0.95965 0.10498 0.11004 0.0
H1115 H 0.9346 0.14557 0.09472 0.0
O1116 O 0.98547 0.1558 0.20189 0.0
O1117 O 0.96633 0.12838 0.19349 0.0
O1118 O 0.95442 0.15751 0.15284 0.0
O1119 O 0.98329 0.14006 0.11487 0.0
H1120 H 0.01289 0.15882 0.16914 0.0
H1121 H 0.97841 0.18092 0.24283 0.0
H1122 H 0.02892 0.18197 0.17548 0.0
H1123 H 0.99506 0.20367 0.24802 0.0
H1124 H 0.96115 0.07705 0.19968 0.0
H1125 H 0.93639 0.12738 0.20195 0.0
H1126 H 0.97699 0.10027 0.19284 0.0
H1127 H 0.92127 0.10371 0.20887 0.0
H1128 H 0.9592 0.14552 0.35731 0.0
H1129 H 0.91703 0.14938 0.28884 0.0
H1130 H 0.03522 0.10807 0.15193 0.0
H1131 H 0.01443 0.10314 0.27367 0.0
H1132 H 0.95106 0.16723 0.07496 0.0
H1133 H 0.94645 0.17963 0.20458 0.0
H1134 H 0.94179 0.19286 0.0552 0.0
H1135 H 0.93711 0.20498 0.18251 0.0
H1136 H 0.97022 0.15047 0.04611 0.0
H1137 H 0.99193 0.11158 0.1017 0.0
H1138 H 0.96666 0.13562 0.98093 0.0
H1139 H 0.98821 0.09749 0.03535 0.0
H1140 H 0.00357 0.18392 0.02618 0.0
H1141 H 0.98101 0.21453 0.11205 0.0
H1142 H 0.94133 0.09086 0.06711 0.0
H1143 H 0.91612 0.13262 0.04977 0.0
Li1144 Li 0.36354 0.99126 0.67068 0.0
Li1145 Li 0.35508 0.96758 0.70995 0.0
Li1146 Li 0.36233 0.96549 0.63734 0.0
Li1147 Li 0.33964 0.97895 0.65714 0.0
C1148 C 0.38926 0.96807 0.67262 0.0
N1149 N 0.41757 0.95885 0.64525 0.0
C1150 C 0.39614 0.95525 0.69006 0.0
C1151 C 0.39678 0.97625 0.64141 0.0
C1152 C 0.41046 0.95076 0.67576 0.0
C1153 C 0.41109 0.9714 0.62796 0.0
C1154 C 0.3351 0.99763 0.72546 0.0
C1155 C 0.31339 0.00185 0.77008 0.0
N1156 N 0.31255 0.01644 0.75622 0.0
C1157 C 0.33419 0.01274 0.7123 0.0
C1158 C 0.32477 0.9922 0.75514 0.0
C1159 C 0.32264 0.02203 0.72794 0.0
C1160 C 0.37171 0.02258 0.65811 0.0
N1161 N 0.37513 0.00925 0.67745 0.0
C1162 C 0.39598 0.02076 0.71311 0.0
C1163 C 0.38695 0.00814 0.70456 0.0
C1164 C 0.39266 0.03472 0.69405 0.0
C1165 C 0.38033 0.03561 0.6663 0.0
H1166 H 0.36218 0.02317 0.63692 0.0
H1167 H 0.38927 0.99745 0.71993 0.0
C1168 C 0.36212 0.94267 0.75951 0.0
N1169 N 0.3572 0.95729 0.76127 0.0
C1170 C 0.36637 0.93512 0.7959 0.0
C1171 C 0.36001 0.95767 0.83547 0.0
C1172 C 0.35585 0.96481 0.79818 0.0
C1173 C 0.36569 0.94274 0.83443 0.0
H1174 H 0.36352 0.93716 0.72954 0.0
H1175 H 0.35221 0.97654 0.79845 0.0
C1176 C 0.34706 0.98744 0.57991 0.0
N1177 N 0.32878 0.99132 0.51052 0.0
C1178 C 0.34075 0.97482 0.55981 0.0
C1179 C 0.34418 0.00202 0.56455 0.0
C1180 C 0.33151 0.97702 0.52483 0.0
C1181 C 0.33489 0.00374 0.52945 0.0
C1182 C 0.33559 0.94611 0.68333 0.0
C1183 C 0.33804 0.93073 0.67457 0.0
C1184 C 0.32428 0.95024 0.71181 0.0
C1185 C 0.32936 0.91975 0.6952 0.0
C1186 C 0.31583 0.93894 0.7318 0.0
N1187 N 0.31855 0.92405 0.7232 0.0
C1188 C 0.37498 0.93775 0.61448 0.0
C1189 C 0.37618 0.95624 0.56068 0.0
C1190 C 0.3816 0.92689 0.58851 0.0
N1191 N 0.37217 0.95198 0.59998 0.0
C1192 C 0.38295 0.94576 0.53366 0.0
C1193 C 0.38553 0.93081 0.5474 0.0
H1194 H 0.37207 0.93487 0.64633 0.0
H1195 H 0.37401 0.96772 0.55023 0.0
C1196 C 0.31476 0.99737 0.62962 0.0
N1197 N 0.31943 0.98293 0.63785 0.0
C1198 C 0.30104 -5e-05 0.60882 0.0
C1199 C 0.29712 0.9728 0.60576 0.0
C1200 C 0.31087 0.97076 0.6265 0.0
C1201 C 0.29215 0.98753 0.59607 0.0
H1202 H 0.32207 0.00685 0.63688 0.0
H1203 H 0.31508 0.95939 0.63123 0.0
O1204 O 0.37506 0.9724 0.68526 0.0
O1205 O 0.34646 0.98842 0.7108 0.0
O1206 O 0.35568 0.98551 0.61512 0.0
O1207 O 0.34414 0.95706 0.66402 0.0
H1208 H 0.39045 0.94877 0.71416 0.0
H1209 H 0.39153 0.98613 0.62736 0.0
H1210 H 0.41591 0.94082 0.68884 0.0
H1211 H 0.41701 0.97757 0.60368 0.0
H1212 H 0.30528 0.99777 0.79289 0.0
H1213 H 0.34218 0.01718 0.68977 0.0
H1214 H 0.32561 0.98073 0.76697 0.0
H1215 H 0.32171 0.0337 0.71759 0.0
H1216 H 0.40526 0.0197 0.73515 0.0
H1217 H 0.37746 0.04621 0.65103 0.0
H1218 H 0.37098 0.92374 0.79351 0.0
H1219 H 0.35927 0.96393 0.86456 0.0
H1220 H 0.34272 0.96346 0.57159 0.0
H1221 H 0.34891 0.01191 0.57979 0.0
H1222 H 0.32643 0.96737 0.5092 0.0
H1223 H 0.33248 0.01496 0.51736 0.0
H1224 H 0.34651 0.92728 0.65202 0.0
H1225 H 0.32199 0.96207 0.71806 0.0
H1226 H 0.3312 0.90782 0.68886 0.0
H1227 H 0.30709 0.94201 0.75403 0.0
H1228 H 0.38368 0.91557 0.60049 0.0
H1229 H 0.38581 0.94919 0.50212 0.0
H1230 H 0.29767 0.0115 0.60175 0.0
H1231 H 0.29086 0.96288 0.59546 0.0
Li1232 Li 0.51004 0.35716 0.18998 0.0
Li1233 Li 0.53318 0.34861 0.22564 0.0
Li1234 Li 0.53398 0.35627 0.15215 0.0
Li1235 Li 0.52136 0.33278 0.17418 0.0
C1236 C 0.52389 0.38253 0.21364 0.0
N1237 N 0.51253 0.41019 0.24008 0.0
C1238 C 0.52351 0.38607 0.25624 0.0
C1239 C 0.51863 0.39312 0.18449 0.0
C1240 C 0.51771 0.40011 0.26897 0.0
C1241 C 0.51288 0.40702 0.19848 0.0
C1242 C 0.50389 0.32756 0.23897 0.0
C1243 C 0.50122 0.3023 0.2672 0.0
N1244 N 0.4862 0.30249 0.25715 0.0
C1245 C 0.48841 0.32756 0.22918 0.0
C1246 C 0.51035 0.3149 0.25838 0.0
C1247 C 0.47966 0.31475 0.23854 0.0
C1248 C 0.48247 0.37103 0.16442 0.0
N1249 N 0.49162 0.3679 0.19751 0.0
C1250 C 0.47501 0.38112 0.24393 0.0
C1251 C 0.488 0.37243 0.23688 0.0
C1252 C 0.46553 0.38487 0.21021 0.0
C1253 C 0.46922 0.37952 0.17013 0.0
H1254 H 0.48552 0.36705 0.13358 0.0
H1255 H 0.49536 0.36947 0.26269 0.0
C1256 C 0.55724 0.36006 0.26915 0.0
N1257 N 0.54458 0.35151 0.27497 0.0
C1258 C 0.56496 0.3661 0.3032 0.0
C1259 C 0.54663 0.35418 0.34907 0.0
C1260 C 0.53932 0.34817 0.31386 0.0
C1261 C 0.55933 0.36372 0.34373 0.0
H1262 H 0.56079 0.36301 0.23784 0.0
H1263 H 0.52893 0.34172 0.31741 0.0
C1264 C 0.51401 0.3506 0.09234 0.0
N1265 N 0.51536 0.35526 0.00699 0.0
C1266 C 0.51696 0.33843 0.0654 0.0
C1267 C 0.5117 0.36512 0.07584 0.0
C1268 C 0.51759 0.34102 0.02235 0.0
C1269 C 0.51246 0.36725 0.03262 0.0
C1270 C 0.55671 0.33357 0.19364 0.0
C1271 C 0.57008 0.34067 0.18033 0.0
C1272 C 0.55741 0.32212 0.22384 0.0
C1273 C 0.58394 0.33632 0.19795 0.0
C1274 C 0.57148 0.3181 0.24071 0.0
N1275 N 0.58434 0.32523 0.22754 0.0
C1276 C 0.55254 0.37971 0.12304 0.0
C1277 C 0.55166 0.35838 0.07777 0.0
C1278 C 0.56315 0.38684 0.09731 0.0
N1279 N 0.54698 0.36579 0.1128 0.0
C1280 C 0.56209 0.36521 0.05074 0.0
C1281 C 0.56802 0.37958 0.06066 0.0
H1282 H 0.54898 0.38515 0.15168 0.0
H1283 H 0.54755 0.34706 0.07127 0.0
C1284 C 0.50249 0.31061 0.13958 0.0
N1285 N 0.51669 0.31303 0.15488 0.0
C1286 C 0.49939 0.29766 0.11593 0.0
C1287 C 0.52542 0.28961 0.12598 0.0
C1288 C 0.52801 0.30272 0.14949 0.0
C1289 C 0.51109 0.28723 0.10766 0.0
H1290 H 0.49385 0.31925 0.14334 0.0
H1291 H 0.53929 0.30515 0.16106 0.0
O1292 O 0.52924 0.36873 0.20054 0.0
O1293 O 0.51268 0.3399 0.22953 0.0
O1294 O 0.51343 0.34834 0.13463 0.0
O1295 O 0.54302 0.33777 0.17707 0.0
H1296 H 0.52748 0.37802 0.27928 0.0
H1297 H 0.5189 0.39058 0.15142 0.0
H1298 H 0.51727 0.40296 0.30184 0.0
H1299 H 0.50868 0.41527 0.17627 0.0
H1300 H 0.50608 0.29239 0.28204 0.0
H1301 H 0.48324 0.33728 0.21413 0.0
H1302 H 0.52229 0.31479 0.26645 0.0
H1303 H 0.46769 0.31454 0.23092 0.0
H1304 H 0.47241 0.38491 0.27535 0.0
H1305 H 0.46218 0.38224 0.14339 0.0
H1306 H 0.57482 0.37319 0.29769 0.0
H1307 H 0.54185 0.35219 0.37978 0.0
H1308 H 0.51893 0.32714 0.0775 0.0
H1309 H 0.50942 0.37466 0.09619 0.0
H1310 H 0.51991 0.33172 0.00117 0.0
H1311 H 0.51075 0.37844 0.01945 0.0
H1312 H 0.56975 0.34953 0.15691 0.0
H1313 H 0.54717 0.31648 0.23431 0.0
H1314 H 0.59437 0.34177 0.18812 0.0
H1315 H 0.57218 0.30932 0.26428 0.0
H1316 H 0.56744 0.39796 0.10585 0.0
H1317 H 0.56575 0.35921 0.02294 0.0
H1318 H 0.48817 0.2962 0.10261 0.0
H1319 H 0.53482 0.28199 0.11987 0.0
Li1320 Li 0.1462 0.53969 0.72484 0.0
Li1321 Li 0.13638 0.517 0.69322 0.0
Li1322 Li 0.16046 0.52876 0.66978 0.0
Li1323 Li 0.13626 0.5419 0.65576 0.0
C1324 C 0.16079 0.51503 0.76197 0.0
N1325 N 0.171 0.50655 0.84017 0.0
C1326 C 0.15039 0.51133 0.7934 0.0
C1327 C 0.17637 0.51432 0.77016 0.0
C1328 C 0.15578 0.5071 0.83278 0.0
C1329 C 0.18131 0.51003 0.80994 0.0
C1330 C 0.11005 0.53461 0.69791 0.0
C1331 C 0.08982 0.52509 0.65424 0.0
N1332 N 0.07946 0.53188 0.67971 0.0
C1333 C 0.0992 0.54149 0.72362 0.0
C1334 C 0.10533 0.52633 0.66289 0.0
C1335 C 0.0838 0.53998 0.71391 0.0
C1336 C 0.1345 0.56152 0.77514 0.0
N1337 N 0.14583 0.55105 0.77569 0.0
C1338 C 0.15132 0.55685 0.84713 0.0
C1339 C 0.15463 0.54898 0.8102 0.0
C1340 C 0.13913 0.56716 0.84786 0.0
C1341 C 0.13097 0.56977 0.81092 0.0
H1342 H 0.12786 0.56312 0.74704 0.0
H1343 H 0.16392 0.54098 0.80965 0.0
C1344 C 0.12779 0.48572 0.68356 0.0
N1345 N 0.12535 0.49886 0.70488 0.0
C1346 C 0.11925 0.47274 0.69287 0.0
C1347 C 0.10608 0.48705 0.74623 0.0
C1348 C 0.11487 0.49967 0.73601 0.0
C1349 C 0.10816 0.47334 0.72452 0.0
H1350 H 0.13634 0.4853 0.65941 0.0
H1351 H 0.11325 0.5102 0.75285 0.0
C1352 C 0.16414 0.56073 0.69853 0.0
N1353 N 0.18083 0.58104 0.74576 0.0
C1354 C 0.15965 0.57593 0.7012 0.0
C1355 C 0.17717 0.55588 0.71965 0.0
C1356 C 0.16823 0.58602 0.7253 0.0
C1357 C 0.18544 0.56631 0.74342 0.0
C1358 C 0.14982 0.51903 0.59704 0.0
C1359 C 0.15447 0.53133 0.5725 0.0
C1360 C 0.15328 0.50424 0.58423 0.0
C1361 C 0.16245 0.52863 0.53548 0.0
C1362 C 0.16131 0.502 0.54703 0.0
N1363 N 0.16569 0.51414 0.52364 0.0
C1364 C 0.18501 0.51016 0.64346 0.0
C1365 C 0.18644 0.53616 0.62433 0.0
C1366 C 0.19759 0.50678 0.61846 0.0
N1367 N 0.17958 0.52461 0.64517 0.0
C1368 C 0.199 0.53331 0.59902 0.0
C1369 C 0.20456 0.51841 0.59515 0.0
H1370 H 0.17912 0.50118 0.65993 0.0
H1371 H 0.18164 0.54746 0.62552 0.0
C1372 C 0.12121 0.56865 0.63379 0.0
N1373 N 0.12478 0.55453 0.6197 0.0
C1374 C 0.11275 0.57854 0.6089 0.0
C1375 C 0.11144 0.55897 0.55592 0.0
C1376 C 0.11988 0.54945 0.58192 0.0
C1377 C 0.10786 0.57377 0.56923 0.0
H1378 H 0.12489 0.57219 0.66451 0.0
H1379 H 0.12246 0.53798 0.57206 0.0
O1380 O 0.15579 0.51909 0.72313 0.0
O1381 O 0.12518 0.53611 0.70704 0.0
O1382 O 0.15567 0.55052 0.67623 0.0
O1383 O 0.14257 0.52153 0.63432 0.0
H1384 H 0.13831 0.51193 0.78765 0.0
H1385 H 0.18456 0.51704 0.74601 0.0
H1386 H 0.14787 0.50431 0.8575 0.0
H1387 H 0.19334 0.50945 0.81678 0.0
H1388 H 0.08601 0.51872 0.62727 0.0
H1389 H 0.10265 0.54792 0.75086 0.0
H1390 H 0.1135 0.5209 0.64259 0.0
H1391 H 0.07528 0.54524 0.73356 0.0
H1392 H 0.15797 0.55468 0.87497 0.0
H1393 H 0.1214 0.57751 0.81022 0.0
H1394 H 0.12135 0.46235 0.67566 0.0
H1395 H 0.09751 0.48815 0.77037 0.0
H1396 H 0.14963 0.57989 0.68502 0.0
H1397 H 0.18075 0.54413 0.71811 0.0
H1398 H 0.16485 0.59781 0.7278 0.0
H1399 H 0.19549 0.56269 0.76012 0.0
H1400 H 0.15225 0.54288 0.58241 0.0
H1401 H 0.14999 0.49459 0.603 0.0
H1402 H 0.1662 0.53805 0.51637 0.0
H1403 H 0.16412 0.49062 0.53688 0.0
H1404 H 0.2016 0.49517 0.61664 0.0
H1405 H 0.20381 0.54257 0.58107 0.0
H1406 H 0.11023 0.58985 0.62034 0.0
H1407 H 0.10759 0.55474 0.52594 0.0
C1408 C 0.00145 0.71217 0.03455 0.0
C1409 C 0.00751 0.7139 0.07481 0.0
C1410 C 0.00064 0.72452 0.00693 0.0
C1411 C 0.00593 0.73894 0.02007 0.0
C1412 C 0.01152 0.74087 0.06123 0.0
C1413 C 0.01232 0.7283 0.08807 0.0
C1414 C 0.99474 0.72198 0.96317 0.0
C1415 C 0.01709 0.75613 0.07651 0.0
C1416 C 0.02073 0.76685 0.9395 0.0
C1417 C 0.00854 0.77705 0.93589 0.0
C1418 C 0.01986 0.75421 0.96607 0.0
C1419 C 0.00655 0.75179 0.98999 0.0
C1420 C 0.99409 0.76185 0.986 0.0
C1421 C 0.99521 0.77433 0.95885 0.0
C1422 C 0.03336 0.74366 0.96928 0.0
C1423 C 0.97972 0.75962 0.01107 0.0
H1424 H 0.9979 0.701 0.02403 0.0
H1425 H 0.01687 0.72967 0.11933 0.0
H1426 H 0.98573 0.73037 0.9557 0.0
H1427 H 0.00409 0.7237 0.94035 0.0
H1428 H 0.99006 0.71036 0.95884 0.0
H1429 H 0.0201 0.75595 0.11023 0.0
H1430 H 0.02729 0.75958 0.05842 0.0
H1431 H 0.00826 0.76493 0.07138 0.0
H1432 H 0.03117 0.76897 0.92251 0.0
H1433 H 0.98567 0.78204 0.95582 0.0
H1434 H 0.02978 0.73178 0.9631 0.0
H1435 H 0.03804 0.74403 0.00145 0.0
H1436 H 0.04255 0.74671 0.94699 0.0
H1437 H 0.97498 0.74813 0.00525 0.0
H1438 H 0.97089 0.76821 0.00344 0.0
H1439 H 0.98233 0.76037 0.04494 0.0
C1440 C 0.72262 0.00548 0.45397 0.0
C1441 C 0.72304 0.01043 0.4123 0.0
C1442 C 0.73551 0.00634 0.4795 0.0
C1443 C 0.74917 0.01232 0.46298 0.0
C1444 C 0.74975 0.01719 0.42082 0.0
C1445 C 0.73663 0.01624 0.39596 0.0
C1446 C 0.73443 0.00113 0.52439 0.0
C1447 C 0.76417 0.02355 0.40214 0.0
C1448 C 0.77782 0.02845 0.53967 0.0
C1449 C 0.7883 0.01649 0.54293 0.0
C1450 C 0.76505 0.02724 0.51367 0.0
C1451 C 0.76274 0.01379 0.49026 0.0
C1452 C 0.77321 0.00165 0.49355 0.0
C1453 C 0.78585 0.00313 0.51994 0.0
C1454 C 0.75408 0.04041 0.51107 0.0
C1455 C 0.77107 0.98711 0.46916 0.0
H1456 H 0.71205 0.00127 0.46703 0.0
H1457 H 0.73701 0.02 0.36372 0.0
H1458 H 0.74316 0.99235 0.53081 0.0
H1459 H 0.7367 0.01083 0.54567 0.0
H1460 H 0.72307 0.99636 0.53203 0.0
H1461 H 0.76284 0.02647 0.36856 0.0
H1462 H 0.76763 0.03393 0.41938 0.0
H1463 H 0.77354 0.01519 0.40531 0.0
H1464 H 0.77977 0.03889 0.5568 0.0
H1465 H 0.79381 0.99379 0.5227 0.0
H1466 H 0.74252 0.03663 0.5203 0.0
H1467 H 0.75336 0.04454 0.47837 0.0
H1468 H 0.75748 0.05004 0.53148 0.0
H1469 H 0.76013 0.98171 0.47794 0.0
H1470 H 0.78039 0.97883 0.47473 0.0
H1471 H 0.77054 0.98963 0.43522 0.0
C1472 C 0.4555 0.77514 0.03156 0.0
C1473 C 0.46903 0.77774 0.05354 0.0
C1474 C 0.45461 0.76372 0.00109 0.0
C1475 C 0.46749 0.75454 0.99302 0.0
C1476 C 0.48109 0.75692 0.01577 0.0
C1477 C 0.48174 0.76862 0.04552 0.0
C1478 C 0.43999 0.76166 0.97702 0.0
C1479 C 0.49496 0.74715 0.00858 0.0
C1480 C 0.46108 0.71627 0.94161 0.0
C1481 C 0.46575 0.71912 0.90046 0.0
C1482 C 0.46162 0.72769 0.97207 0.0
C1483 C 0.46671 0.74239 0.96088 0.0
C1484 C 0.47119 0.74541 0.91914 0.0
C1485 C 0.47081 0.73366 0.88946 0.0
C1486 C 0.45703 0.72395 0.01639 0.0
C1487 C 0.47643 0.76103 0.90595 0.0
H1488 H 0.44574 0.78237 0.03735 0.0
H1489 H 0.49218 0.77065 0.06264 0.0
H1490 H 0.44215 0.7632 0.94311 0.0
H1491 H 0.43561 0.74995 0.98141 0.0
H1492 H 0.43106 0.76983 0.98691 0.0
H1493 H 0.50449 0.75019 0.02977 0.0
H1494 H 0.49206 0.735 0.01344 0.0
H1495 H 0.49889 0.74836 0.9758 0.0
H1496 H 0.4574 0.70494 0.95025 0.0
H1497 H 0.47443 0.73583 0.85761 0.0
H1498 H 0.44756 0.73142 0.02645 0.0
H1499 H 0.46671 0.72609 0.03785 0.0
H1500 H 0.4534 0.71192 0.01993 0.0
H1501 H 0.46757 0.76958 0.91349 0.0
H1502 H 0.47898 0.76164 0.87198 0.0
H1503 H 0.48681 0.76422 0.92355 0.0
C1504 C 0.71794 0.49603 0.55836 0.0
C1505 C 0.7167 0.48241 0.58086 0.0
C1506 C 0.72939 0.498 0.52826 0.0
C1507 C 0.73982 0.48607 0.52064 0.0
C1508 C 0.73895 0.47252 0.5444 0.0
C1509 C 0.72738 0.47085 0.57418 0.0
C1510 C 0.72996 0.51259 0.5035 0.0
C1511 C 0.74994 0.45958 0.53743 0.0
C1512 C 0.75882 0.48118 0.41517 0.0
C1513 C 0.77366 0.48607 0.42366 0.0
C1514 C 0.7475 0.48174 0.44601 0.0
C1515 C 0.75115 0.48729 0.48634 0.0
C1516 C 0.76593 0.49289 0.49454 0.0
C1517 C 0.77702 0.49222 0.46307 0.0
C1518 C 0.73183 0.47578 0.43596 0.0
C1519 C 0.77023 0.49889 0.53714 0.0
H1520 H 0.70958 0.50492 0.56307 0.0
H1521 H 0.72652 0.46037 0.59185 0.0
H1522 H 0.74159 0.51747 0.5043 0.0
H1523 H 0.72721 0.51022 0.4703 0.0
H1524 H 0.72183 0.52121 0.51551 0.0
H1525 H 0.74823 0.45016 0.56008 0.0
H1526 H 0.74851 0.455 0.50535 0.0
H1527 H 0.76182 0.4637 0.54015 0.0
H1528 H 0.75615 0.47658 0.3846 0.0
H1529 H 0.78853 0.49585 0.46997 0.0
H1530 H 0.72307 0.48428 0.44464 0.0
H1531 H 0.72957 0.46538 0.45456 0.0
H1532 H 0.73052 0.47296 0.4023 0.0
H1533 H 0.76181 0.50741 0.54796 0.0
H1534 H 0.78169 0.5042 0.53724 0.0
H1535 H 0.77017 0.48944 0.56008 0.0
C1536 C 0.97856 0.2715 0.92173 0.0
C1537 C 0.99106 0.27791 0.90103 0.0
C1538 C 0.98029 0.2588 0.94761 0.0
C1539 C 0.99486 0.25226 0.95273 0.0
C1540 C 0.00752 0.25854 0.93152 0.0
C1541 C 0.00548 0.27138 0.90605 0.0
C1542 C 0.96652 0.25252 0.96999 0.0
C1543 C 0.02319 0.25173 0.93589 0.0
C1544 C -0.00124 0.22846 0.05081 0.0
C1545 C 0.99533 0.21389 0.03566 0.0
C1546 C -0.00062 0.241 0.02379 0.0
C1547 C 0.99667 0.23888 0.98057 0.0
C1548 C 0.99409 0.2241 0.96474 0.0
C1549 C 0.99334 0.2118 0.99249 0.0
C1550 C 0.00214 0.25662 0.04184 0.0
C1551 C 0.99126 0.22137 0.91879 0.0
H1552 H 0.96745 0.2767 0.91857 0.0
H1553 H 0.01515 0.2763 0.88995 0.0
H1554 H 0.96476 0.24045 0.96125 0.0
H1555 H 0.96837 0.2529 0.00428 0.0
H1556 H 0.95599 0.25895 0.9626 0.0
H1557 H 0.03178 0.25778 0.91663 0.0
H1558 H 0.02682 0.25211 0.96907 0.0
H1559 H 0.02297 0.2396 0.92641 0.0
H1560 H 0.0006 0.23013 0.08398 0.0
H1561 H 0.9905 0.20064 0.98044 0.0
H1562 H 0.99165 0.26354 0.03892 0.0
H1563 H 0.01123 0.26255 0.02418 0.0
H1564 H 0.00542 0.25617 0.07535 0.0
H1565 H 0.98004 0.22615 0.90999 0.0
H1566 H 0.99134 0.20908 0.91082 0.0
H1567 H -2e-05 0.22723 0.89961 0.0
C1568 C 0.27852 0.0 0.53647 0.0
C1569 C 0.27839 0.98968 0.56991 0.0
C1570 C 0.26625 0.00082 0.50852 0.0
C1571 C 0.25369 0.99098 0.51396 0.0
C1572 C 0.25325 0.98097 0.54856 0.0
C1573 C 0.26557 0.98051 0.57624 0.0
C1574 C 0.26701 0.01179 0.4723 0.0
C1575 C 0.24004 0.97028 0.55542 0.0
C1576 C 0.21571 0.99694 0.46058 0.0
C1577 C 0.21652 0.9864 0.42766 0.0
C1578 C 0.22803 -0.00086 0.48772 0.0
C1579 C 0.24137 0.99039 0.4823 0.0
C1580 C 0.24249 0.98016 0.44828 0.0
C1581 C 0.23011 0.97839 0.42116 0.0
C1582 C 0.22652 0.01034 0.52326 0.0
C1583 C 0.25653 0.97058 0.44158 0.0
H1584 H 0.28846 0.007 0.53109 0.0
H1585 H 0.26531 0.9727 0.60242 0.0
H1586 H 0.26815 0.00536 0.44262 0.0
H1587 H 0.25636 0.0185 0.47028 0.0
H1588 H 0.27677 0.01974 0.47498 0.0
H1589 H 0.24118 0.96364 0.58479 0.0
H1590 H 0.22922 0.97674 0.55659 0.0
H1591 H 0.23923 0.96221 0.52884 0.0
H1592 H 0.20523 0.00305 0.4663 0.0
H1593 H 0.23096 0.97047 0.39533 0.0
H1594 H 0.23665 0.01784 0.52472 0.0
H1595 H 0.22588 0.00411 0.55334 0.0
H1596 H 0.2162 0.01752 0.52021 0.0
H1597 H 0.26679 0.9779 0.44017 0.0
H1598 H 0.25591 0.96375 0.41242 0.0
H1599 H 0.25802 0.96271 0.46838 0.0
C1600 C 0.5249 0.23148 0.92034 0.0
C1601 C 0.51441 0.21964 0.91552 0.0
C1602 C 0.52273 0.24277 0.95067 0.0
C1603 C 0.50976 0.24216 0.97682 0.0
C1604 C 0.49874 0.23065 0.97073 0.0
C1605 C 0.5012 0.2195 0.94009 0.0
C1606 C 0.53468 0.25495 0.95597 0.0
C1607 C 0.48474 0.22968 -0.0021 0.0
C1608 C 0.51537 0.26056 0.08279 0.0
C1609 C 0.50897 0.27496 0.07638 0.0
C1610 C 0.51513 0.24953 0.05114 0.0
C1611 C 0.50833 0.25301 0.01217 0.0
C1612 C 0.50123 0.26725 0.00617 0.0
C1613 C 0.50166 0.27808 0.03833 0.0
C1614 C 0.52274 0.2344 0.05878 0.0
C1615 C 0.49383 0.27134 0.96511 0.0
H1616 H 0.53506 0.23167 0.90111 0.0
H1617 H 0.49315 0.21024 0.93683 0.0
H1618 H 0.52936 0.26637 0.95514 0.0
H1619 H 0.54024 0.25368 0.9869 0.0
H1620 H 0.54358 0.25439 0.93135 0.0
H1621 H 0.47655 0.22101 0.98642 0.0
H1622 H 0.48809 0.22666 0.03028 0.0
H1623 H 0.47891 0.24085 -0.0007 0.0
H1624 H 0.52086 0.25804 0.1123 0.0
H1625 H 0.49688 0.28926 0.03289 0.0
H1626 H 0.53279 0.23327 0.03802 0.0
H1627 H 0.51486 0.22497 0.0511 0.0
H1628 H 0.52655 0.23309 0.09168 0.0
H1629 H 0.50268 0.27247 0.94058 0.0
H1630 H 0.48743 0.2822 0.96698 0.0
H1631 H 0.48594 0.26221 0.95504 0.0
C1632 C 0.27542 0.50053 0.44492 0.0
C1633 C 0.27317 0.50778 0.40631 0.0
C1634 C 0.26407 0.50052 0.47569 0.0
C1635 C 0.2502 0.50814 0.46797 0.0
C1636 C 0.24759 0.51493 0.42851 0.0
C1637 C 0.25907 0.51459 0.39807 0.0
C1638 C 0.26722 0.49299 0.51722 0.0
C1639 C 0.23293 0.52318 0.41914 0.0
C1640 C 0.21604 0.5022 0.53884 0.0
C1641 C 0.21692 0.51501 0.5649 0.0
C1642 C 0.22698 0.4996 0.50768 0.0
C1643 C 0.23898 0.51013 0.50224 0.0
C1644 C 0.24011 0.52289 0.52904 0.0
C1645 C 0.22913 0.52512 0.56018 0.0
C1646 C 0.22551 0.48578 0.47997 0.0
C1647 C 0.25275 0.53439 0.52423 0.0
H1648 H 0.28633 0.49542 0.45197 0.0
H1649 H 0.25713 0.51999 0.36811 0.0
H1650 H 0.2684 0.50181 0.54182 0.0
H1651 H 0.25759 0.48554 0.5263 0.0
H1652 H 0.27779 0.4861 0.51657 0.0
H1653 H 0.23225 0.52693 0.38604 0.0
H1654 H 0.22304 0.51578 0.42601 0.0
H1655 H 0.23198 0.53334 0.43955 0.0
H1656 H 0.20653 0.49445 0.54189 0.0
H1657 H 0.23001 0.53491 0.58061 0.0
H1658 H 0.23627 0.47921 0.48004 0.0
H1659 H 0.22338 0.48939 0.44727 0.0
H1660 H 0.2161 0.47819 0.48999 0.0
H1661 H 0.26395 0.5287 0.52698 0.0
H1662 H 0.25212 0.54358 0.54799 0.0
H1663 H 0.25221 0.53961 0.4927 0.0
C1664 C 0.07903 0.59403 0.00577 0.0
C1665 C 0.08332 0.60163 0.04239 0.0
C1666 C 0.08997 0.58847 0.97787 0.0
C1667 C 0.1056 0.59059 0.98673 0.0
C1668 C 0.11003 0.59797 0.02409 0.0
C1669 C 0.09882 0.6034 0.05158 0.0
C1670 C 0.08476 0.58054 0.93848 0.0
C1671 C 0.12658 0.60047 0.03446 0.0
C1672 C 0.13089 0.56486 0.92224 0.0
C1673 C 0.13373 0.57408 0.88737 0.0
C1674 C 0.12261 0.57042 0.95649 0.0
C1675 C 0.11712 0.58554 0.95572 0.0
C1676 C 0.12106 0.59524 0.92213 0.0
C1677 C 0.1293 0.58937 0.88828 0.0
C1678 C 0.11869 0.55974 0.9918 0.0
C1679 C 0.11559 0.6115 0.92037 0.0
H1680 H 0.06707 0.59246 -0.00109 0.0
H1681 H 0.10217 0.60939 0.07971 0.0
H1682 H 0.08862 0.58702 0.91068 0.0
H1683 H 0.08991 0.56905 0.93652 0.0
H1684 H 0.0722 0.57936 0.93698 0.0
H1685 H 0.12816 0.60551 0.066 0.0
H1686 H 0.13288 0.58956 0.03298 0.0
H1687 H 0.13176 0.60818 0.01101 0.0
H1688 H 0.13421 0.55299 0.92152 0.0
H1689 H 0.13166 0.59656 0.86152 0.0
H1690 H 0.10653 0.55648 0.9895 0.0
H1691 H 0.12032 0.56538 0.02248 0.0
H1692 H 0.12566 0.54922 0.99093 0.0
H1693 H 0.10316 0.61165 0.91451 0.0
H1694 H 0.1213 0.61806 0.89518 0.0
H1695 H 0.11761 0.6173 0.95065 0.0
C1696 C 0.91957 0.12707 0.35548 0.0
C1697 C 0.9288 0.13973 0.36335 0.0
C1698 C 0.91324 0.11867 0.38829 0.0
C1699 C 0.91603 0.12318 0.43006 0.0
C1700 C 0.92483 0.13633 0.43824 0.0
C1701 C 0.93129 0.14438 0.40469 0.0
C1702 C 0.90414 0.10457 0.37824 0.0
C1703 C 0.92776 0.14164 0.48236 0.0
C1704 C 0.88958 0.10475 0.50869 0.0
C1705 C 0.89849 0.09259 0.52279 0.0
C1706 C 0.89545 0.11536 0.4802 0.0
C1707 C 0.91043 0.11351 0.46486 0.0
C1708 C 0.9196 0.10148 0.48 0.0
C1709 C 0.91354 0.09122 0.50914 0.0
C1710 C 0.88544 0.12821 0.46542 0.0
C1711 C 0.93553 0.09896 0.46384 0.0
H1712 H 0.91788 0.12328 0.32355 0.0
H1713 H 0.93844 0.15417 0.41073 0.0
H1714 H 0.90994 0.09442 0.39124 0.0
H1715 H 0.89275 0.10522 0.39298 0.0
H1716 H 0.90265 0.1029 0.34406 0.0
H1717 H 0.93355 0.15285 0.48326 0.0
H1718 H 0.9169 0.14248 0.49989 0.0
H1719 H 0.93498 0.13323 0.49885 0.0
H1720 H 0.87797 0.10586 0.51967 0.0
H1721 H 0.92037 0.08174 0.51992 0.0
H1722 H 0.8824 0.12642 0.43213 0.0
H1723 H 0.89162 0.13918 0.46746 0.0
H1724 H 0.87478 0.12908 0.4839 0.0
H1725 H 0.93511 0.09609 0.43007 0.0
H1726 H 0.94146 0.08963 0.48059 0.0
H1727 H 0.94235 0.1095 0.46702 0.0
C1728 C 0.42281 0.90011 0.98059 0.0
C1729 C 0.41854 0.89813 0.02244 0.0
C1730 C 0.41324 0.90762 0.95235 0.0
C1731 C 0.39907 0.91331 0.96635 0.0
C1732 C 0.39471 0.91142 0.00859 0.0
C1733 C 0.40451 0.90384 0.03617 0.0
C1734 C 0.4183 0.90947 0.90751 0.0
C1735 C 0.37967 0.91732 0.02454 0.0
C1736 C 0.38223 0.94409 0.89782 0.0
C1737 C 0.37242 0.93565 0.87218 0.0
C1738 C 0.39047 0.93707 0.92995 0.0
C1739 C 0.38889 0.92125 0.93648 0.0
C1740 C 0.37843 0.91281 0.91212 0.0
C1741 C 0.37031 0.92013 0.88025 0.0
C1742 C 0.40149 0.94644 0.95538 0.0
C1743 C 0.37637 0.89593 0.91836 0.0
H1744 H 0.43372 0.89588 0.96997 0.0
H1745 H 0.40107 0.90215 0.06838 0.0
H1746 H 0.40995 0.90404 0.88625 0.0
H1747 H 0.41878 0.92171 0.8993 0.0
H1748 H 0.42966 0.90437 0.90168 0.0
H1749 H 0.37805 0.91506 0.05841 0.0
H1750 H 0.37888 0.92975 0.01917 0.0
H1751 H 0.37021 0.91193 0.00704 0.0
H1752 H 0.38407 0.95605 0.89145 0.0
H1753 H 0.3626 0.91361 0.86084 0.0
H1754 H 0.4133 0.943 0.94781 0.0
H1755 H 0.39974 0.9444 0.98926 0.0
H1756 H 0.4003 0.95881 0.94918 0.0
H1757 H 0.38696 0.88991 0.90933 0.0
H1758 H 0.36685 0.89131 0.89945 0.0
H1759 H 0.37421 0.89337 0.95178 0.0
C1760 C 0.56962 0.38774 0.37396 0.0
C1761 C 0.56589 0.37235 0.37928 0.0
C1762 C 0.57617 0.39618 0.40634 0.0
C1763 C 0.57892 0.38914 0.44532 0.0
C1764 C 0.57487 0.37371 0.45139 0.0
C1765 C 0.56839 0.36547 0.4182 0.0
C1766 C 0.58029 0.41262 0.3986 0.0
C1767 C 0.57759 0.36589 0.49268 0.0
C1768 C 0.60951 0.40815 0.51028 0.0
C1769 C 0.60086 0.41745 0.53677 0.0
C1770 C 0.60249 0.39843 0.48142 0.0
C1771 C 0.58642 0.39797 0.47911 0.0
C1772 C 0.57762 0.40699 0.50665 0.0
C1773 C 0.58496 0.41668 0.53507 0.0
C1774 C 0.61226 0.3891 0.45227 0.0
C1775 C 0.56047 0.40673 0.50527 0.0
H1776 H 0.56734 0.39325 0.34433 0.0
H1777 H 0.56553 0.35359 0.42246 0.0
H1778 H 0.57437 0.42004 0.42144 0.0
H1779 H 0.59268 0.41428 0.40314 0.0
H1780 H 0.57726 0.41641 0.36656 0.0
H1781 H 0.57319 0.35405 0.49291 0.0
H1782 H 0.58994 0.36562 0.49952 0.0
H1783 H 0.57204 0.37234 0.51829 0.0
H1784 H 0.62181 0.40881 0.51122 0.0
H1785 H 0.57824 0.42369 0.55594 0.0
H1786 H 0.61064 0.39308 0.41967 0.0
H1787 H 0.60881 0.37698 0.45336 0.0
H1788 H 0.62454 0.38992 0.46011 0.0
H1789 H 0.55648 0.41147 0.47508 0.0
H1790 H 0.55531 0.41343 0.53106 0.0
H1791 H 0.55626 0.39486 0.50719 0.0
C1792 C 0.1204 0.93376 0.09681 0.0
C1793 C 0.12758 0.92482 0.12717 0.0
C1794 C 0.11225 0.92702 0.06402 0.0
C1795 C 0.11139 0.91097 0.0615 0.0
C1796 C 0.11951 0.90192 0.09044 0.0
C1797 C 0.12746 0.90896 0.12311 0.0
C1798 C 0.10369 0.93706 0.03385 0.0
C1799 C 0.11905 0.88478 0.08842 0.0
C1800 C 0.07556 0.89385 0.01559 0.0
C1801 C 0.08031 0.88999 0.97516 0.0
C1802 C 0.08558 0.90073 0.04387 0.0
C1803 C 0.10076 0.9037 0.0315 0.0
C1804 C 0.10565 0.89975 0.99079 0.0
C1805 C 0.09533 0.89299 0.96299 0.0
C1806 C 0.0799 0.90491 0.08694 0.0
C1807 C 0.12179 0.9026 0.97673 0.0
H1808 H 0.12034 0.94602 0.10016 0.0
H1809 H 0.13312 0.90205 0.14644 0.0
H1810 H 0.10588 0.93349 0.00114 0.0
H1811 H 0.0913 0.93591 0.03951 0.0
H1812 H 0.10685 0.94922 0.03724 0.0
H1813 H 0.12741 0.87947 0.10993 0.0
H1814 H 0.10752 0.88074 0.09708 0.0
H1815 H 0.12137 0.88079 0.05614 0.0
H1816 H 0.0639 0.89169 0.02488 0.0
H1817 H 0.09906 0.88986 0.93185 0.0
H1818 H 0.08132 0.91729 0.09225 0.0
H1819 H 0.0867 0.89893 0.11106 0.0
H1820 H 0.06773 0.90195 0.09147 0.0
H1821 H 0.12445 0.9149 0.97896 0.0
H1822 H 0.1238 0.8988 0.94408 0.0
H1823 H 0.12982 0.89655 0.99761 0.0
C1824 C 0.58967 0.11254 0.64583 0.0
C1825 C 0.57409 0.11572 0.6422 0.0
C1826 C 0.59698 0.1028 0.61758 0.0
C1827 C 0.58859 0.09634 0.58431 0.0
C1828 C 0.57311 0.10022 0.57889 0.0
C1829 C 0.566 0.10976 0.60811 0.0
C1830 C 0.6135 0.09886 0.62448 0.0
C1831 C 0.56387 0.09379 0.54325 0.0
C1832 C 0.61054 0.07851 0.49476 0.0
C1833 C 0.6094 0.06301 0.50437 0.0
C1834 C 0.60369 0.08951 0.52027 0.0
C1835 C 0.59578 0.08487 0.5566 0.0
C1836 C 0.59473 0.06922 0.56662 0.0
C1837 C 0.60143 0.05844 0.54007 0.0
C1838 C 0.60477 0.10606 0.50813 0.0
C1839 C 0.58659 0.06387 0.6055 0.0
H1840 H 0.5961 0.11736 0.67151 0.0
H1841 H 0.55393 0.11197 0.60519 0.0
H1842 H 0.61457 0.08656 0.63152 0.0
H1843 H 0.62018 0.10109 0.59573 0.0
H1844 H 0.61859 0.1054 0.65068 0.0
H1845 H 0.55246 0.09913 0.54096 0.0
H1846 H 0.56993 0.09544 0.51316 0.0
H1847 H 0.56236 0.08138 0.54772 0.0
H1848 H 0.61656 0.08199 0.46676 0.0
H1849 H 0.60062 0.04644 0.54745 0.0
H1850 H 0.61041 0.11263 0.53335 0.0
H1851 H 0.5932 0.11086 0.50414 0.0
H1852 H 0.61123 0.10775 0.47865 0.0
H1853 H 0.59171 0.06925 0.63354 0.0
H1854 H 0.58711 0.05133 0.60927 0.0
H1855 H 0.57449 0.06737 0.60438 0.0
C1856 C 0.36991 0.57409 0.08811 0.0
C1857 C 0.37412 0.57221 0.12996 0.0
C1858 C 0.37968 0.5814 0.05979 0.0
C1859 C 0.3941 0.58653 0.07359 0.0
C1860 C 0.39833 0.5847 0.11595 0.0
C1861 C 0.38821 0.57768 0.14373 0.0
C1862 C 0.37466 0.58346 0.01503 0.0
C1863 C 0.41372 0.58972 0.13165 0.0
C1864 C 0.42497 0.59078 0.99146 0.0
C1865 C 0.42531 0.60658 0.98556 0.0
C1866 C 0.41501 0.58413 0.02043 0.0
C1867 C 0.40494 0.59346 0.04351 0.0
C1868 C 0.40527 0.6094 0.03798 0.0
C1869 C 0.41557 0.61578 0.00949 0.0
C1870 C 0.41517 0.56708 0.02608 0.0
C1871 C 0.39461 0.61971 0.0618 0.0
H1872 H 0.35901 0.56982 0.07759 0.0
H1873 H 0.39155 0.57596 0.17602 0.0
H1874 H 0.37553 0.5956 0.006 0.0
H1875 H 0.38225 0.57695 0.99392 0.0
H1876 H 0.36278 0.5796 0.00991 0.0
H1877 H 0.41513 0.58771 0.16571 0.0
H1878 H 0.42279 0.58346 0.11473 0.0
H1879 H 0.41544 0.60199 0.12533 0.0
H1880 H 0.43225 0.58353 0.97279 0.0
H1881 H 0.41595 0.62801 0.00592 0.0
H1882 H 0.40398 0.56227 0.01708 0.0
H1883 H 0.41707 0.56422 0.05945 0.0
H1884 H 0.42413 0.5615 0.00703 0.0
H1885 H 0.38265 0.6164 0.05553 0.0
H1886 H 0.3961 0.63186 0.05325 0.0
H1887 H 0.39652 0.61848 0.09589 0.0
C1888 C 0.91637 0.38758 0.63199 0.0
C1889 C 0.92456 0.37417 0.62424 0.0
C1890 C 0.90883 0.39525 0.59979 0.0
C1891 C 0.90981 0.38965 0.55846 0.0
C1892 C 0.91809 0.37619 0.55016 0.0
C1893 C 0.92526 0.36852 0.58324 0.0
C1894 C 0.89998 0.4095 0.61 0.0
C1895 C 0.91955 0.37003 0.5063 0.0
C1896 C 0.87995 0.40406 0.48281 0.0
C1897 C 0.88745 0.41647 0.46478 0.0
C1898 C 0.88722 0.39495 0.51268 0.0
C1899 C 0.90243 0.39821 0.52402 0.0
C1900 C 0.91023 0.41041 0.50467 0.0
C1901 C 0.90257 0.41951 0.47556 0.0
C1902 C 0.87845 0.38225 0.53331 0.0
C1903 C 0.92654 0.41406 0.51543 0.0
H1904 H 0.91608 0.39234 0.66321 0.0
H1905 H 0.93143 0.35811 0.57693 0.0
H1906 H 0.90521 0.41941 0.59412 0.0
H1907 H 0.88815 0.40848 0.59833 0.0
H1908 H 0.89961 0.41184 0.64412 0.0
H1909 H 0.92634 0.35939 0.5051 0.0
H1910 H 0.90812 0.36772 0.49309 0.0
H1911 H 0.92504 0.37863 0.48593 0.0
H1912 H 0.86821 0.4018 0.47452 0.0
H1913 H 0.90838 0.42904 0.46117 0.0
H1914 H 0.87704 0.38477 0.56708 0.0
H1915 H 0.88481 0.37141 0.53085 0.0
H1916 H 0.86701 0.38066 0.51926 0.0
H1917 H 0.92727 0.41795 0.54835 0.0
H1918 H 0.93134 0.42306 0.49497 0.0
H1919 H 0.93368 0.40372 0.51259 0.0
C1920 C 0.91824 0.39195 0.01252 0.0
C1921 C 0.91397 0.38555 0.97415 0.0
C1922 C 0.90734 0.39796 0.03987 0.0
C1923 C 0.89178 0.39761 0.02853 0.0
C1924 C 0.88736 0.39101 0.9901 0.0
C1925 C 0.89851 0.38503 0.96339 0.0
C1926 C 0.91249 0.40491 0.08066 0.0
C1927 C 0.87087 0.39041 0.97706 0.0
C1928 C 0.86457 0.40291 0.11921 0.0
C1929 C 0.862 0.41864 0.11784 0.0
C1930 C 0.87365 0.39573 0.08906 0.0
C1931 C 0.88026 0.40449 0.05674 0.0
C1932 C 0.87689 0.42018 0.05361 0.0
C1933 C 0.86781 0.42707 0.08425 0.0
C1934 C 0.8769 0.37895 0.09327 0.0
C1935 C 0.88365 0.42989 0.0194 0.0
H1936 H 0.93017 0.39255 0.0208 0.0
H1937 H 0.89511 0.37988 0.93406 0.0
H1938 H 0.90935 0.41711 0.08157 0.0
H1939 H 0.90667 0.39927 0.10724 0.0
H1940 H 0.92497 0.40393 0.08528 0.0
H1941 H 0.86929 0.38458 0.94656 0.0
H1942 H 0.86407 0.38438 0.00109 0.0
H1943 H 0.86626 0.40211 0.97459 0.0
H1944 H 0.85992 0.3963 0.1448 0.0
H1945 H 0.86602 0.43926 0.0832 0.0
H1946 H 0.88898 0.37729 0.10218 0.0
H1947 H 0.87513 0.37308 0.06297 0.0
H1948 H 0.86962 0.37347 0.11731 0.0
H1949 H 0.89609 0.43095 0.02427 0.0
H1950 H 0.87864 0.44148 0.01875 0.0
H1951 H 0.8819 0.42449 0.98844 0.0
C1952 C 0.08447 0.86896 0.64066 0.0
C1953 C 0.07257 0.85927 0.62874 0.0
C1954 C 0.09181 0.87823 0.61137 0.0
C1955 C 0.08722 0.87772 0.56903 0.0
C1956 C 0.07582 0.86733 0.55632 0.0
C1957 C 0.06856 0.85827 0.58643 0.0
C1958 C 0.10382 0.88925 0.62625 0.0
C1959 C 0.07079 0.86633 0.51131 0.0
C1960 C 0.09221 0.91403 0.50678 0.0
C1961 C 0.10566 0.91108 0.48477 0.0
C1962 C 0.08602 0.90318 0.534 0.0
C1963 C 0.09341 0.889 0.53897 0.0
C1964 C 0.1069 0.88588 0.51645 0.0
C1965 C 0.11292 0.89701 0.48973 0.0
C1966 C 0.07171 0.907 0.55791 0.0
C1967 C 0.11499 0.87083 0.52073 0.0
H1968 H 0.08749 0.86997 0.67339 0.0
H1969 H 0.05944 0.85071 0.57706 0.0
H1970 H 0.1142 0.8883 0.60671 0.0
H1971 H 0.09954 0.90105 0.62307 0.0
H1972 H 0.10699 0.88732 0.65943 0.0
H1973 H 0.06305 0.85655 0.50579 0.0
H1974 H 0.06475 0.87692 0.50252 0.0
H1975 H 0.08078 0.86524 0.49035 0.0
H1976 H 0.08666 0.92496 0.50325 0.0
H1977 H 0.12322 0.89464 0.47231 0.0
H1978 H 0.07397 0.90652 0.59201 0.0
H1979 H 0.06274 0.89851 0.55101 0.0
H1980 H 0.06729 0.91848 0.55013 0.0
H1981 H 0.11877 0.86922 0.5535 0.0
H1982 H 0.12506 0.86999 0.4999 0.0
H1983 H 0.10708 0.86138 0.51326 0.0
C1984 C 0.6246 0.06975 0.12204 0.0
C1985 C 0.61578 0.05876 0.14248 0.0
C1986 C 0.61832 0.07877 0.09016 0.0
C1987 C 0.60293 0.07665 0.07861 0.0
C1988 C 0.59419 0.06516 0.09807 0.0
C1989 C 0.60073 0.05634 0.12969 0.0
C1990 C 0.62798 0.09088 0.0699 0.0
C1991 C 0.57776 0.06248 0.08644 0.0
C1992 C 0.57953 0.1087 0.03268 0.0
C1993 C 0.57864 0.1044 0.99056 0.0
C1994 C 0.58792 0.10007 0.06141 0.0
C1995 C 0.5956 0.08685 0.04762 0.0
C1996 C 0.59518 0.08274 0.00489 0.0
C1997 C 0.58667 0.09155 0.97686 0.0
C1998 C 0.58812 0.10483 0.10677 0.0
C1999 C 0.60322 0.06871 0.98906 0.0
H2000 H 0.63621 0.07169 0.13203 0.0
H2001 H 0.59398 0.04766 0.14497 0.0
H2002 H 0.62756 0.08977 0.03537 0.0
H2003 H 0.62342 0.10227 0.0779 0.0
H2004 H 0.64003 0.0903 0.08013 0.0
H2005 H 0.57276 0.05263 0.10329 0.0
H2006 H 0.57094 0.07274 0.09387 0.0
H2007 H 0.57673 0.06044 0.05234 0.0
H2008 H 0.57355 0.11875 0.04329 0.0
H2009 H 0.5859 0.08807 0.94443 0.0
H2010 H 0.6 0.10562 0.11821 0.0
H2011 H 0.58226 0.09611 0.12599 0.0
H2012 H 0.58243 0.11594 0.11189 0.0
H2013 H 0.61523 0.06864 -0.00039 0.0
H2014 H 0.60299 0.06789 0.95441 0.0
H2015 H 0.5977 0.05842 0.00219 0.0
C2016 C 0.40313 0.57537 0.45284 0.0
C2017 C 0.39186 0.56535 0.46701 0.0
C2018 C 0.41139 0.58438 0.48101 0.0
C2019 C 0.40817 0.58341 0.52427 0.0
C2020 C 0.39668 0.57342 0.53868 0.0
C2021 C 0.38871 0.56445 0.50985 0.0
C2022 C 0.42369 0.59475 0.46459 0.0
C2023 C 0.39285 0.57218 0.58458 0.0
C2024 C 0.43803 0.59417 0.60418 0.0
C2025 C 0.43305 0.60857 0.61688 0.0
C2026 C 0.43028 0.58604 0.57316 0.0
C2027 C 0.41714 0.59244 0.55473 0.0
C2028 C 0.41227 0.60716 0.56667 0.0
C2029 C 0.42037 0.61511 0.59752 0.0
C2030 C 0.43594 0.57046 0.56086 0.0
C2031 C 0.39824 0.61428 0.54788 0.0
H2032 H 0.40568 0.57597 0.41972 0.0
H2033 H 0.37987 0.55683 0.52076 0.0
H2034 H 0.42146 0.60663 0.47444 0.0
H2035 H 0.43483 0.59141 0.47801 0.0
H2036 H 0.42455 0.59441 0.42995 0.0
H2037 H 0.38326 0.56425 0.59048 0.0
H2038 H 0.40292 0.56812 0.60219 0.0
H2039 H 0.38981 0.58352 0.59721 0.0
H2040 H 0.44796 0.58919 0.6189 0.0
H2041 H 0.41646 0.62621 0.60762 0.0
H2042 H 0.4376 0.56985 0.52652 0.0
H2043 H 0.42734 0.56177 0.5693 0.0
H2044 H 0.44683 0.56751 0.57644 0.0
H2045 H 0.39912 0.61444 0.5133 0.0
H2046 H 0.39638 0.62608 0.55913 0.0
H2047 H 0.38811 0.60736 0.556 0.0
C2048 C 0.87657 0.08315 0.86544 0.0
C2049 C 0.86936 0.06906 0.87099 0.0
C2050 C 0.88466 0.09003 0.89804 0.0
C2051 C 0.88578 0.08256 0.93705 0.0
C2052 C 0.87805 0.06865 0.94352 0.0
C2053 C 0.86985 0.0621 0.91045 0.0
C2054 C 0.89265 0.10495 0.89 0.0
C2055 C 0.87904 0.06033 0.98468 0.0
C2056 C 0.9216 0.09187 0.99759 0.0
C2057 C 0.9163 0.10257 0.02667 0.0
C2058 C 0.91166 0.08486 0.96931 0.0
C2059 C 0.89605 0.08877 0.96972 0.0
C2060 C 0.89053 0.09929 -0.00046 0.0
C2061 C 0.90071 0.106 0.02783 0.0
C2062 C 0.91795 0.07362 0.93808 0.0
C2063 C 0.87398 0.10379 0.00072 0.0
H2064 H 0.87655 0.0885 0.83495 0.0
H2065 H 0.86416 0.05131 0.91518 0.0
H2066 H 0.88994 0.11324 0.91506 0.0
H2067 H 0.90513 0.10316 0.89031 0.0
H2068 H 0.88944 0.10999 0.85941 0.0
H2069 H 0.87129 0.05037 0.98592 0.0
H2070 H 0.89086 0.0563 0.98959 0.0
H2071 H 0.87624 0.06808 0.01094 0.0
H2072 H 0.93363 0.0893 0.99602 0.0
H2073 H 0.89647 0.11404 0.05067 0.0
H2074 H 0.91681 0.07825 0.90599 0.0
H2075 H 0.91139 0.06286 0.93927 0.0
H2076 H 0.93013 0.07101 0.94381 0.0
H2077 H 0.87094 0.10972 0.97128 0.0
H2078 H 0.87134 0.11143 0.02743 0.0
H2079 H 0.86668 0.09355 0.00293 0.0
C2080 C 0.40468 0.92268 0.49408 0.0
C2081 C 0.39199 0.91925 0.5188 0.0
C2082 C 0.41072 0.9119 0.46636 0.0
C2083 C 0.40379 0.89742 0.46304 0.0
C2084 C 0.39104 0.89385 0.48816 0.0
C2085 C 0.38533 0.9048 0.5159 0.0
C2086 C 0.42443 0.91606 0.44032 0.0
C2087 C 0.38323 0.87861 0.48506 0.0
C2088 C 0.41055 0.87707 0.36037 0.0
C2089 C 0.42231 0.86698 0.37081 0.0
C2090 C 0.40405 0.88664 0.39047 0.0
C2091 C 0.40955 0.88626 0.43199 0.0
C2092 C 0.42105 0.87577 0.44316 0.0
C2093 C 0.42726 0.8662 0.41245 0.0
C2094 C 0.39173 0.89761 0.37739 0.0
C2095 C 0.4272 0.87507 0.48716 0.0
H2096 H 0.40995 0.93378 0.49664 0.0
H2097 H 0.37541 0.90219 0.53468 0.0
H2098 H 0.43367 0.90768 0.44542 0.0
H2099 H 0.42145 0.91568 0.40664 0.0
H2100 H 0.42882 0.92758 0.44779 0.0
H2101 H 0.37379 0.87743 0.50789 0.0
H2102 H 0.37859 0.87705 0.4531 0.0
H2103 H 0.39153 0.86932 0.49048 0.0
H2104 H 0.40685 0.87802 0.32817 0.0
H2105 H 0.43623 0.85834 0.42085 0.0
H2106 H 0.39601 0.90943 0.37986 0.0
H2107 H 0.38178 0.89661 0.39851 0.0
H2108 H 0.38789 0.89563 0.34476 0.0
H2109 H 0.43288 0.88597 0.49495 0.0
H2110 H 0.43552 0.8657 0.49133 0.0
H2111 H 0.41779 0.87351 0.50983 0.0
C2112 C 0.5925 0.3934 0.04931 0.0
C2113 C 0.57914 0.38709 0.03285 0.0
C2114 C 0.60264 0.40145 0.0237 0.0
C2115 C 0.59915 0.40345 0.98089 0.0
C2116 C 0.58587 0.39674 0.96393 0.0
C2117 C 0.57608 0.38853 0.99011 0.0
C2118 C 0.61684 0.40817 0.04265 0.0
C2119 C 0.58166 0.39877 0.91851 0.0
C2120 C 0.61252 0.43826 0.92218 0.0
C2121 C 0.62326 0.43202 0.89468 0.0
C2122 C 0.60506 0.42919 0.95171 0.0
C2123 C 0.60863 0.41354 0.95434 0.0
C2124 C 0.6203 0.40741 0.92893 0.0
C2125 C 0.62744 0.41673 0.89915 0.0
C2126 C 0.59268 0.43617 0.97823 0.0
C2127 C 0.62463 0.39084 0.93148 0.0
H2128 H 0.59495 0.39211 0.08233 0.0
H2129 H 0.5657 0.38372 0.97749 0.0
H2130 H 0.62694 0.4051 0.02365 0.0
H2131 H 0.61601 0.42075 0.04272 0.0
H2132 H 0.61868 0.40427 0.07528 0.0
H2133 H 0.5713 0.39227 0.90987 0.0
H2134 H 0.5796 0.41099 0.912 0.0
H2135 H 0.59115 0.39505 0.89812 0.0
H2136 H 0.60949 0.45016 0.91945 0.0
H2137 H 0.63568 0.4118 0.87789 0.0
H2138 H 0.5946 0.43359 0.01173 0.0
H2139 H 0.58154 0.43118 0.96947 0.0
H2140 H 0.592 0.4487 0.97435 0.0
H2141 H 0.62605 0.3873 0.96453 0.0
H2142 H 0.63532 0.38838 0.91423 0.0
H2143 H 0.61541 0.3838 0.91789 0.0
C2144 C 0.08722 0.593 0.55808 0.0
C2145 C 0.09909 0.58415 0.5418 0.0
C2146 C 0.0786 0.60253 0.53208 0.0
C2147 C 0.08197 0.6032 0.48886 0.0
C2148 C 0.09413 0.59452 0.47243 0.0
C2149 C 0.10253 0.58509 0.49909 0.0
C2150 C 0.06566 0.61157 0.55062 0.0
C2151 C 0.09811 0.59498 0.42651 0.0
C2152 C 0.05195 0.61341 0.40903 0.0
C2153 C 0.05623 0.62821 0.3977 0.0
C2154 C 0.05981 0.60541 0.44005 0.0
C2155 C 0.07234 0.61233 0.46016 0.0
C2156 C 0.07632 0.62751 0.45032 0.0
C2157 C 0.06821 0.63528 0.41916 0.0
C2158 C 0.0552 0.58924 0.44964 0.0
C2159 C 0.08958 0.63527 0.47129 0.0
H2160 H 0.08444 0.59221 0.59101 0.0
H2161 H 0.11186 0.57845 0.48651 0.0
H2162 H 0.06686 0.62376 0.54247 0.0
H2163 H 0.05473 0.60759 0.53725 0.0
H2164 H 0.0651 0.61049 0.58519 0.0
H2165 H 0.10826 0.58797 0.41902 0.0
H2166 H 0.08839 0.59076 0.40773 0.0
H2167 H 0.10035 0.60686 0.41664 0.0
H2168 H 0.04289 0.60773 0.39221 0.0
H2169 H 0.07147 0.64677 0.41089 0.0
H2170 H 0.05383 0.58765 0.48383 0.0
H2171 H 0.06427 0.58135 0.43911 0.0
H2172 H 0.04441 0.586 0.43396 0.0
H2173 H 0.08866 0.63424 0.50576 0.0
H2174 H 0.09033 0.64751 0.46299 0.0
H2175 H 0.10032 0.62964 0.46179 0.0
C2176 C 0.89805 0.53916 0.21651 0.0
C2177 C 0.89525 0.53485 0.25801 0.0
C2178 C 0.90884 0.55036 0.20697 0.0
C2179 C 0.91706 0.55738 0.23973 0.0
C2180 C 0.91391 0.55346 0.28177 0.0
C2181 C 0.90302 0.54225 0.29043 0.0
C2182 C 0.91179 0.55433 0.16177 0.0
C2183 C 0.92248 0.56068 0.31753 0.0
C2184 C 0.95634 0.57264 0.2147 0.0
C2185 C 0.95364 0.58831 0.2119 0.0
C2186 C 0.94451 0.56247 0.22366 0.0
C2187 C 0.92961 0.56811 0.22988 0.0
C2188 C 0.92677 0.5839 0.22685 0.0
C2189 C 0.93884 0.59383 0.21797 0.0
C2190 C 0.948 0.5457 0.22685 0.0
C2191 C 0.91101 0.5903 0.23305 0.0
H2192 H 0.8919 0.53361 0.19142 0.0
H2193 H 0.90099 0.53886 0.32252 0.0
H2194 H 0.91094 0.5668 0.15711 0.0
H2195 H 0.92351 0.55091 0.15309 0.0
H2196 H 0.9037 0.54861 0.14024 0.0
H2197 H 0.91798 0.55712 0.34848 0.0
H2198 H 0.93466 0.55747 0.31572 0.0
H2199 H 0.92188 0.57325 0.31533 0.0
H2200 H 0.96779 0.56834 0.21069 0.0
H2201 H 0.93669 0.60592 0.21545 0.0
H2202 H 0.94103 0.53926 0.20401 0.0
H2203 H 0.94497 0.54149 0.25846 0.0
H2204 H 0.96018 0.54317 0.22095 0.0
H2205 H 0.90304 0.58512 0.21024 0.0
H2206 H 0.91068 0.60284 0.22928 0.0
H2207 H 0.90679 0.58739 0.26474 0.0
C2208 C 0.927 0.96483 0.70643 0.0
C2209 C 0.91149 0.96249 0.69843 0.0
C2210 C 0.93651 0.95276 0.71788 0.0
C2211 C 0.93034 0.93799 0.72223 0.0
C2212 C 0.91474 0.93548 0.71401 0.0
C2213 C 0.90553 0.94772 0.70185 0.0
C2214 C 0.95315 0.95586 0.72597 0.0
C2215 C 0.90774 0.9199 0.7187 0.0
C2216 C 0.95821 0.90507 0.72072 0.0
C2217 C 0.96079 0.90285 0.7635 0.0
C2218 C 0.94808 0.91628 0.70677 0.0
C2219 C 0.94021 0.92529 0.73638 0.0
C2220 C 0.94237 0.92269 0.77966 0.0
C2221 C 0.95275 0.91158 0.7927 0.0
C2222 C 0.94625 0.91888 0.66039 0.0
C2223 C 0.93397 0.93189 0.81217 0.0
H2224 H 0.93169 0.9762 0.70467 0.0
H2225 H 0.89363 0.94572 0.69509 0.0
H2226 H 0.95587 0.95345 0.75916 0.0
H2227 H 0.96029 0.94823 0.70655 0.0
H2228 H 0.95632 0.96782 0.71907 0.0
H2229 H 0.89544 0.91982 0.71082 0.0
H2230 H 0.91368 0.91164 0.69818 0.0
H2231 H 0.90913 0.91588 0.75134 0.0
H2232 H 0.96456 0.89841 0.69815 0.0
H2233 H 0.95469 0.90975 0.82579 0.0
H2234 H 0.95043 0.9304 0.65221 0.0
H2235 H 0.93407 0.91839 0.65159 0.0
H2236 H 0.95259 0.9104 0.64148 0.0
H2237 H 0.93754 0.94396 0.81029 0.0
H2238 H 0.93614 0.92773 0.84441 0.0
H2239 H 0.92156 0.9315 0.80613 0.0
C2240 C 0.53731 0.90682 0.24746 0.0
C2241 C 0.539 0.89138 0.23754 0.0
C2242 C 0.54969 0.91553 0.26085 0.0
C2243 C 0.56412 0.90861 0.26508 0.0
C2244 C 0.56589 0.89295 0.25612 0.0
C2245 C 0.5533 0.88452 0.24224 0.0
C2246 C 0.54736 0.93222 0.26998 0.0
C2247 C 0.58109 0.88519 0.26065 0.0
C2248 C 0.59689 0.93637 0.25885 0.0
C2249 C 0.59944 0.93957 0.3012 0.0
C2250 C 0.58591 0.92572 0.24666 0.0
C2251 C 0.57737 0.91802 0.2776 0.0
C2252 C 0.58048 0.92059 0.32044 0.0
C2253 C 0.59143 0.93144 0.33176 0.0
C2254 C 0.58283 0.9234 0.20066 0.0
C2255 C 0.57175 0.91244 0.3543 0.0
H2256 H 0.52623 0.91212 0.24493 0.0
H2257 H 0.55472 0.87262 0.23439 0.0
H2258 H 0.55064 0.93477 0.30271 0.0
H2259 H 0.55476 0.93916 0.24935 0.0
H2260 H 0.53538 0.93584 0.26525 0.0
H2261 H 0.58038 0.87276 0.25473 0.0
H2262 H 0.58935 0.8902 0.23837 0.0
H2263 H 0.58566 0.88703 0.29257 0.0
H2264 H 0.60294 0.94277 0.23514 0.0
H2265 H 0.59351 0.93381 0.36452 0.0
H2266 H 0.57143 0.928 0.19286 0.0
H2267 H 0.58274 0.91112 0.1929 0.0
H2268 H 0.59139 0.92916 0.18064 0.0
H2269 H 0.55982 0.91654 0.35471 0.0
H2270 H 0.57676 0.91433 0.38575 0.0
H2271 H 0.57144 0.90004 0.34797 0.0
C2272 C 0.60206 0.55414 0.76085 0.0
C2273 C 0.5999 0.54674 0.72251 0.0
C2274 C 0.59299 0.56656 0.77235 0.0
C2275 C 0.58134 0.57151 0.74507 0.0
C2276 C 0.57953 0.56446 0.70556 0.0
C2277 C 0.58892 0.5522 0.69462 0.0
C2278 C 0.59544 0.57395 0.81441 0.0
C2279 C 0.56714 0.56933 0.67579 0.0
C2280 C 0.54615 0.58923 0.79291 0.0
C2281 C 0.54808 0.60461 0.78297 0.0
C2282 C 0.557 0.57839 0.78116 0.0
C2283 C 0.5702 0.58309 0.75933 0.0
C2284 C 0.57243 0.59868 0.75025 0.0
C2285 C 0.56125 0.60927 0.76187 0.0
C2286 C 0.55411 0.56185 0.791 0.0
C2287 C 0.58647 0.60411 0.72761 0.0
H2288 H 0.61068 0.55 0.78222 0.0
H2289 H 0.58719 0.5464 0.66509 0.0
H2290 H 0.59609 0.58648 0.81104 0.0
H2291 H 0.58565 0.57142 0.83515 0.0
H2292 H 0.60598 0.56987 0.82987 0.0
H2293 H 0.56795 0.56345 0.64513 0.0
H2294 H 0.55587 0.56678 0.68973 0.0
H2295 H 0.56765 0.58177 0.67044 0.0
H2296 H 0.53583 0.58558 0.80853 0.0
H2297 H 0.56274 0.62118 0.75422 0.0
H2298 H 0.56365 0.55715 0.80959 0.0
H2299 H 0.55347 0.55522 0.76154 0.0
H2300 H 0.54338 0.56013 0.80871 0.0
H2301 H 0.59683 0.60009 0.74399 0.0
H2302 H 0.58693 0.6167 0.72523 0.0
H2303 H 0.58674 0.59927 0.69561 0.0
C2304 C 0.09436 0.45675 0.77568 0.0
C2305 C 0.0984 0.46 0.73419 0.0
C2306 C 0.08377 0.44534 0.78505 0.0
C2307 C 0.07717 0.43686 0.75216 0.0
C2308 C 0.08179 0.43952 0.7104 0.0
C2309 C 0.09231 0.4511 0.70188 0.0
C2310 C 0.07913 0.44285 0.82999 0.0
C2311 C 0.07509 0.43061 0.67452 0.0
C2312 C 0.05521 0.40092 0.77896 0.0
C2313 C 0.04018 0.4062 0.77782 0.0
C2314 C 0.06742 0.41074 0.77047 0.0
C2315 C 0.06448 0.42619 0.7611 0.0
C2316 C 0.04932 0.43158 0.76042 0.0
C2317 C 0.03736 0.42151 0.76862 0.0
C2318 C 0.08343 0.40458 0.77108 0.0
C2319 C 0.04573 0.44802 0.75108 0.0
H2320 H 0.09926 0.46337 0.80089 0.0
H2321 H 0.09528 0.4536 0.66972 0.0
H2322 H 0.06705 0.44616 0.83416 0.0
H2323 H 0.08008 0.43065 0.83829 0.0
H2324 H 0.08616 0.44958 0.85212 0.0
H2325 H 0.08102 0.43293 0.64453 0.0
H2326 H 0.07567 0.41824 0.68103 0.0
H2327 H 0.06292 0.43361 0.67082 0.0
H2328 H 0.05739 0.38905 0.7857 0.0
H2329 H 0.02575 0.42564 0.76825 0.0
H2330 H 0.09039 0.41093 0.79413 0.0
H2331 H 0.08881 0.4062 0.74002 0.0
H2332 H 0.08379 0.3923 0.7791 0.0
H2333 H 0.05152 0.45551 0.774 0.0
H2334 H 0.03333 0.45041 0.75215 0.0
H2335 H 0.05005 0.45109 0.71962 0.0
C2336 C 0.04598 0.09502 0.26525 0.0
C2337 C 0.03849 0.09339 0.22687 0.0
C2338 C 0.05695 0.08443 0.27809 0.0
C2339 C 0.06027 0.07182 0.25216 0.0
C2340 C 0.05282 0.07021 0.21319 0.0
C2341 C 0.04208 0.08109 0.20088 0.0
C2342 C 0.06484 0.08663 0.31954 0.0
C2343 C 0.05592 0.0568 0.18495 0.0
C2344 C 0.09665 0.04923 0.26616 0.0
C2345 C 0.09147 0.03673 0.28926 0.0
C2346 C 0.08669 0.06097 0.2548 0.0
C2347 C 0.07118 0.06001 0.26626 0.0
C2348 C 0.06594 0.04748 0.29 0.0
C2349 C 0.0762 0.03602 0.30147 0.0
C2350 C 0.09272 0.07429 0.23006 0.0
C2351 C 0.04944 0.04596 0.3023 0.0
H2352 H 0.04328 0.10462 0.28518 0.0
H2353 H 0.03616 0.07975 0.1714 0.0
H2354 H 0.06206 0.07706 0.34076 0.0
H2355 H 0.07735 0.08662 0.31506 0.0
H2356 H 0.0615 0.09743 0.33503 0.0
H2357 H 0.04934 0.05737 0.15537 0.0
H2358 H 0.06819 0.05624 0.1772 0.0
H2359 H 0.05295 0.04609 0.20136 0.0
H2360 H 0.1085 0.04981 0.25702 0.0
H2361 H 0.07217 0.02626 0.31892 0.0
H2362 H 0.08988 0.0851 0.24613 0.0
H2363 H 0.08723 0.07461 0.19887 0.0
H2364 H 0.10523 0.07371 0.22563 0.0
H2365 H 0.04576 0.0561 0.32024 0.0
H2366 H 0.04728 0.03567 0.32153 0.0
H2367 H 0.04226 0.04535 0.27383 0.0
C2368 C 0.39501 0.06176 0.71753 0.0
C2369 C 0.40193 0.04825 0.70422 0.0
C2370 C 0.40381 0.07402 0.73197 0.0
C2371 C 0.41984 0.0727 0.73262 0.0
C2372 C 0.42687 0.05934 0.71725 0.0
C2373 C 0.41781 0.04725 0.70345 0.0
C2374 C 0.39593 0.08805 0.74831 0.0
C2375 C 0.44395 0.05756 0.71685 0.0
C2376 C 0.44689 0.10596 0.7445 0.0
C2377 C 0.45189 0.10391 0.78571 0.0
C2378 C 0.43574 0.09642 0.72728 0.0
C2379 C 0.4294 0.0847 0.75208 0.0
C2380 C 0.43364 0.08332 0.79461 0.0
C2381 C 0.44492 0.0929 0.81084 0.0
C2382 C 0.43156 0.0982 0.6818 0.0
C2383 C 0.42698 0.07112 0.82228 0.0
H2384 H 0.38271 0.06249 0.71836 0.0
H2385 H 0.42315 0.03685 0.69268 0.0
H2386 H 0.39756 0.08882 0.78264 0.0
H2387 H 0.40098 0.09843 0.73435 0.0
H2388 H 0.38354 0.08794 0.74165 0.0
H2389 H 0.44761 0.04692 0.70108 0.0
H2390 H 0.44931 0.06735 0.70072 0.0
H2391 H 0.44829 0.05742 0.74941 0.0
H2392 H 0.45237 0.1144 0.72495 0.0
H2393 H 0.44871 0.09142 0.84283 0.0
H2394 H 0.41905 0.0977 0.67764 0.0
H2395 H 0.43654 0.08869 0.66359 0.0
H2396 H 0.43582 0.10907 0.66856 0.0
H2397 H 0.41441 0.07099 0.81968 0.0
H2398 H 0.43012 0.07272 0.85563 0.0
H2399 H 0.43118 0.05983 0.81197 0.0
C2400 C 0.45393 0.40857 0.23835 0.0
C2401 C 0.45222 0.39486 0.21661 0.0
C2402 C 0.44165 0.41851 0.24353 0.0
C2403 C 0.42725 0.41453 0.22703 0.0
C2404 C 0.42538 0.40055 0.20572 0.0
C2405 C 0.43795 0.39092 0.20042 0.0
C2406 C 0.44416 0.43343 0.26589 0.0
C2407 C 0.41014 0.39584 0.18836 0.0
C2408 C 0.3947 0.43711 0.27365 0.0
C2409 C 0.39293 0.4487 0.24394 0.0
C2410 C 0.40526 0.42537 0.26747 0.0
C2411 C 0.41438 0.42535 0.23101 0.0
C2412 C 0.41212 0.43658 0.2 0.0
C2413 C 0.40133 0.44803 0.20668 0.0
C2414 C 0.4072 0.41343 0.30094 0.0
C2415 C 0.42167 0.43699 0.16076 0.0
H2416 H 0.46502 0.41169 0.25044 0.0
H2417 H 0.43663 0.38024 0.18388 0.0
H2418 H 0.44153 0.44302 0.24456 0.0
H2419 H 0.43638 0.43434 0.29305 0.0
H2420 H 0.45604 0.43473 0.27716 0.0
H2421 H 0.41043 0.3843 0.17431 0.0
H2422 H 0.40144 0.39602 0.21348 0.0
H2423 H 0.40644 0.40405 0.16409 0.0
H2424 H 0.38835 0.43757 0.30266 0.0
H2425 H 0.39976 0.45674 0.18312 0.0
H2426 H 0.41823 0.41515 0.31704 0.0
H2427 H 0.40739 0.40191 0.28686 0.0
H2428 H 0.39798 0.4139 0.32466 0.0
H2429 H 0.43367 0.43941 0.16909 0.0
H2430 H 0.41775 0.44581 0.13839 0.0
H2431 H 0.42144 0.42579 0.14487 0.0
loop_
_geom_bond_atom_site_label_1
_geom_bond_atom_site_label_2
_geom_bond_distance
_geom_bond_site_symmetry_2
_ccdc_geom_bond_type
Li0 N17 1.990 1_455 S
Li0 O60 1.956 . S
Li0 O61 1.970 . S
Li0 O62 1.961 . S
Li1 N25 1.990 . S
Li1 O60 1.970 . S
Li1 O61 1.956 . S
Li1 O63 1.961 . S
Li2 N47 1.990 . S
Li2 O60 1.961 . S
Li2 O62 1.956 . S
Li2 O63 1.970 . S
Li3 N53 1.990 . S
Li3 O61 1.961 . S
Li3 O62 1.970 . S
Li3 O63 1.956 . S
C4 C6 1.348 . S
C4 C7 1.356 1_455 S
C4 O60 1.325 . S
N5 C8 1.314 1_655 S
N5 C9 1.279 . S
C6 C4 1.348 . S
C6 C8 1.353 . S
C6 H64 0.929 . S
C7 C4 1.356 1_655 S
C7 C9 1.358 . S
C7 H65 0.930 . S
C8 N5 1.314 1_455 S
C8 C6 1.353 . S
C8 H66 0.930 . S
C9 N5 1.279 . S
C9 C7 1.358 . S
C9 H67 0.930 . S
C10 C13 1.348 . S
C10 C14 1.356 . S
C10 O61 1.325 . S
C11 N12 1.279 . S
C11 C14 1.358 . S
C11 H68 0.930 . S
N12 C11 1.279 . S
N12 C15 1.314 . S
C13 C10 1.348 . S
C13 C15 1.353 . S
C13 H69 0.929 . S
C14 C10 1.356 . S
C14 C11 1.358 . S
C14 H70 0.930 . S
C15 N12 1.314 . S
C15 C13 1.353 . S
C15 H71 0.930 . S
C16 N17 1.314 . S
C16 C21 1.353 . S
C16 H22 0.930 . S
N17 Li0 1.990 1_655 S
N17 C16 1.314 . S
N17 C19 1.279 . S
C18 C19 1.358 . S
C18 C20 1.356 . S
C18 H72 0.930 . S
C19 N17 1.279 . S
C19 C18 1.358 . S
C19 H23 0.930 . S
C20 C18 1.356 . S
C20 C21 1.348 . S
C21 C16 1.353 . S
C21 C20 1.348 . S
C21 H73 0.929 . S
H22 C16 0.930 . S
H23 C19 0.930 . S
C24 N25 1.314 . S
C24 C26 1.353 . S
C24 H30 0.930 . S
N25 Li1 1.990 . S
N25 C24 1.314 . S
N25 C28 1.279 . S
C26 C24 1.353 . S
C26 C29 1.348 . S
C26 H74 0.929 . S
C27 C28 1.358 . S
C27 C29 1.356 . S
C27 H75 0.930 . S
C28 N25 1.279 . S
C28 C27 1.358 . S
C28 H31 0.930 . S
C29 C26 1.348 . S
C29 C27 1.356 . S
H30 C24 0.930 . S
H31 C28 0.930 . S
C32 C34 1.348 . S
C32 C35 1.356 1_455 S
C32 O62 1.325 . S
N33 C36 1.314 . S
N33 C37 1.279 1_556 S
C34 C32 1.348 . S
C34 C36 1.353 1_454 S
C34 H76 0.929 . S
C35 C32 1.356 1_655 S
C35 C37 1.358 . S
C35 H77 0.930 . S
C36 N33 1.314 . S
C36 C34 1.353 1_656 S
C36 H78 0.930 1_655 S
C37 N33 1.279 1_554 S
C37 C35 1.358 . S
C37 H79 0.930 . S
C38 C39 1.348 . S
C38 C40 1.356 . S
C38 O63 1.325 . S
C39 C38 1.348 . S
C39 C41 1.353 . S
C39 H80 0.929 . S
C40 C38 1.356 . S
C40 C42 1.358 . S
C40 H81 0.930 . S
C41 C39 1.353 . S
C41 N43 1.314 . S
C41 H82 0.930 . S
C42 C40 1.358 . S
C42 N43 1.279 . S
C42 H83 0.930 . S
N43 C41 1.314 . S
N43 C42 1.279 . S
C44 C46 1.353 . S
C44 N47 1.314 . S
C44 H50 0.930 . S
C45 N47 1.279 . S
C45 C48 1.358 . S
C45 H51 0.930 . S
C46 C44 1.353 . S
C46 C49 1.348 . S
C46 H84 0.929 . S
N47 Li2 1.990 . S
N47 C44 1.314 . S
N47 C45 1.279 . S
C48 C45 1.358 . S
C48 C49 1.356 . S
C48 H85 0.930 . S
C49 C46 1.348 . S
C49 C48 1.356 . S
H50 C44 0.930 . S
H51 C45 0.930 . S
C52 N53 1.314 . S
C52 C54 1.353 1_554 S
C52 H58 0.930 . S
N53 Li3 1.990 . S
N53 C52 1.314 . S
N53 C56 1.279 . S
C54 C52 1.353 1_556 S
C54 C57 1.348 . S
C54 H86 0.929 . S
C55 C56 1.358 1_556 S
C55 C57 1.356 . S
C55 H87 0.930 . S
C56 N53 1.279 . S
C56 C55 1.358 1_554 S
C56 H59 0.930 . S
C57 C54 1.348 . S
C57 C55 1.356 . S
H58 C52 0.930 . S
H59 C56 0.930 . S
O60 Li0 1.956 . S
O60 Li1 1.970 . S
O60 Li2 1.961 . S
O60 C4 1.325 . S
O61 Li0 1.970 . S
O61 Li1 1.956 . S
O61 Li3 1.961 . S
O61 C10 1.325 . S
O62 Li0 1.961 . S
O62 Li2 1.956 . S
O62 Li3 1.970 . S
O62 C32 1.325 . S
O63 Li1 1.961 . S
O63 Li2 1.970 . S
O63 Li3 1.956 . S
O63 C38 1.325 . S
H64 C6 0.929 . S
H65 C7 0.930 . S
H66 C8 0.930 . S
H67 C9 0.930 . S
H68 C11 0.930 . S
H69 C13 0.929 . S
H70 C14 0.930 . S
H71 C15 0.930 . S
H72 C18 0.930 . S
H73 C21 0.929 . S
H74 C26 0.929 . S
H75 C27 0.930 . S
H76 C34 0.929 . S
H77 C35 0.930 . S
H78 C36 0.930 1_455 S
H79 C37 0.930 . S
H80 C39 0.929 . S
H81 C40 0.930 . S
H82 C41 0.930 . S
H83 C42 0.930 . S
H84 C46 0.929 . S
H85 C48 0.930 . S
H86 C54 0.929 . S
H87 C55 0.930 . S
Li88 N105 1.990 1_545 S
Li88 O148 1.956 . S
Li88 O149 1.970 . S
Li88 O150 1.961 . S
Li89 N113 1.990 . S
Li89 O148 1.970 . S
Li89 O149 1.956 . S
Li89 O151 1.961 . S
Li90 N135 1.990 . S
Li90 O148 1.961 . S
Li90 O150 1.956 . S
Li90 O151 1.970 . S
Li91 N141 1.990 . S
Li91 O149 1.961 . S
Li91 O150 1.970 . S
Li91 O151 1.956 . S
C92 C94 1.348 . S
C92 C95 1.356 1_545 S
C92 O148 1.325 . S
N93 C96 1.314 1_565 S
N93 C97 1.279 . S
C94 C92 1.348 . S
C94 C96 1.353 . S
C94 H152 0.929 . S
C95 C92 1.356 1_565 S
C95 C97 1.358 . S
C95 H153 0.930 . S
C96 N93 1.314 1_545 S
C96 C94 1.353 . S
C96 H154 0.930 . S
C97 N93 1.279 . S
C97 C95 1.358 . S
C97 H155 0.930 . S
C98 C101 1.348 . S
C98 C102 1.356 . S
C98 O149 1.325 . S
C99 N100 1.279 . S
C99 C102 1.358 . S
C99 H156 0.930 . S
N100 C99 1.279 . S
N100 C103 1.314 . S
C101 C98 1.348 . S
C101 C103 1.353 . S
C101 H157 0.929 . S
C102 C98 1.356 . S
C102 C99 1.358 . S
C102 H158 0.930 . S
C103 N100 1.314 . S
C103 C101 1.353 . S
C103 H159 0.930 . S
C104 N105 1.314 . S
C104 C109 1.353 . S
C104 H110 0.930 . S
N105 Li88 1.990 1_565 S
N105 C104 1.314 . S
N105 C107 1.279 . S
C106 C107 1.358 . S
C106 C108 1.356 . S
C106 H160 0.930 . S
C107 N105 1.279 . S
C107 C106 1.358 . S
C107 H111 0.930 . S
C108 C106 1.356 . S
C108 C109 1.348 . S
C109 C104 1.353 . S
C109 C108 1.348 . S
C109 H161 0.929 . S
H110 C104 0.930 . S
H111 C107 0.930 . S
C112 N113 1.314 . S
C112 C114 1.353 . S
C112 H118 0.930 . S
N113 Li89 1.990 . S
N113 C112 1.314 . S
N113 C116 1.279 . S
C114 C112 1.353 . S
C114 C117 1.348 . S
C114 H162 0.929 . S
C115 C116 1.358 . S
C115 C117 1.356 . S
C115 H163 0.930 . S
C116 N113 1.279 . S
C116 C115 1.358 . S
C116 H119 0.930 . S
C117 C114 1.348 . S
C117 C115 1.356 . S
H118 C112 0.930 . S
H119 C116 0.930 . S
C120 C122 1.348 . S
C120 C123 1.356 1_545 S
C120 O150 1.325 . S
N121 C124 1.314 . S
N121 C125 1.279 . S
C122 C120 1.348 . S
C122 C124 1.353 1_545 S
C122 H164 0.929 . S
C123 C120 1.356 1_565 S
C123 C125 1.358 . S
C123 H165 0.930 . S
C124 N121 1.314 . S
C124 C122 1.353 1_565 S
C124 H166 0.930 1_565 S
C125 N121 1.279 . S
C125 C123 1.358 . S
C125 H167 0.930 . S
C126 C127 1.348 . S
C126 C128 1.356 . S
C126 O151 1.325 . S
C127 C126 1.348 . S
C127 C129 1.353 . S
C127 H168 0.929 . S
C128 C126 1.356 . S
C128 C130 1.358 . S
C128 H169 0.930 . S
C129 C127 1.353 . S
C129 N131 1.314 . S
C129 H170 0.930 . S
C130 C128 1.358 . S
C130 N131 1.279 . S
C130 H171 0.930 . S
N131 C129 1.314 . S
N131 C130 1.279 . S
C132 C134 1.353 . S
C132 N135 1.314 . S
C132 H138 0.930 . S
C133 N135 1.279 . S
C133 C136 1.358 . S
C133 H139 0.930 . S
C134 C132 1.353 . S
C134 C137 1.348 . S
C134 H172 0.929 . S
N135 Li90 1.990 . S
N135 C132 1.314 . S
N135 C133 1.279 . S
C136 C133 1.358 . S
C136 C137 1.356 . S
C136 H173 0.930 . S
C137 C134 1.348 . S
C137 C136 1.356 . S
H138 C132 0.930 . S
H139 C133 0.930 . S
C140 N141 1.314 . S
C140 C142 1.353 . S
C140 H146 0.930 . S
N141 Li91 1.990 . S
N141 C140 1.314 . S
N141 C144 1.279 . S
C142 C140 1.353 . S
C142 C145 1.348 . S
C142 H174 0.929 . S
C143 C144 1.358 . S
C143 C145 1.356 . S
C143 H175 0.930 . S
C144 N141 1.279 . S
C144 C143 1.358 . S
C144 H147 0.930 . S
C145 C142 1.348 . S
C145 C143 1.356 . S
H146 C140 0.930 . S
H147 C144 0.930 . S
O148 Li88 1.956 . S
O148 Li89 1.970 . S
O148 Li90 1.961 . S
O148 C92 1.325 . S
O149 Li88 1.970 . S
O149 Li89 1.956 . S
O149 Li91 1.961 . S
O149 C98 1.325 . S
O150 Li88 1.961 . S
O150 Li90 1.956 . S
O150 Li91 1.970 . S
O150 C120 1.325 . S
O151 Li89 1.961 . S
O151 Li90 1.970 . S
O151 Li91 1.956 . S
O151 C126 1.325 . S
H152 C94 0.929 . S
H153 C95 0.930 . S
H154 C96 0.930 . S
H155 C97 0.930 . S
H156 C99 0.930 . S
H157 C101 0.929 . S
H158 C102 0.930 . S
H159 C103 0.930 . S
H160 C106 0.930 . S
H161 C109 0.929 . S
H162 C114 0.929 . S
H163 C115 0.930 . S
H164 C122 0.929 . S
H165 C123 0.930 . S
H166 C124 0.930 1_545 S
H167 C125 0.930 . S
H168 C127 0.929 . S
H169 C128 0.930 . S
H170 C129 0.930 . S
H171 C130 0.930 . S
H172 C134 0.929 . S
H173 C136 0.930 . S
H174 C142 0.929 . S
H175 C143 0.930 . S
Li176 N193 1.990 . S
Li176 O236 1.956 . S
Li176 O237 1.970 . S
Li176 O238 1.961 . S
Li177 N201 1.990 . S
Li177 O236 1.970 . S
Li177 O237 1.956 . S
Li177 O239 1.961 . S
Li178 N223 1.990 . S
Li178 O236 1.961 . S
Li178 O238 1.956 . S
Li178 O239 1.970 . S
Li179 N229 1.990 . S
Li179 O237 1.961 . S
Li179 O238 1.970 . S
Li179 O239 1.956 . S
C180 C182 1.348 . S
C180 C183 1.356 . S
C180 O236 1.325 . S
N181 C184 1.314 . S
N181 C185 1.279 . S
C182 C180 1.348 . S
C182 C184 1.353 . S
C182 H240 0.929 . S
C183 C180 1.356 . S
C183 C185 1.358 . S
C183 H241 0.930 . S
C184 N181 1.314 . S
C184 C182 1.353 . S
C184 H242 0.930 . S
C185 N181 1.279 . S
C185 C183 1.358 . S
C185 H243 0.930 . S
C186 C189 1.348 . S
C186 C190 1.356 . S
C186 O237 1.325 . S
C187 N188 1.279 . S
C187 C190 1.358 . S
C187 H244 0.930 . S
N188 C187 1.279 . S
N188 C191 1.314 . S
C189 C186 1.348 . S
C189 C191 1.353 . S
C189 H245 0.929 . S
C190 C186 1.356 . S
C190 C187 1.358 . S
C190 H246 0.930 . S
C191 N188 1.314 . S
C191 C189 1.353 . S
C191 H247 0.930 . S
C192 N193 1.314 . S
C192 C197 1.353 . S
C192 H198 0.930 . S
N193 Li176 1.990 . S
N193 C192 1.314 . S
N193 C195 1.279 . S
C194 C195 1.358 . S
C194 C196 1.356 . S
C194 H248 0.930 . S
C195 N193 1.279 . S
C195 C194 1.358 . S
C195 H199 0.930 . S
C196 C194 1.356 . S
C196 C197 1.348 . S
C197 C192 1.353 . S
C197 C196 1.348 . S
C197 H249 0.929 . S
H198 C192 0.930 . S
H199 C195 0.930 . S
C200 N201 1.314 . S
C200 C202 1.353 . S
C200 H206 0.930 . S
N201 Li177 1.990 . S
N201 C200 1.314 . S
N201 C204 1.279 . S
C202 C200 1.353 . S
C202 C205 1.348 . S
C202 H250 0.929 . S
C203 C204 1.358 . S
C203 C205 1.356 . S
C203 H251 0.930 . S
C204 N201 1.279 . S
C204 C203 1.358 . S
C204 H207 0.930 . S
C205 C202 1.348 . S
C205 C203 1.356 . S
H206 C200 0.930 . S
H207 C204 0.930 . S
C208 C210 1.348 . S
C208 C211 1.356 . S
C208 O238 1.325 . S
N209 C212 1.314 . S
N209 C213 1.279 1_556 S
C210 C208 1.348 . S
C210 C212 1.353 1_554 S
C210 H252 0.929 . S
C211 C208 1.356 . S
C211 C213 1.358 . S
C211 H253 0.930 . S
C212 N209 1.314 . S
C212 C210 1.353 1_556 S
C212 H254 0.930 . S
C213 N209 1.279 1_554 S
C213 C211 1.358 . S
C213 H255 0.930 . S
C214 C215 1.348 . S
C214 C216 1.356 . S
C214 O239 1.325 . S
C215 C214 1.348 . S
C215 C217 1.353 . S
C215 H256 0.929 . S
C216 C214 1.356 . S
C216 C218 1.358 . S
C216 H257 0.930 . S
C217 C215 1.353 . S
C217 N219 1.314 . S
C217 H258 0.930 . S
C218 C216 1.358 . S
C218 N219 1.279 . S
C218 H259 0.930 . S
N219 C217 1.314 . S
N219 C218 1.279 . S
C220 C222 1.353 . S
C220 N223 1.314 . S
C220 H226 0.930 . S
C221 N223 1.279 . S
C221 C224 1.358 . S
C221 H227 0.930 . S
C222 C220 1.353 . S
C222 C225 1.348 . S
C222 H260 0.929 . S
N223 Li178 1.990 . S
N223 C220 1.314 . S
N223 C221 1.279 . S
C224 C221 1.358 . S
C224 C225 1.356 . S
C224 H261 0.930 . S
C225 C222 1.348 . S
C225 C224 1.356 . S
H226 C220 0.930 . S
H227 C221 0.930 . S
C228 N229 1.314 . S
C228 C230 1.353 1_554 S
C228 H234 0.930 . S
N229 Li179 1.990 . S
N229 C228 1.314 . S
N229 C232 1.279 . S
C230 C228 1.353 1_556 S
C230 C233 1.348 . S
C230 H262 0.929 . S
C231 C232 1.358 1_556 S
C231 C233 1.356 . S
C231 H263 0.930 . S
C232 N229 1.279 . S
C232 C231 1.358 1_554 S
C232 H235 0.930 . S
C233 C230 1.348 . S
C233 C231 1.356 . S
H234 C228 0.930 . S
H235 C232 0.930 . S
O236 Li176 1.956 . S
O236 Li177 1.970 . S
O236 Li178 1.961 . S
O236 C180 1.325 . S
O237 Li176 1.970 . S
O237 Li177 1.956 . S
O237 Li179 1.961 . S
O237 C186 1.325 . S
O238 Li176 1.961 . S
O238 Li178 1.956 . S
O238 Li179 1.970 . S
O238 C208 1.325 . S
O239 Li177 1.961 . S
O239 Li178 1.970 . S
O239 Li179 1.956 . S
O239 C214 1.325 . S
H240 C182 0.929 . S
H241 C183 0.930 . S
H242 C184 0.930 . S
H243 C185 0.930 . S
H244 C187 0.930 . S
H245 C189 0.929 . S
H246 C190 0.930 . S
H247 C191 0.930 . S
H248 C194 0.930 . S
H249 C197 0.929 . S
H250 C202 0.929 . S
H251 C203 0.930 . S
H252 C210 0.929 . S
H253 C211 0.930 . S
H254 C212 0.930 . S
H255 C213 0.930 . S
H256 C215 0.929 . S
H257 C216 0.930 . S
H258 C217 0.930 . S
H259 C218 0.930 . S
H260 C222 0.929 . S
H261 C224 0.930 . S
H262 C230 0.929 . S
H263 C231 0.930 . S
Li264 N281 1.990 . S
Li264 O324 1.956 . S
Li264 O325 1.970 . S
Li264 O326 1.961 . S
Li265 N289 1.990 . S
Li265 O324 1.970 . S
Li265 O325 1.956 . S
Li265 O327 1.961 . S
Li266 N311 1.990 . S
Li266 O324 1.961 . S
Li266 O326 1.956 . S
Li266 O327 1.970 . S
Li267 N317 1.990 . S
Li267 O325 1.961 . S
Li267 O326 1.970 . S
Li267 O327 1.956 . S
C268 C270 1.348 . S
C268 C271 1.356 . S
C268 O324 1.325 . S
N269 C272 1.314 . S
N269 C273 1.279 . S
C270 C268 1.348 . S
C270 C272 1.353 . S
C270 H328 0.929 . S
C271 C268 1.356 . S
C271 C273 1.358 . S
C271 H329 0.930 . S
C272 N269 1.314 . S
C272 C270 1.353 . S
C272 H330 0.930 . S
C273 N269 1.279 . S
C273 C271 1.358 . S
C273 H331 0.930 . S
C274 C277 1.348 . S
C274 C278 1.356 . S
C274 O325 1.325 . S
C275 N276 1.279 . S
C275 C278 1.358 . S
C275 H332 0.930 . S
N276 C275 1.279 . S
N276 C279 1.314 . S
C277 C274 1.348 . S
C277 C279 1.353 . S
C277 H333 0.929 . S
C278 C274 1.356 . S
C278 C275 1.358 . S
C278 H334 0.930 . S
C279 N276 1.314 . S
C279 C277 1.353 . S
C279 H335 0.930 . S
C280 N281 1.314 . S
C280 C285 1.353 . S
C280 H286 0.930 . S
N281 Li264 1.990 . S
N281 C280 1.314 . S
N281 C283 1.279 . S
C282 C283 1.358 . S
C282 C284 1.356 . S
C282 H336 0.930 . S
C283 N281 1.279 . S
C283 C282 1.358 . S
C283 H287 0.930 . S
C284 C282 1.356 . S
C284 C285 1.348 . S
C285 C280 1.353 . S
C285 C284 1.348 . S
C285 H337 0.929 . S
H286 C280 0.930 . S
H287 C283 0.930 . S
C288 N289 1.314 . S
C288 C290 1.353 . S
C288 H294 0.930 . S
N289 Li265 1.990 . S
N289 C288 1.314 . S
N289 C292 1.279 . S
C290 C288 1.353 . S
C290 C293 1.348 . S
C290 H338 0.929 . S
C291 C292 1.358 . S
C291 C293 1.356 . S
C291 H339 0.930 . S
C292 N289 1.279 . S
C292 C291 1.358 . S
C292 H295 0.930 . S
C293 C290 1.348 . S
C293 C291 1.356 . S
H294 C288 0.930 . S
H295 C292 0.930 . S
C296 C298 1.348 . S
C296 C299 1.356 . S
C296 O326 1.325 . S
N297 C300 1.314 . S
N297 C301 1.279 . S
C298 C296 1.348 . S
C298 C300 1.353 . S
C298 H340 0.929 . S
C299 C296 1.356 . S
C299 C301 1.358 . S
C299 H341 0.930 . S
C300 N297 1.314 . S
C300 C298 1.353 . S
C300 H342 0.930 . S
C301 N297 1.279 . S
C301 C299 1.358 . S
C301 H343 0.930 . S
C302 C303 1.348 . S
C302 C304 1.356 . S
C302 O327 1.325 . S
C303 C302 1.348 . S
C303 C305 1.353 . S
C303 H344 0.929 . S
C304 C302 1.356 . S
C304 C306 1.358 . S
C304 H345 0.930 . S
C305 C303 1.353 . S
C305 N307 1.314 . S
C305 H346 0.930 . S
C306 C304 1.358 . S
C306 N307 1.279 . S
C306 H347 0.930 . S
N307 C305 1.314 . S
N307 C306 1.279 . S
C308 C310 1.353 . S
C308 N311 1.314 . S
C308 H314 0.930 . S
C309 N311 1.279 . S
C309 C312 1.358 . S
C309 H315 0.930 . S
C310 C308 1.353 . S
C310 C313 1.348 . S
C310 H348 0.929 . S
N311 Li266 1.990 . S
N311 C308 1.314 . S
N311 C309 1.279 . S
C312 C309 1.358 . S
C312 C313 1.356 . S
C312 H349 0.930 . S
C313 C310 1.348 . S
C313 C312 1.356 . S
H314 C308 0.930 . S
H315 C309 0.930 . S
C316 N317 1.314 . S
C316 C318 1.353 . S
C316 H322 0.930 . S
N317 Li267 1.990 . S
N317 C316 1.314 . S
N317 C320 1.279 . S
C318 C316 1.353 . S
C318 C321 1.348 . S
C318 H350 0.929 . S
C319 C320 1.358 . S
C319 C321 1.356 . S
C319 H351 0.930 . S
C320 N317 1.279 . S
C320 C319 1.358 . S
C320 H323 0.930 . S
C321 C318 1.348 . S
C321 C319 1.356 . S
H322 C316 0.930 . S
H323 C320 0.930 . S
O324 Li264 1.956 . S
O324 Li265 1.970 . S
O324 Li266 1.961 . S
O324 C268 1.325 . S
O325 Li264 1.970 . S
O325 Li265 1.956 . S
O325 Li267 1.961 . S
O325 C274 1.325 . S
O326 Li264 1.961 . S
O326 Li266 1.956 . S
O326 Li267 1.970 . S
O326 C296 1.325 . S
O327 Li265 1.961 . S
O327 Li266 1.970 . S
O327 Li267 1.956 . S
O327 C302 1.325 . S
H328 C270 0.929 . S
H329 C271 0.930 . S
H330 C272 0.930 . S
H331 C273 0.930 . S
H332 C275 0.930 . S
H333 C277 0.929 . S
H334 C278 0.930 . S
H335 C279 0.930 . S
H336 C282 0.930 . S
H337 C285 0.929 . S
H338 C290 0.929 . S
H339 C291 0.930 . S
H340 C298 0.929 . S
H341 C299 0.930 . S
H342 C300 0.930 . S
H343 C301 0.930 . S
H344 C303 0.929 . S
H345 C304 0.930 . S
H346 C305 0.930 . S
H347 C306 0.930 . S
H348 C310 0.929 . S
H349 C312 0.930 . S
H350 C318 0.929 . S
H351 C319 0.930 . S
Li352 N369 1.990 . S
Li352 O412 1.956 . S
Li352 O413 1.970 . S
Li352 O414 1.961 . S
Li353 N377 1.990 . S
Li353 O412 1.970 . S
Li353 O413 1.956 . S
Li353 O415 1.961 . S
Li354 N399 1.990 1_455 S
Li354 O412 1.961 . S
Li354 O414 1.956 . S
Li354 O415 1.970 . S
Li355 N405 1.990 . S
Li355 O413 1.961 . S
Li355 O414 1.970 . S
Li355 O415 1.956 . S
C356 C358 1.348 . S
C356 C359 1.356 1_455 S
C356 O412 1.325 . S
N357 C360 1.314 . S
N357 C361 1.279 1_554 S
C358 C356 1.348 . S
C358 C360 1.353 1_456 S
C358 H416 0.929 . S
C359 C356 1.356 1_655 S
C359 C361 1.358 . S
C359 H417 0.930 . S
C360 N357 1.314 . S
C360 C358 1.353 1_654 S
C360 H418 0.930 1_655 S
C361 N357 1.279 1_556 S
C361 C359 1.358 . S
C361 H419 0.930 . S
C362 C365 1.348 . S
C362 C366 1.356 . S
C362 O413 1.325 . S
C363 N364 1.279 . S
C363 C366 1.358 . S
C363 H420 0.930 . S
N364 C363 1.279 . S
N364 C367 1.314 . S
C365 C362 1.348 . S
C365 C367 1.353 . S
C365 H421 0.929 . S
C366 C362 1.356 . S
C366 C363 1.358 . S
C366 H422 0.930 . S
C367 N364 1.314 . S
C367 C365 1.353 . S
C367 H423 0.930 . S
C368 N369 1.314 . S
C368 C373 1.353 . S
C368 H374 0.930 . S
N369 Li352 1.990 . S
N369 C368 1.314 . S
N369 C371 1.279 . S
C370 C371 1.358 . S
C370 C372 1.356 . S
C370 H424 0.930 . S
C371 N369 1.279 . S
C371 C370 1.358 . S
C371 H375 0.930 . S
C372 C370 1.356 . S
C372 C373 1.348 . S
C373 C368 1.353 . S
C373 C372 1.348 . S
C373 H425 0.929 . S
H374 C368 0.930 . S
H375 C371 0.930 . S
C376 N377 1.314 . S
C376 C378 1.353 1_556 S
C376 H382 0.930 . S
N377 Li353 1.990 . S
N377 C376 1.314 . S
N377 C380 1.279 . S
C378 C376 1.353 1_554 S
C378 C381 1.348 . S
C378 H426 0.929 . S
C379 C380 1.358 1_554 S
C379 C381 1.356 . S
C379 H427 0.930 . S
C380 N377 1.279 . S
C380 C379 1.358 1_556 S
C380 H383 0.930 . S
C381 C378 1.348 . S
C381 C379 1.356 . S
H382 C376 0.930 . S
H383 C380 0.930 . S
C384 C386 1.348 . S
C384 C387 1.356 1_455 S
C384 O414 1.325 . S
N385 C388 1.314 1_655 S
N385 C389 1.279 . S
C386 C384 1.348 . S
C386 C388 1.353 . S
C386 H428 0.929 . S
C387 C384 1.356 1_655 S
C387 C389 1.358 . S
C387 H429 0.930 . S
C388 N385 1.314 1_455 S
C388 C386 1.353 . S
C388 H430 0.930 . S
C389 N385 1.279 . S
C389 C387 1.358 . S
C389 H431 0.930 . S
C390 C391 1.348 . S
C390 C392 1.356 . S
C390 O415 1.325 . S
C391 C390 1.348 . S
C391 C393 1.353 . S
C391 H432 0.929 . S
C392 C390 1.356 . S
C392 C394 1.358 . S
C392 H433 0.930 . S
C393 C391 1.353 . S
C393 N395 1.314 . S
C393 H434 0.930 . S
C394 C392 1.358 . S
C394 N395 1.279 . S
C394 H435 0.930 . S
N395 C393 1.314 . S
N395 C394 1.279 . S
C396 C398 1.353 . S
C396 N399 1.314 . S
C396 H402 0.930 . S
C397 N399 1.279 . S
C397 C400 1.358 . S
C397 H403 0.930 . S
C398 C396 1.353 . S
C398 C401 1.348 . S
C398 H436 0.929 . S
N399 Li354 1.990 1_655 S
N399 C396 1.314 . S
N399 C397 1.279 . S
C400 C397 1.358 . S
C400 C401 1.356 . S
C400 H437 0.930 . S
C401 C398 1.348 . S
C401 C400 1.356 . S
H402 C396 0.930 . S
H403 C397 0.930 . S
C404 N405 1.314 . S
C404 C406 1.353 . S
C404 H410 0.930 . S
N405 Li355 1.990 . S
N405 C404 1.314 . S
N405 C408 1.279 . S
C406 C404 1.353 . S
C406 C409 1.348 . S
C406 H438 0.929 . S
C407 C408 1.358 . S
C407 C409 1.356 . S
C407 H439 0.930 . S
C408 N405 1.279 . S
C408 C407 1.358 . S
C408 H411 0.930 . S
C409 C406 1.348 . S
C409 C407 1.356 . S
H410 C404 0.930 . S
H411 C408 0.930 . S
O412 Li352 1.956 . S
O412 Li353 1.970 . S
O412 Li354 1.961 . S
O412 C356 1.325 . S
O413 Li352 1.970 . S
O413 Li353 1.956 . S
O413 Li355 1.961 . S
O413 C362 1.325 . S
O414 Li352 1.961 . S
O414 Li354 1.956 . S
O414 Li355 1.970 . S
O414 C384 1.325 . S
O415 Li353 1.961 . S
O415 Li354 1.970 . S
O415 Li355 1.956 . S
O415 C390 1.325 . S
H416 C358 0.929 . S
H417 C359 0.930 . S
H418 C360 0.930 1_455 S
H419 C361 0.930 . S
H420 C363 0.930 . S
H421 C365 0.929 . S
H422 C366 0.930 . S
H423 C367 0.930 . S
H424 C370 0.930 . S
H425 C373 0.929 . S
H426 C378 0.929 . S
H427 C379 0.930 . S
H428 C386 0.929 . S
H429 C387 0.930 . S
H430 C388 0.930 . S
H431 C389 0.930 . S
H432 C391 0.929 . S
H433 C392 0.930 . S
H434 C393 0.930 . S
H435 C394 0.930 . S
H436 C398 0.929 . S
H437 C400 0.930 . S
H438 C406 0.929 . S
H439 C407 0.930 . S
Li440 N457 1.990 . S
Li440 O500 1.956 . S
Li440 O501 1.970 . S
Li440 O502 1.961 . S
Li441 N465 1.990 . S
Li441 O500 1.970 . S
Li441 O501 1.956 . S
Li441 O503 1.961 . S
Li442 N487 1.990 1_545 S
Li442 O500 1.961 . S
Li442 O502 1.956 . S
Li442 O503 1.970 . S
Li443 N493 1.990 . S
Li443 O501 1.961 . S
Li443 O502 1.970 . S
Li443 O503 1.956 . S
C444 C446 1.348 . S
C444 C447 1.356 1_545 S
C444 O500 1.325 . S
N445 C448 1.314 . S
N445 C449 1.279 . S
C446 C444 1.348 . S
C446 C448 1.353 1_545 S
C446 H504 0.929 . S
C447 C444 1.356 1_565 S
C447 C449 1.358 . S
C447 H505 0.930 . S
C448 N445 1.314 . S
C448 C446 1.353 1_565 S
C448 H506 0.930 1_565 S
C449 N445 1.279 . S
C449 C447 1.358 . S
C449 H507 0.930 . S
C450 C453 1.348 . S
C450 C454 1.356 . S
C450 O501 1.325 . S
C451 N452 1.279 . S
C451 C454 1.358 . S
C451 H508 0.930 . S
N452 C451 1.279 . S
N452 C455 1.314 . S
C453 C450 1.348 . S
C453 C455 1.353 . S
C453 H509 0.929 . S
C454 C450 1.356 . S
C454 C451 1.358 . S
C454 H510 0.930 . S
C455 N452 1.314 . S
C455 C453 1.353 . S
C455 H511 0.930 . S
C456 N457 1.314 . S
C456 C461 1.353 . S
C456 H462 0.930 . S
N457 Li440 1.990 . S
N457 C456 1.314 . S
N457 C459 1.279 . S
C458 C459 1.358 . S
C458 C460 1.356 . S
C458 H512 0.930 . S
C459 N457 1.279 . S
C459 C458 1.358 . S
C459 H463 0.930 . S
C460 C458 1.356 . S
C460 C461 1.348 . S
C461 C456 1.353 . S
C461 C460 1.348 . S
C461 H513 0.929 . S
H462 C456 0.930 . S
H463 C459 0.930 . S
C464 N465 1.314 . S
C464 C466 1.353 . S
C464 H470 0.930 . S
N465 Li441 1.990 . S
N465 C464 1.314 . S
N465 C468 1.279 . S
C466 C464 1.353 . S
C466 C469 1.348 . S
C466 H514 0.929 . S
C467 C468 1.358 . S
C467 C469 1.356 . S
C467 H515 0.930 . S
C468 N465 1.279 . S
C468 C467 1.358 . S
C468 H471 0.930 . S
C469 C466 1.348 . S
C469 C467 1.356 . S
H470 C464 0.930 . S
H471 C468 0.930 . S
C472 C474 1.348 . S
C472 C475 1.356 1_545 S
C472 O502 1.325 . S
N473 C476 1.314 1_565 S
N473 C477 1.279 . S
C474 C472 1.348 . S
C474 C476 1.353 . S
C474 H516 0.929 . S
C475 C472 1.356 1_565 S
C475 C477 1.358 . S
C475 H517 0.930 . S
C476 N473 1.314 1_545 S
C476 C474 1.353 . S
C476 H518 0.930 . S
C477 N473 1.279 . S
C477 C475 1.358 . S
C477 H519 0.930 . S
C478 C479 1.348 . S
C478 C480 1.356 . S
C478 O503 1.325 . S
C479 C478 1.348 . S
C479 C481 1.353 . S
C479 H520 0.929 . S
C480 C478 1.356 . S
C480 C482 1.358 . S
C480 H521 0.930 . S
C481 C479 1.353 . S
C481 N483 1.314 . S
C481 H522 0.930 . S
C482 C480 1.358 . S
C482 N483 1.279 . S
C482 H523 0.930 . S
N483 C481 1.314 . S
N483 C482 1.279 . S
C484 C486 1.353 . S
C484 N487 1.314 . S
C484 H490 0.930 . S
C485 N487 1.279 . S
C485 C488 1.358 . S
C485 H491 0.930 . S
C486 C484 1.353 . S
C486 C489 1.348 . S
C486 H524 0.929 . S
N487 Li442 1.990 1_565 S
N487 C484 1.314 . S
N487 C485 1.279 . S
C488 C485 1.358 . S
C488 C489 1.356 . S
C488 H525 0.930 . S
C489 C486 1.348 . S
C489 C488 1.356 . S
H490 C484 0.930 . S
H491 C485 0.930 . S
C492 N493 1.314 . S
C492 C494 1.353 . S
C492 H498 0.930 . S
N493 Li443 1.990 . S
N493 C492 1.314 . S
N493 C496 1.279 . S
C494 C492 1.353 . S
C494 C497 1.348 . S
C494 H526 0.929 . S
C495 C496 1.358 . S
C495 C497 1.356 . S
C495 H527 0.930 . S
C496 N493 1.279 . S
C496 C495 1.358 . S
C496 H499 0.930 . S
C497 C494 1.348 . S
C497 C495 1.356 . S
H498 C492 0.930 . S
H499 C496 0.930 . S
O500 Li440 1.956 . S
O500 Li441 1.970 . S
O500 Li442 1.961 . S
O500 C444 1.325 . S
O501 Li440 1.970 . S
O501 Li441 1.956 . S
O501 Li443 1.961 . S
O501 C450 1.325 . S
O502 Li440 1.961 . S
O502 Li442 1.956 . S
O502 Li443 1.970 . S
O502 C472 1.325 . S
O503 Li441 1.961 . S
O503 Li442 1.970 . S
O503 Li443 1.956 . S
O503 C478 1.325 . S
H504 C446 0.929 . S
H505 C447 0.930 . S
H506 C448 0.930 1_545 S
H507 C449 0.930 . S
H508 C451 0.930 . S
H509 C453 0.929 . S
H510 C454 0.930 . S
H511 C455 0.930 . S
H512 C458 0.930 . S
H513 C461 0.929 . S
H514 C466 0.929 . S
H515 C467 0.930 . S
H516 C474 0.929 . S
H517 C475 0.930 . S
H518 C476 0.930 . S
H519 C477 0.930 . S
H520 C479 0.929 . S
H521 C480 0.930 . S
H522 C481 0.930 . S
H523 C482 0.930 . S
H524 C486 0.929 . S
H525 C488 0.930 . S
H526 C494 0.929 . S
H527 C495 0.930 . S
Li528 N545 1.990 . S
Li528 O588 1.956 . S
Li528 O589 1.970 . S
Li528 O590 1.961 . S
Li529 N553 1.990 . S
Li529 O588 1.970 . S
Li529 O589 1.956 . S
Li529 O591 1.961 . S
Li530 N575 1.990 . S
Li530 O588 1.961 . S
Li530 O590 1.956 . S
Li530 O591 1.970 . S
Li531 N581 1.990 . S
Li531 O589 1.961 . S
Li531 O590 1.970 . S
Li531 O591 1.956 . S
C532 C534 1.348 . S
C532 C535 1.356 . S
C532 O588 1.325 . S
N533 C536 1.314 . S
N533 C537 1.279 1_554 S
C534 C532 1.348 . S
C534 C536 1.353 1_556 S
C534 H592 0.929 . S
C535 C532 1.356 . S
C535 C537 1.358 . S
C535 H593 0.930 . S
C536 N533 1.314 . S
C536 C534 1.353 1_554 S
C536 H594 0.930 . S
C537 N533 1.279 1_556 S
C537 C535 1.358 . S
C537 H595 0.930 . S
C538 C541 1.348 . S
C538 C542 1.356 . S
C538 O589 1.325 . S
C539 N540 1.279 . S
C539 C542 1.358 . S
C539 H596 0.930 . S
N540 C539 1.279 . S
N540 C543 1.314 . S
C541 C538 1.348 . S
C541 C543 1.353 . S
C541 H597 0.929 . S
C542 C538 1.356 . S
C542 C539 1.358 . S
C542 H598 0.930 . S
C543 N540 1.314 . S
C543 C541 1.353 . S
C543 H599 0.930 . S
C544 N545 1.314 . S
C544 C549 1.353 . S
C544 H550 0.930 . S
N545 Li528 1.990 . S
N545 C544 1.314 . S
N545 C547 1.279 . S
C546 C547 1.358 . S
C546 C548 1.356 . S
C546 H600 0.930 . S
C547 N545 1.279 . S
C547 C546 1.358 . S
C547 H551 0.930 . S
C548 C546 1.356 . S
C548 C549 1.348 . S
C549 C544 1.353 . S
C549 C548 1.348 . S
C549 H601 0.929 . S
H550 C544 0.930 . S
H551 C547 0.930 . S
C552 N553 1.314 . S
C552 C554 1.353 1_556 S
C552 H558 0.930 . S
N553 Li529 1.990 . S
N553 C552 1.314 . S
N553 C556 1.279 . S
C554 C552 1.353 1_554 S
C554 C557 1.348 . S
C554 H602 0.929 . S
C555 C556 1.358 1_554 S
C555 C557 1.356 . S
C555 H603 0.930 . S
C556 N553 1.279 . S
C556 C555 1.358 1_556 S
C556 H559 0.930 . S
C557 C554 1.348 . S
C557 C555 1.356 . S
H558 C552 0.930 . S
H559 C556 0.930 . S
C560 C562 1.348 . S
C560 C563 1.356 . S
C560 O590 1.325 . S
N561 C564 1.314 . S
N561 C565 1.279 . S
C562 C560 1.348 . S
C562 C564 1.353 . S
C562 H604 0.929 . S
C563 C560 1.356 . S
C563 C565 1.358 . S
C563 H605 0.930 . S
C564 N561 1.314 . S
C564 C562 1.353 . S
C564 H606 0.930 . S
C565 N561 1.279 . S
C565 C563 1.358 . S
C565 H607 0.930 . S
C566 C567 1.348 . S
C566 C568 1.356 . S
C566 O591 1.325 . S
C567 C566 1.348 . S
C567 C569 1.353 . S
C567 H608 0.929 . S
C568 C566 1.356 . S
C568 C570 1.358 . S
C568 H609 0.930 . S
C569 C567 1.353 . S
C569 N571 1.314 . S
C569 H610 0.930 . S
C570 C568 1.358 . S
C570 N571 1.279 . S
C570 H611 0.930 . S
N571 C569 1.314 . S
N571 C570 1.279 . S
C572 C574 1.353 . S
C572 N575 1.314 . S
C572 H578 0.930 . S
C573 N575 1.279 . S
C573 C576 1.358 . S
C573 H579 0.930 . S
C574 C572 1.353 . S
C574 C577 1.348 . S
C574 H612 0.929 . S
N575 Li530 1.990 . S
N575 C572 1.314 . S
N575 C573 1.279 . S
C576 C573 1.358 . S
C576 C577 1.356 . S
C576 H613 0.930 . S
C577 C574 1.348 . S
C577 C576 1.356 . S
H578 C572 0.930 . S
H579 C573 0.930 . S
C580 N581 1.314 . S
C580 C582 1.353 . S
C580 H586 0.930 . S
N581 Li531 1.990 . S
N581 C580 1.314 . S
N581 C584 1.279 . S
C582 C580 1.353 . S
C582 C585 1.348 . S
C582 H614 0.929 . S
C583 C584 1.358 . S
C583 C585 1.356 . S
C583 H615 0.930 . S
C584 N581 1.279 . S
C584 C583 1.358 . S
C584 H587 0.930 . S
C585 C582 1.348 . S
C585 C583 1.356 . S
H586 C580 0.930 . S
H587 C584 0.930 . S
O588 Li528 1.956 . S
O588 Li529 1.970 . S
O588 Li530 1.961 . S
O588 C532 1.325 . S
O589 Li528 1.970 . S
O589 Li529 1.956 . S
O589 Li531 1.961 . S
O589 C538 1.325 . S
O590 Li528 1.961 . S
O590 Li530 1.956 . S
O590 Li531 1.970 . S
O590 C560 1.325 . S
O591 Li529 1.961 . S
O591 Li530 1.970 . S
O591 Li531 1.956 . S
O591 C566 1.325 . S
H592 C534 0.929 . S
H593 C535 0.930 . S
H594 C536 0.930 . S
H595 C537 0.930 . S
H596 C539 0.930 . S
H597 C541 0.929 . S
H598 C542 0.930 . S
H599 C543 0.930 . S
H600 C546 0.930 . S
H601 C549 0.929 . S
H602 C554 0.929 . S
H603 C555 0.930 . S
H604 C562 0.929 . S
H605 C563 0.930 . S
H606 C564 0.930 . S
H607 C565 0.930 . S
H608 C567 0.929 . S
H609 C568 0.930 . S
H610 C569 0.930 . S
H611 C570 0.930 . S
H612 C574 0.929 . S
H613 C576 0.930 . S
H614 C582 0.929 . S
H615 C583 0.930 . S
Li616 N633 1.990 . S
Li616 O676 1.956 . S
Li616 O677 1.970 . S
Li616 O678 1.961 . S
Li617 N641 1.990 . S
Li617 O676 1.970 . S
Li617 O677 1.956 . S
Li617 O679 1.961 . S
Li618 N663 1.990 . S
Li618 O676 1.961 . S
Li618 O678 1.956 . S
Li618 O679 1.970 . S
Li619 N669 1.990 . S
Li619 O677 1.961 . S
Li619 O678 1.970 . S
Li619 O679 1.956 . S
C620 C622 1.348 . S
C620 C623 1.356 . S
C620 O676 1.325 . S
N621 C624 1.314 . S
N621 C625 1.279 . S
C622 C620 1.348 . S
C622 C624 1.353 . S
C622 H680 0.929 . S
C623 C620 1.356 . S
C623 C625 1.358 . S
C623 H681 0.930 . S
C624 N621 1.314 . S
C624 C622 1.353 . S
C624 H682 0.930 . S
C625 N621 1.279 . S
C625 C623 1.358 . S
C625 H683 0.930 . S
C626 C629 1.348 . S
C626 C630 1.356 . S
C626 O677 1.325 . S
C627 N628 1.279 . S
C627 C630 1.358 . S
C627 H684 0.930 . S
N628 C627 1.279 . S
N628 C631 1.314 . S
C629 C626 1.348 . S
C629 C631 1.353 . S
C629 H685 0.929 . S
C630 C626 1.356 . S
C630 C627 1.358 . S
C630 H686 0.930 . S
C631 N628 1.314 . S
C631 C629 1.353 . S
C631 H687 0.930 . S
C632 N633 1.314 . S
C632 C637 1.353 . S
C632 H638 0.930 . S
N633 Li616 1.990 . S
N633 C632 1.314 . S
N633 C635 1.279 . S
C634 C635 1.358 . S
C634 C636 1.356 . S
C634 H688 0.930 . S
C635 N633 1.279 . S
C635 C634 1.358 . S
C635 H639 0.930 . S
C636 C634 1.356 . S
C636 C637 1.348 . S
C637 C632 1.353 . S
C637 C636 1.348 . S
C637 H689 0.929 . S
H638 C632 0.930 . S
H639 C635 0.930 . S
C640 N641 1.314 . S
C640 C642 1.353 . S
C640 H646 0.930 . S
N641 Li617 1.990 . S
N641 C640 1.314 . S
N641 C644 1.279 . S
C642 C640 1.353 . S
C642 C645 1.348 . S
C642 H690 0.929 . S
C643 C644 1.358 . S
C643 C645 1.356 . S
C643 H691 0.930 . S
C644 N641 1.279 . S
C644 C643 1.358 . S
C644 H647 0.930 . S
C645 C642 1.348 . S
C645 C643 1.356 . S
H646 C640 0.930 . S
H647 C644 0.930 . S
C648 C650 1.348 . S
C648 C651 1.356 . S
C648 O678 1.325 . S
N649 C652 1.314 . S
N649 C653 1.279 . S
C650 C648 1.348 . S
C650 C652 1.353 . S
C650 H692 0.929 . S
C651 C648 1.356 . S
C651 C653 1.358 . S
C651 H693 0.930 . S
C652 N649 1.314 . S
C652 C650 1.353 . S
C652 H694 0.930 . S
C653 N649 1.279 . S
C653 C651 1.358 . S
C653 H695 0.930 . S
C654 C655 1.348 . S
C654 C656 1.356 . S
C654 O679 1.325 . S
C655 C654 1.348 . S
C655 C657 1.353 . S
C655 H696 0.929 . S
C656 C654 1.356 . S
C656 C658 1.358 . S
C656 H697 0.930 . S
C657 C655 1.353 . S
C657 N659 1.314 . S
C657 H698 0.930 . S
C658 C656 1.358 . S
C658 N659 1.279 . S
C658 H699 0.930 . S
N659 C657 1.314 . S
N659 C658 1.279 . S
C660 C662 1.353 . S
C660 N663 1.314 . S
C660 H666 0.930 . S
C661 N663 1.279 . S
C661 C664 1.358 . S
C661 H667 0.930 . S
C662 C660 1.353 . S
C662 C665 1.348 . S
C662 H700 0.929 . S
N663 Li618 1.990 . S
N663 C660 1.314 . S
N663 C661 1.279 . S
C664 C661 1.358 . S
C664 C665 1.356 . S
C664 H701 0.930 . S
C665 C662 1.348 . S
C665 C664 1.356 . S
H666 C660 0.930 . S
H667 C661 0.930 . S
C668 N669 1.314 . S
C668 C670 1.353 . S
C668 H674 0.930 . S
N669 Li619 1.990 . S
N669 C668 1.314 . S
N669 C672 1.279 . S
C670 C668 1.353 . S
C670 C673 1.348 . S
C670 H702 0.929 . S
C671 C672 1.358 . S
C671 C673 1.356 . S
C671 H703 0.930 . S
C672 N669 1.279 . S
C672 C671 1.358 . S
C672 H675 0.930 . S
C673 C670 1.348 . S
C673 C671 1.356 . S
H674 C668 0.930 . S
H675 C672 0.930 . S
O676 Li616 1.956 . S
O676 Li617 1.970 . S
O676 Li618 1.961 . S
O676 C620 1.325 . S
O677 Li616 1.970 . S
O677 Li617 1.956 . S
O677 Li619 1.961 . S
O677 C626 1.325 . S
O678 Li616 1.961 . S
O678 Li618 1.956 . S
O678 Li619 1.970 . S
O678 C648 1.325 . S
O679 Li617 1.961 . S
O679 Li618 1.970 . S
O679 Li619 1.956 . S
O679 C654 1.325 . S
H680 C622 0.929 . S
H681 C623 0.930 . S
H682 C624 0.930 . S
H683 C625 0.930 . S
H684 C627 0.930 . S
H685 C629 0.929 . S
H686 C630 0.930 . S
H687 C631 0.930 . S
H688 C634 0.930 . S
H689 C637 0.929 . S
H690 C642 0.929 . S
H691 C643 0.930 . S
H692 C650 0.929 . S
H693 C651 0.930 . S
H694 C652 0.930 . S
H695 C653 0.930 . S
H696 C655 0.929 . S
H697 C656 0.930 . S
H698 C657 0.930 . S
H699 C658 0.930 . S
H700 C662 0.929 . S
H701 C664 0.930 . S
H702 C670 0.929 . S
H703 C671 0.930 . S
Li704 N721 1.990 . S
Li704 O764 1.956 . S
Li704 O765 1.970 . S
Li704 O766 1.961 . S
Li705 N729 1.990 . S
Li705 O764 1.970 . S
Li705 O765 1.956 . S
Li705 O767 1.961 . S
Li706 N751 1.990 1_655 S
Li706 O764 1.961 . S
Li706 O766 1.956 . S
Li706 O767 1.970 . S
Li707 N757 1.990 . S
Li707 O765 1.961 . S
Li707 O766 1.970 . S
Li707 O767 1.956 . S
C708 C710 1.348 . S
C708 C711 1.356 1_655 S
C708 O764 1.325 . S
N709 C712 1.307 1_554 S
N709 C713 1.279 1_554 S
C710 C708 1.348 . S
C710 C712 1.369 1_655 S
C710 H768 0.929 . S
C711 C708 1.356 1_455 S
C711 C713 1.358 . S
C711 H769 0.930 . S
C712 N709 1.307 1_556 S
C712 C710 1.369 1_455 S
C712 H770 0.920 1_556 S
C713 N709 1.279 1_556 S
C713 C711 1.358 . S
C713 H771 0.930 1_556 S
C714 C717 1.348 . S
C714 C718 1.356 . S
C714 O765 1.325 . S
C715 N716 1.279 . S
C715 C718 1.358 . S
C715 H772 0.930 . S
N716 C715 1.279 . S
N716 C719 1.314 . S
C717 C714 1.348 . S
C717 C719 1.353 . S
C717 H773 0.929 . S
C718 C714 1.356 . S
C718 C715 1.358 . S
C718 H774 0.930 . S
C719 N716 1.314 . S
C719 C717 1.353 . S
C719 H775 0.930 . S
C720 N721 1.314 . S
C720 C725 1.353 . S
C720 H726 0.930 . S
N721 Li704 1.990 . S
N721 C720 1.314 . S
N721 C723 1.279 . S
C722 C723 1.358 1_554 S
C722 C724 1.356 . S
C722 H776 0.930 . S
C723 N721 1.279 . S
C723 C722 1.358 1_556 S
C723 H727 0.930 1_556 S
C724 C722 1.356 . S
C724 C725 1.348 1_554 S
C725 C720 1.353 . S
C725 C724 1.348 1_556 S
C725 H777 0.929 . S
H726 C720 0.930 . S
H727 C723 0.930 1_554 S
C728 N729 1.314 . S
C728 C730 1.353 . S
C728 H734 0.930 . S
N729 Li705 1.990 . S
N729 C728 1.314 . S
N729 C732 1.279 . S
C730 C728 1.353 . S
C730 C733 1.348 . S
C730 H778 0.929 1_655 S
C731 C732 1.358 . S
C731 C733 1.356 . S
C731 H779 0.930 . S
C732 N729 1.279 . S
C732 C731 1.358 . S
C732 H735 0.930 . S
C733 C730 1.348 . S
C733 C731 1.356 . S
H734 C728 0.930 . S
H735 C732 0.930 . S
C736 C738 1.348 . S
C736 C739 1.356 . S
C736 O766 1.325 . S
N737 C740 1.314 . S
N737 C741 1.279 . S
C738 C736 1.348 . S
C738 C740 1.353 . S
C738 H780 0.929 . S
C739 C736 1.356 . S
C739 C741 1.358 . S
C739 H781 0.930 . S
C740 N737 1.314 . S
C740 C738 1.353 . S
C740 H782 0.930 . S
C741 N737 1.279 . S
C741 C739 1.358 . S
C741 H783 0.930 . S
C742 C743 1.311 1_655 S
C742 C744 1.356 . S
C742 O767 1.325 . S
C743 C742 1.311 1_455 S
C743 C745 1.372 . S
C743 H784 0.950 . S
C744 C742 1.356 . S
C744 C746 1.358 . S
C744 H785 0.930 . S
C745 C743 1.372 . S
C745 N747 1.314 . S
C745 H786 0.930 . S
C746 C744 1.358 . S
C746 N747 1.279 1_655 S
C746 H787 0.930 . S
N747 C745 1.314 . S
N747 C746 1.279 1_455 S
C748 C750 1.353 . S
C748 N751 1.314 . S
C748 H754 0.930 . S
C749 N751 1.279 . S
C749 C752 1.358 . S
C749 H755 0.930 . S
C750 C748 1.353 . S
C750 C753 1.348 . S
C750 H788 0.929 . S
N751 Li706 1.990 1_455 S
N751 C748 1.314 . S
N751 C749 1.279 . S
C752 C749 1.358 . S
C752 C753 1.356 . S
C752 H789 0.930 . S
C753 C750 1.348 . S
C753 C752 1.356 . S
H754 C748 0.930 . S
H755 C749 0.930 . S
C756 N757 1.314 . S
C756 C758 1.353 . S
C756 H762 0.930 . S
N757 Li707 1.990 . S
N757 C756 1.314 . S
N757 C760 1.279 . S
C758 C756 1.353 . S
C758 C761 1.348 . S
C758 H790 0.929 . S
C759 C760 1.358 . S
C759 C761 1.356 . S
C759 H791 0.930 . S
C760 N757 1.279 . S
C760 C759 1.358 . S
C760 H763 0.930 . S
C761 C758 1.348 . S
C761 C759 1.356 . S
H762 C756 0.930 . S
H763 C760 0.930 . S
O764 Li704 1.956 . S
O764 Li705 1.970 . S
O764 Li706 1.961 . S
O764 C708 1.325 . S
O765 Li704 1.970 . S
O765 Li705 1.956 . S
O765 Li707 1.961 . S
O765 C714 1.325 . S
O766 Li704 1.961 . S
O766 Li706 1.956 . S
O766 Li707 1.970 . S
O766 C736 1.325 . S
O767 Li705 1.961 . S
O767 Li706 1.970 . S
O767 Li707 1.956 . S
O767 C742 1.325 . S
H768 C710 0.929 . S
H769 C711 0.930 . S
H770 C712 0.920 1_554 S
H771 C713 0.930 1_554 S
H772 C715 0.930 . S
H773 C717 0.929 . S
H774 C718 0.930 . S
H775 C719 0.930 . S
H776 C722 0.930 . S
H777 C725 0.929 . S
H778 C730 0.929 1_455 S
H779 C731 0.930 . S
H780 C738 0.929 . S
H781 C739 0.930 . S
H782 C740 0.930 . S
H783 C741 0.930 . S
H784 C743 0.950 . S
H785 C744 0.930 . S
H786 C745 0.930 . S
H787 C746 0.930 . S
H788 C750 0.929 . S
H789 C752 0.930 . S
H790 C758 0.929 . S
H791 C759 0.930 . S
Li792 N809 1.990 . S
Li792 O852 1.956 . S
Li792 O853 1.970 . S
Li792 O854 1.961 . S
Li793 N817 1.990 . S
Li793 O852 1.970 . S
Li793 O853 1.956 . S
Li793 O855 1.961 . S
Li794 N839 1.990 1_565 S
Li794 O852 1.961 . S
Li794 O854 1.956 . S
Li794 O855 1.970 . S
Li795 N845 1.990 . S
Li795 O853 1.961 . S
Li795 O854 1.970 . S
Li795 O855 1.956 . S
C796 C798 1.348 . S
C796 C799 1.356 1_565 S
C796 O852 1.325 . S
N797 C800 1.314 . S
N797 C801 1.279 . S
C798 C796 1.348 . S
C798 C800 1.353 1_565 S
C798 H856 0.929 . S
C799 C796 1.356 1_545 S
C799 C801 1.358 . S
C799 H857 0.930 . S
C800 N797 1.314 . S
C800 C798 1.353 1_545 S
C800 H858 0.930 . S
C801 N797 1.279 . S
C801 C799 1.358 . S
C801 H859 0.930 . S
C802 C805 1.348 . S
C802 C806 1.356 . S
C802 O853 1.325 . S
C803 N804 1.279 . S
C803 C806 1.358 . S
C803 H860 0.930 . S
N804 C803 1.279 . S
N804 C807 1.314 . S
C805 C802 1.348 . S
C805 C807 1.353 . S
C805 H861 0.929 . S
C806 C802 1.356 . S
C806 C803 1.358 . S
C806 H862 0.930 . S
C807 N804 1.314 . S
C807 C805 1.353 . S
C807 H863 0.930 . S
C808 N809 1.314 . S
C808 C813 1.353 . S
C808 H814 0.930 . S
N809 Li792 1.990 . S
N809 C808 1.314 . S
N809 C811 1.279 . S
C810 C811 1.358 . S
C810 C812 1.356 . S
C810 H864 0.930 . S
C811 N809 1.279 . S
C811 C810 1.358 . S
C811 H815 0.930 . S
C812 C810 1.356 . S
C812 C813 1.348 . S
C813 C808 1.353 . S
C813 C812 1.348 . S
C813 H865 0.929 . S
H814 C808 0.930 . S
H815 C811 0.930 . S
C816 N817 1.314 . S
C816 C818 1.353 . S
C816 H822 0.930 . S
N817 Li793 1.990 . S
N817 C816 1.314 . S
N817 C820 1.279 . S
C818 C816 1.353 . S
C818 C821 1.348 . S
C818 H866 0.929 1_565 S
C819 C820 1.358 . S
C819 C821 1.356 . S
C819 H867 0.930 . S
C820 N817 1.279 . S
C820 C819 1.358 . S
C820 H823 0.930 . S
C821 C818 1.348 . S
C821 C819 1.356 . S
H822 C816 0.930 . S
H823 C820 0.930 . S
C824 C826 1.348 . S
C824 C827 1.356 . S
C824 O854 1.325 . S
N825 C828 1.314 . S
N825 C829 1.279 . S
C826 C824 1.348 . S
C826 C828 1.353 . S
C826 H868 0.929 . S
C827 C824 1.356 . S
C827 C829 1.358 . S
C827 H869 0.930 . S
C828 N825 1.314 . S
C828 C826 1.353 . S
C828 H870 0.930 . S
C829 N825 1.279 . S
C829 C827 1.358 . S
C829 H871 0.930 . S
C830 C831 1.310 1_565 S
C830 C832 1.356 . S
C830 O855 1.325 . S
C831 C830 1.310 1_545 S
C831 C833 1.372 . S
C831 H872 0.950 . S
C832 C830 1.356 . S
C832 C834 1.358 . S
C832 H873 0.930 . S
C833 C831 1.372 . S
C833 N835 1.314 . S
C833 H874 0.930 . S
C834 C832 1.358 . S
C834 N835 1.279 1_565 S
C834 H875 0.930 . S
N835 C833 1.314 . S
N835 C834 1.279 1_545 S
C836 C838 1.353 . S
C836 N839 1.314 . S
C836 H842 0.930 . S
C837 N839 1.279 . S
C837 C840 1.358 . S
C837 H843 0.930 . S
C838 C836 1.353 . S
C838 C841 1.348 . S
C838 H876 0.929 . S
N839 Li794 1.990 1_545 S
N839 C836 1.314 . S
N839 C837 1.279 . S
C840 C837 1.358 . S
C840 C841 1.356 . S
C840 H877 0.930 . S
C841 C838 1.348 . S
C841 C840 1.356 . S
H842 C836 0.930 . S
H843 C837 0.930 . S
C844 N845 1.314 . S
C844 C846 1.353 . S
C844 H850 0.930 . S
N845 Li795 1.990 . S
N845 C844 1.314 . S
N845 C848 1.279 . S
C846 C844 1.353 . S
C846 C849 1.348 . S
C846 H878 0.929 . S
C847 C848 1.358 . S
C847 C849 1.356 . S
C847 H879 0.930 . S
C848 N845 1.279 . S
C848 C847 1.358 . S
C848 H851 0.930 . S
C849 C846 1.348 . S
C849 C847 1.356 . S
H850 C844 0.930 . S
H851 C848 0.930 . S
O852 Li792 1.956 . S
O852 Li793 1.970 . S
O852 Li794 1.961 . S
O852 C796 1.325 . S
O853 Li792 1.970 . S
O853 Li793 1.956 . S
O853 Li795 1.961 . S
O853 C802 1.325 . S
O854 Li792 1.961 . S
O854 Li794 1.956 . S
O854 Li795 1.970 . S
O854 C824 1.325 . S
O855 Li793 1.961 . S
O855 Li794 1.970 . S
O855 Li795 1.956 . S
O855 C830 1.325 . S
H856 C798 0.929 . S
H857 C799 0.930 . S
H858 C800 0.930 . S
H859 C801 0.930 . S
H860 C803 0.930 . S
H861 C805 0.929 . S
H862 C806 0.930 . S
H863 C807 0.930 . S
H864 C810 0.930 . S
H865 C813 0.929 . S
H866 C818 0.929 1_545 S
H867 C819 0.930 . S
H868 C826 0.929 . S
H869 C827 0.930 . S
H870 C828 0.930 . S
H871 C829 0.930 . S
H872 C831 0.950 . S
H873 C832 0.930 . S
H874 C833 0.930 . S
H875 C834 0.930 . S
H876 C838 0.929 . S
H877 C840 0.930 . S
H878 C846 0.929 . S
H879 C847 0.930 . S
Li880 N897 1.990 . S
Li880 O940 1.956 . S
Li880 O941 1.970 . S
Li880 O942 1.961 . S
Li881 N905 1.990 . S
Li881 O940 1.970 . S
Li881 O941 1.956 . S
Li881 O943 1.961 . S
Li882 N927 1.990 . S
Li882 O940 1.961 . S
Li882 O942 1.956 . S
Li882 O943 1.970 . S
Li883 N933 1.990 . S
Li883 O941 1.961 . S
Li883 O942 1.970 . S
Li883 O943 1.956 . S
C884 C886 1.348 . S
C884 C887 1.356 . S
C884 O940 1.325 . S
N885 C888 1.314 . S
N885 C889 1.279 . S
C886 C884 1.348 . S
C886 C888 1.353 . S
C886 H944 0.929 . S
C887 C884 1.356 . S
C887 C889 1.358 . S
C887 H945 0.930 . S
C888 N885 1.314 . S
C888 C886 1.353 . S
C888 H946 0.930 . S
C889 N885 1.279 . S
C889 C887 1.358 . S
C889 H947 0.930 . S
C890 C893 1.348 . S
C890 C894 1.356 . S
C890 O941 1.325 . S
C891 N892 1.279 1_556 S
C891 C894 1.358 . S
C891 H948 0.930 1_556 S
N892 C891 1.279 1_554 S
N892 C895 1.307 1_554 S
C893 C890 1.348 . S
C893 C895 1.368 . S
C893 H949 0.929 . S
C894 C890 1.356 . S
C894 C891 1.358 . S
C894 H950 0.930 . S
C895 N892 1.307 1_556 S
C895 C893 1.368 . S
C895 H951 0.921 1_556 S
C896 N897 1.314 . S
C896 C901 1.353 . S
C896 H902 0.930 . S
N897 Li880 1.990 . S
N897 C896 1.314 . S
N897 C899 1.279 . S
C898 C899 1.358 . S
C898 C900 1.356 . S
C898 H952 0.930 . S
C899 N897 1.279 . S
C899 C898 1.358 . S
C899 H903 0.930 . S
C900 C898 1.356 . S
C900 C901 1.348 . S
C901 C896 1.353 . S
C901 C900 1.348 . S
C901 H953 0.929 . S
H902 C896 0.930 . S
H903 C899 0.930 . S
C904 N905 1.314 . S
C904 C906 1.353 . S
C904 H910 0.930 . S
N905 Li881 1.990 . S
N905 C904 1.314 . S
N905 C908 1.279 . S
C906 C904 1.353 . S
C906 C909 1.348 1_556 S
C906 H954 0.929 . S
C907 C908 1.358 1_554 S
C907 C909 1.356 . S
C907 H955 0.930 . S
C908 N905 1.279 . S
C908 C907 1.358 1_556 S
C908 H911 0.930 1_556 S
C909 C906 1.348 1_554 S
C909 C907 1.356 . S
H910 C904 0.930 . S
H911 C908 0.930 1_554 S
C912 C914 1.348 . S
C912 C915 1.356 . S
C912 O942 1.325 . S
N913 C916 1.314 . S
N913 C917 1.279 . S
C914 C912 1.348 . S
C914 C916 1.353 . S
C914 H956 0.929 . S
C915 C912 1.356 . S
C915 C917 1.358 . S
C915 H957 0.930 . S
C916 N913 1.314 . S
C916 C914 1.353 . S
C916 H958 0.930 . S
C917 N913 1.279 . S
C917 C915 1.358 . S
C917 H959 0.930 . S
C918 C919 1.348 . S
C918 C920 1.356 . S
C918 O943 1.325 . S
C919 C918 1.348 . S
C919 C921 1.353 . S
C919 H960 0.929 . S
C920 C918 1.356 . S
C920 C922 1.358 . S
C920 H961 0.930 . S
C921 C919 1.353 . S
C921 N923 1.314 . S
C921 H962 0.930 . S
C922 C920 1.358 . S
C922 N923 1.279 . S
C922 H963 0.930 . S
N923 C921 1.314 . S
N923 C922 1.279 . S
C924 C926 1.353 . S
C924 N927 1.314 . S
C924 H930 0.930 . S
C925 N927 1.279 . S
C925 C928 1.358 . S
C925 H931 0.930 . S
C926 C924 1.353 . S
C926 C929 1.348 . S
C926 H964 0.929 . S
N927 Li882 1.990 . S
N927 C924 1.314 . S
N927 C925 1.279 . S
C928 C925 1.358 . S
C928 C929 1.356 . S
C928 H965 0.930 . S
C929 C926 1.348 . S
C929 C928 1.356 . S
H930 C924 0.930 . S
H931 C925 0.930 . S
C932 N933 1.314 . S
C932 C934 1.353 . S
C932 H938 0.930 . S
N933 Li883 1.990 . S
N933 C932 1.314 . S
N933 C936 1.279 . S
C934 C932 1.353 . S
C934 C937 1.348 . S
C934 H966 0.929 . S
C935 C936 1.358 . S
C935 C937 1.356 . S
C935 H967 0.930 . S
C936 N933 1.279 . S
C936 C935 1.358 . S
C936 H939 0.930 . S
C937 C934 1.348 . S
C937 C935 1.356 . S
H938 C932 0.930 . S
H939 C936 0.930 . S
O940 Li880 1.956 . S
O940 Li881 1.970 . S
O940 Li882 1.961 . S
O940 C884 1.325 . S
O941 Li880 1.970 . S
O941 Li881 1.956 . S
O941 Li883 1.961 . S
O941 C890 1.325 . S
O942 Li880 1.961 . S
O942 Li882 1.956 . S
O942 Li883 1.970 . S
O942 C912 1.325 . S
O943 Li881 1.961 . S
O943 Li882 1.970 . S
O943 Li883 1.956 . S
O943 C918 1.325 . S
H944 C886 0.929 . S
H945 C887 0.930 . S
H946 C888 0.930 . S
H947 C889 0.930 . S
H948 C891 0.930 1_554 S
H949 C893 0.929 . S
H950 C894 0.930 . S
H951 C895 0.921 1_554 S
H952 C898 0.930 . S
H953 C901 0.929 . S
H954 C906 0.929 . S
H955 C907 0.930 . S
H956 C914 0.929 . S
H957 C915 0.930 . S
H958 C916 0.930 . S
H959 C917 0.930 . S
H960 C919 0.929 . S
H961 C920 0.930 . S
H962 C921 0.930 . S
H963 C922 0.930 . S
H964 C926 0.929 . S
H965 C928 0.930 . S
H966 C934 0.929 . S
H967 C935 0.930 . S
Li968 N985 1.990 . S
Li968 O1028 1.956 . S
Li968 O1029 1.970 . S
Li968 O1030 1.961 . S
Li969 N993 1.990 . S
Li969 O1028 1.970 . S
Li969 O1029 1.956 . S
Li969 O1031 1.961 . S
Li970 N1015 1.990 . S
Li970 O1028 1.961 . S
Li970 O1030 1.956 . S
Li970 O1031 1.970 . S
Li971 N1021 1.990 . S
Li971 O1029 1.961 . S
Li971 O1030 1.970 . S
Li971 O1031 1.956 . S
C972 C974 1.348 . S
C972 C975 1.356 . S
C972 O1028 1.325 . S
N973 C976 1.314 . S
N973 C977 1.279 . S
C974 C972 1.348 . S
C974 C976 1.353 . S
C974 H1032 0.929 . S
C975 C972 1.356 . S
C975 C977 1.358 . S
C975 H1033 0.930 . S
C976 N973 1.314 . S
C976 C974 1.353 . S
C976 H1034 0.930 . S
C977 N973 1.279 . S
C977 C975 1.358 . S
C977 H1035 0.930 . S
C978 C981 1.348 . S
C978 C982 1.356 . S
C978 O1029 1.325 . S
C979 N980 1.279 . S
C979 C982 1.358 . S
C979 H1036 0.930 . S
N980 C979 1.279 . S
N980 C983 1.314 . S
C981 C978 1.348 . S
C981 C983 1.353 . S
C981 H1037 0.929 . S
C982 C978 1.356 . S
C982 C979 1.358 . S
C982 H1038 0.930 . S
C983 N980 1.314 . S
C983 C981 1.353 . S
C983 H1039 0.930 . S
C984 N985 1.314 . S
C984 C989 1.353 . S
C984 H990 0.930 . S
N985 Li968 1.990 . S
N985 C984 1.314 . S
N985 C987 1.279 . S
C986 C987 1.358 . S
C986 C988 1.356 . S
C986 H1040 0.930 . S
C987 N985 1.279 . S
C987 C986 1.358 . S
C987 H991 0.930 . S
C988 C986 1.356 . S
C988 C989 1.348 . S
C989 C984 1.353 . S
C989 C988 1.348 . S
C989 H1041 0.929 . S
H990 C984 0.930 . S
H991 C987 0.930 . S
C992 N993 1.314 . S
C992 C994 1.353 . S
C992 H998 0.930 . S
N993 Li969 1.990 . S
N993 C992 1.314 . S
N993 C996 1.279 . S
C994 C992 1.353 . S
C994 C997 1.348 . S
C994 H1042 0.929 . S
C995 C996 1.358 . S
C995 C997 1.356 . S
C995 H1043 0.930 . S
C996 N993 1.279 . S
C996 C995 1.358 . S
C996 H999 0.930 . S
C997 C994 1.348 . S
C997 C995 1.356 . S
H998 C992 0.930 . S
H999 C996 0.930 . S
C1000 C1002 1.348 . S
C1000 C1003 1.356 . S
C1000 O1030 1.325 . S
N1001 C1004 1.314 . S
N1001 C1005 1.279 . S
C1002 C1000 1.348 . S
C1002 C1004 1.353 . S
C1002 H1044 0.929 . S
C1003 C1000 1.356 . S
C1003 C1005 1.358 . S
C1003 H1045 0.930 . S
C1004 N1001 1.314 . S
C1004 C1002 1.353 . S
C1004 H1046 0.930 . S
C1005 N1001 1.279 . S
C1005 C1003 1.358 . S
C1005 H1047 0.930 . S
C1006 C1007 1.348 . S
C1006 C1008 1.356 . S
C1006 O1031 1.325 . S
C1007 C1006 1.348 . S
C1007 C1009 1.353 . S
C1007 H1048 0.929 . S
C1008 C1006 1.356 . S
C1008 C1010 1.358 . S
C1008 H1049 0.930 . S
C1009 C1007 1.353 . S
C1009 N1011 1.314 . S
C1009 H1050 0.930 . S
C1010 C1008 1.358 . S
C1010 N1011 1.279 . S
C1010 H1051 0.930 . S
N1011 C1009 1.314 . S
N1011 C1010 1.279 . S
C1012 C1014 1.353 . S
C1012 N1015 1.314 . S
C1012 H1018 0.930 . S
C1013 N1015 1.279 . S
C1013 C1016 1.358 . S
C1013 H1019 0.930 . S
C1014 C1012 1.353 . S
C1014 C1017 1.348 . S
C1014 H1052 0.929 . S
N1015 Li970 1.990 . S
N1015 C1012 1.314 . S
N1015 C1013 1.279 . S
C1016 C1013 1.358 . S
C1016 C1017 1.356 . S
C1016 H1053 0.930 . S
C1017 C1014 1.348 . S
C1017 C1016 1.356 . S
H1018 C1012 0.930 . S
H1019 C1013 0.930 . S
C1020 N1021 1.314 . S
C1020 C1022 1.353 . S
C1020 H1026 0.930 . S
N1021 Li971 1.990 . S
N1021 C1020 1.314 . S
N1021 C1024 1.279 . S
C1022 C1020 1.353 . S
C1022 C1025 1.348 . S
C1022 H1054 0.929 . S
C1023 C1024 1.358 . S
C1023 C1025 1.356 . S
C1023 H1055 0.930 . S
C1024 N1021 1.279 . S
C1024 C1023 1.358 . S
C1024 H1027 0.930 . S
C1025 C1022 1.348 . S
C1025 C1023 1.356 . S
H1026 C1020 0.930 . S
H1027 C1024 0.930 . S
O1028 Li968 1.956 . S
O1028 Li969 1.970 . S
O1028 Li970 1.961 . S
O1028 C972 1.325 . S
O1029 Li968 1.970 . S
O1029 Li969 1.956 . S
O1029 Li971 1.961 . S
O1029 C978 1.325 . S
O1030 Li968 1.961 . S
O1030 Li970 1.956 . S
O1030 Li971 1.970 . S
O1030 C1000 1.325 . S
O1031 Li969 1.961 . S
O1031 Li970 1.970 . S
O1031 Li971 1.956 . S
O1031 C1006 1.325 . S
H1032 C974 0.929 . S
H1033 C975 0.930 . S
H1034 C976 0.930 . S
H1035 C977 0.930 . S
H1036 C979 0.930 . S
H1037 C981 0.929 . S
H1038 C982 0.930 . S
H1039 C983 0.930 . S
H1040 C986 0.930 . S
H1041 C989 0.929 . S
H1042 C994 0.929 . S
H1043 C995 0.930 . S
H1044 C1002 0.929 . S
H1045 C1003 0.930 . S
H1046 C1004 0.930 . S
H1047 C1005 0.930 . S
H1048 C1007 0.929 . S
H1049 C1008 0.930 . S
H1050 C1009 0.930 . S
H1051 C1010 0.930 . S
H1052 C1014 0.929 . S
H1053 C1016 0.930 . S
H1054 C1022 0.929 . S
H1055 C1023 0.930 . S
Li1056 N1073 1.990 . S
Li1056 O1116 1.956 . S
Li1056 O1117 1.970 . S
Li1056 O1118 1.961 . S
Li1057 N1081 1.990 1_655 S
Li1057 O1116 1.970 . S
Li1057 O1117 1.956 . S
Li1057 O1119 1.961 . S
Li1058 N1103 1.990 . S
Li1058 O1116 1.961 . S
Li1058 O1118 1.956 . S
Li1058 O1119 1.970 . S
Li1059 N1109 1.990 . S
Li1059 O1117 1.961 . S
Li1059 O1118 1.970 . S
Li1059 O1119 1.956 . S
C1060 C1062 1.310 1_655 S
C1060 C1063 1.356 . S
C1060 O1116 1.325 . S
N1061 C1064 1.314 . S
N1061 C1065 1.279 1_455 S
C1062 C1060 1.310 1_455 S
C1062 C1064 1.372 . S
C1062 H1120 0.950 . S
C1063 C1060 1.356 . S
C1063 C1065 1.358 . S
C1063 H1121 0.930 . S
C1064 N1061 1.314 . S
C1064 C1062 1.372 . S
C1064 H1122 0.930 . S
C1065 N1061 1.279 1_655 S
C1065 C1063 1.358 . S
C1065 H1123 0.930 . S
C1066 C1069 1.348 . S
C1066 C1070 1.356 . S
C1066 O1117 1.325 . S
C1067 N1068 1.279 . S
C1067 C1070 1.358 . S
C1067 H1124 0.930 . S
N1068 C1067 1.279 . S
N1068 C1071 1.314 . S
C1069 C1066 1.348 . S
C1069 C1071 1.353 . S
C1069 H1125 0.929 . S
C1070 C1066 1.356 . S
C1070 C1067 1.358 . S
C1070 H1126 0.930 . S
C1071 N1068 1.314 . S
C1071 C1069 1.353 . S
C1071 H1127 0.930 . S
C1072 N1073 1.314 . S
C1072 C1077 1.353 . S
C1072 H1078 0.930 . S
N1073 Li1056 1.990 . S
N1073 C1072 1.314 . S
N1073 C1075 1.279 . S
C1074 C1075 1.358 . S
C1074 C1076 1.356 . S
C1074 H1128 0.930 . S
C1075 N1073 1.279 . S
C1075 C1074 1.358 . S
C1075 H1079 0.930 . S
C1076 C1074 1.356 . S
C1076 C1077 1.348 . S
C1077 C1072 1.353 . S
C1077 C1076 1.348 . S
C1077 H1129 0.929 . S
H1078 C1072 0.930 . S
H1079 C1075 0.930 . S
C1080 N1081 1.314 . S
C1080 C1082 1.353 . S
C1080 H1086 0.930 . S
N1081 Li1057 1.990 1_455 S
N1081 C1080 1.314 . S
N1081 C1084 1.279 . S
C1082 C1080 1.353 . S
C1082 C1085 1.348 . S
C1082 H1130 0.929 . S
C1083 C1084 1.358 . S
C1083 C1085 1.356 . S
C1083 H1131 0.930 . S
C1084 N1081 1.279 . S
C1084 C1083 1.358 . S
C1084 H1087 0.930 . S
C1085 C1082 1.348 . S
C1085 C1083 1.356 . S
H1086 C1080 0.930 . S
H1087 C1084 0.930 . S
C1088 C1090 1.348 . S
C1088 C1091 1.356 . S
C1088 O1118 1.325 . S
N1089 C1092 1.314 . S
N1089 C1093 1.279 . S
C1090 C1088 1.348 . S
C1090 C1092 1.353 . S
C1090 H1132 0.929 . S
C1091 C1088 1.356 . S
C1091 C1093 1.358 . S
C1091 H1133 0.930 . S
C1092 N1089 1.314 . S
C1092 C1090 1.353 . S
C1092 H1134 0.930 . S
C1093 N1089 1.279 . S
C1093 C1091 1.358 . S
C1093 H1135 0.930 . S
C1094 C1095 1.348 . S
C1094 C1096 1.356 1_655 S
C1094 O1119 1.325 . S
C1095 C1094 1.348 . S
C1095 C1097 1.368 1_655 S
C1095 H1136 0.929 . S
C1096 C1094 1.356 1_455 S
C1096 C1098 1.358 . S
C1096 H1137 0.930 . S
C1097 C1095 1.368 1_455 S
C1097 N1099 1.307 1_554 S
C1097 H1138 0.921 1_554 S
C1098 C1096 1.358 . S
C1098 N1099 1.279 1_554 S
C1098 H1139 0.930 1_554 S
N1099 C1097 1.307 1_556 S
N1099 C1098 1.279 1_556 S
C1100 C1102 1.353 . S
C1100 N1103 1.314 . S
C1100 H1106 0.930 . S
C1101 N1103 1.279 . S
C1101 C1104 1.358 . S
C1101 H1107 0.930 . S
C1102 C1100 1.353 . S
C1102 C1105 1.348 . S
C1102 H1140 0.929 1_655 S
N1103 Li1058 1.990 . S
N1103 C1100 1.314 . S
N1103 C1101 1.279 . S
C1104 C1101 1.358 . S
C1104 C1105 1.356 . S
C1104 H1141 0.930 . S
C1105 C1102 1.348 . S
C1105 C1104 1.356 . S
H1106 C1100 0.930 . S
H1107 C1101 0.930 . S
C1108 N1109 1.314 . S
C1108 C1110 1.353 . S
C1108 H1114 0.930 . S
N1109 Li1059 1.990 . S
N1109 C1108 1.314 . S
N1109 C1112 1.279 . S
C1110 C1108 1.353 . S
C1110 C1113 1.348 1_554 S
C1110 H1142 0.929 . S
C1111 C1112 1.358 1_556 S
C1111 C1113 1.356 . S
C1111 H1143 0.930 . S
C1112 N1109 1.279 . S
C1112 C1111 1.358 1_554 S
C1112 H1115 0.930 1_554 S
C1113 C1110 1.348 1_556 S
C1113 C1111 1.356 . S
H1114 C1108 0.930 . S
H1115 C1112 0.930 1_556 S
O1116 Li1056 1.956 . S
O1116 Li1057 1.970 . S
O1116 Li1058 1.961 . S
O1116 C1060 1.325 . S
O1117 Li1056 1.970 . S
O1117 Li1057 1.956 . S
O1117 Li1059 1.961 . S
O1117 C1066 1.325 . S
O1118 Li1056 1.961 . S
O1118 Li1058 1.956 . S
O1118 Li1059 1.970 . S
O1118 C1088 1.325 . S
O1119 Li1057 1.961 . S
O1119 Li1058 1.970 . S
O1119 Li1059 1.956 . S
O1119 C1094 1.325 . S
H1120 C1062 0.950 . S
H1121 C1063 0.930 . S
H1122 C1064 0.930 . S
H1123 C1065 0.930 . S
H1124 C1067 0.930 . S
H1125 C1069 0.929 . S
H1126 C1070 0.930 . S
H1127 C1071 0.930 . S
H1128 C1074 0.930 . S
H1129 C1077 0.929 . S
H1130 C1082 0.929 . S
H1131 C1083 0.930 . S
H1132 C1090 0.929 . S
H1133 C1091 0.930 . S
H1134 C1092 0.930 . S
H1135 C1093 0.930 . S
H1136 C1095 0.929 . S
H1137 C1096 0.930 . S
H1138 C1097 0.921 1_556 S
H1139 C1098 0.930 1_556 S
H1140 C1102 0.929 1_455 S
H1141 C1104 0.930 . S
H1142 C1110 0.929 . S
H1143 C1111 0.930 . S
Li1144 N1161 1.990 1_565 S
Li1144 O1204 1.956 . S
Li1144 O1205 1.970 . S
Li1144 O1206 1.961 . S
Li1145 N1169 1.990 . S
Li1145 O1204 1.970 . S
Li1145 O1205 1.956 . S
Li1145 O1207 1.961 . S
Li1146 N1191 1.990 . S
Li1146 O1204 1.961 . S
Li1146 O1206 1.956 . S
Li1146 O1207 1.970 . S
Li1147 N1197 1.990 . S
Li1147 O1205 1.961 . S
Li1147 O1206 1.970 . S
Li1147 O1207 1.956 . S
C1148 C1150 1.348 . S
C1148 C1151 1.356 . S
C1148 O1204 1.325 . S
N1149 C1152 1.314 . S
N1149 C1153 1.279 . S
C1150 C1148 1.348 . S
C1150 C1152 1.353 . S
C1150 H1208 0.929 . S
C1151 C1148 1.356 . S
C1151 C1153 1.358 . S
C1151 H1209 0.930 . S
C1152 N1149 1.314 . S
C1152 C1150 1.353 . S
C1152 H1210 0.930 . S
C1153 N1149 1.279 . S
C1153 C1151 1.358 . S
C1153 H1211 0.930 . S
C1154 C1157 1.310 1_565 S
C1154 C1158 1.356 . S
C1154 O1205 1.325 . S
C1155 N1156 1.279 1_565 S
C1155 C1158 1.358 . S
C1155 H1212 0.930 . S
N1156 C1155 1.279 1_545 S
N1156 C1159 1.314 . S
C1157 C1154 1.310 1_545 S
C1157 C1159 1.372 . S
C1157 H1213 0.950 . S
C1158 C1154 1.356 . S
C1158 C1155 1.358 . S
C1158 H1214 0.930 . S
C1159 N1156 1.314 . S
C1159 C1157 1.372 . S
C1159 H1215 0.930 . S
C1160 N1161 1.314 . S
C1160 C1165 1.353 . S
C1160 H1166 0.930 . S
N1161 Li1144 1.990 1_545 S
N1161 C1160 1.314 . S
N1161 C1163 1.279 . S
C1162 C1163 1.358 . S
C1162 C1164 1.356 . S
C1162 H1216 0.930 . S
C1163 N1161 1.279 . S
C1163 C1162 1.358 . S
C1163 H1167 0.930 . S
C1164 C1162 1.356 . S
C1164 C1165 1.348 . S
C1165 C1160 1.353 . S
C1165 C1164 1.348 . S
C1165 H1217 0.929 . S
H1166 C1160 0.930 . S
H1167 C1163 0.930 . S
C1168 N1169 1.314 . S
C1168 C1170 1.353 . S
C1168 H1174 0.930 . S
N1169 Li1145 1.990 . S
N1169 C1168 1.314 . S
N1169 C1172 1.279 . S
C1170 C1168 1.353 . S
C1170 C1173 1.348 . S
C1170 H1218 0.929 . S
C1171 C1172 1.358 . S
C1171 C1173 1.356 . S
C1171 H1219 0.930 . S
C1172 N1169 1.279 . S
C1172 C1171 1.358 . S
C1172 H1175 0.930 . S
C1173 C1170 1.348 . S
C1173 C1171 1.356 . S
H1174 C1168 0.930 . S
H1175 C1172 0.930 . S
C1176 C1178 1.348 . S
C1176 C1179 1.356 1_565 S
C1176 O1206 1.325 . S
N1177 C1180 1.314 . S
N1177 C1181 1.279 . S
C1178 C1176 1.348 . S
C1178 C1180 1.353 1_565 S
C1178 H1220 0.929 . S
C1179 C1176 1.356 1_545 S
C1179 C1181 1.358 . S
C1179 H1221 0.930 . S
C1180 N1177 1.314 . S
C1180 C1178 1.353 1_545 S
C1180 H1222 0.930 . S
C1181 N1177 1.279 . S
C1181 C1179 1.358 . S
C1181 H1223 0.930 . S
C1182 C1183 1.348 . S
C1182 C1184 1.356 . S
C1182 O1207 1.325 . S
C1183 C1182 1.348 . S
C1183 C1185 1.353 . S
C1183 H1224 0.929 . S
C1184 C1182 1.356 . S
C1184 C1186 1.358 . S
C1184 H1225 0.930 . S
C1185 C1183 1.353 . S
C1185 N1187 1.314 . S
C1185 H1226 0.930 . S
C1186 C1184 1.358 . S
C1186 N1187 1.279 . S
C1186 H1227 0.930 . S
N1187 C1185 1.314 . S
N1187 C1186 1.279 . S
C1188 C1190 1.353 . S
C1188 N1191 1.314 . S
C1188 H1194 0.930 . S
C1189 N1191 1.279 . S
C1189 C1192 1.358 . S
C1189 H1195 0.930 . S
C1190 C1188 1.353 . S
C1190 C1193 1.348 . S
C1190 H1228 0.929 . S
N1191 Li1146 1.990 . S
N1191 C1188 1.314 . S
N1191 C1189 1.279 . S
C1192 C1189 1.358 . S
C1192 C1193 1.356 . S
C1192 H1229 0.930 . S
C1193 C1190 1.348 . S
C1193 C1192 1.356 . S
H1194 C1188 0.930 . S
H1195 C1189 0.930 . S
C1196 N1197 1.314 . S
C1196 C1198 1.353 . S
C1196 H1202 0.930 . S
N1197 Li1147 1.990 . S
N1197 C1196 1.314 . S
N1197 C1200 1.279 . S
C1198 C1196 1.353 . S
C1198 C1201 1.348 . S
C1198 H1230 0.929 1_565 S
C1199 C1200 1.358 . S
C1199 C1201 1.356 . S
C1199 H1231 0.930 . S
C1200 N1197 1.279 . S
C1200 C1199 1.358 . S
C1200 H1203 0.930 . S
C1201 C1198 1.348 . S
C1201 C1199 1.356 . S
H1202 C1196 0.930 . S
H1203 C1200 0.930 . S
O1204 Li1144 1.956 . S
O1204 Li1145 1.970 . S
O1204 Li1146 1.961 . S
O1204 C1148 1.325 . S
O1205 Li1144 1.970 . S
O1205 Li1145 1.956 . S
O1205 Li1147 1.961 . S
O1205 C1154 1.325 . S
O1206 Li1144 1.961 . S
O1206 Li1146 1.956 . S
O1206 Li1147 1.970 . S
O1206 C1176 1.325 . S
O1207 Li1145 1.961 . S
O1207 Li1146 1.970 . S
O1207 Li1147 1.956 . S
O1207 C1182 1.325 . S
H1208 C1150 0.929 . S
H1209 C1151 0.930 . S
H1210 C1152 0.930 . S
H1211 C1153 0.930 . S
H1212 C1155 0.930 . S
H1213 C1157 0.950 . S
H1214 C1158 0.930 . S
H1215 C1159 0.930 . S
H1216 C1162 0.930 . S
H1217 C1165 0.929 . S
H1218 C1170 0.929 . S
H1219 C1171 0.930 . S
H1220 C1178 0.929 . S
H1221 C1179 0.930 . S
H1222 C1180 0.930 . S
H1223 C1181 0.930 . S
H1224 C1183 0.929 . S
H1225 C1184 0.930 . S
H1226 C1185 0.930 . S
H1227 C1186 0.930 . S
H1228 C1190 0.929 . S
H1229 C1192 0.930 . S
H1230 C1198 0.929 1_545 S
H1231 C1199 0.930 . S
Li1232 N1249 1.990 . S
Li1232 O1292 1.956 . S
Li1232 O1293 1.970 . S
Li1232 O1294 1.961 . S
Li1233 N1257 1.990 . S
Li1233 O1292 1.970 . S
Li1233 O1293 1.956 . S
Li1233 O1295 1.961 . S
Li1234 N1279 1.990 . S
Li1234 O1292 1.961 . S
Li1234 O1294 1.956 . S
Li1234 O1295 1.970 . S
Li1235 N1285 1.990 . S
Li1235 O1293 1.961 . S
Li1235 O1294 1.970 . S
Li1235 O1295 1.956 . S
C1236 C1238 1.348 . S
C1236 C1239 1.356 . S
C1236 O1292 1.325 . S
N1237 C1240 1.314 . S
N1237 C1241 1.279 . S
C1238 C1236 1.348 . S
C1238 C1240 1.353 . S
C1238 H1296 0.929 . S
C1239 C1236 1.356 . S
C1239 C1241 1.358 . S
C1239 H1297 0.930 . S
C1240 N1237 1.314 . S
C1240 C1238 1.353 . S
C1240 H1298 0.930 . S
C1241 N1237 1.279 . S
C1241 C1239 1.358 . S
C1241 H1299 0.930 . S
C1242 C1245 1.348 . S
C1242 C1246 1.356 . S
C1242 O1293 1.325 . S
C1243 N1244 1.279 . S
C1243 C1246 1.358 . S
C1243 H1300 0.930 . S
N1244 C1243 1.279 . S
N1244 C1247 1.314 . S
C1245 C1242 1.348 . S
C1245 C1247 1.353 . S
C1245 H1301 0.929 . S
C1246 C1242 1.356 . S
C1246 C1243 1.358 . S
C1246 H1302 0.930 . S
C1247 N1244 1.314 . S
C1247 C1245 1.353 . S
C1247 H1303 0.930 . S
C1248 N1249 1.314 . S
C1248 C1253 1.353 . S
C1248 H1254 0.930 . S
N1249 Li1232 1.990 . S
N1249 C1248 1.314 . S
N1249 C1251 1.279 . S
C1250 C1251 1.358 . S
C1250 C1252 1.356 . S
C1250 H1304 0.930 . S
C1251 N1249 1.279 . S
C1251 C1250 1.358 . S
C1251 H1255 0.930 . S
C1252 C1250 1.356 . S
C1252 C1253 1.348 . S
C1253 C1248 1.353 . S
C1253 C1252 1.348 . S
C1253 H1305 0.929 . S
H1254 C1248 0.930 . S
H1255 C1251 0.930 . S
C1256 N1257 1.314 . S
C1256 C1258 1.353 . S
C1256 H1262 0.930 . S
N1257 Li1233 1.990 . S
N1257 C1256 1.314 . S
N1257 C1260 1.279 . S
C1258 C1256 1.353 . S
C1258 C1261 1.348 . S
C1258 H1306 0.929 . S
C1259 C1260 1.358 . S
C1259 C1261 1.356 . S
C1259 H1307 0.930 . S
C1260 N1257 1.279 . S
C1260 C1259 1.358 . S
C1260 H1263 0.930 . S
C1261 C1258 1.348 . S
C1261 C1259 1.356 . S
H1262 C1256 0.930 . S
H1263 C1260 0.930 . S
C1264 C1266 1.348 . S
C1264 C1267 1.356 . S
C1264 O1294 1.325 . S
N1265 C1268 1.306 1_556 S
N1265 C1269 1.279 1_556 S
C1266 C1264 1.348 . S
C1266 C1268 1.369 . S
C1266 H1308 0.929 . S
C1267 C1264 1.356 . S
C1267 C1269 1.358 . S
C1267 H1309 0.930 . S
C1268 N1265 1.306 1_554 S
C1268 C1266 1.369 . S
C1268 H1310 0.920 1_554 S
C1269 N1265 1.279 1_554 S
C1269 C1267 1.358 . S
C1269 H1311 0.930 1_554 S
C1270 C1271 1.348 . S
C1270 C1272 1.356 . S
C1270 O1295 1.325 . S
C1271 C1270 1.348 . S
C1271 C1273 1.353 . S
C1271 H1312 0.929 . S
C1272 C1270 1.356 . S
C1272 C1274 1.358 . S
C1272 H1313 0.930 . S
C1273 C1271 1.353 . S
C1273 N1275 1.314 . S
C1273 H1314 0.930 . S
C1274 C1272 1.358 . S
C1274 N1275 1.279 . S
C1274 H1315 0.930 . S
N1275 C1273 1.314 . S
N1275 C1274 1.279 . S
C1276 C1278 1.353 . S
C1276 N1279 1.314 . S
C1276 H1282 0.930 . S
C1277 N1279 1.279 . S
C1277 C1280 1.358 1_554 S
C1277 H1283 0.930 1_554 S
C1278 C1276 1.353 . S
C1278 C1281 1.348 1_554 S
C1278 H1316 0.929 . S
N1279 Li1234 1.990 . S
N1279 C1276 1.314 . S
N1279 C1277 1.279 . S
C1280 C1277 1.358 1_556 S
C1280 C1281 1.356 . S
C1280 H1317 0.930 . S
C1281 C1278 1.348 1_556 S
C1281 C1280 1.356 . S
H1282 C1276 0.930 . S
H1283 C1277 0.930 1_556 S
C1284 N1285 1.314 . S
C1284 C1286 1.353 . S
C1284 H1290 0.930 . S
N1285 Li1235 1.990 . S
N1285 C1284 1.314 . S
N1285 C1288 1.279 . S
C1286 C1284 1.353 . S
C1286 C1289 1.348 . S
C1286 H1318 0.929 . S
C1287 C1288 1.358 . S
C1287 C1289 1.356 . S
C1287 H1319 0.930 . S
C1288 N1285 1.279 . S
C1288 C1287 1.358 . S
C1288 H1291 0.930 . S
C1289 C1286 1.348 . S
C1289 C1287 1.356 . S
H1290 C1284 0.930 . S
H1291 C1288 0.930 . S
O1292 Li1232 1.956 . S
O1292 Li1233 1.970 . S
O1292 Li1234 1.961 . S
O1292 C1236 1.325 . S
O1293 Li1232 1.970 . S
O1293 Li1233 1.956 . S
O1293 Li1235 1.961 . S
O1293 C1242 1.325 . S
O1294 Li1232 1.961 . S
O1294 Li1234 1.956 . S
O1294 Li1235 1.970 . S
O1294 C1264 1.325 . S
O1295 Li1233 1.961 . S
O1295 Li1234 1.970 . S
O1295 Li1235 1.956 . S
O1295 C1270 1.325 . S
H1296 C1238 0.929 . S
H1297 C1239 0.930 . S
H1298 C1240 0.930 . S
H1299 C1241 0.930 . S
H1300 C1243 0.930 . S
H1301 C1245 0.929 . S
H1302 C1246 0.930 . S
H1303 C1247 0.930 . S
H1304 C1250 0.930 . S
H1305 C1253 0.929 . S
H1306 C1258 0.929 . S
H1307 C1259 0.930 . S
H1308 C1266 0.929 . S
H1309 C1267 0.930 . S
H1310 C1268 0.920 1_556 S
H1311 C1269 0.930 1_556 S
H1312 C1271 0.929 . S
H1313 C1272 0.930 . S
H1314 C1273 0.930 . S
H1315 C1274 0.930 . S
H1316 C1278 0.929 . S
H1317 C1280 0.930 . S
H1318 C1286 0.929 . S
H1319 C1287 0.930 . S
Li1320 N1337 1.990 . S
Li1320 O1380 1.956 . S
Li1320 O1381 1.970 . S
Li1320 O1382 1.961 . S
Li1321 N1345 1.990 . S
Li1321 O1380 1.970 . S
Li1321 O1381 1.956 . S
Li1321 O1383 1.961 . S
Li1322 N1367 1.990 . S
Li1322 O1380 1.961 . S
Li1322 O1382 1.956 . S
Li1322 O1383 1.970 . S
Li1323 N1373 1.990 . S
Li1323 O1381 1.961 . S
Li1323 O1382 1.970 . S
Li1323 O1383 1.956 . S
C1324 C1326 1.348 . S
C1324 C1327 1.356 . S
C1324 O1380 1.325 . S
N1325 C1328 1.314 . S
N1325 C1329 1.279 . S
C1326 C1324 1.348 . S
C1326 C1328 1.353 . S
C1326 H1384 0.929 . S
C1327 C1324 1.356 . S
C1327 C1329 1.358 . S
C1327 H1385 0.930 . S
C1328 N1325 1.314 . S
C1328 C1326 1.353 . S
C1328 H1386 0.930 . S
C1329 N1325 1.279 . S
C1329 C1327 1.358 . S
C1329 H1387 0.930 . S
C1330 C1333 1.348 . S
C1330 C1334 1.356 . S
C1330 O1381 1.325 . S
C1331 N1332 1.279 . S
C1331 C1334 1.358 . S
C1331 H1388 0.930 . S
N1332 C1331 1.279 . S
N1332 C1335 1.314 . S
C1333 C1330 1.348 . S
C1333 C1335 1.353 . S
C1333 H1389 0.929 . S
C1334 C1330 1.356 . S
C1334 C1331 1.358 . S
C1334 H1390 0.930 . S
C1335 N1332 1.314 . S
C1335 C1333 1.353 . S
C1335 H1391 0.930 . S
C1336 N1337 1.314 . S
C1336 C1341 1.353 . S
C1336 H1342 0.930 . S
N1337 Li1320 1.990 . S
N1337 C1336 1.314 . S
N1337 C1339 1.279 . S
C1338 C1339 1.358 . S
C1338 C1340 1.356 . S
C1338 H1392 0.930 . S
C1339 N1337 1.279 . S
C1339 C1338 1.358 . S
C1339 H1343 0.930 . S
C1340 C1338 1.356 . S
C1340 C1341 1.348 . S
C1341 C1336 1.353 . S
C1341 C1340 1.348 . S
C1341 H1393 0.929 . S
H1342 C1336 0.930 . S
H1343 C1339 0.930 . S
C1344 N1345 1.314 . S
C1344 C1346 1.353 . S
C1344 H1350 0.930 . S
N1345 Li1321 1.990 . S
N1345 C1344 1.314 . S
N1345 C1348 1.279 . S
C1346 C1344 1.353 . S
C1346 C1349 1.348 . S
C1346 H1394 0.929 . S
C1347 C1348 1.358 . S
C1347 C1349 1.356 . S
C1347 H1395 0.930 . S
C1348 N1345 1.279 . S
C1348 C1347 1.358 . S
C1348 H1351 0.930 . S
C1349 C1346 1.348 . S
C1349 C1347 1.356 . S
H1350 C1344 0.930 . S
H1351 C1348 0.930 . S
C1352 C1354 1.348 . S
C1352 C1355 1.356 . S
C1352 O1382 1.325 . S
N1353 C1356 1.314 . S
N1353 C1357 1.279 . S
C1354 C1352 1.348 . S
C1354 C1356 1.353 . S
C1354 H1396 0.929 . S
C1355 C1352 1.356 . S
C1355 C1357 1.358 . S
C1355 H1397 0.930 . S
C1356 N1353 1.314 . S
C1356 C1354 1.353 . S
C1356 H1398 0.930 . S
C1357 N1353 1.279 . S
C1357 C1355 1.358 . S
C1357 H1399 0.930 . S
C1358 C1359 1.348 . S
C1358 C1360 1.356 . S
C1358 O1383 1.325 . S
C1359 C1358 1.348 . S
C1359 C1361 1.353 . S
C1359 H1400 0.929 . S
C1360 C1358 1.356 . S
C1360 C1362 1.358 . S
C1360 H1401 0.930 . S
C1361 C1359 1.353 . S
C1361 N1363 1.314 . S
C1361 H1402 0.930 . S
C1362 C1360 1.358 . S
C1362 N1363 1.279 . S
C1362 H1403 0.930 . S
N1363 C1361 1.314 . S
N1363 C1362 1.279 . S
C1364 C1366 1.353 . S
C1364 N1367 1.314 . S
C1364 H1370 0.930 . S
C1365 N1367 1.279 . S
C1365 C1368 1.358 . S
C1365 H1371 0.930 . S
C1366 C1364 1.353 . S
C1366 C1369 1.348 . S
C1366 H1404 0.929 . S
N1367 Li1322 1.990 . S
N1367 C1364 1.314 . S
N1367 C1365 1.279 . S
C1368 C1365 1.358 . S
C1368 C1369 1.356 . S
C1368 H1405 0.930 . S
C1369 C1366 1.348 . S
C1369 C1368 1.356 . S
H1370 C1364 0.930 . S
H1371 C1365 0.930 . S
C1372 N1373 1.314 . S
C1372 C1374 1.353 . S
C1372 H1378 0.930 . S
N1373 Li1323 1.990 . S
N1373 C1372 1.314 . S
N1373 C1376 1.279 . S
C1374 C1372 1.353 . S
C1374 C1377 1.348 . S
C1374 H1406 0.929 . S
C1375 C1376 1.358 . S
C1375 C1377 1.356 . S
C1375 H1407 0.930 . S
C1376 N1373 1.279 . S
C1376 C1375 1.358 . S
C1376 H1379 0.930 . S
C1377 C1374 1.348 . S
C1377 C1375 1.356 . S
H1378 C1372 0.930 . S
H1379 C1376 0.930 . S
O1380 Li1320 1.956 . S
O1380 Li1321 1.970 . S
O1380 Li1322 1.961 . S
O1380 C1324 1.325 . S
O1381 Li1320 1.970 . S
O1381 Li1321 1.956 . S
O1381 Li1323 1.961 . S
O1381 C1330 1.325 . S
O1382 Li1320 1.961 . S
O1382 Li1322 1.956 . S
O1382 Li1323 1.970 . S
O1382 C1352 1.325 . S
O1383 Li1321 1.961 . S
O1383 Li1322 1.970 . S
O1383 Li1323 1.956 . S
O1383 C1358 1.325 . S
H1384 C1326 0.929 . S
H1385 C1327 0.930 . S
H1386 C1328 0.930 . S
H1387 C1329 0.930 . S
H1388 C1331 0.930 . S
H1389 C1333 0.929 . S
H1390 C1334 0.930 . S
H1391 C1335 0.930 . S
H1392 C1338 0.930 . S
H1393 C1341 0.929 . S
H1394 C1346 0.929 . S
H1395 C1347 0.930 . S
H1396 C1354 0.929 . S
H1397 C1355 0.930 . S
H1398 C1356 0.930 . S
H1399 C1357 0.930 . S
H1400 C1359 0.929 . S
H1401 C1360 0.930 . S
H1402 C1361 0.930 . S
H1403 C1362 0.930 . S
H1404 C1366 0.929 . S
H1405 C1368 0.930 . S
H1406 C1374 0.929 . S
H1407 C1375 0.930 . S
C1408 C1409 1.391 . S
C1408 C1410 1.394 . S
C1408 H1424 0.931 . S
C1409 C1408 1.391 . S
C1409 C1413 1.376 . S
C1410 C1408 1.394 . S
C1410 C1411 1.369 . S
C1410 C1414 1.531 1_554 S
C1411 C1410 1.369 . S
C1411 C1412 1.410 . S
C1411 C1419 1.503 1_554 S
C1412 C1411 1.410 . S
C1412 C1413 1.392 . S
C1412 C1415 1.511 . S
C1413 C1409 1.376 . S
C1413 C1412 1.392 . S
C1413 H1425 0.929 . S
C1414 C1410 1.531 1_556 S
C1414 H1426 0.960 . S
C1414 H1427 0.962 . S
C1414 H1428 0.960 . S
C1415 C1412 1.511 . S
C1415 H1429 0.961 . S
C1415 H1430 0.961 . S
C1415 H1431 0.961 1_455 S
C1416 C1417 1.370 . S
C1416 C1418 1.363 . S
C1416 H1432 0.931 . S
C1417 C1416 1.370 . S
C1417 C1421 1.403 . S
C1418 C1416 1.363 . S
C1418 C1419 1.370 . S
C1418 C1422 1.524 . S
C1419 C1411 1.503 1_556 S
C1419 C1418 1.370 . S
C1419 C1420 1.350 1_455 S
C1420 C1419 1.350 1_655 S
C1420 C1421 1.402 1_655 S
C1420 C1423 1.597 . S
C1421 C1417 1.403 . S
C1421 C1420 1.402 1_455 S
C1421 H1433 0.935 1_455 S
C1422 C1418 1.524 . S
C1422 H1434 0.956 . S
C1422 H1435 0.961 1_556 S
C1422 H1436 0.961 . S
C1423 C1420 1.597 . S
C1423 H1437 0.958 . S
C1423 H1438 0.961 . S
C1423 H1439 0.960 1_556 S
H1424 C1408 0.931 . S
H1425 C1413 0.929 . S
H1426 C1414 0.960 . S
H1427 C1414 0.962 . S
H1428 C1414 0.960 . S
H1429 C1415 0.961 . S
H1430 C1415 0.961 . S
H1431 C1415 0.961 1_655 S
H1432 C1416 0.931 . S
H1433 C1421 0.935 1_655 S
H1434 C1422 0.956 . S
H1435 C1422 0.961 1_554 S
H1436 C1422 0.961 . S
H1437 C1423 0.958 . S
H1438 C1423 0.961 . S
H1439 C1423 0.960 1_554 S
C1440 C1441 1.391 . S
C1440 C1442 1.394 . S
C1440 H1456 0.931 . S
C1441 C1440 1.391 . S
C1441 C1445 1.376 . S
C1442 C1440 1.394 . S
C1442 C1443 1.369 . S
C1442 C1446 1.531 . S
C1443 C1442 1.369 . S
C1443 C1444 1.410 . S
C1443 C1451 1.503 . S
C1444 C1443 1.410 . S
C1444 C1445 1.392 . S
C1444 C1447 1.511 . S
C1445 C1441 1.376 . S
C1445 C1444 1.392 . S
C1445 H1457 0.929 . S
C1446 C1442 1.531 . S
C1446 H1458 0.992 . S
C1446 H1459 0.962 . S
C1446 H1460 0.959 . S
C1447 C1444 1.511 . S
C1447 H1461 0.961 . S
C1447 H1462 0.961 . S
C1447 H1463 0.961 . S
C1448 C1449 1.370 . S
C1448 C1450 1.363 . S
C1448 H1464 0.931 . S
C1449 C1448 1.370 . S
C1449 C1453 1.417 . S
C1450 C1448 1.363 . S
C1450 C1451 1.370 . S
C1450 C1454 1.524 . S
C1451 C1443 1.503 . S
C1451 C1450 1.370 . S
C1451 C1452 1.360 1_545 S
C1452 C1451 1.360 1_565 S
C1452 C1453 1.402 1_565 S
C1452 C1455 1.585 . S
C1453 C1449 1.417 . S
C1453 C1452 1.402 1_545 S
C1453 H1465 0.922 1_545 S
C1454 C1450 1.524 . S
C1454 H1466 0.956 . S
C1454 H1467 0.961 . S
C1454 H1468 0.961 . S
C1455 C1452 1.585 . S
C1455 H1469 0.958 . S
C1455 H1470 0.961 . S
C1455 H1471 0.960 . S
H1456 C1440 0.931 . S
H1457 C1445 0.929 . S
H1458 C1446 0.992 . S
H1459 C1446 0.962 . S
H1460 C1446 0.959 . S
H1461 C1447 0.961 . S
H1462 C1447 0.961 . S
H1463 C1447 0.961 . S
H1464 C1448 0.931 . S
H1465 C1453 0.922 1_565 S
H1466 C1454 0.956 . S
H1467 C1454 0.961 . S
H1468 C1454 0.961 . S
H1469 C1455 0.958 . S
H1470 C1455 0.961 . S
H1471 C1455 0.960 . S
C1472 C1473 1.391 . S
C1472 C1474 1.394 . S
C1472 H1488 0.931 . S
C1473 C1472 1.391 . S
C1473 C1477 1.376 . S
C1474 C1472 1.394 . S
C1474 C1475 1.369 . S
C1474 C1478 1.531 1_554 S
C1475 C1474 1.369 . S
C1475 C1476 1.410 . S
C1475 C1483 1.503 1_554 S
C1476 C1475 1.410 . S
C1476 C1477 1.392 . S
C1476 C1479 1.511 . S
C1477 C1473 1.376 . S
C1477 C1476 1.392 . S
C1477 H1489 0.929 . S
C1478 C1474 1.531 1_556 S
C1478 H1490 0.960 . S
C1478 H1491 0.962 . S
C1478 H1492 0.960 . S
C1479 C1476 1.511 . S
C1479 H1493 0.961 . S
C1479 H1494 0.961 . S
C1479 H1495 0.961 . S
C1480 C1481 1.370 . S
C1480 C1482 1.363 . S
C1480 H1496 0.931 . S
C1481 C1480 1.370 . S
C1481 C1485 1.408 . S
C1482 C1480 1.363 . S
C1482 C1483 1.370 . S
C1482 C1486 1.524 1_556 S
C1483 C1475 1.503 1_556 S
C1483 C1482 1.370 . S
C1483 C1484 1.403 . S
C1484 C1483 1.403 . S
C1484 C1485 1.404 . S
C1484 C1487 1.539 . S
C1485 C1481 1.408 . S
C1485 C1484 1.404 . S
C1485 H1497 0.930 . S
C1486 C1482 1.524 1_554 S
C1486 H1498 0.956 . S
C1486 H1499 0.961 . S
C1486 H1500 0.961 . S
C1487 C1484 1.539 . S
C1487 H1501 0.958 . S
C1487 H1502 0.961 . S
C1487 H1503 0.960 . S
H1488 C1472 0.931 . S
H1489 C1477 0.929 . S
H1490 C1478 0.960 . S
H1491 C1478 0.962 . S
H1492 C1478 0.960 . S
H1493 C1479 0.961 . S
H1494 C1479 0.961 . S
H1495 C1479 0.961 . S
H1496 C1480 0.931 . S
H1497 C1485 0.930 . S
H1498 C1486 0.956 . S
H1499 C1486 0.961 . S
H1500 C1486 0.961 . S
H1501 C1487 0.958 . S
H1502 C1487 0.961 . S
H1503 C1487 0.960 . S
C1504 C1505 1.391 . S
C1504 C1506 1.394 . S
C1504 H1520 0.931 . S
C1505 C1504 1.391 . S
C1505 C1509 1.376 . S
C1506 C1504 1.394 . S
C1506 C1507 1.369 . S
C1506 C1510 1.531 . S
C1507 C1506 1.369 . S
C1507 C1508 1.410 . S
C1507 C1515 1.503 . S
C1508 C1507 1.410 . S
C1508 C1509 1.392 . S
C1508 C1511 1.511 . S
C1509 C1505 1.376 . S
C1509 C1508 1.392 . S
C1509 H1521 0.929 . S
C1510 C1506 1.531 . S
C1510 H1522 0.960 . S
C1510 H1523 0.962 . S
C1510 H1524 0.960 . S
C1511 C1508 1.511 . S
C1511 H1525 0.961 . S
C1511 H1526 0.961 . S
C1511 H1527 0.961 . S
C1512 C1513 1.370 . S
C1512 C1514 1.363 . S
C1512 H1528 0.931 . S
C1513 C1512 1.370 . S
C1513 C1517 1.408 . S
C1514 C1512 1.363 . S
C1514 C1515 1.370 . S
C1514 C1518 1.524 . S
C1515 C1507 1.503 . S
C1515 C1514 1.370 . S
C1515 C1516 1.403 . S
C1516 C1515 1.403 . S
C1516 C1517 1.404 . S
C1516 C1519 1.539 . S
C1517 C1513 1.408 . S
C1517 C1516 1.404 . S
C1517 H1529 0.930 . S
C1518 C1514 1.524 . S
C1518 H1530 0.956 . S
C1518 H1531 0.961 . S
C1518 H1532 0.961 . S
C1519 C1516 1.539 . S
C1519 H1533 0.958 . S
C1519 H1534 0.961 . S
C1519 H1535 0.960 . S
H1520 C1504 0.931 . S
H1521 C1509 0.929 . S
H1522 C1510 0.960 . S
H1523 C1510 0.962 . S
H1524 C1510 0.960 . S
H1525 C1511 0.961 . S
H1526 C1511 0.961 . S
H1527 C1511 0.961 . S
H1528 C1512 0.931 . S
H1529 C1517 0.930 . S
H1530 C1518 0.956 . S
H1531 C1518 0.961 . S
H1532 C1518 0.961 . S
H1533 C1519 0.958 . S
H1534 C1519 0.961 . S
H1535 C1519 0.960 . S
C1536 C1537 1.391 . S
C1536 C1538 1.394 . S
C1536 H1552 0.931 . S
C1537 C1536 1.391 . S
C1537 C1541 1.376 . S
C1538 C1536 1.394 . S
C1538 C1539 1.369 . S
C1538 C1542 1.531 1_556 S
C1539 C1538 1.369 . S
C1539 C1540 1.410 . S
C1539 C1547 1.503 1_556 S
C1540 C1539 1.410 . S
C1540 C1541 1.392 . S
C1540 C1543 1.511 1_655 S
C1541 C1537 1.376 . S
C1541 C1540 1.392 . S
C1541 H1553 0.929 1_655 S
C1542 C1538 1.531 1_554 S
C1542 H1554 0.960 . S
C1542 H1555 0.962 . S
C1542 H1556 0.960 1_554 S
C1543 C1540 1.511 1_455 S
C1543 H1557 0.961 . S
C1543 H1558 0.961 . S
C1543 H1559 0.961 . S
C1544 C1545 1.370 . S
C1544 C1546 1.363 . S
C1544 H1560 0.931 . S
C1545 C1544 1.370 . S
C1545 C1549 1.408 . S
C1546 C1544 1.363 . S
C1546 C1547 1.370 . S
C1546 C1550 1.524 . S
C1547 C1539 1.503 1_554 S
C1547 C1546 1.370 . S
C1547 C1548 1.403 . S
C1548 C1547 1.403 . S
C1548 C1549 1.404 . S
C1548 C1551 1.539 1_554 S
C1549 C1545 1.408 . S
C1549 C1548 1.404 . S
C1549 H1561 0.930 . S
C1550 C1546 1.524 . S
C1550 H1562 0.956 . S
C1550 H1563 0.961 1_655 S
C1550 H1564 0.961 1_655 S
C1551 C1548 1.539 1_556 S
C1551 H1565 0.958 . S
C1551 H1566 0.961 . S
C1551 H1567 0.960 . S
H1552 C1536 0.931 . S
H1553 C1541 0.929 1_455 S
H1554 C1542 0.960 . S
H1555 C1542 0.962 . S
H1556 C1542 0.960 1_556 S
H1557 C1543 0.961 . S
H1558 C1543 0.961 . S
H1559 C1543 0.961 . S
H1560 C1544 0.931 . S
H1561 C1549 0.930 . S
H1562 C1550 0.956 . S
H1563 C1550 0.961 1_455 S
H1564 C1550 0.961 1_455 S
H1565 C1551 0.958 . S
H1566 C1551 0.961 . S
H1567 C1551 0.960 . S
C1568 C1569 1.391 . S
C1568 C1570 1.394 . S
C1568 H1584 0.931 . S
C1569 C1568 1.391 . S
C1569 C1573 1.376 . S
C1570 C1568 1.394 . S
C1570 C1571 1.369 . S
C1570 C1574 1.531 . S
C1571 C1570 1.369 . S
C1571 C1572 1.410 . S
C1571 C1579 1.503 . S
C1572 C1571 1.410 . S
C1572 C1573 1.392 . S
C1572 C1575 1.511 . S
C1573 C1569 1.376 . S
C1573 C1572 1.392 . S
C1573 H1585 0.929 . S
C1574 C1570 1.531 . S
C1574 H1586 0.960 . S
C1574 H1587 0.962 . S
C1574 H1588 0.960 . S
C1575 C1572 1.511 . S
C1575 H1589 0.961 . S
C1575 H1590 0.961 . S
C1575 H1591 0.961 . S
C1576 C1577 1.370 . S
C1576 C1578 1.363 . S
C1576 H1592 0.931 1_565 S
C1577 C1576 1.370 . S
C1577 C1581 1.408 . S
C1578 C1576 1.363 . S
C1578 C1579 1.370 . S
C1578 C1582 1.524 1_565 S
C1579 C1571 1.503 . S
C1579 C1578 1.370 . S
C1579 C1580 1.403 . S
C1580 C1579 1.403 . S
C1580 C1581 1.404 . S
C1580 C1583 1.539 . S
C1581 C1577 1.408 . S
C1581 C1580 1.404 . S
C1581 H1593 0.930 . S
C1582 C1578 1.524 1_545 S
C1582 H1594 0.956 . S
C1582 H1595 0.961 . S
C1582 H1596 0.961 . S
C1583 C1580 1.539 . S
C1583 H1597 0.958 . S
C1583 H1598 0.961 . S
C1583 H1599 0.960 . S
H1584 C1568 0.931 . S
H1585 C1573 0.929 . S
H1586 C1574 0.960 . S
H1587 C1574 0.962 . S
H1588 C1574 0.960 . S
H1589 C1575 0.961 . S
H1590 C1575 0.961 . S
H1591 C1575 0.961 . S
H1592 C1576 0.931 1_545 S
H1593 C1581 0.930 . S
H1594 C1582 0.956 . S
H1595 C1582 0.961 . S
H1596 C1582 0.961 . S
H1597 C1583 0.958 . S
H1598 C1583 0.961 . S
H1599 C1583 0.960 . S
C1600 C1601 1.391 . S
C1600 C1602 1.394 . S
C1600 H1616 0.931 . S
C1601 C1600 1.391 . S
C1601 C1605 1.376 . S
C1602 C1600 1.394 . S
C1602 C1603 1.369 . S
C1602 C1606 1.531 . S
C1603 C1602 1.369 . S
C1603 C1604 1.410 . S
C1603 C1611 1.503 1_556 S
C1604 C1603 1.410 . S
C1604 C1605 1.392 . S
C1604 C1607 1.511 . S
C1605 C1601 1.376 . S
C1605 C1604 1.392 . S
C1605 H1617 0.929 . S
C1606 C1602 1.531 . S
C1606 H1618 0.960 . S
C1606 H1619 0.962 . S
C1606 H1620 0.960 . S
C1607 C1604 1.511 . S
C1607 H1621 0.961 . S
C1607 H1622 0.961 1_556 S
C1607 H1623 0.961 . S
C1608 C1609 1.370 . S
C1608 C1610 1.363 . S
C1608 H1624 0.931 . S
C1609 C1608 1.370 . S
C1609 C1613 1.408 . S
C1610 C1608 1.363 . S
C1610 C1611 1.370 . S
C1610 C1614 1.524 . S
C1611 C1603 1.503 1_554 S
C1611 C1610 1.370 . S
C1611 C1612 1.403 . S
C1612 C1611 1.403 . S
C1612 C1613 1.404 . S
C1612 C1615 1.539 1_554 S
C1613 C1609 1.408 . S
C1613 C1612 1.404 . S
C1613 H1625 0.930 . S
C1614 C1610 1.524 . S
C1614 H1626 0.956 . S
C1614 H1627 0.961 . S
C1614 H1628 0.961 . S
C1615 C1612 1.539 1_556 S
C1615 H1629 0.958 . S
C1615 H1630 0.961 . S
C1615 H1631 0.960 . S
H1616 C1600 0.931 . S
H1617 C1605 0.929 . S
H1618 C1606 0.960 . S
H1619 C1606 0.962 . S
H1620 C1606 0.960 . S
H1621 C1607 0.961 . S
H1622 C1607 0.961 1_554 S
H1623 C1607 0.961 . S
H1624 C1608 0.931 . S
H1625 C1613 0.930 . S
H1626 C1614 0.956 . S
H1627 C1614 0.961 . S
H1628 C1614 0.961 . S
H1629 C1615 0.958 . S
H1630 C1615 0.961 . S
H1631 C1615 0.960 . S
C1632 C1633 1.391 . S
C1632 C1634 1.394 . S
C1632 H1648 0.931 . S
C1633 C1632 1.391 . S
C1633 C1637 1.376 . S
C1634 C1632 1.394 . S
C1634 C1635 1.369 . S
C1634 C1638 1.531 . S
C1635 C1634 1.369 . S
C1635 C1636 1.410 . S
C1635 C1643 1.503 . S
C1636 C1635 1.410 . S
C1636 C1637 1.392 . S
C1636 C1639 1.511 . S
C1637 C1633 1.376 . S
C1637 C1636 1.392 . S
C1637 H1649 0.929 . S
C1638 C1634 1.531 . S
C1638 H1650 0.960 . S
C1638 H1651 0.962 . S
C1638 H1652 0.960 . S
C1639 C1636 1.511 . S
C1639 H1653 0.961 . S
C1639 H1654 0.961 . S
C1639 H1655 0.961 . S
C1640 C1641 1.370 . S
C1640 C1642 1.363 . S
C1640 H1656 0.931 . S
C1641 C1640 1.370 . S
C1641 C1645 1.408 . S
C1642 C1640 1.363 . S
C1642 C1643 1.370 . S
C1642 C1646 1.524 . S
C1643 C1635 1.503 . S
C1643 C1642 1.370 . S
C1643 C1644 1.403 . S
C1644 C1643 1.403 . S
C1644 C1645 1.404 . S
C1644 C1647 1.539 . S
C1645 C1641 1.408 . S
C1645 C1644 1.404 . S
C1645 H1657 0.930 . S
C1646 C1642 1.524 . S
C1646 H1658 0.956 . S
C1646 H1659 0.961 . S
C1646 H1660 0.961 . S
C1647 C1644 1.539 . S
C1647 H1661 0.958 . S
C1647 H1662 0.961 . S
C1647 H1663 0.960 . S
H1648 C1632 0.931 . S
H1649 C1637 0.929 . S
H1650 C1638 0.960 . S
H1651 C1638 0.962 . S
H1652 C1638 0.960 . S
H1653 C1639 0.961 . S
H1654 C1639 0.961 . S
H1655 C1639 0.961 . S
H1656 C1640 0.931 . S
H1657 C1645 0.930 . S
H1658 C1646 0.956 . S
H1659 C1646 0.961 . S
H1660 C1646 0.961 . S
H1661 C1647 0.958 . S
H1662 C1647 0.961 . S
H1663 C1647 0.960 . S
C1664 C1665 1.391 . S
C1664 C1666 1.394 . S
C1664 H1680 0.931 . S
C1665 C1664 1.391 . S
C1665 C1669 1.376 . S
C1666 C1664 1.394 . S
C1666 C1667 1.369 . S
C1666 C1670 1.531 . S
C1667 C1666 1.369 . S
C1667 C1668 1.410 . S
C1667 C1675 1.503 . S
C1668 C1667 1.410 . S
C1668 C1669 1.392 . S
C1668 C1671 1.511 . S
C1669 C1665 1.376 . S
C1669 C1668 1.392 . S
C1669 H1681 0.929 . S
C1670 C1666 1.531 . S
C1670 H1682 0.960 . S
C1670 H1683 0.962 . S
C1670 H1684 0.960 . S
C1671 C1668 1.511 . S
C1671 H1685 0.961 . S
C1671 H1686 0.961 . S
C1671 H1687 0.961 . S
C1672 C1673 1.370 . S
C1672 C1674 1.363 . S
C1672 H1688 0.931 . S
C1673 C1672 1.370 . S
C1673 C1677 1.408 . S
C1674 C1672 1.363 . S
C1674 C1675 1.370 . S
C1674 C1678 1.524 . S
C1675 C1667 1.503 . S
C1675 C1674 1.370 . S
C1675 C1676 1.403 . S
C1676 C1675 1.403 . S
C1676 C1677 1.404 . S
C1676 C1679 1.539 . S
C1677 C1673 1.408 . S
C1677 C1676 1.404 . S
C1677 H1689 0.930 . S
C1678 C1674 1.524 . S
C1678 H1690 0.956 . S
C1678 H1691 0.961 . S
C1678 H1692 0.961 . S
C1679 C1676 1.539 . S
C1679 H1693 0.958 . S
C1679 H1694 0.961 . S
C1679 H1695 0.960 . S
H1680 C1664 0.931 . S
H1681 C1669 0.929 . S
H1682 C1670 0.960 . S
H1683 C1670 0.962 . S
H1684 C1670 0.960 . S
H1685 C1671 0.961 . S
H1686 C1671 0.961 . S
H1687 C1671 0.961 . S
H1688 C1672 0.931 . S
H1689 C1677 0.930 . S
H1690 C1678 0.956 . S
H1691 C1678 0.961 . S
H1692 C1678 0.961 . S
H1693 C1679 0.958 . S
H1694 C1679 0.961 . S
H1695 C1679 0.960 . S
C1696 C1697 1.391 . S
C1696 C1698 1.394 . S
C1696 H1712 0.931 . S
C1697 C1696 1.391 . S
C1697 C1701 1.376 . S
C1698 C1696 1.394 . S
C1698 C1699 1.369 . S
C1698 C1702 1.531 . S
C1699 C1698 1.369 . S
C1699 C1700 1.410 . S
C1699 C1707 1.503 . S
C1700 C1699 1.410 . S
C1700 C1701 1.392 . S
C1700 C1703 1.511 . S
C1701 C1697 1.376 . S
C1701 C1700 1.392 . S
C1701 H1713 0.929 . S
C1702 C1698 1.531 . S
C1702 H1714 0.960 . S
C1702 H1715 0.962 . S
C1702 H1716 0.960 . S
C1703 C1700 1.511 . S
C1703 H1717 0.961 . S
C1703 H1718 0.961 . S
C1703 H1719 0.961 . S
C1704 C1705 1.370 . S
C1704 C1706 1.363 . S
C1704 H1720 0.931 . S
C1705 C1704 1.370 . S
C1705 C1709 1.408 . S
C1706 C1704 1.363 . S
C1706 C1707 1.370 . S
C1706 C1710 1.524 . S
C1707 C1699 1.503 . S
C1707 C1706 1.370 . S
C1707 C1708 1.403 . S
C1708 C1707 1.403 . S
C1708 C1709 1.404 . S
C1708 C1711 1.539 . S
C1709 C1705 1.408 . S
C1709 C1708 1.404 . S
C1709 H1721 0.930 . S
C1710 C1706 1.524 . S
C1710 H1722 0.956 . S
C1710 H1723 0.961 . S
C1710 H1724 0.961 . S
C1711 C1708 1.539 . S
C1711 H1725 0.958 . S
C1711 H1726 0.961 . S
C1711 H1727 0.960 . S
H1712 C1696 0.931 . S
H1713 C1701 0.929 . S
H1714 C1702 0.960 . S
H1715 C1702 0.962 . S
H1716 C1702 0.960 . S
H1717 C1703 0.961 . S
H1718 C1703 0.961 . S
H1719 C1703 0.961 . S
H1720 C1704 0.931 . S
H1721 C1709 0.930 . S
H1722 C1710 0.956 . S
H1723 C1710 0.961 . S
H1724 C1710 0.961 . S
H1725 C1711 0.958 . S
H1726 C1711 0.961 . S
H1727 C1711 0.960 . S
C1728 C1729 1.391 . S
C1728 C1730 1.394 . S
C1728 H1744 0.931 . S
C1729 C1728 1.391 . S
C1729 C1733 1.376 . S
C1730 C1728 1.394 . S
C1730 C1731 1.369 . S
C1730 C1734 1.531 . S
C1731 C1730 1.369 . S
C1731 C1732 1.410 . S
C1731 C1739 1.503 . S
C1732 C1731 1.410 . S
C1732 C1733 1.392 . S
C1732 C1735 1.511 . S
C1733 C1729 1.376 . S
C1733 C1732 1.392 . S
C1733 H1745 0.929 . S
C1734 C1730 1.531 . S
C1734 H1746 0.960 . S
C1734 H1747 0.962 . S
C1734 H1748 0.960 . S
C1735 C1732 1.511 . S
C1735 H1749 0.961 . S
C1735 H1750 0.961 . S
C1735 H1751 0.961 . S
C1736 C1737 1.370 . S
C1736 C1738 1.363 . S
C1736 H1752 0.931 . S
C1737 C1736 1.370 . S
C1737 C1741 1.408 . S
C1738 C1736 1.363 . S
C1738 C1739 1.370 . S
C1738 C1742 1.524 . S
C1739 C1731 1.503 . S
C1739 C1738 1.370 . S
C1739 C1740 1.403 . S
C1740 C1739 1.403 . S
C1740 C1741 1.404 . S
C1740 C1743 1.539 . S
C1741 C1737 1.408 . S
C1741 C1740 1.404 . S
C1741 H1753 0.930 . S
C1742 C1738 1.524 . S
C1742 H1754 0.956 . S
C1742 H1755 0.961 . S
C1742 H1756 0.961 . S
C1743 C1740 1.539 . S
C1743 H1757 0.958 . S
C1743 H1758 0.961 . S
C1743 H1759 0.960 . S
H1744 C1728 0.931 . S
H1745 C1733 0.929 . S
H1746 C1734 0.960 . S
H1747 C1734 0.962 . S
H1748 C1734 0.960 . S
H1749 C1735 0.961 . S
H1750 C1735 0.961 . S
H1751 C1735 0.961 . S
H1752 C1736 0.931 . S
H1753 C1741 0.930 . S
H1754 C1742 0.956 . S
H1755 C1742 0.961 . S
H1756 C1742 0.961 . S
H1757 C1743 0.958 . S
H1758 C1743 0.961 . S
H1759 C1743 0.960 . S
C1760 C1761 1.391 . S
C1760 C1762 1.394 . S
C1760 H1776 0.931 . S
C1761 C1760 1.391 . S
C1761 C1765 1.376 . S
C1762 C1760 1.394 . S
C1762 C1763 1.369 . S
C1762 C1766 1.531 . S
C1763 C1762 1.369 . S
C1763 C1764 1.410 . S
C1763 C1771 1.503 . S
C1764 C1763 1.410 . S
C1764 C1765 1.392 . S
C1764 C1767 1.511 . S
C1765 C1761 1.376 . S
C1765 C1764 1.392 . S
C1765 H1777 0.929 . S
C1766 C1762 1.531 . S
C1766 H1778 0.960 . S
C1766 H1779 0.962 . S
C1766 H1780 0.960 . S
C1767 C1764 1.511 . S
C1767 H1781 0.961 . S
C1767 H1782 0.961 . S
C1767 H1783 0.961 . S
C1768 C1769 1.370 . S
C1768 C1770 1.363 . S
C1768 H1784 0.931 . S
C1769 C1768 1.370 . S
C1769 C1773 1.408 . S
C1770 C1768 1.363 . S
C1770 C1771 1.370 . S
C1770 C1774 1.524 . S
C1771 C1763 1.503 . S
C1771 C1770 1.370 . S
C1771 C1772 1.403 . S
C1772 C1771 1.403 . S
C1772 C1773 1.404 . S
C1772 C1775 1.539 . S
C1773 C1769 1.408 . S
C1773 C1772 1.404 . S
C1773 H1785 0.930 . S
C1774 C1770 1.524 . S
C1774 H1786 0.956 . S
C1774 H1787 0.961 . S
C1774 H1788 0.961 . S
C1775 C1772 1.539 . S
C1775 H1789 0.958 . S
C1775 H1790 0.961 . S
C1775 H1791 0.960 . S
H1776 C1760 0.931 . S
H1777 C1765 0.929 . S
H1778 C1766 0.960 . S
H1779 C1766 0.962 . S
H1780 C1766 0.960 . S
H1781 C1767 0.961 . S
H1782 C1767 0.961 . S
H1783 C1767 0.961 . S
H1784 C1768 0.931 . S
H1785 C1773 0.930 . S
H1786 C1774 0.956 . S
H1787 C1774 0.961 . S
H1788 C1774 0.961 . S
H1789 C1775 0.958 . S
H1790 C1775 0.961 . S
H1791 C1775 0.960 . S
C1792 C1793 1.391 . S
C1792 C1794 1.394 . S
C1792 H1808 0.931 . S
C1793 C1792 1.391 . S
C1793 C1797 1.376 . S
C1794 C1792 1.394 . S
C1794 C1795 1.369 . S
C1794 C1798 1.531 . S
C1795 C1794 1.369 . S
C1795 C1796 1.410 . S
C1795 C1803 1.503 . S
C1796 C1795 1.410 . S
C1796 C1797 1.392 . S
C1796 C1799 1.511 . S
C1797 C1793 1.376 . S
C1797 C1796 1.392 . S
C1797 H1809 0.929 . S
C1798 C1794 1.531 . S
C1798 H1810 0.960 . S
C1798 H1811 0.962 . S
C1798 H1812 0.960 . S
C1799 C1796 1.511 . S
C1799 H1813 0.961 . S
C1799 H1814 0.961 . S
C1799 H1815 0.961 . S
C1800 C1801 1.370 . S
C1800 C1802 1.363 . S
C1800 H1816 0.931 . S
C1801 C1800 1.370 . S
C1801 C1805 1.408 . S
C1802 C1800 1.363 . S
C1802 C1803 1.370 . S
C1802 C1806 1.524 . S
C1803 C1795 1.503 . S
C1803 C1802 1.370 . S
C1803 C1804 1.403 . S
C1804 C1803 1.403 . S
C1804 C1805 1.404 . S
C1804 C1807 1.539 . S
C1805 C1801 1.408 . S
C1805 C1804 1.404 . S
C1805 H1817 0.930 . S
C1806 C1802 1.524 . S
C1806 H1818 0.956 . S
C1806 H1819 0.961 . S
C1806 H1820 0.961 . S
C1807 C1804 1.539 . S
C1807 H1821 0.958 . S
C1807 H1822 0.961 . S
C1807 H1823 0.960 . S
H1808 C1792 0.931 . S
H1809 C1797 0.929 . S
H1810 C1798 0.960 . S
H1811 C1798 0.962 . S
H1812 C1798 0.960 . S
H1813 C1799 0.961 . S
H1814 C1799 0.961 . S
H1815 C1799 0.961 . S
H1816 C1800 0.931 . S
H1817 C1805 0.930 . S
H1818 C1806 0.956 . S
H1819 C1806 0.961 . S
H1820 C1806 0.961 . S
H1821 C1807 0.958 . S
H1822 C1807 0.961 . S
H1823 C1807 0.960 . S
C1824 C1825 1.391 . S
C1824 C1826 1.394 . S
C1824 H1840 0.931 . S
C1825 C1824 1.391 . S
C1825 C1829 1.376 . S
C1826 C1824 1.394 . S
C1826 C1827 1.369 . S
C1826 C1830 1.531 . S
C1827 C1826 1.369 . S
C1827 C1828 1.410 . S
C1827 C1835 1.503 . S
C1828 C1827 1.410 . S
C1828 C1829 1.392 . S
C1828 C1831 1.511 . S
C1829 C1825 1.376 . S
C1829 C1828 1.392 . S
C1829 H1841 0.929 . S
C1830 C1826 1.531 . S
C1830 H1842 0.960 . S
C1830 H1843 0.962 . S
C1830 H1844 0.960 . S
C1831 C1828 1.511 . S
C1831 H1845 0.961 . S
C1831 H1846 0.961 . S
C1831 H1847 0.961 . S
C1832 C1833 1.370 . S
C1832 C1834 1.363 . S
C1832 H1848 0.931 . S
C1833 C1832 1.370 . S
C1833 C1837 1.408 . S
C1834 C1832 1.363 . S
C1834 C1835 1.370 . S
C1834 C1838 1.524 . S
C1835 C1827 1.503 . S
C1835 C1834 1.370 . S
C1835 C1836 1.403 . S
C1836 C1835 1.403 . S
C1836 C1837 1.404 . S
C1836 C1839 1.539 . S
C1837 C1833 1.408 . S
C1837 C1836 1.404 . S
C1837 H1849 0.930 . S
C1838 C1834 1.524 . S
C1838 H1850 0.956 . S
C1838 H1851 0.961 . S
C1838 H1852 0.961 . S
C1839 C1836 1.539 . S
C1839 H1853 0.958 . S
C1839 H1854 0.961 . S
C1839 H1855 0.960 . S
H1840 C1824 0.931 . S
H1841 C1829 0.929 . S
H1842 C1830 0.960 . S
H1843 C1830 0.962 . S
H1844 C1830 0.960 . S
H1845 C1831 0.961 . S
H1846 C1831 0.961 . S
H1847 C1831 0.961 . S
H1848 C1832 0.931 . S
H1849 C1837 0.930 . S
H1850 C1838 0.956 . S
H1851 C1838 0.961 . S
H1852 C1838 0.961 . S
H1853 C1839 0.958 . S
H1854 C1839 0.961 . S
H1855 C1839 0.960 . S
C1856 C1857 1.391 . S
C1856 C1858 1.394 . S
C1856 H1872 0.931 . S
C1857 C1856 1.391 . S
C1857 C1861 1.376 . S
C1858 C1856 1.394 . S
C1858 C1859 1.369 . S
C1858 C1862 1.531 . S
C1859 C1858 1.369 . S
C1859 C1860 1.410 . S
C1859 C1867 1.503 . S
C1860 C1859 1.410 . S
C1860 C1861 1.392 . S
C1860 C1863 1.511 . S
C1861 C1857 1.376 . S
C1861 C1860 1.392 . S
C1861 H1873 0.929 . S
C1862 C1858 1.531 . S
C1862 H1874 0.960 . S
C1862 H1875 0.962 . S
C1862 H1876 0.960 . S
C1863 C1860 1.511 . S
C1863 H1877 0.961 . S
C1863 H1878 0.961 . S
C1863 H1879 0.961 . S
C1864 C1865 1.370 . S
C1864 C1866 1.363 . S
C1864 H1880 0.931 . S
C1865 C1864 1.370 . S
C1865 C1869 1.408 . S
C1866 C1864 1.363 . S
C1866 C1867 1.370 . S
C1866 C1870 1.524 . S
C1867 C1859 1.503 . S
C1867 C1866 1.370 . S
C1867 C1868 1.403 . S
C1868 C1867 1.403 . S
C1868 C1869 1.404 . S
C1868 C1871 1.539 . S
C1869 C1865 1.408 . S
C1869 C1868 1.404 . S
C1869 H1881 0.930 . S
C1870 C1866 1.524 . S
C1870 H1882 0.956 . S
C1870 H1883 0.961 . S
C1870 H1884 0.961 . S
C1871 C1868 1.539 . S
C1871 H1885 0.958 . S
C1871 H1886 0.961 . S
C1871 H1887 0.960 . S
H1872 C1856 0.931 . S
H1873 C1861 0.929 . S
H1874 C1862 0.960 . S
H1875 C1862 0.962 . S
H1876 C1862 0.960 . S
H1877 C1863 0.961 . S
H1878 C1863 0.961 . S
H1879 C1863 0.961 . S
H1880 C1864 0.931 . S
H1881 C1869 0.930 . S
H1882 C1870 0.956 . S
H1883 C1870 0.961 . S
H1884 C1870 0.961 . S
H1885 C1871 0.958 . S
H1886 C1871 0.961 . S
H1887 C1871 0.960 . S
C1888 C1889 1.391 . S
C1888 C1890 1.394 . S
C1888 H1904 0.931 . S
C1889 C1888 1.391 . S
C1889 C1893 1.376 . S
C1890 C1888 1.394 . S
C1890 C1891 1.369 . S
C1890 C1894 1.531 . S
C1891 C1890 1.369 . S
C1891 C1892 1.410 . S
C1891 C1899 1.503 . S
C1892 C1891 1.410 . S
C1892 C1893 1.392 . S
C1892 C1895 1.511 . S
C1893 C1889 1.376 . S
C1893 C1892 1.392 . S
C1893 H1905 0.929 . S
C1894 C1890 1.531 . S
C1894 H1906 0.960 . S
C1894 H1907 0.962 . S
C1894 H1908 0.960 . S
C1895 C1892 1.511 . S
C1895 H1909 0.961 . S
C1895 H1910 0.961 . S
C1895 H1911 0.961 . S
C1896 C1897 1.370 . S
C1896 C1898 1.363 . S
C1896 H1912 0.931 . S
C1897 C1896 1.370 . S
C1897 C1901 1.408 . S
C1898 C1896 1.363 . S
C1898 C1899 1.370 . S
C1898 C1902 1.524 . S
C1899 C1891 1.503 . S
C1899 C1898 1.370 . S
C1899 C1900 1.403 . S
C1900 C1899 1.403 . S
C1900 C1901 1.404 . S
C1900 C1903 1.539 . S
C1901 C1897 1.408 . S
C1901 C1900 1.404 . S
C1901 H1913 0.930 . S
C1902 C1898 1.524 . S
C1902 H1914 0.956 . S
C1902 H1915 0.961 . S
C1902 H1916 0.961 . S
C1903 C1900 1.539 . S
C1903 H1917 0.958 . S
C1903 H1918 0.961 . S
C1903 H1919 0.960 . S
H1904 C1888 0.931 . S
H1905 C1893 0.929 . S
H1906 C1894 0.960 . S
H1907 C1894 0.962 . S
H1908 C1894 0.960 . S
H1909 C1895 0.961 . S
H1910 C1895 0.961 . S
H1911 C1895 0.961 . S
H1912 C1896 0.931 . S
H1913 C1901 0.930 . S
H1914 C1902 0.956 . S
H1915 C1902 0.961 . S
H1916 C1902 0.961 . S
H1917 C1903 0.958 . S
H1918 C1903 0.961 . S
H1919 C1903 0.960 . S
C1920 C1921 1.391 . S
C1920 C1922 1.394 . S
C1920 H1936 0.931 . S
C1921 C1920 1.391 . S
C1921 C1925 1.376 . S
C1922 C1920 1.394 . S
C1922 C1923 1.369 . S
C1922 C1926 1.531 . S
C1923 C1922 1.369 . S
C1923 C1924 1.410 . S
C1923 C1931 1.503 . S
C1924 C1923 1.410 . S
C1924 C1925 1.392 . S
C1924 C1927 1.511 . S
C1925 C1921 1.376 . S
C1925 C1924 1.392 . S
C1925 H1937 0.929 . S
C1926 C1922 1.531 . S
C1926 H1938 0.960 . S
C1926 H1939 0.962 . S
C1926 H1940 0.960 . S
C1927 C1924 1.511 . S
C1927 H1941 0.961 . S
C1927 H1942 0.961 . S
C1927 H1943 0.961 . S
C1928 C1929 1.370 . S
C1928 C1930 1.363 . S
C1928 H1944 0.931 . S
C1929 C1928 1.370 . S
C1929 C1933 1.408 . S
C1930 C1928 1.363 . S
C1930 C1931 1.370 . S
C1930 C1934 1.524 . S
C1931 C1923 1.503 . S
C1931 C1930 1.370 . S
C1931 C1932 1.403 . S
C1932 C1931 1.403 . S
C1932 C1933 1.404 . S
C1932 C1935 1.539 . S
C1933 C1929 1.408 . S
C1933 C1932 1.404 . S
C1933 H1945 0.930 . S
C1934 C1930 1.524 . S
C1934 H1946 0.956 . S
C1934 H1947 0.961 . S
C1934 H1948 0.961 . S
C1935 C1932 1.539 . S
C1935 H1949 0.958 . S
C1935 H1950 0.961 . S
C1935 H1951 0.960 . S
H1936 C1920 0.931 . S
H1937 C1925 0.929 . S
H1938 C1926 0.960 . S
H1939 C1926 0.962 . S
H1940 C1926 0.960 . S
H1941 C1927 0.961 . S
H1942 C1927 0.961 . S
H1943 C1927 0.961 . S
H1944 C1928 0.931 . S
H1945 C1933 0.930 . S
H1946 C1934 0.956 . S
H1947 C1934 0.961 . S
H1948 C1934 0.961 . S
H1949 C1935 0.958 . S
H1950 C1935 0.961 . S
H1951 C1935 0.960 . S
C1952 C1953 1.391 . S
C1952 C1954 1.394 . S
C1952 H1968 0.931 . S
C1953 C1952 1.391 . S
C1953 C1957 1.376 . S
C1954 C1952 1.394 . S
C1954 C1955 1.369 . S
C1954 C1958 1.531 . S
C1955 C1954 1.369 . S
C1955 C1956 1.410 . S
C1955 C1963 1.503 . S
C1956 C1955 1.410 . S
C1956 C1957 1.392 . S
C1956 C1959 1.511 . S
C1957 C1953 1.376 . S
C1957 C1956 1.392 . S
C1957 H1969 0.929 . S
C1958 C1954 1.531 . S
C1958 H1970 0.960 . S
C1958 H1971 0.962 . S
C1958 H1972 0.960 . S
C1959 C1956 1.511 . S
C1959 H1973 0.961 . S
C1959 H1974 0.961 . S
C1959 H1975 0.961 . S
C1960 C1961 1.370 . S
C1960 C1962 1.363 . S
C1960 H1976 0.931 . S
C1961 C1960 1.370 . S
C1961 C1965 1.408 . S
C1962 C1960 1.363 . S
C1962 C1963 1.370 . S
C1962 C1966 1.524 . S
C1963 C1955 1.503 . S
C1963 C1962 1.370 . S
C1963 C1964 1.403 . S
C1964 C1963 1.403 . S
C1964 C1965 1.404 . S
C1964 C1967 1.539 . S
C1965 C1961 1.408 . S
C1965 C1964 1.404 . S
C1965 H1977 0.930 . S
C1966 C1962 1.524 . S
C1966 H1978 0.956 . S
C1966 H1979 0.961 . S
C1966 H1980 0.961 . S
C1967 C1964 1.539 . S
C1967 H1981 0.958 . S
C1967 H1982 0.961 . S
C1967 H1983 0.960 . S
H1968 C1952 0.931 . S
H1969 C1957 0.929 . S
H1970 C1958 0.960 . S
H1971 C1958 0.962 . S
H1972 C1958 0.960 . S
H1973 C1959 0.961 . S
H1974 C1959 0.961 . S
H1975 C1959 0.961 . S
H1976 C1960 0.931 . S
H1977 C1965 0.930 . S
H1978 C1966 0.956 . S
H1979 C1966 0.961 . S
H1980 C1966 0.961 . S
H1981 C1967 0.958 . S
H1982 C1967 0.961 . S
H1983 C1967 0.960 . S
C1984 C1985 1.391 . S
C1984 C1986 1.394 . S
C1984 H2000 0.931 . S
C1985 C1984 1.391 . S
C1985 C1989 1.376 . S
C1986 C1984 1.394 . S
C1986 C1987 1.369 . S
C1986 C1990 1.531 . S
C1987 C1986 1.369 . S
C1987 C1988 1.410 . S
C1987 C1995 1.503 . S
C1988 C1987 1.410 . S
C1988 C1989 1.392 . S
C1988 C1991 1.511 . S
C1989 C1985 1.376 . S
C1989 C1988 1.392 . S
C1989 H2001 0.929 . S
C1990 C1986 1.531 . S
C1990 H2002 0.960 . S
C1990 H2003 0.962 . S
C1990 H2004 0.960 . S
C1991 C1988 1.511 . S
C1991 H2005 0.961 . S
C1991 H2006 0.961 . S
C1991 H2007 0.961 . S
C1992 C1993 1.370 . S
C1992 C1994 1.363 . S
C1992 H2008 0.931 . S
C1993 C1992 1.370 . S
C1993 C1997 1.408 . S
C1994 C1992 1.363 . S
C1994 C1995 1.370 . S
C1994 C1998 1.524 . S
C1995 C1987 1.503 . S
C1995 C1994 1.370 . S
C1995 C1996 1.403 . S
C1996 C1995 1.403 . S
C1996 C1997 1.404 . S
C1996 C1999 1.539 . S
C1997 C1993 1.408 . S
C1997 C1996 1.404 . S
C1997 H2009 0.930 . S
C1998 C1994 1.524 . S
C1998 H2010 0.956 . S
C1998 H2011 0.961 . S
C1998 H2012 0.961 . S
C1999 C1996 1.539 . S
C1999 H2013 0.958 . S
C1999 H2014 0.961 . S
C1999 H2015 0.960 . S
H2000 C1984 0.931 . S
H2001 C1989 0.929 . S
H2002 C1990 0.960 . S
H2003 C1990 0.962 . S
H2004 C1990 0.960 . S
H2005 C1991 0.961 . S
H2006 C1991 0.961 . S
H2007 C1991 0.961 . S
H2008 C1992 0.931 . S
H2009 C1997 0.930 . S
H2010 C1998 0.956 . S
H2011 C1998 0.961 . S
H2012 C1998 0.961 . S
H2013 C1999 0.958 . S
H2014 C1999 0.961 . S
H2015 C1999 0.960 . S
C2016 C2017 1.391 . S
C2016 C2018 1.394 . S
C2016 H2032 0.931 . S
C2017 C2016 1.391 . S
C2017 C2021 1.376 . S
C2018 C2016 1.394 . S
C2018 C2019 1.369 . S
C2018 C2022 1.531 . S
C2019 C2018 1.369 . S
C2019 C2020 1.410 . S
C2019 C2027 1.503 . S
C2020 C2019 1.410 . S
C2020 C2021 1.392 . S
C2020 C2023 1.511 . S
C2021 C2017 1.376 . S
C2021 C2020 1.392 . S
C2021 H2033 0.929 . S
C2022 C2018 1.531 . S
C2022 H2034 0.960 . S
C2022 H2035 0.962 . S
C2022 H2036 0.960 . S
C2023 C2020 1.511 . S
C2023 H2037 0.961 . S
C2023 H2038 0.961 . S
C2023 H2039 0.961 . S
C2024 C2025 1.370 . S
C2024 C2026 1.363 . S
C2024 H2040 0.931 . S
C2025 C2024 1.370 . S
C2025 C2029 1.408 . S
C2026 C2024 1.363 . S
C2026 C2027 1.370 . S
C2026 C2030 1.524 . S
C2027 C2019 1.503 . S
C2027 C2026 1.370 . S
C2027 C2028 1.403 . S
C2028 C2027 1.403 . S
C2028 C2029 1.404 . S
C2028 C2031 1.539 . S
C2029 C2025 1.408 . S
C2029 C2028 1.404 . S
C2029 H2041 0.930 . S
C2030 C2026 1.524 . S
C2030 H2042 0.956 . S
C2030 H2043 0.961 . S
C2030 H2044 0.961 . S
C2031 C2028 1.539 . S
C2031 H2045 0.958 . S
C2031 H2046 0.961 . S
C2031 H2047 0.960 . S
H2032 C2016 0.931 . S
H2033 C2021 0.929 . S
H2034 C2022 0.960 . S
H2035 C2022 0.962 . S
H2036 C2022 0.960 . S
H2037 C2023 0.961 . S
H2038 C2023 0.961 . S
H2039 C2023 0.961 . S
H2040 C2024 0.931 . S
H2041 C2029 0.930 . S
H2042 C2030 0.956 . S
H2043 C2030 0.961 . S
H2044 C2030 0.961 . S
H2045 C2031 0.958 . S
H2046 C2031 0.961 . S
H2047 C2031 0.960 . S
C2048 C2049 1.391 . S
C2048 C2050 1.394 . S
C2048 H2064 0.931 . S
C2049 C2048 1.391 . S
C2049 C2053 1.376 . S
C2050 C2048 1.394 . S
C2050 C2051 1.369 . S
C2050 C2054 1.531 . S
C2051 C2050 1.369 . S
C2051 C2052 1.410 . S
C2051 C2059 1.503 . S
C2052 C2051 1.410 . S
C2052 C2053 1.392 . S
C2052 C2055 1.511 . S
C2053 C2049 1.376 . S
C2053 C2052 1.392 . S
C2053 H2065 0.929 . S
C2054 C2050 1.531 . S
C2054 H2066 0.960 . S
C2054 H2067 0.962 . S
C2054 H2068 0.960 . S
C2055 C2052 1.511 . S
C2055 H2069 0.961 . S
C2055 H2070 0.961 . S
C2055 H2071 0.961 . S
C2056 C2057 1.370 . S
C2056 C2058 1.363 . S
C2056 H2072 0.931 . S
C2057 C2056 1.370 . S
C2057 C2061 1.408 . S
C2058 C2056 1.363 . S
C2058 C2059 1.370 . S
C2058 C2062 1.524 . S
C2059 C2051 1.503 . S
C2059 C2058 1.370 . S
C2059 C2060 1.403 . S
C2060 C2059 1.403 . S
C2060 C2061 1.404 . S
C2060 C2063 1.539 . S
C2061 C2057 1.408 . S
C2061 C2060 1.404 . S
C2061 H2073 0.930 . S
C2062 C2058 1.524 . S
C2062 H2074 0.956 . S
C2062 H2075 0.961 . S
C2062 H2076 0.961 . S
C2063 C2060 1.539 . S
C2063 H2077 0.958 . S
C2063 H2078 0.961 . S
C2063 H2079 0.960 . S
H2064 C2048 0.931 . S
H2065 C2053 0.929 . S
H2066 C2054 0.960 . S
H2067 C2054 0.962 . S
H2068 C2054 0.960 . S
H2069 C2055 0.961 . S
H2070 C2055 0.961 . S
H2071 C2055 0.961 . S
H2072 C2056 0.931 . S
H2073 C2061 0.930 . S
H2074 C2062 0.956 . S
H2075 C2062 0.961 . S
H2076 C2062 0.961 . S
H2077 C2063 0.958 . S
H2078 C2063 0.961 . S
H2079 C2063 0.960 . S
C2080 C2081 1.391 . S
C2080 C2082 1.394 . S
C2080 H2096 0.931 . S
C2081 C2080 1.391 . S
C2081 C2085 1.376 . S
C2082 C2080 1.394 . S
C2082 C2083 1.369 . S
C2082 C2086 1.531 . S
C2083 C2082 1.369 . S
C2083 C2084 1.410 . S
C2083 C2091 1.503 . S
C2084 C2083 1.410 . S
C2084 C2085 1.392 . S
C2084 C2087 1.511 . S
C2085 C2081 1.376 . S
C2085 C2084 1.392 . S
C2085 H2097 0.929 . S
C2086 C2082 1.531 . S
C2086 H2098 0.960 . S
C2086 H2099 0.962 . S
C2086 H2100 0.960 . S
C2087 C2084 1.511 . S
C2087 H2101 0.961 . S
C2087 H2102 0.961 . S
C2087 H2103 0.961 . S
C2088 C2089 1.370 . S
C2088 C2090 1.363 . S
C2088 H2104 0.931 . S
C2089 C2088 1.370 . S
C2089 C2093 1.408 . S
C2090 C2088 1.363 . S
C2090 C2091 1.370 . S
C2090 C2094 1.524 . S
C2091 C2083 1.503 . S
C2091 C2090 1.370 . S
C2091 C2092 1.403 . S
C2092 C2091 1.403 . S
C2092 C2093 1.404 . S
C2092 C2095 1.539 . S
C2093 C2089 1.408 . S
C2093 C2092 1.404 . S
C2093 H2105 0.930 . S
C2094 C2090 1.524 . S
C2094 H2106 0.956 . S
C2094 H2107 0.961 . S
C2094 H2108 0.961 . S
C2095 C2092 1.539 . S
C2095 H2109 0.958 . S
C2095 H2110 0.961 . S
C2095 H2111 0.960 . S
H2096 C2080 0.931 . S
H2097 C2085 0.929 . S
H2098 C2086 0.960 . S
H2099 C2086 0.962 . S
H2100 C2086 0.960 . S
H2101 C2087 0.961 . S
H2102 C2087 0.961 . S
H2103 C2087 0.961 . S
H2104 C2088 0.931 . S
H2105 C2093 0.930 . S
H2106 C2094 0.956 . S
H2107 C2094 0.961 . S
H2108 C2094 0.961 . S
H2109 C2095 0.958 . S
H2110 C2095 0.961 . S
H2111 C2095 0.960 . S
C2112 C2113 1.391 . S
C2112 C2114 1.394 . S
C2112 H2128 0.931 . S
C2113 C2112 1.391 . S
C2113 C2117 1.376 . S
C2114 C2112 1.394 . S
C2114 C2115 1.369 . S
C2114 C2118 1.531 . S
C2115 C2114 1.369 . S
C2115 C2116 1.410 . S
C2115 C2123 1.503 . S
C2116 C2115 1.410 . S
C2116 C2117 1.392 . S
C2116 C2119 1.511 . S
C2117 C2113 1.376 . S
C2117 C2116 1.392 . S
C2117 H2129 0.929 . S
C2118 C2114 1.531 . S
C2118 H2130 0.960 . S
C2118 H2131 0.962 . S
C2118 H2132 0.960 . S
C2119 C2116 1.511 . S
C2119 H2133 0.961 . S
C2119 H2134 0.961 . S
C2119 H2135 0.961 . S
C2120 C2121 1.370 . S
C2120 C2122 1.363 . S
C2120 H2136 0.931 . S
C2121 C2120 1.370 . S
C2121 C2125 1.408 . S
C2122 C2120 1.363 . S
C2122 C2123 1.370 . S
C2122 C2126 1.524 . S
C2123 C2115 1.503 . S
C2123 C2122 1.370 . S
C2123 C2124 1.403 . S
C2124 C2123 1.403 . S
C2124 C2125 1.404 . S
C2124 C2127 1.539 . S
C2125 C2121 1.408 . S
C2125 C2124 1.404 . S
C2125 H2137 0.930 . S
C2126 C2122 1.524 . S
C2126 H2138 0.956 . S
C2126 H2139 0.961 . S
C2126 H2140 0.961 . S
C2127 C2124 1.539 . S
C2127 H2141 0.958 . S
C2127 H2142 0.961 . S
C2127 H2143 0.960 . S
H2128 C2112 0.931 . S
H2129 C2117 0.929 . S
H2130 C2118 0.960 . S
H2131 C2118 0.962 . S
H2132 C2118 0.960 . S
H2133 C2119 0.961 . S
H2134 C2119 0.961 . S
H2135 C2119 0.961 . S
H2136 C2120 0.931 . S
H2137 C2125 0.930 . S
H2138 C2126 0.956 . S
H2139 C2126 0.961 . S
H2140 C2126 0.961 . S
H2141 C2127 0.958 . S
H2142 C2127 0.961 . S
H2143 C2127 0.960 . S
C2144 C2145 1.391 . S
C2144 C2146 1.394 . S
C2144 H2160 0.931 . S
C2145 C2144 1.391 . S
C2145 C2149 1.376 . S
C2146 C2144 1.394 . S
C2146 C2147 1.369 . S
C2146 C2150 1.531 . S
C2147 C2146 1.369 . S
C2147 C2148 1.410 . S
C2147 C2155 1.503 . S
C2148 C2147 1.410 . S
C2148 C2149 1.392 . S
C2148 C2151 1.511 . S
C2149 C2145 1.376 . S
C2149 C2148 1.392 . S
C2149 H2161 0.929 . S
C2150 C2146 1.531 . S
C2150 H2162 0.960 . S
C2150 H2163 0.962 . S
C2150 H2164 0.960 . S
C2151 C2148 1.511 . S
C2151 H2165 0.961 . S
C2151 H2166 0.961 . S
C2151 H2167 0.961 . S
C2152 C2153 1.370 . S
C2152 C2154 1.363 . S
C2152 H2168 0.931 . S
C2153 C2152 1.370 . S
C2153 C2157 1.408 . S
C2154 C2152 1.363 . S
C2154 C2155 1.370 . S
C2154 C2158 1.524 . S
C2155 C2147 1.503 . S
C2155 C2154 1.370 . S
C2155 C2156 1.403 . S
C2156 C2155 1.403 . S
C2156 C2157 1.404 . S
C2156 C2159 1.539 . S
C2157 C2153 1.408 . S
C2157 C2156 1.404 . S
C2157 H2169 0.930 . S
C2158 C2154 1.524 . S
C2158 H2170 0.956 . S
C2158 H2171 0.961 . S
C2158 H2172 0.961 . S
C2159 C2156 1.539 . S
C2159 H2173 0.958 . S
C2159 H2174 0.961 . S
C2159 H2175 0.960 . S
H2160 C2144 0.931 . S
H2161 C2149 0.929 . S
H2162 C2150 0.960 . S
H2163 C2150 0.962 . S
H2164 C2150 0.960 . S
H2165 C2151 0.961 . S
H2166 C2151 0.961 . S
H2167 C2151 0.961 . S
H2168 C2152 0.931 . S
H2169 C2157 0.930 . S
H2170 C2158 0.956 . S
H2171 C2158 0.961 . S
H2172 C2158 0.961 . S
H2173 C2159 0.958 . S
H2174 C2159 0.961 . S
H2175 C2159 0.960 . S
C2176 C2177 1.391 . S
C2176 C2178 1.394 . S
C2176 H2192 0.931 . S
C2177 C2176 1.391 . S
C2177 C2181 1.376 . S
C2178 C2176 1.394 . S
C2178 C2179 1.369 . S
C2178 C2182 1.531 . S
C2179 C2178 1.369 . S
C2179 C2180 1.410 . S
C2179 C2187 1.503 . S
C2180 C2179 1.410 . S
C2180 C2181 1.392 . S
C2180 C2183 1.511 . S
C2181 C2177 1.376 . S
C2181 C2180 1.392 . S
C2181 H2193 0.929 . S
C2182 C2178 1.531 . S
C2182 H2194 0.960 . S
C2182 H2195 0.962 . S
C2182 H2196 0.960 . S
C2183 C2180 1.511 . S
C2183 H2197 0.961 . S
C2183 H2198 0.961 . S
C2183 H2199 0.961 . S
C2184 C2185 1.370 . S
C2184 C2186 1.363 . S
C2184 H2200 0.931 . S
C2185 C2184 1.370 . S
C2185 C2189 1.408 . S
C2186 C2184 1.363 . S
C2186 C2187 1.370 . S
C2186 C2190 1.524 . S
C2187 C2179 1.503 . S
C2187 C2186 1.370 . S
C2187 C2188 1.403 . S
C2188 C2187 1.403 . S
C2188 C2189 1.404 . S
C2188 C2191 1.539 . S
C2189 C2185 1.408 . S
C2189 C2188 1.404 . S
C2189 H2201 0.930 . S
C2190 C2186 1.524 . S
C2190 H2202 0.956 . S
C2190 H2203 0.961 . S
C2190 H2204 0.961 . S
C2191 C2188 1.539 . S
C2191 H2205 0.958 . S
C2191 H2206 0.961 . S
C2191 H2207 0.960 . S
H2192 C2176 0.931 . S
H2193 C2181 0.929 . S
H2194 C2182 0.960 . S
H2195 C2182 0.962 . S
H2196 C2182 0.960 . S
H2197 C2183 0.961 . S
H2198 C2183 0.961 . S
H2199 C2183 0.961 . S
H2200 C2184 0.931 . S
H2201 C2189 0.930 . S
H2202 C2190 0.956 . S
H2203 C2190 0.961 . S
H2204 C2190 0.961 . S
H2205 C2191 0.958 . S
H2206 C2191 0.961 . S
H2207 C2191 0.960 . S
C2208 C2209 1.391 . S
C2208 C2210 1.394 . S
C2208 H2224 0.931 . S
C2209 C2208 1.391 . S
C2209 C2213 1.376 . S
C2210 C2208 1.394 . S
C2210 C2211 1.369 . S
C2210 C2214 1.531 . S
C2211 C2210 1.369 . S
C2211 C2212 1.410 . S
C2211 C2219 1.503 . S
C2212 C2211 1.410 . S
C2212 C2213 1.392 . S
C2212 C2215 1.511 . S
C2213 C2209 1.376 . S
C2213 C2212 1.392 . S
C2213 H2225 0.929 . S
C2214 C2210 1.531 . S
C2214 H2226 0.960 . S
C2214 H2227 0.962 . S
C2214 H2228 0.960 . S
C2215 C2212 1.511 . S
C2215 H2229 0.961 . S
C2215 H2230 0.961 . S
C2215 H2231 0.961 . S
C2216 C2217 1.370 . S
C2216 C2218 1.363 . S
C2216 H2232 0.931 . S
C2217 C2216 1.370 . S
C2217 C2221 1.408 . S
C2218 C2216 1.363 . S
C2218 C2219 1.370 . S
C2218 C2222 1.524 . S
C2219 C2211 1.503 . S
C2219 C2218 1.370 . S
C2219 C2220 1.403 . S
C2220 C2219 1.403 . S
C2220 C2221 1.404 . S
C2220 C2223 1.539 . S
C2221 C2217 1.408 . S
C2221 C2220 1.404 . S
C2221 H2233 0.930 . S
C2222 C2218 1.524 . S
C2222 H2234 0.956 . S
C2222 H2235 0.961 . S
C2222 H2236 0.961 . S
C2223 C2220 1.539 . S
C2223 H2237 0.958 . S
C2223 H2238 0.961 . S
C2223 H2239 0.960 . S
H2224 C2208 0.931 . S
H2225 C2213 0.929 . S
H2226 C2214 0.960 . S
H2227 C2214 0.962 . S
H2228 C2214 0.960 . S
H2229 C2215 0.961 . S
H2230 C2215 0.961 . S
H2231 C2215 0.961 . S
H2232 C2216 0.931 . S
H2233 C2221 0.930 . S
H2234 C2222 0.956 . S
H2235 C2222 0.961 . S
H2236 C2222 0.961 . S
H2237 C2223 0.958 . S
H2238 C2223 0.961 . S
H2239 C2223 0.960 . S
C2240 C2241 1.391 . S
C2240 C2242 1.394 . S
C2240 H2256 0.931 . S
C2241 C2240 1.391 . S
C2241 C2245 1.376 . S
C2242 C2240 1.394 . S
C2242 C2243 1.369 . S
C2242 C2246 1.531 . S
C2243 C2242 1.369 . S
C2243 C2244 1.410 . S
C2243 C2251 1.503 . S
C2244 C2243 1.410 . S
C2244 C2245 1.392 . S
C2244 C2247 1.511 . S
C2245 C2241 1.376 . S
C2245 C2244 1.392 . S
C2245 H2257 0.929 . S
C2246 C2242 1.531 . S
C2246 H2258 0.960 . S
C2246 H2259 0.962 . S
C2246 H2260 0.960 . S
C2247 C2244 1.511 . S
C2247 H2261 0.961 . S
C2247 H2262 0.961 . S
C2247 H2263 0.961 . S
C2248 C2249 1.370 . S
C2248 C2250 1.363 . S
C2248 H2264 0.931 . S
C2249 C2248 1.370 . S
C2249 C2253 1.408 . S
C2250 C2248 1.363 . S
C2250 C2251 1.370 . S
C2250 C2254 1.524 . S
C2251 C2243 1.503 . S
C2251 C2250 1.370 . S
C2251 C2252 1.403 . S
C2252 C2251 1.403 . S
C2252 C2253 1.404 . S
C2252 C2255 1.539 . S
C2253 C2249 1.408 . S
C2253 C2252 1.404 . S
C2253 H2265 0.930 . S
C2254 C2250 1.524 . S
C2254 H2266 0.956 . S
C2254 H2267 0.961 . S
C2254 H2268 0.961 . S
C2255 C2252 1.539 . S
C2255 H2269 0.958 . S
C2255 H2270 0.961 . S
C2255 H2271 0.960 . S
H2256 C2240 0.931 . S
H2257 C2245 0.929 . S
H2258 C2246 0.960 . S
H2259 C2246 0.962 . S
H2260 C2246 0.960 . S
H2261 C2247 0.961 . S
H2262 C2247 0.961 . S
H2263 C2247 0.961 . S
H2264 C2248 0.931 . S
H2265 C2253 0.930 . S
H2266 C2254 0.956 . S
H2267 C2254 0.961 . S
H2268 C2254 0.961 . S
H2269 C2255 0.958 . S
H2270 C2255 0.961 . S
H2271 C2255 0.960 . S
C2272 C2273 1.391 . S
C2272 C2274 1.394 . S
C2272 H2288 0.931 . S
C2273 C2272 1.391 . S
C2273 C2277 1.376 . S
C2274 C2272 1.394 . S
C2274 C2275 1.369 . S
C2274 C2278 1.531 . S
C2275 C2274 1.369 . S
C2275 C2276 1.410 . S
C2275 C2283 1.503 . S
C2276 C2275 1.410 . S
C2276 C2277 1.392 . S
C2276 C2279 1.511 . S
C2277 C2273 1.376 . S
C2277 C2276 1.392 . S
C2277 H2289 0.929 . S
C2278 C2274 1.531 . S
C2278 H2290 0.960 . S
C2278 H2291 0.962 . S
C2278 H2292 0.960 . S
C2279 C2276 1.511 . S
C2279 H2293 0.961 . S
C2279 H2294 0.961 . S
C2279 H2295 0.961 . S
C2280 C2281 1.370 . S
C2280 C2282 1.363 . S
C2280 H2296 0.931 . S
C2281 C2280 1.370 . S
C2281 C2285 1.408 . S
C2282 C2280 1.363 . S
C2282 C2283 1.370 . S
C2282 C2286 1.524 . S
C2283 C2275 1.503 . S
C2283 C2282 1.370 . S
C2283 C2284 1.403 . S
C2284 C2283 1.403 . S
C2284 C2285 1.404 . S
C2284 C2287 1.539 . S
C2285 C2281 1.408 . S
C2285 C2284 1.404 . S
C2285 H2297 0.930 . S
C2286 C2282 1.524 . S
C2286 H2298 0.956 . S
C2286 H2299 0.961 . S
C2286 H2300 0.961 . S
C2287 C2284 1.539 . S
C2287 H2301 0.958 . S
C2287 H2302 0.961 . S
C2287 H2303 0.960 . S
H2288 C2272 0.931 . S
H2289 C2277 0.929 . S
H2290 C2278 0.960 . S
H2291 C2278 0.962 . S
H2292 C2278 0.960 . S
H2293 C2279 0.961 . S
H2294 C2279 0.961 . S
H2295 C2279 0.961 . S
H2296 C2280 0.931 . S
H2297 C2285 0.930 . S
H2298 C2286 0.956 . S
H2299 C2286 0.961 . S
H2300 C2286 0.961 . S
H2301 C2287 0.958 . S
H2302 C2287 0.961 . S
H2303 C2287 0.960 . S
C2304 C2305 1.391 . S
C2304 C2306 1.394 . S
C2304 H2320 0.931 . S
C2305 C2304 1.391 . S
C2305 C2309 1.376 . S
C2306 C2304 1.394 . S
C2306 C2307 1.369 . S
C2306 C2310 1.531 . S
C2307 C2306 1.369 . S
C2307 C2308 1.410 . S
C2307 C2315 1.503 . S
C2308 C2307 1.410 . S
C2308 C2309 1.392 . S
C2308 C2311 1.511 . S
C2309 C2305 1.376 . S
C2309 C2308 1.392 . S
C2309 H2321 0.929 . S
C2310 C2306 1.531 . S
C2310 H2322 0.960 . S
C2310 H2323 0.962 . S
C2310 H2324 0.960 . S
C2311 C2308 1.511 . S
C2311 H2325 0.961 . S
C2311 H2326 0.961 . S
C2311 H2327 0.961 . S
C2312 C2313 1.370 . S
C2312 C2314 1.363 . S
C2312 H2328 0.931 . S
C2313 C2312 1.370 . S
C2313 C2317 1.408 . S
C2314 C2312 1.363 . S
C2314 C2315 1.370 . S
C2314 C2318 1.524 . S
C2315 C2307 1.503 . S
C2315 C2314 1.370 . S
C2315 C2316 1.403 . S
C2316 C2315 1.403 . S
C2316 C2317 1.404 . S
C2316 C2319 1.539 . S
C2317 C2313 1.408 . S
C2317 C2316 1.404 . S
C2317 H2329 0.930 . S
C2318 C2314 1.524 . S
C2318 H2330 0.956 . S
C2318 H2331 0.961 . S
C2318 H2332 0.961 . S
C2319 C2316 1.539 . S
C2319 H2333 0.958 . S
C2319 H2334 0.961 . S
C2319 H2335 0.960 . S
H2320 C2304 0.931 . S
H2321 C2309 0.929 . S
H2322 C2310 0.960 . S
H2323 C2310 0.962 . S
H2324 C2310 0.960 . S
H2325 C2311 0.961 . S
H2326 C2311 0.961 . S
H2327 C2311 0.961 . S
H2328 C2312 0.931 . S
H2329 C2317 0.930 . S
H2330 C2318 0.956 . S
H2331 C2318 0.961 . S
H2332 C2318 0.961 . S
H2333 C2319 0.958 . S
H2334 C2319 0.961 . S
H2335 C2319 0.960 . S
C2336 C2337 1.391 . S
C2336 C2338 1.394 . S
C2336 H2352 0.931 . S
C2337 C2336 1.391 . S
C2337 C2341 1.376 . S
C2338 C2336 1.394 . S
C2338 C2339 1.369 . S
C2338 C2342 1.531 . S
C2339 C2338 1.369 . S
C2339 C2340 1.410 . S
C2339 C2347 1.503 . S
C2340 C2339 1.410 . S
C2340 C2341 1.392 . S
C2340 C2343 1.511 . S
C2341 C2337 1.376 . S
C2341 C2340 1.392 . S
C2341 H2353 0.929 . S
C2342 C2338 1.531 . S
C2342 H2354 0.960 . S
C2342 H2355 0.962 . S
C2342 H2356 0.960 . S
C2343 C2340 1.511 . S
C2343 H2357 0.961 . S
C2343 H2358 0.961 . S
C2343 H2359 0.961 . S
C2344 C2345 1.370 . S
C2344 C2346 1.363 . S
C2344 H2360 0.931 . S
C2345 C2344 1.370 . S
C2345 C2349 1.408 . S
C2346 C2344 1.363 . S
C2346 C2347 1.370 . S
C2346 C2350 1.524 . S
C2347 C2339 1.503 . S
C2347 C2346 1.370 . S
C2347 C2348 1.403 . S
C2348 C2347 1.403 . S
C2348 C2349 1.404 . S
C2348 C2351 1.539 . S
C2349 C2345 1.408 . S
C2349 C2348 1.404 . S
C2349 H2361 0.930 . S
C2350 C2346 1.524 . S
C2350 H2362 0.956 . S
C2350 H2363 0.961 . S
C2350 H2364 0.961 . S
C2351 C2348 1.539 . S
C2351 H2365 0.958 . S
C2351 H2366 0.961 . S
C2351 H2367 0.960 . S
H2352 C2336 0.931 . S
H2353 C2341 0.929 . S
H2354 C2342 0.960 . S
H2355 C2342 0.962 . S
H2356 C2342 0.960 . S
H2357 C2343 0.961 . S
H2358 C2343 0.961 . S
H2359 C2343 0.961 . S
H2360 C2344 0.931 . S
H2361 C2349 0.930 . S
H2362 C2350 0.956 . S
H2363 C2350 0.961 . S
H2364 C2350 0.961 . S
H2365 C2351 0.958 . S
H2366 C2351 0.961 . S
H2367 C2351 0.960 . S
C2368 C2369 1.391 . S
C2368 C2370 1.394 . S
C2368 H2384 0.931 . S
C2369 C2368 1.391 . S
C2369 C2373 1.376 . S
C2370 C2368 1.394 . S
C2370 C2371 1.369 . S
C2370 C2374 1.531 . S
C2371 C2370 1.369 . S
C2371 C2372 1.410 . S
C2371 C2379 1.503 . S
C2372 C2371 1.410 . S
C2372 C2373 1.392 . S
C2372 C2375 1.511 . S
C2373 C2369 1.376 . S
C2373 C2372 1.392 . S
C2373 H2385 0.929 . S
C2374 C2370 1.531 . S
C2374 H2386 0.960 . S
C2374 H2387 0.962 . S
C2374 H2388 0.960 . S
C2375 C2372 1.511 . S
C2375 H2389 0.961 . S
C2375 H2390 0.961 . S
C2375 H2391 0.961 . S
C2376 C2377 1.370 . S
C2376 C2378 1.363 . S
C2376 H2392 0.931 . S
C2377 C2376 1.370 . S
C2377 C2381 1.408 . S
C2378 C2376 1.363 . S
C2378 C2379 1.370 . S
C2378 C2382 1.524 . S
C2379 C2371 1.503 . S
C2379 C2378 1.370 . S
C2379 C2380 1.403 . S
C2380 C2379 1.403 . S
C2380 C2381 1.404 . S
C2380 C2383 1.539 . S
C2381 C2377 1.408 . S
C2381 C2380 1.404 . S
C2381 H2393 0.930 . S
C2382 C2378 1.524 . S
C2382 H2394 0.956 . S
C2382 H2395 0.961 . S
C2382 H2396 0.961 . S
C2383 C2380 1.539 . S
C2383 H2397 0.958 . S
C2383 H2398 0.961 . S
C2383 H2399 0.960 . S
H2384 C2368 0.931 . S
H2385 C2373 0.929 . S
H2386 C2374 0.960 . S
H2387 C2374 0.962 . S
H2388 C2374 0.960 . S
H2389 C2375 0.961 . S
H2390 C2375 0.961 . S
H2391 C2375 0.961 . S
H2392 C2376 0.931 . S
H2393 C2381 0.930 . S
H2394 C2382 0.956 . S
H2395 C2382 0.961 . S
H2396 C2382 0.961 . S
H2397 C2383 0.958 . S
H2398 C2383 0.961 . S
H2399 C2383 0.960 . S
C2400 C2401 1.391 . S
C2400 C2402 1.394 . S
C2400 H2416 0.931 . S
C2401 C2400 1.391 . S
C2401 C2405 1.376 . S
C2402 C2400 1.394 . S
C2402 C2403 1.369 . S
C2402 C2406 1.531 . S
C2403 C2402 1.369 . S
C2403 C2404 1.410 . S
C2403 C2411 1.503 . S
C2404 C2403 1.410 . S
C2404 C2405 1.392 . S
C2404 C2407 1.511 . S
C2405 C2401 1.376 . S
C2405 C2404 1.392 . S
C2405 H2417 0.929 . S
C2406 C2402 1.531 . S
C2406 H2418 0.960 . S
C2406 H2419 0.962 . S
C2406 H2420 0.960 . S
C2407 C2404 1.511 . S
C2407 H2421 0.961 . S
C2407 H2422 0.961 . S
C2407 H2423 0.961 . S
C2408 C2409 1.370 . S
C2408 C2410 1.363 . S
C2408 H2424 0.931 . S
C2409 C2408 1.370 . S
C2409 C2413 1.408 . S
C2410 C2408 1.363 . S
C2410 C2411 1.370 . S
C2410 C2414 1.524 . S
C2411 C2403 1.503 . S
C2411 C2410 1.370 . S
C2411 C2412 1.403 . S
C2412 C2411 1.403 . S
C2412 C2413 1.404 . S
C2412 C2415 1.539 . S
C2413 C2409 1.408 . S
C2413 C2412 1.404 . S
C2413 H2425 0.930 . S
C2414 C2410 1.524 . S
C2414 H2426 0.956 . S
C2414 H2427 0.961 . S
C2414 H2428 0.961 . S
C2415 C2412 1.539 . S
C2415 H2429 0.958 . S
C2415 H2430 0.961 . S
C2415 H2431 0.960 . S
H2416 C2400 0.931 . S
H2417 C2405 0.929 . S
H2418 C2406 0.960 . S
H2419 C2406 0.962 . S
H2420 C2406 0.960 . S
H2421 C2407 0.961 . S
H2422 C2407 0.961 . S
H2423 C2407 0.961 . S
H2424 C2408 0.931 . S
H2425 C2413 0.930 . S
H2426 C2414 0.956 . S
H2427 C2414 0.961 . S
H2428 C2414 0.961 . S
H2429 C2415 0.958 . S
H2430 C2415 0.961 . S
H2431 C2415 0.960 . S
C1409 C49 1.249 . S
C1417 C372 1.250 . S
C1441 C460 1.261 . S
C1449 C137 1.245 . S
C1473 C225 1.218 . S
C1481 C548 1.263 . S
C1505 C313 1.277 . S
C1513 C636 1.239 . S
C1537 C733 1.271 . S
C1545 C1105 1.224 . S
C1569 C1201 1.243 . S
C1577 C821 1.229 . S
C1601 C900 1.283 . S
C1609 C1289 1.227 . S
C1633 C988 1.214 . S
C1641 C1369 1.241 . S
C1665 C57 1.179 . S
C1673 C1340 1.172 . S
C1697 C1076 1.105 . S
C1705 C145 1.205 . S
C1729 C233 1.170 . S
C1737 C1173 1.175 . S
C1761 C1261 1.143 . S
C1769 C321 1.191 . S
C1793 C849 1.191 . S
C1801 C381 1.181 . S
C1825 C929 1.104 . S
C1833 C469 1.208 . S
C1857 C1017 1.188 . S
C1865 C557 1.190 . S
C1889 C761 1.122 . S
C1897 C645 1.197 . S
C1921 C724 1.222 . S
C1929 C673 1.135 . S
C1953 C409 1.156 . S
C1961 C812 1.209 . S
C1985 C497 1.162 . S
C1993 C909 1.205 . S
C2017 C997 1.184 . S
C2025 C585 1.168 . S
C2049 C117 1.152 . S
C2057 C1113 1.210 . S
C2081 C1193 1.214 . S
C2089 C205 1.142 . S
C2113 C1281 1.193 . S
C2121 C293 1.161 . S
C2145 C1377 1.179 . S
C2153 C29 1.170 . S
C2177 C665 1.466 . S
C2185 C20 1.446 . S
C2209 C108 1.413 . S
C2217 C401 1.454 . S
C2241 C196 1.422 . S
C2249 C489 1.457 . S
C2273 C284 1.468 . S
C2281 C577 1.444 . S
C2305 C1349 1.402 . S
C2313 C753 1.423 . S
C2337 C1085 1.405 . S
C2345 C841 1.422 . S
C2369 C1164 1.398 . S
C2377 C937 1.433 . S
C2401 C1252 1.446 . S
C2409 C1025 1.423 . S
