# Generated by pormake.
# Topology wju, (5)-cn, num edge types: 1
# Building blocks:
#     Node 0, Type 0, BuildingBlock: XOMCOT_clean_sbu_0, # of connection points: 5
#     Node 1, Type 0, BuildingBlock: XOMCOT_clean_sbu_0, # of connection points: 5
#     Node 2, Type 0, BuildingBlock: XOMCOT_clean_sbu_0, # of connection points: 5
#     Node 3, Type 0, BuildingBlock: XOMCOT_clean_sbu_0, # of connection points: 5
#     Node 4, Type 0, BuildingBlock: XOMCOT_clean_sbu_0, # of connection points: 5
#     Node 5, Type 0, BuildingBlock: XOMCOT_clean_sbu_0, # of connection points: 5
#     Node 6, Type 0, BuildingBlock: XOMCOT_clean_sbu_0, # of connection points: 5
#     Node 7, Type 0, BuildingBlock: XOMCOT_clean_sbu_0, # of connection points: 5
#     Node 8, Type 0, BuildingBlock: XOMCOT_clean_sbu_0, # of connection points: 5
#     Node 9, Type 0, BuildingBlock: XOMCOT_clean_sbu_0, # of connection points: 5
#     Node 10, Type 0, BuildingBlock: XOMCOT_clean_sbu_0, # of connection points: 5
#     Node 11, Type 0, BuildingBlock: XOMCOT_clean_sbu_0, # of connection points: 5
#     Edge 12, Type (0, 0), BuildingBlock: CIFDUS_clean_linker_0, # of connection points: 2
#     Edge 13, Type (0, 0), BuildingBlock: CIFDUS_clean_linker_0, # of connection points: 2
#     Edge 14, Type (0, 0), BuildingBlock: CIFDUS_clean_linker_0, # of connection points: 2
#     Edge 15, Type (0, 0), BuildingBlock: CIFDUS_clean_linker_0, # of connection points: 2
#     Edge 16, Type (0, 0), BuildingBlock: CIFDUS_clean_linker_0, # of connection points: 2
#     Edge 17, Type (0, 0), BuildingBlock: CIFDUS_clean_linker_0, # of connection points: 2
#     Edge 18, Type (0, 0), BuildingBlock: CIFDUS_clean_linker_0, # of connection points: 2
#     Edge 19, Type (0, 0), BuildingBlock: CIFDUS_clean_linker_0, # of connection points: 2
#     Edge 20, Type (0, 0), BuildingBlock: CIFDUS_clean_linker_0, # of connection points: 2
#     Edge 21, Type (0, 0), BuildingBlock: CIFDUS_clean_linker_0, # of connection points: 2
#     Edge 22, Type (0, 0), BuildingBlock: CIFDUS_clean_linker_0, # of connection points: 2
#     Edge 23, Type (0, 0), BuildingBlock: CIFDUS_clean_linker_0, # of connection points: 2
#     Edge 24, Type (0, 0), BuildingBlock: CIFDUS_clean_linker_0, # of connection points: 2
#     Edge 25, Type (0, 0), BuildingBlock: CIFDUS_clean_linker_0, # of connection points: 2
#     Edge 26, Type (0, 0), BuildingBlock: CIFDUS_clean_linker_0, # of connection points: 2
#     Edge 27, Type (0, 0), BuildingBlock: CIFDUS_clean_linker_0, # of connection points: 2
#     Edge 28, Type (0, 0), BuildingBlock: CIFDUS_clean_linker_0, # of connection points: 2
#     Edge 29, Type (0, 0), BuildingBlock: CIFDUS_clean_linker_0, # of connection points: 2
#     Edge 30, Type (0, 0), BuildingBlock: CIFDUS_clean_linker_0, # of connection points: 2
#     Edge 31, Type (0, 0), BuildingBlock: CIFDUS_clean_linker_0, # of connection points: 2
#     Edge 32, Type (0, 0), BuildingBlock: CIFDUS_clean_linker_0, # of connection points: 2
#     Edge 33, Type (0, 0), BuildingBlock: CIFDUS_clean_linker_0, # of connection points: 2
#     Edge 34, Type (0, 0), BuildingBlock: CIFDUS_clean_linker_0, # of connection points: 2
#     Edge 35, Type (0, 0), BuildingBlock: CIFDUS_clean_linker_0, # of connection points: 2
#     Edge 36, Type (0, 0), BuildingBlock: CIFDUS_clean_linker_0, # of connection points: 2
#     Edge 37, Type (0, 0), BuildingBlock: CIFDUS_clean_linker_0, # of connection points: 2
#     Edge 38, Type (0, 0), BuildingBlock: CIFDUS_clean_linker_0, # of connection points: 2
#     Edge 39, Type (0, 0), BuildingBlock: CIFDUS_clean_linker_0, # of connection points: 2
#     Edge 40, Type (0, 0), BuildingBlock: CIFDUS_clean_linker_0, # of connection points: 2
#     Edge 41, Type (0, 0), BuildingBlock: CIFDUS_clean_linker_0, # of connection points: 2
# Relax obj value: 0.108
# Max RMSD: 0.150
# Mean RMSD: 0.150
data_MOF--net-wju--node1-XOMCOT_clean_sbu_0--edge1-CIFDUS_clean_linker_0
_symmetry_space_group_name_H-M    P1
_symmetry_Int_Tables_number       1
_symmetry_cell_setting            triclinic
loop_
_symmetry_equiv_pos_as_xyz
'x, y, z'
_cell_length_a     24.589623
_cell_length_b     24.723452
_cell_length_c     91.601266
_cell_angle_alpha  90.438647
_cell_angle_beta   90.057357
_cell_angle_gamma 120.08308
loop_
_atom_site_label
_atom_site_type_symbol
_atom_site_fract_x
_atom_site_fract_y
_atom_site_fract_z
_atom_type_partial_charge
Co0 Co 0.33642 0.11366 0.10482 0.0
C1 C 0.33656 0.12321 0.13778 0.0
C2 C 0.27666 0.03057 0.1294 0.0
C3 C 0.2736 0.02866 0.14438 0.0
N4 N 0.31651 0.08965 0.12518 0.0
N5 N 0.31122 0.08688 0.14966 0.0
H6 H 0.36895 0.17278 0.13847 0.0
H7 H 0.25111 0.99132 0.12203 0.0
C8 C 0.21356 0.09082 0.09093 0.0
O9 O 0.24437 0.12688 0.07994 0.0
N10 N 0.35602 0.13501 0.08433 0.0
C11 C 0.39786 0.19072 0.07868 0.0
C12 C 0.39968 0.18423 0.06377 0.0
C13 C 0.33453 0.09504 0.07278 0.0
N14 N 0.35947 0.12407 0.05999 0.0
C15 C 0.41968 0.23647 0.11531 0.0
C16 C 0.35291 0.29327 0.10698 0.0
C17 C 0.41534 0.33074 0.11185 0.0
C18 C 0.44772 0.30095 0.11647 0.0
C19 C 0.32617 0.22804 0.10603 0.0
N20 N 0.3605 0.20039 0.10963 0.0
H21 H 0.44721 0.21613 0.11881 0.0
H22 H 0.2789 0.20103 0.10201 0.0
H23 H 0.42605 0.23319 0.08488 0.0
H24 H 0.29978 0.04605 0.07377 0.0
O25 O 0.4184 0.1232 0.10719 0.0
O26 O 0.3342 0.03441 0.10093 0.0
O27 O 0.24319 0.08478 0.10175 0.0
C28 C 0.39439 0.06495 0.10374 0.0
H29 H 0.24467 0.98778 0.15089 0.0
H30 H 0.42936 0.22115 0.05635 0.0
H31 H 0.32543 0.31419 0.1036 0.0
H32 H 0.49596 0.32726 0.12024 0.0
Co33 Co 0.20902 0.28956 0.44162 0.0
C34 C 0.18954 0.27691 0.47427 0.0
C35 C 0.27353 0.27801 0.46763 0.0
C36 C 0.26929 0.27317 0.48253 0.0
N37 N 0.2243 0.2818 0.46231 0.0
N38 N 0.21695 0.27331 0.4868 0.0
H39 H 0.14563 0.27689 0.4739 0.0
H40 H 0.31072 0.27854 0.46128 0.0
C41 C 0.1072 0.1584 0.43192 0.0
O42 O 0.09502 0.18054 0.42017 0.0
N43 N 0.19679 0.29649 0.42093 0.0
C44 C 0.1876 0.33921 0.41401 0.0
C45 C 0.19827 0.33669 0.39925 0.0
C46 C 0.21424 0.26996 0.41039 0.0
N47 N 0.21554 0.29331 0.39704 0.0
C48 C 0.16713 0.36538 0.45458 0.0
C49 C 0.05405 0.31787 0.44004 0.0
C50 C 0.08017 0.37702 0.44676 0.0
C51 C 0.13554 0.39882 0.45482 0.0
C52 C 0.08697 0.28517 0.44028 0.0
N53 N 0.14485 0.31095 0.44673 0.0
H54 H 0.21248 0.38605 0.45991 0.0
H55 H 0.0677 0.24214 0.4343 0.0
H56 H 0.17819 0.37278 0.41936 0.0
H57 H 0.22773 0.2354 0.41266 0.0
O58 O 0.27632 0.37443 0.44133 0.0
O59 O 0.28852 0.2933 0.43661 0.0
O60 O 0.14886 0.195 0.44123 0.0
C61 C 0.31341 0.35395 0.43765 0.0
H62 H 0.30252 0.26962 0.48962 0.0
H63 H 0.19745 0.36735 0.391 0.0
H64 H 1.01046 0.29877 0.43392 0.0
H65 H 0.15751 0.44413 0.46019 0.0
Co66 Co 0.94386 0.25449 0.77149 0.0
C67 C 0.92772 0.22522 0.80365 0.0
C68 C 1.0159 0.3067 0.7992 0.0
C69 C 1.01033 0.29818 0.81411 0.0
N70 N 0.96359 0.26126 0.79252 0.0
N71 N 0.95468 0.24688 0.81687 0.0
H72 H 0.88199 0.1842 0.80229 0.0
H73 H 0.05564 0.34439 0.79376 0.0
C74 C 0.95807 0.14233 0.77595 0.0
O75 O 0.91633 0.12362 0.78641 0.0
N76 N 0.9259 0.24936 0.75073 0.0
C77 C 0.87841 0.25334 0.74452 0.0
C78 C 0.88498 0.25425 0.72961 0.0
C79 C 0.96139 0.24888 0.73952 0.0
N80 N 0.93721 0.25155 0.72642 0.0
C81 C 0.82406 0.21229 0.78308 0.0
C82 C 0.76033 0.10764 0.76546 0.0
C83 C 0.72648 0.13001 0.77334 0.0
C84 C 0.75916 0.18094 0.78281 0.0
C85 C 0.82605 0.13969 0.7664 0.0
N86 N 0.85697 0.1924 0.77485 0.0
H87 H 0.84828 0.2548 0.7895 0.0
H88 H 0.85211 0.12562 0.75935 0.0
H89 H 0.84244 0.25716 0.75045 0.0
H90 H 1.00449 0.24777 0.74098 0.0
O91 O 0.93224 0.32493 0.77289 0.0
O92 O 0.023 0.33006 0.7678 0.0
O93 O 0.97229 0.1918 0.76883 0.0
C94 C 0.99098 0.35876 0.76952 0.0
H95 H 0.04479 0.32731 0.82225 0.0
H96 H 0.85487 0.25919 0.72176 0.0
H97 H 0.73677 0.06845 0.75796 0.0
H98 H 0.73498 0.1986 0.78947 0.0
Co99 Co 0.71578 0.91919 0.1085 0.0
C100 C 0.69847 0.89633 0.14077 0.0
C101 C 0.76875 0.98988 0.13511 0.0
C102 C 0.76518 0.98595 0.15003 0.0
N103 N 0.72689 0.93408 0.12929 0.0
N104 N 0.72116 0.9273 0.1536 0.0
H105 H 0.66223 0.84772 0.13982 0.0
H106 H 0.8003 0.03067 0.12889 0.0
C107 C 0.8392 0.93301 0.09819 0.0
O108 O 0.80972 0.89357 0.08744 0.0
N109 N 0.70684 0.90791 0.08733 0.0
C110 C 0.67921 0.8554 0.07899 0.0
C111 C 0.68329 0.87189 0.06452 0.0
C112 C 0.72773 0.95524 0.0777 0.0
N113 N 0.71347 0.93471 0.06377 0.0
C114 C 0.62532 0.79064 0.10952 0.0
C115 C 0.70135 0.7434 0.11757 0.0
C116 C 0.63699 0.70198 0.11493 0.0
C117 C 0.5991 0.72695 0.11126 0.0
C118 C 0.72623 0.80822 0.11576 0.0
N119 N 0.68836 0.83084 0.11128 0.0
H120 H 0.59411 0.80664 0.106 0.0
H121 H 0.77537 0.83966 0.11807 0.0
H122 H 0.65817 0.80808 0.08281 0.0
H123 H 0.75353 1.0041 0.08081 0.0
O124 O 0.63396 0.91094 0.10956 0.0
O125 O 0.721 1.00078 0.10639 0.0
O126 O 0.80852 0.9462 0.10744 0.0
C127 C 0.65993 0.97027 0.10754 0.0
H128 H 0.79416 0.02294 0.15769 0.0
H129 H 0.66434 0.83999 0.05531 0.0
H130 H 0.73207 0.72593 0.12078 0.0
H131 H 0.54892 0.69727 0.10958 0.0
Co132 Co 0.78649 0.65848 0.43601 0.0
C133 C 0.80522 0.6443 0.46774 0.0
C134 C 0.77739 0.71245 0.46364 0.0
C135 C 0.78321 0.70869 0.47847 0.0
N136 N 0.79149 0.67245 0.45691 0.0
N137 N 0.80095 0.66612 0.48103 0.0
H138 H 0.81817 0.60889 0.46597 0.0
H139 H 0.76387 0.74242 0.45809 0.0
C140 C 0.89129 0.78661 0.42778 0.0
O141 O 0.92048 0.76101 0.42126 0.0
N142 N 0.77804 0.64512 0.41474 0.0
C143 C 0.74785 0.58905 0.40777 0.0
C144 C 0.74305 0.5977 0.39319 0.0
C145 C 0.78754 0.68702 0.40411 0.0
N146 N 0.76783 0.65918 0.39085 0.0
C147 C 0.85324 0.59531 0.43058 0.0
C148 C 0.9583 0.66752 0.44754 0.0
C149 C 0.95019 0.61206 0.44112 0.0
C150 C 0.89703 0.57661 0.43245 0.0
C151 C 0.91282 0.68535 0.44516 0.0
N152 N 0.8608 0.64907 0.43669 0.0
H153 H 0.81061 0.56293 0.42515 0.0
H154 H 0.91791 0.72651 0.45067 0.0
H155 H 0.72668 0.54386 0.41291 0.0
H156 H 0.80581 0.73634 0.40602 0.0
O157 O 0.7268 0.5721 0.4392 0.0
O158 O 0.70151 0.64561 0.43612 0.0
O159 O 0.83701 0.75258 0.43342 0.0
C160 C 0.68322 0.58672 0.43831 0.0
H161 H 0.7768 0.73653 0.48673 0.0
H162 H 0.71943 0.56115 0.38505 0.0
H163 H 0.99821 0.69575 0.45459 0.0
H164 H 0.88657 0.53183 0.42788 0.0
Co165 Co 0.13408 0.81732 0.77322 0.0
C166 C 0.15934 0.84166 0.80543 0.0
C167 C 0.08301 0.74925 0.80097 0.0
C168 C 0.09504 0.75486 0.81568 0.0
N169 N 0.12421 0.80311 0.79435 0.0
N170 N 0.14349 0.81254 0.81849 0.0
H171 H 0.19754 0.88898 0.80394 0.0
H172 H 0.04686 0.70752 0.79566 0.0
C173 C 0.10742 0.92229 0.76718 0.0
O174 O 0.1312 0.9295 0.75405 0.0
N175 N 0.14167 0.82851 0.75218 0.0
C176 C 0.19034 0.8384 0.7436 0.0
C177 C 0.17068 0.82897 0.72921 0.0
C178 C 0.09284 0.81122 0.7429 0.0
N179 N 0.10918 0.8115 0.72883 0.0
C180 C 0.25541 0.852 0.78265 0.0
C181 C 0.31995 0.965 0.76857 0.0
C182 C 0.35335 0.93767 0.77438 0.0
C183 C 0.32032 0.88222 0.78219 0.0
C184 C 0.2544 0.93381 0.76968 0.0
N185 N 0.22284 0.87645 0.77604 0.0
H186 H 0.23085 0.80686 0.78781 0.0
H187 H 0.22968 0.95374 0.76443 0.0
H188 H 0.23569 0.84747 0.7475 0.0
H189 H 0.04568 0.79704 0.74648 0.0
O190 O 0.144 0.74645 0.77045 0.0
O191 O 0.0522 0.74327 0.76995 0.0
O192 O 0.10761 0.88232 0.77596 0.0
C193 C 0.08377 0.71386 0.76862 0.0
H194 H 0.07015 0.7189 0.82371 0.0
H195 H 0.19833 0.8305 0.71986 0.0
H196 H 0.34359 1.00814 0.76251 0.0
H197 H 0.34408 0.86067 0.78746 0.0
Co198 Co 0.89908 0.67794 0.60857 0.0
C199 C 0.86489 0.65217 0.57683 0.0
C200 C 0.96202 0.71998 0.58062 0.0
C201 C 0.95176 0.71207 0.56581 0.0
N202 N 0.90762 0.6829 0.58754 0.0
N203 N 0.89069 0.66982 0.56343 0.0
H204 H 0.81593 0.61848 0.57876 0.0
H205 H 1.00602 0.75142 0.58603 0.0
C206 C 0.92184 0.8078 0.61463 0.0
O207 O 0.86712 0.7827 0.62116 0.0
N208 N 0.89538 0.67436 0.62995 0.0
C209 C 0.86897 0.62237 0.63826 0.0
C210 C 0.88914 0.63806 0.65243 0.0
C211 C 0.93423 0.7205 0.63931 0.0
N212 N 0.9305 0.69975 0.65311 0.0
C213 C 0.7681 0.61508 0.61354 0.0
C214 C 0.73561 0.67834 0.59391 0.0
C215 C 0.68824 0.62296 0.60017 0.0
C216 C 0.70534 0.5932 0.61054 0.0
C217 C 0.79904 0.6996 0.59745 0.0
N218 N 0.81468 0.66698 0.60699 0.0
H219 H 0.77844 0.58623 0.62022 0.0
H220 H 0.83547 0.73963 0.59181 0.0
H221 H 0.84191 0.57486 0.63426 0.0
H222 H 0.968 0.76734 0.63599 0.0
O223 O 0.87274 0.59069 0.6074 0.0
O224 O 0.97181 0.66603 0.60979 0.0
O225 O 0.94222 0.77302 0.60942 0.0
C226 C 0.93122 0.60621 0.6087 0.0
H227 H 0.98594 0.73752 0.55741 0.0
H228 H 0.87861 0.60546 0.66126 0.0
H229 H 0.72408 0.70276 0.58582 0.0
H230 H 0.67031 0.55076 0.61578 0.0
Co231 Co 0.22594 0.92845 0.94117 0.0
C232 C 0.24983 0.94592 0.90864 0.0
C233 C 0.17007 0.9525 0.91556 0.0
C234 C 0.17561 0.96037 0.90078 0.0
N235 N 0.21717 0.9447 0.9207 0.0
N236 N 0.22541 0.95609 0.89639 0.0
H237 H 0.28841 0.93666 0.90867 0.0
H238 H 0.13114 0.94837 0.92185 0.0
C239 C 0.1386 0.97009 0.95646 0.0
O240 O 0.13407 0.9416 0.9688 0.0
N241 N 0.23487 0.91332 0.9616 0.0
C242 C 0.2315 0.86121 0.96698 0.0
C243 C 0.24529 0.86985 0.98166 0.0
C244 C 0.25332 0.95398 0.973 0.0
N245 N 0.25854 0.92807 0.98555 0.0
C246 C 0.16076 0.80914 0.92829 0.0
C247 C 0.07349 0.75015 0.94995 0.0
C248 C 0.08647 0.71354 0.94025 0.0
C249 C 0.12837 0.74422 0.92884 0.0
C250 C 0.10786 0.81566 0.9491 0.0
N251 N 0.15373 0.84437 0.93887 0.0
H252 H 0.19713 0.83089 0.92022 0.0
H253 H 0.10166 0.84237 0.95754 0.0
H254 H 0.22087 0.82003 0.9606 0.0
H255 H 0.26189 1.00121 0.97209 0.0
O256 O 0.28764 0.90507 0.93658 0.0
O257 O 0.3111 1.00171 0.94189 0.0
O258 O 0.17264 0.96859 0.94602 0.0
C259 C 0.33074 0.96261 0.93875 0.0
H260 H 0.14245 0.9638 0.8936 0.0
H261 H 0.24667 0.83593 0.98881 0.0
H262 H 0.03999 0.72883 0.9587 0.0
H263 H 0.14098 0.71922 0.92108 0.0
Co264 Co 0.31519 0.21908 0.27344 0.0
C265 C 0.32792 0.20712 0.24109 0.0
C266 C 0.25843 0.23183 0.2469 0.0
C267 C 0.26116 0.22986 0.23195 0.0
N268 N 0.30041 0.21807 0.25266 0.0
N269 N 0.30462 0.21425 0.22831 0.0
H270 H 0.36454 0.19517 0.24194 0.0
H271 H 0.22799 0.24286 0.25319 0.0
C272 C 0.19959 0.10875 0.28517 0.0
O273 O 0.23685 0.09949 0.29378 0.0
N274 N 0.32774 0.22223 0.29454 0.0
C275 C 0.37539 0.22535 0.30253 0.0
C276 C 0.36678 0.23493 0.31696 0.0
C277 C 0.29172 0.23128 0.3043 0.0
N278 N 0.31408 0.23869 0.3181 0.0
C279 C 0.40506 0.17927 0.27222 0.0
C280 C 0.32743 0.0563 0.26406 0.0
C281 C 0.39179 0.07813 0.2664 0.0
C282 C 0.43031 0.14065 0.27047 0.0
C283 C 0.30363 0.09713 0.26606 0.0
N284 N 0.34211 0.15736 0.27075 0.0
H285 H 0.43738 0.22734 0.27496 0.0
H286 H 0.25482 0.08043 0.26357 0.0
H287 H 0.4154 0.22352 0.29845 0.0
H288 H 0.2501 0.23293 0.30122 0.0
O289 O 0.3965 0.29223 0.27137 0.0
O290 O 0.3097 0.29522 0.2755 0.0
O291 O 0.22298 0.15324 0.27592 0.0
C292 C 0.37058 0.32566 0.2738 0.0
H293 H 0.23267 0.23827 0.2243 0.0
H294 H 0.39863 0.2412 0.32582 0.0
H295 H 0.29606 1.0086 0.26053 0.0
H296 H 0.48004 0.16004 0.27257 0.0
Co297 Co 0.10958 0.31261 0.60771 0.0
C298 C 0.09967 0.28224 0.57603 0.0
C299 C 0.03842 0.3172 0.58174 0.0
C300 C 0.03335 0.30526 0.56695 0.0
N301 N 0.08083 0.30367 0.58747 0.0
N302 N 0.0723 0.28382 0.56336 0.0
H303 H 0.13357 0.26668 0.57692 0.0
H304 H 1.01315 0.33546 0.58768 0.0
C305 C 0.08052 0.1807 0.61611 0.0
O306 O 0.11845 0.20216 0.62743 0.0
N307 N 0.13622 0.32105 0.62797 0.0
C308 C 0.19264 0.36269 0.63365 0.0
C309 C 0.1883 0.36128 0.64866 0.0
C310 C 0.09799 0.29633 0.6396 0.0
N311 N 0.12863 0.31954 0.65245 0.0
C312 C 0.22066 0.38248 0.59177 0.0
C313 C 0.29118 0.33409 0.60297 0.0
C314 C 0.32105 0.38855 0.59451 0.0
C315 C 0.28414 0.41091 0.5884 0.0
C316 C 0.22672 0.30633 0.60596 0.0
N317 N 0.19265 0.33202 0.6008 0.0
H318 H 0.19422 0.40304 0.58751 0.0
H319 H 0.20619 0.26721 0.61315 0.0
H320 H 0.23327 0.39449 0.62736 0.0
H321 H 0.04837 0.26284 0.63856 0.0
O322 O 0.12917 0.39803 0.60856 0.0
O323 O 0.03616 0.31786 0.61411 0.0
O324 O 0.07327 0.21788 0.60766 0.0
C325 C 0.07258 0.37845 0.61303 0.0
H326 H 1.00503 0.31409 0.55935 0.0
H327 H 0.22561 0.39137 0.65613 0.0
H328 H 0.31794 0.31513 0.60796 0.0
H329 H 0.30456 0.45167 0.58148 0.0
Co330 Co 0.80787 0.13413 0.94286 0.0
C331 C 0.8398 0.17165 0.91135 0.0
C332 C 0.81874 0.07819 0.91611 0.0
C333 C 0.83312 0.08898 0.90161 0.0
N334 N 0.82326 0.12982 0.92229 0.0
N335 N 0.84642 0.14765 0.89853 0.0
H336 H 0.84718 0.21838 0.91275 0.0
H337 H 0.80648 0.03559 0.92188 0.0
C338 C 0.91131 0.11678 0.95538 0.0
O339 O 0.92699 0.16593 0.96371 0.0
N340 N 0.78899 0.13243 0.96372 0.0
C341 C 0.75437 0.15413 0.97034 0.0
C342 C 0.74145 0.13262 0.98441 0.0
C343 C 0.79256 0.09445 0.97379 0.0
N344 N 0.7655 0.09499 0.98657 0.0
C345 C 0.86626 0.26241 0.95037 0.0
C346 C 0.97819 0.30404 0.93583 0.0
C347 C 0.96441 0.34789 0.94211 0.0
C348 C 0.90833 0.32589 0.94972 0.0
C349 C 0.93491 0.2396 0.9372 0.0
N350 N 0.87899 0.21954 0.94425 0.0
H351 H 0.82114 0.2488 0.9548 0.0
H352 H 0.94469 0.20619 0.93189 0.0
H353 H 0.73495 0.17978 0.96512 0.0
H354 H 0.81118 0.06395 0.97163 0.0
O355 O 0.74655 0.15764 0.93819 0.0
O356 O 0.72401 0.05975 0.94045 0.0
O357 O 0.86321 0.09581 0.94692 0.0
C358 C 0.70407 0.09911 0.93808 0.0
H359 H 0.83541 0.05648 0.894 0.0
H360 H 0.71272 0.14057 0.9921 0.0
H361 H 0.02081 0.31936 0.92961 0.0
H362 H 0.89444 0.3578 0.95424 0.0
Co363 Co 0.69246 0.79065 0.27572 0.0
C364 C 0.69012 0.80032 0.24288 0.0
C365 C 0.71939 0.73646 0.24989 0.0
C366 C 0.71955 0.73717 0.23492 0.0
N367 N 0.69975 0.77515 0.25502 0.0
N368 N 0.70078 0.77705 0.23047 0.0
H369 H 0.67639 0.83542 0.24297 0.0
H370 H 0.73397 0.70992 0.2565 0.0
C371 C 0.82373 0.89473 0.28491 0.0
O372 O 0.80205 0.9024 0.29736 0.0
N373 N 0.68558 0.80363 0.29645 0.0
C374 C 0.64882 0.82226 0.30312 0.0
C375 C 0.65387 0.81818 0.31803 0.0
C376 C 0.71084 0.78677 0.30738 0.0
N377 N 0.69304 0.79589 0.32071 0.0
C378 C 0.60682 0.82564 0.26498 0.0
C379 C 0.67236 0.95126 0.27195 0.0
C380 C 0.61055 0.92472 0.26656 0.0
C381 C 0.57865 0.86145 0.26274 0.0
C382 C 0.69934 0.91338 0.274 0.0
N383 N 0.66604 0.8509 0.27076 0.0
H384 H 0.58062 0.77708 0.26178 0.0
H385 H 0.74573 0.93427 0.27864 0.0
H386 H 0.61872 0.83593 0.29762 0.0
H387 H 0.74245 0.76897 0.30552 0.0
O388 O 0.60949 0.71887 0.27642 0.0
O389 O 0.69588 0.71515 0.28053 0.0
O390 O 0.78635 0.85554 0.27532 0.0
C391 C 0.63468 0.68534 0.27939 0.0
H392 H 0.73421 0.71151 0.22789 0.0
H393 H 0.6287 0.82869 0.3262 0.0
H394 H 0.69877 1.00022 0.27503 0.0
H395 H 0.53176 0.83935 0.25808 0.0
H396 H 0.30458 1.00134 0.05226 0.0
H397 H 0.38143 0.1863 0.0343 0.0
H398 H 0.35827 0.14233 1.00973 0.0
H399 H 0.31585 0.05134 0.99313 0.0
H400 H 0.23395 0.86622 1.0113 0.0
H401 H 0.25935 0.91047 0.03578 0.0
C402 C 0.31589 0.03226 0.04305 0.0
C403 C 0.34521 0.0974 0.04535 0.0
C404 C 0.30162 1.00658 0.02882 0.0
C405 C 0.35994 0.13619 0.03306 0.0
C406 C 0.34626 0.11099 1.0189 0.0
C407 C 0.30304 0.02045 1.00239 0.0
C408 C 0.27337 0.95523 1.00013 0.0
C409 C 0.31707 0.04622 1.01663 0.0
C410 C 0.25787 0.91652 1.01247 0.0
C411 C 0.272 0.94181 0.02659 0.0
H412 H 0.18829 0.30889 0.36922 0.0
H413 H 0.29521 0.2477 0.39464 0.0
H414 H 0.33268 0.22331 0.37248 0.0
H415 H 0.33625 0.21952 0.34592 0.0
H416 H 0.23469 0.28548 0.32008 0.0
H417 H 0.19399 0.30722 0.34227 0.0
C418 C 0.22006 0.2906 0.36991 0.0
C419 C 0.23805 0.27966 0.3837 0.0
C420 C 0.24247 0.27724 0.35701 0.0
C421 C 0.27905 0.25541 0.38431 0.0
C422 C 0.30111 0.24182 0.37158 0.0
C423 C 0.3058 0.23927 0.34506 0.0
C424 C 0.28899 0.25084 0.33123 0.0
C425 C 0.28321 0.25255 0.35788 0.0
C426 C 0.24816 0.27526 0.33049 0.0
C427 C 0.22507 0.28818 0.34322 0.0
H428 H 0.05915 0.29409 0.71924 0.0
H429 H 0.87298 0.21701 0.70082 0.0
H430 H 0.91567 0.23059 0.67631 0.0
H431 H 1.00584 0.26823 0.65999 0.0
H432 H 0.19205 0.34158 0.67818 0.0
H433 H 0.14924 0.32556 0.70277 0.0
C434 C 0.02776 0.27942 0.7099 0.0
C435 C 0.96283 0.25521 0.71199 0.0
C436 C 0.05267 0.28715 0.69571 0.0
C437 C 0.92319 0.23699 0.69964 0.0
C438 C 0.94756 0.24445 0.68556 0.0
C439 C 0.03728 0.28 0.66925 0.0
C440 C 0.10247 0.30672 0.66704 0.0
C441 C 1.0123 0.27016 0.68344 0.0
C442 C 0.14193 0.3221 0.67939 0.0
C443 C 0.11739 0.31257 0.69353 0.0
H444 H 0.75427 0.12506 1.01422 0.0
H445 H 0.76132 0.98311 0.98798 0.0
H446 H 0.74734 0.92128 1.00975 0.0
H447 H 0.73074 0.90639 0.03627 0.0
H448 H 0.7215 0.0477 0.0623 0.0
H449 H 0.73861 0.11073 0.04063 0.0
C450 C 0.75229 0.0804 1.01324 0.0
C451 C 0.75861 0.05884 0.99945 0.0
C452 C 0.74388 0.04489 0.0258 0.0
C453 C 0.75724 1.00135 0.99843 0.0
C454 C 0.74883 0.96567 1.01089 0.0
C455 C 0.73216 0.95081 0.03718 0.0
C456 C 0.72493 0.97222 0.05092 0.0
C457 C 0.74172 0.98681 0.02462 0.0
C458 C 0.72782 0.03041 0.05193 0.0
C459 C 0.73718 0.06636 0.03951 0.0
H460 H 0.73639 0.71671 0.32616 0.0
H461 H 0.68813 0.84357 0.34726 0.0
H462 H 0.71192 0.81628 0.37106 0.0
H463 H 0.74136 0.75161 0.38609 0.0
H464 H 0.78937 0.62576 0.36455 0.0
H465 H 0.77246 0.65867 0.34075 0.0
C466 C 0.73197 0.7394 0.33588 0.0
C467 C 0.70997 0.78198 0.33478 0.0
C468 C 0.74598 0.72371 0.34953 0.0
C469 C 0.70382 0.80982 0.34768 0.0
C470 C 0.71787 0.79455 0.36134 0.0
C471 C 0.74927 0.7325 0.37616 0.0
C472 C 0.76635 0.68613 0.37706 0.0
C473 C 0.73833 0.75096 0.36243 0.0
C474 C 0.7757 0.6611 0.36411 0.0
C475 C 0.76594 0.67981 0.3505 0.0
H476 H 0.13836 0.84754 0.70078 0.0
H477 H 0.98573 0.72371 0.72871 0.0
H478 H 0.91571 0.68193 0.7077 0.0
H479 H 0.89865 0.67638 0.68129 0.0
H480 H 0.05083 0.79711 0.65297 0.0
H481 H 0.11973 0.8448 0.67416 0.0
C482 C 0.08979 0.81142 0.70224 0.0
C483 C 0.06751 0.78897 0.71634 0.0
C484 C 0.04956 0.78707 0.69002 0.0
C485 C 1.00413 0.74265 0.71806 0.0
C486 C 0.96401 0.71832 0.70601 0.0
C487 C 0.94689 0.71316 0.67975 0.0
C488 C 0.96954 0.73268 0.66555 0.0
C489 C 0.98637 0.73966 0.69195 0.0
C490 C 0.03188 0.78138 0.66376 0.0
C491 C 0.07151 0.80833 0.67588 0.0
H492 H 0.53385 0.90966 0.1044 0.0
H493 H 0.69603 0.09499 0.10743 0.0
H494 H 0.62723 0.14017 0.10604 0.0
H495 H 0.52125 0.12633 0.10477 0.0
H496 H 0.35933 0.94092 0.10146 0.0
H497 H 0.42839 0.896 0.10207 0.0
C498 C 0.55436 0.96005 0.10476 0.0
C499 C 0.62003 0.99908 0.10617 0.0
C500 C 0.51466 0.98537 0.1039 0.0
C501 C 0.64574 0.0641 0.10641 0.0
C502 C 0.60639 0.0898 0.10563 0.0
C503 C 0.50091 0.07601 0.10415 0.0
C504 C 0.4351 0.03682 0.10319 0.0
C505 C 0.54082 0.05079 0.1045 0.0
C506 C 0.40969 0.97192 0.10222 0.0
C507 C 0.44916 0.94635 0.10261 0.0
H508 H 0.41647 0.34341 0.44371 0.0
H509 H 0.35867 0.4679 0.42601 0.0
H510 H 0.46773 0.55197 0.4248 0.0
H511 H 0.57971 0.59219 0.4299 0.0
H512 H 0.6379 0.46845 0.44797 0.0
H513 H 0.52937 0.38295 0.44809 0.0
C514 C 0.42813 0.3886 0.43934 0.0
C515 C 0.37995 0.39955 0.43494 0.0
C516 C 0.49108 0.43747 0.43901 0.0
C517 C 0.39528 0.45856 0.4295 0.0
C518 C 0.45756 0.5068 0.42887 0.0
C519 C 0.56846 0.54663 0.43394 0.0
C520 C 0.61665 0.5369 0.43901 0.0
C521 C 0.50583 0.49725 0.43387 0.0
C522 C 0.60154 0.47731 0.44404 0.0
C523 C 0.53946 0.42816 0.44407 0.0
H524 H 0.1434 0.64997 0.76334 0.0
H525 H 0.95844 0.62601 0.76938 0.0
H526 H 0.91317 0.51227 0.76935 0.0
H527 H 0.92812 0.42177 0.76966 0.0
H528 H 0.11387 0.44643 0.76464 0.0
H529 H 0.1576 0.55935 0.76231 0.0
C530 C 0.09303 0.61994 0.76454 0.0
C531 C 0.05416 0.64601 0.76654 0.0
C532 C 0.06798 0.55538 0.76488 0.0
C533 C 0.98909 0.60674 0.76787 0.0
C534 C 0.96342 0.54196 0.76794 0.0
C535 C 0.97824 0.45176 0.76804 0.0
C536 C 0.01808 0.42621 0.76752 0.0
C537 C 1.00275 0.51608 0.76682 0.0
C538 C 0.08258 0.46533 0.76519 0.0
C539 C 0.10743 0.52965 0.76384 0.0
H540 H 0.9556 0.36327 0.60886 0.0
H541 H 0.1448 0.49816 0.62196 0.0
H542 H 0.11881 0.58129 0.62186 0.0
H543 H 0.04403 0.61744 0.61652 0.0
H544 H 0.85537 0.48269 0.60286 0.0
H545 H 0.87946 0.39873 0.60455 0.0
C546 C 0.99057 0.41061 0.61198 0.0
C547 C 0.05186 0.42453 0.61543 0.0
C548 C 0.97581 0.45879 0.61152 0.0
C549 C 0.09715 0.48631 0.61924 0.0
C550 C 0.08251 0.53403 0.61911 0.0
C551 C 1.00837 0.56975 0.61388 0.0
C552 C 0.94826 0.55667 0.60946 0.0
C553 C 0.02238 0.52119 0.61493 0.0
C554 C 0.90227 0.49436 0.60624 0.0
C555 C 0.91584 0.44603 0.60724 0.0
H556 H 0.59806 0.98223 0.93951 0.0
H557 H 0.65842 0.17753 0.93398 0.0
H558 H 0.55002 0.15415 0.93394 0.0
H559 H 0.43656 0.07865 0.93611 0.0
H560 H 0.37576 0.88297 0.94076 0.0
H561 H 0.48426 0.90607 0.94054 0.0
C562 C 0.58741 0.01949 0.93816 0.0
C563 C 0.63674 0.08146 0.93678 0.0
C564 C 0.52427 1.00583 0.93809 0.0
C565 C 0.62175 0.12919 0.93507 0.0
C566 C 0.55948 0.11603 0.93509 0.0
C567 C 0.44717 0.04121 0.93708 0.0
C568 C 0.39788 0.97931 0.93848 0.0
C569 C 0.51019 0.05461 0.93673 0.0
C570 C 0.41261 0.93122 0.93961 0.0
C571 C 0.47486 0.94428 0.9395 0.0
H572 H 0.49716 0.3914 0.27605 0.0
H573 H 0.33395 0.41376 0.27568 0.0
H574 H 0.40214 0.52726 0.27834 0.0
H575 H 0.50778 0.61941 0.27991 0.0
H576 H 0.67091 0.59691 0.28028 0.0
H577 H 0.60249 0.48315 0.27871 0.0
C578 C 0.4763 0.421 0.27651 0.0
C579 C 0.41047 0.39425 0.27549 0.0
C580 C 0.51568 0.48579 0.27814 0.0
C581 C 0.38436 0.43323 0.27634 0.0
C582 C 0.42335 0.49801 0.27788 0.0
C583 C 0.52854 0.58968 0.27976 0.0
C584 C 0.59449 0.61658 0.28016 0.0
C585 C 0.48902 0.5247 0.2787 0.0
C586 C 0.62043 0.57738 0.28004 0.0
C587 C 0.58131 0.51244 0.27905 0.0
H588 H 0.31404 0.11713 0.21794 0.0
H589 H 0.32596 0.29039 0.20566 0.0
H590 H 0.33503 0.26895 0.17992 0.0
H591 H 0.32921 0.19606 0.16073 0.0
H592 H 0.3109 0.01961 0.17281 0.0
H593 H 0.31458 0.04662 0.19867 0.0
C594 C 0.32004 0.15057 0.20961 0.0
C595 C 0.31954 0.20529 0.21362 0.0
C596 C 0.32309 0.13681 0.19477 0.0
C597 C 0.32615 0.24795 0.20275 0.0
C598 C 0.33113 0.23559 0.18806 0.0
C599 C 0.32716 0.16407 0.16903 0.0
C600 C 0.31942 0.10577 0.16484 0.0
C601 C 0.32808 0.17945 0.18389 0.0
C602 C 0.31598 0.06442 0.17575 0.0
C603 C 0.3183 0.07993 0.19054 0.0
H604 H 0.10042 0.24141 0.49667 0.0
H605 H 0.2918 0.31001 0.51087 0.0
H606 H 0.26254 0.31465 0.5359 0.0
H607 H 0.18439 0.30437 0.55382 0.0
H608 H 0.99396 0.24031 0.53998 0.0
H609 H 0.02124 0.22971 0.51484 0.0
C610 C 0.13582 0.25757 0.50519 0.0
C611 C 0.19824 0.27476 0.50171 0.0
C612 C 0.11894 0.26128 0.51971 0.0
C613 C 0.24313 0.2951 0.51308 0.0
C614 C 0.22659 0.29833 0.52748 0.0
C615 C 0.1486 0.28705 0.54536 0.0
C616 C 0.0872 0.27294 0.54879 0.0
C617 C 0.1648 0.28186 0.53092 0.0
C618 C 0.04168 0.25187 0.5376 0.0
C619 C 0.05725 0.24573 0.52323 0.0
H620 H 0.97667 0.30831 0.84282 0.0
H621 H 0.8729 0.12556 0.82267 0.0
H622 H 0.8263 0.08015 0.84606 0.0
H623 H 0.8166 0.09112 0.87222 0.0
H624 H 0.92301 0.27156 0.89317 0.0
H625 H 0.96599 0.31934 0.86946 0.0
C626 C 0.94425 0.25852 0.84358 0.0
C627 C 0.92835 0.22054 0.83092 0.0
C628 C 0.9177 0.23235 0.85719 0.0
C629 C 0.88542 0.15617 0.83211 0.0
C630 C 0.85889 0.13002 0.84552 0.0
C631 C 0.84949 0.14088 0.87167 0.0
C632 C 0.86703 0.1775 0.88452 0.0
C633 C 0.87486 0.16755 0.85812 0.0
C634 C 0.90836 0.24226 0.88347 0.0
C635 C 0.93339 0.26947 0.86992 0.0
H636 H 0.69476 0.81329 0.16272 0.0
H637 H 0.71648 0.98903 0.17743 0.0
H638 H 0.70882 0.95666 0.20281 0.0
H639 H 0.7056 0.88254 0.22079 0.0
H640 H 0.68317 0.70595 0.20625 0.0
H641 H 0.68201 0.73466 0.18092 0.0
C642 C 0.69644 0.84377 0.17149 0.0
C643 C 0.70672 0.90362 0.16824 0.0
C644 C 0.69305 0.82521 0.18611 0.0
C645 C 0.70946 0.94305 0.17971 0.0
C646 C 0.70512 0.9246 0.19421 0.0
C647 C 0.69938 0.84975 0.21215 0.0
C648 C 0.69543 0.79248 0.21554 0.0
C649 C 0.6985 0.86642 0.19756 0.0
C650 C 0.68791 0.75103 0.20404 0.0
C651 C 0.68673 0.76718 0.18951 0.0
H652 H 0.74274 0.65471 0.50655 0.0
H653 H 0.8993 0.64981 0.48692 0.0
H654 H 0.9389 0.64479 0.51114 0.0
H655 H 0.93443 0.653 0.53796 0.0
H656 H 0.77681 0.65603 0.55756 0.0
H657 H 0.73145 0.64974 0.53336 0.0
C658 C 0.78507 0.65173 0.50763 0.0
C659 C 0.81849 0.65325 0.49503 0.0
C660 C 0.80735 0.64882 0.52157 0.0
C661 C 0.87275 0.64843 0.49648 0.0
C662 C 0.89557 0.64604 0.51031 0.0
C663 C 0.88973 0.65137 0.53688 0.0
C664 C 0.85921 0.65551 0.54948 0.0
C665 C 0.86412 0.64786 0.52294 0.0
C666 C 0.80091 0.65254 0.54802 0.0
C667 C 0.77529 0.64948 0.53419 0.0
H668 H 0.22035 0.85482 0.88441 0.0
H669 H 0.24884 0.03702 0.87476 0.0
H670 H 0.23366 0.01121 0.84864 0.0
H671 H 0.19449 0.93021 0.82922 0.0
H672 H 0.15928 0.74556 0.83942 0.0
H673 H 0.19461 0.77824 0.86449 0.0
C674 C 0.22581 0.88948 0.87647 0.0
C675 C 0.23641 0.94788 0.88136 0.0
C676 C 0.21387 0.87304 0.86159 0.0
C677 C 0.24153 0.99209 0.8711 0.0
C678 C 0.23202 0.97699 0.85622 0.0
C679 C 0.19592 0.89771 0.83687 0.0
C680 C 0.17305 0.83527 0.83255 0.0
C681 C 0.21537 0.91662 0.85141 0.0
C682 C 0.17509 0.79348 0.84259 0.0
C683 C 0.19565 0.81221 0.85692 0.0
H684 H 0.55442 0.61655 0.0958 0.0
H685 H 0.65114 0.6324 0.1363 0.0
H686 H 0.5885 0.51867 0.13935 0.0
H687 H 0.50243 0.41599 0.13103 0.0
H688 H 0.4063 0.40215 0.09045 0.0
H689 H 0.47009 0.51487 0.0874 0.0
C690 C 0.56188 0.59516 0.10532 0.0
C691 C 0.60705 0.6329 0.11588 0.0
C692 C 0.52455 0.53052 0.10719 0.0
C693 C 0.61708 0.60437 0.12797 0.0
C694 C 0.58068 0.53952 0.12979 0.0
C695 C 0.49552 0.43749 0.12147 0.0
C696 C 0.44927 0.40025 0.111 0.0
C697 C 0.53358 0.50232 0.11958 0.0
C698 C 0.44045 0.4294 0.09884 0.0
C699 C 0.47762 0.49384 0.09696 0.0
H700 H 0.06462 0.45396 0.46587 0.0
H701 H 0.0449 0.39896 0.42046 0.0
H702 H 1.01468 0.47613 0.41443 0.0
H703 H 0.99059 0.55624 0.42202 0.0
H704 H 0.99933 0.60533 0.46758 0.0
H705 H 0.04161 0.53688 0.47348 0.0
C706 C 0.05348 0.45884 0.45468 0.0
C707 C 0.05596 0.41998 0.44366 0.0
C708 C 0.03602 0.50348 0.45127 0.0
C709 C 0.04166 0.42698 0.4292 0.0
C710 C 0.02534 0.47177 0.4257 0.0
C711 C 1.00219 0.55237 0.43325 0.0
C712 C 0.9911 0.58526 0.44435 0.0
C713 C 0.02211 0.50995 0.43664 0.0
C714 C 1.00782 0.58094 0.45879 0.0
C715 C 0.03086 0.54088 0.4622 0.0
H716 H 0.44361 0.06076 0.77353 0.0
H717 H 0.41672 0.87471 0.76942 0.0
H718 H 0.52974 0.91756 0.76817 0.0
H719 H 0.63657 1.00749 0.77006 0.0
H720 H 0.66273 0.19368 0.77179 0.0
H721 H 0.54959 0.15092 0.77188 0.0
C722 C 0.46224 0.02956 0.77208 0.0
C723 C 0.42169 0.96464 0.77202 0.0
C724 C 0.52727 0.05441 0.77102 0.0
C725 C 0.44694 0.92495 0.77009 0.0
C726 C 0.51161 0.94933 0.76922 0.0
C727 C 0.61753 0.0387 0.77019 0.0
C728 C 0.65799 0.10345 0.77139 0.0
C729 C 0.5523 0.01395 0.76999 0.0
C730 C 0.63253 0.14337 0.77143 0.0
C731 C 0.56782 0.11909 0.77138 0.0
H732 H 0.61477 0.50272 0.59195 0.0
H733 H 0.61144 0.67371 0.59879 0.0
H734 H 0.49635 0.61592 0.59654 0.0
H735 H 0.39717 0.51512 0.59573 0.0
H736 H 0.40152 0.34383 0.58991 0.0
H737 H 0.51628 0.4034 0.58909 0.0
C738 C 0.58879 0.52744 0.59276 0.0
C739 C 0.62122 0.5922 0.59571 0.0
C740 C 0.52305 0.49367 0.59198 0.0
C741 C 0.58743 0.62396 0.59649 0.0
C742 C 0.5217 0.59077 0.59537 0.0
C743 C 0.42305 0.49079 0.59398 0.0
C744 C 0.39062 0.42487 0.59294 0.0
C745 C 0.48902 0.52535 0.59359 0.0
C746 C 0.42519 0.39426 0.59095 0.0
C747 C 0.49077 0.42835 0.59039 0.0
H748 H 0.06049 0.62001 0.92009 0.0
H749 H 0.06249 0.65352 0.96656 0.0
H750 H 0.03261 0.54554 0.97122 0.0
H751 H 1.00394 0.44085 0.96224 0.0
H752 H 1.00516 0.40739 0.91604 0.0
H753 H 0.04059 0.51753 0.91124 0.0
C754 C 0.05537 0.60437 0.93128 0.0
C755 C 0.06333 0.6457 0.94291 0.0
C756 C 0.04054 0.54251 0.93398 0.0
C757 C 0.05499 0.62313 0.95729 0.0
C758 C 0.03897 0.56139 0.96002 0.0
C759 C 1.01334 0.4581 0.95114 0.0
C760 C 1.00211 0.41616 0.93951 0.0
C761 C 0.03167 0.52076 0.94847 0.0
C762 C 1.0144 0.43894 0.92518 0.0
C763 C 0.03353 0.50164 0.92244 0.0
H764 H 0.49034 0.88861 0.27409 0.0
H765 H 0.65723 0.04269 0.25571 0.0
H766 H 0.60159 0.10079 0.25258 0.0
H767 H 0.50635 0.10799 0.25534 0.0
H768 H 0.3412 0.95624 0.27497 0.0
H769 H 0.39435 0.89525 0.27649 0.0
C770 C 0.51444 0.93473 0.26927 0.0
C771 C 0.57792 0.96131 0.26511 0.0
C772 C 0.48214 0.96763 0.26748 0.0
C773 C 0.60872 0.02151 0.25915 0.0
C774 C 0.57674 0.05444 0.25723 0.0
C775 C 0.48188 0.06165 0.26002 0.0
C776 C 0.41995 0.03714 0.26521 0.0
C777 C 0.51356 0.02799 0.26141 0.0
C778 C 0.38854 0.9762 0.2708 0.0
C779 C 0.41924 0.94162 0.27185 0.0
H780 H 0.13072 0.06458 0.11358 0.0
H781 H 0.13977 0.04243 0.06706 0.0
H782 H 0.02545 0.98957 0.06528 0.0
H783 H 0.92264 0.95164 0.0767 0.0
H784 H 0.912 0.98068 0.12283 0.0
H785 H 0.02642 0.02873 0.12502 0.0
C786 C 0.10745 0.04778 0.1031 0.0
C787 C 0.14375 0.05724 0.09047 0.0
C788 C 0.04125 0.01887 0.10207 0.0
C789 C 0.11301 0.03598 0.07693 0.0
C790 C 0.04755 1.00564 0.0759 0.0
C791 C 0.94528 0.96819 0.08726 0.0
C792 C 0.90865 0.96217 0.09959 0.0
C793 C 1.01117 0.99716 0.08836 0.0
C794 C 0.93901 0.98478 0.11314 0.0
C795 C 1.0045 0.01217 0.11441 0.0
H796 H 0.98634 0.07569 0.42465 0.0
H797 H 0.1529 0.08691 0.44319 0.0
H798 H 0.10114 0.97245 0.44331 0.0
H799 H 1.00968 0.8689 0.43696 0.0
H800 H 0.84021 0.85811 0.42057 0.0
H801 H 0.89164 0.97254 0.42073 0.0
C802 C 1.01104 0.05298 0.42885 0.0
C803 C 0.07351 0.08963 0.43381 0.0
C804 C 0.98053 0.98727 0.42914 0.0
C805 C 0.10474 0.05971 0.43938 0.0
C806 C 0.07527 0.99429 0.43935 0.0
C807 C 0.98419 0.89186 0.43346 0.0
C808 C 0.92164 0.8555 0.42855 0.0
C809 C 1.01349 0.95759 0.43405 0.0
C810 C 0.88846 0.88535 0.42432 0.0
C811 C 0.91788 0.95067 0.42441 0.0
H812 H 0.95979 0.05092 0.79202 0.0
H813 H 0.02722 0.15313 0.75181 0.0
H814 H 0.08042 0.0951 0.74585 0.0
H815 H 0.10716 0.01538 0.75187 0.0
H816 H 0.04157 0.91316 0.79211 0.0
H817 H 0.98869 0.97174 0.7983 0.0
C818 C 0.98593 0.06031 0.78193 0.0
C819 C 0.98931 0.10614 0.77235 0.0
C820 C 0.01699 0.02711 0.77861 0.0
C821 C 0.02389 0.11818 0.75939 0.0
C822 C 0.05436 0.08503 0.75596 0.0
C823 C 0.08148 1.00585 0.76203 0.0
C824 C 0.07822 0.95975 0.77149 0.0
C825 C 0.05121 0.03946 0.76549 0.0
C826 C 0.04493 0.94842 0.78464 0.0
C827 C 1.0145 0.98176 0.78816 0.0
H828 H 0.88474 0.89178 0.60837 0.0
H829 H 0.04759 0.87867 0.61997 0.0
H830 H 0.11143 0.99297 0.62132 0.0
H831 H 0.11969 0.09678 0.62026 0.0
H832 H 0.95947 0.11039 0.6064 0.0
H833 H 0.89597 0.99614 0.60472 0.0
C834 C 0.93433 0.91413 0.6111 0.0
C835 C 0.96138 0.87693 0.6142 0.0
C836 C 0.97111 0.97996 0.61145 0.0
C837 C 0.02581 0.90633 0.61751 0.0
C838 C 0.06222 0.97166 0.61834 0.0
C839 C 0.07097 0.07465 0.61676 0.0
C840 C 0.04411 0.11198 0.61359 0.0
C841 C 0.03523 1.00897 0.61548 0.0
C842 C 0.98124 0.08276 0.60887 0.0
C843 C 0.94486 0.0174 0.60798 0.0
H844 H 0.99252 0.10937 0.9364 0.0
H845 H 0.90927 0.04962 0.9788 0.0
H846 H 0.97157 0.99873 0.98298 0.0
H847 H 0.05146 0.9728 0.97474 0.0
H848 H 0.1406 0.03972 0.93301 0.0
H849 H 0.07496 0.08592 0.92845 0.0
C850 C 0.98767 0.08449 0.94646 0.0
C851 C 0.94567 0.0822 0.95719 0.0
C852 C 0.02515 0.0569 0.94895 0.0
C853 C 0.94077 0.05123 0.97033 0.0
C854 C 0.97662 0.02242 0.97274 0.0
C855 C 0.05677 0.99758 0.96465 0.0
C856 C 0.10065 1.00153 0.95416 0.0
C857 C 0.01939 0.02528 0.96217 0.0
C858 C 0.10669 0.03447 0.94121 0.0
C859 C 0.06918 0.06131 0.93859 0.0
H860 H 0.10675 0.06413 0.26414 0.0
H861 H 0.13772 0.06511 0.31052 0.0
H862 H 0.02489 1.0004 0.31448 0.0
H863 H 0.91741 0.94307 0.30493 0.0
H864 H 0.88422 0.93337 0.25853 0.0
H865 H 0.9974 1.00117 0.25436 0.0
C866 C 0.08853 0.05021 0.27509 0.0
C867 C 0.13055 0.06966 0.28704 0.0
C868 C 0.02319 0.01115 0.27727 0.0
C869 C 0.10646 0.0506 0.30115 0.0
C870 C 0.04188 0.01365 0.30343 0.0
C871 C 0.93485 0.95583 0.29389 0.0
C872 C 0.8923 0.93359 0.28207 0.0
C873 C 0.99984 0.99355 0.29159 0.0
C874 C 0.91592 0.94978 0.26782 0.0
C875 C 0.98065 0.98874 0.26545 0.0
loop_
_geom_bond_atom_site_label_1
_geom_bond_atom_site_label_2
_geom_bond_distance
_geom_bond_site_symmetry_2
_ccdc_geom_bond_type
Co0 N4 2.148 . S
Co0 N10 2.128 . S
Co0 N20 2.194 . S
Co0 O25 2.351 . S
Co0 O26 2.155 . S
Co0 O27 2.096 . S
C1 N4 1.301 . S
C1 N5 1.328 . S
C1 H6 0.930 . S
C2 C3 1.333 . S
C2 N4 1.317 . S
C2 H7 0.930 . S
C3 C2 1.333 . S
C3 N5 1.350 . S
C3 H29 0.931 . S
N4 Co0 2.148 . S
N4 C1 1.301 . S
N4 C2 1.317 . S
N5 C1 1.328 . S
N5 C3 1.350 . S
H6 C1 0.930 . S
H7 C2 0.930 . S
C8 O9 1.224 . S
C8 O27 1.247 . S
O9 C8 1.224 . S
N10 Co0 2.128 . S
N10 C11 1.355 . S
N10 C13 1.311 . S
C11 N10 1.355 . S
C11 C12 1.363 . S
C11 H23 0.929 . S
C12 C11 1.363 . S
C12 N14 1.375 . S
C12 H30 0.931 . S
C13 N10 1.311 . S
C13 N14 1.347 . S
C13 H24 0.929 . S
N14 C12 1.375 . S
N14 C13 1.347 . S
C15 C18 1.365 . S
C15 N20 1.328 . S
C15 H21 0.929 . S
C16 C17 1.362 . S
C16 C19 1.378 . S
C16 H31 0.929 . S
C17 C16 1.362 . S
C17 C18 1.366 . S
C18 C15 1.365 . S
C18 C17 1.366 . S
C18 H32 0.930 . S
C19 C16 1.378 . S
C19 N20 1.315 . S
C19 H22 0.930 . S
N20 Co0 2.194 . S
N20 C15 1.328 . S
N20 C19 1.315 . S
H21 C15 0.929 . S
H22 C19 0.930 . S
H23 C11 0.929 . S
H24 C13 0.929 . S
O25 Co0 2.351 . S
O25 C28 1.244 . S
O26 Co0 2.155 . S
O26 C28 1.240 . S
O27 Co0 2.096 . S
O27 C8 1.247 . S
C28 O25 1.244 . S
C28 O26 1.240 . S
H29 C3 0.931 . S
H30 C12 0.931 . S
H31 C16 0.929 . S
H32 C18 0.930 . S
Co33 N37 2.148 . S
Co33 N43 2.128 . S
Co33 N53 2.194 . S
Co33 O58 2.351 . S
Co33 O59 2.155 . S
Co33 O60 2.096 . S
C34 N37 1.301 . S
C34 N38 1.328 . S
C34 H39 0.930 . S
C35 C36 1.333 . S
C35 N37 1.317 . S
C35 H40 0.930 . S
C36 C35 1.333 . S
C36 N38 1.350 . S
C36 H62 0.931 . S
N37 Co33 2.148 . S
N37 C34 1.301 . S
N37 C35 1.317 . S
N38 C34 1.328 . S
N38 C36 1.350 . S
H39 C34 0.930 . S
H40 C35 0.930 . S
C41 O42 1.224 . S
C41 O60 1.247 . S
O42 C41 1.224 . S
N43 Co33 2.128 . S
N43 C44 1.355 . S
N43 C46 1.311 . S
C44 N43 1.355 . S
C44 C45 1.363 . S
C44 H56 0.929 . S
C45 C44 1.363 . S
C45 N47 1.375 . S
C45 H63 0.931 . S
C46 N43 1.311 . S
C46 N47 1.347 . S
C46 H57 0.929 . S
N47 C45 1.375 . S
N47 C46 1.347 . S
C48 C51 1.365 . S
C48 N53 1.328 . S
C48 H54 0.929 . S
C49 C50 1.362 . S
C49 C52 1.378 . S
C49 H64 0.929 . S
C50 C49 1.362 . S
C50 C51 1.366 . S
C51 C48 1.365 . S
C51 C50 1.366 . S
C51 H65 0.930 . S
C52 C49 1.378 . S
C52 N53 1.315 . S
C52 H55 0.930 . S
N53 Co33 2.194 . S
N53 C48 1.328 . S
N53 C52 1.315 . S
H54 C48 0.929 . S
H55 C52 0.930 . S
H56 C44 0.929 . S
H57 C46 0.929 . S
O58 Co33 2.351 . S
O58 C61 1.244 . S
O59 Co33 2.155 . S
O59 C61 1.240 . S
O60 Co33 2.096 . S
O60 C41 1.247 . S
C61 O58 1.244 . S
C61 O59 1.240 . S
H62 C36 0.931 . S
H63 C45 0.931 . S
H64 C49 0.929 . S
H65 C51 0.930 . S
Co66 N70 2.148 . S
Co66 N76 2.128 . S
Co66 N86 2.194 . S
Co66 O91 2.351 . S
Co66 O92 2.155 . S
Co66 O93 2.096 . S
C67 N70 1.301 . S
C67 N71 1.328 . S
C67 H72 0.930 . S
C68 C69 1.333 . S
C68 N70 1.317 . S
C68 H73 0.930 . S
C69 C68 1.333 . S
C69 N71 1.350 . S
C69 H95 0.931 . S
N70 Co66 2.148 . S
N70 C67 1.301 . S
N70 C68 1.317 . S
N71 C67 1.328 . S
N71 C69 1.350 . S
H72 C67 0.930 . S
H73 C68 0.930 . S
C74 O75 1.224 . S
C74 O93 1.247 . S
O75 C74 1.224 . S
N76 Co66 2.128 . S
N76 C77 1.355 . S
N76 C79 1.311 . S
C77 N76 1.355 . S
C77 C78 1.363 . S
C77 H89 0.929 . S
C78 C77 1.363 . S
C78 N80 1.375 . S
C78 H96 0.931 . S
C79 N76 1.311 . S
C79 N80 1.347 . S
C79 H90 0.929 . S
N80 C78 1.375 . S
N80 C79 1.347 . S
C81 C84 1.365 . S
C81 N86 1.328 . S
C81 H87 0.929 . S
C82 C83 1.362 . S
C82 C85 1.378 . S
C82 H97 0.929 . S
C83 C82 1.362 . S
C83 C84 1.366 . S
C84 C81 1.365 . S
C84 C83 1.366 . S
C84 H98 0.930 . S
C85 C82 1.378 . S
C85 N86 1.315 . S
C85 H88 0.930 . S
N86 Co66 2.194 . S
N86 C81 1.328 . S
N86 C85 1.315 . S
H87 C81 0.929 . S
H88 C85 0.930 . S
H89 C77 0.929 . S
H90 C79 0.929 . S
O91 Co66 2.351 . S
O91 C94 1.244 . S
O92 Co66 2.155 . S
O92 C94 1.240 . S
O93 Co66 2.096 . S
O93 C74 1.247 . S
C94 O91 1.244 . S
C94 O92 1.240 . S
H95 C69 0.931 . S
H96 C78 0.931 . S
H97 C82 0.929 . S
H98 C84 0.930 . S
Co99 N103 2.148 . S
Co99 N109 2.128 . S
Co99 N119 2.194 . S
Co99 O124 2.351 . S
Co99 O125 2.155 . S
Co99 O126 2.096 . S
C100 N103 1.301 . S
C100 N104 1.328 . S
C100 H105 0.930 . S
C101 C102 1.333 . S
C101 N103 1.317 . S
C101 H106 0.930 . S
C102 C101 1.333 . S
C102 N104 1.350 . S
C102 H128 0.931 . S
N103 Co99 2.148 . S
N103 C100 1.301 . S
N103 C101 1.317 . S
N104 C100 1.328 . S
N104 C102 1.350 . S
H105 C100 0.930 . S
H106 C101 0.930 . S
C107 O108 1.224 . S
C107 O126 1.247 . S
O108 C107 1.224 . S
N109 Co99 2.128 . S
N109 C110 1.355 . S
N109 C112 1.311 . S
C110 N109 1.355 . S
C110 C111 1.363 . S
C110 H122 0.929 . S
C111 C110 1.363 . S
C111 N113 1.375 . S
C111 H129 0.931 . S
C112 N109 1.311 . S
C112 N113 1.347 . S
C112 H123 0.929 . S
N113 C111 1.375 . S
N113 C112 1.347 . S
C114 C117 1.365 . S
C114 N119 1.328 . S
C114 H120 0.929 . S
C115 C116 1.362 . S
C115 C118 1.378 . S
C115 H130 0.929 . S
C116 C115 1.362 . S
C116 C117 1.366 . S
C117 C114 1.365 . S
C117 C116 1.366 . S
C117 H131 0.930 . S
C118 C115 1.378 . S
C118 N119 1.315 . S
C118 H121 0.930 . S
N119 Co99 2.194 . S
N119 C114 1.328 . S
N119 C118 1.315 . S
H120 C114 0.929 . S
H121 C118 0.930 . S
H122 C110 0.929 . S
H123 C112 0.929 . S
O124 Co99 2.351 . S
O124 C127 1.244 . S
O125 Co99 2.155 . S
O125 C127 1.240 . S
O126 Co99 2.096 . S
O126 C107 1.247 . S
C127 O124 1.244 . S
C127 O125 1.240 . S
H128 C102 0.931 . S
H129 C111 0.931 . S
H130 C115 0.929 . S
H131 C117 0.930 . S
Co132 N136 2.148 . S
Co132 N142 2.128 . S
Co132 N152 2.194 . S
Co132 O157 2.351 . S
Co132 O158 2.155 . S
Co132 O159 2.096 . S
C133 N136 1.301 . S
C133 N137 1.328 . S
C133 H138 0.930 . S
C134 C135 1.333 . S
C134 N136 1.317 . S
C134 H139 0.930 . S
C135 C134 1.333 . S
C135 N137 1.350 . S
C135 H161 0.931 . S
N136 Co132 2.148 . S
N136 C133 1.301 . S
N136 C134 1.317 . S
N137 C133 1.328 . S
N137 C135 1.350 . S
H138 C133 0.930 . S
H139 C134 0.930 . S
C140 O141 1.224 . S
C140 O159 1.247 . S
O141 C140 1.224 . S
N142 Co132 2.128 . S
N142 C143 1.355 . S
N142 C145 1.311 . S
C143 N142 1.355 . S
C143 C144 1.363 . S
C143 H155 0.929 . S
C144 C143 1.363 . S
C144 N146 1.375 . S
C144 H162 0.931 . S
C145 N142 1.311 . S
C145 N146 1.347 . S
C145 H156 0.929 . S
N146 C144 1.375 . S
N146 C145 1.347 . S
C147 C150 1.365 . S
C147 N152 1.328 . S
C147 H153 0.929 . S
C148 C149 1.362 . S
C148 C151 1.378 . S
C148 H163 0.929 . S
C149 C148 1.362 . S
C149 C150 1.366 . S
C150 C147 1.365 . S
C150 C149 1.366 . S
C150 H164 0.930 . S
C151 C148 1.378 . S
C151 N152 1.315 . S
C151 H154 0.930 . S
N152 Co132 2.194 . S
N152 C147 1.328 . S
N152 C151 1.315 . S
H153 C147 0.929 . S
H154 C151 0.930 . S
H155 C143 0.929 . S
H156 C145 0.929 . S
O157 Co132 2.351 . S
O157 C160 1.244 . S
O158 Co132 2.155 . S
O158 C160 1.240 . S
O159 Co132 2.096 . S
O159 C140 1.247 . S
C160 O157 1.244 . S
C160 O158 1.240 . S
H161 C135 0.931 . S
H162 C144 0.931 . S
H163 C148 0.929 . S
H164 C150 0.930 . S
Co165 N169 2.148 . S
Co165 N175 2.128 . S
Co165 N185 2.194 . S
Co165 O190 2.351 . S
Co165 O191 2.155 . S
Co165 O192 2.096 . S
C166 N169 1.301 . S
C166 N170 1.328 . S
C166 H171 0.930 . S
C167 C168 1.333 . S
C167 N169 1.317 . S
C167 H172 0.930 . S
C168 C167 1.333 . S
C168 N170 1.350 . S
C168 H194 0.931 . S
N169 Co165 2.148 . S
N169 C166 1.301 . S
N169 C167 1.317 . S
N170 C166 1.328 . S
N170 C168 1.350 . S
H171 C166 0.930 . S
H172 C167 0.930 . S
C173 O174 1.224 . S
C173 O192 1.247 . S
O174 C173 1.224 . S
N175 Co165 2.128 . S
N175 C176 1.355 . S
N175 C178 1.311 . S
C176 N175 1.355 . S
C176 C177 1.363 . S
C176 H188 0.929 . S
C177 C176 1.363 . S
C177 N179 1.375 . S
C177 H195 0.931 . S
C178 N175 1.311 . S
C178 N179 1.347 . S
C178 H189 0.929 . S
N179 C177 1.375 . S
N179 C178 1.347 . S
C180 C183 1.365 . S
C180 N185 1.328 . S
C180 H186 0.929 . S
C181 C182 1.362 . S
C181 C184 1.378 . S
C181 H196 0.929 . S
C182 C181 1.362 . S
C182 C183 1.366 . S
C183 C180 1.365 . S
C183 C182 1.366 . S
C183 H197 0.930 . S
C184 C181 1.378 . S
C184 N185 1.315 . S
C184 H187 0.930 . S
N185 Co165 2.194 . S
N185 C180 1.328 . S
N185 C184 1.315 . S
H186 C180 0.929 . S
H187 C184 0.930 . S
H188 C176 0.929 . S
H189 C178 0.929 . S
O190 Co165 2.351 . S
O190 C193 1.244 . S
O191 Co165 2.155 . S
O191 C193 1.240 . S
O192 Co165 2.096 . S
O192 C173 1.247 . S
C193 O190 1.244 . S
C193 O191 1.240 . S
H194 C168 0.931 . S
H195 C177 0.931 . S
H196 C181 0.929 . S
H197 C183 0.930 . S
Co198 N202 2.148 . S
Co198 N208 2.128 . S
Co198 N218 2.194 . S
Co198 O223 2.351 . S
Co198 O224 2.155 . S
Co198 O225 2.096 . S
C199 N202 1.301 . S
C199 N203 1.328 . S
C199 H204 0.930 . S
C200 C201 1.333 . S
C200 N202 1.317 . S
C200 H205 0.930 . S
C201 C200 1.333 . S
C201 N203 1.350 . S
C201 H227 0.931 . S
N202 Co198 2.148 . S
N202 C199 1.301 . S
N202 C200 1.317 . S
N203 C199 1.328 . S
N203 C201 1.350 . S
H204 C199 0.930 . S
H205 C200 0.930 . S
C206 O207 1.224 . S
C206 O225 1.247 . S
O207 C206 1.224 . S
N208 Co198 2.128 . S
N208 C209 1.355 . S
N208 C211 1.311 . S
C209 N208 1.355 . S
C209 C210 1.363 . S
C209 H221 0.929 . S
C210 C209 1.363 . S
C210 N212 1.375 . S
C210 H228 0.931 . S
C211 N208 1.311 . S
C211 N212 1.347 . S
C211 H222 0.929 . S
N212 C210 1.375 . S
N212 C211 1.347 . S
C213 C216 1.365 . S
C213 N218 1.328 . S
C213 H219 0.929 . S
C214 C215 1.362 . S
C214 C217 1.378 . S
C214 H229 0.929 . S
C215 C214 1.362 . S
C215 C216 1.366 . S
C216 C213 1.365 . S
C216 C215 1.366 . S
C216 H230 0.930 . S
C217 C214 1.378 . S
C217 N218 1.315 . S
C217 H220 0.930 . S
N218 Co198 2.194 . S
N218 C213 1.328 . S
N218 C217 1.315 . S
H219 C213 0.929 . S
H220 C217 0.930 . S
H221 C209 0.929 . S
H222 C211 0.929 . S
O223 Co198 2.351 . S
O223 C226 1.244 . S
O224 Co198 2.155 . S
O224 C226 1.240 . S
O225 Co198 2.096 . S
O225 C206 1.247 . S
C226 O223 1.244 . S
C226 O224 1.240 . S
H227 C201 0.931 . S
H228 C210 0.931 . S
H229 C214 0.929 . S
H230 C216 0.930 . S
Co231 N235 2.148 . S
Co231 N241 2.128 . S
Co231 N251 2.194 . S
Co231 O256 2.351 . S
Co231 O257 2.155 . S
Co231 O258 2.096 . S
C232 N235 1.301 . S
C232 N236 1.328 . S
C232 H237 0.930 . S
C233 C234 1.333 . S
C233 N235 1.317 . S
C233 H238 0.930 . S
C234 C233 1.333 . S
C234 N236 1.350 . S
C234 H260 0.931 . S
N235 Co231 2.148 . S
N235 C232 1.301 . S
N235 C233 1.317 . S
N236 C232 1.328 . S
N236 C234 1.350 . S
H237 C232 0.930 . S
H238 C233 0.930 . S
C239 O240 1.224 . S
C239 O258 1.247 . S
O240 C239 1.224 . S
N241 Co231 2.128 . S
N241 C242 1.355 . S
N241 C244 1.311 . S
C242 N241 1.355 . S
C242 C243 1.363 . S
C242 H254 0.929 . S
C243 C242 1.363 . S
C243 N245 1.375 . S
C243 H261 0.931 . S
C244 N241 1.311 . S
C244 N245 1.347 . S
C244 H255 0.929 . S
N245 C243 1.375 . S
N245 C244 1.347 . S
C246 C249 1.365 . S
C246 N251 1.328 . S
C246 H252 0.929 . S
C247 C248 1.362 . S
C247 C250 1.378 . S
C247 H262 0.929 . S
C248 C247 1.362 . S
C248 C249 1.366 . S
C249 C246 1.365 . S
C249 C248 1.366 . S
C249 H263 0.930 . S
C250 C247 1.378 . S
C250 N251 1.315 . S
C250 H253 0.930 . S
N251 Co231 2.194 . S
N251 C246 1.328 . S
N251 C250 1.315 . S
H252 C246 0.929 . S
H253 C250 0.930 . S
H254 C242 0.929 . S
H255 C244 0.929 . S
O256 Co231 2.351 . S
O256 C259 1.244 . S
O257 Co231 2.155 . S
O257 C259 1.240 . S
O258 Co231 2.096 . S
O258 C239 1.247 . S
C259 O256 1.244 . S
C259 O257 1.240 . S
H260 C234 0.931 . S
H261 C243 0.931 . S
H262 C247 0.929 . S
H263 C249 0.930 . S
Co264 N268 2.148 . S
Co264 N274 2.128 . S
Co264 N284 2.194 . S
Co264 O289 2.351 . S
Co264 O290 2.155 . S
Co264 O291 2.096 . S
C265 N268 1.301 . S
C265 N269 1.328 . S
C265 H270 0.930 . S
C266 C267 1.333 . S
C266 N268 1.317 . S
C266 H271 0.930 . S
C267 C266 1.333 . S
C267 N269 1.350 . S
C267 H293 0.931 . S
N268 Co264 2.148 . S
N268 C265 1.301 . S
N268 C266 1.317 . S
N269 C265 1.328 . S
N269 C267 1.350 . S
H270 C265 0.930 . S
H271 C266 0.930 . S
C272 O273 1.224 . S
C272 O291 1.247 . S
O273 C272 1.224 . S
N274 Co264 2.128 . S
N274 C275 1.355 . S
N274 C277 1.311 . S
C275 N274 1.355 . S
C275 C276 1.363 . S
C275 H287 0.929 . S
C276 C275 1.363 . S
C276 N278 1.375 . S
C276 H294 0.931 . S
C277 N274 1.311 . S
C277 N278 1.347 . S
C277 H288 0.929 . S
N278 C276 1.375 . S
N278 C277 1.347 . S
C279 C282 1.365 . S
C279 N284 1.328 . S
C279 H285 0.929 . S
C280 C281 1.362 . S
C280 C283 1.378 . S
C280 H295 0.929 . S
C281 C280 1.362 . S
C281 C282 1.366 . S
C282 C279 1.365 . S
C282 C281 1.366 . S
C282 H296 0.930 . S
C283 C280 1.378 . S
C283 N284 1.315 . S
C283 H286 0.930 . S
N284 Co264 2.194 . S
N284 C279 1.328 . S
N284 C283 1.315 . S
H285 C279 0.929 . S
H286 C283 0.930 . S
H287 C275 0.929 . S
H288 C277 0.929 . S
O289 Co264 2.351 . S
O289 C292 1.244 . S
O290 Co264 2.155 . S
O290 C292 1.240 . S
O291 Co264 2.096 . S
O291 C272 1.247 . S
C292 O289 1.244 . S
C292 O290 1.240 . S
H293 C267 0.931 . S
H294 C276 0.931 . S
H295 C280 0.929 . S
H296 C282 0.930 . S
Co297 N301 2.148 . S
Co297 N307 2.128 . S
Co297 N317 2.194 . S
Co297 O322 2.351 . S
Co297 O323 2.155 . S
Co297 O324 2.096 . S
C298 N301 1.301 . S
C298 N302 1.328 . S
C298 H303 0.930 . S
C299 C300 1.333 . S
C299 N301 1.317 . S
C299 H304 0.930 . S
C300 C299 1.333 . S
C300 N302 1.350 . S
C300 H326 0.931 . S
N301 Co297 2.148 . S
N301 C298 1.301 . S
N301 C299 1.317 . S
N302 C298 1.328 . S
N302 C300 1.350 . S
H303 C298 0.930 . S
H304 C299 0.930 . S
C305 O306 1.224 . S
C305 O324 1.247 . S
O306 C305 1.224 . S
N307 Co297 2.128 . S
N307 C308 1.355 . S
N307 C310 1.311 . S
C308 N307 1.355 . S
C308 C309 1.363 . S
C308 H320 0.929 . S
C309 C308 1.363 . S
C309 N311 1.375 . S
C309 H327 0.931 . S
C310 N307 1.311 . S
C310 N311 1.347 . S
C310 H321 0.929 . S
N311 C309 1.375 . S
N311 C310 1.347 . S
C312 C315 1.365 . S
C312 N317 1.328 . S
C312 H318 0.929 . S
C313 C314 1.362 . S
C313 C316 1.378 . S
C313 H328 0.929 . S
C314 C313 1.362 . S
C314 C315 1.366 . S
C315 C312 1.365 . S
C315 C314 1.366 . S
C315 H329 0.930 . S
C316 C313 1.378 . S
C316 N317 1.315 . S
C316 H319 0.930 . S
N317 Co297 2.194 . S
N317 C312 1.328 . S
N317 C316 1.315 . S
H318 C312 0.929 . S
H319 C316 0.930 . S
H320 C308 0.929 . S
H321 C310 0.929 . S
O322 Co297 2.351 . S
O322 C325 1.244 . S
O323 Co297 2.155 . S
O323 C325 1.240 . S
O324 Co297 2.096 . S
O324 C305 1.247 . S
C325 O322 1.244 . S
C325 O323 1.240 . S
H326 C300 0.931 . S
H327 C309 0.931 . S
H328 C313 0.929 . S
H329 C315 0.930 . S
Co330 N334 2.148 . S
Co330 N340 2.128 . S
Co330 N350 2.194 . S
Co330 O355 2.351 . S
Co330 O356 2.155 . S
Co330 O357 2.096 . S
C331 N334 1.301 . S
C331 N335 1.328 . S
C331 H336 0.930 . S
C332 C333 1.333 . S
C332 N334 1.317 . S
C332 H337 0.930 . S
C333 C332 1.333 . S
C333 N335 1.350 . S
C333 H359 0.931 . S
N334 Co330 2.148 . S
N334 C331 1.301 . S
N334 C332 1.317 . S
N335 C331 1.328 . S
N335 C333 1.350 . S
H336 C331 0.930 . S
H337 C332 0.930 . S
C338 O339 1.224 . S
C338 O357 1.247 . S
O339 C338 1.224 . S
N340 Co330 2.128 . S
N340 C341 1.355 . S
N340 C343 1.311 . S
C341 N340 1.355 . S
C341 C342 1.363 . S
C341 H353 0.929 . S
C342 C341 1.363 . S
C342 N344 1.375 . S
C342 H360 0.931 . S
C343 N340 1.311 . S
C343 N344 1.347 . S
C343 H354 0.929 . S
N344 C342 1.375 . S
N344 C343 1.347 . S
C345 C348 1.365 . S
C345 N350 1.328 . S
C345 H351 0.929 . S
C346 C347 1.362 . S
C346 C349 1.378 . S
C346 H361 0.929 . S
C347 C346 1.362 . S
C347 C348 1.366 . S
C348 C345 1.365 . S
C348 C347 1.366 . S
C348 H362 0.930 . S
C349 C346 1.378 . S
C349 N350 1.315 . S
C349 H352 0.930 . S
N350 Co330 2.194 . S
N350 C345 1.328 . S
N350 C349 1.315 . S
H351 C345 0.929 . S
H352 C349 0.930 . S
H353 C341 0.929 . S
H354 C343 0.929 . S
O355 Co330 2.351 . S
O355 C358 1.244 . S
O356 Co330 2.155 . S
O356 C358 1.240 . S
O357 Co330 2.096 . S
O357 C338 1.247 . S
C358 O355 1.244 . S
C358 O356 1.240 . S
H359 C333 0.931 . S
H360 C342 0.931 . S
H361 C346 0.929 . S
H362 C348 0.930 . S
Co363 N367 2.148 . S
Co363 N373 2.128 . S
Co363 N383 2.194 . S
Co363 O388 2.351 . S
Co363 O389 2.155 . S
Co363 O390 2.096 . S
C364 N367 1.301 . S
C364 N368 1.328 . S
C364 H369 0.930 . S
C365 C366 1.333 . S
C365 N367 1.317 . S
C365 H370 0.930 . S
C366 C365 1.333 . S
C366 N368 1.350 . S
C366 H392 0.931 . S
N367 Co363 2.148 . S
N367 C364 1.301 . S
N367 C365 1.317 . S
N368 C364 1.328 . S
N368 C366 1.350 . S
H369 C364 0.930 . S
H370 C365 0.930 . S
C371 O372 1.224 . S
C371 O390 1.247 . S
O372 C371 1.224 . S
N373 Co363 2.128 . S
N373 C374 1.355 . S
N373 C376 1.311 . S
C374 N373 1.355 . S
C374 C375 1.363 . S
C374 H386 0.929 . S
C375 C374 1.363 . S
C375 N377 1.375 . S
C375 H393 0.931 . S
C376 N373 1.311 . S
C376 N377 1.347 . S
C376 H387 0.929 . S
N377 C375 1.375 . S
N377 C376 1.347 . S
C378 C381 1.365 . S
C378 N383 1.328 . S
C378 H384 0.929 . S
C379 C380 1.362 . S
C379 C382 1.378 . S
C379 H394 0.929 . S
C380 C379 1.362 . S
C380 C381 1.366 . S
C381 C378 1.365 . S
C381 C380 1.366 . S
C381 H395 0.930 . S
C382 C379 1.378 . S
C382 N383 1.315 . S
C382 H385 0.930 . S
N383 Co363 2.194 . S
N383 C378 1.328 . S
N383 C382 1.315 . S
H384 C378 0.929 . S
H385 C382 0.930 . S
H386 C374 0.929 . S
H387 C376 0.929 . S
O388 Co363 2.351 . S
O388 C391 1.244 . S
O389 Co363 2.155 . S
O389 C391 1.240 . S
O390 Co363 2.096 . S
O390 C371 1.247 . S
C391 O388 1.244 . S
C391 O389 1.240 . S
H392 C366 0.931 . S
H393 C375 0.931 . S
H394 C379 0.929 . S
H395 C381 0.930 . S
H396 C402 0.930 1_565 S
H397 C405 0.930 . S
H398 C406 0.930 . S
H399 C407 0.930 1_545 S
H400 C410 0.930 . S
H401 C411 0.930 . S
C402 H396 0.930 1_545 S
C402 C403 1.355 . S
C402 C404 1.415 1_545 S
C403 C402 1.355 . S
C403 C405 1.419 . S
C404 C402 1.415 1_565 S
C404 C409 1.425 1_564 S
C404 C411 1.409 . S
C405 H397 0.930 . S
C405 C403 1.419 . S
C405 C406 1.362 1_554 S
C406 H398 0.930 . S
C406 C405 1.362 1_556 S
C406 C409 1.409 . S
C407 H399 0.930 1_565 S
C407 C408 1.355 . S
C407 C409 1.415 1_565 S
C408 C407 1.355 . S
C408 C410 1.419 . S
C409 C404 1.425 1_546 S
C409 C406 1.409 . S
C409 C407 1.415 1_545 S
C410 H400 0.930 . S
C410 C408 1.419 . S
C410 C411 1.362 1_556 S
C411 H401 0.930 . S
C411 C404 1.409 . S
C411 C410 1.362 1_554 S
H412 C418 0.930 . S
H413 C421 0.930 . S
H414 C422 0.930 . S
H415 C423 0.930 . S
H416 C426 0.930 . S
H417 C427 0.930 . S
C418 H412 0.930 . S
C418 C419 1.355 . S
C418 C420 1.415 . S
C419 C418 1.355 . S
C419 C421 1.419 . S
C420 C418 1.415 . S
C420 C425 1.425 . S
C420 C427 1.409 . S
C421 H413 0.930 . S
C421 C419 1.419 . S
C421 C422 1.362 . S
C422 H414 0.930 . S
C422 C421 1.362 . S
C422 C425 1.409 . S
C423 H415 0.930 . S
C423 C424 1.355 . S
C423 C425 1.415 . S
C424 C423 1.355 . S
C424 C426 1.419 . S
C425 C420 1.425 . S
C425 C422 1.409 . S
C425 C423 1.415 . S
C426 H416 0.930 . S
C426 C424 1.419 . S
C426 C427 1.362 . S
C427 H417 0.930 . S
C427 C420 1.409 . S
C427 C426 1.362 . S
H428 C434 0.930 . S
H429 C437 0.930 . S
H430 C438 0.930 . S
H431 C439 0.930 . S
H432 C442 0.930 . S
H433 C443 0.930 . S
C434 H428 0.930 . S
C434 C435 1.355 . S
C434 C436 1.415 1_655 S
C435 C434 1.355 . S
C435 C437 1.419 . S
C436 C434 1.415 1_455 S
C436 C441 1.425 1_455 S
C436 C443 1.409 . S
C437 H429 0.930 . S
C437 C435 1.419 . S
C437 C438 1.362 . S
C438 H430 0.930 . S
C438 C437 1.362 . S
C438 C441 1.409 . S
C439 H431 0.930 . S
C439 C440 1.355 . S
C439 C441 1.415 1_455 S
C440 C439 1.355 . S
C440 C442 1.419 . S
C441 C436 1.425 1_655 S
C441 C438 1.409 . S
C441 C439 1.415 1_655 S
C442 H432 0.930 . S
C442 C440 1.419 . S
C442 C443 1.362 . S
C443 H433 0.930 . S
C443 C436 1.409 . S
C443 C442 1.362 . S
H444 C450 0.930 . S
H445 C453 0.930 . S
H446 C454 0.930 . S
H447 C455 0.930 . S
H448 C458 0.930 . S
H449 C459 0.930 . S
C450 H444 0.930 . S
C450 C451 1.355 . S
C450 C452 1.415 1_556 S
C451 C450 1.355 . S
C451 C453 1.419 1_545 S
C452 C450 1.415 1_554 S
C452 C457 1.425 1_544 S
C452 C459 1.409 . S
C453 H445 0.930 . S
C453 C451 1.419 1_565 S
C453 C454 1.362 . S
C454 H446 0.930 . S
C454 C453 1.362 . S
C454 C457 1.409 . S
C455 H447 0.930 . S
C455 C456 1.355 . S
C455 C457 1.415 1_554 S
C456 C455 1.355 . S
C456 C458 1.419 1_565 S
C457 C452 1.425 1_566 S
C457 C454 1.409 . S
C457 C455 1.415 1_556 S
C458 H448 0.930 . S
C458 C456 1.419 1_545 S
C458 C459 1.362 . S
C459 H449 0.930 . S
C459 C452 1.409 . S
C459 C458 1.362 . S
H460 C466 0.930 . S
H461 C469 0.930 . S
H462 C470 0.930 . S
H463 C471 0.930 . S
H464 C474 0.930 . S
H465 C475 0.930 . S
C466 H460 0.930 . S
C466 C467 1.355 . S
C466 C468 1.415 . S
C467 C466 1.355 . S
C467 C469 1.419 . S
C468 C466 1.415 . S
C468 C473 1.425 . S
C468 C475 1.409 . S
C469 H461 0.930 . S
C469 C467 1.419 . S
C469 C470 1.362 . S
C470 H462 0.930 . S
C470 C469 1.362 . S
C470 C473 1.409 . S
C471 H463 0.930 . S
C471 C472 1.355 . S
C471 C473 1.415 . S
C472 C471 1.355 . S
C472 C474 1.419 . S
C473 C468 1.425 . S
C473 C470 1.409 . S
C473 C471 1.415 . S
C474 H464 0.930 . S
C474 C472 1.419 . S
C474 C475 1.362 . S
C475 H465 0.930 . S
C475 C468 1.409 . S
C475 C474 1.362 . S
H476 C482 0.930 . S
H477 C485 0.930 . S
H478 C486 0.930 . S
H479 C487 0.930 . S
H480 C490 0.930 . S
H481 C491 0.930 . S
C482 H476 0.930 . S
C482 C483 1.355 . S
C482 C484 1.415 . S
C483 C482 1.355 . S
C483 C485 1.419 1_455 S
C484 C482 1.415 . S
C484 C489 1.425 1_455 S
C484 C491 1.409 . S
C485 H477 0.930 . S
C485 C483 1.419 1_655 S
C485 C486 1.362 . S
C486 H478 0.930 . S
C486 C485 1.362 . S
C486 C489 1.409 . S
C487 H479 0.930 . S
C487 C488 1.355 . S
C487 C489 1.415 . S
C488 C487 1.355 . S
C488 C490 1.419 1_655 S
C489 C484 1.425 1_655 S
C489 C486 1.409 . S
C489 C487 1.415 . S
C490 H480 0.930 . S
C490 C488 1.419 1_455 S
C490 C491 1.362 . S
C491 H481 0.930 . S
C491 C484 1.409 . S
C491 C490 1.362 . S
H492 C498 0.930 . S
H493 C501 0.930 . S
H494 C502 0.930 . S
H495 C503 0.930 . S
H496 C506 0.930 . S
H497 C507 0.930 . S
C498 H492 0.930 . S
C498 C499 1.355 . S
C498 C500 1.415 . S
C499 C498 1.355 . S
C499 C501 1.419 1_565 S
C500 C498 1.415 . S
C500 C505 1.425 1_565 S
C500 C507 1.409 . S
C501 H493 0.930 . S
C501 C499 1.419 1_545 S
C501 C502 1.362 . S
C502 H494 0.930 . S
C502 C501 1.362 . S
C502 C505 1.409 . S
C503 H495 0.930 . S
C503 C504 1.355 . S
C503 C505 1.415 . S
C504 C503 1.355 . S
C504 C506 1.419 1_545 S
C505 C500 1.425 1_545 S
C505 C502 1.409 . S
C505 C503 1.415 . S
C506 H496 0.930 . S
C506 C504 1.419 1_565 S
C506 C507 1.362 . S
C507 H497 0.930 . S
C507 C500 1.409 . S
C507 C506 1.362 . S
H508 C514 0.930 . S
H509 C517 0.930 . S
H510 C518 0.930 . S
H511 C519 0.930 . S
H512 C522 0.930 . S
H513 C523 0.930 . S
C514 H508 0.930 . S
C514 C515 1.355 . S
C514 C516 1.415 . S
C515 C514 1.355 . S
C515 C517 1.419 . S
C516 C514 1.415 . S
C516 C521 1.425 . S
C516 C523 1.409 . S
C517 H509 0.930 . S
C517 C515 1.419 . S
C517 C518 1.362 . S
C518 H510 0.930 . S
C518 C517 1.362 . S
C518 C521 1.409 . S
C519 H511 0.930 . S
C519 C520 1.355 . S
C519 C521 1.415 . S
C520 C519 1.355 . S
C520 C522 1.419 . S
C521 C516 1.425 . S
C521 C518 1.409 . S
C521 C519 1.415 . S
C522 H512 0.930 . S
C522 C520 1.419 . S
C522 C523 1.362 . S
C523 H513 0.930 . S
C523 C516 1.409 . S
C523 C522 1.362 . S
H524 C530 0.930 . S
H525 C533 0.930 . S
H526 C534 0.930 . S
H527 C535 0.930 . S
H528 C538 0.930 . S
H529 C539 0.930 . S
C530 H524 0.930 . S
C530 C531 1.355 . S
C530 C532 1.415 . S
C531 C530 1.355 . S
C531 C533 1.419 . S
C532 C530 1.415 . S
C532 C537 1.425 1_455 S
C532 C539 1.409 1_455 S
C533 H525 0.930 . S
C533 C531 1.419 . S
C533 C534 1.362 . S
C534 H526 0.930 . S
C534 C533 1.362 . S
C534 C537 1.409 1_455 S
C535 H527 0.930 . S
C535 C536 1.355 . S
C535 C537 1.415 . S
C536 C535 1.355 . S
C536 C538 1.419 . S
C537 C532 1.425 1_655 S
C537 C534 1.409 1_655 S
C537 C535 1.415 . S
C538 H528 0.930 . S
C538 C536 1.419 . S
C538 C539 1.362 . S
C539 H529 0.930 . S
C539 C532 1.409 1_655 S
C539 C538 1.362 . S
H540 C546 0.930 . S
H541 C549 0.930 . S
H542 C550 0.930 . S
H543 C551 0.930 . S
H544 C554 0.930 . S
H545 C555 0.930 . S
C546 H540 0.930 . S
C546 C547 1.355 1_655 S
C546 C548 1.415 . S
C547 C546 1.355 1_455 S
C547 C549 1.419 . S
C548 C546 1.415 . S
C548 C553 1.425 1_655 S
C548 C555 1.409 . S
C549 H541 0.930 . S
C549 C547 1.419 . S
C549 C550 1.362 . S
C550 H542 0.930 . S
C550 C549 1.362 . S
C550 C553 1.409 . S
C551 H543 0.930 . S
C551 C552 1.355 1_455 S
C551 C553 1.415 . S
C552 C551 1.355 1_655 S
C552 C554 1.419 . S
C553 C548 1.425 1_455 S
C553 C550 1.409 . S
C553 C551 1.415 . S
C554 H544 0.930 . S
C554 C552 1.419 . S
C554 C555 1.362 . S
C555 H545 0.930 . S
C555 C548 1.409 . S
C555 C554 1.362 . S
H556 C562 0.930 . S
H557 C565 0.930 . S
H558 C566 0.930 . S
H559 C567 0.930 . S
H560 C570 0.930 . S
H561 C571 0.930 . S
C562 H556 0.930 . S
C562 C563 1.355 1_565 S
C562 C564 1.415 . S
C563 C562 1.355 1_545 S
C563 C565 1.419 . S
C564 C562 1.415 . S
C564 C569 1.425 1_565 S
C564 C571 1.409 . S
C565 H557 0.930 . S
C565 C563 1.419 . S
C565 C566 1.362 . S
C566 H558 0.930 . S
C566 C565 1.362 . S
C566 C569 1.409 . S
C567 H559 0.930 . S
C567 C568 1.355 1_545 S
C567 C569 1.415 . S
C568 C567 1.355 1_565 S
C568 C570 1.419 . S
C569 C564 1.425 1_545 S
C569 C566 1.409 . S
C569 C567 1.415 . S
C570 H560 0.930 . S
C570 C568 1.419 . S
C570 C571 1.362 . S
C571 H561 0.930 . S
C571 C564 1.409 . S
C571 C570 1.362 . S
H572 C578 0.930 . S
H573 C581 0.930 . S
H574 C582 0.930 . S
H575 C583 0.930 . S
H576 C586 0.930 . S
H577 C587 0.930 . S
C578 H572 0.930 . S
C578 C579 1.355 . S
C578 C580 1.415 . S
C579 C578 1.355 . S
C579 C581 1.419 . S
C580 C578 1.415 . S
C580 C585 1.425 . S
C580 C587 1.409 . S
C581 H573 0.930 . S
C581 C579 1.419 . S
C581 C582 1.362 . S
C582 H574 0.930 . S
C582 C581 1.362 . S
C582 C585 1.409 . S
C583 H575 0.930 . S
C583 C584 1.355 . S
C583 C585 1.415 . S
C584 C583 1.355 . S
C584 C586 1.419 . S
C585 C580 1.425 . S
C585 C582 1.409 . S
C585 C583 1.415 . S
C586 H576 0.930 . S
C586 C584 1.419 . S
C586 C587 1.362 . S
C587 H577 0.930 . S
C587 C580 1.409 . S
C587 C586 1.362 . S
H588 C594 0.930 . S
H589 C597 0.930 . S
H590 C598 0.930 . S
H591 C599 0.930 . S
H592 C602 0.930 . S
H593 C603 0.930 . S
C594 H588 0.930 . S
C594 C595 1.355 . S
C594 C596 1.415 . S
C595 C594 1.355 . S
C595 C597 1.419 . S
C596 C594 1.415 . S
C596 C601 1.425 . S
C596 C603 1.409 . S
C597 H589 0.930 . S
C597 C595 1.419 . S
C597 C598 1.362 . S
C598 H590 0.930 . S
C598 C597 1.362 . S
C598 C601 1.409 . S
C599 H591 0.930 . S
C599 C600 1.355 . S
C599 C601 1.415 . S
C600 C599 1.355 . S
C600 C602 1.419 . S
C601 C596 1.425 . S
C601 C598 1.409 . S
C601 C599 1.415 . S
C602 H592 0.930 . S
C602 C600 1.419 . S
C602 C603 1.362 . S
C603 H593 0.930 . S
C603 C596 1.409 . S
C603 C602 1.362 . S
H604 C610 0.930 . S
H605 C613 0.930 . S
H606 C614 0.930 . S
H607 C615 0.930 . S
H608 C618 0.930 . S
H609 C619 0.930 . S
C610 H604 0.930 . S
C610 C611 1.355 . S
C610 C612 1.415 . S
C611 C610 1.355 . S
C611 C613 1.419 . S
C612 C610 1.415 . S
C612 C617 1.425 . S
C612 C619 1.409 . S
C613 H605 0.930 . S
C613 C611 1.419 . S
C613 C614 1.362 . S
C614 H606 0.930 . S
C614 C613 1.362 . S
C614 C617 1.409 . S
C615 H607 0.930 . S
C615 C616 1.355 . S
C615 C617 1.415 . S
C616 C615 1.355 . S
C616 C618 1.419 . S
C617 C612 1.425 . S
C617 C614 1.409 . S
C617 C615 1.415 . S
C618 H608 0.930 . S
C618 C616 1.419 . S
C618 C619 1.362 . S
C619 H609 0.930 . S
C619 C612 1.409 . S
C619 C618 1.362 . S
H620 C626 0.930 . S
H621 C629 0.930 . S
H622 C630 0.930 . S
H623 C631 0.930 . S
H624 C634 0.930 . S
H625 C635 0.930 . S
C626 H620 0.930 . S
C626 C627 1.355 . S
C626 C628 1.415 . S
C627 C626 1.355 . S
C627 C629 1.419 . S
C628 C626 1.415 . S
C628 C633 1.425 . S
C628 C635 1.409 . S
C629 H621 0.930 . S
C629 C627 1.419 . S
C629 C630 1.362 . S
C630 H622 0.930 . S
C630 C629 1.362 . S
C630 C633 1.409 . S
C631 H623 0.930 . S
C631 C632 1.355 . S
C631 C633 1.415 . S
C632 C631 1.355 . S
C632 C634 1.419 . S
C633 C628 1.425 . S
C633 C630 1.409 . S
C633 C631 1.415 . S
C634 H624 0.930 . S
C634 C632 1.419 . S
C634 C635 1.362 . S
C635 H625 0.930 . S
C635 C628 1.409 . S
C635 C634 1.362 . S
H636 C642 0.930 . S
H637 C645 0.930 . S
H638 C646 0.930 . S
H639 C647 0.930 . S
H640 C650 0.930 . S
H641 C651 0.930 . S
C642 H636 0.930 . S
C642 C643 1.355 . S
C642 C644 1.415 . S
C643 C642 1.355 . S
C643 C645 1.419 . S
C644 C642 1.415 . S
C644 C649 1.425 . S
C644 C651 1.409 . S
C645 H637 0.930 . S
C645 C643 1.419 . S
C645 C646 1.362 . S
C646 H638 0.930 . S
C646 C645 1.362 . S
C646 C649 1.409 . S
C647 H639 0.930 . S
C647 C648 1.355 . S
C647 C649 1.415 . S
C648 C647 1.355 . S
C648 C650 1.419 . S
C649 C644 1.425 . S
C649 C646 1.409 . S
C649 C647 1.415 . S
C650 H640 0.930 . S
C650 C648 1.419 . S
C650 C651 1.362 . S
C651 H641 0.930 . S
C651 C644 1.409 . S
C651 C650 1.362 . S
H652 C658 0.930 . S
H653 C661 0.930 . S
H654 C662 0.930 . S
H655 C663 0.930 . S
H656 C666 0.930 . S
H657 C667 0.930 . S
C658 H652 0.930 . S
C658 C659 1.355 . S
C658 C660 1.415 . S
C659 C658 1.355 . S
C659 C661 1.419 . S
C660 C658 1.415 . S
C660 C665 1.425 . S
C660 C667 1.409 . S
C661 H653 0.930 . S
C661 C659 1.419 . S
C661 C662 1.362 . S
C662 H654 0.930 . S
C662 C661 1.362 . S
C662 C665 1.409 . S
C663 H655 0.930 . S
C663 C664 1.355 . S
C663 C665 1.415 . S
C664 C663 1.355 . S
C664 C666 1.419 . S
C665 C660 1.425 . S
C665 C662 1.409 . S
C665 C663 1.415 . S
C666 H656 0.930 . S
C666 C664 1.419 . S
C666 C667 1.362 . S
C667 H657 0.930 . S
C667 C660 1.409 . S
C667 C666 1.362 . S
H668 C674 0.930 . S
H669 C677 0.930 . S
H670 C678 0.930 . S
H671 C679 0.930 . S
H672 C682 0.930 . S
H673 C683 0.930 . S
C674 H668 0.930 . S
C674 C675 1.355 . S
C674 C676 1.415 . S
C675 C674 1.355 . S
C675 C677 1.419 . S
C676 C674 1.415 . S
C676 C681 1.425 . S
C676 C683 1.409 . S
C677 H669 0.930 . S
C677 C675 1.419 . S
C677 C678 1.362 . S
C678 H670 0.930 . S
C678 C677 1.362 . S
C678 C681 1.409 . S
C679 H671 0.930 . S
C679 C680 1.355 . S
C679 C681 1.415 . S
C680 C679 1.355 . S
C680 C682 1.419 . S
C681 C676 1.425 . S
C681 C678 1.409 . S
C681 C679 1.415 . S
C682 H672 0.930 . S
C682 C680 1.419 . S
C682 C683 1.362 . S
C683 H673 0.930 . S
C683 C676 1.409 . S
C683 C682 1.362 . S
H684 C690 0.930 . S
H685 C693 0.930 . S
H686 C694 0.930 . S
H687 C695 0.930 . S
H688 C698 0.930 . S
H689 C699 0.930 . S
C690 H684 0.930 . S
C690 C691 1.355 . S
C690 C692 1.415 . S
C691 C690 1.355 . S
C691 C693 1.419 . S
C692 C690 1.415 . S
C692 C697 1.425 . S
C692 C699 1.409 . S
C693 H685 0.930 . S
C693 C691 1.419 . S
C693 C694 1.362 . S
C694 H686 0.930 . S
C694 C693 1.362 . S
C694 C697 1.409 . S
C695 H687 0.930 . S
C695 C696 1.355 . S
C695 C697 1.415 . S
C696 C695 1.355 . S
C696 C698 1.419 . S
C697 C692 1.425 . S
C697 C694 1.409 . S
C697 C695 1.415 . S
C698 H688 0.930 . S
C698 C696 1.419 . S
C698 C699 1.362 . S
C699 H689 0.930 . S
C699 C692 1.409 . S
C699 C698 1.362 . S
H700 C706 0.930 . S
H701 C709 0.930 . S
H702 C710 0.930 . S
H703 C711 0.930 . S
H704 C714 0.930 . S
H705 C715 0.930 . S
C706 H700 0.930 . S
C706 C707 1.355 1_655 S
C706 C708 1.415 . S
C707 C706 1.355 1_455 S
C707 C709 1.419 . S
C708 C706 1.415 . S
C708 C713 1.425 1_655 S
C708 C715 1.409 . S
C709 H701 0.930 . S
C709 C707 1.419 . S
C709 C710 1.362 . S
C710 H702 0.930 . S
C710 C709 1.362 . S
C710 C713 1.409 . S
C711 H703 0.930 . S
C711 C712 1.355 1_455 S
C711 C713 1.415 . S
C712 C711 1.355 1_655 S
C712 C714 1.419 . S
C713 C708 1.425 1_455 S
C713 C710 1.409 . S
C713 C711 1.415 . S
C714 H704 0.930 . S
C714 C712 1.419 . S
C714 C715 1.362 . S
C715 H705 0.930 . S
C715 C708 1.409 . S
C715 C714 1.362 . S
H716 C722 0.930 . S
H717 C725 0.930 . S
H718 C726 0.930 . S
H719 C727 0.930 . S
H720 C730 0.930 . S
H721 C731 0.930 . S
C722 H716 0.930 . S
C722 C723 1.355 1_545 S
C722 C724 1.415 . S
C723 C722 1.355 1_565 S
C723 C725 1.419 . S
C724 C722 1.415 . S
C724 C729 1.425 1_545 S
C724 C731 1.409 . S
C725 H717 0.930 . S
C725 C723 1.419 . S
C725 C726 1.362 . S
C726 H718 0.930 . S
C726 C725 1.362 . S
C726 C729 1.409 . S
C727 H719 0.930 . S
C727 C728 1.355 1_565 S
C727 C729 1.415 . S
C728 C727 1.355 1_545 S
C728 C730 1.419 . S
C729 C724 1.425 1_565 S
C729 C726 1.409 . S
C729 C727 1.415 . S
C730 H720 0.930 . S
C730 C728 1.419 . S
C730 C731 1.362 . S
C731 H721 0.930 . S
C731 C724 1.409 . S
C731 C730 1.362 . S
H732 C738 0.930 . S
H733 C741 0.930 . S
H734 C742 0.930 . S
H735 C743 0.930 . S
H736 C746 0.930 . S
H737 C747 0.930 . S
C738 H732 0.930 . S
C738 C739 1.355 . S
C738 C740 1.415 . S
C739 C738 1.355 . S
C739 C741 1.419 . S
C740 C738 1.415 . S
C740 C745 1.425 . S
C740 C747 1.409 . S
C741 H733 0.930 . S
C741 C739 1.419 . S
C741 C742 1.362 . S
C742 H734 0.930 . S
C742 C741 1.362 . S
C742 C745 1.409 . S
C743 H735 0.930 . S
C743 C744 1.355 . S
C743 C745 1.415 . S
C744 C743 1.355 . S
C744 C746 1.419 . S
C745 C740 1.425 . S
C745 C742 1.409 . S
C745 C743 1.415 . S
C746 H736 0.930 . S
C746 C744 1.419 . S
C746 C747 1.362 . S
C747 H737 0.930 . S
C747 C740 1.409 . S
C747 C746 1.362 . S
H748 C754 0.930 1_655 S
H749 C757 0.930 . S
H750 C758 0.930 . S
H751 C759 0.930 1_455 S
H752 C762 0.930 . S
H753 C763 0.930 . S
C754 H748 0.930 1_455 S
C754 C755 1.355 . S
C754 C756 1.415 1_455 S
C755 C754 1.355 . S
C755 C757 1.419 . S
C756 C754 1.415 1_655 S
C756 C761 1.425 1_655 S
C756 C763 1.409 . S
C757 H749 0.930 . S
C757 C755 1.419 . S
C757 C758 1.362 . S
C758 H750 0.930 . S
C758 C757 1.362 . S
C758 C761 1.409 . S
C759 H751 0.930 1_655 S
C759 C760 1.355 . S
C759 C761 1.415 1_655 S
C760 C759 1.355 . S
C760 C762 1.419 . S
C761 C756 1.425 1_455 S
C761 C758 1.409 . S
C761 C759 1.415 1_455 S
C762 H752 0.930 . S
C762 C760 1.419 . S
C762 C763 1.362 . S
C763 H753 0.930 . S
C763 C756 1.409 . S
C763 C762 1.362 . S
H764 C770 0.930 . S
H765 C773 0.930 . S
H766 C774 0.930 . S
H767 C775 0.930 . S
H768 C778 0.930 . S
H769 C779 0.930 . S
C770 H764 0.930 . S
C770 C771 1.355 . S
C770 C772 1.415 . S
C771 C770 1.355 . S
C771 C773 1.419 1_565 S
C772 C770 1.415 . S
C772 C777 1.425 1_565 S
C772 C779 1.409 . S
C773 H765 0.930 . S
C773 C771 1.419 1_545 S
C773 C774 1.362 . S
C774 H766 0.930 . S
C774 C773 1.362 . S
C774 C777 1.409 . S
C775 H767 0.930 . S
C775 C776 1.355 . S
C775 C777 1.415 . S
C776 C775 1.355 . S
C776 C778 1.419 1_545 S
C777 C772 1.425 1_545 S
C777 C774 1.409 . S
C777 C775 1.415 . S
C778 H768 0.930 . S
C778 C776 1.419 1_565 S
C778 C779 1.362 . S
C779 H769 0.930 . S
C779 C772 1.409 . S
C779 C778 1.362 . S
H780 C786 0.930 . S
H781 C789 0.930 . S
H782 C790 0.931 . S
H783 C791 0.930 . S
H784 C794 0.930 . S
H785 C795 0.930 . S
C786 H780 0.930 . S
C786 C787 1.355 . S
C786 C788 1.415 . S
C787 C786 1.355 . S
C787 C789 1.419 1_545 S
C788 C786 1.415 . S
C788 C793 1.425 1_445 S
C788 C795 1.409 1_455 S
C789 H781 0.930 . S
C789 C787 1.419 1_565 S
C789 C790 1.362 . S
C790 H782 0.931 . S
C790 C789 1.362 . S
C790 C793 1.409 1_455 S
C791 H783 0.930 . S
C791 C792 1.355 . S
C791 C793 1.415 . S
C792 C791 1.355 . S
C792 C794 1.419 1_565 S
C793 C788 1.425 1_665 S
C793 C790 1.409 1_655 S
C793 C791 1.415 . S
C794 H784 0.930 . S
C794 C792 1.419 1_545 S
C794 C795 1.362 . S
C795 H785 0.930 . S
C795 C788 1.409 1_655 S
C795 C794 1.362 . S
H796 C802 0.926 1_655 S
H797 C805 0.930 . S
H798 C806 0.930 1_565 S
H799 C807 0.927 1_455 S
H800 C810 0.930 . S
H801 C811 0.930 1_545 S
C802 H796 0.926 1_455 S
C802 C803 1.355 . S
C802 C804 1.415 1_455 S
C803 C802 1.355 . S
C803 C805 1.419 . S
C804 C802 1.415 1_655 S
C804 C809 1.425 1_645 S
C804 C811 1.409 1_545 S
C805 H797 0.930 . S
C805 C803 1.419 . S
C805 C806 1.362 . S
C806 H798 0.930 1_545 S
C806 C805 1.362 . S
C806 C809 1.409 1_545 S
C807 H799 0.927 1_655 S
C807 C808 1.355 . S
C807 C809 1.415 1_655 S
C808 C807 1.355 . S
C808 C810 1.419 . S
C809 C804 1.425 1_465 S
C809 C806 1.409 1_565 S
C809 C807 1.415 1_455 S
C810 H800 0.930 . S
C810 C808 1.419 . S
C810 C811 1.362 . S
C811 H801 0.930 1_565 S
C811 C804 1.409 1_565 S
C811 C810 1.362 . S
H812 C818 0.930 1_455 S
H813 C821 0.930 . S
H814 C822 0.930 1_565 S
H815 C823 0.930 1_655 S
H816 C826 0.930 . S
H817 C827 0.930 1_545 S
C818 H812 0.930 1_655 S
C818 C819 1.355 . S
C818 C820 1.415 1_655 S
C819 C818 1.355 . S
C819 C821 1.419 . S
C820 C818 1.415 1_455 S
C820 C825 1.425 1_445 S
C820 C827 1.408 1_545 S
C821 H813 0.930 . S
C821 C819 1.419 . S
C821 C822 1.362 . S
C822 H814 0.930 1_545 S
C822 C821 1.362 . S
C822 C825 1.409 1_545 S
C823 H815 0.930 1_455 S
C823 C824 1.355 . S
C823 C825 1.415 1_455 S
C824 C823 1.355 . S
C824 C826 1.419 . S
C825 C820 1.425 1_665 S
C825 C822 1.409 1_565 S
C825 C823 1.415 1_655 S
C826 H816 0.930 . S
C826 C824 1.419 . S
C826 C827 1.363 . S
C827 H817 0.930 1_565 S
C827 C820 1.408 1_565 S
C827 C826 1.363 . S
H828 C834 0.930 . S
H829 C837 0.930 . S
H830 C838 0.930 1_545 S
H831 C839 0.930 . S
H832 C842 0.930 . S
H833 C843 0.930 1_565 S
C834 H828 0.930 . S
C834 C835 1.355 . S
C834 C836 1.415 . S
C835 C834 1.355 . S
C835 C837 1.419 1_655 S
C836 C834 1.415 . S
C836 C841 1.425 1_665 S
C836 C843 1.409 1_565 S
C837 H829 0.930 . S
C837 C835 1.419 1_455 S
C837 C838 1.362 . S
C838 H830 0.930 1_565 S
C838 C837 1.362 . S
C838 C841 1.409 1_565 S
C839 H831 0.930 . S
C839 C840 1.355 . S
C839 C841 1.415 . S
C840 C839 1.355 . S
C840 C842 1.419 1_455 S
C841 C836 1.425 1_445 S
C841 C838 1.409 1_545 S
C841 C839 1.415 . S
C842 H832 0.930 . S
C842 C840 1.419 1_655 S
C842 C843 1.362 . S
C843 H833 0.930 1_545 S
C843 C836 1.409 1_545 S
C843 C842 1.362 . S
H844 C850 0.930 . S
H845 C853 0.930 . S
H846 C854 0.934 . S
H847 C855 0.930 . S
H848 C858 0.930 . S
H849 C859 0.935 . S
C850 H844 0.930 . S
C850 C851 1.355 . S
C850 C852 1.415 . S
C851 C850 1.355 . S
C851 C853 1.419 . S
C852 C850 1.415 . S
C852 C857 1.425 1_645 S
C852 C859 1.415 1_655 S
C853 H845 0.930 . S
C853 C851 1.419 . S
C853 C854 1.354 1_545 S
C854 H846 0.934 . S
C854 C853 1.354 1_565 S
C854 C857 1.414 1_655 S
C855 H847 0.930 . S
C855 C856 1.355 . S
C855 C857 1.415 . S
C856 C855 1.355 . S
C856 C858 1.419 . S
C857 C852 1.425 1_465 S
C857 C854 1.414 1_455 S
C857 C855 1.415 . S
C858 H848 0.930 . S
C858 C856 1.419 . S
C858 C859 1.352 1_565 S
C859 H849 0.935 . S
C859 C852 1.415 1_455 S
C859 C858 1.352 1_545 S
H860 C866 0.930 . S
H861 C869 0.930 . S
H862 C870 0.930 . S
H863 C871 0.930 . S
H864 C874 0.930 . S
H865 C875 0.930 . S
C866 H860 0.930 . S
C866 C867 1.355 . S
C866 C868 1.415 . S
C867 C866 1.355 . S
C867 C869 1.419 . S
C868 C866 1.415 . S
C868 C873 1.425 1_445 S
C868 C875 1.409 1_455 S
C869 H861 0.930 . S
C869 C867 1.419 . S
C869 C870 1.362 1_545 S
C870 H862 0.930 . S
C870 C869 1.362 1_565 S
C870 C873 1.409 1_455 S
C871 H863 0.930 . S
C871 C872 1.355 . S
C871 C873 1.415 . S
C872 C871 1.355 . S
C872 C874 1.419 . S
C873 C868 1.425 1_665 S
C873 C870 1.409 1_655 S
C873 C871 1.415 . S
C874 H864 0.930 . S
C874 C872 1.419 . S
C874 C875 1.362 1_565 S
C875 H865 0.930 . S
C875 C868 1.409 1_655 S
C875 C874 1.362 1_545 S
C403 N14 1.631 . S
C408 N245 1.623 . S
C419 N47 1.603 . S
C424 N278 1.610 . S
C435 N80 1.593 . S
C440 N311 1.645 . S
C451 N344 1.614 . S
C456 N113 1.599 . S
C467 N377 1.606 . S
C472 N146 1.643 . S
C483 N179 1.617 . S
C488 N212 1.597 . S
C499 C127 1.725 . S
C504 C28 1.718 . S
C515 C61 1.703 . S
C520 C160 1.718 . S
C531 C193 1.702 . S
C536 C94 1.726 . S
C547 C325 1.706 . S
C552 C226 1.712 . S
C563 C358 1.705 . S
C568 C259 1.713 . S
C579 C292 1.702 . S
C584 C391 1.725 . S
C595 N269 1.523 . S
C600 N5 1.554 . S
C611 N38 1.544 . S
C616 N302 1.534 . S
C627 N71 1.500 . S
C632 N335 1.566 . S
C643 N104 1.543 . S
C648 N368 1.535 . S
C659 N137 1.543 . S
C664 N203 1.509 . S
C675 N236 1.540 . S
C680 N170 1.538 . S
C691 C116 1.054 . S
C696 C17 1.093 . S
C707 C50 1.078 . S
C712 C149 1.048 . S
C723 C182 1.067 . S
C728 C83 1.053 . S
C739 C215 1.088 . S
C744 C314 1.077 . S
C755 C248 1.085 . S
C760 C347 1.048 . S
C771 C380 1.063 . S
C776 C281 1.094 . S
C787 C8 1.414 . S
C792 C107 1.413 . S
C803 C41 1.408 . S
C808 C140 1.411 . S
C819 C74 1.399 . S
C824 C173 1.394 . S
C835 C206 1.412 . S
C840 C305 1.414 . S
C851 C338 1.407 . S
C856 C239 1.403 . S
C867 C272 1.384 . S
C872 C371 1.382 . S
