# Generated by pormake.
# Topology sra, (4)-cn, num edge types: 1
# Building blocks:
#     Node 0, Type 0, BuildingBlock: AZAVOO_clean_sbu_0, # of connection points: 4
#     Node 1, Type 0, BuildingBlock: AZAVOO_clean_sbu_0, # of connection points: 4
#     Node 2, Type 0, BuildingBlock: AZAVOO_clean_sbu_0, # of connection points: 4
#     Node 3, Type 0, BuildingBlock: AZAVOO_clean_sbu_0, # of connection points: 4
#     Node 4, Type 0, BuildingBlock: AZAVOO_clean_sbu_0, # of connection points: 4
#     Node 5, Type 0, BuildingBlock: AZAVOO_clean_sbu_0, # of connection points: 4
#     Node 6, Type 0, BuildingBlock: AZAVOO_clean_sbu_0, # of connection points: 4
#     Node 7, Type 0, BuildingBlock: AZAVOO_clean_sbu_0, # of connection points: 4
#     Edge 8, Type (0, 0), BuildingBlock: EZIPEK_clean_linker_0, # of connection points: 2
#     Edge 9, Type (0, 0), BuildingBlock: EZIPEK_clean_linker_0, # of connection points: 2
#     Edge 10, Type (0, 0), BuildingBlock: EZIPEK_clean_linker_0, # of connection points: 2
#     Edge 11, Type (0, 0), BuildingBlock: EZIPEK_clean_linker_0, # of connection points: 2
#     Edge 12, Type (0, 0), BuildingBlock: EZIPEK_clean_linker_0, # of connection points: 2
#     Edge 13, Type (0, 0), BuildingBlock: EZIPEK_clean_linker_0, # of connection points: 2
#     Edge 14, Type (0, 0), BuildingBlock: EZIPEK_clean_linker_0, # of connection points: 2
#     Edge 15, Type (0, 0), BuildingBlock: EZIPEK_clean_linker_0, # of connection points: 2
#     Edge 16, Type (0, 0), BuildingBlock: EZIPEK_clean_linker_0, # of connection points: 2
#     Edge 17, Type (0, 0), BuildingBlock: EZIPEK_clean_linker_0, # of connection points: 2
#     Edge 18, Type (0, 0), BuildingBlock: EZIPEK_clean_linker_0, # of connection points: 2
#     Edge 19, Type (0, 0), BuildingBlock: EZIPEK_clean_linker_0, # of connection points: 2
#     Edge 20, Type (0, 0), BuildingBlock: EZIPEK_clean_linker_0, # of connection points: 2
#     Edge 21, Type (0, 0), BuildingBlock: EZIPEK_clean_linker_0, # of connection points: 2
#     Edge 22, Type (0, 0), BuildingBlock: EZIPEK_clean_linker_0, # of connection points: 2
#     Edge 23, Type (0, 0), BuildingBlock: EZIPEK_clean_linker_0, # of connection points: 2
# Relax obj value: 0.076
# Max RMSD: 0.076
# Mean RMSD: 0.076
data_MOF--net-sra--node1-AZAVOO_clean_sbu_0--edge1-EZIPEK_clean_linker_0
_symmetry_space_group_name_H-M    P1
_symmetry_Int_Tables_number       1
_symmetry_cell_setting            triclinic
loop_
_symmetry_equiv_pos_as_xyz
'x, y, z'
_cell_length_a     20.311027
_cell_length_b     28.126914
_cell_length_c     32.845405
_cell_angle_alpha  90.195626
_cell_angle_beta   90.159291
_cell_angle_gamma 89.998978
loop_
_atom_site_label
_atom_site_type_symbol
_atom_site_fract_x
_atom_site_fract_y
_atom_site_fract_z
_atom_type_partial_charge
Mg0 Mg 0.01057 0.04464 0.17749 0.0
O1 O 0.01069 0.12562 0.16739 0.0
O2 O 0.10251 0.14443 0.13345 0.0
Mg3 Mg 0.16223 0.07625 0.12372 0.0
C4 C 0.0481 0.15599 0.15016 0.0
C5 C 0.87708 0.00956 0.20952 0.0
O6 O 0.91199 0.97029 0.21115 0.0
O7 O -0.01564 0.03242 0.11071 0.0
O8 O 0.08132 0.04749 0.08086 0.0
O9 O 0.06654 0.05097 0.23608 0.0
O10 O 0.11254 0.04338 0.17559 0.0
C11 C 0.02122 0.0341 0.07933 0.0
C12 C 0.11943 0.04856 0.21426 0.0
O13 O 0.90321 0.04733 0.19599 0.0
Mg14 Mg -0.01295 0.46549 0.16387 0.0
O15 O -0.00677 0.38446 0.15675 0.0
O16 O 0.90586 0.36007 0.1207 0.0
Mg17 Mg 0.84447 0.42576 0.10449 0.0
C18 C 0.95915 0.3516 0.14005 0.0
C19 C 0.10361 0.48505 0.22187 0.0
O20 O 0.05465 0.50221 0.24343 0.0
O21 O 0.02053 0.4753 0.09829 0.0
O22 O 0.9289 0.45398 0.06466 0.0
O23 O 0.92517 0.45784 0.21954 0.0
O24 O 0.88508 0.46429 0.15705 0.0
C25 C -0.01217 0.46991 0.06535 0.0
C26 C 0.87485 0.45868 0.19532 0.0
O27 O 0.09228 0.46687 0.1871 0.0
Mg28 Mg 0.00927 0.9581 0.82078 0.0
O29 O 0.00584 0.87736 0.82883 0.0
O30 O 0.09657 0.85453 0.86223 0.0
Mg31 Mg 0.15918 0.9211 0.87389 0.0
C32 C 0.04178 0.84523 0.84482 0.0
C33 C 0.87583 0.99454 0.78814 0.0
O34 O 0.91147 0.0333 0.7848 0.0
O35 O -0.0158 0.96956 0.88769 0.0
O36 O 0.08023 0.95082 0.91736 0.0
O37 O 0.06331 0.95005 0.76211 0.0
O38 O 0.11182 0.95732 0.82226 0.0
C39 C 0.02106 0.96615 0.91908 0.0
C40 C 0.11683 0.9511 0.78358 0.0
O41 O 0.90152 0.95718 0.80281 0.0
Mg42 Mg 0.00375 0.53812 0.80656 0.0
O43 O -0.0011 0.61906 0.81726 0.0
O44 O 0.90548 0.63525 0.85074 0.0
Mg45 Mg 0.84976 0.56536 0.85965 0.0
C46 C 0.95959 0.64829 0.83455 0.0
C47 C 0.13609 0.50728 0.77148 0.0
O48 O 0.10005 0.46903 0.76578 0.0
O49 O 0.03007 0.52721 0.87328 0.0
O50 O 0.9322 0.53998 0.9028 0.0
O51 O 0.9491 0.54295 0.74756 0.0
O52 O 0.90199 0.53465 0.80761 0.0
C53 C -0.00698 0.52846 0.90456 0.0
C54 C 0.8958 0.54011 0.76893 0.0
O55 O 0.11097 0.54337 0.78878 0.0
Mg56 Mg 0.52549 0.54013 0.6633 0.0
O57 O 0.52107 0.62127 0.65701 0.0
O58 O 0.61029 0.64507 0.62282 0.0
Mg59 Mg 0.67366 0.57923 0.60999 0.0
C60 C 0.55604 0.65382 0.64087 0.0
C61 C 0.40374 0.51362 0.71272 0.0
O62 O 0.44994 0.48905 0.73119 0.0
O63 O 0.49877 0.53065 0.59636 0.0
O64 O 0.59397 0.55037 0.5664 0.0
O65 O 0.58099 0.54607 0.72178 0.0
O66 O 0.62767 0.54137 0.66105 0.0
C67 C 0.53474 0.53513 0.56481 0.0
C68 C 0.63386 0.54562 0.69987 0.0
O69 O 0.41848 0.53908 0.68223 0.0
Mg70 Mg 0.48668 0.96062 0.67808 0.0
O71 O 0.49427 0.87986 0.66819 0.0
O72 O 0.40524 0.85651 0.63316 0.0
Mg73 Mg 0.33987 0.92162 0.62215 0.0
C74 C 0.46002 0.84762 0.6507 0.0
C75 C 0.60723 0.98693 0.72991 0.0
O76 O 0.5601 0.00943 0.74935 0.0
O77 O 0.51385 0.97346 0.61176 0.0
O78 O 0.4193 0.95371 0.58052 0.0
O79 O 0.42919 0.95187 0.73564 0.0
O80 O 0.38475 0.95795 0.6744 0.0
C81 C 0.47818 0.96973 0.57985 0.0
C82 C 0.377 0.95284 0.71294 0.0
O83 O 0.59347 0.9629 0.6982 0.0
Mg84 Mg 0.51025 0.46295 0.30488 0.0
O85 O 0.51333 0.3828 0.31691 0.0
O86 O 0.61037 0.36496 0.34535 0.0
Mg87 Mg 0.66776 0.43448 0.35335 0.0
C88 C 0.55386 0.35278 0.33175 0.0
C89 C 0.37109 0.4956 0.28158 0.0
O90 O 0.40239 0.53643 0.28336 0.0
O91 O 0.49023 0.47661 0.37205 0.0
O92 O 0.58967 0.4611 0.39875 0.0
O93 O 0.55993 0.45307 0.24484 0.0
O94 O 0.61241 0.46642 0.30296 0.0
C95 C 0.52979 0.47445 0.40224 0.0
C96 C 0.61481 0.45777 0.26456 0.0
O97 O 0.40156 0.45752 0.29014 0.0
Mg98 Mg 0.48934 0.04163 0.3211 0.0
O99 O 0.50022 0.12255 0.3242 0.0
O100 O 0.41475 0.15096 0.3596 0.0
Mg101 Mg 0.3441 0.08905 0.37278 0.0
C102 C 0.46866 0.15687 0.3404 0.0
C103 C 0.60973 0.01432 0.26946 0.0
O104 O 0.56191 0.99454 0.24839 0.0
O105 O 0.51447 0.03472 0.38883 0.0
O106 O 0.41905 0.05684 0.41731 0.0
O107 O 0.43406 0.04671 0.26233 0.0
O108 O 0.38715 0.04696 0.32302 0.0
C109 C 0.47723 0.03979 0.41985 0.0
C110 C 0.38118 0.04942 0.28411 0.0
O111 O 0.59655 0.03615 0.30236 0.0
C112 C -0.0033 0.27592 0.10662 0.0
C113 C 0.98267 0.30173 0.14282 0.0
C114 C 0.01719 0.23328 0.18391 0.0
C115 C 0.02612 0.20628 0.14775 0.0
N116 N 0.01591 0.19946 0.07473 0.0
N117 N 0.97104 0.30337 0.21598 0.0
C118 C 0.01376 0.227 0.1091 0.0
C119 C -0.00919 0.28004 0.18151 0.0
N120 N -0.00373 0.29864 0.06988 0.0
N121 N 0.03636 0.21486 0.2205 0.0
H122 H 0.95301 0.33802 0.21592 0.0
H123 H 0.96777 0.28726 0.24439 0.0
H124 H 0.05495 0.1806 0.22346 0.0
H125 H 0.03893 0.2346 0.24733 0.0
H126 H 0.0141 0.28355 0.04311 0.0
H127 H 0.98299 0.33417 0.06655 0.0
H128 H -0.00084 0.21076 0.04638 0.0
H129 H 0.02977 0.16382 0.07496 0.0
C130 C 0.01111 0.77322 0.80355 0.0
C131 C 0.01973 0.79506 0.84225 0.0
C132 C -0.00902 0.72012 0.87595 0.0
C133 C 0.97867 0.69914 0.83727 0.0
N134 N 0.96516 0.70774 0.76481 0.0
N135 N 0.00856 0.79207 0.91528 0.0
C136 C -0.01439 0.72625 0.8012 0.0
C137 C 0.00726 0.76922 0.87848 0.0
N138 N 0.02961 0.79664 0.76899 0.0
N139 N -0.01071 0.69273 0.91025 0.0
H140 H 0.02153 0.8277 0.91849 0.0
H141 H -0.00796 0.77696 0.94227 0.0
H142 H 0.9752 0.65714 0.91001 0.0
H143 H 0.00611 0.7042 0.9386 0.0
H144 H 0.03238 0.78046 0.74049 0.0
H145 H 0.04723 0.83141 0.76902 0.0
H146 H 0.9615 0.72742 0.73811 0.0
H147 H 0.94607 0.67357 0.76212 0.0
C148 C 0.52625 0.72597 0.68213 0.0
C149 C 0.533 0.70377 0.64348 0.0
C150 C 0.49942 0.77771 0.60984 0.0
C151 C 0.48652 0.79844 0.6485 0.0
N152 N 0.48068 0.79097 0.72156 0.0
N153 N 0.5185 0.70602 0.57059 0.0
C154 C 0.49833 0.77228 0.68472 0.0
C155 C 0.51777 0.72903 0.60732 0.0
N156 N 0.54885 0.70352 0.7163 0.0
N157 N 0.49673 0.8051 0.57554 0.0
H158 H 0.53313 0.67074 0.56725 0.0
H159 H 0.49989 0.72063 0.54384 0.0
H160 H 0.48335 0.84086 0.57595 0.0
H161 H 0.51322 0.7937 0.54715 0.0
H162 H 0.55267 0.71997 0.74465 0.0
H163 H 0.56904 0.66946 0.71586 0.0
H164 H 0.48002 0.77151 0.74846 0.0
H165 H 0.46204 0.82521 0.72491 0.0
C166 C 0.51336 0.27815 0.2972 0.0
C167 C 0.53457 0.30189 0.33326 0.0
C168 C 0.52465 0.22739 0.37127 0.0
C169 C 0.4954 0.2056 0.33682 0.0
N170 N 0.45742 0.21022 0.26737 0.0
N171 N 0.55022 0.30077 0.40631 0.0
C172 C 0.48866 0.23092 0.2998 0.0
C173 C 0.53775 0.27692 0.37077 0.0
N174 N 0.51942 0.29985 0.2602 0.0
N175 N 0.54208 0.2003 0.40399 0.0
H176 H 0.55906 0.3372 0.4077 0.0
H177 H 0.54571 0.28523 0.43491 0.0
H178 H 0.53562 0.16355 0.4043 0.0
H179 H 0.56934 0.21322 0.42855 0.0
H180 H 0.51193 0.28242 0.23256 0.0
H181 H 0.53753 0.33422 0.25667 0.0
H182 H 0.44313 0.22881 0.24145 0.0
H183 H 0.4422 0.17483 0.26728 0.0
C184 C 0.2915 0.00862 0.24533 0.0
C185 C 0.31521 0.05023 0.26499 0.0
C186 C 0.20809 0.08896 0.25566 0.0
C187 C 0.18601 0.04891 0.23295 0.0
N188 N 0.20707 0.9711 0.20419 0.0
N189 N 0.30088 0.13223 0.28393 0.0
C190 C 0.22806 0.00904 0.22696 0.0
C191 C 0.27472 0.09097 0.26894 0.0
N192 N 0.32818 0.96779 0.24624 0.0
N193 N 0.16538 0.12489 0.26491 0.0
H194 H 0.34959 0.13473 0.29355 0.0
H195 H 0.27659 0.1648 0.28353 0.0
H196 H 0.11689 0.12552 0.25478 0.0
H197 H 0.17627 0.15233 0.28519 0.0
H198 H 0.3106 0.93471 0.23699 0.0
H199 H 0.37502 0.96587 0.25921 0.0
H200 H 0.23832 0.94451 0.19356 0.0
H201 H 0.15861 0.9668 0.19434 0.0
C202 C 0.70657 0.50021 0.23028 0.0
C203 C 0.67881 0.4567 0.24347 0.0
C204 C 0.77666 0.41351 0.22038 0.0
C205 C 0.80707 0.45753 0.21127 0.0
N206 N 0.80484 0.54328 0.21072 0.0
N207 N 0.68732 0.37226 0.254 0.0
C208 C 0.77296 0.50106 0.21689 0.0
C209 C 0.71375 0.41335 0.23922 0.0
N210 N 0.66894 0.54056 0.22992 0.0
N211 N 0.80718 0.37198 0.20992 0.0
H212 H 0.64006 0.37076 0.26604 0.0
H213 H 0.71315 0.34043 0.25639 0.0
H214 H 0.85321 0.37121 0.1961 0.0
H215 H 0.78513 0.33867 0.21189 0.0
H216 H 0.68376 0.5723 0.21656 0.0
H217 H 0.62032 0.5414 0.24007 0.0
H218 H 0.78539 0.57621 0.2188 0.0
H219 H 0.85313 0.54543 0.20014 0.0
C220 C 0.22151 0.90875 0.76546 0.0
C221 C 0.1822 0.95034 0.76397 0.0
C222 C 0.269 0.99236 0.72689 0.0
C223 C 0.31011 0.95166 0.73071 0.0
N224 N 0.32903 0.87274 0.7566 0.0
N225 N 0.1698 0.03349 0.74811 0.0
C226 C 0.28743 0.91034 0.75101 0.0
C227 C 0.20609 0.99254 0.74572 0.0
N228 N 0.19482 0.86732 0.77937 0.0
N229 N 0.29027 0.03107 0.70548 0.0
H230 H 0.12291 0.03497 0.76092 0.0
H231 H 0.18752 0.06685 0.74003 0.0
H232 H 0.3382 0.03478 0.6947 0.0
H233 H 0.25964 0.05885 0.69661 0.0
H234 H 0.21793 0.83438 0.77751 0.0
H235 H 0.14673 0.86529 0.79 0.0
H236 H 0.31849 0.84379 0.77511 0.0
H237 H 0.37629 0.87172 0.74452 0.0
C238 C 0.7418 0.58496 0.71476 0.0
C239 C 0.69979 0.54517 0.71891 0.0
C240 C 0.78589 0.50231 0.7562 0.0
C241 C 0.82953 0.54116 0.74982 0.0
N242 N 0.85289 0.61568 0.71626 0.0
N243 N 0.68335 0.46333 0.73801 0.0
C244 C 0.80876 0.5813 0.72694 0.0
C245 C 0.72204 0.5032 0.73838 0.0
N246 N 0.71685 0.62693 0.70071 0.0
N247 N 0.80578 0.46408 0.77877 0.0
H248 H 0.63596 0.46258 0.72573 0.0
H249 H 0.69955 0.42992 0.74716 0.0
H250 H 0.85434 0.4587 0.788 0.0
H251 H 0.77367 0.43828 0.78968 0.0
H252 H 0.74278 0.65886 0.70104 0.0
H253 H 0.66766 0.6308 0.6924 0.0
H254 H 0.84216 0.64292 0.69591 0.0
H255 H 0.90217 0.61486 0.72472 0.0
C256 C 0.72599 0.00756 0.71936 0.0
C257 C 0.67583 0.98947 0.74497 0.0
C258 C 0.75563 0.98063 0.80049 0.0
C259 C 0.8069 0.99371 0.77349 0.0
N260 N 0.84263 0.01067 0.70495 0.0
N261 N 0.64463 0.95046 0.80739 0.0
C262 C 0.79263 0.00484 0.73228 0.0
C263 C 0.69103 0.97376 0.78491 0.0
N264 N 0.70989 0.02893 0.68335 0.0
N265 N 0.76808 0.97644 0.84125 0.0
H266 H 0.59705 0.94381 0.7968 0.0
H267 H 0.65512 0.93374 0.8349 0.0
H268 H 0.81452 0.98211 0.85401 0.0
H269 H 0.73122 0.9719 0.86288 0.0
H270 H 0.74384 0.04727 0.66562 0.0
H271 H 0.66151 0.03239 0.67305 0.0
H272 H 0.83487 0.01374 0.6737 0.0
H273 H 0.89223 0.0078 0.71282 0.0
C274 C 0.28386 0.49707 0.70133 0.0
C275 C 0.33524 0.51209 0.72772 0.0
C276 C 0.25682 0.51915 0.78393 0.0
C277 C 0.20461 0.50891 0.7565 0.0
N278 N 0.1669 0.49777 0.6873 0.0
N279 N 0.36908 0.54655 0.79189 0.0
C280 C 0.21763 0.50047 0.71466 0.0
C281 C 0.32138 0.52565 0.76846 0.0
N282 N 0.29833 0.47783 0.66412 0.0
N283 N 0.24534 0.52085 0.82491 0.0
H284 H 0.41668 0.55296 0.78143 0.0
H285 H 0.35973 0.56172 0.82027 0.0
H286 H 0.19895 0.51537 0.83759 0.0
H287 H 0.28282 0.52316 0.84654 0.0
H288 H 0.26322 0.46162 0.64553 0.0
H289 H 0.34633 0.47388 0.65344 0.0
H290 H 0.17394 0.49671 0.6559 0.0
H291 H 0.11761 0.50136 0.69556 0.0
C292 C 0.69265 0.0315 0.21504 0.0
C293 C 0.6781 0.01279 0.25408 0.0
C294 C 0.79512 0.9964 0.26538 0.0
C295 C 0.80856 0.01026 0.22471 0.0
N296 N 0.76821 0.03235 0.1582 0.0
N297 N 0.71334 0.96911 0.31341 0.0
C298 C 0.75678 0.02543 0.19875 0.0
C299 C 0.72874 0.99289 0.27847 0.0
N300 N 0.64615 0.05689 0.19421 0.0
N301 N 0.84569 0.98867 0.29212 0.0
H302 H 0.66517 0.96506 0.32375 0.0
H303 H 0.74761 0.94954 0.33002 0.0
H304 H 0.89512 0.99215 0.28417 0.0
H305 H 0.83861 0.98344 0.32318 0.0
H306 H 0.65634 0.0756 0.16765 0.0
H307 H 0.59901 0.06328 0.20548 0.0
H308 H 0.73079 0.03853 0.13712 0.0
H309 H 0.81423 0.02734 0.14484 0.0
C310 C 0.18874 0.46591 0.2748 0.0
C311 C 0.17179 0.48817 0.2375 0.0
C312 C 0.28669 0.51151 0.22755 0.0
C313 C 0.30235 0.49351 0.26672 0.0
N314 N 0.26621 0.46119 0.33085 0.0
N315 N 0.20149 0.54058 0.18245 0.0
C316 C 0.25279 0.47278 0.2913 0.0
C317 C 0.21988 0.51337 0.21498 0.0
N318 N 0.14462 0.43665 0.29363 0.0
N319 N 0.33575 0.52479 0.20152 0.0
H320 H 0.1528 0.54367 0.17264 0.0
H321 H 0.23349 0.56373 0.16769 0.0
H322 H 0.38561 0.52275 0.20897 0.0
H323 H 0.32739 0.53331 0.1711 0.0
H324 H 0.15674 0.41546 0.3185 0.0
H325 H 0.09752 0.43009 0.2822 0.0
H326 H 0.2302 0.45064 0.35145 0.0
H327 H 0.3123 0.46633 0.34425 0.0
C328 C -0.01418 0.04849 0.00789 0.0
C329 C -0.00339 0.01592 0.03987 0.0
C330 C -0.00818 0.95003 0.99121 0.0
C331 C -0.00285 0.98313 0.95906 0.0
N332 N -0.0031 0.06451 0.93582 0.0
N333 N 0.00645 0.93508 0.06331 0.0
C334 C -0.00811 0.03264 0.96697 0.0
C335 C -0.00287 0.96632 0.03206 0.0
N336 N 0.96968 0.09439 0.017 0.0
N337 N 0.98152 0.90317 0.98235 0.0
H338 H 0.00835 0.94576 0.09373 0.0
H339 H 0.01529 0.89895 0.05901 0.0
H340 H 0.97502 0.8914 0.95246 0.0
H341 H 0.97241 0.87735 0.00427 0.0
H342 H 0.95656 0.11951 -0.00477 0.0
H343 H 0.96233 0.10549 0.047 0.0
H344 H 0.00136 0.10103 0.94032 0.0
H345 H 7e-05 0.05428 0.90536 0.0
C346 C 0.02064 0.46396 0.95393 0.0
C347 C 0.01893 0.51302 0.94439 0.0
C348 C 0.02084 0.53401 0.01656 0.0
C349 C 0.01632 0.48496 0.0261 0.0
N350 N 0.03694 0.40423 0.00626 0.0
N351 N 0.04335 0.59304 0.96456 0.0
C352 C 0.0249 0.45019 -0.00461 0.0
C353 C 0.028 0.54755 0.97521 0.0
N354 N 0.01439 0.43082 0.92367 0.0
N355 N 0.01394 0.56752 0.04645 0.0
H356 H 0.05162 0.60232 0.93426 0.0
H357 H 0.055 0.61962 0.98552 0.0
H358 H 0.01019 0.55892 0.07719 0.0
H359 H 0.00888 0.6037 0.04059 0.0
H360 H 0.00748 0.39472 0.92908 0.0
H361 H 0.01346 0.43988 0.8929 0.0
H362 H 0.04794 0.3773 0.98554 0.0
H363 H 0.04293 0.39462 0.03671 0.0
C364 C 0.50249 0.53859 0.45259 0.0
C365 C 0.50762 0.48951 0.44307 0.0
C366 C 0.5105 0.46941 0.5154 0.0
C367 C 0.51003 0.51866 0.52484 0.0
N368 N 0.48325 0.5983 0.50485 0.0
N369 N 0.49412 0.40837 0.46383 0.0
C370 C 0.49836 0.55269 0.49407 0.0
C371 C 0.5039 0.45492 0.47413 0.0
N372 N 0.50554 0.57166 0.42227 0.0
N373 N 0.52122 0.43681 0.54545 0.0
H374 H 0.48733 0.39768 0.43364 0.0
H375 H 0.48604 0.38151 0.48497 0.0
H376 H 0.52441 0.44607 0.57616 0.0
H377 H 0.53009 0.40092 0.53984 0.0
H378 H 0.51002 0.60802 0.42763 0.0
H379 H 0.50682 0.56253 0.39149 0.0
H380 H 0.46948 0.62443 0.48413 0.0
H381 H 0.47774 0.60832 0.53527 0.0
C382 C 0.49311 0.03931 0.53392 0.0
C383 C 0.50148 0.99005 0.54109 0.0
C384 C 0.51178 0.97474 0.46809 0.0
C385 C 0.49959 0.02376 0.46058 0.0
N386 N 0.4982 0.10423 0.4857 0.0
N387 N 0.54054 0.91434 0.51784 0.0
C388 C 0.49712 0.05658 0.49345 0.0
C389 C 0.51843 0.95895 0.50896 0.0
N390 N 0.47733 0.06902 0.56545 0.0
N391 N 0.51195 0.94273 0.43668 0.0
H392 H 0.54724 0.90311 0.54782 0.0
H393 H 0.55878 0.8908 0.49608 0.0
H394 H 0.50717 0.9524 0.40625 0.0
H395 H 0.51257 0.90606 0.44092 0.0
H396 H 0.46215 0.10407 0.56158 0.0
H397 H 0.47647 0.0579 0.5957 0.0
H398 H 0.5027 0.13019 0.5082 0.0
H399 H 0.50057 0.11756 0.45621 0.0
loop_
_geom_bond_atom_site_label_1
_geom_bond_atom_site_label_2
_geom_bond_distance
_geom_bond_site_symmetry_2
_ccdc_geom_bond_type
Mg0 O1 2.028 . S
Mg0 O7 1.986 . S
Mg0 O9 2.114 . S
Mg0 O10 2.251 . S
Mg0 O13 2.010 1_455 S
O1 Mg0 2.028 . S
O1 C4 1.250 . S
O2 Mg3 2.028 . S
O2 C4 1.248 . S
Mg3 O2 2.028 . S
Mg3 O8 2.032 . S
Mg3 O10 2.079 . S
C4 O1 1.250 . S
C4 O2 1.248 . S
C5 O6 1.264 1_545 S
C5 O13 1.249 . S
O6 C5 1.264 1_565 S
O7 Mg0 1.986 . S
O7 C11 1.246 . S
O8 Mg3 2.032 . S
O8 C11 1.259 . S
O9 Mg0 2.114 . S
O9 C12 1.252 . S
O10 Mg0 2.251 . S
O10 Mg3 2.079 . S
O10 C12 1.273 . S
C11 O7 1.246 . S
C11 O8 1.259 . S
C12 O9 1.252 . S
C12 O10 1.273 . S
O13 Mg0 2.010 1_655 S
O13 C5 1.249 . S
Mg14 O15 2.028 . S
Mg14 O21 1.986 . S
Mg14 O23 2.114 1_455 S
Mg14 O24 2.251 1_455 S
Mg14 O27 2.010 . S
O15 Mg14 2.028 . S
O15 C18 1.250 1_455 S
O16 Mg17 2.028 . S
O16 C18 1.248 . S
Mg17 O16 2.028 . S
Mg17 O22 2.032 . S
Mg17 O24 2.079 . S
C18 O15 1.250 1_655 S
C18 O16 1.248 . S
C19 O20 1.264 . S
C19 O27 1.249 . S
O20 C19 1.264 . S
O21 Mg14 1.986 . S
O21 C25 1.246 1_455 S
O22 Mg17 2.032 . S
O22 C25 1.259 . S
O23 Mg14 2.114 1_655 S
O23 C26 1.252 . S
O24 Mg14 2.251 1_655 S
O24 Mg17 2.079 . S
O24 C26 1.273 . S
C25 O21 1.246 1_655 S
C25 O22 1.259 . S
C26 O23 1.252 . S
C26 O24 1.273 . S
O27 Mg14 2.010 . S
O27 C19 1.249 . S
Mg28 O29 2.028 . S
Mg28 O35 1.986 . S
Mg28 O37 2.114 . S
Mg28 O38 2.251 . S
Mg28 O41 2.010 1_455 S
O29 Mg28 2.028 . S
O29 C32 1.250 . S
O30 Mg31 2.028 . S
O30 C32 1.248 . S
Mg31 O30 2.028 . S
Mg31 O36 2.032 . S
Mg31 O38 2.079 . S
C32 O29 1.250 . S
C32 O30 1.248 . S
C33 O34 1.264 1_565 S
C33 O41 1.249 . S
O34 C33 1.264 1_545 S
O35 Mg28 1.986 . S
O35 C39 1.246 . S
O36 Mg31 2.032 . S
O36 C39 1.259 . S
O37 Mg28 2.114 . S
O37 C40 1.252 . S
O38 Mg28 2.251 . S
O38 Mg31 2.079 . S
O38 C40 1.273 . S
C39 O35 1.246 . S
C39 O36 1.259 . S
C40 O37 1.252 . S
C40 O38 1.273 . S
O41 Mg28 2.010 1_655 S
O41 C33 1.249 . S
Mg42 O43 2.028 . S
Mg42 O49 1.986 . S
Mg42 O51 2.114 1_455 S
Mg42 O52 2.251 1_455 S
Mg42 O55 2.010 . S
O43 Mg42 2.028 . S
O43 C46 1.250 1_455 S
O44 Mg45 2.028 . S
O44 C46 1.248 . S
Mg45 O44 2.028 . S
Mg45 O50 2.032 . S
Mg45 O52 2.079 . S
C46 O43 1.250 1_655 S
C46 O44 1.248 . S
C47 O48 1.264 . S
C47 O55 1.249 . S
O48 C47 1.264 . S
O49 Mg42 1.986 . S
O49 C53 1.246 1_455 S
O50 Mg45 2.032 . S
O50 C53 1.259 . S
O51 Mg42 2.114 1_655 S
O51 C54 1.252 . S
O52 Mg42 2.251 1_655 S
O52 Mg45 2.079 . S
O52 C54 1.273 . S
C53 O49 1.246 1_655 S
C53 O50 1.259 . S
C54 O51 1.252 . S
C54 O52 1.273 . S
O55 Mg42 2.010 . S
O55 C47 1.249 . S
Mg56 O57 2.028 . S
Mg56 O63 1.986 . S
Mg56 O65 2.114 . S
Mg56 O66 2.251 . S
Mg56 O69 2.010 . S
O57 Mg56 2.028 . S
O57 C60 1.250 . S
O58 Mg59 2.028 . S
O58 C60 1.248 . S
Mg59 O58 2.028 . S
Mg59 O64 2.032 . S
Mg59 O66 2.079 . S
C60 O57 1.250 . S
C60 O58 1.248 . S
C61 O62 1.264 . S
C61 O69 1.249 . S
O62 C61 1.264 . S
O63 Mg56 1.986 . S
O63 C67 1.246 . S
O64 Mg59 2.032 . S
O64 C67 1.259 . S
O65 Mg56 2.114 . S
O65 C68 1.252 . S
O66 Mg56 2.251 . S
O66 Mg59 2.079 . S
O66 C68 1.273 . S
C67 O63 1.246 . S
C67 O64 1.259 . S
C68 O65 1.252 . S
C68 O66 1.273 . S
O69 Mg56 2.010 . S
O69 C61 1.249 . S
Mg70 O71 2.028 . S
Mg70 O77 1.986 . S
Mg70 O79 2.114 . S
Mg70 O80 2.251 . S
Mg70 O83 2.010 . S
O71 Mg70 2.028 . S
O71 C74 1.250 . S
O72 Mg73 2.028 . S
O72 C74 1.248 . S
Mg73 O72 2.028 . S
Mg73 O78 2.032 . S
Mg73 O80 2.079 . S
C74 O71 1.250 . S
C74 O72 1.248 . S
C75 O76 1.264 1_565 S
C75 O83 1.249 . S
O76 C75 1.264 1_545 S
O77 Mg70 1.986 . S
O77 C81 1.246 . S
O78 Mg73 2.032 . S
O78 C81 1.259 . S
O79 Mg70 2.114 . S
O79 C82 1.252 . S
O80 Mg70 2.251 . S
O80 Mg73 2.079 . S
O80 C82 1.273 . S
C81 O77 1.246 . S
C81 O78 1.259 . S
C82 O79 1.252 . S
C82 O80 1.273 . S
O83 Mg70 2.010 . S
O83 C75 1.249 . S
Mg84 O85 2.028 . S
Mg84 O91 1.986 . S
Mg84 O93 2.114 . S
Mg84 O94 2.251 . S
Mg84 O97 2.010 . S
O85 Mg84 2.028 . S
O85 C88 1.250 . S
O86 Mg87 2.028 . S
O86 C88 1.248 . S
Mg87 O86 2.028 . S
Mg87 O92 2.032 . S
Mg87 O94 2.079 . S
C88 O85 1.250 . S
C88 O86 1.248 . S
C89 O90 1.264 . S
C89 O97 1.249 . S
O90 C89 1.264 . S
O91 Mg84 1.986 . S
O91 C95 1.246 . S
O92 Mg87 2.032 . S
O92 C95 1.259 . S
O93 Mg84 2.114 . S
O93 C96 1.252 . S
O94 Mg84 2.251 . S
O94 Mg87 2.079 . S
O94 C96 1.273 . S
C95 O91 1.246 . S
C95 O92 1.259 . S
C96 O93 1.252 . S
C96 O94 1.273 . S
O97 Mg84 2.010 . S
O97 C89 1.249 . S
Mg98 O99 2.028 . S
Mg98 O105 1.986 . S
Mg98 O107 2.114 . S
Mg98 O108 2.251 . S
Mg98 O111 2.010 . S
O99 Mg98 2.028 . S
O99 C102 1.250 . S
O100 Mg101 2.028 . S
O100 C102 1.248 . S
Mg101 O100 2.028 . S
Mg101 O106 2.032 . S
Mg101 O108 2.079 . S
C102 O99 1.250 . S
C102 O100 1.248 . S
C103 O104 1.264 1_545 S
C103 O111 1.249 . S
O104 C103 1.264 1_565 S
O105 Mg98 1.986 . S
O105 C109 1.246 . S
O106 Mg101 2.032 . S
O106 C109 1.259 . S
O107 Mg98 2.114 . S
O107 C110 1.252 . S
O108 Mg98 2.251 . S
O108 Mg101 2.079 . S
O108 C110 1.273 . S
C109 O105 1.246 . S
C109 O106 1.259 . S
C110 O107 1.252 . S
C110 O108 1.273 . S
O111 Mg98 2.010 . S
O111 C103 1.249 . S
C112 C113 1.363 1_655 S
C112 C118 1.379 . S
C112 N120 1.356 . S
C113 C112 1.363 1_455 S
C113 C119 1.363 . S
C114 C115 1.363 . S
C114 C119 1.379 . S
C114 N121 1.356 . S
C115 C114 1.363 . S
C115 C118 1.363 1_455 S
N116 C118 1.356 . S
N116 H128 0.984 . S
N116 H129 0.985 . S
N117 C119 1.356 . S
N117 H122 0.984 . S
N117 H123 0.985 . S
C118 C112 1.379 . S
C118 C115 1.363 1_655 S
C118 N116 1.356 . S
C119 C113 1.363 . S
C119 C114 1.379 . S
C119 N117 1.356 . S
N120 C112 1.356 . S
N120 H126 0.984 . S
N120 H127 0.984 . S
N121 C114 1.356 . S
N121 H124 0.984 . S
N121 H125 0.985 . S
H122 N117 0.984 . S
H123 N117 0.985 . S
H124 N121 0.984 . S
H125 N121 0.985 . S
H126 N120 0.984 . S
H127 N120 0.984 . S
H128 N116 0.984 . S
H129 N116 0.985 . S
C130 C131 1.363 1_655 S
C130 C136 1.379 . S
C130 N138 1.356 . S
C131 C130 1.363 1_455 S
C131 C137 1.363 . S
C132 C133 1.363 . S
C132 C137 1.379 . S
C132 N139 1.356 . S
C133 C132 1.363 . S
C133 C136 1.363 1_455 S
N134 C136 1.356 . S
N134 H146 0.984 . S
N134 H147 0.985 . S
N135 C137 1.356 . S
N135 H140 0.984 . S
N135 H141 0.985 . S
C136 C130 1.379 . S
C136 C133 1.363 1_655 S
C136 N134 1.356 . S
C137 C131 1.363 . S
C137 C132 1.379 . S
C137 N135 1.356 . S
N138 C130 1.356 . S
N138 H144 0.984 . S
N138 H145 0.984 . S
N139 C132 1.356 . S
N139 H142 0.984 . S
N139 H143 0.985 . S
H140 N135 0.984 . S
H141 N135 0.985 . S
H142 N139 0.984 . S
H143 N139 0.985 . S
H144 N138 0.984 . S
H145 N138 0.984 . S
H146 N134 0.984 . S
H147 N134 0.985 . S
C148 C149 1.363 . S
C148 C154 1.379 . S
C148 N156 1.356 . S
C149 C148 1.363 . S
C149 C155 1.363 . S
C150 C151 1.363 . S
C150 C155 1.379 . S
C150 N157 1.356 . S
C151 C150 1.363 . S
C151 C154 1.363 . S
N152 C154 1.356 . S
N152 H164 0.984 . S
N152 H165 0.985 . S
N153 C155 1.356 . S
N153 H158 0.984 . S
N153 H159 0.985 . S
C154 C148 1.379 . S
C154 C151 1.363 . S
C154 N152 1.356 . S
C155 C149 1.363 . S
C155 C150 1.379 . S
C155 N153 1.356 . S
N156 C148 1.356 . S
N156 H162 0.984 . S
N156 H163 0.984 . S
N157 C150 1.356 . S
N157 H160 0.984 . S
N157 H161 0.985 . S
H158 N153 0.984 . S
H159 N153 0.985 . S
H160 N157 0.984 . S
H161 N157 0.985 . S
H162 N156 0.984 . S
H163 N156 0.984 . S
H164 N152 0.984 . S
H165 N152 0.985 . S
C166 C167 1.363 . S
C166 C172 1.379 . S
C166 N174 1.356 . S
C167 C166 1.363 . S
C167 C173 1.363 . S
C168 C169 1.363 . S
C168 C173 1.379 . S
C168 N175 1.356 . S
C169 C168 1.363 . S
C169 C172 1.363 . S
N170 C172 1.356 . S
N170 H182 0.984 . S
N170 H183 0.985 . S
N171 C173 1.356 . S
N171 H176 0.984 . S
N171 H177 0.985 . S
C172 C166 1.379 . S
C172 C169 1.363 . S
C172 N170 1.356 . S
C173 C167 1.363 . S
C173 C168 1.379 . S
C173 N171 1.356 . S
N174 C166 1.356 . S
N174 H180 0.984 . S
N174 H181 0.984 . S
N175 C168 1.356 . S
N175 H178 0.984 . S
N175 H179 0.985 . S
H176 N171 0.984 . S
H177 N171 0.985 . S
H178 N175 0.984 . S
H179 N175 0.985 . S
H180 N174 0.984 . S
H181 N174 0.984 . S
H182 N170 0.984 . S
H183 N170 0.985 . S
C184 C185 1.363 . S
C184 C190 1.379 . S
C184 N192 1.356 1_545 S
C185 C184 1.363 . S
C185 C191 1.363 . S
C186 C187 1.363 . S
C186 C191 1.379 . S
C186 N193 1.356 . S
C187 C186 1.363 . S
C187 C190 1.363 . S
N188 C190 1.356 1_565 S
N188 H200 0.984 . S
N188 H201 0.985 . S
N189 C191 1.356 . S
N189 H194 0.984 . S
N189 H195 0.985 . S
C190 C184 1.379 . S
C190 C187 1.363 . S
C190 N188 1.356 1_545 S
C191 C185 1.363 . S
C191 C186 1.379 . S
C191 N189 1.356 . S
N192 C184 1.356 1_565 S
N192 H198 0.984 . S
N192 H199 0.984 . S
N193 C186 1.356 . S
N193 H196 0.984 . S
N193 H197 0.985 . S
H194 N189 0.984 . S
H195 N189 0.985 . S
H196 N193 0.984 . S
H197 N193 0.985 . S
H198 N192 0.984 . S
H199 N192 0.984 . S
H200 N188 0.984 . S
H201 N188 0.985 . S
C202 C203 1.363 . S
C202 C208 1.379 . S
C202 N210 1.356 . S
C203 C202 1.363 . S
C203 C209 1.363 . S
C204 C205 1.363 . S
C204 C209 1.379 . S
C204 N211 1.356 . S
C205 C204 1.363 . S
C205 C208 1.363 . S
N206 C208 1.356 . S
N206 H218 0.984 . S
N206 H219 0.985 . S
N207 C209 1.356 . S
N207 H212 0.984 . S
N207 H213 0.985 . S
C208 C202 1.379 . S
C208 C205 1.363 . S
C208 N206 1.356 . S
C209 C203 1.363 . S
C209 C204 1.379 . S
C209 N207 1.356 . S
N210 C202 1.356 . S
N210 H216 0.984 . S
N210 H217 0.984 . S
N211 C204 1.356 . S
N211 H214 0.984 . S
N211 H215 0.985 . S
H212 N207 0.984 . S
H213 N207 0.985 . S
H214 N211 0.984 . S
H215 N211 0.985 . S
H216 N210 0.984 . S
H217 N210 0.984 . S
H218 N206 0.984 . S
H219 N206 0.985 . S
C220 C221 1.363 . S
C220 C226 1.379 . S
C220 N228 1.356 . S
C221 C220 1.363 . S
C221 C227 1.363 . S
C222 C223 1.363 . S
C222 C227 1.379 . S
C222 N229 1.356 1_565 S
C223 C222 1.363 . S
C223 C226 1.363 . S
N224 C226 1.356 . S
N224 H236 0.984 . S
N224 H237 0.985 . S
N225 C227 1.356 1_545 S
N225 H230 0.984 . S
N225 H231 0.985 . S
C226 C220 1.379 . S
C226 C223 1.363 . S
C226 N224 1.356 . S
C227 C221 1.363 . S
C227 C222 1.379 . S
C227 N225 1.356 1_565 S
N228 C220 1.356 . S
N228 H234 0.984 . S
N228 H235 0.984 . S
N229 C222 1.356 1_545 S
N229 H232 0.984 . S
N229 H233 0.985 . S
H230 N225 0.984 . S
H231 N225 0.985 . S
H232 N229 0.984 . S
H233 N229 0.985 . S
H234 N228 0.984 . S
H235 N228 0.984 . S
H236 N224 0.984 . S
H237 N224 0.985 . S
C238 C239 1.363 . S
C238 C244 1.379 . S
C238 N246 1.356 . S
C239 C238 1.363 . S
C239 C245 1.363 . S
C240 C241 1.363 . S
C240 C245 1.379 . S
C240 N247 1.356 . S
C241 C240 1.363 . S
C241 C244 1.363 . S
N242 C244 1.356 . S
N242 H254 0.984 . S
N242 H255 0.985 . S
N243 C245 1.356 . S
N243 H248 0.984 . S
N243 H249 0.985 . S
C244 C238 1.379 . S
C244 C241 1.363 . S
C244 N242 1.356 . S
C245 C239 1.363 . S
C245 C240 1.379 . S
C245 N243 1.356 . S
N246 C238 1.356 . S
N246 H252 0.984 . S
N246 H253 0.984 . S
N247 C240 1.356 . S
N247 H250 0.984 . S
N247 H251 0.985 . S
H248 N243 0.984 . S
H249 N243 0.985 . S
H250 N247 0.984 . S
H251 N247 0.985 . S
H252 N246 0.984 . S
H253 N246 0.984 . S
H254 N242 0.984 . S
H255 N242 0.985 . S
C256 C257 1.363 . S
C256 C262 1.379 . S
C256 N264 1.356 1_565 S
C257 C256 1.363 . S
C257 C263 1.363 . S
C258 C259 1.363 . S
C258 C263 1.379 . S
C258 N265 1.356 . S
C259 C258 1.363 . S
C259 C262 1.363 . S
N260 C262 1.356 1_545 S
N260 H272 0.984 . S
N260 H273 0.985 . S
N261 C263 1.356 . S
N261 H266 0.984 . S
N261 H267 0.985 . S
C262 C256 1.379 . S
C262 C259 1.363 . S
C262 N260 1.356 1_565 S
C263 C257 1.363 . S
C263 C258 1.379 . S
C263 N261 1.356 . S
N264 C256 1.356 1_545 S
N264 H270 0.984 . S
N264 H271 0.984 . S
N265 C258 1.356 . S
N265 H268 0.984 . S
N265 H269 0.985 . S
H266 N261 0.984 . S
H267 N261 0.985 . S
H268 N265 0.984 . S
H269 N265 0.985 . S
H270 N264 0.984 . S
H271 N264 0.984 . S
H272 N260 0.984 . S
H273 N260 0.985 . S
C274 C275 1.363 . S
C274 C280 1.379 . S
C274 N282 1.356 . S
C275 C274 1.363 . S
C275 C281 1.363 . S
C276 C277 1.363 . S
C276 C281 1.379 . S
C276 N283 1.356 . S
C277 C276 1.363 . S
C277 C280 1.363 . S
N278 C280 1.356 . S
N278 H290 0.984 . S
N278 H291 0.985 . S
N279 C281 1.356 . S
N279 H284 0.984 . S
N279 H285 0.985 . S
C280 C274 1.379 . S
C280 C277 1.363 . S
C280 N278 1.356 . S
C281 C275 1.363 . S
C281 C276 1.379 . S
C281 N279 1.356 . S
N282 C274 1.356 . S
N282 H288 0.984 . S
N282 H289 0.984 . S
N283 C276 1.356 . S
N283 H286 0.984 . S
N283 H287 0.985 . S
H284 N279 0.984 . S
H285 N279 0.985 . S
H286 N283 0.984 . S
H287 N283 0.985 . S
H288 N282 0.984 . S
H289 N282 0.984 . S
H290 N278 0.984 . S
H291 N278 0.985 . S
C292 C293 1.363 . S
C292 C298 1.379 . S
C292 N300 1.356 . S
C293 C292 1.363 . S
C293 C299 1.363 . S
C294 C295 1.363 . S
C294 C299 1.379 . S
C294 N301 1.356 1_545 S
C295 C294 1.363 . S
C295 C298 1.363 . S
N296 C298 1.356 . S
N296 H308 0.984 . S
N296 H309 0.985 . S
N297 C299 1.356 1_565 S
N297 H302 0.984 . S
N297 H303 0.985 . S
C298 C292 1.379 . S
C298 C295 1.363 . S
C298 N296 1.356 . S
C299 C293 1.363 . S
C299 C294 1.379 . S
C299 N297 1.356 1_545 S
N300 C292 1.356 . S
N300 H306 0.984 . S
N300 H307 0.984 . S
N301 C294 1.356 1_565 S
N301 H304 0.984 . S
N301 H305 0.985 . S
H302 N297 0.984 . S
H303 N297 0.985 . S
H304 N301 0.984 . S
H305 N301 0.985 . S
H306 N300 0.984 . S
H307 N300 0.984 . S
H308 N296 0.984 . S
H309 N296 0.985 . S
C310 C311 1.363 . S
C310 C316 1.379 . S
C310 N318 1.356 . S
C311 C310 1.363 . S
C311 C317 1.363 . S
C312 C313 1.363 . S
C312 C317 1.379 . S
C312 N319 1.356 . S
C313 C312 1.363 . S
C313 C316 1.363 . S
N314 C316 1.356 . S
N314 H326 0.984 . S
N314 H327 0.985 . S
N315 C317 1.356 . S
N315 H320 0.984 . S
N315 H321 0.985 . S
C316 C310 1.379 . S
C316 C313 1.363 . S
C316 N314 1.356 . S
C317 C311 1.363 . S
C317 C312 1.379 . S
C317 N315 1.356 . S
N318 C310 1.356 . S
N318 H324 0.984 . S
N318 H325 0.984 . S
N319 C312 1.356 . S
N319 H322 0.984 . S
N319 H323 0.985 . S
H320 N315 0.984 . S
H321 N315 0.985 . S
H322 N319 0.984 . S
H323 N319 0.985 . S
H324 N318 0.984 . S
H325 N318 0.984 . S
H326 N314 0.984 . S
H327 N314 0.985 . S
C328 C329 1.357 1_655 S
C328 C334 1.379 1_554 S
C328 N336 1.361 . S
C329 C328 1.357 1_455 S
C329 C335 1.363 1_545 S
C330 C331 1.363 . S
C330 C335 1.379 1_556 S
C330 N337 1.356 . S
C331 C330 1.363 . S
C331 C334 1.357 1_465 S
N332 C334 1.361 . S
N332 H344 0.984 . S
N332 H345 0.985 . S
N333 C335 1.356 . S
N333 H338 0.984 . S
N333 H339 0.985 . S
C334 C328 1.379 1_556 S
C334 C331 1.357 1_645 S
C334 N332 1.361 . S
C335 C329 1.363 1_565 S
C335 C330 1.379 1_554 S
C335 N333 1.356 . S
N336 C328 1.361 . S
N336 H342 0.984 . S
N336 H343 0.984 . S
N337 C330 1.356 . S
N337 H340 0.984 . S
N337 H341 0.985 . S
H338 N333 0.984 . S
H339 N333 0.985 . S
H340 N337 0.984 . S
H341 N337 0.985 . S
H342 N336 0.984 . S
H343 N336 0.984 . S
H344 N332 0.984 . S
H345 N332 0.985 . S
C346 C347 1.363 1_655 S
C346 C352 1.379 1_556 S
C346 N354 1.356 . S
C347 C346 1.363 1_455 S
C347 C353 1.363 . S
C348 C349 1.363 . S
C348 C353 1.379 1_554 S
C348 N355 1.356 . S
C349 C348 1.363 . S
C349 C352 1.363 1_455 S
N350 C352 1.356 . S
N350 H362 0.984 . S
N350 H363 0.985 . S
N351 C353 1.356 . S
N351 H356 0.984 . S
N351 H357 0.985 . S
C352 C346 1.379 1_554 S
C352 C349 1.363 1_655 S
C352 N350 1.356 . S
C353 C347 1.363 . S
C353 C348 1.379 1_556 S
C353 N351 1.356 . S
N354 C346 1.356 . S
N354 H360 0.984 . S
N354 H361 0.984 . S
N355 C348 1.356 . S
N355 H358 0.984 . S
N355 H359 0.985 . S
H356 N351 0.984 . S
H357 N351 0.985 . S
H358 N355 0.984 . S
H359 N355 0.985 . S
H360 N354 0.984 . S
H361 N354 0.984 . S
H362 N350 0.984 . S
H363 N350 0.985 . S
C364 C365 1.363 . S
C364 C370 1.379 . S
C364 N372 1.356 . S
C365 C364 1.363 . S
C365 C371 1.363 . S
C366 C367 1.363 . S
C366 C371 1.379 . S
C366 N373 1.356 . S
C367 C366 1.363 . S
C367 C370 1.363 . S
N368 C370 1.356 . S
N368 H380 0.984 . S
N368 H381 0.985 . S
N369 C371 1.356 . S
N369 H374 0.984 . S
N369 H375 0.985 . S
C370 C364 1.379 . S
C370 C367 1.363 . S
C370 N368 1.356 . S
C371 C365 1.363 . S
C371 C366 1.379 . S
C371 N369 1.356 . S
N372 C364 1.356 . S
N372 H378 0.984 . S
N372 H379 0.984 . S
N373 C366 1.356 . S
N373 H376 0.984 . S
N373 H377 0.985 . S
H374 N369 0.984 . S
H375 N369 0.985 . S
H376 N373 0.984 . S
H377 N373 0.985 . S
H378 N372 0.984 . S
H379 N372 0.984 . S
H380 N368 0.984 . S
H381 N368 0.985 . S
C382 C383 1.363 1_545 S
C382 C388 1.379 . S
C382 N390 1.356 . S
C383 C382 1.363 1_565 S
C383 C389 1.363 . S
C384 C385 1.363 1_565 S
C384 C389 1.379 . S
C384 N391 1.356 . S
C385 C384 1.363 1_545 S
C385 C388 1.363 . S
N386 C388 1.356 . S
N386 H398 0.984 . S
N386 H399 0.985 . S
N387 C389 1.356 . S
N387 H392 0.984 . S
N387 H393 0.985 . S
C388 C382 1.379 . S
C388 C385 1.363 . S
C388 N386 1.356 . S
C389 C383 1.363 . S
C389 C384 1.379 . S
C389 N387 1.356 . S
N390 C382 1.356 . S
N390 H396 0.984 . S
N390 H397 0.984 . S
N391 C384 1.356 . S
N391 H394 0.984 . S
N391 H395 0.985 . S
H392 N387 0.984 . S
H393 N387 0.985 . S
H394 N391 0.984 . S
H395 N391 0.985 . S
H396 N390 0.984 . S
H397 N390 0.984 . S
H398 N386 0.984 . S
H399 N386 0.985 . S
C113 C18 1.483 1_455 S
C115 C4 1.483 . S
C131 C32 1.483 . S
C133 C46 1.483 1_455 S
C149 C60 1.483 . S
C151 C74 1.483 . S
C167 C88 1.483 . S
C169 C102 1.483 . S
C185 C110 1.517 . S
C187 C12 1.517 . S
C203 C96 1.517 . S
C205 C26 1.517 . S
C221 C40 1.517 . S
C223 C82 1.517 . S
C239 C68 1.517 . S
C241 C54 1.517 . S
C257 C75 1.278 . S
C259 C33 1.278 . S
C275 C61 1.278 . S
C277 C47 1.278 . S
C293 C103 1.278 . S
C295 C5 1.278 . S
C311 C19 1.278 . S
C313 C89 1.278 . S
C329 C11 1.377 . S
C331 C39 1.377 . S
C347 C53 1.377 1_455 S
C349 C25 1.377 1_455 S
C365 C95 1.376 . S
C367 C67 1.376 . S
C383 C81 1.376 . S
C385 C109 1.376 . S
