# Generated by pormake.
# Topology wmy, (6)-cn, num edge types: 1
# Building blocks:
#     Node 0, Type 0, BuildingBlock: OJICUG_clean_sbu_0, # of connection points: 6
#     Node 1, Type 0, BuildingBlock: OJICUG_clean_sbu_0, # of connection points: 6
#     Node 2, Type 0, BuildingBlock: OJICUG_clean_sbu_0, # of connection points: 6
#     Node 3, Type 0, BuildingBlock: OJICUG_clean_sbu_0, # of connection points: 6
#     Node 4, Type 0, BuildingBlock: OJICUG_clean_sbu_0, # of connection points: 6
#     Node 5, Type 0, BuildingBlock: OJICUG_clean_sbu_0, # of connection points: 6
#     Node 6, Type 0, BuildingBlock: OJICUG_clean_sbu_0, # of connection points: 6
#     Node 7, Type 0, BuildingBlock: OJICUG_clean_sbu_0, # of connection points: 6
#     Node 8, Type 0, BuildingBlock: OJICUG_clean_sbu_0, # of connection points: 6
#     Node 9, Type 0, BuildingBlock: OJICUG_clean_sbu_0, # of connection points: 6
#     Node 10, Type 0, BuildingBlock: OJICUG_clean_sbu_0, # of connection points: 6
#     Node 11, Type 0, BuildingBlock: OJICUG_clean_sbu_0, # of connection points: 6
#     Node 12, Type 0, BuildingBlock: OJICUG_clean_sbu_0, # of connection points: 6
#     Node 13, Type 0, BuildingBlock: OJICUG_clean_sbu_0, # of connection points: 6
#     Node 14, Type 0, BuildingBlock: OJICUG_clean_sbu_0, # of connection points: 6
#     Node 15, Type 0, BuildingBlock: OJICUG_clean_sbu_0, # of connection points: 6
#     Node 16, Type 0, BuildingBlock: OJICUG_clean_sbu_0, # of connection points: 6
#     Node 17, Type 0, BuildingBlock: OJICUG_clean_sbu_0, # of connection points: 6
#     Node 18, Type 0, BuildingBlock: OJICUG_clean_sbu_0, # of connection points: 6
#     Node 19, Type 0, BuildingBlock: OJICUG_clean_sbu_0, # of connection points: 6
#     Node 20, Type 0, BuildingBlock: OJICUG_clean_sbu_0, # of connection points: 6
#     Node 21, Type 0, BuildingBlock: OJICUG_clean_sbu_0, # of connection points: 6
#     Node 22, Type 0, BuildingBlock: OJICUG_clean_sbu_0, # of connection points: 6
#     Node 23, Type 0, BuildingBlock: OJICUG_clean_sbu_0, # of connection points: 6
#     Node 24, Type 0, BuildingBlock: OJICUG_clean_sbu_0, # of connection points: 6
#     Node 25, Type 0, BuildingBlock: OJICUG_clean_sbu_0, # of connection points: 6
#     Node 26, Type 0, BuildingBlock: OJICUG_clean_sbu_0, # of connection points: 6
#     Node 27, Type 0, BuildingBlock: OJICUG_clean_sbu_0, # of connection points: 6
#     Node 28, Type 0, BuildingBlock: OJICUG_clean_sbu_0, # of connection points: 6
#     Node 29, Type 0, BuildingBlock: OJICUG_clean_sbu_0, # of connection points: 6
#     Node 30, Type 0, BuildingBlock: OJICUG_clean_sbu_0, # of connection points: 6
#     Node 31, Type 0, BuildingBlock: OJICUG_clean_sbu_0, # of connection points: 6
#     Node 32, Type 0, BuildingBlock: OJICUG_clean_sbu_0, # of connection points: 6
#     Node 33, Type 0, BuildingBlock: OJICUG_clean_sbu_0, # of connection points: 6
#     Node 34, Type 0, BuildingBlock: OJICUG_clean_sbu_0, # of connection points: 6
#     Node 35, Type 0, BuildingBlock: OJICUG_clean_sbu_0, # of connection points: 6
#     Edge 36, Type (0, 0), BuildingBlock: TEMPAE_clean_linker_10, # of connection points: 2
#     Edge 37, Type (0, 0), BuildingBlock: TEMPAE_clean_linker_10, # of connection points: 2
#     Edge 38, Type (0, 0), BuildingBlock: TEMPAE_clean_linker_10, # of connection points: 2
#     Edge 39, Type (0, 0), BuildingBlock: TEMPAE_clean_linker_10, # of connection points: 2
#     Edge 40, Type (0, 0), BuildingBlock: TEMPAE_clean_linker_10, # of connection points: 2
#     Edge 41, Type (0, 0), BuildingBlock: TEMPAE_clean_linker_10, # of connection points: 2
#     Edge 42, Type (0, 0), BuildingBlock: TEMPAE_clean_linker_10, # of connection points: 2
#     Edge 43, Type (0, 0), BuildingBlock: TEMPAE_clean_linker_10, # of connection points: 2
#     Edge 44, Type (0, 0), BuildingBlock: TEMPAE_clean_linker_10, # of connection points: 2
#     Edge 45, Type (0, 0), BuildingBlock: TEMPAE_clean_linker_10, # of connection points: 2
#     Edge 46, Type (0, 0), BuildingBlock: TEMPAE_clean_linker_10, # of connection points: 2
#     Edge 47, Type (0, 0), BuildingBlock: TEMPAE_clean_linker_10, # of connection points: 2
#     Edge 48, Type (0, 0), BuildingBlock: TEMPAE_clean_linker_10, # of connection points: 2
#     Edge 49, Type (0, 0), BuildingBlock: TEMPAE_clean_linker_10, # of connection points: 2
#     Edge 50, Type (0, 0), BuildingBlock: TEMPAE_clean_linker_10, # of connection points: 2
#     Edge 51, Type (0, 0), BuildingBlock: TEMPAE_clean_linker_10, # of connection points: 2
#     Edge 52, Type (0, 0), BuildingBlock: TEMPAE_clean_linker_10, # of connection points: 2
#     Edge 53, Type (0, 0), BuildingBlock: TEMPAE_clean_linker_10, # of connection points: 2
#     Edge 54, Type (0, 0), BuildingBlock: TEMPAE_clean_linker_10, # of connection points: 2
#     Edge 55, Type (0, 0), BuildingBlock: TEMPAE_clean_linker_10, # of connection points: 2
#     Edge 56, Type (0, 0), BuildingBlock: TEMPAE_clean_linker_10, # of connection points: 2
#     Edge 57, Type (0, 0), BuildingBlock: TEMPAE_clean_linker_10, # of connection points: 2
#     Edge 58, Type (0, 0), BuildingBlock: TEMPAE_clean_linker_10, # of connection points: 2
#     Edge 59, Type (0, 0), BuildingBlock: TEMPAE_clean_linker_10, # of connection points: 2
#     Edge 60, Type (0, 0), BuildingBlock: TEMPAE_clean_linker_10, # of connection points: 2
#     Edge 61, Type (0, 0), BuildingBlock: TEMPAE_clean_linker_10, # of connection points: 2
#     Edge 62, Type (0, 0), BuildingBlock: TEMPAE_clean_linker_10, # of connection points: 2
#     Edge 63, Type (0, 0), BuildingBlock: TEMPAE_clean_linker_10, # of connection points: 2
#     Edge 64, Type (0, 0), BuildingBlock: TEMPAE_clean_linker_10, # of connection points: 2
#     Edge 65, Type (0, 0), BuildingBlock: TEMPAE_clean_linker_10, # of connection points: 2
#     Edge 66, Type (0, 0), BuildingBlock: TEMPAE_clean_linker_10, # of connection points: 2
#     Edge 67, Type (0, 0), BuildingBlock: TEMPAE_clean_linker_10, # of connection points: 2
#     Edge 68, Type (0, 0), BuildingBlock: TEMPAE_clean_linker_10, # of connection points: 2
#     Edge 69, Type (0, 0), BuildingBlock: TEMPAE_clean_linker_10, # of connection points: 2
#     Edge 70, Type (0, 0), BuildingBlock: TEMPAE_clean_linker_10, # of connection points: 2
#     Edge 71, Type (0, 0), BuildingBlock: TEMPAE_clean_linker_10, # of connection points: 2
#     Edge 72, Type (0, 0), BuildingBlock: TEMPAE_clean_linker_10, # of connection points: 2
#     Edge 73, Type (0, 0), BuildingBlock: TEMPAE_clean_linker_10, # of connection points: 2
#     Edge 74, Type (0, 0), BuildingBlock: TEMPAE_clean_linker_10, # of connection points: 2
#     Edge 75, Type (0, 0), BuildingBlock: TEMPAE_clean_linker_10, # of connection points: 2
#     Edge 76, Type (0, 0), BuildingBlock: TEMPAE_clean_linker_10, # of connection points: 2
#     Edge 77, Type (0, 0), BuildingBlock: TEMPAE_clean_linker_10, # of connection points: 2
#     Edge 78, Type (0, 0), BuildingBlock: TEMPAE_clean_linker_10, # of connection points: 2
#     Edge 79, Type (0, 0), BuildingBlock: TEMPAE_clean_linker_10, # of connection points: 2
#     Edge 80, Type (0, 0), BuildingBlock: TEMPAE_clean_linker_10, # of connection points: 2
#     Edge 81, Type (0, 0), BuildingBlock: TEMPAE_clean_linker_10, # of connection points: 2
#     Edge 82, Type (0, 0), BuildingBlock: TEMPAE_clean_linker_10, # of connection points: 2
#     Edge 83, Type (0, 0), BuildingBlock: TEMPAE_clean_linker_10, # of connection points: 2
#     Edge 84, Type (0, 0), BuildingBlock: TEMPAE_clean_linker_10, # of connection points: 2
#     Edge 85, Type (0, 0), BuildingBlock: TEMPAE_clean_linker_10, # of connection points: 2
#     Edge 86, Type (0, 0), BuildingBlock: TEMPAE_clean_linker_10, # of connection points: 2
#     Edge 87, Type (0, 0), BuildingBlock: TEMPAE_clean_linker_10, # of connection points: 2
#     Edge 88, Type (0, 0), BuildingBlock: TEMPAE_clean_linker_10, # of connection points: 2
#     Edge 89, Type (0, 0), BuildingBlock: TEMPAE_clean_linker_10, # of connection points: 2
#     Edge 90, Type (0, 0), BuildingBlock: TEMPAE_clean_linker_10, # of connection points: 2
#     Edge 91, Type (0, 0), BuildingBlock: TEMPAE_clean_linker_10, # of connection points: 2
#     Edge 92, Type (0, 0), BuildingBlock: TEMPAE_clean_linker_10, # of connection points: 2
#     Edge 93, Type (0, 0), BuildingBlock: TEMPAE_clean_linker_10, # of connection points: 2
#     Edge 94, Type (0, 0), BuildingBlock: TEMPAE_clean_linker_10, # of connection points: 2
#     Edge 95, Type (0, 0), BuildingBlock: TEMPAE_clean_linker_10, # of connection points: 2
#     Edge 96, Type (0, 0), BuildingBlock: TEMPAE_clean_linker_10, # of connection points: 2
#     Edge 97, Type (0, 0), BuildingBlock: TEMPAE_clean_linker_10, # of connection points: 2
#     Edge 98, Type (0, 0), BuildingBlock: TEMPAE_clean_linker_10, # of connection points: 2
#     Edge 99, Type (0, 0), BuildingBlock: TEMPAE_clean_linker_10, # of connection points: 2
#     Edge 100, Type (0, 0), BuildingBlock: TEMPAE_clean_linker_10, # of connection points: 2
#     Edge 101, Type (0, 0), BuildingBlock: TEMPAE_clean_linker_10, # of connection points: 2
#     Edge 102, Type (0, 0), BuildingBlock: TEMPAE_clean_linker_10, # of connection points: 2
#     Edge 103, Type (0, 0), BuildingBlock: TEMPAE_clean_linker_10, # of connection points: 2
#     Edge 104, Type (0, 0), BuildingBlock: TEMPAE_clean_linker_10, # of connection points: 2
#     Edge 105, Type (0, 0), BuildingBlock: TEMPAE_clean_linker_10, # of connection points: 2
#     Edge 106, Type (0, 0), BuildingBlock: TEMPAE_clean_linker_10, # of connection points: 2
#     Edge 107, Type (0, 0), BuildingBlock: TEMPAE_clean_linker_10, # of connection points: 2
#     Edge 108, Type (0, 0), BuildingBlock: TEMPAE_clean_linker_10, # of connection points: 2
#     Edge 109, Type (0, 0), BuildingBlock: TEMPAE_clean_linker_10, # of connection points: 2
#     Edge 110, Type (0, 0), BuildingBlock: TEMPAE_clean_linker_10, # of connection points: 2
#     Edge 111, Type (0, 0), BuildingBlock: TEMPAE_clean_linker_10, # of connection points: 2
#     Edge 112, Type (0, 0), BuildingBlock: TEMPAE_clean_linker_10, # of connection points: 2
#     Edge 113, Type (0, 0), BuildingBlock: TEMPAE_clean_linker_10, # of connection points: 2
#     Edge 114, Type (0, 0), BuildingBlock: TEMPAE_clean_linker_10, # of connection points: 2
#     Edge 115, Type (0, 0), BuildingBlock: TEMPAE_clean_linker_10, # of connection points: 2
#     Edge 116, Type (0, 0), BuildingBlock: TEMPAE_clean_linker_10, # of connection points: 2
#     Edge 117, Type (0, 0), BuildingBlock: TEMPAE_clean_linker_10, # of connection points: 2
#     Edge 118, Type (0, 0), BuildingBlock: TEMPAE_clean_linker_10, # of connection points: 2
#     Edge 119, Type (0, 0), BuildingBlock: TEMPAE_clean_linker_10, # of connection points: 2
#     Edge 120, Type (0, 0), BuildingBlock: TEMPAE_clean_linker_10, # of connection points: 2
#     Edge 121, Type (0, 0), BuildingBlock: TEMPAE_clean_linker_10, # of connection points: 2
#     Edge 122, Type (0, 0), BuildingBlock: TEMPAE_clean_linker_10, # of connection points: 2
#     Edge 123, Type (0, 0), BuildingBlock: TEMPAE_clean_linker_10, # of connection points: 2
#     Edge 124, Type (0, 0), BuildingBlock: TEMPAE_clean_linker_10, # of connection points: 2
#     Edge 125, Type (0, 0), BuildingBlock: TEMPAE_clean_linker_10, # of connection points: 2
#     Edge 126, Type (0, 0), BuildingBlock: TEMPAE_clean_linker_10, # of connection points: 2
#     Edge 127, Type (0, 0), BuildingBlock: TEMPAE_clean_linker_10, # of connection points: 2
#     Edge 128, Type (0, 0), BuildingBlock: TEMPAE_clean_linker_10, # of connection points: 2
#     Edge 129, Type (0, 0), BuildingBlock: TEMPAE_clean_linker_10, # of connection points: 2
#     Edge 130, Type (0, 0), BuildingBlock: TEMPAE_clean_linker_10, # of connection points: 2
#     Edge 131, Type (0, 0), BuildingBlock: TEMPAE_clean_linker_10, # of connection points: 2
#     Edge 132, Type (0, 0), BuildingBlock: TEMPAE_clean_linker_10, # of connection points: 2
#     Edge 133, Type (0, 0), BuildingBlock: TEMPAE_clean_linker_10, # of connection points: 2
#     Edge 134, Type (0, 0), BuildingBlock: TEMPAE_clean_linker_10, # of connection points: 2
#     Edge 135, Type (0, 0), BuildingBlock: TEMPAE_clean_linker_10, # of connection points: 2
#     Edge 136, Type (0, 0), BuildingBlock: TEMPAE_clean_linker_10, # of connection points: 2
#     Edge 137, Type (0, 0), BuildingBlock: TEMPAE_clean_linker_10, # of connection points: 2
#     Edge 138, Type (0, 0), BuildingBlock: TEMPAE_clean_linker_10, # of connection points: 2
#     Edge 139, Type (0, 0), BuildingBlock: TEMPAE_clean_linker_10, # of connection points: 2
#     Edge 140, Type (0, 0), BuildingBlock: TEMPAE_clean_linker_10, # of connection points: 2
#     Edge 141, Type (0, 0), BuildingBlock: TEMPAE_clean_linker_10, # of connection points: 2
#     Edge 142, Type (0, 0), BuildingBlock: TEMPAE_clean_linker_10, # of connection points: 2
#     Edge 143, Type (0, 0), BuildingBlock: TEMPAE_clean_linker_10, # of connection points: 2
# Relax obj value: 0.454
# Max RMSD: 0.185
# Mean RMSD: 0.185
data_MOF--net-wmy--node1-OJICUG_clean_sbu_0--edge1-TEMPAE_clean_linker_10
_symmetry_space_group_name_H-M    P1
_symmetry_Int_Tables_number       1
_symmetry_cell_setting            triclinic
loop_
_symmetry_equiv_pos_as_xyz
'x, y, z'
_cell_length_a     54.491499
_cell_length_b     54.488278
_cell_length_c     58.065612
_cell_angle_alpha  89.994345
_cell_angle_beta   89.97717
_cell_angle_gamma 120.00159
loop_
_atom_site_label
_atom_site_type_symbol
_atom_site_fract_x
_atom_site_fract_y
_atom_site_fract_z
_atom_type_partial_charge
Sc0 Sc 0.00401 0.14351 0.08709 0.0
Sc1 Sc 0.04275 0.20529 0.11943 0.0
Sc2 Sc 0.96761 0.17175 0.1169 0.0
O3 O 0.00474 0.1735 0.10789 0.0
C4 C 0.95602 0.15299 0.06438 0.0
C5 C 0.05661 0.20031 0.06718 0.0
C6 C 0.0083 0.23766 0.10964 0.0
C7 C 0.05376 0.15302 0.12097 0.0
C8 C 0.95108 0.10679 0.11985 0.0
C9 C 0.00373 0.19042 0.16354 0.0
O10 O 0.97489 0.14584 0.06363 0.0
O11 O 0.06112 0.21517 0.08527 0.0
O12 O 0.98386 0.21575 0.10855 0.0
O13 O 0.03302 0.13752 0.10795 0.0
O14 O 0.94683 0.12693 0.12561 0.0
O15 O 0.02761 0.19812 0.15423 0.0
O16 O 0.97058 0.10989 0.10617 0.0
O17 O 0.0606 0.17834 0.12597 0.0
O18 O 0.98085 0.18183 0.15225 0.0
O19 O 0.03753 0.17435 0.06605 0.0
O20 O 0.95036 0.16208 0.08259 0.0
O21 O 0.03055 0.23673 0.11447 0.0
Sc22 Sc 0.84691 0.85306 0.07479 0.0
Sc23 Sc 0.79407 0.83544 0.11631 0.0
Sc24 Sc 0.82909 0.79557 0.11167 0.0
O25 O 0.82343 0.8281 0.10103 0.0
C26 C 0.83658 0.79365 0.05718 0.0
C27 C 0.78615 0.84568 0.06376 0.0
C28 C 0.76222 0.76767 0.11131 0.0
C29 C 0.84485 0.89855 0.1081 0.0
C30 C 0.89235 0.84481 0.10376 0.0
C31 C 0.81807 0.81833 0.15916 0.0
O32 O 0.83938 0.81789 0.05374 0.0
O33 O 0.77632 0.83921 0.08408 0.0
O34 O 0.78436 0.76581 0.10815 0.0
O35 O 0.85667 0.89145 0.09267 0.0
O36 O 0.8745 0.82343 0.1154 0.0
O37 O 0.80846 0.83295 0.15002 0.0
O38 O 0.88523 0.85645 0.08817 0.0
O39 O 0.82202 0.8808 0.11812 0.0
O40 O 0.82445 0.80245 0.14767 0.0
O41 O 0.81114 0.85166 0.05851 0.0
O42 O 0.83459 0.78353 0.07726 0.0
O43 O 0.76302 0.79091 0.11597 0.0
Sc44 Sc 0.14867 0.00403 0.07728 0.0
Sc45 Sc 0.16504 0.96247 0.11251 0.0
Sc46 Sc 0.20936 0.03687 0.11164 0.0
O47 O 0.17435 0.00114 0.10056 0.0
C48 C 0.20836 0.04971 0.05801 0.0
C49 C 0.14997 0.94874 0.06017 0.0
C50 C 0.23257 0.99466 0.10642 0.0
C51 C 0.10332 0.95596 0.10916 0.0
C52 C 0.16508 0.05777 0.10953 0.0
C53 C 0.18606 0.99943 0.15744 0.0
O54 O 0.18339 0.02924 0.05488 0.0
O55 O 0.16055 0.94491 0.0784 0.0
O56 O 0.23598 0.01931 0.10358 0.0
O57 O 0.11142 0.97861 0.09769 0.0
O58 O 0.18518 0.0573 0.1203 0.0
O59 O 0.16843 0.97663 0.14739 0.0
O60 O 0.15184 0.04118 0.09293 0.0
O61 O 0.11985 0.94659 0.11427 0.0
O62 O 0.20375 0.0217 0.1467 0.0
O63 O 0.14295 0.96768 0.05854 0.0
O64 O 0.21963 0.05672 0.07788 0.0
O65 O 0.20889 0.97325 0.11188 0.0
Sc66 Sc 0.14869 0.00805 0.41055 0.0
Sc67 Sc 0.20734 0.04548 0.37454 0.0
Sc68 Sc 0.17241 0.97015 0.37726 0.0
O69 O 0.17615 0.00787 0.38736 0.0
C70 C 0.15626 0.95728 0.43007 0.0
C71 C 0.20777 0.05867 0.42815 0.0
C72 C 0.23905 0.00976 0.38127 0.0
C73 C 0.15759 0.05961 0.37856 0.0
C74 C 0.10822 0.95698 0.37774 0.0
C75 C 0.18792 0.00588 0.33038 0.0
O76 O 0.14928 0.97619 0.43164 0.0
O77 O 0.21983 0.06454 0.40849 0.0
O78 O 0.21695 0.98543 0.38254 0.0
O79 O 0.14423 0.04039 0.39341 0.0
O80 O 0.12705 0.95093 0.37159 0.0
O81 O 0.1977 0.03002 0.33984 0.0
O82 O 0.11307 0.97726 0.39125 0.0
O83 O 0.18051 0.06374 0.36943 0.0
O84 O 0.1792 0.98296 0.34163 0.0
O85 O 0.18243 0.03879 0.43124 0.0
O86 O 0.16532 0.9524 0.41149 0.0
O87 O 0.23831 0.0324 0.37773 0.0
Sc88 Sc 0.00585 0.14448 0.40889 0.0
Sc89 Sc 0.96246 0.1655 0.38143 0.0
Sc90 Sc 0.03742 0.21065 0.38076 0.0
O91 O 0.00194 0.1736 0.39028 0.0
C92 C 0.05342 0.20264 0.43158 0.0
C93 C 0.953 0.14372 0.43319 0.0
C94 C 0.9942 0.23157 0.39384 0.0
C95 C 0.95439 0.10381 0.37609 0.0
C96 C 0.0566 0.1645 0.37326 0.0
C97 C 0.99853 0.19315 0.33591 0.0
O98 O 0.03683 0.176 0.43123 0.0
O99 O 0.94568 0.1525 0.41566 0.0
O100 O 0.01931 0.23656 0.3904 0.0
O101 O 0.97523 0.10916 0.38905 0.0
O102 O 0.0603 0.18928 0.37021 0.0
O103 O 0.97537 0.17746 0.3464 0.0
O104 O 0.0375 0.14615 0.38623 0.0
O105 O 0.94706 0.12202 0.37152 0.0
O106 O 0.0224 0.20677 0.34597 0.0
O107 O 0.97426 0.14002 0.43321 0.0
O108 O 0.05606 0.21856 0.41466 0.0
O109 O 0.97242 0.20739 0.39091 0.0
Sc110 Sc 0.85135 0.85294 0.41615 0.0
Sc111 Sc 0.83693 0.79854 0.37711 0.0
Sc112 Sc 0.79475 0.8313 0.37765 0.0
O113 O 0.82776 0.82764 0.39017 0.0
C114 C 0.7904 0.8397 0.43159 0.0
C115 C 0.84736 0.79433 0.43035 0.0
C116 C 0.76896 0.76491 0.38024 0.0
C117 C 0.89877 0.85195 0.38503 0.0
C118 C 0.84131 0.89544 0.3845 0.0
C119 C 0.81979 0.81889 0.33205 0.0
O120 O 0.81472 0.84323 0.43603 0.0
O121 O 0.84032 0.78285 0.41057 0.0
O122 O 0.76613 0.78662 0.38225 0.0
O123 O 0.89054 0.86432 0.39901 0.0
O124 O 0.82129 0.87651 0.37241 0.0
O125 O 0.83501 0.81081 0.34241 0.0
O126 O 0.8525 0.88969 0.40133 0.0
O127 O 0.8821 0.82792 0.3761 0.0
O128 O 0.80305 0.82507 0.34242 0.0
O129 O 0.8527 0.81945 0.43412 0.0
O130 O 0.78125 0.83789 0.41116 0.0
O131 O 0.79276 0.76637 0.37683 0.0
Sc132 Sc 0.03254 0.82979 0.87659 0.0
Sc133 Sc 0.95773 0.7966 0.87478 0.0
Sc134 Sc 0.99666 0.85345 0.91181 0.0
O135 O 0.99564 0.82664 0.88759 0.0
C136 C 0.04355 0.84119 0.93067 0.0
C137 C 0.99238 0.7636 0.88031 0.0
C138 C 0.94199 0.79531 0.92709 0.0
C139 C 0.99592 0.81513 0.83022 0.0
C140 C 0.05101 0.89412 0.88133 0.0
C141 C 0.94898 0.85039 0.87915 0.0
O142 O 0.05149 0.83861 0.91064 0.0
O143 O 0.97029 0.76487 0.87532 0.0
O144 O 0.96039 0.8213 0.92947 0.0
O145 O 0.01845 0.82124 0.84124 0.0
O146 O 0.03372 0.88904 0.89774 0.0
O147 O 0.94068 0.82495 0.87312 0.0
O148 O 0.0516 0.87476 0.86948 0.0
O149 O 0.9725 0.80826 0.84003 0.0
O150 O 0.97085 0.86484 0.89151 0.0
O151 O 0.01661 0.78545 0.88322 0.0
O152 O 0.02205 0.84398 0.93404 0.0
O153 O 0.93899 0.78184 0.90846 0.0
Sc154 Sc 0.16927 0.20688 0.87882 0.0
Sc155 Sc 0.20397 0.16663 0.87777 0.0
Sc156 Sc 0.14883 0.14976 0.91636 0.0
O157 O 0.17404 0.17446 0.89089 0.0
C158 C 0.16091 0.20965 0.93312 0.0
C159 C 0.23588 0.23457 0.88036 0.0
C160 C 0.20842 0.15563 0.93029 0.0
C161 C 0.18161 0.18199 0.83313 0.0
C162 C 0.10556 0.16004 0.88625 0.0
C163 C 0.15118 0.10399 0.88454 0.0
O164 O 0.162 0.21888 0.91277 0.0
O165 O 0.23495 0.21113 0.87639 0.0
O166 O 0.18246 0.14766 0.93347 0.0
O167 O 0.17581 0.19909 0.84343 0.0
O168 O 0.11187 0.14925 0.903 0.0
O169 O 0.17626 0.12112 0.87769 0.0
O170 O 0.12407 0.17956 0.87353 0.0
O171 O 0.19002 0.16702 0.84346 0.0
O172 O 0.13721 0.11163 0.8973 0.0
O173 O 0.21382 0.23657 0.88343 0.0
O174 O 0.15878 0.18578 0.93723 0.0
O175 O 0.22078 0.16505 0.91109 0.0
Sc176 Sc 0.78986 0.96513 0.88528 0.0
Sc177 Sc 0.83274 0.03969 0.88122 0.0
Sc178 Sc 0.84992 0.00153 0.92004 0.0
O179 O 0.8242 0.00213 0.89545 0.0
C180 C 0.79035 0.95513 0.93943 0.0
C181 C 0.76509 0.00644 0.88724 0.0
C182 C 0.84624 0.05659 0.93349 0.0
C183 C 0.81215 0.99942 0.83806 0.0
C184 C 0.83635 0.94695 0.89 0.0
C185 C 0.89503 0.04836 0.88648 0.0
O186 O 0.77918 0.94746 0.91962 0.0
O187 O 0.78868 0.02803 0.88185 0.0
O188 O 0.8526 0.03748 0.93723 0.0
O189 O 0.79542 0.97758 0.84965 0.0
O190 O 0.84937 0.96492 0.90585 0.0
O191 O 0.8779 0.05601 0.87912 0.0
O192 O 0.81535 0.94539 0.87908 0.0
O193 O 0.82901 0.0232 0.84714 0.0
O194 O 0.88758 0.02766 0.90025 0.0
O195 O 0.76214 0.98209 0.89089 0.0
O196 O 0.81525 0.97578 0.94235 0.0
O197 O 0.83766 0.06013 0.91411 0.0
Sc198 Sc 0.82709 0.02366 0.61934 0.0
Sc199 Sc 0.7925 0.94847 0.62135 0.0
Sc200 Sc 0.85482 0.98674 0.58975 0.0
O201 O 0.82481 0.98637 0.6102 0.0
C202 C 0.8469 0.03558 0.56707 0.0
C203 C 0.76114 0.98405 0.61219 0.0
C204 C 0.79752 0.93535 0.56912 0.0
C205 C 0.80825 0.98688 0.66573 0.0
C206 C 0.8917 0.03946 0.62267 0.0
C207 C 0.84396 0.93622 0.62295 0.0
O208 O 0.83809 0.04167 0.58525 0.0
O209 O 0.76172 0.96169 0.61733 0.0
O210 O 0.82386 0.95342 0.56862 0.0
O211 O 0.81638 0.00978 0.65454 0.0
O212 O 0.88854 0.02007 0.60883 0.0
O213 O 0.8184 0.92924 0.62706 0.0
O214 O 0.87161 0.04372 0.62852 0.0
O215 O 0.80053 0.96306 0.65626 0.0
O216 O 0.86026 0.95764 0.61087 0.0
O217 O 0.78333 0.00821 0.61054 0.0
O218 O 0.85303 0.01599 0.56622 0.0
O219 O 0.7822 0.93121 0.58687 0.0
Sc220 Sc 0.96298 0.78389 0.61129 0.0
Sc221 Sc 0.03716 0.83008 0.61209 0.0
Sc222 Sc 0.99438 0.84452 0.57667 0.0
O223 O 0.99815 0.81947 0.60007 0.0
C224 C 0.94977 0.78429 0.55762 0.0
C225 C 0.0068 0.76255 0.6065 0.0
C226 C 0.05061 0.84494 0.55967 0.0
C227 C 0.00012 0.80876 0.6571 0.0
C228 C 0.9403 0.82674 0.60892 0.0
C229 C 0.04175 0.89092 0.60836 0.0
O230 O 0.94305 0.77291 0.57749 0.0
O231 O 0.02771 0.78666 0.61175 0.0
O232 O 0.03102 0.85104 0.55787 0.0
O233 O 0.9781 0.79037 0.64649 0.0
O234 O 0.95683 0.84037 0.59238 0.0
O235 O 0.05179 0.87501 0.61363 0.0
O236 O 0.94134 0.80693 0.61966 0.0
O237 O 0.02275 0.82654 0.6469 0.0
O238 O 0.01905 0.88217 0.59684 0.0
O239 O 0.98183 0.75827 0.60361 0.0
O240 O 0.96982 0.80947 0.55445 0.0
O241 O 0.05501 0.835 0.57802 0.0
Sc242 Sc 0.20084 0.16509 0.6134 0.0
Sc243 Sc 0.16244 0.20173 0.61765 0.0
Sc244 Sc 0.14474 0.1495 0.57554 0.0
O245 O 0.16927 0.17202 0.60231 0.0
C246 C 0.2041 0.15842 0.559 0.0
C247 C 0.23018 0.23214 0.61367 0.0
C248 C 0.15444 0.21114 0.56486 0.0
C249 C 0.17785 0.17638 0.66061 0.0
C250 C 0.1504 0.10249 0.6045 0.0
C251 C 0.0992 0.15226 0.60847 0.0
O252 O 0.2138 0.16026 0.57921 0.0
O253 O 0.20712 0.232 0.61763 0.0
O254 O 0.14854 0.1863 0.55918 0.0
O255 O 0.19313 0.1691 0.64928 0.0
O256 O 0.13932 0.11036 0.58898 0.0
O257 O 0.11707 0.17434 0.61924 0.0
O258 O 0.17201 0.11973 0.61623 0.0
O259 O 0.16424 0.18703 0.65136 0.0
O260 O 0.10619 0.1409 0.59258 0.0
O261 O 0.23151 0.20967 0.61076 0.0
O262 O 0.18002 0.15582 0.55522 0.0
O263 O 0.15947 0.22012 0.58547 0.0
Sc264 Sc 0.66907 0.48827 0.40373 0.0
Sc265 Sc 0.70672 0.54252 0.44368 0.0
Sc266 Sc 0.63164 0.50803 0.44144 0.0
O267 O 0.66915 0.5129 0.42971 0.0
C268 C 0.61933 0.49842 0.38741 0.0
C269 C 0.72228 0.54809 0.3904 0.0
C270 C 0.67116 0.57475 0.43952 0.0
C271 C 0.71786 0.49107 0.43596 0.0
C272 C 0.61682 0.44428 0.43469 0.0
C273 C 0.66753 0.52072 0.48792 0.0
O274 O 0.64015 0.49475 0.38347 0.0
O275 O 0.7271 0.55849 0.4106 0.0
O276 O 0.64686 0.55272 0.4374 0.0
O277 O 0.69864 0.47919 0.42078 0.0
O278 O 0.61372 0.46266 0.44594 0.0
O279 O 0.69138 0.5301 0.47813 0.0
O280 O 0.63501 0.45066 0.41874 0.0
O281 O 0.72337 0.51407 0.44586 0.0
O282 O 0.64474 0.51356 0.47699 0.0
O283 O 0.70241 0.52325 0.38586 0.0
O284 O 0.61267 0.50193 0.40762 0.0
O285 O 0.69378 0.57388 0.44304 0.0
Sc286 Sc 0.52258 0.18908 0.41138 0.0
Sc287 Sc 0.46437 0.17227 0.44631 0.0
Sc288 Sc 0.49532 0.12863 0.4461 0.0
O289 O 0.4941 0.1633 0.4347 0.0
C290 C 0.50817 0.12918 0.39234 0.0
C291 C 0.46599 0.18766 0.39404 0.0
C292 C 0.4296 0.10459 0.44118 0.0
C293 C 0.51946 0.23414 0.44319 0.0
C294 C 0.56048 0.17292 0.44321 0.0
C295 C 0.48089 0.15218 0.49161 0.0
O296 O 0.5128 0.1542 0.38913 0.0
O297 O 0.45137 0.17652 0.41208 0.0
O298 O 0.45101 0.10138 0.4388 0.0
O299 O 0.53428 0.22621 0.43189 0.0
O300 O 0.54009 0.15294 0.45422 0.0
O301 O 0.47482 0.16903 0.4813 0.0
O302 O 0.55681 0.18606 0.42671 0.0
O303 O 0.49349 0.2175 0.44804 0.0
O304 O 0.48636 0.13494 0.48114 0.0
O305 O 0.49204 0.19501 0.39264 0.0
O306 O 0.50429 0.11803 0.41225 0.0
O307 O 0.43161 0.12837 0.44576 0.0
Sc308 Sc 0.8042 0.33131 0.41568 0.0
Sc309 Sc 0.83052 0.29419 0.44624 0.0
Sc310 Sc 0.86877 0.36966 0.44513 0.0
O311 O 0.83453 0.33174 0.43577 0.0
C312 C 0.86114 0.38103 0.39293 0.0
C313 C 0.80922 0.2802 0.39433 0.0
C314 C 0.89637 0.33113 0.43517 0.0
C315 C 0.7669 0.28083 0.45067 0.0
C316 C 0.81827 0.38339 0.44815 0.0
C317 C 0.85369 0.3333 0.49104 0.0
O318 O 0.83478 0.36301 0.3931 0.0
O319 O 0.81813 0.27465 0.41271 0.0
O320 O 0.89866 0.35508 0.4393 0.0
O321 O 0.77039 0.29962 0.43603 0.0
O322 O 0.84383 0.3899 0.45183 0.0
O323 O 0.84283 0.30947 0.48087 0.0
O324 O 0.80121 0.3621 0.4363 0.0
O325 O 0.78663 0.27611 0.45661 0.0
O326 O 0.86306 0.35684 0.48062 0.0
O327 O 0.80385 0.30028 0.39294 0.0
O328 O 0.87705 0.38577 0.41034 0.0
O329 O 0.87318 0.30784 0.43636 0.0
Sc330 Sc 0.81227 0.33435 0.74481 0.0
Sc331 Sc 0.87018 0.37179 0.70805 0.0
Sc332 Sc 0.83444 0.29648 0.71016 0.0
O333 O 0.83896 0.33419 0.72085 0.0
C334 C 0.82344 0.28664 0.76436 0.0
C335 C 0.87074 0.38832 0.76027 0.0
C336 C 0.90139 0.33564 0.71403 0.0
C337 C 0.81723 0.382 0.71051 0.0
C338 C 0.77021 0.27999 0.71505 0.0
C339 C 0.85069 0.33272 0.66364 0.0
O340 O 0.81961 0.30759 0.76722 0.0
O341 O 0.88389 0.39156 0.74145 0.0
O342 O 0.87908 0.31143 0.71537 0.0
O343 O 0.80294 0.36151 0.72425 0.0
O344 O 0.7892 0.27761 0.7042 0.0
O345 O 0.86095 0.35673 0.67335 0.0
O346 O 0.77582 0.29848 0.73051 0.0
O347 O 0.84225 0.38907 0.70403 0.0
O348 O 0.841 0.30947 0.67456 0.0
O349 O 0.84494 0.3696 0.76292 0.0
O350 O 0.82707 0.27882 0.74461 0.0
O351 O 0.90103 0.35852 0.71068 0.0
Sc352 Sc 0.66586 0.47926 0.74219 0.0
Sc353 Sc 0.62632 0.49711 0.70563 0.0
Sc354 Sc 0.70116 0.53945 0.70728 0.0
O355 O 0.66446 0.50526 0.71827 0.0
C356 C 0.71271 0.5388 0.76123 0.0
C357 C 0.61133 0.48263 0.75816 0.0
C358 C 0.66023 0.56464 0.71155 0.0
C359 C 0.61776 0.43472 0.70947 0.0
C360 C 0.71987 0.49338 0.71109 0.0
C361 C 0.66457 0.51698 0.66099 0.0
O362 O 0.69215 0.51386 0.76431 0.0
O363 O 0.6075 0.49221 0.73936 0.0
O364 O 0.68467 0.56738 0.71388 0.0
O365 O 0.63927 0.44195 0.72224 0.0
O366 O 0.72096 0.51419 0.7002 0.0
O367 O 0.64113 0.5008 0.67089 0.0
O368 O 0.70224 0.48029 0.72711 0.0
O369 O 0.60972 0.45197 0.70325 0.0
O370 O 0.6872 0.5335 0.67185 0.0
O371 O 0.63028 0.47579 0.76063 0.0
O372 O 0.71988 0.55009 0.74137 0.0
O373 O 0.6382 0.54116 0.70678 0.0
Sc374 Sc 0.51512 0.18386 0.74651 0.0
Sc375 Sc 0.49723 0.12797 0.7085 0.0
Sc376 Sc 0.45603 0.16144 0.71099 0.0
O377 O 0.48943 0.15774 0.72195 0.0
C378 C 0.45602 0.17218 0.76518 0.0
C379 C 0.50954 0.12446 0.76084 0.0
C380 C 0.42941 0.09532 0.7127 0.0
C381 C 0.56003 0.18084 0.71414 0.0
C382 C 0.50291 0.22553 0.71607 0.0
C383 C 0.4794 0.14877 0.66453 0.0
O384 O 0.4802 0.17471 0.76852 0.0
O385 O 0.49945 0.11164 0.7419 0.0
O386 O 0.4272 0.11703 0.71699 0.0
O387 O 0.55257 0.19521 0.72656 0.0
O388 O 0.48265 0.20638 0.70434 0.0
O389 O 0.4959 0.14184 0.6743 0.0
O390 O 0.51479 0.22015 0.73258 0.0
O391 O 0.5428 0.15554 0.7079 0.0
O392 O 0.46203 0.15362 0.6755 0.0
O393 O 0.51785 0.15058 0.76369 0.0
O394 O 0.4456 0.16985 0.74514 0.0
O395 O 0.45276 0.09673 0.7074 0.0
Sc396 Sc 0.69933 0.16235 0.20827 0.0
Sc397 Sc 0.62502 0.13239 0.20859 0.0
Sc398 Sc 0.66726 0.18849 0.24499 0.0
O399 O 0.66386 0.16109 0.22049 0.0
C400 C 0.71266 0.17347 0.26199 0.0
C401 C 0.65716 0.09679 0.21257 0.0
C402 C 0.61176 0.13158 0.26115 0.0
C403 C 0.66103 0.14961 0.1632 0.0
C404 C 0.72065 0.22716 0.21281 0.0
C405 C 0.61981 0.18817 0.21411 0.0
O406 O 0.72015 0.17148 0.24163 0.0
O407 O 0.63575 0.09927 0.2075 0.0
O408 O 0.63051 0.15754 0.26316 0.0
O409 O 0.68338 0.15353 0.17342 0.0
O410 O 0.70499 0.22294 0.2303 0.0
O411 O 0.60963 0.16223 0.20861 0.0
O412 O 0.71916 0.20716 0.20047 0.0
O413 O 0.63857 0.14449 0.17379 0.0
O414 O 0.64269 0.20203 0.22543 0.0
O415 O 0.68186 0.11794 0.21555 0.0
O416 O 0.69152 0.17657 0.2662 0.0
O417 O 0.60796 0.1178 0.24258 0.0
Sc418 Sc 0.83571 0.54141 0.20626 0.0
Sc419 Sc 0.86791 0.49846 0.20388 0.0
Sc420 Sc 0.808 0.47819 0.23809 0.0
O421 O 0.83723 0.50609 0.21603 0.0
C422 C 0.81904 0.53719 0.25914 0.0
C423 C 0.90197 0.56585 0.21115 0.0
C424 C 0.86546 0.48309 0.25684 0.0
C425 C 0.85029 0.52007 0.15954 0.0
C426 C 0.77034 0.49322 0.20562 0.0
C427 C 0.81543 0.43543 0.20536 0.0
O428 O 0.82866 0.55154 0.24076 0.0
O429 O 0.90017 0.54205 0.20735 0.0
O430 O 0.83991 0.47736 0.259 0.0
O431 O 0.84266 0.53534 0.17058 0.0
O432 O 0.77383 0.47679 0.21901 0.0
O433 O 0.84016 0.45358 0.19871 0.0
O434 O 0.79032 0.51764 0.19972 0.0
O435 O 0.859 0.50488 0.16918 0.0
O436 O 0.80112 0.44156 0.21901 0.0
O437 O 0.88046 0.56908 0.21228 0.0
O438 O 0.81085 0.51094 0.26018 0.0
O439 O 0.87904 0.49103 0.23792 0.0
Sc440 Sc 0.46235 0.30448 0.21126 0.0
Sc441 Sc 0.49853 0.37987 0.20951 0.0
Sc442 Sc 0.51784 0.34458 0.24974 0.0
O443 O 0.49296 0.34296 0.22334 0.0
C444 C 0.45891 0.29237 0.26534 0.0
C445 C 0.43112 0.34075 0.21281 0.0
C446 C 0.50763 0.39548 0.26288 0.0
C447 C 0.48369 0.34107 0.16498 0.0
C448 C 0.51374 0.29355 0.2195 0.0
C449 C 0.5623 0.39482 0.21739 0.0
O450 O 0.44899 0.28547 0.24507 0.0
O451 O 0.45388 0.36451 0.21096 0.0
O452 O 0.51306 0.376 0.26769 0.0
O453 O 0.47137 0.31767 0.17577 0.0
O454 O 0.52481 0.31246 0.23501 0.0
O455 O 0.54398 0.39841 0.20665 0.0
O456 O 0.49168 0.28867 0.20826 0.0
O457 O 0.49475 0.36501 0.17486 0.0
O458 O 0.55581 0.37635 0.23314 0.0
O459 O 0.43048 0.31707 0.21366 0.0
O460 O 0.48297 0.31375 0.26947 0.0
O461 O 0.50271 0.40028 0.24248 0.0
Sc462 Sc 0.49245 0.36974 0.94498 0.0
Sc463 Sc 0.45645 0.29426 0.94842 0.0
Sc464 Sc 0.51752 0.33099 0.91466 0.0
O465 O 0.48874 0.33168 0.93608 0.0
C466 C 0.50863 0.37966 0.89198 0.0
C467 C 0.42548 0.3301 0.9398 0.0
C468 C 0.4596 0.27909 0.896 0.0
C469 C 0.47551 0.33481 0.99225 0.0
C470 C 0.55703 0.38434 0.94567 0.0
C471 C 0.50741 0.28142 0.94929 0.0
O472 O 0.49919 0.38541 0.90999 0.0
O473 O 0.42587 0.30725 0.9429 0.0
O474 O 0.48532 0.29844 0.89393 0.0
O475 O 0.48658 0.35789 0.98088 0.0
O476 O 0.55249 0.36329 0.93333 0.0
O477 O 0.48289 0.27599 0.95563 0.0
O478 O 0.53788 0.39029 0.95078 0.0
O479 O 0.46373 0.31039 0.983 0.0
O480 O 0.52228 0.30086 0.93499 0.0
O481 O 0.44772 0.35439 0.93973 0.0
O482 O 0.51627 0.36112 0.89167 0.0
O483 O 0.44581 0.27447 0.91473 0.0
Sc484 Sc 0.62426 0.12617 0.94427 0.0
Sc485 Sc 0.69863 0.17051 0.94573 0.0
Sc486 Sc 0.65778 0.18594 0.90881 0.0
O487 O 0.66019 0.16087 0.93302 0.0
C488 C 0.61254 0.12553 0.89029 0.0
C489 C 0.66654 0.10278 0.94134 0.0
C490 C 0.71325 0.18392 0.89331 0.0
C491 C 0.66086 0.15096 0.9903 0.0
C492 C 0.60345 0.17047 0.94005 0.0
C493 C 0.70542 0.2322 0.94042 0.0
O494 O 0.60522 0.11472 0.91029 0.0
O495 O 0.68787 0.1267 0.94636 0.0
O496 O 0.69439 0.19093 0.89086 0.0
O497 O 0.63871 0.13306 0.97956 0.0
O498 O 0.62045 0.18341 0.92359 0.0
O499 O 0.71455 0.21573 0.94641 0.0
O500 O 0.60359 0.1505 0.95132 0.0
O501 O 0.68389 0.16811 0.98027 0.0
O502 O 0.68302 0.22384 0.92856 0.0
O503 O 0.64194 0.09924 0.93793 0.0
O504 O 0.63284 0.15055 0.88695 0.0
O505 O 0.71672 0.17392 0.91202 0.0
Sc506 Sc 0.86844 0.50634 0.94018 0.0
Sc507 Sc 0.8288 0.54174 0.94271 0.0
Sc508 Sc 0.8122 0.4883 0.90196 0.0
O509 O 0.83639 0.51207 0.9284 0.0
C510 C 0.87192 0.49793 0.88608 0.0
C511 C 0.89668 0.57312 0.9392 0.0
C512 C 0.82024 0.54898 0.88956 0.0
C513 C 0.84519 0.51898 0.98668 0.0
C514 C 0.81909 0.44311 0.93251 0.0
C515 C 0.76593 0.49105 0.93383 0.0
O516 O 0.88128 0.49999 0.90643 0.0
O517 O 0.87335 0.57249 0.94304 0.0
O518 O 0.81441 0.52392 0.88478 0.0
O519 O 0.861 0.51211 0.97568 0.0
O520 O 0.80813 0.45008 0.91626 0.0
O521 O 0.78345 0.51392 0.9439 0.0
O522 O 0.84012 0.46107 0.94441 0.0
O523 O 0.83047 0.52811 0.97698 0.0
O524 O 0.77335 0.47903 0.91882 0.0
O525 O 0.89853 0.55092 0.93637 0.0
O526 O 0.84793 0.49536 0.88186 0.0
O527 O 0.82595 0.55905 0.90985 0.0
Sc528 Sc 0.32705 0.80206 0.74909 0.0
Sc529 Sc 0.37107 0.86639 0.7767 0.0
Sc530 Sc 0.2963 0.83678 0.77803 0.0
O531 O 0.33146 0.83518 0.7679 0.0
C532 C 0.27742 0.81083 0.72836 0.0
C533 C 0.3783 0.85519 0.72396 0.0
C534 C 0.33938 0.90161 0.76739 0.0
C535 C 0.38032 0.81328 0.77959 0.0
C536 C 0.27785 0.77154 0.78568 0.0
C537 C 0.33594 0.85636 0.82272 0.0
O538 O 0.2937 0.80044 0.72845 0.0
O539 O 0.386 0.87111 0.74168 0.0
O540 O 0.31424 0.88085 0.76879 0.0
O541 O 0.35896 0.79781 0.76719 0.0
O542 O 0.27362 0.79237 0.78822 0.0
O543 O 0.35893 0.86344 0.81208 0.0
O544 O 0.29713 0.77235 0.77289 0.0
O545 O 0.3876 0.83869 0.78452 0.0
O546 O 0.31216 0.84746 0.81275 0.0
O547 O 0.35736 0.82993 0.72405 0.0
O548 O 0.27684 0.82633 0.74441 0.0
O549 O 0.36108 0.89909 0.77032 0.0
Sc550 Sc 0.18411 0.52333 0.74387 0.0
Sc551 Sc 0.12545 0.50323 0.77957 0.0
Sc552 Sc 0.15846 0.46104 0.77655 0.0
O553 O 0.15594 0.49579 0.76673 0.0
C554 C 0.17446 0.46426 0.72392 0.0
C555 C 0.12671 0.51817 0.7262 0.0
C556 C 0.09181 0.43596 0.77213 0.0
C557 C 0.17647 0.56622 0.77679 0.0
C558 C 0.2234 0.51091 0.77631 0.0
C559 C 0.14386 0.48133 0.82349 0.0
O560 O 0.18334 0.49065 0.72284 0.0
O561 O 0.11491 0.51291 0.74594 0.0
O562 O 0.11344 0.43283 0.77218 0.0
O563 O 0.18892 0.56032 0.76112 0.0
O564 O 0.20419 0.48579 0.78153 0.0
O565 O 0.1334 0.49511 0.81411 0.0
O566 O 0.21903 0.52736 0.76365 0.0
O567 O 0.15379 0.54754 0.78628 0.0
O568 O 0.1532 0.46772 0.81224 0.0
O569 O 0.15112 0.52124 0.72275 0.0
O570 O 0.16381 0.44991 0.7421 0.0
O571 O 0.09333 0.45985 0.77468 0.0
Sc572 Sc 0.48076 0.66273 0.73998 0.0
Sc573 Sc 0.49489 0.62296 0.77952 0.0
Sc574 Sc 0.53782 0.69777 0.77794 0.0
O575 O 0.50437 0.66111 0.76596 0.0
C576 C 0.54155 0.71018 0.72397 0.0
C577 C 0.48427 0.60771 0.7264 0.0
C578 C 0.56281 0.65654 0.77546 0.0
C579 C 0.43314 0.61477 0.77142 0.0
C580 C 0.49163 0.71582 0.77129 0.0
C581 C 0.51337 0.66124 0.82405 0.0
O582 O 0.5172 0.68931 0.71972 0.0
O583 O 0.49106 0.60329 0.74628 0.0
O584 O 0.56586 0.68112 0.773 0.0
O585 O 0.44157 0.63524 0.75727 0.0
O586 O 0.51167 0.71685 0.78332 0.0
O587 O 0.49734 0.63785 0.81408 0.0
O588 O 0.4801 0.69866 0.75461 0.0
O589 O 0.44973 0.60746 0.78062 0.0
O590 O 0.53025 0.68375 0.81326 0.0
O591 O 0.47921 0.62762 0.72234 0.0
O592 O 0.55088 0.71753 0.74434 0.0
O593 O 0.53898 0.6345 0.77959 0.0
Sc594 Sc 0.48635 0.67234 0.07903 0.0
Sc595 Sc 0.54207 0.70826 0.04015 0.0
Sc596 Sc 0.50716 0.63307 0.04438 0.0
O597 O 0.51183 0.67118 0.05442 0.0
C598 C 0.4938 0.62124 0.09771 0.0
C599 C 0.54658 0.72325 0.09368 0.0
C600 C 0.57404 0.67265 0.04664 0.0
C601 C 0.49331 0.72318 0.04699 0.0
C602 C 0.44343 0.62106 0.0472 0.0
C603 C 0.5201 0.66735 -0.00311 0.0
O604 O 0.48766 0.64068 0.09974 0.0
O605 O 0.55668 0.72872 0.07333 0.0
O606 O 0.55193 0.64837 0.04856 0.0
O607 O 0.4815 0.70492 0.0628 0.0
O608 O 0.46166 0.61461 0.04008 0.0
O609 O 0.53029 0.6917 0.00598 0.0
O610 O 0.44933 0.64149 0.06095 0.0
O611 O 0.51481 0.72626 0.036 0.0
O612 O 0.5123 0.64481 0.00845 0.0
O613 O 0.52179 0.70314 0.09831 0.0
O614 O 0.50131 0.61557 0.07869 0.0
O615 O 0.57319 0.69516 0.04257 0.0
Sc616 Sc 0.33517 0.81351 0.07668 0.0
Sc617 Sc 0.29517 0.82999 0.03941 0.0
Sc618 Sc 0.37013 0.87415 0.04184 0.0
O619 O 0.33351 0.8392 0.05253 0.0
C620 C 0.38294 0.87388 0.09508 0.0
C621 C 0.28137 0.81754 0.09284 0.0
C622 C 0.32754 0.89762 0.04548 0.0
C623 C 0.28572 0.76762 0.04498 0.0
C624 C 0.38732 0.8262 0.04381 0.0
C625 C 0.33429 0.85151 -0.00473 0.0
O626 O 0.36431 0.84804 0.0976 0.0
O627 O 0.27581 0.82359 0.07306 0.0
O628 O 0.35242 0.90129 0.04723 0.0
O629 O 0.3056 0.77531 0.05951 0.0
O630 O 0.39117 0.84973 0.03597 0.0
O631 O 0.31058 0.8354 0.0048 0.0
O632 O 0.36836 0.8114 0.05857 0.0
O633 O 0.27947 0.78495 0.03577 0.0
O634 O 0.35685 0.86738 0.00641 0.0
O635 O 0.302 0.81336 0.09645 0.0
O636 O 0.38848 0.88632 0.07574 0.0
O637 O 0.30579 0.87361 0.04153 0.0
Sc638 Sc 0.18589 0.51912 0.078 0.0
Sc639 Sc 0.17116 0.46294 0.04082 0.0
Sc640 Sc 0.12627 0.49293 0.04195 0.0
O641 O 0.1611 0.49167 0.05347 0.0
C642 C 0.12476 0.50681 0.09465 0.0
C643 C 0.18127 0.46159 0.09496 0.0
C644 C 0.10342 0.42685 0.04556 0.0
C645 C 0.23296 0.51526 0.04782 0.0
C646 C 0.17438 0.55828 0.04426 0.0
C647 C 0.15051 0.48055 -0.00403 0.0
O648 O 0.15093 0.5156 0.09732 0.0
O649 O 0.17794 0.45095 0.07487 0.0
O650 O 0.09931 0.44785 0.04619 0.0
O651 O 0.22491 0.52638 0.06305 0.0
O652 O 0.15044 0.53859 0.03708 0.0
O653 O 0.16568 0.47205 0.00587 0.0
O654 O 0.18977 0.55441 0.05859 0.0
O655 O 0.21589 0.49292 0.03698 0.0
O656 O 0.13487 0.48784 0.00674 0.0
O657 O 0.18355 0.48563 0.09873 0.0
O658 O 0.11231 0.49766 0.07552 0.0
O659 O 0.1278 0.42943 0.04305 0.0
Sc660 Sc 0.3658 0.48666 0.54682 0.0
Sc661 Sc 0.29086 0.45394 0.54401 0.0
Sc662 Sc 0.32916 0.50843 0.58356 0.0
O663 O 0.3286 0.48307 0.55801 0.0
C664 C 0.3776 0.49685 0.60085 0.0
C665 C 0.32482 0.42016 0.54966 0.0
C666 C 0.27477 0.44953 0.597 0.0
C667 C 0.33046 0.47409 0.50006 0.0
C668 C 0.38235 0.55099 0.55257 0.0
C669 C 0.28118 0.50656 0.55082 0.0
O670 O 0.38452 0.49314 0.5808 0.0
O671 O 0.30264 0.42166 0.54553 0.0
O672 O 0.29497 0.47423 0.60149 0.0
O673 O 0.35301 0.48065 0.51116 0.0
O674 O 0.36412 0.54534 0.56839 0.0
O675 O 0.27518 0.48325 0.54119 0.0
O676 O 0.38482 0.53203 0.54166 0.0
O677 O 0.30667 0.46565 0.50967 0.0
O678 O 0.3005 0.51835 0.56595 0.0
O679 O 0.34939 0.44187 0.55165 0.0
O680 O 0.35704 0.50103 0.60439 0.0
O681 O 0.27006 0.43884 0.57693 0.0
Sc682 Sc 0.50814 0.86595 0.53909 0.0
Sc683 Sc 0.53952 0.823 0.53853 0.0
Sc684 Sc 0.4802 0.8046 0.57226 0.0
O685 O 0.50929 0.83121 0.5499 0.0
C686 C 0.49105 0.86245 0.59216 0.0
C687 C 0.57328 0.89044 0.54566 0.0
C688 C 0.53684 0.80695 0.59054 0.0
C689 C 0.52465 0.84443 0.4936 0.0
C690 C 0.44359 0.82128 0.53934 0.0
C691 C 0.4849 0.76074 0.5404 0.0
O692 O 0.49518 0.87388 0.57235 0.0
O693 O 0.57166 0.86729 0.53927 0.0
O694 O 0.51044 0.79835 0.5912 0.0
O695 O 0.52036 0.86223 0.50447 0.0
O696 O 0.4466 0.80829 0.55632 0.0
O697 O 0.51118 0.77746 0.53668 0.0
O698 O 0.46438 0.84115 0.52859 0.0
O699 O 0.52896 0.82615 0.50355 0.0
O700 O 0.46941 0.76851 0.55082 0.0
O701 O 0.55159 0.89297 0.54901 0.0
O702 O 0.48885 0.8384 0.59538 0.0
O703 O 0.55207 0.8191 0.57297 0.0
Sc704 Sc 0.13492 0.63381 0.53779 0.0
Sc705 Sc 0.17529 0.70853 0.53192 0.0
Sc706 Sc 0.20041 0.67307 0.56585 0.0
O707 O 0.17006 0.67171 0.54521 0.0
C708 C 0.14419 0.62768 0.59138 0.0
C709 C 0.10874 0.67396 0.54268 0.0
C710 C 0.19815 0.72827 0.58187 0.0
C711 C 0.1518 0.66656 0.48959 0.0
C712 C 0.18266 0.61668 0.53699 0.0
C713 C 0.23827 0.71874 0.52895 0.0
O714 O 0.12939 0.61952 0.57307 0.0
O715 O 0.13146 0.69597 0.53654 0.0
O716 O 0.20673 0.71051 0.58342 0.0
O717 O 0.13707 0.64442 0.50167 0.0
O718 O 0.19871 0.63664 0.55043 0.0
O719 O 0.22021 0.72661 0.52544 0.0
O720 O 0.15886 0.61281 0.53001 0.0
O721 O 0.16771 0.691 0.49807 0.0
O722 O 0.23331 0.69792 0.54179 0.0
O723 O 0.1069 0.64996 0.54529 0.0
O724 O 0.16985 0.64771 0.59164 0.0
O725 O 0.18358 0.72896 0.56508 0.0
Sc726 Sc 0.15952 0.69651 0.27093 0.0
Sc727 Sc 0.12283 0.62147 0.27321 0.0
Sc728 Sc 0.17664 0.65765 0.23257 0.0
O729 O 0.15307 0.65854 0.25901 0.0
C730 C 0.16819 0.70854 0.21689 0.0
C731 C 0.09257 0.65902 0.27002 0.0
C732 C 0.11533 0.60595 0.22011 0.0
C733 C 0.14637 0.66022 0.31719 0.0
C734 C 0.22251 0.70939 0.26312 0.0
C735 C 0.17284 0.60818 0.26445 0.0
O736 O 0.16615 0.7158 0.23726 0.0
O737 O 0.09271 0.63605 0.27373 0.0
O738 O 0.14062 0.62466 0.21532 0.0
O739 O 0.15367 0.68313 0.30638 0.0
O740 O 0.21525 0.69138 0.24689 0.0
O741 O 0.14996 0.60315 0.27434 0.0
O742 O 0.20475 0.7128 0.27502 0.0
O743 O 0.13668 0.6364 0.30736 0.0
O744 O 0.18522 0.62758 0.24945 0.0
O745 O 0.11505 0.68286 0.26722 0.0
O746 O 0.17034 0.68689 0.21257 0.0
O747 O 0.10529 0.6018 0.24039 0.0
Sc748 Sc 0.2982 0.46075 0.28044 0.0
Sc749 Sc 0.37356 0.50139 0.28266 0.0
Sc750 Sc 0.33555 0.52436 0.24934 0.0
O751 O 0.33571 0.49542 0.27088 0.0
C752 C 0.28689 0.46649 0.22752 0.0
C753 C 0.33803 0.43414 0.27475 0.0
C754 C 0.38757 0.51861 0.23012 0.0
C755 C 0.33442 0.47992 0.32712 0.0
C756 C 0.28254 0.50992 0.28136 0.0
C757 C 0.38569 0.56504 0.28272 0.0
O758 O 0.28111 0.45196 0.2459 0.0
O759 O 0.36062 0.45744 0.27857 0.0
O760 O 0.3686 0.5256 0.22854 0.0
O761 O 0.31129 0.46567 0.31608 0.0
O762 O 0.30257 0.52598 0.26794 0.0
O763 O 0.3921 0.54642 0.28835 0.0
O764 O 0.27774 0.48546 0.2875 0.0
O765 O 0.35839 0.49469 0.31745 0.0
O766 O 0.36509 0.55977 0.26953 0.0
O767 O 0.31373 0.43196 0.27388 0.0
O768 O 0.30591 0.49245 0.22657 0.0
O769 O 0.3921 0.50887 0.24856 0.0
Sc770 Sc 0.54088 0.83719 0.2742 0.0
Sc771 Sc 0.49564 0.86597 0.27726 0.0
Sc772 Sc 0.48051 0.81027 0.23963 0.0
O773 O 0.5056 0.83772 0.26378 0.0
C774 C 0.54052 0.82532 0.22035 0.0
C775 C 0.5631 0.90252 0.27117 0.0
C776 C 0.48231 0.86785 0.22487 0.0
C777 C 0.51713 0.84867 0.32095 0.0
C778 C 0.49688 0.77198 0.27071 0.0
C779 C 0.4341 0.81078 0.2718 0.0
O780 O 0.55161 0.8291 0.24022 0.0
O781 O 0.53939 0.8995 0.27759 0.0
O782 O 0.47547 0.84206 0.22203 0.0
O783 O 0.53518 0.84535 0.30952 0.0
O784 O 0.48355 0.77572 0.25437 0.0
O785 O 0.45038 0.83627 0.27816 0.0
O786 O 0.51701 0.79227 0.28171 0.0
O787 O 0.49877 0.85333 0.3116 0.0
O788 O 0.44267 0.79721 0.25956 0.0
O789 O 0.56683 0.8817 0.26705 0.0
O790 O 0.51552 0.82072 0.21727 0.0
O791 O 0.49179 0.88089 0.24382 0.0
C792 C 0.09986 0.23931 0.0475 0.0
C793 C 0.0749 0.21282 0.04666 0.0
C794 C 0.11887 0.24901 0.02882 0.0
C795 C 0.11289 0.23154 0.00916 0.0
C796 C 0.08673 0.20582 0.00762 0.0
C797 C 0.06806 0.19696 0.02626 0.0
C798 C 0.1459 0.27713 0.03084 0.0
C799 C 0.07919 0.18647 0.98692 0.0
C800 C 0.14503 0.24147 0.9505 0.0
C801 C 0.15789 0.22485 0.95301 0.0
C802 C 0.13364 0.24796 0.96973 0.0
C803 C 0.1349 0.23715 0.99159 0.0
C804 C 0.15177 0.22435 -0.00542 0.0
C805 C 0.16316 0.21843 0.9752 0.0
C806 C 0.11739 0.26336 0.9662 0.0
C807 C 0.15449 0.21328 0.01772 0.0
H808 H 0.10514 0.252 0.06303 0.0
H809 H 0.0485 0.17682 0.02513 0.0
H810 H 0.16215 0.274 0.03973 0.0
H811 H 0.15436 0.28677 0.01374 0.0
H812 H 0.14247 0.29222 0.04132 0.0
H813 H 0.05755 0.16772 0.98818 0.0
H814 H 0.08036 0.19814 0.97094 0.0
H815 H 0.09455 0.17883 0.98522 0.0
H816 H 0.14147 0.24713 0.93342 0.0
H817 H 0.174 0.20644 0.97728 0.0
H818 H 0.11964 0.2768 0.98132 0.0
H819 H 0.09455 0.24768 0.96408 0.0
H820 H 0.1247 0.27683 0.95052 0.0
H821 H 0.1593 0.22931 0.03133 0.0
H822 H 0.17135 0.20748 0.01774 0.0
H823 H 0.13408 0.19413 0.02221 0.0
C824 C 0.77695 0.84888 0.02249 0.0
C825 C 0.76954 0.84952 0.04549 0.0
C826 C 0.76927 0.86154 0.00519 0.0
C827 C 0.7533 0.87465 0.01107 0.0
C828 C 0.74161 0.8709 0.03345 0.0
C829 C 0.75019 0.8586 0.05065 0.0
C830 C 0.78156 0.86415 0.98137 0.0
C831 C 0.72247 0.88238 0.03988 0.0
C832 C 0.78896 0.94482 0.98131 0.0
C833 C 0.77554 0.93745 0.95978 0.0
C834 C 0.77975 0.92529 -0.00062 0.0
C835 C 0.75601 0.8979 -0.00397 0.0
C836 C 0.73982 0.89189 0.97562 0.0
C837 C 0.75001 0.91165 0.9575 0.0
C838 C 0.79752 0.933 0.02102 0.0
C839 C 0.71312 0.86384 0.97203 0.0
H840 H 0.79101 0.8408 0.01832 0.0
H841 H 0.74369 0.8584 0.06833 0.0
H842 H 0.76476 0.85751 0.96816 0.0
H843 H 0.79766 0.88661 0.97793 0.0
H844 H 0.79182 0.85107 0.97931 0.0
H845 H 0.70707 0.86896 0.05333 0.0
H846 H 0.73534 0.90401 0.04708 0.0
H847 H 0.71067 0.88353 0.02472 0.0
H848 H 0.80812 0.96511 0.98356 0.0
H849 H 0.73887 0.90607 0.94118 0.0
H850 H 0.80781 0.91988 0.02232 0.0
H851 H 0.78402 0.92868 0.03647 0.0
H852 H 0.81435 0.95567 0.02135 0.0
H853 H 0.71814 0.84955 0.96204 0.0
H854 H 0.69749 0.86676 0.96187 0.0
H855 H 0.70326 0.85339 0.98859 0.0
C856 C 0.14004 0.9024 0.04268 0.0
C857 C 0.14356 0.9296 0.04022 0.0
C858 C 0.12832 0.88249 0.02472 0.0
C859 C 0.11966 0.89001 0.00418 0.0
C860 C 0.12588 0.91831 0.00088 0.0
C861 C 0.13794 0.93774 0.01887 0.0
C862 C 0.1234 0.85298 0.02852 0.0
C863 C 0.11738 0.92753 0.97917 0.0
C864 C 0.09037 0.8528 0.94794 0.0
C865 C 0.0618 0.84503 0.95079 0.0
C866 C 0.10946 0.86411 0.96643 0.0
C867 C 0.09969 0.86811 0.98791 0.0
C868 C 0.07028 0.85666 0.99159 0.0
C869 C 0.05166 0.84508 0.97299 0.0
C870 C 0.14044 0.87443 0.9623 0.0
C871 C 0.05877 0.85983 0.01439 0.0
H872 H 0.14483 0.89608 0.05901 0.0
H873 H 0.14145 0.95901 0.01659 0.0
H874 H 0.10255 0.83988 0.03699 0.0
H875 H 0.12336 0.84262 0.01206 0.0
H876 H 0.13987 0.85339 0.04004 0.0
H877 H 0.1253 0.9507 0.97886 0.0
H878 H 0.12567 0.92205 0.96376 0.0
H879 H 0.09393 0.91625 0.97776 0.0
H880 H 0.09831 0.85215 0.93096 0.0
H881 H 0.02942 0.83816 0.97552 0.0
H882 H 0.15067 0.87204 0.978 0.0
H883 H 0.15143 0.89724 0.9577 0.0
H884 H 0.1434 0.86276 0.94788 0.0
H885 H 0.06766 0.85334 0.02877 0.0
H886 H 0.03528 0.847 0.01518 0.0
H887 H 0.06513 0.88242 0.01707 0.0
C888 C 0.24441 0.10491 0.44563 0.0
C889 C 0.22223 0.0769 0.44826 0.0
C890 C 0.25277 0.12406 0.46418 0.0
C891 C 0.23807 0.11496 0.48539 0.0
C892 C 0.21828 0.08586 0.48881 0.0
C893 C 0.21092 0.06718 0.47027 0.0
C894 C 0.27556 0.1544 0.46034 0.0
C895 C 0.20231 0.0749 0.51122 0.0
C896 C 0.24213 0.15066 0.54182 0.0
C897 C 0.21944 0.15571 0.53896 0.0
C898 C 0.25167 0.14102 0.52327 0.0
C899 C 0.23759 0.13562 0.50181 0.0
C900 C 0.21731 0.14424 0.49819 0.0
C901 C 0.20878 0.15452 0.51675 0.0
C902 C 0.27501 0.13431 0.52732 0.0
C903 C 0.20204 0.13947 0.47546 0.0
H904 H 0.25386 0.11245 0.42882 0.0
H905 H 0.19455 0.04525 0.47265 0.0
H906 H 0.26612 0.16625 0.45233 0.0
H907 H 0.28589 0.16505 0.47672 0.0
H908 H 0.29197 0.15551 0.44834 0.0
H909 H 0.18876 0.05145 0.51137 0.0
H910 H 0.2173 0.0812 0.52586 0.0
H911 H 0.18855 0.08425 0.51414 0.0
H912 H 0.2512 0.1524 0.55876 0.0
H913 H 0.19202 0.15946 0.51415 0.0
H914 H 0.28643 0.13554 0.51113 0.0
H915 H 0.26585 0.11254 0.53435 0.0
H916 H 0.29045 0.1491 0.54014 0.0
H917 H 0.21749 0.1487 0.46116 0.0
H918 H 0.18816 0.14899 0.47512 0.0
H919 H 0.18872 0.11638 0.47219 0.0
C920 C 0.8549 0.04283 0.52495 0.0
C921 C 0.8531 0.05352 0.54643 0.0
C922 C 0.86716 0.06087 0.50611 0.0
C923 C 0.87791 0.09031 0.50889 0.0
C924 C 0.87337 0.10079 0.5298 0.0
C925 C 0.86095 0.08218 0.54845 0.0
C926 C 0.87113 0.04872 0.48395 0.0
C927 C 0.88393 0.13195 0.5332 0.0
C928 C 0.94508 0.13012 0.47458 0.0
C929 C 0.93502 0.13537 0.45403 0.0
C930 C 0.92703 0.11748 0.49337 0.0
C931 C 0.89819 0.10995 0.49156 0.0
C932 C 0.88849 0.11752 0.47168 0.0
C933 C 0.90707 0.13015 0.45305 0.0
C934 C 0.93837 0.11013 0.51443 0.0
C935 C 0.85805 0.11041 0.46935 0.0
H936 H 0.84823 0.02054 0.5232 0.0
H937 H 0.85935 0.0905 0.56499 0.0
H938 H 0.86492 0.05697 0.46893 0.0
H939 H 0.89384 0.05525 0.48187 0.0
H940 H 0.85855 0.02519 0.48367 0.0
H941 H 0.87299 0.13565 0.5478 0.0
H942 H 0.90695 0.14303 0.53703 0.0
H943 H 0.8809 0.14157 0.5174 0.0
H944 H 0.96684 0.1347 0.47568 0.0
H945 H 0.8992 0.13446 0.43731 0.0
H946 H 0.92895 0.08679 0.51553 0.0
H947 H 0.93237 0.11718 0.5303 0.0
H948 H 0.96181 0.11996 0.51401 0.0
H949 H 0.84479 0.08778 0.4645 0.0
H950 H 0.8556 0.12346 0.45584 0.0
H951 H 0.84981 0.11357 0.4859 0.0
C952 C 0.90288 0.7493 0.5402 0.0
C953 C 0.93157 0.76979 0.53747 0.0
C954 C 0.88384 0.74229 0.5217 0.0
C955 C 0.89379 0.75664 0.50044 0.0
C956 C 0.92329 0.77407 0.49681 0.0
C957 C 0.94184 0.78021 0.51535 0.0
C958 C 0.85279 0.72184 0.52566 0.0
C959 C 0.93506 0.78926 0.47424 0.0
C960 C 0.85505 0.75546 0.44594 0.0
C961 C 0.85224 0.77941 0.44962 0.0
C962 C 0.86566 0.74537 0.4634 0.0
C963 C 0.8742 0.76004 0.48466 0.0
C964 C 0.86862 0.78234 0.48915 0.0
C965 C 0.85738 0.79143 0.4717 0.0
C966 C 0.86951 0.72036 0.45834 0.0
C967 C 0.8771 0.79862 0.5116 0.0
H968 H 0.89483 0.74053 0.55711 0.0
H969 H 0.96419 0.79525 0.51292 0.0
H970 H 0.84218 0.73368 0.53128 0.0
H971 H 0.84233 0.71023 0.50961 0.0
H972 H 0.84967 0.7063 0.53936 0.0
H973 H 0.95856 0.7999 0.47357 0.0
H974 H 0.9263 0.77419 0.45966 0.0
H975 H 0.92876 0.80557 0.47177 0.0
H976 H 0.8505 0.74555 0.42911 0.0
H977 H 0.8544 0.80936 0.475 0.0
H978 H 0.87007 0.70946 0.47431 0.0
H979 H 0.88971 0.72771 0.44891 0.0
H980 H 0.85214 0.70487 0.44712 0.0
H981 H 0.86779 0.78394 0.52638 0.0
H982 H 0.87018 0.81462 0.51262 0.0
H983 H 0.9005 0.80976 0.51351 0.0
C984 C 0.8465 0.75735 0.03945 0.0
C985 C 0.83955 0.77879 0.03691 0.0
C986 C 0.857 0.74905 0.02068 0.0
C987 C 0.86123 0.76307 -0.00072 0.0
C988 C 0.85047 0.78168 -0.00406 0.0
C989 C 0.83952 0.78909 0.01477 0.0
C990 C 0.86619 0.72744 0.02438 0.0
C991 C 0.85381 0.79663 0.97326 0.0
C992 C 0.93099 0.79401 0.96861 0.0
C993 C 0.92273 0.78146 0.94681 0.0
C994 C 0.91151 0.78623 0.9866 0.0
C995 C 0.88302 0.76481 0.98291 0.0
C996 C 0.87536 0.74957 0.96188 0.0
C997 C 0.89533 0.75827 0.94388 0.0
C998 C 0.92094 0.80304 0.00877 0.0
C999 C 0.84571 0.72549 0.95763 0.0
H1000 H 0.84579 0.74857 0.05636 0.0
H1001 H 0.83314 0.80485 0.01244 0.0
H1002 H 0.86355 0.71512 0.00844 0.0
H1003 H 0.88892 0.7384 0.02923 0.0
H1004 H 0.85391 0.71259 0.03852 0.0
H1005 H 0.84192 0.80829 0.97288 0.0
H1006 H 0.87657 0.81204 0.97021 0.0
H1007 H 0.84627 0.78121 0.95887 0.0
H1008 H 0.95243 0.81132 0.97124 0.0
H1009 H 0.88892 0.74806 0.9272 0.0
H1010 H 0.91542 0.78862 0.02375 0.0
H1011 H 0.90985 0.81532 0.01091 0.0
H1012 H 0.94414 0.81811 0.00916 0.0
H1013 H 0.83463 0.71529 0.97392 0.0
H1014 H 0.84611 0.70922 0.94636 0.0
H1015 H 0.83333 0.73366 0.94858 0.0
C1016 C 0.2455 0.14556 0.94598 0.0
C1017 C 0.22351 0.15144 0.94967 0.0
C1018 C 0.25424 0.13414 0.96379 0.0
C1019 C 0.2402 0.12809 0.98535 0.0
C1020 C 0.22067 0.13747 0.98984 0.0
C1021 C 0.2128 0.14927 0.97197 0.0
C1022 C 0.27664 0.12634 0.9588 0.0
C1023 C 0.20544 0.13204 0.01267 0.0
C1024 C 0.21133 0.05875 0.01585 0.0
C1025 C 0.22304 0.06782 0.03784 0.0
C1026 C 0.21939 0.07781 -0.00252 0.0
C1027 C 0.24013 0.10657 0.00109 0.0
C1028 C 0.25512 0.1148 0.02218 0.0
C1029 C 0.24615 0.09535 0.04053 0.0
C1030 C 0.20317 0.06779 0.97511 0.0
C1031 C 0.27881 0.14472 0.02615 0.0
H1032 H 0.25437 0.14784 0.92888 0.0
H1033 H 0.19652 0.15479 0.97509 0.0
H1034 H 0.28764 0.12584 0.97472 0.0
H1035 H 0.26663 0.10506 0.95072 0.0
H1036 H 0.29256 0.1416 0.94647 0.0
H1037 H 0.19228 0.14233 0.01376 0.0
H1038 H 0.19139 0.10889 0.01518 0.0
H1039 H 0.22086 0.14001 0.02704 0.0
H1040 H 0.19419 0.0372 0.01337 0.0
H1041 H 0.25597 0.10238 0.05728 0.0
H1042 H 0.21798 0.0744 0.96032 0.0
H1043 H 0.18965 0.07754 0.97288 0.0
H1044 H 0.18933 0.04438 0.97453 0.0
H1045 H 0.2899 0.15488 0.00984 0.0
H1046 H 0.29446 0.14512 0.03863 0.0
H1047 H 0.27003 0.1575 0.03352 0.0
C1048 C 0.86526 0.10569 0.94858 0.0
C1049 C 0.85142 0.07642 0.95249 0.0
C1050 C 0.87874 0.12471 0.96683 0.0
C1051 C 0.87836 0.11387 0.98908 0.0
C1052 C 0.86079 0.08456 0.99351 0.0
C1053 C 0.84752 0.06617 0.97508 0.0
C1054 C 0.89596 0.15599 0.96177 0.0
C1055 C 0.8591 0.0721 0.01709 0.0
C1056 C 0.94514 0.13888 0.02322 0.0
C1057 C 0.93877 0.1486 0.04345 0.0
C1058 C 0.92662 0.12983 0.00446 0.0
C1059 C 0.90119 0.13085 0.00582 0.0
C1060 C 0.89606 0.14344 0.02516 0.0
C1061 C 0.91485 0.15199 0.04391 0.0
C1062 C 0.9332 0.11686 0.98404 0.0
C1063 C 0.86987 0.14609 0.0269 0.0
H1064 H 0.86793 0.11365 0.93111 0.0
H1065 H 0.83613 0.04347 0.97809 0.0
H1066 H 0.89586 0.16872 0.97665 0.0
H1067 H 0.91826 0.1618 0.95834 0.0
H1068 H 0.88781 0.16165 0.94633 0.0
H1069 H 0.84183 0.04964 0.01821 0.0
H1070 H 0.87947 0.073 0.02104 0.0
H1071 H 0.85551 0.08445 0.03048 0.0
H1072 H 0.96394 0.13687 0.02242 0.0
H1073 H 0.91003 0.16008 0.05927 0.0
H1074 H 0.93152 0.12656 0.96777 0.0
H1075 H 0.9176 0.09384 0.98321 0.0
H1076 H 0.95479 0.11957 0.985 0.0
H1077 H 0.86231 0.1483 0.00969 0.0
H1078 H 0.87391 0.1646 0.03766 0.0
H1079 H 0.85268 0.12683 0.03525 0.0
C1080 C 0.77917 0.83397 0.47324 0.0
C1081 C 0.7741 0.8412 0.4513 0.0
C1082 C 0.7724 0.84392 0.49306 0.0
C1083 C 0.76024 0.86145 0.49073 0.0
C1084 C 0.75058 0.86453 0.46888 0.0
C1085 C 0.75786 0.85451 0.4492 0.0
C1086 C 0.78211 0.83914 0.51612 0.0
C1087 C 0.73572 0.8814 0.46599 0.0
C1088 C 0.75808 0.8938 0.54809 0.0
C1089 C 0.78501 0.91824 0.54805 0.0
C1090 C 0.74824 0.87596 0.52868 0.0
C1091 C 0.76598 0.88261 0.5091 0.0
C1092 C 0.79219 0.90838 0.50844 0.0
C1093 C 0.80118 0.92588 0.52779 0.0
C1094 C 0.71961 0.84942 0.52981 0.0
C1095 C 0.81187 0.91667 0.4879 0.0
H1096 H 0.79085 0.82275 0.4749 0.0
H1097 H 0.75326 0.85956 0.43226 0.0
H1098 H 0.80127 0.85894 0.5217 0.0
H1099 H 0.76548 0.83361 0.52934 0.0
H1100 H 0.78746 0.82197 0.51541 0.0
H1101 H 0.7228 0.87525 0.45 0.0
H1102 H 0.72184 0.87841 0.48098 0.0
H1103 H 0.75171 0.90427 0.4648 0.0
H1104 H 0.74514 0.88799 0.56351 0.0
H1105 H 0.82164 0.94515 0.52729 0.0
H1106 H 0.72174 0.83248 0.53856 0.0
H1107 H 0.71047 0.84175 0.51245 0.0
H1108 H 0.70457 0.85313 0.54008 0.0
H1109 H 0.81881 0.90086 0.48535 0.0
H1110 H 0.83106 0.93787 0.48997 0.0
H1111 H 0.80073 0.917 0.47204 0.0
C1112 C 0.06016 0.85397 0.5179 0.0
C1113 C 0.06985 0.85186 0.53976 0.0
C1114 C 0.07906 0.86718 0.49973 0.0
C1115 C 0.10844 0.87839 0.50346 0.0
C1116 C 0.11796 0.87318 0.52461 0.0
C1117 C 0.09848 0.86001 0.54268 0.0
C1118 C 0.06778 0.8718 0.47734 0.0
C1119 C 0.14894 0.88366 0.52891 0.0
C1120 C 0.14763 0.91173 0.44821 0.0
C1121 C 0.1511 0.93894 0.45042 0.0
C1122 C 0.13657 0.89223 0.4665 0.0
C1123 C 0.12858 0.90017 0.48716 0.0
C1124 C 0.13501 0.92856 0.49025 0.0
C1125 C 0.14631 0.94759 0.47188 0.0
C1126 C 0.13124 0.86254 0.46292 0.0
C1127 C 0.12724 0.93817 0.5121 0.0
H1128 H 0.03788 0.84692 0.51539 0.0
H1129 H 0.10603 0.85803 0.55946 0.0
H1130 H 0.07449 0.89459 0.47554 0.0
H1131 H 0.07652 0.86589 0.46248 0.0
H1132 H 0.04428 0.85932 0.47646 0.0
H1133 H 0.15181 0.87097 0.54251 0.0
H1134 H 0.15977 0.88289 0.51297 0.0
H1135 H 0.1594 0.906 0.53481 0.0
H1136 H 0.15176 0.90501 0.4318 0.0
H1137 H 0.14974 0.96886 0.47394 0.0
H1138 H 0.10922 0.84883 0.45672 0.0
H1139 H 0.13372 0.85338 0.47922 0.0
H1140 H 0.14585 0.8621 0.44979 0.0
H1141 H 0.10383 0.92784 0.51346 0.0
H1142 H 0.1362 0.9615 0.51259 0.0
H1143 H 0.13491 0.93184 0.52742 0.0
C1144 C 0.16052 0.22594 0.52415 0.0
C1145 C 0.15252 0.22868 0.54649 0.0
C1146 C 0.14939 0.2326 0.50503 0.0
C1147 C 0.12972 0.242 0.50855 0.0
C1148 C 0.12577 0.24967 0.53098 0.0
C1149 C 0.13716 0.24269 0.54992 0.0
C1150 C 0.15518 0.22525 0.48134 0.0
C1151 C 0.10645 0.26157 0.53519 0.0
C1152 C 0.09361 0.24301 0.45294 0.0
C1153 C 0.07089 0.215 0.4525 0.0
C1154 C 0.11198 0.25327 0.47199 0.0
C1155 C 0.10766 0.23491 0.49073 0.0
C1156 C 0.08359 0.20731 0.49098 0.0
C1157 C 0.0655 0.19785 0.47198 0.0
C1158 C 0.13668 0.28317 0.47131 0.0
C1159 C 0.07782 0.1869 0.51066 0.0
H1160 H 0.17315 0.21584 0.52159 0.0
H1161 H 0.13141 0.24533 0.56724 0.0
H1162 H 0.13658 0.20512 0.47553 0.0
H1163 H 0.15856 0.24197 0.46878 0.0
H1164 H 0.17406 0.22251 0.4812 0.0
H1165 H 0.11166 0.27349 0.55167 0.0
H1166 H 0.10789 0.27576 0.52089 0.0
H1167 H 0.08421 0.24393 0.53619 0.0
H1168 H 0.09771 0.25663 0.43812 0.0
H1169 H 0.04761 0.17642 0.4721 0.0
H1170 H 0.15448 0.28344 0.46181 0.0
H1171 H 0.1442 0.29184 0.48882 0.0
H1172 H 0.13088 0.29735 0.46199 0.0
H1173 H 0.09532 0.18212 0.51203 0.0
H1174 H 0.05765 0.16657 0.50842 0.0
H1175 H 0.07672 0.1965 0.52718 0.0
C1176 C 0.73155 0.55736 0.34872 0.0
C1177 C 0.74186 0.56361 0.37132 0.0
C1178 C 0.74995 0.56307 0.33014 0.0
C1179 C 0.77938 0.57558 0.33434 0.0
C1180 C 0.79017 0.58619 0.35657 0.0
C1181 C 0.77116 0.57984 0.37502 0.0
C1182 C 0.73745 0.55209 0.30661 0.0
C1183 C 0.82155 0.6014 0.36136 0.0
C1184 C 0.80621 0.53502 0.30052 0.0
C1185 C 0.81499 0.55056 0.27995 0.0
C1186 C 0.79682 0.54432 0.31919 0.0
C1187 C 0.79669 0.5702 0.31749 0.0
C1188 C 0.80849 0.58756 0.2978 0.0
C1189 C 0.81728 0.5774 0.27909 0.0
C1190 C 0.78468 0.52507 0.33989 0.0
C1191 C 0.81015 0.61593 0.29569 0.0
H1192 H 0.70886 0.54557 0.34578 0.0
H1193 H 0.77926 0.58523 0.39244 0.0
H1194 H 0.74913 0.56837 0.29326 0.0
H1195 H 0.73937 0.53325 0.3024 0.0
H1196 H 0.71469 0.54587 0.30572 0.0
H1197 H 0.82686 0.61524 0.37677 0.0
H1198 H 0.82833 0.58563 0.36474 0.0
H1199 H 0.83377 0.61443 0.34637 0.0
H1200 H 0.80513 0.51464 0.30166 0.0
H1201 H 0.82461 0.5899 0.26346 0.0
H1202 H 0.76161 0.5173 0.34118 0.0
H1203 H 0.79473 0.53683 0.35594 0.0
H1204 H 0.78774 0.50641 0.33895 0.0
H1205 H 0.79103 0.61321 0.28662 0.0
H1206 H 0.82891 0.6308 0.28534 0.0
H1207 H 0.81131 0.62558 0.31278 0.0
C1208 C 0.42774 0.19445 0.37589 0.0
C1209 C 0.45333 0.19424 0.37406 0.0
C1210 C 0.41859 0.20537 0.35797 0.0
C1211 C 0.43573 0.2167 0.3381 0.0
C1212 C 0.46027 0.21427 0.33545 0.0
C1213 C 0.46856 0.20286 0.35333 0.0
C1214 C 0.39161 0.20632 0.3611 0.0
C1215 C 0.47922 0.22583 0.3145 0.0
C1216 C 0.42618 0.244 0.28142 0.0
C1217 C 0.44416 0.27316 0.2849 0.0
C1218 C 0.41947 0.22482 0.29977 0.0
C1219 C 0.43144 0.23519 0.32174 0.0
C1220 C 0.44603 0.26474 0.32591 0.0
C1221 C 0.45208 0.28337 0.30743 0.0
C1222 C 0.40225 0.19345 0.29504 0.0
C1223 C 0.45856 0.27682 0.34921 0.0
H1224 H 0.41553 0.18736 0.39169 0.0
H1225 H 0.48793 0.20205 0.35145 0.0
H1226 H 0.39639 0.22601 0.37039 0.0
H1227 H 0.38169 0.20611 0.34436 0.0
H1228 H 0.37609 0.18811 0.37164 0.0
H1229 H 0.4968 0.22107 0.31472 0.0
H1230 H 0.46676 0.21679 0.29854 0.0
H1231 H 0.48856 0.24918 0.31369 0.0
H1232 H 0.4194 0.23593 0.26413 0.0
H1233 H 0.46517 0.30598 0.31036 0.0
H1234 H 0.38907 0.1819 0.31019 0.0
H1235 H 0.41672 0.1851 0.29145 0.0
H1236 H 0.38828 0.18899 0.27983 0.0
H1237 H 0.44273 0.2658 0.36301 0.0
H1238 H 0.46615 0.29988 0.35031 0.0
H1239 H 0.4768 0.27355 0.35253 0.0
C1240 C 0.71986 0.17175 0.30396 0.0
C1241 C 0.73118 0.1767 0.28165 0.0
C1242 C 0.73747 0.18368 0.32307 0.0
C1243 C 0.76704 0.20078 0.31967 0.0
C1244 C 0.7788 0.20173 0.29773 0.0
C1245 C 0.76062 0.18975 0.27877 0.0
C1246 C 0.72405 0.1813 0.34634 0.0
C1247 C 0.81037 0.21829 0.29377 0.0
C1248 C 0.79352 0.26808 0.35363 0.0
C1249 C 0.80312 0.26171 0.37393 0.0
C1250 C 0.78357 0.24911 0.33519 0.0
C1251 C 0.78357 0.22317 0.33688 0.0
C1252 C 0.7956 0.21769 0.35642 0.0
C1253 C 0.80505 0.23697 0.37488 0.0
C1254 C 0.77116 0.25607 0.31458 0.0
C1255 C 0.79711 0.19088 0.35858 0.0
H1256 H 0.69705 0.1608 0.30629 0.0
H1257 H 0.76953 0.19309 0.26158 0.0
H1258 H 0.73571 0.17708 0.35995 0.0
H1259 H 0.72501 0.20164 0.35053 0.0
H1260 H 0.70149 0.16418 0.34672 0.0
H1261 H 0.81641 0.2108 0.27813 0.0
H1262 H 0.81716 0.24101 0.29133 0.0
H1263 H 0.82198 0.21659 0.30883 0.0
H1264 H 0.79254 0.28742 0.35245 0.0
H1265 H 0.81294 0.23207 0.39032 0.0
H1266 H 0.74815 0.24055 0.3133 0.0
H1267 H 0.78131 0.25463 0.29848 0.0
H1268 H 0.7739 0.27766 0.31562 0.0
H1269 H 0.77784 0.17452 0.36753 0.0
H1270 H 0.81574 0.19461 0.36903 0.0
H1271 H 0.79835 0.1824 0.34152 0.0
C1272 C 0.87789 0.49431 0.84398 0.0
C1273 C 0.88737 0.49452 0.86648 0.0
C1274 C 0.88565 0.48275 0.82582 0.0
C1275 C 0.90373 0.47161 0.83024 0.0
C1276 C 0.91711 0.47621 0.85195 0.0
C1277 C 0.90849 0.48734 0.87004 0.0
C1278 C 0.87148 0.47913 0.80271 0.0
C1279 C 0.93826 0.46669 0.85675 0.0
C1280 C 0.87182 0.40071 0.80146 0.0
C1281 C 0.88467 0.40802 0.77971 0.0
C1282 C 0.8798 0.42086 0.81894 0.0
C1283 C 0.90176 0.449 0.81477 0.0
C1284 C 0.91732 0.4556 0.79392 0.0
C1285 C 0.90838 0.43502 0.77643 0.0
C1286 C 0.86265 0.41254 0.84097 0.0
C1287 C 0.94201 0.4848 0.78927 0.0
H1288 H 0.86243 0.50093 0.84087 0.0
H1289 H 0.91668 0.48829 0.88723 0.0
H1290 H 0.88733 0.48608 0.78866 0.0
H1291 H 0.85585 0.45638 0.79989 0.0
H1292 H 0.86022 0.49136 0.80148 0.0
H1293 H 0.95293 0.47935 0.87086 0.0
H1294 H 0.92689 0.44416 0.8622 0.0
H1295 H 0.95081 0.46852 0.84113 0.0
H1296 H 0.8541 0.37957 0.80441 0.0
H1297 H 0.91889 0.44068 0.75982 0.0
H1298 H 0.85087 0.42423 0.84238 0.0
H1299 H 0.87679 0.4182 0.85613 0.0
H1300 H 0.84709 0.38948 0.84178 0.0
H1301 H 0.93459 0.49717 0.77922 0.0
H1302 H 0.95834 0.48345 0.77877 0.0
H1303 H 0.95193 0.49646 0.80541 0.0
C1304 C 0.51619 0.42353 0.87138 0.0
C1305 C 0.51326 0.39643 0.87071 0.0
C1306 C 0.52667 0.44166 0.85218 0.0
C1307 C 0.53462 0.43248 0.83216 0.0
C1308 C 0.5287 0.40409 0.83064 0.0
C1309 C 0.51799 0.38643 0.84989 0.0
C1310 C 0.53143 0.47133 0.85411 0.0
C1311 C 0.53642 0.39315 0.80953 0.0
C1312 C 0.56357 0.46853 0.77493 0.0
C1313 C 0.59232 0.4773 0.77799 0.0
C1314 C 0.54437 0.45658 0.79336 0.0
C1315 C 0.55433 0.45323 0.81502 0.0
C1316 C 0.58381 0.46517 0.8187 0.0
C1317 C 0.60241 0.47713 0.80014 0.0
C1318 C 0.51327 0.44533 0.78904 0.0
C1319 C 0.59556 0.46256 0.84157 0.0
H1320 H 0.51209 0.43128 0.88728 0.0
H1321 H 0.51495 0.3652 0.84901 0.0
H1322 H 0.55341 0.48581 0.86003 0.0
H1323 H 0.52861 0.47916 0.83723 0.0
H1324 H 0.51672 0.47235 0.86682 0.0
H1325 H 0.52788 0.36989 0.81026 0.0
H1326 H 0.52826 0.39806 0.79375 0.0
H1327 H 0.55983 0.40377 0.80798 0.0
H1328 H 0.55573 0.469 0.75787 0.0
H1329 H 0.62479 0.48465 0.80269 0.0
H1330 H 0.50249 0.44701 0.80468 0.0
H1331 H 0.50306 0.42263 0.7842 0.0
H1332 H 0.50999 0.45686 0.77468 0.0
H1333 H 0.58682 0.46941 0.85583 0.0
H1334 H 0.61905 0.47541 0.84219 0.0
H1335 H 0.58923 0.44005 0.84466 0.0
C1336 C 0.51902 0.08722 0.77713 0.0
C1337 C 0.51367 0.10961 0.78043 0.0
C1338 C 0.53004 0.07838 0.79519 0.0
C1339 C 0.53622 0.09275 0.8166 0.0
C1340 C 0.52744 0.11284 0.82067 0.0
C1341 C 0.51603 0.12077 0.80257 0.0
C1342 C 0.53717 0.05543 0.79061 0.0
C1343 C 0.53306 0.1285 0.84331 0.0
C1344 C 0.56733 0.08729 0.87266 0.0
C1345 C 0.59501 0.11018 0.87006 0.0
C1346 C 0.54835 0.07797 0.854 0.0
C1347 C 0.55721 0.09241 0.83269 0.0
C1348 C 0.58616 0.11267 0.82925 0.0
C1349 C 0.60475 0.12109 0.84796 0.0
C1350 C 0.51821 0.05465 0.85779 0.0
C1351 C 0.59688 0.12816 0.80663 0.0
H1352 H 0.51657 0.078 0.76015 0.0
H1353 H 0.51088 0.13737 0.80539 0.0
H1354 H 0.55805 0.06475 0.78189 0.0
H1355 H 0.53815 0.04502 0.80674 0.0
H1356 H 0.52124 0.03911 0.77891 0.0
H1357 H 0.52349 0.14232 0.84397 0.0
H1358 H 0.52444 0.1133 0.85782 0.0
H1359 H 0.55626 0.14195 0.84599 0.0
H1360 H 0.5598 0.07804 0.88954 0.0
H1361 H 0.62645 0.13799 0.84559 0.0
H1362 H 0.5085 0.04304 0.84157 0.0
H1363 H 0.5054 0.0639 0.86416 0.0
H1364 H 0.51722 0.03939 0.87096 0.0
H1365 H 0.59022 0.11288 0.79218 0.0
H1366 H 0.62034 0.14154 0.80626 0.0
H1367 H 0.58766 0.14203 0.80366 0.0
C1368 C 0.51019 0.12423 0.34999 0.0
C1369 C 0.51088 0.11424 0.37209 0.0
C1370 C 0.52089 0.11679 0.33102 0.0
C1371 C 0.53221 0.09864 0.33427 0.0
C1372 C 0.52865 0.08491 0.35572 0.0
C1373 C 0.51823 0.0931 0.37459 0.0
C1374 C 0.52345 0.13135 0.30827 0.0
C1375 C 0.5386 0.06389 0.35937 0.0
C1376 C 0.56587 0.09421 0.27863 0.0
C1377 C 0.59297 0.11802 0.28114 0.0
C1378 C 0.54625 0.08525 0.29687 0.0
C1379 C 0.55397 0.10081 0.31773 0.0
C1380 C 0.58226 0.12291 0.32102 0.0
C1381 C 0.6014 0.13102 0.30275 0.0
C1382 C 0.51683 0.06056 0.29306 0.0
C1383 C 0.59174 0.13997 0.34306 0.0
H1384 H 0.50347 0.13975 0.34778 0.0
H1385 H 0.51806 0.08464 0.39152 0.0
H1386 H 0.54602 0.14729 0.30504 0.0
H1387 H 0.51619 0.11582 0.29397 0.0
H1388 H 0.51092 0.14234 0.30795 0.0
H1389 H 0.52678 0.04904 0.37364 0.0
H1390 H 0.53605 0.05151 0.34347 0.0
H1391 H 0.56141 0.07537 0.364 0.0
H1392 H 0.55937 0.08363 0.2621 0.0
H1393 H 0.62265 0.14882 0.30505 0.0
H1394 H 0.50371 0.06812 0.28438 0.0
H1395 H 0.50636 0.05023 0.3095 0.0
H1396 H 0.51747 0.04452 0.28165 0.0
H1397 H 0.58029 0.1519 0.34524 0.0
H1398 H 0.61486 0.15539 0.34321 0.0
H1399 H 0.58668 0.12576 0.35813 0.0
C1400 C 0.85751 0.38847 0.35116 0.0
C1401 C 0.87291 0.39797 0.37172 0.0
C1402 C 0.86494 0.40606 0.33185 0.0
C1403 C 0.88853 0.43387 0.33306 0.0
C1404 C 0.90593 0.44257 0.35292 0.0
C1405 C 0.89783 0.42449 0.37216 0.0
C1406 C 0.84591 0.39567 0.31092 0.0
C1407 C 0.93182 0.47164 0.35458 0.0
C1408 C 0.89761 0.46802 0.27487 0.0
C1409 C 0.87862 0.47815 0.27718 0.0
C1410 C 0.90409 0.45631 0.2939 0.0
C1411 C 0.89108 0.45471 0.3154 0.0
C1412 C 0.87483 0.4682 0.3183 0.0
C1413 C 0.86882 0.47977 0.29912 0.0
C1414 C 0.92253 0.44324 0.29041 0.0
C1415 C 0.86097 0.46752 0.34102 0.0
H1416 H 0.83868 0.36767 0.35047 0.0
H1417 H 0.91012 0.43181 0.38789 0.0
H1418 H 0.83446 0.40765 0.3092 0.0
H1419 H 0.85863 0.39937 0.29506 0.0
H1420 H 0.82999 0.37273 0.312 0.0
H1421 H 0.94735 0.47187 0.36709 0.0
H1422 H 0.94233 0.47903 0.3376 0.0
H1423 H 0.92544 0.48695 0.36065 0.0
H1424 H 0.90558 0.46713 0.25797 0.0
H1425 H 0.85477 0.48836 0.30105 0.0
H1426 H 0.90892 0.42024 0.28702 0.0
H1427 H 0.93535 0.44572 0.30599 0.0
H1428 H 0.93696 0.45286 0.27545 0.0
H1429 H 0.84353 0.44563 0.34447 0.0
H1430 H 0.85199 0.48188 0.34108 0.0
H1431 H 0.87642 0.4737 0.35532 0.0
C1432 C 0.57453 0.49419 0.37103 0.0
C1433 C 0.60042 0.49489 0.36778 0.0
C1434 C 0.55406 0.48452 0.35343 0.0
C1435 C 0.5594 0.4746 0.33255 0.0
C1436 C 0.58667 0.47829 0.32837 0.0
C1437 C 0.60692 0.4888 0.3459 0.0
C1438 C 0.52613 0.48307 0.35804 0.0
C1439 C 0.59366 0.4683 0.3063 0.0
C1440 C 0.50979 0.40596 0.30456 0.0
C1441 C 0.51087 0.41503 0.2818 0.0
C1442 C 0.52238 0.42554 0.3224 0.0
C1443 C 0.5358 0.45486 0.31735 0.0
C1444 C 0.53225 0.46379 0.29532 0.0
C1445 C 0.5201 0.4437 0.27754 0.0
C1446 C 0.52468 0.41483 0.34586 0.0
C1447 C 0.54391 0.49471 0.28988 0.0
H1448 H 0.56956 0.49969 0.38765 0.0
H1449 H 0.6272 0.49015 0.3429 0.0
H1450 H 0.51456 0.48165 0.34191 0.0
H1451 H 0.51265 0.46424 0.36883 0.0
H1452 H 0.52956 0.50203 0.36786 0.0
H1453 H 0.61615 0.47356 0.30558 0.0
H1454 H 0.58001 0.44497 0.30469 0.0
H1455 H 0.58948 0.4781 0.2912 0.0
H1456 H 0.50155 0.38364 0.30808 0.0
H1457 H 0.5202 0.45081 0.26008 0.0
H1458 H 0.51818 0.42467 0.35947 0.0
H1459 H 0.54704 0.42075 0.34919 0.0
H1460 H 0.51131 0.39143 0.34734 0.0
H1461 H 0.5441 0.50671 0.3054 0.0
H1462 H 0.53124 0.4974 0.27617 0.0
H1463 H 0.56597 0.50399 0.28351 0.0
C1464 C 0.4518 0.17561 0.80755 0.0
C1465 C 0.44172 0.17603 0.78541 0.0
C1466 C 0.44514 0.18729 0.82631 0.0
C1467 C 0.42757 0.19924 0.82289 0.0
C1468 C 0.41382 0.19569 0.80145 0.0
C1469 C 0.42129 0.18433 0.78277 0.0
C1470 C 0.45982 0.19 0.84902 0.0
C1471 C 0.39346 0.20643 0.79761 0.0
C1472 C 0.42256 0.23316 0.87828 0.0
C1473 C 0.44644 0.26026 0.87591 0.0
C1474 C 0.41392 0.21349 0.8601 0.0
C1475 C 0.42989 0.22109 0.83943 0.0
C1476 C 0.45218 0.24931 0.83626 0.0
C1477 C 0.45994 0.26855 0.85444 0.0
C1478 C 0.38907 0.18411 0.86377 0.0
C1479 C 0.46972 0.25863 0.81445 0.0
H1480 H 0.46682 0.16827 0.80991 0.0
H1481 H 0.41278 0.18405 0.76584 0.0
H1482 H 0.47613 0.21251 0.85193 0.0
H1483 H 0.44446 0.18333 0.86343 0.0
H1484 H 0.47038 0.17706 0.84952 0.0
H1485 H 0.37863 0.19494 0.78326 0.0
H1486 H 0.38105 0.20417 0.81342 0.0
H1487 H 0.40551 0.22925 0.79303 0.0
H1488 H 0.41161 0.22672 0.89467 0.0
H1489 H 0.47784 0.28975 0.85221 0.0
H1490 H 0.39652 0.1707 0.87211 0.0
H1491 H 0.37863 0.17397 0.84729 0.0
H1492 H 0.37316 0.1847 0.87538 0.0
H1493 H 0.48154 0.24702 0.81266 0.0
H1494 H 0.48527 0.28172 0.81432 0.0
H1495 H 0.45586 0.25361 0.79916 0.0
C1496 C 0.7255 0.19527 0.85205 0.0
C1497 C 0.73283 0.18969 0.87377 0.0
C1498 C 0.74544 0.20668 0.83435 0.0
C1499 C 0.77342 0.21226 0.83833 0.0
C1500 C 0.78008 0.20361 0.85928 0.0
C1501 C 0.75968 0.19256 0.87694 0.0
C1502 C 0.73713 0.21518 0.81217 0.0
C1503 C 0.80919 0.20784 0.86384 0.0
C1504 C 0.81172 0.24016 0.78235 0.0
C1505 C 0.8197 0.26883 0.78476 0.0
C1506 C 0.80007 0.22143 0.80105 0.0
C1507 C 0.79597 0.2317 0.82224 0.0
C1508 C 0.80784 0.26123 0.82554 0.0
C1509 C 0.81973 0.27947 0.80675 0.0
C1510 C 0.78938 0.1903 0.79738 0.0
C1511 C 0.80468 0.27327 0.84806 0.0
H1512 H 0.70449 0.19224 0.84924 0.0
H1513 H 0.76535 0.18778 0.89355 0.0
H1514 H 0.74898 0.23861 0.81046 0.0
H1515 H 0.74261 0.20632 0.79714 0.0
H1516 H 0.7141 0.20785 0.81141 0.0
H1517 H 0.80793 0.19102 0.87543 0.0
H1518 H 0.82006 0.20782 0.84768 0.0
H1519 H 0.82229 0.22848 0.87258 0.0
H1520 H 0.81233 0.23185 0.76553 0.0
H1521 H 0.82687 0.30181 0.80893 0.0
H1522 H 0.76665 0.17952 0.79256 0.0
H1523 H 0.79136 0.18023 0.81335 0.0
H1524 H 0.80113 0.18689 0.78327 0.0
H1525 H 0.78217 0.26739 0.85047 0.0
H1526 H 0.81788 0.29674 0.84862 0.0
H1527 H 0.8107 0.26435 0.86272 0.0
C1528 C 0.75584 0.57973 0.77928 0.0
C1529 C 0.73055 0.55368 0.78149 0.0
C1530 C 0.77534 0.59067 0.79756 0.0
C1531 C 0.76966 0.57475 0.81812 0.0
C1532 C 0.74288 0.55004 0.8212 0.0
C1533 C 0.72357 0.5401 0.80298 0.0
C1534 C 0.8027 0.61815 0.79406 0.0
C1535 C 0.73557 0.53232 0.84288 0.0
C1536 C 0.82009 0.55835 0.84794 0.0
C1537 C 0.81721 0.56533 0.87062 0.0
C1538 C 0.80786 0.56502 0.82962 0.0
C1539 C 0.79282 0.57945 0.83418 0.0
C1540 C 0.79443 0.59103 0.85633 0.0
C1541 C 0.80637 0.58349 0.87455 0.0
C1542 C 0.80766 0.55306 0.8061 0.0
C1543 C 0.78086 0.60871 0.86134 0.0
H1544 H 0.76112 0.5909 0.76297 0.0
H1545 H 0.70372 0.52044 0.80518 0.0
H1546 H 0.81304 0.62812 0.81062 0.0
H1547 H 0.81752 0.61413 0.7838 0.0
H1548 H 0.79882 0.63332 0.78415 0.0
H1549 H 0.71345 0.51428 0.84276 0.0
H1550 H 0.75008 0.52366 0.84479 0.0
H1551 H 0.73826 0.5455 0.85823 0.0
H1552 H 0.82952 0.54521 0.84477 0.0
H1553 H 0.8048 0.58964 0.89201 0.0
H1554 H 0.81387 0.56964 0.79273 0.0
H1555 H 0.78593 0.53572 0.80201 0.0
H1556 H 0.82229 0.54444 0.80507 0.0
H1557 H 0.78121 0.62095 0.84593 0.0
H1558 H 0.79181 0.62361 0.87578 0.0
H1559 H 0.75845 0.59467 0.86646 0.0
C1560 C 0.42145 0.89146 0.70267 0.0
C1561 C 0.39587 0.86546 0.70284 0.0
C1562 C 0.44035 0.89906 0.68406 0.0
C1563 C 0.43357 0.88007 0.6654 0.0
C1564 C 0.40683 0.85493 0.66465 0.0
C1565 C 0.38828 0.84801 0.68332 0.0
C1566 C 0.4683 0.92643 0.68517 0.0
C1567 C 0.3986 0.83418 0.64492 0.0
C1568 C 0.47069 0.89099 0.60829 0.0
C1569 C 0.48402 0.87496 0.61185 0.0
C1570 C 0.45637 0.89561 0.62639 0.0
C1571 C 0.45545 0.88384 0.64832 0.0
C1572 C 0.47177 0.87068 0.65256 0.0
C1573 C 0.48592 0.86646 0.63425 0.0
C1574 C 0.43995 0.91055 0.62141 0.0
C1575 C 0.47176 0.85819 0.6758 0.0
H1576 H 0.42737 0.90535 0.7175 0.0
H1577 H 0.36837 0.82814 0.68304 0.0
H1578 H 0.48503 0.92197 0.69111 0.0
H1579 H 0.47461 0.93652 0.66795 0.0
H1580 H 0.46745 0.94167 0.6974 0.0
H1581 H 0.37618 0.81686 0.64605 0.0
H1582 H 0.40172 0.84522 0.62821 0.0
H1583 H 0.41238 0.82456 0.64494 0.0
H1584 H 0.46935 0.89784 0.59104 0.0
H1585 H 0.49674 0.85458 0.63716 0.0
H1586 H 0.44066 0.92369 0.63627 0.0
H1587 H 0.41742 0.89456 0.61823 0.0
H1588 H 0.44825 0.92426 0.60591 0.0
H1589 H 0.47536 0.87353 0.68974 0.0
H1590 H 0.48824 0.85193 0.677 0.0
H1591 H 0.45076 0.83909 0.67883 0.0
C1592 C 0.14883 0.61839 0.63279 0.0
C1593 C 0.13197 0.61159 0.61298 0.0
C1594 C 0.13974 0.60058 0.65206 0.0
C1595 C 0.11293 0.57548 0.65165 0.0
C1596 C 0.09463 0.56994 0.63267 0.0
C1597 C 0.10444 0.58797 0.61343 0.0
C1598 C 0.15992 0.60751 0.67206 0.0
C1599 C 0.0655 0.54399 0.63191 0.0
C1600 C 0.12054 0.52037 0.68421 0.0
C1601 C 0.1138 0.5247 0.70656 0.0
C1602 C 0.11724 0.53452 0.66544 0.0
C1603 C 0.1068 0.55333 0.6692 0.0
C1604 C 0.09628 0.55468 0.69119 0.0
C1605 C 0.09999 0.54032 0.70978 0.0
C1606 C 0.12824 0.53197 0.64219 0.0
C1607 C 0.0839 0.57355 0.69563 0.0
H1608 H 0.1699 0.63685 0.63285 0.0
H1609 H 0.09096 0.58279 0.5984 0.0
H1610 H 0.14913 0.60643 0.68853 0.0
H1611 H 0.16705 0.59168 0.67293 0.0
H1612 H 0.17893 0.62893 0.6705 0.0
H1613 H 0.0513 0.54706 0.62 0.0
H1614 H 0.06721 0.52569 0.62561 0.0
H1615 H 0.05565 0.53858 0.64926 0.0
H1616 H 0.13066 0.50777 0.68166 0.0
H1617 H 0.0945 0.5435 0.72704 0.0
H1618 H 0.14835 0.5518 0.63839 0.0
H1619 H 0.11292 0.52905 0.62843 0.0
H1620 H 0.13237 0.51398 0.64154 0.0
H1621 H 0.10132 0.59556 0.69861 0.0
H1622 H 0.07008 0.5666 0.71113 0.0
H1623 H 0.07145 0.57384 0.68062 0.0
C1624 C 0.47485 0.56038 0.71137 0.0
C1625 C 0.47927 0.5877 0.70731 0.0
C1626 C 0.46352 0.53955 0.69404 0.0
C1627 C 0.4559 0.54619 0.67258 0.0
C1628 C 0.46342 0.57457 0.66767 0.0
C1629 C 0.47536 0.59498 0.685 0.0
C1630 C 0.45779 0.51009 0.69948 0.0
C1631 C 0.45607 0.58294 0.64497 0.0
C1632 C 0.42408 0.50644 0.61775 0.0
C1633 C 0.39601 0.50032 0.6208 0.0
C1634 C 0.44366 0.51771 0.63596 0.0
C1635 C 0.43497 0.5236 0.65723 0.0
C1636 C 0.40585 0.51362 0.66123 0.0
C1637 C 0.38669 0.5018 0.643 0.0
C1638 C 0.47409 0.52585 0.63167 0.0
C1639 C 0.39536 0.51867 0.68384 0.0
H1640 H 0.47852 0.5547 0.72839 0.0
H1641 H 0.47971 0.61633 0.68144 0.0
H1642 H 0.43754 0.49843 0.70908 0.0
H1643 H 0.45629 0.49797 0.68367 0.0
H1644 H 0.47476 0.51103 0.71069 0.0
H1645 H 0.4645 0.60614 0.64365 0.0
H1646 H 0.4647 0.57641 0.63043 0.0
H1647 H 0.4327 0.57202 0.64292 0.0
H1648 H 0.43134 0.50452 0.60082 0.0
H1649 H 0.36476 0.49601 0.64575 0.0
H1650 H 0.48457 0.52492 0.64778 0.0
H1651 H 0.48588 0.54783 0.62494 0.0
H1652 H 0.47552 0.51171 0.61862 0.0
H1653 H 0.40315 0.51129 0.6984 0.0
H1654 H 0.37186 0.50763 0.68471 0.0
H1655 H 0.40367 0.54173 0.68618 0.0
C1656 C 0.58236 0.77127 0.10858 0.0
C1657 C 0.56246 0.7427 0.11275 0.0
C1658 C 0.59056 0.79135 0.12638 0.0
C1659 C 0.57798 0.7825 0.14838 0.0
C1660 C 0.5614 0.7532 0.15333 0.0
C1661 C 0.55408 0.73364 0.13544 0.0
C1662 C 0.61029 0.82219 0.12096 0.0
C1663 C 0.54821 0.74259 0.17676 0.0
C1664 C 0.58063 0.82146 0.20268 0.0
C1665 C 0.55552 0.82248 0.20014 0.0
C1666 C 0.59086 0.81194 0.18456 0.0
C1667 C 0.57515 0.8026 0.16387 0.0
C1668 C 0.55187 0.80694 0.16033 0.0
C1669 C 0.5426 0.81717 0.17842 0.0
C1670 C 0.61704 0.80972 0.18845 0.0
C1671 C 0.53461 0.79777 0.13838 0.0
H1672 H 0.58966 0.77836 0.09117 0.0
H1673 H 0.53962 0.71137 0.13891 0.0
H1674 H 0.59787 0.83176 0.11437 0.0
H1675 H 0.62205 0.83415 0.1365 0.0
H1676 H 0.62572 0.82459 0.10739 0.0
H1677 H 0.53772 0.71915 0.17818 0.0
H1678 H 0.56452 0.75209 0.19042 0.0
H1679 H 0.53211 0.74897 0.18009 0.0
H1680 H 0.59136 0.82639 0.21918 0.0
H1681 H 0.52378 0.81887 0.176 0.0
H1682 H 0.62724 0.80936 0.172 0.0
H1683 H 0.61127 0.78997 0.19808 0.0
H1684 H 0.63266 0.82776 0.19906 0.0
H1685 H 0.54854 0.80716 0.12319 0.0
H1686 H 0.51812 0.80407 0.13798 0.0
H1687 H 0.52394 0.77436 0.13667 0.0
C1688 C 0.17307 0.71894 0.17492 0.0
C1689 C 0.17232 0.72782 0.19745 0.0
C1690 C 0.18551 0.73862 0.1571 0.0
C1691 C 0.19695 0.76781 0.16191 0.0
C1692 C 0.19185 0.7763 0.18356 0.0
C1693 C 0.17984 0.75617 0.20131 0.0
C1694 C 0.18968 0.72842 0.13402 0.0
C1695 C 0.20169 0.80696 0.18872 0.0
C1696 C 0.26847 0.8063 0.13409 0.0
C1697 C 0.26164 0.81211 0.11224 0.0
C1698 C 0.24798 0.79426 0.15136 0.0
C1699 C 0.22005 0.78855 0.14687 0.0
C1700 C 0.21403 0.79793 0.12601 0.0
C1701 C 0.23488 0.80935 0.10873 0.0
C1702 C 0.25563 0.78497 0.17346 0.0
C1703 C 0.18511 0.79399 0.12108 0.0
H1704 H 0.16622 0.69686 0.17157 0.0
H1705 H 0.17849 0.76313 0.21851 0.0
H1706 H 0.1833 0.73773 0.11989 0.0
H1707 H 0.21245 0.73536 0.1316 0.0
H1708 H 0.17728 0.70496 0.13247 0.0
H1709 H 0.18859 0.80889 0.20248 0.0
H1710 H 0.22395 0.8176 0.19483 0.0
H1711 H 0.20082 0.81825 0.1731 0.0
H1712 H 0.28939 0.80927 0.13727 0.0
H1713 H 0.22959 0.8145 0.0921 0.0
H1714 H 0.24374 0.76148 0.17462 0.0
H1715 H 0.24969 0.79329 0.18858 0.0
H1716 H 0.27863 0.79228 0.17461 0.0
H1717 H 0.17257 0.77425 0.11102 0.0
H1718 H 0.18695 0.81183 0.11049 0.0
H1719 H 0.17336 0.7925 0.13711 0.0
C1720 C 0.24324 0.42865 0.20766 0.0
C1721 C 0.26949 0.45387 0.20662 0.0
C1722 C 0.22445 0.41996 0.18888 0.0
C1723 C 0.23202 0.43719 0.16894 0.0
C1724 C 0.25959 0.46105 0.16704 0.0
C1725 C 0.27801 0.46891 0.18581 0.0
C1726 C 0.19582 0.39359 0.19119 0.0
C1727 C 0.26882 0.47998 0.14601 0.0
C1728 C 0.19651 0.42881 0.11164 0.0
C1729 C 0.18602 0.44743 0.11479 0.0
C1730 C 0.20849 0.42185 0.13018 0.0
C1731 C 0.21029 0.43421 0.15201 0.0
C1732 C 0.19627 0.44981 0.15581 0.0
C1733 C 0.18415 0.45606 0.13715 0.0
C1734 C 0.22168 0.40367 0.12583 0.0
C1735 C 0.19707 0.46291 0.17894 0.0
H1736 H 0.23666 0.41653 0.22352 0.0
H1737 H 0.29859 0.48796 0.18458 0.0
H1738 H 0.18071 0.39919 0.19904 0.0
H1739 H 0.18727 0.38359 0.17422 0.0
H1740 H 0.197 0.37787 0.20264 0.0
H1741 H 0.29157 0.49656 0.14668 0.0
H1742 H 0.2652 0.46728 0.13016 0.0
H1743 H 0.25605 0.49064 0.14458 0.0
H1744 H 0.19745 0.42149 0.09448 0.0
H1745 H 0.17516 0.46966 0.13983 0.0
H1746 H 0.21986 0.39078 0.14122 0.0
H1747 H 0.24452 0.41745 0.1219 0.0
H1748 H 0.21159 0.38933 0.11091 0.0
H1749 H 0.19106 0.447 0.19286 0.0
H1750 H 0.18264 0.47178 0.17962 0.0
H1751 H 0.21896 0.48029 0.18248 0.0
C1752 C 0.26397 0.4411 0.63857 0.0
C1753 C 0.25447 0.43463 0.61578 0.0
C1754 C 0.24493 0.43594 0.65655 0.0
C1755 C 0.21574 0.4239 0.65149 0.0
C1756 C 0.20568 0.41309 0.62918 0.0
C1757 C 0.2253 0.41877 0.61137 0.0
C1758 C 0.2566 0.44705 0.68026 0.0
C1759 C 0.17453 0.39852 0.62351 0.0
C1760 C 0.17578 0.42341 0.70495 0.0
C1761 C 0.17897 0.4506 0.70357 0.0
C1762 C 0.18504 0.41278 0.68692 0.0
C1763 C 0.19814 0.42999 0.66741 0.0
C1764 C 0.19891 0.45626 0.66507 0.0
C1765 C 0.18912 0.46608 0.68309 0.0
C1766 C 0.18254 0.38409 0.68965 0.0
C1767 C 0.21241 0.47531 0.64444 0.0
H1768 H 0.28655 0.4526 0.64208 0.0
H1769 H 0.21784 0.41322 0.5938 0.0
H1770 H 0.25532 0.46643 0.68372 0.0
H1771 H 0.24393 0.43119 0.69362 0.0
H1772 H 0.27908 0.4525 0.68197 0.0
H1773 H 0.16952 0.38449 0.60826 0.0
H1774 H 0.1615 0.3858 0.63832 0.0
H1775 H 0.16848 0.41468 0.61947 0.0
H1776 H 0.16741 0.41097 0.72052 0.0
H1777 H 0.19094 0.48676 0.68157 0.0
H1778 H 0.20128 0.38647 0.69912 0.0
H1779 H 0.1815 0.37409 0.67276 0.0
H1780 H 0.16341 0.36968 0.69985 0.0
H1781 H 0.23544 0.4827 0.6441 0.0
H1782 H 0.20971 0.49421 0.6447 0.0
H1783 H 0.20309 0.46352 0.62826 0.0
C1784 C 0.53384 0.79313 0.63158 0.0
C1785 C 0.5494 0.80128 0.61102 0.0
C1786 C 0.54235 0.78303 0.65023 0.0
C1787 C 0.56743 0.78142 0.6485 0.0
C1788 C 0.5848 0.79224 0.62869 0.0
C1789 C 0.57545 0.8019 0.61001 0.0
C1790 C 0.52315 0.77204 0.67109 0.0
C1791 C 0.61233 0.79216 0.62648 0.0
C1792 C 0.57542 0.75756 0.70697 0.0
C1793 C 0.55753 0.72826 0.70425 0.0
C1794 C 0.58306 0.77574 0.68784 0.0
C1795 C 0.5721 0.76418 0.66588 0.0
C1796 C 0.55801 0.73446 0.6627 0.0
C1797 C 0.55094 0.71683 0.68199 0.0
C1798 C 0.59988 0.80733 0.69155 0.0
C1799 C 0.54677 0.72116 0.63945 0.0
H1800 H 0.51412 0.79341 0.63281 0.0
H1801 H 0.5879 0.80868 0.59433 0.0
H1802 H 0.51461 0.74889 0.67289 0.0
H1803 H 0.53519 0.78235 0.68696 0.0
H1804 H 0.50498 0.77587 0.66995 0.0
H1805 H 0.62789 0.81065 0.61622 0.0
H1806 H 0.62175 0.79257 0.64351 0.0
H1807 H 0.60846 0.77273 0.61723 0.0
H1808 H 0.58124 0.76652 0.72411 0.0
H1809 H 0.53799 0.69408 0.67975 0.0
H1810 H 0.58515 0.81564 0.69387 0.0
H1811 H 0.61355 0.81818 0.67645 0.0
H1812 H 0.61332 0.81269 0.70721 0.0
H1813 H 0.52836 0.72364 0.63483 0.0
H1814 H 0.53979 0.69819 0.63933 0.0
H1815 H 0.56317 0.73186 0.62598 0.0
C1816 C 0.235 0.76345 0.60737 0.0
C1817 C 0.20667 0.74933 0.60036 0.0
C1818 C 0.24319 0.77889 0.62787 0.0
C1819 C 0.22232 0.77966 0.64193 0.0
C1820 C 0.19412 0.76772 0.63379 0.0
C1821 C 0.18657 0.75265 0.61288 0.0
C1822 C 0.27366 0.79181 0.63557 0.0
C1823 C 0.17139 0.7685 0.64806 0.0
C1824 C 0.24209 0.77438 0.70272 0.0
C1825 C 0.25758 0.80294 0.70901 0.0
C1826 C 0.22761 0.76621 0.68177 0.0
C1827 C 0.22919 0.78728 0.66656 0.0
C1828 C 0.24256 0.81594 0.67382 0.0
C1829 C 0.25665 0.82349 0.69518 0.0
C1830 C 0.21313 0.73531 0.675 0.0
C1831 C 0.24428 0.83892 0.65828 0.0
H1832 H 0.25054 0.76112 0.59736 0.0
H1833 H 0.16465 0.74174 0.60729 0.0
H1834 H 0.28161 0.81355 0.64227 0.0
H1835 H 0.27508 0.77889 0.64973 0.0
H1836 H 0.28778 0.79277 0.62136 0.0
H1837 H 0.15319 0.76527 0.63724 0.0
H1838 H 0.16343 0.75128 0.66106 0.0
H1839 H 0.17986 0.7889 0.65741 0.0
H1840 H 0.24256 0.75852 0.71372 0.0
H1841 H 0.2686 0.8456 0.70021 0.0
H1842 H 0.22596 0.73222 0.66168 0.0
H1843 H 0.19196 0.72846 0.6675 0.0
H1844 H 0.2105 0.72137 0.68988 0.0
H1845 H 0.26204 0.84533 0.64597 0.0
H1846 H 0.24824 0.85794 0.66827 0.0
H1847 H 0.22454 0.8313 0.64813 0.0
C1848 C 0.0833 0.50899 0.11147 0.0
C1849 C 0.10926 0.50976 0.11439 0.0
C1850 C 0.07202 0.51793 0.12924 0.0
C1851 C 0.08746 0.52837 0.14998 0.0
C1852 C 0.11187 0.52599 0.15385 0.0
C1853 C 0.12223 0.51643 0.13609 0.0
C1854 C 0.04484 0.51813 0.12493 0.0
C1855 C 0.12896 0.53637 0.17583 0.0
C1856 C 0.10572 0.59616 0.17853 0.0
C1857 C 0.0985 0.58672 0.20128 0.0
C1858 C 0.09818 0.57686 0.16042 0.0
C1859 C 0.08285 0.54747 0.16532 0.0
C1860 C 0.07097 0.53816 0.18748 0.0
C1861 C 0.07926 0.558 0.20547 0.0
C1862 C 0.11027 0.58792 0.13678 0.0
C1863 C 0.05231 0.50711 0.19279 0.0
H1864 H 0.07264 0.50307 0.09495 0.0
H1865 H 0.14172 0.51603 0.13878 0.0
H1866 H 0.03471 0.51933 0.14115 0.0
H1867 H 0.04928 0.53659 0.11399 0.0
H1868 H 0.02963 0.49876 0.11538 0.0
H1869 H 0.14675 0.53191 0.17633 0.0
H1870 H 0.13793 0.5596 0.17752 0.0
H1871 H 0.11525 0.52615 0.191 0.0
H1872 H 0.11963 0.61856 0.17515 0.0
H1873 H 0.07285 0.55065 0.22298 0.0
H1874 H 0.09366 0.57751 0.12346 0.0
H1875 H 0.12733 0.58301 0.13297 0.0
H1876 H 0.11932 0.61121 0.1354 0.0
H1877 H 0.04003 0.49522 0.17741 0.0
H1878 H 0.0374 0.50397 0.20704 0.0
H1879 H 0.06563 0.49807 0.19835 0.0
C1880 C 0.48157 0.57466 0.11592 0.0
C1881 C 0.48922 0.60325 0.11816 0.0
C1882 C 0.46994 0.55599 0.1347 0.0
C1883 C 0.46565 0.56625 0.15585 0.0
C1884 C 0.47668 0.59571 0.15885 0.0
C1885 C 0.48844 0.61384 0.13998 0.0
C1886 C 0.45983 0.52495 0.13121 0.0
C1887 C 0.47311 0.60778 0.18122 0.0
C1888 C 0.39701 0.52846 0.18833 0.0
C1889 C 0.40601 0.5241 0.20978 0.0
C1890 C 0.4158 0.53977 0.16982 0.0
C1891 C 0.44433 0.54659 0.17271 0.0
C1892 C 0.45273 0.53917 0.19344 0.0
C1893 C 0.43344 0.52813 0.21189 0.0
C1894 C 0.40568 0.54695 0.14795 0.0
C1895 C 0.48256 0.54487 0.19686 0.0
H1896 H 0.48259 0.56641 0.09918 0.0
H1897 H 0.49517 0.63612 0.14197 0.0
H1898 H 0.46212 0.51515 0.14722 0.0
H1899 H 0.43706 0.51374 0.12647 0.0
H1900 H 0.47169 0.52171 0.1171 0.0
H1901 H 0.48553 0.63131 0.18149 0.0
H1902 H 0.4504 0.60105 0.18371 0.0
H1903 H 0.47981 0.59965 0.19599 0.0
H1904 H 0.37557 0.52458 0.18634 0.0
H1905 H 0.44044 0.52435 0.22831 0.0
H1906 H 0.41142 0.53863 0.13271 0.0
H1907 H 0.41616 0.57033 0.14606 0.0
H1908 H 0.38237 0.53819 0.14785 0.0
H1909 H 0.49207 0.5433 0.18042 0.0
H1910 H 0.48309 0.52983 0.20949 0.0
H1911 H 0.49589 0.56661 0.20374 0.0
C1912 C 0.42859 0.91027 0.11312 0.0
C1913 C 0.40026 0.88869 0.11542 0.0
C1914 C 0.44711 0.91829 0.13203 0.0
C1915 C 0.43695 0.90395 0.15326 0.0
C1916 C 0.40752 0.88546 0.15638 0.0
C1917 C 0.3895 0.87812 0.13737 0.0
C1918 C 0.47801 0.93972 0.12859 0.0
C1919 C 0.39551 0.87035 0.17895 0.0
C1920 C 0.47325 0.87023 0.18335 0.0
C1921 C 0.47742 0.88225 0.20534 0.0
C1922 C 0.46272 0.87929 0.16539 0.0
C1923 C 0.45655 0.90129 0.16942 0.0
C1924 C 0.4641 0.91594 0.1907 0.0
C1925 C 0.47429 0.90606 0.2086 0.0
C1926 C 0.45551 0.86324 0.14284 0.0
C1927 C 0.45948 0.94056 0.19531 0.0
H1928 H 0.43687 0.91913 0.09627 0.0
H1929 H 0.36733 0.86224 0.13937 0.0
H1930 H 0.48772 0.95153 0.14473 0.0
H1931 H 0.48956 0.92866 0.12336 0.0
H1932 H 0.48083 0.95502 0.11477 0.0
H1933 H 0.37198 0.85916 0.17921 0.0
H1934 H 0.40233 0.8545 0.18186 0.0
H1935 H 0.40357 0.88558 0.19346 0.0
H1936 H 0.47663 0.85248 0.18048 0.0
H1937 H 0.47816 0.91595 0.22542 0.0
H1938 H 0.46491 0.87812 0.1282 0.0
H1939 H 0.43217 0.8514 0.14042 0.0
H1940 H 0.46323 0.84785 0.14215 0.0
H1941 H 0.4592 0.95136 0.17918 0.0
H1942 H 0.47631 0.95625 0.20681 0.0
H1943 H 0.43891 0.93281 0.20425 0.0
C1944 C 0.1012 0.16005 0.13231 0.0
C1945 C 0.07218 0.14175 0.12845 0.0
C1946 C 0.1199 0.14941 0.1342 0.0
C1947 C 0.10918 0.11986 0.13233 0.0
C1948 C 0.07955 0.10121 0.13085 0.0
C1949 C 0.06144 0.1124 0.12881 0.0
C1950 C 0.15129 0.16997 0.136 0.0
C1951 C 0.06713 0.06951 0.12923 0.0
C1952 C 0.14784 0.09039 0.09876 0.0
C1953 C 0.15596 0.07809 0.11613 0.0
C1954 C 0.13442 0.10583 0.10404 0.0
C1955 C 0.12856 0.10871 0.12733 0.0
C1956 C 0.13839 0.09794 0.14509 0.0
C1957 C 0.1522 0.08279 0.13926 0.0
C1958 C 0.12482 0.1174 0.08452 0.0
C1959 C 0.13265 0.10068 0.17009 0.0
H1960 H 0.10965 0.18277 0.13218 0.0
H1961 H 0.03894 0.09812 0.12627 0.0
H1962 H 0.16157 0.16183 0.14783 0.0
H1963 H 0.16115 0.17264 0.11878 0.0
H1964 H 0.15571 0.19111 0.14214 0.0
H1965 H 0.04377 0.05787 0.13164 0.0
H1966 H 0.0719 0.06406 0.11202 0.0
H1967 H 0.07674 0.06205 0.14232 0.0
H1968 H 0.15112 0.08704 0.08087 0.0
H1969 H 0.15844 0.07319 0.15269 0.0
H1970 H 0.13145 0.13995 0.08766 0.0
H1971 H 0.10134 0.10542 0.08345 0.0
H1972 H 0.13349 0.11577 0.06763 0.0
H1973 H 0.13603 0.12213 0.1738 0.0
H1974 H 0.14631 0.09645 0.18172 0.0
H1975 H 0.11019 0.08518 0.17409 0.0
C1976 C 0.87488 0.94944 0.09751 0.0
C1977 C 0.85776 0.92903 0.11381 0.0
C1978 C 0.88726 0.97844 0.10222 0.0
C1979 C 0.88291 0.98739 0.12399 0.0
C1980 C 0.86555 0.96694 0.14054 0.0
C1981 C 0.85293 0.93794 0.13517 0.0
C1982 C 0.90528 -0.00049 0.0839 0.0
C1983 C 0.86084 0.9757 0.16403 0.0
C1984 C 0.94311 0.06119 0.13557 0.0
C1985 C 0.93169 0.07766 0.12769 0.0
C1986 C 0.92645 0.03162 0.13681 0.0
C1987 C 0.8979 0.01823 0.12938 0.0
C1988 C 0.88565 0.03497 0.12328 0.0
C1989 C 0.90273 0.06466 0.12269 0.0
C1990 C 0.94024 0.01468 0.14389 0.0
C1991 C 0.8554 0.02156 0.11505 0.0
H1992 H 0.87839 0.94274 0.08085 0.0
H1993 H 0.83975 0.92224 0.14785 0.0
H1994 H 0.89755 0.01453 0.08048 0.0
H1995 H 0.92749 0.01212 0.09 0.0
H1996 H 0.9052 0.98907 0.06745 0.0
H1997 H 0.84573 0.95727 0.17458 0.0
H1998 H 0.88131 0.98708 0.17336 0.0
H1999 H 0.85263 0.99059 0.16234 0.0
H2000 H 0.96557 0.07136 0.1394 0.0
H2001 H 0.89404 0.07743 0.1163 0.0
H2002 H 0.94448 0.00554 0.12835 0.0
H2003 H 0.926 0.99683 0.15529 0.0
H2004 H 0.96066 0.02798 0.15296 0.0
H2005 H 0.85403 0.01361 0.09723 0.0
H2006 H 0.84764 0.03694 0.11497 0.0
H2007 H 0.84115 0.0032 0.12598 0.0
C2008 C 0.93403 0.8609 0.13021 0.0
C2009 C 0.92299 0.85695 0.10786 0.0
C2010 C 0.96352 0.87577 0.13391 0.0
C2011 C 0.98214 0.88624 0.11477 0.0
C2012 C 0.97092 0.88091 0.09216 0.0
C2013 C 0.94153 0.86665 0.08902 0.0
C2014 C 0.97471 0.88137 0.15824 0.0
C2015 C 0.98996 0.89105 0.07122 0.0
C2016 C 0.05561 0.95085 0.11575 0.0
C2017 C 0.0728 0.93848 0.11475 0.0
C2018 C 0.02605 0.93405 0.1176 0.0
C2019 C 0.01333 0.90414 0.11798 0.0
C2020 C 0.03066 0.89161 0.11828 0.0
C2021 C 0.06023 0.90895 0.11687 0.0
C2022 C 0.00836 0.9483 0.11771 0.0
C2023 C 0.01796 0.85983 0.11833 0.0
H2024 H 0.91965 0.85355 0.14478 0.0
H2025 H 0.93296 0.86332 0.07171 0.0
H2026 H 0.99109 0.87514 0.1604 0.0
H2027 H 0.98499 0.9044 0.1619 0.0
H2028 H 0.95766 0.8698 0.17113 0.0
H2029 H 0.97788 0.8832 0.05489 0.0
H2030 H 0.00181 0.91455 0.07079 0.0
H2031 H 0.00577 0.88391 0.07209 0.0
H2032 H 0.06522 0.97367 0.11439 0.0
H2033 H 0.07336 0.89922 0.11603 0.0
H2034 H 0.99186 0.93906 0.1313 0.0
H2035 H 0.99734 0.9447 0.10092 0.0
H2036 H 0.02141 0.97152 0.12058 0.0
H2037 H 0.00094 0.84985 0.13144 0.0
H2038 H 0.0341 0.85351 0.12177 0.0
H2039 H 0.00821 0.85124 0.10129 0.0
C2040 C 0.10521 0.17203 0.36855 0.0
C2041 C 0.07636 0.15655 0.36311 0.0
C2042 C 0.1224 0.1597 0.36618 0.0
C2043 C 0.11031 0.13151 0.35793 0.0
C2044 C 0.08212 0.1174 0.34962 0.0
C2045 C 0.06534 0.12997 0.35261 0.0
C2046 C 0.15235 0.17551 0.3752 0.0
C2047 C 0.06852 0.0876 0.34025 0.0
C2048 C 0.15344 0.09415 0.35224 0.0
C2049 C 0.14648 0.07875 0.37292 0.0
C2050 C 0.14228 0.11191 0.34708 0.0
C2051 C 0.12416 0.11454 0.36315 0.0
C2052 C 0.11776 0.0996 0.38428 0.0
C2053 C 0.12879 0.0818 0.38879 0.0
C2054 C 0.14925 0.12721 0.32428 0.0
C2055 C 0.09884 0.10203 0.40211 0.0
H2056 H 0.11362 0.19252 0.37683 0.0
H2057 H 0.04297 0.11809 0.34836 0.0
H2058 H 0.15285 0.16777 0.39279 0.0
H2059 H 0.16681 0.17174 0.36423 0.0
H2060 H 0.16045 0.19868 0.37618 0.0
H2061 H 0.04898 0.08202 0.33032 0.0
H2062 H 0.08344 0.0849 0.32899 0.0
H2063 H 0.06269 0.07244 0.35478 0.0
H2064 H 0.16712 0.09187 0.33992 0.0
H2065 H 0.12366 0.07035 0.40497 0.0
H2066 H 0.15651 0.15001 0.32687 0.0
H2067 H 0.12989 0.1183 0.31347 0.0
H2068 H 0.16586 0.12526 0.31473 0.0
H2069 H 0.10701 0.1246 0.40662 0.0
H2070 H 0.09726 0.09022 0.41815 0.0
H2071 H 0.0772 0.09361 0.395 0.0
C2072 C 0.90687 0.06277 0.36609 0.0
C2073 C 0.9362 0.07414 0.3685 0.0
C2074 C 0.8886 0.03335 0.36439 0.0
C2075 C 0.90006 0.01506 0.3648 0.0
C2076 C 0.92984 0.0267 0.36486 0.0
C2077 C 0.94754 0.05609 0.3669 0.0
C2078 C 0.85701 0.02182 0.36436 0.0
C2079 C 0.94299 0.00801 0.36484 0.0
C2080 C 0.86281 0.94552 0.39698 0.0
C2081 C 0.85274 0.9257 0.37903 0.0
C2082 C 0.87685 0.97463 0.39248 0.0
C2083 C 0.88144 0.98427 0.36938 0.0
C2084 C 0.87025 0.96437 0.35114 0.0
C2085 C 0.85576 0.93519 0.3562 0.0
C2086 C 0.88789 0.99507 0.41251 0.0
C2087 C 0.87486 0.97384 0.32632 0.0
H2088 H 0.89797 0.07662 0.36731 0.0
H2089 H 0.97025 0.06484 0.36841 0.0
H2090 H 0.84625 0.00382 0.3522 0.0
H2091 H 0.84846 0.01379 0.38182 0.0
H2092 H 0.85162 0.03834 0.35968 0.0
H2093 H 0.96611 0.02023 0.36128 0.0
H2094 H 0.93975 0.99771 0.38193 0.0
H2095 H 0.9327 0.99098 0.35178 0.0
H2096 H 0.86014 0.93819 0.41467 0.0
H2097 H 0.84806 0.91986 0.3423 0.0
H2098 H 0.88107 0.01106 0.4109 0.0
H2099 H 0.9114 0.0066 0.41244 0.0
H2100 H 0.88044 0.98416 0.42937 0.0
H2101 H 0.87019 0.99126 0.32369 0.0
H2102 H 0.86151 0.95619 0.3144 0.0
H2103 H 0.89743 0.98218 0.32172 0.0
C2104 C 0.06489 0.90955 0.37476 0.0
C2105 C 0.07865 0.93872 0.37049 0.0
C2106 C 0.0352 0.89311 0.37363 0.0
C2107 C 0.01924 0.90621 0.36756 0.0
C2108 C 0.03342 0.93512 0.36104 0.0
C2109 C 0.06297 0.95116 0.36297 0.0
C2110 C 0.02091 0.86251 0.38111 0.0
C2111 C 0.01728 0.94975 0.35391 0.0
C2112 C 0.9394 0.86157 0.35898 0.0
C2113 C 0.92943 0.86551 0.38015 0.0
C2114 C 0.96864 0.87466 0.35449 0.0
C2115 C 0.98818 0.89135 0.37182 0.0
C2116 C 0.97812 0.89482 0.39337 0.0
C2117 C 0.94891 0.88217 0.39714 0.0
C2118 C 0.97863 0.87108 0.33114 0.0
C2119 C 0.99821 0.91198 0.41251 0.0
H2120 H 0.07709 0.90007 0.38083 0.0
H2121 H 0.07376 0.97377 0.35963 0.0
H2122 H 0.01181 0.86052 0.39857 0.0
H2123 H 0.00322 0.84891 0.36937 0.0
H2124 H 0.03599 0.8544 0.38173 0.0
H2125 H 0.03129 0.97053 0.34558 0.0
H2126 H -7e-05 0.93629 0.34184 0.0
H2127 H 0.00752 0.95343 0.36933 0.0
H2128 H 0.92433 0.84874 0.3458 0.0
H2129 H 0.94129 0.88493 0.41365 0.0
H2130 H 0.99291 0.86219 0.33303 0.0
H2131 H 0.99103 0.89207 0.3227 0.0
H2132 H 0.96074 0.85697 0.3197 0.0
H2133 H 0.013 0.90404 0.41621 0.0
H2134 H 0.9869 0.91119 0.42866 0.0
H2135 H 0.01116 0.93445 0.40711 0.0
C2136 C 0.9423 0.89228 0.87447 0.0
C2137 C 0.93097 0.86285 0.87359 0.0
C2138 C 0.92471 0.90417 0.87308 0.0
C2139 C 0.89501 0.88617 0.87113 0.0
C2140 C 0.88363 0.85659 0.86868 0.0
C2141 C 0.9018 0.84528 0.86978 0.0
C2142 C 0.93777 0.9359 0.87532 0.0
C2143 C 0.8521 0.83666 0.86674 0.0
C2144 C 0.85488 0.91592 0.9025 0.0
C2145 C 0.84682 0.92742 0.88445 0.0
C2146 C 0.86908 0.90096 0.89819 0.0
C2147 C 0.87597 0.89796 0.87524 0.0
C2148 C 0.86669 0.90838 0.85681 0.0
C2149 C 0.85192 0.92284 0.86164 0.0
C2150 C 0.87798 0.88965 0.91835 0.0
C2151 C 0.87382 0.90577 0.83215 0.0
H2152 H 0.96487 0.90602 0.8771 0.0
H2153 H 0.89285 0.82249 0.86909 0.0
H2154 H 0.92898 0.94412 0.86213 0.0
H2155 H 0.93255 0.94104 0.89248 0.0
H2156 H 0.9612 0.94713 0.87349 0.0
H2157 H 0.84704 0.81509 0.86124 0.0
H2158 H 0.84206 0.83493 0.88375 0.0
H2159 H 0.84249 0.84489 0.85433 0.0
H2160 H 0.85071 0.91933 0.92014 0.0
H2161 H 0.84585 0.93198 0.84771 0.0
H2162 H 0.9014 0.9017 0.92002 0.0
H2163 H 0.87158 0.8671 0.9155 0.0
H2164 H 0.8686 0.89136 0.93485 0.0
H2165 H 0.89683 0.92014 0.82925 0.0
H2166 H 0.86191 0.91142 0.81976 0.0
H2167 H 0.86922 0.88389 0.82848 0.0
C2168 C 0.15505 0.06241 0.87075 0.0
C2169 C 0.13819 0.07359 0.87842 0.0
C2170 C 0.14343 0.03313 0.86744 0.0
C2171 C 0.11425 0.01466 0.87172 0.0
C2172 C 0.09682 0.026 0.87808 0.0
C2173 C 0.10902 0.05528 0.88146 0.0
C2174 C 0.1627 0.02185 0.86072 0.0
C2175 C 0.06551 0.00706 0.88256 0.0
C2176 C 0.07405 0.93654 0.85554 0.0
C2177 C 0.07173 0.92411 0.87711 0.0
C2178 C 0.08923 0.96623 0.85307 0.0
C2179 C 0.10247 0.98347 0.8726 0.0
C2180 C 0.10186 0.97069 0.89398 0.0
C2181 C 0.08628 0.94118 0.89599 0.0
C2182 C 0.0894 0.9791 0.83003 0.0
C2183 C 0.11606 0.98818 0.91516 0.0
H2184 H 0.17761 0.07638 0.86828 0.0
H2185 H 0.09574 0.06375 0.88705 0.0
H2186 H 0.16587 0.01119 0.87577 0.0
H2187 H 0.15299 0.00583 0.84683 0.0
H2188 H 0.18378 0.03896 0.85482 0.0
H2189 H 0.05441 0.01933 0.88487 0.0
H2190 H 0.05541 0.99195 0.86812 0.0
H2191 H 0.06245 0.99441 0.89838 0.0
H2192 H 0.06253 0.92323 0.84102 0.0
H2193 H 0.08449 0.9314 0.91265 0.0
H2194 H 0.11095 0.99666 0.82582 0.0
H2195 H 0.07515 0.98815 0.83075 0.0
H2196 H 0.08206 0.96318 0.81595 0.0
H2197 H 0.13825 0.00457 0.91127 0.0
H2198 H 0.11617 0.97499 0.92972 0.0
H2199 H 0.10472 0.99932 0.92077 0.0
C2200 C 0.94331 0.05404 0.88242 0.0
C2201 C 0.92542 0.06551 0.88026 0.0
C2202 C 0.97271 0.07102 0.87958 0.0
C2203 C 0.9846 0.1003 0.87485 0.0
C2204 C 0.96654 0.11169 0.87141 0.0
C2205 C 0.93712 0.0941 0.874 0.0
C2206 C 0.99118 0.05791 0.88299 0.0
C2207 C 0.97837 0.14282 0.86659 0.0
C2208 C 0.05738 0.14402 0.90113 0.0
C2209 C 0.07514 0.14905 0.88215 0.0
C2210 C 0.02789 0.12959 0.89867 0.0
C2211 C 0.0158 0.11937 0.8767 0.0
C2212 C 0.03368 0.12552 0.85724 0.0
C2213 C 0.06331 0.14059 0.86017 0.0
C2214 C 0.00969 0.12409 0.91982 0.0
C2215 C 0.02158 0.11476 0.83361 0.0
H2216 H 0.93439 0.03189 0.88696 0.0
H2217 H 0.92345 0.10315 0.87233 0.0
H2218 H 0.00698 0.06432 0.86891 0.0
H2219 H 0.00305 0.06562 0.8994 0.0
H2220 H 0.97861 0.03439 0.88362 0.0
H2221 H 0.96163 0.14756 0.86114 0.0
H2222 H 0.98858 0.15517 0.8824 0.0
H2223 H 0.99486 0.15023 0.85299 0.0
H2224 H 0.06662 0.15078 0.91812 0.0
H2225 H 0.07712 0.14432 0.84554 0.0
H2226 H 0.99832 0.10111 0.92386 0.0
H2227 H 0.99347 0.13032 0.91665 0.0
H2228 H 0.02237 0.13581 0.93514 0.0
H2229 H 0.01214 0.09139 0.83312 0.0
H2230 H 0.03799 0.12422 0.81993 0.0
H2231 H 0.0044 0.11942 0.8297 0.0
C2232 C 0.90778 0.84426 0.59852 0.0
C2233 C 0.91949 0.83517 0.61566 0.0
C2234 C 0.8918 0.85699 0.60419 0.0
C2235 C 0.88771 0.86108 0.62765 0.0
C2236 C 0.89778 0.85014 0.64509 0.0
C2237 C 0.91354 0.83711 0.63885 0.0
C2238 C 0.88103 0.86785 0.58498 0.0
C2239 C 0.89365 0.85389 0.67026 0.0
C2240 C 0.88398 0.92797 0.63166 0.0
C2241 C 0.85469 0.9173 0.63024 0.0
C2242 C 0.89502 0.90972 0.63331 0.0
C2243 C 0.87629 0.88005 0.63333 0.0
C2244 C 0.84667 0.86925 0.63427 0.0
C2245 C 0.83616 0.88808 0.63278 0.0
C2246 C 0.92678 0.92219 0.6327 0.0
C2247 C 0.82603 0.83779 0.63461 0.0
H2248 H 0.91201 0.84231 0.58055 0.0
H2249 H 0.92261 0.83005 0.65211 0.0
H2250 H 0.85829 0.86081 0.58759 0.0
H2251 H 0.89285 0.89137 0.58504 0.0
H2252 H 0.88358 0.86048 0.56778 0.0
H2253 H 0.89719 0.83927 0.68128 0.0
H2254 H 0.90898 0.87595 0.67548 0.0
H2255 H 0.87204 0.8503 0.67352 0.0
H2256 H 0.89839 0.95061 0.63019 0.0
H2257 H 0.81347 0.8797 0.63185 0.0
H2258 H 0.93318 0.91861 0.61543 0.0
H2259 H 0.93352 0.91167 0.64554 0.0
H2260 H 0.93828 0.94535 0.63615 0.0
H2261 H 0.82406 0.82915 0.61697 0.0
H2262 H 0.80465 0.83301 0.64042 0.0
H2263 H 0.83363 0.82666 0.64603 0.0
C2264 C 0.08813 0.93492 0.6155 0.0
C2265 C 0.05851 0.92151 0.61387 0.0
C2266 C 0.10472 0.96455 0.61699 0.0
C2267 C 0.09132 0.98109 0.61734 0.0
C2268 C 0.06134 0.96751 0.6174 0.0
C2269 C 0.0453 0.9379 0.61538 0.0
C2270 C 0.1366 0.97818 0.61646 0.0
C2271 C 0.0462 0.98434 0.61824 0.0
C2272 C 0.13395 0.06023 0.6304 0.0
C2273 C 0.13756 0.07169 0.60823 0.0
C2274 C 0.11912 0.03067 0.63377 0.0
C2275 C 0.1084 0.01239 0.61444 0.0
C2276 C 0.11315 0.02403 0.59199 0.0
C2277 C 0.12733 0.05348 0.5892 0.0
C2278 C 0.11403 0.01902 0.65796 0.0
C2279 C 0.10275 0.00537 0.57086 0.0
H2280 H 0.09849 0.92239 0.61423 0.0
H2281 H 0.02239 0.92762 0.61438 0.0
H2282 H 0.1446 0.98857 0.59951 0.0
H2283 H 0.14641 0.99484 0.62984 0.0
H2284 H 0.1437 0.9625 0.61911 0.0
H2285 H 0.02313 0.97064 0.62145 0.0
H2286 H 0.05533 0.00071 0.63192 0.0
H2287 H 0.04906 0.99546 0.6016 0.0
H2288 H 0.1417 0.07434 0.64511 0.0
H2289 H 0.13039 0.06236 0.57202 0.0
H2290 H 0.12132 0.0034 0.65971 0.0
H2291 H 0.09097 0.00769 0.66169 0.0
H2292 H 0.12504 0.03594 0.67104 0.0
H2293 H 0.11047 0.98999 0.57102 0.0
H2294 H 0.10987 0.01778 0.55462 0.0
H2295 H 0.07926 0.993 0.57089 0.0
C2296 C 0.93245 0.08841 0.62737 0.0
C2297 C 0.92089 0.05915 0.63019 0.0
C2298 C 0.96197 0.10664 0.62769 0.0
C2299 C 0.98001 0.09521 0.63129 0.0
C2300 C 0.96812 0.0661 0.63664 0.0
C2301 C 0.93868 0.04835 0.63575 0.0
C2302 C 0.97378 0.1375 0.62181 0.0
C2303 C 0.98652 0.05312 0.64106 0.0
C2304 C 0.04833 0.12384 0.59756 0.0
C2305 C 0.06881 0.13925 0.61433 0.0
C2306 C 0.01938 0.11048 0.60273 0.0
C2307 C 0.01062 0.11206 0.62539 0.0
C2308 C 0.03115 0.12803 0.64234 0.0
C2309 C 0.06008 0.1417 0.63654 0.0
C2310 C 0.99817 0.09407 0.584 0.0
C2311 C 0.02261 0.12985 0.66672 0.0
H2312 H 0.91866 0.09669 0.62285 0.0
H2313 H 0.92963 0.02568 0.63802 0.0
H2314 H 0.99232 0.15122 0.63276 0.0
H2315 H 0.98107 0.14112 0.60363 0.0
H2316 H 0.95762 0.14409 0.62383 0.0
H2317 H 0.97427 0.0316 0.64871 0.0
H2318 H 0.99582 0.05138 0.62456 0.0
H2319 H 0.00428 0.06669 0.65276 0.0
H2320 H 0.05495 0.12224 0.58028 0.0
H2321 H 0.07588 0.15356 0.64956 0.0
H2322 H 0.98235 0.10115 0.58257 0.0
H2323 H 0.98652 0.07119 0.5884 0.0
H2324 H 0.00841 0.09663 0.56693 0.0
H2325 H 0.0063 0.13635 0.66683 0.0
H2326 H 0.04092 0.14507 0.67732 0.0
H2327 H 0.01305 0.10865 0.67493 0.0
C2328 C 0.78002 0.3911 0.46296 0.0
C2329 C 0.80813 0.40258 0.4556 0.0
C2330 C 0.76729 0.4079 0.46425 0.0
C2331 C 0.7829 0.43667 0.45745 0.0
C2332 C 0.81206 0.44894 0.45197 0.0
C2333 C 0.82445 0.43171 0.45132 0.0
C2334 C 0.73635 0.39413 0.47072 0.0
C2335 C 0.82938 0.47945 0.44442 0.0
C2336 C 0.73874 0.46121 0.42518 0.0
C2337 C 0.73513 0.47792 0.44166 0.0
C2338 C 0.75499 0.44848 0.42998 0.0
C2339 C 0.7675 0.45203 0.45201 0.0
C2340 C 0.76411 0.46901 0.46873 0.0
C2341 C 0.74815 0.48203 0.46326 0.0
C2342 C 0.75847 0.43092 0.41149 0.0
C2343 C 0.77674 0.47284 0.49248 0.0
H2344 H 0.76747 0.36855 0.46641 0.0
H2345 H 0.84615 0.44051 0.44546 0.0
H2346 H 0.73253 0.4081 0.48226 0.0
H2347 H 0.7235 0.39052 0.45494 0.0
H2348 H 0.72877 0.37339 0.47939 0.0
H2349 H 0.85247 0.48704 0.44483 0.0
H2350 H 0.82348 0.48148 0.42652 0.0
H2351 H 0.82502 0.49343 0.45547 0.0
H2352 H 0.72905 0.4583 0.40835 0.0
H2353 H 0.74533 0.4949 0.47607 0.0
H2354 H 0.74844 0.4085 0.41714 0.0
H2355 H 0.78128 0.43853 0.40854 0.0
H2356 H 0.74876 0.43166 0.39488 0.0
H2357 H 0.76703 0.45209 0.50145 0.0
H2358 H 0.77336 0.48785 0.50313 0.0
H2359 H 0.79981 0.48074 0.49128 0.0
C2360 C 0.56177 0.28217 0.44937 0.0
C2361 C 0.53224 0.26462 0.44885 0.0
C2362 C 0.57418 0.31171 0.45109 0.0
C2363 C 0.55663 0.32401 0.45187 0.0
C2364 C 0.52683 0.30632 0.45283 0.0
C2365 C 0.51499 0.2768 0.4515 0.0
C2366 C 0.60607 0.3298 0.45047 0.0
C2367 C 0.50737 0.31857 0.45341 0.0
C2368 C 0.59241 0.40364 0.4623 0.0
C2369 C 0.59843 0.41386 0.43966 0.0
C2370 C 0.57814 0.3743 0.46671 0.0
C2371 C 0.56931 0.35501 0.44801 0.0
C2372 C 0.57405 0.3654 0.42514 0.0
C2373 C 0.58881 0.39466 0.42128 0.0
C2374 C 0.57372 0.36399 0.4913 0.0
C2375 C 0.56444 0.34563 0.40466 0.0
H2376 H 0.57524 0.27289 0.44765 0.0
H2377 H 0.49213 0.2634 0.45109 0.0
H2378 H 0.61279 0.34039 0.43346 0.0
H2379 H 0.61355 0.34664 0.46377 0.0
H2380 H 0.61664 0.31711 0.45328 0.0
H2381 H 0.48522 0.30228 0.45766 0.0
H2382 H 0.51483 0.336 0.46616 0.0
H2383 H 0.50745 0.32763 0.43627 0.0
H2384 H 0.60005 0.41855 0.4765 0.0
H2385 H 0.59324 0.4026 0.40375 0.0
H2386 H 0.58722 0.35451 0.4949 0.0
H2387 H 0.5514 0.34719 0.49411 0.0
H2388 H 0.57916 0.3814 0.50381 0.0
H2389 H 0.57629 0.33398 0.4041 0.0
H2390 H 0.56783 0.3571 0.38809 0.0
H2391 H 0.5416 0.32968 0.40624 0.0
C2392 C 0.71962 0.27362 0.46135 0.0
C2393 C 0.73781 0.2625 0.45938 0.0
C2394 C 0.69037 0.2558 0.46403 0.0
C2395 C 0.67899 0.22606 0.46442 0.0
C2396 C 0.69753 0.21488 0.46478 0.0
C2397 C 0.72688 0.23332 0.46234 0.0
C2398 C 0.67149 0.26874 0.46403 0.0
C2399 C 0.68627 0.18335 0.46543 0.0
C2400 C 0.59891 0.18406 0.47218 0.0
C2401 C 0.59006 0.18172 0.44922 0.0
C2402 C 0.62795 0.19698 0.4776 0.0
C2403 C 0.64826 0.20737 0.4596 0.0
C2404 C 0.63909 0.20297 0.43639 0.0
C2405 C 0.61017 0.1904 0.43152 0.0
C2406 C 0.63687 0.20114 0.50254 0.0
C2407 C 0.6599 0.21321 0.41658 0.0
H2408 H 0.72812 0.29626 0.45946 0.0
H2409 H 0.7409 0.22465 0.46088 0.0
H2410 H 0.66087 0.26508 0.44705 0.0
H2411 H 0.65472 0.25865 0.47733 0.0
H2412 H 0.68362 0.29195 0.46724 0.0
H2413 H 0.70289 0.17836 0.47072 0.0
H2414 H 0.66804 0.17271 0.47742 0.0
H2415 H 0.6787 0.17437 0.44801 0.0
H2416 H 0.58334 0.17732 0.48587 0.0
H2417 H 0.60328 0.18815 0.41374 0.0
H2418 H 0.64424 0.22341 0.50755 0.0
H2419 H 0.65475 0.1972 0.50529 0.0
H2420 H 0.61908 0.187 0.51407 0.0
H2421 H 0.67188 0.23673 0.41635 0.0
H2422 H 0.64923 0.20564 0.39966 0.0
H2423 H 0.67546 0.2059 0.41871 0.0
C2424 C 0.82234 0.42791 0.69658 0.0
C2425 C 0.80484 0.39958 0.70329 0.0
C2426 C 0.8112 0.44603 0.69346 0.0
C2427 C 0.78188 0.43545 0.69693 0.0
C2428 C 0.76383 0.40632 0.70186 0.0
C2429 C 0.77555 0.3888 0.7051 0.0
C2430 C 0.83112 0.47691 0.68819 0.0
C2431 C 0.73236 0.39405 0.70536 0.0
C2432 C 0.75404 0.47939 0.72449 0.0
C2433 C 0.7403 0.48395 0.70602 0.0
C2434 C 0.76941 0.4654 0.72133 0.0
C2435 C 0.7706 0.4552 0.69917 0.0
C2436 C 0.75821 0.46128 0.68014 0.0
C2437 C 0.74325 0.47584 0.68378 0.0
C2438 C 0.78272 0.45988 0.74206 0.0
C2439 C 0.75904 0.45075 0.65629 0.0
H2440 H 0.845 0.43641 0.69507 0.0
H2441 H 0.76181 0.36682 0.7099 0.0
H2442 H 0.82192 0.48472 0.67502 0.0
H2443 H 0.83454 0.48961 0.70404 0.0
H2444 H 0.85204 0.48073 0.682 0.0
H2445 H 0.72085 0.37052 0.70609 0.0
H2446 H 0.72861 0.40211 0.72177 0.0
H2447 H 0.72325 0.40076 0.69128 0.0
H2448 H 0.75181 0.48587 0.74167 0.0
H2449 H 0.7324 0.47922 0.66956 0.0
H2450 H 0.80498 0.46581 0.73833 0.0
H2451 H 0.77098 0.43693 0.74623 0.0
H2452 H 0.78246 0.47182 0.75749 0.0
H2453 H 0.78049 0.45434 0.65226 0.0
H2454 H 0.75287 0.46123 0.64291 0.0
H2455 H 0.74411 0.42758 0.65544 0.0
C2456 C 0.52038 0.27467 0.72906 0.0
C2457 C 0.51381 0.25564 0.71079 0.0
C2458 C 0.53512 0.30394 0.72531 0.0
C2459 C 0.54407 0.31445 0.70273 0.0
C2460 C 0.53624 0.29529 0.68399 0.0
C2461 C 0.5209 0.26594 0.68824 0.0
C2462 C 0.54244 0.32357 0.74574 0.0
C2463 C 0.54555 0.30572 0.65973 0.0
C2464 C 0.57115 0.39321 0.69801 0.0
C2465 C 0.5999 0.40438 0.70345 0.0
C2466 C 0.55286 0.36385 0.69612 0.0
C2467 C 0.56369 0.34531 0.69947 0.0
C2468 C 0.5931 0.3566 0.70311 0.0
C2469 C 0.61082 0.38599 0.70523 0.0
C2470 C 0.52163 0.35266 0.69233 0.0
C2471 C 0.60558 0.33755 0.70638 0.0
H2472 H 0.51466 0.26659 0.74649 0.0
H2473 H 0.51598 0.25112 0.67416 0.0
H2474 H 0.56565 0.33464 0.74877 0.0
H2475 H 0.53657 0.34 0.74228 0.0
H2476 H 0.53156 0.31206 0.76173 0.0
H2477 H 0.53449 0.28858 0.64683 0.0
H2478 H 0.54163 0.32334 0.6556 0.0
H2479 H 0.56868 0.31408 0.65815 0.0
H2480 H 0.56252 0.40728 0.69657 0.0
H2481 H 0.63309 0.39449 0.70908 0.0
H2482 H 0.51009 0.34388 0.70875 0.0
H2483 H 0.51295 0.33522 0.67953 0.0
H2484 H 0.5173 0.3695 0.68636 0.0
H2485 H 0.59876 0.32666 0.72327 0.0
H2486 H 0.62912 0.34956 0.70591 0.0
H2487 H 0.5978 0.32097 0.69285 0.0
C2488 C 0.60198 0.17622 0.70293 0.0
C2489 C 0.59042 0.19353 0.7081 0.0
C2490 C 0.63139 0.1878 0.7004 0.0
C2491 C 0.64956 0.2174 0.70281 0.0
C2492 C 0.6378 0.23513 0.70639 0.0
C2493 C 0.60842 0.22298 0.70917 0.0
C2494 C 0.64307 0.16816 0.69674 0.0
C2495 C 0.65639 0.26686 0.70872 0.0
C2496 C 0.72206 0.24789 0.7298 0.0
C2497 C 0.73999 0.25996 0.71081 0.0
C2498 C 0.69262 0.23246 0.72715 0.0
C2499 C 0.68074 0.22952 0.70495 0.0
C2500 C 0.69881 0.24046 0.6855 0.0
C2501 C 0.72841 0.25545 0.68865 0.0
C2502 C 0.67424 0.22069 0.74834 0.0
C2503 C 0.68692 0.23785 0.66159 0.0
H2504 H 0.58823 0.15344 0.70206 0.0
H2505 H 0.59962 0.23654 0.71281 0.0
H2506 H 0.6597 0.17655 0.68323 0.0
H2507 H 0.65306 0.16663 0.71292 0.0
H2508 H 0.62628 0.14649 0.69176 0.0
H2509 H 0.6439 0.2779 0.70855 0.0
H2510 H 0.66828 0.27186 0.72518 0.0
H2511 H 0.67216 0.27542 0.69456 0.0
H2512 H 0.73115 0.25128 0.74693 0.0
H2513 H 0.74237 0.26501 0.67401 0.0
H2514 H 0.65803 0.19812 0.7457 0.0
H2515 H 0.66287 0.2325 0.75157 0.0
H2516 H 0.68679 0.22233 0.76393 0.0
H2517 H 0.66962 0.21587 0.65831 0.0
H2518 H 0.70343 0.2439 0.6481 0.0
H2519 H 0.67772 0.25192 0.66004 0.0
C2520 C 0.57358 0.18644 0.20788 0.0
C2521 C 0.60326 0.20226 0.20886 0.0
C2522 C 0.5574 0.19993 0.20656 0.0
C2523 C 0.57128 0.22989 0.20572 0.0
C2524 C 0.60126 0.24583 0.205 0.0
C2525 C 0.6169 0.23184 0.20686 0.0
C2526 C 0.52551 0.18219 0.20781 0.0
C2527 C 0.61689 0.27778 0.20363 0.0
C2528 C 0.52939 0.26731 0.19332 0.0
C2529 C 0.52672 0.27577 0.21552 0.0
C2530 C 0.54372 0.25213 0.18973 0.0
C2531 C 0.55483 0.24471 0.20887 0.0
C2532 C 0.5511 0.25232 0.23137 0.0
C2533 C 0.53744 0.26804 0.23437 0.0
C2534 C 0.54775 0.24482 0.16548 0.0
C2535 C 0.56196 0.24424 0.25233 0.0
H2536 H 0.56293 0.16357 0.20952 0.0
H2537 H 0.63985 0.24413 0.20734 0.0
H2538 H 0.51821 0.18518 0.22488 0.0
H2539 H 0.51551 0.18901 0.19456 0.0
H2540 H 0.51791 0.15926 0.20545 0.0
H2541 H 0.6398 0.28668 0.19992 0.0
H2542 H 0.60755 0.28497 0.19007 0.0
H2543 H 0.61481 0.28662 0.22026 0.0
H2544 H 0.52119 0.27341 0.17875 0.0
H2545 H 0.53503 0.27427 0.25159 0.0
H2546 H 0.53979 0.22175 0.16397 0.0
H2547 H 0.57069 0.2559 0.16127 0.0
H2548 H 0.53672 0.25093 0.15258 0.0
H2549 H 0.55382 0.22107 0.25247 0.0
H2550 H 0.55561 0.25014 0.26868 0.0
H2551 H 0.58542 0.25497 0.25176 0.0
C2552 C 0.82142 0.39463 0.19303 0.0
C2553 C 0.80352 0.40534 0.19874 0.0
C2554 C 0.8107 0.3653 0.19096 0.0
C2555 C 0.78142 0.34639 0.19447 0.0
C2556 C 0.76297 0.35728 0.19826 0.0
C2557 C 0.77427 0.38659 0.20048 0.0
C2558 C 0.83103 0.35455 0.18684 0.0
C2559 C 0.73153 0.33789 0.20174 0.0
C2560 C 0.74382 0.26679 0.18425 0.0
C2561 C 0.74077 0.25694 0.20694 0.0
C2562 C 0.75851 0.29607 0.17955 0.0
C2563 C 0.77056 0.3156 0.19798 0.0
C2564 C 0.76935 0.30549 0.22065 0.0
C2565 C 0.75429 0.27631 0.22485 0.0
C2566 C 0.75938 0.30604 0.15517 0.0
C2567 C 0.78232 0.32549 0.24078 0.0
H2568 H 0.84405 0.409 0.1916 0.0
H2569 H 0.76025 0.39475 0.2045 0.0
H2570 H 0.83464 0.34642 0.20327 0.0
H2571 H 0.8221 0.33676 0.17436 0.0
H2572 H 0.85183 0.37152 0.18032 0.0
H2573 H 0.71971 0.34961 0.20146 0.0
H2574 H 0.72276 0.3213 0.18821 0.0
H2575 H 0.72777 0.32701 0.21862 0.0
H2576 H 0.73323 0.25177 0.17042 0.0
H2577 H 0.75216 0.26861 0.24238 0.0
H2578 H 0.78074 0.32391 0.1509 0.0
H2579 H 0.74418 0.31386 0.15341 0.0
H2580 H 0.7536 0.28874 0.14248 0.0
H2581 H 0.80454 0.34179 0.23689 0.0
H2582 H 0.78209 0.31424 0.25682 0.0
H2583 H 0.77033 0.33668 0.24399 0.0
C2584 C 0.72353 0.45502 0.19237 0.0
C2585 C 0.74104 0.48354 0.19826 0.0
C2586 C 0.69408 0.44311 0.19111 0.0
C2587 C 0.68186 0.46005 0.19642 0.0
C2588 C 0.69965 0.48948 0.20044 0.0
C2589 C 0.7292 0.50098 0.20114 0.0
C2590 C 0.67599 0.41178 0.18632 0.0
C2591 C 0.68748 0.50823 0.20628 0.0
C2592 C 0.60174 0.42506 0.18999 0.0
C2593 C 0.59271 0.41327 0.21198 0.0
C2594 C 0.63079 0.44117 0.18468 0.0
C2595 C 0.6511 0.4459 0.20191 0.0
C2596 C 0.64198 0.43507 0.22439 0.0
C2597 C 0.61296 0.41871 0.22907 0.0
C2598 C 0.63973 0.45214 0.16049 0.0
C2599 C 0.66288 0.44 0.24342 0.0
H2600 H 0.73278 0.44159 0.19002 0.0
H2601 H 0.74278 0.52301 0.20588 0.0
H2602 H 0.66627 0.40044 0.20263 0.0
H2603 H 0.65852 0.40767 0.1743 0.0
H2604 H 0.68856 0.40276 0.17887 0.0
H2605 H 0.70354 0.53106 0.20453 0.0
H2606 H 0.66912 0.50341 0.19509 0.0
H2607 H 0.67983 0.50423 0.22435 0.0
H2608 H 0.58613 0.42091 0.17674 0.0
H2609 H 0.60611 0.41007 0.24621 0.0
H2610 H 0.64936 0.44064 0.15215 0.0
H2611 H 0.65608 0.47494 0.16075 0.0
H2612 H 0.62159 0.44933 0.14981 0.0
H2613 H 0.67491 0.42911 0.23918 0.0
H2614 H 0.65232 0.43202 0.26034 0.0
H2615 H 0.67841 0.46294 0.24508 0.0
C2616 C 0.57745 0.18315 0.96898 0.0
C2617 C 0.5831 0.17979 0.94601 0.0
C2618 C 0.56204 0.19681 0.97436 0.0
C2619 C 0.55189 0.20686 0.95628 0.0
C2620 C 0.55576 0.20144 0.9331 0.0
C2621 C 0.57151 0.18821 0.92828 0.0
C2622 C 0.55832 0.20216 -0.00075 0.0
C2623 C 0.54485 0.21126 0.91326 0.0
C2624 C 0.50014 0.23386 0.96038 0.0
C2625 C 0.51849 0.26295 0.95693 0.0
C2626 C 0.51082 0.2152 0.96229 0.0
C2627 C 0.54044 0.22606 0.96096 0.0
C2628 C 0.55905 0.25572 0.95986 0.0
C2629 C 0.54783 0.27378 0.95768 0.0
C2630 C 0.4903 0.18375 0.96356 0.0
C2631 C 0.5908 0.26828 0.95883 0.0
H2632 H 0.58648 0.17666 0.9827 0.0
H2633 H 0.57557 0.18523 0.9105 0.0
H2634 H 0.57331 0.22469 0.00347 0.0
H2635 H 0.53658 0.19827 0.00245 0.0
H2636 H 0.56253 0.18866 0.01107 0.0
H2637 H 0.54707 0.20279 0.89646 0.0
H2638 H 0.52219 0.20458 0.91588 0.0
H2639 H 0.55684 0.23475 0.91237 0.0
H2640 H 0.47743 0.22541 0.95984 0.0
H2641 H 0.56207 0.29634 0.95539 0.0
H2642 H 0.49808 0.17326 0.97551 0.0
H2643 H 0.48826 0.17428 0.94625 0.0
H2644 H 0.46893 0.17911 0.96925 0.0
H2645 H 0.59794 0.2585 0.97203 0.0
H2646 H 0.60229 0.2916 0.96147 0.0
H2647 H 0.5968 0.26384 0.94171 0.0
C2648 C 0.7109 0.28037 0.94506 0.0
C2649 C 0.72295 0.26288 0.94551 0.0
C2650 C 0.7279 0.30995 0.94656 0.0
C2651 C 0.75773 0.32238 0.94809 0.0
C2652 C 0.76988 0.30477 0.94982 0.0
C2653 C 0.75231 0.27521 0.94871 0.0
C2654 C 0.71404 0.32795 0.94512 0.0
C2655 C 0.80157 0.31714 0.95114 0.0
C2656 C 0.79767 0.39368 0.91849 0.0
C2657 C 0.80651 0.41252 0.93712 0.0
C2658 C 0.78289 0.36433 0.92197 0.0
C2659 C 0.77613 0.35348 0.94467 0.0
C2660 C 0.78573 0.3724 0.96364 0.0
C2661 C 0.80115 0.40183 0.95963 0.0
C2662 C 0.77371 0.34497 0.90125 0.0
C2663 C 0.77861 0.36161 0.98805 0.0
H2664 H 0.6882 0.27098 0.94286 0.0
H2665 H 0.76182 0.26186 0.94901 0.0
H2666 H 0.72266 0.34466 0.95855 0.0
H2667 H 0.71874 0.3387 0.92814 0.0
H2668 H 0.69066 0.31517 0.94717 0.0
H2669 H 0.80742 0.30087 0.95549 0.0
H2670 H 0.81118 0.32663 0.93425 0.0
H2671 H 0.81097 0.3343 0.96416 0.0
H2672 H 0.80207 0.40199 0.90107 0.0
H2673 H 0.80782 0.41644 0.97402 0.0
H2674 H 0.75026 0.33338 0.89994 0.0
H2675 H 0.78046 0.32894 0.90314 0.0
H2676 H 0.78262 0.35675 0.88492 0.0
H2677 H 0.75542 0.35168 0.99079 0.0
H2678 H 0.78963 0.37883 0.0009 0.0
H2679 H 0.78437 0.34505 0.9912 0.0
C2680 C 0.72612 0.48239 0.96052 0.0
C2681 C 0.73539 0.47822 0.93909 0.0
C2682 C 0.69703 0.46959 0.9656 0.0
C2683 C 0.67691 0.45278 0.94867 0.0
C2684 C 0.68624 0.44924 0.92679 0.0
C2685 C 0.71531 0.46174 0.92238 0.0
C2686 C 0.68785 0.47343 0.98921 0.0
C2687 C 0.6655 0.43188 0.90808 0.0
C2688 C 0.60324 0.39198 0.95969 0.0
C2689 C 0.58662 0.40354 0.95251 0.0
C2690 C 0.63281 0.40866 0.96073 0.0
C2691 C 0.64604 0.4374 0.95383 0.0
C2692 C 0.6292 0.44971 0.94831 0.0
C2693 C 0.59953 0.4326 0.94792 0.0
C2694 C 0.64989 0.39481 0.96721 0.0
C2695 C 0.64247 0.48018 0.94062 0.0
H2696 H 0.74159 0.49509 0.97351 0.0
H2697 H 0.72235 0.4588 0.90567 0.0
H2698 H 0.67274 0.48138 0.98775 0.0
H2699 H 0.67662 0.45266 -0.00186 0.0
H2700 H 0.70606 0.48839 1e-05 0.0
H2701 H 0.67623 0.43274 0.89158 0.0
H2702 H 0.65296 0.40942 0.9136 0.0
H2703 H 0.65038 0.43957 0.90498 0.0
H2704 H 0.59315 0.36946 0.96332 0.0
H2705 H 0.58664 0.44144 0.94215 0.0
H2706 H 0.66753 0.40867 0.97892 0.0
H2707 H 0.65936 0.39141 0.95147 0.0
H2708 H 0.63665 0.37397 0.97572 0.0
H2709 H 0.66071 0.4942 0.95174 0.0
H2710 H 0.62699 0.48779 0.9408 0.0
H2711 H 0.65059 0.4821 0.92279 0.0
C2712 C 0.47795 0.74208 0.79924 0.0
C2713 C 0.48072 0.73514 0.7765 0.0
C2714 C 0.46393 0.75729 0.80406 0.0
C2715 C 0.45296 0.76603 0.78566 0.0
C2716 C 0.45737 0.76053 0.76265 0.0
C2717 C 0.47095 0.74497 0.75839 0.0
C2718 C 0.45951 0.76263 0.8288 0.0
C2719 C 0.44654 0.76991 0.74247 0.0
C2720 C 0.3872 0.77233 0.78818 0.0
C2721 C 0.39867 0.80173 0.7865 0.0
C2722 C 0.40476 0.76049 0.79013 0.0
C2723 C 0.43456 0.77849 0.79003 0.0
C2724 C 0.4462 0.80827 0.79022 0.0
C2725 C 0.42806 0.81958 0.78859 0.0
C2726 C 0.39142 0.72863 0.79035 0.0
C2727 C 0.47783 0.82816 0.79007 0.0
H2728 H 0.48545 0.73441 0.81326 0.0
H2729 H 0.47345 0.73996 0.74077 0.0
H2730 H 0.46448 0.78485 0.83118 0.0
H2731 H 0.43692 0.74869 0.83349 0.0
H2732 H 0.47274 0.75829 0.84082 0.0
H2733 H 0.45394 0.76619 0.72569 0.0
H2734 H 0.42302 0.75812 0.74251 0.0
H2735 H 0.45357 0.7928 0.74389 0.0
H2736 H 0.36445 0.75846 0.78693 0.0
H2737 H 0.43704 0.84233 0.78732 0.0
H2738 H 0.40158 0.7219 0.80354 0.0
H2739 H 0.39466 0.72136 0.77335 0.0
H2740 H 0.36829 0.71786 0.79385 0.0
H2741 H 0.48854 0.82101 0.80237 0.0
H2742 H 0.4834 0.85019 0.79448 0.0
H2743 H 0.48625 0.82829 0.77264 0.0
C2744 C 0.18095 0.60421 0.804 0.0
C2745 C 0.18831 0.59635 0.78322 0.0
C2746 C 0.19226 0.63295 0.80981 0.0
C2747 C 0.21096 0.65413 0.79431 0.0
C2748 C 0.21802 0.64623 0.77317 0.0
C2749 C 0.20681 0.61752 0.76799 0.0
C2750 C 0.18459 0.64065 0.8326 0.0
C2751 C 0.23766 0.66811 0.75596 0.0
C2752 C 0.22935 0.73038 0.78976 0.0
C2753 C 0.25805 0.74382 0.79572 0.0
C2754 C 0.2123 0.70082 0.79167 0.0
C2755 C 0.22438 0.68475 0.80002 0.0
C2756 C 0.25229 0.69884 0.80894 0.0
C2757 C 0.26896 0.72826 0.80638 0.0
C2758 C 0.18267 0.68666 0.78196 0.0
C2759 C 0.26582 0.68265 0.81847 0.0
H2760 H 0.16667 0.58793 0.81585 0.0
H2761 H 0.21232 0.61168 0.75177 0.0
H2762 H 0.20385 0.65201 0.84343 0.0
H2763 H 0.17618 0.65524 0.8299 0.0
H2764 H 0.16857 0.62171 0.84217 0.0
H2765 H 0.23995 0.65836 0.73989 0.0
H2766 H 0.22961 0.68257 0.75134 0.0
H2767 H 0.25898 0.68118 0.76368 0.0
H2768 H 0.22104 0.74247 0.78134 0.0
H2769 H 0.29121 0.73882 0.81102 0.0
H2770 H 0.16796 0.66806 0.79248 0.0
H2771 H 0.1829 0.679 0.7643 0.0
H2772 H 0.17438 0.70158 0.78098 0.0
H2773 H 0.25058 0.66454 0.82917 0.0
H2774 H 0.28483 0.69645 0.829 0.0
H2775 H 0.27249 0.674 0.80399 0.0
C2776 C 0.38315 0.5958 0.75909 0.0
C2777 C 0.40235 0.59764 0.77599 0.0
C2778 C 0.35386 0.57912 0.76243 0.0
C2779 C 0.34337 0.56435 0.78347 0.0
C2780 C 0.3626 0.56618 0.80071 0.0
C2781 C 0.39194 0.58256 0.79665 0.0
C2782 C 0.33414 0.57738 0.74339 0.0
C2783 C 0.35216 0.55124 0.82353 0.0
C2784 C 0.26849 0.54913 0.79244 0.0
C2785 C 0.25281 0.52152 0.78379 0.0
C2786 C 0.298 0.5624 0.79466 0.0
C2787 C 0.3122 0.54799 0.78732 0.0
C2788 C 0.29622 0.51934 0.78009 0.0
C2789 C 0.26654 0.5063 0.77865 0.0
C2790 C 0.31412 0.59269 0.80299 0.0
C2791 C 0.31052 0.50337 0.77175 0.0
H2792 H 0.39104 0.60705 0.74294 0.0
H2793 H 0.40674 0.58397 0.80978 0.0
H2794 H 0.31942 0.55491 0.73882 0.0
H2795 H 0.3211 0.58657 0.74934 0.0
H2796 H 0.34576 0.58886 0.72762 0.0
H2797 H 0.36982 0.55429 0.83495 0.0
H2798 H 0.33963 0.55934 0.83247 0.0
H2799 H 0.33788 0.52821 0.82075 0.0
H2800 H 0.25774 0.56083 0.79646 0.0
H2801 H 0.25437 0.48504 0.7717 0.0
H2802 H 0.32423 0.60704 0.7881 0.0
H2803 H 0.33121 0.59578 0.81506 0.0
H2804 H 0.30003 0.59906 0.81175 0.0
H2805 H 0.31998 0.51151 0.75454 0.0
H2806 H 0.29537 0.48027 0.77024 0.0
H2807 H 0.32794 0.50667 0.7835 0.0
C2808 C 0.39351 0.786 0.03189 0.0
C2809 C 0.40567 0.81509 0.0361 0.0
C2810 C 0.4104 0.77354 0.02912 0.0
C2811 C 0.4402 0.79051 0.03119 0.0
C2812 C 0.4527 0.82029 0.03368 0.0
C2813 C 0.43521 0.83232 0.03593 0.0
C2814 C 0.39615 0.74181 0.02605 0.0
C2815 C 0.48434 0.83909 0.0361 0.0
C2816 C 0.47097 0.75037 0.061 0.0
C2817 C 0.48221 0.74254 0.04256 0.0
C2818 C 0.45877 0.76736 0.05758 0.0
C2819 C 0.4572 0.77638 0.03503 0.0
C2820 C 0.4694 0.7694 0.01639 0.0
C2821 C 0.48208 0.75273 0.02042 0.0
C2822 C 0.44655 0.77472 0.07807 0.0
C2823 C 0.4679 0.77842 0.99211 0.0
H2824 H 0.37061 0.77274 0.03179 0.0
H2825 H 0.44458 0.85482 0.03927 0.0
H2826 H 0.40717 0.73633 0.01269 0.0
H2827 H 0.39723 0.73192 0.04245 0.0
H2828 H 0.37351 0.73242 0.02113 0.0
H2829 H 0.49104 0.86179 0.03349 0.0
H2830 H 0.49083 0.83659 0.05366 0.0
H2831 H 0.49577 0.83297 0.02364 0.0
H2832 H 0.47155 0.74299 0.07823 0.0
H2833 H 0.49085 0.74675 0.00616 0.0
H2834 H 0.42313 0.76388 0.07651 0.0
H2835 H 0.45454 0.79785 0.07859 0.0
H2836 H 0.45187 0.7683 0.09465 0.0
H2837 H 0.44567 0.76644 0.98594 0.0
H2838 H 0.48142 0.77449 0.98008 0.0
H2839 H 0.4745 0.80125 0.99157 0.0
C2840 C 0.26931 0.71736 0.0553 0.0
C2841 C 0.268 0.73683 0.04024 0.0
C2842 C 0.25167 0.68814 0.05245 0.0
C2843 C 0.23242 0.67787 0.03378 0.0
C2844 C 0.23131 0.69725 0.01814 0.0
C2845 C 0.24895 0.72658 0.02168 0.0
C2846 C 0.25338 0.66827 0.06972 0.0
C2847 C 0.21144 0.68699 -0.00221 0.0
C2848 C 0.20991 0.60108 0.02349 0.0
C2849 C 0.18495 0.58748 0.03645 0.0
C2850 C 0.22416 0.63055 0.02035 0.0
C2851 C 0.2136 0.64672 0.03112 0.0
C2852 C 0.18731 0.63274 0.04295 0.0
C2853 C 0.17314 0.60312 0.04532 0.0
C2854 C 0.25177 0.64451 0.00721 0.0
C2855 C 0.17556 0.64916 0.05505 0.0
H2856 H 0.28374 0.72495 0.06982 0.0
H2857 H 0.24784 0.74145 0.00993 0.0
H2858 H 0.23234 0.65476 0.07779 0.0
H2859 H 0.25941 0.654 0.0609 0.0
H2860 H 0.26906 0.67976 0.08356 0.0
H2861 H 0.21401 0.7047 0.98665 0.0
H2862 H 0.21521 0.67219 0.98727 0.0
H2863 H 0.18918 0.67507 0.00388 0.0
H2864 H 0.21902 0.58881 0.01678 0.0
H2865 H 0.154 0.59246 0.05562 0.0
H2866 H 0.2697 0.65413 0.01955 0.0
H2867 H 0.25327 0.66175 -0.00394 0.0
H2868 H 0.25421 0.62908 -0.00364 0.0
H2869 H 0.18845 0.65944 0.07063 0.0
H2870 H 0.15319 0.63528 0.06047 0.0
H2871 H 0.1768 0.66619 0.0438 0.0
C2872 C 0.28203 0.53963 0.06299 0.0
C2873 C 0.26376 0.52797 0.04413 0.0
C2874 C 0.31141 0.55243 0.06035 0.0
C2875 C 0.32296 0.5543 0.03814 0.0
C2876 C 0.30462 0.54217 0.01901 0.0
C2877 C 0.27509 0.52875 0.02229 0.0
C2878 C 0.3301 0.56449 0.08133 0.0
C2879 C 0.31621 0.54422 -0.00495 0.0
C2880 C 0.3974 0.61668 0.0361 0.0
C2881 C 0.41354 0.60361 0.04018 0.0
C2882 C 0.36797 0.60059 0.03326 0.0
C2883 C 0.35427 0.57071 0.03518 0.0
C2884 C 0.37068 0.55731 0.03788 0.0
C2885 C 0.40028 0.57399 0.0401 0.0
C2886 C 0.35138 0.61572 0.0299 0.0
C2887 C 0.35687 0.52557 0.04038 0.0
H2888 H 0.27327 0.5386 0.07998 0.0
H2889 H 0.26094 0.5197 0.00771 0.0
H2890 H 0.34506 0.55631 0.08251 0.0
H2891 H 0.34292 0.5879 0.07985 0.0
H2892 H 0.31767 0.5592 0.09756 0.0
H2893 H 0.29921 0.53197 0.9823 0.0
H2894 H 0.3279 0.56675 0.98957 0.0
H2895 H 0.3315 0.53641 -0.00516 0.0
H2896 H 0.40775 0.63963 0.03592 0.0
H2897 H 0.41276 0.5639 0.04337 0.0
H2898 H 0.34016 0.61481 0.04611 0.0
H2899 H 0.33513 0.60523 0.01628 0.0
H2900 H 0.3653 0.63834 0.02517 0.0
H2901 H 0.34676 0.51922 0.05761 0.0
H2902 H 0.37244 0.51817 0.03871 0.0
H2903 H 0.33998 0.5146 0.02733 0.0
C2904 C 0.25071 0.51574 0.5237 0.0
C2905 C 0.26417 0.52006 0.54513 0.0
C2906 C 0.23489 0.52897 0.51835 0.0
C2907 C 0.23204 0.54637 0.53501 0.0
C2908 C 0.24498 0.55012 0.55687 0.0
C2909 C 0.26109 0.53718 0.56155 0.0
C2910 C 0.22181 0.5249 0.49476 0.0
C2911 C 0.24213 0.56813 0.5753 0.0
C2912 C 0.22045 0.60783 0.52312 0.0
C2913 C 0.19237 0.59687 0.53038 0.0
C2914 C 0.23286 0.5907 0.52233 0.0
C2915 C 0.21697 0.56212 0.52959 0.0
C2916 C 0.18791 0.5504 0.53524 0.0
C2917 C 0.17582 0.56796 0.53538 0.0
C2918 C 0.26371 0.60394 0.51573 0.0
C2919 C 0.17033 0.52014 0.54332 0.0
H2920 H 0.25306 0.50253 0.51095 0.0
H2921 H 0.27107 0.54026 0.57827 0.0
H2922 H 0.1988 0.51723 0.49626 0.0
H2923 H 0.23151 0.54553 0.4856 0.0
H2924 H 0.22479 0.50962 0.48415 0.0
H2925 H 0.252 0.56742 0.59184 0.0
H2926 H 0.25237 0.5905 0.56947 0.0
H2927 H 0.21943 0.5609 0.57847 0.0
H2928 H 0.23319 0.63026 0.51926 0.0
H2929 H 0.1542 0.55964 0.54125 0.0
H2930 H 0.2671 0.58964 0.50423 0.0
H2931 H 0.27662 0.60743 0.53145 0.0
H2932 H 0.27158 0.62467 0.50694 0.0
H2933 H 0.17409 0.50567 0.53236 0.0
H2934 H 0.14731 0.51294 0.54325 0.0
H2935 H 0.1766 0.5184 0.56116 0.0
C2936 C 0.4429 0.71325 0.53223 0.0
C2937 C 0.47232 0.73029 0.53476 0.0
C2938 C 0.43004 0.68365 0.53106 0.0
C2939 C 0.44697 0.67074 0.53289 0.0
C2940 C 0.47685 0.68791 0.53379 0.0
C2941 C 0.48921 0.71754 0.53454 0.0
C2942 C 0.39814 0.66616 0.52962 0.0
C2943 C 0.49565 0.67502 0.53595 0.0
C2944 C 0.40999 0.60113 0.56511 0.0
C2945 C 0.40152 0.58125 0.54724 0.0
C2946 C 0.42592 0.63022 0.56066 0.0
C2947 C 0.43315 0.6398 0.53766 0.0
C2948 C 0.42551 0.61983 0.51956 0.0
C2949 C 0.40995 0.59065 0.52461 0.0
C2950 C 0.43414 0.65071 0.58057 0.0
C2951 C 0.43262 0.62926 0.49484 0.0
H2952 H 0.42976 0.72301 0.53207 0.0
H2953 H 0.51197 0.73057 0.53652 0.0
H2954 H 0.39163 0.64889 0.51681 0.0
H2955 H 0.3895 0.65615 0.54658 0.0
H2956 H 0.38846 0.67919 0.52484 0.0
H2957 H 0.51826 0.69079 0.5326 0.0
H2958 H 0.49388 0.66662 0.55365 0.0
H2959 H 0.48889 0.65701 0.52385 0.0
H2960 H 0.40383 0.59387 0.58268 0.0
H2961 H 0.40331 0.57527 0.51077 0.0
H2962 H 0.42296 0.66297 0.57911 0.0
H2963 H 0.45722 0.6661 0.58015 0.0
H2964 H 0.42881 0.63978 0.59752 0.0
H2965 H 0.42008 0.63912 0.48916 0.0
H2966 H 0.42794 0.61132 0.48312 0.0
H2967 H 0.45533 0.64555 0.49313 0.0
C2968 C 0.40661 0.81119 0.50932 0.0
C2969 C 0.41436 0.81266 0.53251 0.0
C2970 C 0.3779 0.79893 0.50307 0.0
C2971 C 0.35685 0.7883 0.52049 0.0
C2972 C 0.36494 0.79171 0.54396 0.0
C2973 C 0.39355 0.80368 0.54964 0.0
C2974 C 0.3701 0.79582 0.47789 0.0
C2975 C 0.34329 0.78118 0.56317 0.0
C2976 C 0.27932 0.76544 0.51721 0.0
C2977 C 0.26739 0.73609 0.52004 0.0
C2978 C 0.30873 0.78298 0.51464 0.0
C2979 C 0.32631 0.77071 0.51481 0.0
C2980 C 0.31393 0.74086 0.51479 0.0
C2981 C 0.28459 0.7239 0.51753 0.0
C2982 C 0.32111 0.81469 0.5143 0.0
C2983 C 0.33185 0.72685 0.51449 0.0
H2984 H 0.42277 0.8182 0.49608 0.0
H2985 H 0.39964 0.80534 0.5676 0.0
H2986 H 0.36312 0.77382 0.47233 0.0
H2987 H 0.35229 0.79978 0.4748 0.0
H2988 H 0.38839 0.81051 0.46702 0.0
H2989 H 0.35327 0.78762 0.58045 0.0
H2990 H 0.3285 0.78943 0.56098 0.0
H2991 H 0.33055 0.7577 0.56264 0.0
H2992 H 0.26606 0.77496 0.51891 0.0
H2993 H 0.27532 0.70113 0.51918 0.0
H2994 H 0.33959 0.82496 0.50252 0.0
H2995 H 0.32859 0.82324 0.53185 0.0
H2996 H 0.30516 0.82057 0.50894 0.0
H2997 H 0.34901 0.73697 0.50152 0.0
H2998 H 0.31906 0.70383 0.51065 0.0
H2999 H 0.34193 0.72942 0.5316 0.0
C3000 C 0.27378 0.5482 0.29416 0.0
C3001 C 0.26283 0.51977 0.28797 0.0
C3002 C 0.25652 0.56047 0.29436 0.0
C3003 C 0.22779 0.54405 0.28761 0.0
C3004 C 0.2161 0.5147 0.28316 0.0
C3005 C 0.2338 0.5028 0.28361 0.0
C3006 C 0.26972 0.59166 0.29973 0.0
C3007 C 0.18567 0.49652 0.27568 0.0
C3008 C 0.18161 0.57806 0.29216 0.0
C3009 C 0.18556 0.59054 0.27032 0.0
C3010 C 0.19477 0.56235 0.29805 0.0
C3011 C 0.21175 0.55862 0.28153 0.0
C3012 C 0.21494 0.57037 0.25921 0.0
C3013 C 0.20208 0.58642 0.25398 0.0
C3014 C 0.19126 0.55053 0.32209 0.0
C3015 C 0.23245 0.56647 0.24092 0.0
H3016 H 0.29629 0.56128 0.29754 0.0
H3017 H 0.22544 0.48088 0.27854 0.0
H3018 H 0.27275 0.60361 0.2835 0.0
H3019 H 0.25562 0.5956 0.31102 0.0
H3020 H 0.29067 0.60016 0.30826 0.0
H3021 H 0.17856 0.47356 0.27685 0.0
H3022 H 0.17138 0.50095 0.28626 0.0
H3023 H 0.18353 0.50153 0.25753 0.0
H3024 H 0.1689 0.58128 0.30487 0.0
H3025 H 0.20487 0.59569 0.23698 0.0
H3026 H 0.21202 0.56111 0.33107 0.0
H3027 H 0.18407 0.52757 0.32145 0.0
H3028 H 0.17586 0.55364 0.33242 0.0
H3029 H 0.25499 0.57717 0.24632 0.0
H3030 H 0.23116 0.57528 0.224 0.0
H3031 H 0.22525 0.54363 0.2387 0.0
C3032 C 0.48472 0.73376 0.29997 0.0
C3033 C 0.48772 0.7424 0.27691 0.0
C3034 C 0.47106 0.70477 0.30564 0.0
C3035 C 0.46065 0.6843 0.28778 0.0
C3036 C 0.46572 0.6932 0.2645 0.0
C3037 C 0.47896 0.72212 0.25938 0.0
C3038 C 0.4661 0.6961 0.33064 0.0
C3039 C 0.4555 0.67216 0.24487 0.0
C3040 C 0.43355 0.60561 0.29276 0.0
C3041 C 0.40439 0.59483 0.28972 0.0
C3042 C 0.4523 0.63497 0.29421 0.0
C3043 C 0.44147 0.65375 0.29282 0.0
C3044 C 0.41181 0.64274 0.29209 0.0
C3045 C 0.39364 0.61342 0.29039 0.0
C3046 C 0.48375 0.64585 0.2951 0.0
C3047 C 0.39931 0.66199 0.291 0.0
H3048 H 0.49145 0.7495 0.31353 0.0
H3049 H 0.48166 0.72888 0.24153 0.0
H3050 H 0.44366 0.68868 0.33508 0.0
H3051 H 0.47 0.67828 0.33392 0.0
H3052 H 0.47982 0.71399 0.34223 0.0
H3053 H 0.46371 0.68256 0.22794 0.0
H3054 H 0.46216 0.65617 0.24754 0.0
H3055 H 0.432 0.6607 0.24426 0.0
H3056 H 0.44197 0.59131 0.2923 0.0
H3057 H 0.37105 0.60512 0.28845 0.0
H3058 H 0.4945 0.66432 0.30682 0.0
H3059 H 0.4929 0.65297 0.27765 0.0
H3060 H 0.48846 0.62918 0.30085 0.0
H3061 H 0.40933 0.67912 0.304 0.0
H3062 H 0.37603 0.65026 0.29391 0.0
H3063 H 0.40349 0.67213 0.27377 0.0
C3064 C 0.27211 0.7364 0.24897 0.0
C3065 C 0.25322 0.72731 0.2676 0.0
C3066 C 0.30148 0.75153 0.25242 0.0
C3067 C 0.31238 0.75715 0.27514 0.0
C3068 C 0.29341 0.74854 0.29408 0.0
C3069 C 0.26395 0.73397 0.29007 0.0
C3070 C 0.32085 0.7609 0.23169 0.0
C3071 C 0.3042 0.75372 0.31853 0.0
C3072 C 0.38652 0.76748 0.27712 0.0
C3073 C 0.40333 0.79711 0.27678 0.0
C3074 C 0.35685 0.75418 0.27834 0.0
C3075 C 0.3436 0.77089 0.2787 0.0
C3076 C 0.36052 0.8008 0.27954 0.0
C3077 C 0.3902 0.81356 0.27881 0.0
C3078 C 0.33965 0.72221 0.27791 0.0
C3079 C 0.3473 0.81942 0.27951 0.0
H3080 H 0.26384 0.73152 0.23155 0.0
H3081 H 0.24935 0.72679 0.30449 0.0
H3082 H 0.33643 0.7839 0.2328 0.0
H3083 H 0.33298 0.74953 0.2313 0.0
H3084 H 0.30902 0.75675 0.21524 0.0
H3085 H 0.28686 0.74735 0.3313 0.0
H3086 H 0.31512 0.74153 0.32199 0.0
H3087 H 0.31998 0.77645 0.3211 0.0
H3088 H 0.39655 0.75465 0.27578 0.0
H3089 H 0.40304 0.83647 0.27841 0.0
H3090 H 0.3291 0.71506 0.26093 0.0
H3091 H 0.3228 0.71435 0.29124 0.0
H3092 H 0.35298 0.71236 0.28083 0.0
H3093 H 0.33765 0.81818 0.26241 0.0
H3094 H 0.36309 0.84195 0.28308 0.0
H3095 H 0.33012 0.81199 0.2925 0.0
C3096 C 0.97843 0.17021 0.29834 0.0
C3097 C 0.99789 0.19422 0.31066 0.0
C3098 C 0.97887 0.16994 0.27426 0.0
C3099 C 0.99878 0.19457 0.26232 0.0
C3100 C 0.01783 0.21923 0.27467 0.0
C3101 C 0.01743 0.21863 0.29878 0.0
C3102 C 0.95872 0.14305 0.26163 0.0
C3103 C 0.03884 0.24607 0.26241 0.0
C3104 C 0.02029 0.18589 0.20231 0.0
C3105 C 0.00253 0.19164 0.18874 0.0
C3106 C 0.01916 0.18662 0.22636 0.0
C3107 C 0.00039 0.19407 0.23693 0.0
C3108 C 0.98278 0.20043 0.22328 0.0
C3109 C 0.98377 0.19873 0.19927 0.0
C3110 C 0.03771 0.179 0.24044 0.0
C3111 C 0.96304 0.20912 0.23404 0.0
H3112 H 0.96351 0.15122 0.30756 0.0
H3113 H 0.03235 0.23725 0.30837 0.0
H3114 H 0.94568 0.14719 0.24929 0.0
H3115 H 0.97093 0.13549 0.2515 0.0
H3116 H 0.94432 0.12586 0.27352 0.0
H3117 H 0.05072 0.26397 0.27452 0.0
H3118 H 0.05427 0.24238 0.25275 0.0
H3119 H 0.02773 0.25228 0.24969 0.0
H3120 H 0.03464 0.18022 0.1941 0.0
H3121 H 0.97026 0.20345 0.18869 0.0
H3122 H 0.02436 0.16088 0.25195 0.0
H3123 H 0.05206 0.19709 0.25156 0.0
H3124 H 0.05076 0.1732 0.2295 0.0
H3125 H 0.94715 0.19171 0.24496 0.0
H3126 H 0.95166 0.21453 0.22093 0.0
H3127 H 0.97516 0.22776 0.24539 0.0
C3128 C 0.84623 0.82655 0.29523 0.0
C3129 C 0.82116 0.82043 0.30671 0.0
C3130 C 0.8476 0.82736 0.27111 0.0
C3131 C 0.8231 0.82116 0.25828 0.0
C3132 C 0.79772 0.81492 0.26981 0.0
C3133 C 0.79717 0.815 0.29393 0.0
C3134 C 0.87522 0.83486 0.25938 0.0
C3135 C 0.77101 0.80767 0.25666 0.0
C3136 C 0.82783 0.84447 0.19624 0.0
C3137 C 0.82132 0.81954 0.18437 0.0
C3138 C 0.82953 0.84561 0.22032 0.0
C3139 C 0.82382 0.82099 0.23277 0.0
C3140 C 0.81762 0.79586 0.22085 0.0
C3141 C 0.81682 0.79555 0.19671 0.0
C3142 C 0.83696 0.873 0.23243 0.0
C3143 C 0.81087 0.76904 0.23361 0.0
H3144 H 0.86487 0.83099 0.30513 0.0
H3145 H 0.77771 0.81003 0.30281 0.0
H3146 H 0.87253 0.81683 0.24866 0.0
H3147 H 0.88161 0.85317 0.24767 0.0
H3148 H 0.89261 0.84024 0.27189 0.0
H3149 H 0.75291 0.80281 0.26826 0.0
H3150 H 0.77471 0.82558 0.24532 0.0
H3151 H 0.76506 0.78905 0.24543 0.0
H3152 H 0.83163 0.86313 0.18665 0.0
H3153 H 0.81162 0.77623 0.18752 0.0
H3154 H 0.85483 0.8789 0.24452 0.0
H3155 H 0.81862 0.87021 0.24276 0.0
H3156 H 0.84294 0.89075 0.22016 0.0
H3157 H 0.8285 0.77301 0.24537 0.0
H3158 H 0.80707 0.75148 0.22176 0.0
H3159 H 0.79169 0.76215 0.24439 0.0
C3160 C 0.18963 0.9834 0.29352 0.0
C3161 C 0.18682 0.00444 0.30506 0.0
C3162 C 0.18947 0.98231 0.26941 0.0
C3163 C 0.18569 0.00231 0.25667 0.0
C3164 C 0.18224 0.02324 0.26825 0.0
C3165 C 0.18321 0.02428 0.29235 0.0
C3166 C 0.19381 0.96008 0.25759 0.0
C3167 C 0.1775 0.04449 0.25518 0.0
C3168 C 0.21105 0.01756 0.19483 0.0
C3169 C 0.18597 0.00015 0.18278 0.0
C3170 C 0.21132 0.0182 0.21895 0.0
C3171 C 0.18575 0.00159 0.23118 0.0
C3172 C 0.16028 0.98427 0.21907 0.0
C3173 C 0.16077 0.98348 0.19497 0.0
C3174 C 0.23899 0.03645 0.23135 0.0
C3175 C 0.1325 0.96679 0.23157 0.0
H3176 H 0.19264 0.96818 0.30335 0.0
H3177 H 0.18075 0.04039 0.30129 0.0
H3178 H 0.17534 0.94655 0.2465 0.0
H3179 H 0.21271 0.97045 0.24624 0.0
H3180 H 0.19676 0.94628 0.27004 0.0
H3181 H 0.17402 0.05864 0.26684 0.0
H3182 H 0.19608 0.05775 0.24409 0.0
H3183 H 0.15883 0.03329 0.2437 0.0
H3184 H 0.23059 0.03029 0.1854 0.0
H3185 H 0.1413 0.97021 0.18562 0.0
H3186 H 0.24348 0.02321 0.24321 0.0
H3187 H 0.23749 0.05256 0.24198 0.0
H3188 H 0.25711 0.04753 0.21927 0.0
H3189 H 0.13389 0.95132 0.24313 0.0
H3190 H 0.11448 0.95502 0.21954 0.0
H3191 H 0.12795 0.98072 0.24253 0.0
C3192 C 0.98114 0.7856 0.69517 0.0
C3193 C -0.00073 0.80989 0.68246 0.0
C3194 C 0.98045 0.78645 0.71928 0.0
C3195 C 0.99783 0.81236 0.73085 0.0
C3196 C 0.01581 0.83706 0.71808 0.0
C3197 C 0.01654 0.83545 0.69403 0.0
C3198 C 0.96141 0.75957 0.7324 0.0
C3199 C 0.0342 0.86518 0.72982 0.0
C3200 C 0.97736 0.81923 0.79194 0.0
C3201 C 0.99682 0.8152 0.80481 0.0
C3202 C 0.9777 0.81877 0.76779 0.0
C3203 C 0.99756 0.81353 0.75635 0.0
C3204 C 0.0172 0.80935 0.76926 0.0
C3205 C 0.01678 0.81054 0.79336 0.0
C3206 C 0.95686 0.82393 0.75454 0.0
C3207 C 0.03837 0.80324 0.75763 0.0
H3208 H 0.96787 0.76578 0.68626 0.0
H3209 H 0.03035 0.85436 0.68423 0.0
H3210 H 0.97425 0.75468 0.74439 0.0
H3211 H 0.94608 0.76245 0.74298 0.0
H3212 H 0.94941 0.74112 0.72081 0.0
H3213 H 0.04621 0.88259 0.71731 0.0
H3214 H 0.02091 0.87081 0.7406 0.0
H3215 H 0.04951 0.86364 0.74145 0.0
H3216 H 0.96203 0.82304 0.80074 0.0
H3217 H 0.0317 0.80715 0.80325 0.0
H3218 H 0.94291 0.80507 0.74395 0.0
H3219 H 0.96838 0.84202 0.74255 0.0
H3220 H 0.94337 0.82855 0.76604 0.0
H3221 H 0.02709 0.78391 0.74685 0.0
H3222 H 0.05191 0.80007 0.7702 0.0
H3223 H 0.05225 0.82098 0.74602 0.0
C3224 C 0.15213 0.16839 0.69771 0.0
C3225 C 0.17665 0.17358 0.68583 0.0
C3226 C 0.15133 0.16781 0.72182 0.0
C3227 C 0.17591 0.17333 0.73421 0.0
C3228 C 0.20058 0.17808 0.72228 0.0
C3229 C 0.20052 0.17777 0.69815 0.0
C3230 C 0.1244 0.16185 0.734 0.0
C3231 C 0.22734 0.18453 0.73498 0.0
C3232 C 0.18451 0.20311 0.79448 0.0
C3233 C 0.17886 0.17953 0.80792 0.0
C3234 C 0.18365 0.20137 0.77039 0.0
C3235 C 0.17622 0.17523 0.75965 0.0
C3236 C 0.16961 0.15112 0.77319 0.0
C3237 C 0.17139 0.15367 0.79721 0.0
C3238 C 0.19135 0.22765 0.75643 0.0
C3239 C 0.16083 0.12273 0.76231 0.0
H3240 H 0.13357 0.16488 0.68813 0.0
H3241 H 0.21955 0.182 0.68893 0.0
H3242 H 0.11819 0.14454 0.74673 0.0
H3243 H 0.12797 0.18094 0.74362 0.0
H3244 H 0.10654 0.15576 0.72183 0.0
H3245 H 0.24451 0.1872 0.72313 0.0
H3246 H 0.23499 0.20429 0.74514 0.0
H3247 H 0.22299 0.16728 0.74731 0.0
H3248 H 0.19048 0.22315 0.80279 0.0
H3249 H 0.16673 0.13533 0.80766 0.0
H3250 H 0.17343 0.22394 0.74511 0.0
H3251 H 0.20969 0.23264 0.74513 0.0
H3252 H 0.19685 0.24636 0.76747 0.0
H3253 H 0.14252 0.11654 0.75066 0.0
H3254 H 0.15493 0.10575 0.77534 0.0
H3255 H 0.17842 0.12417 0.75168 0.0
C3256 C 0.78657 0.97792 0.80157 0.0
C3257 C 0.81166 0.99709 0.81285 0.0
C3258 C 0.78555 0.97594 0.77753 0.0
C3259 C 0.8104 0.99308 0.76464 0.0
C3260 C 0.83593 0.01211 0.77597 0.0
C3261 C 0.83617 0.01414 0.8 0.0
C3262 C 0.75782 0.95585 0.76592 0.0
C3263 C 0.86296 0.03023 0.76271 0.0
C3264 C 0.81338 0.96948 0.704 0.0
C3265 C 0.80831 0.98815 0.69099 0.0
C3266 C 0.81443 0.97105 0.72806 0.0
C3267 C 0.8096 0.99131 0.73925 0.0
C3268 C 0.80401 0.00991 0.72621 0.0
C3269 C 0.80377 0.00833 0.70215 0.0
C3270 C 0.82104 0.95131 0.74149 0.0
C3271 C 0.79816 0.03135 0.73767 0.0
H3272 H 0.76755 0.9649 0.81153 0.0
H3273 H 0.85563 0.02878 0.80878 0.0
H3274 H 0.7517 0.96778 0.75397 0.0
H3275 H 0.76022 0.94013 0.75547 0.0
H3276 H 0.74037 0.94428 0.77848 0.0
H3277 H 0.88123 0.04319 0.77423 0.0
H3278 H 0.86811 0.01662 0.75189 0.0
H3279 H 0.86013 0.04467 0.75095 0.0
H3280 H 0.81718 0.95407 0.69532 0.0
H3281 H 0.79965 0.02262 0.69206 0.0
H3282 H 0.80328 0.93803 0.7533 0.0
H3283 H 0.84015 0.96379 0.75227 0.0
H3284 H 0.8248 0.93714 0.73009 0.0
H3285 H 0.77995 0.02047 0.74965 0.0
H3286 H 0.79338 0.04367 0.72501 0.0
H3287 H 0.81676 0.04636 0.74805 0.0
C3288 C 0.68393 0.54137 0.62351 0.0
C3289 C 0.66544 0.51672 0.63564 0.0
C3290 C 0.68417 0.54168 0.59937 0.0
C3291 C 0.66601 0.51651 0.58718 0.0
C3292 C 0.64779 0.49136 0.59937 0.0
C3293 C 0.64745 0.49187 0.62349 0.0
C3294 C 0.70344 0.56903 0.58692 0.0
C3295 C 0.62867 0.46396 0.58693 0.0
C3296 C 0.64668 0.52266 0.52561 0.0
C3297 C 0.66644 0.5186 0.51323 0.0
C3298 C 0.64637 0.52212 0.54974 0.0
C3299 C 0.66578 0.51663 0.56166 0.0
C3300 C 0.68527 0.51176 0.54921 0.0
C3301 C 0.68562 0.51318 0.5251 0.0
C3302 C 0.62569 0.52801 0.56248 0.0
C3303 C 0.70578 0.50512 0.56134 0.0
H3304 H 0.6977 0.56065 0.6329 0.0
H3305 H 0.63333 0.47271 0.63289 0.0
H3306 H 0.71827 0.56625 0.5756 0.0
H3307 H 0.69069 0.57492 0.57572 0.0
H3308 H 0.71601 0.58681 0.59897 0.0
H3309 H 0.61673 0.44601 0.59899 0.0
H3310 H 0.61327 0.46643 0.57611 0.0
H3311 H 0.64138 0.45856 0.57523 0.0
H3312 H 0.63199 0.52707 0.51642 0.0
H3313 H 0.70074 0.50978 0.51551 0.0
H3314 H 0.63742 0.54672 0.57384 0.0
H3315 H 0.6118 0.50977 0.57367 0.0
H3316 H 0.61215 0.53211 0.55062 0.0
H3317 H 0.72041 0.5233 0.57227 0.0
H3318 H 0.71858 0.50046 0.54908 0.0
H3319 H 0.69407 0.48659 0.57289 0.0
C3320 C 0.45598 0.1459 0.62697 0.0
C3321 C 0.48018 0.15085 0.63923 0.0
C3322 C 0.45611 0.14655 0.60285 0.0
C3323 C 0.48122 0.15291 0.59085 0.0
C3324 C 0.50593 0.15867 0.60316 0.0
C3325 C 0.50502 0.15726 0.62725 0.0
C3326 C 0.42924 0.13983 0.59021 0.0
C3327 C 0.53324 0.16612 0.5909 0.0
C3328 C 0.47551 0.12802 0.52923 0.0
C3329 C 0.48137 0.1525 0.51696 0.0
C3330 C 0.47516 0.12781 0.55334 0.0
C3331 C 0.48144 0.15287 0.56537 0.0
C3332 C 0.48783 0.17779 0.55308 0.0
C3333 C 0.48741 0.17721 0.52897 0.0
C3334 C 0.46775 0.10071 0.56594 0.0
C3335 C 0.49522 0.20504 0.5654 0.0
H3336 H 0.43671 0.14077 0.63622 0.0
H3337 H 0.52384 0.16138 0.63673 0.0
H3338 H 0.43304 0.15778 0.57887 0.0
H3339 H 0.4226 0.12105 0.57902 0.0
H3340 H 0.41156 0.13545 0.60215 0.0
H3341 H 0.55091 0.17138 0.60308 0.0
H3342 H 0.5302 0.1481 0.58 0.0
H3343 H 0.53944 0.1845 0.57931 0.0
H3344 H 0.47062 0.10883 0.51996 0.0
H3345 H 0.4922 0.19625 0.51949 0.0
H3346 H 0.44909 0.09449 0.57721 0.0
H3347 H 0.48559 0.10403 0.5772 0.0
H3348 H 0.46289 0.08293 0.55398 0.0
H3349 H 0.47723 0.20194 0.57638 0.0
H3350 H 0.50043 0.22275 0.55326 0.0
H3351 H 0.51364 0.21123 0.57694 0.0
C3352 C 0.84673 0.35096 0.52844 0.0
C3353 C 0.85413 0.33342 0.5163 0.0
C3354 C 0.8454 0.35016 0.55252 0.0
C3355 C 0.85261 0.3321 0.56462 0.0
C3356 C 0.86067 0.31476 0.5524 0.0
C3357 C 0.86084 0.31526 0.52828 0.0
C3358 C 0.83593 0.36833 0.565 0.0
C3359 C 0.86937 0.29593 0.5648 0.0
C3360 C 0.87517 0.35215 0.62654 0.0
C3361 C 0.85108 0.33208 0.63842 0.0
C3362 C 0.87621 0.35192 0.60247 0.0
C3363 C 0.85217 0.33174 0.5901 0.0
C3364 C 0.82764 0.31157 0.60206 0.0
C3365 C 0.82758 0.31167 0.6262 0.0
C3366 C 0.90302 0.37317 0.5903 0.0
C3367 C 0.80133 0.29032 0.58936 0.0
H3368 H 0.84118 0.3647 0.51904 0.0
H3369 H 0.86664 0.30179 0.51876 0.0
H3370 H 0.81752 0.35488 0.57621 0.0
H3371 H 0.85317 0.38374 0.57629 0.0
H3372 H 0.82986 0.38024 0.55295 0.0
H3373 H 0.87588 0.28442 0.55271 0.0
H3374 H 0.88728 0.30884 0.57661 0.0
H3375 H 0.85157 0.28018 0.57549 0.0
H3376 H 0.89343 0.36772 0.63613 0.0
H3377 H 0.80893 0.2963 0.63553 0.0
H3378 H 0.89877 0.38736 0.57942 0.0
H3379 H 0.91046 0.36202 0.57871 0.0
H3380 H 0.92032 0.3864 0.60254 0.0
H3381 H 0.79385 0.30156 0.57793 0.0
H3382 H 0.78386 0.27647 0.60126 0.0
H3383 H 0.80621 0.27676 0.57825 0.0
C3384 C 0.67866 0.17625 0.02764 0.0
C3385 C 0.65999 0.15154 0.01563 0.0
C3386 C 0.67856 0.17691 0.05175 0.0
C3387 C 0.65975 0.1521 0.06403 0.0
C3388 C 0.64074 0.12714 0.05201 0.0
C3389 C 0.6409 0.12724 0.02789 0.0
C3390 C 0.69872 0.20406 0.06407 0.0
C3391 C 0.62068 0.10018 0.06461 0.0
C3392 C 0.67947 0.14502 0.12514 0.0
C3393 C 0.66108 0.15078 0.13787 0.0
C3394 C 0.67917 0.14528 0.10103 0.0
C3395 C 0.66043 0.15202 0.08949 0.0
C3396 C 0.64217 0.15836 0.10224 0.0
C3397 C 0.64252 0.15739 0.12633 0.0
C3398 C 0.69862 0.13799 0.08791 0.0
C3399 C 0.62232 0.16617 0.09044 0.0
H3400 H 0.69324 0.19516 0.01819 0.0
H3401 H 0.62656 0.10806 0.01864 0.0
H3402 H 0.68681 0.21022 0.07599 0.0
H3403 H 0.71382 0.2008 0.07462 0.0
H3404 H 0.71101 0.22184 0.05193 0.0
H3405 H 0.6071 0.08266 0.05266 0.0
H3406 H 0.63292 0.09331 0.07545 0.0
H3407 H 0.60681 0.10398 0.0763 0.0
H3408 H 0.6937 0.13971 0.13402 0.0
H3409 H 0.62846 0.16212 0.13615 0.0
H3410 H 0.71295 0.15593 0.07664 0.0
H3411 H 0.68596 0.11944 0.07661 0.0
H3412 H 0.71173 0.13299 0.09952 0.0
H3413 H 0.63449 0.18468 0.07897 0.0
H3414 H 0.61015 0.1714 0.10292 0.0
H3415 H 0.60712 0.14835 0.07948 0.0
C3416 C 0.84178 0.49443 0.12237 0.0
C3417 C 0.84845 0.51939 0.13425 0.0
C3418 C 0.8399 0.49328 0.09831 0.0
C3419 C 0.84562 0.51792 0.0859 0.0
C3420 C 0.85243 0.54322 0.09781 0.0
C3421 C 0.85338 0.54353 0.12194 0.0
C3422 C 0.83185 0.46574 0.08619 0.0
C3423 C 0.85928 0.57006 0.08506 0.0
C3424 C 0.86928 0.52268 0.02395 0.0
C3425 C 0.84482 0.51747 0.01199 0.0
C3426 C 0.86988 0.5231 0.04806 0.0
C3427 C 0.84518 0.51741 0.0604 0.0
C3428 C 0.82018 0.5114 0.0484 0.0
C3429 C 0.82043 0.5119 0.02426 0.0
C3430 C 0.89708 0.53018 0.06032 0.0
C3431 C 0.79324 0.50448 0.06103 0.0
H3432 H 0.83762 0.47564 0.13194 0.0
H3433 H 0.85867 0.56286 0.13116 0.0
H3434 H 0.81328 0.45965 0.07486 0.0
H3435 H 0.84955 0.46839 0.07504 0.0
H3436 H 0.82661 0.44815 0.09846 0.0
H3437 H 0.86432 0.58797 0.09692 0.0
H3438 H 0.87768 0.57624 0.07349 0.0
H3439 H 0.84112 0.56645 0.07408 0.0
H3440 H 0.88823 0.52728 0.01444 0.0
H3441 H 0.80145 0.50769 0.01497 0.0
H3442 H 0.89367 0.51239 0.0717 0.0
H3443 H 0.90384 0.54906 0.07143 0.0
H3444 H 0.91454 0.53456 0.04814 0.0
H3445 H 0.78718 0.48632 0.07284 0.0
H3446 H 0.77532 0.49912 0.0491 0.0
H3447 H 0.7967 0.52279 0.07174 0.0
C3448 C 0.45358 0.31777 0.03073 0.0
C3449 C 0.47708 0.33635 0.01749 0.0
C3450 C 0.45489 0.31869 0.05484 0.0
C3451 C 0.48066 0.33793 0.06581 0.0
C3452 C 0.50462 0.35639 0.05244 0.0
C3453 C 0.50237 0.35573 0.02837 0.0
C3454 C 0.42865 0.29935 0.06855 0.0
C3455 C 0.53267 0.37656 0.06354 0.0
C3456 C 0.47845 0.35953 0.12739 0.0
C3457 C 0.4838 0.34059 0.13969 0.0
C3458 C 0.47714 0.35872 0.1033 0.0
C3459 C 0.48231 0.33916 0.0913 0.0
C3460 C 0.48847 0.32046 0.10365 0.0
C3461 C 0.48861 0.32104 0.12781 0.0
C3462 C 0.46962 0.37836 0.09076 0.0
C3463 C 0.49497 0.29995 0.09136 0.0
H3464 H 0.43401 0.30288 0.0222 0.0
H3465 H 0.52062 0.36981 0.018 0.0
H3466 H 0.43261 0.285 0.07947 0.0
H3467 H 0.42328 0.31209 0.08025 0.0
H3468 H 0.41008 0.28627 0.05735 0.0
H3469 H 0.54958 0.38852 0.05063 0.0
H3470 H 0.53042 0.39196 0.07454 0.0
H3471 H 0.53948 0.36466 0.07487 0.0
H3472 H 0.47443 0.37443 0.13668 0.0
H3473 H 0.49293 0.30655 0.13742 0.0
H3474 H 0.45036 0.3658 0.08014 0.0
H3475 H 0.48699 0.39229 0.07886 0.0
H3476 H 0.46565 0.3919 0.10273 0.0
H3477 H 0.47621 0.28451 0.08137 0.0
H3478 H 0.50099 0.28807 0.10348 0.0
H3479 H 0.51254 0.31153 0.07892 0.0
C3480 C 0.35618 0.85216 0.85981 0.0
C3481 C 0.3367 0.8572 0.848 0.0
C3482 C 0.35627 0.85128 0.88387 0.0
C3483 C 0.33687 0.85625 0.89632 0.0
C3484 C 0.3176 0.86202 0.88451 0.0
C3485 C 0.31749 0.86205 0.86039 0.0
C3486 C 0.37668 0.84444 0.89595 0.0
C3487 C 0.29706 0.86804 0.89734 0.0
C3488 C 0.31745 0.82835 0.95714 0.0
C3489 C 0.33548 0.85247 0.97001 0.0
C3490 C 0.31799 0.82918 0.93305 0.0
C3491 C 0.33645 0.85495 0.92174 0.0
C3492 C 0.35457 0.87942 0.93466 0.0
C3493 C 0.35412 0.87778 0.95872 0.0
C3494 C 0.29889 0.80251 0.91972 0.0
C3495 C 0.37408 0.90738 0.9231 0.0
H3496 H 0.37083 0.84808 0.85019 0.0
H3497 H 0.30255 0.86611 0.85122 0.0
H3498 H 0.39051 0.86192 0.90778 0.0
H3499 H 0.36473 0.82506 0.90658 0.0
H3500 H 0.3903 0.84098 0.88367 0.0
H3501 H 0.2844 0.87344 0.88555 0.0
H3502 H 0.28232 0.84927 0.90769 0.0
H3503 H 0.30874 0.88589 0.90951 0.0
H3504 H 0.30318 0.80874 0.96593 0.0
H3505 H 0.36785 0.89651 0.96873 0.0
H3506 H 0.31172 0.79745 0.90786 0.0
H3507 H 0.28393 0.80578 0.909 0.0
H3508 H 0.28647 0.78401 0.93118 0.0
H3509 H 0.38913 0.90516 0.91162 0.0
H3510 H 0.38642 0.92453 0.93571 0.0
H3511 H 0.36157 0.91384 0.91217 0.0
C3512 C 0.17507 0.48826 0.95828 0.0
C3513 C 0.15042 0.48135 0.97071 0.0
C3514 C 0.17512 0.48911 0.93417 0.0
C3515 C 0.1497 0.48206 0.9224 0.0
C3516 C 0.12468 0.47476 0.93491 0.0
C3517 C 0.12546 0.47489 0.95898 0.0
C3518 C 0.20235 0.49773 0.92132 0.0
C3519 C 0.09703 0.46647 0.92287 0.0
C3520 C 0.1511 0.50588 0.86102 0.0
C3521 C 0.1457 0.48158 0.84872 0.0
C3522 C 0.15328 0.50662 0.88505 0.0
C3523 C 0.14911 0.48216 0.89695 0.0
C3524 C 0.14351 0.45751 0.88459 0.0
C3525 C 0.14227 0.45766 0.86051 0.0
C3526 C 0.16001 0.53349 0.8977 0.0
C3527 C 0.13825 0.43083 0.89682 0.0
H3528 H 0.19442 0.49346 0.96744 0.0
H3529 H 0.10634 0.46929 0.96866 0.0
H3530 H 0.19976 0.48014 0.91006 0.0
H3531 H 0.20754 0.51612 0.91 0.0
H3532 H 0.22048 0.5035 0.93311 0.0
H3533 H 0.07934 0.46063 0.93518 0.0
H3534 H 0.09931 0.48423 0.91201 0.0
H3535 H 0.09131 0.4482 0.91127 0.0
H3536 H 0.1541 0.5245 0.8518 0.0
H3537 H 0.13796 0.43884 0.85092 0.0
H3538 H 0.17883 0.54026 0.90887 0.0
H3539 H 0.14204 0.5296 0.90905 0.0
H3540 H 0.16424 0.55112 0.88575 0.0
H3541 H 0.15682 0.43522 0.90758 0.0
H3542 H 0.13409 0.41346 0.88462 0.0
H3543 H 0.11979 0.42344 0.90854 0.0
C3544 C 0.51138 0.68404 0.95954 0.0
C3545 C 0.51714 0.66525 0.97167 0.0
C3546 C 0.50905 0.68277 0.9355 0.0
C3547 C 0.51338 0.66274 0.92334 0.0
C3548 C 0.51905 0.64361 0.93551 0.0
C3549 C 0.52048 0.64484 0.95962 0.0
C3550 C 0.50223 0.703 0.92311 0.0
C3551 C 0.5244 0.6224 0.92305 0.0
C3552 C 0.48822 0.64414 0.8616 0.0
C3553 C 0.51303 0.66208 0.84939 0.0
C3554 C 0.48785 0.64447 0.88574 0.0
C3555 C 0.5131 0.66259 0.89782 0.0
C3556 C 0.53825 0.68062 0.88555 0.0
C3557 C 0.5378 0.68041 0.86144 0.0
C3558 C 0.46048 0.62552 0.8983 0.0
C3559 C 0.56572 0.69979 0.89789 0.0
H3560 H 0.50845 0.69961 0.96891 0.0
H3561 H 0.52508 0.63041 0.96902 0.0
H3562 H 0.52036 0.71753 0.91208 0.0
H3563 H 0.48367 0.69108 0.91164 0.0
H3564 H 0.49755 0.71593 0.93522 0.0
H3565 H 0.5282 0.60881 0.9351 0.0
H3566 H 0.50605 0.60859 0.91194 0.0
H3567 H 0.54314 0.63371 0.91164 0.0
H3568 H 0.469 0.63011 0.85226 0.0
H3569 H 0.55707 0.69409 0.85199 0.0
H3570 H 0.45512 0.63841 0.90982 0.0
H3571 H 0.46296 0.61027 0.90931 0.0
H3572 H 0.4425 0.61343 0.8863 0.0
H3573 H 0.56321 0.71496 0.90899 0.0
H3574 H 0.58353 0.71201 0.88576 0.0
H3575 H 0.57139 0.68704 0.90928 0.0
C3576 C 0.31382 0.45501 0.3642 0.0
C3577 C 0.33352 0.47945 0.35245 0.0
C3578 C 0.3135 0.45408 0.38833 0.0
C3579 C 0.33282 0.47845 0.40087 0.0
C3580 C 0.35235 0.50338 0.38906 0.0
C3581 C 0.35273 0.50345 0.36494 0.0
C3582 C 0.29281 0.42694 0.40039 0.0
C3583 C 0.37274 0.53 0.40189 0.0
C3584 C 0.31374 0.48301 0.46281 0.0
C3585 C 0.33174 0.47601 0.47477 0.0
C3586 C 0.31425 0.4844 0.43872 0.0
C3587 C 0.33264 0.47786 0.42637 0.0
C3588 C 0.35079 0.47067 0.43837 0.0
C3589 C 0.3504 0.47022 0.4625 0.0
C3590 C 0.29518 0.49292 0.4265 0.0
C3591 C 0.37022 0.46298 0.42571 0.0
H3592 H 0.29913 0.43638 0.3545 0.0
H3593 H 0.36779 0.52245 0.35582 0.0
H3594 H 0.30446 0.41972 0.4116 0.0
H3595 H 0.27855 0.43066 0.41166 0.0
H3596 H 0.27964 0.4097 0.38808 0.0
H3597 H 0.38587 0.54789 0.39008 0.0
H3598 H 0.36086 0.53648 0.41356 0.0
H3599 H 0.38704 0.52592 0.41276 0.0
H3600 H 0.29948 0.48773 0.47235 0.0
H3601 H 0.36414 0.46458 0.47178 0.0
H3602 H 0.28001 0.47537 0.41531 0.0
H3603 H 0.30797 0.51145 0.41521 0.0
H3604 H 0.28297 0.49842 0.43872 0.0
H3605 H 0.35763 0.44471 0.41411 0.0
H3606 H 0.38261 0.45737 0.43762 0.0
H3607 H 0.38522 0.48095 0.41476 0.0
C3608 C 0.49378 0.84078 0.35935 0.0
C3609 C 0.51792 0.84735 0.34625 0.0
C3610 C 0.49438 0.83943 0.38342 0.0
C3611 C 0.51986 0.84532 0.39453 0.0
C3612 C 0.54429 0.85204 0.38141 0.0
C3613 C 0.54295 0.85274 0.35738 0.0
C3614 C 0.46781 0.83174 0.39695 0.0
C3615 C 0.57194 0.85887 0.39277 0.0
C3616 C 0.52934 0.86945 0.45656 0.0
C3617 C 0.52401 0.84477 0.46826 0.0
C3618 C 0.52824 0.86997 0.4325 0.0
C3619 C 0.52118 0.84505 0.41995 0.0
C3620 C 0.51564 0.82001 0.43164 0.0
C3621 C 0.51739 0.82024 0.45571 0.0
C3622 C 0.53475 0.89718 0.42051 0.0
C3623 C 0.50763 0.79296 0.41874 0.0
H3624 H 0.47433 0.83636 0.35077 0.0
H3625 H 0.56172 0.85802 0.34731 0.0
H3626 H 0.46223 0.81309 0.40805 0.0
H3627 H 0.47152 0.84952 0.40846 0.0
H3628 H 0.44948 0.82679 0.38561 0.0
H3629 H 0.58899 0.86367 0.38003 0.0
H3630 H 0.57903 0.87741 0.40434 0.0
H3631 H 0.56897 0.84079 0.40356 0.0
H3632 H 0.53464 0.8885 0.46622 0.0
H3633 H 0.51299 0.80104 0.46473 0.0
H3634 H 0.51617 0.8939 0.41027 0.0
H3635 H 0.55265 0.90359 0.40833 0.0
H3636 H 0.54036 0.91481 0.43282 0.0
H3637 H 0.48837 0.78668 0.40826 0.0
H3638 H 0.5035 0.77519 0.43048 0.0
H3639 H 0.52485 0.79637 0.40668 0.0
C3640 C 0.14402 0.68064 0.35483 0.0
C3641 C 0.14824 0.66103 0.34243 0.0
C3642 C 0.14411 0.68057 0.37892 0.0
C3643 C 0.14928 0.66088 0.39074 0.0
C3644 C 0.15413 0.6414 0.37829 0.0
C3645 C 0.1532 0.64147 0.3542 0.0
C3646 C 0.13836 0.70131 0.39173 0.0
C3647 C 0.16048 0.62066 0.39039 0.0
C3648 C 0.17576 0.68107 0.4517 0.0
C3649 C 0.15115 0.66394 0.46442 0.0
C3650 C 0.17564 0.67961 0.42767 0.0
C3651 C 0.15009 0.6611 0.41617 0.0
C3652 C 0.1252 0.64355 0.42893 0.0
C3653 C 0.12613 0.64491 0.45304 0.0
C3654 C 0.20275 0.69807 0.4146 0.0
C3655 C 0.09748 0.62398 0.41711 0.0
H3656 H 0.13989 0.69555 0.34568 0.0
H3657 H 0.15664 0.62642 0.34455 0.0
H3658 H 0.12004 0.6897 0.4035 0.0
H3659 H 0.15692 0.7155 0.4025 0.0
H3660 H 0.13379 0.71456 0.37992 0.0
H3661 H 0.16434 0.60732 0.3781 0.0
H3662 H 0.17944 0.63227 0.4015 0.0
H3663 H 0.14253 0.60657 0.40176 0.0
H3664 H 0.19522 0.69551 0.4606 0.0
H3665 H 0.10711 0.63177 0.46296 0.0
H3666 H 0.20032 0.71356 0.40387 0.0
H3667 H 0.20742 0.68492 0.40279 0.0
H3668 H 0.22117 0.70992 0.42626 0.0
H3669 H 0.09109 0.63653 0.40616 0.0
H3670 H 0.08017 0.61147 0.42957 0.0
H3671 H 0.09997 0.60911 0.40562 0.0
C3672 C 0.05714 0.39439 0.06467 0.0
C3673 C 0.07955 0.39819 0.05038 0.0
C3674 C 0.03819 0.36757 0.0738 0.0
C3675 C 0.04183 0.34428 0.06835 0.0
C3676 C 0.06251 0.34753 0.05197 0.0
C3677 C 0.08119 0.3745 0.04325 0.0
C3678 C 0.01607 0.36483 0.09087 0.0
C3679 C 0.06679 0.32311 0.04533 0.0
C3680 C 0.03507 0.29011 0.11171 0.0
C3681 C 0.01206 0.26541 0.10289 0.0
C3682 C 0.04333 0.31653 0.10188 0.0
C3683 C 0.02831 0.3182 0.0826 0.0
C3684 C 0.00339 0.29372 0.07505 0.0
C3685 C 0.99546 0.26746 0.08538 0.0
C3686 C 0.06975 0.34221 0.11079 0.0
C3687 C 0.98658 0.29473 0.05481 0.0
H3688 H 0.05567 0.41264 0.07013 0.0
H3689 H 0.09814 0.37728 0.03182 0.0
H3690 H 0.99611 0.34432 0.0888 0.0
H3691 H 0.02397 0.36552 0.1086 0.0
H3692 H 0.01139 0.38237 0.08903 0.0
H3693 H 0.08113 0.32827 0.03026 0.0
H3694 H 0.07619 0.31769 0.06006 0.0
H3695 H 0.04622 0.30404 0.04119 0.0
H3696 H 0.04762 0.28858 0.12554 0.0
H3697 H 0.97757 0.24837 0.07856 0.0
H3698 H 0.06607 0.36033 0.11303 0.0
H3699 H 0.08715 0.34866 0.09809 0.0
H3700 H 0.07686 0.33799 0.1275 0.0
H3701 H 0.98545 0.31451 0.0549 0.0
H3702 H 0.96471 0.27625 0.05471 0.0
H3703 H 0.99719 0.29437 0.0386 0.0
C3704 C 0.73139 0.72216 0.09044 0.0
C3705 C 0.73409 0.74291 0.1062 0.0
C3706 C 0.70495 0.7032 0.08069 0.0
C3707 C 0.68088 0.70518 0.0869 0.0
C3708 C 0.68304 0.72395 0.10468 0.0
C3709 C 0.70962 0.74258 0.11411 0.0
C3710 C 0.70339 0.68298 0.06224 0.0
C3711 C 0.65781 0.72647 0.11215 0.0
C3712 C 0.62658 0.70011 0.04431 0.0
C3713 C 0.60205 0.67613 0.05231 0.0
C3714 C 0.65305 0.70832 0.05406 0.0
C3715 C 0.65502 0.69212 0.0723 0.0
C3716 C 0.63088 0.66623 0.07872 0.0
C3717 C 0.60454 0.65847 0.06861 0.0
C3718 C 0.67836 0.73587 0.04635 0.0
C3719 C 0.63224 0.64803 0.09769 0.0
H3720 H 0.75018 0.72212 0.08434 0.0
H3721 H 0.71149 0.75819 0.12662 0.0
H3722 H 0.68317 0.66254 0.06325 0.0
H3723 H 0.70437 0.69237 0.04507 0.0
H3724 H 0.72134 0.67883 0.06354 0.0
H3725 H 0.66224 0.73945 0.12799 0.0
H3726 H 0.65202 0.73656 0.09819 0.0
H3727 H 0.63921 0.70522 0.11538 0.0
H3728 H 0.62482 0.71354 0.03141 0.0
H3729 H 0.58565 0.63981 0.0748 0.0
H3730 H 0.69692 0.73308 0.04337 0.0
H3731 H 0.68418 0.75204 0.06007 0.0
H3732 H 0.67401 0.74414 0.0303 0.0
H3733 H 0.65247 0.6478 0.0971 0.0
H3734 H 0.61431 0.62589 0.09659 0.0
H3735 H 0.63105 0.65683 0.11461 0.0
C3736 C 0.25568 0.96534 0.10939 0.0
C3737 C 0.25603 0.9895 0.10072 0.0
C3738 C 0.27376 0.9564 0.10046 0.0
C3739 C 0.2925 0.97193 0.0823 0.0
C3740 C 0.29482 0.99777 0.07496 0.0
C3741 C 0.27653 0.00634 0.08433 0.0
C3742 C 0.27094 0.92894 0.10909 0.0
C3743 C 0.31481 0.01509 0.05587 0.0
C3744 C 0.34007 0.94244 0.06651 0.0
C3745 C 0.32269 0.92136 0.05073 0.0
C3746 C 0.33176 0.96102 0.07571 0.0
C3747 C 0.30565 0.95839 0.0688 0.0
C3748 C 0.28956 0.93904 0.05116 0.0
C3749 C 0.29825 0.9207 0.04241 0.0
C3750 C 0.34967 0.98164 0.09423 0.0
C3751 C 0.2618 0.93589 0.04298 0.0
H3752 H 0.24021 0.95254 0.12236 0.0
H3753 H 0.27698 0.02513 0.07763 0.0
H3754 H 0.26063 0.91235 0.09567 0.0
H3755 H 0.29211 0.93151 0.11257 0.0
H3756 H 0.25804 0.92135 0.12506 0.0
H3757 H 0.31874 0.03716 0.05577 0.0
H3758 H 0.33537 0.01566 0.05745 0.0
H3759 H 0.30539 0.00523 0.03905 0.0
H3760 H 0.35907 0.9431 0.07294 0.0
H3761 H 0.28503 0.90475 0.02989 0.0
H3762 H 0.3404 0.97276 0.11133 0.0
H3763 H 0.3501 0.00212 0.09235 0.0
H3764 H 0.37177 0.98565 0.09391 0.0
H3765 H 0.24566 0.92598 0.05678 0.0
H3766 H 0.25374 0.92248 0.02731 0.0
H3767 H 0.2642 0.95692 0.03916 0.0
C3768 C 0.29128 0.03601 0.37712 0.0
C3769 C 0.26697 0.01293 0.3864 0.0
C3770 C 0.31812 0.04414 0.38598 0.0
C3771 C 0.32062 0.02886 0.40468 0.0
C3772 C 0.29652 0.00371 0.41243 0.0
C3773 C 0.26981 0.99596 0.40313 0.0
C3774 C 0.34335 0.07082 0.37686 0.0
C3775 C 0.29844 0.98651 0.43198 0.0
C3776 C 0.39745 0.05881 0.42116 0.0
C3777 C 0.40105 0.08058 0.43614 0.0
C3778 C 0.37058 0.03966 0.41223 0.0
C3779 C 0.34704 0.04252 0.41851 0.0
C3780 C 0.35017 0.06257 0.43546 0.0
C3781 C 0.37716 0.08138 0.44404 0.0
C3782 C 0.36796 0.01815 0.3946 0.0
C3783 C 0.32552 0.06604 0.44296 0.0
H3784 H 0.28914 0.04883 0.36385 0.0
H3785 H 0.25102 0.97798 0.41026 0.0
H3786 H 0.35006 0.08801 0.38978 0.0
H3787 H 0.36152 0.0674 0.37386 0.0
H3788 H 0.33846 0.07807 0.36051 0.0
H3789 H 0.28018 0.96452 0.43196 0.0
H3790 H 0.31839 0.98575 0.43107 0.0
H3791 H 0.29837 0.99655 0.44859 0.0
H3792 H 0.41582 0.05792 0.41513 0.0
H3793 H 0.37976 0.09778 0.45602 0.0
H3794 H 0.3685 0.02653 0.37708 0.0
H3795 H 0.34759 0.998 0.39649 0.0
H3796 H 0.38569 0.01367 0.396 0.0
H3797 H 0.3193 0.07528 0.42862 0.0
H3798 H 0.33079 0.08017 0.45818 0.0
H3799 H 0.3069 0.04519 0.44726 0.0
C3800 C 0.00557 0.28227 0.39466 0.0
C3801 C 0.98943 0.25426 0.40246 0.0
C3802 C 0.99779 0.30255 0.40044 0.0
C3803 C 0.9736 0.29444 0.41441 0.0
C3804 C 0.95891 0.26681 0.42391 0.0
C3805 C 0.96692 0.24707 0.41769 0.0
C3806 C 0.0142 0.33188 0.39026 0.0
C3807 C 0.93326 0.25729 0.43922 0.0
C3808 C 0.94461 0.3377 0.44128 0.0
C3809 C 0.92106 0.32965 0.42707 0.0
C3810 C 0.96442 0.32916 0.436 0.0
C3811 C 0.96026 0.31235 0.41616 0.0
C3812 C 0.93829 0.30723 0.40049 0.0
C3813 C 0.91877 0.31571 0.4063 0.0
C3814 C 0.9879 0.33553 0.45286 0.0
C3815 C 0.9333 0.28983 0.37893 0.0
H3816 H 0.02317 0.28788 0.38303 0.0
H3817 H 0.95487 0.22556 0.42418 0.0
H3818 H 0.00308 0.33303 0.37465 0.0
H3819 H 0.01568 0.34814 0.40256 0.0
H3820 H 0.03593 0.33708 0.38515 0.0
H3821 H 0.92617 0.23618 0.44705 0.0
H3822 H 0.93793 0.2728 0.45327 0.0
H3823 H 0.91547 0.25601 0.42897 0.0
H3824 H 0.94628 0.34858 0.45734 0.0
H3825 H 0.90058 0.30981 0.39528 0.0
H3826 H 0.00749 0.33951 0.4438 0.0
H3827 H 0.9813 0.317 0.46435 0.0
H3828 H 0.99273 0.35419 0.46374 0.0
H3829 H 0.95352 0.29655 0.36974 0.0
H3830 H 0.91836 0.29162 0.36696 0.0
H3831 H 0.9242 0.26719 0.38369 0.0
C3832 C 0.72248 0.73346 0.39948 0.0
C3833 C 0.74432 0.7366 0.38478 0.0
C3834 C 0.7029 0.70676 0.40844 0.0
C3835 C 0.70537 0.68292 0.40245 0.0
C3836 C 0.72544 0.6856 0.38567 0.0
C3837 C 0.74472 0.71245 0.37709 0.0
C3838 C 0.68141 0.70466 0.42589 0.0
C3839 C 0.72845 0.66059 0.37843 0.0
C3840 C 0.69764 0.62696 0.44417 0.0
C3841 C 0.67447 0.60283 0.4348 0.0
C3842 C 0.70617 0.65389 0.43526 0.0
C3843 C 0.69122 0.65662 0.41641 0.0
C3844 C 0.66592 0.63276 0.40864 0.0
C3845 C 0.65775 0.60598 0.418 0.0
C3846 C 0.73297 0.6789 0.44443 0.0
C3847 C 0.64906 0.63494 0.38895 0.0
H3848 H 0.72193 0.75206 0.40538 0.0
H3849 H 0.76122 0.71472 0.36535 0.0
H3850 H 0.66113 0.68439 0.42412 0.0
H3851 H 0.68967 0.70536 0.44348 0.0
H3852 H 0.6772 0.72254 0.42417 0.0
H3853 H 0.74263 0.66554 0.36328 0.0
H3854 H 0.7374 0.65425 0.3929 0.0
H3855 H 0.70747 0.64216 0.37415 0.0
H3856 H 0.71028 0.62458 0.45747 0.0
H3857 H 0.63971 0.58734 0.41078 0.0
H3858 H 0.72991 0.69733 0.44719 0.0
H3859 H 0.75027 0.68525 0.43164 0.0
H3860 H 0.73987 0.67392 0.46092 0.0
H3861 H 0.64873 0.65511 0.38967 0.0
H3862 H 0.62692 0.61695 0.38898 0.0
H3863 H 0.65907 0.63452 0.37242 0.0
C3864 C 0.92251 0.62534 0.94416 0.0
C3865 C 0.92177 0.6012 0.935 0.0
C3866 C 0.94144 0.65233 0.93563 0.0
C3867 C 0.96003 0.65518 0.91746 0.0
C3868 C 0.96169 0.6313 0.91006 0.0
C3869 C 0.94244 0.60443 0.91895 0.0
C3870 C 0.93931 0.67732 0.94438 0.0
C3871 C 0.98177 0.63361 0.89119 0.0
C3872 C 0.96442 0.71113 0.87716 0.0
C3873 C 0.9885 0.73531 0.88546 0.0
C3874 C 0.95639 0.68428 0.88599 0.0
C3875 C 0.97289 0.68158 0.90358 0.0
C3876 C 0.99883 0.70545 0.91026 0.0
C3877 C 0.00638 0.73218 0.9011 0.0
C3878 C 0.92877 0.65928 0.87804 0.0
C3879 C 0.01735 0.70331 0.92853 0.0
H3880 H 0.90693 0.62295 0.95693 0.0
H3881 H 0.94211 0.58583 0.91193 0.0
H3882 H 0.96067 0.69564 0.94781 0.0
H3883 H 0.92916 0.68391 0.93105 0.0
H3884 H 0.92654 0.67221 0.96042 0.0
H3885 H 0.98583 0.61556 0.89167 0.0
H3886 H 0.97229 0.63339 0.87423 0.0
H3887 H 0.00226 0.65374 0.8925 0.0
H3888 H 0.95085 0.71337 0.86469 0.0
H3889 H 0.02518 0.75078 0.90745 0.0
H3890 H 0.9128 0.65273 0.89202 0.0
H3891 H 0.93159 0.64094 0.87406 0.0
H3892 H 0.9202 0.66432 0.86251 0.0
H3893 H 0.00901 0.70408 0.94578 0.0
H3894 H 0.03952 0.72115 0.92733 0.0
H3895 H 0.01737 0.68301 0.9272 0.0
C3896 C 0.37318 0.3041 0.94302 0.0
C3897 C 0.39778 0.32729 0.93422 0.0
C3898 C 0.34658 0.29626 0.93379 0.0
C3899 C 0.34455 0.31201 0.91523 0.0
C3900 C 0.36892 0.33727 0.90796 0.0
C3901 C 0.39543 0.34466 0.91759 0.0
C3902 C 0.3211 0.26942 0.94241 0.0
C3903 C 0.36753 0.35507 0.88868 0.0
C3904 C 0.28824 0.25965 0.87577 0.0
C3905 C 0.26416 0.25963 0.88427 0.0
C3906 C 0.31528 0.27896 0.88398 0.0
C3907 C 0.31829 0.29876 0.90113 0.0
C3908 C 0.29453 0.30109 0.90772 0.0
C3909 C 0.26759 0.28138 0.89921 0.0
C3910 C 0.34013 0.27602 0.87611 0.0
C3911 C 0.29702 0.32249 0.9254 0.0
H3912 H 0.37494 0.29096 0.95621 0.0
H3913 H 0.41444 0.36273 0.91083 0.0
H3914 H 0.30309 0.273 0.94568 0.0
H3915 H 0.31428 0.25265 0.92908 0.0
H3916 H 0.32572 0.26147 0.95851 0.0
H3917 H 0.38551 0.37719 0.88953 0.0
H3918 H 0.36868 0.34592 0.87192 0.0
H3919 H 0.34733 0.35539 0.88911 0.0
H3920 H 0.28578 0.2433 0.86379 0.0
H3921 H 0.24909 0.28172 0.90567 0.0
H3922 H 0.34654 0.26662 0.89019 0.0
H3923 H 0.35858 0.29707 0.87201 0.0
H3924 H 0.33494 0.26224 0.86068 0.0
H3925 H 0.29653 0.31409 0.9429 0.0
H3926 H 0.27919 0.32681 0.92403 0.0
H3927 H 0.31732 0.34272 0.92352 0.0
C3928 C 0.65502 0.05767 0.92117 0.0
C3929 C 0.67179 0.0791 0.93692 0.0
C3930 C 0.66372 0.03897 0.91294 0.0
C3931 C 0.68964 0.04189 0.92076 0.0
C3932 C 0.70507 0.06163 0.93836 0.0
C3933 C 0.69597 0.08003 0.94618 0.0
C3934 C 0.64644 0.01785 0.89449 0.0
C3935 C 0.73262 0.06514 0.94748 0.0
C3936 C 0.72016 0.99444 0.90796 0.0
C3937 C 0.74108 0.01113 0.8918 0.0
C3938 C 0.70124 0.0028 0.91629 0.0
C3939 C 0.70341 0.0283 0.90817 0.0
C3940 C 0.7226 0.04358 0.89019 0.0
C3941 C 0.74124 0.03483 0.88227 0.0
C3942 C 0.68072 0.98568 0.93516 0.0
C3943 C 0.7253 0.07068 0.88075 0.0
H3944 H 0.63619 0.05673 0.91403 0.0
H3945 H 0.7087 0.09622 0.95871 0.0
H3946 H 0.65612 0.02642 0.87742 0.0
H3947 H 0.64618 0.99754 0.897 0.0
H3948 H 0.62427 0.01362 0.89421 0.0
H3949 H 0.74017 0.07895 0.96296 0.0
H3950 H 0.7302 0.04425 0.95196 0.0
H3951 H 0.74917 0.07475 0.93395 0.0
H3952 H 0.71983 0.97599 0.91531 0.0
H3953 H 0.75702 0.04748 0.86944 0.0
H3954 H 0.66013 0.9849 0.93288 0.0
H3955 H 0.68956 0.99583 0.95202 0.0
H3956 H 0.67695 0.96368 0.93572 0.0
H3957 H 0.70414 0.06771 0.87652 0.0
H3958 H 0.73873 0.07809 0.86504 0.0
H3959 H 0.73496 0.08757 0.89399 0.0
C3960 C 0.73139 0.99785 0.58877 0.0
C3961 C 0.73342 0.98058 0.60568 0.0
C3962 C 0.70517 0.99023 0.57851 0.0
C3963 C 0.68074 0.96485 0.58543 0.0
C3964 C 0.68232 0.94911 0.6042 0.0
C3965 C 0.70866 0.95718 0.61407 0.0
C3966 C 0.70418 0.00793 0.55895 0.0
C3967 C 0.65671 0.92211 0.6124 0.0
C3968 C 0.60466 0.9355 0.56696 0.0
C3969 C 0.60165 0.91421 0.55167 0.0
C3970 C 0.63116 0.95436 0.57663 0.0
C3971 C 0.65493 0.95166 0.57087 0.0
C3972 C 0.65248 0.93213 0.55367 0.0
C3973 C 0.62586 0.91367 0.54428 0.0
C3974 C 0.6331 0.9754 0.59446 0.0
C3975 C 0.6774 0.92879 0.54676 0.0
H3976 H 0.75048 0.0161 0.58233 0.0
H3977 H 0.71011 0.94412 0.6275 0.0
H3978 H 0.70504 0.99833 0.54234 0.0
H3979 H 0.68421 0.00868 0.55926 0.0
H3980 H 0.72243 0.02992 0.55956 0.0
H3981 H 0.66084 0.91426 0.62877 0.0
H3982 H 0.63842 0.92543 0.615 0.0
H3983 H 0.65057 0.90538 0.59912 0.0
H3984 H 0.58609 0.93628 0.57258 0.0
H3985 H 0.6238 0.8977 0.53206 0.0
H3986 H 0.65349 0.99563 0.59308 0.0
H3987 H 0.63205 0.96661 0.61191 0.0
H3988 H 0.61538 0.97983 0.59279 0.0
H3989 H 0.69622 0.94973 0.54307 0.0
H3990 H 0.67274 0.9151 0.53133 0.0
H3991 H 0.68297 0.91911 0.56119 0.0
C3992 C 0.99616 0.71828 0.58532 0.0
C3993 C 0.01298 0.73968 0.60108 0.0
C3994 C 0.00556 0.70062 0.576 0.0
C3995 C 0.03227 0.70458 0.58269 0.0
C3996 C 0.04786 0.72418 0.60033 0.0
C3997 C 0.03803 0.74152 0.60927 0.0
C3998 C 0.9881 0.67958 0.55756 0.0
C3999 C 0.07627 0.72877 0.60825 0.0
C4000 C 0.06495 0.66005 0.56589 0.0
C4001 C 0.08457 0.67762 0.54924 0.0
C4002 C 0.04584 0.66721 0.57581 0.0
C4003 C 0.04649 0.69241 0.56882 0.0
C4004 C 0.06442 0.70868 0.5505 0.0
C4005 C 0.08326 0.7011 0.54097 0.0
C4006 C 0.0267 0.64908 0.59502 0.0
C4007 C 0.06549 0.73551 0.54225 0.0
H4008 H 0.97666 0.71661 0.57901 0.0
H4009 H 0.05083 0.75765 0.6218 0.0
H4010 H 0.99689 0.68871 0.5404 0.0
H4011 H 0.98884 0.65969 0.55934 0.0
H4012 H 0.96564 0.67444 0.5581 0.0
H4013 H 0.08395 0.74216 0.62396 0.0
H4014 H 0.07505 0.70821 0.6119 0.0
H4015 H 0.09217 0.73938 0.59437 0.0
H4016 H 0.06576 0.64177 0.57228 0.0
H4017 H 0.09803 0.71445 0.5278 0.0
H4018 H 0.00558 0.64738 0.5939 0.0
H4019 H 0.03618 0.659 0.61181 0.0
H4020 H 0.0239 0.62743 0.59478 0.0
H4021 H 0.04382 0.73169 0.53894 0.0
H4022 H 0.07821 0.74391 0.52625 0.0
H4023 H 0.0751 0.75201 0.55581 0.0
C4024 C 0.33929 0.38912 0.57044 0.0
C4025 C 0.32077 0.3919 0.55526 0.0
C4026 C 0.3318 0.36277 0.58038 0.0
C4027 C 0.30527 0.33889 0.57493 0.0
C4028 C 0.28797 0.34109 0.5578 0.0
C4029 C 0.29594 0.36758 0.54819 0.0
C4030 C 0.35112 0.36116 0.59816 0.0
C4031 C 0.25969 0.31602 0.55114 0.0
C4032 C 0.27519 0.26235 0.59219 0.0
C4033 C 0.25542 0.25992 0.60884 0.0
C4034 C 0.29406 0.28879 0.58239 0.0
C4035 C 0.29299 0.31306 0.58953 0.0
C4036 C 0.27549 0.31111 0.6083 0.0
C4037 C 0.25686 0.28452 0.61769 0.0
C4038 C 0.31295 0.29013 0.56286 0.0
C4039 C 0.27409 0.33659 0.61681 0.0
H4040 H 0.35863 0.40782 0.57589 0.0
H4041 H 0.28182 0.36952 0.53613 0.0
H4042 H 0.34378 0.36284 0.6156 0.0
H4043 H 0.35077 0.34066 0.59717 0.0
H4044 H 0.3733 0.37872 0.59606 0.0
H4045 H 0.25036 0.32052 0.53583 0.0
H4046 H 0.26192 0.29727 0.54739 0.0
H4047 H 0.24462 0.31039 0.56572 0.0
H4048 H 0.2743 0.2434 0.58536 0.0
H4049 H 0.24196 0.28275 0.63088 0.0
H4050 H 0.33363 0.31013 0.56334 0.0
H4051 H 0.30259 0.28945 0.54623 0.0
H4052 H 0.31675 0.27191 0.56333 0.0
H4053 H 0.29569 0.35497 0.61922 0.0
H4054 H 0.26238 0.33228 0.63335 0.0
H4055 H 0.26316 0.34266 0.60379 0.0
C4056 C 0.03934 0.41222 0.77397 0.0
C4057 C 0.06358 0.41137 0.76721 0.0
C4058 C 0.01256 0.3924 0.76565 0.0
C4059 C 0.00995 0.3712 0.75011 0.0
C4060 C 0.03391 0.36852 0.74498 0.0
C4061 C 0.06059 0.38873 0.75362 0.0
C4062 C 0.98751 0.39584 0.77191 0.0
C4063 C 0.03189 0.34583 0.72892 0.0
C4064 C 0.93258 0.32294 0.73647 0.0
C4065 C 0.92926 0.33849 0.71873 0.0
C4066 C 0.9596 0.3314 0.7455 0.0
C4067 C 0.98347 0.35581 0.73646 0.0
C4068 C 0.98042 0.36926 0.71668 0.0
C4069 C 0.95329 0.36047 0.70812 0.0
C4070 C 0.96211 0.31603 0.76616 0.0
C4071 C 0.00535 0.39503 0.70616 0.0
H4072 H 0.04147 0.42932 0.7849 0.0
H4073 H 0.07925 0.38784 0.74848 0.0
H4074 H 0.98081 0.40324 0.75661 0.0
H4075 H 0.96927 0.37526 0.77732 0.0
H4076 H 0.99254 0.41142 0.78603 0.0
H4077 H 0.04964 0.34164 0.73168 0.0
H4078 H 0.01152 0.32575 0.73116 0.0
H4079 H 0.03294 0.35292 0.71085 0.0
H4080 H 0.91399 0.30579 0.74461 0.0
H4081 H 0.95072 0.37215 0.6941 0.0
H4082 H 0.96233 0.32743 0.78206 0.0
H4083 H 0.98211 0.31534 0.76564 0.0
H4084 H 0.94393 0.29403 0.76726 0.0
H4085 H 0.0121 0.41346 0.71781 0.0
H4086 H 7e-05 0.40048 0.68912 0.0
H4087 H 0.0236 0.39156 0.704 0.0
C4088 C 0.58633 0.62751 0.77774 0.0
C4089 C 0.58701 0.65233 0.77036 0.0
C4090 C 0.6051 0.61956 0.76865 0.0
C4091 C 0.62494 0.63681 0.75168 0.0
C4092 C 0.62769 0.6633 0.74592 0.0
C4093 C 0.60865 0.67082 0.7554 0.0
C4094 C 0.60183 0.59135 0.77562 0.0
C4095 C 0.6489 0.68249 0.72822 0.0
C4096 C 0.67271 0.6081 0.73453 0.0
C4097 C 0.65599 0.58858 0.71752 0.0
C4098 C 0.66428 0.62613 0.74465 0.0
C4099 C 0.63871 0.62452 0.73742 0.0
C4100 C 0.62353 0.60704 0.71855 0.0
C4101 C 0.63232 0.5892 0.70888 0.0
C4102 C 0.6813 0.64485 0.76444 0.0
C4103 C 0.59643 0.60509 0.70997 0.0
H4104 H 0.56999 0.61342 0.78965 0.0
H4105 H 0.60943 0.69015 0.74972 0.0
H4106 H 0.59232 0.5761 0.76118 0.0
H4107 H 0.62278 0.59356 0.77943 0.0
H4108 H 0.58801 0.58228 0.79098 0.0
H4109 H 0.65308 0.70459 0.72975 0.0
H4110 H 0.66923 0.68258 0.72988 0.0
H4111 H 0.64042 0.67464 0.71073 0.0
H4112 H 0.69111 0.60777 0.74123 0.0
H4113 H 0.61965 0.57447 0.69545 0.0
H4114 H 0.6713 0.63426 0.78092 0.0
H4115 H 0.68176 0.66544 0.76398 0.0
H4116 H 0.70341 0.6489 0.76428 0.0
H4117 H 0.57946 0.59403 0.723 0.0
H4118 H 0.58918 0.59326 0.69347 0.0
H4119 H 0.5993 0.62654 0.70745 0.0
C4120 C 0.40306 0.0438 0.70426 0.0
C4121 C 0.40488 0.0668 0.71651 0.0
C4122 C 0.38499 0.01597 0.71158 0.0
C4123 C 0.3687 0.01115 0.73182 0.0
C4124 C 0.36796 0.03407 0.74262 0.0
C4125 C 0.3861 0.06179 0.73476 0.0
C4126 C 0.38592 0.99208 0.69919 0.0
C4127 C 0.35044 0.02971 0.76396 0.0
C4128 C 0.32453 0.93344 0.74815 0.0
C4129 C 0.34425 0.93003 0.76126 0.0
C4130 C 0.3313 0.96022 0.73951 0.0
C4131 C 0.35831 0.98388 0.7442 0.0
C4132 C 0.37738 0.98078 0.75882 0.0
C4133 C 0.37012 0.95392 0.76711 0.0
C4134 C 0.3103 0.96274 0.72422 0.0
C4135 C 0.40632 0.0055 0.76455 0.0
H4136 H 0.4172 0.04766 0.68984 0.0
H4137 H 0.38733 0.07955 0.74418 0.0
H4138 H 0.39855 0.98515 0.70947 0.0
H4139 H 0.3643 0.97358 0.69724 0.0
H4140 H 0.39575 0.99862 0.68187 0.0
H4141 H 0.34694 0.04786 0.76701 0.0
H4142 H 0.3296 0.00996 0.76271 0.0
H4143 H 0.36169 0.02767 0.77912 0.0
H4144 H 0.30444 0.91502 0.74366 0.0
H4145 H 0.38521 0.95149 0.77762 0.0
H4146 H 0.31614 0.9626 0.70594 0.0
H4147 H 0.31051 0.98293 0.72735 0.0
H4148 H 0.28843 0.9448 0.72687 0.0
H4149 H 0.41952 0.01272 0.74874 0.0
H4150 H 0.41759 -6e-05 0.77765 0.0
H4151 H 0.40443 0.0236 0.77112 0.0
C4152 C 0.66902 0.0639 0.2335 0.0
C4153 C 0.6519 0.06799 0.21771 0.0
C4154 C 0.66054 0.03683 0.24239 0.0
C4155 C 0.63449 0.0135 0.23517 0.0
C4156 C 0.61853 0.01717 0.21766 0.0
C4157 C 0.6274 0.04439 0.20919 0.0
C4158 C 0.67828 0.03368 0.26083 0.0
C4159 C 0.59082 0.99276 0.20919 0.0
C4160 C 0.60659 0.93613 0.24912 0.0
C4161 C 0.58602 0.93156 0.26575 0.0
C4162 C 0.62437 0.96334 0.24011 0.0
C4163 C 0.62148 0.98632 0.24804 0.0
C4164 C 0.6026 0.9822 0.26634 0.0
C4165 C 0.58505 0.95485 0.27492 0.0
C4166 C 0.64447 0.96696 0.22081 0.0
C4167 C 0.59918 0.00625 0.27557 0.0
H4168 H 0.68803 0.08206 0.24012 0.0
H4169 H 0.61434 0.04738 0.19669 0.0
H4170 H 0.66855 0.03233 0.27791 0.0
H4171 H 0.67913 0.01394 0.25836 0.0
H4172 H 0.70025 0.052 0.26105 0.0
H4173 H 0.58274 0.9985 0.19374 0.0
H4174 H 0.5933 0.97428 0.2049 0.0
H4175 H 0.57464 0.98607 0.22301 0.0
H4176 H 0.60753 0.91823 0.24199 0.0
H4177 H 0.56952 0.95151 0.28805 0.0
H4178 H 0.66496 0.98694 0.22283 0.0
H4179 H 0.63511 0.96813 0.20417 0.0
H4180 H 0.64854 0.94893 0.21996 0.0
H4181 H 0.62017 0.025 0.2793 0.0
H4182 H 0.58619 0.00025 0.29153 0.0
H4183 H 0.5887 0.01263 0.26239 0.0
C4184 C 0.04043 0.63369 0.27557 0.0
C4185 C 0.06467 0.65656 0.26597 0.0
C4186 C 0.01342 0.62587 0.26721 0.0
C4187 C 0.01066 0.64127 0.24873 0.0
C4188 C 0.03471 0.66638 0.24087 0.0
C4189 C 0.0616 0.6738 0.24962 0.0
C4190 C 0.98827 0.59923 0.27646 0.0
C4191 C 0.03253 0.68381 0.22164 0.0
C4192 C 0.95439 0.5893 0.20877 0.0
C4193 C 0.93037 0.58988 0.2166 0.0
C4194 C 0.98126 0.60789 0.21769 0.0
C4195 C 0.98417 0.62757 0.23492 0.0
C4196 C 0.96048 0.63019 0.24122 0.0
C4197 C 0.93371 0.61123 0.23196 0.0
C4198 C 0.00602 0.60461 0.21015 0.0
C4199 C 0.96284 0.65133 0.25912 0.0
H4200 H 0.04271 0.62067 0.28856 0.0
H4201 H 0.08028 0.69166 0.24225 0.0
H4202 H 0.97015 0.60268 0.27963 0.0
H4203 H 0.98141 0.58202 0.26353 0.0
H4204 H 0.99334 0.592 0.29274 0.0
H4205 H 0.05089 0.70576 0.22164 0.0
H4206 H 0.03222 0.67389 0.20488 0.0
H4207 H 0.01268 0.68469 0.223 0.0
H4208 H 0.95198 0.5732 0.19654 0.0
H4209 H 0.91522 0.61189 0.23797 0.0
H4210 H 0.01239 0.59548 0.22447 0.0
H4211 H 0.02453 0.62552 0.20582 0.0
H4212 H 0.00082 0.59048 0.19494 0.0
H4213 H 0.96173 0.64245 0.27653 0.0
H4214 H 0.94528 0.65603 0.25755 0.0
H4215 H 0.98335 0.67143 0.25771 0.0
C4216 C 0.32175 0.38799 0.2543 0.0
C4217 C 0.34109 0.40939 0.26899 0.0
C4218 C 0.32814 0.36818 0.24464 0.0
C4219 C 0.35443 0.37009 0.24979 0.0
C4220 C 0.37251 0.38976 0.26652 0.0
C4221 C 0.36558 0.40914 0.2759 0.0
C4222 C 0.30787 0.34695 0.22748 0.0
C4223 C 0.40059 0.3923 0.27288 0.0
C4224 C 0.3852 0.32423 0.23332 0.0
C4225 C 0.40494 0.34178 0.21677 0.0
C4226 C 0.36557 0.33113 0.24257 0.0
C4227 C 0.36602 0.35606 0.23502 0.0
C4228 C 0.38328 0.37144 0.21609 0.0
C4229 C 0.4026 0.36411 0.20723 0.0
C4230 C 0.34669 0.31357 0.26209 0.0
C4231 C 0.38402 0.39782 0.20709 0.0
H4232 H 0.30259 0.38787 0.24908 0.0
H4233 H 0.38025 0.42522 0.2877 0.0
H4234 H 0.3139 0.35591 0.20987 0.0
H4235 H 0.30854 0.32693 0.22796 0.0
H4236 H 0.2858 0.3421 0.23072 0.0
H4237 H 0.41072 0.40667 0.28778 0.0
H4238 H 0.39778 0.37123 0.27719 0.0
H4239 H 0.41529 0.40076 0.25798 0.0
H4240 H 0.3868 0.30674 0.24059 0.0
H4241 H 0.4175 0.37731 0.19406 0.0
H4242 H 0.32602 0.31292 0.26164 0.0
H4243 H 0.35708 0.32314 0.27873 0.0
H4244 H 0.34288 0.29155 0.26153 0.0
H4245 H 0.36225 0.3941 0.20467 0.0
H4246 H 0.39554 0.40495 0.19044 0.0
H4247 H 0.39485 0.41521 0.2198 0.0
loop_
_geom_bond_atom_site_label_1
_geom_bond_atom_site_label_2
_geom_bond_distance
_geom_bond_site_symmetry_2
_ccdc_geom_bond_type
Sc0 O3 2.025 . S
Sc0 O10 2.105 1_455 S
Sc0 O13 2.105 . S
Sc0 O16 2.105 1_455 S
Sc0 O19 2.105 . S
Sc1 O3 2.025 . S
Sc1 O11 2.105 . S
Sc1 O15 2.105 . S
Sc1 O17 2.105 . S
Sc1 O21 2.105 . S
Sc2 O3 2.025 1_655 S
Sc2 O12 2.105 1_655 S
Sc2 O14 2.105 . S
Sc2 O18 2.105 1_655 S
Sc2 O20 2.105 . S
O3 Sc0 2.025 . S
O3 Sc1 2.025 . S
O3 Sc2 2.025 1_455 S
C4 O10 1.268 . S
C4 O20 1.268 . S
C5 O11 1.268 . S
C5 O19 1.268 . S
C6 O12 1.268 . S
C6 O21 1.268 . S
C7 O13 1.268 . S
C7 O17 1.268 . S
C8 O14 1.268 . S
C8 O16 1.268 . S
C9 O15 1.268 . S
C9 O18 1.268 . S
O10 Sc0 2.105 1_655 S
O10 C4 1.268 . S
O11 Sc1 2.105 . S
O11 C5 1.268 . S
O12 Sc2 2.105 1_455 S
O12 C6 1.268 . S
O13 Sc0 2.105 . S
O13 C7 1.268 . S
O14 Sc2 2.105 . S
O14 C8 1.268 . S
O15 Sc1 2.105 . S
O15 C9 1.268 . S
O16 Sc0 2.105 1_655 S
O16 C8 1.268 . S
O17 Sc1 2.105 . S
O17 C7 1.268 . S
O18 Sc2 2.105 1_455 S
O18 C9 1.268 . S
O19 Sc0 2.105 . S
O19 C5 1.268 . S
O20 Sc2 2.105 . S
O20 C4 1.268 . S
O21 Sc1 2.105 . S
O21 C6 1.268 . S
Sc22 O25 2.025 . S
Sc22 O32 2.105 . S
Sc22 O35 2.105 . S
Sc22 O38 2.105 . S
Sc22 O41 2.105 . S
Sc23 O25 2.025 . S
Sc23 O33 2.105 . S
Sc23 O37 2.105 . S
Sc23 O39 2.105 . S
Sc23 O43 2.105 . S
Sc24 O25 2.025 . S
Sc24 O34 2.105 . S
Sc24 O36 2.105 . S
Sc24 O40 2.105 . S
Sc24 O42 2.105 . S
O25 Sc22 2.025 . S
O25 Sc23 2.025 . S
O25 Sc24 2.025 . S
C26 O32 1.268 . S
C26 O42 1.268 . S
C27 O33 1.268 . S
C27 O41 1.268 . S
C28 O34 1.268 . S
C28 O43 1.268 . S
C29 O35 1.268 . S
C29 O39 1.268 . S
C30 O36 1.268 . S
C30 O38 1.268 . S
C31 O37 1.268 . S
C31 O40 1.268 . S
O32 Sc22 2.105 . S
O32 C26 1.268 . S
O33 Sc23 2.105 . S
O33 C27 1.268 . S
O34 Sc24 2.105 . S
O34 C28 1.268 . S
O35 Sc22 2.105 . S
O35 C29 1.268 . S
O36 Sc24 2.105 . S
O36 C30 1.268 . S
O37 Sc23 2.105 . S
O37 C31 1.268 . S
O38 Sc22 2.105 . S
O38 C30 1.268 . S
O39 Sc23 2.105 . S
O39 C29 1.268 . S
O40 Sc24 2.105 . S
O40 C31 1.268 . S
O41 Sc22 2.105 . S
O41 C27 1.268 . S
O42 Sc24 2.105 . S
O42 C26 1.268 . S
O43 Sc23 2.105 . S
O43 C28 1.268 . S
Sc44 O47 2.025 . S
Sc44 O54 2.105 1_565 S
Sc44 O57 2.105 . S
Sc44 O60 2.105 1_565 S
Sc44 O63 2.105 . S
Sc45 O47 2.025 . S
Sc45 O55 2.105 . S
Sc45 O59 2.105 . S
Sc45 O61 2.105 . S
Sc45 O65 2.105 . S
Sc46 O47 2.025 1_545 S
Sc46 O56 2.105 1_545 S
Sc46 O58 2.105 . S
Sc46 O62 2.105 1_545 S
Sc46 O64 2.105 . S
O47 Sc44 2.025 . S
O47 Sc45 2.025 . S
O47 Sc46 2.025 1_565 S
C48 O54 1.268 . S
C48 O64 1.268 . S
C49 O55 1.268 . S
C49 O63 1.268 . S
C50 O56 1.268 . S
C50 O65 1.268 . S
C51 O57 1.268 . S
C51 O61 1.268 . S
C52 O58 1.268 . S
C52 O60 1.268 . S
C53 O59 1.268 . S
C53 O62 1.268 . S
O54 Sc44 2.105 1_545 S
O54 C48 1.268 . S
O55 Sc45 2.105 . S
O55 C49 1.268 . S
O56 Sc46 2.105 1_565 S
O56 C50 1.268 . S
O57 Sc44 2.105 . S
O57 C51 1.268 . S
O58 Sc46 2.105 . S
O58 C52 1.268 . S
O59 Sc45 2.105 . S
O59 C53 1.268 . S
O60 Sc44 2.105 1_545 S
O60 C52 1.268 . S
O61 Sc45 2.105 . S
O61 C51 1.268 . S
O62 Sc46 2.105 1_565 S
O62 C53 1.268 . S
O63 Sc44 2.105 . S
O63 C49 1.268 . S
O64 Sc46 2.105 . S
O64 C48 1.268 . S
O65 Sc45 2.105 . S
O65 C50 1.268 . S
Sc66 O69 2.025 . S
Sc66 O76 2.105 1_545 S
Sc66 O79 2.105 . S
Sc66 O82 2.105 1_545 S
Sc66 O85 2.105 . S
Sc67 O69 2.025 . S
Sc67 O77 2.105 . S
Sc67 O81 2.105 . S
Sc67 O83 2.105 . S
Sc67 O87 2.105 . S
Sc68 O69 2.025 1_565 S
Sc68 O78 2.105 1_565 S
Sc68 O80 2.105 . S
Sc68 O84 2.105 1_565 S
Sc68 O86 2.105 . S
O69 Sc66 2.025 . S
O69 Sc67 2.025 . S
O69 Sc68 2.025 1_545 S
C70 O76 1.268 . S
C70 O86 1.268 . S
C71 O77 1.268 . S
C71 O85 1.268 . S
C72 O78 1.268 . S
C72 O87 1.268 . S
C73 O79 1.268 . S
C73 O83 1.268 . S
C74 O80 1.268 . S
C74 O82 1.268 . S
C75 O81 1.268 . S
C75 O84 1.268 . S
O76 Sc66 2.105 1_565 S
O76 C70 1.268 . S
O77 Sc67 2.105 . S
O77 C71 1.268 . S
O78 Sc68 2.105 1_545 S
O78 C72 1.268 . S
O79 Sc66 2.105 . S
O79 C73 1.268 . S
O80 Sc68 2.105 . S
O80 C74 1.268 . S
O81 Sc67 2.105 . S
O81 C75 1.268 . S
O82 Sc66 2.105 1_565 S
O82 C74 1.268 . S
O83 Sc67 2.105 . S
O83 C73 1.268 . S
O84 Sc68 2.105 1_545 S
O84 C75 1.268 . S
O85 Sc66 2.105 . S
O85 C71 1.268 . S
O86 Sc68 2.105 . S
O86 C70 1.268 . S
O87 Sc67 2.105 . S
O87 C72 1.268 . S
Sc88 O91 2.025 . S
Sc88 O98 2.105 1_655 S
Sc88 O101 2.105 . S
Sc88 O104 2.105 1_655 S
Sc88 O107 2.105 . S
Sc89 O91 2.025 . S
Sc89 O99 2.105 . S
Sc89 O103 2.105 . S
Sc89 O105 2.105 . S
Sc89 O109 2.105 . S
Sc90 O91 2.025 1_455 S
Sc90 O100 2.105 1_455 S
Sc90 O102 2.105 . S
Sc90 O106 2.105 1_455 S
Sc90 O108 2.105 . S
O91 Sc88 2.025 . S
O91 Sc89 2.025 . S
O91 Sc90 2.025 1_655 S
C92 O98 1.268 . S
C92 O108 1.268 . S
C93 O99 1.268 . S
C93 O107 1.268 . S
C94 O100 1.268 . S
C94 O109 1.268 . S
C95 O101 1.268 . S
C95 O105 1.268 . S
C96 O102 1.268 . S
C96 O104 1.268 . S
C97 O103 1.268 . S
C97 O106 1.268 . S
O98 Sc88 2.105 1_455 S
O98 C92 1.268 . S
O99 Sc89 2.105 . S
O99 C93 1.268 . S
O100 Sc90 2.105 1_655 S
O100 C94 1.268 . S
O101 Sc88 2.105 . S
O101 C95 1.268 . S
O102 Sc90 2.105 . S
O102 C96 1.268 . S
O103 Sc89 2.105 . S
O103 C97 1.268 . S
O104 Sc88 2.105 1_455 S
O104 C96 1.268 . S
O105 Sc89 2.105 . S
O105 C95 1.268 . S
O106 Sc90 2.105 1_655 S
O106 C97 1.268 . S
O107 Sc88 2.105 . S
O107 C93 1.268 . S
O108 Sc90 2.105 . S
O108 C92 1.268 . S
O109 Sc89 2.105 . S
O109 C94 1.268 . S
Sc110 O113 2.025 . S
Sc110 O120 2.105 . S
Sc110 O123 2.105 . S
Sc110 O126 2.105 . S
Sc110 O129 2.105 . S
Sc111 O113 2.025 . S
Sc111 O121 2.105 . S
Sc111 O125 2.105 . S
Sc111 O127 2.105 . S
Sc111 O131 2.105 . S
Sc112 O113 2.025 . S
Sc112 O122 2.105 . S
Sc112 O124 2.105 . S
Sc112 O128 2.105 . S
Sc112 O130 2.105 . S
O113 Sc110 2.025 . S
O113 Sc111 2.025 . S
O113 Sc112 2.025 . S
C114 O120 1.268 . S
C114 O130 1.268 . S
C115 O121 1.268 . S
C115 O129 1.268 . S
C116 O122 1.268 . S
C116 O131 1.268 . S
C117 O123 1.268 . S
C117 O127 1.268 . S
C118 O124 1.268 . S
C118 O126 1.268 . S
C119 O125 1.268 . S
C119 O128 1.268 . S
O120 Sc110 2.105 . S
O120 C114 1.268 . S
O121 Sc111 2.105 . S
O121 C115 1.268 . S
O122 Sc112 2.105 . S
O122 C116 1.268 . S
O123 Sc110 2.105 . S
O123 C117 1.268 . S
O124 Sc112 2.105 . S
O124 C118 1.268 . S
O125 Sc111 2.105 . S
O125 C119 1.268 . S
O126 Sc110 2.105 . S
O126 C118 1.268 . S
O127 Sc111 2.105 . S
O127 C117 1.268 . S
O128 Sc112 2.105 . S
O128 C119 1.268 . S
O129 Sc110 2.105 . S
O129 C115 1.268 . S
O130 Sc112 2.105 . S
O130 C114 1.268 . S
O131 Sc111 2.105 . S
O131 C116 1.268 . S
Sc132 O135 2.025 1_455 S
Sc132 O142 2.105 . S
Sc132 O145 2.105 1_455 S
Sc132 O148 2.105 . S
Sc132 O151 2.105 1_455 S
Sc133 O135 2.025 . S
Sc133 O143 2.105 . S
Sc133 O147 2.105 . S
Sc133 O149 2.105 . S
Sc133 O153 2.105 . S
Sc134 O135 2.025 . S
Sc134 O144 2.105 . S
Sc134 O146 2.105 1_655 S
Sc134 O150 2.105 . S
Sc134 O152 2.105 1_655 S
O135 Sc132 2.025 1_655 S
O135 Sc133 2.025 . S
O135 Sc134 2.025 . S
C136 O142 1.268 . S
C136 O152 1.268 . S
C137 O143 1.268 . S
C137 O151 1.268 . S
C138 O144 1.268 . S
C138 O153 1.268 . S
C139 O145 1.268 . S
C139 O149 1.268 . S
C140 O146 1.268 . S
C140 O148 1.268 . S
C141 O147 1.268 . S
C141 O150 1.268 . S
O142 Sc132 2.105 . S
O142 C136 1.268 . S
O143 Sc133 2.105 . S
O143 C137 1.268 . S
O144 Sc134 2.105 . S
O144 C138 1.268 . S
O145 Sc132 2.105 1_655 S
O145 C139 1.268 . S
O146 Sc134 2.105 1_455 S
O146 C140 1.268 . S
O147 Sc133 2.105 . S
O147 C141 1.268 . S
O148 Sc132 2.105 . S
O148 C140 1.268 . S
O149 Sc133 2.105 . S
O149 C139 1.268 . S
O150 Sc134 2.105 . S
O150 C141 1.268 . S
O151 Sc132 2.105 1_655 S
O151 C137 1.268 . S
O152 Sc134 2.105 1_455 S
O152 C136 1.268 . S
O153 Sc133 2.105 . S
O153 C138 1.268 . S
Sc154 O157 2.025 . S
Sc154 O164 2.105 . S
Sc154 O167 2.105 . S
Sc154 O170 2.105 . S
Sc154 O173 2.105 . S
Sc155 O157 2.025 . S
Sc155 O165 2.105 . S
Sc155 O169 2.105 . S
Sc155 O171 2.105 . S
Sc155 O175 2.105 . S
Sc156 O157 2.025 . S
Sc156 O166 2.105 . S
Sc156 O168 2.105 . S
Sc156 O172 2.105 . S
Sc156 O174 2.105 . S
O157 Sc154 2.025 . S
O157 Sc155 2.025 . S
O157 Sc156 2.025 . S
C158 O164 1.268 . S
C158 O174 1.268 . S
C159 O165 1.268 . S
C159 O173 1.268 . S
C160 O166 1.268 . S
C160 O175 1.268 . S
C161 O167 1.268 . S
C161 O171 1.268 . S
C162 O168 1.268 . S
C162 O170 1.268 . S
C163 O169 1.268 . S
C163 O172 1.268 . S
O164 Sc154 2.105 . S
O164 C158 1.268 . S
O165 Sc155 2.105 . S
O165 C159 1.268 . S
O166 Sc156 2.105 . S
O166 C160 1.268 . S
O167 Sc154 2.105 . S
O167 C161 1.268 . S
O168 Sc156 2.105 . S
O168 C162 1.268 . S
O169 Sc155 2.105 . S
O169 C163 1.268 . S
O170 Sc154 2.105 . S
O170 C162 1.268 . S
O171 Sc155 2.105 . S
O171 C161 1.268 . S
O172 Sc156 2.105 . S
O172 C163 1.268 . S
O173 Sc154 2.105 . S
O173 C159 1.268 . S
O174 Sc156 2.105 . S
O174 C158 1.268 . S
O175 Sc155 2.105 . S
O175 C160 1.268 . S
Sc176 O179 2.025 1_565 S
Sc176 O186 2.105 . S
Sc176 O189 2.105 1_565 S
Sc176 O192 2.105 . S
Sc176 O195 2.105 1_565 S
Sc177 O179 2.025 . S
Sc177 O187 2.105 . S
Sc177 O191 2.105 . S
Sc177 O193 2.105 . S
Sc177 O197 2.105 . S
Sc178 O179 2.025 . S
Sc178 O188 2.105 . S
Sc178 O190 2.105 1_545 S
Sc178 O194 2.105 . S
Sc178 O196 2.105 1_545 S
O179 Sc176 2.025 1_545 S
O179 Sc177 2.025 . S
O179 Sc178 2.025 . S
C180 O186 1.268 . S
C180 O196 1.268 . S
C181 O187 1.268 . S
C181 O195 1.268 . S
C182 O188 1.268 . S
C182 O197 1.268 . S
C183 O189 1.268 . S
C183 O193 1.268 . S
C184 O190 1.268 . S
C184 O192 1.268 . S
C185 O191 1.268 . S
C185 O194 1.268 . S
O186 Sc176 2.105 . S
O186 C180 1.268 . S
O187 Sc177 2.105 . S
O187 C181 1.268 . S
O188 Sc178 2.105 . S
O188 C182 1.268 . S
O189 Sc176 2.105 1_545 S
O189 C183 1.268 . S
O190 Sc178 2.105 1_565 S
O190 C184 1.268 . S
O191 Sc177 2.105 . S
O191 C185 1.268 . S
O192 Sc176 2.105 . S
O192 C184 1.268 . S
O193 Sc177 2.105 . S
O193 C183 1.268 . S
O194 Sc178 2.105 . S
O194 C185 1.268 . S
O195 Sc176 2.105 1_545 S
O195 C181 1.268 . S
O196 Sc178 2.105 1_565 S
O196 C180 1.268 . S
O197 Sc177 2.105 . S
O197 C182 1.268 . S
Sc198 O201 2.025 1_545 S
Sc198 O208 2.105 . S
Sc198 O211 2.105 1_545 S
Sc198 O214 2.105 . S
Sc198 O217 2.105 1_545 S
Sc199 O201 2.025 . S
Sc199 O209 2.105 . S
Sc199 O213 2.105 . S
Sc199 O215 2.105 . S
Sc199 O219 2.105 . S
Sc200 O201 2.025 . S
Sc200 O210 2.105 . S
Sc200 O212 2.105 1_565 S
Sc200 O216 2.105 . S
Sc200 O218 2.105 1_565 S
O201 Sc198 2.025 1_565 S
O201 Sc199 2.025 . S
O201 Sc200 2.025 . S
C202 O208 1.268 . S
C202 O218 1.268 . S
C203 O209 1.268 . S
C203 O217 1.268 . S
C204 O210 1.268 . S
C204 O219 1.268 . S
C205 O211 1.268 . S
C205 O215 1.268 . S
C206 O212 1.268 . S
C206 O214 1.268 . S
C207 O213 1.268 . S
C207 O216 1.268 . S
O208 Sc198 2.105 . S
O208 C202 1.268 . S
O209 Sc199 2.105 . S
O209 C203 1.268 . S
O210 Sc200 2.105 . S
O210 C204 1.268 . S
O211 Sc198 2.105 1_565 S
O211 C205 1.268 . S
O212 Sc200 2.105 1_545 S
O212 C206 1.268 . S
O213 Sc199 2.105 . S
O213 C207 1.268 . S
O214 Sc198 2.105 . S
O214 C206 1.268 . S
O215 Sc199 2.105 . S
O215 C205 1.268 . S
O216 Sc200 2.105 . S
O216 C207 1.268 . S
O217 Sc198 2.105 1_565 S
O217 C203 1.268 . S
O218 Sc200 2.105 1_545 S
O218 C202 1.268 . S
O219 Sc199 2.105 . S
O219 C204 1.268 . S
Sc220 O223 2.025 1_655 S
Sc220 O230 2.105 . S
Sc220 O233 2.105 1_655 S
Sc220 O236 2.105 . S
Sc220 O239 2.105 1_655 S
Sc221 O223 2.025 . S
Sc221 O231 2.105 . S
Sc221 O235 2.105 . S
Sc221 O237 2.105 . S
Sc221 O241 2.105 . S
Sc222 O223 2.025 . S
Sc222 O232 2.105 . S
Sc222 O234 2.105 1_455 S
Sc222 O238 2.105 . S
Sc222 O240 2.105 1_455 S
O223 Sc220 2.025 1_455 S
O223 Sc221 2.025 . S
O223 Sc222 2.025 . S
C224 O230 1.268 . S
C224 O240 1.268 . S
C225 O231 1.268 . S
C225 O239 1.268 . S
C226 O232 1.268 . S
C226 O241 1.268 . S
C227 O233 1.268 . S
C227 O237 1.268 . S
C228 O234 1.268 . S
C228 O236 1.268 . S
C229 O235 1.268 . S
C229 O238 1.268 . S
O230 Sc220 2.105 . S
O230 C224 1.268 . S
O231 Sc221 2.105 . S
O231 C225 1.268 . S
O232 Sc222 2.105 . S
O232 C226 1.268 . S
O233 Sc220 2.105 1_455 S
O233 C227 1.268 . S
O234 Sc222 2.105 1_655 S
O234 C228 1.268 . S
O235 Sc221 2.105 . S
O235 C229 1.268 . S
O236 Sc220 2.105 . S
O236 C228 1.268 . S
O237 Sc221 2.105 . S
O237 C227 1.268 . S
O238 Sc222 2.105 . S
O238 C229 1.268 . S
O239 Sc220 2.105 1_455 S
O239 C225 1.268 . S
O240 Sc222 2.105 1_655 S
O240 C224 1.268 . S
O241 Sc221 2.105 . S
O241 C226 1.268 . S
Sc242 O245 2.025 . S
Sc242 O252 2.105 . S
Sc242 O255 2.105 . S
Sc242 O258 2.105 . S
Sc242 O261 2.105 . S
Sc243 O245 2.025 . S
Sc243 O253 2.105 . S
Sc243 O257 2.105 . S
Sc243 O259 2.105 . S
Sc243 O263 2.105 . S
Sc244 O245 2.025 . S
Sc244 O254 2.105 . S
Sc244 O256 2.105 . S
Sc244 O260 2.105 . S
Sc244 O262 2.105 . S
O245 Sc242 2.025 . S
O245 Sc243 2.025 . S
O245 Sc244 2.025 . S
C246 O252 1.268 . S
C246 O262 1.268 . S
C247 O253 1.268 . S
C247 O261 1.268 . S
C248 O254 1.268 . S
C248 O263 1.268 . S
C249 O255 1.268 . S
C249 O259 1.268 . S
C250 O256 1.268 . S
C250 O258 1.268 . S
C251 O257 1.268 . S
C251 O260 1.268 . S
O252 Sc242 2.105 . S
O252 C246 1.268 . S
O253 Sc243 2.105 . S
O253 C247 1.268 . S
O254 Sc244 2.105 . S
O254 C248 1.268 . S
O255 Sc242 2.105 . S
O255 C249 1.268 . S
O256 Sc244 2.105 . S
O256 C250 1.268 . S
O257 Sc243 2.105 . S
O257 C251 1.268 . S
O258 Sc242 2.105 . S
O258 C250 1.268 . S
O259 Sc243 2.105 . S
O259 C249 1.268 . S
O260 Sc244 2.105 . S
O260 C251 1.268 . S
O261 Sc242 2.105 . S
O261 C247 1.268 . S
O262 Sc244 2.105 . S
O262 C246 1.268 . S
O263 Sc243 2.105 . S
O263 C248 1.268 . S
Sc264 O267 2.025 . S
Sc264 O274 2.105 . S
Sc264 O277 2.105 . S
Sc264 O280 2.105 . S
Sc264 O283 2.105 . S
Sc265 O267 2.025 . S
Sc265 O275 2.105 . S
Sc265 O279 2.105 . S
Sc265 O281 2.105 . S
Sc265 O285 2.105 . S
Sc266 O267 2.025 . S
Sc266 O276 2.105 . S
Sc266 O278 2.105 . S
Sc266 O282 2.105 . S
Sc266 O284 2.105 . S
O267 Sc264 2.025 . S
O267 Sc265 2.025 . S
O267 Sc266 2.025 . S
C268 O274 1.268 . S
C268 O284 1.268 . S
C269 O275 1.268 . S
C269 O283 1.268 . S
C270 O276 1.268 . S
C270 O285 1.268 . S
C271 O277 1.268 . S
C271 O281 1.268 . S
C272 O278 1.268 . S
C272 O280 1.268 . S
C273 O279 1.268 . S
C273 O282 1.268 . S
O274 Sc264 2.105 . S
O274 C268 1.268 . S
O275 Sc265 2.105 . S
O275 C269 1.268 . S
O276 Sc266 2.105 . S
O276 C270 1.268 . S
O277 Sc264 2.105 . S
O277 C271 1.268 . S
O278 Sc266 2.105 . S
O278 C272 1.268 . S
O279 Sc265 2.105 . S
O279 C273 1.268 . S
O280 Sc264 2.105 . S
O280 C272 1.268 . S
O281 Sc265 2.105 . S
O281 C271 1.268 . S
O282 Sc266 2.105 . S
O282 C273 1.268 . S
O283 Sc264 2.105 . S
O283 C269 1.268 . S
O284 Sc266 2.105 . S
O284 C268 1.268 . S
O285 Sc265 2.105 . S
O285 C270 1.268 . S
Sc286 O289 2.025 . S
Sc286 O296 2.105 . S
Sc286 O299 2.105 . S
Sc286 O302 2.105 . S
Sc286 O305 2.105 . S
Sc287 O289 2.025 . S
Sc287 O297 2.105 . S
Sc287 O301 2.105 . S
Sc287 O303 2.105 . S
Sc287 O307 2.105 . S
Sc288 O289 2.025 . S
Sc288 O298 2.105 . S
Sc288 O300 2.105 . S
Sc288 O304 2.105 . S
Sc288 O306 2.105 . S
O289 Sc286 2.025 . S
O289 Sc287 2.025 . S
O289 Sc288 2.025 . S
C290 O296 1.268 . S
C290 O306 1.268 . S
C291 O297 1.268 . S
C291 O305 1.268 . S
C292 O298 1.268 . S
C292 O307 1.268 . S
C293 O299 1.268 . S
C293 O303 1.268 . S
C294 O300 1.268 . S
C294 O302 1.268 . S
C295 O301 1.268 . S
C295 O304 1.268 . S
O296 Sc286 2.105 . S
O296 C290 1.268 . S
O297 Sc287 2.105 . S
O297 C291 1.268 . S
O298 Sc288 2.105 . S
O298 C292 1.268 . S
O299 Sc286 2.105 . S
O299 C293 1.268 . S
O300 Sc288 2.105 . S
O300 C294 1.268 . S
O301 Sc287 2.105 . S
O301 C295 1.268 . S
O302 Sc286 2.105 . S
O302 C294 1.268 . S
O303 Sc287 2.105 . S
O303 C293 1.268 . S
O304 Sc288 2.105 . S
O304 C295 1.268 . S
O305 Sc286 2.105 . S
O305 C291 1.268 . S
O306 Sc288 2.105 . S
O306 C290 1.268 . S
O307 Sc287 2.105 . S
O307 C292 1.268 . S
Sc308 O311 2.025 . S
Sc308 O318 2.105 . S
Sc308 O321 2.105 . S
Sc308 O324 2.105 . S
Sc308 O327 2.105 . S
Sc309 O311 2.025 . S
Sc309 O319 2.105 . S
Sc309 O323 2.105 . S
Sc309 O325 2.105 . S
Sc309 O329 2.105 . S
Sc310 O311 2.025 . S
Sc310 O320 2.105 . S
Sc310 O322 2.105 . S
Sc310 O326 2.105 . S
Sc310 O328 2.105 . S
O311 Sc308 2.025 . S
O311 Sc309 2.025 . S
O311 Sc310 2.025 . S
C312 O318 1.268 . S
C312 O328 1.268 . S
C313 O319 1.268 . S
C313 O327 1.268 . S
C314 O320 1.268 . S
C314 O329 1.268 . S
C315 O321 1.268 . S
C315 O325 1.268 . S
C316 O322 1.268 . S
C316 O324 1.268 . S
C317 O323 1.268 . S
C317 O326 1.268 . S
O318 Sc308 2.105 . S
O318 C312 1.268 . S
O319 Sc309 2.105 . S
O319 C313 1.268 . S
O320 Sc310 2.105 . S
O320 C314 1.268 . S
O321 Sc308 2.105 . S
O321 C315 1.268 . S
O322 Sc310 2.105 . S
O322 C316 1.268 . S
O323 Sc309 2.105 . S
O323 C317 1.268 . S
O324 Sc308 2.105 . S
O324 C316 1.268 . S
O325 Sc309 2.105 . S
O325 C315 1.268 . S
O326 Sc310 2.105 . S
O326 C317 1.268 . S
O327 Sc308 2.105 . S
O327 C313 1.268 . S
O328 Sc310 2.105 . S
O328 C312 1.268 . S
O329 Sc309 2.105 . S
O329 C314 1.268 . S
Sc330 O333 2.025 . S
Sc330 O340 2.105 . S
Sc330 O343 2.105 . S
Sc330 O346 2.105 . S
Sc330 O349 2.105 . S
Sc331 O333 2.025 . S
Sc331 O341 2.105 . S
Sc331 O345 2.105 . S
Sc331 O347 2.105 . S
Sc331 O351 2.105 . S
Sc332 O333 2.025 . S
Sc332 O342 2.105 . S
Sc332 O344 2.105 . S
Sc332 O348 2.105 . S
Sc332 O350 2.105 . S
O333 Sc330 2.025 . S
O333 Sc331 2.025 . S
O333 Sc332 2.025 . S
C334 O340 1.268 . S
C334 O350 1.268 . S
C335 O341 1.268 . S
C335 O349 1.268 . S
C336 O342 1.268 . S
C336 O351 1.268 . S
C337 O343 1.268 . S
C337 O347 1.268 . S
C338 O344 1.268 . S
C338 O346 1.268 . S
C339 O345 1.268 . S
C339 O348 1.268 . S
O340 Sc330 2.105 . S
O340 C334 1.268 . S
O341 Sc331 2.105 . S
O341 C335 1.268 . S
O342 Sc332 2.105 . S
O342 C336 1.268 . S
O343 Sc330 2.105 . S
O343 C337 1.268 . S
O344 Sc332 2.105 . S
O344 C338 1.268 . S
O345 Sc331 2.105 . S
O345 C339 1.268 . S
O346 Sc330 2.105 . S
O346 C338 1.268 . S
O347 Sc331 2.105 . S
O347 C337 1.268 . S
O348 Sc332 2.105 . S
O348 C339 1.268 . S
O349 Sc330 2.105 . S
O349 C335 1.268 . S
O350 Sc332 2.105 . S
O350 C334 1.268 . S
O351 Sc331 2.105 . S
O351 C336 1.268 . S
Sc352 O355 2.025 . S
Sc352 O362 2.105 . S
Sc352 O365 2.105 . S
Sc352 O368 2.105 . S
Sc352 O371 2.105 . S
Sc353 O355 2.025 . S
Sc353 O363 2.105 . S
Sc353 O367 2.105 . S
Sc353 O369 2.105 . S
Sc353 O373 2.105 . S
Sc354 O355 2.025 . S
Sc354 O364 2.105 . S
Sc354 O366 2.105 . S
Sc354 O370 2.105 . S
Sc354 O372 2.105 . S
O355 Sc352 2.025 . S
O355 Sc353 2.025 . S
O355 Sc354 2.025 . S
C356 O362 1.268 . S
C356 O372 1.268 . S
C357 O363 1.268 . S
C357 O371 1.268 . S
C358 O364 1.268 . S
C358 O373 1.268 . S
C359 O365 1.268 . S
C359 O369 1.268 . S
C360 O366 1.268 . S
C360 O368 1.268 . S
C361 O367 1.268 . S
C361 O370 1.268 . S
O362 Sc352 2.105 . S
O362 C356 1.268 . S
O363 Sc353 2.105 . S
O363 C357 1.268 . S
O364 Sc354 2.105 . S
O364 C358 1.268 . S
O365 Sc352 2.105 . S
O365 C359 1.268 . S
O366 Sc354 2.105 . S
O366 C360 1.268 . S
O367 Sc353 2.105 . S
O367 C361 1.268 . S
O368 Sc352 2.105 . S
O368 C360 1.268 . S
O369 Sc353 2.105 . S
O369 C359 1.268 . S
O370 Sc354 2.105 . S
O370 C361 1.268 . S
O371 Sc352 2.105 . S
O371 C357 1.268 . S
O372 Sc354 2.105 . S
O372 C356 1.268 . S
O373 Sc353 2.105 . S
O373 C358 1.268 . S
Sc374 O377 2.025 . S
Sc374 O384 2.105 . S
Sc374 O387 2.105 . S
Sc374 O390 2.105 . S
Sc374 O393 2.105 . S
Sc375 O377 2.025 . S
Sc375 O385 2.105 . S
Sc375 O389 2.105 . S
Sc375 O391 2.105 . S
Sc375 O395 2.105 . S
Sc376 O377 2.025 . S
Sc376 O386 2.105 . S
Sc376 O388 2.105 . S
Sc376 O392 2.105 . S
Sc376 O394 2.105 . S
O377 Sc374 2.025 . S
O377 Sc375 2.025 . S
O377 Sc376 2.025 . S
C378 O384 1.268 . S
C378 O394 1.268 . S
C379 O385 1.268 . S
C379 O393 1.268 . S
C380 O386 1.268 . S
C380 O395 1.268 . S
C381 O387 1.268 . S
C381 O391 1.268 . S
C382 O388 1.268 . S
C382 O390 1.268 . S
C383 O389 1.268 . S
C383 O392 1.268 . S
O384 Sc374 2.105 . S
O384 C378 1.268 . S
O385 Sc375 2.105 . S
O385 C379 1.268 . S
O386 Sc376 2.105 . S
O386 C380 1.268 . S
O387 Sc374 2.105 . S
O387 C381 1.268 . S
O388 Sc376 2.105 . S
O388 C382 1.268 . S
O389 Sc375 2.105 . S
O389 C383 1.268 . S
O390 Sc374 2.105 . S
O390 C382 1.268 . S
O391 Sc375 2.105 . S
O391 C381 1.268 . S
O392 Sc376 2.105 . S
O392 C383 1.268 . S
O393 Sc374 2.105 . S
O393 C379 1.268 . S
O394 Sc376 2.105 . S
O394 C378 1.268 . S
O395 Sc375 2.105 . S
O395 C380 1.268 . S
Sc396 O399 2.025 . S
Sc396 O406 2.105 . S
Sc396 O409 2.105 . S
Sc396 O412 2.105 . S
Sc396 O415 2.105 . S
Sc397 O399 2.025 . S
Sc397 O407 2.105 . S
Sc397 O411 2.105 . S
Sc397 O413 2.105 . S
Sc397 O417 2.105 . S
Sc398 O399 2.025 . S
Sc398 O408 2.105 . S
Sc398 O410 2.105 . S
Sc398 O414 2.105 . S
Sc398 O416 2.105 . S
O399 Sc396 2.025 . S
O399 Sc397 2.025 . S
O399 Sc398 2.025 . S
C400 O406 1.268 . S
C400 O416 1.268 . S
C401 O407 1.268 . S
C401 O415 1.268 . S
C402 O408 1.268 . S
C402 O417 1.268 . S
C403 O409 1.268 . S
C403 O413 1.268 . S
C404 O410 1.268 . S
C404 O412 1.268 . S
C405 O411 1.268 . S
C405 O414 1.268 . S
O406 Sc396 2.105 . S
O406 C400 1.268 . S
O407 Sc397 2.105 . S
O407 C401 1.268 . S
O408 Sc398 2.105 . S
O408 C402 1.268 . S
O409 Sc396 2.105 . S
O409 C403 1.268 . S
O410 Sc398 2.105 . S
O410 C404 1.268 . S
O411 Sc397 2.105 . S
O411 C405 1.268 . S
O412 Sc396 2.105 . S
O412 C404 1.268 . S
O413 Sc397 2.105 . S
O413 C403 1.268 . S
O414 Sc398 2.105 . S
O414 C405 1.268 . S
O415 Sc396 2.105 . S
O415 C401 1.268 . S
O416 Sc398 2.105 . S
O416 C400 1.268 . S
O417 Sc397 2.105 . S
O417 C402 1.268 . S
Sc418 O421 2.025 . S
Sc418 O428 2.105 . S
Sc418 O431 2.105 . S
Sc418 O434 2.105 . S
Sc418 O437 2.105 . S
Sc419 O421 2.025 . S
Sc419 O429 2.105 . S
Sc419 O433 2.105 . S
Sc419 O435 2.105 . S
Sc419 O439 2.105 . S
Sc420 O421 2.025 . S
Sc420 O430 2.105 . S
Sc420 O432 2.105 . S
Sc420 O436 2.105 . S
Sc420 O438 2.105 . S
O421 Sc418 2.025 . S
O421 Sc419 2.025 . S
O421 Sc420 2.025 . S
C422 O428 1.268 . S
C422 O438 1.268 . S
C423 O429 1.268 . S
C423 O437 1.268 . S
C424 O430 1.268 . S
C424 O439 1.268 . S
C425 O431 1.268 . S
C425 O435 1.268 . S
C426 O432 1.268 . S
C426 O434 1.268 . S
C427 O433 1.268 . S
C427 O436 1.268 . S
O428 Sc418 2.105 . S
O428 C422 1.268 . S
O429 Sc419 2.105 . S
O429 C423 1.268 . S
O430 Sc420 2.105 . S
O430 C424 1.268 . S
O431 Sc418 2.105 . S
O431 C425 1.268 . S
O432 Sc420 2.105 . S
O432 C426 1.268 . S
O433 Sc419 2.105 . S
O433 C427 1.268 . S
O434 Sc418 2.105 . S
O434 C426 1.268 . S
O435 Sc419 2.105 . S
O435 C425 1.268 . S
O436 Sc420 2.105 . S
O436 C427 1.268 . S
O437 Sc418 2.105 . S
O437 C423 1.268 . S
O438 Sc420 2.105 . S
O438 C422 1.268 . S
O439 Sc419 2.105 . S
O439 C424 1.268 . S
Sc440 O443 2.025 . S
Sc440 O450 2.105 . S
Sc440 O453 2.105 . S
Sc440 O456 2.105 . S
Sc440 O459 2.105 . S
Sc441 O443 2.025 . S
Sc441 O451 2.105 . S
Sc441 O455 2.105 . S
Sc441 O457 2.105 . S
Sc441 O461 2.105 . S
Sc442 O443 2.025 . S
Sc442 O452 2.105 . S
Sc442 O454 2.105 . S
Sc442 O458 2.105 . S
Sc442 O460 2.105 . S
O443 Sc440 2.025 . S
O443 Sc441 2.025 . S
O443 Sc442 2.025 . S
C444 O450 1.268 . S
C444 O460 1.268 . S
C445 O451 1.268 . S
C445 O459 1.268 . S
C446 O452 1.268 . S
C446 O461 1.268 . S
C447 O453 1.268 . S
C447 O457 1.268 . S
C448 O454 1.268 . S
C448 O456 1.268 . S
C449 O455 1.268 . S
C449 O458 1.268 . S
O450 Sc440 2.105 . S
O450 C444 1.268 . S
O451 Sc441 2.105 . S
O451 C445 1.268 . S
O452 Sc442 2.105 . S
O452 C446 1.268 . S
O453 Sc440 2.105 . S
O453 C447 1.268 . S
O454 Sc442 2.105 . S
O454 C448 1.268 . S
O455 Sc441 2.105 . S
O455 C449 1.268 . S
O456 Sc440 2.105 . S
O456 C448 1.268 . S
O457 Sc441 2.105 . S
O457 C447 1.268 . S
O458 Sc442 2.105 . S
O458 C449 1.268 . S
O459 Sc440 2.105 . S
O459 C445 1.268 . S
O460 Sc442 2.105 . S
O460 C444 1.268 . S
O461 Sc441 2.105 . S
O461 C446 1.268 . S
Sc462 O465 2.025 . S
Sc462 O472 2.105 . S
Sc462 O475 2.105 . S
Sc462 O478 2.105 . S
Sc462 O481 2.105 . S
Sc463 O465 2.025 . S
Sc463 O473 2.105 . S
Sc463 O477 2.105 . S
Sc463 O479 2.105 . S
Sc463 O483 2.105 . S
Sc464 O465 2.025 . S
Sc464 O474 2.105 . S
Sc464 O476 2.105 . S
Sc464 O480 2.105 . S
Sc464 O482 2.105 . S
O465 Sc462 2.025 . S
O465 Sc463 2.025 . S
O465 Sc464 2.025 . S
C466 O472 1.268 . S
C466 O482 1.268 . S
C467 O473 1.268 . S
C467 O481 1.268 . S
C468 O474 1.268 . S
C468 O483 1.268 . S
C469 O475 1.247 1_554 S
C469 O479 1.249 1_554 S
C470 O476 1.268 . S
C470 O478 1.268 . S
C471 O477 1.268 . S
C471 O480 1.268 . S
O472 Sc462 2.105 . S
O472 C466 1.268 . S
O473 Sc463 2.105 . S
O473 C467 1.268 . S
O474 Sc464 2.105 . S
O474 C468 1.268 . S
O475 Sc462 2.105 . S
O475 C469 1.247 1_556 S
O476 Sc464 2.105 . S
O476 C470 1.268 . S
O477 Sc463 2.105 . S
O477 C471 1.268 . S
O478 Sc462 2.105 . S
O478 C470 1.268 . S
O479 Sc463 2.105 . S
O479 C469 1.249 1_556 S
O480 Sc464 2.105 . S
O480 C471 1.268 . S
O481 Sc462 2.105 . S
O481 C467 1.268 . S
O482 Sc464 2.105 . S
O482 C466 1.268 . S
O483 Sc463 2.105 . S
O483 C468 1.268 . S
Sc484 O487 2.025 . S
Sc484 O494 2.105 . S
Sc484 O497 2.105 . S
Sc484 O500 2.105 . S
Sc484 O503 2.105 . S
Sc485 O487 2.025 . S
Sc485 O495 2.105 . S
Sc485 O499 2.105 . S
Sc485 O501 2.105 . S
Sc485 O505 2.105 . S
Sc486 O487 2.025 . S
Sc486 O496 2.105 . S
Sc486 O498 2.105 . S
Sc486 O502 2.105 . S
Sc486 O504 2.105 . S
O487 Sc484 2.025 . S
O487 Sc485 2.025 . S
O487 Sc486 2.025 . S
C488 O494 1.268 . S
C488 O504 1.268 . S
C489 O495 1.268 . S
C489 O503 1.268 . S
C490 O496 1.268 . S
C490 O505 1.268 . S
C491 O497 1.247 1_554 S
C491 O501 1.249 1_554 S
C492 O498 1.268 . S
C492 O500 1.268 . S
C493 O499 1.268 . S
C493 O502 1.268 . S
O494 Sc484 2.105 . S
O494 C488 1.268 . S
O495 Sc485 2.105 . S
O495 C489 1.268 . S
O496 Sc486 2.105 . S
O496 C490 1.268 . S
O497 Sc484 2.105 . S
O497 C491 1.247 1_556 S
O498 Sc486 2.105 . S
O498 C492 1.268 . S
O499 Sc485 2.105 . S
O499 C493 1.268 . S
O500 Sc484 2.105 . S
O500 C492 1.268 . S
O501 Sc485 2.105 . S
O501 C491 1.249 1_556 S
O502 Sc486 2.105 . S
O502 C493 1.268 . S
O503 Sc484 2.105 . S
O503 C489 1.268 . S
O504 Sc486 2.105 . S
O504 C488 1.268 . S
O505 Sc485 2.105 . S
O505 C490 1.268 . S
Sc506 O509 2.025 . S
Sc506 O516 2.105 . S
Sc506 O519 2.105 . S
Sc506 O522 2.105 . S
Sc506 O525 2.105 . S
Sc507 O509 2.025 . S
Sc507 O517 2.105 . S
Sc507 O521 2.105 . S
Sc507 O523 2.105 . S
Sc507 O527 2.105 . S
Sc508 O509 2.025 . S
Sc508 O518 2.105 . S
Sc508 O520 2.105 . S
Sc508 O524 2.105 . S
Sc508 O526 2.105 . S
O509 Sc506 2.025 . S
O509 Sc507 2.025 . S
O509 Sc508 2.025 . S
C510 O516 1.268 . S
C510 O526 1.268 . S
C511 O517 1.268 . S
C511 O525 1.268 . S
C512 O518 1.268 . S
C512 O527 1.268 . S
C513 O519 1.247 1_554 S
C513 O523 1.249 1_554 S
C514 O520 1.268 . S
C514 O522 1.268 . S
C515 O521 1.268 . S
C515 O524 1.268 . S
O516 Sc506 2.105 . S
O516 C510 1.268 . S
O517 Sc507 2.105 . S
O517 C511 1.268 . S
O518 Sc508 2.105 . S
O518 C512 1.268 . S
O519 Sc506 2.105 . S
O519 C513 1.247 1_556 S
O520 Sc508 2.105 . S
O520 C514 1.268 . S
O521 Sc507 2.105 . S
O521 C515 1.268 . S
O522 Sc506 2.105 . S
O522 C514 1.268 . S
O523 Sc507 2.105 . S
O523 C513 1.249 1_556 S
O524 Sc508 2.105 . S
O524 C515 1.268 . S
O525 Sc506 2.105 . S
O525 C511 1.268 . S
O526 Sc508 2.105 . S
O526 C510 1.268 . S
O527 Sc507 2.105 . S
O527 C512 1.268 . S
Sc528 O531 2.025 . S
Sc528 O538 2.105 . S
Sc528 O541 2.105 . S
Sc528 O544 2.105 . S
Sc528 O547 2.105 . S
Sc529 O531 2.025 . S
Sc529 O539 2.105 . S
Sc529 O543 2.105 . S
Sc529 O545 2.105 . S
Sc529 O549 2.105 . S
Sc530 O531 2.025 . S
Sc530 O540 2.105 . S
Sc530 O542 2.105 . S
Sc530 O546 2.105 . S
Sc530 O548 2.105 . S
O531 Sc528 2.025 . S
O531 Sc529 2.025 . S
O531 Sc530 2.025 . S
C532 O538 1.268 . S
C532 O548 1.268 . S
C533 O539 1.268 . S
C533 O547 1.268 . S
C534 O540 1.268 . S
C534 O549 1.268 . S
C535 O541 1.268 . S
C535 O545 1.268 . S
C536 O542 1.268 . S
C536 O544 1.268 . S
C537 O543 1.268 . S
C537 O546 1.268 . S
O538 Sc528 2.105 . S
O538 C532 1.268 . S
O539 Sc529 2.105 . S
O539 C533 1.268 . S
O540 Sc530 2.105 . S
O540 C534 1.268 . S
O541 Sc528 2.105 . S
O541 C535 1.268 . S
O542 Sc530 2.105 . S
O542 C536 1.268 . S
O543 Sc529 2.105 . S
O543 C537 1.268 . S
O544 Sc528 2.105 . S
O544 C536 1.268 . S
O545 Sc529 2.105 . S
O545 C535 1.268 . S
O546 Sc530 2.105 . S
O546 C537 1.268 . S
O547 Sc528 2.105 . S
O547 C533 1.268 . S
O548 Sc530 2.105 . S
O548 C532 1.268 . S
O549 Sc529 2.105 . S
O549 C534 1.268 . S
Sc550 O553 2.025 . S
Sc550 O560 2.105 . S
Sc550 O563 2.105 . S
Sc550 O566 2.105 . S
Sc550 O569 2.105 . S
Sc551 O553 2.025 . S
Sc551 O561 2.105 . S
Sc551 O565 2.105 . S
Sc551 O567 2.105 . S
Sc551 O571 2.105 . S
Sc552 O553 2.025 . S
Sc552 O562 2.105 . S
Sc552 O564 2.105 . S
Sc552 O568 2.105 . S
Sc552 O570 2.105 . S
O553 Sc550 2.025 . S
O553 Sc551 2.025 . S
O553 Sc552 2.025 . S
C554 O560 1.268 . S
C554 O570 1.268 . S
C555 O561 1.268 . S
C555 O569 1.268 . S
C556 O562 1.268 . S
C556 O571 1.268 . S
C557 O563 1.268 . S
C557 O567 1.268 . S
C558 O564 1.268 . S
C558 O566 1.268 . S
C559 O565 1.268 . S
C559 O568 1.268 . S
O560 Sc550 2.105 . S
O560 C554 1.268 . S
O561 Sc551 2.105 . S
O561 C555 1.268 . S
O562 Sc552 2.105 . S
O562 C556 1.268 . S
O563 Sc550 2.105 . S
O563 C557 1.268 . S
O564 Sc552 2.105 . S
O564 C558 1.268 . S
O565 Sc551 2.105 . S
O565 C559 1.268 . S
O566 Sc550 2.105 . S
O566 C558 1.268 . S
O567 Sc551 2.105 . S
O567 C557 1.268 . S
O568 Sc552 2.105 . S
O568 C559 1.268 . S
O569 Sc550 2.105 . S
O569 C555 1.268 . S
O570 Sc552 2.105 . S
O570 C554 1.268 . S
O571 Sc551 2.105 . S
O571 C556 1.268 . S
Sc572 O575 2.025 . S
Sc572 O582 2.105 . S
Sc572 O585 2.105 . S
Sc572 O588 2.105 . S
Sc572 O591 2.105 . S
Sc573 O575 2.025 . S
Sc573 O583 2.105 . S
Sc573 O587 2.105 . S
Sc573 O589 2.105 . S
Sc573 O593 2.105 . S
Sc574 O575 2.025 . S
Sc574 O584 2.105 . S
Sc574 O586 2.105 . S
Sc574 O590 2.105 . S
Sc574 O592 2.105 . S
O575 Sc572 2.025 . S
O575 Sc573 2.025 . S
O575 Sc574 2.025 . S
C576 O582 1.268 . S
C576 O592 1.268 . S
C577 O583 1.268 . S
C577 O591 1.268 . S
C578 O584 1.268 . S
C578 O593 1.268 . S
C579 O585 1.268 . S
C579 O589 1.268 . S
C580 O586 1.268 . S
C580 O588 1.268 . S
C581 O587 1.268 . S
C581 O590 1.268 . S
O582 Sc572 2.105 . S
O582 C576 1.268 . S
O583 Sc573 2.105 . S
O583 C577 1.268 . S
O584 Sc574 2.105 . S
O584 C578 1.268 . S
O585 Sc572 2.105 . S
O585 C579 1.268 . S
O586 Sc574 2.105 . S
O586 C580 1.268 . S
O587 Sc573 2.105 . S
O587 C581 1.268 . S
O588 Sc572 2.105 . S
O588 C580 1.268 . S
O589 Sc573 2.105 . S
O589 C579 1.268 . S
O590 Sc574 2.105 . S
O590 C581 1.268 . S
O591 Sc572 2.105 . S
O591 C577 1.268 . S
O592 Sc574 2.105 . S
O592 C576 1.268 . S
O593 Sc573 2.105 . S
O593 C578 1.268 . S
Sc594 O597 2.025 . S
Sc594 O604 2.105 . S
Sc594 O607 2.105 . S
Sc594 O610 2.105 . S
Sc594 O613 2.105 . S
Sc595 O597 2.025 . S
Sc595 O605 2.105 . S
Sc595 O609 2.105 . S
Sc595 O611 2.105 . S
Sc595 O615 2.105 . S
Sc596 O597 2.025 . S
Sc596 O606 2.105 . S
Sc596 O608 2.105 . S
Sc596 O612 2.105 . S
Sc596 O614 2.105 . S
O597 Sc594 2.025 . S
O597 Sc595 2.025 . S
O597 Sc596 2.025 . S
C598 O604 1.268 . S
C598 O614 1.268 . S
C599 O605 1.268 . S
C599 O613 1.268 . S
C600 O606 1.268 . S
C600 O615 1.268 . S
C601 O607 1.268 . S
C601 O611 1.268 . S
C602 O608 1.268 . S
C602 O610 1.268 . S
C603 O609 1.249 1_556 S
C603 O612 1.247 1_556 S
O604 Sc594 2.105 . S
O604 C598 1.268 . S
O605 Sc595 2.105 . S
O605 C599 1.268 . S
O606 Sc596 2.105 . S
O606 C600 1.268 . S
O607 Sc594 2.105 . S
O607 C601 1.268 . S
O608 Sc596 2.105 . S
O608 C602 1.268 . S
O609 Sc595 2.105 . S
O609 C603 1.249 1_554 S
O610 Sc594 2.105 . S
O610 C602 1.268 . S
O611 Sc595 2.105 . S
O611 C601 1.268 . S
O612 Sc596 2.105 . S
O612 C603 1.247 1_554 S
O613 Sc594 2.105 . S
O613 C599 1.268 . S
O614 Sc596 2.105 . S
O614 C598 1.268 . S
O615 Sc595 2.105 . S
O615 C600 1.268 . S
Sc616 O619 2.025 . S
Sc616 O626 2.105 . S
Sc616 O629 2.105 . S
Sc616 O632 2.105 . S
Sc616 O635 2.105 . S
Sc617 O619 2.025 . S
Sc617 O627 2.105 . S
Sc617 O631 2.105 . S
Sc617 O633 2.105 . S
Sc617 O637 2.105 . S
Sc618 O619 2.025 . S
Sc618 O628 2.105 . S
Sc618 O630 2.105 . S
Sc618 O634 2.105 . S
Sc618 O636 2.105 . S
O619 Sc616 2.025 . S
O619 Sc617 2.025 . S
O619 Sc618 2.025 . S
C620 O626 1.268 . S
C620 O636 1.268 . S
C621 O627 1.268 . S
C621 O635 1.268 . S
C622 O628 1.268 . S
C622 O637 1.268 . S
C623 O629 1.268 . S
C623 O633 1.268 . S
C624 O630 1.268 . S
C624 O632 1.268 . S
C625 O631 1.249 1_556 S
C625 O634 1.247 1_556 S
O626 Sc616 2.105 . S
O626 C620 1.268 . S
O627 Sc617 2.105 . S
O627 C621 1.268 . S
O628 Sc618 2.105 . S
O628 C622 1.268 . S
O629 Sc616 2.105 . S
O629 C623 1.268 . S
O630 Sc618 2.105 . S
O630 C624 1.268 . S
O631 Sc617 2.105 . S
O631 C625 1.249 1_554 S
O632 Sc616 2.105 . S
O632 C624 1.268 . S
O633 Sc617 2.105 . S
O633 C623 1.268 . S
O634 Sc618 2.105 . S
O634 C625 1.247 1_554 S
O635 Sc616 2.105 . S
O635 C621 1.268 . S
O636 Sc618 2.105 . S
O636 C620 1.268 . S
O637 Sc617 2.105 . S
O637 C622 1.268 . S
Sc638 O641 2.025 . S
Sc638 O648 2.105 . S
Sc638 O651 2.105 . S
Sc638 O654 2.105 . S
Sc638 O657 2.105 . S
Sc639 O641 2.025 . S
Sc639 O649 2.105 . S
Sc639 O653 2.105 . S
Sc639 O655 2.105 . S
Sc639 O659 2.105 . S
Sc640 O641 2.025 . S
Sc640 O650 2.105 . S
Sc640 O652 2.105 . S
Sc640 O656 2.105 . S
Sc640 O658 2.105 . S
O641 Sc638 2.025 . S
O641 Sc639 2.025 . S
O641 Sc640 2.025 . S
C642 O648 1.268 . S
C642 O658 1.268 . S
C643 O649 1.268 . S
C643 O657 1.268 . S
C644 O650 1.268 . S
C644 O659 1.268 . S
C645 O651 1.268 . S
C645 O655 1.268 . S
C646 O652 1.268 . S
C646 O654 1.268 . S
C647 O653 1.249 1_556 S
C647 O656 1.247 1_556 S
O648 Sc638 2.105 . S
O648 C642 1.268 . S
O649 Sc639 2.105 . S
O649 C643 1.268 . S
O650 Sc640 2.105 . S
O650 C644 1.268 . S
O651 Sc638 2.105 . S
O651 C645 1.268 . S
O652 Sc640 2.105 . S
O652 C646 1.268 . S
O653 Sc639 2.105 . S
O653 C647 1.249 1_554 S
O654 Sc638 2.105 . S
O654 C646 1.268 . S
O655 Sc639 2.105 . S
O655 C645 1.268 . S
O656 Sc640 2.105 . S
O656 C647 1.247 1_554 S
O657 Sc638 2.105 . S
O657 C643 1.268 . S
O658 Sc640 2.105 . S
O658 C642 1.268 . S
O659 Sc639 2.105 . S
O659 C644 1.268 . S
Sc660 O663 2.025 . S
Sc660 O670 2.105 . S
Sc660 O673 2.105 . S
Sc660 O676 2.105 . S
Sc660 O679 2.105 . S
Sc661 O663 2.025 . S
Sc661 O671 2.105 . S
Sc661 O675 2.105 . S
Sc661 O677 2.105 . S
Sc661 O681 2.105 . S
Sc662 O663 2.025 . S
Sc662 O672 2.105 . S
Sc662 O674 2.105 . S
Sc662 O678 2.105 . S
Sc662 O680 2.105 . S
O663 Sc660 2.025 . S
O663 Sc661 2.025 . S
O663 Sc662 2.025 . S
C664 O670 1.268 . S
C664 O680 1.268 . S
C665 O671 1.268 . S
C665 O679 1.268 . S
C666 O672 1.268 . S
C666 O681 1.268 . S
C667 O673 1.268 . S
C667 O677 1.268 . S
C668 O674 1.268 . S
C668 O676 1.268 . S
C669 O675 1.268 . S
C669 O678 1.268 . S
O670 Sc660 2.105 . S
O670 C664 1.268 . S
O671 Sc661 2.105 . S
O671 C665 1.268 . S
O672 Sc662 2.105 . S
O672 C666 1.268 . S
O673 Sc660 2.105 . S
O673 C667 1.268 . S
O674 Sc662 2.105 . S
O674 C668 1.268 . S
O675 Sc661 2.105 . S
O675 C669 1.268 . S
O676 Sc660 2.105 . S
O676 C668 1.268 . S
O677 Sc661 2.105 . S
O677 C667 1.268 . S
O678 Sc662 2.105 . S
O678 C669 1.268 . S
O679 Sc660 2.105 . S
O679 C665 1.268 . S
O680 Sc662 2.105 . S
O680 C664 1.268 . S
O681 Sc661 2.105 . S
O681 C666 1.268 . S
Sc682 O685 2.025 . S
Sc682 O692 2.105 . S
Sc682 O695 2.105 . S
Sc682 O698 2.105 . S
Sc682 O701 2.105 . S
Sc683 O685 2.025 . S
Sc683 O693 2.105 . S
Sc683 O697 2.105 . S
Sc683 O699 2.105 . S
Sc683 O703 2.105 . S
Sc684 O685 2.025 . S
Sc684 O694 2.105 . S
Sc684 O696 2.105 . S
Sc684 O700 2.105 . S
Sc684 O702 2.105 . S
O685 Sc682 2.025 . S
O685 Sc683 2.025 . S
O685 Sc684 2.025 . S
C686 O692 1.268 . S
C686 O702 1.268 . S
C687 O693 1.268 . S
C687 O701 1.268 . S
C688 O694 1.268 . S
C688 O703 1.268 . S
C689 O695 1.268 . S
C689 O699 1.268 . S
C690 O696 1.268 . S
C690 O698 1.268 . S
C691 O697 1.268 . S
C691 O700 1.268 . S
O692 Sc682 2.105 . S
O692 C686 1.268 . S
O693 Sc683 2.105 . S
O693 C687 1.268 . S
O694 Sc684 2.105 . S
O694 C688 1.268 . S
O695 Sc682 2.105 . S
O695 C689 1.268 . S
O696 Sc684 2.105 . S
O696 C690 1.268 . S
O697 Sc683 2.105 . S
O697 C691 1.268 . S
O698 Sc682 2.105 . S
O698 C690 1.268 . S
O699 Sc683 2.105 . S
O699 C689 1.268 . S
O700 Sc684 2.105 . S
O700 C691 1.268 . S
O701 Sc682 2.105 . S
O701 C687 1.268 . S
O702 Sc684 2.105 . S
O702 C686 1.268 . S
O703 Sc683 2.105 . S
O703 C688 1.268 . S
Sc704 O707 2.025 . S
Sc704 O714 2.105 . S
Sc704 O717 2.105 . S
Sc704 O720 2.105 . S
Sc704 O723 2.105 . S
Sc705 O707 2.025 . S
Sc705 O715 2.105 . S
Sc705 O719 2.105 . S
Sc705 O721 2.105 . S
Sc705 O725 2.105 . S
Sc706 O707 2.025 . S
Sc706 O716 2.105 . S
Sc706 O718 2.105 . S
Sc706 O722 2.105 . S
Sc706 O724 2.105 . S
O707 Sc704 2.025 . S
O707 Sc705 2.025 . S
O707 Sc706 2.025 . S
C708 O714 1.268 . S
C708 O724 1.268 . S
C709 O715 1.268 . S
C709 O723 1.268 . S
C710 O716 1.268 . S
C710 O725 1.268 . S
C711 O717 1.268 . S
C711 O721 1.268 . S
C712 O718 1.268 . S
C712 O720 1.268 . S
C713 O719 1.268 . S
C713 O722 1.268 . S
O714 Sc704 2.105 . S
O714 C708 1.268 . S
O715 Sc705 2.105 . S
O715 C709 1.268 . S
O716 Sc706 2.105 . S
O716 C710 1.268 . S
O717 Sc704 2.105 . S
O717 C711 1.268 . S
O718 Sc706 2.105 . S
O718 C712 1.268 . S
O719 Sc705 2.105 . S
O719 C713 1.268 . S
O720 Sc704 2.105 . S
O720 C712 1.268 . S
O721 Sc705 2.105 . S
O721 C711 1.268 . S
O722 Sc706 2.105 . S
O722 C713 1.268 . S
O723 Sc704 2.105 . S
O723 C709 1.268 . S
O724 Sc706 2.105 . S
O724 C708 1.268 . S
O725 Sc705 2.105 . S
O725 C710 1.268 . S
Sc726 O729 2.025 . S
Sc726 O736 2.105 . S
Sc726 O739 2.105 . S
Sc726 O742 2.105 . S
Sc726 O745 2.105 . S
Sc727 O729 2.025 . S
Sc727 O737 2.105 . S
Sc727 O741 2.105 . S
Sc727 O743 2.105 . S
Sc727 O747 2.105 . S
Sc728 O729 2.025 . S
Sc728 O738 2.105 . S
Sc728 O740 2.105 . S
Sc728 O744 2.105 . S
Sc728 O746 2.105 . S
O729 Sc726 2.025 . S
O729 Sc727 2.025 . S
O729 Sc728 2.025 . S
C730 O736 1.268 . S
C730 O746 1.268 . S
C731 O737 1.268 . S
C731 O745 1.268 . S
C732 O738 1.268 . S
C732 O747 1.268 . S
C733 O739 1.268 . S
C733 O743 1.268 . S
C734 O740 1.268 . S
C734 O742 1.268 . S
C735 O741 1.268 . S
C735 O744 1.268 . S
O736 Sc726 2.105 . S
O736 C730 1.268 . S
O737 Sc727 2.105 . S
O737 C731 1.268 . S
O738 Sc728 2.105 . S
O738 C732 1.268 . S
O739 Sc726 2.105 . S
O739 C733 1.268 . S
O740 Sc728 2.105 . S
O740 C734 1.268 . S
O741 Sc727 2.105 . S
O741 C735 1.268 . S
O742 Sc726 2.105 . S
O742 C734 1.268 . S
O743 Sc727 2.105 . S
O743 C733 1.268 . S
O744 Sc728 2.105 . S
O744 C735 1.268 . S
O745 Sc726 2.105 . S
O745 C731 1.268 . S
O746 Sc728 2.105 . S
O746 C730 1.268 . S
O747 Sc727 2.105 . S
O747 C732 1.268 . S
Sc748 O751 2.025 . S
Sc748 O758 2.105 . S
Sc748 O761 2.105 . S
Sc748 O764 2.105 . S
Sc748 O767 2.105 . S
Sc749 O751 2.025 . S
Sc749 O759 2.105 . S
Sc749 O763 2.105 . S
Sc749 O765 2.105 . S
Sc749 O769 2.105 . S
Sc750 O751 2.025 . S
Sc750 O760 2.105 . S
Sc750 O762 2.105 . S
Sc750 O766 2.105 . S
Sc750 O768 2.105 . S
O751 Sc748 2.025 . S
O751 Sc749 2.025 . S
O751 Sc750 2.025 . S
C752 O758 1.268 . S
C752 O768 1.268 . S
C753 O759 1.268 . S
C753 O767 1.268 . S
C754 O760 1.268 . S
C754 O769 1.268 . S
C755 O761 1.268 . S
C755 O765 1.268 . S
C756 O762 1.268 . S
C756 O764 1.268 . S
C757 O763 1.268 . S
C757 O766 1.268 . S
O758 Sc748 2.105 . S
O758 C752 1.268 . S
O759 Sc749 2.105 . S
O759 C753 1.268 . S
O760 Sc750 2.105 . S
O760 C754 1.268 . S
O761 Sc748 2.105 . S
O761 C755 1.268 . S
O762 Sc750 2.105 . S
O762 C756 1.268 . S
O763 Sc749 2.105 . S
O763 C757 1.268 . S
O764 Sc748 2.105 . S
O764 C756 1.268 . S
O765 Sc749 2.105 . S
O765 C755 1.268 . S
O766 Sc750 2.105 . S
O766 C757 1.268 . S
O767 Sc748 2.105 . S
O767 C753 1.268 . S
O768 Sc750 2.105 . S
O768 C752 1.268 . S
O769 Sc749 2.105 . S
O769 C754 1.268 . S
Sc770 O773 2.025 . S
Sc770 O780 2.105 . S
Sc770 O783 2.105 . S
Sc770 O786 2.105 . S
Sc770 O789 2.105 . S
Sc771 O773 2.025 . S
Sc771 O781 2.105 . S
Sc771 O785 2.105 . S
Sc771 O787 2.105 . S
Sc771 O791 2.105 . S
Sc772 O773 2.025 . S
Sc772 O782 2.105 . S
Sc772 O784 2.105 . S
Sc772 O788 2.105 . S
Sc772 O790 2.105 . S
O773 Sc770 2.025 . S
O773 Sc771 2.025 . S
O773 Sc772 2.025 . S
C774 O780 1.268 . S
C774 O790 1.268 . S
C775 O781 1.268 . S
C775 O789 1.268 . S
C776 O782 1.268 . S
C776 O791 1.268 . S
C777 O783 1.268 . S
C777 O787 1.268 . S
C778 O784 1.268 . S
C778 O786 1.268 . S
C779 O785 1.268 . S
C779 O788 1.268 . S
O780 Sc770 2.105 . S
O780 C774 1.268 . S
O781 Sc771 2.105 . S
O781 C775 1.268 . S
O782 Sc772 2.105 . S
O782 C776 1.268 . S
O783 Sc770 2.105 . S
O783 C777 1.268 . S
O784 Sc772 2.105 . S
O784 C778 1.268 . S
O785 Sc771 2.105 . S
O785 C779 1.268 . S
O786 Sc770 2.105 . S
O786 C778 1.268 . S
O787 Sc771 2.105 . S
O787 C777 1.268 . S
O788 Sc772 2.105 . S
O788 C779 1.268 . S
O789 Sc770 2.105 . S
O789 C775 1.268 . S
O790 Sc772 2.105 . S
O790 C774 1.268 . S
O791 Sc771 2.105 . S
O791 C776 1.268 . S
C792 C793 1.391 . S
C792 C794 1.394 . S
C792 H808 0.931 . S
C793 C792 1.391 . S
C793 C797 1.376 . S
C794 C792 1.394 . S
C794 C795 1.369 . S
C794 C798 1.531 1_554 S
C795 C794 1.369 . S
C795 C796 1.410 . S
C795 C803 1.503 1_554 S
C796 C795 1.410 . S
C796 C797 1.392 . S
C796 C799 1.511 . S
C797 C793 1.376 . S
C797 C796 1.392 . S
C797 H809 0.929 . S
C798 C794 1.531 1_556 S
C798 H810 0.960 . S
C798 H811 0.962 . S
C798 H812 0.960 . S
C799 C796 1.511 . S
C799 H813 0.961 . S
C799 H814 0.961 . S
C799 H815 0.961 . S
C800 C801 1.370 . S
C800 C802 1.363 . S
C800 H816 0.931 . S
C801 C800 1.370 . S
C801 C805 1.408 . S
C802 C800 1.363 . S
C802 C803 1.370 . S
C802 C806 1.524 . S
C803 C795 1.503 1_556 S
C803 C802 1.370 . S
C803 C804 1.403 . S
C804 C803 1.403 . S
C804 C805 1.404 . S
C804 C807 1.539 1_556 S
C805 C801 1.408 . S
C805 C804 1.404 . S
C805 H817 0.930 . S
C806 C802 1.524 . S
C806 H818 0.956 . S
C806 H819 0.961 . S
C806 H820 0.961 . S
C807 C804 1.539 1_554 S
C807 H821 0.958 . S
C807 H822 0.961 . S
C807 H823 0.960 . S
H808 C792 0.931 . S
H809 C797 0.929 . S
H810 C798 0.960 . S
H811 C798 0.962 . S
H812 C798 0.960 . S
H813 C799 0.961 . S
H814 C799 0.961 . S
H815 C799 0.961 . S
H816 C800 0.931 . S
H817 C805 0.930 . S
H818 C806 0.956 . S
H819 C806 0.961 . S
H820 C806 0.961 . S
H821 C807 0.958 . S
H822 C807 0.961 . S
H823 C807 0.960 . S
C824 C825 1.391 . S
C824 C826 1.394 . S
C824 H840 0.931 . S
C825 C824 1.391 . S
C825 C829 1.376 . S
C826 C824 1.394 . S
C826 C827 1.369 . S
C826 C830 1.531 1_554 S
C827 C826 1.369 . S
C827 C828 1.410 . S
C827 C835 1.503 1_554 S
C828 C827 1.410 . S
C828 C829 1.392 . S
C828 C831 1.511 . S
C829 C825 1.376 . S
C829 C828 1.392 . S
C829 H841 0.929 . S
C830 C826 1.531 1_556 S
C830 H842 0.960 . S
C830 H843 0.962 . S
C830 H844 0.960 . S
C831 C828 1.511 . S
C831 H845 0.961 . S
C831 H846 0.961 . S
C831 H847 0.961 . S
C832 C833 1.370 . S
C832 C834 1.363 . S
C832 H848 0.931 1_565 S
C833 C832 1.370 . S
C833 C837 1.408 . S
C834 C832 1.363 . S
C834 C835 1.370 . S
C834 C838 1.524 1_556 S
C835 C827 1.503 1_556 S
C835 C834 1.370 . S
C835 C836 1.403 . S
C836 C835 1.403 . S
C836 C837 1.404 . S
C836 C839 1.539 . S
C837 C833 1.408 . S
C837 C836 1.404 . S
C837 H849 0.930 . S
C838 C834 1.524 1_554 S
C838 H850 0.956 . S
C838 H851 0.961 . S
C838 H852 0.951 1_565 S
C839 C836 1.539 . S
C839 H853 0.958 . S
C839 H854 0.961 . S
C839 H855 0.960 . S
H840 C824 0.931 . S
H841 C829 0.929 . S
H842 C830 0.960 . S
H843 C830 0.962 . S
H844 C830 0.960 . S
H845 C831 0.961 . S
H846 C831 0.961 . S
H847 C831 0.961 . S
H848 C832 0.931 1_545 S
H849 C837 0.930 . S
H850 C838 0.956 . S
H851 C838 0.961 . S
H852 C838 0.951 1_545 S
H853 C839 0.958 . S
H854 C839 0.961 . S
H855 C839 0.960 . S
C856 C857 1.391 . S
C856 C858 1.394 . S
C856 H872 0.931 . S
C857 C856 1.391 . S
C857 C861 1.376 . S
C858 C856 1.394 . S
C858 C859 1.369 . S
C858 C862 1.531 . S
C859 C858 1.369 . S
C859 C860 1.410 . S
C859 C867 1.503 1_554 S
C860 C859 1.410 . S
C860 C861 1.392 . S
C860 C863 1.511 . S
C861 C857 1.376 . S
C861 C860 1.392 . S
C861 H873 0.929 . S
C862 C858 1.531 . S
C862 H874 0.960 . S
C862 H875 0.962 . S
C862 H876 0.960 . S
C863 C860 1.511 . S
C863 H877 0.961 . S
C863 H878 0.961 1_554 S
C863 H879 0.961 . S
C864 C865 1.370 . S
C864 C866 1.363 . S
C864 H880 0.931 . S
C865 C864 1.370 . S
C865 C869 1.408 . S
C866 C864 1.363 . S
C866 C867 1.370 . S
C866 C870 1.524 . S
C867 C859 1.503 1_556 S
C867 C866 1.370 . S
C867 C868 1.403 . S
C868 C867 1.403 . S
C868 C869 1.404 . S
C868 C871 1.539 1_556 S
C869 C865 1.408 . S
C869 C868 1.404 . S
C869 H881 0.930 1_455 S
C870 C866 1.524 . S
C870 H882 0.956 . S
C870 H883 0.961 . S
C870 H884 0.961 . S
C871 C868 1.539 1_554 S
C871 H885 0.958 . S
C871 H886 0.961 1_455 S
C871 H887 0.960 . S
H872 C856 0.931 . S
H873 C861 0.929 . S
H874 C862 0.960 . S
H875 C862 0.962 . S
H876 C862 0.960 . S
H877 C863 0.961 . S
H878 C863 0.961 1_556 S
H879 C863 0.961 . S
H880 C864 0.931 . S
H881 C869 0.930 1_655 S
H882 C870 0.956 . S
H883 C870 0.961 . S
H884 C870 0.961 . S
H885 C871 0.958 . S
H886 C871 0.961 1_655 S
H887 C871 0.960 . S
C888 C889 1.391 . S
C888 C890 1.394 . S
C888 H904 0.931 . S
C889 C888 1.391 . S
C889 C893 1.376 . S
C890 C888 1.394 . S
C890 C891 1.369 . S
C890 C894 1.531 . S
C891 C890 1.369 . S
C891 C892 1.410 . S
C891 C899 1.503 . S
C892 C891 1.410 . S
C892 C893 1.392 . S
C892 C895 1.511 . S
C893 C889 1.376 . S
C893 C892 1.392 . S
C893 H905 0.929 . S
C894 C890 1.531 . S
C894 H906 0.960 . S
C894 H907 0.962 . S
C894 H908 0.960 . S
C895 C892 1.511 . S
C895 H909 0.961 . S
C895 H910 0.961 . S
C895 H911 0.961 . S
C896 C897 1.370 . S
C896 C898 1.363 . S
C896 H912 0.931 . S
C897 C896 1.370 . S
C897 C901 1.408 . S
C898 C896 1.363 . S
C898 C899 1.370 . S
C898 C902 1.524 . S
C899 C891 1.503 . S
C899 C898 1.370 . S
C899 C900 1.403 . S
C900 C899 1.403 . S
C900 C901 1.404 . S
C900 C903 1.539 . S
C901 C897 1.408 . S
C901 C900 1.404 . S
C901 H913 0.930 . S
C902 C898 1.524 . S
C902 H914 0.956 . S
C902 H915 0.961 . S
C902 H916 0.961 . S
C903 C900 1.539 . S
C903 H917 0.958 . S
C903 H918 0.961 . S
C903 H919 0.960 . S
H904 C888 0.931 . S
H905 C893 0.929 . S
H906 C894 0.960 . S
H907 C894 0.962 . S
H908 C894 0.960 . S
H909 C895 0.961 . S
H910 C895 0.961 . S
H911 C895 0.961 . S
H912 C896 0.931 . S
H913 C901 0.930 . S
H914 C902 0.956 . S
H915 C902 0.961 . S
H916 C902 0.961 . S
H917 C903 0.958 . S
H918 C903 0.961 . S
H919 C903 0.960 . S
C920 C921 1.391 . S
C920 C922 1.394 . S
C920 H936 0.931 1_545 S
C921 C920 1.391 . S
C921 C925 1.376 . S
C922 C920 1.394 . S
C922 C923 1.369 . S
C922 C926 1.531 . S
C923 C922 1.369 . S
C923 C924 1.410 . S
C923 C931 1.503 . S
C924 C923 1.410 . S
C924 C925 1.392 . S
C924 C927 1.511 . S
C925 C921 1.376 . S
C925 C924 1.392 . S
C925 H937 0.929 . S
C926 C922 1.531 . S
C926 H938 0.960 . S
C926 H939 0.962 . S
C926 H940 0.960 1_545 S
C927 C924 1.511 . S
C927 H941 0.961 . S
C927 H942 0.961 . S
C927 H943 0.961 . S
C928 C929 1.370 . S
C928 C930 1.363 . S
C928 H944 0.931 . S
C929 C928 1.370 . S
C929 C933 1.408 . S
C930 C928 1.363 . S
C930 C931 1.370 . S
C930 C934 1.524 . S
C931 C923 1.503 . S
C931 C930 1.370 . S
C931 C932 1.403 . S
C932 C931 1.403 . S
C932 C933 1.404 . S
C932 C935 1.539 . S
C933 C929 1.408 . S
C933 C932 1.404 . S
C933 H945 0.930 . S
C934 C930 1.524 . S
C934 H946 0.956 . S
C934 H947 0.961 . S
C934 H948 0.961 . S
C935 C932 1.539 . S
C935 H949 0.958 . S
C935 H950 0.961 . S
C935 H951 0.960 . S
H936 C920 0.931 1_565 S
H937 C925 0.929 . S
H938 C926 0.960 . S
H939 C926 0.962 . S
H940 C926 0.960 1_565 S
H941 C927 0.961 . S
H942 C927 0.961 . S
H943 C927 0.961 . S
H944 C928 0.931 . S
H945 C933 0.930 . S
H946 C934 0.956 . S
H947 C934 0.961 . S
H948 C934 0.961 . S
H949 C935 0.958 . S
H950 C935 0.961 . S
H951 C935 0.960 . S
C952 C953 1.391 . S
C952 C954 1.394 . S
C952 H968 0.931 . S
C953 C952 1.391 . S
C953 C957 1.376 . S
C954 C952 1.394 . S
C954 C955 1.369 . S
C954 C958 1.531 . S
C955 C954 1.369 . S
C955 C956 1.410 . S
C955 C963 1.503 . S
C956 C955 1.410 . S
C956 C957 1.392 . S
C956 C959 1.511 . S
C957 C953 1.376 . S
C957 C956 1.392 . S
C957 H969 0.929 . S
C958 C954 1.531 . S
C958 H970 0.960 . S
C958 H971 0.962 . S
C958 H972 0.960 . S
C959 C956 1.511 . S
C959 H973 0.961 . S
C959 H974 0.961 . S
C959 H975 0.961 . S
C960 C961 1.370 . S
C960 C962 1.363 . S
C960 H976 0.931 . S
C961 C960 1.370 . S
C961 C965 1.408 . S
C962 C960 1.363 . S
C962 C963 1.370 . S
C962 C966 1.524 . S
C963 C955 1.503 . S
C963 C962 1.370 . S
C963 C964 1.403 . S
C964 C963 1.403 . S
C964 C965 1.404 . S
C964 C967 1.539 . S
C965 C961 1.408 . S
C965 C964 1.404 . S
C965 H977 0.930 . S
C966 C962 1.524 . S
C966 H978 0.956 . S
C966 H979 0.961 . S
C966 H980 0.961 . S
C967 C964 1.539 . S
C967 H981 0.958 . S
C967 H982 0.961 . S
C967 H983 0.960 . S
H968 C952 0.931 . S
H969 C957 0.929 . S
H970 C958 0.960 . S
H971 C958 0.962 . S
H972 C958 0.960 . S
H973 C959 0.961 . S
H974 C959 0.961 . S
H975 C959 0.961 . S
H976 C960 0.931 . S
H977 C965 0.930 . S
H978 C966 0.956 . S
H979 C966 0.961 . S
H980 C966 0.961 . S
H981 C967 0.958 . S
H982 C967 0.961 . S
H983 C967 0.960 . S
C984 C985 1.391 . S
C984 C986 1.394 . S
C984 H1000 0.931 . S
C985 C984 1.391 . S
C985 C989 1.376 . S
C986 C984 1.394 . S
C986 C987 1.369 . S
C986 C990 1.531 . S
C987 C986 1.369 . S
C987 C988 1.410 . S
C987 C995 1.503 1_554 S
C988 C987 1.410 . S
C988 C989 1.392 . S
C988 C991 1.511 1_554 S
C989 C985 1.376 . S
C989 C988 1.392 . S
C989 H1001 0.929 . S
C990 C986 1.531 . S
C990 H1002 0.960 . S
C990 H1003 0.962 . S
C990 H1004 0.960 . S
C991 C988 1.511 1_556 S
C991 H1005 0.961 . S
C991 H1006 0.961 . S
C991 H1007 0.961 . S
C992 C993 1.370 . S
C992 C994 1.363 . S
C992 H1008 0.931 . S
C993 C992 1.370 . S
C993 C997 1.408 . S
C994 C992 1.363 . S
C994 C995 1.370 . S
C994 C998 1.524 . S
C995 C987 1.503 1_556 S
C995 C994 1.370 . S
C995 C996 1.403 . S
C996 C995 1.403 . S
C996 C997 1.404 . S
C996 C999 1.539 . S
C997 C993 1.408 . S
C997 C996 1.404 . S
C997 H1009 0.930 . S
C998 C994 1.524 . S
C998 H1010 0.956 . S
C998 H1011 0.961 . S
C998 H1012 0.961 . S
C999 C996 1.539 . S
C999 H1013 0.958 1_556 S
C999 H1014 0.961 . S
C999 H1015 0.960 1_556 S
H1000 C984 0.931 . S
H1001 C989 0.929 . S
H1002 C990 0.960 . S
H1003 C990 0.962 . S
H1004 C990 0.960 . S
H1005 C991 0.961 . S
H1006 C991 0.961 . S
H1007 C991 0.961 . S
H1008 C992 0.931 . S
H1009 C997 0.930 . S
H1010 C998 0.956 . S
H1011 C998 0.961 . S
H1012 C998 0.961 . S
H1013 C999 0.958 1_554 S
H1014 C999 0.961 . S
H1015 C999 0.960 1_554 S
C1016 C1017 1.391 . S
C1016 C1018 1.394 . S
C1016 H1032 0.931 . S
C1017 C1016 1.391 . S
C1017 C1021 1.376 . S
C1018 C1016 1.394 . S
C1018 C1019 1.369 . S
C1018 C1022 1.531 . S
C1019 C1018 1.369 . S
C1019 C1020 1.410 . S
C1019 C1027 1.503 1_556 S
C1020 C1019 1.410 . S
C1020 C1021 1.392 . S
C1020 C1023 1.511 . S
C1021 C1017 1.376 . S
C1021 C1020 1.392 . S
C1021 H1033 0.929 . S
C1022 C1018 1.531 . S
C1022 H1034 0.960 1_556 S
C1022 H1035 0.962 . S
C1022 H1036 0.960 . S
C1023 C1020 1.511 . S
C1023 H1037 0.961 . S
C1023 H1038 0.961 1_556 S
C1023 H1039 0.961 1_556 S
C1024 C1025 1.370 . S
C1024 C1026 1.363 . S
C1024 H1040 0.957 . S
C1025 C1024 1.370 . S
C1025 C1029 1.408 . S
C1026 C1024 1.363 . S
C1026 C1027 1.370 . S
C1026 C1030 1.524 1_554 S
C1027 C1019 1.503 1_554 S
C1027 C1026 1.370 . S
C1027 C1028 1.403 . S
C1028 C1027 1.403 . S
C1028 C1029 1.404 . S
C1028 C1031 1.539 . S
C1029 C1025 1.408 . S
C1029 C1028 1.404 . S
C1029 H1041 0.930 . S
C1030 C1026 1.524 1_556 S
C1030 H1042 0.956 . S
C1030 H1043 0.961 . S
C1030 H1044 0.961 . S
C1031 C1028 1.539 . S
C1031 H1045 0.958 . S
C1031 H1046 0.961 . S
C1031 H1047 0.960 . S
H1032 C1016 0.931 . S
H1033 C1021 0.929 . S
H1034 C1022 0.960 1_554 S
H1035 C1022 0.962 . S
H1036 C1022 0.960 . S
H1037 C1023 0.961 . S
H1038 C1023 0.961 1_554 S
H1039 C1023 0.961 1_554 S
H1040 C1024 0.957 . S
H1041 C1029 0.930 . S
H1042 C1030 0.956 . S
H1043 C1030 0.961 . S
H1044 C1030 0.961 . S
H1045 C1031 0.958 . S
H1046 C1031 0.961 . S
H1047 C1031 0.960 . S
C1048 C1049 1.391 . S
C1048 C1050 1.394 . S
C1048 H1064 0.931 . S
C1049 C1048 1.391 . S
C1049 C1053 1.376 . S
C1050 C1048 1.394 . S
C1050 C1051 1.369 . S
C1050 C1054 1.531 . S
C1051 C1050 1.369 . S
C1051 C1052 1.410 . S
C1051 C1059 1.503 1_556 S
C1052 C1051 1.410 . S
C1052 C1053 1.392 . S
C1052 C1055 1.511 1_556 S
C1053 C1049 1.376 . S
C1053 C1052 1.392 . S
C1053 H1065 0.929 . S
C1054 C1050 1.531 . S
C1054 H1066 0.960 . S
C1054 H1067 0.962 . S
C1054 H1068 0.960 . S
C1055 C1052 1.511 1_554 S
C1055 H1069 0.961 . S
C1055 H1070 0.961 . S
C1055 H1071 0.961 . S
C1056 C1057 1.370 . S
C1056 C1058 1.363 . S
C1056 H1072 0.931 . S
C1057 C1056 1.370 . S
C1057 C1061 1.408 . S
C1058 C1056 1.363 . S
C1058 C1059 1.370 . S
C1058 C1062 1.524 . S
C1059 C1051 1.503 1_554 S
C1059 C1058 1.370 . S
C1059 C1060 1.403 . S
C1060 C1059 1.403 . S
C1060 C1061 1.404 . S
C1060 C1063 1.539 . S
C1061 C1057 1.408 . S
C1061 C1060 1.404 . S
C1061 H1073 0.930 . S
C1062 C1058 1.524 . S
C1062 H1074 0.956 1_554 S
C1062 H1075 0.961 . S
C1062 H1076 0.961 . S
C1063 C1060 1.539 . S
C1063 H1077 0.958 1_554 S
C1063 H1078 0.961 . S
C1063 H1079 0.960 1_554 S
H1064 C1048 0.931 . S
H1065 C1053 0.929 . S
H1066 C1054 0.960 . S
H1067 C1054 0.962 . S
H1068 C1054 0.960 . S
H1069 C1055 0.961 . S
H1070 C1055 0.961 . S
H1071 C1055 0.961 . S
H1072 C1056 0.931 . S
H1073 C1061 0.930 . S
H1074 C1062 0.956 1_556 S
H1075 C1062 0.961 . S
H1076 C1062 0.961 . S
H1077 C1063 0.958 1_556 S
H1078 C1063 0.961 . S
H1079 C1063 0.960 1_556 S
C1080 C1081 1.391 . S
C1080 C1082 1.394 . S
C1080 H1096 0.931 . S
C1081 C1080 1.391 . S
C1081 C1085 1.376 . S
C1082 C1080 1.394 . S
C1082 C1083 1.369 . S
C1082 C1086 1.531 . S
C1083 C1082 1.369 . S
C1083 C1084 1.410 . S
C1083 C1091 1.503 . S
C1084 C1083 1.410 . S
C1084 C1085 1.392 . S
C1084 C1087 1.511 . S
C1085 C1081 1.376 . S
C1085 C1084 1.392 . S
C1085 H1097 0.929 . S
C1086 C1082 1.531 . S
C1086 H1098 0.960 . S
C1086 H1099 0.962 . S
C1086 H1100 0.960 . S
C1087 C1084 1.511 . S
C1087 H1101 0.961 . S
C1087 H1102 0.961 . S
C1087 H1103 0.961 . S
C1088 C1089 1.370 . S
C1088 C1090 1.363 . S
C1088 H1104 0.931 . S
C1089 C1088 1.370 . S
C1089 C1093 1.408 . S
C1090 C1088 1.363 . S
C1090 C1091 1.370 . S
C1090 C1094 1.524 . S
C1091 C1083 1.503 . S
C1091 C1090 1.370 . S
C1091 C1092 1.403 . S
C1092 C1091 1.403 . S
C1092 C1093 1.404 . S
C1092 C1095 1.539 . S
C1093 C1089 1.408 . S
C1093 C1092 1.404 . S
C1093 H1105 0.930 . S
C1094 C1090 1.524 . S
C1094 H1106 0.956 . S
C1094 H1107 0.961 . S
C1094 H1108 0.961 . S
C1095 C1092 1.539 . S
C1095 H1109 0.958 . S
C1095 H1110 0.961 . S
C1095 H1111 0.960 . S
H1096 C1080 0.931 . S
H1097 C1085 0.929 . S
H1098 C1086 0.960 . S
H1099 C1086 0.962 . S
H1100 C1086 0.960 . S
H1101 C1087 0.961 . S
H1102 C1087 0.961 . S
H1103 C1087 0.961 . S
H1104 C1088 0.931 . S
H1105 C1093 0.930 . S
H1106 C1094 0.956 . S
H1107 C1094 0.961 . S
H1108 C1094 0.961 . S
H1109 C1095 0.958 . S
H1110 C1095 0.961 . S
H1111 C1095 0.960 . S
C1112 C1113 1.391 . S
C1112 C1114 1.394 . S
C1112 H1128 0.931 . S
C1113 C1112 1.391 . S
C1113 C1117 1.376 . S
C1114 C1112 1.394 . S
C1114 C1115 1.369 . S
C1114 C1118 1.531 . S
C1115 C1114 1.369 . S
C1115 C1116 1.410 . S
C1115 C1123 1.503 . S
C1116 C1115 1.410 . S
C1116 C1117 1.392 . S
C1116 C1119 1.511 . S
C1117 C1113 1.376 . S
C1117 C1116 1.392 . S
C1117 H1129 0.929 . S
C1118 C1114 1.531 . S
C1118 H1130 0.960 . S
C1118 H1131 0.962 . S
C1118 H1132 0.960 . S
C1119 C1116 1.511 . S
C1119 H1133 0.961 . S
C1119 H1134 0.961 . S
C1119 H1135 0.961 . S
C1120 C1121 1.370 . S
C1120 C1122 1.363 . S
C1120 H1136 0.931 . S
C1121 C1120 1.370 . S
C1121 C1125 1.408 . S
C1122 C1120 1.363 . S
C1122 C1123 1.370 . S
C1122 C1126 1.524 . S
C1123 C1115 1.503 . S
C1123 C1122 1.370 . S
C1123 C1124 1.403 . S
C1124 C1123 1.403 . S
C1124 C1125 1.404 . S
C1124 C1127 1.539 . S
C1125 C1121 1.408 . S
C1125 C1124 1.404 . S
C1125 H1137 0.944 . S
C1126 C1122 1.524 . S
C1126 H1138 0.956 . S
C1126 H1139 0.961 . S
C1126 H1140 0.961 . S
C1127 C1124 1.539 . S
C1127 H1141 0.958 . S
C1127 H1142 0.961 1_565 S
C1127 H1143 0.960 . S
H1128 C1112 0.931 . S
H1129 C1117 0.929 . S
H1130 C1118 0.960 . S
H1131 C1118 0.962 . S
H1132 C1118 0.960 . S
H1133 C1119 0.961 . S
H1134 C1119 0.961 . S
H1135 C1119 0.961 . S
H1136 C1120 0.931 . S
H1137 C1125 0.944 . S
H1138 C1126 0.956 . S
H1139 C1126 0.961 . S
H1140 C1126 0.961 . S
H1141 C1127 0.958 . S
H1142 C1127 0.961 1_545 S
H1143 C1127 0.960 . S
C1144 C1145 1.391 . S
C1144 C1146 1.394 . S
C1144 H1160 0.931 . S
C1145 C1144 1.391 . S
C1145 C1149 1.376 . S
C1146 C1144 1.394 . S
C1146 C1147 1.369 . S
C1146 C1150 1.531 . S
C1147 C1146 1.369 . S
C1147 C1148 1.410 . S
C1147 C1155 1.503 . S
C1148 C1147 1.410 . S
C1148 C1149 1.392 . S
C1148 C1151 1.511 . S
C1149 C1145 1.376 . S
C1149 C1148 1.392 . S
C1149 H1161 0.929 . S
C1150 C1146 1.531 . S
C1150 H1162 0.960 . S
C1150 H1163 0.962 . S
C1150 H1164 0.960 . S
C1151 C1148 1.511 . S
C1151 H1165 0.961 . S
C1151 H1166 0.961 . S
C1151 H1167 0.961 . S
C1152 C1153 1.370 . S
C1152 C1154 1.363 . S
C1152 H1168 0.931 . S
C1153 C1152 1.370 . S
C1153 C1157 1.408 . S
C1154 C1152 1.363 . S
C1154 C1155 1.370 . S
C1154 C1158 1.524 . S
C1155 C1147 1.503 . S
C1155 C1154 1.370 . S
C1155 C1156 1.403 . S
C1156 C1155 1.403 . S
C1156 C1157 1.404 . S
C1156 C1159 1.539 . S
C1157 C1153 1.408 . S
C1157 C1156 1.404 . S
C1157 H1169 0.930 . S
C1158 C1154 1.524 . S
C1158 H1170 0.956 . S
C1158 H1171 0.961 . S
C1158 H1172 0.961 . S
C1159 C1156 1.539 . S
C1159 H1173 0.958 . S
C1159 H1174 0.961 . S
C1159 H1175 0.960 . S
H1160 C1144 0.931 . S
H1161 C1149 0.929 . S
H1162 C1150 0.960 . S
H1163 C1150 0.962 . S
H1164 C1150 0.960 . S
H1165 C1151 0.961 . S
H1166 C1151 0.961 . S
H1167 C1151 0.961 . S
H1168 C1152 0.931 . S
H1169 C1157 0.930 . S
H1170 C1158 0.956 . S
H1171 C1158 0.961 . S
H1172 C1158 0.961 . S
H1173 C1159 0.958 . S
H1174 C1159 0.961 . S
H1175 C1159 0.960 . S
C1176 C1177 1.391 . S
C1176 C1178 1.394 . S
C1176 H1192 0.931 . S
C1177 C1176 1.391 . S
C1177 C1181 1.376 . S
C1178 C1176 1.394 . S
C1178 C1179 1.369 . S
C1178 C1182 1.531 . S
C1179 C1178 1.369 . S
C1179 C1180 1.410 . S
C1179 C1187 1.503 . S
C1180 C1179 1.410 . S
C1180 C1181 1.392 . S
C1180 C1183 1.511 . S
C1181 C1177 1.376 . S
C1181 C1180 1.392 . S
C1181 H1193 0.929 . S
C1182 C1178 1.531 . S
C1182 H1194 0.960 . S
C1182 H1195 0.962 . S
C1182 H1196 0.960 . S
C1183 C1180 1.511 . S
C1183 H1197 0.961 . S
C1183 H1198 0.961 . S
C1183 H1199 0.961 . S
C1184 C1185 1.370 . S
C1184 C1186 1.363 . S
C1184 H1200 0.931 . S
C1185 C1184 1.370 . S
C1185 C1189 1.408 . S
C1186 C1184 1.363 . S
C1186 C1187 1.370 . S
C1186 C1190 1.524 . S
C1187 C1179 1.503 . S
C1187 C1186 1.370 . S
C1187 C1188 1.403 . S
C1188 C1187 1.403 . S
C1188 C1189 1.404 . S
C1188 C1191 1.539 . S
C1189 C1185 1.408 . S
C1189 C1188 1.404 . S
C1189 H1201 0.930 . S
C1190 C1186 1.524 . S
C1190 H1202 0.956 . S
C1190 H1203 0.961 . S
C1190 H1204 0.961 . S
C1191 C1188 1.539 . S
C1191 H1205 0.958 . S
C1191 H1206 0.961 . S
C1191 H1207 0.960 . S
H1192 C1176 0.931 . S
H1193 C1181 0.929 . S
H1194 C1182 0.960 . S
H1195 C1182 0.962 . S
H1196 C1182 0.960 . S
H1197 C1183 0.961 . S
H1198 C1183 0.961 . S
H1199 C1183 0.961 . S
H1200 C1184 0.931 . S
H1201 C1189 0.930 . S
H1202 C1190 0.956 . S
H1203 C1190 0.961 . S
H1204 C1190 0.961 . S
H1205 C1191 0.958 . S
H1206 C1191 0.961 . S
H1207 C1191 0.960 . S
C1208 C1209 1.391 . S
C1208 C1210 1.394 . S
C1208 H1224 0.931 . S
C1209 C1208 1.391 . S
C1209 C1213 1.376 . S
C1210 C1208 1.394 . S
C1210 C1211 1.369 . S
C1210 C1214 1.531 . S
C1211 C1210 1.369 . S
C1211 C1212 1.410 . S
C1211 C1219 1.503 . S
C1212 C1211 1.410 . S
C1212 C1213 1.392 . S
C1212 C1215 1.511 . S
C1213 C1209 1.376 . S
C1213 C1212 1.392 . S
C1213 H1225 0.929 . S
C1214 C1210 1.531 . S
C1214 H1226 0.960 . S
C1214 H1227 0.962 . S
C1214 H1228 0.960 . S
C1215 C1212 1.511 . S
C1215 H1229 0.961 . S
C1215 H1230 0.961 . S
C1215 H1231 0.961 . S
C1216 C1217 1.370 . S
C1216 C1218 1.363 . S
C1216 H1232 0.931 . S
C1217 C1216 1.370 . S
C1217 C1221 1.408 . S
C1218 C1216 1.363 . S
C1218 C1219 1.370 . S
C1218 C1222 1.524 . S
C1219 C1211 1.503 . S
C1219 C1218 1.370 . S
C1219 C1220 1.403 . S
C1220 C1219 1.403 . S
C1220 C1221 1.404 . S
C1220 C1223 1.539 . S
C1221 C1217 1.408 . S
C1221 C1220 1.404 . S
C1221 H1233 0.930 . S
C1222 C1218 1.524 . S
C1222 H1234 0.956 . S
C1222 H1235 0.961 . S
C1222 H1236 0.961 . S
C1223 C1220 1.539 . S
C1223 H1237 0.958 . S
C1223 H1238 0.961 . S
C1223 H1239 0.960 . S
H1224 C1208 0.931 . S
H1225 C1213 0.929 . S
H1226 C1214 0.960 . S
H1227 C1214 0.962 . S
H1228 C1214 0.960 . S
H1229 C1215 0.961 . S
H1230 C1215 0.961 . S
H1231 C1215 0.961 . S
H1232 C1216 0.931 . S
H1233 C1221 0.930 . S
H1234 C1222 0.956 . S
H1235 C1222 0.961 . S
H1236 C1222 0.961 . S
H1237 C1223 0.958 . S
H1238 C1223 0.961 . S
H1239 C1223 0.960 . S
C1240 C1241 1.391 . S
C1240 C1242 1.394 . S
C1240 H1256 0.931 . S
C1241 C1240 1.391 . S
C1241 C1245 1.376 . S
C1242 C1240 1.394 . S
C1242 C1243 1.369 . S
C1242 C1246 1.531 . S
C1243 C1242 1.369 . S
C1243 C1244 1.410 . S
C1243 C1251 1.503 . S
C1244 C1243 1.410 . S
C1244 C1245 1.392 . S
C1244 C1247 1.511 . S
C1245 C1241 1.376 . S
C1245 C1244 1.392 . S
C1245 H1257 0.929 . S
C1246 C1242 1.531 . S
C1246 H1258 0.960 . S
C1246 H1259 0.962 . S
C1246 H1260 0.960 . S
C1247 C1244 1.511 . S
C1247 H1261 0.961 . S
C1247 H1262 0.961 . S
C1247 H1263 0.961 . S
C1248 C1249 1.370 . S
C1248 C1250 1.363 . S
C1248 H1264 0.931 . S
C1249 C1248 1.370 . S
C1249 C1253 1.408 . S
C1250 C1248 1.363 . S
C1250 C1251 1.370 . S
C1250 C1254 1.524 . S
C1251 C1243 1.503 . S
C1251 C1250 1.370 . S
C1251 C1252 1.403 . S
C1252 C1251 1.403 . S
C1252 C1253 1.404 . S
C1252 C1255 1.539 . S
C1253 C1249 1.408 . S
C1253 C1252 1.404 . S
C1253 H1265 0.930 . S
C1254 C1250 1.524 . S
C1254 H1266 0.956 . S
C1254 H1267 0.961 . S
C1254 H1268 0.961 . S
C1255 C1252 1.539 . S
C1255 H1269 0.958 . S
C1255 H1270 0.961 . S
C1255 H1271 0.960 . S
H1256 C1240 0.931 . S
H1257 C1245 0.929 . S
H1258 C1246 0.960 . S
H1259 C1246 0.962 . S
H1260 C1246 0.960 . S
H1261 C1247 0.961 . S
H1262 C1247 0.961 . S
H1263 C1247 0.961 . S
H1264 C1248 0.931 . S
H1265 C1253 0.930 . S
H1266 C1254 0.956 . S
H1267 C1254 0.961 . S
H1268 C1254 0.961 . S
H1269 C1255 0.958 . S
H1270 C1255 0.961 . S
H1271 C1255 0.960 . S
C1272 C1273 1.391 . S
C1272 C1274 1.394 . S
C1272 H1288 0.931 . S
C1273 C1272 1.391 . S
C1273 C1277 1.376 . S
C1274 C1272 1.394 . S
C1274 C1275 1.369 . S
C1274 C1278 1.531 . S
C1275 C1274 1.369 . S
C1275 C1276 1.410 . S
C1275 C1283 1.503 . S
C1276 C1275 1.410 . S
C1276 C1277 1.392 . S
C1276 C1279 1.511 . S
C1277 C1273 1.376 . S
C1277 C1276 1.392 . S
C1277 H1289 0.929 . S
C1278 C1274 1.531 . S
C1278 H1290 0.960 . S
C1278 H1291 0.962 . S
C1278 H1292 0.960 . S
C1279 C1276 1.511 . S
C1279 H1293 0.961 . S
C1279 H1294 0.961 . S
C1279 H1295 0.961 . S
C1280 C1281 1.370 . S
C1280 C1282 1.363 . S
C1280 H1296 0.931 . S
C1281 C1280 1.370 . S
C1281 C1285 1.408 . S
C1282 C1280 1.363 . S
C1282 C1283 1.370 . S
C1282 C1286 1.524 . S
C1283 C1275 1.503 . S
C1283 C1282 1.370 . S
C1283 C1284 1.403 . S
C1284 C1283 1.403 . S
C1284 C1285 1.404 . S
C1284 C1287 1.539 . S
C1285 C1281 1.408 . S
C1285 C1284 1.404 . S
C1285 H1297 0.930 . S
C1286 C1282 1.524 . S
C1286 H1298 0.956 . S
C1286 H1299 0.961 . S
C1286 H1300 0.961 . S
C1287 C1284 1.539 . S
C1287 H1301 0.958 . S
C1287 H1302 0.961 . S
C1287 H1303 0.960 . S
H1288 C1272 0.931 . S
H1289 C1277 0.929 . S
H1290 C1278 0.960 . S
H1291 C1278 0.962 . S
H1292 C1278 0.960 . S
H1293 C1279 0.961 . S
H1294 C1279 0.961 . S
H1295 C1279 0.961 . S
H1296 C1280 0.931 . S
H1297 C1285 0.930 . S
H1298 C1286 0.956 . S
H1299 C1286 0.961 . S
H1300 C1286 0.961 . S
H1301 C1287 0.958 . S
H1302 C1287 0.961 . S
H1303 C1287 0.960 . S
C1304 C1305 1.391 . S
C1304 C1306 1.394 . S
C1304 H1320 0.931 . S
C1305 C1304 1.391 . S
C1305 C1309 1.376 . S
C1306 C1304 1.394 . S
C1306 C1307 1.369 . S
C1306 C1310 1.531 . S
C1307 C1306 1.369 . S
C1307 C1308 1.410 . S
C1307 C1315 1.503 . S
C1308 C1307 1.410 . S
C1308 C1309 1.392 . S
C1308 C1311 1.511 . S
C1309 C1305 1.376 . S
C1309 C1308 1.392 . S
C1309 H1321 0.929 . S
C1310 C1306 1.531 . S
C1310 H1322 0.960 . S
C1310 H1323 0.962 . S
C1310 H1324 0.960 . S
C1311 C1308 1.511 . S
C1311 H1325 0.961 . S
C1311 H1326 0.961 . S
C1311 H1327 0.961 . S
C1312 C1313 1.370 . S
C1312 C1314 1.363 . S
C1312 H1328 0.931 . S
C1313 C1312 1.370 . S
C1313 C1317 1.408 . S
C1314 C1312 1.363 . S
C1314 C1315 1.370 . S
C1314 C1318 1.524 . S
C1315 C1307 1.503 . S
C1315 C1314 1.370 . S
C1315 C1316 1.403 . S
C1316 C1315 1.403 . S
C1316 C1317 1.404 . S
C1316 C1319 1.539 . S
C1317 C1313 1.408 . S
C1317 C1316 1.404 . S
C1317 H1329 0.930 . S
C1318 C1314 1.524 . S
C1318 H1330 0.956 . S
C1318 H1331 0.961 . S
C1318 H1332 0.961 . S
C1319 C1316 1.539 . S
C1319 H1333 0.958 . S
C1319 H1334 0.961 . S
C1319 H1335 0.960 . S
H1320 C1304 0.931 . S
H1321 C1309 0.929 . S
H1322 C1310 0.960 . S
H1323 C1310 0.962 . S
H1324 C1310 0.960 . S
H1325 C1311 0.961 . S
H1326 C1311 0.961 . S
H1327 C1311 0.961 . S
H1328 C1312 0.931 . S
H1329 C1317 0.930 . S
H1330 C1318 0.956 . S
H1331 C1318 0.961 . S
H1332 C1318 0.961 . S
H1333 C1319 0.958 . S
H1334 C1319 0.961 . S
H1335 C1319 0.960 . S
C1336 C1337 1.391 . S
C1336 C1338 1.394 . S
C1336 H1352 0.931 . S
C1337 C1336 1.391 . S
C1337 C1341 1.376 . S
C1338 C1336 1.394 . S
C1338 C1339 1.369 . S
C1338 C1342 1.531 . S
C1339 C1338 1.369 . S
C1339 C1340 1.410 . S
C1339 C1347 1.503 . S
C1340 C1339 1.410 . S
C1340 C1341 1.392 . S
C1340 C1343 1.511 . S
C1341 C1337 1.376 . S
C1341 C1340 1.392 . S
C1341 H1353 0.929 . S
C1342 C1338 1.531 . S
C1342 H1354 0.960 . S
C1342 H1355 0.962 . S
C1342 H1356 0.960 . S
C1343 C1340 1.511 . S
C1343 H1357 0.961 . S
C1343 H1358 0.961 . S
C1343 H1359 0.961 . S
C1344 C1345 1.370 . S
C1344 C1346 1.363 . S
C1344 H1360 0.931 . S
C1345 C1344 1.370 . S
C1345 C1349 1.408 . S
C1346 C1344 1.363 . S
C1346 C1347 1.370 . S
C1346 C1350 1.524 . S
C1347 C1339 1.503 . S
C1347 C1346 1.370 . S
C1347 C1348 1.403 . S
C1348 C1347 1.403 . S
C1348 C1349 1.404 . S
C1348 C1351 1.539 . S
C1349 C1345 1.408 . S
C1349 C1348 1.404 . S
C1349 H1361 0.930 . S
C1350 C1346 1.524 . S
C1350 H1362 0.956 . S
C1350 H1363 0.961 . S
C1350 H1364 0.961 . S
C1351 C1348 1.539 . S
C1351 H1365 0.958 . S
C1351 H1366 0.961 . S
C1351 H1367 0.960 . S
H1352 C1336 0.931 . S
H1353 C1341 0.929 . S
H1354 C1342 0.960 . S
H1355 C1342 0.962 . S
H1356 C1342 0.960 . S
H1357 C1343 0.961 . S
H1358 C1343 0.961 . S
H1359 C1343 0.961 . S
H1360 C1344 0.931 . S
H1361 C1349 0.930 . S
H1362 C1350 0.956 . S
H1363 C1350 0.961 . S
H1364 C1350 0.961 . S
H1365 C1351 0.958 . S
H1366 C1351 0.961 . S
H1367 C1351 0.960 . S
C1368 C1369 1.391 . S
C1368 C1370 1.394 . S
C1368 H1384 0.931 . S
C1369 C1368 1.391 . S
C1369 C1373 1.376 . S
C1370 C1368 1.394 . S
C1370 C1371 1.369 . S
C1370 C1374 1.531 . S
C1371 C1370 1.369 . S
C1371 C1372 1.410 . S
C1371 C1379 1.503 . S
C1372 C1371 1.410 . S
C1372 C1373 1.392 . S
C1372 C1375 1.511 . S
C1373 C1369 1.376 . S
C1373 C1372 1.392 . S
C1373 H1385 0.929 . S
C1374 C1370 1.531 . S
C1374 H1386 0.960 . S
C1374 H1387 0.962 . S
C1374 H1388 0.960 . S
C1375 C1372 1.511 . S
C1375 H1389 0.961 . S
C1375 H1390 0.961 . S
C1375 H1391 0.961 . S
C1376 C1377 1.370 . S
C1376 C1378 1.363 . S
C1376 H1392 0.931 . S
C1377 C1376 1.370 . S
C1377 C1381 1.408 . S
C1378 C1376 1.363 . S
C1378 C1379 1.370 . S
C1378 C1382 1.524 . S
C1379 C1371 1.503 . S
C1379 C1378 1.370 . S
C1379 C1380 1.403 . S
C1380 C1379 1.403 . S
C1380 C1381 1.404 . S
C1380 C1383 1.539 . S
C1381 C1377 1.408 . S
C1381 C1380 1.404 . S
C1381 H1393 0.930 . S
C1382 C1378 1.524 . S
C1382 H1394 0.956 . S
C1382 H1395 0.961 . S
C1382 H1396 0.961 . S
C1383 C1380 1.539 . S
C1383 H1397 0.958 . S
C1383 H1398 0.961 . S
C1383 H1399 0.960 . S
H1384 C1368 0.931 . S
H1385 C1373 0.929 . S
H1386 C1374 0.960 . S
H1387 C1374 0.962 . S
H1388 C1374 0.960 . S
H1389 C1375 0.961 . S
H1390 C1375 0.961 . S
H1391 C1375 0.961 . S
H1392 C1376 0.931 . S
H1393 C1381 0.930 . S
H1394 C1382 0.956 . S
H1395 C1382 0.961 . S
H1396 C1382 0.961 . S
H1397 C1383 0.958 . S
H1398 C1383 0.961 . S
H1399 C1383 0.960 . S
C1400 C1401 1.391 . S
C1400 C1402 1.394 . S
C1400 H1416 0.931 . S
C1401 C1400 1.391 . S
C1401 C1405 1.376 . S
C1402 C1400 1.394 . S
C1402 C1403 1.369 . S
C1402 C1406 1.531 . S
C1403 C1402 1.369 . S
C1403 C1404 1.410 . S
C1403 C1411 1.503 . S
C1404 C1403 1.410 . S
C1404 C1405 1.392 . S
C1404 C1407 1.511 . S
C1405 C1401 1.376 . S
C1405 C1404 1.392 . S
C1405 H1417 0.929 . S
C1406 C1402 1.531 . S
C1406 H1418 0.960 . S
C1406 H1419 0.962 . S
C1406 H1420 0.960 . S
C1407 C1404 1.511 . S
C1407 H1421 0.961 . S
C1407 H1422 0.961 . S
C1407 H1423 0.961 . S
C1408 C1409 1.370 . S
C1408 C1410 1.363 . S
C1408 H1424 0.931 . S
C1409 C1408 1.370 . S
C1409 C1413 1.408 . S
C1410 C1408 1.363 . S
C1410 C1411 1.370 . S
C1410 C1414 1.524 . S
C1411 C1403 1.503 . S
C1411 C1410 1.370 . S
C1411 C1412 1.403 . S
C1412 C1411 1.403 . S
C1412 C1413 1.404 . S
C1412 C1415 1.539 . S
C1413 C1409 1.408 . S
C1413 C1412 1.404 . S
C1413 H1425 0.930 . S
C1414 C1410 1.524 . S
C1414 H1426 0.956 . S
C1414 H1427 0.961 . S
C1414 H1428 0.961 . S
C1415 C1412 1.539 . S
C1415 H1429 0.958 . S
C1415 H1430 0.961 . S
C1415 H1431 0.960 . S
H1416 C1400 0.931 . S
H1417 C1405 0.929 . S
H1418 C1406 0.960 . S
H1419 C1406 0.962 . S
H1420 C1406 0.960 . S
H1421 C1407 0.961 . S
H1422 C1407 0.961 . S
H1423 C1407 0.961 . S
H1424 C1408 0.931 . S
H1425 C1413 0.930 . S
H1426 C1414 0.956 . S
H1427 C1414 0.961 . S
H1428 C1414 0.961 . S
H1429 C1415 0.958 . S
H1430 C1415 0.961 . S
H1431 C1415 0.960 . S
C1432 C1433 1.391 . S
C1432 C1434 1.394 . S
C1432 H1448 0.931 . S
C1433 C1432 1.391 . S
C1433 C1437 1.376 . S
C1434 C1432 1.394 . S
C1434 C1435 1.369 . S
C1434 C1438 1.531 . S
C1435 C1434 1.369 . S
C1435 C1436 1.410 . S
C1435 C1443 1.503 . S
C1436 C1435 1.410 . S
C1436 C1437 1.392 . S
C1436 C1439 1.511 . S
C1437 C1433 1.376 . S
C1437 C1436 1.392 . S
C1437 H1449 0.929 . S
C1438 C1434 1.531 . S
C1438 H1450 0.960 . S
C1438 H1451 0.962 . S
C1438 H1452 0.960 . S
C1439 C1436 1.511 . S
C1439 H1453 0.961 . S
C1439 H1454 0.961 . S
C1439 H1455 0.961 . S
C1440 C1441 1.370 . S
C1440 C1442 1.363 . S
C1440 H1456 0.931 . S
C1441 C1440 1.370 . S
C1441 C1445 1.408 . S
C1442 C1440 1.363 . S
C1442 C1443 1.370 . S
C1442 C1446 1.524 . S
C1443 C1435 1.503 . S
C1443 C1442 1.370 . S
C1443 C1444 1.403 . S
C1444 C1443 1.403 . S
C1444 C1445 1.404 . S
C1444 C1447 1.539 . S
C1445 C1441 1.408 . S
C1445 C1444 1.404 . S
C1445 H1457 0.930 . S
C1446 C1442 1.524 . S
C1446 H1458 0.956 . S
C1446 H1459 0.961 . S
C1446 H1460 0.961 . S
C1447 C1444 1.539 . S
C1447 H1461 0.958 . S
C1447 H1462 0.961 . S
C1447 H1463 0.960 . S
H1448 C1432 0.931 . S
H1449 C1437 0.929 . S
H1450 C1438 0.960 . S
H1451 C1438 0.962 . S
H1452 C1438 0.960 . S
H1453 C1439 0.961 . S
H1454 C1439 0.961 . S
H1455 C1439 0.961 . S
H1456 C1440 0.931 . S
H1457 C1445 0.930 . S
H1458 C1446 0.956 . S
H1459 C1446 0.961 . S
H1460 C1446 0.961 . S
H1461 C1447 0.958 . S
H1462 C1447 0.961 . S
H1463 C1447 0.960 . S
C1464 C1465 1.391 . S
C1464 C1466 1.394 . S
C1464 H1480 0.931 . S
C1465 C1464 1.391 . S
C1465 C1469 1.376 . S
C1466 C1464 1.394 . S
C1466 C1467 1.369 . S
C1466 C1470 1.531 . S
C1467 C1466 1.369 . S
C1467 C1468 1.410 . S
C1467 C1475 1.503 . S
C1468 C1467 1.410 . S
C1468 C1469 1.392 . S
C1468 C1471 1.511 . S
C1469 C1465 1.376 . S
C1469 C1468 1.392 . S
C1469 H1481 0.929 . S
C1470 C1466 1.531 . S
C1470 H1482 0.960 . S
C1470 H1483 0.962 . S
C1470 H1484 0.960 . S
C1471 C1468 1.511 . S
C1471 H1485 0.961 . S
C1471 H1486 0.961 . S
C1471 H1487 0.961 . S
C1472 C1473 1.370 . S
C1472 C1474 1.363 . S
C1472 H1488 0.931 . S
C1473 C1472 1.370 . S
C1473 C1477 1.408 . S
C1474 C1472 1.363 . S
C1474 C1475 1.370 . S
C1474 C1478 1.524 . S
C1475 C1467 1.503 . S
C1475 C1474 1.370 . S
C1475 C1476 1.403 . S
C1476 C1475 1.403 . S
C1476 C1477 1.404 . S
C1476 C1479 1.539 . S
C1477 C1473 1.408 . S
C1477 C1476 1.404 . S
C1477 H1489 0.930 . S
C1478 C1474 1.524 . S
C1478 H1490 0.956 . S
C1478 H1491 0.961 . S
C1478 H1492 0.961 . S
C1479 C1476 1.539 . S
C1479 H1493 0.958 . S
C1479 H1494 0.961 . S
C1479 H1495 0.960 . S
H1480 C1464 0.931 . S
H1481 C1469 0.929 . S
H1482 C1470 0.960 . S
H1483 C1470 0.962 . S
H1484 C1470 0.960 . S
H1485 C1471 0.961 . S
H1486 C1471 0.961 . S
H1487 C1471 0.961 . S
H1488 C1472 0.931 . S
H1489 C1477 0.930 . S
H1490 C1478 0.956 . S
H1491 C1478 0.961 . S
H1492 C1478 0.961 . S
H1493 C1479 0.958 . S
H1494 C1479 0.961 . S
H1495 C1479 0.960 . S
C1496 C1497 1.391 . S
C1496 C1498 1.394 . S
C1496 H1512 0.931 . S
C1497 C1496 1.391 . S
C1497 C1501 1.376 . S
C1498 C1496 1.394 . S
C1498 C1499 1.369 . S
C1498 C1502 1.531 . S
C1499 C1498 1.369 . S
C1499 C1500 1.410 . S
C1499 C1507 1.503 . S
C1500 C1499 1.410 . S
C1500 C1501 1.392 . S
C1500 C1503 1.511 . S
C1501 C1497 1.376 . S
C1501 C1500 1.392 . S
C1501 H1513 0.929 . S
C1502 C1498 1.531 . S
C1502 H1514 0.960 . S
C1502 H1515 0.962 . S
C1502 H1516 0.960 . S
C1503 C1500 1.511 . S
C1503 H1517 0.961 . S
C1503 H1518 0.961 . S
C1503 H1519 0.961 . S
C1504 C1505 1.370 . S
C1504 C1506 1.363 . S
C1504 H1520 0.931 . S
C1505 C1504 1.370 . S
C1505 C1509 1.408 . S
C1506 C1504 1.363 . S
C1506 C1507 1.370 . S
C1506 C1510 1.524 . S
C1507 C1499 1.503 . S
C1507 C1506 1.370 . S
C1507 C1508 1.403 . S
C1508 C1507 1.403 . S
C1508 C1509 1.404 . S
C1508 C1511 1.539 . S
C1509 C1505 1.408 . S
C1509 C1508 1.404 . S
C1509 H1521 0.930 . S
C1510 C1506 1.524 . S
C1510 H1522 0.956 . S
C1510 H1523 0.961 . S
C1510 H1524 0.961 . S
C1511 C1508 1.539 . S
C1511 H1525 0.958 . S
C1511 H1526 0.961 . S
C1511 H1527 0.960 . S
H1512 C1496 0.931 . S
H1513 C1501 0.929 . S
H1514 C1502 0.960 . S
H1515 C1502 0.962 . S
H1516 C1502 0.960 . S
H1517 C1503 0.961 . S
H1518 C1503 0.961 . S
H1519 C1503 0.961 . S
H1520 C1504 0.931 . S
H1521 C1509 0.930 . S
H1522 C1510 0.956 . S
H1523 C1510 0.961 . S
H1524 C1510 0.961 . S
H1525 C1511 0.958 . S
H1526 C1511 0.961 . S
H1527 C1511 0.960 . S
C1528 C1529 1.391 . S
C1528 C1530 1.394 . S
C1528 H1544 0.931 . S
C1529 C1528 1.391 . S
C1529 C1533 1.376 . S
C1530 C1528 1.394 . S
C1530 C1531 1.369 . S
C1530 C1534 1.531 . S
C1531 C1530 1.369 . S
C1531 C1532 1.410 . S
C1531 C1539 1.503 . S
C1532 C1531 1.410 . S
C1532 C1533 1.392 . S
C1532 C1535 1.511 . S
C1533 C1529 1.376 . S
C1533 C1532 1.392 . S
C1533 H1545 0.929 . S
C1534 C1530 1.531 . S
C1534 H1546 0.960 . S
C1534 H1547 0.962 . S
C1534 H1548 0.960 . S
C1535 C1532 1.511 . S
C1535 H1549 0.961 . S
C1535 H1550 0.961 . S
C1535 H1551 0.961 . S
C1536 C1537 1.370 . S
C1536 C1538 1.363 . S
C1536 H1552 0.931 . S
C1537 C1536 1.370 . S
C1537 C1541 1.408 . S
C1538 C1536 1.363 . S
C1538 C1539 1.370 . S
C1538 C1542 1.524 . S
C1539 C1531 1.503 . S
C1539 C1538 1.370 . S
C1539 C1540 1.403 . S
C1540 C1539 1.403 . S
C1540 C1541 1.404 . S
C1540 C1543 1.539 . S
C1541 C1537 1.408 . S
C1541 C1540 1.404 . S
C1541 H1553 0.930 . S
C1542 C1538 1.524 . S
C1542 H1554 0.956 . S
C1542 H1555 0.961 . S
C1542 H1556 0.961 . S
C1543 C1540 1.539 . S
C1543 H1557 0.958 . S
C1543 H1558 0.961 . S
C1543 H1559 0.960 . S
H1544 C1528 0.931 . S
H1545 C1533 0.929 . S
H1546 C1534 0.960 . S
H1547 C1534 0.962 . S
H1548 C1534 0.960 . S
H1549 C1535 0.961 . S
H1550 C1535 0.961 . S
H1551 C1535 0.961 . S
H1552 C1536 0.931 . S
H1553 C1541 0.930 . S
H1554 C1542 0.956 . S
H1555 C1542 0.961 . S
H1556 C1542 0.961 . S
H1557 C1543 0.958 . S
H1558 C1543 0.961 . S
H1559 C1543 0.960 . S
C1560 C1561 1.391 . S
C1560 C1562 1.394 . S
C1560 H1576 0.931 . S
C1561 C1560 1.391 . S
C1561 C1565 1.376 . S
C1562 C1560 1.394 . S
C1562 C1563 1.369 . S
C1562 C1566 1.531 . S
C1563 C1562 1.369 . S
C1563 C1564 1.410 . S
C1563 C1571 1.503 . S
C1564 C1563 1.410 . S
C1564 C1565 1.392 . S
C1564 C1567 1.511 . S
C1565 C1561 1.376 . S
C1565 C1564 1.392 . S
C1565 H1577 0.929 . S
C1566 C1562 1.531 . S
C1566 H1578 0.960 . S
C1566 H1579 0.962 . S
C1566 H1580 0.960 . S
C1567 C1564 1.511 . S
C1567 H1581 0.961 . S
C1567 H1582 0.961 . S
C1567 H1583 0.961 . S
C1568 C1569 1.370 . S
C1568 C1570 1.363 . S
C1568 H1584 0.931 . S
C1569 C1568 1.370 . S
C1569 C1573 1.408 . S
C1570 C1568 1.363 . S
C1570 C1571 1.370 . S
C1570 C1574 1.524 . S
C1571 C1563 1.503 . S
C1571 C1570 1.370 . S
C1571 C1572 1.403 . S
C1572 C1571 1.403 . S
C1572 C1573 1.404 . S
C1572 C1575 1.539 . S
C1573 C1569 1.408 . S
C1573 C1572 1.404 . S
C1573 H1585 0.930 . S
C1574 C1570 1.524 . S
C1574 H1586 0.956 . S
C1574 H1587 0.961 . S
C1574 H1588 0.961 . S
C1575 C1572 1.539 . S
C1575 H1589 0.958 . S
C1575 H1590 0.961 . S
C1575 H1591 0.960 . S
H1576 C1560 0.931 . S
H1577 C1565 0.929 . S
H1578 C1566 0.960 . S
H1579 C1566 0.962 . S
H1580 C1566 0.960 . S
H1581 C1567 0.961 . S
H1582 C1567 0.961 . S
H1583 C1567 0.961 . S
H1584 C1568 0.931 . S
H1585 C1573 0.930 . S
H1586 C1574 0.956 . S
H1587 C1574 0.961 . S
H1588 C1574 0.961 . S
H1589 C1575 0.958 . S
H1590 C1575 0.961 . S
H1591 C1575 0.960 . S
C1592 C1593 1.391 . S
C1592 C1594 1.394 . S
C1592 H1608 0.931 . S
C1593 C1592 1.391 . S
C1593 C1597 1.376 . S
C1594 C1592 1.394 . S
C1594 C1595 1.369 . S
C1594 C1598 1.531 . S
C1595 C1594 1.369 . S
C1595 C1596 1.410 . S
C1595 C1603 1.503 . S
C1596 C1595 1.410 . S
C1596 C1597 1.392 . S
C1596 C1599 1.511 . S
C1597 C1593 1.376 . S
C1597 C1596 1.392 . S
C1597 H1609 0.929 . S
C1598 C1594 1.531 . S
C1598 H1610 0.960 . S
C1598 H1611 0.962 . S
C1598 H1612 0.960 . S
C1599 C1596 1.511 . S
C1599 H1613 0.961 . S
C1599 H1614 0.961 . S
C1599 H1615 0.961 . S
C1600 C1601 1.370 . S
C1600 C1602 1.363 . S
C1600 H1616 0.931 . S
C1601 C1600 1.370 . S
C1601 C1605 1.408 . S
C1602 C1600 1.363 . S
C1602 C1603 1.370 . S
C1602 C1606 1.524 . S
C1603 C1595 1.503 . S
C1603 C1602 1.370 . S
C1603 C1604 1.403 . S
C1604 C1603 1.403 . S
C1604 C1605 1.404 . S
C1604 C1607 1.539 . S
C1605 C1601 1.408 . S
C1605 C1604 1.404 . S
C1605 H1617 0.930 . S
C1606 C1602 1.524 . S
C1606 H1618 0.956 . S
C1606 H1619 0.961 . S
C1606 H1620 0.961 . S
C1607 C1604 1.539 . S
C1607 H1621 0.958 . S
C1607 H1622 0.961 . S
C1607 H1623 0.960 . S
H1608 C1592 0.931 . S
H1609 C1597 0.929 . S
H1610 C1598 0.960 . S
H1611 C1598 0.962 . S
H1612 C1598 0.960 . S
H1613 C1599 0.961 . S
H1614 C1599 0.961 . S
H1615 C1599 0.961 . S
H1616 C1600 0.931 . S
H1617 C1605 0.930 . S
H1618 C1606 0.956 . S
H1619 C1606 0.961 . S
H1620 C1606 0.961 . S
H1621 C1607 0.958 . S
H1622 C1607 0.961 . S
H1623 C1607 0.960 . S
C1624 C1625 1.391 . S
C1624 C1626 1.394 . S
C1624 H1640 0.931 . S
C1625 C1624 1.391 . S
C1625 C1629 1.376 . S
C1626 C1624 1.394 . S
C1626 C1627 1.369 . S
C1626 C1630 1.531 . S
C1627 C1626 1.369 . S
C1627 C1628 1.410 . S
C1627 C1635 1.503 . S
C1628 C1627 1.410 . S
C1628 C1629 1.392 . S
C1628 C1631 1.511 . S
C1629 C1625 1.376 . S
C1629 C1628 1.392 . S
C1629 H1641 0.929 . S
C1630 C1626 1.531 . S
C1630 H1642 0.960 . S
C1630 H1643 0.962 . S
C1630 H1644 0.960 . S
C1631 C1628 1.511 . S
C1631 H1645 0.961 . S
C1631 H1646 0.961 . S
C1631 H1647 0.961 . S
C1632 C1633 1.370 . S
C1632 C1634 1.363 . S
C1632 H1648 0.931 . S
C1633 C1632 1.370 . S
C1633 C1637 1.408 . S
C1634 C1632 1.363 . S
C1634 C1635 1.370 . S
C1634 C1638 1.524 . S
C1635 C1627 1.503 . S
C1635 C1634 1.370 . S
C1635 C1636 1.403 . S
C1636 C1635 1.403 . S
C1636 C1637 1.404 . S
C1636 C1639 1.539 . S
C1637 C1633 1.408 . S
C1637 C1636 1.404 . S
C1637 H1649 0.930 . S
C1638 C1634 1.524 . S
C1638 H1650 0.956 . S
C1638 H1651 0.961 . S
C1638 H1652 0.961 . S
C1639 C1636 1.539 . S
C1639 H1653 0.958 . S
C1639 H1654 0.961 . S
C1639 H1655 0.960 . S
H1640 C1624 0.931 . S
H1641 C1629 0.929 . S
H1642 C1630 0.960 . S
H1643 C1630 0.962 . S
H1644 C1630 0.960 . S
H1645 C1631 0.961 . S
H1646 C1631 0.961 . S
H1647 C1631 0.961 . S
H1648 C1632 0.931 . S
H1649 C1637 0.930 . S
H1650 C1638 0.956 . S
H1651 C1638 0.961 . S
H1652 C1638 0.961 . S
H1653 C1639 0.958 . S
H1654 C1639 0.961 . S
H1655 C1639 0.960 . S
C1656 C1657 1.391 . S
C1656 C1658 1.394 . S
C1656 H1672 0.931 . S
C1657 C1656 1.391 . S
C1657 C1661 1.376 . S
C1658 C1656 1.394 . S
C1658 C1659 1.369 . S
C1658 C1662 1.531 . S
C1659 C1658 1.369 . S
C1659 C1660 1.410 . S
C1659 C1667 1.503 . S
C1660 C1659 1.410 . S
C1660 C1661 1.392 . S
C1660 C1663 1.511 . S
C1661 C1657 1.376 . S
C1661 C1660 1.392 . S
C1661 H1673 0.929 . S
C1662 C1658 1.531 . S
C1662 H1674 0.960 . S
C1662 H1675 0.962 . S
C1662 H1676 0.960 . S
C1663 C1660 1.511 . S
C1663 H1677 0.961 . S
C1663 H1678 0.961 . S
C1663 H1679 0.961 . S
C1664 C1665 1.370 . S
C1664 C1666 1.363 . S
C1664 H1680 0.931 . S
C1665 C1664 1.370 . S
C1665 C1669 1.408 . S
C1666 C1664 1.363 . S
C1666 C1667 1.370 . S
C1666 C1670 1.524 . S
C1667 C1659 1.503 . S
C1667 C1666 1.370 . S
C1667 C1668 1.403 . S
C1668 C1667 1.403 . S
C1668 C1669 1.404 . S
C1668 C1671 1.539 . S
C1669 C1665 1.408 . S
C1669 C1668 1.404 . S
C1669 H1681 0.930 . S
C1670 C1666 1.524 . S
C1670 H1682 0.956 . S
C1670 H1683 0.961 . S
C1670 H1684 0.961 . S
C1671 C1668 1.539 . S
C1671 H1685 0.958 . S
C1671 H1686 0.961 . S
C1671 H1687 0.960 . S
H1672 C1656 0.931 . S
H1673 C1661 0.929 . S
H1674 C1662 0.960 . S
H1675 C1662 0.962 . S
H1676 C1662 0.960 . S
H1677 C1663 0.961 . S
H1678 C1663 0.961 . S
H1679 C1663 0.961 . S
H1680 C1664 0.931 . S
H1681 C1669 0.930 . S
H1682 C1670 0.956 . S
H1683 C1670 0.961 . S
H1684 C1670 0.961 . S
H1685 C1671 0.958 . S
H1686 C1671 0.961 . S
H1687 C1671 0.960 . S
C1688 C1689 1.391 . S
C1688 C1690 1.394 . S
C1688 H1704 0.931 . S
C1689 C1688 1.391 . S
C1689 C1693 1.376 . S
C1690 C1688 1.394 . S
C1690 C1691 1.369 . S
C1690 C1694 1.531 . S
C1691 C1690 1.369 . S
C1691 C1692 1.410 . S
C1691 C1699 1.503 . S
C1692 C1691 1.410 . S
C1692 C1693 1.392 . S
C1692 C1695 1.511 . S
C1693 C1689 1.376 . S
C1693 C1692 1.392 . S
C1693 H1705 0.929 . S
C1694 C1690 1.531 . S
C1694 H1706 0.960 . S
C1694 H1707 0.962 . S
C1694 H1708 0.960 . S
C1695 C1692 1.511 . S
C1695 H1709 0.961 . S
C1695 H1710 0.961 . S
C1695 H1711 0.961 . S
C1696 C1697 1.370 . S
C1696 C1698 1.363 . S
C1696 H1712 0.931 . S
C1697 C1696 1.370 . S
C1697 C1701 1.408 . S
C1698 C1696 1.363 . S
C1698 C1699 1.370 . S
C1698 C1702 1.524 . S
C1699 C1691 1.503 . S
C1699 C1698 1.370 . S
C1699 C1700 1.403 . S
C1700 C1699 1.403 . S
C1700 C1701 1.404 . S
C1700 C1703 1.539 . S
C1701 C1697 1.408 . S
C1701 C1700 1.404 . S
C1701 H1713 0.930 . S
C1702 C1698 1.524 . S
C1702 H1714 0.956 . S
C1702 H1715 0.961 . S
C1702 H1716 0.961 . S
C1703 C1700 1.539 . S
C1703 H1717 0.958 . S
C1703 H1718 0.961 . S
C1703 H1719 0.960 . S
H1704 C1688 0.931 . S
H1705 C1693 0.929 . S
H1706 C1694 0.960 . S
H1707 C1694 0.962 . S
H1708 C1694 0.960 . S
H1709 C1695 0.961 . S
H1710 C1695 0.961 . S
H1711 C1695 0.961 . S
H1712 C1696 0.931 . S
H1713 C1701 0.930 . S
H1714 C1702 0.956 . S
H1715 C1702 0.961 . S
H1716 C1702 0.961 . S
H1717 C1703 0.958 . S
H1718 C1703 0.961 . S
H1719 C1703 0.960 . S
C1720 C1721 1.391 . S
C1720 C1722 1.394 . S
C1720 H1736 0.931 . S
C1721 C1720 1.391 . S
C1721 C1725 1.376 . S
C1722 C1720 1.394 . S
C1722 C1723 1.369 . S
C1722 C1726 1.531 . S
C1723 C1722 1.369 . S
C1723 C1724 1.410 . S
C1723 C1731 1.503 . S
C1724 C1723 1.410 . S
C1724 C1725 1.392 . S
C1724 C1727 1.511 . S
C1725 C1721 1.376 . S
C1725 C1724 1.392 . S
C1725 H1737 0.929 . S
C1726 C1722 1.531 . S
C1726 H1738 0.960 . S
C1726 H1739 0.962 . S
C1726 H1740 0.960 . S
C1727 C1724 1.511 . S
C1727 H1741 0.961 . S
C1727 H1742 0.961 . S
C1727 H1743 0.961 . S
C1728 C1729 1.370 . S
C1728 C1730 1.363 . S
C1728 H1744 0.931 . S
C1729 C1728 1.370 . S
C1729 C1733 1.408 . S
C1730 C1728 1.363 . S
C1730 C1731 1.370 . S
C1730 C1734 1.524 . S
C1731 C1723 1.503 . S
C1731 C1730 1.370 . S
C1731 C1732 1.403 . S
C1732 C1731 1.403 . S
C1732 C1733 1.404 . S
C1732 C1735 1.539 . S
C1733 C1729 1.408 . S
C1733 C1732 1.404 . S
C1733 H1745 0.930 . S
C1734 C1730 1.524 . S
C1734 H1746 0.956 . S
C1734 H1747 0.961 . S
C1734 H1748 0.961 . S
C1735 C1732 1.539 . S
C1735 H1749 0.958 . S
C1735 H1750 0.961 . S
C1735 H1751 0.960 . S
H1736 C1720 0.931 . S
H1737 C1725 0.929 . S
H1738 C1726 0.960 . S
H1739 C1726 0.962 . S
H1740 C1726 0.960 . S
H1741 C1727 0.961 . S
H1742 C1727 0.961 . S
H1743 C1727 0.961 . S
H1744 C1728 0.931 . S
H1745 C1733 0.930 . S
H1746 C1734 0.956 . S
H1747 C1734 0.961 . S
H1748 C1734 0.961 . S
H1749 C1735 0.958 . S
H1750 C1735 0.961 . S
H1751 C1735 0.960 . S
C1752 C1753 1.391 . S
C1752 C1754 1.394 . S
C1752 H1768 0.931 . S
C1753 C1752 1.391 . S
C1753 C1757 1.376 . S
C1754 C1752 1.394 . S
C1754 C1755 1.369 . S
C1754 C1758 1.531 . S
C1755 C1754 1.369 . S
C1755 C1756 1.410 . S
C1755 C1763 1.503 . S
C1756 C1755 1.410 . S
C1756 C1757 1.392 . S
C1756 C1759 1.511 . S
C1757 C1753 1.376 . S
C1757 C1756 1.392 . S
C1757 H1769 0.929 . S
C1758 C1754 1.531 . S
C1758 H1770 0.960 . S
C1758 H1771 0.962 . S
C1758 H1772 0.960 . S
C1759 C1756 1.511 . S
C1759 H1773 0.961 . S
C1759 H1774 0.961 . S
C1759 H1775 0.961 . S
C1760 C1761 1.370 . S
C1760 C1762 1.363 . S
C1760 H1776 0.931 . S
C1761 C1760 1.370 . S
C1761 C1765 1.408 . S
C1762 C1760 1.363 . S
C1762 C1763 1.370 . S
C1762 C1766 1.524 . S
C1763 C1755 1.503 . S
C1763 C1762 1.370 . S
C1763 C1764 1.403 . S
C1764 C1763 1.403 . S
C1764 C1765 1.404 . S
C1764 C1767 1.539 . S
C1765 C1761 1.408 . S
C1765 C1764 1.404 . S
C1765 H1777 0.930 . S
C1766 C1762 1.524 . S
C1766 H1778 0.956 . S
C1766 H1779 0.961 . S
C1766 H1780 0.961 . S
C1767 C1764 1.539 . S
C1767 H1781 0.958 . S
C1767 H1782 0.961 . S
C1767 H1783 0.960 . S
H1768 C1752 0.931 . S
H1769 C1757 0.929 . S
H1770 C1758 0.960 . S
H1771 C1758 0.962 . S
H1772 C1758 0.960 . S
H1773 C1759 0.961 . S
H1774 C1759 0.961 . S
H1775 C1759 0.961 . S
H1776 C1760 0.931 . S
H1777 C1765 0.930 . S
H1778 C1766 0.956 . S
H1779 C1766 0.961 . S
H1780 C1766 0.961 . S
H1781 C1767 0.958 . S
H1782 C1767 0.961 . S
H1783 C1767 0.960 . S
C1784 C1785 1.391 . S
C1784 C1786 1.394 . S
C1784 H1800 0.931 . S
C1785 C1784 1.391 . S
C1785 C1789 1.376 . S
C1786 C1784 1.394 . S
C1786 C1787 1.369 . S
C1786 C1790 1.531 . S
C1787 C1786 1.369 . S
C1787 C1788 1.410 . S
C1787 C1795 1.503 . S
C1788 C1787 1.410 . S
C1788 C1789 1.392 . S
C1788 C1791 1.511 . S
C1789 C1785 1.376 . S
C1789 C1788 1.392 . S
C1789 H1801 0.929 . S
C1790 C1786 1.531 . S
C1790 H1802 0.960 . S
C1790 H1803 0.962 . S
C1790 H1804 0.960 . S
C1791 C1788 1.511 . S
C1791 H1805 0.961 . S
C1791 H1806 0.961 . S
C1791 H1807 0.961 . S
C1792 C1793 1.370 . S
C1792 C1794 1.363 . S
C1792 H1808 0.931 . S
C1793 C1792 1.370 . S
C1793 C1797 1.408 . S
C1794 C1792 1.363 . S
C1794 C1795 1.370 . S
C1794 C1798 1.524 . S
C1795 C1787 1.503 . S
C1795 C1794 1.370 . S
C1795 C1796 1.403 . S
C1796 C1795 1.403 . S
C1796 C1797 1.404 . S
C1796 C1799 1.539 . S
C1797 C1793 1.408 . S
C1797 C1796 1.404 . S
C1797 H1809 0.930 . S
C1798 C1794 1.524 . S
C1798 H1810 0.956 . S
C1798 H1811 0.961 . S
C1798 H1812 0.961 . S
C1799 C1796 1.539 . S
C1799 H1813 0.958 . S
C1799 H1814 0.961 . S
C1799 H1815 0.960 . S
H1800 C1784 0.931 . S
H1801 C1789 0.929 . S
H1802 C1790 0.960 . S
H1803 C1790 0.962 . S
H1804 C1790 0.960 . S
H1805 C1791 0.961 . S
H1806 C1791 0.961 . S
H1807 C1791 0.961 . S
H1808 C1792 0.931 . S
H1809 C1797 0.930 . S
H1810 C1798 0.956 . S
H1811 C1798 0.961 . S
H1812 C1798 0.961 . S
H1813 C1799 0.958 . S
H1814 C1799 0.961 . S
H1815 C1799 0.960 . S
C1816 C1817 1.391 . S
C1816 C1818 1.394 . S
C1816 H1832 0.931 . S
C1817 C1816 1.391 . S
C1817 C1821 1.376 . S
C1818 C1816 1.394 . S
C1818 C1819 1.369 . S
C1818 C1822 1.531 . S
C1819 C1818 1.369 . S
C1819 C1820 1.410 . S
C1819 C1827 1.503 . S
C1820 C1819 1.410 . S
C1820 C1821 1.392 . S
C1820 C1823 1.511 . S
C1821 C1817 1.376 . S
C1821 C1820 1.392 . S
C1821 H1833 0.929 . S
C1822 C1818 1.531 . S
C1822 H1834 0.960 . S
C1822 H1835 0.962 . S
C1822 H1836 0.960 . S
C1823 C1820 1.511 . S
C1823 H1837 0.961 . S
C1823 H1838 0.961 . S
C1823 H1839 0.961 . S
C1824 C1825 1.370 . S
C1824 C1826 1.363 . S
C1824 H1840 0.931 . S
C1825 C1824 1.370 . S
C1825 C1829 1.408 . S
C1826 C1824 1.363 . S
C1826 C1827 1.370 . S
C1826 C1830 1.524 . S
C1827 C1819 1.503 . S
C1827 C1826 1.370 . S
C1827 C1828 1.403 . S
C1828 C1827 1.403 . S
C1828 C1829 1.404 . S
C1828 C1831 1.539 . S
C1829 C1825 1.408 . S
C1829 C1828 1.404 . S
C1829 H1841 0.930 . S
C1830 C1826 1.524 . S
C1830 H1842 0.956 . S
C1830 H1843 0.961 . S
C1830 H1844 0.961 . S
C1831 C1828 1.539 . S
C1831 H1845 0.958 . S
C1831 H1846 0.961 . S
C1831 H1847 0.960 . S
H1832 C1816 0.931 . S
H1833 C1821 0.929 . S
H1834 C1822 0.960 . S
H1835 C1822 0.962 . S
H1836 C1822 0.960 . S
H1837 C1823 0.961 . S
H1838 C1823 0.961 . S
H1839 C1823 0.961 . S
H1840 C1824 0.931 . S
H1841 C1829 0.930 . S
H1842 C1830 0.956 . S
H1843 C1830 0.961 . S
H1844 C1830 0.961 . S
H1845 C1831 0.958 . S
H1846 C1831 0.961 . S
H1847 C1831 0.960 . S
C1848 C1849 1.391 . S
C1848 C1850 1.394 . S
C1848 H1864 0.931 . S
C1849 C1848 1.391 . S
C1849 C1853 1.376 . S
C1850 C1848 1.394 . S
C1850 C1851 1.369 . S
C1850 C1854 1.531 . S
C1851 C1850 1.369 . S
C1851 C1852 1.410 . S
C1851 C1859 1.503 . S
C1852 C1851 1.410 . S
C1852 C1853 1.392 . S
C1852 C1855 1.511 . S
C1853 C1849 1.376 . S
C1853 C1852 1.392 . S
C1853 H1865 0.929 . S
C1854 C1850 1.531 . S
C1854 H1866 0.960 . S
C1854 H1867 0.962 . S
C1854 H1868 0.960 . S
C1855 C1852 1.511 . S
C1855 H1869 0.961 . S
C1855 H1870 0.961 . S
C1855 H1871 0.961 . S
C1856 C1857 1.370 . S
C1856 C1858 1.363 . S
C1856 H1872 0.931 . S
C1857 C1856 1.370 . S
C1857 C1861 1.408 . S
C1858 C1856 1.363 . S
C1858 C1859 1.370 . S
C1858 C1862 1.524 . S
C1859 C1851 1.503 . S
C1859 C1858 1.370 . S
C1859 C1860 1.403 . S
C1860 C1859 1.403 . S
C1860 C1861 1.404 . S
C1860 C1863 1.539 . S
C1861 C1857 1.408 . S
C1861 C1860 1.404 . S
C1861 H1873 0.930 . S
C1862 C1858 1.524 . S
C1862 H1874 0.956 . S
C1862 H1875 0.961 . S
C1862 H1876 0.961 . S
C1863 C1860 1.539 . S
C1863 H1877 0.958 . S
C1863 H1878 0.961 . S
C1863 H1879 0.960 . S
H1864 C1848 0.931 . S
H1865 C1853 0.929 . S
H1866 C1854 0.960 . S
H1867 C1854 0.962 . S
H1868 C1854 0.960 . S
H1869 C1855 0.961 . S
H1870 C1855 0.961 . S
H1871 C1855 0.961 . S
H1872 C1856 0.931 . S
H1873 C1861 0.930 . S
H1874 C1862 0.956 . S
H1875 C1862 0.961 . S
H1876 C1862 0.961 . S
H1877 C1863 0.958 . S
H1878 C1863 0.961 . S
H1879 C1863 0.960 . S
C1880 C1881 1.391 . S
C1880 C1882 1.394 . S
C1880 H1896 0.931 . S
C1881 C1880 1.391 . S
C1881 C1885 1.376 . S
C1882 C1880 1.394 . S
C1882 C1883 1.369 . S
C1882 C1886 1.531 . S
C1883 C1882 1.369 . S
C1883 C1884 1.410 . S
C1883 C1891 1.503 . S
C1884 C1883 1.410 . S
C1884 C1885 1.392 . S
C1884 C1887 1.511 . S
C1885 C1881 1.376 . S
C1885 C1884 1.392 . S
C1885 H1897 0.929 . S
C1886 C1882 1.531 . S
C1886 H1898 0.960 . S
C1886 H1899 0.962 . S
C1886 H1900 0.960 . S
C1887 C1884 1.511 . S
C1887 H1901 0.961 . S
C1887 H1902 0.961 . S
C1887 H1903 0.961 . S
C1888 C1889 1.370 . S
C1888 C1890 1.363 . S
C1888 H1904 0.931 . S
C1889 C1888 1.370 . S
C1889 C1893 1.408 . S
C1890 C1888 1.363 . S
C1890 C1891 1.370 . S
C1890 C1894 1.524 . S
C1891 C1883 1.503 . S
C1891 C1890 1.370 . S
C1891 C1892 1.403 . S
C1892 C1891 1.403 . S
C1892 C1893 1.404 . S
C1892 C1895 1.539 . S
C1893 C1889 1.408 . S
C1893 C1892 1.404 . S
C1893 H1905 0.930 . S
C1894 C1890 1.524 . S
C1894 H1906 0.956 . S
C1894 H1907 0.961 . S
C1894 H1908 0.961 . S
C1895 C1892 1.539 . S
C1895 H1909 0.958 . S
C1895 H1910 0.961 . S
C1895 H1911 0.960 . S
H1896 C1880 0.931 . S
H1897 C1885 0.929 . S
H1898 C1886 0.960 . S
H1899 C1886 0.962 . S
H1900 C1886 0.960 . S
H1901 C1887 0.961 . S
H1902 C1887 0.961 . S
H1903 C1887 0.961 . S
H1904 C1888 0.931 . S
H1905 C1893 0.930 . S
H1906 C1894 0.956 . S
H1907 C1894 0.961 . S
H1908 C1894 0.961 . S
H1909 C1895 0.958 . S
H1910 C1895 0.961 . S
H1911 C1895 0.960 . S
C1912 C1913 1.391 . S
C1912 C1914 1.394 . S
C1912 H1928 0.931 . S
C1913 C1912 1.391 . S
C1913 C1917 1.376 . S
C1914 C1912 1.394 . S
C1914 C1915 1.369 . S
C1914 C1918 1.531 . S
C1915 C1914 1.369 . S
C1915 C1916 1.410 . S
C1915 C1923 1.503 . S
C1916 C1915 1.410 . S
C1916 C1917 1.392 . S
C1916 C1919 1.511 . S
C1917 C1913 1.376 . S
C1917 C1916 1.392 . S
C1917 H1929 0.929 . S
C1918 C1914 1.531 . S
C1918 H1930 0.960 . S
C1918 H1931 0.962 . S
C1918 H1932 0.960 . S
C1919 C1916 1.511 . S
C1919 H1933 0.961 . S
C1919 H1934 0.961 . S
C1919 H1935 0.961 . S
C1920 C1921 1.370 . S
C1920 C1922 1.363 . S
C1920 H1936 0.931 . S
C1921 C1920 1.370 . S
C1921 C1925 1.408 . S
C1922 C1920 1.363 . S
C1922 C1923 1.370 . S
C1922 C1926 1.524 . S
C1923 C1915 1.503 . S
C1923 C1922 1.370 . S
C1923 C1924 1.403 . S
C1924 C1923 1.403 . S
C1924 C1925 1.404 . S
C1924 C1927 1.539 . S
C1925 C1921 1.408 . S
C1925 C1924 1.404 . S
C1925 H1937 0.930 . S
C1926 C1922 1.524 . S
C1926 H1938 0.956 . S
C1926 H1939 0.961 . S
C1926 H1940 0.961 . S
C1927 C1924 1.539 . S
C1927 H1941 0.958 . S
C1927 H1942 0.961 . S
C1927 H1943 0.960 . S
H1928 C1912 0.931 . S
H1929 C1917 0.929 . S
H1930 C1918 0.960 . S
H1931 C1918 0.962 . S
H1932 C1918 0.960 . S
H1933 C1919 0.961 . S
H1934 C1919 0.961 . S
H1935 C1919 0.961 . S
H1936 C1920 0.931 . S
H1937 C1925 0.930 . S
H1938 C1926 0.956 . S
H1939 C1926 0.961 . S
H1940 C1926 0.961 . S
H1941 C1927 0.958 . S
H1942 C1927 0.961 . S
H1943 C1927 0.960 . S
C1944 C1945 1.391 . S
C1944 C1946 1.394 . S
C1944 H1960 0.931 . S
C1945 C1944 1.391 . S
C1945 C1949 1.376 . S
C1946 C1944 1.394 . S
C1946 C1947 1.369 . S
C1946 C1950 1.531 . S
C1947 C1946 1.369 . S
C1947 C1948 1.410 . S
C1947 C1955 1.503 . S
C1948 C1947 1.410 . S
C1948 C1949 1.392 . S
C1948 C1951 1.511 . S
C1949 C1945 1.376 . S
C1949 C1948 1.392 . S
C1949 H1961 0.929 . S
C1950 C1946 1.531 . S
C1950 H1962 0.960 . S
C1950 H1963 0.962 . S
C1950 H1964 0.960 . S
C1951 C1948 1.511 . S
C1951 H1965 0.961 . S
C1951 H1966 0.961 . S
C1951 H1967 0.961 . S
C1952 C1953 1.370 . S
C1952 C1954 1.363 . S
C1952 H1968 0.931 . S
C1953 C1952 1.370 . S
C1953 C1957 1.408 . S
C1954 C1952 1.363 . S
C1954 C1955 1.370 . S
C1954 C1958 1.524 . S
C1955 C1947 1.503 . S
C1955 C1954 1.370 . S
C1955 C1956 1.403 . S
C1956 C1955 1.403 . S
C1956 C1957 1.404 . S
C1956 C1959 1.539 . S
C1957 C1953 1.408 . S
C1957 C1956 1.404 . S
C1957 H1969 0.930 . S
C1958 C1954 1.524 . S
C1958 H1970 0.956 . S
C1958 H1971 0.961 . S
C1958 H1972 0.961 . S
C1959 C1956 1.539 . S
C1959 H1973 0.958 . S
C1959 H1974 0.961 . S
C1959 H1975 0.960 . S
H1960 C1944 0.931 . S
H1961 C1949 0.929 . S
H1962 C1950 0.960 . S
H1963 C1950 0.962 . S
H1964 C1950 0.960 . S
H1965 C1951 0.961 . S
H1966 C1951 0.961 . S
H1967 C1951 0.961 . S
H1968 C1952 0.931 . S
H1969 C1957 0.930 . S
H1970 C1958 0.956 . S
H1971 C1958 0.961 . S
H1972 C1958 0.961 . S
H1973 C1959 0.958 . S
H1974 C1959 0.961 . S
H1975 C1959 0.960 . S
C1976 C1977 1.391 . S
C1976 C1978 1.394 . S
C1976 H1992 0.931 . S
C1977 C1976 1.391 . S
C1977 C1981 1.376 . S
C1978 C1976 1.394 . S
C1978 C1979 1.369 1_565 S
C1978 C1982 1.531 . S
C1979 C1978 1.369 1_545 S
C1979 C1980 1.410 1_545 S
C1979 C1987 1.503 . S
C1980 C1979 1.410 1_565 S
C1980 C1981 1.392 . S
C1980 C1983 1.511 1_565 S
C1981 C1977 1.376 . S
C1981 C1980 1.392 . S
C1981 H1993 0.929 . S
C1982 C1978 1.531 . S
C1982 H1994 0.942 1_565 S
C1982 H1995 0.966 1_565 S
C1982 H1996 0.974 . S
C1983 C1980 1.511 1_545 S
C1983 H1997 0.961 1_545 S
C1983 H1998 0.961 . S
C1983 H1999 0.961 . S
C1984 C1985 1.370 . S
C1984 C1986 1.363 . S
C1984 H2000 0.931 . S
C1985 C1984 1.370 . S
C1985 C1989 1.408 . S
C1986 C1984 1.363 . S
C1986 C1987 1.370 . S
C1986 C1990 1.524 . S
C1987 C1979 1.503 . S
C1987 C1986 1.370 . S
C1987 C1988 1.403 . S
C1988 C1987 1.403 . S
C1988 C1989 1.404 . S
C1988 C1991 1.539 . S
C1989 C1985 1.408 . S
C1989 C1988 1.404 . S
C1989 H2001 0.930 . S
C1990 C1986 1.524 . S
C1990 H2002 0.956 . S
C1990 H2003 0.961 . S
C1990 H2004 0.961 . S
C1991 C1988 1.539 . S
C1991 H2005 0.958 . S
C1991 H2006 0.961 . S
C1991 H2007 0.960 . S
H1992 C1976 0.931 . S
H1993 C1981 0.929 . S
H1994 C1982 0.942 1_545 S
H1995 C1982 0.966 1_545 S
H1996 C1982 0.974 . S
H1997 C1983 0.961 1_565 S
H1998 C1983 0.961 . S
H1999 C1983 0.961 . S
H2000 C1984 0.931 . S
H2001 C1989 0.930 . S
H2002 C1990 0.956 . S
H2003 C1990 0.961 . S
H2004 C1990 0.961 . S
H2005 C1991 0.958 . S
H2006 C1991 0.961 . S
H2007 C1991 0.960 . S
C2008 C2009 1.391 . S
C2008 C2010 1.394 . S
C2008 H2024 0.931 . S
C2009 C2008 1.391 . S
C2009 C2013 1.376 . S
C2010 C2008 1.394 . S
C2010 C2011 1.369 . S
C2010 C2014 1.531 . S
C2011 C2010 1.369 . S
C2011 C2012 1.410 . S
C2011 C2019 1.503 . S
C2012 C2011 1.410 . S
C2012 C2013 1.392 . S
C2012 C2015 1.511 . S
C2013 C2009 1.376 . S
C2013 C2012 1.392 . S
C2013 H2025 0.929 . S
C2014 C2010 1.531 . S
C2014 H2026 0.960 . S
C2014 H2027 0.962 . S
C2014 H2028 0.960 . S
C2015 C2012 1.511 . S
C2015 H2029 0.961 . S
C2015 H2030 0.961 . S
C2015 H2031 0.961 . S
C2016 C2017 1.370 . S
C2016 C2018 1.363 . S
C2016 H2032 0.931 . S
C2017 C2016 1.370 . S
C2017 C2021 1.408 . S
C2018 C2016 1.363 . S
C2018 C2019 1.370 1_455 S
C2018 C2022 1.524 1_455 S
C2019 C2011 1.503 . S
C2019 C2018 1.370 1_655 S
C2019 C2020 1.403 1_655 S
C2020 C2019 1.403 1_455 S
C2020 C2021 1.404 . S
C2020 C2023 1.539 . S
C2021 C2017 1.408 . S
C2021 C2020 1.404 . S
C2021 H2033 0.930 . S
C2022 C2018 1.524 1_655 S
C2022 H2034 0.956 . S
C2022 H2035 0.961 . S
C2022 H2036 0.961 1_655 S
C2023 C2020 1.539 . S
C2023 H2037 0.957 1_455 S
C2023 H2038 0.960 . S
C2023 H2039 0.963 1_455 S
H2024 C2008 0.931 . S
H2025 C2013 0.929 . S
H2026 C2014 0.960 . S
H2027 C2014 0.962 . S
H2028 C2014 0.960 . S
H2029 C2015 0.961 . S
H2030 C2015 0.961 . S
H2031 C2015 0.961 . S
H2032 C2016 0.931 . S
H2033 C2021 0.930 . S
H2034 C2022 0.956 . S
H2035 C2022 0.961 . S
H2036 C2022 0.961 1_455 S
H2037 C2023 0.957 1_655 S
H2038 C2023 0.960 . S
H2039 C2023 0.963 1_655 S
C2040 C2041 1.391 . S
C2040 C2042 1.394 . S
C2040 H2056 0.931 . S
C2041 C2040 1.391 . S
C2041 C2045 1.376 . S
C2042 C2040 1.394 . S
C2042 C2043 1.369 . S
C2042 C2046 1.531 . S
C2043 C2042 1.369 . S
C2043 C2044 1.410 . S
C2043 C2051 1.503 . S
C2044 C2043 1.410 . S
C2044 C2045 1.392 . S
C2044 C2047 1.511 . S
C2045 C2041 1.376 . S
C2045 C2044 1.392 . S
C2045 H2057 0.929 . S
C2046 C2042 1.531 . S
C2046 H2058 0.960 . S
C2046 H2059 0.962 . S
C2046 H2060 0.960 . S
C2047 C2044 1.511 . S
C2047 H2061 0.961 . S
C2047 H2062 0.961 . S
C2047 H2063 0.961 . S
C2048 C2049 1.370 . S
C2048 C2050 1.363 . S
C2048 H2064 0.931 . S
C2049 C2048 1.370 . S
C2049 C2053 1.408 . S
C2050 C2048 1.363 . S
C2050 C2051 1.370 . S
C2050 C2054 1.524 . S
C2051 C2043 1.503 . S
C2051 C2050 1.370 . S
C2051 C2052 1.403 . S
C2052 C2051 1.403 . S
C2052 C2053 1.404 . S
C2052 C2055 1.539 . S
C2053 C2049 1.408 . S
C2053 C2052 1.404 . S
C2053 H2065 0.930 . S
C2054 C2050 1.524 . S
C2054 H2066 0.956 . S
C2054 H2067 0.961 . S
C2054 H2068 0.961 . S
C2055 C2052 1.539 . S
C2055 H2069 0.958 . S
C2055 H2070 0.961 . S
C2055 H2071 0.960 . S
H2056 C2040 0.931 . S
H2057 C2045 0.929 . S
H2058 C2046 0.960 . S
H2059 C2046 0.962 . S
H2060 C2046 0.960 . S
H2061 C2047 0.961 . S
H2062 C2047 0.961 . S
H2063 C2047 0.961 . S
H2064 C2048 0.931 . S
H2065 C2053 0.930 . S
H2066 C2054 0.956 . S
H2067 C2054 0.961 . S
H2068 C2054 0.961 . S
H2069 C2055 0.958 . S
H2070 C2055 0.961 . S
H2071 C2055 0.960 . S
C2072 C2073 1.391 . S
C2072 C2074 1.394 . S
C2072 H2088 0.931 . S
C2073 C2072 1.391 . S
C2073 C2077 1.376 . S
C2074 C2072 1.394 . S
C2074 C2075 1.369 1_545 S
C2074 C2078 1.531 1_545 S
C2075 C2074 1.369 1_565 S
C2075 C2076 1.410 1_565 S
C2075 C2083 1.503 . S
C2076 C2075 1.410 1_545 S
C2076 C2077 1.392 . S
C2076 C2079 1.511 . S
C2077 C2073 1.376 . S
C2077 C2076 1.392 . S
C2077 H2089 0.929 . S
C2078 C2074 1.531 1_565 S
C2078 H2090 0.960 . S
C2078 H2091 0.962 . S
C2078 H2092 0.960 1_565 S
C2079 C2076 1.511 . S
C2079 H2093 0.961 . S
C2079 H2094 0.961 1_545 S
C2079 H2095 0.961 1_545 S
C2080 C2081 1.370 . S
C2080 C2082 1.363 . S
C2080 H2096 0.931 . S
C2081 C2080 1.370 . S
C2081 C2085 1.408 . S
C2082 C2080 1.363 . S
C2082 C2083 1.370 . S
C2082 C2086 1.524 . S
C2083 C2075 1.503 . S
C2083 C2082 1.370 . S
C2083 C2084 1.403 . S
C2084 C2083 1.403 . S
C2084 C2085 1.404 . S
C2084 C2087 1.539 . S
C2085 C2081 1.408 . S
C2085 C2084 1.404 . S
C2085 H2097 0.930 . S
C2086 C2082 1.524 . S
C2086 H2098 0.956 . S
C2086 H2099 0.961 . S
C2086 H2100 0.961 . S
C2087 C2084 1.539 . S
C2087 H2101 0.958 . S
C2087 H2102 0.961 . S
C2087 H2103 0.960 . S
H2088 C2072 0.931 . S
H2089 C2077 0.929 . S
H2090 C2078 0.960 . S
H2091 C2078 0.962 . S
H2092 C2078 0.960 1_545 S
H2093 C2079 0.961 . S
H2094 C2079 0.961 1_565 S
H2095 C2079 0.961 1_565 S
H2096 C2080 0.931 . S
H2097 C2085 0.930 . S
H2098 C2086 0.956 . S
H2099 C2086 0.961 . S
H2100 C2086 0.961 . S
H2101 C2087 0.958 . S
H2102 C2087 0.961 . S
H2103 C2087 0.960 . S
C2104 C2105 1.391 . S
C2104 C2106 1.394 . S
C2104 H2120 0.931 . S
C2105 C2104 1.391 . S
C2105 C2109 1.376 . S
C2106 C2104 1.394 . S
C2106 C2107 1.369 . S
C2106 C2110 1.531 . S
C2107 C2106 1.369 . S
C2107 C2108 1.410 . S
C2107 C2115 1.503 . S
C2108 C2107 1.410 . S
C2108 C2109 1.392 . S
C2108 C2111 1.511 . S
C2109 C2105 1.376 . S
C2109 C2108 1.392 . S
C2109 H2121 0.929 . S
C2110 C2106 1.531 . S
C2110 H2122 0.960 . S
C2110 H2123 0.962 . S
C2110 H2124 0.960 . S
C2111 C2108 1.511 . S
C2111 H2125 0.961 . S
C2111 H2126 0.961 . S
C2111 H2127 0.961 . S
C2112 C2113 1.370 . S
C2112 C2114 1.363 . S
C2112 H2128 0.931 . S
C2113 C2112 1.370 . S
C2113 C2117 1.408 . S
C2114 C2112 1.363 . S
C2114 C2115 1.370 1_655 S
C2114 C2118 1.524 1_655 S
C2115 C2107 1.503 . S
C2115 C2114 1.370 1_455 S
C2115 C2116 1.403 1_455 S
C2116 C2115 1.403 1_655 S
C2116 C2117 1.404 . S
C2116 C2119 1.539 . S
C2117 C2113 1.408 . S
C2117 C2116 1.404 . S
C2117 H2129 0.930 . S
C2118 C2114 1.524 1_455 S
C2118 H2130 0.956 . S
C2118 H2131 0.961 . S
C2118 H2132 0.961 1_455 S
C2119 C2116 1.539 . S
C2119 H2133 0.958 1_655 S
C2119 H2134 0.961 . S
C2119 H2135 0.960 1_655 S
H2120 C2104 0.931 . S
H2121 C2109 0.929 . S
H2122 C2110 0.960 . S
H2123 C2110 0.962 . S
H2124 C2110 0.960 . S
H2125 C2111 0.961 . S
H2126 C2111 0.961 . S
H2127 C2111 0.961 . S
H2128 C2112 0.931 . S
H2129 C2117 0.930 . S
H2130 C2118 0.956 . S
H2131 C2118 0.961 . S
H2132 C2118 0.961 1_655 S
H2133 C2119 0.958 1_455 S
H2134 C2119 0.961 . S
H2135 C2119 0.960 1_455 S
C2136 C2137 1.391 . S
C2136 C2138 1.394 . S
C2136 H2152 0.931 . S
C2137 C2136 1.391 . S
C2137 C2141 1.376 . S
C2138 C2136 1.394 . S
C2138 C2139 1.369 . S
C2138 C2142 1.531 . S
C2139 C2138 1.369 . S
C2139 C2140 1.410 . S
C2139 C2147 1.503 . S
C2140 C2139 1.410 . S
C2140 C2141 1.392 . S
C2140 C2143 1.511 . S
C2141 C2137 1.376 . S
C2141 C2140 1.392 . S
C2141 H2153 0.929 . S
C2142 C2138 1.531 . S
C2142 H2154 0.960 . S
C2142 H2155 0.962 . S
C2142 H2156 0.960 . S
C2143 C2140 1.511 . S
C2143 H2157 0.961 . S
C2143 H2158 0.961 . S
C2143 H2159 0.961 . S
C2144 C2145 1.370 . S
C2144 C2146 1.363 . S
C2144 H2160 0.931 . S
C2145 C2144 1.370 . S
C2145 C2149 1.408 . S
C2146 C2144 1.363 . S
C2146 C2147 1.370 . S
C2146 C2150 1.524 . S
C2147 C2139 1.503 . S
C2147 C2146 1.370 . S
C2147 C2148 1.403 . S
C2148 C2147 1.403 . S
C2148 C2149 1.404 . S
C2148 C2151 1.539 . S
C2149 C2145 1.408 . S
C2149 C2148 1.404 . S
C2149 H2161 0.930 . S
C2150 C2146 1.524 . S
C2150 H2162 0.956 . S
C2150 H2163 0.961 . S
C2150 H2164 0.961 . S
C2151 C2148 1.539 . S
C2151 H2165 0.958 . S
C2151 H2166 0.961 . S
C2151 H2167 0.960 . S
H2152 C2136 0.931 . S
H2153 C2141 0.929 . S
H2154 C2142 0.960 . S
H2155 C2142 0.962 . S
H2156 C2142 0.960 . S
H2157 C2143 0.961 . S
H2158 C2143 0.961 . S
H2159 C2143 0.961 . S
H2160 C2144 0.931 . S
H2161 C2149 0.930 . S
H2162 C2150 0.956 . S
H2163 C2150 0.961 . S
H2164 C2150 0.961 . S
H2165 C2151 0.958 . S
H2166 C2151 0.961 . S
H2167 C2151 0.960 . S
C2168 C2169 1.391 . S
C2168 C2170 1.394 . S
C2168 H2184 0.931 . S
C2169 C2168 1.391 . S
C2169 C2173 1.376 . S
C2170 C2168 1.394 . S
C2170 C2171 1.369 1_545 S
C2170 C2174 1.531 1_545 S
C2171 C2170 1.369 1_565 S
C2171 C2172 1.410 1_565 S
C2171 C2179 1.503 . S
C2172 C2171 1.410 1_545 S
C2172 C2173 1.392 . S
C2172 C2175 1.511 . S
C2173 C2169 1.376 . S
C2173 C2172 1.392 . S
C2173 H2185 0.929 . S
C2174 C2170 1.531 1_565 S
C2174 H2186 0.960 . S
C2174 H2187 0.962 . S
C2174 H2188 0.960 1_565 S
C2175 C2172 1.511 . S
C2175 H2189 0.961 . S
C2175 H2190 0.961 1_545 S
C2175 H2191 0.961 1_545 S
C2176 C2177 1.370 . S
C2176 C2178 1.363 . S
C2176 H2192 0.931 . S
C2177 C2176 1.370 . S
C2177 C2181 1.408 . S
C2178 C2176 1.363 . S
C2178 C2179 1.370 . S
C2178 C2182 1.524 . S
C2179 C2171 1.503 . S
C2179 C2178 1.370 . S
C2179 C2180 1.403 . S
C2180 C2179 1.403 . S
C2180 C2181 1.404 . S
C2180 C2183 1.539 . S
C2181 C2177 1.408 . S
C2181 C2180 1.404 . S
C2181 H2193 0.930 . S
C2182 C2178 1.524 . S
C2182 H2194 0.956 . S
C2182 H2195 0.961 . S
C2182 H2196 0.961 . S
C2183 C2180 1.539 . S
C2183 H2197 0.958 . S
C2183 H2198 0.961 . S
C2183 H2199 0.960 . S
H2184 C2168 0.931 . S
H2185 C2173 0.929 . S
H2186 C2174 0.960 . S
H2187 C2174 0.962 . S
H2188 C2174 0.960 1_545 S
H2189 C2175 0.961 . S
H2190 C2175 0.961 1_565 S
H2191 C2175 0.961 1_565 S
H2192 C2176 0.931 . S
H2193 C2181 0.930 . S
H2194 C2182 0.956 . S
H2195 C2182 0.961 . S
H2196 C2182 0.961 . S
H2197 C2183 0.958 . S
H2198 C2183 0.961 . S
H2199 C2183 0.960 . S
C2200 C2201 1.391 . S
C2200 C2202 1.394 . S
C2200 H2216 0.931 . S
C2201 C2200 1.391 . S
C2201 C2205 1.376 . S
C2202 C2200 1.394 . S
C2202 C2203 1.369 1_655 S
C2202 C2206 1.495 1_655 S
C2203 C2202 1.369 1_455 S
C2203 C2204 1.410 1_455 S
C2203 C2211 1.503 . S
C2204 C2203 1.410 1_655 S
C2204 C2205 1.392 . S
C2204 C2207 1.511 1_655 S
C2205 C2201 1.376 . S
C2205 C2204 1.392 . S
C2205 H2217 0.929 . S
C2206 C2202 1.495 1_455 S
C2206 H2218 0.989 . S
C2206 H2219 0.986 . S
C2206 H2220 0.946 1_455 S
C2207 C2204 1.511 1_455 S
C2207 H2221 0.961 1_455 S
C2207 H2222 0.961 . S
C2207 H2223 0.961 . S
C2208 C2209 1.370 . S
C2208 C2210 1.363 . S
C2208 H2224 0.931 . S
C2209 C2208 1.370 . S
C2209 C2213 1.408 . S
C2210 C2208 1.363 . S
C2210 C2211 1.370 . S
C2210 C2214 1.524 . S
C2211 C2203 1.503 . S
C2211 C2210 1.370 . S
C2211 C2212 1.403 . S
C2212 C2211 1.403 . S
C2212 C2213 1.404 . S
C2212 C2215 1.539 . S
C2213 C2209 1.408 . S
C2213 C2212 1.404 . S
C2213 H2225 0.930 . S
C2214 C2210 1.524 . S
C2214 H2226 0.956 . S
C2214 H2227 0.961 . S
C2214 H2228 0.961 . S
C2215 C2212 1.539 . S
C2215 H2229 0.958 . S
C2215 H2230 0.961 . S
C2215 H2231 0.960 . S
H2216 C2200 0.931 . S
H2217 C2205 0.929 . S
H2218 C2206 0.989 . S
H2219 C2206 0.986 . S
H2220 C2206 0.946 1_655 S
H2221 C2207 0.961 1_655 S
H2222 C2207 0.961 . S
H2223 C2207 0.961 . S
H2224 C2208 0.931 . S
H2225 C2213 0.930 . S
H2226 C2214 0.956 . S
H2227 C2214 0.961 . S
H2228 C2214 0.961 . S
H2229 C2215 0.958 . S
H2230 C2215 0.961 . S
H2231 C2215 0.960 . S
C2232 C2233 1.391 . S
C2232 C2234 1.394 . S
C2232 H2248 0.931 . S
C2233 C2232 1.391 . S
C2233 C2237 1.376 . S
C2234 C2232 1.394 . S
C2234 C2235 1.369 . S
C2234 C2238 1.531 . S
C2235 C2234 1.369 . S
C2235 C2236 1.410 . S
C2235 C2243 1.503 . S
C2236 C2235 1.410 . S
C2236 C2237 1.392 . S
C2236 C2239 1.511 . S
C2237 C2233 1.376 . S
C2237 C2236 1.392 . S
C2237 H2249 0.929 . S
C2238 C2234 1.531 . S
C2238 H2250 0.960 . S
C2238 H2251 0.962 . S
C2238 H2252 0.960 . S
C2239 C2236 1.511 . S
C2239 H2253 0.961 . S
C2239 H2254 0.961 . S
C2239 H2255 0.961 . S
C2240 C2241 1.370 . S
C2240 C2242 1.363 . S
C2240 H2256 0.931 . S
C2241 C2240 1.370 . S
C2241 C2245 1.408 . S
C2242 C2240 1.363 . S
C2242 C2243 1.370 . S
C2242 C2246 1.524 . S
C2243 C2235 1.503 . S
C2243 C2242 1.370 . S
C2243 C2244 1.403 . S
C2244 C2243 1.403 . S
C2244 C2245 1.404 . S
C2244 C2247 1.539 . S
C2245 C2241 1.408 . S
C2245 C2244 1.404 . S
C2245 H2257 0.930 . S
C2246 C2242 1.524 . S
C2246 H2258 0.956 . S
C2246 H2259 0.961 . S
C2246 H2260 0.961 . S
C2247 C2244 1.539 . S
C2247 H2261 0.958 . S
C2247 H2262 0.961 . S
C2247 H2263 0.960 . S
H2248 C2232 0.931 . S
H2249 C2237 0.929 . S
H2250 C2238 0.960 . S
H2251 C2238 0.962 . S
H2252 C2238 0.960 . S
H2253 C2239 0.961 . S
H2254 C2239 0.961 . S
H2255 C2239 0.961 . S
H2256 C2240 0.931 . S
H2257 C2245 0.930 . S
H2258 C2246 0.956 . S
H2259 C2246 0.961 . S
H2260 C2246 0.961 . S
H2261 C2247 0.958 . S
H2262 C2247 0.961 . S
H2263 C2247 0.960 . S
C2264 C2265 1.391 . S
C2264 C2266 1.394 . S
C2264 H2280 0.931 . S
C2265 C2264 1.391 . S
C2265 C2269 1.376 . S
C2266 C2264 1.394 . S
C2266 C2267 1.369 1_565 S
C2266 C2270 1.531 1_565 S
C2267 C2266 1.369 1_545 S
C2267 C2268 1.410 1_545 S
C2267 C2275 1.503 . S
C2268 C2267 1.410 1_565 S
C2268 C2269 1.392 . S
C2268 C2271 1.511 . S
C2269 C2265 1.376 . S
C2269 C2268 1.392 . S
C2269 H2281 0.929 . S
C2270 C2266 1.531 1_545 S
C2270 H2282 0.960 . S
C2270 H2283 0.962 . S
C2270 H2284 0.960 1_545 S
C2271 C2268 1.511 . S
C2271 H2285 0.961 . S
C2271 H2286 0.961 1_565 S
C2271 H2287 0.952 1_565 S
C2272 C2273 1.370 . S
C2272 C2274 1.363 . S
C2272 H2288 0.931 . S
C2273 C2272 1.370 . S
C2273 C2277 1.408 . S
C2274 C2272 1.363 . S
C2274 C2275 1.370 . S
C2274 C2278 1.524 . S
C2275 C2267 1.503 . S
C2275 C2274 1.370 . S
C2275 C2276 1.403 . S
C2276 C2275 1.403 . S
C2276 C2277 1.404 . S
C2276 C2279 1.539 . S
C2277 C2273 1.408 . S
C2277 C2276 1.404 . S
C2277 H2289 0.930 . S
C2278 C2274 1.524 . S
C2278 H2290 0.956 . S
C2278 H2291 0.961 . S
C2278 H2292 0.961 . S
C2279 C2276 1.539 . S
C2279 H2293 0.958 . S
C2279 H2294 0.961 . S
C2279 H2295 0.960 . S
H2280 C2264 0.931 . S
H2281 C2269 0.929 . S
H2282 C2270 0.960 . S
H2283 C2270 0.962 . S
H2284 C2270 0.960 1_565 S
H2285 C2271 0.961 . S
H2286 C2271 0.961 1_545 S
H2287 C2271 0.952 1_545 S
H2288 C2272 0.931 . S
H2289 C2277 0.930 . S
H2290 C2278 0.956 . S
H2291 C2278 0.961 . S
H2292 C2278 0.961 . S
H2293 C2279 0.958 . S
H2294 C2279 0.961 . S
H2295 C2279 0.960 . S
C2296 C2297 1.391 . S
C2296 C2298 1.394 . S
C2296 H2312 0.931 . S
C2297 C2296 1.391 . S
C2297 C2301 1.376 . S
C2298 C2296 1.394 . S
C2298 C2299 1.369 . S
C2298 C2302 1.531 . S
C2299 C2298 1.369 . S
C2299 C2300 1.410 . S
C2299 C2307 1.503 . S
C2300 C2299 1.410 . S
C2300 C2301 1.392 . S
C2300 C2303 1.511 . S
C2301 C2297 1.376 . S
C2301 C2300 1.392 . S
C2301 H2313 0.929 . S
C2302 C2298 1.531 . S
C2302 H2314 0.960 . S
C2302 H2315 0.962 . S
C2302 H2316 0.960 . S
C2303 C2300 1.511 . S
C2303 H2317 0.961 . S
C2303 H2318 0.961 . S
C2303 H2319 0.961 . S
C2304 C2305 1.370 . S
C2304 C2306 1.363 . S
C2304 H2320 0.931 . S
C2305 C2304 1.370 . S
C2305 C2309 1.408 . S
C2306 C2304 1.363 . S
C2306 C2307 1.370 1_455 S
C2306 C2310 1.524 1_455 S
C2307 C2299 1.503 . S
C2307 C2306 1.370 1_655 S
C2307 C2308 1.403 1_655 S
C2308 C2307 1.403 1_455 S
C2308 C2309 1.404 . S
C2308 C2311 1.539 . S
C2309 C2305 1.408 . S
C2309 C2308 1.404 . S
C2309 H2321 0.930 . S
C2310 C2306 1.524 1_655 S
C2310 H2322 0.956 . S
C2310 H2323 0.961 . S
C2310 H2324 0.961 1_655 S
C2311 C2308 1.539 . S
C2311 H2325 0.958 1_455 S
C2311 H2326 0.961 . S
C2311 H2327 0.960 1_455 S
H2312 C2296 0.931 . S
H2313 C2301 0.929 . S
H2314 C2302 0.960 . S
H2315 C2302 0.962 . S
H2316 C2302 0.960 . S
H2317 C2303 0.961 . S
H2318 C2303 0.961 . S
H2319 C2303 0.961 . S
H2320 C2304 0.931 . S
H2321 C2309 0.930 . S
H2322 C2310 0.956 . S
H2323 C2310 0.961 . S
H2324 C2310 0.961 1_455 S
H2325 C2311 0.958 1_655 S
H2326 C2311 0.961 . S
H2327 C2311 0.960 1_655 S
C2328 C2329 1.391 . S
C2328 C2330 1.394 . S
C2328 H2344 0.931 . S
C2329 C2328 1.391 . S
C2329 C2333 1.376 . S
C2330 C2328 1.394 . S
C2330 C2331 1.369 . S
C2330 C2334 1.531 . S
C2331 C2330 1.369 . S
C2331 C2332 1.410 . S
C2331 C2339 1.503 . S
C2332 C2331 1.410 . S
C2332 C2333 1.392 . S
C2332 C2335 1.511 . S
C2333 C2329 1.376 . S
C2333 C2332 1.392 . S
C2333 H2345 0.929 . S
C2334 C2330 1.531 . S
C2334 H2346 0.960 . S
C2334 H2347 0.962 . S
C2334 H2348 0.960 . S
C2335 C2332 1.511 . S
C2335 H2349 0.961 . S
C2335 H2350 0.961 . S
C2335 H2351 0.961 . S
C2336 C2337 1.370 . S
C2336 C2338 1.363 . S
C2336 H2352 0.931 . S
C2337 C2336 1.370 . S
C2337 C2341 1.408 . S
C2338 C2336 1.363 . S
C2338 C2339 1.370 . S
C2338 C2342 1.524 . S
C2339 C2331 1.503 . S
C2339 C2338 1.370 . S
C2339 C2340 1.403 . S
C2340 C2339 1.403 . S
C2340 C2341 1.404 . S
C2340 C2343 1.539 . S
C2341 C2337 1.408 . S
C2341 C2340 1.404 . S
C2341 H2353 0.930 . S
C2342 C2338 1.524 . S
C2342 H2354 0.956 . S
C2342 H2355 0.961 . S
C2342 H2356 0.961 . S
C2343 C2340 1.539 . S
C2343 H2357 0.958 . S
C2343 H2358 0.961 . S
C2343 H2359 0.960 . S
H2344 C2328 0.931 . S
H2345 C2333 0.929 . S
H2346 C2334 0.960 . S
H2347 C2334 0.962 . S
H2348 C2334 0.960 . S
H2349 C2335 0.961 . S
H2350 C2335 0.961 . S
H2351 C2335 0.961 . S
H2352 C2336 0.931 . S
H2353 C2341 0.930 . S
H2354 C2342 0.956 . S
H2355 C2342 0.961 . S
H2356 C2342 0.961 . S
H2357 C2343 0.958 . S
H2358 C2343 0.961 . S
H2359 C2343 0.960 . S
C2360 C2361 1.391 . S
C2360 C2362 1.394 . S
C2360 H2376 0.931 . S
C2361 C2360 1.391 . S
C2361 C2365 1.376 . S
C2362 C2360 1.394 . S
C2362 C2363 1.369 . S
C2362 C2366 1.531 . S
C2363 C2362 1.369 . S
C2363 C2364 1.410 . S
C2363 C2371 1.503 . S
C2364 C2363 1.410 . S
C2364 C2365 1.392 . S
C2364 C2367 1.511 . S
C2365 C2361 1.376 . S
C2365 C2364 1.392 . S
C2365 H2377 0.929 . S
C2366 C2362 1.531 . S
C2366 H2378 0.960 . S
C2366 H2379 0.962 . S
C2366 H2380 0.960 . S
C2367 C2364 1.511 . S
C2367 H2381 0.961 . S
C2367 H2382 0.961 . S
C2367 H2383 0.961 . S
C2368 C2369 1.370 . S
C2368 C2370 1.363 . S
C2368 H2384 0.931 . S
C2369 C2368 1.370 . S
C2369 C2373 1.408 . S
C2370 C2368 1.363 . S
C2370 C2371 1.370 . S
C2370 C2374 1.524 . S
C2371 C2363 1.503 . S
C2371 C2370 1.370 . S
C2371 C2372 1.403 . S
C2372 C2371 1.403 . S
C2372 C2373 1.404 . S
C2372 C2375 1.539 . S
C2373 C2369 1.408 . S
C2373 C2372 1.404 . S
C2373 H2385 0.930 . S
C2374 C2370 1.524 . S
C2374 H2386 0.956 . S
C2374 H2387 0.961 . S
C2374 H2388 0.961 . S
C2375 C2372 1.539 . S
C2375 H2389 0.958 . S
C2375 H2390 0.961 . S
C2375 H2391 0.960 . S
H2376 C2360 0.931 . S
H2377 C2365 0.929 . S
H2378 C2366 0.960 . S
H2379 C2366 0.962 . S
H2380 C2366 0.960 . S
H2381 C2367 0.961 . S
H2382 C2367 0.961 . S
H2383 C2367 0.961 . S
H2384 C2368 0.931 . S
H2385 C2373 0.930 . S
H2386 C2374 0.956 . S
H2387 C2374 0.961 . S
H2388 C2374 0.961 . S
H2389 C2375 0.958 . S
H2390 C2375 0.961 . S
H2391 C2375 0.960 . S
C2392 C2393 1.391 . S
C2392 C2394 1.394 . S
C2392 H2408 0.931 . S
C2393 C2392 1.391 . S
C2393 C2397 1.376 . S
C2394 C2392 1.394 . S
C2394 C2395 1.369 . S
C2394 C2398 1.531 . S
C2395 C2394 1.369 . S
C2395 C2396 1.410 . S
C2395 C2403 1.503 . S
C2396 C2395 1.410 . S
C2396 C2397 1.392 . S
C2396 C2399 1.511 . S
C2397 C2393 1.376 . S
C2397 C2396 1.392 . S
C2397 H2409 0.929 . S
C2398 C2394 1.531 . S
C2398 H2410 0.960 . S
C2398 H2411 0.962 . S
C2398 H2412 0.960 . S
C2399 C2396 1.511 . S
C2399 H2413 0.961 . S
C2399 H2414 0.961 . S
C2399 H2415 0.961 . S
C2400 C2401 1.370 . S
C2400 C2402 1.363 . S
C2400 H2416 0.931 . S
C2401 C2400 1.370 . S
C2401 C2405 1.408 . S
C2402 C2400 1.363 . S
C2402 C2403 1.370 . S
C2402 C2406 1.524 . S
C2403 C2395 1.503 . S
C2403 C2402 1.370 . S
C2403 C2404 1.403 . S
C2404 C2403 1.403 . S
C2404 C2405 1.404 . S
C2404 C2407 1.539 . S
C2405 C2401 1.408 . S
C2405 C2404 1.404 . S
C2405 H2417 0.930 . S
C2406 C2402 1.524 . S
C2406 H2418 0.956 . S
C2406 H2419 0.961 . S
C2406 H2420 0.961 . S
C2407 C2404 1.539 . S
C2407 H2421 0.958 . S
C2407 H2422 0.961 . S
C2407 H2423 0.960 . S
H2408 C2392 0.931 . S
H2409 C2397 0.929 . S
H2410 C2398 0.960 . S
H2411 C2398 0.962 . S
H2412 C2398 0.960 . S
H2413 C2399 0.961 . S
H2414 C2399 0.961 . S
H2415 C2399 0.961 . S
H2416 C2400 0.931 . S
H2417 C2405 0.930 . S
H2418 C2406 0.956 . S
H2419 C2406 0.961 . S
H2420 C2406 0.961 . S
H2421 C2407 0.958 . S
H2422 C2407 0.961 . S
H2423 C2407 0.960 . S
C2424 C2425 1.391 . S
C2424 C2426 1.394 . S
C2424 H2440 0.931 . S
C2425 C2424 1.391 . S
C2425 C2429 1.376 . S
C2426 C2424 1.394 . S
C2426 C2427 1.369 . S
C2426 C2430 1.531 . S
C2427 C2426 1.369 . S
C2427 C2428 1.410 . S
C2427 C2435 1.503 . S
C2428 C2427 1.410 . S
C2428 C2429 1.392 . S
C2428 C2431 1.511 . S
C2429 C2425 1.376 . S
C2429 C2428 1.392 . S
C2429 H2441 0.929 . S
C2430 C2426 1.531 . S
C2430 H2442 0.960 . S
C2430 H2443 0.962 . S
C2430 H2444 0.960 . S
C2431 C2428 1.511 . S
C2431 H2445 0.961 . S
C2431 H2446 0.961 . S
C2431 H2447 0.961 . S
C2432 C2433 1.370 . S
C2432 C2434 1.363 . S
C2432 H2448 0.931 . S
C2433 C2432 1.370 . S
C2433 C2437 1.408 . S
C2434 C2432 1.363 . S
C2434 C2435 1.370 . S
C2434 C2438 1.524 . S
C2435 C2427 1.503 . S
C2435 C2434 1.370 . S
C2435 C2436 1.403 . S
C2436 C2435 1.403 . S
C2436 C2437 1.404 . S
C2436 C2439 1.539 . S
C2437 C2433 1.408 . S
C2437 C2436 1.404 . S
C2437 H2449 0.930 . S
C2438 C2434 1.524 . S
C2438 H2450 0.956 . S
C2438 H2451 0.961 . S
C2438 H2452 0.961 . S
C2439 C2436 1.539 . S
C2439 H2453 0.958 . S
C2439 H2454 0.961 . S
C2439 H2455 0.960 . S
H2440 C2424 0.931 . S
H2441 C2429 0.929 . S
H2442 C2430 0.960 . S
H2443 C2430 0.962 . S
H2444 C2430 0.960 . S
H2445 C2431 0.961 . S
H2446 C2431 0.961 . S
H2447 C2431 0.961 . S
H2448 C2432 0.931 . S
H2449 C2437 0.930 . S
H2450 C2438 0.956 . S
H2451 C2438 0.961 . S
H2452 C2438 0.961 . S
H2453 C2439 0.958 . S
H2454 C2439 0.961 . S
H2455 C2439 0.960 . S
C2456 C2457 1.391 . S
C2456 C2458 1.394 . S
C2456 H2472 0.931 . S
C2457 C2456 1.391 . S
C2457 C2461 1.376 . S
C2458 C2456 1.394 . S
C2458 C2459 1.369 . S
C2458 C2462 1.531 . S
C2459 C2458 1.369 . S
C2459 C2460 1.410 . S
C2459 C2467 1.503 . S
C2460 C2459 1.410 . S
C2460 C2461 1.392 . S
C2460 C2463 1.511 . S
C2461 C2457 1.376 . S
C2461 C2460 1.392 . S
C2461 H2473 0.929 . S
C2462 C2458 1.531 . S
C2462 H2474 0.960 . S
C2462 H2475 0.962 . S
C2462 H2476 0.960 . S
C2463 C2460 1.511 . S
C2463 H2477 0.961 . S
C2463 H2478 0.961 . S
C2463 H2479 0.961 . S
C2464 C2465 1.370 . S
C2464 C2466 1.363 . S
C2464 H2480 0.931 . S
C2465 C2464 1.370 . S
C2465 C2469 1.408 . S
C2466 C2464 1.363 . S
C2466 C2467 1.370 . S
C2466 C2470 1.524 . S
C2467 C2459 1.503 . S
C2467 C2466 1.370 . S
C2467 C2468 1.403 . S
C2468 C2467 1.403 . S
C2468 C2469 1.404 . S
C2468 C2471 1.539 . S
C2469 C2465 1.408 . S
C2469 C2468 1.404 . S
C2469 H2481 0.930 . S
C2470 C2466 1.524 . S
C2470 H2482 0.956 . S
C2470 H2483 0.961 . S
C2470 H2484 0.961 . S
C2471 C2468 1.539 . S
C2471 H2485 0.958 . S
C2471 H2486 0.961 . S
C2471 H2487 0.960 . S
H2472 C2456 0.931 . S
H2473 C2461 0.929 . S
H2474 C2462 0.960 . S
H2475 C2462 0.962 . S
H2476 C2462 0.960 . S
H2477 C2463 0.961 . S
H2478 C2463 0.961 . S
H2479 C2463 0.961 . S
H2480 C2464 0.931 . S
H2481 C2469 0.930 . S
H2482 C2470 0.956 . S
H2483 C2470 0.961 . S
H2484 C2470 0.961 . S
H2485 C2471 0.958 . S
H2486 C2471 0.961 . S
H2487 C2471 0.960 . S
C2488 C2489 1.391 . S
C2488 C2490 1.394 . S
C2488 H2504 0.931 . S
C2489 C2488 1.391 . S
C2489 C2493 1.376 . S
C2490 C2488 1.394 . S
C2490 C2491 1.369 . S
C2490 C2494 1.531 . S
C2491 C2490 1.369 . S
C2491 C2492 1.410 . S
C2491 C2499 1.503 . S
C2492 C2491 1.410 . S
C2492 C2493 1.392 . S
C2492 C2495 1.511 . S
C2493 C2489 1.376 . S
C2493 C2492 1.392 . S
C2493 H2505 0.929 . S
C2494 C2490 1.531 . S
C2494 H2506 0.960 . S
C2494 H2507 0.962 . S
C2494 H2508 0.960 . S
C2495 C2492 1.511 . S
C2495 H2509 0.961 . S
C2495 H2510 0.961 . S
C2495 H2511 0.961 . S
C2496 C2497 1.370 . S
C2496 C2498 1.363 . S
C2496 H2512 0.931 . S
C2497 C2496 1.370 . S
C2497 C2501 1.408 . S
C2498 C2496 1.363 . S
C2498 C2499 1.370 . S
C2498 C2502 1.524 . S
C2499 C2491 1.503 . S
C2499 C2498 1.370 . S
C2499 C2500 1.403 . S
C2500 C2499 1.403 . S
C2500 C2501 1.404 . S
C2500 C2503 1.539 . S
C2501 C2497 1.408 . S
C2501 C2500 1.404 . S
C2501 H2513 0.930 . S
C2502 C2498 1.524 . S
C2502 H2514 0.956 . S
C2502 H2515 0.961 . S
C2502 H2516 0.961 . S
C2503 C2500 1.539 . S
C2503 H2517 0.958 . S
C2503 H2518 0.961 . S
C2503 H2519 0.960 . S
H2504 C2488 0.931 . S
H2505 C2493 0.929 . S
H2506 C2494 0.960 . S
H2507 C2494 0.962 . S
H2508 C2494 0.960 . S
H2509 C2495 0.961 . S
H2510 C2495 0.961 . S
H2511 C2495 0.961 . S
H2512 C2496 0.931 . S
H2513 C2501 0.930 . S
H2514 C2502 0.956 . S
H2515 C2502 0.961 . S
H2516 C2502 0.961 . S
H2517 C2503 0.958 . S
H2518 C2503 0.961 . S
H2519 C2503 0.960 . S
C2520 C2521 1.391 . S
C2520 C2522 1.394 . S
C2520 H2536 0.931 . S
C2521 C2520 1.391 . S
C2521 C2525 1.376 . S
C2522 C2520 1.394 . S
C2522 C2523 1.369 . S
C2522 C2526 1.531 . S
C2523 C2522 1.369 . S
C2523 C2524 1.410 . S
C2523 C2531 1.503 . S
C2524 C2523 1.410 . S
C2524 C2525 1.392 . S
C2524 C2527 1.511 . S
C2525 C2521 1.376 . S
C2525 C2524 1.392 . S
C2525 H2537 0.929 . S
C2526 C2522 1.531 . S
C2526 H2538 0.960 . S
C2526 H2539 0.962 . S
C2526 H2540 0.960 . S
C2527 C2524 1.511 . S
C2527 H2541 0.961 . S
C2527 H2542 0.961 . S
C2527 H2543 0.961 . S
C2528 C2529 1.370 . S
C2528 C2530 1.363 . S
C2528 H2544 0.931 . S
C2529 C2528 1.370 . S
C2529 C2533 1.408 . S
C2530 C2528 1.363 . S
C2530 C2531 1.370 . S
C2530 C2534 1.524 . S
C2531 C2523 1.503 . S
C2531 C2530 1.370 . S
C2531 C2532 1.403 . S
C2532 C2531 1.403 . S
C2532 C2533 1.404 . S
C2532 C2535 1.539 . S
C2533 C2529 1.408 . S
C2533 C2532 1.404 . S
C2533 H2545 0.930 . S
C2534 C2530 1.524 . S
C2534 H2546 0.956 . S
C2534 H2547 0.961 . S
C2534 H2548 0.961 . S
C2535 C2532 1.539 . S
C2535 H2549 0.958 . S
C2535 H2550 0.961 . S
C2535 H2551 0.960 . S
H2536 C2520 0.931 . S
H2537 C2525 0.929 . S
H2538 C2526 0.960 . S
H2539 C2526 0.962 . S
H2540 C2526 0.960 . S
H2541 C2527 0.961 . S
H2542 C2527 0.961 . S
H2543 C2527 0.961 . S
H2544 C2528 0.931 . S
H2545 C2533 0.930 . S
H2546 C2534 0.956 . S
H2547 C2534 0.961 . S
H2548 C2534 0.961 . S
H2549 C2535 0.958 . S
H2550 C2535 0.961 . S
H2551 C2535 0.960 . S
C2552 C2553 1.391 . S
C2552 C2554 1.394 . S
C2552 H2568 0.931 . S
C2553 C2552 1.391 . S
C2553 C2557 1.376 . S
C2554 C2552 1.394 . S
C2554 C2555 1.369 . S
C2554 C2558 1.531 . S
C2555 C2554 1.369 . S
C2555 C2556 1.410 . S
C2555 C2563 1.503 . S
C2556 C2555 1.410 . S
C2556 C2557 1.392 . S
C2556 C2559 1.511 . S
C2557 C2553 1.376 . S
C2557 C2556 1.392 . S
C2557 H2569 0.929 . S
C2558 C2554 1.531 . S
C2558 H2570 0.960 . S
C2558 H2571 0.962 . S
C2558 H2572 0.960 . S
C2559 C2556 1.511 . S
C2559 H2573 0.961 . S
C2559 H2574 0.961 . S
C2559 H2575 0.961 . S
C2560 C2561 1.370 . S
C2560 C2562 1.363 . S
C2560 H2576 0.931 . S
C2561 C2560 1.370 . S
C2561 C2565 1.408 . S
C2562 C2560 1.363 . S
C2562 C2563 1.370 . S
C2562 C2566 1.524 . S
C2563 C2555 1.503 . S
C2563 C2562 1.370 . S
C2563 C2564 1.403 . S
C2564 C2563 1.403 . S
C2564 C2565 1.404 . S
C2564 C2567 1.539 . S
C2565 C2561 1.408 . S
C2565 C2564 1.404 . S
C2565 H2577 0.930 . S
C2566 C2562 1.524 . S
C2566 H2578 0.956 . S
C2566 H2579 0.961 . S
C2566 H2580 0.961 . S
C2567 C2564 1.539 . S
C2567 H2581 0.958 . S
C2567 H2582 0.961 . S
C2567 H2583 0.960 . S
H2568 C2552 0.931 . S
H2569 C2557 0.929 . S
H2570 C2558 0.960 . S
H2571 C2558 0.962 . S
H2572 C2558 0.960 . S
H2573 C2559 0.961 . S
H2574 C2559 0.961 . S
H2575 C2559 0.961 . S
H2576 C2560 0.931 . S
H2577 C2565 0.930 . S
H2578 C2566 0.956 . S
H2579 C2566 0.961 . S
H2580 C2566 0.961 . S
H2581 C2567 0.958 . S
H2582 C2567 0.961 . S
H2583 C2567 0.960 . S
C2584 C2585 1.391 . S
C2584 C2586 1.394 . S
C2584 H2600 0.931 . S
C2585 C2584 1.391 . S
C2585 C2589 1.376 . S
C2586 C2584 1.394 . S
C2586 C2587 1.369 . S
C2586 C2590 1.531 . S
C2587 C2586 1.369 . S
C2587 C2588 1.410 . S
C2587 C2595 1.503 . S
C2588 C2587 1.410 . S
C2588 C2589 1.392 . S
C2588 C2591 1.511 . S
C2589 C2585 1.376 . S
C2589 C2588 1.392 . S
C2589 H2601 0.929 . S
C2590 C2586 1.531 . S
C2590 H2602 0.960 . S
C2590 H2603 0.962 . S
C2590 H2604 0.960 . S
C2591 C2588 1.511 . S
C2591 H2605 0.961 . S
C2591 H2606 0.961 . S
C2591 H2607 0.961 . S
C2592 C2593 1.370 . S
C2592 C2594 1.363 . S
C2592 H2608 0.931 . S
C2593 C2592 1.370 . S
C2593 C2597 1.408 . S
C2594 C2592 1.363 . S
C2594 C2595 1.370 . S
C2594 C2598 1.524 . S
C2595 C2587 1.503 . S
C2595 C2594 1.370 . S
C2595 C2596 1.403 . S
C2596 C2595 1.403 . S
C2596 C2597 1.404 . S
C2596 C2599 1.539 . S
C2597 C2593 1.408 . S
C2597 C2596 1.404 . S
C2597 H2609 0.930 . S
C2598 C2594 1.524 . S
C2598 H2610 0.956 . S
C2598 H2611 0.961 . S
C2598 H2612 0.961 . S
C2599 C2596 1.539 . S
C2599 H2613 0.958 . S
C2599 H2614 0.961 . S
C2599 H2615 0.960 . S
H2600 C2584 0.931 . S
H2601 C2589 0.929 . S
H2602 C2590 0.960 . S
H2603 C2590 0.962 . S
H2604 C2590 0.960 . S
H2605 C2591 0.961 . S
H2606 C2591 0.961 . S
H2607 C2591 0.961 . S
H2608 C2592 0.931 . S
H2609 C2597 0.930 . S
H2610 C2598 0.956 . S
H2611 C2598 0.961 . S
H2612 C2598 0.961 . S
H2613 C2599 0.958 . S
H2614 C2599 0.961 . S
H2615 C2599 0.960 . S
C2616 C2617 1.391 . S
C2616 C2618 1.394 . S
C2616 H2632 0.931 . S
C2617 C2616 1.391 . S
C2617 C2621 1.376 . S
C2618 C2616 1.394 . S
C2618 C2619 1.369 . S
C2618 C2622 1.531 1_556 S
C2619 C2618 1.369 . S
C2619 C2620 1.410 . S
C2619 C2627 1.503 . S
C2620 C2619 1.410 . S
C2620 C2621 1.392 . S
C2620 C2623 1.511 . S
C2621 C2617 1.376 . S
C2621 C2620 1.392 . S
C2621 H2633 0.929 . S
C2622 C2618 1.531 1_554 S
C2622 H2634 0.960 . S
C2622 H2635 0.962 . S
C2622 H2636 0.960 . S
C2623 C2620 1.511 . S
C2623 H2637 0.961 . S
C2623 H2638 0.961 . S
C2623 H2639 0.961 . S
C2624 C2625 1.370 . S
C2624 C2626 1.363 . S
C2624 H2640 0.931 . S
C2625 C2624 1.370 . S
C2625 C2629 1.408 . S
C2626 C2624 1.363 . S
C2626 C2627 1.370 . S
C2626 C2630 1.524 . S
C2627 C2619 1.503 . S
C2627 C2626 1.370 . S
C2627 C2628 1.403 . S
C2628 C2627 1.403 . S
C2628 C2629 1.404 . S
C2628 C2631 1.539 . S
C2629 C2625 1.408 . S
C2629 C2628 1.404 . S
C2629 H2641 0.930 . S
C2630 C2626 1.524 . S
C2630 H2642 0.956 . S
C2630 H2643 0.961 . S
C2630 H2644 0.961 . S
C2631 C2628 1.539 . S
C2631 H2645 0.958 . S
C2631 H2646 0.961 . S
C2631 H2647 0.960 . S
H2632 C2616 0.931 . S
H2633 C2621 0.929 . S
H2634 C2622 0.960 . S
H2635 C2622 0.962 . S
H2636 C2622 0.960 . S
H2637 C2623 0.961 . S
H2638 C2623 0.961 . S
H2639 C2623 0.961 . S
H2640 C2624 0.931 . S
H2641 C2629 0.930 . S
H2642 C2630 0.956 . S
H2643 C2630 0.961 . S
H2644 C2630 0.961 . S
H2645 C2631 0.958 . S
H2646 C2631 0.961 . S
H2647 C2631 0.960 . S
C2648 C2649 1.391 . S
C2648 C2650 1.394 . S
C2648 H2664 0.931 . S
C2649 C2648 1.391 . S
C2649 C2653 1.376 . S
C2650 C2648 1.394 . S
C2650 C2651 1.369 . S
C2650 C2654 1.531 . S
C2651 C2650 1.369 . S
C2651 C2652 1.410 . S
C2651 C2659 1.503 . S
C2652 C2651 1.410 . S
C2652 C2653 1.392 . S
C2652 C2655 1.511 . S
C2653 C2649 1.376 . S
C2653 C2652 1.392 . S
C2653 H2665 0.929 . S
C2654 C2650 1.531 . S
C2654 H2666 0.960 . S
C2654 H2667 0.962 . S
C2654 H2668 0.960 . S
C2655 C2652 1.511 . S
C2655 H2669 0.961 . S
C2655 H2670 0.961 . S
C2655 H2671 0.972 . S
C2656 C2657 1.370 . S
C2656 C2658 1.363 . S
C2656 H2672 0.931 . S
C2657 C2656 1.370 . S
C2657 C2661 1.408 . S
C2658 C2656 1.363 . S
C2658 C2659 1.370 . S
C2658 C2662 1.524 . S
C2659 C2651 1.503 . S
C2659 C2658 1.370 . S
C2659 C2660 1.403 . S
C2660 C2659 1.403 . S
C2660 C2661 1.404 . S
C2660 C2663 1.539 1_556 S
C2661 C2657 1.408 . S
C2661 C2660 1.404 . S
C2661 H2673 0.916 1_556 S
C2662 C2658 1.524 . S
C2662 H2674 0.956 . S
C2662 H2675 0.961 . S
C2662 H2676 0.961 . S
C2663 C2660 1.539 1_554 S
C2663 H2677 0.958 . S
C2663 H2678 0.961 . S
C2663 H2679 0.960 . S
H2664 C2648 0.931 . S
H2665 C2653 0.929 . S
H2666 C2654 0.960 . S
H2667 C2654 0.962 . S
H2668 C2654 0.960 . S
H2669 C2655 0.961 . S
H2670 C2655 0.961 . S
H2671 C2655 0.972 . S
H2672 C2656 0.931 . S
H2673 C2661 0.916 1_554 S
H2674 C2662 0.956 . S
H2675 C2662 0.961 . S
H2676 C2662 0.961 . S
H2677 C2663 0.958 . S
H2678 C2663 0.961 . S
H2679 C2663 0.960 . S
C2680 C2681 1.391 . S
C2680 C2682 1.394 . S
C2680 H2696 0.931 . S
C2681 C2680 1.391 . S
C2681 C2685 1.376 . S
C2682 C2680 1.394 . S
C2682 C2683 1.369 . S
C2682 C2686 1.531 . S
C2683 C2682 1.369 . S
C2683 C2684 1.410 . S
C2683 C2691 1.503 . S
C2684 C2683 1.410 . S
C2684 C2685 1.392 . S
C2684 C2687 1.511 . S
C2685 C2681 1.376 . S
C2685 C2684 1.392 . S
C2685 H2697 0.929 . S
C2686 C2682 1.531 . S
C2686 H2698 0.960 . S
C2686 H2699 0.962 1_556 S
C2686 H2700 0.960 1_556 S
C2687 C2684 1.511 . S
C2687 H2701 0.961 . S
C2687 H2702 0.961 . S
C2687 H2703 0.961 . S
C2688 C2689 1.370 . S
C2688 C2690 1.363 . S
C2688 H2704 0.931 . S
C2689 C2688 1.370 . S
C2689 C2693 1.408 . S
C2690 C2688 1.363 . S
C2690 C2691 1.370 . S
C2690 C2694 1.524 . S
C2691 C2683 1.503 . S
C2691 C2690 1.370 . S
C2691 C2692 1.403 . S
C2692 C2691 1.403 . S
C2692 C2693 1.404 . S
C2692 C2695 1.539 . S
C2693 C2689 1.408 . S
C2693 C2692 1.404 . S
C2693 H2705 0.930 . S
C2694 C2690 1.524 . S
C2694 H2706 0.956 1_556 S
C2694 H2707 0.961 . S
C2694 H2708 0.961 . S
C2695 C2692 1.539 . S
C2695 H2709 0.958 . S
C2695 H2710 0.961 . S
C2695 H2711 0.960 . S
H2696 C2680 0.931 . S
H2697 C2685 0.929 . S
H2698 C2686 0.960 . S
H2699 C2686 0.962 1_554 S
H2700 C2686 0.960 1_554 S
H2701 C2687 0.961 . S
H2702 C2687 0.961 . S
H2703 C2687 0.961 . S
H2704 C2688 0.931 . S
H2705 C2693 0.930 . S
H2706 C2694 0.956 1_554 S
H2707 C2694 0.961 . S
H2708 C2694 0.961 . S
H2709 C2695 0.958 . S
H2710 C2695 0.961 . S
H2711 C2695 0.960 . S
C2712 C2713 1.391 . S
C2712 C2714 1.394 . S
C2712 H2728 0.931 . S
C2713 C2712 1.391 . S
C2713 C2717 1.376 . S
C2714 C2712 1.394 . S
C2714 C2715 1.369 . S
C2714 C2718 1.531 . S
C2715 C2714 1.369 . S
C2715 C2716 1.410 . S
C2715 C2723 1.503 . S
C2716 C2715 1.410 . S
C2716 C2717 1.392 . S
C2716 C2719 1.511 . S
C2717 C2713 1.376 . S
C2717 C2716 1.392 . S
C2717 H2729 0.929 . S
C2718 C2714 1.531 . S
C2718 H2730 0.960 . S
C2718 H2731 0.962 . S
C2718 H2732 0.960 . S
C2719 C2716 1.511 . S
C2719 H2733 0.961 . S
C2719 H2734 0.961 . S
C2719 H2735 0.961 . S
C2720 C2721 1.370 . S
C2720 C2722 1.363 . S
C2720 H2736 0.931 . S
C2721 C2720 1.370 . S
C2721 C2725 1.408 . S
C2722 C2720 1.363 . S
C2722 C2723 1.370 . S
C2722 C2726 1.524 . S
C2723 C2715 1.503 . S
C2723 C2722 1.370 . S
C2723 C2724 1.403 . S
C2724 C2723 1.403 . S
C2724 C2725 1.404 . S
C2724 C2727 1.539 . S
C2725 C2721 1.408 . S
C2725 C2724 1.404 . S
C2725 H2737 0.930 . S
C2726 C2722 1.524 . S
C2726 H2738 0.956 . S
C2726 H2739 0.961 . S
C2726 H2740 0.961 . S
C2727 C2724 1.539 . S
C2727 H2741 0.958 . S
C2727 H2742 0.961 . S
C2727 H2743 0.960 . S
H2728 C2712 0.931 . S
H2729 C2717 0.929 . S
H2730 C2718 0.960 . S
H2731 C2718 0.962 . S
H2732 C2718 0.960 . S
H2733 C2719 0.961 . S
H2734 C2719 0.961 . S
H2735 C2719 0.961 . S
H2736 C2720 0.931 . S
H2737 C2725 0.930 . S
H2738 C2726 0.956 . S
H2739 C2726 0.961 . S
H2740 C2726 0.961 . S
H2741 C2727 0.958 . S
H2742 C2727 0.961 . S
H2743 C2727 0.960 . S
C2744 C2745 1.391 . S
C2744 C2746 1.394 . S
C2744 H2760 0.931 . S
C2745 C2744 1.391 . S
C2745 C2749 1.376 . S
C2746 C2744 1.394 . S
C2746 C2747 1.369 . S
C2746 C2750 1.531 . S
C2747 C2746 1.369 . S
C2747 C2748 1.410 . S
C2747 C2755 1.503 . S
C2748 C2747 1.410 . S
C2748 C2749 1.392 . S
C2748 C2751 1.511 . S
C2749 C2745 1.376 . S
C2749 C2748 1.392 . S
C2749 H2761 0.929 . S
C2750 C2746 1.531 . S
C2750 H2762 0.960 . S
C2750 H2763 0.962 . S
C2750 H2764 0.960 . S
C2751 C2748 1.511 . S
C2751 H2765 0.961 . S
C2751 H2766 0.961 . S
C2751 H2767 0.961 . S
C2752 C2753 1.370 . S
C2752 C2754 1.363 . S
C2752 H2768 0.931 . S
C2753 C2752 1.370 . S
C2753 C2757 1.408 . S
C2754 C2752 1.363 . S
C2754 C2755 1.370 . S
C2754 C2758 1.524 . S
C2755 C2747 1.503 . S
C2755 C2754 1.370 . S
C2755 C2756 1.403 . S
C2756 C2755 1.403 . S
C2756 C2757 1.404 . S
C2756 C2759 1.539 . S
C2757 C2753 1.408 . S
C2757 C2756 1.404 . S
C2757 H2769 0.930 . S
C2758 C2754 1.524 . S
C2758 H2770 0.956 . S
C2758 H2771 0.961 . S
C2758 H2772 0.961 . S
C2759 C2756 1.539 . S
C2759 H2773 0.958 . S
C2759 H2774 0.961 . S
C2759 H2775 0.960 . S
H2760 C2744 0.931 . S
H2761 C2749 0.929 . S
H2762 C2750 0.960 . S
H2763 C2750 0.962 . S
H2764 C2750 0.960 . S
H2765 C2751 0.961 . S
H2766 C2751 0.961 . S
H2767 C2751 0.961 . S
H2768 C2752 0.931 . S
H2769 C2757 0.930 . S
H2770 C2758 0.956 . S
H2771 C2758 0.961 . S
H2772 C2758 0.961 . S
H2773 C2759 0.958 . S
H2774 C2759 0.961 . S
H2775 C2759 0.960 . S
C2776 C2777 1.391 . S
C2776 C2778 1.394 . S
C2776 H2792 0.931 . S
C2777 C2776 1.391 . S
C2777 C2781 1.376 . S
C2778 C2776 1.394 . S
C2778 C2779 1.369 . S
C2778 C2782 1.531 . S
C2779 C2778 1.369 . S
C2779 C2780 1.410 . S
C2779 C2787 1.503 . S
C2780 C2779 1.410 . S
C2780 C2781 1.392 . S
C2780 C2783 1.511 . S
C2781 C2777 1.376 . S
C2781 C2780 1.392 . S
C2781 H2793 0.929 . S
C2782 C2778 1.531 . S
C2782 H2794 0.960 . S
C2782 H2795 0.962 . S
C2782 H2796 0.960 . S
C2783 C2780 1.511 . S
C2783 H2797 0.961 . S
C2783 H2798 0.961 . S
C2783 H2799 0.961 . S
C2784 C2785 1.370 . S
C2784 C2786 1.363 . S
C2784 H2800 0.931 . S
C2785 C2784 1.370 . S
C2785 C2789 1.408 . S
C2786 C2784 1.363 . S
C2786 C2787 1.370 . S
C2786 C2790 1.524 . S
C2787 C2779 1.503 . S
C2787 C2786 1.370 . S
C2787 C2788 1.403 . S
C2788 C2787 1.403 . S
C2788 C2789 1.404 . S
C2788 C2791 1.539 . S
C2789 C2785 1.408 . S
C2789 C2788 1.404 . S
C2789 H2801 0.930 . S
C2790 C2786 1.524 . S
C2790 H2802 0.956 . S
C2790 H2803 0.961 . S
C2790 H2804 0.961 . S
C2791 C2788 1.539 . S
C2791 H2805 0.958 . S
C2791 H2806 0.961 . S
C2791 H2807 0.960 . S
H2792 C2776 0.931 . S
H2793 C2781 0.929 . S
H2794 C2782 0.960 . S
H2795 C2782 0.962 . S
H2796 C2782 0.960 . S
H2797 C2783 0.961 . S
H2798 C2783 0.961 . S
H2799 C2783 0.961 . S
H2800 C2784 0.931 . S
H2801 C2789 0.930 . S
H2802 C2790 0.956 . S
H2803 C2790 0.961 . S
H2804 C2790 0.961 . S
H2805 C2791 0.958 . S
H2806 C2791 0.961 . S
H2807 C2791 0.960 . S
C2808 C2809 1.391 . S
C2808 C2810 1.394 . S
C2808 H2824 0.931 . S
C2809 C2808 1.391 . S
C2809 C2813 1.376 . S
C2810 C2808 1.394 . S
C2810 C2811 1.369 . S
C2810 C2814 1.531 . S
C2811 C2810 1.369 . S
C2811 C2812 1.410 . S
C2811 C2819 1.503 . S
C2812 C2811 1.410 . S
C2812 C2813 1.392 . S
C2812 C2815 1.511 . S
C2813 C2809 1.376 . S
C2813 C2812 1.392 . S
C2813 H2825 0.929 . S
C2814 C2810 1.531 . S
C2814 H2826 0.960 . S
C2814 H2827 0.962 . S
C2814 H2828 0.960 . S
C2815 C2812 1.511 . S
C2815 H2829 0.961 . S
C2815 H2830 0.961 . S
C2815 H2831 0.961 . S
C2816 C2817 1.370 . S
C2816 C2818 1.363 . S
C2816 H2832 0.931 . S
C2817 C2816 1.370 . S
C2817 C2821 1.408 . S
C2818 C2816 1.363 . S
C2818 C2819 1.370 . S
C2818 C2822 1.524 . S
C2819 C2811 1.503 . S
C2819 C2818 1.370 . S
C2819 C2820 1.403 . S
C2820 C2819 1.403 . S
C2820 C2821 1.404 . S
C2820 C2823 1.539 1_554 S
C2821 C2817 1.408 . S
C2821 C2820 1.404 . S
C2821 H2833 0.930 1_554 S
C2822 C2818 1.524 . S
C2822 H2834 0.956 . S
C2822 H2835 0.961 . S
C2822 H2836 0.961 . S
C2823 C2820 1.539 1_556 S
C2823 H2837 0.958 . S
C2823 H2838 0.961 . S
C2823 H2839 0.960 . S
H2824 C2808 0.931 . S
H2825 C2813 0.929 . S
H2826 C2814 0.960 . S
H2827 C2814 0.962 . S
H2828 C2814 0.960 . S
H2829 C2815 0.961 . S
H2830 C2815 0.961 . S
H2831 C2815 0.961 . S
H2832 C2816 0.931 . S
H2833 C2821 0.930 1_556 S
H2834 C2822 0.956 . S
H2835 C2822 0.961 . S
H2836 C2822 0.961 . S
H2837 C2823 0.958 . S
H2838 C2823 0.961 . S
H2839 C2823 0.960 . S
C2840 C2841 1.391 . S
C2840 C2842 1.394 . S
C2840 H2856 0.931 . S
C2841 C2840 1.391 . S
C2841 C2845 1.376 . S
C2842 C2840 1.394 . S
C2842 C2843 1.369 . S
C2842 C2846 1.531 . S
C2843 C2842 1.369 . S
C2843 C2844 1.410 . S
C2843 C2851 1.503 . S
C2844 C2843 1.410 . S
C2844 C2845 1.392 . S
C2844 C2847 1.511 1_554 S
C2845 C2841 1.376 . S
C2845 C2844 1.392 . S
C2845 H2857 0.911 1_554 S
C2846 C2842 1.531 . S
C2846 H2858 0.960 . S
C2846 H2859 0.962 . S
C2846 H2860 0.960 . S
C2847 C2844 1.511 1_556 S
C2847 H2861 0.961 . S
C2847 H2862 0.961 . S
C2847 H2863 0.961 . S
C2848 C2849 1.370 . S
C2848 C2850 1.363 . S
C2848 H2864 0.931 . S
C2849 C2848 1.370 . S
C2849 C2853 1.408 . S
C2850 C2848 1.363 . S
C2850 C2851 1.370 . S
C2850 C2854 1.524 . S
C2851 C2843 1.503 . S
C2851 C2850 1.370 . S
C2851 C2852 1.403 . S
C2852 C2851 1.403 . S
C2852 C2853 1.404 . S
C2852 C2855 1.539 . S
C2853 C2849 1.408 . S
C2853 C2852 1.404 . S
C2853 H2865 0.930 . S
C2854 C2850 1.524 . S
C2854 H2866 0.956 . S
C2854 H2867 0.961 . S
C2854 H2868 0.961 . S
C2855 C2852 1.539 . S
C2855 H2869 0.958 . S
C2855 H2870 0.961 . S
C2855 H2871 0.960 . S
H2856 C2840 0.931 . S
H2857 C2845 0.911 1_556 S
H2858 C2846 0.960 . S
H2859 C2846 0.962 . S
H2860 C2846 0.960 . S
H2861 C2847 0.961 . S
H2862 C2847 0.961 . S
H2863 C2847 0.961 . S
H2864 C2848 0.931 . S
H2865 C2853 0.930 . S
H2866 C2854 0.956 . S
H2867 C2854 0.961 . S
H2868 C2854 0.961 . S
H2869 C2855 0.958 . S
H2870 C2855 0.961 . S
H2871 C2855 0.960 . S
C2872 C2873 1.391 . S
C2872 C2874 1.394 . S
C2872 H2888 0.931 . S
C2873 C2872 1.391 . S
C2873 C2877 1.376 . S
C2874 C2872 1.394 . S
C2874 C2875 1.369 . S
C2874 C2878 1.531 . S
C2875 C2874 1.369 . S
C2875 C2876 1.410 . S
C2875 C2883 1.503 . S
C2876 C2875 1.410 . S
C2876 C2877 1.392 . S
C2876 C2879 1.511 1_554 S
C2877 C2873 1.376 . S
C2877 C2876 1.392 . S
C2877 H2889 0.929 1_554 S
C2878 C2874 1.531 . S
C2878 H2890 0.960 . S
C2878 H2891 0.962 . S
C2878 H2892 0.960 . S
C2879 C2876 1.511 1_556 S
C2879 H2893 0.961 . S
C2879 H2894 0.961 . S
C2879 H2895 0.961 . S
C2880 C2881 1.370 . S
C2880 C2882 1.363 . S
C2880 H2896 0.931 . S
C2881 C2880 1.370 . S
C2881 C2885 1.408 . S
C2882 C2880 1.363 . S
C2882 C2883 1.370 . S
C2882 C2886 1.524 . S
C2883 C2875 1.503 . S
C2883 C2882 1.370 . S
C2883 C2884 1.403 . S
C2884 C2883 1.403 . S
C2884 C2885 1.404 . S
C2884 C2887 1.539 . S
C2885 C2881 1.408 . S
C2885 C2884 1.404 . S
C2885 H2897 0.930 . S
C2886 C2882 1.524 . S
C2886 H2898 0.956 . S
C2886 H2899 0.961 . S
C2886 H2900 0.961 . S
C2887 C2884 1.539 . S
C2887 H2901 0.958 . S
C2887 H2902 0.961 . S
C2887 H2903 0.960 . S
H2888 C2872 0.931 . S
H2889 C2877 0.929 1_556 S
H2890 C2878 0.960 . S
H2891 C2878 0.962 . S
H2892 C2878 0.960 . S
H2893 C2879 0.961 . S
H2894 C2879 0.961 . S
H2895 C2879 0.961 . S
H2896 C2880 0.931 . S
H2897 C2885 0.930 . S
H2898 C2886 0.956 . S
H2899 C2886 0.961 . S
H2900 C2886 0.961 . S
H2901 C2887 0.958 . S
H2902 C2887 0.961 . S
H2903 C2887 0.960 . S
C2904 C2905 1.391 . S
C2904 C2906 1.394 . S
C2904 H2920 0.931 . S
C2905 C2904 1.391 . S
C2905 C2909 1.376 . S
C2906 C2904 1.394 . S
C2906 C2907 1.369 . S
C2906 C2910 1.531 . S
C2907 C2906 1.369 . S
C2907 C2908 1.410 . S
C2907 C2915 1.503 . S
C2908 C2907 1.410 . S
C2908 C2909 1.392 . S
C2908 C2911 1.511 . S
C2909 C2905 1.376 . S
C2909 C2908 1.392 . S
C2909 H2921 0.929 . S
C2910 C2906 1.531 . S
C2910 H2922 0.960 . S
C2910 H2923 0.962 . S
C2910 H2924 0.960 . S
C2911 C2908 1.511 . S
C2911 H2925 0.961 . S
C2911 H2926 0.961 . S
C2911 H2927 0.961 . S
C2912 C2913 1.370 . S
C2912 C2914 1.363 . S
C2912 H2928 0.931 . S
C2913 C2912 1.370 . S
C2913 C2917 1.408 . S
C2914 C2912 1.363 . S
C2914 C2915 1.370 . S
C2914 C2918 1.524 . S
C2915 C2907 1.503 . S
C2915 C2914 1.370 . S
C2915 C2916 1.403 . S
C2916 C2915 1.403 . S
C2916 C2917 1.404 . S
C2916 C2919 1.539 . S
C2917 C2913 1.408 . S
C2917 C2916 1.404 . S
C2917 H2929 0.930 . S
C2918 C2914 1.524 . S
C2918 H2930 0.956 . S
C2918 H2931 0.961 . S
C2918 H2932 0.961 . S
C2919 C2916 1.539 . S
C2919 H2933 0.958 . S
C2919 H2934 0.961 . S
C2919 H2935 0.960 . S
H2920 C2904 0.931 . S
H2921 C2909 0.929 . S
H2922 C2910 0.960 . S
H2923 C2910 0.962 . S
H2924 C2910 0.960 . S
H2925 C2911 0.961 . S
H2926 C2911 0.961 . S
H2927 C2911 0.961 . S
H2928 C2912 0.931 . S
H2929 C2917 0.930 . S
H2930 C2918 0.956 . S
H2931 C2918 0.961 . S
H2932 C2918 0.961 . S
H2933 C2919 0.958 . S
H2934 C2919 0.961 . S
H2935 C2919 0.960 . S
C2936 C2937 1.391 . S
C2936 C2938 1.394 . S
C2936 H2952 0.931 . S
C2937 C2936 1.391 . S
C2937 C2941 1.376 . S
C2938 C2936 1.394 . S
C2938 C2939 1.369 . S
C2938 C2942 1.531 . S
C2939 C2938 1.369 . S
C2939 C2940 1.410 . S
C2939 C2947 1.503 . S
C2940 C2939 1.410 . S
C2940 C2941 1.392 . S
C2940 C2943 1.511 . S
C2941 C2937 1.376 . S
C2941 C2940 1.392 . S
C2941 H2953 0.929 . S
C2942 C2938 1.531 . S
C2942 H2954 0.960 . S
C2942 H2955 0.962 . S
C2942 H2956 0.960 . S
C2943 C2940 1.511 . S
C2943 H2957 0.961 . S
C2943 H2958 0.961 . S
C2943 H2959 0.961 . S
C2944 C2945 1.370 . S
C2944 C2946 1.363 . S
C2944 H2960 0.931 . S
C2945 C2944 1.370 . S
C2945 C2949 1.408 . S
C2946 C2944 1.363 . S
C2946 C2947 1.370 . S
C2946 C2950 1.524 . S
C2947 C2939 1.503 . S
C2947 C2946 1.370 . S
C2947 C2948 1.403 . S
C2948 C2947 1.403 . S
C2948 C2949 1.404 . S
C2948 C2951 1.539 . S
C2949 C2945 1.408 . S
C2949 C2948 1.404 . S
C2949 H2961 0.930 . S
C2950 C2946 1.524 . S
C2950 H2962 0.956 . S
C2950 H2963 0.961 . S
C2950 H2964 0.961 . S
C2951 C2948 1.539 . S
C2951 H2965 0.958 . S
C2951 H2966 0.961 . S
C2951 H2967 0.960 . S
H2952 C2936 0.931 . S
H2953 C2941 0.929 . S
H2954 C2942 0.960 . S
H2955 C2942 0.962 . S
H2956 C2942 0.960 . S
H2957 C2943 0.961 . S
H2958 C2943 0.961 . S
H2959 C2943 0.961 . S
H2960 C2944 0.931 . S
H2961 C2949 0.930 . S
H2962 C2950 0.956 . S
H2963 C2950 0.961 . S
H2964 C2950 0.961 . S
H2965 C2951 0.958 . S
H2966 C2951 0.961 . S
H2967 C2951 0.960 . S
C2968 C2969 1.391 . S
C2968 C2970 1.394 . S
C2968 H2984 0.931 . S
C2969 C2968 1.391 . S
C2969 C2973 1.376 . S
C2970 C2968 1.394 . S
C2970 C2971 1.369 . S
C2970 C2974 1.531 . S
C2971 C2970 1.369 . S
C2971 C2972 1.410 . S
C2971 C2979 1.503 . S
C2972 C2971 1.410 . S
C2972 C2973 1.392 . S
C2972 C2975 1.511 . S
C2973 C2969 1.376 . S
C2973 C2972 1.392 . S
C2973 H2985 0.929 . S
C2974 C2970 1.531 . S
C2974 H2986 0.960 . S
C2974 H2987 0.962 . S
C2974 H2988 0.960 . S
C2975 C2972 1.511 . S
C2975 H2989 0.961 . S
C2975 H2990 0.961 . S
C2975 H2991 0.961 . S
C2976 C2977 1.370 . S
C2976 C2978 1.363 . S
C2976 H2992 0.931 . S
C2977 C2976 1.370 . S
C2977 C2981 1.408 . S
C2978 C2976 1.363 . S
C2978 C2979 1.370 . S
C2978 C2982 1.524 . S
C2979 C2971 1.503 . S
C2979 C2978 1.370 . S
C2979 C2980 1.403 . S
C2980 C2979 1.403 . S
C2980 C2981 1.404 . S
C2980 C2983 1.539 . S
C2981 C2977 1.408 . S
C2981 C2980 1.404 . S
C2981 H2993 0.930 . S
C2982 C2978 1.524 . S
C2982 H2994 0.956 . S
C2982 H2995 0.961 . S
C2982 H2996 0.961 . S
C2983 C2980 1.539 . S
C2983 H2997 0.958 . S
C2983 H2998 0.961 . S
C2983 H2999 0.960 . S
H2984 C2968 0.931 . S
H2985 C2973 0.929 . S
H2986 C2974 0.960 . S
H2987 C2974 0.962 . S
H2988 C2974 0.960 . S
H2989 C2975 0.961 . S
H2990 C2975 0.961 . S
H2991 C2975 0.961 . S
H2992 C2976 0.931 . S
H2993 C2981 0.930 . S
H2994 C2982 0.956 . S
H2995 C2982 0.961 . S
H2996 C2982 0.961 . S
H2997 C2983 0.958 . S
H2998 C2983 0.961 . S
H2999 C2983 0.960 . S
C3000 C3001 1.391 . S
C3000 C3002 1.394 . S
C3000 H3016 0.931 . S
C3001 C3000 1.391 . S
C3001 C3005 1.376 . S
C3002 C3000 1.394 . S
C3002 C3003 1.369 . S
C3002 C3006 1.531 . S
C3003 C3002 1.369 . S
C3003 C3004 1.410 . S
C3003 C3011 1.503 . S
C3004 C3003 1.410 . S
C3004 C3005 1.392 . S
C3004 C3007 1.511 . S
C3005 C3001 1.376 . S
C3005 C3004 1.392 . S
C3005 H3017 0.929 . S
C3006 C3002 1.531 . S
C3006 H3018 0.960 . S
C3006 H3019 0.962 . S
C3006 H3020 0.960 . S
C3007 C3004 1.511 . S
C3007 H3021 0.961 . S
C3007 H3022 0.961 . S
C3007 H3023 0.961 . S
C3008 C3009 1.370 . S
C3008 C3010 1.363 . S
C3008 H3024 0.931 . S
C3009 C3008 1.370 . S
C3009 C3013 1.408 . S
C3010 C3008 1.363 . S
C3010 C3011 1.370 . S
C3010 C3014 1.524 . S
C3011 C3003 1.503 . S
C3011 C3010 1.370 . S
C3011 C3012 1.403 . S
C3012 C3011 1.403 . S
C3012 C3013 1.404 . S
C3012 C3015 1.539 . S
C3013 C3009 1.408 . S
C3013 C3012 1.404 . S
C3013 H3025 0.930 . S
C3014 C3010 1.524 . S
C3014 H3026 0.956 . S
C3014 H3027 0.961 . S
C3014 H3028 0.961 . S
C3015 C3012 1.539 . S
C3015 H3029 0.958 . S
C3015 H3030 0.961 . S
C3015 H3031 0.960 . S
H3016 C3000 0.931 . S
H3017 C3005 0.929 . S
H3018 C3006 0.960 . S
H3019 C3006 0.962 . S
H3020 C3006 0.960 . S
H3021 C3007 0.961 . S
H3022 C3007 0.961 . S
H3023 C3007 0.961 . S
H3024 C3008 0.931 . S
H3025 C3013 0.930 . S
H3026 C3014 0.956 . S
H3027 C3014 0.961 . S
H3028 C3014 0.961 . S
H3029 C3015 0.958 . S
H3030 C3015 0.961 . S
H3031 C3015 0.960 . S
C3032 C3033 1.391 . S
C3032 C3034 1.394 . S
C3032 H3048 0.931 . S
C3033 C3032 1.391 . S
C3033 C3037 1.376 . S
C3034 C3032 1.394 . S
C3034 C3035 1.369 . S
C3034 C3038 1.531 . S
C3035 C3034 1.369 . S
C3035 C3036 1.410 . S
C3035 C3043 1.503 . S
C3036 C3035 1.410 . S
C3036 C3037 1.392 . S
C3036 C3039 1.511 . S
C3037 C3033 1.376 . S
C3037 C3036 1.392 . S
C3037 H3049 0.929 . S
C3038 C3034 1.531 . S
C3038 H3050 0.960 . S
C3038 H3051 0.962 . S
C3038 H3052 0.960 . S
C3039 C3036 1.511 . S
C3039 H3053 0.961 . S
C3039 H3054 0.961 . S
C3039 H3055 0.961 . S
C3040 C3041 1.370 . S
C3040 C3042 1.363 . S
C3040 H3056 0.931 . S
C3041 C3040 1.370 . S
C3041 C3045 1.408 . S
C3042 C3040 1.363 . S
C3042 C3043 1.370 . S
C3042 C3046 1.524 . S
C3043 C3035 1.503 . S
C3043 C3042 1.370 . S
C3043 C3044 1.403 . S
C3044 C3043 1.403 . S
C3044 C3045 1.404 . S
C3044 C3047 1.539 . S
C3045 C3041 1.408 . S
C3045 C3044 1.404 . S
C3045 H3057 0.930 . S
C3046 C3042 1.524 . S
C3046 H3058 0.956 . S
C3046 H3059 0.961 . S
C3046 H3060 0.961 . S
C3047 C3044 1.539 . S
C3047 H3061 0.958 . S
C3047 H3062 0.961 . S
C3047 H3063 0.960 . S
H3048 C3032 0.931 . S
H3049 C3037 0.929 . S
H3050 C3038 0.960 . S
H3051 C3038 0.962 . S
H3052 C3038 0.960 . S
H3053 C3039 0.961 . S
H3054 C3039 0.961 . S
H3055 C3039 0.961 . S
H3056 C3040 0.931 . S
H3057 C3045 0.930 . S
H3058 C3046 0.956 . S
H3059 C3046 0.961 . S
H3060 C3046 0.961 . S
H3061 C3047 0.958 . S
H3062 C3047 0.961 . S
H3063 C3047 0.960 . S
C3064 C3065 1.391 . S
C3064 C3066 1.394 . S
C3064 H3080 0.931 . S
C3065 C3064 1.391 . S
C3065 C3069 1.376 . S
C3066 C3064 1.394 . S
C3066 C3067 1.369 . S
C3066 C3070 1.531 . S
C3067 C3066 1.369 . S
C3067 C3068 1.410 . S
C3067 C3075 1.503 . S
C3068 C3067 1.410 . S
C3068 C3069 1.392 . S
C3068 C3071 1.511 . S
C3069 C3065 1.376 . S
C3069 C3068 1.392 . S
C3069 H3081 0.929 . S
C3070 C3066 1.531 . S
C3070 H3082 0.960 . S
C3070 H3083 0.962 . S
C3070 H3084 0.960 . S
C3071 C3068 1.511 . S
C3071 H3085 0.961 . S
C3071 H3086 0.961 . S
C3071 H3087 0.961 . S
C3072 C3073 1.370 . S
C3072 C3074 1.363 . S
C3072 H3088 0.931 . S
C3073 C3072 1.370 . S
C3073 C3077 1.408 . S
C3074 C3072 1.363 . S
C3074 C3075 1.370 . S
C3074 C3078 1.524 . S
C3075 C3067 1.503 . S
C3075 C3074 1.370 . S
C3075 C3076 1.403 . S
C3076 C3075 1.403 . S
C3076 C3077 1.404 . S
C3076 C3079 1.539 . S
C3077 C3073 1.408 . S
C3077 C3076 1.404 . S
C3077 H3089 0.930 . S
C3078 C3074 1.524 . S
C3078 H3090 0.956 . S
C3078 H3091 0.961 . S
C3078 H3092 0.961 . S
C3079 C3076 1.539 . S
C3079 H3093 0.958 . S
C3079 H3094 0.961 . S
C3079 H3095 0.960 . S
H3080 C3064 0.931 . S
H3081 C3069 0.929 . S
H3082 C3070 0.960 . S
H3083 C3070 0.962 . S
H3084 C3070 0.960 . S
H3085 C3071 0.961 . S
H3086 C3071 0.961 . S
H3087 C3071 0.961 . S
H3088 C3072 0.931 . S
H3089 C3077 0.930 . S
H3090 C3078 0.956 . S
H3091 C3078 0.961 . S
H3092 C3078 0.961 . S
H3093 C3079 0.958 . S
H3094 C3079 0.961 . S
H3095 C3079 0.960 . S
C3096 C3097 1.391 . S
C3096 C3098 1.394 . S
C3096 H3112 0.931 . S
C3097 C3096 1.391 . S
C3097 C3101 1.376 . S
C3098 C3096 1.394 . S
C3098 C3099 1.369 . S
C3098 C3102 1.562 . S
C3099 C3098 1.369 . S
C3099 C3100 1.410 . S
C3099 C3107 1.493 1_655 S
C3100 C3099 1.410 . S
C3100 C3101 1.392 . S
C3100 C3103 1.511 . S
C3101 C3097 1.376 . S
C3101 C3100 1.392 . S
C3101 H3113 0.929 . S
C3102 C3098 1.562 . S
C3102 H3114 0.970 . S
C3102 H3115 0.920 1_655 S
C3102 H3116 0.962 . S
C3103 C3100 1.511 . S
C3103 H3117 0.961 . S
C3103 H3118 0.961 . S
C3103 H3119 0.961 . S
C3104 C3105 1.370 . S
C3104 C3106 1.363 . S
C3104 H3120 0.931 . S
C3105 C3104 1.370 . S
C3105 C3109 1.408 1_455 S
C3106 C3104 1.363 . S
C3106 C3107 1.395 . S
C3106 C3110 1.524 . S
C3107 C3099 1.493 1_455 S
C3107 C3106 1.395 . S
C3107 C3108 1.389 1_455 S
C3108 C3107 1.389 1_655 S
C3108 C3109 1.404 . S
C3108 C3111 1.539 . S
C3109 C3105 1.408 1_655 S
C3109 C3108 1.404 . S
C3109 H3121 0.930 . S
C3110 C3106 1.524 . S
C3110 H3122 0.956 . S
C3110 H3123 0.961 . S
C3110 H3124 0.961 . S
C3111 C3108 1.539 . S
C3111 H3125 0.958 . S
C3111 H3126 0.961 . S
C3111 H3127 0.960 . S
H3112 C3096 0.931 . S
H3113 C3101 0.929 . S
H3114 C3102 0.970 . S
H3115 C3102 0.920 1_455 S
H3116 C3102 0.962 . S
H3117 C3103 0.961 . S
H3118 C3103 0.961 . S
H3119 C3103 0.961 . S
H3120 C3104 0.931 . S
H3121 C3109 0.930 . S
H3122 C3110 0.956 . S
H3123 C3110 0.961 . S
H3124 C3110 0.961 . S
H3125 C3111 0.958 . S
H3126 C3111 0.961 . S
H3127 C3111 0.960 . S
C3128 C3129 1.391 . S
C3128 C3130 1.394 . S
C3128 H3144 0.931 . S
C3129 C3128 1.391 . S
C3129 C3133 1.376 . S
C3130 C3128 1.394 . S
C3130 C3131 1.369 . S
C3130 C3134 1.531 . S
C3131 C3130 1.369 . S
C3131 C3132 1.410 . S
C3131 C3139 1.503 . S
C3132 C3131 1.410 . S
C3132 C3133 1.392 . S
C3132 C3135 1.511 . S
C3133 C3129 1.376 . S
C3133 C3132 1.392 . S
C3133 H3145 0.929 . S
C3134 C3130 1.531 . S
C3134 H3146 0.960 . S
C3134 H3147 0.962 . S
C3134 H3148 0.960 . S
C3135 C3132 1.511 . S
C3135 H3149 0.961 . S
C3135 H3150 0.961 . S
C3135 H3151 0.961 . S
C3136 C3137 1.370 . S
C3136 C3138 1.363 . S
C3136 H3152 0.931 . S
C3137 C3136 1.370 . S
C3137 C3141 1.408 . S
C3138 C3136 1.363 . S
C3138 C3139 1.370 . S
C3138 C3142 1.524 . S
C3139 C3131 1.503 . S
C3139 C3138 1.370 . S
C3139 C3140 1.403 . S
C3140 C3139 1.403 . S
C3140 C3141 1.404 . S
C3140 C3143 1.539 . S
C3141 C3137 1.408 . S
C3141 C3140 1.404 . S
C3141 H3153 0.930 . S
C3142 C3138 1.524 . S
C3142 H3154 0.956 . S
C3142 H3155 0.961 . S
C3142 H3156 0.961 . S
C3143 C3140 1.539 . S
C3143 H3157 0.958 . S
C3143 H3158 0.961 . S
C3143 H3159 0.960 . S
H3144 C3128 0.931 . S
H3145 C3133 0.929 . S
H3146 C3134 0.960 . S
H3147 C3134 0.962 . S
H3148 C3134 0.960 . S
H3149 C3135 0.961 . S
H3150 C3135 0.961 . S
H3151 C3135 0.961 . S
H3152 C3136 0.931 . S
H3153 C3141 0.930 . S
H3154 C3142 0.956 . S
H3155 C3142 0.961 . S
H3156 C3142 0.961 . S
H3157 C3143 0.958 . S
H3158 C3143 0.961 . S
H3159 C3143 0.960 . S
C3160 C3161 1.391 . S
C3160 C3162 1.394 1_545 S
C3160 H3176 0.931 1_545 S
C3161 C3160 1.391 . S
C3161 C3165 1.376 . S
C3162 C3160 1.394 1_565 S
C3162 C3163 1.365 . S
C3162 C3166 1.531 . S
C3163 C3162 1.365 . S
C3163 C3164 1.415 1_565 S
C3163 C3171 1.502 . S
C3164 C3163 1.415 1_545 S
C3164 C3165 1.392 . S
C3164 C3167 1.511 . S
C3165 C3161 1.376 . S
C3165 C3164 1.392 . S
C3165 H3177 0.929 . S
C3166 C3162 1.531 . S
C3166 H3178 0.960 . S
C3166 H3179 0.962 . S
C3166 H3180 0.960 . S
C3167 C3164 1.511 . S
C3167 H3181 0.961 . S
C3167 H3182 0.961 . S
C3167 H3183 0.961 . S
C3168 C3169 1.370 . S
C3168 C3170 1.363 1_565 S
C3168 H3184 0.931 1_565 S
C3169 C3168 1.370 . S
C3169 C3173 1.408 . S
C3170 C3168 1.363 1_545 S
C3170 C3171 1.370 1_545 S
C3170 C3174 1.524 . S
C3171 C3163 1.502 . S
C3171 C3170 1.370 1_565 S
C3171 C3172 1.403 . S
C3172 C3171 1.403 . S
C3172 C3173 1.404 . S
C3172 C3175 1.539 . S
C3173 C3169 1.408 . S
C3173 C3172 1.404 . S
C3173 H3185 0.930 . S
C3174 C3170 1.524 . S
C3174 H3186 0.956 . S
C3174 H3187 0.961 . S
C3174 H3188 0.961 . S
C3175 C3172 1.539 . S
C3175 H3189 0.958 . S
C3175 H3190 0.961 . S
C3175 H3191 0.960 . S
H3176 C3160 0.931 1_565 S
H3177 C3165 0.929 . S
H3178 C3166 0.960 . S
H3179 C3166 0.962 . S
H3180 C3166 0.960 . S
H3181 C3167 0.961 . S
H3182 C3167 0.961 . S
H3183 C3167 0.961 . S
H3184 C3168 0.931 1_545 S
H3185 C3173 0.930 . S
H3186 C3174 0.956 . S
H3187 C3174 0.961 . S
H3188 C3174 0.961 . S
H3189 C3175 0.958 . S
H3190 C3175 0.961 . S
H3191 C3175 0.960 . S
C3192 C3193 1.391 1_655 S
C3192 C3194 1.394 . S
C3192 H3208 0.931 . S
C3193 C3192 1.391 1_455 S
C3193 C3197 1.376 . S
C3194 C3192 1.394 . S
C3194 C3195 1.369 1_655 S
C3194 C3198 1.531 . S
C3195 C3194 1.369 1_455 S
C3195 C3196 1.410 . S
C3195 C3203 1.503 1_455 S
C3196 C3195 1.410 . S
C3196 C3197 1.392 . S
C3196 C3199 1.511 . S
C3197 C3193 1.376 . S
C3197 C3196 1.392 . S
C3197 H3209 0.929 . S
C3198 C3194 1.531 . S
C3198 H3210 0.960 . S
C3198 H3211 0.962 . S
C3198 H3212 0.960 . S
C3199 C3196 1.511 . S
C3199 H3213 0.961 . S
C3199 H3214 0.961 . S
C3199 H3215 0.961 . S
C3200 C3201 1.370 . S
C3200 C3202 1.363 . S
C3200 H3216 0.931 . S
C3201 C3200 1.370 . S
C3201 C3205 1.408 . S
C3202 C3200 1.363 . S
C3202 C3203 1.370 . S
C3202 C3206 1.524 . S
C3203 C3195 1.503 1_655 S
C3203 C3202 1.370 . S
C3203 C3204 1.403 . S
C3204 C3203 1.403 . S
C3204 C3205 1.404 . S
C3204 C3207 1.539 . S
C3205 C3201 1.408 . S
C3205 C3204 1.404 . S
C3205 H3217 0.930 . S
C3206 C3202 1.524 . S
C3206 H3218 0.956 . S
C3206 H3219 0.961 1_655 S
C3206 H3220 0.961 . S
C3207 C3204 1.539 . S
C3207 H3221 0.958 . S
C3207 H3222 0.961 1_655 S
C3207 H3223 0.960 1_655 S
H3208 C3192 0.931 . S
H3209 C3197 0.929 . S
H3210 C3198 0.960 . S
H3211 C3198 0.962 . S
H3212 C3198 0.960 . S
H3213 C3199 0.961 . S
H3214 C3199 0.961 . S
H3215 C3199 0.961 . S
H3216 C3200 0.931 . S
H3217 C3205 0.930 . S
H3218 C3206 0.956 . S
H3219 C3206 0.961 1_455 S
H3220 C3206 0.961 . S
H3221 C3207 0.958 . S
H3222 C3207 0.961 1_455 S
H3223 C3207 0.960 1_455 S
C3224 C3225 1.391 . S
C3224 C3226 1.394 . S
C3224 H3240 0.931 . S
C3225 C3224 1.391 . S
C3225 C3229 1.376 . S
C3226 C3224 1.394 . S
C3226 C3227 1.369 . S
C3226 C3230 1.531 . S
C3227 C3226 1.369 . S
C3227 C3228 1.410 . S
C3227 C3235 1.503 . S
C3228 C3227 1.410 . S
C3228 C3229 1.392 . S
C3228 C3231 1.511 . S
C3229 C3225 1.376 . S
C3229 C3228 1.392 . S
C3229 H3241 0.929 . S
C3230 C3226 1.531 . S
C3230 H3242 0.960 . S
C3230 H3243 0.962 . S
C3230 H3244 0.960 . S
C3231 C3228 1.511 . S
C3231 H3245 0.961 . S
C3231 H3246 0.961 . S
C3231 H3247 0.961 . S
C3232 C3233 1.370 . S
C3232 C3234 1.363 . S
C3232 H3248 0.931 . S
C3233 C3232 1.370 . S
C3233 C3237 1.408 . S
C3234 C3232 1.363 . S
C3234 C3235 1.370 . S
C3234 C3238 1.524 . S
C3235 C3227 1.503 . S
C3235 C3234 1.370 . S
C3235 C3236 1.403 . S
C3236 C3235 1.403 . S
C3236 C3237 1.404 . S
C3236 C3239 1.539 . S
C3237 C3233 1.408 . S
C3237 C3236 1.404 . S
C3237 H3249 0.930 . S
C3238 C3234 1.524 . S
C3238 H3250 0.956 . S
C3238 H3251 0.961 . S
C3238 H3252 0.961 . S
C3239 C3236 1.539 . S
C3239 H3253 0.958 . S
C3239 H3254 0.961 . S
C3239 H3255 0.960 . S
H3240 C3224 0.931 . S
H3241 C3229 0.929 . S
H3242 C3230 0.960 . S
H3243 C3230 0.962 . S
H3244 C3230 0.960 . S
H3245 C3231 0.961 . S
H3246 C3231 0.961 . S
H3247 C3231 0.961 . S
H3248 C3232 0.931 . S
H3249 C3237 0.930 . S
H3250 C3238 0.956 . S
H3251 C3238 0.961 . S
H3252 C3238 0.961 . S
H3253 C3239 0.958 . S
H3254 C3239 0.961 . S
H3255 C3239 0.960 . S
C3256 C3257 1.391 1_565 S
C3256 C3258 1.394 . S
C3256 H3272 0.931 . S
C3257 C3256 1.391 1_545 S
C3257 C3261 1.376 . S
C3258 C3256 1.394 . S
C3258 C3259 1.369 1_565 S
C3258 C3262 1.531 . S
C3259 C3258 1.369 1_545 S
C3259 C3260 1.410 . S
C3259 C3267 1.503 1_545 S
C3260 C3259 1.410 . S
C3260 C3261 1.392 . S
C3260 C3263 1.511 . S
C3261 C3257 1.376 . S
C3261 C3260 1.392 . S
C3261 H3273 0.929 . S
C3262 C3258 1.531 . S
C3262 H3274 0.960 . S
C3262 H3275 0.962 . S
C3262 H3276 0.960 . S
C3263 C3260 1.511 . S
C3263 H3277 0.961 . S
C3263 H3278 0.961 . S
C3263 H3279 0.961 . S
C3264 C3265 1.370 . S
C3264 C3266 1.363 . S
C3264 H3280 0.931 . S
C3265 C3264 1.370 . S
C3265 C3269 1.408 . S
C3266 C3264 1.363 . S
C3266 C3267 1.370 . S
C3266 C3270 1.524 . S
C3267 C3259 1.503 1_565 S
C3267 C3266 1.370 . S
C3267 C3268 1.403 . S
C3268 C3267 1.403 . S
C3268 C3269 1.404 . S
C3268 C3271 1.539 1_565 S
C3269 C3265 1.408 . S
C3269 C3268 1.404 . S
C3269 H3281 0.930 . S
C3270 C3266 1.524 . S
C3270 H3282 0.956 . S
C3270 H3283 0.978 . S
C3270 H3284 0.961 . S
C3271 C3268 1.539 1_545 S
C3271 H3285 0.961 . S
C3271 H3286 0.961 . S
C3271 H3287 0.960 . S
H3272 C3256 0.931 . S
H3273 C3261 0.929 . S
H3274 C3262 0.960 . S
H3275 C3262 0.962 . S
H3276 C3262 0.960 . S
H3277 C3263 0.961 . S
H3278 C3263 0.961 . S
H3279 C3263 0.961 . S
H3280 C3264 0.931 . S
H3281 C3269 0.930 . S
H3282 C3270 0.956 . S
H3283 C3270 0.978 . S
H3284 C3270 0.961 . S
H3285 C3271 0.961 . S
H3286 C3271 0.961 . S
H3287 C3271 0.960 . S
C3288 C3289 1.391 . S
C3288 C3290 1.394 . S
C3288 H3304 0.931 . S
C3289 C3288 1.391 . S
C3289 C3293 1.376 . S
C3290 C3288 1.394 . S
C3290 C3291 1.369 . S
C3290 C3294 1.531 . S
C3291 C3290 1.369 . S
C3291 C3292 1.410 . S
C3291 C3299 1.503 . S
C3292 C3291 1.410 . S
C3292 C3293 1.392 . S
C3292 C3295 1.511 . S
C3293 C3289 1.376 . S
C3293 C3292 1.392 . S
C3293 H3305 0.929 . S
C3294 C3290 1.531 . S
C3294 H3306 0.960 . S
C3294 H3307 0.962 . S
C3294 H3308 0.960 . S
C3295 C3292 1.511 . S
C3295 H3309 0.961 . S
C3295 H3310 0.961 . S
C3295 H3311 0.961 . S
C3296 C3297 1.370 . S
C3296 C3298 1.363 . S
C3296 H3312 0.931 . S
C3297 C3296 1.370 . S
C3297 C3301 1.408 . S
C3298 C3296 1.363 . S
C3298 C3299 1.370 . S
C3298 C3302 1.524 . S
C3299 C3291 1.503 . S
C3299 C3298 1.370 . S
C3299 C3300 1.403 . S
C3300 C3299 1.403 . S
C3300 C3301 1.404 . S
C3300 C3303 1.539 . S
C3301 C3297 1.408 . S
C3301 C3300 1.404 . S
C3301 H3313 0.930 . S
C3302 C3298 1.524 . S
C3302 H3314 0.956 . S
C3302 H3315 0.961 . S
C3302 H3316 0.961 . S
C3303 C3300 1.539 . S
C3303 H3317 0.958 . S
C3303 H3318 0.961 . S
C3303 H3319 0.960 . S
H3304 C3288 0.931 . S
H3305 C3293 0.929 . S
H3306 C3294 0.960 . S
H3307 C3294 0.962 . S
H3308 C3294 0.960 . S
H3309 C3295 0.961 . S
H3310 C3295 0.961 . S
H3311 C3295 0.961 . S
H3312 C3296 0.931 . S
H3313 C3301 0.930 . S
H3314 C3302 0.956 . S
H3315 C3302 0.961 . S
H3316 C3302 0.961 . S
H3317 C3303 0.958 . S
H3318 C3303 0.961 . S
H3319 C3303 0.960 . S
C3320 C3321 1.391 . S
C3320 C3322 1.394 . S
C3320 H3336 0.931 . S
C3321 C3320 1.391 . S
C3321 C3325 1.376 . S
C3322 C3320 1.394 . S
C3322 C3323 1.369 . S
C3322 C3326 1.531 . S
C3323 C3322 1.369 . S
C3323 C3324 1.410 . S
C3323 C3331 1.503 . S
C3324 C3323 1.410 . S
C3324 C3325 1.392 . S
C3324 C3327 1.511 . S
C3325 C3321 1.376 . S
C3325 C3324 1.392 . S
C3325 H3337 0.929 . S
C3326 C3322 1.531 . S
C3326 H3338 0.960 . S
C3326 H3339 0.962 . S
C3326 H3340 0.960 . S
C3327 C3324 1.511 . S
C3327 H3341 0.961 . S
C3327 H3342 0.961 . S
C3327 H3343 0.961 . S
C3328 C3329 1.370 . S
C3328 C3330 1.363 . S
C3328 H3344 0.931 . S
C3329 C3328 1.370 . S
C3329 C3333 1.408 . S
C3330 C3328 1.363 . S
C3330 C3331 1.370 . S
C3330 C3334 1.524 . S
C3331 C3323 1.503 . S
C3331 C3330 1.370 . S
C3331 C3332 1.403 . S
C3332 C3331 1.403 . S
C3332 C3333 1.404 . S
C3332 C3335 1.539 . S
C3333 C3329 1.408 . S
C3333 C3332 1.404 . S
C3333 H3345 0.930 . S
C3334 C3330 1.524 . S
C3334 H3346 0.956 . S
C3334 H3347 0.961 . S
C3334 H3348 0.961 . S
C3335 C3332 1.539 . S
C3335 H3349 0.958 . S
C3335 H3350 0.961 . S
C3335 H3351 0.960 . S
H3336 C3320 0.931 . S
H3337 C3325 0.929 . S
H3338 C3326 0.960 . S
H3339 C3326 0.962 . S
H3340 C3326 0.960 . S
H3341 C3327 0.961 . S
H3342 C3327 0.961 . S
H3343 C3327 0.961 . S
H3344 C3328 0.931 . S
H3345 C3333 0.930 . S
H3346 C3334 0.956 . S
H3347 C3334 0.961 . S
H3348 C3334 0.961 . S
H3349 C3335 0.958 . S
H3350 C3335 0.961 . S
H3351 C3335 0.960 . S
C3352 C3353 1.391 . S
C3352 C3354 1.394 . S
C3352 H3368 0.931 . S
C3353 C3352 1.391 . S
C3353 C3357 1.376 . S
C3354 C3352 1.394 . S
C3354 C3355 1.369 . S
C3354 C3358 1.531 . S
C3355 C3354 1.369 . S
C3355 C3356 1.410 . S
C3355 C3363 1.503 . S
C3356 C3355 1.410 . S
C3356 C3357 1.392 . S
C3356 C3359 1.511 . S
C3357 C3353 1.376 . S
C3357 C3356 1.392 . S
C3357 H3369 0.929 . S
C3358 C3354 1.531 . S
C3358 H3370 0.960 . S
C3358 H3371 0.962 . S
C3358 H3372 0.960 . S
C3359 C3356 1.511 . S
C3359 H3373 0.961 . S
C3359 H3374 0.961 . S
C3359 H3375 0.961 . S
C3360 C3361 1.370 . S
C3360 C3362 1.363 . S
C3360 H3376 0.931 . S
C3361 C3360 1.370 . S
C3361 C3365 1.408 . S
C3362 C3360 1.363 . S
C3362 C3363 1.370 . S
C3362 C3366 1.524 . S
C3363 C3355 1.503 . S
C3363 C3362 1.370 . S
C3363 C3364 1.403 . S
C3364 C3363 1.403 . S
C3364 C3365 1.404 . S
C3364 C3367 1.539 . S
C3365 C3361 1.408 . S
C3365 C3364 1.404 . S
C3365 H3377 0.930 . S
C3366 C3362 1.524 . S
C3366 H3378 0.956 . S
C3366 H3379 0.961 . S
C3366 H3380 0.961 . S
C3367 C3364 1.539 . S
C3367 H3381 0.958 . S
C3367 H3382 0.961 . S
C3367 H3383 0.960 . S
H3368 C3352 0.931 . S
H3369 C3357 0.929 . S
H3370 C3358 0.960 . S
H3371 C3358 0.962 . S
H3372 C3358 0.960 . S
H3373 C3359 0.961 . S
H3374 C3359 0.961 . S
H3375 C3359 0.961 . S
H3376 C3360 0.931 . S
H3377 C3365 0.930 . S
H3378 C3366 0.956 . S
H3379 C3366 0.961 . S
H3380 C3366 0.961 . S
H3381 C3367 0.958 . S
H3382 C3367 0.961 . S
H3383 C3367 0.960 . S
C3384 C3385 1.391 . S
C3384 C3386 1.394 . S
C3384 H3400 0.931 . S
C3385 C3384 1.391 . S
C3385 C3389 1.376 . S
C3386 C3384 1.394 . S
C3386 C3387 1.369 . S
C3386 C3390 1.531 . S
C3387 C3386 1.369 . S
C3387 C3388 1.410 . S
C3387 C3395 1.503 . S
C3388 C3387 1.410 . S
C3388 C3389 1.392 . S
C3388 C3391 1.511 . S
C3389 C3385 1.376 . S
C3389 C3388 1.392 . S
C3389 H3401 0.929 . S
C3390 C3386 1.531 . S
C3390 H3402 0.960 . S
C3390 H3403 0.962 . S
C3390 H3404 0.960 . S
C3391 C3388 1.511 . S
C3391 H3405 0.961 . S
C3391 H3406 0.961 . S
C3391 H3407 0.961 . S
C3392 C3393 1.370 . S
C3392 C3394 1.363 . S
C3392 H3408 0.931 . S
C3393 C3392 1.370 . S
C3393 C3397 1.408 . S
C3394 C3392 1.363 . S
C3394 C3395 1.370 . S
C3394 C3398 1.524 . S
C3395 C3387 1.503 . S
C3395 C3394 1.370 . S
C3395 C3396 1.403 . S
C3396 C3395 1.403 . S
C3396 C3397 1.404 . S
C3396 C3399 1.539 . S
C3397 C3393 1.408 . S
C3397 C3396 1.404 . S
C3397 H3409 0.930 . S
C3398 C3394 1.524 . S
C3398 H3410 0.956 . S
C3398 H3411 0.961 . S
C3398 H3412 0.961 . S
C3399 C3396 1.539 . S
C3399 H3413 0.958 . S
C3399 H3414 0.961 . S
C3399 H3415 0.960 . S
H3400 C3384 0.931 . S
H3401 C3389 0.929 . S
H3402 C3390 0.960 . S
H3403 C3390 0.962 . S
H3404 C3390 0.960 . S
H3405 C3391 0.961 . S
H3406 C3391 0.961 . S
H3407 C3391 0.961 . S
H3408 C3392 0.931 . S
H3409 C3397 0.930 . S
H3410 C3398 0.956 . S
H3411 C3398 0.961 . S
H3412 C3398 0.961 . S
H3413 C3399 0.958 . S
H3414 C3399 0.961 . S
H3415 C3399 0.960 . S
C3416 C3417 1.391 . S
C3416 C3418 1.394 . S
C3416 H3432 0.931 . S
C3417 C3416 1.391 . S
C3417 C3421 1.376 . S
C3418 C3416 1.394 . S
C3418 C3419 1.369 . S
C3418 C3422 1.531 . S
C3419 C3418 1.369 . S
C3419 C3420 1.410 . S
C3419 C3427 1.503 . S
C3420 C3419 1.410 . S
C3420 C3421 1.392 . S
C3420 C3423 1.511 . S
C3421 C3417 1.376 . S
C3421 C3420 1.392 . S
C3421 H3433 0.929 . S
C3422 C3418 1.531 . S
C3422 H3434 0.960 . S
C3422 H3435 0.962 . S
C3422 H3436 0.960 . S
C3423 C3420 1.511 . S
C3423 H3437 0.961 . S
C3423 H3438 0.961 . S
C3423 H3439 0.961 . S
C3424 C3425 1.370 . S
C3424 C3426 1.363 . S
C3424 H3440 0.931 . S
C3425 C3424 1.370 . S
C3425 C3429 1.408 . S
C3426 C3424 1.363 . S
C3426 C3427 1.370 . S
C3426 C3430 1.524 . S
C3427 C3419 1.503 . S
C3427 C3426 1.370 . S
C3427 C3428 1.403 . S
C3428 C3427 1.403 . S
C3428 C3429 1.404 . S
C3428 C3431 1.539 . S
C3429 C3425 1.408 . S
C3429 C3428 1.404 . S
C3429 H3441 0.930 . S
C3430 C3426 1.524 . S
C3430 H3442 0.956 . S
C3430 H3443 0.961 . S
C3430 H3444 0.961 . S
C3431 C3428 1.539 . S
C3431 H3445 0.958 . S
C3431 H3446 0.961 . S
C3431 H3447 0.960 . S
H3432 C3416 0.931 . S
H3433 C3421 0.929 . S
H3434 C3422 0.960 . S
H3435 C3422 0.962 . S
H3436 C3422 0.960 . S
H3437 C3423 0.961 . S
H3438 C3423 0.961 . S
H3439 C3423 0.961 . S
H3440 C3424 0.931 . S
H3441 C3429 0.930 . S
H3442 C3430 0.956 . S
H3443 C3430 0.961 . S
H3444 C3430 0.961 . S
H3445 C3431 0.958 . S
H3446 C3431 0.961 . S
H3447 C3431 0.960 . S
C3448 C3449 1.391 . S
C3448 C3450 1.394 . S
C3448 H3464 0.931 . S
C3449 C3448 1.391 . S
C3449 C3453 1.376 . S
C3450 C3448 1.394 . S
C3450 C3451 1.369 . S
C3450 C3454 1.531 . S
C3451 C3450 1.369 . S
C3451 C3452 1.410 . S
C3451 C3459 1.503 . S
C3452 C3451 1.410 . S
C3452 C3453 1.392 . S
C3452 C3455 1.511 . S
C3453 C3449 1.376 . S
C3453 C3452 1.392 . S
C3453 H3465 0.929 . S
C3454 C3450 1.531 . S
C3454 H3466 0.960 . S
C3454 H3467 0.962 . S
C3454 H3468 0.960 . S
C3455 C3452 1.511 . S
C3455 H3469 0.961 . S
C3455 H3470 0.961 . S
C3455 H3471 0.961 . S
C3456 C3457 1.370 . S
C3456 C3458 1.363 . S
C3456 H3472 0.931 . S
C3457 C3456 1.370 . S
C3457 C3461 1.408 . S
C3458 C3456 1.363 . S
C3458 C3459 1.370 . S
C3458 C3462 1.524 . S
C3459 C3451 1.503 . S
C3459 C3458 1.370 . S
C3459 C3460 1.403 . S
C3460 C3459 1.403 . S
C3460 C3461 1.404 . S
C3460 C3463 1.539 . S
C3461 C3457 1.408 . S
C3461 C3460 1.404 . S
C3461 H3473 0.930 . S
C3462 C3458 1.524 . S
C3462 H3474 0.956 . S
C3462 H3475 0.961 . S
C3462 H3476 0.961 . S
C3463 C3460 1.539 . S
C3463 H3477 0.958 . S
C3463 H3478 0.961 . S
C3463 H3479 0.960 . S
H3464 C3448 0.931 . S
H3465 C3453 0.929 . S
H3466 C3454 0.960 . S
H3467 C3454 0.962 . S
H3468 C3454 0.960 . S
H3469 C3455 0.961 . S
H3470 C3455 0.961 . S
H3471 C3455 0.961 . S
H3472 C3456 0.931 . S
H3473 C3461 0.930 . S
H3474 C3462 0.956 . S
H3475 C3462 0.961 . S
H3476 C3462 0.961 . S
H3477 C3463 0.958 . S
H3478 C3463 0.961 . S
H3479 C3463 0.960 . S
C3480 C3481 1.391 . S
C3480 C3482 1.394 . S
C3480 H3496 0.931 . S
C3481 C3480 1.391 . S
C3481 C3485 1.376 . S
C3482 C3480 1.394 . S
C3482 C3483 1.369 . S
C3482 C3486 1.531 . S
C3483 C3482 1.369 . S
C3483 C3484 1.410 . S
C3483 C3491 1.503 . S
C3484 C3483 1.410 . S
C3484 C3485 1.392 . S
C3484 C3487 1.511 . S
C3485 C3481 1.376 . S
C3485 C3484 1.392 . S
C3485 H3497 0.929 . S
C3486 C3482 1.531 . S
C3486 H3498 0.960 . S
C3486 H3499 0.962 . S
C3486 H3500 0.960 . S
C3487 C3484 1.511 . S
C3487 H3501 0.961 . S
C3487 H3502 0.961 . S
C3487 H3503 0.961 . S
C3488 C3489 1.370 . S
C3488 C3490 1.363 . S
C3488 H3504 0.931 . S
C3489 C3488 1.370 . S
C3489 C3493 1.408 . S
C3490 C3488 1.363 . S
C3490 C3491 1.370 . S
C3490 C3494 1.524 . S
C3491 C3483 1.503 . S
C3491 C3490 1.370 . S
C3491 C3492 1.403 . S
C3492 C3491 1.403 . S
C3492 C3493 1.404 . S
C3492 C3495 1.539 . S
C3493 C3489 1.408 . S
C3493 C3492 1.404 . S
C3493 H3505 0.930 . S
C3494 C3490 1.524 . S
C3494 H3506 0.956 . S
C3494 H3507 0.961 . S
C3494 H3508 0.961 . S
C3495 C3492 1.539 . S
C3495 H3509 0.958 . S
C3495 H3510 0.961 . S
C3495 H3511 0.960 . S
H3496 C3480 0.931 . S
H3497 C3485 0.929 . S
H3498 C3486 0.960 . S
H3499 C3486 0.962 . S
H3500 C3486 0.960 . S
H3501 C3487 0.961 . S
H3502 C3487 0.961 . S
H3503 C3487 0.961 . S
H3504 C3488 0.931 . S
H3505 C3493 0.930 . S
H3506 C3494 0.956 . S
H3507 C3494 0.961 . S
H3508 C3494 0.961 . S
H3509 C3495 0.958 . S
H3510 C3495 0.961 . S
H3511 C3495 0.960 . S
C3512 C3513 1.391 . S
C3512 C3514 1.394 . S
C3512 H3528 0.931 . S
C3513 C3512 1.391 . S
C3513 C3517 1.376 . S
C3514 C3512 1.394 . S
C3514 C3515 1.369 . S
C3514 C3518 1.531 . S
C3515 C3514 1.369 . S
C3515 C3516 1.410 . S
C3515 C3523 1.503 . S
C3516 C3515 1.410 . S
C3516 C3517 1.392 . S
C3516 C3519 1.511 . S
C3517 C3513 1.376 . S
C3517 C3516 1.392 . S
C3517 H3529 0.929 . S
C3518 C3514 1.531 . S
C3518 H3530 0.960 . S
C3518 H3531 0.962 . S
C3518 H3532 0.960 . S
C3519 C3516 1.511 . S
C3519 H3533 0.961 . S
C3519 H3534 0.961 . S
C3519 H3535 0.961 . S
C3520 C3521 1.370 . S
C3520 C3522 1.363 . S
C3520 H3536 0.931 . S
C3521 C3520 1.370 . S
C3521 C3525 1.408 . S
C3522 C3520 1.363 . S
C3522 C3523 1.370 . S
C3522 C3526 1.524 . S
C3523 C3515 1.503 . S
C3523 C3522 1.370 . S
C3523 C3524 1.403 . S
C3524 C3523 1.403 . S
C3524 C3525 1.404 . S
C3524 C3527 1.539 . S
C3525 C3521 1.408 . S
C3525 C3524 1.404 . S
C3525 H3537 0.930 . S
C3526 C3522 1.524 . S
C3526 H3538 0.956 . S
C3526 H3539 0.961 . S
C3526 H3540 0.961 . S
C3527 C3524 1.539 . S
C3527 H3541 0.958 . S
C3527 H3542 0.961 . S
C3527 H3543 0.960 . S
H3528 C3512 0.931 . S
H3529 C3517 0.929 . S
H3530 C3518 0.960 . S
H3531 C3518 0.962 . S
H3532 C3518 0.960 . S
H3533 C3519 0.961 . S
H3534 C3519 0.961 . S
H3535 C3519 0.961 . S
H3536 C3520 0.931 . S
H3537 C3525 0.930 . S
H3538 C3526 0.956 . S
H3539 C3526 0.961 . S
H3540 C3526 0.961 . S
H3541 C3527 0.958 . S
H3542 C3527 0.961 . S
H3543 C3527 0.960 . S
C3544 C3545 1.391 . S
C3544 C3546 1.394 . S
C3544 H3560 0.931 . S
C3545 C3544 1.391 . S
C3545 C3549 1.376 . S
C3546 C3544 1.394 . S
C3546 C3547 1.369 . S
C3546 C3550 1.531 . S
C3547 C3546 1.369 . S
C3547 C3548 1.410 . S
C3547 C3555 1.503 . S
C3548 C3547 1.410 . S
C3548 C3549 1.392 . S
C3548 C3551 1.511 . S
C3549 C3545 1.376 . S
C3549 C3548 1.392 . S
C3549 H3561 0.929 . S
C3550 C3546 1.531 . S
C3550 H3562 0.960 . S
C3550 H3563 0.962 . S
C3550 H3564 0.960 . S
C3551 C3548 1.511 . S
C3551 H3565 0.961 . S
C3551 H3566 0.961 . S
C3551 H3567 0.961 . S
C3552 C3553 1.370 . S
C3552 C3554 1.363 . S
C3552 H3568 0.931 . S
C3553 C3552 1.370 . S
C3553 C3557 1.408 . S
C3554 C3552 1.363 . S
C3554 C3555 1.370 . S
C3554 C3558 1.524 . S
C3555 C3547 1.503 . S
C3555 C3554 1.370 . S
C3555 C3556 1.403 . S
C3556 C3555 1.403 . S
C3556 C3557 1.404 . S
C3556 C3559 1.539 . S
C3557 C3553 1.408 . S
C3557 C3556 1.404 . S
C3557 H3569 0.930 . S
C3558 C3554 1.524 . S
C3558 H3570 0.956 . S
C3558 H3571 0.961 . S
C3558 H3572 0.961 . S
C3559 C3556 1.539 . S
C3559 H3573 0.958 . S
C3559 H3574 0.961 . S
C3559 H3575 0.960 . S
H3560 C3544 0.931 . S
H3561 C3549 0.929 . S
H3562 C3550 0.960 . S
H3563 C3550 0.962 . S
H3564 C3550 0.960 . S
H3565 C3551 0.961 . S
H3566 C3551 0.961 . S
H3567 C3551 0.961 . S
H3568 C3552 0.931 . S
H3569 C3557 0.930 . S
H3570 C3558 0.956 . S
H3571 C3558 0.961 . S
H3572 C3558 0.961 . S
H3573 C3559 0.958 . S
H3574 C3559 0.961 . S
H3575 C3559 0.960 . S
C3576 C3577 1.391 . S
C3576 C3578 1.394 . S
C3576 H3592 0.931 . S
C3577 C3576 1.391 . S
C3577 C3581 1.376 . S
C3578 C3576 1.394 . S
C3578 C3579 1.369 . S
C3578 C3582 1.531 . S
C3579 C3578 1.369 . S
C3579 C3580 1.410 . S
C3579 C3587 1.503 . S
C3580 C3579 1.410 . S
C3580 C3581 1.392 . S
C3580 C3583 1.511 . S
C3581 C3577 1.376 . S
C3581 C3580 1.392 . S
C3581 H3593 0.929 . S
C3582 C3578 1.531 . S
C3582 H3594 0.960 . S
C3582 H3595 0.962 . S
C3582 H3596 0.960 . S
C3583 C3580 1.511 . S
C3583 H3597 0.961 . S
C3583 H3598 0.961 . S
C3583 H3599 0.961 . S
C3584 C3585 1.370 . S
C3584 C3586 1.363 . S
C3584 H3600 0.931 . S
C3585 C3584 1.370 . S
C3585 C3589 1.408 . S
C3586 C3584 1.363 . S
C3586 C3587 1.370 . S
C3586 C3590 1.524 . S
C3587 C3579 1.503 . S
C3587 C3586 1.370 . S
C3587 C3588 1.403 . S
C3588 C3587 1.403 . S
C3588 C3589 1.404 . S
C3588 C3591 1.539 . S
C3589 C3585 1.408 . S
C3589 C3588 1.404 . S
C3589 H3601 0.930 . S
C3590 C3586 1.524 . S
C3590 H3602 0.956 . S
C3590 H3603 0.961 . S
C3590 H3604 0.961 . S
C3591 C3588 1.539 . S
C3591 H3605 0.958 . S
C3591 H3606 0.961 . S
C3591 H3607 0.960 . S
H3592 C3576 0.931 . S
H3593 C3581 0.929 . S
H3594 C3582 0.960 . S
H3595 C3582 0.962 . S
H3596 C3582 0.960 . S
H3597 C3583 0.961 . S
H3598 C3583 0.961 . S
H3599 C3583 0.961 . S
H3600 C3584 0.931 . S
H3601 C3589 0.930 . S
H3602 C3590 0.956 . S
H3603 C3590 0.961 . S
H3604 C3590 0.961 . S
H3605 C3591 0.958 . S
H3606 C3591 0.961 . S
H3607 C3591 0.960 . S
C3608 C3609 1.391 . S
C3608 C3610 1.394 . S
C3608 H3624 0.931 . S
C3609 C3608 1.391 . S
C3609 C3613 1.376 . S
C3610 C3608 1.394 . S
C3610 C3611 1.369 . S
C3610 C3614 1.531 . S
C3611 C3610 1.369 . S
C3611 C3612 1.410 . S
C3611 C3619 1.503 . S
C3612 C3611 1.410 . S
C3612 C3613 1.392 . S
C3612 C3615 1.511 . S
C3613 C3609 1.376 . S
C3613 C3612 1.392 . S
C3613 H3625 0.929 . S
C3614 C3610 1.531 . S
C3614 H3626 0.960 . S
C3614 H3627 0.962 . S
C3614 H3628 0.960 . S
C3615 C3612 1.511 . S
C3615 H3629 0.961 . S
C3615 H3630 0.961 . S
C3615 H3631 0.961 . S
C3616 C3617 1.370 . S
C3616 C3618 1.363 . S
C3616 H3632 0.931 . S
C3617 C3616 1.370 . S
C3617 C3621 1.408 . S
C3618 C3616 1.363 . S
C3618 C3619 1.370 . S
C3618 C3622 1.524 . S
C3619 C3611 1.503 . S
C3619 C3618 1.370 . S
C3619 C3620 1.403 . S
C3620 C3619 1.403 . S
C3620 C3621 1.404 . S
C3620 C3623 1.539 . S
C3621 C3617 1.408 . S
C3621 C3620 1.404 . S
C3621 H3633 0.930 . S
C3622 C3618 1.524 . S
C3622 H3634 0.956 . S
C3622 H3635 0.961 . S
C3622 H3636 0.961 . S
C3623 C3620 1.539 . S
C3623 H3637 0.958 . S
C3623 H3638 0.961 . S
C3623 H3639 0.960 . S
H3624 C3608 0.931 . S
H3625 C3613 0.929 . S
H3626 C3614 0.960 . S
H3627 C3614 0.962 . S
H3628 C3614 0.960 . S
H3629 C3615 0.961 . S
H3630 C3615 0.961 . S
H3631 C3615 0.961 . S
H3632 C3616 0.931 . S
H3633 C3621 0.930 . S
H3634 C3622 0.956 . S
H3635 C3622 0.961 . S
H3636 C3622 0.961 . S
H3637 C3623 0.958 . S
H3638 C3623 0.961 . S
H3639 C3623 0.960 . S
C3640 C3641 1.391 . S
C3640 C3642 1.394 . S
C3640 H3656 0.931 . S
C3641 C3640 1.391 . S
C3641 C3645 1.376 . S
C3642 C3640 1.394 . S
C3642 C3643 1.369 . S
C3642 C3646 1.531 . S
C3643 C3642 1.369 . S
C3643 C3644 1.410 . S
C3643 C3651 1.503 . S
C3644 C3643 1.410 . S
C3644 C3645 1.392 . S
C3644 C3647 1.511 . S
C3645 C3641 1.376 . S
C3645 C3644 1.392 . S
C3645 H3657 0.929 . S
C3646 C3642 1.531 . S
C3646 H3658 0.960 . S
C3646 H3659 0.962 . S
C3646 H3660 0.960 . S
C3647 C3644 1.511 . S
C3647 H3661 0.961 . S
C3647 H3662 0.961 . S
C3647 H3663 0.961 . S
C3648 C3649 1.370 . S
C3648 C3650 1.363 . S
C3648 H3664 0.931 . S
C3649 C3648 1.370 . S
C3649 C3653 1.408 . S
C3650 C3648 1.363 . S
C3650 C3651 1.370 . S
C3650 C3654 1.524 . S
C3651 C3643 1.503 . S
C3651 C3650 1.370 . S
C3651 C3652 1.403 . S
C3652 C3651 1.403 . S
C3652 C3653 1.404 . S
C3652 C3655 1.539 . S
C3653 C3649 1.408 . S
C3653 C3652 1.404 . S
C3653 H3665 0.930 . S
C3654 C3650 1.524 . S
C3654 H3666 0.956 . S
C3654 H3667 0.961 . S
C3654 H3668 0.961 . S
C3655 C3652 1.539 . S
C3655 H3669 0.958 . S
C3655 H3670 0.961 . S
C3655 H3671 0.960 . S
H3656 C3640 0.931 . S
H3657 C3645 0.929 . S
H3658 C3646 0.960 . S
H3659 C3646 0.962 . S
H3660 C3646 0.960 . S
H3661 C3647 0.961 . S
H3662 C3647 0.961 . S
H3663 C3647 0.961 . S
H3664 C3648 0.931 . S
H3665 C3653 0.930 . S
H3666 C3654 0.956 . S
H3667 C3654 0.961 . S
H3668 C3654 0.961 . S
H3669 C3655 0.958 . S
H3670 C3655 0.961 . S
H3671 C3655 0.960 . S
C3672 C3673 1.391 . S
C3672 C3674 1.394 . S
C3672 H3688 0.931 . S
C3673 C3672 1.391 . S
C3673 C3677 1.376 . S
C3674 C3672 1.394 . S
C3674 C3675 1.369 . S
C3674 C3678 1.531 . S
C3675 C3674 1.369 . S
C3675 C3676 1.410 . S
C3675 C3683 1.503 . S
C3676 C3675 1.410 . S
C3676 C3677 1.392 . S
C3676 C3679 1.511 . S
C3677 C3673 1.376 . S
C3677 C3676 1.392 . S
C3677 H3689 0.929 . S
C3678 C3674 1.531 . S
C3678 H3690 0.960 . S
C3678 H3691 0.962 . S
C3678 H3692 0.960 . S
C3679 C3676 1.511 . S
C3679 H3693 0.961 . S
C3679 H3694 0.961 . S
C3679 H3695 0.961 . S
C3680 C3681 1.370 . S
C3680 C3682 1.363 . S
C3680 H3696 0.931 . S
C3681 C3680 1.370 . S
C3681 C3685 1.408 . S
C3682 C3680 1.363 . S
C3682 C3683 1.370 . S
C3682 C3686 1.524 . S
C3683 C3675 1.503 . S
C3683 C3682 1.370 . S
C3683 C3684 1.403 . S
C3684 C3683 1.403 . S
C3684 C3685 1.404 . S
C3684 C3687 1.539 . S
C3685 C3681 1.408 . S
C3685 C3684 1.404 . S
C3685 H3697 0.930 . S
C3686 C3682 1.524 . S
C3686 H3698 0.956 . S
C3686 H3699 0.961 . S
C3686 H3700 0.961 . S
C3687 C3684 1.539 . S
C3687 H3701 0.958 . S
C3687 H3702 0.961 . S
C3687 H3703 0.960 . S
H3688 C3672 0.931 . S
H3689 C3677 0.929 . S
H3690 C3678 0.960 . S
H3691 C3678 0.962 . S
H3692 C3678 0.960 . S
H3693 C3679 0.961 . S
H3694 C3679 0.961 . S
H3695 C3679 0.961 . S
H3696 C3680 0.931 . S
H3697 C3685 0.930 . S
H3698 C3686 0.956 . S
H3699 C3686 0.961 . S
H3700 C3686 0.961 . S
H3701 C3687 0.958 . S
H3702 C3687 0.961 . S
H3703 C3687 0.960 . S
C3704 C3705 1.391 . S
C3704 C3706 1.394 . S
C3704 H3720 0.931 . S
C3705 C3704 1.391 . S
C3705 C3709 1.376 . S
C3706 C3704 1.394 . S
C3706 C3707 1.369 . S
C3706 C3710 1.531 . S
C3707 C3706 1.369 . S
C3707 C3708 1.410 . S
C3707 C3715 1.503 . S
C3708 C3707 1.410 . S
C3708 C3709 1.392 . S
C3708 C3711 1.511 . S
C3709 C3705 1.376 . S
C3709 C3708 1.392 . S
C3709 H3721 0.929 . S
C3710 C3706 1.531 . S
C3710 H3722 0.960 . S
C3710 H3723 0.962 . S
C3710 H3724 0.960 . S
C3711 C3708 1.511 . S
C3711 H3725 0.961 . S
C3711 H3726 0.961 . S
C3711 H3727 0.961 . S
C3712 C3713 1.370 . S
C3712 C3714 1.363 . S
C3712 H3728 0.931 . S
C3713 C3712 1.370 . S
C3713 C3717 1.408 . S
C3714 C3712 1.363 . S
C3714 C3715 1.370 . S
C3714 C3718 1.524 . S
C3715 C3707 1.503 . S
C3715 C3714 1.370 . S
C3715 C3716 1.403 . S
C3716 C3715 1.403 . S
C3716 C3717 1.404 . S
C3716 C3719 1.539 . S
C3717 C3713 1.408 . S
C3717 C3716 1.404 . S
C3717 H3729 0.930 . S
C3718 C3714 1.524 . S
C3718 H3730 0.956 . S
C3718 H3731 0.961 . S
C3718 H3732 0.961 . S
C3719 C3716 1.539 . S
C3719 H3733 0.958 . S
C3719 H3734 0.961 . S
C3719 H3735 0.960 . S
H3720 C3704 0.931 . S
H3721 C3709 0.929 . S
H3722 C3710 0.960 . S
H3723 C3710 0.962 . S
H3724 C3710 0.960 . S
H3725 C3711 0.961 . S
H3726 C3711 0.961 . S
H3727 C3711 0.961 . S
H3728 C3712 0.931 . S
H3729 C3717 0.930 . S
H3730 C3718 0.956 . S
H3731 C3718 0.961 . S
H3732 C3718 0.961 . S
H3733 C3719 0.958 . S
H3734 C3719 0.961 . S
H3735 C3719 0.960 . S
C3736 C3737 1.391 . S
C3736 C3738 1.394 . S
C3736 H3752 0.931 . S
C3737 C3736 1.391 . S
C3737 C3741 1.376 . S
C3738 C3736 1.394 . S
C3738 C3739 1.369 . S
C3738 C3742 1.531 . S
C3739 C3738 1.369 . S
C3739 C3740 1.410 . S
C3739 C3747 1.503 . S
C3740 C3739 1.410 . S
C3740 C3741 1.392 . S
C3740 C3743 1.511 . S
C3741 C3737 1.376 . S
C3741 C3740 1.392 . S
C3741 H3753 0.929 . S
C3742 C3738 1.531 . S
C3742 H3754 0.960 . S
C3742 H3755 0.962 . S
C3742 H3756 0.960 . S
C3743 C3740 1.511 . S
C3743 H3757 0.961 . S
C3743 H3758 0.961 . S
C3743 H3759 0.961 . S
C3744 C3745 1.370 . S
C3744 C3746 1.363 . S
C3744 H3760 0.931 . S
C3745 C3744 1.370 . S
C3745 C3749 1.408 . S
C3746 C3744 1.363 . S
C3746 C3747 1.370 . S
C3746 C3750 1.524 . S
C3747 C3739 1.503 . S
C3747 C3746 1.370 . S
C3747 C3748 1.403 . S
C3748 C3747 1.403 . S
C3748 C3749 1.404 . S
C3748 C3751 1.539 . S
C3749 C3745 1.408 . S
C3749 C3748 1.404 . S
C3749 H3761 0.930 . S
C3750 C3746 1.524 . S
C3750 H3762 0.956 . S
C3750 H3763 0.961 . S
C3750 H3764 0.961 . S
C3751 C3748 1.539 . S
C3751 H3765 0.958 . S
C3751 H3766 0.961 . S
C3751 H3767 0.960 . S
H3752 C3736 0.931 . S
H3753 C3741 0.929 . S
H3754 C3742 0.960 . S
H3755 C3742 0.962 . S
H3756 C3742 0.960 . S
H3757 C3743 0.961 . S
H3758 C3743 0.961 . S
H3759 C3743 0.961 . S
H3760 C3744 0.931 . S
H3761 C3749 0.930 . S
H3762 C3750 0.956 . S
H3763 C3750 0.961 . S
H3764 C3750 0.961 . S
H3765 C3751 0.958 . S
H3766 C3751 0.961 . S
H3767 C3751 0.960 . S
C3768 C3769 1.391 . S
C3768 C3770 1.394 . S
C3768 H3784 0.931 . S
C3769 C3768 1.391 . S
C3769 C3773 1.376 . S
C3770 C3768 1.394 . S
C3770 C3771 1.369 . S
C3770 C3774 1.531 . S
C3771 C3770 1.369 . S
C3771 C3772 1.410 . S
C3771 C3779 1.503 . S
C3772 C3771 1.410 . S
C3772 C3773 1.392 . S
C3772 C3775 1.511 . S
C3773 C3769 1.376 . S
C3773 C3772 1.392 . S
C3773 H3785 0.929 . S
C3774 C3770 1.531 . S
C3774 H3786 0.960 . S
C3774 H3787 0.962 . S
C3774 H3788 0.960 . S
C3775 C3772 1.511 . S
C3775 H3789 0.961 . S
C3775 H3790 0.961 . S
C3775 H3791 0.961 . S
C3776 C3777 1.370 . S
C3776 C3778 1.363 . S
C3776 H3792 0.931 . S
C3777 C3776 1.370 . S
C3777 C3781 1.408 . S
C3778 C3776 1.363 . S
C3778 C3779 1.370 . S
C3778 C3782 1.524 . S
C3779 C3771 1.503 . S
C3779 C3778 1.370 . S
C3779 C3780 1.403 . S
C3780 C3779 1.403 . S
C3780 C3781 1.404 . S
C3780 C3783 1.539 . S
C3781 C3777 1.408 . S
C3781 C3780 1.404 . S
C3781 H3793 0.930 . S
C3782 C3778 1.524 . S
C3782 H3794 0.956 . S
C3782 H3795 0.961 . S
C3782 H3796 0.961 . S
C3783 C3780 1.539 . S
C3783 H3797 0.958 . S
C3783 H3798 0.961 . S
C3783 H3799 0.960 . S
H3784 C3768 0.931 . S
H3785 C3773 0.929 . S
H3786 C3774 0.960 . S
H3787 C3774 0.962 . S
H3788 C3774 0.960 . S
H3789 C3775 0.961 . S
H3790 C3775 0.961 . S
H3791 C3775 0.961 . S
H3792 C3776 0.931 . S
H3793 C3781 0.930 . S
H3794 C3782 0.956 . S
H3795 C3782 0.961 . S
H3796 C3782 0.961 . S
H3797 C3783 0.958 . S
H3798 C3783 0.961 . S
H3799 C3783 0.960 . S
C3800 C3801 1.391 . S
C3800 C3802 1.394 . S
C3800 H3816 0.931 . S
C3801 C3800 1.391 . S
C3801 C3805 1.376 . S
C3802 C3800 1.394 . S
C3802 C3803 1.369 . S
C3802 C3806 1.531 . S
C3803 C3802 1.369 . S
C3803 C3804 1.410 . S
C3803 C3811 1.503 . S
C3804 C3803 1.410 . S
C3804 C3805 1.392 . S
C3804 C3807 1.511 . S
C3805 C3801 1.376 . S
C3805 C3804 1.392 . S
C3805 H3817 0.929 . S
C3806 C3802 1.531 . S
C3806 H3818 0.960 . S
C3806 H3819 0.962 . S
C3806 H3820 0.960 . S
C3807 C3804 1.511 . S
C3807 H3821 0.961 . S
C3807 H3822 0.961 . S
C3807 H3823 0.961 . S
C3808 C3809 1.370 . S
C3808 C3810 1.363 . S
C3808 H3824 0.931 . S
C3809 C3808 1.370 . S
C3809 C3813 1.408 . S
C3810 C3808 1.363 . S
C3810 C3811 1.370 . S
C3810 C3814 1.524 . S
C3811 C3803 1.503 . S
C3811 C3810 1.370 . S
C3811 C3812 1.403 . S
C3812 C3811 1.403 . S
C3812 C3813 1.404 . S
C3812 C3815 1.539 . S
C3813 C3809 1.408 . S
C3813 C3812 1.404 . S
C3813 H3825 0.930 . S
C3814 C3810 1.524 . S
C3814 H3826 0.956 . S
C3814 H3827 0.961 . S
C3814 H3828 0.961 . S
C3815 C3812 1.539 . S
C3815 H3829 0.958 . S
C3815 H3830 0.961 . S
C3815 H3831 0.960 . S
H3816 C3800 0.931 . S
H3817 C3805 0.929 . S
H3818 C3806 0.960 . S
H3819 C3806 0.962 . S
H3820 C3806 0.960 . S
H3821 C3807 0.961 . S
H3822 C3807 0.961 . S
H3823 C3807 0.961 . S
H3824 C3808 0.931 . S
H3825 C3813 0.930 . S
H3826 C3814 0.956 . S
H3827 C3814 0.961 . S
H3828 C3814 0.961 . S
H3829 C3815 0.958 . S
H3830 C3815 0.961 . S
H3831 C3815 0.960 . S
C3832 C3833 1.391 . S
C3832 C3834 1.394 . S
C3832 H3848 0.931 . S
C3833 C3832 1.391 . S
C3833 C3837 1.376 . S
C3834 C3832 1.394 . S
C3834 C3835 1.369 . S
C3834 C3838 1.531 . S
C3835 C3834 1.369 . S
C3835 C3836 1.410 . S
C3835 C3843 1.503 . S
C3836 C3835 1.410 . S
C3836 C3837 1.392 . S
C3836 C3839 1.511 . S
C3837 C3833 1.376 . S
C3837 C3836 1.392 . S
C3837 H3849 0.929 . S
C3838 C3834 1.531 . S
C3838 H3850 0.960 . S
C3838 H3851 0.962 . S
C3838 H3852 0.960 . S
C3839 C3836 1.511 . S
C3839 H3853 0.961 . S
C3839 H3854 0.961 . S
C3839 H3855 0.961 . S
C3840 C3841 1.370 . S
C3840 C3842 1.363 . S
C3840 H3856 0.931 . S
C3841 C3840 1.370 . S
C3841 C3845 1.408 . S
C3842 C3840 1.363 . S
C3842 C3843 1.370 . S
C3842 C3846 1.524 . S
C3843 C3835 1.503 . S
C3843 C3842 1.370 . S
C3843 C3844 1.403 . S
C3844 C3843 1.403 . S
C3844 C3845 1.404 . S
C3844 C3847 1.539 . S
C3845 C3841 1.408 . S
C3845 C3844 1.404 . S
C3845 H3857 0.930 . S
C3846 C3842 1.524 . S
C3846 H3858 0.956 . S
C3846 H3859 0.961 . S
C3846 H3860 0.961 . S
C3847 C3844 1.539 . S
C3847 H3861 0.958 . S
C3847 H3862 0.961 . S
C3847 H3863 0.960 . S
H3848 C3832 0.931 . S
H3849 C3837 0.929 . S
H3850 C3838 0.960 . S
H3851 C3838 0.962 . S
H3852 C3838 0.960 . S
H3853 C3839 0.961 . S
H3854 C3839 0.961 . S
H3855 C3839 0.961 . S
H3856 C3840 0.931 . S
H3857 C3845 0.930 . S
H3858 C3846 0.956 . S
H3859 C3846 0.961 . S
H3860 C3846 0.961 . S
H3861 C3847 0.958 . S
H3862 C3847 0.961 . S
H3863 C3847 0.960 . S
C3864 C3865 1.391 . S
C3864 C3866 1.394 . S
C3864 H3880 0.931 . S
C3865 C3864 1.391 . S
C3865 C3869 1.376 . S
C3866 C3864 1.394 . S
C3866 C3867 1.369 . S
C3866 C3870 1.531 . S
C3867 C3866 1.369 . S
C3867 C3868 1.410 . S
C3867 C3875 1.503 . S
C3868 C3867 1.410 . S
C3868 C3869 1.392 . S
C3868 C3871 1.511 . S
C3869 C3865 1.376 . S
C3869 C3868 1.392 . S
C3869 H3881 0.929 . S
C3870 C3866 1.531 . S
C3870 H3882 0.960 . S
C3870 H3883 0.962 . S
C3870 H3884 0.960 . S
C3871 C3868 1.511 . S
C3871 H3885 0.961 . S
C3871 H3886 0.961 . S
C3871 H3887 0.961 . S
C3872 C3873 1.370 . S
C3872 C3874 1.363 . S
C3872 H3888 0.931 . S
C3873 C3872 1.370 . S
C3873 C3877 1.408 . S
C3874 C3872 1.363 . S
C3874 C3875 1.370 . S
C3874 C3878 1.524 . S
C3875 C3867 1.503 . S
C3875 C3874 1.370 . S
C3875 C3876 1.403 . S
C3876 C3875 1.403 . S
C3876 C3877 1.404 . S
C3876 C3879 1.539 . S
C3877 C3873 1.408 . S
C3877 C3876 1.404 . S
C3877 H3889 0.930 . S
C3878 C3874 1.524 . S
C3878 H3890 0.956 . S
C3878 H3891 0.961 . S
C3878 H3892 0.961 . S
C3879 C3876 1.539 . S
C3879 H3893 0.958 . S
C3879 H3894 0.961 . S
C3879 H3895 0.960 . S
H3880 C3864 0.931 . S
H3881 C3869 0.929 . S
H3882 C3870 0.960 . S
H3883 C3870 0.962 . S
H3884 C3870 0.960 . S
H3885 C3871 0.961 . S
H3886 C3871 0.961 . S
H3887 C3871 0.961 . S
H3888 C3872 0.931 . S
H3889 C3877 0.930 . S
H3890 C3878 0.956 . S
H3891 C3878 0.961 . S
H3892 C3878 0.961 . S
H3893 C3879 0.958 . S
H3894 C3879 0.961 . S
H3895 C3879 0.960 . S
C3896 C3897 1.391 . S
C3896 C3898 1.394 . S
C3896 H3912 0.931 . S
C3897 C3896 1.391 . S
C3897 C3901 1.376 . S
C3898 C3896 1.394 . S
C3898 C3899 1.369 . S
C3898 C3902 1.531 . S
C3899 C3898 1.369 . S
C3899 C3900 1.410 . S
C3899 C3907 1.503 . S
C3900 C3899 1.410 . S
C3900 C3901 1.392 . S
C3900 C3903 1.511 . S
C3901 C3897 1.376 . S
C3901 C3900 1.392 . S
C3901 H3913 0.929 . S
C3902 C3898 1.531 . S
C3902 H3914 0.960 . S
C3902 H3915 0.962 . S
C3902 H3916 0.960 . S
C3903 C3900 1.511 . S
C3903 H3917 0.961 . S
C3903 H3918 0.961 . S
C3903 H3919 0.961 . S
C3904 C3905 1.370 . S
C3904 C3906 1.363 . S
C3904 H3920 0.931 . S
C3905 C3904 1.370 . S
C3905 C3909 1.408 . S
C3906 C3904 1.363 . S
C3906 C3907 1.370 . S
C3906 C3910 1.524 . S
C3907 C3899 1.503 . S
C3907 C3906 1.370 . S
C3907 C3908 1.403 . S
C3908 C3907 1.403 . S
C3908 C3909 1.404 . S
C3908 C3911 1.539 . S
C3909 C3905 1.408 . S
C3909 C3908 1.404 . S
C3909 H3921 0.930 . S
C3910 C3906 1.524 . S
C3910 H3922 0.956 . S
C3910 H3923 0.961 . S
C3910 H3924 0.961 . S
C3911 C3908 1.539 . S
C3911 H3925 0.958 . S
C3911 H3926 0.961 . S
C3911 H3927 0.960 . S
H3912 C3896 0.931 . S
H3913 C3901 0.929 . S
H3914 C3902 0.960 . S
H3915 C3902 0.962 . S
H3916 C3902 0.960 . S
H3917 C3903 0.961 . S
H3918 C3903 0.961 . S
H3919 C3903 0.961 . S
H3920 C3904 0.931 . S
H3921 C3909 0.930 . S
H3922 C3910 0.956 . S
H3923 C3910 0.961 . S
H3924 C3910 0.961 . S
H3925 C3911 0.958 . S
H3926 C3911 0.961 . S
H3927 C3911 0.960 . S
C3928 C3929 1.391 . S
C3928 C3930 1.394 . S
C3928 H3944 0.931 . S
C3929 C3928 1.391 . S
C3929 C3933 1.376 . S
C3930 C3928 1.394 . S
C3930 C3931 1.369 . S
C3930 C3934 1.531 . S
C3931 C3930 1.369 . S
C3931 C3932 1.410 . S
C3931 C3939 1.503 . S
C3932 C3931 1.410 . S
C3932 C3933 1.392 . S
C3932 C3935 1.511 . S
C3933 C3929 1.376 . S
C3933 C3932 1.392 . S
C3933 H3945 0.929 . S
C3934 C3930 1.531 . S
C3934 H3946 0.960 . S
C3934 H3947 0.962 . S
C3934 H3948 0.960 . S
C3935 C3932 1.511 . S
C3935 H3949 0.961 . S
C3935 H3950 0.961 . S
C3935 H3951 0.961 . S
C3936 C3937 1.370 . S
C3936 C3938 1.363 . S
C3936 H3952 0.931 . S
C3937 C3936 1.370 . S
C3937 C3941 1.408 . S
C3938 C3936 1.363 . S
C3938 C3939 1.370 . S
C3938 C3942 1.524 . S
C3939 C3931 1.503 . S
C3939 C3938 1.370 . S
C3939 C3940 1.403 . S
C3940 C3939 1.403 . S
C3940 C3941 1.404 . S
C3940 C3943 1.539 . S
C3941 C3937 1.408 . S
C3941 C3940 1.404 . S
C3941 H3953 0.930 . S
C3942 C3938 1.524 . S
C3942 H3954 0.956 . S
C3942 H3955 0.961 . S
C3942 H3956 0.961 . S
C3943 C3940 1.539 . S
C3943 H3957 0.958 . S
C3943 H3958 0.961 . S
C3943 H3959 0.960 . S
H3944 C3928 0.931 . S
H3945 C3933 0.929 . S
H3946 C3934 0.960 . S
H3947 C3934 0.962 . S
H3948 C3934 0.960 . S
H3949 C3935 0.961 . S
H3950 C3935 0.961 . S
H3951 C3935 0.961 . S
H3952 C3936 0.931 . S
H3953 C3941 0.930 . S
H3954 C3942 0.956 . S
H3955 C3942 0.961 . S
H3956 C3942 0.961 . S
H3957 C3943 0.958 . S
H3958 C3943 0.961 . S
H3959 C3943 0.960 . S
C3960 C3961 1.391 . S
C3960 C3962 1.394 . S
C3960 H3976 0.931 . S
C3961 C3960 1.391 . S
C3961 C3965 1.376 . S
C3962 C3960 1.394 . S
C3962 C3963 1.369 . S
C3962 C3966 1.531 . S
C3963 C3962 1.369 . S
C3963 C3964 1.410 . S
C3963 C3971 1.503 . S
C3964 C3963 1.410 . S
C3964 C3965 1.392 . S
C3964 C3967 1.511 . S
C3965 C3961 1.376 . S
C3965 C3964 1.392 . S
C3965 H3977 0.929 . S
C3966 C3962 1.531 . S
C3966 H3978 0.960 . S
C3966 H3979 0.962 . S
C3966 H3980 0.960 . S
C3967 C3964 1.511 . S
C3967 H3981 0.961 . S
C3967 H3982 0.961 . S
C3967 H3983 0.961 . S
C3968 C3969 1.370 . S
C3968 C3970 1.363 . S
C3968 H3984 0.931 . S
C3969 C3968 1.370 . S
C3969 C3973 1.408 . S
C3970 C3968 1.363 . S
C3970 C3971 1.370 . S
C3970 C3974 1.524 . S
C3971 C3963 1.503 . S
C3971 C3970 1.370 . S
C3971 C3972 1.403 . S
C3972 C3971 1.403 . S
C3972 C3973 1.404 . S
C3972 C3975 1.539 . S
C3973 C3969 1.408 . S
C3973 C3972 1.404 . S
C3973 H3985 0.930 . S
C3974 C3970 1.524 . S
C3974 H3986 0.956 . S
C3974 H3987 0.961 . S
C3974 H3988 0.961 . S
C3975 C3972 1.539 . S
C3975 H3989 0.958 . S
C3975 H3990 0.961 . S
C3975 H3991 0.960 . S
H3976 C3960 0.931 . S
H3977 C3965 0.929 . S
H3978 C3966 0.960 . S
H3979 C3966 0.962 . S
H3980 C3966 0.960 . S
H3981 C3967 0.961 . S
H3982 C3967 0.961 . S
H3983 C3967 0.961 . S
H3984 C3968 0.931 . S
H3985 C3973 0.930 . S
H3986 C3974 0.956 . S
H3987 C3974 0.961 . S
H3988 C3974 0.961 . S
H3989 C3975 0.958 . S
H3990 C3975 0.961 . S
H3991 C3975 0.960 . S
C3992 C3993 1.391 . S
C3992 C3994 1.394 . S
C3992 H4008 0.931 . S
C3993 C3992 1.391 . S
C3993 C3997 1.376 . S
C3994 C3992 1.394 . S
C3994 C3995 1.369 . S
C3994 C3998 1.531 . S
C3995 C3994 1.369 . S
C3995 C3996 1.410 . S
C3995 C4003 1.503 . S
C3996 C3995 1.410 . S
C3996 C3997 1.392 . S
C3996 C3999 1.511 . S
C3997 C3993 1.376 . S
C3997 C3996 1.392 . S
C3997 H4009 0.929 . S
C3998 C3994 1.531 . S
C3998 H4010 0.960 . S
C3998 H4011 0.962 . S
C3998 H4012 0.960 . S
C3999 C3996 1.511 . S
C3999 H4013 0.961 . S
C3999 H4014 0.961 . S
C3999 H4015 0.961 . S
C4000 C4001 1.370 . S
C4000 C4002 1.363 . S
C4000 H4016 0.931 . S
C4001 C4000 1.370 . S
C4001 C4005 1.408 . S
C4002 C4000 1.363 . S
C4002 C4003 1.370 . S
C4002 C4006 1.524 . S
C4003 C3995 1.503 . S
C4003 C4002 1.370 . S
C4003 C4004 1.403 . S
C4004 C4003 1.403 . S
C4004 C4005 1.404 . S
C4004 C4007 1.539 . S
C4005 C4001 1.408 . S
C4005 C4004 1.404 . S
C4005 H4017 0.930 . S
C4006 C4002 1.524 . S
C4006 H4018 0.956 . S
C4006 H4019 0.961 . S
C4006 H4020 0.961 . S
C4007 C4004 1.539 . S
C4007 H4021 0.958 . S
C4007 H4022 0.961 . S
C4007 H4023 0.960 . S
H4008 C3992 0.931 . S
H4009 C3997 0.929 . S
H4010 C3998 0.960 . S
H4011 C3998 0.962 . S
H4012 C3998 0.960 . S
H4013 C3999 0.961 . S
H4014 C3999 0.961 . S
H4015 C3999 0.961 . S
H4016 C4000 0.931 . S
H4017 C4005 0.930 . S
H4018 C4006 0.956 . S
H4019 C4006 0.961 . S
H4020 C4006 0.961 . S
H4021 C4007 0.958 . S
H4022 C4007 0.961 . S
H4023 C4007 0.960 . S
C4024 C4025 1.391 . S
C4024 C4026 1.394 . S
C4024 H4040 0.931 . S
C4025 C4024 1.391 . S
C4025 C4029 1.376 . S
C4026 C4024 1.394 . S
C4026 C4027 1.369 . S
C4026 C4030 1.531 . S
C4027 C4026 1.369 . S
C4027 C4028 1.410 . S
C4027 C4035 1.503 . S
C4028 C4027 1.410 . S
C4028 C4029 1.392 . S
C4028 C4031 1.511 . S
C4029 C4025 1.376 . S
C4029 C4028 1.392 . S
C4029 H4041 0.929 . S
C4030 C4026 1.531 . S
C4030 H4042 0.960 . S
C4030 H4043 0.962 . S
C4030 H4044 0.960 . S
C4031 C4028 1.511 . S
C4031 H4045 0.961 . S
C4031 H4046 0.961 . S
C4031 H4047 0.961 . S
C4032 C4033 1.370 . S
C4032 C4034 1.363 . S
C4032 H4048 0.931 . S
C4033 C4032 1.370 . S
C4033 C4037 1.408 . S
C4034 C4032 1.363 . S
C4034 C4035 1.370 . S
C4034 C4038 1.524 . S
C4035 C4027 1.503 . S
C4035 C4034 1.370 . S
C4035 C4036 1.403 . S
C4036 C4035 1.403 . S
C4036 C4037 1.404 . S
C4036 C4039 1.539 . S
C4037 C4033 1.408 . S
C4037 C4036 1.404 . S
C4037 H4049 0.930 . S
C4038 C4034 1.524 . S
C4038 H4050 0.956 . S
C4038 H4051 0.961 . S
C4038 H4052 0.961 . S
C4039 C4036 1.539 . S
C4039 H4053 0.958 . S
C4039 H4054 0.961 . S
C4039 H4055 0.960 . S
H4040 C4024 0.931 . S
H4041 C4029 0.929 . S
H4042 C4030 0.960 . S
H4043 C4030 0.962 . S
H4044 C4030 0.960 . S
H4045 C4031 0.961 . S
H4046 C4031 0.961 . S
H4047 C4031 0.961 . S
H4048 C4032 0.931 . S
H4049 C4037 0.930 . S
H4050 C4038 0.956 . S
H4051 C4038 0.961 . S
H4052 C4038 0.961 . S
H4053 C4039 0.958 . S
H4054 C4039 0.961 . S
H4055 C4039 0.960 . S
C4056 C4057 1.391 . S
C4056 C4058 1.394 . S
C4056 H4072 0.931 . S
C4057 C4056 1.391 . S
C4057 C4061 1.376 . S
C4058 C4056 1.394 . S
C4058 C4059 1.369 . S
C4058 C4062 1.531 . S
C4059 C4058 1.369 . S
C4059 C4060 1.410 . S
C4059 C4067 1.503 1_455 S
C4060 C4059 1.410 . S
C4060 C4061 1.392 . S
C4060 C4063 1.511 . S
C4061 C4057 1.376 . S
C4061 C4060 1.392 . S
C4061 H4073 0.929 . S
C4062 C4058 1.531 . S
C4062 H4074 0.960 1_455 S
C4062 H4075 0.962 1_455 S
C4062 H4076 0.960 . S
C4063 C4060 1.511 . S
C4063 H4077 0.961 . S
C4063 H4078 0.961 . S
C4063 H4079 0.961 . S
C4064 C4065 1.370 . S
C4064 C4066 1.363 . S
C4064 H4080 0.931 . S
C4065 C4064 1.370 . S
C4065 C4069 1.408 . S
C4066 C4064 1.363 . S
C4066 C4067 1.370 . S
C4066 C4070 1.524 . S
C4067 C4059 1.503 1_655 S
C4067 C4066 1.370 . S
C4067 C4068 1.403 . S
C4068 C4067 1.403 . S
C4068 C4069 1.404 . S
C4068 C4071 1.539 . S
C4069 C4065 1.408 . S
C4069 C4068 1.404 . S
C4069 H4081 0.930 . S
C4070 C4066 1.524 . S
C4070 H4082 0.956 . S
C4070 H4083 0.961 . S
C4070 H4084 0.961 . S
C4071 C4068 1.539 . S
C4071 H4085 0.958 . S
C4071 H4086 0.961 . S
C4071 H4087 0.960 1_655 S
H4072 C4056 0.931 . S
H4073 C4061 0.929 . S
H4074 C4062 0.960 1_655 S
H4075 C4062 0.962 1_655 S
H4076 C4062 0.960 . S
H4077 C4063 0.961 . S
H4078 C4063 0.961 . S
H4079 C4063 0.961 . S
H4080 C4064 0.931 . S
H4081 C4069 0.930 . S
H4082 C4070 0.956 . S
H4083 C4070 0.961 . S
H4084 C4070 0.961 . S
H4085 C4071 0.958 . S
H4086 C4071 0.961 . S
H4087 C4071 0.960 1_455 S
C4088 C4089 1.391 . S
C4088 C4090 1.394 . S
C4088 H4104 0.931 . S
C4089 C4088 1.391 . S
C4089 C4093 1.376 . S
C4090 C4088 1.394 . S
C4090 C4091 1.369 . S
C4090 C4094 1.531 . S
C4091 C4090 1.369 . S
C4091 C4092 1.410 . S
C4091 C4099 1.503 . S
C4092 C4091 1.410 . S
C4092 C4093 1.392 . S
C4092 C4095 1.511 . S
C4093 C4089 1.376 . S
C4093 C4092 1.392 . S
C4093 H4105 0.929 . S
C4094 C4090 1.531 . S
C4094 H4106 0.960 . S
C4094 H4107 0.962 . S
C4094 H4108 0.960 . S
C4095 C4092 1.511 . S
C4095 H4109 0.961 . S
C4095 H4110 0.961 . S
C4095 H4111 0.961 . S
C4096 C4097 1.370 . S
C4096 C4098 1.363 . S
C4096 H4112 0.931 . S
C4097 C4096 1.370 . S
C4097 C4101 1.408 . S
C4098 C4096 1.363 . S
C4098 C4099 1.370 . S
C4098 C4102 1.524 . S
C4099 C4091 1.503 . S
C4099 C4098 1.370 . S
C4099 C4100 1.403 . S
C4100 C4099 1.403 . S
C4100 C4101 1.404 . S
C4100 C4103 1.539 . S
C4101 C4097 1.408 . S
C4101 C4100 1.404 . S
C4101 H4113 0.930 . S
C4102 C4098 1.524 . S
C4102 H4114 0.956 . S
C4102 H4115 0.961 . S
C4102 H4116 0.961 . S
C4103 C4100 1.539 . S
C4103 H4117 0.958 . S
C4103 H4118 0.961 . S
C4103 H4119 0.960 . S
H4104 C4088 0.931 . S
H4105 C4093 0.929 . S
H4106 C4094 0.960 . S
H4107 C4094 0.962 . S
H4108 C4094 0.960 . S
H4109 C4095 0.961 . S
H4110 C4095 0.961 . S
H4111 C4095 0.961 . S
H4112 C4096 0.931 . S
H4113 C4101 0.930 . S
H4114 C4102 0.956 . S
H4115 C4102 0.961 . S
H4116 C4102 0.961 . S
H4117 C4103 0.958 . S
H4118 C4103 0.961 . S
H4119 C4103 0.960 . S
C4120 C4121 1.391 . S
C4120 C4122 1.394 . S
C4120 H4136 0.931 . S
C4121 C4120 1.391 . S
C4121 C4125 1.376 . S
C4122 C4120 1.394 . S
C4122 C4123 1.369 . S
C4122 C4126 1.531 . S
C4123 C4122 1.369 . S
C4123 C4124 1.410 . S
C4123 C4131 1.503 1_545 S
C4124 C4123 1.410 . S
C4124 C4125 1.392 . S
C4124 C4127 1.511 . S
C4125 C4121 1.376 . S
C4125 C4124 1.392 . S
C4125 H4137 0.929 . S
C4126 C4122 1.531 . S
C4126 H4138 0.960 1_545 S
C4126 H4139 0.962 . S
C4126 H4140 0.960 . S
C4127 C4124 1.511 . S
C4127 H4141 0.961 . S
C4127 H4142 0.961 . S
C4127 H4143 0.961 . S
C4128 C4129 1.370 . S
C4128 C4130 1.363 . S
C4128 H4144 0.931 . S
C4129 C4128 1.370 . S
C4129 C4133 1.408 . S
C4130 C4128 1.363 . S
C4130 C4131 1.370 . S
C4130 C4134 1.524 1_565 S
C4131 C4123 1.503 1_565 S
C4131 C4130 1.370 . S
C4131 C4132 1.403 . S
C4132 C4131 1.403 . S
C4132 C4133 1.404 . S
C4132 C4135 1.539 . S
C4133 C4129 1.408 . S
C4133 C4132 1.404 . S
C4133 H4145 0.930 . S
C4134 C4130 1.524 1_545 S
C4134 H4146 0.956 . S
C4134 H4147 0.961 . S
C4134 H4148 0.961 1_545 S
C4135 C4132 1.539 . S
C4135 H4149 0.958 . S
C4135 H4150 0.961 . S
C4135 H4151 0.960 . S
H4136 C4120 0.931 . S
H4137 C4125 0.929 . S
H4138 C4126 0.960 1_565 S
H4139 C4126 0.962 . S
H4140 C4126 0.960 . S
H4141 C4127 0.961 . S
H4142 C4127 0.961 . S
H4143 C4127 0.961 . S
H4144 C4128 0.931 . S
H4145 C4133 0.930 . S
H4146 C4134 0.956 . S
H4147 C4134 0.961 . S
H4148 C4134 0.961 1_565 S
H4149 C4135 0.958 . S
H4150 C4135 0.961 . S
H4151 C4135 0.960 . S
C4152 C4153 1.391 . S
C4152 C4154 1.394 . S
C4152 H4168 0.931 . S
C4153 C4152 1.391 . S
C4153 C4157 1.376 . S
C4154 C4152 1.394 . S
C4154 C4155 1.369 . S
C4154 C4158 1.531 . S
C4155 C4154 1.369 . S
C4155 C4156 1.410 . S
C4155 C4163 1.503 1_545 S
C4156 C4155 1.410 . S
C4156 C4157 1.392 . S
C4156 C4159 1.511 . S
C4157 C4153 1.376 . S
C4157 C4156 1.392 . S
C4157 H4169 0.929 . S
C4158 C4154 1.531 . S
C4158 H4170 0.960 . S
C4158 H4171 0.962 . S
C4158 H4172 0.960 . S
C4159 C4156 1.511 . S
C4159 H4173 0.961 . S
C4159 H4174 0.961 1_545 S
C4159 H4175 0.961 . S
C4160 C4161 1.370 . S
C4160 C4162 1.363 . S
C4160 H4176 0.931 . S
C4161 C4160 1.370 . S
C4161 C4165 1.408 . S
C4162 C4160 1.363 . S
C4162 C4163 1.370 . S
C4162 C4166 1.524 . S
C4163 C4155 1.503 1_565 S
C4163 C4162 1.370 . S
C4163 C4164 1.403 . S
C4164 C4163 1.403 . S
C4164 C4165 1.404 . S
C4164 C4167 1.544 . S
C4165 C4161 1.408 . S
C4165 C4164 1.404 . S
C4165 H4177 0.930 . S
C4166 C4162 1.524 . S
C4166 H4178 0.956 . S
C4166 H4179 0.961 . S
C4166 H4180 0.961 . S
C4167 C4164 1.544 . S
C4167 H4181 0.958 1_565 S
C4167 H4182 0.961 . S
C4167 H4183 0.955 1_565 S
H4168 C4152 0.931 . S
H4169 C4157 0.929 . S
H4170 C4158 0.960 . S
H4171 C4158 0.962 . S
H4172 C4158 0.960 . S
H4173 C4159 0.961 . S
H4174 C4159 0.961 1_565 S
H4175 C4159 0.961 . S
H4176 C4160 0.931 . S
H4177 C4165 0.930 . S
H4178 C4166 0.956 . S
H4179 C4166 0.961 . S
H4180 C4166 0.961 . S
H4181 C4167 0.958 1_545 S
H4182 C4167 0.961 . S
H4183 C4167 0.955 1_545 S
C4184 C4185 1.391 . S
C4184 C4186 1.394 . S
C4184 H4200 0.931 . S
C4185 C4184 1.391 . S
C4185 C4189 1.376 . S
C4186 C4184 1.394 . S
C4186 C4187 1.369 . S
C4186 C4190 1.531 1_455 S
C4187 C4186 1.369 . S
C4187 C4188 1.410 . S
C4187 C4195 1.503 1_455 S
C4188 C4187 1.410 . S
C4188 C4189 1.392 . S
C4188 C4191 1.511 . S
C4189 C4185 1.376 . S
C4189 C4188 1.392 . S
C4189 H4201 0.929 . S
C4190 C4186 1.531 1_655 S
C4190 H4202 0.960 . S
C4190 H4203 0.962 . S
C4190 H4204 0.960 1_655 S
C4191 C4188 1.511 . S
C4191 H4205 0.961 . S
C4191 H4206 0.961 . S
C4191 H4207 0.961 . S
C4192 C4193 1.370 . S
C4192 C4194 1.363 . S
C4192 H4208 0.931 . S
C4193 C4192 1.370 . S
C4193 C4197 1.408 . S
C4194 C4192 1.363 . S
C4194 C4195 1.370 . S
C4194 C4198 1.524 . S
C4195 C4187 1.503 1_655 S
C4195 C4194 1.370 . S
C4195 C4196 1.403 . S
C4196 C4195 1.403 . S
C4196 C4197 1.404 . S
C4196 C4199 1.539 . S
C4197 C4193 1.408 . S
C4197 C4196 1.404 . S
C4197 H4209 0.930 . S
C4198 C4194 1.524 . S
C4198 H4210 0.956 1_655 S
C4198 H4211 0.961 1_655 S
C4198 H4212 0.961 . S
C4199 C4196 1.539 . S
C4199 H4213 0.958 . S
C4199 H4214 0.961 . S
C4199 H4215 0.960 . S
H4200 C4184 0.931 . S
H4201 C4189 0.929 . S
H4202 C4190 0.960 . S
H4203 C4190 0.962 . S
H4204 C4190 0.960 1_455 S
H4205 C4191 0.961 . S
H4206 C4191 0.961 . S
H4207 C4191 0.961 . S
H4208 C4192 0.931 . S
H4209 C4197 0.930 . S
H4210 C4198 0.956 1_455 S
H4211 C4198 0.961 1_455 S
H4212 C4198 0.961 . S
H4213 C4199 0.958 . S
H4214 C4199 0.961 . S
H4215 C4199 0.960 . S
C4216 C4217 1.391 . S
C4216 C4218 1.394 . S
C4216 H4232 0.931 . S
C4217 C4216 1.391 . S
C4217 C4221 1.376 . S
C4218 C4216 1.394 . S
C4218 C4219 1.369 . S
C4218 C4222 1.531 . S
C4219 C4218 1.369 . S
C4219 C4220 1.410 . S
C4219 C4227 1.503 . S
C4220 C4219 1.410 . S
C4220 C4221 1.392 . S
C4220 C4223 1.511 . S
C4221 C4217 1.376 . S
C4221 C4220 1.392 . S
C4221 H4233 0.929 . S
C4222 C4218 1.531 . S
C4222 H4234 0.960 . S
C4222 H4235 0.962 . S
C4222 H4236 0.960 . S
C4223 C4220 1.511 . S
C4223 H4237 0.961 . S
C4223 H4238 0.961 . S
C4223 H4239 0.961 . S
C4224 C4225 1.370 . S
C4224 C4226 1.363 . S
C4224 H4240 0.931 . S
C4225 C4224 1.370 . S
C4225 C4229 1.408 . S
C4226 C4224 1.363 . S
C4226 C4227 1.370 . S
C4226 C4230 1.524 . S
C4227 C4219 1.503 . S
C4227 C4226 1.370 . S
C4227 C4228 1.403 . S
C4228 C4227 1.403 . S
C4228 C4229 1.404 . S
C4228 C4231 1.539 . S
C4229 C4225 1.408 . S
C4229 C4228 1.404 . S
C4229 H4241 0.930 . S
C4230 C4226 1.524 . S
C4230 H4242 0.956 . S
C4230 H4243 0.961 . S
C4230 H4244 0.961 . S
C4231 C4228 1.539 . S
C4231 H4245 0.958 . S
C4231 H4246 0.961 . S
C4231 H4247 0.960 . S
H4232 C4216 0.931 . S
H4233 C4221 0.929 . S
H4234 C4222 0.960 . S
H4235 C4222 0.962 . S
H4236 C4222 0.960 . S
H4237 C4223 0.961 . S
H4238 C4223 0.961 . S
H4239 C4223 0.961 . S
H4240 C4224 0.931 . S
H4241 C4229 0.930 . S
H4242 C4230 0.956 . S
H4243 C4230 0.961 . S
H4244 C4230 0.961 . S
H4245 C4231 0.958 . S
H4246 C4231 0.961 . S
H4247 C4231 0.960 . S
C793 C5 1.276 . S
C801 C158 1.253 . S
C825 C27 1.291 . S
C833 C180 1.240 . S
C857 C49 1.234 . S
C865 C136 1.239 . S
C889 C71 1.221 . S
C897 C246 1.227 . S
C921 C202 1.275 . S
C929 C93 1.266 . S
C953 C224 1.215 . S
C961 C115 1.245 . S
C985 C26 1.258 . S
C993 C138 1.274 . S
C1017 C160 1.274 . S
C1025 C48 1.222 . S
C1049 C182 1.285 . S
C1057 C4 1.251 . S
C1081 C114 1.204 . S
C1089 C204 1.245 . S
C1113 C226 1.220 . S
C1121 C70 1.227 . S
C1145 C248 1.220 . S
C1153 C92 1.224 . S
C1177 C269 1.280 . S
C1185 C422 1.253 . S
C1209 C291 1.220 . S
C1217 C444 1.224 . S
C1241 C400 1.266 . S
C1249 C313 1.275 . S
C1273 C510 1.255 . S
C1281 C335 1.275 . S
C1305 C466 1.186 . S
C1313 C357 1.252 . S
C1337 C379 1.235 . S
C1345 C488 1.215 . S
C1369 C290 1.187 . S
C1377 C402 1.251 . S
C1401 C312 1.212 . S
C1409 C424 1.270 . S
C1433 C268 1.268 . S
C1441 C446 1.256 . S
C1465 C378 1.189 . S
C1473 C468 1.260 . S
C1497 C490 1.234 . S
C1505 C334 1.244 . S
C1529 C356 1.275 . S
C1537 C512 1.268 . S
C1561 C533 1.222 . S
C1569 C686 1.218 . S
C1593 C708 1.265 . S
C1601 C555 1.259 . S
C1625 C577 1.233 . S
C1633 C664 1.238 . S
C1657 C599 1.221 . S
C1665 C774 1.219 . S
C1689 C730 1.263 . S
C1697 C621 1.275 . S
C1721 C752 1.206 . S
C1729 C643 1.264 . S
C1753 C666 1.226 . S
C1761 C554 1.219 . S
C1785 C688 1.251 . S
C1793 C576 1.251 . S
C1817 C710 1.273 . S
C1825 C532 1.253 . S
C1849 C642 1.274 . S
C1857 C732 1.260 . S
C1881 C598 1.246 . S
C1889 C754 1.275 . S
C1913 C620 1.276 . S
C1921 C776 1.262 . S
C1945 C7 0.996 . S
C1953 C52 0.963 . S
C1977 C29 0.887 . S
C1985 C8 0.939 . S
C2009 C30 0.915 . S
C2017 C51 0.920 . S
C2041 C96 0.897 . S
C2049 C73 0.924 . S
C2073 C95 0.996 . S
C2081 C118 0.963 . S
C2105 C74 0.899 . S
C2113 C117 0.922 . S
C2137 C141 0.969 . S
C2145 C184 0.966 . S
C2169 C163 0.885 . S
C2177 C140 0.930 . S
C2201 C185 0.981 . S
C2209 C162 0.969 . S
C2233 C228 0.988 . S
C2241 C207 0.954 . S
C2265 C229 0.886 . S
C2273 C250 0.929 . S
C2297 C206 0.982 . S
C2305 C251 0.964 . S
C2329 C316 0.998 . S
C2337 C271 0.960 . S
C2361 C293 0.887 . S
C2369 C272 0.931 . S
C2393 C315 0.887 . S
C2401 C294 0.938 . S
C2425 C337 0.996 . S
C2433 C360 0.967 . S
C2457 C382 0.927 . S
C2465 C359 0.950 . S
C2489 C381 0.990 . S
C2497 C338 0.956 . S
C2521 C405 0.885 . S
C2529 C448 0.929 . S
C2553 C427 0.898 . S
C2561 C404 0.929 . S
C2585 C426 0.915 . S
C2593 C449 0.922 . S
C2617 C492 0.923 . S
C2625 C471 0.940 . S
C2649 C493 0.996 . S
C2657 C514 0.969 . S
C2681 C515 0.897 . S
C2689 C470 0.939 . S
C2713 C580 0.963 . S
C2721 C535 0.933 . S
C2745 C557 0.994 . S
C2753 C536 0.960 . S
C2777 C579 0.937 . S
C2785 C558 0.962 . S
C2809 C624 0.991 . S
C2817 C601 0.965 . S
C2841 C623 0.916 . S
C2849 C646 0.955 . S
C2873 C645 0.946 . S
C2881 C602 0.965 . S
C2905 C669 0.915 . S
C2913 C712 0.948 . S
C2937 C691 0.958 . S
C2945 C668 0.963 . S
C2969 C690 0.971 . S
C2977 C713 0.961 . S
C3001 C756 0.897 . S
C3009 C735 0.923 . S
C3033 C778 0.971 . S
C3041 C757 0.960 . S
C3065 C734 0.906 . S
C3073 C779 0.920 . S
C3097 C97 1.456 . S
C3105 C9 1.435 . S
C3129 C119 1.439 . S
C3137 C31 1.438 . S
C3161 C75 1.431 . S
C3169 C53 1.449 . S
C3193 C227 1.432 . S
C3201 C139 1.438 . S
C3225 C249 1.431 . S
C3233 C161 1.450 . S
C3257 C183 1.437 . S
C3265 C205 1.436 . S
C3289 C361 1.422 . S
C3297 C273 1.449 . S
C3321 C383 1.448 . S
C3329 C295 1.444 . S
C3353 C317 1.453 . S
C3361 C339 1.440 . S
C3385 C491 1.493 . S
C3393 C403 1.445 . S
C3417 C425 1.452 . S
C3425 C513 1.488 . S
C3449 C469 1.499 . S
C3457 C447 1.441 . S
C3481 C537 1.433 . S
C3489 C625 1.484 . S
C3513 C647 1.484 . S
C3521 C559 1.437 . S
C3545 C603 1.495 . S
C3553 C581 1.435 . S
C3577 C755 1.429 . S
C3585 C667 1.439 . S
C3609 C777 1.427 . S
C3617 C689 1.450 . S
C3641 C733 1.455 . S
C3649 C711 1.436 . S
C3673 C644 1.304 . S
C3681 C6 1.315 . S
C3705 C28 1.305 . S
C3713 C600 1.316 . S
C3737 C50 1.294 . S
C3745 C622 1.309 . S
C3769 C72 1.304 . S
C3777 C292 1.309 . S
C3801 C94 1.295 . S
C3809 C314 1.310 . S
C3833 C116 1.327 . S
C3841 C270 1.319 . S
C3865 C511 1.323 . S
C3873 C137 1.323 . S
C3897 C467 1.326 . S
C3905 C159 1.323 . S
C3929 C489 1.298 . S
C3937 C181 1.306 . S
C3961 C203 1.316 . S
C3969 C687 1.311 . S
C3993 C225 1.293 . S
C4001 C709 1.309 . S
C4025 C665 1.308 . S
C4033 C247 1.309 . S
C4057 C556 1.303 . S
C4065 C336 1.309 . S
C4089 C578 1.314 . S
C4097 C358 1.312 . S
C4121 C380 1.299 . S
C4129 C534 1.312 . S
C4153 C401 1.309 . S
C4161 C775 1.309 . S
C4185 C731 1.322 . S
C4193 C423 1.322 . S
C4217 C753 1.293 . S
C4225 C445 1.309 . S
