# Generated by pormake.
# Topology dia, (4)-cn, num edge types: 1
# Building blocks:
#     Node 0, Type 0, BuildingBlock: NAHDIM_clean_sbu_0, # of connection points: 4
#     Node 1, Type 0, BuildingBlock: NAHDIM_clean_sbu_0, # of connection points: 4
#     Node 2, Type 0, BuildingBlock: NAHDIM_clean_sbu_0, # of connection points: 4
#     Node 3, Type 0, BuildingBlock: NAHDIM_clean_sbu_0, # of connection points: 4
#     Node 4, Type 0, BuildingBlock: NAHDIM_clean_sbu_0, # of connection points: 4
#     Node 5, Type 0, BuildingBlock: NAHDIM_clean_sbu_0, # of connection points: 4
#     Node 6, Type 0, BuildingBlock: NAHDIM_clean_sbu_0, # of connection points: 4
#     Node 7, Type 0, BuildingBlock: NAHDIM_clean_sbu_0, # of connection points: 4
#     Edge 8, Type (0, 0), BuildingBlock: TEMPAE_clean_linker_10, # of connection points: 2
#     Edge 9, Type (0, 0), BuildingBlock: TEMPAE_clean_linker_10, # of connection points: 2
#     Edge 10, Type (0, 0), BuildingBlock: TEMPAE_clean_linker_10, # of connection points: 2
#     Edge 11, Type (0, 0), BuildingBlock: TEMPAE_clean_linker_10, # of connection points: 2
#     Edge 12, Type (0, 0), BuildingBlock: TEMPAE_clean_linker_10, # of connection points: 2
#     Edge 13, Type (0, 0), BuildingBlock: TEMPAE_clean_linker_10, # of connection points: 2
#     Edge 14, Type (0, 0), BuildingBlock: TEMPAE_clean_linker_10, # of connection points: 2
#     Edge 15, Type (0, 0), BuildingBlock: TEMPAE_clean_linker_10, # of connection points: 2
#     Edge 16, Type (0, 0), BuildingBlock: TEMPAE_clean_linker_10, # of connection points: 2
#     Edge 17, Type (0, 0), BuildingBlock: TEMPAE_clean_linker_10, # of connection points: 2
#     Edge 18, Type (0, 0), BuildingBlock: TEMPAE_clean_linker_10, # of connection points: 2
#     Edge 19, Type (0, 0), BuildingBlock: TEMPAE_clean_linker_10, # of connection points: 2
#     Edge 20, Type (0, 0), BuildingBlock: TEMPAE_clean_linker_10, # of connection points: 2
#     Edge 21, Type (0, 0), BuildingBlock: TEMPAE_clean_linker_10, # of connection points: 2
#     Edge 22, Type (0, 0), BuildingBlock: TEMPAE_clean_linker_10, # of connection points: 2
#     Edge 23, Type (0, 0), BuildingBlock: TEMPAE_clean_linker_10, # of connection points: 2
# Relax obj value: 0.005
# Max RMSD: 0.034
# Mean RMSD: 0.034
data_MOF--net-dia--node1-NAHDIM_clean_sbu_0--edge1-TEMPAE_clean_linker_10
_symmetry_space_group_name_H-M    P1
_symmetry_Int_Tables_number       1
_symmetry_cell_setting            triclinic
loop_
_symmetry_equiv_pos_as_xyz
'x, y, z'
_cell_length_a     37.989252
_cell_length_b     34.443849
_cell_length_c     34.461501
_cell_angle_alpha  88.777875
_cell_angle_beta   93.699426
_cell_angle_gamma 93.719011
loop_
_atom_site_label
_atom_site_type_symbol
_atom_site_fract_x
_atom_site_fract_y
_atom_site_fract_z
_atom_type_partial_charge
C0 C 0.07176 0.15705 0.68061 0.0
O1 O 0.06717 0.11897 0.68331 0.0
O2 O 0.15086 0.10359 0.66442 0.0
Zn3 Zn 0.12212 0.13709 0.62748 0.0
O4 O 0.08821 0.10364 0.59301 0.0
C5 C 0.17995 0.15389 0.57916 0.0
O6 O 0.18223 0.11607 0.58285 0.0
O7 O 0.09439 0.17198 0.65815 0.0
C8 C 0.08144 0.11121 0.55715 0.0
O9 O 0.09701 0.14225 0.54131 0.0
C10 C 0.14873 0.06665 0.66319 0.0
O11 O 0.12647 0.0492 0.63741 0.0
O12 O 0.15565 0.16975 0.59555 0.0
C13 C 0.92939 0.32784 0.83661 0.0
O14 O 0.94106 0.33822 0.87183 0.0
O15 O 0.84165 0.33671 0.8891 0.0
Zn16 Zn 0.8713 0.37199 0.85506 0.0
O17 O 0.90427 0.40905 0.88689 0.0
C18 C 0.81098 0.415 0.83328 0.0
O19 O 0.80486 0.4077 0.86989 0.0
O20 O 0.89984 0.33912 0.82287 0.0
C21 C 0.89579 0.42455 0.91783 0.0
O22 O 0.86414 0.41626 0.9302 0.0
C23 C 0.85301 0.32103 0.92078 0.0
O24 O 0.88627 0.32779 0.93303 0.0
O25 O 0.83849 0.40263 0.81985 0.0
C26 C 0.57723 0.15514 0.1812 0.0
O27 O 0.57115 0.11714 0.18081 0.0
O28 O 0.65663 0.10189 0.16332 0.0
Zn29 Zn 0.62776 0.13668 0.12798 0.0
O30 O 0.59288 0.10458 0.0933 0.0
C31 C 0.68265 0.15398 0.07594 0.0
O32 O 0.68214 0.11581 0.0753 0.0
O33 O 0.60093 0.17076 0.16048 0.0
C34 C 0.58477 0.11368 0.05808 0.0
O35 O 0.59966 0.14546 0.04289 0.0
C36 C 0.65434 0.06503 0.16094 0.0
O37 O 0.63188 0.04843 0.13481 0.0
O38 O 0.6611 0.16991 0.09635 0.0
C39 C 0.93527 0.81876 0.33736 0.0
O40 O 0.94554 0.82511 0.37395 0.0
O41 O 0.8522 0.83176 0.39197 0.0
Zn42 Zn 0.88047 0.86702 0.3563 0.0
O43 O 0.91495 0.90379 0.38667 0.0
C44 C 0.81672 0.90478 0.33271 0.0
O45 O 0.80741 0.89203 0.367 0.0
O46 O 0.90763 0.83393 0.32296 0.0
C47 C 0.90581 0.93548 0.40006 0.0
O48 O 0.87281 0.94458 0.39434 0.0
C49 C 0.85317 0.83511 0.42869 0.0
O50 O 0.87441 0.86229 0.44541 0.0
O51 O 0.84697 0.89766 0.32182 0.0
C52 C 0.07427 0.65001 0.17536 0.0
O53 O 0.06791 0.61205 0.17558 0.0
O54 O 0.1573 0.59914 0.1609 0.0
Zn55 Zn 0.12668 0.6307 0.12407 0.0
O56 O 0.09333 0.59487 0.0916 0.0
C57 C 0.19052 0.67025 0.09814 0.0
O58 O 0.20439 0.65419 0.12999 0.0
O59 O 0.09858 0.66501 0.15506 0.0
C60 C 0.07016 0.6082 0.06755 0.0
O61 O 0.06857 0.64607 0.06342 0.0
C62 C 0.14978 0.56381 0.17015 0.0
O63 O 0.12021 0.54634 0.15565 0.0
O64 O 0.15759 0.66427 0.08946 0.0
C65 C 0.43406 0.3191 0.34331 0.0
O66 O 0.44343 0.32508 0.38018 0.0
O67 O 0.34641 0.32915 0.39294 0.0
Zn68 Zn 0.37741 0.3653 0.36129 0.0
O69 O 0.40992 0.39955 0.39641 0.0
C70 C 0.32211 0.41583 0.34189 0.0
O71 O 0.31948 0.41334 0.37971 0.0
O72 O 0.40632 0.33372 0.32844 0.0
C73 C 0.42187 0.43302 0.38538 0.0
O74 O 0.41232 0.44592 0.35038 0.0
C75 C 0.35406 0.32042 0.42836 0.0
O76 O 0.38377 0.33503 0.44541 0.0
O77 O 0.34585 0.39782 0.32682 0.0
C78 C 0.42929 0.82227 0.84162 0.0
O79 O 0.43749 0.82462 0.87917 0.0
O80 O 0.35045 0.83698 0.89797 0.0
Zn81 Zn 0.37678 0.87309 0.86124 0.0
O82 O 0.41181 0.90979 0.89098 0.0
C83 C 0.31213 0.91072 0.83827 0.0
O84 O 0.30281 0.89835 0.87266 0.0
O85 O 0.40368 0.8408 0.82688 0.0
C86 C 0.40421 0.94319 0.90164 0.0
O87 O 0.37221 0.95459 0.89339 0.0
C88 C 0.34334 0.84707 0.93173 0.0
O89 O 0.35383 0.88212 0.94371 0.0
O90 O 0.34235 0.90341 0.82743 0.0
C91 C 0.56891 0.66043 0.67333 0.0
O92 O 0.56051 0.62304 0.66939 0.0
O93 O 0.65073 0.60715 0.65838 0.0
Zn94 Zn 0.62216 0.64224 0.623 0.0
O95 O 0.58776 0.61106 0.58702 0.0
C96 C 0.68604 0.66549 0.58557 0.0
O97 O 0.69558 0.63186 0.59994 0.0
O98 O 0.59493 0.67576 0.65582 0.0
C99 C 0.59802 0.59056 0.56019 0.0
O100 O 0.63204 0.58949 0.55583 0.0
C101 C 0.64313 0.57106 0.6639 0.0
O102 O 0.61433 0.55471 0.64645 0.0
O103 O 0.65546 0.67623 0.59152 0.0
C104 C 0.2978 0.27881 0.4317 0.0
C105 C 0.3292 0.29485 0.45029 0.0
C106 C 0.27359 0.25525 0.45223 0.0
C107 C 0.2809 0.24759 0.49235 0.0
C108 C 0.31265 0.26342 0.51125 0.0
C109 C 0.33645 0.28683 0.48998 0.0
C110 C 0.24004 0.2388 0.43105 0.0
C111 C 0.3213 0.25591 0.55403 0.0
C112 C 0.20355 0.21828 0.55347 0.0
C113 C 0.20562 0.1778 0.55671 0.0
C114 C 0.22795 0.24133 0.53269 0.0
C115 C 0.25503 0.22349 0.51465 0.0
C116 C 0.25724 0.18267 0.51771 0.0
C117 C 0.23251 0.1603 0.53872 0.0
C118 C 0.22475 0.28481 0.53005 0.0
C119 C 0.28573 0.16263 0.49878 0.0
H120 H 0.29198 0.28479 0.40103 0.0
H121 H 0.36063 0.29909 0.50458 0.0
H122 H 0.23818 0.2066 0.4339 0.0
H123 H 0.21673 0.24948 0.44432 0.0
H124 H 0.23862 0.24693 0.39964 0.0
H125 H 0.34734 0.26987 0.56424 0.0
H126 H 0.30061 0.26714 0.5713 0.0
H127 H 0.32153 0.22415 0.56003 0.0
H128 H 0.18288 0.23205 0.56729 0.0
H129 H 0.23432 0.12906 0.54106 0.0
H130 H 0.22106 0.29421 0.49914 0.0
H131 H 0.24946 0.30011 0.54226 0.0
H132 H 0.20227 0.29417 0.54587 0.0
H133 H 0.28388 0.16846 0.46695 0.0
H134 H 0.28384 0.13063 0.50395 0.0
H135 H 0.31217 0.17442 0.51014 0.0
C136 C 0.66024 0.50737 0.69351 0.0
C137 C 0.66718 0.54765 0.68896 0.0
C138 C 0.68325 0.48488 0.71666 0.0
C139 C 0.71384 0.50314 0.73578 0.0
C140 C 0.72093 0.54379 0.73141 0.0
C141 C 0.69756 0.56553 0.70803 0.0
C142 C 0.67489 0.44157 0.72059 0.0
C143 C 0.75323 0.56432 0.75145 0.0
C144 C 0.75708 0.453 0.82394 0.0
C145 C 0.78602 0.43721 0.80814 0.0
C146 C 0.73326 0.4743 0.80066 0.0
C147 C 0.73842 0.47984 0.76057 0.0
C148 C 0.76741 0.46375 0.74435 0.0
C149 C 0.79093 0.4427 0.76835 0.0
C150 C 0.70274 0.49117 0.81904 0.0
C151 C 0.77368 0.46895 0.70167 0.0
H152 H 0.63689 0.4933 0.67883 0.0
H153 H 0.70317 0.59664 0.70469 0.0
H154 H 0.69691 0.42562 0.7104 0.0
H155 H 0.6722 0.43336 0.75162 0.0
H156 H 0.65011 0.4318 0.7037 0.0
H157 H 0.75489 0.59613 0.74512 0.0
H158 H 0.75289 0.55966 0.78338 0.0
H159 H 0.7775 0.55196 0.74206 0.0
H160 H 0.75307 0.44893 0.85466 0.0
H161 H 0.81316 0.43051 0.75588 0.0
H162 H 0.67735 0.4802 0.80424 0.0
H163 H 0.70449 0.52331 0.81543 0.0
H164 H 0.70219 0.48382 0.85055 0.0
H165 H 0.75011 0.45746 0.6838 0.0
H166 H 0.79705 0.45394 0.69342 0.0
H167 H 0.77777 0.50036 0.6943 0.0
C168 C 0.53958 0.05759 0.05217 0.0
C169 C 0.55857 0.08879 0.03461 0.0
C170 C 0.51445 0.03394 0.03044 0.0
C171 C 0.50834 0.04146 0.99012 0.0
C172 C 0.52755 0.07274 0.97215 0.0
C173 C 0.55235 0.09613 0.99464 0.0
C174 C 0.49431 0.00101 0.05069 0.0
C175 C 0.52193 0.08145 0.92914 0.0
C176 C 0.46626 0.95877 0.92833 0.0
C177 C 0.43095 0.96861 0.92378 0.0
C178 C 0.49181 0.98245 0.94948 0.0
C179 C 0.48175 0.01661 0.96679 0.0
C180 C 0.44617 0.02674 0.96227 0.0
C181 C 0.42123 0.00271 0.94067 0.0
C182 C 0.52956 0.97086 0.95341 0.0
C183 C 0.43439 0.06278 0.98057 0.0
H184 H 0.54415 0.05175 0.08306 0.0
H185 H 0.56698 0.12008 0.98082 0.0
H186 H 0.46551 0.0049 0.04699 0.0
H187 H 0.49898 0.97292 0.03736 0.0
H188 H 0.50205 0.99917 0.08229 0.0
H189 H 0.53928 0.10656 0.91953 0.0
H190 H 0.52721 0.0556 0.91227 0.0
H191 H 0.494 0.08788 0.92194 0.0
H192 H 0.47403 0.93255 0.91525 0.0
H193 H 0.39399 0.01048 0.93739 0.0
H194 H 0.53779 0.96615 0.98454 0.0
H195 H 0.54745 0.99464 0.94216 0.0
H196 H 0.53323 0.94388 0.93746 0.0
H197 H 0.4397 0.06112 0.01258 0.0
H198 H 0.40579 0.06667 0.97414 0.0
H199 H 0.44969 0.08893 0.96988 0.0
C200 C 0.94357 0.78561 0.27489 0.0
C201 C 0.95559 0.7942 0.3133 0.0
C202 C 0.96251 0.76224 0.25187 0.0
C203 C 0.99428 0.74719 0.2676 0.0
C204 C 0.00661 0.75583 0.30629 0.0
C205 C 0.9871 0.77918 0.32869 0.0
C206 C 0.94849 0.75357 0.21075 0.0
C207 C 0.04044 0.74039 0.32403 0.0
C208 C 0.0272 0.65822 0.22158 0.0
C209 C 0.05361 0.67492 0.19867 0.0
C210 C 0.00762 0.68141 0.24406 0.0
C211 C 0.01459 0.72229 0.24362 0.0
C212 C 0.0411 0.73935 0.22046 0.0
C213 C 0.06029 0.71547 0.19827 0.0
C214 C 0.97954 0.66216 0.2684 0.0
C215 C 0.04927 0.78285 0.21924 0.0
H216 H 0.91924 0.79705 0.26276 0.0
H217 H 0.99663 0.7857 0.3583 0.0
H218 H 0.96832 0.76391 0.18998 0.0
H219 H 0.94381 0.72169 0.20715 0.0
H220 H 0.9234 0.76755 0.20286 0.0
H221 H 0.04649 0.74994 0.35445 0.0
H222 H 0.0385 0.70811 0.32378 0.0
H223 H 0.06288 0.75037 0.30647 0.0
H224 H 0.02184 0.62693 0.22207 0.0
H225 H 0.08062 0.72864 0.18063 0.0
H226 H 0.95353 0.67378 0.25987 0.0
H227 H 0.98573 0.66894 0.29952 0.0
H228 H 0.97718 0.63005 0.2653 0.0
H229 H 0.0252 0.79777 0.2093 0.0
H230 H 0.07055 0.79156 0.19956 0.0
H231 H 0.05753 0.79333 0.24887 0.0
C232 C 0.25526 0.94295 0.82557 0.0
C233 C 0.28786 0.93336 0.81271 0.0
C234 C 0.23203 0.96454 0.8018 0.0
C235 C 0.2416 0.97677 0.76424 0.0
C236 C 0.2744 0.96713 0.75102 0.0
C237 C 0.29716 0.94557 0.77543 0.0
C238 C 0.19729 0.97435 0.81691 0.0
C239 C 0.28546 0.97963 0.71109 0.0
C240 C 0.1693 0.00284 0.68869 0.0
C241 C 0.17193 0.04363 0.68966 0.0
C242 C 0.19168 0.9807 0.71297 0.0
C243 C 0.21733 -0.00019 0.73878 0.0
C244 C 0.21997 0.04094 0.7401 0.0
C245 C 0.19722 0.06236 0.71556 0.0
C246 C 0.18804 0.93686 0.71084 0.0
C247 C 0.24701 0.06234 0.76727 0.0
H248 H 0.24786 0.93368 0.85433 0.0
H249 H 0.32227 0.93827 0.76524 0.0
H250 H 0.19567 0.00639 0.81721 0.0
H251 H 0.17503 0.96249 0.79733 0.0
H252 H 0.19377 0.96256 0.84676 0.0
H253 H 0.31177 0.96962 0.70513 0.0
H254 H 0.26571 0.96787 0.68853 0.0
H255 H 0.28643 0.01182 0.70821 0.0
H256 H 0.14982 0.98812 0.66882 0.0
H257 H 0.19946 0.09386 0.7165 0.0
H258 H 0.18262 0.92407 0.73983 0.0
H259 H 0.2132 0.92573 0.70247 0.0
H260 H 0.16649 0.92647 0.68951 0.0
H261 H 0.24319 0.05287 0.79777 0.0
H262 H 0.24539 0.0944 0.76505 0.0
H263 H 0.27401 0.05517 0.76063 0.0
C264 C 0.91269 0.46752 0.97464 0.0
C265 C 0.9214 0.45158 0.93965 0.0
C266 C 0.93674 0.49311 0.99561 0.0
C267 C 0.97026 0.50311 0.98119 0.0
C268 C 0.9792 0.48719 0.94587 0.0
C269 C 0.9547 0.46158 0.92556 0.0
C270 C 0.9263 0.5094 0.03325 0.0
C271 C 0.01466 0.49723 0.92953 0.0
C272 C 0.02049 0.59585 0.01704 0.0
C273 C 0.04487 0.58133 0.04513 0.0
C274 C 0.99614 0.57072 0.99592 0.0
C275 C 0.99606 0.5301 0.00316 0.0
C276 C 0.02059 0.51524 0.03143 0.0
C277 C 0.04474 0.54101 0.05202 0.0
C278 C 0.97046 0.58762 0.96587 0.0
C279 C 0.02125 0.47211 0.04006 0.0
H280 H 0.88706 0.45993 0.98578 0.0
H281 H 0.96167 0.44944 0.89854 0.0
H282 H 0.94524 0.50127 0.05747 0.0
H283 H 0.92746 0.54165 0.03133 0.0
H284 H 0.89925 0.49873 0.0405 0.0
H285 H 0.01744 0.48256 0.90159 0.0
H286 H 0.0184 0.52914 0.9247 0.0
H287 H 0.03617 0.48866 0.95067 0.0
H288 H 0.02042 0.62694 0.01149 0.0
H289 H 0.06342 0.52951 0.07372 0.0
H290 H 0.94293 0.57967 0.97338 0.0
H291 H 0.97376 0.57523 0.93697 0.0
H292 H 0.97412 0.61983 0.96352 0.0
H293 H 0.99521 0.46067 0.04973 0.0
H294 H 0.04199 0.46524 0.06294 0.0
H295 H 0.02604 0.45648 0.01327 0.0
C296 C 0.48682 0.28074 0.3355 0.0
C297 C 0.45538 0.29543 0.3195 0.0
C298 C 0.50718 0.25807 0.31336 0.0
C299 C 0.49578 0.24982 0.27432 0.0
C300 C 0.46412 0.26461 0.25796 0.0
C301 C 0.44433 0.28729 0.28072 0.0
C302 C 0.54087 0.24289 0.33176 0.0
C303 C 0.45109 0.25635 0.21644 0.0
C304 C 0.56314 0.21993 0.20571 0.0
C305 C 0.55658 0.17937 0.20522 0.0
C306 C 0.54361 0.24321 0.22816 0.0
C307 C 0.51688 0.22552 0.25062 0.0
C308 C 0.51017 0.18462 0.25034 0.0
C309 C 0.53011 0.16203 0.22765 0.0
C310 C 0.55154 0.28675 0.22777 0.0
C311 C 0.48185 0.16473 0.27392 0.0
H312 H 0.4956 0.28693 0.36541 0.0
H313 H 0.42006 0.29849 0.26812 0.0
H314 H 0.53926 0.21062 0.33121 0.0
H315 H 0.56361 0.25332 0.31486 0.0
H316 H 0.54621 0.25219 0.36236 0.0
H317 H 0.42601 0.27014 0.20804 0.0
H318 H 0.47134 0.26717 0.19634 0.0
H319 H 0.44677 0.22449 0.21238 0.0
H320 H 0.58355 0.23358 0.18848 0.0
H321 H 0.52486 0.13073 0.22746 0.0
H322 H 0.5589 0.29686 0.25773 0.0
H323 H 0.52759 0.30159 0.21724 0.0
H324 H 0.57334 0.29594 0.20894 0.0
H325 H 0.48732 0.17138 0.30517 0.0
H326 H 0.48001 0.13263 0.27063 0.0
H327 H 0.45579 0.17593 0.26482 0.0
C328 C 0.82928 0.81422 0.49244 0.0
C329 C 0.8294 0.80966 0.45209 0.0
C330 C 0.80619 0.79098 0.51475 0.0
C331 C 0.78269 0.76251 0.49627 0.0
C332 C 0.78282 0.7576 0.45562 0.0
C333 C 0.80616 0.78123 0.43402 0.0
C334 C 0.80682 0.79702 0.55807 0.0
C335 C 0.75817 0.72749 0.4349 0.0
C336 C 0.74463 0.67867 0.55708 0.0
C337 C 0.71071 0.69047 0.56281 0.0
C338 C 0.76837 0.70191 0.53562 0.0
C339 C 0.75794 0.73781 0.51946 0.0
C340 C 0.72377 0.74995 0.52515 0.0
C341 C 0.70056 0.72614 0.54678 0.0
C342 C 0.80459 0.688 0.53016 0.0
C343 C 0.71172 0.78806 0.5083 0.0
H344 H 0.84711 0.83612 0.50665 0.0
H345 H 0.80603 0.7775 0.40286 0.0
H346 H 0.78045 0.80492 0.5662 0.0
H347 H 0.8127 0.76958 0.57391 0.0
H348 H 0.82682 0.82025 0.56802 0.0
H349 H 0.7617 0.72721 0.40315 0.0
H350 H 0.76273 0.69812 0.44729 0.0
H351 H 0.73033 0.73326 0.43932 0.0
H352 H 0.75273 0.65118 0.56938 0.0
H353 H 0.67441 0.73549 0.55107 0.0
H354 H 0.82526 0.70965 0.54184 0.0
H355 H 0.80837 0.68517 0.49871 0.0
H356 H 0.8087 0.65948 0.54486 0.0
H357 H 0.72982 0.81249 0.51937 0.0
H358 H 0.6844 0.7934 0.51559 0.0
H359 H 0.71268 0.78827 0.47619 0.0
C360 C 0.16714 0.50308 0.20567 0.0
C361 C 0.17463 0.54244 0.19625 0.0
C362 C 0.19087 0.48237 0.22972 0.0
C363 C 0.22282 0.5015 0.24473 0.0
C364 C 0.23042 0.54128 0.23558 0.0
C365 C 0.20625 0.56126 0.21145 0.0
C366 C 0.18189 0.43994 0.23885 0.0
C367 C 0.2642 0.56268 0.25109 0.0
C368 C 0.27058 0.45766 0.33377 0.0
C369 C 0.29711 0.43832 0.3171 0.0
C370 C 0.24624 0.47839 0.31057 0.0
C371 C 0.24849 0.4798 0.26972 0.0
C372 C 0.27531 0.46052 0.25271 0.0
C373 C 0.29931 0.44003 0.2766 0.0
C374 C 0.21804 0.49868 0.32974 0.0
C375 C 0.27855 0.4614 0.20925 0.0
H376 H 0.14278 0.48831 0.19406 0.0
H377 H 0.21228 0.59168 0.20436 0.0
H378 H 0.20244 0.42195 0.22842 0.0
H379 H 0.18159 0.43521 0.27078 0.0
H380 H 0.15579 0.42946 0.22523 0.0
H381 H 0.26595 0.59374 0.24162 0.0
H382 H 0.2661 0.56123 0.28335 0.0
H383 H 0.28734 0.54855 0.24105 0.0
H384 H 0.26868 0.45651 0.36502 0.0
H385 H 0.31972 0.42517 0.26346 0.0
H386 H 0.19147 0.48714 0.3185 0.0
H387 H 0.22016 0.53025 0.32251 0.0
H388 H 0.21999 0.49493 0.36189 0.0
H389 H 0.25379 0.44878 0.19438 0.0
H390 H 0.30094 0.44499 0.20061 0.0
H391 H 0.2824 0.49193 0.19865 0.0
C392 C 0.79389 0.28659 0.929 0.0
C393 C 0.82867 0.29582 0.94371 0.0
C394 C 0.77033 0.26305 0.95037 0.0
C395 C 0.78174 0.24852 0.98747 0.0
C396 C 0.81681 0.25762 0.0025 0.0
C397 C 0.83991 0.28109 0.98038 0.0
C398 C 0.73318 0.25382 0.9333 0.0
C399 C 0.82984 0.24278 0.04205 0.0
C400 C 0.71086 0.21872 0.05701 0.0
C401 C 0.70813 0.17811 0.05345 0.0
C402 C 0.73499 0.24194 0.03602 0.0
C403 C 0.75677 0.22415 0.01068 0.0
C404 C 0.75418 0.1832 0.00697 0.0
C405 C 0.72995 0.16065 0.02848 0.0
C406 C 0.7371 0.28552 0.04085 0.0
C407 C 0.77682 0.16323 0.98004 0.0
H408 H 0.78498 0.29775 0.90065 0.0
H409 H 0.8667 0.28812 0.99198 0.0
H410 H 0.72777 0.22185 0.93147 0.0
H411 H 0.71383 0.26481 0.95249 0.0
H412 H 0.72864 0.26689 0.90379 0.0
H413 H 0.85794 0.25228 0.04944 0.0
H414 H 0.81348 0.25334 0.06468 0.0
H415 H 0.82708 0.21052 0.04309 0.0
H416 H 0.69419 0.23245 0.07633 0.0
H417 H 0.72799 0.12931 0.02553 0.0
H418 H 0.73051 0.30007 0.01253 0.0
H419 H 0.76446 0.29593 0.05046 0.0
H420 H 0.71885 0.29473 0.06234 0.0
H421 H 0.77158 0.17391 0.94975 0.0
H422 H 0.77186 0.13109 0.98078 0.0
H423 H 0.8052 0.1704 0.98814 0.0
C424 C 0.80193 0.94063 0.27041 0.0
C425 C 0.79248 0.92773 0.30743 0.0
C426 C 0.77927 0.96265 0.24634 0.0
C427 C 0.74644 0.97205 0.25966 0.0
C428 C 0.7367 0.95904 0.29693 0.0
C429 C 0.75982 0.937 0.32035 0.0
C430 C 0.79053 0.97599 0.20673 0.0
C431 C 0.70191 0.96856 0.31213 0.0
C432 C 0.70275 0.05908 0.21312 0.0
C433 C 0.67743 0.04118 0.18669 0.0
C434 C 0.7253 0.03691 0.23713 0.0
C435 C 0.72242 0.99585 0.23472 0.0
C436 C 0.69676 0.97756 0.20834 0.0
C437 C 0.67458 0.00045 0.18461 0.0
C438 C 0.75236 0.05744 0.26492 0.0
C439 C 0.69286 0.93382 0.20506 0.0
H440 H 0.82709 0.93356 0.26017 0.0
H441 H 0.7523 0.92718 0.34892 0.0
H442 H 0.77074 0.96495 0.18385 0.0
H443 H 0.79177 0.00823 0.20463 0.0
H444 H 0.81675 0.9659 0.20056 0.0
H445 H 0.69815 0.95595 0.34163 0.0
H446 H 0.70045 0.00058 0.31333 0.0
H447 H 0.6797 0.95737 0.29211 0.0
H448 H 0.70517 0.09053 0.21492 0.0
H449 H 0.65506 0.98637 0.16433 0.0
H450 H 0.77934 0.05025 0.25821 0.0
H451 H 0.74834 0.04727 0.29516 0.0
H452 H 0.75099 0.08956 0.26348 0.0
H453 H 0.71798 0.92277 0.19652 0.0
H454 H 0.67135 0.92411 0.18338 0.0
H455 H 0.68721 0.92032 0.2337 0.0
C456 C 0.92132 0.99523 0.43922 0.0
C457 C 0.93191 0.96146 0.42246 0.0
C458 C 0.94566 0.01992 0.46085 0.0
C459 C 0.98146 0.01069 0.46573 0.0
C460 C 0.99238 0.97679 0.4487 0.0
C461 C 0.96746 0.95253 0.42733 0.0
C462 C 0.93301 0.05577 0.4787 0.0
C463 C 0.03037 0.96606 0.45317 0.0
C464 C 0.05028 0.09202 0.49351 0.0
C465 C 0.05609 0.08536 0.53365 0.0
C466 C 0.02622 0.0678 0.47099 0.0
C467 C 0.00741 0.0363 0.48907 0.0
C468 C 0.01319 0.02938 0.52954 0.0
C469 C 0.03751 0.05393 0.55132 0.0
C470 C 0.02087 0.07595 0.42785 0.0
C471 C 0.99353 0.99616 0.54988 0.0
H472 H 0.89392 0.00235 0.43564 0.0
H473 H 0.97589 0.92653 0.41443 0.0
H474 H 0.93811 0.05447 0.51075 0.0
H475 H 0.94792 0.08215 0.46792 0.0
H476 H 0.90434 0.05896 0.47197 0.0
H477 H 0.03467 0.93901 0.43763 0.0
H478 H 0.04795 0.99006 0.44181 0.0
H479 H 0.03843 0.96188 0.48442 0.0
H480 H 0.06459 0.11616 0.4796 0.0
H481 H 0.04181 0.04857 0.58232 0.0
H482 H 0.99284 0.08169 0.42024 0.0
H483 H 0.02682 0.05009 0.41137 0.0
H484 H 0.03787 0.10132 0.41816 0.0
H485 H 0.96464 0.99938 0.54597 0.0
H486 H 0.00114 0.99466 0.58152 0.0
H487 H 0.9988 0.96813 0.53678 0.0
C488 C 0.98319 0.29128 0.8285 0.0
C489 C 0.95029 0.30306 0.81344 0.0
C490 C 0.00322 0.26761 0.80704 0.0
C491 C 0.99002 0.25536 0.76964 0.0
C492 C 0.95687 0.26716 0.75422 0.0
C493 C 0.93741 0.29089 0.77629 0.0
C494 C 0.03848 0.25565 0.82443 0.0
C495 C 0.94193 0.25464 0.71444 0.0
C496 C 0.05528 0.22287 0.69984 0.0
C497 C 0.05082 0.18221 0.70333 0.0
C498 C 0.0356 0.24703 0.72119 0.0
C499 C 0.0109 0.23013 0.74666 0.0
C500 C 0.00626 0.18913 0.75032 0.0
C501 C 0.02626 0.16566 0.7286 0.0
C502 C 0.04127 0.29064 0.71652 0.0
C503 C 0.98018 0.17006 0.77723 0.0
H504 H 0.99337 0.30055 0.85715 0.0
H505 H 0.91201 0.29981 0.76443 0.0
H506 H 0.03837 0.22346 0.82661 0.0
H507 H 0.05974 0.26565 0.80524 0.0
H508 H 0.04504 0.26775 0.85383 0.0
H509 H 0.91581 0.26639 0.70662 0.0
H510 H 0.96044 0.26458 0.69211 0.0
H511 H 0.93895 0.22241 0.71337 0.0
H512 H 0.07417 0.23592 0.68038 0.0
H513 H 0.02264 0.13429 0.73149 0.0
H514 H 0.04989 0.30372 0.74499 0.0
H515 H 0.01605 0.30325 0.70648 0.0
H516 H 0.0614 0.29917 0.69541 0.0
H517 H 0.98701 0.17955 0.8075 0.0
H518 H 0.97963 0.13779 0.77665 0.0
H519 H 0.95323 0.17926 0.76894 0.0
C520 C 0.55817 0.72386 0.70337 0.0
C521 C 0.54838 0.68427 0.69788 0.0
C522 C 0.539 0.74669 0.72667 0.0
C523 C 0.50928 0.72957 0.74485 0.0
C524 C 0.49921 0.68967 0.73937 0.0
C525 C 0.5189 0.6675 0.71599 0.0
C526 C 0.55058 0.78914 0.73191 0.0
C527 C 0.46762 0.67041 0.75822 0.0
C528 C 0.47835 0.77866 0.83312 0.0
C529 C 0.4497 0.79852 0.81685 0.0
C530 C 0.49799 0.75614 0.81002 0.0
C531 C 0.48874 0.75338 0.76967 0.0
C532 C 0.45985 0.77331 0.75305 0.0
C533 C 0.44069 0.79566 0.77683 0.0
C534 C 0.52865 0.73531 0.82877 0.0
C535 C 0.44917 0.77101 0.71014 0.0
H536 H 0.58093 0.73706 0.68953 0.0
H537 H 0.51111 0.63696 0.71189 0.0
H538 H 0.52882 0.80755 0.72168 0.0
H539 H 0.5567 0.79511 0.76321 0.0
H540 H 0.57427 0.79802 0.71578 0.0
H541 H 0.4632 0.63914 0.75093 0.0
H542 H 0.47132 0.67287 0.79029 0.0
H543 H 0.44348 0.68543 0.74876 0.0
H544 H 0.48553 0.78071 0.864 0.0
H545 H 0.41859 0.81089 0.76399 0.0
H546 H 0.55337 0.74511 0.81498 0.0
H547 H 0.52429 0.70354 0.82419 0.0
H548 H 0.53247 0.7405 0.86052 0.0
H549 H 0.47158 0.78188 0.69293 0.0
H550 H 0.42605 0.78822 0.70176 0.0
H551 H 0.44254 0.74027 0.70207 0.0
C552 C 0.19794 0.71652 0.04171 0.0
C553 C 0.21304 0.69535 0.07305 0.0
C554 C 0.21906 0.74099 0.0183 0.0
C555 C 0.25617 0.74411 0.02626 0.0
C556 C 0.27159 0.7225 0.05757 0.0
C557 C 0.24984 0.6985 0.08067 0.0
C558 C 0.20166 0.76379 0.98529 0.0
C559 C 0.31108 0.72486 0.06678 0.0
C560 C 0.31372 0.78164 0.94564 0.0
C561 C 0.3217 0.82045 0.95631 0.0
C562 C 0.29258 0.75638 0.96826 0.0
C563 C 0.27885 0.77039 0.00215 0.0
C564 C 0.28684 0.80951 0.01309 0.0
C565 C 0.30831 0.83402 0.99014 0.0
C566 C 0.2849 0.71473 0.95589 0.0
C567 C 0.27248 0.82556 0.04891 0.0
H568 H 0.16954 0.71431 0.03567 0.0
H569 H 0.26176 0.68213 0.10473 0.0
H570 H 0.20765 0.79541 0.98964 0.0
H571 H 0.21241 0.75645 0.95738 0.0
H572 H 0.1725 0.75794 0.9828 0.0
H573 H 0.31897 0.70554 0.09162 0.0
H574 H 0.32479 0.71669 0.04097 0.0
H575 H 0.32046 0.7552 0.0739 0.0
H576 H 0.32405 0.7709 0.9196 0.0
H577 H 0.31422 0.86401 0.99851 0.0
H578 H 0.25599 0.70855 0.95062 0.0
H579 H 0.29403 0.69463 0.97947 0.0
H580 H 0.29796 0.70827 0.92904 0.0
H581 H 0.24317 0.82258 0.04657 0.0
H582 H 0.28103 0.8567 0.0533 0.0
H583 H 0.28142 0.80865 0.07506 0.0
C584 C 0.46037 0.441 0.4468 0.0
C585 C 0.44698 0.45668 0.41135 0.0
C586 C 0.48478 0.46274 0.47129 0.0
C587 C 0.49594 0.50116 0.4602 0.0
C588 C 0.48229 0.5173 0.42466 0.0
C589 C 0.45805 0.49482 0.4006 0.0
C590 C 0.49885 0.44448 0.50891 0.0
C591 C 0.49342 0.55826 0.41197 0.0
C592 C 0.53556 0.56922 0.53906 0.0
C593 C 0.5719 0.56787 0.53447 0.0
C594 C 0.51054 0.54778 0.515 0.0
C595 C 0.52212 0.52436 0.48568 0.0
C596 C 0.55874 0.52289 0.48085 0.0
C597 C 0.58319 0.54468 0.50528 0.0
C598 C 0.47171 0.55013 0.52098 0.0
C599 C 0.57209 0.49817 0.44993 0.0
H600 H 0.45202 0.41152 0.45531 0.0
H601 H 0.44777 0.5072 0.37333 0.0
H602 H 0.52802 0.44371 0.50909 0.0
H603 H 0.49297 0.46231 0.53385 0.0
H604 H 0.48734 0.41437 0.51341 0.0
H605 H 0.47995 0.56671 0.38377 0.0
H606 H 0.48742 0.57915 0.43433 0.0
H607 H 0.52239 0.56104 0.40909 0.0
H608 H 0.52658 0.58706 0.56153 0.0
H609 H 0.61119 0.54344 0.50152 0.0
H610 H 0.4597 0.52078 0.52788 0.0
H611 H 0.45778 0.56053 0.49382 0.0
H612 H 0.46704 0.56997 0.54486 0.0
H613 H 0.56303 0.46725 0.45458 0.0
H614 H 0.60139 0.50029 0.44989 0.0
H615 H 0.56103 0.50725 0.42081 0.0
loop_
_geom_bond_atom_site_label_1
_geom_bond_atom_site_label_2
_geom_bond_distance
_geom_bond_site_symmetry_2
_ccdc_geom_bond_type
C0 O1 1.160 . S
C0 O7 1.185 . S
O1 C0 1.160 . S
O2 Zn3 1.899 . S
O2 C10 1.284 . S
Zn3 O2 1.899 . S
Zn3 O4 2.032 . S
Zn3 O7 2.086 . S
Zn3 O12 1.977 . S
O4 Zn3 2.032 . S
O4 C8 1.278 . S
C5 O6 1.203 . S
C5 O12 1.267 . S
O6 C5 1.203 . S
O7 C0 1.185 . S
O7 Zn3 2.086 . S
C8 O4 1.278 . S
C8 O9 1.211 . S
O9 C8 1.211 . S
C10 O2 1.284 . S
C10 O11 1.273 . S
O11 C10 1.273 . S
O12 Zn3 1.977 . S
O12 C5 1.267 . S
C13 O14 1.160 . S
C13 O20 1.185 . S
O14 C13 1.160 . S
O15 Zn16 1.899 . S
O15 C23 1.284 . S
Zn16 O15 1.899 . S
Zn16 O17 2.032 . S
Zn16 O20 2.086 . S
Zn16 O25 1.977 . S
O17 Zn16 2.032 . S
O17 C21 1.278 . S
C18 O19 1.203 . S
C18 O25 1.267 . S
O19 C18 1.203 . S
O20 C13 1.185 . S
O20 Zn16 2.086 . S
C21 O17 1.278 . S
C21 O22 1.211 . S
O22 C21 1.211 . S
C23 O15 1.284 . S
C23 O24 1.273 . S
O24 C23 1.273 . S
O25 Zn16 1.977 . S
O25 C18 1.267 . S
C26 O27 1.160 . S
C26 O33 1.185 . S
O27 C26 1.160 . S
O28 Zn29 1.899 . S
O28 C36 1.284 . S
Zn29 O28 1.899 . S
Zn29 O30 2.032 . S
Zn29 O33 2.086 . S
Zn29 O38 1.977 . S
O30 Zn29 2.032 . S
O30 C34 1.278 . S
C31 O32 1.203 . S
C31 O38 1.267 . S
O32 C31 1.203 . S
O33 C26 1.185 . S
O33 Zn29 2.086 . S
C34 O30 1.278 . S
C34 O35 1.211 . S
O35 C34 1.211 . S
C36 O28 1.284 . S
C36 O37 1.273 . S
O37 C36 1.273 . S
O38 Zn29 1.977 . S
O38 C31 1.267 . S
C39 O40 1.160 . S
C39 O46 1.185 . S
O40 C39 1.160 . S
O41 Zn42 1.899 . S
O41 C49 1.284 . S
Zn42 O41 1.899 . S
Zn42 O43 2.032 . S
Zn42 O46 2.086 . S
Zn42 O51 1.977 . S
O43 Zn42 2.032 . S
O43 C47 1.278 . S
C44 O45 1.203 . S
C44 O51 1.267 . S
O45 C44 1.203 . S
O46 C39 1.185 . S
O46 Zn42 2.086 . S
C47 O43 1.278 . S
C47 O48 1.211 . S
O48 C47 1.211 . S
C49 O41 1.284 . S
C49 O50 1.273 . S
O50 C49 1.273 . S
O51 Zn42 1.977 . S
O51 C44 1.267 . S
C52 O53 1.160 . S
C52 O59 1.185 . S
O53 C52 1.160 . S
O54 Zn55 1.899 . S
O54 C62 1.284 . S
Zn55 O54 1.899 . S
Zn55 O56 2.032 . S
Zn55 O59 2.086 . S
Zn55 O64 1.977 . S
O56 Zn55 2.032 . S
O56 C60 1.278 . S
C57 O58 1.203 . S
C57 O64 1.267 . S
O58 C57 1.203 . S
O59 C52 1.185 . S
O59 Zn55 2.086 . S
C60 O56 1.278 . S
C60 O61 1.211 . S
O61 C60 1.211 . S
C62 O54 1.284 . S
C62 O63 1.273 . S
O63 C62 1.273 . S
O64 Zn55 1.977 . S
O64 C57 1.267 . S
C65 O66 1.160 . S
C65 O72 1.185 . S
O66 C65 1.160 . S
O67 Zn68 1.899 . S
O67 C75 1.284 . S
Zn68 O67 1.899 . S
Zn68 O69 2.032 . S
Zn68 O72 2.086 . S
Zn68 O77 1.977 . S
O69 Zn68 2.032 . S
O69 C73 1.278 . S
C70 O71 1.203 . S
C70 O77 1.267 . S
O71 C70 1.203 . S
O72 C65 1.185 . S
O72 Zn68 2.086 . S
C73 O69 1.278 . S
C73 O74 1.211 . S
O74 C73 1.211 . S
C75 O67 1.284 . S
C75 O76 1.273 . S
O76 C75 1.273 . S
O77 Zn68 1.977 . S
O77 C70 1.267 . S
C78 O79 1.160 . S
C78 O85 1.185 . S
O79 C78 1.160 . S
O80 Zn81 1.899 . S
O80 C88 1.284 . S
Zn81 O80 1.899 . S
Zn81 O82 2.032 . S
Zn81 O85 2.086 . S
Zn81 O90 1.977 . S
O82 Zn81 2.032 . S
O82 C86 1.278 . S
C83 O84 1.203 . S
C83 O90 1.267 . S
O84 C83 1.203 . S
O85 C78 1.185 . S
O85 Zn81 2.086 . S
C86 O82 1.278 . S
C86 O87 1.211 . S
O87 C86 1.211 . S
C88 O80 1.284 . S
C88 O89 1.273 . S
O89 C88 1.273 . S
O90 Zn81 1.977 . S
O90 C83 1.267 . S
C91 O92 1.160 . S
C91 O98 1.185 . S
O92 C91 1.160 . S
O93 Zn94 1.899 . S
O93 C101 1.284 . S
Zn94 O93 1.899 . S
Zn94 O95 2.032 . S
Zn94 O98 2.086 . S
Zn94 O103 1.977 . S
O95 Zn94 2.032 . S
O95 C99 1.278 . S
C96 O97 1.203 . S
C96 O103 1.267 . S
O97 C96 1.203 . S
O98 C91 1.185 . S
O98 Zn94 2.086 . S
C99 O95 1.278 . S
C99 O100 1.211 . S
O100 C99 1.211 . S
C101 O93 1.284 . S
C101 O102 1.273 . S
O102 C101 1.273 . S
O103 Zn94 1.977 . S
O103 C96 1.267 . S
C104 C105 1.391 . S
C104 C106 1.394 . S
C104 H120 0.931 . S
C105 C104 1.391 . S
C105 C109 1.376 . S
C106 C104 1.394 . S
C106 C107 1.369 . S
C106 C110 1.531 . S
C107 C106 1.369 . S
C107 C108 1.410 . S
C107 C115 1.503 . S
C108 C107 1.410 . S
C108 C109 1.392 . S
C108 C111 1.511 . S
C109 C105 1.376 . S
C109 C108 1.392 . S
C109 H121 0.929 . S
C110 C106 1.531 . S
C110 H122 0.960 . S
C110 H123 0.962 . S
C110 H124 0.960 . S
C111 C108 1.511 . S
C111 H125 0.961 . S
C111 H126 0.961 . S
C111 H127 0.961 . S
C112 C113 1.370 . S
C112 C114 1.363 . S
C112 H128 0.931 . S
C113 C112 1.370 . S
C113 C117 1.408 . S
C114 C112 1.363 . S
C114 C115 1.370 . S
C114 C118 1.524 . S
C115 C107 1.503 . S
C115 C114 1.370 . S
C115 C116 1.403 . S
C116 C115 1.403 . S
C116 C117 1.404 . S
C116 C119 1.539 . S
C117 C113 1.408 . S
C117 C116 1.404 . S
C117 H129 0.930 . S
C118 C114 1.524 . S
C118 H130 0.956 . S
C118 H131 0.961 . S
C118 H132 0.961 . S
C119 C116 1.539 . S
C119 H133 0.958 . S
C119 H134 0.961 . S
C119 H135 0.960 . S
H120 C104 0.931 . S
H121 C109 0.929 . S
H122 C110 0.960 . S
H123 C110 0.962 . S
H124 C110 0.960 . S
H125 C111 0.961 . S
H126 C111 0.961 . S
H127 C111 0.961 . S
H128 C112 0.931 . S
H129 C117 0.930 . S
H130 C118 0.956 . S
H131 C118 0.961 . S
H132 C118 0.961 . S
H133 C119 0.958 . S
H134 C119 0.961 . S
H135 C119 0.960 . S
C136 C137 1.391 . S
C136 C138 1.394 . S
C136 H152 0.931 . S
C137 C136 1.391 . S
C137 C141 1.376 . S
C138 C136 1.394 . S
C138 C139 1.369 . S
C138 C142 1.531 . S
C139 C138 1.369 . S
C139 C140 1.410 . S
C139 C147 1.503 . S
C140 C139 1.410 . S
C140 C141 1.392 . S
C140 C143 1.511 . S
C141 C137 1.376 . S
C141 C140 1.392 . S
C141 H153 0.929 . S
C142 C138 1.531 . S
C142 H154 0.960 . S
C142 H155 0.962 . S
C142 H156 0.960 . S
C143 C140 1.511 . S
C143 H157 0.961 . S
C143 H158 0.961 . S
C143 H159 0.961 . S
C144 C145 1.370 . S
C144 C146 1.363 . S
C144 H160 0.931 . S
C145 C144 1.370 . S
C145 C149 1.408 . S
C146 C144 1.363 . S
C146 C147 1.370 . S
C146 C150 1.524 . S
C147 C139 1.503 . S
C147 C146 1.370 . S
C147 C148 1.403 . S
C148 C147 1.403 . S
C148 C149 1.404 . S
C148 C151 1.539 . S
C149 C145 1.408 . S
C149 C148 1.404 . S
C149 H161 0.930 . S
C150 C146 1.524 . S
C150 H162 0.956 . S
C150 H163 0.961 . S
C150 H164 0.961 . S
C151 C148 1.539 . S
C151 H165 0.958 . S
C151 H166 0.961 . S
C151 H167 0.960 . S
H152 C136 0.931 . S
H153 C141 0.929 . S
H154 C142 0.960 . S
H155 C142 0.962 . S
H156 C142 0.960 . S
H157 C143 0.961 . S
H158 C143 0.961 . S
H159 C143 0.961 . S
H160 C144 0.931 . S
H161 C149 0.930 . S
H162 C150 0.956 . S
H163 C150 0.961 . S
H164 C150 0.961 . S
H165 C151 0.958 . S
H166 C151 0.961 . S
H167 C151 0.960 . S
C168 C169 1.391 . S
C168 C170 1.394 1_545 S
C168 H184 0.931 . S
C169 C168 1.391 . S
C169 C173 1.376 . S
C170 C168 1.394 1_565 S
C170 C171 1.369 1_565 S
C170 C174 1.531 . S
C171 C170 1.369 1_545 S
C171 C172 1.410 . S
C171 C179 1.503 1_544 S
C172 C171 1.410 . S
C172 C173 1.392 . S
C172 C175 1.511 1_554 S
C173 C169 1.376 . S
C173 C172 1.392 . S
C173 H185 0.929 . S
C174 C170 1.531 . S
C174 H186 0.960 . S
C174 H187 0.962 . S
C174 H188 0.960 . S
C175 C172 1.511 1_556 S
C175 H189 0.961 . S
C175 H190 0.961 . S
C175 H191 0.961 . S
C176 C177 1.370 . S
C176 C178 1.363 . S
C176 H192 0.931 . S
C177 C176 1.370 . S
C177 C181 1.408 . S
C178 C176 1.363 . S
C178 C179 1.370 . S
C178 C182 1.524 . S
C179 C171 1.503 1_566 S
C179 C178 1.370 . S
C179 C180 1.403 . S
C180 C179 1.403 . S
C180 C181 1.404 . S
C180 C183 1.534 1_566 S
C181 C177 1.408 . S
C181 C180 1.404 . S
C181 H193 0.930 . S
C182 C178 1.524 . S
C182 H194 0.956 . S
C182 H195 0.961 1_565 S
C182 H196 0.961 . S
C183 C180 1.534 1_544 S
C183 H197 0.951 1_545 S
C183 H198 0.964 . S
C183 H199 0.969 . S
H184 C168 0.931 . S
H185 C173 0.929 . S
H186 C174 0.960 . S
H187 C174 0.962 . S
H188 C174 0.960 . S
H189 C175 0.961 . S
H190 C175 0.961 . S
H191 C175 0.961 . S
H192 C176 0.931 . S
H193 C181 0.930 . S
H194 C182 0.956 . S
H195 C182 0.961 1_545 S
H196 C182 0.961 . S
H197 C183 0.951 1_565 S
H198 C183 0.964 . S
H199 C183 0.969 . S
C200 C201 1.391 . S
C200 C202 1.394 . S
C200 H216 0.931 . S
C201 C200 1.391 . S
C201 C205 1.376 . S
C202 C200 1.394 . S
C202 C203 1.369 . S
C202 C206 1.531 . S
C203 C202 1.369 . S
C203 C204 1.410 1_655 S
C203 C211 1.503 1_655 S
C204 C203 1.410 1_455 S
C204 C205 1.392 1_455 S
C204 C207 1.511 . S
C205 C201 1.376 . S
C205 C204 1.392 1_655 S
C205 H217 0.929 . S
C206 C202 1.531 . S
C206 H218 0.960 . S
C206 H219 0.962 . S
C206 H220 0.960 . S
C207 C204 1.511 . S
C207 H221 0.961 . S
C207 H222 0.961 . S
C207 H223 0.961 . S
C208 C209 1.370 . S
C208 C210 1.363 . S
C208 H224 0.931 . S
C209 C208 1.370 . S
C209 C213 1.408 . S
C210 C208 1.363 . S
C210 C211 1.370 . S
C210 C214 1.524 . S
C211 C203 1.503 1_455 S
C211 C210 1.370 . S
C211 C212 1.403 . S
C212 C211 1.403 . S
C212 C213 1.404 . S
C212 C215 1.539 . S
C213 C209 1.408 . S
C213 C212 1.404 . S
C213 H225 0.930 . S
C214 C210 1.524 . S
C214 H226 0.956 1_455 S
C214 H227 0.961 . S
C214 H228 0.961 . S
C215 C212 1.539 . S
C215 H229 0.958 1_455 S
C215 H230 0.961 . S
C215 H231 0.960 . S
H216 C200 0.931 . S
H217 C205 0.929 . S
H218 C206 0.960 . S
H219 C206 0.962 . S
H220 C206 0.960 . S
H221 C207 0.961 . S
H222 C207 0.961 . S
H223 C207 0.961 . S
H224 C208 0.931 . S
H225 C213 0.930 . S
H226 C214 0.956 1_655 S
H227 C214 0.961 . S
H228 C214 0.961 . S
H229 C215 0.958 1_655 S
H230 C215 0.961 . S
H231 C215 0.960 . S
C232 C233 1.391 . S
C232 C234 1.394 1_565 S
C232 H248 0.931 . S
C233 C232 1.391 . S
C233 C237 1.376 . S
C234 C232 1.394 1_545 S
C234 C235 1.369 1_545 S
C234 C238 1.531 . S
C235 C234 1.369 1_565 S
C235 C236 1.410 . S
C235 C243 1.503 1_565 S
C236 C235 1.410 . S
C236 C237 1.392 . S
C236 C239 1.511 . S
C237 C233 1.376 . S
C237 C236 1.392 . S
C237 H249 0.929 . S
C238 C234 1.531 . S
C238 H250 0.960 . S
C238 H251 0.962 . S
C238 H252 0.960 . S
C239 C236 1.511 . S
C239 H253 0.961 . S
C239 H254 0.961 . S
C239 H255 0.961 . S
C240 C241 1.370 . S
C240 C242 1.363 . S
C240 H256 0.931 . S
C241 C240 1.370 . S
C241 C245 1.408 . S
C242 C240 1.363 . S
C242 C243 1.370 . S
C242 C246 1.524 1_545 S
C243 C235 1.503 1_545 S
C243 C242 1.370 . S
C243 C244 1.403 . S
C244 C243 1.403 . S
C244 C245 1.404 . S
C244 C247 1.539 . S
C245 C241 1.408 . S
C245 C244 1.404 . S
C245 H257 0.930 . S
C246 C242 1.524 1_565 S
C246 H258 0.956 . S
C246 H259 0.961 . S
C246 H260 0.961 . S
C247 C244 1.539 . S
C247 H261 0.958 . S
C247 H262 0.961 . S
C247 H263 0.960 . S
H248 C232 0.931 . S
H249 C237 0.929 . S
H250 C238 0.960 . S
H251 C238 0.962 . S
H252 C238 0.960 . S
H253 C239 0.961 . S
H254 C239 0.961 . S
H255 C239 0.961 . S
H256 C240 0.931 . S
H257 C245 0.930 . S
H258 C246 0.956 . S
H259 C246 0.961 . S
H260 C246 0.961 . S
H261 C247 0.958 . S
H262 C247 0.961 . S
H263 C247 0.960 . S
C264 C265 1.391 . S
C264 C266 1.394 . S
C264 H280 0.931 . S
C265 C264 1.391 . S
C265 C269 1.376 . S
C266 C264 1.394 . S
C266 C267 1.369 . S
C266 C270 1.531 1_556 S
C267 C266 1.369 . S
C267 C268 1.410 1_655 S
C267 C275 1.503 1_656 S
C268 C267 1.410 1_455 S
C268 C269 1.392 1_455 S
C268 C271 1.511 . S
C269 C265 1.376 . S
C269 C268 1.392 1_655 S
C269 H281 0.929 . S
C270 C266 1.531 1_554 S
C270 H282 0.960 . S
C270 H283 0.962 . S
C270 H284 0.960 . S
C271 C268 1.511 . S
C271 H285 0.961 . S
C271 H286 0.961 . S
C271 H287 0.961 . S
C272 C273 1.370 . S
C272 C274 1.363 . S
C272 H288 0.931 . S
C273 C272 1.370 . S
C273 C277 1.408 . S
C274 C272 1.363 . S
C274 C275 1.370 . S
C274 C278 1.524 1_554 S
C275 C267 1.503 1_454 S
C275 C274 1.370 . S
C275 C276 1.403 . S
C276 C275 1.403 . S
C276 C277 1.404 . S
C276 C279 1.539 . S
C277 C273 1.408 . S
C277 C276 1.404 . S
C277 H289 0.930 . S
C278 C274 1.524 1_556 S
C278 H290 0.956 1_455 S
C278 H291 0.961 . S
C278 H292 0.961 . S
C279 C276 1.539 . S
C279 H293 0.936 1_455 S
C279 H294 0.961 . S
C279 H295 0.960 . S
H280 C264 0.931 . S
H281 C269 0.929 . S
H282 C270 0.960 . S
H283 C270 0.962 . S
H284 C270 0.960 . S
H285 C271 0.961 . S
H286 C271 0.961 . S
H287 C271 0.961 . S
H288 C272 0.931 . S
H289 C277 0.930 . S
H290 C278 0.956 1_655 S
H291 C278 0.961 . S
H292 C278 0.961 . S
H293 C279 0.936 1_655 S
H294 C279 0.961 . S
H295 C279 0.960 . S
C296 C297 1.391 . S
C296 C298 1.394 . S
C296 H312 0.931 . S
C297 C296 1.391 . S
C297 C301 1.376 . S
C298 C296 1.394 . S
C298 C299 1.369 . S
C298 C302 1.531 . S
C299 C298 1.369 . S
C299 C300 1.410 . S
C299 C307 1.503 . S
C300 C299 1.410 . S
C300 C301 1.392 . S
C300 C303 1.511 . S
C301 C297 1.376 . S
C301 C300 1.392 . S
C301 H313 0.929 . S
C302 C298 1.531 . S
C302 H314 0.960 . S
C302 H315 0.962 . S
C302 H316 0.960 . S
C303 C300 1.511 . S
C303 H317 0.961 . S
C303 H318 0.961 . S
C303 H319 0.961 . S
C304 C305 1.370 . S
C304 C306 1.363 . S
C304 H320 0.931 . S
C305 C304 1.370 . S
C305 C309 1.408 . S
C306 C304 1.363 . S
C306 C307 1.370 . S
C306 C310 1.524 . S
C307 C299 1.503 . S
C307 C306 1.370 . S
C307 C308 1.403 . S
C308 C307 1.403 . S
C308 C309 1.404 . S
C308 C311 1.539 . S
C309 C305 1.408 . S
C309 C308 1.404 . S
C309 H321 0.930 . S
C310 C306 1.524 . S
C310 H322 0.956 . S
C310 H323 0.961 . S
C310 H324 0.961 . S
C311 C308 1.539 . S
C311 H325 0.958 . S
C311 H326 0.961 . S
C311 H327 0.960 . S
H312 C296 0.931 . S
H313 C301 0.929 . S
H314 C302 0.960 . S
H315 C302 0.962 . S
H316 C302 0.960 . S
H317 C303 0.961 . S
H318 C303 0.961 . S
H319 C303 0.961 . S
H320 C304 0.931 . S
H321 C309 0.930 . S
H322 C310 0.956 . S
H323 C310 0.961 . S
H324 C310 0.961 . S
H325 C311 0.958 . S
H326 C311 0.961 . S
H327 C311 0.960 . S
C328 C329 1.391 . S
C328 C330 1.394 . S
C328 H344 0.931 . S
C329 C328 1.391 . S
C329 C333 1.376 . S
C330 C328 1.394 . S
C330 C331 1.369 . S
C330 C334 1.531 . S
C331 C330 1.369 . S
C331 C332 1.410 . S
C331 C339 1.503 . S
C332 C331 1.410 . S
C332 C333 1.392 . S
C332 C335 1.511 . S
C333 C329 1.376 . S
C333 C332 1.392 . S
C333 H345 0.929 . S
C334 C330 1.531 . S
C334 H346 0.960 . S
C334 H347 0.962 . S
C334 H348 0.960 . S
C335 C332 1.511 . S
C335 H349 0.961 . S
C335 H350 0.961 . S
C335 H351 0.961 . S
C336 C337 1.370 . S
C336 C338 1.363 . S
C336 H352 0.931 . S
C337 C336 1.370 . S
C337 C341 1.408 . S
C338 C336 1.363 . S
C338 C339 1.370 . S
C338 C342 1.524 . S
C339 C331 1.503 . S
C339 C338 1.370 . S
C339 C340 1.403 . S
C340 C339 1.403 . S
C340 C341 1.404 . S
C340 C343 1.539 . S
C341 C337 1.408 . S
C341 C340 1.404 . S
C341 H353 0.930 . S
C342 C338 1.524 . S
C342 H354 0.956 . S
C342 H355 0.961 . S
C342 H356 0.961 . S
C343 C340 1.539 . S
C343 H357 0.958 . S
C343 H358 0.961 . S
C343 H359 0.960 . S
H344 C328 0.931 . S
H345 C333 0.929 . S
H346 C334 0.960 . S
H347 C334 0.962 . S
H348 C334 0.960 . S
H349 C335 0.961 . S
H350 C335 0.961 . S
H351 C335 0.961 . S
H352 C336 0.931 . S
H353 C341 0.930 . S
H354 C342 0.956 . S
H355 C342 0.961 . S
H356 C342 0.961 . S
H357 C343 0.958 . S
H358 C343 0.961 . S
H359 C343 0.960 . S
C360 C361 1.391 . S
C360 C362 1.394 . S
C360 H376 0.931 . S
C361 C360 1.391 . S
C361 C365 1.376 . S
C362 C360 1.394 . S
C362 C363 1.369 . S
C362 C366 1.531 . S
C363 C362 1.369 . S
C363 C364 1.410 . S
C363 C371 1.503 . S
C364 C363 1.410 . S
C364 C365 1.392 . S
C364 C367 1.511 . S
C365 C361 1.376 . S
C365 C364 1.392 . S
C365 H377 0.929 . S
C366 C362 1.531 . S
C366 H378 0.960 . S
C366 H379 0.962 . S
C366 H380 0.960 . S
C367 C364 1.511 . S
C367 H381 0.961 . S
C367 H382 0.961 . S
C367 H383 0.961 . S
C368 C369 1.370 . S
C368 C370 1.363 . S
C368 H384 0.931 . S
C369 C368 1.370 . S
C369 C373 1.408 . S
C370 C368 1.363 . S
C370 C371 1.370 . S
C370 C374 1.524 . S
C371 C363 1.503 . S
C371 C370 1.370 . S
C371 C372 1.403 . S
C372 C371 1.403 . S
C372 C373 1.404 . S
C372 C375 1.539 . S
C373 C369 1.408 . S
C373 C372 1.404 . S
C373 H385 0.930 . S
C374 C370 1.524 . S
C374 H386 0.956 . S
C374 H387 0.961 . S
C374 H388 0.961 . S
C375 C372 1.539 . S
C375 H389 0.958 . S
C375 H390 0.961 . S
C375 H391 0.960 . S
H376 C360 0.931 . S
H377 C365 0.929 . S
H378 C366 0.960 . S
H379 C366 0.962 . S
H380 C366 0.960 . S
H381 C367 0.961 . S
H382 C367 0.961 . S
H383 C367 0.961 . S
H384 C368 0.931 . S
H385 C373 0.930 . S
H386 C374 0.956 . S
H387 C374 0.961 . S
H388 C374 0.961 . S
H389 C375 0.958 . S
H390 C375 0.961 . S
H391 C375 0.960 . S
C392 C393 1.391 . S
C392 C394 1.394 . S
C392 H408 0.931 . S
C393 C392 1.391 . S
C393 C397 1.376 . S
C394 C392 1.394 . S
C394 C395 1.369 . S
C394 C398 1.531 . S
C395 C394 1.369 . S
C395 C396 1.410 . S
C395 C403 1.503 1_556 S
C396 C395 1.410 . S
C396 C397 1.392 . S
C396 C399 1.511 1_556 S
C397 C393 1.376 . S
C397 C396 1.392 . S
C397 H409 0.929 . S
C398 C394 1.531 . S
C398 H410 0.960 . S
C398 H411 0.962 . S
C398 H412 0.960 . S
C399 C396 1.511 1_554 S
C399 H413 0.961 . S
C399 H414 0.961 . S
C399 H415 0.961 . S
C400 C401 1.370 . S
C400 C402 1.363 . S
C400 H416 0.931 . S
C401 C400 1.370 . S
C401 C405 1.408 . S
C402 C400 1.363 . S
C402 C403 1.370 . S
C402 C406 1.524 . S
C403 C395 1.503 1_554 S
C403 C402 1.370 . S
C403 C404 1.403 . S
C404 C403 1.403 . S
C404 C405 1.404 . S
C404 C407 1.539 1_554 S
C405 C401 1.408 . S
C405 C404 1.404 . S
C405 H417 0.930 . S
C406 C402 1.524 . S
C406 H418 0.956 1_554 S
C406 H419 0.961 . S
C406 H420 0.961 . S
C407 C404 1.539 1_556 S
C407 H421 0.958 . S
C407 H422 0.961 1_556 S
C407 H423 0.960 . S
H408 C392 0.931 . S
H409 C397 0.929 . S
H410 C398 0.960 . S
H411 C398 0.962 . S
H412 C398 0.960 . S
H413 C399 0.961 . S
H414 C399 0.961 . S
H415 C399 0.961 . S
H416 C400 0.931 . S
H417 C405 0.930 . S
H418 C406 0.956 1_556 S
H419 C406 0.961 . S
H420 C406 0.961 . S
H421 C407 0.958 . S
H422 C407 0.961 1_554 S
H423 C407 0.960 . S
C424 C425 1.391 . S
C424 C426 1.394 . S
C424 H440 0.931 . S
C425 C424 1.391 . S
C425 C429 1.376 . S
C426 C424 1.394 . S
C426 C427 1.369 . S
C426 C430 1.531 . S
C427 C426 1.369 . S
C427 C428 1.410 . S
C427 C435 1.503 1_565 S
C428 C427 1.410 . S
C428 C429 1.392 . S
C428 C431 1.511 1_565 S
C429 C425 1.376 . S
C429 C428 1.392 . S
C429 H441 0.929 . S
C430 C426 1.531 . S
C430 H442 0.960 . S
C430 H443 0.962 . S
C430 H444 0.960 . S
C431 C428 1.511 1_545 S
C431 H445 0.961 . S
C431 H446 0.961 . S
C431 H447 0.961 1_545 S
C432 C433 1.370 . S
C432 C434 1.363 . S
C432 H448 0.931 . S
C433 C432 1.370 . S
C433 C437 1.408 . S
C434 C432 1.363 . S
C434 C435 1.370 . S
C434 C438 1.524 . S
C435 C427 1.503 1_545 S
C435 C434 1.370 . S
C435 C436 1.403 1_545 S
C436 C435 1.403 1_565 S
C436 C437 1.404 1_565 S
C436 C439 1.539 . S
C437 C433 1.408 . S
C437 C436 1.404 1_545 S
C437 H449 0.930 . S
C438 C434 1.524 . S
C438 H450 0.956 . S
C438 H451 0.961 . S
C438 H452 0.961 . S
C439 C436 1.539 . S
C439 H453 0.958 . S
C439 H454 0.961 . S
C439 H455 0.960 . S
H440 C424 0.931 . S
H441 C429 0.929 . S
H442 C430 0.960 . S
H443 C430 0.962 . S
H444 C430 0.960 . S
H445 C431 0.961 . S
H446 C431 0.961 . S
H447 C431 0.961 1_565 S
H448 C432 0.931 . S
H449 C437 0.930 . S
H450 C438 0.956 . S
H451 C438 0.961 . S
H452 C438 0.961 . S
H453 C439 0.958 . S
H454 C439 0.961 . S
H455 C439 0.960 . S
C456 C457 1.391 . S
C456 C458 1.394 . S
C456 H472 0.931 . S
C457 C456 1.391 . S
C457 C461 1.376 . S
C458 C456 1.394 . S
C458 C459 1.369 . S
C458 C462 1.531 1_565 S
C459 C458 1.369 . S
C459 C460 1.410 . S
C459 C467 1.503 1_665 S
C460 C459 1.410 . S
C460 C461 1.392 . S
C460 C463 1.511 1_655 S
C461 C457 1.376 . S
C461 C460 1.392 . S
C461 H473 0.929 . S
C462 C458 1.531 1_545 S
C462 H474 0.960 . S
C462 H475 0.962 . S
C462 H476 0.960 . S
C463 C460 1.511 1_455 S
C463 H477 0.961 . S
C463 H478 0.961 . S
C463 H479 0.961 . S
C464 C465 1.370 . S
C464 C466 1.363 . S
C464 H480 0.931 . S
C465 C464 1.370 . S
C465 C469 1.408 . S
C466 C464 1.363 . S
C466 C467 1.370 . S
C466 C470 1.524 . S
C467 C459 1.503 1_445 S
C467 C466 1.370 . S
C467 C468 1.403 . S
C468 C467 1.403 . S
C468 C469 1.404 . S
C468 C471 1.539 1_445 S
C469 C465 1.408 . S
C469 C468 1.404 . S
C469 H481 0.930 . S
C470 C466 1.524 . S
C470 H482 0.956 . S
C470 H483 0.961 . S
C470 H484 0.961 . S
C471 C468 1.539 1_665 S
C471 H485 0.958 . S
C471 H486 0.961 1_655 S
C471 H487 0.960 . S
H472 C456 0.931 . S
H473 C461 0.929 . S
H474 C462 0.960 . S
H475 C462 0.962 . S
H476 C462 0.960 . S
H477 C463 0.961 . S
H478 C463 0.961 . S
H479 C463 0.961 . S
H480 C464 0.931 . S
H481 C469 0.930 . S
H482 C470 0.956 . S
H483 C470 0.961 . S
H484 C470 0.961 . S
H485 C471 0.958 . S
H486 C471 0.961 1_455 S
H487 C471 0.960 . S
C488 C489 1.391 . S
C488 C490 1.394 1_655 S
C488 H504 0.931 . S
C489 C488 1.391 . S
C489 C493 1.376 . S
C490 C488 1.394 1_455 S
C490 C491 1.369 1_455 S
C490 C494 1.531 . S
C491 C490 1.369 1_655 S
C491 C492 1.410 . S
C491 C499 1.503 1_655 S
C492 C491 1.410 . S
C492 C493 1.392 . S
C492 C495 1.511 . S
C493 C489 1.376 . S
C493 C492 1.392 . S
C493 H505 0.929 . S
C494 C490 1.531 . S
C494 H506 0.960 . S
C494 H507 0.962 . S
C494 H508 0.960 . S
C495 C492 1.511 . S
C495 H509 0.961 . S
C495 H510 0.961 . S
C495 H511 0.961 . S
C496 C497 1.370 . S
C496 C498 1.363 . S
C496 H512 0.931 . S
C497 C496 1.370 . S
C497 C501 1.408 . S
C498 C496 1.363 . S
C498 C499 1.370 . S
C498 C502 1.524 . S
C499 C491 1.503 1_455 S
C499 C498 1.370 . S
C499 C500 1.403 . S
C500 C499 1.403 . S
C500 C501 1.404 . S
C500 C503 1.539 . S
C501 C497 1.408 . S
C501 C500 1.404 . S
C501 H513 0.930 . S
C502 C498 1.524 . S
C502 H514 0.956 . S
C502 H515 0.961 1_455 S
C502 H516 0.961 . S
C503 C500 1.539 . S
C503 H517 0.958 . S
C503 H518 0.961 . S
C503 H519 0.960 1_455 S
H504 C488 0.931 . S
H505 C493 0.929 . S
H506 C494 0.960 . S
H507 C494 0.962 . S
H508 C494 0.960 . S
H509 C495 0.961 . S
H510 C495 0.961 . S
H511 C495 0.961 . S
H512 C496 0.931 . S
H513 C501 0.930 . S
H514 C502 0.956 . S
H515 C502 0.961 1_655 S
H516 C502 0.961 . S
H517 C503 0.958 . S
H518 C503 0.961 . S
H519 C503 0.960 1_655 S
C520 C521 1.391 . S
C520 C522 1.394 . S
C520 H536 0.931 . S
C521 C520 1.391 . S
C521 C525 1.376 . S
C522 C520 1.394 . S
C522 C523 1.369 . S
C522 C526 1.531 . S
C523 C522 1.369 . S
C523 C524 1.410 . S
C523 C531 1.503 . S
C524 C523 1.410 . S
C524 C525 1.392 . S
C524 C527 1.511 . S
C525 C521 1.376 . S
C525 C524 1.392 . S
C525 H537 0.929 . S
C526 C522 1.531 . S
C526 H538 0.960 . S
C526 H539 0.962 . S
C526 H540 0.960 . S
C527 C524 1.511 . S
C527 H541 0.961 . S
C527 H542 0.961 . S
C527 H543 0.961 . S
C528 C529 1.370 . S
C528 C530 1.363 . S
C528 H544 0.931 . S
C529 C528 1.370 . S
C529 C533 1.408 . S
C530 C528 1.363 . S
C530 C531 1.370 . S
C530 C534 1.524 . S
C531 C523 1.503 . S
C531 C530 1.370 . S
C531 C532 1.403 . S
C532 C531 1.403 . S
C532 C533 1.404 . S
C532 C535 1.539 . S
C533 C529 1.408 . S
C533 C532 1.404 . S
C533 H545 0.930 . S
C534 C530 1.524 . S
C534 H546 0.956 . S
C534 H547 0.961 . S
C534 H548 0.961 . S
C535 C532 1.539 . S
C535 H549 0.958 . S
C535 H550 0.961 . S
C535 H551 0.960 . S
H536 C520 0.931 . S
H537 C525 0.929 . S
H538 C526 0.960 . S
H539 C526 0.962 . S
H540 C526 0.960 . S
H541 C527 0.961 . S
H542 C527 0.961 . S
H543 C527 0.961 . S
H544 C528 0.931 . S
H545 C533 0.930 . S
H546 C534 0.956 . S
H547 C534 0.961 . S
H548 C534 0.961 . S
H549 C535 0.958 . S
H550 C535 0.961 . S
H551 C535 0.960 . S
C552 C553 1.391 . S
C552 C554 1.394 1_554 S
C552 H568 0.931 . S
C553 C552 1.391 . S
C553 C557 1.376 . S
C554 C552 1.394 1_556 S
C554 C555 1.369 1_556 S
C554 C558 1.531 . S
C555 C554 1.369 1_554 S
C555 C556 1.410 . S
C555 C563 1.503 1_554 S
C556 C555 1.410 . S
C556 C557 1.392 . S
C556 C559 1.511 . S
C557 C553 1.376 . S
C557 C556 1.392 . S
C557 H569 0.929 . S
C558 C554 1.531 . S
C558 H570 0.960 . S
C558 H571 0.962 . S
C558 H572 0.960 . S
C559 C556 1.511 . S
C559 H573 0.961 . S
C559 H574 0.961 . S
C559 H575 0.961 . S
C560 C561 1.370 . S
C560 C562 1.363 . S
C560 H576 0.931 . S
C561 C560 1.370 . S
C561 C565 1.408 . S
C562 C560 1.363 . S
C562 C563 1.370 . S
C562 C566 1.524 . S
C563 C555 1.503 1_556 S
C563 C562 1.370 . S
C563 C564 1.403 . S
C564 C563 1.403 . S
C564 C565 1.404 . S
C564 C567 1.539 . S
C565 C561 1.408 . S
C565 C564 1.404 . S
C565 H577 0.930 . S
C566 C562 1.524 . S
C566 H578 0.956 . S
C566 H579 0.961 1_556 S
C566 H580 0.961 . S
C567 C564 1.539 . S
C567 H581 0.958 . S
C567 H582 0.961 . S
C567 H583 0.960 1_556 S
H568 C552 0.931 . S
H569 C557 0.929 . S
H570 C558 0.960 . S
H571 C558 0.962 . S
H572 C558 0.960 . S
H573 C559 0.961 . S
H574 C559 0.961 . S
H575 C559 0.961 . S
H576 C560 0.931 . S
H577 C565 0.930 . S
H578 C566 0.956 . S
H579 C566 0.961 1_554 S
H580 C566 0.961 . S
H581 C567 0.958 . S
H582 C567 0.961 . S
H583 C567 0.960 1_554 S
C584 C585 1.391 . S
C584 C586 1.394 . S
C584 H600 0.931 . S
C585 C584 1.391 . S
C585 C589 1.376 . S
C586 C584 1.394 . S
C586 C587 1.369 . S
C586 C590 1.531 . S
C587 C586 1.369 . S
C587 C588 1.410 . S
C587 C595 1.503 . S
C588 C587 1.410 . S
C588 C589 1.392 . S
C588 C591 1.511 . S
C589 C585 1.376 . S
C589 C588 1.392 . S
C589 H601 0.929 . S
C590 C586 1.531 . S
C590 H602 0.960 . S
C590 H603 0.962 . S
C590 H604 0.960 . S
C591 C588 1.511 . S
C591 H605 0.961 . S
C591 H606 0.961 . S
C591 H607 0.961 . S
C592 C593 1.370 . S
C592 C594 1.363 . S
C592 H608 0.931 . S
C593 C592 1.370 . S
C593 C597 1.408 . S
C594 C592 1.363 . S
C594 C595 1.370 . S
C594 C598 1.524 . S
C595 C587 1.503 . S
C595 C594 1.370 . S
C595 C596 1.403 . S
C596 C595 1.403 . S
C596 C597 1.404 . S
C596 C599 1.539 . S
C597 C593 1.408 . S
C597 C596 1.404 . S
C597 H609 0.930 . S
C598 C594 1.524 . S
C598 H610 0.956 . S
C598 H611 0.961 . S
C598 H612 0.961 . S
C599 C596 1.539 . S
C599 H613 0.958 . S
C599 H614 0.961 . S
C599 H615 0.960 . S
H600 C584 0.931 . S
H601 C589 0.929 . S
H602 C590 0.960 . S
H603 C590 0.962 . S
H604 C590 0.960 . S
H605 C591 0.961 . S
H606 C591 0.961 . S
H607 C591 0.961 . S
H608 C592 0.931 . S
H609 C597 0.930 . S
H610 C598 0.956 . S
H611 C598 0.961 . S
H612 C598 0.961 . S
H613 C599 0.958 . S
H614 C599 0.961 . S
H615 C599 0.960 . S
C105 C75 1.488 . S
C113 C5 1.469 . S
C137 C101 1.467 . S
C145 C18 1.484 . S
C169 C34 1.488 . S
C177 C86 1.467 . S
C201 C39 1.494 . S
C209 C52 1.485 . S
C233 C83 1.489 . S
C241 C10 1.489 . S
C265 C21 1.485 . S
C273 C60 1.477 . S
C297 C65 1.459 . S
C305 C26 1.474 . S
C329 C49 1.484 . S
C337 C96 1.485 . S
C361 C62 1.470 . S
C369 C70 1.485 . S
C393 C23 1.490 . S
C401 C31 1.469 . S
C425 C44 1.463 . S
C433 C36 1.481 . S
C457 C47 1.478 . S
C465 C8 1.480 . S
C489 C13 1.460 . S
C497 C0 1.473 . S
C521 C91 1.496 . S
C529 C78 1.482 . S
C553 C57 1.494 . S
C561 C88 1.482 . S
C585 C73 1.470 . S
C593 C99 1.463 . S
