# Generated by pormake.
# Topology unu, (4)-cn, num edge types: 1
# Building blocks:
#     Node 0, Type 0, BuildingBlock: GALJAG_clean_sbu_0, # of connection points: 4
#     Node 1, Type 0, BuildingBlock: GALJAG_clean_sbu_0, # of connection points: 4
#     Node 2, Type 0, BuildingBlock: GALJAG_clean_sbu_0, # of connection points: 4
#     Node 3, Type 0, BuildingBlock: GALJAG_clean_sbu_0, # of connection points: 4
#     Node 4, Type 0, BuildingBlock: GALJAG_clean_sbu_0, # of connection points: 4
#     Node 5, Type 0, BuildingBlock: GALJAG_clean_sbu_0, # of connection points: 4
#     Node 6, Type 0, BuildingBlock: GALJAG_clean_sbu_0, # of connection points: 4
#     Node 7, Type 0, BuildingBlock: GALJAG_clean_sbu_0, # of connection points: 4
#     Node 8, Type 0, BuildingBlock: GALJAG_clean_sbu_0, # of connection points: 4
#     Node 9, Type 0, BuildingBlock: GALJAG_clean_sbu_0, # of connection points: 4
#     Node 10, Type 0, BuildingBlock: GALJAG_clean_sbu_0, # of connection points: 4
#     Node 11, Type 0, BuildingBlock: GALJAG_clean_sbu_0, # of connection points: 4
#     Node 12, Type 0, BuildingBlock: GALJAG_clean_sbu_0, # of connection points: 4
#     Node 13, Type 0, BuildingBlock: GALJAG_clean_sbu_0, # of connection points: 4
#     Node 14, Type 0, BuildingBlock: GALJAG_clean_sbu_0, # of connection points: 4
#     Node 15, Type 0, BuildingBlock: GALJAG_clean_sbu_0, # of connection points: 4
#     Node 16, Type 0, BuildingBlock: GALJAG_clean_sbu_0, # of connection points: 4
#     Node 17, Type 0, BuildingBlock: GALJAG_clean_sbu_0, # of connection points: 4
#     Node 18, Type 0, BuildingBlock: GALJAG_clean_sbu_0, # of connection points: 4
#     Node 19, Type 0, BuildingBlock: GALJAG_clean_sbu_0, # of connection points: 4
#     Node 20, Type 0, BuildingBlock: GALJAG_clean_sbu_0, # of connection points: 4
#     Node 21, Type 0, BuildingBlock: GALJAG_clean_sbu_0, # of connection points: 4
#     Node 22, Type 0, BuildingBlock: GALJAG_clean_sbu_0, # of connection points: 4
#     Node 23, Type 0, BuildingBlock: GALJAG_clean_sbu_0, # of connection points: 4
#     Node 24, Type 0, BuildingBlock: GALJAG_clean_sbu_0, # of connection points: 4
#     Node 25, Type 0, BuildingBlock: GALJAG_clean_sbu_0, # of connection points: 4
#     Node 26, Type 0, BuildingBlock: GALJAG_clean_sbu_0, # of connection points: 4
#     Node 27, Type 0, BuildingBlock: GALJAG_clean_sbu_0, # of connection points: 4
#     Node 28, Type 0, BuildingBlock: GALJAG_clean_sbu_0, # of connection points: 4
#     Node 29, Type 0, BuildingBlock: GALJAG_clean_sbu_0, # of connection points: 4
#     Node 30, Type 0, BuildingBlock: GALJAG_clean_sbu_0, # of connection points: 4
#     Node 31, Type 0, BuildingBlock: GALJAG_clean_sbu_0, # of connection points: 4
#     Node 32, Type 0, BuildingBlock: GALJAG_clean_sbu_0, # of connection points: 4
#     Node 33, Type 0, BuildingBlock: GALJAG_clean_sbu_0, # of connection points: 4
#     Node 34, Type 0, BuildingBlock: GALJAG_clean_sbu_0, # of connection points: 4
#     Node 35, Type 0, BuildingBlock: GALJAG_clean_sbu_0, # of connection points: 4
#     Edge 36, Type (0, 0), BuildingBlock: KIFKEQ_clean_linker_1, # of connection points: 2
#     Edge 37, Type (0, 0), BuildingBlock: KIFKEQ_clean_linker_1, # of connection points: 2
#     Edge 38, Type (0, 0), BuildingBlock: KIFKEQ_clean_linker_1, # of connection points: 2
#     Edge 39, Type (0, 0), BuildingBlock: KIFKEQ_clean_linker_1, # of connection points: 2
#     Edge 40, Type (0, 0), BuildingBlock: KIFKEQ_clean_linker_1, # of connection points: 2
#     Edge 41, Type (0, 0), BuildingBlock: KIFKEQ_clean_linker_1, # of connection points: 2
#     Edge 42, Type (0, 0), BuildingBlock: KIFKEQ_clean_linker_1, # of connection points: 2
#     Edge 43, Type (0, 0), BuildingBlock: KIFKEQ_clean_linker_1, # of connection points: 2
#     Edge 44, Type (0, 0), BuildingBlock: KIFKEQ_clean_linker_1, # of connection points: 2
#     Edge 45, Type (0, 0), BuildingBlock: KIFKEQ_clean_linker_1, # of connection points: 2
#     Edge 46, Type (0, 0), BuildingBlock: KIFKEQ_clean_linker_1, # of connection points: 2
#     Edge 47, Type (0, 0), BuildingBlock: KIFKEQ_clean_linker_1, # of connection points: 2
#     Edge 48, Type (0, 0), BuildingBlock: KIFKEQ_clean_linker_1, # of connection points: 2
#     Edge 49, Type (0, 0), BuildingBlock: KIFKEQ_clean_linker_1, # of connection points: 2
#     Edge 50, Type (0, 0), BuildingBlock: KIFKEQ_clean_linker_1, # of connection points: 2
#     Edge 51, Type (0, 0), BuildingBlock: KIFKEQ_clean_linker_1, # of connection points: 2
#     Edge 52, Type (0, 0), BuildingBlock: KIFKEQ_clean_linker_1, # of connection points: 2
#     Edge 53, Type (0, 0), BuildingBlock: KIFKEQ_clean_linker_1, # of connection points: 2
#     Edge 54, Type (0, 0), BuildingBlock: KIFKEQ_clean_linker_1, # of connection points: 2
#     Edge 55, Type (0, 0), BuildingBlock: KIFKEQ_clean_linker_1, # of connection points: 2
#     Edge 56, Type (0, 0), BuildingBlock: KIFKEQ_clean_linker_1, # of connection points: 2
#     Edge 57, Type (0, 0), BuildingBlock: KIFKEQ_clean_linker_1, # of connection points: 2
#     Edge 58, Type (0, 0), BuildingBlock: KIFKEQ_clean_linker_1, # of connection points: 2
#     Edge 59, Type (0, 0), BuildingBlock: KIFKEQ_clean_linker_1, # of connection points: 2
#     Edge 60, Type (0, 0), BuildingBlock: KIFKEQ_clean_linker_1, # of connection points: 2
#     Edge 61, Type (0, 0), BuildingBlock: KIFKEQ_clean_linker_1, # of connection points: 2
#     Edge 62, Type (0, 0), BuildingBlock: KIFKEQ_clean_linker_1, # of connection points: 2
#     Edge 63, Type (0, 0), BuildingBlock: KIFKEQ_clean_linker_1, # of connection points: 2
#     Edge 64, Type (0, 0), BuildingBlock: KIFKEQ_clean_linker_1, # of connection points: 2
#     Edge 65, Type (0, 0), BuildingBlock: KIFKEQ_clean_linker_1, # of connection points: 2
#     Edge 66, Type (0, 0), BuildingBlock: KIFKEQ_clean_linker_1, # of connection points: 2
#     Edge 67, Type (0, 0), BuildingBlock: KIFKEQ_clean_linker_1, # of connection points: 2
#     Edge 68, Type (0, 0), BuildingBlock: KIFKEQ_clean_linker_1, # of connection points: 2
#     Edge 69, Type (0, 0), BuildingBlock: KIFKEQ_clean_linker_1, # of connection points: 2
#     Edge 70, Type (0, 0), BuildingBlock: KIFKEQ_clean_linker_1, # of connection points: 2
#     Edge 71, Type (0, 0), BuildingBlock: KIFKEQ_clean_linker_1, # of connection points: 2
#     Edge 72, Type (0, 0), BuildingBlock: KIFKEQ_clean_linker_1, # of connection points: 2
#     Edge 73, Type (0, 0), BuildingBlock: KIFKEQ_clean_linker_1, # of connection points: 2
#     Edge 74, Type (0, 0), BuildingBlock: KIFKEQ_clean_linker_1, # of connection points: 2
#     Edge 75, Type (0, 0), BuildingBlock: KIFKEQ_clean_linker_1, # of connection points: 2
#     Edge 76, Type (0, 0), BuildingBlock: KIFKEQ_clean_linker_1, # of connection points: 2
#     Edge 77, Type (0, 0), BuildingBlock: KIFKEQ_clean_linker_1, # of connection points: 2
#     Edge 78, Type (0, 0), BuildingBlock: KIFKEQ_clean_linker_1, # of connection points: 2
#     Edge 79, Type (0, 0), BuildingBlock: KIFKEQ_clean_linker_1, # of connection points: 2
#     Edge 80, Type (0, 0), BuildingBlock: KIFKEQ_clean_linker_1, # of connection points: 2
#     Edge 81, Type (0, 0), BuildingBlock: KIFKEQ_clean_linker_1, # of connection points: 2
#     Edge 82, Type (0, 0), BuildingBlock: KIFKEQ_clean_linker_1, # of connection points: 2
#     Edge 83, Type (0, 0), BuildingBlock: KIFKEQ_clean_linker_1, # of connection points: 2
#     Edge 84, Type (0, 0), BuildingBlock: KIFKEQ_clean_linker_1, # of connection points: 2
#     Edge 85, Type (0, 0), BuildingBlock: KIFKEQ_clean_linker_1, # of connection points: 2
#     Edge 86, Type (0, 0), BuildingBlock: KIFKEQ_clean_linker_1, # of connection points: 2
#     Edge 87, Type (0, 0), BuildingBlock: KIFKEQ_clean_linker_1, # of connection points: 2
#     Edge 88, Type (0, 0), BuildingBlock: KIFKEQ_clean_linker_1, # of connection points: 2
#     Edge 89, Type (0, 0), BuildingBlock: KIFKEQ_clean_linker_1, # of connection points: 2
#     Edge 90, Type (0, 0), BuildingBlock: KIFKEQ_clean_linker_1, # of connection points: 2
#     Edge 91, Type (0, 0), BuildingBlock: KIFKEQ_clean_linker_1, # of connection points: 2
#     Edge 92, Type (0, 0), BuildingBlock: KIFKEQ_clean_linker_1, # of connection points: 2
#     Edge 93, Type (0, 0), BuildingBlock: KIFKEQ_clean_linker_1, # of connection points: 2
#     Edge 94, Type (0, 0), BuildingBlock: KIFKEQ_clean_linker_1, # of connection points: 2
#     Edge 95, Type (0, 0), BuildingBlock: KIFKEQ_clean_linker_1, # of connection points: 2
#     Edge 96, Type (0, 0), BuildingBlock: KIFKEQ_clean_linker_1, # of connection points: 2
#     Edge 97, Type (0, 0), BuildingBlock: KIFKEQ_clean_linker_1, # of connection points: 2
#     Edge 98, Type (0, 0), BuildingBlock: KIFKEQ_clean_linker_1, # of connection points: 2
#     Edge 99, Type (0, 0), BuildingBlock: KIFKEQ_clean_linker_1, # of connection points: 2
#     Edge 100, Type (0, 0), BuildingBlock: KIFKEQ_clean_linker_1, # of connection points: 2
#     Edge 101, Type (0, 0), BuildingBlock: KIFKEQ_clean_linker_1, # of connection points: 2
#     Edge 102, Type (0, 0), BuildingBlock: KIFKEQ_clean_linker_1, # of connection points: 2
#     Edge 103, Type (0, 0), BuildingBlock: KIFKEQ_clean_linker_1, # of connection points: 2
#     Edge 104, Type (0, 0), BuildingBlock: KIFKEQ_clean_linker_1, # of connection points: 2
#     Edge 105, Type (0, 0), BuildingBlock: KIFKEQ_clean_linker_1, # of connection points: 2
#     Edge 106, Type (0, 0), BuildingBlock: KIFKEQ_clean_linker_1, # of connection points: 2
#     Edge 107, Type (0, 0), BuildingBlock: KIFKEQ_clean_linker_1, # of connection points: 2
# Relax obj value: 0.103
# Max RMSD: 0.228
# Mean RMSD: 0.228
data_MOF--net-unu--node1-GALJAG_clean_sbu_0--edge1-KIFKEQ_clean_linker_1
_symmetry_space_group_name_H-M    P1
_symmetry_Int_Tables_number       1
_symmetry_cell_setting            triclinic
loop_
_symmetry_equiv_pos_as_xyz
'x, y, z'
_cell_length_a     47.049329
_cell_length_b     47.005859
_cell_length_c     71.605242
_cell_angle_alpha  89.967878
_cell_angle_beta   90.013246
_cell_angle_gamma 120.03888
loop_
_atom_site_label
_atom_site_type_symbol
_atom_site_fract_x
_atom_site_fract_y
_atom_site_fract_z
_atom_type_partial_charge
In0 In 0.19841 0.05191 0.0993 0.0
O1 O 0.23575 0.04873 0.08081 0.0
O2 O 0.22223 0.02349 0.10742 0.0
C3 C 0.16643 0.08452 0.0971 0.0
C4 C 0.24255 0.09598 0.12194 0.0
C5 C 0.14663 0.99485 0.09021 0.0
O6 O 0.18479 0.08556 0.08367 0.0
O7 O 0.1647 0.06707 0.11104 0.0
O8 O 0.1554 0.00279 0.10713 0.0
O9 O 0.16423 0.01596 0.07798 0.0
C10 C 0.23974 0.03085 0.09278 0.0
O11 O 0.21779 0.06995 0.12817 0.0
O12 O 0.24423 0.09974 0.10431 0.0
In13 In 0.93592 0.1435 0.10046 0.0
O14 O 0.93847 0.1827 0.08026 0.0
O15 O 0.96182 0.19651 0.1071 0.0
C16 C 0.90091 0.08022 0.09149 0.0
C17 C 0.89403 0.14214 0.12558 0.0
C18 C -0.00555 0.14761 0.09851 0.0
O19 O 0.9081 0.10227 0.07915 0.0
O20 O 0.91103 0.09047 0.10781 0.0
O21 O 0.98119 0.14713 0.11401 0.0
O22 O 0.97812 0.14612 0.08416 0.0
C23 C 0.95488 0.20547 0.092 0.0
O24 O 0.92113 0.1444 0.13025 0.0
O25 O 0.8879 0.13963 0.10823 0.0
In26 In 0.86331 0.79601 0.09064 0.0
O27 O 0.81987 0.76041 0.07264 0.0
O28 O 0.81136 0.77633 0.0991 0.0
C29 C 0.92336 0.81586 0.07762 0.0
C30 C 0.86132 0.75218 0.11476 0.0
C31 C 0.86574 0.854 0.08958 0.0
O32 O 0.899 0.80461 0.06656 0.0
O33 O 0.91696 0.81665 0.09466 0.0
O34 O 0.86891 0.84189 0.10475 0.0
O35 O 0.86173 0.83691 0.07515 0.0
C36 C 0.79926 0.75862 0.08477 0.0
O37 O 0.86626 0.78007 0.12012 0.0
O38 O 0.85833 0.74719 0.0973 0.0
In39 In 0.01861 0.18425 0.39569 0.0
O40 O 0.01682 0.22289 0.41349 0.0
O41 O 0.98943 0.20738 0.38758 0.0
C42 C 0.05077 0.15178 0.39663 0.0
C43 C 0.06256 0.22833 0.37308 0.0
C44 C 0.9634 0.13361 0.40783 0.0
O45 O 0.05362 0.17121 0.40988 0.0
O46 O 0.03166 0.1491 0.38336 0.0
O47 O 0.96866 0.1406 0.39051 0.0
O48 O 0.98622 0.15256 0.41891 0.0
C49 C -0.00185 0.22613 0.40176 0.0
O50 O 0.03641 0.20378 0.36676 0.0
O51 O 0.06638 0.22973 0.3907 0.0
In52 In 0.79022 0.84999 0.41219 0.0
O53 O 0.77434 0.8534 0.38272 0.0
O54 O 0.74033 0.84193 0.40536 0.0
C55 C 0.85036 0.85762 0.41367 0.0
C56 C 0.75662 0.78518 0.41618 0.0
C57 C 0.80432 0.90784 0.42633 0.0
O58 O 0.8379 0.86013 0.39846 0.0
O59 O 0.83253 0.85176 0.42799 0.0
O60 O 0.79416 0.8829 0.4369 0.0
O61 O 0.80727 0.90317 0.40926 0.0
C62 C 0.74573 0.84632 0.38798 0.0
O63 O 0.75559 0.80385 0.42871 0.0
O64 O 0.7754 0.79959 0.40253 0.0
In65 In 0.14053 0.94075 0.39746 0.0
O66 O 0.14062 0.92261 0.36821 0.0
O67 O 0.14591 0.89686 0.39154 0.0
C68 C 0.13583 0.995 0.39622 0.0
C69 C 0.20351 0.9676 0.40675 0.0
C70 C 0.0791 0.90144 0.40911 0.0
O71 O 0.13652 0.98046 0.38145 0.0
O72 O 0.138 0.98229 0.41132 0.0
O73 O 0.10259 0.91481 0.42073 0.0
O74 O 0.08717 0.90722 0.39214 0.0
C75 C 0.14479 0.8994 0.37398 0.0
O76 O 0.1811 0.94786 0.41779 0.0
O77 O 0.19364 0.97414 0.39183 0.0
In78 In 0.80029 0.96156 0.89328 0.0
O79 O 0.7622 0.96517 0.91065 0.0
O80 O 0.77719 0.99013 0.88396 0.0
C81 C 0.83449 0.93121 0.89417 0.0
C82 C 0.75592 0.91545 0.87185 0.0
C83 C 0.851 0.01754 0.90431 0.0
O84 O 0.81558 0.92842 0.90772 0.0
O85 O 0.83561 0.94921 0.88062 0.0
O86 O 0.84338 0.01125 0.88712 0.0
O87 O 0.83252 0.99537 0.91588 0.0
C88 C 0.75889 0.98292 0.89828 0.0
O89 O 0.77982 0.9415 0.86496 0.0
O90 O 0.75516 0.91278 0.88956 0.0
In91 In 0.05517 0.85359 0.89294 0.0
O92 O 0.04818 0.81321 0.91347 0.0
O93 O 0.02097 0.80042 0.88784 0.0
C94 C 0.09573 0.91557 0.9034 0.0
C95 C 0.09517 0.84799 0.86903 0.0
C96 C 0.00093 0.85822 0.89274 0.0
O97 O 0.0833 0.89259 0.91541 0.0
O98 O 0.08826 0.90675 0.88663 0.0
O99 O 0.01429 0.85652 0.87771 0.0
O100 O 0.01498 0.8574 0.90761 0.0
C101 C 0.02774 0.79067 0.90273 0.0
O102 O 0.07221 0.85271 0.86349 0.0
O103 O 0.0981 0.84691 0.88656 0.0
In104 In 0.1395 0.20092 0.90817 0.0
O105 O 0.14101 0.21602 0.8779 0.0
O106 O 0.13494 0.24439 0.89933 0.0
C107 C 0.14125 0.14462 0.90842 0.0
C108 C 0.20115 0.24458 0.91728 0.0
C109 C 0.07878 0.17944 0.92068 0.0
O110 O 0.13722 0.15671 0.89353 0.0
O111 O 0.14444 0.16101 0.923 0.0
O112 O 0.1032 0.19445 0.93151 0.0
O113 O 0.08523 0.17516 0.90419 0.0
C114 C 0.13791 0.24056 0.88209 0.0
O115 O 0.17848 0.23438 0.92941 0.0
O116 O 0.19256 0.23216 0.90125 0.0
In117 In 0.94373 0.79304 0.59326 0.0
O118 O 0.95172 0.75804 0.57485 0.0
O119 O 0.97831 0.7755 0.60059 0.0
C120 C 0.90036 0.80942 0.58112 0.0
C121 C 0.90407 0.7481 0.61765 0.0
C122 C -0.00295 0.85278 0.59183 0.0
O123 O 0.91447 0.7998 0.56971 0.0
O124 O 0.90826 0.81048 0.59805 0.0
O125 O 0.98263 0.84006 0.60713 0.0
O126 O 0.98441 0.83526 0.57748 0.0
C127 C 0.97181 0.75721 0.58644 0.0
O128 O 0.92656 0.77629 0.62297 0.0
O129 O 0.90152 0.74342 0.60017 0.0
In130 In 0.19727 0.15167 0.59721 0.0
O131 O 0.23406 0.18983 0.5767 0.0
O132 O 0.22142 0.20529 0.60202 0.0
C133 C 0.17124 0.08797 0.58995 0.0
C134 C 0.23965 0.15321 0.62212 0.0
C135 C 0.14106 0.15224 0.59466 0.0
O136 O 0.18468 0.10915 0.577 0.0
O137 O 0.17137 0.09926 0.60598 0.0
O138 O 0.15472 0.1542 0.61026 0.0
O139 O 0.15603 0.1503 0.58048 0.0
C140 C 0.23861 0.21342 0.58736 0.0
O141 O 0.21471 0.15515 0.627 0.0
O142 O 0.24254 0.14996 0.60478 0.0
In143 In 0.83753 0.0311 0.59971 0.0
O144 O 0.83559 0.0473 0.62915 0.0
O145 O 0.83602 0.07679 0.6059 0.0
C146 C 0.83646 0.97545 0.59186 0.0
C147 C 0.77471 0.00765 0.59269 0.0
C148 C 0.90175 0.06866 0.59575 0.0
O149 O 0.8355 0.98411 0.60858 0.0
O150 O 0.83784 0.99503 0.57921 0.0
O151 O 0.88242 0.0668 0.5827 0.0
O152 O 0.8882 0.05147 0.61014 0.0
C153 C 0.83478 0.07257 0.62346 0.0
O154 O 0.79651 0.02678 0.58106 0.0
O155 O 0.78514 6e-05 0.60709 0.0
In156 In 0.86345 0.39731 0.4261 0.0
O157 O 0.8963 0.38776 0.40658 0.0
O158 O 0.88284 0.36434 0.4334 0.0
C159 C 0.8439 0.43765 0.4126 0.0
C160 C 0.9085 0.43787 0.4502 0.0
C161 C 0.80451 0.34273 0.42727 0.0
O162 O 0.85361 0.42297 0.4017 0.0
O163 O 0.84509 0.43242 0.42977 0.0
O164 O 0.81794 0.35955 0.44181 0.0
O165 O 0.82081 0.35371 0.41238 0.0
C166 C 0.89867 0.36885 0.41841 0.0
O167 O 0.88045 0.41528 0.45555 0.0
O168 O 0.91315 0.44031 0.43271 0.0
In169 In 0.60079 0.47486 0.41629 0.0
O170 O 0.58142 0.47211 0.44542 0.0
O171 O 0.55656 0.47942 0.4222 0.0
C172 C 0.65637 0.47362 0.41231 0.0
C173 C 0.62841 0.53929 0.41305 0.0
C174 C 0.55993 0.41337 0.40642 0.0
O175 O 0.64324 0.47101 0.4282 0.0
O176 O 0.64101 0.47633 0.39852 0.0
O177 O 0.56906 0.43636 0.39444 0.0
O178 O 0.57174 0.4218 0.42266 0.0
C179 C 0.55839 0.47672 0.43974 0.0
O180 O 0.61123 0.52059 0.3997 0.0
O181 O 0.63204 0.52511 0.42711 0.0
In182 In 0.50753 0.13446 0.43566 0.0
O183 O 0.46835 0.09505 0.41699 0.0
O184 O 0.45452 0.11015 0.44217 0.0
C185 C 0.57162 0.1627 0.43014 0.0
C186 C 0.50694 0.0943 0.46169 0.0
C187 C 0.50386 0.18738 0.42661 0.0
O188 O 0.55155 0.14525 0.41738 0.0
O189 O 0.55904 0.16543 0.44517 0.0
O190 O 0.5046 0.17961 0.44355 0.0
O191 O 0.50488 0.16828 0.4145 0.0
C192 C 0.44553 0.0915 0.42804 0.0
O193 O 0.50405 0.11906 0.46586 0.0
O194 O 0.51084 0.09068 0.44449 0.0
In195 In 0.71563 0.52691 0.73141 0.0
O196 O 0.73012 0.54314 0.70149 0.0
O197 O 0.76364 0.57089 0.72358 0.0
C198 C 0.65736 0.47223 0.7352 0.0
C199 C 0.69817 0.57109 0.73931 0.0
C200 C 0.75273 0.50094 0.74004 0.0
O201 O 0.67041 0.4827 0.7193 0.0
O202 O 0.67369 0.4896 0.74894 0.0
O203 O 0.74598 0.51618 0.75234 0.0
O204 O 0.74061 0.49899 0.72403 0.0
C205 C 0.75747 0.56773 0.70623 0.0
O206 O 0.71334 0.56371 0.75135 0.0
O207 O 0.6912 0.55535 0.72413 0.0
In208 In 0.46047 0.17904 0.73393 0.0
O209 O 0.44367 0.18084 0.70466 0.0
O210 O 0.41233 0.17573 0.72794 0.0
C211 C 0.51701 0.18001 0.73855 0.0
C212 C 0.4226 0.11494 0.73895 0.0
C213 C 0.48293 0.24148 0.74266 0.0
O214 O 0.50646 0.18155 0.72244 0.0
O215 O 0.49893 0.17816 0.75214 0.0
O216 O 0.46902 0.2192 0.75504 0.0
O217 O 0.4853 0.23187 0.72655 0.0
C218 C 0.4166 0.17764 0.71038 0.0
O219 O 0.42452 0.13512 0.75148 0.0
O220 O 0.44043 0.12753 0.72467 0.0
In221 In 0.80748 0.26729 0.73505 0.0
O222 O 0.84851 0.27267 0.7545 0.0
O223 O 0.86023 0.29684 0.72783 0.0
C224 C 0.74531 0.2286 0.74503 0.0
C225 C 0.80812 0.22538 0.71054 0.0
C226 C 0.80691 0.32366 0.73732 0.0
O227 O 0.76812 0.23804 0.75709 0.0
O228 O 0.75426 0.2387 0.72855 0.0
O229 O 0.80461 0.30967 0.72178 0.0
O230 O 0.80955 0.30911 0.7515 0.0
C231 C 0.8705 0.29062 0.7427 0.0
O232 O 0.8092 0.25178 0.70537 0.0
O233 O 0.80622 0.22025 0.72799 0.0
In234 In 0.46639 0.2834 0.23453 0.0
O235 O 0.4291 0.28673 0.25354 0.0
O236 O 0.44504 0.31516 0.22836 0.0
C237 C 0.48569 0.24174 0.24561 0.0
C238 C 0.425 0.24407 0.20863 0.0
C239 C 0.5246 0.33848 0.23717 0.0
O240 O 0.47357 0.25314 0.25725 0.0
O241 O 0.48802 0.25163 0.22899 0.0
O242 O 0.513 0.3246 0.22161 0.0
O243 O 0.50674 0.32445 0.25121 0.0
C244 C 0.42666 0.30664 0.24253 0.0
O245 O 0.45085 0.27058 0.20423 0.0
O246 O 0.42075 0.23763 0.2259 0.0
In247 In 0.70978 0.17771 0.2408 0.0
O248 O 0.72549 0.17761 0.21096 0.0
O249 O 0.75504 0.17607 0.2335 0.0
C250 C 0.6528 0.17659 0.24413 0.0
C251 C 0.68948 0.11518 0.2481 0.0
C252 C 0.74988 0.24054 0.24909 0.0
O253 O 0.66563 0.17794 0.22833 0.0
O254 O 0.66878 0.17564 0.25809 0.0
O255 O 0.74141 0.21861 0.26165 0.0
O256 O 0.73786 0.23048 0.23306 0.0
C257 C 0.75047 0.17584 0.21604 0.0
O258 O 0.70562 0.13721 0.26027 0.0
O259 O 0.68258 0.12489 0.23323 0.0
In260 In 0.82009 0.53169 0.23159 0.0
O261 O 0.82294 0.54689 0.20132 0.0
O262 O 0.82079 0.57771 0.22284 0.0
C263 C 0.81748 0.47433 0.2371 0.0
C264 C 0.88336 0.57124 0.23866 0.0
C265 C 0.75778 0.51043 0.24022 0.0
O266 O 0.8162 0.48447 0.22085 0.0
O267 O 0.82029 0.49335 0.25036 0.0
O268 O 0.78013 0.52447 0.2525 0.0
O269 O 0.76725 0.50753 0.22419 0.0
C270 C 0.82295 0.57316 0.20558 0.0
O271 O 0.86163 0.56947 0.24997 0.0
O272 O 0.87269 0.55226 0.22472 0.0
In273 In 0.60124 0.1326 0.92034 0.0
O274 O 0.58697 0.11695 0.95047 0.0
O275 O 0.55632 0.08537 0.92855 0.0
C276 C 0.65525 0.19222 0.91993 0.0
C277 C 0.62786 0.09549 0.9128 0.0
C278 C 0.55859 0.14934 0.90729 0.0
O279 O 0.6396 0.17922 0.93485 0.0
O280 O 0.64339 0.17517 0.90536 0.0
O281 O 0.57253 0.13897 0.89627 0.0
O282 O 0.56646 0.15122 0.92427 0.0
C283 C 0.56162 0.09017 0.9459 0.0
O284 O 0.60875 0.09782 0.90115 0.0
O285 O 0.63365 0.11241 0.92744 0.0
In286 In 0.86745 0.48528 0.93493 0.0
O287 O 0.8867 0.48694 0.96404 0.0
O288 O 0.91295 0.48271 0.9406 0.0
C289 C 0.81059 0.48475 0.93435 0.0
C290 C 0.90696 0.54801 0.92607 0.0
C291 C 0.84049 0.42236 0.9253 0.0
O292 O 0.82428 0.48453 0.94959 0.0
O293 O 0.82605 0.48586 0.91967 0.0
O294 O 0.85396 0.44489 0.91306 0.0
O295 O 0.84147 0.432 0.94188 0.0
C296 C 0.91112 0.48497 0.95814 0.0
O297 O 0.90198 0.52533 0.91458 0.0
O298 O 0.89145 0.53856 0.94131 0.0
In299 In 0.5053 0.37204 0.93223 0.0
O300 O 0.50636 0.39218 0.96079 0.0
O301 O 0.51071 0.42149 0.93644 0.0
C302 C 0.49769 0.31464 0.92194 0.0
C303 C 0.44327 0.35397 0.92744 0.0
C304 C 0.56979 0.40211 0.93043 0.0
O305 O 0.49725 0.32188 0.93905 0.0
O306 O 0.50164 0.33652 0.91012 0.0
O307 O 0.55323 0.40524 0.91726 0.0
O308 O 0.55336 0.38364 0.94392 0.0
C309 C 0.50921 0.41867 0.95414 0.0
O310 O 0.46416 0.36904 0.91447 0.0
O311 O 0.45395 0.34739 0.94216 0.0
In312 In 0.53397 0.70834 0.76504 0.0
O313 O 0.56825 0.70568 0.74322 0.0
O314 O 0.56579 0.68697 0.77088 0.0
C315 C 0.5061 0.74364 0.75588 0.0
C316 C 0.57494 0.75226 0.78936 0.0
C317 C 0.47931 0.64946 0.76459 0.0
O318 O 0.52067 0.73608 0.74359 0.0
O319 O 0.50583 0.73331 0.77219 0.0
O320 O 0.49307 0.6636 0.77974 0.0
O321 O 0.49359 0.66483 0.7499 0.0
C322 C 0.57872 0.69268 0.7549 0.0
O323 O 0.55184 0.72436 0.7946 0.0
O324 O 0.57669 0.75781 0.77196 0.0
In325 In 0.27534 0.80517 0.75397 0.0
O326 O 0.26081 0.80609 0.78401 0.0
O327 O 0.23039 0.80732 0.76201 0.0
C328 C 0.32919 0.79978 0.7529 0.0
C329 C 0.30218 0.8693 0.74744 0.0
C330 C 0.23338 0.74495 0.74169 0.0
O331 O 0.31403 0.79723 0.76801 0.0
O332 O 0.31703 0.80501 0.73846 0.0
O333 O 0.24649 0.76893 0.73034 0.0
O334 O 0.24151 0.75178 0.75859 0.0
C335 C 0.23558 0.80766 0.77938 0.0
O336 O 0.28265 0.84842 0.73564 0.0
O337 O 0.30843 0.8574 0.7616 0.0
In338 In 0.17542 0.46365 0.7681 0.0
O339 O 0.17182 0.44565 0.79774 0.0
O340 O 0.17438 0.41687 0.77498 0.0
C341 C 0.17383 0.51721 0.75813 0.0
C342 C 0.11298 0.42343 0.76055 0.0
C343 C 0.23996 0.49165 0.7657 0.0
O344 O 0.17215 0.50867 0.77515 0.0
O345 O 0.17622 0.49846 0.74625 0.0
O346 O 0.22166 0.47314 0.7526 0.0
O347 O 0.22526 0.49557 0.77944 0.0
C348 C 0.17176 0.41973 0.79244 0.0
O349 O 0.1353 0.42608 0.74934 0.0
O350 O 0.12272 0.44192 0.7748 0.0
In351 In 0.37929 0.86727 0.06115 0.0
O352 O 0.3936 0.88496 0.03138 0.0
O353 O 0.42372 0.91528 0.05397 0.0
C354 C 0.32332 0.81112 0.06625 0.0
C355 C 0.35631 0.90601 0.07131 0.0
C356 C 0.41815 0.84195 0.06547 0.0
O357 O 0.33234 0.82422 0.05022 0.0
O358 O 0.34262 0.82654 0.0796 0.0
O359 O 0.41468 0.85814 0.07867 0.0
O360 O 0.4021 0.83908 0.05073 0.0
C361 C 0.41859 0.91169 0.03652 0.0
O362 O 0.37584 0.90219 0.082 0.0
O363 O 0.3482 0.88944 0.05637 0.0
In364 In 0.13621 0.50815 0.06563 0.0
O365 O 0.09983 0.46922 0.08565 0.0
O366 O 0.11387 0.45493 0.06024 0.0
C367 C 0.16324 0.57262 0.06955 0.0
C368 C 0.09131 0.50491 0.04219 0.0
C369 C 0.19157 0.50708 0.0705 0.0
O370 O 0.14762 0.55344 0.08307 0.0
O371 O 0.16485 0.55882 0.05473 0.0
O372 O 0.17838 0.50329 0.05452 0.0
O373 O 0.17654 0.51122 0.08399 0.0
C374 C 0.09624 0.44614 0.07479 0.0
O375 O 0.11724 0.50574 0.0363 0.0
O376 O 0.08882 0.50635 0.05975 0.0
In377 In 0.4937 0.62457 0.06194 0.0
O378 O 0.49604 0.60883 0.03239 0.0
O379 O 0.49005 0.57641 0.0552 0.0
C380 C 0.49582 0.68182 0.06595 0.0
C381 C 0.55588 0.64534 0.07019 0.0
C382 C 0.42973 0.58805 0.06807 0.0
O383 O 0.49761 0.6709 0.05004 0.0
O384 O 0.49317 0.6638 0.07977 0.0
O385 O 0.4502 0.59146 0.08077 0.0
O386 O 0.44203 0.60331 0.05297 0.0
C387 C 0.49308 0.58168 0.03775 0.0
O388 O 0.53334 0.62808 0.08191 0.0
O389 O 0.54651 0.65236 0.05523 0.0
In390 In 0.12751 0.60573 0.56975 0.0
O391 O 0.08921 0.60899 0.58797 0.0
O392 O 0.10548 0.63607 0.56224 0.0
C393 C 0.14909 0.56479 0.57778 0.0
C394 C 0.08787 0.56826 0.5428 0.0
C395 C 0.18314 0.66167 0.57654 0.0
O396 O 0.13355 0.57134 0.58999 0.0
O397 O 0.15358 0.57905 0.5622 0.0
O398 O 0.17407 0.65097 0.56006 0.0
O399 O 0.1642 0.64385 0.58944 0.0
C400 C 0.08677 0.6281 0.57627 0.0
O401 O 0.11433 0.5948 0.53919 0.0
O402 O 0.08225 0.5606 0.55992 0.0
In403 In 0.38136 0.51595 0.55797 0.0
O404 O 0.38245 0.47697 0.57668 0.0
O405 O 0.3541 0.46276 0.55139 0.0
C406 C 0.41794 0.57906 0.56689 0.0
C407 C 0.42034 0.51697 0.53098 0.0
C408 C 0.32337 0.51166 0.56398 0.0
O409 O 0.41213 0.55685 0.5789 0.0
O410 O 0.40549 0.56907 0.55093 0.0
O411 O 0.33507 0.51461 0.54766 0.0
O412 O 0.341 0.5108 0.57705 0.0
C413 C 0.36394 0.45402 0.56551 0.0
O414 O 0.39255 0.51411 0.52741 0.0
O415 O 0.4284 0.52019 0.54806 0.0
In416 In 0.46708 0.86716 0.5731 0.0
O417 O 0.46504 0.88525 0.54414 0.0
O418 O 0.47227 0.91654 0.56769 0.0
C419 C 0.46392 0.80883 0.57265 0.0
C420 C 0.5311 0.90305 0.57942 0.0
C421 C 0.40657 0.84614 0.58569 0.0
O422 O 0.46112 0.82207 0.55784 0.0
O423 O 0.46802 0.82501 0.58748 0.0
O424 O 0.43059 0.8569 0.59699 0.0
O425 O 0.41362 0.84666 0.56864 0.0
C426 C 0.46972 0.91272 0.55013 0.0
O427 O 0.51055 0.90033 0.59187 0.0
O428 O 0.51891 0.88717 0.56453 0.0
In429 In 0.26903 0.45479 0.26752 0.0
O430 O 0.2762 0.4206 0.24773 0.0
O431 O 0.29819 0.43124 0.27494 0.0
C432 C 0.23231 0.47958 0.25574 0.0
C433 C 0.2245 0.4109 0.29054 0.0
C434 C 0.32505 0.51232 0.26828 0.0
O435 O 0.24372 0.46731 0.24418 0.0
O436 O 0.23921 0.47865 0.27269 0.0
O437 O 0.30977 0.49818 0.28313 0.0
O438 O 0.31208 0.49716 0.2533 0.0
C439 C 0.29322 0.41578 0.25978 0.0
O440 O 0.25034 0.43584 0.29658 0.0
O441 O 0.22116 0.40869 0.27295 0.0
In442 In 0.52898 0.81629 0.27208 0.0
O443 O 0.56638 0.85002 0.25043 0.0
O444 O 0.56248 0.86929 0.27705 0.0
C445 C 0.49335 0.75141 0.26928 0.0
C446 C 0.56761 0.81427 0.29829 0.0
C447 C 0.47984 0.82685 0.26383 0.0
O448 O 0.5145 0.76822 0.2568 0.0
O449 O 0.4908 0.76768 0.28259 0.0
O450 O 0.48886 0.82696 0.28058 0.0
O451 O 0.49613 0.82198 0.25143 0.0
C452 C 0.57678 0.87453 0.26144 0.0
O453 O 0.54559 0.82154 0.30212 0.0
O454 O 0.56915 0.80722 0.28136 0.0
In455 In 0.19081 0.72195 0.25879 0.0
O456 O 0.14878 0.71652 0.2401 0.0
O457 O 0.13826 0.69062 0.26615 0.0
C458 C 0.25207 0.76441 0.24862 0.0
C459 C 0.18829 0.76078 0.28477 0.0
C460 C 0.19333 0.66668 0.25546 0.0
O461 O 0.22889 0.75419 0.23677 0.0
O462 O 0.24406 0.75287 0.26492 0.0
O463 O 0.19527 0.67995 0.27118 0.0
O464 O 0.19049 0.68161 0.24152 0.0
C465 C 0.12728 0.69754 0.25182 0.0
O466 O 0.18899 0.73491 0.28907 0.0
O467 O 0.18953 0.767 0.26748 0.0
H468 H 0.30395 0.14319 0.11178 0.0
H469 H 0.24068 0.10139 0.15974 0.0
H470 H 0.34921 0.17911 0.13217 0.0
H471 H 0.28545 0.13842 0.18016 0.0
H472 H 0.37897 0.18012 0.21319 0.0
H473 H 0.33524 0.14514 0.19179 0.0
H474 H 0.37041 0.22528 0.15218 0.0
H475 H 0.41526 0.25979 0.17341 0.0
C476 C 0.29961 0.1421 0.12669 0.0
C477 C 0.26891 0.11944 0.13423 0.0
C478 C 0.32552 0.16279 0.13838 0.0
C479 C 0.3211 0.16153 0.15783 0.0
C480 C 0.28997 0.13951 0.16528 0.0
C481 C 0.26421 0.11847 0.1536 0.0
C482 C 0.37748 0.19013 0.19983 0.0
C483 C 0.40036 0.2226 0.19491 0.0
C484 C 0.35222 0.17021 0.18763 0.0
C485 C 0.34894 0.18251 0.17037 0.0
C486 C 0.37235 0.2149 0.16529 0.0
C487 C 0.398 0.2347 0.17743 0.0
H488 H 0.79413 0.15602 0.22393 0.0
H489 H 0.7544 0.18537 0.17827 0.0
H490 H 0.82765 0.14593 0.20219 0.0
H491 H 0.78926 0.17677 0.15641 0.0
H492 H 0.83061 0.12667 0.1204 0.0
H493 H 0.7955 0.13441 0.14237 0.0
H494 H 0.87419 0.17351 0.18295 0.0
H495 H 0.90857 0.16427 0.16129 0.0
C496 C 0.79296 0.16078 0.20922 0.0
C497 C 0.7718 0.17157 0.20274 0.0
C498 C 0.81229 0.15513 0.19676 0.0
C499 C 0.81125 0.16062 0.17755 0.0
C500 C 0.79025 0.17177 0.17109 0.0
C501 C 0.77051 0.17698 0.18358 0.0
C502 C 0.84018 0.13659 0.13411 0.0
C503 C 0.87218 0.14476 0.13923 0.0
C504 C 0.82022 0.14134 0.14662 0.0
C505 C 0.83208 0.15477 0.16439 0.0
C506 C 0.86407 0.16263 0.1695 0.0
C507 C 0.88383 0.15743 0.15709 0.0
H508 H 0.81157 0.62384 0.21041 0.0
H509 H 0.844 0.57863 0.16956 0.0
H510 H 0.82135 0.66703 0.18825 0.0
H511 H 0.85515 0.62265 0.14754 0.0
H512 H 0.83927 0.68803 0.10679 0.0
H513 H 0.82913 0.64413 0.12844 0.0
H514 H 0.86526 0.71409 0.17389 0.0
H515 H 0.87408 0.75786 0.15221 0.0
C516 C 0.82086 0.62321 0.19667 0.0
C517 C 0.82701 0.59793 0.19166 0.0
C518 C 0.82678 0.64814 0.18403 0.0
C519 C 0.83937 0.64854 0.16618 0.0
C520 C 0.84511 0.62291 0.1611 0.0
C521 C 0.83879 0.59772 0.1737 0.0
C522 C 0.8452 0.69406 0.1214 0.0
C523 C 0.8574 0.72632 0.12786 0.0
C524 C 0.83954 0.6689 0.1338 0.0
C525 C 0.84629 0.67552 0.15292 0.0
C526 C 0.85919 0.70802 0.1593 0.0
C527 C 0.8645 0.73315 0.14689 0.0
H528 H 0.10845 0.28986 0.3835 0.0
H529 H 0.07024 0.22635 0.33539 0.0
H530 H 0.14679 0.33461 0.36368 0.0
H531 H 0.10994 0.27068 0.31551 0.0
H532 H 0.16145 0.3653 0.28236 0.0
H533 H 0.12205 0.32134 0.30238 0.0
H534 H 0.19492 0.35353 0.34627 0.0
H535 H 0.23359 0.39851 0.32651 0.0
C536 C 0.10862 0.28538 0.36867 0.0
C537 C 0.08647 0.25469 0.36093 0.0
C538 C 0.13075 0.31099 0.3573 0.0
C539 C 0.13161 0.30632 0.33797 0.0
C540 C 0.10959 0.27537 0.33028 0.0
C541 C 0.08702 0.24987 0.34165 0.0
C542 C 0.16887 0.36304 0.29636 0.0
C543 C 0.20044 0.38527 0.30296 0.0
C544 C 0.14642 0.33767 0.30778 0.0
C545 C 0.1553 0.33369 0.32593 0.0
C546 C 0.18699 0.35613 0.3325 0.0
C547 C 0.20923 0.38186 0.32118 0.0
H548 H 0.68213 0.82608 0.39632 0.0
H549 H 0.75051 0.8567 0.35024 0.0
H550 H 0.6382 0.8168 0.37492 0.0
H551 H 0.70657 0.84829 0.32878 0.0
H552 H 0.6137 0.7961 0.29371 0.0
H553 H 0.65667 0.80376 0.31554 0.0
H554 H 0.6201 0.84658 0.35553 0.0
H555 H 0.57655 0.83809 0.33385 0.0
C556 C 0.68784 0.83113 0.3816 0.0
C557 C 0.71974 0.84214 0.37491 0.0
C558 C 0.66267 0.82595 0.36936 0.0
C559 C 0.66888 0.83181 0.35016 0.0
C560 C 0.70091 0.8431 0.34348 0.0
C561 C 0.72612 0.84815 0.35575 0.0
C562 C 0.61467 0.80689 0.30726 0.0
C563 C 0.59179 0.81649 0.31213 0.0
C564 C 0.63947 0.81154 0.31967 0.0
C565 C 0.64197 0.82604 0.33719 0.0
C566 C 0.61864 0.83505 0.3422 0.0
C567 C 0.59372 0.83025 0.32979 0.0
H568 H 0.16713 0.85791 0.38293 0.0
H569 H 0.13415 0.89247 0.33641 0.0
H570 H 0.1791 0.82477 0.36181 0.0
H571 H 0.14473 0.85816 0.31528 0.0
H572 H 0.20026 0.82301 0.27998 0.0
H573 H 0.18975 0.85612 0.30193 0.0
H574 H 0.15479 0.77744 0.34248 0.0
H575 H 0.16674 0.7449 0.32068 0.0
C576 C 0.162 0.85802 0.36819 0.0
C577 C 0.14981 0.87778 0.36125 0.0
C578 C 0.16873 0.83891 0.3561 0.0
C579 C 0.16304 0.8389 0.33684 0.0
C580 C 0.15007 0.85814 0.32999 0.0
C581 C 0.14374 0.87758 0.34208 0.0
C582 C 0.19061 0.81295 0.29366 0.0
C583 C 0.18427 0.78145 0.29868 0.0
C584 C 0.18427 0.83177 0.30618 0.0
C585 C 0.17101 0.81928 0.32389 0.0
C586 C 0.1653 0.78794 0.32902 0.0
C587 C 0.17208 0.76927 0.31656 0.0
H588 H 0.61648 0.81708 0.78304 0.0
H589 H 0.58887 0.74115 0.82465 0.0
H590 H 0.65978 0.85623 0.80341 0.0
H591 H 0.63323 0.77991 0.84481 0.0
H592 H 0.69616 0.86648 0.88318 0.0
H593 H 0.65116 0.82723 0.86371 0.0
H594 H 0.7119 0.8682 0.81463 0.0
H595 H 0.75635 0.90841 0.83411 0.0
C596 C 0.61976 0.80881 0.79658 0.0
C597 C 0.59944 0.77617 0.80231 0.0
C598 C 0.64476 0.83113 0.80818 0.0
C599 C 0.65027 0.82114 0.82566 0.0
C600 C 0.62945 0.78853 0.83152 0.0
C601 C 0.6041 0.7663 0.81999 0.0
C602 C 0.69988 0.86696 0.86823 0.0
C603 C 0.72964 0.89049 0.86011 0.0
C604 C 0.67415 0.84439 0.85708 0.0
C605 C 0.67783 0.84464 0.83759 0.0
C606 C 0.70797 0.86778 0.82955 0.0
C607 C 0.73354 0.89064 0.8407 0.0
H608 H 0.13509 0.82357 0.87738 0.0
H609 H 0.10263 0.86009 0.83158 0.0
H610 H 0.16827 0.81214 0.856 0.0
H611 H 0.13706 0.85014 0.8102 0.0
H612 H 0.17412 0.7974 0.77374 0.0
H613 H 0.14006 0.8066 0.79567 0.0
H614 H 0.21622 0.83747 0.83751 0.0
H615 H 0.24958 0.82671 0.81574 0.0
C616 C 0.13542 0.82954 0.86274 0.0
C617 C 0.11631 0.84267 0.85609 0.0
C618 C 0.15457 0.82315 0.85049 0.0
C619 C 0.15534 0.83017 0.83136 0.0
C620 C 0.13655 0.84382 0.82479 0.0
C621 C 0.11702 0.84979 0.83702 0.0
C622 C 0.18341 0.80589 0.78769 0.0
C623 C 0.21441 0.81135 0.79309 0.0
C624 C 0.16405 0.81147 0.8002 0.0
C625 C 0.17551 0.82311 0.81831 0.0
C626 C 0.20643 0.82812 0.82376 0.0
C627 C 0.2256 0.82206 0.8113 0.0
H628 H 0.16274 0.24991 0.84682 0.0
H629 H 0.11873 0.28588 0.88627 0.0
H630 H 0.17173 0.29367 0.82516 0.0
H631 H 0.12618 0.32869 0.86436 0.0
H632 H 0.17674 0.42281 0.83048 0.0
H633 H 0.16803 0.37867 0.85183 0.0
H634 H 0.14573 0.31291 0.80488 0.0
H635 H 0.15599 0.35739 0.78366 0.0
C636 C 0.15442 0.26683 0.85068 0.0
C637 C 0.14013 0.26463 0.86819 0.0
C638 C 0.15949 0.29188 0.83827 0.0
C639 C 0.14989 0.31492 0.84305 0.0
C640 C 0.1346 0.31191 0.86038 0.0
C641 C 0.13001 0.28719 0.87287 0.0
C642 C 0.17016 0.39894 0.82479 0.0
C643 C 0.16717 0.39353 0.80546 0.0
C644 C 0.16489 0.37354 0.837 0.0
C645 C 0.15603 0.34212 0.83009 0.0
C646 C 0.15305 0.33687 0.8107 0.0
C647 C 0.15878 0.36235 0.79852 0.0
H648 H 0.82033 0.61626 0.71227 0.0
H649 H 0.74469 0.57541 0.67003 0.0
H650 H 0.85623 0.6597 0.6908 0.0
H651 H 0.78008 0.61955 0.64874 0.0
H652 H 0.86293 0.68401 0.60932 0.0
H653 H 0.82857 0.63965 0.63054 0.0
H654 H 0.86188 0.70834 0.6766 0.0
H655 H 0.89741 0.75268 0.65531 0.0
C656 C 0.81142 0.61659 0.69836 0.0
C657 C 0.77979 0.59248 0.69276 0.0
C658 C 0.83186 0.64165 0.68613 0.0
C659 C 0.82097 0.64327 0.6681 0.0
C660 C 0.78942 0.6188 0.66244 0.0
C661 C 0.76909 0.59354 0.67463 0.0
C662 C 0.86288 0.68967 0.62398 0.0
C663 C 0.88277 0.72178 0.6307 0.0
C664 C 0.84304 0.66424 0.63613 0.0
C665 C 0.84236 0.67042 0.65526 0.0
C666 C 0.8622 0.70265 0.66198 0.0
C667 C 0.88236 0.7281 0.6498 0.0
H668 H 0.35337 0.15863 0.71893 0.0
H669 H 0.42211 0.19074 0.67301 0.0
H670 H 0.31008 0.15202 0.69778 0.0
H671 H 0.37907 0.18548 0.65186 0.0
H672 H 0.28742 0.13803 0.616 0.0
H673 H 0.33015 0.14414 0.63751 0.0
H674 H 0.29172 0.18192 0.67955 0.0
H675 H 0.2481 0.17445 0.6582 0.0
C676 C 0.35929 0.16466 0.70432 0.0
C677 C 0.39103 0.17513 0.69756 0.0
C678 C 0.33452 0.16105 0.69221 0.0
C679 C 0.34107 0.1682 0.67312 0.0
C680 C 0.37305 0.17919 0.66643 0.0
C681 C 0.39776 0.18243 0.67853 0.0
C682 C 0.28804 0.14746 0.62989 0.0
C683 C 0.2645 0.15573 0.63549 0.0
C684 C 0.31268 0.15125 0.64215 0.0
C685 C 0.31453 0.16377 0.66021 0.0
C686 C 0.29076 0.17182 0.66583 0.0
C687 C 0.26584 0.16764 0.65361 0.0
H688 H 0.82983 0.2376 0.67457 0.0
H689 H 0.79186 0.16211 0.71698 0.0
H690 H 0.83736 0.20106 0.65361 0.0
H691 H 0.7978 0.12494 0.69581 0.0
H692 H 0.84445 0.07839 0.66119 0.0
H693 H 0.83816 0.11587 0.68209 0.0
H694 H 0.80891 0.15354 0.63523 0.0
H695 H 0.81679 0.11733 0.61438 0.0
C696 C 0.82262 0.21298 0.67927 0.0
C697 C 0.81035 0.20264 0.69735 0.0
C698 C 0.82681 0.19198 0.66727 0.0
C699 C 0.8183 0.16004 0.67304 0.0
C700 C 0.8053 0.14957 0.69104 0.0
C701 C 0.8016 0.17074 0.70311 0.0
C702 C 0.83683 0.09483 0.65543 0.0
C703 C 0.83124 0.09511 0.63621 0.0
C704 C 0.83298 0.11614 0.66738 0.0
C705 C 0.82295 0.13773 0.66035 0.0
C706 C 0.81725 0.13775 0.64109 0.0
C707 C 0.82159 0.11685 0.62915 0.0
H708 H 0.08428 0.58663 0.50713 0.0
H709 H 0.03673 0.50599 0.54608 0.0
H710 H 0.0406 0.55619 0.4845 0.0
H711 H 0.99382 0.475 0.5233 0.0
H712 H 0.90349 0.44314 0.48784 0.0
H713 H 0.94783 0.47529 0.50975 0.0
H714 H 0.01748 0.50999 0.46416 0.0
H715 H 0.97296 0.47893 0.44225 0.0
C716 C 0.06479 0.56216 0.5107 0.0
C717 C 0.06375 0.54867 0.52834 0.0
C718 C 0.03978 0.54468 0.49775 0.0
C719 C 0.0135 0.51326 0.50216 0.0
C720 C 0.01323 0.49944 0.51961 0.0
C721 C 0.03798 0.51705 0.5326 0.0
C722 C 0.92826 0.45787 0.48253 0.0
C723 C 0.93482 0.45858 0.46338 0.0
C724 C 0.95372 0.47607 0.49507 0.0
C725 C 0.98629 0.49501 0.48873 0.0
C726 C 0.99267 0.49601 0.4695 0.0
C727 C 0.96717 0.47811 0.45695 0.0
H728 H 0.40297 0.49403 0.4954 0.0
H729 H 0.48398 0.53264 0.53431 0.0
H730 H 0.43538 0.48301 0.47301 0.0
H731 H 0.51679 0.52281 0.51178 0.0
H732 H 0.55281 0.46663 0.47739 0.0
H733 H 0.51883 0.47695 0.4989 0.0
H734 H 0.48197 0.50842 0.4527 0.0
H735 H 0.51499 0.49693 0.43119 0.0
C736 C 0.42791 0.50071 0.499 0.0
C737 C 0.44096 0.51402 0.51657 0.0
C738 C 0.4465 0.49444 0.4862 0.0
C739 C 0.47854 0.50167 0.49071 0.0
C740 C 0.49191 0.51618 0.50805 0.0
C741 C 0.47325 0.52212 0.52089 0.0
C742 C 0.53722 0.47548 0.47186 0.0
C743 C 0.53651 0.48098 0.45266 0.0
C744 C 0.51797 0.48168 0.48417 0.0
C745 C 0.49792 0.49382 0.47753 0.0
C746 C 0.49686 0.49876 0.45825 0.0
C747 C 0.51587 0.49228 0.44594 0.0
H748 H 0.52252 0.04644 0.45709 0.0
H749 H 0.48377 0.08658 0.49738 0.0
H750 H 0.51336 0.00296 0.47887 0.0
H751 H 0.47344 0.04227 0.51904 0.0
H752 H 0.48954 0.97602 0.55944 0.0
H753 H 0.49985 0.02105 0.53855 0.0
H754 H 0.46846 0.95421 0.49164 0.0
H755 H 0.45931 0.90941 0.51252 0.0
C756 C 0.51205 0.04595 0.47064 0.0
C757 C 0.5038 0.06981 0.47557 0.0
C758 C 0.50651 0.02085 0.48306 0.0
C759 C 0.49226 0.01887 0.5006 0.0
C760 C 0.4847 0.04324 0.50569 0.0
C761 C 0.49056 0.06859 0.4933 0.0
C762 C 0.4847 0.97094 0.54467 0.0
C763 C 0.47373 0.93927 0.53756 0.0
C764 C 0.49047 -0.00328 0.53271 0.0
C765 C 0.48516 0.99129 0.51342 0.0
C766 C 0.47344 0.95937 0.50639 0.0
C767 C 0.46794 0.93364 0.51835 0.0
H768 H 0.42309 0.90655 -0.0012 0.0
H769 H 0.46161 0.97551 0.04454 0.0
H770 H 0.45825 0.95013 0.97711 0.0
H771 H 0.49541 0.01941 0.0229 0.0
H772 H 0.57612 0.08388 0.98198 0.0
H773 H 0.54206 0.04015 0.00384 0.0
H774 H 0.46439 -0.00226 0.96267 0.0
H775 H 0.4992 0.04048 0.94062 0.0
C776 C 0.43893 0.9311 0.00416 0.0
C777 C 0.43977 0.93769 0.0233 0.0
C778 C 0.4589 0.95615 0.99175 0.0
C779 C 0.47966 0.9884 -0.00178 0.0
C780 C 0.48026 0.99483 0.01743 0.0
C781 C 0.46073 0.9697 0.02984 0.0
C782 C 0.55169 0.06525 0.97771 0.0
C783 C 0.54026 0.06543 0.95965 0.0
C784 C 0.53209 0.04023 0.99023 0.0
C785 C 0.50046 0.01525 0.98502 0.0
C786 C 0.48886 0.01607 0.96704 0.0
C787 C 0.50866 0.04074 0.95445 0.0
H788 H 0.95694 0.46778 0.95009 0.0
H789 H 0.92266 0.5056 0.99428 0.0
H790 H 0.00025 0.47167 0.9704 0.0
H791 H 0.96689 0.51104 0.01437 0.0
H792 H 0.02878 0.48647 0.05178 0.0
H793 H 0.9846 0.48005 0.0315 0.0
H794 H 0.05065 0.51063 0.98421 0.0
H795 H 0.09455 0.51549 0.00454 0.0
C796 C 0.95881 0.47706 0.96415 0.0
C797 C 0.93648 0.48632 0.97068 0.0
C798 C 0.98378 0.47956 0.97574 0.0
C799 C 0.98719 0.49181 0.994 0.0
C800 C 0.96468 0.50098 0.0005 0.0
C801 C 0.93941 0.49801 0.98899 0.0
C802 C 0.03384 0.49182 0.03704 0.0
C803 C 0.06504 0.50155 0.02969 0.0
C804 C 0.00856 0.48833 0.02543 0.0
C805 C 0.01407 0.495 0.00623 0.0
C806 C 0.04541 0.50481 -0.00111 0.0
C807 C 0.07063 0.50782 0.01051 0.0
H808 H 0.49857 0.46799 0.94341 0.0
H809 H 0.51861 0.42592 0.99178 0.0
H810 H 0.49397 0.50744 0.96327 0.0
H811 H 0.51565 0.46643 0.01166 0.0
H812 H 0.47203 0.51737 0.04431 0.0
H813 H 0.47643 0.47857 0.02379 0.0
H814 H 0.5234 0.55465 0.98196 0.0
H815 H 0.51743 0.593 0.00228 0.0
C816 C 0.50251 0.46755 0.95829 0.0
C817 C 0.50884 0.44389 0.96611 0.0
C818 C 0.50004 0.49027 0.96967 0.0
C819 C 0.5043 0.49007 0.98909 0.0
C820 C 0.5115 0.46685 0.99681 0.0
C821 C 0.51348 0.4438 0.98544 0.0
C822 C 0.48309 0.52568 0.03066 0.0
C823 C 0.49439 0.5581 0.02483 0.0
C824 C 0.48591 0.50356 0.01897 0.0
C825 C 0.50061 0.51354 0.00128 0.0
C826 C 0.5116 0.54599 0.99539 0.0
C827 C 0.50828 0.56801 0.00702 0.0
H828 H 0.25405 0.9965 0.11775 0.0
H829 H 0.27805 0.03829 0.06228 0.0
H830 H 0.2882 0.97193 0.11309 0.0
H831 H 0.31304 0.01406 0.05773 0.0
H832 H 0.32027 0.92068 0.0481 0.0
H833 H 0.29846 0.9568 0.05365 0.0
H834 H 0.34377 0.98053 0.10823 0.0
H835 H 0.36557 0.94348 0.1027 0.0
C836 C 0.267 0.0008 0.10462 0.0
C837 C 0.26296 0.01882 0.09022 0.0
C838 C 0.2869 0.98702 0.10206 0.0
C839 C 0.30317 0.99095 0.08503 0.0
C840 C 0.30043 0.01034 0.07093 0.0
C841 C 0.28046 0.02419 0.07351 0.0
C842 C 0.32579 0.93365 0.0613 0.0
C843 C 0.34433 0.92899 0.07509 0.0
C844 C 0.31361 0.95473 0.06436 0.0
C845 C 0.31959 0.97169 0.08131 0.0
C846 C 0.3387 0.96762 0.09504 0.0
C847 C 0.35112 0.94647 0.09192 0.0
H848 H 0.04656 0.41912 0.10071 0.0
H849 H 0.08994 0.39456 0.05478 0.0
H850 H 0.00433 0.36105 0.1036 0.0
H851 H 0.04864 0.33715 0.05786 0.0
H852 H 0.96202 0.23741 0.05865 0.0
H853 H 0.99074 0.29713 0.05398 0.0
H854 H 0.00344 0.31152 0.11369 0.0
H855 H 0.97437 0.25258 0.11827 0.0
C856 C 0.04718 0.40133 0.09136 0.0
C857 C 0.07164 0.41127 0.07765 0.0
C858 C 0.02297 0.36819 0.09291 0.0
C859 C 0.02294 0.34457 0.0808 0.0
C860 C 0.04741 0.35475 0.06709 0.0
C861 C 0.07141 0.38767 0.06553 0.0
C862 C 0.97029 0.25346 0.07071 0.0
C863 C 0.96661 0.24053 0.08876 0.0
C864 C 0.98686 0.28755 0.06808 0.0
C865 C -0.00023 0.30901 0.08348 0.0
C866 C 0.9937 0.29579 0.10155 0.0
C867 C 0.97732 0.26195 0.10415 0.0
H868 H 0.60393 0.6743 0.04447 0.0
H869 H 0.58692 0.64114 0.10183 0.0
H870 H 0.6622 0.69606 0.04842 0.0
H871 H 0.6461 0.66274 0.10575 0.0
H872 H 0.75298 0.75162 0.10975 0.0
H873 H 0.6938 0.71838 0.1069 0.0
H874 H 0.70509 0.6825 0.05345 0.0
H875 H 0.76483 0.71661 0.05614 0.0
C876 C 0.61265 0.67137 0.05794 0.0
C877 C 0.59092 0.6564 0.07295 0.0
C878 C 0.64611 0.68352 0.06011 0.0
C879 C 0.65876 0.68104 0.07736 0.0
C880 C 0.63697 0.66517 0.0923 0.0
C881 C 0.60321 0.65281 0.09009 0.0
C882 C 0.74291 0.73653 0.0974 0.0
C883 C 0.76349 0.73706 0.083 0.0
C884 C 0.70895 0.71714 0.0959 0.0
C885 C 0.69478 0.69782 0.07998 0.0
C886 C 0.71538 0.69745 0.06582 0.0
C887 C 0.7495 0.71694 0.06732 0.0
H888 H 0.91235 0.33535 0.44411 0.0
H889 H 0.92944 0.36628 0.38636 0.0
H890 H 0.94106 0.30516 0.43964 0.0
H891 H 0.95899 0.3361 0.38191 0.0
H892 H 0.96034 0.23775 0.37787 0.0
H893 H 0.94162 0.27715 0.38128 0.0
H894 H -0.00545 0.31047 0.43339 0.0
H895 H 0.01295 0.27041 0.43012 0.0
C896 C 0.92258 0.33596 0.43046 0.0
C897 C 0.91835 0.35285 0.41549 0.0
C898 C 0.93937 0.31892 0.42798 0.0
C899 C 0.9523 0.31828 0.41045 0.0
C900 C 0.949 0.336 0.39556 0.0
C901 C 0.93221 0.35329 0.39808 0.0
C902 C 0.96811 0.25355 0.39004 0.0
C903 C 0.98777 0.25075 0.40388 0.0
C904 C 0.95768 0.27639 0.39186 0.0
C905 C 0.96666 0.29692 0.40756 0.0
C906 C 0.98703 0.29472 0.4212 0.0
C907 C -0.00248 0.27182 0.41936 0.0
H908 H 0.63709 0.58017 0.38345 0.0
H909 H 0.65199 0.57935 0.44296 0.0
H910 H 0.66475 0.64043 0.38421 0.0
H911 H 0.6796 0.63883 0.44368 0.0
H912 H 0.70803 0.74642 0.44099 0.0
H913 H 0.67209 0.68665 0.43951 0.0
H914 H 0.72254 0.68352 0.38982 0.0
H915 H 0.7579 0.74272 0.39115 0.0
C916 C 0.64601 0.59282 0.39665 0.0
C917 C 0.64283 0.57521 0.41307 0.0
C918 C 0.66187 0.62718 0.39711 0.0
C919 C 0.67439 0.64426 0.41402 0.0
C920 C 0.66993 0.62641 0.43049 0.0
C921 C 0.65442 0.59231 0.43001 0.0
C922 C 0.71142 0.73285 0.42984 0.0
C923 C 0.73584 0.74914 0.41629 0.0
C924 C 0.69084 0.69875 0.42892 0.0
C925 C 0.69436 0.68053 0.41442 0.0
C926 C 0.71878 0.69696 0.40091 0.0
C927 C 0.7393 0.73085 0.40184 0.0
H928 H 0.39634 0.07446 0.45288 0.0
H929 H 0.41571 0.0544 0.39685 0.0
H930 H 0.33788 0.03934 0.44789 0.0
H931 H 0.35658 0.01844 0.39191 0.0
H932 H 0.25326 0.00658 0.38347 0.0
H933 H 0.31175 0.03058 0.38858 0.0
H934 H 0.29276 0.98318 0.44251 0.0
H935 H 0.23359 0.95925 0.43746 0.0
C936 C 0.38808 0.06218 0.43952 0.0
C937 C 0.41052 0.06754 0.42512 0.0
C938 C 0.35455 0.04173 0.43677 0.0
C939 C 0.34263 0.02621 0.41951 0.0
C940 C 0.36513 0.03041 0.40531 0.0
C941 C 0.39889 0.05087 0.40812 0.0
C942 C 0.26146 0.00112 0.39642 0.0
C943 C 0.23887 0.98134 0.41019 0.0
C944 C 0.29503 0.01457 0.39922 0.0
C945 C 0.30685 0.00863 0.41588 0.0
C946 C 0.28428 0.9883 0.42956 0.0
C947 C 0.2505 0.97467 0.42671 0.0
H948 H 0.71749 0.97368 0.92746 0.0
H949 H 0.74638 0.01789 0.87275 0.0
H950 H 0.68002 0.99536 0.93036 0.0
H951 H 0.70963 0.0399 0.87577 0.0
H952 H 0.62532 0.0597 0.88183 0.0
H953 H 0.652 0.02661 0.87802 0.0
H954 H 0.68964 0.05111 0.93433 0.0
H955 H 0.66295 0.08335 0.93819 0.0
C956 C 0.71573 0.98788 0.91606 0.0
C957 C 0.73512 0.99446 0.90001 0.0
C958 C 0.69433 0.00027 0.9177 0.0
C959 C 0.69198 0.01939 0.90329 0.0
C960 C 0.71056 0.02491 0.88699 0.0
C961 C 0.73191 0.0126 0.88537 0.0
C962 C 0.63909 0.05769 0.89338 0.0
C963 C 0.64234 0.07432 0.91021 0.0
C964 C 0.65435 0.03885 0.89122 0.0
C965 C 0.67283 0.03624 0.90591 0.0
C966 C 0.67517 0.05217 0.92286 0.0
C967 C 0.66014 0.07099 0.92498 0.0
H968 H 0.92473 0.59769 0.95072 0.0
H969 H 0.93947 0.57801 0.89366 0.0
H970 H 0.958 0.65626 0.94513 0.0
H971 H 0.97358 0.63724 0.88809 0.0
H972 H 0.98578 0.74059 0.8805 0.0
H973 H 0.96136 0.68206 0.8859 0.0
H974 H 0.01332 0.70154 0.93834 0.0
H975 H 0.03765 0.76075 0.93302 0.0
C976 C 0.93538 0.6059 0.93698 0.0
C977 C 0.92917 0.58329 0.92252 0.0
C978 C 0.95477 0.63952 0.93386 0.0
C979 C 0.96838 0.65138 0.91619 0.0
C980 C 0.96309 0.62875 0.90183 0.0
C981 C 0.94368 0.59492 0.90499 0.0
C982 C 0.99212 0.73249 0.8932 0.0
C983 C 0.01342 0.75526 0.90645 0.0
C984 C 0.97839 0.69889 0.89616 0.0
C985 C 0.98556 0.68718 0.91247 0.0
C986 C 0.00721 0.70991 0.92567 0.0
C987 C 0.0211 0.74373 0.92267 0.0
H988 H 0.4037 0.34979 0.95584 0.0
H989 H 0.4052 0.33796 0.89617 0.0
H990 H 0.3452 0.33068 0.95466 0.0
H991 H 0.34615 0.31675 0.89495 0.0
H992 H 0.24296 0.29263 0.89428 0.0
H993 H 0.30228 0.32611 0.89744 0.0
H994 H 0.29637 0.28119 0.95118 0.0
H995 H 0.23671 0.24941 0.94836 0.0
C996 C 0.39133 0.34298 0.94245 0.0
C997 C 0.40866 0.34497 0.92609 0.0
C998 C 0.35779 0.33185 0.94178 0.0
C999 C 0.34071 0.32173 0.92477 0.0
C1000 C 0.35846 0.32479 0.90829 0.0
C1001 C 0.39225 0.33669 0.90893 0.0
C1002 C 0.25446 0.29067 0.90696 0.0
C1003 C 0.23561 0.26851 0.92107 0.0
C1004 C 0.28844 0.30953 0.90869 0.0
C1005 C 0.30433 0.30592 0.92436 0.0
C1006 C 0.28507 0.28496 0.93897 0.0
C1007 C 0.25089 0.26664 0.93741 0.0
H1008 H 0.01414 0.75247 0.61012 0.0
H1009 H 0.95907 0.71116 0.55931 0.0
H1010 H 0.03581 0.71533 0.60831 0.0
H1011 H 0.98062 0.67337 0.55764 0.0
H1012 H 0.06748 0.65388 0.54881 0.0
H1013 H 0.03498 0.68053 0.55149 0.0
H1014 H 0.0209 0.657 0.61034 0.0
H1015 H 0.05425 0.63037 0.60766 0.0
C1016 C 0.00656 0.73533 0.59856 0.0
C1017 C 0.98519 0.73494 0.58471 0.0
C1018 C 0.01865 0.71373 0.59769 0.0
C1019 C 0.00971 0.69127 0.58293 0.0
C1020 C 0.98802 0.69057 0.56915 0.0
C1021 C 0.97581 0.71223 0.57004 0.0
C1022 C 0.05722 0.65408 0.56233 0.0
C1023 C 0.06379 0.64055 0.57813 0.0
C1024 C 0.03827 0.66905 0.56379 0.0
C1025 C 0.02551 0.67098 0.58112 0.0
C1026 C 0.03077 0.65612 0.59683 0.0
C1027 C 0.04968 0.64082 0.59532 0.0
H1028 H 0.27845 0.24098 0.55667 0.0
H1029 H 0.25391 0.26444 0.61049 0.0
H1030 H 0.31713 0.2996 0.55139 0.0
H1031 H 0.29156 0.32219 0.60516 0.0
H1032 H 0.37167 0.42439 0.59667 0.0
H1033 H 0.34847 0.36524 0.60166 0.0
H1034 H 0.30961 0.34647 0.54549 0.0
H1035 H 0.33316 0.40494 0.54044 0.0
C1036 C 0.28141 0.25856 0.56735 0.0
C1037 C 0.26288 0.24821 0.58384 0.0
C1038 C 0.30353 0.29202 0.56438 0.0
C1039 C 0.30747 0.31549 0.57791 0.0
C1040 C 0.28963 0.3048 0.59461 0.0
C1041 C 0.26764 0.27162 0.59753 0.0
C1042 C 0.35865 0.40756 0.58535 0.0
C1043 C 0.35366 0.41914 0.56833 0.0
C1044 C 0.34534 0.37377 0.58818 0.0
C1045 C 0.32697 0.35119 0.574 0.0
C1046 C 0.32385 0.36313 0.55663 0.0
C1047 C 0.33703 0.3967 0.55384 0.0
H1048 H 0.72618 0.96897 0.61673 0.0
H1049 H 0.74358 0.02004 0.56405 0.0
H1050 H 0.66783 0.94881 0.61384 0.0
H1051 H 0.68463 3e-05 0.56127 0.0
H1052 H 0.57676 0.91638 0.55275 0.0
H1053 H 0.63597 0.94604 0.55599 0.0
H1054 H 0.62629 0.96588 0.61385 0.0
H1055 H 0.56636 0.93539 0.61067 0.0
C1056 C 0.71753 0.97604 0.60454 0.0
C1057 C 0.7394 0.99583 0.5905 0.0
C1058 C 0.68409 0.96479 0.60302 0.0
C1059 C 0.67168 0.973 0.58741 0.0
C1060 C 0.69356 0.99318 0.57343 0.0
C1061 C 0.72721 0.00457 0.57498 0.0
C1062 C 0.58718 0.92722 0.56617 0.0
C1063 C 0.56696 0.92323 0.58156 0.0
C1064 C 0.62118 0.94455 0.56794 0.0
C1065 C 0.63577 0.95825 0.58515 0.0
C1066 C 0.61561 0.95525 0.60044 0.0
C1067 C 0.58141 0.93792 0.59865 0.0
H1068 H 0.69593 0.61066 0.71289 0.0
H1069 H 0.67984 0.58821 0.7717 0.0
H1070 H 0.67434 0.64787 0.71577 0.0
H1071 H 0.65632 0.624 0.77456 0.0
H1072 H 0.62627 0.69885 0.7782 0.0
H1073 H 0.66271 0.67656 0.77422 0.0
H1074 H 0.62256 0.64265 0.71898 0.0
H1075 H 0.58756 0.66689 0.72275 0.0
C1076 C 0.68783 0.6139 0.72649 0.0
C1077 C 0.68917 0.59649 0.74208 0.0
C1078 C 0.67524 0.63502 0.72811 0.0
C1079 C 0.66304 0.63861 0.7453 0.0
C1080 C 0.66584 0.62222 0.76112 0.0
C1081 C 0.67915 0.60157 0.75954 0.0
C1082 C 0.6259 0.68725 0.76506 0.0
C1083 C 0.60413 0.68427 0.75079 0.0
C1084 C 0.64652 0.6742 0.76283 0.0
C1085 C 0.64519 0.65718 0.74645 0.0
C1086 C 0.62457 0.65587 0.73174 0.0
C1087 C 0.60441 0.66963 0.73385 0.0
H1088 H 0.41128 0.07019 0.71195 0.0
H1089 H 0.38431 0.07872 0.7685 0.0
H1090 H 0.37771 0.01084 0.71373 0.0
H1091 H 0.35004 0.01875 0.7702 0.0
H1092 H 0.33873 0.91513 0.77323 0.0
H1093 H 0.36304 0.97422 0.7712 0.0
H1094 H 0.32108 0.96422 0.71625 0.0
H1095 H 0.29671 0.90433 0.71821 0.0
C1096 C 0.39793 0.05937 0.72475 0.0
C1097 C 0.40074 0.07906 0.7402 0.0
C1098 C 0.37838 0.02532 0.72566 0.0
C1099 C 0.36124 0.01014 0.74207 0.0
C1100 C 0.36325 0.02985 0.7574 0.0
C1101 C 0.3828 0.06409 0.75645 0.0
C1102 C 0.33453 0.9254 0.76069 0.0
C1103 C 0.31608 0.90512 0.74576 0.0
C1104 C 0.34818 0.95931 0.75965 0.0
C1105 C 0.34383 0.97386 0.74364 0.0
C1106 C 0.32494 0.95361 0.72875 0.0
C1107 C 0.31104 0.91943 0.72984 0.0
H1108 H 0.90262 0.29031 0.77471 0.0
H1109 H 0.91834 0.32097 0.71691 0.0
H1110 H 0.96222 0.31717 0.77922 0.0
H1111 H 0.97718 0.34799 0.72145 0.0
H1112 H 0.0832 0.37985 0.73176 0.0
H1113 H 0.02435 0.34119 0.72802 0.0
H1114 H 0.00515 0.37518 0.78001 0.0
H1115 H 0.06341 0.41303 0.78387 0.0
C1116 C 0.91875 0.30247 0.76298 0.0
C1117 C 0.90593 0.30396 0.74556 0.0
C1118 C 0.95277 0.31787 0.76554 0.0
C1119 C 0.97434 0.33478 0.75068 0.0
C1120 C 0.96129 0.33486 0.7331 0.0
C1121 C 0.92751 0.31966 0.73058 0.0
C1122 C 0.06633 0.37885 0.74238 0.0
C1123 C 0.07781 0.39967 0.75797 0.0
C1124 C 0.03273 0.35675 0.74028 0.0
C1125 C 0.01017 0.35511 0.75377 0.0
C1126 C 0.0219 0.37542 0.76955 0.0
C1127 C 0.05531 0.39744 0.77162 0.0
H1128 H 0.38186 0.2917 0.27077 0.0
H1129 H 0.41817 0.3477 0.21975 0.0
H1130 H 0.34318 0.31191 0.27427 0.0
H1131 H 0.38032 0.3681 0.22338 0.0
H1132 H 0.29514 0.38523 0.22748 0.0
H1133 H 0.32235 0.3528 0.22309 0.0
H1134 H 0.34932 0.36544 0.28146 0.0
H1135 H 0.32193 0.39693 0.28587 0.0
C1136 C 0.38158 0.30827 0.26035 0.0
C1137 C 0.4032 0.31839 0.24512 0.0
C1138 C 0.35946 0.31977 0.2623 0.0
C1139 C 0.35864 0.34146 0.24902 0.0
C1140 C 0.37989 0.35095 0.23364 0.0
C1141 C 0.4019 0.33957 0.23172 0.0
C1142 C 0.30654 0.38063 0.23935 0.0
C1143 C 0.30685 0.39394 0.25691 0.0
C1144 C 0.32213 0.36219 0.23687 0.0
C1145 C 0.33807 0.35672 0.25194 0.0
C1146 C 0.33696 0.36884 0.26964 0.0
C1147 C 0.32156 0.38724 0.27209 0.0
H1148 H 0.58374 0.90864 0.22944 0.0
H1149 H 0.62688 0.91536 0.28355 0.0
H1150 H 0.61722 0.96809 0.22585 0.0
H1151 H 0.66194 0.9745 0.27969 0.0
H1152 H 0.67371 0.07802 0.27993 0.0
H1153 H 0.65289 0.01893 0.28174 0.0
H1154 H 0.66717 0.01652 0.22217 0.0
H1155 H 0.68596 0.07491 0.22039 0.0
C1156 C 0.60149 0.9228 0.24017 0.0
C1157 C 0.60282 0.9078 0.25676 0.0
C1158 C 0.62072 0.95689 0.23819 0.0
C1159 C 0.64194 0.97631 0.25268 0.0
C1160 C 0.64521 0.96054 0.26852 0.0
C1161 C 0.62551 0.92667 0.27064 0.0
C1162 C 0.67261 0.06474 0.26734 0.0
C1163 C 0.68079 0.08066 0.25003 0.0
C1164 C 0.66094 0.03094 0.26832 0.0
C1165 C 0.65802 0.01275 0.25202 0.0
C1166 C 0.66822 0.02942 0.2349 0.0
C1167 C 0.67912 0.06291 0.2339 0.0
H1168 H 0.93078 0.58235 0.21359 0.0
H1169 H 0.91595 0.61276 0.26795 0.0
H1170 H 0.98951 0.6185 0.21653 0.0
H1171 H 0.97541 0.64968 0.27081 0.0
H1172 H 0.0806 0.6648 0.27793 0.0
H1173 H 0.02163 0.63976 0.27476 0.0
H1174 H 0.03397 0.6761 0.21818 0.0
H1175 H 0.0937 0.7011 0.22129 0.0
C1176 C 0.94008 0.59699 0.22616 0.0
C1177 C 0.91881 0.59441 0.24069 0.0
C1178 C 0.97377 0.61805 0.22771 0.0
C1179 C 0.98707 0.63701 0.24385 0.0
C1180 C 0.96578 0.63515 0.25823 0.0
C1181 C 0.93184 0.61406 0.25663 0.0
C1182 C 0.07085 0.66769 0.26481 0.0
C1183 C 0.09172 0.6845 0.24972 0.0
C1184 C 0.03701 0.65365 0.2631 0.0
C1185 C 0.02316 0.65596 0.24625 0.0
C1186 C 0.04404 0.67374 0.23131 0.0
C1187 C 0.07813 0.68802 0.23305 0.0
H1188 H 0.04033 0.16325 0.12576 0.0
H1189 H 0.01886 0.13201 0.06825 0.0
H1190 H 0.08867 0.15693 0.1246 0.0
H1191 H 0.06616 0.1241 0.0673 0.0
H1192 H 0.16021 0.12057 0.06867 0.0
H1193 H 0.12441 0.14462 0.06839 0.0
H1194 H 0.09298 0.10906 0.1246 0.0
H1195 H 0.12898 0.08641 0.12507 0.0
C1196 C 0.04611 0.15522 0.11285 0.0
C1197 C 0.02565 0.1476 0.0972 0.0
C1198 C 0.0737 0.1515 0.11217 0.0
C1199 C 0.08096 0.13941 0.09596 0.0
C1200 C 0.06151 0.13369 0.07996 0.0
C1201 C 0.03421 0.13794 0.08056 0.0
C1202 C 0.14595 0.11844 0.081 0.0
C1203 C 0.14719 0.10143 0.09682 0.0
C1204 C 0.12539 0.13206 0.08084 0.0
C1205 C 0.10586 0.12885 0.0965 0.0
C1206 C 0.1081 0.11268 0.11244 0.0
C1207 C 0.12854 0.09929 0.11261 0.0
H1208 H 0.90909 0.05055 0.06082 0.0
H1209 H 0.85893 0.03078 0.11376 0.0
H1210 H 0.8961 0.99325 0.05913 0.0
H1211 H 0.84482 0.97347 0.11185 0.0
H1212 H 0.87701 0.89697 0.11799 0.0
H1213 H 0.879 0.94964 0.11622 0.0
H1214 H 0.85678 0.93478 0.05724 0.0
H1215 H 0.85567 0.88236 0.05895 0.0
C1216 C 0.89412 0.03357 0.07168 0.0
C1217 C 0.8852 0.04491 0.08748 0.0
C1218 C 0.88677 0.00081 0.07079 0.0
C1219 C 0.87014 0.97901 0.08562 0.0
C1220 C 0.85852 0.98986 0.10049 0.0
C1221 C 0.86624 0.02254 0.10149 0.0
C1222 C 0.87246 0.90491 0.10467 0.0
C1223 C 0.86629 0.88562 0.08862 0.0
C1224 C 0.87327 0.93496 0.10366 0.0
C1225 C 0.86773 0.94631 0.0866 0.0
C1226 C 0.86135 0.92686 0.07055 0.0
C1227 C 0.86064 0.89681 0.07156 0.0
H1228 H 0.97012 0.80506 0.09173 0.0
H1229 H 0.95375 0.86341 0.05137 0.0
H1230 H 0.02891 0.84411 0.09107 0.0
H1231 H 0.01245 0.90354 0.05125 0.0
H1232 H 0.12175 0.97283 0.05528 0.0
H1233 H 0.07071 0.92271 0.04724 0.0
H1234 H 0.05393 0.89694 0.10577 0.0
H1235 H 0.10491 0.94629 0.11365 0.0
C1236 C 0.97941 0.82566 0.08215 0.0
C1237 C 0.95769 0.83144 0.07163 0.0
C1238 C 0.01296 0.84825 0.08195 0.0
C1239 C 0.02522 0.87746 0.07158 0.0
C1240 C 0.00385 0.88131 0.05941 0.0
C1241 C 0.97022 0.85828 0.05937 0.0
C1242 C 0.10729 0.95614 0.06637 0.0
C1243 C 0.11717 0.96353 0.08512 0.0
C1244 C 0.07807 0.92751 0.06176 0.0
C1245 C 0.05829 0.9057 0.07582 0.0
C1246 C 0.06885 0.91275 0.0945 0.0
C1247 C 0.09796 0.94128 0.09909 0.0
H1248 H 0.09655 0.15453 0.42148 0.0
H1249 H 0.04398 0.10637 0.37107 0.0
H1250 H 0.1237 0.12166 0.42085 0.0
H1251 H 0.06997 0.0731 0.37074 0.0
H1252 H 0.13467 0.03018 0.36613 0.0
H1253 H 0.1201 0.07325 0.36599 0.0
H1254 H 0.10892 0.06547 0.42602 0.0
H1255 H 0.12468 0.02351 0.42618 0.0
C1256 C 0.09084 0.13698 0.41029 0.0
C1257 C 0.06808 0.13291 0.39638 0.0
C1258 C 0.10628 0.11811 0.40994 0.0
C1259 C 0.0991 0.09481 0.3957 0.0
C1260 C 0.07666 0.09125 0.38169 0.0
C1261 C 0.06146 0.11014 0.38199 0.0
C1262 C 0.12957 0.03809 0.37928 0.0
C1263 C 0.13046 0.0233 0.39612 0.0
C1264 C 0.12107 0.06262 0.37923 0.0
C1265 C 0.11293 0.07253 0.39598 0.0
C1266 C 0.11534 0.05872 0.41289 0.0
C1267 C 0.12414 0.03446 0.41296 0.0
H1268 H 0.91168 0.08922 0.38712 0.0
H1269 H 0.9478 0.11142 0.44377 0.0
H1270 H 0.86593 0.03727 0.39744 0.0
H1271 H 0.90131 0.05937 0.45429 0.0
H1272 H 0.78305 0.94847 0.41489 0.0
H1273 H 0.81608 0.00828 0.41496 0.0
H1274 H 0.88742 0.00251 0.4504 0.0
H1275 H 0.85336 0.94274 0.45094 0.0
C1276 C 0.90945 0.08327 0.40186 0.0
C1277 C 0.93351 0.10418 0.41458 0.0
C1278 C 0.88296 0.05359 0.40786 0.0
C1279 C 0.87985 0.04412 0.42675 0.0
C1280 C 0.90312 0.06583 0.43964 0.0
C1281 C 0.9297 0.09563 0.43362 0.0
C1282 C 0.80489 0.96023 0.42353 0.0
C1283 C 0.81583 0.94132 0.43292 0.0
C1284 C 0.82405 0.9944 0.42336 0.0
C1285 C 0.85489 0.01009 0.43217 0.0
C1286 C 0.86381 0.99125 0.44346 0.0
C1287 C 0.84426 0.95699 0.44388 0.0
H1288 H 0.05142 0.91314 0.43952 0.0
H1289 H 0.02834 0.85394 0.38972 0.0
H1290 H 0.99379 0.89843 0.44226 0.0
H1291 H 0.97082 0.83851 0.39267 0.0
H1292 H 0.89259 0.86822 0.38499 0.0
H1293 H 0.94625 0.87244 0.38663 0.0
H1294 H 0.93531 0.85683 0.44629 0.0
H1295 H 0.88168 0.85316 0.44467 0.0
C1296 C 0.03376 0.89589 0.42965 0.0
C1297 C 0.04421 0.88489 0.41432 0.0
C1298 C 0.0008 0.88758 0.43114 0.0
C1299 C 0.97796 0.86801 0.41737 0.0
C1300 C 0.98802 0.85439 0.40317 0.0
C1301 C 0.02085 0.86291 0.4016 0.0
C1302 C 0.90161 0.86566 0.39844 0.0
C1303 C 0.88298 0.86041 0.41468 0.0
C1304 C 0.93222 0.86774 0.39938 0.0
C1305 C 0.94487 0.86457 0.41659 0.0
C1306 C 0.92626 0.85945 0.43286 0.0
C1307 C 0.89556 0.8573 0.43191 0.0
H1308 H 0.83734 0.88992 0.92035 0.0
H1309 H 0.87757 0.93694 0.86736 0.0
H1310 H 0.87313 0.86597 0.91983 0.0
H1311 H 0.91365 0.91418 0.8671 0.0
H1312 H 0.96168 0.85389 0.86351 0.0
H1313 H 0.91648 0.86533 0.86393 0.0
H1314 H 0.93075 0.88484 0.92322 0.0
H1315 H 0.97492 0.87218 0.92287 0.0
C1316 C 0.85372 0.89505 0.90861 0.0
C1317 C 0.85476 0.91538 0.89395 0.0
C1318 C 0.87427 0.88146 0.90832 0.0
C1319 C 0.89621 0.88808 0.89339 0.0
C1320 C 0.89665 0.90797 0.87863 0.0
C1321 C 0.87613 0.92133 0.87888 0.0
C1322 C 0.95483 0.86024 0.87664 0.0
C1323 C 0.97199 0.8625 0.8931 0.0
C1324 C 0.92905 0.86691 0.8769 0.0
C1325 C 0.92023 0.87637 0.89358 0.0
C1326 C 0.93661 0.87729 0.91017 0.0
C1327 C 0.96214 0.8703 0.90994 0.0
H1328 H 0.14206 0.96491 0.88259 0.0
H1329 H 0.08811 0.94536 0.93421 0.0
H1330 H 0.16001 0.02312 0.88539 0.0
H1331 H 0.10511 0.00363 0.93678 0.0
H1332 H 0.14985 0.11459 0.9388 0.0
H1333 H 0.14703 0.06128 0.93995 0.0
H1334 H 0.12881 0.05024 0.88049 0.0
H1335 H 0.13235 0.10364 0.87932 0.0
C1336 C 0.13475 0.9733 0.8948 0.0
C1337 C 0.11354 0.95075 0.90812 0.0
C1338 C 0.14471 0.00655 0.8963 0.0
C1339 C 0.13326 0.01788 0.91102 0.0
C1340 C 0.1144 0.99573 0.92526 0.0
C1341 C 0.10472 0.96236 0.92385 0.0
C1342 C 0.14556 0.10085 0.92595 0.0
C1343 C 0.14122 0.11321 0.90895 0.0
C1344 C 0.14384 0.07029 0.92664 0.0
C1345 C 0.13783 0.05153 0.91033 0.0
C1346 C 0.13413 0.06429 0.89328 0.0
C1347 C 0.13587 0.0948 0.8926 0.0
H1348 H 0.04374 0.12992 0.94505 0.0
H1349 H 0.03714 0.19807 0.90753 0.0
H1350 H 0.98402 0.09531 0.94467 0.0
H1351 H 0.97739 0.16456 0.90773 0.0
H1352 H 0.89459 0.06766 0.88238 0.0
H1353 H 0.94724 0.11365 0.89146 0.0
H1354 H 0.92761 0.08222 0.94909 0.0
H1355 H 0.87483 0.0354 0.93982 0.0
C1356 C 0.02927 0.13834 0.93759 0.0
C1357 C 0.04465 0.16644 0.92634 0.0
C1358 C -0.00493 0.11853 0.9373 0.0
C1359 C 0.97599 0.12681 0.92579 0.0
C1360 C 0.99145 0.15711 0.91635 0.0
C1361 C 0.02556 0.17652 0.91641 0.0
C1362 C 0.90123 0.07082 0.89703 0.0
C1363 C 0.88079 0.04775 0.91034 0.0
C1364 C 0.93134 0.09744 0.90231 0.0
C1365 C 0.94169 0.1017 0.92106 0.0
C1366 C 0.92046 0.07947 0.93454 0.0
C1367 C 0.89025 0.05274 0.92922 0.0
H1368 H 0.83926 0.95204 0.55737 0.0
H1369 H 0.83587 0.93086 0.6163 0.0
H1370 H 0.84512 0.90435 0.55027 0.0
H1371 H 0.84246 0.88398 0.60934 0.0
H1372 H 0.84281 0.79524 0.59682 0.0
H1373 H 0.81822 0.83016 0.59607 0.0
H1374 H 0.88842 0.89089 0.55398 0.0
H1375 H 0.91187 0.85479 0.55423 0.0
C1376 C 0.83947 0.93701 0.56879 0.0
C1377 C 0.83732 0.94524 0.58741 0.0
C1378 C 0.84289 0.90978 0.56471 0.0
C1379 C 0.84414 0.89025 0.57919 0.0
C1380 C 0.8409 0.89801 0.59778 0.0
C1381 C 0.83745 0.92513 0.60183 0.0
C1382 C 0.85189 0.81519 0.5868 0.0
C1383 C 0.87917 0.82255 0.57562 0.0
C1384 C 0.83814 0.83544 0.58653 0.0
C1385 C 0.85202 0.86389 0.5754 0.0
C1386 C 0.87711 0.86918 0.56272 0.0
C1387 C 0.89051 0.84846 0.56277 0.0
H1388 H 0.13396 0.05339 0.55998 0.0
H1389 H 0.1686 0.04242 0.61379 0.0
H1390 H 0.09429 0.99437 0.55944 0.0
H1391 H 0.13025 0.98353 0.61301 0.0
H1392 H 0.03428 0.88259 0.56102 0.0
H1393 H 0.08173 0.93788 0.55869 0.0
H1394 H 0.07234 0.95315 0.61738 0.0
H1395 H 0.02568 0.89767 0.61977 0.0
C1396 C 0.13388 0.03809 0.57132 0.0
C1397 C 0.15396 0.05226 0.58699 0.0
C1398 C 0.11116 0.00433 0.57108 0.0
C1399 C 0.10857 0.98435 0.58641 0.0
C1400 C 0.13089 -0.00166 0.60125 0.0
C1401 C 0.1531 0.03198 0.60162 0.0
C1402 C 0.04256 0.89774 0.57344 0.0
C1403 C 0.02629 0.88586 0.59059 0.0
C1404 C 0.06966 0.92945 0.57208 0.0
C1405 C 0.08098 0.94994 0.58784 0.0
C1406 C 0.06477 0.93783 0.60502 0.0
C1407 C 0.03782 0.9061 0.6064 0.0
H1408 H 0.0995 0.13041 0.56493 0.0
H1409 H 0.10963 0.16827 0.62095 0.0
H1410 H 0.04256 0.11764 0.56418 0.0
H1411 H 0.05314 0.15706 0.61993 0.0
H1412 H 0.94458 0.07866 0.62347 0.0
H1413 H 0.00363 0.10644 0.62198 0.0
H1414 H 0.00066 0.13295 0.56446 0.0
H1415 H 0.94042 0.10371 0.56584 0.0
C1416 C 0.08975 0.13679 0.5769 0.0
C1417 C 0.10866 0.14968 0.59315 0.0
C1418 C 0.05718 0.12973 0.57642 0.0
C1419 C 0.04309 0.13582 0.59211 0.0
C1420 C 0.063 0.15126 0.60778 0.0
C1421 C 0.09536 0.15779 0.60837 0.0
C1422 C 0.95638 0.09061 0.6105 0.0
C1423 C 0.93783 0.0887 0.59469 0.0
C1424 C 0.99043 0.10698 0.60972 0.0
C1425 C 0.00703 0.12214 0.59313 0.0
C1426 C 0.98857 0.12129 0.57742 0.0
C1427 C 0.95416 0.1047 0.5782 0.0
H1428 H 0.69532 0.47125 0.43963 0.0
H1429 H 0.68819 0.477 0.37973 0.0
H1430 H 0.74649 0.47087 0.43592 0.0
H1431 H 0.73992 0.47707 0.376 0.0
H1432 H 0.80216 0.4225 0.3831 0.0
H1433 H 0.75933 0.43733 0.38063 0.0
H1434 H 0.8035 0.50558 0.42638 0.0
H1435 H 0.84548 0.48994 0.42913 0.0
C1436 C 0.70484 0.47269 0.42567 0.0
C1437 C 0.68771 0.47401 0.40999 0.0
C1438 C 0.73437 0.47285 0.42353 0.0
C1439 C 0.74747 0.47434 0.40565 0.0
C1440 C 0.73043 0.47588 0.38993 0.0
C1441 C 0.70086 0.47584 0.39209 0.0
C1442 C 0.80344 0.44169 0.39204 0.0
C1443 C 0.82674 0.45486 0.40643 0.0
C1444 C 0.77885 0.45009 0.39072 0.0
C1445 C 0.77757 0.47192 0.40368 0.0
C1446 C 0.80334 0.48799 0.41654 0.0
C1447 C 0.82758 0.47935 0.41799 0.0
H1448 H 0.50206 0.20845 0.39134 0.0
H1449 H 0.50454 0.23402 0.4495 0.0
H1450 H 0.50557 0.26018 0.38221 0.0
H1451 H 0.50872 0.28583 0.44044 0.0
H1452 H 0.57033 0.37703 0.38078 0.0
H1453 H 0.54858 0.3178 0.38326 0.0
H1454 H 0.48139 0.31209 0.42624 0.0
H1455 H 0.5042 0.37137 0.42415 0.0
C1456 C 0.50306 0.22501 0.40218 0.0
C1457 C 0.50324 0.21734 0.42115 0.0
C1458 C 0.50512 0.25463 0.39692 0.0
C1459 C 0.50733 0.27711 0.41056 0.0
C1460 C 0.5064 0.26883 0.42954 0.0
C1461 C 0.50432 0.23925 0.43478 0.0
C1462 C 0.54984 0.36273 0.39006 0.0
C1463 C 0.53883 0.37843 0.40228 0.0
C1464 C 0.53746 0.32885 0.3916 0.0
C1465 C 0.51383 0.3104 0.40531 0.0
C1466 C 0.50017 0.32576 0.41589 0.0
C1467 C 0.51284 0.35956 0.41453 0.0
H1468 H 0.76 0.3192 0.45568 0.0
H1469 H 0.77578 0.29848 0.39909 0.0
H1470 H 0.70522 0.27115 0.45523 0.0
H1471 H 0.72141 0.24955 0.39881 0.0
H1472 H 0.60659 0.19374 0.39884 0.0
H1473 H 0.66506 0.23481 0.39771 0.0
H1474 H 0.67537 0.21324 0.45523 0.0
H1475 H 0.61685 0.17367 0.45647 0.0
C1476 C 0.75189 0.30407 0.44324 0.0
C1477 C 0.77203 0.31263 0.42741 0.0
C1478 C 0.72057 0.27632 0.44299 0.0
C1479 C 0.70888 0.25629 0.42698 0.0
C1480 C 0.72942 0.26459 0.41128 0.0
C1481 C 0.76062 0.29255 0.41147 0.0
C1482 C 0.62168 0.19732 0.41102 0.0
C1483 C 0.60741 0.18096 0.42777 0.0
C1484 C 0.65515 0.22083 0.41043 0.0
C1485 C 0.67481 0.22788 0.42654 0.0
C1486 C 0.66079 0.20923 0.44277 0.0
C1487 C 0.62738 0.18631 0.44343 0.0
H1488 H 0.74755 0.46232 0.76979 0.0
H1489 H 0.79881 0.50118 0.7178 0.0
H1490 H 0.76671 0.42255 0.77048 0.0
H1491 H 0.81925 0.46277 0.71879 0.0
H1492 H 0.8145 0.35932 0.76887 0.0
H1493 H 0.8096 0.40842 0.77193 0.0
H1494 H 0.79034 0.40519 0.7127 0.0
H1495 H 0.79616 0.35687 0.70961 0.0
C1496 C 0.76408 0.46323 0.75897 0.0
C1497 C 0.77158 0.48442 0.74368 0.0
C1498 C 0.77502 0.44046 0.7593 0.0
C1499 C 0.79386 0.43898 0.74442 0.0
C1500 C 0.80397 0.4626 0.73016 0.0
C1501 C 0.79262 0.48483 0.72969 0.0
C1502 C 0.80955 0.36937 0.75649 0.0
C1503 C 0.80563 0.35427 0.73899 0.0
C1504 C 0.80664 0.39741 0.75827 0.0
C1505 C 0.79972 0.41086 0.74258 0.0
C1506 C 0.79638 0.39596 0.72503 0.0
C1507 C 0.79943 0.36806 0.72325 0.0
H1508 H 0.47804 0.28575 0.72121 0.0
H1509 H 0.52323 0.27647 0.77148 0.0
H1510 H 0.51515 0.34498 0.72129 0.0
H1511 H 0.56162 0.33576 0.77122 0.0
H1512 H 0.6203 0.42776 0.70848 0.0
H1513 H 0.57192 0.37408 0.71309 0.0
H1514 H 0.57521 0.3927 0.7724 0.0
H1515 H 0.62432 0.44626 0.76778 0.0
C1516 C 0.4954 0.29668 0.73259 0.0
C1517 C 0.49801 0.27681 0.74631 0.0
C1518 C 0.51691 0.33049 0.73252 0.0
C1519 C 0.54196 0.34499 0.74594 0.0
C1520 C 0.54257 0.32541 0.76069 0.0
C1521 C 0.52057 0.29148 0.76091 0.0
C1522 C 0.61047 0.42056 0.72246 0.0
C1523 C 0.62619 0.44109 0.73776 0.0
C1524 C 0.58253 0.38987 0.72513 0.0
C1525 C 0.56955 0.37907 0.74315 0.0
C1526 C 0.58473 0.40012 0.75839 0.0
C1527 C 0.61278 0.43084 0.75571 0.0
H1528 H 0.69863 0.17821 0.72531 0.0
H1529 H 0.71328 0.2386 0.77371 0.0
H1530 H 0.64002 0.15907 0.726 0.0
H1531 H 0.65463 0.22058 0.77405 0.0
H1532 H 0.56113 0.18596 0.71204 0.0
H1533 H 0.61408 0.18981 0.71682 0.0
H1534 H 0.59663 0.17885 0.77635 0.0
H1535 H 0.54373 0.17575 0.77155 0.0
C1536 C 0.68898 0.18655 0.73646 0.0
C1537 C 0.7102 0.20987 0.74942 0.0
C1538 C 0.65555 0.17595 0.73672 0.0
C1539 C 0.64285 0.18906 0.74972 0.0
C1540 C 0.66364 0.21 0.76384 0.0
C1541 C 0.69718 0.22025 0.76374 0.0
C1542 C 0.56847 0.18413 0.72613 0.0
C1543 C 0.54839 0.18071 0.74141 0.0
C1544 C 0.5987 0.18601 0.72888 0.0
C1545 C 0.60948 0.18434 0.74699 0.0
C1546 C 0.5891 0.18037 0.76227 0.0
C1547 C 0.55882 0.17854 0.75949 0.0
H1548 H 0.62069 0.17361 0.27648 0.0
H1549 H 0.61606 0.18229 0.21663 0.0
H1550 H 0.57252 0.17996 0.28013 0.0
H1551 H 0.5687 0.18943 0.22024 0.0
H1552 H 0.47746 0.18878 0.22667 0.0
H1553 H 0.51208 0.16398 0.22876 0.0
H1554 H 0.56125 0.22478 0.27671 0.0
H1555 H 0.5253 0.24839 0.27501 0.0
C1556 C 0.6092 0.1766 0.2641 0.0
C1557 C 0.62219 0.17765 0.24626 0.0
C1558 C 0.5817 0.18032 0.26621 0.0
C1559 C 0.56669 0.18513 0.25051 0.0
C1560 C 0.57919 0.18512 0.23264 0.0
C1561 C 0.60656 0.18133 0.23054 0.0
C1562 C 0.49484 0.19581 0.23808 0.0
C1563 C 0.49904 0.22051 0.25062 0.0
C1564 C 0.51488 0.18192 0.23917 0.0
C1565 C 0.54005 0.19311 0.25255 0.0
C1566 C 0.54207 0.21557 0.26624 0.0
C1567 C 0.5215 0.22908 0.26533 0.0
H1568 H 0.74471 0.27752 0.27678 0.0
H1569 H 0.80045 0.28286 0.2278 0.0
H1570 H 0.76754 0.33713 0.27556 0.0
H1571 H 0.82441 0.34232 0.22692 0.0
H1572 H 0.80741 0.42743 0.21145 0.0
H1573 H 0.79858 0.37266 0.21731 0.0
H1574 H 0.8128 0.39355 0.27645 0.0
H1575 H 0.82085 0.4483 0.27057 0.0
C1576 C 0.76302 0.29172 0.26631 0.0
C1577 C 0.7708 0.2759 0.25233 0.0
C1578 C 0.77604 0.32581 0.26553 0.0
C1579 C 0.79719 0.34435 0.25084 0.0
C1580 C 0.80748 0.32864 0.23808 0.0
C1581 C 0.79411 0.2947 0.2387 0.0
C1582 C 0.80897 0.42046 0.22567 0.0
C1583 C 0.81466 0.44206 0.24053 0.0
C1584 C 0.8042 0.38914 0.22906 0.0
C1585 C 0.80518 0.37875 0.24738 0.0
C1586 C 0.81165 0.4007 0.26222 0.0
C1587 C 0.81636 0.43207 0.25882 0.0
H1588 H 0.72359 0.47287 0.2701 0.0
H1589 H 0.71288 0.51295 0.21813 0.0
H1590 H 0.66432 0.4346 0.27079 0.0
H1591 H 0.65372 0.47599 0.21911 0.0
H1592 H 0.56931 0.37087 0.20967 0.0
H1593 H 0.62399 0.41834 0.21293 0.0
H1594 H 0.60763 0.42191 0.27209 0.0
H1595 H 0.55301 0.37364 0.26884 0.0
C1596 C 0.7083 0.47445 0.2593 0.0
C1597 C 0.72254 0.49549 0.244 0.0
C1598 C 0.67439 0.4525 0.25963 0.0
C1599 C 0.65441 0.4517 0.24473 0.0
C1600 C 0.66853 0.47531 0.23049 0.0
C1601 C 0.7023 0.49673 0.23003 0.0
C1602 C 0.57727 0.38194 0.22333 0.0
C1603 C 0.55698 0.36849 0.23899 0.0
C1604 C 0.60853 0.40937 0.22521 0.0
C1605 C 0.62014 0.42413 0.24278 0.0
C1606 C 0.59953 0.411 0.2584 0.0
C1607 C 0.56824 0.38344 0.25652 0.0
H1608 H 0.49878 0.13194 0.92089 0.0
H1609 H 0.57201 0.19685 0.88158 0.0
H1610 H 0.47332 0.1661 0.92031 0.0
H1611 H 0.54774 0.23219 0.8816 0.0
H1612 H 0.50122 0.29463 0.88657 0.0
H1613 H 0.50535 0.24661 0.8777 0.0
H1614 H 0.49582 0.21783 0.93575 0.0
H1615 H 0.49096 0.26504 0.94444 0.0
C1616 C 0.50857 0.15289 0.91155 0.0
C1617 C 0.53725 0.16198 0.9013 0.0
C1618 C 0.49432 0.17269 0.91139 0.0
C1619 C 0.50911 0.20242 0.90139 0.0
C1620 C 0.53567 0.20947 0.88946 0.0
C1621 C 0.54957 0.18921 0.88936 0.0
C1622 C 0.49939 0.27762 0.89736 0.0
C1623 C 0.49609 0.28371 0.91624 0.0
C1624 C 0.50183 0.25019 0.89227 0.0
C1625 C 0.50094 0.22834 0.90597 0.0
C1626 C 0.496 0.23372 0.92474 0.0
C1627 C 0.49354 0.26103 0.9298 0.0
H1628 H 0.80342 0.39297 0.89427 0.0
H1629 H 0.83347 0.37256 0.94717 0.0
H1630 H 0.76053 0.33517 0.89174 0.0
H1631 H 0.79169 0.31486 0.94443 0.0
H1632 H 0.68416 0.23463 0.94892 0.0
H1633 H 0.73324 0.28869 0.94808 0.0
H1634 H 0.74397 0.27722 0.88905 0.0
H1635 H 0.69421 0.22328 0.88984 0.0
C1636 C 0.80164 0.37584 0.90497 0.0
C1637 C 0.8214 0.38709 0.92098 0.0
C1638 C 0.77704 0.34278 0.90359 0.0
C1639 C 0.77219 0.32059 0.91813 0.0
C1640 C 0.79412 0.3315 0.93327 0.0
C1641 C 0.81828 0.36444 0.93474 0.0
C1642 C 0.69704 0.2436 0.93579 0.0
C1643 C 0.68534 0.22478 0.91947 0.0
C1644 C 0.72536 0.27448 0.93531 0.0
C1645 C 0.74275 0.28717 0.91851 0.0
C1646 C 0.73106 0.26824 0.90217 0.0
C1647 C 0.70263 0.23733 0.90265 0.0
H1648 H 0.77311 0.47459 0.90343 0.0
H1649 H 0.77347 0.48589 0.96332 0.0
H1650 H 0.71561 0.45963 0.90233 0.0
H1651 H 0.71614 0.47211 0.96217 0.0
H1652 H 0.6078 0.39483 0.95611 0.0
H1653 H 0.66698 0.42094 0.95695 0.0
H1654 H 0.67347 0.47432 0.90644 0.0
H1655 H 0.61338 0.44714 0.90533 0.0
C1656 C 0.76107 0.47461 0.91632 0.0
C1657 C 0.77755 0.48087 0.93352 0.0
C1658 C 0.72815 0.46625 0.91566 0.0
C1659 C 0.71116 0.46423 0.93218 0.0
C1660 C 0.72837 0.47273 0.94923 0.0
C1661 C 0.76122 0.48077 0.94991 0.0
C1662 C 0.62175 0.41222 0.94518 0.0
C1663 C 0.60595 0.41886 0.9306 0.0
C1664 C 0.65579 0.42751 0.94579 0.0
C1665 C 0.67502 0.45002 0.93189 0.0
C1666 C 0.65928 0.45696 0.91732 0.0
C1667 C 0.62496 0.44146 0.91667 0.0
H1668 H 0.35768 0.78492 0.78144 0.0
H1669 H 0.36722 0.80713 0.72245 0.0
H1670 H 0.40514 0.77746 0.77996 0.0
H1671 H 0.4155 0.80051 0.72102 0.0
H1672 H 0.50239 0.78762 0.77821 0.0
H1673 H 0.46343 0.80717 0.77593 0.0
H1674 H 0.42899 0.75684 0.72312 0.0
H1675 H 0.46928 0.73843 0.72515 0.0
C1676 C 0.37018 0.78857 0.7682 0.0
C1677 C 0.35874 0.79654 0.75208 0.0
C1678 C 0.39758 0.78458 0.76735 0.0
C1679 C 0.41433 0.7887 0.75038 0.0
C1680 C 0.40304 0.79699 0.73426 0.0
C1681 C 0.37548 0.80088 0.7351 0.0
C1682 C 0.4871 0.78156 0.76587 0.0
C1683 C 0.48849 0.76137 0.75192 0.0
C1684 C 0.46458 0.79246 0.76464 0.0
C1685 C 0.44249 0.7828 0.74961 0.0
C1686 C 0.44569 0.76473 0.73488 0.0
C1687 C 0.46873 0.75421 0.73599 0.0
H1688 H 0.17464 0.7013 0.75606 0.0
H1689 H 0.24791 0.71107 0.71641 0.0
H1690 H 0.15142 0.64188 0.75645 0.0
H1691 H 0.22578 0.65167 0.71733 0.0
H1692 H 0.17015 0.56176 0.78074 0.0
H1693 H 0.17584 0.61424 0.77196 0.0
H1694 H 0.18386 0.59412 0.71389 0.0
H1695 H 0.17884 0.54157 0.72282 0.0
C1696 C 0.18489 0.69044 0.74685 0.0
C1697 C 0.21293 0.71047 0.7362 0.0
C1698 C 0.17195 0.65652 0.74726 0.0
C1699 C 0.18738 0.64214 0.73738 0.0
C1700 C 0.21327 0.66191 0.72511 0.0
C1701 C 0.2259 0.69593 0.72447 0.0
C1702 C 0.17273 0.56832 0.76608 0.0
C1703 C 0.17431 0.54768 0.75251 0.0
C1704 C 0.17566 0.59831 0.76099 0.0
C1705 C 0.18012 0.60837 0.74217 0.0
C1706 C 0.18065 0.5872 0.7285 0.0
C1707 C 0.17771 0.5571 0.73362 0.0
H1708 H 0.43918 0.62321 0.73452 0.0
H1709 H 0.44681 0.60728 0.79327 0.0
H1710 H 0.38233 0.57898 0.73452 0.0
H1711 H 0.39026 0.56185 0.79313 0.0
H1712 H 0.28128 0.53079 0.7926 0.0
H1713 H 0.34043 0.5625 0.79188 0.0
H1714 H 0.34059 0.52225 0.73761 0.0
H1715 H 0.28038 0.49085 0.73811 0.0
C1716 C 0.42893 0.60962 0.74733 0.0
C1717 C 0.44715 0.61904 0.764 0.0
C1718 C 0.39636 0.58406 0.7473 0.0
C1719 C 0.38151 0.56718 0.76389 0.0
C1720 C 0.40071 0.57493 0.78021 0.0
C1721 C 0.43313 0.60082 0.7803 0.0
C1722 C 0.29381 0.52839 0.78053 0.0
C1723 C 0.27615 0.50853 0.76532 0.0
C1724 C 0.3279 0.54635 0.78022 0.0
C1725 C 0.3454 0.54482 0.76475 0.0
C1726 C 0.32781 0.52415 0.74969 0.0
C1727 C 0.2934 0.50613 0.74998 0.0
H1728 H 0.4324 0.81298 0.0374 0.0
H1729 H 0.44873 0.83432 0.09639 0.0
H1730 H 0.45878 0.78045 0.03919 0.0
H1731 H 0.47671 0.80214 0.09814 0.0
H1732 H 0.47144 0.69943 0.09543 0.0
H1733 H 0.46045 0.74484 0.09673 0.0
H1734 H 0.50752 0.77902 0.04303 0.0
H1735 H 0.51676 0.7325 0.04135 0.0
C1736 C 0.44224 0.81121 0.05076 0.0
C1737 C 0.43817 0.82592 0.06682 0.0
C1738 C 0.45781 0.79278 0.05174 0.0
C1739 C 0.47006 0.78869 0.0688 0.0
C1740 C 0.46728 0.80458 0.08481 0.0
C1741 C 0.45145 0.82312 0.08382 0.0
C1742 C 0.47985 0.71699 0.08405 0.0
C1743 C 0.4943 0.71217 0.06811 0.0
C1744 C 0.47381 0.7432 0.08486 0.0
C1745 C 0.48257 0.7653 0.06983 0.0
C1746 C 0.49961 0.76192 0.05462 0.0
C1747 C 0.50503 0.73537 0.05365 0.0
H1748 H 0.17378 0.61205 0.10031 0.0
H1749 H 0.19014 0.61486 0.0408 0.0
H1750 H 0.20631 0.67233 0.10127 0.0
H1751 H 0.22295 0.67389 0.04178 0.0
H1752 H 0.27078 0.78024 0.04296 0.0
H1753 H 0.22469 0.72435 0.04573 0.0
H1754 H 0.26354 0.71319 0.09823 0.0
H1755 H 0.3086 0.76967 0.09585 0.0
C1756 C 0.18398 0.62551 0.08746 0.0
C1757 C 0.17969 0.60878 0.07053 0.0
C1758 C 0.20271 0.65994 0.08799 0.0
C1759 C 0.21726 0.67803 0.07159 0.0
C1760 C 0.21169 0.66104 0.05464 0.0
C1761 C 0.19311 0.62698 0.05412 0.0
C1762 C 0.26908 0.76597 0.05522 0.0
C1763 C 0.29347 0.77898 0.06901 0.0
C1764 C 0.24276 0.73394 0.05682 0.0
C1765 C 0.24075 0.71399 0.07202 0.0
C1766 C 0.26413 0.72783 0.0864 0.0
C1767 C 0.29014 0.76012 0.08496 0.0
H1768 H 0.3849 0.57129 0.04069 0.0
H1769 H 0.39339 0.5602 0.09999 0.0
H1770 H 0.32603 0.54405 0.04341 0.0
H1771 H 0.33325 0.53157 0.10273 0.0
H1772 H 0.2345 0.53517 0.09934 0.0
H1773 H 0.29126 0.54718 0.10063 0.0
H1774 H 0.27688 0.49407 0.04896 0.0
H1775 H 0.22072 0.48361 0.04726 0.0
C1776 C 0.37408 0.56252 0.05434 0.0
C1777 C 0.39379 0.5682 0.07018 0.0
C1778 C 0.34012 0.54644 0.05586 0.0
C1779 C 0.32477 0.53538 0.07328 0.0
C1780 C 0.34438 0.53999 0.08913 0.0
C1781 C 0.37871 0.55621 0.08757 0.0
C1782 C 0.24339 0.52562 0.08844 0.0
C1783 C 0.22359 0.50912 0.07297 0.0
C1784 C 0.27583 0.53226 0.08925 0.0
C1785 C 0.28882 0.52212 0.07471 0.0
C1786 C 0.2679 0.50301 0.06013 0.0
C1787 C 0.23573 0.49693 0.05915 0.0
H1788 H 0.19067 0.57003 0.60567 0.0
H1789 H 0.14145 0.51455 0.55638 0.0
H1790 H 0.22894 0.54919 0.6041 0.0
H1791 H 0.17846 0.49241 0.55517 0.0
H1792 H 0.28329 0.51771 0.53884 0.0
H1793 H 0.23449 0.52127 0.54532 0.0
H1794 H 0.24352 0.5065 0.60414 0.0
H1795 H 0.29307 0.50378 0.59763 0.0
C1796 C 0.18705 0.55202 0.59511 0.0
C1797 C 0.16341 0.54386 0.58111 0.0
C1798 C 0.209 0.54015 0.59412 0.0
C1799 C 0.20724 0.51978 0.5792 0.0
C1800 C 0.18104 0.50877 0.56651 0.0
C1801 C 0.15959 0.52106 0.56733 0.0
C1802 C 0.27465 0.51484 0.55311 0.0
C1803 C 0.2921 0.51072 0.56772 0.0
C1804 C 0.24646 0.51656 0.55685 0.0
C1805 C 0.23496 0.51401 0.57529 0.0
C1806 C 0.25187 0.50881 0.58984 0.0
C1807 C 0.28017 0.50717 0.58608 0.0
H1808 H 0.41412 0.60959 0.59842 0.0
H1809 H 0.45937 0.6277 0.54404 0.0
H1810 H 0.43019 0.66768 0.60088 0.0
H1811 H 0.47678 0.68579 0.54672 0.0
H1812 H 0.47455 0.77872 0.6022 0.0
H1813 H 0.47117 0.72519 0.60269 0.0
H1814 H 0.44557 0.71278 0.54409 0.0
H1815 H 0.44997 0.76658 0.54352 0.0
C1816 C 0.42869 0.62632 0.58737 0.0
C1817 C 0.43533 0.61438 0.57099 0.0
C1818 C 0.43784 0.65956 0.58871 0.0
C1819 C 0.45407 0.68122 0.57376 0.0
C1820 C 0.46341 0.66959 0.55821 0.0
C1821 C 0.45382 0.63644 0.55676 0.0
C1822 C 0.46842 0.76458 0.58941 0.0
C1823 C 0.46247 0.77676 0.57281 0.0
C1824 C 0.46639 0.73389 0.58971 0.0
C1825 C 0.45829 0.71473 0.57343 0.0
C1826 C 0.4526 0.72715 0.55681 0.0
C1827 C 0.4548 0.75788 0.55649 0.0
H1828 H 0.3581 0.8521 0.56964 0.0
H1829 H 0.37736 0.80071 0.61327 0.0
H1830 H 0.29997 0.8108 0.5704 0.0
H1831 H 0.31921 0.75852 0.61367 0.0
H1832 H 0.2086 0.68817 0.61067 0.0
H1833 H 0.25993 0.73903 0.61719 0.0
H1834 H 0.27769 0.75558 0.55789 0.0
H1835 H 0.22646 0.70529 0.55144 0.0
C1836 C 0.34956 0.83256 0.57991 0.0
C1837 C 0.37198 0.82933 0.59133 0.0
C1838 C 0.3164 0.80871 0.58019 0.0
C1839 C 0.30523 0.7809 0.59167 0.0
C1840 C 0.32709 0.77964 0.60464 0.0
C1841 C 0.36035 0.80387 0.60451 0.0
C1842 C 0.22342 0.70288 0.59905 0.0
C1843 C 0.21363 0.69275 0.58053 0.0
C1844 C 0.25277 0.73194 0.6028 0.0
C1845 C 0.27271 0.75149 0.58809 0.0
C1846 C 0.26255 0.74149 0.56957 0.0
C1847 C 0.23335 0.71247 0.56584 0.0
H1848 H 0.24635 0.52133 0.22626 0.0
H1849 H 0.18257 0.48012 0.27397 0.0
H1850 H 0.23164 0.56437 0.22414 0.0
H1851 H 0.16692 0.52215 0.27155 0.0
H1852 H 0.18979 0.6339 0.22324 0.0
H1853 H 0.19141 0.58293 0.22002 0.0
H1854 H 0.20068 0.57949 0.27992 0.0
H1855 H 0.19846 0.62982 0.28313 0.0
C1856 C 0.22804 0.52063 0.23572 0.0
C1857 C 0.21576 0.49778 0.25037 0.0
C1858 C 0.2197 0.54531 0.23458 0.0
C1859 C 0.19879 0.54712 0.24801 0.0
C1860 C 0.18381 0.52194 0.26134 0.0
C1861 C 0.19245 0.49768 0.26261 0.0
C1862 C 0.19199 0.62208 0.23571 0.0
C1863 C 0.19404 0.63581 0.25345 0.0
C1864 C 0.19296 0.59296 0.23384 0.0
C1865 C 0.19583 0.57699 0.2497 0.0
C1866 C 0.19769 0.59074 0.26743 0.0
C1867 C 0.19676 0.61979 0.26928 0.0
H1868 H 0.44607 0.71363 0.29404 0.0
H1869 H 0.49324 0.7077 0.24359 0.0
H1870 H 0.40985 0.65485 0.29362 0.0
H1871 H 0.45704 0.6478 0.24344 0.0
H1872 H 0.3548 0.55143 0.23818 0.0
H1873 H 0.3995 0.60822 0.23824 0.0
H1874 H 0.40777 0.60369 0.29816 0.0
H1875 H 0.36214 0.54723 0.29814 0.0
C1876 C 0.44896 0.69966 0.28292 0.0
C1877 C 0.47247 0.71532 0.26879 0.0
C1878 C 0.42834 0.66578 0.28281 0.0
C1879 C 0.43073 0.64649 0.26863 0.0
C1880 C 0.45449 0.66204 0.25452 0.0
C1881 C 0.47524 0.69624 0.25461 0.0
C1882 C 0.36643 0.56248 0.25133 0.0
C1883 C 0.3547 0.54515 0.2682 0.0
C1884 C 0.39224 0.59496 0.25135 0.0
C1885 C 0.40696 0.61065 0.26822 0.0
C1886 C 0.39645 0.59254 0.28496 0.0
C1887 C 0.37042 0.56019 0.28496 0.0
H1888 H 0.45704 0.8289 0.22907 0.0
H1889 H 0.43617 0.82926 0.28778 0.0
H1890 H 0.40454 0.82466 0.22123 0.0
H1891 H 0.38355 0.82407 0.28007 0.0
H1892 H 0.2932 0.82053 0.26641 0.0
H1893 H 0.35289 0.84667 0.26703 0.0
H1894 H 0.34845 0.78112 0.22331 0.0
H1895 H 0.2888 0.75632 0.22218 0.0
C1896 C 0.44141 0.82853 0.2403 0.0
C1897 C 0.45051 0.82909 0.25906 0.0
C1898 C 0.4113 0.82597 0.23579 0.0
C1899 C 0.38968 0.82385 0.24998 0.0
C1900 C 0.39972 0.82619 0.26873 0.0
C1901 C 0.42983 0.8289 0.27321 0.0
C1902 C 0.30528 0.81289 0.25636 0.0
C1903 C 0.28674 0.78658 0.24424 0.0
C1904 C 0.33937 0.82749 0.25687 0.0
C1905 C 0.35541 0.81537 0.24562 0.0
C1906 C 0.33698 0.79119 0.23215 0.0
C1907 C 0.3028 0.77698 0.23141 0.0
loop_
_geom_bond_atom_site_label_1
_geom_bond_atom_site_label_2
_geom_bond_distance
_geom_bond_site_symmetry_2
_ccdc_geom_bond_type
In0 O1 2.294 . S
In0 O2 2.326 . S
In0 O6 2.266 . S
In0 O7 2.326 . S
In0 O8 2.266 . S
In0 O9 2.326 . S
In0 O11 2.294 . S
In0 O12 2.326 . S
O1 In0 2.294 . S
O1 C10 1.240 . S
O2 In0 2.326 . S
O2 C10 1.252 . S
C3 O6 1.252 . S
C3 O7 1.260 . S
C4 O11 1.240 . S
C4 O12 1.252 . S
C5 O8 1.252 1_565 S
C5 O9 1.260 1_565 S
O6 In0 2.266 . S
O6 C3 1.252 . S
O7 In0 2.326 . S
O7 C3 1.260 . S
O8 In0 2.266 . S
O8 C5 1.252 1_545 S
O9 In0 2.326 . S
O9 C5 1.260 1_545 S
C10 O1 1.240 . S
C10 O2 1.252 . S
O11 In0 2.294 . S
O11 C4 1.240 . S
O12 In0 2.326 . S
O12 C4 1.252 . S
In13 O14 2.294 . S
In13 O15 2.326 . S
In13 O19 2.266 . S
In13 O20 2.326 . S
In13 O21 2.266 . S
In13 O22 2.326 . S
In13 O24 2.294 . S
In13 O25 2.326 . S
O14 In13 2.294 . S
O14 C23 1.240 . S
O15 In13 2.326 . S
O15 C23 1.252 . S
C16 O19 1.252 . S
C16 O20 1.260 . S
C17 O24 1.240 . S
C17 O25 1.252 . S
C18 O21 1.252 1_455 S
C18 O22 1.260 1_455 S
O19 In13 2.266 . S
O19 C16 1.252 . S
O20 In13 2.326 . S
O20 C16 1.260 . S
O21 In13 2.266 . S
O21 C18 1.252 1_655 S
O22 In13 2.326 . S
O22 C18 1.260 1_655 S
C23 O14 1.240 . S
C23 O15 1.252 . S
O24 In13 2.294 . S
O24 C17 1.240 . S
O25 In13 2.326 . S
O25 C17 1.252 . S
In26 O27 2.294 . S
In26 O28 2.326 . S
In26 O32 2.266 . S
In26 O33 2.326 . S
In26 O34 2.266 . S
In26 O35 2.326 . S
In26 O37 2.294 . S
In26 O38 2.326 . S
O27 In26 2.294 . S
O27 C36 1.240 . S
O28 In26 2.326 . S
O28 C36 1.252 . S
C29 O32 1.252 . S
C29 O33 1.260 . S
C30 O37 1.240 . S
C30 O38 1.252 . S
C31 O34 1.252 . S
C31 O35 1.260 . S
O32 In26 2.266 . S
O32 C29 1.252 . S
O33 In26 2.326 . S
O33 C29 1.260 . S
O34 In26 2.266 . S
O34 C31 1.252 . S
O35 In26 2.326 . S
O35 C31 1.260 . S
C36 O27 1.240 . S
C36 O28 1.252 . S
O37 In26 2.294 . S
O37 C30 1.240 . S
O38 In26 2.326 . S
O38 C30 1.252 . S
In39 O40 2.294 . S
In39 O41 2.326 . S
In39 O45 2.266 . S
In39 O46 2.326 . S
In39 O47 2.266 . S
In39 O48 2.326 . S
In39 O50 2.294 . S
In39 O51 2.326 . S
O40 In39 2.294 . S
O40 C49 1.240 . S
O41 In39 2.326 . S
O41 C49 1.252 . S
C42 O45 1.252 . S
C42 O46 1.260 . S
C43 O50 1.240 . S
C43 O51 1.252 . S
C44 O47 1.252 1_655 S
C44 O48 1.260 1_655 S
O45 In39 2.266 . S
O45 C42 1.252 . S
O46 In39 2.326 . S
O46 C42 1.260 . S
O47 In39 2.266 . S
O47 C44 1.252 1_455 S
O48 In39 2.326 . S
O48 C44 1.260 1_455 S
C49 O40 1.240 . S
C49 O41 1.252 . S
O50 In39 2.294 . S
O50 C43 1.240 . S
O51 In39 2.326 . S
O51 C43 1.252 . S
In52 O53 2.294 . S
In52 O54 2.326 . S
In52 O58 2.266 . S
In52 O59 2.326 . S
In52 O60 2.266 . S
In52 O61 2.326 . S
In52 O63 2.294 . S
In52 O64 2.326 . S
O53 In52 2.294 . S
O53 C62 1.240 . S
O54 In52 2.326 . S
O54 C62 1.252 . S
C55 O58 1.252 . S
C55 O59 1.260 . S
C56 O63 1.240 . S
C56 O64 1.252 . S
C57 O60 1.252 . S
C57 O61 1.260 . S
O58 In52 2.266 . S
O58 C55 1.252 . S
O59 In52 2.326 . S
O59 C55 1.260 . S
O60 In52 2.266 . S
O60 C57 1.252 . S
O61 In52 2.326 . S
O61 C57 1.260 . S
C62 O53 1.240 . S
C62 O54 1.252 . S
O63 In52 2.294 . S
O63 C56 1.240 . S
O64 In52 2.326 . S
O64 C56 1.252 . S
In65 O66 2.294 . S
In65 O67 2.326 . S
In65 O71 2.266 . S
In65 O72 2.326 . S
In65 O73 2.266 . S
In65 O74 2.326 . S
In65 O76 2.294 . S
In65 O77 2.326 . S
O66 In65 2.294 . S
O66 C75 1.240 . S
O67 In65 2.326 . S
O67 C75 1.252 . S
C68 O71 1.252 1_545 S
C68 O72 1.260 1_545 S
C69 O76 1.240 . S
C69 O77 1.252 . S
C70 O73 1.252 . S
C70 O74 1.260 . S
O71 In65 2.266 . S
O71 C68 1.252 1_565 S
O72 In65 2.326 . S
O72 C68 1.260 1_565 S
O73 In65 2.266 . S
O73 C70 1.252 . S
O74 In65 2.326 . S
O74 C70 1.260 . S
C75 O66 1.240 . S
C75 O67 1.252 . S
O76 In65 2.294 . S
O76 C69 1.240 . S
O77 In65 2.326 . S
O77 C69 1.252 . S
In78 O79 2.294 . S
In78 O80 2.326 . S
In78 O84 2.266 . S
In78 O85 2.326 . S
In78 O86 2.266 . S
In78 O87 2.326 . S
In78 O89 2.294 . S
In78 O90 2.326 . S
O79 In78 2.294 . S
O79 C88 1.240 . S
O80 In78 2.326 . S
O80 C88 1.252 . S
C81 O84 1.252 . S
C81 O85 1.260 . S
C82 O89 1.240 . S
C82 O90 1.252 . S
C83 O86 1.252 1_545 S
C83 O87 1.260 1_545 S
O84 In78 2.266 . S
O84 C81 1.252 . S
O85 In78 2.326 . S
O85 C81 1.260 . S
O86 In78 2.266 . S
O86 C83 1.252 1_565 S
O87 In78 2.326 . S
O87 C83 1.260 1_565 S
C88 O79 1.240 . S
C88 O80 1.252 . S
O89 In78 2.294 . S
O89 C82 1.240 . S
O90 In78 2.326 . S
O90 C82 1.252 . S
In91 O92 2.294 . S
In91 O93 2.326 . S
In91 O97 2.266 . S
In91 O98 2.326 . S
In91 O99 2.266 . S
In91 O100 2.326 . S
In91 O102 2.294 . S
In91 O103 2.326 . S
O92 In91 2.294 . S
O92 C101 1.240 . S
O93 In91 2.326 . S
O93 C101 1.252 . S
C94 O97 1.252 . S
C94 O98 1.260 . S
C95 O102 1.240 . S
C95 O103 1.252 . S
C96 O99 1.252 1_655 S
C96 O100 1.260 1_655 S
O97 In91 2.266 . S
O97 C94 1.252 . S
O98 In91 2.326 . S
O98 C94 1.260 . S
O99 In91 2.266 . S
O99 C96 1.252 1_455 S
O100 In91 2.326 . S
O100 C96 1.260 1_455 S
C101 O92 1.240 . S
C101 O93 1.252 . S
O102 In91 2.294 . S
O102 C95 1.240 . S
O103 In91 2.326 . S
O103 C95 1.252 . S
In104 O105 2.294 . S
In104 O106 2.326 . S
In104 O110 2.266 . S
In104 O111 2.326 . S
In104 O112 2.266 . S
In104 O113 2.326 . S
In104 O115 2.294 . S
In104 O116 2.326 . S
O105 In104 2.294 . S
O105 C114 1.240 . S
O106 In104 2.326 . S
O106 C114 1.252 . S
C107 O110 1.252 . S
C107 O111 1.260 . S
C108 O115 1.240 . S
C108 O116 1.252 . S
C109 O112 1.252 . S
C109 O113 1.260 . S
O110 In104 2.266 . S
O110 C107 1.252 . S
O111 In104 2.326 . S
O111 C107 1.260 . S
O112 In104 2.266 . S
O112 C109 1.252 . S
O113 In104 2.326 . S
O113 C109 1.260 . S
C114 O105 1.240 . S
C114 O106 1.252 . S
O115 In104 2.294 . S
O115 C108 1.240 . S
O116 In104 2.326 . S
O116 C108 1.252 . S
In117 O118 2.294 . S
In117 O119 2.326 . S
In117 O123 2.266 . S
In117 O124 2.326 . S
In117 O125 2.266 . S
In117 O126 2.326 . S
In117 O128 2.294 . S
In117 O129 2.326 . S
O118 In117 2.294 . S
O118 C127 1.240 . S
O119 In117 2.326 . S
O119 C127 1.252 . S
C120 O123 1.252 . S
C120 O124 1.260 . S
C121 O128 1.240 . S
C121 O129 1.252 . S
C122 O125 1.252 1_455 S
C122 O126 1.260 1_455 S
O123 In117 2.266 . S
O123 C120 1.252 . S
O124 In117 2.326 . S
O124 C120 1.260 . S
O125 In117 2.266 . S
O125 C122 1.252 1_655 S
O126 In117 2.326 . S
O126 C122 1.260 1_655 S
C127 O118 1.240 . S
C127 O119 1.252 . S
O128 In117 2.294 . S
O128 C121 1.240 . S
O129 In117 2.326 . S
O129 C121 1.252 . S
In130 O131 2.294 . S
In130 O132 2.326 . S
In130 O136 2.266 . S
In130 O137 2.326 . S
In130 O138 2.266 . S
In130 O139 2.326 . S
In130 O141 2.294 . S
In130 O142 2.326 . S
O131 In130 2.294 . S
O131 C140 1.240 . S
O132 In130 2.326 . S
O132 C140 1.252 . S
C133 O136 1.252 . S
C133 O137 1.260 . S
C134 O141 1.240 . S
C134 O142 1.252 . S
C135 O138 1.252 . S
C135 O139 1.260 . S
O136 In130 2.266 . S
O136 C133 1.252 . S
O137 In130 2.326 . S
O137 C133 1.260 . S
O138 In130 2.266 . S
O138 C135 1.252 . S
O139 In130 2.326 . S
O139 C135 1.260 . S
C140 O131 1.240 . S
C140 O132 1.252 . S
O141 In130 2.294 . S
O141 C134 1.240 . S
O142 In130 2.326 . S
O142 C134 1.252 . S
In143 O144 2.294 . S
In143 O145 2.326 . S
In143 O149 2.266 . S
In143 O150 2.326 . S
In143 O151 2.266 . S
In143 O152 2.326 . S
In143 O154 2.294 . S
In143 O155 2.326 . S
O144 In143 2.294 . S
O144 C153 1.240 . S
O145 In143 2.326 . S
O145 C153 1.252 . S
C146 O149 1.252 1_565 S
C146 O150 1.260 1_565 S
C147 O154 1.240 . S
C147 O155 1.252 . S
C148 O151 1.252 . S
C148 O152 1.260 . S
O149 In143 2.266 . S
O149 C146 1.252 1_545 S
O150 In143 2.326 . S
O150 C146 1.260 1_545 S
O151 In143 2.266 . S
O151 C148 1.252 . S
O152 In143 2.326 . S
O152 C148 1.260 . S
C153 O144 1.240 . S
C153 O145 1.252 . S
O154 In143 2.294 . S
O154 C147 1.240 . S
O155 In143 2.326 . S
O155 C147 1.252 . S
In156 O157 2.294 . S
In156 O158 2.326 . S
In156 O162 2.266 . S
In156 O163 2.326 . S
In156 O164 2.266 . S
In156 O165 2.326 . S
In156 O167 2.294 . S
In156 O168 2.326 . S
O157 In156 2.294 . S
O157 C166 1.240 . S
O158 In156 2.326 . S
O158 C166 1.252 . S
C159 O162 1.252 . S
C159 O163 1.260 . S
C160 O167 1.240 . S
C160 O168 1.252 . S
C161 O164 1.252 . S
C161 O165 1.260 . S
O162 In156 2.266 . S
O162 C159 1.252 . S
O163 In156 2.326 . S
O163 C159 1.260 . S
O164 In156 2.266 . S
O164 C161 1.252 . S
O165 In156 2.326 . S
O165 C161 1.260 . S
C166 O157 1.240 . S
C166 O158 1.252 . S
O167 In156 2.294 . S
O167 C160 1.240 . S
O168 In156 2.326 . S
O168 C160 1.252 . S
In169 O170 2.294 . S
In169 O171 2.326 . S
In169 O175 2.266 . S
In169 O176 2.326 . S
In169 O177 2.266 . S
In169 O178 2.326 . S
In169 O180 2.294 . S
In169 O181 2.326 . S
O170 In169 2.294 . S
O170 C179 1.240 . S
O171 In169 2.326 . S
O171 C179 1.252 . S
C172 O175 1.252 . S
C172 O176 1.260 . S
C173 O180 1.240 . S
C173 O181 1.252 . S
C174 O177 1.252 . S
C174 O178 1.260 . S
O175 In169 2.266 . S
O175 C172 1.252 . S
O176 In169 2.326 . S
O176 C172 1.260 . S
O177 In169 2.266 . S
O177 C174 1.252 . S
O178 In169 2.326 . S
O178 C174 1.260 . S
C179 O170 1.240 . S
C179 O171 1.252 . S
O180 In169 2.294 . S
O180 C173 1.240 . S
O181 In169 2.326 . S
O181 C173 1.252 . S
In182 O183 2.294 . S
In182 O184 2.326 . S
In182 O188 2.266 . S
In182 O189 2.326 . S
In182 O190 2.266 . S
In182 O191 2.326 . S
In182 O193 2.294 . S
In182 O194 2.326 . S
O183 In182 2.294 . S
O183 C192 1.240 . S
O184 In182 2.326 . S
O184 C192 1.252 . S
C185 O188 1.252 . S
C185 O189 1.260 . S
C186 O193 1.240 . S
C186 O194 1.252 . S
C187 O190 1.252 . S
C187 O191 1.260 . S
O188 In182 2.266 . S
O188 C185 1.252 . S
O189 In182 2.326 . S
O189 C185 1.260 . S
O190 In182 2.266 . S
O190 C187 1.252 . S
O191 In182 2.326 . S
O191 C187 1.260 . S
C192 O183 1.240 . S
C192 O184 1.252 . S
O193 In182 2.294 . S
O193 C186 1.240 . S
O194 In182 2.326 . S
O194 C186 1.252 . S
In195 O196 2.294 . S
In195 O197 2.326 . S
In195 O201 2.266 . S
In195 O202 2.326 . S
In195 O203 2.266 . S
In195 O204 2.326 . S
In195 O206 2.294 . S
In195 O207 2.326 . S
O196 In195 2.294 . S
O196 C205 1.240 . S
O197 In195 2.326 . S
O197 C205 1.252 . S
C198 O201 1.252 . S
C198 O202 1.260 . S
C199 O206 1.240 . S
C199 O207 1.252 . S
C200 O203 1.252 . S
C200 O204 1.260 . S
O201 In195 2.266 . S
O201 C198 1.252 . S
O202 In195 2.326 . S
O202 C198 1.260 . S
O203 In195 2.266 . S
O203 C200 1.252 . S
O204 In195 2.326 . S
O204 C200 1.260 . S
C205 O196 1.240 . S
C205 O197 1.252 . S
O206 In195 2.294 . S
O206 C199 1.240 . S
O207 In195 2.326 . S
O207 C199 1.252 . S
In208 O209 2.294 . S
In208 O210 2.326 . S
In208 O214 2.266 . S
In208 O215 2.326 . S
In208 O216 2.266 . S
In208 O217 2.326 . S
In208 O219 2.294 . S
In208 O220 2.326 . S
O209 In208 2.294 . S
O209 C218 1.240 . S
O210 In208 2.326 . S
O210 C218 1.252 . S
C211 O214 1.252 . S
C211 O215 1.260 . S
C212 O219 1.240 . S
C212 O220 1.252 . S
C213 O216 1.252 . S
C213 O217 1.260 . S
O214 In208 2.266 . S
O214 C211 1.252 . S
O215 In208 2.326 . S
O215 C211 1.260 . S
O216 In208 2.266 . S
O216 C213 1.252 . S
O217 In208 2.326 . S
O217 C213 1.260 . S
C218 O209 1.240 . S
C218 O210 1.252 . S
O219 In208 2.294 . S
O219 C212 1.240 . S
O220 In208 2.326 . S
O220 C212 1.252 . S
In221 O222 2.294 . S
In221 O223 2.326 . S
In221 O227 2.266 . S
In221 O228 2.326 . S
In221 O229 2.266 . S
In221 O230 2.326 . S
In221 O232 2.294 . S
In221 O233 2.326 . S
O222 In221 2.294 . S
O222 C231 1.240 . S
O223 In221 2.326 . S
O223 C231 1.252 . S
C224 O227 1.252 . S
C224 O228 1.260 . S
C225 O232 1.240 . S
C225 O233 1.252 . S
C226 O229 1.252 . S
C226 O230 1.260 . S
O227 In221 2.266 . S
O227 C224 1.252 . S
O228 In221 2.326 . S
O228 C224 1.260 . S
O229 In221 2.266 . S
O229 C226 1.252 . S
O230 In221 2.326 . S
O230 C226 1.260 . S
C231 O222 1.240 . S
C231 O223 1.252 . S
O232 In221 2.294 . S
O232 C225 1.240 . S
O233 In221 2.326 . S
O233 C225 1.252 . S
In234 O235 2.294 . S
In234 O236 2.326 . S
In234 O240 2.266 . S
In234 O241 2.326 . S
In234 O242 2.266 . S
In234 O243 2.326 . S
In234 O245 2.294 . S
In234 O246 2.326 . S
O235 In234 2.294 . S
O235 C244 1.240 . S
O236 In234 2.326 . S
O236 C244 1.252 . S
C237 O240 1.252 . S
C237 O241 1.260 . S
C238 O245 1.240 . S
C238 O246 1.252 . S
C239 O242 1.252 . S
C239 O243 1.260 . S
O240 In234 2.266 . S
O240 C237 1.252 . S
O241 In234 2.326 . S
O241 C237 1.260 . S
O242 In234 2.266 . S
O242 C239 1.252 . S
O243 In234 2.326 . S
O243 C239 1.260 . S
C244 O235 1.240 . S
C244 O236 1.252 . S
O245 In234 2.294 . S
O245 C238 1.240 . S
O246 In234 2.326 . S
O246 C238 1.252 . S
In247 O248 2.294 . S
In247 O249 2.326 . S
In247 O253 2.266 . S
In247 O254 2.326 . S
In247 O255 2.266 . S
In247 O256 2.326 . S
In247 O258 2.294 . S
In247 O259 2.326 . S
O248 In247 2.294 . S
O248 C257 1.240 . S
O249 In247 2.326 . S
O249 C257 1.252 . S
C250 O253 1.252 . S
C250 O254 1.260 . S
C251 O258 1.240 . S
C251 O259 1.252 . S
C252 O255 1.252 . S
C252 O256 1.260 . S
O253 In247 2.266 . S
O253 C250 1.252 . S
O254 In247 2.326 . S
O254 C250 1.260 . S
O255 In247 2.266 . S
O255 C252 1.252 . S
O256 In247 2.326 . S
O256 C252 1.260 . S
C257 O248 1.240 . S
C257 O249 1.252 . S
O258 In247 2.294 . S
O258 C251 1.240 . S
O259 In247 2.326 . S
O259 C251 1.252 . S
In260 O261 2.294 . S
In260 O262 2.326 . S
In260 O266 2.266 . S
In260 O267 2.326 . S
In260 O268 2.266 . S
In260 O269 2.326 . S
In260 O271 2.294 . S
In260 O272 2.326 . S
O261 In260 2.294 . S
O261 C270 1.240 . S
O262 In260 2.326 . S
O262 C270 1.252 . S
C263 O266 1.252 . S
C263 O267 1.260 . S
C264 O271 1.240 . S
C264 O272 1.252 . S
C265 O268 1.252 . S
C265 O269 1.260 . S
O266 In260 2.266 . S
O266 C263 1.252 . S
O267 In260 2.326 . S
O267 C263 1.260 . S
O268 In260 2.266 . S
O268 C265 1.252 . S
O269 In260 2.326 . S
O269 C265 1.260 . S
C270 O261 1.240 . S
C270 O262 1.252 . S
O271 In260 2.294 . S
O271 C264 1.240 . S
O272 In260 2.326 . S
O272 C264 1.252 . S
In273 O274 2.294 . S
In273 O275 2.326 . S
In273 O279 2.266 . S
In273 O280 2.326 . S
In273 O281 2.266 . S
In273 O282 2.326 . S
In273 O284 2.294 . S
In273 O285 2.326 . S
O274 In273 2.294 . S
O274 C283 1.240 . S
O275 In273 2.326 . S
O275 C283 1.252 . S
C276 O279 1.252 . S
C276 O280 1.260 . S
C277 O284 1.240 . S
C277 O285 1.252 . S
C278 O281 1.252 . S
C278 O282 1.260 . S
O279 In273 2.266 . S
O279 C276 1.252 . S
O280 In273 2.326 . S
O280 C276 1.260 . S
O281 In273 2.266 . S
O281 C278 1.252 . S
O282 In273 2.326 . S
O282 C278 1.260 . S
C283 O274 1.240 . S
C283 O275 1.252 . S
O284 In273 2.294 . S
O284 C277 1.240 . S
O285 In273 2.326 . S
O285 C277 1.252 . S
In286 O287 2.294 . S
In286 O288 2.326 . S
In286 O292 2.266 . S
In286 O293 2.326 . S
In286 O294 2.266 . S
In286 O295 2.326 . S
In286 O297 2.294 . S
In286 O298 2.326 . S
O287 In286 2.294 . S
O287 C296 1.240 . S
O288 In286 2.326 . S
O288 C296 1.252 . S
C289 O292 1.252 . S
C289 O293 1.260 . S
C290 O297 1.240 . S
C290 O298 1.252 . S
C291 O294 1.252 . S
C291 O295 1.260 . S
O292 In286 2.266 . S
O292 C289 1.252 . S
O293 In286 2.326 . S
O293 C289 1.260 . S
O294 In286 2.266 . S
O294 C291 1.252 . S
O295 In286 2.326 . S
O295 C291 1.260 . S
C296 O287 1.240 . S
C296 O288 1.252 . S
O297 In286 2.294 . S
O297 C290 1.240 . S
O298 In286 2.326 . S
O298 C290 1.252 . S
In299 O300 2.294 . S
In299 O301 2.326 . S
In299 O305 2.266 . S
In299 O306 2.326 . S
In299 O307 2.266 . S
In299 O308 2.326 . S
In299 O310 2.294 . S
In299 O311 2.326 . S
O300 In299 2.294 . S
O300 C309 1.240 . S
O301 In299 2.326 . S
O301 C309 1.252 . S
C302 O305 1.252 . S
C302 O306 1.260 . S
C303 O310 1.240 . S
C303 O311 1.252 . S
C304 O307 1.252 . S
C304 O308 1.260 . S
O305 In299 2.266 . S
O305 C302 1.252 . S
O306 In299 2.326 . S
O306 C302 1.260 . S
O307 In299 2.266 . S
O307 C304 1.252 . S
O308 In299 2.326 . S
O308 C304 1.260 . S
C309 O300 1.240 . S
C309 O301 1.252 . S
O310 In299 2.294 . S
O310 C303 1.240 . S
O311 In299 2.326 . S
O311 C303 1.252 . S
In312 O313 2.294 . S
In312 O314 2.326 . S
In312 O318 2.266 . S
In312 O319 2.326 . S
In312 O320 2.266 . S
In312 O321 2.326 . S
In312 O323 2.294 . S
In312 O324 2.326 . S
O313 In312 2.294 . S
O313 C322 1.240 . S
O314 In312 2.326 . S
O314 C322 1.252 . S
C315 O318 1.252 . S
C315 O319 1.260 . S
C316 O323 1.240 . S
C316 O324 1.252 . S
C317 O320 1.252 . S
C317 O321 1.260 . S
O318 In312 2.266 . S
O318 C315 1.252 . S
O319 In312 2.326 . S
O319 C315 1.260 . S
O320 In312 2.266 . S
O320 C317 1.252 . S
O321 In312 2.326 . S
O321 C317 1.260 . S
C322 O313 1.240 . S
C322 O314 1.252 . S
O323 In312 2.294 . S
O323 C316 1.240 . S
O324 In312 2.326 . S
O324 C316 1.252 . S
In325 O326 2.294 . S
In325 O327 2.326 . S
In325 O331 2.266 . S
In325 O332 2.326 . S
In325 O333 2.266 . S
In325 O334 2.326 . S
In325 O336 2.294 . S
In325 O337 2.326 . S
O326 In325 2.294 . S
O326 C335 1.240 . S
O327 In325 2.326 . S
O327 C335 1.252 . S
C328 O331 1.252 . S
C328 O332 1.260 . S
C329 O336 1.240 . S
C329 O337 1.252 . S
C330 O333 1.252 . S
C330 O334 1.260 . S
O331 In325 2.266 . S
O331 C328 1.252 . S
O332 In325 2.326 . S
O332 C328 1.260 . S
O333 In325 2.266 . S
O333 C330 1.252 . S
O334 In325 2.326 . S
O334 C330 1.260 . S
C335 O326 1.240 . S
C335 O327 1.252 . S
O336 In325 2.294 . S
O336 C329 1.240 . S
O337 In325 2.326 . S
O337 C329 1.252 . S
In338 O339 2.294 . S
In338 O340 2.326 . S
In338 O344 2.266 . S
In338 O345 2.326 . S
In338 O346 2.266 . S
In338 O347 2.326 . S
In338 O349 2.294 . S
In338 O350 2.326 . S
O339 In338 2.294 . S
O339 C348 1.240 . S
O340 In338 2.326 . S
O340 C348 1.252 . S
C341 O344 1.252 . S
C341 O345 1.260 . S
C342 O349 1.240 . S
C342 O350 1.252 . S
C343 O346 1.252 . S
C343 O347 1.260 . S
O344 In338 2.266 . S
O344 C341 1.252 . S
O345 In338 2.326 . S
O345 C341 1.260 . S
O346 In338 2.266 . S
O346 C343 1.252 . S
O347 In338 2.326 . S
O347 C343 1.260 . S
C348 O339 1.240 . S
C348 O340 1.252 . S
O349 In338 2.294 . S
O349 C342 1.240 . S
O350 In338 2.326 . S
O350 C342 1.252 . S
In351 O352 2.294 . S
In351 O353 2.326 . S
In351 O357 2.266 . S
In351 O358 2.326 . S
In351 O359 2.266 . S
In351 O360 2.326 . S
In351 O362 2.294 . S
In351 O363 2.326 . S
O352 In351 2.294 . S
O352 C361 1.240 . S
O353 In351 2.326 . S
O353 C361 1.252 . S
C354 O357 1.252 . S
C354 O358 1.260 . S
C355 O362 1.240 . S
C355 O363 1.252 . S
C356 O359 1.252 . S
C356 O360 1.260 . S
O357 In351 2.266 . S
O357 C354 1.252 . S
O358 In351 2.326 . S
O358 C354 1.260 . S
O359 In351 2.266 . S
O359 C356 1.252 . S
O360 In351 2.326 . S
O360 C356 1.260 . S
C361 O352 1.240 . S
C361 O353 1.252 . S
O362 In351 2.294 . S
O362 C355 1.240 . S
O363 In351 2.326 . S
O363 C355 1.252 . S
In364 O365 2.294 . S
In364 O366 2.326 . S
In364 O370 2.266 . S
In364 O371 2.326 . S
In364 O372 2.266 . S
In364 O373 2.326 . S
In364 O375 2.294 . S
In364 O376 2.326 . S
O365 In364 2.294 . S
O365 C374 1.240 . S
O366 In364 2.326 . S
O366 C374 1.252 . S
C367 O370 1.252 . S
C367 O371 1.260 . S
C368 O375 1.240 . S
C368 O376 1.252 . S
C369 O372 1.252 . S
C369 O373 1.260 . S
O370 In364 2.266 . S
O370 C367 1.252 . S
O371 In364 2.326 . S
O371 C367 1.260 . S
O372 In364 2.266 . S
O372 C369 1.252 . S
O373 In364 2.326 . S
O373 C369 1.260 . S
C374 O365 1.240 . S
C374 O366 1.252 . S
O375 In364 2.294 . S
O375 C368 1.240 . S
O376 In364 2.326 . S
O376 C368 1.252 . S
In377 O378 2.294 . S
In377 O379 2.326 . S
In377 O383 2.266 . S
In377 O384 2.326 . S
In377 O385 2.266 . S
In377 O386 2.326 . S
In377 O388 2.294 . S
In377 O389 2.326 . S
O378 In377 2.294 . S
O378 C387 1.240 . S
O379 In377 2.326 . S
O379 C387 1.252 . S
C380 O383 1.252 . S
C380 O384 1.260 . S
C381 O388 1.240 . S
C381 O389 1.252 . S
C382 O385 1.252 . S
C382 O386 1.260 . S
O383 In377 2.266 . S
O383 C380 1.252 . S
O384 In377 2.326 . S
O384 C380 1.260 . S
O385 In377 2.266 . S
O385 C382 1.252 . S
O386 In377 2.326 . S
O386 C382 1.260 . S
C387 O378 1.240 . S
C387 O379 1.252 . S
O388 In377 2.294 . S
O388 C381 1.240 . S
O389 In377 2.326 . S
O389 C381 1.252 . S
In390 O391 2.294 . S
In390 O392 2.326 . S
In390 O396 2.266 . S
In390 O397 2.326 . S
In390 O398 2.266 . S
In390 O399 2.326 . S
In390 O401 2.294 . S
In390 O402 2.326 . S
O391 In390 2.294 . S
O391 C400 1.240 . S
O392 In390 2.326 . S
O392 C400 1.252 . S
C393 O396 1.252 . S
C393 O397 1.260 . S
C394 O401 1.240 . S
C394 O402 1.252 . S
C395 O398 1.252 . S
C395 O399 1.260 . S
O396 In390 2.266 . S
O396 C393 1.252 . S
O397 In390 2.326 . S
O397 C393 1.260 . S
O398 In390 2.266 . S
O398 C395 1.252 . S
O399 In390 2.326 . S
O399 C395 1.260 . S
C400 O391 1.240 . S
C400 O392 1.252 . S
O401 In390 2.294 . S
O401 C394 1.240 . S
O402 In390 2.326 . S
O402 C394 1.252 . S
In403 O404 2.294 . S
In403 O405 2.326 . S
In403 O409 2.266 . S
In403 O410 2.326 . S
In403 O411 2.266 . S
In403 O412 2.326 . S
In403 O414 2.294 . S
In403 O415 2.326 . S
O404 In403 2.294 . S
O404 C413 1.240 . S
O405 In403 2.326 . S
O405 C413 1.252 . S
C406 O409 1.252 . S
C406 O410 1.260 . S
C407 O414 1.240 . S
C407 O415 1.252 . S
C408 O411 1.252 . S
C408 O412 1.260 . S
O409 In403 2.266 . S
O409 C406 1.252 . S
O410 In403 2.326 . S
O410 C406 1.260 . S
O411 In403 2.266 . S
O411 C408 1.252 . S
O412 In403 2.326 . S
O412 C408 1.260 . S
C413 O404 1.240 . S
C413 O405 1.252 . S
O414 In403 2.294 . S
O414 C407 1.240 . S
O415 In403 2.326 . S
O415 C407 1.252 . S
In416 O417 2.294 . S
In416 O418 2.326 . S
In416 O422 2.266 . S
In416 O423 2.326 . S
In416 O424 2.266 . S
In416 O425 2.326 . S
In416 O427 2.294 . S
In416 O428 2.326 . S
O417 In416 2.294 . S
O417 C426 1.240 . S
O418 In416 2.326 . S
O418 C426 1.252 . S
C419 O422 1.252 . S
C419 O423 1.260 . S
C420 O427 1.240 . S
C420 O428 1.252 . S
C421 O424 1.252 . S
C421 O425 1.260 . S
O422 In416 2.266 . S
O422 C419 1.252 . S
O423 In416 2.326 . S
O423 C419 1.260 . S
O424 In416 2.266 . S
O424 C421 1.252 . S
O425 In416 2.326 . S
O425 C421 1.260 . S
C426 O417 1.240 . S
C426 O418 1.252 . S
O427 In416 2.294 . S
O427 C420 1.240 . S
O428 In416 2.326 . S
O428 C420 1.252 . S
In429 O430 2.294 . S
In429 O431 2.326 . S
In429 O435 2.266 . S
In429 O436 2.326 . S
In429 O437 2.266 . S
In429 O438 2.326 . S
In429 O440 2.294 . S
In429 O441 2.326 . S
O430 In429 2.294 . S
O430 C439 1.240 . S
O431 In429 2.326 . S
O431 C439 1.252 . S
C432 O435 1.252 . S
C432 O436 1.260 . S
C433 O440 1.240 . S
C433 O441 1.252 . S
C434 O437 1.252 . S
C434 O438 1.260 . S
O435 In429 2.266 . S
O435 C432 1.252 . S
O436 In429 2.326 . S
O436 C432 1.260 . S
O437 In429 2.266 . S
O437 C434 1.252 . S
O438 In429 2.326 . S
O438 C434 1.260 . S
C439 O430 1.240 . S
C439 O431 1.252 . S
O440 In429 2.294 . S
O440 C433 1.240 . S
O441 In429 2.326 . S
O441 C433 1.252 . S
In442 O443 2.294 . S
In442 O444 2.326 . S
In442 O448 2.266 . S
In442 O449 2.326 . S
In442 O450 2.266 . S
In442 O451 2.326 . S
In442 O453 2.294 . S
In442 O454 2.326 . S
O443 In442 2.294 . S
O443 C452 1.240 . S
O444 In442 2.326 . S
O444 C452 1.252 . S
C445 O448 1.252 . S
C445 O449 1.260 . S
C446 O453 1.240 . S
C446 O454 1.252 . S
C447 O450 1.252 . S
C447 O451 1.260 . S
O448 In442 2.266 . S
O448 C445 1.252 . S
O449 In442 2.326 . S
O449 C445 1.260 . S
O450 In442 2.266 . S
O450 C447 1.252 . S
O451 In442 2.326 . S
O451 C447 1.260 . S
C452 O443 1.240 . S
C452 O444 1.252 . S
O453 In442 2.294 . S
O453 C446 1.240 . S
O454 In442 2.326 . S
O454 C446 1.252 . S
In455 O456 2.294 . S
In455 O457 2.326 . S
In455 O461 2.266 . S
In455 O462 2.326 . S
In455 O463 2.266 . S
In455 O464 2.326 . S
In455 O466 2.294 . S
In455 O467 2.326 . S
O456 In455 2.294 . S
O456 C465 1.240 . S
O457 In455 2.326 . S
O457 C465 1.252 . S
C458 O461 1.252 . S
C458 O462 1.260 . S
C459 O466 1.240 . S
C459 O467 1.252 . S
C460 O463 1.252 . S
C460 O464 1.260 . S
O461 In455 2.266 . S
O461 C458 1.252 . S
O462 In455 2.326 . S
O462 C458 1.260 . S
O463 In455 2.266 . S
O463 C460 1.252 . S
O464 In455 2.326 . S
O464 C460 1.260 . S
C465 O456 1.240 . S
C465 O457 1.252 . S
O466 In455 2.294 . S
O466 C459 1.240 . S
O467 In455 2.326 . S
O467 C459 1.252 . S
H468 C476 0.950 . S
H469 C481 0.950 . S
H470 C478 0.950 . S
H471 C480 0.950 . S
H472 C482 0.950 . S
H473 C484 0.950 . S
H474 C486 0.950 . S
H475 C487 0.950 . S
C476 H468 0.950 . S
C476 C477 1.386 . S
C476 C478 1.391 . S
C477 C476 1.386 . S
C477 C481 1.393 . S
C478 H470 0.950 . S
C478 C476 1.391 . S
C478 C479 1.400 . S
C479 C478 1.400 . S
C479 C480 1.398 . S
C479 C485 1.491 . S
C480 H471 0.950 . S
C480 C479 1.398 . S
C480 C481 1.391 . S
C481 H469 0.950 . S
C481 C477 1.393 . S
C481 C480 1.391 . S
C482 H472 0.950 . S
C482 C483 1.386 . S
C482 C484 1.391 . S
C483 C482 1.386 . S
C483 C487 1.393 . S
C484 H473 0.950 . S
C484 C482 1.391 . S
C484 C485 1.400 . S
C485 C479 1.491 . S
C485 C484 1.400 . S
C485 C486 1.398 . S
C486 H474 0.950 . S
C486 C485 1.398 . S
C486 C487 1.391 . S
C487 H475 0.950 . S
C487 C483 1.393 . S
C487 C486 1.391 . S
H488 C496 0.950 . S
H489 C501 0.950 . S
H490 C498 0.950 . S
H491 C500 0.950 . S
H492 C502 0.950 . S
H493 C504 0.950 . S
H494 C506 0.950 . S
H495 C507 0.950 . S
C496 H488 0.950 . S
C496 C497 1.386 . S
C496 C498 1.391 . S
C497 C496 1.386 . S
C497 C501 1.393 . S
C498 H490 0.950 . S
C498 C496 1.391 . S
C498 C499 1.400 . S
C499 C498 1.400 . S
C499 C500 1.398 . S
C499 C505 1.491 . S
C500 H491 0.950 . S
C500 C499 1.398 . S
C500 C501 1.391 . S
C501 H489 0.950 . S
C501 C497 1.393 . S
C501 C500 1.391 . S
C502 H492 0.950 . S
C502 C503 1.386 . S
C502 C504 1.391 . S
C503 C502 1.386 . S
C503 C507 1.393 . S
C504 H493 0.950 . S
C504 C502 1.391 . S
C504 C505 1.400 . S
C505 C499 1.491 . S
C505 C504 1.400 . S
C505 C506 1.398 . S
C506 H494 0.950 . S
C506 C505 1.398 . S
C506 C507 1.391 . S
C507 H495 0.950 . S
C507 C503 1.393 . S
C507 C506 1.391 . S
H508 C516 0.950 . S
H509 C521 0.950 . S
H510 C518 0.950 . S
H511 C520 0.950 . S
H512 C522 0.950 . S
H513 C524 0.950 . S
H514 C526 0.950 . S
H515 C527 0.950 . S
C516 H508 0.950 . S
C516 C517 1.386 . S
C516 C518 1.391 . S
C517 C516 1.386 . S
C517 C521 1.393 . S
C518 H510 0.950 . S
C518 C516 1.391 . S
C518 C519 1.400 . S
C519 C518 1.400 . S
C519 C520 1.398 . S
C519 C525 1.491 . S
C520 H511 0.950 . S
C520 C519 1.398 . S
C520 C521 1.391 . S
C521 H509 0.950 . S
C521 C517 1.393 . S
C521 C520 1.391 . S
C522 H512 0.950 . S
C522 C523 1.386 . S
C522 C524 1.391 . S
C523 C522 1.386 . S
C523 C527 1.393 . S
C524 H513 0.950 . S
C524 C522 1.391 . S
C524 C525 1.400 . S
C525 C519 1.491 . S
C525 C524 1.400 . S
C525 C526 1.398 . S
C526 H514 0.950 . S
C526 C525 1.398 . S
C526 C527 1.391 . S
C527 H515 0.950 . S
C527 C523 1.393 . S
C527 C526 1.391 . S
H528 C536 0.950 . S
H529 C541 0.950 . S
H530 C538 0.950 . S
H531 C540 0.950 . S
H532 C542 0.950 . S
H533 C544 0.950 . S
H534 C546 0.950 . S
H535 C547 0.950 . S
C536 H528 0.950 . S
C536 C537 1.386 . S
C536 C538 1.391 . S
C537 C536 1.386 . S
C537 C541 1.393 . S
C538 H530 0.950 . S
C538 C536 1.391 . S
C538 C539 1.400 . S
C539 C538 1.400 . S
C539 C540 1.398 . S
C539 C545 1.491 . S
C540 H531 0.950 . S
C540 C539 1.398 . S
C540 C541 1.391 . S
C541 H529 0.950 . S
C541 C537 1.393 . S
C541 C540 1.391 . S
C542 H532 0.950 . S
C542 C543 1.386 . S
C542 C544 1.391 . S
C543 C542 1.386 . S
C543 C547 1.393 . S
C544 H533 0.950 . S
C544 C542 1.391 . S
C544 C545 1.400 . S
C545 C539 1.491 . S
C545 C544 1.400 . S
C545 C546 1.398 . S
C546 H534 0.950 . S
C546 C545 1.398 . S
C546 C547 1.391 . S
C547 H535 0.950 . S
C547 C543 1.393 . S
C547 C546 1.391 . S
H548 C556 0.950 . S
H549 C561 0.950 . S
H550 C558 0.950 . S
H551 C560 0.950 . S
H552 C562 0.950 . S
H553 C564 0.950 . S
H554 C566 0.950 . S
H555 C567 0.950 . S
C556 H548 0.950 . S
C556 C557 1.386 . S
C556 C558 1.391 . S
C557 C556 1.386 . S
C557 C561 1.393 . S
C558 H550 0.950 . S
C558 C556 1.391 . S
C558 C559 1.400 . S
C559 C558 1.400 . S
C559 C560 1.398 . S
C559 C565 1.491 . S
C560 H551 0.950 . S
C560 C559 1.398 . S
C560 C561 1.391 . S
C561 H549 0.950 . S
C561 C557 1.393 . S
C561 C560 1.391 . S
C562 H552 0.950 . S
C562 C563 1.386 . S
C562 C564 1.391 . S
C563 C562 1.386 . S
C563 C567 1.393 . S
C564 H553 0.950 . S
C564 C562 1.391 . S
C564 C565 1.400 . S
C565 C559 1.491 . S
C565 C564 1.400 . S
C565 C566 1.398 . S
C566 H554 0.950 . S
C566 C565 1.398 . S
C566 C567 1.391 . S
C567 H555 0.950 . S
C567 C563 1.393 . S
C567 C566 1.391 . S
H568 C576 0.950 . S
H569 C581 0.950 . S
H570 C578 0.950 . S
H571 C580 0.950 . S
H572 C582 0.950 . S
H573 C584 0.950 . S
H574 C586 0.950 . S
H575 C587 0.950 . S
C576 H568 0.950 . S
C576 C577 1.386 . S
C576 C578 1.391 . S
C577 C576 1.386 . S
C577 C581 1.393 . S
C578 H570 0.950 . S
C578 C576 1.391 . S
C578 C579 1.400 . S
C579 C578 1.400 . S
C579 C580 1.398 . S
C579 C585 1.491 . S
C580 H571 0.950 . S
C580 C579 1.398 . S
C580 C581 1.391 . S
C581 H569 0.950 . S
C581 C577 1.393 . S
C581 C580 1.391 . S
C582 H572 0.950 . S
C582 C583 1.386 . S
C582 C584 1.391 . S
C583 C582 1.386 . S
C583 C587 1.393 . S
C584 H573 0.950 . S
C584 C582 1.391 . S
C584 C585 1.400 . S
C585 C579 1.491 . S
C585 C584 1.400 . S
C585 C586 1.398 . S
C586 H574 0.950 . S
C586 C585 1.398 . S
C586 C587 1.391 . S
C587 H575 0.950 . S
C587 C583 1.393 . S
C587 C586 1.391 . S
H588 C596 0.950 . S
H589 C601 0.950 . S
H590 C598 0.950 . S
H591 C600 0.950 . S
H592 C602 0.950 . S
H593 C604 0.950 . S
H594 C606 0.950 . S
H595 C607 0.950 . S
C596 H588 0.950 . S
C596 C597 1.386 . S
C596 C598 1.391 . S
C597 C596 1.386 . S
C597 C601 1.393 . S
C598 H590 0.950 . S
C598 C596 1.391 . S
C598 C599 1.400 . S
C599 C598 1.400 . S
C599 C600 1.398 . S
C599 C605 1.491 . S
C600 H591 0.950 . S
C600 C599 1.398 . S
C600 C601 1.391 . S
C601 H589 0.950 . S
C601 C597 1.393 . S
C601 C600 1.391 . S
C602 H592 0.950 . S
C602 C603 1.386 . S
C602 C604 1.391 . S
C603 C602 1.386 . S
C603 C607 1.393 . S
C604 H593 0.950 . S
C604 C602 1.391 . S
C604 C605 1.400 . S
C605 C599 1.491 . S
C605 C604 1.400 . S
C605 C606 1.398 . S
C606 H594 0.950 . S
C606 C605 1.398 . S
C606 C607 1.391 . S
C607 H595 0.950 . S
C607 C603 1.393 . S
C607 C606 1.391 . S
H608 C616 0.950 . S
H609 C621 0.950 . S
H610 C618 0.950 . S
H611 C620 0.950 . S
H612 C622 0.950 . S
H613 C624 0.950 . S
H614 C626 0.950 . S
H615 C627 0.950 . S
C616 H608 0.950 . S
C616 C617 1.386 . S
C616 C618 1.391 . S
C617 C616 1.386 . S
C617 C621 1.393 . S
C618 H610 0.950 . S
C618 C616 1.391 . S
C618 C619 1.400 . S
C619 C618 1.400 . S
C619 C620 1.398 . S
C619 C625 1.491 . S
C620 H611 0.950 . S
C620 C619 1.398 . S
C620 C621 1.391 . S
C621 H609 0.950 . S
C621 C617 1.393 . S
C621 C620 1.391 . S
C622 H612 0.950 . S
C622 C623 1.386 . S
C622 C624 1.391 . S
C623 C622 1.386 . S
C623 C627 1.393 . S
C624 H613 0.950 . S
C624 C622 1.391 . S
C624 C625 1.400 . S
C625 C619 1.491 . S
C625 C624 1.400 . S
C625 C626 1.398 . S
C626 H614 0.950 . S
C626 C625 1.398 . S
C626 C627 1.391 . S
C627 H615 0.950 . S
C627 C623 1.393 . S
C627 C626 1.391 . S
H628 C636 0.950 . S
H629 C641 0.950 . S
H630 C638 0.950 . S
H631 C640 0.950 . S
H632 C642 0.950 . S
H633 C644 0.950 . S
H634 C646 0.950 . S
H635 C647 0.950 . S
C636 H628 0.950 . S
C636 C637 1.386 . S
C636 C638 1.391 . S
C637 C636 1.386 . S
C637 C641 1.393 . S
C638 H630 0.950 . S
C638 C636 1.391 . S
C638 C639 1.400 . S
C639 C638 1.400 . S
C639 C640 1.398 . S
C639 C645 1.491 . S
C640 H631 0.950 . S
C640 C639 1.398 . S
C640 C641 1.391 . S
C641 H629 0.950 . S
C641 C637 1.393 . S
C641 C640 1.391 . S
C642 H632 0.950 . S
C642 C643 1.386 . S
C642 C644 1.391 . S
C643 C642 1.386 . S
C643 C647 1.393 . S
C644 H633 0.950 . S
C644 C642 1.391 . S
C644 C645 1.400 . S
C645 C639 1.491 . S
C645 C644 1.400 . S
C645 C646 1.398 . S
C646 H634 0.950 . S
C646 C645 1.398 . S
C646 C647 1.391 . S
C647 H635 0.950 . S
C647 C643 1.393 . S
C647 C646 1.391 . S
H648 C656 0.950 . S
H649 C661 0.950 . S
H650 C658 0.950 . S
H651 C660 0.950 . S
H652 C662 0.950 . S
H653 C664 0.950 . S
H654 C666 0.950 . S
H655 C667 0.950 . S
C656 H648 0.950 . S
C656 C657 1.386 . S
C656 C658 1.391 . S
C657 C656 1.386 . S
C657 C661 1.393 . S
C658 H650 0.950 . S
C658 C656 1.391 . S
C658 C659 1.400 . S
C659 C658 1.400 . S
C659 C660 1.398 . S
C659 C665 1.491 . S
C660 H651 0.950 . S
C660 C659 1.398 . S
C660 C661 1.391 . S
C661 H649 0.950 . S
C661 C657 1.393 . S
C661 C660 1.391 . S
C662 H652 0.950 . S
C662 C663 1.386 . S
C662 C664 1.391 . S
C663 C662 1.386 . S
C663 C667 1.393 . S
C664 H653 0.950 . S
C664 C662 1.391 . S
C664 C665 1.400 . S
C665 C659 1.491 . S
C665 C664 1.400 . S
C665 C666 1.398 . S
C666 H654 0.950 . S
C666 C665 1.398 . S
C666 C667 1.391 . S
C667 H655 0.950 . S
C667 C663 1.393 . S
C667 C666 1.391 . S
H668 C676 0.950 . S
H669 C681 0.950 . S
H670 C678 0.950 . S
H671 C680 0.950 . S
H672 C682 0.950 . S
H673 C684 0.950 . S
H674 C686 0.950 . S
H675 C687 0.950 . S
C676 H668 0.950 . S
C676 C677 1.386 . S
C676 C678 1.391 . S
C677 C676 1.386 . S
C677 C681 1.393 . S
C678 H670 0.950 . S
C678 C676 1.391 . S
C678 C679 1.400 . S
C679 C678 1.400 . S
C679 C680 1.398 . S
C679 C685 1.491 . S
C680 H671 0.950 . S
C680 C679 1.398 . S
C680 C681 1.391 . S
C681 H669 0.950 . S
C681 C677 1.393 . S
C681 C680 1.391 . S
C682 H672 0.950 . S
C682 C683 1.386 . S
C682 C684 1.391 . S
C683 C682 1.386 . S
C683 C687 1.393 . S
C684 H673 0.950 . S
C684 C682 1.391 . S
C684 C685 1.400 . S
C685 C679 1.491 . S
C685 C684 1.400 . S
C685 C686 1.398 . S
C686 H674 0.950 . S
C686 C685 1.398 . S
C686 C687 1.391 . S
C687 H675 0.950 . S
C687 C683 1.393 . S
C687 C686 1.391 . S
H688 C696 0.950 . S
H689 C701 0.950 . S
H690 C698 0.950 . S
H691 C700 0.950 . S
H692 C702 0.950 . S
H693 C704 0.950 . S
H694 C706 0.950 . S
H695 C707 0.950 . S
C696 H688 0.950 . S
C696 C697 1.386 . S
C696 C698 1.391 . S
C697 C696 1.386 . S
C697 C701 1.393 . S
C698 H690 0.950 . S
C698 C696 1.391 . S
C698 C699 1.400 . S
C699 C698 1.400 . S
C699 C700 1.398 . S
C699 C705 1.491 . S
C700 H691 0.950 . S
C700 C699 1.398 . S
C700 C701 1.391 . S
C701 H689 0.950 . S
C701 C697 1.393 . S
C701 C700 1.391 . S
C702 H692 0.950 . S
C702 C703 1.386 . S
C702 C704 1.391 . S
C703 C702 1.386 . S
C703 C707 1.393 . S
C704 H693 0.950 . S
C704 C702 1.391 . S
C704 C705 1.400 . S
C705 C699 1.491 . S
C705 C704 1.400 . S
C705 C706 1.398 . S
C706 H694 0.950 . S
C706 C705 1.398 . S
C706 C707 1.391 . S
C707 H695 0.950 . S
C707 C703 1.393 . S
C707 C706 1.391 . S
H708 C716 0.950 . S
H709 C721 0.950 . S
H710 C718 0.950 . S
H711 C720 0.950 1_655 S
H712 C722 0.950 . S
H713 C724 0.950 . S
H714 C726 0.950 1_455 S
H715 C727 0.950 . S
C716 H708 0.950 . S
C716 C717 1.386 . S
C716 C718 1.391 . S
C717 C716 1.386 . S
C717 C721 1.393 . S
C718 H710 0.950 . S
C718 C716 1.391 . S
C718 C719 1.400 . S
C719 C718 1.400 . S
C719 C720 1.398 . S
C719 C725 1.491 1_455 S
C720 H711 0.950 1_455 S
C720 C719 1.398 . S
C720 C721 1.391 . S
C721 H709 0.950 . S
C721 C717 1.393 . S
C721 C720 1.391 . S
C722 H712 0.950 . S
C722 C723 1.386 . S
C722 C724 1.391 . S
C723 C722 1.386 . S
C723 C727 1.393 . S
C724 H713 0.950 . S
C724 C722 1.391 . S
C724 C725 1.400 . S
C725 C719 1.491 1_655 S
C725 C724 1.400 . S
C725 C726 1.398 . S
C726 H714 0.950 1_655 S
C726 C725 1.398 . S
C726 C727 1.391 . S
C727 H715 0.950 . S
C727 C723 1.393 . S
C727 C726 1.391 . S
H728 C736 0.950 . S
H729 C741 0.950 . S
H730 C738 0.950 . S
H731 C740 0.950 . S
H732 C742 0.950 . S
H733 C744 0.950 . S
H734 C746 0.950 . S
H735 C747 0.950 . S
C736 H728 0.950 . S
C736 C737 1.386 . S
C736 C738 1.391 . S
C737 C736 1.386 . S
C737 C741 1.393 . S
C738 H730 0.950 . S
C738 C736 1.391 . S
C738 C739 1.400 . S
C739 C738 1.400 . S
C739 C740 1.398 . S
C739 C745 1.491 . S
C740 H731 0.950 . S
C740 C739 1.398 . S
C740 C741 1.391 . S
C741 H729 0.950 . S
C741 C737 1.393 . S
C741 C740 1.391 . S
C742 H732 0.950 . S
C742 C743 1.386 . S
C742 C744 1.391 . S
C743 C742 1.386 . S
C743 C747 1.393 . S
C744 H733 0.950 . S
C744 C742 1.391 . S
C744 C745 1.400 . S
C745 C739 1.491 . S
C745 C744 1.400 . S
C745 C746 1.398 . S
C746 H734 0.950 . S
C746 C745 1.398 . S
C746 C747 1.391 . S
C747 H735 0.950 . S
C747 C743 1.393 . S
C747 C746 1.391 . S
H748 C756 0.950 . S
H749 C761 0.950 . S
H750 C758 0.950 1_565 S
H751 C760 0.950 . S
H752 C762 0.950 . S
H753 C764 0.950 1_545 S
H754 C766 0.950 . S
H755 C767 0.950 . S
C756 H748 0.950 . S
C756 C757 1.386 . S
C756 C758 1.391 . S
C757 C756 1.386 . S
C757 C761 1.393 . S
C758 H750 0.950 1_545 S
C758 C756 1.391 . S
C758 C759 1.400 . S
C759 C758 1.400 . S
C759 C760 1.398 . S
C759 C765 1.491 1_545 S
C760 H751 0.950 . S
C760 C759 1.398 . S
C760 C761 1.391 . S
C761 H749 0.950 . S
C761 C757 1.393 . S
C761 C760 1.391 . S
C762 H752 0.950 . S
C762 C763 1.386 . S
C762 C764 1.391 . S
C763 C762 1.386 . S
C763 C767 1.393 . S
C764 H753 0.950 1_565 S
C764 C762 1.391 . S
C764 C765 1.400 . S
C765 C759 1.491 1_565 S
C765 C764 1.400 . S
C765 C766 1.398 . S
C766 H754 0.950 . S
C766 C765 1.398 . S
C766 C767 1.391 . S
C767 H755 0.950 . S
C767 C763 1.393 . S
C767 C766 1.391 . S
H768 C776 0.950 . S
H769 C781 0.950 . S
H770 C778 0.950 1_556 S
H771 C780 0.950 1_545 S
H772 C782 0.950 . S
H773 C784 0.950 1_554 S
H774 C786 0.950 1_565 S
H775 C787 0.950 . S
C776 H768 0.950 . S
C776 C777 1.386 . S
C776 C778 1.391 . S
C777 C776 1.386 . S
C777 C781 1.393 . S
C778 H770 0.950 1_554 S
C778 C776 1.391 . S
C778 C779 1.400 . S
C779 C778 1.400 . S
C779 C780 1.398 . S
C779 C785 1.491 1_564 S
C780 H771 0.950 1_565 S
C780 C779 1.398 . S
C780 C781 1.391 . S
C781 H769 0.950 . S
C781 C777 1.393 . S
C781 C780 1.391 . S
C782 H772 0.950 . S
C782 C783 1.386 . S
C782 C784 1.391 . S
C783 C782 1.386 . S
C783 C787 1.393 . S
C784 H773 0.950 1_556 S
C784 C782 1.391 . S
C784 C785 1.400 . S
C785 C779 1.491 1_546 S
C785 C784 1.400 . S
C785 C786 1.398 . S
C786 H774 0.950 1_545 S
C786 C785 1.398 . S
C786 C787 1.391 . S
C787 H775 0.950 . S
C787 C783 1.393 . S
C787 C786 1.391 . S
H788 C796 0.950 . S
H789 C801 0.950 . S
H790 C798 0.950 1_455 S
H791 C800 0.950 1_554 S
H792 C802 0.950 . S
H793 C804 0.950 1_655 S
H794 C806 0.950 1_556 S
H795 C807 0.950 . S
C796 H788 0.950 . S
C796 C797 1.386 . S
C796 C798 1.391 . S
C797 C796 1.386 . S
C797 C801 1.393 . S
C798 H790 0.950 1_655 S
C798 C796 1.391 . S
C798 C799 1.400 . S
C799 C798 1.400 . S
C799 C800 1.398 . S
C799 C805 1.491 1_656 S
C800 H791 0.950 1_556 S
C800 C799 1.398 . S
C800 C801 1.391 . S
C801 H789 0.950 . S
C801 C797 1.393 . S
C801 C800 1.391 . S
C802 H792 0.950 . S
C802 C803 1.386 . S
C802 C804 1.391 . S
C803 C802 1.386 . S
C803 C807 1.393 . S
C804 H793 0.950 1_455 S
C804 C802 1.391 . S
C804 C805 1.400 . S
C805 C799 1.491 1_454 S
C805 C804 1.400 . S
C805 C806 1.398 . S
C806 H794 0.950 1_554 S
C806 C805 1.398 . S
C806 C807 1.391 . S
C807 H795 0.950 . S
C807 C803 1.393 . S
C807 C806 1.391 . S
H808 C816 0.950 . S
H809 C821 0.950 . S
H810 C818 0.950 . S
H811 C820 0.929 1_554 S
H812 C822 0.950 . S
H813 C824 0.950 . S
H814 C826 0.929 1_556 S
H815 C827 0.950 . S
C816 H808 0.950 . S
C816 C817 1.386 . S
C816 C818 1.391 . S
C817 C816 1.386 . S
C817 C821 1.393 . S
C818 H810 0.950 . S
C818 C816 1.391 . S
C818 C819 1.400 . S
C819 C818 1.400 . S
C819 C820 1.405 . S
C819 C825 1.491 1_556 S
C820 H811 0.929 1_556 S
C820 C819 1.405 . S
C820 C821 1.405 . S
C821 H809 0.950 . S
C821 C817 1.393 . S
C821 C820 1.405 . S
C822 H812 0.950 . S
C822 C823 1.386 . S
C822 C824 1.391 . S
C823 C822 1.386 . S
C823 C827 1.393 . S
C824 H813 0.950 . S
C824 C822 1.391 . S
C824 C825 1.400 . S
C825 C819 1.491 1_554 S
C825 C824 1.400 . S
C825 C826 1.405 . S
C826 H814 0.929 1_554 S
C826 C825 1.405 . S
C826 C827 1.405 . S
C827 H815 0.950 . S
C827 C823 1.393 . S
C827 C826 1.405 . S
H828 C836 0.950 . S
H829 C841 0.950 . S
H830 C838 0.954 1_545 S
H831 C840 0.950 . S
H832 C842 0.950 . S
H833 C844 0.950 . S
H834 C846 0.950 . S
H835 C847 0.950 . S
C836 H828 0.950 . S
C836 C837 1.386 . S
C836 C838 1.372 1_545 S
C837 C836 1.386 . S
C837 C841 1.393 1_545 S
C838 H830 0.954 1_565 S
C838 C836 1.372 1_565 S
C838 C839 1.416 . S
C839 C838 1.416 . S
C839 C840 1.398 . S
C839 C845 1.491 . S
C840 H831 0.950 . S
C840 C839 1.398 . S
C840 C841 1.391 . S
C841 H829 0.950 . S
C841 C837 1.393 1_565 S
C841 C840 1.391 . S
C842 H832 0.950 . S
C842 C843 1.386 . S
C842 C844 1.391 . S
C843 C842 1.386 . S
C843 C847 1.393 . S
C844 H833 0.950 . S
C844 C842 1.391 . S
C844 C845 1.400 . S
C845 C839 1.491 . S
C845 C844 1.400 . S
C845 C846 1.398 . S
C846 H834 0.950 . S
C846 C845 1.398 . S
C846 C847 1.391 . S
C847 H835 0.950 . S
C847 C843 1.393 . S
C847 C846 1.391 . S
H848 C856 0.950 . S
H849 C861 0.950 . S
H850 C858 0.960 . S
H851 C860 0.950 . S
H852 C862 0.950 . S
H853 C864 0.950 . S
H854 C866 0.950 . S
H855 C867 0.950 . S
C856 H848 0.950 . S
C856 C857 1.386 . S
C856 C858 1.391 . S
C857 C856 1.386 . S
C857 C861 1.393 . S
C858 H850 0.960 . S
C858 C856 1.391 . S
C858 C859 1.400 . S
C859 C858 1.400 . S
C859 C860 1.398 . S
C859 C865 1.491 . S
C860 H851 0.950 . S
C860 C859 1.398 . S
C860 C861 1.391 . S
C861 H849 0.950 . S
C861 C857 1.393 . S
C861 C860 1.391 . S
C862 H852 0.950 . S
C862 C863 1.386 1_455 S
C862 C864 1.391 . S
C863 C862 1.386 1_655 S
C863 C867 1.393 . S
C864 H853 0.950 . S
C864 C862 1.391 . S
C864 C865 1.400 . S
C865 C859 1.491 . S
C865 C864 1.400 . S
C865 C866 1.398 1_455 S
C866 H854 0.950 . S
C866 C865 1.398 1_655 S
C866 C867 1.391 . S
C867 H855 0.950 . S
C867 C863 1.393 . S
C867 C866 1.391 . S
H868 C876 0.950 . S
H869 C881 0.950 . S
H870 C878 0.950 . S
H871 C880 0.950 . S
H872 C882 0.950 . S
H873 C884 0.950 . S
H874 C886 0.950 . S
H875 C887 0.950 . S
C876 H868 0.950 . S
C876 C877 1.386 . S
C876 C878 1.391 . S
C877 C876 1.386 . S
C877 C881 1.393 . S
C878 H870 0.950 . S
C878 C876 1.391 . S
C878 C879 1.400 . S
C879 C878 1.400 . S
C879 C880 1.398 . S
C879 C885 1.491 . S
C880 H871 0.950 . S
C880 C879 1.398 . S
C880 C881 1.391 . S
C881 H869 0.950 . S
C881 C877 1.393 . S
C881 C880 1.391 . S
C882 H872 0.950 . S
C882 C883 1.386 . S
C882 C884 1.391 . S
C883 C882 1.386 . S
C883 C887 1.393 . S
C884 H873 0.950 . S
C884 C882 1.391 . S
C884 C885 1.400 . S
C885 C879 1.491 . S
C885 C884 1.400 . S
C885 C886 1.398 . S
C886 H874 0.950 . S
C886 C885 1.398 . S
C886 C887 1.391 . S
C887 H875 0.950 . S
C887 C883 1.393 . S
C887 C886 1.391 . S
H888 C896 0.950 . S
H889 C901 0.950 . S
H890 C898 0.950 . S
H891 C900 0.950 . S
H892 C902 0.950 . S
H893 C904 0.950 . S
H894 C906 0.950 . S
H895 C907 0.950 . S
C896 H888 0.950 . S
C896 C897 1.386 . S
C896 C898 1.391 . S
C897 C896 1.386 . S
C897 C901 1.393 . S
C898 H890 0.950 . S
C898 C896 1.391 . S
C898 C899 1.400 . S
C899 C898 1.400 . S
C899 C900 1.398 . S
C899 C905 1.491 . S
C900 H891 0.950 . S
C900 C899 1.398 . S
C900 C901 1.391 . S
C901 H889 0.950 . S
C901 C897 1.393 . S
C901 C900 1.391 . S
C902 H892 0.950 . S
C902 C903 1.386 1_655 S
C902 C904 1.391 . S
C903 C902 1.386 1_455 S
C903 C907 1.393 . S
C904 H893 0.950 . S
C904 C902 1.391 . S
C904 C905 1.400 . S
C905 C899 1.491 . S
C905 C904 1.400 . S
C905 C906 1.398 1_655 S
C906 H894 0.950 . S
C906 C905 1.398 1_455 S
C906 C907 1.391 . S
C907 H895 0.950 . S
C907 C903 1.393 . S
C907 C906 1.391 . S
H908 C916 0.950 . S
H909 C921 0.950 . S
H910 C918 0.950 . S
H911 C920 0.950 . S
H912 C922 0.950 . S
H913 C924 0.950 . S
H914 C926 0.950 . S
H915 C927 0.950 . S
C916 H908 0.950 . S
C916 C917 1.386 . S
C916 C918 1.391 . S
C917 C916 1.386 . S
C917 C921 1.393 . S
C918 H910 0.950 . S
C918 C916 1.391 . S
C918 C919 1.400 . S
C919 C918 1.400 . S
C919 C920 1.398 . S
C919 C925 1.491 . S
C920 H911 0.950 . S
C920 C919 1.398 . S
C920 C921 1.391 . S
C921 H909 0.950 . S
C921 C917 1.393 . S
C921 C920 1.391 . S
C922 H912 0.950 . S
C922 C923 1.386 . S
C922 C924 1.391 . S
C923 C922 1.386 . S
C923 C927 1.393 . S
C924 H913 0.950 . S
C924 C922 1.391 . S
C924 C925 1.400 . S
C925 C919 1.491 . S
C925 C924 1.400 . S
C925 C926 1.398 . S
C926 H914 0.950 . S
C926 C925 1.398 . S
C926 C927 1.391 . S
C927 H915 0.950 . S
C927 C923 1.393 . S
C927 C926 1.391 . S
H928 C936 0.950 . S
H929 C941 0.950 . S
H930 C938 0.950 . S
H931 C940 0.950 . S
H932 C942 0.950 . S
H933 C944 0.950 . S
H934 C946 0.960 . S
H935 C947 0.950 . S
C936 H928 0.950 . S
C936 C937 1.386 . S
C936 C938 1.391 . S
C937 C936 1.386 . S
C937 C941 1.393 . S
C938 H930 0.950 . S
C938 C936 1.391 . S
C938 C939 1.400 . S
C939 C938 1.400 . S
C939 C940 1.398 . S
C939 C945 1.491 . S
C940 H931 0.950 . S
C940 C939 1.398 . S
C940 C941 1.391 . S
C941 H929 0.950 . S
C941 C937 1.393 . S
C941 C940 1.391 . S
C942 H932 0.950 . S
C942 C943 1.386 1_545 S
C942 C944 1.391 . S
C943 C942 1.386 1_565 S
C943 C947 1.393 . S
C944 H933 0.950 . S
C944 C942 1.391 . S
C944 C945 1.400 . S
C945 C939 1.491 . S
C945 C944 1.400 . S
C945 C946 1.389 1_545 S
C946 H934 0.960 . S
C946 C945 1.389 1_565 S
C946 C947 1.391 . S
C947 H935 0.950 . S
C947 C943 1.393 . S
C947 C946 1.391 . S
H948 C956 0.950 . S
H949 C961 0.950 . S
H950 C958 0.950 . S
H951 C960 0.950 . S
H952 C962 0.950 . S
H953 C964 0.950 . S
H954 C966 0.950 . S
H955 C967 0.950 . S
C956 H948 0.950 . S
C956 C957 1.386 1_545 S
C956 C958 1.391 . S
C957 C956 1.386 1_565 S
C957 C961 1.393 . S
C958 H950 0.950 . S
C958 C956 1.391 . S
C958 C959 1.400 . S
C959 C958 1.400 . S
C959 C960 1.398 1_545 S
C959 C965 1.491 . S
C960 H951 0.950 . S
C960 C959 1.398 1_565 S
C960 C961 1.391 . S
C961 H949 0.950 . S
C961 C957 1.393 . S
C961 C960 1.391 . S
C962 H952 0.950 . S
C962 C963 1.386 . S
C962 C964 1.391 . S
C963 C962 1.386 . S
C963 C967 1.393 . S
C964 H953 0.950 . S
C964 C962 1.391 . S
C964 C965 1.400 . S
C965 C959 1.491 . S
C965 C964 1.400 . S
C965 C966 1.398 . S
C966 H954 0.950 . S
C966 C965 1.398 . S
C966 C967 1.391 . S
C967 H955 0.950 . S
C967 C963 1.393 . S
C967 C966 1.391 . S
H968 C976 0.950 . S
H969 C981 0.950 . S
H970 C978 0.950 . S
H971 C980 0.950 . S
H972 C982 0.950 . S
H973 C984 0.950 . S
H974 C986 0.950 . S
H975 C987 0.950 . S
C976 H968 0.950 . S
C976 C977 1.386 . S
C976 C978 1.391 . S
C977 C976 1.386 . S
C977 C981 1.393 . S
C978 H970 0.950 . S
C978 C976 1.391 . S
C978 C979 1.400 . S
C979 C978 1.400 . S
C979 C980 1.398 . S
C979 C985 1.491 . S
C980 H971 0.950 . S
C980 C979 1.398 . S
C980 C981 1.391 . S
C981 H969 0.950 . S
C981 C977 1.393 . S
C981 C980 1.391 . S
C982 H972 0.950 . S
C982 C983 1.386 1_655 S
C982 C984 1.391 . S
C983 C982 1.386 1_455 S
C983 C987 1.393 . S
C984 H973 0.950 . S
C984 C982 1.391 . S
C984 C985 1.400 . S
C985 C979 1.491 . S
C985 C984 1.400 . S
C985 C986 1.398 1_655 S
C986 H974 0.950 . S
C986 C985 1.398 1_455 S
C986 C987 1.391 . S
C987 H975 0.950 . S
C987 C983 1.393 . S
C987 C986 1.391 . S
H988 C996 0.950 . S
H989 C1001 0.950 . S
H990 C998 0.950 . S
H991 C1000 0.950 . S
H992 C1002 0.950 . S
H993 C1004 0.950 . S
H994 C1006 0.950 . S
H995 C1007 0.950 . S
C996 H988 0.950 . S
C996 C997 1.386 . S
C996 C998 1.391 . S
C997 C996 1.386 . S
C997 C1001 1.393 . S
C998 H990 0.950 . S
C998 C996 1.391 . S
C998 C999 1.400 . S
C999 C998 1.400 . S
C999 C1000 1.398 . S
C999 C1005 1.491 . S
C1000 H991 0.950 . S
C1000 C999 1.398 . S
C1000 C1001 1.391 . S
C1001 H989 0.950 . S
C1001 C997 1.393 . S
C1001 C1000 1.391 . S
C1002 H992 0.950 . S
C1002 C1003 1.386 . S
C1002 C1004 1.391 . S
C1003 C1002 1.386 . S
C1003 C1007 1.393 . S
C1004 H993 0.950 . S
C1004 C1002 1.391 . S
C1004 C1005 1.400 . S
C1005 C999 1.491 . S
C1005 C1004 1.400 . S
C1005 C1006 1.398 . S
C1006 H994 0.950 . S
C1006 C1005 1.398 . S
C1006 C1007 1.391 . S
C1007 H995 0.950 . S
C1007 C1003 1.393 . S
C1007 C1006 1.391 . S
H1008 C1016 0.950 . S
H1009 C1021 0.950 . S
H1010 C1018 0.950 . S
H1011 C1020 0.950 . S
H1012 C1022 0.950 . S
H1013 C1024 0.973 . S
H1014 C1026 0.950 . S
H1015 C1027 0.950 . S
C1016 H1008 0.950 . S
C1016 C1017 1.386 1_455 S
C1016 C1018 1.391 . S
C1017 C1016 1.386 1_655 S
C1017 C1021 1.393 . S
C1018 H1010 0.950 . S
C1018 C1016 1.391 . S
C1018 C1019 1.400 . S
C1019 C1018 1.400 . S
C1019 C1020 1.398 1_455 S
C1019 C1025 1.491 . S
C1020 H1011 0.950 . S
C1020 C1019 1.398 1_655 S
C1020 C1021 1.391 . S
C1021 H1009 0.950 . S
C1021 C1017 1.393 . S
C1021 C1020 1.391 . S
C1022 H1012 0.950 . S
C1022 C1023 1.386 . S
C1022 C1024 1.391 . S
C1023 C1022 1.386 . S
C1023 C1027 1.393 . S
C1024 H1013 0.973 . S
C1024 C1022 1.391 . S
C1024 C1025 1.400 . S
C1025 C1019 1.491 . S
C1025 C1024 1.400 . S
C1025 C1026 1.398 . S
C1026 H1014 0.950 . S
C1026 C1025 1.398 . S
C1026 C1027 1.391 . S
C1027 H1015 0.950 . S
C1027 C1023 1.393 . S
C1027 C1026 1.391 . S
H1028 C1036 0.950 . S
H1029 C1041 0.950 . S
H1030 C1038 0.950 . S
H1031 C1040 0.950 . S
H1032 C1042 0.950 . S
H1033 C1044 0.950 . S
H1034 C1046 0.950 . S
H1035 C1047 0.950 . S
C1036 H1028 0.950 . S
C1036 C1037 1.386 . S
C1036 C1038 1.391 . S
C1037 C1036 1.386 . S
C1037 C1041 1.393 . S
C1038 H1030 0.950 . S
C1038 C1036 1.391 . S
C1038 C1039 1.400 . S
C1039 C1038 1.400 . S
C1039 C1040 1.398 . S
C1039 C1045 1.491 . S
C1040 H1031 0.950 . S
C1040 C1039 1.398 . S
C1040 C1041 1.391 . S
C1041 H1029 0.950 . S
C1041 C1037 1.393 . S
C1041 C1040 1.391 . S
C1042 H1032 0.950 . S
C1042 C1043 1.386 . S
C1042 C1044 1.391 . S
C1043 C1042 1.386 . S
C1043 C1047 1.393 . S
C1044 H1033 0.950 . S
C1044 C1042 1.391 . S
C1044 C1045 1.400 . S
C1045 C1039 1.491 . S
C1045 C1044 1.400 . S
C1045 C1046 1.398 . S
C1046 H1034 0.950 . S
C1046 C1045 1.398 . S
C1046 C1047 1.391 . S
C1047 H1035 0.950 . S
C1047 C1043 1.393 . S
C1047 C1046 1.391 . S
H1048 C1056 0.950 . S
H1049 C1061 0.950 . S
H1050 C1058 0.950 . S
H1051 C1060 0.950 . S
H1052 C1062 0.950 . S
H1053 C1064 0.950 . S
H1054 C1066 0.950 . S
H1055 C1067 0.950 . S
C1056 H1048 0.950 . S
C1056 C1057 1.386 1_565 S
C1056 C1058 1.391 . S
C1057 C1056 1.386 1_545 S
C1057 C1061 1.393 . S
C1058 H1050 0.950 . S
C1058 C1056 1.391 . S
C1058 C1059 1.400 . S
C1059 C1058 1.400 . S
C1059 C1060 1.398 1_565 S
C1059 C1065 1.491 . S
C1060 H1051 0.950 . S
C1060 C1059 1.398 1_545 S
C1060 C1061 1.391 . S
C1061 H1049 0.950 . S
C1061 C1057 1.393 . S
C1061 C1060 1.391 . S
C1062 H1052 0.950 . S
C1062 C1063 1.386 . S
C1062 C1064 1.391 . S
C1063 C1062 1.386 . S
C1063 C1067 1.393 . S
C1064 H1053 0.950 . S
C1064 C1062 1.391 . S
C1064 C1065 1.400 . S
C1065 C1059 1.491 . S
C1065 C1064 1.400 . S
C1065 C1066 1.398 . S
C1066 H1054 0.950 . S
C1066 C1065 1.398 . S
C1066 C1067 1.391 . S
C1067 H1055 0.950 . S
C1067 C1063 1.393 . S
C1067 C1066 1.391 . S
H1068 C1076 0.950 . S
H1069 C1081 0.950 . S
H1070 C1078 0.950 . S
H1071 C1080 0.950 . S
H1072 C1082 0.950 . S
H1073 C1084 0.950 . S
H1074 C1086 0.950 . S
H1075 C1087 0.950 . S
C1076 H1068 0.950 . S
C1076 C1077 1.386 . S
C1076 C1078 1.391 . S
C1077 C1076 1.386 . S
C1077 C1081 1.393 . S
C1078 H1070 0.950 . S
C1078 C1076 1.391 . S
C1078 C1079 1.400 . S
C1079 C1078 1.400 . S
C1079 C1080 1.398 . S
C1079 C1085 1.491 . S
C1080 H1071 0.950 . S
C1080 C1079 1.398 . S
C1080 C1081 1.391 . S
C1081 H1069 0.950 . S
C1081 C1077 1.393 . S
C1081 C1080 1.391 . S
C1082 H1072 0.950 . S
C1082 C1083 1.386 . S
C1082 C1084 1.391 . S
C1083 C1082 1.386 . S
C1083 C1087 1.393 . S
C1084 H1073 0.950 . S
C1084 C1082 1.391 . S
C1084 C1085 1.400 . S
C1085 C1079 1.491 . S
C1085 C1084 1.400 . S
C1085 C1086 1.398 . S
C1086 H1074 0.950 . S
C1086 C1085 1.398 . S
C1086 C1087 1.391 . S
C1087 H1075 0.950 . S
C1087 C1083 1.393 . S
C1087 C1086 1.391 . S
H1088 C1096 0.950 . S
H1089 C1101 0.950 . S
H1090 C1098 0.950 . S
H1091 C1100 0.950 . S
H1092 C1102 0.950 . S
H1093 C1104 0.950 . S
H1094 C1106 0.950 . S
H1095 C1107 0.950 . S
C1096 H1088 0.950 . S
C1096 C1097 1.386 . S
C1096 C1098 1.391 . S
C1097 C1096 1.386 . S
C1097 C1101 1.393 . S
C1098 H1090 0.950 . S
C1098 C1096 1.391 . S
C1098 C1099 1.400 . S
C1099 C1098 1.400 . S
C1099 C1100 1.398 . S
C1099 C1105 1.491 1_545 S
C1100 H1091 0.950 . S
C1100 C1099 1.398 . S
C1100 C1101 1.391 . S
C1101 H1089 0.950 . S
C1101 C1097 1.393 . S
C1101 C1100 1.391 . S
C1102 H1092 0.950 . S
C1102 C1103 1.386 . S
C1102 C1104 1.391 . S
C1103 C1102 1.386 . S
C1103 C1107 1.393 . S
C1104 H1093 0.950 . S
C1104 C1102 1.391 . S
C1104 C1105 1.400 . S
C1105 C1099 1.491 1_565 S
C1105 C1104 1.400 . S
C1105 C1106 1.398 . S
C1106 H1094 0.950 . S
C1106 C1105 1.398 . S
C1106 C1107 1.391 . S
C1107 H1095 0.950 . S
C1107 C1103 1.393 . S
C1107 C1106 1.391 . S
H1108 C1116 0.950 . S
H1109 C1121 0.950 . S
H1110 C1118 0.950 . S
H1111 C1120 0.950 . S
H1112 C1122 0.950 . S
H1113 C1124 0.950 . S
H1114 C1126 0.950 . S
H1115 C1127 0.950 . S
C1116 H1108 0.950 . S
C1116 C1117 1.386 . S
C1116 C1118 1.391 . S
C1117 C1116 1.386 . S
C1117 C1121 1.393 . S
C1118 H1110 0.950 . S
C1118 C1116 1.391 . S
C1118 C1119 1.400 . S
C1119 C1118 1.400 . S
C1119 C1120 1.398 . S
C1119 C1125 1.491 1_655 S
C1120 H1111 0.950 . S
C1120 C1119 1.398 . S
C1120 C1121 1.391 . S
C1121 H1109 0.950 . S
C1121 C1117 1.393 . S
C1121 C1120 1.391 . S
C1122 H1112 0.950 . S
C1122 C1123 1.386 . S
C1122 C1124 1.391 . S
C1123 C1122 1.386 . S
C1123 C1127 1.393 . S
C1124 H1113 0.950 . S
C1124 C1122 1.391 . S
C1124 C1125 1.400 . S
C1125 C1119 1.491 1_455 S
C1125 C1124 1.400 . S
C1125 C1126 1.398 . S
C1126 H1114 0.950 . S
C1126 C1125 1.398 . S
C1126 C1127 1.391 . S
C1127 H1115 0.950 . S
C1127 C1123 1.393 . S
C1127 C1126 1.391 . S
H1128 C1136 0.950 . S
H1129 C1141 0.950 . S
H1130 C1138 0.950 . S
H1131 C1140 0.950 . S
H1132 C1142 0.950 . S
H1133 C1144 0.950 . S
H1134 C1146 0.950 . S
H1135 C1147 0.950 . S
C1136 H1128 0.950 . S
C1136 C1137 1.386 . S
C1136 C1138 1.391 . S
C1137 C1136 1.386 . S
C1137 C1141 1.393 . S
C1138 H1130 0.950 . S
C1138 C1136 1.391 . S
C1138 C1139 1.400 . S
C1139 C1138 1.400 . S
C1139 C1140 1.398 . S
C1139 C1145 1.491 . S
C1140 H1131 0.950 . S
C1140 C1139 1.398 . S
C1140 C1141 1.391 . S
C1141 H1129 0.950 . S
C1141 C1137 1.393 . S
C1141 C1140 1.391 . S
C1142 H1132 0.950 . S
C1142 C1143 1.386 . S
C1142 C1144 1.391 . S
C1143 C1142 1.386 . S
C1143 C1147 1.393 . S
C1144 H1133 0.950 . S
C1144 C1142 1.391 . S
C1144 C1145 1.400 . S
C1145 C1139 1.491 . S
C1145 C1144 1.400 . S
C1145 C1146 1.398 . S
C1146 H1134 0.950 . S
C1146 C1145 1.398 . S
C1146 C1147 1.391 . S
C1147 H1135 0.950 . S
C1147 C1143 1.393 . S
C1147 C1146 1.391 . S
H1148 C1156 0.950 . S
H1149 C1161 0.950 . S
H1150 C1158 0.950 . S
H1151 C1160 0.950 . S
H1152 C1162 0.950 . S
H1153 C1164 0.950 . S
H1154 C1166 0.950 . S
H1155 C1167 0.950 . S
C1156 H1148 0.950 . S
C1156 C1157 1.386 . S
C1156 C1158 1.391 . S
C1157 C1156 1.386 . S
C1157 C1161 1.393 . S
C1158 H1150 0.950 . S
C1158 C1156 1.391 . S
C1158 C1159 1.400 . S
C1159 C1158 1.400 . S
C1159 C1160 1.398 . S
C1159 C1165 1.491 1_565 S
C1160 H1151 0.950 . S
C1160 C1159 1.398 . S
C1160 C1161 1.391 . S
C1161 H1149 0.950 . S
C1161 C1157 1.393 . S
C1161 C1160 1.391 . S
C1162 H1152 0.950 . S
C1162 C1163 1.386 . S
C1162 C1164 1.391 . S
C1163 C1162 1.386 . S
C1163 C1167 1.393 . S
C1164 H1153 0.950 . S
C1164 C1162 1.391 . S
C1164 C1165 1.400 . S
C1165 C1159 1.491 1_545 S
C1165 C1164 1.400 . S
C1165 C1166 1.398 . S
C1166 H1154 0.950 . S
C1166 C1165 1.398 . S
C1166 C1167 1.391 . S
C1167 H1155 0.950 . S
C1167 C1163 1.393 . S
C1167 C1166 1.391 . S
H1168 C1176 0.950 . S
H1169 C1181 0.950 . S
H1170 C1178 0.950 . S
H1171 C1180 0.950 . S
H1172 C1182 0.950 . S
H1173 C1184 0.950 . S
H1174 C1186 0.950 . S
H1175 C1187 0.950 . S
C1176 H1168 0.950 . S
C1176 C1177 1.386 . S
C1176 C1178 1.391 . S
C1177 C1176 1.386 . S
C1177 C1181 1.393 . S
C1178 H1170 0.950 . S
C1178 C1176 1.391 . S
C1178 C1179 1.400 . S
C1179 C1178 1.400 . S
C1179 C1180 1.398 . S
C1179 C1185 1.491 1_655 S
C1180 H1171 0.950 . S
C1180 C1179 1.398 . S
C1180 C1181 1.391 . S
C1181 H1169 0.950 . S
C1181 C1177 1.393 . S
C1181 C1180 1.391 . S
C1182 H1172 0.950 . S
C1182 C1183 1.386 . S
C1182 C1184 1.391 . S
C1183 C1182 1.386 . S
C1183 C1187 1.393 . S
C1184 H1173 0.950 . S
C1184 C1182 1.391 . S
C1184 C1185 1.400 . S
C1185 C1179 1.491 1_455 S
C1185 C1184 1.400 . S
C1185 C1186 1.398 . S
C1186 H1174 0.950 . S
C1186 C1185 1.398 . S
C1186 C1187 1.391 . S
C1187 H1175 0.950 . S
C1187 C1183 1.393 . S
C1187 C1186 1.391 . S
H1188 C1196 0.950 . S
H1189 C1201 0.950 . S
H1190 C1198 0.950 . S
H1191 C1200 0.950 . S
H1192 C1202 0.950 . S
H1193 C1204 0.950 . S
H1194 C1206 0.950 . S
H1195 C1207 0.950 . S
C1196 H1188 0.950 . S
C1196 C1197 1.386 . S
C1196 C1198 1.391 . S
C1197 C1196 1.386 . S
C1197 C1201 1.393 . S
C1198 H1190 0.950 . S
C1198 C1196 1.391 . S
C1198 C1199 1.400 . S
C1199 C1198 1.400 . S
C1199 C1200 1.398 . S
C1199 C1205 1.491 . S
C1200 H1191 0.950 . S
C1200 C1199 1.398 . S
C1200 C1201 1.391 . S
C1201 H1189 0.950 . S
C1201 C1197 1.393 . S
C1201 C1200 1.391 . S
C1202 H1192 0.950 . S
C1202 C1203 1.386 . S
C1202 C1204 1.391 . S
C1203 C1202 1.386 . S
C1203 C1207 1.393 . S
C1204 H1193 0.950 . S
C1204 C1202 1.391 . S
C1204 C1205 1.400 . S
C1205 C1199 1.491 . S
C1205 C1204 1.400 . S
C1205 C1206 1.398 . S
C1206 H1194 0.950 . S
C1206 C1205 1.398 . S
C1206 C1207 1.391 . S
C1207 H1195 0.950 . S
C1207 C1203 1.393 . S
C1207 C1206 1.391 . S
H1208 C1216 0.950 . S
H1209 C1221 0.950 . S
H1210 C1218 0.950 . S
H1211 C1220 0.950 1_565 S
H1212 C1222 0.950 . S
H1213 C1224 0.950 . S
H1214 C1226 0.950 . S
H1215 C1227 0.950 . S
C1216 H1208 0.950 . S
C1216 C1217 1.386 . S
C1216 C1218 1.391 . S
C1217 C1216 1.386 . S
C1217 C1221 1.393 . S
C1218 H1210 0.950 . S
C1218 C1216 1.391 . S
C1218 C1219 1.400 1_545 S
C1219 C1218 1.400 1_565 S
C1219 C1220 1.398 1_565 S
C1219 C1225 1.491 . S
C1220 H1211 0.950 1_545 S
C1220 C1219 1.398 1_545 S
C1220 C1221 1.391 . S
C1221 H1209 0.950 . S
C1221 C1217 1.393 . S
C1221 C1220 1.391 . S
C1222 H1212 0.950 . S
C1222 C1223 1.386 . S
C1222 C1224 1.391 . S
C1223 C1222 1.386 . S
C1223 C1227 1.393 . S
C1224 H1213 0.950 . S
C1224 C1222 1.391 . S
C1224 C1225 1.400 . S
C1225 C1219 1.491 . S
C1225 C1224 1.400 . S
C1225 C1226 1.398 . S
C1226 H1214 0.950 . S
C1226 C1225 1.398 . S
C1226 C1227 1.391 . S
C1227 H1215 0.950 . S
C1227 C1223 1.393 . S
C1227 C1226 1.391 . S
H1228 C1236 0.950 . S
H1229 C1241 0.950 . S
H1230 C1238 0.950 1_455 S
H1231 C1240 0.950 . S
H1232 C1242 0.950 1_545 S
H1233 C1244 0.950 . S
H1234 C1246 0.950 . S
H1235 C1247 0.950 . S
C1236 H1228 0.950 . S
C1236 C1237 1.386 . S
C1236 C1238 1.391 . S
C1237 C1236 1.386 . S
C1237 C1241 1.393 . S
C1238 H1230 0.950 1_655 S
C1238 C1236 1.391 . S
C1238 C1239 1.400 1_655 S
C1239 C1238 1.400 1_455 S
C1239 C1240 1.398 1_455 S
C1239 C1245 1.491 . S
C1240 H1231 0.950 . S
C1240 C1239 1.398 1_655 S
C1240 C1241 1.391 . S
C1241 H1229 0.950 . S
C1241 C1237 1.393 . S
C1241 C1240 1.391 . S
C1242 H1232 0.950 1_565 S
C1242 C1243 1.386 . S
C1242 C1244 1.391 . S
C1243 C1242 1.386 . S
C1243 C1247 1.393 . S
C1244 H1233 0.950 . S
C1244 C1242 1.391 . S
C1244 C1245 1.400 . S
C1245 C1239 1.491 . S
C1245 C1244 1.400 . S
C1245 C1246 1.398 . S
C1246 H1234 0.950 . S
C1246 C1245 1.398 . S
C1246 C1247 1.391 . S
C1247 H1235 0.950 . S
C1247 C1243 1.393 . S
C1247 C1246 1.391 . S
H1248 C1256 0.950 . S
H1249 C1261 0.950 . S
H1250 C1258 0.950 . S
H1251 C1260 0.950 . S
H1252 C1262 0.950 . S
H1253 C1264 0.950 . S
H1254 C1266 0.950 . S
H1255 C1267 0.950 . S
C1256 H1248 0.950 . S
C1256 C1257 1.386 . S
C1256 C1258 1.391 . S
C1257 C1256 1.386 . S
C1257 C1261 1.393 . S
C1258 H1250 0.950 . S
C1258 C1256 1.391 . S
C1258 C1259 1.400 . S
C1259 C1258 1.400 . S
C1259 C1260 1.398 . S
C1259 C1265 1.491 . S
C1260 H1251 0.950 . S
C1260 C1259 1.398 . S
C1260 C1261 1.391 . S
C1261 H1249 0.950 . S
C1261 C1257 1.393 . S
C1261 C1260 1.391 . S
C1262 H1252 0.950 . S
C1262 C1263 1.386 . S
C1262 C1264 1.391 . S
C1263 C1262 1.386 . S
C1263 C1267 1.393 . S
C1264 H1253 0.950 . S
C1264 C1262 1.391 . S
C1264 C1265 1.400 . S
C1265 C1259 1.491 . S
C1265 C1264 1.400 . S
C1265 C1266 1.398 . S
C1266 H1254 0.950 . S
C1266 C1265 1.398 . S
C1266 C1267 1.391 . S
C1267 H1255 0.950 . S
C1267 C1263 1.393 . S
C1267 C1266 1.391 . S
H1268 C1276 0.950 1_455 S
H1269 C1281 0.950 . S
H1270 C1278 0.950 . S
H1271 C1280 0.950 . S
H1272 C1282 0.950 . S
H1273 C1284 0.950 . S
H1274 C1286 0.950 . S
H1275 C1287 0.950 . S
C1276 H1268 0.950 1_655 S
C1276 C1277 1.386 . S
C1276 C1278 1.391 . S
C1277 C1276 1.386 . S
C1277 C1281 1.393 . S
C1278 H1270 0.950 . S
C1278 C1276 1.391 . S
C1278 C1279 1.400 . S
C1279 C1278 1.400 . S
C1279 C1280 1.398 . S
C1279 C1285 1.491 . S
C1280 H1271 0.950 . S
C1280 C1279 1.398 . S
C1280 C1281 1.391 . S
C1281 H1269 0.950 . S
C1281 C1277 1.393 . S
C1281 C1280 1.391 . S
C1282 H1272 0.950 . S
C1282 C1283 1.386 . S
C1282 C1284 1.391 1_565 S
C1283 C1282 1.386 . S
C1283 C1287 1.393 . S
C1284 H1273 0.950 . S
C1284 C1282 1.391 1_545 S
C1284 C1285 1.400 . S
C1285 C1279 1.491 . S
C1285 C1284 1.400 . S
C1285 C1286 1.398 1_545 S
C1286 H1274 0.950 . S
C1286 C1285 1.398 1_565 S
C1286 C1287 1.391 . S
C1287 H1275 0.950 . S
C1287 C1283 1.393 . S
C1287 C1286 1.391 . S
H1288 C1296 0.950 . S
H1289 C1301 0.950 . S
H1290 C1298 0.950 . S
H1291 C1300 0.950 1_655 S
H1292 C1302 0.950 . S
H1293 C1304 0.950 . S
H1294 C1306 0.950 . S
H1295 C1307 0.950 . S
C1296 H1288 0.950 . S
C1296 C1297 1.386 . S
C1296 C1298 1.391 . S
C1297 C1296 1.386 . S
C1297 C1301 1.393 . S
C1298 H1290 0.950 . S
C1298 C1296 1.391 . S
C1298 C1299 1.400 1_455 S
C1299 C1298 1.400 1_655 S
C1299 C1300 1.398 1_655 S
C1299 C1305 1.491 . S
C1300 H1291 0.950 1_455 S
C1300 C1299 1.398 1_455 S
C1300 C1301 1.391 . S
C1301 H1289 0.950 . S
C1301 C1297 1.393 . S
C1301 C1300 1.391 . S
C1302 H1292 0.950 . S
C1302 C1303 1.386 . S
C1302 C1304 1.391 . S
C1303 C1302 1.386 . S
C1303 C1307 1.393 . S
C1304 H1293 0.950 . S
C1304 C1302 1.391 . S
C1304 C1305 1.400 . S
C1305 C1299 1.491 . S
C1305 C1304 1.400 . S
C1305 C1306 1.398 . S
C1306 H1294 0.950 . S
C1306 C1305 1.398 . S
C1306 C1307 1.391 . S
C1307 H1295 0.950 . S
C1307 C1303 1.393 . S
C1307 C1306 1.391 . S
H1308 C1316 0.950 . S
H1309 C1321 0.950 . S
H1310 C1318 0.950 . S
H1311 C1320 0.950 . S
H1312 C1322 0.950 . S
H1313 C1324 0.950 . S
H1314 C1326 0.950 . S
H1315 C1327 0.950 . S
C1316 H1308 0.950 . S
C1316 C1317 1.386 . S
C1316 C1318 1.391 . S
C1317 C1316 1.386 . S
C1317 C1321 1.393 . S
C1318 H1310 0.950 . S
C1318 C1316 1.391 . S
C1318 C1319 1.400 . S
C1319 C1318 1.400 . S
C1319 C1320 1.398 . S
C1319 C1325 1.491 . S
C1320 H1311 0.950 . S
C1320 C1319 1.398 . S
C1320 C1321 1.391 . S
C1321 H1309 0.950 . S
C1321 C1317 1.393 . S
C1321 C1320 1.391 . S
C1322 H1312 0.950 . S
C1322 C1323 1.386 . S
C1322 C1324 1.391 . S
C1323 C1322 1.386 . S
C1323 C1327 1.393 . S
C1324 H1313 0.950 . S
C1324 C1322 1.391 . S
C1324 C1325 1.400 . S
C1325 C1319 1.491 . S
C1325 C1324 1.400 . S
C1325 C1326 1.398 . S
C1326 H1314 0.950 . S
C1326 C1325 1.398 . S
C1326 C1327 1.391 . S
C1327 H1315 0.950 . S
C1327 C1323 1.393 . S
C1327 C1326 1.391 . S
H1328 C1336 0.950 . S
H1329 C1341 0.950 . S
H1330 C1338 0.950 . S
H1331 C1340 0.950 1_545 S
H1332 C1342 0.950 . S
H1333 C1344 0.950 . S
H1334 C1346 0.950 . S
H1335 C1347 0.950 . S
C1336 H1328 0.950 . S
C1336 C1337 1.386 . S
C1336 C1338 1.391 . S
C1337 C1336 1.386 . S
C1337 C1341 1.393 . S
C1338 H1330 0.950 . S
C1338 C1336 1.391 . S
C1338 C1339 1.400 1_565 S
C1339 C1338 1.400 1_545 S
C1339 C1340 1.398 1_545 S
C1339 C1345 1.491 . S
C1340 H1331 0.950 1_565 S
C1340 C1339 1.398 1_565 S
C1340 C1341 1.391 . S
C1341 H1329 0.950 . S
C1341 C1337 1.393 . S
C1341 C1340 1.391 . S
C1342 H1332 0.950 . S
C1342 C1343 1.386 . S
C1342 C1344 1.391 . S
C1343 C1342 1.386 . S
C1343 C1347 1.393 . S
C1344 H1333 0.950 . S
C1344 C1342 1.391 . S
C1344 C1345 1.400 . S
C1345 C1339 1.491 . S
C1345 C1344 1.400 . S
C1345 C1346 1.398 . S
C1346 H1334 0.950 . S
C1346 C1345 1.398 . S
C1346 C1347 1.391 . S
C1347 H1335 0.950 . S
C1347 C1343 1.393 . S
C1347 C1346 1.391 . S
H1348 C1356 0.950 . S
H1349 C1361 0.950 . S
H1350 C1358 0.950 . S
H1351 C1360 0.950 1_655 S
H1352 C1362 0.950 . S
H1353 C1364 0.950 . S
H1354 C1366 0.950 . S
H1355 C1367 0.950 1_565 S
C1356 H1348 0.950 . S
C1356 C1357 1.386 . S
C1356 C1358 1.391 . S
C1357 C1356 1.386 . S
C1357 C1361 1.393 . S
C1358 H1350 0.950 . S
C1358 C1356 1.391 . S
C1358 C1359 1.400 1_455 S
C1359 C1358 1.400 1_655 S
C1359 C1360 1.398 1_655 S
C1359 C1365 1.491 . S
C1360 H1351 0.950 1_455 S
C1360 C1359 1.398 1_455 S
C1360 C1361 1.391 . S
C1361 H1349 0.950 . S
C1361 C1357 1.393 . S
C1361 C1360 1.391 . S
C1362 H1352 0.950 . S
C1362 C1363 1.386 . S
C1362 C1364 1.391 . S
C1363 C1362 1.386 . S
C1363 C1367 1.393 . S
C1364 H1353 0.950 . S
C1364 C1362 1.391 . S
C1364 C1365 1.400 . S
C1365 C1359 1.491 . S
C1365 C1364 1.400 . S
C1365 C1366 1.398 . S
C1366 H1354 0.950 . S
C1366 C1365 1.398 . S
C1366 C1367 1.391 . S
C1367 H1355 0.950 1_545 S
C1367 C1363 1.393 . S
C1367 C1366 1.391 . S
H1368 C1376 0.950 . S
H1369 C1381 0.950 . S
H1370 C1378 0.950 . S
H1371 C1380 0.950 . S
H1372 C1382 0.950 . S
H1373 C1384 0.950 . S
H1374 C1386 0.950 . S
H1375 C1387 0.950 . S
C1376 H1368 0.950 . S
C1376 C1377 1.386 . S
C1376 C1378 1.391 . S
C1377 C1376 1.386 . S
C1377 C1381 1.393 . S
C1378 H1370 0.950 . S
C1378 C1376 1.391 . S
C1378 C1379 1.400 . S
C1379 C1378 1.400 . S
C1379 C1380 1.398 . S
C1379 C1385 1.491 . S
C1380 H1371 0.950 . S
C1380 C1379 1.398 . S
C1380 C1381 1.391 . S
C1381 H1369 0.950 . S
C1381 C1377 1.393 . S
C1381 C1380 1.391 . S
C1382 H1372 0.950 . S
C1382 C1383 1.386 . S
C1382 C1384 1.391 . S
C1383 C1382 1.386 . S
C1383 C1387 1.393 . S
C1384 H1373 0.950 . S
C1384 C1382 1.391 . S
C1384 C1385 1.400 . S
C1385 C1379 1.491 . S
C1385 C1384 1.400 . S
C1385 C1386 1.398 . S
C1386 H1374 0.950 . S
C1386 C1385 1.398 . S
C1386 C1387 1.391 . S
C1387 H1375 0.950 . S
C1387 C1383 1.393 . S
C1387 C1386 1.391 . S
H1388 C1396 0.950 . S
H1389 C1401 0.950 . S
H1390 C1398 0.950 . S
H1391 C1400 0.950 . S
H1392 C1402 0.950 . S
H1393 C1404 0.950 . S
H1394 C1406 0.950 . S
H1395 C1407 0.950 1_655 S
C1396 H1388 0.950 . S
C1396 C1397 1.386 . S
C1396 C1398 1.391 . S
C1397 C1396 1.386 . S
C1397 C1401 1.393 . S
C1398 H1390 0.950 . S
C1398 C1396 1.391 . S
C1398 C1399 1.400 1_545 S
C1399 C1398 1.400 1_565 S
C1399 C1400 1.398 . S
C1399 C1405 1.491 . S
C1400 H1391 0.950 . S
C1400 C1399 1.398 . S
C1400 C1401 1.391 1_565 S
C1401 H1389 0.950 . S
C1401 C1397 1.393 . S
C1401 C1400 1.391 1_545 S
C1402 H1392 0.950 . S
C1402 C1403 1.386 . S
C1402 C1404 1.391 . S
C1403 C1402 1.386 . S
C1403 C1407 1.393 . S
C1404 H1393 0.950 . S
C1404 C1402 1.391 . S
C1404 C1405 1.400 . S
C1405 C1399 1.491 . S
C1405 C1404 1.400 . S
C1405 C1406 1.398 . S
C1406 H1394 0.950 . S
C1406 C1405 1.398 . S
C1406 C1407 1.391 . S
C1407 H1395 0.950 1_455 S
C1407 C1403 1.393 . S
C1407 C1406 1.391 . S
H1408 C1416 0.950 . S
H1409 C1421 0.950 . S
H1410 C1418 0.950 . S
H1411 C1420 0.950 . S
H1412 C1422 0.950 . S
H1413 C1424 0.943 1_455 S
H1414 C1426 0.950 . S
H1415 C1427 0.950 . S
C1416 H1408 0.950 . S
C1416 C1417 1.386 . S
C1416 C1418 1.391 . S
C1417 C1416 1.386 . S
C1417 C1421 1.393 . S
C1418 H1410 0.950 . S
C1418 C1416 1.391 . S
C1418 C1419 1.400 . S
C1419 C1418 1.400 . S
C1419 C1420 1.398 . S
C1419 C1425 1.491 . S
C1420 H1411 0.950 . S
C1420 C1419 1.398 . S
C1420 C1421 1.391 . S
C1421 H1409 0.950 . S
C1421 C1417 1.393 . S
C1421 C1420 1.391 . S
C1422 H1412 0.950 . S
C1422 C1423 1.386 . S
C1422 C1424 1.420 . S
C1423 C1422 1.386 . S
C1423 C1427 1.393 . S
C1424 H1413 0.943 1_655 S
C1424 C1422 1.420 . S
C1424 C1425 1.379 1_655 S
C1425 C1419 1.491 . S
C1425 C1424 1.379 1_455 S
C1425 C1426 1.398 1_455 S
C1426 H1414 0.950 . S
C1426 C1425 1.398 1_655 S
C1426 C1427 1.391 . S
C1427 H1415 0.950 . S
C1427 C1423 1.393 . S
C1427 C1426 1.391 . S
H1428 C1436 0.950 . S
H1429 C1441 0.950 . S
H1430 C1438 0.950 . S
H1431 C1440 0.950 . S
H1432 C1442 0.950 . S
H1433 C1444 0.950 . S
H1434 C1446 0.950 . S
H1435 C1447 0.950 . S
C1436 H1428 0.950 . S
C1436 C1437 1.386 . S
C1436 C1438 1.391 . S
C1437 C1436 1.386 . S
C1437 C1441 1.393 . S
C1438 H1430 0.950 . S
C1438 C1436 1.391 . S
C1438 C1439 1.400 . S
C1439 C1438 1.400 . S
C1439 C1440 1.398 . S
C1439 C1445 1.491 . S
C1440 H1431 0.950 . S
C1440 C1439 1.398 . S
C1440 C1441 1.391 . S
C1441 H1429 0.950 . S
C1441 C1437 1.393 . S
C1441 C1440 1.391 . S
C1442 H1432 0.950 . S
C1442 C1443 1.386 . S
C1442 C1444 1.391 . S
C1443 C1442 1.386 . S
C1443 C1447 1.393 . S
C1444 H1433 0.950 . S
C1444 C1442 1.391 . S
C1444 C1445 1.400 . S
C1445 C1439 1.491 . S
C1445 C1444 1.400 . S
C1445 C1446 1.398 . S
C1446 H1434 0.950 . S
C1446 C1445 1.398 . S
C1446 C1447 1.391 . S
C1447 H1435 0.950 . S
C1447 C1443 1.393 . S
C1447 C1446 1.391 . S
H1448 C1456 0.950 . S
H1449 C1461 0.950 . S
H1450 C1458 0.950 . S
H1451 C1460 0.950 . S
H1452 C1462 0.950 . S
H1453 C1464 0.950 . S
H1454 C1466 0.950 . S
H1455 C1467 0.950 . S
C1456 H1448 0.950 . S
C1456 C1457 1.386 . S
C1456 C1458 1.391 . S
C1457 C1456 1.386 . S
C1457 C1461 1.393 . S
C1458 H1450 0.950 . S
C1458 C1456 1.391 . S
C1458 C1459 1.400 . S
C1459 C1458 1.400 . S
C1459 C1460 1.398 . S
C1459 C1465 1.491 . S
C1460 H1451 0.950 . S
C1460 C1459 1.398 . S
C1460 C1461 1.391 . S
C1461 H1449 0.950 . S
C1461 C1457 1.393 . S
C1461 C1460 1.391 . S
C1462 H1452 0.950 . S
C1462 C1463 1.386 . S
C1462 C1464 1.391 . S
C1463 C1462 1.386 . S
C1463 C1467 1.393 . S
C1464 H1453 0.950 . S
C1464 C1462 1.391 . S
C1464 C1465 1.400 . S
C1465 C1459 1.491 . S
C1465 C1464 1.400 . S
C1465 C1466 1.398 . S
C1466 H1454 0.950 . S
C1466 C1465 1.398 . S
C1466 C1467 1.391 . S
C1467 H1455 0.950 . S
C1467 C1463 1.393 . S
C1467 C1466 1.391 . S
H1468 C1476 0.950 . S
H1469 C1481 0.950 . S
H1470 C1478 0.950 . S
H1471 C1480 0.950 . S
H1472 C1482 0.950 . S
H1473 C1484 0.950 . S
H1474 C1486 0.950 . S
H1475 C1487 0.950 . S
C1476 H1468 0.950 . S
C1476 C1477 1.386 . S
C1476 C1478 1.391 . S
C1477 C1476 1.386 . S
C1477 C1481 1.393 . S
C1478 H1470 0.950 . S
C1478 C1476 1.391 . S
C1478 C1479 1.400 . S
C1479 C1478 1.400 . S
C1479 C1480 1.398 . S
C1479 C1485 1.491 . S
C1480 H1471 0.950 . S
C1480 C1479 1.398 . S
C1480 C1481 1.391 . S
C1481 H1469 0.950 . S
C1481 C1477 1.393 . S
C1481 C1480 1.391 . S
C1482 H1472 0.950 . S
C1482 C1483 1.386 . S
C1482 C1484 1.391 . S
C1483 C1482 1.386 . S
C1483 C1487 1.393 . S
C1484 H1473 0.950 . S
C1484 C1482 1.391 . S
C1484 C1485 1.400 . S
C1485 C1479 1.491 . S
C1485 C1484 1.400 . S
C1485 C1486 1.398 . S
C1486 H1474 0.950 . S
C1486 C1485 1.398 . S
C1486 C1487 1.391 . S
C1487 H1475 0.950 . S
C1487 C1483 1.393 . S
C1487 C1486 1.391 . S
H1488 C1496 0.950 . S
H1489 C1501 0.950 . S
H1490 C1498 0.950 . S
H1491 C1500 0.950 . S
H1492 C1502 0.950 . S
H1493 C1504 0.950 . S
H1494 C1506 0.950 . S
H1495 C1507 0.950 . S
C1496 H1488 0.950 . S
C1496 C1497 1.386 . S
C1496 C1498 1.391 . S
C1497 C1496 1.386 . S
C1497 C1501 1.393 . S
C1498 H1490 0.950 . S
C1498 C1496 1.391 . S
C1498 C1499 1.400 . S
C1499 C1498 1.400 . S
C1499 C1500 1.398 . S
C1499 C1505 1.491 . S
C1500 H1491 0.950 . S
C1500 C1499 1.398 . S
C1500 C1501 1.391 . S
C1501 H1489 0.950 . S
C1501 C1497 1.393 . S
C1501 C1500 1.391 . S
C1502 H1492 0.950 . S
C1502 C1503 1.386 . S
C1502 C1504 1.391 . S
C1503 C1502 1.386 . S
C1503 C1507 1.393 . S
C1504 H1493 0.950 . S
C1504 C1502 1.391 . S
C1504 C1505 1.400 . S
C1505 C1499 1.491 . S
C1505 C1504 1.400 . S
C1505 C1506 1.398 . S
C1506 H1494 0.950 . S
C1506 C1505 1.398 . S
C1506 C1507 1.391 . S
C1507 H1495 0.950 . S
C1507 C1503 1.393 . S
C1507 C1506 1.391 . S
H1508 C1516 0.950 . S
H1509 C1521 0.950 . S
H1510 C1518 0.950 . S
H1511 C1520 0.950 . S
H1512 C1522 0.950 . S
H1513 C1524 0.950 . S
H1514 C1526 0.950 . S
H1515 C1527 0.950 . S
C1516 H1508 0.950 . S
C1516 C1517 1.386 . S
C1516 C1518 1.391 . S
C1517 C1516 1.386 . S
C1517 C1521 1.393 . S
C1518 H1510 0.950 . S
C1518 C1516 1.391 . S
C1518 C1519 1.400 . S
C1519 C1518 1.400 . S
C1519 C1520 1.398 . S
C1519 C1525 1.491 . S
C1520 H1511 0.950 . S
C1520 C1519 1.398 . S
C1520 C1521 1.391 . S
C1521 H1509 0.950 . S
C1521 C1517 1.393 . S
C1521 C1520 1.391 . S
C1522 H1512 0.950 . S
C1522 C1523 1.386 . S
C1522 C1524 1.391 . S
C1523 C1522 1.386 . S
C1523 C1527 1.393 . S
C1524 H1513 0.950 . S
C1524 C1522 1.391 . S
C1524 C1525 1.400 . S
C1525 C1519 1.491 . S
C1525 C1524 1.400 . S
C1525 C1526 1.398 . S
C1526 H1514 0.950 . S
C1526 C1525 1.398 . S
C1526 C1527 1.391 . S
C1527 H1515 0.950 . S
C1527 C1523 1.393 . S
C1527 C1526 1.391 . S
H1528 C1536 0.950 . S
H1529 C1541 0.950 . S
H1530 C1538 0.950 . S
H1531 C1540 0.950 . S
H1532 C1542 0.950 . S
H1533 C1544 0.950 . S
H1534 C1546 0.950 . S
H1535 C1547 0.950 . S
C1536 H1528 0.950 . S
C1536 C1537 1.386 . S
C1536 C1538 1.391 . S
C1537 C1536 1.386 . S
C1537 C1541 1.393 . S
C1538 H1530 0.950 . S
C1538 C1536 1.391 . S
C1538 C1539 1.400 . S
C1539 C1538 1.400 . S
C1539 C1540 1.398 . S
C1539 C1545 1.491 . S
C1540 H1531 0.950 . S
C1540 C1539 1.398 . S
C1540 C1541 1.391 . S
C1541 H1529 0.950 . S
C1541 C1537 1.393 . S
C1541 C1540 1.391 . S
C1542 H1532 0.950 . S
C1542 C1543 1.386 . S
C1542 C1544 1.391 . S
C1543 C1542 1.386 . S
C1543 C1547 1.393 . S
C1544 H1533 0.950 . S
C1544 C1542 1.391 . S
C1544 C1545 1.400 . S
C1545 C1539 1.491 . S
C1545 C1544 1.400 . S
C1545 C1546 1.398 . S
C1546 H1534 0.950 . S
C1546 C1545 1.398 . S
C1546 C1547 1.391 . S
C1547 H1535 0.950 . S
C1547 C1543 1.393 . S
C1547 C1546 1.391 . S
H1548 C1556 0.950 . S
H1549 C1561 0.950 . S
H1550 C1558 0.950 . S
H1551 C1560 0.950 . S
H1552 C1562 0.950 . S
H1553 C1564 0.950 . S
H1554 C1566 0.950 . S
H1555 C1567 0.950 . S
C1556 H1548 0.950 . S
C1556 C1557 1.386 . S
C1556 C1558 1.391 . S
C1557 C1556 1.386 . S
C1557 C1561 1.393 . S
C1558 H1550 0.950 . S
C1558 C1556 1.391 . S
C1558 C1559 1.400 . S
C1559 C1558 1.400 . S
C1559 C1560 1.398 . S
C1559 C1565 1.491 . S
C1560 H1551 0.950 . S
C1560 C1559 1.398 . S
C1560 C1561 1.391 . S
C1561 H1549 0.950 . S
C1561 C1557 1.393 . S
C1561 C1560 1.391 . S
C1562 H1552 0.950 . S
C1562 C1563 1.386 . S
C1562 C1564 1.391 . S
C1563 C1562 1.386 . S
C1563 C1567 1.393 . S
C1564 H1553 0.950 . S
C1564 C1562 1.391 . S
C1564 C1565 1.400 . S
C1565 C1559 1.491 . S
C1565 C1564 1.400 . S
C1565 C1566 1.398 . S
C1566 H1554 0.950 . S
C1566 C1565 1.398 . S
C1566 C1567 1.391 . S
C1567 H1555 0.950 . S
C1567 C1563 1.393 . S
C1567 C1566 1.391 . S
H1568 C1576 0.950 . S
H1569 C1581 0.950 . S
H1570 C1578 0.950 . S
H1571 C1580 0.950 . S
H1572 C1582 0.950 . S
H1573 C1584 0.950 . S
H1574 C1586 0.950 . S
H1575 C1587 0.950 . S
C1576 H1568 0.950 . S
C1576 C1577 1.386 . S
C1576 C1578 1.391 . S
C1577 C1576 1.386 . S
C1577 C1581 1.393 . S
C1578 H1570 0.950 . S
C1578 C1576 1.391 . S
C1578 C1579 1.400 . S
C1579 C1578 1.400 . S
C1579 C1580 1.398 . S
C1579 C1585 1.491 . S
C1580 H1571 0.950 . S
C1580 C1579 1.398 . S
C1580 C1581 1.391 . S
C1581 H1569 0.950 . S
C1581 C1577 1.393 . S
C1581 C1580 1.391 . S
C1582 H1572 0.950 . S
C1582 C1583 1.386 . S
C1582 C1584 1.391 . S
C1583 C1582 1.386 . S
C1583 C1587 1.393 . S
C1584 H1573 0.950 . S
C1584 C1582 1.391 . S
C1584 C1585 1.400 . S
C1585 C1579 1.491 . S
C1585 C1584 1.400 . S
C1585 C1586 1.398 . S
C1586 H1574 0.950 . S
C1586 C1585 1.398 . S
C1586 C1587 1.391 . S
C1587 H1575 0.950 . S
C1587 C1583 1.393 . S
C1587 C1586 1.391 . S
H1588 C1596 0.950 . S
H1589 C1601 0.950 . S
H1590 C1598 0.950 . S
H1591 C1600 0.950 . S
H1592 C1602 0.950 . S
H1593 C1604 0.950 . S
H1594 C1606 0.950 . S
H1595 C1607 0.950 . S
C1596 H1588 0.950 . S
C1596 C1597 1.386 . S
C1596 C1598 1.391 . S
C1597 C1596 1.386 . S
C1597 C1601 1.393 . S
C1598 H1590 0.950 . S
C1598 C1596 1.391 . S
C1598 C1599 1.400 . S
C1599 C1598 1.400 . S
C1599 C1600 1.398 . S
C1599 C1605 1.491 . S
C1600 H1591 0.950 . S
C1600 C1599 1.398 . S
C1600 C1601 1.391 . S
C1601 H1589 0.950 . S
C1601 C1597 1.393 . S
C1601 C1600 1.391 . S
C1602 H1592 0.950 . S
C1602 C1603 1.386 . S
C1602 C1604 1.391 . S
C1603 C1602 1.386 . S
C1603 C1607 1.393 . S
C1604 H1593 0.950 . S
C1604 C1602 1.391 . S
C1604 C1605 1.400 . S
C1605 C1599 1.491 . S
C1605 C1604 1.400 . S
C1605 C1606 1.398 . S
C1606 H1594 0.950 . S
C1606 C1605 1.398 . S
C1606 C1607 1.391 . S
C1607 H1595 0.950 . S
C1607 C1603 1.393 . S
C1607 C1606 1.391 . S
H1608 C1616 0.950 . S
H1609 C1621 0.950 . S
H1610 C1618 0.950 . S
H1611 C1620 0.950 . S
H1612 C1622 0.950 . S
H1613 C1624 0.950 . S
H1614 C1626 0.950 . S
H1615 C1627 0.950 . S
C1616 H1608 0.950 . S
C1616 C1617 1.386 . S
C1616 C1618 1.391 . S
C1617 C1616 1.386 . S
C1617 C1621 1.393 . S
C1618 H1610 0.950 . S
C1618 C1616 1.391 . S
C1618 C1619 1.400 . S
C1619 C1618 1.400 . S
C1619 C1620 1.398 . S
C1619 C1625 1.491 . S
C1620 H1611 0.950 . S
C1620 C1619 1.398 . S
C1620 C1621 1.391 . S
C1621 H1609 0.950 . S
C1621 C1617 1.393 . S
C1621 C1620 1.391 . S
C1622 H1612 0.950 . S
C1622 C1623 1.386 . S
C1622 C1624 1.391 . S
C1623 C1622 1.386 . S
C1623 C1627 1.393 . S
C1624 H1613 0.950 . S
C1624 C1622 1.391 . S
C1624 C1625 1.400 . S
C1625 C1619 1.491 . S
C1625 C1624 1.400 . S
C1625 C1626 1.398 . S
C1626 H1614 0.950 . S
C1626 C1625 1.398 . S
C1626 C1627 1.391 . S
C1627 H1615 0.950 . S
C1627 C1623 1.393 . S
C1627 C1626 1.391 . S
H1628 C1636 0.950 . S
H1629 C1641 0.950 . S
H1630 C1638 0.950 . S
H1631 C1640 0.950 . S
H1632 C1642 0.950 . S
H1633 C1644 0.950 . S
H1634 C1646 0.950 . S
H1635 C1647 0.950 . S
C1636 H1628 0.950 . S
C1636 C1637 1.386 . S
C1636 C1638 1.391 . S
C1637 C1636 1.386 . S
C1637 C1641 1.393 . S
C1638 H1630 0.950 . S
C1638 C1636 1.391 . S
C1638 C1639 1.400 . S
C1639 C1638 1.400 . S
C1639 C1640 1.398 . S
C1639 C1645 1.491 . S
C1640 H1631 0.950 . S
C1640 C1639 1.398 . S
C1640 C1641 1.391 . S
C1641 H1629 0.950 . S
C1641 C1637 1.393 . S
C1641 C1640 1.391 . S
C1642 H1632 0.950 . S
C1642 C1643 1.386 . S
C1642 C1644 1.391 . S
C1643 C1642 1.386 . S
C1643 C1647 1.393 . S
C1644 H1633 0.950 . S
C1644 C1642 1.391 . S
C1644 C1645 1.400 . S
C1645 C1639 1.491 . S
C1645 C1644 1.400 . S
C1645 C1646 1.398 . S
C1646 H1634 0.950 . S
C1646 C1645 1.398 . S
C1646 C1647 1.391 . S
C1647 H1635 0.950 . S
C1647 C1643 1.393 . S
C1647 C1646 1.391 . S
H1648 C1656 0.950 . S
H1649 C1661 0.950 . S
H1650 C1658 0.950 . S
H1651 C1660 0.950 . S
H1652 C1662 0.950 . S
H1653 C1664 0.950 . S
H1654 C1666 0.950 . S
H1655 C1667 0.950 . S
C1656 H1648 0.950 . S
C1656 C1657 1.386 . S
C1656 C1658 1.391 . S
C1657 C1656 1.386 . S
C1657 C1661 1.393 . S
C1658 H1650 0.950 . S
C1658 C1656 1.391 . S
C1658 C1659 1.400 . S
C1659 C1658 1.400 . S
C1659 C1660 1.398 . S
C1659 C1665 1.491 . S
C1660 H1651 0.950 . S
C1660 C1659 1.398 . S
C1660 C1661 1.391 . S
C1661 H1649 0.950 . S
C1661 C1657 1.393 . S
C1661 C1660 1.391 . S
C1662 H1652 0.950 . S
C1662 C1663 1.386 . S
C1662 C1664 1.391 . S
C1663 C1662 1.386 . S
C1663 C1667 1.393 . S
C1664 H1653 0.950 . S
C1664 C1662 1.391 . S
C1664 C1665 1.400 . S
C1665 C1659 1.491 . S
C1665 C1664 1.400 . S
C1665 C1666 1.398 . S
C1666 H1654 0.950 . S
C1666 C1665 1.398 . S
C1666 C1667 1.391 . S
C1667 H1655 0.950 . S
C1667 C1663 1.393 . S
C1667 C1666 1.391 . S
H1668 C1676 0.950 . S
H1669 C1681 0.950 . S
H1670 C1678 0.950 . S
H1671 C1680 0.950 . S
H1672 C1682 0.950 . S
H1673 C1684 0.950 . S
H1674 C1686 0.950 . S
H1675 C1687 0.950 . S
C1676 H1668 0.950 . S
C1676 C1677 1.386 . S
C1676 C1678 1.391 . S
C1677 C1676 1.386 . S
C1677 C1681 1.393 . S
C1678 H1670 0.950 . S
C1678 C1676 1.391 . S
C1678 C1679 1.400 . S
C1679 C1678 1.400 . S
C1679 C1680 1.398 . S
C1679 C1685 1.491 . S
C1680 H1671 0.950 . S
C1680 C1679 1.398 . S
C1680 C1681 1.391 . S
C1681 H1669 0.950 . S
C1681 C1677 1.393 . S
C1681 C1680 1.391 . S
C1682 H1672 0.950 . S
C1682 C1683 1.386 . S
C1682 C1684 1.391 . S
C1683 C1682 1.386 . S
C1683 C1687 1.393 . S
C1684 H1673 0.950 . S
C1684 C1682 1.391 . S
C1684 C1685 1.400 . S
C1685 C1679 1.491 . S
C1685 C1684 1.400 . S
C1685 C1686 1.398 . S
C1686 H1674 0.950 . S
C1686 C1685 1.398 . S
C1686 C1687 1.391 . S
C1687 H1675 0.950 . S
C1687 C1683 1.393 . S
C1687 C1686 1.391 . S
H1688 C1696 0.950 . S
H1689 C1701 0.950 . S
H1690 C1698 0.950 . S
H1691 C1700 0.950 . S
H1692 C1702 0.950 . S
H1693 C1704 0.950 . S
H1694 C1706 0.950 . S
H1695 C1707 0.950 . S
C1696 H1688 0.950 . S
C1696 C1697 1.386 . S
C1696 C1698 1.391 . S
C1697 C1696 1.386 . S
C1697 C1701 1.393 . S
C1698 H1690 0.950 . S
C1698 C1696 1.391 . S
C1698 C1699 1.400 . S
C1699 C1698 1.400 . S
C1699 C1700 1.398 . S
C1699 C1705 1.491 . S
C1700 H1691 0.950 . S
C1700 C1699 1.398 . S
C1700 C1701 1.391 . S
C1701 H1689 0.950 . S
C1701 C1697 1.393 . S
C1701 C1700 1.391 . S
C1702 H1692 0.950 . S
C1702 C1703 1.386 . S
C1702 C1704 1.391 . S
C1703 C1702 1.386 . S
C1703 C1707 1.393 . S
C1704 H1693 0.950 . S
C1704 C1702 1.391 . S
C1704 C1705 1.400 . S
C1705 C1699 1.491 . S
C1705 C1704 1.400 . S
C1705 C1706 1.398 . S
C1706 H1694 0.950 . S
C1706 C1705 1.398 . S
C1706 C1707 1.391 . S
C1707 H1695 0.950 . S
C1707 C1703 1.393 . S
C1707 C1706 1.391 . S
H1708 C1716 0.950 . S
H1709 C1721 0.950 . S
H1710 C1718 0.950 . S
H1711 C1720 0.950 . S
H1712 C1722 0.950 . S
H1713 C1724 0.950 . S
H1714 C1726 0.950 . S
H1715 C1727 0.950 . S
C1716 H1708 0.950 . S
C1716 C1717 1.386 . S
C1716 C1718 1.391 . S
C1717 C1716 1.386 . S
C1717 C1721 1.393 . S
C1718 H1710 0.950 . S
C1718 C1716 1.391 . S
C1718 C1719 1.400 . S
C1719 C1718 1.400 . S
C1719 C1720 1.398 . S
C1719 C1725 1.491 . S
C1720 H1711 0.950 . S
C1720 C1719 1.398 . S
C1720 C1721 1.391 . S
C1721 H1709 0.950 . S
C1721 C1717 1.393 . S
C1721 C1720 1.391 . S
C1722 H1712 0.950 . S
C1722 C1723 1.386 . S
C1722 C1724 1.391 . S
C1723 C1722 1.386 . S
C1723 C1727 1.393 . S
C1724 H1713 0.950 . S
C1724 C1722 1.391 . S
C1724 C1725 1.400 . S
C1725 C1719 1.491 . S
C1725 C1724 1.400 . S
C1725 C1726 1.398 . S
C1726 H1714 0.950 . S
C1726 C1725 1.398 . S
C1726 C1727 1.391 . S
C1727 H1715 0.950 . S
C1727 C1723 1.393 . S
C1727 C1726 1.391 . S
H1728 C1736 0.950 . S
H1729 C1741 0.950 . S
H1730 C1738 0.950 . S
H1731 C1740 0.950 . S
H1732 C1742 0.950 . S
H1733 C1744 0.950 . S
H1734 C1746 0.950 . S
H1735 C1747 0.950 . S
C1736 H1728 0.950 . S
C1736 C1737 1.386 . S
C1736 C1738 1.391 . S
C1737 C1736 1.386 . S
C1737 C1741 1.393 . S
C1738 H1730 0.950 . S
C1738 C1736 1.391 . S
C1738 C1739 1.400 . S
C1739 C1738 1.400 . S
C1739 C1740 1.398 . S
C1739 C1745 1.491 . S
C1740 H1731 0.950 . S
C1740 C1739 1.398 . S
C1740 C1741 1.391 . S
C1741 H1729 0.950 . S
C1741 C1737 1.393 . S
C1741 C1740 1.391 . S
C1742 H1732 0.950 . S
C1742 C1743 1.386 . S
C1742 C1744 1.391 . S
C1743 C1742 1.386 . S
C1743 C1747 1.393 . S
C1744 H1733 0.950 . S
C1744 C1742 1.391 . S
C1744 C1745 1.400 . S
C1745 C1739 1.491 . S
C1745 C1744 1.400 . S
C1745 C1746 1.398 . S
C1746 H1734 0.950 . S
C1746 C1745 1.398 . S
C1746 C1747 1.391 . S
C1747 H1735 0.950 . S
C1747 C1743 1.393 . S
C1747 C1746 1.391 . S
H1748 C1756 0.950 . S
H1749 C1761 0.950 . S
H1750 C1758 0.950 . S
H1751 C1760 0.950 . S
H1752 C1762 0.950 . S
H1753 C1764 0.950 . S
H1754 C1766 0.950 . S
H1755 C1767 0.950 . S
C1756 H1748 0.950 . S
C1756 C1757 1.386 . S
C1756 C1758 1.391 . S
C1757 C1756 1.386 . S
C1757 C1761 1.393 . S
C1758 H1750 0.950 . S
C1758 C1756 1.391 . S
C1758 C1759 1.400 . S
C1759 C1758 1.400 . S
C1759 C1760 1.398 . S
C1759 C1765 1.491 . S
C1760 H1751 0.950 . S
C1760 C1759 1.398 . S
C1760 C1761 1.391 . S
C1761 H1749 0.950 . S
C1761 C1757 1.393 . S
C1761 C1760 1.391 . S
C1762 H1752 0.950 . S
C1762 C1763 1.386 . S
C1762 C1764 1.391 . S
C1763 C1762 1.386 . S
C1763 C1767 1.393 . S
C1764 H1753 0.950 . S
C1764 C1762 1.391 . S
C1764 C1765 1.400 . S
C1765 C1759 1.491 . S
C1765 C1764 1.400 . S
C1765 C1766 1.398 . S
C1766 H1754 0.950 . S
C1766 C1765 1.398 . S
C1766 C1767 1.391 . S
C1767 H1755 0.950 . S
C1767 C1763 1.393 . S
C1767 C1766 1.391 . S
H1768 C1776 0.950 . S
H1769 C1781 0.950 . S
H1770 C1778 0.950 . S
H1771 C1780 0.950 . S
H1772 C1782 0.950 . S
H1773 C1784 0.950 . S
H1774 C1786 0.950 . S
H1775 C1787 0.950 . S
C1776 H1768 0.950 . S
C1776 C1777 1.386 . S
C1776 C1778 1.391 . S
C1777 C1776 1.386 . S
C1777 C1781 1.393 . S
C1778 H1770 0.950 . S
C1778 C1776 1.391 . S
C1778 C1779 1.400 . S
C1779 C1778 1.400 . S
C1779 C1780 1.398 . S
C1779 C1785 1.491 . S
C1780 H1771 0.950 . S
C1780 C1779 1.398 . S
C1780 C1781 1.391 . S
C1781 H1769 0.950 . S
C1781 C1777 1.393 . S
C1781 C1780 1.391 . S
C1782 H1772 0.950 . S
C1782 C1783 1.386 . S
C1782 C1784 1.391 . S
C1783 C1782 1.386 . S
C1783 C1787 1.393 . S
C1784 H1773 0.950 . S
C1784 C1782 1.391 . S
C1784 C1785 1.400 . S
C1785 C1779 1.491 . S
C1785 C1784 1.400 . S
C1785 C1786 1.398 . S
C1786 H1774 0.950 . S
C1786 C1785 1.398 . S
C1786 C1787 1.391 . S
C1787 H1775 0.950 . S
C1787 C1783 1.393 . S
C1787 C1786 1.391 . S
H1788 C1796 0.950 . S
H1789 C1801 0.950 . S
H1790 C1798 0.950 . S
H1791 C1800 0.950 . S
H1792 C1802 0.950 . S
H1793 C1804 0.950 . S
H1794 C1806 0.950 . S
H1795 C1807 0.950 . S
C1796 H1788 0.950 . S
C1796 C1797 1.386 . S
C1796 C1798 1.391 . S
C1797 C1796 1.386 . S
C1797 C1801 1.393 . S
C1798 H1790 0.950 . S
C1798 C1796 1.391 . S
C1798 C1799 1.400 . S
C1799 C1798 1.400 . S
C1799 C1800 1.398 . S
C1799 C1805 1.491 . S
C1800 H1791 0.950 . S
C1800 C1799 1.398 . S
C1800 C1801 1.391 . S
C1801 H1789 0.950 . S
C1801 C1797 1.393 . S
C1801 C1800 1.391 . S
C1802 H1792 0.950 . S
C1802 C1803 1.386 . S
C1802 C1804 1.391 . S
C1803 C1802 1.386 . S
C1803 C1807 1.393 . S
C1804 H1793 0.950 . S
C1804 C1802 1.391 . S
C1804 C1805 1.400 . S
C1805 C1799 1.491 . S
C1805 C1804 1.400 . S
C1805 C1806 1.398 . S
C1806 H1794 0.950 . S
C1806 C1805 1.398 . S
C1806 C1807 1.391 . S
C1807 H1795 0.950 . S
C1807 C1803 1.393 . S
C1807 C1806 1.391 . S
H1808 C1816 0.950 . S
H1809 C1821 0.950 . S
H1810 C1818 0.950 . S
H1811 C1820 0.950 . S
H1812 C1822 0.950 . S
H1813 C1824 0.950 . S
H1814 C1826 0.950 . S
H1815 C1827 0.950 . S
C1816 H1808 0.950 . S
C1816 C1817 1.386 . S
C1816 C1818 1.391 . S
C1817 C1816 1.386 . S
C1817 C1821 1.393 . S
C1818 H1810 0.950 . S
C1818 C1816 1.391 . S
C1818 C1819 1.400 . S
C1819 C1818 1.400 . S
C1819 C1820 1.398 . S
C1819 C1825 1.491 . S
C1820 H1811 0.950 . S
C1820 C1819 1.398 . S
C1820 C1821 1.391 . S
C1821 H1809 0.950 . S
C1821 C1817 1.393 . S
C1821 C1820 1.391 . S
C1822 H1812 0.950 . S
C1822 C1823 1.386 . S
C1822 C1824 1.391 . S
C1823 C1822 1.386 . S
C1823 C1827 1.393 . S
C1824 H1813 0.950 . S
C1824 C1822 1.391 . S
C1824 C1825 1.400 . S
C1825 C1819 1.491 . S
C1825 C1824 1.400 . S
C1825 C1826 1.398 . S
C1826 H1814 0.950 . S
C1826 C1825 1.398 . S
C1826 C1827 1.391 . S
C1827 H1815 0.950 . S
C1827 C1823 1.393 . S
C1827 C1826 1.391 . S
H1828 C1836 0.950 . S
H1829 C1841 0.950 . S
H1830 C1838 0.950 . S
H1831 C1840 0.950 . S
H1832 C1842 0.950 . S
H1833 C1844 0.950 . S
H1834 C1846 0.950 . S
H1835 C1847 0.950 . S
C1836 H1828 0.950 . S
C1836 C1837 1.386 . S
C1836 C1838 1.391 . S
C1837 C1836 1.386 . S
C1837 C1841 1.393 . S
C1838 H1830 0.950 . S
C1838 C1836 1.391 . S
C1838 C1839 1.400 . S
C1839 C1838 1.400 . S
C1839 C1840 1.398 . S
C1839 C1845 1.491 . S
C1840 H1831 0.950 . S
C1840 C1839 1.398 . S
C1840 C1841 1.391 . S
C1841 H1829 0.950 . S
C1841 C1837 1.393 . S
C1841 C1840 1.391 . S
C1842 H1832 0.950 . S
C1842 C1843 1.386 . S
C1842 C1844 1.391 . S
C1843 C1842 1.386 . S
C1843 C1847 1.393 . S
C1844 H1833 0.950 . S
C1844 C1842 1.391 . S
C1844 C1845 1.400 . S
C1845 C1839 1.491 . S
C1845 C1844 1.400 . S
C1845 C1846 1.398 . S
C1846 H1834 0.950 . S
C1846 C1845 1.398 . S
C1846 C1847 1.391 . S
C1847 H1835 0.950 . S
C1847 C1843 1.393 . S
C1847 C1846 1.391 . S
H1848 C1856 0.950 . S
H1849 C1861 0.950 . S
H1850 C1858 0.950 . S
H1851 C1860 0.950 . S
H1852 C1862 0.950 . S
H1853 C1864 0.950 . S
H1854 C1866 0.950 . S
H1855 C1867 0.950 . S
C1856 H1848 0.950 . S
C1856 C1857 1.386 . S
C1856 C1858 1.391 . S
C1857 C1856 1.386 . S
C1857 C1861 1.393 . S
C1858 H1850 0.950 . S
C1858 C1856 1.391 . S
C1858 C1859 1.400 . S
C1859 C1858 1.400 . S
C1859 C1860 1.398 . S
C1859 C1865 1.491 . S
C1860 H1851 0.950 . S
C1860 C1859 1.398 . S
C1860 C1861 1.391 . S
C1861 H1849 0.950 . S
C1861 C1857 1.393 . S
C1861 C1860 1.391 . S
C1862 H1852 0.950 . S
C1862 C1863 1.386 . S
C1862 C1864 1.391 . S
C1863 C1862 1.386 . S
C1863 C1867 1.393 . S
C1864 H1853 0.950 . S
C1864 C1862 1.391 . S
C1864 C1865 1.400 . S
C1865 C1859 1.491 . S
C1865 C1864 1.400 . S
C1865 C1866 1.398 . S
C1866 H1854 0.950 . S
C1866 C1865 1.398 . S
C1866 C1867 1.391 . S
C1867 H1855 0.950 . S
C1867 C1863 1.393 . S
C1867 C1866 1.391 . S
H1868 C1876 0.950 . S
H1869 C1881 0.950 . S
H1870 C1878 0.950 . S
H1871 C1880 0.950 . S
H1872 C1882 0.950 . S
H1873 C1884 0.950 . S
H1874 C1886 0.950 . S
H1875 C1887 0.950 . S
C1876 H1868 0.950 . S
C1876 C1877 1.386 . S
C1876 C1878 1.391 . S
C1877 C1876 1.386 . S
C1877 C1881 1.393 . S
C1878 H1870 0.950 . S
C1878 C1876 1.391 . S
C1878 C1879 1.400 . S
C1879 C1878 1.400 . S
C1879 C1880 1.398 . S
C1879 C1885 1.491 . S
C1880 H1871 0.950 . S
C1880 C1879 1.398 . S
C1880 C1881 1.391 . S
C1881 H1869 0.950 . S
C1881 C1877 1.393 . S
C1881 C1880 1.391 . S
C1882 H1872 0.950 . S
C1882 C1883 1.386 . S
C1882 C1884 1.391 . S
C1883 C1882 1.386 . S
C1883 C1887 1.393 . S
C1884 H1873 0.950 . S
C1884 C1882 1.391 . S
C1884 C1885 1.400 . S
C1885 C1879 1.491 . S
C1885 C1884 1.400 . S
C1885 C1886 1.398 . S
C1886 H1874 0.950 . S
C1886 C1885 1.398 . S
C1886 C1887 1.391 . S
C1887 H1875 0.950 . S
C1887 C1883 1.393 . S
C1887 C1886 1.391 . S
H1888 C1896 0.950 . S
H1889 C1901 0.950 . S
H1890 C1898 0.950 . S
H1891 C1900 0.950 . S
H1892 C1902 0.950 . S
H1893 C1904 0.950 . S
H1894 C1906 0.950 . S
H1895 C1907 0.950 . S
C1896 H1888 0.950 . S
C1896 C1897 1.386 . S
C1896 C1898 1.391 . S
C1897 C1896 1.386 . S
C1897 C1901 1.393 . S
C1898 H1890 0.950 . S
C1898 C1896 1.391 . S
C1898 C1899 1.400 . S
C1899 C1898 1.400 . S
C1899 C1900 1.398 . S
C1899 C1905 1.491 . S
C1900 H1891 0.950 . S
C1900 C1899 1.398 . S
C1900 C1901 1.391 . S
C1901 H1889 0.950 . S
C1901 C1897 1.393 . S
C1901 C1900 1.391 . S
C1902 H1892 0.950 . S
C1902 C1903 1.386 . S
C1902 C1904 1.391 . S
C1903 C1902 1.386 . S
C1903 C1907 1.393 . S
C1904 H1893 0.950 . S
C1904 C1902 1.391 . S
C1904 C1905 1.400 . S
C1905 C1899 1.491 . S
C1905 C1904 1.400 . S
C1905 C1906 1.398 . S
C1906 H1894 0.950 . S
C1906 C1905 1.398 . S
C1906 C1907 1.391 . S
C1907 H1895 0.950 . S
C1907 C1903 1.393 . S
C1907 C1906 1.391 . S
C477 C4 1.502 . S
C483 C238 1.502 . S
C497 C257 1.504 . S
C503 C17 1.504 . S
C517 C270 1.503 . S
C523 C30 1.503 . S
C537 C43 1.503 . S
C543 C433 1.503 . S
C557 C62 1.502 . S
C563 C446 1.502 . S
C577 C75 1.502 . S
C583 C459 1.502 . S
C597 C316 1.502 . S
C603 C82 1.502 . S
C617 C95 1.504 . S
C623 C335 1.504 . S
C637 C114 1.503 . S
C643 C348 1.503 . S
C657 C205 1.502 . S
C663 C121 1.502 . S
C677 C218 1.502 . S
C683 C134 1.502 . S
C697 C225 1.504 . S
C703 C153 1.504 . S
C717 C394 1.502 . S
C723 C160 1.502 . S
C737 C407 1.502 . S
C743 C179 1.502 . S
C757 C186 1.502 . S
C763 C426 1.502 . S
C777 C361 1.504 . S
C783 C283 1.504 . S
C797 C296 1.504 . S
C803 C368 1.504 . S
C817 C309 1.504 . S
C823 C387 1.504 . S
C837 C10 1.559 . S
C843 C355 1.564 . S
C857 C374 1.554 . S
C863 C23 1.553 . S
C877 C381 1.555 . S
C883 C36 1.559 . S
C897 C166 1.555 . S
C903 C49 1.559 . S
C917 C173 1.576 . S
C923 C56 1.576 . S
C937 C192 1.558 . S
C943 C69 1.564 . S
C957 C88 1.555 . S
C963 C277 1.559 . S
C977 C290 1.576 . S
C983 C101 1.572 . S
C997 C303 1.566 . S
C1003 C108 1.560 . S
C1017 C127 1.555 . S
C1023 C400 1.554 . S
C1037 C140 1.575 . S
C1043 C413 1.576 . S
C1057 C147 1.562 . S
C1063 C420 1.557 . S
C1077 C199 1.561 . S
C1083 C322 1.567 . S
C1097 C212 1.575 . S
C1103 C329 1.576 . S
C1117 C231 1.554 . S
C1123 C342 1.554 . S
C1137 C244 1.570 . S
C1143 C439 1.574 . S
C1157 C452 1.557 . S
C1163 C251 1.562 . S
C1177 C264 1.577 . S
C1183 C465 1.574 . S
C1197 C18 1.197 . S
C1203 C3 1.153 . S
C1217 C16 1.138 . S
C1223 C31 1.202 . S
C1237 C29 1.176 . S
C1243 C5 1.211 . S
C1257 C42 1.151 . S
C1263 C68 1.211 . S
C1277 C44 1.197 . S
C1283 C57 1.142 . S
C1297 C70 1.137 . S
C1303 C55 1.201 . S
C1317 C81 1.151 . S
C1323 C96 1.197 . S
C1337 C94 1.144 . S
C1343 C107 1.208 . S
C1357 C109 1.176 . S
C1363 C83 1.210 . S
C1377 C146 1.201 . S
C1383 C120 1.166 . S
C1397 C133 1.171 . S
C1403 C122 1.214 . S
C1417 C135 1.214 . S
C1423 C148 1.174 . S
C1437 C172 1.210 . S
C1443 C159 1.176 . S
C1457 C187 1.212 . S
C1463 C174 1.175 . S
C1477 C161 1.206 . S
C1483 C185 1.173 . S
C1497 C200 1.147 . S
C1503 C226 1.196 . S
C1517 C213 1.173 . S
C1523 C198 1.214 . S
C1537 C224 1.162 . S
C1543 C211 1.214 . S
C1557 C250 1.211 . S
C1563 C237 1.176 . S
C1577 C252 1.167 . S
C1583 C263 1.201 . S
C1597 C265 1.174 . S
C1603 C239 1.206 . S
C1617 C278 1.138 . S
C1623 C302 1.199 . S
C1637 C291 1.159 . S
C1643 C276 1.198 . S
C1657 C289 1.198 . S
C1663 C304 1.158 . S
C1677 C328 1.197 . S
C1683 C315 1.144 . S
C1697 C330 1.170 . S
C1703 C341 1.215 . S
C1717 C317 1.215 . S
C1723 C343 1.167 . S
C1737 C356 1.157 . S
C1743 C380 1.198 . S
C1757 C367 1.154 . S
C1763 C354 1.212 . S
C1777 C382 1.174 . S
C1783 C369 1.214 . S
C1797 C393 1.171 . S
C1803 C408 1.204 . S
C1817 C406 1.175 . S
C1823 C419 1.213 . S
C1837 C421 1.137 . S
C1843 C395 1.202 . S
C1857 C432 1.173 . S
C1863 C460 1.214 . S
C1877 C445 1.168 . S
C1883 C434 1.215 . S
C1897 C447 1.206 . S
C1903 C458 1.174 . S
