# Generated by pormake.
# Topology utp, (3)-cn, num edge types: 1
# Building blocks:
#     Node 0, Type 0, BuildingBlock: OLANEW_clean_sbu_2, # of connection points: 3
#     Node 1, Type 0, BuildingBlock: OLANEW_clean_sbu_2, # of connection points: 3
#     Node 2, Type 0, BuildingBlock: OLANEW_clean_sbu_2, # of connection points: 3
#     Node 3, Type 0, BuildingBlock: OLANEW_clean_sbu_2, # of connection points: 3
#     Node 4, Type 0, BuildingBlock: OLANEW_clean_sbu_2, # of connection points: 3
#     Node 5, Type 0, BuildingBlock: OLANEW_clean_sbu_2, # of connection points: 3
#     Node 6, Type 0, BuildingBlock: OLANEW_clean_sbu_2, # of connection points: 3
#     Node 7, Type 0, BuildingBlock: OLANEW_clean_sbu_2, # of connection points: 3
#     Edge 8, Type (0, 0), BuildingBlock: FUNLAD_clean_linker_0, # of connection points: 2
#     Edge 9, Type (0, 0), BuildingBlock: FUNLAD_clean_linker_0, # of connection points: 2
#     Edge 10, Type (0, 0), BuildingBlock: FUNLAD_clean_linker_0, # of connection points: 2
#     Edge 11, Type (0, 0), BuildingBlock: FUNLAD_clean_linker_0, # of connection points: 2
#     Edge 12, Type (0, 0), BuildingBlock: FUNLAD_clean_linker_0, # of connection points: 2
#     Edge 13, Type (0, 0), BuildingBlock: FUNLAD_clean_linker_0, # of connection points: 2
#     Edge 14, Type (0, 0), BuildingBlock: FUNLAD_clean_linker_0, # of connection points: 2
#     Edge 15, Type (0, 0), BuildingBlock: FUNLAD_clean_linker_0, # of connection points: 2
#     Edge 16, Type (0, 0), BuildingBlock: FUNLAD_clean_linker_0, # of connection points: 2
#     Edge 17, Type (0, 0), BuildingBlock: FUNLAD_clean_linker_0, # of connection points: 2
#     Edge 18, Type (0, 0), BuildingBlock: FUNLAD_clean_linker_0, # of connection points: 2
#     Edge 19, Type (0, 0), BuildingBlock: FUNLAD_clean_linker_0, # of connection points: 2
# Relax obj value: 0.000
# Max RMSD: 0.051
# Mean RMSD: 0.051
data_MOF--net-utp--node1-OLANEW_clean_sbu_2--edge1-FUNLAD_clean_linker_0
_symmetry_space_group_name_H-M    P1
_symmetry_Int_Tables_number       1
_symmetry_cell_setting            triclinic
loop_
_symmetry_equiv_pos_as_xyz
'x, y, z'
_cell_length_a     47.622101
_cell_length_b     54.262416
_cell_length_c     44.032477
_cell_angle_alpha  89.988391
_cell_angle_beta   89.939379
_cell_angle_gamma 90.001611
loop_
_atom_site_label
_atom_site_type_symbol
_atom_site_fract_x
_atom_site_fract_y
_atom_site_fract_z
_atom_type_partial_charge
O0 O 0.16499 0.04988 0.17763 0.0
Cd1 Cd 0.11971 0.06589 0.16035 0.0
O2 O 0.18466 0.05323 0.13259 0.0
Cd3 Cd 0.14539 0.06233 0.10975 0.0
O4 O 0.10958 0.05613 0.07981 0.0
C5 C 0.10548 0.03394 0.07167 0.0
O6 O 0.12236 0.01673 0.08205 0.0
C7 C 0.18649 0.04789 0.16064 0.0
C8 C 0.11519 0.11679 0.16841 0.0
O9 O 0.10771 0.10178 0.18939 0.0
O10 O 0.12489 0.10772 0.14365 0.0
O11 O 0.3982 0.91557 0.24749 0.0
Cd12 Cd 0.43812 0.88988 0.26233 0.0
O13 O 0.41867 0.92237 0.20366 0.0
Cd14 Cd 0.42303 0.94078 0.15958 0.0
O15 O 0.42882 0.95894 0.11567 0.0
C16 C 0.44512 0.97742 0.11366 0.0
O17 O 0.45791 0.98532 0.13822 0.0
C18 C 0.39802 0.9258 0.22153 0.0
C19 C 0.42442 0.84024 0.27021 0.0
O20 O 0.42254 0.85557 0.29226 0.0
O21 O 0.43248 0.84845 0.24433 0.0
O22 O 0.09972 0.41559 0.24251 0.0
Cd23 Cd 0.06194 0.3888 0.22446 0.0
O24 O 0.07398 0.42442 0.28232 0.0
Cd25 Cd 0.06324 0.4448 0.32367 0.0
O26 O 0.04738 0.46389 0.36388 0.0
C27 C 0.06324 0.47621 0.38143 0.0
O28 O 0.09022 0.47762 0.37535 0.0
C29 C 0.09662 0.4272 0.26735 0.0
C30 C 0.07721 0.33925 0.22 0.0
O31 O 0.08072 0.35406 0.19763 0.0
O32 O 0.06678 0.34795 0.24461 0.0
O33 O 0.32469 0.55411 0.32681 0.0
Cd34 Cd 0.36893 0.57107 0.34584 0.0
O35 O 0.30301 0.55731 0.37077 0.0
Cd36 Cd 0.34124 0.56734 0.39504 0.0
O37 O 0.37739 0.56243 0.42489 0.0
C38 C 0.38354 0.54033 0.43177 0.0
O39 O 0.36839 0.52237 0.42028 0.0
C40 C 0.30253 0.55179 0.34271 0.0
C41 C 0.37419 0.6213 0.33323 0.0
O42 O 0.3827 0.605 0.31428 0.0
O43 O 0.36314 0.61384 0.35815 0.0
O44 O 0.84685 0.92706 0.81286 0.0
Cd45 Cd 0.89097 0.90795 0.82896 0.0
O46 O 0.86712 0.96149 0.79813 0.0
Cd47 Cd 0.90751 0.952 0.81831 0.0
O48 O 0.94102 0.95582 0.85179 0.0
C49 C 0.93484 0.96811 0.87545 0.0
O50 O 0.90928 0.97697 0.87818 0.0
C51 C 0.8452 0.94827 0.80066 0.0
C52 C 0.89814 0.86136 0.80307 0.0
O53 O 0.88597 0.86394 0.82886 0.0
O54 O 0.90695 0.88081 0.78956 0.0
O55 O 0.6253 0.08726 0.80417 0.0
Cd56 Cd 0.58266 0.10974 0.81803 0.0
O57 O 0.60383 0.05174 0.7978 0.0
Cd58 Cd 0.56461 0.06395 0.81864 0.0
O59 O 0.53397 0.05928 0.85518 0.0
C60 C 0.52428 0.03766 0.85886 0.0
O61 O 0.5318 0.02033 0.83965 0.0
C62 C 0.62603 0.06471 0.79636 0.0
C63 C 0.58379 0.15719 0.79338 0.0
O64 O 0.5935 0.15291 0.82 0.0
O65 O 0.57328 0.13908 0.77856 0.0
O66 O 0.8865 0.57589 0.69647 0.0
Cd67 Cd 0.92836 0.59975 0.68329 0.0
O68 O 0.90943 0.54135 0.70477 0.0
Cd69 Cd 0.94833 0.55506 0.68467 0.0
O70 O 0.97811 0.55374 0.64694 0.0
C71 C 0.969 0.55985 0.62088 0.0
O72 O 0.94318 0.56819 0.61854 0.0
C73 C 0.88659 0.55349 0.70499 0.0
C74 C 0.9251 0.64704 0.70817 0.0
O75 O 0.91582 0.64257 0.68142 0.0
O76 O 0.93617 0.62921 0.72303 0.0
O77 O 0.65009 0.43987 0.68991 0.0
Cd78 Cd 0.60689 0.41934 0.67359 0.0
O79 O 0.62863 0.47455 0.70138 0.0
Cd80 Cd 0.58885 0.46358 0.6809 0.0
O81 O 0.55494 0.46637 0.64773 0.0
C82 C 0.5599 0.47989 0.62475 0.0
O83 O 0.58459 0.49056 0.62248 0.0
C84 C 0.6509 0.46164 0.70058 0.0
C85 C 0.60166 0.37247 0.69928 0.0
O86 O 0.61376 0.37552 0.67354 0.0
O87 O 0.59198 0.39158 0.71283 0.0
C88 C 0.10201 0.15355 0.19987 0.0
C89 C 0.11242 0.14378 0.17252 0.0
C90 C 0.09885 0.17901 0.20353 0.0
C91 C 0.10619 0.1953 0.17991 0.0
C92 C 0.11648 0.18547 0.15258 0.0
C93 C 0.11969 0.16003 0.14894 0.0
C94 C 0.10223 0.22246 0.18225 0.0
C95 C 0.10087 0.2348 0.20882 0.0
C96 C 0.09579 0.26183 0.21112 0.0
C97 C 0.08519 0.27136 0.23848 0.0
C98 C 0.07943 0.2965 0.2415 0.0
C99 C 0.08434 0.31277 0.21724 0.0
H100 H 0.11052 0.27194 0.16596 0.0
C101 C 0.09564 0.30339 0.1901 0.0
C102 C 0.10142 0.27824 0.18707 0.0
H103 H 0.09997 0.31548 0.17108 0.0
H104 H 0.096 0.14153 0.2184 0.0
H105 H 0.09 0.18565 0.22462 0.0
H106 H 0.12207 0.19753 0.13391 0.0
H107 H 0.12768 0.15312 0.12754 0.0
H108 H 0.10034 0.23246 0.16102 0.0
H109 H 0.10281 0.22476 0.23002 0.0
H110 H 0.08092 0.25924 0.25749 0.0
H111 H 0.07087 0.30313 0.26279 0.0
C112 C 0.40913 0.80497 0.30312 0.0
C113 C 0.41808 0.81375 0.27468 0.0
C114 C 0.40407 0.77984 0.30765 0.0
C115 C 0.40772 0.76291 0.28372 0.0
C116 C 0.41669 0.77174 0.25534 0.0
C117 C 0.42168 0.79686 0.25079 0.0
C118 C 0.4038 0.73589 0.2878 0.0
C119 C 0.38725 0.72589 0.30944 0.0
C120 C 0.38393 0.69886 0.31448 0.0
C121 C 0.37255 0.69079 0.3422 0.0
C122 C 0.36928 0.66566 0.34827 0.0
C123 C 0.37723 0.64795 0.32664 0.0
H124 H 0.39941 0.68629 0.27052 0.0
C125 C 0.38819 0.65595 0.29868 0.0
C126 C 0.3914 0.68109 0.29257 0.0
H127 H 0.39424 0.64277 0.28139 0.0
H128 H 0.40638 0.81746 0.32207 0.0
H129 H 0.39807 0.77381 0.33015 0.0
H130 H 0.4199 0.75913 0.23657 0.0
H131 H 0.42866 0.80299 0.22862 0.0
H132 H 0.41507 0.72406 0.27215 0.0
H133 H 0.37583 0.73795 0.32474 0.0
H134 H 0.36639 0.70398 0.35944 0.0
H135 H 0.36066 0.66014 0.37 0.0
C136 C 0.8929 0.81538 0.8047 0.0
C137 C 0.90181 0.83667 0.78926 0.0
C138 C 0.89623 0.79208 0.79159 0.0
C139 C 0.90869 0.78955 0.76274 0.0
C140 C 0.91729 0.81086 0.74722 0.0
C141 C 0.91404 0.83415 0.76036 0.0
C142 C 0.91208 0.76518 0.74765 0.0
C143 C 0.91393 0.74372 0.76297 0.0
C144 C 0.91724 0.71933 0.74793 0.0
C145 C 0.92888 0.69976 0.76456 0.0
C146 C 0.93174 0.67638 0.75157 0.0
C147 C 0.92273 0.67197 0.72167 0.0
H148 H 0.89822 0.72922 0.70471 0.0
C149 C 0.9109 0.69149 0.70504 0.0
C150 C 0.90811 0.71489 0.71801 0.0
H151 H 0.90352 0.68866 0.68205 0.0
H152 H 0.88318 0.81669 0.82689 0.0
H153 H 0.88848 0.77623 0.80392 0.0
H154 H 0.9267 0.8095 0.72486 0.0
H155 H 0.92102 0.85017 0.74778 0.0
H156 H 0.91443 0.76521 0.72313 0.0
H157 H 0.91428 0.74396 0.78762 0.0
H158 H 0.93587 0.70256 0.78772 0.0
H159 H 0.94082 0.66173 0.76507 0.0
C160 C 0.6088 0.3267 0.69748 0.0
C161 C 0.59901 0.34764 0.713 0.0
C162 C 0.60644 0.30327 0.7105 0.0
C163 C 0.59411 0.30027 0.73934 0.0
C164 C 0.58463 0.32125 0.75495 0.0
C165 C 0.5869 0.34466 0.74189 0.0
C166 C 0.59175 0.27577 0.75434 0.0
C167 C 0.59074 0.25432 0.73894 0.0
C168 C 0.58847 0.22979 0.75389 0.0
C169 C 0.57752 0.20993 0.73726 0.0
C170 C 0.57569 0.18644 0.75017 0.0
C171 C 0.58505 0.18222 0.77998 0.0
H172 H 0.60733 0.24015 0.79703 0.0
C173 C 0.59618 0.20205 0.79662 0.0
C174 C 0.59795 0.22556 0.78373 0.0
H175 H 0.60381 0.19938 0.81955 0.0
H176 H 0.61845 0.32838 0.67529 0.0
H177 H 0.61483 0.28771 0.69811 0.0
H178 H 0.57529 0.31953 0.7773 0.0
H179 H 0.57926 0.36041 0.75453 0.0
H180 H 0.58947 0.27565 0.77888 0.0
H181 H 0.59029 0.25462 0.71429 0.0
H182 H 0.5703 0.21258 0.71416 0.0
H183 H 0.56712 0.17155 0.73666 0.0
C184 C 0.36106 0.95671 0.23456 0.0
C185 C 0.37441 0.9419 0.21275 0.0
C186 C 0.33877 0.9721 0.22634 0.0
C187 C 0.32902 0.97263 0.19612 0.0
C188 C 0.34242 0.95767 0.17446 0.0
C189 C 0.36478 0.94241 0.18268 0.0
C190 C 0.30523 0.98843 0.18595 0.0
C191 C 0.28682 0.99958 0.20478 0.0
C192 C 0.26213 0.01381 0.19372 0.0
C193 C 0.23854 0.01611 0.21266 0.0
C194 C 0.21423 0.0279 0.20235 0.0
C195 C 0.21307 0.03774 0.17284 0.0
H196 H 0.27956 0.02444 0.14992 0.0
C197 C 0.23715 0.03651 0.15442 0.0
C198 C 0.26146 0.02482 0.16477 0.0
H199 H 0.23713 0.04425 0.13174 0.0
H200 H 0.36818 0.95668 0.25792 0.0
H201 H 0.32966 0.98365 0.24373 0.0
H202 H 0.33539 0.95756 0.15106 0.0
H203 H 0.37407 0.93061 0.16559 0.0
H204 H 0.30198 0.98972 0.1616 0.0
H205 H 0.28842 0.99684 0.2291 0.0
H206 H 0.23858 0.00814 0.23522 0.0
H207 H 0.19612 0.02866 0.21722 0.0
C208 C 0.25185 0.53959 0.34622 0.0
C209 C 0.27675 0.54118 0.32916 0.0
C210 C 0.22821 0.52769 0.33446 0.0
C211 C 0.22906 0.51681 0.30544 0.0
C212 C 0.25356 0.51937 0.28792 0.0
C213 C 0.27716 0.53137 0.29963 0.0
C214 C 0.20513 0.5025 0.29268 0.0
C215 C 0.18508 0.49186 0.30996 0.0
C216 C 0.16215 0.47583 0.29802 0.0
C217 C 0.14581 0.46249 0.31895 0.0
C218 C 0.12444 0.44678 0.30908 0.0
C219 C 0.11881 0.44412 0.278 0.0
H220 H 0.16764 0.48346 0.2497 0.0
C221 C 0.13498 0.45741 0.25696 0.0
C222 C 0.15623 0.47328 0.2668 0.0
H223 H 0.13096 0.45575 0.23283 0.0
H224 H 0.25068 0.54728 0.36889 0.0
H225 H 0.20945 0.52711 0.34829 0.0
H226 H 0.25474 0.51148 0.26535 0.0
H227 H 0.29593 0.53237 0.28578 0.0
H228 H 0.20546 0.49937 0.26838 0.0
H229 H 0.18616 0.49378 0.33446 0.0
H230 H 0.14981 0.46395 0.3431 0.0
H231 H 0.11289 0.43621 0.32578 0.0
C232 C 0.65384 0.02837 0.77804 0.0
C233 C 0.65302 0.05305 0.78771 0.0
C234 C 0.67951 0.01658 0.77284 0.0
C235 C 0.70499 0.02917 0.77758 0.0
C236 C 0.70406 0.05419 0.78573 0.0
C237 C 0.67841 0.066 0.79078 0.0
C238 C 0.7329 0.01691 0.77529 0.0
C239 C 0.73667 0.99233 0.77769 0.0
C240 C 0.76478 0.98047 0.78034 0.0
C241 C 0.76654 0.95702 0.79374 0.0
C242 C 0.79261 0.9461 0.79931 0.0
C243 C 0.81757 0.9584 0.79153 0.0
H244 H 0.7894 0.00971 0.75936 0.0
C245 C 0.81581 0.98126 0.77663 0.0
C246 C 0.78973 0.99213 0.77091 0.0
H247 H 0.83463 0.99105 0.76987 0.0
H248 H 0.63465 0.01796 0.77498 0.0
H249 H 0.67913 0.9976 0.76538 0.0
H250 H 0.7233 0.06447 0.78919 0.0
H251 H 0.67856 0.08508 0.79801 0.0
H252 H 0.75107 0.02895 0.77457 0.0
H253 H 0.7186 0.98044 0.78085 0.0
H254 H 0.7477 0.94744 0.8009 0.0
H255 H 0.79318 0.92839 0.81065 0.0
C256 C 0.70346 0.46054 0.70402 0.0
C257 C 0.67799 0.47269 0.70998 0.0
C258 C 0.72913 0.47218 0.70972 0.0
C259 C 0.72989 0.4962 0.7219 0.0
C260 C 0.70438 0.5079 0.72887 0.0
C261 C 0.67875 0.49632 0.72301 0.0
C262 C 0.7564 0.51059 0.72509 0.0
C263 C 0.78235 0.50073 0.72337 0.0
C264 C 0.80862 0.51561 0.72191 0.0
C265 C 0.83443 0.50372 0.72669 0.0
C266 C 0.85977 0.51625 0.72232 0.0
C267 C 0.85988 0.54101 0.71293 0.0
H268 H 0.78954 0.55048 0.70854 0.0
C269 C 0.83409 0.55319 0.70908 0.0
C270 C 0.80876 0.54064 0.71332 0.0
H271 H 0.8334 0.57222 0.70167 0.0
H272 H 0.70363 0.44238 0.69383 0.0
H273 H 0.74807 0.46254 0.70329 0.0
H274 H 0.70422 0.52639 0.73816 0.0
H275 H 0.65953 0.50621 0.72798 0.0
H276 H 0.75415 0.53028 0.72852 0.0
H277 H 0.78478 0.48087 0.72258 0.0
H278 H 0.83505 0.48446 0.73314 0.0
H279 H 0.87925 0.50629 0.72552 0.0
C280 C 0.94902 0.98719 0.92486 0.0
C281 C 0.95613 0.97315 0.89914 0.0
C282 C 0.96915 0.9926 0.94693 0.0
C283 C 0.99695 0.98422 0.94369 0.0
C284 C 0.00387 0.96972 0.91834 0.0
C285 C 0.98374 0.96432 0.89622 0.0
C286 C 0.01904 0.98969 0.96657 0.0
C287 C 0.01824 0.00944 0.98515 0.0
C288 C 0.0406 0.01518 0.00761 0.0
C289 C 0.04401 0.03964 0.01739 0.0
C290 C 0.06494 0.04579 0.03832 0.0
C291 C 0.08276 0.02753 0.05014 0.0
H292 H 0.05551 0.97763 0.0139 0.0
C293 C 0.07894 0.00296 0.0409 0.0
C294 C 0.05806 0.99682 0.01996 0.0
H295 H 0.09211 0.98839 0.04981 0.0
H296 H 0.92786 0.99406 0.92799 0.0
H297 H 0.96265 0.00307 0.96663 0.0
H298 H 0.02504 0.96278 0.91543 0.0
H299 H 0.98987 0.95335 0.87676 0.0
H300 H 0.03726 0.97768 0.96683 0.0
H301 H 0.00137 0.02277 0.98284 0.0
H302 H 0.03065 0.05411 0.00852 0.0
H303 H 0.06722 0.06488 0.04508 0.0
C304 C 0.43626 0.98141 0.05769 0.0
C305 C 0.45062 0.98918 0.08387 0.0
C306 C 0.44248 0.99173 0.02935 0.0
C307 C 0.46348 0.00988 0.02652 0.0
C308 C 0.47707 0.01819 0.05289 0.0
C309 C 0.47078 0.00796 0.08122 0.0
C310 C 0.47226 0.02034 0.99669 0.0
C311 C 0.46803 0.00889 0.96989 0.0
C312 C 0.4803 0.01757 0.94067 0.0
C313 C 0.48454 1.00029 0.91739 0.0
C314 C 0.49801 0.00703 0.89046 0.0
C315 C 0.50739 0.03132 0.88604 0.0
H316 H 0.48462 0.05632 0.9525 0.0
C317 C 0.50191 0.04897 0.90865 0.0
C318 C 0.48842 0.04221 0.93566 0.0
H319 H 0.50857 0.06792 0.9058 0.0
H320 H 0.4203 0.96723 0.05902 0.0
H321 H 0.43071 0.98537 0.00988 0.0
H322 H 0.49312 0.03231 0.05152 0.0
H323 H 0.48211 0.01451 0.10094 0.0
H324 H 0.48484 0.037 0.99732 0.0
H325 H 0.45748 0.99118 0.96949 0.0
H326 H 0.4782 0.98126 0.92041 0.0
H327 H 0.50166 0.99299 0.87342 0.0
C328 C 0.97484 0.56049 0.56438 0.0
C329 C 0.98577 0.55483 0.5932 0.0
C330 C 0.98907 0.55335 0.53805 0.0
C331 C 0.01449 0.5402 0.53995 0.0
C332 C 0.02617 0.53578 0.5687 0.0
C333 C 0.01192 0.54292 0.59508 0.0
C334 C 0.02898 0.53043 0.51252 0.0
C335 C 0.01501 0.52398 0.4871 0.0
C336 C 0.0283 0.5121 0.46023 0.0
C337 C 0.01107 0.49896 0.44008 0.0
C338 C 0.02242 0.48733 0.41459 0.0
C339 C 0.05133 0.48872 0.40845 0.0
H340 H 0.07116 0.52431 0.46834 0.0
C341 C 0.06861 0.50217 0.42832 0.0
C342 C 0.05724 0.5138 0.45392 0.0
H343 H 0.09095 0.50378 0.42411 0.0
H344 H 0.95495 0.56997 0.5621 0.0
H345 H 0.97994 0.55802 0.51631 0.0
H346 H 0.04591 0.52601 0.57082 0.0
H347 H 0.02104 0.53844 0.61692 0.0
H348 H 0.05125 0.52651 0.51445 0.0
H349 H 0.99232 0.52588 0.48656 0.0
H350 H 0.9887 0.49746 0.4442 0.0
H351 H 0.00845 0.47722 0.39971 0.0
C352 C 0.41282 0.51025 0.46099 0.0
C353 C 0.40674 0.53478 0.45306 0.0
C354 C 0.43419 0.50487 0.48167 0.0
C355 C 0.44989 0.52395 0.49507 0.0
C356 C 0.44422 0.54841 0.48662 0.0
C357 C 0.42281 0.5538 0.46595 0.0
C358 C 0.47273 0.51903 0.51727 0.0
C359 C 0.4738 0.49863 0.53476 0.0
C360 C 0.49635 0.49396 0.55738 0.0
C361 C 0.49084 0.47813 0.58192 0.0
C362 C 0.51145 0.4734 0.60376 0.0
C363 C 0.53815 0.48426 0.60135 0.0
H364 H 0.52875 0.51599 0.53552 0.0
C365 C 0.54388 0.49966 0.57642 0.0
C366 C 0.52328 0.5044 0.55463 0.0
H367 H 0.56433 0.50812 0.57369 0.0
H368 H 0.40105 0.49512 0.45124 0.0
H369 H 0.43851 0.48573 0.4867 0.0
H370 H 0.4562 0.56345 0.49632 0.0
H371 H 0.41877 0.57289 0.46022 0.0
H372 H 0.4883 0.53342 0.52036 0.0
H373 H 0.45676 0.48537 0.53379 0.0
H374 H 0.47039 0.4696 0.58441 0.0
H375 H 0.5064 0.46134 0.6226 0.0
loop_
_geom_bond_atom_site_label_1
_geom_bond_atom_site_label_2
_geom_bond_distance
_geom_bond_site_symmetry_2
_ccdc_geom_bond_type
O0 Cd1 2.300 . S
O0 C7 1.275 . S
Cd1 O0 2.300 . S
Cd1 O9 2.381 . S
Cd1 O10 2.378 . S
O2 Cd3 2.385 . S
O2 C7 1.255 . S
Cd3 O2 2.385 . S
Cd3 O4 2.317 . S
O4 Cd3 2.317 . S
O4 C5 1.232 . S
C5 O4 1.232 . S
C5 O6 1.218 . S
O6 C5 1.218 . S
C7 O0 1.275 . S
C7 O2 1.255 . S
C8 O9 1.258 . S
C8 O10 1.256 . S
O9 Cd1 2.381 . S
O9 C8 1.258 . S
O10 Cd1 2.378 . S
O10 C8 1.256 . S
O11 Cd12 2.300 . S
O11 C18 1.275 . S
Cd12 O11 2.300 . S
Cd12 O20 2.381 . S
Cd12 O21 2.378 . S
O13 Cd14 2.385 . S
O13 C18 1.255 . S
Cd14 O13 2.385 . S
Cd14 O15 2.317 . S
O15 Cd14 2.317 . S
O15 C16 1.232 . S
C16 O15 1.232 . S
C16 O17 1.218 . S
O17 C16 1.218 . S
C18 O11 1.275 . S
C18 O13 1.255 . S
C19 O20 1.258 . S
C19 O21 1.256 . S
O20 Cd12 2.381 . S
O20 C19 1.258 . S
O21 Cd12 2.378 . S
O21 C19 1.256 . S
O22 Cd23 2.300 . S
O22 C29 1.275 . S
Cd23 O22 2.300 . S
Cd23 O31 2.381 . S
Cd23 O32 2.378 . S
O24 Cd25 2.385 . S
O24 C29 1.255 . S
Cd25 O24 2.385 . S
Cd25 O26 2.317 . S
O26 Cd25 2.317 . S
O26 C27 1.232 . S
C27 O26 1.232 . S
C27 O28 1.218 . S
O28 C27 1.218 . S
C29 O22 1.275 . S
C29 O24 1.255 . S
C30 O31 1.258 . S
C30 O32 1.256 . S
O31 Cd23 2.381 . S
O31 C30 1.258 . S
O32 Cd23 2.378 . S
O32 C30 1.256 . S
O33 Cd34 2.300 . S
O33 C40 1.275 . S
Cd34 O33 2.300 . S
Cd34 O42 2.381 . S
Cd34 O43 2.378 . S
O35 Cd36 2.385 . S
O35 C40 1.255 . S
Cd36 O35 2.385 . S
Cd36 O37 2.317 . S
O37 Cd36 2.317 . S
O37 C38 1.232 . S
C38 O37 1.232 . S
C38 O39 1.218 . S
O39 C38 1.218 . S
C40 O33 1.275 . S
C40 O35 1.255 . S
C41 O42 1.258 . S
C41 O43 1.256 . S
O42 Cd34 2.381 . S
O42 C41 1.258 . S
O43 Cd34 2.378 . S
O43 C41 1.256 . S
O44 Cd45 2.300 . S
O44 C51 1.275 . S
Cd45 O44 2.300 . S
Cd45 O53 2.381 . S
Cd45 O54 2.378 . S
O46 Cd47 2.385 . S
O46 C51 1.255 . S
Cd47 O46 2.385 . S
Cd47 O48 2.317 . S
O48 Cd47 2.317 . S
O48 C49 1.232 . S
C49 O48 1.232 . S
C49 O50 1.218 . S
O50 C49 1.218 . S
C51 O44 1.275 . S
C51 O46 1.255 . S
C52 O53 1.258 . S
C52 O54 1.256 . S
O53 Cd45 2.381 . S
O53 C52 1.258 . S
O54 Cd45 2.378 . S
O54 C52 1.256 . S
O55 Cd56 2.300 . S
O55 C62 1.275 . S
Cd56 O55 2.300 . S
Cd56 O64 2.381 . S
Cd56 O65 2.378 . S
O57 Cd58 2.385 . S
O57 C62 1.255 . S
Cd58 O57 2.385 . S
Cd58 O59 2.317 . S
O59 Cd58 2.317 . S
O59 C60 1.232 . S
C60 O59 1.232 . S
C60 O61 1.218 . S
O61 C60 1.218 . S
C62 O55 1.275 . S
C62 O57 1.255 . S
C63 O64 1.258 . S
C63 O65 1.256 . S
O64 Cd56 2.381 . S
O64 C63 1.258 . S
O65 Cd56 2.378 . S
O65 C63 1.256 . S
O66 Cd67 2.300 . S
O66 C73 1.275 . S
Cd67 O66 2.300 . S
Cd67 O75 2.381 . S
Cd67 O76 2.378 . S
O68 Cd69 2.385 . S
O68 C73 1.255 . S
Cd69 O68 2.385 . S
Cd69 O70 2.317 . S
O70 Cd69 2.317 . S
O70 C71 1.232 . S
C71 O70 1.232 . S
C71 O72 1.218 . S
O72 C71 1.218 . S
C73 O66 1.275 . S
C73 O68 1.255 . S
C74 O75 1.258 . S
C74 O76 1.256 . S
O75 Cd67 2.381 . S
O75 C74 1.258 . S
O76 Cd67 2.378 . S
O76 C74 1.256 . S
O77 Cd78 2.300 . S
O77 C84 1.275 . S
Cd78 O77 2.300 . S
Cd78 O86 2.381 . S
Cd78 O87 2.378 . S
O79 Cd80 2.385 . S
O79 C84 1.255 . S
Cd80 O79 2.385 . S
Cd80 O81 2.317 . S
O81 Cd80 2.317 . S
O81 C82 1.232 . S
C82 O81 1.232 . S
C82 O83 1.218 . S
O83 C82 1.218 . S
C84 O77 1.275 . S
C84 O79 1.255 . S
C85 O86 1.258 . S
C85 O87 1.256 . S
O86 Cd78 2.381 . S
O86 C85 1.258 . S
O87 Cd78 2.378 . S
O87 C85 1.256 . S
C88 C89 1.386 . S
C88 C90 1.383 . S
C88 H104 0.951 . S
C89 C88 1.386 . S
C89 C93 1.383 . S
C90 C88 1.383 . S
C90 C91 1.402 . S
C90 H105 0.951 . S
C91 C90 1.402 . S
C91 C92 1.375 . S
C91 C94 1.481 . S
C92 C91 1.375 . S
C92 C93 1.367 . S
C92 H106 0.951 . S
C93 C89 1.383 . S
C93 C92 1.367 . S
C93 H107 0.950 . S
C94 C91 1.481 . S
C94 C95 1.297 . S
C94 H108 0.950 . S
C95 C94 1.297 . S
C95 C96 1.479 . S
C95 H109 0.950 . S
C96 C95 1.479 . S
C96 C97 1.375 . S
C96 C102 1.404 . S
C97 C96 1.375 . S
C97 C98 1.369 . S
C97 H110 0.950 . S
C98 C97 1.369 . S
C98 C99 1.392 . S
C98 H111 0.951 . S
C99 C98 1.392 . S
C99 C101 1.384 . S
H100 C102 0.949 . S
C101 C99 1.384 . S
C101 C102 1.385 . S
C101 H103 0.950 . S
C102 C96 1.404 . S
C102 H100 0.949 . S
C102 C101 1.385 . S
H103 C101 0.950 . S
H104 C88 0.951 . S
H105 C90 0.951 . S
H106 C92 0.951 . S
H107 C93 0.950 . S
H108 C94 0.950 . S
H109 C95 0.950 . S
H110 C97 0.950 . S
H111 C98 0.951 . S
C112 C113 1.386 . S
C112 C114 1.383 . S
C112 H128 0.951 . S
C113 C112 1.386 . S
C113 C117 1.383 . S
C114 C112 1.383 . S
C114 C115 1.402 . S
C114 H129 0.951 . S
C115 C114 1.402 . S
C115 C116 1.375 . S
C115 C118 1.481 . S
C116 C115 1.375 . S
C116 C117 1.367 . S
C116 H130 0.951 . S
C117 C113 1.383 . S
C117 C116 1.367 . S
C117 H131 0.950 . S
C118 C115 1.481 . S
C118 C119 1.297 . S
C118 H132 0.950 . S
C119 C118 1.297 . S
C119 C120 1.479 . S
C119 H133 0.950 . S
C120 C119 1.479 . S
C120 C121 1.375 . S
C120 C126 1.404 . S
C121 C120 1.375 . S
C121 C122 1.369 . S
C121 H134 0.950 . S
C122 C121 1.369 . S
C122 C123 1.392 . S
C122 H135 0.951 . S
C123 C122 1.392 . S
C123 C125 1.384 . S
H124 C126 0.949 . S
C125 C123 1.384 . S
C125 C126 1.385 . S
C125 H127 0.950 . S
C126 C120 1.404 . S
C126 H124 0.949 . S
C126 C125 1.385 . S
H127 C125 0.950 . S
H128 C112 0.951 . S
H129 C114 0.951 . S
H130 C116 0.951 . S
H131 C117 0.950 . S
H132 C118 0.950 . S
H133 C119 0.950 . S
H134 C121 0.950 . S
H135 C122 0.951 . S
C136 C137 1.386 . S
C136 C138 1.383 . S
C136 H152 0.951 . S
C137 C136 1.386 . S
C137 C141 1.383 . S
C138 C136 1.383 . S
C138 C139 1.402 . S
C138 H153 0.951 . S
C139 C138 1.402 . S
C139 C140 1.375 . S
C139 C142 1.481 . S
C140 C139 1.375 . S
C140 C141 1.367 . S
C140 H154 0.951 . S
C141 C137 1.383 . S
C141 C140 1.367 . S
C141 H155 0.950 . S
C142 C139 1.481 . S
C142 C143 1.297 . S
C142 H156 0.950 . S
C143 C142 1.297 . S
C143 C144 1.479 . S
C143 H157 0.950 . S
C144 C143 1.479 . S
C144 C145 1.375 . S
C144 C150 1.404 . S
C145 C144 1.375 . S
C145 C146 1.369 . S
C145 H158 0.950 . S
C146 C145 1.369 . S
C146 C147 1.392 . S
C146 H159 0.951 . S
C147 C146 1.392 . S
C147 C149 1.384 . S
H148 C150 0.949 . S
C149 C147 1.384 . S
C149 C150 1.385 . S
C149 H151 0.950 . S
C150 C144 1.404 . S
C150 H148 0.949 . S
C150 C149 1.385 . S
H151 C149 0.950 . S
H152 C136 0.951 . S
H153 C138 0.951 . S
H154 C140 0.951 . S
H155 C141 0.950 . S
H156 C142 0.950 . S
H157 C143 0.950 . S
H158 C145 0.950 . S
H159 C146 0.951 . S
C160 C161 1.386 . S
C160 C162 1.383 . S
C160 H176 0.951 . S
C161 C160 1.386 . S
C161 C165 1.383 . S
C162 C160 1.383 . S
C162 C163 1.402 . S
C162 H177 0.951 . S
C163 C162 1.402 . S
C163 C164 1.375 . S
C163 C166 1.481 . S
C164 C163 1.375 . S
C164 C165 1.367 . S
C164 H178 0.951 . S
C165 C161 1.383 . S
C165 C164 1.367 . S
C165 H179 0.950 . S
C166 C163 1.481 . S
C166 C167 1.297 . S
C166 H180 0.950 . S
C167 C166 1.297 . S
C167 C168 1.479 . S
C167 H181 0.950 . S
C168 C167 1.479 . S
C168 C169 1.375 . S
C168 C174 1.404 . S
C169 C168 1.375 . S
C169 C170 1.369 . S
C169 H182 0.950 . S
C170 C169 1.369 . S
C170 C171 1.392 . S
C170 H183 0.951 . S
C171 C170 1.392 . S
C171 C173 1.384 . S
H172 C174 0.949 . S
C173 C171 1.384 . S
C173 C174 1.385 . S
C173 H175 0.950 . S
C174 C168 1.404 . S
C174 H172 0.949 . S
C174 C173 1.385 . S
H175 C173 0.950 . S
H176 C160 0.951 . S
H177 C162 0.951 . S
H178 C164 0.951 . S
H179 C165 0.950 . S
H180 C166 0.950 . S
H181 C167 0.950 . S
H182 C169 0.950 . S
H183 C170 0.951 . S
C184 C185 1.386 . S
C184 C186 1.383 . S
C184 H200 0.951 . S
C185 C184 1.386 . S
C185 C189 1.383 . S
C186 C184 1.383 . S
C186 C187 1.402 . S
C186 H201 0.951 . S
C187 C186 1.402 . S
C187 C188 1.375 . S
C187 C190 1.481 . S
C188 C187 1.375 . S
C188 C189 1.367 . S
C188 H202 0.951 . S
C189 C185 1.383 . S
C189 C188 1.367 . S
C189 H203 0.950 . S
C190 C187 1.481 . S
C190 C191 1.297 1_565 S
C190 H204 0.950 . S
C191 C190 1.297 1_545 S
C191 C192 1.479 . S
C191 H205 0.950 . S
C192 C191 1.479 . S
C192 C193 1.375 . S
C192 C198 1.404 . S
C193 C192 1.375 . S
C193 C194 1.369 . S
C193 H206 0.950 . S
C194 C193 1.369 . S
C194 C195 1.392 . S
C194 H207 0.951 . S
C195 C194 1.392 . S
C195 C197 1.384 . S
H196 C198 0.949 . S
C197 C195 1.384 . S
C197 C198 1.385 . S
C197 H199 0.950 . S
C198 C192 1.404 . S
C198 H196 0.949 . S
C198 C197 1.385 . S
H199 C197 0.950 . S
H200 C184 0.951 . S
H201 C186 0.951 . S
H202 C188 0.951 . S
H203 C189 0.950 . S
H204 C190 0.950 . S
H205 C191 0.950 . S
H206 C193 0.950 . S
H207 C194 0.951 . S
C208 C209 1.386 . S
C208 C210 1.383 . S
C208 H224 0.951 . S
C209 C208 1.386 . S
C209 C213 1.383 . S
C210 C208 1.383 . S
C210 C211 1.402 . S
C210 H225 0.951 . S
C211 C210 1.402 . S
C211 C212 1.375 . S
C211 C214 1.481 . S
C212 C211 1.375 . S
C212 C213 1.367 . S
C212 H226 0.951 . S
C213 C209 1.383 . S
C213 C212 1.367 . S
C213 H227 0.950 . S
C214 C211 1.481 . S
C214 C215 1.297 . S
C214 H228 0.950 . S
C215 C214 1.297 . S
C215 C216 1.479 . S
C215 H229 0.950 . S
C216 C215 1.479 . S
C216 C217 1.375 . S
C216 C222 1.404 . S
C217 C216 1.375 . S
C217 C218 1.369 . S
C217 H230 0.950 . S
C218 C217 1.369 . S
C218 C219 1.392 . S
C218 H231 0.951 . S
C219 C218 1.392 . S
C219 C221 1.384 . S
H220 C222 0.949 . S
C221 C219 1.384 . S
C221 C222 1.385 . S
C221 H223 0.950 . S
C222 C216 1.404 . S
C222 H220 0.949 . S
C222 C221 1.385 . S
H223 C221 0.950 . S
H224 C208 0.951 . S
H225 C210 0.951 . S
H226 C212 0.951 . S
H227 C213 0.950 . S
H228 C214 0.950 . S
H229 C215 0.950 . S
H230 C217 0.950 . S
H231 C218 0.951 . S
C232 C233 1.386 . S
C232 C234 1.383 . S
C232 H248 0.951 . S
C233 C232 1.386 . S
C233 C237 1.383 . S
C234 C232 1.383 . S
C234 C235 1.402 . S
C234 H249 0.951 1_545 S
C235 C234 1.402 . S
C235 C236 1.375 . S
C235 C238 1.481 . S
C236 C235 1.375 . S
C236 C237 1.367 . S
C236 H250 0.951 . S
C237 C233 1.383 . S
C237 C236 1.367 . S
C237 H251 0.950 . S
C238 C235 1.481 . S
C238 C239 1.297 1_545 S
C238 H252 0.950 . S
C239 C238 1.297 1_565 S
C239 C240 1.479 . S
C239 H253 0.950 . S
C240 C239 1.479 . S
C240 C241 1.375 . S
C240 C246 1.404 . S
C241 C240 1.375 . S
C241 C242 1.369 . S
C241 H254 0.950 . S
C242 C241 1.369 . S
C242 C243 1.392 . S
C242 H255 0.951 . S
C243 C242 1.392 . S
C243 C245 1.384 . S
H244 C246 0.949 1_545 S
C245 C243 1.384 . S
C245 C246 1.385 . S
C245 H247 0.950 . S
C246 C240 1.404 . S
C246 H244 0.949 1_565 S
C246 C245 1.385 . S
H247 C245 0.950 . S
H248 C232 0.951 . S
H249 C234 0.951 1_565 S
H250 C236 0.951 . S
H251 C237 0.950 . S
H252 C238 0.950 . S
H253 C239 0.950 . S
H254 C241 0.950 . S
H255 C242 0.951 . S
C256 C257 1.386 . S
C256 C258 1.383 . S
C256 H272 0.951 . S
C257 C256 1.386 . S
C257 C261 1.383 . S
C258 C256 1.383 . S
C258 C259 1.402 . S
C258 H273 0.951 . S
C259 C258 1.402 . S
C259 C260 1.375 . S
C259 C262 1.481 . S
C260 C259 1.375 . S
C260 C261 1.367 . S
C260 H274 0.951 . S
C261 C257 1.383 . S
C261 C260 1.367 . S
C261 H275 0.950 . S
C262 C259 1.481 . S
C262 C263 1.297 . S
C262 H276 0.950 . S
C263 C262 1.297 . S
C263 C264 1.479 . S
C263 H277 0.950 . S
C264 C263 1.479 . S
C264 C265 1.375 . S
C264 C270 1.404 . S
C265 C264 1.375 . S
C265 C266 1.369 . S
C265 H278 0.950 . S
C266 C265 1.369 . S
C266 C267 1.392 . S
C266 H279 0.951 . S
C267 C266 1.392 . S
C267 C269 1.384 . S
H268 C270 0.949 . S
C269 C267 1.384 . S
C269 C270 1.385 . S
C269 H271 0.950 . S
C270 C264 1.404 . S
C270 H268 0.949 . S
C270 C269 1.385 . S
H271 C269 0.950 . S
H272 C256 0.951 . S
H273 C258 0.951 . S
H274 C260 0.951 . S
H275 C261 0.950 . S
H276 C262 0.950 . S
H277 C263 0.950 . S
H278 C265 0.950 . S
H279 C266 0.951 . S
C280 C281 1.386 . S
C280 C282 1.383 . S
C280 H296 0.951 . S
C281 C280 1.386 . S
C281 C285 1.383 . S
C282 C280 1.383 . S
C282 C283 1.402 . S
C282 H297 0.951 . S
C283 C282 1.402 . S
C283 C284 1.375 . S
C283 C286 1.481 1_655 S
C284 C283 1.375 . S
C284 C285 1.367 . S
C284 H298 0.951 1_655 S
C285 C281 1.383 . S
C285 C284 1.367 . S
C285 H299 0.950 . S
C286 C283 1.481 1_455 S
C286 C287 1.296 1_556 S
C286 H300 0.950 . S
C287 C286 1.296 1_554 S
C287 C288 1.478 1_565 S
C287 H301 0.953 1_455 S
C288 C287 1.478 1_545 S
C288 C289 1.375 . S
C288 C294 1.404 . S
C289 C288 1.375 . S
C289 C290 1.369 . S
C289 H302 0.950 1_455 S
C290 C289 1.369 . S
C290 C291 1.392 . S
C290 H303 0.951 . S
C291 C290 1.392 . S
C291 C293 1.384 . S
H292 C294 0.949 1_565 S
C293 C291 1.384 . S
C293 C294 1.385 . S
C293 H295 0.950 . S
C294 C288 1.404 . S
C294 H292 0.949 1_545 S
C294 C293 1.385 . S
H295 C293 0.950 . S
H296 C280 0.951 . S
H297 C282 0.951 . S
H298 C284 0.951 1_455 S
H299 C285 0.950 . S
H300 C286 0.950 . S
H301 C287 0.953 1_655 S
H302 C289 0.950 1_655 S
H303 C290 0.951 . S
C304 C305 1.386 . S
C304 C306 1.383 . S
C304 H320 0.951 . S
C305 C304 1.386 . S
C305 C309 1.383 . S
C306 C304 1.383 . S
C306 C307 1.402 . S
C306 H321 0.951 . S
C307 C306 1.402 . S
C307 C308 1.375 . S
C307 C310 1.481 1_565 S
C308 C307 1.375 . S
C308 C309 1.367 . S
C308 H322 0.951 1_565 S
C309 C305 1.383 . S
C309 C308 1.367 . S
C309 H323 0.950 . S
C310 C307 1.481 1_545 S
C310 C311 1.297 1_544 S
C310 H324 0.950 . S
C311 C310 1.297 1_566 S
C311 C312 1.479 1_565 S
C311 H325 0.950 . S
C312 C311 1.479 1_545 S
C312 C313 1.375 . S
C312 C318 1.404 . S
C313 C312 1.375 . S
C313 C314 1.369 . S
C313 H326 0.950 1_545 S
C314 C313 1.369 . S
C314 C315 1.392 . S
C314 H327 0.951 . S
C315 C314 1.392 . S
C315 C317 1.384 . S
H316 C318 0.949 . S
C317 C315 1.384 . S
C317 C318 1.385 . S
C317 H319 0.950 . S
C318 C312 1.404 . S
C318 H316 0.949 . S
C318 C317 1.385 . S
H319 C317 0.950 . S
H320 C304 0.951 . S
H321 C306 0.951 . S
H322 C308 0.951 1_545 S
H323 C309 0.950 . S
H324 C310 0.950 . S
H325 C311 0.950 . S
H326 C313 0.950 1_565 S
H327 C314 0.951 . S
C328 C329 1.386 . S
C328 C330 1.383 . S
C328 H344 0.951 . S
C329 C328 1.386 . S
C329 C333 1.383 . S
C330 C328 1.383 . S
C330 C331 1.402 . S
C330 H345 0.951 . S
C331 C330 1.402 . S
C331 C332 1.375 . S
C331 C334 1.481 . S
C332 C331 1.375 . S
C332 C333 1.367 . S
C332 H346 0.951 . S
C333 C329 1.383 . S
C333 C332 1.367 . S
C333 H347 0.950 . S
C334 C331 1.481 . S
C334 C335 1.297 . S
C334 H348 0.950 1_655 S
C335 C334 1.297 . S
C335 C336 1.479 1_655 S
C335 H349 0.950 . S
C336 C335 1.479 1_455 S
C336 C337 1.375 . S
C336 C342 1.404 . S
C337 C336 1.375 . S
C337 C338 1.369 . S
C337 H350 0.923 1_455 S
C338 C337 1.369 . S
C338 C339 1.392 . S
C338 H351 0.951 . S
C339 C338 1.392 . S
C339 C341 1.384 . S
H340 C342 0.949 . S
C341 C339 1.384 . S
C341 C342 1.385 . S
C341 H343 0.950 . S
C342 C336 1.404 . S
C342 H340 0.949 . S
C342 C341 1.385 . S
H343 C341 0.950 . S
H344 C328 0.951 . S
H345 C330 0.951 . S
H346 C332 0.951 . S
H347 C333 0.950 . S
H348 C334 0.950 1_455 S
H349 C335 0.950 . S
H350 C337 0.923 1_655 S
H351 C338 0.951 . S
C352 C353 1.386 . S
C352 C354 1.383 . S
C352 H368 0.951 . S
C353 C352 1.386 . S
C353 C357 1.383 . S
C354 C352 1.383 . S
C354 C355 1.402 . S
C354 H369 0.951 . S
C355 C354 1.402 . S
C355 C356 1.375 . S
C355 C358 1.481 . S
C356 C355 1.375 . S
C356 C357 1.367 . S
C356 H370 0.951 . S
C357 C353 1.383 . S
C357 C356 1.367 . S
C357 H371 0.950 . S
C358 C355 1.481 . S
C358 C359 1.297 . S
C358 H372 0.950 . S
C359 C358 1.297 . S
C359 C360 1.479 . S
C359 H373 0.950 . S
C360 C359 1.479 . S
C360 C361 1.375 . S
C360 C366 1.404 . S
C361 C360 1.375 . S
C361 C362 1.369 . S
C361 H374 0.950 . S
C362 C361 1.369 . S
C362 C363 1.392 . S
C362 H375 0.951 . S
C363 C362 1.392 . S
C363 C365 1.384 . S
H364 C366 0.949 . S
C365 C363 1.384 . S
C365 C366 1.385 . S
C365 H367 0.950 . S
C366 C360 1.404 . S
C366 H364 0.949 . S
C366 C365 1.385 . S
H367 C365 0.950 . S
H368 C352 0.951 . S
H369 C354 0.951 . S
H370 C356 0.951 . S
H371 C357 0.950 . S
H372 C358 0.950 . S
H373 C359 0.950 . S
H374 C361 0.950 . S
H375 C362 0.951 . S
C89 C8 1.477 . S
C99 C30 1.455 . S
C113 C19 1.474 . S
C123 C41 1.471 . S
C137 C52 1.491 . S
C147 C74 1.469 . S
C161 C85 1.486 . S
C171 C63 1.475 . S
C185 C18 1.457 . S
C195 C7 1.399 . S
C209 C40 1.432 . S
C219 C29 1.483 . S
C233 C62 1.439 . S
C243 C51 1.409 . S
C257 C84 1.484 . S
C267 C73 1.484 . S
C281 C49 1.335 . S
C291 C5 1.346 . S
C305 C16 1.260 . S
C315 C60 1.243 . S
C329 C71 1.362 . S
C339 C27 1.371 . S
C353 C38 1.287 . S
C363 C82 1.331 . S
