# Generated by pormake.
# Topology uki, (4)-cn, num edge types: 1
# Building blocks:
#     Node 0, Type 0, BuildingBlock: MUDLON_clean_sbu_0, # of connection points: 4
#     Node 1, Type 0, BuildingBlock: MUDLON_clean_sbu_0, # of connection points: 4
#     Node 2, Type 0, BuildingBlock: MUDLON_clean_sbu_0, # of connection points: 4
#     Node 3, Type 0, BuildingBlock: MUDLON_clean_sbu_0, # of connection points: 4
#     Node 4, Type 0, BuildingBlock: MUDLON_clean_sbu_0, # of connection points: 4
#     Node 5, Type 0, BuildingBlock: MUDLON_clean_sbu_0, # of connection points: 4
#     Node 6, Type 0, BuildingBlock: MUDLON_clean_sbu_0, # of connection points: 4
#     Node 7, Type 0, BuildingBlock: MUDLON_clean_sbu_0, # of connection points: 4
#     Node 8, Type 0, BuildingBlock: MUDLON_clean_sbu_0, # of connection points: 4
#     Node 9, Type 0, BuildingBlock: MUDLON_clean_sbu_0, # of connection points: 4
#     Node 10, Type 0, BuildingBlock: MUDLON_clean_sbu_0, # of connection points: 4
#     Node 11, Type 0, BuildingBlock: MUDLON_clean_sbu_0, # of connection points: 4
#     Node 12, Type 0, BuildingBlock: MUDLON_clean_sbu_0, # of connection points: 4
#     Node 13, Type 0, BuildingBlock: MUDLON_clean_sbu_0, # of connection points: 4
#     Node 14, Type 0, BuildingBlock: MUDLON_clean_sbu_0, # of connection points: 4
#     Node 15, Type 0, BuildingBlock: MUDLON_clean_sbu_0, # of connection points: 4
#     Edge 16, Type (0, 0), BuildingBlock: MIFKUJ_clean_linker_0, # of connection points: 2
#     Edge 17, Type (0, 0), BuildingBlock: MIFKUJ_clean_linker_0, # of connection points: 2
#     Edge 18, Type (0, 0), BuildingBlock: MIFKUJ_clean_linker_0, # of connection points: 2
#     Edge 19, Type (0, 0), BuildingBlock: MIFKUJ_clean_linker_0, # of connection points: 2
#     Edge 20, Type (0, 0), BuildingBlock: MIFKUJ_clean_linker_0, # of connection points: 2
#     Edge 21, Type (0, 0), BuildingBlock: MIFKUJ_clean_linker_0, # of connection points: 2
#     Edge 22, Type (0, 0), BuildingBlock: MIFKUJ_clean_linker_0, # of connection points: 2
#     Edge 23, Type (0, 0), BuildingBlock: MIFKUJ_clean_linker_0, # of connection points: 2
#     Edge 24, Type (0, 0), BuildingBlock: MIFKUJ_clean_linker_0, # of connection points: 2
#     Edge 25, Type (0, 0), BuildingBlock: MIFKUJ_clean_linker_0, # of connection points: 2
#     Edge 26, Type (0, 0), BuildingBlock: MIFKUJ_clean_linker_0, # of connection points: 2
#     Edge 27, Type (0, 0), BuildingBlock: MIFKUJ_clean_linker_0, # of connection points: 2
#     Edge 28, Type (0, 0), BuildingBlock: MIFKUJ_clean_linker_0, # of connection points: 2
#     Edge 29, Type (0, 0), BuildingBlock: MIFKUJ_clean_linker_0, # of connection points: 2
#     Edge 30, Type (0, 0), BuildingBlock: MIFKUJ_clean_linker_0, # of connection points: 2
#     Edge 31, Type (0, 0), BuildingBlock: MIFKUJ_clean_linker_0, # of connection points: 2
#     Edge 32, Type (0, 0), BuildingBlock: MIFKUJ_clean_linker_0, # of connection points: 2
#     Edge 33, Type (0, 0), BuildingBlock: MIFKUJ_clean_linker_0, # of connection points: 2
#     Edge 34, Type (0, 0), BuildingBlock: MIFKUJ_clean_linker_0, # of connection points: 2
#     Edge 35, Type (0, 0), BuildingBlock: MIFKUJ_clean_linker_0, # of connection points: 2
#     Edge 36, Type (0, 0), BuildingBlock: MIFKUJ_clean_linker_0, # of connection points: 2
#     Edge 37, Type (0, 0), BuildingBlock: MIFKUJ_clean_linker_0, # of connection points: 2
#     Edge 38, Type (0, 0), BuildingBlock: MIFKUJ_clean_linker_0, # of connection points: 2
#     Edge 39, Type (0, 0), BuildingBlock: MIFKUJ_clean_linker_0, # of connection points: 2
#     Edge 40, Type (0, 0), BuildingBlock: MIFKUJ_clean_linker_0, # of connection points: 2
#     Edge 41, Type (0, 0), BuildingBlock: MIFKUJ_clean_linker_0, # of connection points: 2
#     Edge 42, Type (0, 0), BuildingBlock: MIFKUJ_clean_linker_0, # of connection points: 2
#     Edge 43, Type (0, 0), BuildingBlock: MIFKUJ_clean_linker_0, # of connection points: 2
#     Edge 44, Type (0, 0), BuildingBlock: MIFKUJ_clean_linker_0, # of connection points: 2
#     Edge 45, Type (0, 0), BuildingBlock: MIFKUJ_clean_linker_0, # of connection points: 2
#     Edge 46, Type (0, 0), BuildingBlock: MIFKUJ_clean_linker_0, # of connection points: 2
#     Edge 47, Type (0, 0), BuildingBlock: MIFKUJ_clean_linker_0, # of connection points: 2
# Relax obj value: 0.065
# Max RMSD: 0.231
# Mean RMSD: 0.231
data_MOF--net-uki--node1-MUDLON_clean_sbu_0--edge1-MIFKUJ_clean_linker_0
_symmetry_space_group_name_H-M    P1
_symmetry_Int_Tables_number       1
_symmetry_cell_setting            triclinic
loop_
_symmetry_equiv_pos_as_xyz
'x, y, z'
_cell_length_a     42.401974
_cell_length_b     42.595463
_cell_length_c     94.310783
_cell_angle_alpha  89.851449
_cell_angle_beta   89.863927
_cell_angle_gamma 90.109261
loop_
_atom_site_label
_atom_site_type_symbol
_atom_site_fract_x
_atom_site_fract_y
_atom_site_fract_z
_atom_type_partial_charge
Mg0 Mg 0.10153 0.23293 0.30503 0.0
C1 C 0.03693 0.27088 0.30909 0.0
O2 O 0.04856 0.28546 0.32017 0.0
C3 C 0.1519 0.25172 0.32648 0.0
O4 O 0.16336 0.26524 0.31505 0.0
C5 C 0.1239 0.28942 0.29052 0.0
O6 O 0.10726 0.29944 0.30137 0.0
O7 O 0.12707 0.25992 0.2889 0.0
O8 O 0.05336 0.25029 0.30272 0.0
O9 O 0.09535 0.183 0.30059 0.0
C10 C 0.07969 0.16876 0.31019 0.0
O11 O 0.07153 0.18455 0.32158 0.0
O12 O 0.12546 0.23748 0.3257 0.0
Mg13 Mg 0.23557 0.92678 0.70815 0.0
C14 C 0.25705 0.98695 0.71973 0.0
O15 O 0.23723 0.97577 0.72922 0.0
C16 C 0.21753 0.88531 0.6833 0.0
O17 O 0.18982 0.88932 0.68927 0.0
C18 C 0.27098 0.87469 0.72283 0.0
O19 O 0.26948 0.86357 0.70987 0.0
O20 O 0.25648 0.90007 0.72565 0.0
O21 O 0.26183 0.97105 0.70851 0.0
O22 O 0.18577 0.93979 0.71062 0.0
C23 C 0.16961 0.93863 0.722 0.0
O24 O 0.18262 0.92747 0.73359 0.0
O25 O 0.24134 0.89937 0.68854 0.0
Mg26 Mg 0.92843 0.79336 0.30262 0.0
C27 C 0.99376 0.78423 0.29334 0.0
O28 O 0.98299 0.80751 0.2856 0.0
C29 C 0.88827 0.7667 0.32773 0.0
O30 O 0.89417 0.73929 0.32196 0.0
C31 C 0.87514 0.75977 0.28668 0.0
O32 O 0.85829 0.76924 0.29755 0.0
O33 O 0.9039 0.7681 0.28577 0.0
O34 O 0.97562 0.7723 0.30272 0.0
O35 O 0.93633 0.84307 0.2978 0.0
C36 C 0.94158 0.86129 0.30821 0.0
O37 O 0.93949 0.84991 0.32114 0.0
O38 O 0.90055 0.79128 0.32231 0.0
Mg39 Mg 0.79471 0.09516 0.71046 0.0
C40 C 0.7827 0.024 0.70966 0.0
O41 O 0.81343 0.02288 0.70798 0.0
C42 C 0.79374 0.15292 0.69221 0.0
O43 O 0.79927 0.16463 0.70484 0.0
C44 C 0.75607 0.10629 0.73699 0.0
O45 O 0.75916 0.07564 0.73765 0.0
O46 O 0.77071 0.12128 0.72729 0.0
O47 O 0.76906 0.0506 0.7098 0.0
O48 O 0.84487 0.08514 0.7139 0.0
C49 C 0.8556 0.0706 0.72467 0.0
O50 O 0.83613 0.06281 0.73495 0.0
O51 O 0.79036 0.1233 0.69103 0.0
Mg52 Mg 0.10066 0.29115 0.95876 0.0
C53 C 0.04839 0.24133 0.95812 0.0
O54 O 0.07246 0.22213 0.95691 0.0
C55 C 0.15423 0.30074 0.93856 0.0
O56 O 0.16181 0.31914 0.94919 0.0
C57 C 0.11213 0.25194 0.98549 0.0
O58 O 0.08157 0.25579 0.98698 0.0
O59 O 0.12628 0.26576 0.9753 0.0
O60 O 0.05343 0.27077 0.95811 0.0
O61 O 0.09374 0.34129 0.96281 0.0
C62 C 0.07004 0.35012 0.9701 0.0
O63 O 0.05192 0.32865 0.97598 0.0
O64 O 0.12833 0.28558 0.93924 0.0
Mg65 Mg 0.29737 0.9245 0.04968 0.0
C66 C 0.28069 0.98985 0.04199 0.0
O67 O 0.30516 0.9838 0.03389 0.0
C68 C 0.27299 0.88215 0.07408 0.0
O69 O 0.24589 0.88568 0.06754 0.0
C70 C 0.26775 0.86953 0.03322 0.0
O71 O 0.27955 0.85273 0.04362 0.0
O72 O 0.2733 0.89888 0.03279 0.0
O73 O 0.27159 0.96893 0.05078 0.0
O74 O 0.34627 0.93678 0.04448 0.0
C75 C 0.36342 0.94711 0.05451 0.0
O76 O 0.35147 0.94806 0.06737 0.0
O77 O 0.29722 0.89641 0.06929 0.0
Mg78 Mg 0.92692 0.73017 0.96032 0.0
C79 C 0.9905 0.74213 0.97088 0.0
O80 O 0.97796 0.72196 0.97984 0.0
C81 C 0.87756 0.71651 0.93836 0.0
O82 O 0.87361 0.69312 0.9473 0.0
C83 C 0.87455 0.76445 0.97647 0.0
O84 O 0.85786 0.75598 0.9654 0.0
O85 O 0.90298 0.7552 0.97746 0.0
O86 O 0.97405 0.75109 0.96033 0.0
O87 O 0.93504 0.68007 0.96426 0.0
C88 C 0.95701 0.66787 0.95687 0.0
O89 O 0.97139 0.68551 0.9474 0.0
O90 O 0.89954 0.73625 0.94075 0.0
Mg91 Mg 0.73816 0.09912 0.05277 0.0
C92 C 0.74455 0.02842 0.05053 0.0
O93 O 0.71376 0.03119 0.04993 0.0
C94 C 0.72178 0.14161 0.07738 0.0
O95 O 0.69378 0.13664 0.07189 0.0
C96 C 0.77575 0.10892 0.02588 0.0
O97 O 0.77328 0.07818 0.02594 0.0
O98 O 0.76113 0.1245 0.03533 0.0
O99 O 0.76106 0.0528 0.05303 0.0
O100 O 0.68732 0.09121 0.05031 0.0
C101 C 0.67289 0.08459 0.03888 0.0
O102 O 0.68867 0.08419 0.02687 0.0
O103 O 0.74549 0.12778 0.07191 0.0
Mg104 Mg 0.60042 0.73016 0.80425 0.0
C105 C 0.5382 0.74318 0.79259 0.0
O106 O 0.55181 0.72367 0.78372 0.0
C107 C 0.64959 0.75252 0.82565 0.0
O108 O 0.65598 0.772 0.81521 0.0
C109 C 0.61881 0.78326 0.78534 0.0
O110 O 0.59574 0.79521 0.7929 0.0
O111 O 0.62693 0.75491 0.78764 0.0
O112 O 0.55323 0.75108 0.80371 0.0
O113 O 0.59247 0.68034 0.7997 0.0
C114 C 0.5701 0.66752 0.80668 0.0
O115 O 0.55492 0.6845 0.81609 0.0
O116 O 0.62655 0.73349 0.82431 0.0
Mg117 Mg 0.73662 0.42309 0.21003 0.0
C118 C 0.75473 0.48242 0.22229 0.0
O119 O 0.73432 0.46936 0.23102 0.0
C120 C 0.72007 0.37888 0.18606 0.0
O121 O 0.69327 0.37971 0.19305 0.0
C122 C 0.77666 0.37544 0.2249 0.0
O123 O 0.7818 0.36847 0.21153 0.0
O124 O 0.75645 0.39655 0.2278 0.0
O125 O 0.76216 0.46759 0.21106 0.0
O126 O 0.68757 0.43839 0.21241 0.0
C127 C 0.66384 0.42359 0.21731 0.0
O128 O 0.66724 0.39455 0.22177 0.0
O129 O 0.74284 0.39591 0.19036 0.0
Mg130 Mg 0.43043 0.28933 0.80344 0.0
C131 C 0.48105 0.23774 0.80277 0.0
O132 O 0.45661 0.21891 0.80398 0.0
C133 C 0.37994 0.2677 0.82435 0.0
O134 O 0.37286 0.24976 0.8135 0.0
C135 C 0.41579 0.25479 0.77584 0.0
O136 O 0.44563 0.26095 0.77325 0.0
O137 O 0.40318 0.26548 0.78709 0.0
O138 O 0.47682 0.26728 0.80326 0.0
O139 O 0.43874 0.33922 0.79924 0.0
C140 C 0.4628 0.34799 0.79214 0.0
O141 O 0.48103 0.32653 0.78643 0.0
O142 O 0.40398 0.28562 0.82346 0.0
Mg143 Mg 0.29695 0.60381 0.20838 0.0
C144 C 0.26469 0.55103 0.2221 0.0
O145 O 0.27655 0.56764 0.23253 0.0
C146 C 0.31236 0.65049 0.18511 0.0
O147 O 0.33795 0.6524 0.19289 0.0
C148 C 0.26528 0.6586 0.22394 0.0
O149 O 0.26977 0.67285 0.21173 0.0
O150 O 0.27646 0.63118 0.22573 0.0
O151 O 0.26918 0.56045 0.20942 0.0
O152 O 0.34653 0.59025 0.2116 0.0
C153 C 0.35353 0.56148 0.20965 0.0
O154 O 0.33114 0.54199 0.20578 0.0
O155 O 0.29102 0.63089 0.1887 0.0
Mg156 Mg 0.60054 0.7893 0.45821 0.0
C157 C 0.54346 0.75232 0.46804 0.0
O158 O 0.56346 0.74567 0.47821 0.0
C159 C 0.64509 0.80571 0.43391 0.0
O160 O 0.64531 0.83249 0.4408 0.0
C161 C 0.62989 0.73355 0.47041 0.0
O162 O 0.61796 0.72451 0.45823 0.0
O163 O 0.62717 0.76228 0.4739 0.0
O164 O 0.5525 0.76961 0.45775 0.0
O165 O 0.59431 0.83924 0.46299 0.0
C166 C 0.57014 0.84791 0.47 0.0
O167 O 0.55127 0.82633 0.47528 0.0
O168 O 0.62718 0.7837 0.43835 0.0
Mg169 Mg 0.79272 0.41693 0.55145 0.0
C170 C 0.74226 0.46596 0.54658 0.0
O171 O 0.72643 0.44057 0.54314 0.0
C172 C 0.7919 0.36144 0.57083 0.0
O173 O 0.79367 0.34863 0.55819 0.0
C174 C 0.76625 0.39033 0.5229 0.0
O175 O 0.78642 0.40921 0.51658 0.0
O176 O 0.76587 0.38865 0.53637 0.0
O177 O 0.76996 0.46296 0.55157 0.0
O178 O 0.84181 0.42695 0.54578 0.0
C179 C 0.85664 0.44326 0.55491 0.0
O180 O 0.842 0.45074 0.56672 0.0
O181 O 0.79112 0.3913 0.57169 0.0
Mg182 Mg 0.42585 0.22799 0.46165 0.0
C183 C 0.49221 0.25997 0.45534 0.0
O184 O 0.48881 0.25263 0.4419 0.0
C185 C 0.37646 0.21544 0.44012 0.0
O186 O 0.36999 0.19522 0.45027 0.0
C187 C 0.38911 0.27913 0.47319 0.0
O188 O 0.40003 0.28886 0.46088 0.0
O189 O 0.39561 0.25127 0.47712 0.0
O190 O 0.4705 0.2531 0.46415 0.0
O191 O 0.43611 0.17842 0.4659 0.0
C192 C 0.46031 0.16761 0.45955 0.0
O193 O 0.4761 0.18637 0.45103 0.0
O194 O 0.40079 0.23281 0.44143 0.0
Mg195 Mg 0.22777 0.60413 0.55051 0.0
C196 C 0.25659 0.54875 0.53713 0.0
O197 O 0.25195 0.56877 0.52674 0.0
C198 C 0.21304 0.65042 0.57347 0.0
O199 O 0.18753 0.65143 0.56561 0.0
C200 C 0.25506 0.65861 0.53108 0.0
O201 O 0.23816 0.67866 0.53842 0.0
O202 O 0.25283 0.62939 0.53369 0.0
O203 O 0.24911 0.55705 0.54968 0.0
O204 O 0.17703 0.59611 0.54755 0.0
C205 C 0.1657 0.58026 0.53731 0.0
O206 O 0.18469 0.57073 0.52719 0.0
O207 O 0.23483 0.63126 0.57007 0.0
H208 H 0.15161 0.27924 0.2644 0.0
H209 H 0.17327 0.3191 0.24815 0.0
H210 H 0.15112 0.39139 0.27854 0.0
H211 H 0.129 0.35224 0.29447 0.0
H212 H 0.1334 0.40962 0.25344 0.0
H213 H 0.22767 0.36142 0.27307 0.0
H214 H 0.2638 0.31732 0.27783 0.0
H215 H 0.27424 0.30161 0.2331 0.0
H216 H 0.23785 0.34542 0.2281 0.0
H217 H 0.23621 0.53633 0.24694 0.0
H218 H 0.20985 0.48758 0.25353 0.0
H219 H 0.22756 0.4502 0.21182 0.0
H220 H 0.25394 0.49967 0.205 0.0
H221 H 0.24405 0.40908 0.23625 0.0
H222 H 0.1567 0.46608 0.2175 0.0
H223 H 0.12286 0.51247 0.21406 0.0
H224 H 0.10094 0.51332 0.25853 0.0
H225 H 0.13503 0.46721 0.26228 0.0
C226 C 0.1515 0.30364 0.26759 0.0
C227 C 0.13849 0.31256 0.28071 0.0
C228 C 0.16392 0.3264 0.25831 0.0
C229 C 0.16387 0.35834 0.2621 0.0
C230 C 0.1512 0.36701 0.27528 0.0
C231 C 0.13863 0.34449 0.28443 0.0
C232 C 0.17669 0.38325 0.25257 0.0
C233 C 0.1576 0.40941 0.24968 0.0
C234 C 0.20793 0.38267 0.24721 0.0
C235 C 0.22974 0.35638 0.25022 0.0
C236 C 0.23747 0.34838 0.26426 0.0
C237 C 0.25803 0.32348 0.267 0.0
C238 C 0.27122 0.3066 0.25577 0.0
C239 C 0.26395 0.31465 0.24179 0.0
C240 C 0.24337 0.33951 0.23899 0.0
C241 C 0.23439 0.51788 0.2391 0.0
C242 C 0.24712 0.52186 0.22544 0.0
C243 C 0.21925 0.49003 0.24288 0.0
C244 C 0.21668 0.46534 0.23316 0.0
C245 C 0.2293 0.46905 0.21947 0.0
C246 C 0.24415 0.49732 0.21557 0.0
C247 C 0.20111 0.43576 0.23772 0.0
C248 C 0.2196 0.4088 0.23967 0.0
C249 C 0.16941 0.43568 0.24239 0.0
C250 C 0.14854 0.46322 0.24017 0.0
C251 C 0.14482 0.47626 0.22656 0.0
C252 C 0.12557 0.5025 0.22455 0.0
C253 C 0.10978 0.51585 0.23607 0.0
C254 C 0.11316 0.50294 0.24961 0.0
C255 C 0.13241 0.47672 0.25168 0.0
H256 H 0.0949 0.53617 0.23449 0.0
H257 H 0.28714 0.28734 0.25791 0.0
H258 H 0.49954 0.72512 0.77123 0.0
H259 H 0.45181 0.75061 0.76287 0.0
H260 H 0.45838 0.81836 0.79662 0.0
H261 H 0.50676 0.79267 0.80519 0.0
H262 H 0.39457 0.79693 0.7906 0.0
H263 H 0.48268 0.84184 0.7666 0.0
H264 H 0.5332 0.84152 0.7536 0.0
H265 H 0.49003 0.79065 0.71951 0.0
H266 H 0.43936 0.79016 0.73241 0.0
H267 H 0.28778 0.89609 0.74934 0.0
H268 H 0.33036 0.87607 0.76446 0.0
H269 H 0.34769 0.80171 0.73452 0.0
H270 H 0.30549 0.82135 0.71945 0.0
H271 H 0.40117 0.83476 0.74086 0.0
H272 H 0.31413 0.78648 0.76621 0.0
H273 H 0.26402 0.78666 0.77953 0.0
H274 H 0.30544 0.84585 0.81125 0.0
H275 H 0.35571 0.84636 0.79801 0.0
C276 C 0.49083 0.74526 0.77701 0.0
C277 C 0.50724 0.75707 0.7888 0.0
C278 C 0.46345 0.75981 0.7722 0.0
C279 C 0.45178 0.78664 0.77899 0.0
C280 C 0.46706 0.7977 0.79121 0.0
C281 C 0.49469 0.78304 0.79607 0.0
C282 C 0.42492 0.80385 0.77252 0.0
C283 C 0.3961 0.80581 0.77983 0.0
C284 C 0.4269 0.81524 0.75844 0.0
C285 C 0.45725 0.81579 0.75053 0.0
C286 C 0.484 0.83039 0.75637 0.0
C287 C 0.51267 0.83037 0.74902 0.0
C288 C 0.51483 0.81603 0.73575 0.0
C289 C 0.48832 0.80174 0.72979 0.0
C290 C 0.4596 0.80162 0.73712 0.0
C291 C 0.30029 0.87514 0.74611 0.0
C292 C 0.29331 0.86047 0.73312 0.0
C293 C 0.32463 0.86374 0.75477 0.0
C294 C 0.34235 0.83748 0.75058 0.0
C295 C 0.33451 0.82213 0.73792 0.0
C296 C 0.31024 0.83338 0.72933 0.0
C297 C 0.37042 0.82691 0.75873 0.0
C298 C 0.39963 0.82633 0.75171 0.0
C299 C 0.36873 0.81709 0.77308 0.0
C300 C 0.33854 0.81678 0.78103 0.0
C301 C 0.31246 0.79978 0.77595 0.0
C302 C 0.28405 0.7997 0.7835 0.0
C303 C 0.28151 0.81634 0.7962 0.0
C304 C 0.30742 0.83302 0.8014 0.0
C305 C 0.33587 0.8332 0.79388 0.0
H306 H 0.2595 0.81624 0.80204 0.0
H307 H 0.53705 0.81605 0.73007 0.0
H308 H 0.73705 0.52062 0.24387 0.0
H309 H 0.75891 0.57124 0.25047 0.0
H310 H 0.82474 0.56632 0.21563 0.0
H311 H 0.80283 0.5149 0.20888 0.0
H312 H 0.85275 0.5847 0.24109 0.0
H313 H 0.76458 0.61621 0.21322 0.0
H314 H 0.7092 0.61556 0.20531 0.0
H315 H 0.67884 0.64447 0.24672 0.0
H316 H 0.73399 0.64486 0.25495 0.0
H317 H 0.90157 0.73791 0.26201 0.0
H318 H 0.88227 0.69526 0.24698 0.0
H319 H 0.80076 0.68481 0.27407 0.0
H320 H 0.81933 0.72796 0.28881 0.0
H321 H 0.78361 0.67736 0.24781 0.0
H322 H 0.86894 0.63705 0.27669 0.0
H323 H 0.92352 0.63562 0.28568 0.0
H324 H 0.95832 0.62167 0.24337 0.0
H325 H 0.90393 0.62341 0.23412 0.0
C326 C 0.75611 0.53019 0.23751 0.0
C327 C 0.76815 0.51365 0.2258 0.0
C328 C 0.76848 0.55932 0.24129 0.0
C329 C 0.79317 0.57282 0.23344 0.0
C330 C 0.80554 0.55639 0.22178 0.0
C331 C 0.79297 0.5271 0.21792 0.0
C332 C 0.80627 0.60365 0.2379 0.0
C333 C 0.83786 0.60523 0.24224 0.0
C334 C 0.78668 0.63025 0.23967 0.0
C335 C 0.75346 0.63043 0.23472 0.0
C336 C 0.74609 0.62226 0.22066 0.0
C337 C 0.71473 0.62196 0.21612 0.0
C338 C 0.69051 0.62994 0.22551 0.0
C339 C 0.69762 0.63831 0.23945 0.0
C340 C 0.72893 0.63863 0.24406 0.0
C341 C 0.87933 0.72678 0.26466 0.0
C342 C 0.8621 0.73625 0.27668 0.0
C343 C 0.86841 0.70224 0.25609 0.0
C344 C 0.84033 0.68632 0.25952 0.0
C345 C 0.82252 0.69662 0.27119 0.0
C346 C 0.83321 0.72133 0.27964 0.0
C347 C 0.82987 0.65818 0.2514 0.0
C348 C 0.79873 0.65709 0.24639 0.0
C349 C 0.8498 0.63195 0.24914 0.0
C350 C 0.88244 0.63074 0.2547 0.0
C351 C 0.88826 0.6339 0.2693 0.0
C352 C 0.91915 0.633 0.27444 0.0
C353 C 0.94438 0.62866 0.26509 0.0
C354 C 0.93876 0.6251 0.25059 0.0
C355 C 0.90792 0.62603 0.24539 0.0
H356 H 0.96827 0.62798 0.26909 0.0
H357 H 0.66625 0.62966 0.22197 0.0
H358 H 0.53082 0.2697 0.79121 0.0
H359 H 0.57991 0.2479 0.78185 0.0
H360 H 0.55151 0.15544 0.79552 0.0
H361 H 0.50181 0.17695 0.80468 0.0
H362 H 0.61906 0.17412 0.80089 0.0
H363 H 0.54096 0.16552 0.76418 0.0
H364 H 0.49841 0.18577 0.74893 0.0
H365 H 0.56177 0.25443 0.73136 0.0
H366 H 0.60458 0.23494 0.74672 0.0
H367 H 0.72053 0.08044 0.75823 0.0
H368 H 0.67689 0.1044 0.77113 0.0
H369 H 0.69323 0.19187 0.74915 0.0
H370 H 0.73681 0.16785 0.736 0.0
H371 H 0.63199 0.17658 0.74857 0.0
H372 H 0.7112 0.18305 0.78455 0.0
H373 H 0.75313 0.16345 0.80031 0.0
H374 H 0.68784 0.09889 0.81953 0.0
H375 H 0.64559 0.11781 0.80375 0.0
C376 C 0.53514 0.24479 0.79243 0.0
C377 C 0.51234 0.22504 0.79868 0.0
C378 C 0.5632 0.23238 0.78704 0.0
C379 C 0.56926 0.20008 0.78796 0.0
C380 C 0.54726 0.18046 0.79474 0.0
C381 C 0.51888 0.19277 0.79993 0.0
C382 C 0.59766 0.18671 0.78102 0.0
C383 C 0.62182 0.17426 0.78945 0.0
C384 C 0.60141 0.18755 0.76613 0.0
C385 C 0.57588 0.19901 0.75671 0.0
C386 C 0.54575 0.18512 0.75716 0.0
C387 C 0.5216 0.19642 0.74848 0.0
C388 C 0.52736 0.22142 0.73921 0.0
C389 C 0.55733 0.2351 0.73856 0.0
C390 C 0.58155 0.22393 0.74725 0.0
C391 C 0.71519 0.10491 0.75626 0.0
C392 C 0.73225 0.12219 0.74605 0.0
C393 C 0.69021 0.11863 0.76369 0.0
C394 C 0.68179 0.15003 0.7612 0.0
C395 C 0.69924 0.1676 0.75127 0.0
C396 C 0.7243 0.15388 0.74381 0.0
C397 C 0.65378 0.16391 0.76841 0.0
C398 C 0.62949 0.17646 0.76002 0.0
C399 C 0.64995 0.16307 0.78335 0.0
C400 C 0.6753 0.15166 0.79287 0.0
C401 C 0.70584 0.1645 0.79206 0.0
C402 C 0.72966 0.15354 0.80101 0.0
C403 C 0.72318 0.12988 0.81089 0.0
C404 C 0.69284 0.11719 0.81186 0.0
C405 C 0.66894 0.12804 0.80293 0.0
H406 H 0.74165 0.12144 0.81781 0.0
H407 H 0.50863 0.23015 0.7325 0.0
H408 H 0.29959 0.04122 0.02702 0.0
H409 H 0.2691 0.08782 0.02113 0.0
H410 H 0.19079 0.05251 0.04574 0.0
H411 H 0.22134 1.0053 0.05166 0.0
H412 H 0.17246 0.07232 0.01955 0.0
H413 H 0.23267 0.11515 0.05748 0.0
H414 H 0.28066 0.12682 0.07122 0.0
H415 H 0.31877 0.17852 0.03597 0.0
H416 H 0.2712 0.16679 0.02194 0.0
H417 H 0.08747 0.21345 0.00605 0.0
H418 H 0.11418 0.17132 0.01892 0.0
H419 H 0.20141 0.1946 0.99771 0.0
H420 H 0.17496 0.23697 0.98491 0.0
H421 H 0.21169 0.18137 0.02515 0.0
H422 H 0.15319 0.13569 0.98675 0.0
H423 H 0.10605 0.12283 0.97266 0.0
H424 H 0.06572 0.07445 0.00837 0.0
H425 H 0.11208 0.08804 0.02284 0.0
C426 C 0.27601 0.04343 0.03135 0.0
C427 C 0.2629 0.01947 0.03981 0.0
C428 C 0.25863 0.07024 0.02801 0.0
C429 C 0.22772 0.07388 0.03308 0.0
C430 C 0.21466 0.05027 0.04175 0.0
C431 C 0.23218 0.02338 0.04518 0.0
C432 C 0.20872 0.10149 0.02854 0.0
C433 C 0.18063 0.09623 0.02106 0.0
C434 C 0.2198 0.13265 0.0302 0.0
C435 C 0.24842 0.1399 0.03862 0.0
C436 C 0.25137 0.12882 0.05262 0.0
C437 C 0.27849 0.13548 0.06047 0.0
C438 C 0.30277 0.15335 0.05447 0.0
C439 C 0.29995 0.16467 0.04061 0.0
C440 C 0.27289 0.15806 0.03271 0.0
C441 C 0.11243 0.20989 1.00424 0.0
C442 C 0.12902 0.22855 0.99438 0.0
C443 C 0.12764 0.18565 0.01157 0.0
C444 C 0.15974 0.17946 0.00915 0.0
C445 C 0.17662 0.19886 0.99974 0.0
C446 C 0.16143 0.22307 0.9924 0.0
C447 C 0.17561 0.15219 0.01599 0.0
C448 C 0.2032 0.15752 0.02385 0.0
C449 C 0.16409 0.12106 0.01464 0.0
C450 C 0.13594 0.11335 0.00597 0.0
C451 C 0.13406 0.12274 0.99168 0.0
C452 C 0.10746 0.11531 0.98361 0.0
C453 C 0.08281 0.09799 0.98963 0.0
C454 C 0.08474 0.08801 1.00373 0.0
C455 C 0.11111 0.0957 0.01189 0.0
H456 H 0.06225 0.09221 0.98337 0.0
H457 H 0.32375 0.15848 0.06056 0.0
H458 H 0.24141 0.89617 0.00953 0.0
H459 H 0.19902 0.87485 0.99485 0.0
H460 H 0.19845 0.79022 0.02007 0.0
H461 H 0.24139 0.81094 0.03449 0.0
H462 H 0.18887 0.77569 0.9934 0.0
H463 H 0.14557 0.85217 0.02576 0.0
H464 H 0.1409 0.90446 0.03674 0.0
H465 H 0.11908 0.94496 0.99619 0.0
H466 H 0.12403 0.89293 0.98494 0.0
H467 H 0.03321 0.71977 0.98978 0.0
H468 H 0.0842 0.74192 0.99606 0.0
H469 H 0.07195 0.81504 0.96484 0.0
H470 H 0.02026 0.79292 0.9585 0.0
H471 H 0.09043 0.83818 0.99061 0.0
H472 H 0.12577 0.75781 0.95928 0.0
H473 H 0.12827 0.70424 0.94951 0.0
H474 H 0.16327 0.66958 0.98924 0.0
H475 H 0.16053 0.72286 0.99934 0.0
C476 C 0.23256 0.87283 0.01183 0.0
C477 C 0.24466 0.85538 0.02327 0.0
C478 C 0.20818 0.86073 1.00346 0.0
C479 C 0.19502 0.83115 0.00651 0.0
C480 C 0.20808 0.81312 0.01751 0.0
C481 C 0.23265 0.82506 0.02579 0.0
C482 C 0.16666 0.81951 0.9988 0.0
C483 C 0.16732 0.78932 0.99284 0.0
C484 C 0.13867 0.83751 0.99773 0.0
C485 C 0.13554 0.86876 1.00449 0.0
C486 C 0.14 0.87228 0.01917 0.0
C487 C 0.13727 0.90185 0.02544 0.0
C488 C 0.1298 0.92804 0.01716 0.0
C489 C 0.12494 0.92467 1.00259 0.0
C490 C 0.12769 0.89515 0.99626 0.0
C491 C 0.04136 0.74042 0.98412 0.0
C492 C 0.02258 0.75463 0.97365 0.0
C493 C 0.0707 0.75296 0.98768 0.0
C494 C 0.08212 0.77997 0.98083 0.0
C495 C 0.06366 0.79408 0.97022 0.0
C496 C 0.03421 0.78138 0.96657 0.0
C497 C 0.11248 0.79416 0.98547 0.0
C498 C 0.11217 0.82479 0.9909 0.0
C499 C 0.14066 0.77642 0.98618 0.0
C500 C 0.14279 0.74436 0.98009 0.0
C501 C 0.13383 0.73875 0.96596 0.0
C502 C 0.13531 0.70842 0.96036 0.0
C503 C 0.14589 0.68352 0.96875 0.0
C504 C 0.1551 0.6889 0.98275 0.0
C505 C 0.15363 0.71917 0.98841 0.0
H506 H 0.14697 0.66005 0.9644 0.0
H507 H 0.1277 0.95092 0.02203 0.0
H508 H 0.81369 0.78477 0.97886 0.0
H509 H 0.79372 0.82758 0.99349 0.0
H510 H 0.88648 0.84123 0.01114 0.0
H511 H 0.90648 0.79772 0.99681 0.0
H512 H 0.8439 0.85016 0.03114 0.0
H513 H 0.85899 0.88867 0.9843 0.0
H514 H 0.85454 0.8901 0.95825 0.0
H515 H 0.75387 0.89785 0.96166 0.0
H516 H 0.75767 0.89606 0.98776 0.0
H517 H 0.80755 0.01239 0.05081 0.0
H518 H 0.83176 0.96531 0.04042 0.0
H519 H 0.73976 0.93095 0.02877 0.0
H520 H 0.71543 0.97718 0.03929 0.0
H521 H 0.78575 0.9345 0.00601 0.0
H522 H 0.77369 0.89548 0.05402 0.0
H523 H 0.7818 0.89703 0.07989 0.0
H524 H 0.88212 0.89437 0.07371 0.0
H525 H 0.8746 0.89326 0.04777 0.0
C526 C 0.82981 0.7966 0.98598 0.0
C527 C 0.86176 0.78795 0.98656 0.0
C528 C 0.81838 0.82124 0.99429 0.0
C529 C 0.83873 0.8382 1.00319 0.0
C530 C 0.87033 0.82867 1.00431 0.0
C531 C 0.88174 0.80377 0.99608 0.0
C532 C 0.82721 0.86655 0.01085 0.0
C533 C 0.83155 0.86877 0.02559 0.0
C534 C 0.81108 0.89099 1.00369 0.0
C535 C 0.8086 0.89195 0.98799 0.0
C536 C 0.83588 0.89043 0.9795 0.0
C537 C 0.83348 0.89135 0.96472 0.0
C538 C 0.80394 0.89402 0.95831 0.0
C539 C 0.77673 0.89577 0.96665 0.0
C540 C 0.779 0.89483 0.98144 0.0
C541 C 0.79246 0.99454 0.04625 0.0
C542 C 0.75953 0.99864 0.04588 0.0
C543 C 0.80633 0.96769 0.04032 0.0
C544 C 0.78752 0.94473 0.03379 0.0
C545 C 0.75469 0.94842 0.03373 0.0
C546 C 0.74083 0.97488 0.03981 0.0
C547 C 0.80185 0.91767 0.02626 0.0
C548 C 0.79816 0.91586 0.01151 0.0
C549 C 0.81908 0.89404 0.03338 0.0
C550 C 0.82359 0.89467 0.04896 0.0
C551 C 0.79749 0.89555 0.05817 0.0
C552 C 0.80197 0.89627 0.07285 0.0
C553 C 0.83246 0.8959 0.07844 0.0
C554 C 0.85852 0.89471 0.06936 0.0
C555 C 0.85416 0.89402 0.05468 0.0
H556 H 0.83588 0.89645 0.08981 0.0
H557 H 0.80217 0.89489 0.94687 0.0
H558 H 0.78768 0.1721 0.02252 0.0
H559 H 0.83061 0.1964 0.00884 0.0
H560 H 0.86015 0.10506 0.99446 0.0
H561 H 0.81736 0.08068 0.00789 0.0
H562 H 0.90883 0.14101 0.00663 0.0
H563 H 0.82595 0.15289 0.97179 0.0
H564 H 0.77393 0.17071 0.96338 0.0
H565 H 0.79919 0.26625 0.97239 0.0
H566 H 0.85122 0.24895 0.98104 0.0
H567 H 0.02898 0.18003 0.95888 0.0
H568 H 0.97928 0.1594 0.96821 0.0
H569 H 0.94679 0.25373 0.97596 0.0
H570 H 0.99615 0.27459 0.96631 0.0
H571 H 0.89874 0.21839 0.96749 0.0
H572 H 0.97843 0.21046 1.00256 0.0
H573 H 0.03025 0.19656 0.01253 0.0
H574 H 1.01089 0.09882 1.0056 0.0
H575 H 0.95913 0.11218 0.99537 0.0
C576 C 0.80301 0.15724 0.01627 0.0
C577 C 0.79908 0.12441 0.01636 0.0
C578 C 0.82752 0.17117 0.00845 0.0
C579 C 0.84863 0.15251 1.00066 0.0
C580 C 0.8442 0.11988 1.00043 0.0
C581 C 0.81959 0.106 0.00809 0.0
C582 C 0.87645 0.16658 0.9934 0.0
C583 C 0.90662 0.15757 0.99793 0.0
C584 C 0.87357 0.18918 0.98245 0.0
C585 C 0.84235 0.19958 0.9772 0.0
C586 C 0.82031 0.17767 0.9721 0.0
C587 C 0.79084 0.18768 0.96726 0.0
C588 C 0.78323 0.21958 0.96739 0.0
C589 C 0.8051 0.24155 0.97232 0.0
C590 C 0.83459 0.23165 0.97718 0.0
C591 C 1.0111 0.19643 0.96235 0.0
C592 C 0.01672 0.22896 0.96195 0.0
C593 C 0.98271 0.18459 0.96776 0.0
C594 C 0.9595 0.20498 0.97308 0.0
C595 C 0.96434 0.23751 0.97198 0.0
C596 C 0.99266 0.2494 0.96647 0.0
C597 C 0.93117 0.19229 0.98052 0.0
C598 C 0.90097 0.20171 0.97614 0.0
C599 C 0.93395 0.17058 0.99186 0.0
C600 C 0.96502 0.16235 0.99806 0.0
C601 C 0.98533 0.18601 1.00305 0.0
C602 C 0.0147 0.17824 0.00875 0.0
C603 C 0.02393 0.14684 0.00965 0.0
C604 C 1.00377 0.12314 1.00487 0.0
C605 C 0.97439 0.1308 0.99912 0.0
H606 H 0.04665 0.14092 0.01411 0.0
H607 H 0.7604 0.22729 0.96364 0.0
H608 H 0.67417 0.77124 0.77101 0.0
H609 H 0.70269 0.80682 0.75493 0.0
H610 H 0.62967 0.87625 0.76009 0.0
H611 H 0.60108 0.84099 0.77593 0.0
H612 H 0.64844 0.87308 0.73283 0.0
H613 H 0.69802 0.88029 0.77889 0.0
H614 H 0.72522 0.85915 0.79993 0.0
H615 H 0.80089 0.82613 0.77359 0.0
H616 H 0.77389 0.84671 0.75236 0.0
H617 H 0.72084 0.01927 0.71785 0.0
H618 H 0.69384 0.97323 0.72743 0.0
H619 H 0.77712 0.91738 0.72031 0.0
H620 H 0.80457 0.96358 0.71095 0.0
H621 H 0.75593 0.90808 0.74622 0.0
H622 H 0.709 0.90714 0.70034 0.0
H623 H 0.68161 0.92892 0.67949 0.0
H624 H 0.60097 0.95046 0.70528 0.0
H625 H 0.62803 0.92921 0.72633 0.0
C626 C 0.6641 0.79397 0.7686 0.0
C627 C 0.63549 0.80336 0.77485 0.0
C628 C 0.68046 0.81433 0.75945 0.0
C629 C 0.66848 0.84437 0.75641 0.0
C630 C 0.63941 0.85324 0.76226 0.0
C631 C 0.62317 0.83305 0.7714 0.0
C632 C 0.68654 0.86732 0.74764 0.0
C633 C 0.6719 0.88085 0.73577 0.0
C634 C 0.71747 0.87692 0.75127 0.0
C635 C 0.73376 0.86469 0.76403 0.0
C636 C 0.72034 0.8683 0.77757 0.0
C637 C 0.73573 0.85646 0.78953 0.0
C638 C 0.76471 0.84122 0.78809 0.0
C639 C 0.7784 0.83788 0.77468 0.0
C640 C 0.76307 0.84963 0.76269 0.0
C641 C 0.73329 0.9971 0.71807 0.0
C642 C 0.76492 0.99519 0.71362 0.0
C643 C 0.71775 0.97069 0.72353 0.0
C644 C 0.73332 0.94166 0.72451 0.0
C645 C 0.76459 0.93948 0.71967 0.0
C646 C 0.78021 0.96592 0.71426 0.0
C647 C 0.71765 0.91431 0.73148 0.0
C648 C 0.73271 0.9 0.74307 0.0
C649 C 0.68708 0.90404 0.72759 0.0
C650 C 0.67066 0.91677 0.71494 0.0
C651 C 0.68551 0.91672 0.70159 0.0
C652 C 0.67003 0.92894 0.68973 0.0
C653 C 0.6396 0.94112 0.69107 0.0
C654 C 0.62455 0.94103 0.70426 0.0
C655 C 0.63994 0.92886 0.71616 0.0
H656 H 0.62765 0.95057 0.68187 0.0
H657 H 0.7766 0.83207 0.79736 0.0
H658 H 0.99379 0.31388 0.3192 0.0
H659 H 0.94547 0.33203 0.30739 0.0
H660 H 0.96287 0.26804 0.27292 0.0
H661 H 1.01059 0.2497 0.28456 0.0
H662 H 0.95219 0.32932 0.26402 0.0
H663 H 0.90581 0.25245 0.29562 0.0
H664 H 0.89397 0.22885 0.31894 0.0
H665 H 0.84887 0.31413 0.33214 0.0
H666 H 0.86086 0.33839 0.30895 0.0
H667 H 0.81819 0.32717 0.22211 0.0
H668 H 0.85831 0.31025 0.23891 0.0
H669 H 0.82386 0.37694 0.26955 0.0
H670 H 0.78314 0.39395 0.25273 0.0
H671 H 0.84256 0.32044 0.28215 0.0
H672 H 0.88589 0.39664 0.25053 0.0
H673 H 0.89769 0.4212 0.22742 0.0
H674 H 0.94938 0.33932 0.21474 0.0
H675 H 0.93747 0.31405 0.23771 0.0
C676 C 0.98711 0.30345 0.30918 0.0
C677 C 1.00622 0.28041 0.30282 0.0
C678 C 0.95947 0.3138 0.30247 0.0
C679 C 0.95062 0.30143 0.28925 0.0
C680 C 0.96929 0.27801 0.28308 0.0
C681 C 0.9966 0.26749 0.2898 0.0
C682 C 0.92293 0.31371 0.28135 0.0
C683 C 0.92821 0.32714 0.26795 0.0
C684 C 0.89174 0.3119 0.28668 0.0
C685 C 0.88459 0.29737 0.30062 0.0
C686 C 0.89366 0.26628 0.30355 0.0
C687 C 0.88685 0.25276 0.31673 0.0
C688 C 0.87078 0.27002 0.32703 0.0
C689 C 0.86139 0.30081 0.32416 0.0
C690 C 0.86817 0.31445 0.311 0.0
C691 C 0.81876 0.33801 0.23248 0.0
C692 C 0.79762 0.36219 0.236 0.0
C693 C 0.84182 0.32833 0.24208 0.0
C694 C 0.84452 0.34275 0.25539 0.0
C695 C 0.82231 0.3656 0.2593 0.0
C696 C 0.79906 0.37529 0.24968 0.0
C697 C 0.87185 0.33518 0.26466 0.0
C698 C 0.86657 0.32285 0.2783 0.0
C699 C 0.90321 0.3382 0.25963 0.0
C700 C 0.91056 0.35335 0.24581 0.0
C701 C 0.89957 0.38377 0.24278 0.0
C702 C 0.90631 0.39784 0.2297 0.0
C703 C 0.92421 0.38181 0.21961 0.0
C704 C 0.93548 0.35169 0.22257 0.0
C705 C 0.92877 0.3375 0.23562 0.0
H706 H 0.92941 0.39274 0.20949 0.0
H707 H 0.86551 0.2595 0.33723 0.0
H708 H 0.24603 0.02763 0.74133 0.0
H709 H 0.27383 0.07603 0.74688 0.0
H710 H 0.3338 0.06339 0.71035 0.0
H711 H 0.30593 0.01428 0.7047 0.0
H712 H 0.3674 0.08008 0.7345 0.0
H713 H 0.27827 0.11873 0.70922 0.0
H714 H 0.22199 0.12337 0.70306 0.0
H715 H 0.20141 0.15702 0.74494 0.0
H716 H 0.25751 0.15215 0.75143 0.0
H717 H 0.43435 0.22919 0.7505 0.0
H718 H 0.40784 0.18784 0.73705 0.0
H719 H 0.33208 0.18676 0.76767 0.0
H720 H 0.35784 0.22872 0.78088 0.0
H721 H 0.30881 0.17937 0.74216 0.0
H722 H 0.39559 0.13325 0.7684 0.0
H723 H 0.45169 0.12925 0.77505 0.0
H724 H 0.47634 0.10971 0.73179 0.0
H725 H 0.42039 0.11401 0.72485 0.0
C726 C 0.26502 0.03508 0.73439 0.0
C727 C 0.27367 0.01704 0.72252 0.0
C728 C 0.28085 0.06292 0.73756 0.0
C729 C 0.30569 0.0736 0.72895 0.0
C730 C 0.31461 0.05566 0.71711 0.0
C731 C 0.29858 0.02769 0.71386 0.0
C732 C 0.32244 0.10318 0.73269 0.0
C733 C 0.35475 0.10198 0.73588 0.0
C734 C 0.30587 0.13167 0.73471 0.0
C735 C 0.27211 0.1349 0.73083 0.0
C736 C 0.26172 0.12693 0.71714 0.0
C737 C 0.22985 0.12963 0.71359 0.0
C738 C 0.20813 0.14044 0.72361 0.0
C739 C 0.21826 0.14865 0.73719 0.0
C740 C 0.25011 0.14597 0.7408 0.0
C741 C 0.41182 0.22046 0.75427 0.0
C742 C 0.39832 0.23217 0.76683 0.0
C743 C 0.39677 0.19666 0.7466 0.0
C744 C 0.36821 0.18367 0.75147 0.0
C745 C 0.35411 0.19628 0.76369 0.0
C746 C 0.36893 0.22028 0.77126 0.0
C747 C 0.35355 0.15607 0.74436 0.0
C748 C 0.3216 0.15764 0.74055 0.0
C749 C 0.37042 0.1279 0.74184 0.0
C750 C 0.40388 0.12423 0.74609 0.0
C751 C 0.413 0.12818 0.7603 0.0
C752 C 0.44475 0.12588 0.76412 0.0
C753 C 0.46757 0.11929 0.75384 0.0
C754 C 0.45864 0.11483 0.73973 0.0
C755 C 0.42691 0.11717 0.73585 0.0
H756 H 0.49216 0.11764 0.75681 0.0
H757 H 0.18347 0.1425 0.72084 0.0
H758 H 0.01862 0.72654 0.30077 0.0
H759 H 0.06798 0.70331 0.29193 0.0
H760 H 0.08895 0.78911 0.26939 0.0
H761 H 0.0401 0.81212 0.27799 0.0
H762 H 0.09182 0.7391 0.25219 0.0
H763 H 0.13053 0.76663 0.29885 0.0
H764 H 0.13032 0.76528 0.325 0.0
H765 H 0.14156 0.66513 0.32431 0.0
H766 H 0.14142 0.66585 0.29814 0.0
H767 H 0.24273 0.71855 0.22508 0.0
H768 H 0.19991 0.73838 0.23989 0.0
H769 H 0.19301 0.64856 0.2609 0.0
H770 H 0.23654 0.62877 0.24636 0.0
H771 H 0.18145 0.69516 0.27947 0.0
H772 H 0.1438 0.66634 0.23364 0.0
H773 H 0.14287 0.66547 0.20751 0.0
H774 H 0.12713 0.76501 0.20661 0.0
H775 H 0.12841 0.76654 0.23275 0.0
C776 C 0.03409 0.74058 0.29415 0.0
C777 C 0.02529 0.77107 0.28998 0.0
C778 C 0.06228 0.7273 0.2891 0.0
C779 C 0.08213 0.74443 0.27992 0.0
C780 C 0.07395 0.77533 0.27635 0.0
C781 C 0.04595 0.78847 0.28131 0.0
C782 C 0.11021 0.72994 0.27306 0.0
C783 C 0.11156 0.72984 0.25819 0.0
C784 C 0.13544 0.71666 0.28083 0.0
C785 C 0.13561 0.71626 0.29655 0.0
C786 C 0.13268 0.74429 0.30428 0.0
C787 C 0.13269 0.74365 0.3191 0.0
C788 C 0.13583 0.71513 0.32631 0.0
C789 C 0.13907 0.6872 0.31871 0.0
C790 C 0.13906 0.68771 0.30389 0.0
C791 C 0.2325 0.70314 0.23301 0.0
C792 C 0.24286 0.67197 0.23441 0.0
C793 C 0.20789 0.71448 0.24145 0.0
C794 C 0.19266 0.69474 0.25129 0.0
C795 C 0.20423 0.66419 0.25334 0.0
C796 C 0.22913 0.65291 0.24499 0.0
C797 C 0.16342 0.70539 0.25862 0.0
C798 C 0.16169 0.70444 0.27351 0.0
C799 C 0.13751 0.71744 0.25088 0.0
C800 C 0.13647 0.71659 0.23515 0.0
C801 C 0.14035 0.68807 0.22787 0.0
C802 C 0.13973 0.68746 0.21305 0.0
C803 C 0.13501 0.71518 0.2054 0.0
C804 C 0.13081 0.74356 0.21255 0.0
C805 C 0.13145 0.74432 0.22737 0.0
H806 H 0.13455 0.71466 0.19393 0.0
H807 H 0.13583 0.71468 0.33778 0.0
H808 H 0.68811 0.47899 0.53218 0.0
H809 H 0.67217 0.52907 0.5219 0.0
H810 H 0.7527 0.57429 0.54081 0.0
H811 H 0.7692 0.52394 0.55111 0.0
H812 H 0.69172 0.61055 0.541 0.0
H813 H 0.76221 0.55444 0.50973 0.0
H814 H 0.78028 0.50821 0.49631 0.0
H815 H 0.69372 0.50777 0.47276 0.0
H816 H 0.67473 0.55317 0.48635 0.0
H817 H 0.67043 0.74207 0.49294 0.0
H818 H 0.69304 0.7011 0.50826 0.0
H819 H 0.64002 0.63075 0.48558 0.0
H820 H 0.6188 0.67099 0.47005 0.0
H821 H 0.69569 0.61085 0.48844 0.0
H822 H 0.62111 0.65935 0.52049 0.0
H823 H 0.59812 0.70314 0.53408 0.0
H824 H 0.68607 0.71657 0.55573 0.0
H825 H 0.7097 0.67307 0.54214 0.0
C826 C 0.70223 0.4996 0.5344 0.0
C827 C 0.73014 0.49732 0.54237 0.0
C828 C 0.69304 0.52825 0.5285 0.0
C829 C 0.71142 0.5553 0.53049 0.0
C830 C 0.73821 0.55366 0.53916 0.0
C831 C 0.74763 0.52485 0.545 0.0
C832 C 0.70402 0.58424 0.52235 0.0
C833 C 0.693 0.61092 0.52951 0.0
C834 C 0.7053 0.58445 0.50737 0.0
C835 C 0.71691 0.55707 0.49917 0.0
C836 C 0.74687 0.54422 0.50182 0.0
C837 C 0.75728 0.51811 0.49417 0.0
C838 C 0.73811 0.50488 0.48373 0.0
C839 C 0.70852 0.51781 0.4809 0.0
C840 C 0.6979 0.54371 0.48858 0.0
C841 C 0.66367 0.71783 0.49129 0.0
C842 C 0.64307 0.70973 0.48021 0.0
C843 C 0.67644 0.69443 0.50009 0.0
C844 C 0.6682 0.66269 0.49815 0.0
C845 C 0.64709 0.65491 0.48725 0.0
C846 C 0.6349 0.67804 0.47836 0.0
C847 C 0.68192 0.637 0.50697 0.0
C848 C 0.69455 0.61085 0.49993 0.0
C849 C 0.68145 0.63713 0.52201 0.0
C850 C 0.66727 0.66323 0.53018 0.0
C851 C 0.63561 0.67181 0.52807 0.0
C852 C 0.62245 0.69654 0.53578 0.0
C853 C 0.64065 0.71269 0.54573 0.0
C854 C 0.67203 0.70408 0.548 0.0
C855 C 0.68531 0.67939 0.5403 0.0
H856 H 0.63043 0.73183 0.55169 0.0
H857 H 0.7462 0.4847 0.47781 0.0
H858 H 0.7645 0.37934 0.49419 0.0
H859 H 0.72212 0.35422 0.48068 0.0
H860 H 0.66919 0.34043 0.51936 0.0
H861 H 0.71189 0.364 0.53289 0.0
H862 H 0.66283 0.29126 0.5041 0.0
H863 H 0.65621 0.40323 0.49381 0.0
H864 H 0.67725 0.45363 0.48495 0.0
H865 H 0.69251 0.41286 0.44391 0.0
H866 H 0.67193 0.36209 0.45259 0.0
H867 H 0.50586 0.27781 0.48242 0.0
H868 H 0.55561 0.29765 0.49165 0.0
H869 H 0.59649 0.29362 0.44979 0.0
H870 H 0.54635 0.27383 0.44035 0.0
H871 H 0.61319 0.34766 0.46387 0.0
H872 H 0.61442 0.23768 0.47337 0.0
H873 H 0.59321 0.18717 0.482 0.0
H874 H 0.5882 0.22381 0.52431 0.0
H875 H 0.60893 0.27472 0.5159 0.0
C876 C 0.74392 0.3707 0.4998 0.0
C877 C 0.7416 0.37373 0.51462 0.0
C878 C 0.71956 0.35653 0.49206 0.0
C879 C 0.69202 0.34588 0.49892 0.0
C880 C 0.69008 0.34838 0.51375 0.0
C881 C 0.71458 0.36195 0.5215 0.0
C882 C 0.66486 0.33252 0.49086 0.0
C883 C 0.65188 0.3038 0.49539 0.0
C884 C 0.65103 0.34816 0.47912 0.0
C885 C 0.66286 0.37882 0.47388 0.0
C886 C 0.6642 0.405 0.48291 0.0
C887 C 0.67605 0.43363 0.47792 0.0
C888 C 0.68632 0.43641 0.46388 0.0
C889 C 0.68462 0.41064 0.45478 0.0
C890 C 0.67286 0.38195 0.45973 0.0
C891 C 0.52531 0.28121 0.4751 0.0
C892 C 0.52209 0.27397 0.46063 0.0
C893 C 0.55385 0.29247 0.48044 0.0
C894 C 0.58 0.29662 0.47147 0.0
C895 C 0.57668 0.29043 0.45692 0.0
C896 C 0.54801 0.27909 0.45155 0.0
C897 C 0.6107 0.30708 0.47747 0.0
C898 C 0.62436 0.33508 0.47251 0.0
C899 C 0.62518 0.29082 0.48883 0.0
C900 C 0.61303 0.2601 0.49398 0.0
C901 C 0.6086 0.23504 0.4845 0.0
C902 C 0.59669 0.20632 0.48935 0.0
C903 C 0.58931 0.2023 0.50369 0.0
C904 C 0.59391 0.22696 0.51321 0.0
C905 C 0.60578 0.25574 0.5084 0.0
H906 H 0.58007 0.18006 0.50743 0.0
H907 H 0.69558 0.45851 0.46001 0.0
H908 H 0.26417 0.4971 0.55478 0.0
H909 H 0.28169 0.44416 0.5478 0.0
H910 H 0.29362 0.47623 0.50471 0.0
H911 H 0.27635 0.52829 0.51144 0.0
H912 H 0.26129 0.42177 0.50565 0.0
H913 H 0.35625 0.46604 0.52683 0.0
H914 H 0.38723 0.48837 0.54649 0.0
H915 H 0.37018 0.4055 0.5714 0.0
H916 H 0.33875 0.38285 0.55192 0.0
H917 H 0.36795 0.33698 0.46587 0.0
H918 H 0.34052 0.37496 0.48052 0.0
H919 H 0.34137 0.31011 0.51571 0.0
H920 H 0.36954 0.27154 0.50097 0.0
H921 H 0.35874 0.3711 0.52348 0.0
H922 H 0.27296 0.32297 0.4993 0.0
H923 H 0.24501 0.3013 0.47861 0.0
H924 H 0.24587 0.39201 0.45867 0.0
H925 H 0.27419 0.41418 0.47915 0.0
C926 C 0.27072 0.4928 0.54385 0.0
C927 C 0.26871 0.51696 0.53368 0.0
C928 C 0.28069 0.46257 0.53988 0.0
C929 C 0.28879 0.45617 0.52569 0.0
C930 C 0.28719 0.48044 0.51567 0.0
C931 C 0.27738 0.51035 0.51959 0.0
C932 C 0.29893 0.42448 0.52089 0.0
C933 C 0.28253 0.41062 0.50959 0.0
C934 C 0.32602 0.40931 0.52633 0.0
C935 C 0.3448 0.42296 0.53802 0.0
C936 C 0.35886 0.45272 0.53655 0.0
C937 C 0.37655 0.4654 0.54764 0.0
C938 C 0.38057 0.44842 0.56021 0.0
C939 C 0.36697 0.41867 0.56168 0.0
C940 C 0.34923 0.4059 0.55062 0.0
C941 C 0.36225 0.33054 0.47669 0.0
C942 C 0.37091 0.30111 0.48222 0.0
C943 C 0.34639 0.35233 0.48506 0.0
C944 C 0.33849 0.34528 0.49917 0.0
C945 C 0.3471 0.31597 0.50482 0.0
C946 C 0.36304 0.29393 0.49638 0.0
C947 C 0.32187 0.36929 0.50782 0.0
C948 C 0.33695 0.38166 0.51983 0.0
C949 C 0.29358 0.38326 0.50299 0.0
C950 C 0.27578 0.37023 0.49078 0.0
C951 C 0.26728 0.33829 0.49049 0.0
C952 C 0.25136 0.32592 0.47879 0.0
C953 C 0.24367 0.34527 0.46734 0.0
C954 C 0.25179 0.37707 0.46757 0.0
C955 C 0.26771 0.38956 0.47924 0.0
H956 H 0.23138 0.33565 0.45828 0.0
H957 H 0.39429 0.45826 0.56878 0.0
H958 H 0.48998 0.78306 0.45943 0.0
H959 H 0.43522 0.76967 0.46578 0.0
H960 H 0.46765 0.68567 0.48672 0.0
H961 H 0.52215 0.69925 0.48075 0.0
H962 H 0.41019 0.67865 0.46959 0.0
H963 H 0.45752 0.74511 0.50627 0.0
H964 H 0.48337 0.79398 0.51412 0.0
H965 H 0.40494 0.84778 0.49877 0.0
H966 H 0.37884 0.7992 0.49065 0.0
H967 H 0.30554 0.62573 0.5213 0.0
H968 H 0.34884 0.64438 0.50667 0.0
H969 H 0.30418 0.73502 0.50305 0.0
H970 H 0.26124 0.71678 0.51854 0.0
H971 H 0.36219 0.74459 0.50715 0.0
H972 H 0.30977 0.67945 0.47416 0.0
H973 H 0.28294 0.63222 0.46508 0.0
H974 H 0.36744 0.57842 0.47099 0.0
H975 H 0.39468 0.6252 0.48029 0.0
C976 C 0.48528 0.76142 0.46511 0.0
C977 C 0.51026 0.74219 0.46962 0.0
C978 C 0.45407 0.75388 0.46878 0.0
C979 C 0.44744 0.72672 0.47675 0.0
C980 C 0.47224 0.70666 0.48053 0.0
C981 C 0.50335 0.7145 0.47714 0.0
C982 C 0.41527 0.72018 0.48227 0.0
C983 C 0.39956 0.69298 0.47779 0.0
C984 C 0.40098 0.73954 0.4926 0.0
C985 C 0.41643 0.76861 0.49771 0.0
C986 C 0.44591 0.76739 0.50448 0.0
C987 C 0.46059 0.79502 0.50899 0.0
C988 C 0.44586 0.82398 0.5069 0.0
C989 C 0.41635 0.82535 0.50035 0.0
C990 C 0.40161 0.79777 0.4958 0.0
C991 C 0.30462 0.64956 0.51728 0.0
C992 C 0.27976 0.66972 0.52105 0.0
C993 C 0.32942 0.66018 0.50877 0.0
C994 C 0.32965 0.69097 0.50337 0.0
C995 C 0.3046 0.71111 0.50697 0.0
C996 C 0.27998 0.70065 0.51579 0.0
C997 C 0.35707 0.70233 0.49477 0.0
C998 C 0.37209 0.73045 0.4987 0.0
C999 C 0.3704 0.68407 0.4837 0.0
C1000 C 0.35423 0.65586 0.47799 0.0
C1001 C 0.32259 0.65751 0.47359 0.0
C1002 C 0.30731 0.63082 0.4684 0.0
C1003 C 0.32346 0.60233 0.46747 0.0
C1004 C 0.35496 0.60051 0.47171 0.0
C1005 C 0.37035 0.62713 0.47691 0.0
H1006 H 0.31158 0.58169 0.46346 0.0
H1007 H 0.45726 0.84536 0.51038 0.0
H1008 H 0.37497 0.26197 0.41977 0.0
H1009 H 0.33552 0.26921 0.40105 0.0
H1010 H 0.28781 0.18485 0.4147 0.0
H1011 H 0.32703 0.1774 0.43328 0.0
H1012 H 0.29113 0.18682 0.38648 0.0
H1013 H 0.25912 0.25606 0.42337 0.0
H1014 H 0.26497 0.2983 0.44099 0.0
H1015 H 0.28431 0.36454 0.40768 0.0
H1016 H 0.27911 0.32253 0.38985 0.0
H1017 H 0.14709 0.21121 0.34916 0.0
H1018 H 0.18374 0.20618 0.36916 0.0
H1019 H 0.23766 0.28467 0.35325 0.0
H1020 H 0.20145 0.28966 0.33325 0.0
H1021 H 0.23003 0.28577 0.38298 0.0
H1022 H 0.26271 0.21384 0.34624 0.0
H1023 H 0.25497 0.17052 0.3293 0.0
H1024 H 0.23157 0.10811 0.36359 0.0
H1025 H 0.23874 0.15122 0.38073 0.0
C1026 C 0.35623 0.24484 0.41871 0.0
C1027 C 0.35417 0.21914 0.42807 0.0
C1028 C 0.33355 0.24911 0.40805 0.0
C1029 C 0.30841 0.22776 0.40654 0.0
C1030 C 0.30688 0.20168 0.41564 0.0
C1031 C 0.32936 0.1975 0.4263 0.0
C1032 C 0.28353 0.23254 0.39558 0.0
C1033 C 0.27754 0.20834 0.38585 0.0
C1034 C 0.26589 0.2607 0.39461 0.0
C1035 C 0.26908 0.28606 0.40528 0.0
C1036 C 0.26492 0.27957 0.41981 0.0
C1037 C 0.26805 0.30349 0.42983 0.0
C1038 C 0.27507 0.33408 0.42546 0.0
C1039 C 0.27892 0.34082 0.41105 0.0
C1040 C 0.27588 0.31696 0.40098 0.0
C1041 C 0.16647 0.22768 0.35004 0.0
C1042 C 0.17142 0.25073 0.33956 0.0
C1043 C 0.18749 0.2247 0.36144 0.0
C1044 C 0.21364 0.24488 0.36264 0.0
C1045 C 0.21771 0.26882 0.35256 0.0
C1046 C 0.197 0.27156 0.34109 0.0
C1047 C 0.23778 0.24009 0.37391 0.0
C1048 C 0.24363 0.26428 0.38366 0.0
C1049 C 0.25507 0.21179 0.37502 0.0
C1050 C 0.25092 0.18583 0.36474 0.0
C1051 C 0.25565 0.19094 0.35016 0.0
C1052 C 0.25142 0.16642 0.34052 0.0
C1053 C 0.24269 0.1366 0.34536 0.0
C1054 C 0.23827 0.13123 0.35985 0.0
C1055 C 0.24244 0.1557 0.36953 0.0
H1056 H 0.23942 0.11765 0.33788 0.0
H1057 H 0.27744 0.35257 0.43325 0.0
H1058 H 0.26644 0.66464 0.58888 0.0
H1059 H 0.27205 0.70483 0.60731 0.0
H1060 H 0.1731 0.72675 0.60363 0.0
H1061 H 0.16758 0.68743 0.5851 0.0
H1062 H 0.20506 0.77872 0.60396 0.0
H1063 H 0.20551 0.6844 0.63233 0.0
H1064 H 0.2244 0.63227 0.6399 0.0
H1065 H 0.31576 0.67104 0.64881 0.0
H1066 H 0.29751 0.72336 0.64113 0.0
H1067 H 0.1706 0.86004 0.6672 0.0
H1068 H 0.17511 0.82114 0.64836 0.0
H1069 H 0.27614 0.82022 0.65336 0.0
H1070 H 0.27183 0.85947 0.67232 0.0
H1071 H 0.24978 0.7597 0.65176 0.0
H1072 H 0.24669 0.85533 0.62519 0.0
H1073 H 0.22625 0.90724 0.61819 0.0
H1074 H 0.13806 0.86536 0.60627 0.0
H1075 H 0.15781 0.81323 0.61339 0.0
C1076 C 0.24585 0.67785 0.5921 0.0
C1077 C 0.21658 0.6728 0.58547 0.0
C1078 C 0.24906 0.70082 0.60268 0.0
C1079 C 0.22296 0.7189 0.60696 0.0
C1080 C 0.19367 0.71337 0.6005 0.0
C1081 C 0.19053 0.6907 0.58991 0.0
C1082 C 0.22593 0.74427 0.61782 0.0
C1083 C 0.21459 0.77437 0.61445 0.0
C1084 C 0.23925 0.73912 0.6314 0.0
C1085 C 0.25026 0.7077 0.63599 0.0
C1086 C 0.22971 0.68175 0.63579 0.0
C1087 C 0.24028 0.65218 0.64012 0.0
C1088 C 0.27129 0.64832 0.64479 0.0
C1089 C 0.29176 0.67405 0.64517 0.0
C1090 C 0.28132 0.70366 0.64083 0.0
C1091 C 0.19386 0.85178 0.66427 0.0
C1092 C 0.22087 0.86302 0.67126 0.0
C1093 C 0.19639 0.82954 0.65344 0.0
C1094 C 0.22598 0.81783 0.64936 0.0
C1095 C 0.25307 0.82893 0.65631 0.0
C1096 C 0.25058 0.85151 0.66709 0.0
C1097 C 0.2282 0.79373 0.63796 0.0
C1098 C 0.24054 0.764 0.64121 0.0
C1099 C 0.2156 0.79909 0.62428 0.0
C1100 C 0.20367 0.8304 0.61993 0.0
C1101 C 0.22285 0.85722 0.62118 0.0
C1102 C 0.21141 0.88668 0.61717 0.0
C1103 C 0.18086 0.88961 0.61181 0.0
C1104 C 0.16171 0.86306 0.61043 0.0
C1105 C 0.17304 0.83355 0.61443 0.0
H1106 H 0.17204 0.91244 0.60871 0.0
H1107 H 0.27942 0.62541 0.64814 0.0
H1108 H 0.66161 0.75008 0.42117 0.0
H1109 H 0.70208 0.74185 0.40294 0.0
H1110 H 0.72026 0.84144 0.40161 0.0
H1111 H 0.68 0.84984 0.41979 0.0
H1112 H 0.71857 0.81596 0.37495 0.0
H1113 H 0.76874 0.79398 0.41959 0.0
H1114 H 0.77468 0.76755 0.44272 0.0
H1115 H 0.78045 0.67818 0.42191 0.0
H1116 H 0.77408 0.70407 0.39865 0.0
H1117 H 0.86671 0.82031 0.34054 0.0
H1118 H 0.82495 0.82509 0.3583 0.0
H1119 H 0.8139 0.72445 0.35899 0.0
H1120 H 0.85591 0.71941 0.34128 0.0
H1121 H 0.8107 0.74823 0.38553 0.0
H1122 H 0.7623 0.76984 0.34088 0.0
H1123 H 0.75614 0.79584 0.31767 0.0
H1124 H 0.74634 0.88509 0.33827 0.0
H1125 H 0.75293 0.85967 0.36161 0.0
C1126 C 0.674 0.77026 0.4169 0.0
C1127 C 0.66759 0.80062 0.422 0.0
C1128 C 0.69727 0.7655 0.40653 0.0
C1129 C 0.7145 0.791 0.40099 0.0
C1130 C 0.70737 0.82139 0.40572 0.0
C1131 C 0.68435 0.82614 0.41616 0.0
C1132 C 0.74045 0.78611 0.39051 0.0
C1133 C 0.73886 0.8014 0.37733 0.0
C1134 C 0.76663 0.76653 0.39344 0.0
C1135 C 0.77057 0.75092 0.4074 0.0
C1136 C 0.771 0.76866 0.41996 0.0
C1137 C 0.7745 0.75379 0.43309 0.0
C1138 C 0.77784 0.72119 0.43379 0.0
C1139 C 0.77779 0.70342 0.42135 0.0
C1140 C 0.77426 0.71818 0.40819 0.0
C1141 C 0.85562 0.79913 0.34453 0.0
C1142 C 0.86465 0.76946 0.33939 0.0
C1143 C 0.83156 0.80192 0.35465 0.0
C1144 C 0.81584 0.77517 0.35985 0.0
C1145 C 0.82554 0.74546 0.35511 0.0
C1146 C 0.84958 0.74263 0.34496 0.0
C1147 C 0.78895 0.7783 0.37 0.0
C1148 C 0.79035 0.76267 0.38312 0.0
C1149 C 0.76252 0.7975 0.367 0.0
C1150 C 0.75842 0.81288 0.35299 0.0
C1151 C 0.75909 0.79505 0.34046 0.0
C1152 C 0.75548 0.80967 0.32728 0.0
C1153 C 0.75093 0.84211 0.32649 0.0
C1154 C 0.74991 0.85997 0.33889 0.0
C1155 C 0.75356 0.84546 0.3521 0.0
H1156 H 0.74813 0.85339 0.31628 0.0
H1157 H 0.78056 0.70972 0.44396 0.0
H1158 H 0.78598 0.13735 0.66409 0.0
H1159 H 0.7846 0.17303 0.64366 0.0
H1160 H 0.79678 0.2522 0.67153 0.0
H1161 H 0.79783 0.2169 0.69194 0.0
H1162 H 0.7529 0.26479 0.65193 0.0
H1163 H 0.85839 0.22356 0.65199 0.0
H1164 H 0.89882 0.18201 0.65195 0.0
H1165 H 0.86337 0.14732 0.61234 0.0
H1166 H 0.82244 0.18844 0.61224 0.0
H1167 H 0.79418 0.37861 0.59899 0.0
H1168 H 0.79372 0.34384 0.61978 0.0
H1169 H 0.78635 0.26329 0.59234 0.0
H1170 H 0.78753 0.29763 0.57166 0.0
H1171 H 0.8279 0.25173 0.61196 0.0
H1172 H 0.7223 0.29254 0.6118 0.0
H1173 H 0.68152 0.33374 0.61179 0.0
H1174 H 0.71649 0.3688 0.65141 0.0
H1175 H 0.75777 0.32804 0.65156 0.0
C1176 C 0.78829 0.16235 0.66587 0.0
C1177 C 0.79215 0.17418 0.67968 0.0
C1178 C 0.78762 0.18275 0.65417 0.0
C1179 C 0.79091 0.21536 0.65602 0.0
C1180 C 0.7942 0.22719 0.66981 0.0
C1181 C 0.79491 0.20688 0.68148 0.0
C1182 C 0.79124 0.23724 0.64363 0.0
C1183 C 0.76955 0.26214 0.64327 0.0
C1184 C 0.81252 0.23355 0.63217 0.0
C1185 C 0.83716 0.20888 0.63218 0.0
C1186 C 0.85906 0.20692 0.64333 0.0
C1187 C 0.88209 0.18348 0.64332 0.0
C1188 C 0.8836 0.16199 0.63217 0.0
C1189 C 0.86214 0.16396 0.62098 0.0
C1190 C 0.83904 0.18734 0.62095 0.0
C1191 C 0.79238 0.3535 0.59741 0.0
C1192 C 0.7909 0.34098 0.58363 0.0
C1193 C 0.79198 0.33362 0.60931 0.0
C1194 C 0.78971 0.30083 0.60768 0.0
C1195 C 0.7882 0.28841 0.59393 0.0
C1196 C 0.78879 0.30818 0.58208 0.0
C1197 C 0.78942 0.27924 0.62019 0.0
C1198 C 0.81119 0.2544 0.6206 0.0
C1199 C 0.76813 0.28295 0.63167 0.0
C1200 C 0.74332 0.30744 0.63161 0.0
C1201 C 0.72145 0.30919 0.62045 0.0
C1202 C 0.69822 0.33243 0.62043 0.0
C1203 C 0.69647 0.35393 0.63157 0.0
C1204 C 0.7179 0.35217 0.64278 0.0
C1205 C 0.74121 0.32898 0.64284 0.0
H1206 H 0.67846 0.3719 0.63154 0.0
H1207 H 0.90145 0.14386 0.63218 0.0
H1208 H 0.14996 0.2604 0.91583 0.0
H1209 H 0.18804 0.2538 0.89644 0.0
H1210 H 0.2468 0.32603 0.91452 0.0
H1211 H 0.20893 0.33294 0.93376 0.0
H1212 H 0.24253 0.33347 0.88642 0.0
H1213 H 0.26486 0.24821 0.91837 0.0
H1214 H 0.25228 0.2013 0.93269 0.0
H1215 H 0.22417 0.15194 0.89513 0.0
H1216 H 0.23619 0.19874 0.8806 0.0
H1217 H 0.38351 0.30619 0.84769 0.0
H1218 H 0.34539 0.31068 0.86713 0.0
H1219 H 0.28898 0.23727 0.84851 0.0
H1220 H 0.32709 0.23233 0.8292 0.0
H1221 H 0.29132 0.22999 0.87661 0.0
H1222 H 0.2691 0.31479 0.84462 0.0
H1223 H 0.28134 0.36162 0.83018 0.0
H1224 H 0.30865 0.41178 0.86765 0.0
H1225 H 0.29697 0.36508 0.8823 0.0
C1226 C 0.17092 0.27496 0.91564 0.0
C1227 C 0.17637 0.29713 0.9264 0.0
C1228 C 0.19278 0.27106 0.90458 0.0
C1229 C 0.22054 0.2892 0.90408 0.0
C1230 C 0.22564 0.31173 0.91466 0.0
C1231 C 0.20393 0.31558 0.9257 0.0
C1232 C 0.24443 0.28481 0.89261 0.0
C1233 C 0.25345 0.3109 0.8844 0.0
C1234 C 0.25827 0.25525 0.88971 0.0
C1235 C 0.2511 0.22708 0.89842 0.0
C1236 C 0.25575 0.22743 0.91318 0.0
C1237 C 0.24877 0.20085 0.92133 0.0
C1238 C 0.23735 0.17369 0.91483 0.0
C1239 C 0.23297 0.17302 0.90015 0.0
C1240 C 0.23988 0.19956 0.89195 0.0
C1241 C 0.36314 0.2908 0.84779 0.0
C1242 C 0.35835 0.26901 0.83681 0.0
C1243 C 0.34124 0.29352 0.85888 0.0
C1244 C 0.31398 0.27464 0.8592 0.0
C1245 C 0.30972 0.25218 0.84851 0.0
C1246 C 0.33157 0.24944 0.83743 0.0
C1247 C 0.28954 0.2787 0.87047 0.0
C1248 C 0.28039 0.25255 0.87863 0.0
C1249 C 0.27551 0.3082 0.87331 0.0
C1250 C 0.28247 0.33634 0.86454 0.0
C1251 C 0.27795 0.33573 0.84977 0.0
C1252 C 0.28475 0.36226 0.84155 0.0
C1253 C 0.29585 0.38963 0.84799 0.0
C1254 C 0.3001 0.39055 0.86267 0.0
C1255 C 0.29337 0.36406 0.87094 0.0
H1256 H 0.30109 0.41015 0.84161 0.0
H1257 H 0.23196 0.15313 0.92116 0.0
H1258 H 0.25895 0.66 0.16913 0.0
H1259 H 0.25096 0.69912 0.1504 0.0
H1260 H 0.34722 0.73027 0.1551 0.0
H1261 H 0.35514 0.6918 0.17396 0.0
H1262 H 0.31006 0.77924 0.15359 0.0
H1263 H 0.32198 0.68471 0.12642 0.0
H1264 H 0.31007 0.63027 0.11935 0.0
H1265 H 0.21514 0.65676 0.10912 0.0
H1266 H 0.22637 0.7113 0.11631 0.0
H1267 H 0.32535 0.86894 0.09009 0.0
H1268 H 0.33048 0.82984 0.10899 0.0
H1269 H 0.23245 0.805 0.10423 0.0
H1270 H 0.22717 0.84384 0.08524 0.0
H1271 H 0.26855 0.75319 0.10592 0.0
H1272 H 0.25741 0.84821 0.13254 0.0
H1273 H 0.26978 0.90263 0.13947 0.0
H1274 H 0.3639 0.87509 0.15062 0.0
H1275 H 0.35222 0.82055 0.14357 0.0
C1276 C 0.2785 0.675 0.16609 0.0
C1277 C 0.30771 0.67266 0.17306 0.0
C1278 C 0.27392 0.69736 0.15534 0.0
C1279 C 0.29855 0.71763 0.1512 0.0
C1280 C 0.32779 0.71506 0.15808 0.0
C1281 C 0.33232 0.69289 0.16885 0.0
C1282 C 0.29385 0.74202 0.13999 0.0
C1283 C 0.30136 0.77341 0.14311 0.0
C1284 C 0.28173 0.73476 0.12639 0.0
C1285 C 0.27493 0.702 0.12205 0.0
C1286 C 0.2985 0.67887 0.12277 0.0
C1287 C 0.29188 0.64801 0.11872 0.0
C1288 C 0.26184 0.64004 0.11383 0.0
C1289 C 0.23838 0.66295 0.11294 0.0
C1290 C 0.24486 0.69384 0.11699 0.0
C1291 C 0.30479 0.85533 0.09312 0.0
C1292 C 0.27581 0.85967 0.08614 0.0
C1293 C 0.30775 0.833 0.10397 0.0
C1294 C 0.28179 0.81454 0.10815 0.0
C1295 C 0.25283 0.81889 0.10123 0.0
C1296 C 0.24982 0.84127 0.0904 0.0
C1297 C 0.28502 0.79029 0.11951 0.0
C1298 C 0.2772 0.75898 0.11642 0.0
C1299 C 0.29694 0.79759 0.13313 0.0
C1300 C 0.30402 0.83036 0.13739 0.0
C1301 C 0.28083 0.85381 0.13636 0.0
C1302 C 0.2877 0.88466 0.14033 0.0
C1303 C 0.31763 0.89233 0.14544 0.0
C1304 C 0.34073 0.86912 0.14663 0.0
C1305 C 0.33399 0.83823 0.14267 0.0
H1306 H 0.3229 0.91623 0.14851 0.0
H1307 H 0.25677 0.61614 0.11069 0.0
H1308 H 0.87558 0.76409 0.91851 0.0
H1309 H 0.8369 0.77128 0.89949 0.0
H1310 H 0.78981 0.6859 0.91228 0.0
H1311 H 0.8285 0.6783 0.93105 0.0
H1312 H 0.79356 0.68807 0.88446 0.0
H1313 H 0.76067 0.75928 0.92085 0.0
H1314 H 0.76655 0.80259 0.93795 0.0
H1315 H 0.78745 0.86647 0.90389 0.0
H1316 H 0.78216 0.82342 0.8866 0.0
H1317 H 0.64949 0.7093 0.84737 0.0
H1318 H 0.68773 0.70442 0.86668 0.0
H1319 H 0.73667 0.78668 0.85141 0.0
H1320 H 0.69853 0.79184 0.83215 0.0
H1321 H 0.7322 0.78669 0.88028 0.0
H1322 H 0.76454 0.71436 0.84395 0.0
H1323 H 0.75738 0.67062 0.82717 0.0
H1324 H 0.73603 0.60826 0.86174 0.0
H1325 H 0.74265 0.65176 0.87872 0.0
C1326 C 0.85709 0.74677 0.91722 0.0
C1327 C 0.85517 0.72066 0.92636 0.0
C1328 C 0.83484 0.751 0.90639 0.0
C1329 C 0.81009 0.72934 0.90452 0.0
C1330 C 0.80858 0.70298 0.91347 0.0
C1331 C 0.83077 0.69872 0.92425 0.0
C1332 C 0.78566 0.73396 0.89332 0.0
C1333 C 0.77992 0.70952 0.88368 0.0
C1334 C 0.76811 0.76212 0.89207 0.0
C1335 C 0.77135 0.78805 0.90244 0.0
C1336 C 0.76679 0.7825 0.91702 0.0
C1337 C 0.76997 0.80701 0.92674 0.0
C1338 C 0.77744 0.83724 0.92201 0.0
C1339 C 0.78171 0.84303 0.90754 0.0
C1340 C 0.77861 0.81859 0.89777 0.0
C1341 C 0.66819 0.72654 0.84819 0.0
C1342 C 0.67097 0.75087 0.83814 0.0
C1343 C 0.69016 0.72363 0.85921 0.0
C1344 C 0.71539 0.74494 0.86041 0.0
C1345 C 0.71751 0.76989 0.8507 0.0
C1346 C 0.69567 0.77275 0.83966 0.0
C1347 C 0.74008 0.74076 0.8715 0.0
C1348 C 0.74589 0.76528 0.88109 0.0
C1349 C 0.75758 0.7126 0.87277 0.0
C1350 C 0.75378 0.68638 0.86259 0.0
C1351 C 0.75809 0.69137 0.84797 0.0
C1352 C 0.75416 0.66662 0.83842 0.0
C1353 C 0.74617 0.6367 0.84339 0.0
C1354 C 0.74217 0.63146 0.85791 0.0
C1355 C 0.74603 0.65614 0.8675 0.0
H1356 H 0.74314 0.61757 0.83598 0.0
H1357 H 0.7798 0.85618 0.92955 0.0
H1358 H 0.77647 0.16675 0.08843 0.0
H1359 H 0.78106 0.20824 0.10633 0.0
H1360 H 0.67977 0.2103 0.11059 0.0
H1361 H 0.67503 0.16958 0.09264 0.0
H1362 H 0.70118 0.26772 0.10834 0.0
H1363 H 0.72973 0.17676 0.13607 0.0
H1364 H 0.7608 0.12959 0.1419 0.0
H1365 H 0.84511 0.18539 0.14394 0.0
H1366 H 0.81457 0.23286 0.13795 0.0
H1367 H 0.67393 0.34533 0.17287 0.0
H1368 H 0.67944 0.30701 0.1539 0.0
H1369 H 0.77979 0.32341 0.15273 0.0
H1370 H 0.77447 0.362 0.17192 0.0
H1371 H 0.7651 0.26003 0.15218 0.0
H1372 H 0.73482 0.35189 0.12655 0.0
H1373 H 0.70288 0.39876 0.12123 0.0
H1374 H 0.62099 0.34078 0.11548 0.0
H1375 H 0.65233 0.29357 0.12096 0.0
C1376 C 0.75521 0.17585 0.09329 0.0
C1377 C 0.72538 0.16482 0.08905 0.0
C1378 C 0.75786 0.19957 0.10355 0.0
C1379 C 0.73075 0.21247 0.10989 0.0
C1380 C 0.70106 0.20097 0.10583 0.0
C1381 C 0.6984 0.17752 0.09557 0.0
C1382 C 0.7328 0.23858 0.12041 0.0
C1383 C 0.71497 0.26584 0.11798 0.0
C1384 C 0.75157 0.23678 0.1328 0.0
C1385 C 0.76994 0.20828 0.13639 0.0
C1386 C 0.75494 0.17893 0.13764 0.0
C1387 C 0.77244 0.15215 0.141 0.0
C1388 C 0.80492 0.15448 0.14324 0.0
C1389 C 0.81996 0.18361 0.14217 0.0
C1390 C 0.80256 0.21046 0.1388 0.0
C1391 C 0.69721 0.34103 0.16856 0.0
C1392 C 0.72375 0.35691 0.17392 0.0
C1393 C 0.7003 0.3191 0.15765 0.0
C1394 C 0.72999 0.31245 0.15176 0.0
C1395 C 0.75662 0.32819 0.15707 0.0
C1396 C 0.75352 0.35037 0.16799 0.0
C1397 C 0.73284 0.28868 0.14024 0.0
C1398 C 0.7516 0.26198 0.14246 0.0
C1399 C 0.71482 0.29088 0.12765 0.0
C1400 C 0.6959 0.3192 0.12427 0.0
C1401 C 0.70995 0.34915 0.12425 0.0
C1402 C 0.69196 0.37577 0.12119 0.0
C1403 C 0.65991 0.37275 0.11805 0.0
C1404 C 0.64581 0.34308 0.11793 0.0
C1405 C 0.66369 0.31638 0.12099 0.0
H1406 H 0.64602 0.3934 0.11568 0.0
H1407 H 0.81843 0.13372 0.14584 0.0
H1408 H 0.9449 0.90801 0.3278 0.0
H1409 H 0.96729 0.96045 0.32494 0.0
H1410 H 0.98697 0.94115 0.28094 0.0
H1411 H 0.96442 0.88831 0.28372 0.0
H1412 H 0.03826 0.96768 0.29504 0.0
H1413 H 0.9294 0.99041 0.28842 0.0
H1414 H 0.87249 0.98894 0.29379 0.0
H1415 H 0.88915 0.03516 0.33348 0.0
H1416 H 0.94625 0.0365 0.32846 0.0
H1417 H 0.08385 0.13092 0.28655 0.0
H1418 H 0.06009 0.07878 0.28332 0.0
H1419 H 0.02547 0.08098 0.32635 0.0
H1420 H 0.04866 0.13275 0.32959 0.0
H1421 H 0.9798 0.0638 0.30864 0.0
H1422 H 0.08877 0.03549 0.31648 0.0
H1423 H 0.1459 0.03617 0.31151 0.0
H1424 H 0.129 1.00027 0.2697 0.0
H1425 H 0.0717 0.99977 0.27436 0.0
C1426 C 0.95369 0.91495 0.31746 0.0
C1427 C 0.95278 0.89398 0.30598 0.0
C1428 C 0.96644 0.945 0.31583 0.0
C1429 C 0.97866 0.95483 0.3027 0.0
C1430 C 0.97762 0.93408 0.29116 0.0
C1431 C 0.96455 0.90398 0.29275 0.0
C1432 C 0.99325 0.98649 0.30133 0.0
C1433 C 0.02533 0.98881 0.29772 0.0
C1434 C 0.97653 0.014 0.30503 0.0
C1435 C 0.94217 0.01335 0.3081 0.0
C1436 C 0.92097 1.00004 0.29835 0.0
C1437 C 0.88867 0.99928 0.30132 0.0
C1438 C 0.87722 0.0119 0.31398 0.0
C1439 C 0.89806 0.02538 0.32368 0.0
C1440 C 0.9304 0.02619 0.32077 0.0
C1441 C 0.07145 0.12011 0.29535 0.0
C1442 C 0.0681 0.13609 0.30831 0.0
C1443 C 0.05788 0.0903 0.2935 0.0
C1444 C 0.04091 0.07592 0.3046 0.0
C1445 C 0.03821 0.09163 0.3176 0.0
C1446 C 0.05165 0.12126 0.31944 0.0
C1447 C 0.02508 0.04495 0.30276 0.0
C1448 C 0.99267 0.04277 0.30575 0.0
C1449 C 0.04154 0.01762 0.29852 0.0
C1450 C 0.07594 0.01798 0.2957 0.0
C1451 C 0.09722 0.02802 0.30618 0.0
C1452 C 0.12963 0.02831 0.30343 0.0
C1453 C 0.14107 0.01837 0.29028 0.0
C1454 C 0.12011 1.00803 0.27987 0.0
C1455 C 0.08767 1.00773 0.28256 0.0
H1456 H 0.16617 0.0186 0.28818 0.0
H1457 H 0.8522 0.01128 0.31626 0.0
H1458 H 0.88668 0.04062 0.74625 0.0
H1459 H 0.9402 0.0193 0.746 0.0
H1460 H 0.95347 0.0538 0.70337 0.0
H1461 H 0.89992 0.0751 0.70351 0.0
H1462 H 0.97257 0.99319 0.70594 0.0
H1463 H 0.98935 0.08958 0.73104 0.0
H1464 H 0.97987 0.12896 0.74968 0.0
H1465 H 1.00239 0.06084 0.78171 0.0
H1466 H 1.01159 0.0209 0.76326 0.0
H1467 H 0.13753 0.96786 0.70051 0.0
H1468 H 0.08475 0.99062 0.70127 0.0
H1469 H 0.07456 0.96109 0.74482 0.0
H1470 H 0.12772 0.93884 0.74424 0.0
H1471 H 0.05365 0.0191 0.74191 0.0
H1472 H 0.03662 0.92259 0.71713 0.0
H1473 H 0.04575 0.88268 0.69869 0.0
H1474 H 0.02304 0.95 0.66634 0.0
H1475 H 0.01419 0.99046 0.68459 0.0
C1476 C 0.90104 0.04394 0.73686 0.0
C1477 C 0.88892 0.05966 0.72491 0.0
C1478 C 0.93172 0.03178 0.73674 0.0
C1479 C 0.95101 0.03504 0.72469 0.0
C1480 C 0.93907 0.05095 0.71279 0.0
C1481 C 0.90846 0.06327 0.71292 0.0
C1482 C 0.98324 0.02109 0.72432 0.0
C1483 C 0.99045 0.9992 0.71369 0.0
C1484 C 1.00635 0.0282 0.73465 0.0
C1485 C 1.00085 0.05217 0.74577 0.0
C1486 C 0.99202 0.08292 0.74206 0.0
C1487 C 0.98675 0.10536 0.75259 0.0
C1488 C 0.99044 0.09738 0.76687 0.0
C1489 C 0.99949 0.06697 0.77065 0.0
C1490 C 1.00477 0.04443 0.76016 0.0
C1491 C 0.12405 0.96603 0.71025 0.0
C1492 C 0.13693 0.95137 0.72231 0.0
C1493 C 0.09374 0.97899 0.71065 0.0
C1494 C 0.07536 0.9773 0.72306 0.0
C1495 C 0.08818 0.96271 0.73512 0.0
C1496 C 0.11859 0.94986 0.73475 0.0
C1497 C 0.04305 0.99118 0.7235 0.0
C1498 C 0.0358 0.01305 0.73416 0.0
C1499 C 0.01982 0.98394 0.71322 0.0
C1500 C 0.02504 0.95964 0.70222 0.0
C1501 C 0.03381 0.92895 0.70608 0.0
C1502 C 0.03889 0.90622 0.69566 0.0
C1503 C 0.03506 0.91382 0.68135 0.0
C1504 C 0.02605 0.94416 0.67743 0.0
C1505 C 0.02097 0.96699 0.6878 0.0
H1506 H 0.03901 0.89619 0.6733 0.0
H1507 H 0.98636 0.11479 0.77501 0.0
H1508 H 0.02107 0.37604 0.98488 0.0
H1509 H 1.00265 0.43027 0.98423 0.0
H1510 H 0.07883 0.45479 0.9559 0.0
H1511 H 0.09776 0.40049 0.95664 0.0
H1512 H 0.06939 0.50055 0.97523 0.0
H1513 H 1.00472 0.44119 0.94328 0.0
H1514 H 0.96949 0.39791 0.93617 0.0
H1515 H 0.90138 0.42675 0.96726 0.0
H1516 H 0.93642 0.46997 0.9747 0.0
H1517 H 1.00749 0.63886 0.94473 0.0
H1518 H 0.0266 0.58569 0.94878 0.0
H1519 H 0.95072 0.56903 0.97839 0.0
H1520 H 0.93124 0.62261 0.97437 0.0
H1521 H 0.95926 0.51963 0.95975 0.0
H1522 H 0.02333 0.58116 0.99072 0.0
H1523 H 0.05842 0.62505 0.99717 0.0
H1524 H 0.12766 0.59277 0.96732 0.0
H1525 H 0.09278 0.54888 0.96054 0.0
C1526 C 0.03415 0.39297 0.97859 0.0
C1527 C 0.0608 0.38377 0.97072 0.0
C1528 C 0.02346 0.42401 0.97819 0.0
C1529 C 0.03899 0.44657 0.96981 0.0
C1530 C 0.06636 0.4378 0.96239 0.0
C1531 C 0.07714 0.40671 0.96282 0.0
C1532 C 0.02603 0.47897 0.96842 0.0
C1533 C 0.04542 0.50471 0.9717 0.0
C1534 C 0.9945 0.4845 0.96412 0.0
C1535 C 0.97334 0.4586 0.95965 0.0
C1536 C 0.98234 0.43815 0.94868 0.0
C1537 C 0.96239 0.41365 0.94458 0.0
C1538 C 0.93325 0.40952 0.95129 0.0
C1539 C 0.92398 0.42994 0.96209 0.0
C1540 C 0.94386 0.45445 0.96625 0.0
C1541 C 0.99473 0.62398 0.95211 0.0
C1542 C 0.9678 0.6351 0.95925 0.0
C1543 C 1.00585 0.59356 0.95446 0.0
C1544 C 0.99037 0.57345 0.96402 0.0
C1545 C 0.96313 0.58419 0.97101 0.0
C1546 C 0.95205 0.61482 0.96872 0.0
C1547 C 1.00262 0.54116 0.96651 0.0
C1548 C 0.98314 0.51545 0.96339 0.0
C1549 C 0.03408 0.53569 0.9709 0.0
C1550 C 0.05531 0.56186 0.97504 0.0
C1551 C 0.04594 0.58353 0.98546 0.0
C1552 C 0.06581 0.60839 0.98919 0.0
C1553 C 0.09523 0.61171 0.98264 0.0
C1554 C 0.10486 0.59015 0.97238 0.0
C1555 C 0.08506 0.56525 0.9686 0.0
H1556 H 0.11057 0.63095 0.98557 0.0
H1557 H 0.91784 0.39055 0.9481 0.0
H1558 H 0.39218 0.95897 0.02885 0.0
H1559 H 0.44371 0.98362 0.02475 0.0
H1560 H 0.45866 0.98885 0.06991 0.0
H1561 H 0.40715 0.96496 0.07406 0.0
H1562 H 0.47365 0.04274 0.05806 0.0
H1563 H 0.49689 0.934 0.04815 0.0
H1564 H 0.48995 0.88327 0.03599 0.0
H1565 H 0.50872 0.92748 0.99588 0.0
H1566 H 0.5154 0.97858 0.00779 0.0
H1567 H 0.63691 0.07321 0.06245 0.0
H1568 H 0.5838 0.0514 0.06359 0.0
H1569 H 0.5798 0.04936 0.0179 0.0
H1570 H 0.63356 0.0704 0.01668 0.0
H1571 H 0.55768 0.99634 0.02811 0.0
H1572 H 0.53773 0.1045 0.03813 0.0
H1573 H 0.54486 0.15524 0.05026 0.0
H1574 H 0.51959 0.11257 0.09 0.0
H1575 H 0.51271 0.06148 0.07815 0.0
C1576 C 0.40658 0.96513 0.03789 0.0
C1577 C 0.3955 0.95996 0.05178 0.0
C1578 C 0.43609 0.97918 0.03554 0.0
C1579 C 0.45528 0.98799 0.04702 0.0
C1580 C 0.44434 0.98243 0.06087 0.0
C1581 C 0.41486 0.96862 0.06322 0.0
C1582 C 0.48638 1.00372 0.04476 0.0
C1583 C 0.49213 0.0324 0.05163 0.0
C1584 C 0.51023 0.99086 0.036 0.0
C1585 C 0.50631 0.96016 0.02884 0.0
C1586 C 0.4993 0.93294 0.03673 0.0
C1587 C 0.49546 0.90412 0.02988 0.0
C1588 C 0.4988 0.90217 0.01517 0.0
C1589 C 0.50609 0.92904 0.00727 0.0
C1590 C 0.50993 0.95792 0.01406 0.0
C1591 C 0.62469 0.06845 0.05261 0.0
C1592 C 0.63956 0.0737 0.03946 0.0
C1593 C 0.59416 0.05604 0.05328 0.0
C1594 C 0.57745 0.04907 0.04083 0.0
C1595 C 0.59211 0.05456 0.02767 0.0
C1596 C 0.62283 0.06674 0.02698 0.0
C1597 C 0.54516 0.0351 0.04162 0.0
C1598 C 0.53915 1.00681 0.03446 0.0
C1599 C 0.521 0.04834 0.05011 0.0
C1600 C 0.52493 0.0791 0.05726 0.0
C1601 C 0.53389 0.10589 0.04947 0.0
C1602 C 0.53786 0.13472 0.0563 0.0
C1603 C 0.53274 0.13711 0.0709 0.0
C1604 C 0.52356 0.11068 0.0787 0.0
C1605 C 0.51958 0.08179 0.07192 0.0
H1606 H 0.53584 0.15945 0.07616 0.0
H1607 H 0.49581 0.87984 0.00989 0.0
H1608 H 0.43511 0.39796 0.80559 0.0
H1609 H 0.45344 0.45238 0.80611 0.0
H1610 H 0.52983 0.42881 0.77782 0.0
H1611 H 0.51202 0.37422 0.77747 0.0
H1612 H 0.55146 0.46276 0.79891 0.0
H1613 H 0.46535 0.47259 0.76665 0.0
H1614 H 0.41071 0.46658 0.75819 0.0
H1615 H 0.37716 0.52209 0.79302 0.0
H1616 H 0.43158 0.52808 0.80181 0.0
H1617 H 0.59677 0.62398 0.78873 0.0
H1618 H 0.57887 0.57 0.78442 0.0
H1619 H 0.50282 0.58288 0.81427 0.0
H1620 H 0.52031 0.63654 0.81856 0.0
H1621 H 0.48221 0.55458 0.79042 0.0
H1622 H 0.56825 0.54171 0.8233 0.0
H1623 H 0.62301 0.54773 0.83164 0.0
H1624 H 0.65673 0.49795 0.7951 0.0
H1625 H 0.60215 0.49201 0.78645 0.0
C1626 C 0.4556 0.4044 0.79935 0.0
C1627 C 0.47206 0.38165 0.79148 0.0
C1628 C 0.46604 0.43561 0.79962 0.0
C1629 C 0.49293 0.44488 0.79191 0.0
C1630 C 0.50907 0.4223 0.78387 0.0
C1631 C 0.49874 0.39108 0.78364 0.0
C1632 C 0.50496 0.47777 0.79271 0.0
C1633 C 0.53642 0.48281 0.7968 0.0
C1634 C 0.48531 0.50406 0.79021 0.0
C1635 C 0.45254 0.50055 0.78495 0.0
C1636 C 0.4463 0.48331 0.77257 0.0
C1637 C 0.41537 0.47995 0.7677 0.0
C1638 C 0.39047 0.49388 0.77508 0.0
C1639 C 0.39646 0.51128 0.78732 0.0
C1640 C 0.42736 0.5147 0.79224 0.0
C1641 C 0.57628 0.61527 0.79438 0.0
C1642 C 0.56007 0.63461 0.80402 0.0
C1643 C 0.5661 0.58439 0.79193 0.0
C1644 C 0.53955 0.57229 0.79908 0.0
C1645 C 0.52329 0.59166 0.80861 0.0
C1646 C 0.53347 0.62236 0.81109 0.0
C1647 C 0.52853 0.53948 0.79675 0.0
C1648 C 0.49727 0.53448 0.79239 0.0
C1649 C 0.54837 0.51324 0.79895 0.0
C1650 C 0.58116 0.51674 0.80415 0.0
C1651 C 0.58736 0.53229 0.81699 0.0
C1652 C 0.61836 0.53564 0.82178 0.0
C1653 C 0.64334 0.52332 0.81388 0.0
C1654 C 0.63736 0.50754 0.80119 0.0
C1655 C 0.6064 0.50416 0.79635 0.0
H1656 H 0.66732 0.52593 0.81761 0.0
H1657 H 0.36653 0.49125 0.77129 0.0
H1658 H 0.60584 0.39629 0.22136 0.0
H1659 H 0.5541 0.4218 0.22066 0.0
H1660 H 0.59895 0.51125 0.21314 0.0
H1661 H 0.6507 0.48596 0.21374 0.0
H1662 H 0.54988 0.51429 0.23327 0.0
H1663 H 0.56758 0.47536 0.18615 0.0
H1664 H 0.58051 0.4352 0.16828 0.0
H1665 H 0.50066 0.38024 0.18152 0.0
H1666 H 0.48751 0.41989 0.19962 0.0
H1667 H 0.40906 0.59499 0.21179 0.0
H1668 H 0.46271 0.5738 0.21363 0.0
H1669 H 0.42495 0.47965 0.21398 0.0
H1670 H 0.37183 0.50052 0.2117 0.0
H1671 H 0.47225 0.48109 0.19699 0.0
H1672 H 0.45484 0.51812 0.24451 0.0
H1673 H 0.44193 0.557 0.26296 0.0
H1674 H 0.52041 0.61399 0.24981 0.0
H1675 H 0.53354 0.57562 0.23115 0.0
C1676 C 0.60472 0.42141 0.21963 0.0
C1677 C 0.63243 0.43903 0.21753 0.0
C1678 C 0.57513 0.43595 0.2192 0.0
C1679 C 0.57265 0.46842 0.21675 0.0
C1680 C 0.60029 0.48619 0.21504 0.0
C1681 C 0.62985 0.47164 0.21531 0.0
C1682 C 0.5412 0.48366 0.21558 0.0
C1683 C 0.53299 0.50733 0.22524 0.0
C1684 C 0.519 0.47423 0.20526 0.0
C1685 C 0.52675 0.45044 0.19433 0.0
C1686 C 0.55293 0.45459 0.18533 0.0
C1687 C 0.56027 0.43194 0.17515 0.0
C1688 C 0.54147 0.40514 0.17379 0.0
C1689 C 0.51523 0.40099 0.1826 0.0
C1690 C 0.50781 0.42355 0.19281 0.0
C1691 C 0.41226 0.5698 0.21234 0.0
C1692 C 0.38614 0.54948 0.21155 0.0
C1693 C 0.44294 0.55767 0.21345 0.0
C1694 C 0.44803 0.52503 0.21404 0.0
C1695 C 0.42184 0.50487 0.21346 0.0
C1696 C 0.39136 0.5169 0.21219 0.0
C1697 C 0.48045 0.51148 0.21487 0.0
C1698 C 0.48899 0.48815 0.20507 0.0
C1699 C 0.50282 0.52108 0.22514 0.0
C1700 C 0.49495 0.54418 0.23634 0.0
C1701 C 0.46919 0.53907 0.24548 0.0
C1702 C 0.46186 0.56099 0.25598 0.0
C1703 C 0.48028 0.588 0.25752 0.0
C1704 C 0.50612 0.59309 0.24858 0.0
C1705 C 0.51353 0.57126 0.23805 0.0
H1706 H 0.47458 0.60493 0.26567 0.0
H1707 H 0.54719 0.38764 0.1659 0.0
H1708 H 0.43146 0.1197 0.47447 0.0
H1709 H 0.45019 0.06559 0.47738 0.0
H1710 H 0.53296 0.08767 0.45258 0.0
H1711 H 0.5142 0.14118 0.44939 0.0
H1712 H 0.5098 0.03387 0.4443 0.0
H1713 H 0.53484 0.07987 0.48945 0.0
H1714 H 0.52344 0.10785 0.51173 0.0
H1715 H 0.45747 0.03589 0.52375 0.0
H1716 H 0.46818 1.00766 0.50144 0.0
H1717 H 0.60123 0.89901 0.45883 0.0
H1718 H 0.58327 0.95359 0.45839 0.0
H1719 H 0.5003 0.92749 0.48223 0.0
H1720 H 0.51832 0.87311 0.48296 0.0
H1721 H 0.52248 0.98277 0.49125 0.0
H1722 H 0.49768 0.9369 0.44607 0.0
H1723 H 0.50925 0.90897 0.42379 0.0
H1724 H 0.57501 0.98116 0.41182 0.0
H1725 H 0.56413 1.00933 0.43413 0.0
C1726 C 0.45366 0.113 0.46967 0.0
C1727 C 0.47127 0.13482 0.46169 0.0
C1728 C 0.46444 0.08208 0.47139 0.0
C1729 C 0.49319 0.07252 0.4653 0.0
C1730 C 0.51071 0.09434 0.45736 0.0
C1731 C 0.49991 0.12505 0.45557 0.0
C1732 C 0.50499 0.03972 0.46688 0.0
C1733 C 0.51293 0.0229 0.45459 0.0
C1734 C 0.50844 0.02497 0.48027 0.0
C1735 C 0.50207 0.04183 0.49371 0.0
C1736 C 0.51772 0.07013 0.4968 0.0
C1737 C 0.51142 0.08601 0.50944 0.0
C1738 C 0.48968 0.0737 0.51913 0.0
C1739 C 0.47427 0.04542 0.51622 0.0
C1740 C 0.48046 0.02946 0.50359 0.0
C1741 C 0.57934 0.90493 0.46412 0.0
C1742 C 0.56114 0.88157 0.47084 0.0
C1743 C 0.569 0.93614 0.46379 0.0
C1744 C 0.54012 0.94462 0.47006 0.0
C1745 C 0.52258 0.92158 0.47727 0.0
C1746 C 0.53293 0.89041 0.47764 0.0
C1747 C 0.52757 0.97715 0.46867 0.0
C1748 C 0.51938 0.99383 0.48097 0.0
C1749 C 0.52391 0.99185 0.45529 0.0
C1750 C 0.53031 0.97506 0.44183 0.0
C1751 C 0.51477 0.94671 0.43873 0.0
C1752 C 0.52118 0.93085 0.42609 0.0
C1753 C 0.54291 0.94324 0.41641 0.0
C1754 C 0.55821 0.97157 0.41933 0.0
C1755 C 0.55192 0.9875 0.43197 0.0
H1756 H 0.54784 0.93093 0.40663 0.0
H1757 H 0.48482 0.08603 0.52892 0.0
H1758 H 0.89379 0.47657 0.573 0.0
H1759 H 0.94524 0.49999 0.56837 0.0
H1760 H 0.94438 0.46231 0.52598 0.0
H1761 H 0.89261 0.43829 0.53061 0.0
H1762 H 1.0023 0.45609 0.53841 0.0
H1763 H 0.92808 0.53922 0.53145 0.0
H1764 H 0.88326 0.57332 0.53771 0.0
H1765 H 0.93323 0.60633 0.57432 0.0
H1766 H 0.97819 0.57207 0.5684 0.0
H1767 H 0.13355 0.54831 0.51672 0.0
H1768 H 0.08047 0.52605 0.51815 0.0
H1769 H 0.06959 0.56401 0.56023 0.0
H1770 H 0.12238 0.58701 0.55874 0.0
H1771 H 0.01646 0.57047 0.54607 0.0
H1772 H 0.08891 0.48542 0.55411 0.0
H1773 H 0.13371 0.45078 0.54842 0.0
H1774 H 0.08722 0.42101 0.51035 0.0
H1775 H 0.04231 0.45581 0.51572 0.0
C1776 C 0.90448 0.47308 0.56268 0.0
C1777 C 0.88889 0.45567 0.55214 0.0
C1778 C 0.93392 0.48666 0.56004 0.0
C1779 C 0.94849 0.48345 0.54674 0.0
C1780 C 0.93352 0.46528 0.5363 0.0
C1781 C 0.90393 0.45157 0.53895 0.0
C1782 C 0.97919 0.49937 0.54385 0.0
C1783 C 1.00528 0.48118 0.53984 0.0
C1784 C 0.98331 0.53204 0.546 0.0
C1785 C 0.95641 0.55289 0.54953 0.0
C1786 C 0.92943 0.55359 0.54089 0.0
C1787 C 0.90401 0.57297 0.54437 0.0
C1788 C 0.90537 0.59193 0.55642 0.0
C1789 C 0.9322 0.59161 0.565 0.0
C1790 C 0.95767 0.57224 0.56157 0.0
C1791 C 0.11978 0.5522 0.52624 0.0
C1792 C 0.13237 0.56933 0.53765 0.0
C1793 C 0.08945 0.53925 0.52707 0.0
C1794 C 0.07115 0.54275 0.53941 0.0
C1795 C 0.08323 0.56083 0.55061 0.0
C1796 C 0.11348 0.57398 0.54975 0.0
C1797 C 0.03974 0.52714 0.5408 0.0
C1798 C 0.01348 0.54541 0.54453 0.0
C1799 C 0.03552 0.49452 0.53845 0.0
C1800 C 0.06241 0.47347 0.53524 0.0
C1801 C 0.08835 0.47166 0.54448 0.0
C1802 C 0.11374 0.45197 0.54132 0.0
C1803 C 0.11335 0.43378 0.52901 0.0
C1804 C 0.08751 0.43516 0.51986 0.0
C1805 C 0.06207 0.45484 0.52296 0.0
H1806 H 0.13304 0.41855 0.52658 0.0
H1807 H 0.88566 0.60692 0.5591 0.0
loop_
_geom_bond_atom_site_label_1
_geom_bond_atom_site_label_2
_geom_bond_distance
_geom_bond_site_symmetry_2
_ccdc_geom_bond_type
Mg0 O7 2.141 . S
Mg0 O8 2.048 . S
Mg0 O9 2.048 . S
Mg0 O12 2.141 . S
C1 O2 1.313 . S
C1 O8 1.195 . S
O2 C1 1.313 . S
C3 O4 1.245 . S
C3 O12 1.289 . S
O4 C3 1.245 . S
C5 O6 1.245 . S
C5 O7 1.289 . S
O6 C5 1.245 . S
O7 Mg0 2.141 . S
O7 C5 1.289 . S
O8 Mg0 2.048 . S
O8 C1 1.195 . S
O9 Mg0 2.048 . S
O9 C10 1.195 . S
C10 O9 1.195 . S
C10 O11 1.313 . S
O11 C10 1.313 . S
O12 Mg0 2.141 . S
O12 C3 1.289 . S
Mg13 O20 2.141 . S
Mg13 O21 2.048 . S
Mg13 O22 2.048 . S
Mg13 O25 2.141 . S
C14 O15 1.313 . S
C14 O21 1.195 . S
O15 C14 1.313 . S
C16 O17 1.245 . S
C16 O25 1.289 . S
O17 C16 1.245 . S
C18 O19 1.245 . S
C18 O20 1.289 . S
O19 C18 1.245 . S
O20 Mg13 2.141 . S
O20 C18 1.289 . S
O21 Mg13 2.048 . S
O21 C14 1.195 . S
O22 Mg13 2.048 . S
O22 C23 1.195 . S
C23 O22 1.195 . S
C23 O24 1.313 . S
O24 C23 1.313 . S
O25 Mg13 2.141 . S
O25 C16 1.289 . S
Mg26 O33 2.141 . S
Mg26 O34 2.048 . S
Mg26 O35 2.048 . S
Mg26 O38 2.141 . S
C27 O28 1.313 . S
C27 O34 1.195 . S
O28 C27 1.313 . S
C29 O30 1.245 . S
C29 O38 1.289 . S
O30 C29 1.245 . S
C31 O32 1.245 . S
C31 O33 1.289 . S
O32 C31 1.245 . S
O33 Mg26 2.141 . S
O33 C31 1.289 . S
O34 Mg26 2.048 . S
O34 C27 1.195 . S
O35 Mg26 2.048 . S
O35 C36 1.195 . S
C36 O35 1.195 . S
C36 O37 1.313 . S
O37 C36 1.313 . S
O38 Mg26 2.141 . S
O38 C29 1.289 . S
Mg39 O46 2.141 . S
Mg39 O47 2.048 . S
Mg39 O48 2.048 . S
Mg39 O51 2.141 . S
C40 O41 1.313 . S
C40 O47 1.195 . S
O41 C40 1.313 . S
C42 O43 1.245 . S
C42 O51 1.289 . S
O43 C42 1.245 . S
C44 O45 1.245 . S
C44 O46 1.289 . S
O45 C44 1.245 . S
O46 Mg39 2.141 . S
O46 C44 1.289 . S
O47 Mg39 2.048 . S
O47 C40 1.195 . S
O48 Mg39 2.048 . S
O48 C49 1.195 . S
C49 O48 1.195 . S
C49 O50 1.313 . S
O50 C49 1.313 . S
O51 Mg39 2.141 . S
O51 C42 1.289 . S
Mg52 O59 2.141 . S
Mg52 O60 2.048 . S
Mg52 O61 2.048 . S
Mg52 O64 2.141 . S
C53 O54 1.313 . S
C53 O60 1.195 . S
O54 C53 1.313 . S
C55 O56 1.245 . S
C55 O64 1.289 . S
O56 C55 1.245 . S
C57 O58 1.245 . S
C57 O59 1.289 . S
O58 C57 1.245 . S
O59 Mg52 2.141 . S
O59 C57 1.289 . S
O60 Mg52 2.048 . S
O60 C53 1.195 . S
O61 Mg52 2.048 . S
O61 C62 1.195 . S
C62 O61 1.195 . S
C62 O63 1.313 . S
O63 C62 1.313 . S
O64 Mg52 2.141 . S
O64 C55 1.289 . S
Mg65 O72 2.141 . S
Mg65 O73 2.048 . S
Mg65 O74 2.048 . S
Mg65 O77 2.141 . S
C66 O67 1.313 . S
C66 O73 1.195 . S
O67 C66 1.313 . S
C68 O69 1.245 . S
C68 O77 1.289 . S
O69 C68 1.245 . S
C70 O71 1.245 . S
C70 O72 1.289 . S
O71 C70 1.245 . S
O72 Mg65 2.141 . S
O72 C70 1.289 . S
O73 Mg65 2.048 . S
O73 C66 1.195 . S
O74 Mg65 2.048 . S
O74 C75 1.195 . S
C75 O74 1.195 . S
C75 O76 1.313 . S
O76 C75 1.313 . S
O77 Mg65 2.141 . S
O77 C68 1.289 . S
Mg78 O85 2.141 . S
Mg78 O86 2.048 . S
Mg78 O87 2.048 . S
Mg78 O90 2.141 . S
C79 O80 1.313 . S
C79 O86 1.195 . S
O80 C79 1.313 . S
C81 O82 1.245 . S
C81 O90 1.289 . S
O82 C81 1.245 . S
C83 O84 1.245 . S
C83 O85 1.289 . S
O84 C83 1.245 . S
O85 Mg78 2.141 . S
O85 C83 1.289 . S
O86 Mg78 2.048 . S
O86 C79 1.195 . S
O87 Mg78 2.048 . S
O87 C88 1.195 . S
C88 O87 1.195 . S
C88 O89 1.313 . S
O89 C88 1.313 . S
O90 Mg78 2.141 . S
O90 C81 1.289 . S
Mg91 O98 2.141 . S
Mg91 O99 2.048 . S
Mg91 O100 2.048 . S
Mg91 O103 2.141 . S
C92 O93 1.313 . S
C92 O99 1.195 . S
O93 C92 1.313 . S
C94 O95 1.245 . S
C94 O103 1.289 . S
O95 C94 1.245 . S
C96 O97 1.245 . S
C96 O98 1.289 . S
O97 C96 1.245 . S
O98 Mg91 2.141 . S
O98 C96 1.289 . S
O99 Mg91 2.048 . S
O99 C92 1.195 . S
O100 Mg91 2.048 . S
O100 C101 1.195 . S
C101 O100 1.195 . S
C101 O102 1.313 . S
O102 C101 1.313 . S
O103 Mg91 2.141 . S
O103 C94 1.289 . S
Mg104 O111 2.141 . S
Mg104 O112 2.048 . S
Mg104 O113 2.048 . S
Mg104 O116 2.141 . S
C105 O106 1.313 . S
C105 O112 1.195 . S
O106 C105 1.313 . S
C107 O108 1.245 . S
C107 O116 1.289 . S
O108 C107 1.245 . S
C109 O110 1.245 . S
C109 O111 1.289 . S
O110 C109 1.245 . S
O111 Mg104 2.141 . S
O111 C109 1.289 . S
O112 Mg104 2.048 . S
O112 C105 1.195 . S
O113 Mg104 2.048 . S
O113 C114 1.195 . S
C114 O113 1.195 . S
C114 O115 1.313 . S
O115 C114 1.313 . S
O116 Mg104 2.141 . S
O116 C107 1.289 . S
Mg117 O124 2.141 . S
Mg117 O125 2.048 . S
Mg117 O126 2.048 . S
Mg117 O129 2.141 . S
C118 O119 1.313 . S
C118 O125 1.195 . S
O119 C118 1.313 . S
C120 O121 1.245 . S
C120 O129 1.289 . S
O121 C120 1.245 . S
C122 O123 1.245 . S
C122 O124 1.289 . S
O123 C122 1.245 . S
O124 Mg117 2.141 . S
O124 C122 1.289 . S
O125 Mg117 2.048 . S
O125 C118 1.195 . S
O126 Mg117 2.048 . S
O126 C127 1.195 . S
C127 O126 1.195 . S
C127 O128 1.313 . S
O128 C127 1.313 . S
O129 Mg117 2.141 . S
O129 C120 1.289 . S
Mg130 O137 2.141 . S
Mg130 O138 2.048 . S
Mg130 O139 2.048 . S
Mg130 O142 2.141 . S
C131 O132 1.313 . S
C131 O138 1.195 . S
O132 C131 1.313 . S
C133 O134 1.245 . S
C133 O142 1.289 . S
O134 C133 1.245 . S
C135 O136 1.245 . S
C135 O137 1.289 . S
O136 C135 1.245 . S
O137 Mg130 2.141 . S
O137 C135 1.289 . S
O138 Mg130 2.048 . S
O138 C131 1.195 . S
O139 Mg130 2.048 . S
O139 C140 1.195 . S
C140 O139 1.195 . S
C140 O141 1.313 . S
O141 C140 1.313 . S
O142 Mg130 2.141 . S
O142 C133 1.289 . S
Mg143 O150 2.141 . S
Mg143 O151 2.048 . S
Mg143 O152 2.048 . S
Mg143 O155 2.141 . S
C144 O145 1.313 . S
C144 O151 1.195 . S
O145 C144 1.313 . S
C146 O147 1.245 . S
C146 O155 1.289 . S
O147 C146 1.245 . S
C148 O149 1.245 . S
C148 O150 1.289 . S
O149 C148 1.245 . S
O150 Mg143 2.141 . S
O150 C148 1.289 . S
O151 Mg143 2.048 . S
O151 C144 1.195 . S
O152 Mg143 2.048 . S
O152 C153 1.195 . S
C153 O152 1.195 . S
C153 O154 1.313 . S
O154 C153 1.313 . S
O155 Mg143 2.141 . S
O155 C146 1.289 . S
Mg156 O163 2.141 . S
Mg156 O164 2.048 . S
Mg156 O165 2.048 . S
Mg156 O168 2.141 . S
C157 O158 1.313 . S
C157 O164 1.195 . S
O158 C157 1.313 . S
C159 O160 1.245 . S
C159 O168 1.289 . S
O160 C159 1.245 . S
C161 O162 1.245 . S
C161 O163 1.289 . S
O162 C161 1.245 . S
O163 Mg156 2.141 . S
O163 C161 1.289 . S
O164 Mg156 2.048 . S
O164 C157 1.195 . S
O165 Mg156 2.048 . S
O165 C166 1.195 . S
C166 O165 1.195 . S
C166 O167 1.313 . S
O167 C166 1.313 . S
O168 Mg156 2.141 . S
O168 C159 1.289 . S
Mg169 O176 2.141 . S
Mg169 O177 2.048 . S
Mg169 O178 2.048 . S
Mg169 O181 2.141 . S
C170 O171 1.313 . S
C170 O177 1.195 . S
O171 C170 1.313 . S
C172 O173 1.245 . S
C172 O181 1.289 . S
O173 C172 1.245 . S
C174 O175 1.245 . S
C174 O176 1.289 . S
O175 C174 1.245 . S
O176 Mg169 2.141 . S
O176 C174 1.289 . S
O177 Mg169 2.048 . S
O177 C170 1.195 . S
O178 Mg169 2.048 . S
O178 C179 1.195 . S
C179 O178 1.195 . S
C179 O180 1.313 . S
O180 C179 1.313 . S
O181 Mg169 2.141 . S
O181 C172 1.289 . S
Mg182 O189 2.141 . S
Mg182 O190 2.048 . S
Mg182 O191 2.048 . S
Mg182 O194 2.141 . S
C183 O184 1.313 . S
C183 O190 1.195 . S
O184 C183 1.313 . S
C185 O186 1.245 . S
C185 O194 1.289 . S
O186 C185 1.245 . S
C187 O188 1.245 . S
C187 O189 1.289 . S
O188 C187 1.245 . S
O189 Mg182 2.141 . S
O189 C187 1.289 . S
O190 Mg182 2.048 . S
O190 C183 1.195 . S
O191 Mg182 2.048 . S
O191 C192 1.195 . S
C192 O191 1.195 . S
C192 O193 1.313 . S
O193 C192 1.313 . S
O194 Mg182 2.141 . S
O194 C185 1.289 . S
Mg195 O202 2.141 . S
Mg195 O203 2.048 . S
Mg195 O204 2.048 . S
Mg195 O207 2.141 . S
C196 O197 1.313 . S
C196 O203 1.195 . S
O197 C196 1.313 . S
C198 O199 1.245 . S
C198 O207 1.289 . S
O199 C198 1.245 . S
C200 O201 1.245 . S
C200 O202 1.289 . S
O201 C200 1.245 . S
O202 Mg195 2.141 . S
O202 C200 1.289 . S
O203 Mg195 2.048 . S
O203 C196 1.195 . S
O204 Mg195 2.048 . S
O204 C205 1.195 . S
C205 O204 1.195 . S
C205 O206 1.313 . S
O206 C205 1.313 . S
O207 Mg195 2.141 . S
O207 C198 1.289 . S
H208 C226 0.951 . S
H209 C228 0.951 . S
H210 C230 0.950 . S
H211 C231 0.950 . S
H212 C233 0.950 . S
H213 C236 0.950 . S
H214 C237 0.950 . S
H215 C239 0.950 . S
H216 C240 0.950 . S
H217 C241 0.951 . S
H218 C243 0.951 . S
H219 C245 0.950 . S
H220 C246 0.950 . S
H221 C248 0.950 . S
H222 C251 0.950 . S
H223 C252 0.950 . S
H224 C254 0.950 . S
H225 C255 0.950 . S
C226 H208 0.951 . S
C226 C227 1.366 . S
C226 C228 1.388 . S
C227 C226 1.366 . S
C227 C231 1.385 . S
C228 H209 0.951 . S
C228 C226 1.388 . S
C228 C229 1.366 . S
C229 C228 1.366 . S
C229 C230 1.414 . S
C229 C232 1.499 . S
C230 H210 0.950 . S
C230 C229 1.414 . S
C230 C231 1.374 . S
C231 H211 0.950 . S
C231 C227 1.385 . S
C231 C230 1.374 . S
C232 C229 1.499 . S
C232 C233 1.373 . S
C232 C234 1.389 . S
C233 H212 0.950 . S
C233 C232 1.373 . S
C233 C249 1.377 . S
C234 C232 1.389 . S
C234 C235 1.524 . S
C234 C248 1.377 . S
C235 C234 1.524 . S
C235 C236 1.397 . S
C235 C240 1.363 . S
C236 H213 0.950 . S
C236 C235 1.397 . S
C236 C237 1.334 . S
C237 H214 0.950 . S
C237 C236 1.334 . S
C237 C238 1.287 . S
C238 C237 1.287 . S
C238 C239 1.524 . S
C238 H257 0.913 . S
C239 H215 0.950 . S
C239 C238 1.524 . S
C239 C240 1.415 . S
C240 H216 0.950 . S
C240 C235 1.363 . S
C240 C239 1.415 . S
C241 H217 0.951 . S
C241 C242 1.366 . S
C241 C243 1.388 . S
C242 C241 1.366 . S
C242 C246 1.385 . S
C243 H218 0.951 . S
C243 C241 1.388 . S
C243 C244 1.366 . S
C244 C243 1.366 . S
C244 C245 1.414 . S
C244 C247 1.499 . S
C245 H219 0.950 . S
C245 C244 1.414 . S
C245 C246 1.374 . S
C246 H220 0.950 . S
C246 C242 1.385 . S
C246 C245 1.374 . S
C247 C244 1.499 . S
C247 C248 1.373 . S
C247 C249 1.389 . S
C248 H221 0.950 . S
C248 C234 1.377 . S
C248 C247 1.373 . S
C249 C233 1.377 . S
C249 C247 1.389 . S
C249 C250 1.524 . S
C250 C249 1.524 . S
C250 C251 1.397 . S
C250 C255 1.363 . S
C251 H222 0.950 . S
C251 C250 1.397 . S
C251 C252 1.334 . S
C252 H223 0.950 . S
C252 C251 1.334 . S
C252 C253 1.287 . S
C253 C252 1.287 . S
C253 C254 1.524 . S
C253 H256 0.999 . S
C254 H224 0.950 . S
C254 C253 1.524 . S
C254 C255 1.415 . S
C255 H225 0.950 . S
C255 C250 1.363 . S
C255 C254 1.415 . S
H256 C253 0.999 . S
H257 C238 0.913 . S
H258 C276 0.951 . S
H259 C278 0.951 . S
H260 C280 0.950 . S
H261 C281 0.950 . S
H262 C283 0.950 . S
H263 C286 0.950 . S
H264 C287 0.950 . S
H265 C289 0.950 . S
H266 C290 0.950 . S
H267 C291 0.951 . S
H268 C293 0.951 . S
H269 C295 0.950 . S
H270 C296 0.950 . S
H271 C298 0.950 . S
H272 C301 0.950 . S
H273 C302 0.950 . S
H274 C304 0.950 . S
H275 C305 0.950 . S
C276 H258 0.951 . S
C276 C277 1.366 . S
C276 C278 1.388 . S
C277 C276 1.366 . S
C277 C281 1.385 . S
C278 H259 0.951 . S
C278 C276 1.388 . S
C278 C279 1.366 . S
C279 C278 1.366 . S
C279 C280 1.414 . S
C279 C282 1.499 . S
C280 H260 0.950 . S
C280 C279 1.414 . S
C280 C281 1.374 . S
C281 H261 0.950 . S
C281 C277 1.385 . S
C281 C280 1.374 . S
C282 C279 1.499 . S
C282 C283 1.373 . S
C282 C284 1.389 . S
C283 H262 0.950 . S
C283 C282 1.373 . S
C283 C299 1.377 . S
C284 C282 1.389 . S
C284 C285 1.524 . S
C284 C298 1.377 . S
C285 C284 1.524 . S
C285 C286 1.397 . S
C285 C290 1.363 . S
C286 H263 0.950 . S
C286 C285 1.397 . S
C286 C287 1.334 . S
C287 H264 0.950 . S
C287 C286 1.334 . S
C287 C288 1.287 . S
C288 C287 1.287 . S
C288 C289 1.524 . S
C288 H307 0.913 . S
C289 H265 0.950 . S
C289 C288 1.524 . S
C289 C290 1.415 . S
C290 H266 0.950 . S
C290 C285 1.363 . S
C290 C289 1.415 . S
C291 H267 0.951 . S
C291 C292 1.366 . S
C291 C293 1.388 . S
C292 C291 1.366 . S
C292 C296 1.385 . S
C293 H268 0.951 . S
C293 C291 1.388 . S
C293 C294 1.366 . S
C294 C293 1.366 . S
C294 C295 1.414 . S
C294 C297 1.499 . S
C295 H269 0.950 . S
C295 C294 1.414 . S
C295 C296 1.374 . S
C296 H270 0.950 . S
C296 C292 1.385 . S
C296 C295 1.374 . S
C297 C294 1.499 . S
C297 C298 1.373 . S
C297 C299 1.389 . S
C298 H271 0.950 . S
C298 C284 1.377 . S
C298 C297 1.373 . S
C299 C283 1.377 . S
C299 C297 1.389 . S
C299 C300 1.524 . S
C300 C299 1.524 . S
C300 C301 1.397 . S
C300 C305 1.363 . S
C301 H272 0.950 . S
C301 C300 1.397 . S
C301 C302 1.334 . S
C302 H273 0.950 . S
C302 C301 1.334 . S
C302 C303 1.287 . S
C303 C302 1.287 . S
C303 C304 1.524 . S
C303 H306 0.999 . S
C304 H274 0.950 . S
C304 C303 1.524 . S
C304 C305 1.415 . S
C305 H275 0.950 . S
C305 C300 1.363 . S
C305 C304 1.415 . S
H306 C303 0.999 . S
H307 C288 0.913 . S
H308 C326 0.951 . S
H309 C328 0.951 . S
H310 C330 0.950 . S
H311 C331 0.950 . S
H312 C333 0.950 . S
H313 C336 0.950 . S
H314 C337 0.950 . S
H315 C339 0.950 . S
H316 C340 0.950 . S
H317 C341 0.951 . S
H318 C343 0.951 . S
H319 C345 0.950 . S
H320 C346 0.950 . S
H321 C348 0.950 . S
H322 C351 0.950 . S
H323 C352 0.950 . S
H324 C354 0.950 . S
H325 C355 0.950 . S
C326 H308 0.951 . S
C326 C327 1.366 . S
C326 C328 1.388 . S
C327 C326 1.366 . S
C327 C331 1.385 . S
C328 H309 0.951 . S
C328 C326 1.388 . S
C328 C329 1.366 . S
C329 C328 1.366 . S
C329 C330 1.414 . S
C329 C332 1.499 . S
C330 H310 0.950 . S
C330 C329 1.414 . S
C330 C331 1.374 . S
C331 H311 0.950 . S
C331 C327 1.385 . S
C331 C330 1.374 . S
C332 C329 1.499 . S
C332 C333 1.373 . S
C332 C334 1.389 . S
C333 H312 0.950 . S
C333 C332 1.373 . S
C333 C349 1.377 . S
C334 C332 1.389 . S
C334 C335 1.524 . S
C334 C348 1.377 . S
C335 C334 1.524 . S
C335 C336 1.397 . S
C335 C340 1.363 . S
C336 H313 0.950 . S
C336 C335 1.397 . S
C336 C337 1.334 . S
C337 H314 0.950 . S
C337 C336 1.334 . S
C337 C338 1.287 . S
C338 C337 1.287 . S
C338 C339 1.524 . S
C338 H357 0.913 . S
C339 H315 0.950 . S
C339 C338 1.524 . S
C339 C340 1.415 . S
C340 H316 0.950 . S
C340 C335 1.363 . S
C340 C339 1.415 . S
C341 H317 0.951 . S
C341 C342 1.366 . S
C341 C343 1.388 . S
C342 C341 1.366 . S
C342 C346 1.385 . S
C343 H318 0.951 . S
C343 C341 1.388 . S
C343 C344 1.366 . S
C344 C343 1.366 . S
C344 C345 1.414 . S
C344 C347 1.499 . S
C345 H319 0.950 . S
C345 C344 1.414 . S
C345 C346 1.374 . S
C346 H320 0.950 . S
C346 C342 1.385 . S
C346 C345 1.374 . S
C347 C344 1.499 . S
C347 C348 1.373 . S
C347 C349 1.389 . S
C348 H321 0.950 . S
C348 C334 1.377 . S
C348 C347 1.373 . S
C349 C333 1.377 . S
C349 C347 1.389 . S
C349 C350 1.524 . S
C350 C349 1.524 . S
C350 C351 1.397 . S
C350 C355 1.363 . S
C351 H322 0.950 . S
C351 C350 1.397 . S
C351 C352 1.334 . S
C352 H323 0.950 . S
C352 C351 1.334 . S
C352 C353 1.287 . S
C353 C352 1.287 . S
C353 C354 1.524 . S
C353 H356 0.999 . S
C354 H324 0.950 . S
C354 C353 1.524 . S
C354 C355 1.415 . S
C355 H325 0.950 . S
C355 C350 1.363 . S
C355 C354 1.415 . S
H356 C353 0.999 . S
H357 C338 0.913 . S
H358 C376 0.951 . S
H359 C378 0.951 . S
H360 C380 0.950 . S
H361 C381 0.950 . S
H362 C383 0.950 . S
H363 C386 0.950 . S
H364 C387 0.950 . S
H365 C389 0.950 . S
H366 C390 0.950 . S
H367 C391 0.951 . S
H368 C393 0.951 . S
H369 C395 0.950 . S
H370 C396 0.950 . S
H371 C398 0.950 . S
H372 C401 0.950 . S
H373 C402 0.950 . S
H374 C404 0.950 . S
H375 C405 0.950 . S
C376 H358 0.951 . S
C376 C377 1.366 . S
C376 C378 1.388 . S
C377 C376 1.366 . S
C377 C381 1.385 . S
C378 H359 0.951 . S
C378 C376 1.388 . S
C378 C379 1.366 . S
C379 C378 1.366 . S
C379 C380 1.414 . S
C379 C382 1.499 . S
C380 H360 0.950 . S
C380 C379 1.414 . S
C380 C381 1.374 . S
C381 H361 0.950 . S
C381 C377 1.385 . S
C381 C380 1.374 . S
C382 C379 1.499 . S
C382 C383 1.373 . S
C382 C384 1.389 . S
C383 H362 0.950 . S
C383 C382 1.373 . S
C383 C399 1.377 . S
C384 C382 1.389 . S
C384 C385 1.524 . S
C384 C398 1.377 . S
C385 C384 1.524 . S
C385 C386 1.397 . S
C385 C390 1.363 . S
C386 H363 0.950 . S
C386 C385 1.397 . S
C386 C387 1.334 . S
C387 H364 0.950 . S
C387 C386 1.334 . S
C387 C388 1.287 . S
C388 C387 1.287 . S
C388 C389 1.524 . S
C388 H407 0.913 . S
C389 H365 0.950 . S
C389 C388 1.524 . S
C389 C390 1.415 . S
C390 H366 0.950 . S
C390 C385 1.363 . S
C390 C389 1.415 . S
C391 H367 0.951 . S
C391 C392 1.366 . S
C391 C393 1.388 . S
C392 C391 1.366 . S
C392 C396 1.385 . S
C393 H368 0.951 . S
C393 C391 1.388 . S
C393 C394 1.366 . S
C394 C393 1.366 . S
C394 C395 1.414 . S
C394 C397 1.499 . S
C395 H369 0.950 . S
C395 C394 1.414 . S
C395 C396 1.374 . S
C396 H370 0.950 . S
C396 C392 1.385 . S
C396 C395 1.374 . S
C397 C394 1.499 . S
C397 C398 1.373 . S
C397 C399 1.389 . S
C398 H371 0.950 . S
C398 C384 1.377 . S
C398 C397 1.373 . S
C399 C383 1.377 . S
C399 C397 1.389 . S
C399 C400 1.524 . S
C400 C399 1.524 . S
C400 C401 1.397 . S
C400 C405 1.363 . S
C401 H372 0.950 . S
C401 C400 1.397 . S
C401 C402 1.334 . S
C402 H373 0.950 . S
C402 C401 1.334 . S
C402 C403 1.287 . S
C403 C402 1.287 . S
C403 C404 1.524 . S
C403 H406 0.999 . S
C404 H374 0.950 . S
C404 C403 1.524 . S
C404 C405 1.415 . S
C405 H375 0.950 . S
C405 C400 1.363 . S
C405 C404 1.415 . S
H406 C403 0.999 . S
H407 C388 0.913 . S
H408 C426 0.951 1_565 S
H409 C428 0.916 1_556 S
H410 C430 0.950 . S
H411 C431 0.950 . S
H412 C433 0.950 . S
H413 C436 0.950 . S
H414 C437 0.950 . S
H415 C439 0.987 . S
H416 C440 0.950 . S
H417 C441 0.951 . S
H418 C443 0.951 . S
H419 C445 0.950 . S
H420 C446 0.950 . S
H421 C448 0.950 . S
H422 C451 0.950 . S
H423 C452 0.950 . S
H424 C454 0.950 . S
H425 C455 0.950 . S
C426 H408 0.951 1_545 S
C426 C427 1.366 1_545 S
C426 C428 1.408 . S
C427 C426 1.366 1_565 S
C427 C431 1.385 . S
C428 H409 0.916 1_554 S
C428 C426 1.408 . S
C428 C429 1.383 . S
C429 C428 1.383 . S
C429 C430 1.414 . S
C429 C432 1.484 1_554 S
C430 H410 0.950 . S
C430 C429 1.414 . S
C430 C431 1.374 1_545 S
C431 H411 0.950 . S
C431 C427 1.385 . S
C431 C430 1.374 1_565 S
C432 C429 1.484 1_556 S
C432 C433 1.391 . S
C432 C434 1.392 . S
C433 H412 0.950 . S
C433 C432 1.391 . S
C433 C449 1.377 . S
C434 C432 1.392 . S
C434 C435 1.524 1_556 S
C434 C448 1.377 . S
C435 C434 1.524 1_554 S
C435 C436 1.397 . S
C435 C440 1.363 1_554 S
C436 H413 0.950 . S
C436 C435 1.397 . S
C436 C437 1.334 . S
C437 H414 0.950 . S
C437 C436 1.334 . S
C437 C438 1.287 . S
C438 C437 1.287 . S
C438 C439 1.524 . S
C438 H457 0.913 . S
C439 H415 0.987 . S
C439 C438 1.524 . S
C439 C440 1.415 1_554 S
C440 H416 0.950 . S
C440 C435 1.363 1_556 S
C440 C439 1.415 1_556 S
C441 H417 0.951 . S
C441 C442 1.366 . S
C441 C443 1.388 . S
C442 C441 1.366 . S
C442 C446 1.385 . S
C443 H418 0.951 . S
C443 C441 1.388 . S
C443 C444 1.366 . S
C444 C443 1.366 . S
C444 C445 1.414 . S
C444 C447 1.499 . S
C445 H419 0.950 . S
C445 C444 1.414 . S
C445 C446 1.374 . S
C446 H420 0.950 . S
C446 C442 1.385 . S
C446 C445 1.374 . S
C447 C444 1.499 . S
C447 C448 1.373 . S
C447 C449 1.389 . S
C448 H421 0.950 . S
C448 C434 1.377 . S
C448 C447 1.373 . S
C449 C433 1.377 . S
C449 C447 1.389 . S
C449 C450 1.524 . S
C450 C449 1.524 . S
C450 C451 1.397 . S
C450 C455 1.363 . S
C451 H422 0.950 . S
C451 C450 1.397 . S
C451 C452 1.334 . S
C452 H423 0.950 . S
C452 C451 1.334 . S
C452 C453 1.287 . S
C453 C452 1.287 . S
C453 C454 1.524 . S
C453 H456 0.999 . S
C454 H424 0.950 . S
C454 C453 1.524 . S
C454 C455 1.415 . S
C455 H425 0.950 . S
C455 C450 1.363 . S
C455 C454 1.415 . S
H456 C453 0.999 . S
H457 C438 0.913 . S
H458 C476 0.951 . S
H459 C478 0.951 . S
H460 C480 0.950 . S
H461 C481 0.950 . S
H462 C483 0.934 1_556 S
H463 C486 0.950 . S
H464 C487 0.950 . S
H465 C489 0.950 . S
H466 C490 0.950 . S
H467 C491 0.951 . S
H468 C493 0.951 . S
H469 C495 0.950 . S
H470 C496 0.950 . S
H471 C498 0.950 . S
H472 C501 0.950 . S
H473 C502 0.950 . S
H474 C504 0.950 . S
H475 C505 0.950 . S
C476 H458 0.951 . S
C476 C477 1.366 . S
C476 C478 1.388 . S
C477 C476 1.366 . S
C477 C481 1.385 . S
C478 H459 0.951 . S
C478 C476 1.388 . S
C478 C479 1.366 . S
C479 C478 1.366 . S
C479 C480 1.414 . S
C479 C482 1.499 . S
C480 H460 0.950 . S
C480 C479 1.414 . S
C480 C481 1.374 . S
C481 H461 0.950 . S
C481 C477 1.385 . S
C481 C480 1.374 . S
C482 C479 1.499 . S
C482 C483 1.405 . S
C482 C484 1.389 . S
C483 H462 0.934 1_554 S
C483 C482 1.405 . S
C483 C499 1.361 1_554 S
C484 C482 1.389 . S
C484 C485 1.524 . S
C484 C498 1.377 . S
C485 C484 1.524 . S
C485 C486 1.397 . S
C485 C490 1.363 . S
C486 H463 0.950 . S
C486 C485 1.397 . S
C486 C487 1.334 . S
C487 H464 0.950 . S
C487 C486 1.334 . S
C487 C488 1.287 . S
C488 C487 1.287 . S
C488 C489 1.524 . S
C488 H507 0.913 . S
C489 H465 0.950 . S
C489 C488 1.524 . S
C489 C490 1.415 . S
C490 H466 0.950 . S
C490 C485 1.363 . S
C490 C489 1.415 . S
C491 H467 0.951 . S
C491 C492 1.366 1_455 S
C491 C493 1.388 . S
C492 C491 1.366 1_655 S
C492 C496 1.385 . S
C493 H468 0.951 . S
C493 C491 1.388 . S
C493 C494 1.366 . S
C494 C493 1.366 . S
C494 C495 1.414 . S
C494 C497 1.478 1_556 S
C495 H469 0.950 . S
C495 C494 1.414 . S
C495 C496 1.374 1_455 S
C496 H470 0.950 . S
C496 C492 1.385 . S
C496 C495 1.374 1_655 S
C497 C494 1.478 1_554 S
C497 C498 1.425 . S
C497 C499 1.365 1_554 S
C498 H471 0.950 . S
C498 C484 1.377 . S
C498 C497 1.425 . S
C499 C483 1.361 1_556 S
C499 C497 1.365 1_556 S
C499 C500 1.524 . S
C500 C499 1.524 . S
C500 C501 1.397 . S
C500 C505 1.363 . S
C501 H472 0.950 . S
C501 C500 1.397 . S
C501 C502 1.334 . S
C502 H473 0.950 . S
C502 C501 1.334 . S
C502 C503 1.287 . S
C503 C502 1.287 . S
C503 C504 1.524 . S
C503 H506 0.999 . S
C504 H474 0.950 . S
C504 C503 1.524 . S
C504 C505 1.415 . S
C505 H475 0.950 . S
C505 C500 1.363 . S
C505 C504 1.415 . S
H506 C503 0.999 . S
H507 C488 0.913 . S
H508 C526 0.951 . S
H509 C528 0.951 . S
H510 C530 0.950 . S
H511 C531 0.950 . S
H512 C533 0.950 . S
H513 C536 0.950 . S
H514 C537 0.950 . S
H515 C539 0.950 . S
H516 C540 0.950 . S
H517 C541 0.951 . S
H518 C543 0.951 . S
H519 C545 0.933 1_556 S
H520 C546 0.950 1_545 S
H521 C548 0.950 . S
H522 C551 0.950 . S
H523 C552 0.950 . S
H524 C554 0.950 . S
H525 C555 0.950 . S
C526 H508 0.951 . S
C526 C527 1.366 . S
C526 C528 1.388 . S
C527 C526 1.366 . S
C527 C531 1.385 . S
C528 H509 0.951 . S
C528 C526 1.388 . S
C528 C529 1.366 . S
C529 C528 1.366 . S
C529 C530 1.414 . S
C529 C532 1.499 . S
C530 H510 0.950 . S
C530 C529 1.414 . S
C530 C531 1.374 . S
C531 H511 0.950 . S
C531 C527 1.385 . S
C531 C530 1.374 . S
C532 C529 1.499 . S
C532 C533 1.373 1_556 S
C532 C534 1.389 . S
C533 H512 0.950 . S
C533 C532 1.373 1_554 S
C533 C549 1.377 . S
C534 C532 1.389 . S
C534 C535 1.524 . S
C534 C548 1.377 . S
C535 C534 1.524 . S
C535 C536 1.397 . S
C535 C540 1.363 . S
C536 H513 0.950 . S
C536 C535 1.397 . S
C536 C537 1.334 . S
C537 H514 0.950 . S
C537 C536 1.334 . S
C537 C538 1.287 . S
C538 C537 1.287 . S
C538 C539 1.524 . S
C538 H557 0.913 . S
C539 H515 0.950 . S
C539 C538 1.524 . S
C539 C540 1.415 . S
C540 H516 0.950 . S
C540 C535 1.363 . S
C540 C539 1.415 . S
C541 H517 0.951 . S
C541 C542 1.366 . S
C541 C543 1.388 1_545 S
C542 C541 1.366 . S
C542 C546 1.385 1_545 S
C543 H518 0.951 . S
C543 C541 1.388 1_565 S
C543 C544 1.366 . S
C544 C543 1.366 . S
C544 C545 1.422 . S
C544 C547 1.499 1_554 S
C545 H519 0.933 1_554 S
C545 C544 1.422 . S
C545 C546 1.384 . S
C546 H520 0.950 1_565 S
C546 C542 1.385 1_565 S
C546 C545 1.384 . S
C547 C544 1.499 1_556 S
C547 C548 1.373 . S
C547 C549 1.389 1_556 S
C548 H521 0.950 . S
C548 C534 1.377 . S
C548 C547 1.373 . S
C549 C533 1.377 . S
C549 C547 1.389 1_554 S
C549 C550 1.524 . S
C550 C549 1.524 . S
C550 C551 1.397 . S
C550 C555 1.363 . S
C551 H522 0.950 . S
C551 C550 1.397 . S
C551 C552 1.334 . S
C552 H523 0.950 . S
C552 C551 1.334 . S
C552 C553 1.287 . S
C553 C552 1.287 . S
C553 C554 1.524 . S
C553 H556 0.999 . S
C554 H524 0.950 . S
C554 C553 1.524 . S
C554 C555 1.415 . S
C555 H525 0.950 . S
C555 C550 1.363 . S
C555 C554 1.415 . S
H556 C553 0.999 . S
H557 C538 0.913 . S
H558 C576 0.951 . S
H559 C578 0.951 . S
H560 C580 0.867 1_556 S
H561 C581 0.950 . S
H562 C583 0.939 1_556 S
H563 C586 0.950 . S
H564 C587 0.950 . S
H565 C589 0.950 . S
H566 C590 0.950 . S
H567 C591 0.951 . S
H568 C593 0.951 . S
H569 C595 0.950 . S
H570 C596 0.916 1_554 S
H571 C598 0.950 . S
H572 C601 0.950 1_554 S
H573 C602 0.950 1_455 S
H574 C604 0.950 . S
H575 C605 0.950 . S
C576 H558 0.951 . S
C576 C577 1.366 . S
C576 C578 1.388 . S
C577 C576 1.366 . S
C577 C581 1.385 . S
C578 H559 0.951 . S
C578 C576 1.388 . S
C578 C579 1.366 . S
C579 C578 1.366 . S
C579 C580 1.414 . S
C579 C582 1.499 . S
C580 H560 0.867 1_554 S
C580 C579 1.414 . S
C580 C581 1.374 . S
C581 H561 0.950 . S
C581 C577 1.385 . S
C581 C580 1.374 . S
C582 C579 1.499 . S
C582 C583 1.373 . S
C582 C584 1.389 . S
C583 H562 0.939 1_554 S
C583 C582 1.373 . S
C583 C599 1.377 1_554 S
C584 C582 1.389 . S
C584 C585 1.524 . S
C584 C598 1.377 . S
C585 C584 1.524 . S
C585 C586 1.397 . S
C585 C590 1.363 . S
C586 H563 0.950 . S
C586 C585 1.397 . S
C586 C587 1.334 . S
C587 H564 0.950 . S
C587 C586 1.334 . S
C587 C588 1.287 . S
C588 C587 1.287 . S
C588 C589 1.524 . S
C588 H607 0.913 . S
C589 H565 0.950 . S
C589 C588 1.524 . S
C589 C590 1.415 . S
C590 H566 0.950 . S
C590 C585 1.363 . S
C590 C589 1.415 . S
C591 H567 0.951 . S
C591 C592 1.366 1_655 S
C591 C593 1.388 . S
C592 C591 1.366 1_455 S
C592 C596 1.440 . S
C593 H568 0.951 . S
C593 C591 1.388 . S
C593 C594 1.366 . S
C594 C593 1.366 . S
C594 C595 1.414 1_556 S
C594 C597 1.499 1_556 S
C595 H569 0.950 . S
C595 C594 1.414 1_554 S
C595 C596 1.353 1_654 S
C596 H570 0.916 1_556 S
C596 C592 1.440 . S
C596 C595 1.353 1_456 S
C597 C594 1.499 1_554 S
C597 C598 1.373 . S
C597 C599 1.389 1_554 S
C598 H571 0.950 . S
C598 C584 1.377 . S
C598 C597 1.373 . S
C599 C583 1.377 1_556 S
C599 C597 1.389 1_556 S
C599 C600 1.524 . S
C600 C599 1.524 . S
C600 C601 1.397 . S
C600 C605 1.363 . S
C601 H572 0.950 1_556 S
C601 C600 1.397 . S
C601 C602 1.334 . S
C602 H573 0.950 1_655 S
C602 C601 1.334 . S
C602 C603 1.287 . S
C603 C602 1.287 . S
C603 C604 1.524 . S
C603 H606 0.984 1_655 S
C604 H574 0.950 . S
C604 C603 1.524 . S
C604 C605 1.415 . S
C605 H575 0.950 . S
C605 C600 1.363 . S
C605 C604 1.415 . S
H606 C603 0.984 1_455 S
H607 C588 0.913 . S
H608 C626 0.951 . S
H609 C628 0.951 . S
H610 C630 0.950 . S
H611 C631 0.950 . S
H612 C633 0.950 . S
H613 C636 0.950 . S
H614 C637 0.950 . S
H615 C639 0.950 . S
H616 C640 0.950 . S
H617 C641 0.951 . S
H618 C643 0.951 . S
H619 C645 0.950 . S
H620 C646 0.950 . S
H621 C648 0.950 . S
H622 C651 0.950 . S
H623 C652 0.950 . S
H624 C654 0.950 . S
H625 C655 0.950 . S
C626 H608 0.951 . S
C626 C627 1.366 . S
C626 C628 1.388 . S
C627 C626 1.366 . S
C627 C631 1.385 . S
C628 H609 0.951 . S
C628 C626 1.388 . S
C628 C629 1.366 . S
C629 C628 1.366 . S
C629 C630 1.414 . S
C629 C632 1.499 . S
C630 H610 0.950 . S
C630 C629 1.414 . S
C630 C631 1.374 . S
C631 H611 0.950 . S
C631 C627 1.385 . S
C631 C630 1.374 . S
C632 C629 1.499 . S
C632 C633 1.373 . S
C632 C634 1.389 . S
C633 H612 0.950 . S
C633 C632 1.373 . S
C633 C649 1.377 . S
C634 C632 1.389 . S
C634 C635 1.524 . S
C634 C648 1.377 . S
C635 C634 1.524 . S
C635 C636 1.397 . S
C635 C640 1.363 . S
C636 H613 0.950 . S
C636 C635 1.397 . S
C636 C637 1.334 . S
C637 H614 0.950 . S
C637 C636 1.334 . S
C637 C638 1.287 . S
C638 C637 1.287 . S
C638 C639 1.524 . S
C638 H657 0.913 . S
C639 H615 0.950 . S
C639 C638 1.524 . S
C639 C640 1.415 . S
C640 H616 0.950 . S
C640 C635 1.363 . S
C640 C639 1.415 . S
C641 H617 0.951 . S
C641 C642 1.366 . S
C641 C643 1.388 1_545 S
C642 C641 1.366 . S
C642 C646 1.385 1_545 S
C643 H618 0.951 . S
C643 C641 1.388 1_565 S
C643 C644 1.366 . S
C644 C643 1.366 . S
C644 C645 1.414 . S
C644 C647 1.499 . S
C645 H619 0.950 . S
C645 C644 1.414 . S
C645 C646 1.374 . S
C646 H620 0.950 . S
C646 C642 1.385 1_565 S
C646 C645 1.374 . S
C647 C644 1.499 . S
C647 C648 1.373 . S
C647 C649 1.389 . S
C648 H621 0.950 . S
C648 C634 1.377 . S
C648 C647 1.373 . S
C649 C633 1.377 . S
C649 C647 1.389 . S
C649 C650 1.524 . S
C650 C649 1.524 . S
C650 C651 1.397 . S
C650 C655 1.363 . S
C651 H622 0.950 . S
C651 C650 1.397 . S
C651 C652 1.334 . S
C652 H623 0.950 . S
C652 C651 1.334 . S
C652 C653 1.287 . S
C653 C652 1.287 . S
C653 C654 1.524 . S
C653 H656 0.999 . S
C654 H624 0.950 . S
C654 C653 1.524 . S
C654 C655 1.415 . S
C655 H625 0.950 . S
C655 C650 1.363 . S
C655 C654 1.415 . S
H656 C653 0.999 . S
H657 C638 0.913 . S
H658 C676 0.951 1_455 S
H659 C678 0.951 . S
H660 C680 0.950 . S
H661 C681 0.950 . S
H662 C683 0.950 . S
H663 C686 0.950 . S
H664 C687 0.950 . S
H665 C689 0.950 . S
H666 C690 0.950 . S
H667 C691 0.951 . S
H668 C693 0.951 . S
H669 C695 0.950 . S
H670 C696 0.950 . S
H671 C698 0.950 . S
H672 C701 0.950 . S
H673 C702 0.950 . S
H674 C704 0.950 . S
H675 C705 0.950 . S
C676 H658 0.951 1_655 S
C676 C677 1.366 1_655 S
C676 C678 1.388 . S
C677 C676 1.366 1_455 S
C677 C681 1.385 . S
C678 H659 0.951 . S
C678 C676 1.388 . S
C678 C679 1.366 . S
C679 C678 1.366 . S
C679 C680 1.414 . S
C679 C682 1.499 . S
C680 H660 0.950 . S
C680 C679 1.414 . S
C680 C681 1.374 1_655 S
C681 H661 0.950 . S
C681 C677 1.385 . S
C681 C680 1.374 1_455 S
C682 C679 1.499 . S
C682 C683 1.373 . S
C682 C684 1.389 . S
C683 H662 0.950 . S
C683 C682 1.373 . S
C683 C699 1.377 . S
C684 C682 1.389 . S
C684 C685 1.524 . S
C684 C698 1.377 . S
C685 C684 1.524 . S
C685 C686 1.397 . S
C685 C690 1.363 . S
C686 H663 0.950 . S
C686 C685 1.397 . S
C686 C687 1.334 . S
C687 H664 0.950 . S
C687 C686 1.334 . S
C687 C688 1.287 . S
C688 C687 1.287 . S
C688 C689 1.524 . S
C688 H707 0.913 . S
C689 H665 0.950 . S
C689 C688 1.524 . S
C689 C690 1.415 . S
C690 H666 0.950 . S
C690 C685 1.363 . S
C690 C689 1.415 . S
C691 H667 0.951 . S
C691 C692 1.366 . S
C691 C693 1.388 . S
C692 C691 1.366 . S
C692 C696 1.385 . S
C693 H668 0.951 . S
C693 C691 1.388 . S
C693 C694 1.366 . S
C694 C693 1.366 . S
C694 C695 1.414 . S
C694 C697 1.499 . S
C695 H669 0.950 . S
C695 C694 1.414 . S
C695 C696 1.374 . S
C696 H670 0.950 . S
C696 C692 1.385 . S
C696 C695 1.374 . S
C697 C694 1.499 . S
C697 C698 1.373 . S
C697 C699 1.389 . S
C698 H671 0.950 . S
C698 C684 1.377 . S
C698 C697 1.373 . S
C699 C683 1.377 . S
C699 C697 1.389 . S
C699 C700 1.524 . S
C700 C699 1.524 . S
C700 C701 1.397 . S
C700 C705 1.363 . S
C701 H672 0.950 . S
C701 C700 1.397 . S
C701 C702 1.334 . S
C702 H673 0.950 . S
C702 C701 1.334 . S
C702 C703 1.287 . S
C703 C702 1.287 . S
C703 C704 1.524 . S
C703 H706 0.999 . S
C704 H674 0.950 . S
C704 C703 1.524 . S
C704 C705 1.415 . S
C705 H675 0.950 . S
C705 C700 1.363 . S
C705 C704 1.415 . S
H706 C703 0.999 . S
H707 C688 0.913 . S
H708 C726 0.951 . S
H709 C728 0.951 . S
H710 C730 0.950 . S
H711 C731 0.950 . S
H712 C733 0.950 . S
H713 C736 0.950 . S
H714 C737 0.950 . S
H715 C739 0.950 . S
H716 C740 0.950 . S
H717 C741 0.951 . S
H718 C743 0.951 . S
H719 C745 0.950 . S
H720 C746 0.950 . S
H721 C748 0.950 . S
H722 C751 0.950 . S
H723 C752 0.950 . S
H724 C754 0.950 . S
H725 C755 0.950 . S
C726 H708 0.951 . S
C726 C727 1.366 1_545 S
C726 C728 1.388 . S
C727 C726 1.366 1_565 S
C727 C731 1.385 . S
C728 H709 0.951 . S
C728 C726 1.388 . S
C728 C729 1.366 . S
C729 C728 1.366 . S
C729 C730 1.414 . S
C729 C732 1.499 . S
C730 H710 0.950 . S
C730 C729 1.414 . S
C730 C731 1.374 1_545 S
C731 H711 0.950 . S
C731 C727 1.385 . S
C731 C730 1.374 1_565 S
C732 C729 1.499 . S
C732 C733 1.373 . S
C732 C734 1.389 . S
C733 H712 0.950 . S
C733 C732 1.373 . S
C733 C749 1.377 . S
C734 C732 1.389 . S
C734 C735 1.524 . S
C734 C748 1.377 . S
C735 C734 1.524 . S
C735 C736 1.397 . S
C735 C740 1.363 . S
C736 H713 0.950 . S
C736 C735 1.397 . S
C736 C737 1.334 . S
C737 H714 0.950 . S
C737 C736 1.334 . S
C737 C738 1.287 . S
C738 C737 1.287 . S
C738 C739 1.524 . S
C738 H757 0.913 . S
C739 H715 0.950 . S
C739 C738 1.524 . S
C739 C740 1.415 . S
C740 H716 0.950 . S
C740 C735 1.363 . S
C740 C739 1.415 . S
C741 H717 0.951 . S
C741 C742 1.366 . S
C741 C743 1.388 . S
C742 C741 1.366 . S
C742 C746 1.385 . S
C743 H718 0.951 . S
C743 C741 1.388 . S
C743 C744 1.366 . S
C744 C743 1.366 . S
C744 C745 1.414 . S
C744 C747 1.499 . S
C745 H719 0.950 . S
C745 C744 1.414 . S
C745 C746 1.374 . S
C746 H720 0.950 . S
C746 C742 1.385 . S
C746 C745 1.374 . S
C747 C744 1.499 . S
C747 C748 1.373 . S
C747 C749 1.389 . S
C748 H721 0.950 . S
C748 C734 1.377 . S
C748 C747 1.373 . S
C749 C733 1.377 . S
C749 C747 1.389 . S
C749 C750 1.524 . S
C750 C749 1.524 . S
C750 C751 1.397 . S
C750 C755 1.363 . S
C751 H722 0.950 . S
C751 C750 1.397 . S
C751 C752 1.334 . S
C752 H723 0.950 . S
C752 C751 1.334 . S
C752 C753 1.287 . S
C753 C752 1.287 . S
C753 C754 1.524 . S
C753 H756 0.999 . S
C754 H724 0.950 . S
C754 C753 1.524 . S
C754 C755 1.415 . S
C755 H725 0.950 . S
C755 C750 1.363 . S
C755 C754 1.415 . S
H756 C753 0.999 . S
H757 C738 0.913 . S
H758 C776 0.951 . S
H759 C778 0.951 . S
H760 C780 0.950 . S
H761 C781 0.950 . S
H762 C783 0.950 . S
H763 C786 0.950 . S
H764 C787 0.950 . S
H765 C789 0.950 1_655 S
H766 C790 0.950 . S
H767 C791 0.951 . S
H768 C793 0.951 . S
H769 C795 0.950 . S
H770 C796 0.950 . S
H771 C798 0.950 . S
H772 C801 0.950 . S
H773 C802 0.950 . S
H774 C804 0.950 . S
H775 C805 0.950 . S
C776 H758 0.951 . S
C776 C777 1.366 . S
C776 C778 1.388 1_655 S
C777 C776 1.366 . S
C777 C781 1.385 1_655 S
C778 H759 0.951 . S
C778 C776 1.388 1_455 S
C778 C779 1.366 . S
C779 C778 1.366 . S
C779 C780 1.414 . S
C779 C782 1.499 . S
C780 H760 0.950 . S
C780 C779 1.414 . S
C780 C781 1.374 . S
C781 H761 0.950 . S
C781 C777 1.385 1_455 S
C781 C780 1.374 . S
C782 C779 1.499 . S
C782 C783 1.373 . S
C782 C784 1.389 . S
C783 H762 0.950 . S
C783 C782 1.373 . S
C783 C799 1.377 . S
C784 C782 1.389 . S
C784 C785 1.524 . S
C784 C798 1.377 . S
C785 C784 1.524 . S
C785 C786 1.397 . S
C785 C790 1.363 . S
C786 H763 0.950 . S
C786 C785 1.397 . S
C786 C787 1.334 . S
C787 H764 0.950 . S
C787 C786 1.334 . S
C787 C788 1.287 . S
C788 C787 1.287 . S
C788 C789 1.524 . S
C788 H807 0.913 1_455 S
C789 H765 0.950 1_455 S
C789 C788 1.524 . S
C789 C790 1.415 . S
C790 H766 0.950 . S
C790 C785 1.363 . S
C790 C789 1.415 . S
C791 H767 0.951 . S
C791 C792 1.366 . S
C791 C793 1.388 . S
C792 C791 1.366 . S
C792 C796 1.385 . S
C793 H768 0.951 . S
C793 C791 1.388 . S
C793 C794 1.366 . S
C794 C793 1.366 . S
C794 C795 1.414 . S
C794 C797 1.499 . S
C795 H769 0.950 . S
C795 C794 1.414 . S
C795 C796 1.374 . S
C796 H770 0.950 . S
C796 C792 1.385 . S
C796 C795 1.374 . S
C797 C794 1.499 . S
C797 C798 1.373 . S
C797 C799 1.389 . S
C798 H771 0.950 . S
C798 C784 1.377 . S
C798 C797 1.373 . S
C799 C783 1.377 . S
C799 C797 1.389 . S
C799 C800 1.524 . S
C800 C799 1.524 . S
C800 C801 1.397 . S
C800 C805 1.363 . S
C801 H772 0.950 . S
C801 C800 1.397 . S
C801 C802 1.334 . S
C802 H773 0.950 . S
C802 C801 1.334 . S
C802 C803 1.287 . S
C803 C802 1.287 . S
C803 C804 1.524 . S
C803 H806 0.999 . S
C804 H774 0.950 . S
C804 C803 1.524 . S
C804 C805 1.415 . S
C805 H775 0.950 . S
C805 C800 1.363 . S
C805 C804 1.415 . S
H806 C803 0.999 . S
H807 C788 0.913 1_655 S
H808 C826 0.951 . S
H809 C828 0.951 . S
H810 C830 0.950 . S
H811 C831 0.950 . S
H812 C833 0.950 . S
H813 C836 0.950 . S
H814 C837 0.950 . S
H815 C839 0.950 . S
H816 C840 0.950 . S
H817 C841 0.951 . S
H818 C843 0.951 . S
H819 C845 0.950 . S
H820 C846 0.950 . S
H821 C848 0.950 . S
H822 C851 0.950 . S
H823 C852 0.950 . S
H824 C854 0.950 . S
H825 C855 0.950 . S
C826 H808 0.951 . S
C826 C827 1.366 . S
C826 C828 1.388 . S
C827 C826 1.366 . S
C827 C831 1.385 . S
C828 H809 0.951 . S
C828 C826 1.388 . S
C828 C829 1.366 . S
C829 C828 1.366 . S
C829 C830 1.414 . S
C829 C832 1.499 . S
C830 H810 0.950 . S
C830 C829 1.414 . S
C830 C831 1.374 . S
C831 H811 0.950 . S
C831 C827 1.385 . S
C831 C830 1.374 . S
C832 C829 1.499 . S
C832 C833 1.373 . S
C832 C834 1.389 . S
C833 H812 0.950 . S
C833 C832 1.373 . S
C833 C849 1.377 . S
C834 C832 1.389 . S
C834 C835 1.524 . S
C834 C848 1.377 . S
C835 C834 1.524 . S
C835 C836 1.397 . S
C835 C840 1.363 . S
C836 H813 0.950 . S
C836 C835 1.397 . S
C836 C837 1.334 . S
C837 H814 0.950 . S
C837 C836 1.334 . S
C837 C838 1.287 . S
C838 C837 1.287 . S
C838 C839 1.524 . S
C838 H857 0.913 . S
C839 H815 0.950 . S
C839 C838 1.524 . S
C839 C840 1.415 . S
C840 H816 0.950 . S
C840 C835 1.363 . S
C840 C839 1.415 . S
C841 H817 0.951 . S
C841 C842 1.366 . S
C841 C843 1.388 . S
C842 C841 1.366 . S
C842 C846 1.385 . S
C843 H818 0.951 . S
C843 C841 1.388 . S
C843 C844 1.366 . S
C844 C843 1.366 . S
C844 C845 1.414 . S
C844 C847 1.499 . S
C845 H819 0.950 . S
C845 C844 1.414 . S
C845 C846 1.374 . S
C846 H820 0.950 . S
C846 C842 1.385 . S
C846 C845 1.374 . S
C847 C844 1.499 . S
C847 C848 1.373 . S
C847 C849 1.389 . S
C848 H821 0.950 . S
C848 C834 1.377 . S
C848 C847 1.373 . S
C849 C833 1.377 . S
C849 C847 1.389 . S
C849 C850 1.524 . S
C850 C849 1.524 . S
C850 C851 1.397 . S
C850 C855 1.363 . S
C851 H822 0.950 . S
C851 C850 1.397 . S
C851 C852 1.334 . S
C852 H823 0.950 . S
C852 C851 1.334 . S
C852 C853 1.287 . S
C853 C852 1.287 . S
C853 C854 1.524 . S
C853 H856 0.999 . S
C854 H824 0.950 . S
C854 C853 1.524 . S
C854 C855 1.415 . S
C855 H825 0.950 . S
C855 C850 1.363 . S
C855 C854 1.415 . S
H856 C853 0.999 . S
H857 C838 0.913 . S
H858 C876 0.951 . S
H859 C878 0.951 . S
H860 C880 0.950 . S
H861 C881 0.950 . S
H862 C883 0.950 . S
H863 C886 0.950 . S
H864 C887 0.950 . S
H865 C889 0.950 . S
H866 C890 0.950 . S
H867 C891 0.951 . S
H868 C893 0.951 . S
H869 C895 0.950 . S
H870 C896 0.950 . S
H871 C898 0.950 . S
H872 C901 0.950 . S
H873 C902 0.950 . S
H874 C904 0.950 . S
H875 C905 0.950 . S
C876 H858 0.951 . S
C876 C877 1.366 . S
C876 C878 1.388 . S
C877 C876 1.366 . S
C877 C881 1.385 . S
C878 H859 0.951 . S
C878 C876 1.388 . S
C878 C879 1.366 . S
C879 C878 1.366 . S
C879 C880 1.414 . S
C879 C882 1.499 . S
C880 H860 0.950 . S
C880 C879 1.414 . S
C880 C881 1.374 . S
C881 H861 0.950 . S
C881 C877 1.385 . S
C881 C880 1.374 . S
C882 C879 1.499 . S
C882 C883 1.373 . S
C882 C884 1.389 . S
C883 H862 0.950 . S
C883 C882 1.373 . S
C883 C899 1.377 . S
C884 C882 1.389 . S
C884 C885 1.524 . S
C884 C898 1.377 . S
C885 C884 1.524 . S
C885 C886 1.397 . S
C885 C890 1.363 . S
C886 H863 0.950 . S
C886 C885 1.397 . S
C886 C887 1.334 . S
C887 H864 0.950 . S
C887 C886 1.334 . S
C887 C888 1.287 . S
C888 C887 1.287 . S
C888 C889 1.524 . S
C888 H907 0.913 . S
C889 H865 0.950 . S
C889 C888 1.524 . S
C889 C890 1.415 . S
C890 H866 0.950 . S
C890 C885 1.363 . S
C890 C889 1.415 . S
C891 H867 0.951 . S
C891 C892 1.366 . S
C891 C893 1.388 . S
C892 C891 1.366 . S
C892 C896 1.385 . S
C893 H868 0.951 . S
C893 C891 1.388 . S
C893 C894 1.366 . S
C894 C893 1.366 . S
C894 C895 1.414 . S
C894 C897 1.499 . S
C895 H869 0.950 . S
C895 C894 1.414 . S
C895 C896 1.374 . S
C896 H870 0.950 . S
C896 C892 1.385 . S
C896 C895 1.374 . S
C897 C894 1.499 . S
C897 C898 1.373 . S
C897 C899 1.389 . S
C898 H871 0.950 . S
C898 C884 1.377 . S
C898 C897 1.373 . S
C899 C883 1.377 . S
C899 C897 1.389 . S
C899 C900 1.524 . S
C900 C899 1.524 . S
C900 C901 1.397 . S
C900 C905 1.363 . S
C901 H872 0.950 . S
C901 C900 1.397 . S
C901 C902 1.334 . S
C902 H873 0.950 . S
C902 C901 1.334 . S
C902 C903 1.287 . S
C903 C902 1.287 . S
C903 C904 1.524 . S
C903 H906 0.999 . S
C904 H874 0.950 . S
C904 C903 1.524 . S
C904 C905 1.415 . S
C905 H875 0.950 . S
C905 C900 1.363 . S
C905 C904 1.415 . S
H906 C903 0.999 . S
H907 C888 0.913 . S
H908 C926 0.951 . S
H909 C928 0.951 . S
H910 C930 0.950 . S
H911 C931 0.950 . S
H912 C933 0.950 . S
H913 C936 0.950 . S
H914 C937 0.950 . S
H915 C939 0.950 . S
H916 C940 0.950 . S
H917 C941 0.951 . S
H918 C943 0.951 . S
H919 C945 0.950 . S
H920 C946 0.950 . S
H921 C948 0.950 . S
H922 C951 0.950 . S
H923 C952 0.950 . S
H924 C954 0.950 . S
H925 C955 0.950 . S
C926 H908 0.951 . S
C926 C927 1.366 . S
C926 C928 1.388 . S
C927 C926 1.366 . S
C927 C931 1.385 . S
C928 H909 0.951 . S
C928 C926 1.388 . S
C928 C929 1.366 . S
C929 C928 1.366 . S
C929 C930 1.414 . S
C929 C932 1.499 . S
C930 H910 0.950 . S
C930 C929 1.414 . S
C930 C931 1.374 . S
C931 H911 0.950 . S
C931 C927 1.385 . S
C931 C930 1.374 . S
C932 C929 1.499 . S
C932 C933 1.373 . S
C932 C934 1.389 . S
C933 H912 0.950 . S
C933 C932 1.373 . S
C933 C949 1.377 . S
C934 C932 1.389 . S
C934 C935 1.524 . S
C934 C948 1.377 . S
C935 C934 1.524 . S
C935 C936 1.397 . S
C935 C940 1.363 . S
C936 H913 0.950 . S
C936 C935 1.397 . S
C936 C937 1.334 . S
C937 H914 0.950 . S
C937 C936 1.334 . S
C937 C938 1.287 . S
C938 C937 1.287 . S
C938 C939 1.524 . S
C938 H957 0.913 . S
C939 H915 0.950 . S
C939 C938 1.524 . S
C939 C940 1.415 . S
C940 H916 0.950 . S
C940 C935 1.363 . S
C940 C939 1.415 . S
C941 H917 0.951 . S
C941 C942 1.366 . S
C941 C943 1.388 . S
C942 C941 1.366 . S
C942 C946 1.385 . S
C943 H918 0.951 . S
C943 C941 1.388 . S
C943 C944 1.366 . S
C944 C943 1.366 . S
C944 C945 1.414 . S
C944 C947 1.499 . S
C945 H919 0.950 . S
C945 C944 1.414 . S
C945 C946 1.374 . S
C946 H920 0.950 . S
C946 C942 1.385 . S
C946 C945 1.374 . S
C947 C944 1.499 . S
C947 C948 1.373 . S
C947 C949 1.389 . S
C948 H921 0.950 . S
C948 C934 1.377 . S
C948 C947 1.373 . S
C949 C933 1.377 . S
C949 C947 1.389 . S
C949 C950 1.524 . S
C950 C949 1.524 . S
C950 C951 1.397 . S
C950 C955 1.363 . S
C951 H922 0.950 . S
C951 C950 1.397 . S
C951 C952 1.334 . S
C952 H923 0.950 . S
C952 C951 1.334 . S
C952 C953 1.287 . S
C953 C952 1.287 . S
C953 C954 1.524 . S
C953 H956 0.999 . S
C954 H924 0.950 . S
C954 C953 1.524 . S
C954 C955 1.415 . S
C955 H925 0.950 . S
C955 C950 1.363 . S
C955 C954 1.415 . S
H956 C953 0.999 . S
H957 C938 0.913 . S
H958 C976 0.951 . S
H959 C978 0.951 . S
H960 C980 0.950 . S
H961 C981 0.950 . S
H962 C983 0.950 . S
H963 C986 0.950 . S
H964 C987 0.950 . S
H965 C989 0.950 . S
H966 C990 0.950 . S
H967 C991 0.951 . S
H968 C993 0.951 . S
H969 C995 0.950 . S
H970 C996 0.950 . S
H971 C998 0.950 . S
H972 C1001 0.950 . S
H973 C1002 0.950 . S
H974 C1004 0.950 . S
H975 C1005 0.950 . S
C976 H958 0.951 . S
C976 C977 1.366 . S
C976 C978 1.388 . S
C977 C976 1.366 . S
C977 C981 1.385 . S
C978 H959 0.951 . S
C978 C976 1.388 . S
C978 C979 1.366 . S
C979 C978 1.366 . S
C979 C980 1.414 . S
C979 C982 1.499 . S
C980 H960 0.950 . S
C980 C979 1.414 . S
C980 C981 1.374 . S
C981 H961 0.950 . S
C981 C977 1.385 . S
C981 C980 1.374 . S
C982 C979 1.499 . S
C982 C983 1.373 . S
C982 C984 1.389 . S
C983 H962 0.950 . S
C983 C982 1.373 . S
C983 C999 1.377 . S
C984 C982 1.389 . S
C984 C985 1.524 . S
C984 C998 1.377 . S
C985 C984 1.524 . S
C985 C986 1.397 . S
C985 C990 1.363 . S
C986 H963 0.950 . S
C986 C985 1.397 . S
C986 C987 1.334 . S
C987 H964 0.950 . S
C987 C986 1.334 . S
C987 C988 1.287 . S
C988 C987 1.287 . S
C988 C989 1.524 . S
C988 H1007 0.913 . S
C989 H965 0.950 . S
C989 C988 1.524 . S
C989 C990 1.415 . S
C990 H966 0.950 . S
C990 C985 1.363 . S
C990 C989 1.415 . S
C991 H967 0.951 . S
C991 C992 1.366 . S
C991 C993 1.388 . S
C992 C991 1.366 . S
C992 C996 1.385 . S
C993 H968 0.951 . S
C993 C991 1.388 . S
C993 C994 1.366 . S
C994 C993 1.366 . S
C994 C995 1.414 . S
C994 C997 1.499 . S
C995 H969 0.950 . S
C995 C994 1.414 . S
C995 C996 1.374 . S
C996 H970 0.950 . S
C996 C992 1.385 . S
C996 C995 1.374 . S
C997 C994 1.499 . S
C997 C998 1.373 . S
C997 C999 1.389 . S
C998 H971 0.950 . S
C998 C984 1.377 . S
C998 C997 1.373 . S
C999 C983 1.377 . S
C999 C997 1.389 . S
C999 C1000 1.524 . S
C1000 C999 1.524 . S
C1000 C1001 1.397 . S
C1000 C1005 1.363 . S
C1001 H972 0.950 . S
C1001 C1000 1.397 . S
C1001 C1002 1.334 . S
C1002 H973 0.950 . S
C1002 C1001 1.334 . S
C1002 C1003 1.287 . S
C1003 C1002 1.287 . S
C1003 C1004 1.524 . S
C1003 H1006 0.999 . S
C1004 H974 0.950 . S
C1004 C1003 1.524 . S
C1004 C1005 1.415 . S
C1005 H975 0.950 . S
C1005 C1000 1.363 . S
C1005 C1004 1.415 . S
H1006 C1003 0.999 . S
H1007 C988 0.913 . S
H1008 C1026 0.951 . S
H1009 C1028 0.951 . S
H1010 C1030 0.950 . S
H1011 C1031 0.950 . S
H1012 C1033 0.950 . S
H1013 C1036 0.950 . S
H1014 C1037 0.950 . S
H1015 C1039 0.950 . S
H1016 C1040 0.950 . S
H1017 C1041 0.951 . S
H1018 C1043 0.951 . S
H1019 C1045 0.950 . S
H1020 C1046 0.950 . S
H1021 C1048 0.950 . S
H1022 C1051 0.950 . S
H1023 C1052 0.950 . S
H1024 C1054 0.950 . S
H1025 C1055 0.950 . S
C1026 H1008 0.951 . S
C1026 C1027 1.366 . S
C1026 C1028 1.388 . S
C1027 C1026 1.366 . S
C1027 C1031 1.385 . S
C1028 H1009 0.951 . S
C1028 C1026 1.388 . S
C1028 C1029 1.366 . S
C1029 C1028 1.366 . S
C1029 C1030 1.414 . S
C1029 C1032 1.499 . S
C1030 H1010 0.950 . S
C1030 C1029 1.414 . S
C1030 C1031 1.374 . S
C1031 H1011 0.950 . S
C1031 C1027 1.385 . S
C1031 C1030 1.374 . S
C1032 C1029 1.499 . S
C1032 C1033 1.373 . S
C1032 C1034 1.389 . S
C1033 H1012 0.950 . S
C1033 C1032 1.373 . S
C1033 C1049 1.377 . S
C1034 C1032 1.389 . S
C1034 C1035 1.524 . S
C1034 C1048 1.377 . S
C1035 C1034 1.524 . S
C1035 C1036 1.397 . S
C1035 C1040 1.363 . S
C1036 H1013 0.950 . S
C1036 C1035 1.397 . S
C1036 C1037 1.334 . S
C1037 H1014 0.950 . S
C1037 C1036 1.334 . S
C1037 C1038 1.287 . S
C1038 C1037 1.287 . S
C1038 C1039 1.524 . S
C1038 H1057 0.913 . S
C1039 H1015 0.950 . S
C1039 C1038 1.524 . S
C1039 C1040 1.415 . S
C1040 H1016 0.950 . S
C1040 C1035 1.363 . S
C1040 C1039 1.415 . S
C1041 H1017 0.951 . S
C1041 C1042 1.366 . S
C1041 C1043 1.388 . S
C1042 C1041 1.366 . S
C1042 C1046 1.385 . S
C1043 H1018 0.951 . S
C1043 C1041 1.388 . S
C1043 C1044 1.366 . S
C1044 C1043 1.366 . S
C1044 C1045 1.414 . S
C1044 C1047 1.499 . S
C1045 H1019 0.950 . S
C1045 C1044 1.414 . S
C1045 C1046 1.374 . S
C1046 H1020 0.950 . S
C1046 C1042 1.385 . S
C1046 C1045 1.374 . S
C1047 C1044 1.499 . S
C1047 C1048 1.373 . S
C1047 C1049 1.389 . S
C1048 H1021 0.950 . S
C1048 C1034 1.377 . S
C1048 C1047 1.373 . S
C1049 C1033 1.377 . S
C1049 C1047 1.389 . S
C1049 C1050 1.524 . S
C1050 C1049 1.524 . S
C1050 C1051 1.397 . S
C1050 C1055 1.363 . S
C1051 H1022 0.950 . S
C1051 C1050 1.397 . S
C1051 C1052 1.334 . S
C1052 H1023 0.950 . S
C1052 C1051 1.334 . S
C1052 C1053 1.287 . S
C1053 C1052 1.287 . S
C1053 C1054 1.524 . S
C1053 H1056 0.999 . S
C1054 H1024 0.950 . S
C1054 C1053 1.524 . S
C1054 C1055 1.415 . S
C1055 H1025 0.950 . S
C1055 C1050 1.363 . S
C1055 C1054 1.415 . S
H1056 C1053 0.999 . S
H1057 C1038 0.913 . S
H1058 C1076 0.951 . S
H1059 C1078 0.951 . S
H1060 C1080 0.950 . S
H1061 C1081 0.950 . S
H1062 C1083 0.950 . S
H1063 C1086 0.950 . S
H1064 C1087 0.950 . S
H1065 C1089 0.950 . S
H1066 C1090 0.950 . S
H1067 C1091 0.951 . S
H1068 C1093 0.951 . S
H1069 C1095 0.950 . S
H1070 C1096 0.950 . S
H1071 C1098 0.950 . S
H1072 C1101 0.950 . S
H1073 C1102 0.950 . S
H1074 C1104 0.950 . S
H1075 C1105 0.950 . S
C1076 H1058 0.951 . S
C1076 C1077 1.366 . S
C1076 C1078 1.388 . S
C1077 C1076 1.366 . S
C1077 C1081 1.385 . S
C1078 H1059 0.951 . S
C1078 C1076 1.388 . S
C1078 C1079 1.366 . S
C1079 C1078 1.366 . S
C1079 C1080 1.414 . S
C1079 C1082 1.499 . S
C1080 H1060 0.950 . S
C1080 C1079 1.414 . S
C1080 C1081 1.374 . S
C1081 H1061 0.950 . S
C1081 C1077 1.385 . S
C1081 C1080 1.374 . S
C1082 C1079 1.499 . S
C1082 C1083 1.373 . S
C1082 C1084 1.389 . S
C1083 H1062 0.950 . S
C1083 C1082 1.373 . S
C1083 C1099 1.377 . S
C1084 C1082 1.389 . S
C1084 C1085 1.524 . S
C1084 C1098 1.377 . S
C1085 C1084 1.524 . S
C1085 C1086 1.397 . S
C1085 C1090 1.363 . S
C1086 H1063 0.950 . S
C1086 C1085 1.397 . S
C1086 C1087 1.334 . S
C1087 H1064 0.950 . S
C1087 C1086 1.334 . S
C1087 C1088 1.287 . S
C1088 C1087 1.287 . S
C1088 C1089 1.524 . S
C1088 H1107 0.913 . S
C1089 H1065 0.950 . S
C1089 C1088 1.524 . S
C1089 C1090 1.415 . S
C1090 H1066 0.950 . S
C1090 C1085 1.363 . S
C1090 C1089 1.415 . S
C1091 H1067 0.951 . S
C1091 C1092 1.366 . S
C1091 C1093 1.388 . S
C1092 C1091 1.366 . S
C1092 C1096 1.385 . S
C1093 H1068 0.951 . S
C1093 C1091 1.388 . S
C1093 C1094 1.366 . S
C1094 C1093 1.366 . S
C1094 C1095 1.414 . S
C1094 C1097 1.499 . S
C1095 H1069 0.950 . S
C1095 C1094 1.414 . S
C1095 C1096 1.374 . S
C1096 H1070 0.950 . S
C1096 C1092 1.385 . S
C1096 C1095 1.374 . S
C1097 C1094 1.499 . S
C1097 C1098 1.373 . S
C1097 C1099 1.389 . S
C1098 H1071 0.950 . S
C1098 C1084 1.377 . S
C1098 C1097 1.373 . S
C1099 C1083 1.377 . S
C1099 C1097 1.389 . S
C1099 C1100 1.524 . S
C1100 C1099 1.524 . S
C1100 C1101 1.397 . S
C1100 C1105 1.363 . S
C1101 H1072 0.950 . S
C1101 C1100 1.397 . S
C1101 C1102 1.334 . S
C1102 H1073 0.950 . S
C1102 C1101 1.334 . S
C1102 C1103 1.287 . S
C1103 C1102 1.287 . S
C1103 C1104 1.524 . S
C1103 H1106 0.999 . S
C1104 H1074 0.950 . S
C1104 C1103 1.524 . S
C1104 C1105 1.415 . S
C1105 H1075 0.950 . S
C1105 C1100 1.363 . S
C1105 C1104 1.415 . S
H1106 C1103 0.999 . S
H1107 C1088 0.913 . S
H1108 C1126 0.951 . S
H1109 C1128 0.951 . S
H1110 C1130 0.950 . S
H1111 C1131 0.950 . S
H1112 C1133 0.950 . S
H1113 C1136 0.950 . S
H1114 C1137 0.950 . S
H1115 C1139 0.950 . S
H1116 C1140 0.950 . S
H1117 C1141 0.951 . S
H1118 C1143 0.951 . S
H1119 C1145 0.950 . S
H1120 C1146 0.950 . S
H1121 C1148 0.950 . S
H1122 C1151 0.950 . S
H1123 C1152 0.950 . S
H1124 C1154 0.950 . S
H1125 C1155 0.950 . S
C1126 H1108 0.951 . S
C1126 C1127 1.366 . S
C1126 C1128 1.388 . S
C1127 C1126 1.366 . S
C1127 C1131 1.385 . S
C1128 H1109 0.951 . S
C1128 C1126 1.388 . S
C1128 C1129 1.366 . S
C1129 C1128 1.366 . S
C1129 C1130 1.414 . S
C1129 C1132 1.499 . S
C1130 H1110 0.950 . S
C1130 C1129 1.414 . S
C1130 C1131 1.374 . S
C1131 H1111 0.950 . S
C1131 C1127 1.385 . S
C1131 C1130 1.374 . S
C1132 C1129 1.499 . S
C1132 C1133 1.373 . S
C1132 C1134 1.389 . S
C1133 H1112 0.950 . S
C1133 C1132 1.373 . S
C1133 C1149 1.377 . S
C1134 C1132 1.389 . S
C1134 C1135 1.524 . S
C1134 C1148 1.377 . S
C1135 C1134 1.524 . S
C1135 C1136 1.397 . S
C1135 C1140 1.363 . S
C1136 H1113 0.950 . S
C1136 C1135 1.397 . S
C1136 C1137 1.334 . S
C1137 H1114 0.950 . S
C1137 C1136 1.334 . S
C1137 C1138 1.287 . S
C1138 C1137 1.287 . S
C1138 C1139 1.524 . S
C1138 H1157 0.913 . S
C1139 H1115 0.950 . S
C1139 C1138 1.524 . S
C1139 C1140 1.415 . S
C1140 H1116 0.950 . S
C1140 C1135 1.363 . S
C1140 C1139 1.415 . S
C1141 H1117 0.951 . S
C1141 C1142 1.366 . S
C1141 C1143 1.388 . S
C1142 C1141 1.366 . S
C1142 C1146 1.385 . S
C1143 H1118 0.951 . S
C1143 C1141 1.388 . S
C1143 C1144 1.366 . S
C1144 C1143 1.366 . S
C1144 C1145 1.414 . S
C1144 C1147 1.499 . S
C1145 H1119 0.950 . S
C1145 C1144 1.414 . S
C1145 C1146 1.374 . S
C1146 H1120 0.950 . S
C1146 C1142 1.385 . S
C1146 C1145 1.374 . S
C1147 C1144 1.499 . S
C1147 C1148 1.373 . S
C1147 C1149 1.389 . S
C1148 H1121 0.950 . S
C1148 C1134 1.377 . S
C1148 C1147 1.373 . S
C1149 C1133 1.377 . S
C1149 C1147 1.389 . S
C1149 C1150 1.524 . S
C1150 C1149 1.524 . S
C1150 C1151 1.397 . S
C1150 C1155 1.363 . S
C1151 H1122 0.950 . S
C1151 C1150 1.397 . S
C1151 C1152 1.334 . S
C1152 H1123 0.950 . S
C1152 C1151 1.334 . S
C1152 C1153 1.287 . S
C1153 C1152 1.287 . S
C1153 C1154 1.524 . S
C1153 H1156 0.999 . S
C1154 H1124 0.950 . S
C1154 C1153 1.524 . S
C1154 C1155 1.415 . S
C1155 H1125 0.950 . S
C1155 C1150 1.363 . S
C1155 C1154 1.415 . S
H1156 C1153 0.999 . S
H1157 C1138 0.913 . S
H1158 C1176 0.951 . S
H1159 C1178 0.951 . S
H1160 C1180 0.950 . S
H1161 C1181 0.950 . S
H1162 C1183 0.950 . S
H1163 C1186 0.950 . S
H1164 C1187 0.950 . S
H1165 C1189 0.950 . S
H1166 C1190 0.950 . S
H1167 C1191 0.951 . S
H1168 C1193 0.951 . S
H1169 C1195 0.950 . S
H1170 C1196 0.950 . S
H1171 C1198 0.950 . S
H1172 C1201 0.950 . S
H1173 C1202 0.950 . S
H1174 C1204 0.950 . S
H1175 C1205 0.950 . S
C1176 H1158 0.951 . S
C1176 C1177 1.366 . S
C1176 C1178 1.388 . S
C1177 C1176 1.366 . S
C1177 C1181 1.385 . S
C1178 H1159 0.951 . S
C1178 C1176 1.388 . S
C1178 C1179 1.366 . S
C1179 C1178 1.366 . S
C1179 C1180 1.414 . S
C1179 C1182 1.499 . S
C1180 H1160 0.950 . S
C1180 C1179 1.414 . S
C1180 C1181 1.374 . S
C1181 H1161 0.950 . S
C1181 C1177 1.385 . S
C1181 C1180 1.374 . S
C1182 C1179 1.499 . S
C1182 C1183 1.373 . S
C1182 C1184 1.389 . S
C1183 H1162 0.950 . S
C1183 C1182 1.373 . S
C1183 C1199 1.377 . S
C1184 C1182 1.389 . S
C1184 C1185 1.524 . S
C1184 C1198 1.377 . S
C1185 C1184 1.524 . S
C1185 C1186 1.397 . S
C1185 C1190 1.363 . S
C1186 H1163 0.950 . S
C1186 C1185 1.397 . S
C1186 C1187 1.334 . S
C1187 H1164 0.950 . S
C1187 C1186 1.334 . S
C1187 C1188 1.287 . S
C1188 C1187 1.287 . S
C1188 C1189 1.524 . S
C1188 H1207 0.913 . S
C1189 H1165 0.950 . S
C1189 C1188 1.524 . S
C1189 C1190 1.415 . S
C1190 H1166 0.950 . S
C1190 C1185 1.363 . S
C1190 C1189 1.415 . S
C1191 H1167 0.951 . S
C1191 C1192 1.366 . S
C1191 C1193 1.388 . S
C1192 C1191 1.366 . S
C1192 C1196 1.385 . S
C1193 H1168 0.951 . S
C1193 C1191 1.388 . S
C1193 C1194 1.366 . S
C1194 C1193 1.366 . S
C1194 C1195 1.414 . S
C1194 C1197 1.499 . S
C1195 H1169 0.950 . S
C1195 C1194 1.414 . S
C1195 C1196 1.374 . S
C1196 H1170 0.950 . S
C1196 C1192 1.385 . S
C1196 C1195 1.374 . S
C1197 C1194 1.499 . S
C1197 C1198 1.373 . S
C1197 C1199 1.389 . S
C1198 H1171 0.950 . S
C1198 C1184 1.377 . S
C1198 C1197 1.373 . S
C1199 C1183 1.377 . S
C1199 C1197 1.389 . S
C1199 C1200 1.524 . S
C1200 C1199 1.524 . S
C1200 C1201 1.397 . S
C1200 C1205 1.363 . S
C1201 H1172 0.950 . S
C1201 C1200 1.397 . S
C1201 C1202 1.334 . S
C1202 H1173 0.950 . S
C1202 C1201 1.334 . S
C1202 C1203 1.287 . S
C1203 C1202 1.287 . S
C1203 C1204 1.524 . S
C1203 H1206 0.999 . S
C1204 H1174 0.950 . S
C1204 C1203 1.524 . S
C1204 C1205 1.415 . S
C1205 H1175 0.950 . S
C1205 C1200 1.363 . S
C1205 C1204 1.415 . S
H1206 C1203 0.999 . S
H1207 C1188 0.913 . S
H1208 C1226 0.951 . S
H1209 C1228 0.951 . S
H1210 C1230 0.950 . S
H1211 C1231 0.950 . S
H1212 C1233 0.950 . S
H1213 C1236 0.950 . S
H1214 C1237 0.950 . S
H1215 C1239 0.950 . S
H1216 C1240 0.950 . S
H1217 C1241 0.951 . S
H1218 C1243 0.951 . S
H1219 C1245 0.950 . S
H1220 C1246 0.950 . S
H1221 C1248 0.950 . S
H1222 C1251 0.950 . S
H1223 C1252 0.950 . S
H1224 C1254 0.950 . S
H1225 C1255 0.950 . S
C1226 H1208 0.951 . S
C1226 C1227 1.366 . S
C1226 C1228 1.388 . S
C1227 C1226 1.366 . S
C1227 C1231 1.385 . S
C1228 H1209 0.951 . S
C1228 C1226 1.388 . S
C1228 C1229 1.366 . S
C1229 C1228 1.366 . S
C1229 C1230 1.414 . S
C1229 C1232 1.499 . S
C1230 H1210 0.950 . S
C1230 C1229 1.414 . S
C1230 C1231 1.374 . S
C1231 H1211 0.950 . S
C1231 C1227 1.385 . S
C1231 C1230 1.374 . S
C1232 C1229 1.499 . S
C1232 C1233 1.373 . S
C1232 C1234 1.389 . S
C1233 H1212 0.950 . S
C1233 C1232 1.373 . S
C1233 C1249 1.377 . S
C1234 C1232 1.389 . S
C1234 C1235 1.524 . S
C1234 C1248 1.377 . S
C1235 C1234 1.524 . S
C1235 C1236 1.397 . S
C1235 C1240 1.363 . S
C1236 H1213 0.950 . S
C1236 C1235 1.397 . S
C1236 C1237 1.334 . S
C1237 H1214 0.950 . S
C1237 C1236 1.334 . S
C1237 C1238 1.287 . S
C1238 C1237 1.287 . S
C1238 C1239 1.524 . S
C1238 H1257 0.913 . S
C1239 H1215 0.950 . S
C1239 C1238 1.524 . S
C1239 C1240 1.415 . S
C1240 H1216 0.950 . S
C1240 C1235 1.363 . S
C1240 C1239 1.415 . S
C1241 H1217 0.951 . S
C1241 C1242 1.366 . S
C1241 C1243 1.388 . S
C1242 C1241 1.366 . S
C1242 C1246 1.385 . S
C1243 H1218 0.951 . S
C1243 C1241 1.388 . S
C1243 C1244 1.366 . S
C1244 C1243 1.366 . S
C1244 C1245 1.414 . S
C1244 C1247 1.499 . S
C1245 H1219 0.950 . S
C1245 C1244 1.414 . S
C1245 C1246 1.374 . S
C1246 H1220 0.950 . S
C1246 C1242 1.385 . S
C1246 C1245 1.374 . S
C1247 C1244 1.499 . S
C1247 C1248 1.373 . S
C1247 C1249 1.389 . S
C1248 H1221 0.950 . S
C1248 C1234 1.377 . S
C1248 C1247 1.373 . S
C1249 C1233 1.377 . S
C1249 C1247 1.389 . S
C1249 C1250 1.524 . S
C1250 C1249 1.524 . S
C1250 C1251 1.397 . S
C1250 C1255 1.363 . S
C1251 H1222 0.950 . S
C1251 C1250 1.397 . S
C1251 C1252 1.334 . S
C1252 H1223 0.950 . S
C1252 C1251 1.334 . S
C1252 C1253 1.287 . S
C1253 C1252 1.287 . S
C1253 C1254 1.524 . S
C1253 H1256 0.999 . S
C1254 H1224 0.950 . S
C1254 C1253 1.524 . S
C1254 C1255 1.415 . S
C1255 H1225 0.950 . S
C1255 C1250 1.363 . S
C1255 C1254 1.415 . S
H1256 C1253 0.999 . S
H1257 C1238 0.913 . S
H1258 C1276 0.951 . S
H1259 C1278 0.951 . S
H1260 C1280 0.950 . S
H1261 C1281 0.950 . S
H1262 C1283 0.950 . S
H1263 C1286 0.950 . S
H1264 C1287 0.950 . S
H1265 C1289 0.950 . S
H1266 C1290 0.950 . S
H1267 C1291 0.951 . S
H1268 C1293 0.951 . S
H1269 C1295 0.950 . S
H1270 C1296 0.950 . S
H1271 C1298 0.950 . S
H1272 C1301 0.950 . S
H1273 C1302 0.950 . S
H1274 C1304 0.950 . S
H1275 C1305 0.950 . S
C1276 H1258 0.951 . S
C1276 C1277 1.366 . S
C1276 C1278 1.388 . S
C1277 C1276 1.366 . S
C1277 C1281 1.385 . S
C1278 H1259 0.951 . S
C1278 C1276 1.388 . S
C1278 C1279 1.366 . S
C1279 C1278 1.366 . S
C1279 C1280 1.414 . S
C1279 C1282 1.499 . S
C1280 H1260 0.950 . S
C1280 C1279 1.414 . S
C1280 C1281 1.374 . S
C1281 H1261 0.950 . S
C1281 C1277 1.385 . S
C1281 C1280 1.374 . S
C1282 C1279 1.499 . S
C1282 C1283 1.373 . S
C1282 C1284 1.389 . S
C1283 H1262 0.950 . S
C1283 C1282 1.373 . S
C1283 C1299 1.377 . S
C1284 C1282 1.389 . S
C1284 C1285 1.524 . S
C1284 C1298 1.377 . S
C1285 C1284 1.524 . S
C1285 C1286 1.397 . S
C1285 C1290 1.363 . S
C1286 H1263 0.950 . S
C1286 C1285 1.397 . S
C1286 C1287 1.334 . S
C1287 H1264 0.950 . S
C1287 C1286 1.334 . S
C1287 C1288 1.287 . S
C1288 C1287 1.287 . S
C1288 C1289 1.524 . S
C1288 H1307 0.913 . S
C1289 H1265 0.950 . S
C1289 C1288 1.524 . S
C1289 C1290 1.415 . S
C1290 H1266 0.950 . S
C1290 C1285 1.363 . S
C1290 C1289 1.415 . S
C1291 H1267 0.951 . S
C1291 C1292 1.366 . S
C1291 C1293 1.388 . S
C1292 C1291 1.366 . S
C1292 C1296 1.385 . S
C1293 H1268 0.951 . S
C1293 C1291 1.388 . S
C1293 C1294 1.366 . S
C1294 C1293 1.366 . S
C1294 C1295 1.414 . S
C1294 C1297 1.499 . S
C1295 H1269 0.950 . S
C1295 C1294 1.414 . S
C1295 C1296 1.374 . S
C1296 H1270 0.950 . S
C1296 C1292 1.385 . S
C1296 C1295 1.374 . S
C1297 C1294 1.499 . S
C1297 C1298 1.373 . S
C1297 C1299 1.389 . S
C1298 H1271 0.950 . S
C1298 C1284 1.377 . S
C1298 C1297 1.373 . S
C1299 C1283 1.377 . S
C1299 C1297 1.389 . S
C1299 C1300 1.524 . S
C1300 C1299 1.524 . S
C1300 C1301 1.397 . S
C1300 C1305 1.363 . S
C1301 H1272 0.950 . S
C1301 C1300 1.397 . S
C1301 C1302 1.334 . S
C1302 H1273 0.950 . S
C1302 C1301 1.334 . S
C1302 C1303 1.287 . S
C1303 C1302 1.287 . S
C1303 C1304 1.524 . S
C1303 H1306 0.999 . S
C1304 H1274 0.950 . S
C1304 C1303 1.524 . S
C1304 C1305 1.415 . S
C1305 H1275 0.950 . S
C1305 C1300 1.363 . S
C1305 C1304 1.415 . S
H1306 C1303 0.999 . S
H1307 C1288 0.913 . S
H1308 C1326 0.951 . S
H1309 C1328 0.951 . S
H1310 C1330 0.950 . S
H1311 C1331 0.950 . S
H1312 C1333 0.950 . S
H1313 C1336 0.950 . S
H1314 C1337 0.950 . S
H1315 C1339 0.950 . S
H1316 C1340 0.950 . S
H1317 C1341 0.951 . S
H1318 C1343 0.951 . S
H1319 C1345 0.950 . S
H1320 C1346 0.950 . S
H1321 C1348 0.950 . S
H1322 C1351 0.950 . S
H1323 C1352 0.950 . S
H1324 C1354 0.950 . S
H1325 C1355 0.950 . S
C1326 H1308 0.951 . S
C1326 C1327 1.366 . S
C1326 C1328 1.388 . S
C1327 C1326 1.366 . S
C1327 C1331 1.385 . S
C1328 H1309 0.951 . S
C1328 C1326 1.388 . S
C1328 C1329 1.366 . S
C1329 C1328 1.366 . S
C1329 C1330 1.414 . S
C1329 C1332 1.499 . S
C1330 H1310 0.950 . S
C1330 C1329 1.414 . S
C1330 C1331 1.374 . S
C1331 H1311 0.950 . S
C1331 C1327 1.385 . S
C1331 C1330 1.374 . S
C1332 C1329 1.499 . S
C1332 C1333 1.373 . S
C1332 C1334 1.389 . S
C1333 H1312 0.950 . S
C1333 C1332 1.373 . S
C1333 C1349 1.377 . S
C1334 C1332 1.389 . S
C1334 C1335 1.524 . S
C1334 C1348 1.377 . S
C1335 C1334 1.524 . S
C1335 C1336 1.397 . S
C1335 C1340 1.363 . S
C1336 H1313 0.950 . S
C1336 C1335 1.397 . S
C1336 C1337 1.334 . S
C1337 H1314 0.950 . S
C1337 C1336 1.334 . S
C1337 C1338 1.287 . S
C1338 C1337 1.287 . S
C1338 C1339 1.524 . S
C1338 H1357 0.913 . S
C1339 H1315 0.950 . S
C1339 C1338 1.524 . S
C1339 C1340 1.415 . S
C1340 H1316 0.950 . S
C1340 C1335 1.363 . S
C1340 C1339 1.415 . S
C1341 H1317 0.951 . S
C1341 C1342 1.366 . S
C1341 C1343 1.388 . S
C1342 C1341 1.366 . S
C1342 C1346 1.385 . S
C1343 H1318 0.951 . S
C1343 C1341 1.388 . S
C1343 C1344 1.366 . S
C1344 C1343 1.366 . S
C1344 C1345 1.414 . S
C1344 C1347 1.499 . S
C1345 H1319 0.950 . S
C1345 C1344 1.414 . S
C1345 C1346 1.374 . S
C1346 H1320 0.950 . S
C1346 C1342 1.385 . S
C1346 C1345 1.374 . S
C1347 C1344 1.499 . S
C1347 C1348 1.373 . S
C1347 C1349 1.389 . S
C1348 H1321 0.950 . S
C1348 C1334 1.377 . S
C1348 C1347 1.373 . S
C1349 C1333 1.377 . S
C1349 C1347 1.389 . S
C1349 C1350 1.524 . S
C1350 C1349 1.524 . S
C1350 C1351 1.397 . S
C1350 C1355 1.363 . S
C1351 H1322 0.950 . S
C1351 C1350 1.397 . S
C1351 C1352 1.334 . S
C1352 H1323 0.950 . S
C1352 C1351 1.334 . S
C1352 C1353 1.287 . S
C1353 C1352 1.287 . S
C1353 C1354 1.524 . S
C1353 H1356 0.999 . S
C1354 H1324 0.950 . S
C1354 C1353 1.524 . S
C1354 C1355 1.415 . S
C1355 H1325 0.950 . S
C1355 C1350 1.363 . S
C1355 C1354 1.415 . S
H1356 C1353 0.999 . S
H1357 C1338 0.913 . S
H1358 C1376 0.951 . S
H1359 C1378 0.951 . S
H1360 C1380 0.950 . S
H1361 C1381 0.950 . S
H1362 C1383 0.950 . S
H1363 C1386 0.950 . S
H1364 C1387 0.950 . S
H1365 C1389 0.950 . S
H1366 C1390 0.950 . S
H1367 C1391 0.951 . S
H1368 C1393 0.951 . S
H1369 C1395 0.950 . S
H1370 C1396 0.950 . S
H1371 C1398 0.950 . S
H1372 C1401 0.950 . S
H1373 C1402 0.950 . S
H1374 C1404 0.950 . S
H1375 C1405 0.950 . S
C1376 H1358 0.951 . S
C1376 C1377 1.366 . S
C1376 C1378 1.388 . S
C1377 C1376 1.366 . S
C1377 C1381 1.385 . S
C1378 H1359 0.951 . S
C1378 C1376 1.388 . S
C1378 C1379 1.366 . S
C1379 C1378 1.366 . S
C1379 C1380 1.414 . S
C1379 C1382 1.499 . S
C1380 H1360 0.950 . S
C1380 C1379 1.414 . S
C1380 C1381 1.374 . S
C1381 H1361 0.950 . S
C1381 C1377 1.385 . S
C1381 C1380 1.374 . S
C1382 C1379 1.499 . S
C1382 C1383 1.373 . S
C1382 C1384 1.389 . S
C1383 H1362 0.950 . S
C1383 C1382 1.373 . S
C1383 C1399 1.377 . S
C1384 C1382 1.389 . S
C1384 C1385 1.524 . S
C1384 C1398 1.377 . S
C1385 C1384 1.524 . S
C1385 C1386 1.397 . S
C1385 C1390 1.363 . S
C1386 H1363 0.950 . S
C1386 C1385 1.397 . S
C1386 C1387 1.334 . S
C1387 H1364 0.950 . S
C1387 C1386 1.334 . S
C1387 C1388 1.287 . S
C1388 C1387 1.287 . S
C1388 C1389 1.524 . S
C1388 H1407 0.913 . S
C1389 H1365 0.950 . S
C1389 C1388 1.524 . S
C1389 C1390 1.415 . S
C1390 H1366 0.950 . S
C1390 C1385 1.363 . S
C1390 C1389 1.415 . S
C1391 H1367 0.951 . S
C1391 C1392 1.366 . S
C1391 C1393 1.388 . S
C1392 C1391 1.366 . S
C1392 C1396 1.385 . S
C1393 H1368 0.951 . S
C1393 C1391 1.388 . S
C1393 C1394 1.366 . S
C1394 C1393 1.366 . S
C1394 C1395 1.414 . S
C1394 C1397 1.499 . S
C1395 H1369 0.950 . S
C1395 C1394 1.414 . S
C1395 C1396 1.374 . S
C1396 H1370 0.950 . S
C1396 C1392 1.385 . S
C1396 C1395 1.374 . S
C1397 C1394 1.499 . S
C1397 C1398 1.373 . S
C1397 C1399 1.389 . S
C1398 H1371 0.950 . S
C1398 C1384 1.377 . S
C1398 C1397 1.373 . S
C1399 C1383 1.377 . S
C1399 C1397 1.389 . S
C1399 C1400 1.524 . S
C1400 C1399 1.524 . S
C1400 C1401 1.397 . S
C1400 C1405 1.363 . S
C1401 H1372 0.950 . S
C1401 C1400 1.397 . S
C1401 C1402 1.334 . S
C1402 H1373 0.950 . S
C1402 C1401 1.334 . S
C1402 C1403 1.287 . S
C1403 C1402 1.287 . S
C1403 C1404 1.524 . S
C1403 H1406 0.999 . S
C1404 H1374 0.950 . S
C1404 C1403 1.524 . S
C1404 C1405 1.415 . S
C1405 H1375 0.950 . S
C1405 C1400 1.363 . S
C1405 C1404 1.415 . S
H1406 C1403 0.999 . S
H1407 C1388 0.913 . S
H1408 C1426 0.951 . S
H1409 C1428 0.951 . S
H1410 C1430 0.950 1_455 S
H1411 C1431 0.950 . S
H1412 C1433 0.950 . S
H1413 C1436 0.950 . S
H1414 C1437 0.950 . S
H1415 C1439 0.950 . S
H1416 C1440 0.950 . S
H1417 C1441 0.951 . S
H1418 C1443 0.951 . S
H1419 C1445 0.950 1_655 S
H1420 C1446 0.950 . S
H1421 C1448 0.950 . S
H1422 C1451 0.950 . S
H1423 C1452 0.950 . S
H1424 C1454 0.950 . S
H1425 C1455 0.950 . S
C1426 H1408 0.951 . S
C1426 C1427 1.366 . S
C1426 C1428 1.388 . S
C1427 C1426 1.366 . S
C1427 C1431 1.385 . S
C1428 H1409 0.951 . S
C1428 C1426 1.388 . S
C1428 C1429 1.366 . S
C1429 C1428 1.366 . S
C1429 C1430 1.414 . S
C1429 C1432 1.499 . S
C1430 H1410 0.950 1_655 S
C1430 C1429 1.414 . S
C1430 C1431 1.374 . S
C1431 H1411 0.950 . S
C1431 C1427 1.385 . S
C1431 C1430 1.374 . S
C1432 C1429 1.499 . S
C1432 C1433 1.373 1_655 S
C1432 C1434 1.389 . S
C1433 H1412 0.950 . S
C1433 C1432 1.373 1_455 S
C1433 C1449 1.377 1_565 S
C1434 C1432 1.389 . S
C1434 C1435 1.524 . S
C1434 C1448 1.377 1_565 S
C1435 C1434 1.524 . S
C1435 C1436 1.397 . S
C1435 C1440 1.363 1_565 S
C1436 H1413 0.950 . S
C1436 C1435 1.397 . S
C1436 C1437 1.334 . S
C1437 H1414 0.950 . S
C1437 C1436 1.334 . S
C1437 C1438 1.287 . S
C1438 C1437 1.287 . S
C1438 C1439 1.524 1_565 S
C1438 H1457 0.913 . S
C1439 H1415 0.950 . S
C1439 C1438 1.524 1_545 S
C1439 C1440 1.415 . S
C1440 H1416 0.950 . S
C1440 C1435 1.363 1_545 S
C1440 C1439 1.415 . S
C1441 H1417 0.951 . S
C1441 C1442 1.366 . S
C1441 C1443 1.388 . S
C1442 C1441 1.366 . S
C1442 C1446 1.385 . S
C1443 H1418 0.951 . S
C1443 C1441 1.388 . S
C1443 C1444 1.366 . S
C1444 C1443 1.366 . S
C1444 C1445 1.414 . S
C1444 C1447 1.499 . S
C1445 H1419 0.950 1_455 S
C1445 C1444 1.414 . S
C1445 C1446 1.374 . S
C1446 H1420 0.950 . S
C1446 C1442 1.385 . S
C1446 C1445 1.374 . S
C1447 C1444 1.499 . S
C1447 C1448 1.373 1_455 S
C1447 C1449 1.389 . S
C1448 H1421 0.950 . S
C1448 C1434 1.377 1_545 S
C1448 C1447 1.373 1_655 S
C1449 C1433 1.377 1_545 S
C1449 C1447 1.389 . S
C1449 C1450 1.524 . S
C1450 C1449 1.524 . S
C1450 C1451 1.397 . S
C1450 C1455 1.363 1_545 S
C1451 H1422 0.950 . S
C1451 C1450 1.397 . S
C1451 C1452 1.334 . S
C1452 H1423 0.950 . S
C1452 C1451 1.334 . S
C1452 C1453 1.287 . S
C1453 C1452 1.287 . S
C1453 C1454 1.524 1_545 S
C1453 H1456 0.999 . S
C1454 H1424 0.950 . S
C1454 C1453 1.524 1_565 S
C1454 C1455 1.415 . S
C1455 H1425 0.950 . S
C1455 C1450 1.363 1_565 S
C1455 C1454 1.415 . S
H1456 C1453 0.999 . S
H1457 C1438 0.913 . S
H1458 C1476 0.951 . S
H1459 C1478 0.951 . S
H1460 C1480 0.950 . S
H1461 C1481 0.950 . S
H1462 C1483 0.950 . S
H1463 C1486 0.950 . S
H1464 C1487 0.950 . S
H1465 C1489 0.950 . S
H1466 C1490 0.953 . S
H1467 C1491 0.951 . S
H1468 C1493 0.951 . S
H1469 C1495 0.950 . S
H1470 C1496 0.950 . S
H1471 C1498 0.950 . S
H1472 C1501 0.950 . S
H1473 C1502 0.950 . S
H1474 C1504 0.950 . S
H1475 C1505 0.953 . S
C1476 H1458 0.951 . S
C1476 C1477 1.366 . S
C1476 C1478 1.388 . S
C1477 C1476 1.366 . S
C1477 C1481 1.385 . S
C1478 H1459 0.951 . S
C1478 C1476 1.388 . S
C1478 C1479 1.366 . S
C1479 C1478 1.366 . S
C1479 C1480 1.414 . S
C1479 C1482 1.499 . S
C1480 H1460 0.950 . S
C1480 C1479 1.414 . S
C1480 C1481 1.374 . S
C1481 H1461 0.950 . S
C1481 C1477 1.385 . S
C1481 C1480 1.374 . S
C1482 C1479 1.499 . S
C1482 C1483 1.373 1_545 S
C1482 C1484 1.389 . S
C1483 H1462 0.950 . S
C1483 C1482 1.373 1_565 S
C1483 C1499 1.377 1_655 S
C1484 C1482 1.389 . S
C1484 C1485 1.524 . S
C1484 C1498 1.377 1_655 S
C1485 C1484 1.524 . S
C1485 C1486 1.397 . S
C1485 C1490 1.363 . S
C1486 H1463 0.950 . S
C1486 C1485 1.397 . S
C1486 C1487 1.334 . S
C1487 H1464 0.950 . S
C1487 C1486 1.334 . S
C1487 C1488 1.287 . S
C1488 C1487 1.287 . S
C1488 C1489 1.524 . S
C1488 H1507 0.913 . S
C1489 H1465 0.950 . S
C1489 C1488 1.524 . S
C1489 C1490 1.415 . S
C1490 H1466 0.953 . S
C1490 C1485 1.363 . S
C1490 C1489 1.415 . S
C1491 H1467 0.951 . S
C1491 C1492 1.366 . S
C1491 C1493 1.388 . S
C1492 C1491 1.366 . S
C1492 C1496 1.385 . S
C1493 H1468 0.951 . S
C1493 C1491 1.388 . S
C1493 C1494 1.366 . S
C1494 C1493 1.366 . S
C1494 C1495 1.414 . S
C1494 C1497 1.499 . S
C1495 H1469 0.950 . S
C1495 C1494 1.414 . S
C1495 C1496 1.374 . S
C1496 H1470 0.950 . S
C1496 C1492 1.385 . S
C1496 C1495 1.374 . S
C1497 C1494 1.499 . S
C1497 C1498 1.373 1_565 S
C1497 C1499 1.389 . S
C1498 H1471 0.950 . S
C1498 C1484 1.377 1_455 S
C1498 C1497 1.373 1_545 S
C1499 C1483 1.377 1_455 S
C1499 C1497 1.389 . S
C1499 C1500 1.524 . S
C1500 C1499 1.524 . S
C1500 C1501 1.397 . S
C1500 C1505 1.363 . S
C1501 H1472 0.950 . S
C1501 C1500 1.397 . S
C1501 C1502 1.334 . S
C1502 H1473 0.950 . S
C1502 C1501 1.334 . S
C1502 C1503 1.287 . S
C1503 C1502 1.287 . S
C1503 C1504 1.524 . S
C1503 H1506 0.999 . S
C1504 H1474 0.950 . S
C1504 C1503 1.524 . S
C1504 C1505 1.415 . S
C1505 H1475 0.953 . S
C1505 C1500 1.363 . S
C1505 C1504 1.415 . S
H1506 C1503 0.999 . S
H1507 C1488 0.913 . S
H1508 C1526 0.951 . S
H1509 C1528 0.951 1_655 S
H1510 C1530 0.950 . S
H1511 C1531 0.950 . S
H1512 C1533 0.950 . S
H1513 C1536 0.950 . S
H1514 C1537 0.950 . S
H1515 C1539 0.950 . S
H1516 C1540 0.950 . S
H1517 C1541 0.951 . S
H1518 C1543 0.951 1_455 S
H1519 C1545 0.950 . S
H1520 C1546 0.950 . S
H1521 C1548 0.950 . S
H1522 C1551 0.950 . S
H1523 C1552 0.978 . S
H1524 C1554 0.950 1_554 S
H1525 C1555 0.950 . S
C1526 H1508 0.951 . S
C1526 C1527 1.366 . S
C1526 C1528 1.388 . S
C1527 C1526 1.366 . S
C1527 C1531 1.385 . S
C1528 H1509 0.951 1_455 S
C1528 C1526 1.388 . S
C1528 C1529 1.366 . S
C1529 C1528 1.366 . S
C1529 C1530 1.414 . S
C1529 C1532 1.499 . S
C1530 H1510 0.950 . S
C1530 C1529 1.414 . S
C1530 C1531 1.374 . S
C1531 H1511 0.950 . S
C1531 C1527 1.385 . S
C1531 C1530 1.374 . S
C1532 C1529 1.499 . S
C1532 C1533 1.373 . S
C1532 C1534 1.389 1_455 S
C1533 H1512 0.950 . S
C1533 C1532 1.373 . S
C1533 C1549 1.377 . S
C1534 C1532 1.389 1_655 S
C1534 C1535 1.524 . S
C1534 C1548 1.377 . S
C1535 C1534 1.524 . S
C1535 C1536 1.397 1_655 S
C1535 C1540 1.363 . S
C1536 H1513 0.950 . S
C1536 C1535 1.397 1_455 S
C1536 C1537 1.334 . S
C1537 H1514 0.950 . S
C1537 C1536 1.334 . S
C1537 C1538 1.287 . S
C1538 C1537 1.287 . S
C1538 C1539 1.524 1_455 S
C1538 H1557 0.913 . S
C1539 H1515 0.950 . S
C1539 C1538 1.524 1_655 S
C1539 C1540 1.415 . S
C1540 H1516 0.950 . S
C1540 C1535 1.363 . S
C1540 C1539 1.415 . S
C1541 H1517 0.951 . S
C1541 C1542 1.366 . S
C1541 C1543 1.388 . S
C1542 C1541 1.366 . S
C1542 C1546 1.385 . S
C1543 H1518 0.951 1_655 S
C1543 C1541 1.388 . S
C1543 C1544 1.366 . S
C1544 C1543 1.366 . S
C1544 C1545 1.414 . S
C1544 C1547 1.499 . S
C1545 H1519 0.950 . S
C1545 C1544 1.414 . S
C1545 C1546 1.374 . S
C1546 H1520 0.950 . S
C1546 C1542 1.385 . S
C1546 C1545 1.374 . S
C1547 C1544 1.499 . S
C1547 C1548 1.373 . S
C1547 C1549 1.389 1_655 S
C1548 H1521 0.950 . S
C1548 C1534 1.377 . S
C1548 C1547 1.373 . S
C1549 C1533 1.377 . S
C1549 C1547 1.389 1_455 S
C1549 C1550 1.524 . S
C1550 C1549 1.524 . S
C1550 C1551 1.397 1_455 S
C1550 C1555 1.363 . S
C1551 H1522 0.950 . S
C1551 C1550 1.397 1_655 S
C1551 C1552 1.334 . S
C1552 H1523 0.978 . S
C1552 C1551 1.334 . S
C1552 C1553 1.287 1_556 S
C1553 C1552 1.287 1_554 S
C1553 C1554 1.524 1_654 S
C1553 H1556 0.999 . S
C1554 H1524 0.950 1_556 S
C1554 C1553 1.524 1_456 S
C1554 C1555 1.415 . S
C1555 H1525 0.950 . S
C1555 C1550 1.363 . S
C1555 C1554 1.415 . S
H1556 C1553 0.999 . S
H1557 C1538 0.913 . S
H1558 C1576 0.951 . S
H1559 C1578 0.951 1_545 S
H1560 C1580 0.950 . S
H1561 C1581 0.950 . S
H1562 C1583 0.950 . S
H1563 C1586 0.950 . S
H1564 C1587 0.981 . S
H1565 C1589 0.950 . S
H1566 C1590 0.950 . S
H1567 C1591 0.951 . S
H1568 C1593 0.951 1_565 S
H1569 C1595 0.950 . S
H1570 C1596 0.950 . S
H1571 C1598 0.950 . S
H1572 C1601 0.950 . S
H1573 C1602 0.950 . S
H1574 C1604 0.950 . S
H1575 C1605 0.950 . S
C1576 H1558 0.951 . S
C1576 C1577 1.366 . S
C1576 C1578 1.388 . S
C1577 C1576 1.366 . S
C1577 C1581 1.385 . S
C1578 H1559 0.951 1_565 S
C1578 C1576 1.388 . S
C1578 C1579 1.366 . S
C1579 C1578 1.366 . S
C1579 C1580 1.414 . S
C1579 C1582 1.499 . S
C1580 H1560 0.950 . S
C1580 C1579 1.414 . S
C1580 C1581 1.374 . S
C1581 H1561 0.950 . S
C1581 C1577 1.385 . S
C1581 C1580 1.374 . S
C1582 C1579 1.499 . S
C1582 C1583 1.373 . S
C1582 C1584 1.389 1_565 S
C1583 H1562 0.950 . S
C1583 C1582 1.373 . S
C1583 C1599 1.377 . S
C1584 C1582 1.389 1_545 S
C1584 C1585 1.524 . S
C1584 C1598 1.377 . S
C1585 C1584 1.524 . S
C1585 C1586 1.397 1_545 S
C1585 C1590 1.363 . S
C1586 H1563 0.950 . S
C1586 C1585 1.397 1_565 S
C1586 C1587 1.334 . S
C1587 H1564 0.981 . S
C1587 C1586 1.334 . S
C1587 C1588 1.287 1_565 S
C1588 C1587 1.287 1_545 S
C1588 C1589 1.524 . S
C1588 H1607 0.913 1_554 S
C1589 H1565 0.950 . S
C1589 C1588 1.524 . S
C1589 C1590 1.415 . S
C1590 H1566 0.950 . S
C1590 C1585 1.363 . S
C1590 C1589 1.415 . S
C1591 H1567 0.951 . S
C1591 C1592 1.366 . S
C1591 C1593 1.388 . S
C1592 C1591 1.366 . S
C1592 C1596 1.385 . S
C1593 H1568 0.951 1_545 S
C1593 C1591 1.388 . S
C1593 C1594 1.366 . S
C1594 C1593 1.366 . S
C1594 C1595 1.414 . S
C1594 C1597 1.499 . S
C1595 H1569 0.950 . S
C1595 C1594 1.414 . S
C1595 C1596 1.374 . S
C1596 H1570 0.950 . S
C1596 C1592 1.385 . S
C1596 C1595 1.374 . S
C1597 C1594 1.499 . S
C1597 C1598 1.373 . S
C1597 C1599 1.389 1_545 S
C1598 H1571 0.950 . S
C1598 C1584 1.377 . S
C1598 C1597 1.373 . S
C1599 C1583 1.377 . S
C1599 C1597 1.389 1_565 S
C1599 C1600 1.524 . S
C1600 C1599 1.524 . S
C1600 C1601 1.397 1_565 S
C1600 C1605 1.363 . S
C1601 H1572 0.950 . S
C1601 C1600 1.397 1_545 S
C1601 C1602 1.334 . S
C1602 H1573 0.950 . S
C1602 C1601 1.334 . S
C1602 C1603 1.287 1_545 S
C1603 C1602 1.287 1_565 S
C1603 C1604 1.524 . S
C1603 H1606 0.999 . S
C1604 H1574 0.950 . S
C1604 C1603 1.524 . S
C1604 C1605 1.415 . S
C1605 H1575 0.950 . S
C1605 C1600 1.363 . S
C1605 C1604 1.415 . S
H1606 C1603 0.999 . S
H1607 C1588 0.913 1_556 S
H1608 C1626 0.951 . S
H1609 C1628 0.951 . S
H1610 C1630 0.950 . S
H1611 C1631 0.950 . S
H1612 C1633 0.950 . S
H1613 C1636 0.950 . S
H1614 C1637 0.950 . S
H1615 C1639 0.950 . S
H1616 C1640 0.950 . S
H1617 C1641 0.951 . S
H1618 C1643 0.951 . S
H1619 C1645 0.950 . S
H1620 C1646 0.950 . S
H1621 C1648 0.950 . S
H1622 C1651 0.950 . S
H1623 C1652 0.950 . S
H1624 C1654 0.950 . S
H1625 C1655 0.950 . S
C1626 H1608 0.951 . S
C1626 C1627 1.366 . S
C1626 C1628 1.388 . S
C1627 C1626 1.366 . S
C1627 C1631 1.385 . S
C1628 H1609 0.951 . S
C1628 C1626 1.388 . S
C1628 C1629 1.366 . S
C1629 C1628 1.366 . S
C1629 C1630 1.414 . S
C1629 C1632 1.499 . S
C1630 H1610 0.950 . S
C1630 C1629 1.414 . S
C1630 C1631 1.374 . S
C1631 H1611 0.950 . S
C1631 C1627 1.385 . S
C1631 C1630 1.374 . S
C1632 C1629 1.499 . S
C1632 C1633 1.373 . S
C1632 C1634 1.389 . S
C1633 H1612 0.950 . S
C1633 C1632 1.373 . S
C1633 C1649 1.377 . S
C1634 C1632 1.389 . S
C1634 C1635 1.524 . S
C1634 C1648 1.377 . S
C1635 C1634 1.524 . S
C1635 C1636 1.397 . S
C1635 C1640 1.363 . S
C1636 H1613 0.950 . S
C1636 C1635 1.397 . S
C1636 C1637 1.334 . S
C1637 H1614 0.950 . S
C1637 C1636 1.334 . S
C1637 C1638 1.287 . S
C1638 C1637 1.287 . S
C1638 C1639 1.524 . S
C1638 H1657 0.913 . S
C1639 H1615 0.950 . S
C1639 C1638 1.524 . S
C1639 C1640 1.415 . S
C1640 H1616 0.950 . S
C1640 C1635 1.363 . S
C1640 C1639 1.415 . S
C1641 H1617 0.951 . S
C1641 C1642 1.366 . S
C1641 C1643 1.388 . S
C1642 C1641 1.366 . S
C1642 C1646 1.385 . S
C1643 H1618 0.951 . S
C1643 C1641 1.388 . S
C1643 C1644 1.366 . S
C1644 C1643 1.366 . S
C1644 C1645 1.414 . S
C1644 C1647 1.499 . S
C1645 H1619 0.950 . S
C1645 C1644 1.414 . S
C1645 C1646 1.374 . S
C1646 H1620 0.950 . S
C1646 C1642 1.385 . S
C1646 C1645 1.374 . S
C1647 C1644 1.499 . S
C1647 C1648 1.373 . S
C1647 C1649 1.389 . S
C1648 H1621 0.950 . S
C1648 C1634 1.377 . S
C1648 C1647 1.373 . S
C1649 C1633 1.377 . S
C1649 C1647 1.389 . S
C1649 C1650 1.524 . S
C1650 C1649 1.524 . S
C1650 C1651 1.397 . S
C1650 C1655 1.363 . S
C1651 H1622 0.950 . S
C1651 C1650 1.397 . S
C1651 C1652 1.334 . S
C1652 H1623 0.950 . S
C1652 C1651 1.334 . S
C1652 C1653 1.287 . S
C1653 C1652 1.287 . S
C1653 C1654 1.524 . S
C1653 H1656 0.999 . S
C1654 H1624 0.950 . S
C1654 C1653 1.524 . S
C1654 C1655 1.415 . S
C1655 H1625 0.950 . S
C1655 C1650 1.363 . S
C1655 C1654 1.415 . S
H1656 C1653 0.999 . S
H1657 C1638 0.913 . S
H1658 C1676 0.951 . S
H1659 C1678 0.951 . S
H1660 C1680 0.950 . S
H1661 C1681 0.950 . S
H1662 C1683 0.950 . S
H1663 C1686 0.950 . S
H1664 C1687 0.950 . S
H1665 C1689 0.950 . S
H1666 C1690 0.950 . S
H1667 C1691 0.951 . S
H1668 C1693 0.951 . S
H1669 C1695 0.950 . S
H1670 C1696 0.950 . S
H1671 C1698 0.950 . S
H1672 C1701 0.950 . S
H1673 C1702 0.950 . S
H1674 C1704 0.950 . S
H1675 C1705 0.950 . S
C1676 H1658 0.951 . S
C1676 C1677 1.366 . S
C1676 C1678 1.388 . S
C1677 C1676 1.366 . S
C1677 C1681 1.385 . S
C1678 H1659 0.951 . S
C1678 C1676 1.388 . S
C1678 C1679 1.366 . S
C1679 C1678 1.366 . S
C1679 C1680 1.414 . S
C1679 C1682 1.499 . S
C1680 H1660 0.950 . S
C1680 C1679 1.414 . S
C1680 C1681 1.374 . S
C1681 H1661 0.950 . S
C1681 C1677 1.385 . S
C1681 C1680 1.374 . S
C1682 C1679 1.499 . S
C1682 C1683 1.373 . S
C1682 C1684 1.389 . S
C1683 H1662 0.950 . S
C1683 C1682 1.373 . S
C1683 C1699 1.377 . S
C1684 C1682 1.389 . S
C1684 C1685 1.524 . S
C1684 C1698 1.377 . S
C1685 C1684 1.524 . S
C1685 C1686 1.397 . S
C1685 C1690 1.363 . S
C1686 H1663 0.950 . S
C1686 C1685 1.397 . S
C1686 C1687 1.334 . S
C1687 H1664 0.950 . S
C1687 C1686 1.334 . S
C1687 C1688 1.287 . S
C1688 C1687 1.287 . S
C1688 C1689 1.524 . S
C1688 H1707 0.913 . S
C1689 H1665 0.950 . S
C1689 C1688 1.524 . S
C1689 C1690 1.415 . S
C1690 H1666 0.950 . S
C1690 C1685 1.363 . S
C1690 C1689 1.415 . S
C1691 H1667 0.951 . S
C1691 C1692 1.366 . S
C1691 C1693 1.388 . S
C1692 C1691 1.366 . S
C1692 C1696 1.385 . S
C1693 H1668 0.951 . S
C1693 C1691 1.388 . S
C1693 C1694 1.366 . S
C1694 C1693 1.366 . S
C1694 C1695 1.414 . S
C1694 C1697 1.499 . S
C1695 H1669 0.950 . S
C1695 C1694 1.414 . S
C1695 C1696 1.374 . S
C1696 H1670 0.950 . S
C1696 C1692 1.385 . S
C1696 C1695 1.374 . S
C1697 C1694 1.499 . S
C1697 C1698 1.373 . S
C1697 C1699 1.389 . S
C1698 H1671 0.950 . S
C1698 C1684 1.377 . S
C1698 C1697 1.373 . S
C1699 C1683 1.377 . S
C1699 C1697 1.389 . S
C1699 C1700 1.524 . S
C1700 C1699 1.524 . S
C1700 C1701 1.397 . S
C1700 C1705 1.363 . S
C1701 H1672 0.950 . S
C1701 C1700 1.397 . S
C1701 C1702 1.334 . S
C1702 H1673 0.950 . S
C1702 C1701 1.334 . S
C1702 C1703 1.287 . S
C1703 C1702 1.287 . S
C1703 C1704 1.524 . S
C1703 H1706 0.999 . S
C1704 H1674 0.950 . S
C1704 C1703 1.524 . S
C1704 C1705 1.415 . S
C1705 H1675 0.950 . S
C1705 C1700 1.363 . S
C1705 C1704 1.415 . S
H1706 C1703 0.999 . S
H1707 C1688 0.913 . S
H1708 C1726 0.951 . S
H1709 C1728 0.951 . S
H1710 C1730 0.950 . S
H1711 C1731 0.950 . S
H1712 C1733 0.950 . S
H1713 C1736 0.950 . S
H1714 C1737 0.950 . S
H1715 C1739 0.950 1_565 S
H1716 C1740 0.950 . S
H1717 C1741 0.951 . S
H1718 C1743 0.951 . S
H1719 C1745 0.950 . S
H1720 C1746 0.950 . S
H1721 C1748 0.950 . S
H1722 C1751 0.950 . S
H1723 C1752 0.950 . S
H1724 C1754 0.950 1_545 S
H1725 C1755 0.950 . S
C1726 H1708 0.951 . S
C1726 C1727 1.366 . S
C1726 C1728 1.388 . S
C1727 C1726 1.366 . S
C1727 C1731 1.385 . S
C1728 H1709 0.951 . S
C1728 C1726 1.388 . S
C1728 C1729 1.366 . S
C1729 C1728 1.366 . S
C1729 C1730 1.414 . S
C1729 C1732 1.499 . S
C1730 H1710 0.950 . S
C1730 C1729 1.414 . S
C1730 C1731 1.374 . S
C1731 H1711 0.950 . S
C1731 C1727 1.385 . S
C1731 C1730 1.374 . S
C1732 C1729 1.499 . S
C1732 C1733 1.373 . S
C1732 C1734 1.389 . S
C1733 H1712 0.950 . S
C1733 C1732 1.373 . S
C1733 C1749 1.377 1_545 S
C1734 C1732 1.389 . S
C1734 C1735 1.524 . S
C1734 C1748 1.377 1_545 S
C1735 C1734 1.524 . S
C1735 C1736 1.397 . S
C1735 C1740 1.363 1_545 S
C1736 H1713 0.950 . S
C1736 C1735 1.397 . S
C1736 C1737 1.334 . S
C1737 H1714 0.950 . S
C1737 C1736 1.334 . S
C1737 C1738 1.287 . S
C1738 C1737 1.287 . S
C1738 C1739 1.524 . S
C1738 H1757 0.913 . S
C1739 H1715 0.950 1_545 S
C1739 C1738 1.524 . S
C1739 C1740 1.415 1_545 S
C1740 H1716 0.950 . S
C1740 C1735 1.363 1_565 S
C1740 C1739 1.415 1_565 S
C1741 H1717 0.951 . S
C1741 C1742 1.366 . S
C1741 C1743 1.388 . S
C1742 C1741 1.366 . S
C1742 C1746 1.385 . S
C1743 H1718 0.951 . S
C1743 C1741 1.388 . S
C1743 C1744 1.366 . S
C1744 C1743 1.366 . S
C1744 C1745 1.414 . S
C1744 C1747 1.499 . S
C1745 H1719 0.950 . S
C1745 C1744 1.414 . S
C1745 C1746 1.374 . S
C1746 H1720 0.950 . S
C1746 C1742 1.385 . S
C1746 C1745 1.374 . S
C1747 C1744 1.499 . S
C1747 C1748 1.373 . S
C1747 C1749 1.389 . S
C1748 H1721 0.950 . S
C1748 C1734 1.377 1_565 S
C1748 C1747 1.373 . S
C1749 C1733 1.377 1_565 S
C1749 C1747 1.389 . S
C1749 C1750 1.524 . S
C1750 C1749 1.524 . S
C1750 C1751 1.397 . S
C1750 C1755 1.363 1_565 S
C1751 H1722 0.950 . S
C1751 C1750 1.397 . S
C1751 C1752 1.334 . S
C1752 H1723 0.950 . S
C1752 C1751 1.334 . S
C1752 C1753 1.287 . S
C1753 C1752 1.287 . S
C1753 C1754 1.524 . S
C1753 H1756 0.999 . S
C1754 H1724 0.950 1_565 S
C1754 C1753 1.524 . S
C1754 C1755 1.415 1_565 S
C1755 H1725 0.950 . S
C1755 C1750 1.363 1_545 S
C1755 C1754 1.415 1_545 S
H1756 C1753 0.999 . S
H1757 C1738 0.913 . S
H1758 C1776 0.951 . S
H1759 C1778 0.951 . S
H1760 C1780 0.950 . S
H1761 C1781 0.950 . S
H1762 C1783 0.950 . S
H1763 C1786 0.950 . S
H1764 C1787 0.950 . S
H1765 C1789 0.950 . S
H1766 C1790 0.950 1_455 S
H1767 C1791 0.951 . S
H1768 C1793 0.951 . S
H1769 C1795 0.950 . S
H1770 C1796 0.950 . S
H1771 C1798 0.950 . S
H1772 C1801 0.950 . S
H1773 C1802 0.950 . S
H1774 C1804 0.950 . S
H1775 C1805 0.950 1_655 S
C1776 H1758 0.951 . S
C1776 C1777 1.366 . S
C1776 C1778 1.388 . S
C1777 C1776 1.366 . S
C1777 C1781 1.385 . S
C1778 H1759 0.951 . S
C1778 C1776 1.388 . S
C1778 C1779 1.366 . S
C1779 C1778 1.366 . S
C1779 C1780 1.414 . S
C1779 C1782 1.499 . S
C1780 H1760 0.950 . S
C1780 C1779 1.414 . S
C1780 C1781 1.374 . S
C1781 H1761 0.950 . S
C1781 C1777 1.385 . S
C1781 C1780 1.374 . S
C1782 C1779 1.499 . S
C1782 C1783 1.373 . S
C1782 C1784 1.389 . S
C1783 H1762 0.950 . S
C1783 C1782 1.373 . S
C1783 C1799 1.377 1_655 S
C1784 C1782 1.389 . S
C1784 C1785 1.524 . S
C1784 C1798 1.377 1_655 S
C1785 C1784 1.524 . S
C1785 C1786 1.397 . S
C1785 C1790 1.363 . S
C1786 H1763 0.950 . S
C1786 C1785 1.397 . S
C1786 C1787 1.334 . S
C1787 H1764 0.950 . S
C1787 C1786 1.334 . S
C1787 C1788 1.287 . S
C1788 C1787 1.287 . S
C1788 C1789 1.524 . S
C1788 H1807 0.913 . S
C1789 H1765 0.950 . S
C1789 C1788 1.524 . S
C1789 C1790 1.415 . S
C1790 H1766 0.950 1_655 S
C1790 C1785 1.363 . S
C1790 C1789 1.415 . S
C1791 H1767 0.951 . S
C1791 C1792 1.366 . S
C1791 C1793 1.388 . S
C1792 C1791 1.366 . S
C1792 C1796 1.385 . S
C1793 H1768 0.951 . S
C1793 C1791 1.388 . S
C1793 C1794 1.366 . S
C1794 C1793 1.366 . S
C1794 C1795 1.414 . S
C1794 C1797 1.499 . S
C1795 H1769 0.950 . S
C1795 C1794 1.414 . S
C1795 C1796 1.374 . S
C1796 H1770 0.950 . S
C1796 C1792 1.385 . S
C1796 C1795 1.374 . S
C1797 C1794 1.499 . S
C1797 C1798 1.373 . S
C1797 C1799 1.389 . S
C1798 H1771 0.950 . S
C1798 C1784 1.377 1_455 S
C1798 C1797 1.373 . S
C1799 C1783 1.377 1_455 S
C1799 C1797 1.389 . S
C1799 C1800 1.524 . S
C1800 C1799 1.524 . S
C1800 C1801 1.397 . S
C1800 C1805 1.363 . S
C1801 H1772 0.950 . S
C1801 C1800 1.397 . S
C1801 C1802 1.334 . S
C1802 H1773 0.950 . S
C1802 C1801 1.334 . S
C1802 C1803 1.287 . S
C1803 C1802 1.287 . S
C1803 C1804 1.524 . S
C1803 H1806 0.999 . S
C1804 H1774 0.950 . S
C1804 C1803 1.524 . S
C1804 C1805 1.415 . S
C1805 H1775 0.950 1_455 S
C1805 C1800 1.363 . S
C1805 C1804 1.415 . S
H1806 C1803 0.999 . S
H1807 C1788 0.913 . S
C227 C5 1.707 . S
C242 C144 1.704 . S
C277 C105 1.658 . S
C292 C18 1.675 . S
C327 C118 1.704 . S
C342 C31 1.707 . S
C377 C131 1.658 . S
C392 C44 1.675 . S
C427 C66 1.704 . S
C442 C57 1.707 . S
C477 C70 1.675 . S
C492 C79 1.659 . S
C527 C83 1.707 . S
C542 C92 1.704 . S
C577 C96 1.675 . S
C592 C53 1.659 . S
C627 C109 1.707 . S
C642 C40 1.704 . S
C677 C1 1.659 . S
C692 C122 1.675 . S
C727 C14 1.704 . S
C742 C135 1.707 . S
C777 C27 1.659 . S
C792 C148 1.675 . S
C827 C170 1.704 . S
C842 C161 1.707 . S
C877 C174 1.675 . S
C892 C183 1.658 . S
C927 C196 1.704 . S
C942 C187 1.707 . S
C977 C157 1.658 . S
C992 C200 1.675 . S
C1027 C185 1.843 . S
C1042 C3 1.843 . S
C1077 C198 1.926 . S
C1092 C16 1.926 . S
C1127 C159 1.843 . S
C1142 C29 1.843 . S
C1177 C42 1.926 . S
C1192 C172 1.926 . S
C1227 C55 1.843 . S
C1242 C133 1.843 . S
C1277 C146 1.926 . S
C1292 C68 1.926 . S
C1327 C81 1.843 . S
C1342 C107 1.843 . S
C1377 C94 1.926 . S
C1392 C120 1.926 . S
C1427 C36 1.602 . S
C1442 C10 1.601 . S
C1477 C49 1.575 . S
C1492 C23 1.575 . S
C1527 C62 1.602 . S
C1542 C88 1.602 . S
C1577 C75 1.575 . S
C1592 C101 1.575 . S
C1627 C140 1.602 . S
C1642 C114 1.601 . S
C1677 C127 1.575 . S
C1692 C153 1.575 . S
C1727 C192 1.602 . S
C1742 C166 1.602 . S
C1777 C179 1.575 . S
C1792 C205 1.575 . S
