# Generated by pormake.
# Topology wka, (5)-cn, num edge types: 1
# Building blocks:
#     Node 0, Type 0, BuildingBlock: XOMCOT_clean_sbu_1, # of connection points: 5
#     Node 1, Type 0, BuildingBlock: XOMCOT_clean_sbu_1, # of connection points: 5
#     Node 2, Type 0, BuildingBlock: XOMCOT_clean_sbu_1, # of connection points: 5
#     Node 3, Type 0, BuildingBlock: XOMCOT_clean_sbu_1, # of connection points: 5
#     Node 4, Type 0, BuildingBlock: XOMCOT_clean_sbu_1, # of connection points: 5
#     Node 5, Type 0, BuildingBlock: XOMCOT_clean_sbu_1, # of connection points: 5
#     Node 6, Type 0, BuildingBlock: XOMCOT_clean_sbu_1, # of connection points: 5
#     Node 7, Type 0, BuildingBlock: XOMCOT_clean_sbu_1, # of connection points: 5
#     Node 8, Type 0, BuildingBlock: XOMCOT_clean_sbu_1, # of connection points: 5
#     Node 9, Type 0, BuildingBlock: XOMCOT_clean_sbu_1, # of connection points: 5
#     Node 10, Type 0, BuildingBlock: XOMCOT_clean_sbu_1, # of connection points: 5
#     Node 11, Type 0, BuildingBlock: XOMCOT_clean_sbu_1, # of connection points: 5
#     Edge 12, Type (0, 0), BuildingBlock: OJICUG_clean_linker_0, # of connection points: 2
#     Edge 13, Type (0, 0), BuildingBlock: OJICUG_clean_linker_0, # of connection points: 2
#     Edge 14, Type (0, 0), BuildingBlock: OJICUG_clean_linker_0, # of connection points: 2
#     Edge 15, Type (0, 0), BuildingBlock: OJICUG_clean_linker_0, # of connection points: 2
#     Edge 16, Type (0, 0), BuildingBlock: OJICUG_clean_linker_0, # of connection points: 2
#     Edge 17, Type (0, 0), BuildingBlock: OJICUG_clean_linker_0, # of connection points: 2
#     Edge 18, Type (0, 0), BuildingBlock: OJICUG_clean_linker_0, # of connection points: 2
#     Edge 19, Type (0, 0), BuildingBlock: OJICUG_clean_linker_0, # of connection points: 2
#     Edge 20, Type (0, 0), BuildingBlock: OJICUG_clean_linker_0, # of connection points: 2
#     Edge 21, Type (0, 0), BuildingBlock: OJICUG_clean_linker_0, # of connection points: 2
#     Edge 22, Type (0, 0), BuildingBlock: OJICUG_clean_linker_0, # of connection points: 2
#     Edge 23, Type (0, 0), BuildingBlock: OJICUG_clean_linker_0, # of connection points: 2
#     Edge 24, Type (0, 0), BuildingBlock: OJICUG_clean_linker_0, # of connection points: 2
#     Edge 25, Type (0, 0), BuildingBlock: OJICUG_clean_linker_0, # of connection points: 2
#     Edge 26, Type (0, 0), BuildingBlock: OJICUG_clean_linker_0, # of connection points: 2
#     Edge 27, Type (0, 0), BuildingBlock: OJICUG_clean_linker_0, # of connection points: 2
#     Edge 28, Type (0, 0), BuildingBlock: OJICUG_clean_linker_0, # of connection points: 2
#     Edge 29, Type (0, 0), BuildingBlock: OJICUG_clean_linker_0, # of connection points: 2
#     Edge 30, Type (0, 0), BuildingBlock: OJICUG_clean_linker_0, # of connection points: 2
#     Edge 31, Type (0, 0), BuildingBlock: OJICUG_clean_linker_0, # of connection points: 2
#     Edge 32, Type (0, 0), BuildingBlock: OJICUG_clean_linker_0, # of connection points: 2
#     Edge 33, Type (0, 0), BuildingBlock: OJICUG_clean_linker_0, # of connection points: 2
#     Edge 34, Type (0, 0), BuildingBlock: OJICUG_clean_linker_0, # of connection points: 2
#     Edge 35, Type (0, 0), BuildingBlock: OJICUG_clean_linker_0, # of connection points: 2
#     Edge 36, Type (0, 0), BuildingBlock: OJICUG_clean_linker_0, # of connection points: 2
#     Edge 37, Type (0, 0), BuildingBlock: OJICUG_clean_linker_0, # of connection points: 2
#     Edge 38, Type (0, 0), BuildingBlock: OJICUG_clean_linker_0, # of connection points: 2
#     Edge 39, Type (0, 0), BuildingBlock: OJICUG_clean_linker_0, # of connection points: 2
#     Edge 40, Type (0, 0), BuildingBlock: OJICUG_clean_linker_0, # of connection points: 2
#     Edge 41, Type (0, 0), BuildingBlock: OJICUG_clean_linker_0, # of connection points: 2
# Relax obj value: 0.242
# Max RMSD: 0.188
# Mean RMSD: 0.188
data_MOF--net-wka--node1-XOMCOT_clean_sbu_1--edge1-OJICUG_clean_linker_0
_symmetry_space_group_name_H-M    P1
_symmetry_Int_Tables_number       1
_symmetry_cell_setting            triclinic
loop_
_symmetry_equiv_pos_as_xyz
'x, y, z'
_cell_length_a     49.561833
_cell_length_b     49.236211
_cell_length_c     13.160018
_cell_angle_alpha  89.784442
_cell_angle_beta   90.13643
_cell_angle_gamma 119.98336
loop_
_atom_site_label
_atom_site_type_symbol
_atom_site_fract_x
_atom_site_fract_y
_atom_site_fract_z
_atom_type_partial_charge
C0 C 0.16069 0.46527 0.92411 0.0
C1 C 0.1637 0.46708 0.81982 0.0
N2 N 0.14686 0.43791 0.78161 0.0
N3 N 0.14159 0.43514 0.95132 0.0
C4 C 0.13465 0.41902 0.86323 0.0
H5 H 0.17015 0.48492 0.97575 0.0
Co6 Co 0.12227 0.41959 0.07685 0.0
C7 C 0.05617 0.3683 0.99993 0.0
O8 O 0.03974 0.36182 0.08375 0.0
N9 N 0.10379 0.40395 0.20378 0.0
C10 C 0.08699 0.37176 0.3373 0.0
C11 C 0.08744 0.3736 0.23285 0.0
C12 C 0.11359 0.41994 0.29208 0.0
N13 N 0.1038 0.40103 0.37447 0.0
O14 O 0.14006 0.39262 0.08538 0.0
H15 H 0.07942 0.35385 0.18205 0.0
H16 H 0.13075 0.44451 0.29618 0.0
O17 O 0.08528 0.38853 1.001 0.0
C18 C 0.16508 0.40826 0.13679 0.0
O19 O 0.17405 0.43758 0.15877 0.0
N20 N 0.10783 0.44856 0.07561 0.0
C21 C 0.09621 0.49842 0.08541 0.0
C22 C 0.077 0.47183 0.02724 0.0
C23 C 0.08311 0.44693 0.02368 0.0
C24 C 0.12727 0.4749 0.12893 0.0
C25 C 0.12155 0.49976 0.1367 0.0
H26 H 0.06839 0.42707 0.97695 0.0
H27 H 0.14805 0.47705 0.16339 0.0
H28 H 0.11878 0.39405 0.85802 0.0
H29 H 0.17601 0.4884 0.77549 0.0
H30 H 0.07699 0.35039 0.38173 0.0
H31 H 0.05761 0.47042 0.98464 0.0
H32 H 0.13752 0.52041 0.17944 0.0
C33 C 0.7518 0.16079 0.11077 0.0
C34 C 0.7508 0.16257 0.00637 0.0
N35 N 0.72527 0.13658 0.97279 0.0
N36 N 0.72708 0.13368 0.14241 0.0
C37 C 0.71103 0.12003 0.05696 0.0
H38 H 0.77028 0.17743 0.15916 0.0
Co39 Co 0.71775 0.11436 0.26973 0.0
C40 C 0.72468 0.06789 0.14479 0.0
O41 O 0.75466 0.0876 0.13506 0.0
N42 N 0.70843 0.09522 0.39518 0.0
C43 C 0.70558 0.06767 0.53229 0.0
C44 C 0.70814 0.0691 0.42793 0.0
C45 C 0.70556 0.10892 0.4794 0.0
N46 N 0.70443 0.09307 0.56431 0.0
O47 O 0.76131 0.12772 0.29329 0.0
H48 H 0.71158 0.05325 0.38024 0.0
H49 H 0.70588 0.13105 0.47849 0.0
O50 O 0.70842 0.07501 0.20255 0.0
C51 C 0.77179 0.1528 0.34598 0.0
O52 O 0.75344 0.16443 0.36245 0.0
N53 N 0.67647 0.1048 0.25604 0.0
C54 C 0.61753 0.09915 0.25512 0.0
C55 C 0.62078 0.07235 0.25149 0.0
C56 C 0.6506 0.07568 0.25307 0.0
C57 C 0.67376 0.1309 0.26169 0.0
C58 C 0.64465 0.12865 0.26141 0.0
H59 H 0.65284 0.05496 0.2541 0.0
H60 H 0.6945 0.15368 0.26827 0.0
H61 H 0.68988 0.09746 0.05642 0.0
H62 H 0.76858 0.18056 0.9588 0.0
H63 H 0.7068 0.05054 0.58099 0.0
H64 H 0.60055 0.0491 0.2472 0.0
H65 H 0.6435 0.14996 0.26786 0.0
C66 C 0.6054 0.74528 0.27845 0.0
C67 C 0.60256 0.7443 0.17412 0.0
N68 N 0.60307 0.71873 0.14044 0.0
N69 N 0.60788 0.72053 0.31002 0.0
C70 C 0.60544 0.70442 0.22462 0.0
H71 H 0.60733 0.76385 0.32683 0.0
Co72 Co 0.61844 0.71178 0.4371 0.0
C73 C 0.6711 0.71887 0.30889 0.0
O74 O 0.6809 0.74885 0.29617 0.0
N75 N 0.62872 0.70309 0.56259 0.0
C76 C 0.65331 0.70047 0.69977 0.0
C77 C 0.65441 0.70289 0.5953 0.0
C78 C 0.61227 0.70034 0.64688 0.0
N79 N 0.62692 0.69932 0.73181 0.0
O80 O 0.64871 0.75586 0.45807 0.0
H81 H 0.67352 0.70618 0.5474 0.0
H82 H 0.59055 0.70055 0.64589 0.0
O83 O 0.64838 0.70276 0.36931 0.0
C84 C 0.63544 0.76738 0.51206 0.0
O85 O 0.60567 0.74966 0.53257 0.0
N86 N 0.58706 0.66979 0.4257 0.0
C87 C 0.53581 0.60929 0.43509 0.0
C88 C 0.56607 0.61399 0.42669 0.0
C89 C 0.59156 0.64459 0.42418 0.0
C90 C 0.5578 0.66557 0.4329 0.0
C91 C 0.53184 0.63552 0.43798 0.0
H92 H 0.61481 0.64793 0.42478 0.0
H93 H 0.55472 0.68579 0.43731 0.0
H94 H 0.60701 0.68329 0.22408 0.0
H95 H 0.60238 0.7622 0.12662 0.0
H96 H 0.67151 0.70166 0.74847 0.0
H97 H 0.57 0.59424 0.42578 0.0
H98 H 0.50882 0.63279 0.44431 0.0
C99 C 0.88203 0.57157 0.44825 0.0
C100 C 0.87812 0.56987 0.34407 0.0
N101 N 0.89434 0.59915 0.30628 0.0
N102 N 0.90098 0.60177 0.47486 0.0
C103 C 0.90706 0.61795 0.38721 0.0
H104 H 0.87381 0.55191 0.50006 0.0
Co105 Co 0.92025 0.61699 0.60001 0.0
C106 C 0.98631 0.66091 0.5286 0.0
O107 O 0.99736 0.64886 0.5948 0.0
N108 N 0.93776 0.63183 0.72826 0.0
C109 C 0.96194 0.65942 0.86619 0.0
C110 C 0.96279 0.65846 0.76166 0.0
C111 C 0.92137 0.61812 0.81346 0.0
N112 N 0.93571 0.63394 0.89837 0.0
O113 O 0.90078 0.64239 0.61169 0.0
H114 H 0.97958 0.6772 0.71433 0.0
H115 H 0.89872 0.59713 0.8128 0.0
O116 O 0.95701 0.65127 0.52751 0.0
C117 C 0.87324 0.62608 0.64695 0.0
O118 O 0.8617 0.59575 0.65837 0.0
N119 N 0.93719 0.58959 0.59341 0.0
C120 C 0.95 0.54038 0.5792 0.0
C121 C 0.95801 0.56212 0.49981 0.0
C122 C 0.95153 0.5867 0.50854 0.0
C123 C 0.92909 0.56817 0.67029 0.0
C124 C 0.93593 0.54397 0.66581 0.0
H125 H 0.95628 0.60218 0.44431 0.0
H126 H 0.9153 0.56813 0.73304 0.0
H127 H 0.92191 0.64298 0.38168 0.0
H128 H 0.8667 0.54868 0.2991 0.0
H129 H 0.97854 0.67818 0.91424 0.0
H130 H 0.96799 0.55938 0.43014 0.0
H131 H 0.92824 0.52682 0.72669 0.0
C132 C 0.2912 0.87077 0.62467 0.0
C133 C 0.29197 0.8689 0.52025 0.0
N134 N 0.31781 0.89452 0.486 0.0
N135 N 0.31636 0.89756 0.65567 0.0
C136 C 0.33243 0.91092 0.56986 0.0
H137 H 0.27259 0.85449 0.67357 0.0
Co138 Co 0.32616 0.91705 0.78243 0.0
C139 C 0.3192 0.96322 0.65512 0.0
O140 O 0.2892 0.94341 0.6465 0.0
N141 N 0.33593 0.93635 0.90745 0.0
C142 C 0.33879 0.96389 0.04395 0.0
C143 C 0.33639 0.96255 0.93951 0.0
C144 C 0.33861 0.92253 0.9922 0.0
N145 N 0.33967 0.93835 0.0767 0.0
O146 O 0.28273 0.90416 0.80654 0.0
H147 H 0.33305 0.97847 0.89131 0.0
H148 H 0.33807 0.9003 0.99205 0.0
O149 O 0.33563 0.95641 0.71373 0.0
C150 C 0.27189 0.87954 0.8622 0.0
O151 O 0.28976 0.86748 0.88134 0.0
N152 N 0.36731 0.92622 0.76807 0.0
C153 C 0.42599 0.93127 0.76365 0.0
C154 C 0.42301 0.95823 0.75982 0.0
C155 C 0.39332 0.9552 0.76312 0.0
C156 C 0.36978 0.89997 0.77423 0.0
C157 C 0.39876 0.90193 0.77216 0.0
H158 H 0.3913 0.97605 0.76358 0.0
H159 H 0.34895 0.87731 0.78225 0.0
H160 H 0.35386 0.93323 0.56884 0.0
H161 H 0.27385 0.85116 0.47311 0.0
H162 H 0.33757 0.98101 0.09219 0.0
H163 H 0.44333 0.98138 0.75387 0.0
H164 H 0.39974 0.88051 0.77883 0.0
C165 C 0.44035 0.28636 0.76411 0.0
C166 C 0.4442 0.28828 0.66001 0.0
N167 N 0.43986 0.31163 0.62491 0.0
N168 N 0.4334 0.30825 0.79429 0.0
C169 C 0.43399 0.32359 0.70852 0.0
H170 H 0.44101 0.2691 0.81344 0.0
Co171 Co 0.42062 0.3145 0.9204 0.0
C172 C 0.37116 0.33192 0.85653 0.0
O173 O 0.37289 0.34722 0.94012 0.0
N174 N 0.40812 0.32044 0.04746 0.0
C175 C 0.38045 0.31148 0.1889 0.0
C176 C 0.37898 0.30836 0.08487 0.0
C177 C 0.42671 0.32972 0.13015 0.0
N178 N 0.4105 0.3246 0.21677 0.0
O179 O 0.39304 0.26966 0.93767 0.0
H180 H 0.35789 0.29545 0.04079 0.0
H181 H 0.45126 0.33726 0.1281 0.0
O182 O 0.38796 0.31903 0.84755 0.0
C183 C 0.4066 0.25993 0.99843 0.0
O184 O 0.43524 0.27974 0.02715 0.0
N185 N 0.45023 0.35763 0.9113 0.0
C186 C 0.50132 0.41844 0.92297 0.0
C187 C 0.47263 0.41313 0.88455 0.0
C188 C 0.44727 0.38248 0.87942 0.0
C189 C 0.47828 0.3624 0.94491 0.0
C190 C 0.50397 0.39251 0.95242 0.0
H191 H 0.42578 0.37923 0.84873 0.0
H192 H 0.48053 0.3425 0.96773 0.0
H193 H 0.42889 0.34248 0.70761 0.0
H194 H 0.44796 0.27235 0.61377 0.0
H195 H 0.36086 0.30196 0.24064 0.0
H196 H 0.4697 0.43249 0.85971 0.0
H197 H 0.52586 0.39538 0.9799 0.0
C198 C 0.58722 0.8726 0.89284 0.0
C199 C 0.58709 0.86936 0.99716 0.0
N200 N 0.61582 0.8897 0.03186 0.0
N201 N 0.61586 0.89508 0.86324 0.0
C202 C 0.63288 0.90416 0.94919 0.0
H203 H 0.56727 0.86113 0.84292 0.0
Co204 Co 0.6287 0.91451 0.73726 0.0
C205 C 0.66344 0.98069 0.81524 0.0
O206 O 0.64705 0.98873 0.75671 0.0
N207 N 0.64227 0.93308 0.60962 0.0
C208 C 0.66822 0.96079 0.47396 0.0
C209 C 0.66576 0.96111 0.57809 0.0
C210 C 0.63182 0.91596 0.524 0.0
N211 N 0.64672 0.93223 0.44007 0.0
O212 O 0.65713 0.89851 0.7246 0.0
H213 H 0.68141 0.98013 0.62657 0.0
H214 H 0.6134 0.89175 0.52401 0.0
O215 O 0.66013 0.95326 0.80789 0.0
C216 C 0.64126 0.87039 0.69185 0.0
O217 O 0.61095 0.8579 0.6829 0.0
N218 N 0.59759 0.92678 0.74402 0.0
C219 C 0.54459 0.93366 0.74973 0.0
C220 C 0.56448 0.94155 0.83426 0.0
C221 C 0.59067 0.93765 0.8302 0.0
C222 C 0.57815 0.91884 0.6622 0.0
C223 C 0.55236 0.92295 0.6623 0.0
H224 H 0.60475 0.94233 0.89773 0.0
H225 H 0.58127 0.90764 0.59721 0.0
H226 H 0.65705 0.92243 0.95267 0.0
H227 H 0.56694 0.85517 0.04427 0.0
H228 H 0.6853 0.97982 0.4277 0.0
H229 H 0.55914 0.94927 0.90446 0.0
H230 H 0.538 0.91665 0.59472 0.0
C231 C 0.72146 0.57525 0.05855 0.0
C232 C 0.72431 0.57483 0.16282 0.0
N233 N 0.73341 0.60383 0.19782 0.0
N234 N 0.72851 0.60434 0.02914 0.0
C235 C 0.73674 0.62134 0.11519 0.0
H236 H 0.71238 0.55518 0.00859 0.0
Co237 Co 0.7216 0.61709 0.90346 0.0
C238 C 0.6934 0.65487 0.9802 0.0
O239 O 0.66874 0.63907 0.92246 0.0
N240 N 0.71616 0.63033 0.7759 0.0
C241 C 0.71629 0.65723 0.63967 0.0
C242 C 0.71394 0.65525 0.74394 0.0
C243 C 0.72099 0.61846 0.69026 0.0
N244 N 0.72082 0.63399 0.60604 0.0
O245 O 0.76585 0.64472 0.88619 0.0
H246 H 0.71289 0.67235 0.79216 0.0
H247 H 0.72534 0.59904 0.69069 0.0
O248 O 0.71636 0.64992 0.97349 0.0
C249 C 0.77743 0.62837 0.85312 0.0
O250 O 0.75933 0.59783 0.84745 0.0
N251 N 0.67819 0.58693 0.91487 0.0
C252 C 0.61679 0.53676 0.92621 0.0
C253 C 0.63036 0.55711 0.00884 0.0
C254 C 0.66119 0.58189 0.00196 0.0
C255 C 0.66551 0.56632 0.8362 0.0
C256 C 0.63485 0.54171 0.83929 0.0
H257 H 0.67162 0.59657 0.06764 0.0
H258 H 0.67936 0.56767 0.77182 0.0
H259 H 0.74317 0.64578 0.11877 0.0
H260 H 0.71759 0.55431 0.20969 0.0
H261 H 0.71623 0.67538 0.59323 0.0
H262 H 0.61745 0.55367 0.07855 0.0
H263 H 0.62589 0.52569 0.77564 0.0
C264 C 0.17718 0.75016 0.26012 0.0
C265 C 0.1799 0.74845 0.36393 0.0
N266 N 0.15289 0.72473 0.40094 0.0
N267 N 0.14853 0.7278 0.23126 0.0
C268 C 0.13478 0.7122 0.31774 0.0
H269 H 0.19444 0.76763 0.21005 0.0
Co270 Co 0.12907 0.72217 0.105 0.0
C271 C 0.06417 0.71177 0.17459 0.0
O272 O 0.04952 0.70323 0.08714 0.0
N273 N 0.11042 0.71673 0.97715 0.0
C274 C 0.09501 0.72839 0.83271 0.0
C275 C 0.09628 0.73165 0.93679 0.0
C276 C 0.11821 0.70534 0.89586 0.0
N277 N 0.10894 0.71192 0.80741 0.0
O278 O 0.1475 0.76731 0.08876 0.0
H279 H 0.09069 0.74707 0.97854 0.0
H280 H 0.13358 0.69569 0.90027 0.0
O281 O 0.09272 0.71867 0.18027 0.0
C282 C 0.16953 0.77696 0.02353 0.0
O283 O 0.17688 0.75677 0.98647 0.0
N284 N 0.11409 0.67893 0.11393 0.0
C285 C 0.10073 0.61694 0.10386 0.0
C286 C 0.07751 0.62386 0.13109 0.0
C287 C 0.08457 0.6552 0.13437 0.0
C288 C 0.137 0.67243 0.09004 0.0
C289 C 0.13076 0.6416 0.0835 0.0
H290 H 0.06622 0.66002 0.15226 0.0
H291 H 0.16018 0.6915 0.07347 0.0
H292 H 0.11118 0.69283 0.31925 0.0
H293 H 0.19983 0.76469 0.40834 0.0
H294 H 0.08771 0.74023 0.77923 0.0
H295 H 0.05405 0.60522 0.14745 0.0
H296 H 0.14928 0.63703 0.06296 0.0
C297 C 0.45505 0.15549 0.39036 0.0
C298 C 0.45506 0.15869 0.4946 0.0
N299 N 0.42626 0.13843 0.52902 0.0
N300 N 0.42642 0.1331 0.3605 0.0
C301 C 0.40928 0.12406 0.4462 0.0
H302 H 0.47508 0.1669 0.34077 0.0
Co303 Co 0.41361 0.11356 0.23477 0.0
C304 C 0.37923 0.04765 0.31686 0.0
O305 O 0.39579 0.03945 0.26039 0.0
N306 N 0.40001 0.09483 0.10755 0.0
C307 C 0.37453 0.06676 0.9722 0.0
C308 C 0.3771 0.06648 0.0764 0.0
C309 C 0.41001 0.11202 0.02164 0.0
N310 N 0.3954 0.09558 0.93785 0.0
O311 O 0.38511 0.1294 0.22084 0.0
H312 H 0.36201 0.04717 0.12516 0.0
H313 H 0.42805 0.13638 0.02139 0.0
O314 O 0.3823 0.07492 0.30647 0.0
C315 C 0.40109 0.15748 0.18738 0.0
O316 O 0.43142 0.16996 0.17972 0.0
N317 N 0.44485 0.10151 0.24226 0.0
C318 C 0.49821 0.09528 0.2472 0.0
C319 C 0.47866 0.08745 0.33247 0.0
C320 C 0.45226 0.09102 0.32876 0.0
C321 C 0.46399 0.10939 0.1598 0.0
C322 C 0.48991 0.10554 0.1595 0.0
H323 H 0.43843 0.08643 0.39672 0.0
H324 H 0.46056 0.12039 0.09451 0.0
H325 H 0.38508 0.10588 0.44946 0.0
H326 H 0.47517 0.17279 0.54193 0.0
H327 H 0.35786 0.04744 0.92622 0.0
H328 H 0.48442 0.08005 0.40285 0.0
H329 H 0.504 0.11177 0.09136 0.0
C330 C 0.3201 0.46042 0.56104 0.0
C331 C 0.31749 0.46205 0.66472 0.0
N332 N 0.30453 0.43277 0.70387 0.0
N333 N 0.30912 0.43031 0.53478 0.0
C334 C 0.2985 0.41401 0.62224 0.0
H335 H 0.33146 0.48009 0.5093 0.0
Co336 Co 0.31441 0.41547 0.41049 0.0
C337 C 0.33662 0.37172 0.48884 0.0
O338 O 0.35852 0.38087 0.41953 0.0
N339 N 0.31821 0.40068 0.28305 0.0
C340 C 0.31193 0.37139 0.14641 0.0
C341 C 0.31444 0.37292 0.25113 0.0
C342 C 0.3166 0.41478 0.19684 0.0
N343 N 0.3134 0.39795 0.11282 0.0
O344 O 0.26989 0.38978 0.39498 0.0
H345 H 0.3111 0.35383 0.30002 0.0
H346 H 0.31509 0.43594 0.19616 0.0
O347 O 0.31754 0.38215 0.48635 0.0
C348 C 0.2596 0.40647 0.35474 0.0
O349 O 0.2788 0.43669 0.34372 0.0
N350 N 0.35837 0.44325 0.42027 0.0
C351 C 0.42058 0.49145 0.43395 0.0
C352 C 0.40677 0.46975 0.51334 0.0
C353 C 0.3756 0.44575 0.50496 0.0
C354 C 0.37151 0.46504 0.34456 0.0
C355 C 0.40262 0.48864 0.34851 0.0
H356 H 0.36494 0.4303 0.56905 0.0
H357 H 0.35768 0.46566 0.28287 0.0
H358 H 0.2885 0.3889 0.62643 0.0
H359 H 0.32623 0.48348 0.7078 0.0
H360 H 0.30814 0.35182 0.09929 0.0
H361 H 0.4197 0.47177 0.5821 0.0
H362 H 0.41201 0.50579 0.28765 0.0
C363 C 0.87705 0.31761 0.7134 0.0
C364 C 0.87333 0.3148 0.81769 0.0
N365 N 0.89134 0.30364 0.854 0.0
N366 N 0.89757 0.30859 0.68547 0.0
C367 C 0.90495 0.2993 0.77233 0.0
H368 H 0.86722 0.32766 0.66233 0.0
Co369 Co 0.91639 0.31266 0.55985 0.0
C370 C 0.98295 0.34079 0.63185 0.0
O371 O 0.99222 0.36349 0.56444 0.0
N372 N 0.93381 0.31503 0.43191 0.0
C373 C 0.95932 0.31303 0.29582 0.0
C374 C 0.96011 0.31585 0.40004 0.0
C375 C 0.91686 0.30989 0.34641 0.0
N376 N 0.93197 0.30932 0.26238 0.0
O377 O 0.89907 0.26776 0.55368 0.0
H378 H 0.97807 0.31662 0.44842 0.0
H379 H 0.89357 0.30651 0.34625 0.0
O380 O 0.95442 0.31873 0.63189 0.0
C381 C 0.87135 0.25512 0.51879 0.0
O382 O 0.8589 0.27288 0.50344 0.0
N383 N 0.93092 0.35687 0.56097 0.0
C384 C 0.94294 0.41923 0.56035 0.0
C385 C 0.95033 0.40672 0.64537 0.0
C386 C 0.94411 0.37557 0.64419 0.0
C387 C 0.9232 0.36867 0.47905 0.0
C388 C 0.92994 0.39971 0.4757 0.0
H389 H 0.94879 0.36614 0.71197 0.0
H390 H 0.91042 0.35395 0.4165 0.0
H391 H 0.92124 0.29088 0.77692 0.0
H392 H 0.86049 0.32266 0.86371 0.0
H393 H 0.97703 0.31264 0.24892 0.0
H394 H 0.95964 0.42031 0.71403 0.0
H395 H 0.92403 0.40787 0.40731 0.0
C396 C 0.09696 0.57229 0.0033 0.0
C397 C 0.09428 0.5843 0.09701 0.0
H398 H 0.09873 0.53488 0.92609 0.0
C399 C 0.0889 0.56632 0.18544 0.0
H400 H 0.10132 0.58597 0.93436 0.0
C401 C 0.08801 0.53749 0.181 0.0
C402 C 0.09178 0.52596 0.08775 0.0
H403 H 0.08707 0.57534 0.2585 0.0
H404 H 0.08544 0.52466 0.25077 0.0
C405 C 0.09537 0.54315 0.99853 0.0
C406 C 0.55454 0.1194 0.19979 0.0
C407 C 0.52843 0.09549 0.25041 0.0
H408 H 0.60211 0.13848 0.15792 0.0
C409 C 0.53171 0.07227 0.30245 0.0
H410 H 0.55332 0.13815 0.16075 0.0
C411 C 0.56041 0.07299 0.30318 0.0
C412 C 0.58641 0.09697 0.25201 0.0
H413 H 0.51208 0.05344 0.34188 0.0
H414 H 0.56235 0.05509 0.34523 0.0
C415 C 0.58288 0.11991 0.19959 0.0
C416 C 0.47421 0.52655 0.36497 0.0
C417 C 0.45225 0.51914 0.44297 0.0
H418 H 0.51834 0.56083 0.30256 0.0
C419 C 0.45919 0.5405 0.52275 0.0
H420 H 0.46927 0.51051 0.30234 0.0
C421 C 0.48683 0.56946 0.52164 0.0
C422 C 0.50831 0.57732 0.44182 0.0
H423 H 0.44247 0.5355 0.58302 0.0
H424 H 0.49113 0.58607 0.58193 0.0
C425 C 0.50219 0.55525 0.36505 0.0
C426 C 0.92579 0.45751 0.50534 0.0
C427 C 0.94654 0.45139 0.56121 0.0
H428 H 0.91148 0.49068 0.46533 0.0
C429 C 0.96991 0.476 0.61913 0.0
H430 H 0.90674 0.43927 0.46248 0.0
C431 C 0.97189 0.50546 0.62268 0.0
C432 C 0.95109 0.51112 0.56646 0.0
H433 H 0.98657 0.47256 0.66236 0.0
H434 H 0.98939 0.52369 0.67026 0.0
C435 C 0.9283 0.48704 0.50708 0.0
C436 C 0.4599 0.90996 0.70594 0.0
C437 C 0.45695 0.93313 0.75849 0.0
H438 H 0.48886 0.89123 0.66554 0.0
C439 C 0.48338 0.95703 0.80793 0.0
H440 H 0.44032 0.89144 0.66554 0.0
C441 C 0.51191 0.95741 0.80564 0.0
C442 C 0.51461 0.93393 0.75371 0.0
H443 H 0.48191 0.97511 0.84996 0.0
H444 H 0.53185 0.97617 0.84393 0.0
C445 C 0.4881 0.91016 0.70451 0.0
C446 C 0.57623 0.4886 0.01649 0.0
C447 C 0.58508 0.50875 0.93199 0.0
H448 H 0.54269 0.44427 0.07999 0.0
C449 C 0.56473 0.50022 0.84835 0.0
H450 H 0.59148 0.4944 0.08173 0.0
C451 C 0.53683 0.47151 0.8472 0.0
C452 C 0.52882 0.45056 0.92931 0.0
H453 H 0.57085 0.51541 0.78241 0.0
H454 H 0.52227 0.4651 0.78003 0.0
C455 C 0.54846 0.45975 0.01498 0.0
C456 C 0.0512 0.37816 0.81508 0.0
C457 C 0.03969 0.35828 0.90039 0.0
H458 H 0.04268 0.38819 0.66402 0.0
C459 C 1.01093 0.33037 0.89163 0.0
H460 H 0.07297 0.40009 0.81897 0.0
C461 C 0.99352 0.32327 0.80132 0.0
C462 C 1.00392 0.34444 0.71893 0.0
H463 H 1.00149 0.31441 0.95555 0.0
H464 H 0.9713 0.30184 0.79806 0.0
C465 C 0.03357 0.37139 0.72584 0.0
C466 C 0.66199 1.00831 0.97111 0.0
C467 C 0.67913 1.00027 0.9053 0.0
H468 H 0.66243 0.03464 0.10019 0.0
C469 C 0.71086 1.01189 0.92524 0.0
H470 H 0.6374 0.99945 0.95792 0.0
C471 C 0.72557 0.03284 0.00615 0.0
C472 C 0.70859 0.04182 0.07016 0.0
H473 H 0.72451 1.00587 0.8758 0.0
H474 H 0.75041 0.04269 0.01673 0.0
C475 C 0.67637 0.02834 0.05342 0.0
C476 C 0.66182 0.66962 0.22173 0.0
C477 C 0.68043 0.70226 0.23432 0.0
H478 H 0.65079 0.62963 0.1297 0.0
C479 C 0.70534 0.71898 0.16614 0.0
H480 H 0.64233 0.65585 0.27155 0.0
C481 C 0.71066 0.70357 0.08536 0.0
C482 C 0.69065 0.67136 0.06991 0.0
H483 H 0.72016 0.74413 0.17334 0.0
H484 H 0.72949 0.71701 0.03262 0.0
C485 C 0.66652 0.65453 0.13966 0.0
C486 C 0.99482 0.68452 0.35224 0.0
C487 C 1.00706 0.68091 0.4445 0.0
H488 H 1.00285 0.6963 0.19388 0.0
C489 C 0.03948 0.6936 0.45128 0.0
H490 H 0.97041 0.6768 0.34505 0.0
C491 C 0.05855 0.70653 0.36561 0.0
C492 C 0.04557 0.70583 0.26981 0.0
H493 H 0.05001 0.69257 0.52219 0.0
H494 H 0.08325 0.71574 0.37388 0.0
C495 C 1.01364 0.69613 0.26536 0.0
C496 C 0.38132 0.02169 0.47688 0.0
C497 C 0.36384 0.02876 0.40872 0.0
H498 H 0.38143 0.99686 0.6101 0.0
C499 C 0.3321 0.01703 0.42854 0.0
H500 H 0.40593 0.0307 0.4639 0.0
C501 C 0.31771 0.99685 0.51172 0.0
C502 C 0.33501 0.98877 0.57812 0.0
H503 H 0.3182 0.02235 0.3774 0.0
H504 H 0.29286 0.98683 0.52219 0.0
C505 C 0.36725 1.00245 0.56144 0.0
C506 C 0.34435 0.35725 0.76807 0.0
C507 C 0.35658 0.33693 0.76414 0.0
H508 H 0.32932 0.38449 0.68533 0.0
C509 C 0.3581 0.32477 0.66887 0.0
H510 H 0.34278 0.3672 0.83958 0.0
C511 C 0.34996 0.3347 0.57934 0.0
C512 C 0.33955 0.3565 0.58317 0.0
H513 H 0.367 0.30875 0.66282 0.0
H514 H 0.35281 0.32612 0.5068 0.0
C515 C 0.33611 0.36694 0.67897 0.0
C516 C 0.18019 0.39292 0.29658 0.0
C517 C 0.18113 0.39386 0.18968 0.0
H518 H 0.20453 0.3953 0.43445 0.0
C519 C 0.20462 0.39111 0.13982 0.0
H520 H 0.16274 0.39584 0.33676 0.0
C521 C 0.22849 0.39063 0.19606 0.0
C522 C 0.22921 0.39295 0.30275 0.0
H523 H 0.20641 0.39275 0.05774 0.0
H524 H 0.24807 0.3918 0.15567 0.0
C525 C 0.20408 0.39256 0.35269 0.0
C526 C 0.80533 0.17328 0.49736 0.0
C527 C 0.80323 0.1697 0.39112 0.0
H528 H 0.82973 0.20348 0.62274 0.0
C529 C 0.82846 0.19098 0.33132 0.0
H530 H 0.78577 0.15768 0.54487 0.0
C531 C 0.8537 0.21728 0.37619 0.0
C532 C 0.85407 0.22256 0.48135 0.0
H533 H 0.82697 0.18938 0.2492 0.0
H534 H 0.87114 0.2352 0.32735 0.0
C535 C 0.8305 0.19952 0.54211 0.0
C536 C 0.65875 0.85156 0.5456 0.0
C537 C 0.65516 0.85222 0.65151 0.0
H538 H 0.65622 0.82368 0.41655 0.0
C539 C 0.65325 0.82754 0.7105 0.0
H540 H 0.6592 0.86981 0.4981 0.0
C541 C 0.65159 0.80121 0.66384 0.0
C542 C 0.65171 0.79902 0.55733 0.0
H543 H 0.64942 0.82695 0.79172 0.0
H544 H 0.64667 0.78107 0.71058 0.0
C545 C 0.65705 0.82513 0.49874 0.0
C546 C 0.83324 0.64333 0.85549 0.0
C547 C 0.80804 0.6421 0.80268 0.0
H548 H 0.87505 0.64068 0.84511 0.0
C549 C 0.80889 0.64312 0.69583 0.0
H550 H 0.83268 0.64155 0.93764 0.0
C551 C 0.83282 0.64197 0.64274 0.0
C552 C 0.8565 0.64028 0.69586 0.0
H553 H 0.78933 0.64135 0.6534 0.0
H554 H 0.83111 0.6393 0.5609 0.0
C555 C 0.8574 0.64266 0.80241 0.0
C556 C 0.21548 0.84199 0.84081 0.0
C557 C 0.23998 0.86276 0.90367 0.0
H558 H 0.17275 0.79804 0.83181 0.0
C559 C 0.23643 0.85873 0.00976 0.0
H560 H 0.218 0.844 0.75893 0.0
C561 C 0.21041 0.83251 0.05174 0.0
C562 C 0.18778 0.80975 0.98797 0.0
H563 H 0.25542 0.87398 0.05967 0.0
H564 H 0.20997 0.8282 0.1327 0.0
C565 C 0.18966 0.81558 0.88269 0.0
C566 C 0.38392 0.17581 0.0381 0.0
C567 C 0.38733 0.17553 0.14434 0.0
H568 H 0.38662 0.20321 0.90665 0.0
C569 C 0.38927 0.20046 0.20121 0.0
H570 H 0.3834 0.15731 0.99229 0.0
C571 C 0.39114 0.22665 0.15226 0.0
C572 C 0.3912 0.22844 0.04556 0.0
H573 H 0.39292 0.20132 0.28263 0.0
H574 H 0.39585 0.2469 0.19756 0.0
C575 C 0.38581 0.2021 0.9889 0.0
C576 C 0.11666 0.38917 0.5453 0.0
C577 C 0.1145 0.41018 0.47758 0.0
H578 H 0.12946 0.38181 0.69406 0.0
C579 C 0.12421 0.44081 0.51093 0.0
H580 H 0.11003 0.36561 0.52191 0.0
C581 C 0.13569 0.45019 0.60938 0.0
C582 C 0.13765 0.42913 0.67729 0.0
H583 H 0.12254 0.45748 0.46128 0.0
H584 H 0.14217 0.4737 0.63308 0.0
C585 C 0.12806 0.39853 0.6439 0.0
C586 C 0.70148 0.09343 0.84807 0.0
C587 C 0.71786 0.12576 0.86946 0.0
H588 H 0.68413 0.05771 0.73433 0.0
C589 C 0.72833 0.14714 0.78826 0.0
H590 H 0.69342 0.07624 0.90827 0.0
C591 C 0.72318 0.13643 0.68812 0.0
C592 C 0.70748 0.10407 0.66708 0.0
H593 H 0.74085 0.17214 0.80208 0.0
H594 H 0.73248 0.15357 0.62746 0.0
C595 C 0.6964 0.08272 0.74815 0.0
C596 C 0.60215 0.7177 0.85564 0.0
C597 C 0.6188 0.7021 0.83457 0.0
H598 H 0.58375 0.73487 0.96959 0.0
C599 C 0.62871 0.6907 0.91559 0.0
H600 H 0.59457 0.72723 0.79501 0.0
C601 C 0.6227 0.69533 0.01553 0.0
C602 C 0.60675 0.71161 0.03702 0.0
H603 H 0.64142 0.6785 0.90172 0.0
H604 H 0.63151 0.68699 0.07568 0.0
C605 C 0.59622 0.72241 0.95578 0.0
C606 C 0.94643 0.63433 0.08137 0.0
C607 C 0.92491 0.62538 1.00139 0.0
H608 H 0.95321 0.63148 0.24067 0.0
C609 C 0.89285 0.6071 0.0234 0.0
H610 H 0.97122 0.64758 0.06675 0.0
C611 C 0.88263 0.59827 0.12355 0.0
C612 C 0.90427 0.60771 0.20301 0.0
H613 H 0.87563 0.59987 0.96359 0.0
H614 H 0.85792 0.58443 0.13929 0.0
C615 C 0.93618 0.62536 0.18086 0.0
C616 C 0.34251 0.93761 0.36047 0.0
C617 C 0.32527 0.9053 0.38238 0.0
H618 H 0.36074 0.9734 0.24622 0.0
C619 C 0.31413 0.88398 0.30138 0.0
H620 H 0.35115 0.95477 0.42038 0.0
C621 C 0.31957 0.89478 0.20104 0.0
C622 C 0.33618 0.92715 0.17963 0.0
H623 H 0.30093 0.85899 0.31549 0.0
H624 H 0.30983 0.87775 0.14045 0.0
C625 C 0.34781 0.9484 0.26043 0.0
C626 C 0.42085 0.33531 0.49678 0.0
C627 C 0.43623 0.31849 0.52037 0.0
H628 H 0.40011 0.34982 0.38103 0.0
C629 C 0.44588 0.30664 0.43971 0.0
H630 H 0.41359 0.34558 0.55512 0.0
C631 C 0.43871 0.30996 0.33921 0.0
C632 C 0.42149 0.32486 0.31767 0.0
H633 H 0.45835 0.2942 0.45396 0.0
H634 H 0.44535 0.29964 0.27865 0.0
C635 C 0.41312 0.33797 0.39679 0.0
C636 C 0.61464 0.87844 0.21483 0.0
C637 C 0.62462 0.90002 0.13462 0.0
H638 H 0.61493 0.87149 0.37458 0.0
C639 C 0.64274 0.93221 0.15573 0.0
H640 H 0.60084 0.85354 0.19992 0.0
C641 C 0.65037 0.94271 0.25544 0.0
C642 C 0.64026 0.92124 0.33655 0.0
H643 H 0.65027 0.9494 0.09515 0.0
H644 H 0.66349 0.96772 0.26867 0.0
C645 C 0.62265 0.88889 0.31481 0.0
C646 C 0.74115 0.60058 0.38148 0.0
C647 C 0.73171 0.61245 0.30068 0.0
H648 H 0.74618 0.59884 0.54164 0.0
C649 C 0.7193 0.63202 0.32141 0.0
H650 H 0.75089 0.58558 0.36705 0.0
C651 C 0.71603 0.6393 0.42114 0.0
C652 C 0.72531 0.62737 0.50272 0.0
H653 H 0.71118 0.64097 0.26052 0.0
H654 H 0.70552 0.65367 0.43393 0.0
C655 C 0.73823 0.60815 0.48151 0.0
C656 C 0.16313 0.73672 0.58565 0.0
C657 C 0.14314 0.71823 0.50664 0.0
H658 H 0.16767 0.74882 0.74399 0.0
C659 C 0.11247 0.69499 0.53283 0.0
H660 H 0.18698 0.75447 0.57083 0.0
C661 C 0.1015 0.69225 0.63241 0.0
C662 C 0.1211 0.71194 0.70864 0.0
H663 H 0.09632 0.67946 0.47652 0.0
H664 H 0.07749 0.67525 0.64972 0.0
C665 C 0.15221 0.73353 0.68543 0.0
C666 C 0.4274 0.14954 0.71183 0.0
C667 C 0.41733 0.12803 0.63183 0.0
H668 H 0.42726 0.15641 0.87133 0.0
C669 C 0.39904 0.09584 0.65329 0.0
H670 H 0.44131 0.17444 0.69669 0.0
C671 C 0.39144 0.08525 0.75313 0.0
C672 C 0.40171 0.10664 0.83409 0.0
H673 H 0.3914 0.07871 0.5929 0.0
H674 H 0.37822 0.06024 0.76647 0.0
C675 C 0.4194 0.13901 0.8119 0.0
C676 C 0.28848 0.39225 0.83988 0.0
C677 C 0.30441 0.42401 0.80933 0.0
H678 H 0.27915 0.359 0.95971 0.0
C679 C 0.32252 0.4468 0.88223 0.0
H680 H 0.27387 0.37389 0.78733 0.0
C681 C 0.32525 0.43813 0.98119 0.0
C682 C 0.31014 0.40644 0.0104 0.0
H683 H 0.33552 0.47141 0.86284 0.0
H684 H 0.33993 0.45629 0.03442 0.0
C685 C 0.29155 0.38357 0.93889 0.0
C686 C 0.88931 0.29248 0.13612 0.0
C687 C 0.92135 0.30658 0.1589 0.0
H688 H 0.85459 0.28068 0.01987 0.0
C689 C 0.94299 0.31941 0.07933 0.0
H690 H 0.87195 0.28201 0.19531 0.0
C691 C 0.93292 0.31837 0.97981 0.0
C692 C 0.90105 0.30438 0.9572 0.0
H693 H 0.96777 0.33106 0.09413 0.0
H694 H 0.95009 0.3293 0.92037 0.0
C695 C 0.87927 0.29159 0.03603 0.0
loop_
_geom_bond_atom_site_label_1
_geom_bond_atom_site_label_2
_geom_bond_distance
_geom_bond_site_symmetry_2
_ccdc_geom_bond_type
C0 C1 1.351 . S
C0 N3 1.368 . S
C0 H5 0.931 . S
C1 C0 1.351 . S
C1 N2 1.373 . S
C1 H29 0.930 . S
N2 C1 1.373 . S
N2 C4 1.340 . S
N3 C0 1.368 . S
N3 C4 1.321 . S
N3 Co6 2.135 1_556 S
C4 N2 1.340 . S
C4 N3 1.321 . S
C4 H28 0.930 . S
H5 C0 0.931 . S
Co6 N3 2.135 1_554 S
Co6 N9 2.121 . S
Co6 O14 2.055 . S
Co6 O17 2.039 . S
Co6 N20 2.140 . S
C7 O8 1.227 . S
C7 O17 1.265 1_556 S
O8 C7 1.227 . S
N9 Co6 2.121 . S
N9 C11 1.375 . S
N9 C12 1.313 . S
C10 C11 1.338 . S
C10 N13 1.377 . S
C10 H30 0.930 . S
C11 N9 1.375 . S
C11 C10 1.338 . S
C11 H15 0.931 . S
C12 N9 1.313 . S
C12 N13 1.344 . S
C12 H16 0.930 . S
N13 C10 1.377 . S
N13 C12 1.344 . S
O14 Co6 2.055 . S
O14 C18 1.253 . S
H15 C11 0.931 . S
H16 C12 0.930 . S
O17 Co6 2.039 . S
O17 C7 1.265 1_554 S
C18 O14 1.253 . S
C18 O19 1.227 . S
O19 C18 1.227 . S
N20 Co6 2.140 . S
N20 C23 1.346 1_554 S
N20 C24 1.345 . S
C21 C22 1.387 1_554 S
C21 C25 1.391 . S
C22 C21 1.387 1_556 S
C22 C23 1.369 . S
C22 H31 0.929 . S
C23 N20 1.346 1_556 S
C23 C22 1.369 . S
C23 H26 0.928 . S
C24 N20 1.345 . S
C24 C25 1.371 . S
C24 H27 0.931 . S
C25 C21 1.391 . S
C25 C24 1.371 . S
C25 H32 0.930 . S
H26 C23 0.928 . S
H27 C24 0.931 . S
H28 C4 0.930 . S
H29 C1 0.930 . S
H30 C10 0.930 . S
H31 C22 0.929 . S
H32 C25 0.930 . S
C33 C34 1.351 1_554 S
C33 N36 1.368 . S
C33 H38 0.931 . S
C34 C33 1.351 1_556 S
C34 N35 1.373 . S
C34 H62 0.930 . S
N35 C34 1.373 . S
N35 C37 1.340 . S
N36 C33 1.368 . S
N36 C37 1.321 1_554 S
N36 Co39 2.135 . S
C37 N35 1.340 . S
C37 N36 1.321 1_556 S
C37 H61 0.930 . S
H38 C33 0.931 . S
Co39 N36 2.135 . S
Co39 N42 2.121 . S
Co39 O47 2.055 . S
Co39 O50 2.039 . S
Co39 N53 2.140 . S
C40 O41 1.227 . S
C40 O50 1.265 . S
O41 C40 1.227 . S
N42 Co39 2.121 . S
N42 C44 1.375 . S
N42 C45 1.313 . S
C43 C44 1.338 . S
C43 N46 1.377 . S
C43 H63 0.930 . S
C44 N42 1.375 . S
C44 C43 1.338 . S
C44 H48 0.931 . S
C45 N42 1.313 . S
C45 N46 1.344 . S
C45 H49 0.930 . S
N46 C43 1.377 . S
N46 C45 1.344 . S
O47 Co39 2.055 . S
O47 C51 1.253 . S
H48 C44 0.931 . S
H49 C45 0.930 . S
O50 Co39 2.039 . S
O50 C40 1.265 . S
C51 O47 1.253 . S
C51 O52 1.227 . S
O52 C51 1.227 . S
N53 Co39 2.140 . S
N53 C56 1.346 . S
N53 C57 1.345 . S
C54 C55 1.387 . S
C54 C58 1.391 . S
C55 C54 1.387 . S
C55 C56 1.369 . S
C55 H64 0.929 . S
C56 N53 1.346 . S
C56 C55 1.369 . S
C56 H59 0.928 . S
C57 N53 1.345 . S
C57 C58 1.371 . S
C57 H60 0.931 . S
C58 C54 1.391 . S
C58 C57 1.371 . S
C58 H65 0.930 . S
H59 C56 0.928 . S
H60 C57 0.931 . S
H61 C37 0.930 . S
H62 C34 0.930 . S
H63 C43 0.930 . S
H64 C55 0.929 . S
H65 C58 0.930 . S
C66 C67 1.351 . S
C66 N69 1.368 . S
C66 H71 0.931 . S
C67 C66 1.351 . S
C67 N68 1.373 . S
C67 H95 0.930 . S
N68 C67 1.373 . S
N68 C70 1.340 . S
N69 C66 1.368 . S
N69 C70 1.321 . S
N69 Co72 2.135 . S
C70 N68 1.340 . S
C70 N69 1.321 . S
C70 H94 0.930 . S
H71 C66 0.931 . S
Co72 N69 2.135 . S
Co72 N75 2.121 . S
Co72 O80 2.055 . S
Co72 O83 2.039 . S
Co72 N86 2.140 . S
C73 O74 1.227 . S
C73 O83 1.265 . S
O74 C73 1.227 . S
N75 Co72 2.121 . S
N75 C77 1.375 . S
N75 C78 1.313 . S
C76 C77 1.338 . S
C76 N79 1.377 . S
C76 H96 0.930 . S
C77 N75 1.375 . S
C77 C76 1.338 . S
C77 H81 0.931 . S
C78 N75 1.313 . S
C78 N79 1.344 . S
C78 H82 0.930 . S
N79 C76 1.377 . S
N79 C78 1.344 . S
O80 Co72 2.055 . S
O80 C84 1.253 . S
H81 C77 0.931 . S
H82 C78 0.930 . S
O83 Co72 2.039 . S
O83 C73 1.265 . S
C84 O80 1.253 . S
C84 O85 1.227 . S
O85 C84 1.227 . S
N86 Co72 2.140 . S
N86 C89 1.346 . S
N86 C90 1.345 . S
C87 C88 1.387 . S
C87 C91 1.391 . S
C88 C87 1.387 . S
C88 C89 1.369 . S
C88 H97 0.929 . S
C89 N86 1.346 . S
C89 C88 1.369 . S
C89 H92 0.928 . S
C90 N86 1.345 . S
C90 C91 1.371 . S
C90 H93 0.931 . S
C91 C87 1.391 . S
C91 C90 1.371 . S
C91 H98 0.930 . S
H92 C89 0.928 . S
H93 C90 0.931 . S
H94 C70 0.930 . S
H95 C67 0.930 . S
H96 C76 0.930 . S
H97 C88 0.929 . S
H98 C91 0.930 . S
C99 C100 1.351 . S
C99 N102 1.368 . S
C99 H104 0.931 . S
C100 C99 1.351 . S
C100 N101 1.373 . S
C100 H128 0.930 . S
N101 C100 1.373 . S
N101 C103 1.340 . S
N102 C99 1.368 . S
N102 C103 1.321 . S
N102 Co105 2.135 . S
C103 N101 1.340 . S
C103 N102 1.321 . S
C103 H127 0.930 . S
H104 C99 0.931 . S
Co105 N102 2.135 . S
Co105 N108 2.121 . S
Co105 O113 2.055 . S
Co105 O116 2.039 . S
Co105 N119 2.140 . S
C106 O107 1.227 . S
C106 O116 1.265 . S
O107 C106 1.227 . S
N108 Co105 2.121 . S
N108 C110 1.375 . S
N108 C111 1.313 . S
C109 C110 1.338 . S
C109 N112 1.377 . S
C109 H129 0.930 . S
C110 N108 1.375 . S
C110 C109 1.338 . S
C110 H114 0.931 . S
C111 N108 1.313 . S
C111 N112 1.344 . S
C111 H115 0.930 . S
N112 C109 1.377 . S
N112 C111 1.344 . S
O113 Co105 2.055 . S
O113 C117 1.253 . S
H114 C110 0.931 . S
H115 C111 0.930 . S
O116 Co105 2.039 . S
O116 C106 1.265 . S
C117 O113 1.253 . S
C117 O118 1.227 . S
O118 C117 1.227 . S
N119 Co105 2.140 . S
N119 C122 1.346 . S
N119 C123 1.345 . S
C120 C121 1.387 . S
C120 C124 1.391 . S
C121 C120 1.387 . S
C121 C122 1.369 . S
C121 H130 0.929 . S
C122 N119 1.346 . S
C122 C121 1.369 . S
C122 H125 0.928 . S
C123 N119 1.345 . S
C123 C124 1.371 . S
C123 H126 0.931 . S
C124 C120 1.391 . S
C124 C123 1.371 . S
C124 H131 0.930 . S
H125 C122 0.928 . S
H126 C123 0.931 . S
H127 C103 0.930 . S
H128 C100 0.930 . S
H129 C109 0.930 . S
H130 C121 0.929 . S
H131 C124 0.930 . S
C132 C133 1.351 . S
C132 N135 1.368 . S
C132 H137 0.931 . S
C133 C132 1.351 . S
C133 N134 1.373 . S
C133 H161 0.930 . S
N134 C133 1.373 . S
N134 C136 1.340 . S
N135 C132 1.368 . S
N135 C136 1.321 . S
N135 Co138 2.135 . S
C136 N134 1.340 . S
C136 N135 1.321 . S
C136 H160 0.930 . S
H137 C132 0.931 . S
Co138 N135 2.135 . S
Co138 N141 2.121 . S
Co138 O146 2.055 . S
Co138 O149 2.039 . S
Co138 N152 2.140 . S
C139 O140 1.227 . S
C139 O149 1.265 . S
O140 C139 1.227 . S
N141 Co138 2.121 . S
N141 C143 1.375 . S
N141 C144 1.313 . S
C142 C143 1.338 . S
C142 N145 1.377 1_556 S
C142 H162 0.930 1_556 S
C143 N141 1.375 . S
C143 C142 1.338 . S
C143 H147 0.931 . S
C144 N141 1.313 . S
C144 N145 1.344 1_556 S
C144 H148 0.930 . S
N145 C142 1.377 1_554 S
N145 C144 1.344 1_554 S
O146 Co138 2.055 . S
O146 C150 1.253 . S
H147 C143 0.931 . S
H148 C144 0.930 . S
O149 Co138 2.039 . S
O149 C139 1.265 . S
C150 O146 1.253 . S
C150 O151 1.227 . S
O151 C150 1.227 . S
N152 Co138 2.140 . S
N152 C155 1.346 . S
N152 C156 1.345 . S
C153 C154 1.387 . S
C153 C157 1.391 . S
C154 C153 1.387 . S
C154 C155 1.369 . S
C154 H163 0.929 . S
C155 N152 1.346 . S
C155 C154 1.369 . S
C155 H158 0.928 . S
C156 N152 1.345 . S
C156 C157 1.371 . S
C156 H159 0.931 . S
C157 C153 1.391 . S
C157 C156 1.371 . S
C157 H164 0.930 . S
H158 C155 0.928 . S
H159 C156 0.931 . S
H160 C136 0.930 . S
H161 C133 0.930 . S
H162 C142 0.930 1_554 S
H163 C154 0.929 . S
H164 C157 0.930 . S
C165 C166 1.351 . S
C165 N168 1.368 . S
C165 H170 0.931 . S
C166 C165 1.351 . S
C166 N167 1.373 . S
C166 H194 0.930 . S
N167 C166 1.373 . S
N167 C169 1.340 . S
N168 C165 1.368 . S
N168 C169 1.321 . S
N168 Co171 2.135 . S
C169 N167 1.340 . S
C169 N168 1.321 . S
C169 H193 0.930 . S
H170 C165 0.931 . S
Co171 N168 2.135 . S
Co171 N174 2.121 1_556 S
Co171 O179 2.055 . S
Co171 O182 2.039 . S
Co171 N185 2.140 . S
C172 O173 1.227 . S
C172 O182 1.265 . S
O173 C172 1.227 . S
N174 Co171 2.121 1_554 S
N174 C176 1.375 . S
N174 C177 1.313 . S
C175 C176 1.338 . S
C175 N178 1.377 . S
C175 H195 0.930 . S
C176 N174 1.375 . S
C176 C175 1.338 . S
C176 H180 0.931 . S
C177 N174 1.313 . S
C177 N178 1.344 . S
C177 H181 0.930 . S
N178 C175 1.377 . S
N178 C177 1.344 . S
O179 Co171 2.055 . S
O179 C183 1.253 . S
H180 C176 0.931 . S
H181 C177 0.930 . S
O182 Co171 2.039 . S
O182 C172 1.265 . S
C183 O179 1.253 . S
C183 O184 1.227 . S
O184 C183 1.227 . S
N185 Co171 2.140 . S
N185 C188 1.346 . S
N185 C189 1.345 . S
C186 C187 1.387 . S
C186 C190 1.391 . S
C187 C186 1.387 . S
C187 C188 1.369 . S
C187 H196 0.929 . S
C188 N185 1.346 . S
C188 C187 1.369 . S
C188 H191 0.928 . S
C189 N185 1.345 . S
C189 C190 1.371 . S
C189 H192 0.931 1_556 S
C190 C186 1.391 . S
C190 C189 1.371 . S
C190 H197 0.930 1_556 S
H191 C188 0.928 . S
H192 C189 0.931 1_554 S
H193 C169 0.930 . S
H194 C166 0.930 . S
H195 C175 0.930 . S
H196 C187 0.929 . S
H197 C190 0.930 1_554 S
C198 C199 1.351 1_556 S
C198 N201 1.368 . S
C198 H203 0.931 . S
C199 C198 1.351 1_554 S
C199 N200 1.373 . S
C199 H227 0.930 . S
N200 C199 1.373 . S
N200 C202 1.340 . S
N201 C198 1.368 . S
N201 C202 1.321 1_556 S
N201 Co204 2.135 . S
C202 N200 1.340 . S
C202 N201 1.321 1_554 S
C202 H226 0.930 . S
H203 C198 0.931 . S
Co204 N201 2.135 . S
Co204 N207 2.121 . S
Co204 O212 2.055 . S
Co204 O215 2.039 . S
Co204 N218 2.140 . S
C205 O206 1.227 . S
C205 O215 1.265 . S
O206 C205 1.227 . S
N207 Co204 2.121 . S
N207 C209 1.375 . S
N207 C210 1.313 . S
C208 C209 1.338 . S
C208 N211 1.377 . S
C208 H228 0.930 . S
C209 N207 1.375 . S
C209 C208 1.338 . S
C209 H213 0.931 . S
C210 N207 1.313 . S
C210 N211 1.344 . S
C210 H214 0.930 . S
N211 C208 1.377 . S
N211 C210 1.344 . S
O212 Co204 2.055 . S
O212 C216 1.253 . S
H213 C209 0.931 . S
H214 C210 0.930 . S
O215 Co204 2.039 . S
O215 C205 1.265 . S
C216 O212 1.253 . S
C216 O217 1.227 . S
O217 C216 1.227 . S
N218 Co204 2.140 . S
N218 C221 1.346 . S
N218 C222 1.345 . S
C219 C220 1.387 . S
C219 C223 1.391 . S
C220 C219 1.387 . S
C220 C221 1.369 . S
C220 H229 0.929 . S
C221 N218 1.346 . S
C221 C220 1.369 . S
C221 H224 0.928 . S
C222 N218 1.345 . S
C222 C223 1.371 . S
C222 H225 0.931 . S
C223 C219 1.391 . S
C223 C222 1.371 . S
C223 H230 0.930 . S
H224 C221 0.928 . S
H225 C222 0.931 . S
H226 C202 0.930 . S
H227 C199 0.930 . S
H228 C208 0.930 . S
H229 C220 0.929 . S
H230 C223 0.930 . S
C231 C232 1.351 . S
C231 N234 1.368 . S
C231 H236 0.931 . S
C232 C231 1.351 . S
C232 N233 1.373 . S
C232 H260 0.930 . S
N233 C232 1.373 . S
N233 C235 1.340 . S
N234 C231 1.368 . S
N234 C235 1.321 . S
N234 Co237 2.135 1_554 S
C235 N233 1.340 . S
C235 N234 1.321 . S
C235 H259 0.930 . S
H236 C231 0.931 . S
Co237 N234 2.135 1_556 S
Co237 N240 2.121 . S
Co237 O245 2.055 . S
Co237 O248 2.039 . S
Co237 N251 2.140 . S
C238 O239 1.227 . S
C238 O248 1.265 1_554 S
O239 C238 1.227 . S
N240 Co237 2.121 . S
N240 C242 1.375 . S
N240 C243 1.313 . S
C241 C242 1.338 . S
C241 N244 1.377 . S
C241 H261 0.930 . S
C242 N240 1.375 . S
C242 C241 1.338 . S
C242 H246 0.931 . S
C243 N240 1.313 . S
C243 N244 1.344 . S
C243 H247 0.930 . S
N244 C241 1.377 . S
N244 C243 1.344 . S
O245 Co237 2.055 . S
O245 C249 1.253 . S
H246 C242 0.931 . S
H247 C243 0.930 . S
O248 Co237 2.039 . S
O248 C238 1.265 1_556 S
C249 O245 1.253 . S
C249 O250 1.227 . S
O250 C249 1.227 . S
N251 Co237 2.140 . S
N251 C254 1.346 1_556 S
N251 C255 1.345 . S
C252 C253 1.387 1_556 S
C252 C256 1.391 . S
C253 C252 1.387 1_554 S
C253 C254 1.369 . S
C253 H262 0.929 . S
C254 N251 1.346 1_554 S
C254 C253 1.369 . S
C254 H257 0.928 . S
C255 N251 1.345 . S
C255 C256 1.371 . S
C255 H258 0.931 . S
C256 C252 1.391 . S
C256 C255 1.371 . S
C256 H263 0.930 . S
H257 C254 0.928 . S
H258 C255 0.931 . S
H259 C235 0.930 . S
H260 C232 0.930 . S
H261 C241 0.930 . S
H262 C253 0.929 . S
H263 C256 0.930 . S
C264 C265 1.351 . S
C264 N267 1.368 . S
C264 H269 0.931 . S
C265 C264 1.351 . S
C265 N266 1.373 . S
C265 H293 0.930 . S
N266 C265 1.373 . S
N266 C268 1.340 . S
N267 C264 1.368 . S
N267 C268 1.321 . S
N267 Co270 2.135 . S
C268 N266 1.340 . S
C268 N267 1.321 . S
C268 H292 0.930 . S
H269 C264 0.931 . S
Co270 N267 2.135 . S
Co270 N273 2.121 1_554 S
Co270 O278 2.055 . S
Co270 O281 2.039 . S
Co270 N284 2.140 . S
C271 O272 1.227 . S
C271 O281 1.265 . S
O272 C271 1.227 . S
N273 Co270 2.121 1_556 S
N273 C275 1.375 . S
N273 C276 1.313 . S
C274 C275 1.338 . S
C274 N277 1.377 . S
C274 H294 0.930 . S
C275 N273 1.375 . S
C275 C274 1.338 . S
C275 H279 0.931 . S
C276 N273 1.313 . S
C276 N277 1.344 . S
C276 H280 0.930 . S
N277 C274 1.377 . S
N277 C276 1.344 . S
O278 Co270 2.055 . S
O278 C282 1.253 . S
H279 C275 0.931 . S
H280 C276 0.930 . S
O281 Co270 2.039 . S
O281 C271 1.265 . S
C282 O278 1.253 . S
C282 O283 1.227 . S
O283 C282 1.227 . S
N284 Co270 2.140 . S
N284 C287 1.346 . S
N284 C288 1.345 . S
C285 C286 1.387 . S
C285 C289 1.391 . S
C286 C285 1.387 . S
C286 C287 1.369 . S
C286 H295 0.929 . S
C287 N284 1.346 . S
C287 C286 1.369 . S
C287 H290 0.928 . S
C288 N284 1.345 . S
C288 C289 1.371 . S
C288 H291 0.931 1_554 S
C289 C285 1.391 . S
C289 C288 1.371 . S
C289 H296 0.930 1_554 S
H290 C287 0.928 . S
H291 C288 0.931 1_556 S
H292 C268 0.930 . S
H293 C265 0.930 . S
H294 C274 0.930 . S
H295 C286 0.929 . S
H296 C289 0.930 1_556 S
C297 C298 1.351 . S
C297 N300 1.368 . S
C297 H302 0.931 . S
C298 C297 1.351 . S
C298 N299 1.373 . S
C298 H326 0.930 . S
N299 C298 1.373 . S
N299 C301 1.340 . S
N300 C297 1.368 . S
N300 C301 1.321 . S
N300 Co303 2.135 . S
C301 N299 1.340 . S
C301 N300 1.321 . S
C301 H325 0.930 . S
H302 C297 0.931 . S
Co303 N300 2.135 . S
Co303 N306 2.121 . S
Co303 O311 2.055 . S
Co303 O314 2.039 . S
Co303 N317 2.140 . S
C304 O305 1.227 . S
C304 O314 1.265 . S
O305 C304 1.227 . S
N306 Co303 2.121 . S
N306 C308 1.375 . S
N306 C309 1.313 . S
C307 C308 1.338 . S
C307 N310 1.377 1_554 S
C307 H327 0.930 1_554 S
C308 N306 1.375 . S
C308 C307 1.338 . S
C308 H312 0.931 . S
C309 N306 1.313 . S
C309 N310 1.344 1_554 S
C309 H313 0.930 . S
N310 C307 1.377 1_556 S
N310 C309 1.344 1_556 S
O311 Co303 2.055 . S
O311 C315 1.253 . S
H312 C308 0.931 . S
H313 C309 0.930 . S
O314 Co303 2.039 . S
O314 C304 1.265 . S
C315 O311 1.253 . S
C315 O316 1.227 . S
O316 C315 1.227 . S
N317 Co303 2.140 . S
N317 C320 1.346 . S
N317 C321 1.345 . S
C318 C319 1.387 . S
C318 C322 1.391 . S
C319 C318 1.387 . S
C319 C320 1.369 . S
C319 H328 0.929 . S
C320 N317 1.346 . S
C320 C319 1.369 . S
C320 H323 0.928 . S
C321 N317 1.345 . S
C321 C322 1.371 . S
C321 H324 0.931 . S
C322 C318 1.391 . S
C322 C321 1.371 . S
C322 H329 0.930 . S
H323 C320 0.928 . S
H324 C321 0.931 . S
H325 C301 0.930 . S
H326 C298 0.930 . S
H327 C307 0.930 1_556 S
H328 C319 0.929 . S
H329 C322 0.930 . S
C330 C331 1.351 . S
C330 N333 1.368 . S
C330 H335 0.931 . S
C331 C330 1.351 . S
C331 N332 1.373 . S
C331 H359 0.930 . S
N332 C331 1.373 . S
N332 C334 1.340 . S
N333 C330 1.368 . S
N333 C334 1.321 . S
N333 Co336 2.135 . S
C334 N332 1.340 . S
C334 N333 1.321 . S
C334 H358 0.930 . S
H335 C330 0.931 . S
Co336 N333 2.135 . S
Co336 N339 2.121 . S
Co336 O344 2.055 . S
Co336 O347 2.039 . S
Co336 N350 2.140 . S
C337 O338 1.227 . S
C337 O347 1.265 . S
O338 C337 1.227 . S
N339 Co336 2.121 . S
N339 C341 1.375 . S
N339 C342 1.313 . S
C340 C341 1.338 . S
C340 N343 1.377 . S
C340 H360 0.930 . S
C341 N339 1.375 . S
C341 C340 1.338 . S
C341 H345 0.931 . S
C342 N339 1.313 . S
C342 N343 1.344 . S
C342 H346 0.930 . S
N343 C340 1.377 . S
N343 C342 1.344 . S
O344 Co336 2.055 . S
O344 C348 1.253 . S
H345 C341 0.931 . S
H346 C342 0.930 . S
O347 Co336 2.039 . S
O347 C337 1.265 . S
C348 O344 1.253 . S
C348 O349 1.227 . S
O349 C348 1.227 . S
N350 Co336 2.140 . S
N350 C353 1.346 . S
N350 C354 1.345 . S
C351 C352 1.387 . S
C351 C355 1.391 . S
C352 C351 1.387 . S
C352 C353 1.369 . S
C352 H361 0.929 . S
C353 N350 1.346 . S
C353 C352 1.369 . S
C353 H356 0.928 . S
C354 N350 1.345 . S
C354 C355 1.371 . S
C354 H357 0.931 . S
C355 C351 1.391 . S
C355 C354 1.371 . S
C355 H362 0.930 . S
H356 C353 0.928 . S
H357 C354 0.931 . S
H358 C334 0.930 . S
H359 C331 0.930 . S
H360 C340 0.930 . S
H361 C352 0.929 . S
H362 C355 0.930 . S
C363 C364 1.351 . S
C363 N366 1.368 . S
C363 H368 0.931 . S
C364 C363 1.351 . S
C364 N365 1.373 . S
C364 H392 0.930 . S
N365 C364 1.373 . S
N365 C367 1.340 . S
N366 C363 1.368 . S
N366 C367 1.321 . S
N366 Co369 2.135 . S
C367 N365 1.340 . S
C367 N366 1.321 . S
C367 H391 0.930 . S
H368 C363 0.931 . S
Co369 N366 2.135 . S
Co369 N372 2.121 . S
Co369 O377 2.055 . S
Co369 O380 2.039 . S
Co369 N383 2.140 . S
C370 O371 1.227 . S
C370 O380 1.265 . S
O371 C370 1.227 . S
N372 Co369 2.121 . S
N372 C374 1.375 . S
N372 C375 1.313 . S
C373 C374 1.338 . S
C373 N376 1.377 . S
C373 H393 0.930 . S
C374 N372 1.375 . S
C374 C373 1.338 . S
C374 H378 0.931 . S
C375 N372 1.313 . S
C375 N376 1.344 . S
C375 H379 0.930 . S
N376 C373 1.377 . S
N376 C375 1.344 . S
O377 Co369 2.055 . S
O377 C381 1.253 . S
H378 C374 0.931 . S
H379 C375 0.930 . S
O380 Co369 2.039 . S
O380 C370 1.265 . S
C381 O377 1.253 . S
C381 O382 1.227 . S
O382 C381 1.227 . S
N383 Co369 2.140 . S
N383 C386 1.346 . S
N383 C387 1.345 . S
C384 C385 1.387 . S
C384 C388 1.391 . S
C385 C384 1.387 . S
C385 C386 1.369 . S
C385 H394 0.929 . S
C386 N383 1.346 . S
C386 C385 1.369 . S
C386 H389 0.928 . S
C387 N383 1.345 . S
C387 C388 1.371 . S
C387 H390 0.931 . S
C388 C384 1.391 . S
C388 C387 1.371 . S
C388 H395 0.930 . S
H389 C386 0.928 . S
H390 C387 0.931 . S
H391 C367 0.930 . S
H392 C364 0.930 . S
H393 C373 0.930 . S
H394 C385 0.929 . S
H395 C388 0.930 . S
C396 C397 1.387 . S
C396 H400 0.950 1_554 S
C396 C405 1.390 1_554 S
C397 C396 1.387 . S
C397 C399 1.387 . S
H398 C405 0.950 . S
C399 C397 1.387 . S
C399 C401 1.390 . S
C399 H403 0.950 . S
H400 C396 0.950 1_556 S
C401 C399 1.390 . S
C401 C402 1.387 . S
C401 H404 0.950 . S
C402 C401 1.387 . S
C402 C405 1.387 1_554 S
H403 C399 0.950 . S
H404 C401 0.950 . S
C405 C396 1.390 1_556 S
C405 H398 0.950 . S
C405 C402 1.387 1_556 S
C406 C407 1.387 . S
C406 H410 0.950 . S
C406 C415 1.390 . S
C407 C406 1.387 . S
C407 C409 1.387 . S
H408 C415 0.950 . S
C409 C407 1.387 . S
C409 C411 1.390 . S
C409 H413 0.950 . S
H410 C406 0.950 . S
C411 C409 1.390 . S
C411 C412 1.387 . S
C411 H414 0.950 . S
C412 C411 1.387 . S
C412 C415 1.387 . S
H413 C409 0.950 . S
H414 C411 0.950 . S
C415 C406 1.390 . S
C415 H408 0.950 . S
C415 C412 1.387 . S
C416 C417 1.387 . S
C416 H420 0.950 . S
C416 C425 1.390 . S
C417 C416 1.387 . S
C417 C419 1.387 . S
H418 C425 0.950 . S
C419 C417 1.387 . S
C419 C421 1.390 . S
C419 H423 0.950 . S
H420 C416 0.950 . S
C421 C419 1.390 . S
C421 C422 1.387 . S
C421 H424 0.950 . S
C422 C421 1.387 . S
C422 C425 1.387 . S
H423 C419 0.950 . S
H424 C421 0.950 . S
C425 C416 1.390 . S
C425 H418 0.950 . S
C425 C422 1.387 . S
C426 C427 1.387 . S
C426 H430 0.950 . S
C426 C435 1.390 . S
C427 C426 1.387 . S
C427 C429 1.387 . S
H428 C435 0.950 . S
C429 C427 1.387 . S
C429 C431 1.390 . S
C429 H433 0.950 . S
H430 C426 0.950 . S
C431 C429 1.390 . S
C431 C432 1.387 . S
C431 H434 0.950 . S
C432 C431 1.387 . S
C432 C435 1.387 . S
H433 C429 0.950 . S
H434 C431 0.950 . S
C435 C426 1.390 . S
C435 H428 0.950 . S
C435 C432 1.387 . S
C436 C437 1.387 . S
C436 H440 0.950 . S
C436 C445 1.390 . S
C437 C436 1.387 . S
C437 C439 1.387 . S
H438 C445 0.950 . S
C439 C437 1.387 . S
C439 C441 1.390 . S
C439 H443 0.950 . S
H440 C436 0.950 . S
C441 C439 1.390 . S
C441 C442 1.387 . S
C441 H444 0.950 . S
C442 C441 1.387 . S
C442 C445 1.387 . S
H443 C439 0.950 . S
H444 C441 0.950 . S
C445 C436 1.390 . S
C445 H438 0.950 . S
C445 C442 1.387 . S
C446 C447 1.387 1_554 S
C446 H450 0.950 . S
C446 C455 1.390 . S
C447 C446 1.387 1_556 S
C447 C449 1.387 . S
H448 C455 0.950 . S
C449 C447 1.387 . S
C449 C451 1.390 . S
C449 H453 0.950 . S
H450 C446 0.950 . S
C451 C449 1.390 . S
C451 C452 1.387 . S
C451 H454 0.950 . S
C452 C451 1.387 . S
C452 C455 1.387 1_556 S
H453 C449 0.950 . S
H454 C451 0.950 . S
C455 C446 1.390 . S
C455 H448 0.950 . S
C455 C452 1.387 1_554 S
C456 C457 1.387 . S
C456 H460 0.950 . S
C456 C465 1.390 . S
C457 C456 1.387 . S
C457 C459 1.387 1_455 S
H458 C465 0.950 . S
C459 C457 1.387 1_655 S
C459 C461 1.390 . S
C459 H463 0.950 . S
H460 C456 0.950 . S
C461 C459 1.390 . S
C461 C462 1.387 . S
C461 H464 0.950 . S
C462 C461 1.387 . S
C462 C465 1.387 1_655 S
H463 C459 0.950 . S
H464 C461 0.950 . S
C465 C456 1.390 . S
C465 H458 0.950 . S
C465 C462 1.387 1_455 S
C466 C467 1.387 . S
C466 H470 0.950 . S
C466 C475 1.390 1_566 S
C467 C466 1.387 . S
C467 C469 1.387 . S
H468 C475 0.950 . S
C469 C467 1.387 . S
C469 C471 1.390 1_566 S
C469 H473 0.950 . S
H470 C466 0.950 . S
C471 C469 1.390 1_544 S
C471 C472 1.387 . S
C471 H474 0.950 . S
C472 C471 1.387 . S
C472 C475 1.387 . S
H473 C469 0.950 . S
H474 C471 0.950 . S
C475 C466 1.390 1_544 S
C475 H468 0.950 . S
C475 C472 1.387 . S
C476 C477 1.387 . S
C476 H480 0.950 . S
C476 C485 1.390 . S
C477 C476 1.387 . S
C477 C479 1.387 . S
H478 C485 0.950 . S
C479 C477 1.387 . S
C479 C481 1.390 . S
C479 H483 0.950 . S
H480 C476 0.950 . S
C481 C479 1.390 . S
C481 C482 1.387 . S
C481 H484 0.950 . S
C482 C481 1.387 . S
C482 C485 1.387 . S
H483 C479 0.950 . S
H484 C481 0.950 . S
C485 C476 1.390 . S
C485 H478 0.950 . S
C485 C482 1.387 . S
C486 C487 1.387 . S
C486 H490 0.950 . S
C486 C495 1.390 . S
C487 C486 1.387 . S
C487 C489 1.387 1_655 S
H488 C495 0.950 . S
C489 C487 1.387 1_455 S
C489 C491 1.390 . S
C489 H493 0.950 . S
H490 C486 0.950 . S
C491 C489 1.390 . S
C491 C492 1.387 . S
C491 H494 0.950 . S
C492 C491 1.387 . S
C492 C495 1.387 1_455 S
H493 C489 0.950 . S
H494 C491 0.950 . S
C495 C486 1.390 . S
C495 H488 0.950 . S
C495 C492 1.387 1_655 S
C496 C497 1.387 . S
C496 H500 0.950 . S
C496 C505 1.390 1_545 S
C497 C496 1.387 . S
C497 C499 1.387 . S
H498 C505 0.950 . S
C499 C497 1.387 . S
C499 C501 1.390 1_545 S
C499 H503 0.950 . S
H500 C496 0.950 . S
C501 C499 1.390 1_565 S
C501 C502 1.387 . S
C501 H504 0.950 . S
C502 C501 1.387 . S
C502 C505 1.387 . S
H503 C499 0.950 . S
H504 C501 0.950 . S
C505 C496 1.390 1_565 S
C505 H498 0.950 . S
C505 C502 1.387 . S
C506 C507 1.387 . S
C506 H510 0.950 . S
C506 C515 1.390 . S
C507 C506 1.387 . S
C507 C509 1.387 . S
H508 C515 0.950 . S
C509 C507 1.387 . S
C509 C511 1.390 . S
C509 H513 0.950 . S
H510 C506 0.950 . S
C511 C509 1.390 . S
C511 C512 1.387 . S
C511 H514 0.950 . S
C512 C511 1.387 . S
C512 C515 1.387 . S
H513 C509 0.950 . S
H514 C511 0.950 . S
C515 C506 1.390 . S
C515 H508 0.950 . S
C515 C512 1.387 . S
C516 C517 1.387 . S
C516 H520 0.950 . S
C516 C525 1.390 . S
C517 C516 1.387 . S
C517 C519 1.387 . S
H518 C525 0.950 . S
C519 C517 1.387 . S
C519 C521 1.390 . S
C519 H523 0.950 . S
H520 C516 0.950 . S
C521 C519 1.390 . S
C521 C522 1.387 . S
C521 H524 0.950 . S
C522 C521 1.387 . S
C522 C525 1.387 . S
H523 C519 0.950 . S
H524 C521 0.950 . S
C525 C516 1.390 . S
C525 H518 0.950 . S
C525 C522 1.387 . S
C526 C527 1.387 . S
C526 H530 0.950 . S
C526 C535 1.390 . S
C527 C526 1.387 . S
C527 C529 1.387 . S
H528 C535 0.950 . S
C529 C527 1.387 . S
C529 C531 1.390 . S
C529 H533 0.950 . S
H530 C526 0.950 . S
C531 C529 1.390 . S
C531 C532 1.387 . S
C531 H534 0.950 . S
C532 C531 1.387 . S
C532 C535 1.387 . S
H533 C529 0.950 . S
H534 C531 0.950 . S
C535 C526 1.390 . S
C535 H528 0.950 . S
C535 C532 1.387 . S
C536 C537 1.387 . S
C536 H540 0.950 . S
C536 C545 1.390 . S
C537 C536 1.387 . S
C537 C539 1.387 . S
H538 C545 0.950 . S
C539 C537 1.387 . S
C539 C541 1.390 . S
C539 H543 0.950 . S
H540 C536 0.950 . S
C541 C539 1.390 . S
C541 C542 1.387 . S
C541 H544 0.950 . S
C542 C541 1.387 . S
C542 C545 1.387 . S
H543 C539 0.950 . S
H544 C541 0.950 . S
C545 C536 1.390 . S
C545 H538 0.950 . S
C545 C542 1.387 . S
C546 C547 1.387 . S
C546 H550 0.950 . S
C546 C555 1.390 . S
C547 C546 1.387 . S
C547 C549 1.387 . S
H548 C555 0.950 . S
C549 C547 1.387 . S
C549 C551 1.390 . S
C549 H553 0.950 . S
H550 C546 0.950 . S
C551 C549 1.390 . S
C551 C552 1.387 . S
C551 H554 0.950 . S
C552 C551 1.387 . S
C552 C555 1.387 . S
H553 C549 0.950 . S
H554 C551 0.950 . S
C555 C546 1.390 . S
C555 H548 0.950 . S
C555 C552 1.387 . S
C556 C557 1.387 . S
C556 H560 0.950 . S
C556 C565 1.390 . S
C557 C556 1.387 . S
C557 C559 1.387 . S
H558 C565 0.950 . S
C559 C557 1.387 . S
C559 C561 1.390 1_556 S
C559 H563 0.950 . S
H560 C556 0.950 . S
C561 C559 1.390 1_554 S
C561 C562 1.387 1_554 S
C561 H564 0.950 . S
C562 C561 1.387 1_556 S
C562 C565 1.387 . S
H563 C559 0.950 . S
H564 C561 0.950 . S
C565 C556 1.390 . S
C565 H558 0.950 . S
C565 C562 1.387 . S
C566 C567 1.387 . S
C566 H570 0.950 . S
C566 C575 1.390 1_554 S
C567 C566 1.387 . S
C567 C569 1.387 . S
H568 C575 0.950 . S
C569 C567 1.387 . S
C569 C571 1.390 . S
C569 H573 0.950 . S
H570 C566 0.950 . S
C571 C569 1.390 . S
C571 C572 1.387 . S
C571 H574 0.950 . S
C572 C571 1.387 . S
C572 C575 1.387 1_554 S
H573 C569 0.950 . S
H574 C571 0.950 . S
C575 C566 1.390 1_556 S
C575 H568 0.950 . S
C575 C572 1.387 1_556 S
C576 C577 1.387 . S
C576 H580 0.950 . S
C576 C585 1.390 . S
C577 C576 1.387 . S
C577 C579 1.387 . S
H578 C585 0.950 . S
C579 C577 1.387 . S
C579 C581 1.390 . S
C579 H583 0.950 . S
H580 C576 0.950 . S
C581 C579 1.390 . S
C581 C582 1.387 . S
C581 H584 0.950 . S
C582 C581 1.387 . S
C582 C585 1.387 . S
H583 C579 0.950 . S
H584 C581 0.950 . S
C585 C576 1.390 . S
C585 H578 0.950 . S
C585 C582 1.387 . S
C586 C587 1.387 . S
C586 H590 0.950 . S
C586 C595 1.390 . S
C587 C586 1.387 . S
C587 C589 1.387 . S
H588 C595 0.950 . S
C589 C587 1.387 . S
C589 C591 1.390 . S
C589 H593 0.950 . S
H590 C586 0.950 . S
C591 C589 1.390 . S
C591 C592 1.387 . S
C591 H594 0.950 . S
C592 C591 1.387 . S
C592 C595 1.387 . S
H593 C589 0.950 . S
H594 C591 0.950 . S
C595 C586 1.390 . S
C595 H588 0.950 . S
C595 C592 1.387 . S
C596 C597 1.387 . S
C596 H600 0.950 . S
C596 C605 1.390 . S
C597 C596 1.387 . S
C597 C599 1.387 . S
H598 C605 0.950 . S
C599 C597 1.387 . S
C599 C601 1.390 . S
C599 H603 0.950 . S
H600 C596 0.950 . S
C601 C599 1.390 . S
C601 C602 1.387 . S
C601 H604 0.950 . S
C602 C601 1.387 . S
C602 C605 1.387 . S
H603 C599 0.950 . S
H604 C601 0.950 . S
C605 C596 1.390 . S
C605 H598 0.950 . S
C605 C602 1.387 . S
C606 C607 1.387 1_554 S
C606 H610 0.950 . S
C606 C615 1.390 . S
C607 C606 1.387 1_556 S
C607 C609 1.387 . S
H608 C615 0.950 . S
C609 C607 1.387 . S
C609 C611 1.390 1_556 S
C609 H613 0.950 . S
H610 C606 0.950 . S
C611 C609 1.390 1_554 S
C611 C612 1.387 . S
C611 H614 0.950 . S
C612 C611 1.387 . S
C612 C615 1.387 . S
H613 C609 0.950 . S
H614 C611 0.950 . S
C615 C606 1.390 . S
C615 H608 0.950 . S
C615 C612 1.387 . S
C616 C617 1.387 . S
C616 H620 0.950 . S
C616 C625 1.390 . S
C617 C616 1.387 . S
C617 C619 1.387 . S
H618 C625 0.950 . S
C619 C617 1.387 . S
C619 C621 1.390 . S
C619 H623 0.950 . S
H620 C616 0.950 . S
C621 C619 1.390 . S
C621 C622 1.387 . S
C621 H624 0.950 . S
C622 C621 1.387 . S
C622 C625 1.387 . S
H623 C619 0.950 . S
H624 C621 0.950 . S
C625 C616 1.390 . S
C625 H618 0.950 . S
C625 C622 1.387 . S
C626 C627 1.387 . S
C626 H630 0.950 . S
C626 C635 1.390 . S
C627 C626 1.387 . S
C627 C629 1.387 . S
H628 C635 0.950 . S
C629 C627 1.387 . S
C629 C631 1.390 . S
C629 H633 0.950 . S
H630 C626 0.950 . S
C631 C629 1.390 . S
C631 C632 1.387 . S
C631 H634 0.950 . S
C632 C631 1.387 . S
C632 C635 1.387 . S
H633 C629 0.950 . S
H634 C631 0.950 . S
C635 C626 1.390 . S
C635 H628 0.950 . S
C635 C632 1.387 . S
C636 C637 1.387 . S
C636 H640 0.950 . S
C636 C645 1.390 . S
C637 C636 1.387 . S
C637 C639 1.387 . S
H638 C645 0.950 . S
C639 C637 1.387 . S
C639 C641 1.390 . S
C639 H643 0.950 . S
H640 C636 0.950 . S
C641 C639 1.390 . S
C641 C642 1.387 . S
C641 H644 0.950 . S
C642 C641 1.387 . S
C642 C645 1.387 . S
H643 C639 0.950 . S
H644 C641 0.950 . S
C645 C636 1.390 . S
C645 H638 0.950 . S
C645 C642 1.387 . S
C646 C647 1.387 . S
C646 H650 0.950 . S
C646 C655 1.390 . S
C647 C646 1.387 . S
C647 C649 1.387 . S
H648 C655 0.950 . S
C649 C647 1.387 . S
C649 C651 1.390 . S
C649 H653 0.950 . S
H650 C646 0.950 . S
C651 C649 1.390 . S
C651 C652 1.387 . S
C651 H654 0.950 . S
C652 C651 1.387 . S
C652 C655 1.387 . S
H653 C649 0.950 . S
H654 C651 0.950 . S
C655 C646 1.390 . S
C655 H648 0.950 . S
C655 C652 1.387 . S
C656 C657 1.387 . S
C656 H660 0.950 . S
C656 C665 1.390 . S
C657 C656 1.387 . S
C657 C659 1.387 . S
H658 C665 0.950 . S
C659 C657 1.387 . S
C659 C661 1.390 . S
C659 H663 0.950 . S
H660 C656 0.950 . S
C661 C659 1.390 . S
C661 C662 1.387 . S
C661 H664 0.950 . S
C662 C661 1.387 . S
C662 C665 1.387 . S
H663 C659 0.950 . S
H664 C661 0.950 . S
C665 C656 1.390 . S
C665 H658 0.950 . S
C665 C662 1.387 . S
C666 C667 1.387 . S
C666 H670 0.950 . S
C666 C675 1.390 . S
C667 C666 1.387 . S
C667 C669 1.387 . S
H668 C675 0.950 . S
C669 C667 1.387 . S
C669 C671 1.390 . S
C669 H673 0.950 . S
H670 C666 0.950 . S
C671 C669 1.390 . S
C671 C672 1.387 . S
C671 H674 0.950 . S
C672 C671 1.387 . S
C672 C675 1.387 . S
H673 C669 0.950 . S
H674 C671 0.950 . S
C675 C666 1.390 . S
C675 H668 0.950 . S
C675 C672 1.387 . S
C676 C677 1.387 . S
C676 H680 0.950 . S
C676 C685 1.390 . S
C677 C676 1.387 . S
C677 C679 1.387 . S
H678 C685 0.950 . S
C679 C677 1.387 . S
C679 C681 1.390 1_556 S
C679 H683 0.950 . S
H680 C676 0.950 . S
C681 C679 1.390 1_554 S
C681 C682 1.387 . S
C681 H684 0.950 . S
C682 C681 1.387 . S
C682 C685 1.387 1_554 S
H683 C679 0.950 . S
H684 C681 0.950 . S
C685 C676 1.390 . S
C685 H678 0.950 . S
C685 C682 1.387 1_556 S
C686 C687 1.387 . S
C686 H690 0.950 . S
C686 C695 1.390 . S
C687 C686 1.387 . S
C687 C689 1.387 . S
H688 C695 0.950 . S
C689 C687 1.387 . S
C689 C691 1.390 . S
C689 H693 0.950 . S
H690 C686 0.950 . S
C691 C689 1.390 . S
C691 C692 1.387 . S
C691 H694 0.950 . S
C692 C691 1.387 . S
C692 C695 1.387 . S
H693 C689 0.950 . S
H694 C691 0.950 . S
C695 C686 1.390 . S
C695 H688 0.950 . S
C695 C692 1.387 . S
C397 C285 1.593 . S
C402 C21 1.594 . S
C407 C318 1.593 . S
C412 C54 1.593 . S
C417 C351 1.593 . S
C422 C87 1.594 . S
C427 C384 1.593 . S
C432 C120 1.594 . S
C437 C153 1.593 . S
C442 C219 1.593 . S
C447 C252 1.594 . S
C452 C186 1.593 . S
C457 C7 1.418 . S
C462 C370 1.420 . S
C467 C205 1.422 . S
C472 C40 1.422 . S
C477 C73 1.418 . S
C482 C238 1.420 . S
C487 C106 1.421 . S
C492 C271 1.423 . S
C497 C304 1.422 . S
C502 C139 1.422 . S
C507 C172 1.423 . S
C512 C337 1.421 . S
C517 C18 1.488 . S
C522 C348 1.488 . S
C527 C51 1.486 . S
C532 C381 1.487 . S
C537 C216 1.485 . S
C542 C84 1.486 . S
C547 C249 1.485 . S
C552 C117 1.485 . S
C557 C150 1.487 . S
C562 C282 1.486 1_556 S
C567 C315 1.487 . S
C572 C183 1.488 1_554 S
C577 N13 1.268 . S
C582 N2 1.268 . S
C587 N35 1.267 . S
C592 N46 1.266 . S
C597 N79 1.268 . S
C602 N68 1.268 1_556 S
C607 N112 1.266 . S
C612 N101 1.266 . S
C617 N134 1.266 . S
C622 N145 1.266 . S
C627 N167 1.267 . S
C632 N178 1.266 . S
C637 N200 1.269 . S
C642 N211 1.268 . S
C647 N233 1.268 . S
C652 N244 1.268 . S
C657 N266 1.269 . S
C662 N277 1.268 . S
C667 N299 1.268 . S
C672 N310 1.268 . S
C677 N332 1.268 . S
C682 N343 1.267 . S
C687 N376 1.268 . S
C692 N365 1.269 1_554 S
