# Generated by pormake.
# Topology mon, (4)-cn, num edge types: 1
# Building blocks:
#     Node 0, Type 0, BuildingBlock: QUQFOY_clean_sbu_3, # of connection points: 4
#     Node 1, Type 0, BuildingBlock: QUQFOY_clean_sbu_3, # of connection points: 4
#     Node 2, Type 0, BuildingBlock: QUQFOY_clean_sbu_3, # of connection points: 4
#     Node 3, Type 0, BuildingBlock: QUQFOY_clean_sbu_3, # of connection points: 4
#     Node 4, Type 0, BuildingBlock: QUQFOY_clean_sbu_3, # of connection points: 4
#     Node 5, Type 0, BuildingBlock: QUQFOY_clean_sbu_3, # of connection points: 4
#     Node 6, Type 0, BuildingBlock: QUQFOY_clean_sbu_3, # of connection points: 4
#     Node 7, Type 0, BuildingBlock: QUQFOY_clean_sbu_3, # of connection points: 4
#     Node 8, Type 0, BuildingBlock: QUQFOY_clean_sbu_3, # of connection points: 4
#     Node 9, Type 0, BuildingBlock: QUQFOY_clean_sbu_3, # of connection points: 4
#     Node 10, Type 0, BuildingBlock: QUQFOY_clean_sbu_3, # of connection points: 4
#     Node 11, Type 0, BuildingBlock: QUQFOY_clean_sbu_3, # of connection points: 4
#     Node 12, Type 0, BuildingBlock: QUQFOY_clean_sbu_3, # of connection points: 4
#     Node 13, Type 0, BuildingBlock: QUQFOY_clean_sbu_3, # of connection points: 4
#     Node 14, Type 0, BuildingBlock: QUQFOY_clean_sbu_3, # of connection points: 4
#     Node 15, Type 0, BuildingBlock: QUQFOY_clean_sbu_3, # of connection points: 4
#     Edge 16, Type (0, 0), BuildingBlock: ZUJKAS_clean_linker_0, # of connection points: 2
#     Edge 17, Type (0, 0), BuildingBlock: ZUJKAS_clean_linker_0, # of connection points: 2
#     Edge 18, Type (0, 0), BuildingBlock: ZUJKAS_clean_linker_0, # of connection points: 2
#     Edge 19, Type (0, 0), BuildingBlock: ZUJKAS_clean_linker_0, # of connection points: 2
#     Edge 20, Type (0, 0), BuildingBlock: ZUJKAS_clean_linker_0, # of connection points: 2
#     Edge 21, Type (0, 0), BuildingBlock: ZUJKAS_clean_linker_0, # of connection points: 2
#     Edge 22, Type (0, 0), BuildingBlock: ZUJKAS_clean_linker_0, # of connection points: 2
#     Edge 23, Type (0, 0), BuildingBlock: ZUJKAS_clean_linker_0, # of connection points: 2
#     Edge 24, Type (0, 0), BuildingBlock: ZUJKAS_clean_linker_0, # of connection points: 2
#     Edge 25, Type (0, 0), BuildingBlock: ZUJKAS_clean_linker_0, # of connection points: 2
#     Edge 26, Type (0, 0), BuildingBlock: ZUJKAS_clean_linker_0, # of connection points: 2
#     Edge 27, Type (0, 0), BuildingBlock: ZUJKAS_clean_linker_0, # of connection points: 2
#     Edge 28, Type (0, 0), BuildingBlock: ZUJKAS_clean_linker_0, # of connection points: 2
#     Edge 29, Type (0, 0), BuildingBlock: ZUJKAS_clean_linker_0, # of connection points: 2
#     Edge 30, Type (0, 0), BuildingBlock: ZUJKAS_clean_linker_0, # of connection points: 2
#     Edge 31, Type (0, 0), BuildingBlock: ZUJKAS_clean_linker_0, # of connection points: 2
#     Edge 32, Type (0, 0), BuildingBlock: ZUJKAS_clean_linker_0, # of connection points: 2
#     Edge 33, Type (0, 0), BuildingBlock: ZUJKAS_clean_linker_0, # of connection points: 2
#     Edge 34, Type (0, 0), BuildingBlock: ZUJKAS_clean_linker_0, # of connection points: 2
#     Edge 35, Type (0, 0), BuildingBlock: ZUJKAS_clean_linker_0, # of connection points: 2
#     Edge 36, Type (0, 0), BuildingBlock: ZUJKAS_clean_linker_0, # of connection points: 2
#     Edge 37, Type (0, 0), BuildingBlock: ZUJKAS_clean_linker_0, # of connection points: 2
#     Edge 38, Type (0, 0), BuildingBlock: ZUJKAS_clean_linker_0, # of connection points: 2
#     Edge 39, Type (0, 0), BuildingBlock: ZUJKAS_clean_linker_0, # of connection points: 2
#     Edge 40, Type (0, 0), BuildingBlock: ZUJKAS_clean_linker_0, # of connection points: 2
#     Edge 41, Type (0, 0), BuildingBlock: ZUJKAS_clean_linker_0, # of connection points: 2
#     Edge 42, Type (0, 0), BuildingBlock: ZUJKAS_clean_linker_0, # of connection points: 2
#     Edge 43, Type (0, 0), BuildingBlock: ZUJKAS_clean_linker_0, # of connection points: 2
#     Edge 44, Type (0, 0), BuildingBlock: ZUJKAS_clean_linker_0, # of connection points: 2
#     Edge 45, Type (0, 0), BuildingBlock: ZUJKAS_clean_linker_0, # of connection points: 2
#     Edge 46, Type (0, 0), BuildingBlock: ZUJKAS_clean_linker_0, # of connection points: 2
#     Edge 47, Type (0, 0), BuildingBlock: ZUJKAS_clean_linker_0, # of connection points: 2
# Relax obj value: 0.181
# Max RMSD: 0.173
# Mean RMSD: 0.173
data_MOF--net-mon--node1-QUQFOY_clean_sbu_3--edge1-ZUJKAS_clean_linker_0
_symmetry_space_group_name_H-M    P1
_symmetry_Int_Tables_number       1
_symmetry_cell_setting            triclinic
loop_
_symmetry_equiv_pos_as_xyz
'x, y, z'
_cell_length_a     44.922414
_cell_length_b     44.877751
_cell_length_c     111.9138
_cell_angle_alpha  89.987846
_cell_angle_beta   90.058675
_cell_angle_gamma 89.937906
loop_
_atom_site_label
_atom_site_type_symbol
_atom_site_fract_x
_atom_site_fract_y
_atom_site_fract_z
_atom_type_partial_charge
C0 C 0.05457 0.97608 0.57939 0.0
O1 O 0.04583 0.96031 0.57065 0.0
Cd2 Cd 0.00313 0.97066 0.55873 0.0
O3 O 0.04044 -0.00046 0.58244 0.0
Cd4 Cd -0.00463 0.02718 0.57574 0.0
C5 C 0.95165 0.96755 0.58131 0.0
O6 O 0.00507 0.02276 0.55468 0.0
O7 O 0.96089 0.0377 0.55892 0.0
O8 O 0.02199 0.0726 0.58079 0.0
C9 C 0.98024 0.03227 0.55098 0.0
O10 O 0.96155 0.95666 0.57158 0.0
C11 C 0.00052 0.08463 0.58637 0.0
O12 O 0.96163 -0.00788 0.58534 0.0
O13 O 0.97667 0.0696 0.58723 0.0
C14 C 0.25165 0.8073 0.83173 0.0
O15 O 0.26703 0.80272 0.82239 0.0
Cd16 Cd 0.26274 0.76008 0.80972 0.0
O17 O 0.23086 0.78942 0.83469 0.0
Cd18 Cd 0.20635 0.74375 0.8268 0.0
C19 C 0.27011 0.70518 0.83118 0.0
O20 O 0.21103 0.7551 0.8059 0.0
O21 O 0.19891 0.70979 0.80963 0.0
O22 O 0.15797 0.76472 0.83173 0.0
C23 C 0.2044 0.72962 0.80188 0.0
O24 O 0.28042 0.7183 0.82196 0.0
C25 C 0.1489 0.74206 0.83747 0.0
O26 O 0.24443 0.71163 0.83525 0.0
O27 O 0.16688 0.72032 0.83844 0.0
C28 C 0.42491 -0.00115 0.07762 0.0
O29 O 0.43122 0.01338 0.06823 0.0
Cd30 Cd 0.47796 0.00959 0.05832 0.0
O31 O 0.44265 0.97904 0.08165 0.0
Cd32 Cd 0.49016 0.95443 0.07561 0.0
C33 C 0.52647 0.01787 0.08216 0.0
O34 O 0.48516 0.95806 0.05422 0.0
O35 O 0.52976 0.94957 0.06037 0.0
O36 O 0.46905 0.90505 0.07773 0.0
C37 C 0.51201 0.95255 0.05163 0.0
O38 O 0.51482 0.02846 0.07267 0.0
C39 C 0.48738 0.89602 0.08557 0.0
O40 O 0.52046 -0.00846 0.08564 0.0
O41 O 0.50709 0.91443 0.08899 0.0
C42 C 0.2387 0.17199 0.326 0.0
O43 O 0.22561 0.17952 0.31641 0.0
Cd44 Cd 0.23412 0.22581 0.30653 0.0
O45 O 0.25908 0.18832 0.33047 0.0
Cd46 Cd 0.28638 0.23473 0.32522 0.0
C47 C 0.22405 0.27454 0.33002 0.0
O48 O 0.28659 0.22922 0.30382 0.0
O49 O 0.29591 0.27364 0.30996 0.0
O50 O 0.33427 0.21177 0.32916 0.0
C51 C 0.29412 0.25561 0.30127 0.0
O52 O 0.21487 0.26445 0.32002 0.0
C53 C 0.34246 0.2305 0.33699 0.0
O54 O 0.24886 0.2661 0.33435 0.0
O55 O 0.32419 0.25113 0.33958 0.0
C56 C 0.05801 0.00019 0.40033 0.0
O57 O 0.05345 0.01586 0.40961 0.0
Cd58 Cd 0.01049 0.01176 0.42202 0.0
O59 O 0.04007 0.9794 0.39742 0.0
Cd60 Cd -0.0055 0.95437 0.40506 0.0
C61 C 0.95644 0.01814 0.40002 0.0
O62 O 0.00654 0.95992 0.42579 0.0
O63 O 0.96158 0.94598 0.42255 0.0
O64 O 0.01878 0.90821 0.39937 0.0
C65 C 0.9816 0.95255 0.43008 0.0
O66 O 0.96946 0.02877 0.40921 0.0
C67 C -0.00392 0.89684 0.39439 0.0
O68 O 0.96257 -0.00789 0.3962 0.0
O69 O 0.97245 0.91244 0.39425 0.0
C70 C 0.23041 0.80353 0.65513 0.0
O71 O 0.21514 0.79411 0.66388 0.0
Cd72 Cd 0.22637 0.7504 0.67507 0.0
O73 O 0.25366 0.78962 0.65171 0.0
Cd74 Cd 0.28147 0.74398 0.65765 0.0
C75 C 0.22167 0.70071 0.65193 0.0
O76 O 0.27868 0.75228 0.67887 0.0
O77 O 0.29238 0.70808 0.67395 0.0
O78 O 0.32686 0.77043 0.65243 0.0
C79 C 0.28818 0.72707 0.68216 0.0
O80 O 0.21125 0.70971 0.66188 0.0
C81 C 0.33821 0.74915 0.64651 0.0
O82 O 0.24601 0.7111 0.64789 0.0
O83 O 0.32283 0.72554 0.64557 0.0
C84 C 0.42649 0.98315 0.90758 0.0
O85 O 0.43381 0.96939 0.91705 0.0
Cd86 Cd 0.47964 0.97705 0.92743 0.0
O87 O 0.44281 0.00398 0.90345 0.0
Cd88 Cd 0.48898 0.03097 0.90934 0.0
C89 C 0.52939 0.96918 0.90413 0.0
O90 O 0.48361 0.02921 0.9308 0.0
O91 O 0.52791 0.03885 0.92457 0.0
O92 O 0.4669 0.07969 0.9064 0.0
C93 C 0.51015 0.03634 0.93332 0.0
O94 O 0.51894 0.95927 0.91394 0.0
C95 C 0.48537 0.08831 0.89856 0.0
O96 O 0.5209 -0.0058 0.89998 0.0
O97 O 0.50535 0.06985 0.89543 0.0
C98 C 0.25149 0.17129 0.1535 0.0
O99 O 0.2681 0.17625 0.16247 0.0
Cd100 Cd 0.26702 0.22091 0.17403 0.0
O101 O 0.23102 0.18966 0.15059 0.0
Cd102 Cd 0.20819 0.23684 0.15797 0.0
C103 C 0.27208 0.27276 0.15113 0.0
O104 O 0.21619 0.22852 0.17886 0.0
O105 O 0.20386 0.2735 0.17444 0.0
O106 O 0.15852 0.21636 0.15622 0.0
C107 C 0.21046 0.25462 0.18246 0.0
O108 O 0.28373 0.25949 0.16006 0.0
C109 C 0.14895 0.2357 0.14888 0.0
O110 O 0.24518 0.26785 0.1481 0.0
O111 O 0.16716 0.25575 0.1456 0.0
C112 C 0.73616 0.30962 0.15599 0.0
O113 O 0.7203 0.30347 0.16504 0.0
Cd114 Cd 0.72368 0.25714 0.17545 0.0
O115 O 0.75658 0.2918 0.15258 0.0
Cd116 Cd 0.78011 0.24409 0.15893 0.0
C117 C 0.71673 0.20831 0.1517 0.0
O118 O 0.77477 0.24929 0.18029 0.0
O119 O 0.78404 0.2047 0.17416 0.0
O120 O 0.82958 0.26508 0.15741 0.0
C121 C 0.78041 0.22237 0.18287 0.0
O122 O 0.70565 0.22011 0.16105 0.0
C123 C 0.83899 0.24694 0.14958 0.0
O124 O 0.7433 0.21407 0.14849 0.0
O125 O 0.82079 0.2273 0.14592 0.0
C126 C 0.75254 0.67134 0.65492 0.0
O127 O 0.76804 0.67807 0.66403 0.0
Cd128 Cd 0.76383 0.72304 0.6752 0.0
O129 O 0.73155 0.68833 0.65134 0.0
Cd130 Cd 0.70679 0.7353 0.658 0.0
C131 C 0.76964 0.77404 0.65219 0.0
O132 O 0.71204 0.72667 0.67902 0.0
O133 O 0.69924 0.77139 0.67462 0.0
O134 O 0.65828 0.71371 0.65372 0.0
C135 C 0.70494 0.75234 0.68267 0.0
O136 O 0.78068 0.76273 0.66167 0.0
C137 C 0.64918 0.73539 0.64739 0.0
O138 O 0.74387 0.76653 0.64855 0.0
O139 O 0.6672 0.75681 0.64581 0.0
C140 C 0.75035 0.31024 0.32519 0.0
O141 O 0.76471 0.30183 0.31603 0.0
Cd142 Cd 0.75722 0.25503 0.30634 0.0
O143 O 0.72937 0.29427 0.32939 0.0
Cd144 Cd 0.70355 0.24688 0.32452 0.0
C145 C 0.76642 0.20874 0.33061 0.0
O146 O 0.70495 0.25004 0.30304 0.0
O147 O 0.6962 0.20614 0.30993 0.0
O148 O 0.65459 0.26843 0.3276 0.0
C149 C 0.69828 0.22316 0.30092 0.0
O150 O 0.77607 0.2178 0.32054 0.0
C151 C 0.64683 0.25049 0.33579 0.0
O152 O 0.74126 0.21734 0.33454 0.0
O153 O 0.66573 0.23091 0.33892 0.0
C154 C 0.73081 0.67897 0.83087 0.0
O155 O 0.71446 0.6877 0.82229 0.0
Cd156 Cd 0.72321 0.73157 0.81082 0.0
O157 O 0.75384 0.69372 0.83393 0.0
Cd158 Cd 0.78004 0.73994 0.82758 0.0
C159 C 0.71959 0.78204 0.8338 0.0
O160 O 0.77518 0.7311 0.80643 0.0
O161 O 0.78971 0.77526 0.81098 0.0
O162 O 0.82564 0.71358 0.83271 0.0
C163 C 0.78423 0.75626 0.8029 0.0
O164 O 0.7085 0.77219 0.82409 0.0
C165 C 0.83759 0.73531 0.83815 0.0
O166 O 0.7446 0.77254 0.83758 0.0
O167 O 0.82254 0.75922 0.83883 0.0
C168 C 0.56526 0.4838 0.07964 0.0
O169 O 0.55941 0.46805 0.07051 0.0
Cd170 Cd 0.51404 0.46995 0.0595 0.0
O171 O 0.54738 0.50414 0.08312 0.0
Cd172 Cd 0.49999 0.5281 0.07641 0.0
C173 C 0.46347 0.46417 0.08282 0.0
O174 O 0.50728 0.52126 0.05545 0.0
O175 O 0.46275 0.53423 0.06013 0.0
O176 O 0.5209 0.57756 0.07853 0.0
C177 C 0.48125 0.52767 0.05198 0.0
O178 O 0.47609 0.45287 0.07368 0.0
C179 C 0.50196 0.58677 0.08608 0.0
O180 O 0.46893 0.49083 0.08606 0.0
O181 O 0.482 0.56844 0.08934 0.0
C182 C 0.92782 0.50082 0.579 0.0
O183 O 0.93373 0.5175 0.57014 0.0
Cd184 Cd 0.9772 0.51392 0.55798 0.0
O185 O 0.945 0.47924 0.58179 0.0
Cd186 Cd -0.0087 0.45521 0.57426 0.0
C187 C 0.03026 0.51803 0.58026 0.0
O188 O 0.98101 0.46241 0.55344 0.0
O189 O 0.02575 0.44833 0.55715 0.0
O190 O 0.9697 0.40656 0.57832 0.0
C191 C 0.00631 0.45527 0.54942 0.0
O192 O 0.01808 0.52964 0.57108 0.0
C193 C -0.00824 0.39691 0.58429 0.0
O194 O 0.02319 0.49195 0.58373 0.0
O195 O 0.01348 0.41465 0.58575 0.0
C196 C 0.56296 0.50524 0.90594 0.0
O197 O 0.55305 0.52163 0.91429 0.0
Cd198 Cd 0.50781 0.51337 0.92489 0.0
O199 O 0.54873 0.4821 0.90262 0.0
Cd200 Cd 0.50154 0.45658 0.90817 0.0
C201 C 0.45992 0.51693 0.90111 0.0
O202 O 0.50647 0.46151 0.92949 0.0
O203 O 0.46269 0.44878 0.92361 0.0
O204 O 0.52358 0.40742 0.90614 0.0
C205 C 0.48045 0.45329 0.93224 0.0
O206 O 0.46875 0.52827 0.91092 0.0
C207 C 0.50567 0.39834 0.89816 0.0
O208 O 0.46982 0.49183 0.8976 0.0
O209 O 0.486 0.41664 0.8946 0.0
C210 C 0.93029 0.48075 0.40101 0.0
O211 O 0.93722 0.4658 0.41024 0.0
Cd212 Cd 0.98181 0.47275 0.42143 0.0
O213 O 0.94682 0.50205 0.39744 0.0
Cd214 Cd -0.00683 0.5276 0.40408 0.0
C215 C 0.03256 0.46508 0.39863 0.0
O216 O 0.9843 0.52491 0.42529 0.0
O217 O 0.02929 0.53586 0.42051 0.0
O218 O 0.96995 0.57508 0.39924 0.0
C219 C 0.01005 0.53249 0.42868 0.0
O220 O 0.02172 0.45487 0.40831 0.0
C221 C -0.00829 0.58497 0.39319 0.0
O222 O 0.02461 0.49045 0.39466 0.0
O223 O 0.014 0.5678 0.39198 0.0
H224 H 0.04995 0.1197 0.58757 0.0
H225 H 0.0519 0.17298 0.59199 0.0
H226 H 0.95746 0.17305 0.59894 0.0
H227 H 0.95547 0.11965 0.59483 0.0
H228 H 0.02286 0.21255 0.57843 0.0
H229 H 0.98715 0.22662 0.62543 0.0
H230 H -0.00102 0.19113 0.61946 0.0
H231 H 0.96164 0.20433 0.61693 0.0
C232 C 0.02973 0.13092 0.59032 0.0
C233 C 0.00251 0.11557 0.59077 0.0
C234 C 0.03089 0.16134 0.59286 0.0
C235 C 0.00489 0.17695 0.59589 0.0
C236 C 0.97793 0.16137 0.5969 0.0
H237 H 0.94824 0.35473 0.58269 0.0
H238 H 0.95256 0.30167 0.58744 0.0
C239 C 0.97678 0.13087 0.59444 0.0
C240 C 0.00517 0.20992 0.5963 0.0
H241 H 0.9839 0.27025 0.61287 0.0
C242 C 0.01483 0.22513 0.58605 0.0
C243 C -0.00544 0.22632 0.60623 0.0
C244 C 0.98528 0.21126 0.61768 0.0
C245 C 0.01323 0.25621 0.58531 0.0
C246 C 0.00162 0.27246 0.59503 0.0
C247 C -0.00734 0.25752 0.60542 0.0
C248 C -0.00243 0.30494 0.59414 0.0
C249 C 0.02313 0.2716 0.57399 0.0
C250 C 0.02133 0.32418 0.59661 0.0
C251 C 0.019 0.35449 0.59389 0.0
C252 C -0.00709 0.36584 0.58861 0.0
C253 C 0.96866 0.34663 0.5867 0.0
C254 C 0.971 0.31638 0.58946 0.0
H255 H 0.03199 0.2557 0.56727 0.0
H256 H 0.00408 0.28385 0.56999 0.0
H257 H 0.04068 0.28818 0.57611 0.0
H258 H 0.04205 0.31553 0.60016 0.0
H259 H 0.03803 0.36874 0.59548 0.0
H260 H 0.87097 0.68524 0.84153 0.0
H261 H 0.92386 0.68258 0.84658 0.0
H262 H 0.92694 0.77844 0.84935 0.0
H263 H 0.87389 0.78114 0.84476 0.0
H264 H 0.96555 0.70443 0.83287 0.0
H265 H 0.97761 0.75634 0.87736 0.0
H266 H 0.94195 0.74478 0.87153 0.0
H267 H 0.9576 0.78023 0.86734 0.0
C268 C 0.8828 0.70569 0.84349 0.0
C269 C 0.86838 0.73341 0.8427 0.0
C270 C 0.91299 0.70413 0.8464 0.0
C271 C 0.92935 0.73027 0.84848 0.0
C272 C 0.91468 0.75791 0.84812 0.0
H273 H 0.10701 0.78612 0.83769 0.0
H274 H 0.05418 0.78115 0.84257 0.0
C275 C 0.88438 0.75945 0.84537 0.0
C276 C 0.96225 0.72896 0.84938 0.0
H277 H 0.02197 0.75543 0.86503 0.0
C278 C 0.97784 0.71503 0.84005 0.0
C279 C 0.97832 0.74289 0.85872 0.0
C280 C 0.96295 0.75662 0.86936 0.0
C281 C 0.00896 0.7158 0.83952 0.0
C282 C 0.0249 0.73083 0.84857 0.0
C283 C 0.00953 0.744 0.8581 0.0
C284 C 0.0574 0.73478 0.84765 0.0
C285 C 0.0246 0.70168 0.82901 0.0
C286 C 0.07666 0.71051 0.84925 0.0
C287 C 0.10685 0.71324 0.84648 0.0
C288 C 0.1181 0.74027 0.84201 0.0
C289 C 0.09897 0.76497 0.84104 0.0
C290 C 0.06884 0.76223 0.84387 0.0
H291 H 0.00875 0.6938 0.82207 0.0
H292 H 0.04021 0.71782 0.82486 0.0
H293 H 0.03787 0.68232 0.83214 0.0
H294 H 0.06809 0.68916 0.85217 0.0
H295 H 0.12107 0.69386 0.84735 0.0
H296 H 0.53242 0.6332 0.07652 0.0
H297 H 0.53024 0.68532 0.08235 0.0
H298 H 0.47112 0.66306 0.11139 0.0
H299 H 0.47211 0.61066 0.10517 0.0
H300 H 0.45013 0.70828 0.10037 0.0
H301 H 0.56841 0.73261 0.1078 0.0
H302 H 0.5647 0.71654 0.09325 0.0
H303 H 0.55498 0.69491 0.10628 0.0
C304 C 0.51928 0.63928 0.08426 0.0
C305 C 0.50245 0.61785 0.0904 0.0
C306 C 0.51831 0.66912 0.08768 0.0
C307 C 0.50115 0.67813 0.09752 0.0
C308 C 0.48475 0.65663 0.10384 0.0
H309 H 0.51615 0.87246 0.10502 0.0
H310 H 0.51672 0.82018 0.11141 0.0
C311 C 0.48531 0.62673 0.10028 0.0
C312 C 0.49812 0.71035 0.10029 0.0
H313 H 0.5382 0.7748 0.10067 0.0
C314 C 0.46943 0.72275 0.10074 0.0
C315 C 0.52314 0.72938 0.10121 0.0
C316 C 0.55447 0.71752 0.10226 0.0
C317 C 0.46517 0.75371 0.10095 0.0
C318 C 0.49022 0.77273 0.1002 0.0
C319 C 0.51888 0.76033 0.10091 0.0
C320 C 0.48733 0.80491 0.09733 0.0
C321 C 0.43379 0.76557 0.10172 0.0
C322 C 0.47065 0.81377 0.08732 0.0
C323 C 0.46993 0.84355 0.0838 0.0
C324 C 0.48652 0.86505 0.09001 0.0
C325 C 0.50315 0.85633 0.10006 0.0
C326 C 0.50346 0.8265 0.10373 0.0
H327 H 0.41962 0.75056 0.10719 0.0
H328 H 0.4331 0.78824 0.10569 0.0
H329 H 0.42397 0.76643 0.09263 0.0
H330 H 0.45894 0.7975 0.08195 0.0
H331 H 0.45718 0.8495 0.07593 0.0
H332 H 0.59868 0.27972 0.32695 0.0
H333 H 0.54761 0.27717 0.33399 0.0
H334 H 0.57527 0.22146 0.36344 0.0
H335 H 0.62658 0.22276 0.35602 0.0
H336 H 0.52976 0.19801 0.35374 0.0
H337 H 0.50164 0.31599 0.35958 0.0
H338 H 0.51635 0.3117 0.34483 0.0
H339 H 0.53964 0.30383 0.35763 0.0
C340 C 0.59402 0.26733 0.33504 0.0
C341 C 0.6166 0.25142 0.34093 0.0
C342 C 0.56479 0.26616 0.33916 0.0
C343 C 0.55758 0.24975 0.34944 0.0
C344 C 0.5803 0.23449 0.35555 0.0
H345 H 0.36368 0.26065 0.35651 0.0
H346 H 0.41527 0.26228 0.36365 0.0
C347 C 0.60958 0.23523 0.3513 0.0
C348 C 0.52587 0.24591 0.35283 0.0
H349 H 0.46011 0.28376 0.35302 0.0
C350 C 0.51462 0.21685 0.35392 0.0
C351 C 0.506 0.27033 0.35354 0.0
C352 C 0.5167 0.30217 0.35398 0.0
C353 C 0.4839 0.21153 0.35443 0.0
C354 C 0.46395 0.23581 0.35332 0.0
C355 C 0.47527 0.26497 0.35352 0.0
C356 C 0.43203 0.23152 0.35034 0.0
C357 C 0.47328 0.17984 0.35582 0.0
C358 C 0.42416 0.2135 0.34058 0.0
C359 C 0.39477 0.21215 0.33664 0.0
C360 C 0.37267 0.22945 0.34216 0.0
C361 C 0.3803 0.2471 0.35207 0.0
C362 C 0.40974 0.24802 0.35616 0.0
H363 H 0.48869 0.167 0.36165 0.0
H364 H 0.45056 0.17878 0.3597 0.0
H365 H 0.47313 0.16879 0.34695 0.0
H366 H 0.44098 0.20144 0.33561 0.0
H367 H 0.38965 0.19859 0.3289 0.0
H368 H 0.04499 0.86322 0.38938 0.0
H369 H 0.04632 0.81048 0.384 0.0
H370 H 0.95029 0.80802 0.38409 0.0
H371 H 0.94884 0.86103 0.38904 0.0
H372 H 0.02667 0.76846 0.39819 0.0
H373 H 0.96697 0.75828 0.35516 0.0
H374 H 0.97979 0.79367 0.36085 0.0
H375 H 0.94524 0.77796 0.36603 0.0
C376 C 0.02416 0.85158 0.38799 0.0
C377 C -0.0032 0.86615 0.38968 0.0
C378 C 0.02495 0.82147 0.38489 0.0
C379 C -0.00158 0.80532 0.38351 0.0
C380 C 0.97105 0.82014 0.38478 0.0
H381 H 0.94647 0.62555 0.39385 0.0
H382 H 0.94947 0.67874 0.38924 0.0
C383 C 0.97024 0.85039 0.38771 0.0
C384 C -0.00058 0.77243 0.3824 0.0
H385 H 0.97095 0.71326 0.36696 0.0
C386 C 0.01497 0.75644 0.39121 0.0
C387 C 0.98402 0.75674 0.37333 0.0
C388 C 0.96833 0.77259 0.36324 0.0
C389 C 0.0146 0.72527 0.39148 0.0
C390 C -0.00164 0.70965 0.38268 0.0
C391 C 0.98337 0.72544 0.37368 0.0
C392 C -0.00476 0.67699 0.38332 0.0
C393 C 0.03058 0.70922 0.40147 0.0
C394 C 0.01974 0.65841 0.38113 0.0
C395 C 0.01814 0.62802 0.38377 0.0
C396 C -0.00798 0.61588 0.38867 0.0
C397 C 0.96696 0.6343 0.39016 0.0
C398 C 0.96856 0.66463 0.38748 0.0
H399 H 0.03883 0.72475 0.40845 0.0
H400 H 0.01558 0.69268 0.40573 0.0
H401 H 0.04994 0.69694 0.39776 0.0
H402 H 0.04048 0.66767 0.37789 0.0
H403 H 0.03777 0.61437 0.38247 0.0
H404 H 0.37395 0.79817 0.64549 0.0
H405 H 0.42695 0.79953 0.64063 0.0
H406 H 0.42503 0.7055 0.63266 0.0
H407 H 0.3719 0.70412 0.63721 0.0
H408 H 0.46634 0.76886 0.65365 0.0
H409 H 0.47825 0.73592 0.60623 0.0
H410 H 0.44322 0.74803 0.6125 0.0
H411 H 0.45574 0.71026 0.61455 0.0
C412 C 0.38466 0.77794 0.64242 0.0
C413 C 0.36886 0.75098 0.64182 0.0
C414 C 0.41492 0.77877 0.63962 0.0
C415 C 0.4299 0.75269 0.63619 0.0
C416 C 0.41382 0.72605 0.63502 0.0
H417 H 0.60614 0.69288 0.64955 0.0
H418 H 0.55323 0.69804 0.64479 0.0
C419 C 0.38348 0.72524 0.63772 0.0
C420 C 0.46282 0.75237 0.63562 0.0
H421 H 0.52213 0.73075 0.61858 0.0
C422 C 0.47851 0.76103 0.64589 0.0
C423 C 0.47868 0.74204 0.62551 0.0
C424 C 0.4631 0.73381 0.61403 0.0
C425 C 0.50952 0.75866 0.64649 0.0
C426 C 0.5252 0.74722 0.63659 0.0
C427 C 0.50981 0.73934 0.62616 0.0
C428 C 0.55754 0.74227 0.63734 0.0
C429 C 0.52541 0.76758 0.65783 0.0
C430 C 0.57734 0.76523 0.63443 0.0
C431 C 0.60757 0.76243 0.63717 0.0
C432 C 0.61829 0.73665 0.6429 0.0
C433 C 0.59854 0.71305 0.64519 0.0
C434 C 0.56837 0.71588 0.64243 0.0
H435 H 0.51008 0.77752 0.66452 0.0
H436 H 0.53623 0.74771 0.66186 0.0
H437 H 0.54319 0.78395 0.65577 0.0
H438 H 0.56917 0.78583 0.63057 0.0
H439 H 0.62226 0.78096 0.63527 0.0
H440 H 0.48035 0.37523 0.87791 0.0
H441 H 0.47842 0.32265 0.87198 0.0
H442 H 0.52923 0.29894 0.90334 0.0
H443 H 0.5326 0.35126 0.90889 0.0
H444 H 0.54627 0.26649 0.88521 0.0
H445 H 0.42249 0.2653 0.88709 0.0
H446 H 0.43812 0.29002 0.87618 0.0
H447 H 0.44394 0.29704 0.89184 0.0
C448 C 0.49137 0.35874 0.88344 0.0
C449 C 0.5064 0.36724 0.89392 0.0
C450 C 0.49006 0.32872 0.88009 0.0
C451 C 0.50302 0.30673 0.88737 0.0
C452 C 0.51899 0.31544 0.89758 0.0
H453 H 0.4566 0.13557 0.9083 0.0
H454 H 0.46066 0.18771 0.90259 0.0
C455 C 0.52085 0.34539 0.90077 0.0
C456 C 0.49904 0.27448 0.88491 0.0
H457 H 0.4464 0.21974 0.88393 0.0
C458 C 0.52444 0.25622 0.8848 0.0
C459 C 0.47049 0.26117 0.88436 0.0
C460 C 0.44218 0.2793 0.88497 0.0
C461 C 0.52216 0.22506 0.88506 0.0
C462 C 0.49358 0.21175 0.88488 0.0
C463 C 0.46825 0.23001 0.88407 0.0
C464 C 0.48921 0.17955 0.88734 0.0
C465 C 0.55031 0.20694 0.88643 0.0
C466 C 0.50325 0.1574 0.88049 0.0
C467 C 0.50151 0.12746 0.88393 0.0
C468 C 0.485 0.11922 0.89407 0.0
C469 C 0.4695 0.14122 0.90044 0.0
C470 C 0.47175 0.17107 0.89716 0.0
H471 H 0.56966 0.22096 0.88899 0.0
H472 H 0.5475 0.18934 0.89331 0.0
H473 H 0.55565 0.19603 0.8778 0.0
H474 H 0.51609 0.16328 0.87266 0.0
H475 H 0.51339 0.11086 0.87877 0.0
H476 H 0.10309 0.20453 0.1585 0.0
H477 H 0.05082 0.2065 0.15291 0.0
H478 H 0.07158 0.26743 0.12426 0.0
H479 H 0.12414 0.2666 0.13023 0.0
H480 H 0.02629 0.28721 0.13568 0.0
H481 H 0.0038 0.16887 0.1272 0.0
H482 H 0.0201 0.17207 0.14173 0.0
H483 H 0.04125 0.18289 0.12872 0.0
C484 C 0.09664 0.21806 0.1509 0.0
C485 C 0.11771 0.23538 0.14479 0.0
C486 C 0.06672 0.21891 0.14762 0.0
C487 C 0.05727 0.23648 0.13795 0.0
C488 C 0.07837 0.25347 0.13168 0.0
H489 H 0.86331 0.21928 0.13005 0.0
H490 H 0.91569 0.21959 0.12388 0.0
C491 C 0.10836 0.25301 0.1351 0.0
C492 C 0.02499 0.23916 0.13529 0.0
H493 H 0.96126 0.19803 0.13456 0.0
C494 C 0.01213 0.26769 0.13514 0.0
C495 C 0.00639 0.21387 0.13415 0.0
C496 C 0.01874 0.18278 0.13281 0.0
C497 C 0.98114 0.27146 0.13498 0.0
C498 C 0.96256 0.24604 0.13548 0.0
C499 C 0.9754 0.2176 0.1345 0.0
C500 C 0.93035 0.24824 0.1383 0.0
C501 C 0.96878 0.30272 0.13452 0.0
C502 C 0.92113 0.26414 0.14846 0.0
C503 C 0.8913 0.26437 0.15186 0.0
C504 C 0.87011 0.24803 0.14538 0.0
C505 C 0.87921 0.23208 0.13521 0.0
C506 C 0.90909 0.23227 0.13168 0.0
H507 H 0.98357 0.31754 0.12925 0.0
H508 H 0.94616 0.3033 0.13052 0.0
H509 H 0.96767 0.31189 0.14372 0.0
H510 H 0.93716 0.27567 0.15401 0.0
H511 H 0.88505 0.27658 0.15982 0.0
H512 H 0.92698 0.951 0.44108 0.0
H513 H 0.91521 0.9682 0.46139 0.0
H514 H 0.00823 0.986 0.46766 0.0
H515 H 0.02016 0.96908 0.44753 0.0
H516 H 0.93932 0.94895 0.48455 0.0
H517 H 0.9649 0.06672 0.474 0.0
H518 H 0.95734 0.03922 0.4626 0.0
H519 H -0.00635 0.04145 0.46934 0.0
C520 C 0.94492 0.95827 0.44685 0.0
C521 C 0.97446 0.95899 0.44269 0.0
C522 C 0.93815 0.96816 0.4584 0.0
C523 C 0.9608 0.97899 0.46585 0.0
C524 C 0.99039 0.97834 0.46191 0.0
H525 H 0.01856 0.02746 0.53241 0.0
H526 H 0.00651 0.01787 0.5115 0.0
C527 C -0.00283 0.96848 0.45044 0.0
C528 C 0.9541 -0.00871 0.47778 0.0
H529 H 0.96676 0.05295 0.49483 0.0
C530 C 0.94448 0.97188 0.48679 0.0
C531 C 0.96063 0.0213 0.48058 0.0
C532 C 0.96942 0.04348 0.47109 0.0
C533 C 0.94369 0.98112 0.49877 0.0
C534 C 0.95256 0.01046 0.50167 0.0
C535 C 0.96006 0.03045 0.49254 0.0
C536 C 0.95883 0.0192 0.51411 0.0
C537 C 0.93554 0.95895 0.50835 0.0
C538 C 0.93588 0.0239 0.52239 0.0
C539 C 0.94272 0.02961 0.53438 0.0
C540 C 0.97256 0.03039 0.53819 0.0
C541 C -0.00463 0.02682 0.52974 0.0
C542 C 0.98855 0.02138 0.51781 0.0
H543 H 0.93056 0.93655 0.50463 0.0
H544 H 0.95405 0.95685 0.51489 0.0
H545 H 0.91566 0.96699 0.51327 0.0
H546 H 0.91281 0.02248 0.51963 0.0
H547 H 0.9247 0.03226 0.54072 0.0
H548 H 0.21875 0.76753 0.78388 0.0
H549 H 0.236 0.75465 0.76388 0.0
H550 H 0.22281 0.6614 0.77147 0.0
H551 H 0.20526 0.67409 0.79161 0.0
H552 H 0.28742 0.71405 0.76015 0.0
H553 H 0.18242 0.67754 0.73788 0.0
H554 H 0.18186 0.70174 0.75078 0.0
H555 H 0.19149 0.66321 0.75249 0.0
C556 C 0.21907 0.74429 0.78126 0.0
C557 C 0.21078 0.72182 0.78933 0.0
C558 C 0.22901 0.73699 0.76985 0.0
C559 C 0.23073 0.70712 0.76626 0.0
C560 C 0.22145 0.68459 0.77409 0.0
H561 H 0.28368 0.67111 0.69183 0.0
H562 H 0.27459 0.65885 0.71293 0.0
C563 C 0.21143 0.6919 0.78556 0.0
C564 C 0.24376 0.70007 0.75451 0.0
H565 H 0.22467 0.6836 0.72578 0.0
C566 C 0.27389 0.7068 0.75266 0.0
C567 C 0.22608 0.69023 0.74485 0.0
C568 C 0.19361 0.68278 0.74648 0.0
C569 C 0.28637 0.70582 0.74121 0.0
C570 C 0.26809 0.69833 0.73139 0.0
C571 C 0.23857 0.68936 0.73336 0.0
C572 C 0.27752 0.7045 0.71901 0.0
C573 C 0.31866 0.71409 0.73963 0.0
C574 C 0.28242 0.73412 0.71555 0.0
C575 C 0.2873 0.74116 0.7036 0.0
C576 C 0.28744 0.7187 0.69488 0.0
C577 C 0.28387 0.68883 0.6984 0.0
C578 C 0.2786 0.6818 0.7104 0.0
H579 H 0.33165 0.70973 0.7479 0.0
H580 H 0.32887 0.70155 0.73212 0.0
H581 H 0.32027 0.73825 0.73761 0.0
H582 H 0.28115 0.75199 0.72204 0.0
H583 H 0.28998 0.76435 0.70113 0.0
H584 H 0.47972 0.94838 0.03125 0.0
H585 H 0.49499 0.96296 0.01112 0.0
H586 H 0.58317 0.98278 0.02407 0.0
H587 H 0.56821 0.96762 0.0443 0.0
H588 H 0.54174 0.03147 0.0107 0.0
H589 H 0.56357 0.92429 0.98736 0.0
H590 H 0.53257 0.92496 -0.00244 0.0
H591 H 0.5697 0.92924 0.00322 0.0
C592 C 0.50254 0.95523 0.02977 0.0
C593 C 0.52276 0.95695 0.03932 0.0
C594 C 0.51122 0.96349 0.01829 0.0
C595 C 0.54015 0.97384 0.01619 0.0
C596 C 0.5608 0.97463 0.02558 0.0
H597 H 0.567 0.02579 0.94114 0.0
H598 H 0.58248 0.0147 0.96173 0.0
C599 C 0.55224 0.9659 0.03708 0.0
C600 C 0.54728 0.98648 0.00439 0.0
H601 H 0.55275 0.96653 0.97511 0.0
C602 C 0.54501 0.01743 0.00292 0.0
C603 C 0.55162 0.96803 -0.00566 0.0
C604 C 0.55474 0.93475 -0.00437 0.0
C605 C 0.54464 0.03022 0.99149 0.0
C606 C 0.54652 0.01149 0.98138 0.0
C607 C 0.55127 0.98081 0.9829 0.0
C608 C 0.53889 0.02238 0.96931 0.0
C609 C 0.54065 0.06344 0.99028 0.0
C610 C 0.5094 0.03063 0.96687 0.0
C611 C 0.50044 0.03656 0.95518 0.0
C612 C 0.5209 0.03451 0.94574 0.0
C613 C 0.55082 0.02771 0.94827 0.0
C614 C 0.55969 0.02133 0.95999 0.0
H615 H 0.54803 0.07534 -0.00154 0.0
H616 H 0.55326 0.07214 0.98249 0.0
H617 H 0.51671 0.06847 0.98885 0.0
H618 H 0.49294 0.0311 0.97394 0.0
H619 H 0.47727 0.04176 0.95348 0.0
H620 H 0.22698 0.21857 0.20077 0.0
H621 H 0.24457 0.23328 0.22052 0.0
H622 H 0.22911 0.32564 0.21189 0.0
H623 H 0.21128 0.3111 0.19195 0.0
H624 H 0.29536 0.27767 0.22365 0.0
H625 H 0.18829 0.30767 0.24588 0.0
H626 H 0.18896 0.28204 0.23344 0.0
H627 H 0.19626 0.32079 0.23098 0.0
C628 C 0.22697 0.24201 0.20308 0.0
C629 C 0.21785 0.26369 0.19479 0.0
C630 C 0.23711 0.25036 0.21435 0.0
C631 C 0.2382 0.28049 0.21758 0.0
C632 C 0.2283 0.30226 0.20952 0.0
H633 H 0.28586 0.31241 0.29282 0.0
H634 H 0.27714 0.327 0.27194 0.0
C635 C 0.21811 0.29391 0.19817 0.0
C636 C 0.25084 0.28849 0.22932 0.0
H637 H 0.23034 0.30144 0.25816 0.0
C638 C 0.28133 0.28362 0.23117 0.0
C639 C 0.23248 0.29658 0.23902 0.0
C640 C 0.19963 0.30211 0.23734 0.0
C641 C 0.29359 0.28447 0.24268 0.0
C642 C 0.27471 0.28984 0.25253 0.0
C643 C 0.24472 0.29725 0.25056 0.0
C644 C 0.28416 0.28271 0.26485 0.0
C645 C 0.32633 0.27812 0.24426 0.0
C646 C 0.29125 0.25311 0.2677 0.0
C647 C 0.29594 0.24472 0.27953 0.0
C648 C 0.29367 0.26579 0.28875 0.0
C649 C 0.28793 0.29576 0.28586 0.0
C650 C 0.28289 0.30411 0.27398 0.0
H651 H 0.33913 0.28465 0.23619 0.0
H652 H 0.33551 0.29009 0.25213 0.0
H653 H 0.32956 0.25385 0.24565 0.0
H654 H 0.29176 0.23614 0.26082 0.0
H655 H 0.30032 0.22148 0.2815 0.0
H656 H 0.78424 0.25467 0.20328 0.0
H657 H 0.77142 0.2387 0.2235 0.0
H658 H 0.7535 0.15003 0.21055 0.0
H659 H 0.76691 0.16574 0.19021 0.0
H660 H 0.70488 0.18431 0.22412 0.0
H661 H 0.81387 0.17705 0.24737 0.0
H662 H 0.80957 0.20862 0.23761 0.0
H663 H 0.80984 0.17169 0.23143 0.0
C664 C 0.77816 0.23164 0.20476 0.0
C665 C 0.77652 0.21148 0.1952 0.0
C666 C 0.77095 0.22251 0.21631 0.0
C667 C 0.76173 0.19318 0.21846 0.0
C668 C 0.76084 0.17269 0.20902 0.0
H669 H 0.71347 0.16669 0.29397 0.0
H670 H 0.72564 0.15036 0.27358 0.0
C671 C 0.76855 0.1817 0.19746 0.0
C672 C 0.75022 0.18538 0.23039 0.0
H673 H 0.77086 0.18512 0.2597 0.0
C674 C 0.71928 0.18358 0.2319 0.0
C675 C 0.76911 0.1843 0.24047 0.0
C676 C 0.8025 0.18526 0.23919 0.0
C677 C 0.70664 0.18332 0.24336 0.0
C678 C 0.72549 0.18485 0.25343 0.0
C679 C 0.75648 0.18401 0.25192 0.0
C680 C 0.71383 0.19238 0.26537 0.0
C681 C 0.67324 0.18313 0.24462 0.0
C682 C 0.70287 0.2212 0.26739 0.0
C683 C 0.6964 0.23068 0.27895 0.0
C684 C 0.7005 0.21137 0.28868 0.0
C685 C 0.70991 0.18193 0.28659 0.0
C686 C 0.71691 0.1726 0.275 0.0
H687 H 0.66227 0.17395 0.23651 0.0
H688 H 0.66635 0.16984 0.25252 0.0
H689 H 0.66525 0.20632 0.2459 0.0
H690 H 0.70077 0.23688 0.26007 0.0
H691 H 0.68918 0.25345 0.28033 0.0
H692 H 0.7052 0.80861 0.6924 0.0
H693 H 0.72206 0.82248 0.71257 0.0
H694 H 0.73541 0.7297 0.72104 0.0
H695 H 0.71871 0.71567 0.70111 0.0
H696 H 0.70062 0.79945 0.73671 0.0
H697 H 0.81825 0.77325 0.7261 0.0
H698 H 0.79082 0.78151 0.71473 0.0
H699 H 0.79244 0.74505 0.72137 0.0
C700 C 0.71135 0.79119 0.69864 0.0
C701 C 0.71094 0.76106 0.69515 0.0
C702 C 0.72104 0.79916 0.7101 0.0
C703 C 0.7305 0.77709 0.71813 0.0
C704 C 0.72867 0.74703 0.71485 0.0
H705 H 0.7789 0.71879 0.78404 0.0
H706 H 0.76928 0.73187 0.76324 0.0
C707 C 0.71901 0.73907 0.70348 0.0
C708 C 0.74295 0.78477 0.72992 0.0
H709 H 0.80471 0.77219 0.74692 0.0
C710 C 0.72359 0.79444 0.73894 0.0
C711 C 0.77297 0.77834 0.7327 0.0
C712 C 0.79494 0.76922 0.72319 0.0
C713 C 0.73291 0.79525 0.75091 0.0
C714 C 0.76225 0.78633 0.75379 0.0
C715 C 0.78221 0.77896 0.74465 0.0
C716 C 0.77088 0.77947 0.76621 0.0
C717 C 0.71078 0.8033 0.76051 0.0
C718 C 0.7757 0.80202 0.77466 0.0
C719 C 0.78142 0.79459 0.78659 0.0
C720 C 0.7821 0.76453 0.79018 0.0
C721 C 0.77834 0.74212 0.78156 0.0
C722 C 0.77289 0.74954 0.76968 0.0
H723 H 0.68848 0.80872 0.75679 0.0
H724 H 0.70845 0.78452 0.76691 0.0
H725 H 0.71899 0.82288 0.76559 0.0
H726 H 0.7744 0.82524 0.77207 0.0
H727 H 0.78422 0.81231 0.79306 0.0
H728 H 0.42306 0.45583 0.94067 0.0
H729 H 0.40751 0.46453 0.96146 0.0
H730 H 0.49943 0.46333 0.9726 0.0
H731 H 0.51506 0.45482 0.95203 0.0
H732 H 0.45473 0.42896 0.98742 0.0
H733 H 0.42679 0.54808 0.97836 0.0
H734 H 0.41227 0.51906 0.96887 0.0
H735 H 0.45121 0.52764 0.96851 0.0
C736 C 0.43985 0.45699 0.9476 0.0
C737 C 0.47029 0.45488 0.94475 0.0
C738 C 0.43095 0.46206 0.95942 0.0
C739 C 0.45239 0.46476 0.96848 0.0
C740 C 0.4826 0.46132 0.9657 0.0
H741 H 0.51627 0.50908 0.03372 0.0
H742 H 0.50078 0.4928 0.01393 0.0
C743 C 0.49148 0.45653 0.95395 0.0
C744 C 0.44428 0.4728 0.98083 0.0
H745 H 0.43436 0.53417 -0.00161 0.0
C746 C 0.44934 0.45173 0.98985 0.0
C747 C 0.43715 0.50251 0.98392 0.0
C748 C 0.43152 0.52581 0.97446 0.0
C749 C 0.44974 0.46017 0.0019 0.0
C750 C 0.44546 0.49044 0.00491 0.0
C751 C 0.43775 0.511 -0.00401 0.0
C752 C 0.45401 0.50174 0.0168 0.0
C753 C 0.45663 0.437 0.01127 0.0
C754 C 0.43286 0.51318 0.02479 0.0
C755 C 0.44167 0.5226 0.03619 0.0
C756 C 0.47177 0.52088 0.03965 0.0
C757 C 0.49291 0.51052 0.03138 0.0
C758 C 0.4841 0.50106 0.02009 0.0
H759 H 0.4507 0.41427 0.00814 0.0
H760 H 0.48086 0.4373 0.01322 0.0
H761 H 0.4445 0.44174 0.0197 0.0
H762 H 0.40956 0.51414 0.0223 0.0
H763 H 0.42491 0.53055 0.04237 0.0
H764 H 0.06144 0.4523 0.53886 0.0
H765 H 0.07469 0.46916 0.51865 0.0
H766 H 0.98263 0.49039 0.51175 0.0
H767 H 0.96923 0.47376 0.53175 0.0
H768 H 0.05011 0.45017 0.49536 0.0
H769 H 0.02959 0.56925 0.50537 0.0
H770 H 0.03607 0.54175 0.51689 0.0
H771 H -0.00015 0.54538 0.51017 0.0
C772 C 0.04403 0.46031 0.53298 0.0
C773 C 0.01433 0.46198 0.53692 0.0
C774 C 0.05165 0.47 0.52148 0.0
C775 C 0.0297 0.48161 0.51388 0.0
C776 C -5e-05 0.48209 0.51762 0.0
H777 H 0.97258 0.53112 0.44762 0.0
H778 H 0.98522 0.52198 0.4685 0.0
C779 C -0.00768 0.4724 0.52903 0.0
C780 C 0.03722 0.49333 0.50194 0.0
H781 H 0.02691 0.55497 0.4846 0.0
C782 C 0.04593 0.47325 0.49301 0.0
C783 C 0.03195 0.52351 0.499 0.0
C784 C 0.02413 0.54631 0.50839 0.0
C785 C 0.0469 0.48206 0.48098 0.0
C786 C 0.03916 0.51167 0.47794 0.0
C787 C 0.03273 0.53226 0.48699 0.0
C788 C 0.03275 0.5202 0.46548 0.0
C789 C 0.05389 0.4592 0.4715 0.0
C790 C 0.05544 0.523 0.45696 0.0
C791 C 0.04827 0.5284 0.44497 0.0
C792 C 0.01832 0.53081 0.44141 0.0
C793 C -0.00417 0.52919 0.45009 0.0
C794 C 0.00301 0.52402 0.46202 0.0
H795 H 0.05778 0.43669 0.47534 0.0
H796 H 0.03527 0.45786 0.46499 0.0
H797 H 0.07412 0.46606 0.46654 0.0
H798 H 0.07854 0.52032 0.45953 0.0
H799 H 0.06605 0.52957 0.43846 0.0
H800 H 0.17383 0.82445 0.65403 0.0
H801 H 0.1545 0.86387 0.6413 0.0
H802 H 0.24329 0.88223 0.62855 0.0
H803 H 0.26262 0.84128 0.64085 0.0
H804 H 0.16202 0.92116 0.63951 0.0
H805 H 0.20254 0.86811 0.5976 0.0
H806 H 0.20502 0.8497 0.61186 0.0
H807 H 0.23102 0.87863 0.60801 0.0
C808 C 0.18932 0.83696 0.64857 0.0
C809 C 0.21968 0.82956 0.64831 0.0
C810 C 0.17824 0.85959 0.64131 0.0
C811 C 0.19732 0.8757 0.63377 0.0
C812 C 0.22799 0.86953 0.63401 0.0
H813 H 0.09131 0.00927 0.59376 0.0
H814 H 0.13216 0.9909 0.60634 0.0
C815 C 0.23904 0.84629 0.64109 0.0
C816 C 0.18424 0.8976 0.62533 0.0
H817 H 0.17214 0.90999 0.59564 0.0
C818 C 0.16444 0.91899 0.6299 0.0
C819 C 0.18756 0.89476 0.6128 0.0
C820 C 0.20748 0.87145 0.60724 0.0
C821 C 0.14602 0.93582 0.62234 0.0
C822 C 0.14857 0.93217 0.60982 0.0
C823 C 0.17019 0.91265 0.60525 0.0
C824 C 0.12625 0.9446 0.6014 0.0
C825 C 0.12255 0.95552 0.62791 0.0
C826 C 0.11041 0.92498 0.59398 0.0
C827 C 0.08782 0.93549 0.58657 0.0
C828 C 0.0802 0.96583 0.58655 0.0
C829 C 0.09651 0.9857 0.59373 0.0
C830 C 0.11969 0.97521 0.60097 0.0
H831 H 0.11957 0.95083 0.63758 0.0
H832 H 0.12928 0.97918 0.62699 0.0
H833 H 0.10074 0.95254 0.62339 0.0
H834 H 0.11497 0.90127 0.59416 0.0
H835 H 0.07562 0.91962 0.58117 0.0
H836 H 0.23431 0.81635 0.85489 0.0
H837 H 0.25397 0.85346 0.86885 0.0
H838 H 0.30713 0.89145 0.84066 0.0
H839 H 0.28777 0.85451 0.82666 0.0
H840 H 0.31763 0.85542 0.87268 0.0
H841 H 0.27226 0.96516 0.8587 0.0
H842 H 0.25422 0.93028 0.85511 0.0
H843 H 0.28624 0.94219 0.84679 0.0
C844 C 0.24964 0.83304 0.85159 0.0
C845 C 0.25969 0.83233 0.83969 0.0
C846 C 0.2608 0.85422 0.85957 0.0
C847 C 0.28174 0.8753 0.85573 0.0
C848 C 0.29059 0.87567 0.84373 0.0
H849 H 0.41454 -0.00855 0.88386 0.0
H850 H 0.37545 0.96729 0.87212 0.0
C851 C 0.27968 0.85437 0.83577 0.0
C852 C 0.29767 0.89397 0.86452 0.0
H853 H 0.31439 0.96591 0.87174 0.0
C854 C 0.31659 0.87958 0.87265 0.0
C855 C 0.29647 0.92541 0.86427 0.0
C856 C 0.27604 0.94177 0.85582 0.0
C857 C 0.33538 0.89579 0.88022 0.0
C858 C 0.33444 0.92734 0.87993 0.0
C859 C 0.31493 0.94176 0.87199 0.0
C860 C 0.35499 0.94549 0.88729 0.0
C861 C 0.35715 0.87889 0.88799 0.0
C862 C 0.35564 0.94228 0.89976 0.0
C863 C 0.37823 0.95561 0.90645 0.0
C864 C 0.40015 0.97296 0.90081 0.0
C865 C 0.39802 0.97813 0.88845 0.0
C866 C 0.37568 0.96436 0.88173 0.0
H867 H 0.36023 0.85557 0.88488 0.0
H868 H 0.37923 0.88998 0.88811 0.0
H869 H 0.34857 0.87807 0.89727 0.0
H870 H 0.33937 0.92849 0.90426 0.0
H871 H 0.37903 0.95162 0.91599 0.0
H872 H 0.37481 0.02603 0.0692 0.0
H873 H 0.3341 0.0471 0.08098 0.0
H874 H 0.37422 0.01281 0.11321 0.0
H875 H 0.41441 0.99064 0.10143 0.0
H876 H 0.31293 0.0111 0.11412 0.0
H877 H 0.35259 0.12243 0.09928 0.0
H878 H 0.34136 0.09837 0.0873 0.0
H879 H 0.37312 0.08872 0.09632 0.0
C880 C 0.37465 0.02251 0.07877 0.0
C881 C 0.39801 0.00713 0.08443 0.0
C882 C 0.35145 0.03465 0.08549 0.0
C883 C 0.35164 0.03225 0.09799 0.0
C884 C 0.37379 0.01509 0.10357 0.0
H885 H 0.28726 0.1237 0.15854 0.0
H886 H 0.30504 0.08591 0.14459 0.0
C887 C 0.39675 0.00247 0.09683 0.0
C888 C 0.33063 0.04992 0.10532 0.0
H889 H 0.31132 0.12152 0.11207 0.0
C890 C 0.31236 0.03523 0.11361 0.0
C891 C 0.33011 0.08145 0.10469 0.0
C892 C 0.35051 0.09874 0.09651 0.0
C893 C 0.29382 0.0513 0.12141 0.0
C894 C 0.2937 0.08274 0.12086 0.0
C895 C 0.31126 0.09735 0.11234 0.0
C896 C 0.27815 0.10136 0.12978 0.0
C897 C 0.2748 0.03464 0.13025 0.0
C898 C 0.25679 0.12228 0.12611 0.0
C899 C 0.24657 0.14399 0.13407 0.0
C900 C 0.25798 0.14538 0.14576 0.0
C901 C 0.27815 0.12334 0.14958 0.0
C902 C 0.28814 0.10153 0.14165 0.0
H903 H 0.27121 0.01116 0.12746 0.0
H904 H 0.28613 0.03445 0.13907 0.0
H905 H 0.25284 0.04567 0.13137 0.0
H906 H 0.24906 0.12264 0.11694 0.0
H907 H 0.23104 0.16064 0.13085 0.0
H908 H 0.06747 0.98177 0.37734 0.0
H909 H 0.10544 8e-05 0.36349 0.0
H910 H 0.14327 0.05394 0.39154 0.0
H911 H 0.10547 0.03595 0.40543 0.0
H912 H 0.10875 0.06347 0.3592 0.0
H913 H 0.21692 0.01681 0.37427 0.0
H914 H 0.18161 -0.00044 0.37774 0.0
H915 H 0.19383 0.03168 0.38596 0.0
C916 C 0.08427 -0.00301 0.38063 0.0
C917 C 0.0833 0.00764 0.39245 0.0
C918 C 0.10595 0.00736 0.37272 0.0
C919 C 0.12727 0.02808 0.37655 0.0
C920 C 0.12731 0.03754 0.38848 0.0
H921 H 0.24544 0.15947 0.34973 0.0
H922 H 0.22057 0.12005 0.36102 0.0
C923 C 0.10551 0.02743 0.39637 0.0
C924 C 0.14656 0.04325 0.36779 0.0
H925 H 0.219 0.05893 0.3612 0.0
C926 C 0.13286 0.06211 0.35946 0.0
C927 C 0.17792 0.0416 0.36832 0.0
C928 C 0.19353 0.02114 0.37699 0.0
C929 C 0.1497 0.08056 0.35198 0.0
C930 C 0.18118 0.07931 0.3526 0.0
C931 C 0.1949 0.05971 0.3607 0.0
C932 C 0.19994 0.09987 0.34552 0.0
C933 C 0.13353 0.10242 0.34401 0.0
C934 C 0.19764 0.10075 0.33303 0.0
C935 C 0.21137 0.12355 0.32659 0.0
C936 C 0.2282 0.1454 0.33252 0.0
C937 C 0.23252 0.143 0.34492 0.0
C938 C 0.21836 0.12047 0.35138 0.0
H939 H 0.11 0.10559 0.34679 0.0
H940 H 0.14469 0.12448 0.34405 0.0
H941 H 0.13344 0.09385 0.33471 0.0
H942 H 0.1842 0.08455 0.32831 0.0
H943 H 0.20805 0.12457 0.31701 0.0
H944 H 0.93527 0.07314 0.40628 0.0
H945 H 0.90053 0.10451 0.39512 0.0
H946 H 0.89384 0.03711 0.36779 0.0
H947 H 0.92816 0.00531 0.37896 0.0
H948 H 0.90824 0.12688 0.37258 0.0
H949 H 0.80686 0.05661 0.37449 0.0
H950 H 0.83869 0.05032 0.38403 0.0
H951 H 0.83894 0.03739 0.36882 0.0
C952 C 0.92623 0.06483 0.39795 0.0
C953 C 0.93448 0.03667 0.39352 0.0
C954 C 0.90638 0.0828 0.39159 0.0
C955 C 0.89434 0.07296 0.38072 0.0
C956 C 0.90238 0.04484 0.3763 0.0
H957 H 0.81992 0.18347 0.32473 0.0
H958 H 0.85061 0.15049 0.33701 0.0
C959 C 0.92215 0.02678 0.38266 0.0
C960 C 0.87464 0.0928 0.37371 0.0
H961 H 0.80581 0.09755 0.36091 0.0
C962 C 0.88578 0.12056 0.37008 0.0
C963 C 0.84526 0.08459 0.37059 0.0
C964 C 0.83157 0.05573 0.37477 0.0
C965 C 0.8685 0.14016 0.36321 0.0
C966 C 0.83955 0.13146 0.35969 0.0
C967 C 0.82816 0.10397 0.36352 0.0
C968 C 0.82062 0.15077 0.35213 0.0
C969 C 0.88126 0.17016 0.35993 0.0
C970 C 0.79319 0.16111 0.35644 0.0
C971 C 0.77547 0.17977 0.34942 0.0
C972 C 0.78485 0.18836 0.33793 0.0
C973 C 0.81214 0.1775 0.33357 0.0
C974 C 0.82979 0.15877 0.34059 0.0
H975 H 0.90002 0.17647 0.36589 0.0
H976 H 0.88985 0.16928 0.35064 0.0
H977 H 0.86397 0.18783 0.36038 0.0
H978 H 0.78568 0.15504 0.36531 0.0
H979 H 0.75456 0.18765 0.35305 0.0
H980 H 0.56622 -0.00042 0.09917 0.0
H981 H 0.60038 0.03052 0.11079 0.0
H982 H 0.56706 0.10908 0.09299 0.0
H983 H 0.53366 0.0782 0.08103 0.0
H984 H 0.62598 0.11057 0.09455 0.0
H985 H 0.57932 0.08164 0.1389 0.0
H986 H 0.59195 0.0497 0.13072 0.0
H987 H 0.56122 0.07139 0.12512 0.0
C988 C 0.56612 0.02346 0.09776 0.0
C989 C 0.54711 0.03648 0.08923 0.0
C990 C 0.58554 0.04113 0.10446 0.0
C991 C 0.58584 0.07218 0.10294 0.0
C992 C 0.56712 0.08517 0.09434 0.0
H993 H 0.65637 0.20185 0.15227 0.0
H994 H 0.62576 0.1687 0.14011 0.0
C995 C 0.54802 0.06749 0.08752 0.0
C996 C 0.60585 0.09123 0.11019 0.0
H997 H 0.62396 0.10985 0.13886 0.0
C998 C 0.6255 0.11048 0.10424 0.0
C999 C 0.60493 0.09134 0.12284 0.0
C1000 C 0.58302 0.07264 0.12978 0.0
C1001 C 0.64423 0.12989 0.11057 0.0
C1002 C 0.64395 0.12934 0.12322 0.0
C1003 C 0.62434 0.11004 0.12916 0.0
C1004 C 0.66288 0.14943 0.13048 0.0
C1005 C 0.66338 0.1514 0.10363 0.0
C1006 C 0.69396 0.14944 0.1292 0.0
C1007 C 0.71151 0.16873 0.13603 0.0
C1008 C 0.6983 0.18788 0.14444 0.0
C1009 C 0.66723 0.18735 0.14588 0.0
C1010 C 0.6497 0.16839 0.13894 0.0
H1011 H 0.65476 0.15489 0.09442 0.0
H1012 H 0.66468 0.17335 0.10817 0.0
H1013 H 0.68624 0.1422 0.10289 0.0
H1014 H 0.7047 0.13442 0.12298 0.0
H1015 H 0.73543 0.16837 0.13481 0.0
H1016 H 0.73407 0.80519 0.8557 0.0
H1017 H 0.70386 0.83836 0.86812 0.0
H1018 H 0.63667 0.84155 0.84061 0.0
H1019 H 0.6664 0.8082 0.82818 0.0
H1020 H 0.68076 0.89619 0.86364 0.0
H1021 H 0.59147 0.81245 0.87041 0.0
H1022 H 0.6277 0.8028 0.86461 0.0
H1023 H 0.60022 0.81949 0.85501 0.0
C1024 C 0.71292 0.81304 0.85226 0.0
C1025 C 0.7025 0.80378 0.84099 0.0
C1026 C 0.69574 0.83201 0.85936 0.0
C1027 C 0.66787 0.84192 0.85534 0.0
C1028 C 0.65789 0.83362 0.84395 0.0
H1029 H 0.55442 0.98188 0.88243 0.0
H1030 H 0.58969 0.95151 0.87114 0.0
C1031 C 0.67499 0.81465 0.83685 0.0
C1032 C 0.64886 0.86044 0.86315 0.0
H1033 H 0.58131 0.86169 0.87702 0.0
C1034 C 0.65906 0.88867 0.86663 0.0
C1035 C 0.62082 0.85027 0.86716 0.0
C1036 C 0.60945 0.81949 0.86421 0.0
C1037 C 0.64153 0.90739 0.8738 0.0
C1038 C 0.61298 0.89767 0.8774 0.0
C1039 C 0.60312 0.86915 0.87415 0.0
C1040 C 0.59273 0.91673 0.88448 0.0
C1041 C 0.65383 0.93723 0.87755 0.0
C1042 C 0.58233 0.90694 0.89562 0.0
C1043 C 0.56194 0.92408 0.90206 0.0
C1044 C 0.55148 0.9513 0.89743 0.0
C1045 C 0.5621 0.9611 0.88628 0.0
C1046 C 0.58243 0.94389 0.87984 0.0
H1047 H 0.6785 0.93783 0.87688 0.0
H1048 H 0.64475 0.95478 0.87158 0.0
H1049 H 0.64732 0.94267 0.88686 0.0
H1050 H 0.5899 0.88593 0.89931 0.0
H1051 H 0.55426 0.91588 0.91062 0.0
H1052 H 0.75402 0.80106 0.63119 0.0
H1053 H 0.7835 0.83596 0.61937 0.0
H1054 H 0.85374 0.83214 0.64562 0.0
H1055 H 0.82464 0.79687 0.65746 0.0
H1056 H 0.80708 0.89206 0.62539 0.0
H1057 H 0.8956 0.81016 0.61421 0.0
H1058 H 0.86018 0.79924 0.62041 0.0
H1059 H 0.88864 0.81439 0.62992 0.0
C1060 C 0.77573 0.80761 0.63448 0.0
C1061 C 0.78708 0.79594 0.64523 0.0
C1062 C 0.79249 0.82762 0.62772 0.0
C1063 C 0.8209 0.83626 0.63156 0.0
C1064 C 0.83204 0.82529 0.64241 0.0
H1065 H 0.93024 0.97996 0.60369 0.0
H1066 H 0.89682 0.94932 0.61576 0.0
C1067 C 0.81533 0.80521 0.64918 0.0
C1068 C 0.83904 0.85641 0.62408 0.0
H1069 H 0.9039 0.86014 0.60835 0.0
C1070 C 0.82824 0.88514 0.62165 0.0
C1071 C 0.8664 0.84708 0.61909 0.0
C1072 C 0.87834 0.81596 0.62093 0.0
C1073 C 0.84434 0.905 0.61443 0.0
C1074 C 0.87207 0.8959 0.6097 0.0
C1075 C 0.88269 0.86708 0.61206 0.0
C1076 C 0.89044 0.91568 0.60215 0.0
C1077 C 0.8313 0.93526 0.61175 0.0
C1078 C 0.89805 0.90679 0.59053 0.0
C1079 C 0.91732 0.92406 0.58365 0.0
C1080 C 0.92943 0.95055 0.58828 0.0
C1081 C 0.92121 0.95976 0.59983 0.0
C1082 C 0.90198 0.94236 0.60673 0.0
H1083 H 0.80693 0.93589 0.61345 0.0
H1084 H 0.84198 0.95211 0.61761 0.0
H1085 H 0.83543 0.94171 0.60232 0.0
H1086 H 0.8894 0.88621 0.58686 0.0
H1087 H 0.9231 0.91635 0.57478 0.0
H1088 H 0.69536 0.35316 0.16095 0.0
H1089 H 0.67696 0.39156 0.14735 0.0
H1090 H 0.74133 0.36465 0.12092 0.0
H1091 H 0.75994 0.326 0.13444 0.0
H1092 H 0.70614 0.4404 0.13259 0.0
H1093 H 0.65534 0.34655 0.10712 0.0
H1094 H 0.6685 0.34221 0.12226 0.0
H1095 H 0.69461 0.34438 0.11017 0.0
C1096 C 0.70606 0.35574 0.15235 0.0
C1097 C 0.72879 0.33616 0.1487 0.0
C1098 C 0.6956 0.37782 0.14462 0.0
C1099 C 0.70763 0.38064 0.13313 0.0
C1100 C 0.73171 0.36262 0.12976 0.0
H1101 H 0.61554 0.45564 0.0721 0.0
H1102 H 0.65569 0.43584 0.0845 0.0
C1103 C 0.74227 0.34055 0.13749 0.0
C1104 C 0.69231 0.39949 0.12423 0.0
H1105 H 0.64485 0.39481 0.10056 0.0
C1106 C 0.69298 0.43059 0.12548 0.0
C1107 C 0.67516 0.38646 0.11503 0.0
C1108 C 0.67306 0.35308 0.11354 0.0
C1109 C 0.67666 0.4491 0.11773 0.0
C1110 C 0.65875 0.43599 0.10874 0.0
C1111 C 0.65872 0.40489 0.10739 0.0
C1112 C 0.63822 0.45347 0.10108 0.0
C1113 C 0.67882 0.48242 0.11923 0.0
C1114 C 0.61555 0.47083 0.10621 0.0
C1115 C 0.59276 0.48255 0.0991 0.0
C1116 C 0.59193 0.47649 0.08679 0.0
C1117 C 0.61546 0.46045 0.08158 0.0
C1118 C 0.63845 0.44918 0.08866 0.0
H1119 H 0.70036 0.48887 0.12337 0.0
H1120 H 0.67651 0.49414 0.11054 0.0
H1121 H 0.66075 0.49009 0.12525 0.0
H1122 H 0.61444 0.47384 0.1158 0.0
H1123 H 0.57481 0.49466 0.10337 0.0
H1124 H 0.79414 0.34933 0.31881 0.0
H1125 H 0.81733 0.38706 0.33147 0.0
H1126 H 0.75327 0.36931 0.3592 0.0
H1127 H 0.72977 0.3314 0.34662 0.0
H1128 H 0.77767 0.43733 0.35318 0.0
H1129 H 0.85742 0.34558 0.36367 0.0
H1130 H 0.84707 0.35148 0.3483 0.0
H1131 H 0.81987 0.33824 0.35872 0.0
C1132 C 0.78446 0.3539 0.32748 0.0
C1133 C 0.7604 0.33699 0.33179 0.0
C1134 C 0.79768 0.37558 0.33466 0.0
C1135 C 0.78699 0.38076 0.34623 0.0
C1136 C 0.76164 0.36562 0.35024 0.0
H1137 H 0.88842 0.4393 0.4069 0.0
H1138 H 0.84974 0.41877 0.39403 0.0
C1139 C 0.74836 0.3439 0.34306 0.0
C1140 C 0.80508 0.39814 0.35471 0.0
H1141 H 0.86682 0.3923 0.37226 0.0
C1142 C 0.79716 0.42762 0.35739 0.0
C1143 C 0.83025 0.38513 0.36019 0.0
C1144 C 0.83927 0.35332 0.35767 0.0
C1145 C 0.8142 0.44463 0.36543 0.0
C1146 C 0.83962 0.43167 0.37079 0.0
C1147 C 0.84725 0.4021 0.36814 0.0
C1148 C 0.85908 0.44806 0.37915 0.0
C1149 C 0.8048 0.4761 0.36827 0.0
C1150 C 0.87668 0.47181 0.37512 0.0
C1151 C 0.89894 0.48363 0.38246 0.0
C1152 C 0.90406 0.47164 0.3939 0.0
C1153 C 0.88527 0.44891 0.39811 0.0
C1154 C 0.86306 0.43719 0.39079 0.0
H1155 H 0.78151 0.48059 0.36543 0.0
H1156 H 0.80684 0.48056 0.378 0.0
H1157 H 0.81963 0.49188 0.3635 0.0
H1158 H 0.87425 0.48015 0.36609 0.0
H1159 H 0.91302 0.50114 0.37895 0.0
H1160 H 0.88385 0.54138 0.57454 0.0
H1161 H 0.84594 0.55914 0.58844 0.0
H1162 H 0.87525 0.49511 0.61466 0.0
H1163 H 0.91345 0.47711 0.60082 0.0
H1164 H 0.79841 0.52862 0.60328 0.0
H1165 H 0.89153 0.58141 0.62854 0.0
H1166 H 0.89589 0.56855 0.61337 0.0
H1167 H 0.89434 0.5422 0.6254 0.0
C1168 C 0.88196 0.53067 0.58318 0.0
C1169 C 0.902 0.50815 0.58665 0.0
C1170 C 0.86015 0.54074 0.59107 0.0
C1171 C 0.85807 0.52857 0.60256 0.0
C1172 C 0.87669 0.50481 0.60581 0.0
H1173 H 0.7818 0.62216 0.66298 0.0
H1174 H 0.80235 0.5816 0.65101 0.0
C1175 C 0.89849 0.4946 0.5979 0.0
C1176 C 0.83911 0.5434 0.61153 0.0
H1177 H 0.84317 0.59176 0.63491 0.0
C1178 C 0.80805 0.54214 0.61032 0.0
C1179 C 0.85191 0.561 0.62064 0.0
C1180 C 0.88523 0.56366 0.6221 0.0
C1181 C 0.78935 0.55845 0.61797 0.0
C1182 C 0.80222 0.57697 0.62681 0.0
C1183 C 0.83329 0.57745 0.62818 0.0
C1184 C 0.7845 0.59776 0.63424 0.0
C1185 C 0.7561 0.55569 0.61649 0.0
C1186 C 0.76682 0.61985 0.62885 0.0
C1187 C 0.75468 0.64288 0.63572 0.0
C1188 C 0.76064 0.64452 0.64802 0.0
C1189 C 0.77708 0.6216 0.65348 0.0
C1190 C 0.78876 0.59837 0.64667 0.0
H1191 H 0.74998 0.53377 0.61259 0.0
H1192 H 0.74437 0.55839 0.62516 0.0
H1193 H 0.74815 0.57325 0.61028 0.0
H1194 H 0.76383 0.62033 0.61925 0.0
H1195 H 0.74225 0.66035 0.63126 0.0
H1196 H 0.76549 0.64428 0.84551 0.0
H1197 H 0.74942 0.60176 0.85765 0.0
H1198 H 0.65975 0.61279 0.84445 0.0
H1199 H 0.6759 0.6539 0.83194 0.0
H1200 H 0.71424 0.6004 0.87531 0.0
H1201 H 0.66479 0.52555 0.84213 0.0
H1202 H 0.68781 0.55662 0.83775 0.0
H1203 H 0.64827 0.56145 0.84003 0.0
C1204 C 0.74248 0.63719 0.84506 0.0
C1205 C 0.72198 0.6523 0.83773 0.0
C1206 C 0.73333 0.61289 0.85197 0.0
C1207 C 0.7035 0.6035 0.85176 0.0
C1208 C 0.68312 0.61866 0.84442 0.0
H1209 H 0.5881 0.56024 0.90579 0.0
H1210 H 0.62885 0.57771 0.89346 0.0
C1211 C 0.69233 0.64247 0.83736 0.0
C1212 C 0.69255 0.58026 0.86011 0.0
H1213 H 0.64044 0.52536 0.86195 0.0
C1214 C 0.69873 0.58343 0.87235 0.0
C1215 C 0.6732 0.55723 0.85633 0.0
C1216 C 0.66851 0.54985 0.84331 0.0
C1217 C 0.6837 0.56635 0.88092 0.0
C1218 C 0.66099 0.54658 0.87718 0.0
C1219 C 0.65717 0.54113 0.86491 0.0
C1220 C 0.6385 0.5346 0.88561 0.0
C1221 C 0.69182 0.57039 0.8939 0.0
C1222 C 0.62953 0.50463 0.88512 0.0
C1223 C 0.6054 0.4947 0.89195 0.0
C1224 C 0.59005 0.51456 0.89947 0.0
C1225 C 0.59967 0.54426 0.90021 0.0
C1226 C 0.62331 0.55424 0.89324 0.0
H1227 H 0.71608 0.57451 0.89488 0.0
H1228 H 0.68009 0.59023 0.89749 0.0
H1229 H 0.68578 0.55062 0.89935 0.0
H1230 H 0.6407 0.48909 0.87923 0.0
H1231 H 0.59848 0.47167 0.8912 0.0
H1232 H 0.43905 0.50188 0.8789 0.0
H1233 H 0.40621 0.53124 0.866 0.0
H1234 H 0.3996 0.59876 0.89327 0.0
H1235 H 0.43263 0.5699 0.90618 0.0
H1236 H 0.34787 0.55243 0.8697 0.0
H1237 H 0.42843 0.64484 0.86377 0.0
H1238 H 0.43902 0.60903 0.86978 0.0
H1239 H 0.42092 0.63612 0.87913 0.0
C1240 C 0.43056 0.52294 0.88218 0.0
C1241 C 0.43871 0.53368 0.89353 0.0
C1242 C 0.41179 0.53964 0.87479 0.0
C1243 C 0.40097 0.56736 0.87862 0.0
C1244 C 0.40826 0.57769 0.89008 0.0
H1245 H 0.25773 0.67629 0.85212 0.0
H1246 H 0.28919 0.64071 0.86277 0.0
C1247 C 0.42705 0.56108 0.89745 0.0
C1248 C 0.38228 0.58572 0.87062 0.0
H1249 H 0.37885 0.65381 0.85716 0.0
C1250 C 0.35466 0.57452 0.86687 0.0
C1251 C 0.39152 0.61428 0.86679 0.0
C1252 C 0.42171 0.62672 0.86997 0.0
C1253 C 0.33553 0.59161 0.85969 0.0
C1254 C 0.34416 0.62076 0.85637 0.0
C1255 C 0.37218 0.63154 0.85982 0.0
C1256 C 0.32431 0.64084 0.84955 0.0
C1257 C 0.30638 0.57825 0.85568 0.0
C1258 C 0.33387 0.65311 0.83868 0.0
C1259 C 0.3161 0.67373 0.83263 0.0
C1260 C 0.28846 0.68253 0.83736 0.0
C1261 C 0.27882 0.66991 0.8482 0.0
C1262 C 0.29667 0.64938 0.85426 0.0
H1263 H 0.30706 0.55351 0.85593 0.0
H1264 H 0.28841 0.58574 0.86178 0.0
H1265 H 0.30062 0.58549 0.84647 0.0
H1266 H 0.35523 0.64692 0.83494 0.0
H1267 H 0.32419 0.68296 0.8243 0.0
H1268 H 0.05308 0.57294 0.57493 0.0
H1269 H 0.08874 0.60196 0.58659 0.0
H1270 H 0.09299 0.53174 0.61286 0.0
H1271 H 0.05773 0.5023 0.60118 0.0
H1272 H 0.08131 0.62216 0.60951 0.0
H1273 H 0.18072 0.54908 0.60658 0.0
H1274 H 0.14887 0.54484 0.59687 0.0
H1275 H 0.14796 0.53035 0.61184 0.0
C1276 C 0.06177 0.56352 0.58313 0.0
C1277 C 0.05256 0.53527 0.58711 0.0
C1278 C 0.08216 0.58014 0.58978 0.0
C1279 C 0.09379 0.56881 0.60049 0.0
C1280 C 0.08477 0.5406 0.60448 0.0
H1281 H 0.16986 0.67258 0.65801 0.0
H1282 H 0.13971 0.63967 0.64554 0.0
C1283 C 0.06445 0.5239 0.59782 0.0
C1284 C 0.114 0.58727 0.60784 0.0
H1285 H 0.18289 0.58873 0.62074 0.0
C1286 C 0.10358 0.61493 0.61192 0.0
C1287 C 0.14312 0.57787 0.61085 0.0
C1288 C 0.156 0.54905 0.60622 0.0
C1289 C 0.12132 0.63329 0.61911 0.0
C1290 C 0.15002 0.62341 0.6225 0.0
C1291 C 0.16071 0.59602 0.61823 0.0
C1292 C 0.16935 0.6415 0.63033 0.0
C1293 C 0.10933 0.66327 0.62289 0.0
C1294 C 0.19654 0.65246 0.62605 0.0
C1295 C 0.21397 0.67112 0.63318 0.0
C1296 C 0.20447 0.67908 0.64473 0.0
C1297 C 0.1777 0.66714 0.64913 0.0
C1298 C 0.16036 0.64843 0.642 0.0
H1299 H 0.09055 0.6706 0.61713 0.0
H1300 H 0.10102 0.66175 0.63221 0.0
H1301 H 0.12702 0.68053 0.62261 0.0
H1302 H 0.20391 0.64718 0.61708 0.0
H1303 H 0.23452 0.67982 0.62953 0.0
H1304 H 0.05794 0.47829 0.37705 0.0
H1305 H 0.09137 0.44702 0.36523 0.0
H1306 H 0.08957 0.37981 0.39276 0.0
H1307 H 0.05581 0.41066 0.40459 0.0
H1308 H 0.14756 0.4236 0.37072 0.0
H1309 H 0.06455 0.33427 0.3626 0.0
H1310 H 0.05438 0.37051 0.36828 0.0
H1311 H 0.07018 0.34298 0.3781 0.0
C1312 C 0.06466 0.45688 0.38062 0.0
C1313 C 0.05397 0.44686 0.39173 0.0
C1314 C 0.0838 0.43908 0.37385 0.0
C1315 C 0.0925 0.41095 0.37805 0.0
C1316 C 0.08259 0.40122 0.38927 0.0
H1317 H 0.235 0.29827 0.35211 0.0
H1318 H 0.20357 0.33253 0.36343 0.0
C1319 C 0.0634 0.41895 0.39603 0.0
C1320 C 0.11179 0.3917 0.37064 0.0
H1321 H 0.11422 0.32428 0.3566 0.0
C1322 C 0.1403 0.40191 0.36759 0.0
C1323 C 0.102 0.36365 0.36644 0.0
C1324 C 0.07101 0.35225 0.36891 0.0
C1325 C 0.15957 0.3845 0.36062 0.0
C1326 C 0.15014 0.35601 0.35677 0.0
C1327 C 0.12144 0.34605 0.35965 0.0
C1328 C 0.16966 0.33606 0.34976 0.0
C1329 C 0.18963 0.39693 0.35729 0.0
C1330 C 0.1607 0.32625 0.33841 0.0
C1331 C 0.17847 0.30645 0.33195 0.0
C1332 C 0.20549 0.29602 0.33674 0.0
C1333 C 0.21441 0.30598 0.34812 0.0
C1334 C 0.19658 0.32572 0.35458 0.0
H1335 H 0.19021 0.4216 0.35812 0.0
H1336 H 0.20675 0.38759 0.36339 0.0
H1337 H 0.19569 0.39076 0.34799 0.0
H1338 H 0.1399 0.33388 0.33457 0.0
H1339 H 0.17092 0.29924 0.32322 0.0
H1340 H 0.42318 0.48312 0.09951 0.0
H1341 H 0.38839 0.45263 0.11101 0.0
H1342 H 0.42171 0.37353 0.09366 0.0
H1343 H 0.45581 0.40389 0.08185 0.0
H1344 H 0.36232 0.37307 0.09478 0.0
H1345 H 0.40855 0.40127 0.13935 0.0
H1346 H 0.39657 0.43324 0.131 0.0
H1347 H 0.42716 0.41106 0.12563 0.0
C1348 C 0.42314 0.45922 0.09817 0.0
C1349 C 0.44237 0.4459 0.08981 0.0
C1350 C 0.40336 0.44182 0.1048 0.0
C1351 C 0.40286 0.41075 0.10336 0.0
C1352 C 0.42179 0.39746 0.09494 0.0
H1353 H 0.33245 0.27932 0.15162 0.0
H1354 H 0.36273 0.31339 0.13978 0.0
C1355 C 0.4413 0.41485 0.0882 0.0
C1356 C 0.38247 0.39195 0.11052 0.0
H1357 H 0.36417 0.3728 0.13909 0.0
C1358 C 0.36271 0.37298 0.10447 0.0
C1359 C 0.38329 0.39164 0.12316 0.0
C1360 C 0.40522 0.41017 0.13018 0.0
C1361 C 0.34386 0.35354 0.11071 0.0
C1362 C 0.34417 0.35376 0.12336 0.0
C1363 C 0.36379 0.37287 0.1294 0.0
C1364 C 0.32538 0.33334 0.13051 0.0
C1365 C 0.32457 0.33231 0.10368 0.0
C1366 C 0.29427 0.33345 0.12933 0.0
C1367 C 0.27688 0.31368 0.13598 0.0
C1368 C 0.2903 0.29386 0.14411 0.0
C1369 C 0.32141 0.29431 0.14546 0.0
C1370 C 0.33876 0.31379 0.1387 0.0
H1371 H 0.33291 0.32928 0.09441 0.0
H1372 H 0.32349 0.31014 0.10806 0.0
H1373 H 0.30165 0.34144 0.10311 0.0
H1374 H 0.28341 0.34889 0.1233 0.0
H1375 H 0.25294 0.31412 0.13484 0.0
loop_
_geom_bond_atom_site_label_1
_geom_bond_atom_site_label_2
_geom_bond_distance
_geom_bond_site_symmetry_2
_ccdc_geom_bond_type
C0 O1 1.306 1_545 S
C0 O3 1.160 . S
O1 C0 1.306 1_565 S
O1 Cd2 2.228 . S
Cd2 O1 2.228 . S
Cd2 O6 2.273 1_565 S
Cd2 O10 2.277 1_455 S
O3 C0 1.160 . S
O3 Cd4 2.181 1_455 S
Cd4 O3 2.181 1_655 S
Cd4 O6 2.400 1_655 S
Cd4 O7 2.348 . S
Cd4 O8 2.330 1_655 S
Cd4 O12 2.305 . S
Cd4 O13 2.366 . S
C5 O10 1.209 . S
C5 O12 1.226 1_565 S
O6 Cd2 2.273 1_545 S
O6 Cd4 2.400 1_455 S
O6 C9 1.320 1_455 S
O7 Cd4 2.348 . S
O7 C9 1.214 . S
O8 Cd4 2.330 1_455 S
O8 C11 1.258 . S
C9 O6 1.320 1_655 S
C9 O7 1.214 . S
O10 Cd2 2.277 1_655 S
O10 C5 1.209 . S
C11 O8 1.258 . S
C11 O13 1.282 1_455 S
O12 Cd4 2.305 . S
O12 C5 1.226 1_545 S
O13 Cd4 2.366 . S
O13 C11 1.282 1_655 S
C14 O15 1.306 . S
C14 O17 1.160 . S
O15 C14 1.306 . S
O15 Cd16 2.228 . S
Cd16 O15 2.228 . S
Cd16 O20 2.273 . S
Cd16 O24 2.277 . S
O17 C14 1.160 . S
O17 Cd18 2.203 . S
Cd18 O17 2.203 . S
Cd18 O20 2.411 . S
Cd18 O21 2.333 . S
Cd18 O22 2.352 . S
Cd18 O26 2.277 . S
Cd18 O27 2.356 . S
C19 O24 1.209 . S
C19 O26 1.226 . S
O20 Cd16 2.273 . S
O20 Cd18 2.411 . S
O20 C23 1.320 . S
O21 Cd18 2.333 . S
O21 C23 1.214 . S
O22 Cd18 2.352 . S
O22 C25 1.258 . S
C23 O20 1.320 . S
C23 O21 1.214 . S
O24 Cd16 2.277 . S
O24 C19 1.209 . S
C25 O22 1.258 . S
C25 O27 1.282 . S
O26 Cd18 2.277 . S
O26 C19 1.226 . S
O27 Cd18 2.356 . S
O27 C25 1.282 . S
C28 O29 1.306 1_565 S
C28 O31 1.160 . S
O29 C28 1.306 1_545 S
O29 Cd30 2.228 . S
Cd30 O29 2.228 . S
Cd30 O34 2.273 1_545 S
Cd30 O38 2.277 . S
O31 C28 1.160 . S
O31 Cd32 2.203 . S
Cd32 O31 2.203 . S
Cd32 O34 2.411 . S
Cd32 O35 2.333 . S
Cd32 O36 2.352 . S
Cd32 O40 2.277 . S
Cd32 O41 2.356 . S
C33 O38 1.209 . S
C33 O40 1.226 1_545 S
O34 Cd30 2.273 1_565 S
O34 Cd32 2.411 . S
O34 C37 1.320 . S
O35 Cd32 2.333 . S
O35 C37 1.214 . S
O36 Cd32 2.352 . S
O36 C39 1.258 . S
C37 O34 1.320 . S
C37 O35 1.214 . S
O38 Cd30 2.277 . S
O38 C33 1.209 . S
C39 O36 1.258 . S
C39 O41 1.282 . S
O40 Cd32 2.277 . S
O40 C33 1.226 1_565 S
O41 Cd32 2.356 . S
O41 C39 1.282 . S
C42 O43 1.306 . S
C42 O45 1.160 . S
O43 C42 1.306 . S
O43 Cd44 2.228 . S
Cd44 O43 2.228 . S
Cd44 O48 2.273 . S
Cd44 O52 2.277 . S
O45 C42 1.160 . S
O45 Cd46 2.203 . S
Cd46 O45 2.203 . S
Cd46 O48 2.411 . S
Cd46 O49 2.333 . S
Cd46 O50 2.352 . S
Cd46 O54 2.277 . S
Cd46 O55 2.356 . S
C47 O52 1.209 . S
C47 O54 1.226 . S
O48 Cd44 2.273 . S
O48 Cd46 2.411 . S
O48 C51 1.320 . S
O49 Cd46 2.333 . S
O49 C51 1.214 . S
O50 Cd46 2.352 . S
O50 C53 1.258 . S
C51 O48 1.320 . S
C51 O49 1.214 . S
O52 Cd44 2.277 . S
O52 C47 1.209 . S
C53 O50 1.258 . S
C53 O55 1.282 . S
O54 Cd46 2.277 . S
O54 C47 1.226 . S
O55 Cd46 2.356 . S
O55 C53 1.282 . S
C56 O57 1.306 1_565 S
C56 O59 1.160 . S
O57 C56 1.306 1_545 S
O57 Cd58 2.228 . S
Cd58 O57 2.228 . S
Cd58 O62 2.273 1_545 S
Cd58 O66 2.277 1_455 S
O59 C56 1.160 . S
O59 Cd60 2.181 1_455 S
Cd60 O59 2.181 1_655 S
Cd60 O62 2.400 1_655 S
Cd60 O63 2.348 . S
Cd60 O64 2.330 1_655 S
Cd60 O68 2.305 . S
Cd60 O69 2.366 . S
C61 O66 1.209 . S
C61 O68 1.226 1_545 S
O62 Cd58 2.273 1_565 S
O62 Cd60 2.400 1_455 S
O62 C65 1.320 1_455 S
O63 Cd60 2.348 . S
O63 C65 1.214 . S
O64 Cd60 2.330 1_455 S
O64 C67 1.258 . S
C65 O62 1.320 1_655 S
C65 O63 1.214 . S
O66 Cd58 2.277 1_655 S
O66 C61 1.209 . S
C67 O64 1.258 . S
C67 O69 1.282 1_455 S
O68 Cd60 2.305 . S
O68 C61 1.226 1_565 S
O69 Cd60 2.366 . S
O69 C67 1.282 1_655 S
C70 O71 1.306 . S
C70 O73 1.160 . S
O71 C70 1.306 . S
O71 Cd72 2.228 . S
Cd72 O71 2.228 . S
Cd72 O76 2.273 . S
Cd72 O80 2.277 . S
O73 C70 1.160 . S
O73 Cd74 2.203 . S
Cd74 O73 2.203 . S
Cd74 O76 2.411 . S
Cd74 O77 2.333 . S
Cd74 O78 2.352 . S
Cd74 O82 2.277 . S
Cd74 O83 2.356 . S
C75 O80 1.209 . S
C75 O82 1.226 . S
O76 Cd72 2.273 . S
O76 Cd74 2.411 . S
O76 C79 1.320 . S
O77 Cd74 2.333 . S
O77 C79 1.214 . S
O78 Cd74 2.352 . S
O78 C81 1.258 . S
C79 O76 1.320 . S
C79 O77 1.214 . S
O80 Cd72 2.277 . S
O80 C75 1.209 . S
C81 O78 1.258 . S
C81 O83 1.282 . S
O82 Cd74 2.277 . S
O82 C75 1.226 . S
O83 Cd74 2.356 . S
O83 C81 1.282 . S
C84 O85 1.306 1_545 S
C84 O87 1.160 . S
O85 C84 1.306 1_565 S
O85 Cd86 2.228 . S
Cd86 O85 2.228 . S
Cd86 O90 2.273 1_565 S
Cd86 O94 2.277 . S
O87 C84 1.160 . S
O87 Cd88 2.203 . S
Cd88 O87 2.203 . S
Cd88 O90 2.411 . S
Cd88 O91 2.333 . S
Cd88 O92 2.352 . S
Cd88 O96 2.277 . S
Cd88 O97 2.356 . S
C89 O94 1.209 . S
C89 O96 1.226 1_565 S
O90 Cd86 2.273 1_545 S
O90 Cd88 2.411 . S
O90 C93 1.320 . S
O91 Cd88 2.333 . S
O91 C93 1.214 . S
O92 Cd88 2.352 . S
O92 C95 1.258 . S
C93 O90 1.320 . S
C93 O91 1.214 . S
O94 Cd86 2.277 . S
O94 C89 1.209 . S
C95 O92 1.258 . S
C95 O97 1.282 . S
O96 Cd88 2.277 . S
O96 C89 1.226 1_545 S
O97 Cd88 2.356 . S
O97 C95 1.282 . S
C98 O99 1.306 . S
C98 O101 1.160 . S
O99 C98 1.306 . S
O99 Cd100 2.228 . S
Cd100 O99 2.228 . S
Cd100 O104 2.273 . S
Cd100 O108 2.277 . S
O101 C98 1.160 . S
O101 Cd102 2.203 . S
Cd102 O101 2.203 . S
Cd102 O104 2.411 . S
Cd102 O105 2.333 . S
Cd102 O106 2.352 . S
Cd102 O110 2.277 . S
Cd102 O111 2.356 . S
C103 O108 1.209 . S
C103 O110 1.226 . S
O104 Cd100 2.273 . S
O104 Cd102 2.411 . S
O104 C107 1.320 . S
O105 Cd102 2.333 . S
O105 C107 1.214 . S
O106 Cd102 2.352 . S
O106 C109 1.258 . S
C107 O104 1.320 . S
C107 O105 1.214 . S
O108 Cd100 2.277 . S
O108 C103 1.209 . S
C109 O106 1.258 . S
C109 O111 1.282 . S
O110 Cd102 2.277 . S
O110 C103 1.226 . S
O111 Cd102 2.356 . S
O111 C109 1.282 . S
C112 O113 1.306 . S
C112 O115 1.160 . S
O113 C112 1.306 . S
O113 Cd114 2.228 . S
Cd114 O113 2.228 . S
Cd114 O118 2.273 . S
Cd114 O122 2.277 . S
O115 C112 1.160 . S
O115 Cd116 2.203 . S
Cd116 O115 2.203 . S
Cd116 O118 2.411 . S
Cd116 O119 2.333 . S
Cd116 O120 2.352 . S
Cd116 O124 2.277 . S
Cd116 O125 2.356 . S
C117 O122 1.209 . S
C117 O124 1.226 . S
O118 Cd114 2.273 . S
O118 Cd116 2.411 . S
O118 C121 1.320 . S
O119 Cd116 2.333 . S
O119 C121 1.214 . S
O120 Cd116 2.352 . S
O120 C123 1.258 . S
C121 O118 1.320 . S
C121 O119 1.214 . S
O122 Cd114 2.277 . S
O122 C117 1.209 . S
C123 O120 1.258 . S
C123 O125 1.282 . S
O124 Cd116 2.277 . S
O124 C117 1.226 . S
O125 Cd116 2.356 . S
O125 C123 1.282 . S
C126 O127 1.306 . S
C126 O129 1.160 . S
O127 C126 1.306 . S
O127 Cd128 2.228 . S
Cd128 O127 2.228 . S
Cd128 O132 2.273 . S
Cd128 O136 2.277 . S
O129 C126 1.160 . S
O129 Cd130 2.203 . S
Cd130 O129 2.203 . S
Cd130 O132 2.411 . S
Cd130 O133 2.333 . S
Cd130 O134 2.352 . S
Cd130 O138 2.277 . S
Cd130 O139 2.356 . S
C131 O136 1.209 . S
C131 O138 1.226 . S
O132 Cd128 2.273 . S
O132 Cd130 2.411 . S
O132 C135 1.320 . S
O133 Cd130 2.333 . S
O133 C135 1.214 . S
O134 Cd130 2.352 . S
O134 C137 1.258 . S
C135 O132 1.320 . S
C135 O133 1.214 . S
O136 Cd128 2.277 . S
O136 C131 1.209 . S
C137 O134 1.258 . S
C137 O139 1.282 . S
O138 Cd130 2.277 . S
O138 C131 1.226 . S
O139 Cd130 2.356 . S
O139 C137 1.282 . S
C140 O141 1.306 . S
C140 O143 1.160 . S
O141 C140 1.306 . S
O141 Cd142 2.228 . S
Cd142 O141 2.228 . S
Cd142 O146 2.273 . S
Cd142 O150 2.277 . S
O143 C140 1.160 . S
O143 Cd144 2.203 . S
Cd144 O143 2.203 . S
Cd144 O146 2.411 . S
Cd144 O147 2.333 . S
Cd144 O148 2.352 . S
Cd144 O152 2.277 . S
Cd144 O153 2.356 . S
C145 O150 1.209 . S
C145 O152 1.226 . S
O146 Cd142 2.273 . S
O146 Cd144 2.411 . S
O146 C149 1.320 . S
O147 Cd144 2.333 . S
O147 C149 1.214 . S
O148 Cd144 2.352 . S
O148 C151 1.258 . S
C149 O146 1.320 . S
C149 O147 1.214 . S
O150 Cd142 2.277 . S
O150 C145 1.209 . S
C151 O148 1.258 . S
C151 O153 1.282 . S
O152 Cd144 2.277 . S
O152 C145 1.226 . S
O153 Cd144 2.356 . S
O153 C151 1.282 . S
C154 O155 1.306 . S
C154 O157 1.160 . S
O155 C154 1.306 . S
O155 Cd156 2.228 . S
Cd156 O155 2.228 . S
Cd156 O160 2.273 . S
Cd156 O164 2.277 . S
O157 C154 1.160 . S
O157 Cd158 2.203 . S
Cd158 O157 2.203 . S
Cd158 O160 2.411 . S
Cd158 O161 2.333 . S
Cd158 O162 2.352 . S
Cd158 O166 2.277 . S
Cd158 O167 2.356 . S
C159 O164 1.209 . S
C159 O166 1.226 . S
O160 Cd156 2.273 . S
O160 Cd158 2.411 . S
O160 C163 1.320 . S
O161 Cd158 2.333 . S
O161 C163 1.214 . S
O162 Cd158 2.352 . S
O162 C165 1.258 . S
C163 O160 1.320 . S
C163 O161 1.214 . S
O164 Cd156 2.277 . S
O164 C159 1.209 . S
C165 O162 1.258 . S
C165 O167 1.282 . S
O166 Cd158 2.277 . S
O166 C159 1.226 . S
O167 Cd158 2.356 . S
O167 C165 1.282 . S
C168 O169 1.306 . S
C168 O171 1.160 . S
O169 C168 1.306 . S
O169 Cd170 2.228 . S
Cd170 O169 2.228 . S
Cd170 O174 2.273 . S
Cd170 O178 2.277 . S
O171 C168 1.160 . S
O171 Cd172 2.203 . S
Cd172 O171 2.203 . S
Cd172 O174 2.411 . S
Cd172 O175 2.333 . S
Cd172 O176 2.352 . S
Cd172 O180 2.277 . S
Cd172 O181 2.356 . S
C173 O178 1.209 . S
C173 O180 1.226 . S
O174 Cd170 2.273 . S
O174 Cd172 2.411 . S
O174 C177 1.320 . S
O175 Cd172 2.333 . S
O175 C177 1.214 . S
O176 Cd172 2.352 . S
O176 C179 1.258 . S
C177 O174 1.320 . S
C177 O175 1.214 . S
O178 Cd170 2.277 . S
O178 C173 1.209 . S
C179 O176 1.258 . S
C179 O181 1.282 . S
O180 Cd172 2.277 . S
O180 C173 1.226 . S
O181 Cd172 2.356 . S
O181 C179 1.282 . S
C182 O183 1.306 . S
C182 O185 1.160 . S
O183 C182 1.306 . S
O183 Cd184 2.228 . S
Cd184 O183 2.228 . S
Cd184 O188 2.273 . S
Cd184 O192 2.277 1_655 S
O185 C182 1.160 . S
O185 Cd186 2.203 1_655 S
Cd186 O185 2.203 1_455 S
Cd186 O188 2.411 1_455 S
Cd186 O189 2.333 . S
Cd186 O190 2.352 1_455 S
Cd186 O194 2.277 . S
Cd186 O195 2.356 . S
C187 O192 1.209 . S
C187 O194 1.226 . S
O188 Cd184 2.273 . S
O188 Cd186 2.411 1_655 S
O188 C191 1.320 1_655 S
O189 Cd186 2.333 . S
O189 C191 1.214 . S
O190 Cd186 2.352 1_655 S
O190 C193 1.258 . S
C191 O188 1.320 1_455 S
C191 O189 1.214 . S
O192 Cd184 2.277 1_455 S
O192 C187 1.209 . S
C193 O190 1.258 . S
C193 O195 1.282 1_655 S
O194 Cd186 2.277 . S
O194 C187 1.226 . S
O195 Cd186 2.356 . S
O195 C193 1.282 1_455 S
C196 O197 1.306 . S
C196 O199 1.160 . S
O197 C196 1.306 . S
O197 Cd198 2.228 . S
Cd198 O197 2.228 . S
Cd198 O202 2.273 . S
Cd198 O206 2.277 . S
O199 C196 1.160 . S
O199 Cd200 2.203 . S
Cd200 O199 2.203 . S
Cd200 O202 2.411 . S
Cd200 O203 2.333 . S
Cd200 O204 2.352 . S
Cd200 O208 2.277 . S
Cd200 O209 2.356 . S
C201 O206 1.209 . S
C201 O208 1.226 . S
O202 Cd198 2.273 . S
O202 Cd200 2.411 . S
O202 C205 1.320 . S
O203 Cd200 2.333 . S
O203 C205 1.214 . S
O204 Cd200 2.352 . S
O204 C207 1.258 . S
C205 O202 1.320 . S
C205 O203 1.214 . S
O206 Cd198 2.277 . S
O206 C201 1.209 . S
C207 O204 1.258 . S
C207 O209 1.282 . S
O208 Cd200 2.277 . S
O208 C201 1.226 . S
O209 Cd200 2.356 . S
O209 C207 1.282 . S
C210 O211 1.306 . S
C210 O213 1.160 . S
O211 C210 1.306 . S
O211 Cd212 2.228 . S
Cd212 O211 2.228 . S
Cd212 O216 2.273 . S
Cd212 O220 2.277 1_655 S
O213 C210 1.160 . S
O213 Cd214 2.203 1_655 S
Cd214 O213 2.203 1_455 S
Cd214 O216 2.411 1_455 S
Cd214 O217 2.333 . S
Cd214 O218 2.352 1_455 S
Cd214 O222 2.277 . S
Cd214 O223 2.356 . S
C215 O220 1.209 . S
C215 O222 1.226 . S
O216 Cd212 2.273 . S
O216 Cd214 2.411 1_655 S
O216 C219 1.320 1_655 S
O217 Cd214 2.333 . S
O217 C219 1.214 . S
O218 Cd214 2.352 1_655 S
O218 C221 1.258 . S
C219 O216 1.320 1_455 S
C219 O217 1.214 . S
O220 Cd212 2.277 1_455 S
O220 C215 1.209 . S
C221 O218 1.258 . S
C221 O223 1.282 1_655 S
O222 Cd214 2.277 . S
O222 C215 1.226 . S
O223 Cd214 2.356 . S
O223 C221 1.282 1_455 S
H224 C232 0.929 . S
H225 C234 0.930 . S
H226 C236 0.930 . S
H227 C239 0.948 . S
H228 C242 0.930 . S
H229 C244 0.960 . S
H230 C244 0.960 . S
H231 C244 0.960 . S
C232 H224 0.929 . S
C232 C233 1.377 . S
C232 C234 1.384 . S
C233 C232 1.377 . S
C233 C239 1.370 1_455 S
C234 H225 0.930 . S
C234 C232 1.384 . S
C234 C235 1.372 . S
C235 C234 1.372 . S
C235 C236 1.400 1_455 S
C235 C240 1.490 . S
C236 H226 0.930 . S
C236 C235 1.400 1_655 S
C236 C239 1.388 . S
H237 C253 0.930 . S
H238 C254 0.931 . S
C239 H227 0.948 . S
C239 C233 1.370 1_655 S
C239 C236 1.388 . S
C240 C235 1.490 . S
C240 C242 1.395 1_455 S
C240 C243 1.403 . S
H241 C247 0.930 . S
C242 H228 0.930 . S
C242 C240 1.395 1_655 S
C242 C245 1.403 . S
C243 C240 1.403 . S
C243 C244 1.524 . S
C243 C247 1.400 . S
C244 H229 0.960 . S
C244 H230 0.960 . S
C244 H231 0.960 . S
C244 C243 1.524 . S
C245 C242 1.403 . S
C245 C246 1.386 1_655 S
C245 C249 1.495 . S
C246 C245 1.386 1_455 S
C246 C247 1.394 . S
C246 C248 1.476 1_455 S
C247 H241 0.930 . S
C247 C243 1.400 . S
C247 C246 1.394 . S
C248 C246 1.476 1_655 S
C248 C250 1.381 1_655 S
C248 C254 1.383 . S
C249 C245 1.495 . S
C249 H255 0.959 . S
C249 H256 0.961 . S
C249 H257 0.960 . S
C250 C248 1.381 1_455 S
C250 C251 1.394 . S
C250 H258 0.930 . S
C251 C250 1.394 . S
C251 C252 1.383 1_455 S
C251 H259 0.929 . S
C252 C251 1.383 1_655 S
C252 C253 1.377 . S
C253 H237 0.930 . S
C253 C252 1.377 . S
C253 C254 1.379 . S
C254 H238 0.931 . S
C254 C248 1.383 . S
C254 C253 1.379 . S
H255 C249 0.959 . S
H256 C249 0.961 . S
H257 C249 0.960 . S
H258 C250 0.930 . S
H259 C251 0.929 . S
H260 C268 0.929 . S
H261 C270 0.930 . S
H262 C272 0.930 . S
H263 C275 0.929 . S
H264 C278 0.930 . S
H265 C280 0.960 . S
H266 C280 0.960 . S
H267 C280 0.960 . S
C268 H260 0.929 . S
C268 C269 1.377 . S
C268 C270 1.384 . S
C269 C268 1.377 . S
C269 C275 1.390 . S
C270 H261 0.930 . S
C270 C268 1.384 . S
C270 C271 1.372 . S
C271 C270 1.372 . S
C271 C272 1.400 . S
C271 C276 1.490 . S
C272 H262 0.930 . S
C272 C271 1.400 . S
C272 C275 1.386 . S
H273 C289 0.930 . S
H274 C290 0.931 . S
C275 H263 0.929 . S
C275 C269 1.390 . S
C275 C272 1.386 . S
C276 C271 1.490 . S
C276 C278 1.395 . S
C276 C279 1.403 . S
H277 C283 0.930 . S
C278 H264 0.930 . S
C278 C276 1.395 . S
C278 C281 1.403 1_655 S
C279 C276 1.403 . S
C279 C280 1.524 . S
C279 C283 1.400 1_655 S
C280 H265 0.960 . S
C280 H266 0.960 . S
C280 H267 0.960 . S
C280 C279 1.524 . S
C281 C278 1.403 1_455 S
C281 C282 1.392 . S
C281 C285 1.495 . S
C282 C281 1.392 . S
C282 C283 1.385 . S
C282 C284 1.478 . S
C283 H277 0.930 . S
C283 C279 1.400 1_455 S
C283 C282 1.385 . S
C284 C282 1.478 . S
C284 C286 1.381 . S
C284 C290 1.383 . S
C285 C281 1.495 . S
C285 H291 0.959 . S
C285 H292 0.961 . S
C285 H293 0.960 . S
C286 C284 1.381 . S
C286 C287 1.394 . S
C286 H294 0.930 . S
C287 C286 1.394 . S
C287 C288 1.383 . S
C287 H295 0.929 . S
C288 C287 1.383 . S
C288 C289 1.377 . S
C289 H273 0.930 . S
C289 C288 1.377 . S
C289 C290 1.379 . S
C290 H274 0.931 . S
C290 C284 1.383 . S
C290 C289 1.379 . S
H291 C285 0.959 . S
H292 C285 0.961 . S
H293 C285 0.960 . S
H294 C286 0.930 . S
H295 C287 0.929 . S
H296 C304 0.929 . S
H297 C306 0.930 . S
H298 C308 0.930 . S
H299 C311 0.929 . S
H300 C314 0.930 . S
H301 C316 0.960 . S
H302 C316 0.960 . S
H303 C316 0.960 . S
C304 H296 0.929 . S
C304 C305 1.377 . S
C304 C306 1.384 . S
C305 C304 1.377 . S
C305 C311 1.390 . S
C306 H297 0.930 . S
C306 C304 1.384 . S
C306 C307 1.372 . S
C307 C306 1.372 . S
C307 C308 1.400 . S
C307 C312 1.490 . S
C308 H298 0.930 . S
C308 C307 1.400 . S
C308 C311 1.386 . S
H309 C325 0.930 . S
H310 C326 0.931 . S
C311 H299 0.929 . S
C311 C305 1.390 . S
C311 C308 1.386 . S
C312 C307 1.490 . S
C312 C314 1.395 . S
C312 C315 1.403 . S
H313 C319 0.930 . S
C314 H300 0.930 . S
C314 C312 1.395 . S
C314 C317 1.403 . S
C315 C312 1.403 . S
C315 C316 1.524 . S
C315 C319 1.400 . S
C316 H301 0.960 . S
C316 H302 0.960 . S
C316 H303 0.960 . S
C316 C315 1.524 . S
C317 C314 1.403 . S
C317 C318 1.392 . S
C317 C321 1.495 . S
C318 C317 1.392 . S
C318 C319 1.385 . S
C318 C320 1.478 . S
C319 H313 0.930 . S
C319 C315 1.400 . S
C319 C318 1.385 . S
C320 C318 1.478 . S
C320 C322 1.381 . S
C320 C326 1.383 . S
C321 C317 1.495 . S
C321 H327 0.959 . S
C321 H328 0.961 . S
C321 H329 0.960 . S
C322 C320 1.381 . S
C322 C323 1.394 . S
C322 H330 0.930 . S
C323 C322 1.394 . S
C323 C324 1.383 . S
C323 H331 0.929 . S
C324 C323 1.383 . S
C324 C325 1.377 . S
C325 H309 0.930 . S
C325 C324 1.377 . S
C325 C326 1.379 . S
C326 H310 0.931 . S
C326 C320 1.383 . S
C326 C325 1.379 . S
H327 C321 0.959 . S
H328 C321 0.961 . S
H329 C321 0.960 . S
H330 C322 0.930 . S
H331 C323 0.929 . S
H332 C340 0.929 . S
H333 C342 0.930 . S
H334 C344 0.930 . S
H335 C347 0.929 . S
H336 C350 0.930 . S
H337 C352 0.960 . S
H338 C352 0.960 . S
H339 C352 0.960 . S
C340 H332 0.929 . S
C340 C341 1.377 . S
C340 C342 1.384 . S
C341 C340 1.377 . S
C341 C347 1.390 . S
C342 H333 0.930 . S
C342 C340 1.384 . S
C342 C343 1.372 . S
C343 C342 1.372 . S
C343 C344 1.400 . S
C343 C348 1.490 . S
C344 H334 0.930 . S
C344 C343 1.400 . S
C344 C347 1.386 . S
H345 C361 0.930 . S
H346 C362 0.931 . S
C347 H335 0.929 . S
C347 C341 1.390 . S
C347 C344 1.386 . S
C348 C343 1.490 . S
C348 C350 1.395 . S
C348 C351 1.403 . S
H349 C355 0.930 . S
C350 H336 0.930 . S
C350 C348 1.395 . S
C350 C353 1.403 . S
C351 C348 1.403 . S
C351 C352 1.524 . S
C351 C355 1.400 . S
C352 H337 0.960 . S
C352 H338 0.960 . S
C352 H339 0.960 . S
C352 C351 1.524 . S
C353 C350 1.403 . S
C353 C354 1.392 . S
C353 C357 1.495 . S
C354 C353 1.392 . S
C354 C355 1.385 . S
C354 C356 1.478 . S
C355 H349 0.930 . S
C355 C351 1.400 . S
C355 C354 1.385 . S
C356 C354 1.478 . S
C356 C358 1.381 . S
C356 C362 1.383 . S
C357 C353 1.495 . S
C357 H363 0.959 . S
C357 H364 0.961 . S
C357 H365 0.960 . S
C358 C356 1.381 . S
C358 C359 1.394 . S
C358 H366 0.930 . S
C359 C358 1.394 . S
C359 C360 1.383 . S
C359 H367 0.929 . S
C360 C359 1.383 . S
C360 C361 1.377 . S
C361 H345 0.930 . S
C361 C360 1.377 . S
C361 C362 1.379 . S
C362 H346 0.931 . S
C362 C356 1.383 . S
C362 C361 1.379 . S
H363 C357 0.959 . S
H364 C357 0.961 . S
H365 C357 0.960 . S
H366 C358 0.930 . S
H367 C359 0.929 . S
H368 C376 0.929 . S
H369 C378 0.930 . S
H370 C380 0.930 . S
H371 C383 0.929 . S
H372 C386 0.930 . S
H373 C388 0.960 . S
H374 C388 0.960 . S
H375 C388 0.960 . S
C376 H368 0.929 . S
C376 C377 1.377 . S
C376 C378 1.384 . S
C377 C376 1.377 . S
C377 C383 1.390 1_455 S
C378 H369 0.930 . S
C378 C376 1.384 . S
C378 C379 1.372 . S
C379 C378 1.372 . S
C379 C380 1.400 1_455 S
C379 C384 1.490 . S
C380 H370 0.930 . S
C380 C379 1.400 1_655 S
C380 C383 1.386 . S
H381 C397 0.930 . S
H382 C398 0.931 . S
C383 H371 0.929 . S
C383 C377 1.390 1_655 S
C383 C380 1.386 . S
C384 C379 1.490 . S
C384 C386 1.395 . S
C384 C387 1.403 1_455 S
H385 C391 0.930 . S
C386 H372 0.930 . S
C386 C384 1.395 . S
C386 C389 1.403 . S
C387 C384 1.403 1_655 S
C387 C388 1.524 . S
C387 C391 1.400 . S
C388 H373 0.960 . S
C388 H374 0.960 . S
C388 H375 0.960 . S
C388 C387 1.524 . S
C389 C386 1.403 . S
C389 C390 1.392 . S
C389 C393 1.495 . S
C390 C389 1.392 . S
C390 C391 1.385 1_455 S
C390 C392 1.478 . S
C391 H385 0.930 . S
C391 C387 1.400 . S
C391 C390 1.385 1_655 S
C392 C390 1.478 . S
C392 C394 1.381 . S
C392 C398 1.383 1_455 S
C393 C389 1.495 . S
C393 H399 0.959 . S
C393 H400 0.961 . S
C393 H401 0.960 . S
C394 C392 1.381 . S
C394 C395 1.394 . S
C394 H402 0.930 . S
C395 C394 1.394 . S
C395 C396 1.383 1_455 S
C395 H403 0.929 . S
C396 C395 1.383 1_655 S
C396 C397 1.377 . S
C397 H381 0.930 . S
C397 C396 1.377 . S
C397 C398 1.379 . S
C398 H382 0.931 . S
C398 C392 1.383 1_655 S
C398 C397 1.379 . S
H399 C393 0.959 . S
H400 C393 0.961 . S
H401 C393 0.960 . S
H402 C394 0.930 . S
H403 C395 0.929 . S
H404 C412 0.929 . S
H405 C414 0.930 . S
H406 C416 0.930 . S
H407 C419 0.929 . S
H408 C422 0.930 . S
H409 C424 0.960 . S
H410 C424 0.960 . S
H411 C424 0.960 . S
C412 H404 0.929 . S
C412 C413 1.377 . S
C412 C414 1.384 . S
C413 C412 1.377 . S
C413 C419 1.390 . S
C414 H405 0.930 . S
C414 C412 1.384 . S
C414 C415 1.372 . S
C415 C414 1.372 . S
C415 C416 1.400 . S
C415 C420 1.490 . S
C416 H406 0.930 . S
C416 C415 1.400 . S
C416 C419 1.386 . S
H417 C433 0.930 . S
H418 C434 0.931 . S
C419 H407 0.929 . S
C419 C413 1.390 . S
C419 C416 1.386 . S
C420 C415 1.490 . S
C420 C422 1.395 . S
C420 C423 1.403 . S
H421 C427 0.930 . S
C422 H408 0.930 . S
C422 C420 1.395 . S
C422 C425 1.403 . S
C423 C420 1.403 . S
C423 C424 1.524 . S
C423 C427 1.400 . S
C424 H409 0.960 . S
C424 H410 0.960 . S
C424 H411 0.960 . S
C424 C423 1.524 . S
C425 C422 1.403 . S
C425 C426 1.392 . S
C425 C429 1.495 . S
C426 C425 1.392 . S
C426 C427 1.385 . S
C426 C428 1.478 . S
C427 H421 0.930 . S
C427 C423 1.400 . S
C427 C426 1.385 . S
C428 C426 1.478 . S
C428 C430 1.381 . S
C428 C434 1.383 . S
C429 C425 1.495 . S
C429 H435 0.959 . S
C429 H436 0.961 . S
C429 H437 0.960 . S
C430 C428 1.381 . S
C430 C431 1.394 . S
C430 H438 0.930 . S
C431 C430 1.394 . S
C431 C432 1.383 . S
C431 H439 0.929 . S
C432 C431 1.383 . S
C432 C433 1.377 . S
C433 H417 0.930 . S
C433 C432 1.377 . S
C433 C434 1.379 . S
C434 H418 0.931 . S
C434 C428 1.383 . S
C434 C433 1.379 . S
H435 C429 0.959 . S
H436 C429 0.961 . S
H437 C429 0.960 . S
H438 C430 0.930 . S
H439 C431 0.929 . S
H440 C448 0.929 . S
H441 C450 0.930 . S
H442 C452 0.930 . S
H443 C455 0.929 . S
H444 C458 0.930 . S
H445 C460 0.960 . S
H446 C460 0.960 . S
H447 C460 0.960 . S
C448 H440 0.929 . S
C448 C449 1.377 . S
C448 C450 1.384 . S
C449 C448 1.377 . S
C449 C455 1.390 . S
C450 H441 0.930 . S
C450 C448 1.384 . S
C450 C451 1.372 . S
C451 C450 1.372 . S
C451 C452 1.400 . S
C451 C456 1.490 . S
C452 H442 0.930 . S
C452 C451 1.400 . S
C452 C455 1.386 . S
H453 C469 0.930 . S
H454 C470 0.931 . S
C455 H443 0.929 . S
C455 C449 1.390 . S
C455 C452 1.386 . S
C456 C451 1.490 . S
C456 C458 1.395 . S
C456 C459 1.403 . S
H457 C463 0.930 . S
C458 H444 0.930 . S
C458 C456 1.395 . S
C458 C461 1.403 . S
C459 C456 1.403 . S
C459 C460 1.524 . S
C459 C463 1.400 . S
C460 H445 0.960 . S
C460 H446 0.960 . S
C460 H447 0.960 . S
C460 C459 1.524 . S
C461 C458 1.403 . S
C461 C462 1.392 . S
C461 C465 1.495 . S
C462 C461 1.392 . S
C462 C463 1.385 . S
C462 C464 1.478 . S
C463 H457 0.930 . S
C463 C459 1.400 . S
C463 C462 1.385 . S
C464 C462 1.478 . S
C464 C466 1.381 . S
C464 C470 1.383 . S
C465 C461 1.495 . S
C465 H471 0.959 . S
C465 H472 0.961 . S
C465 H473 0.960 . S
C466 C464 1.381 . S
C466 C467 1.394 . S
C466 H474 0.930 . S
C467 C466 1.394 . S
C467 C468 1.383 . S
C467 H475 0.929 . S
C468 C467 1.383 . S
C468 C469 1.377 . S
C469 H453 0.930 . S
C469 C468 1.377 . S
C469 C470 1.379 . S
C470 H454 0.931 . S
C470 C464 1.383 . S
C470 C469 1.379 . S
H471 C465 0.959 . S
H472 C465 0.961 . S
H473 C465 0.960 . S
H474 C466 0.930 . S
H475 C467 0.929 . S
H476 C484 0.929 . S
H477 C486 0.930 . S
H478 C488 0.930 . S
H479 C491 0.929 . S
H480 C494 0.930 . S
H481 C496 0.960 . S
H482 C496 0.960 . S
H483 C496 0.960 . S
C484 H476 0.929 . S
C484 C485 1.377 . S
C484 C486 1.384 . S
C485 C484 1.377 . S
C485 C491 1.390 . S
C486 H477 0.930 . S
C486 C484 1.384 . S
C486 C487 1.372 . S
C487 C486 1.372 . S
C487 C488 1.400 . S
C487 C492 1.490 . S
C488 H478 0.930 . S
C488 C487 1.400 . S
C488 C491 1.386 . S
H489 C505 0.930 . S
H490 C506 0.931 . S
C491 H479 0.929 . S
C491 C485 1.390 . S
C491 C488 1.386 . S
C492 C487 1.490 . S
C492 C494 1.395 . S
C492 C495 1.403 . S
H493 C499 0.930 . S
C494 H480 0.930 . S
C494 C492 1.395 . S
C494 C497 1.403 1_455 S
C495 C492 1.403 . S
C495 C496 1.524 . S
C495 C499 1.400 1_455 S
C496 H481 0.960 . S
C496 H482 0.960 . S
C496 H483 0.960 . S
C496 C495 1.524 . S
C497 C494 1.403 1_655 S
C497 C498 1.392 . S
C497 C501 1.495 . S
C498 C497 1.392 . S
C498 C499 1.385 . S
C498 C500 1.478 . S
C499 H493 0.930 . S
C499 C495 1.400 1_655 S
C499 C498 1.385 . S
C500 C498 1.478 . S
C500 C502 1.381 . S
C500 C506 1.383 . S
C501 C497 1.495 . S
C501 H507 0.959 . S
C501 H508 0.961 . S
C501 H509 0.960 . S
C502 C500 1.381 . S
C502 C503 1.394 . S
C502 H510 0.930 . S
C503 C502 1.394 . S
C503 C504 1.383 . S
C503 H511 0.929 . S
C504 C503 1.383 . S
C504 C505 1.377 . S
C505 H489 0.930 . S
C505 C504 1.377 . S
C505 C506 1.379 . S
C506 H490 0.931 . S
C506 C500 1.383 . S
C506 C505 1.379 . S
H507 C501 0.959 . S
H508 C501 0.961 . S
H509 C501 0.960 . S
H510 C502 0.930 . S
H511 C503 0.929 . S
H512 C520 0.917 1_545 S
H513 C522 0.930 . S
H514 C524 0.930 . S
H515 C527 0.929 . S
H516 C530 0.930 . S
H517 C532 0.960 . S
H518 C532 0.960 . S
H519 C532 0.960 . S
C520 H512 0.917 1_565 S
C520 C521 1.395 . S
C520 C522 1.379 1_565 S
C521 C520 1.395 . S
C521 C527 1.390 1_655 S
C522 H513 0.930 . S
C522 C520 1.379 1_545 S
C522 C523 1.372 1_545 S
C523 C522 1.372 1_565 S
C523 C524 1.400 1_655 S
C523 C528 1.490 . S
C524 H514 0.930 . S
C524 C523 1.400 1_455 S
C524 C527 1.386 . S
H525 C541 0.930 . S
H526 C542 0.931 . S
C527 H515 0.929 . S
C527 C521 1.390 1_455 S
C527 C524 1.386 . S
C528 C523 1.490 . S
C528 C530 1.395 . S
C528 C531 1.403 1_665 S
H529 C535 0.930 . S
C530 H516 0.930 . S
C530 C528 1.395 . S
C530 C533 1.403 . S
C531 C528 1.403 1_445 S
C531 C532 1.524 . S
C531 C535 1.400 . S
C532 H517 0.960 . S
C532 H518 0.960 . S
C532 H519 0.960 . S
C532 C531 1.524 . S
C533 C530 1.403 . S
C533 C534 1.392 1_565 S
C533 C537 1.495 . S
C534 C533 1.392 1_545 S
C534 C535 1.385 1_655 S
C534 C536 1.478 . S
C535 H529 0.930 . S
C535 C531 1.400 . S
C535 C534 1.385 1_455 S
C536 C534 1.478 . S
C536 C538 1.381 . S
C536 C542 1.383 1_645 S
C537 C533 1.495 . S
C537 H543 0.959 . S
C537 H544 0.961 . S
C537 H545 0.960 . S
C538 C536 1.381 . S
C538 C539 1.394 . S
C538 H546 0.930 . S
C539 C538 1.394 . S
C539 C540 1.383 . S
C539 H547 0.929 . S
C540 C539 1.383 . S
C540 C541 1.377 1_645 S
C541 H525 0.930 . S
C541 C540 1.377 1_465 S
C541 C542 1.379 . S
C542 H526 0.931 . S
C542 C536 1.383 1_465 S
C542 C541 1.379 . S
H543 C537 0.959 . S
H544 C537 0.961 . S
H545 C537 0.960 . S
H546 C538 0.930 . S
H547 C539 0.929 . S
H548 C556 0.929 . S
H549 C558 0.930 . S
H550 C560 0.930 . S
H551 C563 0.929 . S
H552 C566 0.930 . S
H553 C568 0.960 . S
H554 C568 0.960 . S
H555 C568 0.960 . S
C556 H548 0.929 . S
C556 C557 1.377 . S
C556 C558 1.384 . S
C557 C556 1.377 . S
C557 C563 1.390 . S
C558 H549 0.930 . S
C558 C556 1.384 . S
C558 C559 1.372 . S
C559 C558 1.372 . S
C559 C560 1.400 . S
C559 C564 1.490 . S
C560 H550 0.930 . S
C560 C559 1.400 . S
C560 C563 1.386 . S
H561 C577 0.930 . S
H562 C578 0.931 . S
C563 H551 0.929 . S
C563 C557 1.390 . S
C563 C560 1.386 . S
C564 C559 1.490 . S
C564 C566 1.395 . S
C564 C567 1.403 . S
H565 C571 0.930 . S
C566 H552 0.930 . S
C566 C564 1.395 . S
C566 C569 1.403 . S
C567 C564 1.403 . S
C567 C568 1.524 . S
C567 C571 1.400 . S
C568 H553 0.960 . S
C568 H554 0.960 . S
C568 H555 0.960 . S
C568 C567 1.524 . S
C569 C566 1.403 . S
C569 C570 1.392 . S
C569 C573 1.495 . S
C570 C569 1.392 . S
C570 C571 1.385 . S
C570 C572 1.478 . S
C571 H565 0.930 . S
C571 C567 1.400 . S
C571 C570 1.385 . S
C572 C570 1.478 . S
C572 C574 1.381 . S
C572 C578 1.383 . S
C573 C569 1.495 . S
C573 H579 0.959 . S
C573 H580 0.961 . S
C573 H581 0.960 . S
C574 C572 1.381 . S
C574 C575 1.394 . S
C574 H582 0.930 . S
C575 C574 1.394 . S
C575 C576 1.383 . S
C575 H583 0.929 . S
C576 C575 1.383 . S
C576 C577 1.377 . S
C577 H561 0.930 . S
C577 C576 1.377 . S
C577 C578 1.379 . S
C578 H562 0.931 . S
C578 C572 1.383 . S
C578 C577 1.379 . S
H579 C573 0.959 . S
H580 C573 0.961 . S
H581 C573 0.960 . S
H582 C574 0.930 . S
H583 C575 0.929 . S
H584 C592 0.929 . S
H585 C594 0.930 . S
H586 C596 0.930 1_545 S
H587 C599 0.929 . S
H588 C602 0.930 . S
H589 C604 0.960 . S
H590 C604 0.960 . S
H591 C604 0.960 . S
C592 H584 0.929 . S
C592 C593 1.377 . S
C592 C594 1.384 . S
C593 C592 1.377 . S
C593 C599 1.390 . S
C594 H585 0.930 . S
C594 C592 1.384 . S
C594 C595 1.372 . S
C595 C594 1.372 . S
C595 C596 1.400 . S
C595 C600 1.490 . S
C596 H586 0.930 1_565 S
C596 C595 1.400 . S
C596 C599 1.386 . S
H597 C613 0.930 . S
H598 C614 0.931 . S
C599 H587 0.929 . S
C599 C593 1.390 . S
C599 C596 1.386 . S
C600 C595 1.490 . S
C600 C602 1.395 1_565 S
C600 C603 1.403 . S
H601 C607 0.930 . S
C602 H588 0.930 . S
C602 C600 1.395 1_545 S
C602 C605 1.403 1_554 S
C603 C600 1.403 . S
C603 C604 1.524 . S
C603 C607 1.400 1_554 S
C604 H589 0.960 . S
C604 H590 0.960 . S
C604 H591 0.960 . S
C604 C603 1.524 . S
C605 C602 1.403 1_556 S
C605 C606 1.392 . S
C605 C609 1.495 . S
C606 C605 1.392 . S
C606 C607 1.385 1_545 S
C606 C608 1.478 . S
C607 H601 0.930 . S
C607 C603 1.400 1_556 S
C607 C606 1.385 1_565 S
C608 C606 1.478 . S
C608 C610 1.381 . S
C608 C614 1.383 . S
C609 C605 1.495 . S
C609 H615 0.959 . S
C609 H616 0.961 . S
C609 H617 0.960 . S
C610 C608 1.381 . S
C610 C611 1.394 . S
C610 H618 0.930 1_545 S
C611 C610 1.394 . S
C611 C612 1.383 . S
C611 H619 0.929 . S
C612 C611 1.383 . S
C612 C613 1.377 . S
C613 H597 0.930 . S
C613 C612 1.377 . S
C613 C614 1.379 . S
C614 H598 0.931 . S
C614 C608 1.383 . S
C614 C613 1.379 . S
H615 C609 0.959 . S
H616 C609 0.961 . S
H617 C609 0.960 . S
H618 C610 0.930 1_565 S
H619 C611 0.929 . S
H620 C628 0.929 . S
H621 C630 0.930 . S
H622 C632 0.930 . S
H623 C635 0.929 . S
H624 C638 0.930 . S
H625 C640 0.960 . S
H626 C640 0.960 . S
H627 C640 0.960 . S
C628 H620 0.929 . S
C628 C629 1.377 . S
C628 C630 1.384 . S
C629 C628 1.377 . S
C629 C635 1.390 . S
C630 H621 0.930 . S
C630 C628 1.384 . S
C630 C631 1.372 . S
C631 C630 1.372 . S
C631 C632 1.400 . S
C631 C636 1.490 . S
C632 H622 0.930 . S
C632 C631 1.400 . S
C632 C635 1.386 . S
H633 C649 0.930 . S
H634 C650 0.931 . S
C635 H623 0.929 . S
C635 C629 1.390 . S
C635 C632 1.386 . S
C636 C631 1.490 . S
C636 C638 1.395 . S
C636 C639 1.403 . S
H637 C643 0.930 . S
C638 H624 0.930 . S
C638 C636 1.395 . S
C638 C641 1.403 . S
C639 C636 1.403 . S
C639 C640 1.524 . S
C639 C643 1.400 . S
C640 H625 0.960 . S
C640 H626 0.960 . S
C640 H627 0.960 . S
C640 C639 1.524 . S
C641 C638 1.403 . S
C641 C642 1.392 . S
C641 C645 1.495 . S
C642 C641 1.392 . S
C642 C643 1.385 . S
C642 C644 1.478 . S
C643 H637 0.930 . S
C643 C639 1.400 . S
C643 C642 1.385 . S
C644 C642 1.478 . S
C644 C646 1.381 . S
C644 C650 1.383 . S
C645 C641 1.495 . S
C645 H651 0.959 . S
C645 H652 0.961 . S
C645 H653 0.960 . S
C646 C644 1.381 . S
C646 C647 1.394 . S
C646 H654 0.930 . S
C647 C646 1.394 . S
C647 C648 1.383 . S
C647 H655 0.929 . S
C648 C647 1.383 . S
C648 C649 1.377 . S
C649 H633 0.930 . S
C649 C648 1.377 . S
C649 C650 1.379 . S
C650 H634 0.931 . S
C650 C644 1.383 . S
C650 C649 1.379 . S
H651 C645 0.959 . S
H652 C645 0.961 . S
H653 C645 0.960 . S
H654 C646 0.930 . S
H655 C647 0.929 . S
H656 C664 0.929 . S
H657 C666 0.930 . S
H658 C668 0.930 . S
H659 C671 0.929 . S
H660 C674 0.930 . S
H661 C676 0.960 . S
H662 C676 0.960 . S
H663 C676 0.960 . S
C664 H656 0.929 . S
C664 C665 1.377 . S
C664 C666 1.384 . S
C665 C664 1.377 . S
C665 C671 1.390 . S
C666 H657 0.930 . S
C666 C664 1.384 . S
C666 C667 1.372 . S
C667 C666 1.372 . S
C667 C668 1.400 . S
C667 C672 1.490 . S
C668 H658 0.930 . S
C668 C667 1.400 . S
C668 C671 1.386 . S
H669 C685 0.930 . S
H670 C686 0.931 . S
C671 H659 0.929 . S
C671 C665 1.390 . S
C671 C668 1.386 . S
C672 C667 1.490 . S
C672 C674 1.395 . S
C672 C675 1.403 . S
H673 C679 0.930 . S
C674 H660 0.930 . S
C674 C672 1.395 . S
C674 C677 1.403 . S
C675 C672 1.403 . S
C675 C676 1.524 . S
C675 C679 1.400 . S
C676 H661 0.960 . S
C676 H662 0.960 . S
C676 H663 0.960 . S
C676 C675 1.524 . S
C677 C674 1.403 . S
C677 C678 1.392 . S
C677 C681 1.495 . S
C678 C677 1.392 . S
C678 C679 1.385 . S
C678 C680 1.478 . S
C679 H673 0.930 . S
C679 C675 1.400 . S
C679 C678 1.385 . S
C680 C678 1.478 . S
C680 C682 1.381 . S
C680 C686 1.383 . S
C681 C677 1.495 . S
C681 H687 0.959 . S
C681 H688 0.961 . S
C681 H689 0.960 . S
C682 C680 1.381 . S
C682 C683 1.394 . S
C682 H690 0.930 . S
C683 C682 1.394 . S
C683 C684 1.383 . S
C683 H691 0.929 . S
C684 C683 1.383 . S
C684 C685 1.377 . S
C685 H669 0.930 . S
C685 C684 1.377 . S
C685 C686 1.379 . S
C686 H670 0.931 . S
C686 C680 1.383 . S
C686 C685 1.379 . S
H687 C681 0.959 . S
H688 C681 0.961 . S
H689 C681 0.960 . S
H690 C682 0.930 . S
H691 C683 0.929 . S
H692 C700 0.929 . S
H693 C702 0.930 . S
H694 C704 0.930 . S
H695 C707 0.929 . S
H696 C710 0.930 . S
H697 C712 0.960 . S
H698 C712 0.960 . S
H699 C712 0.960 . S
C700 H692 0.929 . S
C700 C701 1.377 . S
C700 C702 1.384 . S
C701 C700 1.377 . S
C701 C707 1.390 . S
C702 H693 0.930 . S
C702 C700 1.384 . S
C702 C703 1.372 . S
C703 C702 1.372 . S
C703 C704 1.400 . S
C703 C708 1.490 . S
C704 H694 0.930 . S
C704 C703 1.400 . S
C704 C707 1.386 . S
H705 C721 0.930 . S
H706 C722 0.931 . S
C707 H695 0.929 . S
C707 C701 1.390 . S
C707 C704 1.386 . S
C708 C703 1.490 . S
C708 C710 1.395 . S
C708 C711 1.403 . S
H709 C715 0.930 . S
C710 H696 0.930 . S
C710 C708 1.395 . S
C710 C713 1.403 . S
C711 C708 1.403 . S
C711 C712 1.524 . S
C711 C715 1.400 . S
C712 H697 0.960 . S
C712 H698 0.960 . S
C712 H699 0.960 . S
C712 C711 1.524 . S
C713 C710 1.403 . S
C713 C714 1.392 . S
C713 C717 1.495 . S
C714 C713 1.392 . S
C714 C715 1.385 . S
C714 C716 1.478 . S
C715 H709 0.930 . S
C715 C711 1.400 . S
C715 C714 1.385 . S
C716 C714 1.478 . S
C716 C718 1.381 . S
C716 C722 1.383 . S
C717 C713 1.495 . S
C717 H723 0.959 . S
C717 H724 0.961 . S
C717 H725 0.960 . S
C718 C716 1.381 . S
C718 C719 1.394 . S
C718 H726 0.930 . S
C719 C718 1.394 . S
C719 C720 1.383 . S
C719 H727 0.929 . S
C720 C719 1.383 . S
C720 C721 1.377 . S
C721 H705 0.930 . S
C721 C720 1.377 . S
C721 C722 1.379 . S
C722 H706 0.931 . S
C722 C716 1.383 . S
C722 C721 1.379 . S
H723 C717 0.959 . S
H724 C717 0.961 . S
H725 C717 0.960 . S
H726 C718 0.930 . S
H727 C719 0.929 . S
H728 C736 0.929 . S
H729 C738 0.930 . S
H730 C740 0.930 . S
H731 C743 0.929 . S
H732 C746 0.930 . S
H733 C748 0.960 . S
H734 C748 0.960 . S
H735 C748 0.960 . S
C736 H728 0.929 . S
C736 C737 1.377 . S
C736 C738 1.384 . S
C737 C736 1.377 . S
C737 C743 1.390 . S
C738 H729 0.930 . S
C738 C736 1.384 . S
C738 C739 1.372 . S
C739 C738 1.372 . S
C739 C740 1.400 . S
C739 C744 1.490 . S
C740 H730 0.930 . S
C740 C739 1.400 . S
C740 C743 1.386 . S
H741 C757 0.930 . S
H742 C758 0.931 . S
C743 H731 0.929 . S
C743 C737 1.390 . S
C743 C740 1.386 . S
C744 C739 1.490 . S
C744 C746 1.395 . S
C744 C747 1.403 . S
H745 C751 0.930 . S
C746 H732 0.930 . S
C746 C744 1.395 . S
C746 C749 1.403 1_556 S
C747 C744 1.403 . S
C747 C748 1.524 . S
C747 C751 1.400 1_556 S
C748 H733 0.960 . S
C748 H734 0.960 . S
C748 H735 0.960 . S
C748 C747 1.524 . S
C749 C746 1.403 1_554 S
C749 C750 1.392 . S
C749 C753 1.495 . S
C750 C749 1.392 . S
C750 C751 1.385 . S
C750 C752 1.478 . S
C751 H745 0.930 . S
C751 C747 1.400 1_554 S
C751 C750 1.385 . S
C752 C750 1.478 . S
C752 C754 1.381 . S
C752 C758 1.383 . S
C753 C749 1.495 . S
C753 H759 0.959 . S
C753 H760 0.961 . S
C753 H761 0.960 . S
C754 C752 1.381 . S
C754 C755 1.394 . S
C754 H762 0.930 . S
C755 C754 1.394 . S
C755 C756 1.383 . S
C755 H763 0.929 . S
C756 C755 1.383 . S
C756 C757 1.377 . S
C757 H741 0.930 . S
C757 C756 1.377 . S
C757 C758 1.379 . S
C758 H742 0.931 . S
C758 C752 1.383 . S
C758 C757 1.379 . S
H759 C753 0.959 . S
H760 C753 0.961 . S
H761 C753 0.960 . S
H762 C754 0.930 . S
H763 C755 0.929 . S
H764 C772 0.929 . S
H765 C774 0.930 . S
H766 C776 0.930 . S
H767 C779 0.929 . S
H768 C782 0.930 . S
H769 C784 0.960 . S
H770 C784 0.960 . S
H771 C784 0.960 . S
C772 H764 0.929 . S
C772 C773 1.377 . S
C772 C774 1.384 . S
C773 C772 1.377 . S
C773 C779 1.390 . S
C774 H765 0.930 . S
C774 C772 1.384 . S
C774 C775 1.372 . S
C775 C774 1.372 . S
C775 C776 1.400 . S
C775 C780 1.490 . S
C776 H766 0.930 . S
C776 C775 1.400 . S
C776 C779 1.386 . S
H777 C793 0.930 . S
H778 C794 0.931 . S
C779 H767 0.929 . S
C779 C773 1.390 . S
C779 C776 1.386 . S
C780 C775 1.490 . S
C780 C782 1.395 . S
C780 C783 1.403 1_455 S
H781 C787 0.930 . S
C782 H768 0.930 . S
C782 C780 1.395 . S
C782 C785 1.403 . S
C783 C780 1.403 1_655 S
C783 C784 1.524 . S
C783 C787 1.400 . S
C784 H769 0.960 . S
C784 H770 0.960 . S
C784 H771 0.960 . S
C784 C783 1.524 . S
C785 C782 1.403 . S
C785 C786 1.392 . S
C785 C789 1.495 . S
C786 C785 1.392 . S
C786 C787 1.385 1_455 S
C786 C788 1.478 . S
C787 H781 0.930 . S
C787 C783 1.400 . S
C787 C786 1.385 1_655 S
C788 C786 1.478 . S
C788 C790 1.381 . S
C788 C794 1.383 . S
C789 C785 1.495 . S
C789 H795 0.959 . S
C789 H796 0.961 . S
C789 H797 0.960 . S
C790 C788 1.381 . S
C790 C791 1.394 . S
C790 H798 0.930 . S
C791 C790 1.394 . S
C791 C792 1.383 . S
C791 H799 0.929 . S
C792 C791 1.383 . S
C792 C793 1.377 . S
C793 H777 0.930 . S
C793 C792 1.377 . S
C793 C794 1.379 . S
C794 H778 0.931 . S
C794 C788 1.383 . S
C794 C793 1.379 . S
H795 C789 0.959 . S
H796 C789 0.961 . S
H797 C789 0.960 . S
H798 C790 0.930 . S
H799 C791 0.929 . S
H800 C808 0.929 . S
H801 C810 0.930 . S
H802 C812 0.930 . S
H803 C815 0.929 . S
H804 C818 0.930 . S
H805 C820 0.960 . S
H806 C820 0.960 . S
H807 C820 0.960 . S
C808 H800 0.929 . S
C808 C809 1.377 . S
C808 C810 1.384 . S
C809 C808 1.377 . S
C809 C815 1.390 . S
C810 H801 0.930 . S
C810 C808 1.384 . S
C810 C811 1.372 . S
C811 C810 1.372 . S
C811 C812 1.400 . S
C811 C816 1.490 . S
C812 H802 0.930 . S
C812 C811 1.400 . S
C812 C815 1.386 . S
H813 C829 0.930 1_545 S
H814 C830 0.931 . S
C815 H803 0.929 . S
C815 C809 1.390 . S
C815 C812 1.386 . S
C816 C811 1.490 . S
C816 C818 1.395 . S
C816 C819 1.403 . S
H817 C823 0.930 . S
C818 H804 0.930 . S
C818 C816 1.395 . S
C818 C821 1.403 . S
C819 C816 1.403 . S
C819 C820 1.524 . S
C819 C823 1.400 . S
C820 H805 0.960 . S
C820 H806 0.960 . S
C820 H807 0.960 . S
C820 C819 1.524 . S
C821 C818 1.403 . S
C821 C822 1.392 . S
C821 C825 1.495 . S
C822 C821 1.392 . S
C822 C823 1.385 . S
C822 C824 1.478 . S
C823 H817 0.930 . S
C823 C819 1.400 . S
C823 C822 1.385 . S
C824 C822 1.478 . S
C824 C826 1.381 . S
C824 C830 1.383 . S
C825 C821 1.495 . S
C825 H831 0.959 . S
C825 H832 0.961 . S
C825 H833 0.960 . S
C826 C824 1.381 . S
C826 C827 1.394 . S
C826 H834 0.930 . S
C827 C826 1.394 . S
C827 C828 1.383 . S
C827 H835 0.929 . S
C828 C827 1.383 . S
C828 C829 1.377 . S
C829 H813 0.930 1_565 S
C829 C828 1.377 . S
C829 C830 1.379 . S
C830 H814 0.931 . S
C830 C824 1.383 . S
C830 C829 1.379 . S
H831 C825 0.959 . S
H832 C825 0.961 . S
H833 C825 0.960 . S
H834 C826 0.930 . S
H835 C827 0.929 . S
H836 C844 0.929 . S
H837 C846 0.930 . S
H838 C848 0.930 . S
H839 C851 0.929 . S
H840 C854 0.930 . S
H841 C856 0.960 . S
H842 C856 0.960 . S
H843 C856 0.960 . S
C844 H836 0.929 . S
C844 C845 1.377 . S
C844 C846 1.384 . S
C845 C844 1.377 . S
C845 C851 1.390 . S
C846 H837 0.930 . S
C846 C844 1.384 . S
C846 C847 1.372 . S
C847 C846 1.372 . S
C847 C848 1.400 . S
C847 C852 1.490 . S
C848 H838 0.930 . S
C848 C847 1.400 . S
C848 C851 1.386 . S
H849 C865 0.930 . S
H850 C866 0.931 . S
C851 H839 0.929 . S
C851 C845 1.390 . S
C851 C848 1.386 . S
C852 C847 1.490 . S
C852 C854 1.395 . S
C852 C855 1.403 . S
H853 C859 0.930 . S
C854 H840 0.930 . S
C854 C852 1.395 . S
C854 C857 1.403 . S
C855 C852 1.403 . S
C855 C856 1.524 . S
C855 C859 1.400 . S
C856 H841 0.960 . S
C856 H842 0.960 . S
C856 H843 0.960 . S
C856 C855 1.524 . S
C857 C854 1.403 . S
C857 C858 1.392 . S
C857 C861 1.495 . S
C858 C857 1.392 . S
C858 C859 1.385 . S
C858 C860 1.478 . S
C859 H853 0.930 . S
C859 C855 1.400 . S
C859 C858 1.385 . S
C860 C858 1.478 . S
C860 C862 1.381 . S
C860 C866 1.383 . S
C861 C857 1.495 . S
C861 H867 0.959 . S
C861 H868 0.961 . S
C861 H869 0.960 . S
C862 C860 1.381 . S
C862 C863 1.394 . S
C862 H870 0.930 . S
C863 C862 1.394 . S
C863 C864 1.383 . S
C863 H871 0.929 . S
C864 C863 1.383 . S
C864 C865 1.377 . S
C865 H849 0.930 . S
C865 C864 1.377 . S
C865 C866 1.379 . S
C866 H850 0.931 . S
C866 C860 1.383 . S
C866 C865 1.379 . S
H867 C861 0.959 . S
H868 C861 0.961 . S
H869 C861 0.960 . S
H870 C862 0.930 . S
H871 C863 0.929 . S
H872 C880 0.929 1_565 S
H873 C882 0.930 . S
H874 C884 0.930 . S
H875 C887 0.929 . S
H876 C890 0.930 . S
H877 C892 0.960 . S
H878 C892 0.960 . S
H879 C892 0.960 . S
C880 H872 0.929 1_545 S
C880 C881 1.377 . S
C880 C882 1.384 . S
C881 C880 1.377 . S
C881 C887 1.390 . S
C882 H873 0.930 . S
C882 C880 1.384 . S
C882 C883 1.372 . S
C883 C882 1.372 . S
C883 C884 1.400 . S
C883 C888 1.490 . S
C884 H874 0.930 . S
C884 C883 1.400 . S
C884 C887 1.386 . S
H885 C901 0.930 . S
H886 C902 0.931 . S
C887 H875 0.929 . S
C887 C881 1.390 . S
C887 C884 1.386 . S
C888 C883 1.490 . S
C888 C890 1.395 . S
C888 C891 1.403 . S
H889 C895 0.930 . S
C890 H876 0.930 . S
C890 C888 1.395 . S
C890 C893 1.403 . S
C891 C888 1.403 . S
C891 C892 1.524 . S
C891 C895 1.400 . S
C892 H877 0.960 . S
C892 H878 0.960 . S
C892 H879 0.960 . S
C892 C891 1.524 . S
C893 C890 1.403 . S
C893 C894 1.392 . S
C893 C897 1.495 . S
C894 C893 1.392 . S
C894 C895 1.385 . S
C894 C896 1.478 . S
C895 H889 0.930 . S
C895 C891 1.400 . S
C895 C894 1.385 . S
C896 C894 1.478 . S
C896 C898 1.381 . S
C896 C902 1.383 . S
C897 C893 1.495 . S
C897 H903 0.959 . S
C897 H904 0.961 . S
C897 H905 0.960 . S
C898 C896 1.381 . S
C898 C899 1.394 . S
C898 H906 0.930 . S
C899 C898 1.394 . S
C899 C900 1.383 . S
C899 H907 0.929 . S
C900 C899 1.383 . S
C900 C901 1.377 . S
C901 H885 0.930 . S
C901 C900 1.377 . S
C901 C902 1.379 . S
C902 H886 0.931 . S
C902 C896 1.383 . S
C902 C901 1.379 . S
H903 C897 0.959 . S
H904 C897 0.961 . S
H905 C897 0.960 . S
H906 C898 0.930 . S
H907 C899 0.929 . S
H908 C916 0.929 1_565 S
H909 C918 0.930 . S
H910 C920 0.930 . S
H911 C923 0.929 . S
H912 C926 0.930 . S
H913 C928 0.960 . S
H914 C928 0.960 . S
H915 C928 0.960 . S
C916 H908 0.929 1_545 S
C916 C917 1.377 . S
C916 C918 1.384 . S
C917 C916 1.377 . S
C917 C923 1.390 . S
C918 H909 0.930 . S
C918 C916 1.384 . S
C918 C919 1.372 . S
C919 C918 1.372 . S
C919 C920 1.400 . S
C919 C924 1.490 . S
C920 H910 0.930 . S
C920 C919 1.400 . S
C920 C923 1.386 . S
H921 C937 0.930 . S
H922 C938 0.931 . S
C923 H911 0.929 . S
C923 C917 1.390 . S
C923 C920 1.386 . S
C924 C919 1.490 . S
C924 C926 1.395 . S
C924 C927 1.403 . S
H925 C931 0.930 . S
C926 H912 0.930 . S
C926 C924 1.395 . S
C926 C929 1.403 . S
C927 C924 1.403 . S
C927 C928 1.524 . S
C927 C931 1.400 . S
C928 H913 0.960 . S
C928 H914 0.960 . S
C928 H915 0.960 . S
C928 C927 1.524 . S
C929 C926 1.403 . S
C929 C930 1.392 . S
C929 C933 1.495 . S
C930 C929 1.392 . S
C930 C931 1.385 . S
C930 C932 1.478 . S
C931 H925 0.930 . S
C931 C927 1.400 . S
C931 C930 1.385 . S
C932 C930 1.478 . S
C932 C934 1.381 . S
C932 C938 1.383 . S
C933 C929 1.495 . S
C933 H939 0.959 . S
C933 H940 0.961 . S
C933 H941 0.960 . S
C934 C932 1.381 . S
C934 C935 1.394 . S
C934 H942 0.930 . S
C935 C934 1.394 . S
C935 C936 1.383 . S
C935 H943 0.929 . S
C936 C935 1.383 . S
C936 C937 1.377 . S
C937 H921 0.930 . S
C937 C936 1.377 . S
C937 C938 1.379 . S
C938 H922 0.931 . S
C938 C932 1.383 . S
C938 C937 1.379 . S
H939 C933 0.959 . S
H940 C933 0.961 . S
H941 C933 0.960 . S
H942 C934 0.930 . S
H943 C935 0.929 . S
H944 C952 0.929 . S
H945 C954 0.930 . S
H946 C956 0.930 . S
H947 C959 0.929 1_565 S
H948 C962 0.930 . S
H949 C964 0.960 . S
H950 C964 0.960 . S
H951 C964 0.960 . S
C952 H944 0.929 . S
C952 C953 1.377 . S
C952 C954 1.384 . S
C953 C952 1.377 . S
C953 C959 1.390 . S
C954 H945 0.930 . S
C954 C952 1.384 . S
C954 C955 1.372 . S
C955 C954 1.372 . S
C955 C956 1.400 . S
C955 C960 1.490 . S
C956 H946 0.930 . S
C956 C955 1.400 . S
C956 C959 1.386 . S
H957 C973 0.930 . S
H958 C974 0.931 . S
C959 H947 0.929 1_545 S
C959 C953 1.390 . S
C959 C956 1.386 . S
C960 C955 1.490 . S
C960 C962 1.395 . S
C960 C963 1.403 . S
H961 C967 0.930 . S
C962 H948 0.930 . S
C962 C960 1.395 . S
C962 C965 1.403 . S
C963 C960 1.403 . S
C963 C964 1.524 . S
C963 C967 1.400 . S
C964 H949 0.960 . S
C964 H950 0.960 . S
C964 H951 0.960 . S
C964 C963 1.524 . S
C965 C962 1.403 . S
C965 C966 1.392 . S
C965 C969 1.495 . S
C966 C965 1.392 . S
C966 C967 1.385 . S
C966 C968 1.478 . S
C967 H961 0.930 . S
C967 C963 1.400 . S
C967 C966 1.385 . S
C968 C966 1.478 . S
C968 C970 1.381 . S
C968 C974 1.383 . S
C969 C965 1.495 . S
C969 H975 0.959 . S
C969 H976 0.961 . S
C969 H977 0.960 . S
C970 C968 1.381 . S
C970 C971 1.394 . S
C970 H978 0.930 . S
C971 C970 1.394 . S
C971 C972 1.383 . S
C971 H979 0.929 . S
C972 C971 1.383 . S
C972 C973 1.377 . S
C973 H957 0.930 . S
C973 C972 1.377 . S
C973 C974 1.379 . S
C974 H958 0.931 . S
C974 C968 1.383 . S
C974 C973 1.379 . S
H975 C969 0.959 . S
H976 C969 0.961 . S
H977 C969 0.960 . S
H978 C970 0.930 . S
H979 C971 0.929 . S
H980 C988 0.929 1_565 S
H981 C990 0.930 . S
H982 C992 0.930 . S
H983 C995 0.929 . S
H984 C998 0.930 . S
H985 C1000 0.960 . S
H986 C1000 0.960 . S
H987 C1000 0.960 . S
C988 H980 0.929 1_545 S
C988 C989 1.377 . S
C988 C990 1.384 . S
C989 C988 1.377 . S
C989 C995 1.390 . S
C990 H981 0.930 . S
C990 C988 1.384 . S
C990 C991 1.372 . S
C991 C990 1.372 . S
C991 C992 1.400 . S
C991 C996 1.490 . S
C992 H982 0.930 . S
C992 C991 1.400 . S
C992 C995 1.386 . S
H993 C1009 0.930 . S
H994 C1010 0.931 . S
C995 H983 0.929 . S
C995 C989 1.390 . S
C995 C992 1.386 . S
C996 C991 1.490 . S
C996 C998 1.395 . S
C996 C999 1.403 . S
H997 C1003 0.930 . S
C998 H984 0.930 . S
C998 C996 1.395 . S
C998 C1001 1.403 . S
C999 C996 1.403 . S
C999 C1000 1.524 . S
C999 C1003 1.400 . S
C1000 H985 0.960 . S
C1000 H986 0.960 . S
C1000 H987 0.960 . S
C1000 C999 1.524 . S
C1001 C998 1.403 . S
C1001 C1002 1.392 . S
C1001 C1005 1.495 . S
C1002 C1001 1.392 . S
C1002 C1003 1.385 . S
C1002 C1004 1.478 . S
C1003 H997 0.930 . S
C1003 C999 1.400 . S
C1003 C1002 1.385 . S
C1004 C1002 1.478 . S
C1004 C1006 1.381 . S
C1004 C1010 1.383 . S
C1005 C1001 1.495 . S
C1005 H1011 0.959 . S
C1005 H1012 0.961 . S
C1005 H1013 0.960 . S
C1006 C1004 1.381 . S
C1006 C1007 1.394 . S
C1006 H1014 0.930 . S
C1007 C1006 1.394 . S
C1007 C1008 1.383 . S
C1007 H1015 0.929 . S
C1008 C1007 1.383 . S
C1008 C1009 1.377 . S
C1009 H993 0.930 . S
C1009 C1008 1.377 . S
C1009 C1010 1.379 . S
C1010 H994 0.931 . S
C1010 C1004 1.383 . S
C1010 C1009 1.379 . S
H1011 C1005 0.959 . S
H1012 C1005 0.961 . S
H1013 C1005 0.960 . S
H1014 C1006 0.930 . S
H1015 C1007 0.929 . S
H1016 C1024 0.929 . S
H1017 C1026 0.930 . S
H1018 C1028 0.930 . S
H1019 C1031 0.929 . S
H1020 C1034 0.930 . S
H1021 C1036 0.960 . S
H1022 C1036 0.960 . S
H1023 C1036 0.960 . S
C1024 H1016 0.929 . S
C1024 C1025 1.377 . S
C1024 C1026 1.384 . S
C1025 C1024 1.377 . S
C1025 C1031 1.390 . S
C1026 H1017 0.930 . S
C1026 C1024 1.384 . S
C1026 C1027 1.372 . S
C1027 C1026 1.372 . S
C1027 C1028 1.400 . S
C1027 C1032 1.490 . S
C1028 H1018 0.930 . S
C1028 C1027 1.400 . S
C1028 C1031 1.386 . S
H1029 C1045 0.930 . S
H1030 C1046 0.931 . S
C1031 H1019 0.929 . S
C1031 C1025 1.390 . S
C1031 C1028 1.386 . S
C1032 C1027 1.490 . S
C1032 C1034 1.395 . S
C1032 C1035 1.403 . S
H1033 C1039 0.930 . S
C1034 H1020 0.930 . S
C1034 C1032 1.395 . S
C1034 C1037 1.403 . S
C1035 C1032 1.403 . S
C1035 C1036 1.524 . S
C1035 C1039 1.400 . S
C1036 H1021 0.960 . S
C1036 H1022 0.960 . S
C1036 H1023 0.960 . S
C1036 C1035 1.524 . S
C1037 C1034 1.403 . S
C1037 C1038 1.392 . S
C1037 C1041 1.495 . S
C1038 C1037 1.392 . S
C1038 C1039 1.385 . S
C1038 C1040 1.478 . S
C1039 H1033 0.930 . S
C1039 C1035 1.400 . S
C1039 C1038 1.385 . S
C1040 C1038 1.478 . S
C1040 C1042 1.381 . S
C1040 C1046 1.383 . S
C1041 C1037 1.495 . S
C1041 H1047 0.959 . S
C1041 H1048 0.961 . S
C1041 H1049 0.960 . S
C1042 C1040 1.381 . S
C1042 C1043 1.394 . S
C1042 H1050 0.930 . S
C1043 C1042 1.394 . S
C1043 C1044 1.383 . S
C1043 H1051 0.929 . S
C1044 C1043 1.383 . S
C1044 C1045 1.377 . S
C1045 H1029 0.930 . S
C1045 C1044 1.377 . S
C1045 C1046 1.379 . S
C1046 H1030 0.931 . S
C1046 C1040 1.383 . S
C1046 C1045 1.379 . S
H1047 C1041 0.959 . S
H1048 C1041 0.961 . S
H1049 C1041 0.960 . S
H1050 C1042 0.930 . S
H1051 C1043 0.929 . S
H1052 C1060 0.929 . S
H1053 C1062 0.930 . S
H1054 C1064 0.930 . S
H1055 C1067 0.929 . S
H1056 C1070 0.930 . S
H1057 C1072 0.960 . S
H1058 C1072 0.960 . S
H1059 C1072 0.960 . S
C1060 H1052 0.929 . S
C1060 C1061 1.377 . S
C1060 C1062 1.384 . S
C1061 C1060 1.377 . S
C1061 C1067 1.390 . S
C1062 H1053 0.930 . S
C1062 C1060 1.384 . S
C1062 C1063 1.372 . S
C1063 C1062 1.372 . S
C1063 C1064 1.400 . S
C1063 C1068 1.490 . S
C1064 H1054 0.930 . S
C1064 C1063 1.400 . S
C1064 C1067 1.386 . S
H1065 C1081 0.930 . S
H1066 C1082 0.931 . S
C1067 H1055 0.929 . S
C1067 C1061 1.390 . S
C1067 C1064 1.386 . S
C1068 C1063 1.490 . S
C1068 C1070 1.395 . S
C1068 C1071 1.403 . S
H1069 C1075 0.930 . S
C1070 H1056 0.930 . S
C1070 C1068 1.395 . S
C1070 C1073 1.403 . S
C1071 C1068 1.403 . S
C1071 C1072 1.524 . S
C1071 C1075 1.400 . S
C1072 H1057 0.960 . S
C1072 H1058 0.960 . S
C1072 H1059 0.960 . S
C1072 C1071 1.524 . S
C1073 C1070 1.403 . S
C1073 C1074 1.392 . S
C1073 C1077 1.495 . S
C1074 C1073 1.392 . S
C1074 C1075 1.385 . S
C1074 C1076 1.478 . S
C1075 H1069 0.930 . S
C1075 C1071 1.400 . S
C1075 C1074 1.385 . S
C1076 C1074 1.478 . S
C1076 C1078 1.381 . S
C1076 C1082 1.383 . S
C1077 C1073 1.495 . S
C1077 H1083 0.959 . S
C1077 H1084 0.961 . S
C1077 H1085 0.960 . S
C1078 C1076 1.381 . S
C1078 C1079 1.394 . S
C1078 H1086 0.930 . S
C1079 C1078 1.394 . S
C1079 C1080 1.383 . S
C1079 H1087 0.929 . S
C1080 C1079 1.383 . S
C1080 C1081 1.377 . S
C1081 H1065 0.930 . S
C1081 C1080 1.377 . S
C1081 C1082 1.379 . S
C1082 H1066 0.931 . S
C1082 C1076 1.383 . S
C1082 C1081 1.379 . S
H1083 C1077 0.959 . S
H1084 C1077 0.961 . S
H1085 C1077 0.960 . S
H1086 C1078 0.930 . S
H1087 C1079 0.929 . S
H1088 C1096 0.929 . S
H1089 C1098 0.930 . S
H1090 C1100 0.930 . S
H1091 C1103 0.929 . S
H1092 C1106 0.930 . S
H1093 C1108 0.960 . S
H1094 C1108 0.960 . S
H1095 C1108 0.960 . S
C1096 H1088 0.929 . S
C1096 C1097 1.377 . S
C1096 C1098 1.384 . S
C1097 C1096 1.377 . S
C1097 C1103 1.390 . S
C1098 H1089 0.930 . S
C1098 C1096 1.384 . S
C1098 C1099 1.372 . S
C1099 C1098 1.372 . S
C1099 C1100 1.400 . S
C1099 C1104 1.490 . S
C1100 H1090 0.930 . S
C1100 C1099 1.400 . S
C1100 C1103 1.386 . S
H1101 C1117 0.930 . S
H1102 C1118 0.931 . S
C1103 H1091 0.929 . S
C1103 C1097 1.390 . S
C1103 C1100 1.386 . S
C1104 C1099 1.490 . S
C1104 C1106 1.395 . S
C1104 C1107 1.403 . S
H1105 C1111 0.930 . S
C1106 H1092 0.930 . S
C1106 C1104 1.395 . S
C1106 C1109 1.403 . S
C1107 C1104 1.403 . S
C1107 C1108 1.524 . S
C1107 C1111 1.400 . S
C1108 H1093 0.960 . S
C1108 H1094 0.960 . S
C1108 H1095 0.960 . S
C1108 C1107 1.524 . S
C1109 C1106 1.403 . S
C1109 C1110 1.392 . S
C1109 C1113 1.495 . S
C1110 C1109 1.392 . S
C1110 C1111 1.385 . S
C1110 C1112 1.478 . S
C1111 H1105 0.930 . S
C1111 C1107 1.400 . S
C1111 C1110 1.385 . S
C1112 C1110 1.478 . S
C1112 C1114 1.381 . S
C1112 C1118 1.383 . S
C1113 C1109 1.495 . S
C1113 H1119 0.959 . S
C1113 H1120 0.961 . S
C1113 H1121 0.960 . S
C1114 C1112 1.381 . S
C1114 C1115 1.394 . S
C1114 H1122 0.930 . S
C1115 C1114 1.394 . S
C1115 C1116 1.383 . S
C1115 H1123 0.929 . S
C1116 C1115 1.383 . S
C1116 C1117 1.377 . S
C1117 H1101 0.930 . S
C1117 C1116 1.377 . S
C1117 C1118 1.379 . S
C1118 H1102 0.931 . S
C1118 C1112 1.383 . S
C1118 C1117 1.379 . S
H1119 C1113 0.959 . S
H1120 C1113 0.961 . S
H1121 C1113 0.960 . S
H1122 C1114 0.930 . S
H1123 C1115 0.929 . S
H1124 C1132 0.929 . S
H1125 C1134 0.930 . S
H1126 C1136 0.930 . S
H1127 C1139 0.929 . S
H1128 C1142 0.930 . S
H1129 C1144 0.960 . S
H1130 C1144 0.960 . S
H1131 C1144 0.960 . S
C1132 H1124 0.929 . S
C1132 C1133 1.377 . S
C1132 C1134 1.384 . S
C1133 C1132 1.377 . S
C1133 C1139 1.390 . S
C1134 H1125 0.930 . S
C1134 C1132 1.384 . S
C1134 C1135 1.372 . S
C1135 C1134 1.372 . S
C1135 C1136 1.400 . S
C1135 C1140 1.490 . S
C1136 H1126 0.930 . S
C1136 C1135 1.400 . S
C1136 C1139 1.386 . S
H1137 C1153 0.930 . S
H1138 C1154 0.931 . S
C1139 H1127 0.929 . S
C1139 C1133 1.390 . S
C1139 C1136 1.386 . S
C1140 C1135 1.490 . S
C1140 C1142 1.395 . S
C1140 C1143 1.403 . S
H1141 C1147 0.930 . S
C1142 H1128 0.930 . S
C1142 C1140 1.395 . S
C1142 C1145 1.403 . S
C1143 C1140 1.403 . S
C1143 C1144 1.524 . S
C1143 C1147 1.400 . S
C1144 H1129 0.960 . S
C1144 H1130 0.960 . S
C1144 H1131 0.960 . S
C1144 C1143 1.524 . S
C1145 C1142 1.403 . S
C1145 C1146 1.392 . S
C1145 C1149 1.495 . S
C1146 C1145 1.392 . S
C1146 C1147 1.385 . S
C1146 C1148 1.478 . S
C1147 H1141 0.930 . S
C1147 C1143 1.400 . S
C1147 C1146 1.385 . S
C1148 C1146 1.478 . S
C1148 C1150 1.381 . S
C1148 C1154 1.383 . S
C1149 C1145 1.495 . S
C1149 H1155 0.959 . S
C1149 H1156 0.961 . S
C1149 H1157 0.960 . S
C1150 C1148 1.381 . S
C1150 C1151 1.394 . S
C1150 H1158 0.930 . S
C1151 C1150 1.394 . S
C1151 C1152 1.383 . S
C1151 H1159 0.929 . S
C1152 C1151 1.383 . S
C1152 C1153 1.377 . S
C1153 H1137 0.930 . S
C1153 C1152 1.377 . S
C1153 C1154 1.379 . S
C1154 H1138 0.931 . S
C1154 C1148 1.383 . S
C1154 C1153 1.379 . S
H1155 C1149 0.959 . S
H1156 C1149 0.961 . S
H1157 C1149 0.960 . S
H1158 C1150 0.930 . S
H1159 C1151 0.929 . S
H1160 C1168 0.929 . S
H1161 C1170 0.930 . S
H1162 C1172 0.930 . S
H1163 C1175 0.929 . S
H1164 C1178 0.930 . S
H1165 C1180 0.960 . S
H1166 C1180 0.960 . S
H1167 C1180 0.960 . S
C1168 H1160 0.929 . S
C1168 C1169 1.377 . S
C1168 C1170 1.384 . S
C1169 C1168 1.377 . S
C1169 C1175 1.390 . S
C1170 H1161 0.930 . S
C1170 C1168 1.384 . S
C1170 C1171 1.372 . S
C1171 C1170 1.372 . S
C1171 C1172 1.400 . S
C1171 C1176 1.490 . S
C1172 H1162 0.930 . S
C1172 C1171 1.400 . S
C1172 C1175 1.386 . S
H1173 C1189 0.930 . S
H1174 C1190 0.931 . S
C1175 H1163 0.929 . S
C1175 C1169 1.390 . S
C1175 C1172 1.386 . S
C1176 C1171 1.490 . S
C1176 C1178 1.395 . S
C1176 C1179 1.403 . S
H1177 C1183 0.930 . S
C1178 H1164 0.930 . S
C1178 C1176 1.395 . S
C1178 C1181 1.403 . S
C1179 C1176 1.403 . S
C1179 C1180 1.524 . S
C1179 C1183 1.400 . S
C1180 H1165 0.960 . S
C1180 H1166 0.960 . S
C1180 H1167 0.960 . S
C1180 C1179 1.524 . S
C1181 C1178 1.403 . S
C1181 C1182 1.392 . S
C1181 C1185 1.495 . S
C1182 C1181 1.392 . S
C1182 C1183 1.385 . S
C1182 C1184 1.478 . S
C1183 H1177 0.930 . S
C1183 C1179 1.400 . S
C1183 C1182 1.385 . S
C1184 C1182 1.478 . S
C1184 C1186 1.381 . S
C1184 C1190 1.383 . S
C1185 C1181 1.495 . S
C1185 H1191 0.959 . S
C1185 H1192 0.961 . S
C1185 H1193 0.960 . S
C1186 C1184 1.381 . S
C1186 C1187 1.394 . S
C1186 H1194 0.930 . S
C1187 C1186 1.394 . S
C1187 C1188 1.383 . S
C1187 H1195 0.929 . S
C1188 C1187 1.383 . S
C1188 C1189 1.377 . S
C1189 H1173 0.930 . S
C1189 C1188 1.377 . S
C1189 C1190 1.379 . S
C1190 H1174 0.931 . S
C1190 C1184 1.383 . S
C1190 C1189 1.379 . S
H1191 C1185 0.959 . S
H1192 C1185 0.961 . S
H1193 C1185 0.960 . S
H1194 C1186 0.930 . S
H1195 C1187 0.929 . S
H1196 C1204 0.929 . S
H1197 C1206 0.930 . S
H1198 C1208 0.930 . S
H1199 C1211 0.929 . S
H1200 C1214 0.930 . S
H1201 C1216 0.960 . S
H1202 C1216 0.960 . S
H1203 C1216 0.960 . S
C1204 H1196 0.929 . S
C1204 C1205 1.377 . S
C1204 C1206 1.384 . S
C1205 C1204 1.377 . S
C1205 C1211 1.390 . S
C1206 H1197 0.930 . S
C1206 C1204 1.384 . S
C1206 C1207 1.372 . S
C1207 C1206 1.372 . S
C1207 C1208 1.400 . S
C1207 C1212 1.490 . S
C1208 H1198 0.930 . S
C1208 C1207 1.400 . S
C1208 C1211 1.386 . S
H1209 C1225 0.930 . S
H1210 C1226 0.931 . S
C1211 H1199 0.929 . S
C1211 C1205 1.390 . S
C1211 C1208 1.386 . S
C1212 C1207 1.490 . S
C1212 C1214 1.395 . S
C1212 C1215 1.403 . S
H1213 C1219 0.930 . S
C1214 H1200 0.930 . S
C1214 C1212 1.395 . S
C1214 C1217 1.403 . S
C1215 C1212 1.403 . S
C1215 C1216 1.524 . S
C1215 C1219 1.400 . S
C1216 H1201 0.960 . S
C1216 H1202 0.960 . S
C1216 H1203 0.960 . S
C1216 C1215 1.524 . S
C1217 C1214 1.403 . S
C1217 C1218 1.392 . S
C1217 C1221 1.495 . S
C1218 C1217 1.392 . S
C1218 C1219 1.385 . S
C1218 C1220 1.478 . S
C1219 H1213 0.930 . S
C1219 C1215 1.400 . S
C1219 C1218 1.385 . S
C1220 C1218 1.478 . S
C1220 C1222 1.381 . S
C1220 C1226 1.383 . S
C1221 C1217 1.495 . S
C1221 H1227 0.959 . S
C1221 H1228 0.961 . S
C1221 H1229 0.960 . S
C1222 C1220 1.381 . S
C1222 C1223 1.394 . S
C1222 H1230 0.930 . S
C1223 C1222 1.394 . S
C1223 C1224 1.383 . S
C1223 H1231 0.929 . S
C1224 C1223 1.383 . S
C1224 C1225 1.377 . S
C1225 H1209 0.930 . S
C1225 C1224 1.377 . S
C1225 C1226 1.379 . S
C1226 H1210 0.931 . S
C1226 C1220 1.383 . S
C1226 C1225 1.379 . S
H1227 C1221 0.959 . S
H1228 C1221 0.961 . S
H1229 C1221 0.960 . S
H1230 C1222 0.930 . S
H1231 C1223 0.929 . S
H1232 C1240 0.929 . S
H1233 C1242 0.930 . S
H1234 C1244 0.930 . S
H1235 C1247 0.929 . S
H1236 C1250 0.930 . S
H1237 C1252 0.960 . S
H1238 C1252 0.960 . S
H1239 C1252 0.960 . S
C1240 H1232 0.929 . S
C1240 C1241 1.377 . S
C1240 C1242 1.384 . S
C1241 C1240 1.377 . S
C1241 C1247 1.390 . S
C1242 H1233 0.930 . S
C1242 C1240 1.384 . S
C1242 C1243 1.372 . S
C1243 C1242 1.372 . S
C1243 C1244 1.400 . S
C1243 C1248 1.490 . S
C1244 H1234 0.930 . S
C1244 C1243 1.400 . S
C1244 C1247 1.386 . S
H1245 C1261 0.930 . S
H1246 C1262 0.931 . S
C1247 H1235 0.929 . S
C1247 C1241 1.390 . S
C1247 C1244 1.386 . S
C1248 C1243 1.490 . S
C1248 C1250 1.395 . S
C1248 C1251 1.403 . S
H1249 C1255 0.930 . S
C1250 H1236 0.930 . S
C1250 C1248 1.395 . S
C1250 C1253 1.403 . S
C1251 C1248 1.403 . S
C1251 C1252 1.524 . S
C1251 C1255 1.400 . S
C1252 H1237 0.960 . S
C1252 H1238 0.960 . S
C1252 H1239 0.960 . S
C1252 C1251 1.524 . S
C1253 C1250 1.403 . S
C1253 C1254 1.392 . S
C1253 C1257 1.495 . S
C1254 C1253 1.392 . S
C1254 C1255 1.385 . S
C1254 C1256 1.478 . S
C1255 H1249 0.930 . S
C1255 C1251 1.400 . S
C1255 C1254 1.385 . S
C1256 C1254 1.478 . S
C1256 C1258 1.381 . S
C1256 C1262 1.383 . S
C1257 C1253 1.495 . S
C1257 H1263 0.959 . S
C1257 H1264 0.961 . S
C1257 H1265 0.960 . S
C1258 C1256 1.381 . S
C1258 C1259 1.394 . S
C1258 H1266 0.930 . S
C1259 C1258 1.394 . S
C1259 C1260 1.383 . S
C1259 H1267 0.929 . S
C1260 C1259 1.383 . S
C1260 C1261 1.377 . S
C1261 H1245 0.930 . S
C1261 C1260 1.377 . S
C1261 C1262 1.379 . S
C1262 H1246 0.931 . S
C1262 C1256 1.383 . S
C1262 C1261 1.379 . S
H1263 C1257 0.959 . S
H1264 C1257 0.961 . S
H1265 C1257 0.960 . S
H1266 C1258 0.930 . S
H1267 C1259 0.929 . S
H1268 C1276 0.929 . S
H1269 C1278 0.930 . S
H1270 C1280 0.930 . S
H1271 C1283 0.929 . S
H1272 C1286 0.930 . S
H1273 C1288 0.960 . S
H1274 C1288 0.960 . S
H1275 C1288 0.960 . S
C1276 H1268 0.929 . S
C1276 C1277 1.377 . S
C1276 C1278 1.384 . S
C1277 C1276 1.377 . S
C1277 C1283 1.390 . S
C1278 H1269 0.930 . S
C1278 C1276 1.384 . S
C1278 C1279 1.372 . S
C1279 C1278 1.372 . S
C1279 C1280 1.400 . S
C1279 C1284 1.490 . S
C1280 H1270 0.930 . S
C1280 C1279 1.400 . S
C1280 C1283 1.386 . S
H1281 C1297 0.930 . S
H1282 C1298 0.931 . S
C1283 H1271 0.929 . S
C1283 C1277 1.390 . S
C1283 C1280 1.386 . S
C1284 C1279 1.490 . S
C1284 C1286 1.395 . S
C1284 C1287 1.403 . S
H1285 C1291 0.930 . S
C1286 H1272 0.930 . S
C1286 C1284 1.395 . S
C1286 C1289 1.403 . S
C1287 C1284 1.403 . S
C1287 C1288 1.524 . S
C1287 C1291 1.400 . S
C1288 H1273 0.960 . S
C1288 H1274 0.960 . S
C1288 H1275 0.960 . S
C1288 C1287 1.524 . S
C1289 C1286 1.403 . S
C1289 C1290 1.392 . S
C1289 C1293 1.495 . S
C1290 C1289 1.392 . S
C1290 C1291 1.385 . S
C1290 C1292 1.478 . S
C1291 H1285 0.930 . S
C1291 C1287 1.400 . S
C1291 C1290 1.385 . S
C1292 C1290 1.478 . S
C1292 C1294 1.381 . S
C1292 C1298 1.383 . S
C1293 C1289 1.495 . S
C1293 H1299 0.959 . S
C1293 H1300 0.961 . S
C1293 H1301 0.960 . S
C1294 C1292 1.381 . S
C1294 C1295 1.394 . S
C1294 H1302 0.930 . S
C1295 C1294 1.394 . S
C1295 C1296 1.383 . S
C1295 H1303 0.929 . S
C1296 C1295 1.383 . S
C1296 C1297 1.377 . S
C1297 H1281 0.930 . S
C1297 C1296 1.377 . S
C1297 C1298 1.379 . S
C1298 H1282 0.931 . S
C1298 C1292 1.383 . S
C1298 C1297 1.379 . S
H1299 C1293 0.959 . S
H1300 C1293 0.961 . S
H1301 C1293 0.960 . S
H1302 C1294 0.930 . S
H1303 C1295 0.929 . S
H1304 C1312 0.929 . S
H1305 C1314 0.930 . S
H1306 C1316 0.930 . S
H1307 C1319 0.929 . S
H1308 C1322 0.930 . S
H1309 C1324 0.960 . S
H1310 C1324 0.960 . S
H1311 C1324 0.960 . S
C1312 H1304 0.929 . S
C1312 C1313 1.377 . S
C1312 C1314 1.384 . S
C1313 C1312 1.377 . S
C1313 C1319 1.390 . S
C1314 H1305 0.930 . S
C1314 C1312 1.384 . S
C1314 C1315 1.372 . S
C1315 C1314 1.372 . S
C1315 C1316 1.400 . S
C1315 C1320 1.490 . S
C1316 H1306 0.930 . S
C1316 C1315 1.400 . S
C1316 C1319 1.386 . S
H1317 C1333 0.930 . S
H1318 C1334 0.931 . S
C1319 H1307 0.929 . S
C1319 C1313 1.390 . S
C1319 C1316 1.386 . S
C1320 C1315 1.490 . S
C1320 C1322 1.395 . S
C1320 C1323 1.403 . S
H1321 C1327 0.930 . S
C1322 H1308 0.930 . S
C1322 C1320 1.395 . S
C1322 C1325 1.403 . S
C1323 C1320 1.403 . S
C1323 C1324 1.524 . S
C1323 C1327 1.400 . S
C1324 H1309 0.960 . S
C1324 H1310 0.960 . S
C1324 H1311 0.960 . S
C1324 C1323 1.524 . S
C1325 C1322 1.403 . S
C1325 C1326 1.392 . S
C1325 C1329 1.495 . S
C1326 C1325 1.392 . S
C1326 C1327 1.385 . S
C1326 C1328 1.478 . S
C1327 H1321 0.930 . S
C1327 C1323 1.400 . S
C1327 C1326 1.385 . S
C1328 C1326 1.478 . S
C1328 C1330 1.381 . S
C1328 C1334 1.383 . S
C1329 C1325 1.495 . S
C1329 H1335 0.959 . S
C1329 H1336 0.961 . S
C1329 H1337 0.960 . S
C1330 C1328 1.381 . S
C1330 C1331 1.394 . S
C1330 H1338 0.930 . S
C1331 C1330 1.394 . S
C1331 C1332 1.383 . S
C1331 H1339 0.929 . S
C1332 C1331 1.383 . S
C1332 C1333 1.377 . S
C1333 H1317 0.930 . S
C1333 C1332 1.377 . S
C1333 C1334 1.379 . S
C1334 H1318 0.931 . S
C1334 C1328 1.383 . S
C1334 C1333 1.379 . S
H1335 C1329 0.959 . S
H1336 C1329 0.961 . S
H1337 C1329 0.960 . S
H1338 C1330 0.930 . S
H1339 C1331 0.929 . S
H1340 C1348 0.929 . S
H1341 C1350 0.930 . S
H1342 C1352 0.930 . S
H1343 C1355 0.929 . S
H1344 C1358 0.930 . S
H1345 C1360 0.960 . S
H1346 C1360 0.960 . S
H1347 C1360 0.960 . S
C1348 H1340 0.929 . S
C1348 C1349 1.377 . S
C1348 C1350 1.384 . S
C1349 C1348 1.377 . S
C1349 C1355 1.390 . S
C1350 H1341 0.930 . S
C1350 C1348 1.384 . S
C1350 C1351 1.372 . S
C1351 C1350 1.372 . S
C1351 C1352 1.400 . S
C1351 C1356 1.490 . S
C1352 H1342 0.930 . S
C1352 C1351 1.400 . S
C1352 C1355 1.386 . S
H1353 C1369 0.930 . S
H1354 C1370 0.931 . S
C1355 H1343 0.929 . S
C1355 C1349 1.390 . S
C1355 C1352 1.386 . S
C1356 C1351 1.490 . S
C1356 C1358 1.395 . S
C1356 C1359 1.403 . S
H1357 C1363 0.930 . S
C1358 H1344 0.930 . S
C1358 C1356 1.395 . S
C1358 C1361 1.403 . S
C1359 C1356 1.403 . S
C1359 C1360 1.524 . S
C1359 C1363 1.400 . S
C1360 H1345 0.960 . S
C1360 H1346 0.960 . S
C1360 H1347 0.960 . S
C1360 C1359 1.524 . S
C1361 C1358 1.403 . S
C1361 C1362 1.392 . S
C1361 C1365 1.495 . S
C1362 C1361 1.392 . S
C1362 C1363 1.385 . S
C1362 C1364 1.478 . S
C1363 H1357 0.930 . S
C1363 C1359 1.400 . S
C1363 C1362 1.385 . S
C1364 C1362 1.478 . S
C1364 C1366 1.381 . S
C1364 C1370 1.383 . S
C1365 C1361 1.495 . S
C1365 H1371 0.959 . S
C1365 H1372 0.961 . S
C1365 H1373 0.960 . S
C1366 C1364 1.381 . S
C1366 C1367 1.394 . S
C1366 H1374 0.930 . S
C1367 C1366 1.394 . S
C1367 C1368 1.383 . S
C1367 H1375 0.929 . S
C1368 C1367 1.383 . S
C1368 C1369 1.377 . S
C1369 H1353 0.930 . S
C1369 C1368 1.377 . S
C1369 C1370 1.379 . S
C1370 H1354 0.931 . S
C1370 C1364 1.383 . S
C1370 C1369 1.379 . S
H1371 C1365 0.959 . S
H1372 C1365 0.961 . S
H1373 C1365 0.960 . S
H1374 C1366 0.930 . S
H1375 C1367 0.929 . S
C233 C11 1.156 . S
C252 C193 1.155 . S
C269 C165 1.155 . S
C288 C25 1.133 . S
C305 C179 1.153 . S
C324 C39 1.169 . S
C341 C151 1.155 . S
C360 C53 1.164 . S
C377 C67 1.152 . S
C396 C221 1.127 . S
C413 C81 1.156 . S
C432 C137 1.149 . S
C449 C207 1.148 . S
C468 C95 1.134 . S
C485 C109 1.153 . S
C504 C123 1.169 . S
C521 C65 1.671 . S
C540 C9 1.671 . S
C557 C23 1.670 . S
C576 C79 1.664 . S
C593 C37 1.670 . S
C612 C93 1.663 . S
C629 C107 1.670 . S
C648 C51 1.663 . S
C665 C121 1.670 . S
C684 C149 1.666 . S
C701 C135 1.671 . S
C720 C163 1.672 . S
C737 C205 1.671 . S
C756 C177 1.666 . S
C773 C191 1.671 . S
C792 C219 1.671 . S
C809 C70 1.351 . S
C828 C0 1.355 1_565 S
C845 C14 1.355 . S
C864 C84 1.319 1_565 S
C881 C28 1.346 1_545 S
C900 C98 1.359 . S
C917 C56 1.356 1_545 S
C936 C42 1.319 . S
C953 C61 1.141 . S
C972 C145 1.130 . S
C989 C33 1.138 . S
C1008 C117 1.135 . S
C1025 C159 1.136 . S
C1044 C89 1.149 . S
C1061 C131 1.136 . S
C1080 C5 1.142 . S
C1097 C112 1.344 . S
C1116 C168 1.374 . S
C1133 C140 1.345 . S
C1152 C210 1.366 . S
C1169 C182 1.344 . S
C1188 C126 1.374 . S
C1205 C154 1.351 . S
C1224 C196 1.335 . S
C1241 C201 1.136 . S
C1260 C19 1.147 . S
C1277 C187 1.141 . S
C1296 C75 1.130 . S
C1313 C215 1.136 . S
C1332 C47 1.147 . S
C1349 C173 1.137 . S
C1368 C103 1.137 . S
