# Generated by pormake.
# Topology wjh, (4)-cn, num edge types: 1
# Building blocks:
#     Node 0, Type 0, BuildingBlock: QUQFOY_clean_sbu_1, # of connection points: 4
#     Node 1, Type 0, BuildingBlock: QUQFOY_clean_sbu_1, # of connection points: 4
#     Node 2, Type 0, BuildingBlock: QUQFOY_clean_sbu_1, # of connection points: 4
#     Node 3, Type 0, BuildingBlock: QUQFOY_clean_sbu_1, # of connection points: 4
#     Node 4, Type 0, BuildingBlock: QUQFOY_clean_sbu_1, # of connection points: 4
#     Node 5, Type 0, BuildingBlock: QUQFOY_clean_sbu_1, # of connection points: 4
#     Node 6, Type 0, BuildingBlock: QUQFOY_clean_sbu_1, # of connection points: 4
#     Node 7, Type 0, BuildingBlock: QUQFOY_clean_sbu_1, # of connection points: 4
#     Node 8, Type 0, BuildingBlock: QUQFOY_clean_sbu_1, # of connection points: 4
#     Node 9, Type 0, BuildingBlock: QUQFOY_clean_sbu_1, # of connection points: 4
#     Node 10, Type 0, BuildingBlock: QUQFOY_clean_sbu_1, # of connection points: 4
#     Node 11, Type 0, BuildingBlock: QUQFOY_clean_sbu_1, # of connection points: 4
#     Edge 12, Type (0, 0), BuildingBlock: EZIPEK_clean_linker_0, # of connection points: 2
#     Edge 13, Type (0, 0), BuildingBlock: EZIPEK_clean_linker_0, # of connection points: 2
#     Edge 14, Type (0, 0), BuildingBlock: EZIPEK_clean_linker_0, # of connection points: 2
#     Edge 15, Type (0, 0), BuildingBlock: EZIPEK_clean_linker_0, # of connection points: 2
#     Edge 16, Type (0, 0), BuildingBlock: EZIPEK_clean_linker_0, # of connection points: 2
#     Edge 17, Type (0, 0), BuildingBlock: EZIPEK_clean_linker_0, # of connection points: 2
#     Edge 18, Type (0, 0), BuildingBlock: EZIPEK_clean_linker_0, # of connection points: 2
#     Edge 19, Type (0, 0), BuildingBlock: EZIPEK_clean_linker_0, # of connection points: 2
#     Edge 20, Type (0, 0), BuildingBlock: EZIPEK_clean_linker_0, # of connection points: 2
#     Edge 21, Type (0, 0), BuildingBlock: EZIPEK_clean_linker_0, # of connection points: 2
#     Edge 22, Type (0, 0), BuildingBlock: EZIPEK_clean_linker_0, # of connection points: 2
#     Edge 23, Type (0, 0), BuildingBlock: EZIPEK_clean_linker_0, # of connection points: 2
#     Edge 24, Type (0, 0), BuildingBlock: EZIPEK_clean_linker_0, # of connection points: 2
#     Edge 25, Type (0, 0), BuildingBlock: EZIPEK_clean_linker_0, # of connection points: 2
#     Edge 26, Type (0, 0), BuildingBlock: EZIPEK_clean_linker_0, # of connection points: 2
#     Edge 27, Type (0, 0), BuildingBlock: EZIPEK_clean_linker_0, # of connection points: 2
#     Edge 28, Type (0, 0), BuildingBlock: EZIPEK_clean_linker_0, # of connection points: 2
#     Edge 29, Type (0, 0), BuildingBlock: EZIPEK_clean_linker_0, # of connection points: 2
#     Edge 30, Type (0, 0), BuildingBlock: EZIPEK_clean_linker_0, # of connection points: 2
#     Edge 31, Type (0, 0), BuildingBlock: EZIPEK_clean_linker_0, # of connection points: 2
#     Edge 32, Type (0, 0), BuildingBlock: EZIPEK_clean_linker_0, # of connection points: 2
#     Edge 33, Type (0, 0), BuildingBlock: EZIPEK_clean_linker_0, # of connection points: 2
#     Edge 34, Type (0, 0), BuildingBlock: EZIPEK_clean_linker_0, # of connection points: 2
#     Edge 35, Type (0, 0), BuildingBlock: EZIPEK_clean_linker_0, # of connection points: 2
# Relax obj value: 0.026
# Max RMSD: 0.074
# Mean RMSD: 0.073
data_MOF--net-wjh--node1-QUQFOY_clean_sbu_1--edge1-EZIPEK_clean_linker_0
_symmetry_space_group_name_H-M    P1
_symmetry_Int_Tables_number       1
_symmetry_cell_setting            triclinic
loop_
_symmetry_equiv_pos_as_xyz
'x, y, z'
_cell_length_a     47.214805
_cell_length_b     47.230145
_cell_length_c     20.996959
_cell_angle_alpha  89.996035
_cell_angle_beta   90.165998
_cell_angle_gamma 120.04528
loop_
_atom_site_label
_atom_site_type_symbol
_atom_site_fract_x
_atom_site_fract_y
_atom_site_fract_z
_atom_type_partial_charge
O0 O 0.48683 0.07605 0.06084 0.0
Cd1 Cd 0.52864 0.12161 0.0557 0.0
Cd2 Cd 0.48556 0.13414 0.1245 0.0
O3 O 0.45013 0.08878 0.09414 0.0
O4 O 0.55544 0.11466 0.9899 0.0
O5 O 0.53572 0.14773 0.97422 0.0
C6 C 0.55089 0.13348 0.95195 0.0
C7 C 0.47828 0.17905 0.13048 0.0
C8 C 0.45748 0.06787 0.07438 0.0
C9 C 0.54311 0.13731 0.19354 0.0
O10 O 0.51479 0.13399 0.19608 0.0
O11 O 0.55588 0.13697 0.14029 0.0
O12 O 0.4627 0.15441 0.1679 0.0
O13 O 0.49624 0.1772 0.08616 0.0
O14 O 0.40753 0.49024 0.23092 0.0
Cd15 Cd 0.39941 0.52983 0.22508 0.0
Cd16 Cd 0.34939 0.48469 0.29392 0.0
O17 O 0.35817 0.45024 0.25603 0.0
O18 O 0.4322 0.55812 0.15855 0.0
O19 O 0.37904 0.5355 0.14395 0.0
C20 C 0.40823 0.55223 0.12087 0.0
C21 C 0.29855 0.4805 0.30019 0.0
C22 C 0.38742 0.45995 0.23953 0.0
C23 C 0.39841 0.54265 0.36337 0.0
O24 O 0.38059 0.5118 0.36551 0.0
O25 O 0.40526 0.55682 0.30924 0.0
O26 O 0.30593 0.46292 0.33599 0.0
O27 O 0.31935 0.49891 0.25751 0.0
O28 O 0.9196 0.41415 0.40591 0.0
Cd29 Cd 0.87135 0.40283 0.40062 0.0
Cd30 Cd 0.86633 0.3506 0.46294 0.0
O31 O 0.91227 0.36522 0.42836 0.0
O32 O 0.87311 0.43502 0.33623 0.0
O33 O 0.84713 0.3817 0.31854 0.0
C34 C 0.85748 0.41094 0.2973 0.0
C35 C 0.822 0.29813 0.46352 0.0
C36 C 0.93094 0.39502 0.41364 0.0
C37 C 0.85567 0.39762 0.53799 0.0
O38 O 0.86497 0.3767 0.53894 0.0
O39 O 0.85213 0.40905 0.48544 0.0
O40 O 0.84769 0.30563 0.49725 0.0
O41 O 0.82281 0.3197 0.42444 0.0
O42 O 0.50827 0.92086 0.57348 0.0
Cd43 Cd 0.46631 0.87549 0.56973 0.0
Cd44 Cd 0.50919 0.86191 0.63416 0.0
O45 O 0.54479 0.90762 0.60581 0.0
O46 O 0.43891 0.88216 0.50471 0.0
O47 O 0.45869 0.84916 0.48845 0.0
C48 C 0.44339 0.86339 0.46651 0.0
C49 C 0.51513 0.81619 0.63147 0.0
C50 C 0.53763 0.92871 0.58623 0.0
C51 C 0.45296 0.85861 0.70742 0.0
O52 O 0.48085 0.86085 0.70837 0.0
O53 O 0.44015 0.86045 0.65514 0.0
O54 O 0.53145 0.83956 0.67141 0.0
O55 O 0.49712 0.81985 0.58951 0.0
O56 O 0.58703 0.50957 0.73589 0.0
Cd57 Cd 0.59135 0.46817 0.73323 0.0
Cd58 Cd 0.64653 0.51225 0.80153 0.0
O59 O 0.63564 0.54713 0.77203 0.0
O60 O 0.55908 0.44148 0.66458 0.0
O61 O 0.61202 0.45995 0.65587 0.0
C62 C 0.58327 0.44529 0.63001 0.0
C63 C 0.69834 0.51852 0.80438 0.0
C64 C 0.60743 0.53905 0.7504 0.0
C65 C 0.59293 0.45494 0.87156 0.0
O66 O 0.61803 0.4832 0.87364 0.0
O67 O 0.57925 0.44188 0.81866 0.0
O68 O 0.69044 0.53482 0.84246 0.0
O69 O 0.67766 0.50068 0.76077 0.0
O70 O 0.07937 0.58299 0.90715 0.0
Cd71 Cd 0.12859 0.59601 0.89917 0.0
Cd72 Cd 0.12941 0.64389 0.96641 0.0
O73 O 0.08521 0.63148 0.92781 0.0
O74 O 0.1273 0.56388 0.83463 0.0
O75 O 0.15066 0.61687 0.81535 0.0
C76 C 0.14153 0.58773 0.79486 0.0
C77 C 0.17436 0.69579 0.97144 0.0
C78 C 0.06723 0.60161 0.91312 0.0
C79 C 0.14454 0.59986 0.03633 0.0
O80 O 0.12808 0.61433 0.03849 0.0
O81 O 0.15324 0.5946 0.98219 0.0
O82 O 0.14918 0.68769 1.00691 0.0
O83 O 0.17292 0.67511 0.92928 0.0
O84 O 0.91701 0.50031 0.91826 0.0
Cd85 Cd 0.87001 0.46086 0.92384 0.0
Cd86 Cd 0.86093 0.5061 0.85834 0.0
O87 O 0.90734 0.53957 0.8879 0.0
O88 O 0.87472 0.43291 0.99013 0.0
O89 O 0.84449 0.45602 1.00474 0.0
C90 C 0.85708 0.43935 0.02756 0.0
C91 C 0.81696 0.51494 0.85582 0.0
C92 C 0.92702 0.53019 0.90598 0.0
C93 C 0.85372 0.44755 0.78712 0.0
O94 O 0.85905 0.47663 0.78564 0.0
O95 O 0.85301 0.43382 0.83983 0.0
O96 O 0.84134 0.53036 0.81775 0.0
O97 O 0.81877 0.49646 0.8992 0.0
O98 O 0.40656 0.92014 0.08639 0.0
Cd99 Cd 0.40193 0.87437 0.09293 0.0
Cd100 Cd 0.34666 0.86187 0.02321 0.0
O101 O 0.35776 0.90815 0.04976 0.0
O102 O 0.43559 0.88125 0.15922 0.0
O103 O 0.38264 0.84884 0.17481 0.0
C104 C 0.4121 0.86291 0.19727 0.0
C105 C 0.2945 0.81678 0.02197 0.0
C106 C 0.38598 0.92878 0.07062 0.0
C107 C 0.4001 0.85692 0.95575 0.0
O108 O 0.37494 0.85989 0.95206 0.0
O109 O 0.41371 0.85858 1.00927 0.0
O110 O 0.30281 0.8404 0.98218 0.0
O111 O 0.31503 0.81997 0.06617 0.0
O112 O 0.48597 0.4099 0.25378 0.0
Cd113 Cd 0.52741 0.4056 0.25863 0.0
Cd114 Cd 0.48432 0.35059 0.1883 0.0
O115 O 0.44922 0.36183 0.21416 0.0
O116 O 0.55355 0.43738 0.32835 0.0
O117 O 0.53519 0.38444 0.33597 0.0
C118 C 0.54978 0.41301 0.36241 0.0
C119 C 0.47694 0.29836 0.18523 0.0
C120 C 0.45682 0.38971 0.23669 0.0
C121 C 0.54269 0.40451 0.12113 0.0
O122 O 0.51472 0.37907 0.11769 0.0
O123 O 0.55466 0.41836 0.17447 0.0
O124 O 0.46169 0.30708 0.14603 0.0
O125 O 0.49429 0.31843 0.23002 0.0
O126 O 0.08225 0.49896 0.41186 0.0
Cd127 Cd 0.13084 0.53647 0.4212 0.0
Cd128 Cd 0.13441 0.4903 0.35447 0.0
O129 O 0.09 0.45751 0.39088 0.0
O130 O 0.12776 0.56628 0.48583 0.0
O131 O 0.15319 0.53865 0.50549 0.0
C132 C 0.14276 0.5576 0.52585 0.0
C133 C 0.17954 0.48347 0.3505 0.0
C134 C 0.07114 0.46839 0.40524 0.0
C135 C 0.1472 0.54928 0.28455 0.0
O136 O 0.13296 0.51835 0.28203 0.0
O137 O 0.15462 0.56336 0.33881 0.0
O138 O 0.1546 0.4667 0.31397 0.0
O139 O 0.17784 0.50245 0.39286 0.0
O140 O 0.588 0.07614 0.57724 0.0
Cd141 Cd 0.59397 0.12254 0.58032 0.0
Cd142 Cd 0.64846 0.1321 0.51299 0.0
O143 O 0.63766 0.08739 0.54894 0.0
O144 O 0.55989 0.11701 0.64408 0.0
O145 O 0.61283 0.14805 0.66259 0.0
C146 C 0.58315 0.13473 0.68337 0.0
C147 C 0.70056 0.17729 0.50799 0.0
C148 C 0.60891 0.06719 0.56754 0.0
C149 C 0.59639 0.13693 0.44126 0.0
O150 O 0.61978 0.13104 0.43909 0.0
O151 O 0.58446 0.1389 0.49446 0.0
O152 O 0.69265 0.15158 0.47418 0.0
O153 O 0.67958 0.17634 0.54865 0.0
O154 O 0.50602 0.58726 0.74609 0.0
Cd155 Cd 0.4664 0.59547 0.75007 0.0
Cd156 Cd 0.51176 0.6449 0.68007 0.0
O157 O 0.54607 0.63626 0.71904 0.0
O158 O 0.43774 0.5629 0.81658 0.0
O159 O 0.46063 0.6161 0.83051 0.0
C160 C 0.44368 0.58699 0.85384 0.0
C161 C 0.51625 0.69576 0.6736 0.0
C162 C 0.53634 0.60728 0.73743 0.0
C163 C 0.45367 0.59637 0.61115 0.0
O164 O 0.48456 0.61361 0.60882 0.0
O165 O 0.43963 0.58986 0.66537 0.0
O166 O 0.53376 0.68831 0.63793 0.0
O167 O 0.49758 0.67493 0.716 0.0
C168 C 0.5428 0.10908 0.29392 0.0
C169 C 0.55878 0.1373 0.25481 0.0
C170 C 0.59947 0.16596 0.33899 0.0
C171 C 0.58175 0.13871 0.37995 0.0
N172 N 0.53454 0.08576 0.39976 0.0
N173 N 0.59977 0.19394 0.24162 0.0
C174 C 0.55269 0.11076 0.35846 0.0
C175 C 0.58656 0.16612 0.27759 0.0
N176 N 0.519 0.0802 0.26831 0.0
N177 N 0.62885 0.19149 0.3586 0.0
H178 H 0.5913 0.19467 0.19604 0.0
H179 H 0.61766 0.21675 0.25829 0.0
H180 H 0.63811 0.19309 0.40448 0.0
H181 H 0.64488 0.21018 0.32855 0.0
H182 H 0.50864 0.0579 0.29209 0.0
H183 H 0.51167 0.07781 0.22074 0.0
H184 H 0.51127 0.06646 0.38914 0.0
H185 H 0.54156 0.08543 0.44676 0.0
C186 C 0.39049 0.54672 0.48087 0.0
C187 C 0.40988 0.56083 0.42541 0.0
C188 C 0.44956 0.60484 0.49383 0.0
C189 C 0.43527 0.58543 0.5492 0.0
N190 N 0.39227 0.53358 0.59102 0.0
N191 N 0.46217 0.60298 0.38351 0.0
C192 C 0.40555 0.55523 0.54192 0.0
C193 C 0.44055 0.59002 0.4327 0.0
N194 N 0.35756 0.52588 0.47572 0.0
N195 N 0.47106 0.63762 0.49915 0.0
H196 H 0.45836 0.59226 0.33875 0.0
H197 H 0.48578 0.62273 0.38977 0.0
H198 H 0.47595 0.65003 0.5425 0.0
H199 H 0.4803 0.6529 0.45958 0.0
H200 H 0.34235 0.51684 0.51538 0.0
H201 H 0.34507 0.52141 0.43247 0.0
H202 H 0.37207 0.51025 0.58476 0.0
H203 H 0.40308 0.53704 0.63567 0.0
C204 C 0.88272 0.44808 0.68828 0.0
C205 C 0.85384 0.43241 0.72553 0.0
C206 C 0.82536 0.39354 0.63873 0.0
C207 C 0.85329 0.41133 0.59959 0.0
N208 N 0.90708 0.45793 0.58339 0.0
N209 N 0.79653 0.39273 0.73506 0.0
C210 C 0.88148 0.43943 0.62324 0.0
C211 C 0.8248 0.40568 0.70061 0.0
N212 N 0.91172 0.47034 0.71606 0.0
N213 N 0.79967 0.36481 0.61709 0.0
H214 H 0.79555 0.40066 0.78095 0.0
H215 H 0.77374 0.37563 0.71685 0.0
H216 H 0.79869 0.35606 0.57101 0.0
H217 H 0.78026 0.34875 0.64574 0.0
H218 H 0.93426 0.48027 0.69331 0.0
H219 H 0.91379 0.47652 0.76424 0.0
H220 H 0.92676 0.48063 0.59598 0.0
H221 H 0.90745 0.45194 0.5357 0.0
C222 C 0.41175 0.82862 0.79358 0.0
C223 C 0.43797 0.85823 0.76956 0.0
C224 C 0.44074 0.88637 0.86983 0.0
C225 C 0.41574 0.85635 0.89515 0.0
N226 N 0.37924 0.79839 0.88544 0.0
N227 N 0.47948 0.91474 0.78502 0.0
C228 C 0.4017 0.82729 0.8581 0.0
C229 C 0.45308 0.88693 0.80789 0.0
N230 N 0.39644 0.80196 0.7544 0.0
N231 N 0.45157 0.91469 0.90392 0.0
H232 H 0.48746 0.9172 0.73801 0.0
H233 H 0.4945 0.93498 0.81312 0.0
H234 H 0.44406 0.91526 0.95033 0.0
H235 H 0.46652 0.93793 0.88524 0.0
H236 H 0.37534 0.78036 0.76647 0.0
H237 H 0.40378 0.80208 0.70754 0.0
H238 H 0.3697 0.77567 0.86351 0.0
H239 H 0.37169 0.79683 0.93261 0.0
C240 C 0.55072 0.44203 0.03103 0.0
C241 C 0.55875 0.41981 0.06025 0.0
C242 C 0.58617 0.41765 0.96246 0.0
C243 C 0.57789 0.43962 0.93313 0.0
N244 N 0.55466 0.47482 0.93867 0.0
N245 N 0.58086 0.38374 0.05401 0.0
C246 C 0.56066 0.45226 0.96721 0.0
C247 C 0.57572 0.40696 0.02604 0.0
N248 N 0.53222 0.45207 0.06367 0.0
N249 N 0.60513 0.40812 0.93016 0.0
H250 H 0.57508 0.37678 0.10151 0.0
H251 H 0.58957 0.37038 0.03006 0.0
H252 H 0.61205 0.41452 0.88282 0.0
H253 H 0.6153 0.39514 0.95051 0.0
H254 H 0.52193 0.46497 0.04353 0.0
H255 H 0.52585 0.44639 0.11142 0.0
H256 H 0.54601 0.48831 0.96233 0.0
H257 H 0.55943 0.4811 0.89067 0.0
C258 C 0.1527 0.59627 0.21445 0.0
C259 C 0.15493 0.56758 0.2228 0.0
C260 C 0.15477 0.56136 0.10658 0.0
C261 C 0.15364 0.59065 0.09826 0.0
N262 N 0.16737 0.64265 0.14598 0.0
N263 N 0.1735 0.53304 0.17545 0.0
C264 C 0.15788 0.61035 0.15279 0.0
C265 C 0.16111 0.55352 0.16837 0.0
N266 N 0.14368 0.60923 0.26312 0.0
N267 N 0.14789 0.53979 0.05767 0.0
H268 H 0.18068 0.52862 0.21967 0.0
H269 H 0.18052 0.52409 0.13683 0.0
H270 H 0.14126 0.54297 1.01215 0.0
H271 H 0.14555 0.51684 0.06447 0.0
H272 H 0.13889 0.6283 0.25615 0.0
H273 H 0.13767 0.59923 0.30852 0.0
H274 H 0.17296 0.65839 0.18477 0.0
H275 H 0.17376 0.65444 0.10196 0.0
C276 C 0.50745 0.2687 0.16305 0.0
C277 C 0.47724 0.26757 0.1741 0.0
C278 C 0.44766 0.20924 0.14673 0.0
C279 C 0.47789 0.20972 0.14267 0.0
N280 N 0.53626 0.23849 0.16238 0.0
N281 N 0.41872 0.2358 0.18704 0.0
C282 C 0.50775 0.23904 0.15509 0.0
C283 C 0.44732 0.23753 0.16889 0.0
N284 N 0.53576 0.29805 0.15692 0.0
N285 N 0.41942 0.18218 0.12729 0.0
H286 H 0.41769 0.25591 0.2047 0.0
H287 H 0.39659 0.21389 0.19036 0.0
H288 H 0.41886 0.1613 0.10943 0.0
H289 H 0.39714 0.18158 0.12312 0.0
H290 H 0.5577 0.30002 0.14188 0.0
H291 H 0.53679 0.32056 0.16031 0.0
H292 H 0.55793 0.25863 0.17825 0.0
H293 H 0.53767 0.21721 0.15915 0.0
C294 C 0.26947 0.51161 0.32325 0.0
C295 C 0.26798 0.48127 0.31163 0.0
C296 C 0.20941 0.45235 0.33641 0.0
C297 C 0.21022 0.48275 0.34007 0.0
N298 N 0.24002 0.54115 0.3212 0.0
N299 N 0.23529 0.42294 0.29552 0.0
C300 C 0.23996 0.51239 0.32916 0.0
C301 C 0.23758 0.45163 0.315 0.0
N302 N 0.29896 0.53954 0.33173 0.0
N303 N 0.18216 0.42429 0.35551 0.0
H304 H 0.25517 0.42159 0.27767 0.0
H305 H 0.2131 0.40116 0.291 0.0
H306 H 0.16142 0.42399 0.37337 0.0
H307 H 0.1814 0.40194 0.35978 0.0
H308 H 0.30101 0.56152 0.34684 0.0
H309 H 0.3213 0.5401 0.33051 0.0
H310 H 0.26064 0.56267 0.30652 0.0
H311 H 0.2189 0.54292 0.32244 0.0
C312 C 0.75229 0.22575 0.54868 0.0
C313 C 0.73201 0.20786 0.4967 0.0
C314 C 0.77299 0.24691 0.42243 0.0
C315 C 0.79129 0.26679 0.47451 0.0
N316 N 0.79299 0.27904 0.58701 0.0
N317 N 0.71939 0.20658 0.38444 0.0
C318 C 0.77953 0.25733 0.53772 0.0
C319 C 0.74131 0.21979 0.43351 0.0
N320 N 0.74627 0.21236 0.60824 0.0
N321 N 0.78607 0.25325 0.36264 0.0
H322 H 0.6952 0.18806 0.39063 0.0
H323 H 0.72411 0.21659 0.33883 0.0
H324 H 0.80959 0.27236 0.35285 0.0
H325 H 0.77488 0.23753 0.32421 0.0
H326 H 0.76229 0.2233 0.64641 0.0
H327 H 0.72718 0.18882 0.61797 0.0
H328 H 0.78307 0.27417 0.63267 0.0
H329 H 0.81156 0.30321 0.58102 0.0
C330 C 0.54552 0.7855 0.64147 0.0
C331 C 0.51528 0.78503 0.63771 0.0
C332 C 0.48587 0.7255 0.65021 0.0
C333 C 0.51596 0.72658 0.66261 0.0
N334 N 0.57422 0.75854 0.68083 0.0
N335 N 0.45658 0.7552 0.65306 0.0
C336 C 0.5458 0.75685 0.66108 0.0
C337 C 0.48537 0.75521 0.64589 0.0
N338 N 0.57387 0.81299 0.62444 0.0
N339 N 0.45792 0.69626 0.63984 0.0
H340 H 0.45495 0.77639 0.65288 0.0
H341 H 0.43478 0.7344 0.66591 0.0
H342 H 0.45722 0.67384 0.64025 0.0
H343 H 0.43616 0.69456 0.62411 0.0
H344 H 0.59619 0.81369 0.62032 0.0
H345 H 0.57446 0.83414 0.60805 0.0
H346 H 0.59607 0.78054 0.68679 0.0
H347 H 0.57528 0.73827 0.69739 0.0
C348 C 0.75932 0.54728 0.8195 0.0
C349 C 0.72889 0.51768 0.81551 0.0
C350 C 0.75664 0.48635 0.8339 0.0
C351 C 0.78644 0.51593 0.8451 0.0
N352 N 0.81502 0.57446 0.85949 0.0
N353 N 0.69766 0.45939 0.83502 0.0
C354 C 0.7875 0.54643 0.84093 0.0
C355 C 0.72723 0.48727 0.82718 0.0
N356 N 0.76154 0.57603 0.80078 0.0
N357 N 0.75644 0.45748 0.82643 0.0
H358 H 0.67535 0.45888 0.83296 0.0
H359 H 0.69544 0.43738 0.85034 0.0
H360 H 0.77749 0.45558 0.82839 0.0
H361 H 0.73581 0.43597 0.8115 0.0
H362 H 0.78368 0.59786 0.7966 0.0
H363 H 0.74154 0.57744 0.78349 0.0
H364 H 0.8161 0.59696 0.86351 0.0
H365 H 0.83583 0.57464 0.8769 0.0
C366 C 0.2343 0.72622 0.99717 0.0
C367 C 0.20516 0.72687 0.98339 0.0
C368 C 0.23357 0.78566 1.00647 0.0
C369 C 0.26348 0.78559 1.01244 0.0
N370 N 0.29333 0.75674 0.99805 0.0
N371 N 0.17833 0.75815 0.96422 0.0
C372 C 0.26419 0.75614 1.00365 0.0
C373 C 0.2051 0.75687 0.98517 0.0
N374 N 0.23339 0.69715 1.007 0.0
N375 N 0.23212 0.81289 0.02304 0.0
H376 H 0.15736 0.73773 0.94664 0.0
H377 H 0.17811 0.77994 0.95841 0.0
H378 H 0.25233 0.83415 0.04029 0.0
H379 H 0.21031 0.8133 0.02567 0.0
H380 H 0.25343 0.69573 0.02388 0.0
H381 H 0.21195 0.67451 1.00491 0.0
H382 H 0.29492 0.73632 0.98471 0.0
H383 H 0.316 0.77815 1.0 0.0
C384 C 0.55794 0.10543 0.7856 0.0
C385 C 0.57583 0.13551 0.75243 0.0
C386 C 0.57995 0.16514 0.85192 0.0
C387 C 0.5591 0.13493 0.8828 0.0
N388 N 0.5216 0.07682 0.87303 0.0
N389 N 0.60024 0.19416 0.75169 0.0
C390 C 0.54622 0.10522 0.84791 0.0
C391 C 0.58593 0.16549 0.785 0.0
N392 N 0.55335 0.07701 0.7589 0.0
N393 N 0.59495 0.19335 0.88684 0.0
H394 H 0.60488 0.19524 0.70295 0.0
H395 H 0.60505 0.21642 0.77112 0.0
H396 H 0.59123 0.19394 0.93564 0.0
H397 H 0.61304 0.21562 0.86864 0.0
H398 H 0.54348 0.05502 0.78382 0.0
H399 H 0.56266 0.07601 0.7145 0.0
H400 H 0.50905 0.05521 0.8469 0.0
H401 H 0.51115 0.0756 0.91737 0.0
C402 C 0.45369 0.60024 0.97272 0.0
C403 C 0.43264 0.58089 0.92222 0.0
C404 C 0.39519 0.54203 1.00192 0.0
C405 C 0.41452 0.56311 0.05238 0.0
N406 N 0.45679 0.61748 0.0823 0.0
N407 N 0.37822 0.5388 0.89202 0.0
C408 C 0.44203 0.59389 0.03664 0.0
C409 C 0.40174 0.55354 0.93788 0.0
N410 N 0.48555 0.6232 0.96115 0.0
N411 N 0.37206 0.51025 1.0137 0.0
H412 H 0.38136 0.54755 0.84545 0.0
H413 H 0.35438 0.5205 0.90229 0.0
H414 H 0.36784 0.49954 0.05855 0.0
H415 H 0.35973 0.4934 0.97739 0.0
H416 H 0.50236 0.63551 0.99757 0.0
H417 H 0.49636 0.62726 0.91645 0.0
H418 H 0.47521 0.64124 0.07189 0.0
H419 H 0.44796 0.6145 0.12873 0.0
C420 C 0.88584 0.4466 0.13173 0.0
C421 C 0.85598 0.43224 0.09701 0.0
C422 C 0.82604 0.40552 0.19525 0.0
C423 C 0.85629 0.41738 0.22803 0.0
N424 N 0.91518 0.44292 0.22287 0.0
N425 N 0.79784 0.39505 0.09327 0.0
C426 C 0.88624 0.43619 0.19498 0.0
C427 C 0.82604 0.41092 0.12814 0.0
N428 N 0.91377 0.47129 0.10525 0.0
N429 N 0.79742 0.39005 0.22856 0.0
H430 H 0.79704 0.39869 0.04444 0.0
H431 H 0.77581 0.3766 0.11156 0.0
H432 H 0.79664 0.38566 0.27739 0.0
H433 H 0.77473 0.38379 0.20901 0.0
H434 H 0.93537 0.48506 0.13091 0.0
H435 H 0.91456 0.48042 0.05966 0.0
H436 H 0.93729 0.45336 0.19835 0.0
H437 H 0.91674 0.435 0.26843 0.0
C438 C 0.41462 0.832 0.36576 0.0
C439 C 0.43515 0.86216 0.39735 0.0
C440 C 0.43627 0.89187 0.30055 0.0
C441 C 0.41886 0.8619 0.26663 0.0
N442 N 0.39513 0.80332 0.26479 0.0
N443 N 0.47229 0.9204 0.38884 0.0
C444 C 0.40892 0.83185 0.29869 0.0
C445 C 0.44787 0.89197 0.36305 0.0
N446 N 0.39967 0.80367 0.40008 0.0
N447 N 0.44056 0.92026 0.2743 0.0
H448 H 0.48275 0.92157 0.43328 0.0
H449 H 0.4847 0.94211 0.36315 0.0
H450 H 0.43125 0.92127 0.2298 0.0
H451 H 0.45012 0.94212 0.29969 0.0
H452 H 0.38179 0.7814 0.38124 0.0
H453 H 0.40317 0.80294 0.44899 0.0
H454 H 0.3905 0.78108 0.28398 0.0
H455 H 0.39076 0.80236 0.2159 0.0
C456 C 0.5977 0.45618 0.51229 0.0
C457 C 0.57785 0.43469 0.5615 0.0
C458 C 0.53944 0.39793 0.48005 0.0
C459 C 0.56065 0.4181 0.4308 0.0
N460 N 0.61473 0.46107 0.40222 0.0
N461 N 0.5351 0.38046 0.58983 0.0
C462 C 0.59133 0.44548 0.44768 0.0
C463 C 0.55044 0.40405 0.54455 0.0
N464 N 0.62118 0.48763 0.52599 0.0
N465 N 0.50799 0.37435 0.46652 0.0
H466 H 0.54321 0.38359 0.63696 0.0
H467 H 0.51684 0.35667 0.57895 0.0
H468 H 0.49789 0.36996 0.42099 0.0
H469 H 0.49078 0.36148 0.50177 0.0
H470 H 0.63378 0.50501 0.49081 0.0
H471 H 0.6257 0.49757 0.57163 0.0
H472 H 0.63854 0.47933 0.41301 0.0
H473 H 0.61146 0.45317 0.35498 0.0
C474 C 0.17336 0.58598 0.62725 0.0
C475 C 0.14343 0.56532 0.59506 0.0
C476 C 0.11292 0.56269 0.69172 0.0
C477 C 0.14279 0.58096 0.72569 0.0
N478 N 0.20155 0.60703 0.72842 0.0
N479 N 0.08511 0.52845 0.60057 0.0
C480 C 0.17311 0.5919 0.69411 0.0
C481 C 0.11332 0.55215 0.62843 0.0
N482 N 0.20188 0.6007 0.59349 0.0
N483 N 0.08409 0.55651 0.71896 0.0
H484 H 0.08425 0.51952 0.55474 0.0
H485 H 0.06313 0.5153 0.62507 0.0
H486 H 0.0826 0.56422 0.76476 0.0
H487 H 0.06206 0.54659 0.694 0.0
H488 H 0.22411 0.6187 0.61226 0.0
H489 H 0.20287 0.59656 0.54495 0.0
H490 H 0.22421 0.61259 0.71009 0.0
H491 H 0.20215 0.61198 0.77699 0.0
C492 C 0.42304 0.01638 1.01372 0.0
C493 C 0.43253 0.0328 0.07306 0.0
C494 C 0.4021 0.98051 0.12926 0.0
C495 C 0.39696 0.96402 0.07042 0.0
N496 N 0.40345 0.96538 0.95626 0.0
N497 N 0.43298 0.03119 0.18804 0.0
C498 C 0.40716 0.98167 1.0123 0.0
C499 C 0.42209 0.01513 0.13117 0.0
N500 N 0.42924 0.03412 0.95889 0.0
N501 N 0.38781 0.96293 0.18317 0.0
H502 H 0.44725 0.05656 0.19169 0.0
H503 H 0.42967 0.01935 0.23151 0.0
H504 H 0.37316 0.93749 0.18283 0.0
H505 H 0.38801 0.97353 0.22676 0.0
H506 H 0.42037 0.0237 0.91436 0.0
H507 H 0.44095 0.05963 0.95881 0.0
H508 H 0.41402 0.97698 0.91352 0.0
H509 H 0.39133 0.93993 0.95298 0.0
C510 C 0.42964 0.41546 0.1774 0.0
C511 C 0.43305 0.40128 0.23447 0.0
C512 C 0.40302 0.42239 0.2938 0.0
C513 C 0.39953 0.43655 0.23666 0.0
N514 N 0.40276 0.44085 0.12239 0.0
N515 N 0.41737 0.38462 0.34284 0.0
C516 C 0.41068 0.4312 0.17781 0.0
C517 C 0.41774 0.4025 0.29134 0.0
N518 N 0.44585 0.41526 0.12365 0.0
N519 N 0.39425 0.42963 0.35091 0.0
H520 H 0.42825 0.37007 0.34216 0.0
H521 H 0.40393 0.38184 0.38393 0.0
H522 H 0.38346 0.44414 0.35511 0.0
H523 H 0.39974 0.42325 0.39477 0.0
H524 H 0.44784 0.42874 0.08298 0.0
H525 H 0.45905 0.40301 0.12077 0.0
H526 H 0.40743 0.43495 0.07735 0.0
H527 H 0.38885 0.45242 0.12138 0.0
C528 C 0.01978 0.43197 0.46488 0.0
C529 C 0.03546 0.44591 0.40644 0.0
C530 C 0.98259 0.41948 0.35094 0.0
C531 C 0.9667 0.40886 0.41047 0.0
N532 N 0.96926 0.40682 0.52513 0.0
N533 N 0.03274 0.45502 0.29409 0.0
C534 C 0.98503 0.4152 0.46776 0.0
C535 C 0.01714 0.44003 0.34934 0.0
N536 N 0.03818 0.43472 0.51741 0.0
N537 N 0.96453 0.40939 0.29602 0.0
H538 H 0.05814 0.46933 0.29054 0.0
H539 H 0.0206 0.45497 0.25261 0.0
H540 H 0.93916 0.39417 0.29594 0.0
H541 H 0.97469 0.4137 0.25068 0.0
H542 H 0.02835 0.42232 0.55988 0.0
H543 H 0.06372 0.44752 0.51702 0.0
H544 H 0.98122 0.41425 0.56884 0.0
H545 H 0.94384 0.3941 0.52932 0.0
C546 C 0.5721 0.98289 0.63896 0.0
C547 C 0.563 0.96355 0.58276 0.0
C548 C 0.58984 0.0127 0.51668 0.0
C549 C 0.59812 0.03208 0.57278 0.0
N550 N 0.60403 0.03681 0.68667 0.0
N551 N 0.56909 0.95867 0.47036 0.0
C552 C 0.59155 0.01746 0.63384 0.0
C553 C 0.57397 0.9781 0.52226 0.0
N554 N 0.56067 0.96826 0.69674 0.0
N555 N 0.59536 0.02727 0.45819 0.0
H556 H 0.55738 0.93322 0.47346 0.0
H557 H 0.57898 0.96764 0.42566 0.0
H558 H 0.60757 0.05257 0.45207 0.0
H559 H 0.58631 0.01441 0.41576 0.0
H560 H 0.56284 0.98103 0.73855 0.0
H561 H 0.54746 0.94293 0.70254 0.0
H562 H 0.60264 0.02778 0.73246 0.0
H563 H 0.61831 0.06224 0.68393 0.0
C564 C 0.59232 0.57478 0.68947 0.0
C565 C 0.59607 0.56298 0.74895 0.0
C566 C 0.56761 0.58776 0.80229 0.0
C567 C 0.5598 0.59535 0.74184 0.0
N568 N 0.56277 0.59482 0.62704 0.0
N569 N 0.58679 0.55672 0.86233 0.0
C570 C 0.57205 0.58901 0.68511 0.0
C571 C 0.58402 0.56948 0.80572 0.0
N572 N 0.60828 0.57235 0.63735 0.0
N573 N 0.55957 0.59837 0.85621 0.0
H574 H 0.59965 0.5442 0.86718 0.0
H575 H 0.57492 0.55693 0.90388 0.0
H576 H 0.54736 0.61167 0.85498 0.0
H577 H 0.56727 0.59644 0.90169 0.0
H578 H 0.60916 0.58316 0.59363 0.0
H579 H 0.62318 0.56189 0.63954 0.0
H580 H 0.56766 0.58718 0.58405 0.0
H581 H 0.54816 0.60546 0.62164 0.0
C582 C 0.01351 0.57765 0.96909 0.0
C583 C 0.03139 0.58722 0.91121 0.0
C584 C 0.98044 0.56258 0.84963 0.0
C585 C 0.96256 0.55337 0.90756 0.0
N586 N 0.96102 0.55691 0.02164 0.0
N587 N 0.03308 0.59439 0.79755 0.0
C588 C 0.97884 0.56248 0.96713 0.0
C589 C 0.01518 0.58148 0.85175 0.0
N590 N 0.02964 0.58185 0.02563 0.0
N591 N 0.96428 0.5518 0.79278 0.0
H592 H 0.0586 0.60787 0.79761 0.0
H593 H 0.0228 0.59397 0.75339 0.0
H594 H 0.93883 0.53872 0.78906 0.0
H595 H 0.97593 0.55408 0.74952 0.0
H596 H 0.01793 0.57198 0.06863 0.0
H597 H 0.05508 0.59358 0.02922 0.0
H598 H 0.97136 0.56561 0.0663 0.0
H599 H 0.93555 0.54579 0.02144 0.0
loop_
_geom_bond_atom_site_label_1
_geom_bond_atom_site_label_2
_geom_bond_distance
_geom_bond_site_symmetry_2
_ccdc_geom_bond_type
O0 Cd1 2.223 . S
O0 C8 1.315 . S
Cd1 O0 2.223 . S
Cd1 O4 2.297 1_554 S
Cd1 O5 2.439 1_554 S
Cd1 O11 2.240 . S
Cd2 O3 2.240 . S
Cd2 O10 2.223 . S
Cd2 O12 2.297 . S
Cd2 O13 2.439 . S
O3 Cd2 2.240 . S
O3 C8 1.279 . S
O4 Cd1 2.297 1_556 S
O4 C6 1.247 . S
O5 Cd1 2.439 1_556 S
O5 C6 1.208 . S
C6 O4 1.247 . S
C6 O5 1.208 . S
C7 O12 1.247 . S
C7 O13 1.208 . S
C8 O0 1.315 . S
C8 O3 1.279 . S
C9 O10 1.315 . S
C9 O11 1.279 . S
O10 Cd2 2.223 . S
O10 C9 1.315 . S
O11 Cd1 2.240 . S
O11 C9 1.279 . S
O12 Cd2 2.297 . S
O12 C7 1.247 . S
O13 Cd2 2.439 . S
O13 C7 1.208 . S
O14 Cd15 2.223 . S
O14 C22 1.315 . S
Cd15 O14 2.223 . S
Cd15 O18 2.297 . S
Cd15 O19 2.439 . S
Cd15 O25 2.240 . S
Cd16 O17 2.240 . S
Cd16 O24 2.223 . S
Cd16 O26 2.297 . S
Cd16 O27 2.439 . S
O17 Cd16 2.240 . S
O17 C22 1.279 . S
O18 Cd15 2.297 . S
O18 C20 1.247 . S
O19 Cd15 2.439 . S
O19 C20 1.208 . S
C20 O18 1.247 . S
C20 O19 1.208 . S
C21 O26 1.247 . S
C21 O27 1.208 . S
C22 O14 1.315 . S
C22 O17 1.279 . S
C23 O24 1.315 . S
C23 O25 1.279 . S
O24 Cd16 2.223 . S
O24 C23 1.315 . S
O25 Cd15 2.240 . S
O25 C23 1.279 . S
O26 Cd16 2.297 . S
O26 C21 1.247 . S
O27 Cd16 2.439 . S
O27 C21 1.208 . S
O28 Cd29 2.223 . S
O28 C36 1.315 . S
Cd29 O28 2.223 . S
Cd29 O32 2.297 . S
Cd29 O33 2.439 . S
Cd29 O39 2.240 . S
Cd30 O31 2.240 . S
Cd30 O38 2.223 . S
Cd30 O40 2.297 . S
Cd30 O41 2.439 . S
O31 Cd30 2.240 . S
O31 C36 1.279 . S
O32 Cd29 2.297 . S
O32 C34 1.247 . S
O33 Cd29 2.439 . S
O33 C34 1.208 . S
C34 O32 1.247 . S
C34 O33 1.208 . S
C35 O40 1.247 . S
C35 O41 1.208 . S
C36 O28 1.315 . S
C36 O31 1.279 . S
C37 O38 1.315 . S
C37 O39 1.279 . S
O38 Cd30 2.223 . S
O38 C37 1.315 . S
O39 Cd29 2.240 . S
O39 C37 1.279 . S
O40 Cd30 2.297 . S
O40 C35 1.247 . S
O41 Cd30 2.439 . S
O41 C35 1.208 . S
O42 Cd43 2.223 . S
O42 C50 1.315 . S
Cd43 O42 2.223 . S
Cd43 O46 2.297 . S
Cd43 O47 2.439 . S
Cd43 O53 2.240 . S
Cd44 O45 2.240 . S
Cd44 O52 2.223 . S
Cd44 O54 2.297 . S
Cd44 O55 2.439 . S
O45 Cd44 2.240 . S
O45 C50 1.279 . S
O46 Cd43 2.297 . S
O46 C48 1.247 . S
O47 Cd43 2.439 . S
O47 C48 1.208 . S
C48 O46 1.247 . S
C48 O47 1.208 . S
C49 O54 1.247 . S
C49 O55 1.208 . S
C50 O42 1.315 . S
C50 O45 1.279 . S
C51 O52 1.315 . S
C51 O53 1.279 . S
O52 Cd44 2.223 . S
O52 C51 1.315 . S
O53 Cd43 2.240 . S
O53 C51 1.279 . S
O54 Cd44 2.297 . S
O54 C49 1.247 . S
O55 Cd44 2.439 . S
O55 C49 1.208 . S
O56 Cd57 2.223 . S
O56 C64 1.315 . S
Cd57 O56 2.223 . S
Cd57 O60 2.297 . S
Cd57 O61 2.439 . S
Cd57 O67 2.240 . S
Cd58 O59 2.240 . S
Cd58 O66 2.223 . S
Cd58 O68 2.297 . S
Cd58 O69 2.439 . S
O59 Cd58 2.240 . S
O59 C64 1.279 . S
O60 Cd57 2.297 . S
O60 C62 1.247 . S
O61 Cd57 2.439 . S
O61 C62 1.208 . S
C62 O60 1.247 . S
C62 O61 1.208 . S
C63 O68 1.247 . S
C63 O69 1.208 . S
C64 O56 1.315 . S
C64 O59 1.279 . S
C65 O66 1.315 . S
C65 O67 1.279 . S
O66 Cd58 2.223 . S
O66 C65 1.315 . S
O67 Cd57 2.240 . S
O67 C65 1.279 . S
O68 Cd58 2.297 . S
O68 C63 1.247 . S
O69 Cd58 2.439 . S
O69 C63 1.208 . S
O70 Cd71 2.223 . S
O70 C78 1.315 . S
Cd71 O70 2.223 . S
Cd71 O74 2.297 . S
Cd71 O75 2.439 . S
Cd71 O81 2.240 . S
Cd72 O73 2.240 . S
Cd72 O80 2.223 1_556 S
Cd72 O82 2.297 . S
Cd72 O83 2.439 . S
O73 Cd72 2.240 . S
O73 C78 1.279 . S
O74 Cd71 2.297 . S
O74 C76 1.247 . S
O75 Cd71 2.439 . S
O75 C76 1.208 . S
C76 O74 1.247 . S
C76 O75 1.208 . S
C77 O82 1.247 . S
C77 O83 1.208 . S
C78 O70 1.315 . S
C78 O73 1.279 . S
C79 O80 1.315 . S
C79 O81 1.279 1_554 S
O80 Cd72 2.223 1_554 S
O80 C79 1.315 . S
O81 Cd71 2.240 . S
O81 C79 1.279 1_556 S
O82 Cd72 2.297 . S
O82 C77 1.247 . S
O83 Cd72 2.439 . S
O83 C77 1.208 . S
O84 Cd85 2.223 . S
O84 C92 1.315 . S
Cd85 O84 2.223 . S
Cd85 O88 2.297 1_556 S
Cd85 O89 2.439 . S
Cd85 O95 2.240 . S
Cd86 O87 2.240 . S
Cd86 O94 2.223 . S
Cd86 O96 2.297 . S
Cd86 O97 2.439 . S
O87 Cd86 2.240 . S
O87 C92 1.279 . S
O88 Cd85 2.297 1_554 S
O88 C90 1.247 . S
O89 Cd85 2.439 . S
O89 C90 1.208 1_556 S
C90 O88 1.247 . S
C90 O89 1.208 1_554 S
C91 O96 1.247 . S
C91 O97 1.208 . S
C92 O84 1.315 . S
C92 O87 1.279 . S
C93 O94 1.315 . S
C93 O95 1.279 . S
O94 Cd86 2.223 . S
O94 C93 1.315 . S
O95 Cd85 2.240 . S
O95 C93 1.279 . S
O96 Cd86 2.297 . S
O96 C91 1.247 . S
O97 Cd86 2.439 . S
O97 C91 1.208 . S
O98 Cd99 2.223 . S
O98 C106 1.315 . S
Cd99 O98 2.223 . S
Cd99 O102 2.297 . S
Cd99 O103 2.439 . S
Cd99 O109 2.240 1_554 S
Cd100 O101 2.240 1_556 S
Cd100 O108 2.223 . S
Cd100 O110 2.297 . S
Cd100 O111 2.439 1_556 S
O101 Cd100 2.240 1_554 S
O101 C106 1.279 . S
O102 Cd99 2.297 . S
O102 C104 1.247 . S
O103 Cd99 2.439 . S
O103 C104 1.208 . S
C104 O102 1.247 . S
C104 O103 1.208 . S
C105 O110 1.234 1_554 S
C105 O111 1.221 . S
C106 O98 1.315 . S
C106 O101 1.279 . S
C107 O108 1.315 . S
C107 O109 1.279 . S
O108 Cd100 2.223 . S
O108 C107 1.315 . S
O109 Cd99 2.240 1_556 S
O109 C107 1.279 . S
O110 Cd100 2.297 . S
O110 C105 1.234 1_556 S
O111 Cd100 2.439 1_554 S
O111 C105 1.221 . S
O112 Cd113 2.223 . S
O112 C120 1.315 . S
Cd113 O112 2.223 . S
Cd113 O116 2.297 . S
Cd113 O117 2.439 . S
Cd113 O123 2.240 . S
Cd114 O115 2.240 . S
Cd114 O122 2.223 . S
Cd114 O124 2.297 . S
Cd114 O125 2.439 . S
O115 Cd114 2.240 . S
O115 C120 1.279 . S
O116 Cd113 2.297 . S
O116 C118 1.247 . S
O117 Cd113 2.439 . S
O117 C118 1.208 . S
C118 O116 1.247 . S
C118 O117 1.208 . S
C119 O124 1.247 . S
C119 O125 1.208 . S
C120 O112 1.315 . S
C120 O115 1.279 . S
C121 O122 1.315 . S
C121 O123 1.279 . S
O122 Cd114 2.223 . S
O122 C121 1.315 . S
O123 Cd113 2.240 . S
O123 C121 1.279 . S
O124 Cd114 2.297 . S
O124 C119 1.247 . S
O125 Cd114 2.439 . S
O125 C119 1.208 . S
O126 Cd127 2.223 . S
O126 C134 1.315 . S
Cd127 O126 2.223 . S
Cd127 O130 2.297 . S
Cd127 O131 2.439 . S
Cd127 O137 2.240 . S
Cd128 O129 2.240 . S
Cd128 O136 2.223 . S
Cd128 O138 2.297 . S
Cd128 O139 2.439 . S
O129 Cd128 2.240 . S
O129 C134 1.279 . S
O130 Cd127 2.297 . S
O130 C132 1.247 . S
O131 Cd127 2.439 . S
O131 C132 1.208 . S
C132 O130 1.247 . S
C132 O131 1.208 . S
C133 O138 1.247 . S
C133 O139 1.208 . S
C134 O126 1.315 . S
C134 O129 1.279 . S
C135 O136 1.315 . S
C135 O137 1.279 . S
O136 Cd128 2.223 . S
O136 C135 1.315 . S
O137 Cd127 2.240 . S
O137 C135 1.279 . S
O138 Cd128 2.297 . S
O138 C133 1.247 . S
O139 Cd128 2.439 . S
O139 C133 1.208 . S
O140 Cd141 2.223 . S
O140 C148 1.315 . S
Cd141 O140 2.223 . S
Cd141 O144 2.297 . S
Cd141 O145 2.439 . S
Cd141 O151 2.240 . S
Cd142 O143 2.240 . S
Cd142 O150 2.223 . S
Cd142 O152 2.297 . S
Cd142 O153 2.439 . S
O143 Cd142 2.240 . S
O143 C148 1.279 . S
O144 Cd141 2.297 . S
O144 C146 1.247 . S
O145 Cd141 2.439 . S
O145 C146 1.208 . S
C146 O144 1.247 . S
C146 O145 1.208 . S
C147 O152 1.247 . S
C147 O153 1.208 . S
C148 O140 1.315 . S
C148 O143 1.279 . S
C149 O150 1.315 . S
C149 O151 1.279 . S
O150 Cd142 2.223 . S
O150 C149 1.315 . S
O151 Cd141 2.240 . S
O151 C149 1.279 . S
O152 Cd142 2.297 . S
O152 C147 1.247 . S
O153 Cd142 2.439 . S
O153 C147 1.208 . S
O154 Cd155 2.223 . S
O154 C162 1.315 . S
Cd155 O154 2.223 . S
Cd155 O158 2.297 . S
Cd155 O159 2.439 . S
Cd155 O165 2.240 . S
Cd156 O157 2.240 . S
Cd156 O164 2.223 . S
Cd156 O166 2.297 . S
Cd156 O167 2.439 . S
O157 Cd156 2.240 . S
O157 C162 1.279 . S
O158 Cd155 2.297 . S
O158 C160 1.247 . S
O159 Cd155 2.439 . S
O159 C160 1.208 . S
C160 O158 1.247 . S
C160 O159 1.208 . S
C161 O166 1.247 . S
C161 O167 1.208 . S
C162 O154 1.315 . S
C162 O157 1.279 . S
C163 O164 1.315 . S
C163 O165 1.279 . S
O164 Cd156 2.223 . S
O164 C163 1.315 . S
O165 Cd155 2.240 . S
O165 C163 1.279 . S
O166 Cd156 2.297 . S
O166 C161 1.247 . S
O167 Cd156 2.439 . S
O167 C161 1.208 . S
C168 C169 1.363 . S
C168 C174 1.379 . S
C168 N176 1.356 . S
C169 C168 1.363 . S
C169 C175 1.363 . S
C170 C171 1.363 . S
C170 C175 1.379 . S
C170 N177 1.356 . S
C171 C170 1.363 . S
C171 C174 1.363 . S
N172 C174 1.356 . S
N172 H184 0.984 . S
N172 H185 0.985 . S
N173 C175 1.356 . S
N173 H178 0.984 . S
N173 H179 0.985 . S
C174 C168 1.379 . S
C174 C171 1.363 . S
C174 N172 1.356 . S
C175 C169 1.363 . S
C175 C170 1.379 . S
C175 N173 1.356 . S
N176 C168 1.356 . S
N176 H182 0.984 . S
N176 H183 0.984 . S
N177 C170 1.356 . S
N177 H180 0.984 . S
N177 H181 0.985 . S
H178 N173 0.984 . S
H179 N173 0.985 . S
H180 N177 0.984 . S
H181 N177 0.985 . S
H182 N176 0.984 . S
H183 N176 0.984 . S
H184 N172 0.984 . S
H185 N172 0.985 . S
C186 C187 1.363 . S
C186 C192 1.379 . S
C186 N194 1.356 . S
C187 C186 1.363 . S
C187 C193 1.363 . S
C188 C189 1.363 . S
C188 C193 1.379 . S
C188 N195 1.356 . S
C189 C188 1.363 . S
C189 C192 1.363 . S
N190 C192 1.356 . S
N190 H202 0.984 . S
N190 H203 0.985 . S
N191 C193 1.356 . S
N191 H196 0.984 . S
N191 H197 0.985 . S
C192 C186 1.379 . S
C192 C189 1.363 . S
C192 N190 1.356 . S
C193 C187 1.363 . S
C193 C188 1.379 . S
C193 N191 1.356 . S
N194 C186 1.356 . S
N194 H200 0.984 . S
N194 H201 0.984 . S
N195 C188 1.356 . S
N195 H198 0.984 . S
N195 H199 0.985 . S
H196 N191 0.984 . S
H197 N191 0.985 . S
H198 N195 0.984 . S
H199 N195 0.985 . S
H200 N194 0.984 . S
H201 N194 0.984 . S
H202 N190 0.984 . S
H203 N190 0.985 . S
C204 C205 1.363 . S
C204 C210 1.379 . S
C204 N212 1.356 . S
C205 C204 1.363 . S
C205 C211 1.363 . S
C206 C207 1.363 . S
C206 C211 1.379 . S
C206 N213 1.356 . S
C207 C206 1.363 . S
C207 C210 1.363 . S
N208 C210 1.356 . S
N208 H220 0.984 . S
N208 H221 0.985 . S
N209 C211 1.356 . S
N209 H214 0.984 . S
N209 H215 0.985 . S
C210 C204 1.379 . S
C210 C207 1.363 . S
C210 N208 1.356 . S
C211 C205 1.363 . S
C211 C206 1.379 . S
C211 N209 1.356 . S
N212 C204 1.356 . S
N212 H218 0.984 . S
N212 H219 0.984 . S
N213 C206 1.356 . S
N213 H216 0.984 . S
N213 H217 0.985 . S
H214 N209 0.984 . S
H215 N209 0.985 . S
H216 N213 0.984 . S
H217 N213 0.985 . S
H218 N212 0.984 . S
H219 N212 0.984 . S
H220 N208 0.984 . S
H221 N208 0.985 . S
C222 C223 1.363 . S
C222 C228 1.379 . S
C222 N230 1.356 . S
C223 C222 1.363 . S
C223 C229 1.363 . S
C224 C225 1.363 . S
C224 C229 1.379 . S
C224 N231 1.356 . S
C225 C224 1.363 . S
C225 C228 1.363 . S
N226 C228 1.356 . S
N226 H238 0.984 . S
N226 H239 0.985 . S
N227 C229 1.356 . S
N227 H232 0.984 . S
N227 H233 0.985 . S
C228 C222 1.379 . S
C228 C225 1.363 . S
C228 N226 1.356 . S
C229 C223 1.363 . S
C229 C224 1.379 . S
C229 N227 1.356 . S
N230 C222 1.356 . S
N230 H236 0.984 . S
N230 H237 0.984 . S
N231 C224 1.356 . S
N231 H234 0.984 . S
N231 H235 0.985 . S
H232 N227 0.984 . S
H233 N227 0.985 . S
H234 N231 0.984 . S
H235 N231 0.985 . S
H236 N230 0.984 . S
H237 N230 0.984 . S
H238 N226 0.984 . S
H239 N226 0.985 . S
C240 C241 1.363 . S
C240 C246 1.379 1_554 S
C240 N248 1.356 . S
C241 C240 1.363 . S
C241 C247 1.363 1_554 S
C242 C243 1.363 . S
C242 C247 1.379 . S
C242 N249 1.356 . S
C243 C242 1.363 . S
C243 C246 1.363 . S
N244 C246 1.356 . S
N244 H256 0.984 . S
N244 H257 0.985 . S
N245 C247 1.356 1_554 S
N245 H250 0.984 . S
N245 H251 0.985 1_554 S
C246 C240 1.379 1_556 S
C246 C243 1.363 . S
C246 N244 1.356 . S
C247 C241 1.363 1_556 S
C247 C242 1.379 . S
C247 N245 1.356 1_556 S
N248 C240 1.356 . S
N248 H254 0.984 . S
N248 H255 0.984 . S
N249 C242 1.356 . S
N249 H252 0.984 . S
N249 H253 0.985 . S
H250 N245 0.984 . S
H251 N245 0.985 1_556 S
H252 N249 0.984 . S
H253 N249 0.985 . S
H254 N248 0.984 . S
H255 N248 0.984 . S
H256 N244 0.984 . S
H257 N244 0.985 . S
C258 C259 1.363 . S
C258 C264 1.379 . S
C258 N266 1.356 . S
C259 C258 1.363 . S
C259 C265 1.363 . S
C260 C261 1.363 . S
C260 C265 1.379 . S
C260 N267 1.356 . S
C261 C260 1.363 . S
C261 C264 1.363 . S
N262 C264 1.356 . S
N262 H274 0.984 . S
N262 H275 0.985 . S
N263 C265 1.356 . S
N263 H268 0.984 . S
N263 H269 0.985 . S
C264 C258 1.379 . S
C264 C261 1.363 . S
C264 N262 1.356 . S
C265 C259 1.363 . S
C265 C260 1.379 . S
C265 N263 1.356 . S
N266 C258 1.356 . S
N266 H272 0.984 . S
N266 H273 0.984 . S
N267 C260 1.356 . S
N267 H270 0.984 1_554 S
N267 H271 0.985 . S
H268 N263 0.984 . S
H269 N263 0.985 . S
H270 N267 0.984 1_556 S
H271 N267 0.985 . S
H272 N266 0.984 . S
H273 N266 0.984 . S
H274 N262 0.984 . S
H275 N262 0.985 . S
C276 C277 1.363 . S
C276 C282 1.379 . S
C276 N284 1.356 . S
C277 C276 1.363 . S
C277 C283 1.363 . S
C278 C279 1.363 . S
C278 C283 1.379 . S
C278 N285 1.356 . S
C279 C278 1.363 . S
C279 C282 1.363 . S
N280 C282 1.356 . S
N280 H292 0.984 . S
N280 H293 0.985 . S
N281 C283 1.356 . S
N281 H286 0.984 . S
N281 H287 0.985 . S
C282 C276 1.379 . S
C282 C279 1.363 . S
C282 N280 1.356 . S
C283 C277 1.363 . S
C283 C278 1.379 . S
C283 N281 1.356 . S
N284 C276 1.356 . S
N284 H290 0.984 . S
N284 H291 0.984 . S
N285 C278 1.356 . S
N285 H288 0.984 . S
N285 H289 0.985 . S
H286 N281 0.984 . S
H287 N281 0.985 . S
H288 N285 0.984 . S
H289 N285 0.985 . S
H290 N284 0.984 . S
H291 N284 0.984 . S
H292 N280 0.984 . S
H293 N280 0.985 . S
C294 C295 1.363 . S
C294 C300 1.379 . S
C294 N302 1.356 . S
C295 C294 1.363 . S
C295 C301 1.363 . S
C296 C297 1.363 . S
C296 C301 1.379 . S
C296 N303 1.356 . S
C297 C296 1.363 . S
C297 C300 1.363 . S
N298 C300 1.356 . S
N298 H310 0.984 . S
N298 H311 0.985 . S
N299 C301 1.356 . S
N299 H304 0.984 . S
N299 H305 0.985 . S
C300 C294 1.379 . S
C300 C297 1.363 . S
C300 N298 1.356 . S
C301 C295 1.363 . S
C301 C296 1.379 . S
C301 N299 1.356 . S
N302 C294 1.356 . S
N302 H308 0.984 . S
N302 H309 0.984 . S
N303 C296 1.356 . S
N303 H306 0.984 . S
N303 H307 0.985 . S
H304 N299 0.984 . S
H305 N299 0.985 . S
H306 N303 0.984 . S
H307 N303 0.985 . S
H308 N302 0.984 . S
H309 N302 0.984 . S
H310 N298 0.984 . S
H311 N298 0.985 . S
C312 C313 1.363 . S
C312 C318 1.379 . S
C312 N320 1.356 . S
C313 C312 1.363 . S
C313 C319 1.363 . S
C314 C315 1.363 . S
C314 C319 1.379 . S
C314 N321 1.356 . S
C315 C314 1.363 . S
C315 C318 1.363 . S
N316 C318 1.356 . S
N316 H328 0.984 . S
N316 H329 0.985 . S
N317 C319 1.356 . S
N317 H322 0.984 . S
N317 H323 0.985 . S
C318 C312 1.379 . S
C318 C315 1.363 . S
C318 N316 1.356 . S
C319 C313 1.363 . S
C319 C314 1.379 . S
C319 N317 1.356 . S
N320 C312 1.356 . S
N320 H326 0.984 . S
N320 H327 0.984 . S
N321 C314 1.356 . S
N321 H324 0.984 . S
N321 H325 0.985 . S
H322 N317 0.984 . S
H323 N317 0.985 . S
H324 N321 0.984 . S
H325 N321 0.985 . S
H326 N320 0.984 . S
H327 N320 0.984 . S
H328 N316 0.984 . S
H329 N316 0.985 . S
C330 C331 1.363 . S
C330 C336 1.379 . S
C330 N338 1.356 . S
C331 C330 1.363 . S
C331 C337 1.363 . S
C332 C333 1.363 . S
C332 C337 1.379 . S
C332 N339 1.356 . S
C333 C332 1.363 . S
C333 C336 1.363 . S
N334 C336 1.356 . S
N334 H346 0.984 . S
N334 H347 0.985 . S
N335 C337 1.356 . S
N335 H340 0.984 . S
N335 H341 0.985 . S
C336 C330 1.379 . S
C336 C333 1.363 . S
C336 N334 1.356 . S
C337 C331 1.363 . S
C337 C332 1.379 . S
C337 N335 1.356 . S
N338 C330 1.356 . S
N338 H344 0.984 . S
N338 H345 0.984 . S
N339 C332 1.356 . S
N339 H342 0.984 . S
N339 H343 0.985 . S
H340 N335 0.984 . S
H341 N335 0.985 . S
H342 N339 0.984 . S
H343 N339 0.985 . S
H344 N338 0.984 . S
H345 N338 0.984 . S
H346 N334 0.984 . S
H347 N334 0.985 . S
C348 C349 1.363 . S
C348 C354 1.379 . S
C348 N356 1.356 . S
C349 C348 1.363 . S
C349 C355 1.363 . S
C350 C351 1.363 . S
C350 C355 1.379 . S
C350 N357 1.356 . S
C351 C350 1.363 . S
C351 C354 1.363 . S
N352 C354 1.356 . S
N352 H364 0.984 . S
N352 H365 0.985 . S
N353 C355 1.356 . S
N353 H358 0.984 . S
N353 H359 0.985 . S
C354 C348 1.379 . S
C354 C351 1.363 . S
C354 N352 1.356 . S
C355 C349 1.363 . S
C355 C350 1.379 . S
C355 N353 1.356 . S
N356 C348 1.356 . S
N356 H362 0.984 . S
N356 H363 0.984 . S
N357 C350 1.356 . S
N357 H360 0.984 . S
N357 H361 0.985 . S
H358 N353 0.984 . S
H359 N353 0.985 . S
H360 N357 0.984 . S
H361 N357 0.985 . S
H362 N356 0.984 . S
H363 N356 0.984 . S
H364 N352 0.984 . S
H365 N352 0.985 . S
C366 C367 1.363 1_554 S
C366 C372 1.379 . S
C366 N374 1.356 . S
C367 C366 1.363 1_556 S
C367 C373 1.363 . S
C368 C369 1.363 . S
C368 C373 1.379 . S
C368 N375 1.356 . S
C369 C368 1.363 . S
C369 C372 1.363 1_556 S
N370 C372 1.356 . S
N370 H382 0.984 . S
N370 H383 0.985 . S
N371 C373 1.356 . S
N371 H376 0.984 . S
N371 H377 0.985 . S
C372 C366 1.379 . S
C372 C369 1.363 1_554 S
C372 N370 1.356 . S
C373 C367 1.363 . S
C373 C368 1.379 . S
C373 N371 1.356 . S
N374 C366 1.356 . S
N374 H380 0.984 . S
N374 H381 0.984 . S
N375 C368 1.356 . S
N375 H378 0.984 . S
N375 H379 0.985 . S
H376 N371 0.984 . S
H377 N371 0.985 . S
H378 N375 0.984 . S
H379 N375 0.985 . S
H380 N374 0.984 . S
H381 N374 0.984 . S
H382 N370 0.984 . S
H383 N370 0.985 . S
C384 C385 1.363 . S
C384 C390 1.379 . S
C384 N392 1.356 . S
C385 C384 1.363 . S
C385 C391 1.363 . S
C386 C387 1.363 . S
C386 C391 1.379 . S
C386 N393 1.356 . S
C387 C386 1.363 . S
C387 C390 1.363 . S
N388 C390 1.356 . S
N388 H400 0.984 . S
N388 H401 0.985 . S
N389 C391 1.356 . S
N389 H394 0.984 . S
N389 H395 0.985 . S
C390 C384 1.379 . S
C390 C387 1.363 . S
C390 N388 1.356 . S
C391 C385 1.363 . S
C391 C386 1.379 . S
C391 N389 1.356 . S
N392 C384 1.356 . S
N392 H398 0.984 . S
N392 H399 0.984 . S
N393 C386 1.356 . S
N393 H396 0.984 . S
N393 H397 0.985 . S
H394 N389 0.984 . S
H395 N389 0.985 . S
H396 N393 0.984 . S
H397 N393 0.985 . S
H398 N392 0.984 . S
H399 N392 0.984 . S
H400 N388 0.984 . S
H401 N388 0.985 . S
C402 C403 1.363 . S
C402 C408 1.379 1_556 S
C402 N410 1.356 . S
C403 C402 1.363 . S
C403 C409 1.363 . S
C404 C405 1.363 1_556 S
C404 C409 1.379 . S
C404 N411 1.356 1_556 S
C405 C404 1.363 1_554 S
C405 C408 1.363 . S
N406 C408 1.356 . S
N406 H418 0.984 . S
N406 H419 0.985 . S
N407 C409 1.356 . S
N407 H412 0.984 . S
N407 H413 0.985 . S
C408 C402 1.379 1_554 S
C408 C405 1.363 . S
C408 N406 1.356 . S
C409 C403 1.363 . S
C409 C404 1.379 . S
C409 N407 1.356 . S
N410 C402 1.356 . S
N410 H416 0.984 . S
N410 H417 0.984 . S
N411 C404 1.356 1_554 S
N411 H414 0.984 . S
N411 H415 0.985 1_554 S
H412 N407 0.984 . S
H413 N407 0.985 . S
H414 N411 0.984 . S
H415 N411 0.985 1_556 S
H416 N410 0.984 . S
H417 N410 0.984 . S
H418 N406 0.984 . S
H419 N406 0.985 . S
C420 C421 1.363 . S
C420 C426 1.379 . S
C420 N428 1.356 . S
C421 C420 1.363 . S
C421 C427 1.363 . S
C422 C423 1.363 . S
C422 C427 1.379 . S
C422 N429 1.356 . S
C423 C422 1.363 . S
C423 C426 1.363 . S
N424 C426 1.356 . S
N424 H436 0.984 . S
N424 H437 0.985 . S
N425 C427 1.356 . S
N425 H430 0.984 . S
N425 H431 0.985 . S
C426 C420 1.379 . S
C426 C423 1.363 . S
C426 N424 1.356 . S
C427 C421 1.363 . S
C427 C422 1.379 . S
C427 N425 1.356 . S
N428 C420 1.356 . S
N428 H434 0.984 . S
N428 H435 0.984 . S
N429 C422 1.356 . S
N429 H432 0.984 . S
N429 H433 0.985 . S
H430 N425 0.984 . S
H431 N425 0.985 . S
H432 N429 0.984 . S
H433 N429 0.985 . S
H434 N428 0.984 . S
H435 N428 0.984 . S
H436 N424 0.984 . S
H437 N424 0.985 . S
C438 C439 1.363 . S
C438 C444 1.379 . S
C438 N446 1.356 . S
C439 C438 1.363 . S
C439 C445 1.363 . S
C440 C441 1.363 . S
C440 C445 1.379 . S
C440 N447 1.356 . S
C441 C440 1.363 . S
C441 C444 1.363 . S
N442 C444 1.356 . S
N442 H454 0.984 . S
N442 H455 0.985 . S
N443 C445 1.356 . S
N443 H448 0.984 . S
N443 H449 0.985 . S
C444 C438 1.379 . S
C444 C441 1.363 . S
C444 N442 1.356 . S
C445 C439 1.363 . S
C445 C440 1.379 . S
C445 N443 1.356 . S
N446 C438 1.356 . S
N446 H452 0.984 . S
N446 H453 0.984 . S
N447 C440 1.356 . S
N447 H450 0.984 . S
N447 H451 0.985 . S
H448 N443 0.984 . S
H449 N443 0.985 . S
H450 N447 0.984 . S
H451 N447 0.985 . S
H452 N446 0.984 . S
H453 N446 0.984 . S
H454 N442 0.984 . S
H455 N442 0.985 . S
C456 C457 1.363 . S
C456 C462 1.379 . S
C456 N464 1.356 . S
C457 C456 1.363 . S
C457 C463 1.363 . S
C458 C459 1.363 . S
C458 C463 1.379 . S
C458 N465 1.356 . S
C459 C458 1.363 . S
C459 C462 1.363 . S
N460 C462 1.356 . S
N460 H472 0.984 . S
N460 H473 0.985 . S
N461 C463 1.356 . S
N461 H466 0.984 . S
N461 H467 0.985 . S
C462 C456 1.379 . S
C462 C459 1.363 . S
C462 N460 1.356 . S
C463 C457 1.363 . S
C463 C458 1.379 . S
C463 N461 1.356 . S
N464 C456 1.356 . S
N464 H470 0.984 . S
N464 H471 0.984 . S
N465 C458 1.356 . S
N465 H468 0.984 . S
N465 H469 0.985 . S
H466 N461 0.984 . S
H467 N461 0.985 . S
H468 N465 0.984 . S
H469 N465 0.985 . S
H470 N464 0.984 . S
H471 N464 0.984 . S
H472 N460 0.984 . S
H473 N460 0.985 . S
C474 C475 1.363 . S
C474 C480 1.379 . S
C474 N482 1.356 . S
C475 C474 1.363 . S
C475 C481 1.363 . S
C476 C477 1.363 . S
C476 C481 1.379 . S
C476 N483 1.356 . S
C477 C476 1.363 . S
C477 C480 1.363 . S
N478 C480 1.356 . S
N478 H490 0.984 . S
N478 H491 0.985 . S
N479 C481 1.356 . S
N479 H484 0.984 . S
N479 H485 0.985 . S
C480 C474 1.379 . S
C480 C477 1.363 . S
C480 N478 1.356 . S
C481 C475 1.363 . S
C481 C476 1.379 . S
C481 N479 1.356 . S
N482 C474 1.356 . S
N482 H488 0.984 . S
N482 H489 0.984 . S
N483 C476 1.356 . S
N483 H486 0.984 . S
N483 H487 0.985 . S
H484 N479 0.984 . S
H485 N479 0.985 . S
H486 N483 0.984 . S
H487 N483 0.985 . S
H488 N482 0.984 . S
H489 N482 0.984 . S
H490 N478 0.984 . S
H491 N478 0.985 . S
C492 C493 1.363 . S
C492 C498 1.379 1_545 S
C492 N500 1.362 . S
C493 C492 1.363 . S
C493 C499 1.363 . S
C494 C495 1.363 . S
C494 C499 1.379 1_565 S
C494 N501 1.356 . S
C495 C494 1.363 . S
C495 C498 1.363 . S
N496 C498 1.356 1_556 S
N496 H508 0.984 . S
N496 H509 0.985 . S
N497 C499 1.356 . S
N497 H502 0.984 . S
N497 H503 0.985 . S
C498 C492 1.379 1_565 S
C498 C495 1.363 . S
C498 N496 1.356 1_554 S
C499 C493 1.363 . S
C499 C494 1.379 1_545 S
C499 N497 1.356 . S
N500 C492 1.362 . S
N500 H506 0.971 1_554 S
N500 H507 0.992 . S
N501 C494 1.356 . S
N501 H504 0.984 . S
N501 H505 0.985 . S
H502 N497 0.984 . S
H503 N497 0.985 . S
H504 N501 0.984 . S
H505 N501 0.985 . S
H506 N500 0.971 1_556 S
H507 N500 0.992 . S
H508 N496 0.984 . S
H509 N496 0.985 . S
C510 C511 1.363 . S
C510 C516 1.379 . S
C510 N518 1.356 . S
C511 C510 1.363 . S
C511 C517 1.363 . S
C512 C513 1.363 . S
C512 C517 1.379 . S
C512 N519 1.356 . S
C513 C512 1.363 . S
C513 C516 1.363 . S
N514 C516 1.356 . S
N514 H526 0.984 . S
N514 H527 0.985 . S
N515 C517 1.356 . S
N515 H520 0.984 . S
N515 H521 0.985 . S
C516 C510 1.379 . S
C516 C513 1.363 . S
C516 N514 1.356 . S
C517 C511 1.363 . S
C517 C512 1.379 . S
C517 N515 1.356 . S
N518 C510 1.356 . S
N518 H524 0.984 . S
N518 H525 0.984 . S
N519 C512 1.356 . S
N519 H522 0.984 . S
N519 H523 0.985 . S
H520 N515 0.984 . S
H521 N515 0.985 . S
H522 N519 0.984 . S
H523 N519 0.985 . S
H524 N518 0.984 . S
H525 N518 0.984 . S
H526 N514 0.984 . S
H527 N514 0.985 . S
C528 C529 1.363 . S
C528 C534 1.379 1_455 S
C528 N536 1.356 . S
C529 C528 1.363 . S
C529 C535 1.363 . S
C530 C531 1.363 . S
C530 C535 1.379 1_655 S
C530 N537 1.356 . S
C531 C530 1.363 . S
C531 C534 1.363 . S
N532 C534 1.356 . S
N532 H544 0.984 . S
N532 H545 0.985 . S
N533 C535 1.356 . S
N533 H538 0.984 . S
N533 H539 0.985 . S
C534 C528 1.379 1_655 S
C534 C531 1.363 . S
C534 N532 1.356 . S
C535 C529 1.363 . S
C535 C530 1.379 1_455 S
C535 N533 1.356 . S
N536 C528 1.356 . S
N536 H542 0.984 . S
N536 H543 0.984 . S
N537 C530 1.356 . S
N537 H540 0.984 . S
N537 H541 0.985 . S
H538 N533 0.984 . S
H539 N533 0.985 . S
H540 N537 0.984 . S
H541 N537 0.985 . S
H542 N536 0.984 . S
H543 N536 0.984 . S
H544 N532 0.984 . S
H545 N532 0.985 . S
C546 C547 1.363 . S
C546 C552 1.379 1_565 S
C546 N554 1.356 . S
C547 C546 1.363 . S
C547 C553 1.363 . S
C548 C549 1.363 . S
C548 C553 1.379 1_545 S
C548 N555 1.356 . S
C549 C548 1.363 . S
C549 C552 1.363 . S
N550 C552 1.356 . S
N550 H562 0.984 . S
N550 H563 0.985 . S
N551 C553 1.356 . S
N551 H556 0.984 . S
N551 H557 0.985 . S
C552 C546 1.379 1_545 S
C552 C549 1.363 . S
C552 N550 1.356 . S
C553 C547 1.363 . S
C553 C548 1.379 1_565 S
C553 N551 1.356 . S
N554 C546 1.356 . S
N554 H560 0.984 . S
N554 H561 0.984 . S
N555 C548 1.356 . S
N555 H558 0.984 . S
N555 H559 0.985 . S
H556 N551 0.984 . S
H557 N551 0.985 . S
H558 N555 0.984 . S
H559 N555 0.985 . S
H560 N554 0.984 . S
H561 N554 0.984 . S
H562 N550 0.984 . S
H563 N550 0.985 . S
C564 C565 1.363 . S
C564 C570 1.379 . S
C564 N572 1.356 . S
C565 C564 1.363 . S
C565 C571 1.363 . S
C566 C567 1.363 . S
C566 C571 1.379 . S
C566 N573 1.356 . S
C567 C566 1.363 . S
C567 C570 1.363 . S
N568 C570 1.356 . S
N568 H580 0.984 . S
N568 H581 0.985 . S
N569 C571 1.356 . S
N569 H574 0.984 . S
N569 H575 0.985 . S
C570 C564 1.379 . S
C570 C567 1.363 . S
C570 N568 1.356 . S
C571 C565 1.363 . S
C571 C566 1.379 . S
C571 N569 1.356 . S
N572 C564 1.356 . S
N572 H578 0.984 . S
N572 H579 0.984 . S
N573 C566 1.356 . S
N573 H576 0.984 . S
N573 H577 0.985 . S
H574 N569 0.984 . S
H575 N569 0.985 . S
H576 N573 0.984 . S
H577 N573 0.985 . S
H578 N572 0.984 . S
H579 N572 0.984 . S
H580 N568 0.984 . S
H581 N568 0.985 . S
C582 C583 1.363 . S
C582 C588 1.379 1_455 S
C582 N590 1.356 . S
C583 C582 1.363 . S
C583 C589 1.363 . S
C584 C585 1.363 . S
C584 C589 1.379 1_655 S
C584 N591 1.356 . S
C585 C584 1.363 . S
C585 C588 1.363 . S
N586 C588 1.356 . S
N586 H598 0.984 . S
N586 H599 0.985 . S
N587 C589 1.356 . S
N587 H592 0.984 . S
N587 H593 0.985 . S
C588 C582 1.379 1_655 S
C588 C585 1.363 . S
C588 N586 1.356 . S
C589 C583 1.363 . S
C589 C584 1.379 1_455 S
C589 N587 1.356 . S
N590 C582 1.356 . S
N590 H596 0.984 . S
N590 H597 0.984 . S
N591 C584 1.356 . S
N591 H594 0.984 . S
N591 H595 0.985 . S
H592 N587 0.984 . S
H593 N587 0.985 . S
H594 N591 0.984 . S
H595 N591 0.985 . S
H596 N590 0.984 . S
H597 N590 0.984 . S
H598 N586 0.984 . S
H599 N586 0.985 . S
C169 C9 1.673 . S
C171 C149 1.673 . S
C187 C23 1.673 . S
C189 C163 1.673 . S
C205 C93 1.673 . S
C207 C37 1.673 . S
C223 C51 1.673 . S
C225 C107 1.673 . S
C241 C121 1.673 . S
C243 C65 1.673 . S
C259 C135 1.673 . S
C261 C79 1.673 . S
C277 C119 1.428 . S
C279 C7 1.428 . S
C295 C21 1.428 . S
C297 C133 1.428 . S
C313 C147 1.428 . S
C315 C35 1.428 . S
C331 C49 1.428 . S
C333 C161 1.428 . S
C349 C63 1.428 . S
C351 C91 1.428 . S
C367 C77 1.428 . S
C369 C105 1.426 1_556 S
C385 C146 1.355 . S
C387 C6 1.355 . S
C403 C160 1.355 . S
C405 C20 1.355 . S
C421 C90 1.355 . S
C423 C34 1.355 . S
C439 C48 1.355 . S
C441 C104 1.355 . S
C457 C62 1.355 . S
C459 C118 1.355 . S
C475 C132 1.355 . S
C477 C76 1.355 . S
C493 C8 1.341 . S
C495 C106 1.341 . S
C511 C120 1.341 . S
C513 C22 1.341 . S
C529 C134 1.341 . S
C531 C36 1.341 . S
C547 C50 1.341 . S
C549 C148 1.341 . S
C565 C64 1.341 . S
C567 C162 1.341 . S
C583 C78 1.341 . S
C585 C92 1.341 . S
