# Generated by pormake.
# Topology wfw, (7)-cn, num edge types: 1
# Building blocks:
#     Node 0, Type 0, BuildingBlock: HICVOG_clean_sbu_0, # of connection points: 7
#     Node 1, Type 0, BuildingBlock: HICVOG_clean_sbu_0, # of connection points: 7
#     Node 2, Type 0, BuildingBlock: HICVOG_clean_sbu_0, # of connection points: 7
#     Node 3, Type 0, BuildingBlock: HICVOG_clean_sbu_0, # of connection points: 7
#     Node 4, Type 0, BuildingBlock: HICVOG_clean_sbu_0, # of connection points: 7
#     Node 5, Type 0, BuildingBlock: HICVOG_clean_sbu_0, # of connection points: 7
#     Node 6, Type 0, BuildingBlock: HICVOG_clean_sbu_0, # of connection points: 7
#     Node 7, Type 0, BuildingBlock: HICVOG_clean_sbu_0, # of connection points: 7
#     Node 8, Type 0, BuildingBlock: HICVOG_clean_sbu_0, # of connection points: 7
#     Node 9, Type 0, BuildingBlock: HICVOG_clean_sbu_0, # of connection points: 7
#     Node 10, Type 0, BuildingBlock: HICVOG_clean_sbu_0, # of connection points: 7
#     Node 11, Type 0, BuildingBlock: HICVOG_clean_sbu_0, # of connection points: 7
#     Node 12, Type 0, BuildingBlock: HICVOG_clean_sbu_0, # of connection points: 7
#     Node 13, Type 0, BuildingBlock: HICVOG_clean_sbu_0, # of connection points: 7
#     Node 14, Type 0, BuildingBlock: HICVOG_clean_sbu_0, # of connection points: 7
#     Node 15, Type 0, BuildingBlock: HICVOG_clean_sbu_0, # of connection points: 7
#     Edge 16, Type (0, 0), BuildingBlock: ZUJKAS_clean_linker_0, # of connection points: 2
#     Edge 17, Type (0, 0), BuildingBlock: ZUJKAS_clean_linker_0, # of connection points: 2
#     Edge 18, Type (0, 0), BuildingBlock: ZUJKAS_clean_linker_0, # of connection points: 2
#     Edge 19, Type (0, 0), BuildingBlock: ZUJKAS_clean_linker_0, # of connection points: 2
#     Edge 20, Type (0, 0), BuildingBlock: ZUJKAS_clean_linker_0, # of connection points: 2
#     Edge 21, Type (0, 0), BuildingBlock: ZUJKAS_clean_linker_0, # of connection points: 2
#     Edge 22, Type (0, 0), BuildingBlock: ZUJKAS_clean_linker_0, # of connection points: 2
#     Edge 23, Type (0, 0), BuildingBlock: ZUJKAS_clean_linker_0, # of connection points: 2
#     Edge 24, Type (0, 0), BuildingBlock: ZUJKAS_clean_linker_0, # of connection points: 2
#     Edge 25, Type (0, 0), BuildingBlock: ZUJKAS_clean_linker_0, # of connection points: 2
#     Edge 26, Type (0, 0), BuildingBlock: ZUJKAS_clean_linker_0, # of connection points: 2
#     Edge 27, Type (0, 0), BuildingBlock: ZUJKAS_clean_linker_0, # of connection points: 2
#     Edge 28, Type (0, 0), BuildingBlock: ZUJKAS_clean_linker_0, # of connection points: 2
#     Edge 29, Type (0, 0), BuildingBlock: ZUJKAS_clean_linker_0, # of connection points: 2
#     Edge 30, Type (0, 0), BuildingBlock: ZUJKAS_clean_linker_0, # of connection points: 2
#     Edge 31, Type (0, 0), BuildingBlock: ZUJKAS_clean_linker_0, # of connection points: 2
#     Edge 32, Type (0, 0), BuildingBlock: ZUJKAS_clean_linker_0, # of connection points: 2
#     Edge 33, Type (0, 0), BuildingBlock: ZUJKAS_clean_linker_0, # of connection points: 2
#     Edge 34, Type (0, 0), BuildingBlock: ZUJKAS_clean_linker_0, # of connection points: 2
#     Edge 35, Type (0, 0), BuildingBlock: ZUJKAS_clean_linker_0, # of connection points: 2
#     Edge 36, Type (0, 0), BuildingBlock: ZUJKAS_clean_linker_0, # of connection points: 2
#     Edge 37, Type (0, 0), BuildingBlock: ZUJKAS_clean_linker_0, # of connection points: 2
#     Edge 38, Type (0, 0), BuildingBlock: ZUJKAS_clean_linker_0, # of connection points: 2
#     Edge 39, Type (0, 0), BuildingBlock: ZUJKAS_clean_linker_0, # of connection points: 2
#     Edge 40, Type (0, 0), BuildingBlock: ZUJKAS_clean_linker_0, # of connection points: 2
#     Edge 41, Type (0, 0), BuildingBlock: ZUJKAS_clean_linker_0, # of connection points: 2
#     Edge 42, Type (0, 0), BuildingBlock: ZUJKAS_clean_linker_0, # of connection points: 2
#     Edge 43, Type (0, 0), BuildingBlock: ZUJKAS_clean_linker_0, # of connection points: 2
#     Edge 44, Type (0, 0), BuildingBlock: ZUJKAS_clean_linker_0, # of connection points: 2
#     Edge 45, Type (0, 0), BuildingBlock: ZUJKAS_clean_linker_0, # of connection points: 2
#     Edge 46, Type (0, 0), BuildingBlock: ZUJKAS_clean_linker_0, # of connection points: 2
#     Edge 47, Type (0, 0), BuildingBlock: ZUJKAS_clean_linker_0, # of connection points: 2
#     Edge 48, Type (0, 0), BuildingBlock: ZUJKAS_clean_linker_0, # of connection points: 2
#     Edge 49, Type (0, 0), BuildingBlock: ZUJKAS_clean_linker_0, # of connection points: 2
#     Edge 50, Type (0, 0), BuildingBlock: ZUJKAS_clean_linker_0, # of connection points: 2
#     Edge 51, Type (0, 0), BuildingBlock: ZUJKAS_clean_linker_0, # of connection points: 2
#     Edge 52, Type (0, 0), BuildingBlock: ZUJKAS_clean_linker_0, # of connection points: 2
#     Edge 53, Type (0, 0), BuildingBlock: ZUJKAS_clean_linker_0, # of connection points: 2
#     Edge 54, Type (0, 0), BuildingBlock: ZUJKAS_clean_linker_0, # of connection points: 2
#     Edge 55, Type (0, 0), BuildingBlock: ZUJKAS_clean_linker_0, # of connection points: 2
#     Edge 56, Type (0, 0), BuildingBlock: ZUJKAS_clean_linker_0, # of connection points: 2
#     Edge 57, Type (0, 0), BuildingBlock: ZUJKAS_clean_linker_0, # of connection points: 2
#     Edge 58, Type (0, 0), BuildingBlock: ZUJKAS_clean_linker_0, # of connection points: 2
#     Edge 59, Type (0, 0), BuildingBlock: ZUJKAS_clean_linker_0, # of connection points: 2
#     Edge 60, Type (0, 0), BuildingBlock: ZUJKAS_clean_linker_0, # of connection points: 2
#     Edge 61, Type (0, 0), BuildingBlock: ZUJKAS_clean_linker_0, # of connection points: 2
#     Edge 62, Type (0, 0), BuildingBlock: ZUJKAS_clean_linker_0, # of connection points: 2
#     Edge 63, Type (0, 0), BuildingBlock: ZUJKAS_clean_linker_0, # of connection points: 2
#     Edge 64, Type (0, 0), BuildingBlock: ZUJKAS_clean_linker_0, # of connection points: 2
#     Edge 65, Type (0, 0), BuildingBlock: ZUJKAS_clean_linker_0, # of connection points: 2
#     Edge 66, Type (0, 0), BuildingBlock: ZUJKAS_clean_linker_0, # of connection points: 2
#     Edge 67, Type (0, 0), BuildingBlock: ZUJKAS_clean_linker_0, # of connection points: 2
#     Edge 68, Type (0, 0), BuildingBlock: ZUJKAS_clean_linker_0, # of connection points: 2
#     Edge 69, Type (0, 0), BuildingBlock: ZUJKAS_clean_linker_0, # of connection points: 2
#     Edge 70, Type (0, 0), BuildingBlock: ZUJKAS_clean_linker_0, # of connection points: 2
#     Edge 71, Type (0, 0), BuildingBlock: ZUJKAS_clean_linker_0, # of connection points: 2
# Relax obj value: 0.095
# Max RMSD: 0.170
# Mean RMSD: 0.170
data_MOF--net-wfw--node1-HICVOG_clean_sbu_0--edge1-ZUJKAS_clean_linker_0
_symmetry_space_group_name_H-M    P1
_symmetry_Int_Tables_number       1
_symmetry_cell_setting            triclinic
loop_
_symmetry_equiv_pos_as_xyz
'x, y, z'
_cell_length_a     57.274071
_cell_length_b     57.395714
_cell_length_c     43.93193
_cell_angle_alpha  89.998116
_cell_angle_beta   90.027209
_cell_angle_gamma 90.038481
loop_
_atom_site_label
_atom_site_type_symbol
_atom_site_fract_x
_atom_site_fract_y
_atom_site_fract_z
_atom_type_partial_charge
Zn0 Zn 0.55235 0.24846 0.4046 0.0
C1 C 0.56414 0.18996 0.35635 0.0
N2 N 0.5824 0.18873 0.37549 0.0
C3 C 0.57822 0.20639 0.39469 0.0
N4 N 0.55853 0.21799 0.38771 0.0
N5 N 0.54939 0.20756 0.3635 0.0
C6 C 0.53152 0.22355 0.28863 0.0
O7 O 0.54184 0.23906 0.30606 0.0
O8 O 0.5494 0.24793 0.45084 0.0
Zn9 Zn 0.51782 0.21153 0.34722 0.0
N10 N 0.5796 0.26695 0.39426 0.0
C11 C 0.60708 0.27735 0.35601 0.0
C12 C 0.58674 0.26588 0.36482 0.0
C13 C 0.59195 0.27925 0.41537 0.0
N14 N 0.61945 0.28956 0.377 0.0
C15 C 0.61246 0.29104 0.40656 0.0
O16 O 0.50341 0.24378 0.35392 0.0
C17 C 0.50683 0.26257 0.3688 0.0
O18 O 0.52406 0.26476 0.38692 0.0
H19 H 0.57686 0.25582 0.34845 0.0
H20 H 0.58622 0.27934 0.43881 0.0
C21 C 0.47727 0.17938 0.35705 0.0
C22 C 0.46421 0.16414 0.37588 0.0
C23 C 0.49348 0.16729 0.414 0.0
C24 C 0.50603 0.18253 0.39573 0.0
N25 N 0.49791 0.18836 0.36764 0.0
N26 N 0.47294 0.15864 0.40379 0.0
H27 H 0.47082 0.18457 0.33492 0.0
C28 C 0.54138 0.26632 0.46325 0.0
O29 O 0.53506 0.28375 0.4457 0.0
O30 O 0.51931 0.20771 0.30129 0.0
H31 H 0.52204 0.18997 0.40428 0.0
H32 H 0.61308 0.27648 0.33269 0.0
H33 H 0.49982 0.16261 0.43638 0.0
Zn34 Zn 0.3121 0.51746 0.34647 0.0
C35 C 0.31947 0.57715 0.39479 0.0
N36 N 0.33749 0.58049 0.3758 0.0
C37 C 0.33554 0.56242 0.35659 0.0
N38 N 0.31712 0.54859 0.36337 0.0
N39 N 0.3069 0.55805 0.38754 0.0
C40 C 0.27645 0.53404 0.46518 0.0
O41 O 0.28291 0.51458 0.45189 0.0
O42 O 0.31535 0.51909 0.30027 0.0
Zn43 Zn 0.2754 0.55317 0.40281 0.0
N44 N 0.33488 0.4971 0.36664 0.0
C45 C 0.35313 0.49123 0.41473 0.0
C46 C 0.33735 0.50306 0.39643 0.0
C47 C 0.34732 0.47897 0.35449 0.0
N48 N 0.36571 0.47354 0.40272 0.0
C49 C 0.36337 0.46677 0.37317 0.0
O50 O 0.25863 0.5248 0.38626 0.0
C51 C 0.26086 0.50731 0.36864 0.0
O52 O 0.27969 0.50367 0.35393 0.0
H53 H 0.32707 0.51701 0.40599 0.0
H54 H 0.34502 0.47438 0.33079 0.0
C55 C 0.24374 0.59198 0.40975 0.0
C56 C 0.23221 0.61243 0.40008 0.0
C57 C 0.24966 0.60796 0.35125 0.0
C58 C 0.26108 0.58793 0.36108 0.0
N59 N 0.25792 0.58034 0.39006 0.0
N60 N 0.23561 0.61966 0.37085 0.0
H61 H 0.24146 0.5851 0.43243 0.0
C62 C 0.29806 0.52934 0.28785 0.0
O63 O 0.28172 0.53799 0.30553 0.0
O64 O 0.27336 0.55217 0.44902 0.0
H65 H 0.27253 0.57852 0.34585 0.0
H66 H 0.35534 0.496 0.43838 0.0
H67 H 0.252 0.61424 0.32824 0.0
Zn68 Zn 0.97208 0.27386 0.40409 0.0
C69 C 0.96263 0.33373 0.35737 0.0
N70 N 0.94392 0.33501 0.37563 0.0
C71 C 0.94713 0.31696 0.39453 0.0
N72 N 0.96675 0.30494 0.38808 0.0
N73 N 0.97667 0.31558 0.36453 0.0
C74 C 0.9943 0.29955 0.28874 0.0
O75 O 0.98371 0.28392 0.30569 0.0
O76 O 0.97504 0.27323 0.45045 0.0
Zn77 Zn 1.00786 0.31067 0.34782 0.0
N78 N 0.94443 0.25632 0.39289 0.0
C79 C 0.9169 0.24731 0.35415 0.0
C80 C 0.93709 0.25867 0.36366 0.0
C81 C 0.93235 0.24303 0.41318 0.0
N82 N 0.90483 0.23404 0.3743 0.0
C83 C 0.91181 0.23146 0.40377 0.0
O84 O 0.02112 0.27803 0.35385 0.0
C85 C 0.01724 0.25907 0.36807 0.0
O86 O 0.99993 0.25691 0.38604 0.0
H87 H 0.94684 0.26943 0.34795 0.0
H88 H 0.93893 0.24141 0.4361 0.0
C89 C 0.04612 0.34571 0.35678 0.0
C90 C 0.0587 0.36113 0.37591 0.0
C91 C 0.03539 0.34905 0.41781 0.0
C92 C 0.02316 0.3339 0.39902 0.0
N93 N 0.02843 0.33262 0.3689 0.0
N94 N 0.0527 0.36225 0.40586 0.0
H95 H 0.05004 0.34441 0.33275 0.0
C96 C 0.98316 0.25478 0.46265 0.0
O97 O 0.98973 0.23758 0.44488 0.0
O98 O 1.00656 0.31511 0.30191 0.0
H99 H 1.00942 0.32319 0.4084 0.0
H100 H 0.91082 0.24902 0.33095 0.0
H101 H 0.0312 0.35032 0.44175 0.0
Zn102 Zn 0.2496 0.97181 0.40368 0.0
C103 C 0.19104 0.95955 0.35514 0.0
N104 N 0.18982 0.94112 0.37384 0.0
C105 C 0.20726 0.94521 0.39351 0.0
N106 N 0.21882 0.96513 0.3871 0.0
N107 N 0.20847 0.97433 0.36285 0.0
C108 C 0.22665 0.99423 0.28788 0.0
O109 O 0.24329 0.98626 0.30565 0.0
O110 O 0.24986 0.97492 0.4499 0.0
Zn111 Zn 0.21206 1.00568 0.3463 0.0
N112 N 0.26843 0.945 0.39281 0.0
C113 C 0.27987 0.91877 0.35365 0.0
C114 C 0.26799 0.93868 0.36302 0.0
C115 C 0.28045 0.93222 0.41375 0.0
N116 N 0.29183 0.906 0.37445 0.0
C117 C 0.29265 0.91215 0.40437 0.0
O118 O 0.24383 0.02082 0.3537 0.0
C119 C 0.26281 0.01774 0.36831 0.0
O120 O 0.26555 1.00041 0.38608 0.0
H121 H 0.25815 0.9489 0.3468 0.0
H122 H 0.28 0.9373 0.43743 0.0
C123 C 0.17592 0.04305 0.35351 0.0
C124 C 0.15873 0.0545 0.3712 0.0
C125 C 0.16726 0.02918 0.41252 0.0
C126 C 0.18418 0.01809 0.39519 0.0
N127 N 0.18808 0.02486 0.36596 0.0
N128 N 0.15499 0.04696 0.40017 0.0
H129 H 0.17932 0.04825 0.33025 0.0
C130 C 0.26842 0.98266 0.46229 0.0
O131 O 0.28599 0.98867 0.44473 0.0
O132 O 0.20897 1.00385 0.30018 0.0
H133 H 0.19418 1.00404 0.40505 0.0
H134 H 0.27952 0.91344 0.33004 0.0
H135 H 0.16392 0.02376 0.4357 0.0
Zn136 Zn 0.01704 0.81188 0.16326 0.0
C137 C 0.07669 0.81672 0.11451 0.0
N138 N 0.08106 0.83441 0.13362 0.0
C139 C 0.06309 0.8331 0.15316 0.0
N140 N 0.0483 0.81547 0.14632 0.0
N141 N 0.05705 0.80509 0.12185 0.0
C142 C 0.03064 0.77173 0.04394 0.0
O143 O 1.01086 0.77037 0.05896 0.0
O144 O 0.01911 0.81464 0.20942 0.0
Zn145 Zn 0.05025 0.77467 0.1051 0.0
N146 N 0.99787 0.836 0.14389 0.0
C147 C 0.99337 0.85678 0.09735 0.0
C148 C 1.00455 0.8399 0.11463 0.0
C149 C 0.97966 0.84808 0.15643 0.0
N150 N 0.97556 0.86897 0.10978 0.0
C151 C 0.96809 0.86521 0.13878 0.0
O152 O 0.02087 0.75914 0.12111 0.0
C153 C 1.00383 0.76189 0.13938 0.0
O154 O 1.00156 0.78041 0.15513 0.0
H155 H 0.01855 0.82991 0.10464 0.0
H156 H 0.97451 0.84463 0.1797 0.0
C157 C 0.08832 0.74196 0.09715 0.0
C158 C 0.10798 0.72919 0.10709 0.0
C159 C 0.10204 0.74401 0.15711 0.0
C160 C 0.08281 0.75664 0.14705 0.0
N161 N 0.07633 0.75539 0.11737 0.0
N162 N 0.11409 0.73069 0.13702 0.0
H163 H 0.08233 0.74127 0.07386 0.0
C164 C 0.02821 0.79669 0.22171 0.0
O165 O 0.03552 0.77979 0.20394 0.0
O166 O 0.04951 0.77476 0.05874 0.0
H167 H 0.07315 0.76755 0.16268 0.0
H168 H 0.99872 0.86013 0.07415 0.0
H169 H 0.10745 0.74483 0.18068 0.0
Zn170 Zn 0.71243 0.01716 0.16436 0.0
C171 C 0.7024 0.0726 0.1098 0.0
N172 N 0.68294 0.07492 0.12649 0.0
C173 C 0.68609 0.05909 0.14862 0.0
N174 N 0.70652 0.04748 0.14554 0.0
N175 N 0.71693 0.05631 0.1211 0.0
C176 C 0.74051 0.03947 0.04215 0.0
O177 O 0.72385 0.02566 0.052 0.0
O178 O 0.70936 0.01961 0.21054 0.0
Zn179 Zn 0.74891 0.05267 0.10732 0.0
N180 N 0.6902 0.99563 0.14512 0.0
C181 C 0.673 0.98764 0.09687 0.0
C182 C 0.68839 1.00026 0.11486 0.0
C183 C 0.67747 0.97803 0.15811 0.0
N184 N 0.6601 0.97051 0.10968 0.0
C185 C 0.6618 0.96505 0.13975 0.0
O186 O 0.76608 0.02468 0.1243 0.0
C187 C 0.76386 1.00743 0.14233 0.0
O188 O 0.74501 1.00388 0.15703 0.0
H189 H 0.69887 0.01382 0.10471 0.0
H190 H 0.6792 0.97446 0.18219 0.0
C191 C 0.78031 0.09157 0.101 0.0
C192 C 0.79132 0.1124 0.11033 0.0
C193 C 0.77232 0.10902 0.15833 0.0
C194 C 0.76138 0.08861 0.14879 0.0
N195 N 0.76554 0.08033 0.12038 0.0
N196 N 0.78691 0.12036 0.13899 0.0
H197 H 0.7834 0.0841 0.07882 0.0
C198 C 0.72688 0.02958 0.22286 0.0
O199 O 0.74334 0.03791 0.20508 0.0
O200 O 0.75181 0.05183 0.06115 0.0
H201 H 0.74949 0.0795 0.16378 0.0
H202 H 0.67132 0.9914 0.07283 0.0
H203 H 0.76918 0.11588 0.18089 0.0
Zn204 Zn 0.50679 0.71101 0.16362 0.0
C205 C 0.44646 0.70557 0.11582 0.0
N206 N 0.4425 0.68796 0.13522 0.0
C207 C 0.46071 0.68947 0.15433 0.0
N208 N 0.47529 0.70718 0.14704 0.0
N209 N 0.46612 0.71744 0.12269 0.0
C210 C 0.49088 0.74687 0.04462 0.0
O211 O 0.51028 0.74001 0.05782 0.0
O212 O 0.50477 0.7086 0.2099 0.0
Zn213 Zn 0.47204 0.74859 0.10713 0.0
N214 N 0.52644 0.68683 0.1446 0.0
C215 C 0.5296 0.66275 0.1006 0.0
C216 C 0.51739 0.67889 0.11788 0.0
C217 C 0.54772 0.6791 0.15469 0.0
N218 N 0.55073 0.65533 0.11029 0.0
C219 C 0.56043 0.66294 0.13678 0.0
O220 O 0.50105 0.76442 0.12359 0.0
C221 C 0.51863 0.7617 0.14101 0.0
O222 O 0.52184 0.74279 0.15569 0.0
H223 H 0.50091 0.68533 0.10954 0.0
H224 H 0.55492 0.68594 0.17564 0.0
C225 C 0.43386 0.78111 0.10029 0.0
C226 C 0.41387 0.79331 0.11025 0.0
C227 C 0.41875 0.77656 0.15941 0.0
C228 C 0.43832 0.76446 0.14931 0.0
N229 N 0.44549 0.76696 0.12004 0.0
N230 N 0.40706 0.79059 0.13976 0.0
H231 H 0.44039 0.78284 0.07735 0.0
C232 C 0.49478 0.72626 0.22173 0.0
O233 O 0.48666 0.7425 0.2035 0.0
O234 O 0.47287 0.75044 0.06089 0.0
H235 H 0.44769 0.753 0.16457 0.0
H236 H 0.5225 0.65641 0.07933 0.0
H237 H 0.4128 0.77475 0.18266 0.0
Zn238 Zn 0.81383 0.5053 0.16516 0.0
C239 C 0.81536 0.44398 0.11917 0.0
N240 N 0.83215 0.43899 0.13944 0.0
C241 C 0.83197 0.45777 0.15761 0.0
N242 N 0.81587 0.47367 0.14891 0.0
N243 N 0.80526 0.4648 0.12464 0.0
C244 C 0.7567 0.48375 0.04927 0.0
O245 O 0.73943 0.49011 0.06709 0.0
O246 O 0.81629 0.50293 0.21118 0.0
Zn247 Zn 0.77506 0.47277 0.10763 0.0
N248 N 0.83995 0.52311 0.14763 0.0
C249 C 0.86944 0.52274 0.10937 0.0
C250 C 0.84999 0.51275 0.12304 0.0
C251 C 0.84835 0.54384 0.15852 0.0
N252 N 0.87804 0.543 0.12046 0.0
C253 C 0.86809 0.5541 0.14454 0.0
O254 O 0.76057 0.50212 0.1251 0.0
C255 C 0.76387 0.51954 0.14257 0.0
O256 O 0.78291 0.52213 0.15728 0.0
H257 H 0.84311 0.49665 0.11407 0.0
H258 H 0.84012 0.55194 0.17801 0.0
C259 C 0.7428 0.43425 0.09728 0.0
C260 C 0.72979 0.41467 0.10661 0.0
C261 C 0.74186 0.42139 0.15759 0.0
C262 C 0.75458 0.44081 0.14825 0.0
N263 N 0.7549 0.44684 0.11836 0.0
N264 N 0.72987 0.40878 0.13663 0.0
H265 H 0.74383 0.43903 0.07352 0.0
C266 C 0.7997 0.49159 0.22356 0.0
O267 O 0.78355 0.48248 0.20595 0.0
O268 O 0.77521 0.47568 0.0614 0.0
H269 H 0.76451 0.45083 0.1646 0.0
H270 H 0.87768 0.51445 0.09005 0.0
H271 H 0.74161 0.41628 0.18129 0.0
Zn272 Zn 0.47217 0.77284 0.60689 0.0
C273 C 0.46106 0.83247 0.65297 0.0
N274 N 0.44303 0.8338 0.63347 0.0
C275 C 0.44683 0.81555 0.61508 0.0
N276 N 0.46614 0.80359 0.62282 0.0
N277 N 0.47534 0.8143 0.64677 0.0
C278 C 0.49712 0.79494 0.72185 0.0
O279 O 0.49013 0.7778 0.70424 0.0
O280 O 0.47142 0.77163 0.56065 0.0
Zn281 Zn 0.50693 0.81073 0.66305 0.0
N282 N 0.44659 0.7537 0.62109 0.0
C283 C 0.42348 0.74082 0.66275 0.0
C284 C 0.44182 0.75415 0.65136 0.0
C285 C 0.4336 0.74059 0.60156 0.0
N286 N 0.41059 0.72761 0.64338 0.0
C287 C 0.41496 0.72709 0.6129 0.0
O288 O 0.52235 0.77921 0.65444 0.0
C289 C 0.5195 0.76052 0.63917 0.0
O290 O 0.50189 0.75768 0.62184 0.0
H291 H 0.45224 0.76482 0.66645 0.0
H292 H 0.43809 0.74043 0.57766 0.0
C293 C 0.54725 0.8432 0.65395 0.0
C294 C 0.55989 0.85929 0.63587 0.0
C295 C 0.52936 0.85862 0.59929 0.0
C296 C 0.51722 0.84251 0.61674 0.0
N297 N 0.52617 0.83504 0.64375 0.0
N298 N 0.55033 0.86645 0.6091 0.0
H299 H 0.55438 0.83669 0.67512 0.0
C300 C 0.48741 0.77907 0.54309 0.0
O301 O 0.50556 0.78978 0.55492 0.0
O302 O 0.5054 0.81321 0.70937 0.0
H303 H 0.5009 0.8357 0.60832 0.0
H304 H 0.41951 0.74093 0.68682 0.0
H305 H 0.52235 0.8646 0.57779 0.0
Zn306 Zn 0.75053 0.47172 0.60811 0.0
C307 C 0.69178 0.45974 0.65607 0.0
N308 N 0.69097 0.44109 0.63763 0.0
C309 C 0.70893 0.44498 0.61874 0.0
N310 N 0.72026 0.46493 0.62524 0.0
N311 N 0.70938 0.47446 0.64882 0.0
C312 C 0.72496 0.49326 0.72366 0.0
O313 O 0.74087 0.48324 0.70657 0.0
O314 O 0.74991 0.47369 0.56185 0.0
Zn315 Zn 0.71291 0.50612 0.66467 0.0
N316 N 0.77025 0.44577 0.61964 0.0
C317 C 0.78679 0.42383 0.66017 0.0
C318 C 0.7726 0.44191 0.64998 0.0
C319 C 0.78131 0.43202 0.59888 0.0
N320 N 0.79814 0.41035 0.63957 0.0
C321 C 0.79582 0.41378 0.60904 0.0
O322 O 0.74493 0.52104 0.65787 0.0
C323 C 0.7637 0.51792 0.64282 0.0
O324 O 0.76611 0.50064 0.62492 0.0
H325 H 0.76357 0.45294 0.66607 0.0
H326 H 0.77924 0.43564 0.57489 0.0
C327 C 0.67788 0.54417 0.65544 0.0
C328 C 0.66115 0.55575 0.6371 0.0
C329 C 0.66887 0.52899 0.59706 0.0
C330 C 0.68533 0.51778 0.61502 0.0
N331 N 0.68941 0.52524 0.64392 0.0
N332 N 0.65723 0.54754 0.60847 0.0
H333 H 0.68143 0.54986 0.67845 0.0
C334 C 0.7684 0.48125 0.54912 0.0
O335 O 0.78599 0.48768 0.5664 0.0
O336 O 0.70891 0.50495 0.71063 0.0
H337 H 0.69485 0.50314 0.60588 0.0
H338 H 0.78891 0.42062 0.68428 0.0
H339 H 0.66539 0.52306 0.57413 0.0
Zn340 Zn 0.05278 0.74999 0.60636 0.0
C341 C 0.06453 0.69064 0.65304 0.0
N342 N 0.08281 0.68949 0.63398 0.0
C343 C 0.0788 0.70734 0.61498 0.0
N344 N 0.0591 0.719 0.62206 0.0
N345 N 0.04991 0.70838 0.6461 0.0
C346 C 0.03119 0.72484 0.72141 0.0
O347 O 0.04115 0.7406 0.70404 0.0
O348 O 0.05249 0.75171 0.56017 0.0
Zn349 Zn 0.0184 0.71197 0.66255 0.0
N350 N 0.07871 0.76906 0.61985 0.0
C351 C 0.10239 0.78183 0.66105 0.0
C352 C 0.08387 0.76857 0.65 0.0
C353 C 0.09152 0.78213 0.60006 0.0
N354 N 0.11508 0.79501 0.64144 0.0
C355 C 0.11034 0.79557 0.61106 0.0
O356 O 1.00333 0.74369 0.65509 0.0
C357 C 1.006 0.76248 0.63999 0.0
O358 O 0.02331 0.76536 0.62218 0.0
H359 H 0.07362 0.75793 0.66528 0.0
H360 H 0.08677 0.78232 0.57624 0.0
C361 C 0.98049 0.67653 0.6546 0.0
C362 C 0.96868 0.65976 0.6366 0.0
C363 C 0.99447 0.668 0.5956 0.0
C364 C 1.00591 0.6845 0.61325 0.0
N365 N 0.99906 0.68834 0.64245 0.0
N366 N 0.97629 0.65608 0.60764 0.0
H367 H 0.97527 0.67991 0.67785 0.0
C368 C 0.035 0.74698 0.54344 0.0
O369 O 0.0159 0.73879 0.55611 0.0
O370 O 0.01971 0.70853 0.70865 0.0
H371 H 0.02024 0.69426 0.60361 0.0
H372 H 0.10666 0.78169 0.68504 0.0
H373 H 0.99992 0.66471 0.57242 0.0
Zn374 Zn 0.8122 0.01731 0.66453 0.0
C375 C 0.81546 0.07835 0.61831 0.0
N376 N 0.83305 0.08265 0.63767 0.0
C377 C 0.83234 0.06409 0.65622 0.0
N378 N 0.81515 0.04899 0.64859 0.0
N379 N 0.80442 0.05816 0.6246 0.0
C380 C 0.77736 0.03359 0.54521 0.0
O381 O 0.78575 0.01456 0.5577 0.0
O382 O 0.8149 0.01889 0.71078 0.0
Zn383 Zn 0.77363 0.0514 0.60841 0.0
N384 N 0.83671 0.99852 0.64485 0.0
C385 C 0.86064 0.99631 0.60058 0.0
C386 C 0.84434 1.008 0.61825 0.0
C387 C 0.84492 0.97733 0.65446 0.0
N388 N 0.86852 0.97526 0.6098 0.0
C389 C 0.86124 0.96517 0.63617 0.0
O390 O 0.75844 0.02195 0.62443 0.0
C391 C 0.76165 1.00448 0.64182 0.0
O392 O 0.78065 1.00178 0.65656 0.0
H393 H 0.83753 0.02442 0.61032 0.0
H394 H 0.83831 0.96979 0.67532 0.0
C395 C 0.74151 0.08973 0.60058 0.0
C396 C 0.72927 0.10969 0.61021 0.0
C397 C 0.74356 0.10374 0.66038 0.0
C398 C 0.75562 0.08401 0.65071 0.0
N399 N 0.75444 0.07743 0.62105 0.0
N400 N 0.73081 0.11614 0.63997 0.0
H401 H 0.74137 0.08439 0.57697 0.0
C402 C 0.79782 0.02975 0.72279 0.0
O403 O 0.78191 0.0387 0.70469 0.0
O404 O 0.77231 0.05086 0.56212 0.0
H405 H 0.76622 0.07421 0.66654 0.0
H406 H 0.86674 1.00374 0.5794 0.0
H407 H 0.74448 0.10929 0.68388 0.0
Zn408 Zn 1.00696 0.2107 0.8475 0.0
C409 C 0.94649 0.20538 0.8951 0.0
N410 N 0.94228 0.18803 0.8754 0.0
C411 C 0.96059 0.18942 0.85642 0.0
N412 N 0.97543 0.20683 0.86406 0.0
N413 N 0.96634 0.217 0.88849 0.0
C414 C 0.98411 0.26645 0.96328 0.0
O415 O 0.99081 0.28356 0.94545 0.0
O416 O 1.00533 0.20662 0.8015 0.0
Zn417 Zn 0.97261 0.24775 0.90491 0.0
N418 N 0.02663 0.18742 0.86796 0.0
C419 C 0.0307 0.16683 0.91471 0.0
C420 C 0.01927 0.18318 0.89686 0.0
C421 C 0.04575 0.17617 0.85636 0.0
N422 N 0.0494 0.15547 0.90322 0.0
C423 C 0.05757 0.15956 0.87461 0.0
O424 O 1.00103 0.26379 0.88707 0.0
C425 C 0.01828 0.26159 0.869 0.0
O426 O 0.02164 0.24282 0.8541 0.0
H427 H 1.00454 0.1925 0.90614 0.0
H428 H 0.05143 0.17986 0.83338 0.0
C429 C 0.93344 0.27934 0.91433 0.0
C430 C 0.91334 0.2916 0.90481 0.0
C431 C 0.91892 0.27676 0.85473 0.0
C432 C 0.93866 0.26473 0.86435 0.0
N433 N 0.94556 0.26624 0.89385 0.0
N434 N 0.90683 0.28983 0.87505 0.0
H435 H 0.93967 0.28025 0.93748 0.0
C436 C 0.99329 0.22237 0.78841 0.0
O437 O 0.98316 0.23824 0.80542 0.0
O438 O 0.97565 0.24811 0.95118 0.0
H439 H 0.94841 0.2541 0.8485 0.0
H440 H 0.02483 0.16324 0.93764 0.0
H441 H 0.91319 0.27571 0.8313 0.0
Zn442 Zn 0.31369 1.00601 0.84671 0.0
C443 C 0.3182 0.94579 0.89454 0.0
N444 N 0.33525 0.94118 0.8745 0.0
C445 C 0.33399 0.95941 0.85544 0.0
N446 N 0.31696 0.97458 0.86337 0.0
N447 N 0.30691 0.9658 0.88807 0.0
C448 C 0.27853 0.98987 0.96679 0.0
O449 O 0.28639 1.00913 0.9543 0.0
O450 O 0.31573 1.0037 0.80061 0.0
Zn451 Zn 0.27596 0.97205 0.90379 0.0
N452 N 0.33952 0.02461 0.86367 0.0
C453 C 0.36884 0.02546 0.90217 0.0
C454 C 0.34956 0.01495 0.88876 0.0
C455 C 0.34772 0.04518 0.85204 0.0
N456 N 0.37727 0.04554 0.89036 0.0
C457 C 0.3673 0.05598 0.86578 0.0
O458 O 0.26092 1.00156 0.88803 0.0
C459 C 0.26375 0.01921 0.87081 0.0
O460 O 0.28248 0.02212 0.85554 0.0
H461 H 0.3428 0.99902 0.89835 0.0
H462 H 0.33949 0.05275 0.83219 0.0
C463 C 0.2429 0.93434 0.91049 0.0
C464 C 0.231 0.91418 0.90079 0.0
C465 C 0.24795 0.91851 0.85178 0.0
C466 C 0.25969 0.93843 0.86152 0.0
N467 N 0.25704 0.9459 0.89065 0.0
N468 N 0.23403 0.90682 0.87159 0.0
H469 H 0.24156 0.94039 0.93374 0.0
C470 C 0.29915 0.99244 0.78806 0.0
O471 O 0.283 0.98317 0.80551 0.0
O472 O 0.27425 0.97236 0.94995 0.0
H473 H 0.27122 0.94765 0.8462 0.0
H474 H 0.37708 0.01771 0.92189 0.0
H475 H 0.25004 0.91224 0.82872 0.0
Zn476 Zn 0.54926 0.27529 0.90484 0.0
C477 C 0.56394 0.33245 0.85538 0.0
N478 N 0.58246 0.33291 0.87412 0.0
C479 C 0.5775 0.3158 0.89387 0.0
N480 N 0.557 0.30531 0.88762 0.0
N481 N 0.54825 0.31589 0.8633 0.0
C482 C 0.53024 0.30024 0.7884 0.0
O483 O 0.53966 0.28428 0.80596 0.0
O484 O 0.54731 0.27579 0.95112 0.0
Zn485 Zn 0.51662 0.31345 0.8469 0.0
N486 N 0.57507 0.25525 0.89344 0.0
C487 C 0.59922 0.24148 0.85327 0.0
C488 C 0.58008 0.25432 0.86326 0.0
C489 C 0.58847 0.24374 0.91422 0.0
N490 N 0.61255 0.22995 0.87389 0.0
C491 C 0.60773 0.23052 0.90424 0.0
O492 O 0.50052 0.28218 0.85429 0.0
C493 C 0.50266 0.26354 0.86984 0.0
O494 O 0.51968 0.26056 0.88812 0.0
H495 H 0.56944 0.26381 0.84717 0.0
H496 H 0.58449 0.24533 0.93817 0.0
C497 C 0.47607 0.34503 0.85698 0.0
C498 C 0.46379 0.36172 0.87448 0.0
C499 C 0.49611 0.36429 0.90818 0.0
C500 C 0.50797 0.34764 0.89126 0.0
N501 N 0.49791 0.33822 0.86602 0.0
N502 N 0.47439 0.37077 0.89957 0.0
H503 H 0.46813 0.33707 0.83718 0.0
C504 C 0.53967 0.25719 0.96343 0.0
O505 O 0.53325 0.23988 0.94574 0.0
O506 O 0.51866 0.3166 0.80087 0.0
H507 H 0.525 0.34205 0.89871 0.0
H508 H 0.60351 0.24071 0.82931 0.0
H509 H 0.50398 0.37179 0.92831 0.0
Zn510 Zn 0.21037 0.51762 0.84613 0.0
C511 C 0.20845 0.57896 0.8919 0.0
N512 N 0.19144 0.58367 0.87183 0.0
C513 C 0.19199 0.56502 0.85343 0.0
N514 N 0.20847 0.54944 0.86186 0.0
N515 N 0.21897 0.5584 0.88617 0.0
C516 C 0.24556 0.53368 0.96667 0.0
O517 O 0.23715 0.51452 0.95451 0.0
O518 O 0.20863 0.51935 0.79979 0.0
Zn519 Zn 0.24925 0.55061 0.90318 0.0
N520 N 0.18416 0.50024 0.86421 0.0
C521 C 0.15725 0.50032 0.90553 0.0
C522 C 0.17604 0.51014 0.89027 0.0
C523 C 0.17439 0.48013 0.85319 0.0
N524 N 0.14739 0.48063 0.89451 0.0
C525 C 0.15531 0.46994 0.86885 0.0
O526 O 0.26307 0.52028 0.88815 0.0
C527 C 0.25961 0.5027 0.87104 0.0
O528 O 0.24088 0.5005 0.85556 0.0
H529 H 0.18409 0.52565 0.89935 0.0
H530 H 0.18117 0.47242 0.83254 0.0
C531 C 0.28253 0.58819 0.91 0.0
C532 C 0.29724 0.60613 0.89927 0.0
C533 C 0.28561 0.59708 0.84862 0.0
C534 C 0.27133 0.57926 0.8594 0.0
N535 N 0.27008 0.57515 0.88978 0.0
N536 N 0.29817 0.60999 0.86868 0.0
H537 H 0.28059 0.58476 0.93404 0.0
C538 C 0.22737 0.52684 0.78756 0.0
O539 O 0.24479 0.53284 0.80539 0.0
O540 O 0.25046 0.55083 0.94948 0.0
H541 H 0.26114 0.56884 0.84376 0.0
H542 H 0.15058 0.50822 0.92613 0.0
H543 H 0.28674 0.60063 0.82449 0.0
H544 H 0.54778 0.14556 0.35377 0.0
H545 H 0.56108 0.11602 0.31727 0.0
H546 H 0.59515 0.16971 0.26478 0.0
H547 H 0.58092 0.19913 0.30043 0.0
H548 H 0.58126 0.13669 0.22815 0.0
H549 H 0.62714 0.0952 0.32532 0.0
H550 H 0.59595 0.09499 0.32887 0.0
H551 H 0.61152 0.12226 0.3291 0.0
C552 C 0.55705 0.15108 0.33352 0.0
C553 C 0.56298 0.17463 0.32954 0.0
C554 C 0.56515 0.13415 0.31305 0.0
C555 C 0.57996 0.14044 0.28884 0.0
C556 C 0.58398 0.16426 0.28336 0.0
H557 H 0.69657 0.07259 0.20603 0.0
H558 H 0.66834 0.08879 0.24207 0.0
C559 C 0.57558 0.18117 0.30354 0.0
C560 C 0.59297 0.12253 0.27081 0.0
H561 H 0.63276 0.07823 0.2772 0.0
C562 C 0.59236 0.12377 0.2389 0.0
C563 C 0.60791 0.1059 0.28476 0.0
C564 C 0.61091 0.10459 0.31886 0.0
C565 C 0.60651 0.1094 0.22063 0.0
C566 C 0.62112 0.09248 0.23455 0.0
C567 C 0.62136 0.09088 0.26645 0.0
C568 C 0.63783 0.07794 0.21652 0.0
C569 C 0.60656 0.11356 0.18668 0.0
C570 C 0.63025 0.06477 0.1914 0.0
C571 C 0.64645 0.05568 0.17067 0.0
C572 C 0.67051 0.05879 0.17531 0.0
C573 C 0.67813 0.06942 0.20231 0.0
C574 C 0.66194 0.07898 0.22272 0.0
H575 H 0.59934 0.13094 0.18075 0.0
H576 H 0.6245 0.11235 0.17725 0.0
H577 H 0.59552 0.10022 0.17541 0.0
H578 H 0.6118 0.06291 0.18663 0.0
H579 H 0.64014 0.04785 0.14979 0.0
H580 H 0.32639 0.57581 0.299 0.0
H581 H 0.35578 0.58983 0.26321 0.0
H582 H 0.4102 0.56152 0.32019 0.0
H583 H 0.38061 0.5484 0.35664 0.0
H584 H 0.41856 0.60486 0.3114 0.0
H585 H 0.39843 0.56846 0.19846 0.0
H586 H 0.37277 0.58163 0.21409 0.0
H587 H 0.38567 0.55677 0.23275 0.0
C588 C 0.34454 0.5714 0.30294 0.0
C589 C 0.35122 0.56051 0.33017 0.0
C590 C 0.36145 0.57957 0.28251 0.0
C591 C 0.3854 0.57673 0.28873 0.0
C592 C 0.39192 0.56398 0.31473 0.0
H593 H 0.47499 0.64457 0.15358 0.0
H594 H 0.46209 0.6146 0.18961 0.0
C595 C 0.37499 0.55611 0.33535 0.0
C596 C 0.4033 0.58998 0.2709 0.0
H597 H 0.41864 0.60573 0.19865 0.0
C598 C 0.41886 0.60464 0.28672 0.0
C599 C 0.40417 0.58965 0.23869 0.0
C600 C 0.38952 0.57306 0.22009 0.0
C601 C 0.43425 0.61972 0.27135 0.0
C602 C 0.43369 0.62081 0.23916 0.0
C603 C 0.41903 0.60526 0.22333 0.0
C604 C 0.44666 0.63894 0.22143 0.0
C605 C 0.45087 0.63437 0.28993 0.0
C606 C 0.44357 0.66276 0.22796 0.0
C607 C 0.45159 0.67988 0.20776 0.0
C608 C 0.46259 0.67355 0.18047 0.0
C609 C 0.4672 0.64991 0.17494 0.0
C610 C 0.45945 0.63277 0.19531 0.0
H611 H 0.4557 0.62538 0.31143 0.0
H612 H 0.46709 0.63843 0.27714 0.0
H613 H 0.44218 0.65096 0.29619 0.0
H614 H 0.43326 0.66816 0.24736 0.0
H615 H 0.44703 0.69792 0.21197 0.0
H616 H 0.8759 0.47572 0.15902 0.0
H617 H 0.9067 0.46305 0.19418 0.0
H618 H 0.85526 0.42659 0.24782 0.0
H619 H 0.82456 0.44005 0.21342 0.0
H620 H 0.88945 0.44176 0.28346 0.0
H621 H 0.92823 0.39714 0.1833 0.0
H622 H 0.92747 0.42832 0.18051 0.0
H623 H 0.90061 0.41205 0.18142 0.0
C624 C 0.8711 0.46609 0.17927 0.0
C625 C 0.84784 0.45919 0.18388 0.0
C626 C 0.88877 0.45838 0.19898 0.0
C627 C 0.88348 0.44311 0.22309 0.0
C628 C 0.85991 0.43815 0.2293 0.0
H629 H 0.94751 0.32479 0.30055 0.0
H630 H 0.93285 0.35448 0.26561 0.0
C631 C 0.84228 0.44607 0.20982 0.0
C632 C 0.90218 0.43031 0.23995 0.0
H633 H 0.94575 0.39009 0.23061 0.0
C634 C 0.90198 0.4307 0.2719 0.0
C635 C 0.91832 0.41549 0.22489 0.0
C636 C 0.91863 0.41298 0.19068 0.0
C637 C 0.91675 0.41623 0.28917 0.0
C638 C 0.93291 0.40143 0.27412 0.0
C639 C 0.93366 0.40162 0.24218 0.0
C640 C 0.94694 0.38365 0.29097 0.0
C641 C 0.91378 0.41594 0.32333 0.0
C642 C 0.96141 0.38989 0.31553 0.0
C643 C 0.96983 0.3728 0.33554 0.0
C644 C 0.9645 0.3492 0.33079 0.0
C645 C 0.95245 0.3428 0.30426 0.0
C646 C 0.94377 0.35986 0.28449 0.0
H647 H 0.89713 0.4242 0.33052 0.0
H648 H 0.9141 0.39783 0.33222 0.0
H649 H 0.92829 0.42579 0.33403 0.0
H650 H 0.96476 0.40806 0.32054 0.0
H651 H 0.97865 0.37821 0.3562 0.0
H652 H 0.1467 0.97615 0.35341 0.0
H653 H 0.11669 0.96282 0.31748 0.0
H654 H 0.16995 0.92935 0.2636 0.0
H655 H 0.19984 0.94359 0.2987 0.0
H656 H 0.13552 0.94279 0.22794 0.0
H657 H 0.09762 0.89628 0.32717 0.0
H658 H 0.09699 0.92742 0.3304 0.0
H659 H 0.12456 0.91238 0.32961 0.0
C660 C 0.15201 0.96704 0.33295 0.0
C661 C 0.17556 0.96116 0.32851 0.0
C662 C 0.13483 0.95894 0.3128 0.0
C663 C 0.14088 0.94423 0.28843 0.0
C664 C 0.16469 0.94043 0.28233 0.0
H665 H 0.07843 0.82445 0.21004 0.0
H666 H 0.09317 0.85425 0.24491 0.0
C667 C 0.18186 0.94882 0.30221 0.0
C668 C 0.12281 0.93078 0.27122 0.0
H669 H 0.0802 0.88938 0.27972 0.0
C670 C 0.12323 0.93132 0.23927 0.0
C671 C 0.10701 0.9154 0.28596 0.0
C672 C 0.10658 0.91259 0.32013 0.0
C673 C 0.10896 0.91652 0.22171 0.0
C674 C 0.09304 0.90126 0.23644 0.0
C675 C 0.09211 0.90125 0.26838 0.0
C676 C 0.07931 0.88339 0.21929 0.0
C677 C 0.11222 0.91645 0.18759 0.0
C678 C 0.06499 0.88959 0.19456 0.0
C679 C 0.05664 0.87247 0.17454 0.0
C680 C 0.06182 0.84887 0.1795 0.0
C681 C 0.07374 0.84249 0.20612 0.0
C682 C 0.08241 0.8596 0.22586 0.0
H683 H 0.12888 0.92488 0.18075 0.0
H684 H 0.11209 0.8984 0.1785 0.0
H685 H 0.09775 0.92628 0.17679 0.0
H686 H 0.06164 0.90774 0.1895 0.0
H687 H 0.04786 0.87782 0.15384 0.0
H688 H 0.3248 0.94192 0.79995 0.0
H689 H 0.3544 0.92758 0.76458 0.0
H690 H 0.40784 0.96316 0.81597 0.0
H691 H 0.37813 0.97659 0.85221 0.0
H692 H 0.38772 0.94121 0.72757 0.0
H693 H 0.42874 0.89734 0.82674 0.0
H694 H 0.40151 0.91283 0.82966 0.0
H695 H 0.42872 0.92854 0.82906 0.0
C696 C 0.34273 0.94756 0.80284 0.0
C697 C 0.34918 0.96059 0.82851 0.0
C698 C 0.35974 0.93912 0.78282 0.0
C699 C 0.38355 0.94354 0.78815 0.0
C700 C 0.38971 0.95882 0.81189 0.0
H701 H 0.47509 0.87758 0.65196 0.0
H702 H 0.46144 0.90758 0.6875 0.0
C703 C 0.37268 0.96698 0.8322 0.0
C704 C 0.4016 0.93026 0.77072 0.0
H705 H 0.44537 0.89009 0.7789 0.0
C706 C 0.4005 0.93023 0.7388 0.0
C707 C 0.41807 0.91552 0.78534 0.0
C708 C 0.41927 0.91331 0.81956 0.0
C709 C 0.41474 0.91549 0.72117 0.0
C710 C 0.43135 0.9009 0.73576 0.0
C711 C 0.43294 0.90145 0.76765 0.0
C712 C 0.44524 0.88317 0.7186 0.0
C713 C 0.41072 0.91474 0.6872 0.0
C714 C 0.44302 0.8594 0.7259 0.0
C715 C 0.45171 0.84226 0.70623 0.0
C716 C 0.46267 0.8486 0.67891 0.0
C717 C 0.46704 0.87227 0.67317 0.0
C718 C 0.45874 0.88942 0.69314 0.0
H719 H 0.39365 0.92252 0.68076 0.0
H720 H 0.42462 0.92485 0.67558 0.0
H721 H 0.41121 0.89656 0.67859 0.0
H722 H 0.43291 0.85402 0.74552 0.0
H723 H 0.44765 0.82415 0.71079 0.0
H724 H 0.69955 0.44465 0.71314 0.0
H725 H 0.6691 0.4307 0.74756 0.0
H726 H 0.61664 0.46282 0.69095 0.0
H727 H 0.64725 0.47592 0.65576 0.0
H728 H 0.63353 0.44451 0.78159 0.0
H729 H 0.59894 0.39572 0.68204 0.0
H730 H 0.6257 0.41215 0.68036 0.0
H731 H 0.59799 0.42681 0.67807 0.0
C732 C 0.68161 0.44969 0.70888 0.0
C733 C 0.67573 0.46159 0.68207 0.0
C734 C 0.66413 0.44147 0.72838 0.0
C735 C 0.64043 0.44496 0.72134 0.0
C736 C 0.63472 0.45923 0.69639 0.0
H737 H 0.54662 0.37651 0.85364 0.0
H738 H 0.55976 0.40688 0.81816 0.0
C739 C 0.65223 0.46718 0.67664 0.0
C740 C 0.62217 0.43149 0.73815 0.0
H741 H 0.58099 0.38877 0.72904 0.0
C742 C 0.62182 0.43254 0.77008 0.0
C743 C 0.6071 0.41552 0.72318 0.0
C744 C 0.60751 0.41224 0.68908 0.0
C745 C 0.60758 0.4176 0.78745 0.0
C746 C 0.59252 0.40161 0.77248 0.0
C747 C 0.59225 0.40118 0.74053 0.0
C748 C 0.57936 0.38325 0.78946 0.0
C749 C 0.60999 0.41813 0.82168 0.0
C750 C 0.58394 0.35963 0.78344 0.0
C751 C 0.57575 0.34227 0.80308 0.0
C752 C 0.56276 0.34817 0.829 0.0
C753 C 0.55621 0.37149 0.83342 0.0
C754 C 0.56417 0.38889 0.81353 0.0
H755 H 0.626 0.42752 0.82904 0.0
H756 H 0.59475 0.42728 0.83164 0.0
H757 H 0.61059 0.40021 0.83116 0.0
H758 H 0.59544 0.35471 0.76495 0.0
H759 H 0.58149 0.32447 0.79962 0.0
H760 H 0.05017 0.64571 0.6522 0.0
H761 H 0.063 0.61566 0.68817 0.0
H762 H 0.0923 0.66907 0.74585 0.0
H763 H 0.07866 0.69889 0.71052 0.0
H764 H 0.10635 0.60658 0.69707 0.0
H765 H 0.06993 0.62638 0.81003 0.0
H766 H 0.05842 0.63945 0.77581 0.0
H767 H 0.0834 0.65199 0.79477 0.0
C768 C 0.05807 0.65101 0.67353 0.0
C769 C 0.06282 0.67462 0.67908 0.0
C770 C 0.06575 0.63382 0.69387 0.0
C771 C 0.07863 0.63993 0.71997 0.0
C772 C 0.08191 0.66372 0.72649 0.0
H773 H 0.19988 0.57887 0.79577 0.0
H774 H 0.16972 0.5922 0.76061 0.0
C775 C 0.07396 0.68088 0.70632 0.0
C776 C 0.09158 0.62177 0.73765 0.0
H777 H 0.10734 0.60621 0.80983 0.0
C778 C 0.10614 0.6062 0.72175 0.0
C779 C 0.09123 0.62077 0.76985 0.0
C780 C 0.07468 0.63539 0.78852 0.0
C781 C 0.12121 0.59077 0.73705 0.0
C782 C 0.12238 0.5913 0.76924 0.0
C783 C 0.10682 0.60587 0.78515 0.0
C784 C 0.14073 0.57855 0.78686 0.0
C785 C 0.13581 0.5742 0.71841 0.0
C786 C 0.13481 0.56578 0.8131 0.0
C787 C 0.15218 0.55829 0.83335 0.0
C788 C 0.17578 0.56317 0.82756 0.0
C789 C 0.18186 0.57417 0.80018 0.0
C790 C 0.16452 0.58191 0.7801 0.0
H791 H 0.12667 0.5693 0.69703 0.0
H792 H 0.15237 0.58292 0.71192 0.0
H793 H 0.14001 0.55806 0.73123 0.0
H794 H 0.11666 0.56296 0.81897 0.0
H795 H 0.14703 0.55048 0.85477 0.0
H796 H 0.97621 0.14491 0.85505 0.0
H797 H 0.96327 0.11526 0.81855 0.0
H798 H 0.93118 0.16898 0.76404 0.0
H799 H 0.94484 0.19842 0.79991 0.0
H800 H 0.9197 0.10544 0.81119 0.0
H801 H 0.95312 0.12813 0.69749 0.0
H802 H 0.96514 0.1408 0.73168 0.0
H803 H 0.93945 0.15309 0.71417 0.0
C804 C 0.96766 0.15041 0.83425 0.0
C805 C 0.96212 0.17398 0.82977 0.0
C806 C 0.95991 0.13344 0.81362 0.0
C807 C 0.94624 0.13972 0.78829 0.0
C808 C 0.94218 0.16353 0.78277 0.0
H809 H 0.82486 0.07726 0.71428 0.0
H810 H 0.85524 0.09088 0.74897 0.0
C811 C 0.95013 0.18047 0.80325 0.0
C812 C 0.93328 0.1216 0.77054 0.0
H813 H 0.9163 0.10689 0.69852 0.0
C814 C 0.91938 0.10547 0.78651 0.0
C815 C 0.93293 0.1212 0.73831 0.0
C816 C 0.94868 0.13659 0.71949 0.0
C817 C 0.90429 0.08999 0.77132 0.0
C818 C 0.90246 0.09099 0.73921 0.0
C819 C 0.91734 0.10617 0.72315 0.0
C820 C 0.8841 0.078 0.72188 0.0
C821 C 0.89034 0.07286 0.78999 0.0
C822 C 0.8899 0.06552 0.69537 0.0
C823 C 0.8724 0.05779 0.67547 0.0
C824 C 0.84879 0.06215 0.68182 0.0
C825 C 0.84288 0.07288 0.70945 0.0
C826 C 0.86035 0.08082 0.72923 0.0
H827 H 0.89986 0.06798 0.81109 0.0
H828 H 0.87364 0.08109 0.79695 0.0
H829 H 0.88637 0.05676 0.77696 0.0
H830 H 0.90802 0.06313 0.68904 0.0
H831 H 0.87741 0.05023 0.65383 0.0
H832 H 0.55698 0.28651 0.00767 0.0
H833 H 0.55669 0.28024 0.06298 0.0
H834 H 0.52024 0.21521 0.05016 0.0
H835 H 0.52073 0.22111 0.99523 0.0
H836 H 0.51919 0.27448 0.10256 0.0
H837 H 0.57491 0.19555 0.10329 0.0
H838 H 0.57252 0.21437 0.07052 0.0
H839 H 0.55019 0.19316 0.07839 0.0
C840 C 0.5489 0.27089 0.01667 0.0
C841 C 0.53897 0.25426 0.99699 0.0
C842 C 0.54878 0.26731 0.04826 0.0
C843 C 0.53885 0.24701 0.0607 0.0
C844 C 0.52854 0.23069 0.0411 0.0
H845 H 0.5125 0.19511 0.24453 0.0
H846 H 0.51426 0.20055 0.18907 0.0
C847 C 0.52871 0.2342 0.00964 0.0
C848 C 0.53864 0.24306 0.09417 0.0
H849 H 0.55506 0.20446 0.14951 0.0
C850 C 0.52718 0.25926 0.11284 0.0
C851 C 0.549 0.22313 0.10759 0.0
C852 C 0.56255 0.20567 0.08897 0.0
C853 C 0.5254 0.25586 0.14444 0.0
C854 C 0.5356 0.23586 0.1578 0.0
C855 C 0.54711 0.21968 0.13918 0.0
C856 C 0.53516 0.23193 0.19122 0.0
C857 C 0.51222 0.27348 0.16325 0.0
C858 C 0.54677 0.24742 0.21071 0.0
C859 C 0.54587 0.24432 0.24222 0.0
C860 C 0.53333 0.22564 0.25503 0.0
C861 C 0.52219 0.20974 0.23543 0.0
C862 C 0.52319 0.21282 0.20376 0.0
H863 H 0.5007 0.28457 0.14896 0.0
H864 H 0.50141 0.26472 0.18084 0.0
H865 H 0.52488 0.28502 0.17504 0.0
H866 H 0.55648 0.26201 0.20152 0.0
H867 H 0.55482 0.25683 0.25654 0.0
H868 H 0.27228 0.56605 0.99647 0.0
H869 H 0.28439 0.56582 0.04984 0.0
H870 H 0.24366 0.50368 0.06516 0.0
H871 H 0.23223 0.50329 0.01152 0.0
H872 H 0.26198 0.56974 0.10106 0.0
H873 H 0.3043 0.48325 0.1008 0.0
H874 H 0.29496 0.49741 0.06624 0.0
H875 H 0.27438 0.48134 0.08911 0.0
C876 C 0.26588 0.55231 0.01119 0.0
C877 C 0.25142 0.53456 0.99962 0.0
C878 C 0.27287 0.55218 0.04174 0.0
C879 C 0.26547 0.53439 0.06152 0.0
C880 C 0.25032 0.51714 0.05024 0.0
H881 H 0.25895 0.5414 0.25662 0.0
H882 H 0.25322 0.54327 0.20186 0.0
C883 C 0.24357 0.51708 0.01958 0.0
C884 C 0.27309 0.53429 0.09405 0.0
H885 H 0.29629 0.49975 0.14986 0.0
C886 C 0.26967 0.55447 0.11159 0.0
C887 C 0.2837 0.51462 0.10785 0.0
C888 C 0.2898 0.49304 0.08992 0.0
C889 C 0.27571 0.55524 0.1426 0.0
C890 C 0.28476 0.53503 0.15689 0.0
C891 C 0.28905 0.51515 0.13912 0.0
C892 C 0.28872 0.53384 0.19043 0.0
C893 C 0.27247 0.57786 0.15961 0.0
C894 C 0.31043 0.52703 0.20257 0.0
C895 C 0.3137 0.52553 0.23423 0.0
C896 C 0.29531 0.53084 0.25426 0.0
C897 C 0.27362 0.53747 0.24195 0.0
C898 C 0.27032 0.53872 0.21051 0.0
H899 H 0.27353 0.59305 0.144 0.0
H900 H 0.2549 0.57804 0.17026 0.0
H901 H 0.28579 0.58001 0.17777 0.0
H902 H 0.32487 0.52298 0.18757 0.0
H903 H 0.33061 0.52036 0.24298 0.0
H904 H 0.97064 0.2671 0.25562 0.0
H905 H 0.96928 0.26258 0.20052 0.0
H906 H 1.01215 0.32383 0.1899 0.0
H907 H 0.014 0.32827 0.24545 0.0
H908 H 0.95286 0.29114 0.15579 0.0
H909 H 0.04783 0.27579 0.14025 0.0
H910 H 0.03409 0.2754 0.1772 0.0
H911 H 0.04081 0.30267 0.15905 0.0
C912 C 0.97982 0.27968 0.24168 0.0
C913 C 0.99263 0.29795 0.25505 0.0
C914 C 0.97898 0.27706 0.21008 0.0
C915 C 0.99094 0.29259 0.191 0.0
C916 C 1.00323 0.31129 0.20417 0.0
H917 H 1.00491 0.30174 0.99475 0.0
H918 H 1.00611 0.30766 0.04974 0.0
C919 C 1.00414 0.3139 0.23592 0.0
C920 C 0.99038 0.289 0.15743 0.0
H921 H 0.02493 0.27846 0.0955 0.0
C922 C 0.96862 0.28833 0.14263 0.0
C923 C 1.01094 0.28522 0.14023 0.0
C924 C 0.03474 0.28458 0.15496 0.0
C925 C 0.96689 0.28429 0.11113 0.0
C926 C 0.98744 0.28052 0.09398 0.0
C927 C 1.00919 0.2813 0.10871 0.0
C928 C 0.9868 0.27637 0.06057 0.0
C929 C 0.94311 0.28455 0.09633 0.0
C930 C 0.97581 0.25656 0.0483 0.0
C931 C 0.97514 0.25304 0.01671 0.0
C932 C 0.98546 0.26929 0.99684 0.0
C933 C 0.99671 0.2889 0.00932 0.0
C934 C 0.99746 0.29233 0.0408 0.0
H935 H 0.92976 0.29279 0.11118 0.0
H936 H 0.94364 0.29405 0.07432 0.0
H937 H 0.93754 0.26638 0.09168 0.0
H938 H 0.96779 0.24381 0.06316 0.0
H939 H 0.96635 0.23775 0.00786 0.0
H940 H 0.19369 1.00147 0.24303 0.0
H941 H 0.19946 0.99881 0.18765 0.0
H942 H 0.27205 0.98213 0.20201 0.0
H943 H 0.2663 0.98401 0.25678 0.0
H944 H 0.22667 0.02306 0.14961 0.0
H945 H 0.25413 0.93098 0.14494 0.0
H946 H 0.24136 0.94366 0.1786 0.0
H947 H 0.27208 0.94712 0.17086 0.0
C948 C 0.21081 0.99708 0.2343 0.0
C949 C 0.22947 0.99276 0.25434 0.0
C950 C 0.2141 0.99556 0.20267 0.0
C951 C 0.23609 0.98973 0.19057 0.0
C952 C 0.25475 0.98588 0.21065 0.0
H953 H 0.2904 0.0214 0.011 0.0
H954 H 0.27912 0.02101 0.06469 0.0
C955 C 0.25144 0.98714 0.24208 0.0
C956 C 0.24002 0.98847 0.15706 0.0
H957 H 0.26432 0.95449 0.10161 0.0
C958 C 0.23465 1.00796 0.13905 0.0
C959 C 0.25004 0.96862 0.14302 0.0
C960 C 0.25448 0.94634 0.16033 0.0
C961 C 0.23981 1.00848 0.10774 0.0
C962 C 0.25136 0.98925 0.09418 0.0
C963 C 0.25589 0.96943 0.11198 0.0
C964 C 0.25881 0.98924 0.06163 0.0
C965 C 0.23254 0.02955 0.08953 0.0
C966 C 0.2522 0.97094 0.0422 0.0
C967 C 0.25911 0.97084 0.01163 0.0
C968 C 0.27269 0.98913 0.99972 0.0
C969 C 0.27974 1.00718 0.01934 0.0
C970 C 0.27308 1.0071 0.05002 0.0
H971 H 0.21761 0.03871 0.10037 0.0
H972 H 0.24734 0.04201 0.0884 0.0
H973 H 0.22749 0.0247 0.06596 0.0
H974 H 0.24138 0.95684 0.05057 0.0
H975 H 0.25335 0.95665 0.99719 0.0
H976 H 0.02214 0.82991 0.26643 0.0
H977 H 0.02525 0.82432 0.3218 0.0
H978 H 0.04012 0.75146 0.30778 0.0
H979 H 0.03777 0.75699 0.25299 0.0
H980 H 1.0007 0.79777 0.3605 0.0
H981 H 0.09249 0.76857 0.36373 0.0
H982 H 0.07965 0.78146 0.33022 0.0
H983 H 0.0756 0.75093 0.33827 0.0
C984 C 0.02622 0.81276 0.27522 0.0
C985 C 0.0299 0.79396 0.25526 0.0
C986 C 0.028 0.80957 0.30685 0.0
C987 C 0.03346 0.78755 0.31903 0.0
C988 C 0.03666 0.76876 0.29905 0.0
H989 H 1.00296 0.73501 0.49981 0.0
H990 H 1.00299 0.7458 0.44597 0.0
C991 C 0.03513 0.77195 0.26761 0.0
C992 C 0.03503 0.78377 0.35256 0.0
H993 H 0.0693 0.75934 0.40769 0.0
C994 C 0.01581 0.78961 0.37088 0.0
C995 C 0.05489 0.77351 0.36635 0.0
C996 C 0.07691 0.7685 0.34865 0.0
C997 C 0.01556 0.78469 0.40226 0.0
C998 C 0.03479 0.77295 0.41561 0.0
C999 C 0.05435 0.76793 0.3975 0.0
C1000 C 0.03505 0.76577 0.44826 0.0
C1001 C 0.99478 0.7924 0.42077 0.0
C1002 C 0.05362 0.77237 0.46734 0.0
C1003 C 0.0539 0.76578 0.49802 0.0
C1004 C 0.03554 0.75251 0.5104 0.0
C1005 C 0.01724 0.74544 0.49113 0.0
C1006 C 0.01712 0.75182 0.46035 0.0
H1007 H 0.98566 0.80732 0.40987 0.0
H1008 H 0.98212 0.77781 0.42244 0.0
H1009 H 1.00001 0.7976 0.44415 0.0
H1010 H 0.06778 0.78294 0.45858 0.0
H1011 H 0.06829 0.77151 0.51218 0.0
H1012 H 0.76657 0.04018 0.25377 0.0
H1013 H 0.77283 0.04111 0.30851 0.0
H1014 H 0.70049 0.02346 0.3233 0.0
H1015 H 0.69428 0.02165 0.26799 0.0
H1016 H 0.75565 0.06755 0.35145 0.0
H1017 H 0.73148 0.97593 0.37651 0.0
H1018 H 0.73517 0.98655 0.33819 0.0
H1019 H 0.70858 0.99231 0.35866 0.0
C1020 C 0.75192 0.03643 0.26857 0.0
C1021 C 0.72992 0.0307 0.25642 0.0
C1022 C 0.75556 0.037 0.29999 0.0
C1023 C 0.73728 0.03202 0.32024 0.0
C1024 C 0.71508 0.02677 0.30825 0.0
H1025 H 0.75167 0.06616 0.51432 0.0
H1026 H 0.74106 0.06618 0.46046 0.0
C1027 C 0.71148 0.0259 0.27661 0.0
C1028 C 0.74179 0.03271 0.35372 0.0
H1029 H 0.73994 1.00005 0.41879 0.0
C1030 C 0.75217 0.05278 0.36616 0.0
C1031 C 0.7376 0.01334 0.37297 0.0
C1032 C 0.72781 0.99073 0.36092 0.0
C1033 C 0.75867 0.05397 0.397 0.0
C1034 C 0.75397 0.03481 0.41641 0.0
C1035 C 0.74343 0.0148 0.40405 0.0
C1036 C 0.76039 0.0349 0.44936 0.0
C1037 C 0.77128 0.07545 0.40811 0.0
C1038 C 0.77429 0.01698 0.4615 0.0
C1039 C 0.78007 0.0167 0.4925 0.0
C1040 C 0.77215 0.0344 0.51207 0.0
C1041 C 0.75832 0.05239 0.49986 0.0
C1042 C 0.75231 0.05249 0.46895 0.0
H1043 H 0.7797 0.08503 0.38906 0.0
H1044 H 0.75854 0.0874 0.41896 0.0
H1045 H 0.7849 0.07097 0.42512 0.0
H1046 H 0.78073 1.00317 0.44695 0.0
H1047 H 0.7907 1.00256 0.50112 0.0
H1048 H 0.48308 0.76594 0.25175 0.0
H1049 H 0.48115 0.77262 0.30635 0.0
H1050 H 0.4998 0.7009 0.32274 0.0
H1051 H 0.50251 0.69423 0.26757 0.0
H1052 H 0.45422 0.75486 0.34928 0.0
H1053 H 0.54657 0.73383 0.37588 0.0
H1054 H 0.53615 0.73708 0.33737 0.0
H1055 H 0.53089 0.71049 0.35793 0.0
C1056 C 0.48684 0.75152 0.26686 0.0
C1057 C 0.49314 0.72957 0.25522 0.0
C1058 C 0.48568 0.75539 0.2982 0.0
C1059 C 0.49066 0.73741 0.31885 0.0
C1060 C 0.49646 0.71525 0.30735 0.0
H1061 H 0.45576 0.75183 0.51264 0.0
H1062 H 0.45595 0.74106 0.45884 0.0
C1063 C 0.49787 0.7114 0.27581 0.0
C1064 C 0.48955 0.74223 0.35222 0.0
H1065 H 0.52196 0.74231 0.4176 0.0
C1066 C 0.46903 0.75205 0.36422 0.0
C1067 C 0.50897 0.73892 0.37173 0.0
C1068 C 0.53197 0.72972 0.3601 0.0
C1069 C 0.46744 0.75881 0.39493 0.0
C1070 C 0.48669 0.75506 0.41457 0.0
C1071 C 0.50715 0.74508 0.40265 0.0
C1072 C 0.48624 0.76186 0.44735 0.0
C1073 C 0.44541 0.77067 0.40568 0.0
C1074 C 0.50346 0.7768 0.45917 0.0
C1075 C 0.5036 0.78275 0.49009 0.0
C1076 C 0.48648 0.77391 0.50993 0.0
C1077 C 0.46911 0.75913 0.49801 0.0
C1078 C 0.46911 0.75303 0.46713 0.0
H1079 H 0.43545 0.77831 0.38641 0.0
H1080 H 0.434 0.75766 0.41699 0.0
H1081 H 0.44936 0.78472 0.42228 0.0
H1082 H 0.51689 0.78384 0.44443 0.0
H1083 H 0.51725 0.79414 0.49847 0.0
H1084 H 0.80397 0.50034 0.51636 0.0
H1085 H 0.80878 0.50123 0.46121 0.0
H1086 H 0.74372 0.46429 0.45027 0.0
H1087 H 0.73853 0.46366 0.5057 0.0
H1088 H 0.81249 0.46499 0.42088 0.0
H1089 H 0.73528 0.51946 0.39309 0.0
H1090 H 0.74629 0.51648 0.43139 0.0
H1091 H 0.72873 0.49379 0.41484 0.0
C1092 C 0.79056 0.4925 0.50229 0.0
C1093 C 0.77076 0.48207 0.51549 0.0
C1094 C 0.79339 0.49299 0.47071 0.0
C1095 C 0.7765 0.48311 0.45152 0.0
C1096 C 0.75675 0.47249 0.46457 0.0
H1097 H 0.76548 0.46938 0.25546 0.0
H1098 H 0.76089 0.46666 0.31054 0.0
C1099 C 0.75384 0.47207 0.49627 0.0
C1100 C 0.77996 0.48366 0.41795 0.0
H1101 H 0.75614 0.50351 0.3515 0.0
C1102 C 0.80019 0.47346 0.40571 0.0
C1103 C 0.76394 0.49475 0.39815 0.0
C1104 C 0.74244 0.50694 0.40997 0.0
C1105 C 0.80468 0.47378 0.37424 0.0
C1106 C 0.78868 0.48489 0.35449 0.0
C1107 C 0.76841 0.49501 0.36669 0.0
C1108 C 0.79235 0.48592 0.321 0.0
C1109 C 0.82628 0.46182 0.36234 0.0
C1110 C 0.81163 0.49767 0.30846 0.0
C1111 C 0.81434 0.49927 0.27679 0.0
C1112 C 0.79775 0.48925 0.25713 0.0
C1113 C 0.77861 0.47733 0.26986 0.0
C1114 C 0.77591 0.47577 0.3014 0.0
H1115 H 0.83365 0.44942 0.37922 0.0
H1116 H 0.82244 0.45221 0.34097 0.0
H1117 H 0.83981 0.47511 0.35728 0.0
H1118 H 0.82434 0.50596 0.32314 0.0
H1119 H 0.82924 0.50861 0.26775 0.0
H1120 H 0.45665 0.76913 0.01216 0.0
H1121 H 0.45691 0.7794 0.95816 0.0
H1122 H 0.52392 0.7461 0.94774 0.0
H1123 H 0.52416 0.73649 1.00199 0.0
H1124 H 0.52364 0.78695 0.91929 0.0
H1125 H 0.4438 0.73849 0.88656 0.0
H1126 H 0.43862 0.75943 0.91608 0.0
H1127 H 0.4575 0.73496 0.92321 0.0
C1128 C 0.47138 0.76382 0.99834 0.0
C1129 C 0.49036 0.75188 0.01143 0.0
C1130 C 0.47145 0.76962 0.96737 0.0
C1131 C 0.49026 0.76321 0.94861 0.0
C1132 C 0.50917 0.75122 0.96164 0.0
H1133 H 0.49085 0.75463 0.75316 0.0
H1134 H 0.48945 0.74885 0.80798 0.0
C1135 C 0.50925 0.74565 0.99268 0.0
C1136 C 0.49053 0.76938 0.9156 0.0
H1137 H 0.4599 0.76364 0.84924 0.0
C1138 C 0.50971 0.78182 0.90396 0.0
C1139 C 0.47247 0.76254 0.89544 0.0
C1140 C 0.45206 0.74792 0.90585 0.0
C1141 C 0.51142 0.78744 0.87284 0.0
C1142 C 0.49311 0.78105 0.85282 0.0
C1143 C 0.47385 0.76879 0.86454 0.0
C1144 C 0.49426 0.78524 0.8193 0.0
C1145 C 0.53324 0.79943 0.86162 0.0
C1146 C 0.49735 0.80771 0.80706 0.0
C1147 C 0.4985 0.81107 0.7754 0.0
C1148 C 0.49614 0.79205 0.75543 0.0
C1149 C 0.49268 0.76971 0.7678 0.0
C1150 C 0.49184 0.76635 0.79926 0.0
H1151 H 0.54792 0.79757 0.87799 0.0
H1152 H 0.53883 0.79231 0.83929 0.0
H1153 H 0.52968 0.81831 0.8588 0.0
H1154 H 0.49868 0.82269 0.82193 0.0
H1155 H 0.50092 0.82852 0.76658 0.0
H1156 H 0.69558 0.51164 0.76717 0.0
H1157 H 0.70049 0.5101 0.82275 0.0
H1158 H 0.76323 0.46957 0.81157 0.0
H1159 H 0.75859 0.47104 0.75646 0.0
H1160 H 0.70483 0.46966 0.86245 0.0
H1161 H 0.784 0.52555 0.8646 0.0
H1162 H 0.76454 0.52437 0.83227 0.0
H1163 H 0.78535 0.50145 0.83856 0.0
C1164 C 0.71039 0.50238 0.77658 0.0
C1165 C 0.72679 0.49165 0.75732 0.0
C1166 C 0.71316 0.50151 0.80831 0.0
C1167 C 0.73246 0.49007 0.82125 0.0
C1168 C 0.74847 0.47887 0.80208 0.0
H1169 H 0.7864 0.46766 1.00473 0.0
H1170 H 0.78024 0.46866 0.94943 0.0
C1171 C 0.74569 0.47966 0.77052 0.0
C1172 C 0.73603 0.48969 0.85475 0.0
H1173 H 0.77401 0.50648 0.91068 0.0
C1174 C 0.71985 0.47784 0.87306 0.0
C1175 C 0.75576 0.50021 0.8685 0.0
C1176 C 0.77334 0.51379 0.85006 0.0
C1177 C 0.7231 0.47584 0.90469 0.0
C1178 C 0.74281 0.48643 0.91847 0.0
C1179 C 0.75896 0.49831 0.90013 0.0
C1180 C 0.74667 0.48587 0.95197 0.0
C1181 C 0.70569 0.46189 0.92295 0.0
C1182 C 0.73011 0.4956 0.97173 0.0
C1183 C 0.73357 0.49504 1.00321 0.0
C1184 C 0.75379 0.48492 0.01571 0.0
C1185 C 0.77064 0.47559 0.99587 0.0
C1186 C 0.76712 0.47612 0.96427 0.0
H1187 H 0.69575 0.44957 0.90835 0.0
H1188 H 0.71448 0.45185 0.94127 0.0
H1189 H 0.69299 0.47394 0.93368 0.0
H1190 H 0.7145 0.50375 0.96279 0.0
H1191 H 0.72029 0.50256 0.01775 0.0
H1192 H 1.01173 0.69667 0.76555 0.0
H1193 H 1.01172 0.70328 0.82088 0.0
H1194 H 0.05324 0.7652 0.8084 0.0
H1195 H 0.05335 0.75886 0.75356 0.0
H1196 H 0.05087 0.7095 0.86366 0.0
H1197 H 0.99395 0.78749 0.85501 0.0
H1198 H 0.99667 0.76648 0.82462 0.0
H1199 H 0.01908 0.78792 0.83053 0.0
C1200 C 0.02095 0.71161 0.77464 0.0
C1201 C 0.03232 0.72736 0.75505 0.0
C1202 C 0.02095 0.71535 0.80623 0.0
C1203 C 0.03216 0.73495 0.81868 0.0
C1204 C 0.04415 0.75019 0.79926 0.0
H1205 H 0.06879 0.76909 0.00616 0.0
H1206 H 0.06919 0.7597 0.95173 0.0
C1207 C 0.04423 0.74646 0.76785 0.0
C1208 C 0.03102 0.73999 0.85183 0.0
H1209 H 1.01158 0.7804 0.903 0.0
C1210 C 0.04219 0.72492 0.87233 0.0
C1211 C 0.01952 0.76003 0.8631 0.0
C1212 C 1.00643 0.77635 0.84226 0.0
C1213 C 0.0426 0.72965 0.90378 0.0
C1214 C 0.03174 0.75011 0.91492 0.0
C1215 C 0.02013 0.76487 0.89444 0.0
C1216 C 0.03168 0.75625 0.94783 0.0
C1217 C 0.05439 0.71256 0.92485 0.0
C1218 C 1.01044 0.7582 0.96354 0.0
C1219 C 1.01013 0.7637 0.99456 0.0
C1220 C 0.03107 0.76754 0.01056 0.0
C1221 C 0.05234 0.76616 0.9946 0.0
C1222 C 0.05262 0.7606 0.96352 0.0
H1223 H 0.05682 0.69528 0.91392 0.0
H1224 H 0.07187 0.71937 0.93118 0.0
H1225 H 0.04413 0.71022 0.94608 0.0
H1226 H 0.99406 0.7551 0.95187 0.0
H1227 H 0.99344 0.76465 0.00606 0.0
H1228 H 0.76168 0.04983 0.75316 0.0
H1229 H 0.75535 0.05217 0.8078 0.0
H1230 H 0.82071 0.01697 0.82371 0.0
H1231 H 0.82706 0.01414 0.76846 0.0
H1232 H 0.7851 0.99908 0.85854 0.0
H1233 H 0.78578 0.09505 0.86902 0.0
H1234 H 0.76538 0.0853 0.84077 0.0
H1235 H 0.79613 0.08023 0.83541 0.0
C1236 C 0.77488 0.04269 0.76815 0.0
C1237 C 0.79494 0.03182 0.75632 0.0
C1238 C 0.77127 0.04421 0.79952 0.0
C1239 C 0.78772 0.03515 0.81999 0.0
C1240 C 0.80783 0.02424 0.80836 0.0
H1241 H 0.77678 0.06296 0.01545 0.0
H1242 H 0.78939 0.06134 0.96236 0.0
C1243 C 0.81146 0.02265 0.77679 0.0
C1244 C 0.7832 0.03632 0.85336 0.0
H1245 H 0.76858 0.07399 0.91053 0.0
C1246 C 0.78174 0.01548 0.86999 0.0
C1247 C 0.77911 0.05773 0.8685 0.0
C1248 C 0.78192 0.08085 0.85257 0.0
C1249 C 0.7755 0.01539 0.90098 0.0
C1250 C 0.77004 0.0367 0.91564 0.0
C1251 C 0.77235 0.05761 0.89927 0.0
C1252 C 0.76206 0.03775 0.94793 0.0
C1253 C 0.77504 0.99245 0.91774 0.0
C1254 C 0.74213 0.02546 0.95752 0.0
C1255 C 0.73492 0.02624 0.98799 0.0
C1256 C 0.74732 0.03956 0.00948 0.0
C1257 C 0.76684 0.05242 0.9996 0.0
C1258 C 0.77411 0.05152 0.9692 0.0
H1259 H 0.78624 0.97924 0.9064 0.0
H1260 H 0.78101 0.99452 0.94164 0.0
H1261 H 0.75691 0.98563 0.918 0.0
H1262 H 0.7321 0.01525 0.94142 0.0
H1263 H 0.71969 0.0163 0.9947 0.0
H1264 H 0.96989 0.25506 0.75542 0.0
H1265 H 0.96787 0.25921 0.70028 0.0
H1266 H 1.01021 0.19769 0.68944 0.0
H1267 H 1.01221 0.19324 0.745 0.0
H1268 H 1.00554 0.26547 0.6606 0.0
H1269 H 0.955 0.18588 0.63135 0.0
H1270 H 0.95649 0.19727 0.66962 0.0
H1271 H 0.98057 0.18109 0.65423 0.0
C1272 C 0.97867 0.24224 0.74142 0.0
C1273 C 0.99128 0.22382 0.75472 0.0
C1274 C 0.9775 0.24469 0.70982 0.0
C1275 C 0.98873 0.22871 0.69066 0.0
C1276 C 1.00111 0.21006 0.70375 0.0
H1277 H 1.00345 0.21933 0.49436 0.0
H1278 H 1.0049 0.21374 0.54938 0.0
C1279 C 1.00234 0.2076 0.73552 0.0
C1280 C 0.98816 0.23231 0.65711 0.0
H1281 H 0.96956 0.20823 0.59021 0.0
C1282 C 0.99763 0.25298 0.64519 0.0
C1283 C 0.97786 0.216 0.63703 0.0
C1284 C 0.96671 0.19388 0.64861 0.0
C1285 C 0.99739 0.25764 0.61377 0.0
C1286 C 0.98692 0.24143 0.59366 0.0
C1287 C 0.97752 0.2207 0.60559 0.0
C1288 C 0.98605 0.24532 0.56013 0.0
C1289 C 1.00888 0.27964 0.60236 0.0
C1290 C 0.97484 0.26493 0.54765 0.0
C1291 C 0.97411 0.2683 0.51602 0.0
C1292 C 0.98437 0.25198 0.49625 0.0
C1293 C 0.9954 0.2323 0.50886 0.0
C1294 C 0.99621 0.22902 0.54038 0.0
H1295 H 0.02137 0.28686 0.61927 0.0
H1296 H 0.01835 0.27646 0.58071 0.0
H1297 H 0.99528 0.29301 0.59812 0.0
H1298 H 0.9664 0.27751 0.56235 0.0
H1299 H 0.96524 0.2835 0.50708 0.0
H1300 H 0.23835 0.96643 0.50631 0.0
H1301 H 0.24361 0.96809 0.56176 0.0
H1302 H 0.3095 1.0032 0.54953 0.0
H1303 H 0.3044 1.00175 0.49442 0.0
H1304 H 0.28172 0.94939 0.59675 0.0
H1305 H 0.27439 0.04528 0.61027 0.0
H1306 H 0.26443 0.03022 0.57659 0.0
H1307 H 0.29499 0.03604 0.58192 0.0
C1308 C 0.25386 0.97467 0.51545 0.0
C1309 C 0.27089 0.98407 0.49589 0.0
C1310 C 0.25687 0.97555 0.54713 0.0
C1311 C 0.27681 0.98606 0.55979 0.0
C1312 C 0.2938 0.99539 0.54031 0.0
H1313 H 0.32863 1.01005 0.74423 0.0
H1314 H 0.32406 1.00753 0.68876 0.0
C1315 C 0.29088 0.99443 0.50875 0.0
C1316 C 0.28029 0.98676 0.59332 0.0
H1317 H 0.28733 0.02399 0.65337 0.0
C1318 C 0.2828 0.96568 0.60918 0.0
C1319 C 0.28191 1.00804 0.60947 0.0
C1320 C 0.2786 0.0312 0.5938 0.0
C1321 C 0.28726 0.96531 0.64067 0.0
C1322 C 0.28877 0.9866 0.65686 0.0
C1323 C 0.28628 1.00768 0.64096 0.0
C1324 C 0.29212 0.98739 0.69045 0.0
C1325 C 0.29083 0.94212 0.65617 0.0
C1326 C 0.27565 0.97705 0.70985 0.0
C1327 C 0.27824 0.97842 0.74144 0.0
C1328 C 0.29726 0.99037 0.75444 0.0
C1329 C 0.31381 1.0007 0.73499 0.0
C1330 C 0.3112 0.99929 0.70329 0.0
H1331 H 0.29594 0.92837 0.63967 0.0
H1332 H 0.30445 0.94331 0.6741 0.0
H1333 H 0.27424 0.93664 0.66706 0.0
H1334 H 0.26052 0.96823 0.70056 0.0
H1335 H 0.26508 0.97035 0.75566 0.0
H1336 H 0.5533 0.26664 0.75661 0.0
H1337 H 0.55577 0.26173 0.70159 0.0
H1338 H 0.51455 0.32378 0.68867 0.0
H1339 H 0.51212 0.32899 0.74406 0.0
H1340 H 0.51862 0.25561 0.66114 0.0
H1341 H 0.57064 0.33417 0.63179 0.0
H1342 H 0.56844 0.32319 0.6702 0.0
H1343 H 0.54488 0.33969 0.65397 0.0
C1344 C 0.54487 0.2794 0.74216 0.0
C1345 C 0.53247 0.29823 0.75481 0.0
C1346 C 0.54629 0.27652 0.71065 0.0
C1347 C 0.53552 0.29246 0.69096 0.0
C1348 C 0.52331 0.31145 0.70341 0.0
H1349 H 0.52107 0.30156 0.49521 0.0
H1350 H 0.51972 0.30691 0.55024 0.0
C1351 C 0.52184 0.31435 0.73507 0.0
C1352 C 0.53643 0.28853 0.65751 0.0
H1353 H 0.55569 0.31204 0.59063 0.0
C1354 C 0.52678 0.26791 0.64571 0.0
C1355 C 0.54711 0.30457 0.63743 0.0
C1356 C 0.55856 0.32657 0.64891 0.0
C1357 C 0.52712 0.26309 0.61433 0.0
C1358 C 0.53783 0.27912 0.59421 0.0
C1359 C 0.54752 0.29973 0.60605 0.0
C1360 C 0.53854 0.27524 0.56071 0.0
C1361 C 0.51545 0.24118 0.60295 0.0
C1362 C 0.54967 0.25564 0.54811 0.0
C1363 C 0.55035 0.25241 0.51647 0.0
C1364 C 0.54011 0.26887 0.49685 0.0
C1365 C 0.52911 0.2885 0.50959 0.0
C1366 C 0.52836 0.29164 0.54111 0.0
H1367 H 0.50302 0.23397 0.61994 0.0
H1368 H 0.50587 0.24448 0.5814 0.0
H1369 H 0.52895 0.22776 0.59848 0.0
H1370 H 0.5581 0.24299 0.56272 0.0
H1371 H 0.55919 0.23725 0.50739 0.0
H1372 H 0.19363 0.52508 0.74274 0.0
H1373 H 0.19962 0.52769 0.68744 0.0
H1374 H 0.27392 0.5336 0.70166 0.0
H1375 H 0.26804 0.53177 0.75645 0.0
H1376 H 0.26008 0.56428 0.66079 0.0
H1377 H 0.22309 0.47788 0.63082 0.0
H1378 H 0.20305 0.49666 0.65039 0.0
H1379 H 0.2288 0.48639 0.66964 0.0
C1380 C 0.21122 0.52684 0.73399 0.0
C1381 C 0.23035 0.52811 0.75402 0.0
C1382 C 0.21466 0.52821 0.70236 0.0
C1383 C 0.2373 0.53047 0.69022 0.0
C1384 C 0.2563 0.53185 0.71032 0.0
H1385 H 0.28578 0.50034 0.50761 0.0
H1386 H 0.27597 0.50059 0.5618 0.0
C1387 C 0.25288 0.53077 0.74175 0.0
C1388 C 0.24157 0.53176 0.65674 0.0
H1389 H 0.23482 0.50196 0.58991 0.0
C1390 C 0.2545 0.55066 0.64529 0.0
C1391 C 0.23459 0.51385 0.63648 0.0
C1392 C 0.22181 0.49243 0.64742 0.0
C1393 C 0.26086 0.55205 0.61443 0.0
C1394 C 0.25349 0.53439 0.59405 0.0
C1395 C 0.24037 0.51558 0.60542 0.0
C1396 C 0.25979 0.53466 0.56109 0.0
C1397 C 0.27615 0.57203 0.60429 0.0
C1398 C 0.25398 0.5537 0.54245 0.0
C1399 C 0.25989 0.55375 0.51151 0.0
C1400 C 0.27135 0.53454 0.49835 0.0
C1401 C 0.277 0.51543 0.51698 0.0
C1402 C 0.27131 0.51551 0.54799 0.0
H1403 H 0.28576 0.5799 0.62372 0.0
H1404 H 0.28905 0.56629 0.58698 0.0
H1405 H 0.26507 0.58581 0.59407 0.0
H1406 H 0.24457 0.56843 0.55171 0.0
H1407 H 0.25503 0.56866 0.49778 0.0
H1408 H 0.56703 0.19606 0.45267 0.0
H1409 H 0.59496 0.18811 0.49334 0.0
H1410 H 0.65046 0.21628 0.4379 0.0
H1411 H 0.62252 0.22287 0.39653 0.0
H1412 H 0.66147 0.17536 0.45333 0.0
H1413 H 0.6314 0.21772 0.55866 0.0
H1414 H 0.60801 0.20098 0.54274 0.0
H1415 H 0.61966 0.22545 0.5219 0.0
C1416 C 0.58502 0.20153 0.44982 0.0
C1417 C 0.59271 0.21026 0.42178 0.0
C1418 C 0.60104 0.19701 0.47312 0.0
C1419 C 0.62496 0.20164 0.46893 0.0
C1420 C 0.63217 0.21247 0.44176 0.0
H1421 H 0.72341 0.15678 0.61108 0.0
H1422 H 0.69994 0.18073 0.5766 0.0
C1423 C 0.61622 0.21646 0.41823 0.0
C1424 C 0.64259 0.19157 0.49018 0.0
H1425 H 0.65488 0.18265 0.5654 0.0
C1426 C 0.66023 0.17739 0.47782 0.0
C1427 C 0.64134 0.19424 0.52218 0.0
C1428 C 0.62422 0.21065 0.53705 0.0
C1429 C 0.67593 0.16517 0.49642 0.0
C1430 C 0.67343 0.16632 0.52843 0.0
C1431 C 0.65652 0.18131 0.54087 0.0
C1432 C 0.68787 0.15176 0.54925 0.0
C1433 C 0.69507 0.15122 0.4814 0.0
C1434 C 0.68874 0.12743 0.54568 0.0
C1435 C 0.70244 0.11374 0.56506 0.0
C1436 C 0.7152 0.12404 0.58886 0.0
C1437 C 0.71385 0.14833 0.59288 0.0
C1438 C 0.70041 0.16204 0.57321 0.0
H1439 H 0.69957 0.15846 0.45868 0.0
H1440 H 0.71114 0.15088 0.49555 0.0
H1441 H 0.68898 0.13306 0.47796 0.0
H1442 H 0.67861 0.11894 0.52807 0.0
H1443 H 0.70254 0.09504 0.56182 0.0
H1444 H 0.31768 0.56435 0.45423 0.0
H1445 H 0.32443 0.59 0.49796 0.0
H1446 H 0.32441 0.64953 0.43797 0.0
H1447 H 0.31658 0.624 0.39473 0.0
H1448 H 0.36434 0.61309 0.50103 0.0
H1449 H 0.29333 0.67763 0.5108 0.0
H1450 H 0.29003 0.65093 0.48947 0.0
H1451 H 0.30387 0.67595 0.47246 0.0
C1452 C 0.3175 0.58303 0.4508 0.0
C1453 C 0.31588 0.59232 0.42136 0.0
C1454 C 0.32179 0.59768 0.4757 0.0
C1455 C 0.32475 0.62179 0.47141 0.0
C1456 C 0.32159 0.63115 0.44215 0.0
H1457 H 0.40325 0.73325 0.55227 0.0
H1458 H 0.37992 0.70724 0.52023 0.0
C1459 C 0.31719 0.61654 0.41738 0.0
C1460 C 0.33517 0.63647 0.49583 0.0
H1461 H 0.33098 0.68943 0.53106 0.0
C1462 C 0.35676 0.62955 0.50806 0.0
C1463 C 0.32546 0.65808 0.50484 0.0
C1464 C 0.30178 0.66595 0.49391 0.0
C1465 C 0.36932 0.64401 0.52796 0.0
C1466 C 0.36001 0.66594 0.53607 0.0
C1467 C 0.33815 0.67266 0.52458 0.0
C1468 C 0.37311 0.68222 0.55595 0.0
C1469 C 0.39292 0.63614 0.53927 0.0
C1470 C 0.37677 0.67688 0.58671 0.0
C1471 C 0.39022 0.69159 0.60505 0.0
C1472 C 0.40043 0.71191 0.59298 0.0
C1473 C 0.39626 0.71747 0.56222 0.0
C1474 C 0.38267 0.70277 0.54392 0.0
H1475 H 0.39938 0.62058 0.52683 0.0
H1476 H 0.40595 0.65037 0.53691 0.0
H1477 H 0.39166 0.63164 0.56378 0.0
H1478 H 0.36938 0.66119 0.59648 0.0
H1479 H 0.39296 0.6868 0.62863 0.0
H1480 H 0.83852 0.39448 0.61872 0.0
H1481 H 0.86181 0.37096 0.58375 0.0
H1482 H 0.80679 0.37472 0.51689 0.0
H1483 H 0.78352 0.39866 0.55154 0.0
H1484 H 0.8553 0.32916 0.55623 0.0
H1485 H 0.8617 0.39899 0.46922 0.0
H1486 H 0.85037 0.40425 0.50686 0.0
H1487 H 0.8322 0.39107 0.47819 0.0
C1488 C 0.83134 0.39031 0.59656 0.0
C1489 C 0.80936 0.39891 0.58771 0.0
C1490 C 0.84468 0.37679 0.57662 0.0
C1491 C 0.83629 0.37142 0.54745 0.0
C1492 C 0.81394 0.37919 0.53895 0.0
H1493 H 0.90084 0.30992 0.38948 0.0
H1494 H 0.87207 0.31768 0.42932 0.0
C1495 C 0.80066 0.39295 0.55878 0.0
C1496 C 0.85128 0.35832 0.52574 0.0
H1497 H 0.87732 0.36233 0.45607 0.0
C1498 C 0.86008 0.33638 0.53429 0.0
C1499 C 0.85773 0.36783 0.49723 0.0
C1500 C 0.85022 0.39191 0.48739 0.0
C1501 C 0.87495 0.32365 0.51493 0.0
C1502 C 0.88116 0.33313 0.48641 0.0
C1503 C 0.87228 0.35496 0.47784 0.0
C1504 C 0.89764 0.32152 0.46522 0.0
C1505 C 0.88382 0.30014 0.52494 0.0
C1506 C 0.92147 0.31979 0.47255 0.0
C1507 C 0.93794 0.31515 0.44975 0.0
C1508 C 0.93071 0.31223 0.41947 0.0
C1509 C 0.90676 0.31179 0.41279 0.0
C1510 C 0.89034 0.31635 0.43549 0.0
H1511 H 0.87356 0.29306 0.5443 0.0
H1512 H 0.88322 0.28751 0.5058 0.0
H1513 H 0.90228 0.30181 0.5323 0.0
H1514 H 0.92754 0.32413 0.49521 0.0
H1515 H 0.95635 0.31635 0.45522 0.0
H1516 H 0.20815 0.95811 0.45301 0.0
H1517 H 0.20095 0.93243 0.49653 0.0
H1518 H 0.2028 0.87285 0.43669 0.0
H1519 H 0.21109 0.89842 0.39368 0.0
H1520 H 0.16124 0.90904 0.49828 0.0
H1521 H 0.23247 0.84499 0.5106 0.0
H1522 H 0.23599 0.87165 0.48925 0.0
H1523 H 0.22262 0.8465 0.47193 0.0
C1524 C 0.20868 0.93944 0.44961 0.0
C1525 C 0.21087 0.93016 0.42022 0.0
C1526 C 0.2041 0.92476 0.47438 0.0
C1527 C 0.20146 0.90061 0.47004 0.0
C1528 C 0.20532 0.89126 0.44093 0.0
H1529 H 0.12159 0.78935 0.55028 0.0
H1530 H 0.14501 0.81518 0.51805 0.0
C1531 C 0.21 0.90591 0.41628 0.0
C1532 C 0.19066 0.88586 0.49411 0.0
H1533 H 0.19458 0.83304 0.5298 0.0
C1534 C 0.1688 0.89266 0.50562 0.0
C1535 C 0.20034 0.86433 0.50352 0.0
C1536 C 0.22426 0.85657 0.49339 0.0
C1537 C 0.15601 0.87819 0.52525 0.0
C1538 C 0.16532 0.85636 0.53378 0.0
C1539 C 0.1874 0.84972 0.52297 0.0
C1540 C 0.15209 0.8402 0.55368 0.0
C1541 C 0.13221 0.88596 0.53591 0.0
C1542 C 0.14853 0.84563 0.58443 0.0
C1543 C 0.13506 0.83102 0.60287 0.0
C1544 C 0.12472 0.81072 0.59092 0.0
C1545 C 0.12872 0.80511 0.56014 0.0
C1546 C 0.14234 0.8197 0.54174 0.0
H1547 H 0.12591 0.90154 0.52335 0.0
H1548 H 0.11928 0.87169 0.53309 0.0
H1549 H 0.13305 0.89037 0.56048 0.0
H1550 H 0.15603 0.8613 0.59411 0.0
H1551 H 0.13245 0.83586 0.62646 0.0
H1552 H 0.22555 0.86707 0.90264 0.0
H1553 H 0.20005 0.84429 0.93594 0.0
H1554 H 0.17554 0.90766 0.97795 0.0
H1555 H 0.20158 0.93044 0.94545 0.0
H1556 H 0.18399 0.87653 0.01958 0.0
H1557 H 0.13142 0.83397 0.92949 0.0
H1558 H 0.16202 0.82799 0.92602 0.0
H1559 H 0.15153 0.85736 0.92147 0.0
C1560 C 0.21468 0.87614 0.91896 0.0
C1561 C 0.21569 0.90056 0.92149 0.0
C1562 C 0.19995 0.86309 0.93782 0.0
C1563 C 0.18543 0.87422 0.95908 0.0
C1564 C 0.1865 0.89862 0.96171 0.0
H1565 H 0.06462 0.82785 0.05698 0.0
H1566 H 0.09233 0.83782 0.01658 0.0
C1567 C 0.2015 0.91165 0.9432 0.0
C1568 C 0.1697 0.86054 0.97937 0.0
H1569 H 0.12546 0.82042 0.98003 0.0
C1570 C 0.1712 0.86426 0.01088 0.0
C1571 C 0.1528 0.84467 0.96807 0.0
C1572 C 0.14914 0.84091 0.93441 0.0
C1573 C 0.15622 0.8529 0.03134 0.0
C1574 C 0.13979 0.83648 0.02017 0.0
C1575 C 0.13834 0.83261 0.98866 0.0
C1576 C 0.12266 0.82493 0.04074 0.0
C1577 C 0.15751 0.8595 0.06459 0.0
C1578 C 0.13017 0.81268 0.06668 0.0
C1579 C 0.11436 0.80729 0.0899 0.0
C1580 C 0.09073 0.81324 0.08696 0.0
C1581 C 0.08274 0.82276 0.05946 0.0
C1582 C 0.09862 0.82862 0.03649 0.0
H1583 H 0.16654 0.87645 0.068 0.0
H1584 H 0.13981 0.86076 0.07475 0.0
H1585 H 0.1675 0.84602 0.07715 0.0
H1586 H 0.14852 0.80894 0.07003 0.0
H1587 H 0.12088 0.80013 0.11109 0.0
H1588 H 0.68327 0.06492 0.05505 0.0
H1589 H 0.67691 0.09423 0.01574 0.0
H1590 H 0.72163 0.14206 0.06429 0.0
H1591 H 0.72731 0.11273 0.10427 0.0
H1592 H 0.68045 0.16058 0.0557 0.0
H1593 H 0.70832 0.12461 0.94537 0.0
H1594 H 0.68994 0.10405 0.96451 0.0
H1595 H 0.71761 0.11208 0.98108 0.0
C1596 C 0.69264 0.0813 0.05648 0.0
C1597 C 0.70614 0.08649 0.08221 0.0
C1598 C 0.68902 0.09809 0.03398 0.0
C1599 C 0.69893 0.12039 0.03678 0.0
C1600 C 0.71391 0.12496 0.06148 0.0
H1601 H 0.65425 0.22175 0.8986 0.0
H1602 H 0.67896 0.19773 0.9314 0.0
C1603 C 0.71742 0.10813 0.08413 0.0
C1604 C 0.69038 0.13967 0.01703 0.0
H1605 H 0.67655 0.15289 0.94342 0.0
C1606 C 0.68007 0.15911 0.03109 0.0
C1607 C 0.69003 0.13805 0.98489 0.0
C1608 C 0.70232 0.11867 0.96813 0.0
C1609 C 0.66832 0.1762 0.0141 0.0
C1610 C 0.66621 0.17349 0.98219 0.0
C1611 C 0.67771 0.1548 0.96794 0.0
C1612 C 0.65149 0.18929 0.96334 0.0
C1613 C 0.65818 0.1969 0.03065 0.0
C1614 C 0.62775 0.19258 0.97028 0.0
C1615 C 0.61362 0.20653 0.95174 0.0
C1616 C 0.62285 0.21719 0.92554 0.0
C1617 C 0.64659 0.21382 0.91863 0.0
C1618 C 0.66076 0.20008 0.93735 0.0
H1619 H 0.66797 0.20059 0.05196 0.0
H1620 H 0.65839 0.21278 0.01621 0.0
H1621 H 0.63985 0.19303 0.03704 0.0
H1622 H 0.61995 0.18386 0.98962 0.0
H1623 H 0.59529 0.20821 0.95737 0.0
H1624 H 0.46006 0.70602 0.05663 0.0
H1625 H 0.43485 0.69825 0.0127 0.0
H1626 H 0.37444 0.70059 0.07126 0.0
H1627 H 0.39956 0.7093 0.11468 0.0
H1628 H 0.41141 0.65853 0.01101 0.0
H1629 H 0.34768 0.72965 0.99589 0.0
H1630 H 0.37426 0.73336 0.01752 0.0
H1631 H 0.34883 0.72047 0.03486 0.0
C1632 C 0.44131 0.70647 0.05963 0.0
C1633 C 0.43166 0.70895 0.08879 0.0
C1634 C 0.4269 0.7016 0.03463 0.0
C1635 C 0.40266 0.69896 0.03852 0.0
C1636 C 0.39294 0.70308 0.06737 0.0
H1637 H 0.31392 0.59591 0.95716 0.0
H1638 H 0.33915 0.61986 0.98896 0.0
C1639 C 0.40732 0.70803 0.09224 0.0
C1640 C 0.38816 0.68794 0.01434 0.0
H1641 H 0.33552 0.69151 0.97793 0.0
C1642 C 0.39502 0.66598 1.00339 0.0
C1643 C 0.3668 0.6976 1.00416 0.0
C1644 C 0.3591 0.72168 0.0135 0.0
C1645 C 0.38072 0.65303 0.98372 0.0
C1646 C 0.35864 0.66199 0.97524 0.0
C1647 C 0.35223 0.68442 0.98493 0.0
C1648 C 0.34197 0.64814 0.9566 0.0
C1649 C 0.38938 0.62979 0.97232 0.0
C1650 C 0.33439 0.65642 0.92825 0.0
C1651 C 0.31957 0.6429 0.91007 0.0
C1652 C 0.31181 0.62083 0.91992 0.0
C1653 C 0.31905 0.61287 0.94876 0.0
C1654 C 0.33383 0.62645 0.96692 0.0
H1655 H 0.40873 0.62863 0.9734 0.0
H1656 H 0.38212 0.61572 0.98683 0.0
H1657 H 0.38375 0.62662 0.94848 0.0
H1658 H 0.34033 0.67316 0.91987 0.0
H1659 H 0.31432 0.64972 0.88813 0.0
H1660 H 0.80736 0.39764 0.11831 0.0
H1661 H 0.81691 0.3715 0.07607 0.0
H1662 H 0.82761 0.43083 0.01754 0.0
H1663 H 0.81815 0.45702 0.05989 0.0
H1664 H 0.80403 0.36681 0.00741 0.0
H1665 H 0.89361 0.39769 0.03646 0.0
H1666 H 0.86928 0.40116 0.06217 0.0
H1667 H 0.87167 0.41944 0.02921 0.0
C1668 C 0.81058 0.40502 0.096 0.0
C1669 C 0.81173 0.42927 0.09216 0.0
C1670 C 0.81613 0.39009 0.07194 0.0
C1671 C 0.82319 0.39926 0.04383 0.0
C1672 C 0.82214 0.42344 0.03908 0.0
H1673 H 0.88229 0.3255 0.88872 0.0
H1674 H 0.85916 0.35069 0.9216 0.0
C1675 C 0.81641 0.43839 0.06316 0.0
C1676 C 0.83553 0.38397 0.02192 0.0
H1677 H 0.89041 0.36914 0.99842 0.0
C1678 C 0.82288 0.36742 1.00516 0.0
C1679 C 0.86017 0.38455 0.01958 0.0
C1680 C 0.87463 0.40152 0.03788 0.0
C1681 C 0.83431 0.35151 0.98586 0.0
C1682 C 0.85894 0.3522 0.98346 0.0
C1683 C 0.87154 0.3687 1.00032 0.0
C1684 C 0.87211 0.33597 0.96359 0.0
C1685 C 0.82009 0.33372 0.96868 0.0
C1686 C 0.88724 0.31939 0.9763 0.0
C1687 C 0.90052 0.30475 0.95758 0.0
C1688 C 0.89923 0.30668 0.9256 0.0
C1689 C 0.88385 0.32333 0.91312 0.0
C1690 C 0.87048 0.33778 0.93188 0.0
H1691 H 0.80184 0.33272 0.97713 0.0
H1692 H 0.81963 0.33853 0.94422 0.0
H1693 H 0.82822 0.31621 0.97051 0.0
H1694 H 0.88872 0.31773 1.0008 0.0
H1695 H 0.91151 0.29189 0.9684 0.0
H1696 H 0.40357 0.7965 0.61298 0.0
H1697 H 0.37488 0.80292 0.5724 0.0
H1698 H 0.42825 0.83565 0.51772 0.0
H1699 H 0.45694 0.82807 0.5576 0.0
H1700 H 0.36184 0.84407 0.55922 0.0
H1701 H 0.39258 0.80581 0.45154 0.0
H1702 H 0.40492 0.79754 0.48776 0.0
H1703 H 0.41542 0.82301 0.46795 0.0
C1704 C 0.40931 0.80387 0.59154 0.0
C1705 C 0.4324 0.81147 0.58801 0.0
C1706 C 0.39291 0.80778 0.56848 0.0
C1707 C 0.39928 0.8198 0.54182 0.0
C1708 C 0.42286 0.82583 0.53754 0.0
H1709 H 0.31816 0.92615 0.45425 0.0
H1710 H 0.3423 0.90194 0.48739 0.0
C1711 C 0.43932 0.82151 0.56038 0.0
C1712 C 0.38097 0.82961 0.52136 0.0
H1713 H 0.36771 0.84013 0.44679 0.0
C1714 C 0.36292 0.84276 0.53463 0.0
C1715 C 0.38203 0.82786 0.48924 0.0
C1716 C 0.39965 0.81256 0.47338 0.0
C1717 C 0.34665 0.85494 0.51683 0.0
C1718 C 0.3489 0.85477 0.48476 0.0
C1719 C 0.36621 0.84072 0.47139 0.0
C1720 C 0.33387 0.86945 0.4648 0.0
C1721 C 0.3272 0.86785 0.53273 0.0
C1722 C 0.32159 0.85946 0.44041 0.0
C1723 C 0.308 0.87335 0.42113 0.0
C1724 C 0.30625 0.89753 0.42593 0.0
C1725 C 0.31857 0.90752 0.45037 0.0
C1726 C 0.3324 0.89366 0.46939 0.0
H1727 H 0.32312 0.85985 0.55515 0.0
H1728 H 0.33274 0.88609 0.53696 0.0
H1729 H 0.31102 0.86808 0.5188 0.0
H1730 H 0.3225 0.84088 0.43626 0.0
H1731 H 0.29879 0.86513 0.40246 0.0
H1732 H 0.65973 0.29608 0.40719 0.0
H1733 H 0.68345 0.31986 0.44158 0.0
H1734 H 0.62106 0.34227 0.48809 0.0
H1735 H 0.59737 0.318 0.45444 0.0
H1736 H 0.68539 0.36495 0.45076 0.0
H1737 H 0.65985 0.32339 0.55911 0.0
H1738 H 0.65249 0.3109 0.52269 0.0
H1739 H 0.63468 0.33361 0.53892 0.0
C1740 C 0.65109 0.30589 0.42498 0.0
C1741 C 0.62669 0.30482 0.42838 0.0
C1742 C 0.66468 0.31952 0.44459 0.0
C1743 C 0.65416 0.33255 0.46789 0.0
C1744 C 0.62973 0.3318 0.471 0.0
H1745 H 0.6991 0.45518 0.56025 0.0
H1746 H 0.69098 0.42654 0.52055 0.0
C1747 C 0.61615 0.31791 0.45168 0.0
C1748 C 0.66859 0.34749 0.48831 0.0
H1749 H 0.67721 0.36132 0.56296 0.0
C1750 C 0.68385 0.36394 0.47533 0.0
C1751 C 0.66715 0.34588 0.5204 0.0
C1752 C 0.65286 0.3273 0.53607 0.0
C1753 C 0.69681 0.37948 0.4935 0.0
C1754 C 0.69392 0.37905 0.52551 0.0
C1755 C 0.67943 0.36191 0.53845 0.0
C1756 C 0.70418 0.39702 0.54611 0.0
C1757 C 0.7135 0.39607 0.47811 0.0
C1758 C 0.71493 0.3903 0.57354 0.0
C1759 C 0.71906 0.40668 0.5965 0.0
C1760 C 0.71306 0.4301 0.59212 0.0
C1761 C 0.70445 0.43726 0.56375 0.0
C1762 C 0.69981 0.42083 0.54102 0.0
H1763 H 0.72054 0.38839 0.45679 0.0
H1764 H 0.70403 0.41222 0.47181 0.0
H1765 H 0.72835 0.40075 0.49317 0.0
H1766 H 0.71855 0.37211 0.57809 0.0
H1767 H 0.72534 0.40077 0.61846 0.0
H1768 H 0.2295 0.61307 0.46353 0.0
H1769 H 0.20241 0.63524 0.49495 0.0
H1770 H 0.17267 0.66658 0.41479 0.0
H1771 H 0.1991 0.64398 0.38275 0.0
H1772 H 0.187 0.69779 0.47194 0.0
H1773 H 0.12683 0.62293 0.4912 0.0
H1774 H 0.15774 0.61768 0.49459 0.0
H1775 H 0.14554 0.62476 0.45817 0.0
C1776 C 0.21704 0.62427 0.45225 0.0
C1777 C 0.21632 0.62617 0.42024 0.0
C1778 C 0.20171 0.63719 0.47044 0.0
C1779 C 0.18554 0.65245 0.45714 0.0
C1780 C 0.18507 0.65489 0.42545 0.0
H1781 H 0.06509 0.70519 0.55605 0.0
H1782 H 0.0907 0.69702 0.51263 0.0
C1783 C 0.20024 0.64188 0.4072 0.0
C1784 C 0.16859 0.66525 0.47632 0.0
H1785 H 0.11937 0.65737 0.51877 0.0
C1786 C 0.1721 0.68906 0.48206 0.0
C1787 C 0.14906 0.65384 0.48909 0.0
C1788 C 0.14433 0.62841 0.48294 0.0
C1789 C 0.15691 0.70159 0.5012 0.0
C1790 C 0.13783 0.68995 0.51483 0.0
C1791 C 0.13394 0.66632 0.50819 0.0
C1792 C 0.12277 0.70108 0.53817 0.0
C1793 C 0.16144 0.72711 0.50686 0.0
C1794 C 0.13231 0.70709 0.56655 0.0
C1795 C 0.11768 0.71189 0.59122 0.0
C1796 C 0.09334 0.711 0.58784 0.0
C1797 C 0.0838 0.70686 0.55892 0.0
C1798 C 0.09843 0.70187 0.53424 0.0
H1799 H 0.17246 0.73486 0.48869 0.0
H1800 H 0.1448 0.73698 0.50832 0.0
H1801 H 0.17078 0.72913 0.52884 0.0
H1802 H 0.15097 0.70615 0.5703 0.0
H1803 H 0.12537 0.71449 0.61351 0.0
H1804 H 0.88059 0.19776 0.38744 0.0
H1805 H 0.85761 0.17227 0.42023 0.0
H1806 H 0.88768 0.20465 0.49956 0.0
H1807 H 0.91031 0.23073 0.46726 0.0
H1808 H 0.88947 0.15348 0.49666 0.0
H1809 H 0.80063 0.1895 0.47647 0.0
H1810 H 0.81821 0.18381 0.44334 0.0
H1811 H 0.8269 0.20614 0.46957 0.0
C1812 C 0.88227 0.19972 0.41186 0.0
C1813 C 0.89776 0.21624 0.42443 0.0
C1814 C 0.869 0.18511 0.43056 0.0
C1815 C 0.87083 0.18669 0.46227 0.0
C1816 C 0.88605 0.20318 0.47506 0.0
H1817 H 0.8074 0.12468 0.61761 0.0
H1818 H 0.81655 0.15086 0.5752 0.0
C1819 C 0.89923 0.21794 0.4564 0.0
C1820 C 0.85784 0.17029 0.48211 0.0
H1821 H 0.80315 0.15542 0.50672 0.0
C1822 C 0.87061 0.15383 0.49878 0.0
C1823 C 0.83322 0.17087 0.48479 0.0
C1824 C 0.81882 0.1886 0.4678 0.0
C1825 C 0.85944 0.13794 0.51818 0.0
C1826 C 0.83482 0.13843 0.52085 0.0
C1827 C 0.82198 0.1549 0.50423 0.0
C1828 C 0.82271 0.12311 0.54292 0.0
C1829 C 0.87409 0.12103 0.53631 0.0
C1830 C 0.82176 0.09892 0.53822 0.0
C1831 C 0.8163 0.08396 0.56238 0.0
C1832 C 0.81169 0.09308 0.59139 0.0
C1833 C 0.8105 0.11732 0.59526 0.0
C1834 C 0.81581 0.13226 0.57111 0.0
H1835 H 0.89304 0.12498 0.53469 0.0
H1836 H 0.8689 0.12134 0.56066 0.0
H1837 H 0.87116 0.1031 0.52764 0.0
H1838 H 0.82713 0.09155 0.51663 0.0
H1839 H 0.81812 0.06534 0.55914 0.0
H1840 H 0.79617 0.11113 0.0471 0.0
H1841 H 0.82388 0.13278 0.01602 0.0
H1842 H 0.85047 0.1672 0.09594 0.0
H1843 H 0.82338 0.1451 0.12773 0.0
H1844 H 0.83792 0.19662 0.03792 0.0
H1845 H 0.89884 0.12204 0.02222 0.0
H1846 H 0.86815 0.1163 0.01732 0.0
H1847 H 0.87913 0.12396 0.05422 0.0
C1848 C 0.80808 0.12288 0.05845 0.0
C1849 C 0.80769 0.1258 0.09034 0.0
C1850 C 0.82379 0.13549 0.04043 0.0
C1851 C 0.83927 0.15147 0.05373 0.0
C1852 C 0.83865 0.15492 0.08526 0.0
H1853 H 0.96008 0.20402 0.95426 0.0
H1854 H 0.93449 0.19602 0.99782 0.0
C1855 C 0.82309 0.14221 0.10338 0.0
C1856 C 0.85649 0.16411 0.03469 0.0
H1857 H 0.90605 0.15584 0.99303 0.0
C1858 C 0.85294 0.18781 0.02826 0.0
C1859 C 0.87619 0.15263 0.02251 0.0
C1860 C 0.88104 0.12736 0.02946 0.0
C1861 C 0.86819 0.20011 0.00892 0.0
C1862 C 0.8874 0.18835 0.99577 0.0
C1863 C 0.89138 0.16488 1.0032 0.0
C1864 C 0.90241 0.19915 0.97208 0.0
C1865 C 0.86358 0.22549 1.00246 0.0
C1866 C 0.89286 0.20452 0.9435 0.0
C1867 C 0.90745 0.20918 0.91874 0.0
C1868 C 0.93181 0.20879 0.92221 0.0
C1869 C 0.94135 0.20525 0.95127 0.0
C1870 C 0.92674 0.20036 0.97604 0.0
H1871 H 0.85246 0.2335 0.02033 0.0
H1872 H 0.88017 0.23543 1.00079 0.0
H1873 H 0.8543 0.22707 0.98037 0.0
H1874 H 0.87421 0.20326 0.93973 0.0
H1875 H 0.89976 0.21137 0.89639 0.0
H1876 H 0.41178 0.79466 0.04681 0.0
H1877 H 0.38959 0.82166 0.01523 0.0
H1878 H 0.36123 0.85414 0.09543 0.0
H1879 H 0.38387 0.82779 0.12756 0.0
H1880 H 0.32849 0.83816 0.03802 0.0
H1881 H 0.40356 0.89809 0.01815 0.0
H1882 H 0.40863 0.86711 0.01638 0.0
H1883 H 0.40134 0.88039 0.05205 0.0
C1884 C 0.40124 0.8077 0.05802 0.0
C1885 C 0.40016 0.80919 0.09004 0.0
C1886 C 0.3883 0.82297 0.03977 0.0
C1887 C 0.37385 0.83986 0.05306 0.0
C1888 C 0.37227 0.84116 0.0848 0.0
H1889 H 0.32066 0.95967 0.95342 0.0
H1890 H 0.32908 0.93428 0.99697 0.0
C1891 C 0.38529 0.82604 0.10309 0.0
C1892 C 0.36102 0.85668 0.03376 0.0
H1893 H 0.36883 0.90579 0.99126 0.0
C1894 C 0.33719 0.85305 0.02791 0.0
C1895 C 0.37241 0.87618 0.021 0.0
C1896 C 0.39788 0.88091 0.02718 0.0
C1897 C 0.32461 0.86816 0.00871 0.0
C1898 C 0.33624 0.88725 0.9951 0.0
C1899 C 0.35989 0.89122 1.00183 0.0
C1900 C 0.32507 0.90218 0.97165 0.0
C1901 C 0.29907 0.86354 1.00298 0.0
C1902 C 0.31903 0.89255 0.94336 0.0
C1903 C 0.31409 0.90703 0.91861 0.0
C1904 C 0.31489 0.93134 0.92183 0.0
C1905 C 0.31908 0.94098 0.95067 0.0
C1906 C 0.32422 0.92648 0.97543 0.0
H1907 H 0.2913 0.85261 0.02123 0.0
H1908 H 0.28913 0.8801 1.00133 0.0
H1909 H 0.29712 0.85409 0.98109 0.0
H1910 H 0.32001 0.87391 0.93972 0.0
H1911 H 0.3114 0.89927 0.8964 0.0
H1912 H 0.72344 0.36769 0.10807 0.0
H1913 H 0.69986 0.34367 0.0738 0.0
H1914 H 0.68036 0.40512 0.02327 0.0
H1915 H 0.70459 0.42904 0.05675 0.0
H1916 H 0.65528 0.34235 0.06296 0.0
H1917 H 0.69922 0.36417 0.95484 0.0
H1918 H 0.71121 0.37238 0.99124 0.0
H1919 H 0.68907 0.39004 0.97338 0.0
C1920 C 0.71433 0.37603 0.08941 0.0
C1921 C 0.7162 0.40022 0.08484 0.0
C1922 C 0.70081 0.36228 0.06987 0.0
C1923 C 0.68864 0.37243 0.04549 0.0
C1924 C 0.69019 0.39668 0.04121 0.0
H1925 H 0.56641 0.32676 0.95172 0.0
H1926 H 0.59458 0.33556 0.99181 0.0
C1927 C 0.70403 0.41039 0.06044 0.0
C1928 C 0.6737 0.35784 0.02523 0.0
H1929 H 0.66089 0.34757 0.95061 0.0
C1930 C 0.65672 0.34324 0.03837 0.0
C1931 C 0.67586 0.35843 0.99315 0.0
C1932 C 0.69501 0.3719 0.97737 0.0
C1933 C 0.64125 0.33009 0.02033 0.0
C1934 C 0.64224 0.33214 0.98824 0.0
C1935 C 0.65986 0.346 0.97518 0.0
C1936 C 0.62444 0.3216 0.96756 0.0
C1937 C 0.62415 0.31407 0.03599 0.0
C1938 C 0.63147 0.31018 0.94075 0.0
C1939 C 0.61537 0.30567 0.91754 0.0
C1940 C 0.59188 0.31193 0.92107 0.0
C1941 C 0.58435 0.32119 0.94891 0.0
C1942 C 0.60054 0.32624 0.97186 0.0
H1943 H 0.63143 0.30744 0.05777 0.0
H1944 H 0.60803 0.32392 0.04149 0.0
H1945 H 0.61943 0.29896 0.02144 0.0
H1946 H 0.64974 0.30632 0.93682 0.0
H1947 H 0.62157 0.29888 0.89599 0.0
H1948 H 0.13797 0.69444 0.12351 0.0
H1949 H 0.16135 0.66927 0.09084 0.0
H1950 H 0.13391 0.70374 0.01144 0.0
H1951 H 0.11092 0.72953 0.04362 0.0
H1952 H 0.13154 0.6522 0.01263 0.0
H1953 H 0.22 0.68758 0.03763 0.0
H1954 H 0.20144 0.68151 0.06973 0.0
H1955 H 0.19365 0.70427 0.04368 0.0
C1956 C 0.13692 0.69692 0.09911 0.0
C1957 C 0.1221 0.714 0.08648 0.0
C1958 C 0.15042 0.68248 0.08049 0.0
C1959 C 0.14947 0.68476 0.04878 0.0
C1960 C 0.13486 0.70173 0.03593 0.0
H1961 H 0.21612 0.62535 0.89399 0.0
H1962 H 0.2059 0.65084 0.93666 0.0
C1963 C 0.12146 0.71634 0.05452 0.0
C1964 C 0.16286 0.66869 0.02896 0.0
H1965 H 0.21806 0.65422 0.00602 0.0
C1966 C 0.15045 0.65257 0.01127 0.0
C1967 C 0.18753 0.66928 0.02725 0.0
C1968 C 0.20156 0.68666 0.04538 0.0
C1969 C 0.16204 0.63701 0.99182 0.0
C1970 C 0.18671 0.63753 0.99012 0.0
C1971 C 0.19918 0.65367 0.00776 0.0
C1972 C 0.1993 0.6226 0.96806 0.0
C1973 C 0.14779 0.62044 0.97263 0.0
C1974 C 0.20032 0.59835 0.97222 0.0
C1975 C 0.20643 0.58378 0.94793 0.0
C1976 C 0.21158 0.59334 0.91929 0.0
C1977 C 0.21263 0.61764 0.91605 0.0
C1978 C 0.20669 0.63219 0.94034 0.0
H1979 H 0.1288 0.62427 0.97378 0.0
H1980 H 0.15345 0.6213 0.94848 0.0
H1981 H 0.15063 0.60234 0.98072 0.0
H1982 H 0.19456 0.59065 0.99344 0.0
H1983 H 0.20468 0.56511 0.95067 0.0
H1984 H 0.44871 0.14798 0.31982 0.0
H1985 H 0.41229 0.12641 0.30973 0.0
H1986 H 0.39191 0.13511 0.40349 0.0
H1987 H 0.42766 0.15666 0.41352 0.0
H1988 H 0.399 0.08483 0.33741 0.0
H1989 H 0.33199 0.15187 0.35939 0.0
H1990 H 0.36224 0.1591 0.35264 0.0
H1991 H 0.35271 0.15017 0.38992 0.0
C1992 C 0.43613 0.14583 0.33801 0.0
C1993 C 0.44107 0.15415 0.36745 0.0
C1994 C 0.41541 0.13335 0.33229 0.0
C1995 C 0.39915 0.12936 0.35577 0.0
C1996 C 0.40383 0.13832 0.38482 0.0
H1997 H 0.30575 0.01723 0.39603 0.0
H1998 H 0.33811 0.04437 0.38908 0.0
C1999 C 0.42445 0.15053 0.39057 0.0
C2000 C 0.37822 0.11424 0.35117 0.0
H2001 H 0.31945 0.11186 0.36465 0.0
C2002 C 0.38155 0.09085 0.34284 0.0
C2003 C 0.35534 0.12205 0.3579 0.0
C2004 C 0.3503 0.14724 0.36515 0.0
C2005 C 0.3629 0.07485 0.34272 0.0
C2006 C 0.34033 0.0823 0.35167 0.0
C2007 C 0.33677 0.10598 0.35828 0.0
C2008 C 0.32049 0.06567 0.35554 0.0
C2009 C 0.36763 0.05004 0.33322 0.0
C2010 C 0.29938 0.0689 0.33976 0.0
C2011 C 0.28065 0.05345 0.3439 0.0
C2012 C 0.28252 0.03448 0.36412 0.0
C2013 C 0.30361 0.0315 0.38015 0.0
C2014 C 0.32229 0.04694 0.37601 0.0
H2015 H 0.38316 0.0489 0.31815 0.0
H2016 H 0.3712 0.03938 0.35378 0.0
H2017 H 0.3524 0.0424 0.32116 0.0
H2018 H 0.29746 0.08332 0.32404 0.0
H2019 H 0.26472 0.05637 0.33117 0.0
H2020 H 0.40748 0.45665 0.39057 0.0
H2021 H 0.42904 0.42058 0.38285 0.0
H2022 H 0.37363 0.39438 0.32594 0.0
H2023 H 0.35166 0.4308 0.33368 0.0
H2024 H 0.40882 0.37638 0.40119 0.0
H2025 H 0.43605 0.37756 0.27947 0.0
H2026 H 0.42912 0.40399 0.29991 0.0
H2027 H 0.40619 0.38456 0.2886 0.0
C2028 C 0.39999 0.44345 0.37589 0.0
C2029 C 0.37779 0.44667 0.36279 0.0
C2030 C 0.41238 0.42279 0.37152 0.0
C2031 C 0.403 0.40473 0.35388 0.0
C2032 C 0.38134 0.40819 0.3394 0.0
H2033 H 0.46763 0.26561 0.33239 0.0
H2034 H 0.44069 0.29866 0.3274 0.0
C2035 C 0.36884 0.42906 0.34373 0.0
C2036 C 0.41517 0.38178 0.35342 0.0
H2037 H 0.44861 0.34578 0.30927 0.0
C2038 C 0.41734 0.36959 0.381 0.0
C2039 C 0.42611 0.37279 0.32706 0.0
C2040 C 0.42445 0.38534 0.297 0.0
C2041 C 0.43062 0.34908 0.38316 0.0
C2042 C 0.44255 0.34068 0.35718 0.0
C2043 C 0.43961 0.35229 0.32924 0.0
C2044 C 0.45917 0.32072 0.35924 0.0
C2045 C 0.43184 0.33666 0.4134 0.0
C2046 C 0.47877 0.32222 0.37836 0.0
C2047 C 0.49414 0.30342 0.38132 0.0
C2048 C 0.49043 0.28259 0.36508 0.0
C2049 C 0.47101 0.28128 0.3454 0.0
C2050 C 0.4556 0.30019 0.34245 0.0
H2051 H 0.4166 0.34097 0.428 0.0
H2052 H 0.43254 0.31748 0.41029 0.0
H2053 H 0.44786 0.34222 0.42563 0.0
H2054 H 0.48219 0.33802 0.39111 0.0
H2055 H 0.50895 0.30528 0.39645 0.0
H2056 H 0.2581 0.46779 0.33316 0.0
H2057 H 0.22433 0.44206 0.32599 0.0
H2058 H 0.18422 0.48427 0.38797 0.0
H2059 H 0.21762 0.51009 0.39513 0.0
H2060 H 0.1991 0.41587 0.36885 0.0
H2061 H 0.14174 0.48074 0.31326 0.0
H2062 H 0.17283 0.48503 0.31733 0.0
H2063 H 0.15353 0.49087 0.34873 0.0
C2064 C 0.24209 0.47165 0.34525 0.0
C2065 C 0.24065 0.49117 0.36463 0.0
C2066 C 0.22278 0.4569 0.34109 0.0
C2067 C 0.20156 0.46145 0.35597 0.0
C2068 C 0.2002 0.48067 0.37567 0.0
H2069 H 0.06933 0.40435 0.39623 0.0
H2070 H 0.10424 0.42732 0.38617 0.0
C2071 C 0.21945 0.49537 0.3799 0.0
C2072 C 0.18092 0.44592 0.3517 0.0
H2073 H 0.12298 0.44658 0.33296 0.0
C2074 C 0.18254 0.42245 0.36051 0.0
C2075 C 0.15934 0.45446 0.34063 0.0
C2076 C 0.15675 0.47909 0.32915 0.0
C2077 C 0.16285 0.40771 0.3603 0.0
C2078 C 0.14102 0.41656 0.35051 0.0
C2079 C 0.13967 0.43976 0.34046 0.0
C2080 C 0.11894 0.40299 0.35387 0.0
C2081 C 0.16529 0.38314 0.37211 0.0
C2082 C 0.1151 0.38189 0.33831 0.0
C2083 C 0.09489 0.3686 0.34398 0.0
C2084 C 0.07827 0.37623 0.36537 0.0
C2085 C 0.08181 0.39785 0.37977 0.0
C2086 C 0.10179 0.41107 0.37401 0.0
H2087 H 0.18236 0.38024 0.38352 0.0
H2088 H 0.1511 0.37908 0.3885 0.0
H2089 H 0.16388 0.37074 0.35283 0.0
H2090 H 0.12792 0.37546 0.32229 0.0
H2091 H 0.09285 0.35196 0.33269 0.0
H2092 H 0.01297 0.21495 0.3914 0.0
H2093 H 0.03877 0.18161 0.38364 0.0
H2094 H 0.08314 0.2233 0.32611 0.0
H2095 H 0.05747 0.25693 0.33385 0.0
H2096 H 0.05157 0.15984 0.32744 0.0
H2097 H 0.12884 0.19503 0.3891 0.0
H2098 H 0.09999 0.20721 0.39357 0.0
H2099 H 0.11659 0.21319 0.35982 0.0
C2100 C 0.02824 0.21716 0.37718 0.0
C2101 C 0.03312 0.23878 0.36339 0.0
C2102 C 0.04297 0.198 0.3727 0.0
C2103 C 0.06304 0.19997 0.35455 0.0
C2104 C 0.06796 0.22143 0.34059 0.0
H2105 H 0.17177 0.09138 0.3341 0.0
H2106 H 0.14908 0.12698 0.32399 0.0
C2107 C 0.05317 0.24064 0.34496 0.0
C2108 C 0.07852 0.17937 0.35017 0.0
H2109 H 0.13234 0.15749 0.36813 0.0
C2110 C 0.0693 0.1594 0.33612 0.0
C2111 C 0.10176 0.17884 0.36117 0.0
C2112 C 0.11245 0.19961 0.37696 0.0
C2113 C 0.08243 0.1388 0.33344 0.0
C2114 C 0.10528 0.13789 0.34573 0.0
C2115 C 0.11486 0.15816 0.35865 0.0
C2116 C 0.11839 0.11553 0.34855 0.0
C2117 C 0.07158 0.11811 0.31765 0.0
C2118 C 0.10869 0.09718 0.36542 0.0
C2119 C 0.12151 0.07697 0.37112 0.0
C2120 C 0.14447 0.07449 0.36019 0.0
C2121 C 0.15401 0.09253 0.3424 0.0
C2122 C 0.14112 0.11297 0.33683 0.0
H2123 H 0.05829 0.1237 0.30072 0.0
H2124 H 0.08496 0.1074 0.30591 0.0
H2125 H 0.06264 0.10705 0.33479 0.0
H2126 H 0.09144 0.09884 0.37531 0.0
H2127 H 0.11362 0.06349 0.38498 0.0
H2128 H 0.76568 0.96697 0.17596 0.0
H2129 H 0.79938 0.94134 0.184 0.0
H2130 H 0.84146 0.98587 0.12716 0.0
H2131 H 0.80807 0.01154 0.11902 0.0
H2132 H 0.82694 0.91721 0.13972 0.0
H2133 H 0.88024 0.9798 0.206 0.0
H2134 H 0.84923 0.98348 0.20026 0.0
H2135 H 0.86947 0.99148 0.17078 0.0
C2136 C 0.7821 0.97136 0.16519 0.0
C2137 C 0.78409 0.99145 0.14691 0.0
C2138 C 0.80136 0.95666 0.16982 0.0
C2139 C 0.82306 0.96187 0.15661 0.0
C2140 C 0.82502 0.98172 0.13809 0.0
H2141 H 0.95827 0.9099 0.12406 0.0
H2142 H 0.92255 0.93161 0.13367 0.0
C2143 C 0.80581 0.99633 0.13331 0.0
C2144 C 0.84363 0.94641 0.16139 0.0
H2145 H 0.90034 0.94679 0.18564 0.0
C2146 C 0.84289 0.92349 0.15021 0.0
C2147 C 0.86438 0.95459 0.17523 0.0
C2148 C 0.86589 0.97861 0.18904 0.0
C2149 C 0.86278 0.90906 0.15081 0.0
C2150 C 0.88386 0.91761 0.16351 0.0
C2151 C 0.88423 0.94018 0.17592 0.0
C2152 C 0.90634 0.90465 0.16081 0.0
C2153 C 0.86141 0.88527 0.13629 0.0
C2154 C 0.9096 0.88244 0.17375 0.0
C2155 C 0.93026 0.86984 0.16828 0.0
C2156 C 0.94794 0.8793 0.14976 0.0
C2157 C 0.94497 0.90199 0.13824 0.0
C2158 C 0.92453 0.91449 0.14376 0.0
H2159 H 0.84519 0.88298 0.12274 0.0
H2160 H 0.87666 0.88228 0.12118 0.0
H2161 H 0.86166 0.87175 0.15433 0.0
H2162 H 0.89599 0.87463 0.18747 0.0
H2163 H 0.93185 0.85236 0.1773 0.0
H2164 H 0.51621 0.80529 0.11572 0.0
H2165 H 0.5423 0.83835 0.12394 0.0
H2166 H 0.58446 0.79683 0.18443 0.0
H2167 H 0.55845 0.76345 0.17625 0.0
H2168 H 0.55312 0.86045 0.18032 0.0
H2169 H 0.63258 0.82471 0.12441 0.0
H2170 H 0.60392 0.81247 0.11823 0.0
H2171 H 0.61919 0.80684 0.15314 0.0
C2172 C 0.53109 0.80303 0.13064 0.0
C2173 C 0.53518 0.78155 0.14522 0.0
C2174 C 0.54599 0.82204 0.13538 0.0
C2175 C 0.56548 0.82009 0.1546 0.0
C2176 C 0.56974 0.7987 0.16914 0.0
H2177 H 0.67329 0.92944 0.17958 0.0
H2178 H 0.65029 0.89392 0.18947 0.0
C2179 C 0.55477 0.77963 0.1645 0.0
C2180 C 0.58086 0.84071 0.15969 0.0
H2181 H 0.63528 0.86251 0.1448 0.0
C2182 C 0.57115 0.86082 0.17279 0.0
C2183 C 0.60448 0.84117 0.15021 0.0
C2184 C 0.61574 0.82025 0.13551 0.0
C2185 C 0.58416 0.88148 0.1759 0.0
C2186 C 0.60743 0.88231 0.16506 0.0
C2187 C 0.61748 0.86191 0.15317 0.0
C2188 C 0.62056 0.90471 0.16249 0.0
C2189 C 0.57273 0.90233 0.19051 0.0
C2190 C 0.61147 0.92269 0.14441 0.0
C2191 C 0.62447 0.94282 0.13883 0.0
C2192 C 0.64698 0.9456 0.15113 0.0
C2193 C 0.65585 0.92802 0.17023 0.0
C2194 C 0.6428 0.90764 0.17565 0.0
H2195 H 0.55881 0.89693 0.20666 0.0
H2196 H 0.58565 0.91322 0.2029 0.0
H2197 H 0.56446 0.91317 0.17259 0.0
H2198 H 0.59463 0.92075 0.13344 0.0
H2199 H 0.61718 0.95595 0.12387 0.0
H2200 H 0.72087 0.51953 0.11514 0.0
H2201 H 0.68904 0.54727 0.12175 0.0
H2202 H 0.73064 0.5863 0.18572 0.0
H2203 H 0.76288 0.55871 0.17895 0.0
H2204 H 0.66451 0.559 0.17404 0.0
H2205 H 0.70933 0.63662 0.12583 0.0
H2206 H 0.72041 0.60743 0.12089 0.0
H2207 H 0.72425 0.62226 0.15654 0.0
C2208 C 0.72342 0.53406 0.13052 0.0
C2209 C 0.74463 0.53686 0.14636 0.0
C2210 C 0.70509 0.5499 0.13436 0.0
C2211 C 0.70743 0.56906 0.15401 0.0
C2212 C 0.7285 0.57191 0.17002 0.0
H2213 H 0.57873 0.65085 0.19321 0.0
H2214 H 0.61581 0.63032 0.20272 0.0
C2215 C 0.74692 0.55603 0.16619 0.0
C2216 C 0.68763 0.58575 0.15762 0.0
H2217 H 0.67084 0.64187 0.14322 0.0
C2218 C 0.66595 0.5772 0.16764 0.0
C2219 C 0.68946 0.60948 0.14914 0.0
C2220 C 0.71203 0.61956 0.13726 0.0
C2221 C 0.64597 0.59147 0.16854 0.0
C2222 C 0.6477 0.61511 0.15958 0.0
C2223 C 0.66954 0.62384 0.15043 0.0
C2224 C 0.62658 0.63004 0.15547 0.0
C2225 C 0.6229 0.58078 0.17754 0.0
C2226 C 0.62078 0.63764 0.12611 0.0
C2227 C 0.59986 0.64939 0.12072 0.0
C2228 C 0.58414 0.65408 0.14457 0.0
C2229 C 0.59049 0.64766 0.17437 0.0
C2230 C 0.61155 0.63568 0.17976 0.0
H2231 H 0.62382 0.56147 0.17891 0.0
H2232 H 0.61768 0.5875 0.20022 0.0
H2233 H 0.60906 0.58562 0.161 0.0
H2234 H 0.63204 0.63363 0.107 0.0
H2235 H 0.59564 0.65422 0.09752 0.0
H2236 H 0.99842 0.7232 0.10348 0.0
H2237 H 0.97104 0.69093 0.11019 0.0
H2238 H 0.94279 0.72416 0.19004 0.0
H2239 H 0.97015 0.75668 0.18352 0.0
H2240 H 0.95454 0.67542 0.19737 0.0
H2241 H 0.89923 0.69093 0.09571 0.0
H2242 H 0.93005 0.69071 0.08806 0.0
H2243 H 0.91791 0.71314 0.1118 0.0
C2244 C 0.98632 0.72379 0.12241 0.0
C2245 C 0.98652 0.74265 0.14291 0.0
C2246 C 0.97056 0.70534 0.12611 0.0
C2247 C 0.95466 0.70522 0.15042 0.0
C2248 C 0.9548 0.72395 0.171 0.0
H2249 H 0.8462 0.59548 0.15888 0.0
H2250 H 0.86503 0.63381 0.16522 0.0
C2251 C 0.97044 0.74256 0.16717 0.0
C2252 C 0.93859 0.68507 0.15482 0.0
H2253 H 0.89567 0.65365 0.1195 0.0
C2254 C 0.94145 0.67084 0.18056 0.0
C2255 C 0.92129 0.67921 0.13311 0.0
C2256 C 0.91671 0.69439 0.10573 0.0
C2257 C 0.92832 0.65028 0.18432 0.0
C2258 C 0.91195 0.64374 0.16173 0.0
C2259 C 0.90825 0.65861 0.13679 0.0
C2260 C 0.90029 0.62052 0.1619 0.0
C2261 C 0.93237 0.63548 0.21218 0.0
C2262 C 0.91381 0.60034 0.15834 0.0
C2263 C 0.90314 0.57864 0.15455 0.0
C2264 C 0.87868 0.57649 0.15448 0.0
C2265 C 0.86507 0.59653 0.1594 0.0
C2266 C 0.87581 0.61843 0.16277 0.0
H2267 H 0.94017 0.64578 0.23103 0.0
H2268 H 0.91581 0.62752 0.22023 0.0
H2269 H 0.94466 0.62121 0.2064 0.0
H2270 H 0.93266 0.60151 0.1571 0.0
H2271 H 0.91409 0.56354 0.15059 0.0
H2272 H 0.71849 1.00472 0.61477 0.0
H2273 H 0.68649 0.97718 0.62189 0.0
H2274 H 0.72847 0.93766 0.68485 0.0
H2275 H 0.76084 0.96508 0.67767 0.0
H2276 H 0.70551 0.90961 0.64336 0.0
H2277 H 0.64324 0.97165 0.69515 0.0
H2278 H 0.6546 0.98195 0.65955 0.0
H2279 H 0.67399 0.978 0.69139 0.0
C2280 C 0.72101 0.99022 0.63021 0.0
C2281 C 0.74233 0.98726 0.64573 0.0
C2282 C 0.70255 0.97455 0.63444 0.0
C2283 C 0.70483 0.95557 0.65441 0.0
C2284 C 0.72619 0.95228 0.66954 0.0
H2285 H 0.57715 0.87308 0.69207 0.0
H2286 H 0.61412 0.89382 0.70171 0.0
C2287 C 0.74471 0.96799 0.66537 0.0
C2288 C 0.6851 0.93888 0.65857 0.0
H2289 H 0.62685 0.93619 0.67538 0.0
C2290 C 0.6884 0.91537 0.65078 0.0
C2291 C 0.66283 0.94617 0.66886 0.0
C2292 C 0.65847 0.97077 0.67953 0.0
C2293 C 0.66977 0.89936 0.65128 0.0
C2294 C 0.64712 0.90708 0.65939 0.0
C2295 C 0.64412 0.93025 0.66891 0.0
C2296 C 0.626 0.89222 0.65497 0.0
C2297 C 0.67446 0.87438 0.64261 0.0
C2298 C 0.62045 0.88427 0.62568 0.0
C2299 C 0.5995 0.87256 0.62019 0.0
C2300 C 0.58344 0.86843 0.64382 0.0
C2301 C 0.58928 0.87565 0.67347 0.0
C2302 C 0.61032 0.88765 0.67894 0.0
H2303 H 0.6929 0.86952 0.64725 0.0
H2304 H 0.66281 0.86223 0.65512 0.0
H2305 H 0.67133 0.87215 0.61785 0.0
H2306 H 0.63191 0.88796 0.60667 0.0
H2307 H 0.59556 0.86728 0.59707 0.0
H2308 H 0.61702 0.56689 0.62065 0.0
H2309 H 0.59604 0.6031 0.6294 0.0
H2310 H 0.65298 0.6285 0.68443 0.0
H2311 H 0.67455 0.59212 0.67514 0.0
H2312 H 0.58074 0.62522 0.68143 0.0
H2313 H 0.64592 0.67971 0.61995 0.0
H2314 H 0.64617 0.64831 0.61802 0.0
H2315 H 0.65662 0.66288 0.65152 0.0
C2316 C 0.62511 0.58005 0.63485 0.0
C2317 C 0.64757 0.57655 0.64706 0.0
C2318 C 0.61302 0.60079 0.63989 0.0
C2319 C 0.62303 0.61876 0.65713 0.0
C2320 C 0.64504 0.61506 0.67057 0.0
H2321 H 0.56001 0.75921 0.67314 0.0
H2322 H 0.58624 0.7259 0.68087 0.0
C2323 C 0.65723 0.59411 0.66559 0.0
C2324 C 0.61033 0.64137 0.65979 0.0
H2325 H 0.61155 0.69823 0.63622 0.0
C2326 C 0.58763 0.64125 0.67189 0.0
C2327 C 0.61926 0.66235 0.64734 0.0
C2328 C 0.64325 0.66347 0.63325 0.0
C2329 C 0.57341 0.6612 0.67104 0.0
C2330 C 0.58194 0.68184 0.65737 0.0
C2331 C 0.60501 0.68236 0.64658 0.0
C2332 C 0.56656 0.70239 0.65219 0.0
C2333 C 0.54918 0.65991 0.6844 0.0
C2334 C 0.54709 0.70043 0.63295 0.0
C2335 C 0.53217 0.7194 0.62833 0.0
C2336 C 0.53633 0.74089 0.64285 0.0
C2337 C 0.55619 0.74296 0.66164 0.0
C2338 C 0.57121 0.72393 0.66611 0.0
H2339 H 0.54763 0.64552 0.70119 0.0
H2340 H 0.5444 0.67655 0.6957 0.0
H2341 H 0.53642 0.65662 0.66586 0.0
H2342 H 0.54336 0.68413 0.62151 0.0
H2343 H 0.51717 0.71706 0.61362 0.0
H2344 H 0.95768 0.61559 0.62049 0.0
H2345 H 0.92175 0.59424 0.63033 0.0
H2346 H 0.89678 0.65073 0.68618 0.0
H2347 H 0.93285 0.67265 0.67583 0.0
H2348 H 0.90045 0.57871 0.68305 0.0
H2349 H 0.84458 0.64335 0.62287 0.0
H2350 H 0.87601 0.6438 0.62013 0.0
H2351 H 0.86187 0.65417 0.65398 0.0
C2352 C 0.94468 0.62349 0.63512 0.0
C2353 C 0.94819 0.64593 0.64724 0.0
C2354 C 0.92411 0.61119 0.64077 0.0
C2355 C 0.90632 0.62097 0.65855 0.0
C2356 C 0.91008 0.64296 0.67192 0.0
H2357 H 0.76562 0.55831 0.67681 0.0
H2358 H 0.79929 0.5842 0.68427 0.0
C2359 C 0.93086 0.65535 0.66633 0.0
C2360 C 0.88379 0.60812 0.66178 0.0
H2361 H 0.82645 0.60898 0.63973 0.0
C2362 C 0.88422 0.58547 0.67391 0.0
C2363 C 0.86253 0.61689 0.64988 0.0
C2364 C 0.86107 0.64081 0.63576 0.0
C2365 C 0.86427 0.57117 0.67366 0.0
C2366 C 0.84332 0.57954 0.66053 0.0
C2367 C 0.84253 0.60255 0.64968 0.0
C2368 C 0.82267 0.5641 0.65593 0.0
C2369 C 0.86589 0.54704 0.68712 0.0
C2370 C 0.82445 0.54446 0.63705 0.0
C2371 C 0.80528 0.52972 0.63261 0.0
C2372 C 0.78375 0.53425 0.64691 0.0
C2373 C 0.7819 0.55419 0.66549 0.0
C2374 C 0.80113 0.56903 0.66979 0.0
H2375 H 0.88044 0.54571 0.70376 0.0
H2376 H 0.84935 0.5421 0.69864 0.0
H2377 H 0.86921 0.53431 0.66862 0.0
H2378 H 0.84073 0.54053 0.62562 0.0
H2379 H 0.80746 0.51464 0.61808 0.0
H2380 H 0.96735 0.76415 0.67725 0.0
H2381 H 0.93988 0.79645 0.68389 0.0
H2382 H 0.9782 0.837 0.61812 0.0
H2383 H 1.00584 0.80503 0.61157 0.0
H2384 H 0.967 0.86217 0.6704 0.0
H2385 H 0.88882 0.81683 0.62425 0.0
H2386 H 0.90355 0.80222 0.65491 0.0
H2387 H 0.91804 0.80581 0.61897 0.0
C2388 C 0.96991 0.77989 0.66407 0.0
C2389 C 0.98884 0.78184 0.64374 0.0
C2390 C 0.9541 0.79834 0.66783 0.0
C2391 C 0.95678 0.81912 0.65127 0.0
C2392 C 0.97571 0.82116 0.63115 0.0
H2393 H 0.87019 0.93049 0.59629 0.0
H2394 H 0.89136 0.89434 0.60502 0.0
C2395 C 0.9915 0.80277 0.62736 0.0
C2396 C 0.94008 0.8389 0.6548 0.0
H2397 H 0.88356 0.85529 0.64158 0.0
C2398 C 0.94869 0.86062 0.66442 0.0
C2399 C 0.91619 0.8369 0.64687 0.0
C2400 C 0.90603 0.81427 0.63543 0.0
C2401 C 0.93429 0.88048 0.66554 0.0
C2402 C 0.91048 0.87857 0.65719 0.0
C2403 C 0.90172 0.85671 0.64834 0.0
C2404 C 0.89531 0.89952 0.6535 0.0
C2405 C 0.94496 0.9036 0.67419 0.0
C2406 C 0.88971 0.91428 0.67805 0.0
C2407 C 0.87738 0.93516 0.67311 0.0
C2408 C 0.87059 0.94161 0.64349 0.0
C2409 C 0.8753 0.92617 0.61936 0.0
C2410 C 0.88738 0.90541 0.62431 0.0
H2411 H 0.96433 0.90279 0.67519 0.0
H2412 H 0.93983 0.9173 0.65764 0.0
H2413 H 0.93844 0.90887 0.69694 0.0
H2414 H 0.89536 0.90994 0.70088 0.0
H2415 H 0.87419 0.94672 0.69214 0.0
H2416 H 0.26091 0.05797 0.83377 0.0
H2417 H 0.22826 0.08547 0.82917 0.0
H2418 H 0.1897 0.04646 0.89625 0.0
H2419 H 0.22207 0.01921 0.90127 0.0
H2420 H 0.18115 0.07759 0.81267 0.0
H2421 H 0.18702 0.11273 0.9297 0.0
H2422 H 0.21031 0.0961 0.91255 0.0
H2423 H 0.18554 0.08151 0.92909 0.0
C2424 C 0.24555 0.05533 0.84771 0.0
C2425 C 0.2443 0.03638 0.86807 0.0
C2426 C 0.22685 0.07104 0.84496 0.0
C2427 C 0.20663 0.06827 0.8627 0.0
C2428 C 0.20528 0.04928 0.88277 0.0
H2429 H 0.06921 0.11559 0.89073 0.0
H2430 H 0.10632 0.09569 0.88356 0.0
C2431 C 0.22385 0.03361 0.8855 0.0
C2432 C 0.18665 0.08486 0.86023 0.0
H2433 H 0.15085 0.11914 0.90341 0.0
C2434 C 0.17475 0.08703 0.83235 0.0
C2435 C 0.17837 0.09736 0.88582 0.0
C2436 C 0.19111 0.09703 0.91589 0.0
C2437 C 0.15405 0.10023 0.82995 0.0
C2438 C 0.14514 0.1116 0.856 0.0
C2439 C 0.15763 0.1103 0.88345 0.0
C2440 C 0.1218 0.123 0.85638 0.0
C2441 C 0.14116 0.10106 0.80006 0.0
C2442 C 0.11786 0.14485 0.84278 0.0
C2443 C 0.09641 0.15644 0.84686 0.0
C2444 C 0.07868 0.14635 0.86476 0.0
C2445 C 0.08247 0.12399 0.877 0.0
C2446 C 0.10372 0.11253 0.87293 0.0
H2447 H 0.14968 0.09023 0.7823 0.0
H2448 H 0.12294 0.09489 0.80325 0.0
H2449 H 0.14032 0.11934 0.79188 0.0
H2450 H 0.13167 0.15334 0.83011 0.0
H2451 H 0.09425 0.17374 0.83747 0.0
H2452 H 0.34505 0.09706 0.85103 0.0
H2453 H 0.36363 0.13544 0.84402 0.0
H2454 H 0.4315 0.10351 0.85142 0.0
H2455 H 0.41316 0.0655 0.85861 0.0
H2456 H 0.39433 0.15553 0.88923 0.0
H2457 H 0.43845 0.14776 0.7775 0.0
H2458 H 0.41429 0.12932 0.78852 0.0
H2459 H 0.44326 0.12325 0.80215 0.0
C2460 C 0.36392 0.09819 0.85017 0.0
C2461 C 0.37767 0.07825 0.85511 0.0
C2462 C 0.37451 0.12013 0.84642 0.0
C2463 C 0.39899 0.12235 0.84693 0.0
C2464 C 0.41264 0.10225 0.85043 0.0
H2465 H 0.49729 0.22451 0.90509 0.0
H2466 H 0.46979 0.19241 0.89811 0.0
C2467 C 0.40212 0.08051 0.85461 0.0
C2468 C 0.41052 0.14564 0.84695 0.0
H2469 H 0.45295 0.17741 0.81115 0.0
C2470 C 0.40684 0.16051 0.87187 0.0
C2471 C 0.42681 0.15222 0.82429 0.0
C2472 C 0.43083 0.13742 0.79643 0.0
C2473 C 0.41985 0.18115 0.87551 0.0
C2474 C 0.43709 0.18704 0.85375 0.0
C2475 C 0.4399 0.17281 0.82799 0.0
C2476 C 0.45324 0.20711 0.85825 0.0
C2477 C 0.41534 0.1963 0.90292 0.0
C2478 C 0.45332 0.22602 0.83795 0.0
C2479 C 0.46903 0.24457 0.84196 0.0
C2480 C 0.48525 0.2444 0.8661 0.0
C2481 C 0.4851 0.22533 0.88629 0.0
C2482 C 0.46928 0.20696 0.88242 0.0
H2483 H 0.3979 0.19282 0.91301 0.0
H2484 H 0.42875 0.19263 0.92053 0.0
H2485 H 0.4165 0.21505 0.89686 0.0
H2486 H 0.44121 0.22644 0.81902 0.0
H2487 H 0.4687 0.25885 0.82586 0.0
H2488 H 0.30258 0.50272 0.89848 0.0
H2489 H 0.33451 0.47514 0.89149 0.0
H2490 H 0.29226 0.43514 0.82932 0.0
H2491 H 0.25996 0.4627 0.83624 0.0
H2492 H 0.31652 0.40762 0.87244 0.0
H2493 H 0.37618 0.46986 0.81562 0.0
H2494 H 0.36489 0.48062 0.85105 0.0
H2495 H 0.34529 0.47531 0.81979 0.0
C2496 C 0.29994 0.48807 0.88331 0.0
C2497 C 0.2786 0.48508 0.86783 0.0
C2498 C 0.31835 0.47237 0.87918 0.0
C2499 C 0.31599 0.4533 0.85941 0.0
C2500 C 0.29457 0.44985 0.84448 0.0
H2501 H 0.44398 0.37257 0.81874 0.0
H2502 H 0.4061 0.39185 0.8102 0.0
C2503 C 0.2761 0.46563 0.84851 0.0
C2504 C 0.33586 0.43688 0.85496 0.0
H2505 H 0.39363 0.43506 0.83548 0.0
C2506 C 0.33328 0.41354 0.86395 0.0
C2507 C 0.35766 0.44441 0.84333 0.0
C2508 C 0.36118 0.46886 0.83159 0.0
C2509 C 0.35226 0.39795 0.86331 0.0
C2510 C 0.37447 0.40595 0.85371 0.0
C2511 C 0.37669 0.42891 0.84303 0.0
C2512 C 0.39603 0.39172 0.8577 0.0
C2513 C 0.34844 0.37314 0.87346 0.0
C2514 C 0.40289 0.38505 0.88708 0.0
C2515 C 0.42438 0.37421 0.89195 0.0
C2516 C 0.43964 0.36966 0.86758 0.0
C2517 C 0.43247 0.3755 0.83791 0.0
C2518 C 0.41091 0.38665 0.83306 0.0
H2519 H 0.32995 0.36777 0.87035 0.0
H2520 H 0.35983 0.36091 0.86071 0.0
H2521 H 0.35265 0.37167 0.89804 0.0
H2522 H 0.39203 0.38914 0.90654 0.0
H2523 H 0.42939 0.37 0.91509 0.0
H2524 H 0.05807 0.26418 0.83373 0.0
H2525 H 0.08513 0.29715 0.82879 0.0
H2526 H 0.04264 0.33733 0.89038 0.0
H2527 H 0.01578 0.30465 0.89571 0.0
H2528 H 0.0778 0.3432 0.80888 0.0
H2529 H 0.1072 0.34228 0.9289 0.0
H2530 H 0.09149 0.31826 0.912 0.0
H2531 H 0.07601 0.3435 0.92551 0.0
C2532 C 0.05451 0.28 0.84632 0.0
C2533 C 0.03478 0.28156 0.86538 0.0
C2534 C 0.07 0.29887 0.84341 0.0
C2535 C 0.0662 0.31962 0.85964 0.0
C2536 C 0.0463 0.32135 0.87816 0.0
H2537 H 0.10965 0.45917 0.87637 0.0
H2538 H 0.09067 0.42147 0.87016 0.0
C2539 C 0.03085 0.30259 0.88109 0.0
C2540 C 0.08274 0.33965 0.85727 0.0
H2541 H 0.11497 0.37724 0.9007 0.0
C2542 C 0.08627 0.3504 0.82885 0.0
C2543 C 0.09401 0.349 0.88326 0.0
C2544 C 0.0922 0.33753 0.91408 0.0
C2545 C 0.09967 0.37093 0.82615 0.0
C2546 C 0.1098 0.38089 0.85244 0.0
C2547 C 0.10712 0.36961 0.88055 0.0
C2548 C 0.12114 0.40421 0.85206 0.0
C2549 C 0.1021 0.38255 0.79557 0.0
C2550 C 0.14456 0.40721 0.84323 0.0
C2551 C 0.15563 0.42897 0.84678 0.0
C2552 C 0.14342 0.44796 0.85938 0.0
C2553 C 0.11968 0.44495 0.86679 0.0
C2554 C 0.10873 0.42339 0.86324 0.0
H2555 H 0.09336 0.37254 0.77715 0.0
H2556 H 0.09441 0.4003 0.79653 0.0
H2557 H 0.12087 0.38452 0.78985 0.0
H2558 H 0.15449 0.39254 0.83473 0.0
H2559 H 0.17398 0.43051 0.84123 0.0
loop_
_geom_bond_atom_site_label_1
_geom_bond_atom_site_label_2
_geom_bond_distance
_geom_bond_site_symmetry_2
_ccdc_geom_bond_type
Zn0 N4 2.020 . S
Zn0 O8 2.019 . S
Zn0 N10 2.119 . S
Zn0 O18 1.975 . S
C1 N2 1.334 . S
C1 N5 1.336 . S
N2 C1 1.334 . S
N2 C3 1.334 . S
C3 N2 1.334 . S
C3 N4 1.336 . S
N4 Zn0 2.020 . S
N4 C3 1.336 . S
N4 N5 1.354 . S
N5 C1 1.336 . S
N5 N4 1.354 . S
N5 Zn9 2.020 . S
C6 O7 1.244 . S
C6 O30 1.257 . S
O7 C6 1.244 . S
O8 Zn0 2.019 . S
O8 C28 1.257 . S
Zn9 N5 2.020 . S
Zn9 O16 1.975 . S
Zn9 N25 2.119 . S
Zn9 O30 2.019 . S
N10 Zn0 2.119 . S
N10 C12 1.334 . S
N10 C13 1.328 . S
C11 C12 1.391 . S
C11 N14 1.329 . S
C11 H32 0.930 . S
C12 N10 1.334 . S
C12 C11 1.391 . S
C12 H19 0.930 . S
C13 N10 1.328 . S
C13 C15 1.392 . S
C13 H20 0.930 . S
N14 C11 1.329 . S
N14 C15 1.331 . S
C15 C13 1.392 . S
C15 N14 1.331 . S
O16 Zn9 1.975 . S
O16 C17 1.252 . S
C17 O16 1.252 . S
C17 O18 1.252 . S
O18 Zn0 1.975 . S
O18 C17 1.252 . S
H19 C12 0.930 . S
H20 C13 0.930 . S
C21 C22 1.392 . S
C21 N25 1.328 . S
C21 H27 0.930 . S
C22 C21 1.392 . S
C22 N26 1.331 . S
C23 C24 1.391 . S
C23 N26 1.329 . S
C23 H33 0.930 . S
C24 C23 1.391 . S
C24 N25 1.334 . S
C24 H31 0.930 . S
N25 Zn9 2.119 . S
N25 C21 1.328 . S
N25 C24 1.334 . S
N26 C22 1.331 . S
N26 C23 1.329 . S
H27 C21 0.930 . S
C28 O8 1.257 . S
C28 O29 1.244 . S
O29 C28 1.244 . S
O30 C6 1.257 . S
O30 Zn9 2.019 . S
H31 C24 0.930 . S
H32 C11 0.930 . S
H33 C23 0.930 . S
Zn34 N38 2.020 . S
Zn34 O42 2.019 . S
Zn34 N44 2.119 . S
Zn34 O52 1.975 . S
C35 N36 1.334 . S
C35 N39 1.336 . S
N36 C35 1.334 . S
N36 C37 1.334 . S
C37 N36 1.334 . S
C37 N38 1.336 . S
N38 Zn34 2.020 . S
N38 C37 1.336 . S
N38 N39 1.354 . S
N39 C35 1.336 . S
N39 N38 1.354 . S
N39 Zn43 2.020 . S
C40 O41 1.244 . S
C40 O64 1.257 . S
O41 C40 1.244 . S
O42 Zn34 2.019 . S
O42 C62 1.257 . S
Zn43 N39 2.020 . S
Zn43 O50 1.975 . S
Zn43 N59 2.119 . S
Zn43 O64 2.019 . S
N44 Zn34 2.119 . S
N44 C46 1.334 . S
N44 C47 1.328 . S
C45 C46 1.391 . S
C45 N48 1.329 . S
C45 H66 0.930 . S
C46 N44 1.334 . S
C46 C45 1.391 . S
C46 H53 0.930 . S
C47 N44 1.328 . S
C47 C49 1.392 . S
C47 H54 0.930 . S
N48 C45 1.329 . S
N48 C49 1.331 . S
C49 C47 1.392 . S
C49 N48 1.331 . S
O50 Zn43 1.975 . S
O50 C51 1.252 . S
C51 O50 1.252 . S
C51 O52 1.252 . S
O52 Zn34 1.975 . S
O52 C51 1.252 . S
H53 C46 0.930 . S
H54 C47 0.930 . S
C55 C56 1.392 . S
C55 N59 1.328 . S
C55 H61 0.930 . S
C56 C55 1.392 . S
C56 N60 1.331 . S
C57 C58 1.391 . S
C57 N60 1.329 . S
C57 H67 0.930 . S
C58 C57 1.391 . S
C58 N59 1.334 . S
C58 H65 0.930 . S
N59 Zn43 2.119 . S
N59 C55 1.328 . S
N59 C58 1.334 . S
N60 C56 1.331 . S
N60 C57 1.329 . S
H61 C55 0.930 . S
C62 O42 1.257 . S
C62 O63 1.244 . S
O63 C62 1.244 . S
O64 C40 1.257 . S
O64 Zn43 2.019 . S
H65 C58 0.930 . S
H66 C45 0.930 . S
H67 C57 0.930 . S
Zn68 N72 2.020 . S
Zn68 O76 2.019 . S
Zn68 N78 2.119 . S
Zn68 O86 1.975 1_655 S
C69 N70 1.334 . S
C69 N73 1.336 . S
N70 C69 1.334 . S
N70 C71 1.334 . S
C71 N70 1.334 . S
C71 N72 1.336 . S
N72 Zn68 2.020 . S
N72 C71 1.336 . S
N72 N73 1.354 . S
N73 C69 1.336 . S
N73 N72 1.354 . S
N73 Zn77 2.020 . S
C74 O75 1.244 . S
C74 O98 1.257 1_655 S
O75 C74 1.244 . S
O76 Zn68 2.019 . S
O76 C96 1.257 . S
Zn77 N73 2.020 . S
Zn77 O84 1.975 1_655 S
Zn77 N93 2.119 1_655 S
Zn77 O98 2.019 1_655 S
N78 Zn68 2.119 . S
N78 C80 1.334 . S
N78 C81 1.328 . S
C79 C80 1.391 . S
C79 N82 1.329 . S
C79 H100 0.930 . S
C80 N78 1.334 . S
C80 C79 1.391 . S
C80 H87 0.930 . S
C81 N78 1.328 . S
C81 C83 1.392 . S
C81 H88 0.930 . S
N82 C79 1.329 . S
N82 C83 1.331 . S
C83 C81 1.392 . S
C83 N82 1.331 . S
O84 Zn77 1.975 1_455 S
O84 C85 1.252 . S
C85 O84 1.252 . S
C85 O86 1.252 . S
O86 Zn68 1.975 1_455 S
O86 C85 1.252 . S
H87 C80 0.930 . S
H88 C81 0.930 . S
C89 C90 1.392 . S
C89 N93 1.328 . S
C89 H95 0.930 . S
C90 C89 1.392 . S
C90 N94 1.331 . S
C91 C92 1.391 . S
C91 N94 1.329 . S
C91 H101 0.930 . S
C92 C91 1.391 . S
C92 N93 1.334 . S
C92 H99 0.930 . S
N93 Zn77 2.119 1_455 S
N93 C89 1.328 . S
N93 C92 1.334 . S
N94 C90 1.331 . S
N94 C91 1.329 . S
H95 C89 0.930 . S
C96 O76 1.257 . S
C96 O97 1.244 . S
O97 C96 1.244 . S
O98 C74 1.257 1_455 S
O98 Zn77 2.019 1_455 S
H99 C92 0.930 . S
H100 C79 0.930 . S
H101 C91 0.930 . S
Zn102 N106 2.020 . S
Zn102 O110 2.019 . S
Zn102 N112 2.119 . S
Zn102 O120 1.975 1_565 S
C103 N104 1.334 . S
C103 N107 1.336 . S
N104 C103 1.334 . S
N104 C105 1.334 . S
C105 N104 1.334 . S
C105 N106 1.336 . S
N106 Zn102 2.020 . S
N106 C105 1.336 . S
N106 N107 1.354 . S
N107 C103 1.336 . S
N107 N106 1.354 . S
N107 Zn111 2.020 . S
C108 O109 1.244 . S
C108 O132 1.257 1_565 S
O109 C108 1.244 . S
O110 Zn102 2.019 . S
O110 C130 1.257 . S
Zn111 N107 2.020 . S
Zn111 O118 1.975 1_565 S
Zn111 N127 2.119 1_565 S
Zn111 O132 2.019 1_565 S
N112 Zn102 2.119 . S
N112 C114 1.334 . S
N112 C115 1.328 . S
C113 C114 1.391 . S
C113 N116 1.329 . S
C113 H134 0.930 . S
C114 N112 1.334 . S
C114 C113 1.391 . S
C114 H121 0.930 . S
C115 N112 1.328 . S
C115 C117 1.392 . S
C115 H122 0.930 . S
N116 C113 1.329 . S
N116 C117 1.331 . S
C117 C115 1.392 . S
C117 N116 1.331 . S
O118 Zn111 1.975 1_545 S
O118 C119 1.252 . S
C119 O118 1.252 . S
C119 O120 1.252 . S
O120 Zn102 1.975 1_545 S
O120 C119 1.252 . S
H121 C114 0.930 . S
H122 C115 0.930 . S
C123 C124 1.392 . S
C123 N127 1.328 . S
C123 H129 0.930 . S
C124 C123 1.392 . S
C124 N128 1.331 . S
C125 C126 1.391 . S
C125 N128 1.329 . S
C125 H135 0.930 . S
C126 C125 1.391 . S
C126 N127 1.334 . S
C126 H133 0.930 . S
N127 Zn111 2.119 1_545 S
N127 C123 1.328 . S
N127 C126 1.334 . S
N128 C124 1.331 . S
N128 C125 1.329 . S
H129 C123 0.930 . S
C130 O110 1.257 . S
C130 O131 1.244 . S
O131 C130 1.244 . S
O132 C108 1.257 1_545 S
O132 Zn111 2.019 1_545 S
H133 C126 0.930 . S
H134 C113 0.930 . S
H135 C125 0.930 . S
Zn136 N140 2.020 . S
Zn136 O144 2.019 1_455 S
Zn136 N146 2.119 1_455 S
Zn136 O154 1.975 1_455 S
C137 N138 1.334 . S
C137 N141 1.336 . S
N138 C137 1.334 . S
N138 C139 1.334 . S
C139 N138 1.334 . S
C139 N140 1.336 . S
N140 Zn136 2.020 . S
N140 C139 1.336 . S
N140 N141 1.354 . S
N141 C137 1.336 . S
N141 N140 1.354 . S
N141 Zn145 2.020 . S
C142 O143 1.244 . S
C142 O166 1.257 . S
O143 C142 1.244 . S
O144 Zn136 2.019 1_655 S
O144 C164 1.257 1_655 S
Zn145 N141 2.020 . S
Zn145 O152 1.975 1_455 S
Zn145 N161 2.119 . S
Zn145 O166 2.019 . S
N146 Zn136 2.119 1_655 S
N146 C148 1.334 . S
N146 C149 1.328 . S
C147 C148 1.391 . S
C147 N150 1.329 . S
C147 H168 0.930 . S
C148 N146 1.334 . S
C148 C147 1.391 . S
C148 H155 0.930 . S
C149 N146 1.328 . S
C149 C151 1.392 . S
C149 H156 0.930 . S
N150 C147 1.329 . S
N150 C151 1.331 . S
C151 C149 1.392 . S
C151 N150 1.331 . S
O152 Zn145 1.975 1_655 S
O152 C153 1.252 . S
C153 O152 1.252 . S
C153 O154 1.252 . S
O154 Zn136 1.975 1_655 S
O154 C153 1.252 . S
H155 C148 0.930 . S
H156 C149 0.930 . S
C157 C158 1.392 . S
C157 N161 1.328 . S
C157 H163 0.930 . S
C158 C157 1.392 . S
C158 N162 1.331 . S
C159 C160 1.391 . S
C159 N162 1.329 . S
C159 H169 0.930 . S
C160 C159 1.391 . S
C160 N161 1.334 . S
C160 H167 0.930 . S
N161 Zn145 2.119 . S
N161 C157 1.328 . S
N161 C160 1.334 . S
N162 C158 1.331 . S
N162 C159 1.329 . S
H163 C157 0.930 . S
C164 O144 1.257 1_455 S
C164 O165 1.244 . S
O165 C164 1.244 . S
O166 C142 1.257 . S
O166 Zn145 2.019 . S
H167 C160 0.930 . S
H168 C147 0.930 . S
H169 C159 0.930 . S
Zn170 N174 2.020 . S
Zn170 O178 2.019 1_545 S
Zn170 N180 2.119 1_545 S
Zn170 O188 1.975 1_545 S
C171 N172 1.334 . S
C171 N175 1.336 . S
N172 C171 1.334 . S
N172 C173 1.334 . S
C173 N172 1.334 . S
C173 N174 1.336 . S
N174 Zn170 2.020 . S
N174 C173 1.336 . S
N174 N175 1.354 . S
N175 C171 1.336 . S
N175 N174 1.354 . S
N175 Zn179 2.020 . S
C176 O177 1.244 . S
C176 O200 1.257 . S
O177 C176 1.244 . S
O178 Zn170 2.019 1_565 S
O178 C198 1.257 1_565 S
Zn179 N175 2.020 . S
Zn179 O186 1.975 1_545 S
Zn179 N195 2.119 . S
Zn179 O200 2.019 . S
N180 Zn170 2.119 1_565 S
N180 C182 1.334 . S
N180 C183 1.328 . S
C181 C182 1.391 . S
C181 N184 1.329 . S
C181 H202 0.930 . S
C182 N180 1.334 . S
C182 C181 1.391 . S
C182 H189 0.930 . S
C183 N180 1.328 . S
C183 C185 1.392 . S
C183 H190 0.930 . S
N184 C181 1.329 . S
N184 C185 1.331 . S
C185 C183 1.392 . S
C185 N184 1.331 . S
O186 Zn179 1.975 1_565 S
O186 C187 1.252 . S
C187 O186 1.252 . S
C187 O188 1.252 . S
O188 Zn170 1.975 1_565 S
O188 C187 1.252 . S
H189 C182 0.930 . S
H190 C183 0.930 . S
C191 C192 1.392 . S
C191 N195 1.328 . S
C191 H197 0.930 . S
C192 C191 1.392 . S
C192 N196 1.331 . S
C193 C194 1.391 . S
C193 N196 1.329 . S
C193 H203 0.930 . S
C194 C193 1.391 . S
C194 N195 1.334 . S
C194 H201 0.930 . S
N195 Zn179 2.119 . S
N195 C191 1.328 . S
N195 C194 1.334 . S
N196 C192 1.331 . S
N196 C193 1.329 . S
H197 C191 0.930 . S
C198 O178 1.257 1_545 S
C198 O199 1.244 . S
O199 C198 1.244 . S
O200 C176 1.257 . S
O200 Zn179 2.019 . S
H201 C194 0.930 . S
H202 C181 0.930 . S
H203 C193 0.930 . S
Zn204 N208 2.020 . S
Zn204 O212 2.019 . S
Zn204 N214 2.119 . S
Zn204 O222 1.975 . S
C205 N206 1.334 . S
C205 N209 1.336 . S
N206 C205 1.334 . S
N206 C207 1.334 . S
C207 N206 1.334 . S
C207 N208 1.336 . S
N208 Zn204 2.020 . S
N208 C207 1.336 . S
N208 N209 1.354 . S
N209 C205 1.336 . S
N209 N208 1.354 . S
N209 Zn213 2.020 . S
C210 O211 1.244 . S
C210 O234 1.257 . S
O211 C210 1.244 . S
O212 Zn204 2.019 . S
O212 C232 1.257 . S
Zn213 N209 2.020 . S
Zn213 O220 1.975 . S
Zn213 N229 2.119 . S
Zn213 O234 2.019 . S
N214 Zn204 2.119 . S
N214 C216 1.334 . S
N214 C217 1.328 . S
C215 C216 1.391 . S
C215 N218 1.329 . S
C215 H236 0.930 . S
C216 N214 1.334 . S
C216 C215 1.391 . S
C216 H223 0.930 . S
C217 N214 1.328 . S
C217 C219 1.392 . S
C217 H224 0.930 . S
N218 C215 1.329 . S
N218 C219 1.331 . S
C219 C217 1.392 . S
C219 N218 1.331 . S
O220 Zn213 1.975 . S
O220 C221 1.252 . S
C221 O220 1.252 . S
C221 O222 1.252 . S
O222 Zn204 1.975 . S
O222 C221 1.252 . S
H223 C216 0.930 . S
H224 C217 0.930 . S
C225 C226 1.392 . S
C225 N229 1.328 . S
C225 H231 0.930 . S
C226 C225 1.392 . S
C226 N230 1.331 . S
C227 C228 1.391 . S
C227 N230 1.329 . S
C227 H237 0.930 . S
C228 C227 1.391 . S
C228 N229 1.334 . S
C228 H235 0.930 . S
N229 Zn213 2.119 . S
N229 C225 1.328 . S
N229 C228 1.334 . S
N230 C226 1.331 . S
N230 C227 1.329 . S
H231 C225 0.930 . S
C232 O212 1.257 . S
C232 O233 1.244 . S
O233 C232 1.244 . S
O234 C210 1.257 . S
O234 Zn213 2.019 . S
H235 C228 0.930 . S
H236 C215 0.930 . S
H237 C227 0.930 . S
Zn238 N242 2.020 . S
Zn238 O246 2.019 . S
Zn238 N248 2.119 . S
Zn238 O256 1.975 . S
C239 N240 1.334 . S
C239 N243 1.336 . S
N240 C239 1.334 . S
N240 C241 1.334 . S
C241 N240 1.334 . S
C241 N242 1.336 . S
N242 Zn238 2.020 . S
N242 C241 1.336 . S
N242 N243 1.354 . S
N243 C239 1.336 . S
N243 N242 1.354 . S
N243 Zn247 2.020 . S
C244 O245 1.244 . S
C244 O268 1.257 . S
O245 C244 1.244 . S
O246 Zn238 2.019 . S
O246 C266 1.257 . S
Zn247 N243 2.020 . S
Zn247 O254 1.975 . S
Zn247 N263 2.119 . S
Zn247 O268 2.019 . S
N248 Zn238 2.119 . S
N248 C250 1.334 . S
N248 C251 1.328 . S
C249 C250 1.391 . S
C249 N252 1.329 . S
C249 H270 0.930 . S
C250 N248 1.334 . S
C250 C249 1.391 . S
C250 H257 0.930 . S
C251 N248 1.328 . S
C251 C253 1.392 . S
C251 H258 0.930 . S
N252 C249 1.329 . S
N252 C253 1.331 . S
C253 C251 1.392 . S
C253 N252 1.331 . S
O254 Zn247 1.975 . S
O254 C255 1.252 . S
C255 O254 1.252 . S
C255 O256 1.252 . S
O256 Zn238 1.975 . S
O256 C255 1.252 . S
H257 C250 0.930 . S
H258 C251 0.930 . S
C259 C260 1.392 . S
C259 N263 1.328 . S
C259 H265 0.930 . S
C260 C259 1.392 . S
C260 N264 1.331 . S
C261 C262 1.391 . S
C261 N264 1.329 . S
C261 H271 0.930 . S
C262 C261 1.391 . S
C262 N263 1.334 . S
C262 H269 0.930 . S
N263 Zn247 2.119 . S
N263 C259 1.328 . S
N263 C262 1.334 . S
N264 C260 1.331 . S
N264 C261 1.329 . S
H265 C259 0.930 . S
C266 O246 1.257 . S
C266 O267 1.244 . S
O267 C266 1.244 . S
O268 C244 1.257 . S
O268 Zn247 2.019 . S
H269 C262 0.930 . S
H270 C249 0.930 . S
H271 C261 0.930 . S
Zn272 N276 2.020 . S
Zn272 O280 2.019 . S
Zn272 N282 2.119 . S
Zn272 O290 1.975 . S
C273 N274 1.334 . S
C273 N277 1.336 . S
N274 C273 1.334 . S
N274 C275 1.334 . S
C275 N274 1.334 . S
C275 N276 1.336 . S
N276 Zn272 2.020 . S
N276 C275 1.336 . S
N276 N277 1.354 . S
N277 C273 1.336 . S
N277 N276 1.354 . S
N277 Zn281 2.020 . S
C278 O279 1.244 . S
C278 O302 1.257 . S
O279 C278 1.244 . S
O280 Zn272 2.019 . S
O280 C300 1.257 . S
Zn281 N277 2.020 . S
Zn281 O288 1.975 . S
Zn281 N297 2.119 . S
Zn281 O302 2.019 . S
N282 Zn272 2.119 . S
N282 C284 1.334 . S
N282 C285 1.328 . S
C283 C284 1.391 . S
C283 N286 1.329 . S
C283 H304 0.930 . S
C284 N282 1.334 . S
C284 C283 1.391 . S
C284 H291 0.930 . S
C285 N282 1.328 . S
C285 C287 1.392 . S
C285 H292 0.930 . S
N286 C283 1.329 . S
N286 C287 1.331 . S
C287 C285 1.392 . S
C287 N286 1.331 . S
O288 Zn281 1.975 . S
O288 C289 1.252 . S
C289 O288 1.252 . S
C289 O290 1.252 . S
O290 Zn272 1.975 . S
O290 C289 1.252 . S
H291 C284 0.930 . S
H292 C285 0.930 . S
C293 C294 1.392 . S
C293 N297 1.328 . S
C293 H299 0.930 . S
C294 C293 1.392 . S
C294 N298 1.331 . S
C295 C296 1.391 . S
C295 N298 1.329 . S
C295 H305 0.930 . S
C296 C295 1.391 . S
C296 N297 1.334 . S
C296 H303 0.930 . S
N297 Zn281 2.119 . S
N297 C293 1.328 . S
N297 C296 1.334 . S
N298 C294 1.331 . S
N298 C295 1.329 . S
H299 C293 0.930 . S
C300 O280 1.257 . S
C300 O301 1.244 . S
O301 C300 1.244 . S
O302 C278 1.257 . S
O302 Zn281 2.019 . S
H303 C296 0.930 . S
H304 C283 0.930 . S
H305 C295 0.930 . S
Zn306 N310 2.020 . S
Zn306 O314 2.019 . S
Zn306 N316 2.119 . S
Zn306 O324 1.975 . S
C307 N308 1.334 . S
C307 N311 1.336 . S
N308 C307 1.334 . S
N308 C309 1.334 . S
C309 N308 1.334 . S
C309 N310 1.336 . S
N310 Zn306 2.020 . S
N310 C309 1.336 . S
N310 N311 1.354 . S
N311 C307 1.336 . S
N311 N310 1.354 . S
N311 Zn315 2.020 . S
C312 O313 1.244 . S
C312 O336 1.257 . S
O313 C312 1.244 . S
O314 Zn306 2.019 . S
O314 C334 1.257 . S
Zn315 N311 2.020 . S
Zn315 O322 1.975 . S
Zn315 N331 2.119 . S
Zn315 O336 2.019 . S
N316 Zn306 2.119 . S
N316 C318 1.334 . S
N316 C319 1.328 . S
C317 C318 1.391 . S
C317 N320 1.329 . S
C317 H338 0.930 . S
C318 N316 1.334 . S
C318 C317 1.391 . S
C318 H325 0.930 . S
C319 N316 1.328 . S
C319 C321 1.392 . S
C319 H326 0.930 . S
N320 C317 1.329 . S
N320 C321 1.331 . S
C321 C319 1.392 . S
C321 N320 1.331 . S
O322 Zn315 1.975 . S
O322 C323 1.252 . S
C323 O322 1.252 . S
C323 O324 1.252 . S
O324 Zn306 1.975 . S
O324 C323 1.252 . S
H325 C318 0.930 . S
H326 C319 0.930 . S
C327 C328 1.392 . S
C327 N331 1.328 . S
C327 H333 0.930 . S
C328 C327 1.392 . S
C328 N332 1.331 . S
C329 C330 1.391 . S
C329 N332 1.329 . S
C329 H339 0.930 . S
C330 C329 1.391 . S
C330 N331 1.334 . S
C330 H337 0.930 . S
N331 Zn315 2.119 . S
N331 C327 1.328 . S
N331 C330 1.334 . S
N332 C328 1.331 . S
N332 C329 1.329 . S
H333 C327 0.930 . S
C334 O314 1.257 . S
C334 O335 1.244 . S
O335 C334 1.244 . S
O336 C312 1.257 . S
O336 Zn315 2.019 . S
H337 C330 0.930 . S
H338 C317 0.930 . S
H339 C329 0.930 . S
Zn340 N344 2.020 . S
Zn340 O348 2.019 . S
Zn340 N350 2.119 . S
Zn340 O358 1.975 1_455 S
C341 N342 1.334 . S
C341 N345 1.336 . S
N342 C341 1.334 . S
N342 C343 1.334 . S
C343 N342 1.334 . S
C343 N344 1.336 . S
N344 Zn340 2.020 . S
N344 C343 1.336 . S
N344 N345 1.354 . S
N345 C341 1.336 . S
N345 N344 1.354 . S
N345 Zn349 2.020 . S
C346 O347 1.244 . S
C346 O370 1.257 1_455 S
O347 C346 1.244 . S
O348 Zn340 2.019 . S
O348 C368 1.257 . S
Zn349 N345 2.020 . S
Zn349 O356 1.975 1_455 S
Zn349 N365 2.119 1_455 S
Zn349 O370 2.019 1_455 S
N350 Zn340 2.119 . S
N350 C352 1.334 . S
N350 C353 1.328 . S
C351 C352 1.391 . S
C351 N354 1.329 . S
C351 H372 0.930 . S
C352 N350 1.334 . S
C352 C351 1.391 . S
C352 H359 0.930 . S
C353 N350 1.328 . S
C353 C355 1.392 . S
C353 H360 0.930 . S
N354 C351 1.329 . S
N354 C355 1.331 . S
C355 C353 1.392 . S
C355 N354 1.331 . S
O356 Zn349 1.975 1_655 S
O356 C357 1.252 . S
C357 O356 1.252 . S
C357 O358 1.252 . S
O358 Zn340 1.975 1_655 S
O358 C357 1.252 . S
H359 C352 0.930 . S
H360 C353 0.930 . S
C361 C362 1.392 . S
C361 N365 1.328 . S
C361 H367 0.930 . S
C362 C361 1.392 . S
C362 N366 1.331 . S
C363 C364 1.391 . S
C363 N366 1.329 . S
C363 H373 0.930 . S
C364 C363 1.391 . S
C364 N365 1.334 . S
C364 H371 0.930 . S
N365 Zn349 2.119 1_655 S
N365 C361 1.328 . S
N365 C364 1.334 . S
N366 C362 1.331 . S
N366 C363 1.329 . S
H367 C361 0.930 . S
C368 O348 1.257 . S
C368 O369 1.244 . S
O369 C368 1.244 . S
O370 C346 1.257 1_655 S
O370 Zn349 2.019 1_655 S
H371 C364 0.930 . S
H372 C351 0.930 . S
H373 C363 0.930 . S
Zn374 N378 2.020 . S
Zn374 O382 2.019 1_545 S
Zn374 N384 2.119 1_545 S
Zn374 O392 1.975 1_545 S
C375 N376 1.334 . S
C375 N379 1.336 . S
N376 C375 1.334 . S
N376 C377 1.334 . S
C377 N376 1.334 . S
C377 N378 1.336 . S
N378 Zn374 2.020 . S
N378 C377 1.336 . S
N378 N379 1.354 . S
N379 C375 1.336 . S
N379 N378 1.354 . S
N379 Zn383 2.020 . S
C380 O381 1.244 . S
C380 O404 1.257 . S
O381 C380 1.244 . S
O382 Zn374 2.019 1_565 S
O382 C402 1.257 1_565 S
Zn383 N379 2.020 . S
Zn383 O390 1.975 1_545 S
Zn383 N399 2.119 . S
Zn383 O404 2.019 . S
N384 Zn374 2.119 1_565 S
N384 C386 1.334 . S
N384 C387 1.328 . S
C385 C386 1.391 . S
C385 N388 1.329 . S
C385 H406 0.930 . S
C386 N384 1.334 . S
C386 C385 1.391 . S
C386 H393 0.930 . S
C387 N384 1.328 . S
C387 C389 1.392 . S
C387 H394 0.930 . S
N388 C385 1.329 . S
N388 C389 1.331 . S
C389 C387 1.392 . S
C389 N388 1.331 . S
O390 Zn383 1.975 1_565 S
O390 C391 1.252 . S
C391 O390 1.252 . S
C391 O392 1.252 . S
O392 Zn374 1.975 1_565 S
O392 C391 1.252 . S
H393 C386 0.930 . S
H394 C387 0.930 . S
C395 C396 1.392 . S
C395 N399 1.328 . S
C395 H401 0.930 . S
C396 C395 1.392 . S
C396 N400 1.331 . S
C397 C398 1.391 . S
C397 N400 1.329 . S
C397 H407 0.930 . S
C398 C397 1.391 . S
C398 N399 1.334 . S
C398 H405 0.930 . S
N399 Zn383 2.119 . S
N399 C395 1.328 . S
N399 C398 1.334 . S
N400 C396 1.331 . S
N400 C397 1.329 . S
H401 C395 0.930 . S
C402 O382 1.257 1_545 S
C402 O403 1.244 . S
O403 C402 1.244 . S
O404 C380 1.257 . S
O404 Zn383 2.019 . S
H405 C398 0.930 . S
H406 C385 0.930 . S
H407 C397 0.930 . S
Zn408 N412 2.020 . S
Zn408 O416 2.019 1_655 S
Zn408 N418 2.119 1_655 S
Zn408 O426 1.975 1_655 S
C409 N410 1.334 . S
C409 N413 1.336 . S
N410 C409 1.334 . S
N410 C411 1.334 . S
C411 N410 1.334 . S
C411 N412 1.336 . S
N412 Zn408 2.020 . S
N412 C411 1.336 . S
N412 N413 1.354 . S
N413 C409 1.336 . S
N413 N412 1.354 . S
N413 Zn417 2.020 . S
C414 O415 1.244 . S
C414 O438 1.257 . S
O415 C414 1.244 . S
O416 Zn408 2.019 1_455 S
O416 C436 1.257 1_455 S
Zn417 N413 2.020 . S
Zn417 O424 1.975 1_655 S
Zn417 N433 2.119 . S
Zn417 O438 2.019 . S
N418 Zn408 2.119 1_455 S
N418 C420 1.334 . S
N418 C421 1.328 . S
C419 C420 1.391 . S
C419 N422 1.329 . S
C419 H440 0.930 . S
C420 N418 1.334 . S
C420 C419 1.391 . S
C420 H427 0.930 . S
C421 N418 1.328 . S
C421 C423 1.392 . S
C421 H428 0.930 . S
N422 C419 1.329 . S
N422 C423 1.331 . S
C423 C421 1.392 . S
C423 N422 1.331 . S
O424 Zn417 1.975 1_455 S
O424 C425 1.252 . S
C425 O424 1.252 . S
C425 O426 1.252 . S
O426 Zn408 1.975 1_455 S
O426 C425 1.252 . S
H427 C420 0.930 . S
H428 C421 0.930 . S
C429 C430 1.392 . S
C429 N433 1.328 . S
C429 H435 0.930 . S
C430 C429 1.392 . S
C430 N434 1.331 . S
C431 C432 1.391 . S
C431 N434 1.329 . S
C431 H441 0.930 . S
C432 C431 1.391 . S
C432 N433 1.334 . S
C432 H439 0.930 . S
N433 Zn417 2.119 . S
N433 C429 1.328 . S
N433 C432 1.334 . S
N434 C430 1.331 . S
N434 C431 1.329 . S
H435 C429 0.930 . S
C436 O416 1.257 1_655 S
C436 O437 1.244 . S
O437 C436 1.244 . S
O438 C414 1.257 . S
O438 Zn417 2.019 . S
H439 C432 0.930 . S
H440 C419 0.930 . S
H441 C431 0.930 . S
Zn442 N446 2.020 . S
Zn442 O450 2.019 1_565 S
Zn442 N452 2.119 1_565 S
Zn442 O460 1.975 1_565 S
C443 N444 1.334 . S
C443 N447 1.336 . S
N444 C443 1.334 . S
N444 C445 1.334 . S
C445 N444 1.334 . S
C445 N446 1.336 . S
N446 Zn442 2.020 . S
N446 C445 1.336 . S
N446 N447 1.354 . S
N447 C443 1.336 . S
N447 N446 1.354 . S
N447 Zn451 2.020 . S
C448 O449 1.244 . S
C448 O472 1.257 . S
O449 C448 1.244 . S
O450 Zn442 2.019 1_545 S
O450 C470 1.257 1_545 S
Zn451 N447 2.020 . S
Zn451 O458 1.975 1_565 S
Zn451 N467 2.119 . S
Zn451 O472 2.019 . S
N452 Zn442 2.119 1_545 S
N452 C454 1.334 . S
N452 C455 1.328 . S
C453 C454 1.391 . S
C453 N456 1.329 . S
C453 H474 0.930 . S
C454 N452 1.334 . S
C454 C453 1.391 . S
C454 H461 0.930 . S
C455 N452 1.328 . S
C455 C457 1.392 . S
C455 H462 0.930 . S
N456 C453 1.329 . S
N456 C457 1.331 . S
C457 C455 1.392 . S
C457 N456 1.331 . S
O458 Zn451 1.975 1_545 S
O458 C459 1.252 . S
C459 O458 1.252 . S
C459 O460 1.252 . S
O460 Zn442 1.975 1_545 S
O460 C459 1.252 . S
H461 C454 0.930 . S
H462 C455 0.930 . S
C463 C464 1.392 . S
C463 N467 1.328 . S
C463 H469 0.930 . S
C464 C463 1.392 . S
C464 N468 1.331 . S
C465 C466 1.391 . S
C465 N468 1.329 . S
C465 H475 0.930 . S
C466 C465 1.391 . S
C466 N467 1.334 . S
C466 H473 0.930 . S
N467 Zn451 2.119 . S
N467 C463 1.328 . S
N467 C466 1.334 . S
N468 C464 1.331 . S
N468 C465 1.329 . S
H469 C463 0.930 . S
C470 O450 1.257 1_565 S
C470 O471 1.244 . S
O471 C470 1.244 . S
O472 C448 1.257 . S
O472 Zn451 2.019 . S
H473 C466 0.930 . S
H474 C453 0.930 . S
H475 C465 0.930 . S
Zn476 N480 2.020 . S
Zn476 O484 2.019 . S
Zn476 N486 2.119 . S
Zn476 O494 1.975 . S
C477 N478 1.334 . S
C477 N481 1.336 . S
N478 C477 1.334 . S
N478 C479 1.334 . S
C479 N478 1.334 . S
C479 N480 1.336 . S
N480 Zn476 2.020 . S
N480 C479 1.336 . S
N480 N481 1.354 . S
N481 C477 1.336 . S
N481 N480 1.354 . S
N481 Zn485 2.020 . S
C482 O483 1.244 . S
C482 O506 1.257 . S
O483 C482 1.244 . S
O484 Zn476 2.019 . S
O484 C504 1.257 . S
Zn485 N481 2.020 . S
Zn485 O492 1.975 . S
Zn485 N501 2.119 . S
Zn485 O506 2.019 . S
N486 Zn476 2.119 . S
N486 C488 1.334 . S
N486 C489 1.328 . S
C487 C488 1.391 . S
C487 N490 1.329 . S
C487 H508 0.930 . S
C488 N486 1.334 . S
C488 C487 1.391 . S
C488 H495 0.930 . S
C489 N486 1.328 . S
C489 C491 1.392 . S
C489 H496 0.930 . S
N490 C487 1.329 . S
N490 C491 1.331 . S
C491 C489 1.392 . S
C491 N490 1.331 . S
O492 Zn485 1.975 . S
O492 C493 1.252 . S
C493 O492 1.252 . S
C493 O494 1.252 . S
O494 Zn476 1.975 . S
O494 C493 1.252 . S
H495 C488 0.930 . S
H496 C489 0.930 . S
C497 C498 1.392 . S
C497 N501 1.328 . S
C497 H503 0.930 . S
C498 C497 1.392 . S
C498 N502 1.331 . S
C499 C500 1.391 . S
C499 N502 1.329 . S
C499 H509 0.930 . S
C500 C499 1.391 . S
C500 N501 1.334 . S
C500 H507 0.930 . S
N501 Zn485 2.119 . S
N501 C497 1.328 . S
N501 C500 1.334 . S
N502 C498 1.331 . S
N502 C499 1.329 . S
H503 C497 0.930 . S
C504 O484 1.257 . S
C504 O505 1.244 . S
O505 C504 1.244 . S
O506 C482 1.257 . S
O506 Zn485 2.019 . S
H507 C500 0.930 . S
H508 C487 0.930 . S
H509 C499 0.930 . S
Zn510 N514 2.020 . S
Zn510 O518 2.019 . S
Zn510 N520 2.119 . S
Zn510 O528 1.975 . S
C511 N512 1.334 . S
C511 N515 1.336 . S
N512 C511 1.334 . S
N512 C513 1.334 . S
C513 N512 1.334 . S
C513 N514 1.336 . S
N514 Zn510 2.020 . S
N514 C513 1.336 . S
N514 N515 1.354 . S
N515 C511 1.336 . S
N515 N514 1.354 . S
N515 Zn519 2.020 . S
C516 O517 1.244 . S
C516 O540 1.257 . S
O517 C516 1.244 . S
O518 Zn510 2.019 . S
O518 C538 1.257 . S
Zn519 N515 2.020 . S
Zn519 O526 1.975 . S
Zn519 N535 2.119 . S
Zn519 O540 2.019 . S
N520 Zn510 2.119 . S
N520 C522 1.334 . S
N520 C523 1.328 . S
C521 C522 1.391 . S
C521 N524 1.329 . S
C521 H542 0.930 . S
C522 N520 1.334 . S
C522 C521 1.391 . S
C522 H529 0.930 . S
C523 N520 1.328 . S
C523 C525 1.392 . S
C523 H530 0.930 . S
N524 C521 1.329 . S
N524 C525 1.331 . S
C525 C523 1.392 . S
C525 N524 1.331 . S
O526 Zn519 1.975 . S
O526 C527 1.252 . S
C527 O526 1.252 . S
C527 O528 1.252 . S
O528 Zn510 1.975 . S
O528 C527 1.252 . S
H529 C522 0.930 . S
H530 C523 0.930 . S
C531 C532 1.392 . S
C531 N535 1.328 . S
C531 H537 0.930 . S
C532 C531 1.392 . S
C532 N536 1.331 . S
C533 C534 1.391 . S
C533 N536 1.329 . S
C533 H543 0.930 . S
C534 C533 1.391 . S
C534 N535 1.334 . S
C534 H541 0.930 . S
N535 Zn519 2.119 . S
N535 C531 1.328 . S
N535 C534 1.334 . S
N536 C532 1.331 . S
N536 C533 1.329 . S
H537 C531 0.930 . S
C538 O518 1.257 . S
C538 O539 1.244 . S
O539 C538 1.244 . S
O540 C516 1.257 . S
O540 Zn519 2.019 . S
H541 C534 0.930 . S
H542 C521 0.930 . S
H543 C533 0.930 . S
H544 C552 0.929 . S
H545 C554 0.930 . S
H546 C556 0.930 . S
H547 C559 0.929 . S
H548 C562 0.930 . S
H549 C564 0.960 . S
H550 C564 0.960 . S
H551 C564 0.960 . S
C552 H544 0.929 . S
C552 C553 1.377 . S
C552 C554 1.384 . S
C553 C552 1.377 . S
C553 C559 1.390 . S
C554 H545 0.930 . S
C554 C552 1.384 . S
C554 C555 1.372 . S
C555 C554 1.372 . S
C555 C556 1.400 . S
C555 C560 1.490 . S
C556 H546 0.930 . S
C556 C555 1.400 . S
C556 C559 1.386 . S
H557 C573 0.930 . S
H558 C574 0.931 . S
C559 H547 0.929 . S
C559 C553 1.390 . S
C559 C556 1.386 . S
C560 C555 1.490 . S
C560 C562 1.395 . S
C560 C563 1.403 . S
H561 C567 0.930 . S
C562 H548 0.930 . S
C562 C560 1.395 . S
C562 C565 1.403 . S
C563 C560 1.403 . S
C563 C564 1.524 . S
C563 C567 1.400 . S
C564 H549 0.960 . S
C564 H550 0.960 . S
C564 H551 0.960 . S
C564 C563 1.524 . S
C565 C562 1.403 . S
C565 C566 1.392 . S
C565 C569 1.495 . S
C566 C565 1.392 . S
C566 C567 1.385 . S
C566 C568 1.478 . S
C567 H561 0.930 . S
C567 C563 1.400 . S
C567 C566 1.385 . S
C568 C566 1.478 . S
C568 C570 1.381 . S
C568 C574 1.383 . S
C569 C565 1.495 . S
C569 H575 0.959 . S
C569 H576 0.961 . S
C569 H577 0.960 . S
C570 C568 1.381 . S
C570 C571 1.394 . S
C570 H578 0.930 . S
C571 C570 1.394 . S
C571 C572 1.383 . S
C571 H579 0.929 . S
C572 C571 1.383 . S
C572 C573 1.377 . S
C573 H557 0.930 . S
C573 C572 1.377 . S
C573 C574 1.379 . S
C574 H558 0.931 . S
C574 C568 1.383 . S
C574 C573 1.379 . S
H575 C569 0.959 . S
H576 C569 0.961 . S
H577 C569 0.960 . S
H578 C570 0.930 . S
H579 C571 0.929 . S
H580 C588 0.929 . S
H581 C590 0.930 . S
H582 C592 0.930 . S
H583 C595 0.929 . S
H584 C598 0.930 . S
H585 C600 0.960 . S
H586 C600 0.960 . S
H587 C600 0.960 . S
C588 H580 0.929 . S
C588 C589 1.377 . S
C588 C590 1.384 . S
C589 C588 1.377 . S
C589 C595 1.390 . S
C590 H581 0.930 . S
C590 C588 1.384 . S
C590 C591 1.372 . S
C591 C590 1.372 . S
C591 C592 1.400 . S
C591 C596 1.490 . S
C592 H582 0.930 . S
C592 C591 1.400 . S
C592 C595 1.386 . S
H593 C609 0.930 . S
H594 C610 0.931 . S
C595 H583 0.929 . S
C595 C589 1.390 . S
C595 C592 1.386 . S
C596 C591 1.490 . S
C596 C598 1.395 . S
C596 C599 1.403 . S
H597 C603 0.930 . S
C598 H584 0.930 . S
C598 C596 1.395 . S
C598 C601 1.403 . S
C599 C596 1.403 . S
C599 C600 1.524 . S
C599 C603 1.400 . S
C600 H585 0.960 . S
C600 H586 0.960 . S
C600 H587 0.960 . S
C600 C599 1.524 . S
C601 C598 1.403 . S
C601 C602 1.392 . S
C601 C605 1.495 . S
C602 C601 1.392 . S
C602 C603 1.385 . S
C602 C604 1.478 . S
C603 H597 0.930 . S
C603 C599 1.400 . S
C603 C602 1.385 . S
C604 C602 1.478 . S
C604 C606 1.381 . S
C604 C610 1.383 . S
C605 C601 1.495 . S
C605 H611 0.959 . S
C605 H612 0.961 . S
C605 H613 0.960 . S
C606 C604 1.381 . S
C606 C607 1.394 . S
C606 H614 0.930 . S
C607 C606 1.394 . S
C607 C608 1.383 . S
C607 H615 0.929 . S
C608 C607 1.383 . S
C608 C609 1.377 . S
C609 H593 0.930 . S
C609 C608 1.377 . S
C609 C610 1.379 . S
C610 H594 0.931 . S
C610 C604 1.383 . S
C610 C609 1.379 . S
H611 C605 0.959 . S
H612 C605 0.961 . S
H613 C605 0.960 . S
H614 C606 0.930 . S
H615 C607 0.929 . S
H616 C624 0.929 . S
H617 C626 0.930 . S
H618 C628 0.930 . S
H619 C631 0.929 . S
H620 C634 0.930 . S
H621 C636 0.960 . S
H622 C636 0.960 . S
H623 C636 0.960 . S
C624 H616 0.929 . S
C624 C625 1.377 . S
C624 C626 1.384 . S
C625 C624 1.377 . S
C625 C631 1.390 . S
C626 H617 0.930 . S
C626 C624 1.384 . S
C626 C627 1.372 . S
C627 C626 1.372 . S
C627 C628 1.400 . S
C627 C632 1.490 . S
C628 H618 0.930 . S
C628 C627 1.400 . S
C628 C631 1.386 . S
H629 C645 0.930 . S
H630 C646 0.931 . S
C631 H619 0.929 . S
C631 C625 1.390 . S
C631 C628 1.386 . S
C632 C627 1.490 . S
C632 C634 1.395 . S
C632 C635 1.403 . S
H633 C639 0.930 . S
C634 H620 0.930 . S
C634 C632 1.395 . S
C634 C637 1.403 . S
C635 C632 1.403 . S
C635 C636 1.524 . S
C635 C639 1.400 . S
C636 H621 0.960 . S
C636 H622 0.960 . S
C636 H623 0.960 . S
C636 C635 1.524 . S
C637 C634 1.403 . S
C637 C638 1.392 . S
C637 C641 1.495 . S
C638 C637 1.392 . S
C638 C639 1.385 . S
C638 C640 1.478 . S
C639 H633 0.930 . S
C639 C635 1.400 . S
C639 C638 1.385 . S
C640 C638 1.478 . S
C640 C642 1.381 . S
C640 C646 1.383 . S
C641 C637 1.495 . S
C641 H647 0.959 . S
C641 H648 0.961 . S
C641 H649 0.960 . S
C642 C640 1.381 . S
C642 C643 1.394 . S
C642 H650 0.930 . S
C643 C642 1.394 . S
C643 C644 1.383 . S
C643 H651 0.929 . S
C644 C643 1.383 . S
C644 C645 1.377 . S
C645 H629 0.930 . S
C645 C644 1.377 . S
C645 C646 1.379 . S
C646 H630 0.931 . S
C646 C640 1.383 . S
C646 C645 1.379 . S
H647 C641 0.959 . S
H648 C641 0.961 . S
H649 C641 0.960 . S
H650 C642 0.930 . S
H651 C643 0.929 . S
H652 C660 0.929 . S
H653 C662 0.930 . S
H654 C664 0.930 . S
H655 C667 0.929 . S
H656 C670 0.930 . S
H657 C672 0.960 . S
H658 C672 0.960 . S
H659 C672 0.960 . S
C660 H652 0.929 . S
C660 C661 1.377 . S
C660 C662 1.384 . S
C661 C660 1.377 . S
C661 C667 1.390 . S
C662 H653 0.930 . S
C662 C660 1.384 . S
C662 C663 1.372 . S
C663 C662 1.372 . S
C663 C664 1.400 . S
C663 C668 1.490 . S
C664 H654 0.930 . S
C664 C663 1.400 . S
C664 C667 1.386 . S
H665 C681 0.930 . S
H666 C682 0.931 . S
C667 H655 0.929 . S
C667 C661 1.390 . S
C667 C664 1.386 . S
C668 C663 1.490 . S
C668 C670 1.395 . S
C668 C671 1.403 . S
H669 C675 0.930 . S
C670 H656 0.930 . S
C670 C668 1.395 . S
C670 C673 1.403 . S
C671 C668 1.403 . S
C671 C672 1.524 . S
C671 C675 1.400 . S
C672 H657 0.960 . S
C672 H658 0.960 . S
C672 H659 0.960 . S
C672 C671 1.524 . S
C673 C670 1.403 . S
C673 C674 1.392 . S
C673 C677 1.495 . S
C674 C673 1.392 . S
C674 C675 1.385 . S
C674 C676 1.478 . S
C675 H669 0.930 . S
C675 C671 1.400 . S
C675 C674 1.385 . S
C676 C674 1.478 . S
C676 C678 1.381 . S
C676 C682 1.383 . S
C677 C673 1.495 . S
C677 H683 0.959 . S
C677 H684 0.961 . S
C677 H685 0.960 . S
C678 C676 1.381 . S
C678 C679 1.394 . S
C678 H686 0.930 . S
C679 C678 1.394 . S
C679 C680 1.383 . S
C679 H687 0.929 . S
C680 C679 1.383 . S
C680 C681 1.377 . S
C681 H665 0.930 . S
C681 C680 1.377 . S
C681 C682 1.379 . S
C682 H666 0.931 . S
C682 C676 1.383 . S
C682 C681 1.379 . S
H683 C677 0.959 . S
H684 C677 0.961 . S
H685 C677 0.960 . S
H686 C678 0.930 . S
H687 C679 0.929 . S
H688 C696 0.929 . S
H689 C698 0.930 . S
H690 C700 0.930 . S
H691 C703 0.929 . S
H692 C706 0.930 . S
H693 C708 0.960 . S
H694 C708 0.960 . S
H695 C708 0.960 . S
C696 H688 0.929 . S
C696 C697 1.377 . S
C696 C698 1.384 . S
C697 C696 1.377 . S
C697 C703 1.390 . S
C698 H689 0.930 . S
C698 C696 1.384 . S
C698 C699 1.372 . S
C699 C698 1.372 . S
C699 C700 1.400 . S
C699 C704 1.490 . S
C700 H690 0.930 . S
C700 C699 1.400 . S
C700 C703 1.386 . S
H701 C717 0.930 . S
H702 C718 0.931 . S
C703 H691 0.929 . S
C703 C697 1.390 . S
C703 C700 1.386 . S
C704 C699 1.490 . S
C704 C706 1.395 . S
C704 C707 1.403 . S
H705 C711 0.930 . S
C706 H692 0.930 . S
C706 C704 1.395 . S
C706 C709 1.403 . S
C707 C704 1.403 . S
C707 C708 1.524 . S
C707 C711 1.400 . S
C708 H693 0.960 . S
C708 H694 0.960 . S
C708 H695 0.960 . S
C708 C707 1.524 . S
C709 C706 1.403 . S
C709 C710 1.392 . S
C709 C713 1.495 . S
C710 C709 1.392 . S
C710 C711 1.385 . S
C710 C712 1.478 . S
C711 H705 0.930 . S
C711 C707 1.400 . S
C711 C710 1.385 . S
C712 C710 1.478 . S
C712 C714 1.381 . S
C712 C718 1.383 . S
C713 C709 1.495 . S
C713 H719 0.959 . S
C713 H720 0.961 . S
C713 H721 0.960 . S
C714 C712 1.381 . S
C714 C715 1.394 . S
C714 H722 0.930 . S
C715 C714 1.394 . S
C715 C716 1.383 . S
C715 H723 0.929 . S
C716 C715 1.383 . S
C716 C717 1.377 . S
C717 H701 0.930 . S
C717 C716 1.377 . S
C717 C718 1.379 . S
C718 H702 0.931 . S
C718 C712 1.383 . S
C718 C717 1.379 . S
H719 C713 0.959 . S
H720 C713 0.961 . S
H721 C713 0.960 . S
H722 C714 0.930 . S
H723 C715 0.929 . S
H724 C732 0.929 . S
H725 C734 0.930 . S
H726 C736 0.930 . S
H727 C739 0.929 . S
H728 C742 0.930 . S
H729 C744 0.960 . S
H730 C744 0.960 . S
H731 C744 0.960 . S
C732 H724 0.929 . S
C732 C733 1.377 . S
C732 C734 1.384 . S
C733 C732 1.377 . S
C733 C739 1.390 . S
C734 H725 0.930 . S
C734 C732 1.384 . S
C734 C735 1.372 . S
C735 C734 1.372 . S
C735 C736 1.400 . S
C735 C740 1.490 . S
C736 H726 0.930 . S
C736 C735 1.400 . S
C736 C739 1.386 . S
H737 C753 0.930 . S
H738 C754 0.931 . S
C739 H727 0.929 . S
C739 C733 1.390 . S
C739 C736 1.386 . S
C740 C735 1.490 . S
C740 C742 1.395 . S
C740 C743 1.403 . S
H741 C747 0.930 . S
C742 H728 0.930 . S
C742 C740 1.395 . S
C742 C745 1.403 . S
C743 C740 1.403 . S
C743 C744 1.524 . S
C743 C747 1.400 . S
C744 H729 0.960 . S
C744 H730 0.960 . S
C744 H731 0.960 . S
C744 C743 1.524 . S
C745 C742 1.403 . S
C745 C746 1.392 . S
C745 C749 1.495 . S
C746 C745 1.392 . S
C746 C747 1.385 . S
C746 C748 1.478 . S
C747 H741 0.930 . S
C747 C743 1.400 . S
C747 C746 1.385 . S
C748 C746 1.478 . S
C748 C750 1.381 . S
C748 C754 1.383 . S
C749 C745 1.495 . S
C749 H755 0.959 . S
C749 H756 0.961 . S
C749 H757 0.960 . S
C750 C748 1.381 . S
C750 C751 1.394 . S
C750 H758 0.930 . S
C751 C750 1.394 . S
C751 C752 1.383 . S
C751 H759 0.929 . S
C752 C751 1.383 . S
C752 C753 1.377 . S
C753 H737 0.930 . S
C753 C752 1.377 . S
C753 C754 1.379 . S
C754 H738 0.931 . S
C754 C748 1.383 . S
C754 C753 1.379 . S
H755 C749 0.959 . S
H756 C749 0.961 . S
H757 C749 0.960 . S
H758 C750 0.930 . S
H759 C751 0.929 . S
H760 C768 0.929 . S
H761 C770 0.930 . S
H762 C772 0.930 . S
H763 C775 0.929 . S
H764 C778 0.930 . S
H765 C780 0.960 . S
H766 C780 0.960 . S
H767 C780 0.960 . S
C768 H760 0.929 . S
C768 C769 1.377 . S
C768 C770 1.384 . S
C769 C768 1.377 . S
C769 C775 1.390 . S
C770 H761 0.930 . S
C770 C768 1.384 . S
C770 C771 1.372 . S
C771 C770 1.372 . S
C771 C772 1.400 . S
C771 C776 1.490 . S
C772 H762 0.930 . S
C772 C771 1.400 . S
C772 C775 1.386 . S
H773 C789 0.930 . S
H774 C790 0.931 . S
C775 H763 0.929 . S
C775 C769 1.390 . S
C775 C772 1.386 . S
C776 C771 1.490 . S
C776 C778 1.395 . S
C776 C779 1.403 . S
H777 C783 0.930 . S
C778 H764 0.930 . S
C778 C776 1.395 . S
C778 C781 1.403 . S
C779 C776 1.403 . S
C779 C780 1.524 . S
C779 C783 1.400 . S
C780 H765 0.960 . S
C780 H766 0.960 . S
C780 H767 0.960 . S
C780 C779 1.524 . S
C781 C778 1.403 . S
C781 C782 1.392 . S
C781 C785 1.495 . S
C782 C781 1.392 . S
C782 C783 1.385 . S
C782 C784 1.478 . S
C783 H777 0.930 . S
C783 C779 1.400 . S
C783 C782 1.385 . S
C784 C782 1.478 . S
C784 C786 1.381 . S
C784 C790 1.383 . S
C785 C781 1.495 . S
C785 H791 0.959 . S
C785 H792 0.961 . S
C785 H793 0.960 . S
C786 C784 1.381 . S
C786 C787 1.394 . S
C786 H794 0.930 . S
C787 C786 1.394 . S
C787 C788 1.383 . S
C787 H795 0.929 . S
C788 C787 1.383 . S
C788 C789 1.377 . S
C789 H773 0.930 . S
C789 C788 1.377 . S
C789 C790 1.379 . S
C790 H774 0.931 . S
C790 C784 1.383 . S
C790 C789 1.379 . S
H791 C785 0.959 . S
H792 C785 0.961 . S
H793 C785 0.960 . S
H794 C786 0.930 . S
H795 C787 0.929 . S
H796 C804 0.929 . S
H797 C806 0.930 . S
H798 C808 0.930 . S
H799 C811 0.929 . S
H800 C814 0.930 . S
H801 C816 0.960 . S
H802 C816 0.960 . S
H803 C816 0.960 . S
C804 H796 0.929 . S
C804 C805 1.377 . S
C804 C806 1.384 . S
C805 C804 1.377 . S
C805 C811 1.390 . S
C806 H797 0.930 . S
C806 C804 1.384 . S
C806 C807 1.372 . S
C807 C806 1.372 . S
C807 C808 1.400 . S
C807 C812 1.490 . S
C808 H798 0.930 . S
C808 C807 1.400 . S
C808 C811 1.386 . S
H809 C825 0.930 . S
H810 C826 0.931 . S
C811 H799 0.929 . S
C811 C805 1.390 . S
C811 C808 1.386 . S
C812 C807 1.490 . S
C812 C814 1.395 . S
C812 C815 1.403 . S
H813 C819 0.930 . S
C814 H800 0.930 . S
C814 C812 1.395 . S
C814 C817 1.403 . S
C815 C812 1.403 . S
C815 C816 1.524 . S
C815 C819 1.400 . S
C816 H801 0.960 . S
C816 H802 0.960 . S
C816 H803 0.960 . S
C816 C815 1.524 . S
C817 C814 1.403 . S
C817 C818 1.392 . S
C817 C821 1.495 . S
C818 C817 1.392 . S
C818 C819 1.385 . S
C818 C820 1.478 . S
C819 H813 0.930 . S
C819 C815 1.400 . S
C819 C818 1.385 . S
C820 C818 1.478 . S
C820 C822 1.381 . S
C820 C826 1.383 . S
C821 C817 1.495 . S
C821 H827 0.959 . S
C821 H828 0.961 . S
C821 H829 0.960 . S
C822 C820 1.381 . S
C822 C823 1.394 . S
C822 H830 0.930 . S
C823 C822 1.394 . S
C823 C824 1.383 . S
C823 H831 0.929 . S
C824 C823 1.383 . S
C824 C825 1.377 . S
C825 H809 0.930 . S
C825 C824 1.377 . S
C825 C826 1.379 . S
C826 H810 0.931 . S
C826 C820 1.383 . S
C826 C825 1.379 . S
H827 C821 0.959 . S
H828 C821 0.961 . S
H829 C821 0.960 . S
H830 C822 0.930 . S
H831 C823 0.929 . S
H832 C840 0.929 . S
H833 C842 0.930 . S
H834 C844 0.930 . S
H835 C847 0.930 . S
H836 C850 0.930 . S
H837 C852 0.960 . S
H838 C852 0.960 . S
H839 C852 0.960 . S
C840 H832 0.929 . S
C840 C841 1.377 1_554 S
C840 C842 1.384 . S
C841 C840 1.377 1_556 S
C841 C847 1.390 1_556 S
C842 H833 0.930 . S
C842 C840 1.384 . S
C842 C843 1.372 . S
C843 C842 1.372 . S
C843 C844 1.400 . S
C843 C848 1.490 . S
C844 H834 0.930 . S
C844 C843 1.400 . S
C844 C847 1.386 . S
H845 C861 0.930 . S
H846 C862 0.931 . S
C847 H835 0.930 . S
C847 C841 1.390 1_554 S
C847 C844 1.386 . S
C848 C843 1.490 . S
C848 C850 1.395 . S
C848 C851 1.403 . S
H849 C855 0.930 . S
C850 H836 0.930 . S
C850 C848 1.395 . S
C850 C853 1.403 . S
C851 C848 1.403 . S
C851 C852 1.524 . S
C851 C855 1.400 . S
C852 H837 0.960 . S
C852 H838 0.960 . S
C852 H839 0.960 . S
C852 C851 1.524 . S
C853 C850 1.403 . S
C853 C854 1.392 . S
C853 C857 1.495 . S
C854 C853 1.392 . S
C854 C855 1.385 . S
C854 C856 1.478 . S
C855 H849 0.930 . S
C855 C851 1.400 . S
C855 C854 1.385 . S
C856 C854 1.478 . S
C856 C858 1.381 . S
C856 C862 1.383 . S
C857 C853 1.495 . S
C857 H863 0.959 . S
C857 H864 0.961 . S
C857 H865 0.960 . S
C858 C856 1.381 . S
C858 C859 1.394 . S
C858 H866 0.930 . S
C859 C858 1.394 . S
C859 C860 1.383 . S
C859 H867 0.929 . S
C860 C859 1.383 . S
C860 C861 1.377 . S
C861 H845 0.930 . S
C861 C860 1.377 . S
C861 C862 1.379 . S
C862 H846 0.931 . S
C862 C856 1.383 . S
C862 C861 1.379 . S
H863 C857 0.959 . S
H864 C857 0.961 . S
H865 C857 0.960 . S
H866 C858 0.930 . S
H867 C859 0.929 . S
H868 C876 0.929 1_556 S
H869 C878 0.930 . S
H870 C880 0.930 . S
H871 C883 0.929 . S
H872 C886 0.930 . S
H873 C888 0.960 . S
H874 C888 0.960 . S
H875 C888 0.960 . S
C876 H868 0.929 1_554 S
C876 C877 1.377 1_554 S
C876 C878 1.384 . S
C877 C876 1.377 1_556 S
C877 C883 1.390 1_556 S
C878 H869 0.930 . S
C878 C876 1.384 . S
C878 C879 1.372 . S
C879 C878 1.372 . S
C879 C880 1.400 . S
C879 C884 1.490 . S
C880 H870 0.930 . S
C880 C879 1.400 . S
C880 C883 1.386 . S
H881 C897 0.930 . S
H882 C898 0.931 . S
C883 H871 0.929 . S
C883 C877 1.390 1_554 S
C883 C880 1.386 . S
C884 C879 1.490 . S
C884 C886 1.395 . S
C884 C887 1.403 . S
H885 C891 0.930 . S
C886 H872 0.930 . S
C886 C884 1.395 . S
C886 C889 1.403 . S
C887 C884 1.403 . S
C887 C888 1.524 . S
C887 C891 1.400 . S
C888 H873 0.960 . S
C888 H874 0.960 . S
C888 H875 0.960 . S
C888 C887 1.524 . S
C889 C886 1.403 . S
C889 C890 1.392 . S
C889 C893 1.495 . S
C890 C889 1.392 . S
C890 C891 1.385 . S
C890 C892 1.478 . S
C891 H885 0.930 . S
C891 C887 1.400 . S
C891 C890 1.385 . S
C892 C890 1.478 . S
C892 C894 1.381 . S
C892 C898 1.383 . S
C893 C889 1.495 . S
C893 H899 0.959 . S
C893 H900 0.961 . S
C893 H901 0.960 . S
C894 C892 1.381 . S
C894 C895 1.394 . S
C894 H902 0.930 . S
C895 C894 1.394 . S
C895 C896 1.383 . S
C895 H903 0.929 . S
C896 C895 1.383 . S
C896 C897 1.377 . S
C897 H881 0.930 . S
C897 C896 1.377 . S
C897 C898 1.379 . S
C898 H882 0.931 . S
C898 C892 1.383 . S
C898 C897 1.379 . S
H899 C893 0.959 . S
H900 C893 0.961 . S
H901 C893 0.960 . S
H902 C894 0.930 . S
H903 C895 0.929 . S
H904 C912 0.929 . S
H905 C914 0.930 . S
H906 C916 0.930 . S
H907 C919 0.929 . S
H908 C922 0.930 . S
H909 C924 0.960 . S
H910 C924 0.960 . S
H911 C924 0.960 . S
C912 H904 0.929 . S
C912 C913 1.377 . S
C912 C914 1.384 . S
C913 C912 1.377 . S
C913 C919 1.390 1_655 S
C914 H905 0.930 . S
C914 C912 1.384 . S
C914 C915 1.372 . S
C915 C914 1.372 . S
C915 C916 1.400 1_655 S
C915 C920 1.490 . S
C916 H906 0.930 . S
C916 C915 1.400 1_455 S
C916 C919 1.386 . S
H917 C933 0.909 1_456 S
H918 C934 0.931 1_455 S
C919 H907 0.929 . S
C919 C913 1.390 1_455 S
C919 C916 1.386 . S
C920 C915 1.490 . S
C920 C922 1.395 . S
C920 C923 1.403 1_655 S
H921 C927 0.930 . S
C922 H908 0.930 . S
C922 C920 1.395 . S
C922 C925 1.403 . S
C923 C920 1.403 1_455 S
C923 C924 1.524 . S
C923 C927 1.400 . S
C924 H909 0.960 . S
C924 H910 0.960 . S
C924 H911 0.960 . S
C924 C923 1.524 . S
C925 C922 1.403 . S
C925 C926 1.392 . S
C925 C929 1.495 . S
C926 C925 1.392 . S
C926 C927 1.385 1_655 S
C926 C928 1.478 . S
C927 H921 0.930 . S
C927 C923 1.400 . S
C927 C926 1.385 1_455 S
C928 C926 1.478 . S
C928 C930 1.381 . S
C928 C934 1.383 . S
C929 C925 1.495 . S
C929 H935 0.959 . S
C929 H936 0.961 . S
C929 H937 0.960 . S
C930 C928 1.381 . S
C930 C931 1.394 . S
C930 H938 0.930 . S
C931 C930 1.394 . S
C931 C932 1.383 1_554 S
C931 H939 0.929 . S
C932 C931 1.383 1_556 S
C932 C933 1.397 1_556 S
C933 H917 0.909 1_654 S
C933 C932 1.397 1_554 S
C933 C934 1.381 . S
C934 H918 0.931 1_655 S
C934 C928 1.383 . S
C934 C933 1.381 . S
H935 C929 0.959 . S
H936 C929 0.961 . S
H937 C929 0.960 . S
H938 C930 0.930 . S
H939 C931 0.929 . S
H940 C948 0.929 . S
H941 C950 0.930 . S
H942 C952 0.930 . S
H943 C955 0.929 . S
H944 C958 0.930 . S
H945 C960 0.960 . S
H946 C960 0.960 . S
H947 C960 0.960 . S
C948 H940 0.929 . S
C948 C949 1.377 . S
C948 C950 1.384 . S
C949 C948 1.377 . S
C949 C955 1.390 . S
C950 H941 0.930 . S
C950 C948 1.384 . S
C950 C951 1.372 . S
C951 C950 1.372 . S
C951 C952 1.400 . S
C951 C956 1.490 . S
C952 H942 0.930 . S
C952 C951 1.400 . S
C952 C955 1.386 . S
H953 C969 0.930 . S
H954 C970 0.931 . S
C955 H943 0.929 . S
C955 C949 1.390 . S
C955 C952 1.386 . S
C956 C951 1.490 . S
C956 C958 1.395 1_565 S
C956 C959 1.403 . S
H957 C963 0.930 . S
C958 H944 0.930 . S
C958 C956 1.395 1_545 S
C958 C961 1.403 . S
C959 C956 1.403 . S
C959 C960 1.524 . S
C959 C963 1.400 . S
C960 H945 0.960 . S
C960 H946 0.960 . S
C960 H947 0.960 . S
C960 C959 1.524 . S
C961 C958 1.403 . S
C961 C962 1.392 1_545 S
C961 C965 1.495 . S
C962 C961 1.392 1_565 S
C962 C963 1.385 . S
C962 C964 1.478 . S
C963 H957 0.930 . S
C963 C959 1.400 . S
C963 C962 1.385 . S
C964 C962 1.478 . S
C964 C966 1.381 . S
C964 C970 1.383 . S
C965 C961 1.495 . S
C965 H971 0.959 . S
C965 H972 0.961 . S
C965 H973 0.960 . S
C966 C964 1.381 . S
C966 C967 1.394 . S
C966 H974 0.930 . S
C967 C966 1.394 . S
C967 C968 1.383 1_554 S
C967 H975 0.929 1_554 S
C968 C967 1.383 1_556 S
C968 C969 1.377 1_556 S
C969 H953 0.930 . S
C969 C968 1.377 1_554 S
C969 C970 1.379 . S
C970 H954 0.931 . S
C970 C964 1.383 . S
C970 C969 1.379 . S
H971 C965 0.959 . S
H972 C965 0.961 . S
H973 C965 0.960 . S
H974 C966 0.930 . S
H975 C967 0.929 1_556 S
H976 C984 0.929 . S
H977 C986 0.930 . S
H978 C988 0.930 . S
H979 C991 0.929 . S
H980 C994 0.930 . S
H981 C996 0.960 . S
H982 C996 0.960 . S
H983 C996 0.960 . S
C984 H976 0.929 . S
C984 C985 1.377 . S
C984 C986 1.384 . S
C985 C984 1.377 . S
C985 C991 1.390 1_455 S
C986 H977 0.930 . S
C986 C984 1.384 . S
C986 C987 1.372 . S
C987 C986 1.372 . S
C987 C988 1.400 1_455 S
C987 C992 1.490 . S
C988 H978 0.930 . S
C988 C987 1.400 1_655 S
C988 C991 1.386 . S
H989 C1005 0.930 . S
H990 C1006 0.931 . S
C991 H979 0.929 . S
C991 C985 1.390 1_655 S
C991 C988 1.386 . S
C992 C987 1.490 . S
C992 C994 1.395 . S
C992 C995 1.403 . S
H993 C999 0.930 . S
C994 H980 0.930 . S
C994 C992 1.395 . S
C994 C997 1.403 . S
C995 C992 1.403 . S
C995 C996 1.524 . S
C995 C999 1.400 . S
C996 H981 0.960 . S
C996 H982 0.960 . S
C996 H983 0.960 . S
C996 C995 1.524 . S
C997 C994 1.403 . S
C997 C998 1.392 . S
C997 C1001 1.495 . S
C998 C997 1.392 . S
C998 C999 1.385 . S
C998 C1000 1.478 . S
C999 H993 0.930 . S
C999 C995 1.400 . S
C999 C998 1.385 . S
C1000 C998 1.478 . S
C1000 C1002 1.381 . S
C1000 C1006 1.383 1_455 S
C1001 C997 1.495 . S
C1001 H1007 0.959 . S
C1001 H1008 0.961 1_455 S
C1001 H1009 0.960 . S
C1002 C1000 1.381 . S
C1002 C1003 1.394 . S
C1002 H1010 0.930 . S
C1003 C1002 1.394 . S
C1003 C1004 1.383 . S
C1003 H1011 0.929 . S
C1004 C1003 1.383 . S
C1004 C1005 1.377 1_455 S
C1005 H989 0.930 . S
C1005 C1004 1.377 1_655 S
C1005 C1006 1.379 . S
C1006 H990 0.931 . S
C1006 C1000 1.383 1_655 S
C1006 C1005 1.379 . S
H1007 C1001 0.959 . S
H1008 C1001 0.961 1_655 S
H1009 C1001 0.960 . S
H1010 C1002 0.930 . S
H1011 C1003 0.929 . S
H1012 C1020 0.929 . S
H1013 C1022 0.930 . S
H1014 C1024 0.930 . S
H1015 C1027 0.929 . S
H1016 C1030 0.930 . S
H1017 C1032 0.960 . S
H1018 C1032 0.960 . S
H1019 C1032 0.960 . S
C1020 H1012 0.929 . S
C1020 C1021 1.377 . S
C1020 C1022 1.384 . S
C1021 C1020 1.377 . S
C1021 C1027 1.390 . S
C1022 H1013 0.930 . S
C1022 C1020 1.384 . S
C1022 C1023 1.372 . S
C1023 C1022 1.372 . S
C1023 C1024 1.400 . S
C1023 C1028 1.490 . S
C1024 H1014 0.930 . S
C1024 C1023 1.400 . S
C1024 C1027 1.386 . S
H1025 C1041 0.930 . S
H1026 C1042 0.931 . S
C1027 H1015 0.929 . S
C1027 C1021 1.390 . S
C1027 C1024 1.386 . S
C1028 C1023 1.490 . S
C1028 C1030 1.395 . S
C1028 C1031 1.403 1_545 S
H1029 C1035 0.930 . S
C1030 H1016 0.930 . S
C1030 C1028 1.395 . S
C1030 C1033 1.403 . S
C1031 C1028 1.403 1_565 S
C1031 C1032 1.524 . S
C1031 C1035 1.400 . S
C1032 H1017 0.960 . S
C1032 H1018 0.960 . S
C1032 H1019 0.960 . S
C1032 C1031 1.524 . S
C1033 C1030 1.403 . S
C1033 C1034 1.392 . S
C1033 C1037 1.495 . S
C1034 C1033 1.392 . S
C1034 C1035 1.385 1_545 S
C1034 C1036 1.478 . S
C1035 H1029 0.930 . S
C1035 C1031 1.400 . S
C1035 C1034 1.385 1_565 S
C1036 C1034 1.478 . S
C1036 C1038 1.381 . S
C1036 C1042 1.383 . S
C1037 C1033 1.495 . S
C1037 H1043 0.959 . S
C1037 H1044 0.961 . S
C1037 H1045 0.960 . S
C1038 C1036 1.381 . S
C1038 C1039 1.394 . S
C1038 H1046 0.930 . S
C1039 C1038 1.394 . S
C1039 C1040 1.383 . S
C1039 H1047 0.929 . S
C1040 C1039 1.383 . S
C1040 C1041 1.377 . S
C1041 H1025 0.930 . S
C1041 C1040 1.377 . S
C1041 C1042 1.379 . S
C1042 H1026 0.931 . S
C1042 C1036 1.383 . S
C1042 C1041 1.379 . S
H1043 C1037 0.959 . S
H1044 C1037 0.961 . S
H1045 C1037 0.960 . S
H1046 C1038 0.930 . S
H1047 C1039 0.929 . S
H1048 C1056 0.929 . S
H1049 C1058 0.930 . S
H1050 C1060 0.930 . S
H1051 C1063 0.929 . S
H1052 C1066 0.930 . S
H1053 C1068 0.960 . S
H1054 C1068 0.960 . S
H1055 C1068 0.960 . S
C1056 H1048 0.929 . S
C1056 C1057 1.377 . S
C1056 C1058 1.384 . S
C1057 C1056 1.377 . S
C1057 C1063 1.390 . S
C1058 H1049 0.930 . S
C1058 C1056 1.384 . S
C1058 C1059 1.372 . S
C1059 C1058 1.372 . S
C1059 C1060 1.400 . S
C1059 C1064 1.490 . S
C1060 H1050 0.930 . S
C1060 C1059 1.400 . S
C1060 C1063 1.386 . S
H1061 C1077 0.930 . S
H1062 C1078 0.931 . S
C1063 H1051 0.929 . S
C1063 C1057 1.390 . S
C1063 C1060 1.386 . S
C1064 C1059 1.490 . S
C1064 C1066 1.395 . S
C1064 C1067 1.403 . S
H1065 C1071 0.930 . S
C1066 H1052 0.930 . S
C1066 C1064 1.395 . S
C1066 C1069 1.403 . S
C1067 C1064 1.403 . S
C1067 C1068 1.524 . S
C1067 C1071 1.400 . S
C1068 H1053 0.960 . S
C1068 H1054 0.960 . S
C1068 H1055 0.960 . S
C1068 C1067 1.524 . S
C1069 C1066 1.403 . S
C1069 C1070 1.392 . S
C1069 C1073 1.495 . S
C1070 C1069 1.392 . S
C1070 C1071 1.385 . S
C1070 C1072 1.478 . S
C1071 H1065 0.930 . S
C1071 C1067 1.400 . S
C1071 C1070 1.385 . S
C1072 C1070 1.478 . S
C1072 C1074 1.381 . S
C1072 C1078 1.383 . S
C1073 C1069 1.495 . S
C1073 H1079 0.959 . S
C1073 H1080 0.961 . S
C1073 H1081 0.960 . S
C1074 C1072 1.381 . S
C1074 C1075 1.394 . S
C1074 H1082 0.930 . S
C1075 C1074 1.394 . S
C1075 C1076 1.383 . S
C1075 H1083 0.929 . S
C1076 C1075 1.383 . S
C1076 C1077 1.377 . S
C1077 H1061 0.930 . S
C1077 C1076 1.377 . S
C1077 C1078 1.379 . S
C1078 H1062 0.931 . S
C1078 C1072 1.383 . S
C1078 C1077 1.379 . S
H1079 C1073 0.959 . S
H1080 C1073 0.961 . S
H1081 C1073 0.960 . S
H1082 C1074 0.930 . S
H1083 C1075 0.929 . S
H1084 C1092 0.929 . S
H1085 C1094 0.930 . S
H1086 C1096 0.930 . S
H1087 C1099 0.929 . S
H1088 C1102 0.930 . S
H1089 C1104 0.960 . S
H1090 C1104 0.960 . S
H1091 C1104 0.960 . S
C1092 H1084 0.929 . S
C1092 C1093 1.377 . S
C1092 C1094 1.384 . S
C1093 C1092 1.377 . S
C1093 C1099 1.390 . S
C1094 H1085 0.930 . S
C1094 C1092 1.384 . S
C1094 C1095 1.372 . S
C1095 C1094 1.372 . S
C1095 C1096 1.400 . S
C1095 C1100 1.490 . S
C1096 H1086 0.930 . S
C1096 C1095 1.400 . S
C1096 C1099 1.386 . S
H1097 C1113 0.930 . S
H1098 C1114 0.931 . S
C1099 H1087 0.929 . S
C1099 C1093 1.390 . S
C1099 C1096 1.386 . S
C1100 C1095 1.490 . S
C1100 C1102 1.395 . S
C1100 C1103 1.403 . S
H1101 C1107 0.930 . S
C1102 H1088 0.930 . S
C1102 C1100 1.395 . S
C1102 C1105 1.403 . S
C1103 C1100 1.403 . S
C1103 C1104 1.524 . S
C1103 C1107 1.400 . S
C1104 H1089 0.960 . S
C1104 H1090 0.960 . S
C1104 H1091 0.960 . S
C1104 C1103 1.524 . S
C1105 C1102 1.403 . S
C1105 C1106 1.392 . S
C1105 C1109 1.495 . S
C1106 C1105 1.392 . S
C1106 C1107 1.385 . S
C1106 C1108 1.478 . S
C1107 H1101 0.930 . S
C1107 C1103 1.400 . S
C1107 C1106 1.385 . S
C1108 C1106 1.478 . S
C1108 C1110 1.381 . S
C1108 C1114 1.383 . S
C1109 C1105 1.495 . S
C1109 H1115 0.959 . S
C1109 H1116 0.961 . S
C1109 H1117 0.960 . S
C1110 C1108 1.381 . S
C1110 C1111 1.394 . S
C1110 H1118 0.930 . S
C1111 C1110 1.394 . S
C1111 C1112 1.383 . S
C1111 H1119 0.929 . S
C1112 C1111 1.383 . S
C1112 C1113 1.377 . S
C1113 H1097 0.930 . S
C1113 C1112 1.377 . S
C1113 C1114 1.379 . S
C1114 H1098 0.931 . S
C1114 C1108 1.383 . S
C1114 C1113 1.379 . S
H1115 C1109 0.959 . S
H1116 C1109 0.961 . S
H1117 C1109 0.960 . S
H1118 C1110 0.930 . S
H1119 C1111 0.929 . S
H1120 C1128 0.929 1_554 S
H1121 C1130 0.930 . S
H1122 C1132 0.930 . S
H1123 C1135 0.929 . S
H1124 C1138 0.930 . S
H1125 C1140 0.960 . S
H1126 C1140 0.960 . S
H1127 C1140 0.960 . S
C1128 H1120 0.929 1_556 S
C1128 C1129 1.377 1_556 S
C1128 C1130 1.384 . S
C1129 C1128 1.377 1_554 S
C1129 C1135 1.390 1_554 S
C1130 H1121 0.930 . S
C1130 C1128 1.384 . S
C1130 C1131 1.372 . S
C1131 C1130 1.372 . S
C1131 C1132 1.400 . S
C1131 C1136 1.490 . S
C1132 H1122 0.930 . S
C1132 C1131 1.400 . S
C1132 C1135 1.386 . S
H1133 C1149 0.930 . S
H1134 C1150 0.931 . S
C1135 H1123 0.929 . S
C1135 C1129 1.390 1_556 S
C1135 C1132 1.386 . S
C1136 C1131 1.490 . S
C1136 C1138 1.395 . S
C1136 C1139 1.403 . S
H1137 C1143 0.930 . S
C1138 H1124 0.930 . S
C1138 C1136 1.395 . S
C1138 C1141 1.403 . S
C1139 C1136 1.403 . S
C1139 C1140 1.524 . S
C1139 C1143 1.400 . S
C1140 H1125 0.960 . S
C1140 H1126 0.960 . S
C1140 H1127 0.960 . S
C1140 C1139 1.524 . S
C1141 C1138 1.403 . S
C1141 C1142 1.392 . S
C1141 C1145 1.495 . S
C1142 C1141 1.392 . S
C1142 C1143 1.385 . S
C1142 C1144 1.478 . S
C1143 H1137 0.930 . S
C1143 C1139 1.400 . S
C1143 C1142 1.385 . S
C1144 C1142 1.478 . S
C1144 C1146 1.381 . S
C1144 C1150 1.383 . S
C1145 C1141 1.495 . S
C1145 H1151 0.959 . S
C1145 H1152 0.961 . S
C1145 H1153 0.960 . S
C1146 C1144 1.381 . S
C1146 C1147 1.394 . S
C1146 H1154 0.930 . S
C1147 C1146 1.394 . S
C1147 C1148 1.383 . S
C1147 H1155 0.929 . S
C1148 C1147 1.383 . S
C1148 C1149 1.377 . S
C1149 H1133 0.930 . S
C1149 C1148 1.377 . S
C1149 C1150 1.379 . S
C1150 H1134 0.931 . S
C1150 C1144 1.383 . S
C1150 C1149 1.379 . S
H1151 C1145 0.959 . S
H1152 C1145 0.961 . S
H1153 C1145 0.960 . S
H1154 C1146 0.930 . S
H1155 C1147 0.929 . S
H1156 C1164 0.929 . S
H1157 C1166 0.930 . S
H1158 C1168 0.930 . S
H1159 C1171 0.929 . S
H1160 C1174 0.930 . S
H1161 C1176 0.960 . S
H1162 C1176 0.960 . S
H1163 C1176 0.960 . S
C1164 H1156 0.929 . S
C1164 C1165 1.377 . S
C1164 C1166 1.384 . S
C1165 C1164 1.377 . S
C1165 C1171 1.390 . S
C1166 H1157 0.930 . S
C1166 C1164 1.384 . S
C1166 C1167 1.372 . S
C1167 C1166 1.372 . S
C1167 C1168 1.400 . S
C1167 C1172 1.490 . S
C1168 H1158 0.930 . S
C1168 C1167 1.400 . S
C1168 C1171 1.386 . S
H1169 C1185 0.930 . S
H1170 C1186 0.931 . S
C1171 H1159 0.929 . S
C1171 C1165 1.390 . S
C1171 C1168 1.386 . S
C1172 C1167 1.490 . S
C1172 C1174 1.395 . S
C1172 C1175 1.403 . S
H1173 C1179 0.930 . S
C1174 H1160 0.930 . S
C1174 C1172 1.395 . S
C1174 C1177 1.403 . S
C1175 C1172 1.403 . S
C1175 C1176 1.524 . S
C1175 C1179 1.400 . S
C1176 H1161 0.960 . S
C1176 H1162 0.960 . S
C1176 H1163 0.960 . S
C1176 C1175 1.524 . S
C1177 C1174 1.403 . S
C1177 C1178 1.392 . S
C1177 C1181 1.495 . S
C1178 C1177 1.392 . S
C1178 C1179 1.385 . S
C1178 C1180 1.478 . S
C1179 H1173 0.930 . S
C1179 C1175 1.400 . S
C1179 C1178 1.385 . S
C1180 C1178 1.478 . S
C1180 C1182 1.381 . S
C1180 C1186 1.383 . S
C1181 C1177 1.495 . S
C1181 H1187 0.959 . S
C1181 H1188 0.961 . S
C1181 H1189 0.960 . S
C1182 C1180 1.381 . S
C1182 C1183 1.394 . S
C1182 H1190 0.930 . S
C1183 C1182 1.394 . S
C1183 C1184 1.383 1_556 S
C1183 H1191 0.929 . S
C1184 C1183 1.383 1_554 S
C1184 C1185 1.377 1_554 S
C1185 H1169 0.930 . S
C1185 C1184 1.377 1_556 S
C1185 C1186 1.379 . S
C1186 H1170 0.931 . S
C1186 C1180 1.383 . S
C1186 C1185 1.379 . S
H1187 C1181 0.959 . S
H1188 C1181 0.961 . S
H1189 C1181 0.960 . S
H1190 C1182 0.930 . S
H1191 C1183 0.929 . S
H1192 C1200 0.929 . S
H1193 C1202 0.930 . S
H1194 C1204 0.930 . S
H1195 C1207 0.929 . S
H1196 C1210 0.930 . S
H1197 C1212 0.960 . S
H1198 C1212 0.960 . S
H1199 C1212 0.949 1_455 S
C1200 H1192 0.929 . S
C1200 C1201 1.377 1_655 S
C1200 C1202 1.384 . S
C1201 C1200 1.377 1_455 S
C1201 C1207 1.390 . S
C1202 H1193 0.930 . S
C1202 C1200 1.384 . S
C1202 C1203 1.372 1_655 S
C1203 C1202 1.372 1_455 S
C1203 C1204 1.400 . S
C1203 C1208 1.490 . S
C1204 H1194 0.930 . S
C1204 C1203 1.400 . S
C1204 C1207 1.386 . S
H1205 C1221 0.930 . S
H1206 C1222 0.931 . S
C1207 H1195 0.929 . S
C1207 C1201 1.390 . S
C1207 C1204 1.386 . S
C1208 C1203 1.490 . S
C1208 C1210 1.395 . S
C1208 C1211 1.403 . S
H1209 C1215 0.930 1_655 S
C1210 H1196 0.930 . S
C1210 C1208 1.395 . S
C1210 C1213 1.403 . S
C1211 C1208 1.403 . S
C1211 C1212 1.524 1_455 S
C1211 C1215 1.400 . S
C1212 H1197 0.960 . S
C1212 H1198 0.960 . S
C1212 H1199 0.949 1_655 S
C1212 C1211 1.524 1_655 S
C1213 C1210 1.403 . S
C1213 C1214 1.392 . S
C1213 C1217 1.495 . S
C1214 C1213 1.392 . S
C1214 C1215 1.385 . S
C1214 C1216 1.478 . S
C1215 H1209 0.930 1_455 S
C1215 C1211 1.400 . S
C1215 C1214 1.385 . S
C1216 C1214 1.478 . S
C1216 C1218 1.381 . S
C1216 C1222 1.383 . S
C1217 C1213 1.495 . S
C1217 H1223 0.959 . S
C1217 H1224 0.961 . S
C1217 H1225 0.960 . S
C1218 C1216 1.381 . S
C1218 C1219 1.394 . S
C1218 H1226 0.930 1_455 S
C1219 C1218 1.394 . S
C1219 C1220 1.383 1_556 S
C1219 H1227 0.929 1_456 S
C1220 C1219 1.383 1_554 S
C1220 C1221 1.377 1_554 S
C1221 H1205 0.930 . S
C1221 C1220 1.377 1_556 S
C1221 C1222 1.379 . S
C1222 H1206 0.931 . S
C1222 C1216 1.383 . S
C1222 C1221 1.379 . S
H1223 C1217 0.959 . S
H1224 C1217 0.961 . S
H1225 C1217 0.960 . S
H1226 C1218 0.930 1_655 S
H1227 C1219 0.929 1_654 S
H1228 C1236 0.929 . S
H1229 C1238 0.930 . S
H1230 C1240 0.941 . S
H1231 C1243 0.929 1_565 S
H1232 C1246 0.930 . S
H1233 C1248 0.960 . S
H1234 C1248 0.960 . S
H1235 C1248 0.960 . S
C1236 H1228 0.929 . S
C1236 C1237 1.377 . S
C1236 C1238 1.384 . S
C1237 C1236 1.377 . S
C1237 C1243 1.390 . S
C1238 H1229 0.930 . S
C1238 C1236 1.384 . S
C1238 C1239 1.372 . S
C1239 C1238 1.372 . S
C1239 C1240 1.400 . S
C1239 C1244 1.490 . S
C1240 H1230 0.941 . S
C1240 C1239 1.400 . S
C1240 C1243 1.386 . S
H1241 C1257 0.917 1_564 S
H1242 C1258 0.931 1_565 S
C1243 H1231 0.929 1_545 S
C1243 C1237 1.390 . S
C1243 C1240 1.386 . S
C1244 C1239 1.490 . S
C1244 C1246 1.395 1_545 S
C1244 C1247 1.403 . S
H1245 C1251 0.930 . S
C1246 H1232 0.930 . S
C1246 C1244 1.395 1_565 S
C1246 C1249 1.403 . S
C1247 C1244 1.403 . S
C1247 C1248 1.524 . S
C1247 C1251 1.400 . S
C1248 H1233 0.960 . S
C1248 H1234 0.960 . S
C1248 H1235 0.960 . S
C1248 C1247 1.524 . S
C1249 C1246 1.403 . S
C1249 C1250 1.392 1_565 S
C1249 C1253 1.495 . S
C1250 C1249 1.392 1_545 S
C1250 C1251 1.385 . S
C1250 C1252 1.478 . S
C1251 H1245 0.930 . S
C1251 C1247 1.400 . S
C1251 C1250 1.385 . S
C1252 C1250 1.478 . S
C1252 C1254 1.381 . S
C1252 C1258 1.383 . S
C1253 C1249 1.495 . S
C1253 H1259 0.959 . S
C1253 H1260 0.961 . S
C1253 H1261 0.960 . S
C1254 C1252 1.381 . S
C1254 C1255 1.394 . S
C1254 H1262 0.930 . S
C1255 C1254 1.394 . S
C1255 C1256 1.383 1_556 S
C1255 H1263 0.929 . S
C1256 C1255 1.383 1_554 S
C1256 C1257 1.377 1_554 S
C1257 H1241 0.917 1_546 S
C1257 C1256 1.377 1_556 S
C1257 C1258 1.379 . S
C1258 H1242 0.931 1_545 S
C1258 C1252 1.383 . S
C1258 C1257 1.379 . S
H1259 C1253 0.959 . S
H1260 C1253 0.961 . S
H1261 C1253 0.960 . S
H1262 C1254 0.930 . S
H1263 C1255 0.929 . S
H1264 C1272 0.929 . S
H1265 C1274 0.930 . S
H1266 C1276 0.930 . S
H1267 C1279 0.929 . S
H1268 C1282 0.930 . S
H1269 C1284 0.960 . S
H1270 C1284 0.960 . S
H1271 C1284 0.960 . S
C1272 H1264 0.929 . S
C1272 C1273 1.377 . S
C1272 C1274 1.384 . S
C1273 C1272 1.377 . S
C1273 C1279 1.390 1_655 S
C1274 H1265 0.930 . S
C1274 C1272 1.384 . S
C1274 C1275 1.372 . S
C1275 C1274 1.372 . S
C1275 C1276 1.400 1_655 S
C1275 C1280 1.490 . S
C1276 H1266 0.930 . S
C1276 C1275 1.400 1_455 S
C1276 C1279 1.386 . S
H1277 C1293 0.930 . S
H1278 C1294 0.931 . S
C1279 H1267 0.929 . S
C1279 C1273 1.390 1_455 S
C1279 C1276 1.386 . S
C1280 C1275 1.490 . S
C1280 C1282 1.395 . S
C1280 C1283 1.403 1_655 S
H1281 C1287 0.914 1_455 S
C1282 H1268 0.930 . S
C1282 C1280 1.395 . S
C1282 C1285 1.403 . S
C1283 C1280 1.403 1_455 S
C1283 C1284 1.524 . S
C1283 C1287 1.398 1_455 S
C1284 H1269 0.960 . S
C1284 H1270 0.960 . S
C1284 H1271 0.960 . S
C1284 C1283 1.524 . S
C1285 C1282 1.403 . S
C1285 C1286 1.392 . S
C1285 C1289 1.495 . S
C1286 C1285 1.392 . S
C1286 C1287 1.403 . S
C1286 C1288 1.478 . S
C1287 H1281 0.914 1_655 S
C1287 C1283 1.398 1_655 S
C1287 C1286 1.403 . S
C1288 C1286 1.478 . S
C1288 C1290 1.381 . S
C1288 C1294 1.383 1_655 S
C1289 C1285 1.495 . S
C1289 H1295 0.959 . S
C1289 H1296 0.961 . S
C1289 H1297 0.960 . S
C1290 C1288 1.381 . S
C1290 C1291 1.394 . S
C1290 H1298 0.930 . S
C1291 C1290 1.394 . S
C1291 C1292 1.383 . S
C1291 H1299 0.929 . S
C1292 C1291 1.383 . S
C1292 C1293 1.377 1_655 S
C1293 H1277 0.930 . S
C1293 C1292 1.377 1_455 S
C1293 C1294 1.379 . S
C1294 H1278 0.931 . S
C1294 C1288 1.383 1_455 S
C1294 C1293 1.379 . S
H1295 C1289 0.959 . S
H1296 C1289 0.961 . S
H1297 C1289 0.960 . S
H1298 C1290 0.930 . S
H1299 C1291 0.929 . S
H1300 C1308 0.929 . S
H1301 C1310 0.930 . S
H1302 C1312 0.930 1_545 S
H1303 C1315 0.929 1_545 S
H1304 C1318 0.930 . S
H1305 C1320 0.960 . S
H1306 C1320 0.960 . S
H1307 C1320 0.960 . S
C1308 H1300 0.929 . S
C1308 C1309 1.377 . S
C1308 C1310 1.384 . S
C1309 C1308 1.377 . S
C1309 C1315 1.390 . S
C1310 H1301 0.930 . S
C1310 C1308 1.384 . S
C1310 C1311 1.372 . S
C1311 C1310 1.372 . S
C1311 C1312 1.400 . S
C1311 C1316 1.490 . S
C1312 H1302 0.930 1_565 S
C1312 C1311 1.400 . S
C1312 C1315 1.386 . S
H1313 C1329 0.930 1_545 S
H1314 C1330 0.939 . S
C1315 H1303 0.929 1_565 S
C1315 C1309 1.390 . S
C1315 C1312 1.386 . S
C1316 C1311 1.490 . S
C1316 C1318 1.395 . S
C1316 C1319 1.403 1_565 S
H1317 C1323 0.930 . S
C1318 H1304 0.930 . S
C1318 C1316 1.395 . S
C1318 C1321 1.403 . S
C1319 C1316 1.403 1_545 S
C1319 C1320 1.524 . S
C1319 C1323 1.400 . S
C1320 H1305 0.960 . S
C1320 H1306 0.960 . S
C1320 H1307 0.960 . S
C1320 C1319 1.524 . S
C1321 C1318 1.403 . S
C1321 C1322 1.392 . S
C1321 C1325 1.495 . S
C1322 C1321 1.392 . S
C1322 C1323 1.385 1_565 S
C1322 C1324 1.478 . S
C1323 H1317 0.930 . S
C1323 C1319 1.400 . S
C1323 C1322 1.385 1_545 S
C1324 C1322 1.478 . S
C1324 C1326 1.381 . S
C1324 C1330 1.383 . S
C1325 C1321 1.495 . S
C1325 H1331 0.959 . S
C1325 H1332 0.961 . S
C1325 H1333 0.960 . S
C1326 C1324 1.381 . S
C1326 C1327 1.394 . S
C1326 H1334 0.930 . S
C1327 C1326 1.394 . S
C1327 C1328 1.383 . S
C1327 H1335 0.929 . S
C1328 C1327 1.383 . S
C1328 C1329 1.377 . S
C1329 H1313 0.930 1_565 S
C1329 C1328 1.377 . S
C1329 C1330 1.379 . S
C1330 H1314 0.939 . S
C1330 C1324 1.383 . S
C1330 C1329 1.379 . S
H1331 C1325 0.959 . S
H1332 C1325 0.961 . S
H1333 C1325 0.960 . S
H1334 C1326 0.930 . S
H1335 C1327 0.929 . S
H1336 C1344 0.929 . S
H1337 C1346 0.930 . S
H1338 C1348 0.930 . S
H1339 C1351 0.929 . S
H1340 C1354 0.930 . S
H1341 C1356 0.960 . S
H1342 C1356 0.960 . S
H1343 C1356 0.960 . S
C1344 H1336 0.929 . S
C1344 C1345 1.377 . S
C1344 C1346 1.384 . S
C1345 C1344 1.377 . S
C1345 C1351 1.390 . S
C1346 H1337 0.930 . S
C1346 C1344 1.384 . S
C1346 C1347 1.372 . S
C1347 C1346 1.372 . S
C1347 C1348 1.400 . S
C1347 C1352 1.490 . S
C1348 H1338 0.930 . S
C1348 C1347 1.400 . S
C1348 C1351 1.386 . S
H1349 C1365 0.930 . S
H1350 C1366 0.931 . S
C1351 H1339 0.929 . S
C1351 C1345 1.390 . S
C1351 C1348 1.386 . S
C1352 C1347 1.490 . S
C1352 C1354 1.395 . S
C1352 C1355 1.403 . S
H1353 C1359 0.930 . S
C1354 H1340 0.930 . S
C1354 C1352 1.395 . S
C1354 C1357 1.403 . S
C1355 C1352 1.403 . S
C1355 C1356 1.524 . S
C1355 C1359 1.400 . S
C1356 H1341 0.960 . S
C1356 H1342 0.960 . S
C1356 H1343 0.960 . S
C1356 C1355 1.524 . S
C1357 C1354 1.403 . S
C1357 C1358 1.392 . S
C1357 C1361 1.495 . S
C1358 C1357 1.392 . S
C1358 C1359 1.385 . S
C1358 C1360 1.478 . S
C1359 H1353 0.930 . S
C1359 C1355 1.400 . S
C1359 C1358 1.385 . S
C1360 C1358 1.478 . S
C1360 C1362 1.381 . S
C1360 C1366 1.383 . S
C1361 C1357 1.495 . S
C1361 H1367 0.959 . S
C1361 H1368 0.961 . S
C1361 H1369 0.960 . S
C1362 C1360 1.381 . S
C1362 C1363 1.394 . S
C1362 H1370 0.930 . S
C1363 C1362 1.394 . S
C1363 C1364 1.383 . S
C1363 H1371 0.929 . S
C1364 C1363 1.383 . S
C1364 C1365 1.377 . S
C1365 H1349 0.930 . S
C1365 C1364 1.377 . S
C1365 C1366 1.379 . S
C1366 H1350 0.931 . S
C1366 C1360 1.383 . S
C1366 C1365 1.379 . S
H1367 C1361 0.959 . S
H1368 C1361 0.961 . S
H1369 C1361 0.960 . S
H1370 C1362 0.930 . S
H1371 C1363 0.929 . S
H1372 C1380 0.929 . S
H1373 C1382 0.930 . S
H1374 C1384 0.930 . S
H1375 C1387 0.929 . S
H1376 C1390 0.930 . S
H1377 C1392 0.960 . S
H1378 C1392 0.960 . S
H1379 C1392 0.960 . S
C1380 H1372 0.929 . S
C1380 C1381 1.377 . S
C1380 C1382 1.384 . S
C1381 C1380 1.377 . S
C1381 C1387 1.390 . S
C1382 H1373 0.930 . S
C1382 C1380 1.384 . S
C1382 C1383 1.372 . S
C1383 C1382 1.372 . S
C1383 C1384 1.400 . S
C1383 C1388 1.490 . S
C1384 H1374 0.930 . S
C1384 C1383 1.400 . S
C1384 C1387 1.386 . S
H1385 C1401 0.930 . S
H1386 C1402 0.931 . S
C1387 H1375 0.929 . S
C1387 C1381 1.390 . S
C1387 C1384 1.386 . S
C1388 C1383 1.490 . S
C1388 C1390 1.395 . S
C1388 C1391 1.403 . S
H1389 C1395 0.930 . S
C1390 H1376 0.930 . S
C1390 C1388 1.395 . S
C1390 C1393 1.403 . S
C1391 C1388 1.403 . S
C1391 C1392 1.524 . S
C1391 C1395 1.400 . S
C1392 H1377 0.960 . S
C1392 H1378 0.960 . S
C1392 H1379 0.960 . S
C1392 C1391 1.524 . S
C1393 C1390 1.403 . S
C1393 C1394 1.392 . S
C1393 C1397 1.495 . S
C1394 C1393 1.392 . S
C1394 C1395 1.385 . S
C1394 C1396 1.478 . S
C1395 H1389 0.930 . S
C1395 C1391 1.400 . S
C1395 C1394 1.385 . S
C1396 C1394 1.478 . S
C1396 C1398 1.381 . S
C1396 C1402 1.383 . S
C1397 C1393 1.495 . S
C1397 H1403 0.959 . S
C1397 H1404 0.961 . S
C1397 H1405 0.960 . S
C1398 C1396 1.381 . S
C1398 C1399 1.394 . S
C1398 H1406 0.930 . S
C1399 C1398 1.394 . S
C1399 C1400 1.383 . S
C1399 H1407 0.929 . S
C1400 C1399 1.383 . S
C1400 C1401 1.377 . S
C1401 H1385 0.930 . S
C1401 C1400 1.377 . S
C1401 C1402 1.379 . S
C1402 H1386 0.931 . S
C1402 C1396 1.383 . S
C1402 C1401 1.379 . S
H1403 C1397 0.959 . S
H1404 C1397 0.961 . S
H1405 C1397 0.960 . S
H1406 C1398 0.930 . S
H1407 C1399 0.929 . S
H1408 C1416 0.929 . S
H1409 C1418 0.930 . S
H1410 C1420 0.930 . S
H1411 C1423 0.929 . S
H1412 C1426 0.930 . S
H1413 C1428 0.960 . S
H1414 C1428 0.960 . S
H1415 C1428 0.960 . S
C1416 H1408 0.929 . S
C1416 C1417 1.377 . S
C1416 C1418 1.384 . S
C1417 C1416 1.377 . S
C1417 C1423 1.390 . S
C1418 H1409 0.930 . S
C1418 C1416 1.384 . S
C1418 C1419 1.372 . S
C1419 C1418 1.372 . S
C1419 C1420 1.400 . S
C1419 C1424 1.490 . S
C1420 H1410 0.930 . S
C1420 C1419 1.400 . S
C1420 C1423 1.386 . S
H1421 C1437 0.930 . S
H1422 C1438 0.931 . S
C1423 H1411 0.929 . S
C1423 C1417 1.390 . S
C1423 C1420 1.386 . S
C1424 C1419 1.490 . S
C1424 C1426 1.395 . S
C1424 C1427 1.403 . S
H1425 C1431 0.930 . S
C1426 H1412 0.930 . S
C1426 C1424 1.395 . S
C1426 C1429 1.403 . S
C1427 C1424 1.403 . S
C1427 C1428 1.524 . S
C1427 C1431 1.400 . S
C1428 H1413 0.960 . S
C1428 H1414 0.960 . S
C1428 H1415 0.960 . S
C1428 C1427 1.524 . S
C1429 C1426 1.403 . S
C1429 C1430 1.392 . S
C1429 C1433 1.495 . S
C1430 C1429 1.392 . S
C1430 C1431 1.385 . S
C1430 C1432 1.478 . S
C1431 H1425 0.930 . S
C1431 C1427 1.400 . S
C1431 C1430 1.385 . S
C1432 C1430 1.478 . S
C1432 C1434 1.381 . S
C1432 C1438 1.383 . S
C1433 C1429 1.495 . S
C1433 H1439 0.959 . S
C1433 H1440 0.961 . S
C1433 H1441 0.960 . S
C1434 C1432 1.381 . S
C1434 C1435 1.394 . S
C1434 H1442 0.930 . S
C1435 C1434 1.394 . S
C1435 C1436 1.383 . S
C1435 H1443 0.929 . S
C1436 C1435 1.383 . S
C1436 C1437 1.377 . S
C1437 H1421 0.930 . S
C1437 C1436 1.377 . S
C1437 C1438 1.379 . S
C1438 H1422 0.931 . S
C1438 C1432 1.383 . S
C1438 C1437 1.379 . S
H1439 C1433 0.959 . S
H1440 C1433 0.961 . S
H1441 C1433 0.960 . S
H1442 C1434 0.930 . S
H1443 C1435 0.929 . S
H1444 C1452 0.929 . S
H1445 C1454 0.930 . S
H1446 C1456 0.930 . S
H1447 C1459 0.929 . S
H1448 C1462 0.930 . S
H1449 C1464 0.960 . S
H1450 C1464 0.960 . S
H1451 C1464 0.960 . S
C1452 H1444 0.929 . S
C1452 C1453 1.377 . S
C1452 C1454 1.384 . S
C1453 C1452 1.377 . S
C1453 C1459 1.390 . S
C1454 H1445 0.930 . S
C1454 C1452 1.384 . S
C1454 C1455 1.372 . S
C1455 C1454 1.372 . S
C1455 C1456 1.400 . S
C1455 C1460 1.490 . S
C1456 H1446 0.930 . S
C1456 C1455 1.400 . S
C1456 C1459 1.386 . S
H1457 C1473 0.930 . S
H1458 C1474 0.931 . S
C1459 H1447 0.929 . S
C1459 C1453 1.390 . S
C1459 C1456 1.386 . S
C1460 C1455 1.490 . S
C1460 C1462 1.395 . S
C1460 C1463 1.403 . S
H1461 C1467 0.930 . S
C1462 H1448 0.930 . S
C1462 C1460 1.395 . S
C1462 C1465 1.403 . S
C1463 C1460 1.403 . S
C1463 C1464 1.524 . S
C1463 C1467 1.400 . S
C1464 H1449 0.960 . S
C1464 H1450 0.960 . S
C1464 H1451 0.960 . S
C1464 C1463 1.524 . S
C1465 C1462 1.403 . S
C1465 C1466 1.392 . S
C1465 C1469 1.495 . S
C1466 C1465 1.392 . S
C1466 C1467 1.385 . S
C1466 C1468 1.478 . S
C1467 H1461 0.930 . S
C1467 C1463 1.400 . S
C1467 C1466 1.385 . S
C1468 C1466 1.478 . S
C1468 C1470 1.381 . S
C1468 C1474 1.383 . S
C1469 C1465 1.495 . S
C1469 H1475 0.959 . S
C1469 H1476 0.961 . S
C1469 H1477 0.960 . S
C1470 C1468 1.381 . S
C1470 C1471 1.394 . S
C1470 H1478 0.930 . S
C1471 C1470 1.394 . S
C1471 C1472 1.383 . S
C1471 H1479 0.929 . S
C1472 C1471 1.383 . S
C1472 C1473 1.377 . S
C1473 H1457 0.930 . S
C1473 C1472 1.377 . S
C1473 C1474 1.379 . S
C1474 H1458 0.931 . S
C1474 C1468 1.383 . S
C1474 C1473 1.379 . S
H1475 C1469 0.959 . S
H1476 C1469 0.961 . S
H1477 C1469 0.960 . S
H1478 C1470 0.930 . S
H1479 C1471 0.929 . S
H1480 C1488 0.929 . S
H1481 C1490 0.930 . S
H1482 C1492 0.930 . S
H1483 C1495 0.929 . S
H1484 C1498 0.930 . S
H1485 C1500 0.960 . S
H1486 C1500 0.960 . S
H1487 C1500 0.960 . S
C1488 H1480 0.929 . S
C1488 C1489 1.377 . S
C1488 C1490 1.384 . S
C1489 C1488 1.377 . S
C1489 C1495 1.390 . S
C1490 H1481 0.930 . S
C1490 C1488 1.384 . S
C1490 C1491 1.372 . S
C1491 C1490 1.372 . S
C1491 C1492 1.400 . S
C1491 C1496 1.490 . S
C1492 H1482 0.930 . S
C1492 C1491 1.400 . S
C1492 C1495 1.386 . S
H1493 C1509 0.930 . S
H1494 C1510 0.931 . S
C1495 H1483 0.929 . S
C1495 C1489 1.390 . S
C1495 C1492 1.386 . S
C1496 C1491 1.490 . S
C1496 C1498 1.395 . S
C1496 C1499 1.403 . S
H1497 C1503 0.930 . S
C1498 H1484 0.930 . S
C1498 C1496 1.395 . S
C1498 C1501 1.403 . S
C1499 C1496 1.403 . S
C1499 C1500 1.524 . S
C1499 C1503 1.400 . S
C1500 H1485 0.960 . S
C1500 H1486 0.960 . S
C1500 H1487 0.960 . S
C1500 C1499 1.524 . S
C1501 C1498 1.403 . S
C1501 C1502 1.392 . S
C1501 C1505 1.495 . S
C1502 C1501 1.392 . S
C1502 C1503 1.385 . S
C1502 C1504 1.478 . S
C1503 H1497 0.930 . S
C1503 C1499 1.400 . S
C1503 C1502 1.385 . S
C1504 C1502 1.478 . S
C1504 C1506 1.381 . S
C1504 C1510 1.383 . S
C1505 C1501 1.495 . S
C1505 H1511 0.959 . S
C1505 H1512 0.961 . S
C1505 H1513 0.960 . S
C1506 C1504 1.381 . S
C1506 C1507 1.394 . S
C1506 H1514 0.930 . S
C1507 C1506 1.394 . S
C1507 C1508 1.383 . S
C1507 H1515 0.929 . S
C1508 C1507 1.383 . S
C1508 C1509 1.377 . S
C1509 H1493 0.930 . S
C1509 C1508 1.377 . S
C1509 C1510 1.379 . S
C1510 H1494 0.931 . S
C1510 C1504 1.383 . S
C1510 C1509 1.379 . S
H1511 C1505 0.959 . S
H1512 C1505 0.961 . S
H1513 C1505 0.960 . S
H1514 C1506 0.930 . S
H1515 C1507 0.929 . S
H1516 C1524 0.929 . S
H1517 C1526 0.930 . S
H1518 C1528 0.930 . S
H1519 C1531 0.929 . S
H1520 C1534 0.930 . S
H1521 C1536 0.960 . S
H1522 C1536 0.960 . S
H1523 C1536 0.960 . S
C1524 H1516 0.929 . S
C1524 C1525 1.377 . S
C1524 C1526 1.384 . S
C1525 C1524 1.377 . S
C1525 C1531 1.390 . S
C1526 H1517 0.930 . S
C1526 C1524 1.384 . S
C1526 C1527 1.372 . S
C1527 C1526 1.372 . S
C1527 C1528 1.400 . S
C1527 C1532 1.490 . S
C1528 H1518 0.930 . S
C1528 C1527 1.400 . S
C1528 C1531 1.386 . S
H1529 C1545 0.930 . S
H1530 C1546 0.931 . S
C1531 H1519 0.929 . S
C1531 C1525 1.390 . S
C1531 C1528 1.386 . S
C1532 C1527 1.490 . S
C1532 C1534 1.395 . S
C1532 C1535 1.403 . S
H1533 C1539 0.930 . S
C1534 H1520 0.930 . S
C1534 C1532 1.395 . S
C1534 C1537 1.403 . S
C1535 C1532 1.403 . S
C1535 C1536 1.524 . S
C1535 C1539 1.400 . S
C1536 H1521 0.960 . S
C1536 H1522 0.960 . S
C1536 H1523 0.960 . S
C1536 C1535 1.524 . S
C1537 C1534 1.403 . S
C1537 C1538 1.392 . S
C1537 C1541 1.495 . S
C1538 C1537 1.392 . S
C1538 C1539 1.385 . S
C1538 C1540 1.478 . S
C1539 H1533 0.930 . S
C1539 C1535 1.400 . S
C1539 C1538 1.385 . S
C1540 C1538 1.478 . S
C1540 C1542 1.381 . S
C1540 C1546 1.383 . S
C1541 C1537 1.495 . S
C1541 H1547 0.959 . S
C1541 H1548 0.961 . S
C1541 H1549 0.960 . S
C1542 C1540 1.381 . S
C1542 C1543 1.394 . S
C1542 H1550 0.930 . S
C1543 C1542 1.394 . S
C1543 C1544 1.383 . S
C1543 H1551 0.929 . S
C1544 C1543 1.383 . S
C1544 C1545 1.377 . S
C1545 H1529 0.930 . S
C1545 C1544 1.377 . S
C1545 C1546 1.379 . S
C1546 H1530 0.931 . S
C1546 C1540 1.383 . S
C1546 C1545 1.379 . S
H1547 C1541 0.959 . S
H1548 C1541 0.961 . S
H1549 C1541 0.960 . S
H1550 C1542 0.930 . S
H1551 C1543 0.929 . S
H1552 C1560 0.929 . S
H1553 C1562 0.930 . S
H1554 C1564 0.930 . S
H1555 C1567 0.929 . S
H1556 C1570 0.930 . S
H1557 C1572 0.960 . S
H1558 C1572 0.960 . S
H1559 C1572 0.960 . S
C1560 H1552 0.929 . S
C1560 C1561 1.377 . S
C1560 C1562 1.384 . S
C1561 C1560 1.377 . S
C1561 C1567 1.390 . S
C1562 H1553 0.930 . S
C1562 C1560 1.384 . S
C1562 C1563 1.372 . S
C1563 C1562 1.372 . S
C1563 C1564 1.400 . S
C1563 C1568 1.490 . S
C1564 H1554 0.930 . S
C1564 C1563 1.400 . S
C1564 C1567 1.386 . S
H1565 C1581 0.930 . S
H1566 C1582 0.931 . S
C1567 H1555 0.929 . S
C1567 C1561 1.390 . S
C1567 C1564 1.386 . S
C1568 C1563 1.490 . S
C1568 C1570 1.395 1_556 S
C1568 C1571 1.403 . S
H1569 C1575 0.930 . S
C1570 H1556 0.930 . S
C1570 C1568 1.395 1_554 S
C1570 C1573 1.403 . S
C1571 C1568 1.403 . S
C1571 C1572 1.524 . S
C1571 C1575 1.400 1_556 S
C1572 H1557 0.960 . S
C1572 H1558 0.960 . S
C1572 H1559 0.960 . S
C1572 C1571 1.524 . S
C1573 C1570 1.403 . S
C1573 C1574 1.392 . S
C1573 C1577 1.495 . S
C1574 C1573 1.392 . S
C1574 C1575 1.385 . S
C1574 C1576 1.478 . S
C1575 H1569 0.930 . S
C1575 C1571 1.400 1_554 S
C1575 C1574 1.385 . S
C1576 C1574 1.478 . S
C1576 C1578 1.381 . S
C1576 C1582 1.383 . S
C1577 C1573 1.495 . S
C1577 H1583 0.959 . S
C1577 H1584 0.961 . S
C1577 H1585 0.960 . S
C1578 C1576 1.381 . S
C1578 C1579 1.394 . S
C1578 H1586 0.930 . S
C1579 C1578 1.394 . S
C1579 C1580 1.383 . S
C1579 H1587 0.929 . S
C1580 C1579 1.383 . S
C1580 C1581 1.377 . S
C1581 H1565 0.930 . S
C1581 C1580 1.377 . S
C1581 C1582 1.379 . S
C1582 H1566 0.931 . S
C1582 C1576 1.383 . S
C1582 C1581 1.379 . S
H1583 C1577 0.959 . S
H1584 C1577 0.961 . S
H1585 C1577 0.960 . S
H1586 C1578 0.930 . S
H1587 C1579 0.929 . S
H1588 C1596 0.929 . S
H1589 C1598 0.930 . S
H1590 C1600 0.930 . S
H1591 C1603 0.929 . S
H1592 C1606 0.930 . S
H1593 C1608 0.960 . S
H1594 C1608 0.960 . S
H1595 C1608 0.960 . S
C1596 H1588 0.929 . S
C1596 C1597 1.377 . S
C1596 C1598 1.384 . S
C1597 C1596 1.377 . S
C1597 C1603 1.390 . S
C1598 H1589 0.930 . S
C1598 C1596 1.384 . S
C1598 C1599 1.372 . S
C1599 C1598 1.372 . S
C1599 C1600 1.400 . S
C1599 C1604 1.490 . S
C1600 H1590 0.930 . S
C1600 C1599 1.400 . S
C1600 C1603 1.386 . S
H1601 C1617 0.930 . S
H1602 C1618 0.931 . S
C1603 H1591 0.929 . S
C1603 C1597 1.390 . S
C1603 C1600 1.386 . S
C1604 C1599 1.490 . S
C1604 C1606 1.395 . S
C1604 C1607 1.403 1_554 S
H1605 C1611 0.930 . S
C1606 H1592 0.930 . S
C1606 C1604 1.395 . S
C1606 C1609 1.403 . S
C1607 C1604 1.403 1_556 S
C1607 C1608 1.524 . S
C1607 C1611 1.400 . S
C1608 H1593 0.960 . S
C1608 H1594 0.960 . S
C1608 H1595 0.960 . S
C1608 C1607 1.524 . S
C1609 C1606 1.403 . S
C1609 C1610 1.392 1_554 S
C1609 C1613 1.495 . S
C1610 C1609 1.392 1_556 S
C1610 C1611 1.385 . S
C1610 C1612 1.478 . S
C1611 H1605 0.930 . S
C1611 C1607 1.400 . S
C1611 C1610 1.385 . S
C1612 C1610 1.478 . S
C1612 C1614 1.381 . S
C1612 C1618 1.383 . S
C1613 C1609 1.495 . S
C1613 H1619 0.959 . S
C1613 H1620 0.961 . S
C1613 H1621 0.960 . S
C1614 C1612 1.381 . S
C1614 C1615 1.394 . S
C1614 H1622 0.930 . S
C1615 C1614 1.394 . S
C1615 C1616 1.383 . S
C1615 H1623 0.929 . S
C1616 C1615 1.383 . S
C1616 C1617 1.377 . S
C1617 H1601 0.930 . S
C1617 C1616 1.377 . S
C1617 C1618 1.379 . S
C1618 H1602 0.931 . S
C1618 C1612 1.383 . S
C1618 C1617 1.379 . S
H1619 C1613 0.959 . S
H1620 C1613 0.961 . S
H1621 C1613 0.960 . S
H1622 C1614 0.930 . S
H1623 C1615 0.929 . S
H1624 C1632 0.929 . S
H1625 C1634 0.930 . S
H1626 C1636 0.930 . S
H1627 C1639 0.929 . S
H1628 C1642 0.930 . S
H1629 C1644 0.960 . S
H1630 C1644 0.960 . S
H1631 C1644 0.960 1_554 S
C1632 H1624 0.929 . S
C1632 C1633 1.377 . S
C1632 C1634 1.384 . S
C1633 C1632 1.377 . S
C1633 C1639 1.390 . S
C1634 H1625 0.930 . S
C1634 C1632 1.384 . S
C1634 C1635 1.372 . S
C1635 C1634 1.372 . S
C1635 C1636 1.400 . S
C1635 C1640 1.490 . S
C1636 H1626 0.930 . S
C1636 C1635 1.400 . S
C1636 C1639 1.386 . S
H1637 C1653 0.930 . S
H1638 C1654 0.931 . S
C1639 H1627 0.929 . S
C1639 C1633 1.390 . S
C1639 C1636 1.386 . S
C1640 C1635 1.490 . S
C1640 C1642 1.395 . S
C1640 C1643 1.403 . S
H1641 C1647 0.930 . S
C1642 H1628 0.930 . S
C1642 C1640 1.395 . S
C1642 C1645 1.403 . S
C1643 C1640 1.403 . S
C1643 C1644 1.524 1_554 S
C1643 C1647 1.400 1_554 S
C1644 H1629 0.960 . S
C1644 H1630 0.960 . S
C1644 H1631 0.960 1_556 S
C1644 C1643 1.524 1_556 S
C1645 C1642 1.403 . S
C1645 C1646 1.392 1_554 S
C1645 C1649 1.495 . S
C1646 C1645 1.392 1_556 S
C1646 C1647 1.385 . S
C1646 C1648 1.478 . S
C1647 H1641 0.930 . S
C1647 C1643 1.400 1_556 S
C1647 C1646 1.385 . S
C1648 C1646 1.478 . S
C1648 C1650 1.381 . S
C1648 C1654 1.383 . S
C1649 C1645 1.495 . S
C1649 H1655 0.959 . S
C1649 H1656 0.961 . S
C1649 H1657 0.960 . S
C1650 C1648 1.381 . S
C1650 C1651 1.394 . S
C1650 H1658 0.930 . S
C1651 C1650 1.394 . S
C1651 C1652 1.383 . S
C1651 H1659 0.929 . S
C1652 C1651 1.383 . S
C1652 C1653 1.377 . S
C1653 H1637 0.930 . S
C1653 C1652 1.377 . S
C1653 C1654 1.379 . S
C1654 H1638 0.931 . S
C1654 C1648 1.383 . S
C1654 C1653 1.379 . S
H1655 C1649 0.959 . S
H1656 C1649 0.961 . S
H1657 C1649 0.960 . S
H1658 C1650 0.930 . S
H1659 C1651 0.929 . S
H1660 C1668 0.929 . S
H1661 C1670 0.930 . S
H1662 C1672 0.930 . S
H1663 C1675 0.929 . S
H1664 C1678 0.930 . S
H1665 C1680 0.960 . S
H1666 C1680 0.960 . S
H1667 C1680 0.960 . S
C1668 H1660 0.929 . S
C1668 C1669 1.377 . S
C1668 C1670 1.384 . S
C1669 C1668 1.377 . S
C1669 C1675 1.390 . S
C1670 H1661 0.930 . S
C1670 C1668 1.384 . S
C1670 C1671 1.372 . S
C1671 C1670 1.372 . S
C1671 C1672 1.400 . S
C1671 C1676 1.490 . S
C1672 H1662 0.930 . S
C1672 C1671 1.400 . S
C1672 C1675 1.386 . S
H1673 C1689 0.930 . S
H1674 C1690 0.931 . S
C1675 H1663 0.929 . S
C1675 C1669 1.390 . S
C1675 C1672 1.386 . S
C1676 C1671 1.490 . S
C1676 C1678 1.395 . S
C1676 C1679 1.403 . S
H1677 C1683 0.930 . S
C1678 H1664 0.930 . S
C1678 C1676 1.395 . S
C1678 C1681 1.403 1_554 S
C1679 C1676 1.403 . S
C1679 C1680 1.524 . S
C1679 C1683 1.400 . S
C1680 H1665 0.960 . S
C1680 H1666 0.960 . S
C1680 H1667 0.960 . S
C1680 C1679 1.524 . S
C1681 C1678 1.403 1_556 S
C1681 C1682 1.392 . S
C1681 C1685 1.495 . S
C1682 C1681 1.392 . S
C1682 C1683 1.385 1_556 S
C1682 C1684 1.478 . S
C1683 H1677 0.930 . S
C1683 C1679 1.400 . S
C1683 C1682 1.385 1_554 S
C1684 C1682 1.478 . S
C1684 C1686 1.381 . S
C1684 C1690 1.383 . S
C1685 C1681 1.495 . S
C1685 H1691 0.959 . S
C1685 H1692 0.961 . S
C1685 H1693 0.960 . S
C1686 C1684 1.381 . S
C1686 C1687 1.394 . S
C1686 H1694 0.930 . S
C1687 C1686 1.394 . S
C1687 C1688 1.383 . S
C1687 H1695 0.929 . S
C1688 C1687 1.383 . S
C1688 C1689 1.377 . S
C1689 H1673 0.930 . S
C1689 C1688 1.377 . S
C1689 C1690 1.379 . S
C1690 H1674 0.931 . S
C1690 C1684 1.383 . S
C1690 C1689 1.379 . S
H1691 C1685 0.959 . S
H1692 C1685 0.961 . S
H1693 C1685 0.960 . S
H1694 C1686 0.930 . S
H1695 C1687 0.929 . S
H1696 C1704 0.929 . S
H1697 C1706 0.930 . S
H1698 C1708 0.930 . S
H1699 C1711 0.929 . S
H1700 C1714 0.930 . S
H1701 C1716 0.960 . S
H1702 C1716 0.960 . S
H1703 C1716 0.960 . S
C1704 H1696 0.929 . S
C1704 C1705 1.377 . S
C1704 C1706 1.384 . S
C1705 C1704 1.377 . S
C1705 C1711 1.390 . S
C1706 H1697 0.930 . S
C1706 C1704 1.384 . S
C1706 C1707 1.372 . S
C1707 C1706 1.372 . S
C1707 C1708 1.400 . S
C1707 C1712 1.490 . S
C1708 H1698 0.930 . S
C1708 C1707 1.400 . S
C1708 C1711 1.386 . S
H1709 C1725 0.930 . S
H1710 C1726 0.931 . S
C1711 H1699 0.929 . S
C1711 C1705 1.390 . S
C1711 C1708 1.386 . S
C1712 C1707 1.490 . S
C1712 C1714 1.395 . S
C1712 C1715 1.403 . S
H1713 C1719 0.930 . S
C1714 H1700 0.930 . S
C1714 C1712 1.395 . S
C1714 C1717 1.403 . S
C1715 C1712 1.403 . S
C1715 C1716 1.524 . S
C1715 C1719 1.400 . S
C1716 H1701 0.960 . S
C1716 H1702 0.960 . S
C1716 H1703 0.960 . S
C1716 C1715 1.524 . S
C1717 C1714 1.403 . S
C1717 C1718 1.392 . S
C1717 C1721 1.495 . S
C1718 C1717 1.392 . S
C1718 C1719 1.385 . S
C1718 C1720 1.478 . S
C1719 H1713 0.930 . S
C1719 C1715 1.400 . S
C1719 C1718 1.385 . S
C1720 C1718 1.478 . S
C1720 C1722 1.381 . S
C1720 C1726 1.383 . S
C1721 C1717 1.495 . S
C1721 H1727 0.959 . S
C1721 H1728 0.961 . S
C1721 H1729 0.960 . S
C1722 C1720 1.381 . S
C1722 C1723 1.394 . S
C1722 H1730 0.930 . S
C1723 C1722 1.394 . S
C1723 C1724 1.383 . S
C1723 H1731 0.929 . S
C1724 C1723 1.383 . S
C1724 C1725 1.377 . S
C1725 H1709 0.930 . S
C1725 C1724 1.377 . S
C1725 C1726 1.379 . S
C1726 H1710 0.931 . S
C1726 C1720 1.383 . S
C1726 C1725 1.379 . S
H1727 C1721 0.959 . S
H1728 C1721 0.961 . S
H1729 C1721 0.960 . S
H1730 C1722 0.930 . S
H1731 C1723 0.929 . S
H1732 C1740 0.929 . S
H1733 C1742 0.930 . S
H1734 C1744 0.930 . S
H1735 C1747 0.929 . S
H1736 C1750 0.930 . S
H1737 C1752 0.960 . S
H1738 C1752 0.960 . S
H1739 C1752 0.960 . S
C1740 H1732 0.929 . S
C1740 C1741 1.377 . S
C1740 C1742 1.384 . S
C1741 C1740 1.377 . S
C1741 C1747 1.390 . S
C1742 H1733 0.930 . S
C1742 C1740 1.384 . S
C1742 C1743 1.372 . S
C1743 C1742 1.372 . S
C1743 C1744 1.400 . S
C1743 C1748 1.490 . S
C1744 H1734 0.930 . S
C1744 C1743 1.400 . S
C1744 C1747 1.386 . S
H1745 C1761 0.930 . S
H1746 C1762 0.931 . S
C1747 H1735 0.929 . S
C1747 C1741 1.390 . S
C1747 C1744 1.386 . S
C1748 C1743 1.490 . S
C1748 C1750 1.395 . S
C1748 C1751 1.403 . S
H1749 C1755 0.930 . S
C1750 H1736 0.930 . S
C1750 C1748 1.395 . S
C1750 C1753 1.403 . S
C1751 C1748 1.403 . S
C1751 C1752 1.524 . S
C1751 C1755 1.400 . S
C1752 H1737 0.960 . S
C1752 H1738 0.960 . S
C1752 H1739 0.960 . S
C1752 C1751 1.524 . S
C1753 C1750 1.403 . S
C1753 C1754 1.392 . S
C1753 C1757 1.495 . S
C1754 C1753 1.392 . S
C1754 C1755 1.385 . S
C1754 C1756 1.478 . S
C1755 H1749 0.930 . S
C1755 C1751 1.400 . S
C1755 C1754 1.385 . S
C1756 C1754 1.478 . S
C1756 C1758 1.381 . S
C1756 C1762 1.383 . S
C1757 C1753 1.495 . S
C1757 H1763 0.959 . S
C1757 H1764 0.961 . S
C1757 H1765 0.960 . S
C1758 C1756 1.381 . S
C1758 C1759 1.394 . S
C1758 H1766 0.930 . S
C1759 C1758 1.394 . S
C1759 C1760 1.383 . S
C1759 H1767 0.929 . S
C1760 C1759 1.383 . S
C1760 C1761 1.377 . S
C1761 H1745 0.930 . S
C1761 C1760 1.377 . S
C1761 C1762 1.379 . S
C1762 H1746 0.931 . S
C1762 C1756 1.383 . S
C1762 C1761 1.379 . S
H1763 C1757 0.959 . S
H1764 C1757 0.961 . S
H1765 C1757 0.960 . S
H1766 C1758 0.930 . S
H1767 C1759 0.929 . S
H1768 C1776 0.929 . S
H1769 C1778 0.930 . S
H1770 C1780 0.930 . S
H1771 C1783 0.929 . S
H1772 C1786 0.930 . S
H1773 C1788 0.960 . S
H1774 C1788 0.960 . S
H1775 C1788 0.960 . S
C1776 H1768 0.929 . S
C1776 C1777 1.377 . S
C1776 C1778 1.384 . S
C1777 C1776 1.377 . S
C1777 C1783 1.390 . S
C1778 H1769 0.930 . S
C1778 C1776 1.384 . S
C1778 C1779 1.372 . S
C1779 C1778 1.372 . S
C1779 C1780 1.400 . S
C1779 C1784 1.490 . S
C1780 H1770 0.930 . S
C1780 C1779 1.400 . S
C1780 C1783 1.386 . S
H1781 C1797 0.930 . S
H1782 C1798 0.931 . S
C1783 H1771 0.929 . S
C1783 C1777 1.390 . S
C1783 C1780 1.386 . S
C1784 C1779 1.490 . S
C1784 C1786 1.395 . S
C1784 C1787 1.403 . S
H1785 C1791 0.930 . S
C1786 H1772 0.930 . S
C1786 C1784 1.395 . S
C1786 C1789 1.403 . S
C1787 C1784 1.403 . S
C1787 C1788 1.524 . S
C1787 C1791 1.400 . S
C1788 H1773 0.960 . S
C1788 H1774 0.960 . S
C1788 H1775 0.960 . S
C1788 C1787 1.524 . S
C1789 C1786 1.403 . S
C1789 C1790 1.392 . S
C1789 C1793 1.495 . S
C1790 C1789 1.392 . S
C1790 C1791 1.385 . S
C1790 C1792 1.478 . S
C1791 H1785 0.930 . S
C1791 C1787 1.400 . S
C1791 C1790 1.385 . S
C1792 C1790 1.478 . S
C1792 C1794 1.381 . S
C1792 C1798 1.383 . S
C1793 C1789 1.495 . S
C1793 H1799 0.959 . S
C1793 H1800 0.961 . S
C1793 H1801 0.960 . S
C1794 C1792 1.381 . S
C1794 C1795 1.394 . S
C1794 H1802 0.930 . S
C1795 C1794 1.394 . S
C1795 C1796 1.383 . S
C1795 H1803 0.929 . S
C1796 C1795 1.383 . S
C1796 C1797 1.377 . S
C1797 H1781 0.930 . S
C1797 C1796 1.377 . S
C1797 C1798 1.379 . S
C1798 H1782 0.931 . S
C1798 C1792 1.383 . S
C1798 C1797 1.379 . S
H1799 C1793 0.959 . S
H1800 C1793 0.961 . S
H1801 C1793 0.960 . S
H1802 C1794 0.930 . S
H1803 C1795 0.929 . S
H1804 C1812 0.929 . S
H1805 C1814 0.930 . S
H1806 C1816 0.930 . S
H1807 C1819 0.929 . S
H1808 C1822 0.930 . S
H1809 C1824 0.960 . S
H1810 C1824 0.960 . S
H1811 C1824 0.960 . S
C1812 H1804 0.929 . S
C1812 C1813 1.377 . S
C1812 C1814 1.384 . S
C1813 C1812 1.377 . S
C1813 C1819 1.390 . S
C1814 H1805 0.930 . S
C1814 C1812 1.384 . S
C1814 C1815 1.372 . S
C1815 C1814 1.372 . S
C1815 C1816 1.400 . S
C1815 C1820 1.490 . S
C1816 H1806 0.930 . S
C1816 C1815 1.400 . S
C1816 C1819 1.386 . S
H1817 C1833 0.930 . S
H1818 C1834 0.931 . S
C1819 H1807 0.929 . S
C1819 C1813 1.390 . S
C1819 C1816 1.386 . S
C1820 C1815 1.490 . S
C1820 C1822 1.395 . S
C1820 C1823 1.403 . S
H1821 C1827 0.930 . S
C1822 H1808 0.930 . S
C1822 C1820 1.395 . S
C1822 C1825 1.403 . S
C1823 C1820 1.403 . S
C1823 C1824 1.524 . S
C1823 C1827 1.400 . S
C1824 H1809 0.960 . S
C1824 H1810 0.960 . S
C1824 H1811 0.960 . S
C1824 C1823 1.524 . S
C1825 C1822 1.403 . S
C1825 C1826 1.392 . S
C1825 C1829 1.495 . S
C1826 C1825 1.392 . S
C1826 C1827 1.385 . S
C1826 C1828 1.478 . S
C1827 H1821 0.930 . S
C1827 C1823 1.400 . S
C1827 C1826 1.385 . S
C1828 C1826 1.478 . S
C1828 C1830 1.381 . S
C1828 C1834 1.383 . S
C1829 C1825 1.495 . S
C1829 H1835 0.959 . S
C1829 H1836 0.961 . S
C1829 H1837 0.960 . S
C1830 C1828 1.381 . S
C1830 C1831 1.394 . S
C1830 H1838 0.930 . S
C1831 C1830 1.394 . S
C1831 C1832 1.383 . S
C1831 H1839 0.929 . S
C1832 C1831 1.383 . S
C1832 C1833 1.377 . S
C1833 H1817 0.930 . S
C1833 C1832 1.377 . S
C1833 C1834 1.379 . S
C1834 H1818 0.931 . S
C1834 C1828 1.383 . S
C1834 C1833 1.379 . S
H1835 C1829 0.959 . S
H1836 C1829 0.961 . S
H1837 C1829 0.960 . S
H1838 C1830 0.930 . S
H1839 C1831 0.929 . S
H1840 C1848 0.929 . S
H1841 C1850 0.930 1_556 S
H1842 C1852 0.930 . S
H1843 C1855 0.929 . S
H1844 C1858 0.930 1_554 S
H1845 C1860 0.951 1_556 S
H1846 C1860 0.960 1_556 S
H1847 C1860 0.960 . S
C1848 H1840 0.929 . S
C1848 C1849 1.377 . S
C1848 C1850 1.384 . S
C1849 C1848 1.377 . S
C1849 C1855 1.390 . S
C1850 H1841 0.930 1_554 S
C1850 C1848 1.384 . S
C1850 C1851 1.372 . S
C1851 C1850 1.372 . S
C1851 C1852 1.400 . S
C1851 C1856 1.490 . S
C1852 H1842 0.930 . S
C1852 C1851 1.400 . S
C1852 C1855 1.386 . S
H1853 C1869 0.930 . S
H1854 C1870 0.931 . S
C1855 H1843 0.929 . S
C1855 C1849 1.390 . S
C1855 C1852 1.386 . S
C1856 C1851 1.490 . S
C1856 C1858 1.395 1_554 S
C1856 C1859 1.403 1_554 S
H1857 C1863 0.930 . S
C1858 H1844 0.930 1_556 S
C1858 C1856 1.395 1_556 S
C1858 C1861 1.403 . S
C1859 C1856 1.403 1_556 S
C1859 C1860 1.524 1_556 S
C1859 C1863 1.400 . S
C1860 H1845 0.951 1_554 S
C1860 H1846 0.960 1_554 S
C1860 H1847 0.960 . S
C1860 C1859 1.524 1_554 S
C1861 C1858 1.403 . S
C1861 C1862 1.392 . S
C1861 C1865 1.495 . S
C1862 C1861 1.392 . S
C1862 C1863 1.385 . S
C1862 C1864 1.478 . S
C1863 H1857 0.930 . S
C1863 C1859 1.400 . S
C1863 C1862 1.385 . S
C1864 C1862 1.478 . S
C1864 C1866 1.381 . S
C1864 C1870 1.383 . S
C1865 C1861 1.495 . S
C1865 H1871 0.959 . S
C1865 H1872 0.961 . S
C1865 H1873 0.960 . S
C1866 C1864 1.381 . S
C1866 C1867 1.394 . S
C1866 H1874 0.930 . S
C1867 C1866 1.394 . S
C1867 C1868 1.383 . S
C1867 H1875 0.929 . S
C1868 C1867 1.383 . S
C1868 C1869 1.377 . S
C1869 H1853 0.930 . S
C1869 C1868 1.377 . S
C1869 C1870 1.379 . S
C1870 H1854 0.931 . S
C1870 C1864 1.383 . S
C1870 C1869 1.379 . S
H1871 C1865 0.959 . S
H1872 C1865 0.961 . S
H1873 C1865 0.960 . S
H1874 C1866 0.930 . S
H1875 C1867 0.929 . S
H1876 C1884 0.929 . S
H1877 C1886 0.930 . S
H1878 C1888 0.930 . S
H1879 C1891 0.929 . S
H1880 C1894 0.930 . S
H1881 C1896 0.960 . S
H1882 C1896 0.960 . S
H1883 C1896 0.960 . S
C1884 H1876 0.929 . S
C1884 C1885 1.377 . S
C1884 C1886 1.384 . S
C1885 C1884 1.377 . S
C1885 C1891 1.390 . S
C1886 H1877 0.930 . S
C1886 C1884 1.384 . S
C1886 C1887 1.372 . S
C1887 C1886 1.372 . S
C1887 C1888 1.400 . S
C1887 C1892 1.490 . S
C1888 H1878 0.930 . S
C1888 C1887 1.400 . S
C1888 C1891 1.386 . S
H1889 C1905 0.930 . S
H1890 C1906 0.931 . S
C1891 H1879 0.929 . S
C1891 C1885 1.390 . S
C1891 C1888 1.386 . S
C1892 C1887 1.490 . S
C1892 C1894 1.395 . S
C1892 C1895 1.403 1_554 S
H1893 C1899 0.930 . S
C1894 H1880 0.930 . S
C1894 C1892 1.395 . S
C1894 C1897 1.403 1_554 S
C1895 C1892 1.403 1_556 S
C1895 C1896 1.524 . S
C1895 C1899 1.400 . S
C1896 H1881 0.960 . S
C1896 H1882 0.960 . S
C1896 H1883 0.960 . S
C1896 C1895 1.524 . S
C1897 C1894 1.403 1_556 S
C1897 C1898 1.392 . S
C1897 C1901 1.495 1_556 S
C1898 C1897 1.392 . S
C1898 C1899 1.385 . S
C1898 C1900 1.478 . S
C1899 H1893 0.930 . S
C1899 C1895 1.400 . S
C1899 C1898 1.385 . S
C1900 C1898 1.478 . S
C1900 C1902 1.381 . S
C1900 C1906 1.383 . S
C1901 C1897 1.495 1_554 S
C1901 H1907 0.959 . S
C1901 H1908 0.961 . S
C1901 H1909 0.960 1_554 S
C1902 C1900 1.381 . S
C1902 C1903 1.394 . S
C1902 H1910 0.930 . S
C1903 C1902 1.394 . S
C1903 C1904 1.383 . S
C1903 H1911 0.929 . S
C1904 C1903 1.383 . S
C1904 C1905 1.377 . S
C1905 H1889 0.930 . S
C1905 C1904 1.377 . S
C1905 C1906 1.379 . S
C1906 H1890 0.931 . S
C1906 C1900 1.383 . S
C1906 C1905 1.379 . S
H1907 C1901 0.959 . S
H1908 C1901 0.961 . S
H1909 C1901 0.960 1_556 S
H1910 C1902 0.930 . S
H1911 C1903 0.929 . S
H1912 C1920 0.929 . S
H1913 C1922 0.930 . S
H1914 C1924 0.930 1_556 S
H1915 C1927 0.929 . S
H1916 C1930 0.930 . S
H1917 C1932 0.960 . S
H1918 C1932 0.960 . S
H1919 C1932 0.960 . S
C1920 H1912 0.929 . S
C1920 C1921 1.377 . S
C1920 C1922 1.384 . S
C1921 C1920 1.377 . S
C1921 C1927 1.390 . S
C1922 H1913 0.930 . S
C1922 C1920 1.384 . S
C1922 C1923 1.372 . S
C1923 C1922 1.372 . S
C1923 C1924 1.400 . S
C1923 C1928 1.490 . S
C1924 H1914 0.930 1_554 S
C1924 C1923 1.400 . S
C1924 C1927 1.386 . S
H1925 C1941 0.930 . S
H1926 C1942 0.931 . S
C1927 H1915 0.929 . S
C1927 C1921 1.390 . S
C1927 C1924 1.386 . S
C1928 C1923 1.490 . S
C1928 C1930 1.395 . S
C1928 C1931 1.403 1_554 S
H1929 C1935 0.930 . S
C1930 H1916 0.930 . S
C1930 C1928 1.395 . S
C1930 C1933 1.403 . S
C1931 C1928 1.403 1_556 S
C1931 C1932 1.524 . S
C1931 C1935 1.400 . S
C1932 H1917 0.960 . S
C1932 H1918 0.960 . S
C1932 H1919 0.960 . S
C1932 C1931 1.524 . S
C1933 C1930 1.403 . S
C1933 C1934 1.392 1_554 S
C1933 C1937 1.495 . S
C1934 C1933 1.392 1_556 S
C1934 C1935 1.385 . S
C1934 C1936 1.478 . S
C1935 H1929 0.930 . S
C1935 C1931 1.400 . S
C1935 C1934 1.385 . S
C1936 C1934 1.478 . S
C1936 C1938 1.381 . S
C1936 C1942 1.383 . S
C1937 C1933 1.495 . S
C1937 H1943 0.959 . S
C1937 H1944 0.961 1_554 S
C1937 H1945 0.960 . S
C1938 C1936 1.381 . S
C1938 C1939 1.394 . S
C1938 H1946 0.930 . S
C1939 C1938 1.394 . S
C1939 C1940 1.383 . S
C1939 H1947 0.929 . S
C1940 C1939 1.383 . S
C1940 C1941 1.377 . S
C1941 H1925 0.930 . S
C1941 C1940 1.377 . S
C1941 C1942 1.379 . S
C1942 H1926 0.931 . S
C1942 C1936 1.383 . S
C1942 C1941 1.379 . S
H1943 C1937 0.959 . S
H1944 C1937 0.961 1_556 S
H1945 C1937 0.960 . S
H1946 C1938 0.930 . S
H1947 C1939 0.929 . S
H1948 C1956 0.929 . S
H1949 C1958 0.930 . S
H1950 C1960 0.930 . S
H1951 C1963 0.929 . S
H1952 C1966 0.930 . S
H1953 C1968 0.960 . S
H1954 C1968 0.960 . S
H1955 C1968 0.960 . S
C1956 H1948 0.929 . S
C1956 C1957 1.377 . S
C1956 C1958 1.384 . S
C1957 C1956 1.377 . S
C1957 C1963 1.390 . S
C1958 H1949 0.930 . S
C1958 C1956 1.384 . S
C1958 C1959 1.372 . S
C1959 C1958 1.372 . S
C1959 C1960 1.400 . S
C1959 C1964 1.490 . S
C1960 H1950 0.930 . S
C1960 C1959 1.400 . S
C1960 C1963 1.386 . S
H1961 C1977 0.930 . S
H1962 C1978 0.931 . S
C1963 H1951 0.929 . S
C1963 C1957 1.390 . S
C1963 C1960 1.386 . S
C1964 C1959 1.490 . S
C1964 C1966 1.395 1_554 S
C1964 C1967 1.403 . S
H1965 C1971 0.930 . S
C1966 H1952 0.930 . S
C1966 C1964 1.395 1_556 S
C1966 C1969 1.403 . S
C1967 C1964 1.403 . S
C1967 C1968 1.524 . S
C1967 C1971 1.400 1_554 S
C1968 H1953 0.960 . S
C1968 H1954 0.960 . S
C1968 H1955 0.960 . S
C1968 C1967 1.524 . S
C1969 C1966 1.403 . S
C1969 C1970 1.392 . S
C1969 C1973 1.495 . S
C1970 C1969 1.392 . S
C1970 C1971 1.385 . S
C1970 C1972 1.478 . S
C1971 H1965 0.930 . S
C1971 C1967 1.400 1_556 S
C1971 C1970 1.385 . S
C1972 C1970 1.478 . S
C1972 C1974 1.381 . S
C1972 C1978 1.383 . S
C1973 C1969 1.495 . S
C1973 H1979 0.959 . S
C1973 H1980 0.961 . S
C1973 H1981 0.960 . S
C1974 C1972 1.381 . S
C1974 C1975 1.394 . S
C1974 H1982 0.930 . S
C1975 C1974 1.394 . S
C1975 C1976 1.383 . S
C1975 H1983 0.929 . S
C1976 C1975 1.383 . S
C1976 C1977 1.377 . S
C1977 H1961 0.930 . S
C1977 C1976 1.377 . S
C1977 C1978 1.379 . S
C1978 H1962 0.931 . S
C1978 C1972 1.383 . S
C1978 C1977 1.379 . S
H1979 C1973 0.959 . S
H1980 C1973 0.961 . S
H1981 C1973 0.960 . S
H1982 C1974 0.930 . S
H1983 C1975 0.929 . S
H1984 C1992 0.929 . S
H1985 C1994 0.930 . S
H1986 C1996 0.930 . S
H1987 C1999 0.929 . S
H1988 C2002 0.930 . S
H1989 C2004 0.960 . S
H1990 C2004 0.960 . S
H1991 C2004 0.960 . S
C1992 H1984 0.929 . S
C1992 C1993 1.377 . S
C1992 C1994 1.384 . S
C1993 C1992 1.377 . S
C1993 C1999 1.390 . S
C1994 H1985 0.930 . S
C1994 C1992 1.384 . S
C1994 C1995 1.372 . S
C1995 C1994 1.372 . S
C1995 C1996 1.400 . S
C1995 C2000 1.490 . S
C1996 H1986 0.930 . S
C1996 C1995 1.400 . S
C1996 C1999 1.386 . S
H1997 C2013 0.930 . S
H1998 C2014 0.931 . S
C1999 H1987 0.929 . S
C1999 C1993 1.390 . S
C1999 C1996 1.386 . S
C2000 C1995 1.490 . S
C2000 C2002 1.395 . S
C2000 C2003 1.403 . S
H2001 C2007 0.930 . S
C2002 H1988 0.930 . S
C2002 C2000 1.395 . S
C2002 C2005 1.403 . S
C2003 C2000 1.403 . S
C2003 C2004 1.524 . S
C2003 C2007 1.400 . S
C2004 H1989 0.960 . S
C2004 H1990 0.960 . S
C2004 H1991 0.960 . S
C2004 C2003 1.524 . S
C2005 C2002 1.403 . S
C2005 C2006 1.392 . S
C2005 C2009 1.495 . S
C2006 C2005 1.392 . S
C2006 C2007 1.385 . S
C2006 C2008 1.478 . S
C2007 H2001 0.930 . S
C2007 C2003 1.400 . S
C2007 C2006 1.385 . S
C2008 C2006 1.478 . S
C2008 C2010 1.381 . S
C2008 C2014 1.383 . S
C2009 C2005 1.495 . S
C2009 H2015 0.959 . S
C2009 H2016 0.961 . S
C2009 H2017 0.960 . S
C2010 C2008 1.381 . S
C2010 C2011 1.394 . S
C2010 H2018 0.930 . S
C2011 C2010 1.394 . S
C2011 C2012 1.383 . S
C2011 H2019 0.929 . S
C2012 C2011 1.383 . S
C2012 C2013 1.377 . S
C2013 H1997 0.930 . S
C2013 C2012 1.377 . S
C2013 C2014 1.379 . S
C2014 H1998 0.931 . S
C2014 C2008 1.383 . S
C2014 C2013 1.379 . S
H2015 C2009 0.959 . S
H2016 C2009 0.961 . S
H2017 C2009 0.960 . S
H2018 C2010 0.930 . S
H2019 C2011 0.929 . S
H2020 C2028 0.929 . S
H2021 C2030 0.930 . S
H2022 C2032 0.930 . S
H2023 C2035 0.929 . S
H2024 C2038 0.930 . S
H2025 C2040 0.960 . S
H2026 C2040 0.960 . S
H2027 C2040 0.960 . S
C2028 H2020 0.929 . S
C2028 C2029 1.377 . S
C2028 C2030 1.384 . S
C2029 C2028 1.377 . S
C2029 C2035 1.390 . S
C2030 H2021 0.930 . S
C2030 C2028 1.384 . S
C2030 C2031 1.372 . S
C2031 C2030 1.372 . S
C2031 C2032 1.400 . S
C2031 C2036 1.490 . S
C2032 H2022 0.930 . S
C2032 C2031 1.400 . S
C2032 C2035 1.386 . S
H2033 C2049 0.930 . S
H2034 C2050 0.931 . S
C2035 H2023 0.929 . S
C2035 C2029 1.390 . S
C2035 C2032 1.386 . S
C2036 C2031 1.490 . S
C2036 C2038 1.395 . S
C2036 C2039 1.403 . S
H2037 C2043 0.930 . S
C2038 H2024 0.930 . S
C2038 C2036 1.395 . S
C2038 C2041 1.403 . S
C2039 C2036 1.403 . S
C2039 C2040 1.524 . S
C2039 C2043 1.400 . S
C2040 H2025 0.960 . S
C2040 H2026 0.960 . S
C2040 H2027 0.960 . S
C2040 C2039 1.524 . S
C2041 C2038 1.403 . S
C2041 C2042 1.392 . S
C2041 C2045 1.495 . S
C2042 C2041 1.392 . S
C2042 C2043 1.385 . S
C2042 C2044 1.478 . S
C2043 H2037 0.930 . S
C2043 C2039 1.400 . S
C2043 C2042 1.385 . S
C2044 C2042 1.478 . S
C2044 C2046 1.381 . S
C2044 C2050 1.383 . S
C2045 C2041 1.495 . S
C2045 H2051 0.959 . S
C2045 H2052 0.961 . S
C2045 H2053 0.960 . S
C2046 C2044 1.381 . S
C2046 C2047 1.394 . S
C2046 H2054 0.930 . S
C2047 C2046 1.394 . S
C2047 C2048 1.383 . S
C2047 H2055 0.929 . S
C2048 C2047 1.383 . S
C2048 C2049 1.377 . S
C2049 H2033 0.930 . S
C2049 C2048 1.377 . S
C2049 C2050 1.379 . S
C2050 H2034 0.931 . S
C2050 C2044 1.383 . S
C2050 C2049 1.379 . S
H2051 C2045 0.959 . S
H2052 C2045 0.961 . S
H2053 C2045 0.960 . S
H2054 C2046 0.930 . S
H2055 C2047 0.929 . S
H2056 C2064 0.929 . S
H2057 C2066 0.930 . S
H2058 C2068 0.930 . S
H2059 C2071 0.929 . S
H2060 C2074 0.930 . S
H2061 C2076 0.960 . S
H2062 C2076 0.960 . S
H2063 C2076 0.960 . S
C2064 H2056 0.929 . S
C2064 C2065 1.377 . S
C2064 C2066 1.384 . S
C2065 C2064 1.377 . S
C2065 C2071 1.390 . S
C2066 H2057 0.930 . S
C2066 C2064 1.384 . S
C2066 C2067 1.372 . S
C2067 C2066 1.372 . S
C2067 C2068 1.400 . S
C2067 C2072 1.490 . S
C2068 H2058 0.930 . S
C2068 C2067 1.400 . S
C2068 C2071 1.386 . S
H2069 C2085 0.930 . S
H2070 C2086 0.931 . S
C2071 H2059 0.929 . S
C2071 C2065 1.390 . S
C2071 C2068 1.386 . S
C2072 C2067 1.490 . S
C2072 C2074 1.395 . S
C2072 C2075 1.403 . S
H2073 C2079 0.930 . S
C2074 H2060 0.930 . S
C2074 C2072 1.395 . S
C2074 C2077 1.403 . S
C2075 C2072 1.403 . S
C2075 C2076 1.524 . S
C2075 C2079 1.400 . S
C2076 H2061 0.960 . S
C2076 H2062 0.960 . S
C2076 H2063 0.960 . S
C2076 C2075 1.524 . S
C2077 C2074 1.403 . S
C2077 C2078 1.392 . S
C2077 C2081 1.495 . S
C2078 C2077 1.392 . S
C2078 C2079 1.385 . S
C2078 C2080 1.478 . S
C2079 H2073 0.930 . S
C2079 C2075 1.400 . S
C2079 C2078 1.385 . S
C2080 C2078 1.478 . S
C2080 C2082 1.381 . S
C2080 C2086 1.383 . S
C2081 C2077 1.495 . S
C2081 H2087 0.959 . S
C2081 H2088 0.961 . S
C2081 H2089 0.960 . S
C2082 C2080 1.381 . S
C2082 C2083 1.394 . S
C2082 H2090 0.930 . S
C2083 C2082 1.394 . S
C2083 C2084 1.383 . S
C2083 H2091 0.929 . S
C2084 C2083 1.383 . S
C2084 C2085 1.377 . S
C2085 H2069 0.930 . S
C2085 C2084 1.377 . S
C2085 C2086 1.379 . S
C2086 H2070 0.931 . S
C2086 C2080 1.383 . S
C2086 C2085 1.379 . S
H2087 C2081 0.959 . S
H2088 C2081 0.961 . S
H2089 C2081 0.960 . S
H2090 C2082 0.930 . S
H2091 C2083 0.929 . S
H2092 C2100 0.929 . S
H2093 C2102 0.930 . S
H2094 C2104 0.930 . S
H2095 C2107 0.929 . S
H2096 C2110 0.930 . S
H2097 C2112 0.960 . S
H2098 C2112 0.960 . S
H2099 C2112 0.960 . S
C2100 H2092 0.929 . S
C2100 C2101 1.377 . S
C2100 C2102 1.384 . S
C2101 C2100 1.377 . S
C2101 C2107 1.390 . S
C2102 H2093 0.930 . S
C2102 C2100 1.384 . S
C2102 C2103 1.372 . S
C2103 C2102 1.372 . S
C2103 C2104 1.400 . S
C2103 C2108 1.490 . S
C2104 H2094 0.930 . S
C2104 C2103 1.400 . S
C2104 C2107 1.386 . S
H2105 C2121 0.930 . S
H2106 C2122 0.931 . S
C2107 H2095 0.929 . S
C2107 C2101 1.390 . S
C2107 C2104 1.386 . S
C2108 C2103 1.490 . S
C2108 C2110 1.395 . S
C2108 C2111 1.403 . S
H2109 C2115 0.930 . S
C2110 H2096 0.930 . S
C2110 C2108 1.395 . S
C2110 C2113 1.403 . S
C2111 C2108 1.403 . S
C2111 C2112 1.524 . S
C2111 C2115 1.400 . S
C2112 H2097 0.960 . S
C2112 H2098 0.960 . S
C2112 H2099 0.960 . S
C2112 C2111 1.524 . S
C2113 C2110 1.403 . S
C2113 C2114 1.392 . S
C2113 C2117 1.495 . S
C2114 C2113 1.392 . S
C2114 C2115 1.385 . S
C2114 C2116 1.478 . S
C2115 H2109 0.930 . S
C2115 C2111 1.400 . S
C2115 C2114 1.385 . S
C2116 C2114 1.478 . S
C2116 C2118 1.381 . S
C2116 C2122 1.383 . S
C2117 C2113 1.495 . S
C2117 H2123 0.959 . S
C2117 H2124 0.961 . S
C2117 H2125 0.960 . S
C2118 C2116 1.381 . S
C2118 C2119 1.394 . S
C2118 H2126 0.930 . S
C2119 C2118 1.394 . S
C2119 C2120 1.383 . S
C2119 H2127 0.929 . S
C2120 C2119 1.383 . S
C2120 C2121 1.377 . S
C2121 H2105 0.930 . S
C2121 C2120 1.377 . S
C2121 C2122 1.379 . S
C2122 H2106 0.931 . S
C2122 C2116 1.383 . S
C2122 C2121 1.379 . S
H2123 C2117 0.959 . S
H2124 C2117 0.961 . S
H2125 C2117 0.960 . S
H2126 C2118 0.930 . S
H2127 C2119 0.929 . S
H2128 C2136 0.929 . S
H2129 C2138 0.930 . S
H2130 C2140 0.930 . S
H2131 C2143 0.929 . S
H2132 C2146 0.930 . S
H2133 C2148 0.960 . S
H2134 C2148 0.960 . S
H2135 C2148 0.960 . S
C2136 H2128 0.929 . S
C2136 C2137 1.377 . S
C2136 C2138 1.384 . S
C2137 C2136 1.377 . S
C2137 C2143 1.390 . S
C2138 H2129 0.930 . S
C2138 C2136 1.384 . S
C2138 C2139 1.372 . S
C2139 C2138 1.372 . S
C2139 C2140 1.400 . S
C2139 C2144 1.490 . S
C2140 H2130 0.930 . S
C2140 C2139 1.400 . S
C2140 C2143 1.386 . S
H2141 C2157 0.930 . S
H2142 C2158 0.931 . S
C2143 H2131 0.929 . S
C2143 C2137 1.390 . S
C2143 C2140 1.386 . S
C2144 C2139 1.490 . S
C2144 C2146 1.395 . S
C2144 C2147 1.403 . S
H2145 C2151 0.930 . S
C2146 H2132 0.930 . S
C2146 C2144 1.395 . S
C2146 C2149 1.403 . S
C2147 C2144 1.403 . S
C2147 C2148 1.524 . S
C2147 C2151 1.400 . S
C2148 H2133 0.960 . S
C2148 H2134 0.960 . S
C2148 H2135 0.960 . S
C2148 C2147 1.524 . S
C2149 C2146 1.403 . S
C2149 C2150 1.392 . S
C2149 C2153 1.495 . S
C2150 C2149 1.392 . S
C2150 C2151 1.385 . S
C2150 C2152 1.478 . S
C2151 H2145 0.930 . S
C2151 C2147 1.400 . S
C2151 C2150 1.385 . S
C2152 C2150 1.478 . S
C2152 C2154 1.381 . S
C2152 C2158 1.383 . S
C2153 C2149 1.495 . S
C2153 H2159 0.959 . S
C2153 H2160 0.961 . S
C2153 H2161 0.960 . S
C2154 C2152 1.381 . S
C2154 C2155 1.394 . S
C2154 H2162 0.930 . S
C2155 C2154 1.394 . S
C2155 C2156 1.383 . S
C2155 H2163 0.929 . S
C2156 C2155 1.383 . S
C2156 C2157 1.377 . S
C2157 H2141 0.930 . S
C2157 C2156 1.377 . S
C2157 C2158 1.379 . S
C2158 H2142 0.931 . S
C2158 C2152 1.383 . S
C2158 C2157 1.379 . S
H2159 C2153 0.959 . S
H2160 C2153 0.961 . S
H2161 C2153 0.960 . S
H2162 C2154 0.930 . S
H2163 C2155 0.929 . S
H2164 C2172 0.929 . S
H2165 C2174 0.930 . S
H2166 C2176 0.930 . S
H2167 C2179 0.929 . S
H2168 C2182 0.930 . S
H2169 C2184 0.960 . S
H2170 C2184 0.960 . S
H2171 C2184 0.960 . S
C2172 H2164 0.929 . S
C2172 C2173 1.377 . S
C2172 C2174 1.384 . S
C2173 C2172 1.377 . S
C2173 C2179 1.390 . S
C2174 H2165 0.930 . S
C2174 C2172 1.384 . S
C2174 C2175 1.372 . S
C2175 C2174 1.372 . S
C2175 C2176 1.400 . S
C2175 C2180 1.490 . S
C2176 H2166 0.930 . S
C2176 C2175 1.400 . S
C2176 C2179 1.386 . S
H2177 C2193 0.930 . S
H2178 C2194 0.931 . S
C2179 H2167 0.929 . S
C2179 C2173 1.390 . S
C2179 C2176 1.386 . S
C2180 C2175 1.490 . S
C2180 C2182 1.395 . S
C2180 C2183 1.403 . S
H2181 C2187 0.930 . S
C2182 H2168 0.930 . S
C2182 C2180 1.395 . S
C2182 C2185 1.403 . S
C2183 C2180 1.403 . S
C2183 C2184 1.524 . S
C2183 C2187 1.400 . S
C2184 H2169 0.960 . S
C2184 H2170 0.960 . S
C2184 H2171 0.960 . S
C2184 C2183 1.524 . S
C2185 C2182 1.403 . S
C2185 C2186 1.392 . S
C2185 C2189 1.495 . S
C2186 C2185 1.392 . S
C2186 C2187 1.385 . S
C2186 C2188 1.478 . S
C2187 H2181 0.930 . S
C2187 C2183 1.400 . S
C2187 C2186 1.385 . S
C2188 C2186 1.478 . S
C2188 C2190 1.381 . S
C2188 C2194 1.383 . S
C2189 C2185 1.495 . S
C2189 H2195 0.959 . S
C2189 H2196 0.961 . S
C2189 H2197 0.960 . S
C2190 C2188 1.381 . S
C2190 C2191 1.394 . S
C2190 H2198 0.930 . S
C2191 C2190 1.394 . S
C2191 C2192 1.383 . S
C2191 H2199 0.929 . S
C2192 C2191 1.383 . S
C2192 C2193 1.377 . S
C2193 H2177 0.930 . S
C2193 C2192 1.377 . S
C2193 C2194 1.379 . S
C2194 H2178 0.931 . S
C2194 C2188 1.383 . S
C2194 C2193 1.379 . S
H2195 C2189 0.959 . S
H2196 C2189 0.961 . S
H2197 C2189 0.960 . S
H2198 C2190 0.930 . S
H2199 C2191 0.929 . S
H2200 C2208 0.929 . S
H2201 C2210 0.930 . S
H2202 C2212 0.930 . S
H2203 C2215 0.929 . S
H2204 C2218 0.930 . S
H2205 C2220 0.960 . S
H2206 C2220 0.960 . S
H2207 C2220 0.960 . S
C2208 H2200 0.929 . S
C2208 C2209 1.377 . S
C2208 C2210 1.384 . S
C2209 C2208 1.377 . S
C2209 C2215 1.390 . S
C2210 H2201 0.930 . S
C2210 C2208 1.384 . S
C2210 C2211 1.372 . S
C2211 C2210 1.372 . S
C2211 C2212 1.400 . S
C2211 C2216 1.490 . S
C2212 H2202 0.930 . S
C2212 C2211 1.400 . S
C2212 C2215 1.386 . S
H2213 C2229 0.930 . S
H2214 C2230 0.931 . S
C2215 H2203 0.929 . S
C2215 C2209 1.390 . S
C2215 C2212 1.386 . S
C2216 C2211 1.490 . S
C2216 C2218 1.395 . S
C2216 C2219 1.403 . S
H2217 C2223 0.930 . S
C2218 H2204 0.930 . S
C2218 C2216 1.395 . S
C2218 C2221 1.403 . S
C2219 C2216 1.403 . S
C2219 C2220 1.524 . S
C2219 C2223 1.400 . S
C2220 H2205 0.960 . S
C2220 H2206 0.960 . S
C2220 H2207 0.960 . S
C2220 C2219 1.524 . S
C2221 C2218 1.403 . S
C2221 C2222 1.392 . S
C2221 C2225 1.495 . S
C2222 C2221 1.392 . S
C2222 C2223 1.385 . S
C2222 C2224 1.478 . S
C2223 H2217 0.930 . S
C2223 C2219 1.400 . S
C2223 C2222 1.385 . S
C2224 C2222 1.478 . S
C2224 C2226 1.381 . S
C2224 C2230 1.383 . S
C2225 C2221 1.495 . S
C2225 H2231 0.959 . S
C2225 H2232 0.961 . S
C2225 H2233 0.960 . S
C2226 C2224 1.381 . S
C2226 C2227 1.394 . S
C2226 H2234 0.930 . S
C2227 C2226 1.394 . S
C2227 C2228 1.383 . S
C2227 H2235 0.929 . S
C2228 C2227 1.383 . S
C2228 C2229 1.377 . S
C2229 H2213 0.930 . S
C2229 C2228 1.377 . S
C2229 C2230 1.379 . S
C2230 H2214 0.931 . S
C2230 C2224 1.383 . S
C2230 C2229 1.379 . S
H2231 C2225 0.959 . S
H2232 C2225 0.961 . S
H2233 C2225 0.960 . S
H2234 C2226 0.930 . S
H2235 C2227 0.929 . S
H2236 C2244 0.929 . S
H2237 C2246 0.930 . S
H2238 C2248 0.930 . S
H2239 C2251 0.929 . S
H2240 C2254 0.930 . S
H2241 C2256 0.960 . S
H2242 C2256 0.960 . S
H2243 C2256 0.960 . S
C2244 H2236 0.929 . S
C2244 C2245 1.377 . S
C2244 C2246 1.384 . S
C2245 C2244 1.377 . S
C2245 C2251 1.390 . S
C2246 H2237 0.930 . S
C2246 C2244 1.384 . S
C2246 C2247 1.372 . S
C2247 C2246 1.372 . S
C2247 C2248 1.400 . S
C2247 C2252 1.490 . S
C2248 H2238 0.930 . S
C2248 C2247 1.400 . S
C2248 C2251 1.386 . S
H2249 C2265 0.930 . S
H2250 C2266 0.931 . S
C2251 H2239 0.929 . S
C2251 C2245 1.390 . S
C2251 C2248 1.386 . S
C2252 C2247 1.490 . S
C2252 C2254 1.395 . S
C2252 C2255 1.403 . S
H2253 C2259 0.930 . S
C2254 H2240 0.930 . S
C2254 C2252 1.395 . S
C2254 C2257 1.403 . S
C2255 C2252 1.403 . S
C2255 C2256 1.524 . S
C2255 C2259 1.400 . S
C2256 H2241 0.960 . S
C2256 H2242 0.960 . S
C2256 H2243 0.960 . S
C2256 C2255 1.524 . S
C2257 C2254 1.403 . S
C2257 C2258 1.392 . S
C2257 C2261 1.495 . S
C2258 C2257 1.392 . S
C2258 C2259 1.385 . S
C2258 C2260 1.478 . S
C2259 H2253 0.930 . S
C2259 C2255 1.400 . S
C2259 C2258 1.385 . S
C2260 C2258 1.478 . S
C2260 C2262 1.381 . S
C2260 C2266 1.383 . S
C2261 C2257 1.495 . S
C2261 H2267 0.959 . S
C2261 H2268 0.961 . S
C2261 H2269 0.960 . S
C2262 C2260 1.381 . S
C2262 C2263 1.394 . S
C2262 H2270 0.930 . S
C2263 C2262 1.394 . S
C2263 C2264 1.383 . S
C2263 H2271 0.929 . S
C2264 C2263 1.383 . S
C2264 C2265 1.377 . S
C2265 H2249 0.930 . S
C2265 C2264 1.377 . S
C2265 C2266 1.379 . S
C2266 H2250 0.931 . S
C2266 C2260 1.383 . S
C2266 C2265 1.379 . S
H2267 C2261 0.959 . S
H2268 C2261 0.961 . S
H2269 C2261 0.960 . S
H2270 C2262 0.930 . S
H2271 C2263 0.929 . S
H2272 C2280 0.929 . S
H2273 C2282 0.930 . S
H2274 C2284 0.930 . S
H2275 C2287 0.929 . S
H2276 C2290 0.930 . S
H2277 C2292 0.960 . S
H2278 C2292 0.960 . S
H2279 C2292 0.960 . S
C2280 H2272 0.929 . S
C2280 C2281 1.377 . S
C2280 C2282 1.384 . S
C2281 C2280 1.377 . S
C2281 C2287 1.390 . S
C2282 H2273 0.930 . S
C2282 C2280 1.384 . S
C2282 C2283 1.372 . S
C2283 C2282 1.372 . S
C2283 C2284 1.400 . S
C2283 C2288 1.490 . S
C2284 H2274 0.930 . S
C2284 C2283 1.400 . S
C2284 C2287 1.386 . S
H2285 C2301 0.930 . S
H2286 C2302 0.931 . S
C2287 H2275 0.929 . S
C2287 C2281 1.390 . S
C2287 C2284 1.386 . S
C2288 C2283 1.490 . S
C2288 C2290 1.395 . S
C2288 C2291 1.403 . S
H2289 C2295 0.930 . S
C2290 H2276 0.930 . S
C2290 C2288 1.395 . S
C2290 C2293 1.403 . S
C2291 C2288 1.403 . S
C2291 C2292 1.524 . S
C2291 C2295 1.400 . S
C2292 H2277 0.960 . S
C2292 H2278 0.960 . S
C2292 H2279 0.960 . S
C2292 C2291 1.524 . S
C2293 C2290 1.403 . S
C2293 C2294 1.392 . S
C2293 C2297 1.495 . S
C2294 C2293 1.392 . S
C2294 C2295 1.385 . S
C2294 C2296 1.478 . S
C2295 H2289 0.930 . S
C2295 C2291 1.400 . S
C2295 C2294 1.385 . S
C2296 C2294 1.478 . S
C2296 C2298 1.381 . S
C2296 C2302 1.383 . S
C2297 C2293 1.495 . S
C2297 H2303 0.959 . S
C2297 H2304 0.961 . S
C2297 H2305 0.960 . S
C2298 C2296 1.381 . S
C2298 C2299 1.394 . S
C2298 H2306 0.930 . S
C2299 C2298 1.394 . S
C2299 C2300 1.383 . S
C2299 H2307 0.929 . S
C2300 C2299 1.383 . S
C2300 C2301 1.377 . S
C2301 H2285 0.930 . S
C2301 C2300 1.377 . S
C2301 C2302 1.379 . S
C2302 H2286 0.931 . S
C2302 C2296 1.383 . S
C2302 C2301 1.379 . S
H2303 C2297 0.959 . S
H2304 C2297 0.961 . S
H2305 C2297 0.960 . S
H2306 C2298 0.930 . S
H2307 C2299 0.929 . S
H2308 C2316 0.929 . S
H2309 C2318 0.930 . S
H2310 C2320 0.930 . S
H2311 C2323 0.929 . S
H2312 C2326 0.930 . S
H2313 C2328 0.960 . S
H2314 C2328 0.960 . S
H2315 C2328 0.960 . S
C2316 H2308 0.929 . S
C2316 C2317 1.377 . S
C2316 C2318 1.384 . S
C2317 C2316 1.377 . S
C2317 C2323 1.390 . S
C2318 H2309 0.930 . S
C2318 C2316 1.384 . S
C2318 C2319 1.372 . S
C2319 C2318 1.372 . S
C2319 C2320 1.400 . S
C2319 C2324 1.490 . S
C2320 H2310 0.930 . S
C2320 C2319 1.400 . S
C2320 C2323 1.386 . S
H2321 C2337 0.930 . S
H2322 C2338 0.931 . S
C2323 H2311 0.929 . S
C2323 C2317 1.390 . S
C2323 C2320 1.386 . S
C2324 C2319 1.490 . S
C2324 C2326 1.395 . S
C2324 C2327 1.403 . S
H2325 C2331 0.930 . S
C2326 H2312 0.930 . S
C2326 C2324 1.395 . S
C2326 C2329 1.403 . S
C2327 C2324 1.403 . S
C2327 C2328 1.524 . S
C2327 C2331 1.400 . S
C2328 H2313 0.960 . S
C2328 H2314 0.960 . S
C2328 H2315 0.960 . S
C2328 C2327 1.524 . S
C2329 C2326 1.403 . S
C2329 C2330 1.392 . S
C2329 C2333 1.495 . S
C2330 C2329 1.392 . S
C2330 C2331 1.385 . S
C2330 C2332 1.478 . S
C2331 H2325 0.930 . S
C2331 C2327 1.400 . S
C2331 C2330 1.385 . S
C2332 C2330 1.478 . S
C2332 C2334 1.381 . S
C2332 C2338 1.383 . S
C2333 C2329 1.495 . S
C2333 H2339 0.959 . S
C2333 H2340 0.961 . S
C2333 H2341 0.960 . S
C2334 C2332 1.381 . S
C2334 C2335 1.394 . S
C2334 H2342 0.930 . S
C2335 C2334 1.394 . S
C2335 C2336 1.383 . S
C2335 H2343 0.929 . S
C2336 C2335 1.383 . S
C2336 C2337 1.377 . S
C2337 H2321 0.930 . S
C2337 C2336 1.377 . S
C2337 C2338 1.379 . S
C2338 H2322 0.931 . S
C2338 C2332 1.383 . S
C2338 C2337 1.379 . S
H2339 C2333 0.959 . S
H2340 C2333 0.961 . S
H2341 C2333 0.960 . S
H2342 C2334 0.930 . S
H2343 C2335 0.929 . S
H2344 C2352 0.929 . S
H2345 C2354 0.930 . S
H2346 C2356 0.930 . S
H2347 C2359 0.929 . S
H2348 C2362 0.930 . S
H2349 C2364 0.960 . S
H2350 C2364 0.960 . S
H2351 C2364 0.960 . S
C2352 H2344 0.929 . S
C2352 C2353 1.377 . S
C2352 C2354 1.384 . S
C2353 C2352 1.377 . S
C2353 C2359 1.390 . S
C2354 H2345 0.930 . S
C2354 C2352 1.384 . S
C2354 C2355 1.372 . S
C2355 C2354 1.372 . S
C2355 C2356 1.400 . S
C2355 C2360 1.490 . S
C2356 H2346 0.930 . S
C2356 C2355 1.400 . S
C2356 C2359 1.386 . S
H2357 C2373 0.930 . S
H2358 C2374 0.931 . S
C2359 H2347 0.929 . S
C2359 C2353 1.390 . S
C2359 C2356 1.386 . S
C2360 C2355 1.490 . S
C2360 C2362 1.395 . S
C2360 C2363 1.403 . S
H2361 C2367 0.930 . S
C2362 H2348 0.930 . S
C2362 C2360 1.395 . S
C2362 C2365 1.403 . S
C2363 C2360 1.403 . S
C2363 C2364 1.524 . S
C2363 C2367 1.400 . S
C2364 H2349 0.960 . S
C2364 H2350 0.960 . S
C2364 H2351 0.960 . S
C2364 C2363 1.524 . S
C2365 C2362 1.403 . S
C2365 C2366 1.392 . S
C2365 C2369 1.495 . S
C2366 C2365 1.392 . S
C2366 C2367 1.385 . S
C2366 C2368 1.478 . S
C2367 H2361 0.930 . S
C2367 C2363 1.400 . S
C2367 C2366 1.385 . S
C2368 C2366 1.478 . S
C2368 C2370 1.381 . S
C2368 C2374 1.383 . S
C2369 C2365 1.495 . S
C2369 H2375 0.959 . S
C2369 H2376 0.961 . S
C2369 H2377 0.960 . S
C2370 C2368 1.381 . S
C2370 C2371 1.394 . S
C2370 H2378 0.930 . S
C2371 C2370 1.394 . S
C2371 C2372 1.383 . S
C2371 H2379 0.929 . S
C2372 C2371 1.383 . S
C2372 C2373 1.377 . S
C2373 H2357 0.930 . S
C2373 C2372 1.377 . S
C2373 C2374 1.379 . S
C2374 H2358 0.931 . S
C2374 C2368 1.383 . S
C2374 C2373 1.379 . S
H2375 C2369 0.959 . S
H2376 C2369 0.961 . S
H2377 C2369 0.960 . S
H2378 C2370 0.930 . S
H2379 C2371 0.929 . S
H2380 C2388 0.929 . S
H2381 C2390 0.930 . S
H2382 C2392 0.930 . S
H2383 C2395 0.929 . S
H2384 C2398 0.930 . S
H2385 C2400 0.960 . S
H2386 C2400 0.960 . S
H2387 C2400 0.960 . S
C2388 H2380 0.929 . S
C2388 C2389 1.377 . S
C2388 C2390 1.384 . S
C2389 C2388 1.377 . S
C2389 C2395 1.390 . S
C2390 H2381 0.930 . S
C2390 C2388 1.384 . S
C2390 C2391 1.372 . S
C2391 C2390 1.372 . S
C2391 C2392 1.400 . S
C2391 C2396 1.490 . S
C2392 H2382 0.930 . S
C2392 C2391 1.400 . S
C2392 C2395 1.386 . S
H2393 C2409 0.930 . S
H2394 C2410 0.931 . S
C2395 H2383 0.929 . S
C2395 C2389 1.390 . S
C2395 C2392 1.386 . S
C2396 C2391 1.490 . S
C2396 C2398 1.395 . S
C2396 C2399 1.403 . S
H2397 C2403 0.930 . S
C2398 H2384 0.930 . S
C2398 C2396 1.395 . S
C2398 C2401 1.403 . S
C2399 C2396 1.403 . S
C2399 C2400 1.524 . S
C2399 C2403 1.400 . S
C2400 H2385 0.960 . S
C2400 H2386 0.960 . S
C2400 H2387 0.960 . S
C2400 C2399 1.524 . S
C2401 C2398 1.403 . S
C2401 C2402 1.392 . S
C2401 C2405 1.495 . S
C2402 C2401 1.392 . S
C2402 C2403 1.385 . S
C2402 C2404 1.478 . S
C2403 H2397 0.930 . S
C2403 C2399 1.400 . S
C2403 C2402 1.385 . S
C2404 C2402 1.478 . S
C2404 C2406 1.381 . S
C2404 C2410 1.383 . S
C2405 C2401 1.495 . S
C2405 H2411 0.959 . S
C2405 H2412 0.961 . S
C2405 H2413 0.960 . S
C2406 C2404 1.381 . S
C2406 C2407 1.394 . S
C2406 H2414 0.930 . S
C2407 C2406 1.394 . S
C2407 C2408 1.383 . S
C2407 H2415 0.929 . S
C2408 C2407 1.383 . S
C2408 C2409 1.377 . S
C2409 H2393 0.930 . S
C2409 C2408 1.377 . S
C2409 C2410 1.379 . S
C2410 H2394 0.931 . S
C2410 C2404 1.383 . S
C2410 C2409 1.379 . S
H2411 C2405 0.959 . S
H2412 C2405 0.961 . S
H2413 C2405 0.960 . S
H2414 C2406 0.930 . S
H2415 C2407 0.929 . S
H2416 C2424 0.929 . S
H2417 C2426 0.930 . S
H2418 C2428 0.930 . S
H2419 C2431 0.929 . S
H2420 C2434 0.930 . S
H2421 C2436 0.960 . S
H2422 C2436 0.960 . S
H2423 C2436 0.960 . S
C2424 H2416 0.929 . S
C2424 C2425 1.377 . S
C2424 C2426 1.384 . S
C2425 C2424 1.377 . S
C2425 C2431 1.390 . S
C2426 H2417 0.930 . S
C2426 C2424 1.384 . S
C2426 C2427 1.372 . S
C2427 C2426 1.372 . S
C2427 C2428 1.400 . S
C2427 C2432 1.490 . S
C2428 H2418 0.930 . S
C2428 C2427 1.400 . S
C2428 C2431 1.386 . S
H2429 C2445 0.930 . S
H2430 C2446 0.931 . S
C2431 H2419 0.929 . S
C2431 C2425 1.390 . S
C2431 C2428 1.386 . S
C2432 C2427 1.490 . S
C2432 C2434 1.395 . S
C2432 C2435 1.403 . S
H2433 C2439 0.930 . S
C2434 H2420 0.930 . S
C2434 C2432 1.395 . S
C2434 C2437 1.403 . S
C2435 C2432 1.403 . S
C2435 C2436 1.524 . S
C2435 C2439 1.400 . S
C2436 H2421 0.960 . S
C2436 H2422 0.960 . S
C2436 H2423 0.960 . S
C2436 C2435 1.524 . S
C2437 C2434 1.403 . S
C2437 C2438 1.392 . S
C2437 C2441 1.495 . S
C2438 C2437 1.392 . S
C2438 C2439 1.385 . S
C2438 C2440 1.478 . S
C2439 H2433 0.930 . S
C2439 C2435 1.400 . S
C2439 C2438 1.385 . S
C2440 C2438 1.478 . S
C2440 C2442 1.381 . S
C2440 C2446 1.383 . S
C2441 C2437 1.495 . S
C2441 H2447 0.959 . S
C2441 H2448 0.961 . S
C2441 H2449 0.960 . S
C2442 C2440 1.381 . S
C2442 C2443 1.394 . S
C2442 H2450 0.930 . S
C2443 C2442 1.394 . S
C2443 C2444 1.383 . S
C2443 H2451 0.929 . S
C2444 C2443 1.383 . S
C2444 C2445 1.377 . S
C2445 H2429 0.930 . S
C2445 C2444 1.377 . S
C2445 C2446 1.379 . S
C2446 H2430 0.931 . S
C2446 C2440 1.383 . S
C2446 C2445 1.379 . S
H2447 C2441 0.959 . S
H2448 C2441 0.961 . S
H2449 C2441 0.960 . S
H2450 C2442 0.930 . S
H2451 C2443 0.929 . S
H2452 C2460 0.929 . S
H2453 C2462 0.930 . S
H2454 C2464 0.930 . S
H2455 C2467 0.929 . S
H2456 C2470 0.930 . S
H2457 C2472 0.960 . S
H2458 C2472 0.960 . S
H2459 C2472 0.960 . S
C2460 H2452 0.929 . S
C2460 C2461 1.377 . S
C2460 C2462 1.384 . S
C2461 C2460 1.377 . S
C2461 C2467 1.390 . S
C2462 H2453 0.930 . S
C2462 C2460 1.384 . S
C2462 C2463 1.372 . S
C2463 C2462 1.372 . S
C2463 C2464 1.400 . S
C2463 C2468 1.490 . S
C2464 H2454 0.930 . S
C2464 C2463 1.400 . S
C2464 C2467 1.386 . S
H2465 C2481 0.930 . S
H2466 C2482 0.931 . S
C2467 H2455 0.929 . S
C2467 C2461 1.390 . S
C2467 C2464 1.386 . S
C2468 C2463 1.490 . S
C2468 C2470 1.395 . S
C2468 C2471 1.403 . S
H2469 C2475 0.930 . S
C2470 H2456 0.930 . S
C2470 C2468 1.395 . S
C2470 C2473 1.403 . S
C2471 C2468 1.403 . S
C2471 C2472 1.524 . S
C2471 C2475 1.400 . S
C2472 H2457 0.960 . S
C2472 H2458 0.960 . S
C2472 H2459 0.960 . S
C2472 C2471 1.524 . S
C2473 C2470 1.403 . S
C2473 C2474 1.392 . S
C2473 C2477 1.495 . S
C2474 C2473 1.392 . S
C2474 C2475 1.385 . S
C2474 C2476 1.478 . S
C2475 H2469 0.930 . S
C2475 C2471 1.400 . S
C2475 C2474 1.385 . S
C2476 C2474 1.478 . S
C2476 C2478 1.381 . S
C2476 C2482 1.383 . S
C2477 C2473 1.495 . S
C2477 H2483 0.959 . S
C2477 H2484 0.961 . S
C2477 H2485 0.960 . S
C2478 C2476 1.381 . S
C2478 C2479 1.394 . S
C2478 H2486 0.930 . S
C2479 C2478 1.394 . S
C2479 C2480 1.383 . S
C2479 H2487 0.929 . S
C2480 C2479 1.383 . S
C2480 C2481 1.377 . S
C2481 H2465 0.930 . S
C2481 C2480 1.377 . S
C2481 C2482 1.379 . S
C2482 H2466 0.931 . S
C2482 C2476 1.383 . S
C2482 C2481 1.379 . S
H2483 C2477 0.959 . S
H2484 C2477 0.961 . S
H2485 C2477 0.960 . S
H2486 C2478 0.930 . S
H2487 C2479 0.929 . S
H2488 C2496 0.929 . S
H2489 C2498 0.930 . S
H2490 C2500 0.930 . S
H2491 C2503 0.929 . S
H2492 C2506 0.930 . S
H2493 C2508 0.960 . S
H2494 C2508 0.960 . S
H2495 C2508 0.960 . S
C2496 H2488 0.929 . S
C2496 C2497 1.377 . S
C2496 C2498 1.384 . S
C2497 C2496 1.377 . S
C2497 C2503 1.390 . S
C2498 H2489 0.930 . S
C2498 C2496 1.384 . S
C2498 C2499 1.372 . S
C2499 C2498 1.372 . S
C2499 C2500 1.400 . S
C2499 C2504 1.490 . S
C2500 H2490 0.930 . S
C2500 C2499 1.400 . S
C2500 C2503 1.386 . S
H2501 C2517 0.930 . S
H2502 C2518 0.931 . S
C2503 H2491 0.929 . S
C2503 C2497 1.390 . S
C2503 C2500 1.386 . S
C2504 C2499 1.490 . S
C2504 C2506 1.395 . S
C2504 C2507 1.403 . S
H2505 C2511 0.930 . S
C2506 H2492 0.930 . S
C2506 C2504 1.395 . S
C2506 C2509 1.403 . S
C2507 C2504 1.403 . S
C2507 C2508 1.524 . S
C2507 C2511 1.400 . S
C2508 H2493 0.960 . S
C2508 H2494 0.960 . S
C2508 H2495 0.960 . S
C2508 C2507 1.524 . S
C2509 C2506 1.403 . S
C2509 C2510 1.392 . S
C2509 C2513 1.495 . S
C2510 C2509 1.392 . S
C2510 C2511 1.385 . S
C2510 C2512 1.478 . S
C2511 H2505 0.930 . S
C2511 C2507 1.400 . S
C2511 C2510 1.385 . S
C2512 C2510 1.478 . S
C2512 C2514 1.381 . S
C2512 C2518 1.383 . S
C2513 C2509 1.495 . S
C2513 H2519 0.959 . S
C2513 H2520 0.961 . S
C2513 H2521 0.960 . S
C2514 C2512 1.381 . S
C2514 C2515 1.394 . S
C2514 H2522 0.930 . S
C2515 C2514 1.394 . S
C2515 C2516 1.383 . S
C2515 H2523 0.929 . S
C2516 C2515 1.383 . S
C2516 C2517 1.377 . S
C2517 H2501 0.930 . S
C2517 C2516 1.377 . S
C2517 C2518 1.379 . S
C2518 H2502 0.931 . S
C2518 C2512 1.383 . S
C2518 C2517 1.379 . S
H2519 C2513 0.959 . S
H2520 C2513 0.961 . S
H2521 C2513 0.960 . S
H2522 C2514 0.930 . S
H2523 C2515 0.929 . S
H2524 C2532 0.929 . S
H2525 C2534 0.930 . S
H2526 C2536 0.930 . S
H2527 C2539 0.929 . S
H2528 C2542 0.930 . S
H2529 C2544 0.960 . S
H2530 C2544 0.960 . S
H2531 C2544 0.960 . S
C2532 H2524 0.929 . S
C2532 C2533 1.377 . S
C2532 C2534 1.384 . S
C2533 C2532 1.377 . S
C2533 C2539 1.390 . S
C2534 H2525 0.930 . S
C2534 C2532 1.384 . S
C2534 C2535 1.372 . S
C2535 C2534 1.372 . S
C2535 C2536 1.400 . S
C2535 C2540 1.490 . S
C2536 H2526 0.930 . S
C2536 C2535 1.400 . S
C2536 C2539 1.386 . S
H2537 C2553 0.930 . S
H2538 C2554 0.931 . S
C2539 H2527 0.929 . S
C2539 C2533 1.390 . S
C2539 C2536 1.386 . S
C2540 C2535 1.490 . S
C2540 C2542 1.395 . S
C2540 C2543 1.403 . S
H2541 C2547 0.930 . S
C2542 H2528 0.930 . S
C2542 C2540 1.395 . S
C2542 C2545 1.403 . S
C2543 C2540 1.403 . S
C2543 C2544 1.524 . S
C2543 C2547 1.400 . S
C2544 H2529 0.960 . S
C2544 H2530 0.960 . S
C2544 H2531 0.960 . S
C2544 C2543 1.524 . S
C2545 C2542 1.403 . S
C2545 C2546 1.392 . S
C2545 C2549 1.495 . S
C2546 C2545 1.392 . S
C2546 C2547 1.385 . S
C2546 C2548 1.478 . S
C2547 H2541 0.930 . S
C2547 C2543 1.400 . S
C2547 C2546 1.385 . S
C2548 C2546 1.478 . S
C2548 C2550 1.381 . S
C2548 C2554 1.383 . S
C2549 C2545 1.495 . S
C2549 H2555 0.959 . S
C2549 H2556 0.961 . S
C2549 H2557 0.960 . S
C2550 C2548 1.381 . S
C2550 C2551 1.394 . S
C2550 H2558 0.930 . S
C2551 C2550 1.394 . S
C2551 C2552 1.383 . S
C2551 H2559 0.929 . S
C2552 C2551 1.383 . S
C2552 C2553 1.377 . S
C2553 H2537 0.930 . S
C2553 C2552 1.377 . S
C2553 C2554 1.379 . S
C2554 H2538 0.931 . S
C2554 C2548 1.383 . S
C2554 C2553 1.379 . S
H2555 C2549 0.959 . S
H2556 C2549 0.961 . S
H2557 C2549 0.960 . S
H2558 C2550 0.930 . S
H2559 C2551 0.929 . S
C553 C1 1.755 . S
C572 C173 1.722 . S
C589 C37 1.752 . S
C608 C207 1.773 . S
C625 C241 1.751 . S
C644 C69 1.733 . S
C661 C103 1.749 . S
C680 C139 1.750 . S
C697 C445 1.747 . S
C716 C273 1.720 . S
C733 C307 1.747 . S
C752 C477 1.719 . S
C769 C341 1.758 . S
C788 C513 1.775 . S
C805 C411 1.759 . S
C824 C377 1.777 . S
C841 C504 1.319 . S
C860 C6 1.320 . S
C877 C516 1.321 . S
C896 C62 1.322 . S
C913 C74 1.325 . S
C932 C414 1.309 . S
C949 C108 1.326 . S
C968 C448 1.317 . S
C985 C164 1.325 . S
C1004 C368 1.310 . S
C1021 C198 1.326 . S
C1040 C380 1.317 . S
C1057 C232 1.326 . S
C1076 C300 1.313 . S
C1093 C334 1.323 . S
C1112 C266 1.328 . S
C1129 C210 1.321 . S
C1148 C278 1.328 . S
C1165 C312 1.326 . S
C1184 C244 1.311 . S
C1201 C346 1.327 . S
C1220 C142 1.307 . S
C1237 C402 1.325 . S
C1256 C176 1.329 . S
C1273 C436 1.326 . S
C1292 C96 1.323 . S
C1309 C130 1.323 . S
C1328 C470 1.319 . S
C1345 C482 1.326 . S
C1364 C28 1.326 . S
C1381 C538 1.327 . S
C1400 C40 1.313 . S
C1417 C3 1.473 . S
C1436 C396 1.564 . S
C1453 C35 1.481 . S
C1472 C287 1.546 . S
C1489 C321 1.558 . S
C1508 C71 1.491 . S
C1525 C105 1.482 . S
C1544 C355 1.549 . S
C1561 C464 1.555 . S
C1580 C137 1.468 . S
C1597 C171 1.473 . S
C1616 C491 1.564 . S
C1633 C205 1.478 . S
C1652 C532 1.560 . S
C1669 C239 1.469 . S
C1688 C430 1.550 . S
C1705 C275 1.481 . S
C1724 C117 1.562 . S
C1741 C15 1.559 . S
C1760 C309 1.504 . S
C1777 C56 1.559 . S
C1796 C343 1.504 . S
C1813 C83 1.555 . S
C1832 C375 1.442 . S
C1849 C192 1.559 . S
C1868 C409 1.491 . S
C1885 C226 1.559 . S
C1904 C443 1.503 . S
C1921 C260 1.557 . S
C1940 C479 1.474 . S
C1957 C158 1.555 . S
C1976 C511 1.439 . S
C1993 C22 1.756 . S
C2012 C119 1.952 . S
C2029 C49 1.746 . S
C2048 C17 1.963 . S
C2065 C51 1.958 . S
C2084 C90 1.717 . S
C2101 C85 1.961 . S
C2120 C124 1.763 . S
C2137 C187 1.957 . S
C2156 C151 1.739 . S
C2173 C221 1.961 . S
C2192 C185 1.754 . S
C2209 C255 1.961 . S
C2228 C219 1.719 . S
C2245 C153 1.960 . S
C2264 C253 1.782 . S
C2281 C391 1.961 . S
C2300 C294 1.759 . S
C2317 C328 1.743 . S
C2336 C289 1.953 . S
C2353 C362 1.744 . S
C2372 C323 1.953 . S
C2389 C357 1.958 . S
C2408 C389 1.731 . S
C2425 C459 1.961 . S
C2444 C423 1.781 . S
C2461 C457 1.754 . S
C2480 C493 1.964 . S
C2497 C527 1.960 . S
C2516 C498 1.745 . S
C2533 C425 1.960 . S
C2552 C525 1.781 . S
