# Generated by pormake.
# Topology smc, (6)-cn, num edge types: 1
# Building blocks:
#     Node 0, Type 0, BuildingBlock: KUMJIN_clean_sbu_0, # of connection points: 6
#     Node 1, Type 0, BuildingBlock: KUMJIN_clean_sbu_0, # of connection points: 6
#     Node 2, Type 0, BuildingBlock: KUMJIN_clean_sbu_0, # of connection points: 6
#     Node 3, Type 0, BuildingBlock: KUMJIN_clean_sbu_0, # of connection points: 6
#     Node 4, Type 0, BuildingBlock: KUMJIN_clean_sbu_0, # of connection points: 6
#     Node 5, Type 0, BuildingBlock: KUMJIN_clean_sbu_0, # of connection points: 6
#     Node 6, Type 0, BuildingBlock: KUMJIN_clean_sbu_0, # of connection points: 6
#     Node 7, Type 0, BuildingBlock: KUMJIN_clean_sbu_0, # of connection points: 6
#     Node 8, Type 0, BuildingBlock: KUMJIN_clean_sbu_0, # of connection points: 6
#     Edge 9, Type (0, 0), BuildingBlock: XIVTED_clean_linker_0, # of connection points: 2
#     Edge 10, Type (0, 0), BuildingBlock: XIVTED_clean_linker_0, # of connection points: 2
#     Edge 11, Type (0, 0), BuildingBlock: XIVTED_clean_linker_0, # of connection points: 2
#     Edge 12, Type (0, 0), BuildingBlock: XIVTED_clean_linker_0, # of connection points: 2
#     Edge 13, Type (0, 0), BuildingBlock: XIVTED_clean_linker_0, # of connection points: 2
#     Edge 14, Type (0, 0), BuildingBlock: XIVTED_clean_linker_0, # of connection points: 2
#     Edge 15, Type (0, 0), BuildingBlock: XIVTED_clean_linker_0, # of connection points: 2
#     Edge 16, Type (0, 0), BuildingBlock: XIVTED_clean_linker_0, # of connection points: 2
#     Edge 17, Type (0, 0), BuildingBlock: XIVTED_clean_linker_0, # of connection points: 2
#     Edge 18, Type (0, 0), BuildingBlock: XIVTED_clean_linker_0, # of connection points: 2
#     Edge 19, Type (0, 0), BuildingBlock: XIVTED_clean_linker_0, # of connection points: 2
#     Edge 20, Type (0, 0), BuildingBlock: XIVTED_clean_linker_0, # of connection points: 2
#     Edge 21, Type (0, 0), BuildingBlock: XIVTED_clean_linker_0, # of connection points: 2
#     Edge 22, Type (0, 0), BuildingBlock: XIVTED_clean_linker_0, # of connection points: 2
#     Edge 23, Type (0, 0), BuildingBlock: XIVTED_clean_linker_0, # of connection points: 2
#     Edge 24, Type (0, 0), BuildingBlock: XIVTED_clean_linker_0, # of connection points: 2
#     Edge 25, Type (0, 0), BuildingBlock: XIVTED_clean_linker_0, # of connection points: 2
#     Edge 26, Type (0, 0), BuildingBlock: XIVTED_clean_linker_0, # of connection points: 2
#     Edge 27, Type (0, 0), BuildingBlock: XIVTED_clean_linker_0, # of connection points: 2
#     Edge 28, Type (0, 0), BuildingBlock: XIVTED_clean_linker_0, # of connection points: 2
#     Edge 29, Type (0, 0), BuildingBlock: XIVTED_clean_linker_0, # of connection points: 2
#     Edge 30, Type (0, 0), BuildingBlock: XIVTED_clean_linker_0, # of connection points: 2
#     Edge 31, Type (0, 0), BuildingBlock: XIVTED_clean_linker_0, # of connection points: 2
#     Edge 32, Type (0, 0), BuildingBlock: XIVTED_clean_linker_0, # of connection points: 2
#     Edge 33, Type (0, 0), BuildingBlock: XIVTED_clean_linker_0, # of connection points: 2
#     Edge 34, Type (0, 0), BuildingBlock: XIVTED_clean_linker_0, # of connection points: 2
#     Edge 35, Type (0, 0), BuildingBlock: XIVTED_clean_linker_0, # of connection points: 2
# Relax obj value: 0.110
# Max RMSD: 0.288
# Mean RMSD: 0.288
data_MOF--net-smc--node1-KUMJIN_clean_sbu_0--edge1-XIVTED_clean_linker_0
_symmetry_space_group_name_H-M    P1
_symmetry_Int_Tables_number       1
_symmetry_cell_setting            triclinic
loop_
_symmetry_equiv_pos_as_xyz
'x, y, z'
_cell_length_a     37.994253
_cell_length_b     38.004979
_cell_length_c     40.589034
_cell_angle_alpha  89.981
_cell_angle_beta   90.017253
_cell_angle_gamma 119.92248
loop_
_atom_site_label
_atom_site_type_symbol
_atom_site_fract_x
_atom_site_fract_y
_atom_site_fract_z
_atom_type_partial_charge
Eu0 Eu 0.05147 0.50714 0.99115 0.0
C1 C 0.02631 0.35592 0.07054 0.0
C2 C 0.06737 0.33462 0.04025 0.0
C3 C 0.05858 0.32342 0.09939 0.0
C4 C 0.04323 0.35323 0.04116 0.0
C5 C 0.03308 0.34031 0.09987 0.0
C6 C 0.07566 0.32054 0.06962 0.0
C7 C 0.98623 0.35613 0.12735 0.0
N8 N 1.00189 0.3725 0.07017 0.0
C9 C 0.98033 0.37107 0.09761 0.0
C10 C 1.01323 0.34127 0.12863 0.0
Eu11 Eu 0.99638 0.40048 0.01952 0.0
N12 N 0.03467 0.3672 0.01325 0.0
C13 C 0.04654 0.36052 0.98325 0.0
C14 C 0.08164 0.32987 0.00975 0.0
C15 C 0.07064 0.34232 0.98108 0.0
H16 H 0.95961 0.38275 0.09678 0.0
H17 H 0.08083 0.33805 0.9573 0.0
H18 H 0.09451 0.30656 0.06945 0.0
H19 H 0.97005 0.35617 0.14927 0.0
H20 H 0.03843 0.3701 0.96089 0.0
H21 H 0.03025 0.56685 0.10862 0.0
H22 H 0.10032 0.31579 0.00799 0.0
H23 H 1.02153 0.51822 0.91402 0.0
H24 H 0.05189 0.52962 0.07364 0.0
H25 H 0.98175 0.54499 0.88837 0.0
H26 H 0.06451 0.31164 0.12174 0.0
H27 H 0.99439 0.59999 0.0849 0.0
H28 H 0.96516 0.61522 0.03576 0.0
H29 H 1.01776 0.32973 0.1517 0.0
H30 H 0.95037 0.60769 0.97655 0.0
N31 N 0.02771 0.53903 0.02903 0.0
C32 C 0.0358 0.54269 0.06214 0.0
C33 C 1.00366 0.58316 0.06902 0.0
C34 C 0.9956 0.57985 0.03526 0.0
C35 C 1.02374 0.56439 0.08248 0.0
C36 C 1.0081 0.55732 0.01555 0.0
H37 H 0.95504 0.5805 0.922 0.0
N38 N 1.01166 0.53099 0.96354 0.0
C39 C 0.98566 0.54663 0.91485 0.0
C40 C 0.99939 0.55274 0.98212 0.0
C41 C 1.007 0.5299 0.92992 0.0
C42 C 0.97102 0.56699 0.93385 0.0
C43 C 0.97864 0.57117 0.96768 0.0
O44 O 0.09474 0.55011 0.95533 0.0
O45 O 0.05702 0.45265 1.00222 0.0
O46 O 0.03605 0.43468 0.06191 0.0
O47 O 0.0796 0.49994 0.04085 0.0
O48 O 0.08478 0.48447 0.95976 0.0
O49 O 0.10399 0.56531 1.00676 0.0
O50 O 0.93069 0.367 0.02788 0.0
O51 O 0.99158 0.45473 1.00478 0.0
O52 O 1.01489 0.46639 0.94731 0.0
O53 O 0.99513 0.40034 0.96412 0.0
O54 O 0.96177 0.42529 0.04764 0.0
O55 O 0.9577 0.34102 0.99676 0.0
C56 C 0.08025 0.45509 0.97868 0.0
C57 C 0.12482 0.62047 0.96878 0.0
C58 C 0.17068 0.69451 0.96522 0.0
C59 C 0.16331 0.6554 0.97481 0.0
C60 C 0.13899 0.69824 0.95105 0.0
C61 C 0.09473 0.6259 0.9535 0.0
C62 C 0.10141 0.66423 0.94529 0.0
C63 C 0.06756 0.47148 0.06456 0.0
C64 C 0.116 0.57836 0.97686 0.0
C65 C 0.96646 0.59361 0.98725 0.0
C66 C 0.97497 0.59799 0.02093 0.0
C67 C 0.96856 0.45414 0.02743 0.0
C68 C 0.89733 0.29569 0.02585 0.0
C69 C 0.85481 0.2786 0.02362 0.0
C70 C 0.82836 0.24154 0.03946 0.0
C71 C 0.84533 0.22169 0.05711 0.0
C72 C 0.91335 0.2753 0.04371 0.0
C73 C 0.88741 0.23844 0.05911 0.0
C74 C 0.99781 0.42666 0.94173 0.0
C75 C 0.92442 0.33558 0.01071 0.0
H76 H 0.18749 0.65208 0.98578 0.0
H77 H 0.1436 0.72773 0.94387 0.0
H78 H 0.06609 0.60055 0.94706 0.0
H79 H 0.07749 0.66748 0.93374 0.0
H80 H 0.84242 0.29467 0.01025 0.0
H81 H 0.826 0.19294 0.06919 0.0
H82 H 0.94587 0.28796 0.04589 0.0
H83 H 0.89998 0.22282 0.07279 0.0
Eu84 Eu 0.54426 0.55021 0.994 0.0
C85 C 0.71258 0.69019 0.04771 0.0
C86 C 0.72691 0.74831 0.01378 0.0
C87 C 0.75447 0.75853 0.06922 0.0
C88 C 0.70785 0.7059 0.01832 0.0
C89 C 0.73641 0.71635 0.07331 0.0
C90 C 0.7497 0.77448 0.03954 0.0
C91 C 0.72446 0.65727 0.10455 0.0
N92 N 0.69432 0.64926 0.05111 0.0
C93 C 0.70111 0.63256 0.07852 0.0
C94 C 0.74183 0.69933 0.1021 0.0
Eu95 Eu 0.65516 0.60959 1.00592 0.0
N96 N 0.68577 0.67984 0.99381 0.0
C97 C 0.68383 0.69433 0.96346 0.0
C98 C 0.7232 0.76322 0.98324 0.0
C99 C 0.70194 0.73609 0.95787 0.0
H100 H 0.68802 0.60011 0.08061 0.0
H101 H 0.69951 0.74731 0.93395 0.0
H102 H 0.76432 0.80711 0.03654 0.0
H103 H 0.72911 0.64386 0.12646 0.0
H104 H 0.66772 0.67395 0.94347 0.0
H105 H 0.51638 0.48692 0.11975 0.0
H106 H 0.7373 0.79558 0.9788 0.0
H107 H 0.51673 0.49887 0.9213 0.0
H108 H 0.54377 0.54027 0.07873 0.0
H109 H 0.48659 0.42919 0.90113 0.0
H110 H 0.77265 0.77909 0.0887 0.0
H111 H 0.48024 0.41502 0.10277 0.0
H112 H 0.4559 0.36385 0.05766 0.0
H113 H 0.75992 0.71841 0.12232 0.0
H114 H 0.45026 0.34827 0.99861 0.0
N115 N 0.52388 0.50058 0.03708 0.0
C116 C 0.52824 0.50972 0.07 0.0
C117 C 0.49225 0.43865 0.08418 0.0
C118 C 0.48812 0.42908 0.05069 0.0
C119 C 0.51264 0.47914 0.09384 0.0
C120 C 0.50457 0.46102 0.02736 0.0
H121 H 0.46286 0.37227 0.94042 0.0
N122 N 0.51718 0.48335 0.97196 0.0
C123 C 0.49144 0.43521 0.92729 0.0
C124 C 0.50202 0.45222 0.99402 0.0
C125 C 0.50986 0.47505 0.93896 0.0
C126 C 0.47785 0.40319 0.94953 0.0
C127 C 0.48193 0.41131 0.9833 0.0
O128 O 0.49237 0.5415 0.96408 0.0
O129 O 0.59791 0.61261 0.99553 0.0
O130 O 0.63105 0.62463 0.05058 0.0
O131 O 0.56051 0.59156 0.04161 0.0
O132 O 0.556 0.6006 0.95859 0.0
O133 O 0.49011 0.54715 0.01658 0.0
O134 O 0.6909 0.57901 0.00889 0.0
O135 O 0.60076 0.54739 1.00034 0.0
O136 O 0.57614 0.54894 0.94551 0.0
O137 O 0.64236 0.6029 0.95167 0.0
O138 O 0.63942 0.55552 0.03916 0.0
O139 O 0.709 0.62874 0.97495 0.0
C140 C 0.58858 0.62895 0.97226 0.0
C141 C 0.427 0.50525 0.98926 0.0
C142 C 0.3534 0.47763 0.99578 0.0
C143 C 0.39354 0.51133 0.99482 0.0
C144 C 0.34738 0.43836 0.99152 0.0
C145 C 0.41908 0.46562 0.98338 0.0
C146 C 0.37997 0.43251 0.98508 0.0
C147 C 0.59412 0.61586 0.05926 0.0
C148 C 0.46986 0.5396 0.98904 0.0
C149 C 0.46553 0.37971 1.00645 0.0
C150 C 0.46855 0.38858 0.04005 0.0
C151 C 0.60762 0.5294 0.02342 0.0
C152 C 0.76074 0.61841 0.99855 0.0
C153 C 0.77612 0.59149 0.99968 0.0
C154 C 0.8157 0.60448 0.01139 0.0
C155 C 0.83976 0.64509 0.02158 0.0
C156 C 0.7853 0.65868 0.009 0.0
C157 C 0.82463 0.67188 0.02033 0.0
C158 C 0.61311 0.57438 0.93388 0.0
C159 C 0.71834 0.60315 0.98816 0.0
H160 H 0.39859 0.54178 0.99821 0.0
H161 H 0.31707 0.41214 0.99181 0.0
H162 H 0.44287 0.45998 0.97676 0.0
H163 H 0.37484 0.4022 0.98072 0.0
H164 H 0.75682 0.56018 0.99222 0.0
H165 H 0.87051 0.65633 0.03025 0.0
H166 H 0.77404 0.67983 0.00863 0.0
H167 H 0.84345 0.70301 0.0283 0.0
Eu168 Eu 0.4979 1.0006 0.9949 0.0
C169 C 0.36634 0.02801 0.06458 0.0
C170 C 0.30599 0.98483 0.03277 0.0
C171 C 0.29986 0.99773 0.09053 0.0
C172 C 0.3486 1.00898 0.0352 0.0
C173 C 0.34213 0.02326 0.0924 0.0
C174 C 0.28182 0.97856 0.06077 0.0
C175 C 0.40294 0.07163 0.12112 0.0
N176 N 0.40731 0.05221 0.06568 0.0
C177 C 0.42568 0.07534 0.09291 0.0
C178 C 0.36106 0.045 0.12105 0.0
Eu179 Eu 0.44386 0.05491 0.01751 0.0
N180 N 0.3728 1.01577 0.00857 0.0
C181 C 0.35602 1.0025 0.97814 0.0
C182 C 0.28885 0.9687 1.00204 0.0
C183 C 0.31396 0.97818 0.97451 0.0
H184 H 0.45799 0.09614 0.09315 0.0
H185 H 0.30097 0.96681 0.95045 0.0
H186 H 0.24908 0.95975 0.05944 0.0
H187 H 0.41772 0.08933 0.14288 0.0
H188 H 0.3749 1.00977 0.95654 0.0
H189 H 0.56648 1.01467 0.11722 0.0
H190 H 0.25627 0.94996 0.99914 0.0
H191 H 0.5465 0.03227 0.9207 0.0
H192 H 0.51144 0.99428 0.07818 0.0
H193 H 0.61537 0.0733 0.89948 0.0
H194 H 0.28079 0.99336 0.11175 0.0
H195 H 0.63765 0.05309 0.0985 0.0
H196 H 0.68696 0.08583 0.05267 0.0
H197 H 0.34351 0.04218 0.14293 0.0
H198 H 0.70017 0.10342 0.99411 0.0
N199 N 0.54946 0.02214 0.03634 0.0
C200 C 0.54165 1.01175 0.06891 0.0
C201 C 0.61327 0.04446 0.08086 0.0
C202 C 0.62146 0.05459 0.0476 0.0
C203 C 0.57319 0.02297 0.09153 0.0
C204 C 0.58858 0.04287 0.02555 0.0
H205 H 0.6739 0.1001 0.93735 0.0
N206 N 0.56406 0.04119 0.97157 0.0
C207 C 0.61042 0.06871 0.92577 0.0
C208 C 0.59606 0.05321 0.99249 0.0
C209 C 0.57102 0.04653 0.93825 0.0
C210 C 0.64335 0.08345 0.94717 0.0
C211 C 0.63654 0.07487 0.98078 0.0
O212 O 0.50269 0.95918 0.95996 0.0
O213 O 0.43674 0.99415 1.00121 0.0
O214 O 0.4338 1.01564 0.06121 0.0
O215 O 0.45754 0.97264 0.04267 0.0
O216 O 0.44537 0.96757 0.95985 0.0
O217 O 0.50023 0.94669 0.01179 0.0
O218 O 0.47886 0.12137 0.02058 0.0
O219 O 0.50463 0.06034 0.00802 0.0
O220 O 0.49857 0.03915 0.95032 0.0
O221 O 0.44747 0.05397 0.96246 0.0
O222 O 0.49913 0.0874 0.05058 0.0
O223 O 0.42236 0.0928 0.99416 0.0
C224 C 0.41857 0.97146 0.97658 0.0
C225 C 0.54006 0.92775 0.97862 0.0
C226 C 0.56878 0.8823 0.98216 0.0
C227 C 0.53521 0.88886 0.98516 0.0
C228 C 0.60675 0.91484 0.97298 0.0
C229 C 0.57817 0.95865 0.96791 0.0
C230 C 0.61125 0.95256 0.96567 0.0
C231 C 0.43855 0.98389 0.06484 0.0
C232 C 0.50595 0.93643 0.98246 0.0
C233 C 0.66904 0.08661 1.00271 0.0
C234 C 0.66152 0.07645 0.03601 0.0
C235 C 0.5238 0.08176 0.03259 0.0
C236 C 0.44219 0.1562 0.02032 0.0
C237 C 0.46982 0.19833 0.01804 0.0
C238 C 0.46176 0.22654 0.03408 0.0
C239 C 0.42533 0.21186 0.05191 0.0
C240 C 0.40615 0.14251 0.03831 0.0
C241 C 0.3978 0.17025 0.05388 0.0
C242 C 0.47489 0.05448 0.94241 0.0
C243 C 0.45221 0.12694 1.0051 0.0
H244 H 0.50579 0.86406 0.99242 0.0
H245 H 0.63281 0.91067 0.97025 0.0
H246 H 0.58258 0.98753 0.96059 0.0
H247 H 0.64041 0.97709 0.95764 0.0
H248 H 0.49793 0.209 1.0045 0.0
H249 H 0.41791 0.23265 0.06416 0.0
H250 H 0.38455 0.11039 0.0405 0.0
H251 H 0.3699 0.15944 0.06768 0.0
Eu252 Eu 0.72006 0.83681 0.3268 0.0
C253 C 0.69233 0.68374 0.40276 0.0
C254 C 0.73747 0.66644 0.37406 0.0
C255 C 0.7244 0.65163 0.43249 0.0
C256 C 0.71223 0.68384 0.37425 0.0
C257 C 0.69726 0.6666 0.43198 0.0
C258 C 0.74447 0.65154 0.40355 0.0
C259 C 0.64495 0.67628 0.4569 0.0
N260 N 0.66613 0.69817 0.40133 0.0
C261 C 0.64109 0.69297 0.42733 0.0
C262 C 0.67364 0.66365 0.45943 0.0
Eu263 Eu 0.66394 0.72919 0.35124 0.0
N264 N 0.70428 0.69791 0.34612 0.0
C265 C 0.717 0.69146 0.31644 0.0
C266 C 0.75346 0.66294 0.34399 0.0
C267 C 0.74243 0.67469 0.31496 0.0
H268 H 0.61883 0.70263 0.42553 0.0
H269 H 0.75355 0.67092 0.29144 0.0
H270 H 0.76421 0.63857 0.40398 0.0
H271 H 0.62579 0.67315 0.47771 0.0
H272 H 0.70869 0.70037 0.29381 0.0
H273 H 0.70064 0.89636 0.44501 0.0
H274 H 0.77302 0.64981 0.34276 0.0
H275 H 0.69391 0.85295 0.24999 0.0
H276 H 0.72361 0.86105 0.40914 0.0
H277 H 0.65409 0.88011 0.22479 0.0
H278 H 0.72902 0.63884 0.45483 0.0
H279 H 0.66216 0.92735 0.42245 0.0
H280 H 0.6313 0.94181 0.37399 0.0
H281 H 0.67639 0.6505 0.48229 0.0
H282 H 0.61699 0.93571 0.31472 0.0
N283 N 0.69649 0.86826 0.36531 0.0
C284 C 0.70579 0.87257 0.39822 0.0
C285 C 0.67177 0.91111 0.4062 0.0
C286 C 0.66315 0.90782 0.37255 0.0
C287 C 0.69326 0.89348 0.41903 0.0
C288 C 0.67616 0.8861 0.35235 0.0
H289 H 0.6243 0.91197 0.25936 0.0
N290 N 0.68127 0.86216 0.2997 0.0
C291 C 0.65684 0.88015 0.25133 0.0
C292 C 0.66774 0.88236 0.31887 0.0
C293 C 0.67832 0.86336 0.26604 0.0
C294 C 0.64038 0.89837 0.27089 0.0
C295 C 0.64669 0.90073 0.3049 0.0
O296 O 0.76329 0.88284 0.29263 0.0
O297 O 0.72556 0.78183 0.336 0.0
O298 O 0.69868 0.76131 0.39608 0.0
O299 O 0.74558 0.8262 0.37652 0.0
O300 O 0.75463 0.81598 0.29468 0.0
O301 O 0.77353 0.89248 0.34476 0.0
O302 O 0.59733 0.697 0.35264 0.0
O303 O 0.6592 0.78446 0.339 0.0
O304 O 0.68387 0.79827 0.28178 0.0
O305 O 0.6663 0.73213 0.29605 0.0
O306 O 0.62931 0.75226 0.38111 0.0
O307 O 0.62768 0.66901 0.32897 0.0
C308 C 0.74914 0.78534 0.31236 0.0
C309 C 0.79364 0.95138 0.31172 0.0
C310 C 0.83783 0.02527 0.31817 0.0
C311 C 0.83149 0.98524 0.32085 0.0
C312 C 0.80602 0.03079 0.30683 0.0
C313 C 0.76367 0.95873 0.29873 0.0
C314 C 0.76942 0.99779 0.29692 0.0
C315 C 0.73101 0.79732 0.39992 0.0
C316 C 0.78499 0.90864 0.31561 0.0
C317 C 0.6334 0.92177 0.32504 0.0
C318 C 0.6417 0.92539 0.35875 0.0
C319 C 0.63635 0.78253 0.36247 0.0
C320 C 0.5639 0.62562 0.3544 0.0
C321 C 0.52169 0.61008 0.35099 0.0
C322 C 0.49363 0.57409 0.36737 0.0
C323 C 0.5086 0.55365 0.38669 0.0
C324 C 0.57788 0.60463 0.37393 0.0
C325 C 0.55032 0.56879 0.38984 0.0
C326 C 0.66779 0.75898 0.27481 0.0
C327 C 0.59293 0.66445 0.33855 0.0
H328 H 0.85572 0.98057 0.3298 0.0
H329 H 0.81012 0.061 0.3043 0.0
H330 H 0.73584 0.93448 0.28935 0.0
H331 H 0.74559 1.00254 0.28716 0.0
H332 H 0.5108 0.62651 0.33627 0.0
H333 H 0.48795 0.52567 0.39925 0.0
H334 H 0.6101 0.616 0.37704 0.0
H335 H 0.56135 0.55274 0.40481 0.0
Eu336 Eu 0.20801 0.88932 0.32335 0.0
C337 C 0.36201 1.00837 0.40159 0.0
C338 C 0.38517 0.07131 0.37175 0.0
C339 C 0.39706 0.07275 0.43073 0.0
C340 C 0.36502 0.02852 0.37244 0.0
C341 C 0.37871 0.03024 0.43094 0.0
C342 C 0.40033 0.09325 0.40117 0.0
C343 C 0.361 0.96675 0.45782 0.0
N344 N 0.34408 0.96729 0.40093 0.0
C345 C 0.34506 0.94642 0.42805 0.0
C346 C 0.37732 1.00877 0.45942 0.0
Eu347 Eu 0.31432 0.93484 0.35032 0.0
N348 N 0.35018 1.00641 0.34445 0.0
C349 C 0.35753 0.02527 0.31456 0.0
C350 C 0.39046 0.09076 0.34138 0.0
C351 C 0.37716 0.06763 0.3126 0.0
H352 H 0.33218 0.91389 0.42698 0.0
H353 H 0.38194 0.0824 0.2889 0.0
H354 H 0.4155 0.12612 0.40119 0.0
H355 H 0.3606 0.94999 0.47952 0.0
H356 H 0.34744 1.00776 0.29213 0.0
H357 H 0.15194 0.79556 0.43507 0.0
H358 H 0.40572 0.12357 0.33978 0.0
H359 H 0.18719 0.86151 0.24378 0.0
H360 H 0.19165 0.85824 0.40404 0.0
H361 H 0.14787 0.79901 0.21127 0.0
H362 H 0.4097 0.09009 0.45311 0.0
H363 H 0.1108 0.7306 0.40586 0.0
H364 H 0.08709 0.69299 0.35267 0.0
H365 H 0.38965 0.02444 0.48251 0.0
H366 H 0.08689 0.69368 0.29219 0.0
N367 N 0.17344 0.83026 0.35678 0.0
C368 C 0.1737 0.83073 0.39048 0.0
C369 C 0.12801 0.75833 0.39185 0.0
C370 C 0.12747 0.75786 0.35742 0.0
C371 C 0.15119 0.79492 0.40842 0.0
C372 C 0.15062 0.79479 0.34023 0.0
H373 H 0.10953 0.73276 0.23946 0.0
N374 N 0.17407 0.83073 0.28986 0.0
C375 C 0.14898 0.79733 0.23784 0.0
C376 C 0.15105 0.79504 0.30596 0.0
C377 C 0.17168 0.83259 0.25634 0.0
C378 C 0.12723 0.76007 0.25385 0.0
C379 C 0.12759 0.75859 0.28828 0.0
O380 O 0.1749 0.91231 0.2952 0.0
O381 O 0.26431 0.94785 0.33484 0.0
O382 O 0.28251 0.94238 0.39353 0.0
O383 O 0.21605 0.9201 0.37513 0.0
O384 O 0.23537 0.94389 0.2904 0.0
O385 O 0.14634 0.8758 0.33801 0.0
O386 O 0.34745 0.9021 0.35843 0.0
O387 O 0.25798 0.87754 0.33624 0.0
O388 O 0.24533 0.88303 0.28079 0.0
O389 O 0.31117 0.93304 0.29481 0.0
O390 O 0.28829 0.87468 0.37759 0.0
O391 O 0.37182 0.95288 0.32504 0.0
C392 C 0.26369 0.96841 0.31028 0.0
C393 C 0.10294 0.86997 0.29248 0.0
C394 C 0.02804 0.83303 0.28728 0.0
C395 C 0.06371 0.85346 0.30701 0.0
C396 C 0.03269 0.82995 0.25315 0.0
C397 C 0.1056 0.86633 0.25819 0.0
C398 C 0.07091 0.84626 0.23892 0.0
C399 C 0.24569 0.93658 0.39777 0.0
C400 C 0.14132 0.89296 0.31201 0.0
C401 C 0.10479 0.72194 0.30539 0.0
C402 C 0.10478 0.72156 0.33984 0.0
C403 C 0.25819 0.85397 0.35804 0.0
C404 C 0.4187 0.93934 0.35335 0.0
C405 C 0.43612 0.91413 0.35101 0.0
C406 C 0.47422 0.92586 0.36555 0.0
C407 C 0.49472 0.9635 0.3819 0.0
C408 C 0.43984 0.97659 0.36989 0.0
C409 C 0.47768 0.98859 0.38393 0.0
C410 C 0.28479 0.90627 0.27392 0.0
C411 C 0.37785 0.92577 0.33967 0.0
H412 H 0.06103 0.85656 0.33327 0.0
H413 H 1.00658 0.81577 0.23696 0.0
H414 H 0.13464 0.87964 0.24583 0.0
H415 H 0.07369 0.84394 0.21257 0.0
H416 H 0.4196 0.88507 0.33862 0.0
H417 H 0.5242 0.97372 0.39298 0.0
H418 H 0.42704 0.99634 0.37207 0.0
H419 H 0.49384 0.01743 0.39661 0.0
Eu420 Eu 0.16745 0.33534 0.32404 0.0
C421 C 0.03275 0.35699 0.39673 0.0
C422 C 0.97105 0.31121 0.36759 0.0
C423 C 0.96803 0.3253 0.4256 0.0
C424 C 1.0136 0.33683 0.36819 0.0
C425 C 1.01017 0.35195 0.42569 0.0
C426 C 0.94848 0.30502 0.39657 0.0
C427 C 0.07215 0.40187 0.45203 0.0
N428 N 0.07351 0.38235 0.39597 0.0
C429 C 0.09318 0.40595 0.42271 0.0
C430 C 0.03054 0.37434 0.45369 0.0
Eu431 Eu 0.10794 0.38474 0.34636 0.0
N432 N 0.03637 0.34339 0.34069 0.0
C433 C 1.018 0.32744 0.3112 0.0
C434 C 0.95238 0.29321 0.33774 0.0
C435 C 0.97593 0.30182 0.30933 0.0
H436 H 0.12535 0.42723 0.42183 0.0
H437 H 0.96175 0.28856 0.28598 0.0
H438 H 0.91584 0.28516 0.39665 0.0
H439 H 0.08807 0.41988 0.47337 0.0
H440 H 0.03561 0.33336 0.28906 0.0
H441 H 0.24813 0.36728 0.44275 0.0
H442 H 0.9198 0.27331 0.33623 0.0
H443 H 0.20781 0.3593 0.24695 0.0
H444 H 0.1892 0.3423 0.40731 0.0
H445 H 0.27436 0.39837 0.22072 0.0
H446 H 0.9502 0.32076 0.44766 0.0
H447 H 0.31711 0.40306 0.41914 0.0
H448 H 0.36153 0.43043 0.36978 0.0
H449 H 1.01432 0.3712 0.47645 0.0
H450 H 0.36864 0.44107 0.30999 0.0
N451 N 0.22278 0.36341 0.36233 0.0
C452 C 0.21835 0.3577 0.39574 0.0
C453 C 0.29099 0.39198 0.403 0.0
C454 C 0.29572 0.39795 0.36899 0.0
C455 C 0.25214 0.37192 0.4164 0.0
C456 C 0.26068 0.38312 0.34894 0.0
H457 H 0.33656 0.43045 0.25463 0.0
N458 N 0.23071 0.37427 0.29621 0.0
C459 C 0.27212 0.39683 0.24732 0.0
C460 C 0.26473 0.38943 0.31516 0.0
C461 C 0.23417 0.37566 0.26252 0.0
C462 C 0.30712 0.41463 0.26652 0.0
C463 C 0.30385 0.41019 0.30073 0.0
O464 O 0.17197 0.29198 0.29109 0.0
O465 O 0.10518 0.32543 0.33247 0.0
O466 O 0.10166 0.34688 0.3902 0.0
O467 O 0.13289 0.30945 0.37428 0.0
O468 O 0.11312 0.29708 0.29199 0.0
O469 O 0.17291 0.28429 0.34356 0.0
O470 O 0.1346 0.45058 0.35232 0.0
O471 O 0.16991 0.39363 0.33543 0.0
O472 O 0.16444 0.37198 0.27918 0.0
O473 O 0.10779 0.37786 0.2914 0.0
O474 O 0.16505 0.4238 0.37606 0.0
O475 O 0.08847 0.41911 0.31546 0.0
C476 C 0.08634 0.30015 0.30949 0.0
C477 C 0.2116 0.26347 0.31112 0.0
C478 C 0.24162 0.21953 0.31782 0.0
C479 C 0.20778 0.22567 0.32024 0.0
C480 C 0.27892 0.25146 0.30674 0.0
C481 C 0.24892 0.29365 0.29844 0.0
C482 C 0.28238 0.28806 0.29686 0.0
C483 C 0.11214 0.31922 0.39571 0.0
C484 C 0.17722 0.27172 0.31474 0.0
C485 C 0.33851 0.42498 0.32067 0.0
C486 C 0.33446 0.41873 0.35468 0.0
C487 C 0.18973 0.41811 0.35826 0.0
C488 C 0.09532 0.48066 0.33712 0.0
C489 C 0.12147 0.52314 0.33795 0.0
C490 C 0.10586 0.54956 0.34268 0.0
C491 C 0.0638 0.53284 0.34696 0.0
C492 C 0.05352 0.46473 0.34205 0.0
C493 C 0.03796 0.49076 0.34692 0.0
C494 C 0.13591 0.38096 0.27075 0.0
C495 C 0.11209 0.45379 0.32979 0.0
H496 H 0.17889 0.2013 0.32896 0.0
H497 H 0.30514 0.24745 0.30447 0.0
H498 H 0.25236 0.3215 0.28915 0.0
H499 H 0.31097 0.31202 0.28733 0.0
H500 H 0.1538 0.53564 0.3342 0.0
H501 H 0.05097 0.55236 0.35085 0.0
H502 H 0.03287 0.43223 0.34184 0.0
H503 H 1.00566 0.47827 0.35055 0.0
Eu504 Eu 0.39253 0.17045 0.65686 0.0
C505 C 0.35678 0.01704 0.74062 0.0
C506 C 0.39836 0.99301 0.71492 0.0
C507 C 0.38316 0.98172 0.7734 0.0
C508 C 0.37612 1.0136 0.71302 0.0
C509 C 0.35952 1.00058 0.77103 0.0
C510 C 0.4025 0.97789 0.74538 0.0
C511 C 0.31311 0.02012 0.79391 0.0
N512 N 0.33441 0.03571 0.73752 0.0
C513 C 0.31132 0.03599 0.76326 0.0
C514 C 0.33776 1.00285 0.79795 0.0
Eu515 Eu 0.33504 0.06418 0.68519 0.0
N516 N 0.3715 0.02855 0.68397 0.0
C517 C 0.38538 0.02082 0.65544 0.0
C518 C 0.41478 0.98723 0.68597 0.0
C519 C 0.40762 1.00056 0.65602 0.0
H520 H 0.29204 0.04912 0.76048 0.0
H521 H 0.41929 0.99534 0.63334 0.0
H522 H 0.41983 0.96238 0.74737 0.0
H523 H 0.29544 0.0212 0.81439 0.0
H524 H 0.37998 0.03077 0.63211 0.0
H525 H 0.36761 0.22894 0.77336 0.0
H526 H 0.43202 0.97154 0.68635 0.0
H527 H 0.367 0.18334 0.57894 0.0
H528 H 0.3894 0.19102 0.73911 0.0
H529 H 0.32974 0.21215 0.55171 0.0
H530 H 0.38595 0.96924 0.79662 0.0
H531 H 0.33408 0.2638 0.7484 0.0
H532 H 0.30736 0.2804 0.69829 0.0
H533 H 0.33907 0.99057 0.82173 0.0
H534 H 0.29542 0.27425 0.63864 0.0
N535 N 0.36833 0.20264 0.69383 0.0
C536 C 0.37474 0.20531 0.72715 0.0
C537 C 0.34367 0.24694 0.73286 0.0
C538 C 0.33715 0.24441 0.69888 0.0
C539 C 0.36245 0.22721 0.74703 0.0
C540 C 0.35005 0.22187 0.67964 0.0
H541 H 0.30243 0.24798 0.58427 0.0
N542 N 0.35545 0.19617 0.62786 0.0
C543 C 0.33246 0.21334 0.57828 0.0
C544 C 0.34292 0.21805 0.64594 0.0
C545 C 0.35246 0.19569 0.59415 0.0
C546 C 0.31744 0.23384 0.5967 0.0
C547 C 0.32336 0.23725 0.63078 0.0
O548 O 0.43664 0.2152 0.62238 0.0
O549 O 0.39672 0.11543 0.66827 0.0
O550 O 0.37517 0.09637 0.72785 0.0
O551 O 0.41854 0.16184 0.70716 0.0
O552 O 0.42767 0.148 0.6271 0.0
O553 O 0.44556 0.22671 0.67448 0.0
O554 O 0.26866 0.03241 0.68871 0.0
O555 O 0.33159 0.11909 0.66958 0.0
O556 O 0.35564 0.12951 0.61276 0.0
O557 O 0.3405 0.06498 0.63003 0.0
O558 O 0.30069 0.09014 0.7121 0.0
O559 O 0.29742 1.00519 0.66135 0.0
C560 C 0.42097 0.11757 0.64564 0.0
C561 C 0.46693 0.28458 0.63978 0.0
C562 C 0.5105 0.3586 0.6464 0.0
C563 C 0.50377 0.31859 0.65069 0.0
C564 C 0.4801 0.36401 0.63175 0.0
C565 C 0.43849 0.29181 0.62358 0.0
C566 C 0.44458 0.33089 0.6202 0.0
C567 C 0.40692 0.13295 0.73049 0.0
C568 C 0.45778 0.24182 0.6451 0.0
C569 C 0.31065 0.2596 0.64989 0.0
C570 C 0.31757 0.26322 0.68383 0.0
C571 C 0.30825 0.11899 0.69173 0.0
C572 C 0.2344 0.96106 0.68778 0.0
C573 C 0.19216 0.94617 0.68572 0.0
C574 C 0.16433 0.9097 0.70167 0.0
C575 C 0.17956 0.88811 0.71911 0.0
C576 C 0.24864 0.93898 0.70553 0.0
C577 C 0.2213 0.90263 0.72092 0.0
C578 C 0.34168 0.09016 0.60714 0.0
C579 C 0.26325 1.00053 0.67274 0.0
H580 H 0.52693 0.31404 0.66218 0.0
H581 H 0.48457 0.39422 0.62806 0.0
H582 H 0.41162 0.26743 0.61295 0.0
H583 H 0.4219 0.33556 0.60799 0.0
H584 H 0.1811 0.96351 0.67248 0.0
H585 H 0.15912 0.85974 0.73126 0.0
H586 H 0.28088 0.94992 0.70768 0.0
H587 H 0.23251 0.88572 0.7345 0.0
Eu588 Eu 0.88232 0.22566 0.65609 0.0
C589 C 0.04801 0.34943 0.72264 0.0
C590 C 0.06981 0.41142 0.6917 0.0
C591 C 0.09111 0.41486 0.74864 0.0
C592 C 0.04778 0.36867 0.69377 0.0
C593 C 0.07012 0.37228 0.75027 0.0
C594 C 0.09093 0.43439 0.71942 0.0
C595 C 0.05067 0.30926 0.77859 0.0
N596 N 0.02699 0.30825 0.72358 0.0
C597 C 0.02916 0.28792 0.7506 0.0
C598 C 0.07089 0.35163 0.77857 0.0
Eu599 Eu 0.99074 0.27427 0.67536 0.0
N600 N 0.02724 0.3456 0.66736 0.0
C601 C 0.02981 0.36337 0.63754 0.0
C602 C 0.07067 0.42981 0.66162 0.0
C603 C 0.05096 0.40563 0.63433 0.0
H604 H 1.01371 0.25518 0.75086 0.0
H605 H 0.05211 0.4195 0.61076 0.0
H606 H 0.10778 0.46726 0.71834 0.0
H607 H 0.05166 0.29302 0.80016 0.0
H608 H 1.01508 0.34522 0.61613 0.0
H609 H 0.83908 0.14779 0.77615 0.0
H610 H 0.08717 0.46255 0.65903 0.0
H611 H 0.856 0.18548 0.57941 0.0
H612 H 0.87533 0.20555 0.73956 0.0
H613 H 0.81591 0.11853 0.55359 0.0
H614 H 0.10802 0.43294 0.76968 0.0
H615 H 0.79573 0.07916 0.75334 0.0
H616 H 0.76826 0.03419 0.70424 0.0
H617 H 0.08752 0.36809 0.80029 0.0
H618 H 0.76325 0.02604 0.64417 0.0
N619 N 0.85237 0.17153 0.69508 0.0
C620 C 0.85617 0.17653 0.72854 0.0
C621 C 0.81127 0.10478 0.73679 0.0
C622 C 0.80769 0.09947 0.70265 0.0
C623 C 0.8357 0.14344 0.74974 0.0
C624 C 0.82868 0.13382 0.68204 0.0
H625 H 0.78108 0.05698 0.58813 0.0
N626 N 0.84731 0.16227 0.62844 0.0
C627 C 0.81906 0.12094 0.58012 0.0
C628 C 0.82626 0.1291 0.64796 0.0
C629 C 0.84238 0.15884 0.59495 0.0
C630 C 0.79927 0.08634 0.5997 0.0
C631 C 0.80222 0.09011 0.63399 0.0
O632 O 0.84622 0.24392 0.62668 0.0
O633 O 0.9386 0.28544 0.66307 0.0
O634 O 0.96487 0.28871 0.71933 0.0
O635 O 0.8959 0.26208 0.70623 0.0
O636 O 0.90415 0.27836 0.62133 0.0
O637 O 0.82086 0.21176 0.67191 0.0
O638 O 0.02462 0.24195 0.68107 0.0
O639 O 0.93391 0.21536 0.66505 0.0
O640 O 0.91645 0.21841 0.61139 0.0
O641 O 0.98195 0.27202 0.62045 0.0
O642 O 0.96742 0.21635 0.70551 0.0
O643 O 0.04414 0.28969 0.64495 0.0
C644 C 0.93447 0.30442 0.6388 0.0
C645 C 0.77469 0.19981 0.62696 0.0
C646 C 0.69976 0.16268 0.62381 0.0
C647 C 0.73621 0.18584 0.64207 0.0
C648 C 0.70278 0.15394 0.59056 0.0
C649 C 0.77585 0.19101 0.59343 0.0
C650 C 0.74035 0.1679 0.57567 0.0
C651 C 0.9283 0.28255 0.72616 0.0
C652 C 0.81374 0.22567 0.64485 0.0
C653 C 0.78154 0.05612 0.65452 0.0
C654 C 0.78427 0.06079 0.68872 0.0
C655 C 0.93624 0.19381 0.68758 0.0
C656 C 0.09479 0.27914 0.67014 0.0
C657 C 0.11097 0.25281 0.66981 0.0
C658 C 0.15083 0.26612 0.68114 0.0
C659 C 0.17423 0.30636 0.69242 0.0
C660 C 0.11882 0.31902 0.68161 0.0
C661 C 0.15831 0.33248 0.69259 0.0
C662 C 0.95409 0.24415 0.60119 0.0
C663 C 0.05238 0.26413 0.65971 0.0
H664 H 0.73471 0.19316 0.66763 0.0
H665 H 0.67594 0.13735 0.57544 0.0
H666 H 0.80431 0.20267 0.58042 0.0
H667 H 0.74198 0.16151 0.5499 0.0
H668 H 0.09222 0.22181 0.6614 0.0
H669 H 0.20511 0.31785 0.70083 0.0
H670 H 0.10707 0.33974 0.68218 0.0
H671 H 0.17668 0.36334 0.70133 0.0
Eu672 Eu 0.83611 0.67037 0.66282 0.0
C673 C 0.7052 0.69422 0.73265 0.0
C674 C 0.64382 0.64398 0.70551 0.0
C675 C 0.64145 0.6612 0.76284 0.0
C676 C 0.68603 0.67135 0.70508 0.0
C677 C 0.68293 0.69035 0.76153 0.0
C678 C 0.6219 0.63805 0.73484 0.0
C679 C 0.74319 0.74737 0.78425 0.0
N680 N 0.74525 0.72219 0.73049 0.0
C681 C 0.76399 0.74999 0.7551 0.0
C682 C 0.70269 0.71693 0.78774 0.0
Eu683 Eu 0.77918 0.72249 0.68132 0.0
N684 N 0.70805 0.67823 0.67709 0.0
C685 C 0.68897 0.66206 0.64788 0.0
C686 C 0.62466 0.62473 0.67612 0.0
C687 C 0.64721 0.63451 0.64703 0.0
H688 H 0.79525 0.77366 0.75255 0.0
H689 H 0.6325 0.62078 0.62395 0.0
H690 H 0.58958 0.61671 0.73579 0.0
H691 H 0.75841 0.76881 0.804 0.0
H692 H 0.70597 0.66938 0.62521 0.0
H693 H 0.9045 0.6902 0.78616 0.0
H694 H 0.5923 0.60348 0.67538 0.0
H695 H 0.88508 0.70098 0.5888 0.0
H696 H 0.84974 0.66536 0.74664 0.0
H697 H 0.95385 0.74242 0.56772 0.0
H698 H 0.62394 0.65731 0.78498 0.0
H699 H 0.97556 0.73113 0.76782 0.0
H700 H 0.02487 0.76282 0.72194 0.0
H701 H 0.68661 0.71508 0.8103 0.0
H702 H 0.0382 0.77775 0.66303 0.0
N703 N 0.88732 0.69517 0.70487 0.0
C704 C 0.87966 0.68495 0.73751 0.0
C705 C 0.9512 0.72115 0.74998 0.0
C706 C 0.95938 0.73019 0.71658 0.0
C707 C 0.91117 0.69832 0.76043 0.0
C708 C 0.9265 0.71675 0.69424 0.0
H709 H 1.01213 0.77157 0.60588 0.0
N710 N 0.90215 0.71201 0.63974 0.0
C711 C 0.94875 0.73872 0.59404 0.0
C712 C 0.93407 0.72572 0.66097 0.0
C713 C 0.90933 0.71631 0.60642 0.0
C714 C 0.98154 0.7548 0.61561 0.0
C715 C 0.97461 0.74751 0.64936 0.0
O716 O 0.84308 0.62905 0.62921 0.0
O717 O 0.77355 0.66102 0.66932 0.0
O718 O 0.77925 0.69267 0.72848 0.0
O719 O 0.7959 0.64421 0.71077 0.0
O720 O 0.78344 0.63311 0.62926 0.0
O721 O 0.84094 0.61848 0.68137 0.0
O722 O 0.81059 0.78906 0.67809 0.0
O723 O 0.84086 0.73034 0.67106 0.0
O724 O 0.83403 0.7045 0.61608 0.0
O725 O 0.77954 0.71467 0.62657 0.0
O726 O 0.83606 0.76168 0.71111 0.0
O727 O 0.7513 0.75403 0.65687 0.0
C728 C 0.75592 0.63613 0.64571 0.0
C729 C 0.88188 0.59988 0.64942 0.0
C730 C 0.91164 0.55543 0.65344 0.0
C731 C 0.87749 0.56113 0.65555 0.0
C732 C 0.94975 0.5887 0.6456 0.0
C733 C 0.92017 0.63157 0.63995 0.0
C734 C 0.95384 0.62633 0.63864 0.0
C735 C 0.78118 0.65949 0.73332 0.0
C736 C 0.84706 0.60755 0.65245 0.0
C737 C 1.00705 0.76082 0.67156 0.0
C738 C 0.99946 0.75224 0.70507 0.0
C739 C 0.86062 0.75506 0.69386 0.0
C740 C 0.76876 0.8185 0.67968 0.0
C741 C 0.7941 0.86099 0.67635 0.0
C742 C 0.78431 0.88803 0.69237 0.0
C743 C 0.74849 0.87182 0.71121 0.0
C744 C 0.73325 0.80337 0.69868 0.0
C745 C 0.72322 0.82991 0.7142 0.0
C746 C 0.80702 0.71505 0.60665 0.0
C747 C 0.78036 0.79029 0.6645 0.0
H748 H 0.84796 0.53574 0.66177 0.0
H749 H 0.97627 0.58517 0.64355 0.0
H750 H 0.92428 0.66038 0.63287 0.0
H751 H 0.98313 0.65145 0.63158 0.0
H752 H 0.82181 0.87289 0.66205 0.0
H753 H 0.73983 0.89165 0.72351 0.0
H754 H 0.71332 0.771 0.70173 0.0
H755 H 0.69578 0.81793 0.7288 0.0
H756 H 0.32894 0.51783 0.95424 0.0
H757 H 0.10865 0.43407 0.03409 0.0
H758 H 0.29261 0.44353 0.04158 0.0
H759 H 0.13578 0.46681 0.93185 0.0
H760 H 0.17674 0.44251 0.04106 0.0
H761 H 0.26049 0.50904 0.95062 0.0
C762 C 0.30691 0.50074 0.97322 0.0
C763 C 0.31653 0.48171 0.99838 0.0
C764 C 0.16758 0.44751 0.01705 0.0
C765 C 0.2378 0.47047 0.99398 0.0
C766 C 0.12856 0.44232 0.01302 0.0
C767 C 0.11642 0.44993 0.98242 0.0
C768 C 0.19495 0.46129 0.99042 0.0
C769 C 0.14378 0.46074 0.95596 0.0
C770 C 0.26764 0.49509 0.97086 0.0
C771 C 0.28644 0.45897 0.02192 0.0
N772 N 0.18179 0.46667 0.96066 0.0
N773 N 0.24842 0.45387 0.01913 0.0
H774 H 0.52092 0.81266 0.94751 0.0
H775 H 0.62174 0.68752 0.02093 0.0
H776 H 0.61186 0.86117 0.02374 0.0
H777 H 0.56325 0.66344 0.9264 0.0
H778 H 0.61449 0.74802 0.02637 0.0
H779 H 0.52851 0.75218 0.9449 0.0
C780 C 0.54158 0.81 0.96437 0.0
C781 C 0.56549 0.84177 0.98607 0.0
C782 C 0.6035 0.72964 1.00432 0.0
C783 C 0.57523 0.7732 0.98269 0.0
C784 C 0.60798 0.69529 1.00121 0.0
C785 C 0.5931 0.67024 0.97338 0.0
C786 C 0.58317 0.73858 0.97959 0.0
C787 C 0.57522 0.68177 0.94839 0.0
C788 C 0.54645 0.77582 0.96251 0.0
C789 C 0.59262 0.83718 1.00682 0.0
N790 N 0.57032 0.71465 0.95224 0.0
N791 N 0.59683 0.80368 1.00459 0.0
H792 H 0.38014 0.92137 0.02908 0.0
H793 H 0.2156 0.74349 0.91516 0.0
H794 H 0.36669 0.93456 0.92556 0.0
H795 H 0.2157 0.73293 0.0208 0.0
H796 H 0.27328 0.81243 0.91894 0.0
H797 H 0.3204 0.85357 0.02778 0.0
C798 C 0.36341 0.91094 1.00648 0.0
C799 C 0.37744 0.93473 0.97787 0.0
C800 C 0.26111 0.7951 0.94137 0.0
C801 C 0.31054 0.85519 0.97524 0.0
C802 C 0.22844 0.7555 0.93918 0.0
C803 C 0.21104 0.73225 0.96769 0.0
C804 C 0.27679 0.81209 0.97237 0.0
C805 C 0.22858 0.74955 0.99819 0.0
C806 C 0.32982 0.87156 1.00545 0.0
C807 C 0.35637 0.91776 0.94842 0.0
N808 N 0.26037 0.78851 0.99976 0.0
N809 N 0.32423 0.87914 0.94784 0.0
H810 H 0.48735 0.28083 0.08508 0.0
H811 H 0.59245 0.47783 0.97117 0.0
H812 H 0.50248 0.27421 0.98041 0.0
H813 H 0.59582 0.48198 0.07719 0.0
H814 H 0.56479 0.40401 0.97355 0.0
H815 H 0.53026 0.35453 0.08248 0.0
C816 C 0.49991 0.29489 0.06152 0.0
C817 C 0.49099 0.27119 0.03287 0.0
C818 C 0.57189 0.42105 0.99631 0.0
C819 C 0.54057 0.35611 0.02969 0.0
C820 C 0.5874 0.46311 0.99495 0.0
C821 C 0.59445 0.48553 0.0241 0.0
C822 C 0.56334 0.40138 0.02706 0.0
C823 C 0.58931 0.46546 0.0542 0.0
C824 C 0.52471 0.33705 0.06008 0.0
C825 C 0.50864 0.2912 1.00312 0.0
N826 N 0.57321 0.42444 0.05494 0.0
N827 N 0.53214 0.3325 1.00222 0.0
H828 H 0.57175 0.10762 0.08695 0.0
H829 H 0.7801 0.23439 0.98614 0.0
H830 H 0.57583 0.1235 0.98172 0.0
H831 H 0.77357 0.20726 0.08989 0.0
H832 H 0.70564 0.20078 0.98452 0.0
H833 H 0.64562 0.15192 0.08922 0.0
C834 C 0.58833 0.1206 0.06433 0.0
C835 C 0.56811 0.11043 0.03396 0.0
C836 C 0.72055 0.20249 0.00768 0.0
C837 C 0.65255 0.16188 0.03627 0.0
C838 C 0.76309 0.22181 0.00865 0.0
C839 C 0.78325 0.22349 0.03816 0.0
C840 C 0.69792 0.18505 0.03651 0.0
C841 C 0.75945 0.20623 0.06647 0.0
C842 C 0.63048 0.14591 0.06558 0.0
C843 C 0.59066 0.12927 1.00548 0.0
N844 N 0.71825 0.18776 0.06492 0.0
N845 N 0.63178 0.15367 1.00724 0.0
H846 H 0.93066 0.45859 0.97162 0.0
H847 H 0.80717 0.54641 0.96645 0.0
H848 H 0.93859 0.48114 0.07605 0.0
H849 H 0.86108 0.59705 0.06073 0.0
H850 H 0.83631 0.50197 0.96922 0.0
H851 H 0.88699 0.48838 0.96611 0.0
C852 C 0.92286 0.46966 0.99344 0.0
C853 C 0.93952 0.4691 0.02412 0.0
C854 C 0.84224 0.52302 0.98919 0.0
C855 C 0.88832 0.50214 0.01842 0.0
C856 C 0.82509 0.54815 0.98779 0.0
C857 C 0.83201 0.57598 0.0132 0.0
C858 C 0.86662 0.52565 0.01625 0.0
C859 C 0.85557 0.57677 0.04021 0.0
C860 C 0.89737 0.48622 0.99042 0.0
C861 C 0.92728 0.48226 0.05181 0.0
N862 N 0.87198 0.55211 0.04097 0.0
N863 N 0.90318 0.49908 0.04822 0.0
H864 H 0.79053 0.78312 0.36757 0.0
H865 H 0.95983 0.76171 0.27016 0.0
H866 H 0.78865 0.77308 0.26203 0.0
H867 H 0.99832 0.8652 0.33414 0.0
H868 H 0.88912 0.74237 0.28059 0.0
H869 H 0.85897 0.79037 0.36822 0.0
C870 C 0.80416 0.78164 0.34471 0.0
C871 C 0.78415 0.77808 0.31473 0.0
C872 C 0.91307 0.76886 0.29282 0.0
C873 C 0.86144 0.78505 0.31522 0.0
C874 C 0.95357 0.78016 0.28683 0.0
C875 C 0.98555 0.81601 0.30048 0.0
C876 C 0.90388 0.79266 0.31348 0.0
C877 C 0.97497 0.83757 0.32284 0.0
C878 C 0.84315 0.78592 0.34505 0.0
C879 C 0.80297 0.7758 0.28569 0.0
N880 N 0.93503 0.82582 0.32838 0.0
N881 N 0.84037 0.77918 0.28665 0.0
H882 H 0.28049 0.19982 0.36497 0.0
H883 H 0.2558 1.01194 0.26108 0.0
H884 H 0.20028 0.1504 0.28166 0.0
H885 H 0.28298 0.01935 0.36474 0.0
H886 H 0.24738 0.07123 0.26619 0.0
H887 H 0.28959 0.13998 0.36495 0.0
C888 C 0.26387 0.17575 0.34731 0.0
C889 C 0.23895 0.17963 0.32365 0.0
C890 C 0.25538 0.06009 0.28787 0.0
C891 C 0.25091 0.11239 0.32241 0.0
C892 C 0.2607 0.02649 0.28492 0.0
C893 C 0.26943 1.01009 0.31269 0.0
C894 C 0.25944 0.07827 0.31874 0.0
C895 C 0.27571 0.03059 0.34284 0.0
C896 C 0.2694 0.14189 0.34712 0.0
C897 C 0.21904 0.1482 0.30072 0.0
N898 N 0.27046 0.0636 0.34515 0.0
N899 N 0.22591 0.11628 0.30037 0.0
H900 H 0.03412 0.27144 0.36348 0.0
H901 H 0.90915 0.04894 0.28592 0.0
H902 H 0.04689 0.24287 0.26301 0.0
H903 H 0.85607 0.08741 0.36146 0.0
H904 H 0.96874 0.11749 0.2852 0.0
H905 H 0.97477 0.20286 0.36954 0.0
C906 C 1.02416 0.25111 0.34259 0.0
C907 C 0.04565 0.26305 0.3127 0.0
C908 C 0.94433 0.11076 0.30233 0.0
C909 C 0.97903 0.18411 0.31986 0.0
C910 C 0.91067 0.07146 0.30311 0.0
C911 C 0.87784 0.0624 0.32397 0.0
C912 C 0.94544 0.1412 0.3228 0.0
C913 C 0.88097 0.09314 0.3452 0.0
C914 C 0.99049 0.21186 0.34614 0.0
C915 C 0.03138 0.23509 0.28654 0.0
N916 N 0.91408 0.1312 0.34405 0.0
N917 N 0.99951 0.19696 0.29085 0.0
H918 H 0.242 0.8002 0.40781 0.0
H919 H 0.17367 0.59394 0.3806 0.0
H920 H 0.23319 0.80606 0.30236 0.0
H921 H 0.09954 0.60732 0.30683 0.0
H922 H 0.2147 0.66831 0.38468 0.0
H923 H 0.20922 0.72602 0.40413 0.0
C924 C 0.23315 0.7858 0.38386 0.0
C925 C 0.23894 0.80913 0.35547 0.0
C926 C 0.18945 0.6549 0.36761 0.0
C927 C 0.20213 0.72438 0.35097 0.0
C928 C 0.1663 0.61255 0.36506 0.0
C929 C 0.13301 0.59447 0.34352 0.0
C930 C 0.17967 0.67938 0.34805 0.0
C931 C 0.12473 0.62005 0.32398 0.0
C932 C 0.21471 0.74353 0.38176 0.0
C933 C 0.22782 0.78904 0.32497 0.0
N934 N 0.14802 0.66118 0.32655 0.0
N935 N 0.20916 0.74772 0.32356 0.0
H936 H 0.23716 0.4485 0.4123 0.0
H937 H 0.44712 0.56507 0.3123 0.0
H938 H 0.24216 0.45594 0.30642 0.0
H939 H 0.43794 0.5455 0.41735 0.0
H940 H 0.37271 0.53303 0.30941 0.0
H941 H 0.31084 0.49294 0.41452 0.0
C942 C 0.25394 0.45961 0.38949 0.0
C943 C 0.23402 0.44689 0.35911 0.0
C944 C 0.38707 0.53615 0.33311 0.0
C945 C 0.31841 0.49858 0.3613 0.0
C946 C 0.42954 0.55454 0.33479 0.0
C947 C 0.44886 0.55773 0.36509 0.0
C948 C 0.36376 0.52124 0.362 0.0
C949 C 0.42443 0.5432 0.39339 0.0
C950 C 0.29601 0.48505 0.39072 0.0
C951 C 0.25681 0.46357 0.3303 0.0
N952 N 0.38337 0.52558 0.39112 0.0
N953 N 0.29795 0.48808 0.33204 0.0
H954 H 0.48111 0.88377 0.31276 0.0
H955 H 0.60999 0.80575 0.41561 0.0
H956 H 0.50999 0.90737 0.41602 0.0
H957 H 0.5966 0.7939 0.31021 0.0
H958 H 0.56565 0.83528 0.41666 0.0
H959 H 0.51634 0.84422 0.31156 0.0
C960 C 0.49441 0.88025 0.33524 0.0
C961 C 0.49275 0.89918 0.36449 0.0
C962 C 0.57227 0.82626 0.39322 0.0
C963 C 0.53296 0.85383 0.36334 0.0
C964 C 0.59765 0.80946 0.39265 0.0
C965 C 0.60846 0.79925 0.36265 0.0
C966 C 0.55677 0.83219 0.36356 0.0
C967 C 0.59033 0.80307 0.33372 0.0
C968 C 0.51466 0.85782 0.33451 0.0
C969 C 0.5109 0.89384 0.3928 0.0
N970 N 0.56575 0.81972 0.33481 0.0
N971 N 0.53017 0.87183 0.39149 0.0
H972 H 0.6743 0.20419 0.66459 0.0
H973 H 0.44801 0.07873 0.60546 0.0
H974 H 0.62957 0.09007 0.61371 0.0
H975 H 0.47814 0.14938 0.69442 0.0
H976 H 0.51478 0.08348 0.60707 0.0
H977 H 0.60371 0.18612 0.67633 0.0
C978 C 0.64985 0.17503 0.65648 0.0
C979 C 0.65817 0.14908 0.63752 0.0
C980 C 0.5063 0.09687 0.62687 0.0
C981 C 0.57722 0.12873 0.65008 0.0
C982 C 0.46799 0.09376 0.62613 0.0
C983 C 0.4563 0.1115 0.65096 0.0
C984 C 0.53427 0.11992 0.65165 0.0
C985 C 0.48466 0.13304 0.67595 0.0
C986 C 0.6095 0.16484 0.66301 0.0
C987 C 0.62486 0.11171 0.62756 0.0
N988 N 0.52242 0.13712 0.67544 0.0
N989 N 0.58608 0.1031 0.63334 0.0
H990 H 0.96374 0.35941 0.69008 0.0
H991 H 0.8662 0.48723 0.61663 0.0
H992 H 0.91426 0.34292 0.59247 0.0
H993 H 0.95341 0.53337 0.6957 0.0
H994 H 0.87495 0.42752 0.61313 0.0
H995 H 0.95564 0.41936 0.69695 0.0
C996 C 0.95175 0.36874 0.67008 0.0
C997 C 0.93936 0.3458 0.64104 0.0
C998 C 0.89181 0.45046 0.63155 0.0
C999 C 0.92864 0.41346 0.64861 0.0
C1000 C 0.88626 0.48416 0.6339 0.0
C1001 C 0.90883 0.51507 0.65666 0.0
C1002 C 0.91989 0.44743 0.6523 0.0
C1003 C 0.93523 0.51003 0.67795 0.0
C1004 C 0.94682 0.40274 0.67394 0.0
C1005 C 0.92406 0.35942 0.61549 0.0
N1006 N 0.94012 0.47697 0.67524 0.0
N1007 N 0.91859 0.39183 0.62004 0.0
H1008 H 0.71677 0.584 0.59608 0.0
H1009 H 0.52633 0.41553 0.69424 0.0
H1010 H 0.70341 0.60154 0.69919 0.0
H1011 H 0.58187 0.38847 0.61311 0.0
H1012 H 0.58498 0.48508 0.69614 0.0
H1013 H 0.65914 0.51513 0.59982 0.0
C1014 C 0.70122 0.57357 0.61948 0.0
C1015 C 0.71528 0.59862 0.64743 0.0
C1016 C 0.58471 0.46364 0.67842 0.0
C1017 C 0.64907 0.51904 0.65199 0.0
C1018 C 0.55153 0.42388 0.67756 0.0
C1019 C 0.54972 0.39591 0.65396 0.0
C1020 C 0.61564 0.4759 0.65478 0.0
C1021 C 0.58249 0.40871 0.63216 0.0
C1022 C 0.66858 0.53401 0.62167 0.0
C1023 C 0.6938 0.58328 0.67709 0.0
N1024 N 0.6137 0.44781 0.63279 0.0
N1025 N 0.66173 0.54443 0.67863 0.0
H1026 H 0.81999 0.93591 0.63757 0.0
H1027 H 0.9197 0.14442 0.7405 0.0
H1028 H 0.80952 0.94294 0.74282 0.0
H1029 H 0.91159 0.1414 0.63461 0.0
H1030 H 0.88626 0.07024 0.74125 0.0
H1031 H 0.85979 1.01058 0.63536 0.0
C1032 C 0.82645 0.9531 0.66023 0.0
C1033 C 0.81121 0.93307 0.69041 0.0
C1034 C 0.89167 0.08565 0.71778 0.0
C1035 C 0.85677 0.01844 0.6881 0.0
C1036 C 0.91079 0.12801 0.71738 0.0
C1037 C 0.91695 0.14888 0.68757 0.0
C1038 C 0.8794 0.06382 0.68803 0.0
C1039 C 0.90601 0.12628 0.65822 0.0
C1040 C 0.84893 0.9957 0.65893 0.0
C1041 C 0.82022 0.95699 0.71896 0.0
N1042 N 0.88746 0.08491 0.65917 0.0
N1043 N 0.8423 0.99818 0.71709 0.0
H1044 H 0.91118 0.79453 0.64152 0.0
H1045 H 0.11067 0.87952 0.75301 0.0
H1046 H 0.90973 0.78441 0.74722 0.0
H1047 H 0.11574 0.90382 0.64882 0.0
H1048 H 0.03697 0.84865 0.75126 0.0
H1049 H 0.98531 0.83988 0.64346 0.0
C1050 C 0.92658 0.80187 0.66511 0.0
C1051 C 0.90483 0.78419 0.69416 0.0
C1052 C 0.05408 0.86106 0.72877 0.0
C1053 C 0.98919 0.83635 0.69669 0.0
C1054 C 0.09627 0.8785 0.72971 0.0
C1055 C 0.11957 0.89403 0.70096 0.0
C1056 C 0.03453 0.85865 0.69876 0.0
C1057 C 0.09908 0.89237 0.67162 0.0
C1058 C 0.96878 0.82798 0.66626 0.0
C1059 C 0.92572 0.79624 0.7242 0.0
N1060 N 0.05773 0.87458 0.67119 0.0
N1061 N 0.96676 0.82083 0.72465 0.0
H1062 H 0.27272 0.127 0.63546 0.0
H1063 H 0.1451 0.21142 0.63378 0.0
H1064 H 0.27762 0.14483 0.74048 0.0
H1065 H 0.19642 0.25766 0.72961 0.0
H1066 H 0.17722 0.1694 0.63417 0.0
H1067 H 0.2292 0.15724 0.63057 0.0
C1068 C 0.26439 0.1372 0.65751 0.0
C1069 C 0.28004 0.13504 0.68827 0.0
C1070 C 0.1819 0.18898 0.655 0.0
C1071 C 0.22894 0.16841 0.68324 0.0
C1072 C 0.16303 0.21266 0.65495 0.0
C1073 C 0.16835 0.23855 0.68153 0.0
C1074 C 0.20624 0.19104 0.68193 0.0
C1075 C 0.19204 0.23884 0.70827 0.0
C1076 C 0.23901 0.15401 0.65482 0.0
C1077 C 0.26712 0.14714 0.7162 0.0
N1078 N 0.21 0.21557 0.70775 0.0
N1079 N 0.24304 0.16403 0.71296 0.0
H1080 H 0.19698 0.42879 0.22545 0.0
H1081 H 0.03796 0.46702 0.12521 0.0
H1082 H 0.06709 0.36511 0.23892 0.0
H1083 H 0.14571 0.48516 0.07531 0.0
H1084 H 0.0595 0.44651 0.17456 0.0
H1085 H 0.18791 0.46065 0.17509 0.0
C1086 C 0.16666 0.42088 0.2176 0.0
C1087 C 0.13278 0.39446 0.2368 0.0
C1088 C 0.07903 0.45572 0.15309 0.0
C1089 C 0.12245 0.43173 0.18032 0.0
C1090 C 0.06713 0.46834 0.12508 0.0
C1091 C 0.08997 0.47788 0.09599 0.0
C1092 C 0.11423 0.45239 0.15239 0.0
C1093 C 0.12709 0.47798 0.09715 0.0
C1094 C 0.16156 0.43938 0.18911 0.0
C1095 C 0.09426 0.38572 0.22551 0.0
N1096 N 0.13788 0.46476 0.12475 0.0
N1097 N 0.0903 0.40452 0.19855 0.0
H1098 H 0.68933 0.79641 0.21352 0.0
H1099 H 0.5428 0.59018 0.11413 0.0
H1100 H 0.60605 0.68323 0.26069 0.0
H1101 H 0.64604 0.69524 0.07224 0.0
H1102 H 0.55517 0.62793 0.1663 0.0
H1103 H 0.66361 0.76384 0.15965 0.0
C1104 C 0.66529 0.76501 0.21261 0.0
C1105 C 0.65029 0.74249 0.2417 0.0
C1106 C 0.57456 0.64283 0.14533 0.0
C1107 C 0.62052 0.70488 0.18021 0.0
C1108 C 0.56724 0.62134 0.11544 0.0
C1109 C 0.59336 0.63932 0.08851 0.0
C1110 C 0.60789 0.68268 0.14807 0.0
C1111 C 0.62492 0.67986 0.09204 0.0
C1112 C 0.65068 0.74629 0.18186 0.0
C1113 C 0.6191 0.70167 0.23891 0.0
N1114 N 0.63137 0.69989 0.12106 0.0
N1115 N 0.60547 0.68421 0.20888 0.0
H1116 H 0.35714 0.94742 0.07032 0.0
H1117 H 0.35829 0.91302 0.26369 0.0
H1118 H 0.46236 0.96259 0.12276 0.0
H1119 H 0.25252 0.89576 0.21071 0.0
H1120 H 0.3937 0.92188 0.21163 0.0
H1121 H 0.31622 0.91923 0.11957 0.0
C1122 C 0.37143 0.94339 0.09192 0.0
C1123 C 0.41325 0.95652 0.09192 0.0
C1124 C 0.36261 0.91565 0.21119 0.0
C1125 C 0.36632 0.92547 0.14956 0.0
C1126 C 0.34223 0.91056 0.24099 0.0
C1127 C 0.30233 0.90392 0.2417 0.0
C1128 C 0.34331 0.91455 0.18146 0.0
C1129 C 0.2831 0.90062 0.21143 0.0
C1130 C 0.34796 0.92763 0.12029 0.0
C1131 C 0.43016 0.95193 0.1212 0.0
N1132 N 0.30395 0.90652 0.18257 0.0
N1133 N 0.40674 0.93718 0.1489 0.0
H1134 H 0.49234 0.03492 0.88066 0.0
H1135 H 0.42194 0.17683 0.78799 0.0
H1136 H 0.46282 0.11753 0.92968 0.0
H1137 H 0.44773 0.09247 0.73777 0.0
H1138 H 0.44773 0.1635 0.83929 0.0
H1139 H 0.48624 0.06251 0.82725 0.0
C1140 C 0.48533 0.05926 0.88025 0.0
C1141 C 0.47761 0.07353 0.9097 0.0
C1142 C 0.44879 0.14869 0.81684 0.0
C1143 C 0.47052 0.10527 0.84887 0.0
C1144 C 0.43465 0.1569 0.78744 0.0
C1145 C 0.43377 0.13666 0.75836 0.0
C1146 C 0.46152 0.11955 0.81724 0.0
C1147 C 0.44896 0.10962 0.75945 0.0
C1148 C 0.48164 0.07492 0.84978 0.0
C1149 C 0.46838 0.10505 0.90762 0.0
N1150 N 0.46176 0.10155 0.78832 0.0
N1151 N 0.46485 0.11955 0.87794 0.0
H1152 H 1.02 0.46295 0.88027 0.0
H1153 H 0.87453 0.25753 0.77947 0.0
H1154 H 0.93668 0.35006 0.92784 0.0
H1155 H 0.98289 0.36033 0.74119 0.0
H1156 H 0.88565 0.29502 0.83189 0.0
H1157 H 0.99523 0.42986 0.82658 0.0
C1158 C 0.99612 0.43148 0.87949 0.0
C1159 C 0.98083 0.40927 0.90868 0.0
C1160 C 0.90635 0.30951 0.81154 0.0
C1161 C 0.95217 0.37098 0.84725 0.0
C1162 C 0.89974 0.28825 0.78155 0.0
C1163 C 0.92742 0.30583 0.75548 0.0
C1164 C 0.94052 0.34871 0.81514 0.0
C1165 C 0.9602 0.34552 0.76004 0.0
C1166 C 0.98206 0.41245 0.84883 0.0
C1167 C 0.94992 0.3683 0.90599 0.0
N1168 N 0.9658 0.36536 0.78901 0.0
N1169 N 0.9368 0.35048 0.87596 0.0
H1170 H 0.72931 0.57666 0.74447 0.0
H1171 H 0.62894 0.63359 0.8902 0.0
H1172 H 0.78443 0.6934 0.79232 0.0
H1173 H 0.62634 0.51947 0.8994 0.0
H1174 H 0.67044 0.64848 0.84059 0.0
H1175 H 0.68044 0.54803 0.7908 0.0
C1176 C 0.73196 0.59598 0.76502 0.0
C1177 C 0.76083 0.63768 0.76428 0.0
C1178 C 0.65994 0.61966 0.85291 0.0
C1179 C 0.70433 0.60565 0.81623 0.0
C1180 C 0.63568 0.61085 0.88092 0.0
C1181 C 0.62356 0.57495 0.89864 0.0
C1182 C 0.6725 0.5925 0.8423 0.0
C1183 C 0.6343 0.54708 0.88599 0.0
C1184 C 0.70378 0.57973 0.7912 0.0
C1185 C 0.76248 0.66126 0.79154 0.0
N1186 N 0.65856 0.55656 0.85867 0.0
N1187 N 0.73428 0.64523 0.81584 0.0
H1188 H 0.813 0.8248 0.41321 0.0
H1189 H 0.73948 0.68081 0.56963 0.0
H1190 H 0.69588 0.77688 0.4595 0.0
H1191 H 0.86546 0.77387 0.5658 0.0
H1192 H 0.72668 0.70851 0.51995 0.0
H1193 H 0.83722 0.80419 0.46218 0.0
C1194 C 0.79273 0.81104 0.43389 0.0
C1195 C 0.75198 0.80174 0.4319 0.0
C1196 C 0.75733 0.72269 0.52956 0.0
C1197 C 0.77911 0.77742 0.48729 0.0
C1198 C 0.76475 0.70656 0.55775 0.0
C1199 C 0.80356 0.72498 0.57187 0.0
C1200 C 0.78888 0.75776 0.51496 0.0
C1201 C 0.83517 0.75849 0.55543 0.0
C1202 C 0.8065 0.79901 0.4617 0.0
C1203 C 0.72734 0.78426 0.45971 0.0
N1204 N 0.82711 0.77413 0.52785 0.0
N1205 N 0.74094 0.77198 0.48572 0.0
H1206 H 0.24631 0.90675 0.45751 0.0
H1207 H 0.30982 0.11421 0.5551 0.0
H1208 H 0.2396 1.00474 0.41051 0.0
H1209 H 0.33822 0.02176 0.58358 0.0
H1210 H 0.2773 0.07471 0.50454 0.0
H1211 H 0.26818 0.94603 0.50826 0.0
C1212 C 0.24773 0.93595 0.45833 0.0
C1213 C 0.24054 0.95213 0.42979 0.0
C1214 C 0.29086 0.06338 0.52196 0.0
C1215 C 0.26816 0.9989 0.48768 0.0
C1216 C 0.30981 0.08613 0.55064 0.0
C1217 C 0.32679 0.07141 0.57394 0.0
C1218 C 0.28865 0.02561 0.51684 0.0
C1219 C 0.3253 0.03444 0.56685 0.0
C1220 C 0.26121 0.95891 0.48716 0.0
C1221 C 0.24446 0.99091 0.43201 0.0
N1222 N 0.30653 1.01302 0.53935 0.0
N1223 N 0.25855 1.01328 0.46031 0.0
H1224 H 0.95202 0.18336 0.56162 0.0
H1225 H 0.13146 0.35338 0.45545 0.0
H1226 H 0.98881 0.31047 0.56281 0.0
H1227 H 0.05425 0.23897 0.40775 0.0
H1228 H 0.08787 0.32956 0.50393 0.0
H1229 H 0.99314 0.19519 0.51098 0.0
C1230 C 0.96758 0.21335 0.55068 0.0
C1231 C 0.96695 0.24601 0.56638 0.0
C1232 C 0.08086 0.30915 0.48321 0.0
C1233 C 1.01524 0.25997 0.51 0.0
C1234 C 0.10627 0.32245 0.45577 0.0
C1235 C 0.09682 0.29805 0.4276 0.0
C1236 C 0.04549 0.2709 0.48287 0.0
C1237 C 0.06294 0.25858 0.42911 0.0
C1238 C 0.99143 0.22017 0.52213 0.0
C1239 C 0.98853 0.28446 0.55164 0.0
N1240 N 0.0381 0.24626 0.4562 0.0
N1241 N 1.01214 0.29044 0.5248 0.0
loop_
_geom_bond_atom_site_label_1
_geom_bond_atom_site_label_2
_geom_bond_distance
_geom_bond_site_symmetry_2
_ccdc_geom_bond_type
Eu0 N31 2.657 1_556 S
Eu0 N38 2.609 . S
Eu0 O44 2.558 . S
Eu0 O45 2.612 1_556 S
Eu0 O47 2.339 1_556 S
Eu0 O48 2.563 . S
Eu0 O49 2.419 1_556 S
Eu0 O51 2.375 1_456 S
Eu0 O52 2.432 . S
Eu0 C64 2.848 . S
C1 C4 1.429 . S
C1 C5 1.411 . S
C1 N8 1.353 1_455 S
C2 C4 1.420 1_556 S
C2 C6 1.423 1_556 S
C2 C14 1.392 . S
C3 C5 1.420 . S
C3 C6 1.351 . S
C3 H26 0.931 . S
C4 C1 1.429 . S
C4 C2 1.420 1_554 S
C4 N12 1.362 1_554 S
C5 C1 1.411 . S
C5 C3 1.420 . S
C5 C10 1.395 . S
C6 C2 1.423 1_554 S
C6 C3 1.351 . S
C6 H18 0.930 . S
C7 C9 1.400 . S
C7 C10 1.386 1_655 S
C7 H19 0.930 . S
N8 C1 1.353 1_655 S
N8 C9 1.328 . S
N8 Eu11 2.630 . S
C9 C7 1.400 . S
C9 N8 1.328 . S
C9 H16 0.930 . S
C10 C5 1.395 . S
C10 C7 1.386 1_455 S
C10 H29 0.930 . S
Eu11 N8 2.630 . S
Eu11 N12 2.657 1_654 S
Eu11 O45 2.380 1_655 S
Eu11 O46 2.429 1_655 S
Eu11 O50 2.558 . S
Eu11 O51 2.619 . S
Eu11 O53 2.339 1_554 S
Eu11 O54 2.563 . S
Eu11 O55 2.419 1_554 S
Eu11 C75 2.848 . S
N12 C4 1.362 1_556 S
N12 Eu11 2.657 1_456 S
N12 C13 1.334 . S
C13 N12 1.334 . S
C13 C15 1.413 . S
C13 H20 0.929 . S
C14 C2 1.392 . S
C14 C15 1.367 . S
C14 H22 0.930 . S
C15 C13 1.413 . S
C15 C14 1.367 . S
C15 H17 0.930 . S
H16 C9 0.930 . S
H17 C15 0.930 . S
H18 C6 0.930 . S
H19 C7 0.930 . S
H20 C13 0.929 . S
H21 C35 0.930 . S
H22 C14 0.930 . S
H23 C41 0.930 . S
H24 C32 0.929 1_455 S
H25 C39 0.930 . S
H26 C3 0.931 . S
H27 C33 0.930 . S
H28 C66 0.930 . S
H29 C10 0.930 . S
H30 C65 0.931 . S
N31 Eu0 2.657 1_554 S
N31 C32 1.334 1_455 S
N31 C36 1.362 1_454 S
C32 H24 0.929 1_655 S
C32 N31 1.334 1_655 S
C32 C35 1.413 . S
C33 H27 0.930 . S
C33 C34 1.392 . S
C33 C35 1.367 . S
C34 C33 1.392 . S
C34 C36 1.420 1_554 S
C34 C66 1.423 1_554 S
C35 H21 0.930 . S
C35 C32 1.413 . S
C35 C33 1.367 . S
C36 N31 1.362 1_656 S
C36 C34 1.420 1_556 S
C36 C40 1.429 . S
H37 C42 0.930 . S
N38 Eu0 2.609 . S
N38 C40 1.377 1_455 S
N38 C41 1.321 . S
C39 H25 0.930 . S
C39 C41 1.400 . S
C39 C42 1.386 1_455 S
C40 C36 1.429 . S
C40 N38 1.377 1_655 S
C40 C43 1.411 . S
C41 H23 0.930 . S
C41 N38 1.321 . S
C41 C39 1.400 . S
C42 H37 0.930 . S
C42 C39 1.386 1_655 S
C42 C43 1.395 . S
C43 C40 1.411 . S
C43 C42 1.395 . S
C43 C65 1.420 . S
O44 Eu0 2.558 . S
O44 C64 1.257 . S
O45 Eu0 2.612 1_554 S
O45 Eu11 2.380 1_455 S
O45 C56 1.276 1_554 S
O46 Eu11 2.429 1_455 S
O46 C63 1.277 . S
O47 Eu0 2.339 1_554 S
O47 C63 1.254 . S
O48 Eu0 2.563 . S
O48 C56 1.235 . S
O49 Eu0 2.419 1_554 S
O49 C64 1.249 1_554 S
O50 Eu11 2.558 . S
O50 C75 1.257 . S
O51 Eu0 2.375 1_654 S
O51 Eu11 2.619 . S
O51 C67 1.282 . S
O52 Eu0 2.432 . S
O52 C74 1.264 1_455 S
O53 Eu11 2.339 1_556 S
O53 C74 1.254 . S
O54 Eu11 2.563 . S
O54 C67 1.235 . S
O55 Eu11 2.419 1_556 S
O55 C75 1.249 1_556 S
C56 O45 1.276 1_556 S
C56 O48 1.235 . S
C57 C59 1.393 1_556 S
C57 C61 1.395 . S
C57 C64 1.492 . S
C58 C59 1.392 . S
C58 C60 1.386 1_554 S
C59 C57 1.393 1_554 S
C59 C58 1.392 . S
C59 H76 0.930 . S
C60 C58 1.386 1_556 S
C60 C62 1.395 . S
C60 H77 0.930 . S
C61 C57 1.395 . S
C61 C62 1.379 . S
C61 H78 0.930 . S
C62 C60 1.395 . S
C62 C61 1.379 . S
C62 H79 0.930 . S
C63 O46 1.277 . S
C63 O47 1.254 . S
C64 Eu0 2.848 . S
C64 O44 1.257 . S
C64 O49 1.249 1_556 S
C64 C57 1.492 . S
C65 H30 0.931 . S
C65 C43 1.420 . S
C65 C66 1.351 . S
C66 H28 0.930 . S
C66 C34 1.423 1_556 S
C66 C65 1.351 . S
C67 O51 1.282 . S
C67 O54 1.235 . S
C68 C69 1.393 1_554 S
C68 C72 1.395 . S
C68 C75 1.492 . S
C69 C68 1.393 1_556 S
C69 C70 1.392 . S
C69 H80 0.930 . S
C70 C69 1.392 . S
C70 C71 1.386 1_556 S
C71 C70 1.386 1_554 S
C71 C73 1.395 . S
C71 H81 0.930 . S
C72 C68 1.395 . S
C72 C73 1.379 . S
C72 H82 0.930 . S
C73 C71 1.395 . S
C73 C72 1.379 . S
C73 H83 0.930 . S
C74 O52 1.264 1_655 S
C74 O53 1.254 . S
C75 Eu11 2.848 . S
C75 O50 1.257 . S
C75 O55 1.249 1_554 S
C75 C68 1.492 . S
H76 C59 0.930 . S
H77 C60 0.930 . S
H78 C61 0.930 . S
H79 C62 0.930 . S
H80 C69 0.930 . S
H81 C71 0.930 . S
H82 C72 0.930 . S
H83 C73 0.930 . S
Eu84 N115 2.657 1_556 S
Eu84 N122 2.609 . S
Eu84 O128 2.558 . S
Eu84 O129 2.612 1_556 S
Eu84 O131 2.339 1_556 S
Eu84 O132 2.563 . S
Eu84 O133 2.419 1_556 S
Eu84 O135 2.375 1_556 S
Eu84 O136 2.432 . S
Eu84 C148 2.848 . S
C85 C88 1.429 . S
C85 C89 1.411 . S
C85 N92 1.377 . S
C86 C88 1.420 1_556 S
C86 C90 1.423 1_556 S
C86 C98 1.392 . S
C87 C89 1.420 . S
C87 C90 1.351 . S
C87 H110 0.931 . S
C88 C85 1.429 . S
C88 C86 1.420 1_554 S
C88 N96 1.362 1_554 S
C89 C85 1.411 . S
C89 C87 1.420 . S
C89 C94 1.395 . S
C90 C86 1.423 1_554 S
C90 C87 1.351 . S
C90 H102 0.930 . S
C91 C93 1.400 . S
C91 C94 1.386 . S
C91 H103 0.930 . S
N92 C85 1.377 . S
N92 C93 1.321 . S
N92 Eu95 2.609 . S
C93 C91 1.400 . S
C93 N92 1.321 . S
C93 H100 0.930 . S
C94 C89 1.395 . S
C94 C91 1.386 . S
C94 H113 0.930 . S
Eu95 N92 2.609 . S
Eu95 N96 2.657 1_554 S
Eu95 O129 2.380 . S
Eu95 O130 2.432 . S
Eu95 O134 2.558 . S
Eu95 O135 2.619 . S
Eu95 O137 2.339 1_554 S
Eu95 O138 2.563 . S
Eu95 O139 2.419 1_554 S
Eu95 C159 2.848 . S
N96 C88 1.362 1_556 S
N96 Eu95 2.657 1_556 S
N96 C97 1.334 . S
C97 N96 1.334 . S
C97 C99 1.413 . S
C97 H104 0.929 . S
C98 C86 1.392 . S
C98 C99 1.367 . S
C98 H106 0.930 . S
C99 C97 1.413 . S
C99 C98 1.367 . S
C99 H101 0.930 . S
H100 C93 0.930 . S
H101 C99 0.930 . S
H102 C90 0.930 . S
H103 C91 0.930 . S
H104 C97 0.929 . S
H105 C119 0.930 . S
H106 C98 0.930 . S
H107 C125 0.930 . S
H108 C116 0.929 . S
H109 C123 0.930 . S
H110 C87 0.931 . S
H111 C117 0.930 . S
H112 C150 0.930 . S
H113 C94 0.930 . S
H114 C149 0.931 . S
N115 Eu84 2.657 1_554 S
N115 C116 1.334 . S
N115 C120 1.362 1_554 S
C116 H108 0.929 . S
C116 N115 1.334 . S
C116 C119 1.413 . S
C117 H111 0.930 . S
C117 C118 1.392 . S
C117 C119 1.367 . S
C118 C117 1.392 . S
C118 C120 1.420 1_554 S
C118 C150 1.423 1_554 S
C119 H105 0.930 . S
C119 C116 1.413 . S
C119 C117 1.367 . S
C120 N115 1.362 1_556 S
C120 C118 1.420 1_556 S
C120 C124 1.429 . S
H121 C126 0.930 . S
N122 Eu84 2.609 . S
N122 C124 1.377 . S
N122 C125 1.321 . S
C123 H109 0.930 . S
C123 C125 1.400 . S
C123 C126 1.386 . S
C124 C120 1.429 . S
C124 N122 1.377 . S
C124 C127 1.411 . S
C125 H107 0.930 . S
C125 N122 1.321 . S
C125 C123 1.400 . S
C126 H121 0.930 . S
C126 C123 1.386 . S
C126 C127 1.395 . S
C127 C124 1.411 . S
C127 C126 1.395 . S
C127 C149 1.420 . S
O128 Eu84 2.558 . S
O128 C148 1.257 . S
O129 Eu84 2.612 1_554 S
O129 Eu95 2.380 . S
O129 C140 1.276 1_554 S
O130 Eu95 2.432 . S
O130 C147 1.264 . S
O131 Eu84 2.339 1_554 S
O131 C147 1.254 . S
O132 Eu84 2.563 . S
O132 C140 1.235 . S
O133 Eu84 2.419 1_554 S
O133 C148 1.249 1_554 S
O134 Eu95 2.558 . S
O134 C159 1.257 . S
O135 Eu84 2.375 1_554 S
O135 Eu95 2.619 . S
O135 C151 1.282 . S
O136 Eu84 2.432 . S
O136 C158 1.264 . S
O137 Eu95 2.339 1_556 S
O137 C158 1.254 . S
O138 Eu95 2.563 . S
O138 C151 1.235 . S
O139 Eu95 2.419 1_556 S
O139 C159 1.249 1_556 S
C140 O129 1.276 1_556 S
C140 O132 1.235 . S
C141 C143 1.393 1_556 S
C141 C145 1.395 . S
C141 C148 1.492 . S
C142 C143 1.392 . S
C142 C144 1.386 1_554 S
C143 C141 1.393 1_554 S
C143 C142 1.392 . S
C143 H160 0.930 . S
C144 C142 1.386 1_556 S
C144 C146 1.395 . S
C144 H161 0.930 . S
C145 C141 1.395 . S
C145 C146 1.379 . S
C145 H162 0.930 . S
C146 C144 1.395 . S
C146 C145 1.379 . S
C146 H163 0.930 . S
C147 O130 1.264 . S
C147 O131 1.254 . S
C148 Eu84 2.848 . S
C148 O128 1.257 . S
C148 O133 1.249 1_556 S
C148 C141 1.492 . S
C149 H114 0.931 . S
C149 C127 1.420 . S
C149 C150 1.351 . S
C150 H112 0.930 . S
C150 C118 1.423 1_556 S
C150 C149 1.351 . S
C151 O135 1.282 . S
C151 O138 1.235 . S
C152 C153 1.393 1_554 S
C152 C156 1.395 . S
C152 C159 1.492 . S
C153 C152 1.393 1_556 S
C153 C154 1.392 . S
C153 H164 0.930 . S
C154 C153 1.392 . S
C154 C155 1.386 1_556 S
C155 C154 1.386 1_554 S
C155 C157 1.395 . S
C155 H165 0.930 . S
C156 C152 1.395 . S
C156 C157 1.379 . S
C156 H166 0.930 . S
C157 C155 1.395 . S
C157 C156 1.379 . S
C157 H167 0.930 . S
C158 O136 1.264 . S
C158 O137 1.254 . S
C159 Eu95 2.848 . S
C159 O134 1.257 . S
C159 O139 1.249 1_554 S
C159 C152 1.492 . S
H160 C143 0.930 . S
H161 C144 0.930 . S
H162 C145 0.930 . S
H163 C146 0.930 . S
H164 C153 0.930 . S
H165 C155 0.930 . S
H166 C156 0.930 . S
H167 C157 0.930 . S
Eu168 N199 2.657 1_566 S
Eu168 N206 2.609 . S
Eu168 O212 2.558 . S
Eu168 O213 2.612 1_556 S
Eu168 O215 2.339 1_556 S
Eu168 O216 2.563 . S
Eu168 O217 2.419 1_556 S
Eu168 O219 2.375 1_566 S
Eu168 O220 2.422 1_565 S
Eu168 C232 2.848 . S
C169 C172 1.429 . S
C169 C173 1.411 . S
C169 N176 1.377 1_565 S
C170 C172 1.420 1_556 S
C170 C174 1.423 1_556 S
C170 C182 1.392 . S
C171 C173 1.420 . S
C171 C174 1.351 . S
C171 H194 0.931 . S
C172 C169 1.429 . S
C172 C170 1.420 1_554 S
C172 N180 1.362 1_564 S
C173 C169 1.411 . S
C173 C171 1.420 . S
C173 C178 1.395 . S
C174 C170 1.423 1_554 S
C174 C171 1.351 . S
C174 H186 0.930 . S
C175 C177 1.400 . S
C175 C178 1.386 1_545 S
C175 H187 0.930 . S
N176 C169 1.377 1_545 S
N176 C177 1.321 . S
N176 Eu179 2.609 . S
C177 C175 1.400 . S
C177 N176 1.321 . S
C177 H184 0.930 . S
C178 C173 1.395 . S
C178 C175 1.386 1_565 S
C178 H197 0.930 . S
Eu179 N176 2.609 . S
Eu179 N180 2.657 1_554 S
Eu179 O213 2.380 1_545 S
Eu179 O214 2.432 . S
Eu179 O218 2.558 . S
Eu179 O219 2.618 . S
Eu179 O221 2.339 1_554 S
Eu179 O222 2.563 . S
Eu179 O223 2.419 1_554 S
Eu179 C243 2.848 . S
N180 C172 1.362 1_546 S
N180 Eu179 2.657 1_556 S
N180 C181 1.334 1_545 S
C181 N180 1.334 1_565 S
C181 C183 1.413 . S
C181 H188 0.929 1_565 S
C182 C170 1.392 . S
C182 C183 1.367 . S
C182 H190 0.930 . S
C183 C181 1.413 . S
C183 C182 1.367 . S
C183 H185 0.930 . S
H184 C177 0.930 . S
H185 C183 0.930 . S
H186 C174 0.930 . S
H187 C175 0.930 . S
H188 C181 0.929 1_545 S
H189 C203 0.930 . S
H190 C182 0.930 . S
H191 C209 0.930 . S
H192 C200 0.929 . S
H193 C207 0.930 . S
H194 C171 0.931 . S
H195 C201 0.930 . S
H196 C234 0.930 . S
H197 C178 0.930 . S
H198 C233 0.931 . S
N199 Eu168 2.657 1_544 S
N199 C200 1.334 . S
N199 C204 1.362 1_554 S
C200 H192 0.929 . S
C200 N199 1.334 . S
C200 C203 1.413 . S
C201 H195 0.930 . S
C201 C202 1.392 . S
C201 C203 1.367 . S
C202 C201 1.392 . S
C202 C204 1.420 1_554 S
C202 C234 1.423 1_554 S
C203 H189 0.930 . S
C203 C200 1.413 . S
C203 C201 1.367 . S
C204 N199 1.362 1_556 S
C204 C202 1.420 1_556 S
C204 C208 1.429 . S
H205 C210 0.930 . S
N206 Eu168 2.609 . S
N206 C208 1.377 1_565 S
N206 C209 1.321 . S
C207 H193 0.930 . S
C207 C209 1.400 . S
C207 C210 1.386 1_565 S
C208 C204 1.429 . S
C208 N206 1.377 1_545 S
C208 C211 1.411 . S
C209 H191 0.930 . S
C209 N206 1.321 . S
C209 C207 1.400 . S
C210 H205 0.930 . S
C210 C207 1.386 1_545 S
C210 C211 1.395 . S
C211 C208 1.411 . S
C211 C210 1.395 . S
C211 C233 1.420 . S
O212 Eu168 2.558 . S
O212 C232 1.257 . S
O213 Eu168 2.612 1_554 S
O213 Eu179 2.380 1_565 S
O213 C224 1.276 1_554 S
O214 Eu179 2.432 . S
O214 C231 1.264 1_545 S
O215 Eu168 2.339 1_554 S
O215 C231 1.254 . S
O216 Eu168 2.563 . S
O216 C224 1.235 . S
O217 Eu168 2.419 1_554 S
O217 C232 1.249 1_554 S
O218 Eu179 2.558 . S
O218 C243 1.257 . S
O219 Eu168 2.375 1_544 S
O219 Eu179 2.618 . S
O219 C235 1.282 . S
O220 Eu168 2.422 1_545 S
O220 C242 1.283 . S
O221 Eu179 2.339 1_556 S
O221 C242 1.254 . S
O222 Eu179 2.563 . S
O222 C235 1.235 . S
O223 Eu179 2.419 1_556 S
O223 C243 1.249 1_556 S
C224 O213 1.276 1_556 S
C224 O216 1.235 . S
C225 C227 1.393 1_556 S
C225 C229 1.395 . S
C225 C232 1.492 . S
C226 C227 1.392 . S
C226 C228 1.386 1_554 S
C227 C225 1.393 1_554 S
C227 C226 1.392 . S
C227 H244 0.930 . S
C228 C226 1.386 1_556 S
C228 C230 1.395 . S
C228 H245 0.930 . S
C229 C225 1.395 . S
C229 C230 1.379 . S
C229 H246 0.930 . S
C230 C228 1.395 . S
C230 C229 1.379 . S
C230 H247 0.930 . S
C231 O214 1.264 1_565 S
C231 O215 1.254 . S
C232 Eu168 2.848 . S
C232 O212 1.257 . S
C232 O217 1.249 1_556 S
C232 C225 1.492 . S
C233 H198 0.931 . S
C233 C211 1.420 . S
C233 C234 1.351 . S
C234 H196 0.930 . S
C234 C202 1.423 1_556 S
C234 C233 1.351 . S
C235 O219 1.282 . S
C235 O222 1.235 . S
C236 C237 1.393 1_554 S
C236 C240 1.395 . S
C236 C243 1.492 . S
C237 C236 1.393 1_556 S
C237 C238 1.392 . S
C237 H248 0.930 . S
C238 C237 1.392 . S
C238 C239 1.386 1_556 S
C239 C238 1.386 1_554 S
C239 C241 1.395 . S
C239 H249 0.930 . S
C240 C236 1.395 . S
C240 C241 1.379 . S
C240 H250 0.930 . S
C241 C239 1.395 . S
C241 C240 1.379 . S
C241 H251 0.930 . S
C242 O220 1.283 . S
C242 O221 1.254 . S
C243 Eu179 2.848 . S
C243 O218 1.257 . S
C243 O223 1.249 1_554 S
C243 C236 1.492 . S
H244 C227 0.930 . S
H245 C228 0.930 . S
H246 C229 0.930 . S
H247 C230 0.930 . S
H248 C237 0.930 . S
H249 C239 0.930 . S
H250 C240 0.930 . S
H251 C241 0.930 . S
Eu252 N283 2.657 . S
Eu252 N290 2.609 . S
Eu252 O296 2.558 . S
Eu252 O297 2.612 . S
Eu252 O299 2.339 . S
Eu252 O300 2.563 . S
Eu252 O301 2.419 . S
Eu252 O303 2.380 . S
Eu252 O304 2.432 . S
Eu252 C316 2.848 . S
C253 C256 1.429 . S
C253 C257 1.411 . S
C253 N260 1.377 . S
C254 C256 1.420 . S
C254 C258 1.423 . S
C254 C266 1.392 . S
C255 C257 1.420 . S
C255 C258 1.351 . S
C255 H278 0.931 . S
C256 C253 1.429 . S
C256 C254 1.420 . S
C256 N264 1.362 . S
C257 C253 1.411 . S
C257 C255 1.420 . S
C257 C262 1.395 . S
C258 C254 1.423 . S
C258 C255 1.351 . S
C258 H270 0.930 . S
C259 C261 1.400 . S
C259 C262 1.386 . S
C259 H271 0.930 . S
N260 C253 1.377 . S
N260 C261 1.321 . S
N260 Eu263 2.609 . S
C261 C259 1.400 . S
C261 N260 1.321 . S
C261 H268 0.930 . S
C262 C257 1.395 . S
C262 C259 1.386 . S
C262 H281 0.930 . S
Eu263 N260 2.609 . S
Eu263 N264 2.657 . S
Eu263 O297 2.380 . S
Eu263 O298 2.432 . S
Eu263 O302 2.558 . S
Eu263 O303 2.612 . S
Eu263 O305 2.339 . S
Eu263 O306 2.563 . S
Eu263 O307 2.419 . S
Eu263 C327 2.848 . S
N264 C256 1.362 . S
N264 Eu263 2.657 . S
N264 C265 1.334 . S
C265 N264 1.334 . S
C265 C267 1.413 . S
C265 H272 0.929 . S
C266 C254 1.392 . S
C266 C267 1.367 . S
C266 H274 0.930 . S
C267 C265 1.413 . S
C267 C266 1.367 . S
C267 H269 0.930 . S
H268 C261 0.930 . S
H269 C267 0.930 . S
H270 C258 0.930 . S
H271 C259 0.930 . S
H272 C265 0.929 . S
H273 C287 0.930 . S
H274 C266 0.930 . S
H275 C293 0.930 . S
H276 C284 0.929 . S
H277 C291 0.930 . S
H278 C255 0.931 . S
H279 C285 0.930 . S
H280 C318 0.930 . S
H281 C262 0.930 . S
H282 C317 0.931 . S
N283 Eu252 2.657 . S
N283 C284 1.334 . S
N283 C288 1.362 . S
C284 H276 0.929 . S
C284 N283 1.334 . S
C284 C287 1.413 . S
C285 H279 0.930 . S
C285 C286 1.392 . S
C285 C287 1.367 . S
C286 C285 1.392 . S
C286 C288 1.420 . S
C286 C318 1.423 . S
C287 H273 0.930 . S
C287 C284 1.413 . S
C287 C285 1.367 . S
C288 N283 1.362 . S
C288 C286 1.420 . S
C288 C292 1.429 . S
H289 C294 0.930 . S
N290 Eu252 2.609 . S
N290 C292 1.377 . S
N290 C293 1.321 . S
C291 H277 0.930 . S
C291 C293 1.400 . S
C291 C294 1.386 . S
C292 C288 1.429 . S
C292 N290 1.377 . S
C292 C295 1.411 . S
C293 H275 0.930 . S
C293 N290 1.321 . S
C293 C291 1.400 . S
C294 H289 0.930 . S
C294 C291 1.386 . S
C294 C295 1.395 . S
C295 C292 1.411 . S
C295 C294 1.395 . S
C295 C317 1.420 . S
O296 Eu252 2.558 . S
O296 C316 1.257 . S
O297 Eu252 2.612 . S
O297 Eu263 2.380 . S
O297 C308 1.276 . S
O298 Eu263 2.432 . S
O298 C315 1.264 . S
O299 Eu252 2.339 . S
O299 C315 1.254 . S
O300 Eu252 2.563 . S
O300 C308 1.235 . S
O301 Eu252 2.419 . S
O301 C316 1.249 . S
O302 Eu263 2.558 . S
O302 C327 1.257 . S
O303 Eu252 2.380 . S
O303 Eu263 2.612 . S
O303 C319 1.276 . S
O304 Eu252 2.432 . S
O304 C326 1.264 . S
O305 Eu263 2.339 . S
O305 C326 1.254 . S
O306 Eu263 2.563 . S
O306 C319 1.235 . S
O307 Eu263 2.419 . S
O307 C327 1.249 . S
C308 O297 1.276 . S
C308 O300 1.235 . S
C309 C311 1.393 . S
C309 C313 1.395 . S
C309 C316 1.492 . S
C310 C311 1.392 1_545 S
C310 C312 1.386 . S
C311 C309 1.393 . S
C311 C310 1.392 1_565 S
C311 H328 0.930 . S
C312 C310 1.386 . S
C312 C314 1.395 . S
C312 H329 0.930 . S
C313 C309 1.395 . S
C313 C314 1.379 1_565 S
C313 H330 0.930 . S
C314 C312 1.395 . S
C314 C313 1.379 1_545 S
C314 H331 0.930 . S
C315 O298 1.264 . S
C315 O299 1.254 . S
C316 Eu252 2.848 . S
C316 O296 1.257 . S
C316 O301 1.249 . S
C316 C309 1.492 . S
C317 H282 0.931 . S
C317 C295 1.420 . S
C317 C318 1.351 . S
C318 H280 0.930 . S
C318 C286 1.423 . S
C318 C317 1.351 . S
C319 O303 1.276 . S
C319 O306 1.235 . S
C320 C321 1.393 . S
C320 C324 1.395 . S
C320 C327 1.492 . S
C321 C320 1.393 . S
C321 C322 1.392 . S
C321 H332 0.930 . S
C322 C321 1.392 . S
C322 C323 1.386 . S
C323 C322 1.386 . S
C323 C325 1.395 . S
C323 H333 0.930 . S
C324 C320 1.395 . S
C324 C325 1.379 . S
C324 H334 0.930 . S
C325 C323 1.395 . S
C325 C324 1.379 . S
C325 H335 0.930 . S
C326 O304 1.264 . S
C326 O305 1.254 . S
C327 Eu263 2.848 . S
C327 O302 1.257 . S
C327 O307 1.249 . S
C327 C320 1.492 . S
H328 C311 0.930 . S
H329 C312 0.930 . S
H330 C313 0.930 . S
H331 C314 0.930 . S
H332 C321 0.930 . S
H333 C323 0.930 . S
H334 C324 0.930 . S
H335 C325 0.930 . S
Eu336 N367 2.657 . S
Eu336 N374 2.609 . S
Eu336 O380 2.558 . S
Eu336 O381 2.612 . S
Eu336 O383 2.339 . S
Eu336 O384 2.563 . S
Eu336 O385 2.419 . S
Eu336 O387 2.380 . S
Eu336 O388 2.432 . S
Eu336 C400 2.848 . S
C337 C340 1.429 . S
C337 C341 1.411 1_565 S
C337 N344 1.377 . S
C338 C340 1.420 1_545 S
C338 C342 1.423 . S
C338 C350 1.392 . S
C339 C341 1.420 . S
C339 C342 1.351 . S
C339 H362 0.931 . S
C340 C337 1.429 . S
C340 C338 1.420 1_565 S
C340 N348 1.362 . S
C341 C337 1.411 1_545 S
C341 C339 1.420 . S
C341 C346 1.395 . S
C342 C338 1.423 . S
C342 C339 1.351 . S
C342 H354 0.930 . S
C343 C345 1.400 . S
C343 C346 1.386 1_565 S
C343 H355 0.930 . S
N344 C337 1.377 . S
N344 C345 1.321 . S
N344 Eu347 2.609 . S
C345 C343 1.400 . S
C345 N344 1.321 . S
C345 H352 0.930 . S
C346 C341 1.395 . S
C346 C343 1.386 1_545 S
C346 H365 0.930 . S
Eu347 N344 2.609 . S
Eu347 N348 2.657 . S
Eu347 O381 2.380 . S
Eu347 O382 2.432 . S
Eu347 O386 2.558 . S
Eu347 O387 2.612 . S
Eu347 O389 2.339 . S
Eu347 O390 2.563 . S
Eu347 O391 2.419 . S
Eu347 C411 2.848 . S
N348 C340 1.362 . S
N348 Eu347 2.657 . S
N348 C349 1.334 . S
C349 N348 1.334 . S
C349 C351 1.413 1_565 S
C349 H356 0.929 . S
C350 C338 1.392 . S
C350 C351 1.367 . S
C350 H358 0.930 . S
C351 C349 1.413 1_545 S
C351 C350 1.367 . S
C351 H353 0.930 . S
H352 C345 0.930 . S
H353 C351 0.930 . S
H354 C342 0.930 . S
H355 C343 0.930 . S
H356 C349 0.929 . S
H357 C371 0.930 . S
H358 C350 0.930 . S
H359 C377 0.930 . S
H360 C368 0.929 . S
H361 C375 0.930 . S
H362 C339 0.931 . S
H363 C369 0.930 . S
H364 C402 0.930 . S
H365 C346 0.930 . S
H366 C401 0.931 . S
N367 Eu336 2.657 . S
N367 C368 1.334 . S
N367 C372 1.362 . S
C368 H360 0.929 . S
C368 N367 1.334 . S
C368 C371 1.413 . S
C369 H363 0.930 . S
C369 C370 1.392 . S
C369 C371 1.367 . S
C370 C369 1.392 . S
C370 C372 1.420 . S
C370 C402 1.423 . S
C371 H357 0.930 . S
C371 C368 1.413 . S
C371 C369 1.367 . S
C372 N367 1.362 . S
C372 C370 1.420 . S
C372 C376 1.429 . S
H373 C378 0.930 . S
N374 Eu336 2.609 . S
N374 C376 1.377 . S
N374 C377 1.321 . S
C375 H361 0.930 . S
C375 C377 1.400 . S
C375 C378 1.386 . S
C376 C372 1.429 . S
C376 N374 1.377 . S
C376 C379 1.411 . S
C377 H359 0.930 . S
C377 N374 1.321 . S
C377 C375 1.400 . S
C378 H373 0.930 . S
C378 C375 1.386 . S
C378 C379 1.395 . S
C379 C376 1.411 . S
C379 C378 1.395 . S
C379 C401 1.420 . S
O380 Eu336 2.558 . S
O380 C400 1.257 . S
O381 Eu336 2.612 . S
O381 Eu347 2.380 . S
O381 C392 1.276 . S
O382 Eu347 2.432 . S
O382 C399 1.264 . S
O383 Eu336 2.339 . S
O383 C399 1.254 . S
O384 Eu336 2.563 . S
O384 C392 1.235 . S
O385 Eu336 2.419 . S
O385 C400 1.249 . S
O386 Eu347 2.558 . S
O386 C411 1.257 . S
O387 Eu336 2.380 . S
O387 Eu347 2.612 . S
O387 C403 1.276 . S
O388 Eu336 2.432 . S
O388 C410 1.264 . S
O389 Eu347 2.339 . S
O389 C410 1.254 . S
O390 Eu347 2.563 . S
O390 C403 1.235 . S
O391 Eu347 2.419 . S
O391 C411 1.249 . S
C392 O381 1.276 . S
C392 O384 1.235 . S
C393 C395 1.393 . S
C393 C397 1.395 . S
C393 C400 1.492 . S
C394 C395 1.392 1_655 S
C394 C396 1.386 . S
C395 C393 1.393 . S
C395 C394 1.392 1_455 S
C395 H412 0.930 . S
C396 C394 1.386 . S
C396 C398 1.395 . S
C396 H413 0.930 . S
C397 C393 1.395 . S
C397 C398 1.379 1_455 S
C397 H414 0.930 . S
C398 C396 1.395 . S
C398 C397 1.379 1_655 S
C398 H415 0.930 . S
C399 O382 1.264 . S
C399 O383 1.254 . S
C400 Eu336 2.848 . S
C400 O380 1.257 . S
C400 O385 1.249 . S
C400 C393 1.492 . S
C401 H366 0.931 . S
C401 C379 1.420 . S
C401 C402 1.351 . S
C402 H364 0.930 . S
C402 C370 1.423 . S
C402 C401 1.351 . S
C403 O387 1.276 . S
C403 O390 1.235 . S
C404 C405 1.393 . S
C404 C408 1.395 . S
C404 C411 1.492 . S
C405 C404 1.393 . S
C405 C406 1.392 . S
C405 H416 0.930 . S
C406 C405 1.392 . S
C406 C407 1.386 . S
C407 C406 1.386 . S
C407 C409 1.395 . S
C407 H417 0.930 . S
C408 C404 1.395 . S
C408 C409 1.379 . S
C408 H418 0.930 . S
C409 C407 1.395 . S
C409 C408 1.379 . S
C409 H419 0.930 . S
C410 O388 1.264 . S
C410 O389 1.254 . S
C411 Eu347 2.848 . S
C411 O386 1.257 . S
C411 O391 1.249 . S
C411 C404 1.492 . S
H412 C395 0.930 . S
H413 C396 0.930 . S
H414 C397 0.930 . S
H415 C398 0.930 . S
H416 C405 0.930 . S
H417 C407 0.930 . S
H418 C408 0.930 . S
H419 C409 0.930 . S
Eu420 N451 2.657 . S
Eu420 N458 2.609 . S
Eu420 O464 2.558 . S
Eu420 O465 2.612 . S
Eu420 O467 2.339 . S
Eu420 O468 2.563 . S
Eu420 O469 2.419 . S
Eu420 O471 2.380 . S
Eu420 O472 2.432 . S
Eu420 C484 2.848 . S
C421 C424 1.429 . S
C421 C425 1.411 1_455 S
C421 N428 1.377 . S
C422 C424 1.420 1_655 S
C422 C426 1.423 . S
C422 C434 1.392 . S
C423 C425 1.420 . S
C423 C426 1.351 . S
C423 H446 0.931 . S
C424 C421 1.429 . S
C424 C422 1.420 1_455 S
C424 N432 1.362 . S
C425 C421 1.411 1_655 S
C425 C423 1.420 . S
C425 C430 1.395 . S
C426 C422 1.423 . S
C426 C423 1.351 . S
C426 H438 0.930 . S
C427 C429 1.400 . S
C427 C430 1.386 1_455 S
C427 H439 0.930 . S
N428 C421 1.377 . S
N428 C429 1.321 . S
N428 Eu431 2.609 . S
C429 C427 1.400 . S
C429 N428 1.321 . S
C429 H436 0.930 . S
C430 C425 1.395 . S
C430 C427 1.386 1_655 S
C430 H449 0.930 . S
Eu431 N428 2.609 . S
Eu431 N432 2.657 . S
Eu431 O465 2.380 . S
Eu431 O466 2.432 . S
Eu431 O470 2.558 . S
Eu431 O471 2.612 . S
Eu431 O473 2.339 . S
Eu431 O474 2.563 . S
Eu431 O475 2.419 . S
Eu431 C495 2.848 . S
N432 C424 1.362 . S
N432 Eu431 2.657 . S
N432 C433 1.334 . S
C433 N432 1.334 . S
C433 C435 1.413 . S
C433 H440 0.929 . S
C434 C422 1.392 . S
C434 C435 1.367 1_655 S
C434 H442 0.930 . S
C435 C433 1.413 . S
C435 C434 1.367 1_455 S
C435 H437 0.930 . S
H436 C429 0.930 . S
H437 C435 0.930 . S
H438 C426 0.930 . S
H439 C427 0.930 . S
H440 C433 0.929 . S
H441 C455 0.930 . S
H442 C434 0.930 . S
H443 C461 0.930 . S
H444 C452 0.929 . S
H445 C459 0.930 . S
H446 C423 0.931 . S
H447 C453 0.930 . S
H448 C486 0.930 . S
H449 C430 0.930 . S
H450 C485 0.931 . S
N451 Eu420 2.657 . S
N451 C452 1.334 . S
N451 C456 1.362 . S
C452 H444 0.929 . S
C452 N451 1.334 . S
C452 C455 1.413 . S
C453 H447 0.930 . S
C453 C454 1.392 . S
C453 C455 1.367 . S
C454 C453 1.392 . S
C454 C456 1.420 . S
C454 C486 1.423 . S
C455 H441 0.930 . S
C455 C452 1.413 . S
C455 C453 1.367 . S
C456 N451 1.362 . S
C456 C454 1.420 . S
C456 C460 1.429 . S
H457 C462 0.930 . S
N458 Eu420 2.609 . S
N458 C460 1.377 . S
N458 C461 1.321 . S
C459 H445 0.930 . S
C459 C461 1.400 . S
C459 C462 1.386 . S
C460 C456 1.429 . S
C460 N458 1.377 . S
C460 C463 1.411 . S
C461 H443 0.930 . S
C461 N458 1.321 . S
C461 C459 1.400 . S
C462 H457 0.930 . S
C462 C459 1.386 . S
C462 C463 1.395 . S
C463 C460 1.411 . S
C463 C462 1.395 . S
C463 C485 1.420 . S
O464 Eu420 2.558 . S
O464 C484 1.257 . S
O465 Eu420 2.612 . S
O465 Eu431 2.380 . S
O465 C476 1.276 . S
O466 Eu431 2.432 . S
O466 C483 1.264 . S
O467 Eu420 2.339 . S
O467 C483 1.254 . S
O468 Eu420 2.563 . S
O468 C476 1.235 . S
O469 Eu420 2.419 . S
O469 C484 1.249 . S
O470 Eu431 2.558 . S
O470 C495 1.257 . S
O471 Eu420 2.380 . S
O471 Eu431 2.612 . S
O471 C487 1.276 . S
O472 Eu420 2.432 . S
O472 C494 1.264 . S
O473 Eu431 2.339 . S
O473 C494 1.254 . S
O474 Eu431 2.563 . S
O474 C487 1.235 . S
O475 Eu431 2.419 . S
O475 C495 1.249 . S
C476 O465 1.276 . S
C476 O468 1.235 . S
C477 C479 1.393 . S
C477 C481 1.395 . S
C477 C484 1.492 . S
C478 C479 1.392 . S
C478 C480 1.386 . S
C479 C477 1.393 . S
C479 C478 1.392 . S
C479 H496 0.930 . S
C480 C478 1.386 . S
C480 C482 1.395 . S
C480 H497 0.930 . S
C481 C477 1.395 . S
C481 C482 1.379 . S
C481 H498 0.930 . S
C482 C480 1.395 . S
C482 C481 1.379 . S
C482 H499 0.930 . S
C483 O466 1.264 . S
C483 O467 1.254 . S
C484 Eu420 2.848 . S
C484 O464 1.257 . S
C484 O469 1.249 . S
C484 C477 1.492 . S
C485 H450 0.931 . S
C485 C463 1.420 . S
C485 C486 1.351 . S
C486 H448 0.930 . S
C486 C454 1.423 . S
C486 C485 1.351 . S
C487 O471 1.276 . S
C487 O474 1.235 . S
C488 C489 1.393 . S
C488 C492 1.395 . S
C488 C495 1.492 . S
C489 C488 1.393 . S
C489 C490 1.392 . S
C489 H500 0.930 . S
C490 C489 1.392 . S
C490 C491 1.386 . S
C491 C490 1.386 . S
C491 C493 1.395 . S
C491 H501 0.930 . S
C492 C488 1.395 . S
C492 C493 1.379 . S
C492 H502 0.930 . S
C493 C491 1.395 . S
C493 C492 1.379 . S
C493 H503 0.930 . S
C494 O472 1.264 . S
C494 O473 1.254 . S
C495 Eu431 2.848 . S
C495 O470 1.257 . S
C495 O475 1.249 . S
C495 C488 1.492 . S
H496 C479 0.930 . S
H497 C480 0.930 . S
H498 C481 0.930 . S
H499 C482 0.930 . S
H500 C489 0.930 . S
H501 C491 0.930 . S
H502 C492 0.930 . S
H503 C493 0.930 . S
Eu504 N535 2.657 . S
Eu504 N542 2.609 . S
Eu504 O548 2.558 . S
Eu504 O549 2.612 . S
Eu504 O551 2.339 . S
Eu504 O552 2.563 . S
Eu504 O553 2.419 . S
Eu504 O555 2.380 . S
Eu504 O556 2.432 . S
Eu504 C568 2.848 . S
C505 C508 1.429 . S
C505 C509 1.389 1_545 S
C505 N512 1.377 . S
C506 C508 1.420 . S
C506 C510 1.423 1_545 S
C506 C518 1.392 . S
C507 C509 1.442 . S
C507 C510 1.351 . S
C507 H530 0.931 . S
C508 C505 1.429 . S
C508 C506 1.420 . S
C508 N516 1.362 . S
C509 C505 1.389 1_565 S
C509 C507 1.442 . S
C509 C514 1.394 . S
C510 C506 1.423 1_565 S
C510 C507 1.351 . S
C510 H522 0.930 . S
C511 C513 1.400 . S
C511 C514 1.386 1_545 S
C511 H523 0.930 . S
N512 C505 1.377 . S
N512 C513 1.321 . S
N512 Eu515 2.609 . S
C513 C511 1.400 . S
C513 N512 1.321 . S
C513 H520 0.930 . S
C514 C509 1.394 . S
C514 C511 1.386 1_565 S
C514 H533 0.930 . S
Eu515 N512 2.609 . S
Eu515 N516 2.657 . S
Eu515 O549 2.380 . S
Eu515 O550 2.432 . S
Eu515 O554 2.558 . S
Eu515 O555 2.612 . S
Eu515 O557 2.339 . S
Eu515 O558 2.563 . S
Eu515 O559 2.419 . S
Eu515 C579 2.848 . S
N516 C508 1.362 . S
N516 Eu515 2.657 . S
N516 C517 1.334 . S
C517 N516 1.334 . S
C517 C519 1.413 . S
C517 H524 0.929 . S
C518 C506 1.392 . S
C518 C519 1.367 . S
C518 H526 0.930 1_545 S
C519 C517 1.413 . S
C519 C518 1.367 . S
C519 H521 0.930 . S
H520 C513 0.930 . S
H521 C519 0.930 . S
H522 C510 0.930 . S
H523 C511 0.930 . S
H524 C517 0.929 . S
H525 C539 0.930 . S
H526 C518 0.930 1_565 S
H527 C545 0.930 . S
H528 C536 0.929 . S
H529 C543 0.930 . S
H530 C507 0.931 . S
H531 C537 0.930 . S
H532 C570 0.930 . S
H533 C514 0.930 . S
H534 C569 0.931 . S
N535 Eu504 2.657 . S
N535 C536 1.334 . S
N535 C540 1.362 . S
C536 H528 0.929 . S
C536 N535 1.334 . S
C536 C539 1.413 . S
C537 H531 0.930 . S
C537 C538 1.392 . S
C537 C539 1.367 . S
C538 C537 1.392 . S
C538 C540 1.420 . S
C538 C570 1.423 . S
C539 H525 0.930 . S
C539 C536 1.413 . S
C539 C537 1.367 . S
C540 N535 1.362 . S
C540 C538 1.420 . S
C540 C544 1.429 . S
H541 C546 0.930 . S
N542 Eu504 2.609 . S
N542 C544 1.377 . S
N542 C545 1.321 . S
C543 H529 0.930 . S
C543 C545 1.400 . S
C543 C546 1.386 . S
C544 C540 1.429 . S
C544 N542 1.377 . S
C544 C547 1.411 . S
C545 H527 0.930 . S
C545 N542 1.321 . S
C545 C543 1.400 . S
C546 H541 0.930 . S
C546 C543 1.386 . S
C546 C547 1.395 . S
C547 C544 1.411 . S
C547 C546 1.395 . S
C547 C569 1.420 . S
O548 Eu504 2.558 . S
O548 C568 1.257 . S
O549 Eu504 2.612 . S
O549 Eu515 2.380 . S
O549 C560 1.276 . S
O550 Eu515 2.432 . S
O550 C567 1.264 . S
O551 Eu504 2.339 . S
O551 C567 1.254 . S
O552 Eu504 2.563 . S
O552 C560 1.235 . S
O553 Eu504 2.419 . S
O553 C568 1.249 . S
O554 Eu515 2.558 . S
O554 C579 1.257 . S
O555 Eu504 2.380 . S
O555 Eu515 2.612 . S
O555 C571 1.276 . S
O556 Eu504 2.432 . S
O556 C578 1.264 . S
O557 Eu515 2.339 . S
O557 C578 1.254 . S
O558 Eu515 2.563 . S
O558 C571 1.235 . S
O559 Eu515 2.419 . S
O559 C579 1.249 . S
C560 O549 1.276 . S
C560 O552 1.235 . S
C561 C563 1.393 . S
C561 C565 1.395 . S
C561 C568 1.492 . S
C562 C563 1.392 . S
C562 C564 1.386 . S
C563 C561 1.393 . S
C563 C562 1.392 . S
C563 H580 0.930 . S
C564 C562 1.386 . S
C564 C566 1.395 . S
C564 H581 0.930 . S
C565 C561 1.395 . S
C565 C566 1.379 . S
C565 H582 0.930 . S
C566 C564 1.395 . S
C566 C565 1.379 . S
C566 H583 0.930 . S
C567 O550 1.264 . S
C567 O551 1.254 . S
C568 Eu504 2.848 . S
C568 O548 1.257 . S
C568 O553 1.249 . S
C568 C561 1.492 . S
C569 H534 0.931 . S
C569 C547 1.420 . S
C569 C570 1.351 . S
C570 H532 0.930 . S
C570 C538 1.423 . S
C570 C569 1.351 . S
C571 O555 1.276 . S
C571 O558 1.235 . S
C572 C573 1.393 . S
C572 C576 1.395 . S
C572 C579 1.492 1_565 S
C573 C572 1.393 . S
C573 C574 1.392 . S
C573 H584 0.930 . S
C574 C573 1.392 . S
C574 C575 1.386 . S
C575 C574 1.386 . S
C575 C577 1.395 . S
C575 H585 0.930 . S
C576 C572 1.395 . S
C576 C577 1.379 . S
C576 H586 0.930 . S
C577 C575 1.395 . S
C577 C576 1.379 . S
C577 H587 0.930 . S
C578 O556 1.264 . S
C578 O557 1.254 . S
C579 Eu515 2.848 . S
C579 O554 1.257 . S
C579 O559 1.249 . S
C579 C572 1.492 1_545 S
H580 C563 0.930 . S
H581 C564 0.930 . S
H582 C565 0.930 . S
H583 C566 0.930 . S
H584 C573 0.930 . S
H585 C575 0.930 . S
H586 C576 0.930 . S
H587 C577 0.930 . S
Eu588 N619 2.657 . S
Eu588 N626 2.609 . S
Eu588 O632 2.558 . S
Eu588 O633 2.612 . S
Eu588 O635 2.339 . S
Eu588 O636 2.563 . S
Eu588 O637 2.419 . S
Eu588 O639 2.380 . S
Eu588 O640 2.432 . S
Eu588 C652 2.848 . S
C589 C592 1.429 . S
C589 C593 1.411 1_655 S
C589 N596 1.377 . S
C590 C592 1.420 1_455 S
C590 C594 1.423 . S
C590 C602 1.392 . S
C591 C593 1.420 . S
C591 C594 1.351 . S
C591 H614 0.931 . S
C592 C589 1.429 . S
C592 C590 1.420 1_655 S
C592 N600 1.362 . S
C593 C589 1.411 1_455 S
C593 C591 1.420 . S
C593 C598 1.395 . S
C594 C590 1.423 . S
C594 C591 1.351 . S
C594 H606 0.930 . S
C595 C597 1.400 . S
C595 C598 1.386 1_655 S
C595 H607 0.930 . S
N596 C589 1.377 . S
N596 C597 1.321 . S
N596 Eu599 2.609 . S
C597 C595 1.400 . S
C597 N596 1.321 . S
C597 H604 0.930 . S
C598 C593 1.395 . S
C598 C595 1.386 1_455 S
C598 H617 0.930 . S
Eu599 N596 2.609 . S
Eu599 N600 2.657 . S
Eu599 O633 2.380 . S
Eu599 O634 2.432 . S
Eu599 O638 2.558 . S
Eu599 O639 2.612 . S
Eu599 O641 2.339 . S
Eu599 O642 2.563 . S
Eu599 O643 2.419 . S
Eu599 C663 2.848 1_655 S
N600 C592 1.362 . S
N600 Eu599 2.657 . S
N600 C601 1.334 . S
C601 N600 1.334 . S
C601 C603 1.413 . S
C601 H608 0.929 . S
C602 C590 1.392 . S
C602 C603 1.367 1_455 S
C602 H610 0.930 . S
C603 C601 1.413 . S
C603 C602 1.367 1_655 S
C603 H605 0.930 . S
H604 C597 0.930 . S
H605 C603 0.930 . S
H606 C594 0.930 . S
H607 C595 0.930 . S
H608 C601 0.929 . S
H609 C623 0.930 . S
H610 C602 0.930 . S
H611 C629 0.930 . S
H612 C620 0.929 . S
H613 C627 0.930 . S
H614 C591 0.931 . S
H615 C621 0.930 . S
H616 C654 0.906 1_565 S
H617 C598 0.930 . S
H618 C653 0.931 1_565 S
N619 Eu588 2.657 . S
N619 C620 1.334 . S
N619 C624 1.362 . S
C620 H612 0.929 . S
C620 N619 1.334 . S
C620 C623 1.413 . S
C621 H615 0.930 . S
C621 C622 1.392 . S
C621 C623 1.367 . S
C622 C621 1.392 . S
C622 C624 1.420 . S
C622 C654 1.441 . S
C623 H609 0.930 . S
C623 C620 1.413 . S
C623 C621 1.367 . S
C624 N619 1.362 . S
C624 C622 1.420 . S
C624 C628 1.429 . S
H625 C630 0.930 . S
N626 Eu588 2.609 . S
N626 C628 1.377 . S
N626 C629 1.321 . S
C627 H613 0.930 . S
C627 C629 1.400 . S
C627 C630 1.386 . S
C628 C624 1.429 . S
C628 N626 1.377 . S
C628 C631 1.411 . S
C629 H611 0.930 . S
C629 N626 1.321 . S
C629 C627 1.400 . S
C630 H625 0.930 . S
C630 C627 1.386 . S
C630 C631 1.395 . S
C631 C628 1.411 . S
C631 C630 1.395 . S
C631 C653 1.420 . S
O632 Eu588 2.558 . S
O632 C652 1.257 . S
O633 Eu588 2.612 . S
O633 Eu599 2.380 . S
O633 C644 1.276 . S
O634 Eu599 2.432 . S
O634 C651 1.264 . S
O635 Eu588 2.339 . S
O635 C651 1.254 . S
O636 Eu588 2.563 . S
O636 C644 1.235 . S
O637 Eu588 2.419 . S
O637 C652 1.249 . S
O638 Eu599 2.558 . S
O638 C663 1.257 1_655 S
O639 Eu588 2.380 . S
O639 Eu599 2.612 . S
O639 C655 1.276 . S
O640 Eu588 2.432 . S
O640 C662 1.264 . S
O641 Eu599 2.339 . S
O641 C662 1.254 . S
O642 Eu599 2.563 . S
O642 C655 1.235 . S
O643 Eu599 2.419 . S
O643 C663 1.249 1_655 S
C644 O633 1.276 . S
C644 O636 1.235 . S
C645 C647 1.393 . S
C645 C649 1.395 . S
C645 C652 1.492 . S
C646 C647 1.392 . S
C646 C648 1.386 . S
C647 C645 1.393 . S
C647 C646 1.392 . S
C647 H664 0.930 . S
C648 C646 1.386 . S
C648 C650 1.395 . S
C648 H665 0.930 . S
C649 C645 1.395 . S
C649 C650 1.379 . S
C649 H666 0.930 . S
C650 C648 1.395 . S
C650 C649 1.379 . S
C650 H667 0.930 . S
C651 O634 1.264 . S
C651 O635 1.254 . S
C652 Eu588 2.848 . S
C652 O632 1.257 . S
C652 O637 1.249 . S
C652 C645 1.492 . S
C653 H618 0.931 1_545 S
C653 C631 1.420 . S
C653 C654 1.357 . S
C654 H616 0.906 1_545 S
C654 C622 1.441 . S
C654 C653 1.357 . S
C655 O639 1.276 . S
C655 O642 1.235 . S
C656 C657 1.393 . S
C656 C660 1.395 . S
C656 C663 1.492 . S
C657 C656 1.393 . S
C657 C658 1.392 . S
C657 H668 0.930 . S
C658 C657 1.392 . S
C658 C659 1.386 . S
C659 C658 1.386 . S
C659 C661 1.395 . S
C659 H669 0.930 . S
C660 C656 1.395 . S
C660 C661 1.379 . S
C660 H670 0.930 . S
C661 C659 1.395 . S
C661 C660 1.379 . S
C661 H671 0.930 . S
C662 O640 1.264 . S
C662 O641 1.254 . S
C663 Eu599 2.848 1_455 S
C663 O638 1.257 1_455 S
C663 O643 1.249 1_455 S
C663 C656 1.492 . S
H664 C647 0.930 . S
H665 C648 0.930 . S
H666 C649 0.930 . S
H667 C650 0.930 . S
H668 C657 0.930 . S
H669 C659 0.930 . S
H670 C660 0.930 . S
H671 C661 0.930 . S
Eu672 N703 2.657 . S
Eu672 N710 2.609 . S
Eu672 O716 2.558 . S
Eu672 O717 2.612 . S
Eu672 O719 2.339 . S
Eu672 O720 2.563 . S
Eu672 O721 2.419 . S
Eu672 O723 2.380 . S
Eu672 O724 2.432 . S
Eu672 C736 2.848 . S
C673 C676 1.429 . S
C673 C677 1.411 . S
C673 N680 1.377 . S
C674 C676 1.420 . S
C674 C678 1.423 . S
C674 C686 1.392 . S
C675 C677 1.420 . S
C675 C678 1.351 . S
C675 H698 0.931 . S
C676 C673 1.429 . S
C676 C674 1.420 . S
C676 N684 1.362 . S
C677 C673 1.411 . S
C677 C675 1.420 . S
C677 C682 1.395 . S
C678 C674 1.423 . S
C678 C675 1.351 . S
C678 H690 0.930 . S
C679 C681 1.400 . S
C679 C682 1.386 . S
C679 H691 0.930 . S
N680 C673 1.377 . S
N680 C681 1.321 . S
N680 Eu683 2.609 . S
C681 C679 1.400 . S
C681 N680 1.321 . S
C681 H688 0.930 . S
C682 C677 1.395 . S
C682 C679 1.386 . S
C682 H701 0.930 . S
Eu683 N680 2.609 . S
Eu683 N684 2.657 . S
Eu683 O717 2.380 . S
Eu683 O718 2.432 . S
Eu683 O722 2.558 . S
Eu683 O723 2.612 . S
Eu683 O725 2.339 . S
Eu683 O726 2.563 . S
Eu683 O727 2.419 . S
Eu683 C747 2.848 . S
N684 C676 1.362 . S
N684 Eu683 2.657 . S
N684 C685 1.334 . S
C685 N684 1.334 . S
C685 C687 1.413 . S
C685 H692 0.929 . S
C686 C674 1.392 . S
C686 C687 1.367 . S
C686 H694 0.930 . S
C687 C685 1.413 . S
C687 C686 1.367 . S
C687 H689 0.930 . S
H688 C681 0.930 . S
H689 C687 0.930 . S
H690 C678 0.930 . S
H691 C679 0.930 . S
H692 C685 0.929 . S
H693 C707 0.930 . S
H694 C686 0.930 . S
H695 C713 0.930 . S
H696 C704 0.929 . S
H697 C711 0.930 . S
H698 C675 0.931 . S
H699 C705 0.930 1_455 S
H700 C738 0.930 . S
H701 C682 0.930 . S
H702 C737 0.931 . S
N703 Eu672 2.657 . S
N703 C704 1.334 . S
N703 C708 1.362 . S
C704 H696 0.929 . S
C704 N703 1.334 . S
C704 C707 1.413 . S
C705 H699 0.930 1_655 S
C705 C706 1.392 . S
C705 C707 1.367 . S
C706 C705 1.392 . S
C706 C708 1.420 . S
C706 C738 1.423 1_655 S
C707 H693 0.930 . S
C707 C704 1.413 . S
C707 C705 1.367 . S
C708 N703 1.362 . S
C708 C706 1.420 . S
C708 C712 1.429 . S
H709 C714 0.930 . S
N710 Eu672 2.609 . S
N710 C712 1.377 . S
N710 C713 1.321 . S
C711 H697 0.930 . S
C711 C713 1.400 . S
C711 C714 1.386 . S
C712 C708 1.429 . S
C712 N710 1.377 . S
C712 C715 1.411 . S
C713 H695 0.930 . S
C713 N710 1.321 . S
C713 C711 1.400 . S
C714 H709 0.930 . S
C714 C711 1.386 . S
C714 C715 1.395 . S
C715 C712 1.411 . S
C715 C714 1.395 . S
C715 C737 1.420 1_655 S
O716 Eu672 2.558 . S
O716 C736 1.257 . S
O717 Eu672 2.612 . S
O717 Eu683 2.380 . S
O717 C728 1.276 . S
O718 Eu683 2.432 . S
O718 C735 1.264 . S
O719 Eu672 2.339 . S
O719 C735 1.254 . S
O720 Eu672 2.563 . S
O720 C728 1.235 . S
O721 Eu672 2.419 . S
O721 C736 1.249 . S
O722 Eu683 2.558 . S
O722 C747 1.257 . S
O723 Eu672 2.380 . S
O723 Eu683 2.612 . S
O723 C739 1.276 . S
O724 Eu672 2.432 . S
O724 C746 1.264 . S
O725 Eu683 2.339 . S
O725 C746 1.254 . S
O726 Eu683 2.563 . S
O726 C739 1.235 . S
O727 Eu683 2.419 . S
O727 C747 1.249 . S
C728 O717 1.276 . S
C728 O720 1.235 . S
C729 C731 1.393 . S
C729 C733 1.395 . S
C729 C736 1.492 . S
C730 C731 1.392 . S
C730 C732 1.386 . S
C731 C729 1.393 . S
C731 C730 1.392 . S
C731 H748 0.930 . S
C732 C730 1.386 . S
C732 C734 1.395 . S
C732 H749 0.930 . S
C733 C729 1.395 . S
C733 C734 1.379 . S
C733 H750 0.930 . S
C734 C732 1.395 . S
C734 C733 1.379 . S
C734 H751 0.930 . S
C735 O718 1.264 . S
C735 O719 1.254 . S
C736 Eu672 2.848 . S
C736 O716 1.257 . S
C736 O721 1.249 . S
C736 C729 1.492 . S
C737 H702 0.931 . S
C737 C715 1.420 1_455 S
C737 C738 1.351 . S
C738 H700 0.930 . S
C738 C706 1.423 1_455 S
C738 C737 1.351 . S
C739 O723 1.276 . S
C739 O726 1.235 . S
C740 C741 1.393 . S
C740 C744 1.395 . S
C740 C747 1.492 . S
C741 C740 1.393 . S
C741 C742 1.392 . S
C741 H752 0.930 . S
C742 C741 1.392 . S
C742 C743 1.386 . S
C743 C742 1.386 . S
C743 C745 1.395 . S
C743 H753 0.930 . S
C744 C740 1.395 . S
C744 C745 1.379 . S
C744 H754 0.930 . S
C745 C743 1.395 . S
C745 C744 1.379 . S
C745 H755 0.930 . S
C746 O724 1.264 . S
C746 O725 1.254 . S
C747 Eu683 2.848 . S
C747 O722 1.257 . S
C747 O727 1.249 . S
C747 C740 1.492 . S
H748 C731 0.930 . S
H749 C732 0.930 . S
H750 C733 0.930 . S
H751 C734 0.930 . S
H752 C741 0.930 . S
H753 C743 0.930 . S
H754 C744 0.930 . S
H755 C745 0.930 . S
H756 C762 0.930 . S
H757 C766 0.930 . S
H758 C771 0.929 . S
H759 C769 0.929 . S
H760 C764 0.929 . S
H761 C770 0.929 . S
C762 H756 0.930 . S
C762 C763 1.367 1_556 S
C762 C770 1.378 . S
C763 C762 1.367 1_554 S
C763 C771 1.433 . S
C764 H760 0.929 . S
C764 C766 1.378 . S
C764 C768 1.350 . S
C765 C768 1.463 . S
C765 C770 1.350 1_554 S
C765 N773 1.427 . S
C766 H757 0.930 . S
C766 C764 1.378 . S
C766 C767 1.367 . S
C767 C766 1.367 . S
C767 C769 1.433 1_554 S
C768 C764 1.350 . S
C768 C765 1.463 . S
C768 N772 1.427 1_554 S
C769 H759 0.929 . S
C769 C767 1.433 1_556 S
C769 N772 1.384 . S
C770 H761 0.929 . S
C770 C762 1.378 . S
C770 C765 1.350 1_556 S
C771 H758 0.929 . S
C771 C763 1.433 . S
C771 N773 1.384 . S
N772 C768 1.427 1_556 S
N772 C769 1.384 . S
N773 C765 1.427 . S
N773 C771 1.384 . S
H774 C780 0.930 . S
H775 C784 0.930 . S
H776 C789 0.929 . S
H777 C787 0.929 . S
H778 C782 0.929 . S
H779 C788 0.929 . S
C780 H774 0.930 . S
C780 C781 1.367 1_556 S
C780 C788 1.378 . S
C781 C780 1.367 1_554 S
C781 C789 1.433 . S
C782 H778 0.929 . S
C782 C784 1.378 . S
C782 C786 1.350 . S
C783 C786 1.463 . S
C783 C788 1.350 1_554 S
C783 N791 1.427 . S
C784 H775 0.930 . S
C784 C782 1.378 . S
C784 C785 1.367 . S
C785 C784 1.367 . S
C785 C787 1.433 1_554 S
C786 C782 1.350 . S
C786 C783 1.463 . S
C786 N790 1.427 1_554 S
C787 H777 0.929 . S
C787 C785 1.433 1_556 S
C787 N790 1.384 . S
C788 H779 0.929 . S
C788 C780 1.378 . S
C788 C783 1.350 1_556 S
C789 H776 0.929 . S
C789 C781 1.433 . S
C789 N791 1.384 . S
N790 C786 1.427 1_556 S
N790 C787 1.384 . S
N791 C783 1.427 . S
N791 C789 1.384 . S
H792 C798 0.930 . S
H793 C802 0.930 . S
H794 C807 0.929 . S
H795 C805 0.929 . S
H796 C800 0.929 . S
H797 C806 0.929 . S
C798 H792 0.930 . S
C798 C799 1.367 . S
C798 C806 1.378 . S
C799 C798 1.367 . S
C799 C807 1.433 1_554 S
C800 H796 0.929 . S
C800 C802 1.378 . S
C800 C804 1.350 1_556 S
C801 C804 1.463 . S
C801 C806 1.350 . S
C801 N809 1.427 1_554 S
C802 H793 0.930 . S
C802 C800 1.378 . S
C802 C803 1.367 1_556 S
C803 C802 1.367 1_554 S
C803 C805 1.433 . S
C804 C800 1.350 1_554 S
C804 C801 1.463 . S
C804 N808 1.427 . S
C805 H795 0.929 . S
C805 C803 1.433 . S
C805 N808 1.384 . S
C806 H797 0.929 . S
C806 C798 1.378 . S
C806 C801 1.350 . S
C807 H794 0.929 . S
C807 C799 1.433 1_556 S
C807 N809 1.384 . S
N808 C804 1.427 . S
N808 C805 1.384 . S
N809 C801 1.427 1_556 S
N809 C807 1.384 . S
H810 C816 0.930 . S
H811 C820 0.930 . S
H812 C825 0.929 . S
H813 C823 0.929 . S
H814 C818 0.929 . S
H815 C824 0.929 . S
C816 H810 0.930 . S
C816 C817 1.367 1_554 S
C816 C824 1.378 . S
C817 C816 1.367 1_556 S
C817 C825 1.433 . S
C818 H814 0.929 . S
C818 C820 1.378 . S
C818 C822 1.350 . S
C819 C822 1.463 . S
C819 C824 1.350 1_556 S
C819 N827 1.427 . S
C820 H811 0.930 . S
C820 C818 1.378 . S
C820 C821 1.367 1_556 S
C821 C820 1.367 1_554 S
C821 C823 1.433 . S
C822 C818 1.350 . S
C822 C819 1.463 . S
C822 N826 1.427 1_556 S
C823 H813 0.929 . S
C823 C821 1.433 . S
C823 N826 1.384 . S
C824 H815 0.929 . S
C824 C816 1.378 . S
C824 C819 1.350 1_554 S
C825 H812 0.929 . S
C825 C817 1.433 . S
C825 N827 1.384 . S
N826 C822 1.427 1_554 S
N826 C823 1.384 . S
N827 C819 1.427 . S
N827 C825 1.384 . S
H828 C834 0.930 . S
H829 C838 0.930 . S
H830 C843 0.929 . S
H831 C841 0.929 . S
H832 C836 0.929 . S
H833 C842 0.929 . S
C834 H828 0.930 . S
C834 C835 1.367 . S
C834 C842 1.378 . S
C835 C834 1.367 . S
C835 C843 1.433 1_554 S
C836 H832 0.929 . S
C836 C838 1.378 . S
C836 C840 1.350 . S
C837 C840 1.463 . S
C837 C842 1.350 1_556 S
C837 N845 1.427 . S
C838 H829 0.930 . S
C838 C836 1.378 . S
C838 C839 1.367 . S
C839 C838 1.367 . S
C839 C841 1.433 1_556 S
C840 C836 1.350 . S
C840 C837 1.463 . S
C840 N844 1.427 1_556 S
C841 H831 0.929 . S
C841 C839 1.433 1_554 S
C841 N844 1.384 . S
C842 H833 0.929 . S
C842 C834 1.378 . S
C842 C837 1.350 1_554 S
C843 H830 0.929 . S
C843 C835 1.433 1_556 S
C843 N845 1.384 . S
N844 C840 1.427 1_554 S
N844 C841 1.384 . S
N845 C837 1.427 . S
N845 C843 1.384 . S
H846 C852 0.930 . S
H847 C856 0.930 . S
H848 C861 0.929 . S
H849 C859 0.929 . S
H850 C854 0.926 1_554 S
H851 C860 0.929 . S
C852 H846 0.930 . S
C852 C853 1.367 1_556 S
C852 C860 1.378 . S
C853 C852 1.367 1_554 S
C853 C861 1.433 . S
C854 H850 0.926 1_556 S
C854 C856 1.378 . S
C854 C858 1.350 . S
C855 C858 1.463 . S
C855 C860 1.350 . S
C855 N863 1.427 1_556 S
C856 H847 0.930 . S
C856 C854 1.378 . S
C856 C857 1.367 . S
C857 C856 1.367 . S
C857 C859 1.433 . S
C858 C854 1.350 . S
C858 C855 1.463 . S
C858 N862 1.427 . S
C859 H849 0.929 . S
C859 C857 1.433 . S
C859 N862 1.384 . S
C860 H851 0.929 . S
C860 C852 1.378 . S
C860 C855 1.350 . S
C861 H848 0.929 . S
C861 C853 1.433 . S
C861 N863 1.384 . S
N862 C858 1.427 . S
N862 C859 1.384 . S
N863 C855 1.427 1_554 S
N863 C861 1.384 . S
H864 C870 0.930 . S
H865 C874 0.930 . S
H866 C879 0.929 . S
H867 C877 0.929 . S
H868 C872 0.929 . S
H869 C878 0.929 . S
C870 H864 0.930 . S
C870 C871 1.367 . S
C870 C878 1.378 . S
C871 C870 1.367 . S
C871 C879 1.433 . S
C872 H868 0.929 . S
C872 C874 1.378 . S
C872 C876 1.350 . S
C873 C876 1.463 . S
C873 C878 1.350 . S
C873 N881 1.427 . S
C874 H865 0.930 . S
C874 C872 1.378 . S
C874 C875 1.367 . S
C875 C874 1.367 . S
C875 C877 1.433 . S
C876 C872 1.350 . S
C876 C873 1.463 . S
C876 N880 1.427 . S
C877 H867 0.929 . S
C877 C875 1.433 . S
C877 N880 1.384 . S
C878 H869 0.929 . S
C878 C870 1.378 . S
C878 C873 1.350 . S
C879 H866 0.929 . S
C879 C871 1.433 . S
C879 N881 1.384 . S
N880 C876 1.427 . S
N880 C877 1.384 . S
N881 C873 1.427 . S
N881 C879 1.384 . S
H882 C888 0.930 . S
H883 C892 0.930 . S
H884 C897 0.929 . S
H885 C895 0.930 1_545 S
H886 C890 0.929 . S
H887 C896 0.929 . S
C888 H882 0.930 . S
C888 C889 1.367 . S
C888 C896 1.378 . S
C889 C888 1.367 . S
C889 C897 1.433 . S
C890 H886 0.929 . S
C890 C892 1.378 . S
C890 C894 1.350 1_565 S
C891 C894 1.463 . S
C891 C896 1.350 . S
C891 N899 1.427 . S
C892 H883 0.930 . S
C892 C890 1.378 . S
C892 C893 1.367 . S
C893 C892 1.367 . S
C893 C895 1.433 . S
C894 C890 1.350 1_545 S
C894 C891 1.463 . S
C894 N898 1.427 . S
C895 H885 0.930 1_565 S
C895 C893 1.433 . S
C895 N898 1.384 1_565 S
C896 H887 0.929 . S
C896 C888 1.378 . S
C896 C891 1.350 . S
C897 H884 0.929 . S
C897 C889 1.433 . S
C897 N899 1.384 . S
N898 C894 1.427 . S
N898 C895 1.384 1_545 S
N899 C891 1.427 . S
N899 C897 1.384 . S
H900 C906 0.930 . S
H901 C910 0.930 . S
H902 C915 0.929 . S
H903 C913 0.929 . S
H904 C908 0.929 . S
H905 C914 0.929 . S
C906 H900 0.930 . S
C906 C907 1.367 . S
C906 C914 1.378 1_455 S
C907 C906 1.367 . S
C907 C915 1.433 . S
C908 H904 0.929 . S
C908 C910 1.378 . S
C908 C912 1.350 . S
C909 C912 1.463 . S
C909 C914 1.350 . S
C909 N917 1.427 1_655 S
C910 H901 0.930 . S
C910 C908 1.378 . S
C910 C911 1.367 . S
C911 C910 1.367 . S
C911 C913 1.433 . S
C912 C908 1.350 . S
C912 C909 1.463 . S
C912 N916 1.427 . S
C913 H903 0.929 . S
C913 C911 1.433 . S
C913 N916 1.384 . S
C914 H905 0.929 . S
C914 C906 1.378 1_655 S
C914 C909 1.350 . S
C915 H902 0.929 . S
C915 C907 1.433 . S
C915 N917 1.384 . S
N916 C912 1.427 . S
N916 C913 1.384 . S
N917 C909 1.427 1_455 S
N917 C915 1.384 . S
H918 C924 0.930 . S
H919 C928 0.930 . S
H920 C933 0.929 . S
H921 C931 0.929 . S
H922 C926 0.929 . S
H923 C932 0.929 . S
C924 H918 0.930 . S
C924 C925 1.367 . S
C924 C932 1.378 . S
C925 C924 1.367 . S
C925 C933 1.433 . S
C926 H922 0.929 . S
C926 C928 1.378 . S
C926 C930 1.350 . S
C927 C930 1.463 . S
C927 C932 1.350 . S
C927 N935 1.427 . S
C928 H919 0.930 . S
C928 C926 1.378 . S
C928 C929 1.367 . S
C929 C928 1.367 . S
C929 C931 1.433 . S
C930 C926 1.350 . S
C930 C927 1.463 . S
C930 N934 1.427 . S
C931 H921 0.929 . S
C931 C929 1.433 . S
C931 N934 1.384 . S
C932 H923 0.929 . S
C932 C924 1.378 . S
C932 C927 1.350 . S
C933 H920 0.929 . S
C933 C925 1.433 . S
C933 N935 1.384 . S
N934 C930 1.427 . S
N934 C931 1.384 . S
N935 C927 1.427 . S
N935 C933 1.384 . S
H936 C942 0.930 . S
H937 C946 0.930 . S
H938 C951 0.929 . S
H939 C949 0.929 . S
H940 C944 0.929 . S
H941 C950 0.929 . S
C942 H936 0.930 . S
C942 C943 1.367 . S
C942 C950 1.378 . S
C943 C942 1.367 . S
C943 C951 1.433 . S
C944 H940 0.929 . S
C944 C946 1.378 . S
C944 C948 1.350 . S
C945 C948 1.463 . S
C945 C950 1.350 . S
C945 N953 1.427 . S
C946 H937 0.930 . S
C946 C944 1.378 . S
C946 C947 1.367 . S
C947 C946 1.367 . S
C947 C949 1.433 . S
C948 C944 1.350 . S
C948 C945 1.463 . S
C948 N952 1.427 . S
C949 H939 0.929 . S
C949 C947 1.433 . S
C949 N952 1.384 . S
C950 H941 0.929 . S
C950 C942 1.378 . S
C950 C945 1.350 . S
C951 H938 0.929 . S
C951 C943 1.433 . S
C951 N953 1.384 . S
N952 C948 1.427 . S
N952 C949 1.384 . S
N953 C945 1.427 . S
N953 C951 1.384 . S
H954 C960 0.930 . S
H955 C964 0.930 . S
H956 C969 0.929 . S
H957 C967 0.929 . S
H958 C962 0.929 . S
H959 C968 0.929 . S
C960 H954 0.930 . S
C960 C961 1.367 . S
C960 C968 1.378 . S
C961 C960 1.367 . S
C961 C969 1.433 . S
C962 H958 0.929 . S
C962 C964 1.378 . S
C962 C966 1.350 . S
C963 C966 1.463 . S
C963 C968 1.350 . S
C963 N971 1.427 . S
C964 H955 0.930 . S
C964 C962 1.378 . S
C964 C965 1.367 . S
C965 C964 1.367 . S
C965 C967 1.433 . S
C966 C962 1.350 . S
C966 C963 1.463 . S
C966 N970 1.427 . S
C967 H957 0.929 . S
C967 C965 1.433 . S
C967 N970 1.384 . S
C968 H959 0.929 . S
C968 C960 1.378 . S
C968 C963 1.350 . S
C969 H956 0.929 . S
C969 C961 1.433 . S
C969 N971 1.384 . S
N970 C966 1.427 . S
N970 C967 1.384 . S
N971 C963 1.427 . S
N971 C969 1.384 . S
H972 C978 0.930 . S
H973 C982 0.930 . S
H974 C987 0.929 . S
H975 C985 0.929 . S
H976 C980 0.929 . S
H977 C986 0.929 . S
C978 H972 0.930 . S
C978 C979 1.367 . S
C978 C986 1.378 . S
C979 C978 1.367 . S
C979 C987 1.433 . S
C980 H976 0.929 . S
C980 C982 1.378 . S
C980 C984 1.350 . S
C981 C984 1.463 . S
C981 C986 1.350 . S
C981 N989 1.427 . S
C982 H973 0.930 . S
C982 C980 1.378 . S
C982 C983 1.367 . S
C983 C982 1.367 . S
C983 C985 1.433 . S
C984 C980 1.350 . S
C984 C981 1.463 . S
C984 N988 1.427 . S
C985 H975 0.929 . S
C985 C983 1.433 . S
C985 N988 1.384 . S
C986 H977 0.929 . S
C986 C978 1.378 . S
C986 C981 1.350 . S
C987 H974 0.929 . S
C987 C979 1.433 . S
C987 N989 1.384 . S
N988 C984 1.427 . S
N988 C985 1.384 . S
N989 C981 1.427 . S
N989 C987 1.384 . S
H990 C996 0.930 . S
H991 C1000 0.930 . S
H992 C1005 0.929 . S
H993 C1003 0.929 . S
H994 C998 0.929 . S
H995 C1004 0.929 . S
C996 H990 0.930 . S
C996 C997 1.367 . S
C996 C1004 1.378 . S
C997 C996 1.367 . S
C997 C1005 1.433 . S
C998 H994 0.929 . S
C998 C1000 1.378 . S
C998 C1002 1.350 . S
C999 C1002 1.463 . S
C999 C1004 1.350 . S
C999 N1007 1.427 . S
C1000 H991 0.930 . S
C1000 C998 1.378 . S
C1000 C1001 1.367 . S
C1001 C1000 1.367 . S
C1001 C1003 1.433 . S
C1002 C998 1.350 . S
C1002 C999 1.463 . S
C1002 N1006 1.427 . S
C1003 H993 0.929 . S
C1003 C1001 1.433 . S
C1003 N1006 1.384 . S
C1004 H995 0.929 . S
C1004 C996 1.378 . S
C1004 C999 1.350 . S
C1005 H992 0.929 . S
C1005 C997 1.433 . S
C1005 N1007 1.384 . S
N1006 C1002 1.427 . S
N1006 C1003 1.384 . S
N1007 C999 1.427 . S
N1007 C1005 1.384 . S
H1008 C1014 0.930 . S
H1009 C1018 0.930 . S
H1010 C1023 0.929 . S
H1011 C1021 0.929 . S
H1012 C1016 0.929 . S
H1013 C1022 0.929 . S
C1014 H1008 0.930 . S
C1014 C1015 1.367 . S
C1014 C1022 1.378 . S
C1015 C1014 1.367 . S
C1015 C1023 1.433 . S
C1016 H1012 0.929 . S
C1016 C1018 1.378 . S
C1016 C1020 1.350 . S
C1017 C1020 1.463 . S
C1017 C1022 1.350 . S
C1017 N1025 1.427 . S
C1018 H1009 0.930 . S
C1018 C1016 1.378 . S
C1018 C1019 1.367 . S
C1019 C1018 1.367 . S
C1019 C1021 1.433 . S
C1020 C1016 1.350 . S
C1020 C1017 1.463 . S
C1020 N1024 1.427 . S
C1021 H1011 0.929 . S
C1021 C1019 1.433 . S
C1021 N1024 1.384 . S
C1022 H1013 0.929 . S
C1022 C1014 1.378 . S
C1022 C1017 1.350 . S
C1023 H1010 0.929 . S
C1023 C1015 1.433 . S
C1023 N1025 1.384 . S
N1024 C1020 1.427 . S
N1024 C1021 1.384 . S
N1025 C1017 1.427 . S
N1025 C1023 1.384 . S
H1026 C1032 0.930 . S
H1027 C1036 0.930 . S
H1028 C1041 0.929 . S
H1029 C1039 0.929 . S
H1030 C1034 0.929 . S
H1031 C1040 0.929 . S
C1032 H1026 0.930 . S
C1032 C1033 1.367 . S
C1032 C1040 1.378 . S
C1033 C1032 1.367 . S
C1033 C1041 1.433 . S
C1034 H1030 0.929 . S
C1034 C1036 1.378 . S
C1034 C1038 1.350 . S
C1035 C1038 1.463 1_565 S
C1035 C1040 1.350 . S
C1035 N1043 1.427 . S
C1036 H1027 0.930 . S
C1036 C1034 1.378 . S
C1036 C1037 1.367 . S
C1037 C1036 1.367 . S
C1037 C1039 1.433 . S
C1038 C1034 1.350 . S
C1038 C1035 1.463 1_545 S
C1038 N1042 1.427 . S
C1039 H1029 0.929 . S
C1039 C1037 1.433 . S
C1039 N1042 1.384 . S
C1040 H1031 0.929 . S
C1040 C1032 1.378 . S
C1040 C1035 1.350 . S
C1041 H1028 0.929 . S
C1041 C1033 1.433 . S
C1041 N1043 1.384 . S
N1042 C1038 1.427 . S
N1042 C1039 1.384 . S
N1043 C1035 1.427 . S
N1043 C1041 1.384 . S
H1044 C1050 0.930 . S
H1045 C1054 0.930 . S
H1046 C1059 0.929 . S
H1047 C1057 0.929 . S
H1048 C1052 0.929 . S
H1049 C1058 0.929 . S
C1050 H1044 0.930 . S
C1050 C1051 1.367 . S
C1050 C1058 1.378 . S
C1051 C1050 1.367 . S
C1051 C1059 1.433 . S
C1052 H1048 0.929 . S
C1052 C1054 1.378 . S
C1052 C1056 1.350 . S
C1053 C1056 1.463 1_655 S
C1053 C1058 1.350 . S
C1053 N1061 1.427 . S
C1054 H1045 0.930 . S
C1054 C1052 1.378 . S
C1054 C1055 1.367 . S
C1055 C1054 1.367 . S
C1055 C1057 1.433 . S
C1056 C1052 1.350 . S
C1056 C1053 1.463 1_455 S
C1056 N1060 1.427 . S
C1057 H1047 0.929 . S
C1057 C1055 1.433 . S
C1057 N1060 1.384 . S
C1058 H1049 0.929 . S
C1058 C1050 1.378 . S
C1058 C1053 1.350 . S
C1059 H1046 0.929 . S
C1059 C1051 1.433 . S
C1059 N1061 1.384 . S
N1060 C1056 1.427 . S
N1060 C1057 1.384 . S
N1061 C1053 1.427 . S
N1061 C1059 1.384 . S
H1062 C1068 0.930 . S
H1063 C1072 0.930 . S
H1064 C1077 0.929 . S
H1065 C1075 0.929 . S
H1066 C1070 0.929 . S
H1067 C1076 0.929 . S
C1068 H1062 0.930 . S
C1068 C1069 1.367 . S
C1068 C1076 1.378 . S
C1069 C1068 1.367 . S
C1069 C1077 1.433 . S
C1070 H1066 0.929 . S
C1070 C1072 1.378 . S
C1070 C1074 1.350 . S
C1071 C1074 1.463 . S
C1071 C1076 1.350 . S
C1071 N1079 1.427 . S
C1072 H1063 0.930 . S
C1072 C1070 1.378 . S
C1072 C1073 1.367 . S
C1073 C1072 1.367 . S
C1073 C1075 1.433 . S
C1074 C1070 1.350 . S
C1074 C1071 1.463 . S
C1074 N1078 1.427 . S
C1075 H1065 0.929 . S
C1075 C1073 1.433 . S
C1075 N1078 1.384 . S
C1076 H1067 0.929 . S
C1076 C1068 1.378 . S
C1076 C1071 1.350 . S
C1077 H1064 0.929 . S
C1077 C1069 1.433 . S
C1077 N1079 1.384 . S
N1078 C1074 1.427 . S
N1078 C1075 1.384 . S
N1079 C1071 1.427 . S
N1079 C1077 1.384 . S
H1080 C1086 0.930 . S
H1081 C1090 0.930 . S
H1082 C1095 0.929 . S
H1083 C1093 0.929 . S
H1084 C1088 0.929 . S
H1085 C1094 0.929 . S
C1086 H1080 0.930 . S
C1086 C1087 1.367 . S
C1086 C1094 1.378 . S
C1087 C1086 1.367 . S
C1087 C1095 1.433 . S
C1088 H1084 0.929 . S
C1088 C1090 1.378 . S
C1088 C1092 1.350 . S
C1089 C1092 1.463 . S
C1089 C1094 1.350 . S
C1089 N1097 1.427 . S
C1090 H1081 0.930 . S
C1090 C1088 1.378 . S
C1090 C1091 1.367 . S
C1091 C1090 1.367 . S
C1091 C1093 1.433 . S
C1092 C1088 1.350 . S
C1092 C1089 1.463 . S
C1092 N1096 1.427 . S
C1093 H1083 0.929 . S
C1093 C1091 1.433 . S
C1093 N1096 1.384 . S
C1094 H1085 0.929 . S
C1094 C1086 1.378 . S
C1094 C1089 1.350 . S
C1095 H1082 0.929 . S
C1095 C1087 1.433 . S
C1095 N1097 1.384 . S
N1096 C1092 1.427 . S
N1096 C1093 1.384 . S
N1097 C1089 1.427 . S
N1097 C1095 1.384 . S
H1098 C1104 0.930 . S
H1099 C1108 0.930 . S
H1100 C1113 0.929 . S
H1101 C1111 0.929 . S
H1102 C1106 0.929 . S
H1103 C1112 0.929 . S
C1104 H1098 0.930 . S
C1104 C1105 1.367 . S
C1104 C1112 1.378 . S
C1105 C1104 1.367 . S
C1105 C1113 1.433 . S
C1106 H1102 0.929 . S
C1106 C1108 1.378 . S
C1106 C1110 1.350 . S
C1107 C1110 1.463 . S
C1107 C1112 1.350 . S
C1107 N1115 1.427 . S
C1108 H1099 0.930 . S
C1108 C1106 1.378 . S
C1108 C1109 1.367 . S
C1109 C1108 1.367 . S
C1109 C1111 1.433 . S
C1110 C1106 1.350 . S
C1110 C1107 1.463 . S
C1110 N1114 1.427 . S
C1111 H1101 0.929 . S
C1111 C1109 1.433 . S
C1111 N1114 1.384 . S
C1112 H1103 0.929 . S
C1112 C1104 1.378 . S
C1112 C1107 1.350 . S
C1113 H1100 0.929 . S
C1113 C1105 1.433 . S
C1113 N1115 1.384 . S
N1114 C1110 1.427 . S
N1114 C1111 1.384 . S
N1115 C1107 1.427 . S
N1115 C1113 1.384 . S
H1116 C1122 0.930 . S
H1117 C1126 0.930 . S
H1118 C1131 0.929 . S
H1119 C1129 0.929 . S
H1120 C1124 0.929 . S
H1121 C1130 0.929 . S
C1122 H1116 0.930 . S
C1122 C1123 1.367 . S
C1122 C1130 1.378 . S
C1123 C1122 1.367 . S
C1123 C1131 1.433 . S
C1124 H1120 0.929 . S
C1124 C1126 1.378 . S
C1124 C1128 1.350 . S
C1125 C1128 1.463 . S
C1125 C1130 1.350 . S
C1125 N1133 1.427 . S
C1126 H1117 0.930 . S
C1126 C1124 1.378 . S
C1126 C1127 1.367 . S
C1127 C1126 1.367 . S
C1127 C1129 1.433 . S
C1128 C1124 1.350 . S
C1128 C1125 1.463 . S
C1128 N1132 1.427 . S
C1129 H1119 0.929 . S
C1129 C1127 1.433 . S
C1129 N1132 1.384 . S
C1130 H1121 0.929 . S
C1130 C1122 1.378 . S
C1130 C1125 1.350 . S
C1131 H1118 0.929 . S
C1131 C1123 1.433 . S
C1131 N1133 1.384 . S
N1132 C1128 1.427 . S
N1132 C1129 1.384 . S
N1133 C1125 1.427 . S
N1133 C1131 1.384 . S
H1134 C1140 0.930 . S
H1135 C1144 0.930 . S
H1136 C1149 0.929 . S
H1137 C1147 0.929 . S
H1138 C1142 0.929 . S
H1139 C1148 0.929 . S
C1140 H1134 0.930 . S
C1140 C1141 1.367 . S
C1140 C1148 1.378 . S
C1141 C1140 1.367 . S
C1141 C1149 1.433 . S
C1142 H1138 0.929 . S
C1142 C1144 1.378 . S
C1142 C1146 1.350 . S
C1143 C1146 1.463 . S
C1143 C1148 1.350 . S
C1143 N1151 1.427 . S
C1144 H1135 0.930 . S
C1144 C1142 1.378 . S
C1144 C1145 1.367 . S
C1145 C1144 1.367 . S
C1145 C1147 1.433 . S
C1146 C1142 1.350 . S
C1146 C1143 1.463 . S
C1146 N1150 1.427 . S
C1147 H1137 0.929 . S
C1147 C1145 1.433 . S
C1147 N1150 1.384 . S
C1148 H1139 0.929 . S
C1148 C1140 1.378 . S
C1148 C1143 1.350 . S
C1149 H1136 0.929 . S
C1149 C1141 1.433 . S
C1149 N1151 1.384 . S
N1150 C1146 1.427 . S
N1150 C1147 1.384 . S
N1151 C1143 1.427 . S
N1151 C1149 1.384 . S
H1152 C1158 0.930 . S
H1153 C1162 0.930 . S
H1154 C1167 0.929 . S
H1155 C1165 0.929 . S
H1156 C1160 0.929 . S
H1157 C1166 0.929 . S
C1158 H1152 0.930 . S
C1158 C1159 1.367 . S
C1158 C1166 1.378 . S
C1159 C1158 1.367 . S
C1159 C1167 1.433 . S
C1160 H1156 0.929 . S
C1160 C1162 1.378 . S
C1160 C1164 1.350 . S
C1161 C1164 1.463 . S
C1161 C1166 1.350 . S
C1161 N1169 1.427 . S
C1162 H1153 0.930 . S
C1162 C1160 1.378 . S
C1162 C1163 1.367 . S
C1163 C1162 1.367 . S
C1163 C1165 1.433 . S
C1164 C1160 1.350 . S
C1164 C1161 1.463 . S
C1164 N1168 1.427 . S
C1165 H1155 0.929 . S
C1165 C1163 1.433 . S
C1165 N1168 1.384 . S
C1166 H1157 0.929 . S
C1166 C1158 1.378 . S
C1166 C1161 1.350 . S
C1167 H1154 0.929 . S
C1167 C1159 1.433 . S
C1167 N1169 1.384 . S
N1168 C1164 1.427 . S
N1168 C1165 1.384 . S
N1169 C1161 1.427 . S
N1169 C1167 1.384 . S
H1170 C1176 0.930 . S
H1171 C1180 0.930 . S
H1172 C1185 0.929 . S
H1173 C1183 0.929 . S
H1174 C1178 0.929 . S
H1175 C1184 0.929 . S
C1176 H1170 0.930 . S
C1176 C1177 1.367 . S
C1176 C1184 1.378 . S
C1177 C1176 1.367 . S
C1177 C1185 1.433 . S
C1178 H1174 0.929 . S
C1178 C1180 1.378 . S
C1178 C1182 1.350 . S
C1179 C1182 1.463 . S
C1179 C1184 1.350 . S
C1179 N1187 1.427 . S
C1180 H1171 0.930 . S
C1180 C1178 1.378 . S
C1180 C1181 1.367 . S
C1181 C1180 1.367 . S
C1181 C1183 1.433 . S
C1182 C1178 1.350 . S
C1182 C1179 1.463 . S
C1182 N1186 1.427 . S
C1183 H1173 0.929 . S
C1183 C1181 1.433 . S
C1183 N1186 1.384 . S
C1184 H1175 0.929 . S
C1184 C1176 1.378 . S
C1184 C1179 1.350 . S
C1185 H1172 0.929 . S
C1185 C1177 1.433 . S
C1185 N1187 1.384 . S
N1186 C1182 1.427 . S
N1186 C1183 1.384 . S
N1187 C1179 1.427 . S
N1187 C1185 1.384 . S
H1188 C1194 0.930 . S
H1189 C1198 0.930 . S
H1190 C1203 0.929 . S
H1191 C1201 0.929 . S
H1192 C1196 0.929 . S
H1193 C1202 0.929 . S
C1194 H1188 0.930 . S
C1194 C1195 1.367 . S
C1194 C1202 1.378 . S
C1195 C1194 1.367 . S
C1195 C1203 1.433 . S
C1196 H1192 0.929 . S
C1196 C1198 1.378 . S
C1196 C1200 1.350 . S
C1197 C1200 1.463 . S
C1197 C1202 1.350 . S
C1197 N1205 1.427 . S
C1198 H1189 0.930 . S
C1198 C1196 1.378 . S
C1198 C1199 1.367 . S
C1199 C1198 1.367 . S
C1199 C1201 1.433 . S
C1200 C1196 1.350 . S
C1200 C1197 1.463 . S
C1200 N1204 1.427 . S
C1201 H1191 0.929 . S
C1201 C1199 1.433 . S
C1201 N1204 1.384 . S
C1202 H1193 0.929 . S
C1202 C1194 1.378 . S
C1202 C1197 1.350 . S
C1203 H1190 0.929 . S
C1203 C1195 1.433 . S
C1203 N1205 1.384 . S
N1204 C1200 1.427 . S
N1204 C1201 1.384 . S
N1205 C1197 1.427 . S
N1205 C1203 1.384 . S
H1206 C1212 0.930 . S
H1207 C1216 0.930 . S
H1208 C1221 0.929 . S
H1209 C1219 0.929 . S
H1210 C1214 0.929 . S
H1211 C1220 0.929 . S
C1212 H1206 0.930 . S
C1212 C1213 1.367 . S
C1212 C1220 1.378 . S
C1213 C1212 1.367 . S
C1213 C1221 1.433 . S
C1214 H1210 0.929 . S
C1214 C1216 1.378 . S
C1214 C1218 1.350 . S
C1215 C1218 1.463 1_565 S
C1215 C1220 1.350 . S
C1215 N1223 1.427 . S
C1216 H1207 0.930 . S
C1216 C1214 1.378 . S
C1216 C1217 1.367 . S
C1217 C1216 1.367 . S
C1217 C1219 1.433 . S
C1218 C1214 1.350 . S
C1218 C1215 1.463 1_545 S
C1218 N1222 1.427 . S
C1219 H1209 0.929 . S
C1219 C1217 1.433 . S
C1219 N1222 1.384 . S
C1220 H1211 0.929 . S
C1220 C1212 1.378 . S
C1220 C1215 1.350 . S
C1221 H1208 0.929 . S
C1221 C1213 1.433 . S
C1221 N1223 1.384 . S
N1222 C1218 1.427 . S
N1222 C1219 1.384 . S
N1223 C1215 1.427 . S
N1223 C1221 1.384 . S
H1224 C1230 0.930 . S
H1225 C1234 0.930 . S
H1226 C1239 0.929 . S
H1227 C1237 0.929 . S
H1228 C1232 0.929 . S
H1229 C1238 0.929 . S
C1230 H1224 0.930 . S
C1230 C1231 1.367 . S
C1230 C1238 1.378 . S
C1231 C1230 1.367 . S
C1231 C1239 1.433 . S
C1232 H1228 0.929 . S
C1232 C1234 1.378 . S
C1232 C1236 1.350 . S
C1233 C1236 1.463 1_655 S
C1233 C1238 1.350 . S
C1233 N1241 1.419 . S
C1234 H1225 0.930 . S
C1234 C1232 1.378 . S
C1234 C1235 1.367 . S
C1235 C1234 1.367 . S
C1235 C1237 1.433 . S
C1236 C1232 1.350 . S
C1236 C1233 1.463 1_455 S
C1236 N1240 1.427 . S
C1237 H1227 0.929 . S
C1237 C1235 1.433 . S
C1237 N1240 1.384 . S
C1238 H1229 0.929 . S
C1238 C1230 1.378 . S
C1238 C1233 1.350 . S
C1239 H1226 0.929 . S
C1239 C1231 1.433 . S
C1239 N1241 1.402 . S
N1240 C1236 1.427 . S
N1240 C1237 1.384 . S
N1241 C1233 1.419 . S
N1241 C1239 1.402 . S
C763 C142 1.163 . S
C767 C56 1.349 1_554 S
C781 C226 1.169 . S
C785 C140 1.353 1_554 S
C799 C224 1.346 1_554 S
C803 C58 1.160 . S
C817 C238 1.177 . S
C821 C151 1.338 . S
C835 C235 1.330 . S
C839 C70 1.192 . S
C853 C67 1.329 . S
C857 C154 1.172 . S
C871 C308 1.335 . S
C875 C394 1.162 . S
C889 C478 1.176 . S
C893 C392 1.335 . S
C907 C476 1.356 . S
C911 C310 1.175 . S
C925 C403 1.337 . S
C929 C490 1.187 . S
C943 C487 1.330 . S
C947 C322 1.193 . S
C961 C406 1.195 . S
C965 C319 1.333 . S
C979 C646 1.192 . S
C983 C560 1.351 . S
C997 C644 1.356 . S
C1001 C730 1.180 . S
C1015 C728 1.340 . S
C1019 C562 1.187 . S
C1033 C742 1.191 . S
C1037 C655 1.329 . S
C1051 C739 1.334 . S
C1055 C574 1.164 . S
C1069 C571 1.329 . S
C1073 C658 1.171 . S
C1087 C494 2.573 . S
C1091 C63 2.632 . S
C1105 C326 2.568 . S
C1109 C147 2.638 . S
C1123 C231 2.631 . S
C1127 C410 2.567 . S
C1141 C242 2.569 . S
C1145 C567 2.638 . S
C1159 C74 2.567 . S
C1163 C651 2.639 . S
C1177 C735 2.639 . S
C1181 C158 2.562 . S
C1195 C315 2.639 . S
C1199 C746 2.562 . S
C1213 C399 2.634 . S
C1217 C578 2.573 . S
C1231 C662 2.573 . S
C1235 C483 2.633 . S
