# Generated by pormake.
# Topology zfe, (5)-cn, num edge types: 1
# Building blocks:
#     Node 0, Type 0, BuildingBlock: XOMCOT_clean_sbu_1, # of connection points: 5
#     Node 1, Type 0, BuildingBlock: XOMCOT_clean_sbu_1, # of connection points: 5
#     Node 2, Type 0, BuildingBlock: XOMCOT_clean_sbu_1, # of connection points: 5
#     Node 3, Type 0, BuildingBlock: XOMCOT_clean_sbu_1, # of connection points: 5
#     Node 4, Type 0, BuildingBlock: XOMCOT_clean_sbu_1, # of connection points: 5
#     Node 5, Type 0, BuildingBlock: XOMCOT_clean_sbu_1, # of connection points: 5
#     Node 6, Type 0, BuildingBlock: XOMCOT_clean_sbu_1, # of connection points: 5
#     Node 7, Type 0, BuildingBlock: XOMCOT_clean_sbu_1, # of connection points: 5
#     Node 8, Type 0, BuildingBlock: XOMCOT_clean_sbu_1, # of connection points: 5
#     Node 9, Type 0, BuildingBlock: XOMCOT_clean_sbu_1, # of connection points: 5
#     Node 10, Type 0, BuildingBlock: XOMCOT_clean_sbu_1, # of connection points: 5
#     Node 11, Type 0, BuildingBlock: XOMCOT_clean_sbu_1, # of connection points: 5
#     Node 12, Type 0, BuildingBlock: XOMCOT_clean_sbu_1, # of connection points: 5
#     Node 13, Type 0, BuildingBlock: XOMCOT_clean_sbu_1, # of connection points: 5
#     Node 14, Type 0, BuildingBlock: XOMCOT_clean_sbu_1, # of connection points: 5
#     Node 15, Type 0, BuildingBlock: XOMCOT_clean_sbu_1, # of connection points: 5
#     Edge 16, Type (0, 0), BuildingBlock: OJICUG_clean_linker_0, # of connection points: 2
#     Edge 17, Type (0, 0), BuildingBlock: OJICUG_clean_linker_0, # of connection points: 2
#     Edge 18, Type (0, 0), BuildingBlock: OJICUG_clean_linker_0, # of connection points: 2
#     Edge 19, Type (0, 0), BuildingBlock: OJICUG_clean_linker_0, # of connection points: 2
#     Edge 20, Type (0, 0), BuildingBlock: OJICUG_clean_linker_0, # of connection points: 2
#     Edge 21, Type (0, 0), BuildingBlock: OJICUG_clean_linker_0, # of connection points: 2
#     Edge 22, Type (0, 0), BuildingBlock: OJICUG_clean_linker_0, # of connection points: 2
#     Edge 23, Type (0, 0), BuildingBlock: OJICUG_clean_linker_0, # of connection points: 2
#     Edge 24, Type (0, 0), BuildingBlock: OJICUG_clean_linker_0, # of connection points: 2
#     Edge 25, Type (0, 0), BuildingBlock: OJICUG_clean_linker_0, # of connection points: 2
#     Edge 26, Type (0, 0), BuildingBlock: OJICUG_clean_linker_0, # of connection points: 2
#     Edge 27, Type (0, 0), BuildingBlock: OJICUG_clean_linker_0, # of connection points: 2
#     Edge 28, Type (0, 0), BuildingBlock: OJICUG_clean_linker_0, # of connection points: 2
#     Edge 29, Type (0, 0), BuildingBlock: OJICUG_clean_linker_0, # of connection points: 2
#     Edge 30, Type (0, 0), BuildingBlock: OJICUG_clean_linker_0, # of connection points: 2
#     Edge 31, Type (0, 0), BuildingBlock: OJICUG_clean_linker_0, # of connection points: 2
#     Edge 32, Type (0, 0), BuildingBlock: OJICUG_clean_linker_0, # of connection points: 2
#     Edge 33, Type (0, 0), BuildingBlock: OJICUG_clean_linker_0, # of connection points: 2
#     Edge 34, Type (0, 0), BuildingBlock: OJICUG_clean_linker_0, # of connection points: 2
#     Edge 35, Type (0, 0), BuildingBlock: OJICUG_clean_linker_0, # of connection points: 2
#     Edge 36, Type (0, 0), BuildingBlock: OJICUG_clean_linker_0, # of connection points: 2
#     Edge 37, Type (0, 0), BuildingBlock: OJICUG_clean_linker_0, # of connection points: 2
#     Edge 38, Type (0, 0), BuildingBlock: OJICUG_clean_linker_0, # of connection points: 2
#     Edge 39, Type (0, 0), BuildingBlock: OJICUG_clean_linker_0, # of connection points: 2
#     Edge 40, Type (0, 0), BuildingBlock: OJICUG_clean_linker_0, # of connection points: 2
#     Edge 41, Type (0, 0), BuildingBlock: OJICUG_clean_linker_0, # of connection points: 2
#     Edge 42, Type (0, 0), BuildingBlock: OJICUG_clean_linker_0, # of connection points: 2
#     Edge 43, Type (0, 0), BuildingBlock: OJICUG_clean_linker_0, # of connection points: 2
#     Edge 44, Type (0, 0), BuildingBlock: OJICUG_clean_linker_0, # of connection points: 2
#     Edge 45, Type (0, 0), BuildingBlock: OJICUG_clean_linker_0, # of connection points: 2
#     Edge 46, Type (0, 0), BuildingBlock: OJICUG_clean_linker_0, # of connection points: 2
#     Edge 47, Type (0, 0), BuildingBlock: OJICUG_clean_linker_0, # of connection points: 2
#     Edge 48, Type (0, 0), BuildingBlock: OJICUG_clean_linker_0, # of connection points: 2
#     Edge 49, Type (0, 0), BuildingBlock: OJICUG_clean_linker_0, # of connection points: 2
#     Edge 50, Type (0, 0), BuildingBlock: OJICUG_clean_linker_0, # of connection points: 2
#     Edge 51, Type (0, 0), BuildingBlock: OJICUG_clean_linker_0, # of connection points: 2
#     Edge 52, Type (0, 0), BuildingBlock: OJICUG_clean_linker_0, # of connection points: 2
#     Edge 53, Type (0, 0), BuildingBlock: OJICUG_clean_linker_0, # of connection points: 2
#     Edge 54, Type (0, 0), BuildingBlock: OJICUG_clean_linker_0, # of connection points: 2
#     Edge 55, Type (0, 0), BuildingBlock: OJICUG_clean_linker_0, # of connection points: 2
# Relax obj value: 0.176
# Max RMSD: 0.147
# Mean RMSD: 0.147
data_MOF--net-zfe--node1-XOMCOT_clean_sbu_1--edge1-OJICUG_clean_linker_0
_symmetry_space_group_name_H-M    P1
_symmetry_Int_Tables_number       1
_symmetry_cell_setting            triclinic
loop_
_symmetry_equiv_pos_as_xyz
'x, y, z'
_cell_length_a     42.277069
_cell_length_b     42.287086
_cell_length_c     19.213011
_cell_angle_alpha  90.021477
_cell_angle_beta   90.109946
_cell_angle_gamma 89.960793
loop_
_atom_site_label
_atom_site_type_symbol
_atom_site_fract_x
_atom_site_fract_y
_atom_site_fract_z
_atom_type_partial_charge
C0 C 0.10627 0.24386 1.00345 0.0
C1 C 0.13088 0.26501 0.99695 0.0
N2 N 0.12547 0.28928 1.04064 0.0
N3 N 0.08551 0.25491 1.05091 0.0
C4 C 0.09771 0.28285 0.07174 0.0
H5 H 0.10427 0.22126 0.97745 0.0
Co6 Co 0.04983 0.23385 0.08504 0.0
C7 C 0.0519 0.27634 0.22507 0.0
O8 O 0.07821 0.2918 0.23802 0.0
N9 N 0.01427 0.21297 0.12234 0.0
C10 C 0.98557 0.18872 0.20319 0.0
C11 C 0.0144 0.20148 0.18798 0.0
C12 C 0.98482 0.20651 0.09832 0.0
N13 N 0.96677 0.19192 0.1471 0.0
O14 O 0.02347 0.26333 1.03467 0.0
H15 H 0.03428 0.2026 0.22339 0.0
H16 H 0.97671 0.21258 1.04657 0.0
O17 O 0.05015 0.25921 0.17027 0.0
C18 C 0.02525 0.25157 0.97324 0.0
O19 O 0.03883 0.22383 0.96559 0.0
N20 N 0.07625 0.20295 0.12217 0.0
C21 C 0.12018 0.15405 0.13365 0.0
C22 C 0.12423 0.18237 0.17138 0.0
C23 C 0.10193 0.20688 0.16441 0.0
C24 C 0.07151 0.17528 0.08753 0.0
C25 C 0.09289 0.15052 0.09305 0.0
H26 H 0.10618 0.22942 0.18929 0.0
H27 H 0.05161 0.17296 1.05244 0.0
H28 H 0.08681 0.2982 0.10952 0.0
H29 H 0.15192 0.26198 0.96559 0.0
H30 H 0.97923 0.17726 0.25155 0.0
H31 H 0.14506 0.18606 0.20324 0.0
H32 H 0.0883 0.12894 0.06436 0.0
C33 C 0.76236 0.10596 1.00428 0.0
C34 C 0.74097 0.13039 0.99768 0.0
N35 N 0.71678 0.12478 1.04136 0.0
N36 N 0.75156 0.08511 1.0518 0.0
C37 C 0.72352 0.09708 0.07257 0.0
H38 H 0.78495 0.10413 0.97825 0.0
Co39 Co 0.77296 0.0495 0.08575 0.0
C40 C 0.73089 0.05168 0.22603 0.0
O41 O 0.71573 0.07817 0.23883 0.0
N42 N 0.79417 0.01399 0.12285 0.0
C43 C 0.81875 0.98528 0.20351 0.0
C44 C 0.8058 0.01408 0.18843 0.0
C45 C 0.80074 0.98458 0.09874 0.0
N46 N 0.81553 0.96654 0.1474 0.0
O47 O 0.74348 0.02306 1.03579 0.0
H48 H 0.80466 0.03391 0.22388 0.0
H49 H 0.79458 0.9765 1.04702 0.0
O50 O 0.74793 0.04967 0.17124 0.0
C51 C 0.75514 0.02499 0.97435 0.0
O52 O 0.7828 0.0387 0.96666 0.0
N53 N 0.80384 0.07601 0.1225 0.0
C54 C 0.85258 0.12007 0.1333 0.0
C55 C 0.82432 0.1241 0.17115 0.0
C56 C 0.79989 0.10172 0.16453 0.0
C57 C 0.83146 0.07131 0.08774 0.0
C58 C 0.85615 0.09275 0.09294 0.0
H59 H 0.77738 0.10593 0.18949 0.0
H60 H 0.83379 0.05139 1.05281 0.0
H61 H 0.70829 0.08605 0.11039 0.0
H62 H 0.74378 0.15146 0.9663 0.0
H63 H 0.83034 0.97893 0.25181 0.0
H64 H 0.8206 0.14494 0.20284 0.0
H65 H 0.87769 0.08819 0.0642 0.0
C66 C 0.90168 0.76211 1.00307 0.0
C67 C 0.87741 0.74062 0.99554 0.0
N68 N 0.88299 0.7163 1.03903 0.0
N69 N 0.92239 0.75124 1.05097 0.0
C70 C 0.9105 0.72308 0.07111 0.0
H71 H 0.90353 0.78475 0.97724 0.0
Co72 Co 0.95797 0.7725 0.08541 0.0
C73 C 0.95584 0.7302 0.22554 0.0
O74 O 0.92951 0.71475 0.23807 0.0
N75 N 0.99346 0.79358 0.12292 0.0
C76 C 0.02218 0.81804 0.20373 0.0
C77 C 0.99338 0.80512 0.18853 0.0
C78 C 0.02285 0.80017 0.09891 0.0
N79 N 0.0409 0.81489 0.14764 0.0
O80 O 0.98445 0.74304 1.03559 0.0
H81 H 0.97355 0.80395 0.2239 0.0
H82 H 0.0309 0.7941 1.04717 0.0
O83 O 0.95769 0.74729 0.17074 0.0
C84 C 0.98265 0.75476 0.97414 0.0
O85 O 0.96901 0.78247 0.9663 0.0
N86 N 0.93143 0.80338 0.12208 0.0
C87 C 0.88745 0.85225 0.13309 0.0
C88 C 0.88342 0.82395 0.17082 0.0
C89 C 0.90575 0.79946 0.16408 0.0
C90 C 0.93613 0.83103 0.08739 0.0
C91 C 0.91473 0.85577 0.09268 0.0
H92 H 0.90153 0.77693 0.18899 0.0
H93 H 0.95603 0.83335 1.05248 0.0
H94 H 0.92149 0.70778 0.10897 0.0
H95 H 0.8565 0.7434 0.9635 0.0
H96 H 0.02855 0.82957 0.25206 0.0
H97 H 0.86261 0.82026 0.20254 0.0
H98 H 0.9193 0.87734 0.06401 0.0
C99 C 0.24479 0.90119 1.00139 0.0
C100 C 0.26598 0.87664 0.99381 0.0
N101 N 0.29023 0.88165 1.03788 0.0
N102 N 0.25581 0.92153 1.04985 0.0
C103 C 0.28373 0.90911 0.07034 0.0
H104 H 0.22223 0.90346 0.97525 0.0
Co105 Co 0.23479 0.95714 0.08484 0.0
C106 C 0.27757 0.95517 0.22471 0.0
O107 O 0.29373 0.92926 0.23742 0.0
N108 N 0.21392 0.99261 0.12284 0.0
C109 C 0.18952 0.02116 0.20385 0.0
C110 C 0.2025 0.99241 0.1885 0.0
C111 C 0.20718 0.02201 0.09896 0.0
N112 N 0.1925 0.03997 0.14782 0.0
O113 O 0.26413 0.9836 1.03469 0.0
H114 H 0.20378 0.97252 0.22376 0.0
H115 H 0.21307 0.03012 1.04718 0.0
O116 O 0.26043 0.95654 0.16979 0.0
C117 C 0.2522 0.98204 0.97334 0.0
O118 O 0.22439 0.96861 0.96571 0.0
N119 N 0.20401 0.93064 0.1218 0.0
C120 C 0.15514 0.88676 0.13317 0.0
C121 C 0.18354 0.88264 0.17068 0.0
C122 C 0.20804 0.90492 0.16375 0.0
C123 C 0.17626 0.93543 0.08736 0.0
C124 C 0.15152 0.91407 0.09282 0.0
H125 H 0.23063 0.90064 0.18848 0.0
H126 H 0.17386 0.95536 1.0525 0.0
H127 H 0.29905 0.91965 0.10877 0.0
H128 H 0.263 0.85592 0.96135 0.0
H129 H 0.17804 0.02743 0.25225 0.0
H130 H 0.1873 0.8618 0.20235 0.0
H131 H 0.12987 0.9187 0.06431 0.0
C132 C 0.10245 0.75192 0.67436 0.0
C133 C 0.1254 0.72889 0.67541 0.0
N134 N 0.12015 0.70916 0.62159 0.0
N135 N 0.0827 0.74659 0.6204 0.0
C136 C 0.09403 0.72028 0.58938 0.0
H137 H 0.10092 0.77194 0.70923 0.0
Co138 Co 0.04897 0.77234 0.59397 0.0
C139 C 0.04885 0.7523 0.44097 0.0
O140 O 0.07039 0.77289 0.42252 0.0
N141 N 0.01433 0.79756 0.56404 0.0
C142 C 0.98484 0.82532 0.48977 0.0
C143 C 0.01432 0.81363 0.5031 0.0
C144 C 0.98416 0.80021 0.58711 0.0
N145 N 0.96577 0.81676 0.54223 0.0
O146 O 0.02107 0.74452 0.64459 0.0
H147 H 0.03445 0.81648 0.46924 0.0
H148 H 0.9755 0.78943 0.63444 0.0
O149 O 0.04179 0.74883 0.50551 0.0
C150 C 0.02459 0.75547 0.70637 0.0
O151 O 0.03999 0.78222 0.71426 0.0
N152 N 0.0782 0.80219 0.55926 0.0
C153 C 0.12424 0.84958 0.55591 0.0
C154 C 0.12984 0.82019 0.52424 0.0
C155 C 0.10681 0.79637 0.52846 0.0
C156 C 0.07305 0.83059 0.59118 0.0
C157 C 0.09531 0.85463 0.58897 0.0
H158 H 0.1127 0.77292 0.51021 0.0
H159 H 0.05207 0.8343 0.62216 0.0
H160 H 0.08389 0.70985 0.54306 0.0
H161 H 0.14531 0.72766 0.71083 0.0
H162 H 0.97803 0.83946 0.44522 0.0
H163 H 0.15231 0.81521 0.49957 0.0
H164 H 0.09006 0.8769 0.61437 0.0
C165 C 0.25567 0.10229 0.67207 0.0
C166 C 0.27891 0.12501 0.67307 0.0
N167 N 0.2987 0.11944 0.61961 0.0
N168 N 0.26093 0.08237 0.61849 0.0
C169 C 0.28739 0.09337 0.5876 0.0
H170 H 0.23561 0.10103 0.70675 0.0
Co171 Co 0.23493 0.04876 0.59253 0.0
C172 C 0.25477 0.04827 0.43946 0.0
O173 O 0.2342 0.06985 0.42078 0.0
N174 N 0.20946 0.01424 0.56303 0.0
C175 C 0.18142 0.98487 0.48908 0.0
C176 C 0.1933 0.01427 0.50212 0.0
C177 C 0.20666 0.98412 0.5864 0.0
N178 N 0.18993 0.9658 0.54171 0.0
O179 O 0.26264 0.02073 0.64356 0.0
H180 H 0.19052 0.03436 0.46807 0.0
H181 H 0.21746 0.97544 0.63378 0.0
O182 O 0.25829 0.04129 0.50408 0.0
C183 C 0.25177 0.02446 0.70532 0.0
O184 O 0.2252 0.04019 0.71302 0.0
N185 N 0.20518 0.07812 0.55756 0.0
C186 C 0.15796 0.12441 0.55405 0.0
C187 C 0.1873 0.1298 0.52209 0.0
C188 C 0.21105 0.10664 0.52639 0.0
C189 C 0.17683 0.07319 0.58974 0.0
C190 C 0.15287 0.09555 0.58744 0.0
H191 H 0.23449 0.11236 0.50795 0.0
H192 H 0.17312 0.05229 0.62099 0.0
H193 H 0.29783 0.08298 0.54163 0.0
H194 H 0.28027 0.14495 0.7083 0.0
H195 H 0.16719 0.97809 0.44459 0.0
H196 H 0.1923 0.1522 0.49714 0.0
H197 H 0.13064 0.09046 0.61308 0.0
C198 C 0.9058 0.25554 0.67399 0.0
C199 C 0.88248 0.27821 0.67463 0.0
N200 N 0.8867 0.29714 0.61913 0.0
N201 N 0.92479 0.26037 0.61867 0.0
C202 C 0.91258 0.28598 0.58632 0.0
H203 H 0.90805 0.23608 0.71015 0.0
Co204 Co 0.95852 0.2346 0.5923 0.0
C205 C 0.95864 0.25458 0.43934 0.0
O206 O 0.93712 0.23396 0.42072 0.0
N207 N 0.99314 0.20935 0.56237 0.0
C208 C 0.02243 0.18148 0.4881 0.0
C209 C 0.99299 0.19319 0.50151 0.0
C210 C 0.02338 0.20671 0.58532 0.0
N211 N 0.04164 0.19009 0.54043 0.0
O212 O 0.9865 0.26239 0.64319 0.0
H213 H 0.97278 0.19029 0.46775 0.0
H214 H 0.03217 0.21755 0.63256 0.0
O215 O 0.96565 0.25813 0.50395 0.0
C216 C 0.98335 0.25119 0.70482 0.0
O217 O 0.96822 0.22429 0.7124 0.0
N218 N 0.92924 0.20478 0.55745 0.0
C219 C 0.88312 0.15747 0.55464 0.0
C220 C 0.87754 0.18674 0.52245 0.0
C221 C 0.90061 0.21054 0.52639 0.0
C222 C 0.93438 0.17647 0.58974 0.0
C223 C 0.91209 0.15247 0.58782 0.0
H224 H 0.89474 0.23391 0.5077 0.0
H225 H 0.95539 0.17283 0.62082 0.0
H226 H 0.92186 0.2958 0.5386 0.0
H227 H 0.86302 0.2797 0.71103 0.0
H228 H 0.02912 0.16728 0.44358 0.0
H229 H 0.85505 0.19166 0.49762 0.0
H230 H 0.91732 0.13027 0.61357 0.0
C231 C 0.75174 0.90485 0.67349 0.0
C232 C 0.72844 0.88218 0.67371 0.0
N233 N 0.70881 0.88794 0.61991 0.0
N234 N 0.74666 0.9249 0.62002 0.0
C235 C 0.72024 0.91406 0.58855 0.0
H236 H 0.77176 0.90595 0.70849 0.0
Co237 Co 0.7728 0.95834 0.59421 0.0
C238 C 0.75302 0.95873 0.44103 0.0
O239 O 0.77362 0.93716 0.42257 0.0
N240 N 0.7984 0.99271 0.56473 0.0
C241 C 0.82648 0.02182 0.49065 0.0
C242 C 0.8147 0.99244 0.50413 0.0
C243 C 0.80101 0.02296 0.58744 0.0
N244 N 0.81775 0.04112 0.54264 0.0
O245 O 0.74516 0.98651 0.64471 0.0
H246 H 0.81759 0.97221 0.47051 0.0
H247 H 0.79 0.03185 0.63433 0.0
O248 O 0.74951 0.96578 0.50557 0.0
C249 C 0.75596 0.98271 0.70657 0.0
O250 O 0.7825 0.96692 0.71456 0.0
N251 N 0.80242 0.92881 0.55971 0.0
C252 C 0.84949 0.8824 0.55641 0.0
C253 C 0.82014 0.8771 0.52422 0.0
C254 C 0.79646 0.90031 0.52843 0.0
C255 C 0.83077 0.93364 0.59222 0.0
C256 C 0.85466 0.91121 0.59003 0.0
H257 H 0.77301 0.89468 0.50973 0.0
H258 H 0.83454 0.95453 0.62353 0.0
H259 H 0.70995 0.92456 0.54246 0.0
H260 H 0.72698 0.86211 0.70852 0.0
H261 H 0.84075 0.02845 0.44624 0.0
H262 H 0.81507 0.85473 0.49911 0.0
H263 H 0.87691 0.91623 0.61583 0.0
C264 C 0.59969 0.75673 0.47122 0.0
C265 C 0.62253 0.77985 0.47011 0.0
N266 N 0.61741 0.79947 0.52415 0.0
N267 N 0.58018 0.76188 0.52551 0.0
C268 C 0.59144 0.78824 0.55644 0.0
H269 H 0.59822 0.73667 0.43646 0.0
Co270 Co 0.54713 0.73564 0.55347 0.0
C271 C 0.54795 0.75682 0.70561 0.0
O272 O 0.57059 0.73733 0.72383 0.0
N273 N 0.51317 0.71001 0.58495 0.0
C274 C 0.48467 0.68231 0.66086 0.0
C275 C 0.51374 0.69475 0.64688 0.0
C276 C 0.48309 0.70609 0.56194 0.0
N277 N 0.4653 0.68954 0.60779 0.0
O278 O 0.51845 0.76272 0.50298 0.0
H279 H 0.53401 0.69292 0.68087 0.0
H280 H 0.47407 0.71594 0.51388 0.0
O281 O 0.54008 0.75947 0.64131 0.0
C282 C 0.52177 0.75134 0.44156 0.0
O283 O 0.53731 0.72462 0.43435 0.0
N284 N 0.57718 0.70646 0.58834 0.0
C285 C 0.62475 0.66042 0.58941 0.0
C286 C 0.63 0.69024 0.61942 0.0
C287 C 0.60612 0.71326 0.61677 0.0
C288 C 0.57223 0.67756 0.55843 0.0
C289 C 0.59521 0.65416 0.55982 0.0
H290 H 0.61167 0.73696 0.63381 0.0
H291 H 0.55085 0.67296 0.52928 0.0
H292 H 0.58154 0.79846 0.60316 0.0
H293 H 0.6424 0.78108 0.43475 0.0
H294 H 0.47836 0.66854 0.70626 0.0
H295 H 0.65281 0.69623 0.64148 0.0
H296 H 0.59002 0.63149 0.53612 0.0
C297 C 0.25278 0.60012 0.47797 0.0
C298 C 0.22995 0.62328 0.47651 0.0
N299 N 0.21004 0.61828 0.53001 0.0
N300 N 0.24715 0.58052 0.53191 0.0
C301 C 0.22084 0.59211 0.5624 0.0
H302 H 0.27287 0.59834 0.44344 0.0
Co303 Co 0.27248 0.54661 0.55915 0.0
C304 C 0.25198 0.54723 0.71171 0.0
O305 O 0.27262 0.56872 0.73039 0.0
N306 N 0.29721 0.51177 0.58993 0.0
C307 C 0.32421 0.48214 0.6653 0.0
C308 C 0.31302 0.51174 0.65128 0.0
C309 C 0.29952 0.48147 0.56731 0.0
N310 N 0.3156 0.463 0.61286 0.0
O311 O 0.24445 0.51892 0.50825 0.0
H312 H 0.316 0.53194 0.68499 0.0
H313 H 0.28882 0.47281 0.5198 0.0
O314 O 0.24868 0.53997 0.64719 0.0
C315 C 0.2557 0.52208 0.44671 0.0
O316 O 0.28277 0.53697 0.43935 0.0
N317 N 0.30255 0.57562 0.59426 0.0
C318 C 0.35007 0.62154 0.59715 0.0
C319 C 0.32064 0.62742 0.6282 0.0
C320 C 0.29677 0.60443 0.62429 0.0
C321 C 0.33107 0.57011 0.56324 0.0
C322 C 0.35518 0.59231 0.56525 0.0
H323 H 0.27329 0.61054 0.64192 0.0
H324 H 0.3348 0.54892 0.53292 0.0
H325 H 0.21021 0.58212 0.60856 0.0
H326 H 0.229 0.64316 0.44108 0.0
H327 H 0.33806 0.47529 0.71029 0.0
H328 H 0.31563 0.6501 0.65197 0.0
H329 H 0.3775 0.58685 0.54036 0.0
C330 C 0.40879 0.25142 0.47885 0.0
C331 C 0.38616 0.2281 0.4758 0.0
N332 N 0.39088 0.20824 0.52961 0.0
N333 N 0.4278 0.24615 0.5341 0.0
C334 C 0.41643 0.21953 0.56366 0.0
H335 H 0.41037 0.27173 0.44487 0.0
Co336 Co 0.45993 0.27287 0.56523 0.0
C337 C 0.45764 0.24797 0.71559 0.0
O338 O 0.43295 0.26466 0.73416 0.0
N339 N 0.49276 0.29921 0.60032 0.0
C340 C 0.51703 0.32943 0.67879 0.0
C341 C 0.49058 0.31232 0.66443 0.0
C342 C 0.52145 0.30881 0.5768 0.0
N343 N 0.53646 0.32749 0.62382 0.0
O344 O 0.48981 0.24705 0.51506 0.0
H345 H 0.47054 0.3103 0.69877 0.0
H346 H 0.53082 0.30288 0.52607 0.0
O347 O 0.46684 0.24814 0.65198 0.0
C348 C 0.48698 0.25882 0.45389 0.0
O349 O 0.47121 0.28543 0.44682 0.0
N350 N 0.42886 0.30102 0.59974 0.0
C351 C 0.38146 0.34714 0.60213 0.0
C352 C 0.37611 0.3172 0.63132 0.0
C353 C 0.39988 0.29403 0.6275 0.0
C354 C 0.43375 0.33003 0.57037 0.0
C355 C 0.41081 0.35342 0.5722 0.0
H356 H 0.39412 0.27014 0.64271 0.0
H357 H 0.45507 0.33477 0.54132 0.0
H358 H 0.42589 0.20919 0.61074 0.0
H359 H 0.36662 0.22695 0.43938 0.0
H360 H 0.52154 0.34266 0.72605 0.0
H361 H 0.3533 0.31131 0.65336 0.0
H362 H 0.41585 0.37615 0.54866 0.0
C363 C 0.7517 0.40539 0.47986 0.0
C364 C 0.77346 0.38116 0.4784 0.0
N365 N 0.79525 0.38676 0.5281 0.0
N366 N 0.75987 0.42613 0.53013 0.0
C367 C 0.78666 0.41426 0.55811 0.0
H368 H 0.7307 0.40726 0.44787 0.0
Co369 Co 0.73765 0.46234 0.55644 0.0
C370 C 0.76466 0.4578 0.70546 0.0
O371 O 0.75082 0.43127 0.72282 0.0
N372 N 0.7165 0.49937 0.58682 0.0
C373 C 0.69399 0.53151 0.66394 0.0
C374 C 0.70524 0.50177 0.65252 0.0
C375 C 0.71136 0.52836 0.55891 0.0
N376 N 0.69789 0.54838 0.6054 0.0
O377 O 0.76726 0.48715 0.50337 0.0
H378 H 0.70504 0.48286 0.69032 0.0
H379 H 0.71773 0.53481 0.50627 0.0
O380 O 0.76258 0.46808 0.6429 0.0
C381 C 0.75563 0.48391 0.44214 0.0
O382 O 0.72789 0.4702 0.43568 0.0
N383 N 0.70527 0.43653 0.5951 0.0
C384 C 0.65215 0.39765 0.60998 0.0
C385 C 0.68205 0.38711 0.63158 0.0
C386 C 0.70848 0.40682 0.6228 0.0
C387 C 0.67635 0.44589 0.57058 0.0
C388 C 0.64959 0.42742 0.57933 0.0
H389 H 0.73157 0.3971 0.63358 0.0
H390 H 0.67393 0.4672 0.54012 0.0
H391 H 0.79946 0.4252 0.60047 0.0
H392 H 0.77253 0.36035 0.44564 0.0
H393 H 0.68284 0.53983 0.71124 0.0
H394 H 0.68505 0.36369 0.6534 0.0
H395 H 0.62716 0.43584 0.55907 0.0
C396 C 0.60625 0.26285 0.15082 0.0
C397 C 0.63076 0.24154 0.15764 0.0
N398 N 0.62483 0.21689 0.1153 0.0
N399 N 0.58507 0.25154 0.10444 0.0
C400 C 0.59688 0.22327 0.08469 0.0
H401 H 0.60462 0.28573 0.17576 0.0
Co402 Co 0.54928 0.27259 0.07025 0.0
C403 C 0.55116 0.22918 0.93184 0.0
O404 O 0.57786 0.21428 0.91962 0.0
N405 N 0.51355 0.29338 1.03283 0.0
C406 C 0.48446 0.31692 0.95131 0.0
C407 C 0.51332 0.30414 0.96659 0.0
C408 C 0.48427 0.3003 1.05711 0.0
N409 N 0.466 0.31448 1.00795 0.0
O410 O 0.52314 0.24363 0.12212 0.0
H411 H 0.53299 0.30255 0.93087 0.0
H412 H 0.47643 0.29484 0.10932 0.0
O413 O 0.549 0.24681 0.98574 0.0
C414 C 0.52533 0.25615 0.18278 0.0
O415 O 0.53885 0.28401 0.18843 0.0
N416 N 0.5756 0.30309 1.03163 0.0
C417 C 0.61999 0.35142 1.01918 0.0
C418 C 0.6239 0.32275 0.98271 0.0
C419 C 0.60135 0.29856 0.99011 0.0
C420 C 0.57095 0.33114 0.06485 0.0
C421 C 0.59255 0.35563 0.05878 0.0
H422 H 0.60552 0.27574 0.96642 0.0
H423 H 0.55101 0.33396 0.09947 0.0
H424 H 0.58557 0.20764 1.04798 0.0
H425 H 0.65209 0.24472 0.18811 0.0
H426 H 0.47789 0.3279 0.90249 0.0
H427 H 0.64482 0.31854 0.95163 0.0
H428 H 0.58808 0.3775 0.08643 0.0
C429 C 0.74573 0.60418 0.14437 0.0
C430 C 0.76698 0.62866 0.15165 0.0
N431 N 0.79127 0.62333 0.10804 0.0
N432 N 0.75671 0.58358 0.09647 0.0
C433 C 0.78472 0.59573 0.07613 0.0
H434 H 0.72317 0.60207 0.17043 0.0
Co435 Co 0.7356 0.54778 0.06302 0.0
C436 C 0.77699 0.55179 0.92269 0.0
O437 O 0.78913 0.57979 0.91011 0.0
N438 N 0.71468 0.51203 1.02649 0.0
C439 C 0.69073 0.48279 0.9459 0.0
C440 C 0.70359 0.51165 0.96047 0.0
C441 C 0.70788 0.48285 1.05139 0.0
N442 N 0.69344 0.46448 1.00281 0.0
O443 O 0.76575 0.5217 0.11179 0.0
H444 H 0.70488 0.53128 0.92452 0.0
H445 H 0.71355 0.47517 0.10367 0.0
O446 O 0.76005 0.54784 0.97703 0.0
C447 C 0.75457 0.5231 0.17367 0.0
O448 O 0.72677 0.53635 0.18289 0.0
N449 N 0.70416 0.57393 1.02683 0.0
C450 C 0.65478 0.61744 1.01577 0.0
C451 C 0.68304 0.62175 0.9781 0.0
C452 C 0.70775 0.59967 0.9848 0.0
C453 C 0.67659 0.56895 0.06161 0.0
C454 C 0.65159 0.59011 1.05626 0.0
H455 H 0.7302 0.60416 0.95987 0.0
H456 H 0.67453 0.54905 0.09662 0.0
H457 H 0.80012 0.58482 1.03841 0.0
H458 H 0.76405 0.64953 0.18365 0.0
H459 H 0.67942 0.47614 0.89748 0.0
H460 H 0.68655 0.64262 0.94641 0.0
H461 H 0.6301 0.5853 0.08494 0.0
C462 C 0.40133 0.74292 0.14228 0.0
C463 C 0.37689 0.76424 0.14974 0.0
N464 N 0.38232 0.7887 0.10665 0.0
N465 N 0.42201 0.75405 0.09481 0.0
C466 C 0.40994 0.7822 0.07491 0.0
H467 H 0.40334 0.72023 0.16788 0.0
Co468 Co 0.45779 0.73303 0.0608 0.0
C469 C 0.45478 0.77549 0.92127 0.0
O470 O 0.42772 0.78971 0.9088 0.0
N471 N 0.49352 0.71216 1.02379 0.0
C472 C 0.52245 0.688 0.9431 0.0
C473 C 0.49372 0.70118 0.95772 0.0
C474 C 0.52267 0.70493 1.04868 0.0
N475 N 0.54085 0.69037 1.00004 0.0
O476 O 0.48392 0.76267 0.11089 0.0
H477 H 0.47407 0.70277 0.92177 0.0
H478 H 0.53042 0.71035 0.10104 0.0
O479 O 0.4575 0.75822 0.97559 0.0
C480 C 0.48222 0.75084 0.1722 0.0
O481 O 0.46907 0.72291 0.17966 0.0
N482 N 0.43155 0.70203 1.02359 0.0
C483 C 0.38752 0.65327 1.01284 0.0
C484 C 0.38334 0.6816 0.97529 0.0
C485 C 0.40571 0.70603 0.98186 0.0
C486 C 0.43645 0.6743 1.05789 0.0
C487 C 0.41502 0.6496 1.05271 0.0
H488 H 0.40134 0.72861 0.95729 0.0
H489 H 0.45646 0.67191 0.09264 0.0
H490 H 0.4209 0.79771 1.03755 0.0
H491 H 0.35596 0.76124 0.18146 0.0
H492 H 0.52895 0.67674 0.89459 0.0
H493 H 0.36236 0.6854 0.94399 0.0
H494 H 0.41967 0.628 0.08123 0.0
C495 C 0.26244 0.40156 0.15077 0.0
C496 C 0.24139 0.37689 0.15807 0.0
N497 N 0.21712 0.38186 0.114 0.0
N498 N 0.25131 0.4219 0.10242 0.0
C499 C 0.22344 0.40942 0.08193 0.0
H500 H 0.28503 0.40386 0.17678 0.0
Co501 Co 0.27211 0.45738 0.0665 0.0
C502 C 0.22922 0.45465 0.92692 0.0
O503 O 0.21318 0.42865 0.91443 0.0
N504 N 0.29273 0.49272 1.02751 0.0
C505 C 0.31692 0.52088 0.94566 0.0
C506 C 0.30392 0.49224 0.96167 0.0
C507 C 0.29965 0.52216 1.05086 0.0
N508 N 0.31422 0.53988 1.00147 0.0
O509 O 0.24263 0.48391 0.11608 0.0
H510 H 0.30253 0.47221 0.9268 0.0
H511 H 0.29404 0.53045 0.10267 0.0
O512 O 0.24634 0.45617 0.98182 0.0
C513 C 0.25479 0.48282 0.17723 0.0
O514 O 0.28284 0.46984 0.18472 0.0
N515 N 0.303 0.43082 1.03003 0.0
C516 C 0.35192 0.38685 1.02019 0.0
C517 C 0.32346 0.38238 0.98311 0.0
C518 C 0.29895 0.40472 0.98922 0.0
C519 C 0.33081 0.43597 0.06395 0.0
C520 C 0.35559 0.41457 0.05919 0.0
H521 H 0.27631 0.40018 0.96494 0.0
H522 H 0.33324 0.4562 0.09795 0.0
H523 H 0.20808 0.41992 1.04352 0.0
H524 H 0.24453 0.35607 0.19013 0.0
H525 H 0.32829 0.52692 0.89702 0.0
H526 H 0.31965 0.36122 0.95248 0.0
H527 H 0.37728 0.41948 0.08728 0.0
C528 C 0.16373 0.33044 1.00717 0.0
C529 C 0.14722 0.31401 0.05899 0.0
H530 H 0.19871 0.36565 0.98458 0.0
C531 C 0.15325 0.32097 0.12933 0.0
H532 H 0.1594 0.32537 0.95273 0.0
C533 C 0.17612 0.3434 0.14756 0.0
C534 C 0.19265 0.35981 0.09573 0.0
H535 H 0.14099 0.3083 0.17011 0.0
H536 H 0.18097 0.34796 0.20201 0.0
C537 C 0.18596 0.35347 1.02538 0.0
C538 C 0.68543 0.15266 0.13027 0.0
C539 C 0.69198 0.14641 0.05988 0.0
H540 H 0.65899 0.18073 0.20308 0.0
C541 C 0.67517 0.16273 1.00817 0.0
H542 H 0.6984 0.14054 0.17095 0.0
C543 C 0.65224 0.18506 1.02654 0.0
C544 C 0.64642 0.19204 0.09691 0.0
H545 H 0.67993 0.15825 0.95369 0.0
H546 H 0.63983 0.19773 0.98584 0.0
C547 C 0.66314 0.17562 0.14863 0.0
C548 C 0.82312 0.65161 1.02074 0.0
C549 C 0.81613 0.64506 0.09076 0.0
H550 H 0.84982 0.68014 0.9494 0.0
C551 C 0.83247 0.66128 0.14336 0.0
H552 H 0.81053 0.63958 0.97939 0.0
C553 C 0.85531 0.68386 0.12622 0.0
C554 C 0.86153 0.69118 1.05621 0.0
H555 H 0.82737 0.65657 0.19758 0.0
H556 H 0.86732 0.69646 0.16761 0.0
C557 C 0.84534 0.67481 1.00361 0.0
C558 C 0.33139 0.84364 1.00246 0.0
C559 C 0.31505 0.85976 1.05509 0.0
H560 H 0.3664 0.80862 0.97814 0.0
C561 C 0.32212 0.85312 0.1251 0.0
H562 H 0.32625 0.84844 0.94825 0.0
C563 C 0.34446 0.82997 0.14217 0.0
C564 C 0.36069 0.81374 0.08953 0.0
H565 H 0.30954 0.86508 0.16651 0.0
H566 H 0.34902 0.82458 0.19637 0.0
C567 C 0.35436 0.82112 1.01954 0.0
C568 C 0.14525 0.67871 0.52702 0.0
C569 C 0.14064 0.68415 0.59845 0.0
H570 H 0.17118 0.65329 0.44925 0.0
C571 C 0.1578 0.66613 0.6469 0.0
H572 H 0.13257 0.69248 0.48854 0.0
C573 C 0.17976 0.64366 0.62443 0.0
C574 C 0.18525 0.63908 0.55302 0.0
H575 H 0.15452 0.66975 0.7022 0.0
H576 H 0.19331 0.63077 0.66296 0.0
C577 C 0.16751 0.65653 0.50454 0.0
C578 C 0.36477 0.17832 0.62359 0.0
C579 C 0.36988 0.18356 0.55226 0.0
H580 H 0.338 0.1536 0.70087 0.0
C581 C 0.3526 0.1658 0.50349 0.0
H582 H 0.37746 0.19189 0.6624 0.0
C583 C 0.33007 0.14383 0.52559 0.0
C584 C 0.3241 0.13953 0.59689 0.0
H585 H 0.35622 0.16927 0.44826 0.0
H586 H 0.31643 0.13117 0.48685 0.0
C587 C 0.34199 0.15665 0.64564 0.0
C588 C 0.82744 0.36288 0.62145 0.0
C589 C 0.82007 0.3658 0.55039 0.0
H590 H 0.85457 0.33848 0.69898 0.0
C591 C 0.83621 0.3469 0.50195 0.0
H592 H 0.81511 0.37691 0.65996 0.0
C593 C 0.85896 0.32513 0.52427 0.0
C594 C 0.86555 0.32151 0.59555 0.0
H595 H 0.83103 0.34885 0.44691 0.0
H596 H 0.87056 0.31033 0.48607 0.0
C597 C 0.84978 0.34077 0.64383 0.0
C598 C 0.65578 0.84203 0.50067 0.0
C599 C 0.63824 0.82401 0.5483 0.0
H600 H 0.69197 0.87676 0.48627 0.0
C601 C 0.64289 0.82888 0.61997 0.0
H602 H 0.6525 0.83883 0.44522 0.0
C603 C 0.6655 0.85046 0.64346 0.0
C604 C 0.68363 0.86786 0.59582 0.0
H605 H 0.62996 0.81509 0.65788 0.0
H606 H 0.66916 0.85325 0.69891 0.0
C607 C 0.67812 0.86389 0.52419 0.0
C608 C 0.17489 0.09011 0.20174 0.0
C609 C 0.17957 0.07145 0.14179 0.0
H610 H 0.15243 0.13077 0.24644 0.0
C611 C 0.16837 0.08272 0.07767 0.0
H612 H 0.18396 0.08253 0.25174 0.0
C613 C 0.15069 0.11065 0.07456 0.0
C614 C 0.14373 0.12788 0.13551 0.0
H615 H 0.17168 0.06909 1.03056 0.0
H616 H 0.14139 0.11812 1.02463 0.0
C617 C 0.15712 0.11799 0.19869 0.0
C618 C 0.92385 0.1681 0.07695 0.0
C619 C 0.93519 0.17929 0.14101 0.0
H620 H 0.88835 0.14119 1.02406 0.0
C621 C 0.91653 0.17478 0.20095 0.0
H622 H 0.93748 0.1713 1.02985 0.0
C623 C 0.88862 0.1571 0.198 0.0
C624 C 0.87868 0.14366 0.13493 0.0
H625 H 0.92417 0.18386 0.25089 0.0
H626 H 0.87587 0.15248 0.24577 0.0
C627 C 0.89587 0.15052 0.07393 0.0
C628 C 0.85059 0.88834 0.19803 0.0
C629 C 0.86392 0.87844 0.13489 0.0
H630 H 0.82391 0.92385 0.2511 0.0
C631 C 0.85697 0.89573 0.07397 0.0
H632 H 0.85528 0.87552 0.24575 0.0
C633 C 0.83937 0.92372 0.07711 0.0
C634 C 0.82826 0.93499 0.14123 0.0
H635 H 0.86622 0.88827 1.02405 0.0
H636 H 0.83608 0.9374 1.03006 0.0
C637 C 0.83291 0.91626 0.20111 0.0
C638 C 0.11161 0.85634 0.07416 0.0
C639 C 0.12896 0.86326 0.13506 0.0
H640 H 0.06991 0.83549 1.03029 0.0
C641 C 0.11913 0.84994 0.19825 0.0
H642 H 0.11901 0.86559 1.02423 0.0
C643 C 0.0912 0.83229 0.20138 0.0
C644 C 0.07243 0.82766 0.14149 0.0
H645 H 0.132 0.85462 0.24595 0.0
H646 H 0.08367 0.82329 0.25139 0.0
C647 C 0.08363 0.83876 0.07735 0.0
C648 C 0.17703 0.91436 0.48879 0.0
C649 C 0.1805 0.93331 0.54858 0.0
H650 H 0.15668 0.87251 0.44443 0.0
C651 C 0.17021 0.92163 0.61289 0.0
H652 H 0.18527 0.92269 0.43873 0.0
C653 C 0.15388 0.89295 0.61612 0.0
C654 C 0.14784 0.87542 0.55516 0.0
H655 H 0.17263 0.93577 0.65959 0.0
H656 H 0.1444 0.88533 0.66569 0.0
C657 C 0.16091 0.88558 0.49206 0.0
C658 C 0.08616 0.17064 0.61132 0.0
C659 C 0.07421 0.18075 0.54701 0.0
H660 H 0.12271 0.14496 0.66403 0.0
C661 C 0.09296 0.17715 0.48703 0.0
H662 H 0.0722 0.17315 0.65818 0.0
C663 C 0.12178 0.16105 0.49016 0.0
C664 C 0.13219 0.14812 0.55331 0.0
H665 H 0.08442 0.18527 0.43695 0.0
H666 H 0.13467 0.15668 0.44242 0.0
C667 C 0.11489 0.15433 0.61442 0.0
C668 C 0.83718 0.08575 0.61297 0.0
C669 C 0.82697 0.07369 0.54885 0.0
H670 H 0.86291 0.12238 0.66514 0.0
C671 C 0.83038 0.09235 0.48864 0.0
H672 H 0.8348 0.07184 0.65998 0.0
C673 C 0.84642 0.12118 0.49137 0.0
C674 C 0.85947 0.13168 0.55434 0.0
H675 H 0.82219 0.08371 0.4387 0.0
H676 H 0.85065 0.13399 0.44346 0.0
C677 C 0.85343 0.11448 0.61567 0.0
C678 C 0.9214 0.83613 0.61332 0.0
C679 C 0.93322 0.82609 0.54892 0.0
H680 H 0.88495 0.86173 0.66625 0.0
C681 C 0.91433 0.8297 0.48901 0.0
H682 H 0.93546 0.83359 0.66013 0.0
C683 C 0.88551 0.84579 0.49228 0.0
C684 C 0.87524 0.85866 0.55553 0.0
H685 H 0.92276 0.82162 0.43887 0.0
H686 H 0.87252 0.85019 0.44459 0.0
C687 C 0.89266 0.8524 0.61657 0.0
C688 C 0.68494 0.60101 0.6522 0.0
C689 C 0.6862 0.58 0.59539 0.0
H690 H 0.66441 0.64301 0.69498 0.0
C691 C 0.67153 0.58858 0.53274 0.0
H692 H 0.69661 0.5952 0.70076 0.0
C693 C 0.65328 0.61611 0.52927 0.0
C694 C 0.64944 0.63548 0.58839 0.0
H695 H 0.6722 0.5729 0.48821 0.0
H696 H 0.64083 0.62138 0.48132 0.0
C697 C 0.66671 0.62849 0.6488 0.0
C698 C 0.39319 0.65084 0.53562 0.0
C699 C 0.37581 0.64526 0.59687 0.0
H700 H 0.43556 0.66993 0.49107 0.0
C701 C 0.38581 0.65924 0.65926 0.0
H702 H 0.38567 0.64067 0.48655 0.0
C703 C 0.41428 0.67594 0.66163 0.0
C704 C 0.43307 0.67912 0.60161 0.0
H705 H 0.37284 0.65538 0.70709 0.0
H706 H 0.42248 0.68498 0.71121 0.0
C707 C 0.42155 0.66777 0.53793 0.0
C708 C 0.32774 0.41157 0.66683 0.0
C709 C 0.32461 0.43035 0.60667 0.0
H710 H 0.34796 0.36986 0.71231 0.0
C711 C 0.33504 0.41833 0.54274 0.0
H712 H 0.31937 0.42016 0.71661 0.0
C713 C 0.35134 0.38959 0.54034 0.0
C714 C 0.35719 0.37235 0.60174 0.0
H715 H 0.33291 0.43231 0.49577 0.0
H716 H 0.36117 0.38183 0.49117 0.0
C717 C 0.34382 0.38272 0.66438 0.0
C718 C 0.59279 0.33083 0.58842 0.0
C719 C 0.56567 0.34465 0.61765 0.0
H720 H 0.64223 0.33665 0.56474 0.0
C721 C 0.56773 0.37521 0.64595 0.0
H722 H 0.59179 0.30717 0.56695 0.0
C723 C 0.59614 0.39168 0.6454 0.0
C724 C 0.62334 0.37808 0.6165 0.0
H725 H 0.54713 0.38653 0.6683 0.0
H726 H 0.59679 0.41534 0.6671 0.0
C727 C 0.6216 0.3474 0.58827 0.0
C728 C 0.67581 0.41402 0.95047 0.0
C729 C 0.68034 0.43314 1.0098 0.0
H730 H 0.65313 0.37328 0.90664 0.0
C731 C 0.6687 0.42255 0.07398 0.0
H732 H 0.68521 0.42107 0.90048 0.0
C733 C 0.65071 0.39486 0.07761 0.0
C734 C 0.64387 0.37723 1.01711 0.0
H735 H 0.67189 0.43655 0.12063 0.0
H736 H 0.64107 0.38793 0.12751 0.0
C737 C 0.65771 0.3864 0.95403 0.0
C738 C 0.58288 0.66522 0.07085 0.0
C739 C 0.57216 0.67703 1.0068 0.0
H740 H 0.6178 0.63771 0.12419 0.0
C741 C 0.5912 0.67264 0.94741 0.0
H742 H 0.56893 0.66828 0.11755 0.0
C743 C 0.61895 0.65467 0.9508 0.0
C744 C 0.62839 0.64079 1.01379 0.0
H745 H 0.58406 0.68215 0.89751 0.0
H746 H 0.63204 0.65032 0.90335 0.0
C747 C 0.6107 0.64734 0.07432 0.0
C748 C 0.33909 0.58251 0.07064 0.0
C749 C 0.32741 0.57125 1.00693 0.0
H750 H 0.36669 0.61771 0.12267 0.0
C751 C 0.33192 0.58974 0.94669 0.0
H752 H 0.33593 0.56899 0.11794 0.0
C753 C 0.34996 0.61743 0.94904 0.0
C754 C 0.36379 0.6273 1.01178 0.0
H755 H 0.3225 0.58214 0.89701 0.0
H756 H 0.35449 0.63008 0.90109 0.0
C757 C 0.35704 0.61025 0.07305 0.0
C758 C 0.41551 0.33132 0.95417 0.0
C759 C 0.43451 0.32738 1.01397 0.0
H760 H 0.37462 0.35323 0.90899 0.0
C761 C 0.42358 0.33936 0.07761 0.0
H762 H 0.42283 0.32164 0.90459 0.0
C763 C 0.39566 0.35707 0.08024 0.0
C764 C 0.3781 0.36329 1.01925 0.0
H765 H 0.43748 0.33662 0.12459 0.0
H766 H 0.38845 0.36697 0.12974 0.0
C767 C 0.38765 0.34912 0.95673 0.0
C768 C 0.97271 0.26264 0.31358 0.0
C769 C 0.98057 0.2663 0.38447 0.0
H770 H 0.9887 0.26378 0.20766 0.0
C771 C 0.01125 0.27657 0.40154 0.0
H772 H 0.94927 0.25494 0.2983 0.0
C773 C 0.034 0.28103 0.3494 0.0
C774 C 0.02666 0.27528 0.27898 0.0
H775 H 0.01828 0.27946 0.45542 0.0
H776 H 0.05779 0.28755 0.36471 0.0
C777 C 0.99542 0.26729 0.26152 0.0
C778 C 0.73079 0.01124 0.40283 0.0
C779 C 0.74117 0.98058 0.386 0.0
H780 H 0.71962 0.05771 0.3656 0.0
C781 C 0.74477 0.97264 0.3152 0.0
H782 H 0.72793 0.01831 0.45664 0.0
C783 C 0.74 0.99527 0.26296 0.0
C784 C 0.73191 0.02651 0.28015 0.0
H785 H 0.75255 0.94921 0.30011 0.0
H786 H 0.74351 0.98851 0.20916 0.0
C787 C 0.72619 0.03392 0.35049 0.0
C788 C 0.9736 0.72562 0.35014 0.0
C789 C 0.98101 0.73131 0.27981 0.0
H790 H 0.98922 0.72735 0.45637 0.0
C791 C 0.01226 0.73934 0.26274 0.0
H792 H 0.94981 0.71909 0.36515 0.0
C793 C 0.0349 0.74408 0.31508 0.0
C794 C 0.02698 0.74049 0.38588 0.0
H795 H 0.01902 0.74282 0.20896 0.0
H796 H 0.05834 0.7518 0.30008 0.0
C797 C 0.99629 0.73018 0.40258 0.0
C798 C 0.26307 0.03423 0.31367 0.0
C799 C 0.26656 0.02634 0.38456 0.0
H800 H 0.26465 0.01833 0.20761 0.0
C801 C 0.27685 0.99566 0.40155 0.0
H802 H 0.25536 0.05767 0.29845 0.0
C803 C 0.28153 0.97296 0.34929 0.0
C804 C 0.276 0.98034 0.27882 0.0
H805 H 0.27961 0.98861 0.45541 0.0
H806 H 0.2881 0.94918 0.3645 0.0
C807 C 0.26796 0.01157 0.26148 0.0
C808 C 0.97129 0.7367 0.85448 0.0
C809 C 0.99311 0.73868 0.90998 0.0
H810 H 0.96431 0.73961 0.74379 0.0
C811 C 0.02544 0.73657 0.89523 0.0
H812 H 0.94616 0.73879 0.86463 0.0
C813 C 0.03575 0.73701 0.82592 0.0
C814 C 0.01392 0.73952 0.77055 0.0
H815 H 0.04272 0.73876 0.93666 0.0
H816 H 0.06088 0.73919 0.81594 0.0
C817 C 0.9816 0.73709 0.78512 0.0
C818 C 0.27023 0.0352 0.82515 0.0
C819 C 0.26754 0.0135 0.76964 0.0
H820 H 0.26857 0.04202 0.93591 0.0
C821 C 0.26962 0.98114 0.78412 0.0
H822 H 0.2683 0.06036 0.81524 0.0
C823 C 0.2699 0.97071 0.85345 0.0
C824 C 0.26818 0.99246 0.90905 0.0
H825 H 0.26695 0.96395 0.74269 0.0
H826 H 0.26758 0.94559 0.86347 0.0
C827 C 0.27057 0.02477 0.89443 0.0
C828 C 0.03669 0.26953 0.85361 0.0
C829 C 0.01485 0.26764 0.90891 0.0
H830 H 0.04369 0.26671 0.74298 0.0
C831 C 0.98254 0.26991 0.89383 0.0
H832 H 0.06181 0.26731 0.86399 0.0
C833 C 0.97224 0.2696 0.8244 0.0
C834 C 0.99407 0.26707 0.7692 0.0
H835 H 0.96523 0.26777 0.93507 0.0
H836 H 0.94711 0.26754 0.81416 0.0
C837 C 0.02639 0.26927 0.78414 0.0
C838 C 0.73762 0.02585 0.7852 0.0
C839 C 0.74004 0.99351 0.77071 0.0
H840 H 0.73928 0.06138 0.86465 0.0
C841 C 0.73746 0.97177 0.82609 0.0
H842 H 0.74017 0.04306 0.74384 0.0
C843 C 0.73697 0.98217 0.89538 0.0
C844 C 0.7391 0.0145 0.91008 0.0
H845 H 0.73961 0.94662 0.81614 0.0
H846 H 0.7391 0.96493 0.93684 0.0
C847 C 0.73718 0.03625 0.85454 0.0
C848 C 0.47232 0.78159 0.79697 0.0
C849 C 0.47991 0.77555 0.86712 0.0
H850 H 0.48785 0.78085 0.69079 0.0
C851 C 0.51134 0.76797 0.88405 0.0
H852 H 0.44838 0.78777 0.78208 0.0
C853 C 0.53403 0.76405 0.83169 0.0
C854 C 0.52594 0.76791 0.76099 0.0
H855 H 0.51821 0.76414 0.93772 0.0
H856 H 0.55762 0.75665 0.84657 0.0
C857 C 0.49504 0.77778 0.74451 0.0
C858 C 0.23837 0.51104 0.88984 0.0
C859 C 0.23063 0.47972 0.87267 0.0
H860 H 0.25078 0.5571 0.85256 0.0
C861 C 0.2253 0.47213 0.80225 0.0
H862 H 0.24151 0.51792 0.94369 0.0
C863 C 0.22995 0.49473 0.74985 0.0
C864 C 0.24001 0.52549 0.76667 0.0
H865 H 0.21895 0.44828 0.78719 0.0
H866 H 0.22739 0.48752 0.69603 0.0
C867 C 0.24324 0.53359 0.8375 0.0
C868 C 0.49461 0.23721 0.8944 0.0
C869 C 0.52598 0.2295 0.87758 0.0
H870 H 0.44828 0.24852 0.85684 0.0
C871 C 0.5335 0.22353 0.80744 0.0
H872 H 0.48782 0.24105 0.94806 0.0
C873 C 0.51076 0.22744 0.75489 0.0
C874 C 0.47986 0.23726 0.77124 0.0
H875 H 0.55741 0.21725 0.79263 0.0
H876 H 0.51789 0.22427 0.70122 0.0
C877 C 0.47185 0.24113 0.84195 0.0
C878 C 0.76961 0.47208 0.8323 0.0
C879 C 0.77385 0.4803 0.76185 0.0
H880 H 0.76771 0.48797 0.93828 0.0
C881 C 0.78248 0.51163 0.74603 0.0
H882 H 0.76303 0.44823 0.84679 0.0
C883 C 0.78488 0.53447 0.79868 0.0
C884 C 0.77855 0.52666 0.86847 0.0
H885 H 0.78589 0.51894 0.69255 0.0
H886 H 0.79024 0.55862 0.78412 0.0
C887 C 0.77196 0.49496 0.88489 0.0
C888 C 0.48372 0.23875 0.26538 0.0
C889 C 0.51581 0.24072 0.24838 0.0
H890 H 0.44937 0.24196 0.34683 0.0
C891 C 0.53839 0.23935 0.30251 0.0
H892 H 0.46587 0.24051 0.22502 0.0
C893 C 0.52903 0.24038 0.37251 0.0
C894 C 0.49692 0.2428 0.38914 0.0
H895 H 0.56336 0.24137 0.2906 0.0
H896 H 0.54686 0.24324 0.41258 0.0
C897 C 0.47436 0.2398 0.33531 0.0
C898 C 0.775 0.52539 0.36096 0.0
C899 C 0.77166 0.49331 0.37719 0.0
H900 H 0.77343 0.56015 0.27992 0.0
C901 C 0.77288 0.47093 0.32283 0.0
H902 H 0.77345 0.54311 0.40157 0.0
C903 C 0.77284 0.48061 0.25307 0.0
C904 C 0.77155 0.51284 0.23689 0.0
H905 H 0.76993 0.44599 0.33416 0.0
H906 H 0.76954 0.46304 0.21263 0.0
C907 C 0.77492 0.53508 0.29114 0.0
C908 C 0.47914 0.76889 0.36082 0.0
C909 C 0.51137 0.76718 0.377 0.0
H910 H 0.44443 0.7663 0.27963 0.0
C911 C 0.53361 0.77008 0.32274 0.0
H912 H 0.46156 0.76606 0.40132 0.0
C913 C 0.52389 0.77014 0.25294 0.0
C914 C 0.49176 0.76729 0.23664 0.0
H915 H 0.55869 0.76843 0.334 0.0
H916 H 0.54158 0.76823 0.21241 0.0
C917 C 0.46942 0.76895 0.29098 0.0
C918 C 0.23651 0.5248 0.2581 0.0
C919 C 0.23854 0.49263 0.24167 0.0
H920 H 0.23923 0.55946 0.33919 0.0
C921 C 0.23656 0.47029 0.29603 0.0
H922 H 0.23874 0.54247 0.21758 0.0
C923 C 0.23703 0.47994 0.36591 0.0
C924 C 0.2395 0.5121 0.38217 0.0
H925 H 0.23864 0.44527 0.2846 0.0
H926 H 0.23958 0.46226 0.40634 0.0
C927 C 0.23697 0.53444 0.32793 0.0
loop_
_geom_bond_atom_site_label_1
_geom_bond_atom_site_label_2
_geom_bond_distance
_geom_bond_site_symmetry_2
_ccdc_geom_bond_type
C0 C1 1.351 . S
C0 N3 1.368 . S
C0 H5 0.931 . S
C1 C0 1.351 . S
C1 N2 1.373 1_556 S
C1 H29 0.930 . S
N2 C1 1.373 1_554 S
N2 C4 1.340 . S
N3 C0 1.368 . S
N3 C4 1.321 1_556 S
N3 Co6 2.135 1_556 S
C4 N2 1.340 . S
C4 N3 1.321 1_554 S
C4 H28 0.930 . S
H5 C0 0.931 . S
Co6 N3 2.135 1_554 S
Co6 N9 2.121 1_455 S
Co6 O14 2.055 1_454 S
Co6 O17 2.039 . S
Co6 N20 2.140 . S
C7 O8 1.227 . S
C7 O17 1.265 . S
O8 C7 1.227 . S
N9 Co6 2.121 1_655 S
N9 C11 1.375 . S
N9 C12 1.313 1_554 S
C10 C11 1.338 . S
C10 N13 1.371 1_554 S
C10 H30 0.930 . S
C11 N9 1.375 . S
C11 C10 1.338 . S
C11 H15 0.931 . S
C12 N9 1.313 1_556 S
C12 N13 1.346 . S
C12 H16 0.930 . S
N13 C10 1.371 1_556 S
N13 C12 1.346 . S
O14 Co6 2.055 1_656 S
O14 C18 1.253 1_655 S
H15 C11 0.931 . S
H16 C12 0.930 . S
O17 Co6 2.039 . S
O17 C7 1.265 . S
C18 O14 1.253 1_455 S
C18 O19 1.227 . S
O19 C18 1.227 . S
N20 Co6 2.140 . S
N20 C23 1.346 . S
N20 C24 1.345 1_554 S
C21 C22 1.387 . S
C21 C25 1.391 1_554 S
C22 C21 1.387 . S
C22 C23 1.369 . S
C22 H31 0.929 . S
C23 N20 1.346 . S
C23 C22 1.369 . S
C23 H26 0.928 . S
C24 N20 1.345 1_556 S
C24 C25 1.371 . S
C24 H27 0.931 . S
C25 C21 1.391 1_556 S
C25 C24 1.371 . S
C25 H32 0.930 . S
H26 C23 0.928 . S
H27 C24 0.931 . S
H28 C4 0.930 . S
H29 C1 0.930 . S
H30 C10 0.930 . S
H31 C22 0.929 . S
H32 C25 0.930 . S
C33 C34 1.351 . S
C33 N36 1.368 . S
C33 H38 0.931 . S
C34 C33 1.351 . S
C34 N35 1.373 1_556 S
C34 H62 0.930 . S
N35 C34 1.373 1_554 S
N35 C37 1.340 . S
N36 C33 1.368 . S
N36 C37 1.321 1_556 S
N36 Co39 2.135 1_556 S
C37 N35 1.340 . S
C37 N36 1.321 1_554 S
C37 H61 0.930 . S
H38 C33 0.931 . S
Co39 N36 2.135 1_554 S
Co39 N42 2.121 1_545 S
Co39 O47 2.055 1_544 S
Co39 O50 2.039 . S
Co39 N53 2.140 . S
C40 O41 1.227 . S
C40 O50 1.265 . S
O41 C40 1.227 . S
N42 Co39 2.121 1_565 S
N42 C44 1.375 . S
N42 C45 1.313 1_554 S
C43 C44 1.338 . S
C43 N46 1.371 1_554 S
C43 H63 0.930 . S
C44 N42 1.375 . S
C44 C43 1.338 . S
C44 H48 0.931 . S
C45 N42 1.313 1_556 S
C45 N46 1.346 . S
C45 H49 0.930 . S
N46 C43 1.371 1_556 S
N46 C45 1.346 . S
O47 Co39 2.055 1_566 S
O47 C51 1.253 1_565 S
H48 C44 0.931 . S
H49 C45 0.930 . S
O50 Co39 2.039 . S
O50 C40 1.265 . S
C51 O47 1.253 1_545 S
C51 O52 1.227 . S
O52 C51 1.227 . S
N53 Co39 2.140 . S
N53 C56 1.346 . S
N53 C57 1.345 1_554 S
C54 C55 1.387 . S
C54 C58 1.391 1_554 S
C55 C54 1.387 . S
C55 C56 1.369 . S
C55 H64 0.929 . S
C56 N53 1.346 . S
C56 C55 1.369 . S
C56 H59 0.928 . S
C57 N53 1.345 1_556 S
C57 C58 1.371 . S
C57 H60 0.931 . S
C58 C54 1.391 1_556 S
C58 C57 1.371 . S
C58 H65 0.930 . S
H59 C56 0.928 . S
H60 C57 0.931 . S
H61 C37 0.930 . S
H62 C34 0.930 . S
H63 C43 0.930 . S
H64 C55 0.929 . S
H65 C58 0.930 . S
C66 C67 1.351 . S
C66 N69 1.368 . S
C66 H71 0.931 . S
C67 C66 1.351 . S
C67 N68 1.373 1_556 S
C67 H95 0.930 . S
N68 C67 1.373 1_554 S
N68 C70 1.340 . S
N69 C66 1.368 . S
N69 C70 1.321 1_556 S
N69 Co72 2.135 1_556 S
C70 N68 1.340 . S
C70 N69 1.321 1_554 S
C70 H94 0.930 . S
H71 C66 0.931 . S
Co72 N69 2.135 1_554 S
Co72 N75 2.121 1_655 S
Co72 O80 2.055 1_654 S
Co72 O83 2.039 . S
Co72 N86 2.140 . S
C73 O74 1.227 . S
C73 O83 1.265 . S
O74 C73 1.227 . S
N75 Co72 2.121 1_455 S
N75 C77 1.375 . S
N75 C78 1.313 1_554 S
C76 C77 1.338 . S
C76 N79 1.371 1_554 S
C76 H96 0.930 . S
C77 N75 1.375 . S
C77 C76 1.338 . S
C77 H81 0.931 . S
C78 N75 1.313 1_556 S
C78 N79 1.346 . S
C78 H82 0.930 . S
N79 C76 1.371 1_556 S
N79 C78 1.346 . S
O80 Co72 2.055 1_456 S
O80 C84 1.253 1_455 S
H81 C77 0.931 . S
H82 C78 0.930 . S
O83 Co72 2.039 . S
O83 C73 1.265 . S
C84 O80 1.253 1_655 S
C84 O85 1.227 . S
O85 C84 1.227 . S
N86 Co72 2.140 . S
N86 C89 1.346 . S
N86 C90 1.345 1_554 S
C87 C88 1.387 . S
C87 C91 1.391 1_554 S
C88 C87 1.387 . S
C88 C89 1.369 . S
C88 H97 0.929 . S
C89 N86 1.346 . S
C89 C88 1.369 . S
C89 H92 0.928 . S
C90 N86 1.345 1_556 S
C90 C91 1.371 . S
C90 H93 0.931 . S
C91 C87 1.391 1_556 S
C91 C90 1.371 . S
C91 H98 0.930 . S
H92 C89 0.928 . S
H93 C90 0.931 . S
H94 C70 0.930 . S
H95 C67 0.930 . S
H96 C76 0.930 . S
H97 C88 0.929 . S
H98 C91 0.930 . S
C99 C100 1.351 . S
C99 N102 1.368 . S
C99 H104 0.931 . S
C100 C99 1.351 . S
C100 N101 1.373 1_556 S
C100 H128 0.930 . S
N101 C100 1.373 1_554 S
N101 C103 1.340 . S
N102 C99 1.368 . S
N102 C103 1.321 1_556 S
N102 Co105 2.135 1_556 S
C103 N101 1.340 . S
C103 N102 1.321 1_554 S
C103 H127 0.930 . S
H104 C99 0.931 . S
Co105 N102 2.135 1_554 S
Co105 N108 2.121 1_565 S
Co105 O113 2.055 1_564 S
Co105 O116 2.039 . S
Co105 N119 2.140 . S
C106 O107 1.227 . S
C106 O116 1.265 . S
O107 C106 1.227 . S
N108 Co105 2.121 1_545 S
N108 C110 1.375 . S
N108 C111 1.313 1_554 S
C109 C110 1.338 . S
C109 N112 1.371 1_554 S
C109 H129 0.930 . S
C110 N108 1.375 . S
C110 C109 1.338 . S
C110 H114 0.931 . S
C111 N108 1.313 1_556 S
C111 N112 1.346 . S
C111 H115 0.930 . S
N112 C109 1.371 1_556 S
N112 C111 1.346 . S
O113 Co105 2.055 1_546 S
O113 C117 1.253 1_545 S
H114 C110 0.931 . S
H115 C111 0.930 . S
O116 Co105 2.039 . S
O116 C106 1.265 . S
C117 O113 1.253 1_565 S
C117 O118 1.227 . S
O118 C117 1.227 . S
N119 Co105 2.140 . S
N119 C122 1.346 . S
N119 C123 1.345 1_554 S
C120 C121 1.387 . S
C120 C124 1.391 1_554 S
C121 C120 1.387 . S
C121 C122 1.369 . S
C121 H130 0.929 . S
C122 N119 1.346 . S
C122 C121 1.369 . S
C122 H125 0.928 . S
C123 N119 1.345 1_556 S
C123 C124 1.371 . S
C123 H126 0.931 . S
C124 C120 1.391 1_556 S
C124 C123 1.371 . S
C124 H131 0.930 . S
H125 C122 0.928 . S
H126 C123 0.931 . S
H127 C103 0.930 . S
H128 C100 0.930 . S
H129 C109 0.930 . S
H130 C121 0.929 . S
H131 C124 0.930 . S
C132 C133 1.351 . S
C132 N135 1.368 . S
C132 H137 0.931 . S
C133 C132 1.351 . S
C133 N134 1.373 . S
C133 H161 0.930 . S
N134 C133 1.373 . S
N134 C136 1.340 . S
N135 C132 1.368 . S
N135 C136 1.321 . S
N135 Co138 2.135 . S
C136 N134 1.340 . S
C136 N135 1.321 . S
C136 H160 0.930 . S
H137 C132 0.931 . S
Co138 N135 2.135 . S
Co138 N141 2.121 1_455 S
Co138 O146 2.055 1_455 S
Co138 O149 2.039 . S
Co138 N152 2.140 . S
C139 O140 1.227 . S
C139 O149 1.265 . S
O140 C139 1.227 . S
N141 Co138 2.121 1_655 S
N141 C143 1.375 . S
N141 C144 1.313 . S
C142 C143 1.338 . S
C142 N145 1.377 . S
C142 H162 0.930 . S
C143 N141 1.375 . S
C143 C142 1.338 . S
C143 H147 0.931 . S
C144 N141 1.313 . S
C144 N145 1.344 . S
C144 H148 0.930 . S
N145 C142 1.377 . S
N145 C144 1.344 . S
O146 Co138 2.055 1_655 S
O146 C150 1.253 1_655 S
H147 C143 0.931 . S
H148 C144 0.930 . S
O149 Co138 2.039 . S
O149 C139 1.265 . S
C150 O146 1.253 1_455 S
C150 O151 1.227 . S
O151 C150 1.227 . S
N152 Co138 2.140 . S
N152 C155 1.346 . S
N152 C156 1.345 . S
C153 C154 1.387 . S
C153 C157 1.391 . S
C154 C153 1.387 . S
C154 C155 1.369 . S
C154 H163 0.929 . S
C155 N152 1.346 . S
C155 C154 1.369 . S
C155 H158 0.928 . S
C156 N152 1.345 . S
C156 C157 1.371 . S
C156 H159 0.931 . S
C157 C153 1.391 . S
C157 C156 1.371 . S
C157 H164 0.930 . S
H158 C155 0.928 . S
H159 C156 0.931 . S
H160 C136 0.930 . S
H161 C133 0.930 . S
H162 C142 0.930 . S
H163 C154 0.929 . S
H164 C157 0.930 . S
C165 C166 1.351 . S
C165 N168 1.368 . S
C165 H170 0.931 . S
C166 C165 1.351 . S
C166 N167 1.373 . S
C166 H194 0.930 . S
N167 C166 1.373 . S
N167 C169 1.340 . S
N168 C165 1.368 . S
N168 C169 1.321 . S
N168 Co171 2.135 . S
C169 N167 1.340 . S
C169 N168 1.321 . S
C169 H193 0.930 . S
H170 C165 0.931 . S
Co171 N168 2.135 . S
Co171 N174 2.121 1_545 S
Co171 O179 2.055 1_545 S
Co171 O182 2.039 . S
Co171 N185 2.140 . S
C172 O173 1.227 . S
C172 O182 1.265 . S
O173 C172 1.227 . S
N174 Co171 2.121 1_565 S
N174 C176 1.375 . S
N174 C177 1.313 . S
C175 C176 1.338 . S
C175 N178 1.377 . S
C175 H195 0.930 . S
C176 N174 1.375 . S
C176 C175 1.338 . S
C176 H180 0.931 . S
C177 N174 1.313 . S
C177 N178 1.344 . S
C177 H181 0.930 . S
N178 C175 1.377 . S
N178 C177 1.344 . S
O179 Co171 2.055 1_565 S
O179 C183 1.253 1_565 S
H180 C176 0.931 . S
H181 C177 0.930 . S
O182 Co171 2.039 . S
O182 C172 1.265 . S
C183 O179 1.253 1_545 S
C183 O184 1.227 . S
O184 C183 1.227 . S
N185 Co171 2.140 . S
N185 C188 1.346 . S
N185 C189 1.345 . S
C186 C187 1.387 . S
C186 C190 1.391 . S
C187 C186 1.387 . S
C187 C188 1.369 . S
C187 H196 0.929 . S
C188 N185 1.346 . S
C188 C187 1.369 . S
C188 H191 0.928 . S
C189 N185 1.345 . S
C189 C190 1.371 . S
C189 H192 0.931 . S
C190 C186 1.391 . S
C190 C189 1.371 . S
C190 H197 0.930 . S
H191 C188 0.928 . S
H192 C189 0.931 . S
H193 C169 0.930 . S
H194 C166 0.930 . S
H195 C175 0.930 . S
H196 C187 0.929 . S
H197 C190 0.930 . S
C198 C199 1.351 . S
C198 N201 1.368 . S
C198 H203 0.931 . S
C199 C198 1.351 . S
C199 N200 1.373 . S
C199 H227 0.930 . S
N200 C199 1.373 . S
N200 C202 1.340 . S
N201 C198 1.368 . S
N201 C202 1.321 . S
N201 Co204 2.135 . S
C202 N200 1.340 . S
C202 N201 1.321 . S
C202 H226 0.930 . S
H203 C198 0.931 . S
Co204 N201 2.135 . S
Co204 N207 2.121 1_655 S
Co204 O212 2.055 1_655 S
Co204 O215 2.039 . S
Co204 N218 2.140 . S
C205 O206 1.227 . S
C205 O215 1.265 . S
O206 C205 1.227 . S
N207 Co204 2.121 1_455 S
N207 C209 1.375 . S
N207 C210 1.313 . S
C208 C209 1.338 . S
C208 N211 1.377 . S
C208 H228 0.930 . S
C209 N207 1.375 . S
C209 C208 1.338 . S
C209 H213 0.931 . S
C210 N207 1.313 . S
C210 N211 1.344 . S
C210 H214 0.930 . S
N211 C208 1.377 . S
N211 C210 1.344 . S
O212 Co204 2.055 1_455 S
O212 C216 1.253 1_455 S
H213 C209 0.931 . S
H214 C210 0.930 . S
O215 Co204 2.039 . S
O215 C205 1.265 . S
C216 O212 1.253 1_655 S
C216 O217 1.227 . S
O217 C216 1.227 . S
N218 Co204 2.140 . S
N218 C221 1.346 . S
N218 C222 1.345 . S
C219 C220 1.387 . S
C219 C223 1.391 . S
C220 C219 1.387 . S
C220 C221 1.369 . S
C220 H229 0.929 . S
C221 N218 1.346 . S
C221 C220 1.369 . S
C221 H224 0.928 . S
C222 N218 1.345 . S
C222 C223 1.371 . S
C222 H225 0.931 . S
C223 C219 1.391 . S
C223 C222 1.371 . S
C223 H230 0.930 . S
H224 C221 0.928 . S
H225 C222 0.931 . S
H226 C202 0.930 . S
H227 C199 0.930 . S
H228 C208 0.930 . S
H229 C220 0.929 . S
H230 C223 0.930 . S
C231 C232 1.351 . S
C231 N234 1.368 . S
C231 H236 0.931 . S
C232 C231 1.351 . S
C232 N233 1.373 . S
C232 H260 0.930 . S
N233 C232 1.373 . S
N233 C235 1.340 . S
N234 C231 1.368 . S
N234 C235 1.321 . S
N234 Co237 2.135 . S
C235 N233 1.340 . S
C235 N234 1.321 . S
C235 H259 0.930 . S
H236 C231 0.931 . S
Co237 N234 2.135 . S
Co237 N240 2.121 1_565 S
Co237 O245 2.055 1_565 S
Co237 O248 2.039 . S
Co237 N251 2.140 . S
C238 O239 1.227 . S
C238 O248 1.265 . S
O239 C238 1.227 . S
N240 Co237 2.121 1_545 S
N240 C242 1.375 . S
N240 C243 1.313 . S
C241 C242 1.338 . S
C241 N244 1.377 . S
C241 H261 0.930 . S
C242 N240 1.375 . S
C242 C241 1.338 . S
C242 H246 0.931 . S
C243 N240 1.313 . S
C243 N244 1.344 . S
C243 H247 0.930 . S
N244 C241 1.377 . S
N244 C243 1.344 . S
O245 Co237 2.055 1_545 S
O245 C249 1.253 1_545 S
H246 C242 0.931 . S
H247 C243 0.930 . S
O248 Co237 2.039 . S
O248 C238 1.265 . S
C249 O245 1.253 1_565 S
C249 O250 1.227 . S
O250 C249 1.227 . S
N251 Co237 2.140 . S
N251 C254 1.346 . S
N251 C255 1.345 . S
C252 C253 1.387 . S
C252 C256 1.391 . S
C253 C252 1.387 . S
C253 C254 1.369 . S
C253 H262 0.929 . S
C254 N251 1.346 . S
C254 C253 1.369 . S
C254 H257 0.928 . S
C255 N251 1.345 . S
C255 C256 1.371 . S
C255 H258 0.931 . S
C256 C252 1.391 . S
C256 C255 1.371 . S
C256 H263 0.930 . S
H257 C254 0.928 . S
H258 C255 0.931 . S
H259 C235 0.930 . S
H260 C232 0.930 . S
H261 C241 0.930 . S
H262 C253 0.929 . S
H263 C256 0.930 . S
C264 C265 1.351 . S
C264 N267 1.368 . S
C264 H269 0.931 . S
C265 C264 1.351 . S
C265 N266 1.373 . S
C265 H293 0.930 . S
N266 C265 1.373 . S
N266 C268 1.340 . S
N267 C264 1.368 . S
N267 C268 1.321 . S
N267 Co270 2.135 . S
C268 N266 1.340 . S
C268 N267 1.321 . S
C268 H292 0.930 . S
H269 C264 0.931 . S
Co270 N267 2.135 . S
Co270 N273 2.121 . S
Co270 O278 2.055 . S
Co270 O281 2.039 . S
Co270 N284 2.140 . S
C271 O272 1.227 . S
C271 O281 1.265 . S
O272 C271 1.227 . S
N273 Co270 2.121 . S
N273 C275 1.375 . S
N273 C276 1.313 . S
C274 C275 1.338 . S
C274 N277 1.377 . S
C274 H294 0.930 . S
C275 N273 1.375 . S
C275 C274 1.338 . S
C275 H279 0.931 . S
C276 N273 1.313 . S
C276 N277 1.344 . S
C276 H280 0.930 . S
N277 C274 1.377 . S
N277 C276 1.344 . S
O278 Co270 2.055 . S
O278 C282 1.253 . S
H279 C275 0.931 . S
H280 C276 0.930 . S
O281 Co270 2.039 . S
O281 C271 1.265 . S
C282 O278 1.253 . S
C282 O283 1.227 . S
O283 C282 1.227 . S
N284 Co270 2.140 . S
N284 C287 1.346 . S
N284 C288 1.345 . S
C285 C286 1.387 . S
C285 C289 1.391 . S
C286 C285 1.387 . S
C286 C287 1.369 . S
C286 H295 0.929 . S
C287 N284 1.346 . S
C287 C286 1.369 . S
C287 H290 0.928 . S
C288 N284 1.345 . S
C288 C289 1.371 . S
C288 H291 0.931 . S
C289 C285 1.391 . S
C289 C288 1.371 . S
C289 H296 0.930 . S
H290 C287 0.928 . S
H291 C288 0.931 . S
H292 C268 0.930 . S
H293 C265 0.930 . S
H294 C274 0.930 . S
H295 C286 0.929 . S
H296 C289 0.930 . S
C297 C298 1.351 . S
C297 N300 1.368 . S
C297 H302 0.931 . S
C298 C297 1.351 . S
C298 N299 1.373 . S
C298 H326 0.930 . S
N299 C298 1.373 . S
N299 C301 1.340 . S
N300 C297 1.368 . S
N300 C301 1.321 . S
N300 Co303 2.135 . S
C301 N299 1.340 . S
C301 N300 1.321 . S
C301 H325 0.930 . S
H302 C297 0.931 . S
Co303 N300 2.135 . S
Co303 N306 2.121 . S
Co303 O311 2.055 . S
Co303 O314 2.039 . S
Co303 N317 2.140 . S
C304 O305 1.227 . S
C304 O314 1.265 . S
O305 C304 1.227 . S
N306 Co303 2.121 . S
N306 C308 1.375 . S
N306 C309 1.313 . S
C307 C308 1.338 . S
C307 N310 1.377 . S
C307 H327 0.930 . S
C308 N306 1.375 . S
C308 C307 1.338 . S
C308 H312 0.931 . S
C309 N306 1.313 . S
C309 N310 1.344 . S
C309 H313 0.930 . S
N310 C307 1.377 . S
N310 C309 1.344 . S
O311 Co303 2.055 . S
O311 C315 1.253 . S
H312 C308 0.931 . S
H313 C309 0.930 . S
O314 Co303 2.039 . S
O314 C304 1.265 . S
C315 O311 1.253 . S
C315 O316 1.227 . S
O316 C315 1.227 . S
N317 Co303 2.140 . S
N317 C320 1.346 . S
N317 C321 1.345 . S
C318 C319 1.387 . S
C318 C322 1.391 . S
C319 C318 1.387 . S
C319 C320 1.369 . S
C319 H328 0.929 . S
C320 N317 1.346 . S
C320 C319 1.369 . S
C320 H323 0.928 . S
C321 N317 1.345 . S
C321 C322 1.371 . S
C321 H324 0.931 . S
C322 C318 1.391 . S
C322 C321 1.371 . S
C322 H329 0.930 . S
H323 C320 0.928 . S
H324 C321 0.931 . S
H325 C301 0.930 . S
H326 C298 0.930 . S
H327 C307 0.930 . S
H328 C319 0.929 . S
H329 C322 0.930 . S
C330 C331 1.351 . S
C330 N333 1.368 . S
C330 H335 0.931 . S
C331 C330 1.351 . S
C331 N332 1.373 . S
C331 H359 0.930 . S
N332 C331 1.373 . S
N332 C334 1.340 . S
N333 C330 1.368 . S
N333 C334 1.321 . S
N333 Co336 2.135 . S
C334 N332 1.340 . S
C334 N333 1.321 . S
C334 H358 0.930 . S
H335 C330 0.931 . S
Co336 N333 2.135 . S
Co336 N339 2.121 . S
Co336 O344 2.055 . S
Co336 O347 2.039 . S
Co336 N350 2.140 . S
C337 O338 1.227 . S
C337 O347 1.265 . S
O338 C337 1.227 . S
N339 Co336 2.121 . S
N339 C341 1.375 . S
N339 C342 1.313 . S
C340 C341 1.338 . S
C340 N343 1.377 . S
C340 H360 0.930 . S
C341 N339 1.375 . S
C341 C340 1.338 . S
C341 H345 0.931 . S
C342 N339 1.313 . S
C342 N343 1.344 . S
C342 H346 0.930 . S
N343 C340 1.377 . S
N343 C342 1.344 . S
O344 Co336 2.055 . S
O344 C348 1.253 . S
H345 C341 0.931 . S
H346 C342 0.930 . S
O347 Co336 2.039 . S
O347 C337 1.265 . S
C348 O344 1.253 . S
C348 O349 1.227 . S
O349 C348 1.227 . S
N350 Co336 2.140 . S
N350 C353 1.346 . S
N350 C354 1.345 . S
C351 C352 1.387 . S
C351 C355 1.391 . S
C352 C351 1.387 . S
C352 C353 1.369 . S
C352 H361 0.929 . S
C353 N350 1.346 . S
C353 C352 1.369 . S
C353 H356 0.928 . S
C354 N350 1.345 . S
C354 C355 1.371 . S
C354 H357 0.931 . S
C355 C351 1.391 . S
C355 C354 1.371 . S
C355 H362 0.930 . S
H356 C353 0.928 . S
H357 C354 0.931 . S
H358 C334 0.930 . S
H359 C331 0.930 . S
H360 C340 0.930 . S
H361 C352 0.929 . S
H362 C355 0.930 . S
C363 C364 1.351 . S
C363 N366 1.368 . S
C363 H368 0.931 . S
C364 C363 1.351 . S
C364 N365 1.373 . S
C364 H392 0.930 . S
N365 C364 1.373 . S
N365 C367 1.340 . S
N366 C363 1.368 . S
N366 C367 1.321 . S
N366 Co369 2.135 . S
C367 N365 1.340 . S
C367 N366 1.321 . S
C367 H391 0.930 . S
H368 C363 0.931 . S
Co369 N366 2.135 . S
Co369 N372 2.121 . S
Co369 O377 2.055 . S
Co369 O380 2.039 . S
Co369 N383 2.140 . S
C370 O371 1.227 . S
C370 O380 1.265 . S
O371 C370 1.227 . S
N372 Co369 2.121 . S
N372 C374 1.375 . S
N372 C375 1.313 . S
C373 C374 1.338 . S
C373 N376 1.377 . S
C373 H393 0.930 . S
C374 N372 1.375 . S
C374 C373 1.338 . S
C374 H378 0.931 . S
C375 N372 1.313 . S
C375 N376 1.344 . S
C375 H379 0.930 . S
N376 C373 1.377 . S
N376 C375 1.344 . S
O377 Co369 2.055 . S
O377 C381 1.253 . S
H378 C374 0.931 . S
H379 C375 0.930 . S
O380 Co369 2.039 . S
O380 C370 1.265 . S
C381 O377 1.253 . S
C381 O382 1.227 . S
O382 C381 1.227 . S
N383 Co369 2.140 . S
N383 C386 1.346 . S
N383 C387 1.345 . S
C384 C385 1.387 . S
C384 C388 1.391 . S
C385 C384 1.387 . S
C385 C386 1.369 . S
C385 H394 0.929 . S
C386 N383 1.346 . S
C386 C385 1.369 . S
C386 H389 0.928 . S
C387 N383 1.345 . S
C387 C388 1.371 . S
C387 H390 0.931 . S
C388 C384 1.391 . S
C388 C387 1.371 . S
C388 H395 0.930 . S
H389 C386 0.928 . S
H390 C387 0.931 . S
H391 C367 0.930 . S
H392 C364 0.930 . S
H393 C373 0.930 . S
H394 C385 0.929 . S
H395 C388 0.930 . S
C396 C397 1.351 . S
C396 N399 1.368 . S
C396 H401 0.931 . S
C397 C396 1.351 . S
C397 N398 1.373 . S
C397 H425 0.930 . S
N398 C397 1.373 . S
N398 C400 1.340 . S
N399 C396 1.368 . S
N399 C400 1.321 . S
N399 Co402 2.135 . S
C400 N398 1.340 . S
C400 N399 1.321 . S
C400 H424 0.930 1_554 S
H401 C396 0.931 . S
Co402 N399 2.135 . S
Co402 N405 2.121 . S
Co402 O410 2.055 . S
Co402 O413 2.039 1_554 S
Co402 N416 2.140 . S
C403 O404 1.227 . S
C403 O413 1.265 . S
O404 C403 1.227 . S
N405 Co402 2.121 . S
N405 C407 1.375 1_554 S
N405 C408 1.313 . S
C406 C407 1.338 . S
C406 N409 1.377 1_556 S
C406 H426 0.930 . S
C407 N405 1.375 1_556 S
C407 C406 1.338 . S
C407 H411 0.931 . S
C408 N405 1.313 . S
C408 N409 1.344 . S
C408 H412 0.930 . S
N409 C406 1.377 1_554 S
N409 C408 1.344 . S
O410 Co402 2.055 . S
O410 C414 1.253 . S
H411 C407 0.931 . S
H412 C408 0.930 . S
O413 Co402 2.039 1_556 S
O413 C403 1.265 . S
C414 O410 1.253 . S
C414 O415 1.227 . S
O415 C414 1.227 . S
N416 Co402 2.140 . S
N416 C419 1.346 1_554 S
N416 C420 1.345 . S
C417 C418 1.387 1_554 S
C417 C421 1.391 . S
C418 C417 1.387 1_556 S
C418 C419 1.369 . S
C418 H427 0.929 . S
C419 N416 1.346 1_556 S
C419 C418 1.369 . S
C419 H422 0.928 . S
C420 N416 1.345 . S
C420 C421 1.371 . S
C420 H423 0.931 . S
C421 C417 1.391 . S
C421 C420 1.371 . S
C421 H428 0.930 . S
H422 C419 0.928 . S
H423 C420 0.931 . S
H424 C400 0.930 1_556 S
H425 C397 0.930 . S
H426 C406 0.930 . S
H427 C418 0.929 . S
H428 C421 0.930 . S
C429 C430 1.351 . S
C429 N432 1.368 . S
C429 H434 0.931 . S
C430 C429 1.351 . S
C430 N431 1.373 . S
C430 H458 0.930 . S
N431 C430 1.373 . S
N431 C433 1.340 . S
N432 C429 1.368 . S
N432 C433 1.321 . S
N432 Co435 2.135 . S
C433 N431 1.340 . S
C433 N432 1.321 . S
C433 H457 0.930 1_554 S
H434 C429 0.931 . S
Co435 N432 2.135 . S
Co435 N438 2.121 . S
Co435 O443 2.055 . S
Co435 O446 2.039 1_554 S
Co435 N449 2.140 . S
C436 O437 1.227 . S
C436 O446 1.265 . S
O437 C436 1.227 . S
N438 Co435 2.121 . S
N438 C440 1.375 1_554 S
N438 C441 1.313 . S
C439 C440 1.338 . S
C439 N442 1.377 1_556 S
C439 H459 0.930 . S
C440 N438 1.375 1_556 S
C440 C439 1.338 . S
C440 H444 0.931 . S
C441 N438 1.313 . S
C441 N442 1.344 . S
C441 H445 0.930 . S
N442 C439 1.377 1_554 S
N442 C441 1.344 . S
O443 Co435 2.055 . S
O443 C447 1.253 . S
H444 C440 0.931 . S
H445 C441 0.930 . S
O446 Co435 2.039 1_556 S
O446 C436 1.265 . S
C447 O443 1.253 . S
C447 O448 1.227 . S
O448 C447 1.227 . S
N449 Co435 2.140 . S
N449 C452 1.346 1_554 S
N449 C453 1.345 . S
C450 C451 1.387 1_554 S
C450 C454 1.391 . S
C451 C450 1.387 1_556 S
C451 C452 1.369 . S
C451 H460 0.929 . S
C452 N449 1.346 1_556 S
C452 C451 1.369 . S
C452 H455 0.928 . S
C453 N449 1.345 . S
C453 C454 1.371 . S
C453 H456 0.931 . S
C454 C450 1.391 . S
C454 C453 1.371 . S
C454 H461 0.930 . S
H455 C452 0.928 . S
H456 C453 0.931 . S
H457 C433 0.930 1_556 S
H458 C430 0.930 . S
H459 C439 0.930 . S
H460 C451 0.929 . S
H461 C454 0.930 . S
C462 C463 1.351 . S
C462 N465 1.368 . S
C462 H467 0.931 . S
C463 C462 1.351 . S
C463 N464 1.373 . S
C463 H491 0.930 . S
N464 C463 1.373 . S
N464 C466 1.340 . S
N465 C462 1.368 . S
N465 C466 1.321 . S
N465 Co468 2.135 . S
C466 N464 1.340 . S
C466 N465 1.321 . S
C466 H490 0.930 1_554 S
H467 C462 0.931 . S
Co468 N465 2.135 . S
Co468 N471 2.121 . S
Co468 O476 2.055 . S
Co468 O479 2.039 1_554 S
Co468 N482 2.140 . S
C469 O470 1.227 . S
C469 O479 1.265 . S
O470 C469 1.227 . S
N471 Co468 2.121 . S
N471 C473 1.375 1_554 S
N471 C474 1.313 . S
C472 C473 1.338 . S
C472 N475 1.377 1_556 S
C472 H492 0.930 . S
C473 N471 1.375 1_556 S
C473 C472 1.338 . S
C473 H477 0.931 . S
C474 N471 1.313 . S
C474 N475 1.344 . S
C474 H478 0.930 . S
N475 C472 1.377 1_554 S
N475 C474 1.344 . S
O476 Co468 2.055 . S
O476 C480 1.253 . S
H477 C473 0.931 . S
H478 C474 0.930 . S
O479 Co468 2.039 1_556 S
O479 C469 1.265 . S
C480 O476 1.253 . S
C480 O481 1.227 . S
O481 C480 1.227 . S
N482 Co468 2.140 . S
N482 C485 1.346 1_554 S
N482 C486 1.345 . S
C483 C484 1.387 1_554 S
C483 C487 1.391 . S
C484 C483 1.387 1_556 S
C484 C485 1.369 . S
C484 H493 0.929 . S
C485 N482 1.346 1_556 S
C485 C484 1.369 . S
C485 H488 0.928 . S
C486 N482 1.345 . S
C486 C487 1.371 . S
C486 H489 0.931 . S
C487 C483 1.391 . S
C487 C486 1.371 . S
C487 H494 0.930 . S
H488 C485 0.928 . S
H489 C486 0.931 . S
H490 C466 0.930 1_556 S
H491 C463 0.930 . S
H492 C472 0.930 . S
H493 C484 0.929 . S
H494 C487 0.930 . S
C495 C496 1.351 . S
C495 N498 1.368 . S
C495 H500 0.931 . S
C496 C495 1.351 . S
C496 N497 1.373 . S
C496 H524 0.930 . S
N497 C496 1.373 . S
N497 C499 1.340 . S
N498 C495 1.368 . S
N498 C499 1.321 . S
N498 Co501 2.135 . S
C499 N497 1.340 . S
C499 N498 1.321 . S
C499 H523 0.930 1_554 S
H500 C495 0.931 . S
Co501 N498 2.135 . S
Co501 N504 2.121 . S
Co501 O509 2.055 . S
Co501 O512 2.039 1_554 S
Co501 N515 2.140 . S
C502 O503 1.227 . S
C502 O512 1.265 . S
O503 C502 1.227 . S
N504 Co501 2.121 . S
N504 C506 1.375 1_554 S
N504 C507 1.313 . S
C505 C506 1.338 . S
C505 N508 1.377 1_556 S
C505 H525 0.930 . S
C506 N504 1.375 1_556 S
C506 C505 1.338 . S
C506 H510 0.931 . S
C507 N504 1.313 . S
C507 N508 1.344 . S
C507 H511 0.930 . S
N508 C505 1.377 1_554 S
N508 C507 1.344 . S
O509 Co501 2.055 . S
O509 C513 1.253 . S
H510 C506 0.931 . S
H511 C507 0.930 . S
O512 Co501 2.039 1_556 S
O512 C502 1.265 . S
C513 O509 1.253 . S
C513 O514 1.227 . S
O514 C513 1.227 . S
N515 Co501 2.140 . S
N515 C518 1.346 1_554 S
N515 C519 1.345 . S
C516 C517 1.387 1_554 S
C516 C520 1.391 . S
C517 C516 1.387 1_556 S
C517 C518 1.369 . S
C517 H526 0.929 . S
C518 N515 1.346 1_556 S
C518 C517 1.369 . S
C518 H521 0.928 . S
C519 N515 1.345 . S
C519 C520 1.371 . S
C519 H522 0.931 . S
C520 C516 1.391 . S
C520 C519 1.371 . S
C520 H527 0.930 . S
H521 C518 0.928 . S
H522 C519 0.931 . S
H523 C499 0.930 1_556 S
H524 C496 0.930 . S
H525 C505 0.930 . S
H526 C517 0.929 . S
H527 C520 0.930 . S
C528 C529 1.387 1_556 S
C528 H532 0.950 . S
C528 C537 1.390 . S
C529 C528 1.387 1_554 S
C529 C531 1.387 . S
H530 C537 0.950 . S
C531 C529 1.387 . S
C531 C533 1.390 . S
C531 H535 0.950 . S
H532 C528 0.950 . S
C533 C531 1.390 . S
C533 C534 1.387 . S
C533 H536 0.950 . S
C534 C533 1.387 . S
C534 C537 1.387 1_554 S
H535 C531 0.950 . S
H536 C533 0.950 . S
C537 C528 1.390 . S
C537 H530 0.950 . S
C537 C534 1.387 1_556 S
C538 C539 1.387 . S
C538 H542 0.950 . S
C538 C547 1.390 . S
C539 C538 1.387 . S
C539 C541 1.387 1_554 S
H540 C547 0.950 . S
C541 C539 1.387 1_556 S
C541 C543 1.390 . S
C541 H545 0.950 . S
H542 C538 0.950 . S
C543 C541 1.390 . S
C543 C544 1.387 1_556 S
C543 H546 0.950 . S
C544 C543 1.387 1_554 S
C544 C547 1.387 . S
H545 C541 0.950 . S
H546 C543 0.950 . S
C547 C538 1.390 . S
C547 H540 0.950 . S
C547 C544 1.387 . S
C548 C549 1.387 1_556 S
C548 H552 0.950 . S
C548 C557 1.390 . S
C549 C548 1.387 1_554 S
C549 C551 1.387 . S
H550 C557 0.950 . S
C551 C549 1.387 . S
C551 C553 1.390 . S
C551 H555 0.950 . S
H552 C548 0.950 . S
C553 C551 1.390 . S
C553 C554 1.387 . S
C553 H556 0.950 . S
C554 C553 1.387 . S
C554 C557 1.387 1_554 S
H555 C551 0.950 . S
H556 C553 0.950 . S
C557 C548 1.390 . S
C557 H550 0.950 . S
C557 C554 1.387 1_556 S
C558 C559 1.387 1_556 S
C558 H562 0.950 . S
C558 C567 1.390 . S
C559 C558 1.387 1_554 S
C559 C561 1.387 . S
H560 C567 0.950 . S
C561 C559 1.387 . S
C561 C563 1.390 . S
C561 H565 0.950 . S
H562 C558 0.950 . S
C563 C561 1.390 . S
C563 C564 1.387 . S
C563 H566 0.950 . S
C564 C563 1.387 . S
C564 C567 1.387 1_554 S
H565 C561 0.950 . S
H566 C563 0.950 . S
C567 C558 1.390 . S
C567 H560 0.950 . S
C567 C564 1.387 1_556 S
C568 C569 1.387 . S
C568 H572 0.950 . S
C568 C577 1.390 . S
C569 C568 1.387 . S
C569 C571 1.387 . S
H570 C577 0.950 . S
C571 C569 1.387 . S
C571 C573 1.390 . S
C571 H575 0.950 . S
H572 C568 0.950 . S
C573 C571 1.390 . S
C573 C574 1.387 . S
C573 H576 0.950 . S
C574 C573 1.387 . S
C574 C577 1.387 . S
H575 C571 0.950 . S
H576 C573 0.950 . S
C577 C568 1.390 . S
C577 H570 0.950 . S
C577 C574 1.387 . S
C578 C579 1.387 . S
C578 H582 0.950 . S
C578 C587 1.390 . S
C579 C578 1.387 . S
C579 C581 1.387 . S
H580 C587 0.950 . S
C581 C579 1.387 . S
C581 C583 1.390 . S
C581 H585 0.950 . S
H582 C578 0.950 . S
C583 C581 1.390 . S
C583 C584 1.387 . S
C583 H586 0.950 . S
C584 C583 1.387 . S
C584 C587 1.387 . S
H585 C581 0.950 . S
H586 C583 0.950 . S
C587 C578 1.390 . S
C587 H580 0.950 . S
C587 C584 1.387 . S
C588 C589 1.387 . S
C588 H592 0.950 . S
C588 C597 1.390 . S
C589 C588 1.387 . S
C589 C591 1.387 . S
H590 C597 0.950 . S
C591 C589 1.387 . S
C591 C593 1.390 . S
C591 H595 0.950 . S
H592 C588 0.950 . S
C593 C591 1.390 . S
C593 C594 1.387 . S
C593 H596 0.950 . S
C594 C593 1.387 . S
C594 C597 1.387 . S
H595 C591 0.950 . S
H596 C593 0.950 . S
C597 C588 1.390 . S
C597 H590 0.950 . S
C597 C594 1.387 . S
C598 C599 1.387 . S
C598 H602 0.950 . S
C598 C607 1.390 . S
C599 C598 1.387 . S
C599 C601 1.387 . S
H600 C607 0.950 . S
C601 C599 1.387 . S
C601 C603 1.390 . S
C601 H605 0.950 . S
H602 C598 0.950 . S
C603 C601 1.390 . S
C603 C604 1.387 . S
C603 H606 0.950 . S
C604 C603 1.387 . S
C604 C607 1.387 . S
H605 C601 0.950 . S
H606 C603 0.950 . S
C607 C598 1.390 . S
C607 H600 0.950 . S
C607 C604 1.387 . S
C608 C609 1.387 1_554 S
C608 H612 0.950 . S
C608 C617 1.390 . S
C609 C608 1.387 1_556 S
C609 C611 1.387 . S
H610 C617 0.950 . S
C611 C609 1.387 . S
C611 C613 1.390 . S
C611 H615 0.950 . S
H612 C608 0.950 . S
C613 C611 1.390 . S
C613 C614 1.387 1_556 S
C613 H616 0.950 . S
C614 C613 1.387 1_554 S
C614 C617 1.387 . S
H615 C611 0.950 . S
H616 C613 0.950 . S
C617 C608 1.390 . S
C617 H610 0.950 . S
C617 C614 1.387 . S
C618 C619 1.387 . S
C618 H622 0.950 . S
C618 C627 1.390 . S
C619 C618 1.387 . S
C619 C621 1.387 1_556 S
H620 C627 0.950 . S
C621 C619 1.387 1_554 S
C621 C623 1.390 . S
C621 H625 0.950 . S
H622 C618 0.950 . S
C623 C621 1.390 . S
C623 C624 1.387 . S
C623 H626 0.950 . S
C624 C623 1.387 . S
C624 C627 1.387 1_554 S
H625 C621 0.950 . S
H626 C623 0.950 . S
C627 C618 1.390 . S
C627 H620 0.950 . S
C627 C624 1.387 1_556 S
C628 C629 1.387 . S
C628 H632 0.950 . S
C628 C637 1.390 . S
C629 C628 1.387 . S
C629 C631 1.387 1_554 S
H630 C637 0.950 . S
C631 C629 1.387 1_556 S
C631 C633 1.390 . S
C631 H635 0.950 . S
H632 C628 0.950 . S
C633 C631 1.390 . S
C633 C634 1.387 . S
C633 H636 0.950 . S
C634 C633 1.387 . S
C634 C637 1.387 1_556 S
H635 C631 0.950 . S
H636 C633 0.950 . S
C637 C628 1.390 . S
C637 H630 0.950 . S
C637 C634 1.387 1_554 S
C638 C639 1.387 1_556 S
C638 H642 0.950 . S
C638 C647 1.390 . S
C639 C638 1.387 1_554 S
C639 C641 1.387 . S
H640 C647 0.950 . S
C641 C639 1.387 . S
C641 C643 1.390 . S
C641 H645 0.950 . S
H642 C638 0.950 . S
C643 C641 1.390 . S
C643 C644 1.387 1_554 S
C643 H646 0.950 . S
C644 C643 1.387 1_556 S
C644 C647 1.387 . S
H645 C641 0.950 . S
H646 C643 0.950 . S
C647 C638 1.390 . S
C647 H640 0.950 . S
C647 C644 1.387 . S
C648 C649 1.387 . S
C648 H652 0.950 . S
C648 C657 1.390 . S
C649 C648 1.387 . S
C649 C651 1.387 . S
H650 C657 0.950 . S
C651 C649 1.387 . S
C651 C653 1.390 . S
C651 H655 0.950 . S
H652 C648 0.950 . S
C653 C651 1.390 . S
C653 C654 1.387 . S
C653 H656 0.950 . S
C654 C653 1.387 . S
C654 C657 1.387 . S
H655 C651 0.950 . S
H656 C653 0.950 . S
C657 C648 1.390 . S
C657 H650 0.950 . S
C657 C654 1.387 . S
C658 C659 1.387 . S
C658 H662 0.950 . S
C658 C667 1.390 . S
C659 C658 1.387 . S
C659 C661 1.387 . S
H660 C667 0.950 . S
C661 C659 1.387 . S
C661 C663 1.390 . S
C661 H665 0.950 . S
H662 C658 0.950 . S
C663 C661 1.390 . S
C663 C664 1.387 . S
C663 H666 0.950 . S
C664 C663 1.387 . S
C664 C667 1.387 . S
H665 C661 0.950 . S
H666 C663 0.950 . S
C667 C658 1.390 . S
C667 H660 0.950 . S
C667 C664 1.387 . S
C668 C669 1.387 . S
C668 H672 0.950 . S
C668 C677 1.390 . S
C669 C668 1.387 . S
C669 C671 1.387 . S
H670 C677 0.950 . S
C671 C669 1.387 . S
C671 C673 1.390 . S
C671 H675 0.950 . S
H672 C668 0.950 . S
C673 C671 1.390 . S
C673 C674 1.387 . S
C673 H676 0.950 . S
C674 C673 1.387 . S
C674 C677 1.387 . S
H675 C671 0.950 . S
H676 C673 0.950 . S
C677 C668 1.390 . S
C677 H670 0.950 . S
C677 C674 1.387 . S
C678 C679 1.387 . S
C678 H682 0.950 . S
C678 C687 1.390 . S
C679 C678 1.387 . S
C679 C681 1.387 . S
H680 C687 0.950 . S
C681 C679 1.387 . S
C681 C683 1.390 . S
C681 H685 0.950 . S
H682 C678 0.950 . S
C683 C681 1.390 . S
C683 C684 1.387 . S
C683 H686 0.950 . S
C684 C683 1.387 . S
C684 C687 1.387 . S
H685 C681 0.950 . S
H686 C683 0.950 . S
C687 C678 1.390 . S
C687 H680 0.950 . S
C687 C684 1.387 . S
C688 C689 1.387 . S
C688 H692 0.950 . S
C688 C697 1.390 . S
C689 C688 1.387 . S
C689 C691 1.387 . S
H690 C697 0.950 . S
C691 C689 1.387 . S
C691 C693 1.390 . S
C691 H695 0.950 . S
H692 C688 0.950 . S
C693 C691 1.390 . S
C693 C694 1.387 . S
C693 H696 0.950 . S
C694 C693 1.387 . S
C694 C697 1.387 . S
H695 C691 0.950 . S
H696 C693 0.950 . S
C697 C688 1.390 . S
C697 H690 0.950 . S
C697 C694 1.387 . S
C698 C699 1.387 . S
C698 H702 0.950 . S
C698 C707 1.390 . S
C699 C698 1.387 . S
C699 C701 1.387 . S
H700 C707 0.950 . S
C701 C699 1.387 . S
C701 C703 1.390 . S
C701 H705 0.950 . S
H702 C698 0.950 . S
C703 C701 1.390 . S
C703 C704 1.387 . S
C703 H706 0.950 . S
C704 C703 1.387 . S
C704 C707 1.387 . S
H705 C701 0.950 . S
H706 C703 0.950 . S
C707 C698 1.390 . S
C707 H700 0.950 . S
C707 C704 1.387 . S
C708 C709 1.387 . S
C708 H712 0.950 . S
C708 C717 1.390 . S
C709 C708 1.387 . S
C709 C711 1.387 . S
H710 C717 0.950 . S
C711 C709 1.387 . S
C711 C713 1.390 . S
C711 H715 0.950 . S
H712 C708 0.950 . S
C713 C711 1.390 . S
C713 C714 1.387 . S
C713 H716 0.950 . S
C714 C713 1.387 . S
C714 C717 1.387 . S
H715 C711 0.950 . S
H716 C713 0.950 . S
C717 C708 1.390 . S
C717 H710 0.950 . S
C717 C714 1.387 . S
C718 C719 1.387 . S
C718 H722 0.950 . S
C718 C727 1.390 . S
C719 C718 1.387 . S
C719 C721 1.387 . S
H720 C727 0.950 . S
C721 C719 1.387 . S
C721 C723 1.390 . S
C721 H725 0.950 . S
H722 C718 0.950 . S
C723 C721 1.390 . S
C723 C724 1.387 . S
C723 H726 0.950 . S
C724 C723 1.387 . S
C724 C727 1.387 . S
H725 C721 0.950 . S
H726 C723 0.950 . S
C727 C718 1.390 . S
C727 H720 0.950 . S
C727 C724 1.387 . S
C728 C729 1.387 1_556 S
C728 H732 0.950 . S
C728 C737 1.390 . S
C729 C728 1.387 1_554 S
C729 C731 1.387 . S
H730 C737 0.950 . S
C731 C729 1.387 . S
C731 C733 1.390 . S
C731 H735 0.950 . S
H732 C728 0.950 . S
C733 C731 1.390 . S
C733 C734 1.387 . S
C733 H736 0.950 . S
C734 C733 1.387 . S
C734 C737 1.387 1_554 S
H735 C731 0.950 . S
H736 C733 0.950 . S
C737 C728 1.390 . S
C737 H730 0.950 . S
C737 C734 1.387 1_556 S
C738 C739 1.387 . S
C738 H742 0.950 . S
C738 C747 1.390 . S
C739 C738 1.387 . S
C739 C741 1.387 1_554 S
H740 C747 0.950 . S
C741 C739 1.387 1_556 S
C741 C743 1.390 . S
C741 H745 0.950 . S
H742 C738 0.950 . S
C743 C741 1.390 . S
C743 C744 1.387 1_556 S
C743 H746 0.950 . S
C744 C743 1.387 1_554 S
C744 C747 1.387 . S
H745 C741 0.950 . S
H746 C743 0.950 . S
C747 C738 1.390 . S
C747 H740 0.950 . S
C747 C744 1.387 . S
C748 C749 1.387 . S
C748 H752 0.950 . S
C748 C757 1.390 . S
C749 C748 1.387 . S
C749 C751 1.387 1_554 S
H750 C757 0.950 . S
C751 C749 1.387 1_556 S
C751 C753 1.390 . S
C751 H755 0.950 . S
H752 C748 0.950 . S
C753 C751 1.390 . S
C753 C754 1.387 1_556 S
C753 H756 0.950 . S
C754 C753 1.387 1_554 S
C754 C757 1.387 . S
H755 C751 0.950 . S
H756 C753 0.950 . S
C757 C748 1.390 . S
C757 H750 0.950 . S
C757 C754 1.387 . S
C758 C759 1.387 1_556 S
C758 H762 0.950 . S
C758 C767 1.390 . S
C759 C758 1.387 1_554 S
C759 C761 1.387 . S
H760 C767 0.950 . S
C761 C759 1.387 . S
C761 C763 1.390 . S
C761 H765 0.950 . S
H762 C758 0.950 . S
C763 C761 1.390 . S
C763 C764 1.387 . S
C763 H766 0.950 . S
C764 C763 1.387 . S
C764 C767 1.387 1_554 S
H765 C761 0.950 . S
H766 C763 0.950 . S
C767 C758 1.390 . S
C767 H760 0.950 . S
C767 C764 1.387 1_556 S
C768 C769 1.387 . S
C768 H772 0.950 . S
C768 C777 1.390 1_655 S
C769 C768 1.387 . S
C769 C771 1.387 . S
H770 C777 0.950 . S
C771 C769 1.387 . S
C771 C773 1.390 1_655 S
C771 H775 0.950 . S
H772 C768 0.950 . S
C773 C771 1.390 1_455 S
C773 C774 1.387 . S
C773 H776 0.950 . S
C774 C773 1.387 . S
C774 C777 1.387 . S
H775 C771 0.950 . S
H776 C773 0.950 . S
C777 C768 1.390 1_455 S
C777 H770 0.950 . S
C777 C774 1.387 . S
C778 C779 1.387 . S
C778 H782 0.950 . S
C778 C787 1.390 1_565 S
C779 C778 1.387 . S
C779 C781 1.387 . S
H780 C787 0.950 . S
C781 C779 1.387 . S
C781 C783 1.390 1_565 S
C781 H785 0.950 . S
H782 C778 0.950 . S
C783 C781 1.390 1_545 S
C783 C784 1.387 . S
C783 H786 0.950 . S
C784 C783 1.387 . S
C784 C787 1.387 . S
H785 C781 0.950 . S
H786 C783 0.950 . S
C787 C778 1.390 1_545 S
C787 H780 0.950 . S
C787 C784 1.387 . S
C788 C789 1.387 . S
C788 H792 0.950 . S
C788 C797 1.390 1_655 S
C789 C788 1.387 . S
C789 C791 1.387 . S
H790 C797 0.950 . S
C791 C789 1.387 . S
C791 C793 1.390 1_655 S
C791 H795 0.950 . S
H792 C788 0.950 . S
C793 C791 1.390 1_455 S
C793 C794 1.387 . S
C793 H796 0.950 . S
C794 C793 1.387 . S
C794 C797 1.387 . S
H795 C791 0.950 . S
H796 C793 0.950 . S
C797 C788 1.390 1_455 S
C797 H790 0.950 . S
C797 C794 1.387 . S
C798 C799 1.387 . S
C798 H802 0.950 . S
C798 C807 1.390 1_545 S
C799 C798 1.387 . S
C799 C801 1.387 . S
H800 C807 0.950 . S
C801 C799 1.387 . S
C801 C803 1.390 1_545 S
C801 H805 0.950 . S
H802 C798 0.950 . S
C803 C801 1.390 1_565 S
C803 C804 1.387 . S
C803 H806 0.950 . S
C804 C803 1.387 . S
C804 C807 1.387 . S
H805 C801 0.950 . S
H806 C803 0.950 . S
C807 C798 1.390 1_565 S
C807 H800 0.950 . S
C807 C804 1.387 . S
C808 C809 1.387 . S
C808 H812 0.950 . S
C808 C817 1.390 1_455 S
C809 C808 1.387 . S
C809 C811 1.387 . S
H810 C817 0.950 . S
C811 C809 1.387 . S
C811 C813 1.390 1_455 S
C811 H815 0.950 . S
H812 C808 0.950 . S
C813 C811 1.390 1_655 S
C813 C814 1.387 . S
C813 H816 0.950 . S
C814 C813 1.387 . S
C814 C817 1.387 . S
H815 C811 0.950 . S
H816 C813 0.950 . S
C817 C808 1.390 1_655 S
C817 H810 0.950 . S
C817 C814 1.387 . S
C818 C819 1.387 . S
C818 H822 0.950 . S
C818 C827 1.390 1_565 S
C819 C818 1.387 . S
C819 C821 1.387 . S
H820 C827 0.950 . S
C821 C819 1.387 . S
C821 C823 1.390 1_565 S
C821 H825 0.950 . S
H822 C818 0.950 . S
C823 C821 1.390 1_545 S
C823 C824 1.387 . S
C823 H826 0.950 . S
C824 C823 1.387 . S
C824 C827 1.387 . S
H825 C821 0.950 . S
H826 C823 0.950 . S
C827 C818 1.390 1_545 S
C827 H820 0.950 . S
C827 C824 1.387 . S
C828 C829 1.387 . S
C828 H832 0.950 . S
C828 C837 1.390 1_655 S
C829 C828 1.387 . S
C829 C831 1.387 . S
H830 C837 0.950 . S
C831 C829 1.387 . S
C831 C833 1.390 1_655 S
C831 H835 0.950 . S
H832 C828 0.950 . S
C833 C831 1.390 1_455 S
C833 C834 1.387 . S
C833 H836 0.950 . S
C834 C833 1.387 . S
C834 C837 1.387 . S
H835 C831 0.950 . S
H836 C833 0.950 . S
C837 C828 1.390 1_455 S
C837 H830 0.950 . S
C837 C834 1.387 . S
C838 C839 1.387 . S
C838 H842 0.950 . S
C838 C847 1.390 1_545 S
C839 C838 1.387 . S
C839 C841 1.387 . S
H840 C847 0.950 . S
C841 C839 1.387 . S
C841 C843 1.390 1_545 S
C841 H845 0.950 . S
H842 C838 0.950 . S
C843 C841 1.390 1_565 S
C843 C844 1.387 . S
C843 H846 0.950 . S
C844 C843 1.387 . S
C844 C847 1.387 . S
H845 C841 0.950 . S
H846 C843 0.950 . S
C847 C838 1.390 1_565 S
C847 H840 0.950 . S
C847 C844 1.387 . S
C848 C849 1.387 . S
C848 H852 0.950 . S
C848 C857 1.390 . S
C849 C848 1.387 . S
C849 C851 1.387 . S
H850 C857 0.950 . S
C851 C849 1.387 . S
C851 C853 1.390 . S
C851 H855 0.950 . S
H852 C848 0.950 . S
C853 C851 1.390 . S
C853 C854 1.387 . S
C853 H856 0.950 . S
C854 C853 1.387 . S
C854 C857 1.387 . S
H855 C851 0.950 . S
H856 C853 0.950 . S
C857 C848 1.390 . S
C857 H850 0.950 . S
C857 C854 1.387 . S
C858 C859 1.387 . S
C858 H862 0.950 . S
C858 C867 1.390 . S
C859 C858 1.387 . S
C859 C861 1.387 . S
H860 C867 0.950 . S
C861 C859 1.387 . S
C861 C863 1.390 . S
C861 H865 0.950 . S
H862 C858 0.950 . S
C863 C861 1.390 . S
C863 C864 1.387 . S
C863 H866 0.950 . S
C864 C863 1.387 . S
C864 C867 1.387 . S
H865 C861 0.950 . S
H866 C863 0.950 . S
C867 C858 1.390 . S
C867 H860 0.950 . S
C867 C864 1.387 . S
C868 C869 1.387 . S
C868 H872 0.950 . S
C868 C877 1.390 . S
C869 C868 1.387 . S
C869 C871 1.387 . S
H870 C877 0.950 . S
C871 C869 1.387 . S
C871 C873 1.390 . S
C871 H875 0.950 . S
H872 C868 0.950 . S
C873 C871 1.390 . S
C873 C874 1.387 . S
C873 H876 0.950 . S
C874 C873 1.387 . S
C874 C877 1.387 . S
H875 C871 0.950 . S
H876 C873 0.950 . S
C877 C868 1.390 . S
C877 H870 0.950 . S
C877 C874 1.387 . S
C878 C879 1.387 . S
C878 H882 0.950 . S
C878 C887 1.390 . S
C879 C878 1.387 . S
C879 C881 1.387 . S
H880 C887 0.950 . S
C881 C879 1.387 . S
C881 C883 1.390 . S
C881 H885 0.950 . S
H882 C878 0.950 . S
C883 C881 1.390 . S
C883 C884 1.387 . S
C883 H886 0.950 . S
C884 C883 1.387 . S
C884 C887 1.387 . S
H885 C881 0.950 . S
H886 C883 0.950 . S
C887 C878 1.390 . S
C887 H880 0.950 . S
C887 C884 1.387 . S
C888 C889 1.387 . S
C888 H892 0.950 . S
C888 C897 1.390 . S
C889 C888 1.387 . S
C889 C891 1.387 . S
H890 C897 0.950 . S
C891 C889 1.387 . S
C891 C893 1.390 . S
C891 H895 0.950 . S
H892 C888 0.950 . S
C893 C891 1.390 . S
C893 C894 1.387 . S
C893 H896 0.950 . S
C894 C893 1.387 . S
C894 C897 1.387 . S
H895 C891 0.950 . S
H896 C893 0.950 . S
C897 C888 1.390 . S
C897 H890 0.950 . S
C897 C894 1.387 . S
C898 C899 1.387 . S
C898 H902 0.950 . S
C898 C907 1.390 . S
C899 C898 1.387 . S
C899 C901 1.387 . S
H900 C907 0.950 . S
C901 C899 1.387 . S
C901 C903 1.390 . S
C901 H905 0.950 . S
H902 C898 0.950 . S
C903 C901 1.390 . S
C903 C904 1.387 . S
C903 H906 0.950 . S
C904 C903 1.387 . S
C904 C907 1.387 . S
H905 C901 0.950 . S
H906 C903 0.950 . S
C907 C898 1.390 . S
C907 H900 0.950 . S
C907 C904 1.387 . S
C908 C909 1.387 . S
C908 H912 0.950 . S
C908 C917 1.390 . S
C909 C908 1.387 . S
C909 C911 1.387 . S
H910 C917 0.950 . S
C911 C909 1.387 . S
C911 C913 1.390 . S
C911 H915 0.950 . S
H912 C908 0.950 . S
C913 C911 1.390 . S
C913 C914 1.387 . S
C913 H916 0.950 . S
C914 C913 1.387 . S
C914 C917 1.387 . S
H915 C911 0.950 . S
H916 C913 0.950 . S
C917 C908 1.390 . S
C917 H910 0.950 . S
C917 C914 1.387 . S
C918 C919 1.387 . S
C918 H922 0.950 . S
C918 C927 1.390 . S
C919 C918 1.387 . S
C919 C921 1.387 . S
H920 C927 0.950 . S
C921 C919 1.387 . S
C921 C923 1.390 . S
C921 H925 0.950 . S
H922 C918 0.950 . S
C923 C921 1.390 . S
C923 C924 1.387 . S
C923 H926 0.950 . S
C924 C923 1.387 . S
C924 C927 1.387 . S
H925 C921 0.950 . S
H926 C923 0.950 . S
C927 C918 1.390 . S
C927 H920 0.950 . S
C927 C924 1.387 . S
C529 N2 1.348 . S
C534 N497 1.348 . S
C539 N35 1.348 . S
C544 N398 1.348 . S
C549 N431 1.348 . S
C554 N68 1.348 . S
C559 N101 1.348 . S
C564 N464 1.347 . S
C569 N134 1.348 . S
C574 N299 1.349 . S
C579 N332 1.348 . S
C584 N167 1.348 . S
C589 N365 1.348 . S
C594 N200 1.349 . S
C599 N266 1.349 . S
C604 N233 1.349 . S
C609 N112 1.512 . S
C614 C21 1.583 . S
C619 N13 1.512 . S
C624 C54 1.582 . S
C629 C87 1.583 . S
C634 N46 1.512 . S
C639 C120 1.582 . S
C644 N79 1.511 . S
C649 N178 1.511 . S
C654 C153 1.583 . S
C659 N211 1.511 . S
C664 C186 1.582 . S
C669 N244 1.511 . S
C674 C219 1.582 . S
C679 N145 1.511 . S
C684 C252 1.582 . S
C689 N376 1.510 . S
C694 C285 1.582 . S
C699 C318 1.582 . S
C704 N277 1.511 . S
C709 N310 1.510 . S
C714 C351 1.583 . S
C719 N343 1.509 . S
C724 C384 1.582 . S
C729 N442 1.511 . S
C734 C417 1.583 . S
C739 N475 1.510 . S
C744 C450 1.582 . S
C749 N508 1.511 . S
C754 C483 1.582 . S
C759 N409 1.510 . S
C764 C516 1.583 . S
C769 C205 1.647 . S
C774 C7 1.647 . S
C779 C238 1.645 . S
C784 C40 1.645 . S
C789 C73 1.645 . S
C794 C139 1.645 . S
C799 C172 1.647 . S
C804 C106 1.647 . S
C809 C84 1.191 1_455 S
C814 C150 1.191 1_655 S
C819 C183 1.188 1_565 S
C824 C117 1.188 1_545 S
C829 C18 1.191 1_655 S
C834 C216 1.191 1_455 S
C839 C249 1.191 1_545 S
C844 C51 1.191 1_565 S
C849 C469 1.645 . S
C854 C271 1.646 . S
C859 C502 1.647 . S
C864 C304 1.647 . S
C869 C403 1.647 . S
C874 C337 1.647 . S
C879 C370 1.647 . S
C884 C436 1.647 . S
C889 C414 1.188 . S
C894 C348 1.188 . S
C899 C381 1.188 . S
C904 C447 1.188 . S
C909 C282 1.191 . S
C914 C480 1.191 . S
C919 C513 1.188 . S
C924 C315 1.188 . S
