# Generated by pormake.
# Topology msp, (4)-cn, num edge types: 1
# Building blocks:
#     Node 0, Type 0, BuildingBlock: MUDLON_clean_sbu_0, # of connection points: 4
#     Node 1, Type 0, BuildingBlock: MUDLON_clean_sbu_0, # of connection points: 4
#     Node 2, Type 0, BuildingBlock: MUDLON_clean_sbu_0, # of connection points: 4
#     Node 3, Type 0, BuildingBlock: MUDLON_clean_sbu_0, # of connection points: 4
#     Node 4, Type 0, BuildingBlock: MUDLON_clean_sbu_0, # of connection points: 4
#     Node 5, Type 0, BuildingBlock: MUDLON_clean_sbu_0, # of connection points: 4
#     Node 6, Type 0, BuildingBlock: MUDLON_clean_sbu_0, # of connection points: 4
#     Node 7, Type 0, BuildingBlock: MUDLON_clean_sbu_0, # of connection points: 4
#     Edge 8, Type (0, 0), BuildingBlock: AJUNOK_clean_linker_0, # of connection points: 2
#     Edge 9, Type (0, 0), BuildingBlock: AJUNOK_clean_linker_0, # of connection points: 2
#     Edge 10, Type (0, 0), BuildingBlock: AJUNOK_clean_linker_0, # of connection points: 2
#     Edge 11, Type (0, 0), BuildingBlock: AJUNOK_clean_linker_0, # of connection points: 2
#     Edge 12, Type (0, 0), BuildingBlock: AJUNOK_clean_linker_0, # of connection points: 2
#     Edge 13, Type (0, 0), BuildingBlock: AJUNOK_clean_linker_0, # of connection points: 2
#     Edge 14, Type (0, 0), BuildingBlock: AJUNOK_clean_linker_0, # of connection points: 2
#     Edge 15, Type (0, 0), BuildingBlock: AJUNOK_clean_linker_0, # of connection points: 2
#     Edge 16, Type (0, 0), BuildingBlock: AJUNOK_clean_linker_0, # of connection points: 2
#     Edge 17, Type (0, 0), BuildingBlock: AJUNOK_clean_linker_0, # of connection points: 2
#     Edge 18, Type (0, 0), BuildingBlock: AJUNOK_clean_linker_0, # of connection points: 2
#     Edge 19, Type (0, 0), BuildingBlock: AJUNOK_clean_linker_0, # of connection points: 2
#     Edge 20, Type (0, 0), BuildingBlock: AJUNOK_clean_linker_0, # of connection points: 2
#     Edge 21, Type (0, 0), BuildingBlock: AJUNOK_clean_linker_0, # of connection points: 2
#     Edge 22, Type (0, 0), BuildingBlock: AJUNOK_clean_linker_0, # of connection points: 2
#     Edge 23, Type (0, 0), BuildingBlock: AJUNOK_clean_linker_0, # of connection points: 2
# Relax obj value: 0.164
# Max RMSD: 0.253
# Mean RMSD: 0.253
data_MOF--net-msp--node1-MUDLON_clean_sbu_0--edge1-AJUNOK_clean_linker_0
_symmetry_space_group_name_H-M    P1
_symmetry_Int_Tables_number       1
_symmetry_cell_setting            triclinic
loop_
_symmetry_equiv_pos_as_xyz
'x, y, z'
_cell_length_a     18.018509
_cell_length_b     18.216812
_cell_length_c     30.529062
_cell_angle_alpha  89.747479
_cell_angle_beta   101.22815
_cell_angle_gamma 90.003908
loop_
_atom_site_label
_atom_site_type_symbol
_atom_site_fract_x
_atom_site_fract_y
_atom_site_fract_z
_atom_type_partial_charge
Mg0 Mg 0.07424 0.28851 0.39285 0.0
C1 C 0.12791 0.24109 0.31031 0.0
O2 O 0.06956 0.19755 0.30939 0.0
C3 C 0.05021 0.39367 0.46345 0.0
O4 O 1.02049 0.3328 0.47559 0.0
C5 C 0.92599 0.20394 0.35576 0.0
O6 O 0.96385 0.14625 0.37395 0.0
O7 O 0.95759 0.26657 0.36032 0.0
O8 O 0.14235 0.28886 0.34114 0.0
O9 O 0.13009 0.21241 0.44427 0.0
C10 C 0.18462 0.17249 0.4373 0.0
O11 O 0.19554 0.16566 0.39625 0.0
O12 O 0.07724 0.39317 0.42787 0.0
Mg13 Mg 0.49139 0.27453 0.66713 0.0
C14 C 0.39222 0.2202 0.72687 0.0
O15 O 0.41127 0.1599 0.70832 0.0
C16 C 0.54629 0.37927 0.60427 0.0
O17 O 0.60068 0.33009 0.61113 0.0
C18 C 0.6196 0.21568 0.73935 0.0
O19 O 0.56286 0.18337 0.75282 0.0
O20 O 0.60675 0.25281 0.70324 0.0
O21 O 0.418 0.28142 0.71602 0.0
O22 O 0.43326 0.1924 0.62145 0.0
C23 C 0.44108 0.18547 0.58125 0.0
O24 O 0.49889 0.21732 0.56863 0.0
O25 O 0.49268 0.373 0.62581 0.0
Mg26 Mg 1.00874 0.75145 0.64575 0.0
C27 C 0.92924 0.78868 0.72101 0.0
O28 O 0.97507 0.84511 0.72255 0.0
C29 C 0.05114 0.65268 0.57625 0.0
O30 O 0.073 0.71703 0.56388 0.0
C31 C 0.15399 0.7477 0.71241 0.0
O32 O 0.12377 0.68399 0.71913 0.0
O33 O 0.11817 0.78985 0.68213 0.0
O34 O 0.93272 0.73811 0.6928 0.0
O35 O 0.9519 0.82259 0.59181 0.0
C36 C 0.89144 0.85694 0.59447 0.0
O37 O 0.87028 0.85972 0.6332 0.0
O38 O 1.02301 0.64894 0.6114 0.0
Mg39 Mg 0.5751 0.70704 0.39714 0.0
C40 C 0.72991 0.69814 0.3722 0.0
O41 O 0.75076 0.69277 0.41579 0.0
C42 C 0.53627 0.61228 0.47047 0.0
O43 O 0.49828 0.67234 0.47523 0.0
C44 C 0.46164 0.74606 0.31426 0.0
O45 O 0.52523 0.75375 0.29979 0.0
O46 O 0.4647 0.72794 0.3549 0.0
O47 O 0.65965 0.69996 0.35515 0.0
O48 O 0.61607 0.79334 0.44444 0.0
C49 C 0.66324 0.84091 0.43616 0.0
O50 O 0.67361 0.84859 0.39498 0.0
O51 O 0.57258 0.60934 0.43863 0.0
Mg52 Mg 0.59114 0.80708 0.89028 0.0
C53 C 0.69306 0.7743 0.82759 0.0
O54 O 0.66713 0.70918 0.8356 0.0
C55 C 0.52576 0.9014 0.95496 0.0
O56 O 0.47442 0.84937 0.94783 0.0
C57 C 0.44577 0.82318 0.82453 0.0
O58 O 0.47712 0.8879 0.82252 0.0
O59 O 0.48118 0.77536 0.85128 0.0
O60 O 0.66841 0.83004 0.84532 0.0
O61 O 0.6522 0.72472 0.93502 0.0
C62 C 0.63425 0.70485 0.97152 0.0
O63 O 0.56825 0.7249 0.97961 0.0
O64 O 0.57935 0.90007 0.93324 0.0
Mg65 Mg 0.99665 0.7875 0.17035 0.0
C66 C 0.94728 0.75498 0.25727 0.0
O67 O 1.01101 0.71794 0.26326 0.0
C68 C 1.02095 0.88656 0.09635 0.0
O69 O 1.03759 0.82168 0.08224 0.0
C70 C 0.16806 0.79118 0.19735 0.0
O71 O 0.15819 0.84853 0.17068 0.0
O72 O 0.11078 0.75331 0.20211 0.0
O73 O 0.9282 0.79334 0.22189 0.0
O74 O 0.93572 0.71509 0.11905 0.0
C75 C 0.8751 0.6836 0.12458 0.0
O76 O 0.85892 0.68309 0.16468 0.0
O77 O 1.00186 0.89087 0.13433 0.0
Mg78 Mg 0.49654 0.21539 0.16631 0.0
C79 C 0.34812 0.18812 0.19695 0.0
O80 O 0.3279 0.16349 0.15598 0.0
C81 C 0.5319 0.12355 0.09328 0.0
O82 O 0.57036 0.18398 0.09003 0.0
C83 C 0.63154 0.17867 0.23572 0.0
O84 O 0.58699 0.12198 0.23714 0.0
O85 O 0.60878 0.22969 0.20763 0.0
O86 O 0.41576 0.20966 0.21041 0.0
O87 O 0.45597 0.30055 0.11718 0.0
C88 C 0.39826 0.3391 0.12018 0.0
O89 O 0.37446 0.33956 0.15819 0.0
O90 O 0.49545 0.11818 0.12493 0.0
Mg91 Mg 0.07073 0.23379 0.90695 0.0
C92 C 0.19801 0.18821 0.85765 0.0
O93 O 0.21348 0.13743 0.88879 0.0
C94 C 0.03913 0.14 0.98047 0.0
O95 O 1.01384 0.20492 0.98909 0.0
C96 C 0.91469 0.20079 0.85821 0.0
O97 O 0.94024 0.13526 0.87155 0.0
O98 O 0.95658 0.25637 0.87003 0.0
O99 O 0.14183 0.23047 0.85711 0.0
O100 O 0.12243 0.31269 0.95732 0.0
C101 C 0.18511 0.34263 0.95426 0.0
O102 O 0.2085 0.33783 0.91627 0.0
O103 O 0.06791 0.13307 0.94573 0.0
C104 C 1.01248 0.46163 0.52695 0.0
C105 C 0.05239 0.46065 0.49156 0.0
C106 C 1.01343 0.52325 0.55448 0.0
C107 C 0.05425 0.58683 0.54786 0.0
H108 H 0.97957 0.41447 0.53345 0.0
H109 H 0.98092 0.52119 0.5808 0.0
S110 S 0.17266 0.61124 0.46181 0.0
N111 N 0.13675 0.52807 0.45269 0.0
N112 N 0.13861 0.64375 0.50429 0.0
C113 C 0.09541 0.58636 0.51299 0.0
C114 C 0.09443 0.52346 0.48491 0.0
C115 C 0.48964 0.55112 0.53386 0.0
C116 C 0.53914 0.55104 0.50333 0.0
C117 C 0.49236 0.49569 0.56628 0.0
C118 C 0.54523 0.43803 0.56994 0.0
H119 H 0.44811 0.5944 0.53279 0.0
H120 H 0.45283 0.49844 0.58879 0.0
S121 S 0.68762 0.41182 0.49798 0.0
N122 N 0.6425 0.4877 0.47877 0.0
N123 N 0.64811 0.38405 0.5396 0.0
C124 C 0.59509 0.43716 0.53955 0.0
C125 C 0.59187 0.49336 0.50629 0.0
C126 C 0.58053 0.06716 1.02975 0.0
C127 C 0.52917 0.06509 0.05912 0.0
C128 C 0.57848 0.01458 0.99614 0.0
C129 C 0.52459 0.95774 0.99008 0.0
H130 H 0.62316 0.10974 0.03274 0.0
H131 H 0.61974 0.01871 0.97475 0.0
S132 S 0.37584 0.92836 0.05744 0.0
N133 N 0.422 1.00174 0.07958 0.0
N134 N 0.41766 0.90313 1.01636 0.0
C135 C 0.47243 0.95516 1.01908 0.0
C136 C 0.47491 0.0086 0.05359 0.0
C137 C 0.05901 0.94713 1.03019 0.0
C138 C 1.02547 0.95266 0.0681 0.0
C139 C 0.06332 0.00771 1.00224 0.0
C140 C 1.03415 0.07663 1.01086 0.0
H141 H 0.08245 0.89544 1.02188 0.0
H142 H 0.08975 1.00021 0.9736 0.0
S143 S 0.93905 0.12039 0.1054 0.0
N144 N 0.96146 0.0327 0.11238 0.0
N145 N 0.96978 0.1466 0.06027 0.0
C146 C 1.00042 0.08306 0.04874 0.0
C147 C 0.99606 0.0212 0.07722 0.0
C148 C 0.74874 0.24852 0.26946 0.0
C149 C 0.70608 0.18345 0.26696 0.0
C150 C 0.81882 0.25482 0.29875 0.0
C151 C 0.84981 0.19613 0.32666 0.0
H152 H 0.72789 0.29532 0.24866 0.0
H153 H 0.84934 0.30609 0.29897 0.0
S154 S 0.76065 0.01375 0.33378 0.0
N155 N 0.69989 0.05899 0.29569 0.0
N156 N 0.83153 0.0709 0.35039 0.0
C157 C 0.80769 0.13076 0.32474 0.0
C158 C 0.73597 0.12442 0.29505 0.0
C159 C 0.71412 0.15623 0.79988 0.0
C160 C 0.69627 0.21283 0.76805 0.0
C161 C 0.78453 0.15349 0.82903 0.0
C162 C 0.83969 0.20785 0.82814 0.0
H163 H 0.67347 0.1133 0.80226 0.0
H164 H 0.79557 0.10851 0.85275 0.0
S165 S 0.8214 0.36831 0.75147 0.0
N166 N 0.73988 0.32479 0.73738 0.0
N167 N 0.8719 0.32005 0.79268 0.0
C168 C 0.82261 0.26513 0.79673 0.0
C169 C 0.75114 0.26738 0.76649 0.0
C170 C 0.26928 0.71787 0.77021 0.0
C171 C 0.22821 0.76915 0.74022 0.0
C172 C 0.3391 0.73586 0.79723 0.0
C173 C 0.37111 0.80605 0.79564 0.0
H174 H 0.24758 0.66293 0.77289 0.0
H175 H 0.36816 0.69408 0.81953 0.0
S176 S 0.28595 0.96137 0.72348 0.0
N177 N 0.22454 0.89381 0.71099 0.0
N178 N 0.35535 0.92783 0.7617 0.0
C179 C 0.3305 0.85818 0.76593 0.0
C180 C 0.25933 0.83971 0.73828 0.0
C181 C 0.32036 0.73189 0.29556 0.0
C182 C 0.38764 0.75649 0.28333 0.0
C183 C 0.24986 0.74101 0.26693 0.0
C184 C 0.24367 0.77609 0.2252 0.0
H185 H 0.32199 0.70528 0.32753 0.0
H186 H 0.19965 0.72211 0.27815 0.0
S187 S 0.40241 0.84831 0.17638 0.0
N188 N 0.44334 0.81548 0.22565 0.0
N189 N 0.31099 0.83337 0.17237 0.0
C190 C 0.31042 0.80013 0.21227 0.0
C191 C 0.38229 0.79012 0.24115 0.0
C192 C 0.30523 0.25074 0.26043 0.0
C193 C 0.29107 0.19958 0.22536 0.0
C194 C 0.25151 0.265 0.28689 0.0
C195 C 0.18152 0.22821 0.27973 0.0
H196 H 0.35806 0.28083 0.26731 0.0
H197 H 0.26557 0.30466 0.31355 0.0
S198 S 0.11741 0.08745 0.19272 0.0
N199 N 0.20232 0.11135 0.18508 0.0
N200 N 0.10137 0.13748 0.23487 0.0
C201 C 0.16664 0.17668 0.24474 0.0
C202 C 0.22133 0.16257 0.21757 0.0
C203 C 0.33872 0.14782 0.78307 0.0
C204 C 0.34343 0.21494 0.76065 0.0
C205 C 0.29207 0.13984 0.81455 0.0
C206 C 0.24725 0.19831 0.82438 0.0
H207 H 0.37182 0.10093 0.77652 0.0
H208 H 0.29049 0.08708 0.83086 0.0
S209 S 0.23962 0.38599 0.7754 0.0
N210 N 0.30016 0.34137 0.75103 0.0
N211 N 0.21154 0.32637 0.80967 0.0
C212 C 0.25149 0.26591 0.80228 0.0
C213 C 0.29991 0.27427 0.77065 0.0
C214 C 0.77274 0.71862 0.77775 0.0
C215 C 0.75251 0.78084 0.80008 0.0
C216 C 0.82994 0.72168 0.75255 0.0
C217 C 0.87004 0.78693 0.74885 0.0
H218 H 0.74416 0.66672 0.77962 0.0
H219 H 0.843 0.67218 0.73602 0.0
S220 S 0.83875 0.96605 0.80029 0.0
N221 N 0.7769 0.91023 0.81635 0.0
N222 N 0.88465 0.91596 0.7693 0.0
C223 C 0.85047 0.84976 0.77097 0.0
C224 C 0.79167 0.84676 0.7964 0.0
C225 C 0.81582 0.75499 0.2728 0.0
C226 C 0.89384 0.74379 0.28811 0.0
C227 C 0.76339 0.73891 0.29994 0.0
C228 C 0.78679 0.71176 0.34375 0.0
H229 H 0.7947 0.77483 0.23918 0.0
H230 H 0.70398 0.74839 0.28642 0.0
S231 S 0.98515 0.67596 0.40059 0.0
N232 N 0.99223 0.70571 0.35041 0.0
N233 N 0.89389 0.67627 0.40154 0.0
C234 C 0.86482 0.70157 0.35978 0.0
C235 C 0.91821 0.71733 0.33196 0.0
C236 C 0.38457 0.15297 0.50236 0.0
C237 C 0.37565 0.16108 0.54684 0.0
C238 C 0.32175 0.14934 0.46722 0.0
C239 C 0.24745 0.15481 0.47509 0.0
H240 H 0.44048 0.15404 0.49425 0.0
H241 H 0.33203 0.14807 0.43343 0.0
S242 S 0.19265 0.16081 0.58597 0.0
N243 N 0.28605 0.16179 0.59732 0.0
N244 N 0.16831 0.15675 0.53103 0.0
C245 C 0.23755 0.15546 0.51961 0.0
C246 C 0.30156 0.15805 0.55556 0.0
C247 C 0.75826 0.87858 0.55507 0.0
C248 C 0.83561 0.87399 0.55309 0.0
C249 C 0.70215 0.87447 0.51633 0.0
C250 C 0.72114 0.86729 0.47404 0.0
H251 H 0.74038 0.87942 0.58695 0.0
H252 H 0.64346 0.8722 0.51977 0.0
S253 S 0.9153 0.86746 0.44984 0.0
N254 N 0.92825 0.87233 0.5048 0.0
N255 N 0.82277 0.86628 0.43187 0.0
C256 C 0.79813 0.87081 0.47113 0.0
C257 C 0.85541 0.87371 0.51071 0.0
C258 C 0.82993 0.67871 0.04176 0.0
C259 C 0.81501 0.66771 0.08489 0.0
C260 C 0.77106 0.68379 1.00439 0.0
C261 C 0.69472 0.67859 1.00862 0.0
H262 H 0.88718 0.68842 0.03704 0.0
H263 H 0.78566 0.69728 0.97253 0.0
S264 S 0.62608 0.63194 0.11231 0.0
N265 N 0.71881 0.63806 0.12829 0.0
N266 N 0.6083 0.64847 0.05807 0.0
C267 C 0.67947 0.65943 0.05067 0.0
C268 C 0.73957 0.65372 0.08879 0.0
C269 C 0.26737 0.36242 0.07752 0.0
C270 C 0.34585 0.36149 0.07853 0.0
C271 C 0.21515 0.36273 0.03694 0.0
C272 C 0.23929 0.36291 0.99576 0.0
H273 H 0.24578 0.35695 0.1081 0.0
H274 H 0.15558 0.35795 0.03797 0.0
S275 S 0.43862 0.37776 0.98066 0.0
N276 N 0.44502 0.37288 0.03527 0.0
N277 N 0.34728 0.37499 0.95895 0.0
C278 C 0.31749 0.37046 0.9965 0.0
C279 C 0.37066 0.36925 0.03789 0.0
loop_
_geom_bond_atom_site_label_1
_geom_bond_atom_site_label_2
_geom_bond_distance
_geom_bond_site_symmetry_2
_ccdc_geom_bond_type
Mg0 O7 2.141 1_455 S
Mg0 O8 2.048 . S
Mg0 O9 2.048 . S
Mg0 O12 2.141 . S
C1 O2 1.313 . S
C1 O8 1.195 . S
O2 C1 1.313 . S
C3 O4 1.245 . S
C3 O12 1.289 1_655 S
O4 C3 1.245 . S
C5 O6 1.245 . S
C5 O7 1.289 . S
O6 C5 1.245 . S
O7 Mg0 2.141 1_655 S
O7 C5 1.289 . S
O8 Mg0 2.048 . S
O8 C1 1.195 . S
O9 Mg0 2.048 . S
O9 C10 1.195 . S
C10 O9 1.195 . S
C10 O11 1.313 . S
O11 C10 1.313 . S
O12 Mg0 2.141 . S
O12 C3 1.289 1_455 S
Mg13 O20 2.141 . S
Mg13 O21 2.048 . S
Mg13 O22 2.048 . S
Mg13 O25 2.141 . S
C14 O15 1.313 . S
C14 O21 1.195 . S
O15 C14 1.313 . S
C16 O17 1.245 . S
C16 O25 1.289 . S
O17 C16 1.245 . S
C18 O19 1.245 . S
C18 O20 1.289 . S
O19 C18 1.245 . S
O20 Mg13 2.141 . S
O20 C18 1.289 . S
O21 Mg13 2.048 . S
O21 C14 1.195 . S
O22 Mg13 2.048 . S
O22 C23 1.195 . S
C23 O22 1.195 . S
C23 O24 1.313 . S
O24 C23 1.313 . S
O25 Mg13 2.141 . S
O25 C16 1.289 . S
Mg26 O33 2.141 1_655 S
Mg26 O34 2.048 . S
Mg26 O35 2.048 . S
Mg26 O38 2.141 1_655 S
C27 O28 1.313 . S
C27 O34 1.195 . S
O28 C27 1.313 . S
C29 O30 1.245 1_455 S
C29 O38 1.289 . S
O30 C29 1.245 1_655 S
C31 O32 1.245 . S
C31 O33 1.289 . S
O32 C31 1.245 . S
O33 Mg26 2.141 1_455 S
O33 C31 1.289 . S
O34 Mg26 2.048 . S
O34 C27 1.195 . S
O35 Mg26 2.048 . S
O35 C36 1.195 . S
C36 O35 1.195 . S
C36 O37 1.313 . S
O37 C36 1.313 . S
O38 Mg26 2.141 1_455 S
O38 C29 1.289 . S
Mg39 O46 2.141 . S
Mg39 O47 2.048 . S
Mg39 O48 2.048 . S
Mg39 O51 2.141 . S
C40 O41 1.313 . S
C40 O47 1.195 . S
O41 C40 1.313 . S
C42 O43 1.245 . S
C42 O51 1.289 . S
O43 C42 1.245 . S
C44 O45 1.245 . S
C44 O46 1.289 . S
O45 C44 1.245 . S
O46 Mg39 2.141 . S
O46 C44 1.289 . S
O47 Mg39 2.048 . S
O47 C40 1.195 . S
O48 Mg39 2.048 . S
O48 C49 1.195 . S
C49 O48 1.195 . S
C49 O50 1.313 . S
O50 C49 1.313 . S
O51 Mg39 2.141 . S
O51 C42 1.289 . S
Mg52 O59 2.141 . S
Mg52 O60 2.048 . S
Mg52 O61 2.048 . S
Mg52 O64 2.141 . S
C53 O54 1.313 . S
C53 O60 1.195 . S
O54 C53 1.313 . S
C55 O56 1.245 . S
C55 O64 1.289 . S
O56 C55 1.245 . S
C57 O58 1.245 . S
C57 O59 1.289 . S
O58 C57 1.245 . S
O59 Mg52 2.141 . S
O59 C57 1.289 . S
O60 Mg52 2.048 . S
O60 C53 1.195 . S
O61 Mg52 2.048 . S
O61 C62 1.195 . S
C62 O61 1.195 . S
C62 O63 1.313 . S
O63 C62 1.313 . S
O64 Mg52 2.141 . S
O64 C55 1.289 . S
Mg65 O72 2.141 1_655 S
Mg65 O73 2.048 . S
Mg65 O74 2.048 . S
Mg65 O77 2.141 . S
C66 O67 1.313 . S
C66 O73 1.195 . S
O67 C66 1.313 . S
C68 O69 1.245 . S
C68 O77 1.289 1_455 S
O69 C68 1.245 . S
C70 O71 1.245 . S
C70 O72 1.289 . S
O71 C70 1.245 . S
O72 Mg65 2.141 1_455 S
O72 C70 1.289 . S
O73 Mg65 2.048 . S
O73 C66 1.195 . S
O74 Mg65 2.048 . S
O74 C75 1.195 . S
C75 O74 1.195 . S
C75 O76 1.313 . S
O76 C75 1.313 . S
O77 Mg65 2.141 . S
O77 C68 1.289 1_655 S
Mg78 O85 2.141 . S
Mg78 O86 2.048 . S
Mg78 O87 2.048 . S
Mg78 O90 2.141 . S
C79 O80 1.313 . S
C79 O86 1.195 . S
O80 C79 1.313 . S
C81 O82 1.245 . S
C81 O90 1.289 . S
O82 C81 1.245 . S
C83 O84 1.245 . S
C83 O85 1.289 . S
O84 C83 1.245 . S
O85 Mg78 2.141 . S
O85 C83 1.289 . S
O86 Mg78 2.048 . S
O86 C79 1.195 . S
O87 Mg78 2.048 . S
O87 C88 1.195 . S
C88 O87 1.195 . S
C88 O89 1.313 . S
O89 C88 1.313 . S
O90 Mg78 2.141 . S
O90 C81 1.289 . S
Mg91 O98 2.141 1_455 S
Mg91 O99 2.048 . S
Mg91 O100 2.048 . S
Mg91 O103 2.141 1_455 S
C92 O93 1.313 . S
C92 O99 1.195 . S
O93 C92 1.313 . S
C94 O95 1.245 1_655 S
C94 O103 1.289 . S
O95 C94 1.245 1_455 S
C96 O97 1.245 . S
C96 O98 1.289 . S
O97 C96 1.245 . S
O98 Mg91 2.141 1_655 S
O98 C96 1.289 . S
O99 Mg91 2.048 . S
O99 C92 1.195 . S
O100 Mg91 2.048 . S
O100 C101 1.195 . S
C101 O100 1.195 . S
C101 O102 1.313 . S
O102 C101 1.313 . S
O103 Mg91 2.141 1_655 S
O103 C94 1.289 . S
C104 C105 1.369 . S
C104 C106 1.419 . S
C104 H108 0.930 . S
C105 C104 1.369 . S
C105 C114 1.429 1_655 S
C106 C104 1.419 . S
C106 C107 1.363 1_655 S
C106 H109 0.929 . S
C107 C106 1.363 1_455 S
C107 C113 1.428 . S
H108 C104 0.930 . S
H109 C106 0.929 . S
S110 N111 1.613 . S
S110 N112 1.610 . S
N111 S110 1.613 . S
N111 C114 1.350 . S
N112 S110 1.610 . S
N112 C113 1.351 . S
C113 C107 1.428 . S
C113 N112 1.351 . S
C113 C114 1.434 . S
C114 C105 1.429 1_455 S
C114 N111 1.350 . S
C114 C113 1.434 . S
C115 C116 1.369 . S
C115 C117 1.419 . S
C115 H119 0.930 . S
C116 C115 1.369 . S
C116 C125 1.429 . S
C117 C115 1.419 . S
C117 C118 1.363 . S
C117 H120 0.929 . S
C118 C117 1.363 . S
C118 C124 1.428 . S
H119 C115 0.930 . S
H120 C117 0.929 . S
S121 N122 1.613 . S
S121 N123 1.610 . S
N122 S121 1.613 . S
N122 C125 1.350 . S
N123 S121 1.610 . S
N123 C124 1.351 . S
C124 C118 1.428 . S
C124 N123 1.351 . S
C124 C125 1.434 . S
C125 C116 1.429 . S
C125 N122 1.350 . S
C125 C124 1.434 . S
C126 C127 1.369 1_556 S
C126 C128 1.419 1_545 S
C126 H130 0.930 . S
C127 C126 1.369 1_554 S
C127 C136 1.429 . S
C128 C126 1.419 1_565 S
C128 C129 1.363 . S
C128 H131 0.929 . S
C129 C128 1.363 . S
C129 C135 1.428 1_556 S
H130 C126 0.930 . S
H131 C128 0.929 . S
S132 N133 1.613 1_565 S
S132 N134 1.610 . S
N133 S132 1.613 1_545 S
N133 C136 1.350 . S
N134 S132 1.610 . S
N134 C135 1.351 . S
C135 C129 1.428 1_554 S
C135 N134 1.351 . S
C135 C136 1.434 1_565 S
C136 C127 1.429 . S
C136 N133 1.350 . S
C136 C135 1.434 1_545 S
C137 C138 1.369 1_656 S
C137 C139 1.419 1_565 S
C137 H141 0.930 . S
C138 C137 1.369 1_454 S
C138 C147 1.429 . S
C139 C137 1.419 1_545 S
C139 C140 1.363 . S
C139 H142 0.929 . S
C140 C139 1.363 . S
C140 C146 1.428 1_656 S
H141 C137 0.930 . S
H142 C139 0.929 . S
S143 N144 1.613 1_545 S
S143 N145 1.610 . S
N144 S143 1.613 1_565 S
N144 C147 1.350 . S
N145 S143 1.610 . S
N145 C146 1.351 . S
C146 C140 1.428 1_454 S
C146 N145 1.351 . S
C146 C147 1.434 1_545 S
C147 C138 1.429 . S
C147 N144 1.350 . S
C147 C146 1.434 1_565 S
C148 C149 1.369 . S
C148 C150 1.419 . S
C148 H152 0.930 . S
C149 C148 1.369 . S
C149 C158 1.429 . S
C150 C148 1.419 . S
C150 C151 1.363 . S
C150 H153 0.929 . S
C151 C150 1.363 . S
C151 C157 1.428 . S
H152 C148 0.930 . S
H153 C150 0.929 . S
S154 N155 1.613 . S
S154 N156 1.610 . S
N155 S154 1.613 . S
N155 C158 1.350 . S
N156 S154 1.610 . S
N156 C157 1.351 . S
C157 C151 1.428 . S
C157 N156 1.351 . S
C157 C158 1.434 . S
C158 C149 1.429 . S
C158 N155 1.350 . S
C158 C157 1.434 . S
C159 C160 1.369 . S
C159 C161 1.419 . S
C159 H163 0.930 . S
C160 C159 1.369 . S
C160 C169 1.429 . S
C161 C159 1.419 . S
C161 C162 1.363 . S
C161 H164 0.929 . S
C162 C161 1.363 . S
C162 C168 1.428 . S
H163 C159 0.930 . S
H164 C161 0.929 . S
S165 N166 1.613 . S
S165 N167 1.610 . S
N166 S165 1.613 . S
N166 C169 1.350 . S
N167 S165 1.610 . S
N167 C168 1.351 . S
C168 C162 1.428 . S
C168 N167 1.351 . S
C168 C169 1.434 . S
C169 C160 1.429 . S
C169 N166 1.350 . S
C169 C168 1.434 . S
C170 C171 1.369 . S
C170 C172 1.419 . S
C170 H174 0.930 . S
C171 C170 1.369 . S
C171 C180 1.429 . S
C172 C170 1.419 . S
C172 C173 1.363 . S
C172 H175 0.929 . S
C173 C172 1.363 . S
C173 C179 1.428 . S
H174 C170 0.930 . S
H175 C172 0.929 . S
S176 N177 1.613 . S
S176 N178 1.610 . S
N177 S176 1.613 . S
N177 C180 1.350 . S
N178 S176 1.610 . S
N178 C179 1.351 . S
C179 C173 1.428 . S
C179 N178 1.351 . S
C179 C180 1.434 . S
C180 C171 1.429 . S
C180 N177 1.350 . S
C180 C179 1.434 . S
C181 C182 1.369 . S
C181 C183 1.419 . S
C181 H185 0.930 . S
C182 C181 1.369 . S
C182 C191 1.429 . S
C183 C181 1.419 . S
C183 C184 1.363 . S
C183 H186 0.929 . S
C184 C183 1.363 . S
C184 C190 1.428 . S
H185 C181 0.930 . S
H186 C183 0.929 . S
S187 N188 1.613 . S
S187 N189 1.610 . S
N188 S187 1.613 . S
N188 C191 1.350 . S
N189 S187 1.610 . S
N189 C190 1.351 . S
C190 C184 1.428 . S
C190 N189 1.351 . S
C190 C191 1.434 . S
C191 C182 1.429 . S
C191 N188 1.350 . S
C191 C190 1.434 . S
C192 C193 1.369 . S
C192 C194 1.419 . S
C192 H196 0.930 . S
C193 C192 1.369 . S
C193 C202 1.429 . S
C194 C192 1.419 . S
C194 C195 1.363 . S
C194 H197 0.929 . S
C195 C194 1.363 . S
C195 C201 1.428 . S
H196 C192 0.930 . S
H197 C194 0.929 . S
S198 N199 1.613 . S
S198 N200 1.610 . S
N199 S198 1.613 . S
N199 C202 1.350 . S
N200 S198 1.610 . S
N200 C201 1.351 . S
C201 C195 1.428 . S
C201 N200 1.351 . S
C201 C202 1.434 . S
C202 C193 1.429 . S
C202 N199 1.350 . S
C202 C201 1.434 . S
C203 C204 1.369 . S
C203 C205 1.419 . S
C203 H207 0.930 . S
C204 C203 1.369 . S
C204 C213 1.429 . S
C205 C203 1.419 . S
C205 C206 1.363 . S
C205 H208 0.929 . S
C206 C205 1.363 . S
C206 C212 1.428 . S
H207 C203 0.930 . S
H208 C205 0.929 . S
S209 N210 1.613 . S
S209 N211 1.610 . S
N210 S209 1.613 . S
N210 C213 1.350 . S
N211 S209 1.610 . S
N211 C212 1.351 . S
C212 C206 1.428 . S
C212 N211 1.351 . S
C212 C213 1.434 . S
C213 C204 1.429 . S
C213 N210 1.350 . S
C213 C212 1.434 . S
C214 C215 1.369 . S
C214 C216 1.419 . S
C214 H218 0.930 . S
C215 C214 1.369 . S
C215 C224 1.429 . S
C216 C214 1.419 . S
C216 C217 1.363 . S
C216 H219 0.929 . S
C217 C216 1.363 . S
C217 C223 1.428 . S
H218 C214 0.930 . S
H219 C216 0.929 . S
S220 N221 1.613 . S
S220 N222 1.610 . S
N221 S220 1.613 . S
N221 C224 1.350 . S
N222 S220 1.610 . S
N222 C223 1.351 . S
C223 C217 1.428 . S
C223 N222 1.351 . S
C223 C224 1.434 . S
C224 C215 1.429 . S
C224 N221 1.350 . S
C224 C223 1.434 . S
C225 C226 1.369 . S
C225 C227 1.419 . S
C225 H229 0.930 . S
C226 C225 1.369 . S
C226 C235 1.429 . S
C227 C225 1.419 . S
C227 C228 1.363 . S
C227 H230 0.929 . S
C228 C227 1.363 . S
C228 C234 1.428 . S
H229 C225 0.930 . S
H230 C227 0.929 . S
S231 N232 1.613 . S
S231 N233 1.610 . S
N232 S231 1.613 . S
N232 C235 1.350 . S
N233 S231 1.610 . S
N233 C234 1.351 . S
C234 C228 1.428 . S
C234 N233 1.351 . S
C234 C235 1.434 . S
C235 C226 1.429 . S
C235 N232 1.350 . S
C235 C234 1.434 . S
C236 C237 1.369 . S
C236 C238 1.419 . S
C236 H240 0.930 . S
C237 C236 1.369 . S
C237 C246 1.429 . S
C238 C236 1.419 . S
C238 C239 1.363 . S
C238 H241 0.929 . S
C239 C238 1.363 . S
C239 C245 1.428 . S
H240 C236 0.930 . S
H241 C238 0.929 . S
S242 N243 1.613 . S
S242 N244 1.610 . S
N243 S242 1.613 . S
N243 C246 1.350 . S
N244 S242 1.610 . S
N244 C245 1.351 . S
C245 C239 1.428 . S
C245 N244 1.351 . S
C245 C246 1.434 . S
C246 C237 1.429 . S
C246 N243 1.350 . S
C246 C245 1.434 . S
C247 C248 1.369 . S
C247 C249 1.419 . S
C247 H251 0.930 . S
C248 C247 1.369 . S
C248 C257 1.429 . S
C249 C247 1.419 . S
C249 C250 1.363 . S
C249 H252 0.929 . S
C250 C249 1.363 . S
C250 C256 1.428 . S
H251 C247 0.930 . S
H252 C249 0.929 . S
S253 N254 1.613 . S
S253 N255 1.610 . S
N254 S253 1.613 . S
N254 C257 1.350 . S
N255 S253 1.610 . S
N255 C256 1.351 . S
C256 C250 1.428 . S
C256 N255 1.351 . S
C256 C257 1.434 . S
C257 C248 1.429 . S
C257 N254 1.350 . S
C257 C256 1.434 . S
C258 C259 1.369 . S
C258 C260 1.419 1_554 S
C258 H262 0.930 . S
C259 C258 1.369 . S
C259 C268 1.429 . S
C260 C258 1.419 1_556 S
C260 C261 1.363 . S
C260 H263 0.929 . S
C261 C260 1.363 . S
C261 C267 1.428 . S
H262 C258 0.930 . S
H263 C260 0.929 . S
S264 N265 1.613 . S
S264 N266 1.610 1_554 S
N265 S264 1.613 . S
N265 C268 1.350 . S
N266 S264 1.610 1_556 S
N266 C267 1.351 . S
C267 C261 1.428 . S
C267 N266 1.351 . S
C267 C268 1.434 1_556 S
C268 C259 1.429 . S
C268 N265 1.350 . S
C268 C267 1.434 1_554 S
C269 C270 1.369 . S
C269 C271 1.419 1_554 S
C269 H273 0.930 . S
C270 C269 1.369 . S
C270 C279 1.429 . S
C271 C269 1.419 1_556 S
C271 C272 1.363 . S
C271 H274 0.929 . S
C272 C271 1.363 . S
C272 C278 1.428 . S
H273 C269 0.930 . S
H274 C271 0.929 . S
S275 N276 1.613 . S
S275 N277 1.610 1_554 S
N276 S275 1.613 . S
N276 C279 1.350 . S
N277 S275 1.610 1_556 S
N277 C278 1.351 . S
C278 C272 1.428 . S
C278 N277 1.351 . S
C278 C279 1.434 1_556 S
C279 C270 1.429 . S
C279 N276 1.350 . S
C279 C278 1.434 1_554 S
C105 C3 2.036 . S
C107 C29 1.878 . S
C116 C42 1.868 . S
C118 C16 2.043 . S
C127 C81 1.868 . S
C129 C55 2.042 . S
C138 C68 2.041 . S
C140 C94 1.874 . S
C149 C83 1.928 . S
C151 C5 1.865 . S
C160 C18 1.865 . S
C162 C96 1.928 . S
C171 C31 1.926 . S
C173 C57 1.866 . S
C182 C44 1.928 . S
C184 C70 1.865 . S
C193 C79 2.093 . S
C195 C1 2.222 . S
C204 C14 2.221 . S
C206 C92 2.093 . S
C215 C53 2.224 . S
C217 C27 2.091 . S
C226 C66 2.225 . S
C228 C40 2.088 . S
C237 C23 0.868 . S
C239 C10 0.856 . S
C248 C36 0.871 . S
C250 C49 0.872 . S
C259 C75 0.855 . S
C261 C62 0.858 . S
C270 C88 0.866 . S
C272 C101 0.869 . S
