# Generated by pormake.
# Topology rob, (6)-cn, num edge types: 1
# Building blocks:
#     Node 0, Type 0, BuildingBlock: KUMBOL_clean_sbu_0, # of connection points: 6
#     Node 1, Type 0, BuildingBlock: KUMBOL_clean_sbu_0, # of connection points: 6
#     Node 2, Type 0, BuildingBlock: KUMBOL_clean_sbu_0, # of connection points: 6
#     Node 3, Type 0, BuildingBlock: KUMBOL_clean_sbu_0, # of connection points: 6
#     Edge 4, Type (0, 0), BuildingBlock: UVAHIK_clean_linker_0, # of connection points: 2
#     Edge 5, Type (0, 0), BuildingBlock: UVAHIK_clean_linker_0, # of connection points: 2
#     Edge 6, Type (0, 0), BuildingBlock: UVAHIK_clean_linker_0, # of connection points: 2
#     Edge 7, Type (0, 0), BuildingBlock: UVAHIK_clean_linker_0, # of connection points: 2
#     Edge 8, Type (0, 0), BuildingBlock: UVAHIK_clean_linker_0, # of connection points: 2
#     Edge 9, Type (0, 0), BuildingBlock: UVAHIK_clean_linker_0, # of connection points: 2
#     Edge 10, Type (0, 0), BuildingBlock: UVAHIK_clean_linker_0, # of connection points: 2
#     Edge 11, Type (0, 0), BuildingBlock: UVAHIK_clean_linker_0, # of connection points: 2
#     Edge 12, Type (0, 0), BuildingBlock: UVAHIK_clean_linker_0, # of connection points: 2
#     Edge 13, Type (0, 0), BuildingBlock: UVAHIK_clean_linker_0, # of connection points: 2
#     Edge 14, Type (0, 0), BuildingBlock: UVAHIK_clean_linker_0, # of connection points: 2
#     Edge 15, Type (0, 0), BuildingBlock: UVAHIK_clean_linker_0, # of connection points: 2
# Relax obj value: 0.032
# Max RMSD: 0.150
# Mean RMSD: 0.150
data_MOF--net-rob--node1-KUMBOL_clean_sbu_0--edge1-UVAHIK_clean_linker_0
_symmetry_space_group_name_H-M    P1
_symmetry_Int_Tables_number       1
_symmetry_cell_setting            triclinic
loop_
_symmetry_equiv_pos_as_xyz
'x, y, z'
_cell_length_a     19.93364
_cell_length_b     34.246353
_cell_length_c     41.866562
_cell_angle_alpha  119.10001
_cell_angle_beta   90.069263
_cell_angle_gamma 89.960531
loop_
_atom_site_label
_atom_site_type_symbol
_atom_site_fract_x
_atom_site_fract_y
_atom_site_fract_z
_atom_type_partial_charge
Gd0 Gd 0.31121 0.21054 0.98165 0.0
Gd1 Gd 0.18748 0.28739 0.04837 0.0
C2 C 0.0231 0.35485 0.01636 0.0
C3 C 0.05475 0.43317 0.05092 0.0
C4 C 0.12092 0.37647 0.05558 0.0
C5 C 0.07883 0.34353 0.03101 0.0
C6 C 0.10868 0.42178 0.06643 0.0
C7 C 0.01209 0.39974 0.02587 0.0
C8 C 0.97923 0.32086 0.99333 0.0
C9 C 0.99023 0.27721 0.98649 0.0
N10 N 0.09065 0.30061 0.02273 0.0
C11 C 0.0459 0.26774 1.00195 0.0
H12 H 0.05371 0.23382 0.99628 0.0
C13 C 0.21096 0.39593 0.09739 0.0
N14 N 0.17229 0.3643 0.07009 0.0
C15 C 0.20098 0.44132 0.109 0.0
C16 C 0.15007 0.4543 0.09316 0.0
H17 H 0.25064 0.38602 0.10955 0.0
H18 H 0.96987 0.40904 0.01467 0.0
H19 H 0.4456 0.26538 0.03275 0.0
H20 H 0.93599 0.32812 0.9814 0.0
H21 H 0.95592 0.2508 0.96927 0.0
H22 H 0.04482 0.46776 0.05866 0.0
H23 H 0.25126 0.11075 0.92065 0.0
H24 H 0.5624 0.17376 0.05147 0.0
H25 H 0.54311 0.25001 0.06092 0.0
H26 H 0.4542 0.03311 0.97671 0.0
H27 H 0.2326 0.46623 0.13009 0.0
H28 H 0.14232 0.48948 0.10226 0.0
H29 H 0.52829 0.09287 0.02028 0.0
H30 H 0.26968 0.03107 0.90195 0.0
N31 N 0.40834 0.1987 1.00803 0.0
C32 C 0.51935 0.18029 0.03895 0.0
C33 C 0.50874 0.22332 0.04424 0.0
C34 C 0.4755 0.14588 0.01654 0.0
C35 C 0.42009 0.15625 1.00104 0.0
C36 C 0.45319 0.23187 0.02811 0.0
N37 N 0.32791 0.13398 0.96111 0.0
C38 C 0.37857 0.12275 0.97669 0.0
C39 C 0.30051 0.05653 0.92312 0.0
C40 C 0.3505 0.04457 0.94017 0.0
C41 C 0.29036 0.10162 0.93367 0.0
C42 C 0.39096 0.07779 0.96695 0.0
H43 H 0.35838 0.00963 0.93191 0.0
O44 O 0.31911 0.18538 0.9231 0.0
O45 O 0.22261 0.25407 0.99084 0.0
O46 O 0.15191 0.2149 0.01991 0.0
O47 O 0.24786 0.17027 0.99944 0.0
O48 O 0.22168 0.19301 0.94404 0.0
O49 O 0.39439 0.23081 0.95967 0.0
O50 O 0.17927 0.31167 0.1068 0.0
O51 O 0.27549 0.24376 0.03873 0.0
O52 O 0.34601 0.28319 1.00996 0.0
O53 O 0.25004 0.32775 0.03034 0.0
O54 O 0.27691 0.30348 0.08638 0.0
O55 O 0.10339 0.26723 0.06987 0.0
C56 C 0.18965 0.23013 0.96209 0.0
C57 C 0.44424 0.06741 0.98353 0.0
C58 C 0.4864 0.10143 1.00834 0.0
C59 C 0.37562 0.20582 0.92581 0.0
C60 C 0.42816 0.17949 0.89956 0.0
C61 C 0.46974 0.15072 0.90566 0.0
C62 C 0.43739 0.18381 0.86816 0.0
C63 C 0.48884 0.16019 0.84316 0.0
C64 C 0.52057 0.1269 0.8808 0.0
C65 C 0.53042 0.13174 0.84984 0.0
C66 C 0.18389 0.17646 1.00914 0.0
C67 C 0.30864 0.26642 0.06755 0.0
C68 C 0.12233 0.29153 0.10381 0.0
C69 C 0.07006 0.31784 0.13031 0.0
C70 C 0.02831 0.34677 0.12451 0.0
C71 C 0.0611 0.31322 0.1616 0.0
C72 C 0.0096 0.33656 0.18666 0.0
C73 C 0.97752 0.37038 0.14948 0.0
C74 C 0.96781 0.36513 0.18025 0.0
C75 C 0.31394 0.32156 0.02054 0.0
H76 H 0.46318 0.14693 0.92966 0.0
H77 H 0.40549 0.20634 0.86365 0.0
H78 H 0.55266 0.10479 0.88563 0.0
H79 H 0.57022 0.11298 0.83097 0.0
H80 H 0.03463 0.35082 0.10062 0.0
H81 H 0.09309 0.29059 0.16594 0.0
H82 H 0.94527 0.39258 0.14485 0.0
H83 H 0.9279 0.38358 0.19916 0.0
Gd84 Gd 0.80761 0.707 0.97696 0.0
Gd85 Gd 0.69038 0.78734 0.04628 0.0
C86 C 0.52865 0.85791 0.0157 0.0
C87 C 0.5662 0.93517 0.04795 0.0
C88 C 0.62896 0.87747 0.05293 0.0
C89 C 0.58424 0.8455 0.02965 0.0
C90 C 0.61975 0.92284 0.06302 0.0
C91 C 0.52075 0.90274 0.02428 0.0
C92 C 0.48161 0.82515 0.99449 0.0
C93 C 0.48936 0.78176 0.9889 0.0
N94 N 0.59303 0.80266 0.02234 0.0
C95 C 0.54517 0.77118 1.00353 0.0
H96 H 0.55057 0.73744 0.99877 0.0
C97 C 0.72086 0.8953 0.09342 0.0
N98 N 0.6798 0.86439 0.06711 0.0
C99 C 0.71394 0.9407 0.10424 0.0
C100 C 0.66365 0.9545 0.08865 0.0
H101 H 0.76015 0.88471 0.10531 0.0
H102 H 0.47873 0.91284 0.01353 0.0
H103 H 0.94678 0.75788 0.02491 0.0
H104 H 0.4383 0.83326 0.98317 0.0
H105 H 0.45254 0.75636 0.97319 0.0
H106 H 0.5586 0.9698 0.05508 0.0
H107 H 0.73976 0.60908 0.91767 0.0
H108 H 0.06011 0.663 0.04117 0.0
H109 H 0.04481 0.73973 0.05094 0.0
H110 H 0.9418 0.52563 0.96911 0.0
H111 H 0.74747 0.96499 0.1245 0.0
H112 H 0.65827 0.9897 0.09713 0.0
H113 H 0.02079 0.58318 1.01085 0.0
H114 H 0.75337 0.52897 0.89878 0.0
N115 N 0.90531 0.69236 1.00115 0.0
C116 C 0.01681 0.67076 0.0296 0.0
C117 C 0.00845 0.71406 0.03508 0.0
C118 C 0.97034 0.63766 1.00823 0.0
C119 C 0.91473 0.64962 0.99396 0.0
C120 C 0.9526 0.72419 0.02017 0.0
N121 N 0.81969 0.63003 0.95616 0.0
C122 C 0.87053 0.61735 0.9706 0.0
C123 C 0.78654 0.55349 0.91912 0.0
C124 C 0.83685 0.5401 0.93499 0.0
C125 C 0.77911 0.59882 0.92975 0.0
C126 C 0.88026 0.57208 0.96071 0.0
H127 H 0.84261 0.50497 0.92666 0.0
O128 O 0.81307 0.68091 0.91817 0.0
O129 O 0.72115 0.75247 0.98816 0.0
O130 O 0.65061 0.71584 0.01917 0.0
O131 O 0.74373 0.66875 0.99655 0.0
O132 O 0.71566 0.69214 0.941 0.0
O133 O 0.88963 0.72627 0.95354 0.0
O134 O 0.68562 0.81322 0.10502 0.0
O135 O 0.7763 0.74148 0.03493 0.0
O136 O 0.84686 0.77866 1.00441 0.0
O137 O 0.75325 0.82528 0.0261 0.0
O138 O 0.7823 0.80144 0.08227 0.0
O139 O 0.60694 0.76971 0.06998 0.0
C140 C 0.68571 0.72982 0.9602 0.0
C141 C 0.93382 0.56018 0.97608 0.0
C142 C 0.97877 0.59294 0.99985 0.0
C143 C 0.86947 0.70107 0.91997 0.0
C144 C 0.9212 0.67441 0.89321 0.0
C145 C 0.96119 0.64422 0.89834 0.0
C146 C 0.93171 0.68012 0.86254 0.0
C147 C 0.98296 0.65647 0.83736 0.0
C148 C 0.01172 0.62036 0.87329 0.0
C149 C 0.02291 0.62657 0.8431 0.0
C150 C 0.68064 0.67664 1.0078 0.0
C151 C 0.81175 0.76358 0.06298 0.0
C152 C 0.628 0.79444 0.10346 0.0
C153 C 0.57757 0.82236 0.13053 0.0
C154 C 0.53792 0.85249 0.12512 0.0
C155 C 0.56805 0.81801 0.16189 0.0
C156 C 0.51798 0.84282 0.18743 0.0
C157 C 0.48859 0.87756 0.15058 0.0
C158 C 0.47824 0.87258 0.18143 0.0
C159 C 0.8165 0.81763 0.01523 0.0
H160 H 0.95368 0.63939 0.92178 0.0
H161 H 0.9011 0.70376 0.85877 0.0
H162 H 0.04259 0.59715 0.87739 0.0
H163 H 0.06248 0.60776 0.82407 0.0
H164 H 0.54469 0.85632 0.10116 0.0
H165 H 0.59837 0.79444 0.16592 0.0
H166 H 0.45792 0.90067 0.14625 0.0
H167 H 0.43941 0.89211 0.20071 0.0
Gd168 Gd 0.29586 0.79182 0.54845 0.0
Gd169 Gd 0.18333 0.71277 0.47478 0.0
C170 C 0.00539 0.67868 0.52655 0.0
C171 C 0.03443 0.60412 0.51498 0.0
C172 C 0.10501 0.6426 0.49158 0.0
C173 C 0.06318 0.67939 0.50726 0.0
C174 C 0.08934 0.60382 0.49393 0.0
C175 C 0.99262 0.64157 0.53136 0.0
C176 C 0.96103 0.71471 0.5396 0.0
C177 C 0.97265 0.74904 0.53156 0.0
N178 N 0.07706 0.71488 0.50217 0.0
C179 C 0.03009 0.74816 0.5121 0.0
H180 H 0.03467 0.77424 0.50497 0.0
C181 C 0.18998 0.6042 0.44862 0.0
N182 N 0.15794 0.64333 0.4716 0.0
C183 C 0.17675 0.56505 0.4501 0.0
C184 C 0.12745 0.5652 0.47371 0.0
H185 H 0.22647 0.60306 0.42916 0.0
H186 H 0.94919 0.64088 0.54663 0.0
H187 H 0.42641 0.73481 0.49635 0.0
H188 H 0.9163 0.71545 0.55457 0.0
H189 H 0.93692 0.77609 0.54001 0.0
H190 H 0.02247 0.57498 0.51764 0.0
H191 H 0.23994 0.89217 0.61024 0.0
H192 H 0.54967 0.82498 0.47897 0.0
H193 H 0.52648 0.74881 0.46886 0.0
H194 H 0.44537 0.96718 0.55348 0.0
H195 H 0.2042 0.53472 0.43277 0.0
H196 H 0.1169 0.53476 0.47469 0.0
H197 H 0.51812 0.90637 0.51005 0.0
H198 H 0.26146 0.97185 0.62934 0.0
N199 N 0.39277 0.80224 0.52159 0.0
C200 C 0.50577 0.81905 0.49125 0.0
C201 C 0.49296 0.77604 0.48557 0.0
C202 C 0.46273 0.85411 0.51351 0.0
C203 C 0.40618 0.84453 0.52872 0.0
C204 C 0.43615 0.76824 0.50126 0.0
N205 N 0.31312 0.86806 0.56806 0.0
C206 C 0.36487 0.87856 0.55266 0.0
C207 C 0.29049 0.94593 0.60747 0.0
C208 C 0.34045 0.95717 0.58999 0.0
C209 C 0.27836 0.90095 0.59663 0.0
C210 C 0.37941 0.92337 0.56275 0.0
H211 H 0.35007 0.99203 0.59857 0.0
O212 O 0.29208 0.81083 0.60615 0.0
O213 O 0.21275 0.74237 0.53322 0.0
O214 O 0.14442 0.78339 0.49805 0.0
O215 O 0.22698 0.83424 0.53503 0.0
O216 O 0.19892 0.8041 0.57922 0.0
O217 O 0.38428 0.78577 0.57641 0.0
O218 O 0.20413 0.66855 0.41718 0.0
O219 O 0.2818 0.74966 0.48822 0.0
O220 O 0.33229 0.72197 0.52896 0.0
O221 O 0.27386 0.67303 0.47615 0.0
O222 O 0.22023 0.75345 0.44974 0.0
O223 O 0.10873 0.70396 0.43384 0.0
C224 C 0.17422 0.76448 0.56003 0.0
C225 C 0.43383 0.933 0.54643 0.0
C226 C 0.47535 0.8984 0.52177 0.0
C227 C 0.35468 0.8016 0.60794 0.0
C228 C 0.39221 0.83409 0.64037 0.0
C229 C 0.41119 0.87558 0.64436 0.0
C230 C 0.40753 0.82374 0.66824 0.0
C231 C 0.44039 0.85505 0.70059 0.0
C232 C 0.44326 0.90689 0.67621 0.0
C233 C 0.45725 0.89701 0.70422 0.0
C234 C 0.16895 0.82434 0.51738 0.0
C235 C 0.27669 0.76537 0.46644 0.0
C236 C 0.1472 0.67752 0.40665 0.0
C237 C 0.1155 0.64311 0.37284 0.0
C238 C 0.10806 0.59884 0.36551 0.0
C239 C 0.09473 0.65504 0.34658 0.0
C240 C 0.06802 0.62288 0.31276 0.0
C241 C 0.08121 0.56675 0.33208 0.0
C242 C 0.06176 0.57851 0.30574 0.0
C243 C 0.32095 0.68184 0.50114 0.0
H244 H 0.40098 0.8839 0.62304 0.0
H245 H 0.3942 0.79105 0.66436 0.0
H246 H 0.45698 0.93915 0.67933 0.0
H247 H 0.48069 0.92261 0.72886 0.0
H248 H 0.1233 0.58901 0.38536 0.0
H249 H 0.10094 0.68925 0.35216 0.0
H250 H 0.07571 0.53255 0.32648 0.0
H251 H 0.04104 0.55307 0.28007 0.0
Gd252 Gd 0.79094 0.2902 0.55153 0.0
Gd253 Gd 0.67789 0.21389 0.47771 0.0
C254 C 0.4995 0.17942 0.52891 0.0
C255 C 0.52976 0.10555 0.5186 0.0
C256 C 0.60024 0.14382 0.49498 0.0
C257 C 0.55767 0.18022 0.50994 0.0
C258 C 0.58512 0.10532 0.49785 0.0
C259 C 0.48709 0.14262 0.5342 0.0
C260 C 0.45443 0.21502 0.54115 0.0
C261 C 0.46582 0.24894 0.53257 0.0
N262 N 0.57126 0.21541 0.50442 0.0
C263 C 0.52371 0.24813 0.51345 0.0
H264 H 0.5283 0.27374 0.50575 0.0
C265 C 0.68686 0.10574 0.4531 0.0
N266 N 0.65355 0.14466 0.47527 0.0
C267 C 0.67426 0.06689 0.45516 0.0
C268 C 0.62435 0.06704 0.47848 0.0
H269 H 0.72375 0.10442 0.43376 0.0
H270 H 0.44334 0.14185 0.54923 0.0
H271 H 0.91469 0.22309 0.49965 0.0
H272 H 0.40936 0.21568 0.55585 0.0
H273 H 0.42956 0.27558 0.54033 0.0
H274 H 0.51817 0.07663 0.52165 0.0
H275 H 0.74973 0.39555 0.61044 0.0
H276 H 0.05149 0.30008 0.47421 0.0
H277 H 0.01704 0.22771 0.4688 0.0
H278 H 0.96688 0.44937 0.5438 0.0
H279 H 0.70265 0.03676 0.43847 0.0
H280 H 0.6143 0.03683 0.4799 0.0
H281 H 0.0314 0.38272 0.50163 0.0
H282 H 0.78268 0.47215 0.62491 0.0
N283 N 0.89036 0.29189 0.52195 0.0
C284 C 0.00647 0.29824 0.48789 0.0
C285 C 0.98725 0.25736 0.48483 0.0
C286 C 0.96829 0.33647 0.50937 0.0
C287 C 0.91007 0.33218 0.52654 0.0
C288 C 0.92897 0.25483 0.50233 0.0
N289 N 0.81994 0.36398 0.56711 0.0
C290 C 0.87336 0.36944 0.54971 0.0
C291 C 0.80823 0.44355 0.60343 0.0
C292 C 0.86001 0.44962 0.58382 0.0
C293 C 0.78973 0.40025 0.59521 0.0
C294 C 0.89436 0.41236 0.55714 0.0
H295 H 0.8746 0.48318 0.59038 0.0
O296 O 0.79315 0.32033 0.61091 0.0
O297 O 0.70547 0.24272 0.53635 0.0
O298 O 0.63913 0.28464 0.50197 0.0
O299 O 0.7215 0.33433 0.54016 0.0
O300 O 0.69384 0.3043 0.58256 0.0
O301 O 0.87167 0.27504 0.57865 0.0
O302 O 0.69862 0.1691 0.42025 0.0
O303 O 0.77698 0.25001 0.49112 0.0
O304 O 0.81381 0.21901 0.53596 0.0
O305 O 0.77072 0.17518 0.47755 0.0
O306 O 0.71393 0.25688 0.4546 0.0
O307 O 0.60422 0.20559 0.43648 0.0
C308 C 0.66741 0.26524 0.56326 0.0
C309 C 0.95044 0.41674 0.53883 0.0
C310 C 0.98729 0.37881 0.51491 0.0
C311 C 0.84918 0.3012 0.61141 0.0
C312 C 0.89918 0.32889 0.63908 0.0
C313 C 0.93639 0.36122 0.63544 0.0
C314 C 0.91181 0.32146 0.66878 0.0
C315 C 0.96242 0.34553 0.69438 0.0
C316 C 0.98596 0.38566 0.66102 0.0
C317 C -0.00071 0.37772 0.69017 0.0
C318 C 0.66372 0.32539 0.52227 0.0
C319 C 0.77133 0.26736 0.47052 0.0
C320 C 0.6423 0.17838 0.40947 0.0
C321 C 0.61011 0.1437 0.37601 0.0
C322 C 0.60417 0.09934 0.36871 0.0
C323 C 0.58805 0.15537 0.34985 0.0
C324 C 0.56165 0.12292 0.3161 0.0
C325 C 0.57748 0.06694 0.33534 0.0
C326 C 0.55685 0.07848 0.30904 0.0
C327 C 0.80831 0.1806 0.50549 0.0
H328 H 0.9277 0.3672 0.61268 0.0
H329 H 0.88369 0.29601 0.67132 0.0
H330 H 0.01465 0.41052 0.65805 0.0
H331 H 0.03834 0.39683 0.70951 0.0
H332 H 0.62063 0.08968 0.3885 0.0
H333 H 0.59325 0.18963 0.35537 0.0
H334 H 0.57318 0.03267 0.32973 0.0
H335 H 0.5365 0.05281 0.28335 0.0
C336 C 0.67418 0.60058 1.00245 0.0
C337 C 0.64185 0.63996 1.00814 0.0
C338 C 0.63804 0.5664 1.00367 0.0
C339 C 0.48136 0.54482 0.03953 0.0
H340 H 0.51899 0.42109 0.96944 0.0
C341 C 0.31791 0.39815 0.02663 0.0
C342 C 0.35145 0.35912 0.02091 0.0
C343 C 0.35297 0.43286 0.02561 0.0
C344 C 0.50839 0.45545 0.98948 0.0
H345 H 0.54591 0.67416 0.01958 0.0
H346 H 0.48288 0.61436 0.02144 0.0
H347 H 0.58032 0.48048 0.96602 0.0
H348 H 0.4485 0.3263 1.00994 0.0
H349 H 0.5095 0.3869 1.00841 0.0
H350 H 0.40938 0.51972 0.06298 0.0
C351 C 0.53636 0.61013 0.01637 0.0
C352 C 0.54353 0.4895 0.98751 0.0
C353 C 0.57249 0.64433 0.0151 0.0
C354 C 0.42094 0.35578 0.01437 0.0
C355 C 0.45593 0.39045 0.01328 0.0
C356 C 0.44617 0.51074 0.0415 0.0
C357 C 0.56873 0.57079 1.01074 0.0
C358 C 0.53057 0.5346 1.01255 0.0
C359 C 0.42233 0.4293 0.01867 0.0
C360 C 0.45942 0.46564 0.01656 0.0
H361 H 0.7277 0.59633 0.99764 0.0
H362 H 0.66476 0.53686 0.99979 0.0
H363 H 0.47083 0.57918 0.05959 0.0
H364 H 0.26428 0.40167 0.03123 0.0
H365 H 0.3254 0.46209 0.02942 0.0
C366 C 0.36057 0.60163 0.46982 0.0
C367 C 0.36192 0.64498 0.49993 0.0
C368 C 0.39436 0.5666 0.4712 0.0
C369 C 0.46331 0.53665 0.53878 0.0
H370 H 0.55375 0.44217 0.45481 0.0
C371 C 0.63624 0.40684 0.5481 0.0
C372 C 0.62706 0.36217 0.52107 0.0
C373 C 0.60372 0.4413 0.54537 0.0
C374 C 0.52826 0.46823 0.47841 0.0
H375 H 0.40396 0.68587 0.55429 0.0
H376 H 0.46419 0.62573 0.55596 0.0
H377 H 0.49857 0.5023 0.44925 0.0
H378 H 0.57626 0.31862 0.46992 0.0
H379 H 0.51971 0.37863 0.46534 0.0
H380 H 0.49383 0.50285 0.56802 0.0
C381 C 0.43497 0.6182 0.53181 0.0
C382 C 0.49649 0.50256 0.4752 0.0
C383 C 0.40083 0.65291 0.53059 0.0
C384 C 0.5842 0.35266 0.49143 0.0
C385 C 0.55227 0.38703 0.48853 0.0
C386 C 0.49551 0.50258 0.54205 0.0
C387 C 0.43092 0.57442 0.50255 0.0
C388 C 0.46383 0.53728 0.50541 0.0
C389 C 0.56192 0.43169 0.51535 0.0
C390 C 0.52832 0.46805 0.51192 0.0
H391 H 0.33314 0.59454 0.44534 0.0
H392 H 0.3904 0.53325 0.44807 0.0
H393 H 0.43737 0.56231 0.5624 0.0
H394 H 0.6682 0.41523 0.5714 0.0
H395 H 0.61216 0.47552 0.56641 0.0
C396 C 0.17998 0.09985 1.00286 0.0
C397 C 0.14624 0.13865 1.0082 0.0
C398 C 0.14475 0.06462 1.0029 0.0
C399 C 0.97437 0.0171 0.99242 0.0
H400 H 0.05099 0.95751 0.04249 0.0
C401 C 0.82233 0.89345 0.02015 0.0
C402 C 0.85508 0.85441 0.01495 0.0
C403 C 0.85828 0.92784 0.01917 0.0
C404 C 0.02924 0.97347 0.02804 0.0
H405 H 0.0488 0.17079 0.01791 0.0
H406 H 0.98761 0.1096 0.01845 0.0
H407 H 0.11282 0.01777 0.04062 0.0
H408 H 0.95148 0.82089 1.00444 0.0
H409 H 0.01403 0.88076 1.00238 0.0
H410 H 0.89069 0.97289 0.97996 0.0
C411 C 0.0412 0.10613 0.01364 0.0
C412 C 0.06469 0.00799 0.02694 0.0
C413 C 0.07642 0.14136 0.01356 0.0
C414 C 0.92466 0.85056 1.0087 0.0
C415 C 0.96063 0.885 1.00773 0.0
C416 C 0.9389 0.9826 0.99354 0.0
C417 C 0.07497 0.06739 1.00842 0.0
C418 C 0.03763 0.03028 1.00918 0.0
C419 C 0.92782 0.92399 0.01286 0.0
C420 C 0.96585 0.96044 1.01144 0.0
H421 H 0.23381 0.09678 0.99908 0.0
H422 H 0.17222 0.03509 0.99842 0.0
H423 H 0.95255 0.03309 0.97801 0.0
H424 H 0.7687 0.8974 0.0246 0.0
H425 H 0.83158 0.95763 0.02362 0.0
C426 C 0.85526 0.10237 0.47105 0.0
C427 C 0.84591 0.14241 0.50391 0.0
C428 C 0.88891 0.06636 0.47093 0.0
C429 C 0.94144 0.02442 0.53417 0.0
H430 H 0.06316 0.94975 0.45588 0.0
C431 C 0.13093 0.90396 0.54512 0.0
C432 C 0.13135 0.86028 0.51562 0.0
C433 C 0.09521 0.9376 0.54276 0.0
C434 C 0.02898 0.97026 0.4778 0.0
H435 H 0.8669 0.17644 0.56227 0.0
H436 H 0.92732 0.11509 0.56172 0.0
H437 H 0.00178 0.00963 0.45277 0.0
H438 H 0.09569 0.81747 0.46032 0.0
H439 H 0.03394 0.87638 0.45613 0.0
H440 H 0.97017 0.98576 0.55961 0.0
C441 C 0.90673 0.11054 0.53619 0.0
C442 C 0.99355 0.00435 0.47594 0.0
C443 C 0.87262 0.14608 0.53637 0.0
C444 C 0.09585 0.85085 0.48363 0.0
C445 C 0.06101 0.88455 0.48106 0.0
C446 C 0.97748 0.99079 0.53622 0.0
C447 C 0.91456 0.06999 0.50363 0.0
C448 C 0.94976 0.0321 0.50429 0.0
C449 C 0.06013 0.92817 0.51065 0.0
C450 C 0.02181 0.96359 0.50818 0.0
H451 H 0.83694 0.09881 0.44545 0.0
H452 H 0.89404 0.03556 0.44533 0.0
H453 H 0.90693 0.04438 0.55607 0.0
H454 H 0.15699 0.91197 0.57021 0.0
H455 H 0.09539 0.97108 0.56593 0.0
C456 C 0.56235 0.1112 0.25192 0.0
C457 C 0.54011 0.13551 0.28827 0.0
C458 C 0.54373 0.12406 0.22607 0.0
C459 C 0.47033 0.22064 0.21919 0.0
H460 H 0.44594 0.13168 0.11756 0.0
C461 C 0.39453 0.27468 0.11375 0.0
C462 C 0.34912 0.24739 0.08633 0.0
C463 C 0.4263 0.25925 0.13533 0.0
C464 C 0.45184 0.15705 0.14587 0.0
H465 H 0.47935 0.19149 0.3258 0.0
H466 H 0.44434 0.21283 0.28071 0.0
H467 H 0.47973 0.1084 0.16153 0.0
H468 H 0.30095 0.18254 0.06012 0.0
H469 H 0.35405 0.15606 0.09826 0.0
H470 H 0.43833 0.26895 0.20419 0.0
C471 C 0.47832 0.18485 0.27215 0.0
C472 C 0.47238 0.1437 0.17115 0.0
C473 C 0.49793 0.17245 0.29808 0.0
C474 C 0.33681 0.20404 0.08049 0.0
C475 C 0.3676 0.18883 0.10248 0.0
C476 C 0.44872 0.23387 0.19409 0.0
C477 C 0.50143 0.16117 0.23577 0.0
C478 C 0.48146 0.17527 0.20832 0.0
C479 C 0.41178 0.21656 0.13082 0.0
C480 C 0.43875 0.20232 0.15703 0.0
H481 H 0.59546 0.08281 0.24368 0.0
H482 H 0.56364 0.10528 0.19865 0.0
H483 H 0.4781 0.24627 0.24725 0.0
H484 H 0.40474 0.3083 0.11883 0.0
H485 H 0.4613 0.28129 0.15605 0.0
C486 C 0.44041 0.82697 0.22666 0.0
C487 C 0.50546 0.83644 0.21952 0.0
C488 C 0.42838 0.8197 0.25622 0.0
C489 C 0.48535 0.84554 0.34658 0.0
H490 H 0.38804 0.73843 0.3279 0.0
C491 C 0.32913 0.82065 0.45227 0.0
C492 C 0.33104 0.77845 0.45001 0.0
C493 C 0.36682 0.82911 0.42811 0.0
C494 C 0.41606 0.76821 0.33355 0.0
H495 H 0.60871 0.84663 0.23802 0.0
H496 H 0.58715 0.83503 0.29063 0.0
H497 H 0.41927 0.75029 0.27691 0.0
H498 H 0.37292 0.71189 0.42097 0.0
H499 H 0.43869 0.72642 0.37846 0.0
H500 H 0.47935 0.8643 0.40354 0.0
C501 C 0.54582 0.8328 0.27299 0.0
C502 C 0.43336 0.77514 0.30439 0.0
C503 C 0.55815 0.83919 0.24289 0.0
C504 C 0.37256 0.74515 0.42395 0.0
C505 C 0.40954 0.75335 0.39947 0.0
C506 C 0.46689 0.83898 0.37595 0.0
C507 C 0.4809 0.82253 0.27967 0.0
C508 C 0.46741 0.81408 0.31062 0.0
C509 C 0.40511 0.7949 0.40045 0.0
C510 C 0.43155 0.80037 0.3697 0.0
H511 H 0.399 0.8244 0.20895 0.0
H512 H 0.37779 0.81209 0.26092 0.0
H513 H 0.51145 0.87591 0.35206 0.0
H514 H 0.29557 0.84627 0.47138 0.0
H515 H 0.36177 0.86125 0.42923 0.0
C516 C 0.65768 0.79078 0.94555 0.0
C517 C 0.64369 0.7486 0.94183 0.0
C518 C 0.62606 0.80477 0.92294 0.0
C519 C 0.53698 0.75606 0.83288 0.0
H520 H 0.51647 0.88064 0.85904 0.0
C521 C 0.41606 0.81569 0.73733 0.0
C522 C 0.45714 0.84425 0.7304 0.0
C523 C 0.4325 0.80534 0.76493 0.0
C524 C 0.52188 0.84571 0.85144 0.0
H525 H 0.58371 0.68887 0.91293 0.0
H526 H 0.52536 0.71406 0.87504 0.0
H527 H 0.5516 0.86119 0.90545 0.0
H528 H 0.54873 0.88373 0.74758 0.0
H529 H 0.57507 0.86724 0.79656 0.0
H530 H 0.50548 0.74091 0.77905 0.0
C531 C 0.56257 0.73591 0.89426 0.0
C532 C 0.5425 0.83444 0.87796 0.0
C533 C 0.59531 0.72157 0.9163 0.0
C534 C 0.51467 0.86252 0.75236 0.0
C535 C 0.5302 0.85292 0.78042 0.0
C536 C 0.51497 0.76735 0.80667 0.0
C537 C 0.57914 0.77705 0.89624 0.0
C538 C 0.55148 0.78939 0.86897 0.0
C539 C 0.48957 0.82402 0.78684 0.0
C540 C 0.50821 0.81226 0.8155 0.0
H541 H 0.69571 0.81199 0.9645 0.0
H542 H 0.64121 0.83638 0.92527 0.0
H543 H 0.54462 0.72104 0.82429 0.0
H544 H 0.37064 0.80157 0.72176 0.0
H545 H 0.40013 0.7831 0.76945 0.0
C546 C 0.58529 0.27119 0.61026 0.0
C547 C 0.63143 0.2454 0.58273 0.0
C548 C 0.56084 0.25627 0.63377 0.0
C549 C 0.61022 0.17931 0.66883 0.0
H550 H 0.4409 0.21782 0.72019 0.0
C551 C 0.56509 0.17443 0.80242 0.0
C552 C 0.50028 0.16605 0.81069 0.0
C553 C 0.5762 0.18056 0.7722 0.0
C554 C 0.48803 0.20612 0.70582 0.0
H555 H 0.68763 0.1834 0.55782 0.0
H556 H 0.6417 0.15585 0.59687 0.0
H557 H 0.46416 0.23146 0.66944 0.0
H558 H 0.3963 0.15689 0.79353 0.0
H559 H 0.41577 0.16607 0.73995 0.0
H560 H 0.63326 0.15255 0.70416 0.0
C561 C 0.62543 0.18823 0.60123 0.0
C562 C 0.50183 0.21456 0.67692 0.0
C563 C 0.65087 0.20361 0.57826 0.0
C564 C 0.44675 0.16367 0.78794 0.0
C565 C 0.45797 0.16915 0.75732 0.0
C566 C 0.59603 0.17027 0.69726 0.0
C567 C 0.58193 0.21503 0.63021 0.0
C568 C 0.56371 0.20204 0.65844 0.0
C569 C 0.52292 0.17776 0.74902 0.0
C570 C 0.53539 0.1844 0.71676 0.0
H571 H 0.57047 0.30388 0.61465 0.0
H572 H 0.52827 0.27829 0.65593 0.0
H573 H 0.65887 0.16959 0.65585 0.0
H574 H 0.60715 0.17712 0.81979 0.0
H575 H 0.62664 0.18827 0.76745 0.0
C576 C 0.83895 0.70127 0.07624 0.0
C577 C 0.85282 0.74406 0.08119 0.0
C578 C 0.87006 0.68616 0.09825 0.0
C579 C 0.95578 0.73178 0.18881 0.0
H580 H 0.98163 0.60637 0.15823 0.0
C581 C 0.00682 0.67338 0.29471 0.0
C582 C 0.04719 0.63561 0.28486 0.0
C583 C 0.98698 0.68538 0.26856 0.0
C584 C 0.97574 0.64164 0.16728 0.0
H585 H 0.91182 0.80387 0.1119 0.0
H586 H 0.96888 0.77695 0.14901 0.0
H587 H 0.94677 0.62852 0.11371 0.0
H588 H 0.09931 0.58115 0.23991 0.0
H589 H 0.06706 0.60285 0.19449 0.0
H590 H 0.98754 0.74519 0.2419 0.0
C591 C 0.93238 0.75535 0.12909 0.0
C592 C 0.95459 0.65437 0.14169 0.0
C593 C 0.90032 0.77071 0.10754 0.0
C594 C 0.06759 0.6102 0.24825 0.0
C595 C 0.04871 0.62262 0.22215 0.0
C596 C 0.97793 0.71914 0.21419 0.0
C597 C 0.91614 0.71342 0.12568 0.0
C598 C 0.94342 0.69964 0.15215 0.0
C599 C 0.00798 0.66042 0.23186 0.0
C600 C 0.98731 0.67383 0.20406 0.0
H601 H 0.80157 0.68028 0.05667 0.0
H602 H 0.85528 0.65395 0.09484 0.0
H603 H 0.94689 0.76692 0.19841 0.0
H604 H 0.98957 0.69328 0.32261 0.0
H605 H 0.9543 0.71401 0.27719 0.0
C606 C 0.82541 0.32092 0.45486 0.0
C607 C 0.82581 0.27899 0.45314 0.0
C608 C 0.86314 0.32816 0.43005 0.0
C609 C 0.9105 0.26463 0.33512 0.0
H610 H 0.00651 0.37128 0.35148 0.0
C611 C 0.93341 0.3196 0.22582 0.0
C612 C -0.00208 0.33004 0.21877 0.0
C613 C 0.92207 0.31267 0.25562 0.0
C614 C 0.98029 0.34117 0.34657 0.0
H615 H 0.86535 0.21176 0.42453 0.0
H616 H 0.93138 0.2242 0.381 0.0
H617 H 0.97503 0.36131 0.40381 0.0
H618 H 0.10095 0.34211 0.23764 0.0
H619 H 0.0806 0.33103 0.29059 0.0
H620 H 0.91309 0.2453 0.27818 0.0
C621 C 0.90321 0.25181 0.40198 0.0
C622 C 0.96214 0.33555 0.37645 0.0
C623 C 0.86613 0.2448 0.42707 0.0
C624 C 0.0508 0.33391 0.24241 0.0
C625 C 0.03914 0.32782 0.27271 0.0
C626 C 0.92758 0.2706 0.30544 0.0
C627 C 0.90008 0.29305 0.40234 0.0
C628 C 0.92647 0.29738 0.37101 0.0
C629 C 0.97473 0.31676 0.2794 0.0
C630 C 0.9618 0.30916 0.31086 0.0
H631 H 0.79293 0.34728 0.47406 0.0
H632 H 0.85912 0.36012 0.43076 0.0
H633 H 0.88224 0.23515 0.33005 0.0
H634 H 0.89186 0.31615 0.20792 0.0
H635 H 0.87183 0.30449 0.26029 0.0
C636 C 0.04552 0.32801 0.73063 0.0
C637 C 0.97877 0.336 0.7246 0.0
C638 C 0.06141 0.31833 0.75858 0.0
C639 C 0.00809 0.3328 0.84701 0.0
H640 H 0.11552 0.22712 0.82123 0.0
C641 C 0.15224 0.29141 0.94913 0.0
C642 C 0.14789 0.24691 0.94205 0.0
C643 C 0.12188 0.30437 0.92548 0.0
C644 C 0.08519 0.25662 0.82885 0.0
H645 H 0.87646 0.34095 0.74358 0.0
H646 H 0.90462 0.32492 0.79323 0.0
H647 H 0.08327 0.24575 0.77395 0.0
H648 H 0.10688 0.1816 0.90546 0.0
H649 H 0.05511 0.20395 0.86389 0.0
H650 H 0.01179 0.34414 0.90227 0.0
C651 C 0.9444 0.32586 0.77602 0.0
C652 C 0.06714 0.26742 0.80182 0.0
C653 C 0.92828 0.33471 0.74751 0.0
C654 C 0.11077 0.21614 0.91166 0.0
C655 C 0.08136 0.22888 0.88782 0.0
C656 C 0.02733 0.32242 0.8743 0.0
C657 C 0.0111 0.31716 0.78159 0.0
C658 C 0.02849 0.30561 0.81056 0.0
C659 C 0.08812 0.27279 0.89389 0.0
C660 C 0.06592 0.28409 0.86542 0.0
H661 H 0.08541 0.32853 0.71328 0.0
H662 H 0.11326 0.31194 0.76234 0.0
H663 H 0.97853 0.36257 0.8545 0.0
H664 H 0.18162 0.31568 0.97187 0.0
H665 H 0.12821 0.3384 0.93072 0.0
C666 C 0.0917 0.77046 0.60681 0.0
C667 C 0.13809 0.74459 0.57945 0.0
C668 C 0.06658 0.7556 0.63022 0.0
C669 C 0.11298 0.67831 0.66552 0.0
H670 H 0.9425 0.71742 0.71554 0.0
C671 C 0.06144 0.67167 0.79797 0.0
C672 C 0.99595 0.66363 0.80563 0.0
C673 C 0.07418 0.67842 0.76818 0.0
C674 C 0.98994 0.70554 0.70156 0.0
H675 H 0.19412 0.68256 0.55474 0.0
H676 H 0.1472 0.65514 0.5938 0.0
H677 H 0.96827 0.73111 0.66511 0.0
H678 H 0.89242 0.65589 0.78789 0.0
H679 H 0.91468 0.66608 0.73503 0.0
H680 H 0.13373 0.65122 0.70087 0.0
C681 C 0.1312 0.68753 0.59804 0.0
C682 C 0.00521 0.71404 0.67284 0.0
C683 C 0.15726 0.70283 0.57511 0.0
C684 C 0.94336 0.66238 0.78277 0.0
C685 C 0.95622 0.66843 0.75255 0.0
C686 C 0.0973 0.66921 0.69377 0.0
C687 C 0.08719 0.71435 0.62678 0.0
C688 C 0.06754 0.70131 0.65482 0.0
C689 C 0.0219 0.67655 0.74479 0.0
C690 C 0.03618 0.68351 0.7128 0.0
H691 H 0.07704 0.80313 0.6111 0.0
H692 H 0.03372 0.77768 0.65219 0.0
H693 H 0.16189 0.66839 0.6529 0.0
H694 H 0.10282 0.67348 0.81544 0.0
H695 H 0.12514 0.68576 0.76391 0.0
loop_
_geom_bond_atom_site_label_1
_geom_bond_atom_site_label_2
_geom_bond_distance
_geom_bond_site_symmetry_2
_ccdc_geom_bond_type
Gd0 N31 2.661 . S
Gd0 N37 2.601 . S
Gd0 O44 2.545 . S
Gd0 O45 2.606 . S
Gd0 O47 2.429 . S
Gd0 O48 2.545 . S
Gd0 O49 2.412 . S
Gd0 O51 2.362 1_556 S
Gd0 O52 2.324 . S
Gd0 C59 2.828 . S
Gd1 N10 2.661 . S
Gd1 N14 2.601 . S
Gd1 O45 2.362 1_554 S
Gd1 O46 2.324 . S
Gd1 O50 2.545 . S
Gd1 O51 2.606 . S
Gd1 O53 2.429 . S
Gd1 O54 2.545 . S
Gd1 O55 2.412 . S
Gd1 C68 2.828 . S
C2 C5 1.417 1_656 S
C2 C7 1.431 . S
C2 C8 1.412 . S
C3 C6 1.437 1_655 S
C3 C7 1.317 1_554 S
C3 H22 0.929 . S
C4 C5 1.426 . S
C4 C6 1.413 . S
C4 N14 1.359 . S
C5 C2 1.417 1_454 S
C5 C4 1.426 . S
C5 N10 1.350 . S
C6 C3 1.437 1_455 S
C6 C4 1.413 . S
C6 C16 1.391 . S
C7 C2 1.431 . S
C7 C3 1.317 1_556 S
C7 H18 0.930 . S
C8 C2 1.412 . S
C8 C9 1.355 . S
C8 H20 0.930 . S
C9 C8 1.355 . S
C9 C11 1.402 1_655 S
C9 H21 0.930 . S
N10 Gd1 2.661 . S
N10 C5 1.350 . S
N10 C11 1.307 1_554 S
C11 C9 1.402 1_455 S
C11 N10 1.307 1_556 S
C11 H12 0.930 . S
H12 C11 0.930 . S
C13 N14 1.334 . S
C13 C15 1.394 . S
C13 H17 0.930 . S
N14 Gd1 2.601 . S
N14 C4 1.359 . S
N14 C13 1.334 . S
C15 C13 1.394 . S
C15 C16 1.359 . S
C15 H27 0.930 . S
C16 C6 1.391 . S
C16 C15 1.359 . S
C16 H28 0.929 . S
H17 C13 0.930 . S
H18 C7 0.930 . S
H19 C36 0.930 . S
H20 C8 0.930 . S
H21 C9 0.930 . S
H22 C3 0.929 . S
H23 C41 0.930 . S
H24 C32 0.930 . S
H25 C33 0.930 . S
H26 C57 0.929 . S
H27 C15 0.930 . S
H28 C16 0.929 . S
H29 C58 0.930 . S
H30 C39 0.930 . S
N31 Gd0 2.661 . S
N31 C35 1.350 . S
N31 C36 1.307 1_556 S
C32 H24 0.930 . S
C32 C33 1.355 . S
C32 C34 1.412 . S
C33 H25 0.930 . S
C33 C32 1.355 . S
C33 C36 1.402 . S
C34 C32 1.412 . S
C34 C35 1.417 1_554 S
C34 C58 1.431 . S
C35 N31 1.350 . S
C35 C34 1.417 1_556 S
C35 C38 1.426 . S
C36 H19 0.930 . S
C36 N31 1.307 1_554 S
C36 C33 1.402 . S
N37 Gd0 2.601 . S
N37 C38 1.359 . S
N37 C41 1.334 . S
C38 C35 1.426 . S
C38 N37 1.359 . S
C38 C42 1.413 . S
C39 H30 0.930 . S
C39 C40 1.359 . S
C39 C41 1.394 . S
C40 C39 1.359 . S
C40 C42 1.391 . S
C40 H43 0.929 . S
C41 H23 0.930 . S
C41 N37 1.334 . S
C41 C39 1.394 . S
C42 C38 1.413 . S
C42 C40 1.391 . S
C42 C57 1.437 . S
H43 C40 0.929 . S
O44 Gd0 2.545 . S
O44 C59 1.258 . S
O45 Gd0 2.606 . S
O45 Gd1 2.362 1_556 S
O45 C56 1.284 . S
O46 Gd1 2.324 . S
O46 C66 1.254 1_554 S
O47 Gd0 2.429 . S
O47 C66 1.268 . S
O48 Gd0 2.545 . S
O48 C56 1.250 . S
O49 Gd0 2.412 . S
O49 C59 1.252 . S
O50 Gd1 2.545 . S
O50 C68 1.258 . S
O51 Gd0 2.362 1_554 S
O51 Gd1 2.606 . S
O51 C67 1.284 . S
O52 Gd0 2.324 . S
O52 C75 1.254 1_556 S
O53 Gd1 2.429 . S
O53 C75 1.268 . S
O54 Gd1 2.545 . S
O54 C67 1.250 . S
O55 Gd1 2.412 . S
O55 C68 1.252 . S
C56 O45 1.284 . S
C56 O48 1.250 . S
C57 H26 0.929 . S
C57 C42 1.437 . S
C57 C58 1.317 1_556 S
C58 H29 0.930 . S
C58 C34 1.431 . S
C58 C57 1.317 1_554 S
C59 Gd0 2.828 . S
C59 O44 1.258 . S
C59 O49 1.252 . S
C59 C60 1.497 . S
C60 C59 1.497 . S
C60 C61 1.395 . S
C60 C62 1.380 . S
C61 C60 1.395 . S
C61 C64 1.398 . S
C61 H76 0.930 . S
C62 C60 1.380 . S
C62 C63 1.391 . S
C62 H77 0.930 . S
C63 C62 1.391 . S
C63 C65 1.387 . S
C64 C61 1.398 . S
C64 C65 1.380 . S
C64 H78 0.930 . S
C65 C63 1.387 . S
C65 C64 1.380 . S
C65 H79 0.930 . S
C66 O46 1.254 1_556 S
C66 O47 1.268 . S
C67 O51 1.284 . S
C67 O54 1.250 . S
C68 Gd1 2.828 . S
C68 O50 1.258 . S
C68 O55 1.252 . S
C68 C69 1.497 . S
C69 C68 1.497 . S
C69 C70 1.395 . S
C69 C71 1.380 . S
C70 C69 1.395 . S
C70 C73 1.398 . S
C70 H80 0.930 . S
C71 C69 1.380 . S
C71 C72 1.391 . S
C71 H81 0.930 . S
C72 C71 1.391 . S
C72 C74 1.387 . S
C73 C70 1.398 . S
C73 C74 1.380 . S
C73 H82 0.930 . S
C74 C72 1.387 . S
C74 C73 1.380 . S
C74 H83 0.930 . S
C75 O52 1.254 1_554 S
C75 O53 1.268 . S
H76 C61 0.930 . S
H77 C62 0.930 . S
H78 C64 0.930 . S
H79 C65 0.930 . S
H80 C70 0.930 . S
H81 C71 0.930 . S
H82 C73 0.930 . S
H83 C74 0.930 . S
Gd84 N115 2.661 . S
Gd84 N121 2.601 . S
Gd84 O128 2.545 . S
Gd84 O129 2.606 . S
Gd84 O131 2.429 . S
Gd84 O132 2.545 . S
Gd84 O133 2.412 . S
Gd84 O135 2.362 1_556 S
Gd84 O136 2.324 . S
Gd84 C143 2.828 . S
Gd85 N94 2.661 . S
Gd85 N98 2.601 . S
Gd85 O129 2.362 1_554 S
Gd85 O130 2.324 . S
Gd85 O134 2.545 . S
Gd85 O135 2.606 . S
Gd85 O137 2.429 . S
Gd85 O138 2.545 . S
Gd85 O139 2.412 . S
Gd85 C152 2.828 . S
C86 C89 1.417 1_556 S
C86 C91 1.431 . S
C86 C92 1.412 . S
C87 C90 1.437 . S
C87 C91 1.317 1_554 S
C87 H106 0.929 . S
C88 C89 1.426 . S
C88 C90 1.413 . S
C88 N98 1.359 . S
C89 C86 1.417 1_554 S
C89 C88 1.426 . S
C89 N94 1.350 . S
C90 C87 1.437 . S
C90 C88 1.413 . S
C90 C100 1.391 . S
C91 C86 1.431 . S
C91 C87 1.317 1_556 S
C91 H102 0.930 . S
C92 C86 1.412 . S
C92 C93 1.355 . S
C92 H104 0.930 . S
C93 C92 1.355 . S
C93 C95 1.402 . S
C93 H105 0.930 . S
N94 Gd85 2.661 . S
N94 C89 1.350 . S
N94 C95 1.307 1_554 S
C95 C93 1.402 . S
C95 N94 1.307 1_556 S
C95 H96 0.930 . S
H96 C95 0.930 . S
C97 N98 1.334 . S
C97 C99 1.394 . S
C97 H101 0.930 . S
N98 Gd85 2.601 . S
N98 C88 1.359 . S
N98 C97 1.334 . S
C99 C97 1.394 . S
C99 C100 1.359 . S
C99 H111 0.930 . S
C100 C90 1.391 . S
C100 C99 1.359 . S
C100 H112 0.929 . S
H101 C97 0.930 . S
H102 C91 0.930 . S
H103 C120 0.930 . S
H104 C92 0.930 . S
H105 C93 0.930 . S
H106 C87 0.929 . S
H107 C125 0.930 . S
H108 C116 0.930 . S
H109 C117 0.930 . S
H110 C141 0.929 . S
H111 C99 0.930 . S
H112 C100 0.929 . S
H113 C142 0.930 . S
H114 C123 0.930 . S
N115 Gd84 2.661 . S
N115 C119 1.350 . S
N115 C120 1.307 1_556 S
C116 H108 0.930 . S
C116 C117 1.355 . S
C116 C118 1.412 . S
C117 H109 0.930 . S
C117 C116 1.355 . S
C117 C120 1.402 1_455 S
C118 C116 1.412 . S
C118 C119 1.417 1_454 S
C118 C142 1.431 . S
C119 N115 1.350 . S
C119 C118 1.417 1_656 S
C119 C122 1.426 . S
C120 H103 0.930 . S
C120 N115 1.307 1_554 S
C120 C117 1.402 1_655 S
N121 Gd84 2.601 . S
N121 C122 1.359 . S
N121 C125 1.334 . S
C122 C119 1.426 . S
C122 N121 1.359 . S
C122 C126 1.413 . S
C123 H114 0.930 . S
C123 C124 1.359 . S
C123 C125 1.394 . S
C124 C123 1.359 . S
C124 C126 1.391 . S
C124 H127 0.929 . S
C125 H107 0.930 . S
C125 N121 1.334 . S
C125 C123 1.394 . S
C126 C122 1.413 . S
C126 C124 1.391 . S
C126 C141 1.437 1_655 S
H127 C124 0.929 . S
O128 Gd84 2.545 . S
O128 C143 1.258 . S
O129 Gd84 2.606 . S
O129 Gd85 2.362 1_556 S
O129 C140 1.284 . S
O130 Gd85 2.324 . S
O130 C150 1.254 1_554 S
O131 Gd84 2.429 . S
O131 C150 1.268 . S
O132 Gd84 2.545 . S
O132 C140 1.250 . S
O133 Gd84 2.412 . S
O133 C143 1.252 . S
O134 Gd85 2.545 . S
O134 C152 1.258 . S
O135 Gd84 2.362 1_554 S
O135 Gd85 2.606 . S
O135 C151 1.284 . S
O136 Gd84 2.324 . S
O136 C159 1.254 1_556 S
O137 Gd85 2.429 . S
O137 C159 1.268 . S
O138 Gd85 2.545 . S
O138 C151 1.250 . S
O139 Gd85 2.412 . S
O139 C152 1.252 . S
C140 O129 1.284 . S
C140 O132 1.250 . S
C141 H110 0.929 . S
C141 C126 1.437 1_455 S
C141 C142 1.317 1_556 S
C142 H113 0.930 . S
C142 C118 1.431 . S
C142 C141 1.317 1_554 S
C143 Gd84 2.828 . S
C143 O128 1.258 . S
C143 O133 1.252 . S
C143 C144 1.497 . S
C144 C143 1.497 . S
C144 C145 1.395 . S
C144 C146 1.380 . S
C145 C144 1.395 . S
C145 C148 1.398 . S
C145 H160 0.930 . S
C146 C144 1.380 . S
C146 C147 1.391 . S
C146 H161 0.930 . S
C147 C146 1.391 . S
C147 C149 1.387 . S
C148 C145 1.398 . S
C148 C149 1.380 . S
C148 H162 0.930 . S
C149 C147 1.387 . S
C149 C148 1.380 . S
C149 H163 0.930 . S
C150 O130 1.254 1_556 S
C150 O131 1.268 . S
C151 O135 1.284 . S
C151 O138 1.250 . S
C152 Gd85 2.828 . S
C152 O134 1.258 . S
C152 O139 1.252 . S
C152 C153 1.497 . S
C153 C152 1.497 . S
C153 C154 1.395 . S
C153 C155 1.380 . S
C154 C153 1.395 . S
C154 C157 1.398 . S
C154 H164 0.930 . S
C155 C153 1.380 . S
C155 C156 1.391 . S
C155 H165 0.930 . S
C156 C155 1.391 . S
C156 C158 1.387 . S
C157 C154 1.398 . S
C157 C158 1.380 . S
C157 H166 0.930 . S
C158 C156 1.387 . S
C158 C157 1.380 . S
C158 H167 0.930 . S
C159 O136 1.254 1_554 S
C159 O137 1.268 . S
H160 C145 0.930 . S
H161 C146 0.930 . S
H162 C148 0.930 . S
H163 C149 0.930 . S
H164 C154 0.930 . S
H165 C155 0.930 . S
H166 C157 0.930 . S
H167 C158 0.930 . S
Gd168 N199 2.661 . S
Gd168 N205 2.601 . S
Gd168 O212 2.545 . S
Gd168 O213 2.606 . S
Gd168 O215 2.429 . S
Gd168 O216 2.545 . S
Gd168 O217 2.412 . S
Gd168 O219 2.362 . S
Gd168 O220 2.324 . S
Gd168 C227 2.828 . S
Gd169 N178 2.661 . S
Gd169 N182 2.601 . S
Gd169 O213 2.362 . S
Gd169 O214 2.324 . S
Gd169 O218 2.545 . S
Gd169 O219 2.606 . S
Gd169 O221 2.429 . S
Gd169 O222 2.545 . S
Gd169 O223 2.412 . S
Gd169 C236 2.828 . S
C170 C173 1.417 1_655 S
C170 C175 1.431 . S
C170 C176 1.412 . S
C171 C174 1.437 1_655 S
C171 C175 1.317 . S
C171 H190 0.929 . S
C172 C173 1.426 . S
C172 C174 1.413 . S
C172 N182 1.359 . S
C173 C170 1.417 1_455 S
C173 C172 1.426 . S
C173 N178 1.350 . S
C174 C171 1.437 1_455 S
C174 C172 1.413 . S
C174 C184 1.391 . S
C175 C170 1.431 . S
C175 C171 1.317 . S
C175 H186 0.930 . S
C176 C170 1.412 . S
C176 C177 1.355 . S
C176 H188 0.930 . S
C177 C176 1.355 . S
C177 C179 1.402 1_655 S
C177 H189 0.930 . S
N178 Gd169 2.661 . S
N178 C173 1.350 . S
N178 C179 1.307 . S
C179 C177 1.402 1_455 S
C179 N178 1.307 . S
C179 H180 0.930 . S
H180 C179 0.930 . S
C181 N182 1.334 . S
C181 C183 1.394 . S
C181 H185 0.930 . S
N182 Gd169 2.601 . S
N182 C172 1.359 . S
N182 C181 1.334 . S
C183 C181 1.394 . S
C183 C184 1.359 . S
C183 H195 0.930 . S
C184 C174 1.391 . S
C184 C183 1.359 . S
C184 H196 0.929 . S
H185 C181 0.930 . S
H186 C175 0.930 . S
H187 C204 0.930 . S
H188 C176 0.930 . S
H189 C177 0.930 . S
H190 C171 0.929 . S
H191 C209 0.930 . S
H192 C200 0.930 . S
H193 C201 0.930 . S
H194 C225 0.929 . S
H195 C183 0.930 . S
H196 C184 0.929 . S
H197 C226 0.930 . S
H198 C207 0.930 . S
N199 Gd168 2.661 . S
N199 C203 1.350 . S
N199 C204 1.307 . S
C200 H192 0.930 . S
C200 C201 1.355 . S
C200 C202 1.412 . S
C201 H193 0.930 . S
C201 C200 1.355 . S
C201 C204 1.402 . S
C202 C200 1.412 . S
C202 C203 1.417 . S
C202 C226 1.431 . S
C203 N199 1.350 . S
C203 C202 1.417 . S
C203 C206 1.426 . S
C204 H187 0.930 . S
C204 N199 1.307 . S
C204 C201 1.402 . S
N205 Gd168 2.601 . S
N205 C206 1.359 . S
N205 C209 1.334 . S
C206 C203 1.426 . S
C206 N205 1.359 . S
C206 C210 1.413 . S
C207 H198 0.930 . S
C207 C208 1.359 . S
C207 C209 1.394 . S
C208 C207 1.359 . S
C208 C210 1.391 . S
C208 H211 0.929 . S
C209 H191 0.930 . S
C209 N205 1.334 . S
C209 C207 1.394 . S
C210 C206 1.413 . S
C210 C208 1.391 . S
C210 C225 1.437 . S
H211 C208 0.929 . S
O212 Gd168 2.545 . S
O212 C227 1.258 . S
O213 Gd168 2.606 . S
O213 Gd169 2.362 . S
O213 C224 1.284 . S
O214 Gd169 2.324 . S
O214 C234 1.254 . S
O215 Gd168 2.429 . S
O215 C234 1.268 . S
O216 Gd168 2.545 . S
O216 C224 1.250 . S
O217 Gd168 2.412 . S
O217 C227 1.252 . S
O218 Gd169 2.545 . S
O218 C236 1.258 . S
O219 Gd168 2.362 . S
O219 Gd169 2.606 . S
O219 C235 1.284 . S
O220 Gd168 2.324 . S
O220 C243 1.254 . S
O221 Gd169 2.429 . S
O221 C243 1.268 . S
O222 Gd169 2.545 . S
O222 C235 1.250 . S
O223 Gd169 2.412 . S
O223 C236 1.252 . S
C224 O213 1.284 . S
C224 O216 1.250 . S
C225 H194 0.929 . S
C225 C210 1.437 . S
C225 C226 1.317 . S
C226 H197 0.930 . S
C226 C202 1.431 . S
C226 C225 1.317 . S
C227 Gd168 2.828 . S
C227 O212 1.258 . S
C227 O217 1.252 . S
C227 C228 1.497 . S
C228 C227 1.497 . S
C228 C229 1.395 . S
C228 C230 1.380 . S
C229 C228 1.395 . S
C229 C232 1.398 . S
C229 H244 0.930 . S
C230 C228 1.380 . S
C230 C231 1.391 . S
C230 H245 0.930 . S
C231 C230 1.391 . S
C231 C233 1.387 . S
C232 C229 1.398 . S
C232 C233 1.380 . S
C232 H246 0.930 . S
C233 C231 1.387 . S
C233 C232 1.380 . S
C233 H247 0.930 . S
C234 O214 1.254 . S
C234 O215 1.268 . S
C235 O219 1.284 . S
C235 O222 1.250 . S
C236 Gd169 2.828 . S
C236 O218 1.258 . S
C236 O223 1.252 . S
C236 C237 1.497 . S
C237 C236 1.497 . S
C237 C238 1.395 . S
C237 C239 1.380 . S
C238 C237 1.395 . S
C238 C241 1.398 . S
C238 H248 0.930 . S
C239 C237 1.380 . S
C239 C240 1.391 . S
C239 H249 0.930 . S
C240 C239 1.391 . S
C240 C242 1.387 . S
C241 C238 1.398 . S
C241 C242 1.380 . S
C241 H250 0.930 . S
C242 C240 1.387 . S
C242 C241 1.380 . S
C242 H251 0.930 . S
C243 O220 1.254 . S
C243 O221 1.268 . S
H244 C229 0.930 . S
H245 C230 0.930 . S
H246 C232 0.930 . S
H247 C233 0.930 . S
H248 C238 0.930 . S
H249 C239 0.930 . S
H250 C241 0.930 . S
H251 C242 0.930 . S
Gd252 N283 2.661 . S
Gd252 N289 2.601 . S
Gd252 O296 2.545 . S
Gd252 O297 2.606 . S
Gd252 O299 2.429 . S
Gd252 O300 2.545 . S
Gd252 O301 2.412 . S
Gd252 O303 2.362 . S
Gd252 O304 2.324 . S
Gd252 C311 2.828 . S
Gd253 N262 2.661 . S
Gd253 N266 2.601 . S
Gd253 O297 2.362 . S
Gd253 O298 2.324 . S
Gd253 O302 2.545 . S
Gd253 O303 2.606 . S
Gd253 O305 2.429 . S
Gd253 O306 2.545 . S
Gd253 O307 2.412 . S
Gd253 C320 2.828 . S
C254 C257 1.417 . S
C254 C259 1.431 . S
C254 C260 1.412 . S
C255 C258 1.437 . S
C255 C259 1.317 . S
C255 H274 0.929 . S
C256 C257 1.426 . S
C256 C258 1.413 . S
C256 N266 1.359 . S
C257 C254 1.417 . S
C257 C256 1.426 . S
C257 N262 1.350 . S
C258 C255 1.437 . S
C258 C256 1.413 . S
C258 C268 1.391 . S
C259 C254 1.431 . S
C259 C255 1.317 . S
C259 H270 0.930 . S
C260 C254 1.412 . S
C260 C261 1.355 . S
C260 H272 0.930 . S
C261 C260 1.355 . S
C261 C263 1.402 . S
C261 H273 0.930 . S
N262 Gd253 2.661 . S
N262 C257 1.350 . S
N262 C263 1.307 . S
C263 C261 1.402 . S
C263 N262 1.307 . S
C263 H264 0.930 . S
H264 C263 0.930 . S
C265 N266 1.334 . S
C265 C267 1.394 . S
C265 H269 0.930 . S
N266 Gd253 2.601 . S
N266 C256 1.359 . S
N266 C265 1.334 . S
C267 C265 1.394 . S
C267 C268 1.359 . S
C267 H279 0.930 . S
C268 C258 1.391 . S
C268 C267 1.359 . S
C268 H280 0.929 . S
H269 C265 0.930 . S
H270 C259 0.930 . S
H271 C288 0.930 . S
H272 C260 0.930 . S
H273 C261 0.930 . S
H274 C255 0.929 . S
H275 C293 0.930 . S
H276 C284 0.930 . S
H277 C285 0.930 . S
H278 C309 0.929 . S
H279 C267 0.930 . S
H280 C268 0.929 . S
H281 C310 0.930 . S
H282 C291 0.930 . S
N283 Gd252 2.661 . S
N283 C287 1.350 . S
N283 C288 1.307 . S
C284 H276 0.930 . S
C284 C285 1.355 . S
C284 C286 1.412 . S
C285 H277 0.930 . S
C285 C284 1.355 . S
C285 C288 1.402 1_455 S
C286 C284 1.412 . S
C286 C287 1.417 1_455 S
C286 C310 1.431 . S
C287 N283 1.350 . S
C287 C286 1.417 1_655 S
C287 C290 1.426 . S
C288 H271 0.930 . S
C288 N283 1.307 . S
C288 C285 1.402 1_655 S
N289 Gd252 2.601 . S
N289 C290 1.359 . S
N289 C293 1.334 . S
C290 C287 1.426 . S
C290 N289 1.359 . S
C290 C294 1.413 . S
C291 H282 0.930 . S
C291 C292 1.359 . S
C291 C293 1.394 . S
C292 C291 1.359 . S
C292 C294 1.391 . S
C292 H295 0.929 . S
C293 H275 0.930 . S
C293 N289 1.334 . S
C293 C291 1.394 . S
C294 C290 1.413 . S
C294 C292 1.391 . S
C294 C309 1.437 1_655 S
H295 C292 0.929 . S
O296 Gd252 2.545 . S
O296 C311 1.258 . S
O297 Gd252 2.606 . S
O297 Gd253 2.362 . S
O297 C308 1.284 . S
O298 Gd253 2.324 . S
O298 C318 1.254 . S
O299 Gd252 2.429 . S
O299 C318 1.268 . S
O300 Gd252 2.545 . S
O300 C308 1.250 . S
O301 Gd252 2.412 . S
O301 C311 1.252 . S
O302 Gd253 2.545 . S
O302 C320 1.258 . S
O303 Gd252 2.362 . S
O303 Gd253 2.606 . S
O303 C319 1.284 . S
O304 Gd252 2.324 . S
O304 C327 1.254 . S
O305 Gd253 2.429 . S
O305 C327 1.268 . S
O306 Gd253 2.545 . S
O306 C319 1.250 . S
O307 Gd253 2.412 . S
O307 C320 1.252 . S
C308 O297 1.284 . S
C308 O300 1.250 . S
C309 H278 0.929 . S
C309 C294 1.437 1_455 S
C309 C310 1.317 . S
C310 H281 0.930 . S
C310 C286 1.431 . S
C310 C309 1.317 . S
C311 Gd252 2.828 . S
C311 O296 1.258 . S
C311 O301 1.252 . S
C311 C312 1.497 . S
C312 C311 1.497 . S
C312 C313 1.395 . S
C312 C314 1.380 . S
C313 C312 1.395 . S
C313 C316 1.398 . S
C313 H328 0.930 . S
C314 C312 1.380 . S
C314 C315 1.391 . S
C314 H329 0.930 . S
C315 C314 1.391 . S
C315 C317 1.387 . S
C316 C313 1.398 . S
C316 C317 1.380 . S
C316 H330 0.930 . S
C317 C315 1.387 . S
C317 C316 1.380 . S
C317 H331 0.930 . S
C318 O298 1.254 . S
C318 O299 1.268 . S
C319 O303 1.284 . S
C319 O306 1.250 . S
C320 Gd253 2.828 . S
C320 O302 1.258 . S
C320 O307 1.252 . S
C320 C321 1.497 . S
C321 C320 1.497 . S
C321 C322 1.395 . S
C321 C323 1.380 . S
C322 C321 1.395 . S
C322 C325 1.398 . S
C322 H332 0.930 . S
C323 C321 1.380 . S
C323 C324 1.391 . S
C323 H333 0.930 . S
C324 C323 1.391 . S
C324 C326 1.387 . S
C325 C322 1.398 . S
C325 C326 1.380 . S
C325 H334 0.930 . S
C326 C324 1.387 . S
C326 C325 1.380 . S
C326 H335 0.930 . S
C327 O304 1.254 . S
C327 O305 1.268 . S
H328 C313 0.930 . S
H329 C314 0.930 . S
H330 C316 0.930 . S
H331 C317 0.930 . S
H332 C322 0.930 . S
H333 C323 0.930 . S
H334 C325 0.930 . S
H335 C326 0.930 . S
C336 C337 1.349 . S
C336 C338 1.327 . S
C336 H361 0.950 . S
C337 C336 1.349 . S
C337 C353 1.349 1_556 S
C338 C336 1.327 . S
C338 C357 1.460 . S
C338 H362 0.950 . S
C339 C356 1.574 . S
C339 C358 1.358 1_554 S
C339 H363 0.949 . S
H340 C344 0.949 . S
C341 C342 1.349 . S
C341 C343 1.327 . S
C341 H364 0.950 . S
C342 C341 1.349 . S
C342 C354 1.349 1_554 S
C343 C341 1.327 . S
C343 C359 1.429 . S
C343 H365 0.950 . S
C344 H340 0.949 . S
C344 C352 1.574 . S
C344 C360 1.350 1_556 S
H345 C353 0.950 . S
H346 C351 0.950 . S
H347 C352 0.949 . S
H348 C354 0.950 . S
H349 C355 0.950 . S
H350 C356 0.949 . S
C351 H346 0.950 . S
C351 C353 1.327 . S
C351 C357 1.412 1_554 S
C352 C344 1.574 . S
C352 H347 0.949 . S
C352 C358 1.375 . S
C353 C337 1.349 1_554 S
C353 H345 0.950 . S
C353 C351 1.327 . S
C354 C342 1.349 1_556 S
C354 H348 0.950 . S
C354 C355 1.327 . S
C355 H349 0.950 . S
C355 C354 1.327 . S
C355 C359 1.429 1_556 S
C356 C339 1.574 . S
C356 H350 0.949 . S
C356 C360 1.381 . S
C357 C338 1.460 . S
C357 C351 1.412 1_556 S
C357 C358 1.514 . S
C358 C339 1.358 1_556 S
C358 C352 1.375 . S
C358 C357 1.514 . S
C359 C343 1.429 . S
C359 C355 1.429 1_554 S
C359 C360 1.531 . S
C360 C344 1.350 1_554 S
C360 C356 1.381 . S
C360 C359 1.531 . S
H361 C336 0.950 . S
H362 C338 0.950 . S
H363 C339 0.949 . S
H364 C341 0.950 . S
H365 C343 0.950 . S
C366 C367 1.349 . S
C366 C368 1.327 . S
C366 H391 0.950 . S
C367 C366 1.349 . S
C367 C383 1.349 . S
C368 C366 1.327 . S
C368 C387 1.429 . S
C368 H392 0.950 . S
C369 C386 1.574 . S
C369 C388 1.368 . S
C369 H393 0.949 . S
H370 C374 0.949 . S
C371 C372 1.349 . S
C371 C373 1.327 . S
C371 H394 0.950 . S
C372 C371 1.349 . S
C372 C384 1.349 . S
C373 C371 1.327 . S
C373 C389 1.429 . S
C373 H395 0.950 . S
C374 H370 0.949 . S
C374 C382 1.574 . S
C374 C390 1.368 . S
H375 C383 0.950 . S
H376 C381 0.950 . S
H377 C382 0.949 . S
H378 C384 0.950 . S
H379 C385 0.950 . S
H380 C386 0.949 . S
C381 H376 0.950 . S
C381 C383 1.327 . S
C381 C387 1.429 . S
C382 C374 1.574 . S
C382 H377 0.949 . S
C382 C388 1.368 . S
C383 C367 1.349 . S
C383 H375 0.950 . S
C383 C381 1.327 . S
C384 C372 1.349 . S
C384 H378 0.950 . S
C384 C385 1.327 . S
C385 H379 0.950 . S
C385 C384 1.327 . S
C385 C389 1.429 . S
C386 C369 1.574 . S
C386 H380 0.949 . S
C386 C390 1.368 . S
C387 C368 1.429 . S
C387 C381 1.429 . S
C387 C388 1.523 . S
C388 C369 1.368 . S
C388 C382 1.368 . S
C388 C387 1.523 . S
C389 C373 1.429 . S
C389 C385 1.429 . S
C389 C390 1.523 . S
C390 C374 1.368 . S
C390 C386 1.368 . S
C390 C389 1.523 . S
H391 C366 0.950 . S
H392 C368 0.950 . S
H393 C369 0.949 . S
H394 C371 0.950 . S
H395 C373 0.950 . S
C396 C397 1.349 . S
C396 C398 1.327 . S
C396 H421 0.950 . S
C397 C396 1.349 . S
C397 C413 1.349 1_556 S
C398 C396 1.327 . S
C398 C417 1.441 . S
C398 H422 0.950 . S
C399 C416 1.574 . S
C399 C418 1.365 1_654 S
C399 H423 0.949 . S
H400 C404 0.949 . S
C401 C402 1.349 . S
C401 C403 1.327 . S
C401 H424 0.950 . S
C402 C401 1.349 . S
C402 C414 1.349 1_554 S
C403 C401 1.327 . S
C403 C419 1.429 . S
C403 H425 0.950 . S
C404 H400 0.949 . S
C404 C412 1.574 . S
C404 C420 1.362 1_456 S
H405 C413 0.950 . S
H406 C411 0.950 . S
H407 C412 0.949 . S
H408 C414 0.950 . S
H409 C415 0.950 . S
H410 C416 0.949 . S
C411 H406 0.950 . S
C411 C413 1.327 . S
C411 C417 1.431 1_554 S
C412 C404 1.574 . S
C412 H407 0.949 . S
C412 C418 1.368 1_565 S
C413 C397 1.349 1_554 S
C413 H405 0.950 . S
C413 C411 1.327 . S
C414 C402 1.349 1_556 S
C414 H408 0.950 . S
C414 C415 1.327 . S
C415 H409 0.950 . S
C415 C414 1.327 . S
C415 C419 1.429 1_556 S
C416 C399 1.574 . S
C416 H410 0.949 . S
C416 C420 1.368 1_545 S
C417 C398 1.441 . S
C417 C411 1.431 1_556 S
C417 C418 1.514 . S
C418 C399 1.365 1_456 S
C418 C412 1.368 1_545 S
C418 C417 1.514 . S
C419 C403 1.429 . S
C419 C415 1.429 1_554 S
C419 C420 1.531 . S
C420 C404 1.362 1_654 S
C420 C416 1.368 1_565 S
C420 C419 1.531 . S
H421 C396 0.950 . S
H422 C398 0.950 . S
H423 C399 0.949 . S
H424 C401 0.950 . S
H425 C403 0.950 . S
C426 C427 1.349 . S
C426 C428 1.327 . S
C426 H451 0.950 . S
C427 C426 1.349 . S
C427 C443 1.349 . S
C428 C426 1.327 . S
C428 C447 1.429 . S
C428 H452 0.950 . S
C429 C446 1.574 1_655 S
C429 C448 1.368 . S
C429 H453 0.949 . S
H430 C434 0.949 . S
C431 C432 1.349 . S
C431 C433 1.327 . S
C431 H454 0.950 . S
C432 C431 1.349 . S
C432 C444 1.349 . S
C433 C431 1.327 . S
C433 C449 1.429 . S
C433 H455 0.950 . S
C434 H430 0.949 . S
C434 C442 1.574 1_455 S
C434 C450 1.368 . S
H435 C443 0.950 . S
H436 C441 0.950 . S
H437 C442 0.949 . S
H438 C444 0.950 . S
H439 C445 0.950 . S
H440 C446 0.949 . S
C441 H436 0.950 . S
C441 C443 1.327 . S
C441 C447 1.429 . S
C442 C434 1.574 1_655 S
C442 H437 0.949 . S
C442 C448 1.368 1_565 S
C443 C427 1.349 . S
C443 H435 0.950 . S
C443 C441 1.327 . S
C444 C432 1.349 . S
C444 H438 0.950 . S
C444 C445 1.327 . S
C445 H439 0.950 . S
C445 C444 1.327 . S
C445 C449 1.429 . S
C446 C429 1.574 1_455 S
C446 H440 0.949 . S
C446 C450 1.368 1_545 S
C447 C428 1.429 . S
C447 C441 1.429 . S
C447 C448 1.523 . S
C448 C429 1.368 . S
C448 C442 1.368 1_545 S
C448 C447 1.523 . S
C449 C433 1.429 . S
C449 C445 1.429 . S
C449 C450 1.523 . S
C450 C434 1.368 . S
C450 C446 1.368 1_565 S
C450 C449 1.523 . S
H451 C426 0.950 . S
H452 C428 0.950 . S
H453 C429 0.949 . S
H454 C431 0.950 . S
H455 C433 0.950 . S
C456 C457 1.349 . S
C456 C458 1.327 . S
C456 H481 0.950 . S
C457 C456 1.349 . S
C457 C473 1.349 . S
C458 C456 1.327 . S
C458 C477 1.429 . S
C458 H482 0.950 . S
C459 C476 1.574 . S
C459 C478 1.368 . S
C459 H483 0.949 . S
H460 C464 0.949 . S
C461 C462 1.349 . S
C461 C463 1.327 . S
C461 H484 0.950 . S
C462 C461 1.349 . S
C462 C474 1.349 . S
C463 C461 1.327 . S
C463 C479 1.429 . S
C463 H485 0.950 . S
C464 H460 0.949 . S
C464 C472 1.574 . S
C464 C480 1.368 . S
H465 C473 0.950 . S
H466 C471 0.950 . S
H467 C472 0.949 . S
H468 C474 0.950 . S
H469 C475 0.950 . S
H470 C476 0.949 . S
C471 H466 0.950 . S
C471 C473 1.327 . S
C471 C477 1.429 . S
C472 C464 1.574 . S
C472 H467 0.949 . S
C472 C478 1.368 . S
C473 C457 1.349 . S
C473 H465 0.950 . S
C473 C471 1.327 . S
C474 C462 1.349 . S
C474 H468 0.950 . S
C474 C475 1.327 . S
C475 H469 0.950 . S
C475 C474 1.327 . S
C475 C479 1.429 . S
C476 C459 1.574 . S
C476 H470 0.949 . S
C476 C480 1.368 . S
C477 C458 1.429 . S
C477 C471 1.429 . S
C477 C478 1.523 . S
C478 C459 1.368 . S
C478 C472 1.368 . S
C478 C477 1.523 . S
C479 C463 1.429 . S
C479 C475 1.429 . S
C479 C480 1.523 . S
C480 C464 1.368 . S
C480 C476 1.368 . S
C480 C479 1.523 . S
H481 C456 0.950 . S
H482 C458 0.950 . S
H483 C459 0.949 . S
H484 C461 0.950 . S
H485 C463 0.950 . S
C486 C487 1.349 . S
C486 C488 1.327 . S
C486 H511 0.950 . S
C487 C486 1.349 . S
C487 C503 1.349 . S
C488 C486 1.327 . S
C488 C507 1.429 . S
C488 H512 0.950 . S
C489 C506 1.574 . S
C489 C508 1.368 . S
C489 H513 0.949 . S
H490 C494 0.949 . S
C491 C492 1.349 . S
C491 C493 1.327 . S
C491 H514 0.950 . S
C492 C491 1.349 . S
C492 C504 1.349 . S
C493 C491 1.327 . S
C493 C509 1.429 . S
C493 H515 0.950 . S
C494 H490 0.949 . S
C494 C502 1.574 . S
C494 C510 1.368 . S
H495 C503 0.950 . S
H496 C501 0.950 . S
H497 C502 0.949 . S
H498 C504 0.950 . S
H499 C505 0.950 . S
H500 C506 0.949 . S
C501 H496 0.950 . S
C501 C503 1.327 . S
C501 C507 1.429 . S
C502 C494 1.574 . S
C502 H497 0.949 . S
C502 C508 1.368 . S
C503 C487 1.349 . S
C503 H495 0.950 . S
C503 C501 1.327 . S
C504 C492 1.349 . S
C504 H498 0.950 . S
C504 C505 1.327 . S
C505 H499 0.950 . S
C505 C504 1.327 . S
C505 C509 1.429 . S
C506 C489 1.574 . S
C506 H500 0.949 . S
C506 C510 1.368 . S
C507 C488 1.429 . S
C507 C501 1.429 . S
C507 C508 1.523 . S
C508 C489 1.368 . S
C508 C502 1.368 . S
C508 C507 1.523 . S
C509 C493 1.429 . S
C509 C505 1.429 . S
C509 C510 1.523 . S
C510 C494 1.368 . S
C510 C506 1.368 . S
C510 C509 1.523 . S
H511 C486 0.950 . S
H512 C488 0.950 . S
H513 C489 0.949 . S
H514 C491 0.950 . S
H515 C493 0.950 . S
C516 C517 1.349 . S
C516 C518 1.327 . S
C516 H541 0.950 . S
C517 C516 1.349 . S
C517 C533 1.349 . S
C518 C516 1.327 . S
C518 C537 1.429 . S
C518 H542 0.950 . S
C519 C536 1.574 . S
C519 C538 1.368 . S
C519 H543 0.949 . S
H520 C524 0.949 . S
C521 C522 1.349 . S
C521 C523 1.327 . S
C521 H544 0.950 . S
C522 C521 1.349 . S
C522 C534 1.349 . S
C523 C521 1.327 . S
C523 C539 1.429 . S
C523 H545 0.950 . S
C524 H520 0.949 . S
C524 C532 1.574 . S
C524 C540 1.368 . S
H525 C533 0.950 . S
H526 C531 0.950 . S
H527 C532 0.949 . S
H528 C534 0.950 . S
H529 C535 0.950 . S
H530 C536 0.949 . S
C531 H526 0.950 . S
C531 C533 1.327 . S
C531 C537 1.429 . S
C532 C524 1.574 . S
C532 H527 0.949 . S
C532 C538 1.368 . S
C533 C517 1.349 . S
C533 H525 0.950 . S
C533 C531 1.327 . S
C534 C522 1.349 . S
C534 H528 0.950 . S
C534 C535 1.327 . S
C535 H529 0.950 . S
C535 C534 1.327 . S
C535 C539 1.429 . S
C536 C519 1.574 . S
C536 H530 0.949 . S
C536 C540 1.368 . S
C537 C518 1.429 . S
C537 C531 1.429 . S
C537 C538 1.523 . S
C538 C519 1.368 . S
C538 C532 1.368 . S
C538 C537 1.523 . S
C539 C523 1.429 . S
C539 C535 1.429 . S
C539 C540 1.523 . S
C540 C524 1.368 . S
C540 C536 1.368 . S
C540 C539 1.523 . S
H541 C516 0.950 . S
H542 C518 0.950 . S
H543 C519 0.949 . S
H544 C521 0.950 . S
H545 C523 0.950 . S
C546 C547 1.349 . S
C546 C548 1.327 . S
C546 H571 0.950 . S
C547 C546 1.349 . S
C547 C563 1.349 . S
C548 C546 1.327 . S
C548 C567 1.429 . S
C548 H572 0.950 . S
C549 C566 1.574 . S
C549 C568 1.368 . S
C549 H573 0.949 . S
H550 C554 0.949 . S
C551 C552 1.349 . S
C551 C553 1.327 . S
C551 H574 0.950 . S
C552 C551 1.349 . S
C552 C564 1.349 . S
C553 C551 1.327 . S
C553 C569 1.429 . S
C553 H575 0.950 . S
C554 H550 0.949 . S
C554 C562 1.574 . S
C554 C570 1.368 . S
H555 C563 0.950 . S
H556 C561 0.950 . S
H557 C562 0.949 . S
H558 C564 0.950 . S
H559 C565 0.950 . S
H560 C566 0.949 . S
C561 H556 0.950 . S
C561 C563 1.327 . S
C561 C567 1.429 . S
C562 C554 1.574 . S
C562 H557 0.949 . S
C562 C568 1.368 . S
C563 C547 1.349 . S
C563 H555 0.950 . S
C563 C561 1.327 . S
C564 C552 1.349 . S
C564 H558 0.950 . S
C564 C565 1.327 . S
C565 H559 0.950 . S
C565 C564 1.327 . S
C565 C569 1.429 . S
C566 C549 1.574 . S
C566 H560 0.949 . S
C566 C570 1.368 . S
C567 C548 1.429 . S
C567 C561 1.429 . S
C567 C568 1.523 . S
C568 C549 1.368 . S
C568 C562 1.368 . S
C568 C567 1.523 . S
C569 C553 1.429 . S
C569 C565 1.429 . S
C569 C570 1.523 . S
C570 C554 1.368 . S
C570 C566 1.368 . S
C570 C569 1.523 . S
H571 C546 0.950 . S
H572 C548 0.950 . S
H573 C549 0.949 . S
H574 C551 0.950 . S
H575 C553 0.950 . S
C576 C577 1.349 . S
C576 C578 1.327 . S
C576 H601 0.950 . S
C577 C576 1.349 . S
C577 C593 1.349 . S
C578 C576 1.327 . S
C578 C597 1.429 . S
C578 H602 0.950 . S
C579 C596 1.574 . S
C579 C598 1.368 . S
C579 H603 0.949 . S
H580 C584 0.949 . S
C581 C582 1.349 1_655 S
C581 C583 1.327 . S
C581 H604 0.950 . S
C582 C581 1.349 1_455 S
C582 C594 1.349 . S
C583 C581 1.327 . S
C583 C599 1.429 . S
C583 H605 0.950 . S
C584 H580 0.949 . S
C584 C592 1.574 . S
C584 C600 1.368 . S
H585 C593 0.950 . S
H586 C591 0.950 . S
H587 C592 0.949 . S
H588 C594 0.950 . S
H589 C595 0.950 . S
H590 C596 0.949 . S
C591 H586 0.950 . S
C591 C593 1.327 . S
C591 C597 1.429 . S
C592 C584 1.574 . S
C592 H587 0.949 . S
C592 C598 1.368 . S
C593 C577 1.349 . S
C593 H585 0.950 . S
C593 C591 1.327 . S
C594 C582 1.349 . S
C594 H588 0.950 . S
C594 C595 1.327 . S
C595 H589 0.950 . S
C595 C594 1.327 . S
C595 C599 1.429 1_455 S
C596 C579 1.574 . S
C596 H590 0.949 . S
C596 C600 1.368 . S
C597 C578 1.429 . S
C597 C591 1.429 . S
C597 C598 1.523 . S
C598 C579 1.368 . S
C598 C592 1.368 . S
C598 C597 1.523 . S
C599 C583 1.429 . S
C599 C595 1.429 1_655 S
C599 C600 1.523 . S
C600 C584 1.368 . S
C600 C596 1.368 . S
C600 C599 1.523 . S
H601 C576 0.950 . S
H602 C578 0.950 . S
H603 C579 0.949 . S
H604 C581 0.950 . S
H605 C583 0.950 . S
C606 C607 1.349 . S
C606 C608 1.327 . S
C606 H631 0.950 . S
C607 C606 1.349 . S
C607 C623 1.349 . S
C608 C606 1.327 . S
C608 C627 1.429 . S
C608 H632 0.950 . S
C609 C626 1.574 . S
C609 C628 1.368 . S
C609 H633 0.949 . S
H610 C614 0.949 . S
C611 C612 1.349 1_655 S
C611 C613 1.327 . S
C611 H634 0.950 . S
C612 C611 1.349 1_455 S
C612 C624 1.349 . S
C613 C611 1.327 . S
C613 C629 1.429 . S
C613 H635 0.950 . S
C614 H610 0.949 . S
C614 C622 1.574 . S
C614 C630 1.368 . S
H615 C623 0.950 . S
H616 C621 0.950 . S
H617 C622 0.949 . S
H618 C624 0.950 . S
H619 C625 0.950 . S
H620 C626 0.949 . S
C621 H616 0.950 . S
C621 C623 1.327 . S
C621 C627 1.429 . S
C622 C614 1.574 . S
C622 H617 0.949 . S
C622 C628 1.368 . S
C623 C607 1.349 . S
C623 H615 0.950 . S
C623 C621 1.327 . S
C624 C612 1.349 . S
C624 H618 0.950 . S
C624 C625 1.327 . S
C625 H619 0.950 . S
C625 C624 1.327 . S
C625 C629 1.429 1_455 S
C626 C609 1.574 . S
C626 H620 0.949 . S
C626 C630 1.368 . S
C627 C608 1.429 . S
C627 C621 1.429 . S
C627 C628 1.523 . S
C628 C609 1.368 . S
C628 C622 1.368 . S
C628 C627 1.523 . S
C629 C613 1.429 . S
C629 C625 1.429 1_655 S
C629 C630 1.523 . S
C630 C614 1.368 . S
C630 C626 1.368 . S
C630 C629 1.523 . S
H631 C606 0.950 . S
H632 C608 0.950 . S
H633 C609 0.949 . S
H634 C611 0.950 . S
H635 C613 0.950 . S
C636 C637 1.349 1_455 S
C636 C638 1.327 . S
C636 H661 0.950 . S
C637 C636 1.349 1_655 S
C637 C653 1.349 . S
C638 C636 1.327 . S
C638 C657 1.429 . S
C638 H662 0.950 . S
C639 C656 1.574 . S
C639 C658 1.368 . S
C639 H663 0.949 1_455 S
H640 C644 0.949 . S
C641 C642 1.349 . S
C641 C643 1.327 . S
C641 H664 0.950 . S
C642 C641 1.349 . S
C642 C654 1.349 . S
C643 C641 1.327 . S
C643 C659 1.429 . S
C643 H665 0.950 . S
C644 H640 0.949 . S
C644 C652 1.574 . S
C644 C660 1.368 . S
H645 C653 0.950 . S
H646 C651 0.950 . S
H647 C652 0.949 . S
H648 C654 0.950 . S
H649 C655 0.950 . S
H650 C656 0.949 . S
C651 H646 0.950 . S
C651 C653 1.327 . S
C651 C657 1.429 1_655 S
C652 C644 1.574 . S
C652 H647 0.949 . S
C652 C658 1.368 . S
C653 C637 1.349 . S
C653 H645 0.950 . S
C653 C651 1.327 . S
C654 C642 1.349 . S
C654 H648 0.950 . S
C654 C655 1.327 . S
C655 H649 0.950 . S
C655 C654 1.327 . S
C655 C659 1.429 . S
C656 C639 1.574 . S
C656 H650 0.949 . S
C656 C660 1.368 . S
C657 C638 1.429 . S
C657 C651 1.429 1_455 S
C657 C658 1.523 . S
C658 C639 1.368 . S
C658 C652 1.368 . S
C658 C657 1.523 . S
C659 C643 1.429 . S
C659 C655 1.429 . S
C659 C660 1.523 . S
C660 C644 1.368 . S
C660 C656 1.368 . S
C660 C659 1.523 . S
H661 C636 0.950 . S
H662 C638 0.950 . S
H663 C639 0.949 1_655 S
H664 C641 0.950 . S
H665 C643 0.950 . S
C666 C667 1.349 . S
C666 C668 1.327 . S
C666 H691 0.950 . S
C667 C666 1.349 . S
C667 C683 1.349 . S
C668 C666 1.327 . S
C668 C687 1.429 . S
C668 H692 0.950 . S
C669 C686 1.574 . S
C669 C688 1.368 . S
C669 H693 0.949 . S
H670 C674 0.949 1_655 S
C671 C672 1.349 1_455 S
C671 C673 1.327 . S
C671 H694 0.950 . S
C672 C671 1.349 1_655 S
C672 C684 1.349 . S
C673 C671 1.327 . S
C673 C689 1.429 . S
C673 H695 0.950 . S
C674 H670 0.949 1_455 S
C674 C682 1.574 . S
C674 C690 1.368 . S
H675 C683 0.950 . S
H676 C681 0.950 . S
H677 C682 0.949 . S
H678 C684 0.950 . S
H679 C685 0.950 . S
H680 C686 0.949 . S
C681 H676 0.950 . S
C681 C683 1.327 . S
C681 C687 1.429 . S
C682 C674 1.574 . S
C682 H677 0.949 . S
C682 C688 1.368 . S
C683 C667 1.349 . S
C683 H675 0.950 . S
C683 C681 1.327 . S
C684 C672 1.349 . S
C684 H678 0.950 . S
C684 C685 1.327 . S
C685 H679 0.950 . S
C685 C684 1.327 . S
C685 C689 1.429 1_655 S
C686 C669 1.574 . S
C686 H680 0.949 . S
C686 C690 1.368 . S
C687 C668 1.429 . S
C687 C681 1.429 . S
C687 C688 1.523 . S
C688 C669 1.368 . S
C688 C682 1.368 . S
C688 C687 1.523 . S
C689 C673 1.429 . S
C689 C685 1.429 1_455 S
C689 C690 1.523 . S
C690 C674 1.368 . S
C690 C686 1.368 . S
C690 C689 1.523 . S
H691 C666 0.950 . S
H692 C668 0.950 . S
H693 C669 0.949 . S
H694 C671 0.950 . S
H695 C673 0.950 . S
C337 C150 1.496 . S
C342 C75 1.496 . S
C367 C243 1.496 . S
C372 C318 1.496 . S
C397 C66 1.496 . S
C402 C159 1.496 . S
C427 C327 1.496 . S
C432 C234 1.496 . S
C457 C324 1.110 . S
C462 C67 1.107 . S
C487 C156 1.110 . S
C492 C235 1.107 . S
C517 C140 1.110 . S
C522 C231 1.113 . S
C547 C308 1.110 . S
C552 C63 1.113 . S
C577 C151 1.110 . S
C582 C240 1.107 . S
C607 C319 1.110 . S
C612 C72 1.107 . S
C637 C315 1.110 . S
C642 C56 1.113 . S
C667 C224 1.110 . S
C672 C147 1.113 . S
