# Generated by pormake.
# Topology una, (4)-cn, num edge types: 1
# Building blocks:
#     Node 0, Type 0, BuildingBlock: UXUYUI_clean_sbu_0, # of connection points: 4
#     Node 1, Type 0, BuildingBlock: UXUYUI_clean_sbu_0, # of connection points: 4
#     Node 2, Type 0, BuildingBlock: UXUYUI_clean_sbu_0, # of connection points: 4
#     Node 3, Type 0, BuildingBlock: UXUYUI_clean_sbu_0, # of connection points: 4
#     Node 4, Type 0, BuildingBlock: UXUYUI_clean_sbu_0, # of connection points: 4
#     Node 5, Type 0, BuildingBlock: UXUYUI_clean_sbu_0, # of connection points: 4
#     Node 6, Type 0, BuildingBlock: UXUYUI_clean_sbu_0, # of connection points: 4
#     Node 7, Type 0, BuildingBlock: UXUYUI_clean_sbu_0, # of connection points: 4
#     Node 8, Type 0, BuildingBlock: UXUYUI_clean_sbu_0, # of connection points: 4
#     Node 9, Type 0, BuildingBlock: UXUYUI_clean_sbu_0, # of connection points: 4
#     Node 10, Type 0, BuildingBlock: UXUYUI_clean_sbu_0, # of connection points: 4
#     Node 11, Type 0, BuildingBlock: UXUYUI_clean_sbu_0, # of connection points: 4
#     Edge 12, Type (0, 0), BuildingBlock: OJICUG_clean_linker_0, # of connection points: 2
#     Edge 13, Type (0, 0), BuildingBlock: OJICUG_clean_linker_0, # of connection points: 2
#     Edge 14, Type (0, 0), BuildingBlock: OJICUG_clean_linker_0, # of connection points: 2
#     Edge 15, Type (0, 0), BuildingBlock: OJICUG_clean_linker_0, # of connection points: 2
#     Edge 16, Type (0, 0), BuildingBlock: OJICUG_clean_linker_0, # of connection points: 2
#     Edge 17, Type (0, 0), BuildingBlock: OJICUG_clean_linker_0, # of connection points: 2
#     Edge 18, Type (0, 0), BuildingBlock: OJICUG_clean_linker_0, # of connection points: 2
#     Edge 19, Type (0, 0), BuildingBlock: OJICUG_clean_linker_0, # of connection points: 2
#     Edge 20, Type (0, 0), BuildingBlock: OJICUG_clean_linker_0, # of connection points: 2
#     Edge 21, Type (0, 0), BuildingBlock: OJICUG_clean_linker_0, # of connection points: 2
#     Edge 22, Type (0, 0), BuildingBlock: OJICUG_clean_linker_0, # of connection points: 2
#     Edge 23, Type (0, 0), BuildingBlock: OJICUG_clean_linker_0, # of connection points: 2
#     Edge 24, Type (0, 0), BuildingBlock: OJICUG_clean_linker_0, # of connection points: 2
#     Edge 25, Type (0, 0), BuildingBlock: OJICUG_clean_linker_0, # of connection points: 2
#     Edge 26, Type (0, 0), BuildingBlock: OJICUG_clean_linker_0, # of connection points: 2
#     Edge 27, Type (0, 0), BuildingBlock: OJICUG_clean_linker_0, # of connection points: 2
#     Edge 28, Type (0, 0), BuildingBlock: OJICUG_clean_linker_0, # of connection points: 2
#     Edge 29, Type (0, 0), BuildingBlock: OJICUG_clean_linker_0, # of connection points: 2
#     Edge 30, Type (0, 0), BuildingBlock: OJICUG_clean_linker_0, # of connection points: 2
#     Edge 31, Type (0, 0), BuildingBlock: OJICUG_clean_linker_0, # of connection points: 2
#     Edge 32, Type (0, 0), BuildingBlock: OJICUG_clean_linker_0, # of connection points: 2
#     Edge 33, Type (0, 0), BuildingBlock: OJICUG_clean_linker_0, # of connection points: 2
#     Edge 34, Type (0, 0), BuildingBlock: OJICUG_clean_linker_0, # of connection points: 2
#     Edge 35, Type (0, 0), BuildingBlock: OJICUG_clean_linker_0, # of connection points: 2
# Relax obj value: 0.208
# Max RMSD: 0.213
# Mean RMSD: 0.213
data_MOF--net-una--node1-UXUYUI_clean_sbu_0--edge1-OJICUG_clean_linker_0
_symmetry_space_group_name_H-M    P1
_symmetry_Int_Tables_number       1
_symmetry_cell_setting            triclinic
loop_
_symmetry_equiv_pos_as_xyz
'x, y, z'
_cell_length_a     67.953516
_cell_length_b     67.967666
_cell_length_c     26.4371
_cell_angle_alpha  90.010697
_cell_angle_beta   89.998163
_cell_angle_gamma 119.98446
loop_
_atom_site_label
_atom_site_type_symbol
_atom_site_fract_x
_atom_site_fract_y
_atom_site_fract_z
_atom_type_partial_charge
Li0 Li 0.13448 0.45943 0.05282 0.0
Li1 Li 0.13846 0.4265 0.08437 0.0
Li2 Li 0.14894 0.44041 0.99939 0.0
Li3 Li 0.10928 0.4192 0.02004 0.0
C4 C 0.18439 0.47001 0.04996 0.0
N5 N 0.22917 0.49451 0.01926 0.0
C6 C 0.19861 0.46077 0.05503 0.0
C7 C 0.19294 0.49173 0.0295 0.0
C8 C 0.2212 0.47341 0.03919 0.0
C9 C 0.21564 0.50385 0.01419 0.0
C10 C 0.09889 0.42024 0.13129 0.0
C11 C 0.07246 0.38555 0.17369 0.0
N12 N 0.0736 0.39774 0.21552 0.0
C13 C 0.09966 0.43246 0.17446 0.0
C14 C 0.08507 0.39663 0.13064 0.0
C15 C 0.08681 0.42076 0.21677 0.0
C16 C 0.11897 0.4905 0.04893 0.0
N17 N 0.13511 0.48672 0.06939 0.0
C18 C 0.152 0.52238 0.11236 0.0
C19 C 0.15141 0.50205 0.10074 0.0
C20 C 0.13554 0.52686 0.09177 0.0
C21 C 0.11883 0.51053 0.05973 0.0
H22 H 0.10618 0.47789 0.02426 0.0
H23 H 0.16403 0.49852 0.11642 0.0
C24 C 0.15975 0.40493 0.13039 0.0
N25 N 0.14893 0.41674 0.14063 0.0
C26 C 0.17224 0.40159 0.16795 0.0
C27 C 0.16165 0.42203 0.22644 0.0
C28 C 0.14941 0.42503 0.18767 0.0
C29 C 0.17385 0.41076 0.21643 0.0
H30 H 0.15986 0.3993 0.09218 0.0
H31 H 0.14142 0.4351 0.19443 0.0
C32 C 0.12667 0.45245 0.93226 0.0
N33 N 0.12889 0.46036 0.82942 0.0
C34 C 0.12054 0.43459 0.89819 0.0
C35 C 0.13374 0.47429 0.91414 0.0
C36 C 0.12184 0.43895 0.84632 0.0
C37 C 0.13479 0.47796 0.86196 0.0
C38 C 0.12118 0.38579 0.0132 0.0
C39 C 0.11903 0.37754 0.96387 0.0
C40 C 0.11271 0.37053 0.05367 0.0
C41 C 0.1082 0.35411 0.9558 0.0
C42 C 0.10202 0.34723 0.04403 0.0
N43 N 0.09999 0.33957 0.9957 0.0
C44 C 0.17523 0.42804 0.94214 0.0
C45 C 0.18013 0.46379 0.91788 0.0
C46 C 0.18973 0.42907 0.90378 0.0
N47 N 0.17033 0.44499 0.94777 0.0
C48 C 0.19485 0.46559 0.87898 0.0
C49 C 0.19944 0.44784 0.87107 0.0
H50 H 0.16773 0.41359 0.96733 0.0
H51 H 0.17638 0.4773 0.92391 0.0
C52 C 0.07158 0.41328 0.96823 0.0
N53 N 0.07964 0.40078 0.99094 0.0
C54 C 0.05218 0.40285 0.93806 0.0
C55 C 0.0485 0.36649 0.95804 0.0
C56 C 0.06817 0.3777 0.98765 0.0
C57 C 0.04069 0.3792 0.9316 0.0
H58 H 0.08071 0.43156 0.97211 0.0
H59 H 0.07448 0.36794 0.00665 0.0
O60 O 0.1621 0.45768 0.06409 0.0
O61 O 0.11143 0.43142 0.08966 0.0
O62 O 0.12563 0.44856 0.98316 0.0
O63 O 0.13201 0.4087 0.02181 0.0
H64 H 0.19221 0.44392 0.07051 0.0
H65 H 0.18208 0.49902 0.02482 0.0
H66 H 0.23238 0.46643 0.04261 0.0
H67 H 0.22247 0.52063 0.99802 0.0
H68 H 0.06174 0.36727 0.1738 0.0
H69 H 0.11021 0.45078 0.17535 0.0
H70 H 0.08403 0.38699 0.09724 0.0
H71 H 0.08733 0.42997 0.25058 0.0
H72 H 0.16537 0.53456 0.13669 0.0
H73 H 0.10559 0.51304 0.04366 0.0
H74 H 0.18168 0.39318 0.15815 0.0
H75 H 0.16227 0.42925 0.26333 0.0
H76 H 0.11492 0.41758 0.91172 0.0
H77 H 0.13849 0.48827 0.94013 0.0
H78 H 0.11723 0.42531 0.81949 0.0
H79 H 0.14033 0.49479 0.84733 0.0
H80 H 0.12566 0.3891 0.93214 0.0
H81 H 0.11424 0.37658 0.0921 0.0
H82 H 0.10636 0.34749 0.91782 0.0
H83 H 0.09532 0.33523 0.07496 0.0
H84 H 0.19326 0.41528 0.89965 0.0
H85 H 0.20206 0.48036 0.85459 0.0
H86 H 0.04643 0.41324 0.91934 0.0
H87 H 0.04005 0.34819 0.95428 0.0
Li88 Li 0.67601 0.13123 0.22472 0.0
Li89 Li 0.71279 0.13712 0.25172 0.0
Li90 Li 0.70722 0.14658 0.16492 0.0
Li91 Li 0.69071 0.10699 0.18974 0.0
C92 C 0.70273 0.17816 0.24224 0.0
N93 N 0.69716 0.21431 0.2697 0.0
C94 C 0.7104 0.18858 0.28934 0.0
C95 C 0.69249 0.18629 0.20889 0.0
C96 C 0.70736 0.20679 0.30258 0.0
C97 C 0.68976 0.20454 0.22353 0.0
C98 C 0.67407 0.10588 0.30984 0.0
C99 C 0.65221 0.08099 0.3781 0.0
N100 N 0.65675 0.09941 0.40679 0.0
C101 C 0.67848 0.12454 0.33995 0.0
C102 C 0.66079 0.08392 0.32894 0.0
C103 C 0.6696 0.12093 0.38888 0.0
C104 C 0.62955 0.11603 0.2183 0.0
N105 N 0.64871 0.1309 0.24359 0.0
C106 C 0.62796 0.1444 0.29135 0.0
C107 C 0.6482 0.14477 0.28005 0.0
C108 C 0.60798 0.12952 0.26512 0.0
C109 C 0.60893 0.11507 0.2284 0.0
H110 H 0.63036 0.10503 0.18982 0.0
H111 H 0.66345 0.15614 0.30053 0.0
C112 C 0.75373 0.16847 0.2933 0.0
N113 N 0.73502 0.14818 0.30406 0.0
C114 C 0.77022 0.18005 0.33023 0.0
C115 C 0.7482 0.14929 0.38838 0.0
C116 C 0.73234 0.13806 0.34991 0.0
C117 C 0.76719 0.17074 0.37886 0.0
H118 H 0.75539 0.17605 0.25643 0.0
H119 H 0.71758 0.12168 0.35726 0.0
C120 C 0.66791 0.12329 0.10845 0.0
N121 N 0.65163 0.12654 0.01487 0.0
C122 C 0.66844 0.11044 0.06774 0.0
C123 C 0.65874 0.13749 0.10177 0.0
C124 C 0.66024 0.11241 0.02067 0.0
C125 C 0.65069 0.13898 0.05413 0.0
C126 C 0.73664 0.12101 0.19783 0.0
C127 C 0.75724 0.12843 0.17266 0.0
C128 C 0.72964 0.10402 0.2346 0.0
C129 C 0.77053 0.11868 0.18463 0.0
C130 C 0.74341 0.09471 0.2455 0.0
N131 N 0.7634 0.10217 0.2205 0.0
C132 C 0.73192 0.18931 0.11552 0.0
C133 C 0.72294 0.15681 0.06596 0.0
C134 C 0.74407 0.20362 0.07541 0.0
N135 N 0.72164 0.1664 0.10998 0.0
C136 C 0.73476 0.17042 0.02486 0.0
C137 C 0.74581 0.19418 0.02949 0.0
H138 H 0.73133 0.19652 0.1515 0.0
H139 H 0.71529 0.13858 0.06325 0.0
C140 C 0.66085 0.06059 0.17131 0.0
N141 N 0.682 0.07815 0.16141 0.0
C142 C 0.65216 0.04048 0.14348 0.0
C143 C 0.68755 0.05663 0.09719 0.0
C144 C 0.6955 0.07646 0.12573 0.0
C145 C 0.66538 0.03852 0.10501 0.0
H146 H 0.65035 0.06263 0.19921 0.0
H147 H 0.71196 0.09095 0.11744 0.0
O148 O 0.70547 0.16024 0.22881 0.0
O149 O 0.68233 0.10897 0.26158 0.0
O150 O 0.6757 0.12144 0.15492 0.0
O151 O 0.72356 0.13051 0.18655 0.0
H152 H 0.71853 0.18262 0.31548 0.0
H153 H 0.68685 0.1787 0.17201 0.0
H154 H 0.71311 0.21495 0.33899 0.0
H155 H 0.6818 0.21096 0.19813 0.0
H156 H 0.64192 0.06409 0.39342 0.0
H157 H 0.68881 0.14161 0.3258 0.0
H158 H 0.65716 0.06929 0.30598 0.0
H159 H 0.67294 0.13524 0.41261 0.0
H160 H 0.62792 0.15553 0.32062 0.0
H161 H 0.59399 0.10345 0.20701 0.0
H162 H 0.78454 0.19664 0.32166 0.0
H163 H 0.74543 0.14157 0.42546 0.0
H164 H 0.67524 0.09916 0.07233 0.0
H165 H 0.65762 0.14709 0.13312 0.0
H166 H 0.6607 0.10268 0.98876 0.0
H167 H 0.6436 0.14995 0.04841 0.0
H168 H 0.76289 0.14159 0.14415 0.0
H169 H 0.71377 0.09805 0.25454 0.0
H170 H 0.78652 0.12426 0.16542 0.0
H171 H 0.73822 0.08156 0.27385 0.0
H172 H 0.75271 0.22184 0.08095 0.0
H173 H 0.73553 0.16241 0.99008 0.0
H174 H 0.63506 0.02684 0.15103 0.0
H175 H 0.69817 0.05598 0.06745 0.0
Li176 Li 0.57323 0.71155 0.41873 0.0
Li177 Li 0.54229 0.67505 0.38831 0.0
Li178 Li 0.58049 0.692 0.35117 0.0
Li179 Li 0.55612 0.70831 0.33563 0.0
C180 C 0.57699 0.68042 0.47003 0.0
N181 N 0.58886 0.68047 0.56997 0.0
C182 C 0.56014 0.67036 0.50704 0.0
C183 C 0.59985 0.69031 0.48371 0.0
C184 C 0.5665 0.67061 0.5574 0.0
C185 C 0.60551 0.69022 0.53448 0.0
C186 C 0.53007 0.71455 0.39681 0.0
C187 C 0.4981 0.71699 0.36496 0.0
N188 N 0.50826 0.73905 0.38007 0.0
C189 C 0.54019 0.73724 0.41208 0.0
C190 C 0.50884 0.7043 0.37313 0.0
C191 C 0.52889 0.74934 0.40329 0.0
C192 C 0.60318 0.75109 0.47646 0.0
N193 N 0.58359 0.7307 0.47679 0.0
C194 C 0.57263 0.73951 0.55567 0.0
C195 C 0.56854 0.72461 0.51559 0.0
C196 C 0.59233 0.76105 0.55574 0.0
C197 C 0.60796 0.76658 0.51591 0.0
H198 H 0.61457 0.75579 0.44452 0.0
H199 H 0.55273 0.70864 0.51397 0.0
C200 C 0.51573 0.62733 0.39963 0.0
N201 N 0.51629 0.64733 0.40818 0.0
C202 C 0.49626 0.60677 0.41117 0.0
C203 C 0.47893 0.62784 0.44342 0.0
C204 C 0.49857 0.64798 0.43031 0.0
C205 C 0.47754 0.60693 0.43312 0.0
H206 H 0.53029 0.62735 0.3831 0.0
H207 H 0.49964 0.66414 0.43754 0.0
C208 C 0.61004 0.7357 0.33445 0.0
N209 N 0.65307 0.75704 0.29272 0.0
C210 C 0.61364 0.74528 0.28618 0.0
C211 C 0.62833 0.73709 0.36162 0.0
C212 C 0.63553 0.75598 0.26571 0.0
C213 C 0.64995 0.7479 0.33983 0.0
C214 C 0.53617 0.65771 0.29521 0.0
C215 C 0.54387 0.64296 0.28042 0.0
C216 C 0.51314 0.65088 0.29027 0.0
C217 C 0.52836 0.62156 0.26122 0.0
C218 C 0.49816 0.62932 0.27102 0.0
N219 N 0.50601 0.61523 0.25701 0.0
C220 C 0.60726 0.67076 0.34076 0.0
C221 C 0.60622 0.69123 0.26915 0.0
C222 C 0.61907 0.66239 0.31316 0.0
N223 N 0.60089 0.68468 0.31819 0.0
C224 C 0.61842 0.68369 0.24057 0.0
C225 C 0.62453 0.66868 0.26224 0.0
H226 H 0.60229 0.66537 0.37943 0.0
H227 H 0.60008 0.70149 0.25152 0.0
C228 C 0.55985 0.74715 0.29022 0.0
N229 N 0.54869 0.72413 0.28737 0.0
C230 C 0.5563 0.75981 0.25361 0.0
C231 C 0.52926 0.72474 0.2127 0.0
C232 C 0.53347 0.71278 0.24996 0.0
C233 C 0.54105 0.74861 0.21373 0.0
H234 H 0.572 0.75569 0.32028 0.0
H235 H 0.52493 0.69448 0.24844 0.0
O236 O 0.57114 0.68072 0.4207 0.0
O237 O 0.54114 0.7026 0.40376 0.0
O238 O 0.5887 0.72493 0.35491 0.0
O239 O 0.55107 0.67865 0.31459 0.0
H240 H 0.54237 0.66266 0.49708 0.0
H241 H 0.61307 0.69797 0.45543 0.0
H242 H 0.55365 0.66301 0.5865 0.0
H243 H 0.62314 0.69789 0.54567 0.0
H244 H 0.48172 0.70931 0.34645 0.0
H245 H 0.55673 0.74554 0.42988 0.0
H246 H 0.50085 0.68682 0.36069 0.0
H247 H 0.53656 0.76693 0.4147 0.0
H248 H 0.55983 0.73464 0.58482 0.0
H249 H 0.62341 0.78293 0.51452 0.0
H250 H 0.49587 0.59094 0.40334 0.0
H251 H 0.4648 0.62858 0.4604 0.0
H252 H 0.59966 0.74425 0.26449 0.0
H253 H 0.62582 0.72978 0.39901 0.0
H254 H 0.63855 0.76337 0.2283 0.0
H255 H 0.66425 0.74902 0.36035 0.0
H256 H 0.56159 0.64788 0.28396 0.0
H257 H 0.50681 0.66192 0.30211 0.0
H258 H 0.53407 0.60996 0.24979 0.0
H259 H 0.48027 0.62375 0.26743 0.0
H260 H 0.62345 0.65074 0.33099 0.0
H261 H 0.62195 0.68855 0.20115 0.0
H262 H 0.56606 0.77817 0.25555 0.0
H263 H 0.51715 0.7154 0.18305 0.0
Li264 Li 0.86604 0.54083 0.54946 0.0
Li265 Li 0.86036 0.57133 0.58179 0.0
Li266 Li 0.85114 0.55806 0.49213 0.0
Li267 Li 0.89096 0.58082 0.51886 0.0
C268 C 0.82187 0.52006 0.57262 0.0
N269 N 0.79173 0.47709 0.60831 0.0
C270 C 0.81553 0.51682 0.62356 0.0
C271 C 0.81264 0.50149 0.5397 0.0
C272 C 0.80032 0.49496 0.64091 0.0
C273 C 0.79751 0.47988 0.5585 0.0
C274 C 0.90087 0.57961 0.62947 0.0
C275 C 0.92827 0.61454 0.66966 0.0
N276 N 0.92716 0.60273 0.71213 0.0
C277 C 0.90022 0.56777 0.67323 0.0
C278 C 0.91519 0.60314 0.62737 0.0
C279 C 0.91355 0.57978 0.71474 0.0
C280 C 0.87374 0.50436 0.532 0.0
N281 N 0.86614 0.51369 0.56689 0.0
C282 C 0.85937 0.48442 0.62622 0.0
C283 C 0.85935 0.50437 0.61361 0.0
C284 C 0.86678 0.47416 0.5906 0.0
C285 C 0.87415 0.4845 0.54303 0.0
H286 H 0.87974 0.51248 0.49572 0.0
H287 H 0.85393 0.51245 0.64113 0.0
C288 C 0.83527 0.5894 0.62382 0.0
N289 N 0.84864 0.58057 0.63682 0.0
C290 C 0.82257 0.59293 0.66049 0.0
C291 C 0.83796 0.57864 0.72362 0.0
C292 C 0.85049 0.57551 0.68572 0.0
C293 C 0.82335 0.58695 0.71098 0.0
H294 H 0.83364 0.59269 0.58446 0.0
H295 H 0.86061 0.56783 0.69498 0.0
C296 C 0.87368 0.5451 0.43035 0.0
N297 N 0.86813 0.5315 0.33029 0.0
C298 C 0.88727 0.56031 0.39274 0.0
C299 C 0.85738 0.52292 0.41702 0.0
C300 C 0.88417 0.55312 0.34239 0.0
C301 C 0.85479 0.51639 0.36625 0.0
C302 C 0.8754 0.61251 0.51542 0.0
C303 C 0.87503 0.62235 0.46927 0.0
C304 C 0.88402 0.62617 0.55844 0.0
C305 C 0.88356 0.64577 0.4668 0.0
C306 C 0.89238 0.64952 0.55443 0.0
N307 N 0.892 0.65876 0.50906 0.0
C308 C 0.80826 0.5404 0.44428 0.0
C309 C 0.84005 0.56579 0.39503 0.0
C310 C 0.79343 0.53886 0.40587 0.0
N311 N 0.83107 0.5538 0.43821 0.0
C312 C 0.82594 0.56453 0.3555 0.0
C313 C 0.80225 0.55127 0.36092 0.0
H314 H 0.80155 0.53145 0.47951 0.0
H315 H 0.85819 0.57678 0.3917 0.0
C316 C 0.9317 0.58931 0.47918 0.0
N317 N 0.92072 0.60059 0.4928 0.0
C318 C 0.95131 0.59998 0.44971 0.0
C319 C 0.9492 0.63442 0.45237 0.0
C320 C 0.92938 0.62295 0.48135 0.0
C321 C 0.9599 0.62263 0.43473 0.0
H322 H 0.9244 0.57153 0.48868 0.0
H323 H 0.92055 0.63171 0.49266 0.0
O324 O 0.83695 0.5413 0.55505 0.0
O325 O 0.88802 0.56807 0.58844 0.0
O326 O 0.87636 0.55184 0.47992 0.0
O327 O 0.86698 0.58957 0.51853 0.0
H328 H 0.82239 0.53099 0.64954 0.0
H329 H 0.81709 0.50373 0.50005 0.0
H330 H 0.79538 0.4922 0.68032 0.0
H331 H 0.79033 0.46534 0.53347 0.0
H332 H 0.93936 0.63276 0.66865 0.0
H333 H 0.88939 0.54951 0.67522 0.0
H334 H 0.91632 0.61249 0.5934 0.0
H335 H 0.91308 0.57087 0.74901 0.0
H336 H 0.85343 0.47703 0.66327 0.0
H337 H 0.88053 0.47753 0.51483 0.0
H338 H 0.81128 0.59903 0.64889 0.0
H339 H 0.83912 0.57389 0.76214 0.0
H340 H 0.89976 0.57763 0.40204 0.0
H341 H 0.84687 0.51086 0.44556 0.0
H342 H 0.89446 0.56477 0.31291 0.0
H343 H 0.8422 0.49929 0.35545 0.0
H344 H 0.86831 0.61206 0.43566 0.0
H345 H 0.88422 0.61886 0.5946 0.0
H346 H 0.88346 0.65362 0.43129 0.0
H347 H 0.89915 0.66028 0.58739 0.0
H348 H 0.77529 0.52872 0.4121 0.0
H349 H 0.83356 0.57414 0.32135 0.0
H350 H 0.95929 0.59042 0.43746 0.0
H351 H 0.95537 0.65193 0.44166 0.0
Li352 Li 0.28885 0.86296 0.75365 0.0
Li353 Li 0.32502 0.86862 0.72388 0.0
Li354 Li 0.30991 0.89168 0.69147 0.0
Li355 Li 0.29238 0.85253 0.6684 0.0
C356 C 0.32705 0.89208 0.81088 0.0
N357 N 0.34266 0.89491 0.90864 0.0
C358 C 0.32286 0.87241 0.83674 0.0
C359 C 0.33922 0.91318 0.83472 0.0
C360 C 0.33088 0.87419 0.88613 0.0
C361 C 0.34695 0.91426 0.88418 0.0
C362 C 0.29791 0.82075 0.72167 0.0
C363 C 0.31491 0.80238 0.67565 0.0
N364 N 0.30121 0.78269 0.70067 0.0
C365 C 0.28397 0.80034 0.74686 0.0
C366 C 0.31348 0.8218 0.68569 0.0
C367 C 0.28591 0.78129 0.73575 0.0
C368 C 0.24837 0.83212 0.79683 0.0
N369 N 0.26733 0.85223 0.80744 0.0
C370 C 0.25465 0.85118 0.89225 0.0
C371 C 0.27042 0.86228 0.85353 0.0
C372 C 0.23535 0.82995 0.88275 0.0
C373 C 0.23198 0.8207 0.834 0.0
H374 H 0.24638 0.8246 0.75976 0.0
H375 H 0.28539 0.87851 0.86083 0.0
C376 C 0.37203 0.88634 0.72201 0.0
N377 N 0.35244 0.86901 0.74107 0.0
C378 C 0.39278 0.8875 0.73176 0.0
C379 C 0.37279 0.85298 0.78081 0.0
C380 C 0.35246 0.85261 0.7705 0.0
C381 C 0.39328 0.87055 0.76115 0.0
H382 H 0.37147 0.89919 0.69892 0.0
H383 H 0.3367 0.83915 0.78579 0.0
C384 C 0.26474 0.8795 0.70328 0.0
N385 N 0.23995 0.90022 0.72841 0.0
C386 C 0.24423 0.87324 0.67873 0.0
C387 C 0.27264 0.89629 0.74067 0.0
C388 C 0.23194 0.88392 0.69194 0.0
C389 C 0.25986 0.90656 0.75282 0.0
C390 C 0.32649 0.88331 0.60332 0.0
C391 C 0.30832 0.88214 0.57595 0.0
C392 C 0.34767 0.89178 0.58011 0.0
C393 C 0.31168 0.88948 0.52572 0.0
C394 C 0.35034 0.89895 0.52979 0.0
N395 N 0.33245 0.89767 0.50387 0.0
C396 C 0.34085 0.9374 0.67155 0.0
C397 C 0.30522 0.92382 0.6312 0.0
C398 C 0.34996 0.95771 0.64442 0.0
N399 N 0.31898 0.92084 0.66385 0.0
C400 C 0.31364 0.94384 0.60321 0.0
C401 C 0.33647 0.96091 0.60871 0.0
H402 H 0.35149 0.93438 0.69712 0.0
H403 H 0.28808 0.91016 0.62462 0.0
C404 C 0.2534 0.82068 0.61929 0.0
N405 N 0.27639 0.83078 0.61761 0.0
C406 C 0.24018 0.8051 0.58216 0.0
C407 C 0.2746 0.81024 0.54288 0.0
C408 C 0.28716 0.82579 0.58078 0.0
C409 C 0.25078 0.79983 0.54304 0.0
H410 H 0.24538 0.82504 0.64917 0.0
H411 H 0.30551 0.83407 0.58047 0.0
O412 O 0.31963 0.89093 0.76228 0.0
O413 O 0.29602 0.83946 0.732 0.0
O414 O 0.27684 0.86908 0.69056 0.0
O415 O 0.32378 0.87656 0.65281 0.0
H416 H 0.31335 0.85591 0.81918 0.0
H417 H 0.34266 0.92857 0.81514 0.0
H418 H 0.3277 0.85911 0.9066 0.0
H419 H 0.35638 0.93048 0.9031 0.0
H420 H 0.3269 0.80295 0.64793 0.0
H421 H 0.27178 0.79926 0.77471 0.0
H422 H 0.32438 0.83744 0.66577 0.0
H423 H 0.27525 0.76538 0.75499 0.0
H424 H 0.2577 0.85885 0.92944 0.0
H425 H 0.2174 0.80427 0.82543 0.0
H426 H 0.40819 0.90125 0.71568 0.0
H427 H 0.37251 0.83978 0.80425 0.0
H428 H 0.23789 0.86027 0.64968 0.0
H429 H 0.28845 0.90141 0.76015 0.0
H430 H 0.21605 0.87925 0.67321 0.0
H431 H 0.26577 0.91958 0.78166 0.0
H432 H 0.29183 0.87577 0.59332 0.0
H433 H 0.36191 0.89284 0.60082 0.0
H434 H 0.29779 0.88871 0.50415 0.0
H435 H 0.36666 0.90556 0.51136 0.0
H436 H 0.36756 0.97053 0.65038 0.0
H437 H 0.30271 0.94539 0.57564 0.0
H438 H 0.22191 0.79776 0.58337 0.0
H439 H 0.28343 0.80647 0.51374 0.0
Li440 Li 0.45661 0.32213 0.88788 0.0
Li441 Li 0.42776 0.28462 0.91309 0.0
Li442 Li 0.44343 0.29299 0.8266 0.0
Li443 Li 0.41862 0.30738 0.85191 0.0
C444 C 0.47919 0.30066 0.91359 0.0
N445 N 0.5202 0.31407 0.96114 0.0
C446 C 0.47963 0.29409 0.96352 0.0
C447 C 0.49961 0.3139 0.88776 0.0
C448 C 0.50054 0.30107 0.9869 0.0
C449 C 0.52017 0.32057 0.9125 0.0
C450 C 0.43518 0.32717 0.96683 0.0
C451 C 0.44444 0.36227 0.00886 0.0
N452 N 0.4515 0.35549 0.05007 0.0
C453 C 0.44252 0.32056 0.0096 0.0
C454 C 0.43611 0.34819 0.96645 0.0
C455 C 0.4507 0.3351 0.0513 0.0
C456 C 0.48975 0.36802 0.87712 0.0
N457 N 0.4826 0.35013 0.90931 0.0
C458 C 0.51293 0.3727 0.96651 0.0
C459 C 0.49356 0.35223 0.9538 0.0
C460 C 0.52106 0.39125 0.93323 0.0
C461 C 0.50903 0.38877 0.88826 0.0
H462 H 0.48052 0.36616 0.84252 0.0
H463 H 0.48753 0.33798 0.97925 0.0
C464 C 0.42218 0.24493 0.95427 0.0
N465 N 0.41649 0.26118 0.96249 0.0
C466 C 0.41676 0.22784 0.98984 0.0
C467 C 0.39872 0.24388 0.04084 0.0
C468 C 0.40446 0.26069 0.00404 0.0
C469 C 0.40526 0.22739 0.03436 0.0
H470 H 0.43167 0.24575 0.9207 0.0
H471 H 0.39986 0.27367 0.00924 0.0
C472 C 0.45539 0.32793 0.76886 0.0
N473 N 0.46976 0.33466 0.66937 0.0
C474 C 0.43994 0.32383 0.72978 0.0
C475 C 0.47817 0.33565 0.75737 0.0
C476 C 0.44754 0.32729 0.67972 0.0
C477 C 0.48509 0.33889 0.70683 0.0
C478 C 0.38859 0.26012 0.85594 0.0
C479 C 0.3774 0.2396 0.8295 0.0
C480 C 0.3768 0.26518 0.89221 0.0
C481 C 0.3545 0.22447 0.83966 0.0
C482 C 0.35392 0.24959 0.90129 0.0
N483 N 0.34333 0.22973 0.87505 0.0
C484 C 0.46923 0.27888 0.76683 0.0
C485 C 0.43373 0.27137 0.73359 0.0
C486 C 0.47286 0.2685 0.72506 0.0
N487 N 0.44989 0.28006 0.77019 0.0
C488 C 0.43667 0.26095 0.69121 0.0
C489 C 0.45638 0.25928 0.68667 0.0
H490 H 0.48169 0.28573 0.79675 0.0
H491 H 0.41841 0.27238 0.73769 0.0
C492 C 0.40407 0.33787 0.82753 0.0
N493 N 0.39778 0.31554 0.82423 0.0
C494 C 0.39264 0.34651 0.79969 0.0
C495 C 0.36806 0.30892 0.76616 0.0
C496 C 0.37999 0.30098 0.79472 0.0
C497 C 0.37474 0.3321 0.76744 0.0
H498 H 0.4188 0.34924 0.84959 0.0
H499 H 0.37589 0.28353 0.7908 0.0
O500 O 0.45887 0.29389 0.88998 0.0
O501 O 0.42723 0.3132 0.92552 0.0
O502 O 0.44819 0.32409 0.81807 0.0
O503 O 0.41105 0.27498 0.84659 0.0
H504 H 0.46403 0.28388 0.98419 0.0
H505 H 0.49961 0.31921 0.84923 0.0
H506 H 0.50113 0.2962 0.02557 0.0
H507 H 0.53609 0.33095 0.89306 0.0
H508 H 0.4453 0.3786 0.00902 0.0
H509 H 0.44236 0.30459 0.01029 0.0
H510 H 0.43054 0.35362 0.93377 0.0
H511 H 0.45655 0.33023 0.08451 0.0
H512 H 0.52173 0.3738 0.00147 0.0
H513 H 0.51441 0.40276 0.86199 0.0
H514 H 0.4224 0.2157 0.98346 0.0
H515 H 0.38959 0.24399 0.07431 0.0
H516 H 0.42224 0.31778 0.73789 0.0
H517 H 0.49036 0.33899 0.78715 0.0
H518 H 0.43574 0.32404 0.64909 0.0
H519 H 0.50266 0.34474 0.69739 0.0
H520 H 0.38634 0.23543 0.80141 0.0
H521 H 0.38516 0.28097 0.91308 0.0
H522 H 0.34561 0.20852 0.81945 0.0
H523 H 0.34457 0.25328 0.92922 0.0
H524 H 0.48833 0.26764 0.72289 0.0
H525 H 0.42333 0.25369 0.66302 0.0
H526 H 0.39826 0.36446 0.80216 0.0
H527 H 0.35463 0.29729 0.74119 0.0
Li528 Li 0.58203 0.89206 0.88736 0.0
Li529 Li 0.55635 0.85261 0.91113 0.0
Li530 Li 0.5731 0.86136 0.825 0.0
Li531 Li 0.54266 0.86904 0.84904 0.0
C532 C 0.61167 0.87456 0.89081 0.0
N533 N 0.65774 0.88986 0.88847 0.0
C534 C 0.6219 0.86927 0.93032 0.0
C535 C 0.62481 0.88745 0.84995 0.0
C536 C 0.64524 0.87723 0.92851 0.0
C537 C 0.64809 0.89507 0.84948 0.0
C538 C 0.54279 0.87588 0.96755 0.0
C539 C 0.51107 0.85728 0.02489 0.0
N540 N 0.52497 0.86897 0.06413 0.0
C541 C 0.55671 0.88789 0.00837 0.0
C542 C 0.51974 0.8606 0.97576 0.0
C543 C 0.5474 0.8841 0.05693 0.0
C544 C 0.60104 0.93905 0.90215 0.0
N545 N 0.60304 0.9208 0.91523 0.0
C546 C 0.62923 0.94199 0.98113 0.0
C547 C 0.61704 0.92199 0.95332 0.0
C548 C 0.62674 0.96084 0.97005 0.0
C549 C 0.61285 0.95938 0.92911 0.0
H550 H 0.58942 0.93746 0.87234 0.0
H551 H 0.61767 0.90702 0.96431 0.0
C552 C 0.53214 0.81068 0.96417 0.0
N553 N 0.54905 0.83271 0.96673 0.0
C554 C 0.52805 0.79613 0.00506 0.0
C555 C 0.55866 0.82734 0.0504 0.0
C556 C 0.56228 0.84119 0.00854 0.0
C557 C 0.54151 0.80444 0.04875 0.0
H558 H 0.52216 0.80429 0.93008 0.0
H559 H 0.57595 0.85865 0.00891 0.0
C560 C 0.58049 0.90172 0.77145 0.0
N561 N 0.59715 0.92588 0.68261 0.0
C562 C 0.56634 0.89659 0.72932 0.0
C563 C 0.60299 0.91946 0.76874 0.0
C564 C 0.57511 0.90889 0.68464 0.0
C565 C 0.61113 0.93138 0.7234 0.0
C566 C 0.5213 0.82416 0.82424 0.0
C567 C 0.52071 0.81653 0.77484 0.0
C568 C 0.50103 0.81629 0.85116 0.0
C569 C 0.49979 0.8014 0.75294 0.0
C570 C 0.48045 0.8012 0.82791 0.0
N571 N 0.48026 0.79414 0.77967 0.0
C572 C 0.59232 0.83601 0.78992 0.0
C573 C 0.58125 0.85169 0.72331 0.0
C574 C 0.59746 0.82363 0.75554 0.0
N575 N 0.58411 0.84947 0.77347 0.0
C576 C 0.58598 0.83944 0.68758 0.0
C577 C 0.59371 0.82473 0.7036 0.0
H578 H 0.59403 0.83414 0.83003 0.0
H579 H 0.57405 0.86187 0.71107 0.0
C580 C 0.50977 0.88219 0.85768 0.0
N581 N 0.51678 0.87078 0.82716 0.0
C582 C 0.49022 0.88311 0.84593 0.0
C583 C 0.48567 0.86093 0.77086 0.0
C584 C 0.50545 0.86064 0.78382 0.0
C585 C 0.47773 0.87212 0.80238 0.0
H586 H 0.51922 0.89037 0.89159 0.0
H587 H 0.51158 0.8521 0.75951 0.0
O588 O 0.58886 0.86693 0.89218 0.0
O589 O 0.55167 0.87907 0.91981 0.0
O590 O 0.5721 0.89013 0.81579 0.0
O591 O 0.54163 0.83908 0.84618 0.0
H592 H 0.61192 0.85921 0.96214 0.0
H593 H 0.61708 0.89131 0.81872 0.0
H594 H 0.65341 0.87335 0.95892 0.0
H595 H 0.65846 0.90506 0.81806 0.0
H596 H 0.49329 0.84541 0.0318 0.0
H597 H 0.57454 0.89987 0.00275 0.0
H598 H 0.50866 0.85143 0.94456 0.0
H599 H 0.55802 0.89316 0.08891 0.0
H600 H 0.63943 0.94223 0.01286 0.0
H601 H 0.6106 0.97358 0.91903 0.0
H602 H 0.51469 0.77855 0.00239 0.0
H603 H 0.5697 0.83428 0.08299 0.0
H604 H 0.54884 0.88308 0.73091 0.0
H605 H 0.61403 0.92411 0.8014 0.0
H606 H 0.56439 0.90495 0.6516 0.0
H607 H 0.62854 0.94509 0.7207 0.0
H608 H 0.5362 0.82228 0.75355 0.0
H609 H 0.50116 0.82184 0.8895 0.0
H610 H 0.49908 0.79546 0.71466 0.0
H611 H 0.46463 0.7951 0.84821 0.0
H612 H 0.60368 0.8128 0.76973 0.0
H613 H 0.58239 0.84057 0.64811 0.0
H614 H 0.48462 0.89184 0.87135 0.0
H615 H 0.4767 0.85254 0.73652 0.0
Li616 Li 0.70352 0.56073 0.06988 0.0
Li617 Li 0.68676 0.58393 0.04593 0.0
Li618 Li 0.67069 0.54297 0.01406 0.0
Li619 Li 0.70698 0.57338 0.98559 0.0
C620 C 0.66878 0.54571 0.13091 0.0
N621 N 0.6635 0.52812 0.22727 0.0
C622 C 0.67312 0.55975 0.17296 0.0
C623 C 0.66164 0.52272 0.13774 0.0
C624 C 0.67038 0.55053 0.22141 0.0
C625 C 0.6591 0.51415 0.18682 0.0
C626 C 0.73624 0.61412 0.03991 0.0
C627 C 0.74989 0.65239 0.01053 0.0
N628 N 0.77127 0.65807 0.02522 0.0
C629 C 0.75831 0.62039 0.05515 0.0
C630 C 0.73194 0.63027 0.01772 0.0
C631 C 0.7758 0.64267 0.04719 0.0
C632 C 0.71904 0.53657 0.13151 0.0
N633 N 0.71827 0.55602 0.12529 0.0
C634 C 0.74117 0.57245 0.19851 0.0
C635 C 0.72872 0.57366 0.15805 0.0
C636 C 0.74318 0.55299 0.20489 0.0
C637 C 0.7316 0.53472 0.17117 0.0
H638 H 0.71031 0.52269 0.10512 0.0
H639 H 0.72753 0.58879 0.15235 0.0
C640 C 0.65582 0.59841 0.06967 0.0
N641 N 0.67789 0.60391 0.0748 0.0
C642 C 0.64724 0.60982 0.09796 0.0
C643 C 0.6845 0.63297 0.1347 0.0
C644 C 0.69225 0.62081 0.10647 0.0
C645 C 0.66161 0.62713 0.13143 0.0
H646 H 0.64465 0.58445 0.04533 0.0
H647 H 0.70943 0.62416 0.11167 0.0
C648 C 0.71706 0.53857 0.00287 0.0
N649 N 0.75311 0.53108 0.98929 0.0
C650 C 0.73928 0.55598 0.01214 0.0
C651 C 0.71318 0.51733 0.98682 0.0
C652 C 0.75727 0.55187 0.00501 0.0
C653 C 0.73163 0.51388 0.98016 0.0
C654 C 0.6774 0.57533 0.92545 0.0
C655 C 0.6693 0.55746 0.8907 0.0
C656 C 0.68678 0.59765 0.90804 0.0
C657 C 0.67106 0.56226 0.83898 0.0
C658 C 0.68825 0.60175 0.85602 0.0
N659 N 0.68045 0.58413 0.82285 0.0
C660 C 0.62387 0.51197 0.02006 0.0
C661 C 0.64443 0.50026 0.96756 0.0
C662 C 0.60365 0.49183 0.01012 0.0
N663 N 0.64365 0.51574 0.99875 0.0
C664 C 0.62462 0.47993 0.95646 0.0
C665 C 0.60385 0.47549 0.97787 0.0
H666 H 0.62384 0.52463 0.04483 0.0
H667 H 0.66046 0.50376 0.9513 0.0
C668 C 0.74586 0.60162 0.91957 0.0
N669 N 0.72661 0.58126 0.92697 0.0
C670 C 0.76142 0.604 0.88202 0.0
C671 C 0.73653 0.56487 0.85844 0.0
C672 C 0.72144 0.5633 0.89608 0.0
C673 C 0.75717 0.58522 0.85208 0.0
H674 H 0.74982 0.6158 0.94389 0.0
H675 H 0.70606 0.54728 0.90247 0.0
O676 O 0.67202 0.55453 0.08322 0.0
O677 O 0.7189 0.59243 0.04791 0.0
O678 O 0.69912 0.54224 0.00878 0.0
O679 O 0.67625 0.57095 0.9762 0.0
H680 H 0.67877 0.57762 0.16819 0.0
H681 H 0.65836 0.51169 0.10547 0.0
H682 H 0.67378 0.56121 0.25435 0.0
H683 H 0.6537 0.49642 0.19274 0.0
H684 H 0.74681 0.66504 0.99331 0.0
H685 H 0.76188 0.60819 0.073 0.0
H686 H 0.71494 0.62579 0.0064 0.0
H687 H 0.79298 0.64774 0.05861 0.0
H688 H 0.7493 0.58671 0.22424 0.0
H689 H 0.73276 0.51946 0.17438 0.0
H690 H 0.62947 0.60485 0.0946 0.0
H691 H 0.69596 0.64596 0.16076 0.0
H692 H 0.74262 0.57251 0.02442 0.0
H693 H 0.69608 0.50366 0.97948 0.0
H694 H 0.77455 0.56522 0.01191 0.0
H695 H 0.72887 0.49753 0.96769 0.0
H696 H 0.66196 0.5401 0.9035 0.0
H697 H 0.69284 0.61165 0.93433 0.0
H698 H 0.66502 0.54861 0.81166 0.0
H699 H 0.69557 0.61895 0.84201 0.0
H700 H 0.588 0.48922 0.02698 0.0
H701 H 0.62561 0.46769 0.93192 0.0
H702 H 0.77713 0.62001 0.87832 0.0
H703 H 0.73236 0.55009 0.83552 0.0
Li704 Li 0.14628 0.70637 0.24368 0.0
Li705 Li 0.10588 0.68876 0.21587 0.0
Li706 Li 0.13253 0.67552 0.18362 0.0
Li707 Li 0.13734 0.7118 0.158 0.0
C708 C 0.12432 0.67102 0.30274 0.0
N709 N 0.13141 0.66542 0.40333 0.0
C710 C 0.1106 0.67254 0.34016 0.0
C711 C 0.14155 0.66653 0.31644 0.0
C712 C 0.11447 0.66967 0.39082 0.0
C713 C 0.1449 0.6638 0.36751 0.0
C714 C 0.13197 0.74217 0.21346 0.0
C715 C 0.12088 0.7667 0.17185 0.0
N716 N 0.13919 0.78509 0.19238 0.0
C717 C 0.15059 0.76129 0.23444 0.0
C718 C 0.1169 0.74486 0.18219 0.0
C719 C 0.15398 0.78286 0.22322 0.0
C720 C 0.18783 0.72632 0.29719 0.0
N721 N 0.16567 0.72076 0.29925 0.0
C722 C 0.17091 0.73746 0.38108 0.0
C723 C 0.15704 0.72612 0.33989 0.0
C724 C 0.19394 0.74358 0.37996 0.0
C725 C 0.20238 0.7378 0.33743 0.0
H726 H 0.1943 0.72215 0.26403 0.0
H727 H 0.13943 0.72188 0.33987 0.0
C728 C 0.06315 0.65568 0.24752 0.0
N729 N 0.07628 0.67846 0.24104 0.0
C730 C 0.04299 0.64678 0.27507 0.0
C731 C 0.04971 0.68493 0.28681 0.0
C732 C 0.0699 0.69312 0.25932 0.0
C733 C 0.0362 0.66148 0.29608 0.0
H734 H 0.06902 0.64452 0.23363 0.0
H735 H 0.08094 0.71121 0.25445 0.0
C736 C 0.17591 0.70027 0.15749 0.0
N737 N 0.20548 0.68959 0.10943 0.0
C738 C 0.18144 0.70587 0.10657 0.0
C739 C 0.18551 0.68934 0.184 0.0
C740 C 0.19643 0.70033 0.08297 0.0
C741 C 0.20038 0.68403 0.15901 0.0
C742 C 0.09923 0.68005 0.10209 0.0
C743 C 0.10389 0.67204 0.05756 0.0
C744 C 0.08266 0.68648 0.10206 0.0
C745 C 0.09212 0.67101 0.01337 0.0
C746 C 0.07128 0.68522 0.05709 0.0
N747 N 0.07623 0.67759 0.01404 0.0
C748 C 0.12588 0.63173 0.19858 0.0
C749 C 0.14098 0.64708 0.118 0.0
C750 C 0.1263 0.61191 0.18716 0.0
N751 N 0.13337 0.6489 0.16436 0.0
C752 C 0.14187 0.62761 0.10509 0.0
C753 C 0.13452 0.60968 0.13998 0.0
H754 H 0.11941 0.63335 0.23473 0.0
H755 H 0.14652 0.6608 0.09111 0.0
C756 C 0.16954 0.7532 0.1218 0.0
N757 N 0.14966 0.73495 0.10685 0.0
C758 C 0.18247 0.77078 0.08822 0.0
C759 C 0.15444 0.75049 0.02356 0.0
C760 C 0.14168 0.73352 0.05901 0.0
C761 C 0.17545 0.7693 0.03767 0.0
H762 H 0.17576 0.75375 0.15972 0.0
H763 H 0.12594 0.71894 0.04749 0.0
O764 O 0.12114 0.67428 0.25301 0.0
O765 O 0.12856 0.72095 0.22345 0.0
O766 O 0.16122 0.70549 0.18129 0.0
O767 O 0.11035 0.6809 0.1458 0.0
H768 H 0.09729 0.67617 0.33034 0.0
H769 H 0.15234 0.66536 0.28796 0.0
H770 H 0.10406 0.67091 0.4202 0.0
H771 H 0.15826 0.66044 0.37867 0.0
H772 H 0.10943 0.76904 0.14746 0.0
H773 H 0.16244 0.75951 0.2587 0.0
H774 H 0.10239 0.73025 0.16577 0.0
H775 H 0.16839 0.79781 0.23894 0.0
H776 H 0.16386 0.74198 0.41276 0.0
H777 H 0.22002 0.74218 0.33523 0.0
H778 H 0.03348 0.62866 0.28191 0.0
H779 H 0.04505 0.69689 0.30165 0.0
H780 H 0.17411 0.71421 0.08528 0.0
H781 H 0.18136 0.68479 0.22333 0.0
H782 H 0.20079 0.70449 0.04355 0.0
H783 H 0.20782 0.67545 0.179 0.0
H784 H 0.11653 0.66683 0.05705 0.0
H785 H 0.07852 0.69226 0.13645 0.0
H786 H 0.09564 0.66498 0.97854 0.0
H787 H 0.05847 0.69022 0.05645 0.0
H788 H 0.11995 0.59835 0.21482 0.0
H789 H 0.1485 0.62677 0.06842 0.0
H790 H 0.19813 0.78509 0.1017 0.0
H791 H 0.1483 0.74829 0.98505 0.0
Li792 Li 0.4417 0.14731 0.40176 0.0
Li793 Li 0.41843 0.10744 0.38847 0.0
Li794 Li 0.45797 0.13036 0.34919 0.0
Li795 Li 0.42522 0.13555 0.32156 0.0
C796 C 0.45574 0.12694 0.46967 0.0
N797 N 0.46981 0.13465 0.5693 0.0
C798 C 0.44043 0.12432 0.50796 0.0
C799 C 0.47815 0.13334 0.48199 0.0
C800 C 0.4479 0.12836 0.55811 0.0
C801 C 0.48494 0.13718 0.53262 0.0
C802 C 0.38575 0.11938 0.3788 0.0
C803 C 0.3529 0.09291 0.33075 0.0
N804 N 0.33934 0.09651 0.36275 0.0
C805 C 0.37149 0.12282 0.41121 0.0
C806 C 0.37638 0.10429 0.33826 0.0
C807 C 0.34808 0.11109 0.40248 0.0
C808 C 0.43288 0.17655 0.45783 0.0
N809 N 0.44899 0.17055 0.45088 0.0
C810 C 0.47264 0.19709 0.5139 0.0
C811 C 0.46881 0.1807 0.47736 0.0
C812 C 0.45603 0.20324 0.52258 0.0
C813 C 0.43605 0.1929 0.49362 0.0
H814 H 0.41747 0.16851 0.43566 0.0
H815 H 0.48163 0.17608 0.47027 0.0
C816 C 0.40108 0.06088 0.40679 0.0
N817 N 0.39886 0.07905 0.4194 0.0
C818 C 0.38957 0.0407 0.43436 0.0
C819 C 0.37327 0.05817 0.48642 0.0
C820 C 0.38505 0.07797 0.45778 0.0
C821 C 0.37584 0.03933 0.47556 0.0
H822 H 0.41243 0.06235 0.37648 0.0
H823 H 0.38395 0.09282 0.46768 0.0
C824 C 0.47034 0.18096 0.34592 0.0
N825 N 0.49646 0.22646 0.36991 0.0
C826 C 0.46137 0.19541 0.34065 0.0
C827 C 0.49262 0.18965 0.36309 0.0
C828 C 0.47484 0.21836 0.3531 0.0
C829 C 0.50555 0.21271 0.37505 0.0
C830 C 0.42504 0.09664 0.27228 0.0
C831 C 0.44207 0.10553 0.23546 0.0
C832 C 0.40503 0.07614 0.26322 0.0
C833 C 0.43861 0.09397 0.1897 0.0
C834 C 0.40222 0.06508 0.21697 0.0
N835 N 0.41892 0.07416 0.18146 0.0
C836 C 0.48783 0.1131 0.35102 0.0
C837 C 0.49942 0.14503 0.29754 0.0
C838 C 0.50757 0.11245 0.33978 0.0
N839 N 0.48426 0.12932 0.33015 0.0
C840 C 0.51939 0.14502 0.28523 0.0
C841 C 0.52377 0.12867 0.30676 0.0
H842 H 0.47546 0.1009 0.37704 0.0
H843 H 0.49605 0.15766 0.28136 0.0
C844 C 0.40207 0.15587 0.27805 0.0
N845 N 0.4136 0.14491 0.26622 0.0
C846 C 0.39669 0.16688 0.24058 0.0
C847 C 0.41464 0.15471 0.17899 0.0
C848 C 0.41968 0.14392 0.21771 0.0
C849 C 0.4035 0.16689 0.19042 0.0
H850 H 0.39806 0.15711 0.31706 0.0
H851 H 0.42952 0.13588 0.2093 0.0
O852 O 0.44883 0.12323 0.42033 0.0
O853 O 0.40869 0.13062 0.38745 0.0
O854 O 0.45726 0.15836 0.33496 0.0
O855 O 0.42827 0.10744 0.31777 0.0
H856 H 0.4231 0.11961 0.49895 0.0
H857 H 0.49019 0.13546 0.45271 0.0
H858 H 0.43629 0.12656 0.58813 0.0
H859 H 0.50225 0.14222 0.54274 0.0
H860 H 0.34545 0.08123 0.29942 0.0
H861 H 0.37842 0.13432 0.443 0.0
H862 H 0.38709 0.10153 0.3126 0.0
H863 H 0.33685 0.11357 0.42733 0.0
H864 H 0.48841 0.20488 0.53503 0.0
H865 H 0.42271 0.19698 0.49942 0.0
H866 H 0.39181 0.0265 0.42419 0.0
H867 H 0.36314 0.05802 0.51819 0.0
H868 H 0.44412 0.18892 0.32762 0.0
H869 H 0.49972 0.17864 0.36792 0.0
H870 H 0.46808 0.22972 0.34952 0.0
H871 H 0.52277 0.21965 0.38869 0.0
H872 H 0.45765 0.12135 0.24186 0.0
H873 H 0.39183 0.06879 0.29167 0.0
H874 H 0.45158 0.10076 0.16071 0.0
H875 H 0.38678 0.04925 0.20937 0.0
H876 H 0.51036 0.09972 0.35769 0.0
H877 H 0.53124 0.15763 0.25904 0.0
H878 H 0.38798 0.17595 0.25112 0.0
H879 H 0.42063 0.15462 0.14108 0.0
Li880 Li 0.29526 0.43936 0.57289 0.0
Li881 Li 0.31149 0.4154 0.55019 0.0
Li882 Li 0.32814 0.45622 0.51675 0.0
Li883 Li 0.29153 0.42588 0.48908 0.0
C884 C 0.32992 0.45506 0.6335 0.0
N885 N 0.33507 0.47478 0.72752 0.0
C886 C 0.3267 0.44229 0.6773 0.0
C887 C 0.33584 0.47787 0.63746 0.0
C888 C 0.32936 0.45257 0.7245 0.0
C889 C 0.33835 0.48753 0.68536 0.0
C890 C 0.26135 0.38618 0.54847 0.0
C891 C 0.24508 0.34648 0.52793 0.0
N892 N 0.22434 0.34277 0.54276 0.0
C893 C 0.23991 0.38193 0.56406 0.0
C894 C 0.26401 0.36828 0.53071 0.0
C895 C 0.22139 0.35989 0.56065 0.0
C896 C 0.27941 0.46376 0.63351 0.0
N897 N 0.28048 0.44444 0.62771 0.0
C898 C 0.25787 0.42811 0.70132 0.0
C899 C 0.27034 0.42694 0.66091 0.0
C900 C 0.2557 0.44747 0.7075 0.0
C901 C 0.26698 0.46564 0.67347 0.0
H902 H 0.28788 0.47752 0.60675 0.0
H903 H 0.2718 0.41194 0.65558 0.0
C904 C 0.33798 0.39423 0.56193 0.0
N905 N 0.31926 0.39461 0.57851 0.0
C906 C 0.34614 0.38204 0.58867 0.0
C907 C 0.31509 0.37024 0.64778 0.0
C908 C 0.30753 0.38264 0.6199 0.0
C909 C 0.33499 0.37032 0.63303 0.0
H910 H 0.3471 0.40417 0.5292 0.0
H911 H 0.29295 0.38366 0.63269 0.0
C912 C 0.28283 0.46197 0.50317 0.0
N913 N 0.24822 0.47129 0.4859 0.0
C914 C 0.26029 0.44548 0.51297 0.0
C915 C 0.28777 0.48319 0.48459 0.0
C916 C 0.24303 0.45051 0.50399 0.0
C917 C 0.27003 0.48759 0.47613 0.0
C918 C 0.31966 0.41985 0.43177 0.0
C919 C 0.326 0.43492 0.39107 0.0
C920 C 0.31102 0.39672 0.42266 0.0
C921 C 0.32309 0.42651 0.34177 0.0
C922 C 0.30838 0.38896 0.37281 0.0
N923 N 0.31439 0.40389 0.33373 0.0
C924 C 0.37367 0.4901 0.53099 0.0
C925 C 0.3561 0.49525 0.45859 0.0
C926 C 0.39379 0.51026 0.52075 0.0
N927 N 0.35536 0.48312 0.50014 0.0
C928 C 0.37604 0.5153 0.44639 0.0
C929 C 0.39512 0.52306 0.47792 0.0
H930 H 0.37256 0.48008 0.56376 0.0
H931 H 0.34115 0.4894 0.43515 0.0
C932 C 0.25185 0.39736 0.42624 0.0
N933 N 0.27162 0.41747 0.43115 0.0
C934 C 0.23603 0.39473 0.38913 0.0
C935 C 0.26178 0.43294 0.36076 0.0
C936 C 0.27705 0.43482 0.39826 0.0
C937 C 0.2406 0.41296 0.35691 0.0
H938 H 0.24774 0.38368 0.45229 0.0
H939 H 0.29281 0.45067 0.40288 0.0
O940 O 0.3267 0.44514 0.58695 0.0
O941 O 0.2797 0.40762 0.55209 0.0
O942 O 0.30002 0.45734 0.51074 0.0
O943 O 0.32202 0.42772 0.48027 0.0
H944 H 0.32202 0.42459 0.67487 0.0
H945 H 0.33814 0.48791 0.60387 0.0
H946 H 0.32683 0.44287 0.75874 0.0
H947 H 0.34279 0.50512 0.68902 0.0
H948 H 0.2469 0.33249 0.51406 0.0
H949 H 0.23757 0.39548 0.57876 0.0
H950 H 0.2805 0.37116 0.5193 0.0
H951 H 0.20469 0.35638 0.57236 0.0
H952 H 0.24989 0.41394 0.72732 0.0
H953 H 0.26569 0.48084 0.67683 0.0
H954 H 0.36139 0.38233 0.57558 0.0
H955 H 0.30612 0.36173 0.68201 0.0
H956 H 0.25617 0.42895 0.52701 0.0
H957 H 0.30514 0.4961 0.47662 0.0
H958 H 0.22551 0.43789 0.5113 0.0
H959 H 0.27361 0.50394 0.4617 0.0
H960 H 0.33288 0.45289 0.39746 0.0
H961 H 0.3065 0.3849 0.4537 0.0
H962 H 0.32774 0.43797 0.3099 0.0
H963 H 0.30162 0.37108 0.36521 0.0
H964 H 0.40824 0.51568 0.54572 0.0
H965 H 0.37642 0.52487 0.41328 0.0
H966 H 0.21991 0.37902 0.38753 0.0
H967 H 0.26625 0.44727 0.33604 0.0
Li968 Li 0.89388 0.3117 0.71305 0.0
Li969 Li 0.85407 0.29349 0.74009 0.0
Li970 Li 0.86348 0.28893 0.65514 0.0
Li971 Li 0.86903 0.32505 0.68102 0.0
C972 C 0.87611 0.26257 0.70229 0.0
N973 N 0.88423 0.22914 0.66617 0.0
C974 C 0.86269 0.24012 0.71851 0.0
C975 C 0.89373 0.26805 0.66787 0.0
C976 C 0.86705 0.22346 0.69976 0.0
C977 C 0.89755 0.2509 0.65002 0.0
C978 C 0.88609 0.3295 0.80052 0.0
C979 C 0.90124 0.35474 0.87207 0.0
N980 N 0.90248 0.33821 0.89843 0.0
C981 C 0.8875 0.31275 0.82832 0.0
C982 C 0.89302 0.35067 0.8225 0.0
C983 C 0.89585 0.31749 0.87775 0.0
C984 C 0.93784 0.34454 0.74086 0.0
N985 N 0.92345 0.32174 0.73951 0.0
C986 C 0.94844 0.31542 0.79192 0.0
C987 C 0.92843 0.30713 0.7638 0.0
C988 C 0.96331 0.33899 0.79561 0.0
C989 C 0.95795 0.35357 0.76875 0.0
H990 H 0.93308 0.35576 0.72245 0.0
H991 H 0.91638 0.28912 0.76346 0.0
C992 C 0.81987 0.25524 0.78517 0.0
N993 N 0.83304 0.27795 0.79257 0.0
C994 C 0.80457 0.24161 0.82222 0.0
C995 C 0.81586 0.27519 0.87303 0.0
C996 C 0.83099 0.28821 0.83481 0.0
C997 C 0.80275 0.2515 0.86729 0.0
H998 H 0.82145 0.24772 0.75052 0.0
H999 H 0.84128 0.3064 0.83923 0.0
C1000 C 0.89121 0.32562 0.59239 0.0
N1001 N 0.89195 0.33876 0.49317 0.0
C1002 C 0.87098 0.32059 0.56794 0.0
C1003 C 0.91181 0.33736 0.5664 0.0
C1004 C 0.87171 0.32738 0.51778 0.0
C1005 C 0.91183 0.34384 0.51624 0.0
C1006 C 0.82186 0.29873 0.68865 0.0
C1007 C 0.80141 0.28641 0.66237 0.0
C1008 C 0.82373 0.3139 0.72663 0.0
C1009 C 0.78313 0.28953 0.6744 0.0
C1010 C 0.80506 0.31652 0.73754 0.0
N1011 N 0.78532 0.3044 0.71142 0.0
C1012 C 0.83204 0.24722 0.61898 0.0
C1013 C 0.85976 0.26768 0.55637 0.0
C1014 C 0.81946 0.22966 0.58506 0.0
N1015 N 0.85152 0.26593 0.60403 0.0
C1016 C 0.84733 0.25074 0.52059 0.0
C1017 C 0.82652 0.23157 0.5344 0.0
H1018 H 0.82599 0.24621 0.65724 0.0
H1019 H 0.87551 0.28252 0.54544 0.0
C1020 C 0.88517 0.37187 0.67998 0.0
N1021 N 0.86833 0.35172 0.66196 0.0
C1022 C 0.88543 0.39205 0.66851 0.0
C1023 C 0.85107 0.37038 0.61979 0.0
C1024 C 0.85153 0.35064 0.63206 0.0
C1025 C 0.86815 0.39147 0.6382 0.0
H1026 H 0.89841 0.37221 0.70336 0.0
H1027 H 0.83834 0.33444 0.61796 0.0
O1028 O 0.87173 0.27905 0.71895 0.0
O1029 O 0.87848 0.32552 0.75163 0.0
O1030 O 0.89107 0.31938 0.64165 0.0
O1031 O 0.83983 0.29576 0.67706 0.0
H1032 H 0.84904 0.23559 0.74525 0.0
H1033 H 0.9042 0.28534 0.65474 0.0
H1034 H 0.85677 0.206 0.71189 0.0
H1035 H 0.91106 0.25487 0.62321 0.0
H1036 H 0.90667 0.37105 0.88957 0.0
H1037 H 0.88226 0.29628 0.81193 0.0
H1038 H 0.89209 0.36384 0.80141 0.0
H1039 H 0.89707 0.3047 0.89966 0.0
H1040 H 0.95193 0.30352 0.81154 0.0
H1041 H 0.96861 0.37185 0.77117 0.0
H1042 H 0.79439 0.22348 0.8158 0.0
H1043 H 0.81493 0.28346 0.90723 0.0
H1044 H 0.85485 0.31133 0.58717 0.0
H1045 H 0.92762 0.34142 0.58486 0.0
H1046 H 0.85618 0.32354 0.49837 0.0
H1047 H 0.92766 0.35292 0.49566 0.0
H1048 H 0.79972 0.27459 0.63293 0.0
H1049 H 0.8394 0.32361 0.74737 0.0
H1050 H 0.76721 0.28013 0.65431 0.0
H1051 H 0.80627 0.32822 0.76677 0.0
H1052 H 0.80405 0.21499 0.59838 0.0
H1053 H 0.85357 0.25319 0.48213 0.0
H1054 H 0.89914 0.40794 0.68287 0.0
H1055 H 0.83727 0.36905 0.59681 0.0
C1056 C 0.20359 0.43008 0.28337 0.0
C1057 C 0.18992 0.41056 0.25445 0.0
H1058 H 0.22998 0.44602 0.3384 0.0
C1059 C 0.19275 0.39152 0.26017 0.0
H1060 H 0.20217 0.44518 0.27946 0.0
C1061 C 0.20905 0.39214 0.2936 0.0
C1062 C 0.22298 0.41186 0.32175 0.0
H1063 H 0.1824 0.37616 0.2387 0.0
H1064 H 0.21104 0.37734 0.29668 0.0
C1065 C 0.21985 0.43071 0.31659 0.0
C1066 C 0.78767 0.20368 0.50085 0.0
C1067 C 0.81149 0.21451 0.49596 0.0
H1068 H 0.75519 0.18116 0.46817 0.0
C1069 C 0.82056 0.2096 0.45299 0.0
H1070 H 0.77984 0.20735 0.53236 0.0
C1071 C 0.80622 0.19493 0.41536 0.0
C1072 C 0.78253 0.18446 0.42041 0.0
H1073 H 0.83874 0.21719 0.44808 0.0
H1074 H 0.81363 0.19188 0.3821 0.0
C1075 C 0.77341 0.18869 0.46386 0.0
C1076 C 0.60332 0.80088 0.58173 0.0
C1077 C 0.59539 0.77808 0.59499 0.0
H1078 H 0.60941 0.83358 0.60559 0.0
C1079 C 0.58866 0.77131 0.64524 0.0
H1080 H 0.60845 0.80667 0.54328 0.0
C1081 C 0.58883 0.78663 0.68071 0.0
C1082 C 0.59589 0.80922 0.66702 0.0
H1083 H 0.58274 0.75397 0.65696 0.0
H1084 H 0.58253 0.78044 0.71838 0.0
C1085 C 0.60358 0.81626 0.61732 0.0
C1086 C 0.80303 0.60552 0.75093 0.0
C1087 C 0.80745 0.58739 0.74901 0.0
H1088 H 0.78365 0.61908 0.78497 0.0
C1089 C 0.79553 0.56888 0.78186 0.0
H1090 H 0.81201 0.62006 0.72624 0.0
C1091 C 0.77932 0.5683 0.81521 0.0
C1092 C 0.77465 0.58624 0.8167 0.0
H1093 H 0.79828 0.55451 0.78092 0.0
H1094 H 0.77045 0.55377 0.84001 0.0
C1095 C 0.78688 0.60501 0.78466 0.0
C1096 C 0.19629 0.80642 0.91948 0.0
C1097 C 0.21995 0.81638 0.92432 0.0
H1098 H 0.16367 0.78458 0.9522 0.0
C1099 C 0.2289 0.8117 0.96743 0.0
H1100 H 0.18902 0.80983 0.88648 0.0
C1101 C 0.21448 0.79673 0.00426 0.0
C1102 C 0.19069 0.78639 0.99953 0.0
H1103 H 0.24708 0.81884 0.97156 0.0
H1104 H 0.22215 0.79268 0.03547 0.0
C1105 C 0.18181 0.79178 0.95696 0.0
C1106 C 0.40578 0.20338 0.16343 0.0
C1107 C 0.40107 0.18128 0.15133 0.0
H1108 H 0.4109 0.23522 0.13613 0.0
C1109 C 0.39574 0.17382 0.10099 0.0
H1110 H 0.41031 0.20984 0.20165 0.0
C1111 C 0.39608 0.18843 0.06331 0.0
C1112 C 0.40179 0.21086 0.0751 0.0
H1113 H 0.3917 0.15679 0.09054 0.0
H1114 H 0.3923 0.1823 0.02473 0.0
C1115 C 0.40612 0.21798 0.1258 0.0
C1116 C 0.13013 0.55954 0.06667 0.0
C1117 C 0.13569 0.54831 0.10383 0.0
H1118 H 0.12505 0.58739 0.04896 0.0
C1119 C 0.1412 0.55765 0.15274 0.0
H1120 H 0.12609 0.55302 0.02842 0.0
C1121 C 0.14103 0.57762 0.16426 0.0
C1122 C 0.13522 0.58871 0.12727 0.0
H1123 H 0.14533 0.54935 0.18246 0.0
H1124 H 0.14558 0.58442 0.20221 0.0
C1125 C 0.12984 0.57946 0.07827 0.0
C1126 C 0.58627 0.14965 0.28337 0.0
C1127 C 0.58637 0.12923 0.27569 0.0
H1128 H 0.56656 0.16548 0.29954 0.0
C1129 C 0.56567 0.1086 0.27798 0.0
H1130 H 0.60188 0.16585 0.28129 0.0
C1131 C 0.54536 0.1084 0.28791 0.0
C1132 C 0.54528 0.12883 0.29563 0.0
H1133 H 0.56518 0.09256 0.27267 0.0
H1134 H 0.52969 0.09223 0.28909 0.0
C1135 C 0.56598 0.14945 0.2932 0.0
C1136 C 0.4268 0.56125 0.5039 0.0
C1137 C 0.41628 0.5445 0.46647 0.0
H1138 H 0.45442 0.59435 0.52237 0.0
C1139 C 0.42608 0.54833 0.41811 0.0
H1140 H 0.41949 0.55871 0.54139 0.0
C1141 C 0.44617 0.56852 0.40748 0.0
C1142 C 0.45656 0.58537 0.44476 0.0
H1143 H 0.41832 0.53561 0.38872 0.0
H1144 H 0.45343 0.57112 0.36992 0.0
C1145 C 0.44666 0.58162 0.49299 0.0
C1146 C 0.87353 0.44965 0.65131 0.0
C1147 C 0.86703 0.45294 0.60297 0.0
H1148 H 0.87874 0.42767 0.70051 0.0
C1149 C 0.86092 0.43584 0.56634 0.0
H1150 H 0.8786 0.46256 0.68027 0.0
C1151 C 0.86136 0.41599 0.57769 0.0
C1152 C 0.86785 0.41269 0.62603 0.0
H1153 H 0.85557 0.43768 0.5289 0.0
H1154 H 0.85683 0.40333 0.54833 0.0
C1155 C 0.87391 0.42976 0.66271 0.0
C1156 C 0.43454 0.89142 0.78508 0.0
C1157 C 0.41503 0.87108 0.77101 0.0
H1158 H 0.46968 0.90769 0.80598 0.0
C1159 C 0.4164 0.85119 0.76648 0.0
H1160 H 0.43394 0.90697 0.78916 0.0
C1161 C 0.43684 0.85162 0.77595 0.0
C1162 C 0.45628 0.8719 0.79061 0.0
H1163 H 0.40169 0.83532 0.75524 0.0
H1164 H 0.43733 0.83598 0.77267 0.0
C1165 C 0.45493 0.8918 0.79505 0.0
C1166 C 0.55809 0.42478 0.90646 0.0
C1167 C 0.54215 0.41292 0.94479 0.0
H1168 H 0.58987 0.45386 0.8867 0.0
C1169 C 0.54664 0.42183 0.99413 0.0
H1170 H 0.55528 0.41825 0.86817 0.0
C1171 C 0.5666 0.44215 0.00486 0.0
C1172 C 0.58255 0.45397 0.96652 0.0
H1173 H 0.53462 0.4132 0.02441 0.0
H1174 H 0.56966 0.44844 0.04335 0.0
C1175 C 0.57805 0.44505 0.9172 0.0
C1176 C 0.24789 0.46799 0.77695 0.0
C1177 C 0.24112 0.44817 0.74836 0.0
H1178 H 0.24005 0.4834 0.83871 0.0
C1179 C 0.22024 0.42867 0.75934 0.0
H1180 H 0.26396 0.48323 0.76955 0.0
C1181 C 0.20671 0.42875 0.79879 0.0
C1182 C 0.21367 0.44835 0.82814 0.0
H1183 H 0.21426 0.41331 0.73722 0.0
H1184 H 0.19069 0.41345 0.80618 0.0
C1185 C 0.23425 0.46809 0.81649 0.0
C1186 C 0.77395 0.2029 0.95998 0.0
C1187 C 0.7601 0.20893 0.98764 0.0
H1188 H 0.7984 0.21173 0.90096 0.0
C1189 C 0.76042 0.22924 0.97557 0.0
H1190 H 0.77455 0.18767 0.96906 0.0
C1191 C 0.77425 0.24315 0.93649 0.0
C1192 C 0.78794 0.23696 0.9087 0.0
H1193 H 0.7498 0.23426 0.99594 0.0
H1194 H 0.774 0.25858 0.92759 0.0
C1195 C 0.78767 0.21672 0.92097 0.0
C1196 C 0.53716 0.75454 0.12144 0.0
C1197 C 0.53867 0.76183 0.17182 0.0
H1198 H 0.53688 0.76233 0.04313 0.0
C1199 C 0.53937 0.78252 0.18141 0.0
H1200 H 0.53697 0.73889 0.11257 0.0
C1201 C 0.53954 0.79606 0.14148 0.0
C1202 C 0.53883 0.78909 0.09117 0.0
H1203 H 0.54011 0.78844 0.21979 0.0
H1204 H 0.54055 0.81213 0.14991 0.0
C1205 C 0.53716 0.76799 0.08157 0.0
C1206 C 0.7664 0.53165 0.309 0.0
C1207 C 0.78696 0.5514 0.32093 0.0
H1208 H 0.73624 0.51667 0.26369 0.0
C1209 C 0.7928 0.57157 0.29465 0.0
H1210 H 0.76146 0.51578 0.32822 0.0
C1211 C 0.77865 0.57196 0.25705 0.0
C1212 C 0.75806 0.55228 0.24516 0.0
H1213 H 0.80827 0.58723 0.30339 0.0
H1214 H 0.78404 0.58772 0.23695 0.0
C1215 C 0.75208 0.53209 0.27157 0.0
C1216 C 0.20214 0.7514 0.47243 0.0
C1217 C 0.20924 0.75687 0.42196 0.0
H1218 H 0.20994 0.76034 0.55038 0.0
C1219 C 0.23064 0.7758 0.41175 0.0
H1220 H 0.18586 0.7367 0.48141 0.0
C1221 C 0.24438 0.78941 0.45114 0.0
C1222 C 0.23702 0.78432 0.5016 0.0
H1223 H 0.23643 0.78059 0.37316 0.0
H1224 H 0.26039 0.80438 0.44188 0.0
C1225 C 0.21591 0.76495 0.51186 0.0
C1226 C 0.46671 0.23145 0.65095 0.0
C1227 C 0.45899 0.24693 0.64331 0.0
H1228 H 0.47171 0.20537 0.61871 0.0
C1229 C 0.45227 0.24936 0.59453 0.0
H1230 H 0.47179 0.22903 0.68821 0.0
C1231 C 0.45219 0.2358 0.55481 0.0
C1232 C 0.45886 0.21955 0.563 0.0
H1233 H 0.44666 0.26147 0.58726 0.0
H1234 H 0.4465 0.23775 0.51784 0.0
C1235 C 0.46666 0.21789 0.61116 0.0
C1236 C 0.0012 0.34816 0.90961 0.0
C1237 C 0.02117 0.36816 0.89613 0.0
H1238 H 0.96715 0.32353 0.88906 0.0
C1239 C 0.02236 0.37786 0.84846 0.0
H1240 H 0.99974 0.34039 0.94622 0.0
C1241 C 0.00384 0.36809 0.81543 0.0
C1242 C 0.98359 0.34843 0.82933 0.0
H1243 H 0.03769 0.39302 0.83657 0.0
H1244 H 0.00542 0.376 0.77895 0.0
C1245 C 0.98257 0.33846 0.87669 0.0
C1246 C 0.62426 0.99118 0.01871 0.0
C1247 C 0.63705 0.98112 0.00352 0.0
H1248 H 0.62316 0.01707 0.06247 0.0
C1249 C 0.65925 0.98998 0.02235 0.0
H1250 H 0.60699 0.98456 0.00553 0.0
C1251 C 0.66846 0.00852 0.05549 0.0
C1252 C 0.65558 0.01846 0.07087 0.0
H1253 H 0.66954 0.98264 0.01123 0.0
H1254 H 0.68558 0.01494 0.06947 0.0
C1255 C 0.6334 0.00959 0.05201 0.0
C1256 C 0.66284 0.66172 0.1684 0.0
C1257 C 0.65243 0.63796 0.16527 0.0
H1258 H 0.66197 0.69014 0.20151 0.0
C1259 C 0.63333 0.62446 0.19544 0.0
H1260 H 0.6776 0.67247 0.14553 0.0
C1261 C 0.62472 0.63452 0.22806 0.0
C1262 C 0.63482 0.65826 0.23048 0.0
H1263 H 0.62515 0.60611 0.19406 0.0
H1264 H 0.60983 0.62372 0.25054 0.0
C1265 C 0.65393 0.67179 0.20031 0.0
C1266 C 0.01602 0.6644 0.37337 0.0
C1267 C 0.01595 0.65237 0.32986 0.0
H1268 H 0.99836 0.66441 0.44073 0.0
C1269 C 0.99683 0.63095 0.32045 0.0
H1270 H 0.03054 0.68078 0.38234 0.0
C1271 C 0.97869 0.62146 0.35442 0.0
C1272 C 0.97903 0.63325 0.39836 0.0
H1273 H 0.9959 0.62139 0.28688 0.0
H1274 H 0.96428 0.60486 0.34622 0.0
C1275 C 0.99767 0.65499 0.40708 0.0
C1276 C 0.34352 0.01066 0.52916 0.0
C1277 C 0.36541 0.01897 0.50891 0.0
H1278 H 0.31733 0.98608 0.57704 0.0
C1279 C 0.3777 0.00813 0.52215 0.0
H1280 H 0.33354 0.01852 0.51949 0.0
C1281 C 0.36835 0.98947 0.55475 0.0
C1282 C 0.3465 0.98118 0.57513 0.0
H1283 H 0.39473 0.01426 0.50793 0.0
H1284 H 0.3782 0.98136 0.56345 0.0
C1285 C 0.33416 0.99197 0.56184 0.0
C1286 C 0.33124 0.33904 0.69059 0.0
C1287 C 0.34504 0.35985 0.6659 0.0
H1288 H 0.32971 0.314 0.74231 0.0
C1289 C 0.36858 0.37126 0.6747 0.0
H1290 H 0.31305 0.32976 0.68441 0.0
C1291 C 0.37809 0.36223 0.7076 0.0
C1292 C 0.36432 0.34155 0.7327 0.0
H1293 H 0.37969 0.38747 0.65695 0.0
H1294 H 0.39633 0.37142 0.71307 0.0
C1295 C 0.34079 0.32995 0.72351 0.0
loop_
_geom_bond_atom_site_label_1
_geom_bond_atom_site_label_2
_geom_bond_distance
_geom_bond_site_symmetry_2
_ccdc_geom_bond_type
Li0 N17 1.990 . S
Li0 O60 1.956 . S
Li0 O61 1.970 . S
Li0 O62 1.961 1_554 S
Li1 N25 1.990 . S
Li1 O60 1.970 . S
Li1 O61 1.956 . S
Li1 O63 1.961 . S
Li2 N47 1.990 . S
Li2 O60 1.961 1_556 S
Li2 O62 1.956 . S
Li2 O63 1.970 1_556 S
Li3 N53 1.990 . S
Li3 O61 1.961 . S
Li3 O62 1.970 1_554 S
Li3 O63 1.956 . S
C4 C6 1.348 . S
C4 C7 1.356 . S
C4 O60 1.325 . S
N5 C8 1.314 . S
N5 C9 1.279 . S
C6 C4 1.348 . S
C6 C8 1.353 . S
C6 H64 0.929 . S
C7 C4 1.356 . S
C7 C9 1.358 . S
C7 H65 0.930 1_554 S
C8 N5 1.314 . S
C8 C6 1.353 . S
C8 H66 0.930 . S
C9 N5 1.279 . S
C9 C7 1.358 . S
C9 H67 0.930 . S
C10 C13 1.348 . S
C10 C14 1.356 . S
C10 O61 1.325 . S
C11 N12 1.279 . S
C11 C14 1.358 . S
C11 H68 0.930 . S
N12 C11 1.279 . S
N12 C15 1.314 . S
C13 C10 1.348 . S
C13 C15 1.353 . S
C13 H69 0.929 . S
C14 C10 1.356 . S
C14 C11 1.358 . S
C14 H70 0.930 . S
C15 N12 1.314 . S
C15 C13 1.353 . S
C15 H71 0.930 . S
C16 N17 1.314 . S
C16 C21 1.353 . S
C16 H22 0.930 . S
N17 Li0 1.990 . S
N17 C16 1.314 . S
N17 C19 1.279 . S
C18 C19 1.358 . S
C18 C20 1.356 . S
C18 H72 0.930 . S
C19 N17 1.279 . S
C19 C18 1.358 . S
C19 H23 0.930 . S
C20 C18 1.356 . S
C20 C21 1.348 . S
C21 C16 1.353 . S
C21 C20 1.348 . S
C21 H73 0.929 . S
H22 C16 0.930 . S
H23 C19 0.930 . S
C24 N25 1.314 . S
C24 C26 1.353 . S
C24 H30 0.930 . S
N25 Li1 1.990 . S
N25 C24 1.314 . S
N25 C28 1.279 . S
C26 C24 1.353 . S
C26 C29 1.348 . S
C26 H74 0.929 . S
C27 C28 1.358 . S
C27 C29 1.356 . S
C27 H75 0.930 . S
C28 N25 1.279 . S
C28 C27 1.358 . S
C28 H31 0.930 . S
C29 C26 1.348 . S
C29 C27 1.356 . S
H30 C24 0.930 . S
H31 C28 0.930 . S
C32 C34 1.348 . S
C32 C35 1.356 . S
C32 O62 1.325 . S
N33 C36 1.314 . S
N33 C37 1.279 . S
C34 C32 1.348 . S
C34 C36 1.353 . S
C34 H76 0.929 . S
C35 C32 1.356 . S
C35 C37 1.358 . S
C35 H77 0.930 . S
C36 N33 1.314 . S
C36 C34 1.353 . S
C36 H78 0.930 . S
C37 N33 1.279 . S
C37 C35 1.358 . S
C37 H79 0.930 . S
C38 C39 1.348 1_554 S
C38 C40 1.356 . S
C38 O63 1.325 . S
C39 C38 1.348 1_556 S
C39 C41 1.353 . S
C39 H80 0.929 . S
C40 C38 1.356 . S
C40 C42 1.358 . S
C40 H81 0.930 . S
C41 C39 1.353 . S
C41 N43 1.314 . S
C41 H82 0.930 . S
C42 C40 1.358 . S
C42 N43 1.279 1_554 S
C42 H83 0.930 . S
N43 C41 1.314 . S
N43 C42 1.279 1_556 S
C44 C46 1.353 . S
C44 N47 1.314 . S
C44 H50 0.930 . S
C45 N47 1.279 . S
C45 C48 1.358 . S
C45 H51 0.930 . S
C46 C44 1.353 . S
C46 C49 1.348 . S
C46 H84 0.929 . S
N47 Li2 1.990 . S
N47 C44 1.314 . S
N47 C45 1.279 . S
C48 C45 1.358 . S
C48 C49 1.356 . S
C48 H85 0.930 . S
C49 C46 1.348 . S
C49 C48 1.356 . S
H50 C44 0.930 . S
H51 C45 0.930 . S
C52 N53 1.314 . S
C52 C54 1.353 1_554 S
C52 H58 0.930 . S
N53 Li3 1.990 . S
N53 C52 1.314 . S
N53 C56 1.279 1_554 S
C54 C52 1.353 1_556 S
C54 C57 1.348 . S
C54 H86 0.929 1_556 S
C55 C56 1.358 . S
C55 C57 1.356 . S
C55 H87 0.930 . S
C56 N53 1.279 1_556 S
C56 C55 1.358 . S
C56 H59 0.930 . S
C57 C54 1.348 . S
C57 C55 1.356 . S
H58 C52 0.930 . S
H59 C56 0.930 . S
O60 Li0 1.956 . S
O60 Li1 1.970 . S
O60 Li2 1.961 1_554 S
O60 C4 1.325 . S
O61 Li0 1.970 . S
O61 Li1 1.956 . S
O61 Li3 1.961 . S
O61 C10 1.325 . S
O62 Li0 1.961 1_556 S
O62 Li2 1.956 . S
O62 Li3 1.970 1_556 S
O62 C32 1.325 . S
O63 Li1 1.961 . S
O63 Li2 1.970 1_554 S
O63 Li3 1.956 . S
O63 C38 1.325 . S
H64 C6 0.929 . S
H65 C7 0.930 1_556 S
H66 C8 0.930 . S
H67 C9 0.930 . S
H68 C11 0.930 . S
H69 C13 0.929 . S
H70 C14 0.930 . S
H71 C15 0.930 . S
H72 C18 0.930 . S
H73 C21 0.929 . S
H74 C26 0.929 . S
H75 C27 0.930 . S
H76 C34 0.929 . S
H77 C35 0.930 . S
H78 C36 0.930 . S
H79 C37 0.930 . S
H80 C39 0.929 . S
H81 C40 0.930 . S
H82 C41 0.930 . S
H83 C42 0.930 . S
H84 C46 0.929 . S
H85 C48 0.930 . S
H86 C54 0.929 1_554 S
H87 C55 0.930 . S
Li88 N105 1.990 . S
Li88 O148 1.956 . S
Li88 O149 1.970 . S
Li88 O150 1.961 . S
Li89 N113 1.990 . S
Li89 O148 1.970 . S
Li89 O149 1.956 . S
Li89 O151 1.961 . S
Li90 N135 1.990 . S
Li90 O148 1.961 . S
Li90 O150 1.956 . S
Li90 O151 1.970 . S
Li91 N141 1.990 . S
Li91 O149 1.961 . S
Li91 O150 1.970 . S
Li91 O151 1.956 . S
C92 C94 1.348 . S
C92 C95 1.356 . S
C92 O148 1.325 . S
N93 C96 1.314 . S
N93 C97 1.279 . S
C94 C92 1.348 . S
C94 C96 1.353 . S
C94 H152 0.929 . S
C95 C92 1.356 . S
C95 C97 1.358 . S
C95 H153 0.930 . S
C96 N93 1.314 . S
C96 C94 1.353 . S
C96 H154 0.930 . S
C97 N93 1.279 . S
C97 C95 1.358 . S
C97 H155 0.930 . S
C98 C101 1.348 . S
C98 C102 1.356 . S
C98 O149 1.325 . S
C99 N100 1.279 . S
C99 C102 1.358 . S
C99 H156 0.930 . S
N100 C99 1.279 . S
N100 C103 1.314 . S
C101 C98 1.348 . S
C101 C103 1.353 . S
C101 H157 0.929 . S
C102 C98 1.356 . S
C102 C99 1.358 . S
C102 H158 0.930 . S
C103 N100 1.314 . S
C103 C101 1.353 . S
C103 H159 0.930 . S
C104 N105 1.314 . S
C104 C109 1.353 . S
C104 H110 0.930 . S
N105 Li88 1.990 . S
N105 C104 1.314 . S
N105 C107 1.279 . S
C106 C107 1.358 . S
C106 C108 1.356 . S
C106 H160 0.930 . S
C107 N105 1.279 . S
C107 C106 1.358 . S
C107 H111 0.930 . S
C108 C106 1.356 . S
C108 C109 1.348 . S
C109 C104 1.353 . S
C109 C108 1.348 . S
C109 H161 0.929 . S
H110 C104 0.930 . S
H111 C107 0.930 . S
C112 N113 1.314 . S
C112 C114 1.353 . S
C112 H118 0.930 . S
N113 Li89 1.990 . S
N113 C112 1.314 . S
N113 C116 1.279 . S
C114 C112 1.353 . S
C114 C117 1.348 . S
C114 H162 0.929 . S
C115 C116 1.358 . S
C115 C117 1.356 . S
C115 H163 0.930 . S
C116 N113 1.279 . S
C116 C115 1.358 . S
C116 H119 0.930 . S
C117 C114 1.348 . S
C117 C115 1.356 . S
H118 C112 0.930 . S
H119 C116 0.930 . S
C120 C122 1.348 . S
C120 C123 1.356 . S
C120 O150 1.325 . S
N121 C124 1.314 . S
N121 C125 1.279 . S
C122 C120 1.348 . S
C122 C124 1.353 . S
C122 H164 0.929 . S
C123 C120 1.356 . S
C123 C125 1.358 . S
C123 H165 0.930 . S
C124 N121 1.314 . S
C124 C122 1.353 . S
C124 H166 0.930 . S
C125 N121 1.279 . S
C125 C123 1.358 . S
C125 H167 0.930 . S
C126 C127 1.348 . S
C126 C128 1.356 . S
C126 O151 1.325 . S
C127 C126 1.348 . S
C127 C129 1.353 . S
C127 H168 0.929 . S
C128 C126 1.356 . S
C128 C130 1.358 . S
C128 H169 0.930 . S
C129 C127 1.353 . S
C129 N131 1.314 . S
C129 H170 0.930 . S
C130 C128 1.358 . S
C130 N131 1.279 . S
C130 H171 0.930 . S
N131 C129 1.314 . S
N131 C130 1.279 . S
C132 C134 1.353 . S
C132 N135 1.314 . S
C132 H138 0.930 . S
C133 N135 1.279 . S
C133 C136 1.358 . S
C133 H139 0.930 . S
C134 C132 1.353 . S
C134 C137 1.348 . S
C134 H172 0.929 . S
N135 Li90 1.990 . S
N135 C132 1.314 . S
N135 C133 1.279 . S
C136 C133 1.358 . S
C136 C137 1.356 . S
C136 H173 0.930 1_554 S
C137 C134 1.348 . S
C137 C136 1.356 . S
H138 C132 0.930 . S
H139 C133 0.930 . S
C140 N141 1.314 . S
C140 C142 1.353 . S
C140 H146 0.930 . S
N141 Li91 1.990 . S
N141 C140 1.314 . S
N141 C144 1.279 . S
C142 C140 1.353 . S
C142 C145 1.348 . S
C142 H174 0.929 . S
C143 C144 1.358 . S
C143 C145 1.356 . S
C143 H175 0.930 . S
C144 N141 1.279 . S
C144 C143 1.358 . S
C144 H147 0.930 . S
C145 C142 1.348 . S
C145 C143 1.356 . S
H146 C140 0.930 . S
H147 C144 0.930 . S
O148 Li88 1.956 . S
O148 Li89 1.970 . S
O148 Li90 1.961 . S
O148 C92 1.325 . S
O149 Li88 1.970 . S
O149 Li89 1.956 . S
O149 Li91 1.961 . S
O149 C98 1.325 . S
O150 Li88 1.961 . S
O150 Li90 1.956 . S
O150 Li91 1.970 . S
O150 C120 1.325 . S
O151 Li89 1.961 . S
O151 Li90 1.970 . S
O151 Li91 1.956 . S
O151 C126 1.325 . S
H152 C94 0.929 . S
H153 C95 0.930 . S
H154 C96 0.930 . S
H155 C97 0.930 . S
H156 C99 0.930 . S
H157 C101 0.929 . S
H158 C102 0.930 . S
H159 C103 0.930 . S
H160 C106 0.930 . S
H161 C109 0.929 . S
H162 C114 0.929 . S
H163 C115 0.930 . S
H164 C122 0.929 . S
H165 C123 0.930 . S
H166 C124 0.930 . S
H167 C125 0.930 . S
H168 C127 0.929 . S
H169 C128 0.930 . S
H170 C129 0.930 . S
H171 C130 0.930 . S
H172 C134 0.929 . S
H173 C136 0.930 1_556 S
H174 C142 0.929 . S
H175 C143 0.930 . S
Li176 N193 1.990 . S
Li176 O236 1.956 . S
Li176 O237 1.970 . S
Li176 O238 1.961 . S
Li177 N201 1.990 . S
Li177 O236 1.970 . S
Li177 O237 1.956 . S
Li177 O239 1.961 . S
Li178 N223 1.990 . S
Li178 O236 1.961 . S
Li178 O238 1.956 . S
Li178 O239 1.970 . S
Li179 N229 1.990 . S
Li179 O237 1.961 . S
Li179 O238 1.970 . S
Li179 O239 1.956 . S
C180 C182 1.348 . S
C180 C183 1.356 . S
C180 O236 1.325 . S
N181 C184 1.314 . S
N181 C185 1.279 . S
C182 C180 1.348 . S
C182 C184 1.353 . S
C182 H240 0.929 . S
C183 C180 1.356 . S
C183 C185 1.358 . S
C183 H241 0.930 . S
C184 N181 1.314 . S
C184 C182 1.353 . S
C184 H242 0.930 . S
C185 N181 1.279 . S
C185 C183 1.358 . S
C185 H243 0.930 . S
C186 C189 1.348 . S
C186 C190 1.356 . S
C186 O237 1.325 . S
C187 N188 1.279 . S
C187 C190 1.358 . S
C187 H244 0.930 . S
N188 C187 1.279 . S
N188 C191 1.314 . S
C189 C186 1.348 . S
C189 C191 1.353 . S
C189 H245 0.929 . S
C190 C186 1.356 . S
C190 C187 1.358 . S
C190 H246 0.930 . S
C191 N188 1.314 . S
C191 C189 1.353 . S
C191 H247 0.930 . S
C192 N193 1.314 . S
C192 C197 1.353 . S
C192 H198 0.930 . S
N193 Li176 1.990 . S
N193 C192 1.314 . S
N193 C195 1.279 . S
C194 C195 1.358 . S
C194 C196 1.356 . S
C194 H248 0.930 . S
C195 N193 1.279 . S
C195 C194 1.358 . S
C195 H199 0.930 . S
C196 C194 1.356 . S
C196 C197 1.348 . S
C197 C192 1.353 . S
C197 C196 1.348 . S
C197 H249 0.929 . S
H198 C192 0.930 . S
H199 C195 0.930 . S
C200 N201 1.314 . S
C200 C202 1.353 . S
C200 H206 0.930 . S
N201 Li177 1.990 . S
N201 C200 1.314 . S
N201 C204 1.279 . S
C202 C200 1.353 . S
C202 C205 1.348 . S
C202 H250 0.929 . S
C203 C204 1.358 . S
C203 C205 1.356 . S
C203 H251 0.930 . S
C204 N201 1.279 . S
C204 C203 1.358 . S
C204 H207 0.930 . S
C205 C202 1.348 . S
C205 C203 1.356 . S
H206 C200 0.930 . S
H207 C204 0.930 . S
C208 C210 1.348 . S
C208 C211 1.356 . S
C208 O238 1.325 . S
N209 C212 1.314 . S
N209 C213 1.279 . S
C210 C208 1.348 . S
C210 C212 1.353 . S
C210 H252 0.929 . S
C211 C208 1.356 . S
C211 C213 1.358 . S
C211 H253 0.930 . S
C212 N209 1.314 . S
C212 C210 1.353 . S
C212 H254 0.930 . S
C213 N209 1.279 . S
C213 C211 1.358 . S
C213 H255 0.930 . S
C214 C215 1.348 . S
C214 C216 1.356 . S
C214 O239 1.325 . S
C215 C214 1.348 . S
C215 C217 1.353 . S
C215 H256 0.929 . S
C216 C214 1.356 . S
C216 C218 1.358 . S
C216 H257 0.930 . S
C217 C215 1.353 . S
C217 N219 1.314 . S
C217 H258 0.930 . S
C218 C216 1.358 . S
C218 N219 1.279 . S
C218 H259 0.930 . S
N219 C217 1.314 . S
N219 C218 1.279 . S
C220 C222 1.353 . S
C220 N223 1.314 . S
C220 H226 0.930 . S
C221 N223 1.279 . S
C221 C224 1.358 . S
C221 H227 0.930 . S
C222 C220 1.353 . S
C222 C225 1.348 . S
C222 H260 0.929 . S
N223 Li178 1.990 . S
N223 C220 1.314 . S
N223 C221 1.279 . S
C224 C221 1.358 . S
C224 C225 1.356 . S
C224 H261 0.930 . S
C225 C222 1.348 . S
C225 C224 1.356 . S
H226 C220 0.930 . S
H227 C221 0.930 . S
C228 N229 1.314 . S
C228 C230 1.353 . S
C228 H234 0.930 . S
N229 Li179 1.990 . S
N229 C228 1.314 . S
N229 C232 1.279 . S
C230 C228 1.353 . S
C230 C233 1.348 . S
C230 H262 0.929 . S
C231 C232 1.358 . S
C231 C233 1.356 . S
C231 H263 0.930 . S
C232 N229 1.279 . S
C232 C231 1.358 . S
C232 H235 0.930 . S
C233 C230 1.348 . S
C233 C231 1.356 . S
H234 C228 0.930 . S
H235 C232 0.930 . S
O236 Li176 1.956 . S
O236 Li177 1.970 . S
O236 Li178 1.961 . S
O236 C180 1.325 . S
O237 Li176 1.970 . S
O237 Li177 1.956 . S
O237 Li179 1.961 . S
O237 C186 1.325 . S
O238 Li176 1.961 . S
O238 Li178 1.956 . S
O238 Li179 1.970 . S
O238 C208 1.325 . S
O239 Li177 1.961 . S
O239 Li178 1.970 . S
O239 Li179 1.956 . S
O239 C214 1.325 . S
H240 C182 0.929 . S
H241 C183 0.930 . S
H242 C184 0.930 . S
H243 C185 0.930 . S
H244 C187 0.930 . S
H245 C189 0.929 . S
H246 C190 0.930 . S
H247 C191 0.930 . S
H248 C194 0.930 . S
H249 C197 0.929 . S
H250 C202 0.929 . S
H251 C203 0.930 . S
H252 C210 0.929 . S
H253 C211 0.930 . S
H254 C212 0.930 . S
H255 C213 0.930 . S
H256 C215 0.929 . S
H257 C216 0.930 . S
H258 C217 0.930 . S
H259 C218 0.930 . S
H260 C222 0.929 . S
H261 C224 0.930 . S
H262 C230 0.929 . S
H263 C231 0.930 . S
Li264 N281 1.990 . S
Li264 O324 1.956 . S
Li264 O325 1.970 . S
Li264 O326 1.961 . S
Li265 N289 1.990 . S
Li265 O324 1.970 . S
Li265 O325 1.956 . S
Li265 O327 1.961 . S
Li266 N311 1.990 . S
Li266 O324 1.961 . S
Li266 O326 1.956 . S
Li266 O327 1.970 . S
Li267 N317 1.990 . S
Li267 O325 1.961 . S
Li267 O326 1.970 . S
Li267 O327 1.956 . S
C268 C270 1.348 . S
C268 C271 1.356 . S
C268 O324 1.325 . S
N269 C272 1.314 . S
N269 C273 1.279 . S
C270 C268 1.348 . S
C270 C272 1.353 . S
C270 H328 0.929 . S
C271 C268 1.356 . S
C271 C273 1.358 . S
C271 H329 0.930 . S
C272 N269 1.314 . S
C272 C270 1.353 . S
C272 H330 0.930 . S
C273 N269 1.279 . S
C273 C271 1.358 . S
C273 H331 0.930 . S
C274 C277 1.348 . S
C274 C278 1.356 . S
C274 O325 1.325 . S
C275 N276 1.279 . S
C275 C278 1.358 . S
C275 H332 0.930 . S
N276 C275 1.279 . S
N276 C279 1.314 . S
C277 C274 1.348 . S
C277 C279 1.353 . S
C277 H333 0.929 . S
C278 C274 1.356 . S
C278 C275 1.358 . S
C278 H334 0.930 . S
C279 N276 1.314 . S
C279 C277 1.353 . S
C279 H335 0.930 . S
C280 N281 1.314 . S
C280 C285 1.353 . S
C280 H286 0.930 . S
N281 Li264 1.990 . S
N281 C280 1.314 . S
N281 C283 1.279 . S
C282 C283 1.358 . S
C282 C284 1.356 . S
C282 H336 0.930 . S
C283 N281 1.279 . S
C283 C282 1.358 . S
C283 H287 0.930 . S
C284 C282 1.356 . S
C284 C285 1.348 . S
C285 C280 1.353 . S
C285 C284 1.348 . S
C285 H337 0.929 . S
H286 C280 0.930 . S
H287 C283 0.930 . S
C288 N289 1.314 . S
C288 C290 1.353 . S
C288 H294 0.930 . S
N289 Li265 1.990 . S
N289 C288 1.314 . S
N289 C292 1.279 . S
C290 C288 1.353 . S
C290 C293 1.348 . S
C290 H338 0.929 . S
C291 C292 1.358 . S
C291 C293 1.356 . S
C291 H339 0.930 . S
C292 N289 1.279 . S
C292 C291 1.358 . S
C292 H295 0.930 . S
C293 C290 1.348 . S
C293 C291 1.356 . S
H294 C288 0.930 . S
H295 C292 0.930 . S
C296 C298 1.348 . S
C296 C299 1.356 . S
C296 O326 1.325 . S
N297 C300 1.314 . S
N297 C301 1.279 . S
C298 C296 1.348 . S
C298 C300 1.353 . S
C298 H340 0.929 . S
C299 C296 1.356 . S
C299 C301 1.358 . S
C299 H341 0.930 . S
C300 N297 1.314 . S
C300 C298 1.353 . S
C300 H342 0.930 . S
C301 N297 1.279 . S
C301 C299 1.358 . S
C301 H343 0.930 . S
C302 C303 1.348 . S
C302 C304 1.356 . S
C302 O327 1.325 . S
C303 C302 1.348 . S
C303 C305 1.353 . S
C303 H344 0.929 . S
C304 C302 1.356 . S
C304 C306 1.358 . S
C304 H345 0.930 . S
C305 C303 1.353 . S
C305 N307 1.314 . S
C305 H346 0.930 . S
C306 C304 1.358 . S
C306 N307 1.279 . S
C306 H347 0.930 . S
N307 C305 1.314 . S
N307 C306 1.279 . S
C308 C310 1.353 . S
C308 N311 1.314 . S
C308 H314 0.930 . S
C309 N311 1.279 . S
C309 C312 1.358 . S
C309 H315 0.930 . S
C310 C308 1.353 . S
C310 C313 1.348 . S
C310 H348 0.929 . S
N311 Li266 1.990 . S
N311 C308 1.314 . S
N311 C309 1.279 . S
C312 C309 1.358 . S
C312 C313 1.356 . S
C312 H349 0.930 . S
C313 C310 1.348 . S
C313 C312 1.356 . S
H314 C308 0.930 . S
H315 C309 0.930 . S
C316 N317 1.314 . S
C316 C318 1.353 . S
C316 H322 0.930 . S
N317 Li267 1.990 . S
N317 C316 1.314 . S
N317 C320 1.279 . S
C318 C316 1.353 . S
C318 C321 1.348 . S
C318 H350 0.929 . S
C319 C320 1.358 . S
C319 C321 1.356 . S
C319 H351 0.930 . S
C320 N317 1.279 . S
C320 C319 1.358 . S
C320 H323 0.930 . S
C321 C318 1.348 . S
C321 C319 1.356 . S
H322 C316 0.930 . S
H323 C320 0.930 . S
O324 Li264 1.956 . S
O324 Li265 1.970 . S
O324 Li266 1.961 . S
O324 C268 1.325 . S
O325 Li264 1.970 . S
O325 Li265 1.956 . S
O325 Li267 1.961 . S
O325 C274 1.325 . S
O326 Li264 1.961 . S
O326 Li266 1.956 . S
O326 Li267 1.970 . S
O326 C296 1.325 . S
O327 Li265 1.961 . S
O327 Li266 1.970 . S
O327 Li267 1.956 . S
O327 C302 1.325 . S
H328 C270 0.929 . S
H329 C271 0.930 . S
H330 C272 0.930 . S
H331 C273 0.930 . S
H332 C275 0.930 . S
H333 C277 0.929 . S
H334 C278 0.930 . S
H335 C279 0.930 . S
H336 C282 0.930 . S
H337 C285 0.929 . S
H338 C290 0.929 . S
H339 C291 0.930 . S
H340 C298 0.929 . S
H341 C299 0.930 . S
H342 C300 0.930 . S
H343 C301 0.930 . S
H344 C303 0.929 . S
H345 C304 0.930 . S
H346 C305 0.930 . S
H347 C306 0.930 . S
H348 C310 0.929 . S
H349 C312 0.930 . S
H350 C318 0.929 . S
H351 C319 0.930 . S
Li352 N369 1.990 . S
Li352 O412 1.956 . S
Li352 O413 1.970 . S
Li352 O414 1.961 . S
Li353 N377 1.990 . S
Li353 O412 1.970 . S
Li353 O413 1.956 . S
Li353 O415 1.961 . S
Li354 N399 1.990 . S
Li354 O412 1.961 . S
Li354 O414 1.956 . S
Li354 O415 1.970 . S
Li355 N405 1.990 . S
Li355 O413 1.961 . S
Li355 O414 1.970 . S
Li355 O415 1.956 . S
C356 C358 1.348 . S
C356 C359 1.356 . S
C356 O412 1.325 . S
N357 C360 1.314 . S
N357 C361 1.279 . S
C358 C356 1.348 . S
C358 C360 1.353 . S
C358 H416 0.929 . S
C359 C356 1.356 . S
C359 C361 1.358 . S
C359 H417 0.930 . S
C360 N357 1.314 . S
C360 C358 1.353 . S
C360 H418 0.930 . S
C361 N357 1.279 . S
C361 C359 1.358 . S
C361 H419 0.930 . S
C362 C365 1.348 . S
C362 C366 1.356 . S
C362 O413 1.325 . S
C363 N364 1.279 . S
C363 C366 1.358 . S
C363 H420 0.930 . S
N364 C363 1.279 . S
N364 C367 1.314 . S
C365 C362 1.348 . S
C365 C367 1.353 . S
C365 H421 0.929 . S
C366 C362 1.356 . S
C366 C363 1.358 . S
C366 H422 0.930 . S
C367 N364 1.314 . S
C367 C365 1.353 . S
C367 H423 0.930 . S
C368 N369 1.314 . S
C368 C373 1.353 . S
C368 H374 0.930 . S
N369 Li352 1.990 . S
N369 C368 1.314 . S
N369 C371 1.279 . S
C370 C371 1.358 . S
C370 C372 1.356 . S
C370 H424 0.930 . S
C371 N369 1.279 . S
C371 C370 1.358 . S
C371 H375 0.930 . S
C372 C370 1.356 . S
C372 C373 1.348 . S
C373 C368 1.353 . S
C373 C372 1.348 . S
C373 H425 0.929 . S
H374 C368 0.930 . S
H375 C371 0.930 . S
C376 N377 1.314 . S
C376 C378 1.353 . S
C376 H382 0.930 . S
N377 Li353 1.990 . S
N377 C376 1.314 . S
N377 C380 1.279 . S
C378 C376 1.353 . S
C378 C381 1.348 . S
C378 H426 0.929 . S
C379 C380 1.358 . S
C379 C381 1.356 . S
C379 H427 0.930 . S
C380 N377 1.279 . S
C380 C379 1.358 . S
C380 H383 0.930 . S
C381 C378 1.348 . S
C381 C379 1.356 . S
H382 C376 0.930 . S
H383 C380 0.930 . S
C384 C386 1.348 . S
C384 C387 1.356 . S
C384 O414 1.325 . S
N385 C388 1.314 . S
N385 C389 1.279 . S
C386 C384 1.348 . S
C386 C388 1.353 . S
C386 H428 0.929 . S
C387 C384 1.356 . S
C387 C389 1.358 . S
C387 H429 0.930 . S
C388 N385 1.314 . S
C388 C386 1.353 . S
C388 H430 0.930 . S
C389 N385 1.279 . S
C389 C387 1.358 . S
C389 H431 0.930 . S
C390 C391 1.348 . S
C390 C392 1.356 . S
C390 O415 1.325 . S
C391 C390 1.348 . S
C391 C393 1.353 . S
C391 H432 0.929 . S
C392 C390 1.356 . S
C392 C394 1.358 . S
C392 H433 0.930 . S
C393 C391 1.353 . S
C393 N395 1.314 . S
C393 H434 0.930 . S
C394 C392 1.358 . S
C394 N395 1.279 . S
C394 H435 0.930 . S
N395 C393 1.314 . S
N395 C394 1.279 . S
C396 C398 1.353 . S
C396 N399 1.314 . S
C396 H402 0.930 . S
C397 N399 1.279 . S
C397 C400 1.358 . S
C397 H403 0.930 . S
C398 C396 1.353 . S
C398 C401 1.348 . S
C398 H436 0.929 . S
N399 Li354 1.990 . S
N399 C396 1.314 . S
N399 C397 1.279 . S
C400 C397 1.358 . S
C400 C401 1.356 . S
C400 H437 0.930 . S
C401 C398 1.348 . S
C401 C400 1.356 . S
H402 C396 0.930 . S
H403 C397 0.930 . S
C404 N405 1.314 . S
C404 C406 1.353 . S
C404 H410 0.930 . S
N405 Li355 1.990 . S
N405 C404 1.314 . S
N405 C408 1.279 . S
C406 C404 1.353 . S
C406 C409 1.348 . S
C406 H438 0.929 . S
C407 C408 1.358 . S
C407 C409 1.356 . S
C407 H439 0.930 . S
C408 N405 1.279 . S
C408 C407 1.358 . S
C408 H411 0.930 . S
C409 C406 1.348 . S
C409 C407 1.356 . S
H410 C404 0.930 . S
H411 C408 0.930 . S
O412 Li352 1.956 . S
O412 Li353 1.970 . S
O412 Li354 1.961 . S
O412 C356 1.325 . S
O413 Li352 1.970 . S
O413 Li353 1.956 . S
O413 Li355 1.961 . S
O413 C362 1.325 . S
O414 Li352 1.961 . S
O414 Li354 1.956 . S
O414 Li355 1.970 . S
O414 C384 1.325 . S
O415 Li353 1.961 . S
O415 Li354 1.970 . S
O415 Li355 1.956 . S
O415 C390 1.325 . S
H416 C358 0.929 . S
H417 C359 0.930 . S
H418 C360 0.930 . S
H419 C361 0.930 . S
H420 C363 0.930 . S
H421 C365 0.929 . S
H422 C366 0.930 . S
H423 C367 0.930 . S
H424 C370 0.930 . S
H425 C373 0.929 . S
H426 C378 0.929 . S
H427 C379 0.930 . S
H428 C386 0.929 . S
H429 C387 0.930 . S
H430 C388 0.930 . S
H431 C389 0.930 . S
H432 C391 0.929 . S
H433 C392 0.930 . S
H434 C393 0.930 . S
H435 C394 0.930 . S
H436 C398 0.929 . S
H437 C400 0.930 . S
H438 C406 0.929 . S
H439 C407 0.930 . S
Li440 N457 1.990 . S
Li440 O500 1.956 . S
Li440 O501 1.970 . S
Li440 O502 1.961 . S
Li441 N465 1.990 . S
Li441 O500 1.970 . S
Li441 O501 1.956 . S
Li441 O503 1.961 . S
Li442 N487 1.990 . S
Li442 O500 1.961 . S
Li442 O502 1.956 . S
Li442 O503 1.970 . S
Li443 N493 1.990 . S
Li443 O501 1.961 . S
Li443 O502 1.970 . S
Li443 O503 1.956 . S
C444 C446 1.348 . S
C444 C447 1.356 . S
C444 O500 1.325 . S
N445 C448 1.314 . S
N445 C449 1.279 . S
C446 C444 1.348 . S
C446 C448 1.353 . S
C446 H504 0.929 . S
C447 C444 1.356 . S
C447 C449 1.358 . S
C447 H505 0.930 . S
C448 N445 1.314 . S
C448 C446 1.353 . S
C448 H506 0.930 . S
C449 N445 1.279 . S
C449 C447 1.358 . S
C449 H507 0.930 . S
C450 C453 1.348 . S
C450 C454 1.356 . S
C450 O501 1.325 . S
C451 N452 1.279 . S
C451 C454 1.358 1_554 S
C451 H508 0.930 . S
N452 C451 1.279 . S
N452 C455 1.314 . S
C453 C450 1.348 . S
C453 C455 1.353 1_556 S
C453 H509 0.929 . S
C454 C450 1.356 . S
C454 C451 1.358 1_556 S
C454 H510 0.930 . S
C455 N452 1.314 . S
C455 C453 1.353 1_554 S
C455 H511 0.930 . S
C456 N457 1.314 . S
C456 C461 1.353 . S
C456 H462 0.930 . S
N457 Li440 1.990 . S
N457 C456 1.314 . S
N457 C459 1.279 . S
C458 C459 1.358 . S
C458 C460 1.356 . S
C458 H512 0.930 . S
C459 N457 1.279 . S
C459 C458 1.358 . S
C459 H463 0.930 . S
C460 C458 1.356 . S
C460 C461 1.348 . S
C461 C456 1.353 . S
C461 C460 1.348 . S
C461 H513 0.929 . S
H462 C456 0.930 . S
H463 C459 0.930 . S
C464 N465 1.314 . S
C464 C466 1.353 1_556 S
C464 H470 0.930 . S
N465 Li441 1.990 . S
N465 C464 1.314 . S
N465 C468 1.279 1_556 S
C466 C464 1.353 1_554 S
C466 C469 1.348 . S
C466 H514 0.929 . S
C467 C468 1.358 . S
C467 C469 1.356 . S
C467 H515 0.930 . S
C468 N465 1.279 1_554 S
C468 C467 1.358 . S
C468 H471 0.930 . S
C469 C466 1.348 . S
C469 C467 1.356 . S
H470 C464 0.930 . S
H471 C468 0.930 . S
C472 C474 1.348 . S
C472 C475 1.356 . S
C472 O502 1.325 . S
N473 C476 1.314 . S
N473 C477 1.279 . S
C474 C472 1.348 . S
C474 C476 1.353 . S
C474 H516 0.929 . S
C475 C472 1.356 . S
C475 C477 1.358 . S
C475 H517 0.930 . S
C476 N473 1.314 . S
C476 C474 1.353 . S
C476 H518 0.930 . S
C477 N473 1.279 . S
C477 C475 1.358 . S
C477 H519 0.930 . S
C478 C479 1.348 . S
C478 C480 1.356 . S
C478 O503 1.325 . S
C479 C478 1.348 . S
C479 C481 1.353 . S
C479 H520 0.929 . S
C480 C478 1.356 . S
C480 C482 1.358 . S
C480 H521 0.930 . S
C481 C479 1.353 . S
C481 N483 1.314 . S
C481 H522 0.930 . S
C482 C480 1.358 . S
C482 N483 1.279 . S
C482 H523 0.930 . S
N483 C481 1.314 . S
N483 C482 1.279 . S
C484 C486 1.353 . S
C484 N487 1.314 . S
C484 H490 0.930 . S
C485 N487 1.279 . S
C485 C488 1.358 . S
C485 H491 0.930 . S
C486 C484 1.353 . S
C486 C489 1.348 . S
C486 H524 0.929 . S
N487 Li442 1.990 . S
N487 C484 1.314 . S
N487 C485 1.279 . S
C488 C485 1.358 . S
C488 C489 1.356 . S
C488 H525 0.930 . S
C489 C486 1.348 . S
C489 C488 1.356 . S
H490 C484 0.930 . S
H491 C485 0.930 . S
C492 N493 1.314 . S
C492 C494 1.353 . S
C492 H498 0.930 . S
N493 Li443 1.990 . S
N493 C492 1.314 . S
N493 C496 1.279 . S
C494 C492 1.353 . S
C494 C497 1.348 . S
C494 H526 0.929 . S
C495 C496 1.358 . S
C495 C497 1.356 . S
C495 H527 0.930 . S
C496 N493 1.279 . S
C496 C495 1.358 . S
C496 H499 0.930 . S
C497 C494 1.348 . S
C497 C495 1.356 . S
H498 C492 0.930 . S
H499 C496 0.930 . S
O500 Li440 1.956 . S
O500 Li441 1.970 . S
O500 Li442 1.961 . S
O500 C444 1.325 . S
O501 Li440 1.970 . S
O501 Li441 1.956 . S
O501 Li443 1.961 . S
O501 C450 1.325 . S
O502 Li440 1.961 . S
O502 Li442 1.956 . S
O502 Li443 1.970 . S
O502 C472 1.325 . S
O503 Li441 1.961 . S
O503 Li442 1.970 . S
O503 Li443 1.956 . S
O503 C478 1.325 . S
H504 C446 0.929 . S
H505 C447 0.930 . S
H506 C448 0.930 . S
H507 C449 0.930 . S
H508 C451 0.930 . S
H509 C453 0.929 . S
H510 C454 0.930 . S
H511 C455 0.930 . S
H512 C458 0.930 . S
H513 C461 0.929 . S
H514 C466 0.929 . S
H515 C467 0.930 . S
H516 C474 0.929 . S
H517 C475 0.930 . S
H518 C476 0.930 . S
H519 C477 0.930 . S
H520 C479 0.929 . S
H521 C480 0.930 . S
H522 C481 0.930 . S
H523 C482 0.930 . S
H524 C486 0.929 . S
H525 C488 0.930 . S
H526 C494 0.929 . S
H527 C495 0.930 . S
Li528 N545 1.990 . S
Li528 O588 1.956 . S
Li528 O589 1.970 . S
Li528 O590 1.961 . S
Li529 N553 1.990 . S
Li529 O588 1.970 . S
Li529 O589 1.956 . S
Li529 O591 1.961 . S
Li530 N575 1.990 . S
Li530 O588 1.961 . S
Li530 O590 1.956 . S
Li530 O591 1.970 . S
Li531 N581 1.990 . S
Li531 O589 1.961 . S
Li531 O590 1.970 . S
Li531 O591 1.956 . S
C532 C534 1.348 . S
C532 C535 1.356 . S
C532 O588 1.325 . S
N533 C536 1.314 . S
N533 C537 1.279 . S
C534 C532 1.348 . S
C534 C536 1.353 . S
C534 H592 0.929 . S
C535 C532 1.356 . S
C535 C537 1.358 . S
C535 H593 0.930 . S
C536 N533 1.314 . S
C536 C534 1.353 . S
C536 H594 0.930 . S
C537 N533 1.279 . S
C537 C535 1.358 . S
C537 H595 0.930 . S
C538 C541 1.355 . S
C538 C542 1.356 . S
C538 O589 1.325 . S
C539 N540 1.279 . S
C539 C542 1.358 1_554 S
C539 H596 0.930 . S
N540 C539 1.279 . S
N540 C543 1.314 . S
C541 C538 1.355 . S
C541 C543 1.343 1_556 S
C541 H597 0.932 . S
C542 C538 1.356 . S
C542 C539 1.358 1_556 S
C542 H598 0.930 . S
C543 N540 1.314 . S
C543 C541 1.343 1_554 S
C543 H599 0.930 . S
C544 N545 1.314 . S
C544 C549 1.353 . S
C544 H550 0.930 . S
N545 Li528 1.990 . S
N545 C544 1.314 . S
N545 C547 1.279 . S
C546 C547 1.358 . S
C546 C548 1.356 . S
C546 H600 0.930 . S
C547 N545 1.279 . S
C547 C546 1.358 . S
C547 H551 0.930 . S
C548 C546 1.356 . S
C548 C549 1.348 . S
C549 C544 1.353 . S
C549 C548 1.348 . S
C549 H601 0.929 . S
H550 C544 0.930 . S
H551 C547 0.930 . S
C552 N553 1.314 . S
C552 C554 1.353 1_556 S
C552 H558 0.930 . S
N553 Li529 1.990 . S
N553 C552 1.314 . S
N553 C556 1.279 1_556 S
C554 C552 1.353 1_554 S
C554 C557 1.348 . S
C554 H602 0.929 . S
C555 C556 1.358 . S
C555 C557 1.356 . S
C555 H603 0.930 . S
C556 N553 1.279 1_554 S
C556 C555 1.358 . S
C556 H559 0.930 . S
C557 C554 1.348 . S
C557 C555 1.356 . S
H558 C552 0.930 . S
H559 C556 0.930 . S
C560 C562 1.348 . S
C560 C563 1.356 . S
C560 O590 1.325 . S
N561 C564 1.314 . S
N561 C565 1.279 . S
C562 C560 1.348 . S
C562 C564 1.353 . S
C562 H604 0.929 . S
C563 C560 1.356 . S
C563 C565 1.358 . S
C563 H605 0.930 . S
C564 N561 1.314 . S
C564 C562 1.353 . S
C564 H606 0.930 . S
C565 N561 1.279 . S
C565 C563 1.358 . S
C565 H607 0.930 . S
C566 C567 1.348 . S
C566 C568 1.356 . S
C566 O591 1.325 . S
C567 C566 1.348 . S
C567 C569 1.353 . S
C567 H608 0.929 . S
C568 C566 1.356 . S
C568 C570 1.358 . S
C568 H609 0.930 . S
C569 C567 1.353 . S
C569 N571 1.314 . S
C569 H610 0.930 . S
C570 C568 1.358 . S
C570 N571 1.279 . S
C570 H611 0.930 . S
N571 C569 1.314 . S
N571 C570 1.279 . S
C572 C574 1.353 . S
C572 N575 1.314 . S
C572 H578 0.930 . S
C573 N575 1.279 . S
C573 C576 1.358 . S
C573 H579 0.930 . S
C574 C572 1.353 . S
C574 C577 1.348 . S
C574 H612 0.929 . S
N575 Li530 1.990 . S
N575 C572 1.314 . S
N575 C573 1.279 . S
C576 C573 1.358 . S
C576 C577 1.356 . S
C576 H613 0.930 . S
C577 C574 1.348 . S
C577 C576 1.356 . S
H578 C572 0.930 . S
H579 C573 0.930 . S
C580 N581 1.314 . S
C580 C582 1.353 . S
C580 H586 0.930 . S
N581 Li531 1.990 . S
N581 C580 1.314 . S
N581 C584 1.279 . S
C582 C580 1.353 . S
C582 C585 1.348 . S
C582 H614 0.929 . S
C583 C584 1.358 . S
C583 C585 1.356 . S
C583 H615 0.930 . S
C584 N581 1.279 . S
C584 C583 1.358 . S
C584 H587 0.930 . S
C585 C582 1.348 . S
C585 C583 1.356 . S
H586 C580 0.930 . S
H587 C584 0.930 . S
O588 Li528 1.956 . S
O588 Li529 1.970 . S
O588 Li530 1.961 . S
O588 C532 1.325 . S
O589 Li528 1.970 . S
O589 Li529 1.956 . S
O589 Li531 1.961 . S
O589 C538 1.325 . S
O590 Li528 1.961 . S
O590 Li530 1.956 . S
O590 Li531 1.970 . S
O590 C560 1.325 . S
O591 Li529 1.961 . S
O591 Li530 1.970 . S
O591 Li531 1.956 . S
O591 C566 1.325 . S
H592 C534 0.929 . S
H593 C535 0.930 . S
H594 C536 0.930 . S
H595 C537 0.930 . S
H596 C539 0.930 . S
H597 C541 0.932 . S
H598 C542 0.930 . S
H599 C543 0.930 . S
H600 C546 0.930 . S
H601 C549 0.929 . S
H602 C554 0.929 . S
H603 C555 0.930 . S
H604 C562 0.929 . S
H605 C563 0.930 . S
H606 C564 0.930 . S
H607 C565 0.930 . S
H608 C567 0.929 . S
H609 C568 0.930 . S
H610 C569 0.930 . S
H611 C570 0.930 . S
H612 C574 0.929 . S
H613 C576 0.930 . S
H614 C582 0.929 . S
H615 C583 0.930 . S
Li616 N633 1.990 . S
Li616 O676 1.956 . S
Li616 O677 1.970 . S
Li616 O678 1.961 . S
Li617 N641 1.990 . S
Li617 O676 1.970 . S
Li617 O677 1.956 . S
Li617 O679 1.961 1_554 S
Li618 N663 1.990 . S
Li618 O676 1.961 . S
Li618 O678 1.956 . S
Li618 O679 1.970 1_554 S
Li619 N669 1.990 . S
Li619 O677 1.961 1_556 S
Li619 O678 1.970 1_556 S
Li619 O679 1.956 . S
C620 C622 1.348 . S
C620 C623 1.356 . S
C620 O676 1.325 . S
N621 C624 1.314 . S
N621 C625 1.279 . S
C622 C620 1.348 . S
C622 C624 1.353 . S
C622 H680 0.929 . S
C623 C620 1.356 . S
C623 C625 1.358 . S
C623 H681 0.930 . S
C624 N621 1.314 . S
C624 C622 1.353 . S
C624 H682 0.930 . S
C625 N621 1.279 . S
C625 C623 1.358 . S
C625 H683 0.930 . S
C626 C629 1.348 . S
C626 C630 1.356 . S
C626 O677 1.325 . S
C627 N628 1.279 . S
C627 C630 1.358 . S
C627 H684 0.930 . S
N628 C627 1.279 . S
N628 C631 1.314 . S
C629 C626 1.348 . S
C629 C631 1.353 . S
C629 H685 0.929 . S
C630 C626 1.356 . S
C630 C627 1.358 . S
C630 H686 0.930 1_554 S
C631 N628 1.314 . S
C631 C629 1.353 . S
C631 H687 0.930 . S
C632 N633 1.314 . S
C632 C637 1.353 . S
C632 H638 0.930 . S
N633 Li616 1.990 . S
N633 C632 1.314 . S
N633 C635 1.279 . S
C634 C635 1.358 . S
C634 C636 1.356 . S
C634 H688 0.930 . S
C635 N633 1.279 . S
C635 C634 1.358 . S
C635 H639 0.930 . S
C636 C634 1.356 . S
C636 C637 1.348 . S
C637 C632 1.353 . S
C637 C636 1.348 . S
C637 H689 0.929 . S
H638 C632 0.930 . S
H639 C635 0.930 . S
C640 N641 1.314 . S
C640 C642 1.353 . S
C640 H646 0.930 . S
N641 Li617 1.990 . S
N641 C640 1.314 . S
N641 C644 1.279 . S
C642 C640 1.353 . S
C642 C645 1.348 . S
C642 H690 0.929 . S
C643 C644 1.358 . S
C643 C645 1.356 . S
C643 H691 0.930 . S
C644 N641 1.279 . S
C644 C643 1.358 . S
C644 H647 0.930 . S
C645 C642 1.348 . S
C645 C643 1.356 . S
H646 C640 0.930 . S
H647 C644 0.930 . S
C648 C650 1.348 1_554 S
C648 C651 1.356 . S
C648 O678 1.325 . S
N649 C652 1.314 . S
N649 C653 1.279 1_556 S
C650 C648 1.348 1_556 S
C650 C652 1.353 . S
C650 H692 0.929 . S
C651 C648 1.356 . S
C651 C653 1.358 . S
C651 H693 0.930 . S
C652 N649 1.314 . S
C652 C650 1.353 . S
C652 H694 0.930 . S
C653 N649 1.279 1_554 S
C653 C651 1.358 . S
C653 H695 0.930 . S
C654 C655 1.348 . S
C654 C656 1.356 . S
C654 O679 1.325 . S
C655 C654 1.348 . S
C655 C657 1.353 . S
C655 H696 0.929 . S
C656 C654 1.356 . S
C656 C658 1.358 . S
C656 H697 0.930 . S
C657 C655 1.353 . S
C657 N659 1.314 . S
C657 H698 0.930 . S
C658 C656 1.358 . S
C658 N659 1.279 . S
C658 H699 0.930 . S
N659 C657 1.314 . S
N659 C658 1.279 . S
C660 C662 1.353 . S
C660 N663 1.314 . S
C660 H666 0.930 . S
C661 N663 1.279 1_556 S
C661 C664 1.358 . S
C661 H667 0.930 . S
C662 C660 1.353 . S
C662 C665 1.348 1_554 S
C662 H700 0.929 . S
N663 Li618 1.990 . S
N663 C660 1.314 . S
N663 C661 1.279 1_554 S
C664 C661 1.358 . S
C664 C665 1.356 . S
C664 H701 0.930 . S
C665 C662 1.348 1_556 S
C665 C664 1.356 . S
H666 C660 0.930 . S
H667 C661 0.930 . S
C668 N669 1.314 . S
C668 C670 1.353 . S
C668 H674 0.930 . S
N669 Li619 1.990 . S
N669 C668 1.314 . S
N669 C672 1.279 . S
C670 C668 1.353 . S
C670 C673 1.348 . S
C670 H702 0.929 . S
C671 C672 1.358 . S
C671 C673 1.356 . S
C671 H703 0.930 . S
C672 N669 1.279 . S
C672 C671 1.358 . S
C672 H675 0.930 . S
C673 C670 1.348 . S
C673 C671 1.356 . S
H674 C668 0.930 . S
H675 C672 0.930 . S
O676 Li616 1.956 . S
O676 Li617 1.970 . S
O676 Li618 1.961 . S
O676 C620 1.325 . S
O677 Li616 1.970 . S
O677 Li617 1.956 . S
O677 Li619 1.961 1_554 S
O677 C626 1.325 . S
O678 Li616 1.961 . S
O678 Li618 1.956 . S
O678 Li619 1.970 1_554 S
O678 C648 1.325 . S
O679 Li617 1.961 1_556 S
O679 Li618 1.970 1_556 S
O679 Li619 1.956 . S
O679 C654 1.325 . S
H680 C622 0.929 . S
H681 C623 0.930 . S
H682 C624 0.930 . S
H683 C625 0.930 . S
H684 C627 0.930 . S
H685 C629 0.929 . S
H686 C630 0.930 1_556 S
H687 C631 0.930 . S
H688 C634 0.930 . S
H689 C637 0.929 . S
H690 C642 0.929 . S
H691 C643 0.930 . S
H692 C650 0.929 . S
H693 C651 0.930 . S
H694 C652 0.930 . S
H695 C653 0.930 . S
H696 C655 0.929 . S
H697 C656 0.930 . S
H698 C657 0.930 . S
H699 C658 0.930 . S
H700 C662 0.929 . S
H701 C664 0.930 . S
H702 C670 0.929 . S
H703 C671 0.930 . S
Li704 N721 1.990 . S
Li704 O764 1.956 . S
Li704 O765 1.970 . S
Li704 O766 1.961 . S
Li705 N729 1.990 . S
Li705 O764 1.970 . S
Li705 O765 1.956 . S
Li705 O767 1.961 . S
Li706 N751 1.990 . S
Li706 O764 1.961 . S
Li706 O766 1.956 . S
Li706 O767 1.970 . S
Li707 N757 1.990 . S
Li707 O765 1.961 . S
Li707 O766 1.970 . S
Li707 O767 1.956 . S
C708 C710 1.348 . S
C708 C711 1.356 . S
C708 O764 1.325 . S
N709 C712 1.314 . S
N709 C713 1.279 . S
C710 C708 1.348 . S
C710 C712 1.353 . S
C710 H768 0.929 . S
C711 C708 1.356 . S
C711 C713 1.358 . S
C711 H769 0.930 . S
C712 N709 1.314 . S
C712 C710 1.353 . S
C712 H770 0.930 . S
C713 N709 1.279 . S
C713 C711 1.358 . S
C713 H771 0.930 . S
C714 C717 1.348 . S
C714 C718 1.356 . S
C714 O765 1.325 . S
C715 N716 1.279 . S
C715 C718 1.358 . S
C715 H772 0.930 . S
N716 C715 1.279 . S
N716 C719 1.314 . S
C717 C714 1.348 . S
C717 C719 1.353 . S
C717 H773 0.929 . S
C718 C714 1.356 . S
C718 C715 1.358 . S
C718 H774 0.930 . S
C719 N716 1.314 . S
C719 C717 1.353 . S
C719 H775 0.930 . S
C720 N721 1.314 . S
C720 C725 1.353 . S
C720 H726 0.930 . S
N721 Li704 1.990 . S
N721 C720 1.314 . S
N721 C723 1.279 . S
C722 C723 1.358 . S
C722 C724 1.356 . S
C722 H776 0.930 . S
C723 N721 1.279 . S
C723 C722 1.358 . S
C723 H727 0.930 . S
C724 C722 1.356 . S
C724 C725 1.348 . S
C725 C720 1.353 . S
C725 C724 1.348 . S
C725 H777 0.929 . S
H726 C720 0.930 . S
H727 C723 0.930 . S
C728 N729 1.314 . S
C728 C730 1.353 . S
C728 H734 0.930 . S
N729 Li705 1.990 . S
N729 C728 1.314 . S
N729 C732 1.279 . S
C730 C728 1.353 . S
C730 C733 1.348 . S
C730 H778 0.929 . S
C731 C732 1.358 . S
C731 C733 1.356 . S
C731 H779 0.930 . S
C732 N729 1.279 . S
C732 C731 1.358 . S
C732 H735 0.930 . S
C733 C730 1.348 . S
C733 C731 1.356 . S
H734 C728 0.930 . S
H735 C732 0.930 . S
C736 C738 1.348 . S
C736 C739 1.356 . S
C736 O766 1.325 . S
N737 C740 1.314 . S
N737 C741 1.279 . S
C738 C736 1.348 . S
C738 C740 1.353 . S
C738 H780 0.929 . S
C739 C736 1.356 . S
C739 C741 1.358 . S
C739 H781 0.930 . S
C740 N737 1.314 . S
C740 C738 1.353 . S
C740 H782 0.930 . S
C741 N737 1.279 . S
C741 C739 1.358 . S
C741 H783 0.930 . S
C742 C743 1.348 . S
C742 C744 1.356 . S
C742 O767 1.325 . S
C743 C742 1.348 . S
C743 C745 1.353 . S
C743 H784 0.929 . S
C744 C742 1.356 . S
C744 C746 1.358 . S
C744 H785 0.930 . S
C745 C743 1.353 . S
C745 N747 1.314 . S
C745 H786 0.930 . S
C746 C744 1.358 . S
C746 N747 1.279 . S
C746 H787 0.930 . S
N747 C745 1.314 . S
N747 C746 1.279 . S
C748 C750 1.353 . S
C748 N751 1.314 . S
C748 H754 0.930 . S
C749 N751 1.279 . S
C749 C752 1.358 . S
C749 H755 0.930 . S
C750 C748 1.353 . S
C750 C753 1.348 . S
C750 H788 0.929 . S
N751 Li706 1.990 . S
N751 C748 1.314 . S
N751 C749 1.279 . S
C752 C749 1.358 . S
C752 C753 1.356 . S
C752 H789 0.930 . S
C753 C750 1.348 . S
C753 C752 1.356 . S
H754 C748 0.930 . S
H755 C749 0.930 . S
C756 N757 1.314 . S
C756 C758 1.353 . S
C756 H762 0.930 . S
N757 Li707 1.990 . S
N757 C756 1.314 . S
N757 C760 1.279 . S
C758 C756 1.353 . S
C758 C761 1.348 . S
C758 H790 0.929 . S
C759 C760 1.358 . S
C759 C761 1.356 . S
C759 H791 0.930 1_554 S
C760 N757 1.279 . S
C760 C759 1.358 . S
C760 H763 0.930 . S
C761 C758 1.348 . S
C761 C759 1.356 . S
H762 C756 0.930 . S
H763 C760 0.930 . S
O764 Li704 1.956 . S
O764 Li705 1.970 . S
O764 Li706 1.961 . S
O764 C708 1.325 . S
O765 Li704 1.970 . S
O765 Li705 1.956 . S
O765 Li707 1.961 . S
O765 C714 1.325 . S
O766 Li704 1.961 . S
O766 Li706 1.956 . S
O766 Li707 1.970 . S
O766 C736 1.325 . S
O767 Li705 1.961 . S
O767 Li706 1.970 . S
O767 Li707 1.956 . S
O767 C742 1.325 . S
H768 C710 0.929 . S
H769 C711 0.930 . S
H770 C712 0.930 . S
H771 C713 0.930 . S
H772 C715 0.930 . S
H773 C717 0.929 . S
H774 C718 0.930 . S
H775 C719 0.930 . S
H776 C722 0.930 . S
H777 C725 0.929 . S
H778 C730 0.929 . S
H779 C731 0.930 . S
H780 C738 0.929 . S
H781 C739 0.930 . S
H782 C740 0.930 . S
H783 C741 0.930 . S
H784 C743 0.929 . S
H785 C744 0.930 . S
H786 C745 0.930 . S
H787 C746 0.930 . S
H788 C750 0.929 . S
H789 C752 0.930 . S
H790 C758 0.929 . S
H791 C759 0.930 1_556 S
Li792 N809 1.990 . S
Li792 O852 1.956 . S
Li792 O853 1.970 . S
Li792 O854 1.961 . S
Li793 N817 1.990 . S
Li793 O852 1.970 . S
Li793 O853 1.956 . S
Li793 O855 1.961 . S
Li794 N839 1.990 . S
Li794 O852 1.961 . S
Li794 O854 1.956 . S
Li794 O855 1.970 . S
Li795 N845 1.990 . S
Li795 O853 1.961 . S
Li795 O854 1.970 . S
Li795 O855 1.956 . S
C796 C798 1.348 . S
C796 C799 1.356 . S
C796 O852 1.325 . S
N797 C800 1.314 . S
N797 C801 1.279 . S
C798 C796 1.348 . S
C798 C800 1.353 . S
C798 H856 0.929 . S
C799 C796 1.356 . S
C799 C801 1.358 . S
C799 H857 0.930 . S
C800 N797 1.314 . S
C800 C798 1.353 . S
C800 H858 0.930 . S
C801 N797 1.279 . S
C801 C799 1.358 . S
C801 H859 0.930 . S
C802 C805 1.348 . S
C802 C806 1.356 . S
C802 O853 1.325 . S
C803 N804 1.279 . S
C803 C806 1.358 . S
C803 H860 0.930 . S
N804 C803 1.279 . S
N804 C807 1.314 . S
C805 C802 1.348 . S
C805 C807 1.353 . S
C805 H861 0.929 . S
C806 C802 1.356 . S
C806 C803 1.358 . S
C806 H862 0.930 . S
C807 N804 1.314 . S
C807 C805 1.353 . S
C807 H863 0.930 . S
C808 N809 1.314 . S
C808 C813 1.353 . S
C808 H814 0.930 . S
N809 Li792 1.990 . S
N809 C808 1.314 . S
N809 C811 1.279 . S
C810 C811 1.358 . S
C810 C812 1.356 . S
C810 H864 0.930 . S
C811 N809 1.279 . S
C811 C810 1.358 . S
C811 H815 0.930 . S
C812 C810 1.356 . S
C812 C813 1.348 . S
C813 C808 1.353 . S
C813 C812 1.348 . S
C813 H865 0.929 . S
H814 C808 0.930 . S
H815 C811 0.930 . S
C816 N817 1.314 . S
C816 C818 1.353 . S
C816 H822 0.930 . S
N817 Li793 1.990 . S
N817 C816 1.314 . S
N817 C820 1.279 . S
C818 C816 1.353 . S
C818 C821 1.348 . S
C818 H866 0.929 . S
C819 C820 1.358 . S
C819 C821 1.356 . S
C819 H867 0.930 . S
C820 N817 1.279 . S
C820 C819 1.358 . S
C820 H823 0.930 . S
C821 C818 1.348 . S
C821 C819 1.356 . S
H822 C816 0.930 . S
H823 C820 0.930 . S
C824 C826 1.348 . S
C824 C827 1.356 . S
C824 O854 1.325 . S
N825 C828 1.314 . S
N825 C829 1.279 . S
C826 C824 1.348 . S
C826 C828 1.353 . S
C826 H868 0.929 . S
C827 C824 1.356 . S
C827 C829 1.358 . S
C827 H869 0.930 . S
C828 N825 1.314 . S
C828 C826 1.353 . S
C828 H870 0.930 . S
C829 N825 1.279 . S
C829 C827 1.358 . S
C829 H871 0.930 . S
C830 C831 1.348 . S
C830 C832 1.356 . S
C830 O855 1.325 . S
C831 C830 1.348 . S
C831 C833 1.353 . S
C831 H872 0.929 . S
C832 C830 1.356 . S
C832 C834 1.358 . S
C832 H873 0.930 . S
C833 C831 1.353 . S
C833 N835 1.314 . S
C833 H874 0.930 . S
C834 C832 1.358 . S
C834 N835 1.279 . S
C834 H875 0.930 . S
N835 C833 1.314 . S
N835 C834 1.279 . S
C836 C838 1.353 . S
C836 N839 1.314 . S
C836 H842 0.930 . S
C837 N839 1.279 . S
C837 C840 1.358 . S
C837 H843 0.930 . S
C838 C836 1.353 . S
C838 C841 1.348 . S
C838 H876 0.929 . S
N839 Li794 1.990 . S
N839 C836 1.314 . S
N839 C837 1.279 . S
C840 C837 1.358 . S
C840 C841 1.356 . S
C840 H877 0.930 . S
C841 C838 1.348 . S
C841 C840 1.356 . S
H842 C836 0.930 . S
H843 C837 0.930 . S
C844 N845 1.314 . S
C844 C846 1.353 . S
C844 H850 0.930 . S
N845 Li795 1.990 . S
N845 C844 1.314 . S
N845 C848 1.279 . S
C846 C844 1.353 . S
C846 C849 1.348 . S
C846 H878 0.929 . S
C847 C848 1.358 . S
C847 C849 1.356 . S
C847 H879 0.930 . S
C848 N845 1.279 . S
C848 C847 1.358 . S
C848 H851 0.930 . S
C849 C846 1.348 . S
C849 C847 1.356 . S
H850 C844 0.930 . S
H851 C848 0.930 . S
O852 Li792 1.956 . S
O852 Li793 1.970 . S
O852 Li794 1.961 . S
O852 C796 1.325 . S
O853 Li792 1.970 . S
O853 Li793 1.956 . S
O853 Li795 1.961 . S
O853 C802 1.325 . S
O854 Li792 1.961 . S
O854 Li794 1.956 . S
O854 Li795 1.970 . S
O854 C824 1.325 . S
O855 Li793 1.961 . S
O855 Li794 1.970 . S
O855 Li795 1.956 . S
O855 C830 1.325 . S
H856 C798 0.929 . S
H857 C799 0.930 . S
H858 C800 0.930 . S
H859 C801 0.930 . S
H860 C803 0.930 . S
H861 C805 0.929 . S
H862 C806 0.930 . S
H863 C807 0.930 . S
H864 C810 0.930 . S
H865 C813 0.929 . S
H866 C818 0.929 . S
H867 C819 0.930 . S
H868 C826 0.929 . S
H869 C827 0.930 . S
H870 C828 0.930 . S
H871 C829 0.930 . S
H872 C831 0.929 . S
H873 C832 0.930 . S
H874 C833 0.930 . S
H875 C834 0.930 . S
H876 C838 0.929 . S
H877 C840 0.930 . S
H878 C846 0.929 . S
H879 C847 0.930 . S
Li880 N897 1.990 . S
Li880 O940 1.956 . S
Li880 O941 1.970 . S
Li880 O942 1.961 . S
Li881 N905 1.990 . S
Li881 O940 1.970 . S
Li881 O941 1.956 . S
Li881 O943 1.961 . S
Li882 N927 1.990 . S
Li882 O940 1.961 . S
Li882 O942 1.956 . S
Li882 O943 1.970 . S
Li883 N933 1.990 . S
Li883 O941 1.961 . S
Li883 O942 1.970 . S
Li883 O943 1.956 . S
C884 C886 1.348 . S
C884 C887 1.356 . S
C884 O940 1.325 . S
N885 C888 1.314 . S
N885 C889 1.279 . S
C886 C884 1.348 . S
C886 C888 1.353 . S
C886 H944 0.929 . S
C887 C884 1.356 . S
C887 C889 1.358 . S
C887 H945 0.930 . S
C888 N885 1.314 . S
C888 C886 1.353 . S
C888 H946 0.930 . S
C889 N885 1.279 . S
C889 C887 1.358 . S
C889 H947 0.930 . S
C890 C893 1.348 . S
C890 C894 1.356 . S
C890 O941 1.325 . S
C891 N892 1.279 . S
C891 C894 1.358 . S
C891 H948 0.930 . S
N892 C891 1.279 . S
N892 C895 1.314 . S
C893 C890 1.348 . S
C893 C895 1.353 . S
C893 H949 0.929 . S
C894 C890 1.356 . S
C894 C891 1.358 . S
C894 H950 0.930 . S
C895 N892 1.314 . S
C895 C893 1.353 . S
C895 H951 0.930 . S
C896 N897 1.314 . S
C896 C901 1.353 . S
C896 H902 0.930 . S
N897 Li880 1.990 . S
N897 C896 1.314 . S
N897 C899 1.279 . S
C898 C899 1.358 . S
C898 C900 1.356 . S
C898 H952 0.930 . S
C899 N897 1.279 . S
C899 C898 1.358 . S
C899 H903 0.930 . S
C900 C898 1.356 . S
C900 C901 1.348 . S
C901 C896 1.353 . S
C901 C900 1.348 . S
C901 H953 0.929 . S
H902 C896 0.930 . S
H903 C899 0.930 . S
C904 N905 1.314 . S
C904 C906 1.353 . S
C904 H910 0.930 . S
N905 Li881 1.990 . S
N905 C904 1.314 . S
N905 C908 1.279 . S
C906 C904 1.353 . S
C906 C909 1.348 . S
C906 H954 0.929 . S
C907 C908 1.358 . S
C907 C909 1.356 . S
C907 H955 0.930 . S
C908 N905 1.279 . S
C908 C907 1.358 . S
C908 H911 0.930 . S
C909 C906 1.348 . S
C909 C907 1.356 . S
H910 C904 0.930 . S
H911 C908 0.930 . S
C912 C914 1.348 . S
C912 C915 1.356 . S
C912 O942 1.325 . S
N913 C916 1.314 . S
N913 C917 1.279 . S
C914 C912 1.348 . S
C914 C916 1.353 . S
C914 H956 0.929 . S
C915 C912 1.356 . S
C915 C917 1.358 . S
C915 H957 0.930 . S
C916 N913 1.314 . S
C916 C914 1.353 . S
C916 H958 0.930 . S
C917 N913 1.279 . S
C917 C915 1.358 . S
C917 H959 0.930 . S
C918 C919 1.348 . S
C918 C920 1.356 . S
C918 O943 1.325 . S
C919 C918 1.348 . S
C919 C921 1.353 . S
C919 H960 0.929 . S
C920 C918 1.356 . S
C920 C922 1.358 . S
C920 H961 0.930 . S
C921 C919 1.353 . S
C921 N923 1.314 . S
C921 H962 0.930 . S
C922 C920 1.358 . S
C922 N923 1.279 . S
C922 H963 0.930 . S
N923 C921 1.314 . S
N923 C922 1.279 . S
C924 C926 1.353 . S
C924 N927 1.314 . S
C924 H930 0.930 . S
C925 N927 1.279 . S
C925 C928 1.358 . S
C925 H931 0.930 . S
C926 C924 1.353 . S
C926 C929 1.348 . S
C926 H964 0.929 . S
N927 Li882 1.990 . S
N927 C924 1.314 . S
N927 C925 1.279 . S
C928 C925 1.358 . S
C928 C929 1.356 . S
C928 H965 0.930 . S
C929 C926 1.348 . S
C929 C928 1.356 . S
H930 C924 0.930 . S
H931 C925 0.930 . S
C932 N933 1.314 . S
C932 C934 1.353 . S
C932 H938 0.930 . S
N933 Li883 1.990 . S
N933 C932 1.314 . S
N933 C936 1.279 . S
C934 C932 1.353 . S
C934 C937 1.348 . S
C934 H966 0.929 . S
C935 C936 1.358 . S
C935 C937 1.356 . S
C935 H967 0.930 . S
C936 N933 1.279 . S
C936 C935 1.358 . S
C936 H939 0.930 . S
C937 C934 1.348 . S
C937 C935 1.356 . S
H938 C932 0.930 . S
H939 C936 0.930 . S
O940 Li880 1.956 . S
O940 Li881 1.970 . S
O940 Li882 1.961 . S
O940 C884 1.325 . S
O941 Li880 1.970 . S
O941 Li881 1.956 . S
O941 Li883 1.961 . S
O941 C890 1.325 . S
O942 Li880 1.961 . S
O942 Li882 1.956 . S
O942 Li883 1.970 . S
O942 C912 1.325 . S
O943 Li881 1.961 . S
O943 Li882 1.970 . S
O943 Li883 1.956 . S
O943 C918 1.325 . S
H944 C886 0.929 . S
H945 C887 0.930 . S
H946 C888 0.930 . S
H947 C889 0.930 . S
H948 C891 0.930 . S
H949 C893 0.929 . S
H950 C894 0.930 . S
H951 C895 0.930 . S
H952 C898 0.930 . S
H953 C901 0.929 . S
H954 C906 0.929 . S
H955 C907 0.930 . S
H956 C914 0.929 . S
H957 C915 0.930 . S
H958 C916 0.930 . S
H959 C917 0.930 . S
H960 C919 0.929 . S
H961 C920 0.930 . S
H962 C921 0.930 . S
H963 C922 0.930 . S
H964 C926 0.929 . S
H965 C928 0.930 . S
H966 C934 0.929 . S
H967 C935 0.930 . S
Li968 N985 1.990 . S
Li968 O1028 1.956 . S
Li968 O1029 1.970 . S
Li968 O1030 1.961 . S
Li969 N993 1.990 . S
Li969 O1028 1.970 . S
Li969 O1029 1.956 . S
Li969 O1031 1.961 . S
Li970 N1015 1.990 . S
Li970 O1028 1.961 . S
Li970 O1030 1.956 . S
Li970 O1031 1.970 . S
Li971 N1021 1.990 . S
Li971 O1029 1.961 . S
Li971 O1030 1.970 . S
Li971 O1031 1.956 . S
C972 C974 1.348 . S
C972 C975 1.356 . S
C972 O1028 1.325 . S
N973 C976 1.314 . S
N973 C977 1.279 . S
C974 C972 1.348 . S
C974 C976 1.353 . S
C974 H1032 0.929 . S
C975 C972 1.356 . S
C975 C977 1.358 . S
C975 H1033 0.930 . S
C976 N973 1.314 . S
C976 C974 1.353 . S
C976 H1034 0.930 . S
C977 N973 1.279 . S
C977 C975 1.358 . S
C977 H1035 0.930 . S
C978 C981 1.348 . S
C978 C982 1.356 . S
C978 O1029 1.325 . S
C979 N980 1.279 . S
C979 C982 1.358 . S
C979 H1036 0.930 . S
N980 C979 1.279 . S
N980 C983 1.314 . S
C981 C978 1.348 . S
C981 C983 1.353 . S
C981 H1037 0.929 . S
C982 C978 1.356 . S
C982 C979 1.358 . S
C982 H1038 0.930 . S
C983 N980 1.314 . S
C983 C981 1.353 . S
C983 H1039 0.930 . S
C984 N985 1.314 . S
C984 C989 1.353 . S
C984 H990 0.930 . S
N985 Li968 1.990 . S
N985 C984 1.314 . S
N985 C987 1.279 . S
C986 C987 1.358 . S
C986 C988 1.356 . S
C986 H1040 0.930 . S
C987 N985 1.279 . S
C987 C986 1.358 . S
C987 H991 0.930 . S
C988 C986 1.356 . S
C988 C989 1.348 . S
C989 C984 1.353 . S
C989 C988 1.348 . S
C989 H1041 0.929 . S
H990 C984 0.930 . S
H991 C987 0.930 . S
C992 N993 1.314 . S
C992 C994 1.353 . S
C992 H998 0.930 . S
N993 Li969 1.990 . S
N993 C992 1.314 . S
N993 C996 1.279 . S
C994 C992 1.353 . S
C994 C997 1.348 . S
C994 H1042 0.929 . S
C995 C996 1.358 . S
C995 C997 1.356 . S
C995 H1043 0.930 . S
C996 N993 1.279 . S
C996 C995 1.358 . S
C996 H999 0.930 . S
C997 C994 1.348 . S
C997 C995 1.356 . S
H998 C992 0.930 . S
H999 C996 0.930 . S
C1000 C1002 1.348 . S
C1000 C1003 1.356 . S
C1000 O1030 1.325 . S
N1001 C1004 1.314 . S
N1001 C1005 1.279 . S
C1002 C1000 1.348 . S
C1002 C1004 1.353 . S
C1002 H1044 0.929 . S
C1003 C1000 1.356 . S
C1003 C1005 1.358 . S
C1003 H1045 0.930 . S
C1004 N1001 1.314 . S
C1004 C1002 1.353 . S
C1004 H1046 0.930 . S
C1005 N1001 1.279 . S
C1005 C1003 1.358 . S
C1005 H1047 0.930 . S
C1006 C1007 1.348 . S
C1006 C1008 1.356 . S
C1006 O1031 1.325 . S
C1007 C1006 1.348 . S
C1007 C1009 1.353 . S
C1007 H1048 0.929 . S
C1008 C1006 1.356 . S
C1008 C1010 1.358 . S
C1008 H1049 0.930 . S
C1009 C1007 1.353 . S
C1009 N1011 1.314 . S
C1009 H1050 0.930 . S
C1010 C1008 1.358 . S
C1010 N1011 1.279 . S
C1010 H1051 0.930 . S
N1011 C1009 1.314 . S
N1011 C1010 1.279 . S
C1012 C1014 1.353 . S
C1012 N1015 1.314 . S
C1012 H1018 0.930 . S
C1013 N1015 1.279 . S
C1013 C1016 1.358 . S
C1013 H1019 0.930 . S
C1014 C1012 1.353 . S
C1014 C1017 1.348 . S
C1014 H1052 0.929 . S
N1015 Li970 1.990 . S
N1015 C1012 1.314 . S
N1015 C1013 1.279 . S
C1016 C1013 1.358 . S
C1016 C1017 1.356 . S
C1016 H1053 0.930 . S
C1017 C1014 1.348 . S
C1017 C1016 1.356 . S
H1018 C1012 0.930 . S
H1019 C1013 0.930 . S
C1020 N1021 1.314 . S
C1020 C1022 1.353 . S
C1020 H1026 0.930 . S
N1021 Li971 1.990 . S
N1021 C1020 1.314 . S
N1021 C1024 1.279 . S
C1022 C1020 1.353 . S
C1022 C1025 1.348 . S
C1022 H1054 0.929 . S
C1023 C1024 1.358 . S
C1023 C1025 1.356 . S
C1023 H1055 0.930 . S
C1024 N1021 1.279 . S
C1024 C1023 1.358 . S
C1024 H1027 0.930 . S
C1025 C1022 1.348 . S
C1025 C1023 1.356 . S
H1026 C1020 0.930 . S
H1027 C1024 0.930 . S
O1028 Li968 1.956 . S
O1028 Li969 1.970 . S
O1028 Li970 1.961 . S
O1028 C972 1.325 . S
O1029 Li968 1.970 . S
O1029 Li969 1.956 . S
O1029 Li971 1.961 . S
O1029 C978 1.325 . S
O1030 Li968 1.961 . S
O1030 Li970 1.956 . S
O1030 Li971 1.970 . S
O1030 C1000 1.325 . S
O1031 Li969 1.961 . S
O1031 Li970 1.970 . S
O1031 Li971 1.956 . S
O1031 C1006 1.325 . S
H1032 C974 0.929 . S
H1033 C975 0.930 . S
H1034 C976 0.930 . S
H1035 C977 0.930 . S
H1036 C979 0.930 . S
H1037 C981 0.929 . S
H1038 C982 0.930 . S
H1039 C983 0.930 . S
H1040 C986 0.930 . S
H1041 C989 0.929 . S
H1042 C994 0.929 . S
H1043 C995 0.930 . S
H1044 C1002 0.929 . S
H1045 C1003 0.930 . S
H1046 C1004 0.930 . S
H1047 C1005 0.930 . S
H1048 C1007 0.929 . S
H1049 C1008 0.930 . S
H1050 C1009 0.930 . S
H1051 C1010 0.930 . S
H1052 C1014 0.929 . S
H1053 C1016 0.930 . S
H1054 C1022 0.929 . S
H1055 C1023 0.930 . S
C1056 C1057 1.387 . S
C1056 H1060 0.950 . S
C1056 C1065 1.390 . S
C1057 C1056 1.387 . S
C1057 C1059 1.387 . S
H1058 C1065 0.950 . S
C1059 C1057 1.387 . S
C1059 C1061 1.390 . S
C1059 H1063 0.950 . S
H1060 C1056 0.950 . S
C1061 C1059 1.390 . S
C1061 C1062 1.387 . S
C1061 H1064 0.950 . S
C1062 C1061 1.387 . S
C1062 C1065 1.387 . S
H1063 C1059 0.950 . S
H1064 C1061 0.950 . S
C1065 C1056 1.390 . S
C1065 H1058 0.950 . S
C1065 C1062 1.387 . S
C1066 C1067 1.387 . S
C1066 H1070 0.950 . S
C1066 C1075 1.390 . S
C1067 C1066 1.387 . S
C1067 C1069 1.387 . S
H1068 C1075 0.950 . S
C1069 C1067 1.387 . S
C1069 C1071 1.390 . S
C1069 H1073 0.950 . S
H1070 C1066 0.950 . S
C1071 C1069 1.390 . S
C1071 C1072 1.387 . S
C1071 H1074 0.950 . S
C1072 C1071 1.387 . S
C1072 C1075 1.387 . S
H1073 C1069 0.950 . S
H1074 C1071 0.950 . S
C1075 C1066 1.390 . S
C1075 H1068 0.950 . S
C1075 C1072 1.387 . S
C1076 C1077 1.387 . S
C1076 H1080 0.950 . S
C1076 C1085 1.390 . S
C1077 C1076 1.387 . S
C1077 C1079 1.387 . S
H1078 C1085 0.950 . S
C1079 C1077 1.387 . S
C1079 C1081 1.390 . S
C1079 H1083 0.950 . S
H1080 C1076 0.950 . S
C1081 C1079 1.390 . S
C1081 C1082 1.387 . S
C1081 H1084 0.950 . S
C1082 C1081 1.387 . S
C1082 C1085 1.387 . S
H1083 C1079 0.950 . S
H1084 C1081 0.950 . S
C1085 C1076 1.390 . S
C1085 H1078 0.950 . S
C1085 C1082 1.387 . S
C1086 C1087 1.387 . S
C1086 H1090 0.950 . S
C1086 C1095 1.390 . S
C1087 C1086 1.387 . S
C1087 C1089 1.387 . S
H1088 C1095 0.950 . S
C1089 C1087 1.387 . S
C1089 C1091 1.390 . S
C1089 H1093 0.950 . S
H1090 C1086 0.950 . S
C1091 C1089 1.390 . S
C1091 C1092 1.387 . S
C1091 H1094 0.950 . S
C1092 C1091 1.387 . S
C1092 C1095 1.387 . S
H1093 C1089 0.950 . S
H1094 C1091 0.950 . S
C1095 C1086 1.390 . S
C1095 H1088 0.950 . S
C1095 C1092 1.387 . S
C1096 C1097 1.387 . S
C1096 H1100 0.950 . S
C1096 C1105 1.390 . S
C1097 C1096 1.387 . S
C1097 C1099 1.387 . S
H1098 C1105 0.950 . S
C1099 C1097 1.387 . S
C1099 C1101 1.390 1_556 S
C1099 H1103 0.950 1_556 S
H1100 C1096 0.950 . S
C1101 C1099 1.390 1_554 S
C1101 C1102 1.387 1_554 S
C1101 H1104 0.950 . S
C1102 C1101 1.387 1_556 S
C1102 C1105 1.387 . S
H1103 C1099 0.950 1_554 S
H1104 C1101 0.950 . S
C1105 C1096 1.390 . S
C1105 H1098 0.950 . S
C1105 C1102 1.387 . S
C1106 C1107 1.387 . S
C1106 H1110 0.950 . S
C1106 C1115 1.390 . S
C1107 C1106 1.387 . S
C1107 C1109 1.387 . S
H1108 C1115 0.950 . S
C1109 C1107 1.387 . S
C1109 C1111 1.390 . S
C1109 H1113 0.950 . S
H1110 C1106 0.950 . S
C1111 C1109 1.390 . S
C1111 C1112 1.387 . S
C1111 H1114 0.950 . S
C1112 C1111 1.387 . S
C1112 C1115 1.387 . S
H1113 C1109 0.950 . S
H1114 C1111 0.950 . S
C1115 C1106 1.390 . S
C1115 H1108 0.950 . S
C1115 C1112 1.387 . S
C1116 C1117 1.387 . S
C1116 H1120 0.950 . S
C1116 C1125 1.390 . S
C1117 C1116 1.387 . S
C1117 C1119 1.387 . S
H1118 C1125 0.950 . S
C1119 C1117 1.387 . S
C1119 C1121 1.390 . S
C1119 H1123 0.950 . S
H1120 C1116 0.950 . S
C1121 C1119 1.390 . S
C1121 C1122 1.387 . S
C1121 H1124 0.950 . S
C1122 C1121 1.387 . S
C1122 C1125 1.387 . S
H1123 C1119 0.950 . S
H1124 C1121 0.950 . S
C1125 C1116 1.390 . S
C1125 H1118 0.950 . S
C1125 C1122 1.387 . S
C1126 C1127 1.387 . S
C1126 H1130 0.950 . S
C1126 C1135 1.390 . S
C1127 C1126 1.387 . S
C1127 C1129 1.387 . S
H1128 C1135 0.950 . S
C1129 C1127 1.387 . S
C1129 C1131 1.390 . S
C1129 H1133 0.950 . S
H1130 C1126 0.950 . S
C1131 C1129 1.390 . S
C1131 C1132 1.387 . S
C1131 H1134 0.950 . S
C1132 C1131 1.387 . S
C1132 C1135 1.387 . S
H1133 C1129 0.950 . S
H1134 C1131 0.950 . S
C1135 C1126 1.390 . S
C1135 H1128 0.950 . S
C1135 C1132 1.387 . S
C1136 C1137 1.387 . S
C1136 H1140 0.950 . S
C1136 C1145 1.390 . S
C1137 C1136 1.387 . S
C1137 C1139 1.387 . S
H1138 C1145 0.950 . S
C1139 C1137 1.387 . S
C1139 C1141 1.390 . S
C1139 H1143 0.950 . S
H1140 C1136 0.950 . S
C1141 C1139 1.390 . S
C1141 C1142 1.387 . S
C1141 H1144 0.950 . S
C1142 C1141 1.387 . S
C1142 C1145 1.387 . S
H1143 C1139 0.950 . S
H1144 C1141 0.950 . S
C1145 C1136 1.390 . S
C1145 H1138 0.950 . S
C1145 C1142 1.387 . S
C1146 C1147 1.387 . S
C1146 H1150 0.950 . S
C1146 C1155 1.390 . S
C1147 C1146 1.387 . S
C1147 C1149 1.387 . S
H1148 C1155 0.950 . S
C1149 C1147 1.387 . S
C1149 C1151 1.390 . S
C1149 H1153 0.950 . S
H1150 C1146 0.950 . S
C1151 C1149 1.390 . S
C1151 C1152 1.387 . S
C1151 H1154 0.950 . S
C1152 C1151 1.387 . S
C1152 C1155 1.387 . S
H1153 C1149 0.950 . S
H1154 C1151 0.950 . S
C1155 C1146 1.390 . S
C1155 H1148 0.950 . S
C1155 C1152 1.387 . S
C1156 C1157 1.387 . S
C1156 H1160 0.950 . S
C1156 C1165 1.390 . S
C1157 C1156 1.387 . S
C1157 C1159 1.387 . S
H1158 C1165 0.950 . S
C1159 C1157 1.387 . S
C1159 C1161 1.390 . S
C1159 H1163 0.950 . S
H1160 C1156 0.950 . S
C1161 C1159 1.390 . S
C1161 C1162 1.387 . S
C1161 H1164 0.950 . S
C1162 C1161 1.387 . S
C1162 C1165 1.387 . S
H1163 C1159 0.950 . S
H1164 C1161 0.950 . S
C1165 C1156 1.390 . S
C1165 H1158 0.950 . S
C1165 C1162 1.387 . S
C1166 C1167 1.387 . S
C1166 H1170 0.950 . S
C1166 C1175 1.390 . S
C1167 C1166 1.387 . S
C1167 C1169 1.387 . S
H1168 C1175 0.950 . S
C1169 C1167 1.387 . S
C1169 C1171 1.390 . S
C1169 H1173 0.950 . S
H1170 C1166 0.950 . S
C1171 C1169 1.390 . S
C1171 C1172 1.387 . S
C1171 H1174 0.950 1_556 S
C1172 C1171 1.387 . S
C1172 C1175 1.387 . S
H1173 C1169 0.950 . S
H1174 C1171 0.950 1_554 S
C1175 C1166 1.390 . S
C1175 H1168 0.950 . S
C1175 C1172 1.387 . S
C1176 C1177 1.387 . S
C1176 H1180 0.950 . S
C1176 C1185 1.390 . S
C1177 C1176 1.387 . S
C1177 C1179 1.387 . S
H1178 C1185 0.950 . S
C1179 C1177 1.387 . S
C1179 C1181 1.390 . S
C1179 H1183 0.950 . S
H1180 C1176 0.950 . S
C1181 C1179 1.390 . S
C1181 C1182 1.387 . S
C1181 H1184 0.950 . S
C1182 C1181 1.387 . S
C1182 C1185 1.387 . S
H1183 C1179 0.950 . S
H1184 C1181 0.950 . S
C1185 C1176 1.390 . S
C1185 H1178 0.950 . S
C1185 C1182 1.387 . S
C1186 C1187 1.387 . S
C1186 H1190 0.950 . S
C1186 C1195 1.390 . S
C1187 C1186 1.387 . S
C1187 C1189 1.387 . S
H1188 C1195 0.950 . S
C1189 C1187 1.387 . S
C1189 C1191 1.390 . S
C1189 H1193 0.950 1_556 S
H1190 C1186 0.950 . S
C1191 C1189 1.390 . S
C1191 C1192 1.387 . S
C1191 H1194 0.950 . S
C1192 C1191 1.387 . S
C1192 C1195 1.387 . S
H1193 C1189 0.950 1_554 S
H1194 C1191 0.950 . S
C1195 C1186 1.390 . S
C1195 H1188 0.950 . S
C1195 C1192 1.387 . S
C1196 C1197 1.387 . S
C1196 H1200 0.950 . S
C1196 C1205 1.390 . S
C1197 C1196 1.387 . S
C1197 C1199 1.387 . S
H1198 C1205 0.950 . S
C1199 C1197 1.387 . S
C1199 C1201 1.390 . S
C1199 H1203 0.950 . S
H1200 C1196 0.950 . S
C1201 C1199 1.390 . S
C1201 C1202 1.387 . S
C1201 H1204 0.950 . S
C1202 C1201 1.387 . S
C1202 C1205 1.387 . S
H1203 C1199 0.950 . S
H1204 C1201 0.950 . S
C1205 C1196 1.390 . S
C1205 H1198 0.950 . S
C1205 C1202 1.387 . S
C1206 C1207 1.387 . S
C1206 H1210 0.950 . S
C1206 C1215 1.390 . S
C1207 C1206 1.387 . S
C1207 C1209 1.387 . S
H1208 C1215 0.950 . S
C1209 C1207 1.387 . S
C1209 C1211 1.390 . S
C1209 H1213 0.950 . S
H1210 C1206 0.950 . S
C1211 C1209 1.390 . S
C1211 C1212 1.387 . S
C1211 H1214 0.950 . S
C1212 C1211 1.387 . S
C1212 C1215 1.387 . S
H1213 C1209 0.950 . S
H1214 C1211 0.950 . S
C1215 C1206 1.390 . S
C1215 H1208 0.950 . S
C1215 C1212 1.387 . S
C1216 C1217 1.387 . S
C1216 H1220 0.950 . S
C1216 C1225 1.390 . S
C1217 C1216 1.387 . S
C1217 C1219 1.387 . S
H1218 C1225 0.950 . S
C1219 C1217 1.387 . S
C1219 C1221 1.390 . S
C1219 H1223 0.950 . S
H1220 C1216 0.950 . S
C1221 C1219 1.390 . S
C1221 C1222 1.387 . S
C1221 H1224 0.950 . S
C1222 C1221 1.387 . S
C1222 C1225 1.387 . S
H1223 C1219 0.950 . S
H1224 C1221 0.950 . S
C1225 C1216 1.390 . S
C1225 H1218 0.950 . S
C1225 C1222 1.387 . S
C1226 C1227 1.387 . S
C1226 H1230 0.950 . S
C1226 C1235 1.390 . S
C1227 C1226 1.387 . S
C1227 C1229 1.387 . S
H1228 C1235 0.950 . S
C1229 C1227 1.387 . S
C1229 C1231 1.390 . S
C1229 H1233 0.950 . S
H1230 C1226 0.950 . S
C1231 C1229 1.390 . S
C1231 C1232 1.387 . S
C1231 H1234 0.950 . S
C1232 C1231 1.387 . S
C1232 C1235 1.387 . S
H1233 C1229 0.950 . S
H1234 C1231 0.950 . S
C1235 C1226 1.390 . S
C1235 H1228 0.950 . S
C1235 C1232 1.387 . S
C1236 C1237 1.387 1_655 S
C1236 H1240 0.950 . S
C1236 C1245 1.390 . S
C1237 C1236 1.387 1_455 S
C1237 C1239 1.387 . S
H1238 C1245 0.950 . S
C1239 C1237 1.387 . S
C1239 C1241 1.390 . S
C1239 H1243 0.950 . S
H1240 C1236 0.950 . S
C1241 C1239 1.390 . S
C1241 C1242 1.387 1_455 S
C1241 H1244 0.950 . S
C1242 C1241 1.387 1_655 S
C1242 C1245 1.387 . S
H1243 C1239 0.950 . S
H1244 C1241 0.950 . S
C1245 C1236 1.390 . S
C1245 H1238 0.950 . S
C1245 C1242 1.387 . S
C1246 C1247 1.387 1_554 S
C1246 H1250 0.950 1_554 S
C1246 C1255 1.390 1_565 S
C1247 C1246 1.387 1_556 S
C1247 C1249 1.387 1_556 S
H1248 C1255 0.950 . S
C1249 C1247 1.387 1_554 S
C1249 C1251 1.390 1_565 S
C1249 H1253 0.950 1_554 S
H1250 C1246 0.950 1_556 S
C1251 C1249 1.390 1_545 S
C1251 C1252 1.387 . S
C1251 H1254 0.950 . S
C1252 C1251 1.387 . S
C1252 C1255 1.387 . S
H1253 C1249 0.950 1_556 S
H1254 C1251 0.950 . S
C1255 C1246 1.390 1_545 S
C1255 H1248 0.950 . S
C1255 C1252 1.387 . S
C1256 C1257 1.387 . S
C1256 H1260 0.950 . S
C1256 C1265 1.390 . S
C1257 C1256 1.387 . S
C1257 C1259 1.387 . S
H1258 C1265 0.950 . S
C1259 C1257 1.387 . S
C1259 C1261 1.390 . S
C1259 H1263 0.950 . S
H1260 C1256 0.950 . S
C1261 C1259 1.390 . S
C1261 C1262 1.387 . S
C1261 H1264 0.950 . S
C1262 C1261 1.387 . S
C1262 C1265 1.387 . S
H1263 C1259 0.950 . S
H1264 C1261 0.950 . S
C1265 C1256 1.390 . S
C1265 H1258 0.950 . S
C1265 C1262 1.387 . S
C1266 C1267 1.387 . S
C1266 H1270 0.950 . S
C1266 C1275 1.390 . S
C1267 C1266 1.387 . S
C1267 C1269 1.387 1_455 S
H1268 C1275 0.950 . S
C1269 C1267 1.387 1_655 S
C1269 C1271 1.390 . S
C1269 H1273 0.950 . S
H1270 C1266 0.950 . S
C1271 C1269 1.390 . S
C1271 C1272 1.387 . S
C1271 H1274 0.950 . S
C1272 C1271 1.387 . S
C1272 C1275 1.387 1_655 S
H1273 C1269 0.950 . S
H1274 C1271 0.950 . S
C1275 C1266 1.390 . S
C1275 H1268 0.950 . S
C1275 C1272 1.387 1_455 S
C1276 C1277 1.387 . S
C1276 H1280 0.950 . S
C1276 C1285 1.390 1_545 S
C1277 C1276 1.387 . S
C1277 C1279 1.387 . S
H1278 C1285 0.950 . S
C1279 C1277 1.387 . S
C1279 C1281 1.390 1_545 S
C1279 H1283 0.950 . S
H1280 C1276 0.950 . S
C1281 C1279 1.390 1_565 S
C1281 C1282 1.387 . S
C1281 H1284 0.950 . S
C1282 C1281 1.387 . S
C1282 C1285 1.387 . S
H1283 C1279 0.950 . S
H1284 C1281 0.950 . S
C1285 C1276 1.390 1_565 S
C1285 H1278 0.950 . S
C1285 C1282 1.387 . S
C1286 C1287 1.387 . S
C1286 H1290 0.950 . S
C1286 C1295 1.390 . S
C1287 C1286 1.387 . S
C1287 C1289 1.387 . S
H1288 C1295 0.950 . S
C1289 C1287 1.387 . S
C1289 C1291 1.390 . S
C1289 H1293 0.950 . S
H1290 C1286 0.950 . S
C1291 C1289 1.390 . S
C1291 C1292 1.387 . S
C1291 H1294 0.950 . S
C1292 C1291 1.387 . S
C1292 C1295 1.387 . S
H1293 C1289 0.950 . S
H1294 C1291 0.950 . S
C1295 C1286 1.390 . S
C1295 H1288 0.950 . S
C1295 C1292 1.387 . S
C1057 C29 1.493 . S
C1062 C937 1.493 . S
C1067 C1017 1.495 . S
C1072 C117 1.493 . S
C1077 C196 1.496 . S
C1082 C577 1.494 . S
C1087 C293 1.496 . S
C1092 C673 1.496 . S
C1097 C372 1.496 . S
C1102 C761 1.495 1_556 S
C1107 C849 1.495 . S
C1112 C469 1.494 . S
C1117 C20 1.649 . S
C1122 C753 1.649 . S
C1127 C108 1.649 . S
C1132 C841 1.649 . S
C1137 C929 1.649 . S
C1142 C205 1.649 . S
C1147 C284 1.650 . S
C1152 C1025 1.650 . S
C1157 C381 1.650 . S
C1162 C585 1.650 . S
C1167 C460 1.650 . S
C1172 C665 1.650 . S
C1177 C900 0.737 . S
C1182 C49 0.737 . S
C1187 C137 0.737 1_556 S
C1192 C997 0.738 . S
C1197 C233 0.737 . S
C1202 C557 0.738 . S
C1207 C313 0.737 . S
C1212 C636 0.737 . S
C1217 C724 0.737 . S
C1222 C409 0.738 . S
C1227 C489 0.737 . S
C1232 C812 0.737 . S
C1237 C57 1.973 . S
C1242 C988 1.973 . S
C1247 C548 1.976 . S
C1252 C145 1.976 . S
C1257 C645 1.973 . S
C1262 C225 1.972 . S
C1267 C733 1.973 . S
C1272 C321 1.974 . S
C1277 C821 1.973 . S
C1282 C401 1.972 . S
C1287 C909 1.973 . S
C1292 C497 1.973 . S
