# Generated by pormake.
# Topology vbm, (6)-cn, num edge types: 1
# Building blocks:
#     Node 0, Type 0, BuildingBlock: BETDEL_clean_sbu_0, # of connection points: 6
#     Node 1, Type 0, BuildingBlock: BETDEL_clean_sbu_0, # of connection points: 6
#     Node 2, Type 0, BuildingBlock: BETDEL_clean_sbu_0, # of connection points: 6
#     Node 3, Type 0, BuildingBlock: BETDEL_clean_sbu_0, # of connection points: 6
#     Node 4, Type 0, BuildingBlock: BETDEL_clean_sbu_0, # of connection points: 6
#     Node 5, Type 0, BuildingBlock: BETDEL_clean_sbu_0, # of connection points: 6
#     Node 6, Type 0, BuildingBlock: BETDEL_clean_sbu_0, # of connection points: 6
#     Node 7, Type 0, BuildingBlock: BETDEL_clean_sbu_0, # of connection points: 6
#     Node 8, Type 0, BuildingBlock: BETDEL_clean_sbu_0, # of connection points: 6
#     Node 9, Type 0, BuildingBlock: BETDEL_clean_sbu_0, # of connection points: 6
#     Node 10, Type 0, BuildingBlock: BETDEL_clean_sbu_0, # of connection points: 6
#     Node 11, Type 0, BuildingBlock: BETDEL_clean_sbu_0, # of connection points: 6
#     Node 12, Type 0, BuildingBlock: BETDEL_clean_sbu_0, # of connection points: 6
#     Node 13, Type 0, BuildingBlock: BETDEL_clean_sbu_0, # of connection points: 6
#     Node 14, Type 0, BuildingBlock: BETDEL_clean_sbu_0, # of connection points: 6
#     Node 15, Type 0, BuildingBlock: BETDEL_clean_sbu_0, # of connection points: 6
#     Edge 16, Type (0, 0), BuildingBlock: ZUJKAS_clean_linker_0, # of connection points: 2
#     Edge 17, Type (0, 0), BuildingBlock: ZUJKAS_clean_linker_0, # of connection points: 2
#     Edge 18, Type (0, 0), BuildingBlock: ZUJKAS_clean_linker_0, # of connection points: 2
#     Edge 19, Type (0, 0), BuildingBlock: ZUJKAS_clean_linker_0, # of connection points: 2
#     Edge 20, Type (0, 0), BuildingBlock: ZUJKAS_clean_linker_0, # of connection points: 2
#     Edge 21, Type (0, 0), BuildingBlock: ZUJKAS_clean_linker_0, # of connection points: 2
#     Edge 22, Type (0, 0), BuildingBlock: ZUJKAS_clean_linker_0, # of connection points: 2
#     Edge 23, Type (0, 0), BuildingBlock: ZUJKAS_clean_linker_0, # of connection points: 2
#     Edge 24, Type (0, 0), BuildingBlock: ZUJKAS_clean_linker_0, # of connection points: 2
#     Edge 25, Type (0, 0), BuildingBlock: ZUJKAS_clean_linker_0, # of connection points: 2
#     Edge 26, Type (0, 0), BuildingBlock: ZUJKAS_clean_linker_0, # of connection points: 2
#     Edge 27, Type (0, 0), BuildingBlock: ZUJKAS_clean_linker_0, # of connection points: 2
#     Edge 28, Type (0, 0), BuildingBlock: ZUJKAS_clean_linker_0, # of connection points: 2
#     Edge 29, Type (0, 0), BuildingBlock: ZUJKAS_clean_linker_0, # of connection points: 2
#     Edge 30, Type (0, 0), BuildingBlock: ZUJKAS_clean_linker_0, # of connection points: 2
#     Edge 31, Type (0, 0), BuildingBlock: ZUJKAS_clean_linker_0, # of connection points: 2
#     Edge 32, Type (0, 0), BuildingBlock: ZUJKAS_clean_linker_0, # of connection points: 2
#     Edge 33, Type (0, 0), BuildingBlock: ZUJKAS_clean_linker_0, # of connection points: 2
#     Edge 34, Type (0, 0), BuildingBlock: ZUJKAS_clean_linker_0, # of connection points: 2
#     Edge 35, Type (0, 0), BuildingBlock: ZUJKAS_clean_linker_0, # of connection points: 2
#     Edge 36, Type (0, 0), BuildingBlock: ZUJKAS_clean_linker_0, # of connection points: 2
#     Edge 37, Type (0, 0), BuildingBlock: ZUJKAS_clean_linker_0, # of connection points: 2
#     Edge 38, Type (0, 0), BuildingBlock: ZUJKAS_clean_linker_0, # of connection points: 2
#     Edge 39, Type (0, 0), BuildingBlock: ZUJKAS_clean_linker_0, # of connection points: 2
#     Edge 40, Type (0, 0), BuildingBlock: ZUJKAS_clean_linker_0, # of connection points: 2
#     Edge 41, Type (0, 0), BuildingBlock: ZUJKAS_clean_linker_0, # of connection points: 2
#     Edge 42, Type (0, 0), BuildingBlock: ZUJKAS_clean_linker_0, # of connection points: 2
#     Edge 43, Type (0, 0), BuildingBlock: ZUJKAS_clean_linker_0, # of connection points: 2
#     Edge 44, Type (0, 0), BuildingBlock: ZUJKAS_clean_linker_0, # of connection points: 2
#     Edge 45, Type (0, 0), BuildingBlock: ZUJKAS_clean_linker_0, # of connection points: 2
#     Edge 46, Type (0, 0), BuildingBlock: ZUJKAS_clean_linker_0, # of connection points: 2
#     Edge 47, Type (0, 0), BuildingBlock: ZUJKAS_clean_linker_0, # of connection points: 2
#     Edge 48, Type (0, 0), BuildingBlock: ZUJKAS_clean_linker_0, # of connection points: 2
#     Edge 49, Type (0, 0), BuildingBlock: ZUJKAS_clean_linker_0, # of connection points: 2
#     Edge 50, Type (0, 0), BuildingBlock: ZUJKAS_clean_linker_0, # of connection points: 2
#     Edge 51, Type (0, 0), BuildingBlock: ZUJKAS_clean_linker_0, # of connection points: 2
#     Edge 52, Type (0, 0), BuildingBlock: ZUJKAS_clean_linker_0, # of connection points: 2
#     Edge 53, Type (0, 0), BuildingBlock: ZUJKAS_clean_linker_0, # of connection points: 2
#     Edge 54, Type (0, 0), BuildingBlock: ZUJKAS_clean_linker_0, # of connection points: 2
#     Edge 55, Type (0, 0), BuildingBlock: ZUJKAS_clean_linker_0, # of connection points: 2
#     Edge 56, Type (0, 0), BuildingBlock: ZUJKAS_clean_linker_0, # of connection points: 2
#     Edge 57, Type (0, 0), BuildingBlock: ZUJKAS_clean_linker_0, # of connection points: 2
#     Edge 58, Type (0, 0), BuildingBlock: ZUJKAS_clean_linker_0, # of connection points: 2
#     Edge 59, Type (0, 0), BuildingBlock: ZUJKAS_clean_linker_0, # of connection points: 2
#     Edge 60, Type (0, 0), BuildingBlock: ZUJKAS_clean_linker_0, # of connection points: 2
#     Edge 61, Type (0, 0), BuildingBlock: ZUJKAS_clean_linker_0, # of connection points: 2
#     Edge 62, Type (0, 0), BuildingBlock: ZUJKAS_clean_linker_0, # of connection points: 2
#     Edge 63, Type (0, 0), BuildingBlock: ZUJKAS_clean_linker_0, # of connection points: 2
# Relax obj value: 0.066
# Max RMSD: 0.121
# Mean RMSD: 0.121
data_MOF--net-vbm--node1-BETDEL_clean_sbu_0--edge1-ZUJKAS_clean_linker_0
_symmetry_space_group_name_H-M    P1
_symmetry_Int_Tables_number       1
_symmetry_cell_setting            triclinic
loop_
_symmetry_equiv_pos_as_xyz
'x, y, z'
_cell_length_a     75.768094
_cell_length_b     22.720874
_cell_length_c     74.747187
_cell_angle_alpha  89.933042
_cell_angle_beta   89.923715
_cell_angle_gamma 89.958966
loop_
_atom_site_label
_atom_site_type_symbol
_atom_site_fract_x
_atom_site_fract_y
_atom_site_fract_z
_atom_type_partial_charge
Dy0 Dy 0.12473 0.06734 0.13406 0.0
C1 C 0.11179 0.31493 0.13674 0.0
C2 C 0.12743 0.94693 0.13563 0.0
Dy3 Dy 0.11429 0.19442 0.1377 0.0
O4 O 0.12697 0.9782 0.12113 0.0
O5 O 0.12675 0.98156 0.14944 0.0
O6 O 0.13839 0.08788 0.10838 0.0
O7 O 0.11514 0.1338 0.11488 0.0
C8 C 0.12745 0.12886 0.10348 0.0
C9 C 0.11185 0.13151 0.16814 0.0
O10 O 0.08798 0.16105 0.12979 0.0
O11 O 0.09503 0.06358 0.1356 0.0
O12 O 0.11314 0.28308 0.15106 0.0
O13 O 0.11147 0.28085 0.12279 0.0
O14 O 0.1009 0.17299 0.16369 0.0
O15 O 0.124 0.12781 0.15661 0.0
O16 O 0.15107 0.10266 0.14209 0.0
O17 O 0.14366 0.19894 0.13522 0.0
C18 C 0.08334 0.1054 0.13193 0.0
C19 C 0.1555 0.15843 0.13947 0.0
Dy20 Dy 0.85923 0.98502 0.13877 0.0
C21 C 0.87189 0.73761 0.13719 0.0
C22 C 0.85674 0.10511 0.14234 0.0
Dy23 Dy 0.86957 0.85785 0.14054 0.0
O24 O 0.84936 0.07408 0.12987 0.0
O25 O 0.86519 0.07034 0.15315 0.0
O26 O 0.8463 0.96971 0.11234 0.0
O27 O 0.86916 0.92196 0.11861 0.0
C28 C 0.8571 0.92891 0.1071 0.0
C29 C 0.87162 0.91466 0.17218 0.0
O30 O 0.89538 0.89253 0.13111 0.0
O31 O 0.88895 0.98899 0.13866 0.0
O32 O 0.87863 0.7685 0.15005 0.0
O33 O 0.86418 0.77258 0.12588 0.0
O34 O 0.8821 0.87244 0.16734 0.0
O35 O 0.8597 0.92133 0.16056 0.0
O36 O 0.8336 0.94834 0.14878 0.0
O37 O 0.84009 0.8538 0.1394 0.0
C38 C 0.90037 0.94753 0.13394 0.0
C39 C 0.82867 0.89388 0.14493 0.0
Dy40 Dy 0.12809 0.98051 0.38298 0.0
C41 C 0.11436 0.73314 0.38219 0.0
C42 C 0.13107 0.1008 0.38034 0.0
Dy43 Dy 0.11711 0.85369 0.38054 0.0
O44 O 0.13478 0.06957 0.39436 0.0
O45 O 0.12609 0.06612 0.36749 0.0
O46 O 0.14174 0.96158 0.40875 0.0
O47 O 0.1183 0.91631 0.40283 0.0
C48 C 0.13069 0.92155 0.41408 0.0
C49 C 0.11457 0.91434 0.34968 0.0
O50 O 0.09116 0.88861 0.38932 0.0
O51 O 0.09837 0.98572 0.38312 0.0
O52 O 0.11337 0.76475 0.36779 0.0
O53 O 0.11651 0.76753 0.39589 0.0
O54 O 0.10346 0.87405 0.35466 0.0
O55 O 0.12694 0.91818 0.36093 0.0
O56 O 0.15382 0.94317 0.37365 0.0
O57 O 0.14654 0.84869 0.38262 0.0
C58 C 0.08665 0.94447 0.38725 0.0
C59 C 0.15829 0.88815 0.37737 0.0
Dy60 Dy 0.86322 0.07791 0.38679 0.0
C61 C 0.87659 0.32503 0.38691 0.0
C62 C 0.86052 0.95768 0.38373 0.0
Dy63 Dy 0.87402 0.20477 0.3839 0.0
O64 O 0.85419 0.98901 0.39675 0.0
O65 O 0.868 0.99223 0.37214 0.0
O66 O 0.85082 0.09578 0.41334 0.0
O67 O 0.8737 0.14216 0.40625 0.0
C68 C 0.86182 0.13661 0.41806 0.0
C69 C 0.87525 0.14547 0.35269 0.0
O70 O 0.89999 0.16947 0.39267 0.0
O71 O 0.89288 0.07262 0.38628 0.0
O72 O 0.88271 0.29382 0.37378 0.0
O73 O 0.8694 0.29035 0.39866 0.0
O74 O 0.88598 0.18764 0.35694 0.0
O75 O 0.86356 0.1402 0.36463 0.0
O76 O 0.83731 0.11452 0.37771 0.0
O77 O 0.84454 0.21049 0.38494 0.0
C78 C 0.9046 0.11386 0.39025 0.0
C79 C 0.83277 0.17012 0.3805 0.0
Dy80 Dy 0.87123 0.85122 0.88325 0.0
C81 C 0.85867 0.09868 0.88512 0.0
C82 C 0.87344 0.73067 0.88415 0.0
Dy83 Dy 0.86092 0.97815 0.88611 0.0
O84 O 0.871 0.76246 0.86998 0.0
O85 O 0.87502 0.76483 0.898 0.0
O86 O 0.88518 0.87047 0.85743 0.0
O87 O 0.86207 0.91707 0.86371 0.0
C88 C 0.87444 0.9119 0.85245 0.0
C89 C 0.85755 0.91805 0.91698 0.0
O90 O 0.83457 0.94273 0.87809 0.0
O91 O 0.84188 0.84724 0.88591 0.0
O92 O 0.86172 0.06711 0.89922 0.0
O93 O 0.85654 0.06431 0.8714 0.0
O94 O 0.8467 0.95865 0.91162 0.0
O95 O 0.87006 0.91276 0.90584 0.0
O96 O 0.89727 0.8853 0.89189 0.0
O97 O 0.89055 0.98075 0.88335 0.0
C98 C 0.8301 0.88723 0.88113 0.0
C99 C 0.90205 0.94004 0.88843 0.0
Dy100 Dy 0.11452 0.19385 0.88058 0.0
C101 C 0.12862 0.94641 0.87975 0.0
C102 C 0.11172 0.31402 0.88386 0.0
Dy103 Dy 0.12575 0.0667 0.8828 0.0
O104 O 0.10492 0.28269 0.87111 0.0
O105 O 0.11969 0.27946 0.89511 0.0
O106 O 0.10187 0.17626 0.85397 0.0
O107 O 0.12478 0.13007 0.86098 0.0
C108 C 0.11281 0.13501 0.84935 0.0
C109 C 0.12776 0.12531 0.91405 0.0
O110 O 0.15154 0.104 0.87356 0.0
O111 O 0.14403 0.20019 0.88053 0.0
O112 O 0.13382 0.97744 0.8933 0.0
O113 O 0.1222 0.98129 0.86761 0.0
O114 O 0.13882 0.08497 0.90901 0.0
O115 O 0.11557 0.13024 0.90261 0.0
O116 O 0.08924 0.15698 0.89075 0.0
O117 O 0.09603 0.06178 0.88206 0.0
C118 C 0.15588 0.15998 0.87599 0.0
C119 C 0.0845 0.10213 0.88733 0.0
Dy120 Dy 0.87374 0.1944 0.63899 0.0
C121 C 0.86013 0.93719 0.64784 0.0
C122 C 0.87701 0.31104 0.63095 0.0
Dy123 Dy 0.86347 0.05354 0.63938 0.0
O124 O 0.88844 0.28033 0.64001 0.0
O125 O 0.86416 0.2773 0.6257 0.0
O126 O 0.87679 0.20151 0.66931 0.0
O127 O 0.86943 0.12371 0.6577 0.0
C128 C 0.87257 0.14708 0.67254 0.0
C129 C 0.86505 0.09796 0.60565 0.0
O130 O 0.83798 0.09651 0.64779 0.0
O131 O 0.84438 0.19423 0.63977 0.0
O132 O 0.84851 0.968 0.63907 0.0
O133 O 0.87323 0.9707 0.65258 0.0
O134 O 0.86102 0.04375 0.6094 0.0
O135 O 0.86767 0.12406 0.62027 0.0
O136 O 0.89884 0.15244 0.62993 0.0
O137 O 0.89307 0.05497 0.63864 0.0
C138 C 0.83332 0.15246 0.64513 0.0
C139 C 0.9039 0.09727 0.633 0.0
Dy140 Dy 0.11681 0.84646 0.6382 0.0
C141 C 0.13138 0.09321 0.63889 0.0
C142 C 0.11399 0.72606 0.63534 0.0
Dy143 Dy 0.1284 0.97292 0.63579 0.0
O144 O 0.10881 0.75732 0.64888 0.0
O145 O 0.1203 0.76081 0.62309 0.0
O146 O 0.10367 0.86553 0.66447 0.0
O147 O 0.12695 0.91034 0.65778 0.0
C148 C 0.11472 0.90622 0.66921 0.0
C149 C 0.13075 0.91389 0.60468 0.0
O150 O 0.15412 0.93489 0.64504 0.0
O151 O 0.14625 0.83919 0.63805 0.0
O152 O 0.13631 0.06222 0.6252 0.0
O153 O 0.1252 0.05824 0.65115 0.0
O154 O 0.14193 0.95347 0.60996 0.0
O155 O 0.11831 0.90947 0.61594 0.0
O156 O 0.09125 0.88278 0.62877 0.0
O157 O 0.09867 0.97928 0.63539 0.0
C158 C 0.15825 0.87872 0.64258 0.0
C159 C 0.08685 0.93862 0.63106 0.0
Dy160 Dy 0.62645 0.56157 0.13417 0.0
C161 C 0.61351 0.80865 0.13277 0.0
C162 C 0.62897 0.44137 0.13768 0.0
Dy163 Dy 0.61589 0.6882 0.13572 0.0
O164 O 0.63627 0.47258 0.12516 0.0
O165 O 0.6206 0.47603 0.14859 0.0
O166 O 0.64028 0.57778 0.10826 0.0
O167 O 0.61702 0.62452 0.11367 0.0
C168 C 0.62948 0.61791 0.10255 0.0
C169 C 0.6131 0.63042 0.1672 0.0
O170 O 0.59042 0.65363 0.12553 0.0
O171 O 0.59671 0.55729 0.13335 0.0
O172 O 0.60686 0.77716 0.14559 0.0
O173 O 0.62114 0.77416 0.12128 0.0
O174 O 0.60234 0.67137 0.162 0.0
O175 O 0.6254 0.62498 0.15594 0.0
O176 O 0.65175 0.59831 0.14485 0.0
O177 O 0.64541 0.69282 0.13532 0.0
C178 C 0.58539 0.59864 0.12829 0.0
C179 C 0.65672 0.6529 0.14118 0.0
Dy180 Dy 0.36187 0.47143 0.1381 0.0
C181 C 0.37603 0.22436 0.13795 0.0
C182 C 0.35912 0.5917 0.14131 0.0
Dy183 Dy 0.37335 0.34468 0.14093 0.0
O184 O 0.35347 0.56076 0.12791 0.0
O185 O 0.36592 0.55672 0.15321 0.0
O186 O 0.34833 0.45223 0.11229 0.0
O187 O 0.37167 0.40669 0.11845 0.0
C188 C 0.35925 0.4115 0.10721 0.0
C189 C 0.37555 0.40569 0.17178 0.0
O190 O 0.3987 0.38041 0.13069 0.0
O191 O 0.39156 0.47741 0.13697 0.0
O192 O 0.38251 0.25579 0.15085 0.0
O193 O 0.36845 0.25887 0.12642 0.0
O194 O 0.38645 0.36427 0.16719 0.0
O195 O 0.36338 0.40954 0.16032 0.0
O196 O 0.33612 0.4344 0.14757 0.0
O197 O 0.34393 0.3375 0.14184 0.0
C198 C 0.40322 0.4363 0.13255 0.0
C199 C 0.33202 0.37792 0.14596 0.0
Dy200 Dy 0.62633 0.48808 0.3815 0.0
C201 C 0.61271 0.23411 0.38357 0.0
C202 C 0.63013 0.6047 0.37338 0.0
Dy203 Dy 0.61507 0.35392 0.37995 0.0
O204 O 0.64073 0.57444 0.38354 0.0
O205 O 0.6178 0.57057 0.36715 0.0
O206 O 0.62837 0.49777 0.41147 0.0
O207 O 0.62114 0.41782 0.40048 0.0
C208 C 0.62378 0.44403 0.4151 0.0
C209 C 0.612 0.41577 0.34925 0.0
O210 O 0.59107 0.39354 0.39205 0.0
O211 O 0.59667 0.48858 0.38179 0.0
O212 O 0.60418 0.2655 0.37191 0.0
O213 O 0.62218 0.26842 0.39361 0.0
O214 O 0.60177 0.37221 0.35364 0.0
O215 O 0.62407 0.42089 0.36075 0.0
O216 O 0.65254 0.44725 0.37477 0.0
O217 O 0.64429 0.34819 0.37667 0.0
C218 C 0.5859 0.44808 0.38853 0.0
C219 C 0.6563 0.39004 0.37449 0.0
Dy220 Dy 0.36176 0.55127 0.38674 0.0
C221 C 0.37335 0.80196 0.39324 0.0
C222 C 0.36208 0.43145 0.38633 0.0
Dy223 Dy 0.37072 0.68575 0.38496 0.0
O224 O 0.37008 0.46441 0.39789 0.0
O225 O 0.35362 0.46395 0.37481 0.0
O226 O 0.34781 0.56783 0.41266 0.0
O227 O 0.36994 0.61889 0.40622 0.0
C228 C 0.35779 0.61126 0.41761 0.0
C229 C 0.36921 0.64018 0.35142 0.0
O230 O 0.39716 0.64922 0.39151 0.0
O231 O 0.39104 0.55361 0.38231 0.0
O232 O 0.36038 0.76783 0.3979 0.0
O233 O 0.38516 0.77217 0.38442 0.0
O234 O 0.3726 0.69513 0.3547 0.0
O235 O 0.36683 0.615 0.36618 0.0
O236 O 0.336 0.58648 0.37686 0.0
O237 O 0.34131 0.68211 0.38667 0.0
C238 C 0.40229 0.59529 0.38723 0.0
C239 C 0.33061 0.64058 0.38065 0.0
Dy240 Dy 0.374 0.3435 0.88402 0.0
C241 C 0.35979 0.59075 0.88259 0.0
C242 C 0.37669 0.2233 0.88744 0.0
Dy243 Dy 0.3625 0.47042 0.88589 0.0
O244 O 0.38399 0.2547 0.87494 0.0
O245 O 0.3683 0.25782 0.89837 0.0
O246 O 0.38769 0.36155 0.85794 0.0
O247 O 0.36444 0.40738 0.86405 0.0
C248 C 0.37689 0.40268 0.8529 0.0
C249 C 0.35963 0.41178 0.91716 0.0
O250 O 0.33701 0.43299 0.87596 0.0
O251 O 0.34456 0.33662 0.88276 0.0
O252 O 0.35406 0.55979 0.89597 0.0
O253 O 0.36665 0.55576 0.87073 0.0
O254 O 0.34869 0.45199 0.91176 0.0
O255 O 0.37212 0.40696 0.90601 0.0
O256 O 0.39882 0.38047 0.89514 0.0
O257 O 0.39223 0.47572 0.88629 0.0
C258 C 0.33279 0.37672 0.87797 0.0
C259 C 0.40361 0.43546 0.89196 0.0
Dy260 Dy 0.61423 0.6876 0.87827 0.0
C261 C 0.62862 0.44069 0.87704 0.0
C262 C 0.61156 0.80783 0.88157 0.0
Dy263 Dy 0.62591 0.56106 0.88018 0.0
O264 O 0.60385 0.77622 0.86941 0.0
O265 O 0.62034 0.77349 0.89224 0.0
O266 O 0.60026 0.66894 0.8524 0.0
O267 O 0.62366 0.62376 0.85826 0.0
C268 C 0.6111 0.62806 0.84725 0.0
C269 C 0.62929 0.61992 0.9113 0.0
O270 O 0.65141 0.59856 0.87014 0.0
O271 O 0.6436 0.69519 0.87635 0.0
O272 O 0.63416 0.47169 0.89046 0.0
O273 O 0.62196 0.47566 0.86506 0.0
O274 O 0.64021 0.58002 0.90563 0.0
O275 O 0.61657 0.62456 0.90043 0.0
O276 O 0.58971 0.65062 0.89011 0.0
O277 O 0.59618 0.55537 0.88126 0.0
C278 C 0.65544 0.6551 0.87176 0.0
C279 C 0.5849 0.59554 0.88719 0.0
Dy280 Dy 0.37508 0.68329 0.64038 0.0
C281 C 0.36092 0.4361 0.64186 0.0
C282 C 0.37776 0.8035 0.63704 0.0
Dy283 Dy 0.36361 0.55639 0.63852 0.0
O284 O 0.38545 0.77181 0.64922 0.0
O285 O 0.36898 0.76927 0.62638 0.0
O286 O 0.38889 0.66483 0.66638 0.0
O287 O 0.36564 0.61926 0.66035 0.0
C288 C 0.3781 0.62372 0.67145 0.0
C289 C 0.36018 0.61537 0.6074 0.0
O290 O 0.33813 0.59386 0.64862 0.0
O291 O 0.34565 0.6905 0.6421 0.0
O292 O 0.35513 0.46704 0.62851 0.0
O293 O 0.36783 0.47108 0.65367 0.0
O294 O 0.3494 0.57489 0.61295 0.0
O295 O 0.37286 0.62021 0.6183 0.0
O296 O 0.39973 0.64638 0.6287 0.0
O297 O 0.39335 0.55094 0.63747 0.0
C298 C 0.3339 0.65024 0.64681 0.0
C299 C 0.4046 0.59129 0.63162 0.0
Dy300 Dy 0.61567 0.33914 0.63608 0.0
C301 C 0.62975 0.58801 0.64363 0.0
C302 C 0.61527 0.21892 0.63664 0.0
Dy303 Dy 0.62698 0.472 0.63467 0.0
O304 O 0.62323 0.25252 0.64805 0.0
O305 O 0.60715 0.25105 0.62474 0.0
O306 O 0.6012 0.35917 0.66168 0.0
O307 O 0.62425 0.40568 0.65558 0.0
C308 C 0.6117 0.40128 0.6666 0.0
C309 C 0.62603 0.42868 0.60102 0.0
O310 O 0.65272 0.4294 0.64185 0.0
O311 O 0.64477 0.33646 0.6317 0.0
O312 O 0.61679 0.55357 0.64811 0.0
O313 O 0.64159 0.55843 0.63474 0.0
O314 O 0.63061 0.48223 0.60489 0.0
O315 O 0.62256 0.40211 0.61543 0.0
O316 O 0.59109 0.37677 0.62469 0.0
O317 O 0.59726 0.47255 0.63392 0.0
C318 C 0.65675 0.37433 0.63748 0.0
C319 C 0.58629 0.43195 0.62764 0.0
H320 H 0.18458 0.09206 0.14856 0.0
H321 H 0.21496 0.12739 0.15267 0.0
H322 H 0.19837 0.3036 0.13934 0.0
H323 H 0.16829 0.26946 0.1353 0.0
H324 H 0.23621 0.18807 0.12652 0.0
H325 H 0.22492 0.32389 0.18712 0.0
H326 H 0.20974 0.26728 0.18001 0.0
H327 H 0.20968 0.33806 0.16924 0.0
C328 C 0.18742 0.13831 0.14655 0.0
C329 C 0.17398 0.17788 0.14168 0.0
C330 C 0.20473 0.15839 0.14894 0.0
C331 C 0.20875 0.21826 0.14666 0.0
C332 C 0.19542 0.25751 0.14158 0.0
H333 H 0.30125 0.44143 0.14341 0.0
H334 H 0.27104 0.40209 0.14467 0.0
C335 C 0.17823 0.23764 0.13916 0.0
C336 C 0.22698 0.24003 0.14868 0.0
H337 H 0.25205 0.33941 0.17158 0.0
C338 C 0.23977 0.22059 0.1365 0.0
C339 C 0.23144 0.28294 0.16161 0.0
C340 C 0.21827 0.30398 0.17535 0.0
C341 C 0.25685 0.24421 0.13654 0.0
C342 C 0.26129 0.28745 0.1494 0.0
C343 C 0.24855 0.30643 0.16172 0.0
C344 C 0.27923 0.31266 0.15031 0.0
C345 C 0.26982 0.22396 0.12248 0.0
C346 C 0.29365 0.27581 0.15374 0.0
C347 C 0.31075 0.2979 0.1529 0.0
C348 C 0.31377 0.35753 0.14887 0.0
C349 C 0.29928 0.39532 0.1465 0.0
C350 C 0.28208 0.37291 0.14719 0.0
H351 H 0.26306 0.20306 0.11094 0.0
H352 H 0.27789 0.26129 0.11747 0.0
H353 H 0.27886 0.19087 0.12843 0.0
H354 H 0.29168 0.22955 0.15665 0.0
H355 H 0.32164 0.26784 0.15511 0.0
H356 H 0.80482 0.93042 0.17028 0.0
H357 H 0.77552 0.88759 0.17609 0.0
H358 H 0.782 0.77323 0.13048 0.0
H359 H 0.81126 0.81375 0.12517 0.0
H360 H 0.74604 0.88203 0.1579 0.0
H361 H 0.76914 0.65463 0.16745 0.0
H362 H 0.78419 0.7161 0.16667 0.0
H363 H 0.77693 0.68108 0.1463 0.0
C364 C 0.79986 0.89633 0.1615 0.0
C365 C 0.81029 0.8748 0.14742 0.0
C366 C 0.78323 0.87166 0.16488 0.0
C367 C 0.77686 0.82562 0.15411 0.0
C368 C 0.78694 0.80676 0.13945 0.0
H369 H 0.67465 0.73513 0.12257 0.0
H370 H 0.70363 0.77578 0.12915 0.0
C371 C 0.80357 0.83047 0.1363 0.0
C372 C 0.75941 0.7983 0.15749 0.0
H373 H 0.73869 0.665 0.15714 0.0
C374 C 0.74445 0.83459 0.15812 0.0
C375 C 0.75728 0.73641 0.15844 0.0
C376 C 0.7728 0.69499 0.15991 0.0
C377 C 0.72741 0.81057 0.15811 0.0
C378 C 0.72533 0.74876 0.15672 0.0
C379 C 0.74026 0.71242 0.15769 0.0
C380 C 0.70802 0.72163 0.15261 0.0
C381 C 0.71185 0.85189 0.15926 0.0
C382 C 0.70134 0.67468 0.16285 0.0
C383 C 0.6849 0.64996 0.15874 0.0
C384 C 0.67494 0.67235 0.14443 0.0
C385 C 0.68196 0.7177 0.13385 0.0
C386 C 0.69843 0.74148 0.13774 0.0
H387 H 0.71522 0.8917 0.16717 0.0
H388 H 0.70823 0.86677 0.14561 0.0
H389 H 0.70021 0.83032 0.16548 0.0
H390 H 0.70867 0.65799 0.17421 0.0
H391 H 0.6797 0.61509 0.16711 0.0
H392 H 0.31153 0.70861 0.40286 0.0
H393 H 0.28203 0.74816 0.39796 0.0
H394 H 0.27865 0.65345 0.34803 0.0
H395 H 0.30813 0.61148 0.35338 0.0
H396 H 0.27233 0.81922 0.37152 0.0
H397 H 0.23147 0.61605 0.36988 0.0
H398 H 0.25405 0.61579 0.37745 0.0
H399 H 0.24919 0.61837 0.35393 0.0
C400 C 0.30434 0.69533 0.391 0.0
C401 C 0.31197 0.65692 0.37851 0.0
C402 C 0.28754 0.71818 0.38816 0.0
C403 C 0.27811 0.70385 0.37263 0.0
C404 C 0.28555 0.66431 0.36026 0.0
H405 H 0.1834 0.92477 0.35332 0.0
H406 H 0.2129 0.8818 0.34895 0.0
C407 C 0.30234 0.64037 0.36331 0.0
C408 C 0.26087 0.73277 0.36942 0.0
H409 H 0.21675 0.70611 0.36572 0.0
C410 C 0.26016 0.79455 0.37013 0.0
C411 C 0.24505 0.70044 0.36754 0.0
C412 C 0.24487 0.63401 0.36729 0.0
C413 C 0.24402 0.8248 0.37008 0.0
C414 C 0.22817 0.79238 0.36862 0.0
C415 C 0.22894 0.73083 0.36685 0.0
C416 C 0.21062 0.82016 0.37098 0.0
C417 C 0.24409 0.89069 0.37267 0.0
C418 C 0.19954 0.79951 0.38465 0.0
C419 C 0.18274 0.82305 0.3869 0.0
C420 C 0.1767 0.86832 0.37568 0.0
C421 C 0.18789 0.89038 0.36227 0.0
C422 C 0.2047 0.8659 0.35979 0.0
H423 H 0.25705 0.90685 0.37757 0.0
H424 H 0.24135 0.91253 0.35968 0.0
H425 H 0.23373 0.90431 0.38234 0.0
H426 H 0.20386 0.76466 0.39354 0.0
H427 H 0.1744 0.80545 0.39741 0.0
H428 H 0.81942 0.27933 0.38674 0.0
H429 H 0.78925 0.31314 0.38279 0.0
H430 H 0.77395 0.14052 0.3646 0.0
H431 H 0.80435 0.10554 0.36872 0.0
H432 H 0.76866 0.31422 0.35146 0.0
H433 H 0.73901 0.17731 0.40548 0.0
H434 H 0.76252 0.18846 0.40349 0.0
H435 H 0.75143 0.1382 0.38879 0.0
C436 C 0.80971 0.24822 0.38191 0.0
C437 C 0.8143 0.18952 0.3781 0.0
C438 C 0.79246 0.26784 0.37962 0.0
C439 C 0.7794 0.22927 0.37353 0.0
C440 C 0.78386 0.17071 0.36955 0.0
H441 H 0.667 0.28221 0.36319 0.0
H442 H 0.69703 0.24507 0.36088 0.0
C443 C 0.8012 0.15086 0.37187 0.0
C444 C 0.76114 0.25108 0.37159 0.0
H445 H 0.71979 0.23846 0.38918 0.0
C446 C 0.75792 0.29753 0.35962 0.0
C447 C 0.74725 0.22929 0.38234 0.0
C448 C 0.75016 0.18089 0.39587 0.0
C449 C 0.74109 0.32284 0.35809 0.0
C450 C 0.72728 0.30162 0.36904 0.0
C451 C 0.73046 0.25462 0.38082 0.0
C452 C 0.70932 0.32708 0.36857 0.0
C453 C 0.73821 0.37156 0.34468 0.0
C454 C 0.70629 0.386 0.3734 0.0
C455 C 0.68903 0.4077 0.37466 0.0
C456 C 0.67462 0.37041 0.37136 0.0
C457 C 0.6778 0.31199 0.36602 0.0
C458 C 0.69496 0.29061 0.36464 0.0
H459 H 0.74866 0.37199 0.33423 0.0
H460 H 0.72516 0.36717 0.33806 0.0
H461 H 0.73854 0.41456 0.35169 0.0
H462 H 0.71722 0.41455 0.37681 0.0
H463 H 0.68698 0.45276 0.3789 0.0
H464 H 0.6866 0.59471 0.87573 0.0
H465 H 0.71649 0.63677 0.87453 0.0
H466 H 0.69471 0.80443 0.85878 0.0
H467 H 0.66504 0.76344 0.86032 0.0
H468 H 0.73614 0.69612 0.84765 0.0
H469 H 0.72096 0.84307 0.905 0.0
H470 H 0.70693 0.78228 0.89881 0.0
H471 H 0.706 0.85031 0.88653 0.0
C472 C 0.68827 0.64023 0.87176 0.0
C473 C 0.67354 0.67608 0.86841 0.0
C474 C 0.70529 0.66422 0.87112 0.0
C475 C 0.7077 0.72408 0.86702 0.0
C476 C 0.69307 0.75862 0.86246 0.0
H477 H 0.80133 0.95102 0.86953 0.0
H478 H 0.77124 0.91396 0.8646 0.0
C479 C 0.67615 0.73501 0.86328 0.0
C480 C 0.72534 0.75148 0.8683 0.0
H481 H 0.74849 0.85718 0.89068 0.0
C482 C 0.73886 0.7313 0.85705 0.0
C483 C 0.72879 0.79754 0.88056 0.0
C484 C 0.71497 0.8193 0.89354 0.0
C485 C 0.7558 0.75616 0.8577 0.0
C486 C 0.75926 0.80178 0.87007 0.0
C487 C 0.74569 0.82256 0.88112 0.0
C488 C 0.77727 0.82485 0.87284 0.0
C489 C 0.76985 0.73348 0.84515 0.0
C490 C 0.79034 0.78732 0.8795 0.0
C491 C 0.80735 0.8082 0.88241 0.0
C492 C 0.81167 0.86728 0.87877 0.0
C493 C 0.79843 0.90532 0.87243 0.0
C494 C 0.78129 0.88422 0.86955 0.0
H495 H 0.76401 0.71081 0.8334 0.0
H496 H 0.77842 0.76986 0.84034 0.0
H497 H 0.77827 0.70131 0.85237 0.0
H498 H 0.78737 0.74174 0.88252 0.0
H499 H 0.81713 0.77759 0.88743 0.0
H500 H 0.30222 0.44198 0.87639 0.0
H501 H 0.27198 0.40393 0.87343 0.0
H502 H 0.2924 0.22748 0.8685 0.0
H503 H 0.32234 0.26447 0.87169 0.0
H504 H 0.25548 0.33364 0.84628 0.0
H505 H 0.25888 0.21705 0.91153 0.0
H506 H 0.27466 0.27258 0.90503 0.0
H507 H 0.27649 0.19896 0.89642 0.0
C508 C 0.30022 0.39519 0.87454 0.0
C509 C 0.31462 0.35617 0.87457 0.0
C510 C 0.28299 0.37355 0.87286 0.0
C511 C 0.28001 0.31279 0.87115 0.0
C512 C 0.29442 0.27432 0.87026 0.0
H513 H 0.18559 0.09265 0.87052 0.0
H514 H 0.21608 0.12793 0.86737 0.0
C515 C 0.31153 0.29568 0.87206 0.0
C516 C 0.2619 0.28881 0.87082 0.0
H517 H 0.23399 0.19707 0.89339 0.0
C518 C 0.25073 0.30395 0.85659 0.0
C519 C 0.25582 0.24986 0.88427 0.0
C520 C 0.26701 0.23399 0.90027 0.0
C521 C 0.23363 0.28057 0.85537 0.0
C522 C 0.22757 0.24175 0.86884 0.0
C523 C 0.23878 0.22635 0.88299 0.0
C524 C 0.20919 0.22016 0.86933 0.0
C525 C 0.22225 0.29715 0.8396 0.0
C526 C 0.19536 0.26035 0.87159 0.0
C527 C 0.17808 0.2405 0.87347 0.0
C528 C 0.17425 0.17989 0.87321 0.0
C529 C 0.18811 0.13956 0.87073 0.0
C530 C 0.2055 0.1596 0.86892 0.0
H531 H 0.2303 0.3131 0.82815 0.0
H532 H 0.21416 0.2592 0.83511 0.0
H533 H 0.21315 0.33313 0.8436 0.0
H534 H 0.19799 0.30715 0.87233 0.0
H535 H 0.16776 0.27293 0.87534 0.0
H536 H 0.68727 0.43719 0.64364 0.0
H537 H 0.7173 0.3973 0.64677 0.0
H538 H 0.69707 0.22139 0.63999 0.0
H539 H 0.66744 0.26023 0.63653 0.0
H540 H 0.7308 0.31541 0.67149 0.0
H541 H 0.73562 0.22903 0.60227 0.0
H542 H 0.71873 0.28045 0.60904 0.0
H543 H 0.71649 0.20336 0.61409 0.0
C544 C 0.68928 0.39009 0.64273 0.0
C545 C 0.67499 0.35208 0.63956 0.0
C546 C 0.7064 0.36738 0.64455 0.0
C547 C 0.70941 0.30648 0.64323 0.0
C548 C 0.69511 0.26858 0.64056 0.0
H549 H 0.80348 0.08343 0.64611 0.0
H550 H 0.77273 0.11772 0.64784 0.0
C551 C 0.67813 0.29107 0.63862 0.0
C552 C 0.72744 0.28183 0.64479 0.0
H553 H 0.75786 0.19827 0.62261 0.0
C554 C 0.73677 0.29005 0.66079 0.0
C555 C 0.73512 0.24838 0.63083 0.0
C556 C 0.72605 0.24018 0.61303 0.0
C557 C 0.75356 0.26516 0.66327 0.0
C558 C 0.76121 0.23179 0.6493 0.0
C559 C 0.75183 0.22325 0.63337 0.0
C560 C 0.77957 0.20986 0.65024 0.0
C561 C 0.76292 0.27438 0.68084 0.0
C562 C 0.79347 0.25027 0.6511 0.0
C563 C 0.81088 0.23101 0.65003 0.0
C564 C 0.8148 0.1708 0.64801 0.0
C565 C 0.80087 0.13 0.64772 0.0
C566 C 0.78334 0.14951 0.64867 0.0
H567 H 0.75351 0.28571 0.69172 0.0
H568 H 0.77043 0.23448 0.68481 0.0
H569 H 0.77238 0.31135 0.67943 0.0
H570 H 0.79084 0.29706 0.65197 0.0
H571 H 0.82128 0.26369 0.65042 0.0
H572 H 0.18815 0.94312 0.65038 0.0
H573 H 0.21847 0.9054 0.65324 0.0
H574 H 0.19976 0.72916 0.64357 0.0
H575 H 0.16982 0.76567 0.64058 0.0
H576 H 0.23226 0.81351 0.67707 0.0
H577 H 0.23837 0.7558 0.6052 0.0
H578 H 0.22169 0.80559 0.61351 0.0
H579 H 0.21884 0.72738 0.61574 0.0
C580 C 0.19052 0.89638 0.64889 0.0
C581 C 0.17657 0.85761 0.64507 0.0
C582 C 0.20781 0.87494 0.65055 0.0
C583 C 0.21131 0.81467 0.64832 0.0
C584 C 0.19735 0.77594 0.64501 0.0
H585 H 0.30325 0.58582 0.64608 0.0
H586 H 0.27298 0.62419 0.64845 0.0
C587 C 0.18021 0.7971 0.64334 0.0
C588 C 0.22949 0.79132 0.64923 0.0
H589 H 0.26028 0.7171 0.62467 0.0
C590 C 0.23848 0.79286 0.66561 0.0
C591 C 0.23747 0.76416 0.63424 0.0
C592 C 0.22869 0.76348 0.61612 0.0
C593 C 0.25518 0.7667 0.66748 0.0
C594 C 0.26302 0.73888 0.65254 0.0
C595 C 0.25407 0.73775 0.63615 0.0
C596 C 0.28105 0.71419 0.6532 0.0
C597 C 0.26421 0.76809 0.68545 0.0
C598 C 0.29546 0.7521 0.65519 0.0
C599 C 0.31261 0.73055 0.6537 0.0
C600 C 0.3157 0.67058 0.65021 0.0
C601 C 0.30126 0.63212 0.64886 0.0
C602 C 0.28401 0.65396 0.65017 0.0
H603 H 0.25481 0.77835 0.69643 0.0
H604 H 0.27069 0.72527 0.68833 0.0
H605 H 0.27456 0.8026 0.6853 0.0
H606 H 0.29343 0.79881 0.65725 0.0
H607 H 0.32346 0.76131 0.65492 0.0
H608 H 0.09027 0.8996 0.32331 0.0
H609 H 0.09142 0.93607 0.29254 0.0
H610 H 0.1409 0.02211 0.30363 0.0
H611 H 0.13973 0.98605 0.33464 0.0
H612 H 0.11769 0.09256 0.28424 0.0
H613 H 0.12331 0.87246 0.25294 0.0
H614 H 0.10467 0.87898 0.26766 0.0
H615 H 0.12665 0.88429 0.27658 0.0
C616 C 0.1014 0.92635 0.31922 0.0
C617 C 0.11499 0.93955 0.33136 0.0
C618 C 0.1021 0.94683 0.30157 0.0
C619 C 0.11644 0.98075 0.29561 0.0
C620 C 0.12979 0.99553 0.30786 0.0
H621 H 0.1372 0.05859 0.18221 0.0
H622 H 0.13928 0.02228 0.21313 0.0
C623 C 0.12911 0.97496 0.32557 0.0
C624 C 0.11728 1.00123 0.27666 0.0
H625 H 0.11663 0.95251 0.23336 0.0
C626 C 0.11758 0.06193 0.27313 0.0
C627 C 0.11743 0.96133 0.2621 0.0
C628 C 0.11818 0.89563 0.26496 0.0
C629 C 0.1174 0.08375 0.25549 0.0
C630 C 0.11664 0.04386 0.24095 0.0
C631 C 0.11698 0.98315 0.24447 0.0
C632 C 0.11519 0.06435 0.22205 0.0
C633 C 0.11815 0.14943 0.2526 0.0
C634 C 0.10074 0.09872 0.21661 0.0
C635 C 0.09952 0.11934 0.199 0.0
C636 C 0.11269 0.10583 0.18639 0.0
C637 C 0.12689 0.0699 0.19165 0.0
C638 C 0.12809 0.0492 0.20931 0.0
H639 H 0.12373 0.17249 0.26441 0.0
H640 H 0.12623 0.16058 0.24067 0.0
H641 H 0.10458 0.16637 0.25042 0.0
H642 H 0.09038 0.10978 0.22603 0.0
H643 H 0.08834 0.1465 0.19533 0.0
H644 H 0.85518 0.05231 0.34108 0.0
H645 H 0.8541 1.01057 0.31078 0.0
H646 H 0.89085 0.14281 0.29262 0.0
H647 H 0.89269 0.18215 0.3229 0.0
H648 H 0.84382 0.05004 0.27968 0.0
H649 H 0.91499 1.00205 0.27363 0.0
H650 H 0.90512 0.02401 0.29452 0.0
H651 H 0.91146 0.07852 0.27817 0.0
C652 C 0.86317 0.0719 0.33063 0.0
C653 C 0.87421 0.11996 0.33444 0.0
C654 C 0.86249 0.04822 0.31328 0.0
C655 C 0.87273 0.07248 0.29936 0.0
C656 C 0.88331 0.1217 0.30314 0.0
H657 H 0.85328 1.01055 0.18473 0.0
H658 H 0.85309 0.04959 0.21535 0.0
C659 C 0.88425 0.14455 0.32048 0.0
C660 C 0.8722 0.04725 0.28087 0.0
H661 H 0.89856 1.00192 0.24638 0.0
C662 C 0.8558 0.03902 0.27246 0.0
C663 C 0.88776 0.03171 0.27142 0.0
C664 C 0.90579 0.0339 0.27999 0.0
C665 C 0.85454 1.01682 0.25489 0.0
C666 C 0.87016 1.00447 0.2451 0.0
C667 C 0.88653 1.01199 0.25364 0.0
C668 C 0.87001 0.98151 0.2263 0.0
C669 C 0.83642 1.00538 0.24729 0.0
C670 C 0.8801 0.93163 0.22188 0.0
C671 C 0.88069 0.91063 0.2043 0.0
C672 C 0.87098 0.93832 0.19067 0.0
C673 C 0.8608 0.98807 0.19499 0.0
C674 C 0.86053 1.00997 0.21257 0.0
H675 H 0.8265 0.99873 0.25806 0.0
H676 H 0.8322 0.04405 0.2393 0.0
H677 H 0.83639 0.96599 0.23852 0.0
H678 H 0.88757 0.90865 0.23207 0.0
H679 H 0.88864 0.87213 0.20144 0.0
H680 H 0.8794 0.20026 0.70413 0.0
H681 H 0.87923 0.15749 0.73408 0.0
H682 H 0.86482 0.98902 0.71197 0.0
H683 H 0.86448 0.03257 0.68178 0.0
H684 H 0.84601 1.01451 0.7425 0.0
H685 H 0.91702 0.05284 0.75494 0.0
H686 H 0.90563 0.11919 0.74896 0.0
H687 H 0.90734 0.06012 0.73301 0.0
C688 C 0.87623 0.15402 0.7056 0.0
C689 C 0.87219 0.11954 0.69055 0.0
C690 C 0.87624 0.1295 0.72276 0.0
C691 C 0.87244 0.06963 0.72533 0.0
C692 C 0.86799 0.0352 0.71034 0.0
H693 H 0.89684 0.8868 0.82498 0.0
H694 H 0.89568 0.92285 0.79418 0.0
C695 C 0.86788 0.05996 0.69309 0.0
C696 C 0.87299 0.04373 0.7437 0.0
H697 H 0.89947 0.02895 0.78046 0.0
C698 C 0.85773 1.01727 0.75076 0.0
C699 C 0.88835 0.04648 0.75447 0.0
C700 C 0.90556 0.07063 0.74741 0.0
C701 C 0.85729 0.99491 0.76836 0.0
C702 C 0.87241 1.00027 0.7794 0.0
C703 C 0.88777 0.02549 0.77217 0.0
C704 C 0.87284 0.9785 0.7983 0.0
C705 C 0.84071 0.96479 0.77479 0.0
C706 C 0.86057 0.99835 0.81111 0.0
C707 C 0.86114 0.97732 0.82878 0.0
C708 C 0.87413 0.93663 0.83405 0.0
C709 C 0.88664 0.91801 0.82135 0.0
C710 C 0.88599 0.93863 0.8037 0.0
H711 H 0.83253 0.94909 0.76343 0.0
H712 H 0.84386 0.92668 0.78354 0.0
H713 H 0.83267 0.99654 0.78259 0.0
H714 H 0.8506 0.03035 0.80749 0.0
H715 H 0.85139 0.99278 0.83829 0.0
H716 H 0.13784 0.06061 0.83546 0.0
H717 H 0.13969 0.02279 0.80474 0.0
H718 H 0.09125 0.1126 0.79157 0.0
H719 H 0.08948 0.15102 0.82209 0.0
H720 H 0.11701 0.95316 0.78527 0.0
H721 H 0.1243 0.17031 0.75235 0.0
H722 H 0.12677 0.16043 0.77619 0.0
H723 H 0.10514 0.16584 0.76642 0.0
C724 C 0.1276 0.07224 0.826 0.0
C725 C 0.1136 0.10923 0.83114 0.0
C726 C 0.12867 0.05064 0.80844 0.0
C727 C 0.11582 0.06586 0.79569 0.0
C728 C 0.10158 0.10147 0.80099 0.0
H729 H 0.09062 0.89216 0.6959 0.0
H730 H 0.09176 0.93095 0.72638 0.0
C731 C 0.10051 0.12306 0.81849 0.0
C732 C 0.11707 0.04386 0.77693 0.0
H733 H 0.11793 0.08894 0.73324 0.0
C734 C 0.11732 0.98287 0.77391 0.0
C735 C 0.11779 0.08252 0.76205 0.0
C736 C 0.11867 0.14841 0.76437 0.0
C737 C 0.11769 0.95958 0.75647 0.0
C738 C 0.1175 0.99826 0.74158 0.0
C739 C 0.11785 0.05923 0.74461 0.0
C740 C 0.11664 0.97623 0.72281 0.0
C741 C 0.11843 0.89365 0.75417 0.0
C742 C 0.1299 0.99052 0.71035 0.0
C743 C 0.1292 0.96867 0.69281 0.0
C744 C 0.11517 0.93238 0.68738 0.0
C745 C 0.10168 0.91955 0.69971 0.0
C746 C 0.10238 0.94137 0.7172 0.0
H747 H 0.12366 0.87155 0.76633 0.0
H748 H 0.1049 0.87676 0.75178 0.0
H749 H 0.12681 0.88131 0.74257 0.0
H750 H 0.14095 1.01779 0.7143 0.0
H751 H 0.13974 0.97953 0.68358 0.0
H752 H 0.63632 0.49245 0.33508 0.0
H753 H 0.63749 0.53052 0.30432 0.0
H754 H 0.58925 0.43856 0.29199 0.0
H755 H 0.58819 0.39982 0.32251 0.0
H756 H 0.61462 0.42036 0.26655 0.0
H757 H 0.60823 0.65917 0.28072 0.0
H758 H 0.62602 0.62352 0.29233 0.0
H759 H 0.6036 0.6035 0.29732 0.0
C760 C 0.62589 0.48091 0.32583 0.0
C761 C 0.61217 0.44312 0.3312 0.0
C762 C 0.62652 0.50287 0.30827 0.0
C763 C 0.61337 0.48786 0.29581 0.0
C764 C 0.59955 0.4508 0.3013 0.0
H765 H 0.58884 0.64791 0.19355 0.0
H766 H 0.5896 0.61186 0.2244 0.0
C767 C 0.59894 0.42882 0.31879 0.0
C768 C 0.61419 0.50876 0.27688 0.0
H769 H 0.61413 0.63231 0.25069 0.0
C770 C 0.61454 0.46673 0.26309 0.0
C771 C 0.61392 0.56926 0.27231 0.0
C772 C 0.61276 0.61657 0.28641 0.0
C773 C 0.6146 0.48339 0.24494 0.0
C774 C 0.61461 0.54389 0.24037 0.0
C775 C 0.61427 0.58594 0.25415 0.0
C776 C 0.61421 0.56454 0.2214 0.0
C777 C 0.61413 0.43598 0.23083 0.0
C778 C 0.6278 0.55005 0.20933 0.0
C779 C 0.62735 0.57046 0.1916 0.0
C780 C 0.61337 0.60617 0.18564 0.0
C781 C 0.59979 0.62046 0.19772 0.0
C782 C 0.60023 0.60002 0.21539 0.0
H783 H 0.60971 0.3931 0.23641 0.0
H784 H 0.60519 0.44841 0.21968 0.0
H785 H 0.62759 0.42986 0.22526 0.0
H786 H 0.6389 0.52364 0.21368 0.0
H787 H 0.63805 0.55898 0.18263 0.0
H788 H 0.36478 0.52368 0.34222 0.0
H789 H 0.36559 0.48122 0.31191 0.0
H790 H 0.37334 0.65452 0.28968 0.0
H791 H 0.37281 0.69663 0.31971 0.0
H792 H 0.34492 0.50209 0.28149 0.0
H793 H 0.4145 0.56321 0.2684 0.0
H794 H 0.40489 0.56559 0.29049 0.0
H795 H 0.40111 0.62473 0.27493 0.0
C796 C 0.36664 0.55254 0.33083 0.0
C797 C 0.36887 0.61339 0.33334 0.0
C798 C 0.36709 0.52832 0.31353 0.0
C799 C 0.36987 0.56452 0.29849 0.0
C800 C 0.37161 0.62544 0.30104 0.0
H801 H 0.35117 0.48292 0.18553 0.0
H802 H 0.34949 0.52091 0.21623 0.0
C803 C 0.3712 0.64951 0.31824 0.0
C804 C 0.37101 0.53922 0.2801 0.0
H805 H 0.39771 0.53209 0.24323 0.0
C806 C 0.3565 0.50834 0.27316 0.0
C807 C 0.38619 0.54667 0.26924 0.0
C808 C 0.40263 0.57633 0.27618 0.0
C809 C 0.35661 0.48596 0.25557 0.0
C810 C 0.37152 0.49557 0.24447 0.0
C811 C 0.38617 0.52533 0.25158 0.0
C812 C 0.37251 0.4736 0.22566 0.0
C813 C 0.34086 0.45132 0.24918 0.0
C814 C 0.38634 0.43608 0.22046 0.0
C815 C 0.38743 0.41501 0.2029 0.0
C816 C 0.37474 0.43098 0.19008 0.0
C817 C 0.36108 0.46951 0.19514 0.0
C818 C 0.36003 0.49081 0.21273 0.0
H819 H 0.3329 0.43419 0.26054 0.0
H820 H 0.33224 0.48044 0.24107 0.0
H821 H 0.34501 0.41368 0.24069 0.0
H822 H 0.39621 0.42243 0.23008 0.0
H823 H 0.39815 0.38555 0.19942 0.0
H824 H 0.4014 0.38696 0.82666 0.0
H825 H 0.40102 0.42563 0.7961 0.0
H826 H 0.35189 0.51457 0.80707 0.0
H827 H 0.35234 0.4765 0.83783 0.0
H828 H 0.37647 0.40732 0.76967 0.0
H829 H 0.38157 0.6456 0.78507 0.0
H830 H 0.38594 0.58926 0.80152 0.0
H831 H 0.36359 0.60881 0.79605 0.0
C832 C 0.39057 0.41514 0.82262 0.0
C833 C 0.37691 0.42873 0.83467 0.0
C834 C 0.39035 0.43711 0.80511 0.0
C835 C 0.37652 0.4735 0.79926 0.0
C836 C 0.36288 0.48747 0.81132 0.0
H837 H 0.35349 0.54995 0.68635 0.0
H838 H 0.35265 0.51237 0.71714 0.0
C839 C 0.3631 0.46548 0.82888 0.0
C840 C 0.37625 0.49521 0.78039 0.0
H841 H 0.37646 0.62006 0.75478 0.0
C842 C 0.37645 0.45386 0.76642 0.0
C843 C 0.37642 0.55594 0.77611 0.0
C844 C 0.37703 0.60258 0.79045 0.0
C845 C 0.37675 0.47145 0.74835 0.0
C846 C 0.37658 0.53217 0.74406 0.0
C847 C 0.37645 0.57353 0.75803 0.0
C848 C 0.3771 0.55381 0.72519 0.0
C849 C 0.37772 0.4248 0.73403 0.0
C850 C 0.39097 0.59027 0.71946 0.0
C851 C 0.39142 0.61196 0.70191 0.0
C852 C 0.37795 0.59801 0.68972 0.0
C853 C 0.36411 0.56124 0.6954 0.0
C854 C 0.36366 0.53953 0.71299 0.0
H855 H 0.38227 0.38188 0.73948 0.0
H856 H 0.3644 0.41826 0.72822 0.0
H857 H 0.38679 0.43827 0.72308 0.0
H858 H 0.40149 0.60199 0.72859 0.0
H859 H 0.40226 0.64021 0.69795 0.0
H860 H 0.63576 0.55489 0.83214 0.0
H861 H 0.6365 0.51796 0.80127 0.0
H862 H 0.58724 0.60606 0.79035 0.0
H863 H 0.58657 0.64362 0.82102 0.0
H864 H 0.61338 0.44794 0.78247 0.0
H865 H 0.61848 0.66668 0.75003 0.0
H866 H 0.62187 0.6561 0.77372 0.0
H867 H 0.59987 0.66031 0.76478 0.0
C868 C 0.62509 0.56632 0.82314 0.0
C869 C 0.61119 0.60262 0.82896 0.0
C870 C 0.62552 0.54521 0.8055 0.0
C871 C 0.61212 0.56022 0.79332 0.0
C872 C 0.59798 0.59508 0.79931 0.0
H873 H 0.58717 0.38585 0.69289 0.0
H874 H 0.58759 0.42508 0.72337 0.0
C875 C 0.59754 0.61619 0.8169 0.0
C876 C 0.61277 0.5389 0.77443 0.0
H877 H 0.61244 0.58545 0.73086 0.0
C878 C 0.61325 0.47804 0.7712 0.0
C879 C 0.61288 0.57808 0.75966 0.0
C880 C 0.61343 0.64394 0.76217 0.0
C881 C 0.61339 0.45534 0.75367 0.0
C882 C 0.61273 0.49448 0.73891 0.0
C883 C 0.61272 0.55537 0.74214 0.0
C884 C 0.61205 0.47299 0.72005 0.0
C885 C 0.61448 0.38956 0.75116 0.0
C886 C 0.62526 0.48876 0.7077 0.0
C887 C 0.62497 0.4667 0.69017 0.0
C888 C 0.6114 0.42866 0.68462 0.0
C889 C 0.59788 0.41463 0.6968 0.0
C890 C 0.59818 0.43669 0.71429 0.0
H891 H 0.61986 0.3673 0.76322 0.0
H892 H 0.60105 0.37192 0.74872 0.0
H893 H 0.62292 0.37818 0.7395 0.0
H894 H 0.63602 0.51714 0.71174 0.0
H895 H 0.63552 0.47855 0.68106 0.0
H896 H 0.09973 0.17754 0.93137 0.0
H897 H 0.0973 0.19915 0.96356 0.0
H898 H 0.15052 0.13698 0.97142 0.0
H899 H 0.15302 0.11581 0.93952 0.0
H900 H 0.10041 0.11727 0.99132 0.0
H901 H 0.15078 0.29112 0.99913 0.0
H902 H 0.14184 0.27092 0.97761 0.0
H903 H 0.15924 0.22798 0.98755 0.0
C904 C 0.11099 0.16957 0.93995 0.0
C905 C 0.12658 0.14504 0.93293 0.0
C906 C 0.10958 0.18174 0.95833 0.0
C907 C 0.12381 0.17045 0.96992 0.0
C908 C 0.13949 0.14731 0.96276 0.0
H909 H 0.15248 0.11691 0.0778 0.0
H910 H 0.14973 0.13607 0.04578 0.0
C911 C 0.14086 0.13487 0.9445 0.0
C912 C 0.12207 0.17821 0.98966 0.0
H913 H 0.14285 0.23803 0.0259 0.0
C914 C 0.10943 0.14463 0.99889 0.0
C915 C 0.13384 0.21393 0.99955 0.0
C916 C 0.14707 0.25349 0.99044 0.0
C917 C 0.10899 0.14289 0.01772 0.0
C918 C 0.12133 0.17645 0.02762 0.0
C919 C 0.13342 0.21217 0.01836 0.0
C920 C 0.12314 0.17034 0.0474 0.0
C921 C 0.09599 0.10245 0.02686 0.0
C922 C 0.10928 0.1849 0.05916 0.0
C923 C 0.11084 0.17398 0.07761 0.0
C924 C 0.12628 0.14831 0.08456 0.0
C925 C 0.14037 0.13639 0.07286 0.0
C926 C 0.13883 0.14739 0.05452 0.0
H927 H 0.08959 0.07177 0.0173 0.0
H928 H 0.10263 0.0762 0.03743 0.0
H929 H 0.08551 0.12916 0.03331 0.0
H930 H 0.09716 0.20369 0.05404 0.0
H931 H 0.09979 0.18381 0.08631 0.0
H932 H 0.88521 0.86667 0.93515 0.0
H933 H 0.88722 0.84881 0.96757 0.0
H934 H 0.83408 0.91328 0.97422 0.0
H935 H 0.83196 0.93047 0.94207 0.0
H936 H 0.88442 0.93262 0.99429 0.0
H937 H 0.83272 0.7642 1.00395 0.0
H938 H 0.84173 0.78155 0.9822 0.0
H939 H 0.82462 0.8267 0.9918 0.0
C940 C 0.87386 0.87584 0.94352 0.0
C941 C 0.85841 0.89989 0.93605 0.0
C942 C 0.87504 0.86586 0.96205 0.0
C943 C 0.86072 0.87894 0.97338 0.0
C944 C 0.84517 0.90153 0.9658 0.0
H945 H 0.8325 0.94524 0.08124 0.0
H946 H 0.83508 0.92508 0.04925 0.0
C947 C 0.84402 0.91169 0.94738 0.0
C948 C 0.86225 0.8736 0.99324 0.0
H949 H 0.84086 0.8199 0.03012 0.0
C950 C 0.87513 0.90702 1.00213 0.0
C951 C 0.85014 0.84019 1.00352 0.0
C952 C 0.83664 0.80066 0.99487 0.0
C953 C 0.87555 0.91074 0.02094 0.0
C954 C 0.8629 0.87949 0.03119 0.0
C955 C 0.85052 0.84405 0.02231 0.0
C956 C 0.86125 0.88733 0.05095 0.0
C957 C 0.88891 0.95066 0.02967 0.0
C958 C 0.87492 0.87145 0.06273 0.0
C959 C 0.87344 0.88288 0.08116 0.0
C960 C 0.85827 0.91047 0.08808 0.0
C961 C 0.8444 0.92424 0.07633 0.0
C962 C 0.84584 0.91266 0.05801 0.0
H963 H 0.89562 0.97966 0.0198 0.0
H964 H 0.8825 0.97864 0.03998 0.0
H965 H 0.89912 0.92351 0.03639 0.0
H966 H 0.88681 0.8509 0.05766 0.0
H967 H 0.88433 0.87158 0.08989 0.0
H968 H 0.15595 0.93458 0.43936 0.0
H969 H 0.15335 0.91875 0.47156 0.0
H970 H 0.10035 0.85396 0.46449 0.0
H971 H 0.10293 0.86948 0.43199 0.0
H972 H 0.12741 0.97703 0.49242 0.0
H973 H 0.12306 0.73362 0.49981 0.0
H974 H 0.132 0.76814 0.47998 0.0
H975 H 0.10862 0.76786 0.48376 0.0
C976 C 0.14382 0.91603 0.44459 0.0
C977 C 0.12961 0.90358 0.43314 0.0
C978 C 0.14236 0.90702 0.46303 0.0
C979 C 0.12669 0.88504 0.47049 0.0
C980 C 0.11266 0.87024 0.45904 0.0
H981 H 0.10225 0.86844 0.58635 0.0
H982 H 0.09965 0.85639 0.55368 0.0
C983 C 0.11413 0.87925 0.44047 0.0
C984 C 0.12478 0.88297 0.49033 0.0
H985 H 0.12162 0.79012 0.52631 0.0
C986 C 0.12602 0.93613 0.49979 0.0
C987 C 0.1228 0.8297 0.49997 0.0
C988 C 0.12164 0.77137 0.49046 0.0
C989 C 0.12578 0.93746 0.51857 0.0
C990 C 0.12455 0.88408 0.52826 0.0
C991 C 0.12263 0.83095 0.51886 0.0
C992 C 0.12648 0.88324 0.54807 0.0
C993 C 0.12705 0.99614 0.52792 0.0
C994 C 0.14257 0.90018 0.55577 0.0
C995 C 0.14407 0.90708 0.57427 0.0
C996 C 0.12953 0.89698 0.58555 0.0
C997 C 0.11367 0.87657 0.57798 0.0
C998 C 0.11217 0.86974 0.55934 0.0
H999 H 0.12334 0.03309 0.51893 0.0
H1000 H 0.1184 0.99728 0.53993 0.0
H1001 H 0.14086 1.00326 0.53235 0.0
H1002 H 0.15385 0.91005 0.54736 0.0
H1003 H 0.1565 0.92236 0.57969 0.0
H1004 H 0.87389 0.21024 0.59361 0.0
H1005 H 0.87662 0.24212 0.56204 0.0
H1006 H 0.86251 0.06749 0.54468 0.0
H1007 H 0.85979 0.03597 0.5756 0.0
H1008 H 0.89381 0.11706 0.52799 0.0
H1009 H 0.83479 0.26317 0.52481 0.0
H1010 H 0.8505 0.27278 0.54266 0.0
H1011 H 0.83709 0.2079 0.54204 0.0
C1012 C 0.87131 0.17902 0.58299 0.0
C1013 C 0.86659 0.12067 0.58709 0.0
C1014 C 0.87285 0.19719 0.565 0.0
C1015 C 0.86973 0.1571 0.55098 0.0
C1016 C 0.86503 0.09915 0.55521 0.0
H1017 H 0.83809 0.12032 0.44479 0.0
H1018 H 0.84195 0.1386 0.4767 0.0
C1019 C 0.86344 0.08126 0.57297 0.0
C1020 C 0.87132 0.17349 0.53173 0.0
H1021 H 0.84825 0.23759 0.49759 0.0
C1022 C 0.88414 0.14463 0.52134 0.0
C1023 C 0.85857 0.20892 0.52308 0.0
C1024 C 0.84436 0.24003 0.5336 0.0
C1025 C 0.88395 0.14747 0.50253 0.0
C1026 C 0.87071 0.18086 0.4938 0.0
C1027 C 0.85845 0.21227 0.50425 0.0
C1028 C 0.86794 0.17704 0.47406 0.0
C1029 C 0.89718 0.11128 0.49217 0.0
C1030 C 0.88104 0.19416 0.46174 0.0
C1031 C 0.87887 0.18347 0.44334 0.0
C1032 C 0.86354 0.1556 0.43699 0.0
C1033 C 0.85011 0.14145 0.44925 0.0
C1034 C 0.85228 0.15209 0.46754 0.0
H1035 H 0.90454 0.08019 0.50089 0.0
H1036 H 0.89051 0.08569 0.48149 0.0
H1037 H 0.90689 0.14105 0.48571 0.0
H1038 H 0.89312 0.21446 0.46638 0.0
H1039 H 0.88941 0.19518 0.4342 0.0
H1040 H 0.60173 0.66681 0.08382 0.0
H1041 H 0.59955 0.679 0.05114 0.0
H1042 H 0.65304 0.61703 0.04534 0.0
H1043 H 0.65522 0.6043 0.07771 0.0
H1044 H 0.6209 0.7422 0.02448 0.0
H1045 H 0.62321 0.50013 0.01561 0.0
H1046 H 0.61876 0.53418 0.03696 0.0
H1047 H 0.64105 0.52849 0.02882 0.0
C1048 C 0.61308 0.65665 0.07557 0.0
C1049 C 0.62858 0.63392 0.08331 0.0
C1050 C 0.61182 0.66357 0.0569 0.0
C1051 C 0.62602 0.64782 0.04575 0.0
C1052 C 0.6418 0.62839 0.05362 0.0
H1053 H 0.65499 0.60574 0.93612 0.0
H1054 H 0.65282 0.61878 0.96847 0.0
C1055 C 0.64304 0.62133 0.07215 0.0
C1056 C 0.6243 0.64827 0.02588 0.0
H1057 H 0.62748 0.55816 0.98944 0.0
C1058 C 0.62212 0.70197 0.01679 0.0
C1059 C 0.62576 0.59568 0.01584 0.0
C1060 C 0.62715 0.53625 0.02478 0.0
C1061 C 0.62222 0.70463 0.99792 0.0
C1062 C 0.62439 0.6522 0.98793 0.0
C1063 C 0.62596 0.59844 0.99707 0.0
C1064 C 0.62603 0.65166 0.96804 0.0
C1065 C 0.62072 0.7636 0.98878 0.0
C1066 C 0.61178 0.66688 0.9569 0.0
C1067 C 0.613 0.65946 0.93826 0.0
C1068 C 0.62846 0.63635 0.93051 0.0
C1069 C 0.64288 0.62344 0.94166 0.0
C1070 C 0.64166 0.63083 0.96018 0.0
H1071 H 0.62219 0.80069 0.99834 0.0
H1072 H 0.63088 0.76793 0.97814 0.0
H1073 H 0.60757 0.76722 0.98235 0.0
H1074 H 0.59949 0.68226 0.96265 0.0
H1075 H 0.60164 0.66949 0.93002 0.0
H1076 H 0.33447 0.42597 0.94267 0.0
H1077 H 0.3369 0.40755 0.97478 0.0
H1078 H 0.38939 0.33842 0.96714 0.0
H1079 H 0.38708 0.35748 0.93482 0.0
H1080 H 0.34336 0.30517 0.99475 0.0
H1081 H 0.39688 0.46994 1.00404 0.0
H1082 H 0.38402 0.46598 0.98377 0.0
H1083 H 0.40105 0.41277 0.98797 0.0
C1084 C 0.3465 0.40638 0.94778 0.0
C1085 C 0.36064 0.39366 0.93622 0.0
C1086 C 0.34786 0.39581 0.96617 0.0
C1087 C 0.36343 0.37253 0.97348 0.0
C1088 C 0.37736 0.35746 0.96188 0.0
H1089 H 0.38714 0.36012 0.08937 0.0
H1090 H 0.3893 0.34036 0.05706 0.0
C1091 C 0.37598 0.36792 0.94339 0.0
C1092 C 0.36503 0.36622 0.99329 0.0
H1093 H 0.38609 0.42315 0.02984 0.0
C1094 C 0.35284 0.33049 1.0024 0.0
C1095 C 0.37743 0.39905 1.00333 0.0
C1096 C 0.39054 0.43949 0.99437 0.0
C1097 C 0.35242 0.32781 0.02121 0.0
C1098 C 0.3643 0.36264 0.03127 0.0
C1099 C 0.37699 0.39642 0.02216 0.0
C1100 C 0.3627 0.36908 0.05108 0.0
C1101 C 0.33913 0.28802 0.03014 0.0
C1102 C 0.34706 0.39152 0.05852 0.0
C1103 C 0.34583 0.40282 0.07686 0.0
C1104 C 0.36024 0.39228 0.08825 0.0
C1105 C 0.37578 0.36834 0.08095 0.0
C1106 C 0.37704 0.35727 0.06249 0.0
H1107 H 0.33537 0.25088 0.02127 0.0
H1108 H 0.34432 0.26986 0.04289 0.0
H1109 H 0.32699 0.31357 0.03312 0.0
H1110 H 0.33594 0.40227 0.05003 0.0
H1111 H 0.3337 0.42145 0.08205 0.0
H1112 H 0.6249 0.50799 0.44531 0.0
H1113 H 0.62262 0.47491 0.47618 0.0
H1114 H 0.61601 0.29599 0.45834 0.0
H1115 H 0.6181 0.32939 0.42687 0.0
H1116 H 0.59196 0.39575 0.49212 0.0
H1117 H 0.66099 0.31195 0.49598 0.0
H1118 H 0.65542 0.36937 0.48025 0.0
H1119 H 0.64723 0.2963 0.47685 0.0
C1120 C 0.62289 0.46151 0.44784 0.0
C1121 C 0.62175 0.42125 0.43361 0.0
C1122 C 0.62154 0.44274 0.46555 0.0
C1123 C 0.61915 0.3831 0.46959 0.0
C1124 C 0.61784 0.34232 0.45548 0.0
H1125 H 0.60841 0.33105 0.58779 0.0
H1126 H 0.60555 0.30275 0.55597 0.0
C1127 C 0.61904 0.36135 0.43755 0.0
C1128 C 0.61863 0.3653 0.48875 0.0
H1129 H 0.64642 0.33135 0.52324 0.0
C1130 C 0.60363 0.37964 0.49893 0.0
C1131 C 0.63396 0.34506 0.49759 0.0
C1132 C 0.65039 0.32958 0.48723 0.0
C1133 C 0.60394 0.37771 0.51776 0.0
C1134 C 0.61967 0.36124 0.52665 0.0
C1135 C 0.63431 0.34344 0.51643 0.0
C1136 C 0.6222 0.3731 0.54608 0.0
C1137 C 0.58793 0.39784 0.5281 0.0
C1138 C 0.6327 0.42106 0.55107 0.0
C1139 C 0.63419 0.43733 0.56899 0.0
C1140 C 0.6254 0.40566 0.58248 0.0
C1141 C 0.61538 0.35606 0.57766 0.0
C1142 C 0.6137 0.34008 0.55952 0.0
H1143 H 0.57691 0.41116 0.51918 0.0
H1144 H 0.58328 0.36173 0.53693 0.0
H1145 H 0.59146 0.43571 0.53676 0.0
H1146 H 0.63934 0.44724 0.54098 0.0
H1147 H 0.64205 0.47565 0.57225 0.0
H1148 H 0.33473 0.59958 0.58238 0.0
H1149 H 0.33652 0.61809 0.55026 0.0
H1150 H 0.38857 0.69149 0.55692 0.0
H1151 H 0.38695 0.67199 0.58927 0.0
H1152 H 0.34139 0.71869 0.53003 0.0
H1153 H 0.39706 0.56221 0.52 0.0
H1154 H 0.38469 0.56537 0.54061 0.0
H1155 H 0.40091 0.62069 0.53567 0.0
C1156 C 0.34653 0.62009 0.57706 0.0
C1157 C 0.36077 0.63378 0.58835 0.0
C1158 C 0.34752 0.63074 0.55866 0.0
C1159 C 0.3628 0.6552 0.55105 0.0
C1160 C 0.37678 0.67142 0.5624 0.0
H1161 H 0.38449 0.67062 0.43479 0.0
H1162 H 0.3866 0.69187 0.467 0.0
C1163 C 0.37579 0.66073 0.5809 0.0
C1164 C 0.36402 0.66143 0.5312 0.0
H1165 H 0.38535 0.60726 0.49434 0.0
C1166 C 0.35113 0.69481 0.52225 0.0
C1167 C 0.37674 0.63042 0.52097 0.0
C1168 C 0.39058 0.59224 0.52972 0.0
C1169 C 0.35035 0.69681 0.50345 0.0
C1170 C 0.36261 0.66387 0.49324 0.0
C1171 C 0.37596 0.63256 0.50215 0.0
C1172 C 0.36082 0.65676 0.47348 0.0
C1173 C 0.33624 0.73374 0.49468 0.0
C1174 C 0.34563 0.63036 0.46637 0.0
C1175 C 0.34443 0.61809 0.44808 0.0
C1176 C 0.35843 0.63175 0.43644 0.0
C1177 C 0.37345 0.65988 0.44342 0.0
C1178 C 0.37469 0.67183 0.46181 0.0
H1179 H 0.33181 0.76996 0.5036 0.0
H1180 H 0.341 0.75301 0.48189 0.0
H1181 H 0.32463 0.70564 0.49176 0.0
H1182 H 0.33489 0.61722 0.47509 0.0
H1183 H 0.33272 0.59623 0.44313 0.0
H1184 H 0.9147 0.05771 0.13441 0.0
H1185 H 0.94581 0.0842 0.13188 0.0
H1186 H 0.95962 0.90088 0.1264 0.0
H1187 H 0.92846 0.8739 0.12854 0.0
H1188 H 0.97228 0.05087 0.15443 0.0
H1189 H 0.98673 0.97557 0.08533 0.0
H1190 H 0.96451 0.98391 0.0937 0.0
H1191 H 0.97725 0.91971 0.09935 0.0
C1192 C 0.92432 0.02297 0.1325 0.0
C1193 C 0.91911 0.96366 0.13165 0.0
C1194 C 0.94209 0.03825 0.13105 0.0
C1195 C 0.95497 0.99458 0.12872 0.0
C1196 C 0.94983 0.93535 0.12778 0.0
H1197 H 0.06899 0.99501 0.13233 0.0
H1198 H 0.03772 0.96884 0.13112 0.0
C1199 C 0.93203 0.92001 0.12912 0.0
C1200 C 0.97385 1.01095 0.12834 0.0
H1201 H 0.01143 1.00265 0.10322 0.0
C1202 C 0.98082 0.0407 0.14318 0.0
C1203 C 0.98492 0.99745 0.11365 0.0
C1204 C 0.97796 0.96789 0.09703 0.0
C1205 C -0.00134 0.05662 0.14384 0.0
C1206 C 0.00972 0.04279 0.12922 0.0
C1207 C 0.00282 1.01302 0.11438 0.0
C1208 C 0.02857 0.05879 0.12921 0.0
C1209 C 0.00565 0.08717 0.16029 0.0
C1210 C 0.03367 0.11798 0.12825 0.0
C1211 C 0.0515 0.13318 0.12889 0.0
C1212 C 0.06451 0.08931 0.13053 0.0
C1213 C 0.05931 0.0299 0.13116 0.0
C1214 C 0.04148 1.01479 0.13043 0.0
H1215 H -0.00375 0.08465 0.17168 0.0
H1216 H 0.01843 0.06755 0.16447 0.0
H1217 H 0.00799 0.13428 0.15717 0.0
H1218 H 0.02383 0.15241 0.12713 0.0
H1219 H 0.05505 0.17931 0.12833 0.0
H1220 H 0.93337 0.18599 0.39351 0.0
H1221 H 0.96445 0.15667 0.39445 0.0
H1222 H 0.94918 0.974 0.39227 0.0
H1223 H 0.91819 1.00265 0.39099 0.0
H1224 H 0.98297 0.08548 0.41837 0.0
H1225 H 0.98301 0.98953 0.35011 0.0
H1226 H 0.96533 0.03557 0.35824 0.0
H1227 H 0.9664 0.95924 0.36456 0.0
C1228 C 0.93662 0.13957 0.39329 0.0
C1229 C 0.92332 0.09667 0.39198 0.0
C1230 C 0.95437 0.12294 0.39383 0.0
C1231 C 0.95907 0.06326 0.39307 0.0
C1232 C 0.94581 0.02034 0.39243 0.0
H1233 H 0.05805 0.87243 0.39172 0.0
H1234 H 0.02707 0.90165 0.39437 0.0
C1235 C 0.9281 0.03686 0.39178 0.0
C1236 C 0.97785 0.04575 0.39275 0.0
H1237 H 0.00855 0.97271 0.36775 0.0
C1238 C 0.98861 0.06105 0.40729 0.0
C1239 C 0.98512 1.01402 0.37822 0.0
C1240 C 0.97443 0.99907 0.36182 0.0
C1241 C 0.00644 0.04446 0.40782 0.0
C1242 C 0.01361 1.01226 0.39338 0.0
C1243 C 0.00289 0.99705 0.37885 0.0
C1244 C 0.03237 0.99504 0.39283 0.0
C1245 C 0.01742 0.06066 0.42389 0.0
C1246 C 0.0455 0.03804 0.39102 0.0
C1247 C 0.06317 0.02159 0.38941 0.0
C1248 C 0.068 0.96179 0.38958 0.0
C1249 C 0.05479 0.91884 0.3916 0.0
C1250 C 0.0371 0.93538 0.3931 0.0
H1251 H 0.00911 0.0743 0.43542 0.0
H1252 H 0.02586 0.02308 0.42805 0.0
H1253 H 0.02622 0.09792 0.42034 0.0
H1254 H 0.04203 0.08427 0.39051 0.0
H1255 H 0.07301 0.0558 0.38788 0.0
H1256 H 0.06065 0.14485 0.91138 0.0
H1257 H 0.02983 0.11455 0.91509 0.0
H1258 H 0.03554 0.99374 0.8709 0.0
H1259 H 0.06655 0.02114 0.86798 0.0
H1260 H 0.00303 0.12469 0.89511 0.0
H1261 H 0.01277 0.88655 0.90518 0.0
H1262 H 0.03098 0.93755 0.90522 0.0
H1263 H 0.0226 0.90848 0.88444 0.0
C1264 C 0.05531 0.1114 0.90262 0.0
C1265 C 0.06593 0.08483 0.88952 0.0
C1266 C 0.03773 0.09409 0.90473 0.0
C1267 C 0.03043 0.05072 0.89356 0.0
C1268 C 0.041 0.02545 0.88016 0.0
H1269 H 0.92005 1.01916 0.86823 0.0
H1270 H 0.95115 0.04607 0.8707 0.0
C1271 C 0.05867 0.04154 0.87838 0.0
C1272 C 0.01156 0.03413 0.89526 0.0
H1273 H 0.98371 0.91625 0.89552 0.0
C1274 C -0.00117 0.07907 0.89548 0.0
C1275 C 0.006 0.9747 0.89619 0.0
C1276 C 0.01885 0.92423 0.89796 0.0
C1277 C 0.98074 0.06627 0.89591 0.0
C1278 C 0.97518 1.00681 0.89521 0.0
C1279 C 0.98791 0.96188 0.8957 0.0
C1280 C 0.95631 0.99011 0.89362 0.0
C1281 C 0.96787 0.1168 0.89739 0.0
C1282 C 0.94902 0.94736 0.90505 0.0
C1283 C 0.93141 0.93029 0.90319 0.0
C1284 C 0.92073 0.95651 0.89009 0.0
C1285 C 0.92799 0.99902 0.87863 0.0
C1286 C 0.94571 1.01485 0.88016 0.0
H1287 H 0.97391 0.15489 0.90439 0.0
H1288 H 0.96415 0.1318 0.88378 0.0
H1289 H 0.95572 0.10384 0.90472 0.0
H1290 H 0.95694 0.92732 0.91547 0.0
H1291 H 0.92606 0.89747 0.91221 0.0
H1292 H 0.93157 0.17239 0.6271 0.0
H1293 H 0.96283 0.14704 0.62426 0.0
H1294 H 0.95016 0.96312 0.6302 0.0
H1295 H 0.9189 0.98769 0.63307 0.0
H1296 H 0.98244 0.08078 0.65154 0.0
H1297 H 0.98261 0.97328 0.58474 0.0
H1298 H 0.96542 0.02344 0.59176 0.0
H1299 H 0.96576 0.9493 0.60007 0.0
C1300 C 0.93538 0.12647 0.62763 0.0
C1301 C 0.92271 0.08207 0.63034 0.0
C1302 C 0.95324 0.11215 0.62601 0.0
C1303 C 0.9587 0.05327 0.62684 0.0
C1304 C 0.94612 1.00878 0.62927 0.0
H1305 H 0.058 0.86727 0.62753 0.0
H1306 H 0.02702 0.89708 0.62602 0.0
C1307 C 0.92828 0.02301 0.63102 0.0
C1308 C 0.97766 0.03847 0.62627 0.0
H1309 H 0.00884 0.96571 0.60185 0.0
C1310 C 0.98829 0.05604 0.64063 0.0
C1311 C 0.98509 1.0058 0.61208 0.0
C1312 C 0.97421 0.9871 0.59619 0.0
C1313 C 0.00619 0.04057 0.64139 0.0
C1314 C 0.01369 1.00801 0.62715 0.0
C1315 C 0.00305 0.99079 0.61272 0.0
C1316 C 0.0325 0.99045 0.62719 0.0
C1317 C 0.01672 0.0576 0.65772 0.0
C1318 C 0.04583 0.03316 0.62792 0.0
C1319 C 0.06352 1.01632 0.62892 0.0
C1320 C 0.06821 0.95641 0.62896 0.0
C1321 C 0.05484 0.91377 0.62756 0.0
C1322 C 0.03714 0.93069 0.62669 0.0
H1323 H 0.00804 0.06791 0.66929 0.0
H1324 H 0.02594 0.02187 0.66167 0.0
H1325 H 0.02461 0.0975 0.65466 0.0
H1326 H 0.04255 0.07956 0.62786 0.0
H1327 H 0.0735 0.05031 0.62979 0.0
H1328 H 0.41656 0.5478 0.13071 0.0
H1329 H 0.44733 0.57676 0.12675 0.0
H1330 H 0.46262 0.39408 0.12398 0.0
H1331 H 0.43182 0.36459 0.12754 0.0
H1332 H 0.47446 0.55074 0.14904 0.0
H1333 H 0.48845 0.46292 0.0813 0.0
H1334 H 0.4663 0.47056 0.08993 0.0
H1335 H 0.47971 0.4087 0.09636 0.0
C1336 C 0.42643 0.5137 0.12908 0.0
C1337 C 0.42174 0.45384 0.12942 0.0
C1338 C 0.444 0.53038 0.1268 0.0
C1339 C 0.45721 0.4876 0.12481 0.0
C1340 C 0.45258 0.42782 0.12505 0.0
H1341 H 0.57064 0.48896 0.12977 0.0
H1342 H 0.53934 0.4638 0.12778 0.0
C1343 C 0.43497 0.41106 0.12721 0.0
C1344 C 0.47594 0.50554 0.12376 0.0
H1345 H 0.51338 0.49306 0.09857 0.0
C1346 C 0.48292 0.53865 0.13792 0.0
C1347 C 0.48693 0.48955 0.10924 0.0
C1348 C 0.47994 0.45646 0.09326 0.0
C1349 C 0.50073 0.55512 0.13815 0.0
C1350 C 0.51175 0.53838 0.12378 0.0
C1351 C 0.50481 0.50566 0.10955 0.0
C1352 C 0.53067 0.55345 0.12361 0.0
C1353 C 0.50777 0.58908 0.15394 0.0
C1354 C 0.53606 0.61206 0.12156 0.0
C1355 C 0.55392 0.62667 0.12266 0.0
C1356 C 0.56664 0.58281 0.12586 0.0
C1357 C 0.56118 0.52385 0.12739 0.0
C1358 C 0.54332 0.50931 0.12621 0.0
H1359 H 0.49828 0.58983 0.16529 0.0
H1360 H 0.5204 0.56972 0.15864 0.0
H1361 H 0.5104 0.63519 0.14982 0.0
H1362 H 0.52642 0.64656 0.1194 0.0
H1363 H 0.55769 0.67246 0.12137 0.0
H1364 H 0.43016 0.6708 0.39097 0.0
H1365 H 0.46152 0.64556 0.3923 0.0
H1366 H 0.44853 0.4614 0.38766 0.0
H1367 H 0.41725 0.48611 0.38589 0.0
H1368 H 0.47955 0.57711 0.41632 0.0
H1369 H 0.48453 0.48231 0.34813 0.0
H1370 H 0.4657 0.52472 0.35538 0.0
H1371 H 0.46771 0.44841 0.36154 0.0
C1372 C 0.43398 0.62494 0.39015 0.0
C1373 C 0.42123 0.5805 0.38815 0.0
C1374 C 0.45189 0.61063 0.39094 0.0
C1375 C 0.45733 0.55174 0.38976 0.0
C1376 C 0.44462 0.50723 0.38813 0.0
H1377 H 0.55824 0.37395 0.39523 0.0
H1378 H 0.52693 0.39979 0.3971 0.0
C1379 C 0.42674 0.52148 0.38719 0.0
C1380 C 0.47629 0.53671 0.39046 0.0
H1381 H 0.50915 0.46759 0.36733 0.0
C1382 C 0.48605 0.55343 0.40558 0.0
C1383 C 0.48472 0.50597 0.37638 0.0
C1384 C 0.47518 0.4898 0.35936 0.0
C1385 C 0.50401 0.53932 0.40711 0.0
C1386 C 0.5123 0.50789 0.39316 0.0
C1387 C 0.5026 0.49125 0.37805 0.0
C1388 C 0.53123 0.49319 0.39368 0.0
C1389 C 0.514 0.55737 0.42365 0.0
C1390 C 0.54387 0.53742 0.39123 0.0
C1391 C 0.56173 0.52289 0.39003 0.0
C1392 C 0.56719 0.46384 0.39129 0.0
C1393 C 0.55447 0.41984 0.39426 0.0
C1394 C 0.5366 0.43442 0.39531 0.0
H1395 H 0.50504 0.57273 0.43447 0.0
H1396 H 0.52202 0.52004 0.42876 0.0
H1397 H 0.52318 0.59375 0.42024 0.0
H1398 H 0.53987 0.58296 0.38976 0.0
H1399 H 0.57119 0.55784 0.38779 0.0
H1400 H 0.42668 0.39187 0.91663 0.0
H1401 H 0.45743 0.42162 0.92122 0.0
H1402 H 0.45299 0.5446 0.87735 0.0
H1403 H 0.42208 0.51769 0.87355 0.0
H1404 H 0.48453 0.41112 0.90175 0.0
H1405 H 0.47581 0.64906 0.91219 0.0
H1406 H 0.45733 0.59914 0.91195 0.0
H1407 H 0.46594 0.62913 0.89133 0.0
C1408 C 0.43228 0.42574 0.90815 0.0
C1409 C 0.42206 0.45294 0.89485 0.0
C1410 C 0.44981 0.44276 0.91077 0.0
C1411 C 0.45745 0.48648 0.89993 0.0
C1412 C 0.44726 0.51261 0.88639 0.0
H1413 H 0.56569 0.51327 0.86965 0.0
H1414 H 0.53501 0.48582 0.87505 0.0
C1415 C 0.42964 0.49678 0.88409 0.0
C1416 C 0.47636 0.50209 0.90188 0.0
H1417 H 0.50463 0.61873 0.90131 0.0
C1418 C 0.4889 0.45656 0.902 0.0
C1419 C 0.48217 0.56123 0.90274 0.0
C1420 C 0.46955 0.61224 0.90477 0.0
C1421 C 0.50705 0.46859 0.90194 0.0
C1422 C 0.5128 0.52777 0.90083 0.0
C1423 C 0.50028 0.57327 0.90174 0.0
C1424 C 0.53159 0.54353 0.89788 0.0
C1425 C 0.51976 0.41756 0.90316 0.0
C1426 C 0.53969 0.58717 0.90835 0.0
C1427 C 0.55704 0.60453 0.9048 0.0
C1428 C 0.56663 0.57774 0.89095 0.0
C1429 C 0.55861 0.53391 0.88058 0.0
C1430 C 0.54114 0.51776 0.8838 0.0
H1431 H 0.5139 0.38052 0.91085 0.0
H1432 H 0.52265 0.40105 0.8895 0.0
H1433 H 0.53234 0.43048 0.90966 0.0
H1434 H 0.53258 0.608 0.91921 0.0
H1435 H 0.56301 0.63833 0.91302 0.0
H1436 H 0.42675 0.63503 0.60609 0.0
H1437 H 0.45722 0.60473 0.60004 0.0
H1438 H 0.45445 0.48091 0.64383 0.0
H1439 H 0.42374 0.50834 0.64907 0.0
H1440 H 0.48509 0.61445 0.61802 0.0
H1441 H 0.47584 0.37658 0.60802 0.0
H1442 H 0.4574 0.42662 0.60922 0.0
H1443 H 0.46698 0.39657 0.62937 0.0
C1444 C 0.43266 0.60088 0.61426 0.0
C1445 C 0.42294 0.57364 0.62795 0.0
C1446 C 0.45003 0.58353 0.61079 0.0
C1447 C 0.45807 0.53941 0.62118 0.0
C1448 C 0.4484 0.51321 0.63513 0.0
H1449 H 0.56743 0.51298 0.64614 0.0
H1450 H 0.53651 0.53941 0.64221 0.0
C1451 C 0.4309 0.52938 0.63826 0.0
C1452 C 0.47689 0.52355 0.61831 0.0
H1453 H 0.50518 0.40673 0.61733 0.0
C1454 C 0.48943 0.56897 0.61754 0.0
C1455 C 0.48266 0.46436 0.61713 0.0
C1456 C 0.46995 0.41344 0.61575 0.0
C1457 C 0.50755 0.55682 0.61662 0.0
C1458 C 0.51336 0.49762 0.61741 0.0
C1459 C 0.50081 0.4522 0.61714 0.0
C1460 C 0.53228 0.48189 0.61949 0.0
C1461 C 0.52019 0.6078 0.61473 0.0
C1462 C 0.54007 0.43855 0.60863 0.0
C1463 C 0.55764 0.4218 0.61131 0.0
C1464 C 0.56776 0.44886 0.6247 0.0
C1465 C 0.55999 0.49218 0.63551 0.0
C1466 C 0.54235 0.50775 0.63315 0.0
H1467 H 0.51397 0.64482 0.60732 0.0
H1468 H 0.52372 0.62439 0.62821 0.0
H1469 H 0.53245 0.5948 0.60761 0.0
H1470 H 0.53255 0.41757 0.5981 0.0
H1471 H 0.56337 0.3883 0.60278 0.0
H1472 H 0.12739 0.8745 0.16496 0.0
H1473 H 0.12533 0.76657 0.16529 0.0
H1474 H 0.124 0.76526 0.1076 0.0
H1475 H 0.1264 0.87251 0.10722 0.0
H1476 H 0.09871 0.69697 0.15198 0.0
H1477 H 0.16157 0.64304 0.11771 0.0
H1478 H 0.15694 0.71538 0.12651 0.0
H1479 H 0.148 0.69316 0.10528 0.0
C1480 C 0.12689 0.85101 0.15237 0.0
C1481 C 0.12718 0.88181 0.13607 0.0
C1482 C 0.12566 0.78943 0.15256 0.0
C1483 C 0.12478 0.75763 0.13646 0.0
C1484 C 0.1251 0.78854 0.12018 0.0
H1485 H 0.11103 0.38844 0.10768 0.0
H1486 H 0.11336 0.49631 0.10765 0.0
C1487 C 0.12638 0.84993 0.11999 0.0
C1488 C 0.12273 0.69246 0.13662 0.0
H1489 H 0.14099 0.56465 0.12111 0.0
C1490 C 0.10803 0.66801 0.14534 0.0
C1491 C 0.13484 0.65462 0.12787 0.0
C1492 C 0.15131 0.67776 0.11896 0.0
C1493 C 0.10491 0.607 0.14526 0.0
C1494 C 0.11697 0.56922 0.13645 0.0
C1495 C 0.13169 0.59363 0.12776 0.0
C1496 C 0.11482 0.50414 0.13647 0.0
C1497 C 0.08851 0.58368 0.15428 0.0
C1498 C 0.11494 0.47268 0.15264 0.0
C1499 C 0.11355 0.41131 0.15268 0.0
C1500 C 0.11216 0.38005 0.13652 0.0
C1501 C 0.11199 0.41144 0.12032 0.0
C1502 C 0.11337 0.47298 0.1203 0.0
H1503 H 0.07836 0.61856 0.15595 0.0
H1504 H 0.08268 0.54684 0.14654 0.0
H1505 H 0.09201 0.56699 0.16777 0.0
H1506 H 0.11644 0.49553 0.16526 0.0
H1507 H 0.11388 0.38825 0.16536 0.0
H1508 H 0.84134 0.18145 0.11893 0.0
H1509 H 0.84411 0.28885 0.11813 0.0
H1510 H 0.87584 0.28345 0.16597 0.0
H1511 H 0.87332 0.17581 0.16665 0.0
H1512 H 0.83471 0.37479 0.14257 0.0
H1513 H 0.90715 0.37555 0.13151 0.0
H1514 H 0.89395 0.30992 0.1292 0.0
H1515 H 0.90028 0.33548 0.15102 0.0
C1516 C 0.84883 0.2032 0.12933 0.0
C1517 C 0.85719 0.17026 0.14281 0.0
C1518 C 0.85042 0.26458 0.12885 0.0
C1519 C 0.86047 0.29423 0.14178 0.0
C1520 C 0.86836 0.2615 0.1556 0.0
H1521 H 0.8866 0.66111 0.16099 0.0
H1522 H 0.88372 0.55373 0.1617 0.0
C1523 C 0.8668 0.20005 0.15607 0.0
C1524 C 0.86268 0.35929 0.14073 0.0
H1525 H 0.89363 0.46807 0.1368 0.0
C1526 C 0.84759 0.39518 0.14124 0.0
C1527 C 0.87949 0.38595 0.13895 0.0
C1528 C 0.89615 0.34982 0.13747 0.0
C1529 C 0.84886 0.45689 0.14038 0.0
C1530 C 0.86566 0.48352 0.13865 0.0
C1531 C 0.88076 0.44766 0.13812 0.0
C1532 C 0.86789 0.54856 0.13769 0.0
C1533 C 0.83221 0.49311 0.14178 0.0
C1534 C 0.86031 0.58137 0.12371 0.0
C1535 C 0.86197 0.6428 0.12326 0.0
C1536 C 0.87132 0.67247 0.13674 0.0
C1537 C 0.87931 0.63945 0.15042 0.0
C1538 C 0.87766 0.57809 0.15085 0.0
H1539 H 0.82109 0.46727 0.14748 0.0
H1540 H 0.83434 0.53263 0.15023 0.0
H1541 H 0.82828 0.50813 0.12822 0.0
H1542 H 0.85302 0.55949 0.11319 0.0
H1543 H 0.8557 0.66712 0.11253 0.0
H1544 H 0.12307 0.1729 0.35208 0.0
H1545 H 0.12079 0.28075 0.35223 0.0
H1546 H 0.13509 0.28296 0.40807 0.0
H1547 H 0.13781 0.17577 0.40784 0.0
H1548 H 0.09877 0.35007 0.3717 0.0
H1549 H 0.16789 0.4066 0.38848 0.0
H1550 H 0.16145 0.33368 0.38155 0.0
H1551 H 0.15809 0.35701 0.40431 0.0
C1552 C 0.12598 0.19658 0.3643 0.0
C1553 C 0.13075 0.16599 0.37991 0.0
C1554 C 0.12461 0.25815 0.3644 0.0
C1555 C 0.12804 0.29027 0.38009 0.0
C1556 C 0.13283 0.25956 0.39567 0.0
H1557 H 0.11988 0.66023 0.41088 0.0
H1558 H 0.1224 0.55237 0.41059 0.0
C1559 C 0.13429 0.19816 0.39554 0.0
C1560 C 0.12579 0.35548 0.38044 0.0
H1561 H 0.14685 0.4843 0.39059 0.0
C1562 C 0.10933 0.37941 0.37571 0.0
C1563 C 0.13953 0.39394 0.38575 0.0
C1564 C 0.15778 0.37161 0.39014 0.0
C1565 C 0.10615 0.44038 0.37643 0.0
C1566 C 0.11986 0.47871 0.38183 0.0
C1567 C 0.13631 0.45488 0.38657 0.0
C1568 C 0.11757 0.54379 0.38219 0.0
C1569 C 0.08803 0.46316 0.37173 0.0
C1570 C 0.11406 0.57483 0.36633 0.0
C1571 C 0.11262 0.63623 0.36648 0.0
C1572 C 0.11472 0.66795 0.38247 0.0
C1573 C 0.11809 0.63691 0.39838 0.0
C1574 C 0.11959 0.57537 0.39822 0.0
H1575 H 0.0779 0.42792 0.37248 0.0
H1576 H 0.08408 0.4996 0.38078 0.0
H1577 H 0.08821 0.48039 0.35784 0.0
H1578 H 0.11279 0.55164 0.35375 0.0
H1579 H 0.11015 0.65897 0.35398 0.0
H1580 H 0.86178 0.39597 0.41238 0.0
H1581 H 0.85886 0.50357 0.41164 0.0
H1582 H 0.88719 0.50858 0.36158 0.0
H1583 H 0.88996 0.40117 0.36217 0.0
H1584 H 0.88437 0.59249 0.41017 0.0
H1585 H 0.84186 0.5982 0.3498 0.0
H1586 H 0.8461 0.53132 0.36213 0.0
H1587 H 0.8623 0.55945 0.34674 0.0
C1588 C 0.86746 0.42011 0.40128 0.0
C1589 C 0.87603 0.3902 0.38729 0.0
C1590 C 0.86576 0.48155 0.40085 0.0
C1591 C 0.8725 0.51413 0.38638 0.0
C1592 C 0.88153 0.48436 0.37268 0.0
H1593 H 0.87538 0.88653 0.35835 0.0
H1594 H 0.87811 0.77887 0.35909 0.0
C1595 C 0.88323 0.423 0.3731 0.0
C1596 C 0.87012 0.57918 0.38563 0.0
H1597 H 0.85231 0.69013 0.36047 0.0
C1598 C 0.87729 0.61382 0.39935 0.0
C1599 C 0.86088 0.60706 0.37149 0.0
C1600 C 0.85219 0.57216 0.35678 0.0
C1601 C 0.87578 0.67555 0.39915 0.0
C1602 C 0.86656 0.70344 0.38501 0.0
C1603 C 0.85939 0.66879 0.37129 0.0
C1604 C 0.86425 0.7685 0.38423 0.0
C1605 C 0.88444 0.71046 0.41389 0.0
C1606 C 0.85516 0.79839 0.39786 0.0
C1607 C 0.85357 0.85979 0.39745 0.0
C1608 C 0.86094 0.8925 0.38333 0.0
C1609 C 0.86957 0.86246 0.3694 0.0
C1610 C 0.87115 0.80099 0.36982 0.0
H1611 H 0.8947 0.68434 0.42094 0.0
H1612 H 0.89062 0.75114 0.40852 0.0
H1613 H 0.8743 0.72345 0.42385 0.0
H1614 H 0.84938 0.77424 0.40891 0.0
H1615 H 0.84679 0.88171 0.40834 0.0
H1616 H 0.85425 0.17238 0.85637 0.0
H1617 H 0.8569 0.28029 0.85608 0.0
H1618 H 0.86678 0.27905 0.91288 0.0
H1619 H 0.86427 0.1718 0.91323 0.0
H1620 H 0.83774 0.36697 0.87572 0.0
H1621 H 0.90906 0.37079 0.89253 0.0
H1622 H 0.89799 0.30517 0.88486 0.0
H1623 H 0.89577 0.32847 0.90773 0.0
C1624 C 0.85692 0.19528 0.86878 0.0
C1625 C 0.85913 0.16376 0.88481 0.0
C1626 C 0.85845 0.25681 0.8686 0.0
C1627 C 0.86236 0.2876 0.88441 0.0
C1628 C 0.86412 0.25616 0.90047 0.0
H1629 H 0.87728 0.65658 0.91288 0.0
H1630 H 0.87447 0.54873 0.91302 0.0
C1631 C 0.86257 0.19488 0.90066 0.0
C1632 C 0.86452 0.35261 0.88423 0.0
H1633 H 0.89402 0.4625 0.89318 0.0
C1634 C 0.85007 0.38788 0.87943 0.0
C1635 C 0.88061 0.37983 0.88914 0.0
C1636 C 0.89681 0.34421 0.89371 0.0
C1637 C 0.85117 0.44965 0.87974 0.0
C1638 C 0.86724 0.47684 0.88469 0.0
C1639 C 0.8817 0.44158 0.88947 0.0
C1640 C 0.8694 0.54184 0.88461 0.0
C1641 C 0.83499 0.48533 0.87512 0.0
C1642 C 0.86787 0.57348 0.86856 0.0
C1643 C 0.86955 0.63473 0.86845 0.0
C1644 C 0.87283 0.66561 0.88439 0.0
C1645 C 0.87474 0.63388 0.90041 0.0
C1646 C 0.87312 0.57239 0.9005 0.0
H1647 H 0.82274 0.45869 0.8761 0.0
H1648 H 0.83372 0.52406 0.88408 0.0
H1649 H 0.83617 0.5016 0.86117 0.0
H1650 H 0.86535 0.55076 0.85609 0.0
H1651 H 0.86805 0.65799 0.85588 0.0
H1652 H 0.12705 0.38513 0.9089 0.0
H1653 H 0.12951 0.49281 0.90829 0.0
H1654 H 0.10055 0.4974 0.85867 0.0
H1655 H 0.09779 0.39009 0.85941 0.0
H1656 H 0.14566 0.56189 0.88302 0.0
H1657 H 0.07484 0.62144 0.88754 0.0
H1658 H 0.08281 0.54826 0.89236 0.0
H1659 H 0.07968 0.57163 0.86958 0.0
C1660 C 0.12099 0.40924 0.89801 0.0
C1661 C 0.11212 0.37924 0.88427 0.0
C1662 C 0.12246 0.47075 0.89763 0.0
C1663 C 0.11501 0.50349 0.88356 0.0
C1664 C 0.10605 0.47345 0.86989 0.0
H1665 H 0.11472 0.87545 0.85378 0.0
H1666 H 0.11219 0.76769 0.85423 0.0
C1667 C 0.10455 0.41202 0.87028 0.0
C1668 C 0.11731 0.56865 0.88275 0.0
H1669 H 0.09471 0.69874 0.88011 0.0
C1670 C 0.13451 0.5918 0.88249 0.0
C1671 C 0.10278 0.60784 0.88199 0.0
C1672 C 0.08399 0.58617 0.88305 0.0
C1673 C 0.13756 0.65275 0.8812 0.0
C1674 C 0.12304 0.69187 0.88039 0.0
C1675 C 0.10584 0.66877 0.88063 0.0
C1676 C 0.12536 0.75697 0.8797 0.0
C1677 C 0.15634 0.67466 0.88035 0.0
C1678 C 0.13359 0.78687 0.89385 0.0
C1679 C 0.13505 0.84831 0.89361 0.0
C1680 C 0.12825 0.88119 0.87923 0.0
C1681 C 0.12018 0.85126 0.86498 0.0
C1682 C 0.11867 0.78974 0.86526 0.0
H1683 H 0.16565 0.63926 0.87631 0.0
H1684 H 0.1576 0.71184 0.87078 0.0
H1685 H 0.16034 0.69054 0.89377 0.0
H1686 H 0.13855 0.76278 0.9053 0.0
H1687 H 0.14121 0.87017 0.90485 0.0
H1688 H 0.83567 0.86089 0.63455 0.0
H1689 H 0.83823 0.75361 0.63224 0.0
H1690 H 0.88795 0.75995 0.6602 0.0
H1691 H 0.88536 0.86703 0.66272 0.0
H1692 H 0.86543 0.69509 0.61448 0.0
H1693 H 0.86233 0.62553 0.68558 0.0
H1694 H 0.85529 0.6975 0.6782 0.0
H1695 H 0.87837 0.68183 0.68114 0.0
C1696 C 0.84695 0.83923 0.64056 0.0
C1697 C 0.86029 0.87222 0.64888 0.0
C1698 C 0.84844 0.778 0.63915 0.0
C1699 C 0.86322 0.74866 0.64615 0.0
C1700 C 0.87628 0.78144 0.65497 0.0
H1701 H 0.9012 0.38754 0.64464 0.0
H1702 H 0.89848 0.49475 0.64703 0.0
C1703 C 0.8748 0.84266 0.65638 0.0
C1704 C 0.86559 0.68451 0.64311 0.0
H1705 H 0.87132 0.55307 0.66455 0.0
C1706 C 0.86661 0.66395 0.62542 0.0
C1707 C 0.86724 0.64401 0.6574 0.0
C1708 C 0.8656 0.66311 0.67665 0.0
C1709 C 0.86952 0.60414 0.62163 0.0
C1710 C 0.87117 0.56364 0.63591 0.0
C1711 C 0.87014 0.58421 0.6536 0.0
C1712 C 0.87362 0.49951 0.63288 0.0
C1713 C 0.87119 0.58511 0.60237 0.0
C1714 C 0.86069 0.46663 0.6239 0.0
C1715 C 0.86227 0.40546 0.62243 0.0
C1716 C 0.87675 0.37602 0.63004 0.0
C1717 C 0.88995 0.40911 0.63855 0.0
C1718 C 0.88837 0.47029 0.64001 0.0
H1719 H 0.87451 0.62269 0.59346 0.0
H1720 H 0.88147 0.55062 0.60082 0.0
H1721 H 0.85841 0.56655 0.59784 0.0
H1722 H 0.84903 0.488 0.61858 0.0
H1723 H 0.85181 0.38101 0.61595 0.0
H1724 H 0.14255 0.16963 0.61313 0.0
H1725 H 0.13991 0.2771 0.61291 0.0
H1726 H 0.11596 0.27169 0.66525 0.0
H1727 H 0.11879 0.16411 0.66562 0.0
H1728 H 0.10941 0.34323 0.61483 0.0
H1729 H 0.15352 0.39811 0.67157 0.0
H1730 H 0.15346 0.32654 0.66111 0.0
H1731 H 0.1366 0.34578 0.67702 0.0
C1732 C 0.13694 0.19142 0.62469 0.0
C1733 C 0.13097 0.15846 0.63944 0.0
C1734 C 0.13538 0.25286 0.62453 0.0
C1735 C 0.12792 0.28276 0.63914 0.0
C1736 C 0.12209 0.24989 0.65397 0.0
H1737 H 0.10276 0.64995 0.66118 0.0
H1738 H 0.10552 0.54248 0.66158 0.0
C1739 C 0.12366 0.18836 0.65414 0.0
C1740 C 0.12555 0.34794 0.63846 0.0
H1741 H 0.13619 0.47614 0.65981 0.0
C1742 C 0.11534 0.3723 0.62462 0.0
C1743 C 0.13323 0.386 0.65125 0.0
C1744 C 0.14495 0.36298 0.66599 0.0
C1745 C 0.11236 0.43334 0.62339 0.0
C1746 C 0.12005 0.4714 0.63617 0.0
C1747 C 0.13026 0.44705 0.65002 0.0
C1748 C 0.11771 0.53657 0.63545 0.0
C1749 C 0.10066 0.45638 0.60864 0.0
C1750 C 0.12362 0.56927 0.62062 0.0
C1751 C 0.12199 0.63077 0.62035 0.0
C1752 C 0.11451 0.66081 0.63494 0.0
C1753 C 0.10848 0.62803 0.64969 0.0
C1754 C 0.11012 0.56661 0.64997 0.0
H1755 H 0.09211 0.42125 0.60303 0.0
H1756 H 0.09214 0.49278 0.61352 0.0
H1757 H 0.10903 0.47365 0.59763 0.0
H1758 H 0.12984 0.54736 0.60941 0.0
H1759 H 0.12691 0.65488 0.60887 0.0
H1760 H 0.62959 0.88037 0.10826 0.0
H1761 H 0.63241 0.98796 0.10938 0.0
H1762 H 0.60148 0.99145 0.15784 0.0
H1763 H 0.59884 0.88408 0.1569 0.0
H1764 H 0.60696 0.07673 0.10954 0.0
H1765 H 0.64583 0.08112 0.17237 0.0
H1766 H 0.64231 1.01446 0.15976 0.0
H1767 H 0.62526 0.04239 0.17421 0.0
C1768 C 0.62333 0.90418 0.11909 0.0
C1769 C 0.61406 0.87384 0.13253 0.0
C1770 C 0.62496 0.96562 0.11974 0.0
C1771 C 0.61746 0.99778 0.13389 0.0
C1772 C 0.60774 0.96757 0.14702 0.0
H1773 H 0.61237 0.37003 0.16195 0.0
H1774 H 0.60973 0.26234 0.16101 0.0
C1775 C 0.60612 0.90623 0.14639 0.0
C1776 C 0.61972 0.06284 0.13489 0.0
H1777 H 0.63584 0.17329 0.1613 0.0
C1778 C 0.61336 0.09781 0.12081 0.0
C1779 C 0.62806 0.09043 0.14962 0.0
C1780 C 0.63591 0.05523 0.16478 0.0
C1781 C 0.61478 0.15954 0.1212 0.0
C1782 C 0.62308 0.18712 0.13595 0.0
C1783 C 0.62945 0.15218 0.15003 0.0
C1784 C 0.62532 0.25217 0.13693 0.0
C1785 C 0.60702 0.1948 0.10601 0.0
C1786 C 0.63534 0.28216 0.124 0.0
C1787 C 0.63689 0.34354 0.12454 0.0
C1788 C 0.62853 0.37617 0.13809 0.0
C1789 C 0.61895 0.34603 0.15135 0.0
C1790 C 0.61742 0.28455 0.15081 0.0
H1791 H 0.59728 0.16878 0.09823 0.0
H1792 H 0.60045 0.23524 0.11104 0.0
H1793 H 0.61775 0.20825 0.09676 0.0
H1794 H 0.64187 0.25809 0.11338 0.0
H1795 H 0.64441 0.36552 0.11417 0.0
H1796 H 0.37333 0.66224 0.16719 0.0
H1797 H 0.37583 0.76999 0.1669 0.0
H1798 H 0.34897 0.77578 0.1161 0.0
H1799 H 0.34629 0.66839 0.11642 0.0
H1800 H 0.39303 0.83965 0.14146 0.0
H1801 H 0.32208 0.89874 0.14515 0.0
H1802 H 0.3301 0.82587 0.15036 0.0
H1803 H 0.32738 0.84834 0.12746 0.0
C1804 C 0.36775 0.68662 0.15609 0.0
C1805 C 0.35952 0.65693 0.14188 0.0
C1806 C 0.36924 0.74815 0.1559 0.0
C1807 C 0.3624 0.7812 0.14159 0.0
C1808 C 0.35404 0.75151 0.12747 0.0
H1809 H 0.36106 0.15328 0.11269 0.0
H1810 H 0.35857 0.04561 0.11324 0.0
C1811 C 0.35257 0.69005 0.12764 0.0
C1812 C 0.36469 0.84635 0.14101 0.0
H1813 H 0.34204 0.97633 0.13849 0.0
C1814 C 0.38188 0.86956 0.14093 0.0
C1815 C 0.35016 0.88545 0.14021 0.0
C1816 C 0.33138 0.86351 0.14096 0.0
C1817 C 0.38492 0.93055 0.13972 0.0
C1818 C 0.37038 0.96968 0.13893 0.0
C1819 C 0.3532 0.94644 0.13904 0.0
C1820 C 0.37266 0.03486 0.1382 0.0
C1821 C 0.40371 0.95238 0.13886 0.0
C1822 C 0.3814 0.06485 0.15203 0.0
C1823 C 0.38291 0.1263 0.15168 0.0
C1824 C 0.37559 0.15912 0.13757 0.0
C1825 C 0.36693 0.12914 0.12368 0.0
C1826 C 0.36545 0.06764 0.12402 0.0
H1827 H 0.41294 0.91718 0.13449 0.0
H1828 H 0.40495 0.99024 0.12953 0.0
H1829 H 0.40785 0.96709 0.15236 0.0
H1830 H 0.38674 0.04085 0.16332 0.0
H1831 H 0.3895 0.14821 0.16267 0.0
H1832 H 0.59351 0.15822 0.36317 0.0
H1833 H 0.59649 0.05098 0.36145 0.0
H1834 H 0.63719 0.0563 0.40172 0.0
H1835 H 0.63394 0.16334 0.40378 0.0
H1836 H 0.62523 0.98769 0.35157 0.0
H1837 H 0.60613 0.92633 0.42072 0.0
H1838 H 0.60216 0.99876 0.41165 0.0
H1839 H 0.62369 0.97918 0.41989 0.0
C1840 C 0.60288 0.13635 0.37186 0.0
C1841 C 0.6134 0.16903 0.38371 0.0
C1842 C 0.60463 0.07511 0.37082 0.0
C1843 C 0.61691 0.04531 0.3816 0.0
C1844 C 0.62733 0.07796 0.39356 0.0
H1845 H 0.65222 0.68193 0.38997 0.0
H1846 H 0.64974 0.78946 0.39085 0.0
C1847 C 0.62551 0.1392 0.39468 0.0
C1848 C 0.61938 0.98057 0.3797 0.0
H1849 H 0.61911 0.85096 0.40297 0.0
C1850 C 0.62378 0.95777 0.36279 0.0
C1851 C 0.61753 0.94143 0.39434 0.0
C1852 C 0.61195 0.96251 0.41263 0.0
C1853 C 0.62665 0.89721 0.3602 0.0
C1854 C 0.62492 0.85826 0.37486 0.0
C1855 C 0.62053 0.88096 0.39176 0.0
C1856 C 0.62734 0.79363 0.37297 0.0
C1857 C 0.63183 0.87547 0.34186 0.0
C1858 C 0.61571 0.76029 0.36245 0.0
C1859 C 0.61711 0.69883 0.36193 0.0
C1860 C 0.63015 0.66966 0.37194 0.0
C1861 C 0.64211 0.70322 0.38203 0.0
C1862 C 0.64066 0.76461 0.38261 0.0
H1863 H 0.63666 0.91179 0.33318 0.0
H1864 H 0.64227 0.84129 0.34282 0.0
H1865 H 0.62016 0.85541 0.33533 0.0
H1866 H 0.60517 0.78163 0.35511 0.0
H1867 H 0.60762 0.67406 0.35415 0.0
H1868 H 0.39946 0.87903 0.38427 0.0
H1869 H 0.3977 0.98677 0.38415 0.0
H1870 H 0.34461 0.97742 0.40492 0.0
H1871 H 0.34652 0.87009 0.40559 0.0
H1872 H 0.37533 0.054 0.36505 0.0
H1873 H 0.3659 0.09939 0.43725 0.0
H1874 H 0.37285 0.02841 0.42904 0.0
H1875 H 0.3499 0.04885 0.42856 0.0
C1876 C 0.38757 0.90013 0.38914 0.0
C1877 C 0.37317 0.86645 0.39505 0.0
C1878 C 0.38654 0.96155 0.38899 0.0
C1879 C 0.37109 0.99017 0.3947 0.0
C1880 C 0.3568 0.95643 0.40085 0.0
H1881 H 0.34308 0.35303 0.36619 0.0
H1882 H 0.34462 0.24503 0.36765 0.0
C1883 C 0.35789 0.89509 0.40117 0.0
C1884 C 0.36956 0.05503 0.39328 0.0
H1885 H 0.36041 0.179 0.41727 0.0
C1886 C 0.37216 0.08144 0.37648 0.0
C1887 C 0.36553 0.09071 0.40823 0.0
C1888 C 0.36356 0.06549 0.42681 0.0
C1889 C 0.3708 0.1426 0.3742 0.0
C1890 C 0.36627 0.17808 0.38905 0.0
C1891 C 0.3637 0.15164 0.40585 0.0
C1892 C 0.36515 0.24309 0.3878 0.0
C1893 C 0.3747 0.16868 0.35604 0.0
C1894 C 0.37585 0.27764 0.39889 0.0
C1895 C 0.37476 0.3388 0.39828 0.0
C1896 C 0.36301 0.36674 0.3865 0.0
C1897 C 0.35231 0.33241 0.37531 0.0
C1898 C 0.35327 0.27087 0.37606 0.0
H1899 H 0.38234 0.13779 0.3475 0.0
H1900 H 0.36208 0.17846 0.34914 0.0
H1901 H 0.38224 0.21035 0.35728 0.0
H1902 H 0.38509 0.2572 0.40805 0.0
H1903 H 0.3832 0.36423 0.40704 0.0
H1904 H 0.34639 0.66729 0.90716 0.0
H1905 H 0.349 0.77473 0.9075 0.0
H1906 H 0.37758 0.76893 0.85759 0.0
H1907 H 0.3747 0.66144 0.85705 0.0
H1908 H 0.37906 0.84067 0.90867 0.0
H1909 H 0.34137 0.8958 0.84735 0.0
H1910 H 0.34048 0.82397 0.85764 0.0
H1911 H 0.35885 0.8439 0.84363 0.0
C1912 C 0.35301 0.689 0.89613 0.0
C1913 C 0.36024 0.65598 0.88202 0.0
C1914 C 0.35455 0.75043 0.89637 0.0
C1915 C 0.36331 0.78024 0.88248 0.0
C1916 C 0.37043 0.74726 0.86828 0.0
H1917 H 0.39149 0.14714 0.86353 0.0
H1918 H 0.38884 0.03962 0.86286 0.0
C1919 C 0.36884 0.68576 0.86801 0.0
C1920 C 0.36565 0.8454 0.88332 0.0
H1921 H 0.35759 0.97362 0.86072 0.0
C1922 C 0.37428 0.86973 0.89822 0.0
C1923 C 0.35946 0.88349 0.86968 0.0
C1924 C 0.34937 0.86064 0.85375 0.0
C1925 C 0.37712 0.93073 0.89972 0.0
C1926 C 0.37096 0.96876 0.88607 0.0
C1927 C 0.36236 0.94449 0.87116 0.0
C1928 C 0.37319 0.03387 0.88703 0.0
C1929 C 0.38703 0.95384 0.91573 0.0
C1930 C 0.36531 0.06659 0.90086 0.0
C1931 C 0.36683 0.12808 0.90127 0.0
C1932 C 0.37623 0.15806 0.88784 0.0
C1933 C 0.38426 0.12525 0.87413 0.0
C1934 C 0.3827 0.06382 0.87369 0.0
H1935 H 0.39473 0.91861 0.92248 0.0
H1936 H 0.39619 0.98976 0.91179 0.0
H1937 H 0.37747 0.97188 0.92555 0.0
H1938 H 0.35764 0.04468 0.91112 0.0
H1939 H 0.36037 0.15221 0.91192 0.0
H1940 H 0.61371 0.3698 0.85161 0.0
H1941 H 0.61054 0.26229 0.85247 0.0
H1942 H 0.63911 0.25693 0.90231 0.0
H1943 H 0.64201 0.36424 0.90167 0.0
H1944 H 0.63489 0.17227 0.8534 0.0
H1945 H 0.59439 0.16861 0.91522 0.0
H1946 H 0.59882 0.23554 0.903 0.0
H1947 H 0.61514 0.20553 0.91791 0.0
C1948 C 0.61939 0.34559 0.86269 0.0
C1949 C 0.62802 0.37545 0.87662 0.0
C1950 C 0.61755 0.28417 0.86319 0.0
C1951 C 0.62424 0.25146 0.87766 0.0
C1952 C 0.63342 0.28117 0.89125 0.0
H1953 H 0.62829 0.87919 0.90559 0.0
H1954 H 0.6311 0.98677 0.9045 0.0
C1955 C 0.6352 0.34251 0.89078 0.0
C1956 C 0.62167 0.1864 0.87854 0.0
H1957 H 0.60462 0.07613 0.90456 0.0
C1958 C 0.62818 0.15131 0.86454 0.0
C1959 C 0.61289 0.15887 0.89306 0.0
C1960 C 0.60475 0.19406 0.90807 0.0
C1961 C 0.6265 0.08961 0.86486 0.0
C1962 C 0.61785 0.06213 0.87944 0.0
C1963 C 0.61129 0.09716 0.89341 0.0
C1964 C 0.61552 0.99708 0.88045 0.0
C1965 C 0.63439 0.05419 0.84977 0.0
C1966 C 0.60547 0.96715 0.86757 0.0
C1967 C 0.60378 0.90576 0.86823 0.0
C1968 C 0.61208 0.87308 0.88181 0.0
C1969 C 0.62174 0.90319 0.89497 0.0
C1970 C 0.62337 0.96464 0.89434 0.0
H1971 H 0.64414 0.08015 0.84195 0.0
H1972 H 0.64097 1.01395 0.85494 0.0
H1973 H 0.62371 0.04031 0.84054 0.0
H1974 H 0.599 0.99127 0.85693 0.0
H1975 H 0.59623 0.88381 0.85791 0.0
H1976 H 0.36093 0.87511 0.61309 0.0
H1977 H 0.35853 0.98277 0.61393 0.0
H1978 H 0.39048 0.9865 0.66162 0.0
H1979 H 0.39319 0.87916 0.66063 0.0
H1980 H 0.34393 0.05156 0.64002 0.0
H1981 H 0.41438 0.11102 0.63145 0.0
H1982 H 0.40618 0.03786 0.62713 0.0
H1983 H 0.41056 0.06118 0.64968 0.0
C1984 C 0.36766 0.89903 0.62359 0.0
C1985 C 0.37736 0.86876 0.63672 0.0
C1986 C 0.36622 0.96053 0.6241 0.0
C1987 C 0.37451 0.99305 0.6377 0.0
C1988 C 0.3843 0.96275 0.65075 0.0
H1989 H 0.37611 0.36531 0.6672 0.0
H1990 H 0.37869 0.25754 0.66676 0.0
C1991 C 0.38578 0.9013 0.65022 0.0
C1992 C 0.37225 0.05824 0.63868 0.0
H1993 H 0.39493 0.18832 0.63996 0.0
C1994 C 0.35509 0.08144 0.6399 0.0
C1995 C 0.38679 0.09742 0.6386 0.0
C1996 C 0.40551 0.07575 0.63648 0.0
C1997 C 0.35209 0.1424 0.64131 0.0
C1998 C 0.36663 0.1815 0.64126 0.0
C1999 C 0.38379 0.15837 0.64009 0.0
C2000 C 0.36432 0.24662 0.64199 0.0
C2001 C 0.33339 0.16436 0.64318 0.0
C2002 C 0.35538 0.27643 0.62823 0.0
C2003 C 0.3539 0.33788 0.62847 0.0
C2004 C 0.36136 0.37086 0.64245 0.0
C2005 C 0.37013 0.34103 0.65632 0.0
C2006 C 0.37167 0.2795 0.65604 0.0
H2007 H 0.32431 0.12897 0.64773 0.0
H2008 H 0.33263 0.2015 0.6528 0.0
H2009 H 0.32868 0.18034 0.62999 0.0
H2010 H 0.34989 0.25225 0.61708 0.0
H2011 H 0.34719 0.35964 0.61752 0.0
H2012 H 0.65546 0.66667 0.63433 0.0
H2013 H 0.65324 0.77439 0.63423 0.0
H2014 H 0.60043 0.76247 0.65561 0.0
H2015 H 0.60283 0.65528 0.65629 0.0
H2016 H 0.63089 0.84182 0.61559 0.0
H2017 H 0.62098 0.88543 0.68775 0.0
H2018 H 0.62809 0.81474 0.67948 0.0
H2019 H 0.60508 0.83456 0.67906 0.0
C2020 C 0.64354 0.6872 0.63936 0.0
C2021 C 0.62938 0.65272 0.64546 0.0
C2022 C 0.64223 0.74868 0.6392 0.0
C2023 C 0.62674 0.77671 0.6451 0.0
C2024 C 0.61268 0.74214 0.65141 0.0
H2025 H 0.59704 0.13878 0.61622 0.0
H2026 H 0.59917 0.03086 0.61779 0.0
C2027 C 0.61405 0.68079 0.65173 0.0
C2028 C 0.62491 0.84176 0.64377 0.0
H2029 H 0.61477 0.96484 0.66786 0.0
C2030 C 0.62747 0.86879 0.62705 0.0
C2031 C 0.62056 0.87707 0.65873 0.0
C2032 C 0.6187 0.85156 0.67729 0.0
C2033 C 0.62572 0.92997 0.62485 0.0
C2034 C 0.62079 0.965 0.63969 0.0
C2035 C 0.61832 0.93797 0.65643 0.0
C2036 C 0.61915 0.03015 0.6385 0.0
C2037 C 0.62963 0.95655 0.60676 0.0
C2038 C 0.62926 0.06559 0.64992 0.0
C2039 C 0.62782 0.12675 0.64925 0.0
C2040 C 0.61629 0.15401 0.63709 0.0
C2041 C 0.6061 0.11881 0.62564 0.0
C2042 C 0.60741 0.05725 0.62645 0.0
H2043 H 0.6377 0.92654 0.59834 0.0
H2044 H 0.61703 0.96494 0.59966 0.0
H2045 H 0.63675 0.99901 0.60812 0.0
H2046 H 0.63839 0.04587 0.65934 0.0
H2047 H 0.63588 0.15274 0.65822 0.0
loop_
_geom_bond_atom_site_label_1
_geom_bond_atom_site_label_2
_geom_bond_distance
_geom_bond_site_symmetry_2
_ccdc_geom_bond_type
Dy0 O4 2.398 1_545 S
Dy0 O5 2.491 1_545 S
Dy0 O6 2.403 . S
Dy0 O7 2.664 . S
Dy0 O11 2.326 . S
Dy0 O15 2.310 . S
Dy0 O16 2.351 . S
C1 O12 1.185 . S
C1 O13 1.355 . S
C2 O4 1.185 . S
C2 O5 1.355 . S
Dy3 O7 2.310 . S
Dy3 O10 2.351 . S
Dy3 O12 2.398 . S
Dy3 O13 2.491 . S
Dy3 O14 2.403 . S
Dy3 O15 2.664 . S
Dy3 O17 2.326 . S
O4 Dy0 2.398 1_565 S
O4 C2 1.185 . S
O5 Dy0 2.491 1_565 S
O5 C2 1.355 . S
O6 Dy0 2.403 . S
O6 C8 1.254 . S
O7 Dy0 2.664 . S
O7 Dy3 2.310 . S
O7 C8 1.268 . S
C8 O6 1.254 . S
C8 O7 1.268 . S
C9 O14 1.254 . S
C9 O15 1.268 . S
O10 Dy3 2.351 . S
O10 C18 1.249 . S
O11 Dy0 2.326 . S
O11 C18 1.267 . S
O12 C1 1.185 . S
O12 Dy3 2.398 . S
O13 C1 1.355 . S
O13 Dy3 2.491 . S
O14 Dy3 2.403 . S
O14 C9 1.254 . S
O15 Dy0 2.310 . S
O15 Dy3 2.664 . S
O15 C9 1.268 . S
O16 Dy0 2.351 . S
O16 C19 1.249 . S
O17 Dy3 2.326 . S
O17 C19 1.267 . S
C18 O10 1.249 . S
C18 O11 1.267 . S
C19 O16 1.249 . S
C19 O17 1.267 . S
Dy20 O24 2.398 1_565 S
Dy20 O25 2.491 1_565 S
Dy20 O26 2.403 . S
Dy20 O27 2.664 . S
Dy20 O31 2.326 . S
Dy20 O35 2.310 . S
Dy20 O36 2.351 . S
C21 O32 1.185 . S
C21 O33 1.355 . S
C22 O24 1.185 . S
C22 O25 1.355 . S
Dy23 O27 2.310 . S
Dy23 O30 2.351 . S
Dy23 O32 2.398 . S
Dy23 O33 2.491 . S
Dy23 O34 2.403 . S
Dy23 O35 2.664 . S
Dy23 O37 2.326 . S
O24 Dy20 2.398 1_545 S
O24 C22 1.185 . S
O25 Dy20 2.491 1_545 S
O25 C22 1.355 . S
O26 Dy20 2.403 . S
O26 C28 1.254 . S
O27 Dy20 2.664 . S
O27 Dy23 2.310 . S
O27 C28 1.268 . S
C28 O26 1.254 . S
C28 O27 1.268 . S
C29 O34 1.254 . S
C29 O35 1.268 . S
O30 Dy23 2.351 . S
O30 C38 1.249 . S
O31 Dy20 2.326 . S
O31 C38 1.267 . S
O32 C21 1.185 . S
O32 Dy23 2.398 . S
O33 C21 1.355 . S
O33 Dy23 2.491 . S
O34 Dy23 2.403 . S
O34 C29 1.254 . S
O35 Dy20 2.310 . S
O35 Dy23 2.664 . S
O35 C29 1.268 . S
O36 Dy20 2.351 . S
O36 C39 1.249 . S
O37 Dy23 2.326 . S
O37 C39 1.267 . S
C38 O30 1.249 . S
C38 O31 1.267 . S
C39 O36 1.249 . S
C39 O37 1.267 . S
Dy40 O44 2.398 1_565 S
Dy40 O45 2.491 1_565 S
Dy40 O46 2.403 . S
Dy40 O47 2.664 . S
Dy40 O51 2.326 . S
Dy40 O55 2.310 . S
Dy40 O56 2.351 . S
C41 O52 1.185 . S
C41 O53 1.355 . S
C42 O44 1.185 . S
C42 O45 1.355 . S
Dy43 O47 2.310 . S
Dy43 O50 2.351 . S
Dy43 O52 2.398 . S
Dy43 O53 2.491 . S
Dy43 O54 2.403 . S
Dy43 O55 2.664 . S
Dy43 O57 2.326 . S
O44 Dy40 2.398 1_545 S
O44 C42 1.185 . S
O45 Dy40 2.491 1_545 S
O45 C42 1.355 . S
O46 Dy40 2.403 . S
O46 C48 1.254 . S
O47 Dy40 2.664 . S
O47 Dy43 2.310 . S
O47 C48 1.268 . S
C48 O46 1.254 . S
C48 O47 1.268 . S
C49 O54 1.254 . S
C49 O55 1.268 . S
O50 Dy43 2.351 . S
O50 C58 1.249 . S
O51 Dy40 2.326 . S
O51 C58 1.267 . S
O52 C41 1.185 . S
O52 Dy43 2.398 . S
O53 C41 1.355 . S
O53 Dy43 2.491 . S
O54 Dy43 2.403 . S
O54 C49 1.254 . S
O55 Dy40 2.310 . S
O55 Dy43 2.664 . S
O55 C49 1.268 . S
O56 Dy40 2.351 . S
O56 C59 1.249 . S
O57 Dy43 2.326 . S
O57 C59 1.267 . S
C58 O50 1.249 . S
C58 O51 1.267 . S
C59 O56 1.249 . S
C59 O57 1.267 . S
Dy60 O64 2.398 1_545 S
Dy60 O65 2.491 1_545 S
Dy60 O66 2.403 . S
Dy60 O67 2.664 . S
Dy60 O71 2.326 . S
Dy60 O75 2.310 . S
Dy60 O76 2.351 . S
C61 O72 1.185 . S
C61 O73 1.355 . S
C62 O64 1.185 . S
C62 O65 1.355 . S
Dy63 O67 2.310 . S
Dy63 O70 2.351 . S
Dy63 O72 2.398 . S
Dy63 O73 2.491 . S
Dy63 O74 2.403 . S
Dy63 O75 2.664 . S
Dy63 O77 2.326 . S
O64 Dy60 2.398 1_565 S
O64 C62 1.185 . S
O65 Dy60 2.491 1_565 S
O65 C62 1.355 . S
O66 Dy60 2.403 . S
O66 C68 1.254 . S
O67 Dy60 2.664 . S
O67 Dy63 2.310 . S
O67 C68 1.268 . S
C68 O66 1.254 . S
C68 O67 1.268 . S
C69 O74 1.254 . S
C69 O75 1.268 . S
O70 Dy63 2.351 . S
O70 C78 1.249 . S
O71 Dy60 2.326 . S
O71 C78 1.267 . S
O72 C61 1.185 . S
O72 Dy63 2.398 . S
O73 C61 1.355 . S
O73 Dy63 2.491 . S
O74 Dy63 2.403 . S
O74 C69 1.254 . S
O75 Dy60 2.310 . S
O75 Dy63 2.664 . S
O75 C69 1.268 . S
O76 Dy60 2.351 . S
O76 C79 1.249 . S
O77 Dy63 2.326 . S
O77 C79 1.267 . S
C78 O70 1.249 . S
C78 O71 1.267 . S
C79 O76 1.249 . S
C79 O77 1.267 . S
Dy80 O84 2.398 . S
Dy80 O85 2.491 . S
Dy80 O86 2.403 . S
Dy80 O87 2.664 . S
Dy80 O91 2.326 . S
Dy80 O95 2.310 . S
Dy80 O96 2.351 . S
C81 O92 1.185 . S
C81 O93 1.355 . S
C82 O84 1.185 . S
C82 O85 1.355 . S
Dy83 O87 2.310 . S
Dy83 O90 2.351 . S
Dy83 O92 2.398 1_565 S
Dy83 O93 2.491 1_565 S
Dy83 O94 2.403 . S
Dy83 O95 2.664 . S
Dy83 O97 2.326 . S
O84 Dy80 2.398 . S
O84 C82 1.185 . S
O85 Dy80 2.491 . S
O85 C82 1.355 . S
O86 Dy80 2.403 . S
O86 C88 1.254 . S
O87 Dy80 2.664 . S
O87 Dy83 2.310 . S
O87 C88 1.268 . S
C88 O86 1.254 . S
C88 O87 1.268 . S
C89 O94 1.254 . S
C89 O95 1.268 . S
O90 Dy83 2.351 . S
O90 C98 1.249 . S
O91 Dy80 2.326 . S
O91 C98 1.267 . S
O92 C81 1.185 . S
O92 Dy83 2.398 1_545 S
O93 C81 1.355 . S
O93 Dy83 2.491 1_545 S
O94 Dy83 2.403 . S
O94 C89 1.254 . S
O95 Dy80 2.310 . S
O95 Dy83 2.664 . S
O95 C89 1.268 . S
O96 Dy80 2.351 . S
O96 C99 1.249 . S
O97 Dy83 2.326 . S
O97 C99 1.267 . S
C98 O90 1.249 . S
C98 O91 1.267 . S
C99 O96 1.249 . S
C99 O97 1.267 . S
Dy100 O104 2.398 . S
Dy100 O105 2.491 . S
Dy100 O106 2.403 . S
Dy100 O107 2.664 . S
Dy100 O111 2.326 . S
Dy100 O115 2.310 . S
Dy100 O116 2.351 . S
C101 O112 1.185 . S
C101 O113 1.355 . S
C102 O104 1.185 . S
C102 O105 1.355 . S
Dy103 O107 2.310 . S
Dy103 O110 2.351 . S
Dy103 O112 2.398 1_545 S
Dy103 O113 2.491 1_545 S
Dy103 O114 2.403 . S
Dy103 O115 2.664 . S
Dy103 O117 2.326 . S
O104 Dy100 2.398 . S
O104 C102 1.185 . S
O105 Dy100 2.491 . S
O105 C102 1.355 . S
O106 Dy100 2.403 . S
O106 C108 1.254 . S
O107 Dy100 2.664 . S
O107 Dy103 2.310 . S
O107 C108 1.268 . S
C108 O106 1.254 . S
C108 O107 1.268 . S
C109 O114 1.254 . S
C109 O115 1.268 . S
O110 Dy103 2.351 . S
O110 C118 1.249 . S
O111 Dy100 2.326 . S
O111 C118 1.267 . S
O112 C101 1.185 . S
O112 Dy103 2.398 1_565 S
O113 C101 1.355 . S
O113 Dy103 2.491 1_565 S
O114 Dy103 2.403 . S
O114 C109 1.254 . S
O115 Dy100 2.310 . S
O115 Dy103 2.664 . S
O115 C109 1.268 . S
O116 Dy100 2.351 . S
O116 C119 1.249 . S
O117 Dy103 2.326 . S
O117 C119 1.267 . S
C118 O110 1.249 . S
C118 O111 1.267 . S
C119 O116 1.249 . S
C119 O117 1.267 . S
Dy120 O124 2.398 . S
Dy120 O125 2.491 . S
Dy120 O126 2.403 . S
Dy120 O127 2.664 . S
Dy120 O131 2.326 . S
Dy120 O135 2.310 . S
Dy120 O136 2.351 . S
C121 O132 1.185 . S
C121 O133 1.355 . S
C122 O124 1.185 . S
C122 O125 1.355 . S
Dy123 O127 2.310 . S
Dy123 O130 2.351 . S
Dy123 O132 2.398 1_545 S
Dy123 O133 2.491 1_545 S
Dy123 O134 2.403 . S
Dy123 O135 2.664 . S
Dy123 O137 2.326 . S
O124 Dy120 2.398 . S
O124 C122 1.185 . S
O125 Dy120 2.491 . S
O125 C122 1.355 . S
O126 Dy120 2.403 . S
O126 C128 1.254 . S
O127 Dy120 2.664 . S
O127 Dy123 2.310 . S
O127 C128 1.268 . S
C128 O126 1.254 . S
C128 O127 1.268 . S
C129 O134 1.254 . S
C129 O135 1.268 . S
O130 Dy123 2.351 . S
O130 C138 1.249 . S
O131 Dy120 2.326 . S
O131 C138 1.267 . S
O132 C121 1.185 . S
O132 Dy123 2.398 1_565 S
O133 C121 1.355 . S
O133 Dy123 2.491 1_565 S
O134 Dy123 2.403 . S
O134 C129 1.254 . S
O135 Dy120 2.310 . S
O135 Dy123 2.664 . S
O135 C129 1.268 . S
O136 Dy120 2.351 . S
O136 C139 1.249 . S
O137 Dy123 2.326 . S
O137 C139 1.267 . S
C138 O130 1.249 . S
C138 O131 1.267 . S
C139 O136 1.249 . S
C139 O137 1.267 . S
Dy140 O144 2.398 . S
Dy140 O145 2.491 . S
Dy140 O146 2.403 . S
Dy140 O147 2.664 . S
Dy140 O151 2.326 . S
Dy140 O155 2.310 . S
Dy140 O156 2.351 . S
C141 O152 1.185 . S
C141 O153 1.355 . S
C142 O144 1.185 . S
C142 O145 1.355 . S
Dy143 O147 2.310 . S
Dy143 O150 2.351 . S
Dy143 O152 2.398 1_565 S
Dy143 O153 2.491 1_565 S
Dy143 O154 2.403 . S
Dy143 O155 2.664 . S
Dy143 O157 2.326 . S
O144 Dy140 2.398 . S
O144 C142 1.185 . S
O145 Dy140 2.491 . S
O145 C142 1.355 . S
O146 Dy140 2.403 . S
O146 C148 1.254 . S
O147 Dy140 2.664 . S
O147 Dy143 2.310 . S
O147 C148 1.268 . S
C148 O146 1.254 . S
C148 O147 1.268 . S
C149 O154 1.254 . S
C149 O155 1.268 . S
O150 Dy143 2.351 . S
O150 C158 1.249 . S
O151 Dy140 2.326 . S
O151 C158 1.267 . S
O152 C141 1.185 . S
O152 Dy143 2.398 1_545 S
O153 C141 1.355 . S
O153 Dy143 2.491 1_545 S
O154 Dy143 2.403 . S
O154 C149 1.254 . S
O155 Dy140 2.310 . S
O155 Dy143 2.664 . S
O155 C149 1.268 . S
O156 Dy140 2.351 . S
O156 C159 1.249 . S
O157 Dy143 2.326 . S
O157 C159 1.267 . S
C158 O150 1.249 . S
C158 O151 1.267 . S
C159 O156 1.249 . S
C159 O157 1.267 . S
Dy160 O164 2.398 . S
Dy160 O165 2.491 . S
Dy160 O166 2.403 . S
Dy160 O167 2.664 . S
Dy160 O171 2.326 . S
Dy160 O175 2.310 . S
Dy160 O176 2.351 . S
C161 O172 1.185 . S
C161 O173 1.355 . S
C162 O164 1.185 . S
C162 O165 1.355 . S
Dy163 O167 2.310 . S
Dy163 O170 2.351 . S
Dy163 O172 2.398 . S
Dy163 O173 2.491 . S
Dy163 O174 2.403 . S
Dy163 O175 2.664 . S
Dy163 O177 2.326 . S
O164 Dy160 2.398 . S
O164 C162 1.185 . S
O165 Dy160 2.491 . S
O165 C162 1.355 . S
O166 Dy160 2.403 . S
O166 C168 1.254 . S
O167 Dy160 2.664 . S
O167 Dy163 2.310 . S
O167 C168 1.268 . S
C168 O166 1.254 . S
C168 O167 1.268 . S
C169 O174 1.254 . S
C169 O175 1.268 . S
O170 Dy163 2.351 . S
O170 C178 1.249 . S
O171 Dy160 2.326 . S
O171 C178 1.267 . S
O172 C161 1.185 . S
O172 Dy163 2.398 . S
O173 C161 1.355 . S
O173 Dy163 2.491 . S
O174 Dy163 2.403 . S
O174 C169 1.254 . S
O175 Dy160 2.310 . S
O175 Dy163 2.664 . S
O175 C169 1.268 . S
O176 Dy160 2.351 . S
O176 C179 1.249 . S
O177 Dy163 2.326 . S
O177 C179 1.267 . S
C178 O170 1.249 . S
C178 O171 1.267 . S
C179 O176 1.249 . S
C179 O177 1.267 . S
Dy180 O184 2.398 . S
Dy180 O185 2.491 . S
Dy180 O186 2.403 . S
Dy180 O187 2.664 . S
Dy180 O191 2.326 . S
Dy180 O195 2.310 . S
Dy180 O196 2.351 . S
C181 O192 1.185 . S
C181 O193 1.355 . S
C182 O184 1.185 . S
C182 O185 1.355 . S
Dy183 O187 2.310 . S
Dy183 O190 2.351 . S
Dy183 O192 2.398 . S
Dy183 O193 2.491 . S
Dy183 O194 2.403 . S
Dy183 O195 2.664 . S
Dy183 O197 2.326 . S
O184 Dy180 2.398 . S
O184 C182 1.185 . S
O185 Dy180 2.491 . S
O185 C182 1.355 . S
O186 Dy180 2.403 . S
O186 C188 1.254 . S
O187 Dy180 2.664 . S
O187 Dy183 2.310 . S
O187 C188 1.268 . S
C188 O186 1.254 . S
C188 O187 1.268 . S
C189 O194 1.254 . S
C189 O195 1.268 . S
O190 Dy183 2.351 . S
O190 C198 1.249 . S
O191 Dy180 2.326 . S
O191 C198 1.267 . S
O192 C181 1.185 . S
O192 Dy183 2.398 . S
O193 C181 1.355 . S
O193 Dy183 2.491 . S
O194 Dy183 2.403 . S
O194 C189 1.254 . S
O195 Dy180 2.310 . S
O195 Dy183 2.664 . S
O195 C189 1.268 . S
O196 Dy180 2.351 . S
O196 C199 1.249 . S
O197 Dy183 2.326 . S
O197 C199 1.267 . S
C198 O190 1.249 . S
C198 O191 1.267 . S
C199 O196 1.249 . S
C199 O197 1.267 . S
Dy200 O204 2.398 . S
Dy200 O205 2.491 . S
Dy200 O206 2.403 . S
Dy200 O207 2.664 . S
Dy200 O211 2.326 . S
Dy200 O215 2.310 . S
Dy200 O216 2.351 . S
C201 O212 1.185 . S
C201 O213 1.355 . S
C202 O204 1.185 . S
C202 O205 1.355 . S
Dy203 O207 2.310 . S
Dy203 O210 2.351 . S
Dy203 O212 2.398 . S
Dy203 O213 2.491 . S
Dy203 O214 2.403 . S
Dy203 O215 2.664 . S
Dy203 O217 2.326 . S
O204 Dy200 2.398 . S
O204 C202 1.185 . S
O205 Dy200 2.491 . S
O205 C202 1.355 . S
O206 Dy200 2.403 . S
O206 C208 1.254 . S
O207 Dy200 2.664 . S
O207 Dy203 2.310 . S
O207 C208 1.268 . S
C208 O206 1.254 . S
C208 O207 1.268 . S
C209 O214 1.254 . S
C209 O215 1.268 . S
O210 Dy203 2.351 . S
O210 C218 1.249 . S
O211 Dy200 2.326 . S
O211 C218 1.267 . S
O212 C201 1.185 . S
O212 Dy203 2.398 . S
O213 C201 1.355 . S
O213 Dy203 2.491 . S
O214 Dy203 2.403 . S
O214 C209 1.254 . S
O215 Dy200 2.310 . S
O215 Dy203 2.664 . S
O215 C209 1.268 . S
O216 Dy200 2.351 . S
O216 C219 1.249 . S
O217 Dy203 2.326 . S
O217 C219 1.267 . S
C218 O210 1.249 . S
C218 O211 1.267 . S
C219 O216 1.249 . S
C219 O217 1.267 . S
Dy220 O224 2.398 . S
Dy220 O225 2.491 . S
Dy220 O226 2.403 . S
Dy220 O227 2.664 . S
Dy220 O231 2.326 . S
Dy220 O235 2.310 . S
Dy220 O236 2.351 . S
C221 O232 1.185 . S
C221 O233 1.355 . S
C222 O224 1.185 . S
C222 O225 1.355 . S
Dy223 O227 2.310 . S
Dy223 O230 2.351 . S
Dy223 O232 2.398 . S
Dy223 O233 2.491 . S
Dy223 O234 2.403 . S
Dy223 O235 2.664 . S
Dy223 O237 2.326 . S
O224 Dy220 2.398 . S
O224 C222 1.185 . S
O225 Dy220 2.491 . S
O225 C222 1.355 . S
O226 Dy220 2.403 . S
O226 C228 1.254 . S
O227 Dy220 2.664 . S
O227 Dy223 2.310 . S
O227 C228 1.268 . S
C228 O226 1.254 . S
C228 O227 1.268 . S
C229 O234 1.254 . S
C229 O235 1.268 . S
O230 Dy223 2.351 . S
O230 C238 1.249 . S
O231 Dy220 2.326 . S
O231 C238 1.267 . S
O232 C221 1.185 . S
O232 Dy223 2.398 . S
O233 C221 1.355 . S
O233 Dy223 2.491 . S
O234 Dy223 2.403 . S
O234 C229 1.254 . S
O235 Dy220 2.310 . S
O235 Dy223 2.664 . S
O235 C229 1.268 . S
O236 Dy220 2.351 . S
O236 C239 1.249 . S
O237 Dy223 2.326 . S
O237 C239 1.267 . S
C238 O230 1.249 . S
C238 O231 1.267 . S
C239 O236 1.249 . S
C239 O237 1.267 . S
Dy240 O244 2.398 . S
Dy240 O245 2.491 . S
Dy240 O246 2.403 . S
Dy240 O247 2.664 . S
Dy240 O251 2.326 . S
Dy240 O255 2.310 . S
Dy240 O256 2.351 . S
C241 O252 1.185 . S
C241 O253 1.355 . S
C242 O244 1.185 . S
C242 O245 1.355 . S
Dy243 O247 2.310 . S
Dy243 O250 2.351 . S
Dy243 O252 2.398 . S
Dy243 O253 2.491 . S
Dy243 O254 2.403 . S
Dy243 O255 2.664 . S
Dy243 O257 2.326 . S
O244 Dy240 2.398 . S
O244 C242 1.185 . S
O245 Dy240 2.491 . S
O245 C242 1.355 . S
O246 Dy240 2.403 . S
O246 C248 1.254 . S
O247 Dy240 2.664 . S
O247 Dy243 2.310 . S
O247 C248 1.268 . S
C248 O246 1.254 . S
C248 O247 1.268 . S
C249 O254 1.254 . S
C249 O255 1.268 . S
O250 Dy243 2.351 . S
O250 C258 1.249 . S
O251 Dy240 2.326 . S
O251 C258 1.267 . S
O252 C241 1.185 . S
O252 Dy243 2.398 . S
O253 C241 1.355 . S
O253 Dy243 2.491 . S
O254 Dy243 2.403 . S
O254 C249 1.254 . S
O255 Dy240 2.310 . S
O255 Dy243 2.664 . S
O255 C249 1.268 . S
O256 Dy240 2.351 . S
O256 C259 1.249 . S
O257 Dy243 2.326 . S
O257 C259 1.267 . S
C258 O250 1.249 . S
C258 O251 1.267 . S
C259 O256 1.249 . S
C259 O257 1.267 . S
Dy260 O264 2.398 . S
Dy260 O265 2.491 . S
Dy260 O266 2.403 . S
Dy260 O267 2.664 . S
Dy260 O271 2.326 . S
Dy260 O275 2.310 . S
Dy260 O276 2.351 . S
C261 O272 1.185 . S
C261 O273 1.355 . S
C262 O264 1.185 . S
C262 O265 1.355 . S
Dy263 O267 2.310 . S
Dy263 O270 2.351 . S
Dy263 O272 2.398 . S
Dy263 O273 2.491 . S
Dy263 O274 2.403 . S
Dy263 O275 2.664 . S
Dy263 O277 2.326 . S
O264 Dy260 2.398 . S
O264 C262 1.185 . S
O265 Dy260 2.491 . S
O265 C262 1.355 . S
O266 Dy260 2.403 . S
O266 C268 1.254 . S
O267 Dy260 2.664 . S
O267 Dy263 2.310 . S
O267 C268 1.268 . S
C268 O266 1.254 . S
C268 O267 1.268 . S
C269 O274 1.254 . S
C269 O275 1.268 . S
O270 Dy263 2.351 . S
O270 C278 1.249 . S
O271 Dy260 2.326 . S
O271 C278 1.267 . S
O272 C261 1.185 . S
O272 Dy263 2.398 . S
O273 C261 1.355 . S
O273 Dy263 2.491 . S
O274 Dy263 2.403 . S
O274 C269 1.254 . S
O275 Dy260 2.310 . S
O275 Dy263 2.664 . S
O275 C269 1.268 . S
O276 Dy260 2.351 . S
O276 C279 1.249 . S
O277 Dy263 2.326 . S
O277 C279 1.267 . S
C278 O270 1.249 . S
C278 O271 1.267 . S
C279 O276 1.249 . S
C279 O277 1.267 . S
Dy280 O284 2.398 . S
Dy280 O285 2.491 . S
Dy280 O286 2.403 . S
Dy280 O287 2.664 . S
Dy280 O291 2.326 . S
Dy280 O295 2.310 . S
Dy280 O296 2.351 . S
C281 O292 1.185 . S
C281 O293 1.355 . S
C282 O284 1.185 . S
C282 O285 1.355 . S
Dy283 O287 2.310 . S
Dy283 O290 2.351 . S
Dy283 O292 2.398 . S
Dy283 O293 2.491 . S
Dy283 O294 2.403 . S
Dy283 O295 2.664 . S
Dy283 O297 2.326 . S
O284 Dy280 2.398 . S
O284 C282 1.185 . S
O285 Dy280 2.491 . S
O285 C282 1.355 . S
O286 Dy280 2.403 . S
O286 C288 1.254 . S
O287 Dy280 2.664 . S
O287 Dy283 2.310 . S
O287 C288 1.268 . S
C288 O286 1.254 . S
C288 O287 1.268 . S
C289 O294 1.254 . S
C289 O295 1.268 . S
O290 Dy283 2.351 . S
O290 C298 1.249 . S
O291 Dy280 2.326 . S
O291 C298 1.267 . S
O292 C281 1.185 . S
O292 Dy283 2.398 . S
O293 C281 1.355 . S
O293 Dy283 2.491 . S
O294 Dy283 2.403 . S
O294 C289 1.254 . S
O295 Dy280 2.310 . S
O295 Dy283 2.664 . S
O295 C289 1.268 . S
O296 Dy280 2.351 . S
O296 C299 1.249 . S
O297 Dy283 2.326 . S
O297 C299 1.267 . S
C298 O290 1.249 . S
C298 O291 1.267 . S
C299 O296 1.249 . S
C299 O297 1.267 . S
Dy300 O304 2.398 . S
Dy300 O305 2.491 . S
Dy300 O306 2.403 . S
Dy300 O307 2.664 . S
Dy300 O311 2.326 . S
Dy300 O315 2.310 . S
Dy300 O316 2.351 . S
C301 O312 1.185 . S
C301 O313 1.355 . S
C302 O304 1.185 . S
C302 O305 1.355 . S
Dy303 O307 2.310 . S
Dy303 O310 2.351 . S
Dy303 O312 2.398 . S
Dy303 O313 2.491 . S
Dy303 O314 2.403 . S
Dy303 O315 2.664 . S
Dy303 O317 2.326 . S
O304 Dy300 2.398 . S
O304 C302 1.185 . S
O305 Dy300 2.491 . S
O305 C302 1.355 . S
O306 Dy300 2.403 . S
O306 C308 1.254 . S
O307 Dy300 2.664 . S
O307 Dy303 2.310 . S
O307 C308 1.268 . S
C308 O306 1.254 . S
C308 O307 1.268 . S
C309 O314 1.254 . S
C309 O315 1.268 . S
O310 Dy303 2.351 . S
O310 C318 1.249 . S
O311 Dy300 2.326 . S
O311 C318 1.267 . S
O312 C301 1.185 . S
O312 Dy303 2.398 . S
O313 C301 1.355 . S
O313 Dy303 2.491 . S
O314 Dy303 2.403 . S
O314 C309 1.254 . S
O315 Dy300 2.310 . S
O315 Dy303 2.664 . S
O315 C309 1.268 . S
O316 Dy300 2.351 . S
O316 C319 1.249 . S
O317 Dy303 2.326 . S
O317 C319 1.267 . S
C318 O310 1.249 . S
C318 O311 1.267 . S
C319 O316 1.249 . S
C319 O317 1.267 . S
H320 C328 0.929 . S
H321 C330 0.930 . S
H322 C332 0.930 . S
H323 C335 0.929 . S
H324 C338 0.930 . S
H325 C340 0.960 . S
H326 C340 0.960 . S
H327 C340 0.960 . S
C328 H320 0.929 . S
C328 C329 1.377 . S
C328 C330 1.384 . S
C329 C328 1.377 . S
C329 C335 1.390 . S
C330 H321 0.930 . S
C330 C328 1.384 . S
C330 C331 1.372 . S
C331 C330 1.372 . S
C331 C332 1.400 . S
C331 C336 1.490 . S
C332 H322 0.930 . S
C332 C331 1.400 . S
C332 C335 1.386 . S
H333 C349 0.930 . S
H334 C350 0.931 . S
C335 H323 0.929 . S
C335 C329 1.390 . S
C335 C332 1.386 . S
C336 C331 1.490 . S
C336 C338 1.395 . S
C336 C339 1.403 . S
H337 C343 0.930 . S
C338 H324 0.930 . S
C338 C336 1.395 . S
C338 C341 1.403 . S
C339 C336 1.403 . S
C339 C340 1.524 . S
C339 C343 1.400 . S
C340 H325 0.960 . S
C340 H326 0.960 . S
C340 H327 0.960 . S
C340 C339 1.524 . S
C341 C338 1.403 . S
C341 C342 1.392 . S
C341 C345 1.495 . S
C342 C341 1.392 . S
C342 C343 1.385 . S
C342 C344 1.478 . S
C343 H337 0.930 . S
C343 C339 1.400 . S
C343 C342 1.385 . S
C344 C342 1.478 . S
C344 C346 1.381 . S
C344 C350 1.383 . S
C345 C341 1.495 . S
C345 H351 0.959 . S
C345 H352 0.961 . S
C345 H353 0.960 . S
C346 C344 1.381 . S
C346 C347 1.394 . S
C346 H354 0.930 . S
C347 C346 1.394 . S
C347 C348 1.383 . S
C347 H355 0.929 . S
C348 C347 1.383 . S
C348 C349 1.377 . S
C349 H333 0.930 . S
C349 C348 1.377 . S
C349 C350 1.379 . S
C350 H334 0.931 . S
C350 C344 1.383 . S
C350 C349 1.379 . S
H351 C345 0.959 . S
H352 C345 0.961 . S
H353 C345 0.960 . S
H354 C346 0.930 . S
H355 C347 0.929 . S
H356 C364 0.929 . S
H357 C366 0.930 . S
H358 C368 0.930 . S
H359 C371 0.929 . S
H360 C374 0.930 . S
H361 C376 0.960 . S
H362 C376 0.960 . S
H363 C376 0.960 . S
C364 H356 0.929 . S
C364 C365 1.377 . S
C364 C366 1.384 . S
C365 C364 1.377 . S
C365 C371 1.390 . S
C366 H357 0.930 . S
C366 C364 1.384 . S
C366 C367 1.372 . S
C367 C366 1.372 . S
C367 C368 1.400 . S
C367 C372 1.490 . S
C368 H358 0.930 . S
C368 C367 1.400 . S
C368 C371 1.386 . S
H369 C385 0.930 . S
H370 C386 0.931 . S
C371 H359 0.929 . S
C371 C365 1.390 . S
C371 C368 1.386 . S
C372 C367 1.490 . S
C372 C374 1.395 . S
C372 C375 1.403 . S
H373 C379 0.930 . S
C374 H360 0.930 . S
C374 C372 1.395 . S
C374 C377 1.403 . S
C375 C372 1.403 . S
C375 C376 1.524 . S
C375 C379 1.400 . S
C376 H361 0.960 . S
C376 H362 0.960 . S
C376 H363 0.960 . S
C376 C375 1.524 . S
C377 C374 1.403 . S
C377 C378 1.392 . S
C377 C381 1.495 . S
C378 C377 1.392 . S
C378 C379 1.385 . S
C378 C380 1.478 . S
C379 H373 0.930 . S
C379 C375 1.400 . S
C379 C378 1.385 . S
C380 C378 1.478 . S
C380 C382 1.381 . S
C380 C386 1.383 . S
C381 C377 1.495 . S
C381 H387 0.959 . S
C381 H388 0.961 . S
C381 H389 0.960 . S
C382 C380 1.381 . S
C382 C383 1.394 . S
C382 H390 0.930 . S
C383 C382 1.394 . S
C383 C384 1.383 . S
C383 H391 0.929 . S
C384 C383 1.383 . S
C384 C385 1.377 . S
C385 H369 0.930 . S
C385 C384 1.377 . S
C385 C386 1.379 . S
C386 H370 0.931 . S
C386 C380 1.383 . S
C386 C385 1.379 . S
H387 C381 0.959 . S
H388 C381 0.961 . S
H389 C381 0.960 . S
H390 C382 0.930 . S
H391 C383 0.929 . S
H392 C400 0.929 . S
H393 C402 0.930 . S
H394 C404 0.930 . S
H395 C407 0.929 . S
H396 C410 0.930 . S
H397 C412 0.960 . S
H398 C412 0.960 . S
H399 C412 0.960 . S
C400 H392 0.929 . S
C400 C401 1.377 . S
C400 C402 1.384 . S
C401 C400 1.377 . S
C401 C407 1.390 . S
C402 H393 0.930 . S
C402 C400 1.384 . S
C402 C403 1.372 . S
C403 C402 1.372 . S
C403 C404 1.400 . S
C403 C408 1.490 . S
C404 H394 0.930 . S
C404 C403 1.400 . S
C404 C407 1.386 . S
H405 C421 0.930 . S
H406 C422 0.931 . S
C407 H395 0.929 . S
C407 C401 1.390 . S
C407 C404 1.386 . S
C408 C403 1.490 . S
C408 C410 1.395 . S
C408 C411 1.403 . S
H409 C415 0.930 . S
C410 H396 0.930 . S
C410 C408 1.395 . S
C410 C413 1.403 . S
C411 C408 1.403 . S
C411 C412 1.524 . S
C411 C415 1.400 . S
C412 H397 0.960 . S
C412 H398 0.960 . S
C412 H399 0.960 . S
C412 C411 1.524 . S
C413 C410 1.403 . S
C413 C414 1.392 . S
C413 C417 1.495 . S
C414 C413 1.392 . S
C414 C415 1.385 . S
C414 C416 1.478 . S
C415 H409 0.930 . S
C415 C411 1.400 . S
C415 C414 1.385 . S
C416 C414 1.478 . S
C416 C418 1.381 . S
C416 C422 1.383 . S
C417 C413 1.495 . S
C417 H423 0.959 . S
C417 H424 0.961 . S
C417 H425 0.960 . S
C418 C416 1.381 . S
C418 C419 1.394 . S
C418 H426 0.930 . S
C419 C418 1.394 . S
C419 C420 1.383 . S
C419 H427 0.929 . S
C420 C419 1.383 . S
C420 C421 1.377 . S
C421 H405 0.930 . S
C421 C420 1.377 . S
C421 C422 1.379 . S
C422 H406 0.931 . S
C422 C416 1.383 . S
C422 C421 1.379 . S
H423 C417 0.959 . S
H424 C417 0.961 . S
H425 C417 0.960 . S
H426 C418 0.930 . S
H427 C419 0.929 . S
H428 C436 0.929 . S
H429 C438 0.930 . S
H430 C440 0.930 . S
H431 C443 0.929 . S
H432 C446 0.930 . S
H433 C448 0.960 . S
H434 C448 0.960 . S
H435 C448 0.960 . S
C436 H428 0.929 . S
C436 C437 1.377 . S
C436 C438 1.384 . S
C437 C436 1.377 . S
C437 C443 1.390 . S
C438 H429 0.930 . S
C438 C436 1.384 . S
C438 C439 1.372 . S
C439 C438 1.372 . S
C439 C440 1.400 . S
C439 C444 1.490 . S
C440 H430 0.930 . S
C440 C439 1.400 . S
C440 C443 1.386 . S
H441 C457 0.930 . S
H442 C458 0.931 . S
C443 H431 0.929 . S
C443 C437 1.390 . S
C443 C440 1.386 . S
C444 C439 1.490 . S
C444 C446 1.395 . S
C444 C447 1.403 . S
H445 C451 0.930 . S
C446 H432 0.930 . S
C446 C444 1.395 . S
C446 C449 1.403 . S
C447 C444 1.403 . S
C447 C448 1.524 . S
C447 C451 1.400 . S
C448 H433 0.960 . S
C448 H434 0.960 . S
C448 H435 0.960 . S
C448 C447 1.524 . S
C449 C446 1.403 . S
C449 C450 1.392 . S
C449 C453 1.495 . S
C450 C449 1.392 . S
C450 C451 1.385 . S
C450 C452 1.478 . S
C451 H445 0.930 . S
C451 C447 1.400 . S
C451 C450 1.385 . S
C452 C450 1.478 . S
C452 C454 1.381 . S
C452 C458 1.383 . S
C453 C449 1.495 . S
C453 H459 0.959 . S
C453 H460 0.961 . S
C453 H461 0.960 . S
C454 C452 1.381 . S
C454 C455 1.394 . S
C454 H462 0.930 . S
C455 C454 1.394 . S
C455 C456 1.383 . S
C455 H463 0.929 . S
C456 C455 1.383 . S
C456 C457 1.377 . S
C457 H441 0.930 . S
C457 C456 1.377 . S
C457 C458 1.379 . S
C458 H442 0.931 . S
C458 C452 1.383 . S
C458 C457 1.379 . S
H459 C453 0.959 . S
H460 C453 0.961 . S
H461 C453 0.960 . S
H462 C454 0.930 . S
H463 C455 0.929 . S
H464 C472 0.929 . S
H465 C474 0.930 . S
H466 C476 0.930 . S
H467 C479 0.929 . S
H468 C482 0.930 . S
H469 C484 0.960 . S
H470 C484 0.960 . S
H471 C484 0.960 . S
C472 H464 0.929 . S
C472 C473 1.377 . S
C472 C474 1.384 . S
C473 C472 1.377 . S
C473 C479 1.390 . S
C474 H465 0.930 . S
C474 C472 1.384 . S
C474 C475 1.372 . S
C475 C474 1.372 . S
C475 C476 1.400 . S
C475 C480 1.490 . S
C476 H466 0.930 . S
C476 C475 1.400 . S
C476 C479 1.386 . S
H477 C493 0.930 . S
H478 C494 0.931 . S
C479 H467 0.929 . S
C479 C473 1.390 . S
C479 C476 1.386 . S
C480 C475 1.490 . S
C480 C482 1.395 . S
C480 C483 1.403 . S
H481 C487 0.930 . S
C482 H468 0.930 . S
C482 C480 1.395 . S
C482 C485 1.403 . S
C483 C480 1.403 . S
C483 C484 1.524 . S
C483 C487 1.400 . S
C484 H469 0.960 . S
C484 H470 0.960 . S
C484 H471 0.960 . S
C484 C483 1.524 . S
C485 C482 1.403 . S
C485 C486 1.392 . S
C485 C489 1.495 . S
C486 C485 1.392 . S
C486 C487 1.385 . S
C486 C488 1.478 . S
C487 H481 0.930 . S
C487 C483 1.400 . S
C487 C486 1.385 . S
C488 C486 1.478 . S
C488 C490 1.381 . S
C488 C494 1.383 . S
C489 C485 1.495 . S
C489 H495 0.959 . S
C489 H496 0.961 . S
C489 H497 0.960 . S
C490 C488 1.381 . S
C490 C491 1.394 . S
C490 H498 0.930 . S
C491 C490 1.394 . S
C491 C492 1.383 . S
C491 H499 0.929 . S
C492 C491 1.383 . S
C492 C493 1.377 . S
C493 H477 0.930 . S
C493 C492 1.377 . S
C493 C494 1.379 . S
C494 H478 0.931 . S
C494 C488 1.383 . S
C494 C493 1.379 . S
H495 C489 0.959 . S
H496 C489 0.961 . S
H497 C489 0.960 . S
H498 C490 0.930 . S
H499 C491 0.929 . S
H500 C508 0.929 . S
H501 C510 0.930 . S
H502 C512 0.930 . S
H503 C515 0.929 . S
H504 C518 0.930 . S
H505 C520 0.960 . S
H506 C520 0.960 . S
H507 C520 0.960 . S
C508 H500 0.929 . S
C508 C509 1.377 . S
C508 C510 1.384 . S
C509 C508 1.377 . S
C509 C515 1.390 . S
C510 H501 0.930 . S
C510 C508 1.384 . S
C510 C511 1.372 . S
C511 C510 1.372 . S
C511 C512 1.400 . S
C511 C516 1.490 . S
C512 H502 0.930 . S
C512 C511 1.400 . S
C512 C515 1.386 . S
H513 C529 0.930 . S
H514 C530 0.931 . S
C515 H503 0.929 . S
C515 C509 1.390 . S
C515 C512 1.386 . S
C516 C511 1.490 . S
C516 C518 1.395 . S
C516 C519 1.403 . S
H517 C523 0.930 . S
C518 H504 0.930 . S
C518 C516 1.395 . S
C518 C521 1.403 . S
C519 C516 1.403 . S
C519 C520 1.524 . S
C519 C523 1.400 . S
C520 H505 0.960 . S
C520 H506 0.960 . S
C520 H507 0.960 . S
C520 C519 1.524 . S
C521 C518 1.403 . S
C521 C522 1.392 . S
C521 C525 1.495 . S
C522 C521 1.392 . S
C522 C523 1.385 . S
C522 C524 1.478 . S
C523 H517 0.930 . S
C523 C519 1.400 . S
C523 C522 1.385 . S
C524 C522 1.478 . S
C524 C526 1.381 . S
C524 C530 1.383 . S
C525 C521 1.495 . S
C525 H531 0.959 . S
C525 H532 0.961 . S
C525 H533 0.960 . S
C526 C524 1.381 . S
C526 C527 1.394 . S
C526 H534 0.930 . S
C527 C526 1.394 . S
C527 C528 1.383 . S
C527 H535 0.929 . S
C528 C527 1.383 . S
C528 C529 1.377 . S
C529 H513 0.930 . S
C529 C528 1.377 . S
C529 C530 1.379 . S
C530 H514 0.931 . S
C530 C524 1.383 . S
C530 C529 1.379 . S
H531 C525 0.959 . S
H532 C525 0.961 . S
H533 C525 0.960 . S
H534 C526 0.930 . S
H535 C527 0.929 . S
H536 C544 0.929 . S
H537 C546 0.930 . S
H538 C548 0.930 . S
H539 C551 0.929 . S
H540 C554 0.930 . S
H541 C556 0.960 . S
H542 C556 0.960 . S
H543 C556 0.960 . S
C544 H536 0.929 . S
C544 C545 1.377 . S
C544 C546 1.384 . S
C545 C544 1.377 . S
C545 C551 1.390 . S
C546 H537 0.930 . S
C546 C544 1.384 . S
C546 C547 1.372 . S
C547 C546 1.372 . S
C547 C548 1.400 . S
C547 C552 1.490 . S
C548 H538 0.930 . S
C548 C547 1.400 . S
C548 C551 1.386 . S
H549 C565 0.930 . S
H550 C566 0.931 . S
C551 H539 0.929 . S
C551 C545 1.390 . S
C551 C548 1.386 . S
C552 C547 1.490 . S
C552 C554 1.395 . S
C552 C555 1.403 . S
H553 C559 0.930 . S
C554 H540 0.930 . S
C554 C552 1.395 . S
C554 C557 1.403 . S
C555 C552 1.403 . S
C555 C556 1.524 . S
C555 C559 1.400 . S
C556 H541 0.960 . S
C556 H542 0.960 . S
C556 H543 0.960 . S
C556 C555 1.524 . S
C557 C554 1.403 . S
C557 C558 1.392 . S
C557 C561 1.495 . S
C558 C557 1.392 . S
C558 C559 1.385 . S
C558 C560 1.478 . S
C559 H553 0.930 . S
C559 C555 1.400 . S
C559 C558 1.385 . S
C560 C558 1.478 . S
C560 C562 1.381 . S
C560 C566 1.383 . S
C561 C557 1.495 . S
C561 H567 0.959 . S
C561 H568 0.961 . S
C561 H569 0.960 . S
C562 C560 1.381 . S
C562 C563 1.394 . S
C562 H570 0.930 . S
C563 C562 1.394 . S
C563 C564 1.383 . S
C563 H571 0.929 . S
C564 C563 1.383 . S
C564 C565 1.377 . S
C565 H549 0.930 . S
C565 C564 1.377 . S
C565 C566 1.379 . S
C566 H550 0.931 . S
C566 C560 1.383 . S
C566 C565 1.379 . S
H567 C561 0.959 . S
H568 C561 0.961 . S
H569 C561 0.960 . S
H570 C562 0.930 . S
H571 C563 0.929 . S
H572 C580 0.929 . S
H573 C582 0.930 . S
H574 C584 0.930 . S
H575 C587 0.929 . S
H576 C590 0.930 . S
H577 C592 0.960 . S
H578 C592 0.960 . S
H579 C592 0.960 . S
C580 H572 0.929 . S
C580 C581 1.377 . S
C580 C582 1.384 . S
C581 C580 1.377 . S
C581 C587 1.390 . S
C582 H573 0.930 . S
C582 C580 1.384 . S
C582 C583 1.372 . S
C583 C582 1.372 . S
C583 C584 1.400 . S
C583 C588 1.490 . S
C584 H574 0.930 . S
C584 C583 1.400 . S
C584 C587 1.386 . S
H585 C601 0.930 . S
H586 C602 0.931 . S
C587 H575 0.929 . S
C587 C581 1.390 . S
C587 C584 1.386 . S
C588 C583 1.490 . S
C588 C590 1.395 . S
C588 C591 1.403 . S
H589 C595 0.930 . S
C590 H576 0.930 . S
C590 C588 1.395 . S
C590 C593 1.403 . S
C591 C588 1.403 . S
C591 C592 1.524 . S
C591 C595 1.400 . S
C592 H577 0.960 . S
C592 H578 0.960 . S
C592 H579 0.960 . S
C592 C591 1.524 . S
C593 C590 1.403 . S
C593 C594 1.392 . S
C593 C597 1.495 . S
C594 C593 1.392 . S
C594 C595 1.385 . S
C594 C596 1.478 . S
C595 H589 0.930 . S
C595 C591 1.400 . S
C595 C594 1.385 . S
C596 C594 1.478 . S
C596 C598 1.381 . S
C596 C602 1.383 . S
C597 C593 1.495 . S
C597 H603 0.959 . S
C597 H604 0.961 . S
C597 H605 0.960 . S
C598 C596 1.381 . S
C598 C599 1.394 . S
C598 H606 0.930 . S
C599 C598 1.394 . S
C599 C600 1.383 . S
C599 H607 0.929 . S
C600 C599 1.383 . S
C600 C601 1.377 . S
C601 H585 0.930 . S
C601 C600 1.377 . S
C601 C602 1.379 . S
C602 H586 0.931 . S
C602 C596 1.383 . S
C602 C601 1.379 . S
H603 C597 0.959 . S
H604 C597 0.961 . S
H605 C597 0.960 . S
H606 C598 0.930 . S
H607 C599 0.929 . S
H608 C616 0.929 . S
H609 C618 0.930 1_545 S
H610 C620 0.930 . S
H611 C623 0.929 . S
H612 C626 0.930 . S
H613 C628 0.960 . S
H614 C628 0.960 . S
H615 C628 0.960 . S
C616 H608 0.929 . S
C616 C617 1.377 . S
C616 C618 1.384 . S
C617 C616 1.377 . S
C617 C623 1.390 . S
C618 H609 0.930 1_565 S
C618 C616 1.384 . S
C618 C619 1.372 . S
C619 C618 1.372 . S
C619 C620 1.400 . S
C619 C624 1.490 . S
C620 H610 0.930 . S
C620 C619 1.400 . S
C620 C623 1.386 . S
H621 C637 0.930 . S
H622 C638 0.931 . S
C623 H611 0.929 . S
C623 C617 1.390 . S
C623 C620 1.386 . S
C624 C619 1.490 . S
C624 C626 1.395 1_565 S
C624 C627 1.403 . S
H625 C631 0.930 . S
C626 H612 0.930 . S
C626 C624 1.395 1_545 S
C626 C629 1.403 . S
C627 C624 1.403 . S
C627 C628 1.524 . S
C627 C631 1.400 . S
C628 H613 0.960 . S
C628 H614 0.960 . S
C628 H615 0.960 . S
C628 C627 1.524 . S
C629 C626 1.403 . S
C629 C630 1.392 . S
C629 C633 1.495 . S
C630 C629 1.392 . S
C630 C631 1.385 1_545 S
C630 C632 1.478 . S
C631 H625 0.930 . S
C631 C627 1.400 . S
C631 C630 1.385 1_565 S
C632 C630 1.478 . S
C632 C634 1.381 . S
C632 C638 1.383 . S
C633 C629 1.495 . S
C633 H639 0.959 . S
C633 H640 0.961 . S
C633 H641 0.960 . S
C634 C632 1.381 . S
C634 C635 1.394 . S
C634 H642 0.930 . S
C635 C634 1.394 . S
C635 C636 1.383 . S
C635 H643 0.929 . S
C636 C635 1.383 . S
C636 C637 1.377 . S
C637 H621 0.930 . S
C637 C636 1.377 . S
C637 C638 1.379 . S
C638 H622 0.931 . S
C638 C632 1.383 . S
C638 C637 1.379 . S
H639 C633 0.959 . S
H640 C633 0.961 . S
H641 C633 0.960 . S
H642 C634 0.930 . S
H643 C635 0.929 . S
H644 C652 0.929 . S
H645 C654 0.930 1_565 S
H646 C656 0.930 . S
H647 C659 0.929 . S
H648 C662 0.930 . S
H649 C664 0.960 . S
H650 C664 0.960 . S
H651 C664 0.960 . S
C652 H644 0.929 . S
C652 C653 1.377 . S
C652 C654 1.384 . S
C653 C652 1.377 . S
C653 C659 1.390 . S
C654 H645 0.930 1_545 S
C654 C652 1.384 . S
C654 C655 1.372 . S
C655 C654 1.372 . S
C655 C656 1.400 . S
C655 C660 1.490 . S
C656 H646 0.930 . S
C656 C655 1.400 . S
C656 C659 1.386 . S
H657 C673 0.930 . S
H658 C674 0.931 1_545 S
C659 H647 0.929 . S
C659 C653 1.390 . S
C659 C656 1.386 . S
C660 C655 1.490 . S
C660 C662 1.395 1_545 S
C660 C663 1.403 . S
H661 C667 0.930 . S
C662 H648 0.930 . S
C662 C660 1.395 1_565 S
C662 C665 1.403 . S
C663 C660 1.403 . S
C663 C664 1.524 . S
C663 C667 1.400 . S
C664 H649 0.960 . S
C664 H650 0.960 . S
C664 H651 0.960 . S
C664 C663 1.524 . S
C665 C662 1.403 . S
C665 C666 1.392 . S
C665 C669 1.495 . S
C666 C665 1.392 . S
C666 C667 1.385 1_565 S
C666 C668 1.478 . S
C667 H661 0.930 . S
C667 C663 1.400 . S
C667 C666 1.385 1_545 S
C668 C666 1.478 . S
C668 C670 1.381 . S
C668 C674 1.383 . S
C669 C665 1.495 . S
C669 H675 0.959 . S
C669 H676 0.961 . S
C669 H677 0.960 . S
C670 C668 1.381 . S
C670 C671 1.394 . S
C670 H678 0.930 . S
C671 C670 1.394 . S
C671 C672 1.383 . S
C671 H679 0.929 . S
C672 C671 1.383 . S
C672 C673 1.377 . S
C673 H657 0.930 . S
C673 C672 1.377 . S
C673 C674 1.379 . S
C674 H658 0.931 1_565 S
C674 C668 1.383 . S
C674 C673 1.379 . S
H675 C669 0.959 . S
H676 C669 0.961 . S
H677 C669 0.960 . S
H678 C670 0.930 . S
H679 C671 0.929 . S
H680 C688 0.929 . S
H681 C690 0.930 . S
H682 C692 0.930 1_565 S
H683 C695 0.929 . S
H684 C698 0.930 . S
H685 C700 0.960 . S
H686 C700 0.960 . S
H687 C700 0.960 . S
C688 H680 0.929 . S
C688 C689 1.377 . S
C688 C690 1.384 . S
C689 C688 1.377 . S
C689 C695 1.390 . S
C690 H681 0.930 . S
C690 C688 1.384 . S
C690 C691 1.372 . S
C691 C690 1.372 . S
C691 C692 1.400 . S
C691 C696 1.490 . S
C692 H682 0.930 1_545 S
C692 C691 1.400 . S
C692 C695 1.386 . S
H693 C709 0.930 . S
H694 C710 0.931 . S
C695 H683 0.929 . S
C695 C689 1.390 . S
C695 C692 1.386 . S
C696 C691 1.490 . S
C696 C698 1.395 . S
C696 C699 1.403 . S
H697 C703 0.931 . S
C698 H684 0.930 . S
C698 C696 1.395 . S
C698 C701 1.403 1_545 S
C699 C696 1.403 . S
C699 C700 1.524 . S
C699 C703 1.394 1_545 S
C700 H685 0.960 . S
C700 H686 0.960 . S
C700 H687 0.960 . S
C700 C699 1.524 . S
C701 C698 1.403 1_565 S
C701 C702 1.392 . S
C701 C705 1.495 . S
C702 C701 1.392 . S
C702 C703 1.391 . S
C702 C704 1.478 . S
C703 H697 0.931 . S
C703 C699 1.394 1_565 S
C703 C702 1.391 . S
C704 C702 1.478 . S
C704 C706 1.381 . S
C704 C710 1.383 . S
C705 C701 1.495 . S
C705 H711 0.959 . S
C705 H712 0.961 . S
C705 H713 0.960 . S
C706 C704 1.381 . S
C706 C707 1.394 . S
C706 H714 0.930 1_565 S
C707 C706 1.394 . S
C707 C708 1.383 . S
C707 H715 0.936 . S
C708 C707 1.383 . S
C708 C709 1.377 . S
C709 H693 0.930 . S
C709 C708 1.377 . S
C709 C710 1.379 . S
C710 H694 0.931 . S
C710 C704 1.383 . S
C710 C709 1.379 . S
H711 C705 0.959 . S
H712 C705 0.961 . S
H713 C705 0.960 . S
H714 C706 0.930 1_545 S
H715 C707 0.936 . S
H716 C724 0.929 . S
H717 C726 0.930 . S
H718 C728 0.930 . S
H719 C731 0.929 . S
H720 C734 0.930 . S
H721 C736 0.960 . S
H722 C736 0.960 . S
H723 C736 0.960 . S
C724 H716 0.929 . S
C724 C725 1.377 . S
C724 C726 1.384 . S
C725 C724 1.377 . S
C725 C731 1.390 . S
C726 H717 0.930 . S
C726 C724 1.384 . S
C726 C727 1.372 . S
C727 C726 1.372 . S
C727 C728 1.400 . S
C727 C732 1.490 . S
C728 H718 0.930 . S
C728 C727 1.400 . S
C728 C731 1.386 . S
H729 C745 0.930 . S
H730 C746 0.931 . S
C731 H719 0.929 . S
C731 C725 1.390 . S
C731 C728 1.386 . S
C732 C727 1.490 . S
C732 C734 1.395 1_545 S
C732 C735 1.403 . S
H733 C739 0.930 . S
C734 H720 0.930 . S
C734 C732 1.395 1_565 S
C734 C737 1.403 . S
C735 C732 1.403 . S
C735 C736 1.524 . S
C735 C739 1.400 . S
C736 H721 0.960 . S
C736 H722 0.960 . S
C736 H723 0.960 . S
C736 C735 1.524 . S
C737 C734 1.403 . S
C737 C738 1.392 . S
C737 C741 1.495 . S
C738 C737 1.392 . S
C738 C739 1.385 1_565 S
C738 C740 1.478 . S
C739 H733 0.930 . S
C739 C735 1.400 . S
C739 C738 1.385 1_545 S
C740 C738 1.478 . S
C740 C742 1.381 . S
C740 C746 1.383 . S
C741 C737 1.495 . S
C741 H747 0.959 . S
C741 H748 0.961 . S
C741 H749 0.960 . S
C742 C740 1.381 . S
C742 C743 1.394 . S
C742 H750 0.930 . S
C743 C742 1.394 . S
C743 C744 1.383 . S
C743 H751 0.929 . S
C744 C743 1.383 . S
C744 C745 1.377 . S
C745 H729 0.930 . S
C745 C744 1.377 . S
C745 C746 1.379 . S
C746 H730 0.931 . S
C746 C740 1.383 . S
C746 C745 1.379 . S
H747 C741 0.959 . S
H748 C741 0.961 . S
H749 C741 0.960 . S
H750 C742 0.930 . S
H751 C743 0.929 . S
H752 C760 0.929 . S
H753 C762 0.930 . S
H754 C764 0.930 . S
H755 C767 0.929 . S
H756 C770 0.930 . S
H757 C772 0.960 . S
H758 C772 0.960 . S
H759 C772 0.960 . S
C760 H752 0.929 . S
C760 C761 1.377 . S
C760 C762 1.384 . S
C761 C760 1.377 . S
C761 C767 1.390 . S
C762 H753 0.930 . S
C762 C760 1.384 . S
C762 C763 1.372 . S
C763 C762 1.372 . S
C763 C764 1.400 . S
C763 C768 1.490 . S
C764 H754 0.930 . S
C764 C763 1.400 . S
C764 C767 1.386 . S
H765 C781 0.930 . S
H766 C782 0.931 . S
C767 H755 0.929 . S
C767 C761 1.390 . S
C767 C764 1.386 . S
C768 C763 1.490 . S
C768 C770 1.395 . S
C768 C771 1.403 . S
H769 C775 0.930 . S
C770 H756 0.930 . S
C770 C768 1.395 . S
C770 C773 1.403 . S
C771 C768 1.403 . S
C771 C772 1.524 . S
C771 C775 1.400 . S
C772 H757 0.960 . S
C772 H758 0.960 . S
C772 H759 0.960 . S
C772 C771 1.524 . S
C773 C770 1.403 . S
C773 C774 1.392 . S
C773 C777 1.495 . S
C774 C773 1.392 . S
C774 C775 1.385 . S
C774 C776 1.478 . S
C775 H769 0.930 . S
C775 C771 1.400 . S
C775 C774 1.385 . S
C776 C774 1.478 . S
C776 C778 1.381 . S
C776 C782 1.383 . S
C777 C773 1.495 . S
C777 H783 0.959 . S
C777 H784 0.961 . S
C777 H785 0.960 . S
C778 C776 1.381 . S
C778 C779 1.394 . S
C778 H786 0.930 . S
C779 C778 1.394 . S
C779 C780 1.383 . S
C779 H787 0.929 . S
C780 C779 1.383 . S
C780 C781 1.377 . S
C781 H765 0.930 . S
C781 C780 1.377 . S
C781 C782 1.379 . S
C782 H766 0.931 . S
C782 C776 1.383 . S
C782 C781 1.379 . S
H783 C777 0.959 . S
H784 C777 0.961 . S
H785 C777 0.960 . S
H786 C778 0.930 . S
H787 C779 0.929 . S
H788 C796 0.929 . S
H789 C798 0.930 . S
H790 C800 0.930 . S
H791 C803 0.929 . S
H792 C806 0.930 . S
H793 C808 0.960 . S
H794 C808 0.960 . S
H795 C808 0.960 . S
C796 H788 0.929 . S
C796 C797 1.377 . S
C796 C798 1.384 . S
C797 C796 1.377 . S
C797 C803 1.390 . S
C798 H789 0.930 . S
C798 C796 1.384 . S
C798 C799 1.372 . S
C799 C798 1.372 . S
C799 C800 1.400 . S
C799 C804 1.490 . S
C800 H790 0.930 . S
C800 C799 1.400 . S
C800 C803 1.386 . S
H801 C817 0.930 . S
H802 C818 0.931 . S
C803 H791 0.929 . S
C803 C797 1.390 . S
C803 C800 1.386 . S
C804 C799 1.490 . S
C804 C806 1.395 . S
C804 C807 1.403 . S
H805 C811 0.930 . S
C806 H792 0.930 . S
C806 C804 1.395 . S
C806 C809 1.403 . S
C807 C804 1.403 . S
C807 C808 1.524 . S
C807 C811 1.400 . S
C808 H793 0.960 . S
C808 H794 0.960 . S
C808 H795 0.960 . S
C808 C807 1.524 . S
C809 C806 1.403 . S
C809 C810 1.392 . S
C809 C813 1.495 . S
C810 C809 1.392 . S
C810 C811 1.385 . S
C810 C812 1.478 . S
C811 H805 0.930 . S
C811 C807 1.400 . S
C811 C810 1.385 . S
C812 C810 1.478 . S
C812 C814 1.381 . S
C812 C818 1.383 . S
C813 C809 1.495 . S
C813 H819 0.959 . S
C813 H820 0.961 . S
C813 H821 0.960 . S
C814 C812 1.381 . S
C814 C815 1.394 . S
C814 H822 0.930 . S
C815 C814 1.394 . S
C815 C816 1.383 . S
C815 H823 0.929 . S
C816 C815 1.383 . S
C816 C817 1.377 . S
C817 H801 0.930 . S
C817 C816 1.377 . S
C817 C818 1.379 . S
C818 H802 0.931 . S
C818 C812 1.383 . S
C818 C817 1.379 . S
H819 C813 0.959 . S
H820 C813 0.961 . S
H821 C813 0.960 . S
H822 C814 0.930 . S
H823 C815 0.929 . S
H824 C832 0.929 . S
H825 C834 0.930 . S
H826 C836 0.930 . S
H827 C839 0.929 . S
H828 C842 0.930 . S
H829 C844 0.960 . S
H830 C844 0.960 . S
H831 C844 0.960 . S
C832 H824 0.929 . S
C832 C833 1.377 . S
C832 C834 1.384 . S
C833 C832 1.377 . S
C833 C839 1.390 . S
C834 H825 0.930 . S
C834 C832 1.384 . S
C834 C835 1.372 . S
C835 C834 1.372 . S
C835 C836 1.400 . S
C835 C840 1.490 . S
C836 H826 0.930 . S
C836 C835 1.400 . S
C836 C839 1.386 . S
H837 C853 0.930 . S
H838 C854 0.931 . S
C839 H827 0.929 . S
C839 C833 1.390 . S
C839 C836 1.386 . S
C840 C835 1.490 . S
C840 C842 1.395 . S
C840 C843 1.403 . S
H841 C847 0.930 . S
C842 H828 0.930 . S
C842 C840 1.395 . S
C842 C845 1.403 . S
C843 C840 1.403 . S
C843 C844 1.524 . S
C843 C847 1.400 . S
C844 H829 0.960 . S
C844 H830 0.960 . S
C844 H831 0.960 . S
C844 C843 1.524 . S
C845 C842 1.403 . S
C845 C846 1.392 . S
C845 C849 1.495 . S
C846 C845 1.392 . S
C846 C847 1.385 . S
C846 C848 1.478 . S
C847 H841 0.930 . S
C847 C843 1.400 . S
C847 C846 1.385 . S
C848 C846 1.478 . S
C848 C850 1.381 . S
C848 C854 1.383 . S
C849 C845 1.495 . S
C849 H855 0.959 . S
C849 H856 0.961 . S
C849 H857 0.960 . S
C850 C848 1.381 . S
C850 C851 1.394 . S
C850 H858 0.930 . S
C851 C850 1.394 . S
C851 C852 1.383 . S
C851 H859 0.929 . S
C852 C851 1.383 . S
C852 C853 1.377 . S
C853 H837 0.930 . S
C853 C852 1.377 . S
C853 C854 1.379 . S
C854 H838 0.931 . S
C854 C848 1.383 . S
C854 C853 1.379 . S
H855 C849 0.959 . S
H856 C849 0.961 . S
H857 C849 0.960 . S
H858 C850 0.930 . S
H859 C851 0.929 . S
H860 C868 0.929 . S
H861 C870 0.930 . S
H862 C872 0.930 . S
H863 C875 0.929 . S
H864 C878 0.930 . S
H865 C880 0.960 . S
H866 C880 0.960 . S
H867 C880 0.960 . S
C868 H860 0.929 . S
C868 C869 1.377 . S
C868 C870 1.384 . S
C869 C868 1.377 . S
C869 C875 1.390 . S
C870 H861 0.930 . S
C870 C868 1.384 . S
C870 C871 1.372 . S
C871 C870 1.372 . S
C871 C872 1.400 . S
C871 C876 1.490 . S
C872 H862 0.930 . S
C872 C871 1.400 . S
C872 C875 1.386 . S
H873 C889 0.930 . S
H874 C890 0.931 . S
C875 H863 0.929 . S
C875 C869 1.390 . S
C875 C872 1.386 . S
C876 C871 1.490 . S
C876 C878 1.395 . S
C876 C879 1.403 . S
H877 C883 0.930 . S
C878 H864 0.930 . S
C878 C876 1.395 . S
C878 C881 1.403 . S
C879 C876 1.403 . S
C879 C880 1.524 . S
C879 C883 1.400 . S
C880 H865 0.960 . S
C880 H866 0.960 . S
C880 H867 0.960 . S
C880 C879 1.524 . S
C881 C878 1.403 . S
C881 C882 1.392 . S
C881 C885 1.495 . S
C882 C881 1.392 . S
C882 C883 1.385 . S
C882 C884 1.478 . S
C883 H877 0.930 . S
C883 C879 1.400 . S
C883 C882 1.385 . S
C884 C882 1.478 . S
C884 C886 1.381 . S
C884 C890 1.383 . S
C885 C881 1.495 . S
C885 H891 0.959 . S
C885 H892 0.961 . S
C885 H893 0.960 . S
C886 C884 1.381 . S
C886 C887 1.394 . S
C886 H894 0.930 . S
C887 C886 1.394 . S
C887 C888 1.383 . S
C887 H895 0.929 . S
C888 C887 1.383 . S
C888 C889 1.377 . S
C889 H873 0.930 . S
C889 C888 1.377 . S
C889 C890 1.379 . S
C890 H874 0.931 . S
C890 C884 1.383 . S
C890 C889 1.379 . S
H891 C885 0.959 . S
H892 C885 0.961 . S
H893 C885 0.960 . S
H894 C886 0.930 . S
H895 C887 0.929 . S
H896 C904 0.929 . S
H897 C906 0.930 . S
H898 C908 0.930 . S
H899 C911 0.929 . S
H900 C914 0.930 . S
H901 C916 0.960 . S
H902 C916 0.960 . S
H903 C916 0.960 . S
C904 H896 0.929 . S
C904 C905 1.377 . S
C904 C906 1.384 . S
C905 C904 1.377 . S
C905 C911 1.390 . S
C906 H897 0.930 . S
C906 C904 1.384 . S
C906 C907 1.372 . S
C907 C906 1.372 . S
C907 C908 1.400 . S
C907 C912 1.490 . S
C908 H898 0.930 . S
C908 C907 1.400 . S
C908 C911 1.386 . S
H909 C925 0.930 . S
H910 C926 0.931 . S
C911 H899 0.929 . S
C911 C905 1.390 . S
C911 C908 1.386 . S
C912 C907 1.490 . S
C912 C914 1.395 . S
C912 C915 1.403 . S
H913 C919 0.930 . S
C914 H900 0.930 . S
C914 C912 1.395 . S
C914 C917 1.403 1_556 S
C915 C912 1.403 . S
C915 C916 1.524 . S
C915 C919 1.400 1_556 S
C916 H901 0.960 . S
C916 H902 0.960 . S
C916 H903 0.960 . S
C916 C915 1.524 . S
C917 C914 1.403 1_554 S
C917 C918 1.392 . S
C917 C921 1.495 . S
C918 C917 1.392 . S
C918 C919 1.385 . S
C918 C920 1.478 . S
C919 H913 0.930 . S
C919 C915 1.400 1_554 S
C919 C918 1.385 . S
C920 C918 1.478 . S
C920 C922 1.381 . S
C920 C926 1.383 . S
C921 C917 1.495 . S
C921 H927 0.959 . S
C921 H928 0.961 . S
C921 H929 0.960 . S
C922 C920 1.381 . S
C922 C923 1.394 . S
C922 H930 0.930 . S
C923 C922 1.394 . S
C923 C924 1.383 . S
C923 H931 0.929 . S
C924 C923 1.383 . S
C924 C925 1.377 . S
C925 H909 0.930 . S
C925 C924 1.377 . S
C925 C926 1.379 . S
C926 H910 0.931 . S
C926 C920 1.383 . S
C926 C925 1.379 . S
H927 C921 0.959 . S
H928 C921 0.961 . S
H929 C921 0.960 . S
H930 C922 0.930 . S
H931 C923 0.929 . S
H932 C940 0.929 . S
H933 C942 0.930 . S
H934 C944 0.930 . S
H935 C947 0.929 . S
H936 C950 0.930 . S
H937 C952 0.960 . S
H938 C952 0.960 . S
H939 C952 0.960 . S
C940 H932 0.929 . S
C940 C941 1.377 . S
C940 C942 1.384 . S
C941 C940 1.377 . S
C941 C947 1.390 . S
C942 H933 0.930 . S
C942 C940 1.384 . S
C942 C943 1.372 . S
C943 C942 1.372 . S
C943 C944 1.400 . S
C943 C948 1.490 . S
C944 H934 0.930 . S
C944 C943 1.400 . S
C944 C947 1.386 . S
H945 C961 0.930 . S
H946 C962 0.931 . S
C947 H935 0.929 . S
C947 C941 1.390 . S
C947 C944 1.386 . S
C948 C943 1.490 . S
C948 C950 1.395 . S
C948 C951 1.403 . S
H949 C955 0.930 . S
C950 H936 0.930 . S
C950 C948 1.395 . S
C950 C953 1.403 1_556 S
C951 C948 1.403 . S
C951 C952 1.524 . S
C951 C955 1.400 1_556 S
C952 H937 0.960 . S
C952 H938 0.960 . S
C952 H939 0.960 . S
C952 C951 1.524 . S
C953 C950 1.403 1_554 S
C953 C954 1.392 . S
C953 C957 1.495 . S
C954 C953 1.392 . S
C954 C955 1.385 . S
C954 C956 1.478 . S
C955 H949 0.930 . S
C955 C951 1.400 1_554 S
C955 C954 1.385 . S
C956 C954 1.478 . S
C956 C958 1.381 . S
C956 C962 1.383 . S
C957 C953 1.495 . S
C957 H963 0.959 . S
C957 H964 0.961 . S
C957 H965 0.960 . S
C958 C956 1.381 . S
C958 C959 1.394 . S
C958 H966 0.930 . S
C959 C958 1.394 . S
C959 C960 1.383 . S
C959 H967 0.929 . S
C960 C959 1.383 . S
C960 C961 1.377 . S
C961 H945 0.930 . S
C961 C960 1.377 . S
C961 C962 1.379 . S
C962 H946 0.931 . S
C962 C956 1.383 . S
C962 C961 1.379 . S
H963 C957 0.959 . S
H964 C957 0.961 . S
H965 C957 0.960 . S
H966 C958 0.930 . S
H967 C959 0.929 . S
H968 C976 0.929 . S
H969 C978 0.930 . S
H970 C980 0.930 . S
H971 C983 0.929 . S
H972 C986 0.930 . S
H973 C988 0.960 . S
H974 C988 0.960 . S
H975 C988 0.960 . S
C976 H968 0.929 . S
C976 C977 1.377 . S
C976 C978 1.384 . S
C977 C976 1.377 . S
C977 C983 1.390 . S
C978 H969 0.930 . S
C978 C976 1.384 . S
C978 C979 1.372 . S
C979 C978 1.372 . S
C979 C980 1.400 . S
C979 C984 1.490 . S
C980 H970 0.930 . S
C980 C979 1.400 . S
C980 C983 1.386 . S
H981 C997 0.930 . S
H982 C998 0.931 . S
C983 H971 0.929 . S
C983 C977 1.390 . S
C983 C980 1.386 . S
C984 C979 1.490 . S
C984 C986 1.395 . S
C984 C987 1.403 . S
H985 C991 0.930 . S
C986 H972 0.930 . S
C986 C984 1.395 . S
C986 C989 1.403 . S
C987 C984 1.403 . S
C987 C988 1.524 . S
C987 C991 1.400 . S
C988 H973 0.960 . S
C988 H974 0.960 . S
C988 H975 0.960 . S
C988 C987 1.524 . S
C989 C986 1.403 . S
C989 C990 1.392 . S
C989 C993 1.495 . S
C990 C989 1.392 . S
C990 C991 1.385 . S
C990 C992 1.478 . S
C991 H985 0.930 . S
C991 C987 1.400 . S
C991 C990 1.385 . S
C992 C990 1.478 . S
C992 C994 1.381 . S
C992 C998 1.383 . S
C993 C989 1.495 . S
C993 H999 0.959 . S
C993 H1000 0.961 . S
C993 H1001 0.960 . S
C994 C992 1.381 . S
C994 C995 1.394 . S
C994 H1002 0.930 . S
C995 C994 1.394 . S
C995 C996 1.383 . S
C995 H1003 0.929 . S
C996 C995 1.383 . S
C996 C997 1.377 . S
C997 H981 0.930 . S
C997 C996 1.377 . S
C997 C998 1.379 . S
C998 H982 0.931 . S
C998 C992 1.383 . S
C998 C997 1.379 . S
H999 C993 0.959 . S
H1000 C993 0.961 . S
H1001 C993 0.960 . S
H1002 C994 0.930 . S
H1003 C995 0.929 . S
H1004 C1012 0.929 . S
H1005 C1014 0.930 . S
H1006 C1016 0.930 . S
H1007 C1019 0.929 . S
H1008 C1022 0.930 . S
H1009 C1024 0.960 . S
H1010 C1024 0.960 . S
H1011 C1024 0.960 . S
C1012 H1004 0.929 . S
C1012 C1013 1.377 . S
C1012 C1014 1.384 . S
C1013 C1012 1.377 . S
C1013 C1019 1.390 . S
C1014 H1005 0.930 . S
C1014 C1012 1.384 . S
C1014 C1015 1.372 . S
C1015 C1014 1.372 . S
C1015 C1016 1.400 . S
C1015 C1020 1.490 . S
C1016 H1006 0.930 . S
C1016 C1015 1.400 . S
C1016 C1019 1.386 . S
H1017 C1033 0.930 . S
H1018 C1034 0.931 . S
C1019 H1007 0.929 . S
C1019 C1013 1.390 . S
C1019 C1016 1.386 . S
C1020 C1015 1.490 . S
C1020 C1022 1.395 . S
C1020 C1023 1.403 . S
H1021 C1027 0.930 . S
C1022 H1008 0.930 . S
C1022 C1020 1.395 . S
C1022 C1025 1.403 . S
C1023 C1020 1.403 . S
C1023 C1024 1.524 . S
C1023 C1027 1.400 . S
C1024 H1009 0.960 . S
C1024 H1010 0.960 . S
C1024 H1011 0.960 . S
C1024 C1023 1.524 . S
C1025 C1022 1.403 . S
C1025 C1026 1.392 . S
C1025 C1029 1.495 . S
C1026 C1025 1.392 . S
C1026 C1027 1.385 . S
C1026 C1028 1.478 . S
C1027 H1021 0.930 . S
C1027 C1023 1.400 . S
C1027 C1026 1.385 . S
C1028 C1026 1.478 . S
C1028 C1030 1.381 . S
C1028 C1034 1.383 . S
C1029 C1025 1.495 . S
C1029 H1035 0.959 . S
C1029 H1036 0.961 . S
C1029 H1037 0.960 . S
C1030 C1028 1.381 . S
C1030 C1031 1.394 . S
C1030 H1038 0.930 . S
C1031 C1030 1.394 . S
C1031 C1032 1.383 . S
C1031 H1039 0.929 . S
C1032 C1031 1.383 . S
C1032 C1033 1.377 . S
C1033 H1017 0.930 . S
C1033 C1032 1.377 . S
C1033 C1034 1.379 . S
C1034 H1018 0.931 . S
C1034 C1028 1.383 . S
C1034 C1033 1.379 . S
H1035 C1029 0.959 . S
H1036 C1029 0.961 . S
H1037 C1029 0.960 . S
H1038 C1030 0.930 . S
H1039 C1031 0.929 . S
H1040 C1048 0.929 . S
H1041 C1050 0.930 . S
H1042 C1052 0.930 . S
H1043 C1055 0.929 . S
H1044 C1058 0.930 . S
H1045 C1060 0.960 . S
H1046 C1060 0.960 . S
H1047 C1060 0.960 . S
C1048 H1040 0.929 . S
C1048 C1049 1.377 . S
C1048 C1050 1.384 . S
C1049 C1048 1.377 . S
C1049 C1055 1.390 . S
C1050 H1041 0.930 . S
C1050 C1048 1.384 . S
C1050 C1051 1.372 . S
C1051 C1050 1.372 . S
C1051 C1052 1.400 . S
C1051 C1056 1.490 . S
C1052 H1042 0.930 . S
C1052 C1051 1.400 . S
C1052 C1055 1.386 . S
H1053 C1069 0.930 . S
H1054 C1070 0.931 . S
C1055 H1043 0.929 . S
C1055 C1049 1.390 . S
C1055 C1052 1.386 . S
C1056 C1051 1.490 . S
C1056 C1058 1.395 . S
C1056 C1059 1.403 . S
H1057 C1063 0.930 . S
C1058 H1044 0.930 . S
C1058 C1056 1.395 . S
C1058 C1061 1.403 1_554 S
C1059 C1056 1.403 . S
C1059 C1060 1.524 . S
C1059 C1063 1.400 1_554 S
C1060 H1045 0.960 . S
C1060 H1046 0.960 . S
C1060 H1047 0.960 . S
C1060 C1059 1.524 . S
C1061 C1058 1.403 1_556 S
C1061 C1062 1.392 . S
C1061 C1065 1.495 . S
C1062 C1061 1.392 . S
C1062 C1063 1.385 . S
C1062 C1064 1.478 . S
C1063 H1057 0.930 . S
C1063 C1059 1.400 1_556 S
C1063 C1062 1.385 . S
C1064 C1062 1.478 . S
C1064 C1066 1.381 . S
C1064 C1070 1.383 . S
C1065 C1061 1.495 . S
C1065 H1071 0.959 . S
C1065 H1072 0.961 . S
C1065 H1073 0.960 . S
C1066 C1064 1.381 . S
C1066 C1067 1.394 . S
C1066 H1074 0.930 . S
C1067 C1066 1.394 . S
C1067 C1068 1.383 . S
C1067 H1075 0.929 . S
C1068 C1067 1.383 . S
C1068 C1069 1.377 . S
C1069 H1053 0.930 . S
C1069 C1068 1.377 . S
C1069 C1070 1.379 . S
C1070 H1054 0.931 . S
C1070 C1064 1.383 . S
C1070 C1069 1.379 . S
H1071 C1065 0.959 . S
H1072 C1065 0.961 . S
H1073 C1065 0.960 . S
H1074 C1066 0.930 . S
H1075 C1067 0.929 . S
H1076 C1084 0.929 . S
H1077 C1086 0.930 . S
H1078 C1088 0.930 . S
H1079 C1091 0.929 . S
H1080 C1094 0.930 . S
H1081 C1096 0.960 . S
H1082 C1096 0.960 . S
H1083 C1096 0.960 . S
C1084 H1076 0.929 . S
C1084 C1085 1.377 . S
C1084 C1086 1.384 . S
C1085 C1084 1.377 . S
C1085 C1091 1.390 . S
C1086 H1077 0.930 . S
C1086 C1084 1.384 . S
C1086 C1087 1.372 . S
C1087 C1086 1.372 . S
C1087 C1088 1.400 . S
C1087 C1092 1.490 . S
C1088 H1078 0.930 . S
C1088 C1087 1.400 . S
C1088 C1091 1.386 . S
H1089 C1105 0.930 . S
H1090 C1106 0.931 . S
C1091 H1079 0.929 . S
C1091 C1085 1.390 . S
C1091 C1088 1.386 . S
C1092 C1087 1.490 . S
C1092 C1094 1.395 . S
C1092 C1095 1.403 . S
H1093 C1099 0.930 . S
C1094 H1080 0.930 . S
C1094 C1092 1.395 . S
C1094 C1097 1.403 1_556 S
C1095 C1092 1.403 . S
C1095 C1096 1.524 . S
C1095 C1099 1.400 1_556 S
C1096 H1081 0.960 . S
C1096 H1082 0.960 . S
C1096 H1083 0.960 . S
C1096 C1095 1.524 . S
C1097 C1094 1.403 1_554 S
C1097 C1098 1.392 . S
C1097 C1101 1.495 . S
C1098 C1097 1.392 . S
C1098 C1099 1.385 . S
C1098 C1100 1.478 . S
C1099 H1093 0.930 . S
C1099 C1095 1.400 1_554 S
C1099 C1098 1.385 . S
C1100 C1098 1.478 . S
C1100 C1102 1.381 . S
C1100 C1106 1.383 . S
C1101 C1097 1.495 . S
C1101 H1107 0.959 . S
C1101 H1108 0.961 . S
C1101 H1109 0.960 . S
C1102 C1100 1.381 . S
C1102 C1103 1.394 . S
C1102 H1110 0.930 . S
C1103 C1102 1.394 . S
C1103 C1104 1.383 . S
C1103 H1111 0.929 . S
C1104 C1103 1.383 . S
C1104 C1105 1.377 . S
C1105 H1089 0.930 . S
C1105 C1104 1.377 . S
C1105 C1106 1.379 . S
C1106 H1090 0.931 . S
C1106 C1100 1.383 . S
C1106 C1105 1.379 . S
H1107 C1101 0.959 . S
H1108 C1101 0.961 . S
H1109 C1101 0.960 . S
H1110 C1102 0.930 . S
H1111 C1103 0.929 . S
H1112 C1120 0.929 . S
H1113 C1122 0.930 . S
H1114 C1124 0.930 . S
H1115 C1127 0.929 . S
H1116 C1130 0.930 . S
H1117 C1132 0.960 . S
H1118 C1132 0.960 . S
H1119 C1132 0.960 . S
C1120 H1112 0.929 . S
C1120 C1121 1.377 . S
C1120 C1122 1.384 . S
C1121 C1120 1.377 . S
C1121 C1127 1.390 . S
C1122 H1113 0.930 . S
C1122 C1120 1.384 . S
C1122 C1123 1.372 . S
C1123 C1122 1.372 . S
C1123 C1124 1.400 . S
C1123 C1128 1.490 . S
C1124 H1114 0.930 . S
C1124 C1123 1.400 . S
C1124 C1127 1.386 . S
H1125 C1141 0.930 . S
H1126 C1142 0.931 . S
C1127 H1115 0.929 . S
C1127 C1121 1.390 . S
C1127 C1124 1.386 . S
C1128 C1123 1.490 . S
C1128 C1130 1.395 . S
C1128 C1131 1.403 . S
H1129 C1135 0.930 . S
C1130 H1116 0.930 . S
C1130 C1128 1.395 . S
C1130 C1133 1.403 . S
C1131 C1128 1.403 . S
C1131 C1132 1.524 . S
C1131 C1135 1.400 . S
C1132 H1117 0.960 . S
C1132 H1118 0.960 . S
C1132 H1119 0.960 . S
C1132 C1131 1.524 . S
C1133 C1130 1.403 . S
C1133 C1134 1.392 . S
C1133 C1137 1.495 . S
C1134 C1133 1.392 . S
C1134 C1135 1.385 . S
C1134 C1136 1.478 . S
C1135 H1129 0.930 . S
C1135 C1131 1.400 . S
C1135 C1134 1.385 . S
C1136 C1134 1.478 . S
C1136 C1138 1.381 . S
C1136 C1142 1.383 . S
C1137 C1133 1.495 . S
C1137 H1143 0.959 . S
C1137 H1144 0.961 . S
C1137 H1145 0.960 . S
C1138 C1136 1.381 . S
C1138 C1139 1.394 . S
C1138 H1146 0.930 . S
C1139 C1138 1.394 . S
C1139 C1140 1.383 . S
C1139 H1147 0.929 . S
C1140 C1139 1.383 . S
C1140 C1141 1.377 . S
C1141 H1125 0.930 . S
C1141 C1140 1.377 . S
C1141 C1142 1.379 . S
C1142 H1126 0.931 . S
C1142 C1136 1.383 . S
C1142 C1141 1.379 . S
H1143 C1137 0.959 . S
H1144 C1137 0.961 . S
H1145 C1137 0.960 . S
H1146 C1138 0.930 . S
H1147 C1139 0.929 . S
H1148 C1156 0.929 . S
H1149 C1158 0.930 . S
H1150 C1160 0.930 . S
H1151 C1163 0.929 . S
H1152 C1166 0.930 . S
H1153 C1168 0.960 . S
H1154 C1168 0.960 . S
H1155 C1168 0.960 . S
C1156 H1148 0.929 . S
C1156 C1157 1.377 . S
C1156 C1158 1.384 . S
C1157 C1156 1.377 . S
C1157 C1163 1.390 . S
C1158 H1149 0.930 . S
C1158 C1156 1.384 . S
C1158 C1159 1.372 . S
C1159 C1158 1.372 . S
C1159 C1160 1.400 . S
C1159 C1164 1.490 . S
C1160 H1150 0.930 . S
C1160 C1159 1.400 . S
C1160 C1163 1.386 . S
H1161 C1177 0.930 . S
H1162 C1178 0.931 . S
C1163 H1151 0.929 . S
C1163 C1157 1.390 . S
C1163 C1160 1.386 . S
C1164 C1159 1.490 . S
C1164 C1166 1.395 . S
C1164 C1167 1.403 . S
H1165 C1171 0.930 . S
C1166 H1152 0.930 . S
C1166 C1164 1.395 . S
C1166 C1169 1.403 . S
C1167 C1164 1.403 . S
C1167 C1168 1.524 . S
C1167 C1171 1.400 . S
C1168 H1153 0.960 . S
C1168 H1154 0.960 . S
C1168 H1155 0.960 . S
C1168 C1167 1.524 . S
C1169 C1166 1.403 . S
C1169 C1170 1.392 . S
C1169 C1173 1.495 . S
C1170 C1169 1.392 . S
C1170 C1171 1.385 . S
C1170 C1172 1.478 . S
C1171 H1165 0.930 . S
C1171 C1167 1.400 . S
C1171 C1170 1.385 . S
C1172 C1170 1.478 . S
C1172 C1174 1.381 . S
C1172 C1178 1.383 . S
C1173 C1169 1.495 . S
C1173 H1179 0.959 . S
C1173 H1180 0.961 . S
C1173 H1181 0.960 . S
C1174 C1172 1.381 . S
C1174 C1175 1.394 . S
C1174 H1182 0.930 . S
C1175 C1174 1.394 . S
C1175 C1176 1.383 . S
C1175 H1183 0.929 . S
C1176 C1175 1.383 . S
C1176 C1177 1.377 . S
C1177 H1161 0.930 . S
C1177 C1176 1.377 . S
C1177 C1178 1.379 . S
C1178 H1162 0.931 . S
C1178 C1172 1.383 . S
C1178 C1177 1.379 . S
H1179 C1173 0.959 . S
H1180 C1173 0.961 . S
H1181 C1173 0.960 . S
H1182 C1174 0.930 . S
H1183 C1175 0.929 . S
H1184 C1192 0.926 1_545 S
H1185 C1194 0.927 1_545 S
H1186 C1196 0.930 . S
H1187 C1199 0.929 . S
H1188 C1202 0.930 . S
H1189 C1204 0.960 . S
H1190 C1204 0.960 . S
H1191 C1204 0.960 . S
C1192 H1184 0.926 1_565 S
C1192 C1193 1.377 . S
C1192 C1194 1.385 . S
C1193 C1192 1.377 . S
C1193 C1199 1.390 . S
C1194 H1185 0.927 1_565 S
C1194 C1192 1.385 . S
C1194 C1195 1.374 . S
C1195 C1194 1.374 . S
C1195 C1196 1.400 . S
C1195 C1200 1.490 . S
C1196 H1186 0.930 . S
C1196 C1195 1.400 . S
C1196 C1199 1.386 . S
H1197 C1213 0.930 . S
H1198 C1214 0.931 . S
C1199 H1187 0.929 . S
C1199 C1193 1.390 . S
C1199 C1196 1.386 . S
C1200 C1195 1.490 . S
C1200 C1202 1.395 1_565 S
C1200 C1203 1.403 . S
H1201 C1207 0.930 . S
C1202 H1188 0.930 . S
C1202 C1200 1.395 1_545 S
C1202 C1205 1.403 1_655 S
C1203 C1200 1.403 . S
C1203 C1204 1.524 . S
C1203 C1207 1.400 1_655 S
C1204 H1189 0.960 . S
C1204 H1190 0.960 . S
C1204 H1191 0.960 . S
C1204 C1203 1.524 . S
C1205 C1202 1.403 1_455 S
C1205 C1206 1.392 . S
C1205 C1209 1.495 . S
C1206 C1205 1.392 . S
C1206 C1207 1.385 1_545 S
C1206 C1208 1.478 . S
C1207 H1201 0.930 . S
C1207 C1203 1.400 1_455 S
C1207 C1206 1.385 1_565 S
C1208 C1206 1.478 . S
C1208 C1210 1.381 . S
C1208 C1214 1.383 . S
C1209 C1205 1.495 . S
C1209 H1215 0.959 . S
C1209 H1216 0.961 . S
C1209 H1217 0.960 . S
C1210 C1208 1.381 . S
C1210 C1211 1.394 . S
C1210 H1218 0.930 . S
C1211 C1210 1.394 . S
C1211 C1212 1.383 . S
C1211 H1219 0.929 . S
C1212 C1211 1.383 . S
C1212 C1213 1.377 . S
C1213 H1197 0.930 . S
C1213 C1212 1.377 . S
C1213 C1214 1.379 . S
C1214 H1198 0.931 . S
C1214 C1208 1.383 . S
C1214 C1213 1.379 . S
H1215 C1209 0.959 . S
H1216 C1209 0.961 . S
H1217 C1209 0.960 . S
H1218 C1210 0.930 . S
H1219 C1211 0.929 . S
H1220 C1228 0.929 . S
H1221 C1230 0.930 . S
H1222 C1232 0.930 . S
H1223 C1235 0.929 . S
H1224 C1238 0.930 . S
H1225 C1240 0.960 . S
H1226 C1240 0.960 1_545 S
H1227 C1240 0.960 . S
C1228 H1220 0.929 . S
C1228 C1229 1.377 . S
C1228 C1230 1.384 . S
C1229 C1228 1.377 . S
C1229 C1235 1.390 1_545 S
C1230 H1221 0.930 . S
C1230 C1228 1.384 . S
C1230 C1231 1.372 . S
C1231 C1230 1.372 . S
C1231 C1232 1.400 1_545 S
C1231 C1236 1.490 . S
C1232 H1222 0.930 . S
C1232 C1231 1.400 1_565 S
C1232 C1235 1.386 . S
H1233 C1249 0.930 . S
H1234 C1250 0.931 . S
C1235 H1223 0.929 . S
C1235 C1229 1.390 1_565 S
C1235 C1232 1.386 . S
C1236 C1231 1.490 . S
C1236 C1238 1.395 . S
C1236 C1239 1.403 1_545 S
H1237 C1243 0.930 . S
C1238 H1224 0.930 . S
C1238 C1236 1.395 . S
C1238 C1241 1.403 1_655 S
C1239 C1236 1.403 1_565 S
C1239 C1240 1.524 . S
C1239 C1243 1.400 1_655 S
C1240 H1225 0.960 . S
C1240 H1226 0.960 1_565 S
C1240 H1227 0.960 . S
C1240 C1239 1.524 . S
C1241 C1238 1.403 1_455 S
C1241 C1242 1.392 1_545 S
C1241 C1245 1.495 . S
C1242 C1241 1.392 1_565 S
C1242 C1243 1.385 . S
C1242 C1244 1.478 . S
C1243 H1237 0.930 . S
C1243 C1239 1.400 1_455 S
C1243 C1242 1.385 . S
C1244 C1242 1.478 . S
C1244 C1246 1.381 1_565 S
C1244 C1250 1.383 . S
C1245 C1241 1.495 . S
C1245 H1251 0.959 . S
C1245 H1252 0.961 . S
C1245 H1253 0.960 . S
C1246 C1244 1.381 1_545 S
C1246 C1247 1.394 . S
C1246 H1254 0.930 . S
C1247 C1246 1.394 . S
C1247 C1248 1.383 1_545 S
C1247 H1255 0.929 . S
C1248 C1247 1.383 1_565 S
C1248 C1249 1.377 . S
C1249 H1233 0.930 . S
C1249 C1248 1.377 . S
C1249 C1250 1.379 . S
C1250 H1234 0.931 . S
C1250 C1244 1.383 . S
C1250 C1249 1.379 . S
H1251 C1245 0.959 . S
H1252 C1245 0.961 . S
H1253 C1245 0.960 . S
H1254 C1246 0.930 . S
H1255 C1247 0.929 . S
H1256 C1264 0.929 . S
H1257 C1266 0.930 . S
H1258 C1268 0.930 . S
H1259 C1271 0.929 . S
H1260 C1274 0.930 . S
H1261 C1276 0.960 . S
H1262 C1276 0.960 . S
H1263 C1276 0.960 . S
C1264 H1256 0.929 . S
C1264 C1265 1.377 . S
C1264 C1266 1.384 . S
C1265 C1264 1.377 . S
C1265 C1271 1.390 . S
C1266 H1257 0.930 . S
C1266 C1264 1.384 . S
C1266 C1267 1.372 . S
C1267 C1266 1.372 . S
C1267 C1268 1.400 . S
C1267 C1272 1.490 . S
C1268 H1258 0.930 . S
C1268 C1267 1.400 . S
C1268 C1271 1.386 . S
H1269 C1285 0.930 . S
H1270 C1286 0.931 . S
C1271 H1259 0.929 . S
C1271 C1265 1.390 . S
C1271 C1268 1.386 . S
C1272 C1267 1.490 . S
C1272 C1274 1.395 . S
C1272 C1275 1.403 1_545 S
H1273 C1279 0.930 . S
C1274 H1260 0.930 . S
C1274 C1272 1.395 . S
C1274 C1277 1.403 1_455 S
C1275 C1272 1.403 1_565 S
C1275 C1276 1.524 . S
C1275 C1279 1.400 1_455 S
C1276 H1261 0.960 . S
C1276 H1262 0.960 . S
C1276 H1263 0.960 . S
C1276 C1275 1.524 . S
C1277 C1274 1.403 1_655 S
C1277 C1278 1.392 . S
C1277 C1281 1.495 . S
C1278 C1277 1.392 . S
C1278 C1279 1.385 1_545 S
C1278 C1280 1.478 1_545 S
C1279 H1273 0.930 . S
C1279 C1275 1.400 1_655 S
C1279 C1278 1.385 1_565 S
C1280 C1278 1.478 1_565 S
C1280 C1282 1.381 . S
C1280 C1286 1.383 . S
C1281 C1277 1.495 . S
C1281 H1287 0.959 . S
C1281 H1288 0.961 . S
C1281 H1289 0.960 . S
C1282 C1280 1.381 . S
C1282 C1283 1.394 . S
C1282 H1290 0.930 . S
C1283 C1282 1.394 . S
C1283 C1284 1.383 . S
C1283 H1291 0.929 . S
C1284 C1283 1.383 . S
C1284 C1285 1.377 . S
C1285 H1269 0.930 . S
C1285 C1284 1.377 . S
C1285 C1286 1.379 . S
C1286 H1270 0.931 . S
C1286 C1280 1.383 . S
C1286 C1285 1.379 . S
H1287 C1281 0.959 . S
H1288 C1281 0.961 . S
H1289 C1281 0.960 . S
H1290 C1282 0.930 . S
H1291 C1283 0.929 . S
H1292 C1300 0.929 . S
H1293 C1302 0.930 . S
H1294 C1304 0.930 . S
H1295 C1307 0.929 . S
H1296 C1310 0.930 . S
H1297 C1312 0.960 . S
H1298 C1312 0.960 . S
H1299 C1312 0.960 . S
C1300 H1292 0.929 . S
C1300 C1301 1.377 . S
C1300 C1302 1.384 . S
C1301 C1300 1.377 . S
C1301 C1307 1.390 1_545 S
C1302 H1293 0.930 . S
C1302 C1300 1.384 . S
C1302 C1303 1.372 . S
C1303 C1302 1.372 . S
C1303 C1304 1.400 1_545 S
C1303 C1308 1.490 . S
C1304 H1294 0.930 . S
C1304 C1303 1.400 1_565 S
C1304 C1307 1.386 . S
H1305 C1321 0.930 . S
H1306 C1322 0.931 . S
C1307 H1295 0.929 . S
C1307 C1301 1.390 1_565 S
C1307 C1304 1.386 . S
C1308 C1303 1.490 . S
C1308 C1310 1.395 1_545 S
C1308 C1311 1.403 . S
H1309 C1315 0.930 . S
C1310 H1296 0.930 . S
C1310 C1308 1.395 1_565 S
C1310 C1313 1.403 1_655 S
C1311 C1308 1.403 . S
C1311 C1312 1.524 . S
C1311 C1315 1.400 1_655 S
C1312 H1297 0.960 . S
C1312 H1298 0.960 . S
C1312 H1299 0.960 . S
C1312 C1311 1.524 . S
C1313 C1310 1.403 1_455 S
C1313 C1314 1.392 . S
C1313 C1317 1.495 . S
C1314 C1313 1.392 . S
C1314 C1315 1.385 1_565 S
C1314 C1316 1.478 . S
C1315 H1309 0.930 . S
C1315 C1311 1.400 1_455 S
C1315 C1314 1.385 1_545 S
C1316 C1314 1.478 . S
C1316 C1318 1.381 1_565 S
C1316 C1322 1.383 . S
C1317 C1313 1.495 . S
C1317 H1323 0.959 . S
C1317 H1324 0.961 . S
C1317 H1325 0.960 1_565 S
C1318 C1316 1.381 1_545 S
C1318 C1319 1.394 . S
C1318 H1326 0.930 . S
C1319 C1318 1.394 . S
C1319 C1320 1.383 1_545 S
C1319 H1327 0.929 . S
C1320 C1319 1.383 1_565 S
C1320 C1321 1.377 . S
C1321 H1305 0.930 . S
C1321 C1320 1.377 . S
C1321 C1322 1.379 . S
C1322 H1306 0.931 . S
C1322 C1316 1.383 . S
C1322 C1321 1.379 . S
H1323 C1317 0.959 . S
H1324 C1317 0.961 . S
H1325 C1317 0.960 1_545 S
H1326 C1318 0.930 . S
H1327 C1319 0.929 . S
H1328 C1336 0.929 . S
H1329 C1338 0.930 . S
H1330 C1340 0.930 . S
H1331 C1343 0.929 . S
H1332 C1346 0.930 . S
H1333 C1348 0.960 . S
H1334 C1348 0.960 . S
H1335 C1348 0.960 . S
C1336 H1328 0.929 . S
C1336 C1337 1.377 . S
C1336 C1338 1.384 . S
C1337 C1336 1.377 . S
C1337 C1343 1.390 . S
C1338 H1329 0.930 . S
C1338 C1336 1.384 . S
C1338 C1339 1.372 . S
C1339 C1338 1.372 . S
C1339 C1340 1.400 . S
C1339 C1344 1.490 . S
C1340 H1330 0.930 . S
C1340 C1339 1.400 . S
C1340 C1343 1.386 . S
H1341 C1357 0.930 . S
H1342 C1358 0.931 . S
C1343 H1331 0.929 . S
C1343 C1337 1.390 . S
C1343 C1340 1.386 . S
C1344 C1339 1.490 . S
C1344 C1346 1.395 . S
C1344 C1347 1.403 . S
H1345 C1351 0.930 . S
C1346 H1332 0.930 . S
C1346 C1344 1.395 . S
C1346 C1349 1.403 . S
C1347 C1344 1.403 . S
C1347 C1348 1.524 . S
C1347 C1351 1.400 . S
C1348 H1333 0.960 . S
C1348 H1334 0.960 . S
C1348 H1335 0.960 . S
C1348 C1347 1.524 . S
C1349 C1346 1.403 . S
C1349 C1350 1.392 . S
C1349 C1353 1.495 . S
C1350 C1349 1.392 . S
C1350 C1351 1.385 . S
C1350 C1352 1.478 . S
C1351 H1345 0.930 . S
C1351 C1347 1.400 . S
C1351 C1350 1.385 . S
C1352 C1350 1.478 . S
C1352 C1354 1.381 . S
C1352 C1358 1.383 . S
C1353 C1349 1.495 . S
C1353 H1359 0.959 . S
C1353 H1360 0.961 . S
C1353 H1361 0.960 . S
C1354 C1352 1.381 . S
C1354 C1355 1.394 . S
C1354 H1362 0.930 . S
C1355 C1354 1.394 . S
C1355 C1356 1.383 . S
C1355 H1363 0.929 . S
C1356 C1355 1.383 . S
C1356 C1357 1.377 . S
C1357 H1341 0.930 . S
C1357 C1356 1.377 . S
C1357 C1358 1.379 . S
C1358 H1342 0.931 . S
C1358 C1352 1.383 . S
C1358 C1357 1.379 . S
H1359 C1353 0.959 . S
H1360 C1353 0.961 . S
H1361 C1353 0.960 . S
H1362 C1354 0.930 . S
H1363 C1355 0.929 . S
H1364 C1372 0.929 . S
H1365 C1374 0.930 . S
H1366 C1376 0.930 . S
H1367 C1379 0.929 . S
H1368 C1382 0.930 . S
H1369 C1384 0.960 . S
H1370 C1384 0.960 . S
H1371 C1384 0.960 . S
C1372 H1364 0.929 . S
C1372 C1373 1.377 . S
C1372 C1374 1.384 . S
C1373 C1372 1.377 . S
C1373 C1379 1.390 . S
C1374 H1365 0.930 . S
C1374 C1372 1.384 . S
C1374 C1375 1.372 . S
C1375 C1374 1.372 . S
C1375 C1376 1.400 . S
C1375 C1380 1.490 . S
C1376 H1366 0.930 . S
C1376 C1375 1.400 . S
C1376 C1379 1.386 . S
H1377 C1393 0.930 . S
H1378 C1394 0.931 . S
C1379 H1367 0.929 . S
C1379 C1373 1.390 . S
C1379 C1376 1.386 . S
C1380 C1375 1.490 . S
C1380 C1382 1.395 . S
C1380 C1383 1.403 . S
H1381 C1387 0.930 . S
C1382 H1368 0.930 . S
C1382 C1380 1.395 . S
C1382 C1385 1.403 . S
C1383 C1380 1.403 . S
C1383 C1384 1.524 . S
C1383 C1387 1.400 . S
C1384 H1369 0.960 . S
C1384 H1370 0.960 . S
C1384 H1371 0.960 . S
C1384 C1383 1.524 . S
C1385 C1382 1.403 . S
C1385 C1386 1.392 . S
C1385 C1389 1.495 . S
C1386 C1385 1.392 . S
C1386 C1387 1.385 . S
C1386 C1388 1.478 . S
C1387 H1381 0.930 . S
C1387 C1383 1.400 . S
C1387 C1386 1.385 . S
C1388 C1386 1.478 . S
C1388 C1390 1.381 . S
C1388 C1394 1.383 . S
C1389 C1385 1.495 . S
C1389 H1395 0.959 . S
C1389 H1396 0.961 . S
C1389 H1397 0.960 . S
C1390 C1388 1.381 . S
C1390 C1391 1.394 . S
C1390 H1398 0.930 . S
C1391 C1390 1.394 . S
C1391 C1392 1.383 . S
C1391 H1399 0.929 . S
C1392 C1391 1.383 . S
C1392 C1393 1.377 . S
C1393 H1377 0.930 . S
C1393 C1392 1.377 . S
C1393 C1394 1.379 . S
C1394 H1378 0.931 . S
C1394 C1388 1.383 . S
C1394 C1393 1.379 . S
H1395 C1389 0.959 . S
H1396 C1389 0.961 . S
H1397 C1389 0.960 . S
H1398 C1390 0.930 . S
H1399 C1391 0.929 . S
H1400 C1408 0.929 . S
H1401 C1410 0.930 . S
H1402 C1412 0.930 . S
H1403 C1415 0.929 . S
H1404 C1418 0.930 . S
H1405 C1420 0.960 . S
H1406 C1420 0.960 . S
H1407 C1420 0.960 . S
C1408 H1400 0.929 . S
C1408 C1409 1.377 . S
C1408 C1410 1.384 . S
C1409 C1408 1.377 . S
C1409 C1415 1.390 . S
C1410 H1401 0.930 . S
C1410 C1408 1.384 . S
C1410 C1411 1.372 . S
C1411 C1410 1.372 . S
C1411 C1412 1.400 . S
C1411 C1416 1.490 . S
C1412 H1402 0.930 . S
C1412 C1411 1.400 . S
C1412 C1415 1.386 . S
H1413 C1429 0.930 . S
H1414 C1430 0.931 . S
C1415 H1403 0.929 . S
C1415 C1409 1.390 . S
C1415 C1412 1.386 . S
C1416 C1411 1.490 . S
C1416 C1418 1.395 . S
C1416 C1419 1.403 . S
H1417 C1423 0.930 . S
C1418 H1404 0.930 . S
C1418 C1416 1.395 . S
C1418 C1421 1.403 . S
C1419 C1416 1.403 . S
C1419 C1420 1.524 . S
C1419 C1423 1.400 . S
C1420 H1405 0.960 . S
C1420 H1406 0.960 . S
C1420 H1407 0.960 . S
C1420 C1419 1.524 . S
C1421 C1418 1.403 . S
C1421 C1422 1.392 . S
C1421 C1425 1.495 . S
C1422 C1421 1.392 . S
C1422 C1423 1.385 . S
C1422 C1424 1.478 . S
C1423 H1417 0.930 . S
C1423 C1419 1.400 . S
C1423 C1422 1.385 . S
C1424 C1422 1.478 . S
C1424 C1426 1.381 . S
C1424 C1430 1.383 . S
C1425 C1421 1.495 . S
C1425 H1431 0.959 . S
C1425 H1432 0.961 . S
C1425 H1433 0.960 . S
C1426 C1424 1.381 . S
C1426 C1427 1.394 . S
C1426 H1434 0.930 . S
C1427 C1426 1.394 . S
C1427 C1428 1.383 . S
C1427 H1435 0.929 . S
C1428 C1427 1.383 . S
C1428 C1429 1.377 . S
C1429 H1413 0.930 . S
C1429 C1428 1.377 . S
C1429 C1430 1.379 . S
C1430 H1414 0.931 . S
C1430 C1424 1.383 . S
C1430 C1429 1.379 . S
H1431 C1425 0.959 . S
H1432 C1425 0.961 . S
H1433 C1425 0.960 . S
H1434 C1426 0.930 . S
H1435 C1427 0.929 . S
H1436 C1444 0.929 . S
H1437 C1446 0.930 . S
H1438 C1448 0.930 . S
H1439 C1451 0.929 . S
H1440 C1454 0.930 . S
H1441 C1456 0.960 . S
H1442 C1456 0.960 . S
H1443 C1456 0.960 . S
C1444 H1436 0.929 . S
C1444 C1445 1.377 . S
C1444 C1446 1.384 . S
C1445 C1444 1.377 . S
C1445 C1451 1.390 . S
C1446 H1437 0.930 . S
C1446 C1444 1.384 . S
C1446 C1447 1.372 . S
C1447 C1446 1.372 . S
C1447 C1448 1.400 . S
C1447 C1452 1.490 . S
C1448 H1438 0.930 . S
C1448 C1447 1.400 . S
C1448 C1451 1.386 . S
H1449 C1465 0.930 . S
H1450 C1466 0.931 . S
C1451 H1439 0.929 . S
C1451 C1445 1.390 . S
C1451 C1448 1.386 . S
C1452 C1447 1.490 . S
C1452 C1454 1.395 . S
C1452 C1455 1.403 . S
H1453 C1459 0.930 . S
C1454 H1440 0.930 . S
C1454 C1452 1.395 . S
C1454 C1457 1.403 . S
C1455 C1452 1.403 . S
C1455 C1456 1.524 . S
C1455 C1459 1.400 . S
C1456 H1441 0.960 . S
C1456 H1442 0.960 . S
C1456 H1443 0.960 . S
C1456 C1455 1.524 . S
C1457 C1454 1.403 . S
C1457 C1458 1.392 . S
C1457 C1461 1.495 . S
C1458 C1457 1.392 . S
C1458 C1459 1.385 . S
C1458 C1460 1.478 . S
C1459 H1453 0.930 . S
C1459 C1455 1.400 . S
C1459 C1458 1.385 . S
C1460 C1458 1.478 . S
C1460 C1462 1.381 . S
C1460 C1466 1.383 . S
C1461 C1457 1.495 . S
C1461 H1467 0.959 . S
C1461 H1468 0.961 . S
C1461 H1469 0.960 . S
C1462 C1460 1.381 . S
C1462 C1463 1.394 . S
C1462 H1470 0.930 . S
C1463 C1462 1.394 . S
C1463 C1464 1.383 . S
C1463 H1471 0.929 . S
C1464 C1463 1.383 . S
C1464 C1465 1.377 . S
C1465 H1449 0.930 . S
C1465 C1464 1.377 . S
C1465 C1466 1.379 . S
C1466 H1450 0.931 . S
C1466 C1460 1.383 . S
C1466 C1465 1.379 . S
H1467 C1461 0.959 . S
H1468 C1461 0.961 . S
H1469 C1461 0.960 . S
H1470 C1462 0.930 . S
H1471 C1463 0.929 . S
H1472 C1480 0.929 . S
H1473 C1482 0.930 . S
H1474 C1484 0.930 . S
H1475 C1487 0.929 . S
H1476 C1490 0.930 . S
H1477 C1492 0.960 . S
H1478 C1492 0.960 . S
H1479 C1492 0.960 . S
C1480 H1472 0.929 . S
C1480 C1481 1.377 . S
C1480 C1482 1.384 . S
C1481 C1480 1.377 . S
C1481 C1487 1.390 . S
C1482 H1473 0.930 . S
C1482 C1480 1.384 . S
C1482 C1483 1.372 . S
C1483 C1482 1.372 . S
C1483 C1484 1.400 . S
C1483 C1488 1.490 . S
C1484 H1474 0.930 . S
C1484 C1483 1.400 . S
C1484 C1487 1.386 . S
H1485 C1501 0.930 . S
H1486 C1502 0.931 . S
C1487 H1475 0.929 . S
C1487 C1481 1.390 . S
C1487 C1484 1.386 . S
C1488 C1483 1.490 . S
C1488 C1490 1.395 . S
C1488 C1491 1.403 . S
H1489 C1495 0.930 . S
C1490 H1476 0.930 . S
C1490 C1488 1.395 . S
C1490 C1493 1.403 . S
C1491 C1488 1.403 . S
C1491 C1492 1.524 . S
C1491 C1495 1.400 . S
C1492 H1477 0.960 . S
C1492 H1478 0.960 . S
C1492 H1479 0.960 . S
C1492 C1491 1.524 . S
C1493 C1490 1.403 . S
C1493 C1494 1.392 . S
C1493 C1497 1.495 . S
C1494 C1493 1.392 . S
C1494 C1495 1.385 . S
C1494 C1496 1.478 . S
C1495 H1489 0.930 . S
C1495 C1491 1.400 . S
C1495 C1494 1.385 . S
C1496 C1494 1.478 . S
C1496 C1498 1.381 . S
C1496 C1502 1.383 . S
C1497 C1493 1.495 . S
C1497 H1503 0.959 . S
C1497 H1504 0.961 . S
C1497 H1505 0.960 . S
C1498 C1496 1.381 . S
C1498 C1499 1.394 . S
C1498 H1506 0.930 . S
C1499 C1498 1.394 . S
C1499 C1500 1.383 . S
C1499 H1507 0.929 . S
C1500 C1499 1.383 . S
C1500 C1501 1.377 . S
C1501 H1485 0.930 . S
C1501 C1500 1.377 . S
C1501 C1502 1.379 . S
C1502 H1486 0.931 . S
C1502 C1496 1.383 . S
C1502 C1501 1.379 . S
H1503 C1497 0.959 . S
H1504 C1497 0.961 . S
H1505 C1497 0.960 . S
H1506 C1498 0.930 . S
H1507 C1499 0.929 . S
H1508 C1516 0.929 . S
H1509 C1518 0.930 . S
H1510 C1520 0.930 . S
H1511 C1523 0.929 . S
H1512 C1526 0.930 . S
H1513 C1528 0.960 . S
H1514 C1528 0.960 . S
H1515 C1528 0.960 . S
C1516 H1508 0.929 . S
C1516 C1517 1.377 . S
C1516 C1518 1.384 . S
C1517 C1516 1.377 . S
C1517 C1523 1.390 . S
C1518 H1509 0.930 . S
C1518 C1516 1.384 . S
C1518 C1519 1.372 . S
C1519 C1518 1.372 . S
C1519 C1520 1.400 . S
C1519 C1524 1.490 . S
C1520 H1510 0.930 . S
C1520 C1519 1.400 . S
C1520 C1523 1.386 . S
H1521 C1537 0.930 . S
H1522 C1538 0.931 . S
C1523 H1511 0.929 . S
C1523 C1517 1.390 . S
C1523 C1520 1.386 . S
C1524 C1519 1.490 . S
C1524 C1526 1.395 . S
C1524 C1527 1.403 . S
H1525 C1531 0.930 . S
C1526 H1512 0.930 . S
C1526 C1524 1.395 . S
C1526 C1529 1.403 . S
C1527 C1524 1.403 . S
C1527 C1528 1.524 . S
C1527 C1531 1.400 . S
C1528 H1513 0.960 . S
C1528 H1514 0.960 . S
C1528 H1515 0.960 . S
C1528 C1527 1.524 . S
C1529 C1526 1.403 . S
C1529 C1530 1.392 . S
C1529 C1533 1.495 . S
C1530 C1529 1.392 . S
C1530 C1531 1.385 . S
C1530 C1532 1.478 . S
C1531 H1525 0.930 . S
C1531 C1527 1.400 . S
C1531 C1530 1.385 . S
C1532 C1530 1.478 . S
C1532 C1534 1.381 . S
C1532 C1538 1.383 . S
C1533 C1529 1.495 . S
C1533 H1539 0.959 . S
C1533 H1540 0.961 . S
C1533 H1541 0.960 . S
C1534 C1532 1.381 . S
C1534 C1535 1.394 . S
C1534 H1542 0.930 . S
C1535 C1534 1.394 . S
C1535 C1536 1.383 . S
C1535 H1543 0.929 . S
C1536 C1535 1.383 . S
C1536 C1537 1.377 . S
C1537 H1521 0.930 . S
C1537 C1536 1.377 . S
C1537 C1538 1.379 . S
C1538 H1522 0.931 . S
C1538 C1532 1.383 . S
C1538 C1537 1.379 . S
H1539 C1533 0.959 . S
H1540 C1533 0.961 . S
H1541 C1533 0.960 . S
H1542 C1534 0.930 . S
H1543 C1535 0.929 . S
H1544 C1552 0.929 . S
H1545 C1554 0.930 . S
H1546 C1556 0.930 . S
H1547 C1559 0.929 . S
H1548 C1562 0.930 . S
H1549 C1564 0.960 . S
H1550 C1564 0.960 . S
H1551 C1564 0.960 . S
C1552 H1544 0.929 . S
C1552 C1553 1.377 . S
C1552 C1554 1.384 . S
C1553 C1552 1.377 . S
C1553 C1559 1.390 . S
C1554 H1545 0.930 . S
C1554 C1552 1.384 . S
C1554 C1555 1.372 . S
C1555 C1554 1.372 . S
C1555 C1556 1.400 . S
C1555 C1560 1.490 . S
C1556 H1546 0.930 . S
C1556 C1555 1.400 . S
C1556 C1559 1.386 . S
H1557 C1573 0.930 . S
H1558 C1574 0.931 . S
C1559 H1547 0.929 . S
C1559 C1553 1.390 . S
C1559 C1556 1.386 . S
C1560 C1555 1.490 . S
C1560 C1562 1.395 . S
C1560 C1563 1.403 . S
H1561 C1567 0.930 . S
C1562 H1548 0.930 . S
C1562 C1560 1.395 . S
C1562 C1565 1.403 . S
C1563 C1560 1.403 . S
C1563 C1564 1.524 . S
C1563 C1567 1.400 . S
C1564 H1549 0.960 . S
C1564 H1550 0.960 . S
C1564 H1551 0.960 . S
C1564 C1563 1.524 . S
C1565 C1562 1.403 . S
C1565 C1566 1.392 . S
C1565 C1569 1.495 . S
C1566 C1565 1.392 . S
C1566 C1567 1.385 . S
C1566 C1568 1.478 . S
C1567 H1561 0.930 . S
C1567 C1563 1.400 . S
C1567 C1566 1.385 . S
C1568 C1566 1.478 . S
C1568 C1570 1.381 . S
C1568 C1574 1.383 . S
C1569 C1565 1.495 . S
C1569 H1575 0.959 . S
C1569 H1576 0.961 . S
C1569 H1577 0.960 . S
C1570 C1568 1.381 . S
C1570 C1571 1.394 . S
C1570 H1578 0.930 . S
C1571 C1570 1.394 . S
C1571 C1572 1.383 . S
C1571 H1579 0.929 . S
C1572 C1571 1.383 . S
C1572 C1573 1.377 . S
C1573 H1557 0.930 . S
C1573 C1572 1.377 . S
C1573 C1574 1.379 . S
C1574 H1558 0.931 . S
C1574 C1568 1.383 . S
C1574 C1573 1.379 . S
H1575 C1569 0.959 . S
H1576 C1569 0.961 . S
H1577 C1569 0.960 . S
H1578 C1570 0.930 . S
H1579 C1571 0.929 . S
H1580 C1588 0.929 . S
H1581 C1590 0.930 . S
H1582 C1592 0.930 . S
H1583 C1595 0.929 . S
H1584 C1598 0.930 . S
H1585 C1600 0.960 . S
H1586 C1600 0.960 . S
H1587 C1600 0.960 . S
C1588 H1580 0.929 . S
C1588 C1589 1.377 . S
C1588 C1590 1.384 . S
C1589 C1588 1.377 . S
C1589 C1595 1.390 . S
C1590 H1581 0.930 . S
C1590 C1588 1.384 . S
C1590 C1591 1.372 . S
C1591 C1590 1.372 . S
C1591 C1592 1.400 . S
C1591 C1596 1.490 . S
C1592 H1582 0.930 . S
C1592 C1591 1.400 . S
C1592 C1595 1.386 . S
H1593 C1609 0.930 . S
H1594 C1610 0.931 . S
C1595 H1583 0.929 . S
C1595 C1589 1.390 . S
C1595 C1592 1.386 . S
C1596 C1591 1.490 . S
C1596 C1598 1.395 . S
C1596 C1599 1.403 . S
H1597 C1603 0.930 . S
C1598 H1584 0.930 . S
C1598 C1596 1.395 . S
C1598 C1601 1.403 . S
C1599 C1596 1.403 . S
C1599 C1600 1.524 . S
C1599 C1603 1.400 . S
C1600 H1585 0.960 . S
C1600 H1586 0.960 . S
C1600 H1587 0.960 . S
C1600 C1599 1.524 . S
C1601 C1598 1.403 . S
C1601 C1602 1.392 . S
C1601 C1605 1.495 . S
C1602 C1601 1.392 . S
C1602 C1603 1.385 . S
C1602 C1604 1.478 . S
C1603 H1597 0.930 . S
C1603 C1599 1.400 . S
C1603 C1602 1.385 . S
C1604 C1602 1.478 . S
C1604 C1606 1.381 . S
C1604 C1610 1.383 . S
C1605 C1601 1.495 . S
C1605 H1611 0.959 . S
C1605 H1612 0.961 . S
C1605 H1613 0.960 . S
C1606 C1604 1.381 . S
C1606 C1607 1.394 . S
C1606 H1614 0.930 . S
C1607 C1606 1.394 . S
C1607 C1608 1.383 . S
C1607 H1615 0.929 . S
C1608 C1607 1.383 . S
C1608 C1609 1.377 . S
C1609 H1593 0.930 . S
C1609 C1608 1.377 . S
C1609 C1610 1.379 . S
C1610 H1594 0.931 . S
C1610 C1604 1.383 . S
C1610 C1609 1.379 . S
H1611 C1605 0.959 . S
H1612 C1605 0.961 . S
H1613 C1605 0.960 . S
H1614 C1606 0.930 . S
H1615 C1607 0.929 . S
H1616 C1624 0.929 . S
H1617 C1626 0.930 . S
H1618 C1628 0.930 . S
H1619 C1631 0.929 . S
H1620 C1634 0.930 . S
H1621 C1636 0.960 . S
H1622 C1636 0.960 . S
H1623 C1636 0.960 . S
C1624 H1616 0.929 . S
C1624 C1625 1.377 . S
C1624 C1626 1.384 . S
C1625 C1624 1.377 . S
C1625 C1631 1.390 . S
C1626 H1617 0.930 . S
C1626 C1624 1.384 . S
C1626 C1627 1.372 . S
C1627 C1626 1.372 . S
C1627 C1628 1.400 . S
C1627 C1632 1.490 . S
C1628 H1618 0.930 . S
C1628 C1627 1.400 . S
C1628 C1631 1.386 . S
H1629 C1645 0.930 . S
H1630 C1646 0.931 . S
C1631 H1619 0.929 . S
C1631 C1625 1.390 . S
C1631 C1628 1.386 . S
C1632 C1627 1.490 . S
C1632 C1634 1.395 . S
C1632 C1635 1.403 . S
H1633 C1639 0.930 . S
C1634 H1620 0.930 . S
C1634 C1632 1.395 . S
C1634 C1637 1.403 . S
C1635 C1632 1.403 . S
C1635 C1636 1.524 . S
C1635 C1639 1.400 . S
C1636 H1621 0.960 . S
C1636 H1622 0.960 . S
C1636 H1623 0.960 . S
C1636 C1635 1.524 . S
C1637 C1634 1.403 . S
C1637 C1638 1.392 . S
C1637 C1641 1.495 . S
C1638 C1637 1.392 . S
C1638 C1639 1.385 . S
C1638 C1640 1.478 . S
C1639 H1633 0.930 . S
C1639 C1635 1.400 . S
C1639 C1638 1.385 . S
C1640 C1638 1.478 . S
C1640 C1642 1.381 . S
C1640 C1646 1.383 . S
C1641 C1637 1.495 . S
C1641 H1647 0.959 . S
C1641 H1648 0.961 . S
C1641 H1649 0.960 . S
C1642 C1640 1.381 . S
C1642 C1643 1.394 . S
C1642 H1650 0.930 . S
C1643 C1642 1.394 . S
C1643 C1644 1.383 . S
C1643 H1651 0.929 . S
C1644 C1643 1.383 . S
C1644 C1645 1.377 . S
C1645 H1629 0.930 . S
C1645 C1644 1.377 . S
C1645 C1646 1.379 . S
C1646 H1630 0.931 . S
C1646 C1640 1.383 . S
C1646 C1645 1.379 . S
H1647 C1641 0.959 . S
H1648 C1641 0.961 . S
H1649 C1641 0.960 . S
H1650 C1642 0.930 . S
H1651 C1643 0.929 . S
H1652 C1660 0.929 . S
H1653 C1662 0.930 . S
H1654 C1664 0.930 . S
H1655 C1667 0.929 . S
H1656 C1670 0.930 . S
H1657 C1672 0.960 . S
H1658 C1672 0.960 . S
H1659 C1672 0.960 . S
C1660 H1652 0.929 . S
C1660 C1661 1.377 . S
C1660 C1662 1.384 . S
C1661 C1660 1.377 . S
C1661 C1667 1.390 . S
C1662 H1653 0.930 . S
C1662 C1660 1.384 . S
C1662 C1663 1.372 . S
C1663 C1662 1.372 . S
C1663 C1664 1.400 . S
C1663 C1668 1.490 . S
C1664 H1654 0.930 . S
C1664 C1663 1.400 . S
C1664 C1667 1.386 . S
H1665 C1681 0.930 . S
H1666 C1682 0.931 . S
C1667 H1655 0.929 . S
C1667 C1661 1.390 . S
C1667 C1664 1.386 . S
C1668 C1663 1.490 . S
C1668 C1670 1.395 . S
C1668 C1671 1.403 . S
H1669 C1675 0.930 . S
C1670 H1656 0.930 . S
C1670 C1668 1.395 . S
C1670 C1673 1.403 . S
C1671 C1668 1.403 . S
C1671 C1672 1.524 . S
C1671 C1675 1.400 . S
C1672 H1657 0.960 . S
C1672 H1658 0.960 . S
C1672 H1659 0.960 . S
C1672 C1671 1.524 . S
C1673 C1670 1.403 . S
C1673 C1674 1.392 . S
C1673 C1677 1.495 . S
C1674 C1673 1.392 . S
C1674 C1675 1.385 . S
C1674 C1676 1.478 . S
C1675 H1669 0.930 . S
C1675 C1671 1.400 . S
C1675 C1674 1.385 . S
C1676 C1674 1.478 . S
C1676 C1678 1.381 . S
C1676 C1682 1.383 . S
C1677 C1673 1.495 . S
C1677 H1683 0.959 . S
C1677 H1684 0.961 . S
C1677 H1685 0.960 . S
C1678 C1676 1.381 . S
C1678 C1679 1.394 . S
C1678 H1686 0.930 . S
C1679 C1678 1.394 . S
C1679 C1680 1.383 . S
C1679 H1687 0.929 . S
C1680 C1679 1.383 . S
C1680 C1681 1.377 . S
C1681 H1665 0.930 . S
C1681 C1680 1.377 . S
C1681 C1682 1.379 . S
C1682 H1666 0.931 . S
C1682 C1676 1.383 . S
C1682 C1681 1.379 . S
H1683 C1677 0.959 . S
H1684 C1677 0.961 . S
H1685 C1677 0.960 . S
H1686 C1678 0.930 . S
H1687 C1679 0.929 . S
H1688 C1696 0.929 . S
H1689 C1698 0.930 . S
H1690 C1700 0.930 . S
H1691 C1703 0.929 . S
H1692 C1706 0.930 . S
H1693 C1708 0.960 . S
H1694 C1708 0.960 . S
H1695 C1708 0.960 . S
C1696 H1688 0.929 . S
C1696 C1697 1.377 . S
C1696 C1698 1.384 . S
C1697 C1696 1.377 . S
C1697 C1703 1.390 . S
C1698 H1689 0.930 . S
C1698 C1696 1.384 . S
C1698 C1699 1.372 . S
C1699 C1698 1.372 . S
C1699 C1700 1.400 . S
C1699 C1704 1.490 . S
C1700 H1690 0.930 . S
C1700 C1699 1.400 . S
C1700 C1703 1.386 . S
H1701 C1717 0.930 . S
H1702 C1718 0.931 . S
C1703 H1691 0.929 . S
C1703 C1697 1.390 . S
C1703 C1700 1.386 . S
C1704 C1699 1.490 . S
C1704 C1706 1.395 . S
C1704 C1707 1.403 . S
H1705 C1711 0.930 . S
C1706 H1692 0.930 . S
C1706 C1704 1.395 . S
C1706 C1709 1.403 . S
C1707 C1704 1.403 . S
C1707 C1708 1.524 . S
C1707 C1711 1.400 . S
C1708 H1693 0.960 . S
C1708 H1694 0.960 . S
C1708 H1695 0.960 . S
C1708 C1707 1.524 . S
C1709 C1706 1.403 . S
C1709 C1710 1.392 . S
C1709 C1713 1.495 . S
C1710 C1709 1.392 . S
C1710 C1711 1.385 . S
C1710 C1712 1.478 . S
C1711 H1705 0.930 . S
C1711 C1707 1.400 . S
C1711 C1710 1.385 . S
C1712 C1710 1.478 . S
C1712 C1714 1.381 . S
C1712 C1718 1.383 . S
C1713 C1709 1.495 . S
C1713 H1719 0.959 . S
C1713 H1720 0.961 . S
C1713 H1721 0.960 . S
C1714 C1712 1.381 . S
C1714 C1715 1.394 . S
C1714 H1722 0.930 . S
C1715 C1714 1.394 . S
C1715 C1716 1.383 . S
C1715 H1723 0.929 . S
C1716 C1715 1.383 . S
C1716 C1717 1.377 . S
C1717 H1701 0.930 . S
C1717 C1716 1.377 . S
C1717 C1718 1.379 . S
C1718 H1702 0.931 . S
C1718 C1712 1.383 . S
C1718 C1717 1.379 . S
H1719 C1713 0.959 . S
H1720 C1713 0.961 . S
H1721 C1713 0.960 . S
H1722 C1714 0.930 . S
H1723 C1715 0.929 . S
H1724 C1732 0.929 . S
H1725 C1734 0.930 . S
H1726 C1736 0.930 . S
H1727 C1739 0.929 . S
H1728 C1742 0.930 . S
H1729 C1744 0.960 . S
H1730 C1744 0.960 . S
H1731 C1744 0.960 . S
C1732 H1724 0.929 . S
C1732 C1733 1.377 . S
C1732 C1734 1.384 . S
C1733 C1732 1.377 . S
C1733 C1739 1.390 . S
C1734 H1725 0.930 . S
C1734 C1732 1.384 . S
C1734 C1735 1.372 . S
C1735 C1734 1.372 . S
C1735 C1736 1.400 . S
C1735 C1740 1.490 . S
C1736 H1726 0.930 . S
C1736 C1735 1.400 . S
C1736 C1739 1.386 . S
H1737 C1753 0.930 . S
H1738 C1754 0.931 . S
C1739 H1727 0.929 . S
C1739 C1733 1.390 . S
C1739 C1736 1.386 . S
C1740 C1735 1.490 . S
C1740 C1742 1.395 . S
C1740 C1743 1.403 . S
H1741 C1747 0.930 . S
C1742 H1728 0.930 . S
C1742 C1740 1.395 . S
C1742 C1745 1.403 . S
C1743 C1740 1.403 . S
C1743 C1744 1.524 . S
C1743 C1747 1.400 . S
C1744 H1729 0.960 . S
C1744 H1730 0.960 . S
C1744 H1731 0.960 . S
C1744 C1743 1.524 . S
C1745 C1742 1.403 . S
C1745 C1746 1.392 . S
C1745 C1749 1.495 . S
C1746 C1745 1.392 . S
C1746 C1747 1.385 . S
C1746 C1748 1.478 . S
C1747 H1741 0.930 . S
C1747 C1743 1.400 . S
C1747 C1746 1.385 . S
C1748 C1746 1.478 . S
C1748 C1750 1.381 . S
C1748 C1754 1.383 . S
C1749 C1745 1.495 . S
C1749 H1755 0.959 . S
C1749 H1756 0.961 . S
C1749 H1757 0.960 . S
C1750 C1748 1.381 . S
C1750 C1751 1.394 . S
C1750 H1758 0.930 . S
C1751 C1750 1.394 . S
C1751 C1752 1.383 . S
C1751 H1759 0.929 . S
C1752 C1751 1.383 . S
C1752 C1753 1.377 . S
C1753 H1737 0.930 . S
C1753 C1752 1.377 . S
C1753 C1754 1.379 . S
C1754 H1738 0.931 . S
C1754 C1748 1.383 . S
C1754 C1753 1.379 . S
H1755 C1749 0.959 . S
H1756 C1749 0.961 . S
H1757 C1749 0.960 . S
H1758 C1750 0.930 . S
H1759 C1751 0.929 . S
H1760 C1768 0.929 . S
H1761 C1770 0.930 . S
H1762 C1772 0.930 . S
H1763 C1775 0.929 . S
H1764 C1778 0.930 . S
H1765 C1780 0.960 . S
H1766 C1780 0.960 . S
H1767 C1780 0.960 . S
C1768 H1760 0.929 . S
C1768 C1769 1.377 . S
C1768 C1770 1.384 . S
C1769 C1768 1.377 . S
C1769 C1775 1.390 . S
C1770 H1761 0.930 . S
C1770 C1768 1.384 . S
C1770 C1771 1.372 . S
C1771 C1770 1.372 . S
C1771 C1772 1.400 . S
C1771 C1776 1.490 1_565 S
C1772 H1762 0.930 . S
C1772 C1771 1.400 . S
C1772 C1775 1.386 . S
H1773 C1789 0.930 . S
H1774 C1790 0.931 . S
C1775 H1763 0.929 . S
C1775 C1769 1.390 . S
C1775 C1772 1.386 . S
C1776 C1771 1.490 1_545 S
C1776 C1778 1.395 . S
C1776 C1779 1.403 . S
H1777 C1783 0.930 . S
C1778 H1764 0.930 . S
C1778 C1776 1.395 . S
C1778 C1781 1.403 . S
C1779 C1776 1.403 . S
C1779 C1780 1.524 . S
C1779 C1783 1.400 . S
C1780 H1765 0.960 . S
C1780 H1766 0.960 . S
C1780 H1767 0.960 . S
C1780 C1779 1.524 . S
C1781 C1778 1.403 . S
C1781 C1782 1.392 . S
C1781 C1785 1.495 . S
C1782 C1781 1.392 . S
C1782 C1783 1.385 . S
C1782 C1784 1.478 . S
C1783 H1777 0.930 . S
C1783 C1779 1.400 . S
C1783 C1782 1.385 . S
C1784 C1782 1.478 . S
C1784 C1786 1.381 . S
C1784 C1790 1.383 . S
C1785 C1781 1.495 . S
C1785 H1791 0.959 . S
C1785 H1792 0.961 . S
C1785 H1793 0.960 . S
C1786 C1784 1.381 . S
C1786 C1787 1.394 . S
C1786 H1794 0.930 . S
C1787 C1786 1.394 . S
C1787 C1788 1.383 . S
C1787 H1795 0.929 . S
C1788 C1787 1.383 . S
C1788 C1789 1.377 . S
C1789 H1773 0.930 . S
C1789 C1788 1.377 . S
C1789 C1790 1.379 . S
C1790 H1774 0.931 . S
C1790 C1784 1.383 . S
C1790 C1789 1.379 . S
H1791 C1785 0.959 . S
H1792 C1785 0.961 . S
H1793 C1785 0.960 . S
H1794 C1786 0.930 . S
H1795 C1787 0.929 . S
H1796 C1804 0.929 . S
H1797 C1806 0.930 . S
H1798 C1808 0.930 . S
H1799 C1811 0.929 . S
H1800 C1814 0.930 . S
H1801 C1816 0.960 . S
H1802 C1816 0.960 . S
H1803 C1816 0.960 . S
C1804 H1796 0.929 . S
C1804 C1805 1.377 . S
C1804 C1806 1.384 . S
C1805 C1804 1.377 . S
C1805 C1811 1.390 . S
C1806 H1797 0.930 . S
C1806 C1804 1.384 . S
C1806 C1807 1.372 . S
C1807 C1806 1.372 . S
C1807 C1808 1.400 . S
C1807 C1812 1.490 . S
C1808 H1798 0.930 . S
C1808 C1807 1.400 . S
C1808 C1811 1.386 . S
H1809 C1825 0.930 . S
H1810 C1826 0.931 . S
C1811 H1799 0.929 . S
C1811 C1805 1.390 . S
C1811 C1808 1.386 . S
C1812 C1807 1.490 . S
C1812 C1814 1.395 . S
C1812 C1815 1.403 . S
H1813 C1819 0.930 . S
C1814 H1800 0.930 . S
C1814 C1812 1.395 . S
C1814 C1817 1.403 . S
C1815 C1812 1.403 . S
C1815 C1816 1.524 . S
C1815 C1819 1.400 . S
C1816 H1801 0.960 . S
C1816 H1802 0.960 . S
C1816 H1803 0.960 . S
C1816 C1815 1.524 . S
C1817 C1814 1.403 . S
C1817 C1818 1.392 . S
C1817 C1821 1.495 . S
C1818 C1817 1.392 . S
C1818 C1819 1.385 . S
C1818 C1820 1.478 1_565 S
C1819 H1813 0.930 . S
C1819 C1815 1.400 . S
C1819 C1818 1.385 . S
C1820 C1818 1.478 1_545 S
C1820 C1822 1.381 . S
C1820 C1826 1.383 . S
C1821 C1817 1.495 . S
C1821 H1827 0.959 . S
C1821 H1828 0.961 . S
C1821 H1829 0.960 . S
C1822 C1820 1.381 . S
C1822 C1823 1.394 . S
C1822 H1830 0.930 . S
C1823 C1822 1.394 . S
C1823 C1824 1.383 . S
C1823 H1831 0.929 . S
C1824 C1823 1.383 . S
C1824 C1825 1.377 . S
C1825 H1809 0.930 . S
C1825 C1824 1.377 . S
C1825 C1826 1.379 . S
C1826 H1810 0.931 . S
C1826 C1820 1.383 . S
C1826 C1825 1.379 . S
H1827 C1821 0.959 . S
H1828 C1821 0.961 . S
H1829 C1821 0.960 . S
H1830 C1822 0.930 . S
H1831 C1823 0.929 . S
H1832 C1840 0.929 . S
H1833 C1842 0.930 . S
H1834 C1844 0.930 . S
H1835 C1847 0.929 . S
H1836 C1850 0.930 . S
H1837 C1852 0.960 . S
H1838 C1852 0.960 . S
H1839 C1852 0.960 . S
C1840 H1832 0.929 . S
C1840 C1841 1.377 . S
C1840 C1842 1.384 . S
C1841 C1840 1.377 . S
C1841 C1847 1.390 . S
C1842 H1833 0.930 . S
C1842 C1840 1.384 . S
C1842 C1843 1.372 . S
C1843 C1842 1.372 . S
C1843 C1844 1.400 . S
C1843 C1848 1.490 1_545 S
C1844 H1834 0.930 . S
C1844 C1843 1.400 . S
C1844 C1847 1.386 . S
H1845 C1861 0.930 . S
H1846 C1862 0.931 . S
C1847 H1835 0.929 . S
C1847 C1841 1.390 . S
C1847 C1844 1.386 . S
C1848 C1843 1.490 1_565 S
C1848 C1850 1.395 . S
C1848 C1851 1.403 . S
H1849 C1855 0.930 . S
C1850 H1836 0.930 . S
C1850 C1848 1.395 . S
C1850 C1853 1.403 . S
C1851 C1848 1.403 . S
C1851 C1852 1.524 . S
C1851 C1855 1.400 . S
C1852 H1837 0.960 . S
C1852 H1838 0.960 . S
C1852 H1839 0.960 . S
C1852 C1851 1.524 . S
C1853 C1850 1.403 . S
C1853 C1854 1.392 . S
C1853 C1857 1.495 . S
C1854 C1853 1.392 . S
C1854 C1855 1.385 . S
C1854 C1856 1.478 . S
C1855 H1849 0.930 . S
C1855 C1851 1.400 . S
C1855 C1854 1.385 . S
C1856 C1854 1.478 . S
C1856 C1858 1.381 . S
C1856 C1862 1.383 . S
C1857 C1853 1.495 . S
C1857 H1863 0.959 . S
C1857 H1864 0.961 . S
C1857 H1865 0.960 . S
C1858 C1856 1.381 . S
C1858 C1859 1.394 . S
C1858 H1866 0.930 . S
C1859 C1858 1.394 . S
C1859 C1860 1.383 . S
C1859 H1867 0.929 . S
C1860 C1859 1.383 . S
C1860 C1861 1.377 . S
C1861 H1845 0.930 . S
C1861 C1860 1.377 . S
C1861 C1862 1.379 . S
C1862 H1846 0.931 . S
C1862 C1856 1.383 . S
C1862 C1861 1.379 . S
H1863 C1857 0.959 . S
H1864 C1857 0.961 . S
H1865 C1857 0.960 . S
H1866 C1858 0.930 . S
H1867 C1859 0.929 . S
H1868 C1876 0.929 . S
H1869 C1878 0.930 . S
H1870 C1880 0.930 . S
H1871 C1883 0.929 . S
H1872 C1886 0.930 . S
H1873 C1888 0.960 . S
H1874 C1888 0.960 . S
H1875 C1888 0.960 . S
C1876 H1868 0.929 . S
C1876 C1877 1.377 . S
C1876 C1878 1.384 . S
C1877 C1876 1.377 . S
C1877 C1883 1.390 . S
C1878 H1869 0.930 . S
C1878 C1876 1.384 . S
C1878 C1879 1.372 . S
C1879 C1878 1.372 . S
C1879 C1880 1.400 . S
C1879 C1884 1.490 1_565 S
C1880 H1870 0.930 . S
C1880 C1879 1.400 . S
C1880 C1883 1.386 . S
H1881 C1897 0.930 . S
H1882 C1898 0.931 . S
C1883 H1871 0.929 . S
C1883 C1877 1.390 . S
C1883 C1880 1.386 . S
C1884 C1879 1.490 1_545 S
C1884 C1886 1.395 . S
C1884 C1887 1.403 . S
H1885 C1891 0.930 . S
C1886 H1872 0.930 . S
C1886 C1884 1.395 . S
C1886 C1889 1.403 . S
C1887 C1884 1.403 . S
C1887 C1888 1.524 . S
C1887 C1891 1.400 . S
C1888 H1873 0.960 . S
C1888 H1874 0.960 . S
C1888 H1875 0.960 . S
C1888 C1887 1.524 . S
C1889 C1886 1.403 . S
C1889 C1890 1.392 . S
C1889 C1893 1.495 . S
C1890 C1889 1.392 . S
C1890 C1891 1.385 . S
C1890 C1892 1.478 . S
C1891 H1885 0.930 . S
C1891 C1887 1.400 . S
C1891 C1890 1.385 . S
C1892 C1890 1.478 . S
C1892 C1894 1.381 . S
C1892 C1898 1.383 . S
C1893 C1889 1.495 . S
C1893 H1899 0.959 . S
C1893 H1900 0.961 . S
C1893 H1901 0.960 . S
C1894 C1892 1.381 . S
C1894 C1895 1.394 . S
C1894 H1902 0.930 . S
C1895 C1894 1.394 . S
C1895 C1896 1.383 . S
C1895 H1903 0.929 . S
C1896 C1895 1.383 . S
C1896 C1897 1.377 . S
C1897 H1881 0.930 . S
C1897 C1896 1.377 . S
C1897 C1898 1.379 . S
C1898 H1882 0.931 . S
C1898 C1892 1.383 . S
C1898 C1897 1.379 . S
H1899 C1893 0.959 . S
H1900 C1893 0.961 . S
H1901 C1893 0.960 . S
H1902 C1894 0.930 . S
H1903 C1895 0.929 . S
H1904 C1912 0.929 . S
H1905 C1914 0.930 . S
H1906 C1916 0.930 . S
H1907 C1919 0.929 . S
H1908 C1922 0.930 . S
H1909 C1924 0.960 . S
H1910 C1924 0.960 . S
H1911 C1924 0.960 . S
C1912 H1904 0.929 . S
C1912 C1913 1.377 . S
C1912 C1914 1.384 . S
C1913 C1912 1.377 . S
C1913 C1919 1.390 . S
C1914 H1905 0.930 . S
C1914 C1912 1.384 . S
C1914 C1915 1.372 . S
C1915 C1914 1.372 . S
C1915 C1916 1.400 . S
C1915 C1920 1.490 . S
C1916 H1906 0.930 . S
C1916 C1915 1.400 . S
C1916 C1919 1.386 . S
H1917 C1933 0.930 . S
H1918 C1934 0.931 . S
C1919 H1907 0.929 . S
C1919 C1913 1.390 . S
C1919 C1916 1.386 . S
C1920 C1915 1.490 . S
C1920 C1922 1.395 . S
C1920 C1923 1.403 . S
H1921 C1927 0.930 . S
C1922 H1908 0.930 . S
C1922 C1920 1.395 . S
C1922 C1925 1.403 . S
C1923 C1920 1.403 . S
C1923 C1924 1.524 . S
C1923 C1927 1.400 . S
C1924 H1909 0.960 . S
C1924 H1910 0.960 . S
C1924 H1911 0.960 . S
C1924 C1923 1.524 . S
C1925 C1922 1.403 . S
C1925 C1926 1.392 . S
C1925 C1929 1.495 . S
C1926 C1925 1.392 . S
C1926 C1927 1.385 . S
C1926 C1928 1.478 1_565 S
C1927 H1921 0.930 . S
C1927 C1923 1.400 . S
C1927 C1926 1.385 . S
C1928 C1926 1.478 1_545 S
C1928 C1930 1.381 . S
C1928 C1934 1.383 . S
C1929 C1925 1.495 . S
C1929 H1935 0.959 . S
C1929 H1936 0.961 . S
C1929 H1937 0.960 . S
C1930 C1928 1.381 . S
C1930 C1931 1.394 . S
C1930 H1938 0.930 . S
C1931 C1930 1.394 . S
C1931 C1932 1.383 . S
C1931 H1939 0.929 . S
C1932 C1931 1.383 . S
C1932 C1933 1.377 . S
C1933 H1917 0.930 . S
C1933 C1932 1.377 . S
C1933 C1934 1.379 . S
C1934 H1918 0.931 . S
C1934 C1928 1.383 . S
C1934 C1933 1.379 . S
H1935 C1929 0.959 . S
H1936 C1929 0.961 . S
H1937 C1929 0.960 . S
H1938 C1930 0.930 . S
H1939 C1931 0.929 . S
H1940 C1948 0.929 . S
H1941 C1950 0.930 . S
H1942 C1952 0.930 . S
H1943 C1955 0.929 . S
H1944 C1958 0.930 . S
H1945 C1960 0.960 . S
H1946 C1960 0.960 . S
H1947 C1960 0.960 . S
C1948 H1940 0.929 . S
C1948 C1949 1.377 . S
C1948 C1950 1.384 . S
C1949 C1948 1.377 . S
C1949 C1955 1.390 . S
C1950 H1941 0.930 . S
C1950 C1948 1.384 . S
C1950 C1951 1.372 . S
C1951 C1950 1.372 . S
C1951 C1952 1.400 . S
C1951 C1956 1.490 . S
C1952 H1942 0.930 . S
C1952 C1951 1.400 . S
C1952 C1955 1.386 . S
H1953 C1969 0.930 . S
H1954 C1970 0.931 . S
C1955 H1943 0.929 . S
C1955 C1949 1.390 . S
C1955 C1952 1.386 . S
C1956 C1951 1.490 . S
C1956 C1958 1.395 . S
C1956 C1959 1.403 . S
H1957 C1963 0.930 . S
C1958 H1944 0.930 . S
C1958 C1956 1.395 . S
C1958 C1961 1.403 . S
C1959 C1956 1.403 . S
C1959 C1960 1.524 . S
C1959 C1963 1.400 . S
C1960 H1945 0.960 . S
C1960 H1946 0.960 . S
C1960 H1947 0.960 . S
C1960 C1959 1.524 . S
C1961 C1958 1.403 . S
C1961 C1962 1.392 . S
C1961 C1965 1.495 . S
C1962 C1961 1.392 . S
C1962 C1963 1.385 . S
C1962 C1964 1.478 1_545 S
C1963 H1957 0.930 . S
C1963 C1959 1.400 . S
C1963 C1962 1.385 . S
C1964 C1962 1.478 1_565 S
C1964 C1966 1.381 . S
C1964 C1970 1.383 . S
C1965 C1961 1.495 . S
C1965 H1971 0.959 . S
C1965 H1972 0.961 . S
C1965 H1973 0.960 . S
C1966 C1964 1.381 . S
C1966 C1967 1.394 . S
C1966 H1974 0.930 . S
C1967 C1966 1.394 . S
C1967 C1968 1.383 . S
C1967 H1975 0.929 . S
C1968 C1967 1.383 . S
C1968 C1969 1.377 . S
C1969 H1953 0.930 . S
C1969 C1968 1.377 . S
C1969 C1970 1.379 . S
C1970 H1954 0.931 . S
C1970 C1964 1.383 . S
C1970 C1969 1.379 . S
H1971 C1965 0.959 . S
H1972 C1965 0.961 . S
H1973 C1965 0.960 . S
H1974 C1966 0.930 . S
H1975 C1967 0.929 . S
H1976 C1984 0.929 . S
H1977 C1986 0.930 . S
H1978 C1988 0.930 . S
H1979 C1991 0.929 . S
H1980 C1994 0.930 . S
H1981 C1996 0.960 . S
H1982 C1996 0.960 . S
H1983 C1996 0.960 . S
C1984 H1976 0.929 . S
C1984 C1985 1.377 . S
C1984 C1986 1.384 . S
C1985 C1984 1.377 . S
C1985 C1991 1.390 . S
C1986 H1977 0.930 . S
C1986 C1984 1.384 . S
C1986 C1987 1.372 . S
C1987 C1986 1.372 . S
C1987 C1988 1.400 . S
C1987 C1992 1.490 1_565 S
C1988 H1978 0.930 . S
C1988 C1987 1.400 . S
C1988 C1991 1.386 . S
H1989 C2005 0.930 . S
H1990 C2006 0.931 . S
C1991 H1979 0.929 . S
C1991 C1985 1.390 . S
C1991 C1988 1.386 . S
C1992 C1987 1.490 1_545 S
C1992 C1994 1.395 . S
C1992 C1995 1.403 . S
H1993 C1999 0.930 . S
C1994 H1980 0.930 . S
C1994 C1992 1.395 . S
C1994 C1997 1.403 . S
C1995 C1992 1.403 . S
C1995 C1996 1.524 . S
C1995 C1999 1.400 . S
C1996 H1981 0.960 . S
C1996 H1982 0.960 . S
C1996 H1983 0.960 . S
C1996 C1995 1.524 . S
C1997 C1994 1.403 . S
C1997 C1998 1.392 . S
C1997 C2001 1.495 . S
C1998 C1997 1.392 . S
C1998 C1999 1.385 . S
C1998 C2000 1.478 . S
C1999 H1993 0.930 . S
C1999 C1995 1.400 . S
C1999 C1998 1.385 . S
C2000 C1998 1.478 . S
C2000 C2002 1.381 . S
C2000 C2006 1.383 . S
C2001 C1997 1.495 . S
C2001 H2007 0.959 . S
C2001 H2008 0.961 . S
C2001 H2009 0.960 . S
C2002 C2000 1.381 . S
C2002 C2003 1.394 . S
C2002 H2010 0.930 . S
C2003 C2002 1.394 . S
C2003 C2004 1.383 . S
C2003 H2011 0.929 . S
C2004 C2003 1.383 . S
C2004 C2005 1.377 . S
C2005 H1989 0.930 . S
C2005 C2004 1.377 . S
C2005 C2006 1.379 . S
C2006 H1990 0.931 . S
C2006 C2000 1.383 . S
C2006 C2005 1.379 . S
H2007 C2001 0.959 . S
H2008 C2001 0.961 . S
H2009 C2001 0.960 . S
H2010 C2002 0.930 . S
H2011 C2003 0.929 . S
H2012 C2020 0.929 . S
H2013 C2022 0.930 . S
H2014 C2024 0.930 . S
H2015 C2027 0.929 . S
H2016 C2030 0.930 . S
H2017 C2032 0.960 . S
H2018 C2032 0.960 . S
H2019 C2032 0.960 . S
C2020 H2012 0.929 . S
C2020 C2021 1.377 . S
C2020 C2022 1.384 . S
C2021 C2020 1.377 . S
C2021 C2027 1.390 . S
C2022 H2013 0.930 . S
C2022 C2020 1.384 . S
C2022 C2023 1.372 . S
C2023 C2022 1.372 . S
C2023 C2024 1.400 . S
C2023 C2028 1.490 . S
C2024 H2014 0.930 . S
C2024 C2023 1.400 . S
C2024 C2027 1.386 . S
H2025 C2041 0.930 . S
H2026 C2042 0.931 . S
C2027 H2015 0.929 . S
C2027 C2021 1.390 . S
C2027 C2024 1.386 . S
C2028 C2023 1.490 . S
C2028 C2030 1.395 . S
C2028 C2031 1.403 . S
H2029 C2035 0.930 . S
C2030 H2016 0.930 . S
C2030 C2028 1.395 . S
C2030 C2033 1.403 . S
C2031 C2028 1.403 . S
C2031 C2032 1.524 . S
C2031 C2035 1.400 . S
C2032 H2017 0.960 . S
C2032 H2018 0.960 . S
C2032 H2019 0.960 . S
C2032 C2031 1.524 . S
C2033 C2030 1.403 . S
C2033 C2034 1.392 . S
C2033 C2037 1.495 . S
C2034 C2033 1.392 . S
C2034 C2035 1.385 . S
C2034 C2036 1.478 1_565 S
C2035 H2029 0.930 . S
C2035 C2031 1.400 . S
C2035 C2034 1.385 . S
C2036 C2034 1.478 1_545 S
C2036 C2038 1.381 . S
C2036 C2042 1.383 . S
C2037 C2033 1.495 . S
C2037 H2043 0.959 . S
C2037 H2044 0.961 . S
C2037 H2045 0.960 . S
C2038 C2036 1.381 . S
C2038 C2039 1.394 . S
C2038 H2046 0.930 . S
C2039 C2038 1.394 . S
C2039 C2040 1.383 . S
C2039 H2047 0.929 . S
C2040 C2039 1.383 . S
C2040 C2041 1.377 . S
C2041 H2025 0.930 . S
C2041 C2040 1.377 . S
C2041 C2042 1.379 . S
C2042 H2026 0.931 . S
C2042 C2036 1.383 . S
C2042 C2041 1.379 . S
H2043 C2037 0.959 . S
H2044 C2037 0.961 . S
H2045 C2037 0.960 . S
H2046 C2038 0.930 . S
H2047 C2039 0.929 . S
C329 C19 1.510 . S
C348 C199 1.520 . S
C365 C39 1.512 . S
C384 C179 1.514 . S
C401 C239 1.512 . S
C420 C59 1.510 . S
C437 C79 1.515 . S
C456 C219 1.498 . S
C473 C278 1.515 . S
C492 C98 1.512 . S
C509 C258 1.515 . S
C528 C118 1.513 . S
C545 C318 1.515 . S
C564 C138 1.513 . S
C581 C158 1.510 . S
C600 C298 1.498 . S
C617 C49 1.564 . S
C636 C9 1.555 . S
C653 C69 1.565 . S
C672 C29 1.559 . S
C689 C128 1.564 . S
C708 C88 1.570 . S
C725 C108 1.566 . S
C744 C148 1.559 . S
C761 C209 1.569 . S
C780 C169 1.571 . S
C797 C229 1.566 . S
C816 C189 1.567 . S
C833 C248 1.569 . S
C852 C288 1.561 . S
C869 C268 1.567 . S
C888 C308 1.555 . S
C905 C109 1.495 . S
C924 C8 1.515 . S
C941 C89 1.495 . S
C960 C28 1.516 . S
C977 C48 1.500 . S
C996 C149 1.474 . S
C1013 C129 1.494 . S
C1032 C68 1.516 . S
C1049 C168 1.491 . S
C1068 C269 1.518 . S
C1085 C249 1.490 . S
C1104 C188 1.513 . S
C1121 C208 1.490 . S
C1140 C309 1.488 . S
C1157 C289 1.489 . S
C1176 C228 1.511 . S
C1193 C38 1.572 . S
C1212 C18 1.555 . S
C1229 C78 1.575 . S
C1248 C58 1.568 . S
C1265 C119 1.577 . S
C1284 C99 1.586 . S
C1301 C139 1.572 . S
C1320 C159 1.577 . S
C1337 C198 1.574 . S
C1356 C178 1.561 . S
C1373 C238 1.579 . S
C1392 C218 1.589 . S
C1409 C259 1.577 . S
C1428 C279 1.587 . S
C1445 C299 1.577 . S
C1464 C319 1.586 . S
C1481 C2 1.690 . S
C1500 C1 1.683 . S
C1517 C22 1.692 . S
C1536 C21 1.702 . S
C1553 C42 1.693 . S
C1572 C41 1.670 . S
C1589 C61 1.698 . S
C1608 C62 1.696 . S
C1625 C81 1.693 . S
C1644 C82 1.707 . S
C1661 C102 1.695 . S
C1680 C101 1.676 . S
C1697 C121 1.690 . S
C1716 C122 1.674 . S
C1733 C141 1.691 . S
C1752 C142 1.698 . S
C1769 C161 1.698 . S
C1788 C162 1.692 . S
C1805 C182 1.692 . S
C1824 C181 1.669 . S
C1841 C201 1.690 . S
C1860 C202 1.680 . S
C1877 C221 1.695 . S
C1896 C222 1.710 . S
C1913 C241 1.690 . S
C1932 C242 1.676 . S
C1949 C261 1.697 . S
C1968 C262 1.686 . S
C1985 C282 1.695 . S
C2004 C281 1.676 . S
C2021 C301 1.694 . S
C2040 C302 1.708 . S
