# Generated by pormake.
# Topology ske, (6)-cn, num edge types: 1
# Building blocks:
#     Node 0, Type 0, BuildingBlock: VOLQOD_clean_sbu_1, # of connection points: 6
#     Node 1, Type 0, BuildingBlock: VOLQOD_clean_sbu_1, # of connection points: 6
#     Node 2, Type 0, BuildingBlock: VOLQOD_clean_sbu_1, # of connection points: 6
#     Node 3, Type 0, BuildingBlock: VOLQOD_clean_sbu_1, # of connection points: 6
#     Node 4, Type 0, BuildingBlock: VOLQOD_clean_sbu_1, # of connection points: 6
#     Node 5, Type 0, BuildingBlock: VOLQOD_clean_sbu_1, # of connection points: 6
#     Node 6, Type 0, BuildingBlock: VOLQOD_clean_sbu_1, # of connection points: 6
#     Node 7, Type 0, BuildingBlock: VOLQOD_clean_sbu_1, # of connection points: 6
#     Edge 8, Type (0, 0), BuildingBlock: EYOCIG_clean_linker_4, # of connection points: 2
#     Edge 9, Type (0, 0), BuildingBlock: EYOCIG_clean_linker_4, # of connection points: 2
#     Edge 10, Type (0, 0), BuildingBlock: EYOCIG_clean_linker_4, # of connection points: 2
#     Edge 11, Type (0, 0), BuildingBlock: EYOCIG_clean_linker_4, # of connection points: 2
#     Edge 12, Type (0, 0), BuildingBlock: EYOCIG_clean_linker_4, # of connection points: 2
#     Edge 13, Type (0, 0), BuildingBlock: EYOCIG_clean_linker_4, # of connection points: 2
#     Edge 14, Type (0, 0), BuildingBlock: EYOCIG_clean_linker_4, # of connection points: 2
#     Edge 15, Type (0, 0), BuildingBlock: EYOCIG_clean_linker_4, # of connection points: 2
#     Edge 16, Type (0, 0), BuildingBlock: EYOCIG_clean_linker_4, # of connection points: 2
#     Edge 17, Type (0, 0), BuildingBlock: EYOCIG_clean_linker_4, # of connection points: 2
#     Edge 18, Type (0, 0), BuildingBlock: EYOCIG_clean_linker_4, # of connection points: 2
#     Edge 19, Type (0, 0), BuildingBlock: EYOCIG_clean_linker_4, # of connection points: 2
#     Edge 20, Type (0, 0), BuildingBlock: EYOCIG_clean_linker_4, # of connection points: 2
#     Edge 21, Type (0, 0), BuildingBlock: EYOCIG_clean_linker_4, # of connection points: 2
#     Edge 22, Type (0, 0), BuildingBlock: EYOCIG_clean_linker_4, # of connection points: 2
#     Edge 23, Type (0, 0), BuildingBlock: EYOCIG_clean_linker_4, # of connection points: 2
#     Edge 24, Type (0, 0), BuildingBlock: EYOCIG_clean_linker_4, # of connection points: 2
#     Edge 25, Type (0, 0), BuildingBlock: EYOCIG_clean_linker_4, # of connection points: 2
#     Edge 26, Type (0, 0), BuildingBlock: EYOCIG_clean_linker_4, # of connection points: 2
#     Edge 27, Type (0, 0), BuildingBlock: EYOCIG_clean_linker_4, # of connection points: 2
#     Edge 28, Type (0, 0), BuildingBlock: EYOCIG_clean_linker_4, # of connection points: 2
#     Edge 29, Type (0, 0), BuildingBlock: EYOCIG_clean_linker_4, # of connection points: 2
#     Edge 30, Type (0, 0), BuildingBlock: EYOCIG_clean_linker_4, # of connection points: 2
#     Edge 31, Type (0, 0), BuildingBlock: EYOCIG_clean_linker_4, # of connection points: 2
# Relax obj value: 0.031
# Max RMSD: 0.058
# Mean RMSD: 0.058
data_MOF--net-ske--node1-VOLQOD_clean_sbu_1--edge1-EYOCIG_clean_linker_4
_symmetry_space_group_name_H-M    P1
_symmetry_Int_Tables_number       1
_symmetry_cell_setting            triclinic
loop_
_symmetry_equiv_pos_as_xyz
'x, y, z'
_cell_length_a     54.660316
_cell_length_b     27.36119
_cell_length_c     13.991974
_cell_angle_alpha  89.995222
_cell_angle_beta   89.965059
_cell_angle_gamma 89.999965
loop_
_atom_site_label
_atom_site_type_symbol
_atom_site_fract_x
_atom_site_fract_y
_atom_site_fract_z
_atom_type_partial_charge
O0 O 0.10453 0.27951 0.80302 0.0
Zn1 Zn 0.09585 0.28711 0.66326 0.0
O2 O 0.11492 0.24129 0.58718 0.0
Zn3 Zn 0.13973 0.27578 0.51306 0.0
Zn4 Zn 0.13061 0.19439 0.67139 0.0
Zn5 Zn 0.09345 0.20702 0.50021 0.0
O6 O 0.13789 0.25704 0.37284 0.0
O7 O 0.09986 0.22776 0.36541 0.0
O8 O 0.10154 0.35655 0.61729 0.0
O9 O 0.1321 0.34752 0.51335 0.0
O10 O 0.17363 0.26652 0.57116 0.0
O11 O 0.16646 0.2088 0.67977 0.0
O12 O 0.12618 0.12478 0.62428 0.0
O13 O 0.05967 0.27299 0.65004 0.0
O14 O 0.10031 0.13515 0.50309 0.0
O15 O 0.05803 0.21788 0.53312 0.0
C16 C 0.11196 0.24212 0.84896 0.0
C17 C 0.11928 0.243 0.32525 0.0
C18 C 0.18085 0.2384 0.63815 0.0
C19 C 0.11655 0.37406 0.55659 0.0
C20 C 0.1136 0.10791 0.55513 0.0
C21 C 0.04762 0.24493 0.59487 0.0
O22 O 0.11938 0.20353 0.80713 0.0
O23 O 0.86849 0.20207 0.80362 0.0
Zn24 Zn 0.87714 0.19446 0.6638 0.0
O25 O 0.8581 0.24035 0.58784 0.0
Zn26 Zn 0.83328 0.20592 0.51376 0.0
Zn27 Zn 0.84241 0.28724 0.67213 0.0
Zn28 Zn 0.87959 0.27462 0.50084 0.0
O29 O 0.83516 0.22464 0.37355 0.0
O30 O 0.8732 0.25393 0.36604 0.0
O31 O 0.8714 0.12505 0.61788 0.0
O32 O 0.84084 0.13416 0.5141 0.0
O33 O 0.79936 0.2153 0.57179 0.0
O34 O 0.80654 0.27295 0.6805 0.0
O35 O 0.84689 0.35686 0.62513 0.0
O36 O 0.91333 0.20849 0.65038 0.0
O37 O 0.87276 0.34651 0.50382 0.0
O38 O 0.915 0.26368 0.5336 0.0
C39 C 0.86105 0.23944 0.8496 0.0
C40 C 0.85378 0.23868 0.32592 0.0
C41 C 0.79214 0.24342 0.63879 0.0
C42 C 0.85637 0.10758 0.55727 0.0
C43 C 0.85948 0.37374 0.55595 0.0
C44 C 0.9254 0.23656 0.59522 0.0
O45 O 0.85361 0.27803 0.80783 0.0
O46 O 0.10448 0.7024 0.17105 0.0
Zn47 Zn 0.09582 0.69474 0.31084 0.0
O48 O 0.11486 0.74059 0.38688 0.0
Zn49 Zn 0.13963 0.70609 0.46103 0.0
Zn50 Zn 0.13059 0.78747 0.30267 0.0
Zn51 Zn 0.09337 0.7749 0.47383 0.0
O52 O 0.13775 0.72482 0.60121 0.0
O53 O 0.09974 0.75421 0.60865 0.0
O54 O 0.10152 0.6253 0.35666 0.0
O55 O 0.13203 0.63434 0.46068 0.0
O56 O 0.17356 0.71539 0.40311 0.0
O57 O 0.16644 0.77307 0.29439 0.0
O58 O 0.12615 0.85709 0.34972 0.0
O59 O 0.05963 0.70881 0.32423 0.0
O60 O 0.10023 0.84678 0.47088 0.0
O61 O 0.05796 0.764 0.441 0.0
C62 C 0.11194 0.73978 0.12512 0.0
C63 C 0.11914 0.73893 0.6488 0.0
C64 C 0.18081 0.7435 0.33614 0.0
C65 C 0.11651 0.60779 0.41737 0.0
C66 C 0.11355 0.87399 0.41884 0.0
C67 C 0.04757 0.73689 0.37936 0.0
O68 O 0.11939 0.77833 0.16695 0.0
O69 O 0.86841 0.77927 0.17168 0.0
Zn70 Zn 0.87708 0.78695 0.31141 0.0
O71 O 0.85808 0.74107 0.3876 0.0
Zn72 Zn 0.83327 0.77551 0.46178 0.0
Zn73 Zn 0.8424 0.69413 0.30347 0.0
Zn74 Zn 0.87959 0.70686 0.47452 0.0
O75 O 0.83512 0.75674 0.60196 0.0
O76 O 0.87318 0.72756 0.60933 0.0
O77 O 0.87135 0.85638 0.35727 0.0
O78 O 0.84085 0.84726 0.46147 0.0
O79 O 0.79937 0.7662 0.40376 0.0
O80 O 0.80654 0.7085 0.29514 0.0
O81 O 0.84686 0.62454 0.35066 0.0
O82 O 0.91328 0.77296 0.32458 0.0
O83 O 0.87277 0.63496 0.47168 0.0
O84 O 0.91499 0.71786 0.44152 0.0
C85 C 0.861 0.74184 0.12581 0.0
C86 C 0.85375 0.74274 0.64952 0.0
C87 C 0.79216 0.73808 0.3368 0.0
C88 C 0.85636 0.87385 0.41808 0.0
C89 C 0.85948 0.6077 0.41975 0.0
C90 C 0.92536 0.74495 0.37974 0.0
O91 O 0.85362 0.70324 0.16771 0.0
O92 O 0.60462 0.77961 0.30364 0.0
Zn93 Zn 0.59593 0.78721 0.16389 0.0
O94 O 0.61497 0.74136 0.08779 0.0
Zn95 Zn 0.63979 0.77582 0.01368 0.0
Zn96 Zn 0.63064 0.69443 0.172 0.0
Zn97 Zn 0.59349 0.70714 0.00079 0.0
O98 O 0.63796 0.7571 0.87346 0.0
O99 O 0.59991 0.72788 0.866 0.0
O100 O 0.60164 0.85663 0.11792 0.0
O101 O 0.6322 0.84758 0.014 0.0
O102 O 0.67369 0.76647 0.07173 0.0
O103 O 0.66649 0.70873 0.18029 0.0
O104 O 0.62615 0.62482 0.12493 0.0
O105 O 0.55975 0.77313 0.15071 0.0
O106 O 0.60032 0.63525 0.00366 0.0
O107 O 0.55808 0.71807 0.03371 0.0
C108 C 0.61204 0.74222 0.34958 0.0
C109 C 0.61934 0.7431 0.82586 0.0
C110 C 0.68089 0.73831 0.13866 0.0
C111 C 0.61665 0.87413 0.05723 0.0
C112 C 0.61358 0.60798 0.05574 0.0
C113 C 0.54769 0.74511 0.0955 0.0
O114 O 0.61943 0.70361 0.30776 0.0
O115 O 0.36859 0.70238 0.30403 0.0
Zn116 Zn 0.37723 0.69472 0.16422 0.0
O117 O 0.3582 0.74061 0.08822 0.0
Zn118 Zn 0.33341 0.70618 0.01404 0.0
Zn119 Zn 0.34248 0.78748 0.17248 0.0
Zn120 Zn 0.3797 0.77493 0.00131 0.0
O121 O 0.33531 0.72491 0.87386 0.0
O122 O 0.37334 0.75426 0.86648 0.0
O123 O 0.37147 0.62529 0.11841 0.0
O124 O 0.34097 0.63443 0.01441 0.0
O125 O 0.29948 0.71552 0.07194 0.0
O126 O 0.30663 0.77309 0.18082 0.0
O127 O 0.34692 0.8571 0.12545 0.0
O128 O 0.41342 0.70873 0.1508 0.0
O129 O 0.37284 0.84681 0.00428 0.0
O130 O 0.4151 0.76401 0.03417 0.0
C131 C 0.36114 0.73976 0.34998 0.0
C132 C 0.35393 0.73899 0.8263 0.0
C133 C 0.29225 0.74358 0.139 0.0
C134 C 0.35647 0.60783 0.05772 0.0
C135 C 0.35952 0.87401 0.05634 0.0
C136 C 0.42549 0.73685 0.09573 0.0
O137 O 0.35369 0.77832 0.30817 0.0
O138 O 0.60438 0.20242 0.67186 0.0
Zn139 Zn 0.59573 0.1948 0.81168 0.0
O140 O 0.6148 0.24066 0.88762 0.0
Zn141 Zn 0.63961 0.20619 0.96167 0.0
Zn142 Zn 0.6305 0.28753 0.8033 0.0
Zn143 Zn 0.59332 0.27495 0.97466 0.0
O144 O 0.63775 0.22489 0.1019 0.0
O145 O 0.59972 0.25423 0.10944 0.0
O146 O 0.60147 0.12537 0.85754 0.0
O147 O 0.63203 0.13444 0.96129 0.0
O148 O 0.67353 0.21552 0.90358 0.0
O149 O 0.66636 0.27316 0.79484 0.0
O150 O 0.62606 0.35715 0.85036 0.0
O151 O 0.55954 0.20887 0.82519 0.0
O152 O 0.60019 0.34682 0.97169 0.0
O153 O 0.5579 0.26406 0.94195 0.0
C154 C 0.61183 0.23979 0.62586 0.0
C155 C 0.61914 0.23895 0.14954 0.0
C156 C 0.68075 0.24362 0.83653 0.0
C157 C 0.6165 0.10788 0.91811 0.0
C158 C 0.61348 0.37404 0.91956 0.0
C159 C 0.54749 0.23696 0.88036 0.0
O160 O 0.61928 0.27836 0.66762 0.0
O161 O 0.36833 0.27956 0.67221 0.0
Zn162 Zn 0.37701 0.28718 0.81197 0.0
O163 O 0.35797 0.24134 0.88809 0.0
Zn164 Zn 0.33313 0.2758 0.96214 0.0
Zn165 Zn 0.3423 0.1944 0.8039 0.0
Zn166 Zn 0.37945 0.20715 0.97514 0.0
O167 O 0.33494 0.25705 0.10238 0.0
O168 O 0.37299 0.22786 0.10991 0.0
O169 O 0.3713 0.3566 0.8579 0.0
O170 O 0.34075 0.34754 0.96187 0.0
O171 O 0.29924 0.26652 0.90392 0.0
O172 O 0.30644 0.20875 0.79545 0.0
O173 O 0.34677 0.12481 0.85107 0.0
O174 O 0.4132 0.27314 0.82524 0.0
O175 O 0.37264 0.13525 0.97224 0.0
O176 O 0.41487 0.21812 0.94234 0.0
C177 C 0.36092 0.24216 0.6263 0.0
C178 C 0.35355 0.24305 0.15002 0.0
C179 C 0.29205 0.23837 0.83697 0.0
C180 C 0.35628 0.3741 0.91861 0.0
C181 C 0.35937 0.10798 0.92022 0.0
C182 C 0.42527 0.24516 0.88054 0.0
O183 O 0.35353 0.20355 0.66816 0.0
C184 C 0.22511 0.24343 0.71314 0.0
C185 C 0.20525 0.24295 0.67545 0.0
C186 C 0.24779 0.24341 0.76184 0.0
C187 C 0.26766 0.24292 0.79957 0.0
C188 C 0.72507 0.23861 0.76182 0.0
C189 C 0.70517 0.23911 0.79933 0.0
C190 C 0.74781 0.23856 0.7134 0.0
C191 C 0.76771 0.23898 0.67592 0.0
C192 C 0.24791 0.73857 0.21344 0.0
C193 C 0.26782 0.73907 0.17605 0.0
C194 C 0.22515 0.73855 0.26173 0.0
C195 C 0.20524 0.73901 0.29912 0.0
C196 C 0.72518 0.7432 0.21345 0.0
C197 C 0.7053 0.74278 0.17587 0.0
C198 C 0.74788 0.74314 0.26199 0.0
C199 C 0.76775 0.74263 0.29956 0.0
C200 C 0.11561 0.9667 0.46979 0.0
C201 C 0.11531 0.92475 0.44348 0.0
C202 C 0.11562 0.0152 0.50414 0.0
C203 C 0.11535 0.05714 0.53048 0.0
C204 C 0.85748 0.46648 0.5051 0.0
C205 C 0.85775 0.42452 0.53137 0.0
C206 C 0.85748 0.51499 0.47079 0.0
C207 C 0.85775 0.55694 0.44446 0.0
C208 C 0.85812 0.96642 0.47061 0.0
C209 C 0.85795 0.92444 0.44444 0.0
C210 C 0.85812 0.01501 0.50468 0.0
C211 C 0.85796 0.05699 0.53087 0.0
C212 C 0.11473 0.51521 0.46988 0.0
C213 C 0.1149 0.55719 0.44371 0.0
C214 C 0.11474 0.46662 0.50397 0.0
C215 C 0.11493 0.42464 0.53018 0.0
C216 C 0.61555 0.51527 0.00479 0.0
C217 C 0.6153 0.55721 0.03111 0.0
C218 C 0.61553 0.46676 0.97047 0.0
C219 C 0.61524 0.42481 0.94417 0.0
C220 C 0.35746 0.96674 0.00546 0.0
C221 C 0.35776 0.92478 0.03173 0.0
C222 C 0.35742 0.01525 0.97117 0.0
C223 C 0.35767 0.0572 0.94486 0.0
C224 C 0.35811 0.46665 0.97123 0.0
C225 C 0.35791 0.42467 0.94505 0.0
C226 C 0.35816 0.51524 0.00528 0.0
C227 C 0.35803 0.55723 0.03143 0.0
C228 C 0.61479 0.01528 0.97058 0.0
C229 C 0.61493 0.05727 0.94443 0.0
C230 C 0.61483 0.96669 0.00463 0.0
C231 C 0.61503 0.92471 0.0308 0.0
C232 C 0.11828 0.24542 0.13705 0.0
C233 C 0.11972 0.24507 0.22294 0.0
C234 C 0.1156 0.2452 0.03682 0.0
C235 C 0.11379 0.24457 0.95104 0.0
C236 C 0.8548 0.23622 0.13773 0.0
C237 C 0.85336 0.23659 0.22362 0.0
C238 C 0.85746 0.23638 0.03748 0.0
C239 C 0.85925 0.237 0.95169 0.0
C240 C 0.11551 0.73676 0.93724 0.0
C241 C 0.11372 0.73737 0.02304 0.0
C242 C 0.11814 0.73655 0.83699 0.0
C243 C 0.11957 0.73689 0.7511 0.0
C244 C 0.85474 0.74509 0.83772 0.0
C245 C 0.8533 0.74476 0.75183 0.0
C246 C 0.85739 0.74487 0.93796 0.0
C247 C 0.85919 0.74424 0.02374 0.0
C248 C 0.61568 0.74531 0.53743 0.0
C249 C 0.61386 0.74467 0.45165 0.0
C250 C 0.61835 0.74552 0.63766 0.0
C251 C 0.61979 0.74517 0.72355 0.0
C252 C 0.35496 0.73657 0.63811 0.0
C253 C 0.35352 0.73694 0.724 0.0
C254 C 0.35759 0.73674 0.53786 0.0
C255 C 0.35937 0.73734 0.45207 0.0
C256 C 0.61811 0.2365 0.33774 0.0
C257 C 0.61956 0.23687 0.25185 0.0
C258 C 0.61544 0.2367 0.43799 0.0
C259 C 0.61364 0.23733 0.52378 0.0
C260 C 0.35455 0.24546 0.33823 0.0
C261 C 0.35309 0.24512 0.25233 0.0
C262 C 0.35724 0.24524 0.43845 0.0
C263 C 0.35907 0.24461 0.52423 0.0
C264 C -0.00059 0.24196 0.60509 0.0
C265 C 0.02142 0.24391 0.60169 0.0
C266 C 0.97361 0.23945 0.60517 0.0
C267 C 0.95159 0.23753 0.60191 0.0
C268 C 0.97357 0.74217 0.36944 0.0
C269 C 0.95155 0.74403 0.37287 0.0
C270 C -0.00064 0.73973 0.36936 0.0
C271 C 0.02138 0.73784 0.37267 0.0
C272 C 0.49948 0.7422 0.10573 0.0
C273 C 0.5215 0.74412 0.10234 0.0
C274 C 0.47369 0.73971 0.10578 0.0
C275 C 0.45167 0.7378 0.10247 0.0
C276 C 0.47348 0.24232 0.87047 0.0
C277 C 0.45146 0.24421 0.8738 0.0
C278 C 0.49928 0.23985 0.87045 0.0
C279 C 0.5213 0.23794 0.87372 0.0
loop_
_geom_bond_atom_site_label_1
_geom_bond_atom_site_label_2
_geom_bond_distance
_geom_bond_site_symmetry_2
_ccdc_geom_bond_type
O0 Zn1 1.953 . S
O0 C16 1.225 . S
Zn1 O0 1.953 . S
Zn1 O2 1.949 . S
Zn1 O8 1.919 . S
Zn1 O13 1.924 . S
O2 Zn1 1.949 . S
O2 Zn3 1.923 . S
O2 Zn4 1.950 . S
O2 Zn5 1.945 . S
Zn3 O2 1.923 . S
Zn3 O6 1.933 . S
Zn3 O9 1.941 . S
Zn3 O10 1.965 . S
Zn4 O2 1.950 . S
Zn4 O11 1.938 . S
Zn4 O12 1.906 . S
Zn4 O22 1.953 . S
Zn5 O2 1.945 . S
Zn5 O7 1.932 . S
Zn5 O14 1.977 . S
Zn5 O15 1.910 . S
O6 Zn3 1.933 . S
O6 C17 1.226 . S
O7 Zn5 1.932 . S
O7 C17 1.307 . S
O8 Zn1 1.919 . S
O8 C19 1.253 . S
O9 Zn3 1.941 . S
O9 C19 1.283 . S
O10 Zn3 1.965 . S
O10 C18 1.303 . S
O11 Zn4 1.938 . S
O11 C18 1.247 . S
O12 Zn4 1.906 . S
O12 C20 1.304 . S
O13 Zn1 1.924 . S
O13 C21 1.311 . S
O14 Zn5 1.977 . S
O14 C20 1.272 . S
O15 Zn5 1.910 . S
O15 C21 1.231 . S
C16 O0 1.225 . S
C16 O22 1.298 . S
C17 O6 1.226 . S
C17 O7 1.307 . S
C18 O10 1.303 . S
C18 O11 1.247 . S
C19 O8 1.253 . S
C19 O9 1.283 . S
C20 O12 1.304 . S
C20 O14 1.272 . S
C21 O13 1.311 . S
C21 O15 1.231 . S
O22 Zn4 1.953 . S
O22 C16 1.298 . S
O23 Zn24 1.953 . S
O23 C39 1.225 . S
Zn24 O23 1.953 . S
Zn24 O25 1.949 . S
Zn24 O31 1.919 . S
Zn24 O36 1.924 . S
O25 Zn24 1.949 . S
O25 Zn26 1.923 . S
O25 Zn27 1.950 . S
O25 Zn28 1.945 . S
Zn26 O25 1.923 . S
Zn26 O29 1.933 . S
Zn26 O32 1.941 . S
Zn26 O33 1.965 . S
Zn27 O25 1.950 . S
Zn27 O34 1.938 . S
Zn27 O35 1.906 . S
Zn27 O45 1.953 . S
Zn28 O25 1.945 . S
Zn28 O30 1.932 . S
Zn28 O37 1.977 . S
Zn28 O38 1.910 . S
O29 Zn26 1.933 . S
O29 C40 1.226 . S
O30 Zn28 1.932 . S
O30 C40 1.307 . S
O31 Zn24 1.919 . S
O31 C42 1.253 . S
O32 Zn26 1.941 . S
O32 C42 1.283 . S
O33 Zn26 1.965 . S
O33 C41 1.303 . S
O34 Zn27 1.938 . S
O34 C41 1.247 . S
O35 Zn27 1.906 . S
O35 C43 1.304 . S
O36 Zn24 1.924 . S
O36 C44 1.311 . S
O37 Zn28 1.977 . S
O37 C43 1.272 . S
O38 Zn28 1.910 . S
O38 C44 1.231 . S
C39 O23 1.225 . S
C39 O45 1.298 . S
C40 O29 1.226 . S
C40 O30 1.307 . S
C41 O33 1.303 . S
C41 O34 1.247 . S
C42 O31 1.253 . S
C42 O32 1.283 . S
C43 O35 1.304 . S
C43 O37 1.272 . S
C44 O36 1.311 . S
C44 O38 1.231 . S
O45 Zn27 1.953 . S
O45 C39 1.298 . S
O46 Zn47 1.953 . S
O46 C62 1.225 . S
Zn47 O46 1.953 . S
Zn47 O48 1.949 . S
Zn47 O54 1.919 . S
Zn47 O59 1.924 . S
O48 Zn47 1.949 . S
O48 Zn49 1.923 . S
O48 Zn50 1.950 . S
O48 Zn51 1.945 . S
Zn49 O48 1.923 . S
Zn49 O52 1.933 . S
Zn49 O55 1.941 . S
Zn49 O56 1.965 . S
Zn50 O48 1.950 . S
Zn50 O57 1.938 . S
Zn50 O58 1.906 . S
Zn50 O68 1.953 . S
Zn51 O48 1.945 . S
Zn51 O53 1.932 . S
Zn51 O60 1.977 . S
Zn51 O61 1.910 . S
O52 Zn49 1.933 . S
O52 C63 1.226 . S
O53 Zn51 1.932 . S
O53 C63 1.307 . S
O54 Zn47 1.919 . S
O54 C65 1.253 . S
O55 Zn49 1.941 . S
O55 C65 1.283 . S
O56 Zn49 1.965 . S
O56 C64 1.303 . S
O57 Zn50 1.938 . S
O57 C64 1.247 . S
O58 Zn50 1.906 . S
O58 C66 1.304 . S
O59 Zn47 1.924 . S
O59 C67 1.311 . S
O60 Zn51 1.977 . S
O60 C66 1.272 . S
O61 Zn51 1.910 . S
O61 C67 1.231 . S
C62 O46 1.225 . S
C62 O68 1.298 . S
C63 O52 1.226 . S
C63 O53 1.307 . S
C64 O56 1.303 . S
C64 O57 1.247 . S
C65 O54 1.253 . S
C65 O55 1.283 . S
C66 O58 1.304 . S
C66 O60 1.272 . S
C67 O59 1.311 . S
C67 O61 1.231 . S
O68 Zn50 1.953 . S
O68 C62 1.298 . S
O69 Zn70 1.953 . S
O69 C85 1.225 . S
Zn70 O69 1.953 . S
Zn70 O71 1.949 . S
Zn70 O77 1.919 . S
Zn70 O82 1.924 . S
O71 Zn70 1.949 . S
O71 Zn72 1.923 . S
O71 Zn73 1.950 . S
O71 Zn74 1.945 . S
Zn72 O71 1.923 . S
Zn72 O75 1.933 . S
Zn72 O78 1.941 . S
Zn72 O79 1.965 . S
Zn73 O71 1.950 . S
Zn73 O80 1.938 . S
Zn73 O81 1.906 . S
Zn73 O91 1.953 . S
Zn74 O71 1.945 . S
Zn74 O76 1.932 . S
Zn74 O83 1.977 . S
Zn74 O84 1.910 . S
O75 Zn72 1.933 . S
O75 C86 1.226 . S
O76 Zn74 1.932 . S
O76 C86 1.307 . S
O77 Zn70 1.919 . S
O77 C88 1.253 . S
O78 Zn72 1.941 . S
O78 C88 1.283 . S
O79 Zn72 1.965 . S
O79 C87 1.303 . S
O80 Zn73 1.938 . S
O80 C87 1.247 . S
O81 Zn73 1.906 . S
O81 C89 1.304 . S
O82 Zn70 1.924 . S
O82 C90 1.311 . S
O83 Zn74 1.977 . S
O83 C89 1.272 . S
O84 Zn74 1.910 . S
O84 C90 1.231 . S
C85 O69 1.225 . S
C85 O91 1.298 . S
C86 O75 1.226 . S
C86 O76 1.307 . S
C87 O79 1.303 . S
C87 O80 1.247 . S
C88 O77 1.253 . S
C88 O78 1.283 . S
C89 O81 1.304 . S
C89 O83 1.272 . S
C90 O82 1.311 . S
C90 O84 1.231 . S
O91 Zn73 1.953 . S
O91 C85 1.298 . S
O92 Zn93 1.953 . S
O92 C108 1.225 . S
Zn93 O92 1.953 . S
Zn93 O94 1.949 . S
Zn93 O100 1.919 . S
Zn93 O105 1.924 . S
O94 Zn93 1.949 . S
O94 Zn95 1.923 . S
O94 Zn96 1.950 . S
O94 Zn97 1.945 . S
Zn95 O94 1.923 . S
Zn95 O98 1.933 1_554 S
Zn95 O101 1.941 . S
Zn95 O102 1.965 . S
Zn96 O94 1.950 . S
Zn96 O103 1.938 . S
Zn96 O104 1.906 . S
Zn96 O114 1.953 . S
Zn97 O94 1.945 . S
Zn97 O99 1.932 1_554 S
Zn97 O106 1.977 . S
Zn97 O107 1.910 . S
O98 Zn95 1.933 1_556 S
O98 C109 1.226 . S
O99 Zn97 1.932 1_556 S
O99 C109 1.307 . S
O100 Zn93 1.919 . S
O100 C111 1.253 . S
O101 Zn95 1.941 . S
O101 C111 1.283 . S
O102 Zn95 1.965 . S
O102 C110 1.303 . S
O103 Zn96 1.938 . S
O103 C110 1.247 . S
O104 Zn96 1.906 . S
O104 C112 1.304 . S
O105 Zn93 1.924 . S
O105 C113 1.311 . S
O106 Zn97 1.977 . S
O106 C112 1.272 . S
O107 Zn97 1.910 . S
O107 C113 1.231 . S
C108 O92 1.225 . S
C108 O114 1.298 . S
C109 O98 1.226 . S
C109 O99 1.307 . S
C110 O102 1.303 . S
C110 O103 1.247 . S
C111 O100 1.253 . S
C111 O101 1.283 . S
C112 O104 1.304 . S
C112 O106 1.272 . S
C113 O105 1.311 . S
C113 O107 1.231 . S
O114 Zn96 1.953 . S
O114 C108 1.298 . S
O115 Zn116 1.953 . S
O115 C131 1.225 . S
Zn116 O115 1.953 . S
Zn116 O117 1.949 . S
Zn116 O123 1.919 . S
Zn116 O128 1.924 . S
O117 Zn116 1.949 . S
O117 Zn118 1.923 . S
O117 Zn119 1.950 . S
O117 Zn120 1.945 . S
Zn118 O117 1.923 . S
Zn118 O121 1.933 1_554 S
Zn118 O124 1.941 . S
Zn118 O125 1.965 . S
Zn119 O117 1.950 . S
Zn119 O126 1.938 . S
Zn119 O127 1.906 . S
Zn119 O137 1.953 . S
Zn120 O117 1.945 . S
Zn120 O122 1.932 1_554 S
Zn120 O129 1.977 . S
Zn120 O130 1.910 . S
O121 Zn118 1.933 1_556 S
O121 C132 1.226 . S
O122 Zn120 1.932 1_556 S
O122 C132 1.307 . S
O123 Zn116 1.919 . S
O123 C134 1.253 . S
O124 Zn118 1.941 . S
O124 C134 1.283 . S
O125 Zn118 1.965 . S
O125 C133 1.303 . S
O126 Zn119 1.938 . S
O126 C133 1.247 . S
O127 Zn119 1.906 . S
O127 C135 1.304 . S
O128 Zn116 1.924 . S
O128 C136 1.311 . S
O129 Zn120 1.977 . S
O129 C135 1.272 . S
O130 Zn120 1.910 . S
O130 C136 1.231 . S
C131 O115 1.225 . S
C131 O137 1.298 . S
C132 O121 1.226 . S
C132 O122 1.307 . S
C133 O125 1.303 . S
C133 O126 1.247 . S
C134 O123 1.253 . S
C134 O124 1.283 . S
C135 O127 1.304 . S
C135 O129 1.272 . S
C136 O128 1.311 . S
C136 O130 1.231 . S
O137 Zn119 1.953 . S
O137 C131 1.298 . S
O138 Zn139 1.953 . S
O138 C154 1.225 . S
Zn139 O138 1.953 . S
Zn139 O140 1.949 . S
Zn139 O146 1.919 . S
Zn139 O151 1.924 . S
O140 Zn139 1.949 . S
O140 Zn141 1.923 . S
O140 Zn142 1.950 . S
O140 Zn143 1.945 . S
Zn141 O140 1.923 . S
Zn141 O144 1.933 1_556 S
Zn141 O147 1.941 . S
Zn141 O148 1.965 . S
Zn142 O140 1.950 . S
Zn142 O149 1.938 . S
Zn142 O150 1.906 . S
Zn142 O160 1.953 . S
Zn143 O140 1.945 . S
Zn143 O145 1.932 1_556 S
Zn143 O152 1.977 . S
Zn143 O153 1.910 . S
O144 Zn141 1.933 1_554 S
O144 C155 1.226 . S
O145 Zn143 1.932 1_554 S
O145 C155 1.307 . S
O146 Zn139 1.919 . S
O146 C157 1.253 . S
O147 Zn141 1.941 . S
O147 C157 1.283 . S
O148 Zn141 1.965 . S
O148 C156 1.303 . S
O149 Zn142 1.938 . S
O149 C156 1.247 . S
O150 Zn142 1.906 . S
O150 C158 1.304 . S
O151 Zn139 1.924 . S
O151 C159 1.311 . S
O152 Zn143 1.977 . S
O152 C158 1.272 . S
O153 Zn143 1.910 . S
O153 C159 1.231 . S
C154 O138 1.225 . S
C154 O160 1.298 . S
C155 O144 1.226 . S
C155 O145 1.307 . S
C156 O148 1.303 . S
C156 O149 1.247 . S
C157 O146 1.253 . S
C157 O147 1.283 . S
C158 O150 1.304 . S
C158 O152 1.272 . S
C159 O151 1.311 . S
C159 O153 1.231 . S
O160 Zn142 1.953 . S
O160 C154 1.298 . S
O161 Zn162 1.953 . S
O161 C177 1.225 . S
Zn162 O161 1.953 . S
Zn162 O163 1.949 . S
Zn162 O169 1.919 . S
Zn162 O174 1.924 . S
O163 Zn162 1.949 . S
O163 Zn164 1.923 . S
O163 Zn165 1.950 . S
O163 Zn166 1.945 . S
Zn164 O163 1.923 . S
Zn164 O167 1.933 1_556 S
Zn164 O170 1.941 . S
Zn164 O171 1.965 . S
Zn165 O163 1.950 . S
Zn165 O172 1.938 . S
Zn165 O173 1.906 . S
Zn165 O183 1.953 . S
Zn166 O163 1.945 . S
Zn166 O168 1.932 1_556 S
Zn166 O175 1.977 . S
Zn166 O176 1.910 . S
O167 Zn164 1.933 1_554 S
O167 C178 1.226 . S
O168 Zn166 1.932 1_554 S
O168 C178 1.307 . S
O169 Zn162 1.919 . S
O169 C180 1.253 . S
O170 Zn164 1.941 . S
O170 C180 1.283 . S
O171 Zn164 1.965 . S
O171 C179 1.303 . S
O172 Zn165 1.938 . S
O172 C179 1.247 . S
O173 Zn165 1.906 . S
O173 C181 1.304 . S
O174 Zn162 1.924 . S
O174 C182 1.311 . S
O175 Zn166 1.977 . S
O175 C181 1.272 . S
O176 Zn166 1.910 . S
O176 C182 1.231 . S
C177 O161 1.225 . S
C177 O183 1.298 . S
C178 O167 1.226 . S
C178 O168 1.307 . S
C179 O171 1.303 . S
C179 O172 1.247 . S
C180 O169 1.253 . S
C180 O170 1.283 . S
C181 O173 1.304 . S
C181 O175 1.272 . S
C182 O174 1.311 . S
C182 O176 1.231 . S
O183 Zn165 1.953 . S
O183 C177 1.298 . S
C184 C185 1.170 . S
C184 C186 1.380 . S
C185 C184 1.170 . S
C186 C184 1.380 . S
C186 C187 1.170 . S
C187 C186 1.170 . S
C188 C189 1.170 . S
C188 C190 1.380 . S
C189 C188 1.170 . S
C190 C188 1.380 . S
C190 C191 1.170 . S
C191 C190 1.170 . S
C192 C193 1.170 . S
C192 C194 1.380 . S
C193 C192 1.170 . S
C194 C192 1.380 . S
C194 C195 1.170 . S
C195 C194 1.170 . S
C196 C197 1.170 . S
C196 C198 1.380 . S
C197 C196 1.170 . S
C198 C196 1.380 . S
C198 C199 1.170 . S
C199 C198 1.170 . S
C200 C201 1.170 . S
C200 C202 1.380 1_565 S
C201 C200 1.170 . S
C202 C200 1.380 1_545 S
C202 C203 1.170 . S
C203 C202 1.170 . S
C204 C205 1.170 . S
C204 C206 1.380 . S
C205 C204 1.170 . S
C206 C204 1.380 . S
C206 C207 1.170 . S
C207 C206 1.170 . S
C208 C209 1.170 . S
C208 C210 1.380 1_565 S
C209 C208 1.170 . S
C210 C208 1.380 1_545 S
C210 C211 1.170 . S
C211 C210 1.170 . S
C212 C213 1.170 . S
C212 C214 1.380 . S
C213 C212 1.170 . S
C214 C212 1.380 . S
C214 C215 1.170 . S
C215 C214 1.170 . S
C216 C217 1.170 . S
C216 C218 1.380 1_554 S
C217 C216 1.170 . S
C218 C216 1.380 1_556 S
C218 C219 1.170 . S
C219 C218 1.170 . S
C220 C221 1.170 . S
C220 C222 1.380 1_564 S
C221 C220 1.170 . S
C222 C220 1.380 1_546 S
C222 C223 1.170 . S
C223 C222 1.170 . S
C224 C225 1.170 . S
C224 C226 1.380 1_556 S
C225 C224 1.170 . S
C226 C224 1.380 1_554 S
C226 C227 1.170 . S
C227 C226 1.170 . S
C228 C229 1.170 . S
C228 C230 1.380 1_546 S
C229 C228 1.170 . S
C230 C228 1.380 1_564 S
C230 C231 1.170 . S
C231 C230 1.170 . S
C232 C233 1.170 . S
C232 C234 1.380 . S
C233 C232 1.170 . S
C234 C232 1.380 . S
C234 C235 1.170 1_554 S
C235 C234 1.170 1_556 S
C236 C237 1.170 . S
C236 C238 1.380 . S
C237 C236 1.170 . S
C238 C236 1.380 . S
C238 C239 1.170 1_554 S
C239 C238 1.170 1_556 S
C240 C241 1.170 1_556 S
C240 C242 1.380 . S
C241 C240 1.170 1_554 S
C242 C240 1.380 . S
C242 C243 1.170 . S
C243 C242 1.170 . S
C244 C245 1.170 . S
C244 C246 1.380 . S
C245 C244 1.170 . S
C246 C244 1.380 . S
C246 C247 1.170 1_556 S
C247 C246 1.170 1_554 S
C248 C249 1.170 . S
C248 C250 1.380 . S
C249 C248 1.170 . S
C250 C248 1.380 . S
C250 C251 1.170 . S
C251 C250 1.170 . S
C252 C253 1.170 . S
C252 C254 1.380 . S
C253 C252 1.170 . S
C254 C252 1.380 . S
C254 C255 1.170 . S
C255 C254 1.170 . S
C256 C257 1.170 . S
C256 C258 1.380 . S
C257 C256 1.170 . S
C258 C256 1.380 . S
C258 C259 1.170 . S
C259 C258 1.170 . S
C260 C261 1.170 . S
C260 C262 1.380 . S
C261 C260 1.170 . S
C262 C260 1.380 . S
C262 C263 1.170 . S
C263 C262 1.170 . S
C264 C265 1.170 . S
C264 C266 1.380 1_455 S
C265 C264 1.170 . S
C266 C264 1.380 1_655 S
C266 C267 1.170 . S
C267 C266 1.170 . S
C268 C269 1.170 . S
C268 C270 1.380 1_655 S
C269 C268 1.170 . S
C270 C268 1.380 1_455 S
C270 C271 1.170 . S
C271 C270 1.170 . S
C272 C273 1.170 . S
C272 C274 1.380 . S
C273 C272 1.170 . S
C274 C272 1.380 . S
C274 C275 1.170 . S
C275 C274 1.170 . S
C276 C277 1.170 . S
C276 C278 1.380 . S
C277 C276 1.170 . S
C278 C276 1.380 . S
C278 C279 1.170 . S
C279 C278 1.170 . S
C185 C18 1.461 . S
C187 C179 1.462 . S
C189 C156 1.466 . S
C191 C41 1.465 . S
C193 C133 1.474 . S
C195 C64 1.475 . S
C197 C110 1.449 . S
C199 C87 1.449 . S
C201 C66 1.557 . S
C203 C20 1.561 . S
C205 C43 1.555 . S
C207 C89 1.561 . S
C209 C88 1.520 . S
C211 C42 1.528 . S
C213 C65 1.518 . S
C215 C19 1.529 . S
C217 C112 1.556 . S
C219 C158 1.561 . S
C221 C135 1.554 . S
C223 C181 1.561 . S
C225 C180 1.523 . S
C227 C134 1.518 . S
C229 C157 1.518 . S
C231 C111 1.523 . S
C233 C17 1.409 . S
C235 C16 1.410 . S
C237 C40 1.411 . S
C239 C39 1.415 . S
C241 C62 1.414 . S
C243 C63 1.407 . S
C245 C86 1.408 . S
C247 C85 1.411 . S
C249 C108 1.404 . S
C251 C109 1.417 . S
C253 C132 1.407 . S
C255 C131 1.416 . S
C257 C155 1.412 . S
C259 C154 1.414 . S
C261 C178 1.411 . S
C263 C177 1.407 . S
C265 C21 1.485 . S
C267 C44 1.471 . S
C269 C90 1.485 . S
C271 C67 1.473 . S
C273 C113 1.485 . S
C275 C136 1.473 . S
C277 C182 1.457 . S
C279 C159 1.464 . S
