# Generated by pormake.
# Topology uoe, (4)-cn, num edge types: 1
# Building blocks:
#     Node 0, Type 0, BuildingBlock: NAWXER_clean_sbu_0, # of connection points: 4
#     Node 1, Type 0, BuildingBlock: NAWXER_clean_sbu_0, # of connection points: 4
#     Node 2, Type 0, BuildingBlock: NAWXER_clean_sbu_0, # of connection points: 4
#     Node 3, Type 0, BuildingBlock: NAWXER_clean_sbu_0, # of connection points: 4
#     Node 4, Type 0, BuildingBlock: NAWXER_clean_sbu_0, # of connection points: 4
#     Node 5, Type 0, BuildingBlock: NAWXER_clean_sbu_0, # of connection points: 4
#     Node 6, Type 0, BuildingBlock: NAWXER_clean_sbu_0, # of connection points: 4
#     Node 7, Type 0, BuildingBlock: NAWXER_clean_sbu_0, # of connection points: 4
#     Node 8, Type 0, BuildingBlock: NAWXER_clean_sbu_0, # of connection points: 4
#     Node 9, Type 0, BuildingBlock: NAWXER_clean_sbu_0, # of connection points: 4
#     Node 10, Type 0, BuildingBlock: NAWXER_clean_sbu_0, # of connection points: 4
#     Node 11, Type 0, BuildingBlock: NAWXER_clean_sbu_0, # of connection points: 4
#     Node 12, Type 0, BuildingBlock: NAWXER_clean_sbu_0, # of connection points: 4
#     Node 13, Type 0, BuildingBlock: NAWXER_clean_sbu_0, # of connection points: 4
#     Node 14, Type 0, BuildingBlock: NAWXER_clean_sbu_0, # of connection points: 4
#     Node 15, Type 0, BuildingBlock: NAWXER_clean_sbu_0, # of connection points: 4
#     Node 16, Type 0, BuildingBlock: NAWXER_clean_sbu_0, # of connection points: 4
#     Node 17, Type 0, BuildingBlock: NAWXER_clean_sbu_0, # of connection points: 4
#     Node 18, Type 0, BuildingBlock: NAWXER_clean_sbu_0, # of connection points: 4
#     Node 19, Type 0, BuildingBlock: NAWXER_clean_sbu_0, # of connection points: 4
#     Node 20, Type 0, BuildingBlock: NAWXER_clean_sbu_0, # of connection points: 4
#     Node 21, Type 0, BuildingBlock: NAWXER_clean_sbu_0, # of connection points: 4
#     Node 22, Type 0, BuildingBlock: NAWXER_clean_sbu_0, # of connection points: 4
#     Node 23, Type 0, BuildingBlock: NAWXER_clean_sbu_0, # of connection points: 4
#     Node 24, Type 0, BuildingBlock: NAWXER_clean_sbu_0, # of connection points: 4
#     Node 25, Type 0, BuildingBlock: NAWXER_clean_sbu_0, # of connection points: 4
#     Node 26, Type 0, BuildingBlock: NAWXER_clean_sbu_0, # of connection points: 4
#     Node 27, Type 0, BuildingBlock: NAWXER_clean_sbu_0, # of connection points: 4
#     Node 28, Type 0, BuildingBlock: NAWXER_clean_sbu_0, # of connection points: 4
#     Node 29, Type 0, BuildingBlock: NAWXER_clean_sbu_0, # of connection points: 4
#     Node 30, Type 0, BuildingBlock: NAWXER_clean_sbu_0, # of connection points: 4
#     Node 31, Type 0, BuildingBlock: NAWXER_clean_sbu_0, # of connection points: 4
#     Edge 32, Type (0, 0), BuildingBlock: KIFKEQ_clean_linker_1, # of connection points: 2
#     Edge 33, Type (0, 0), BuildingBlock: KIFKEQ_clean_linker_1, # of connection points: 2
#     Edge 34, Type (0, 0), BuildingBlock: KIFKEQ_clean_linker_1, # of connection points: 2
#     Edge 35, Type (0, 0), BuildingBlock: KIFKEQ_clean_linker_1, # of connection points: 2
#     Edge 36, Type (0, 0), BuildingBlock: KIFKEQ_clean_linker_1, # of connection points: 2
#     Edge 37, Type (0, 0), BuildingBlock: KIFKEQ_clean_linker_1, # of connection points: 2
#     Edge 38, Type (0, 0), BuildingBlock: KIFKEQ_clean_linker_1, # of connection points: 2
#     Edge 39, Type (0, 0), BuildingBlock: KIFKEQ_clean_linker_1, # of connection points: 2
#     Edge 40, Type (0, 0), BuildingBlock: KIFKEQ_clean_linker_1, # of connection points: 2
#     Edge 41, Type (0, 0), BuildingBlock: KIFKEQ_clean_linker_1, # of connection points: 2
#     Edge 42, Type (0, 0), BuildingBlock: KIFKEQ_clean_linker_1, # of connection points: 2
#     Edge 43, Type (0, 0), BuildingBlock: KIFKEQ_clean_linker_1, # of connection points: 2
#     Edge 44, Type (0, 0), BuildingBlock: KIFKEQ_clean_linker_1, # of connection points: 2
#     Edge 45, Type (0, 0), BuildingBlock: KIFKEQ_clean_linker_1, # of connection points: 2
#     Edge 46, Type (0, 0), BuildingBlock: KIFKEQ_clean_linker_1, # of connection points: 2
#     Edge 47, Type (0, 0), BuildingBlock: KIFKEQ_clean_linker_1, # of connection points: 2
#     Edge 48, Type (0, 0), BuildingBlock: KIFKEQ_clean_linker_1, # of connection points: 2
#     Edge 49, Type (0, 0), BuildingBlock: KIFKEQ_clean_linker_1, # of connection points: 2
#     Edge 50, Type (0, 0), BuildingBlock: KIFKEQ_clean_linker_1, # of connection points: 2
#     Edge 51, Type (0, 0), BuildingBlock: KIFKEQ_clean_linker_1, # of connection points: 2
#     Edge 52, Type (0, 0), BuildingBlock: KIFKEQ_clean_linker_1, # of connection points: 2
#     Edge 53, Type (0, 0), BuildingBlock: KIFKEQ_clean_linker_1, # of connection points: 2
#     Edge 54, Type (0, 0), BuildingBlock: KIFKEQ_clean_linker_1, # of connection points: 2
#     Edge 55, Type (0, 0), BuildingBlock: KIFKEQ_clean_linker_1, # of connection points: 2
#     Edge 56, Type (0, 0), BuildingBlock: KIFKEQ_clean_linker_1, # of connection points: 2
#     Edge 57, Type (0, 0), BuildingBlock: KIFKEQ_clean_linker_1, # of connection points: 2
#     Edge 58, Type (0, 0), BuildingBlock: KIFKEQ_clean_linker_1, # of connection points: 2
#     Edge 59, Type (0, 0), BuildingBlock: KIFKEQ_clean_linker_1, # of connection points: 2
#     Edge 60, Type (0, 0), BuildingBlock: KIFKEQ_clean_linker_1, # of connection points: 2
#     Edge 61, Type (0, 0), BuildingBlock: KIFKEQ_clean_linker_1, # of connection points: 2
#     Edge 62, Type (0, 0), BuildingBlock: KIFKEQ_clean_linker_1, # of connection points: 2
#     Edge 63, Type (0, 0), BuildingBlock: KIFKEQ_clean_linker_1, # of connection points: 2
#     Edge 64, Type (0, 0), BuildingBlock: KIFKEQ_clean_linker_1, # of connection points: 2
#     Edge 65, Type (0, 0), BuildingBlock: KIFKEQ_clean_linker_1, # of connection points: 2
#     Edge 66, Type (0, 0), BuildingBlock: KIFKEQ_clean_linker_1, # of connection points: 2
#     Edge 67, Type (0, 0), BuildingBlock: KIFKEQ_clean_linker_1, # of connection points: 2
#     Edge 68, Type (0, 0), BuildingBlock: KIFKEQ_clean_linker_1, # of connection points: 2
#     Edge 69, Type (0, 0), BuildingBlock: KIFKEQ_clean_linker_1, # of connection points: 2
#     Edge 70, Type (0, 0), BuildingBlock: KIFKEQ_clean_linker_1, # of connection points: 2
#     Edge 71, Type (0, 0), BuildingBlock: KIFKEQ_clean_linker_1, # of connection points: 2
#     Edge 72, Type (0, 0), BuildingBlock: KIFKEQ_clean_linker_1, # of connection points: 2
#     Edge 73, Type (0, 0), BuildingBlock: KIFKEQ_clean_linker_1, # of connection points: 2
#     Edge 74, Type (0, 0), BuildingBlock: KIFKEQ_clean_linker_1, # of connection points: 2
#     Edge 75, Type (0, 0), BuildingBlock: KIFKEQ_clean_linker_1, # of connection points: 2
#     Edge 76, Type (0, 0), BuildingBlock: KIFKEQ_clean_linker_1, # of connection points: 2
#     Edge 77, Type (0, 0), BuildingBlock: KIFKEQ_clean_linker_1, # of connection points: 2
#     Edge 78, Type (0, 0), BuildingBlock: KIFKEQ_clean_linker_1, # of connection points: 2
#     Edge 79, Type (0, 0), BuildingBlock: KIFKEQ_clean_linker_1, # of connection points: 2
#     Edge 80, Type (0, 0), BuildingBlock: KIFKEQ_clean_linker_1, # of connection points: 2
#     Edge 81, Type (0, 0), BuildingBlock: KIFKEQ_clean_linker_1, # of connection points: 2
#     Edge 82, Type (0, 0), BuildingBlock: KIFKEQ_clean_linker_1, # of connection points: 2
#     Edge 83, Type (0, 0), BuildingBlock: KIFKEQ_clean_linker_1, # of connection points: 2
#     Edge 84, Type (0, 0), BuildingBlock: KIFKEQ_clean_linker_1, # of connection points: 2
#     Edge 85, Type (0, 0), BuildingBlock: KIFKEQ_clean_linker_1, # of connection points: 2
#     Edge 86, Type (0, 0), BuildingBlock: KIFKEQ_clean_linker_1, # of connection points: 2
#     Edge 87, Type (0, 0), BuildingBlock: KIFKEQ_clean_linker_1, # of connection points: 2
#     Edge 88, Type (0, 0), BuildingBlock: KIFKEQ_clean_linker_1, # of connection points: 2
#     Edge 89, Type (0, 0), BuildingBlock: KIFKEQ_clean_linker_1, # of connection points: 2
#     Edge 90, Type (0, 0), BuildingBlock: KIFKEQ_clean_linker_1, # of connection points: 2
#     Edge 91, Type (0, 0), BuildingBlock: KIFKEQ_clean_linker_1, # of connection points: 2
#     Edge 92, Type (0, 0), BuildingBlock: KIFKEQ_clean_linker_1, # of connection points: 2
#     Edge 93, Type (0, 0), BuildingBlock: KIFKEQ_clean_linker_1, # of connection points: 2
#     Edge 94, Type (0, 0), BuildingBlock: KIFKEQ_clean_linker_1, # of connection points: 2
#     Edge 95, Type (0, 0), BuildingBlock: KIFKEQ_clean_linker_1, # of connection points: 2
# Relax obj value: 0.105
# Max RMSD: 0.239
# Mean RMSD: 0.239
data_MOF--net-uoe--node1-NAWXER_clean_sbu_0--edge1-KIFKEQ_clean_linker_1
_symmetry_space_group_name_H-M    P1
_symmetry_Int_Tables_number       1
_symmetry_cell_setting            triclinic
loop_
_symmetry_equiv_pos_as_xyz
'x, y, z'
_cell_length_a     75.270813
_cell_length_b     75.269276
_cell_length_c     29.151211
_cell_angle_alpha  89.99558
_cell_angle_beta   89.999967
_cell_angle_gamma 90.02095
loop_
_atom_site_label
_atom_site_type_symbol
_atom_site_fract_x
_atom_site_fract_y
_atom_site_fract_z
_atom_type_partial_charge
C0 C 0.11751 0.44479 0.08714 0.0
C1 C 0.06418 0.47842 0.05267 0.0
O2 O 0.12104 0.46145 0.08509 0.0
Zn3 Zn 0.10636 0.48515 0.06585 0.0
O4 O 0.10253 0.4393 0.07311 0.0
Zn5 Zn 0.09161 0.46193 0.06107 0.0
O6 O 0.10127 0.4714 0.99555 0.0
O7 O 0.11708 0.49508 0.01218 0.0
O8 O 0.06634 0.46169 0.05192 0.0
O9 O 0.07778 0.48862 0.05679 0.0
O10 O 0.10936 0.49878 0.12018 0.0
O11 O 0.09311 0.47449 0.12876 0.0
C12 C 0.11084 0.48457 0.98238 0.0
C13 C 0.10031 0.48851 0.14576 0.0
C14 C 0.77277 0.81502 0.30616 0.0
C15 C 0.80801 0.86753 0.3376 0.0
O16 O 0.76287 0.82894 0.30837 0.0
Zn17 Zn 0.76748 0.85773 0.31507 0.0
O18 O 0.78956 0.81672 0.30676 0.0
Zn19 Zn 0.78998 0.84189 0.31327 0.0
O20 O 0.77679 0.84471 0.37983 0.0
O21 O 0.75373 0.86244 0.36851 0.0
O22 O 0.81298 0.85218 0.32515 0.0
O23 O 0.79152 0.87163 0.33442 0.0
O24 O 0.75883 0.86837 0.25949 0.0
O25 O 0.78113 0.85027 0.24612 0.0
C26 C 0.76316 0.85306 0.39536 0.0
C27 C 0.76887 0.86057 0.2311 0.0
C28 C 0.40386 0.51616 0.64625 0.0
C29 C 0.39663 0.52152 0.48181 0.0
O30 O 0.41156 0.53017 0.63078 0.0
Zn31 Zn 0.41456 0.54316 0.56421 0.0
O32 O 0.39529 0.50612 0.61904 0.0
Zn33 Zn 0.3994 0.52023 0.56571 0.0
O34 O 0.42826 0.51637 0.55892 0.0
O35 O 0.43978 0.54335 0.55983 0.0
O36 O 0.38896 0.51137 0.51022 0.0
O37 O 0.4067 0.534 0.49679 0.0
O38 O 0.40376 0.5659 0.57528 0.0
O39 O 0.38483 0.54399 0.58525 0.0
C40 C 0.44194 0.52663 0.55829 0.0
C41 C 0.38857 0.56058 0.58812 0.0
C42 C 0.73949 0.15301 0.89297 0.0
C43 C 0.73524 0.14237 0.7299 0.0
O44 O 0.72559 0.16044 0.876 0.0
Zn45 Zn 0.71307 0.16215 0.80838 0.0
O46 O 0.74964 0.14386 0.86738 0.0
Zn47 Zn 0.73608 0.1471 0.81315 0.0
O48 O 0.74006 0.17561 0.80416 0.0
O49 O 0.71331 0.1874 0.79904 0.0
O50 O 0.74578 0.13616 0.75964 0.0
O51 O 0.72223 0.15215 0.74304 0.0
O52 O 0.69026 0.15165 0.82059 0.0
O53 O 0.71213 0.13281 0.83243 0.0
C54 C 0.73006 0.18934 0.79995 0.0
C55 C 0.69552 0.13659 0.83458 0.0
C56 C 0.09938 0.51308 0.48382 0.0
C57 C 0.11077 0.51687 0.64671 0.0
O58 O 0.09351 0.52778 0.50033 0.0
Zn59 Zn 0.09314 0.5407 0.56769 0.0
O60 O 0.10737 0.50213 0.50981 0.0
Zn61 Zn 0.10582 0.51629 0.56354 0.0
O62 O 0.07719 0.5152 0.57449 0.0
O63 O 0.06795 0.54302 0.57616 0.0
O64 O 0.11616 0.50589 0.61695 0.0
O65 O 0.10207 0.53063 0.63353 0.0
O66 O 0.10608 0.56238 0.55575 0.0
O67 O 0.12224 0.53859 0.54265 0.0
C68 C 0.06446 0.52651 0.57763 0.0
C69 C 0.12035 0.55552 0.54081 0.0
C70 C 0.73367 0.8612 0.89772 0.0
C71 C 0.73911 0.85338 0.73349 0.0
O72 O 0.72091 0.8515 0.88269 0.0
Zn73 Zn 0.71158 0.84363 0.81555 0.0
O74 O 0.74409 0.8685 0.86935 0.0
Zn75 Zn 0.73503 0.85825 0.81372 0.0
O76 O 0.71195 0.87321 0.79365 0.0
O77 O 0.6891 0.85548 0.80385 0.0
O78 O 0.74907 0.86218 0.76042 0.0
O79 O 0.725 0.8458 0.74892 0.0
O80 O 0.71088 0.8183 0.82178 0.0
O81 O 0.73806 0.82944 0.82028 0.0
C82 C 0.69521 0.87034 0.79062 0.0
C83 C 0.7276 0.81594 0.82223 0.0
C84 C 0.38447 0.44734 0.04262 0.0
C85 C 0.44019 0.47768 0.07308 0.0
O86 O 0.38219 0.4642 0.04506 0.0
Zn87 Zn 0.39822 0.4868 0.06505 0.0
O88 O 0.3991 0.4408 0.05612 0.0
Zn89 Zn 0.41179 0.4628 0.06676 0.0
O90 O 0.40456 0.4726 0.13404 0.0
O91 O 0.38829 0.49628 0.12051 0.0
O92 O 0.43708 0.4611 0.07125 0.0
O93 O 0.42713 0.4887 0.07231 0.0
O94 O 0.39523 0.50114 0.01172 0.0
O95 O 0.40974 0.47597 0.0001 0.0
C96 C 0.39531 0.4857 0.14896 0.0
C97 C 0.40308 0.49049 0.98457 0.0
C98 C 0.7747 0.188 0.32409 0.0
C99 C 0.8058 0.1329 0.28978 0.0
O100 O 0.76399 0.17481 0.32001 0.0
Zn101 Zn 0.76609 0.14627 0.31095 0.0
O102 O 0.79135 0.18518 0.32498 0.0
Zn103 Zn 0.79016 0.1598 0.31588 0.0
O104 O 0.77759 0.15884 0.24813 0.0
O105 O 0.75241 0.14399 0.25665 0.0
O106 O 0.81228 0.14743 0.30423 0.0
O107 O 0.78893 0.13056 0.29156 0.0
O108 O 0.75572 0.13593 0.36444 0.0
O109 O 0.7802 0.15047 0.38112 0.0
C110 C 0.76321 0.15239 0.2311 0.0
C111 C 0.7666 0.14151 0.39422 0.0
C112 C 0.9022 0.51699 0.98595 0.0
C113 C 0.89428 0.52292 0.15005 0.0
O114 O 0.89374 0.50689 0.01323 0.0
Zn115 Zn 0.89737 0.52128 0.0663 0.0
O116 O 0.90956 0.53121 0.00122 0.0
Zn117 Zn 0.9121 0.54453 0.06742 0.0
O118 O 0.93733 0.54523 0.07243 0.0
O119 O 0.92626 0.51806 0.07387 0.0
O120 O 0.90415 0.53554 0.13488 0.0
O121 O 0.88695 0.51246 0.12184 0.0
O122 O 0.88237 0.54464 0.04601 0.0
O123 O 0.90086 0.56697 0.05547 0.0
C124 C 0.93976 0.52856 0.07455 0.0
C125 C 0.88579 0.56129 0.04272 0.0
C126 C 0.23376 0.14457 0.89832 0.0
C127 C 0.23894 0.15249 0.73417 0.0
O128 O 0.2441 0.13724 0.86981 0.0
Zn129 Zn 0.23511 0.14776 0.81445 0.0
O130 O 0.22117 0.15452 0.88352 0.0
Zn131 Zn 0.21202 0.16283 0.81663 0.0
O132 O 0.18933 0.15192 0.80543 0.0
O133 O 0.21136 0.13314 0.79492 0.0
O134 O 0.22477 0.15986 0.74964 0.0
O135 O 0.24932 0.1442 0.76109 0.0
O136 O 0.23884 0.17645 0.82155 0.0
O137 O 0.21196 0.18816 0.82276 0.0
C138 C 0.19473 0.13679 0.79229 0.0
C139 C 0.22871 0.19018 0.82355 0.0
C140 C 0.61327 0.48496 0.64706 0.0
C141 C 0.60201 0.4888 0.48413 0.0
O142 O 0.61882 0.49592 0.61742 0.0
Zn143 Zn 0.60838 0.48569 0.56386 0.0
O144 O 0.60428 0.47139 0.63381 0.0
Zn145 Zn 0.59484 0.46158 0.5685 0.0
O146 O 0.60726 0.43954 0.55632 0.0
O147 O 0.6241 0.46295 0.544 0.0
O148 O 0.59562 0.47437 0.50102 0.0
O149 O 0.6105 0.49952 0.50973 0.0
O150 O 0.57987 0.48768 0.57353 0.0
O151 O 0.56946 0.46032 0.57794 0.0
C152 C 0.62178 0.44608 0.54198 0.0
C153 C 0.56667 0.47697 0.57755 0.0
C154 C 0.26338 0.85053 0.23284 0.0
C155 C 0.26798 0.85884 0.39718 0.0
O156 O 0.25273 0.85843 0.25984 0.0
Zn157 Zn 0.26697 0.85557 0.31338 0.0
O158 O 0.27788 0.84387 0.24858 0.0
Zn159 Zn 0.29093 0.84196 0.31548 0.0
O160 O 0.29259 0.81668 0.32068 0.0
O161 O 0.26502 0.8267 0.32152 0.0
O162 O 0.28109 0.8495 0.38258 0.0
O163 O 0.25742 0.86573 0.36848 0.0
O164 O 0.28965 0.87151 0.29354 0.0
O165 O 0.31298 0.85453 0.30494 0.0
C166 C 0.27601 0.81363 0.32272 0.0
C167 C 0.30651 0.86918 0.29136 0.0
C168 C 0.90113 0.49154 0.6476 0.0
C169 C 0.89328 0.48761 0.48306 0.0
O170 O 0.8929 0.50211 0.62101 0.0
Zn171 Zn 0.89626 0.48831 0.56703 0.0
O172 O 0.9082 0.47732 0.63139 0.0
Zn173 Zn 0.91047 0.46463 0.56403 0.0
O174 O 0.93585 0.46372 0.55801 0.0
O175 O 0.92505 0.49099 0.56044 0.0
O176 O 0.90273 0.47458 0.4975 0.0
O177 O 0.88618 0.49799 0.51187 0.0
O178 O 0.88083 0.46522 0.58566 0.0
O179 O 0.89829 0.44226 0.57404 0.0
C180 C 0.93843 0.48041 0.55809 0.0
C181 C 0.88349 0.44841 0.58751 0.0
C182 C 0.26457 0.15162 0.39582 0.0
C183 C 0.26879 0.14351 0.23155 0.0
O184 O 0.25357 0.14409 0.36905 0.0
Zn185 Zn 0.26783 0.14668 0.31548 0.0
O186 O 0.2792 0.15801 0.38018 0.0
Zn187 Zn 0.29199 0.1602 0.31293 0.0
O188 O 0.29352 0.18568 0.30711 0.0
O189 O 0.26605 0.17539 0.30859 0.0
O190 O 0.28204 0.15262 0.24621 0.0
O191 O 0.25808 0.13681 0.26019 0.0
O192 O 0.29044 0.1306 0.33475 0.0
O193 O 0.31393 0.14739 0.32325 0.0
C194 C 0.27688 0.18857 0.30664 0.0
C195 C 0.30732 0.13279 0.33682 0.0
C196 C 0.61282 0.51596 0.98301 0.0
C197 C 0.60161 0.51247 0.146 0.0
O198 O 0.61831 0.50504 0.01281 0.0
Zn199 Zn 0.60787 0.5154 0.0662 0.0
O200 O 0.60384 0.52955 0.99605 0.0
Zn201 Zn 0.59438 0.53946 0.06121 0.0
O202 O 0.60672 0.56155 0.07287 0.0
O203 O 0.62362 0.53825 0.08569 0.0
O204 O 0.59519 0.52686 0.12896 0.0
O205 O 0.61004 0.50169 0.12047 0.0
O206 O 0.57931 0.51334 0.05663 0.0
O207 O 0.56904 0.54072 0.0517 0.0
C208 C 0.62126 0.55512 0.08734 0.0
C209 C 0.56617 0.52409 0.05237 0.0
C210 C 0.2258 0.81407 0.80503 0.0
C211 C 0.19365 0.8684 0.83729 0.0
O212 O 0.20915 0.81663 0.80732 0.0
Zn213 Zn 0.21015 0.84187 0.81251 0.0
O214 O 0.23642 0.82748 0.80593 0.0
Zn215 Zn 0.23354 0.85639 0.81396 0.0
O216 O 0.24791 0.85972 0.8673 0.0
O217 O 0.22342 0.84412 0.87884 0.0
O218 O 0.21034 0.87163 0.83421 0.0
O219 O 0.18783 0.85341 0.8243 0.0
O220 O 0.21943 0.84965 0.74513 0.0
O221 O 0.24258 0.86673 0.75845 0.0
C222 C 0.2377 0.85128 0.89437 0.0
C223 C 0.23217 0.85939 0.73009 0.0
C224 C 0.56462 0.98074 0.5571 0.0
C225 C 0.61889 0.94777 0.58621 0.0
O226 O 0.57818 0.99112 0.55936 0.0
Zn227 Zn 0.60699 0.98784 0.56524 0.0
O228 O 0.56692 0.96402 0.55673 0.0
Zn229 Zn 0.59225 0.96449 0.56254 0.0
O230 O 0.59472 0.97735 0.62976 0.0
O231 O 0.6112 1.00141 0.6192 0.0
O232 O 0.60396 0.94184 0.57297 0.0
O233 O 0.62186 0.96451 0.58387 0.0
O234 O 0.61715 0.99725 0.5099 0.0
O235 O 0.60006 0.97421 0.49576 0.0
C236 C 0.60245 0.99126 0.64578 0.0
C237 C 0.60977 0.98703 0.48117 0.0
C238 C 0.27779 0.31508 0.80443 0.0
C239 C 0.30797 0.37072 0.83687 0.0
O240 O 0.26679 0.32814 0.80549 0.0
Zn241 Zn 0.26858 0.357 0.8138 0.0
O242 O 0.29437 0.31814 0.80679 0.0
Zn243 Zn 0.2926 0.34344 0.812 0.0
O244 O 0.27934 0.34519 0.87863 0.0
O245 O 0.25416 0.35969 0.86716 0.0
O246 O 0.31456 0.35616 0.82311 0.0
O247 O 0.29111 0.37298 0.83435 0.0
O248 O 0.25915 0.36712 0.75847 0.0
O249 O 0.28284 0.35088 0.74475 0.0
C250 C 0.26478 0.35176 0.89422 0.0
C251 C 0.26974 0.36017 0.72993 0.0
C252 C 0.8923 0.01572 0.98379 0.0
C253 C 0.90159 0.0126 0.14751 0.0
O254 O 0.90119 0.02934 0.9971 0.0
Zn255 Zn 0.90983 0.03948 0.06296 0.0
O256 O 0.88627 0.00508 0.01353 0.0
Zn257 Zn 0.89616 0.01557 0.06744 0.0
O258 O 0.88041 0.03846 0.08597 0.0
O259 O 0.89749 0.06167 0.07371 0.0
O260 O 0.89303 1.00206 0.12161 0.0
O261 O 0.90855 0.02682 0.13087 0.0
O262 O 0.93516 0.04084 0.05498 0.0
O263 O 0.92491 0.01342 0.06003 0.0
C264 C 0.88284 0.05532 0.08768 0.0
C265 C 0.93806 0.02422 0.05629 0.0
C266 C 0.23649 0.64253 0.23242 0.0
C267 C 0.24089 0.65081 0.3969 0.0
O268 O 0.22343 0.6519 0.24704 0.0
Zn269 Zn 0.21359 0.65965 0.31374 0.0
O270 O 0.24699 0.63554 0.26113 0.0
Zn271 Zn 0.23741 0.64564 0.31643 0.0
O272 O 0.21453 0.63003 0.3358 0.0
O273 O 0.19138 0.64725 0.32441 0.0
O274 O 0.25144 0.64259 0.37023 0.0
O275 O 0.22654 0.65768 0.38086 0.0
O276 O 0.21241 0.68503 0.30735 0.0
O277 O 0.23977 0.67444 0.30919 0.0
C278 C 0.1977 0.63252 0.33794 0.0
C279 C 0.22909 0.68773 0.30689 0.0
C280 C 0.56453 0.02627 0.07092 0.0
C281 C 0.61763 0.06038 0.03908 0.0
O282 O 0.57826 0.01606 0.0708 0.0
Zn283 Zn 0.60721 0.02019 0.0639 0.0
O284 O 0.5666 0.04299 0.06851 0.0
Zn285 Zn 0.59174 0.04288 0.06391 0.0
O286 O 0.59457 0.02907 0.99839 0.0
O287 O 0.61183 0.00579 0.01141 0.0
O288 O 0.60234 0.06563 0.05119 0.0
O289 O 0.62153 0.04387 0.04313 0.0
O290 O 0.61766 0.01195 0.12002 0.0
O291 O 0.59957 0.0344 0.13197 0.0
C292 C 0.60268 0.01515 0.98385 0.0
C293 C 0.60977 0.02219 0.14776 0.0
C294 C 0.23899 0.35137 0.23266 0.0
C295 C 0.23367 0.35918 0.39708 0.0
O296 O 0.2249 0.34386 0.24829 0.0
Zn297 Zn 0.21186 0.34124 0.31489 0.0
O298 O 0.24909 0.35995 0.25971 0.0
Zn299 Zn 0.23491 0.3562 0.31316 0.0
O300 O 0.23848 0.32733 0.3209 0.0
O301 O 0.2114 0.31604 0.31991 0.0
O302 O 0.24385 0.36673 0.36855 0.0
O303 O 0.2211 0.34918 0.38223 0.0
O304 O 0.18922 0.35223 0.30358 0.0
O305 O 0.21129 0.37094 0.29328 0.0
C306 C 0.22809 0.31374 0.32185 0.0
C307 C 0.19466 0.36734 0.29048 0.0
C308 C 0.89318 0.98328 0.64804 0.0
C309 C 0.90263 0.9888 0.48496 0.0
O310 O 0.90277 0.97025 0.63403 0.0
Zn311 Zn 0.91175 0.96125 0.56713 0.0
O312 O 0.88666 0.99385 0.61883 0.0
Zn313 Zn 0.8972 0.98443 0.56463 0.0
O314 O 0.88227 0.961 0.54405 0.0
O315 O 0.90076 0.93876 0.55439 0.0
O316 O 0.89364 0.99862 0.5117 0.0
O317 O 0.9101 0.97465 0.50041 0.0
O318 O 0.93688 0.96042 0.57434 0.0
O319 O 0.92604 0.98766 0.57345 0.0
C320 C 0.88576 0.94435 0.54095 0.0
C321 C 0.93944 0.97708 0.57559 0.0
C322 C 0.31134 0.63718 0.79303 0.0
C323 C 0.27656 0.6899 0.82506 0.0
O324 O 0.2948 0.63323 0.79584 0.0
Zn325 Zn 0.27086 0.64732 0.81553 0.0
O326 O 0.31648 0.6524 0.80614 0.0
Zn327 Zn 0.29359 0.66288 0.81782 0.0
O328 O 0.28459 0.65437 0.88474 0.0
O329 O 0.26206 0.63657 0.87085 0.0
O330 O 0.29333 0.68814 0.82445 0.0
O331 O 0.26661 0.67602 0.82279 0.0
O332 O 0.2569 0.64328 0.76203 0.0
O333 O 0.28063 0.6601 0.75094 0.0
C334 C 0.27219 0.64414 0.89946 0.0
C335 C 0.26675 0.65223 0.73517 0.0
C336 C 0.38319 0.05596 0.5432 0.0
C337 C 0.43898 0.02718 0.58118 0.0
O338 O 0.39741 0.06285 0.55831 0.0
Zn339 Zn 0.41032 0.04124 0.57074 0.0
O340 O 0.38128 0.03903 0.54522 0.0
Zn341 Zn 0.39766 0.01681 0.56676 0.0
O342 O 0.38722 0.00655 0.6203 0.0
O343 O 0.40133 0.03132 0.63657 0.0
O344 O 0.42629 0.01582 0.57804 0.0
O345 O 0.43547 0.04367 0.57952 0.0
O346 O 0.41018 0.02814 0.50362 0.0
O347 O 0.39625 0.00251 0.51318 0.0
C348 C 0.3926 0.01759 0.64992 0.0
C349 C 0.40435 0.01339 0.48721 0.0
C350 C 0.736 0.6435 0.39552 0.0
C351 C 0.73944 0.65488 0.2325 0.0
O352 O 0.74701 0.63822 0.36571 0.0
Zn353 Zn 0.7364 0.64837 0.31232 0.0
O354 O 0.7221 0.65199 0.38237 0.0
Zn355 Zn 0.71181 0.66073 0.31657 0.0
O356 O 0.69033 0.64745 0.3049 0.0
O357 O 0.71433 0.63161 0.2918 0.0
O358 O 0.72467 0.66055 0.24912 0.0
O359 O 0.75051 0.64703 0.25843 0.0
O360 O 0.73704 0.67701 0.32337 0.0
O361 O 0.70911 0.6859 0.32507 0.0
C362 C 0.69737 0.63326 0.29011 0.0
C363 C 0.72557 0.68959 0.32661 0.0
C364 C 0.11831 0.94684 0.04266 0.0
C365 C 0.06415 0.97852 0.07806 0.0
O366 O 0.10359 0.94102 0.05749 0.0
Zn367 Zn 0.09219 0.96328 0.06933 0.0
O368 O 0.12147 0.96359 0.04459 0.0
Zn369 Zn 0.10608 0.98685 0.06515 0.0
O370 O 0.11669 0.99686 0.11878 0.0
O371 O 0.10132 0.9729 0.13537 0.0
O372 O 0.07729 0.98939 0.07504 0.0
O373 O 0.06709 0.96191 0.07735 0.0
O374 O 0.09332 0.97608 0.00181 0.0
O375 O 0.10858 1.00092 0.01142 0.0
C376 C 0.11063 0.98626 0.14858 0.0
C377 C 0.10003 0.99044 0.98535 0.0
C378 C 0.76893 0.36055 0.89607 0.0
C379 C 0.76507 0.34918 0.73323 0.0
O380 O 0.75789 0.36593 0.86645 0.0
Zn381 Zn 0.76824 0.35563 0.81296 0.0
O382 O 0.78267 0.35185 0.88276 0.0
Zn383 Zn 0.79269 0.34289 0.81702 0.0
O384 O 0.81435 0.35587 0.80491 0.0
O385 O 0.79051 0.37203 0.79229 0.0
O386 O 0.77975 0.34328 0.74984 0.0
O387 O 0.75413 0.35724 0.7591 0.0
O388 O 0.76713 0.32702 0.82359 0.0
O389 O 0.7949 0.31766 0.82537 0.0
C390 C 0.80744 0.37016 0.79026 0.0
C391 C 0.77838 0.31424 0.82663 0.0
C392 C 0.40409 0.98907 0.1491 0.0
C393 C 0.39304 0.98579 0.98586 0.0
O394 O 0.39573 0.9999 0.12353 0.0
Zn395 Zn 0.39781 0.98618 0.06921 0.0
O396 O 0.41041 0.97464 0.13206 0.0
Zn397 Zn 0.41115 0.96203 0.06421 0.0
O398 O 0.43652 0.96054 0.05491 0.0
O399 O 0.42637 0.98798 0.05973 0.0
O400 O 0.40191 0.97213 -0.00111 0.0
O401 O 0.38751 0.99666 0.01573 0.0
O402 O 0.3819 0.96347 0.08865 0.0
O403 O 0.39859 0.94003 0.07572 0.0
C404 C 0.43946 0.97717 0.05556 0.0
C405 C 0.38411 0.94658 0.09025 0.0
C406 C 0.76411 0.65512 0.8943 0.0
C407 C 0.76845 0.64418 0.73117 0.0
O408 O 0.75369 0.64642 0.86839 0.0
Zn409 Zn 0.76773 0.64889 0.8145 0.0
O410 O 0.77842 0.66189 0.87769 0.0
Zn411 Zn 0.79125 0.66295 0.81031 0.0
O412 O 0.79243 0.68806 0.8019 0.0
O413 O 0.76504 0.67761 0.80406 0.0
O414 O 0.78174 0.65359 0.74441 0.0
O415 O 0.75783 0.63811 0.76093 0.0
O416 O 0.79105 0.63367 0.83509 0.0
O417 O 0.81356 0.65167 0.82243 0.0
C418 C 0.7758 0.69083 0.80091 0.0
C419 C 0.80779 0.63691 0.83714 0.0
C420 C 0.10067 0.01569 0.64743 0.0
C421 C 0.11088 0.01932 0.48387 0.0
O422 O 0.10957 0.00535 0.62173 0.0
Zn423 Zn 0.10654 0.01895 0.56744 0.0
O424 O 0.09351 0.02974 0.63048 0.0
Zn425 Zn 0.09196 0.04221 0.56254 0.0
O426 O 0.0667 0.04264 0.55366 0.0
O427 O 0.07791 0.01563 0.55878 0.0
O428 O 0.10141 0.03257 0.49694 0.0
O429 O 0.11712 0.00887 0.51378 0.0
O430 O 0.12138 0.04262 0.58645 0.0
O431 O 0.10297 0.06481 0.57405 0.0
C432 C 0.06439 0.02593 0.55465 0.0
C433 C 0.11792 0.0593 0.58824 0.0
C434 C 0.69884 0.36952 0.33761 0.0
C435 C 0.72848 0.31391 0.30166 0.0
O436 O 0.69212 0.35515 0.3229 0.0
Zn437 Zn 0.71392 0.34245 0.31102 0.0
O438 O 0.71576 0.37159 0.33574 0.0
Zn439 Zn 0.73823 0.3554 0.31521 0.0
O440 O 0.74854 0.36579 0.26172 0.0
O441 O 0.72388 0.35148 0.24533 0.0
O442 O 0.73965 0.32676 0.30473 0.0
O443 O 0.71193 0.31723 0.30272 0.0
O444 O 0.72678 0.34299 0.37831 0.0
O445 O 0.75228 0.3572 0.36914 0.0
C446 C 0.73755 0.36031 0.23207 0.0
C447 C 0.74138 0.34905 0.39498 0.0
H448 H 0.9703 0.54627 0.0538 0.0
H449 H 0.95062 0.49448 0.09249 0.0
H450 H 1.00004 0.53423 0.04612 0.0
H451 H 0.98066 0.4825 0.08702 0.0
H452 H 0.03291 0.46221 0.02892 0.0
H453 H 0.00296 0.47436 0.03441 0.0
H454 H 0.02457 0.52367 0.08627 0.0
H455 H 0.05441 0.51181 0.07861 0.0
C456 C 0.97238 0.53234 0.06148 0.0
C457 C 0.95807 0.52134 0.07385 0.0
C458 C 0.98951 0.52542 0.05724 0.0
C459 C 0.99288 0.50734 0.06591 0.0
C460 C 0.97858 0.4964 0.07917 0.0
C461 C 0.96136 0.5033 0.08279 0.0
C462 C 0.03123 0.47571 0.04102 0.0
C463 C 0.04605 0.48607 0.05305 0.0
C464 C 0.01403 0.48263 0.04466 0.0
C465 C 0.01122 0.50001 0.06104 0.0
C466 C 0.02613 0.51037 0.07275 0.0
C467 C 0.0433 0.50354 0.06847 0.0
H468 H 0.78858 0.78389 0.28147 0.0
H469 H 0.73919 0.8054 0.33233 0.0
H470 H 0.77657 0.754 0.28749 0.0
H471 H 0.72735 0.77539 0.34038 0.0
H472 H 0.70616 0.71948 0.3083 0.0
H473 H 0.71696 0.74989 0.30176 0.0
H474 H 0.76937 0.73248 0.3426 0.0
H475 H 0.7587 0.70201 0.34706 0.0
C476 C 0.77513 0.78221 0.294 0.0
C477 C 0.76484 0.79701 0.30642 0.0
C478 C 0.76828 0.76503 0.29794 0.0
C479 C 0.75104 0.76216 0.3151 0.0
C480 C 0.74061 0.77704 0.32663 0.0
C481 C 0.7474 0.79427 0.32208 0.0
C482 C 0.71995 0.72219 0.31629 0.0
C483 C 0.7316 0.70831 0.32798 0.0
C484 C 0.72616 0.73967 0.31264 0.0
C485 C 0.74412 0.74371 0.32112 0.0
C486 C 0.75557 0.72986 0.33458 0.0
C487 C 0.74942 0.71238 0.33762 0.0
H488 H 0.47248 0.54384 0.58095 0.0
H489 H 0.45252 0.49245 0.53989 0.0
H490 H 0.50209 0.5316 0.58839 0.0
H491 H 0.48253 0.48024 0.54504 0.0
H492 H 0.53564 0.45982 0.60016 0.0
H493 H 0.50543 0.47158 0.59584 0.0
H494 H 0.52622 0.52162 0.54642 0.0
H495 H 0.55618 0.51019 0.553 0.0
C496 C 0.47448 0.52995 0.5727 0.0
C497 C 0.46013 0.51915 0.55955 0.0
C498 C 0.49155 0.52291 0.5768 0.0
C499 C 0.49486 0.5049 0.56709 0.0
C500 C 0.4805 0.4941 0.5535 0.0
C501 C 0.46331 0.50112 0.55008 0.0
C502 C 0.5337 0.47339 0.58887 0.0
C503 C 0.54832 0.48411 0.57735 0.0
C504 C 0.51636 0.4801 0.58592 0.0
C505 C 0.51326 0.49761 0.57079 0.0
C506 C 0.52798 0.50824 0.55922 0.0
C507 C 0.54525 0.50164 0.56283 0.0
H508 H 0.71424 0.22071 0.77611 0.0
H509 H 0.76352 0.19882 0.82664 0.0
H510 H 0.72638 0.25057 0.78334 0.0
H511 H 0.77542 0.22865 0.83594 0.0
H512 H 0.79735 0.2842 0.80726 0.0
H513 H 0.7861 0.25407 0.79856 0.0
H514 H 0.73378 0.27194 0.83881 0.0
H515 H 0.74492 0.3022 0.84538 0.0
C516 C 0.72768 0.22229 0.78873 0.0
C517 C 0.73792 0.20739 0.80068 0.0
C518 C 0.73461 0.23944 0.79339 0.0
C519 C 0.75186 0.24214 0.81077 0.0
C520 C 0.76219 0.22717 0.82192 0.0
C521 C 0.75534 0.21001 0.81666 0.0
C522 C 0.78349 0.28165 0.8147 0.0
C523 C 0.77203 0.29561 0.82691 0.0
C524 C 0.77701 0.26433 0.80978 0.0
C525 C 0.75895 0.26049 0.81753 0.0
C526 C 0.74765 0.2744 0.83137 0.0
C527 C 0.75408 0.29175 0.83567 0.0
H528 H 0.05223 0.49323 0.59797 0.0
H529 H 0.03451 0.54562 0.5586 0.0
H530 H 0.02177 0.48243 0.59386 0.0
H531 H 0.00421 0.53471 0.55222 0.0
H532 H 0.94894 0.51365 0.5837 0.0
H533 H 0.97908 0.52486 0.59152 0.0
H534 H 0.99954 0.47483 0.54121 0.0
H535 H 0.96934 0.46338 0.53562 0.0
C536 C 0.04181 0.50245 0.58845 0.0
C537 C 0.04579 0.52029 0.57873 0.0
C538 C 0.02433 0.49622 0.58559 0.0
C539 C 0.01042 0.50761 0.57223 0.0
C540 C 0.01444 0.52555 0.56325 0.0
C541 C 0.03187 0.53183 0.56679 0.0
C542 C 0.95987 0.50509 0.57403 0.0
C543 C 0.95674 0.48762 0.55903 0.0
C544 C 0.97722 0.51154 0.57838 0.0
C545 C 0.99188 0.50078 0.5672 0.0
C546 C 0.98866 0.48341 0.55117 0.0
C547 C 0.97132 0.47688 0.54749 0.0
H548 H 0.74191 0.70212 0.78294 0.0
H549 H 0.79416 0.7212 0.81926 0.0
H550 H 0.73042 0.73236 0.78749 0.0
H551 H 0.78262 0.75117 0.8262 0.0
H552 H 0.76072 0.80583 0.7951 0.0
H553 H 0.77218 0.77583 0.78678 0.0
H554 H 0.72277 0.75479 0.83965 0.0
H555 H 0.71103 0.78487 0.84562 0.0
C556 C 0.75093 0.71278 0.79189 0.0
C557 C 0.76895 0.70927 0.80051 0.0
C558 C 0.74433 0.73012 0.795 0.0
C559 C 0.75553 0.74432 0.80752 0.0
C560 C 0.7736 0.74073 0.81568 0.0
C561 C 0.78024 0.72347 0.81185 0.0
C562 C 0.75236 0.79479 0.80527 0.0
C563 C 0.73499 0.79772 0.82113 0.0
C564 C 0.75895 0.77754 0.80062 0.0
C565 C 0.74844 0.76275 0.81246 0.0
C566 C 0.73115 0.76576 0.82924 0.0
C567 C 0.72446 0.78303 0.83316 0.0
H568 H 0.53539 0.54152 0.02961 0.0
H569 H 0.55528 0.49089 0.07674 0.0
H570 H 0.50505 0.53024 0.03446 0.0
H571 H 0.5251 0.47989 0.08376 0.0
H572 H 0.47012 0.45913 0.05113 0.0
H573 H 0.50023 0.47033 0.04344 0.0
H574 H 0.48253 0.52236 0.0866 0.0
H575 H 0.45216 0.51125 0.09208 0.0
C576 C 0.53328 0.52798 0.04101 0.0
C577 C 0.54776 0.51708 0.05251 0.0
C578 C 0.51586 0.52155 0.04426 0.0
C579 C 0.5125 0.50413 0.05972 0.0
C580 C 0.52707 0.49325 0.07092 0.0
C581 C 0.54445 0.49959 0.06703 0.0
C582 C 0.47266 0.47293 0.05929 0.0
C583 C 0.45873 0.48428 0.07231 0.0
C584 C 0.49 0.47938 0.05503 0.0
C585 C 0.49394 0.4973 0.06435 0.0
C586 C 0.48001 0.50858 0.07823 0.0
C587 C 0.4626 0.50217 0.08185 0.0
H588 H 0.762 0.30187 0.28303 0.0
H589 H 0.70954 0.28392 0.32114 0.0
H590 H 0.773 0.2715 0.28853 0.0
H591 H 0.72062 0.25376 0.32893 0.0
H592 H 0.74165 0.19867 0.29805 0.0
H593 H 0.7306 0.22878 0.28991 0.0
H594 H 0.78051 0.24917 0.34126 0.0
H595 H 0.79187 0.2189 0.34714 0.0
C596 C 0.75281 0.29142 0.29255 0.0
C597 C 0.73488 0.2953 0.30142 0.0
C598 C 0.75916 0.274 0.29623 0.0
C599 C 0.74778 0.26007 0.30955 0.0
C600 C 0.72977 0.264 0.31787 0.0
C601 C 0.72339 0.28136 0.31351 0.0
C602 C 0.75024 0.20957 0.30796 0.0
C603 C 0.76764 0.20637 0.32335 0.0
C604 C 0.74386 0.2269 0.30343 0.0
C605 C 0.75462 0.24155 0.31484 0.0
C606 C 0.77193 0.2383 0.33121 0.0
C607 C 0.77841 0.22092 0.33508 0.0
H608 H 0.24437 0.30345 0.78325 0.0
H609 H 0.29606 0.28485 0.82586 0.0
H610 H 0.23292 0.27323 0.78766 0.0
H611 H 0.28449 0.25479 0.83244 0.0
H612 H 0.26245 0.19984 0.79982 0.0
H613 H 0.27443 0.22974 0.79264 0.0
H614 H 0.22456 0.25135 0.84069 0.0
H615 H 0.21238 0.22145 0.84572 0.0
C616 C 0.25328 0.2929 0.7936 0.0
C617 C 0.27112 0.29656 0.80411 0.0
C618 C 0.24669 0.27556 0.7966 0.0
C619 C 0.2577 0.26147 0.81086 0.0
C620 C 0.27563 0.26516 0.82072 0.0
C621 C 0.28228 0.28246 0.81709 0.0
C622 C 0.2541 0.21098 0.80916 0.0
C623 C 0.23646 0.20827 0.82329 0.0
C624 C 0.26098 0.22817 0.80517 0.0
C625 C 0.25048 0.24309 0.81581 0.0
C626 C 0.23295 0.24028 0.83112 0.0
C627 C 0.22599 0.2231 0.83448 0.0
H628 H 0.24254 0.80184 0.34343 0.0
H629 H 0.29442 0.78351 0.30154 0.0
H630 H 0.23136 0.77147 0.33984 0.0
H631 H 0.28314 0.75336 0.29569 0.0
H632 H 0.26244 0.69846 0.33057 0.0
H633 H 0.27365 0.72863 0.33681 0.0
H634 H 0.22317 0.7488 0.28879 0.0
H635 H 0.21172 0.71854 0.28479 0.0
C636 C 0.25155 0.79132 0.33338 0.0
C637 C 0.26938 0.79509 0.32298 0.0
C638 C 0.2451 0.7739 0.33085 0.0
C639 C 0.25628 0.75984 0.31721 0.0
C640 C 0.27416 0.76369 0.30711 0.0
C641 C 0.28065 0.78105 0.31029 0.0
C642 C 0.25377 0.70933 0.32106 0.0
C643 C 0.23619 0.70609 0.30712 0.0
C644 C 0.26022 0.72669 0.32448 0.0
C645 C 0.24936 0.7413 0.31337 0.0
C646 C 0.23185 0.73798 0.29857 0.0
C647 C 0.22531 0.7206 0.29581 0.0
H648 H 0.24371 0.19927 0.33119 0.0
H649 H 0.29434 0.21948 0.28496 0.0
H650 H 0.23243 0.22934 0.33733 0.0
H651 H 0.28276 0.24975 0.2888 0.0
H652 H 0.26209 0.30301 0.34182 0.0
H653 H 0.27406 0.27287 0.33852 0.0
H654 H 0.22273 0.2534 0.29462 0.0
H655 H 0.21071 0.28317 0.30023 0.0
C656 C 0.25236 0.21016 0.32155 0.0
C657 C 0.2699 0.20696 0.30734 0.0
C658 C 0.24585 0.22747 0.3249 0.0
C659 C 0.2566 0.24211 0.31335 0.0
C660 C 0.27415 0.23888 0.29871 0.0
C661 C 0.28076 0.22151 0.29605 0.0
C662 C 0.25337 0.29222 0.33189 0.0
C663 C 0.23542 0.29547 0.32167 0.0
C664 C 0.26026 0.27494 0.32955 0.0
C665 C 0.2494 0.26057 0.31632 0.0
C666 C 0.23146 0.26396 0.30595 0.0
C667 C 0.22454 0.28112 0.30897 0.0
H668 H 0.2924 0.72131 0.84823 0.0
H669 H 0.24286 0.69919 0.80008 0.0
H670 H 0.27995 0.75109 0.84292 0.0
H671 H 0.23062 0.72897 0.7926 0.0
H672 H 0.25967 0.80314 0.78549 0.0
H673 H 0.2716 0.77308 0.79009 0.0
H674 H 0.22005 0.75369 0.83244 0.0
H675 H 0.20804 0.78351 0.82564 0.0
C676 C 0.27884 0.72282 0.83645 0.0
C677 C 0.2686 0.70789 0.82475 0.0
C678 C 0.27173 0.73993 0.83291 0.0
C679 C 0.25428 0.74256 0.81692 0.0
C680 C 0.244 0.72754 0.80569 0.0
C681 C 0.25103 0.71042 0.80988 0.0
C682 C 0.25087 0.7924 0.79534 0.0
C683 C 0.2329 0.79572 0.80505 0.0
C684 C 0.25774 0.77516 0.79845 0.0
C685 C 0.24685 0.76086 0.812 0.0
C686 C 0.22882 0.76423 0.8212 0.0
C687 C 0.22191 0.7814 0.81747 0.0
H688 H 0.45127 0.9939 0.60111 0.0
H689 H 0.46889 0.0464 0.56236 0.0
H690 H 0.4817 0.98311 0.59606 0.0
H691 H 0.49917 0.03551 0.5551 0.0
H692 H 0.55457 0.01398 0.58411 0.0
H693 H 0.52452 0.02535 0.59336 0.0
H694 H 0.50345 0.97577 0.54172 0.0
H695 H 0.53351 0.96416 0.53462 0.0
C696 C 0.46166 0.00315 0.59157 0.0
C697 C 0.45766 0.02101 0.5822 0.0
C698 C 0.47912 0.99693 0.58817 0.0
C699 C 0.49298 0.00835 0.57461 0.0
C700 C 0.48897 0.02633 0.5662 0.0
C701 C 0.47155 0.0326 0.57025 0.0
C702 C 0.54351 0.00556 0.57442 0.0
C703 C 0.54642 0.98816 0.55864 0.0
C704 C 0.52624 0.0121 0.57963 0.0
C705 C 0.51144 1.00149 0.56858 0.0
C706 C 0.51444 0.98422 0.55166 0.0
C707 C 0.5317 0.9776 0.5471 0.0
H708 H 0.9687 0.0414 0.03154 0.0
H709 H 0.94908 0.99165 0.08522 0.0
H710 H 0.99909 0.03039 0.03749 0.0
H711 H 0.97933 0.98096 0.09345 0.0
H712 H 0.03402 0.95967 0.06059 0.0
H713 H 0.0039 0.97072 0.05343 0.0
H714 H 0.02199 0.02346 0.08936 0.0
H715 H 0.05242 0.01244 0.09418 0.0
C716 C 0.97089 0.02812 0.04468 0.0
C717 C 0.95648 0.01735 0.05755 0.0
C718 C 0.98834 0.02185 0.04857 0.0
C719 C 0.99179 0.00475 0.06612 0.0
C720 C 0.97729 0.99404 0.07894 0.0
C721 C 0.95988 1.0002 0.07435 0.0
C722 C 0.03157 0.97361 0.06733 0.0
C723 C 0.04563 0.98517 0.07806 0.0
C724 C 0.01422 0.97997 0.06339 0.0
C725 C 0.01037 0.99803 0.07081 0.0
C726 C 0.02443 0.00954 0.08251 0.0
C727 C 0.04187 0.0032 0.08577 0.0
H728 H 0.55396 0.99211 0.09031 0.0
H729 H 0.53395 0.04337 0.04842 0.0
H730 H 0.52387 0.97995 0.08635 0.0
H731 H 0.50428 0.03119 0.04225 0.0
H732 H 0.45032 0.01028 0.08004 0.0
H733 H 0.48041 0.02149 0.08581 0.0
H734 H 0.50061 0.97125 0.03624 0.0
H735 H 0.47028 0.95972 0.03266 0.0
C736 C 0.54316 1.00076 0.08019 0.0
C737 C 0.54633 0.01874 0.07016 0.0
C738 C 0.52592 0.99376 0.07748 0.0
C739 C 0.51152 0.00456 0.06411 0.0
C740 C 0.51486 0.02251 0.05374 0.0
C741 C 0.53196 0.02952 0.0571 0.0
C742 C 0.46115 1.00163 0.07003 0.0
C743 C 0.45788 0.98413 0.05561 0.0
C744 C 0.47848 0.0081 0.07318 0.0
C745 C 0.49307 0.99736 0.06125 0.0
C746 C 0.48978 0.97985 0.04637 0.0
C747 C 0.47238 0.97328 0.04386 0.0
H748 H 0.05424 0.99288 0.58234 0.0
H749 H 0.03338 0.04224 0.52949 0.0
H750 H 0.02425 0.98135 0.59008 0.0
H751 H 0.00329 0.03041 0.53501 0.0
H752 H 0.9505 0.01121 0.59216 0.0
H753 H 0.98069 0.02289 0.58722 0.0
H754 H 0.9998 0.97066 0.54999 0.0
H755 H 0.96992 0.95895 0.55722 0.0
C756 C 0.04324 1.00115 0.57153 0.0
C757 C 0.0462 0.01846 0.55519 0.0
C758 C 0.02598 0.99452 0.57585 0.0
C759 C 0.01122 0.00491 0.56324 0.0
C760 C 0.01425 0.02212 0.54597 0.0
C761 C 0.03152 0.02886 0.54231 0.0
C762 C 0.96121 0.00223 0.58341 0.0
C763 C 0.95781 0.98414 0.57536 0.0
C764 C 0.97852 0.00894 0.58009 0.0
C765 C 0.99279 0.99777 0.56799 0.0
C766 C 0.98931 0.97966 0.56022 0.0
C767 C 0.97209 0.97292 0.56421 0.0
H768 H 0.1254 0.51438 0.9444 0.0
H769 H 0.10137 0.46412 0.90837 0.0
H770 H 0.12682 0.52245 0.86351 0.0
H771 H 0.10288 0.47225 0.82724 0.0
H772 H 0.12401 0.48646 0.68448 0.0
H773 H 0.1255 0.47842 0.76533 0.0
H774 H 0.10423 0.52973 0.80208 0.0
H775 H 0.10265 0.53785 0.7209 0.0
C776 C 0.1206 0.50494 0.91923 0.0
C777 C 0.11325 0.48858 0.93293 0.0
C778 C 0.1213 0.50966 0.87289 0.0
C779 C 0.11488 0.49804 0.83908 0.0
C780 C 0.10804 0.48144 0.85256 0.0
C781 C 0.10714 0.47679 0.89902 0.0
C782 C 0.1198 0.49614 0.70972 0.0
C783 C 0.11318 0.51282 0.69614 0.0
C784 C 0.12055 0.49145 0.75605 0.0
C785 C 0.11489 0.50339 0.79 0.0
C786 C 0.10879 0.52029 0.77665 0.0
C787 C 0.10785 0.52492 0.73017 0.0
H788 H 0.7514 0.88764 0.94262 0.0
H789 H 0.7249 0.83747 0.96486 0.0
H790 H 0.76035 0.88828 0.02341 0.0
H791 H 0.73428 0.83794 0.04534 0.0
H792 H 0.77654 0.83644 0.16407 0.0
H793 H 0.76715 0.83724 0.08363 0.0
H794 H 0.74332 0.88868 0.10534 0.0
H795 H 0.75228 0.88773 0.18611 0.0
C796 C 0.74736 0.87684 0.96486 0.0
C797 C 0.73739 0.86254 0.94747 0.0
C798 C 0.7525 0.87721 0.01099 0.0
C799 C 0.74813 0.86308 0.04034 0.0
C800 C 0.73793 0.84892 0.02322 0.0
C801 C 0.73244 0.84874 0.97735 0.0
C802 C 0.7695 0.84801 0.15155 0.0
C803 C 0.76517 0.86204 0.18135 0.0
C804 C 0.76399 0.84839 0.10569 0.0
C805 C 0.75442 0.86296 0.08853 0.0
C806 C 0.75069 0.87729 0.1178 0.0
C807 C 0.75582 0.87674 0.16392 0.0
H808 H 0.36926 0.50397 0.19376 0.0
H809 H 0.41902 0.47676 0.21596 0.0
H810 H 0.36888 0.51312 0.27441 0.0
H811 H 0.41882 0.48635 0.29632 0.0
H812 H 0.42083 0.52896 0.41471 0.0
H813 H 0.41993 0.51945 0.3343 0.0
H814 H 0.36834 0.49597 0.35641 0.0
H815 H 0.36939 0.50503 0.43708 0.0
C816 C 0.38003 0.49983 0.21597 0.0
C817 C 0.39414 0.48959 0.19864 0.0
C818 C 0.3798 0.50508 0.26201 0.0
C819 C 0.39389 0.50056 0.29129 0.0
C820 C 0.40788 0.49011 0.27423 0.0
C821 C 0.4079 0.4845 0.22844 0.0
C822 C 0.4092 0.52197 0.40226 0.0
C823 C 0.39516 0.51776 0.43212 0.0
C824 C 0.40877 0.5164 0.35644 0.0
C825 C 0.39412 0.50689 0.33942 0.0
C826 C 0.37978 0.50328 0.36877 0.0
C827 C 0.38039 0.50848 0.41483 0.0
H828 H 0.71461 0.1517 0.65615 0.0
H829 H 0.76471 0.12726 0.6918 0.0
H830 H 0.72246 0.14974 0.5749 0.0
H831 H 0.77249 0.12541 0.6108 0.0
H832 H 0.78773 0.14958 0.46802 0.0
H833 H 0.77977 0.14804 0.54926 0.0
H834 H 0.72836 0.12677 0.51324 0.0
H835 H 0.73625 0.12821 0.43225 0.0
C836 C 0.72719 0.14574 0.64669 0.0
C837 C 0.73903 0.13967 0.6805 0.0
C838 C 0.73166 0.14458 0.60018 0.0
C839 C 0.74814 0.13751 0.58659 0.0
C840 C 0.7598 0.13109 0.6203 0.0
C841 C 0.75525 0.13206 0.66669 0.0
C842 C 0.77482 0.14438 0.47745 0.0
C843 C 0.76263 0.13905 0.44361 0.0
C844 C 0.77027 0.14346 0.52396 0.0
C845 C 0.75339 0.13738 0.53751 0.0
C846 C 0.74138 0.13169 0.50376 0.0
C847 C 0.74598 0.13242 0.45738 0.0
H848 H 0.86717 0.50624 0.19483 0.0
H849 H 0.91815 0.53112 0.21727 0.0
H850 H 0.8661 0.49751 0.27576 0.0
H851 H 0.91724 0.52191 0.2979 0.0
H852 H 0.91685 0.47882 0.41571 0.0
H853 H 0.91646 0.48845 0.33542 0.0
H854 H 0.86654 0.51516 0.35813 0.0
H855 H 0.86711 0.50599 0.4388 0.0
C856 C 0.87806 0.50998 0.21716 0.0
C857 C 0.89272 0.51942 0.19982 0.0
C858 C 0.87743 0.50497 0.26335 0.0
C859 C 0.89165 0.50893 0.29276 0.0
C860 C 0.90618 0.51861 0.2757 0.0
C861 C 0.90662 0.524 0.22976 0.0
C862 C 0.90569 0.48657 0.40345 0.0
C863 C 0.89199 0.49163 0.43348 0.0
C864 C 0.90556 0.4922 0.3577 0.0
C865 C 0.89153 0.50263 0.34089 0.0
C866 C 0.8775 0.50714 0.37038 0.0
C867 C 0.87784 0.50187 0.41642 0.0
H868 H 0.25062 0.11746 0.94278 0.0
H869 H 0.22571 0.16837 0.96576 0.0
H870 H 0.25943 0.11633 0.0237 0.0
H871 H 0.235 0.16741 0.0463 0.0
H872 H 0.27822 0.16679 0.16406 0.0
H873 H 0.26882 0.16638 0.08356 0.0
H874 H 0.24128 0.1169 0.10637 0.0
H875 H 0.2502 0.11751 0.18724 0.0
C876 C 0.24691 0.12832 0.9652 0.0
C877 C 0.23742 0.14298 0.94803 0.0
C878 C 0.25196 0.12766 0.01137 0.0
C879 C 0.24801 0.14185 0.0409 0.0
C880 C 0.2383 0.15637 0.024 0.0
C881 C 0.23286 0.15684 0.9781 0.0
C882 C 0.27034 0.15572 0.15177 0.0
C883 C 0.26496 0.14217 0.18189 0.0
C884 C 0.26486 0.15558 0.1059 0.0
C885 C 0.25426 0.14167 0.08906 0.0
C886 C 0.24945 0.12776 0.11864 0.0
C887 C 0.25456 0.12813 0.16479 0.0
H888 H 0.62683 0.48592 0.94497 0.0
H889 H 0.6045 0.53699 0.90923 0.0
H890 H 0.62865 0.47818 0.86395 0.0
H891 H 0.60638 0.52916 0.82799 0.0
H892 H 0.62737 0.51489 0.68548 0.0
H893 H 0.62896 0.5226 0.76655 0.0
H894 H 0.60629 0.47171 0.80191 0.0
H895 H 0.60465 0.46392 0.72061 0.0
C896 C 0.62248 0.49559 0.91985 0.0
C897 C 0.61547 0.51209 0.93363 0.0
C898 C 0.62342 0.49107 0.87343 0.0
C899 C 0.61757 0.50301 0.83967 0.0
C900 C 0.61111 0.51973 0.85327 0.0
C901 C 0.60999 0.5242 0.89979 0.0
C902 C 0.62288 0.50523 0.71048 0.0
C903 C 0.61583 0.48877 0.69651 0.0
C904 C 0.6237 0.50973 0.75693 0.0
C905 C 0.61766 0.49782 0.79053 0.0
C906 C 0.61116 0.48112 0.77675 0.0
C907 C 0.61017 0.47667 0.7302 0.0
H908 H 0.24936 0.88611 0.68494 0.0
H909 H 0.22407 0.83529 0.66331 0.0
H910 H 0.25842 0.88675 0.6042 0.0
H911 H 0.23361 0.83575 0.58291 0.0
H912 H 0.27665 0.83535 0.46496 0.0
H913 H 0.26707 0.83607 0.54534 0.0
H914 H 0.24092 0.88623 0.5218 0.0
H915 H 0.25002 0.88532 0.44113 0.0
C916 C 0.24562 0.87517 0.66284 0.0
C917 C 0.23594 0.86069 0.68036 0.0
C918 C 0.25082 0.87554 0.61676 0.0
C919 C 0.24683 0.86123 0.58763 0.0
C920 C 0.23695 0.84687 0.60487 0.0
C921 C 0.23136 0.8467 0.65069 0.0
C922 C 0.26904 0.84663 0.47709 0.0
C923 C 0.26411 0.8603 0.44682 0.0
C924 C 0.26344 0.84695 0.52289 0.0
C925 C 0.25318 0.86115 0.5395 0.0
C926 C 0.24882 0.87515 0.50975 0.0
C927 C 0.25404 0.87462 0.46369 0.0
H928 H 0.63694 0.00618 0.19387 0.0
H929 H 0.58528 0.02989 0.21396 0.0
H930 H 0.63765 0.99746 0.27479 0.0
H931 H 0.58586 0.02074 0.29464 0.0
H932 H 0.58611 0.97848 0.4137 0.0
H933 H 0.58666 0.98808 0.33339 0.0
H934 H 0.63683 0.01433 0.35633 0.0
H935 H 0.63613 0.00514 0.43693 0.0
C936 C 0.62583 0.00967 0.21569 0.0
C937 C 0.61108 0.01878 0.19766 0.0
C938 C 0.62624 0.00467 0.2619 0.0
C939 C 0.61175 0.0083 0.2907 0.0
C940 C 0.59713 0.01767 0.27296 0.0
C941 C 0.59689 0.02304 0.22698 0.0
C942 C 0.59735 0.98612 0.40148 0.0
C943 C 0.61109 0.99103 0.43156 0.0
C944 C 0.59757 0.99174 0.35571 0.0
C945 C 0.61172 1.00204 0.33891 0.0
C946 C 0.62578 0.00641 0.3685 0.0
C947 C 0.62536 1.00114 0.41453 0.0
H948 H 0.22613 0.33506 0.4643 0.0
H949 H 0.25039 0.38632 0.44173 0.0
H950 H 0.23572 0.3359 0.54464 0.0
H951 H 0.25952 0.38732 0.52237 0.0
H952 H 0.25153 0.38634 0.68531 0.0
H953 H 0.24235 0.38683 0.60467 0.0
H954 H 0.26896 0.33683 0.58236 0.0
H955 H 0.2786 0.33652 0.6627 0.0
C956 C 0.23321 0.34663 0.4767 0.0
C957 C 0.23748 0.36064 0.44678 0.0
C958 C 0.23883 0.34703 0.52248 0.0
C959 C 0.24845 0.36162 0.53945 0.0
C960 C 0.25213 0.37593 0.51005 0.0
C961 C 0.24689 0.37535 0.46401 0.0
C962 C 0.25564 0.37558 0.66302 0.0
C963 C 0.26585 0.36143 0.68024 0.0
C964 C 0.25037 0.37587 0.61698 0.0
C965 C 0.25483 0.3618 0.58757 0.0
C966 C 0.26525 0.34777 0.60453 0.0
C967 C 0.27088 0.34768 0.65031 0.0
H968 H 0.87987 0.98496 0.94605 0.0
H969 H 0.90078 0.03655 0.90964 0.0
H970 H 0.879 0.9767 0.86524 0.0
H971 H 0.89978 0.02823 0.82854 0.0
H972 H 0.87827 0.01269 0.68671 0.0
H973 H 0.87696 0.02062 0.76759 0.0
H974 H 0.90201 0.97091 0.80301 0.0
H975 H 0.90346 0.9629 0.72166 0.0
C976 C 0.88411 0.99463 0.92081 0.0
C977 C 0.89039 0.01145 0.93436 0.0
C978 C 0.88374 0.98981 0.87453 0.0
C979 C 0.8894 1.00177 0.84063 0.0
C980 C 0.89523 0.01877 0.85396 0.0
C981 C 0.89583 0.02353 0.90038 0.0
C982 C 0.88337 0.00333 0.71165 0.0
C983 C 0.891 0.98713 0.69763 0.0
C984 C 0.88272 0.00797 0.758 0.0
C985 C 0.88948 0.99645 0.79156 0.0
C986 C 0.89662 0.98001 0.77783 0.0
C987 C 0.89747 0.97544 0.73129 0.0
H988 H 0.27983 0.66803 0.96707 0.0
H989 H 0.25561 0.6168 0.94376 0.0
H990 H 0.2704 0.66693 0.04748 0.0
H991 H 0.24665 0.61553 0.02454 0.0
H992 H 0.25498 0.6165 0.1879 0.0
H993 H 0.2641 0.61604 0.10717 0.0
H994 H 0.23698 0.66576 0.08479 0.0
H995 H 0.22741 0.66603 0.16512 0.0
C996 C 0.2728 0.6564 0.97931 0.0
C997 C 0.26848 0.64249 0.94916 0.0
C998 C 0.26728 0.65585 0.02515 0.0
C999 C 0.25772 0.6412 0.04194 0.0
C1000 C 0.25401 0.62697 0.01233 0.0
C1001 C 0.25915 0.6277 0.96622 0.0
C1002 C 0.25076 0.6272 0.16557 0.0
C1003 C 0.24042 0.64127 0.18276 0.0
C1004 C 0.25599 0.62692 0.11949 0.0
C1005 C 0.25136 0.64094 0.09005 0.0
C1006 C 0.24082 0.65487 0.10699 0.0
C1007 C 0.23523 0.65494 0.15278 0.0
H1008 H 0.40154 0.96497 0.91176 0.0
H1009 H 0.37923 0.01598 0.94804 0.0
H1010 H 0.39983 0.97301 0.83061 0.0
H1011 H 0.37757 0.02393 0.86713 0.0
H1012 H 0.40124 0.03855 0.72371 0.0
H1013 H 0.39976 0.03059 0.80496 0.0
H1014 H 0.37737 0.97963 0.76919 0.0
H1015 H 0.3788 0.9875 0.68822 0.0
C1016 C 0.3961 0.9778 0.90246 0.0
C1017 C 0.39055 0.98982 0.93645 0.0
C1018 C 0.39508 0.98239 0.85598 0.0
C1019 C 0.38865 0.99915 0.84254 0.0
C1020 C 0.38278 0.01101 0.87645 0.0
C1021 C 0.38362 0.00637 0.92282 0.0
C1022 C 0.39581 0.02574 0.73321 0.0
C1023 C 0.39017 0.01367 0.69941 0.0
C1024 C 0.39493 0.02119 0.77974 0.0
C1025 C 0.38855 0.00443 0.79341 0.0
C1026 C 0.38255 0.99254 0.75969 0.0
C1027 C 0.38326 0.99714 0.71329 0.0
H1028 H 0.71502 0.65153 0.46975 0.0
H1029 H 0.76661 0.63066 0.43325 0.0
H1030 H 0.72323 0.65019 0.55088 0.0
H1031 H 0.77473 0.6294 0.51407 0.0
H1032 H 0.78888 0.65369 0.65708 0.0
H1033 H 0.78077 0.65202 0.57594 0.0
H1034 H 0.7307 0.62785 0.6124 0.0
H1035 H 0.73874 0.62944 0.69325 0.0
C1036 C 0.72801 0.64649 0.47899 0.0
C1037 C 0.74014 0.64123 0.44495 0.0
C1038 C 0.7327 0.64569 0.52545 0.0
C1039 C 0.74968 0.63979 0.53878 0.0
C1040 C 0.76165 0.63421 0.50482 0.0
C1041 C 0.75691 0.63482 0.4585 0.0
C1042 C 0.77624 0.64784 0.64776 0.0
C1043 C 0.76448 0.64172 0.68172 0.0
C1044 C 0.7716 0.64685 0.60129 0.0
C1045 C 0.75504 0.6399 0.58786 0.0
C1046 C 0.74345 0.63347 0.62173 0.0
C1047 C 0.74815 0.63427 0.66806 0.0
H1048 H 0.12479 0.98914 0.44634 0.0
H1049 H 0.10176 0.03977 0.40952 0.0
H1050 H 0.12604 0.98086 0.36559 0.0
H1051 H 0.10316 0.03143 0.32848 0.0
H1052 H 0.12456 0.0164 0.18618 0.0
H1053 H 0.12596 0.0246 0.26693 0.0
H1054 H 0.10317 0.97397 0.30403 0.0
H1055 H 0.10163 0.9657 0.22292 0.0
C1056 C 0.12017 0.99861 0.42103 0.0
C1057 C 0.11316 0.01515 0.43447 0.0
C1058 C 0.12078 0.99377 0.37477 0.0
C1059 C 0.11462 0.00544 0.34076 0.0
C1060 C 0.1081 0.0222 0.35397 0.0
C1061 C 0.10728 0.02697 0.40036 0.0
C1062 C 0.11999 0.0069 0.21148 0.0
C1063 C 0.11296 0.99037 0.19801 0.0
C1064 C 0.12069 0.01169 0.25775 0.0
C1065 C 0.11459 0.99999 0.29176 0.0
C1066 C 0.10807 0.98323 0.27854 0.0
C1067 C 0.10715 0.97851 0.23211 0.0
H1068 H 0.71662 0.35165 0.15829 0.0
H1069 H 0.76757 0.37431 0.19386 0.0
H1070 H 0.72452 0.35332 0.07705 0.0
H1071 H 0.77538 0.37593 0.11287 0.0
H1072 H 0.78995 0.35205 0.96981 0.0
H1073 H 0.78204 0.35361 0.05107 0.0
H1074 H 0.73098 0.37575 0.01533 0.0
H1075 H 0.7388 0.37424 0.93434 0.0
C1076 C 0.7294 0.35716 0.14882 0.0
C1077 C 0.74145 0.3628 0.18262 0.0
C1078 C 0.73391 0.35816 0.10229 0.0
C1079 C 0.75062 0.36467 0.08865 0.0
C1080 C 0.7625 0.37066 0.12237 0.0
C1081 C 0.75794 0.36983 0.16878 0.0
C1082 C 0.77712 0.35743 0.97931 0.0
C1083 C 0.76502 0.36298 0.94553 0.0
C1084 C 0.77261 0.35837 0.02584 0.0
C1085 C 0.75584 0.3647 0.03951 0.0
C1086 C 0.74391 0.37061 0.00581 0.0
C1087 C 0.74847 0.36984 0.9594 0.0
H1088 H 0.107 0.48209 0.43946 0.0
H1089 H 0.08747 0.5354 0.41674 0.0
H1090 H 0.10558 0.47635 0.35729 0.0
H1091 H 0.08595 0.52954 0.33452 0.0
H1092 H 0.11074 0.51846 0.19119 0.0
H1093 H 0.10874 0.52434 0.27324 0.0
H1094 H 0.08341 0.47345 0.29369 0.0
H1095 H 0.08551 0.46744 0.21165 0.0
C1096 C 0.10227 0.49252 0.41699 0.0
C1097 C 0.09744 0.50922 0.43451 0.0
C1098 C 0.10136 0.48919 0.37001 0.0
C1099 C 0.0957 0.50252 0.33966 0.0
C1100 C 0.09052 0.5191 0.35721 0.0
C1101 C 0.09132 0.5224 0.40425 0.0
C1102 C 0.10467 0.50856 0.21313 0.0
C1103 C 0.09837 0.49245 0.19502 0.0
C1104 C 0.10342 0.51199 0.26002 0.0
C1105 C 0.09594 0.49933 0.28969 0.0
C1106 C 0.08938 0.48335 0.27154 0.0
C1107 C 0.09052 0.47996 0.2246 0.0
H1108 H 0.75836 0.87698 0.68326 0.0
H1109 H 0.72903 0.82777 0.6728 0.0
H1110 H 0.76374 0.87636 0.60048 0.0
H1111 H 0.73485 0.82701 0.59009 0.0
H1112 H 0.77191 0.82689 0.45581 0.0
H1113 H 0.76604 0.82628 0.53849 0.0
H1114 H 0.73966 0.87702 0.5286 0.0
H1115 H 0.7451 0.87751 0.44583 0.0
C1116 C 0.75325 0.86595 0.66335 0.0
C1117 C 0.74326 0.85243 0.68426 0.0
C1118 C 0.75624 0.86567 0.61613 0.0
C1119 C 0.74963 0.85167 0.58936 0.0
C1120 C 0.74006 0.8379 0.61032 0.0
C1121 C 0.73672 0.83838 0.65741 0.0
C1122 C 0.76476 0.83784 0.4713 0.0
C1123 C 0.75894 0.85225 0.44458 0.0
C1124 C 0.76138 0.83745 0.51837 0.0
C1125 C 0.75251 0.85164 0.53946 0.0
C1126 C 0.74662 0.866 0.51283 0.0
C1127 C 0.74964 0.86621 0.46563 0.0
H1128 H 0.39244 0.48608 0.68973 0.0
H1129 H 0.41692 0.53718 0.71453 0.0
H1130 H 0.39288 0.47996 0.77195 0.0
H1131 H 0.41743 0.53095 0.79656 0.0
H1132 H 0.39384 0.5213 0.94108 0.0
H1133 H 0.39464 0.52734 0.85885 0.0
H1134 H 0.4154 0.47471 0.83421 0.0
H1135 H 0.41453 0.46857 0.91628 0.0
C1136 C 0.39797 0.49596 0.71266 0.0
C1137 C 0.40462 0.51211 0.69569 0.0
C1138 C 0.39831 0.49241 0.75964 0.0
C1139 C 0.40516 0.50501 0.79048 0.0
C1140 C 0.41191 0.5211 0.77351 0.0
C1141 C 0.4117 0.5246 0.72655 0.0
C1142 C 0.39863 0.51104 0.91814 0.0
C1143 C 0.40411 0.49446 0.93512 0.0
C1144 C 0.39916 0.51453 0.87115 0.0
C1145 C 0.40505 0.50147 0.84031 0.0
C1146 C 0.41063 0.48494 0.85727 0.0
C1147 C 0.41023 0.48148 0.90426 0.0
H1148 H 0.78555 0.16495 0.16496 0.0
H1149 H 0.73259 0.14416 0.18583 0.0
H1150 H 0.77991 0.16684 0.0827 0.0
H1151 H 0.72706 0.14597 0.10357 0.0
H1152 H 0.71825 0.16736 0.95904 0.0
H1153 H 0.72407 0.16895 0.04124 0.0
H1154 H 0.77516 0.1441 0.02044 0.0
H1155 H 0.76945 0.14257 0.93821 0.0
C1156 C 0.77268 0.16089 0.15205 0.0
C1157 C 0.75953 0.15433 0.18177 0.0
C1158 C 0.76951 0.1619 0.10501 0.0
C1159 C 0.75308 0.15652 0.08697 0.0
C1160 C 0.73979 0.15036 0.11675 0.0
C1161 C 0.743 0.14922 0.16374 0.0
C1162 C 0.73078 0.16235 0.97195 0.0
C1163 C 0.74337 0.15476 0.94226 0.0
C1164 C 0.73405 0.1632 0.01896 0.0
C1165 C 0.75003 0.15661 0.03701 0.0
C1166 C 0.7628 0.14942 0.00725 0.0
C1167 C 0.75948 0.14845 0.96028 0.0
H1168 H 0.89158 0.52204 0.69191 0.0
H1169 H 0.91309 0.46953 0.71524 0.0
H1170 H 0.89263 0.52789 0.77415 0.0
H1171 H 0.9142 0.47549 0.79744 0.0
H1172 H 0.89134 0.48661 0.94279 0.0
H1173 H 0.89185 0.48041 0.86059 0.0
H1174 H 0.91572 0.53169 0.83559 0.0
H1175 H 0.91515 0.53799 0.91755 0.0
C1176 C 0.89659 0.51178 0.71454 0.0
C1177 C 0.90224 0.49533 0.69713 0.0
C1178 C 0.89728 0.51517 0.76154 0.0
C1179 C 0.90349 0.50213 0.79202 0.0
C1180 C 0.9092 0.48571 0.77465 0.0
C1181 C 0.90866 0.48236 0.72761 0.0
C1182 C 0.89676 0.49653 0.91977 0.0
C1183 C 0.90316 0.5128 0.93661 0.0
C1184 C 0.89713 0.49293 0.87281 0.0
C1185 C 0.90378 0.5056 0.84187 0.0
C1186 C 0.91035 0.52178 0.85873 0.0
C1187 C 0.91011 0.52533 0.90566 0.0
H1188 H 0.21572 0.14721 0.66491 0.0
H1189 H 0.27065 0.15913 0.69336 0.0
H1190 H 0.22197 0.14688 0.58313 0.0
H1191 H 0.27684 0.16053 0.61144 0.0
H1192 H 0.28733 0.14434 0.46492 0.0
H1193 H 0.28112 0.14444 0.54676 0.0
H1194 H 0.2276 0.1627 0.51877 0.0
H1195 H 0.2336 0.16089 0.43683 0.0
C1196 C 0.2291 0.15009 0.6533 0.0
C1197 C 0.24275 0.15313 0.68496 0.0
C1198 C 0.23271 0.15008 0.60639 0.0
C1199 C 0.24995 0.15373 0.5901 0.0
C1200 C 0.2635 0.1572 0.6223 0.0
C1201 C 0.25999 0.15658 0.66928 0.0
C1202 C 0.27426 0.14833 0.47663 0.0
C1203 C 0.26089 0.15254 0.44506 0.0
C1204 C 0.27069 0.14857 0.52357 0.0
C1205 C 0.25382 0.15362 0.53995 0.0
C1206 C 0.2406 0.15827 0.50784 0.0
C1207 C 0.24402 0.15742 0.46084 0.0
H1208 H 0.58835 0.5345 0.21199 0.0
H1209 H 0.6104 0.48204 0.19142 0.0
H1210 H 0.5865 0.52883 0.29425 0.0
H1211 H 0.60866 0.47651 0.27363 0.0
H1212 H 0.58822 0.46705 0.4183 0.0
H1213 H 0.58615 0.47283 0.33616 0.0
H1214 H 0.6091 0.52484 0.35658 0.0
H1215 H 0.61105 0.5192 0.43874 0.0
C1216 C 0.5927 0.52173 0.22496 0.0
C1217 C 0.59961 0.50874 0.19531 0.0
C1218 C 0.5917 0.51854 0.27201 0.0
C1219 C 0.59747 0.50226 0.29015 0.0
C1220 C 0.60396 0.48911 0.26041 0.0
C1221 C 0.60506 0.49233 0.21342 0.0
C1222 C 0.5927 0.47977 0.40533 0.0
C1223 C 0.5999 0.49264 0.4349 0.0
C1224 C 0.59157 0.48303 0.35834 0.0
C1225 C 0.59751 0.49924 0.34016 0.0
C1226 C 0.60427 0.51229 0.36983 0.0
C1227 C 0.6055 0.509 0.41678 0.0
H1228 H 0.21667 0.83795 0.96228 0.0
H1229 H 0.26803 0.86195 0.9381 0.0
H1230 H 0.22297 0.83683 0.0442 0.0
H1231 H 0.27423 0.8609 0.02027 0.0
H1232 H 0.28534 0.83902 0.16455 0.0
H1233 H 0.27928 0.83833 0.08237 0.0
H1234 H 0.2267 0.85922 0.10695 0.0
H1235 H 0.23265 0.85983 0.18917 0.0
C1236 C 0.22933 0.84293 0.9744 0.0
C1237 C 0.24185 0.85007 0.94373 0.0
C1238 C 0.23287 0.84237 0.02132 0.0
C1239 C 0.24905 0.84883 0.0385 0.0
C1240 C 0.26171 0.8557 0.00783 0.0
C1241 C 0.25812 0.85638 0.96087 0.0
C1242 C 0.27245 0.84338 0.15247 0.0
C1243 C 0.25947 0.84949 0.18333 0.0
C1244 C 0.26904 0.84308 0.10543 0.0
C1245 C 0.25255 0.84875 0.08839 0.0
C1246 C 0.23948 0.85461 0.11925 0.0
C1247 C 0.24292 0.85504 0.16627 0.0
H1248 H 0.62645 0.00982 0.6965 0.0
H1249 H 0.577 0.98086 0.70652 0.0
H1250 H 0.62608 0.01468 0.77951 0.0
H1251 H 0.57649 0.98616 0.78947 0.0
H1252 H 0.57656 0.02359 0.92318 0.0
H1253 H 0.57595 0.01732 0.84075 0.0
H1254 H 0.6265 0.99063 0.85162 0.0
H1255 H 0.62699 0.99647 0.93427 0.0
C1256 C 0.61544 0.00466 0.71638 0.0
C1257 C 0.60175 0.99498 0.69526 0.0
C1258 C 0.6153 0.00734 0.76372 0.0
C1259 C 0.60129 1.00071 0.79041 0.0
C1260 C 0.5874 0.99136 0.7693 0.0
C1261 C 0.58773 0.98833 0.72207 0.0
C1262 C 0.58747 0.01626 0.90798 0.0
C1263 C 0.60184 0.01051 0.93491 0.0
C1264 C 0.58707 0.01265 0.86105 0.0
C1265 C 0.60121 0.0036 0.84029 0.0
C1266 C 0.61551 0.99771 0.86715 0.0
C1267 C 0.61573 1.00097 0.91427 0.0
H1268 H 0.21795 0.33817 0.16456 0.0
H1269 H 0.26917 0.36243 0.18897 0.0
H1270 H 0.22419 0.33739 0.08254 0.0
H1271 H 0.27531 0.36171 0.10678 0.0
H1272 H 0.28666 0.34015 0.96252 0.0
H1273 H 0.28049 0.33922 0.04459 0.0
H1274 H 0.22786 0.35996 0.01992 0.0
H1275 H 0.23393 0.36082 0.93772 0.0
C1276 C 0.23057 0.34328 0.15247 0.0
C1277 C 0.24307 0.35039 0.18323 0.0
C1278 C 0.23407 0.34291 0.1055 0.0
C1279 C 0.2502 0.34952 0.0884 0.0
C1280 C 0.26283 0.35639 0.11915 0.0
C1281 C 0.25927 0.35688 0.16613 0.0
C1282 C 0.27373 0.34443 0.97453 0.0
C1283 C 0.26077 0.35058 0.94366 0.0
C1284 C 0.27026 0.34399 0.02153 0.0
C1285 C 0.25373 0.34956 0.03852 0.0
C1286 C 0.24067 0.35544 0.00764 0.0
C1287 C 0.24418 0.35602 0.96065 0.0
H1288 H 0.87991 0.00928 0.43549 0.0
H1289 H 0.92794 0.9781 0.42394 0.0
H1290 H 0.88072 0.01502 0.35294 0.0
H1291 H 0.92887 0.98431 0.34133 0.0
H1292 H 0.92682 0.02454 0.20722 0.0
H1293 H 0.92831 0.01895 0.29011 0.0
H1294 H 0.8807 0.98721 0.28168 0.0
H1295 H 0.87936 0.99232 0.19891 0.0
C1296 C 0.89075 0.00387 0.41544 0.0
C1297 C 0.90384 0.9932 0.43593 0.0
C1298 C 0.89115 0.00711 0.3684 0.0
C1299 C 0.90484 1.00006 0.34143 0.0
C1300 C 0.91825 0.98987 0.36189 0.0
C1301 C 0.91766 0.9863 0.40886 0.0
C1302 C 0.91676 0.01628 0.2231 0.0
C1303 C 0.90297 0.00885 0.19684 0.0
C1304 C 0.91766 0.01307 0.27022 0.0
C1305 C 0.90459 0.00273 0.29162 0.0
C1306 C 0.89087 0.99525 0.26551 0.0
C1307 C 0.89017 0.99813 0.21834 0.0
H1308 H 0.23659 0.64101 0.69177 0.0
H1309 H 0.28765 0.66555 0.66689 0.0
H1310 H 0.23038 0.64157 0.60961 0.0
H1311 H 0.28134 0.66615 0.58485 0.0
H1312 H 0.27168 0.64184 0.44075 0.0
H1313 H 0.27775 0.64311 0.52291 0.0
H1314 H 0.22512 0.66398 0.54688 0.0
H1315 H 0.21896 0.66267 0.46481 0.0
C1316 C 0.24644 0.64659 0.66883 0.0
C1317 C 0.26262 0.65319 0.68577 0.0
C1318 C 0.24284 0.647 0.62187 0.0
C1319 C 0.25541 0.65387 0.59099 0.0
C1320 C 0.27151 0.66062 0.60794 0.0
C1321 C 0.27505 0.66036 0.6549 0.0
C1322 C 0.26142 0.64675 0.46352 0.0
C1323 C 0.24483 0.65212 0.44634 0.0
C1324 C 0.26494 0.64757 0.51047 0.0
C1325 C 0.25188 0.65363 0.54113 0.0
C1326 C 0.23535 0.65911 0.52397 0.0
C1327 C 0.23188 0.65844 0.47699 0.0
H1328 H 0.39519 0.01947 0.19455 0.0
H1329 H 0.41763 0.96719 0.21512 0.0
H1330 H 0.39715 0.02513 0.27665 0.0
H1331 H 0.41972 0.97298 0.29729 0.0
H1332 H 0.39587 0.98266 0.44252 0.0
H1333 H 0.39765 0.97684 0.36043 0.0
H1334 H 0.4196 0.0292 0.33862 0.0
H1335 H 0.41769 0.03515 0.42069 0.0
C1336 C 0.40066 0.00924 0.21653 0.0
C1337 C 0.40616 0.99285 0.19842 0.0
C1338 C 0.40189 0.01254 0.26348 0.0
C1339 C 0.40857 0.99948 0.29323 0.0
C1340 C 0.41437 0.9832 0.27509 0.0
C1341 C 0.41323 0.97994 0.22807 0.0
C1342 C 0.40119 0.99289 0.42028 0.0
C1343 C 0.40653 0.0094 0.43802 0.0
C1344 C 0.40231 0.98951 0.37334 0.0
C1345 C 0.40871 0.0026 0.34326 0.0
C1346 C 0.41444 0.01895 0.36107 0.0
C1347 C 0.41341 0.02231 0.40805 0.0
H1348 H 0.77036 0.64722 0.18778 0.0
H1349 H 0.71714 0.66711 0.16572 0.0
H1350 H 0.77609 0.64897 0.10565 0.0
H1351 H 0.723 0.66898 0.08355 0.0
H1352 H 0.78527 0.66945 0.96074 0.0
H1353 H 0.77922 0.67125 0.0428 0.0
H1354 H 0.72799 0.64674 0.02129 0.0
H1355 H 0.73391 0.64506 0.93921 0.0
C1356 C 0.75994 0.6521 0.16547 0.0
C1357 C 0.74327 0.65695 0.18318 0.0
C1358 C 0.76326 0.6532 0.1185 0.0
C1359 C 0.74997 0.65908 0.08832 0.0
C1360 C 0.73341 0.66424 0.10607 0.0
C1361 C 0.73011 0.66324 0.1531 0.0
C1362 C 0.77266 0.66457 0.97345 0.0
C1363 C 0.76009 0.65704 0.94356 0.0
C1364 C 0.76925 0.66553 0.02042 0.0
C1365 C 0.75317 0.65909 0.03831 0.0
C1366 C 0.74043 0.65196 0.00832 0.0
C1367 C 0.74387 0.6509 0.96139 0.0
H1368 H 0.10896 0.02116 0.9413 0.0
H1369 H 0.08716 0.96876 0.91805 0.0
H1370 H 0.10755 0.02718 0.85922 0.0
H1371 H 0.08568 0.9749 0.83595 0.0
H1372 H 0.11034 0.98537 0.69223 0.0
H1373 H 0.10855 0.97941 0.77428 0.0
H1374 H 0.08512 0.03109 0.79615 0.0
H1375 H 0.08697 0.03717 0.71405 0.0
C1376 C 0.10376 0.01099 0.91873 0.0
C1377 C 0.09826 0.99446 0.93608 0.0
C1378 C 0.10285 0.01448 0.87181 0.0
C1379 C 0.09654 1.00148 0.84136 0.0
C1380 C 0.09075 0.98508 0.85873 0.0
C1381 C 0.09153 0.98162 0.9057 0.0
C1382 C 0.10473 0.99544 0.71449 0.0
C1383 C 0.09887 0.01177 0.69674 0.0
C1384 C 0.1036 0.99197 0.76138 0.0
C1385 C 0.09671 0.0048 0.79143 0.0
C1386 C 0.09062 0.02104 0.77368 0.0
C1387 C 0.09162 0.02446 0.72672 0.0
H1388 H 0.78702 0.33589 0.66717 0.0
H1389 H 0.73454 0.35784 0.68795 0.0
H1390 H 0.7813 0.33396 0.58501 0.0
H1391 H 0.72895 0.35605 0.60575 0.0
H1392 H 0.7718 0.35804 0.44036 0.0
H1393 H 0.77737 0.35631 0.52257 0.0
H1394 H 0.72521 0.3337 0.54319 0.0
H1395 H 0.71951 0.33557 0.461 0.0
C1396 C 0.77424 0.3402 0.65427 0.0
C1397 C 0.76125 0.3471 0.68397 0.0
C1398 C 0.77102 0.33917 0.60725 0.0
C1399 C 0.75472 0.3449 0.58914 0.0
C1400 C 0.74157 0.35137 0.61893 0.0
C1401 C 0.74482 0.3525 0.66592 0.0
C1402 C 0.76156 0.3526 0.46237 0.0
C1403 C 0.74519 0.34703 0.44427 0.0
C1404 C 0.7648 0.35151 0.50936 0.0
C1405 C 0.7517 0.3449 0.53912 0.0
C1406 C 0.73546 0.33901 0.52097 0.0
C1407 C 0.73225 0.34002 0.47394 0.0
H1408 H 0.15334 0.44807 0.10309 0.0
H1409 H 0.10822 0.41451 0.13171 0.0
H1410 H 0.17183 0.42953 0.15249 0.0
H1411 H 0.12602 0.3969 0.18359 0.0
H1412 H 0.16449 0.35813 0.24536 0.0
H1413 H 0.14694 0.37602 0.19361 0.0
H1414 H 0.17939 0.42183 0.22596 0.0
H1415 H 0.19789 0.40325 0.27526 0.0
C1416 C 0.14741 0.43668 0.11983 0.0
C1417 C 0.12939 0.43262 0.11291 0.0
C1418 C 0.15793 0.42616 0.14885 0.0
C1419 C 0.15057 0.41158 0.17272 0.0
C1420 C 0.13249 0.4076 0.16533 0.0
C1421 C 0.12216 0.4178 0.13545 0.0
C1422 C 0.16775 0.37208 0.24194 0.0
C1423 C 0.18252 0.37928 0.2648 0.0
C1424 C 0.15759 0.38247 0.21213 0.0
C1425 C 0.16153 0.40058 0.20512 0.0
C1426 C 0.17604 0.40791 0.22931 0.0
C1427 C 0.18654 0.39733 0.25827 0.0
H1428 H 0.85002 0.94811 0.52386 0.0
H1429 H 0.89478 0.91388 0.49691 0.0
H1430 H 0.83148 0.9297 0.47424 0.0
H1431 H 0.87694 0.89637 0.44491 0.0
H1432 H 0.83792 0.85789 0.38344 0.0
H1433 H 0.85567 0.87571 0.43506 0.0
H1434 H 0.82429 0.92198 0.40038 0.0
H1435 H 0.80562 0.90355 0.35119 0.0
C1436 C 0.85587 0.93661 0.50743 0.0
C1437 C 0.87381 0.93234 0.51487 0.0
C1438 C 0.84532 0.92615 0.4783 0.0
C1439 C 0.85257 0.91142 0.45489 0.0
C1440 C 0.87056 0.90722 0.4628 0.0
C1441 C 0.88091 0.91736 0.49275 0.0
C1442 C 0.83495 0.87193 0.38632 0.0
C1443 C 0.82042 0.87931 0.3629 0.0
C1444 C 0.84522 0.88227 0.41605 0.0
C1445 C 0.84159 0.90048 0.42242 0.0
C1446 C 0.82736 0.90798 0.39756 0.0
C1447 C 0.81678 0.89748 0.36866 0.0
H1448 H 0.35272 0.55732 0.60395 0.0
H1449 H 0.39783 0.59093 0.63254 0.0
H1450 H 0.33429 0.57574 0.65376 0.0
H1451 H 0.38006 0.60844 0.68472 0.0
H1452 H 0.34136 0.64685 0.74771 0.0
H1453 H 0.35897 0.62923 0.69536 0.0
H1454 H 0.32714 0.58301 0.72793 0.0
H1455 H 0.30862 0.60127 0.77787 0.0
C1456 C 0.35867 0.56871 0.62073 0.0
C1457 C 0.37668 0.57278 0.61377 0.0
C1458 C 0.34817 0.57915 0.64999 0.0
C1459 C 0.35555 0.59367 0.674 0.0
C1460 C 0.3736 0.59774 0.66641 0.0
C1461 C 0.3839 0.58761 0.63634 0.0
C1462 C 0.33826 0.63286 0.74421 0.0
C1463 C 0.32365 0.62545 0.76728 0.0
C1464 C 0.34845 0.62264 0.71405 0.0
C1465 C 0.34465 0.60451 0.70687 0.0
C1466 C 0.33034 0.59696 0.73137 0.0
C1467 C 0.31984 0.60735 0.7607 0.0
H1468 H 0.69859 0.10082 0.85156 0.0
H1469 H 0.66507 0.14616 0.8781 0.0
H1470 H 0.6799 0.08263 0.90127 0.0
H1471 H 0.64726 0.12862 0.93021 0.0
H1472 H 0.60834 0.09024 0.99256 0.0
H1473 H 0.62632 0.10762 0.9405 0.0
H1474 H 0.67221 0.07572 0.97533 0.0
H1475 H 0.6536 0.05742 0.02503 0.0
C1476 C 0.68717 0.10687 0.8679 0.0
C1477 C 0.6832 0.12487 0.86036 0.0
C1478 C 0.67656 0.09652 0.89709 0.0
C1479 C 0.66196 0.10402 0.92048 0.0
C1480 C 0.65801 0.12206 0.91237 0.0
C1481 C 0.66832 0.13223 0.88235 0.0
C1482 C 0.62233 0.08707 0.98961 0.0
C1483 C 0.62955 0.0725 0.01325 0.0
C1484 C 0.63276 0.09713 0.95962 0.0
C1485 C 0.65091 0.09325 0.95318 0.0
C1486 C 0.65826 0.07898 0.97821 0.0
C1487 C 0.64766 0.0686 0.00739 0.0
H1488 H 0.1616 0.63372 0.35083 0.0
H1489 H 0.20797 0.60226 0.38273 0.0
H1490 H 0.1437 0.61485 0.40069 0.0
H1491 H 0.19022 0.58374 0.43353 0.0
H1492 H 0.14892 0.54434 0.4903 0.0
H1493 H 0.16731 0.56195 0.4387 0.0
H1494 H 0.13954 0.60945 0.48089 0.0
H1495 H 0.12083 0.59175 0.53153 0.0
C1496 C 0.16796 0.62267 0.36807 0.0
C1497 C 0.18625 0.61954 0.36264 0.0
C1498 C 0.15772 0.61196 0.39719 0.0
C1499 C 0.16552 0.59788 0.42184 0.0
C1500 C 0.18369 0.59435 0.415 0.0
C1501 C 0.1939 0.60502 0.38575 0.0
C1502 C 0.1469 0.55858 0.48913 0.0
C1503 C 0.13336 0.5666 0.51515 0.0
C1504 C 0.15746 0.56871 0.4594 0.0
C1505 C 0.15481 0.58714 0.45502 0.0
C1506 C 0.14171 0.59524 0.48244 0.0
C1507 C 0.13111 0.58511 0.512 0.0
H1508 H 0.61741 0.91155 0.59785 0.0
H1509 H 0.64856 0.95774 0.63348 0.0
H1510 H 0.63583 0.89337 0.64828 0.0
H1511 H 0.66641 0.93985 0.68506 0.0
H1512 H 0.70569 0.89977 0.7431 0.0
H1513 H 0.68814 0.91782 0.69115 0.0
H1514 H 0.6412 0.88783 0.72729 0.0
H1515 H 0.65903 0.86922 0.7781 0.0
C1516 C 0.62829 0.9178 0.61606 0.0
C1517 C 0.63152 0.93611 0.61135 0.0
C1518 C 0.63872 0.90742 0.64555 0.0
C1519 C 0.65255 0.91511 0.67138 0.0
C1520 C 0.65606 0.93334 0.66551 0.0
C1521 C 0.64577 0.94365 0.63577 0.0
C1522 C 0.69157 0.89715 0.74056 0.0
C1523 C 0.68379 0.88302 0.76497 0.0
C1524 C 0.68146 0.90755 0.71061 0.0
C1525 C 0.6632 0.90428 0.7045 0.0
C1526 C 0.65528 0.89054 0.73022 0.0
C1527 C 0.66546 0.88 0.75991 0.0
H1528 H 0.34412 0.37036 0.84868 0.0
H1529 H 0.29704 0.40005 0.88468 0.0
H1530 H 0.36172 0.389 0.89977 0.0
H1531 H 0.3145 0.41832 0.93677 0.0
H1532 H 0.35502 0.45816 0.99518 0.0
H1533 H 0.33673 0.44064 0.94328 0.0
H1534 H 0.36625 0.39352 0.98007 0.0
H1535 H 0.3849 0.41119 0.03099 0.0
C1536 C 0.33754 0.38098 0.86711 0.0
C1537 C 0.31915 0.38368 0.86241 0.0
C1538 C 0.3476 0.39154 0.89695 0.0
C1539 C 0.33953 0.40505 0.92311 0.0
C1540 C 0.32124 0.40816 0.91708 0.0
C1541 C 0.3112 0.39765 0.88707 0.0
C1542 C 0.35745 0.44401 0.99281 0.0
C1543 C 0.37148 0.43612 0.01733 0.0
C1544 C 0.34694 0.43393 0.9629 0.0
C1545 C 0.35011 0.41565 0.95684 0.0
C1546 C 0.36367 0.40763 0.98291 0.0
C1547 C 0.37424 0.41773 0.01265 0.0
H1548 H 0.79516 0.10345 0.24218 0.0
H1549 H 0.842 0.13351 0.27842 0.0
H1550 H 0.81283 0.08507 0.19098 0.0
H1551 H 0.85984 0.11471 0.22822 0.0
H1552 H 0.8836 0.09154 0.09845 0.0
H1553 H 0.8649 0.10957 0.14842 0.0
H1554 H 0.83494 0.06279 0.186 0.0
H1555 H 0.85323 0.04494 0.13503 0.0
C1556 C 0.80932 0.10591 0.24002 0.0
C1557 C 0.81713 0.12 0.26453 0.0
C1558 C 0.81949 0.09533 0.21053 0.0
C1559 C 0.83779 0.09847 0.20489 0.0
C1560 C 0.84572 0.11214 0.23078 0.0
C1561 C 0.83552 0.12279 0.26011 0.0
C1562 C 0.87283 0.08515 0.11677 0.0
C1563 C 0.86993 0.06677 0.11254 0.0
C1564 C 0.86223 0.09546 0.14596 0.0
C1565 C 0.84851 0.08765 0.17192 0.0
C1566 C 0.84525 0.06936 0.1664 0.0
C1567 C 0.85577 0.05908 0.13704 0.0
H1568 H 0.89475 0.59096 0.99531 0.0
H1569 H 0.8498 0.55786 0.02901 0.0
H1570 H 0.87659 0.60799 0.94311 0.0
H1571 H 0.83094 0.57591 0.97925 0.0
H1572 H 0.80407 0.60123 0.85568 0.0
H1573 H 0.82269 0.58301 0.90571 0.0
H1574 H 0.85574 0.62886 0.93334 0.0
H1575 H 0.83812 0.6463 0.88091 0.0
C1576 C 0.88077 0.58768 0.99264 0.0
C1577 C 0.87369 0.57315 0.01672 0.0
C1578 C 0.87023 0.59754 0.96257 0.0
C1579 C 0.85207 0.59356 0.95657 0.0
C1580 C 0.84487 0.57928 0.98188 0.0
C1581 C 0.85561 0.56905 0.01108 0.0
C1582 C 0.81557 0.60721 0.87182 0.0
C1583 C 0.81977 0.62512 0.86369 0.0
C1584 C 0.82614 0.59685 0.90117 0.0
C1585 C 0.84089 0.60431 0.92412 0.0
C1586 C 0.84494 0.6223 0.91572 0.0
C1587 C 0.83472 0.63243 0.88552 0.0
H1588 H 0.10864 0.08973 0.63205 0.0
H1589 H 0.1537 0.05592 0.60498 0.0
H1590 H 0.12633 0.10738 0.68407 0.0
H1591 H 0.1721 0.0745 0.65454 0.0
H1592 H 0.19778 0.10085 0.7777 0.0
H1593 H 0.17938 0.08228 0.72814 0.0
H1594 H 0.14731 0.12819 0.6944 0.0
H1595 H 0.16476 0.14609 0.74643 0.0
C1596 C 0.12255 0.0864 0.63615 0.0
C1597 C 0.12978 0.07149 0.61402 0.0
C1598 C 0.13282 0.09661 0.66612 0.0
C1599 C 0.15085 0.09257 0.67401 0.0
C1600 C 0.15823 0.07792 0.65052 0.0
C1601 C 0.14776 0.06738 0.62141 0.0
C1602 C 0.18653 0.10679 0.76035 0.0
C1603 C 0.18258 0.12487 0.76657 0.0
C1604 C 0.17609 0.09622 0.73124 0.0
C1605 C 0.16173 0.10359 0.70656 0.0
C1606 C 0.15785 0.12172 0.71328 0.0
C1607 C 0.16795 0.13211 0.74326 0.0
H1608 H 0.66263 0.36953 0.34759 0.0
H1609 H 0.7098 0.39841 0.38721 0.0
H1610 H 0.64487 0.38811 0.39837 0.0
H1611 H 0.69213 0.41666 0.43893 0.0
H1612 H 0.62098 0.40997 0.52924 0.0
H1613 H 0.6398 0.39229 0.47877 0.0
H1614 H 0.67004 0.43924 0.44436 0.0
H1615 H 0.65157 0.45678 0.49576 0.0
C1616 C 0.6692 0.37995 0.36678 0.0
C1617 C 0.68767 0.38246 0.36317 0.0
C1618 C 0.65904 0.39049 0.39641 0.0
C1619 C 0.66706 0.40376 0.42343 0.0
C1620 C 0.68544 0.40667 0.41854 0.0
C1621 C 0.69559 0.39619 0.38875 0.0
C1622 C 0.63182 0.41647 0.5115 0.0
C1623 C 0.63473 0.43481 0.5167 0.0
C1624 C 0.6425 0.40637 0.48204 0.0
C1625 C 0.65633 0.41435 0.45681 0.0
C1626 C 0.65962 0.43258 0.46334 0.0
C1627 C 0.649 0.44266 0.49294 0.0
H1628 H 0.35466 0.95726 0.13787 0.0
H1629 H 0.38449 0.91037 0.10095 0.0
H1630 H 0.33614 0.93951 0.18871 0.0
H1631 H 0.3656 0.89249 0.15082 0.0
H1632 H 0.34271 0.86868 0.28066 0.0
H1633 H 0.36065 0.88752 0.23085 0.0
H1634 H 0.31376 0.91726 0.19334 0.0
H1635 H 0.29595 0.89878 0.24413 0.0
C1636 C 0.35705 0.94309 0.13982 0.0
C1637 C 0.37112 0.93527 0.11525 0.0
C1638 C 0.34639 0.93288 0.16909 0.0
C1639 C 0.34946 0.91456 0.17447 0.0
C1640 C 0.36309 0.90663 0.14846 0.0
C1641 C 0.3738 0.91685 0.11934 0.0
C1642 C 0.33627 0.87942 0.26237 0.0
C1643 C 0.31786 0.88219 0.26655 0.0
C1644 C 0.34653 0.89011 0.23328 0.0
C1645 C 0.33866 0.9038 0.20738 0.0
C1646 C 0.32035 0.90696 0.21287 0.0
C1647 C 0.3101 0.89633 0.24213 0.0
H1648 H 0.79604 0.39884 0.7406 0.0
H1649 H 0.84365 0.37072 0.78016 0.0
H1650 H 0.8134 0.41739 0.68893 0.0
H1651 H 0.86113 0.38964 0.72947 0.0
H1652 H 0.85326 0.45836 0.63286 0.0
H1653 H 0.83501 0.44036 0.68367 0.0
H1654 H 0.86629 0.39411 0.64934 0.0
H1655 H 0.88492 0.41228 0.59949 0.0
C1656 C 0.81028 0.39685 0.73905 0.0
C1657 C 0.81842 0.38325 0.76462 0.0
C1658 C 0.82026 0.40751 0.70928 0.0
C1659 C 0.83869 0.40492 0.70443 0.0
C1660 C 0.84692 0.39176 0.7314 0.0
C1661 C 0.83692 0.38104 0.76099 0.0
C1662 C 0.85611 0.44429 0.63554 0.0
C1663 C 0.87062 0.4368 0.61204 0.0
C1664 C 0.8456 0.43394 0.6648 0.0
C1665 C 0.84926 0.41578 0.67123 0.0
C1666 C 0.86331 0.40813 0.64616 0.0
C1667 C 0.87387 0.41851 0.61705 0.0
H1668 H 0.35465 0.0447 0.49257 0.0
H1669 H 0.38292 0.09214 0.53303 0.0
H1670 H 0.33655 0.0622 0.44003 0.0
H1671 H 0.36452 0.1097 0.48139 0.0
H1672 H 0.34341 0.13338 0.34974 0.0
H1673 H 0.3609 0.1145 0.40051 0.0
H1674 H 0.31381 0.08432 0.4339 0.0
H1675 H 0.29644 0.10287 0.38226 0.0
C1676 C 0.35677 0.05892 0.49101 0.0
C1677 C 0.37029 0.06698 0.51708 0.0
C1678 C 0.34638 0.06898 0.46075 0.0
C1679 C 0.3492 0.08737 0.45585 0.0
C1680 C 0.36224 0.09552 0.48335 0.0
C1681 C 0.37266 0.08546 0.51347 0.0
C1682 C 0.33684 0.12252 0.36728 0.0
C1683 C 0.3185 0.11968 0.3618 0.0
C1684 C 0.34683 0.11182 0.39691 0.0
C1685 C 0.33875 0.09802 0.422 0.0
C1686 C 0.32054 0.09473 0.41505 0.0
C1687 C 0.31056 0.1054 0.3853 0.0
H1688 H 0.62026 0.59125 0.09908 0.0
H1689 H 0.65116 0.5448 0.13379 0.0
H1690 H 0.63893 0.60925 0.14916 0.0
H1691 H 0.66952 0.56269 0.18475 0.0
H1692 H 0.66118 0.63251 0.28029 0.0
H1693 H 0.64373 0.6135 0.22985 0.0
H1694 H 0.69145 0.58571 0.18956 0.0
H1695 H 0.70884 0.60444 0.2409 0.0
C1696 C 0.63114 0.58489 0.117 0.0
C1697 C 0.63417 0.56655 0.11231 0.0
C1698 C 0.64174 0.59518 0.14623 0.0
C1699 C 0.6556 0.58741 0.17169 0.0
C1700 C 0.65905 0.56919 0.16559 0.0
C1701 C 0.64849 0.5589 0.13626 0.0
C1702 C 0.66793 0.62217 0.26124 0.0
C1703 C 0.68644 0.62004 0.26477 0.0
C1704 C 0.65794 0.61139 0.2318 0.0
C1705 C 0.66618 0.59822 0.20494 0.0
C1706 C 0.68461 0.59564 0.20981 0.0
C1707 C 0.6946 0.60639 0.23937 0.0
H1708 H 0.19732 0.90438 0.85095 0.0
H1709 H 0.16397 0.85965 0.88484 0.0
H1710 H 0.17937 0.92339 0.90059 0.0
H1711 H 0.14705 0.87793 0.93695 0.0
H1712 H 0.1089 0.9165 -0.00099 0.0
H1713 H 0.12628 0.89882 0.94665 0.0
H1714 H 0.17218 0.93187 0.97384 0.0
H1715 H 0.15399 0.95057 0.02378 0.0
C1716 C 0.1861 0.89864 0.86889 0.0
C1717 C 0.18189 0.88059 0.86332 0.0
C1718 C 0.17593 0.90947 0.89804 0.0
C1719 C 0.16159 0.90237 0.92335 0.0
C1720 C 0.15753 0.88423 0.91746 0.0
C1721 C 0.16733 0.87361 0.88744 0.0
C1722 C 0.12277 0.9199 0.99433 0.0
C1723 C 0.1301 0.93486 0.01603 0.0
C1724 C 0.13288 0.90964 0.96417 0.0
C1725 C 0.15087 0.91364 0.95568 0.0
C1726 C 0.15834 0.92843 0.97846 0.0
C1727 C 0.148 0.93905 0.00776 0.0
loop_
_geom_bond_atom_site_label_1
_geom_bond_atom_site_label_2
_geom_bond_distance
_geom_bond_site_symmetry_2
_ccdc_geom_bond_type
C0 O2 1.247 . S
C0 O4 1.258 . S
C1 O8 1.247 . S
C1 O9 1.258 . S
O2 C0 1.247 . S
O2 Zn3 2.028 . S
Zn3 O2 2.028 . S
Zn3 O7 2.035 . S
Zn3 O9 2.035 . S
Zn3 O10 2.028 . S
O4 C0 1.258 . S
O4 Zn5 2.035 . S
Zn5 O4 2.035 . S
Zn5 O6 2.028 . S
Zn5 O8 2.028 . S
Zn5 O11 2.035 . S
O6 Zn5 2.028 . S
O6 C12 1.252 . S
O7 Zn3 2.035 . S
O7 C12 1.263 . S
O8 C1 1.247 . S
O8 Zn5 2.028 . S
O9 C1 1.258 . S
O9 Zn3 2.035 . S
O10 Zn3 2.028 . S
O10 C13 1.247 . S
O11 Zn5 2.035 . S
O11 C13 1.258 . S
C12 O6 1.252 . S
C12 O7 1.263 . S
C13 O10 1.247 . S
C13 O11 1.258 . S
C14 O16 1.247 . S
C14 O18 1.258 . S
C15 O22 1.247 . S
C15 O23 1.258 . S
O16 C14 1.247 . S
O16 Zn17 2.028 . S
Zn17 O16 2.028 . S
Zn17 O21 2.035 . S
Zn17 O23 2.035 . S
Zn17 O24 2.028 . S
O18 C14 1.258 . S
O18 Zn19 2.035 . S
Zn19 O18 2.035 . S
Zn19 O20 2.028 . S
Zn19 O22 2.028 . S
Zn19 O25 2.035 . S
O20 Zn19 2.028 . S
O20 C26 1.247 . S
O21 Zn17 2.035 . S
O21 C26 1.258 . S
O22 C15 1.247 . S
O22 Zn19 2.028 . S
O23 C15 1.258 . S
O23 Zn17 2.035 . S
O24 Zn17 2.028 . S
O24 C27 1.247 . S
O25 Zn19 2.035 . S
O25 C27 1.258 . S
C26 O20 1.247 . S
C26 O21 1.258 . S
C27 O24 1.247 . S
C27 O25 1.258 . S
C28 O30 1.247 . S
C28 O32 1.258 . S
C29 O36 1.247 . S
C29 O37 1.258 . S
O30 C28 1.247 . S
O30 Zn31 2.028 . S
Zn31 O30 2.028 . S
Zn31 O35 2.035 . S
Zn31 O37 2.035 . S
Zn31 O38 2.028 . S
O32 C28 1.258 . S
O32 Zn33 2.035 . S
Zn33 O32 2.035 . S
Zn33 O34 2.028 . S
Zn33 O36 2.028 . S
Zn33 O39 2.035 . S
O34 Zn33 2.028 . S
O34 C40 1.247 . S
O35 Zn31 2.035 . S
O35 C40 1.258 . S
O36 C29 1.247 . S
O36 Zn33 2.028 . S
O37 C29 1.258 . S
O37 Zn31 2.035 . S
O38 Zn31 2.028 . S
O38 C41 1.247 . S
O39 Zn33 2.035 . S
O39 C41 1.258 . S
C40 O34 1.247 . S
C40 O35 1.258 . S
C41 O38 1.247 . S
C41 O39 1.258 . S
C42 O44 1.247 . S
C42 O46 1.258 . S
C43 O50 1.247 . S
C43 O51 1.258 . S
O44 C42 1.247 . S
O44 Zn45 2.028 . S
Zn45 O44 2.028 . S
Zn45 O49 2.035 . S
Zn45 O51 2.035 . S
Zn45 O52 2.028 . S
O46 C42 1.258 . S
O46 Zn47 2.035 . S
Zn47 O46 2.035 . S
Zn47 O48 2.028 . S
Zn47 O50 2.028 . S
Zn47 O53 2.035 . S
O48 Zn47 2.028 . S
O48 C54 1.247 . S
O49 Zn45 2.035 . S
O49 C54 1.258 . S
O50 C43 1.247 . S
O50 Zn47 2.028 . S
O51 C43 1.258 . S
O51 Zn45 2.035 . S
O52 Zn45 2.028 . S
O52 C55 1.247 . S
O53 Zn47 2.035 . S
O53 C55 1.258 . S
C54 O48 1.247 . S
C54 O49 1.258 . S
C55 O52 1.247 . S
C55 O53 1.258 . S
C56 O58 1.247 . S
C56 O60 1.258 . S
C57 O64 1.247 . S
C57 O65 1.258 . S
O58 C56 1.247 . S
O58 Zn59 2.028 . S
Zn59 O58 2.028 . S
Zn59 O63 2.035 . S
Zn59 O65 2.035 . S
Zn59 O66 2.028 . S
O60 C56 1.258 . S
O60 Zn61 2.035 . S
Zn61 O60 2.035 . S
Zn61 O62 2.028 . S
Zn61 O64 2.028 . S
Zn61 O67 2.035 . S
O62 Zn61 2.028 . S
O62 C68 1.247 . S
O63 Zn59 2.035 . S
O63 C68 1.258 . S
O64 C57 1.247 . S
O64 Zn61 2.028 . S
O65 C57 1.258 . S
O65 Zn59 2.035 . S
O66 Zn59 2.028 . S
O66 C69 1.247 . S
O67 Zn61 2.035 . S
O67 C69 1.258 . S
C68 O62 1.247 . S
C68 O63 1.258 . S
C69 O66 1.247 . S
C69 O67 1.258 . S
C70 O72 1.247 . S
C70 O74 1.258 . S
C71 O78 1.247 . S
C71 O79 1.258 . S
O72 C70 1.247 . S
O72 Zn73 2.028 . S
Zn73 O72 2.028 . S
Zn73 O77 2.035 . S
Zn73 O79 2.035 . S
Zn73 O80 2.028 . S
O74 C70 1.258 . S
O74 Zn75 2.035 . S
Zn75 O74 2.035 . S
Zn75 O76 2.028 . S
Zn75 O78 2.028 . S
Zn75 O81 2.035 . S
O76 Zn75 2.028 . S
O76 C82 1.247 . S
O77 Zn73 2.035 . S
O77 C82 1.258 . S
O78 C71 1.247 . S
O78 Zn75 2.028 . S
O79 C71 1.258 . S
O79 Zn73 2.035 . S
O80 Zn73 2.028 . S
O80 C83 1.247 . S
O81 Zn75 2.035 . S
O81 C83 1.258 . S
C82 O76 1.247 . S
C82 O77 1.258 . S
C83 O80 1.247 . S
C83 O81 1.258 . S
C84 O86 1.247 . S
C84 O88 1.258 . S
C85 O92 1.247 . S
C85 O93 1.258 . S
O86 C84 1.247 . S
O86 Zn87 2.028 . S
Zn87 O86 2.028 . S
Zn87 O91 2.035 . S
Zn87 O93 2.035 . S
Zn87 O94 2.028 1_554 S
O88 C84 1.258 . S
O88 Zn89 2.035 . S
Zn89 O88 2.035 . S
Zn89 O90 2.028 . S
Zn89 O92 2.028 . S
Zn89 O95 2.035 1_554 S
O90 Zn89 2.028 . S
O90 C96 1.247 . S
O91 Zn87 2.035 . S
O91 C96 1.258 . S
O92 C85 1.247 . S
O92 Zn89 2.028 . S
O93 C85 1.258 . S
O93 Zn87 2.035 . S
O94 Zn87 2.028 1_556 S
O94 C97 1.247 . S
O95 Zn89 2.035 1_556 S
O95 C97 1.258 . S
C96 O90 1.247 . S
C96 O91 1.258 . S
C97 O94 1.247 . S
C97 O95 1.258 . S
C98 O100 1.247 . S
C98 O102 1.258 . S
C99 O106 1.247 . S
C99 O107 1.258 . S
O100 C98 1.247 . S
O100 Zn101 2.028 . S
Zn101 O100 2.028 . S
Zn101 O105 2.035 . S
Zn101 O107 2.035 . S
Zn101 O108 2.028 . S
O102 C98 1.258 . S
O102 Zn103 2.035 . S
Zn103 O102 2.035 . S
Zn103 O104 2.028 . S
Zn103 O106 2.028 . S
Zn103 O109 2.035 . S
O104 Zn103 2.028 . S
O104 C110 1.247 . S
O105 Zn101 2.035 . S
O105 C110 1.258 . S
O106 C99 1.247 . S
O106 Zn103 2.028 . S
O107 C99 1.258 . S
O107 Zn101 2.035 . S
O108 Zn101 2.028 . S
O108 C111 1.247 . S
O109 Zn103 2.035 . S
O109 C111 1.258 . S
C110 O104 1.247 . S
C110 O105 1.258 . S
C111 O108 1.247 . S
C111 O109 1.258 . S
C112 O114 1.247 . S
C112 O116 1.258 . S
C113 O120 1.247 . S
C113 O121 1.258 . S
O114 C112 1.247 . S
O114 Zn115 2.028 1_556 S
Zn115 O114 2.028 1_554 S
Zn115 O119 2.035 . S
Zn115 O121 2.035 . S
Zn115 O122 2.028 . S
O116 C112 1.258 . S
O116 Zn117 2.035 1_556 S
Zn117 O116 2.035 1_554 S
Zn117 O118 2.028 . S
Zn117 O120 2.028 . S
Zn117 O123 2.035 . S
O118 Zn117 2.028 . S
O118 C124 1.247 . S
O119 Zn115 2.035 . S
O119 C124 1.258 . S
O120 C113 1.247 . S
O120 Zn117 2.028 . S
O121 C113 1.258 . S
O121 Zn115 2.035 . S
O122 Zn115 2.028 . S
O122 C125 1.247 . S
O123 Zn117 2.035 . S
O123 C125 1.258 . S
C124 O118 1.247 . S
C124 O119 1.258 . S
C125 O122 1.247 . S
C125 O123 1.258 . S
C126 O128 1.247 . S
C126 O130 1.258 . S
C127 O134 1.247 . S
C127 O135 1.258 . S
O128 C126 1.247 . S
O128 Zn129 2.028 . S
Zn129 O128 2.028 . S
Zn129 O133 2.035 . S
Zn129 O135 2.035 . S
Zn129 O136 2.028 . S
O130 C126 1.258 . S
O130 Zn131 2.035 . S
Zn131 O130 2.035 . S
Zn131 O132 2.028 . S
Zn131 O134 2.028 . S
Zn131 O137 2.035 . S
O132 Zn131 2.028 . S
O132 C138 1.247 . S
O133 Zn129 2.035 . S
O133 C138 1.258 . S
O134 C127 1.247 . S
O134 Zn131 2.028 . S
O135 C127 1.258 . S
O135 Zn129 2.035 . S
O136 Zn129 2.028 . S
O136 C139 1.247 . S
O137 Zn131 2.035 . S
O137 C139 1.258 . S
C138 O132 1.247 . S
C138 O133 1.258 . S
C139 O136 1.247 . S
C139 O137 1.258 . S
C140 O142 1.247 . S
C140 O144 1.258 . S
C141 O148 1.247 . S
C141 O149 1.258 . S
O142 C140 1.247 . S
O142 Zn143 2.028 . S
Zn143 O142 2.028 . S
Zn143 O147 2.035 . S
Zn143 O149 2.035 . S
Zn143 O150 2.028 . S
O144 C140 1.258 . S
O144 Zn145 2.035 . S
Zn145 O144 2.035 . S
Zn145 O146 2.028 . S
Zn145 O148 2.028 . S
Zn145 O151 2.035 . S
O146 Zn145 2.028 . S
O146 C152 1.247 . S
O147 Zn143 2.035 . S
O147 C152 1.258 . S
O148 C141 1.247 . S
O148 Zn145 2.028 . S
O149 C141 1.258 . S
O149 Zn143 2.035 . S
O150 Zn143 2.028 . S
O150 C153 1.247 . S
O151 Zn145 2.035 . S
O151 C153 1.258 . S
C152 O146 1.247 . S
C152 O147 1.258 . S
C153 O150 1.247 . S
C153 O151 1.258 . S
C154 O156 1.247 . S
C154 O158 1.258 . S
C155 O162 1.247 . S
C155 O163 1.258 . S
O156 C154 1.247 . S
O156 Zn157 2.028 . S
Zn157 O156 2.028 . S
Zn157 O161 2.035 . S
Zn157 O163 2.035 . S
Zn157 O164 2.028 . S
O158 C154 1.258 . S
O158 Zn159 2.035 . S
Zn159 O158 2.035 . S
Zn159 O160 2.028 . S
Zn159 O162 2.028 . S
Zn159 O165 2.035 . S
O160 Zn159 2.028 . S
O160 C166 1.247 . S
O161 Zn157 2.035 . S
O161 C166 1.258 . S
O162 C155 1.247 . S
O162 Zn159 2.028 . S
O163 C155 1.258 . S
O163 Zn157 2.035 . S
O164 Zn157 2.028 . S
O164 C167 1.247 . S
O165 Zn159 2.035 . S
O165 C167 1.258 . S
C166 O160 1.247 . S
C166 O161 1.258 . S
C167 O164 1.247 . S
C167 O165 1.258 . S
C168 O170 1.247 . S
C168 O172 1.258 . S
C169 O176 1.247 . S
C169 O177 1.258 . S
O170 C168 1.247 . S
O170 Zn171 2.028 . S
Zn171 O170 2.028 . S
Zn171 O175 2.035 . S
Zn171 O177 2.035 . S
Zn171 O178 2.028 . S
O172 C168 1.258 . S
O172 Zn173 2.035 . S
Zn173 O172 2.035 . S
Zn173 O174 2.028 . S
Zn173 O176 2.028 . S
Zn173 O179 2.035 . S
O174 Zn173 2.028 . S
O174 C180 1.247 . S
O175 Zn171 2.035 . S
O175 C180 1.258 . S
O176 C169 1.247 . S
O176 Zn173 2.028 . S
O177 C169 1.258 . S
O177 Zn171 2.035 . S
O178 Zn171 2.028 . S
O178 C181 1.247 . S
O179 Zn173 2.035 . S
O179 C181 1.258 . S
C180 O174 1.247 . S
C180 O175 1.258 . S
C181 O178 1.247 . S
C181 O179 1.258 . S
C182 O184 1.247 . S
C182 O186 1.258 . S
C183 O190 1.247 . S
C183 O191 1.258 . S
O184 C182 1.247 . S
O184 Zn185 2.028 . S
Zn185 O184 2.028 . S
Zn185 O189 2.035 . S
Zn185 O191 2.035 . S
Zn185 O192 2.028 . S
O186 C182 1.258 . S
O186 Zn187 2.035 . S
Zn187 O186 2.035 . S
Zn187 O188 2.028 . S
Zn187 O190 2.028 . S
Zn187 O193 2.035 . S
O188 Zn187 2.028 . S
O188 C194 1.247 . S
O189 Zn185 2.035 . S
O189 C194 1.258 . S
O190 C183 1.247 . S
O190 Zn187 2.028 . S
O191 C183 1.258 . S
O191 Zn185 2.035 . S
O192 Zn185 2.028 . S
O192 C195 1.247 . S
O193 Zn187 2.035 . S
O193 C195 1.258 . S
C194 O188 1.247 . S
C194 O189 1.258 . S
C195 O192 1.247 . S
C195 O193 1.258 . S
C196 O198 1.252 . S
C196 O200 1.264 . S
C197 O204 1.247 . S
C197 O205 1.258 . S
O198 C196 1.252 . S
O198 Zn199 2.028 . S
Zn199 O198 2.028 . S
Zn199 O203 2.035 . S
Zn199 O205 2.035 . S
Zn199 O206 2.028 . S
O200 C196 1.264 . S
O200 Zn201 2.035 . S
Zn201 O200 2.035 . S
Zn201 O202 2.028 . S
Zn201 O204 2.028 . S
Zn201 O207 2.035 . S
O202 Zn201 2.028 . S
O202 C208 1.247 . S
O203 Zn199 2.035 . S
O203 C208 1.258 . S
O204 C197 1.247 . S
O204 Zn201 2.028 . S
O205 C197 1.258 . S
O205 Zn199 2.035 . S
O206 Zn199 2.028 . S
O206 C209 1.247 . S
O207 Zn201 2.035 . S
O207 C209 1.258 . S
C208 O202 1.247 . S
C208 O203 1.258 . S
C209 O206 1.247 . S
C209 O207 1.258 . S
C210 O212 1.247 . S
C210 O214 1.258 . S
C211 O218 1.247 . S
C211 O219 1.258 . S
O212 C210 1.247 . S
O212 Zn213 2.028 . S
Zn213 O212 2.028 . S
Zn213 O217 2.035 . S
Zn213 O219 2.035 . S
Zn213 O220 2.028 . S
O214 C210 1.258 . S
O214 Zn215 2.035 . S
Zn215 O214 2.035 . S
Zn215 O216 2.028 . S
Zn215 O218 2.028 . S
Zn215 O221 2.035 . S
O216 Zn215 2.028 . S
O216 C222 1.247 . S
O217 Zn213 2.035 . S
O217 C222 1.258 . S
O218 C211 1.247 . S
O218 Zn215 2.028 . S
O219 C211 1.258 . S
O219 Zn213 2.035 . S
O220 Zn213 2.028 . S
O220 C223 1.247 . S
O221 Zn215 2.035 . S
O221 C223 1.258 . S
C222 O216 1.247 . S
C222 O217 1.258 . S
C223 O220 1.247 . S
C223 O221 1.258 . S
C224 O226 1.247 . S
C224 O228 1.258 1_545 S
C225 O232 1.247 . S
C225 O233 1.258 . S
O226 C224 1.247 . S
O226 Zn227 2.028 . S
Zn227 O226 2.028 . S
Zn227 O231 2.035 . S
Zn227 O233 2.035 1_545 S
Zn227 O234 2.028 . S
O228 C224 1.258 1_565 S
O228 Zn229 2.035 . S
Zn229 O228 2.035 . S
Zn229 O230 2.028 . S
Zn229 O232 2.028 . S
Zn229 O235 2.035 . S
O230 Zn229 2.028 . S
O230 C236 1.247 . S
O231 Zn227 2.035 . S
O231 C236 1.258 1_545 S
O232 C225 1.247 . S
O232 Zn229 2.028 . S
O233 C225 1.258 . S
O233 Zn227 2.035 1_565 S
O234 Zn227 2.028 . S
O234 C237 1.247 1_545 S
O235 Zn229 2.035 . S
O235 C237 1.258 . S
C236 O230 1.247 . S
C236 O231 1.258 1_565 S
C237 O234 1.247 1_565 S
C237 O235 1.258 . S
C238 O240 1.247 . S
C238 O242 1.258 . S
C239 O246 1.247 . S
C239 O247 1.258 . S
O240 C238 1.247 . S
O240 Zn241 2.028 . S
Zn241 O240 2.028 . S
Zn241 O245 2.035 . S
Zn241 O247 2.035 . S
Zn241 O248 2.028 . S
O242 C238 1.258 . S
O242 Zn243 2.035 . S
Zn243 O242 2.035 . S
Zn243 O244 2.028 . S
Zn243 O246 2.028 . S
Zn243 O249 2.035 . S
O244 Zn243 2.028 . S
O244 C250 1.247 . S
O245 Zn241 2.035 . S
O245 C250 1.258 . S
O246 C239 1.247 . S
O246 Zn243 2.028 . S
O247 C239 1.258 . S
O247 Zn241 2.035 . S
O248 Zn241 2.028 . S
O248 C251 1.247 . S
O249 Zn243 2.035 . S
O249 C251 1.258 . S
C250 O244 1.247 . S
C250 O245 1.258 . S
C251 O248 1.247 . S
C251 O249 1.258 . S
C252 O254 1.251 . S
C252 O256 1.262 1_545 S
C253 O260 1.247 1_545 S
C253 O261 1.258 . S
O254 C252 1.251 . S
O254 Zn255 2.028 . S
Zn255 O254 2.028 . S
Zn255 O259 2.035 . S
Zn255 O261 2.035 . S
Zn255 O262 2.028 . S
O256 C252 1.262 1_565 S
O256 Zn257 2.035 . S
Zn257 O256 2.035 . S
Zn257 O258 2.028 1_565 S
Zn257 O260 2.028 . S
Zn257 O263 2.035 . S
O258 Zn257 2.028 1_545 S
O258 C264 1.247 . S
O259 Zn255 2.035 . S
O259 C264 1.258 . S
O260 C253 1.247 1_565 S
O260 Zn257 2.028 . S
O261 C253 1.258 . S
O261 Zn255 2.035 . S
O262 Zn255 2.028 . S
O262 C265 1.247 1_545 S
O263 Zn257 2.035 . S
O263 C265 1.258 . S
C264 O258 1.247 . S
C264 O259 1.258 . S
C265 O262 1.247 1_565 S
C265 O263 1.258 . S
C266 O268 1.247 . S
C266 O270 1.258 . S
C267 O274 1.247 . S
C267 O275 1.258 . S
O268 C266 1.247 . S
O268 Zn269 2.028 . S
Zn269 O268 2.028 . S
Zn269 O273 2.035 . S
Zn269 O275 2.035 . S
Zn269 O276 2.028 . S
O270 C266 1.258 . S
O270 Zn271 2.035 . S
Zn271 O270 2.035 . S
Zn271 O272 2.028 . S
Zn271 O274 2.028 . S
Zn271 O277 2.035 . S
O272 Zn271 2.028 . S
O272 C278 1.247 . S
O273 Zn269 2.035 . S
O273 C278 1.258 . S
O274 C267 1.247 . S
O274 Zn271 2.028 . S
O275 C267 1.258 . S
O275 Zn269 2.035 . S
O276 Zn269 2.028 . S
O276 C279 1.247 . S
O277 Zn271 2.035 . S
O277 C279 1.258 . S
C278 O272 1.247 . S
C278 O273 1.258 . S
C279 O276 1.247 . S
C279 O277 1.258 . S
C280 O282 1.247 . S
C280 O284 1.258 1_565 S
C281 O288 1.247 . S
C281 O289 1.258 . S
O282 C280 1.247 . S
O282 Zn283 2.028 . S
Zn283 O282 2.028 . S
Zn283 O287 2.035 1_554 S
Zn283 O289 2.035 1_565 S
Zn283 O290 2.028 . S
O284 C280 1.258 1_545 S
O284 Zn285 2.035 . S
Zn285 O284 2.035 . S
Zn285 O286 2.028 1_554 S
Zn285 O288 2.028 . S
Zn285 O291 2.035 . S
O286 Zn285 2.028 1_556 S
O286 C292 1.247 . S
O287 Zn283 2.035 1_556 S
O287 C292 1.258 1_565 S
O288 C281 1.247 . S
O288 Zn285 2.028 . S
O289 C281 1.258 . S
O289 Zn283 2.035 1_545 S
O290 Zn283 2.028 . S
O290 C293 1.247 1_565 S
O291 Zn285 2.035 . S
O291 C293 1.258 . S
C292 O286 1.247 . S
C292 O287 1.258 1_545 S
C293 O290 1.247 1_545 S
C293 O291 1.258 . S
C294 O296 1.247 . S
C294 O298 1.258 . S
C295 O302 1.247 . S
C295 O303 1.258 . S
O296 C294 1.247 . S
O296 Zn297 2.028 . S
Zn297 O296 2.028 . S
Zn297 O301 2.035 . S
Zn297 O303 2.035 . S
Zn297 O304 2.028 . S
O298 C294 1.258 . S
O298 Zn299 2.035 . S
Zn299 O298 2.035 . S
Zn299 O300 2.028 . S
Zn299 O302 2.028 . S
Zn299 O305 2.035 . S
O300 Zn299 2.028 . S
O300 C306 1.247 . S
O301 Zn297 2.035 . S
O301 C306 1.258 . S
O302 C295 1.247 . S
O302 Zn299 2.028 . S
O303 C295 1.258 . S
O303 Zn297 2.035 . S
O304 Zn297 2.028 . S
O304 C307 1.247 . S
O305 Zn299 2.035 . S
O305 C307 1.258 . S
C306 O300 1.247 . S
C306 O301 1.258 . S
C307 O304 1.247 . S
C307 O305 1.258 . S
C308 O310 1.247 . S
C308 O312 1.258 1_565 S
C309 O316 1.247 1_565 S
C309 O317 1.258 . S
O310 C308 1.247 . S
O310 Zn311 2.028 . S
Zn311 O310 2.028 . S
Zn311 O315 2.035 . S
Zn311 O317 2.035 . S
Zn311 O318 2.028 . S
O312 C308 1.258 1_545 S
O312 Zn313 2.035 . S
Zn313 O312 2.035 . S
Zn313 O314 2.028 1_545 S
Zn313 O316 2.028 . S
Zn313 O319 2.035 . S
O314 Zn313 2.028 1_565 S
O314 C320 1.247 . S
O315 Zn311 2.035 . S
O315 C320 1.258 . S
O316 C309 1.247 1_545 S
O316 Zn313 2.028 . S
O317 C309 1.258 . S
O317 Zn311 2.035 . S
O318 Zn311 2.028 . S
O318 C321 1.247 1_565 S
O319 Zn313 2.035 . S
O319 C321 1.258 . S
C320 O314 1.247 . S
C320 O315 1.258 . S
C321 O318 1.247 1_545 S
C321 O319 1.258 . S
C322 O324 1.247 . S
C322 O326 1.258 . S
C323 O330 1.247 . S
C323 O331 1.258 . S
O324 C322 1.247 . S
O324 Zn325 2.028 . S
Zn325 O324 2.028 . S
Zn325 O329 2.035 . S
Zn325 O331 2.035 . S
Zn325 O332 2.028 . S
O326 C322 1.258 . S
O326 Zn327 2.035 . S
Zn327 O326 2.035 . S
Zn327 O328 2.028 . S
Zn327 O330 2.028 . S
Zn327 O333 2.035 . S
O328 Zn327 2.028 . S
O328 C334 1.247 . S
O329 Zn325 2.035 . S
O329 C334 1.258 . S
O330 C323 1.247 . S
O330 Zn327 2.028 . S
O331 C323 1.258 . S
O331 Zn325 2.035 . S
O332 Zn325 2.028 . S
O332 C335 1.247 . S
O333 Zn327 2.035 . S
O333 C335 1.258 . S
C334 O328 1.247 . S
C334 O329 1.258 . S
C335 O332 1.247 . S
C335 O333 1.258 . S
C336 O338 1.247 . S
C336 O340 1.258 . S
C337 O344 1.247 . S
C337 O345 1.258 1_565 S
O338 C336 1.247 . S
O338 Zn339 2.028 . S
Zn339 O338 2.028 . S
Zn339 O343 2.035 . S
Zn339 O345 2.035 . S
Zn339 O346 2.028 . S
O340 C336 1.258 . S
O340 Zn341 2.035 1_545 S
Zn341 O340 2.035 1_565 S
Zn341 O342 2.028 . S
Zn341 O344 2.028 . S
Zn341 O347 2.035 . S
O342 Zn341 2.028 . S
O342 C348 1.247 1_565 S
O343 Zn339 2.035 . S
O343 C348 1.258 . S
O344 C337 1.247 . S
O344 Zn341 2.028 . S
O345 C337 1.258 1_545 S
O345 Zn339 2.035 . S
O346 Zn339 2.028 . S
O346 C349 1.247 . S
O347 Zn341 2.035 . S
O347 C349 1.258 1_565 S
C348 O342 1.247 1_545 S
C348 O343 1.258 . S
C349 O346 1.247 . S
C349 O347 1.258 1_545 S
C350 O352 1.247 . S
C350 O354 1.258 . S
C351 O358 1.247 . S
C351 O359 1.258 . S
O352 C350 1.247 . S
O352 Zn353 2.028 . S
Zn353 O352 2.028 . S
Zn353 O357 2.035 . S
Zn353 O359 2.035 . S
Zn353 O360 2.028 . S
O354 C350 1.258 . S
O354 Zn355 2.035 . S
Zn355 O354 2.035 . S
Zn355 O356 2.028 . S
Zn355 O358 2.028 . S
Zn355 O361 2.035 . S
O356 Zn355 2.028 . S
O356 C362 1.247 . S
O357 Zn353 2.035 . S
O357 C362 1.258 . S
O358 C351 1.247 . S
O358 Zn355 2.028 . S
O359 C351 1.258 . S
O359 Zn353 2.035 . S
O360 Zn353 2.028 . S
O360 C363 1.247 . S
O361 Zn355 2.035 . S
O361 C363 1.258 . S
C362 O356 1.247 . S
C362 O357 1.258 . S
C363 O360 1.247 . S
C363 O361 1.258 . S
C364 O366 1.247 . S
C364 O368 1.258 . S
C365 O372 1.247 . S
C365 O373 1.258 1_545 S
O366 C364 1.247 . S
O366 Zn367 2.028 . S
Zn367 O366 2.028 . S
Zn367 O371 2.035 . S
Zn367 O373 2.035 . S
Zn367 O374 2.028 1_554 S
O368 C364 1.258 . S
O368 Zn369 2.035 1_565 S
Zn369 O368 2.035 1_545 S
Zn369 O370 2.028 . S
Zn369 O372 2.028 . S
Zn369 O375 2.035 1_554 S
O370 Zn369 2.028 . S
O370 C376 1.247 1_545 S
O371 Zn367 2.035 . S
O371 C376 1.258 . S
O372 C365 1.247 . S
O372 Zn369 2.028 . S
O373 C365 1.258 1_565 S
O373 Zn367 2.035 . S
O374 Zn367 2.028 1_556 S
O374 C377 1.247 . S
O375 Zn369 2.035 1_556 S
O375 C377 1.258 1_545 S
C376 O370 1.247 1_565 S
C376 O371 1.258 . S
C377 O374 1.247 . S
C377 O375 1.258 1_565 S
C378 O380 1.247 . S
C378 O382 1.258 . S
C379 O386 1.247 . S
C379 O387 1.258 . S
O380 C378 1.247 . S
O380 Zn381 2.028 . S
Zn381 O380 2.028 . S
Zn381 O385 2.035 . S
Zn381 O387 2.035 . S
Zn381 O388 2.028 . S
O382 C378 1.258 . S
O382 Zn383 2.035 . S
Zn383 O382 2.035 . S
Zn383 O384 2.028 . S
Zn383 O386 2.028 . S
Zn383 O389 2.035 . S
O384 Zn383 2.028 . S
O384 C390 1.247 . S
O385 Zn381 2.035 . S
O385 C390 1.258 . S
O386 C379 1.247 . S
O386 Zn383 2.028 . S
O387 C379 1.258 . S
O387 Zn381 2.035 . S
O388 Zn381 2.028 . S
O388 C391 1.247 . S
O389 Zn383 2.035 . S
O389 C391 1.258 . S
C390 O384 1.247 . S
C390 O385 1.258 . S
C391 O388 1.247 . S
C391 O389 1.258 . S
C392 O394 1.247 1_565 S
C392 O396 1.258 . S
C393 O400 1.251 . S
C393 O401 1.262 1_565 S
O394 C392 1.247 1_545 S
O394 Zn395 2.028 . S
Zn395 O394 2.028 . S
Zn395 O399 2.035 . S
Zn395 O401 2.035 . S
Zn395 O402 2.028 1_545 S
O396 C392 1.258 . S
O396 Zn397 2.035 . S
Zn397 O396 2.035 . S
Zn397 O398 2.028 . S
Zn397 O400 2.028 . S
Zn397 O403 2.035 . S
O398 Zn397 2.028 . S
O398 C404 1.247 1_565 S
O399 Zn395 2.035 . S
O399 C404 1.258 . S
O400 C393 1.251 . S
O400 Zn397 2.028 . S
O401 C393 1.262 1_545 S
O401 Zn395 2.035 . S
O402 Zn395 2.028 1_565 S
O402 C405 1.247 . S
O403 Zn397 2.035 . S
O403 C405 1.258 . S
C404 O398 1.247 1_545 S
C404 O399 1.258 . S
C405 O402 1.247 . S
C405 O403 1.258 . S
C406 O408 1.247 . S
C406 O410 1.258 . S
C407 O414 1.247 . S
C407 O415 1.258 . S
O408 C406 1.247 . S
O408 Zn409 2.028 . S
Zn409 O408 2.028 . S
Zn409 O413 2.035 . S
Zn409 O415 2.035 . S
Zn409 O416 2.028 . S
O410 C406 1.258 . S
O410 Zn411 2.035 . S
Zn411 O410 2.035 . S
Zn411 O412 2.028 . S
Zn411 O414 2.028 . S
Zn411 O417 2.035 . S
O412 Zn411 2.028 . S
O412 C418 1.247 . S
O413 Zn409 2.035 . S
O413 C418 1.258 . S
O414 C407 1.247 . S
O414 Zn411 2.028 . S
O415 C407 1.258 . S
O415 Zn409 2.035 . S
O416 Zn409 2.028 . S
O416 C419 1.247 . S
O417 Zn411 2.035 . S
O417 C419 1.258 . S
C418 O412 1.247 . S
C418 O413 1.258 . S
C419 O416 1.247 . S
C419 O417 1.258 . S
C420 O422 1.247 1_545 S
C420 O424 1.258 . S
C421 O428 1.247 . S
C421 O429 1.258 1_545 S
O422 C420 1.247 1_565 S
O422 Zn423 2.028 . S
Zn423 O422 2.028 . S
Zn423 O427 2.035 . S
Zn423 O429 2.035 . S
Zn423 O430 2.028 1_565 S
O424 C420 1.258 . S
O424 Zn425 2.035 . S
Zn425 O424 2.035 . S
Zn425 O426 2.028 . S
Zn425 O428 2.028 . S
Zn425 O431 2.035 . S
O426 Zn425 2.028 . S
O426 C432 1.247 1_545 S
O427 Zn423 2.035 . S
O427 C432 1.258 . S
O428 C421 1.247 . S
O428 Zn425 2.028 . S
O429 C421 1.258 1_565 S
O429 Zn423 2.035 . S
O430 Zn423 2.028 1_545 S
O430 C433 1.247 . S
O431 Zn425 2.035 . S
O431 C433 1.258 . S
C432 O426 1.247 1_565 S
C432 O427 1.258 . S
C433 O430 1.247 . S
C433 O431 1.258 . S
C434 O436 1.247 . S
C434 O438 1.258 . S
C435 O442 1.247 . S
C435 O443 1.258 . S
O436 C434 1.247 . S
O436 Zn437 2.028 . S
Zn437 O436 2.028 . S
Zn437 O441 2.035 . S
Zn437 O443 2.035 . S
Zn437 O444 2.028 . S
O438 C434 1.258 . S
O438 Zn439 2.035 . S
Zn439 O438 2.035 . S
Zn439 O440 2.028 . S
Zn439 O442 2.028 . S
Zn439 O445 2.035 . S
O440 Zn439 2.028 . S
O440 C446 1.247 . S
O441 Zn437 2.035 . S
O441 C446 1.258 . S
O442 C435 1.247 . S
O442 Zn439 2.028 . S
O443 C435 1.258 . S
O443 Zn437 2.035 . S
O444 Zn437 2.028 . S
O444 C447 1.247 . S
O445 Zn439 2.035 . S
O445 C447 1.258 . S
C446 O440 1.247 . S
C446 O441 1.258 . S
C447 O444 1.247 . S
C447 O445 1.258 . S
H448 C456 0.950 . S
H449 C461 0.950 . S
H450 C458 0.950 . S
H451 C460 0.950 . S
H452 C462 0.950 . S
H453 C464 0.950 . S
H454 C466 0.950 . S
H455 C467 0.950 . S
C456 H448 0.950 . S
C456 C457 1.386 . S
C456 C458 1.391 . S
C457 C456 1.386 . S
C457 C461 1.393 . S
C458 H450 0.950 . S
C458 C456 1.391 . S
C458 C459 1.400 . S
C459 C458 1.400 . S
C459 C460 1.398 . S
C459 C465 1.491 1_655 S
C460 H451 0.950 . S
C460 C459 1.398 . S
C460 C461 1.391 . S
C461 H449 0.950 . S
C461 C457 1.393 . S
C461 C460 1.391 . S
C462 H452 0.950 . S
C462 C463 1.386 . S
C462 C464 1.391 . S
C463 C462 1.386 . S
C463 C467 1.393 . S
C464 H453 0.950 . S
C464 C462 1.391 . S
C464 C465 1.400 . S
C465 C459 1.491 1_455 S
C465 C464 1.400 . S
C465 C466 1.398 . S
C466 H454 0.950 . S
C466 C465 1.398 . S
C466 C467 1.391 . S
C467 H455 0.950 . S
C467 C463 1.393 . S
C467 C466 1.391 . S
H468 C476 0.950 . S
H469 C481 0.950 . S
H470 C478 0.950 . S
H471 C480 0.950 . S
H472 C482 0.950 . S
H473 C484 0.950 . S
H474 C486 0.950 . S
H475 C487 0.950 . S
C476 H468 0.950 . S
C476 C477 1.386 . S
C476 C478 1.391 . S
C477 C476 1.386 . S
C477 C481 1.393 . S
C478 H470 0.950 . S
C478 C476 1.391 . S
C478 C479 1.400 . S
C479 C478 1.400 . S
C479 C480 1.398 . S
C479 C485 1.491 . S
C480 H471 0.950 . S
C480 C479 1.398 . S
C480 C481 1.391 . S
C481 H469 0.950 . S
C481 C477 1.393 . S
C481 C480 1.391 . S
C482 H472 0.950 . S
C482 C483 1.386 . S
C482 C484 1.391 . S
C483 C482 1.386 . S
C483 C487 1.393 . S
C484 H473 0.950 . S
C484 C482 1.391 . S
C484 C485 1.400 . S
C485 C479 1.491 . S
C485 C484 1.400 . S
C485 C486 1.398 . S
C486 H474 0.950 . S
C486 C485 1.398 . S
C486 C487 1.391 . S
C487 H475 0.950 . S
C487 C483 1.393 . S
C487 C486 1.391 . S
H488 C496 0.950 . S
H489 C501 0.950 . S
H490 C498 0.950 . S
H491 C500 0.950 . S
H492 C502 0.950 . S
H493 C504 0.950 . S
H494 C506 0.950 . S
H495 C507 0.950 . S
C496 H488 0.950 . S
C496 C497 1.386 . S
C496 C498 1.391 . S
C497 C496 1.386 . S
C497 C501 1.393 . S
C498 H490 0.950 . S
C498 C496 1.391 . S
C498 C499 1.400 . S
C499 C498 1.400 . S
C499 C500 1.398 . S
C499 C505 1.491 . S
C500 H491 0.950 . S
C500 C499 1.398 . S
C500 C501 1.391 . S
C501 H489 0.950 . S
C501 C497 1.393 . S
C501 C500 1.391 . S
C502 H492 0.950 . S
C502 C503 1.386 . S
C502 C504 1.391 . S
C503 C502 1.386 . S
C503 C507 1.393 . S
C504 H493 0.950 . S
C504 C502 1.391 . S
C504 C505 1.400 . S
C505 C499 1.491 . S
C505 C504 1.400 . S
C505 C506 1.398 . S
C506 H494 0.950 . S
C506 C505 1.398 . S
C506 C507 1.391 . S
C507 H495 0.950 . S
C507 C503 1.393 . S
C507 C506 1.391 . S
H508 C516 0.950 . S
H509 C521 0.950 . S
H510 C518 0.950 . S
H511 C520 0.950 . S
H512 C522 0.950 . S
H513 C524 0.950 . S
H514 C526 0.950 . S
H515 C527 0.950 . S
C516 H508 0.950 . S
C516 C517 1.386 . S
C516 C518 1.391 . S
C517 C516 1.386 . S
C517 C521 1.393 . S
C518 H510 0.950 . S
C518 C516 1.391 . S
C518 C519 1.400 . S
C519 C518 1.400 . S
C519 C520 1.398 . S
C519 C525 1.491 . S
C520 H511 0.950 . S
C520 C519 1.398 . S
C520 C521 1.391 . S
C521 H509 0.950 . S
C521 C517 1.393 . S
C521 C520 1.391 . S
C522 H512 0.950 . S
C522 C523 1.386 . S
C522 C524 1.391 . S
C523 C522 1.386 . S
C523 C527 1.393 . S
C524 H513 0.950 . S
C524 C522 1.391 . S
C524 C525 1.400 . S
C525 C519 1.491 . S
C525 C524 1.400 . S
C525 C526 1.398 . S
C526 H514 0.950 . S
C526 C525 1.398 . S
C526 C527 1.391 . S
C527 H515 0.950 . S
C527 C523 1.393 . S
C527 C526 1.391 . S
H528 C536 0.950 . S
H529 C541 0.950 . S
H530 C538 0.950 . S
H531 C540 0.950 . S
H532 C542 0.950 . S
H533 C544 0.950 . S
H534 C546 0.950 . S
H535 C547 0.950 . S
C536 H528 0.950 . S
C536 C537 1.386 . S
C536 C538 1.391 . S
C537 C536 1.386 . S
C537 C541 1.393 . S
C538 H530 0.950 . S
C538 C536 1.391 . S
C538 C539 1.400 . S
C539 C538 1.400 . S
C539 C540 1.398 . S
C539 C545 1.491 1_455 S
C540 H531 0.950 . S
C540 C539 1.398 . S
C540 C541 1.391 . S
C541 H529 0.950 . S
C541 C537 1.393 . S
C541 C540 1.391 . S
C542 H532 0.950 . S
C542 C543 1.386 . S
C542 C544 1.391 . S
C543 C542 1.386 . S
C543 C547 1.393 . S
C544 H533 0.950 . S
C544 C542 1.391 . S
C544 C545 1.400 . S
C545 C539 1.491 1_655 S
C545 C544 1.400 . S
C545 C546 1.398 . S
C546 H534 0.950 . S
C546 C545 1.398 . S
C546 C547 1.391 . S
C547 H535 0.950 . S
C547 C543 1.393 . S
C547 C546 1.391 . S
H548 C556 0.950 . S
H549 C561 0.950 . S
H550 C558 0.950 . S
H551 C560 0.950 . S
H552 C562 0.950 . S
H553 C564 0.950 . S
H554 C566 0.950 . S
H555 C567 0.950 . S
C556 H548 0.950 . S
C556 C557 1.386 . S
C556 C558 1.391 . S
C557 C556 1.386 . S
C557 C561 1.393 . S
C558 H550 0.950 . S
C558 C556 1.391 . S
C558 C559 1.400 . S
C559 C558 1.400 . S
C559 C560 1.398 . S
C559 C565 1.491 . S
C560 H551 0.950 . S
C560 C559 1.398 . S
C560 C561 1.391 . S
C561 H549 0.950 . S
C561 C557 1.393 . S
C561 C560 1.391 . S
C562 H552 0.950 . S
C562 C563 1.386 . S
C562 C564 1.391 . S
C563 C562 1.386 . S
C563 C567 1.393 . S
C564 H553 0.950 . S
C564 C562 1.391 . S
C564 C565 1.400 . S
C565 C559 1.491 . S
C565 C564 1.400 . S
C565 C566 1.398 . S
C566 H554 0.950 . S
C566 C565 1.398 . S
C566 C567 1.391 . S
C567 H555 0.950 . S
C567 C563 1.393 . S
C567 C566 1.391 . S
H568 C576 0.950 . S
H569 C581 0.950 . S
H570 C578 0.950 . S
H571 C580 0.950 . S
H572 C582 0.950 . S
H573 C584 0.950 . S
H574 C586 0.950 . S
H575 C587 0.950 . S
C576 H568 0.950 . S
C576 C577 1.386 . S
C576 C578 1.391 . S
C577 C576 1.386 . S
C577 C581 1.393 . S
C578 H570 0.950 . S
C578 C576 1.391 . S
C578 C579 1.400 . S
C579 C578 1.400 . S
C579 C580 1.398 . S
C579 C585 1.491 . S
C580 H571 0.950 . S
C580 C579 1.398 . S
C580 C581 1.391 . S
C581 H569 0.950 . S
C581 C577 1.393 . S
C581 C580 1.391 . S
C582 H572 0.950 . S
C582 C583 1.386 . S
C582 C584 1.391 . S
C583 C582 1.386 . S
C583 C587 1.393 . S
C584 H573 0.950 . S
C584 C582 1.391 . S
C584 C585 1.400 . S
C585 C579 1.491 . S
C585 C584 1.400 . S
C585 C586 1.398 . S
C586 H574 0.950 . S
C586 C585 1.398 . S
C586 C587 1.391 . S
C587 H575 0.950 . S
C587 C583 1.393 . S
C587 C586 1.391 . S
H588 C596 0.950 . S
H589 C601 0.950 . S
H590 C598 0.950 . S
H591 C600 0.950 . S
H592 C602 0.950 . S
H593 C604 0.950 . S
H594 C606 0.950 . S
H595 C607 0.950 . S
C596 H588 0.950 . S
C596 C597 1.386 . S
C596 C598 1.391 . S
C597 C596 1.386 . S
C597 C601 1.393 . S
C598 H590 0.950 . S
C598 C596 1.391 . S
C598 C599 1.400 . S
C599 C598 1.400 . S
C599 C600 1.398 . S
C599 C605 1.491 . S
C600 H591 0.950 . S
C600 C599 1.398 . S
C600 C601 1.391 . S
C601 H589 0.950 . S
C601 C597 1.393 . S
C601 C600 1.391 . S
C602 H592 0.950 . S
C602 C603 1.386 . S
C602 C604 1.391 . S
C603 C602 1.386 . S
C603 C607 1.393 . S
C604 H593 0.950 . S
C604 C602 1.391 . S
C604 C605 1.400 . S
C605 C599 1.491 . S
C605 C604 1.400 . S
C605 C606 1.398 . S
C606 H594 0.950 . S
C606 C605 1.398 . S
C606 C607 1.391 . S
C607 H595 0.950 . S
C607 C603 1.393 . S
C607 C606 1.391 . S
H608 C616 0.950 . S
H609 C621 0.950 . S
H610 C618 0.950 . S
H611 C620 0.950 . S
H612 C622 0.950 . S
H613 C624 0.950 . S
H614 C626 0.950 . S
H615 C627 0.950 . S
C616 H608 0.950 . S
C616 C617 1.386 . S
C616 C618 1.391 . S
C617 C616 1.386 . S
C617 C621 1.393 . S
C618 H610 0.950 . S
C618 C616 1.391 . S
C618 C619 1.400 . S
C619 C618 1.400 . S
C619 C620 1.398 . S
C619 C625 1.491 . S
C620 H611 0.950 . S
C620 C619 1.398 . S
C620 C621 1.391 . S
C621 H609 0.950 . S
C621 C617 1.393 . S
C621 C620 1.391 . S
C622 H612 0.950 . S
C622 C623 1.386 . S
C622 C624 1.391 . S
C623 C622 1.386 . S
C623 C627 1.393 . S
C624 H613 0.950 . S
C624 C622 1.391 . S
C624 C625 1.400 . S
C625 C619 1.491 . S
C625 C624 1.400 . S
C625 C626 1.398 . S
C626 H614 0.950 . S
C626 C625 1.398 . S
C626 C627 1.391 . S
C627 H615 0.950 . S
C627 C623 1.393 . S
C627 C626 1.391 . S
H628 C636 0.950 . S
H629 C641 0.950 . S
H630 C638 0.950 . S
H631 C640 0.950 . S
H632 C642 0.950 . S
H633 C644 0.950 . S
H634 C646 0.950 . S
H635 C647 0.950 . S
C636 H628 0.950 . S
C636 C637 1.386 . S
C636 C638 1.391 . S
C637 C636 1.386 . S
C637 C641 1.393 . S
C638 H630 0.950 . S
C638 C636 1.391 . S
C638 C639 1.400 . S
C639 C638 1.400 . S
C639 C640 1.398 . S
C639 C645 1.491 . S
C640 H631 0.950 . S
C640 C639 1.398 . S
C640 C641 1.391 . S
C641 H629 0.950 . S
C641 C637 1.393 . S
C641 C640 1.391 . S
C642 H632 0.950 . S
C642 C643 1.386 . S
C642 C644 1.391 . S
C643 C642 1.386 . S
C643 C647 1.393 . S
C644 H633 0.950 . S
C644 C642 1.391 . S
C644 C645 1.400 . S
C645 C639 1.491 . S
C645 C644 1.400 . S
C645 C646 1.398 . S
C646 H634 0.950 . S
C646 C645 1.398 . S
C646 C647 1.391 . S
C647 H635 0.950 . S
C647 C643 1.393 . S
C647 C646 1.391 . S
H648 C656 0.950 . S
H649 C661 0.950 . S
H650 C658 0.950 . S
H651 C660 0.950 . S
H652 C662 0.950 . S
H653 C664 0.950 . S
H654 C666 0.950 . S
H655 C667 0.950 . S
C656 H648 0.950 . S
C656 C657 1.386 . S
C656 C658 1.391 . S
C657 C656 1.386 . S
C657 C661 1.393 . S
C658 H650 0.950 . S
C658 C656 1.391 . S
C658 C659 1.400 . S
C659 C658 1.400 . S
C659 C660 1.398 . S
C659 C665 1.491 . S
C660 H651 0.950 . S
C660 C659 1.398 . S
C660 C661 1.391 . S
C661 H649 0.950 . S
C661 C657 1.393 . S
C661 C660 1.391 . S
C662 H652 0.950 . S
C662 C663 1.386 . S
C662 C664 1.391 . S
C663 C662 1.386 . S
C663 C667 1.393 . S
C664 H653 0.950 . S
C664 C662 1.391 . S
C664 C665 1.400 . S
C665 C659 1.491 . S
C665 C664 1.400 . S
C665 C666 1.398 . S
C666 H654 0.950 . S
C666 C665 1.398 . S
C666 C667 1.391 . S
C667 H655 0.950 . S
C667 C663 1.393 . S
C667 C666 1.391 . S
H668 C676 0.950 . S
H669 C681 0.950 . S
H670 C678 0.950 . S
H671 C680 0.950 . S
H672 C682 0.950 . S
H673 C684 0.950 . S
H674 C686 0.950 . S
H675 C687 0.950 . S
C676 H668 0.950 . S
C676 C677 1.386 . S
C676 C678 1.391 . S
C677 C676 1.386 . S
C677 C681 1.393 . S
C678 H670 0.950 . S
C678 C676 1.391 . S
C678 C679 1.400 . S
C679 C678 1.400 . S
C679 C680 1.398 . S
C679 C685 1.491 . S
C680 H671 0.950 . S
C680 C679 1.398 . S
C680 C681 1.391 . S
C681 H669 0.950 . S
C681 C677 1.393 . S
C681 C680 1.391 . S
C682 H672 0.950 . S
C682 C683 1.386 . S
C682 C684 1.391 . S
C683 C682 1.386 . S
C683 C687 1.393 . S
C684 H673 0.950 . S
C684 C682 1.391 . S
C684 C685 1.400 . S
C685 C679 1.491 . S
C685 C684 1.400 . S
C685 C686 1.398 . S
C686 H674 0.950 . S
C686 C685 1.398 . S
C686 C687 1.391 . S
C687 H675 0.950 . S
C687 C683 1.393 . S
C687 C686 1.391 . S
H688 C696 0.950 . S
H689 C701 0.950 . S
H690 C698 0.950 . S
H691 C700 0.951 . S
H692 C702 0.950 . S
H693 C704 0.950 . S
H694 C706 0.951 . S
H695 C707 0.950 . S
C696 H688 0.950 . S
C696 C697 1.386 . S
C696 C698 1.391 . S
C697 C696 1.386 . S
C697 C701 1.393 . S
C698 H690 0.950 . S
C698 C696 1.391 . S
C698 C699 1.411 . S
C699 C698 1.411 . S
C699 C700 1.396 1_565 S
C699 C705 1.484 1_565 S
C700 H691 0.951 . S
C700 C699 1.396 1_545 S
C700 C701 1.390 1_545 S
C701 H689 0.950 . S
C701 C697 1.393 . S
C701 C700 1.390 1_565 S
C702 H692 0.950 . S
C702 C703 1.386 . S
C702 C704 1.391 . S
C703 C702 1.386 . S
C703 C707 1.393 . S
C704 H693 0.950 . S
C704 C702 1.391 . S
C704 C705 1.411 . S
C705 C699 1.484 1_545 S
C705 C704 1.411 . S
C705 C706 1.396 1_545 S
C706 H694 0.951 . S
C706 C705 1.396 1_565 S
C706 C707 1.390 1_565 S
C707 H695 0.950 . S
C707 C703 1.393 . S
C707 C706 1.390 1_545 S
H708 C716 0.950 . S
H709 C721 0.950 1_556 S
H710 C718 0.940 1_545 S
H711 C720 0.950 1_556 S
H712 C722 0.950 1_556 S
H713 C724 0.950 1_566 S
H714 C726 0.950 . S
H715 C727 0.950 . S
C716 H708 0.950 . S
C716 C717 1.386 . S
C716 C718 1.402 . S
C717 C716 1.386 . S
C717 C721 1.393 . S
C718 H710 0.940 1_565 S
C718 C716 1.402 . S
C718 C719 1.404 . S
C719 C718 1.404 . S
C719 C720 1.398 . S
C719 C725 1.491 1_665 S
C720 H711 0.950 1_554 S
C720 C719 1.398 . S
C720 C721 1.391 . S
C721 H709 0.950 1_554 S
C721 C717 1.393 . S
C721 C720 1.391 . S
C722 H712 0.950 1_554 S
C722 C723 1.386 . S
C722 C724 1.391 . S
C723 C722 1.386 . S
C723 C727 1.393 . S
C724 H713 0.950 1_544 S
C724 C722 1.391 . S
C724 C725 1.400 . S
C725 C719 1.491 1_445 S
C725 C724 1.400 . S
C725 C726 1.398 . S
C726 H714 0.950 . S
C726 C725 1.398 . S
C726 C727 1.391 . S
C727 H715 0.950 . S
C727 C723 1.393 . S
C727 C726 1.391 . S
H728 C736 0.950 . S
H729 C741 0.950 1_556 S
H730 C738 0.950 . S
H731 C740 0.951 1_546 S
H732 C742 0.950 1_556 S
H733 C744 0.950 1_556 S
H734 C746 0.951 1_565 S
H735 C747 0.950 . S
C736 H728 0.950 . S
C736 C737 1.386 . S
C736 C738 1.391 . S
C737 C736 1.386 . S
C737 C741 1.393 . S
C738 H730 0.950 . S
C738 C736 1.391 . S
C738 C739 1.410 . S
C739 C738 1.410 . S
C739 C740 1.397 . S
C739 C745 1.484 1_565 S
C740 H731 0.951 1_564 S
C740 C739 1.397 . S
C740 C741 1.390 . S
C741 H729 0.950 1_554 S
C741 C737 1.393 . S
C741 C740 1.390 . S
C742 H732 0.950 1_554 S
C742 C743 1.386 . S
C742 C744 1.391 . S
C743 C742 1.386 . S
C743 C747 1.393 . S
C744 H733 0.950 1_554 S
C744 C742 1.391 . S
C744 C745 1.410 . S
C745 C739 1.484 1_545 S
C745 C744 1.410 . S
C745 C746 1.397 . S
C746 H734 0.951 1_545 S
C746 C745 1.397 . S
C746 C747 1.390 . S
C747 H735 0.950 . S
C747 C743 1.393 . S
C747 C746 1.390 . S
H748 C756 0.950 . S
H749 C761 0.950 . S
H750 C758 0.950 . S
H751 C760 0.950 . S
H752 C762 0.950 . S
H753 C764 0.950 . S
H754 C766 0.950 . S
H755 C767 0.950 . S
C756 H748 0.950 . S
C756 C757 1.386 . S
C756 C758 1.391 . S
C757 C756 1.386 . S
C757 C761 1.393 1_565 S
C758 H750 0.950 . S
C758 C756 1.391 . S
C758 C759 1.438 . S
C759 C758 1.438 . S
C759 C760 1.370 1_565 S
C759 C765 1.483 1_465 S
C760 H751 0.950 . S
C760 C759 1.370 1_545 S
C760 C761 1.391 . S
C761 H749 0.950 . S
C761 C757 1.393 1_545 S
C761 C760 1.391 . S
C762 H752 0.950 . S
C762 C763 1.386 . S
C762 C764 1.391 . S
C763 C762 1.386 . S
C763 C767 1.393 1_545 S
C764 H753 0.950 . S
C764 C762 1.391 . S
C764 C765 1.438 . S
C765 C759 1.483 1_645 S
C765 C764 1.438 . S
C765 C766 1.369 1_545 S
C766 H754 0.950 . S
C766 C765 1.369 1_565 S
C766 C767 1.391 . S
C767 H755 0.950 . S
C767 C763 1.393 1_565 S
C767 C766 1.391 . S
H768 C776 0.950 . S
H769 C781 0.950 . S
H770 C778 0.950 . S
H771 C780 0.950 . S
H772 C782 0.950 . S
H773 C784 0.950 . S
H774 C786 0.950 . S
H775 C787 0.950 . S
C776 H768 0.950 . S
C776 C777 1.386 . S
C776 C778 1.391 . S
C777 C776 1.386 . S
C777 C781 1.393 . S
C778 H770 0.950 . S
C778 C776 1.391 . S
C778 C779 1.400 . S
C779 C778 1.400 . S
C779 C780 1.398 . S
C779 C785 1.491 . S
C780 H771 0.950 . S
C780 C779 1.398 . S
C780 C781 1.391 . S
C781 H769 0.950 . S
C781 C777 1.393 . S
C781 C780 1.391 . S
C782 H772 0.950 . S
C782 C783 1.386 . S
C782 C784 1.391 . S
C783 C782 1.386 . S
C783 C787 1.393 . S
C784 H773 0.950 . S
C784 C782 1.391 . S
C784 C785 1.400 . S
C785 C779 1.491 . S
C785 C784 1.400 . S
C785 C786 1.398 . S
C786 H774 0.950 . S
C786 C785 1.398 . S
C786 C787 1.391 . S
C787 H775 0.950 . S
C787 C783 1.393 . S
C787 C786 1.391 . S
H788 C796 0.950 . S
H789 C801 0.950 . S
H790 C798 0.950 . S
H791 C800 0.950 . S
H792 C802 0.950 . S
H793 C804 0.950 . S
H794 C806 0.950 . S
H795 C807 0.950 . S
C796 H788 0.950 . S
C796 C797 1.386 . S
C796 C798 1.391 1_556 S
C797 C796 1.386 . S
C797 C801 1.393 . S
C798 H790 0.950 . S
C798 C796 1.391 1_554 S
C798 C799 1.400 . S
C799 C798 1.400 . S
C799 C800 1.398 . S
C799 C805 1.491 . S
C800 H791 0.950 . S
C800 C799 1.398 . S
C800 C801 1.391 1_554 S
C801 H789 0.950 . S
C801 C797 1.393 . S
C801 C800 1.391 1_556 S
C802 H792 0.950 . S
C802 C803 1.386 . S
C802 C804 1.391 . S
C803 C802 1.386 . S
C803 C807 1.393 . S
C804 H793 0.950 . S
C804 C802 1.391 . S
C804 C805 1.400 . S
C805 C799 1.491 . S
C805 C804 1.400 . S
C805 C806 1.398 . S
C806 H794 0.950 . S
C806 C805 1.398 . S
C806 C807 1.391 . S
C807 H795 0.950 . S
C807 C803 1.393 . S
C807 C806 1.391 . S
H808 C816 0.950 . S
H809 C821 0.950 . S
H810 C818 0.950 . S
H811 C820 0.950 . S
H812 C822 0.950 . S
H813 C824 0.950 . S
H814 C826 0.950 . S
H815 C827 0.950 . S
C816 H808 0.950 . S
C816 C817 1.386 . S
C816 C818 1.391 . S
C817 C816 1.386 . S
C817 C821 1.393 . S
C818 H810 0.950 . S
C818 C816 1.391 . S
C818 C819 1.400 . S
C819 C818 1.400 . S
C819 C820 1.398 . S
C819 C825 1.491 . S
C820 H811 0.950 . S
C820 C819 1.398 . S
C820 C821 1.391 . S
C821 H809 0.950 . S
C821 C817 1.393 . S
C821 C820 1.391 . S
C822 H812 0.950 . S
C822 C823 1.386 . S
C822 C824 1.391 . S
C823 C822 1.386 . S
C823 C827 1.393 . S
C824 H813 0.950 . S
C824 C822 1.391 . S
C824 C825 1.400 . S
C825 C819 1.491 . S
C825 C824 1.400 . S
C825 C826 1.398 . S
C826 H814 0.950 . S
C826 C825 1.398 . S
C826 C827 1.391 . S
C827 H815 0.950 . S
C827 C823 1.393 . S
C827 C826 1.391 . S
H828 C836 0.950 . S
H829 C841 0.950 . S
H830 C838 0.950 . S
H831 C840 0.950 . S
H832 C842 0.950 . S
H833 C844 0.950 . S
H834 C846 0.950 . S
H835 C847 0.950 . S
C836 H828 0.950 . S
C836 C837 1.386 . S
C836 C838 1.391 . S
C837 C836 1.386 . S
C837 C841 1.393 . S
C838 H830 0.950 . S
C838 C836 1.391 . S
C838 C839 1.400 . S
C839 C838 1.400 . S
C839 C840 1.398 . S
C839 C845 1.491 . S
C840 H831 0.950 . S
C840 C839 1.398 . S
C840 C841 1.391 . S
C841 H829 0.950 . S
C841 C837 1.393 . S
C841 C840 1.391 . S
C842 H832 0.950 . S
C842 C843 1.386 . S
C842 C844 1.391 . S
C843 C842 1.386 . S
C843 C847 1.393 . S
C844 H833 0.950 . S
C844 C842 1.391 . S
C844 C845 1.400 . S
C845 C839 1.491 . S
C845 C844 1.400 . S
C845 C846 1.398 . S
C846 H834 0.950 . S
C846 C845 1.398 . S
C846 C847 1.391 . S
C847 H835 0.950 . S
C847 C843 1.393 . S
C847 C846 1.391 . S
H848 C856 0.950 . S
H849 C861 0.950 . S
H850 C858 0.950 . S
H851 C860 0.950 . S
H852 C862 0.950 . S
H853 C864 0.950 . S
H854 C866 0.950 . S
H855 C867 0.950 . S
C856 H848 0.950 . S
C856 C857 1.386 . S
C856 C858 1.391 . S
C857 C856 1.386 . S
C857 C861 1.393 . S
C858 H850 0.950 . S
C858 C856 1.391 . S
C858 C859 1.400 . S
C859 C858 1.400 . S
C859 C860 1.398 . S
C859 C865 1.491 . S
C860 H851 0.950 . S
C860 C859 1.398 . S
C860 C861 1.391 . S
C861 H849 0.950 . S
C861 C857 1.393 . S
C861 C860 1.391 . S
C862 H852 0.950 . S
C862 C863 1.386 . S
C862 C864 1.391 . S
C863 C862 1.386 . S
C863 C867 1.393 . S
C864 H853 0.950 . S
C864 C862 1.391 . S
C864 C865 1.400 . S
C865 C859 1.491 . S
C865 C864 1.400 . S
C865 C866 1.398 . S
C866 H854 0.950 . S
C866 C865 1.398 . S
C866 C867 1.391 . S
C867 H855 0.950 . S
C867 C863 1.393 . S
C867 C866 1.391 . S
H868 C876 0.950 . S
H869 C881 0.950 . S
H870 C878 0.950 . S
H871 C880 0.950 . S
H872 C882 0.950 . S
H873 C884 0.950 . S
H874 C886 0.950 . S
H875 C887 0.950 . S
C876 H868 0.950 . S
C876 C877 1.386 . S
C876 C878 1.391 1_556 S
C877 C876 1.386 . S
C877 C881 1.393 . S
C878 H870 0.950 . S
C878 C876 1.391 1_554 S
C878 C879 1.400 . S
C879 C878 1.400 . S
C879 C880 1.398 . S
C879 C885 1.491 . S
C880 H871 0.950 . S
C880 C879 1.398 . S
C880 C881 1.391 1_554 S
C881 H869 0.950 . S
C881 C877 1.393 . S
C881 C880 1.391 1_556 S
C882 H872 0.950 . S
C882 C883 1.386 . S
C882 C884 1.391 . S
C883 C882 1.386 . S
C883 C887 1.393 . S
C884 H873 0.950 . S
C884 C882 1.391 . S
C884 C885 1.400 . S
C885 C879 1.491 . S
C885 C884 1.400 . S
C885 C886 1.398 . S
C886 H874 0.950 . S
C886 C885 1.398 . S
C886 C887 1.391 . S
C887 H875 0.950 . S
C887 C883 1.393 . S
C887 C886 1.391 . S
H888 C896 0.950 . S
H889 C901 0.950 . S
H890 C898 0.950 . S
H891 C900 0.950 . S
H892 C902 0.950 . S
H893 C904 0.950 . S
H894 C906 0.950 . S
H895 C907 0.950 . S
C896 H888 0.950 . S
C896 C897 1.386 . S
C896 C898 1.391 . S
C897 C896 1.386 . S
C897 C901 1.393 . S
C898 H890 0.950 . S
C898 C896 1.391 . S
C898 C899 1.400 . S
C899 C898 1.400 . S
C899 C900 1.398 . S
C899 C905 1.491 . S
C900 H891 0.950 . S
C900 C899 1.398 . S
C900 C901 1.391 . S
C901 H889 0.950 . S
C901 C897 1.393 . S
C901 C900 1.391 . S
C902 H892 0.950 . S
C902 C903 1.386 . S
C902 C904 1.391 . S
C903 C902 1.386 . S
C903 C907 1.393 . S
C904 H893 0.950 . S
C904 C902 1.391 . S
C904 C905 1.400 . S
C905 C899 1.491 . S
C905 C904 1.400 . S
C905 C906 1.398 . S
C906 H894 0.950 . S
C906 C905 1.398 . S
C906 C907 1.391 . S
C907 H895 0.950 . S
C907 C903 1.393 . S
C907 C906 1.391 . S
H908 C916 0.950 . S
H909 C921 0.950 . S
H910 C918 0.950 . S
H911 C920 0.950 . S
H912 C922 0.950 . S
H913 C924 0.950 . S
H914 C926 0.950 . S
H915 C927 0.950 . S
C916 H908 0.950 . S
C916 C917 1.386 . S
C916 C918 1.391 . S
C917 C916 1.386 . S
C917 C921 1.393 . S
C918 H910 0.950 . S
C918 C916 1.391 . S
C918 C919 1.400 . S
C919 C918 1.400 . S
C919 C920 1.398 . S
C919 C925 1.491 . S
C920 H911 0.950 . S
C920 C919 1.398 . S
C920 C921 1.391 . S
C921 H909 0.950 . S
C921 C917 1.393 . S
C921 C920 1.391 . S
C922 H912 0.950 . S
C922 C923 1.386 . S
C922 C924 1.391 . S
C923 C922 1.386 . S
C923 C927 1.393 . S
C924 H913 0.950 . S
C924 C922 1.391 . S
C924 C925 1.400 . S
C925 C919 1.491 . S
C925 C924 1.400 . S
C925 C926 1.398 . S
C926 H914 0.950 . S
C926 C925 1.398 . S
C926 C927 1.391 . S
C927 H915 0.950 . S
C927 C923 1.393 . S
C927 C926 1.391 . S
H928 C936 0.950 . S
H929 C941 0.950 . S
H930 C938 0.942 1_565 S
H931 C940 0.950 . S
H932 C942 0.950 . S
H933 C944 0.942 1_545 S
H934 C946 0.950 . S
H935 C947 0.950 . S
C936 H928 0.950 . S
C936 C937 1.386 . S
C936 C938 1.391 . S
C937 C936 1.386 . S
C937 C941 1.393 . S
C938 H930 0.942 1_545 S
C938 C936 1.391 . S
C938 C939 1.400 . S
C939 C938 1.400 . S
C939 C940 1.398 . S
C939 C945 1.491 1_545 S
C940 H931 0.950 . S
C940 C939 1.398 . S
C940 C941 1.391 . S
C941 H929 0.950 . S
C941 C937 1.393 . S
C941 C940 1.391 . S
C942 H932 0.950 . S
C942 C943 1.386 . S
C942 C944 1.391 . S
C943 C942 1.386 . S
C943 C947 1.393 . S
C944 H933 0.942 1_565 S
C944 C942 1.391 . S
C944 C945 1.400 . S
C945 C939 1.491 1_565 S
C945 C944 1.400 . S
C945 C946 1.398 . S
C946 H934 0.950 . S
C946 C945 1.398 . S
C946 C947 1.391 . S
C947 H935 0.950 . S
C947 C943 1.393 . S
C947 C946 1.391 . S
H948 C956 0.950 . S
H949 C961 0.950 . S
H950 C958 0.950 . S
H951 C960 0.950 . S
H952 C962 0.950 . S
H953 C964 0.950 . S
H954 C966 0.950 . S
H955 C967 0.950 . S
C956 H948 0.950 . S
C956 C957 1.386 . S
C956 C958 1.391 . S
C957 C956 1.386 . S
C957 C961 1.393 . S
C958 H950 0.950 . S
C958 C956 1.391 . S
C958 C959 1.400 . S
C959 C958 1.400 . S
C959 C960 1.398 . S
C959 C965 1.491 . S
C960 H951 0.950 . S
C960 C959 1.398 . S
C960 C961 1.391 . S
C961 H949 0.950 . S
C961 C957 1.393 . S
C961 C960 1.391 . S
C962 H952 0.950 . S
C962 C963 1.386 . S
C962 C964 1.391 . S
C963 C962 1.386 . S
C963 C967 1.393 . S
C964 H953 0.950 . S
C964 C962 1.391 . S
C964 C965 1.400 . S
C965 C959 1.491 . S
C965 C964 1.400 . S
C965 C966 1.398 . S
C966 H954 0.950 . S
C966 C965 1.398 . S
C966 C967 1.391 . S
C967 H955 0.950 . S
C967 C963 1.393 . S
C967 C966 1.391 . S
H968 C976 0.950 . S
H969 C981 0.950 . S
H970 C978 0.950 . S
H971 C980 0.950 . S
H972 C982 0.950 . S
H973 C984 0.950 . S
H974 C986 0.950 . S
H975 C987 0.950 . S
C976 H968 0.950 . S
C976 C977 1.386 1_565 S
C976 C978 1.391 . S
C977 C976 1.386 1_545 S
C977 C981 1.393 . S
C978 H970 0.950 . S
C978 C976 1.391 . S
C978 C979 1.400 1_565 S
C979 C978 1.400 1_545 S
C979 C980 1.398 . S
C979 C985 1.491 1_545 S
C980 H971 0.950 . S
C980 C979 1.398 . S
C980 C981 1.391 . S
C981 H969 0.950 . S
C981 C977 1.393 . S
C981 C980 1.391 . S
C982 H972 0.950 . S
C982 C983 1.386 1_545 S
C982 C984 1.391 . S
C983 C982 1.386 1_565 S
C983 C987 1.393 . S
C984 H973 0.950 . S
C984 C982 1.391 . S
C984 C985 1.400 1_545 S
C985 C979 1.491 1_565 S
C985 C984 1.400 1_565 S
C985 C986 1.398 . S
C986 H974 0.950 . S
C986 C985 1.398 . S
C986 C987 1.391 . S
C987 H975 0.950 . S
C987 C983 1.393 . S
C987 C986 1.391 . S
H988 C996 0.950 . S
H989 C1001 0.950 . S
H990 C998 0.950 . S
H991 C1000 0.950 . S
H992 C1002 0.950 . S
H993 C1004 0.950 . S
H994 C1006 0.950 . S
H995 C1007 0.950 . S
C996 H988 0.950 . S
C996 C997 1.386 . S
C996 C998 1.391 1_556 S
C997 C996 1.386 . S
C997 C1001 1.393 . S
C998 H990 0.950 . S
C998 C996 1.391 1_554 S
C998 C999 1.400 . S
C999 C998 1.400 . S
C999 C1000 1.398 . S
C999 C1005 1.491 . S
C1000 H991 0.950 . S
C1000 C999 1.398 . S
C1000 C1001 1.391 1_554 S
C1001 H989 0.950 . S
C1001 C997 1.393 . S
C1001 C1000 1.391 1_556 S
C1002 H992 0.950 . S
C1002 C1003 1.386 . S
C1002 C1004 1.391 . S
C1003 C1002 1.386 . S
C1003 C1007 1.393 . S
C1004 H993 0.950 . S
C1004 C1002 1.391 . S
C1004 C1005 1.400 . S
C1005 C999 1.491 . S
C1005 C1004 1.400 . S
C1005 C1006 1.398 . S
C1006 H994 0.950 . S
C1006 C1005 1.398 . S
C1006 C1007 1.391 . S
C1007 H995 0.950 . S
C1007 C1003 1.393 . S
C1007 C1006 1.391 . S
H1008 C1016 0.950 . S
H1009 C1021 0.950 . S
H1010 C1018 0.950 . S
H1011 C1020 0.950 . S
H1012 C1022 0.950 . S
H1013 C1024 0.950 . S
H1014 C1026 0.950 . S
H1015 C1027 0.950 . S
C1016 H1008 0.950 . S
C1016 C1017 1.386 . S
C1016 C1018 1.391 . S
C1017 C1016 1.386 . S
C1017 C1021 1.393 1_565 S
C1018 H1010 0.950 . S
C1018 C1016 1.391 . S
C1018 C1019 1.400 . S
C1019 C1018 1.400 . S
C1019 C1020 1.398 1_565 S
C1019 C1025 1.491 1_565 S
C1020 H1011 0.950 . S
C1020 C1019 1.398 1_545 S
C1020 C1021 1.391 . S
C1021 H1009 0.950 . S
C1021 C1017 1.393 1_545 S
C1021 C1020 1.391 . S
C1022 H1012 0.950 . S
C1022 C1023 1.386 . S
C1022 C1024 1.391 . S
C1023 C1022 1.386 . S
C1023 C1027 1.393 1_545 S
C1024 H1013 0.950 . S
C1024 C1022 1.391 . S
C1024 C1025 1.400 . S
C1025 C1019 1.491 1_545 S
C1025 C1024 1.400 . S
C1025 C1026 1.398 1_545 S
C1026 H1014 0.950 . S
C1026 C1025 1.398 1_565 S
C1026 C1027 1.391 . S
C1027 H1015 0.950 . S
C1027 C1023 1.393 1_565 S
C1027 C1026 1.391 . S
H1028 C1036 0.950 . S
H1029 C1041 0.950 . S
H1030 C1038 0.950 . S
H1031 C1040 0.950 . S
H1032 C1042 0.950 . S
H1033 C1044 0.950 . S
H1034 C1046 0.950 . S
H1035 C1047 0.950 . S
C1036 H1028 0.950 . S
C1036 C1037 1.386 . S
C1036 C1038 1.391 . S
C1037 C1036 1.386 . S
C1037 C1041 1.393 . S
C1038 H1030 0.950 . S
C1038 C1036 1.391 . S
C1038 C1039 1.400 . S
C1039 C1038 1.400 . S
C1039 C1040 1.398 . S
C1039 C1045 1.491 . S
C1040 H1031 0.950 . S
C1040 C1039 1.398 . S
C1040 C1041 1.391 . S
C1041 H1029 0.950 . S
C1041 C1037 1.393 . S
C1041 C1040 1.391 . S
C1042 H1032 0.950 . S
C1042 C1043 1.386 . S
C1042 C1044 1.391 . S
C1043 C1042 1.386 . S
C1043 C1047 1.393 . S
C1044 H1033 0.950 . S
C1044 C1042 1.391 . S
C1044 C1045 1.400 . S
C1045 C1039 1.491 . S
C1045 C1044 1.400 . S
C1045 C1046 1.398 . S
C1046 H1034 0.950 . S
C1046 C1045 1.398 . S
C1046 C1047 1.391 . S
C1047 H1035 0.950 . S
C1047 C1043 1.393 . S
C1047 C1046 1.391 . S
H1048 C1056 0.950 . S
H1049 C1061 0.950 . S
H1050 C1058 0.950 . S
H1051 C1060 0.950 . S
H1052 C1062 0.950 . S
H1053 C1064 0.950 . S
H1054 C1066 0.950 . S
H1055 C1067 0.950 . S
C1056 H1048 0.950 . S
C1056 C1057 1.386 1_565 S
C1056 C1058 1.391 . S
C1057 C1056 1.386 1_545 S
C1057 C1061 1.393 . S
C1058 H1050 0.950 . S
C1058 C1056 1.391 . S
C1058 C1059 1.400 1_565 S
C1059 C1058 1.400 1_545 S
C1059 C1060 1.398 . S
C1059 C1065 1.491 1_545 S
C1060 H1051 0.950 . S
C1060 C1059 1.398 . S
C1060 C1061 1.391 . S
C1061 H1049 0.950 . S
C1061 C1057 1.393 . S
C1061 C1060 1.391 . S
C1062 H1052 0.950 . S
C1062 C1063 1.386 1_545 S
C1062 C1064 1.391 . S
C1063 C1062 1.386 1_565 S
C1063 C1067 1.393 . S
C1064 H1053 0.950 . S
C1064 C1062 1.391 . S
C1064 C1065 1.400 1_545 S
C1065 C1059 1.491 1_565 S
C1065 C1064 1.400 1_565 S
C1065 C1066 1.398 . S
C1066 H1054 0.950 . S
C1066 C1065 1.398 . S
C1066 C1067 1.391 . S
C1067 H1055 0.950 . S
C1067 C1063 1.393 . S
C1067 C1066 1.391 . S
H1068 C1076 0.950 . S
H1069 C1081 0.950 . S
H1070 C1078 0.950 . S
H1071 C1080 0.950 . S
H1072 C1082 0.950 . S
H1073 C1084 0.950 . S
H1074 C1086 0.950 . S
H1075 C1087 0.950 . S
C1076 H1068 0.950 . S
C1076 C1077 1.386 . S
C1076 C1078 1.391 . S
C1077 C1076 1.386 . S
C1077 C1081 1.393 . S
C1078 H1070 0.950 . S
C1078 C1076 1.391 . S
C1078 C1079 1.400 . S
C1079 C1078 1.400 . S
C1079 C1080 1.398 . S
C1079 C1085 1.491 . S
C1080 H1071 0.950 . S
C1080 C1079 1.398 . S
C1080 C1081 1.391 . S
C1081 H1069 0.950 . S
C1081 C1077 1.393 . S
C1081 C1080 1.391 . S
C1082 H1072 0.950 . S
C1082 C1083 1.386 . S
C1082 C1084 1.391 1_556 S
C1083 C1082 1.386 . S
C1083 C1087 1.393 . S
C1084 H1073 0.950 . S
C1084 C1082 1.391 1_554 S
C1084 C1085 1.400 . S
C1085 C1079 1.491 . S
C1085 C1084 1.400 . S
C1085 C1086 1.398 . S
C1086 H1074 0.950 . S
C1086 C1085 1.398 . S
C1086 C1087 1.391 1_554 S
C1087 H1075 0.950 . S
C1087 C1083 1.393 . S
C1087 C1086 1.391 1_556 S
H1088 C1096 0.950 . S
H1089 C1101 0.950 . S
H1090 C1098 0.950 . S
H1091 C1100 0.950 . S
H1092 C1102 0.950 . S
H1093 C1104 0.950 . S
H1094 C1106 0.950 . S
H1095 C1107 0.950 . S
C1096 H1088 0.950 . S
C1096 C1097 1.386 . S
C1096 C1098 1.391 . S
C1097 C1096 1.386 . S
C1097 C1101 1.393 . S
C1098 H1090 0.950 . S
C1098 C1096 1.391 . S
C1098 C1099 1.400 . S
C1099 C1098 1.400 . S
C1099 C1100 1.398 . S
C1099 C1105 1.491 . S
C1100 H1091 0.950 . S
C1100 C1099 1.398 . S
C1100 C1101 1.391 . S
C1101 H1089 0.950 . S
C1101 C1097 1.393 . S
C1101 C1100 1.391 . S
C1102 H1092 0.950 . S
C1102 C1103 1.386 . S
C1102 C1104 1.391 . S
C1103 C1102 1.386 . S
C1103 C1107 1.393 . S
C1104 H1093 0.950 . S
C1104 C1102 1.391 . S
C1104 C1105 1.400 . S
C1105 C1099 1.491 . S
C1105 C1104 1.400 . S
C1105 C1106 1.398 . S
C1106 H1094 0.950 . S
C1106 C1105 1.398 . S
C1106 C1107 1.391 . S
C1107 H1095 0.950 . S
C1107 C1103 1.393 . S
C1107 C1106 1.391 . S
H1108 C1116 0.950 . S
H1109 C1121 0.950 . S
H1110 C1118 0.950 . S
H1111 C1120 0.950 . S
H1112 C1122 0.950 . S
H1113 C1124 0.950 . S
H1114 C1126 0.950 . S
H1115 C1127 0.950 . S
C1116 H1108 0.950 . S
C1116 C1117 1.386 . S
C1116 C1118 1.391 . S
C1117 C1116 1.386 . S
C1117 C1121 1.393 . S
C1118 H1110 0.950 . S
C1118 C1116 1.391 . S
C1118 C1119 1.400 . S
C1119 C1118 1.400 . S
C1119 C1120 1.398 . S
C1119 C1125 1.491 . S
C1120 H1111 0.950 . S
C1120 C1119 1.398 . S
C1120 C1121 1.391 . S
C1121 H1109 0.950 . S
C1121 C1117 1.393 . S
C1121 C1120 1.391 . S
C1122 H1112 0.950 . S
C1122 C1123 1.386 . S
C1122 C1124 1.391 . S
C1123 C1122 1.386 . S
C1123 C1127 1.393 . S
C1124 H1113 0.950 . S
C1124 C1122 1.391 . S
C1124 C1125 1.400 . S
C1125 C1119 1.491 . S
C1125 C1124 1.400 . S
C1125 C1126 1.398 . S
C1126 H1114 0.950 . S
C1126 C1125 1.398 . S
C1126 C1127 1.391 . S
C1127 H1115 0.950 . S
C1127 C1123 1.393 . S
C1127 C1126 1.391 . S
H1128 C1136 0.950 . S
H1129 C1141 0.950 . S
H1130 C1138 0.950 . S
H1131 C1140 0.950 . S
H1132 C1142 0.950 . S
H1133 C1144 0.950 . S
H1134 C1146 0.950 . S
H1135 C1147 0.950 . S
C1136 H1128 0.950 . S
C1136 C1137 1.386 . S
C1136 C1138 1.391 . S
C1137 C1136 1.386 . S
C1137 C1141 1.393 . S
C1138 H1130 0.950 . S
C1138 C1136 1.391 . S
C1138 C1139 1.400 . S
C1139 C1138 1.400 . S
C1139 C1140 1.398 . S
C1139 C1145 1.491 . S
C1140 H1131 0.950 . S
C1140 C1139 1.398 . S
C1140 C1141 1.391 . S
C1141 H1129 0.950 . S
C1141 C1137 1.393 . S
C1141 C1140 1.391 . S
C1142 H1132 0.950 . S
C1142 C1143 1.386 . S
C1142 C1144 1.391 . S
C1143 C1142 1.386 . S
C1143 C1147 1.393 . S
C1144 H1133 0.950 . S
C1144 C1142 1.391 . S
C1144 C1145 1.400 . S
C1145 C1139 1.491 . S
C1145 C1144 1.400 . S
C1145 C1146 1.398 . S
C1146 H1134 0.950 . S
C1146 C1145 1.398 . S
C1146 C1147 1.391 . S
C1147 H1135 0.950 . S
C1147 C1143 1.393 . S
C1147 C1146 1.391 . S
H1148 C1156 0.950 . S
H1149 C1161 0.950 . S
H1150 C1158 0.950 . S
H1151 C1160 0.950 . S
H1152 C1162 0.950 . S
H1153 C1164 0.950 . S
H1154 C1166 0.950 . S
H1155 C1167 0.950 . S
C1156 H1148 0.950 . S
C1156 C1157 1.386 . S
C1156 C1158 1.391 . S
C1157 C1156 1.386 . S
C1157 C1161 1.393 . S
C1158 H1150 0.950 . S
C1158 C1156 1.391 . S
C1158 C1159 1.400 . S
C1159 C1158 1.400 . S
C1159 C1160 1.398 . S
C1159 C1165 1.491 . S
C1160 H1151 0.950 . S
C1160 C1159 1.398 . S
C1160 C1161 1.391 . S
C1161 H1149 0.950 . S
C1161 C1157 1.393 . S
C1161 C1160 1.391 . S
C1162 H1152 0.950 . S
C1162 C1163 1.386 . S
C1162 C1164 1.391 1_556 S
C1163 C1162 1.386 . S
C1163 C1167 1.393 . S
C1164 H1153 0.950 . S
C1164 C1162 1.391 1_554 S
C1164 C1165 1.400 . S
C1165 C1159 1.491 . S
C1165 C1164 1.400 . S
C1165 C1166 1.398 . S
C1166 H1154 0.950 . S
C1166 C1165 1.398 . S
C1166 C1167 1.391 1_554 S
C1167 H1155 0.950 . S
C1167 C1163 1.393 . S
C1167 C1166 1.391 1_556 S
H1168 C1176 0.950 . S
H1169 C1181 0.950 . S
H1170 C1178 0.950 . S
H1171 C1180 0.950 . S
H1172 C1182 0.950 . S
H1173 C1184 0.950 . S
H1174 C1186 0.950 . S
H1175 C1187 0.950 . S
C1176 H1168 0.950 . S
C1176 C1177 1.386 . S
C1176 C1178 1.391 . S
C1177 C1176 1.386 . S
C1177 C1181 1.393 . S
C1178 H1170 0.950 . S
C1178 C1176 1.391 . S
C1178 C1179 1.400 . S
C1179 C1178 1.400 . S
C1179 C1180 1.398 . S
C1179 C1185 1.491 . S
C1180 H1171 0.950 . S
C1180 C1179 1.398 . S
C1180 C1181 1.391 . S
C1181 H1169 0.950 . S
C1181 C1177 1.393 . S
C1181 C1180 1.391 . S
C1182 H1172 0.950 . S
C1182 C1183 1.386 . S
C1182 C1184 1.391 . S
C1183 C1182 1.386 . S
C1183 C1187 1.393 . S
C1184 H1173 0.950 . S
C1184 C1182 1.391 . S
C1184 C1185 1.400 . S
C1185 C1179 1.491 . S
C1185 C1184 1.400 . S
C1185 C1186 1.398 . S
C1186 H1174 0.950 . S
C1186 C1185 1.398 . S
C1186 C1187 1.391 . S
C1187 H1175 0.950 . S
C1187 C1183 1.393 . S
C1187 C1186 1.391 . S
H1188 C1196 0.950 . S
H1189 C1201 0.950 . S
H1190 C1198 0.950 . S
H1191 C1200 0.950 . S
H1192 C1202 0.950 . S
H1193 C1204 0.950 . S
H1194 C1206 0.950 . S
H1195 C1207 0.950 . S
C1196 H1188 0.950 . S
C1196 C1197 1.386 . S
C1196 C1198 1.391 . S
C1197 C1196 1.386 . S
C1197 C1201 1.393 . S
C1198 H1190 0.950 . S
C1198 C1196 1.391 . S
C1198 C1199 1.400 . S
C1199 C1198 1.400 . S
C1199 C1200 1.398 . S
C1199 C1205 1.491 . S
C1200 H1191 0.950 . S
C1200 C1199 1.398 . S
C1200 C1201 1.391 . S
C1201 H1189 0.950 . S
C1201 C1197 1.393 . S
C1201 C1200 1.391 . S
C1202 H1192 0.950 . S
C1202 C1203 1.386 . S
C1202 C1204 1.391 . S
C1203 C1202 1.386 . S
C1203 C1207 1.393 . S
C1204 H1193 0.950 . S
C1204 C1202 1.391 . S
C1204 C1205 1.400 . S
C1205 C1199 1.491 . S
C1205 C1204 1.400 . S
C1205 C1206 1.398 . S
C1206 H1194 0.950 . S
C1206 C1205 1.398 . S
C1206 C1207 1.391 . S
C1207 H1195 0.950 . S
C1207 C1203 1.393 . S
C1207 C1206 1.391 . S
H1208 C1216 0.950 . S
H1209 C1221 0.950 . S
H1210 C1218 0.950 . S
H1211 C1220 0.950 . S
H1212 C1222 0.950 . S
H1213 C1224 0.950 . S
H1214 C1226 0.950 . S
H1215 C1227 0.950 . S
C1216 H1208 0.950 . S
C1216 C1217 1.386 . S
C1216 C1218 1.391 . S
C1217 C1216 1.386 . S
C1217 C1221 1.393 . S
C1218 H1210 0.950 . S
C1218 C1216 1.391 . S
C1218 C1219 1.400 . S
C1219 C1218 1.400 . S
C1219 C1220 1.398 . S
C1219 C1225 1.491 . S
C1220 H1211 0.950 . S
C1220 C1219 1.398 . S
C1220 C1221 1.391 . S
C1221 H1209 0.950 . S
C1221 C1217 1.393 . S
C1221 C1220 1.391 . S
C1222 H1212 0.950 . S
C1222 C1223 1.386 . S
C1222 C1224 1.391 . S
C1223 C1222 1.386 . S
C1223 C1227 1.393 . S
C1224 H1213 0.950 . S
C1224 C1222 1.391 . S
C1224 C1225 1.400 . S
C1225 C1219 1.491 . S
C1225 C1224 1.400 . S
C1225 C1226 1.398 . S
C1226 H1214 0.950 . S
C1226 C1225 1.398 . S
C1226 C1227 1.391 . S
C1227 H1215 0.950 . S
C1227 C1223 1.393 . S
C1227 C1226 1.391 . S
H1228 C1236 0.950 . S
H1229 C1241 0.950 . S
H1230 C1238 0.950 . S
H1231 C1240 0.950 . S
H1232 C1242 0.950 . S
H1233 C1244 0.950 . S
H1234 C1246 0.950 . S
H1235 C1247 0.950 . S
C1236 H1228 0.950 . S
C1236 C1237 1.386 . S
C1236 C1238 1.391 1_556 S
C1237 C1236 1.386 . S
C1237 C1241 1.393 . S
C1238 H1230 0.950 . S
C1238 C1236 1.391 1_554 S
C1238 C1239 1.400 . S
C1239 C1238 1.400 . S
C1239 C1240 1.398 . S
C1239 C1245 1.491 . S
C1240 H1231 0.950 . S
C1240 C1239 1.398 . S
C1240 C1241 1.391 1_554 S
C1241 H1229 0.950 . S
C1241 C1237 1.393 . S
C1241 C1240 1.391 1_556 S
C1242 H1232 0.950 . S
C1242 C1243 1.386 . S
C1242 C1244 1.391 . S
C1243 C1242 1.386 . S
C1243 C1247 1.393 . S
C1244 H1233 0.950 . S
C1244 C1242 1.391 . S
C1244 C1245 1.400 . S
C1245 C1239 1.491 . S
C1245 C1244 1.400 . S
C1245 C1246 1.398 . S
C1246 H1234 0.950 . S
C1246 C1245 1.398 . S
C1246 C1247 1.391 . S
C1247 H1235 0.950 . S
C1247 C1243 1.393 . S
C1247 C1246 1.391 . S
H1248 C1256 0.950 . S
H1249 C1261 0.950 . S
H1250 C1258 0.950 . S
H1251 C1260 0.950 . S
H1252 C1262 0.950 . S
H1253 C1264 0.950 . S
H1254 C1266 0.950 . S
H1255 C1267 0.950 . S
C1256 H1248 0.950 . S
C1256 C1257 1.386 1_545 S
C1256 C1258 1.391 . S
C1257 C1256 1.386 1_565 S
C1257 C1261 1.393 . S
C1258 H1250 0.950 . S
C1258 C1256 1.391 . S
C1258 C1259 1.400 1_545 S
C1259 C1258 1.400 1_565 S
C1259 C1260 1.398 . S
C1259 C1265 1.491 1_565 S
C1260 H1251 0.950 . S
C1260 C1259 1.398 . S
C1260 C1261 1.391 . S
C1261 H1249 0.950 . S
C1261 C1257 1.393 . S
C1261 C1260 1.391 . S
C1262 H1252 0.950 . S
C1262 C1263 1.386 1_565 S
C1262 C1264 1.391 . S
C1263 C1262 1.386 1_545 S
C1263 C1267 1.393 . S
C1264 H1253 0.950 . S
C1264 C1262 1.391 . S
C1264 C1265 1.400 1_565 S
C1265 C1259 1.491 1_545 S
C1265 C1264 1.400 1_545 S
C1265 C1266 1.398 . S
C1266 H1254 0.950 . S
C1266 C1265 1.398 . S
C1266 C1267 1.391 . S
C1267 H1255 0.950 . S
C1267 C1263 1.393 . S
C1267 C1266 1.391 . S
H1268 C1276 0.950 . S
H1269 C1281 0.950 . S
H1270 C1278 0.950 . S
H1271 C1280 0.950 . S
H1272 C1282 0.950 . S
H1273 C1284 0.950 . S
H1274 C1286 0.950 . S
H1275 C1287 0.950 . S
C1276 H1268 0.950 . S
C1276 C1277 1.386 . S
C1276 C1278 1.391 . S
C1277 C1276 1.386 . S
C1277 C1281 1.393 . S
C1278 H1270 0.950 . S
C1278 C1276 1.391 . S
C1278 C1279 1.400 . S
C1279 C1278 1.400 . S
C1279 C1280 1.398 . S
C1279 C1285 1.491 . S
C1280 H1271 0.950 . S
C1280 C1279 1.398 . S
C1280 C1281 1.391 . S
C1281 H1269 0.950 . S
C1281 C1277 1.393 . S
C1281 C1280 1.391 . S
C1282 H1272 0.950 . S
C1282 C1283 1.386 . S
C1282 C1284 1.391 1_556 S
C1283 C1282 1.386 . S
C1283 C1287 1.393 . S
C1284 H1273 0.950 . S
C1284 C1282 1.391 1_554 S
C1284 C1285 1.400 . S
C1285 C1279 1.491 . S
C1285 C1284 1.400 . S
C1285 C1286 1.398 . S
C1286 H1274 0.950 . S
C1286 C1285 1.398 . S
C1286 C1287 1.391 1_554 S
C1287 H1275 0.950 . S
C1287 C1283 1.393 . S
C1287 C1286 1.391 1_556 S
H1288 C1296 0.950 . S
H1289 C1301 0.950 . S
H1290 C1298 0.950 . S
H1291 C1300 0.950 1_545 S
H1292 C1302 0.950 . S
H1293 C1304 0.950 . S
H1294 C1306 0.950 1_565 S
H1295 C1307 0.950 . S
C1296 H1288 0.950 . S
C1296 C1297 1.386 . S
C1296 C1298 1.391 . S
C1297 C1296 1.386 . S
C1297 C1301 1.393 . S
C1298 H1290 0.950 . S
C1298 C1296 1.391 . S
C1298 C1299 1.400 . S
C1299 C1298 1.400 . S
C1299 C1300 1.398 . S
C1299 C1305 1.491 1_565 S
C1300 H1291 0.950 1_565 S
C1300 C1299 1.398 . S
C1300 C1301 1.391 . S
C1301 H1289 0.950 . S
C1301 C1297 1.393 . S
C1301 C1300 1.391 . S
C1302 H1292 0.950 . S
C1302 C1303 1.386 . S
C1302 C1304 1.391 . S
C1303 C1302 1.386 . S
C1303 C1307 1.393 . S
C1304 H1293 0.950 . S
C1304 C1302 1.391 . S
C1304 C1305 1.400 . S
C1305 C1299 1.491 1_545 S
C1305 C1304 1.400 . S
C1305 C1306 1.398 . S
C1306 H1294 0.950 1_545 S
C1306 C1305 1.398 . S
C1306 C1307 1.391 . S
C1307 H1295 0.950 . S
C1307 C1303 1.393 . S
C1307 C1306 1.391 . S
H1308 C1316 0.950 . S
H1309 C1321 0.950 . S
H1310 C1318 0.950 . S
H1311 C1320 0.950 . S
H1312 C1322 0.950 . S
H1313 C1324 0.950 . S
H1314 C1326 0.950 . S
H1315 C1327 0.950 . S
C1316 H1308 0.950 . S
C1316 C1317 1.386 . S
C1316 C1318 1.391 . S
C1317 C1316 1.386 . S
C1317 C1321 1.393 . S
C1318 H1310 0.950 . S
C1318 C1316 1.391 . S
C1318 C1319 1.400 . S
C1319 C1318 1.400 . S
C1319 C1320 1.398 . S
C1319 C1325 1.491 . S
C1320 H1311 0.950 . S
C1320 C1319 1.398 . S
C1320 C1321 1.391 . S
C1321 H1309 0.950 . S
C1321 C1317 1.393 . S
C1321 C1320 1.391 . S
C1322 H1312 0.950 . S
C1322 C1323 1.386 . S
C1322 C1324 1.391 . S
C1323 C1322 1.386 . S
C1323 C1327 1.393 . S
C1324 H1313 0.950 . S
C1324 C1322 1.391 . S
C1324 C1325 1.400 . S
C1325 C1319 1.491 . S
C1325 C1324 1.400 . S
C1325 C1326 1.398 . S
C1326 H1314 0.950 . S
C1326 C1325 1.398 . S
C1326 C1327 1.391 . S
C1327 H1315 0.950 . S
C1327 C1323 1.393 . S
C1327 C1326 1.391 . S
H1328 C1336 0.950 . S
H1329 C1341 0.950 . S
H1330 C1338 0.950 . S
H1331 C1340 0.950 . S
H1332 C1342 0.950 . S
H1333 C1344 0.950 . S
H1334 C1346 0.950 . S
H1335 C1347 0.950 . S
C1336 H1328 0.950 . S
C1336 C1337 1.386 1_545 S
C1336 C1338 1.391 . S
C1337 C1336 1.386 1_565 S
C1337 C1341 1.393 . S
C1338 H1330 0.950 . S
C1338 C1336 1.391 . S
C1338 C1339 1.400 1_545 S
C1339 C1338 1.400 1_565 S
C1339 C1340 1.398 . S
C1339 C1345 1.491 1_565 S
C1340 H1331 0.950 . S
C1340 C1339 1.398 . S
C1340 C1341 1.391 . S
C1341 H1329 0.950 . S
C1341 C1337 1.393 . S
C1341 C1340 1.391 . S
C1342 H1332 0.950 . S
C1342 C1343 1.386 1_565 S
C1342 C1344 1.391 . S
C1343 C1342 1.386 1_545 S
C1343 C1347 1.393 . S
C1344 H1333 0.950 . S
C1344 C1342 1.391 . S
C1344 C1345 1.400 1_565 S
C1345 C1339 1.491 1_545 S
C1345 C1344 1.400 1_545 S
C1345 C1346 1.398 . S
C1346 H1334 0.950 . S
C1346 C1345 1.398 . S
C1346 C1347 1.391 . S
C1347 H1335 0.950 . S
C1347 C1343 1.393 . S
C1347 C1346 1.391 . S
H1348 C1356 0.950 . S
H1349 C1361 0.950 . S
H1350 C1358 0.950 . S
H1351 C1360 0.950 . S
H1352 C1362 0.950 . S
H1353 C1364 0.950 . S
H1354 C1366 0.950 . S
H1355 C1367 0.950 . S
C1356 H1348 0.950 . S
C1356 C1357 1.386 . S
C1356 C1358 1.391 . S
C1357 C1356 1.386 . S
C1357 C1361 1.393 . S
C1358 H1350 0.950 . S
C1358 C1356 1.391 . S
C1358 C1359 1.400 . S
C1359 C1358 1.400 . S
C1359 C1360 1.398 . S
C1359 C1365 1.491 . S
C1360 H1351 0.950 . S
C1360 C1359 1.398 . S
C1360 C1361 1.391 . S
C1361 H1349 0.950 . S
C1361 C1357 1.393 . S
C1361 C1360 1.391 . S
C1362 H1352 0.950 . S
C1362 C1363 1.386 . S
C1362 C1364 1.391 1_556 S
C1363 C1362 1.386 . S
C1363 C1367 1.393 . S
C1364 H1353 0.950 . S
C1364 C1362 1.391 1_554 S
C1364 C1365 1.400 . S
C1365 C1359 1.491 . S
C1365 C1364 1.400 . S
C1365 C1366 1.398 . S
C1366 H1354 0.950 . S
C1366 C1365 1.398 . S
C1366 C1367 1.391 1_554 S
C1367 H1355 0.950 . S
C1367 C1363 1.393 . S
C1367 C1366 1.391 1_556 S
H1368 C1376 0.965 . S
H1369 C1381 0.950 . S
H1370 C1378 0.950 . S
H1371 C1380 0.950 . S
H1372 C1382 0.965 . S
H1373 C1384 0.950 . S
H1374 C1386 0.950 . S
H1375 C1387 0.950 . S
C1376 H1368 0.965 . S
C1376 C1377 1.365 1_545 S
C1376 C1378 1.400 . S
C1377 C1376 1.365 1_565 S
C1377 C1381 1.393 . S
C1378 H1370 0.950 . S
C1378 C1376 1.400 . S
C1378 C1379 1.400 1_545 S
C1379 C1378 1.400 1_565 S
C1379 C1380 1.398 . S
C1379 C1385 1.491 1_565 S
C1380 H1371 0.950 . S
C1380 C1379 1.398 . S
C1380 C1381 1.391 . S
C1381 H1369 0.950 . S
C1381 C1377 1.393 . S
C1381 C1380 1.391 . S
C1382 H1372 0.965 . S
C1382 C1383 1.365 1_565 S
C1382 C1384 1.400 . S
C1383 C1382 1.365 1_545 S
C1383 C1387 1.393 . S
C1384 H1373 0.950 . S
C1384 C1382 1.400 . S
C1384 C1385 1.400 1_565 S
C1385 C1379 1.491 1_545 S
C1385 C1384 1.400 1_545 S
C1385 C1386 1.398 . S
C1386 H1374 0.950 . S
C1386 C1385 1.398 . S
C1386 C1387 1.391 . S
C1387 H1375 0.950 . S
C1387 C1383 1.393 . S
C1387 C1386 1.391 . S
H1388 C1396 0.950 . S
H1389 C1401 0.950 . S
H1390 C1398 0.950 . S
H1391 C1400 0.950 . S
H1392 C1402 0.950 . S
H1393 C1404 0.950 . S
H1394 C1406 0.950 . S
H1395 C1407 0.950 . S
C1396 H1388 0.950 . S
C1396 C1397 1.386 . S
C1396 C1398 1.391 . S
C1397 C1396 1.386 . S
C1397 C1401 1.393 . S
C1398 H1390 0.950 . S
C1398 C1396 1.391 . S
C1398 C1399 1.400 . S
C1399 C1398 1.400 . S
C1399 C1400 1.398 . S
C1399 C1405 1.491 . S
C1400 H1391 0.950 . S
C1400 C1399 1.398 . S
C1400 C1401 1.391 . S
C1401 H1389 0.950 . S
C1401 C1397 1.393 . S
C1401 C1400 1.391 . S
C1402 H1392 0.950 . S
C1402 C1403 1.386 . S
C1402 C1404 1.391 . S
C1403 C1402 1.386 . S
C1403 C1407 1.393 . S
C1404 H1393 0.950 . S
C1404 C1402 1.391 . S
C1404 C1405 1.400 . S
C1405 C1399 1.491 . S
C1405 C1404 1.400 . S
C1405 C1406 1.398 . S
C1406 H1394 0.950 . S
C1406 C1405 1.398 . S
C1406 C1407 1.391 . S
C1407 H1395 0.950 . S
C1407 C1403 1.393 . S
C1407 C1406 1.391 . S
H1408 C1416 0.950 . S
H1409 C1421 0.950 . S
H1410 C1418 0.950 . S
H1411 C1420 0.950 . S
H1412 C1422 0.950 . S
H1413 C1424 0.950 . S
H1414 C1426 0.950 . S
H1415 C1427 0.950 . S
C1416 H1408 0.950 . S
C1416 C1417 1.386 . S
C1416 C1418 1.391 . S
C1417 C1416 1.386 . S
C1417 C1421 1.393 . S
C1418 H1410 0.950 . S
C1418 C1416 1.391 . S
C1418 C1419 1.400 . S
C1419 C1418 1.400 . S
C1419 C1420 1.398 . S
C1419 C1425 1.491 . S
C1420 H1411 0.950 . S
C1420 C1419 1.398 . S
C1420 C1421 1.391 . S
C1421 H1409 0.950 . S
C1421 C1417 1.393 . S
C1421 C1420 1.391 . S
C1422 H1412 0.950 . S
C1422 C1423 1.386 . S
C1422 C1424 1.391 . S
C1423 C1422 1.386 . S
C1423 C1427 1.393 . S
C1424 H1413 0.950 . S
C1424 C1422 1.391 . S
C1424 C1425 1.400 . S
C1425 C1419 1.491 . S
C1425 C1424 1.400 . S
C1425 C1426 1.398 . S
C1426 H1414 0.950 . S
C1426 C1425 1.398 . S
C1426 C1427 1.391 . S
C1427 H1415 0.950 . S
C1427 C1423 1.393 . S
C1427 C1426 1.391 . S
H1428 C1436 0.950 . S
H1429 C1441 0.950 . S
H1430 C1438 0.950 . S
H1431 C1440 0.950 . S
H1432 C1442 0.950 . S
H1433 C1444 0.950 . S
H1434 C1446 0.950 . S
H1435 C1447 0.950 . S
C1436 H1428 0.950 . S
C1436 C1437 1.386 . S
C1436 C1438 1.391 . S
C1437 C1436 1.386 . S
C1437 C1441 1.393 . S
C1438 H1430 0.950 . S
C1438 C1436 1.391 . S
C1438 C1439 1.400 . S
C1439 C1438 1.400 . S
C1439 C1440 1.398 . S
C1439 C1445 1.491 . S
C1440 H1431 0.950 . S
C1440 C1439 1.398 . S
C1440 C1441 1.391 . S
C1441 H1429 0.950 . S
C1441 C1437 1.393 . S
C1441 C1440 1.391 . S
C1442 H1432 0.950 . S
C1442 C1443 1.386 . S
C1442 C1444 1.391 . S
C1443 C1442 1.386 . S
C1443 C1447 1.393 . S
C1444 H1433 0.950 . S
C1444 C1442 1.391 . S
C1444 C1445 1.400 . S
C1445 C1439 1.491 . S
C1445 C1444 1.400 . S
C1445 C1446 1.398 . S
C1446 H1434 0.950 . S
C1446 C1445 1.398 . S
C1446 C1447 1.391 . S
C1447 H1435 0.950 . S
C1447 C1443 1.393 . S
C1447 C1446 1.391 . S
H1448 C1456 0.950 . S
H1449 C1461 0.950 . S
H1450 C1458 0.950 . S
H1451 C1460 0.950 . S
H1452 C1462 0.950 . S
H1453 C1464 0.950 . S
H1454 C1466 0.950 . S
H1455 C1467 0.950 . S
C1456 H1448 0.950 . S
C1456 C1457 1.386 . S
C1456 C1458 1.391 . S
C1457 C1456 1.386 . S
C1457 C1461 1.393 . S
C1458 H1450 0.950 . S
C1458 C1456 1.391 . S
C1458 C1459 1.400 . S
C1459 C1458 1.400 . S
C1459 C1460 1.398 . S
C1459 C1465 1.491 . S
C1460 H1451 0.950 . S
C1460 C1459 1.398 . S
C1460 C1461 1.391 . S
C1461 H1449 0.950 . S
C1461 C1457 1.393 . S
C1461 C1460 1.391 . S
C1462 H1452 0.950 . S
C1462 C1463 1.386 . S
C1462 C1464 1.391 . S
C1463 C1462 1.386 . S
C1463 C1467 1.393 . S
C1464 H1453 0.950 . S
C1464 C1462 1.391 . S
C1464 C1465 1.400 . S
C1465 C1459 1.491 . S
C1465 C1464 1.400 . S
C1465 C1466 1.398 . S
C1466 H1454 0.950 . S
C1466 C1465 1.398 . S
C1466 C1467 1.391 . S
C1467 H1455 0.950 . S
C1467 C1463 1.393 . S
C1467 C1466 1.391 . S
H1468 C1476 0.950 . S
H1469 C1481 0.950 . S
H1470 C1478 0.950 . S
H1471 C1480 0.950 . S
H1472 C1482 0.950 1_554 S
H1473 C1484 0.950 . S
H1474 C1486 0.950 . S
H1475 C1487 0.950 . S
C1476 H1468 0.950 . S
C1476 C1477 1.386 . S
C1476 C1478 1.391 . S
C1477 C1476 1.386 . S
C1477 C1481 1.393 . S
C1478 H1470 0.950 . S
C1478 C1476 1.391 . S
C1478 C1479 1.400 . S
C1479 C1478 1.400 . S
C1479 C1480 1.398 . S
C1479 C1485 1.491 . S
C1480 H1471 0.950 . S
C1480 C1479 1.398 . S
C1480 C1481 1.391 . S
C1481 H1469 0.950 . S
C1481 C1477 1.393 . S
C1481 C1480 1.391 . S
C1482 H1472 0.950 1_556 S
C1482 C1483 1.386 . S
C1482 C1484 1.391 . S
C1483 C1482 1.386 . S
C1483 C1487 1.393 . S
C1484 H1473 0.950 . S
C1484 C1482 1.391 . S
C1484 C1485 1.400 . S
C1485 C1479 1.491 . S
C1485 C1484 1.400 . S
C1485 C1486 1.398 . S
C1486 H1474 0.950 . S
C1486 C1485 1.398 . S
C1486 C1487 1.391 . S
C1487 H1475 0.950 . S
C1487 C1483 1.393 . S
C1487 C1486 1.391 . S
H1488 C1496 0.950 . S
H1489 C1501 0.950 . S
H1490 C1498 0.950 . S
H1491 C1500 0.950 . S
H1492 C1502 0.950 . S
H1493 C1504 0.950 . S
H1494 C1506 0.950 . S
H1495 C1507 0.950 . S
C1496 H1488 0.950 . S
C1496 C1497 1.386 . S
C1496 C1498 1.391 . S
C1497 C1496 1.386 . S
C1497 C1501 1.393 . S
C1498 H1490 0.950 . S
C1498 C1496 1.391 . S
C1498 C1499 1.400 . S
C1499 C1498 1.400 . S
C1499 C1500 1.398 . S
C1499 C1505 1.491 . S
C1500 H1491 0.950 . S
C1500 C1499 1.398 . S
C1500 C1501 1.391 . S
C1501 H1489 0.950 . S
C1501 C1497 1.393 . S
C1501 C1500 1.391 . S
C1502 H1492 0.950 . S
C1502 C1503 1.386 . S
C1502 C1504 1.391 . S
C1503 C1502 1.386 . S
C1503 C1507 1.393 . S
C1504 H1493 0.950 . S
C1504 C1502 1.391 . S
C1504 C1505 1.400 . S
C1505 C1499 1.491 . S
C1505 C1504 1.400 . S
C1505 C1506 1.398 . S
C1506 H1494 0.950 . S
C1506 C1505 1.398 . S
C1506 C1507 1.391 . S
C1507 H1495 0.950 . S
C1507 C1503 1.393 . S
C1507 C1506 1.391 . S
H1508 C1516 0.950 . S
H1509 C1521 0.950 . S
H1510 C1518 0.950 . S
H1511 C1520 0.950 . S
H1512 C1522 0.950 . S
H1513 C1524 0.950 . S
H1514 C1526 0.950 . S
H1515 C1527 0.950 . S
C1516 H1508 0.950 . S
C1516 C1517 1.386 . S
C1516 C1518 1.391 . S
C1517 C1516 1.386 . S
C1517 C1521 1.393 . S
C1518 H1510 0.950 . S
C1518 C1516 1.391 . S
C1518 C1519 1.400 . S
C1519 C1518 1.400 . S
C1519 C1520 1.398 . S
C1519 C1525 1.491 . S
C1520 H1511 0.950 . S
C1520 C1519 1.398 . S
C1520 C1521 1.391 . S
C1521 H1509 0.950 . S
C1521 C1517 1.393 . S
C1521 C1520 1.391 . S
C1522 H1512 0.950 . S
C1522 C1523 1.386 . S
C1522 C1524 1.391 . S
C1523 C1522 1.386 . S
C1523 C1527 1.393 . S
C1524 H1513 0.950 . S
C1524 C1522 1.391 . S
C1524 C1525 1.400 . S
C1525 C1519 1.491 . S
C1525 C1524 1.400 . S
C1525 C1526 1.398 . S
C1526 H1514 0.950 . S
C1526 C1525 1.398 . S
C1526 C1527 1.391 . S
C1527 H1515 0.950 . S
C1527 C1523 1.393 . S
C1527 C1526 1.391 . S
H1528 C1536 0.950 . S
H1529 C1541 0.950 . S
H1530 C1538 0.950 . S
H1531 C1540 0.950 . S
H1532 C1542 0.950 . S
H1533 C1544 0.950 1_554 S
H1534 C1546 0.950 . S
H1535 C1547 0.950 . S
C1536 H1528 0.950 . S
C1536 C1537 1.386 . S
C1536 C1538 1.391 . S
C1537 C1536 1.386 . S
C1537 C1541 1.393 . S
C1538 H1530 0.950 . S
C1538 C1536 1.391 . S
C1538 C1539 1.400 . S
C1539 C1538 1.400 . S
C1539 C1540 1.398 . S
C1539 C1545 1.491 . S
C1540 H1531 0.950 . S
C1540 C1539 1.398 . S
C1540 C1541 1.391 . S
C1541 H1529 0.950 . S
C1541 C1537 1.393 . S
C1541 C1540 1.391 . S
C1542 H1532 0.950 . S
C1542 C1543 1.386 . S
C1542 C1544 1.391 1_554 S
C1543 C1542 1.386 . S
C1543 C1547 1.393 1_554 S
C1544 H1533 0.950 1_556 S
C1544 C1542 1.391 1_556 S
C1544 C1545 1.400 . S
C1545 C1539 1.491 . S
C1545 C1544 1.400 . S
C1545 C1546 1.398 . S
C1546 H1534 0.950 . S
C1546 C1545 1.398 . S
C1546 C1547 1.391 . S
C1547 H1535 0.950 . S
C1547 C1543 1.393 1_556 S
C1547 C1546 1.391 . S
H1548 C1556 0.950 . S
H1549 C1561 0.950 . S
H1550 C1558 0.950 . S
H1551 C1560 0.950 . S
H1552 C1562 0.950 . S
H1553 C1564 0.950 . S
H1554 C1566 0.950 . S
H1555 C1567 0.950 . S
C1556 H1548 0.950 . S
C1556 C1557 1.386 . S
C1556 C1558 1.391 . S
C1557 C1556 1.386 . S
C1557 C1561 1.393 . S
C1558 H1550 0.950 . S
C1558 C1556 1.391 . S
C1558 C1559 1.400 . S
C1559 C1558 1.400 . S
C1559 C1560 1.398 . S
C1559 C1565 1.491 . S
C1560 H1551 0.950 . S
C1560 C1559 1.398 . S
C1560 C1561 1.391 . S
C1561 H1549 0.950 . S
C1561 C1557 1.393 . S
C1561 C1560 1.391 . S
C1562 H1552 0.950 . S
C1562 C1563 1.386 . S
C1562 C1564 1.391 . S
C1563 C1562 1.386 . S
C1563 C1567 1.393 . S
C1564 H1553 0.950 . S
C1564 C1562 1.391 . S
C1564 C1565 1.400 . S
C1565 C1559 1.491 . S
C1565 C1564 1.400 . S
C1565 C1566 1.398 . S
C1566 H1554 0.950 . S
C1566 C1565 1.398 . S
C1566 C1567 1.391 . S
C1567 H1555 0.950 . S
C1567 C1563 1.393 . S
C1567 C1566 1.391 . S
H1568 C1576 0.950 . S
H1569 C1581 0.950 . S
H1570 C1578 0.950 . S
H1571 C1580 0.950 . S
H1572 C1582 0.950 . S
H1573 C1584 0.950 . S
H1574 C1586 0.950 . S
H1575 C1587 0.950 . S
C1576 H1568 0.950 . S
C1576 C1577 1.399 . S
C1576 C1578 1.391 . S
C1577 C1576 1.399 . S
C1577 C1581 1.391 1_556 S
C1578 H1570 0.950 . S
C1578 C1576 1.391 . S
C1578 C1579 1.400 . S
C1579 C1578 1.400 . S
C1579 C1580 1.398 . S
C1579 C1585 1.491 . S
C1580 H1571 0.950 . S
C1580 C1579 1.398 . S
C1580 C1581 1.391 1_556 S
C1581 H1569 0.950 . S
C1581 C1577 1.391 1_554 S
C1581 C1580 1.391 1_554 S
C1582 H1572 0.950 . S
C1582 C1583 1.386 . S
C1582 C1584 1.391 . S
C1583 C1582 1.386 . S
C1583 C1587 1.393 . S
C1584 H1573 0.950 . S
C1584 C1582 1.391 . S
C1584 C1585 1.400 . S
C1585 C1579 1.491 . S
C1585 C1584 1.400 . S
C1585 C1586 1.398 . S
C1586 H1574 0.950 . S
C1586 C1585 1.398 . S
C1586 C1587 1.391 . S
C1587 H1575 0.950 . S
C1587 C1583 1.393 . S
C1587 C1586 1.391 . S
H1588 C1596 0.950 . S
H1589 C1601 0.950 . S
H1590 C1598 0.950 . S
H1591 C1600 0.950 . S
H1592 C1602 0.950 . S
H1593 C1604 0.950 . S
H1594 C1606 0.950 . S
H1595 C1607 0.950 . S
C1596 H1588 0.950 . S
C1596 C1597 1.386 . S
C1596 C1598 1.391 . S
C1597 C1596 1.386 . S
C1597 C1601 1.393 . S
C1598 H1590 0.950 . S
C1598 C1596 1.391 . S
C1598 C1599 1.400 . S
C1599 C1598 1.400 . S
C1599 C1600 1.398 . S
C1599 C1605 1.491 . S
C1600 H1591 0.950 . S
C1600 C1599 1.398 . S
C1600 C1601 1.391 . S
C1601 H1589 0.950 . S
C1601 C1597 1.393 . S
C1601 C1600 1.391 . S
C1602 H1592 0.950 . S
C1602 C1603 1.386 . S
C1602 C1604 1.391 . S
C1603 C1602 1.386 . S
C1603 C1607 1.393 . S
C1604 H1593 0.950 . S
C1604 C1602 1.391 . S
C1604 C1605 1.400 . S
C1605 C1599 1.491 . S
C1605 C1604 1.400 . S
C1605 C1606 1.398 . S
C1606 H1594 0.950 . S
C1606 C1605 1.398 . S
C1606 C1607 1.391 . S
C1607 H1595 0.950 . S
C1607 C1603 1.393 . S
C1607 C1606 1.391 . S
H1608 C1616 0.950 . S
H1609 C1621 0.950 . S
H1610 C1618 0.950 . S
H1611 C1620 0.950 . S
H1612 C1622 0.950 . S
H1613 C1624 0.950 . S
H1614 C1626 0.950 . S
H1615 C1627 0.950 . S
C1616 H1608 0.950 . S
C1616 C1617 1.386 . S
C1616 C1618 1.391 . S
C1617 C1616 1.386 . S
C1617 C1621 1.393 . S
C1618 H1610 0.950 . S
C1618 C1616 1.391 . S
C1618 C1619 1.400 . S
C1619 C1618 1.400 . S
C1619 C1620 1.398 . S
C1619 C1625 1.491 . S
C1620 H1611 0.950 . S
C1620 C1619 1.398 . S
C1620 C1621 1.391 . S
C1621 H1609 0.950 . S
C1621 C1617 1.393 . S
C1621 C1620 1.391 . S
C1622 H1612 0.950 . S
C1622 C1623 1.386 . S
C1622 C1624 1.391 . S
C1623 C1622 1.386 . S
C1623 C1627 1.393 . S
C1624 H1613 0.950 . S
C1624 C1622 1.391 . S
C1624 C1625 1.400 . S
C1625 C1619 1.491 . S
C1625 C1624 1.400 . S
C1625 C1626 1.398 . S
C1626 H1614 0.950 . S
C1626 C1625 1.398 . S
C1626 C1627 1.391 . S
C1627 H1615 0.950 . S
C1627 C1623 1.393 . S
C1627 C1626 1.391 . S
H1628 C1636 0.950 . S
H1629 C1641 0.950 . S
H1630 C1638 0.950 . S
H1631 C1640 0.950 . S
H1632 C1642 0.950 . S
H1633 C1644 0.950 . S
H1634 C1646 0.950 . S
H1635 C1647 0.950 . S
C1636 H1628 0.950 . S
C1636 C1637 1.386 . S
C1636 C1638 1.391 . S
C1637 C1636 1.386 . S
C1637 C1641 1.393 . S
C1638 H1630 0.950 . S
C1638 C1636 1.391 . S
C1638 C1639 1.400 . S
C1639 C1638 1.400 . S
C1639 C1640 1.398 . S
C1639 C1645 1.491 . S
C1640 H1631 0.950 . S
C1640 C1639 1.398 . S
C1640 C1641 1.391 . S
C1641 H1629 0.950 . S
C1641 C1637 1.393 . S
C1641 C1640 1.391 . S
C1642 H1632 0.950 . S
C1642 C1643 1.386 . S
C1642 C1644 1.391 . S
C1643 C1642 1.386 . S
C1643 C1647 1.393 . S
C1644 H1633 0.950 . S
C1644 C1642 1.391 . S
C1644 C1645 1.400 . S
C1645 C1639 1.491 . S
C1645 C1644 1.400 . S
C1645 C1646 1.398 . S
C1646 H1634 0.950 . S
C1646 C1645 1.398 . S
C1646 C1647 1.391 . S
C1647 H1635 0.950 . S
C1647 C1643 1.393 . S
C1647 C1646 1.391 . S
H1648 C1656 0.950 . S
H1649 C1661 0.950 . S
H1650 C1658 0.950 . S
H1651 C1660 0.950 . S
H1652 C1662 0.950 . S
H1653 C1664 0.950 . S
H1654 C1666 0.950 . S
H1655 C1667 0.950 . S
C1656 H1648 0.950 . S
C1656 C1657 1.386 . S
C1656 C1658 1.391 . S
C1657 C1656 1.386 . S
C1657 C1661 1.393 . S
C1658 H1650 0.950 . S
C1658 C1656 1.391 . S
C1658 C1659 1.400 . S
C1659 C1658 1.400 . S
C1659 C1660 1.398 . S
C1659 C1665 1.491 . S
C1660 H1651 0.950 . S
C1660 C1659 1.398 . S
C1660 C1661 1.391 . S
C1661 H1649 0.950 . S
C1661 C1657 1.393 . S
C1661 C1660 1.391 . S
C1662 H1652 0.950 . S
C1662 C1663 1.386 . S
C1662 C1664 1.391 . S
C1663 C1662 1.386 . S
C1663 C1667 1.393 . S
C1664 H1653 0.950 . S
C1664 C1662 1.391 . S
C1664 C1665 1.400 . S
C1665 C1659 1.491 . S
C1665 C1664 1.400 . S
C1665 C1666 1.398 . S
C1666 H1654 0.950 . S
C1666 C1665 1.398 . S
C1666 C1667 1.391 . S
C1667 H1655 0.950 . S
C1667 C1663 1.393 . S
C1667 C1666 1.391 . S
H1668 C1676 0.950 . S
H1669 C1681 0.950 . S
H1670 C1678 0.950 . S
H1671 C1680 0.950 . S
H1672 C1682 0.950 . S
H1673 C1684 0.950 . S
H1674 C1686 0.950 . S
H1675 C1687 0.950 . S
C1676 H1668 0.950 . S
C1676 C1677 1.386 . S
C1676 C1678 1.391 . S
C1677 C1676 1.386 . S
C1677 C1681 1.393 . S
C1678 H1670 0.950 . S
C1678 C1676 1.391 . S
C1678 C1679 1.400 . S
C1679 C1678 1.400 . S
C1679 C1680 1.398 . S
C1679 C1685 1.491 . S
C1680 H1671 0.950 . S
C1680 C1679 1.398 . S
C1680 C1681 1.391 . S
C1681 H1669 0.950 . S
C1681 C1677 1.393 . S
C1681 C1680 1.391 . S
C1682 H1672 0.950 . S
C1682 C1683 1.386 . S
C1682 C1684 1.391 . S
C1683 C1682 1.386 . S
C1683 C1687 1.393 . S
C1684 H1673 0.950 . S
C1684 C1682 1.391 . S
C1684 C1685 1.400 . S
C1685 C1679 1.491 . S
C1685 C1684 1.400 . S
C1685 C1686 1.398 . S
C1686 H1674 0.950 . S
C1686 C1685 1.398 . S
C1686 C1687 1.391 . S
C1687 H1675 0.950 . S
C1687 C1683 1.393 . S
C1687 C1686 1.391 . S
H1688 C1696 0.950 . S
H1689 C1701 0.950 . S
H1690 C1698 0.950 . S
H1691 C1700 0.950 . S
H1692 C1702 0.950 . S
H1693 C1704 0.950 . S
H1694 C1706 0.950 . S
H1695 C1707 0.950 . S
C1696 H1688 0.950 . S
C1696 C1697 1.386 . S
C1696 C1698 1.391 . S
C1697 C1696 1.386 . S
C1697 C1701 1.393 . S
C1698 H1690 0.950 . S
C1698 C1696 1.391 . S
C1698 C1699 1.400 . S
C1699 C1698 1.400 . S
C1699 C1700 1.398 . S
C1699 C1705 1.491 . S
C1700 H1691 0.950 . S
C1700 C1699 1.398 . S
C1700 C1701 1.391 . S
C1701 H1689 0.950 . S
C1701 C1697 1.393 . S
C1701 C1700 1.391 . S
C1702 H1692 0.950 . S
C1702 C1703 1.386 . S
C1702 C1704 1.391 . S
C1703 C1702 1.386 . S
C1703 C1707 1.393 . S
C1704 H1693 0.950 . S
C1704 C1702 1.391 . S
C1704 C1705 1.400 . S
C1705 C1699 1.491 . S
C1705 C1704 1.400 . S
C1705 C1706 1.398 . S
C1706 H1694 0.950 . S
C1706 C1705 1.398 . S
C1706 C1707 1.391 . S
C1707 H1695 0.950 . S
C1707 C1703 1.393 . S
C1707 C1706 1.391 . S
H1708 C1716 0.950 . S
H1709 C1721 0.950 . S
H1710 C1718 0.950 . S
H1711 C1720 0.950 . S
H1712 C1722 0.950 . S
H1713 C1724 0.950 1_554 S
H1714 C1726 0.950 . S
H1715 C1727 0.950 . S
C1716 H1708 0.950 . S
C1716 C1717 1.386 . S
C1716 C1718 1.391 . S
C1717 C1716 1.386 . S
C1717 C1721 1.393 . S
C1718 H1710 0.950 . S
C1718 C1716 1.391 . S
C1718 C1719 1.400 . S
C1719 C1718 1.400 . S
C1719 C1720 1.398 . S
C1719 C1725 1.491 . S
C1720 H1711 0.950 . S
C1720 C1719 1.398 . S
C1720 C1721 1.391 . S
C1721 H1709 0.950 . S
C1721 C1717 1.393 . S
C1721 C1720 1.391 . S
C1722 H1712 0.950 . S
C1722 C1723 1.394 . S
C1722 C1724 1.391 1_554 S
C1723 C1722 1.394 . S
C1723 C1727 1.376 1_554 S
C1724 H1713 0.950 1_556 S
C1724 C1722 1.391 1_556 S
C1724 C1725 1.400 . S
C1725 C1719 1.491 . S
C1725 C1724 1.400 . S
C1725 C1726 1.398 . S
C1726 H1714 0.950 . S
C1726 C1725 1.398 . S
C1726 C1727 1.391 . S
C1727 H1715 0.950 . S
C1727 C1723 1.376 1_556 S
C1727 C1726 1.391 . S
C457 C124 2.000 . S
C463 C1 2.000 . S
C477 C14 1.998 . S
C483 C363 1.998 . S
C497 C40 1.988 . S
C503 C153 1.988 . S
C517 C54 1.984 . S
C523 C391 1.984 . S
C537 C68 2.003 . S
C543 C180 2.000 . S
C557 C418 1.981 . S
C563 C83 1.981 . S
C577 C209 2.005 . S
C583 C85 2.002 . S
C597 C435 1.998 . S
C603 C98 1.998 . S
C617 C238 1.998 . S
C623 C139 1.998 . S
C637 C166 1.980 . S
C643 C279 1.980 . S
C657 C194 1.998 . S
C663 C306 2.001 . S
C677 C323 1.981 . S
C683 C210 1.981 . S
C697 C337 1.985 . S
C703 C224 1.985 . S
C717 C265 2.000 . S
C723 C365 2.004 . S
C737 C280 1.985 . S
C743 C404 1.982 . S
C757 C432 1.980 . S
C763 C321 1.980 . S
C777 C12 1.856 1_556 S
C783 C57 1.867 . S
C797 C70 1.868 . S
C803 C27 1.867 . S
C817 C96 1.868 . S
C823 C29 1.867 . S
C837 C43 1.865 . S
C843 C111 1.864 . S
C857 C113 1.861 . S
C863 C169 1.861 . S
C877 C126 1.861 . S
C883 C183 1.861 . S
C897 C196 1.855 1_556 S
C903 C140 1.866 . S
C917 C223 1.862 . S
C923 C155 1.861 . S
C937 C293 1.868 . S
C943 C237 1.868 . S
C957 C295 1.860 . S
C963 C251 1.861 . S
C977 C252 1.857 1_556 S
C983 C308 1.868 . S
C997 C334 1.861 . S
C1003 C266 1.861 . S
C1017 C393 1.851 1_556 S
C1023 C348 1.861 . S
C1037 C350 1.863 . S
C1043 C407 1.866 . S
C1057 C421 1.868 . S
C1063 C376 1.867 . S
C1077 C446 1.864 . S
C1083 C378 1.866 . S
C1097 C56 0.558 . S
C1103 C13 0.562 . S
C1117 C71 0.550 . S
C1123 C26 0.545 . S
C1137 C28 0.561 . S
C1143 C97 0.563 . S
C1157 C110 0.546 . S
C1163 C42 0.542 . S
C1177 C168 0.553 . S
C1183 C112 0.548 . S
C1197 C127 0.551 . S
C1203 C182 0.557 . S
C1217 C197 0.555 . S
C1223 C141 0.560 . S
C1237 C222 0.544 . S
C1243 C154 0.548 . S
C1257 C236 0.547 . S
C1263 C292 0.553 . S
C1277 C294 0.548 . S
C1283 C250 0.544 . S
C1297 C309 0.542 . S
C1303 C253 0.542 . S
C1317 C335 0.558 . S
C1323 C267 0.562 . S
C1337 C392 0.552 . S
C1343 C349 0.547 . S
C1357 C351 0.561 . S
C1363 C406 0.563 . S
C1377 C377 0.545 . S
C1383 C420 0.542 . S
C1397 C379 0.542 . S
C1403 C447 0.542 . S
C1417 C0 2.052 . S
C1423 C307 2.041 . S
C1437 C320 2.046 . S
C1443 C15 2.045 . S
C1457 C41 2.046 . S
C1463 C322 2.045 . S
C1477 C55 2.044 . S
C1483 C281 2.045 1_556 S
C1497 C278 2.057 . S
C1503 C69 2.044 . S
C1517 C225 2.055 . S
C1523 C82 2.049 . S
C1537 C239 2.055 . S
C1543 C84 2.046 . S
C1557 C99 2.050 . S
C1563 C264 2.043 . S
C1577 C125 2.041 1_556 S
C1583 C419 2.044 . S
C1597 C433 2.050 . S
C1603 C138 2.042 . S
C1617 C434 2.041 . S
C1623 C152 2.054 . S
C1637 C405 2.046 . S
C1643 C167 2.057 . S
C1657 C390 2.055 . S
C1663 C181 2.046 . S
C1677 C336 2.055 . S
C1683 C195 2.048 . S
C1697 C208 2.042 . S
C1703 C362 2.055 . S
C1717 C211 2.045 . S
C1723 C364 2.062 . S
