# Generated by pormake.
# Topology snl, (6)-cn, num edge types: 1
# Building blocks:
#     Node 0, Type 0, BuildingBlock: NUHQIS_clean_sbu_0, # of connection points: 6
#     Node 1, Type 0, BuildingBlock: NUHQIS_clean_sbu_0, # of connection points: 6
#     Node 2, Type 0, BuildingBlock: NUHQIS_clean_sbu_0, # of connection points: 6
#     Node 3, Type 0, BuildingBlock: NUHQIS_clean_sbu_0, # of connection points: 6
#     Node 4, Type 0, BuildingBlock: NUHQIS_clean_sbu_0, # of connection points: 6
#     Node 5, Type 0, BuildingBlock: NUHQIS_clean_sbu_0, # of connection points: 6
#     Node 6, Type 0, BuildingBlock: NUHQIS_clean_sbu_0, # of connection points: 6
#     Node 7, Type 0, BuildingBlock: NUHQIS_clean_sbu_0, # of connection points: 6
#     Node 8, Type 0, BuildingBlock: NUHQIS_clean_sbu_0, # of connection points: 6
#     Node 9, Type 0, BuildingBlock: NUHQIS_clean_sbu_0, # of connection points: 6
#     Node 10, Type 0, BuildingBlock: NUHQIS_clean_sbu_0, # of connection points: 6
#     Node 11, Type 0, BuildingBlock: NUHQIS_clean_sbu_0, # of connection points: 6
#     Node 12, Type 0, BuildingBlock: NUHQIS_clean_sbu_0, # of connection points: 6
#     Node 13, Type 0, BuildingBlock: NUHQIS_clean_sbu_0, # of connection points: 6
#     Node 14, Type 0, BuildingBlock: NUHQIS_clean_sbu_0, # of connection points: 6
#     Node 15, Type 0, BuildingBlock: NUHQIS_clean_sbu_0, # of connection points: 6
#     Edge 16, Type (0, 0), BuildingBlock: CIFDUS_clean_linker_0, # of connection points: 2
#     Edge 17, Type (0, 0), BuildingBlock: CIFDUS_clean_linker_0, # of connection points: 2
#     Edge 18, Type (0, 0), BuildingBlock: CIFDUS_clean_linker_0, # of connection points: 2
#     Edge 19, Type (0, 0), BuildingBlock: CIFDUS_clean_linker_0, # of connection points: 2
#     Edge 20, Type (0, 0), BuildingBlock: CIFDUS_clean_linker_0, # of connection points: 2
#     Edge 21, Type (0, 0), BuildingBlock: CIFDUS_clean_linker_0, # of connection points: 2
#     Edge 22, Type (0, 0), BuildingBlock: CIFDUS_clean_linker_0, # of connection points: 2
#     Edge 23, Type (0, 0), BuildingBlock: CIFDUS_clean_linker_0, # of connection points: 2
#     Edge 24, Type (0, 0), BuildingBlock: CIFDUS_clean_linker_0, # of connection points: 2
#     Edge 25, Type (0, 0), BuildingBlock: CIFDUS_clean_linker_0, # of connection points: 2
#     Edge 26, Type (0, 0), BuildingBlock: CIFDUS_clean_linker_0, # of connection points: 2
#     Edge 27, Type (0, 0), BuildingBlock: CIFDUS_clean_linker_0, # of connection points: 2
#     Edge 28, Type (0, 0), BuildingBlock: CIFDUS_clean_linker_0, # of connection points: 2
#     Edge 29, Type (0, 0), BuildingBlock: CIFDUS_clean_linker_0, # of connection points: 2
#     Edge 30, Type (0, 0), BuildingBlock: CIFDUS_clean_linker_0, # of connection points: 2
#     Edge 31, Type (0, 0), BuildingBlock: CIFDUS_clean_linker_0, # of connection points: 2
#     Edge 32, Type (0, 0), BuildingBlock: CIFDUS_clean_linker_0, # of connection points: 2
#     Edge 33, Type (0, 0), BuildingBlock: CIFDUS_clean_linker_0, # of connection points: 2
#     Edge 34, Type (0, 0), BuildingBlock: CIFDUS_clean_linker_0, # of connection points: 2
#     Edge 35, Type (0, 0), BuildingBlock: CIFDUS_clean_linker_0, # of connection points: 2
#     Edge 36, Type (0, 0), BuildingBlock: CIFDUS_clean_linker_0, # of connection points: 2
#     Edge 37, Type (0, 0), BuildingBlock: CIFDUS_clean_linker_0, # of connection points: 2
#     Edge 38, Type (0, 0), BuildingBlock: CIFDUS_clean_linker_0, # of connection points: 2
#     Edge 39, Type (0, 0), BuildingBlock: CIFDUS_clean_linker_0, # of connection points: 2
#     Edge 40, Type (0, 0), BuildingBlock: CIFDUS_clean_linker_0, # of connection points: 2
#     Edge 41, Type (0, 0), BuildingBlock: CIFDUS_clean_linker_0, # of connection points: 2
#     Edge 42, Type (0, 0), BuildingBlock: CIFDUS_clean_linker_0, # of connection points: 2
#     Edge 43, Type (0, 0), BuildingBlock: CIFDUS_clean_linker_0, # of connection points: 2
#     Edge 44, Type (0, 0), BuildingBlock: CIFDUS_clean_linker_0, # of connection points: 2
#     Edge 45, Type (0, 0), BuildingBlock: CIFDUS_clean_linker_0, # of connection points: 2
#     Edge 46, Type (0, 0), BuildingBlock: CIFDUS_clean_linker_0, # of connection points: 2
#     Edge 47, Type (0, 0), BuildingBlock: CIFDUS_clean_linker_0, # of connection points: 2
#     Edge 48, Type (0, 0), BuildingBlock: CIFDUS_clean_linker_0, # of connection points: 2
#     Edge 49, Type (0, 0), BuildingBlock: CIFDUS_clean_linker_0, # of connection points: 2
#     Edge 50, Type (0, 0), BuildingBlock: CIFDUS_clean_linker_0, # of connection points: 2
#     Edge 51, Type (0, 0), BuildingBlock: CIFDUS_clean_linker_0, # of connection points: 2
#     Edge 52, Type (0, 0), BuildingBlock: CIFDUS_clean_linker_0, # of connection points: 2
#     Edge 53, Type (0, 0), BuildingBlock: CIFDUS_clean_linker_0, # of connection points: 2
#     Edge 54, Type (0, 0), BuildingBlock: CIFDUS_clean_linker_0, # of connection points: 2
#     Edge 55, Type (0, 0), BuildingBlock: CIFDUS_clean_linker_0, # of connection points: 2
#     Edge 56, Type (0, 0), BuildingBlock: CIFDUS_clean_linker_0, # of connection points: 2
#     Edge 57, Type (0, 0), BuildingBlock: CIFDUS_clean_linker_0, # of connection points: 2
#     Edge 58, Type (0, 0), BuildingBlock: CIFDUS_clean_linker_0, # of connection points: 2
#     Edge 59, Type (0, 0), BuildingBlock: CIFDUS_clean_linker_0, # of connection points: 2
#     Edge 60, Type (0, 0), BuildingBlock: CIFDUS_clean_linker_0, # of connection points: 2
#     Edge 61, Type (0, 0), BuildingBlock: CIFDUS_clean_linker_0, # of connection points: 2
#     Edge 62, Type (0, 0), BuildingBlock: CIFDUS_clean_linker_0, # of connection points: 2
#     Edge 63, Type (0, 0), BuildingBlock: CIFDUS_clean_linker_0, # of connection points: 2
# Relax obj value: 0.184
# Max RMSD: 0.256
# Mean RMSD: 0.231
data_MOF--net-snl--node1-NUHQIS_clean_sbu_0--edge1-CIFDUS_clean_linker_0
_symmetry_space_group_name_H-M    P1
_symmetry_Int_Tables_number       1
_symmetry_cell_setting            triclinic
loop_
_symmetry_equiv_pos_as_xyz
'x, y, z'
_cell_length_a     50.764775
_cell_length_b     48.611708
_cell_length_c     23.733076
_cell_angle_alpha  84.992275
_cell_angle_beta   94.968164
_cell_angle_gamma 90.294843
loop_
_atom_site_label
_atom_site_type_symbol
_atom_site_fract_x
_atom_site_fract_y
_atom_site_fract_z
_atom_type_partial_charge
Tb0 Tb 0.13865 0.6137 0.22747 0.0
Eu1 Eu 0.14026 0.64498 0.09797 0.0
C2 C 0.08601 0.63347 0.15601 0.0
C3 C 0.13598 0.57884 0.1193 0.0
C4 C 0.13572 0.59937 0.38459 0.0
C5 C 0.12924 0.63445 0.4492 0.0
C6 C 0.13231 0.62714 0.39433 0.0
C7 C 0.1354 0.57899 0.43005 0.0
C8 C 0.13228 0.58624 0.48487 0.0
C9 C 0.1295 0.6141 0.49535 0.0
C10 C 0.1412 0.59146 0.32823 0.0
O11 O 0.17667 0.60846 0.1952 0.0
O12 O 0.17877 0.6514 0.15201 0.0
O13 O 0.12888 0.67802 0.1503 0.0
O14 O 0.1427 0.65806 0.23998 0.0
C15 C 0.19061 0.63022 0.18141 0.0
O16 O 0.1643 0.65713 0.02822 0.0
O17 O 0.12277 0.66789 1.02031 0.0
O18 O 0.09746 0.6328 0.10834 0.0
O19 O 0.09969 0.63126 0.20578 0.0
O20 O 0.12926 0.58072 0.17138 0.0
O21 O 0.14493 0.59997 0.08845 0.0
C22 C 0.13409 0.67939 0.20503 0.0
O23 O 0.1209 0.58913 0.29128 0.0
O24 O 0.16075 0.60439 0.30543 0.0
C25 C 0.1419 0.65823 0.93676 0.0
C26 C 0.13959 0.64119 0.82552 0.0
C27 C 0.14086 0.6216 0.87306 0.0
C28 C 0.142 0.63005 0.92811 0.0
C29 C 0.14016 0.67784 0.88965 0.0
C30 C 0.139 0.66943 0.83453 0.0
C31 C 0.14441 0.66739 0.99456 0.0
H32 H 0.12743 0.65611 0.45568 0.0
H33 H 0.13259 0.64321 0.35974 0.0
H34 H 0.13798 0.55744 0.42332 0.0
H35 H 0.13212 0.56999 0.51908 0.0
H36 H 0.14099 0.5997 0.86775 0.0
H37 H 0.1433 0.61462 0.96399 0.0
H38 H 0.14012 0.69969 0.89551 0.0
H39 H 0.13835 0.68508 0.79905 0.0
Tb40 Tb 0.63478 0.91246 0.32785 0.0
Eu41 Eu 0.65457 0.887 0.4601 0.0
C42 C 0.59337 0.89701 0.41505 0.0
C43 C 0.6432 0.95077 0.43066 0.0
C44 C 0.62277 0.92276 0.16851 0.0
C45 C 0.60279 0.91739 0.07304 0.0
C46 C 0.60058 0.92383 0.1288 0.0
C47 C 0.64732 0.91499 0.15146 0.0
C48 C 0.64958 0.90869 0.0955 0.0
C49 C 0.62732 0.90981 0.05551 0.0
C50 C 0.61976 0.9303 0.22679 0.0
O51 O 0.67513 0.89977 0.32321 0.0
O52 O 0.69085 0.90212 0.41627 0.0
O53 O 0.66191 0.85378 0.40436 0.0
O54 O 0.63149 0.86719 0.32937 0.0
C55 C 0.69482 0.90147 0.36217 0.0
O56 O 0.68186 0.88963 0.53567 0.0
O57 O 0.65173 0.85788 0.5351 0.0
O58 O 0.6102 0.88014 0.44603 0.0
O59 O 0.60139 0.91584 0.37738 0.0
O60 O 0.64607 0.94812 0.3765 0.0
O61 O 0.63989 0.92938 0.46659 0.0
C62 C 0.64763 0.84867 0.35775 0.0
O63 O 0.60594 0.91347 0.25834 0.0
O64 O 0.64074 0.93911 0.25553 0.0
C65 C 0.66599 0.87516 0.62408 0.0
C66 C 0.65962 0.88729 0.73678 0.0
C67 C 0.68441 0.87944 0.72104 0.0
C68 C 0.68752 0.87345 0.66543 0.0
C69 C 0.64109 0.88278 0.63941 0.0
C70 C 0.63791 0.88865 0.69537 0.0
C71 C 0.67052 0.86982 0.56527 0.0
H72 H 0.5853 0.9188 0.04336 0.0
H73 H 0.58147 0.92984 0.14087 0.0
H74 H 0.66477 0.91384 0.18128 0.0
H75 H 0.66871 0.90262 0.08371 0.0
H76 H 0.70148 0.8778 0.75187 0.0
H77 H 0.70691 0.86764 0.65455 0.0
H78 H 0.6242 0.88449 0.60809 0.0
H79 H 0.6186 0.89486 0.7059 0.0
Tb80 Tb 0.36381 0.39143 0.62045 0.0
Eu81 Eu 0.39096 0.40035 0.75013 0.0
C82 C 0.37875 0.34144 0.70895 0.0
C83 C 0.32764 0.39535 0.7234 0.0
C84 C 0.35193 0.38082 0.46397 0.0
C85 C 0.34153 0.36222 0.37287 0.0
C86 C 0.33667 0.36363 0.42966 0.0
C87 C 0.3729 0.39579 0.44126 0.0
C88 C 0.37771 0.39447 0.38436 0.0
C89 C 0.3617 0.37813 0.34909 0.0
C90 C 0.34386 0.38497 0.52089 0.0
O91 O 0.35782 0.43398 0.63632 0.0
O92 O 0.39536 0.43987 0.69369 0.0
O93 O 0.42365 0.38773 0.69904 0.0
O94 O 0.40516 0.40154 0.60901 0.0
C95 C 0.37708 0.44972 0.6548 0.0
O96 O 0.39752 0.42617 0.82083 0.0
O97 O 0.41755 0.38665 0.82428 0.0
O98 O 0.37571 0.35665 0.75095 0.0
O99 O 0.38186 0.35285 0.65772 0.0
O100 O 0.33084 0.38602 0.67385 0.0
O101 O 0.34726 0.40497 0.75582 0.0
C102 C 0.42573 0.39421 0.64471 0.0
O103 O 0.34786 0.36477 0.56052 0.0
O104 O 0.34946 0.40879 0.53997 0.0
C105 C 0.40872 0.4032 0.91166 0.0
C106 C 0.40203 0.39388 0.02866 0.0
C107 C 0.42111 0.41265 1.00916 0.0
C108 C 0.42441 0.41722 0.95128 0.0
C109 C 0.38942 0.38465 0.93048 0.0
C110 C 0.38609 0.38002 0.98857 0.0
C111 C 0.41308 0.40823 0.8512 0.0
H112 H 0.32914 0.34903 0.34729 0.0
H113 H 0.32042 0.35191 0.44632 0.0
H114 H 0.38497 0.40925 0.46686 0.0
H115 H 0.39326 0.40718 0.36745 0.0
H116 H 0.43337 0.42407 0.03862 0.0
H117 H 0.43929 0.43174 0.93742 0.0
H118 H 0.37708 0.37367 0.90035 0.0
H119 H 0.37135 0.3653 1.00215 0.0
Tb120 Tb 0.88509 0.13675 0.82027 0.0
Eu121 Eu 0.8726 0.16045 0.94021 0.0
C122 C 0.93124 0.14897 0.9117 0.0
C123 C 0.87955 0.09624 0.93164 0.0
C124 C 0.88865 0.12312 0.66852 0.0
C125 C 0.89608 0.11514 0.57182 0.0
C126 C 0.90184 0.10917 0.63013 0.0
C127 C 0.86911 0.14266 0.64829 0.0
C128 C 0.86331 0.14868 0.58987 0.0
C129 C 0.877 0.13523 0.55102 0.0
C130 C 0.89676 0.11829 0.72922 0.0
O131 O 0.84238 0.13446 0.8182 0.0
O132 O 0.83516 0.16645 0.88082 0.0
O133 O 0.88654 0.19567 0.88346 0.0
O134 O 0.87309 0.17995 0.79737 0.0
C135 C 0.82657 0.15108 0.84009 0.0
O136 O 0.84474 0.16686 1.00273 0.0
O137 O 0.884 0.18448 1.01183 0.0
O138 O 0.91525 0.14554 0.95248 0.0
O139 O 0.92176 0.15266 0.85845 0.0
O140 O 0.89216 0.10219 0.88582 0.0
O141 O 0.86626 0.115 0.95366 0.0
C142 C 0.88016 0.20021 0.82882 0.0
O143 O 0.90879 0.13881 0.75204 0.0
O144 O 0.87931 0.10704 0.7611 0.0
C145 C 0.86339 0.17125 0.09535 0.0
C146 C 0.86522 0.15438 0.21211 0.0
C147 C 0.84874 0.17633 0.18837 0.0
C148 C 0.8479 0.18471 0.13051 0.0
C149 C 0.87963 0.1491 0.11838 0.0
C150 C 0.88061 0.14077 0.17641 0.0
C151 C 0.8617 0.18013 0.03459 0.0
H152 H 0.90723 0.10471 0.54307 0.0
H153 H 0.91711 0.09414 0.64526 0.0
H154 H 0.85876 0.15361 0.67763 0.0
H155 H 0.84832 0.16404 0.57509 0.0
H156 H 0.83628 0.18691 0.2144 0.0
H157 H 0.83502 0.20164 0.11312 0.0
H158 H 0.89156 0.13834 0.09153 0.0
H159 H 0.89369 0.12396 0.19343 0.0
Tb160 Tb 0.13367 0.4134 0.82696 0.0
Eu161 Eu 0.14704 0.38479 0.95999 0.0
C162 C 0.08842 0.39426 0.90396 0.0
C163 C 0.13741 0.4495 0.93338 0.0
C164 C 0.12896 0.43067 0.66789 0.0
C165 C 0.12665 0.44795 0.56821 0.0
C166 C 0.12216 0.45149 0.6245 0.0
C167 C 0.14082 0.40633 0.65437 0.0
C168 C 0.14526 0.4027 0.59793 0.0
C169 C 0.13801 0.42339 0.554 0.0
C170 C 0.12199 0.43417 0.726 0.0
O171 O 0.17631 0.41557 0.84168 0.0
O172 O 0.18479 0.38201 0.91589 0.0
O173 O 0.13734 0.35031 0.90424 0.0
O174 O 0.1471 0.3715 0.81767 0.0
C175 C 0.19247 0.39829 0.87304 0.0
O176 O 0.17328 0.37977 0.03804 0.0
O177 O 0.13636 0.35727 0.03245 0.0
O178 O 0.10378 0.3973 0.95045 0.0
O179 O 0.09828 0.39333 0.8549 0.0
O180 O 0.12546 0.44548 0.8831 0.0
O181 O 0.15154 0.43023 0.9638 0.0
C182 C 0.14249 0.34928 0.85117 0.0
O183 O 0.10938 0.4138 0.75075 0.0
O184 O 0.14011 0.44405 0.76093 0.0
C185 C 0.15336 0.36883 0.12378 0.0
C186 C 0.14718 0.37832 0.23799 0.0
C187 C 0.15785 0.35331 0.22434 0.0
C188 C 0.16088 0.34865 0.16794 0.0
C189 C 0.14278 0.39392 0.1368 0.0
C190 C 0.13977 0.39866 0.19344 0.0
C191 C 0.15728 0.36331 0.06491 0.0
H192 H 0.12053 0.46418 0.53558 0.0
H193 H 0.11283 0.47036 0.63399 0.0
H194 H 0.14627 0.38999 0.68727 0.0
H195 H 0.15436 0.3837 0.58868 0.0
H196 H 0.1642 0.33736 0.25741 0.0
H197 H 0.16927 0.32924 0.15881 0.0
H198 H 0.13686 0.40978 0.10323 0.0
H199 H 0.13128 0.41805 0.20226 0.0
Tb200 Tb 0.86923 0.89161 0.11673 0.0
Eu201 Eu 0.89114 0.91134 0.24162 0.0
C202 C 0.88206 0.84798 0.21811 0.0
C203 C 0.83032 0.90068 0.21191 0.0
C204 C 0.86106 0.87983 0.96273 0.0
C205 C 0.85693 0.86685 0.86585 0.0
C206 C 0.84992 0.86318 0.9217 0.0
C207 C 0.87947 0.90017 0.94746 0.0
C208 C 0.88648 0.9039 0.89154 0.0
C209 C 0.87523 0.88732 0.84997 0.0
C210 C 0.85314 0.87581 1.02101 0.0
O211 O 0.88134 0.93382 0.09805 0.0
O212 O 0.87709 0.94967 0.18504 0.0
O213 O 0.92358 0.92048 0.18543 0.0
O214 O 0.91276 0.88816 0.12236 0.0
C215 C 0.87884 0.95419 0.12987 0.0
O216 O 0.88741 0.93792 0.30979 0.0
O217 O 0.91957 0.90836 0.31657 0.0
O218 O 0.89878 0.86521 0.24181 0.0
O219 O 0.86399 0.85696 0.17819 0.0
O220 O 0.83442 0.90444 0.15754 0.0
O221 O 0.85 0.89658 0.25107 0.0
C222 C 0.92986 0.90533 0.14559 0.0
O223 O 0.8695 0.86171 0.05789 0.0
O224 O 0.84419 0.8976 0.04158 0.0
C225 C 0.90216 0.91895 0.40147 0.0
C226 C 0.89053 0.90721 0.51529 0.0
C227 C 0.90846 0.92827 0.5006 0.0
C228 C 0.91419 0.93406 0.44422 0.0
C229 C 0.8845 0.89769 0.41572 0.0
C230 C 0.87876 0.89183 0.47216 0.0
C231 C 0.90719 0.92652 0.34205 0.0
H232 H 0.8482 0.85344 0.83524 0.0
H233 H 0.83576 0.84729 0.93287 0.0
H234 H 0.88827 0.91323 0.97869 0.0
H235 H 0.90041 0.92005 0.88069 0.0
H236 H 0.91757 0.94081 0.53243 0.0
H237 H 0.92771 0.9507 0.43383 0.0
H238 H 0.87496 0.88586 0.3831 0.0
H239 H 0.86511 0.87527 0.48201 0.0
Tb240 Tb 0.38392 0.62761 0.33524 0.0
Eu241 Eu 0.37609 0.65466 0.45559 0.0
C242 C 0.43321 0.64209 0.41658 0.0
C243 C 0.38058 0.58879 0.45015 0.0
C244 C 0.39357 0.61642 0.1835 0.0
C245 C 0.40455 0.6037 0.0917 0.0
C246 C 0.4012 0.59648 0.14891 0.0
C247 C 0.3904 0.64397 0.16087 0.0
C248 C 0.39364 0.6512 0.10354 0.0
C249 C 0.40017 0.63101 0.06796 0.0
C250 C 0.38672 0.60757 0.24121 0.0
O251 O 0.34385 0.62182 0.35823 0.0
O252 O 0.33952 0.66275 0.39399 0.0
O253 O 0.39067 0.68889 0.39812 0.0
O254 O 0.3796 0.67224 0.31108 0.0
C255 C 0.32924 0.64319 0.36436 0.0
O256 O 0.3506 0.66124 0.52253 0.0
O257 O 0.38927 0.68039 0.52343 0.0
O258 O 0.41868 0.64011 0.46014 0.0
O259 O 0.42232 0.64343 0.3641 0.0
O260 O 0.38911 0.59231 0.39907 0.0
O261 O 0.3715 0.60913 0.47584 0.0
C262 C 0.38699 0.69239 0.34271 0.0
O263 O 0.40589 0.60606 0.28167 0.0
O264 O 0.36549 0.61869 0.25673 0.0
C265 C 0.37315 0.66695 0.61162 0.0
C266 C 0.38146 0.65103 0.72882 0.0
C267 C 0.37335 0.67809 0.70931 0.0
C268 C 0.36922 0.68595 0.65118 0.0
C269 C 0.38153 0.64003 0.63064 0.0
C270 C 0.3856 0.6321 0.68882 0.0
C271 C 0.36832 0.67542 0.55077 0.0
H272 H 0.41008 0.58775 0.06578 0.0
H273 H 0.40379 0.57513 0.16574 0.0
H274 H 0.3845 0.65968 0.18697 0.0
H275 H 0.38991 0.67237 0.0866 0.0
H276 H 0.36963 0.69303 0.73899 0.0
H277 H 0.36273 0.70681 0.63709 0.0
H278 H 0.3848 0.62515 0.60051 0.0
H279 H 0.39211 0.6112 0.70248 0.0
Tb280 Tb 0.6274 0.11676 0.71372 0.0
Eu281 Eu 0.63246 0.14812 0.58525 0.0
C282 C 0.57813 0.1227 0.62704 0.0
C283 C 0.63698 0.08301 0.60747 0.0
C284 C 0.62633 0.10283 0.87122 0.0
C285 C 0.62414 0.09148 0.97257 0.0
C286 C 0.62173 0.08368 0.91695 0.0
C287 C 0.63352 0.12994 0.88178 0.0
C288 C 0.63596 0.13778 0.93745 0.0
C289 C 0.63121 0.11866 0.98363 0.0
C290 C 0.62288 0.09438 0.81288 0.0
O291 O 0.66422 0.13945 0.72016 0.0
O292 O 0.6737 0.13859 0.62796 0.0
O293 O 0.63577 0.18115 0.64546 0.0
O294 O 0.61255 0.15901 0.71508 0.0
C295 C 0.68135 0.14076 0.68185 0.0
O296 O 0.656 0.15708 0.51335 0.0
O297 O 0.61683 0.17461 0.51043 0.0
O298 O 0.58869 0.14407 0.59933 0.0
O299 O 0.59297 0.1053 0.66099 0.0
O300 O 0.64254 0.08556 0.66233 0.0
O301 O 0.62743 0.10357 0.57254 0.0
C302 C 0.62248 0.18156 0.69035 0.0
O303 O 0.60348 0.10622 0.78017 0.0
O304 O 0.64423 0.0931 0.78632 0.0
C305 C 0.63223 0.1634 0.42357 0.0
C306 C 0.626 0.14845 0.31054 0.0
C307 C 0.63339 0.17548 0.32217 0.0
C308 C 0.6365 0.18283 0.37811 0.0
C309 C 0.62449 0.13652 0.41238 0.0
C310 C 0.6214 0.1291 0.35643 0.0
C311 C 0.63734 0.171 0.48233 0.0
H312 H 0.62073 0.0761 1.00699 0.0
H313 H 0.61617 0.06266 0.90961 0.0
H314 H 0.63704 0.14506 0.84694 0.0
H315 H 0.64114 0.15895 0.94421 0.0
H316 H 0.6367 0.19103 0.288 0.0
H317 H 0.64253 0.20368 0.38592 0.0
H318 H 0.62124 0.12117 0.44697 0.0
H319 H 0.61599 0.10804 0.34927 0.0
Tb320 Tb 0.87487 0.39462 0.94854 0.0
Eu321 Eu 0.88484 0.42475 0.82024 0.0
C322 C 0.82892 0.41226 0.85689 0.0
C323 C 0.8832 0.3588 0.84617 0.0
C324 C 0.87051 0.37776 0.10573 0.0
C325 C 0.86553 0.36323 0.20488 0.0
C326 C 0.86106 0.35894 0.14733 0.0
C327 C 0.88445 0.40115 0.12243 0.0
C328 C 0.88891 0.40553 0.1802 0.0
C329 C 0.87961 0.38651 0.22224 0.0
C330 C 0.86553 0.37244 0.04548 0.0
O331 O 0.91648 0.40728 0.95272 0.0
O332 O 0.92299 0.4054 0.85851 0.0
O333 O 0.89208 0.45847 0.88005 0.0
O334 O 0.87281 0.43841 0.95849 0.0
C335 C 0.93223 0.405 0.91202 0.0
O336 O 0.90917 0.44381 0.75512 0.0
O337 O 0.86679 0.43993 0.73709 0.0
O338 O 0.84415 0.43297 0.84311 0.0
O339 O 0.83885 0.39135 0.89085 0.0
O340 O 0.88742 0.36174 0.90072 0.0
O341 O 0.87663 0.37959 0.80833 0.0
C342 C 0.88352 0.45961 0.93077 0.0
O343 O 0.84939 0.38933 1.01394 0.0
O344 O 0.88609 0.36674 1.01927 0.0
C345 C 0.89256 0.43984 0.65863 0.0
C346 C 0.89318 0.43049 0.54249 0.0
C347 C 0.90486 0.45428 0.56367 0.0
C348 C 0.90449 0.4589 0.62103 0.0
C349 C 0.88183 0.41549 0.63837 0.0
C350 C 0.88214 0.41087 0.58091 0.0
C351 C 0.88911 0.44712 0.71679 0.0
H352 H 0.85767 0.34841 0.2358 0.0
H353 H 0.85015 0.34084 0.13527 0.0
H354 H 0.89195 0.41589 0.09087 0.0
H355 H 0.89999 0.42356 0.19195 0.0
H356 H 0.91398 0.46961 0.53571 0.0
H357 H 0.91286 0.47783 0.63568 0.0
H358 H 0.87242 0.40049 0.66654 0.0
H359 H 0.87277 0.39244 0.56623 0.0
Tb360 Tb 0.35987 0.13963 0.58196 0.0
Eu361 Eu 0.38044 0.11659 0.71511 0.0
C362 C 0.32047 0.13169 0.67869 0.0
C363 C 0.378 0.18084 0.67293 0.0
C364 C 0.34796 0.14793 0.42418 0.0
C365 C 0.3397 0.15512 0.32155 0.0
C366 C 0.33441 0.16153 0.37583 0.0
C367 C 0.36666 0.12754 0.41775 0.0
C368 C 0.37194 0.12105 0.3635 0.0
C369 C 0.35869 0.13494 0.31463 0.0
C370 C 0.343 0.15574 0.48087 0.0
O371 O 0.40137 0.12888 0.57606 0.0
O372 O 0.41708 0.12632 0.671 0.0
O373 O 0.38678 0.08138 0.66122 0.0
O374 O 0.35718 0.09505 0.58522 0.0
C375 C 0.4209 0.12768 0.61673 0.0
O376 O 0.4047 0.12093 0.79431 0.0
O377 O 0.37834 0.08598 0.78768 0.0
O378 O 0.33643 0.11304 0.70582 0.0
O379 O 0.3279 0.14779 0.63529 0.0
O380 O 0.37844 0.17415 0.62072 0.0
O381 O 0.37285 0.16261 0.71479 0.0
C382 C 0.37333 0.07666 0.61312 0.0
O383 O 0.33111 0.13743 0.51308 0.0
O384 O 0.36283 0.16684 0.50904 0.0
C385 C 0.38629 0.10304 0.87781 0.0
C386 C 0.372 0.11062 0.98792 0.0
C387 C 0.39185 0.09158 0.97985 0.0
C388 C 0.39892 0.08788 0.92534 0.0
C389 C 0.36623 0.1218 0.88526 0.0
C390 C 0.35915 0.12557 0.93984 0.0
C391 C 0.3946 0.09935 0.82105 0.0
H392 H 0.32939 0.16649 0.285 0.0
H393 H 0.31999 0.17741 0.38002 0.0
H394 H 0.37736 0.11687 0.45468 0.0
H395 H 0.38641 0.10516 0.35985 0.0
H396 H 0.40184 0.07937 1.01567 0.0
H397 H 0.41436 0.07321 0.92033 0.0
H398 H 0.35626 0.1337 0.84893 0.0
H399 H 0.34397 0.14058 0.94442 0.0
Tb400 Tb 0.63018 0.62659 0.31197 0.0
Eu401 Eu 0.651 0.6476 0.43642 0.0
C402 C 0.63654 0.58515 0.42434 0.0
C403 C 0.58913 0.64026 0.39531 0.0
C404 C 0.62016 0.61901 0.15594 0.0
C405 C 0.60783 0.61585 0.05556 0.0
C406 C 0.60353 0.6088 0.11239 0.0
C407 C 0.64109 0.6366 0.14209 0.0
C408 C 0.64544 0.64365 0.08518 0.0
C409 C 0.62891 0.63326 0.04119 0.0
C410 C 0.6155 0.61085 0.21536 0.0
O411 O 0.62428 0.67163 0.3062 0.0
O412 O 0.65795 0.6821 0.37119 0.0
O413 O 0.68625 0.63125 0.3963 0.0
O414 O 0.67051 0.64006 0.30339 0.0
C415 C 0.64071 0.68961 0.32849 0.0
O416 O 0.65109 0.67752 0.49999 0.0
O417 O 0.67709 0.64191 0.51438 0.0
O418 O 0.63446 0.60578 0.45544 0.0
O419 O 0.64005 0.58928 0.36971 0.0
O420 O 0.59622 0.62252 0.3609 0.0
O421 O 0.60657 0.65541 0.42307 0.0
C422 C 0.69029 0.635 0.34208 0.0
O423 O 0.63575 0.60063 0.24785 0.0
O424 O 0.60235 0.62835 0.24074 0.0
C425 C 0.66074 0.65854 0.5946 0.0
C426 C 0.64928 0.6473 0.70859 0.0
C427 C 0.67072 0.66431 0.69478 0.0
C428 C 0.67638 0.66985 0.63829 0.0
C429 C 0.63913 0.64183 0.60782 0.0
C430 C 0.63342 0.63628 0.66433 0.0
C431 C 0.66787 0.66332 0.53587 0.0
H432 H 0.59446 0.60785 1.02286 0.0
H433 H 0.58721 0.5953 0.12236 0.0
H434 H 0.65414 0.64468 0.17526 0.0
H435 H 0.66201 0.65686 0.07568 0.0
H436 H 0.68357 0.67281 0.72773 0.0
H437 H 0.69325 0.68264 0.62878 0.0
H438 H 0.62687 0.63287 0.57449 0.0
H439 H 0.61658 0.62339 0.67334 0.0
Tb440 Tb 0.14217 0.87795 0.1144 0.0
Eu441 Eu 0.12611 0.90159 0.23313 0.0
C442 C 0.18541 0.88909 0.21338 0.0
C443 C 0.13389 0.83767 0.222 0.0
C444 C 0.15361 0.86849 0.96403 0.0
C445 C 0.16587 0.86264 0.8693 0.0
C446 C 0.16807 0.85469 0.92749 0.0
C447 C 0.13701 0.89054 0.94198 0.0
C448 C 0.13472 0.89847 0.88366 0.0
C449 C 0.14907 0.88453 0.84658 0.0
C450 C 0.15639 0.85987 1.02501 0.0
O451 O 0.10062 0.88967 0.0955 0.0
O452 O 0.08871 0.88739 0.18722 0.0
O453 O 0.11862 0.93666 0.16503 0.0
O454 O 0.14542 0.92266 0.09956 0.0
C455 C 0.08262 0.88801 0.13232 0.0
O456 O 0.10155 0.89892 0.30417 0.0
O457 O 0.13079 0.93136 0.29715 0.0
O458 O 0.16973 0.90749 0.23002 0.0
O459 O 0.1765 0.87166 0.17688 0.0
O460 O 0.12806 0.84309 0.16721 0.0
O461 O 0.1395 0.85736 0.25555 0.0
C462 C 0.1313 0.94171 0.1192 0.0
O463 O 0.17089 0.87579 0.05642 0.0
O464 O 0.13476 0.8524 0.0479 0.0
C465 C 0.12096 0.91425 0.38911 0.0
C466 C 0.13229 0.90211 0.50692 0.0
C467 C 0.11362 0.92257 0.48581 0.0
C468 C 0.10801 0.92855 0.42738 0.0
C469 C 0.14004 0.89426 0.40969 0.0
C470 C 0.14568 0.88823 0.46819 0.0
C471 C 0.11331 0.91934 0.32812 0.0
H472 H 0.17756 0.85179 0.84219 0.0
H473 H 0.18115 0.83778 0.94402 0.0
H474 H 0.12579 0.9015 0.96982 0.0
H475 H 0.12141 0.91523 0.86754 0.0
H476 H 0.10272 0.93338 0.51441 0.0
H477 H 0.09311 0.94394 0.41205 0.0
H478 H 0.15022 0.88303 0.38053 0.0
H479 H 0.16038 0.87261 0.48311 0.0
Tb480 Tb 0.86797 0.64684 0.10101 0.0
Eu481 Eu 0.88747 0.62204 0.23369 0.0
C482 C 0.82654 0.63497 0.19375 0.0
C483 C 0.87619 0.6866 0.19996 0.0
C484 C 0.85806 0.65447 0.94253 0.0
C485 C 0.84506 0.65658 0.84125 0.0
C486 C 0.8415 0.66474 0.89518 0.0
C487 C 0.87813 0.63563 0.93544 0.0
C488 C 0.88176 0.62747 0.88143 0.0
C489 C 0.86536 0.63798 0.8335 0.0
C490 C 0.85403 0.66357 0.9988 0.0
O491 O 0.90956 0.63499 0.1005 0.0
O492 O 0.92274 0.64021 0.19366 0.0
O493 O 0.89436 0.58808 0.17671 0.0
O494 O 0.86403 0.60245 0.10265 0.0
C495 C 0.92828 0.63847 0.14116 0.0
O496 O 0.91344 0.6244 0.31134 0.0
O497 O 0.88503 0.59123 0.30591 0.0
O498 O 0.84335 0.61813 0.22426 0.0
O499 O 0.83347 0.65089 0.14955 0.0
O500 O 0.87842 0.68289 0.14637 0.0
O501 O 0.87453 0.66602 0.23927 0.0
C502 C 0.88039 0.58382 0.12889 0.0
O503 O 0.83975 0.6474 0.03058 0.0
O504 O 0.8749 0.6724 0.02778 0.0
C505 C 0.89516 0.60818 0.39579 0.0
C506 C 0.88359 0.61954 0.50588 0.0
C507 C 0.90512 0.60253 0.49823 0.0
C508 C 0.91085 0.59695 0.44369 0.0
C509 C 0.87334 0.62471 0.40303 0.0
C510 C 0.86759 0.63031 0.45756 0.0
C511 C 0.90247 0.60356 0.33863 0.0
H512 H 0.83173 0.6647 0.80567 0.0
H513 H 0.82577 0.67912 0.8999 0.0
H514 H 0.8911 0.62741 0.97158 0.0
H515 H 0.89771 0.61331 0.87714 0.0
H516 H 0.91806 0.59417 0.53427 0.0
H517 H 0.92786 0.58426 0.43886 0.0
H518 H 0.86098 0.63356 0.36649 0.0
H519 H 0.85064 0.64317 0.46186 0.0
Tb520 Tb 0.12737 0.12622 0.81169 0.0
Eu521 Eu 0.14957 0.14619 0.93641 0.0
C522 C 0.13475 0.08411 0.9222 0.0
C523 C 0.08725 0.1404 0.89732 0.0
C524 C 0.11783 0.1145 0.65588 0.0
C525 C 0.1206 0.09557 0.56514 0.0
C526 C 0.11487 0.09236 0.62184 0.0
C527 C 0.12658 0.14009 0.63231 0.0
C528 C 0.13219 0.14339 0.57525 0.0
C529 C 0.1294 0.12108 0.5411 0.0
C530 C 0.11201 0.10993 0.71576 0.0
O531 O 0.12194 0.17124 0.80772 0.0
O532 O 0.15614 0.18134 0.87189 0.0
O533 O 0.18443 0.13068 0.89349 0.0
O534 O 0.16754 0.1397 0.80118 0.0
C535 C 0.13854 0.18908 0.83 0.0
O536 O 0.15167 0.1768 0.99899 0.0
O537 O 0.17449 0.13888 1.01575 0.0
O538 O 0.13226 0.10439 0.95406 0.0
O539 O 0.13883 0.089 0.86811 0.0
O540 O 0.09342 0.12296 0.86129 0.0
O541 O 0.10535 0.15495 0.92466 0.0
C542 C 0.18774 0.13466 0.83886 0.0
O543 O 0.13057 0.09795 0.75052 0.0
O544 O 0.10095 0.13006 0.73804 0.0
C545 C 0.15959 0.15898 0.09522 0.0
C546 C 0.14786 0.15512 0.21 0.0
C547 C 0.15646 0.1802 0.18354 0.0
C548 C 0.16232 0.18206 0.12681 0.0
C549 C 0.15059 0.13399 0.12111 0.0
C550 C 0.14488 0.13206 0.17802 0.0
C551 C 0.16687 0.16138 0.03605 0.0
H552 H 0.11789 0.07808 0.53991 0.0
H553 H 0.10814 0.07245 0.63923 0.0
H554 H 0.12919 0.15742 0.65801 0.0
H555 H 0.13915 0.16323 0.55814 0.0
H556 H 0.15921 0.19827 0.20704 0.0
H557 H 0.16927 0.20152 0.10771 0.0
H558 H 0.14812 0.1159 0.09754 0.0
H559 H 0.13795 0.11255 0.19689 0.0
Tb560 Tb 0.64075 0.38273 0.618 0.0
Eu561 Eu 0.61898 0.4027 0.73442 0.0
C562 C 0.67987 0.39209 0.72679 0.0
C563 C 0.63269 0.33947 0.71859 0.0
C564 C 0.64895 0.37359 0.46548 0.0
C565 C 0.65663 0.36587 0.36851 0.0
C566 C 0.66274 0.36031 0.42696 0.0
C567 C 0.62873 0.39236 0.44498 0.0
C568 C 0.62258 0.39795 0.38644 0.0
C569 C 0.63655 0.38486 0.34743 0.0
C570 C 0.65654 0.36831 0.52666 0.0
O571 O 0.59818 0.37327 0.61726 0.0
O572 O 0.58588 0.40878 0.66614 0.0
O573 O 0.63253 0.44067 0.68164 0.0
O574 O 0.62583 0.42397 0.59445 0.0
C575 C 0.57985 0.38984 0.63146 0.0
O576 O 0.5895 0.4007 0.7965 0.0
O577 O 0.62251 0.42898 0.80448 0.0
O578 O 0.66042 0.38849 0.75936 0.0
O579 O 0.67551 0.39629 0.67101 0.0
O580 O 0.64893 0.34866 0.68135 0.0
O581 O 0.61525 0.35579 0.73692 0.0
C582 C 0.62969 0.4447 0.62579 0.0
O583 O 0.6657 0.38948 0.55221 0.0
O584 O 0.63994 0.35406 0.55639 0.0
C585 C 0.60574 0.4103 0.88907 0.0
C586 C 0.61348 0.39669 1.00747 0.0
C587 C 0.59406 0.41604 0.98445 0.0
C588 C 0.59026 0.42277 0.92581 0.0
C589 C 0.625 0.39081 0.91152 0.0
C590 C 0.62883 0.38406 0.97022 0.0
C591 C 0.60199 0.41828 0.8277 0.0
H592 H 0.66807 0.35574 0.33983 0.0
H593 H 0.67852 0.34589 0.44211 0.0
H594 H 0.61789 0.40282 0.47422 0.0
H595 H 0.60682 0.41244 0.37174 0.0
H596 H 0.58163 0.42585 1.01174 0.0
H597 H 0.57527 0.43782 0.90913 0.0
H598 H 0.6372 0.38104 0.88369 0.0
H599 H 0.64415 0.36932 0.98648 0.0
Tb600 Tb 0.38263 0.88497 0.43726 0.0
Eu601 Eu 0.3815 0.91762 0.30692 0.0
C602 C 0.33051 0.90315 0.36479 0.0
C603 C 0.38171 0.8514 0.32963 0.0
C604 C 0.38448 0.86682 0.59596 0.0
C605 C 0.38235 0.85133 0.69575 0.0
C606 C 0.37952 0.84608 0.6385 0.0
C607 C 0.39246 0.89301 0.61153 0.0
C608 C 0.39528 0.89834 0.66901 0.0
C609 C 0.39023 0.87754 0.71198 0.0
C610 C 0.3799 0.86086 0.53589 0.0
O611 O 0.42295 0.89994 0.42855 0.0
O612 O 0.42223 0.90069 0.33142 0.0
O613 O 0.38861 0.95131 0.36656 0.0
O614 O 0.37864 0.92817 0.45162 0.0
C615 C 0.43522 0.90069 0.38174 0.0
O616 O 0.4001 0.94181 0.23861 0.0
O617 O 0.35931 0.92864 0.22547 0.0
O618 O 0.34334 0.92442 0.34385 0.0
O619 O 0.34358 0.88166 0.39039 0.0
O620 O 0.39163 0.85347 0.38212 0.0
O621 O 0.37187 0.87271 0.29679 0.0
C622 C 0.38414 0.9509 0.42062 0.0
O623 O 0.36036 0.87406 0.50631 0.0
O624 O 0.40051 0.85985 0.50696 0.0
C625 C 0.38352 0.9342 0.14391 0.0
C626 C 0.38698 0.92468 0.02846 0.0
C627 C 0.39315 0.95069 0.048 0.0
C628 C 0.39141 0.95537 0.10498 0.0
C629 C 0.37812 0.90794 0.12521 0.0
C630 C 0.37985 0.90323 0.0681 0.0
C631 C 0.37931 0.94059 0.20239 0.0
H632 H 0.3778 0.83493 0.72728 0.0
H633 H 0.37309 0.82581 0.62738 0.0
H634 H 0.39632 0.90933 0.57927 0.0
H635 H 0.40161 0.91868 0.67979 0.0
H636 H 0.39917 0.96758 1.01912 0.0
H637 H 0.3957 0.97577 0.11841 0.0
H638 H 0.37196 0.89124 0.15442 0.0
H639 H 0.37474 0.88301 0.05468 0.0
H640 H 0.11064 0.66205 0.72872 0.0
H641 H 0.16942 0.6003 0.7905 0.0
H642 H 0.17097 0.58616 0.69473 0.0
H643 H 0.15684 0.59223 0.59294 0.0
H644 H 0.09797 0.65379 0.53062 0.0
H645 H 0.09579 0.66749 0.62673 0.0
C646 C 0.1239 0.64559 0.72121 0.0
C647 C 0.13986 0.63227 0.76699 0.0
C648 C 0.12485 0.63764 0.66578 0.0
C649 C 0.15663 0.6107 0.75641 0.0
C650 C 0.15768 0.6027 0.70149 0.0
C651 C 0.14324 0.6084 0.60036 0.0
C652 C 0.12761 0.62193 0.55432 0.0
C653 C 0.14196 0.61608 0.65583 0.0
C654 C 0.11051 0.64322 0.56493 0.0
C655 C 0.10913 0.65098 0.62001 0.0
H656 H 0.66626 0.92522 0.98657 0.0
H657 H 0.59328 0.87948 0.98976 0.0
H658 H 0.59628 0.86918 0.89161 0.0
H659 H 0.62 0.87253 0.80478 0.0
H660 H 0.69302 0.91823 0.80207 0.0
H661 H 0.68978 0.92881 0.89986 0.0
C662 C 0.65113 0.91279 0.966 0.0
C663 C 0.62957 0.90319 0.99577 0.0
C664 C 0.65299 0.90687 0.90942 0.0
C665 C 0.60994 0.88745 0.96788 0.0
C666 C 0.61169 0.88143 0.91171 0.0
C667 C 0.63508 0.885 0.82542 0.0
C668 C 0.6568 0.8944 0.79597 0.0
C669 C 0.63311 0.89105 0.88195 0.0
C670 C 0.67629 0.91033 0.8238 0.0
C671 C 0.6744 0.91651 0.87976 0.0
H672 H 0.40774 0.37909 0.29706 0.0
H673 H 0.3229 0.37943 0.26144 0.0
H674 H 0.32783 0.38297 0.1598 0.0
H675 H 0.35612 0.38835 0.08063 0.0
H676 H 0.44095 0.38852 0.11612 0.0
H677 H 0.43607 0.38306 0.21786 0.0
C678 C 0.39032 0.38003 0.26709 0.0
C679 C 0.365 0.37895 0.28715 0.0
C680 C 0.39326 0.38244 0.20848 0.0
C681 C 0.34266 0.37979 0.24749 0.0
C682 C 0.34544 0.38205 0.1892 0.0
C683 C 0.37356 0.38682 0.11057 0.0
C684 C 0.39886 0.38903 0.09057 0.0
C685 C 0.37063 0.38362 0.16918 0.0
C686 C 0.42121 0.38735 0.1302 0.0
C687 C 0.41846 0.38407 0.18847 0.0
H688 H 0.87307 0.10112 0.46561 0.0
H689 H 0.87142 0.18713 0.49758 0.0
H690 H 0.86708 0.2005 0.3957 0.0
H691 H 0.86598 0.18795 0.29794 0.0
H692 H 0.86752 0.10201 0.26533 0.0
H693 H 0.87053 0.08847 0.36726 0.0
C694 C 0.87181 0.12279 0.45024 0.0
C695 C 0.87257 0.14308 0.48913 0.0
C696 C 0.86966 0.13036 0.39161 0.0
C697 C 0.87052 0.17107 0.46858 0.0
C698 C 0.86827 0.17875 0.41033 0.0
C699 C 0.8666 0.16623 0.31301 0.0
C700 C 0.86656 0.14604 0.27399 0.0
C701 C 0.86806 0.15859 0.37153 0.0
C702 C 0.8679 0.118 0.29443 0.0
C703 C 0.86943 0.11023 0.35269 0.0
H704 H 0.15673 0.42532 0.29256 0.0
H705 H 0.12965 0.34129 0.31982 0.0
H706 H 0.12524 0.34749 0.41941 0.0
H707 H 0.12856 0.37677 0.49903 0.0
H708 H 0.15538 0.46088 0.47229 0.0
H709 H 0.15991 0.45476 0.37249 0.0
C710 C 0.14963 0.40844 0.32013 0.0
C711 C 0.14369 0.38281 0.29845 0.0
C712 C 0.14702 0.41215 0.37767 0.0
C713 C 0.13479 0.36111 0.33526 0.0
C714 C 0.13212 0.36466 0.39231 0.0
C715 C 0.13569 0.39369 0.47159 0.0
C716 C 0.14163 0.41925 0.49345 0.0
C717 C 0.13827 0.39004 0.41409 0.0
C718 C 0.15039 0.44106 0.45671 0.0
C719 C 0.15309 0.43755 0.39956 0.0
H720 H 0.8426 0.88618 0.75267 0.0
H721 H 0.92426 0.89754 0.81299 0.0
H722 H 0.93619 0.90444 0.71526 0.0
H723 H 0.92352 0.90691 0.61261 0.0
H724 H 0.84178 0.8958 0.55248 0.0
H725 H 0.83 0.88827 0.65014 0.0
C726 C 0.86306 0.88987 0.74451 0.0
C727 C 0.88247 0.89136 0.79029 0.0
C728 C 0.86983 0.89365 0.68817 0.0
C729 C 0.90883 0.89665 0.77871 0.0
C730 C 0.91571 0.90042 0.72278 0.0
C731 C 0.90309 0.90303 0.62081 0.0
C732 C 0.8836 0.90191 0.57504 0.0
C733 C 0.89637 0.89902 0.67718 0.0
C734 C 0.85729 0.8964 0.58668 0.0
C735 C 0.85048 0.89229 0.6426 0.0
H736 H 0.40496 0.67975 0.81309 0.0
H737 H 0.3652 0.603 0.78344 0.0
H738 H 0.36864 0.58957 0.88534 0.0
H739 H 0.38075 0.60066 0.98286 0.0
H740 H 0.4205 0.67735 1.01322 0.0
H741 H 0.41873 0.69003 0.911 0.0
C742 C 0.39699 0.66013 0.82897 0.0
C743 C 0.38478 0.64245 0.79067 0.0
C744 C 0.39883 0.65262 0.8877 0.0
C745 C 0.37493 0.61688 0.81188 0.0
C746 C 0.37674 0.60926 0.87019 0.0
C747 C 0.38947 0.61994 0.96721 0.0
C748 C 0.40074 0.63801 1.00579 0.0
C749 C 0.38844 0.62706 0.90848 0.0
C750 C 0.41143 0.66318 0.98457 0.0
C751 C 0.41052 0.6704 0.92611 0.0
H752 H 0.59931 0.1042 0.06857 0.0
H753 H 0.6688 0.15185 0.03267 0.0
H754 H 0.67308 0.16546 0.12965 0.0
H755 H 0.65766 0.1632 0.22536 0.0
H756 H 0.58817 0.11555 0.26131 0.0
H757 H 0.58381 0.10205 0.16424 0.0
C758 C 0.61554 0.11737 0.08202 0.0
C759 C 0.63368 0.12696 0.04303 0.0
C760 C 0.61802 0.125 0.13812 0.0
C761 C 0.65432 0.14441 0.06127 0.0
C762 C 0.65689 0.15208 0.11694 0.0
C763 C 0.64138 0.15009 0.21189 0.0
C764 C 0.62329 0.14044 0.25092 0.0
C765 C 0.63887 0.14251 0.15575 0.0
C766 C 0.60261 0.12304 0.23266 0.0
C767 C 0.6 0.11542 0.17694 0.0
H768 H 0.87699 0.43462 0.2737 0.0
H769 H 0.89332 0.34755 0.3101 0.0
H770 H 0.89924 0.35338 0.41146 0.0
H771 H 0.89925 0.38302 0.49038 0.0
H772 H 0.88251 0.47003 0.45405 0.0
H773 H 0.87802 0.46447 0.35256 0.0
C774 C 0.88216 0.41697 0.3037 0.0
C775 C 0.8845 0.39064 0.28397 0.0
C776 C 0.88559 0.42045 0.36223 0.0
C777 C 0.89092 0.36799 0.32385 0.0
C778 C 0.89446 0.37131 0.38196 0.0
C779 C 0.8945 0.40076 0.46034 0.0
C780 C 0.89132 0.42692 0.48027 0.0
C781 C 0.89163 0.3974 0.40175 0.0
C782 C 0.88552 0.4497 0.4403 0.0
C783 C 0.88273 0.44652 0.38206 0.0
H784 H 0.3248 0.131 0.21953 0.0
H785 H 0.40755 0.12605 0.27925 0.0
H786 H 0.4188 0.11768 0.18436 0.0
H787 H 0.40543 0.11316 0.08377 0.0
H788 H 0.32275 0.11808 1.02353 0.0
H789 H 0.31134 0.12584 0.1188 0.0
C790 C 0.34532 0.12826 0.21176 0.0
C791 C 0.36526 0.12913 0.25675 0.0
C792 C 0.35172 0.12369 0.15679 0.0
C793 C 0.39171 0.1251 0.24585 0.0
C794 C 0.39821 0.12051 0.1914 0.0
C795 C 0.38486 0.11559 0.0915 0.0
C796 C 0.36501 0.11504 0.04628 0.0
C797 C 0.3784 0.11985 0.14652 0.0
C798 C 0.33851 0.11877 0.05718 0.0
C799 C 0.33194 0.12304 0.11181 0.0
H800 H 0.62571 0.59923 0.95546 0.0
H801 H 0.64275 0.68343 0.99052 0.0
H802 H 0.65046 0.69519 0.89113 0.0
H803 H 0.65183 0.68172 0.79393 0.0
H804 H 0.63493 0.59742 0.75928 0.0
H805 H 0.62692 0.58582 0.85842 0.0
C806 C 0.63085 0.62024 0.94131 0.0
C807 C 0.63362 0.6404 0.98057 0.0
C808 C 0.63507 0.62692 0.884 0.0
C809 C 0.64078 0.66739 0.96151 0.0
C810 C 0.64503 0.67419 0.90455 0.0
C811 C 0.64658 0.66075 0.80811 0.0
C812 C 0.64395 0.64052 0.76898 0.0
C813 C 0.64225 0.65412 0.86542 0.0
C814 C 0.63673 0.61354 0.78811 0.0
C815 C 0.63233 0.60682 0.84496 0.0
H816 H 0.13695 0.93661 0.59188 0.0
H817 H 0.13758 0.85037 0.56144 0.0
H818 H 0.14317 0.83746 0.66344 0.0
H819 H 0.14624 0.85048 0.76115 0.0
H820 H 0.14584 0.93666 0.79217 0.0
H821 H 0.141 0.94971 0.69004 0.0
C822 C 0.13821 0.91499 0.60759 0.0
C823 C 0.13687 0.89451 0.56901 0.0
C824 C 0.14116 0.90767 0.66637 0.0
C825 C 0.13892 0.86659 0.59009 0.0
C826 C 0.1419 0.85916 0.64845 0.0
C827 C 0.14543 0.87215 0.74566 0.0
C828 C 0.14639 0.89254 0.78441 0.0
C829 C 0.14291 0.87951 0.68695 0.0
C830 C 0.14479 0.9205 0.7634 0.0
C831 C 0.1422 0.928 0.70498 0.0
H832 H 0.8617 0.67072 0.73364 0.0
H833 H 0.87837 0.58691 0.80279 0.0
H834 H 0.88544 0.57382 0.70816 0.0
H835 H 0.88653 0.58607 0.60531 0.0
H836 H 0.8695 0.6699 0.53684 0.0
H837 H 0.86214 0.68276 0.63128 0.0
C838 C 0.86656 0.64949 0.72807 0.0
C839 C 0.86948 0.62988 0.77559 0.0
C840 C 0.87035 0.64201 0.67343 0.0
C841 C 0.87633 0.60259 0.76733 0.0
C842 C 0.88021 0.59501 0.71307 0.0
C843 C 0.88135 0.60719 0.61107 0.0
C844 C 0.87851 0.62693 0.56374 0.0
C845 C 0.87732 0.61456 0.66578 0.0
C846 C 0.87143 0.65413 0.57212 0.0
C847 C 0.86741 0.66158 0.62628 0.0
H848 H 0.11627 0.16358 0.46055 0.0
H849 H 0.15684 0.08512 0.48598 0.0
H850 H 0.16578 0.08853 0.38624 0.0
H851 H 0.16202 0.11363 0.2915 0.0
H852 H 0.12147 0.19207 0.26546 0.0
H853 H 0.11294 0.18902 0.36561 0.0
C854 C 0.12729 0.14738 0.44436 0.0
C855 C 0.13574 0.12407 0.48074 0.0
C856 C 0.13237 0.14944 0.38675 0.0
C857 C 0.14976 0.10311 0.45883 0.0
C858 C 0.15498 0.10508 0.40179 0.0
C859 C 0.1511 0.12995 0.30761 0.0
C860 C 0.14236 0.15301 0.27089 0.0
C861 C 0.14623 0.12805 0.36525 0.0
C862 C 0.12865 0.1742 0.29282 0.0
C863 C 0.12367 0.17242 0.35009 0.0
H864 H 0.63439 0.3492 0.26438 0.0
H865 H 0.62579 0.43541 0.29 0.0
H866 H 0.61742 0.44652 0.18774 0.0
H867 H 0.6139 0.43204 0.09075 0.0
H868 H 0.62279 0.34589 0.06501 0.0
H869 H 0.63042 0.33465 0.16742 0.0
C870 C 0.63087 0.37046 0.24763 0.0
C871 C 0.63073 0.39141 0.28506 0.0
C872 C 0.62635 0.37678 0.18864 0.0
C873 C 0.62567 0.41878 0.26244 0.0
C874 C 0.62107 0.4252 0.20385 0.0
C875 C 0.61721 0.41075 0.10752 0.0
C876 C 0.61779 0.38987 0.07004 0.0
C877 C 0.62146 0.40439 0.16653 0.0
C878 C 0.62258 0.36246 0.09267 0.0
C879 C 0.62678 0.35597 0.15131 0.0
H880 H 0.40413 0.87947 0.98014 0.0
H881 H 0.36948 0.96027 0.93718 0.0
H882 H 0.36847 0.95347 0.83642 0.0
H883 H 0.37584 0.92395 0.75997 0.0
H884 H 0.41048 0.84313 0.8029 0.0
H885 H 0.41254 0.85042 0.90357 0.0
C886 C 0.39622 0.89556 0.94881 0.0
C887 C 0.38696 0.92039 0.96669 0.0
C888 C 0.3955 0.89145 0.89058 0.0
C889 C 0.37713 0.9411 0.92505 0.0
C890 C 0.37637 0.93716 0.86721 0.0
C891 C 0.38416 0.90805 0.79121 0.0
C892 C 0.3928 0.88293 0.77342 0.0
C893 C 0.38539 0.91238 0.8494 0.0
C894 C 0.40323 0.86249 0.81501 0.0
C895 C 0.40456 0.86668 0.87278 0.0
H896 H 0.16719 0.71367 0.26375 0.0
H897 H 0.08719 0.70475 0.19075 0.0
H898 H 0.07846 0.75343 0.19875 0.0
H899 H 0.09601 0.79976 0.2092 0.0
H900 H 0.17595 0.81027 0.28021 0.0
H901 H 0.18235 0.75994 0.29121 0.0
C902 C 0.14764 0.72229 0.25174 0.0
C903 C 0.12784 0.70587 0.2265 0.0
C904 C 0.14294 0.75068 0.25515 0.0
C905 C 0.10266 0.71717 0.2102 0.0
C906 C 0.09771 0.74502 0.2144 0.0
C907 C 0.11451 0.7909 0.22884 0.0
C908 C 0.13548 0.80841 0.2438 0.0
C909 C 0.11804 0.76219 0.23419 0.0
C910 C 0.15947 0.79698 0.26896 0.0
C911 C 0.16318 0.76825 0.27466 0.0
H912 H 0.5547 0.91996 0.34147 0.0
H913 H 0.56687 0.86969 0.50056 0.0
H914 H 0.51877 0.86738 0.50656 0.0
H915 H 0.47288 0.87927 0.46449 0.0
H916 H 0.4629 0.92781 0.30278 0.0
H917 H 0.51053 0.93137 0.30036 0.0
C918 C 0.54701 0.90859 0.37787 0.0
C919 C 0.56446 0.89516 0.42069 0.0
C920 C 0.5196 0.90707 0.38052 0.0
C921 C 0.55391 0.88023 0.46696 0.0
C922 C 0.5264 0.87896 0.47041 0.0
C923 C 0.48125 0.89075 0.42908 0.0
C924 C 0.46435 0.90323 0.38381 0.0
C925 C 0.50899 0.89226 0.42724 0.0
C926 C 0.47542 0.91783 0.3379 0.0
C927 C 0.50269 0.91993 0.33646 0.0
H928 H 0.4046 0.30688 0.65079 0.0
H929 H 0.3545 0.30779 0.78818 0.0
H930 H 0.35162 0.25714 0.79389 0.0
H931 H 0.3601 0.21282 0.7524 0.0
H932 H 0.41037 0.21406 0.6144 0.0
H933 H 0.41662 0.26346 0.61683 0.0
C934 C 0.39318 0.296 0.68233 0.0
C935 C 0.37946 0.31098 0.71838 0.0
C936 C 0.39158 0.26718 0.68509 0.0
C937 C 0.36519 0.29662 0.7598 0.0
C938 C 0.36346 0.2677 0.76287 0.0
C939 C 0.37276 0.22391 0.72371 0.0
C940 C 0.38438 0.20986 0.68265 0.0
C941 C 0.3761 0.25274 0.72475 0.0
C942 C 0.40079 0.22446 0.64571 0.0
C943 C 0.40443 0.25274 0.64702 0.0
H944 H 0.96689 0.16587 0.83838 0.0
H945 H 0.96172 0.13206 1.01125 0.0
H946 H 0.01023 0.12845 1.02464 0.0
H947 H 0.05424 0.1318 0.98364 0.0
H948 H 0.05703 0.16385 0.80904 0.0
H949 H 0.00936 0.17135 0.79993 0.0
C950 C 0.97621 0.15777 0.87928 0.0
C951 C 0.96055 0.14897 0.92357 0.0
C952 C 1.00382 0.15541 0.88621 0.0
C953 C 0.97324 0.13895 0.97635 0.0
C954 C 1.00099 0.13679 0.98391 0.0
C955 C 0.0443 0.14081 0.9441 0.0
C956 C 0.05899 0.14738 0.89698 0.0
C957 C 0.01652 0.14452 0.93874 0.0
C958 C 0.04603 0.15871 0.84569 0.0
C959 C 0.0188 0.16293 0.84045 0.0
H960 H 0.10437 0.31328 0.81926 0.0
H961 H 0.18878 0.32371 0.84293 0.0
H962 H 0.19539 0.27467 0.83147 0.0
H963 H 0.1768 0.22796 0.82758 0.0
H964 H 0.0924 0.21738 0.80127 0.0
H965 H 0.08601 0.26739 0.79941 0.0
C966 C 0.12416 0.30482 0.82026 0.0
C967 C 0.14611 0.32178 0.83177 0.0
C968 C 0.12774 0.27664 0.81354 0.0
C969 C 0.1717 0.31087 0.83359 0.0
C970 C 0.17544 0.28287 0.82742 0.0
C971 C 0.15706 0.23672 0.82008 0.0
C972 C 0.13508 0.21908 0.81508 0.0
C973 C 0.15358 0.2654 0.81922 0.0
C974 C 0.10962 0.23059 0.80494 0.0
C975 C 0.10595 0.25915 0.80444 0.0
H976 H 0.05025 0.93095 0.13314 0.0
H977 H 0.05182 0.84636 0.09341 0.0
H978 H 1.00323 0.84482 0.08653 0.0
H979 H 0.96069 0.86602 0.10586 0.0
H980 H 0.96075 0.95052 0.1487 0.0
H981 H 1.00799 0.95382 0.13945 0.0
C982 C 0.03982 0.9125 0.12116 0.0
C983 C 0.0543 0.88893 0.11314 0.0
C984 C 0.01212 0.91167 0.1187 0.0
C985 C 0.04086 0.86489 0.09874 0.0
C986 C 0.01313 0.86395 0.09545 0.0
C987 C 0.971 0.88529 0.11181 0.0
C988 C 0.95729 0.90783 0.12892 0.0
C989 C 0.99855 0.88696 0.10736 0.0
C990 C 0.97091 0.93269 0.13654 0.0
C991 C 0.99796 0.93465 0.13122 0.0
H992 H 0.35155 0.72953 0.28809 0.0
H993 H 0.43376 0.718 0.34676 0.0
H994 H 0.44047 0.76787 0.34049 0.0
H995 H 0.42093 0.81404 0.33685 0.0
H996 H 0.33883 0.82662 0.27862 0.0
H997 H 0.33394 0.77725 0.26563 0.0
C998 C 0.37112 0.73805 0.2968 0.0
C999 C 0.39221 0.72033 0.31751 0.0
C1000 C 0.37463 0.76691 0.2947 0.0
C1001 C 0.41739 0.73142 0.33013 0.0
C1002 C 0.42114 0.7599 0.32728 0.0
C1003 C 0.40218 0.806 0.31988 0.0
C1004 C 0.38019 0.82361 0.30936 0.0
C1005 C 0.39961 0.77776 0.31256 0.0
C1006 C 0.356 0.81327 0.28696 0.0
C1007 C 0.35319 0.78505 0.27986 0.0
H1008 H 0.5385 0.14963 0.5555 0.0
H1009 H 0.55193 0.08611 0.69427 0.0
H1010 H 0.50484 0.08095 0.69986 0.0
H1011 H 0.45985 0.09632 0.67128 0.0
H1012 H 0.44419 0.15822 0.53139 0.0
H1013 H 0.49184 0.16183 0.5197 0.0
C1014 C 0.53107 0.13451 0.58651 0.0
C1015 C 0.54899 0.11853 0.62469 0.0
C1016 C 0.50349 0.13131 0.58946 0.0
C1017 C 0.53889 0.09883 0.66429 0.0
C1018 C 0.51181 0.09581 0.66776 0.0
C1019 C 0.46685 0.11039 0.63776 0.0
C1020 C 0.44869 0.12715 0.60261 0.0
C1021 C 0.494 0.11223 0.6314 0.0
C1022 C 0.45789 0.14503 0.55886 0.0
C1023 C 0.48513 0.14722 0.55252 0.0
H1024 H 0.9187 0.23676 0.84551 0.0
H1025 H 0.84036 0.22886 0.76364 0.0
H1026 H 0.83544 0.27941 0.75299 0.0
H1027 H 0.8509 0.32517 0.78356 0.0
H1028 H 0.92856 0.33095 0.87086 0.0
H1029 H 0.93656 0.28218 0.86218 0.0
C1030 C 0.90089 0.24621 0.82362 0.0
C1031 C 0.87991 0.22932 0.80545 0.0
C1032 C 0.89801 0.27497 0.81951 0.0
C1033 C 0.85687 0.24158 0.77735 0.0
C1034 C 0.85397 0.27045 0.77202 0.0
C1035 C 0.86979 0.31579 0.79899 0.0
C1036 C 0.88911 0.33141 0.82811 0.0
C1037 C 0.87398 0.28731 0.79531 0.0
C1038 C 0.91342 0.31916 0.84862 0.0
C1039 C 0.91798 0.29129 0.8438 0.0
H1040 H 0.6094 0.81493 0.31185 0.0
H1041 H 0.6931 0.82061 0.35939 0.0
H1042 H 0.69893 0.77223 0.34423 0.0
H1043 H 0.6796 0.72709 0.33204 0.0
H1044 H 0.59581 0.71923 0.28971 0.0
H1045 H 0.59065 0.76957 0.28676 0.0
C1046 C 0.62893 0.80563 0.31748 0.0
C1047 C 0.65075 0.82112 0.33749 0.0
C1048 C 0.63207 0.77735 0.3101 0.0
C1049 C 0.67597 0.80892 0.34485 0.0
C1050 C 0.67934 0.78127 0.33618 0.0
C1051 C 0.66027 0.73646 0.32095 0.0
C1052 C 0.63809 0.71955 0.31181 0.0
C1053 C 0.65742 0.76508 0.32107 0.0
C1054 C 0.61321 0.73189 0.29678 0.0
C1055 C 0.61023 0.76064 0.29572 0.0
H1056 H 0.91197 0.72125 0.2492 0.0
H1057 H 0.83127 0.71566 0.17829 0.0
H1058 H 0.82502 0.76511 0.18441 0.0
H1059 H 0.84377 0.81033 0.19982 0.0
H1060 H 0.92493 0.81748 0.26722 0.0
H1061 H 0.9297 0.76704 0.27389 0.0
C1062 C 0.89292 0.73091 0.23645 0.0
C1063 C 0.87199 0.71508 0.21364 0.0
C1064 C 0.88967 0.75957 0.23906 0.0
C1065 C 0.84749 0.72761 0.1963 0.0
C1066 C 0.84398 0.75584 0.19957 0.0
C1067 C 0.86246 0.8009 0.21668 0.0
C1068 C 0.88407 0.81768 0.23231 0.0
C1069 C 0.86512 0.77211 0.21933 0.0
C1070 C 0.90799 0.80505 0.25486 0.0
C1071 C 0.91076 0.77621 0.25828 0.0
H1072 H 0.66111 0.2155 0.72399 0.0
H1073 H 0.57641 0.20758 0.7056 0.0
H1074 H 0.57149 0.2563 0.72334 0.0
H1075 H 0.59193 0.30282 0.72829 0.0
H1076 H 0.67693 0.30945 0.74554 0.0
H1077 H 0.68122 0.25954 0.7459 0.0
C1078 C 0.64161 0.22437 0.72532 0.0
C1079 C 0.61915 0.20838 0.71309 0.0
C1080 C 0.63906 0.25218 0.73526 0.0
C1081 C 0.59393 0.21972 0.7151 0.0
C1082 C 0.59116 0.24757 0.72488 0.0
C1083 C 0.61128 0.29313 0.73431 0.0
C1084 C 0.63411 0.30967 0.73644 0.0
C1085 C 0.61363 0.26429 0.73295 0.0
C1086 C 0.65913 0.29703 0.7435 0.0
C1087 C 0.66161 0.26854 0.7433 0.0
H1088 H 0.96603 0.38115 0.85005 0.0
H1089 H 0.96346 0.42182 1.00373 0.0
H1090 H 0.01201 0.42039 1.01817 0.0
H1091 H 0.05553 0.41059 0.98194 0.0
H1092 H 0.05593 0.36996 0.82719 0.0
H1093 H 1.00805 0.3683 0.81869 0.0
C1094 C 0.97603 0.38966 0.8869 0.0
C1095 C 0.9612 0.40195 0.92526 0.0
C1096 C 1.00368 0.38886 0.89463 0.0
C1097 C 0.97446 0.41232 0.97342 0.0
C1098 C 1.00222 0.4116 0.98153 0.0
C1099 C 0.04508 0.40107 0.94691 0.0
C1100 C 0.0594 0.39079 0.90486 0.0
C1101 C 0.01712 0.40035 0.94174 0.0
C1102 C 0.04553 0.37847 0.85971 0.0
C1103 C 0.01806 0.37743 0.85473 0.0
H1104 H 0.46711 0.65306 0.33591 0.0
H1105 H 0.46553 0.63446 0.51669 0.0
H1106 H 0.51409 0.63471 0.52786 0.0
H1107 H 0.55738 0.63747 0.48431 0.0
H1108 H 0.55687 0.65432 0.30279 0.0
H1109 H 0.50883 0.6578 0.29397 0.0
C1110 C 0.47723 0.64909 0.37798 0.0
C1111 C 0.46257 0.64346 0.4253 0.0
C1112 C 0.50493 0.64905 0.38391 0.0
C1113 C 0.47626 0.63872 0.47941 0.0
C1114 C 0.50406 0.63886 0.4858 0.0
C1115 C 0.54663 0.64236 0.44318 0.0
C1116 C 0.56052 0.64572 0.39419 0.0
C1117 C 0.51867 0.64367 0.43818 0.0
C1118 C 0.5465 0.65166 0.34095 0.0
C1119 C 0.51905 0.65357 0.33585 0.0
H1120 H 0.46267 0.35363 0.65469 0.0
H1121 H 0.44871 0.43867 0.5925 0.0
H1122 H 0.49555 0.44432 0.57631 0.0
H1123 H 0.54132 0.42643 0.59178 0.0
H1124 H 0.55496 0.3406 0.64775 0.0
H1125 H 0.50737 0.33354 0.6533 0.0
C1126 C 0.46989 0.37317 0.63642 0.0
C1127 C 0.45253 0.3958 0.62518 0.0
C1128 C 0.49673 0.37606 0.62626 0.0
C1129 C 0.46184 0.42101 0.60123 0.0
C1130 C 0.4886 0.42426 0.59229 0.0
C1131 C 0.5337 0.40601 0.60344 0.0
C1132 C 0.55147 0.38404 0.61933 0.0
C1133 C 0.50635 0.40214 0.60619 0.0
C1134 C 0.54155 0.35769 0.63464 0.0
C1135 C 0.5144 0.35376 0.63847 0.0
H1136 H 0.04559 0.62312 0.07454 0.0
H1137 H 0.06165 0.65612 0.23725 0.0
H1138 H 0.01478 0.66211 0.24452 0.0
H1139 H 0.96931 0.65566 0.20888 0.0
H1140 H 0.95104 0.62216 0.04774 0.0
H1141 H 0.99846 0.61906 0.0354 0.0
C1142 C 0.03875 0.63183 0.11121 0.0
C1143 C 0.05721 0.63872 0.15565 0.0
C1144 C 0.01134 0.63507 0.11565 0.0
C1145 C 0.048 0.6501 0.20285 0.0
C1146 C 0.02112 0.65366 0.20709 0.0
C1147 C 0.97557 0.64775 0.17081 0.0
C1148 C 0.9566 0.63889 0.12963 0.0
C1149 C 1.00264 0.64576 0.16441 0.0
C1150 C 0.96521 0.62911 0.08023 0.0
C1151 C 0.99235 0.62722 0.07329 0.0
H1152 H 0.12846 0.57069 1.00738 0.0
H1153 H 0.13906 0.52673 0.17369 0.0
H1154 H 0.13987 0.48283 0.13038 0.0
H1155 H 0.1398 0.45735 0.04532 0.0
H1156 H 0.12754 0.50103 0.87893 0.0
H1157 H 0.1252 0.54486 0.92226 0.0
C1158 C 0.13095 0.55151 0.03419 0.0
C1159 C 0.13407 0.55202 0.09375 0.0
C1160 C 0.13121 0.52641 1.00895 0.0
C1161 C 0.13664 0.52693 0.12786 0.0
C1162 C 0.13723 0.50185 0.10306 0.0
C1163 C 0.13658 0.47645 1.01844 0.0
C1164 C 0.13421 0.47598 0.95885 0.0
C1165 C 0.13491 0.50141 0.04368 0.0
C1166 C 0.1295 0.50084 0.92478 0.0
C1167 C 0.12823 0.52588 0.94958 0.0
H1168 H 0.70909 0.904 0.25387 0.0
H1169 H 0.74205 0.89961 0.42844 0.0
H1170 H 0.78667 0.89897 0.39699 0.0
H1171 H 0.81616 0.8992 0.32026 0.0
H1172 H 0.78314 0.90394 0.14571 0.0
H1173 H 0.73855 0.90487 0.17716 0.0
C1174 C 0.72597 0.90291 0.28528 0.0
C1175 C 0.72209 0.90179 0.34365 0.0
C1176 C 0.75154 0.90256 0.26689 0.0
C1177 C 0.74434 0.90052 0.38337 0.0
C1178 C 0.76989 0.90011 0.36537 0.0
C1179 C 0.79926 0.9004 0.28888 0.0
C1180 C 0.80311 0.9014 0.2305 0.0
C1181 C 0.7737 0.90103 0.30727 0.0
C1182 C 0.78086 0.90313 0.19077 0.0
C1183 C 0.75534 0.90365 0.20878 0.0
H1184 H 0.37034 0.46377 0.54234 0.0
H1185 H 0.39033 0.4978 0.70215 0.0
H1186 H 0.39311 0.54416 0.65269 0.0
H1187 H 0.3888 0.57494 0.56371 0.0
H1188 H 0.37264 0.53983 0.40358 0.0
H1189 H 0.3696 0.49379 0.4533 0.0
C1190 C 0.37522 0.48139 0.56628 0.0
C1191 C 0.37965 0.47761 0.62579 0.0
C1192 C 0.37755 0.50765 0.53743 0.0
C1193 C 0.38667 0.50037 0.65635 0.0
C1194 C 0.38823 0.5268 0.62807 0.0
C1195 C 0.38468 0.55716 0.53977 0.0
C1196 C 0.38069 0.56076 0.48007 0.0
C1197 C 0.38355 0.53069 0.56862 0.0
C1198 C 0.37582 0.53755 0.44948 0.0
C1199 C 0.37397 0.51127 0.47791 0.0
H1200 H 0.80558 0.13744 0.73675 0.0
H1201 H 0.78416 0.16842 0.89155 0.0
H1202 H 0.7375 0.16872 0.8555 0.0
H1203 H 0.70266 0.15854 0.78152 0.0
H1204 H 0.7242 0.12914 0.62531 0.0
H1205 H 0.77095 0.1301 0.66025 0.0
C1206 C 0.79071 0.14427 0.76266 0.0
C1207 C 0.79837 0.15261 0.81714 0.0
C1208 C 0.76394 0.1447 0.74135 0.0
C1209 C 0.77886 0.16186 0.8496 0.0
C1210 C 0.75215 0.16198 0.82903 0.0
C1211 C 0.71757 0.15243 0.75495 0.0
C1212 C 0.70985 0.14354 0.70095 0.0
C1213 C 0.74444 0.1532 0.7752 0.0
C1214 C 0.72951 0.13607 0.66693 0.0
C1215 C 0.75627 0.13651 0.68702 0.0
H1216 H 0.87822 0.57867 1.01626 0.0
H1217 H 0.89054 0.53156 0.17895 0.0
H1218 H 0.89335 0.48894 0.13139 0.0
H1219 H 0.89031 0.46514 0.04358 0.0
H1220 H 0.8807 0.51263 0.88088 0.0
H1221 H 0.87916 0.55532 0.92843 0.0
C1222 C 0.88156 0.55905 0.04131 0.0
C1223 C 0.88375 0.55812 0.10107 0.0
C1224 C 0.88369 0.53486 1.01365 0.0
C1225 C 0.88866 0.53272 0.13299 0.0
C1226 C 0.89022 0.50841 0.10578 0.0
C1227 C 0.88799 0.48485 1.01851 0.0
C1228 C 0.88529 0.48573 0.95874 0.0
C1229 C 0.88746 0.50923 0.04617 0.0
C1230 C 0.88281 0.51143 0.92684 0.0
C1231 C 0.88179 0.53579 0.95405 0.0
H1232 H 0.20271 0.1524 0.73414 0.0
H1233 H 0.23333 0.11402 0.89743 0.0
H1234 H 0.27686 0.10982 0.86207 0.0
H1235 H 0.30592 0.116 0.7843 0.0
H1236 H 0.2759 0.15586 0.62201 0.0
H1237 H 0.23239 0.16053 0.65757 0.0
C1238 C 0.21888 0.14313 0.76215 0.0
C1239 C 0.2146 0.13336 0.81843 0.0
C1240 C 0.24394 0.14096 0.74161 0.0
C1241 C 0.23596 0.12172 0.85407 0.0
C1242 C 0.26087 0.11923 0.83377 0.0
C1243 C 0.28985 0.12564 0.75652 0.0
C1244 C 0.29413 0.13529 0.7002 0.0
C1245 C 0.26502 0.12857 0.77752 0.0
C1246 C 0.27318 0.1482 0.66536 0.0
C1247 C 0.24828 0.15083 0.6857 0.0
H1248 H 0.63541 0.57073 0.53729 0.0
H1249 H 0.63496 0.53566 0.37613 0.0
H1250 H 0.63254 0.48923 0.42454 0.0
H1251 H 0.63055 0.45882 0.5124 0.0
H1252 H 0.6317 0.49416 0.67342 0.0
H1253 H 0.63383 0.54048 0.62484 0.0
C1254 C 0.63474 0.55301 0.51245 0.0
C1255 C 0.63529 0.55678 0.4529 0.0
C1256 C 0.63346 0.52646 0.54054 0.0
C1257 C 0.63458 0.53343 0.42186 0.0
C1258 C 0.63316 0.50688 0.44956 0.0
C1259 C 0.63118 0.47662 0.53704 0.0
C1260 C 0.63085 0.47294 0.59667 0.0
C1261 C 0.63257 0.50318 0.50886 0.0
C1262 C 0.6319 0.49631 0.62765 0.0
C1263 C 0.63312 0.52282 0.59985 0.0
H1264 H 0.30337 0.86259 0.31339 0.0
H1265 H 0.29432 0.94217 0.37645 0.0
H1266 H 0.24825 0.94448 0.33644 0.0
H1267 H 0.21158 0.92534 0.27868 0.0
H1268 H 0.22103 0.84719 0.20924 0.0
H1269 H 0.26595 0.84298 0.25579 0.0
C1270 C 0.29102 0.88007 0.31934 0.0
C1271 C 0.30189 0.90197 0.34863 0.0
C1272 C 0.26486 0.88177 0.29406 0.0
C1273 C 0.28612 0.92496 0.35468 0.0
C1274 C 0.2599 0.92637 0.33145 0.0
C1275 C 0.22339 0.90732 0.27372 0.0
C1276 C 0.21292 0.88668 0.24024 0.0
C1277 C 0.24922 0.90516 0.30014 0.0
C1278 C 0.22863 0.86353 0.2343 0.0
C1279 C 0.25429 0.86102 0.2612 0.0
H1280 H 0.64948 0.96112 0.5413 0.0
H1281 H 0.63788 1.00226 0.37222 0.0
H1282 H 0.63583 0.0469 0.41257 0.0
H1283 H 0.63558 0.07366 0.4958 0.0
H1284 H 0.64728 0.03215 0.66459 0.0
H1285 H 0.65113 0.98794 0.62398 0.0
C1286 C 0.64649 0.9798 0.51298 0.0
C1287 C 0.64355 0.97826 0.4536 0.0
C1288 C 0.64532 1.00523 0.53645 0.0
C1289 C 0.64015 1.0028 0.4179 0.0
C1290 C 0.63891 0.02829 0.44103 0.0
C1291 C 0.639 0.05499 0.52391 0.0
C1292 C 0.64089 0.05626 0.5834 0.0
C1293 C 0.64117 0.02967 0.50024 0.0
C1294 C 0.64569 0.03183 0.61885 0.0
C1295 C 0.64783 1.00654 0.5956 0.0
H1296 H 0.20693 0.40256 0.76608 0.0
H1297 H 0.23875 0.38818 0.94047 0.0
H1298 H 0.28366 0.38634 0.90972 0.0
H1299 H 0.31386 0.38986 0.83259 0.0
H1300 H 0.2809 0.40072 0.65829 0.0
H1301 H 0.23642 0.40285 0.68957 0.0
C1302 C 0.22372 0.3991 0.79741 0.0
C1303 C 0.21963 0.39594 0.85553 0.0
C1304 C 0.24924 0.39742 0.77932 0.0
C1305 C 0.24145 0.39079 0.89555 0.0
C1306 C 0.26709 0.3898 0.87793 0.0
C1307 C 0.29691 0.39268 0.80154 0.0
C1308 C 0.3007 0.39537 0.74313 0.0
C1309 C 0.27124 0.39327 0.81988 0.0
C1310 C 0.27853 0.39856 0.70339 0.0
C1311 C 0.25309 0.39987 0.72126 0.0
H1312 H 0.89174 0.9706 1.0234 0.0
H1313 H 0.86518 1.00217 0.17335 0.0
H1314 H 0.86307 0.04883 0.12508 0.0
H1315 H 0.868 0.08039 0.03973 0.0
H1316 H 0.8956 0.0487 0.89087 0.0
H1317 H 0.89803 1.00222 0.93953 0.0
C1318 C 0.88546 0.98763 0.04572 0.0
C1319 C 0.87845 0.98278 0.10196 0.0
C1320 C 0.88442 1.01436 1.01783 0.0
C1321 C 0.87067 1.00525 0.13016 0.0
C1322 C 0.8694 0.03193 0.10249 0.0
C1323 C 0.87448 0.06333 1.01776 0.0
C1324 C 0.88141 0.06805 0.96141 0.0
C1325 C 0.87607 0.03668 0.04621 0.0
C1326 C 0.89013 0.04571 0.93409 0.0
C1327 C 0.89149 0.01911 0.9619 0.0
H1328 H 0.21615 0.67158 0.23544 0.0
H1329 H 0.22669 0.58969 0.18435 0.0
H1330 H 0.27037 0.58659 0.23635 0.0
H1331 H 0.30446 0.60584 0.29997 0.0
H1332 H 0.2943 0.68692 0.35589 0.0
H1333 H 0.25151 0.69152 0.29927 0.0
C1334 C 0.22835 0.65338 0.2348 0.0
C1335 C 0.21846 0.63103 0.20535 0.0
C1336 C 0.25323 0.65135 0.26666 0.0
C1337 C 0.23406 0.60722 0.20617 0.0
C1338 C 0.25893 0.60536 0.23624 0.0
C1339 C 0.29295 0.62457 0.30006 0.0
C1340 C 0.30262 0.64593 0.33262 0.0
C1341 C 0.26851 0.62706 0.26744 0.0
C1342 C 0.28731 0.67003 0.33173 0.0
C1343 C 0.26288 0.67273 0.29904 0.0
H1344 H 0.39147 0.95795 0.53338 0.0
H1345 H 0.37544 1.00301 0.36915 0.0
H1346 H 0.37049 0.04568 0.41478 0.0
H1347 H 0.36896 0.06969 0.50112 0.0
H1348 H 0.38733 0.02556 0.66538 0.0
H1349 H 0.39297 0.98277 0.6199 0.0
C1350 C 0.38699 0.97711 0.50752 0.0
C1351 C 0.38361 0.97722 0.44785 0.0
C1352 C 0.38437 1.0016 0.53406 0.0
C1353 C 0.3782 1.00233 0.41502 0.0
C1354 C 0.37521 0.0267 0.44113 0.0
C1355 C 0.37414 0.0507 0.52706 0.0
C1356 C 0.37732 0.05067 0.58664 0.0
C1357 C 0.37792 0.02648 0.50057 0.0
C1358 C 0.38461 0.02605 0.61953 0.0
C1359 C 0.38783 1.00163 0.5935 0.0
H1360 H 0.81032 0.61908 0.29802 0.0
H1361 H 0.78185 0.65599 0.13205 0.0
H1362 H 0.73734 0.65919 0.16336 0.0
H1363 H 0.70649 0.65123 0.23765 0.0
H1364 H 0.73546 0.61592 0.40462 0.0
H1365 H 0.77983 0.61249 0.37306 0.0
C1366 C 0.79437 0.62771 0.26847 0.0
C1367 C 0.79943 0.63702 0.21243 0.0
C1368 C 0.76893 0.62986 0.28703 0.0
C1369 C 0.77856 0.64859 0.17526 0.0
C1370 C 0.75309 0.65041 0.19317 0.0
C1371 C 0.72248 0.64277 0.26726 0.0
C1372 C 0.71751 0.63372 0.32352 0.0
C1373 C 0.74803 0.64107 0.24894 0.0
C1374 C 0.73862 0.62307 0.36121 0.0
C1375 C 0.76402 0.62103 0.34311 0.0
H1376 H 0.11988 0.06733 0.02692 0.0
H1377 H 0.14867 0.03613 0.87883 0.0
H1378 H 0.15012 0.98933 0.92656 0.0
H1379 H 0.14424 0.95747 1.01155 0.0
H1380 H 0.11451 0.98921 0.15824 0.0
H1381 H 0.11248 0.03559 0.10972 0.0
C1382 C 0.12646 0.05034 1.00484 0.0
C1383 C 0.13432 0.05536 0.94935 0.0
C1384 C 0.12718 0.02355 0.03244 0.0
C1385 C 0.1425 0.03294 0.92147 0.0
C1386 C 0.14342 1.00616 0.94885 0.0
C1387 C 0.13737 0.97454 0.03298 0.0
C1388 C 0.12972 0.9698 0.08878 0.0
C1389 C 0.13601 1.00125 1.00455 0.0
C1390 C 0.12053 0.99216 0.11545 0.0
C1391 C 0.11939 0.01874 0.08773 0.0
H1392 H 0.72233 0.42274 0.69676 0.0
H1393 H 0.69819 0.35952 0.82042 0.0
H1394 H 0.74218 0.35936 0.87138 0.0
H1395 H 0.78747 0.37824 0.88251 0.0
H1396 H 0.81014 0.44391 0.76196 0.0
H1397 H 0.76712 0.44215 0.70884 0.0
C1398 C 0.72685 0.40877 0.73452 0.0
C1399 C 0.70714 0.3911 0.75462 0.0
C1400 C 0.75196 0.4094 0.76471 0.0
C1401 C 0.71308 0.37338 0.80417 0.0
C1402 C 0.73822 0.37329 0.8334 0.0
C1403 C 0.78295 0.39216 0.84469 0.0
C1404 C 0.80209 0.41118 0.82659 0.0
C1405 C 0.7578 0.39142 0.81445 0.0
C1406 C 0.79582 0.42914 0.77741 0.0
C1407 C 0.77118 0.42812 0.74663 0.0
loop_
_geom_bond_atom_site_label_1
_geom_bond_atom_site_label_2
_geom_bond_distance
_geom_bond_site_symmetry_2
_ccdc_geom_bond_type
Tb0 C10 2.825 . S
Tb0 O11 2.347 . S
Tb0 O14 2.366 . S
Tb0 O19 2.418 . S
Tb0 O20 2.384 . S
Tb0 O23 2.479 . S
Tb0 O24 2.471 . S
Eu1 O12 2.418 . S
Eu1 O13 2.384 . S
Eu1 O16 2.479 . S
Eu1 O17 2.471 . S
Eu1 O18 2.347 . S
Eu1 O21 2.366 . S
Eu1 C31 2.825 . S
C2 O18 1.259 . S
C2 O19 1.265 . S
C3 O20 1.255 . S
C3 O21 1.265 . S
C4 C6 1.380 . S
C4 C7 1.374 . S
C4 C10 1.507 . S
C5 C6 1.384 . S
C5 C9 1.387 . S
C5 H32 0.930 . S
C6 C4 1.380 . S
C6 C5 1.384 . S
C6 H33 0.931 . S
C7 C4 1.374 . S
C7 C8 1.390 . S
C7 H34 0.930 . S
C8 C7 1.390 . S
C8 C9 1.391 . S
C8 H35 0.930 . S
C9 C5 1.387 . S
C9 C8 1.391 . S
C10 Tb0 2.825 . S
C10 C4 1.507 . S
C10 O23 1.238 . S
C10 O24 1.247 . S
O11 Tb0 2.347 . S
O11 C15 1.259 . S
O12 Eu1 2.418 . S
O12 C15 1.265 . S
O13 Eu1 2.384 . S
O13 C22 1.255 . S
O14 Tb0 2.366 . S
O14 C22 1.265 . S
C15 O11 1.259 . S
C15 O12 1.265 . S
O16 Eu1 2.479 . S
O16 C31 1.238 . S
O17 Eu1 2.471 . S
O17 C31 1.247 . S
O18 Eu1 2.347 . S
O18 C2 1.259 . S
O19 Tb0 2.418 . S
O19 C2 1.265 . S
O20 Tb0 2.384 . S
O20 C3 1.255 . S
O21 Eu1 2.366 . S
O21 C3 1.265 . S
C22 O13 1.255 . S
C22 O14 1.265 . S
O23 Tb0 2.479 . S
O23 C10 1.238 . S
O24 Tb0 2.471 . S
O24 C10 1.247 . S
C25 C28 1.380 . S
C25 C29 1.374 . S
C25 C31 1.507 1_556 S
C26 C27 1.387 . S
C26 C30 1.391 . S
C27 C26 1.387 . S
C27 C28 1.384 . S
C27 H36 0.930 . S
C28 C25 1.380 . S
C28 C27 1.384 . S
C28 H37 0.931 . S
C29 C25 1.374 . S
C29 C30 1.390 . S
C29 H38 0.930 . S
C30 C26 1.391 . S
C30 C29 1.390 . S
C30 H39 0.930 . S
C31 Eu1 2.825 . S
C31 O16 1.238 . S
C31 O17 1.247 . S
C31 C25 1.507 1_554 S
H32 C5 0.930 . S
H33 C6 0.931 . S
H34 C7 0.930 . S
H35 C8 0.930 . S
H36 C27 0.930 . S
H37 C28 0.931 . S
H38 C29 0.930 . S
H39 C30 0.930 . S
Tb40 C50 2.825 . S
Tb40 O51 2.347 . S
Tb40 O54 2.366 . S
Tb40 O59 2.418 . S
Tb40 O60 2.384 . S
Tb40 O63 2.479 . S
Tb40 O64 2.471 . S
Eu41 O52 2.418 . S
Eu41 O53 2.384 . S
Eu41 O56 2.479 . S
Eu41 O57 2.471 . S
Eu41 O58 2.347 . S
Eu41 O61 2.366 . S
Eu41 C71 2.825 . S
C42 O58 1.259 . S
C42 O59 1.265 . S
C43 O60 1.255 . S
C43 O61 1.265 . S
C44 C46 1.380 . S
C44 C47 1.374 . S
C44 C50 1.507 . S
C45 C46 1.384 . S
C45 C49 1.387 . S
C45 H72 0.930 . S
C46 C44 1.380 . S
C46 C45 1.384 . S
C46 H73 0.931 . S
C47 C44 1.374 . S
C47 C48 1.390 . S
C47 H74 0.930 . S
C48 C47 1.390 . S
C48 C49 1.391 . S
C48 H75 0.930 . S
C49 C45 1.387 . S
C49 C48 1.391 . S
C50 Tb40 2.825 . S
C50 C44 1.507 . S
C50 O63 1.238 . S
C50 O64 1.247 . S
O51 Tb40 2.347 . S
O51 C55 1.259 . S
O52 Eu41 2.418 . S
O52 C55 1.265 . S
O53 Eu41 2.384 . S
O53 C62 1.255 . S
O54 Tb40 2.366 . S
O54 C62 1.265 . S
C55 O51 1.259 . S
C55 O52 1.265 . S
O56 Eu41 2.479 . S
O56 C71 1.238 . S
O57 Eu41 2.471 . S
O57 C71 1.247 . S
O58 Eu41 2.347 . S
O58 C42 1.259 . S
O59 Tb40 2.418 . S
O59 C42 1.265 . S
O60 Tb40 2.384 . S
O60 C43 1.255 . S
O61 Eu41 2.366 . S
O61 C43 1.265 . S
C62 O53 1.255 . S
C62 O54 1.265 . S
O63 Tb40 2.479 . S
O63 C50 1.238 . S
O64 Tb40 2.471 . S
O64 C50 1.247 . S
C65 C68 1.380 . S
C65 C69 1.374 . S
C65 C71 1.507 . S
C66 C67 1.387 . S
C66 C70 1.391 . S
C67 C66 1.387 . S
C67 C68 1.384 . S
C67 H76 0.930 . S
C68 C65 1.380 . S
C68 C67 1.384 . S
C68 H77 0.931 . S
C69 C65 1.374 . S
C69 C70 1.390 . S
C69 H78 0.930 . S
C70 C66 1.391 . S
C70 C69 1.390 . S
C70 H79 0.930 . S
C71 Eu41 2.825 . S
C71 O56 1.238 . S
C71 O57 1.247 . S
C71 C65 1.507 . S
H72 C45 0.930 . S
H73 C46 0.931 . S
H74 C47 0.930 . S
H75 C48 0.930 . S
H76 C67 0.930 . S
H77 C68 0.931 . S
H78 C69 0.930 . S
H79 C70 0.930 . S
Tb80 C90 2.825 . S
Tb80 O91 2.347 . S
Tb80 O94 2.366 . S
Tb80 O99 2.418 . S
Tb80 O100 2.384 . S
Tb80 O103 2.479 . S
Tb80 O104 2.471 . S
Eu81 O92 2.418 . S
Eu81 O93 2.384 . S
Eu81 O96 2.479 . S
Eu81 O97 2.471 . S
Eu81 O98 2.347 . S
Eu81 O101 2.366 . S
Eu81 C111 2.825 . S
C82 O98 1.259 . S
C82 O99 1.265 . S
C83 O100 1.255 . S
C83 O101 1.265 . S
C84 C86 1.380 . S
C84 C87 1.374 . S
C84 C90 1.507 . S
C85 C86 1.384 . S
C85 C89 1.387 . S
C85 H112 0.930 . S
C86 C84 1.380 . S
C86 C85 1.384 . S
C86 H113 0.931 . S
C87 C84 1.374 . S
C87 C88 1.390 . S
C87 H114 0.930 . S
C88 C87 1.390 . S
C88 C89 1.391 . S
C88 H115 0.930 . S
C89 C85 1.387 . S
C89 C88 1.391 . S
C90 Tb80 2.825 . S
C90 C84 1.507 . S
C90 O103 1.238 . S
C90 O104 1.247 . S
O91 Tb80 2.347 . S
O91 C95 1.259 . S
O92 Eu81 2.418 . S
O92 C95 1.265 . S
O93 Eu81 2.384 . S
O93 C102 1.255 . S
O94 Tb80 2.366 . S
O94 C102 1.265 . S
C95 O91 1.259 . S
C95 O92 1.265 . S
O96 Eu81 2.479 . S
O96 C111 1.238 . S
O97 Eu81 2.471 . S
O97 C111 1.247 . S
O98 Eu81 2.347 . S
O98 C82 1.259 . S
O99 Tb80 2.418 . S
O99 C82 1.265 . S
O100 Tb80 2.384 . S
O100 C83 1.255 . S
O101 Eu81 2.366 . S
O101 C83 1.265 . S
C102 O93 1.255 . S
C102 O94 1.265 . S
O103 Tb80 2.479 . S
O103 C90 1.238 . S
O104 Tb80 2.471 . S
O104 C90 1.247 . S
C105 C108 1.380 . S
C105 C109 1.374 . S
C105 C111 1.507 . S
C106 C107 1.387 1_554 S
C106 C110 1.391 1_554 S
C107 C106 1.387 1_556 S
C107 C108 1.384 . S
C107 H116 0.930 1_556 S
C108 C105 1.380 . S
C108 C107 1.384 . S
C108 H117 0.931 . S
C109 C105 1.374 . S
C109 C110 1.390 . S
C109 H118 0.930 . S
C110 C106 1.391 1_556 S
C110 C109 1.390 . S
C110 H119 0.930 1_556 S
C111 Eu81 2.825 . S
C111 O96 1.238 . S
C111 O97 1.247 . S
C111 C105 1.507 . S
H112 C85 0.930 . S
H113 C86 0.931 . S
H114 C87 0.930 . S
H115 C88 0.930 . S
H116 C107 0.930 1_554 S
H117 C108 0.931 . S
H118 C109 0.930 . S
H119 C110 0.930 1_554 S
Tb120 C130 2.825 . S
Tb120 O131 2.347 . S
Tb120 O134 2.366 . S
Tb120 O139 2.418 . S
Tb120 O140 2.384 . S
Tb120 O143 2.479 . S
Tb120 O144 2.471 . S
Eu121 O132 2.418 . S
Eu121 O133 2.384 . S
Eu121 O136 2.479 1_556 S
Eu121 O137 2.471 1_556 S
Eu121 O138 2.347 . S
Eu121 O141 2.366 . S
Eu121 C151 2.825 1_556 S
C122 O138 1.259 . S
C122 O139 1.265 . S
C123 O140 1.255 . S
C123 O141 1.265 . S
C124 C126 1.380 . S
C124 C127 1.374 . S
C124 C130 1.507 . S
C125 C126 1.384 . S
C125 C129 1.387 . S
C125 H152 0.930 . S
C126 C124 1.380 . S
C126 C125 1.384 . S
C126 H153 0.931 . S
C127 C124 1.374 . S
C127 C128 1.390 . S
C127 H154 0.930 . S
C128 C127 1.390 . S
C128 C129 1.391 . S
C128 H155 0.930 . S
C129 C125 1.387 . S
C129 C128 1.391 . S
C130 Tb120 2.825 . S
C130 C124 1.507 . S
C130 O143 1.238 . S
C130 O144 1.247 . S
O131 Tb120 2.347 . S
O131 C135 1.259 . S
O132 Eu121 2.418 . S
O132 C135 1.265 . S
O133 Eu121 2.384 . S
O133 C142 1.255 . S
O134 Tb120 2.366 . S
O134 C142 1.265 . S
C135 O131 1.259 . S
C135 O132 1.265 . S
O136 Eu121 2.479 1_554 S
O136 C151 1.238 . S
O137 Eu121 2.471 1_554 S
O137 C151 1.247 . S
O138 Eu121 2.347 . S
O138 C122 1.259 . S
O139 Tb120 2.418 . S
O139 C122 1.265 . S
O140 Tb120 2.384 . S
O140 C123 1.255 . S
O141 Eu121 2.366 . S
O141 C123 1.265 . S
C142 O133 1.255 . S
C142 O134 1.265 . S
O143 Tb120 2.479 . S
O143 C130 1.238 . S
O144 Tb120 2.471 . S
O144 C130 1.247 . S
C145 C148 1.380 . S
C145 C149 1.374 . S
C145 C151 1.507 . S
C146 C147 1.387 . S
C146 C150 1.391 . S
C147 C146 1.387 . S
C147 C148 1.384 . S
C147 H156 0.930 . S
C148 C145 1.380 . S
C148 C147 1.384 . S
C148 H157 0.931 . S
C149 C145 1.374 . S
C149 C150 1.390 . S
C149 H158 0.930 . S
C150 C146 1.391 . S
C150 C149 1.390 . S
C150 H159 0.930 . S
C151 Eu121 2.825 1_554 S
C151 O136 1.238 . S
C151 O137 1.247 . S
C151 C145 1.507 . S
H152 C125 0.930 . S
H153 C126 0.931 . S
H154 C127 0.930 . S
H155 C128 0.930 . S
H156 C147 0.930 . S
H157 C148 0.931 . S
H158 C149 0.930 . S
H159 C150 0.930 . S
Tb160 C170 2.825 . S
Tb160 O171 2.347 . S
Tb160 O174 2.366 . S
Tb160 O179 2.418 . S
Tb160 O180 2.384 . S
Tb160 O183 2.479 . S
Tb160 O184 2.471 . S
Eu161 O172 2.418 . S
Eu161 O173 2.384 . S
Eu161 O176 2.479 1_556 S
Eu161 O177 2.471 1_556 S
Eu161 O178 2.347 . S
Eu161 O181 2.366 . S
Eu161 C191 2.825 1_556 S
C162 O178 1.259 . S
C162 O179 1.265 . S
C163 O180 1.255 . S
C163 O181 1.265 . S
C164 C166 1.380 . S
C164 C167 1.374 . S
C164 C170 1.507 . S
C165 C166 1.384 . S
C165 C169 1.387 . S
C165 H192 0.930 . S
C166 C164 1.380 . S
C166 C165 1.384 . S
C166 H193 0.931 . S
C167 C164 1.374 . S
C167 C168 1.390 . S
C167 H194 0.930 . S
C168 C167 1.390 . S
C168 C169 1.391 . S
C168 H195 0.930 . S
C169 C165 1.387 . S
C169 C168 1.391 . S
C170 Tb160 2.825 . S
C170 C164 1.507 . S
C170 O183 1.238 . S
C170 O184 1.247 . S
O171 Tb160 2.347 . S
O171 C175 1.259 . S
O172 Eu161 2.418 . S
O172 C175 1.265 . S
O173 Eu161 2.384 . S
O173 C182 1.255 . S
O174 Tb160 2.366 . S
O174 C182 1.265 . S
C175 O171 1.259 . S
C175 O172 1.265 . S
O176 Eu161 2.479 1_554 S
O176 C191 1.238 . S
O177 Eu161 2.471 1_554 S
O177 C191 1.247 . S
O178 Eu161 2.347 . S
O178 C162 1.259 . S
O179 Tb160 2.418 . S
O179 C162 1.265 . S
O180 Tb160 2.384 . S
O180 C163 1.255 . S
O181 Eu161 2.366 . S
O181 C163 1.265 . S
C182 O173 1.255 . S
C182 O174 1.265 . S
O183 Tb160 2.479 . S
O183 C170 1.238 . S
O184 Tb160 2.471 . S
O184 C170 1.247 . S
C185 C188 1.380 . S
C185 C189 1.374 . S
C185 C191 1.507 . S
C186 C187 1.387 . S
C186 C190 1.391 . S
C187 C186 1.387 . S
C187 C188 1.384 . S
C187 H196 0.930 . S
C188 C185 1.380 . S
C188 C187 1.384 . S
C188 H197 0.931 . S
C189 C185 1.374 . S
C189 C190 1.390 . S
C189 H198 0.930 . S
C190 C186 1.391 . S
C190 C189 1.390 . S
C190 H199 0.930 . S
C191 Eu161 2.825 1_554 S
C191 O176 1.238 . S
C191 O177 1.247 . S
C191 C185 1.507 . S
H192 C165 0.930 . S
H193 C166 0.931 . S
H194 C167 0.930 . S
H195 C168 0.930 . S
H196 C187 0.930 . S
H197 C188 0.931 . S
H198 C189 0.930 . S
H199 C190 0.930 . S
Tb200 C210 2.825 . S
Tb200 O211 2.347 . S
Tb200 O214 2.366 . S
Tb200 O219 2.418 . S
Tb200 O220 2.384 . S
Tb200 O223 2.479 . S
Tb200 O224 2.471 . S
Eu201 O212 2.418 . S
Eu201 O213 2.384 . S
Eu201 O216 2.479 . S
Eu201 O217 2.471 . S
Eu201 O218 2.347 . S
Eu201 O221 2.366 . S
Eu201 C231 2.825 . S
C202 O218 1.259 . S
C202 O219 1.265 . S
C203 O220 1.255 . S
C203 O221 1.265 . S
C204 C206 1.380 . S
C204 C207 1.374 . S
C204 C210 1.507 1_556 S
C205 C206 1.384 . S
C205 C209 1.387 . S
C205 H232 0.930 . S
C206 C204 1.380 . S
C206 C205 1.384 . S
C206 H233 0.931 . S
C207 C204 1.374 . S
C207 C208 1.390 . S
C207 H234 0.930 . S
C208 C207 1.390 . S
C208 C209 1.391 . S
C208 H235 0.930 . S
C209 C205 1.387 . S
C209 C208 1.391 . S
C210 Tb200 2.825 . S
C210 C204 1.507 1_554 S
C210 O223 1.238 . S
C210 O224 1.247 . S
O211 Tb200 2.347 . S
O211 C215 1.259 . S
O212 Eu201 2.418 . S
O212 C215 1.265 . S
O213 Eu201 2.384 . S
O213 C222 1.255 . S
O214 Tb200 2.366 . S
O214 C222 1.265 . S
C215 O211 1.259 . S
C215 O212 1.265 . S
O216 Eu201 2.479 . S
O216 C231 1.238 . S
O217 Eu201 2.471 . S
O217 C231 1.247 . S
O218 Eu201 2.347 . S
O218 C202 1.259 . S
O219 Tb200 2.418 . S
O219 C202 1.265 . S
O220 Tb200 2.384 . S
O220 C203 1.255 . S
O221 Eu201 2.366 . S
O221 C203 1.265 . S
C222 O213 1.255 . S
C222 O214 1.265 . S
O223 Tb200 2.479 . S
O223 C210 1.238 . S
O224 Tb200 2.471 . S
O224 C210 1.247 . S
C225 C228 1.380 . S
C225 C229 1.374 . S
C225 C231 1.507 . S
C226 C227 1.387 . S
C226 C230 1.391 . S
C227 C226 1.387 . S
C227 C228 1.384 . S
C227 H236 0.930 . S
C228 C225 1.380 . S
C228 C227 1.384 . S
C228 H237 0.931 . S
C229 C225 1.374 . S
C229 C230 1.390 . S
C229 H238 0.930 . S
C230 C226 1.391 . S
C230 C229 1.390 . S
C230 H239 0.930 . S
C231 Eu201 2.825 . S
C231 O216 1.238 . S
C231 O217 1.247 . S
C231 C225 1.507 . S
H232 C205 0.930 . S
H233 C206 0.931 . S
H234 C207 0.930 . S
H235 C208 0.930 . S
H236 C227 0.930 . S
H237 C228 0.931 . S
H238 C229 0.930 . S
H239 C230 0.930 . S
Tb240 C250 2.825 . S
Tb240 O251 2.347 . S
Tb240 O254 2.366 . S
Tb240 O259 2.418 . S
Tb240 O260 2.384 . S
Tb240 O263 2.479 . S
Tb240 O264 2.471 . S
Eu241 O252 2.418 . S
Eu241 O253 2.384 . S
Eu241 O256 2.479 . S
Eu241 O257 2.471 . S
Eu241 O258 2.347 . S
Eu241 O261 2.366 . S
Eu241 C271 2.825 . S
C242 O258 1.259 . S
C242 O259 1.265 . S
C243 O260 1.255 . S
C243 O261 1.265 . S
C244 C246 1.380 . S
C244 C247 1.374 . S
C244 C250 1.507 . S
C245 C246 1.384 . S
C245 C249 1.387 . S
C245 H272 0.930 . S
C246 C244 1.380 . S
C246 C245 1.384 . S
C246 H273 0.931 . S
C247 C244 1.374 . S
C247 C248 1.390 . S
C247 H274 0.930 . S
C248 C247 1.390 . S
C248 C249 1.391 . S
C248 H275 0.930 . S
C249 C245 1.387 . S
C249 C248 1.391 . S
C250 Tb240 2.825 . S
C250 C244 1.507 . S
C250 O263 1.238 . S
C250 O264 1.247 . S
O251 Tb240 2.347 . S
O251 C255 1.259 . S
O252 Eu241 2.418 . S
O252 C255 1.265 . S
O253 Eu241 2.384 . S
O253 C262 1.255 . S
O254 Tb240 2.366 . S
O254 C262 1.265 . S
C255 O251 1.259 . S
C255 O252 1.265 . S
O256 Eu241 2.479 . S
O256 C271 1.238 . S
O257 Eu241 2.471 . S
O257 C271 1.247 . S
O258 Eu241 2.347 . S
O258 C242 1.259 . S
O259 Tb240 2.418 . S
O259 C242 1.265 . S
O260 Tb240 2.384 . S
O260 C243 1.255 . S
O261 Eu241 2.366 . S
O261 C243 1.265 . S
C262 O253 1.255 . S
C262 O254 1.265 . S
O263 Tb240 2.479 . S
O263 C250 1.238 . S
O264 Tb240 2.471 . S
O264 C250 1.247 . S
C265 C268 1.380 . S
C265 C269 1.374 . S
C265 C271 1.507 . S
C266 C267 1.387 . S
C266 C270 1.391 . S
C267 C266 1.387 . S
C267 C268 1.384 . S
C267 H276 0.930 . S
C268 C265 1.380 . S
C268 C267 1.384 . S
C268 H277 0.931 . S
C269 C265 1.374 . S
C269 C270 1.390 . S
C269 H278 0.930 . S
C270 C266 1.391 . S
C270 C269 1.390 . S
C270 H279 0.930 . S
C271 Eu241 2.825 . S
C271 O256 1.238 . S
C271 O257 1.247 . S
C271 C265 1.507 . S
H272 C245 0.930 . S
H273 C246 0.931 . S
H274 C247 0.930 . S
H275 C248 0.930 . S
H276 C267 0.930 . S
H277 C268 0.931 . S
H278 C269 0.930 . S
H279 C270 0.930 . S
Tb280 C290 2.825 . S
Tb280 O291 2.347 . S
Tb280 O294 2.366 . S
Tb280 O299 2.418 . S
Tb280 O300 2.384 . S
Tb280 O303 2.479 . S
Tb280 O304 2.471 . S
Eu281 O292 2.418 . S
Eu281 O293 2.384 . S
Eu281 O296 2.479 . S
Eu281 O297 2.471 . S
Eu281 O298 2.347 . S
Eu281 O301 2.366 . S
Eu281 C311 2.825 . S
C282 O298 1.259 . S
C282 O299 1.265 . S
C283 O300 1.255 . S
C283 O301 1.265 . S
C284 C286 1.380 . S
C284 C287 1.374 . S
C284 C290 1.507 . S
C285 C286 1.384 1_554 S
C285 C289 1.387 . S
C285 H312 0.930 . S
C286 C284 1.380 . S
C286 C285 1.384 1_556 S
C286 H313 0.931 . S
C287 C284 1.374 . S
C287 C288 1.390 . S
C287 H314 0.930 . S
C288 C287 1.390 . S
C288 C289 1.391 1_556 S
C288 H315 0.930 1_556 S
C289 C285 1.387 . S
C289 C288 1.391 1_554 S
C290 Tb280 2.825 . S
C290 C284 1.507 . S
C290 O303 1.238 . S
C290 O304 1.247 . S
O291 Tb280 2.347 . S
O291 C295 1.259 . S
O292 Eu281 2.418 . S
O292 C295 1.265 . S
O293 Eu281 2.384 . S
O293 C302 1.255 . S
O294 Tb280 2.366 . S
O294 C302 1.265 . S
C295 O291 1.259 . S
C295 O292 1.265 . S
O296 Eu281 2.479 . S
O296 C311 1.238 . S
O297 Eu281 2.471 . S
O297 C311 1.247 . S
O298 Eu281 2.347 . S
O298 C282 1.259 . S
O299 Tb280 2.418 . S
O299 C282 1.265 . S
O300 Tb280 2.384 . S
O300 C283 1.255 . S
O301 Eu281 2.366 . S
O301 C283 1.265 . S
C302 O293 1.255 . S
C302 O294 1.265 . S
O303 Tb280 2.479 . S
O303 C290 1.238 . S
O304 Tb280 2.471 . S
O304 C290 1.247 . S
C305 C308 1.380 . S
C305 C309 1.374 . S
C305 C311 1.507 . S
C306 C307 1.387 . S
C306 C310 1.391 . S
C307 C306 1.387 . S
C307 C308 1.384 . S
C307 H316 0.930 . S
C308 C305 1.380 . S
C308 C307 1.384 . S
C308 H317 0.931 . S
C309 C305 1.374 . S
C309 C310 1.390 . S
C309 H318 0.930 . S
C310 C306 1.391 . S
C310 C309 1.390 . S
C310 H319 0.930 . S
C311 Eu281 2.825 . S
C311 O296 1.238 . S
C311 O297 1.247 . S
C311 C305 1.507 . S
H312 C285 0.930 . S
H313 C286 0.931 . S
H314 C287 0.930 . S
H315 C288 0.930 1_554 S
H316 C307 0.930 . S
H317 C308 0.931 . S
H318 C309 0.930 . S
H319 C310 0.930 . S
Tb320 C330 2.825 . S
Tb320 O331 2.347 . S
Tb320 O334 2.366 . S
Tb320 O339 2.418 . S
Tb320 O340 2.384 . S
Tb320 O343 2.479 . S
Tb320 O344 2.471 . S
Eu321 O332 2.418 . S
Eu321 O333 2.384 . S
Eu321 O336 2.479 . S
Eu321 O337 2.471 . S
Eu321 O338 2.347 . S
Eu321 O341 2.366 . S
Eu321 C351 2.825 . S
C322 O338 1.259 . S
C322 O339 1.265 . S
C323 O340 1.255 . S
C323 O341 1.265 . S
C324 C326 1.380 . S
C324 C327 1.374 . S
C324 C330 1.507 1_554 S
C325 C326 1.384 . S
C325 C329 1.387 . S
C325 H352 0.930 . S
C326 C324 1.380 . S
C326 C325 1.384 . S
C326 H353 0.931 . S
C327 C324 1.374 . S
C327 C328 1.390 . S
C327 H354 0.930 . S
C328 C327 1.390 . S
C328 C329 1.391 . S
C328 H355 0.930 . S
C329 C325 1.387 . S
C329 C328 1.391 . S
C330 Tb320 2.825 . S
C330 C324 1.507 1_556 S
C330 O343 1.238 . S
C330 O344 1.247 . S
O331 Tb320 2.347 . S
O331 C335 1.259 . S
O332 Eu321 2.418 . S
O332 C335 1.265 . S
O333 Eu321 2.384 . S
O333 C342 1.255 . S
O334 Tb320 2.366 . S
O334 C342 1.265 . S
C335 O331 1.259 . S
C335 O332 1.265 . S
O336 Eu321 2.479 . S
O336 C351 1.238 . S
O337 Eu321 2.471 . S
O337 C351 1.247 . S
O338 Eu321 2.347 . S
O338 C322 1.259 . S
O339 Tb320 2.418 . S
O339 C322 1.265 . S
O340 Tb320 2.384 . S
O340 C323 1.255 . S
O341 Eu321 2.366 . S
O341 C323 1.265 . S
C342 O333 1.255 . S
C342 O334 1.265 . S
O343 Tb320 2.479 . S
O343 C330 1.238 . S
O344 Tb320 2.471 . S
O344 C330 1.247 . S
C345 C348 1.380 . S
C345 C349 1.374 . S
C345 C351 1.507 . S
C346 C347 1.387 . S
C346 C350 1.391 . S
C347 C346 1.387 . S
C347 C348 1.384 . S
C347 H356 0.930 . S
C348 C345 1.380 . S
C348 C347 1.384 . S
C348 H357 0.931 . S
C349 C345 1.374 . S
C349 C350 1.390 . S
C349 H358 0.930 . S
C350 C346 1.391 . S
C350 C349 1.390 . S
C350 H359 0.930 . S
C351 Eu321 2.825 . S
C351 O336 1.238 . S
C351 O337 1.247 . S
C351 C345 1.507 . S
H352 C325 0.930 . S
H353 C326 0.931 . S
H354 C327 0.930 . S
H355 C328 0.930 . S
H356 C347 0.930 . S
H357 C348 0.931 . S
H358 C349 0.930 . S
H359 C350 0.930 . S
Tb360 C370 2.825 . S
Tb360 O371 2.347 . S
Tb360 O374 2.366 . S
Tb360 O379 2.418 . S
Tb360 O380 2.384 . S
Tb360 O383 2.479 . S
Tb360 O384 2.471 . S
Eu361 O372 2.418 . S
Eu361 O373 2.384 . S
Eu361 O376 2.479 . S
Eu361 O377 2.471 . S
Eu361 O378 2.347 . S
Eu361 O381 2.366 . S
Eu361 C391 2.825 . S
C362 O378 1.259 . S
C362 O379 1.265 . S
C363 O380 1.255 . S
C363 O381 1.265 . S
C364 C366 1.380 . S
C364 C367 1.374 . S
C364 C370 1.507 . S
C365 C366 1.384 . S
C365 C369 1.387 . S
C365 H392 0.930 . S
C366 C364 1.380 . S
C366 C365 1.384 . S
C366 H393 0.931 . S
C367 C364 1.374 . S
C367 C368 1.390 . S
C367 H394 0.930 . S
C368 C367 1.390 . S
C368 C369 1.391 . S
C368 H395 0.930 . S
C369 C365 1.387 . S
C369 C368 1.391 . S
C370 Tb360 2.825 . S
C370 C364 1.507 . S
C370 O383 1.238 . S
C370 O384 1.247 . S
O371 Tb360 2.347 . S
O371 C375 1.259 . S
O372 Eu361 2.418 . S
O372 C375 1.265 . S
O373 Eu361 2.384 . S
O373 C382 1.255 . S
O374 Tb360 2.366 . S
O374 C382 1.265 . S
C375 O371 1.259 . S
C375 O372 1.265 . S
O376 Eu361 2.479 . S
O376 C391 1.238 . S
O377 Eu361 2.471 . S
O377 C391 1.247 . S
O378 Eu361 2.347 . S
O378 C362 1.259 . S
O379 Tb360 2.418 . S
O379 C362 1.265 . S
O380 Tb360 2.384 . S
O380 C363 1.255 . S
O381 Eu361 2.366 . S
O381 C363 1.265 . S
C382 O373 1.255 . S
C382 O374 1.265 . S
O383 Tb360 2.479 . S
O383 C370 1.238 . S
O384 Tb360 2.471 . S
O384 C370 1.247 . S
C385 C388 1.380 . S
C385 C389 1.374 . S
C385 C391 1.507 . S
C386 C387 1.387 . S
C386 C390 1.391 . S
C387 C386 1.387 . S
C387 C388 1.384 . S
C387 H396 0.930 . S
C388 C385 1.380 . S
C388 C387 1.384 . S
C388 H397 0.931 . S
C389 C385 1.374 . S
C389 C390 1.390 . S
C389 H398 0.930 . S
C390 C386 1.391 . S
C390 C389 1.390 . S
C390 H399 0.930 . S
C391 Eu361 2.825 . S
C391 O376 1.238 . S
C391 O377 1.247 . S
C391 C385 1.507 . S
H392 C365 0.930 . S
H393 C366 0.931 . S
H394 C367 0.930 . S
H395 C368 0.930 . S
H396 C387 0.930 . S
H397 C388 0.931 . S
H398 C389 0.930 . S
H399 C390 0.930 . S
Tb400 C410 2.825 . S
Tb400 O411 2.347 . S
Tb400 O414 2.366 . S
Tb400 O419 2.418 . S
Tb400 O420 2.384 . S
Tb400 O423 2.479 . S
Tb400 O424 2.471 . S
Eu401 O412 2.418 . S
Eu401 O413 2.384 . S
Eu401 O416 2.479 . S
Eu401 O417 2.471 . S
Eu401 O418 2.347 . S
Eu401 O421 2.366 . S
Eu401 C431 2.825 . S
C402 O418 1.259 . S
C402 O419 1.265 . S
C403 O420 1.255 . S
C403 O421 1.265 . S
C404 C406 1.380 . S
C404 C407 1.374 . S
C404 C410 1.507 . S
C405 C406 1.384 . S
C405 C409 1.387 1_554 S
C405 H432 0.930 1_554 S
C406 C404 1.380 . S
C406 C405 1.384 . S
C406 H433 0.931 . S
C407 C404 1.374 . S
C407 C408 1.390 . S
C407 H434 0.930 . S
C408 C407 1.390 . S
C408 C409 1.391 1_554 S
C408 H435 0.930 1_554 S
C409 C405 1.387 1_556 S
C409 C408 1.391 1_556 S
C410 Tb400 2.825 . S
C410 C404 1.507 . S
C410 O423 1.238 . S
C410 O424 1.247 . S
O411 Tb400 2.347 . S
O411 C415 1.259 . S
O412 Eu401 2.418 . S
O412 C415 1.265 . S
O413 Eu401 2.384 . S
O413 C422 1.255 . S
O414 Tb400 2.366 . S
O414 C422 1.265 . S
C415 O411 1.259 . S
C415 O412 1.265 . S
O416 Eu401 2.479 . S
O416 C431 1.238 . S
O417 Eu401 2.471 . S
O417 C431 1.247 . S
O418 Eu401 2.347 . S
O418 C402 1.259 . S
O419 Tb400 2.418 . S
O419 C402 1.265 . S
O420 Tb400 2.384 . S
O420 C403 1.255 . S
O421 Eu401 2.366 . S
O421 C403 1.265 . S
C422 O413 1.255 . S
C422 O414 1.265 . S
O423 Tb400 2.479 . S
O423 C410 1.238 . S
O424 Tb400 2.471 . S
O424 C410 1.247 . S
C425 C428 1.380 . S
C425 C429 1.374 . S
C425 C431 1.507 . S
C426 C427 1.387 . S
C426 C430 1.391 . S
C427 C426 1.387 . S
C427 C428 1.384 . S
C427 H436 0.930 . S
C428 C425 1.380 . S
C428 C427 1.384 . S
C428 H437 0.931 . S
C429 C425 1.374 . S
C429 C430 1.390 . S
C429 H438 0.930 . S
C430 C426 1.391 . S
C430 C429 1.390 . S
C430 H439 0.930 . S
C431 Eu401 2.825 . S
C431 O416 1.238 . S
C431 O417 1.247 . S
C431 C425 1.507 . S
H432 C405 0.930 1_556 S
H433 C406 0.931 . S
H434 C407 0.930 . S
H435 C408 0.930 1_556 S
H436 C427 0.930 . S
H437 C428 0.931 . S
H438 C429 0.930 . S
H439 C430 0.930 . S
Tb440 C450 2.825 1_554 S
Tb440 O451 2.347 . S
Tb440 O454 2.366 . S
Tb440 O459 2.418 . S
Tb440 O460 2.384 . S
Tb440 O463 2.479 1_554 S
Tb440 O464 2.471 1_554 S
Eu441 O452 2.418 . S
Eu441 O453 2.384 . S
Eu441 O456 2.479 . S
Eu441 O457 2.471 . S
Eu441 O458 2.347 . S
Eu441 O461 2.366 . S
Eu441 C471 2.825 . S
C442 O458 1.259 . S
C442 O459 1.265 . S
C443 O460 1.255 . S
C443 O461 1.265 . S
C444 C446 1.380 . S
C444 C447 1.374 . S
C444 C450 1.507 . S
C445 C446 1.384 . S
C445 C449 1.387 . S
C445 H472 0.930 . S
C446 C444 1.380 . S
C446 C445 1.384 . S
C446 H473 0.931 . S
C447 C444 1.374 . S
C447 C448 1.390 . S
C447 H474 0.930 . S
C448 C447 1.390 . S
C448 C449 1.391 . S
C448 H475 0.930 . S
C449 C445 1.387 . S
C449 C448 1.391 . S
C450 Tb440 2.825 1_556 S
C450 C444 1.507 . S
C450 O463 1.238 . S
C450 O464 1.247 . S
O451 Tb440 2.347 . S
O451 C455 1.259 . S
O452 Eu441 2.418 . S
O452 C455 1.265 . S
O453 Eu441 2.384 . S
O453 C462 1.255 . S
O454 Tb440 2.366 . S
O454 C462 1.265 . S
C455 O451 1.259 . S
C455 O452 1.265 . S
O456 Eu441 2.479 . S
O456 C471 1.238 . S
O457 Eu441 2.471 . S
O457 C471 1.247 . S
O458 Eu441 2.347 . S
O458 C442 1.259 . S
O459 Tb440 2.418 . S
O459 C442 1.265 . S
O460 Tb440 2.384 . S
O460 C443 1.255 . S
O461 Eu441 2.366 . S
O461 C443 1.265 . S
C462 O453 1.255 . S
C462 O454 1.265 . S
O463 Tb440 2.479 1_556 S
O463 C450 1.238 . S
O464 Tb440 2.471 1_556 S
O464 C450 1.247 . S
C465 C468 1.380 . S
C465 C469 1.374 . S
C465 C471 1.507 . S
C466 C467 1.387 . S
C466 C470 1.391 . S
C467 C466 1.387 . S
C467 C468 1.384 . S
C467 H476 0.930 . S
C468 C465 1.380 . S
C468 C467 1.384 . S
C468 H477 0.931 . S
C469 C465 1.374 . S
C469 C470 1.390 . S
C469 H478 0.930 . S
C470 C466 1.391 . S
C470 C469 1.390 . S
C470 H479 0.930 . S
C471 Eu441 2.825 . S
C471 O456 1.238 . S
C471 O457 1.247 . S
C471 C465 1.507 . S
H472 C445 0.930 . S
H473 C446 0.931 . S
H474 C447 0.930 . S
H475 C448 0.930 . S
H476 C467 0.930 . S
H477 C468 0.931 . S
H478 C469 0.930 . S
H479 C470 0.930 . S
Tb480 C490 2.825 1_554 S
Tb480 O491 2.347 . S
Tb480 O494 2.366 . S
Tb480 O499 2.418 . S
Tb480 O500 2.384 . S
Tb480 O503 2.479 1_554 S
Tb480 O504 2.471 1_554 S
Eu481 O492 2.418 . S
Eu481 O493 2.384 . S
Eu481 O496 2.479 . S
Eu481 O497 2.471 . S
Eu481 O498 2.347 . S
Eu481 O501 2.366 . S
Eu481 C511 2.825 . S
C482 O498 1.259 . S
C482 O499 1.265 . S
C483 O500 1.255 . S
C483 O501 1.265 . S
C484 C486 1.380 . S
C484 C487 1.374 . S
C484 C490 1.507 . S
C485 C486 1.384 . S
C485 C489 1.387 . S
C485 H512 0.930 . S
C486 C484 1.380 . S
C486 C485 1.384 . S
C486 H513 0.931 . S
C487 C484 1.374 . S
C487 C488 1.390 . S
C487 H514 0.930 . S
C488 C487 1.390 . S
C488 C489 1.391 . S
C488 H515 0.930 . S
C489 C485 1.387 . S
C489 C488 1.391 . S
C490 Tb480 2.825 1_556 S
C490 C484 1.507 . S
C490 O503 1.238 . S
C490 O504 1.247 . S
O491 Tb480 2.347 . S
O491 C495 1.259 . S
O492 Eu481 2.418 . S
O492 C495 1.265 . S
O493 Eu481 2.384 . S
O493 C502 1.255 . S
O494 Tb480 2.366 . S
O494 C502 1.265 . S
C495 O491 1.259 . S
C495 O492 1.265 . S
O496 Eu481 2.479 . S
O496 C511 1.238 . S
O497 Eu481 2.471 . S
O497 C511 1.247 . S
O498 Eu481 2.347 . S
O498 C482 1.259 . S
O499 Tb480 2.418 . S
O499 C482 1.265 . S
O500 Tb480 2.384 . S
O500 C483 1.255 . S
O501 Eu481 2.366 . S
O501 C483 1.265 . S
C502 O493 1.255 . S
C502 O494 1.265 . S
O503 Tb480 2.479 1_556 S
O503 C490 1.238 . S
O504 Tb480 2.471 1_556 S
O504 C490 1.247 . S
C505 C508 1.380 . S
C505 C509 1.374 . S
C505 C511 1.507 . S
C506 C507 1.387 . S
C506 C510 1.391 . S
C507 C506 1.387 . S
C507 C508 1.384 . S
C507 H516 0.930 . S
C508 C505 1.380 . S
C508 C507 1.384 . S
C508 H517 0.931 . S
C509 C505 1.374 . S
C509 C510 1.390 . S
C509 H518 0.930 . S
C510 C506 1.391 . S
C510 C509 1.390 . S
C510 H519 0.930 . S
C511 Eu481 2.825 . S
C511 O496 1.238 . S
C511 O497 1.247 . S
C511 C505 1.507 . S
H512 C485 0.930 . S
H513 C486 0.931 . S
H514 C487 0.930 . S
H515 C488 0.930 . S
H516 C507 0.930 . S
H517 C508 0.931 . S
H518 C509 0.930 . S
H519 C510 0.930 . S
Tb520 C530 2.825 . S
Tb520 O531 2.347 . S
Tb520 O534 2.366 . S
Tb520 O539 2.418 . S
Tb520 O540 2.384 . S
Tb520 O543 2.479 . S
Tb520 O544 2.471 . S
Eu521 O532 2.418 . S
Eu521 O533 2.384 . S
Eu521 O536 2.479 . S
Eu521 O537 2.471 . S
Eu521 O538 2.347 . S
Eu521 O541 2.366 . S
Eu521 C551 2.825 . S
C522 O538 1.259 . S
C522 O539 1.265 . S
C523 O540 1.255 . S
C523 O541 1.265 . S
C524 C526 1.380 . S
C524 C527 1.374 . S
C524 C530 1.507 . S
C525 C526 1.384 . S
C525 C529 1.387 . S
C525 H552 0.930 . S
C526 C524 1.380 . S
C526 C525 1.384 . S
C526 H553 0.931 . S
C527 C524 1.374 . S
C527 C528 1.390 . S
C527 H554 0.930 . S
C528 C527 1.390 . S
C528 C529 1.391 . S
C528 H555 0.930 . S
C529 C525 1.387 . S
C529 C528 1.391 . S
C530 Tb520 2.825 . S
C530 C524 1.507 . S
C530 O543 1.238 . S
C530 O544 1.247 . S
O531 Tb520 2.347 . S
O531 C535 1.259 . S
O532 Eu521 2.418 . S
O532 C535 1.265 . S
O533 Eu521 2.384 . S
O533 C542 1.255 . S
O534 Tb520 2.366 . S
O534 C542 1.265 . S
C535 O531 1.259 . S
C535 O532 1.265 . S
O536 Eu521 2.479 . S
O536 C551 1.238 . S
O537 Eu521 2.471 . S
O537 C551 1.247 . S
O538 Eu521 2.347 . S
O538 C522 1.259 . S
O539 Tb520 2.418 . S
O539 C522 1.265 . S
O540 Tb520 2.384 . S
O540 C523 1.255 . S
O541 Eu521 2.366 . S
O541 C523 1.265 . S
C542 O533 1.255 . S
C542 O534 1.265 . S
O543 Tb520 2.479 . S
O543 C530 1.238 . S
O544 Tb520 2.471 . S
O544 C530 1.247 . S
C545 C548 1.380 . S
C545 C549 1.374 . S
C545 C551 1.507 1_554 S
C546 C547 1.387 . S
C546 C550 1.391 . S
C547 C546 1.387 . S
C547 C548 1.384 . S
C547 H556 0.930 . S
C548 C545 1.380 . S
C548 C547 1.384 . S
C548 H557 0.931 . S
C549 C545 1.374 . S
C549 C550 1.390 . S
C549 H558 0.930 . S
C550 C546 1.391 . S
C550 C549 1.390 . S
C550 H559 0.930 . S
C551 Eu521 2.825 . S
C551 O536 1.238 . S
C551 O537 1.247 . S
C551 C545 1.507 1_556 S
H552 C525 0.930 . S
H553 C526 0.931 . S
H554 C527 0.930 . S
H555 C528 0.930 . S
H556 C547 0.930 . S
H557 C548 0.931 . S
H558 C549 0.930 . S
H559 C550 0.930 . S
Tb560 C570 2.825 . S
Tb560 O571 2.347 . S
Tb560 O574 2.366 . S
Tb560 O579 2.418 . S
Tb560 O580 2.384 . S
Tb560 O583 2.479 . S
Tb560 O584 2.471 . S
Eu561 O572 2.418 . S
Eu561 O573 2.384 . S
Eu561 O576 2.479 . S
Eu561 O577 2.471 . S
Eu561 O578 2.347 . S
Eu561 O581 2.366 . S
Eu561 C591 2.825 . S
C562 O578 1.259 . S
C562 O579 1.265 . S
C563 O580 1.255 . S
C563 O581 1.265 . S
C564 C566 1.380 . S
C564 C567 1.374 . S
C564 C570 1.507 . S
C565 C566 1.384 . S
C565 C569 1.387 . S
C565 H592 0.930 . S
C566 C564 1.380 . S
C566 C565 1.384 . S
C566 H593 0.931 . S
C567 C564 1.374 . S
C567 C568 1.390 . S
C567 H594 0.930 . S
C568 C567 1.390 . S
C568 C569 1.391 . S
C568 H595 0.930 . S
C569 C565 1.387 . S
C569 C568 1.391 . S
C570 Tb560 2.825 . S
C570 C564 1.507 . S
C570 O583 1.238 . S
C570 O584 1.247 . S
O571 Tb560 2.347 . S
O571 C575 1.259 . S
O572 Eu561 2.418 . S
O572 C575 1.265 . S
O573 Eu561 2.384 . S
O573 C582 1.255 . S
O574 Tb560 2.366 . S
O574 C582 1.265 . S
C575 O571 1.259 . S
C575 O572 1.265 . S
O576 Eu561 2.479 . S
O576 C591 1.238 . S
O577 Eu561 2.471 . S
O577 C591 1.247 . S
O578 Eu561 2.347 . S
O578 C562 1.259 . S
O579 Tb560 2.418 . S
O579 C562 1.265 . S
O580 Tb560 2.384 . S
O580 C563 1.255 . S
O581 Eu561 2.366 . S
O581 C563 1.265 . S
C582 O573 1.255 . S
C582 O574 1.265 . S
O583 Tb560 2.479 . S
O583 C570 1.238 . S
O584 Tb560 2.471 . S
O584 C570 1.247 . S
C585 C588 1.380 . S
C585 C589 1.374 . S
C585 C591 1.507 . S
C586 C587 1.387 . S
C586 C590 1.391 . S
C587 C586 1.387 . S
C587 C588 1.384 . S
C587 H596 0.930 . S
C588 C585 1.380 . S
C588 C587 1.384 . S
C588 H597 0.931 . S
C589 C585 1.374 . S
C589 C590 1.390 . S
C589 H598 0.930 . S
C590 C586 1.391 . S
C590 C589 1.390 . S
C590 H599 0.930 . S
C591 Eu561 2.825 . S
C591 O576 1.238 . S
C591 O577 1.247 . S
C591 C585 1.507 . S
H592 C565 0.930 . S
H593 C566 0.931 . S
H594 C567 0.930 . S
H595 C568 0.930 . S
H596 C587 0.930 . S
H597 C588 0.931 . S
H598 C589 0.930 . S
H599 C590 0.930 . S
Tb600 C610 2.825 . S
Tb600 O611 2.347 . S
Tb600 O614 2.366 . S
Tb600 O619 2.418 . S
Tb600 O620 2.384 . S
Tb600 O623 2.479 . S
Tb600 O624 2.471 . S
Eu601 O612 2.418 . S
Eu601 O613 2.384 . S
Eu601 O616 2.479 . S
Eu601 O617 2.471 . S
Eu601 O618 2.347 . S
Eu601 O621 2.366 . S
Eu601 C631 2.825 . S
C602 O618 1.259 . S
C602 O619 1.265 . S
C603 O620 1.255 . S
C603 O621 1.265 . S
C604 C606 1.380 . S
C604 C607 1.374 . S
C604 C610 1.507 . S
C605 C606 1.384 . S
C605 C609 1.387 . S
C605 H632 0.930 . S
C606 C604 1.380 . S
C606 C605 1.384 . S
C606 H633 0.931 . S
C607 C604 1.374 . S
C607 C608 1.390 . S
C607 H634 0.930 . S
C608 C607 1.390 . S
C608 C609 1.391 . S
C608 H635 0.930 . S
C609 C605 1.387 . S
C609 C608 1.391 . S
C610 Tb600 2.825 . S
C610 C604 1.507 . S
C610 O623 1.238 . S
C610 O624 1.247 . S
O611 Tb600 2.347 . S
O611 C615 1.259 . S
O612 Eu601 2.418 . S
O612 C615 1.265 . S
O613 Eu601 2.384 . S
O613 C622 1.255 . S
O614 Tb600 2.366 . S
O614 C622 1.265 . S
C615 O611 1.259 . S
C615 O612 1.265 . S
O616 Eu601 2.479 . S
O616 C631 1.238 . S
O617 Eu601 2.471 . S
O617 C631 1.247 . S
O618 Eu601 2.347 . S
O618 C602 1.259 . S
O619 Tb600 2.418 . S
O619 C602 1.265 . S
O620 Tb600 2.384 . S
O620 C603 1.255 . S
O621 Eu601 2.366 . S
O621 C603 1.265 . S
C622 O613 1.255 . S
C622 O614 1.265 . S
O623 Tb600 2.479 . S
O623 C610 1.238 . S
O624 Tb600 2.471 . S
O624 C610 1.247 . S
C625 C628 1.380 . S
C625 C629 1.374 . S
C625 C631 1.507 . S
C626 C627 1.387 . S
C626 C630 1.391 1_556 S
C627 C626 1.387 . S
C627 C628 1.384 1_556 S
C627 H636 0.930 . S
C628 C625 1.380 . S
C628 C627 1.384 1_554 S
C628 H637 0.931 . S
C629 C625 1.374 . S
C629 C630 1.390 . S
C629 H638 0.930 . S
C630 C626 1.391 1_554 S
C630 C629 1.390 . S
C630 H639 0.930 1_554 S
C631 Eu601 2.825 . S
C631 O616 1.238 . S
C631 O617 1.247 . S
C631 C625 1.507 . S
H632 C605 0.930 . S
H633 C606 0.931 . S
H634 C607 0.930 . S
H635 C608 0.930 . S
H636 C627 0.930 . S
H637 C628 0.931 . S
H638 C629 0.930 . S
H639 C630 0.930 1_556 S
H640 C646 0.930 . S
H641 C649 0.930 . S
H642 C650 0.930 . S
H643 C651 0.930 . S
H644 C654 0.930 . S
H645 C655 0.930 . S
C646 H640 0.930 . S
C646 C647 1.355 . S
C646 C648 1.415 . S
C647 C646 1.355 . S
C647 C649 1.419 . S
C648 C646 1.415 . S
C648 C653 1.425 . S
C648 C655 1.409 . S
C649 H641 0.930 . S
C649 C647 1.419 . S
C649 C650 1.362 . S
C650 H642 0.930 . S
C650 C649 1.362 . S
C650 C653 1.409 . S
C651 H643 0.930 . S
C651 C652 1.355 . S
C651 C653 1.415 . S
C652 C651 1.355 . S
C652 C654 1.419 . S
C653 C648 1.425 . S
C653 C650 1.409 . S
C653 C651 1.415 . S
C654 H644 0.930 . S
C654 C652 1.419 . S
C654 C655 1.362 . S
C655 H645 0.930 . S
C655 C648 1.409 . S
C655 C654 1.362 . S
H656 C662 0.930 . S
H657 C665 0.930 . S
H658 C666 0.930 . S
H659 C667 0.930 . S
H660 C670 0.930 . S
H661 C671 0.930 . S
C662 H656 0.930 . S
C662 C663 1.355 . S
C662 C664 1.415 . S
C663 C662 1.355 . S
C663 C665 1.419 . S
C664 C662 1.415 . S
C664 C669 1.425 . S
C664 C671 1.409 . S
C665 H657 0.930 . S
C665 C663 1.419 . S
C665 C666 1.362 . S
C666 H658 0.930 . S
C666 C665 1.362 . S
C666 C669 1.409 . S
C667 H659 0.930 . S
C667 C668 1.355 . S
C667 C669 1.415 . S
C668 C667 1.355 . S
C668 C670 1.419 . S
C669 C664 1.425 . S
C669 C666 1.409 . S
C669 C667 1.415 . S
C670 H660 0.930 . S
C670 C668 1.419 . S
C670 C671 1.362 . S
C671 H661 0.930 . S
C671 C664 1.409 . S
C671 C670 1.362 . S
H672 C678 0.930 . S
H673 C681 0.930 . S
H674 C682 0.930 . S
H675 C683 0.930 . S
H676 C686 0.930 . S
H677 C687 0.930 . S
C678 H672 0.930 . S
C678 C679 1.355 . S
C678 C680 1.415 . S
C679 C678 1.355 . S
C679 C681 1.419 . S
C680 C678 1.415 . S
C680 C685 1.425 . S
C680 C687 1.409 . S
C681 H673 0.930 . S
C681 C679 1.419 . S
C681 C682 1.362 . S
C682 H674 0.930 . S
C682 C681 1.362 . S
C682 C685 1.409 . S
C683 H675 0.930 . S
C683 C684 1.355 . S
C683 C685 1.415 . S
C684 C683 1.355 . S
C684 C686 1.419 . S
C685 C680 1.425 . S
C685 C682 1.409 . S
C685 C683 1.415 . S
C686 H676 0.930 . S
C686 C684 1.419 . S
C686 C687 1.362 . S
C687 H677 0.930 . S
C687 C680 1.409 . S
C687 C686 1.362 . S
H688 C694 0.930 . S
H689 C697 0.930 . S
H690 C698 0.930 . S
H691 C699 0.930 . S
H692 C702 0.930 . S
H693 C703 0.930 . S
C694 H688 0.930 . S
C694 C695 1.355 . S
C694 C696 1.415 . S
C695 C694 1.355 . S
C695 C697 1.419 . S
C696 C694 1.415 . S
C696 C701 1.425 . S
C696 C703 1.409 . S
C697 H689 0.930 . S
C697 C695 1.419 . S
C697 C698 1.362 . S
C698 H690 0.930 . S
C698 C697 1.362 . S
C698 C701 1.409 . S
C699 H691 0.930 . S
C699 C700 1.355 . S
C699 C701 1.415 . S
C700 C699 1.355 . S
C700 C702 1.419 . S
C701 C696 1.425 . S
C701 C698 1.409 . S
C701 C699 1.415 . S
C702 H692 0.930 . S
C702 C700 1.419 . S
C702 C703 1.362 . S
C703 H693 0.930 . S
C703 C696 1.409 . S
C703 C702 1.362 . S
H704 C710 0.930 . S
H705 C713 0.930 . S
H706 C714 0.930 . S
H707 C715 0.930 . S
H708 C718 0.930 . S
H709 C719 0.930 . S
C710 H704 0.930 . S
C710 C711 1.355 . S
C710 C712 1.415 . S
C711 C710 1.355 . S
C711 C713 1.419 . S
C712 C710 1.415 . S
C712 C717 1.425 . S
C712 C719 1.409 . S
C713 H705 0.930 . S
C713 C711 1.419 . S
C713 C714 1.362 . S
C714 H706 0.930 . S
C714 C713 1.362 . S
C714 C717 1.409 . S
C715 H707 0.930 . S
C715 C716 1.355 . S
C715 C717 1.415 . S
C716 C715 1.355 . S
C716 C718 1.419 . S
C717 C712 1.425 . S
C717 C714 1.409 . S
C717 C715 1.415 . S
C718 H708 0.930 . S
C718 C716 1.419 . S
C718 C719 1.362 . S
C719 H709 0.930 . S
C719 C712 1.409 . S
C719 C718 1.362 . S
H720 C726 0.930 . S
H721 C729 0.930 . S
H722 C730 0.930 . S
H723 C731 0.930 . S
H724 C734 0.930 . S
H725 C735 0.930 . S
C726 H720 0.930 . S
C726 C727 1.355 . S
C726 C728 1.415 . S
C727 C726 1.355 . S
C727 C729 1.419 . S
C728 C726 1.415 . S
C728 C733 1.425 . S
C728 C735 1.409 . S
C729 H721 0.930 . S
C729 C727 1.419 . S
C729 C730 1.362 . S
C730 H722 0.930 . S
C730 C729 1.362 . S
C730 C733 1.409 . S
C731 H723 0.930 . S
C731 C732 1.355 . S
C731 C733 1.415 . S
C732 C731 1.355 . S
C732 C734 1.419 . S
C733 C728 1.425 . S
C733 C730 1.409 . S
C733 C731 1.415 . S
C734 H724 0.930 . S
C734 C732 1.419 . S
C734 C735 1.362 . S
C735 H725 0.930 . S
C735 C728 1.409 . S
C735 C734 1.362 . S
H736 C742 0.930 . S
H737 C745 0.930 . S
H738 C746 0.930 . S
H739 C747 0.930 . S
H740 C750 0.930 . S
H741 C751 0.930 . S
C742 H736 0.930 . S
C742 C743 1.355 . S
C742 C744 1.415 . S
C743 C742 1.355 . S
C743 C745 1.419 . S
C744 C742 1.415 . S
C744 C749 1.425 . S
C744 C751 1.409 . S
C745 H737 0.930 . S
C745 C743 1.419 . S
C745 C746 1.362 . S
C746 H738 0.930 . S
C746 C745 1.362 . S
C746 C749 1.409 . S
C747 H739 0.930 . S
C747 C748 1.355 . S
C747 C749 1.415 . S
C748 C747 1.355 . S
C748 C750 1.419 . S
C749 C744 1.425 . S
C749 C746 1.409 . S
C749 C747 1.415 . S
C750 H740 0.930 . S
C750 C748 1.419 . S
C750 C751 1.362 . S
C751 H741 0.930 . S
C751 C744 1.409 . S
C751 C750 1.362 . S
H752 C758 0.930 . S
H753 C761 0.930 . S
H754 C762 0.930 . S
H755 C763 0.930 . S
H756 C766 0.930 . S
H757 C767 0.930 . S
C758 H752 0.930 . S
C758 C759 1.355 . S
C758 C760 1.415 . S
C759 C758 1.355 . S
C759 C761 1.419 . S
C760 C758 1.415 . S
C760 C765 1.425 . S
C760 C767 1.409 . S
C761 H753 0.930 . S
C761 C759 1.419 . S
C761 C762 1.362 . S
C762 H754 0.930 . S
C762 C761 1.362 . S
C762 C765 1.409 . S
C763 H755 0.930 . S
C763 C764 1.355 . S
C763 C765 1.415 . S
C764 C763 1.355 . S
C764 C766 1.419 . S
C765 C760 1.425 . S
C765 C762 1.409 . S
C765 C763 1.415 . S
C766 H756 0.930 . S
C766 C764 1.419 . S
C766 C767 1.362 . S
C767 H757 0.930 . S
C767 C760 1.409 . S
C767 C766 1.362 . S
H768 C774 0.930 . S
H769 C777 0.930 . S
H770 C778 0.930 . S
H771 C779 0.930 . S
H772 C782 0.930 . S
H773 C783 0.930 . S
C774 H768 0.930 . S
C774 C775 1.355 . S
C774 C776 1.415 . S
C775 C774 1.355 . S
C775 C777 1.419 . S
C776 C774 1.415 . S
C776 C781 1.425 . S
C776 C783 1.409 . S
C777 H769 0.930 . S
C777 C775 1.419 . S
C777 C778 1.362 . S
C778 H770 0.930 . S
C778 C777 1.362 . S
C778 C781 1.409 . S
C779 H771 0.930 . S
C779 C780 1.355 . S
C779 C781 1.415 . S
C780 C779 1.355 . S
C780 C782 1.419 . S
C781 C776 1.425 . S
C781 C778 1.409 . S
C781 C779 1.415 . S
C782 H772 0.930 . S
C782 C780 1.419 . S
C782 C783 1.362 . S
C783 H773 0.930 . S
C783 C776 1.409 . S
C783 C782 1.362 . S
H784 C790 0.930 . S
H785 C793 0.930 . S
H786 C794 0.930 . S
H787 C795 0.930 . S
H788 C798 0.930 . S
H789 C799 0.930 . S
C790 H784 0.930 . S
C790 C791 1.355 . S
C790 C792 1.415 . S
C791 C790 1.355 . S
C791 C793 1.419 . S
C792 C790 1.415 . S
C792 C797 1.425 . S
C792 C799 1.409 . S
C793 H785 0.930 . S
C793 C791 1.419 . S
C793 C794 1.362 . S
C794 H786 0.930 . S
C794 C793 1.362 . S
C794 C797 1.409 . S
C795 H787 0.930 . S
C795 C796 1.355 . S
C795 C797 1.415 . S
C796 C795 1.355 . S
C796 C798 1.419 . S
C797 C792 1.425 . S
C797 C794 1.409 . S
C797 C795 1.415 . S
C798 H788 0.930 . S
C798 C796 1.419 . S
C798 C799 1.362 . S
C799 H789 0.930 . S
C799 C792 1.409 . S
C799 C798 1.362 . S
H800 C806 0.930 . S
H801 C809 0.930 . S
H802 C810 0.930 . S
H803 C811 0.930 . S
H804 C814 0.930 . S
H805 C815 0.930 . S
C806 H800 0.930 . S
C806 C807 1.355 . S
C806 C808 1.415 . S
C807 C806 1.355 . S
C807 C809 1.419 . S
C808 C806 1.415 . S
C808 C813 1.425 . S
C808 C815 1.409 . S
C809 H801 0.930 . S
C809 C807 1.419 . S
C809 C810 1.362 . S
C810 H802 0.930 . S
C810 C809 1.362 . S
C810 C813 1.409 . S
C811 H803 0.930 . S
C811 C812 1.355 . S
C811 C813 1.415 . S
C812 C811 1.355 . S
C812 C814 1.419 . S
C813 C808 1.425 . S
C813 C810 1.409 . S
C813 C811 1.415 . S
C814 H804 0.930 . S
C814 C812 1.419 . S
C814 C815 1.362 . S
C815 H805 0.930 . S
C815 C808 1.409 . S
C815 C814 1.362 . S
H816 C822 0.930 . S
H817 C825 0.930 . S
H818 C826 0.930 . S
H819 C827 0.930 . S
H820 C830 0.930 . S
H821 C831 0.930 . S
C822 H816 0.930 . S
C822 C823 1.355 . S
C822 C824 1.415 . S
C823 C822 1.355 . S
C823 C825 1.419 . S
C824 C822 1.415 . S
C824 C829 1.425 . S
C824 C831 1.409 . S
C825 H817 0.930 . S
C825 C823 1.419 . S
C825 C826 1.362 . S
C826 H818 0.930 . S
C826 C825 1.362 . S
C826 C829 1.409 . S
C827 H819 0.930 . S
C827 C828 1.355 . S
C827 C829 1.415 . S
C828 C827 1.355 . S
C828 C830 1.419 . S
C829 C824 1.425 . S
C829 C826 1.409 . S
C829 C827 1.415 . S
C830 H820 0.930 . S
C830 C828 1.419 . S
C830 C831 1.362 . S
C831 H821 0.930 . S
C831 C824 1.409 . S
C831 C830 1.362 . S
H832 C838 0.930 . S
H833 C841 0.930 . S
H834 C842 0.930 . S
H835 C843 0.930 . S
H836 C846 0.930 . S
H837 C847 0.930 . S
C838 H832 0.930 . S
C838 C839 1.355 . S
C838 C840 1.415 . S
C839 C838 1.355 . S
C839 C841 1.419 . S
C840 C838 1.415 . S
C840 C845 1.425 . S
C840 C847 1.409 . S
C841 H833 0.930 . S
C841 C839 1.419 . S
C841 C842 1.362 . S
C842 H834 0.930 . S
C842 C841 1.362 . S
C842 C845 1.409 . S
C843 H835 0.930 . S
C843 C844 1.355 . S
C843 C845 1.415 . S
C844 C843 1.355 . S
C844 C846 1.419 . S
C845 C840 1.425 . S
C845 C842 1.409 . S
C845 C843 1.415 . S
C846 H836 0.930 . S
C846 C844 1.419 . S
C846 C847 1.362 . S
C847 H837 0.930 . S
C847 C840 1.409 . S
C847 C846 1.362 . S
H848 C854 0.930 . S
H849 C857 0.930 . S
H850 C858 0.930 . S
H851 C859 0.930 . S
H852 C862 0.930 . S
H853 C863 0.930 . S
C854 H848 0.930 . S
C854 C855 1.355 . S
C854 C856 1.415 . S
C855 C854 1.355 . S
C855 C857 1.419 . S
C856 C854 1.415 . S
C856 C861 1.425 . S
C856 C863 1.409 . S
C857 H849 0.930 . S
C857 C855 1.419 . S
C857 C858 1.362 . S
C858 H850 0.930 . S
C858 C857 1.362 . S
C858 C861 1.409 . S
C859 H851 0.930 . S
C859 C860 1.355 . S
C859 C861 1.415 . S
C860 C859 1.355 . S
C860 C862 1.419 . S
C861 C856 1.425 . S
C861 C858 1.409 . S
C861 C859 1.415 . S
C862 H852 0.930 . S
C862 C860 1.419 . S
C862 C863 1.362 . S
C863 H853 0.930 . S
C863 C856 1.409 . S
C863 C862 1.362 . S
H864 C870 0.930 . S
H865 C873 0.930 . S
H866 C874 0.930 . S
H867 C875 0.930 . S
H868 C878 0.930 . S
H869 C879 0.930 . S
C870 H864 0.930 . S
C870 C871 1.355 . S
C870 C872 1.415 . S
C871 C870 1.355 . S
C871 C873 1.419 . S
C872 C870 1.415 . S
C872 C877 1.425 . S
C872 C879 1.409 . S
C873 H865 0.930 . S
C873 C871 1.419 . S
C873 C874 1.362 . S
C874 H866 0.930 . S
C874 C873 1.362 . S
C874 C877 1.409 . S
C875 H867 0.930 . S
C875 C876 1.355 . S
C875 C877 1.415 . S
C876 C875 1.355 . S
C876 C878 1.419 . S
C877 C872 1.425 . S
C877 C874 1.409 . S
C877 C875 1.415 . S
C878 H868 0.930 . S
C878 C876 1.419 . S
C878 C879 1.362 . S
C879 H869 0.930 . S
C879 C872 1.409 . S
C879 C878 1.362 . S
H880 C886 0.930 . S
H881 C889 0.930 . S
H882 C890 0.930 . S
H883 C891 0.930 . S
H884 C894 0.930 . S
H885 C895 0.930 . S
C886 H880 0.930 . S
C886 C887 1.355 . S
C886 C888 1.415 . S
C887 C886 1.355 . S
C887 C889 1.419 . S
C888 C886 1.415 . S
C888 C893 1.425 . S
C888 C895 1.409 . S
C889 H881 0.930 . S
C889 C887 1.419 . S
C889 C890 1.362 . S
C890 H882 0.930 . S
C890 C889 1.362 . S
C890 C893 1.409 . S
C891 H883 0.930 . S
C891 C892 1.355 . S
C891 C893 1.415 . S
C892 C891 1.355 . S
C892 C894 1.419 . S
C893 C888 1.425 . S
C893 C890 1.409 . S
C893 C891 1.415 . S
C894 H884 0.930 . S
C894 C892 1.419 . S
C894 C895 1.362 . S
C895 H885 0.930 . S
C895 C888 1.409 . S
C895 C894 1.362 . S
H896 C902 0.930 . S
H897 C905 0.930 . S
H898 C906 0.930 . S
H899 C907 0.930 . S
H900 C910 0.930 . S
H901 C911 0.930 . S
C902 H896 0.930 . S
C902 C903 1.355 . S
C902 C904 1.415 . S
C903 C902 1.355 . S
C903 C905 1.419 . S
C904 C902 1.415 . S
C904 C909 1.425 . S
C904 C911 1.409 . S
C905 H897 0.930 . S
C905 C903 1.419 . S
C905 C906 1.362 . S
C906 H898 0.930 . S
C906 C905 1.362 . S
C906 C909 1.409 . S
C907 H899 0.930 . S
C907 C908 1.355 . S
C907 C909 1.415 . S
C908 C907 1.355 . S
C908 C910 1.419 . S
C909 C904 1.425 . S
C909 C906 1.409 . S
C909 C907 1.415 . S
C910 H900 0.930 . S
C910 C908 1.419 . S
C910 C911 1.362 . S
C911 H901 0.930 . S
C911 C904 1.409 . S
C911 C910 1.362 . S
H912 C918 0.930 . S
H913 C921 0.930 . S
H914 C922 0.930 . S
H915 C923 0.930 . S
H916 C926 0.930 . S
H917 C927 0.930 . S
C918 H912 0.930 . S
C918 C919 1.355 . S
C918 C920 1.415 . S
C919 C918 1.355 . S
C919 C921 1.419 . S
C920 C918 1.415 . S
C920 C925 1.425 . S
C920 C927 1.409 . S
C921 H913 0.930 . S
C921 C919 1.419 . S
C921 C922 1.362 . S
C922 H914 0.930 . S
C922 C921 1.362 . S
C922 C925 1.409 . S
C923 H915 0.930 . S
C923 C924 1.355 . S
C923 C925 1.415 . S
C924 C923 1.355 . S
C924 C926 1.419 . S
C925 C920 1.425 . S
C925 C922 1.409 . S
C925 C923 1.415 . S
C926 H916 0.930 . S
C926 C924 1.419 . S
C926 C927 1.362 . S
C927 H917 0.930 . S
C927 C920 1.409 . S
C927 C926 1.362 . S
H928 C934 0.930 . S
H929 C937 0.930 . S
H930 C938 0.930 . S
H931 C939 0.930 . S
H932 C942 0.930 . S
H933 C943 0.930 . S
C934 H928 0.930 . S
C934 C935 1.355 . S
C934 C936 1.415 . S
C935 C934 1.355 . S
C935 C937 1.419 . S
C936 C934 1.415 . S
C936 C941 1.425 . S
C936 C943 1.409 . S
C937 H929 0.930 . S
C937 C935 1.419 . S
C937 C938 1.362 . S
C938 H930 0.930 . S
C938 C937 1.362 . S
C938 C941 1.409 . S
C939 H931 0.930 . S
C939 C940 1.355 . S
C939 C941 1.415 . S
C940 C939 1.355 . S
C940 C942 1.419 . S
C941 C936 1.425 . S
C941 C938 1.409 . S
C941 C939 1.415 . S
C942 H932 0.930 . S
C942 C940 1.419 . S
C942 C943 1.362 . S
C943 H933 0.930 . S
C943 C936 1.409 . S
C943 C942 1.362 . S
H944 C950 0.930 . S
H945 C953 0.930 . S
H946 C954 0.942 . S
H947 C955 0.930 . S
H948 C958 0.930 . S
H949 C959 0.930 1_655 S
C950 H944 0.930 . S
C950 C951 1.355 . S
C950 C952 1.415 . S
C951 C950 1.355 . S
C951 C953 1.419 . S
C952 C950 1.415 . S
C952 C957 1.425 1_655 S
C952 C959 1.409 1_655 S
C953 H945 0.930 . S
C953 C951 1.419 . S
C953 C954 1.362 . S
C954 H946 0.942 . S
C954 C953 1.362 . S
C954 C957 1.409 1_655 S
C955 H947 0.930 . S
C955 C956 1.355 . S
C955 C957 1.415 . S
C956 C955 1.355 . S
C956 C958 1.419 . S
C957 C952 1.425 1_455 S
C957 C954 1.409 1_455 S
C957 C955 1.415 . S
C958 H948 0.930 . S
C958 C956 1.419 . S
C958 C959 1.362 . S
C959 H949 0.930 1_455 S
C959 C952 1.409 1_455 S
C959 C958 1.362 . S
H960 C966 0.930 . S
H961 C969 0.930 . S
H962 C970 0.930 . S
H963 C971 0.930 . S
H964 C974 0.930 . S
H965 C975 0.930 . S
C966 H960 0.930 . S
C966 C967 1.355 . S
C966 C968 1.415 . S
C967 C966 1.355 . S
C967 C969 1.419 . S
C968 C966 1.415 . S
C968 C973 1.425 . S
C968 C975 1.409 . S
C969 H961 0.930 . S
C969 C967 1.419 . S
C969 C970 1.362 . S
C970 H962 0.930 . S
C970 C969 1.362 . S
C970 C973 1.409 . S
C971 H963 0.930 . S
C971 C972 1.355 . S
C971 C973 1.415 . S
C972 C971 1.355 . S
C972 C974 1.419 . S
C973 C968 1.425 . S
C973 C970 1.409 . S
C973 C971 1.415 . S
C974 H964 0.930 . S
C974 C972 1.419 . S
C974 C975 1.362 . S
C975 H965 0.930 . S
C975 C968 1.409 . S
C975 C974 1.362 . S
H976 C982 0.930 . S
H977 C985 0.930 . S
H978 C986 0.930 . S
H979 C987 0.930 . S
H980 C990 0.930 . S
H981 C991 0.930 . S
C982 H976 0.930 . S
C982 C983 1.355 . S
C982 C984 1.415 . S
C983 C982 1.355 . S
C983 C985 1.419 . S
C984 C982 1.415 . S
C984 C989 1.425 1_455 S
C984 C991 1.409 1_455 S
C985 H977 0.930 . S
C985 C983 1.419 . S
C985 C986 1.362 . S
C986 H978 0.930 . S
C986 C985 1.362 . S
C986 C989 1.409 1_455 S
C987 H979 0.930 . S
C987 C988 1.355 . S
C987 C989 1.415 . S
C988 C987 1.355 . S
C988 C990 1.419 . S
C989 C984 1.425 1_655 S
C989 C986 1.409 1_655 S
C989 C987 1.415 . S
C990 H980 0.930 . S
C990 C988 1.419 . S
C990 C991 1.362 . S
C991 H981 0.930 . S
C991 C984 1.409 1_655 S
C991 C990 1.362 . S
H992 C998 0.930 . S
H993 C1001 0.930 . S
H994 C1002 0.930 . S
H995 C1003 0.930 . S
H996 C1006 0.930 . S
H997 C1007 0.930 . S
C998 H992 0.930 . S
C998 C999 1.355 . S
C998 C1000 1.415 . S
C999 C998 1.355 . S
C999 C1001 1.419 . S
C1000 C998 1.415 . S
C1000 C1005 1.425 . S
C1000 C1007 1.409 . S
C1001 H993 0.930 . S
C1001 C999 1.419 . S
C1001 C1002 1.362 . S
C1002 H994 0.930 . S
C1002 C1001 1.362 . S
C1002 C1005 1.409 . S
C1003 H995 0.930 . S
C1003 C1004 1.355 . S
C1003 C1005 1.415 . S
C1004 C1003 1.355 . S
C1004 C1006 1.419 . S
C1005 C1000 1.425 . S
C1005 C1002 1.409 . S
C1005 C1003 1.415 . S
C1006 H996 0.930 . S
C1006 C1004 1.419 . S
C1006 C1007 1.362 . S
C1007 H997 0.930 . S
C1007 C1000 1.409 . S
C1007 C1006 1.362 . S
H1008 C1014 0.930 . S
H1009 C1017 0.930 . S
H1010 C1018 0.930 . S
H1011 C1019 0.930 . S
H1012 C1022 0.930 . S
H1013 C1023 0.930 . S
C1014 H1008 0.930 . S
C1014 C1015 1.355 . S
C1014 C1016 1.415 . S
C1015 C1014 1.355 . S
C1015 C1017 1.419 . S
C1016 C1014 1.415 . S
C1016 C1021 1.425 . S
C1016 C1023 1.409 . S
C1017 H1009 0.930 . S
C1017 C1015 1.419 . S
C1017 C1018 1.362 . S
C1018 H1010 0.930 . S
C1018 C1017 1.362 . S
C1018 C1021 1.409 . S
C1019 H1011 0.930 . S
C1019 C1020 1.355 . S
C1019 C1021 1.415 . S
C1020 C1019 1.355 . S
C1020 C1022 1.419 . S
C1021 C1016 1.425 . S
C1021 C1018 1.409 . S
C1021 C1019 1.415 . S
C1022 H1012 0.930 . S
C1022 C1020 1.419 . S
C1022 C1023 1.362 . S
C1023 H1013 0.930 . S
C1023 C1016 1.409 . S
C1023 C1022 1.362 . S
H1024 C1030 0.930 . S
H1025 C1033 0.930 . S
H1026 C1034 0.930 . S
H1027 C1035 0.930 . S
H1028 C1038 0.930 . S
H1029 C1039 0.930 . S
C1030 H1024 0.930 . S
C1030 C1031 1.355 . S
C1030 C1032 1.415 . S
C1031 C1030 1.355 . S
C1031 C1033 1.419 . S
C1032 C1030 1.415 . S
C1032 C1037 1.425 . S
C1032 C1039 1.409 . S
C1033 H1025 0.930 . S
C1033 C1031 1.419 . S
C1033 C1034 1.362 . S
C1034 H1026 0.930 . S
C1034 C1033 1.362 . S
C1034 C1037 1.409 . S
C1035 H1027 0.930 . S
C1035 C1036 1.355 . S
C1035 C1037 1.415 . S
C1036 C1035 1.355 . S
C1036 C1038 1.419 . S
C1037 C1032 1.425 . S
C1037 C1034 1.409 . S
C1037 C1035 1.415 . S
C1038 H1028 0.930 . S
C1038 C1036 1.419 . S
C1038 C1039 1.362 . S
C1039 H1029 0.930 . S
C1039 C1032 1.409 . S
C1039 C1038 1.362 . S
H1040 C1046 0.930 . S
H1041 C1049 0.930 . S
H1042 C1050 0.930 . S
H1043 C1051 0.930 . S
H1044 C1054 0.930 . S
H1045 C1055 0.930 . S
C1046 H1040 0.930 . S
C1046 C1047 1.355 . S
C1046 C1048 1.415 . S
C1047 C1046 1.355 . S
C1047 C1049 1.419 . S
C1048 C1046 1.415 . S
C1048 C1053 1.425 . S
C1048 C1055 1.409 . S
C1049 H1041 0.930 . S
C1049 C1047 1.419 . S
C1049 C1050 1.362 . S
C1050 H1042 0.930 . S
C1050 C1049 1.362 . S
C1050 C1053 1.409 . S
C1051 H1043 0.930 . S
C1051 C1052 1.355 . S
C1051 C1053 1.415 . S
C1052 C1051 1.355 . S
C1052 C1054 1.419 . S
C1053 C1048 1.425 . S
C1053 C1050 1.409 . S
C1053 C1051 1.415 . S
C1054 H1044 0.930 . S
C1054 C1052 1.419 . S
C1054 C1055 1.362 . S
C1055 H1045 0.930 . S
C1055 C1048 1.409 . S
C1055 C1054 1.362 . S
H1056 C1062 0.930 . S
H1057 C1065 0.930 . S
H1058 C1066 0.930 . S
H1059 C1067 0.930 . S
H1060 C1070 0.930 . S
H1061 C1071 0.930 . S
C1062 H1056 0.930 . S
C1062 C1063 1.355 . S
C1062 C1064 1.415 . S
C1063 C1062 1.355 . S
C1063 C1065 1.419 . S
C1064 C1062 1.415 . S
C1064 C1069 1.425 . S
C1064 C1071 1.409 . S
C1065 H1057 0.930 . S
C1065 C1063 1.419 . S
C1065 C1066 1.362 . S
C1066 H1058 0.930 . S
C1066 C1065 1.362 . S
C1066 C1069 1.409 . S
C1067 H1059 0.930 . S
C1067 C1068 1.355 . S
C1067 C1069 1.415 . S
C1068 C1067 1.355 . S
C1068 C1070 1.419 . S
C1069 C1064 1.425 . S
C1069 C1066 1.409 . S
C1069 C1067 1.415 . S
C1070 H1060 0.930 . S
C1070 C1068 1.419 . S
C1070 C1071 1.362 . S
C1071 H1061 0.930 . S
C1071 C1064 1.409 . S
C1071 C1070 1.362 . S
H1072 C1078 0.930 . S
H1073 C1081 0.930 . S
H1074 C1082 0.930 . S
H1075 C1083 0.930 . S
H1076 C1086 0.930 . S
H1077 C1087 0.930 . S
C1078 H1072 0.930 . S
C1078 C1079 1.355 . S
C1078 C1080 1.415 . S
C1079 C1078 1.355 . S
C1079 C1081 1.419 . S
C1080 C1078 1.415 . S
C1080 C1085 1.425 . S
C1080 C1087 1.409 . S
C1081 H1073 0.930 . S
C1081 C1079 1.419 . S
C1081 C1082 1.362 . S
C1082 H1074 0.930 . S
C1082 C1081 1.362 . S
C1082 C1085 1.409 . S
C1083 H1075 0.930 . S
C1083 C1084 1.355 . S
C1083 C1085 1.415 . S
C1084 C1083 1.355 . S
C1084 C1086 1.419 . S
C1085 C1080 1.425 . S
C1085 C1082 1.409 . S
C1085 C1083 1.415 . S
C1086 H1076 0.930 . S
C1086 C1084 1.419 . S
C1086 C1087 1.362 . S
C1087 H1077 0.930 . S
C1087 C1080 1.409 . S
C1087 C1086 1.362 . S
H1088 C1094 0.930 . S
H1089 C1097 0.930 . S
H1090 C1098 0.930 . S
H1091 C1099 0.930 . S
H1092 C1102 0.930 . S
H1093 C1103 0.930 . S
C1094 H1088 0.930 . S
C1094 C1095 1.355 . S
C1094 C1096 1.427 . S
C1095 C1094 1.355 . S
C1095 C1097 1.419 . S
C1096 C1094 1.427 . S
C1096 C1101 1.423 1_655 S
C1096 C1103 1.399 1_655 S
C1097 H1089 0.930 . S
C1097 C1095 1.419 . S
C1097 C1098 1.362 . S
C1098 H1090 0.930 . S
C1098 C1097 1.362 . S
C1098 C1101 1.409 1_655 S
C1099 H1091 0.930 . S
C1099 C1100 1.355 . S
C1099 C1101 1.415 . S
C1100 C1099 1.355 . S
C1100 C1102 1.419 . S
C1101 C1096 1.423 1_455 S
C1101 C1098 1.409 1_455 S
C1101 C1099 1.415 . S
C1102 H1092 0.930 . S
C1102 C1100 1.419 . S
C1102 C1103 1.362 . S
C1103 H1093 0.930 . S
C1103 C1096 1.399 1_455 S
C1103 C1102 1.362 . S
H1104 C1110 0.930 . S
H1105 C1113 0.930 . S
H1106 C1114 0.930 . S
H1107 C1115 0.930 . S
H1108 C1118 0.930 . S
H1109 C1119 0.930 . S
C1110 H1104 0.930 . S
C1110 C1111 1.355 . S
C1110 C1112 1.415 . S
C1111 C1110 1.355 . S
C1111 C1113 1.419 . S
C1112 C1110 1.415 . S
C1112 C1117 1.425 . S
C1112 C1119 1.409 . S
C1113 H1105 0.930 . S
C1113 C1111 1.419 . S
C1113 C1114 1.362 . S
C1114 H1106 0.930 . S
C1114 C1113 1.362 . S
C1114 C1117 1.409 . S
C1115 H1107 0.930 . S
C1115 C1116 1.355 . S
C1115 C1117 1.415 . S
C1116 C1115 1.355 . S
C1116 C1118 1.419 . S
C1117 C1112 1.425 . S
C1117 C1114 1.409 . S
C1117 C1115 1.415 . S
C1118 H1108 0.930 . S
C1118 C1116 1.419 . S
C1118 C1119 1.362 . S
C1119 H1109 0.930 . S
C1119 C1112 1.409 . S
C1119 C1118 1.362 . S
H1120 C1126 0.930 . S
H1121 C1129 0.930 . S
H1122 C1130 0.930 . S
H1123 C1131 0.930 . S
H1124 C1134 0.930 . S
H1125 C1135 0.930 . S
C1126 H1120 0.930 . S
C1126 C1127 1.355 . S
C1126 C1128 1.415 . S
C1127 C1126 1.355 . S
C1127 C1129 1.419 . S
C1128 C1126 1.415 . S
C1128 C1133 1.425 . S
C1128 C1135 1.409 . S
C1129 H1121 0.930 . S
C1129 C1127 1.419 . S
C1129 C1130 1.362 . S
C1130 H1122 0.930 . S
C1130 C1129 1.362 . S
C1130 C1133 1.409 . S
C1131 H1123 0.930 . S
C1131 C1132 1.355 . S
C1131 C1133 1.415 . S
C1132 C1131 1.355 . S
C1132 C1134 1.419 . S
C1133 C1128 1.425 . S
C1133 C1130 1.409 . S
C1133 C1131 1.415 . S
C1134 H1124 0.930 . S
C1134 C1132 1.419 . S
C1134 C1135 1.362 . S
C1135 H1125 0.930 . S
C1135 C1128 1.409 . S
C1135 C1134 1.362 . S
H1136 C1142 0.930 . S
H1137 C1145 0.930 . S
H1138 C1146 0.930 . S
H1139 C1147 0.930 . S
H1140 C1150 0.930 . S
H1141 C1151 0.930 . S
C1142 H1136 0.930 . S
C1142 C1143 1.355 . S
C1142 C1144 1.415 . S
C1143 C1142 1.355 . S
C1143 C1145 1.419 . S
C1144 C1142 1.415 . S
C1144 C1149 1.425 1_455 S
C1144 C1151 1.409 1_455 S
C1145 H1137 0.930 . S
C1145 C1143 1.419 . S
C1145 C1146 1.362 . S
C1146 H1138 0.930 . S
C1146 C1145 1.362 . S
C1146 C1149 1.409 1_455 S
C1147 H1139 0.930 . S
C1147 C1148 1.355 . S
C1147 C1149 1.415 . S
C1148 C1147 1.355 . S
C1148 C1150 1.419 . S
C1149 C1144 1.425 1_655 S
C1149 C1146 1.409 1_655 S
C1149 C1147 1.415 . S
C1150 H1140 0.930 . S
C1150 C1148 1.419 . S
C1150 C1151 1.362 . S
C1151 H1141 0.930 . S
C1151 C1144 1.409 1_655 S
C1151 C1150 1.362 . S
H1152 C1158 0.930 . S
H1153 C1161 0.930 . S
H1154 C1162 0.930 1_556 S
H1155 C1163 0.930 . S
H1156 C1166 0.930 . S
H1157 C1167 0.930 . S
C1158 H1152 0.930 . S
C1158 C1159 1.355 . S
C1158 C1160 1.415 . S
C1159 C1158 1.355 . S
C1159 C1161 1.419 . S
C1160 C1158 1.415 . S
C1160 C1165 1.425 . S
C1160 C1167 1.409 . S
C1161 H1153 0.930 . S
C1161 C1159 1.419 . S
C1161 C1162 1.362 . S
C1162 H1154 0.930 1_554 S
C1162 C1161 1.362 . S
C1162 C1165 1.409 . S
C1163 H1155 0.930 . S
C1163 C1164 1.355 . S
C1163 C1165 1.415 1_556 S
C1164 C1163 1.355 . S
C1164 C1166 1.419 1_556 S
C1165 C1160 1.425 . S
C1165 C1162 1.409 . S
C1165 C1163 1.415 1_554 S
C1166 H1156 0.930 . S
C1166 C1164 1.419 1_554 S
C1166 C1167 1.362 . S
C1167 H1157 0.930 . S
C1167 C1160 1.409 . S
C1167 C1166 1.362 . S
H1168 C1174 0.930 . S
H1169 C1177 0.930 . S
H1170 C1178 0.930 . S
H1171 C1179 0.930 . S
H1172 C1182 0.930 . S
H1173 C1183 0.930 . S
C1174 H1168 0.930 . S
C1174 C1175 1.355 . S
C1174 C1176 1.415 . S
C1175 C1174 1.355 . S
C1175 C1177 1.419 . S
C1176 C1174 1.415 . S
C1176 C1181 1.425 . S
C1176 C1183 1.409 . S
C1177 H1169 0.930 . S
C1177 C1175 1.419 . S
C1177 C1178 1.362 . S
C1178 H1170 0.930 . S
C1178 C1177 1.362 . S
C1178 C1181 1.409 . S
C1179 H1171 0.930 . S
C1179 C1180 1.355 . S
C1179 C1181 1.415 . S
C1180 C1179 1.355 . S
C1180 C1182 1.419 . S
C1181 C1176 1.425 . S
C1181 C1178 1.409 . S
C1181 C1179 1.415 . S
C1182 H1172 0.930 . S
C1182 C1180 1.419 . S
C1182 C1183 1.362 . S
C1183 H1173 0.930 . S
C1183 C1176 1.409 . S
C1183 C1182 1.362 . S
H1184 C1190 0.930 . S
H1185 C1193 0.930 . S
H1186 C1194 0.930 . S
H1187 C1195 0.930 . S
H1188 C1198 0.930 . S
H1189 C1199 0.930 . S
C1190 H1184 0.930 . S
C1190 C1191 1.355 . S
C1190 C1192 1.415 . S
C1191 C1190 1.355 . S
C1191 C1193 1.419 . S
C1192 C1190 1.415 . S
C1192 C1197 1.425 . S
C1192 C1199 1.409 . S
C1193 H1185 0.930 . S
C1193 C1191 1.419 . S
C1193 C1194 1.362 . S
C1194 H1186 0.930 . S
C1194 C1193 1.362 . S
C1194 C1197 1.409 . S
C1195 H1187 0.930 . S
C1195 C1196 1.355 . S
C1195 C1197 1.415 . S
C1196 C1195 1.355 . S
C1196 C1198 1.419 . S
C1197 C1192 1.425 . S
C1197 C1194 1.409 . S
C1197 C1195 1.415 . S
C1198 H1188 0.930 . S
C1198 C1196 1.419 . S
C1198 C1199 1.362 . S
C1199 H1189 0.930 . S
C1199 C1192 1.409 . S
C1199 C1198 1.362 . S
H1200 C1206 0.930 . S
H1201 C1209 0.930 . S
H1202 C1210 0.930 . S
H1203 C1211 0.930 . S
H1204 C1214 0.930 . S
H1205 C1215 0.930 . S
C1206 H1200 0.930 . S
C1206 C1207 1.355 . S
C1206 C1208 1.415 . S
C1207 C1206 1.355 . S
C1207 C1209 1.419 . S
C1208 C1206 1.415 . S
C1208 C1213 1.425 . S
C1208 C1215 1.409 . S
C1209 H1201 0.930 . S
C1209 C1207 1.419 . S
C1209 C1210 1.362 . S
C1210 H1202 0.930 . S
C1210 C1209 1.362 . S
C1210 C1213 1.409 . S
C1211 H1203 0.930 . S
C1211 C1212 1.355 . S
C1211 C1213 1.415 . S
C1212 C1211 1.355 . S
C1212 C1214 1.419 . S
C1213 C1208 1.425 . S
C1213 C1210 1.409 . S
C1213 C1211 1.415 . S
C1214 H1204 0.930 . S
C1214 C1212 1.419 . S
C1214 C1215 1.362 . S
C1215 H1205 0.930 . S
C1215 C1208 1.409 . S
C1215 C1214 1.362 . S
H1216 C1222 0.930 . S
H1217 C1225 0.930 . S
H1218 C1226 0.930 . S
H1219 C1227 0.930 . S
H1220 C1230 0.930 . S
H1221 C1231 0.930 1_554 S
C1222 H1216 0.930 . S
C1222 C1223 1.355 . S
C1222 C1224 1.415 1_554 S
C1223 C1222 1.355 . S
C1223 C1225 1.419 1_554 S
C1224 C1222 1.415 1_556 S
C1224 C1229 1.425 . S
C1224 C1231 1.409 . S
C1225 H1217 0.930 . S
C1225 C1223 1.419 1_556 S
C1225 C1226 1.362 . S
C1226 H1218 0.930 . S
C1226 C1225 1.362 . S
C1226 C1229 1.409 . S
C1227 H1219 0.930 . S
C1227 C1228 1.355 . S
C1227 C1229 1.415 . S
C1228 C1227 1.355 . S
C1228 C1230 1.419 . S
C1229 C1224 1.425 . S
C1229 C1226 1.409 . S
C1229 C1227 1.415 . S
C1230 H1220 0.930 . S
C1230 C1228 1.419 . S
C1230 C1231 1.362 . S
C1231 H1221 0.930 1_556 S
C1231 C1224 1.409 . S
C1231 C1230 1.362 . S
H1232 C1238 0.930 . S
H1233 C1241 0.930 . S
H1234 C1242 0.930 . S
H1235 C1243 0.930 . S
H1236 C1246 0.930 . S
H1237 C1247 0.930 . S
C1238 H1232 0.930 . S
C1238 C1239 1.355 . S
C1238 C1240 1.415 . S
C1239 C1238 1.355 . S
C1239 C1241 1.419 . S
C1240 C1238 1.415 . S
C1240 C1245 1.425 . S
C1240 C1247 1.409 . S
C1241 H1233 0.930 . S
C1241 C1239 1.419 . S
C1241 C1242 1.362 . S
C1242 H1234 0.930 . S
C1242 C1241 1.362 . S
C1242 C1245 1.409 . S
C1243 H1235 0.930 . S
C1243 C1244 1.355 . S
C1243 C1245 1.415 . S
C1244 C1243 1.355 . S
C1244 C1246 1.419 . S
C1245 C1240 1.425 . S
C1245 C1242 1.409 . S
C1245 C1243 1.415 . S
C1246 H1236 0.930 . S
C1246 C1244 1.419 . S
C1246 C1247 1.362 . S
C1247 H1237 0.930 . S
C1247 C1240 1.409 . S
C1247 C1246 1.362 . S
H1248 C1254 0.930 . S
H1249 C1257 0.930 . S
H1250 C1258 0.930 . S
H1251 C1259 0.930 . S
H1252 C1262 0.930 . S
H1253 C1263 0.930 . S
C1254 H1248 0.930 . S
C1254 C1255 1.355 . S
C1254 C1256 1.415 . S
C1255 C1254 1.355 . S
C1255 C1257 1.419 . S
C1256 C1254 1.415 . S
C1256 C1261 1.425 . S
C1256 C1263 1.409 . S
C1257 H1249 0.930 . S
C1257 C1255 1.419 . S
C1257 C1258 1.362 . S
C1258 H1250 0.930 . S
C1258 C1257 1.362 . S
C1258 C1261 1.409 . S
C1259 H1251 0.930 . S
C1259 C1260 1.355 . S
C1259 C1261 1.415 . S
C1260 C1259 1.355 . S
C1260 C1262 1.419 . S
C1261 C1256 1.425 . S
C1261 C1258 1.409 . S
C1261 C1259 1.415 . S
C1262 H1252 0.930 . S
C1262 C1260 1.419 . S
C1262 C1263 1.362 . S
C1263 H1253 0.930 . S
C1263 C1256 1.409 . S
C1263 C1262 1.362 . S
H1264 C1270 0.930 . S
H1265 C1273 0.930 . S
H1266 C1274 0.930 . S
H1267 C1275 0.930 . S
H1268 C1278 0.930 . S
H1269 C1279 0.930 . S
C1270 H1264 0.930 . S
C1270 C1271 1.355 . S
C1270 C1272 1.415 . S
C1271 C1270 1.355 . S
C1271 C1273 1.419 . S
C1272 C1270 1.415 . S
C1272 C1277 1.425 . S
C1272 C1279 1.409 . S
C1273 H1265 0.930 . S
C1273 C1271 1.419 . S
C1273 C1274 1.362 . S
C1274 H1266 0.930 . S
C1274 C1273 1.362 . S
C1274 C1277 1.409 . S
C1275 H1267 0.930 . S
C1275 C1276 1.355 . S
C1275 C1277 1.415 . S
C1276 C1275 1.355 . S
C1276 C1278 1.419 . S
C1277 C1272 1.425 . S
C1277 C1274 1.409 . S
C1277 C1275 1.415 . S
C1278 H1268 0.930 . S
C1278 C1276 1.419 . S
C1278 C1279 1.362 . S
C1279 H1269 0.930 . S
C1279 C1272 1.409 . S
C1279 C1278 1.362 . S
H1280 C1286 0.930 . S
H1281 C1289 0.930 . S
H1282 C1290 0.930 . S
H1283 C1291 0.930 . S
H1284 C1294 0.930 . S
H1285 C1295 0.930 . S
C1286 H1280 0.930 . S
C1286 C1287 1.355 . S
C1286 C1288 1.415 . S
C1287 C1286 1.355 . S
C1287 C1289 1.419 . S
C1288 C1286 1.415 . S
C1288 C1293 1.425 1_565 S
C1288 C1295 1.409 . S
C1289 H1281 0.930 . S
C1289 C1287 1.419 . S
C1289 C1290 1.362 1_565 S
C1290 H1282 0.930 . S
C1290 C1289 1.362 1_545 S
C1290 C1293 1.409 . S
C1291 H1283 0.930 . S
C1291 C1292 1.355 . S
C1291 C1293 1.415 . S
C1292 C1291 1.355 . S
C1292 C1294 1.419 . S
C1293 C1288 1.425 1_545 S
C1293 C1290 1.409 . S
C1293 C1291 1.415 . S
C1294 H1284 0.930 . S
C1294 C1292 1.419 . S
C1294 C1295 1.362 1_545 S
C1295 H1285 0.930 . S
C1295 C1288 1.409 . S
C1295 C1294 1.362 1_565 S
H1296 C1302 0.930 . S
H1297 C1305 0.930 . S
H1298 C1306 0.930 . S
H1299 C1307 0.930 . S
H1300 C1310 0.930 . S
H1301 C1311 0.930 . S
C1302 H1296 0.930 . S
C1302 C1303 1.355 . S
C1302 C1304 1.415 . S
C1303 C1302 1.355 . S
C1303 C1305 1.419 . S
C1304 C1302 1.415 . S
C1304 C1309 1.425 . S
C1304 C1311 1.409 . S
C1305 H1297 0.930 . S
C1305 C1303 1.419 . S
C1305 C1306 1.362 . S
C1306 H1298 0.930 . S
C1306 C1305 1.362 . S
C1306 C1309 1.409 . S
C1307 H1299 0.930 . S
C1307 C1308 1.355 . S
C1307 C1309 1.415 . S
C1308 C1307 1.355 . S
C1308 C1310 1.419 . S
C1309 C1304 1.425 . S
C1309 C1306 1.409 . S
C1309 C1307 1.415 . S
C1310 H1300 0.930 . S
C1310 C1308 1.419 . S
C1310 C1311 1.362 . S
C1311 H1301 0.930 . S
C1311 C1304 1.409 . S
C1311 C1310 1.362 . S
H1312 C1318 0.930 . S
H1313 C1321 0.930 . S
H1314 C1322 0.930 . S
H1315 C1323 0.930 . S
H1316 C1326 0.930 . S
H1317 C1327 0.930 1_565 S
C1318 H1312 0.930 . S
C1318 C1319 1.355 . S
C1318 C1320 1.415 . S
C1319 C1318 1.355 . S
C1319 C1321 1.419 . S
C1320 C1318 1.415 . S
C1320 C1325 1.425 1_565 S
C1320 C1327 1.409 1_565 S
C1321 H1313 0.930 . S
C1321 C1319 1.419 . S
C1321 C1322 1.362 1_565 S
C1322 H1314 0.930 . S
C1322 C1321 1.362 1_545 S
C1322 C1325 1.409 . S
C1323 H1315 0.930 . S
C1323 C1324 1.355 1_554 S
C1323 C1325 1.415 . S
C1324 C1323 1.355 1_556 S
C1324 C1326 1.419 . S
C1325 C1320 1.425 1_545 S
C1325 C1322 1.409 . S
C1325 C1323 1.415 . S
C1326 H1316 0.930 . S
C1326 C1324 1.419 . S
C1326 C1327 1.362 1_556 S
C1327 H1317 0.930 1_545 S
C1327 C1320 1.409 1_545 S
C1327 C1326 1.362 1_554 S
H1328 C1334 0.930 . S
H1329 C1337 0.930 . S
H1330 C1338 0.930 . S
H1331 C1339 0.930 . S
H1332 C1342 0.930 . S
H1333 C1343 0.930 . S
C1334 H1328 0.930 . S
C1334 C1335 1.355 . S
C1334 C1336 1.415 . S
C1335 C1334 1.355 . S
C1335 C1337 1.419 . S
C1336 C1334 1.415 . S
C1336 C1341 1.425 . S
C1336 C1343 1.409 . S
C1337 H1329 0.930 . S
C1337 C1335 1.419 . S
C1337 C1338 1.362 . S
C1338 H1330 0.930 . S
C1338 C1337 1.362 . S
C1338 C1341 1.409 . S
C1339 H1331 0.930 . S
C1339 C1340 1.355 . S
C1339 C1341 1.415 . S
C1340 C1339 1.355 . S
C1340 C1342 1.419 . S
C1341 C1336 1.425 . S
C1341 C1338 1.409 . S
C1341 C1339 1.415 . S
C1342 H1332 0.930 . S
C1342 C1340 1.419 . S
C1342 C1343 1.362 . S
C1343 H1333 0.930 . S
C1343 C1336 1.409 . S
C1343 C1342 1.362 . S
H1344 C1350 0.930 . S
H1345 C1353 0.930 . S
H1346 C1354 0.930 . S
H1347 C1355 0.930 . S
H1348 C1358 0.930 . S
H1349 C1359 0.930 . S
C1350 H1344 0.930 . S
C1350 C1351 1.355 . S
C1350 C1352 1.415 . S
C1351 C1350 1.355 . S
C1351 C1353 1.419 . S
C1352 C1350 1.415 . S
C1352 C1357 1.425 1_565 S
C1352 C1359 1.409 . S
C1353 H1345 0.930 . S
C1353 C1351 1.419 . S
C1353 C1354 1.362 1_565 S
C1354 H1346 0.930 . S
C1354 C1353 1.362 1_545 S
C1354 C1357 1.409 . S
C1355 H1347 0.930 . S
C1355 C1356 1.355 . S
C1355 C1357 1.415 . S
C1356 C1355 1.355 . S
C1356 C1358 1.419 . S
C1357 C1352 1.425 1_545 S
C1357 C1354 1.409 . S
C1357 C1355 1.415 . S
C1358 H1348 0.930 . S
C1358 C1356 1.419 . S
C1358 C1359 1.362 1_545 S
C1359 H1349 0.930 . S
C1359 C1352 1.409 . S
C1359 C1358 1.362 1_565 S
H1360 C1366 0.930 . S
H1361 C1369 0.930 . S
H1362 C1370 0.930 . S
H1363 C1371 0.930 . S
H1364 C1374 0.930 . S
H1365 C1375 0.930 . S
C1366 H1360 0.930 . S
C1366 C1367 1.355 . S
C1366 C1368 1.415 . S
C1367 C1366 1.355 . S
C1367 C1369 1.419 . S
C1368 C1366 1.415 . S
C1368 C1373 1.425 . S
C1368 C1375 1.409 . S
C1369 H1361 0.930 . S
C1369 C1367 1.419 . S
C1369 C1370 1.362 . S
C1370 H1362 0.930 . S
C1370 C1369 1.362 . S
C1370 C1373 1.409 . S
C1371 H1363 0.930 . S
C1371 C1372 1.355 . S
C1371 C1373 1.415 . S
C1372 C1371 1.355 . S
C1372 C1374 1.419 . S
C1373 C1368 1.425 . S
C1373 C1370 1.409 . S
C1373 C1371 1.415 . S
C1374 H1364 0.930 . S
C1374 C1372 1.419 . S
C1374 C1375 1.362 . S
C1375 H1365 0.930 . S
C1375 C1368 1.409 . S
C1375 C1374 1.362 . S
H1376 C1382 0.930 . S
H1377 C1385 0.930 . S
H1378 C1386 0.930 . S
H1379 C1387 0.930 . S
H1380 C1390 0.930 . S
H1381 C1391 0.930 . S
C1382 H1376 0.930 . S
C1382 C1383 1.355 . S
C1382 C1384 1.415 1_545 S
C1383 C1382 1.355 . S
C1383 C1385 1.419 . S
C1384 C1382 1.415 1_565 S
C1384 C1389 1.432 . S
C1384 C1391 1.409 . S
C1385 H1377 0.930 . S
C1385 C1383 1.419 . S
C1385 C1386 1.362 . S
C1386 H1378 0.930 . S
C1386 C1385 1.362 . S
C1386 C1389 1.386 1_545 S
C1387 H1379 0.930 . S
C1387 C1388 1.355 . S
C1387 C1389 1.431 1_554 S
C1388 C1387 1.355 . S
C1388 C1390 1.419 1_554 S
C1389 C1384 1.432 . S
C1389 C1386 1.386 1_565 S
C1389 C1387 1.431 1_556 S
C1390 H1380 0.930 . S
C1390 C1388 1.419 1_556 S
C1390 C1391 1.362 . S
C1391 H1381 0.930 . S
C1391 C1384 1.409 . S
C1391 C1390 1.362 . S
H1392 C1398 0.930 . S
H1393 C1401 0.930 . S
H1394 C1402 0.930 . S
H1395 C1403 0.930 . S
H1396 C1406 0.930 . S
H1397 C1407 0.930 . S
C1398 H1392 0.930 . S
C1398 C1399 1.355 . S
C1398 C1400 1.415 . S
C1399 C1398 1.355 . S
C1399 C1401 1.419 . S
C1400 C1398 1.415 . S
C1400 C1405 1.425 . S
C1400 C1407 1.409 . S
C1401 H1393 0.930 . S
C1401 C1399 1.419 . S
C1401 C1402 1.362 . S
C1402 H1394 0.930 . S
C1402 C1401 1.362 . S
C1402 C1405 1.409 . S
C1403 H1395 0.930 . S
C1403 C1404 1.355 . S
C1403 C1405 1.415 . S
C1404 C1403 1.355 . S
C1404 C1406 1.419 . S
C1405 C1400 1.425 . S
C1405 C1402 1.409 . S
C1405 C1403 1.415 . S
C1406 H1396 0.930 . S
C1406 C1404 1.419 . S
C1406 C1407 1.362 . S
C1407 H1397 0.930 . S
C1407 C1400 1.409 . S
C1407 C1406 1.362 . S
C647 C26 1.585 . S
C652 C9 1.585 . S
C663 C49 1.493 1_556 S
C668 C66 1.493 . S
C679 C89 1.589 . S
C684 C106 1.589 . S
C695 C129 1.870 . S
C700 C146 1.870 . S
C711 C186 1.459 . S
C716 C169 1.459 . S
C727 C209 1.669 . S
C732 C226 1.669 . S
C743 C266 1.853 . S
C748 C249 1.853 1_556 S
C759 C289 1.604 . S
C764 C306 1.604 . S
C775 C329 1.568 . S
C780 C346 1.568 . S
C791 C369 1.478 . S
C796 C386 1.478 1_554 S
C807 C409 1.654 . S
C812 C426 1.654 . S
C823 C466 1.867 . S
C828 C449 1.867 . S
C839 C489 1.509 . S
C844 C506 1.509 . S
C855 C529 1.622 . S
C860 C546 1.622 . S
C871 C569 1.872 . S
C876 C586 1.872 1_554 S
C887 C626 1.573 . S
C892 C609 1.573 . S
C903 C22 1.897 . S
C908 C443 1.908 . S
C919 C42 1.626 . S
C924 C615 1.629 . S
C935 C82 1.818 . S
C940 C363 1.877 . S
C951 C122 1.539 . S
C956 C523 1.605 . S
C967 C182 1.883 . S
C972 C535 1.822 . S
C983 C455 1.544 . S
C988 C222 1.609 . S
C999 C262 1.911 . S
C1004 C603 1.882 . S
C1015 C282 1.610 . S
C1020 C375 1.638 . S
C1031 C142 1.887 . S
C1036 C323 1.914 . S
C1047 C62 1.885 . S
C1052 C415 1.819 . S
C1063 C483 1.896 . S
C1068 C202 1.797 . S
C1079 C302 1.911 . S
C1084 C563 1.894 . S
C1095 C335 1.653 . S
C1100 C162 1.584 . S
C1111 C242 1.551 . S
C1116 C403 1.600 . S
C1127 C102 1.611 . S
C1132 C575 1.539 . S
C1143 C2 1.611 . S
C1148 C495 1.637 . S
C1159 C3 1.986 . S
C1164 C163 1.995 . S
C1175 C55 1.817 . S
C1180 C203 1.839 . S
C1191 C95 1.727 . S
C1196 C243 1.720 . S
C1207 C135 1.507 . S
C1212 C295 1.507 . S
C1223 C502 1.996 . S
C1228 C342 1.987 . S
C1239 C542 1.832 . S
C1244 C362 1.826 . S
C1255 C402 1.729 . S
C1260 C582 1.721 . S
C1271 C602 1.494 . S
C1276 C442 1.516 . S
C1287 C43 2.021 . S
C1292 C283 2.016 . S
C1303 C175 1.817 . S
C1308 C83 1.839 . S
C1319 C215 1.744 . S
C1324 C123 1.739 . S
C1335 C15 1.516 . S
C1340 C255 1.508 . S
C1351 C622 2.010 . S
C1356 C382 2.007 . S
C1367 C482 1.818 . S
C1372 C422 1.837 . S
C1383 C522 1.726 . S
C1388 C462 1.720 . S
C1399 C562 1.514 . S
C1404 C322 1.506 . S
