# Generated by pormake.
# Topology umg, (4)-cn, num edge types: 1
# Building blocks:
#     Node 0, Type 0, BuildingBlock: ICAMEG_clean_sbu_1, # of connection points: 4
#     Node 1, Type 0, BuildingBlock: ICAMEG_clean_sbu_1, # of connection points: 4
#     Node 2, Type 0, BuildingBlock: ICAMEG_clean_sbu_1, # of connection points: 4
#     Node 3, Type 0, BuildingBlock: ICAMEG_clean_sbu_1, # of connection points: 4
#     Node 4, Type 0, BuildingBlock: ICAMEG_clean_sbu_1, # of connection points: 4
#     Node 5, Type 0, BuildingBlock: ICAMEG_clean_sbu_1, # of connection points: 4
#     Node 6, Type 0, BuildingBlock: ICAMEG_clean_sbu_1, # of connection points: 4
#     Node 7, Type 0, BuildingBlock: ICAMEG_clean_sbu_1, # of connection points: 4
#     Node 8, Type 0, BuildingBlock: ICAMEG_clean_sbu_1, # of connection points: 4
#     Node 9, Type 0, BuildingBlock: ICAMEG_clean_sbu_1, # of connection points: 4
#     Node 10, Type 0, BuildingBlock: ICAMEG_clean_sbu_1, # of connection points: 4
#     Node 11, Type 0, BuildingBlock: ICAMEG_clean_sbu_1, # of connection points: 4
#     Edge 12, Type (0, 0), BuildingBlock: OJICUG_clean_linker_0, # of connection points: 2
#     Edge 13, Type (0, 0), BuildingBlock: OJICUG_clean_linker_0, # of connection points: 2
#     Edge 14, Type (0, 0), BuildingBlock: OJICUG_clean_linker_0, # of connection points: 2
#     Edge 15, Type (0, 0), BuildingBlock: OJICUG_clean_linker_0, # of connection points: 2
#     Edge 16, Type (0, 0), BuildingBlock: OJICUG_clean_linker_0, # of connection points: 2
#     Edge 17, Type (0, 0), BuildingBlock: OJICUG_clean_linker_0, # of connection points: 2
#     Edge 18, Type (0, 0), BuildingBlock: OJICUG_clean_linker_0, # of connection points: 2
#     Edge 19, Type (0, 0), BuildingBlock: OJICUG_clean_linker_0, # of connection points: 2
#     Edge 20, Type (0, 0), BuildingBlock: OJICUG_clean_linker_0, # of connection points: 2
#     Edge 21, Type (0, 0), BuildingBlock: OJICUG_clean_linker_0, # of connection points: 2
#     Edge 22, Type (0, 0), BuildingBlock: OJICUG_clean_linker_0, # of connection points: 2
#     Edge 23, Type (0, 0), BuildingBlock: OJICUG_clean_linker_0, # of connection points: 2
#     Edge 24, Type (0, 0), BuildingBlock: OJICUG_clean_linker_0, # of connection points: 2
#     Edge 25, Type (0, 0), BuildingBlock: OJICUG_clean_linker_0, # of connection points: 2
#     Edge 26, Type (0, 0), BuildingBlock: OJICUG_clean_linker_0, # of connection points: 2
#     Edge 27, Type (0, 0), BuildingBlock: OJICUG_clean_linker_0, # of connection points: 2
#     Edge 28, Type (0, 0), BuildingBlock: OJICUG_clean_linker_0, # of connection points: 2
#     Edge 29, Type (0, 0), BuildingBlock: OJICUG_clean_linker_0, # of connection points: 2
#     Edge 30, Type (0, 0), BuildingBlock: OJICUG_clean_linker_0, # of connection points: 2
#     Edge 31, Type (0, 0), BuildingBlock: OJICUG_clean_linker_0, # of connection points: 2
#     Edge 32, Type (0, 0), BuildingBlock: OJICUG_clean_linker_0, # of connection points: 2
#     Edge 33, Type (0, 0), BuildingBlock: OJICUG_clean_linker_0, # of connection points: 2
#     Edge 34, Type (0, 0), BuildingBlock: OJICUG_clean_linker_0, # of connection points: 2
#     Edge 35, Type (0, 0), BuildingBlock: OJICUG_clean_linker_0, # of connection points: 2
# Relax obj value: 0.063
# Max RMSD: 0.146
# Mean RMSD: 0.145
data_MOF--net-umg--node1-ICAMEG_clean_sbu_1--edge1-OJICUG_clean_linker_0
_symmetry_space_group_name_H-M    P1
_symmetry_Int_Tables_number       1
_symmetry_cell_setting            triclinic
loop_
_symmetry_equiv_pos_as_xyz
'x, y, z'
_cell_length_a     22.549462
_cell_length_b     22.54853
_cell_length_c     67.334889
_cell_angle_alpha  90.01164
_cell_angle_beta   89.999217
_cell_angle_gamma 120.00008
loop_
_atom_site_label
_atom_site_type_symbol
_atom_site_fract_x
_atom_site_fract_y
_atom_site_fract_z
_atom_type_partial_charge
Co0 Co 0.29502 0.64722 0.0892 0.0
Co1 Co 0.24503 0.48349 0.10543 0.0
O2 O 0.29931 0.56313 0.08885 0.0
C3 C 0.26495 0.59517 0.04841 0.0
O4 O 0.21936 0.53713 0.0565 0.0
C5 C 0.38908 0.52538 0.11381 0.0
O6 O 0.39888 0.58751 0.11592 0.0
O7 O 0.26701 0.54169 0.12949 0.0
O8 O 0.29147 0.64637 0.11899 0.0
H9 H 0.07185 0.34712 0.15803 0.0
H10 H 0.40554 0.64127 0.06684 0.0
O11 O 0.29864 0.64795 0.05931 0.0
H12 H 0.52379 0.82468 0.1164 0.0
H13 H 0.36026 0.88322 0.06496 0.0
H14 H 0.21729 0.69868 0.11198 0.0
H15 H 0.39771 0.76192 0.11412 0.0
H16 H 0.36475 0.77611 0.06565 0.0
O17 O 0.32918 0.4757 0.11002 0.0
H18 H 0.13922 0.4474 0.13649 0.0
H19 H 0.23876 0.34913 0.11029 0.0
H20 H 0.21152 0.80508 0.11191 0.0
H21 H 0.53165 0.70299 0.06853 0.0
H22 H 0.28339 0.89828 0.08827 0.0
H23 H 0.5916 0.79528 0.09349 0.0
O24 O 0.193 0.59543 0.08849 0.0
H25 H 0.30025 0.40534 0.04171 0.0
H26 H 0.11637 0.37 0.08818 0.0
H27 H 0.08752 0.29975 0.0578 0.0
H28 H 0.17988 0.31723 0.03432 0.0
H29 H 0.32666 0.47497 0.07214 0.0
H30 H 0.17289 0.24796 0.13165 0.0
H31 H 0.08854 0.24649 0.15568 0.0
O32 O 0.16066 0.49093 0.10102 0.0
C33 C 0.28175 0.60331 0.13276 0.0
C34 C 0.10826 0.34705 0.14756 0.0
C35 C 0.16504 0.29143 0.13278 0.0
N36 N 0.19233 0.40377 0.12203 0.0
C37 C 0.14636 0.40357 0.13529 0.0
C38 C 0.20227 0.34887 0.12075 0.0
C39 C 0.11771 0.29063 0.14625 0.0
C40 C 0.43124 0.6819 0.07759 0.0
N41 N 0.39429 0.69829 0.09027 0.0
C42 C 0.50268 0.71645 0.07854 0.0
C43 C 0.53628 0.76815 0.09257 0.0
C44 C 0.49825 0.78464 0.10544 0.0
C45 C 0.42688 0.74888 0.10409 0.0
C46 C 0.32877 0.84302 0.07535 0.0
C47 C 0.24898 0.73917 0.10173 0.0
C48 C 0.33098 0.78223 0.07577 0.0
N49 N 0.29163 0.73144 0.08892 0.0
C50 C 0.24537 0.79922 0.10172 0.0
C51 C 0.28565 0.85146 0.08844 0.0
C52 C 0.14718 0.53604 0.09432 0.0
C53 C 0.25959 0.39708 0.05186 0.0
C54 C 0.15676 0.37803 0.078 0.0
C55 C 0.14017 0.33797 0.06085 0.0
C56 C 0.19202 0.34773 0.0477 0.0
N57 N 0.22313 0.42638 0.08196 0.0
C58 C 0.27426 0.43618 0.06915 0.0
Co59 Co 0.65126 0.2923 0.42261 0.0
Co60 Co 0.76473 0.24205 0.4389 0.0
O61 O 0.73956 0.29643 0.4223 0.0
C62 C 0.67334 0.26232 0.38182 0.0
O63 O 0.68569 0.21665 0.3899 0.0
C64 C 0.86699 0.38606 0.44727 0.0
O65 O 0.81468 0.39587 0.4494 0.0
O66 O 0.72854 0.26414 0.46295 0.0
O67 O 0.64845 0.28868 0.4524 0.0
H68 H 0.72745 0.06861 0.49146 0.0
H69 H 0.76792 0.40278 0.40031 0.0
O70 O 0.65427 0.29601 0.39272 0.0
H71 H 0.70294 0.52111 0.44988 0.0
H72 H 0.48089 0.35805 0.39836 0.0
H73 H 0.52195 0.2146 0.44532 0.0
H74 H 0.63937 0.39504 0.44755 0.0
H75 H 0.59239 0.36232 0.39906 0.0
O76 O 0.85674 0.32614 0.4435 0.0
H77 H 0.69479 0.13623 0.46994 0.0
H78 H 0.89268 0.23555 0.4438 0.0
H79 H 0.4099 0.20907 0.44523 0.0
H80 H 0.83258 0.52888 0.40207 0.0
H81 H 0.38882 0.28117 0.42162 0.0
H82 H 0.80034 0.58887 0.42704 0.0
O83 O 0.60092 0.19028 0.42187 0.0
H84 H 0.89818 0.29703 0.3752 0.0
H85 H 0.74934 0.11328 0.42166 0.0
H86 H 0.79066 0.0843 0.39129 0.0
H87 H 0.8657 0.1766 0.36782 0.0
H88 H 0.85504 0.32358 0.40563 0.0
H89 H 0.92772 0.16941 0.46514 0.0
H90 H 0.84467 0.08504 0.48913 0.0
O91 O 0.67285 0.15778 0.43447 0.0
C92 C 0.6817 0.27896 0.46619 0.0
C93 C 0.764 0.10503 0.48102 0.0
C94 C 0.87644 0.16168 0.46626 0.0
N95 N 0.79159 0.18925 0.45552 0.0
C96 C 0.74573 0.14328 0.46875 0.0
C97 C 0.85638 0.19906 0.45425 0.0
C98 C 0.82981 0.11433 0.47971 0.0
C99 C 0.75303 0.4285 0.41106 0.0
N100 N 0.6996 0.39158 0.42371 0.0
C101 C 0.79007 0.49993 0.41205 0.0
C102 C 0.77202 0.53355 0.42609 0.0
C103 C 0.71741 0.49555 0.43892 0.0
C104 C 0.68164 0.42419 0.43754 0.0
C105 C 0.48949 0.32646 0.40873 0.0
C106 C 0.51328 0.2464 0.43508 0.0
C107 C 0.55244 0.32854 0.40916 0.0
N108 N 0.56373 0.28906 0.42231 0.0
C109 C 0.44967 0.24292 0.43506 0.0
C110 C 0.43786 0.28333 0.4218 0.0
C111 C 0.61435 0.14439 0.42772 0.0
C112 C 0.86572 0.2564 0.38535 0.0
C113 C 0.78177 0.15365 0.41149 0.0
C114 C 0.80519 0.13698 0.39434 0.0
C115 C 0.84737 0.1888 0.3812 0.0
N116 N 0.7999 0.22005 0.41544 0.0
C117 C 0.84134 0.27115 0.40264 0.0
Co118 Co 0.36041 0.64988 0.75582 0.0
Co119 Co 0.52403 0.76355 0.77215 0.0
O120 O 0.44449 0.73827 0.75553 0.0
C121 C 0.41269 0.67209 0.71506 0.0
O122 O 0.47068 0.68448 0.72319 0.0
C123 C 0.48203 0.86564 0.78051 0.0
O124 O 0.41993 0.81328 0.78261 0.0
O125 O 0.46571 0.72723 0.79618 0.0
O126 O 0.36112 0.64704 0.78561 0.0
H127 H 0.66025 0.72656 0.82476 0.0
H128 H 0.36644 0.76647 0.73351 0.0
O129 O 0.35985 0.65294 0.72593 0.0
H130 H 0.18286 0.70105 0.783 0.0
H131 H 0.12454 0.47921 0.73145 0.0
H132 H 0.30892 0.52056 0.77851 0.0
H133 H 0.2456 0.63772 0.7807 0.0
H134 H 0.23163 0.59084 0.73221 0.0
O135 O 0.53177 0.85547 0.77675 0.0
H136 H 0.56001 0.69373 0.8032 0.0
H137 H 0.65835 0.89164 0.77708 0.0
H138 H 0.20255 0.40838 0.77837 0.0
H139 H 0.30475 0.83089 0.73523 0.0
H140 H 0.10943 0.38715 0.75471 0.0
H141 H 0.21238 0.79843 0.76016 0.0
O142 O 0.41223 0.59969 0.7551 0.0
H143 H 0.60253 0.89722 0.7085 0.0
H144 H 0.63756 0.74839 0.75492 0.0
H145 H 0.70795 0.78991 0.72458 0.0
H146 H 0.69063 0.86495 0.70112 0.0
H147 H 0.53275 0.85388 0.73889 0.0
H148 H 0.75947 0.92686 0.79846 0.0
H149 H 0.76089 0.84389 0.82246 0.0
O150 O 0.51662 0.67175 0.76772 0.0
C151 C 0.40407 0.68032 0.7994 0.0
C152 C 0.66034 0.76308 0.81431 0.0
C153 C 0.71599 0.87553 0.79957 0.0
N154 N 0.60367 0.79053 0.78878 0.0
C155 C 0.60384 0.74471 0.80203 0.0
C156 C 0.65857 0.85537 0.78753 0.0
C157 C 0.71677 0.82895 0.81303 0.0
C158 C 0.32577 0.75149 0.74424 0.0
N159 N 0.30932 0.69807 0.75689 0.0
C160 C 0.29124 0.78838 0.74521 0.0
C161 C 0.23949 0.77022 0.75923 0.0
C162 C 0.22294 0.71562 0.77206 0.0
C163 C 0.25868 0.67999 0.7707 0.0
C164 C 0.1647 0.48787 0.74185 0.0
C165 C 0.26846 0.51182 0.76826 0.0
C166 C 0.22548 0.55089 0.74231 0.0
N167 N 0.27622 0.56227 0.75548 0.0
C168 C 0.20843 0.44814 0.7682 0.0
C169 C 0.15624 0.43625 0.75491 0.0
C170 C 0.47157 0.61321 0.76097 0.0
C171 C 0.61072 0.86476 0.71864 0.0
C172 C 0.6296 0.78082 0.74476 0.0
C173 C 0.66974 0.80435 0.72763 0.0
C174 C 0.66007 0.84653 0.71449 0.0
N175 N 0.58125 0.79884 0.7487 0.0
C176 C 0.57154 0.84026 0.73591 0.0
Co177 Co 0.71569 0.36022 0.08921 0.0
Co178 Co 0.76547 0.5235 0.10583 0.0
O179 O 0.71128 0.44427 0.08907 0.0
C180 C 0.745 0.41272 0.04845 0.0
O181 O 0.79066 0.47076 0.05654 0.0
C182 C 0.62137 0.48164 0.11408 0.0
O183 O 0.61151 0.41948 0.11616 0.0
O184 O 0.74305 0.46471 0.12975 0.0
O185 O 0.71961 0.3606 0.11901 0.0
H186 H 0.93795 0.6583 0.15876 0.0
H187 H 0.60471 0.36627 0.06715 0.0
O188 O 0.71161 0.35986 0.05933 0.0
H189 H 0.48748 0.18208 0.11652 0.0
H190 H 0.65071 0.12474 0.06452 0.0
H191 H 0.79405 0.30877 0.11165 0.0
H192 H 0.61351 0.24504 0.11408 0.0
H193 H 0.64579 0.2316 0.06552 0.0
O194 O 0.68134 0.53135 0.1104 0.0
H195 H 0.87082 0.55864 0.13697 0.0
H196 H 0.7719 0.65786 0.11098 0.0
H197 H 0.80026 0.20262 0.11126 0.0
H198 H 0.47862 0.30436 0.06901 0.0
H199 H 0.72822 0.10968 0.08756 0.0
H200 H 0.41918 0.21168 0.09388 0.0
O201 O 0.81767 0.41221 0.08838 0.0
H202 H 0.71141 0.60354 0.04227 0.0
H203 H 0.89447 0.6373 0.08885 0.0
H204 H 0.92389 0.7084 0.05864 0.0
H205 H 0.83193 0.69173 0.03511 0.0
H206 H 0.68443 0.53304 0.07253 0.0
H207 H 0.83755 0.75842 0.1326 0.0
H208 H 0.92146 0.7591 0.15664 0.0
O209 O 0.84983 0.51602 0.10141 0.0
C210 C 0.72876 0.40315 0.13288 0.0
C211 C 0.90173 0.65872 0.14829 0.0
C212 C 0.84531 0.71487 0.13362 0.0
N213 N 0.81803 0.60278 0.12261 0.0
C214 C 0.86376 0.60255 0.13587 0.0
C215 C 0.80821 0.65777 0.12145 0.0
C216 C 0.89239 0.71523 0.14711 0.0
C217 C 0.57922 0.32547 0.07786 0.0
N218 N 0.61644 0.30898 0.0904 0.0
C219 C 0.50781 0.29081 0.0789 0.0
C220 C 0.47449 0.2389 0.09289 0.0
C221 C 0.51279 0.22229 0.1056 0.0
C222 C 0.58414 0.25817 0.10416 0.0
C223 C 0.68228 0.16482 0.07493 0.0
C224 C 0.76226 0.26839 0.10138 0.0
C225 C 0.67981 0.22548 0.07553 0.0
N226 N 0.71928 0.27612 0.08872 0.0
C227 C 0.76614 0.20848 0.10119 0.0
C228 C 0.72576 0.15639 0.08787 0.0
C229 C 0.86342 0.47131 0.09443 0.0
C230 C 0.75189 0.61145 0.05244 0.0
C231 C 0.85426 0.62961 0.07865 0.0
C232 C 0.87117 0.67015 0.0616 0.0
C233 C 0.81955 0.66084 0.04842 0.0
N234 N 0.78781 0.58121 0.08248 0.0
C235 C 0.7369 0.57186 0.06964 0.0
Co236 Co 0.35872 0.71289 0.42247 0.0
Co237 Co 0.24498 0.76264 0.43887 0.0
O238 O 0.27024 0.7084 0.42222 0.0
C239 C 0.33593 0.74231 0.38169 0.0
O240 O 0.32352 0.78796 0.38977 0.0
C241 C 0.14292 0.61853 0.44722 0.0
O242 O 0.19528 0.60879 0.44932 0.0
O243 O 0.28136 0.7406 0.46287 0.0
O244 O 0.3619 0.71677 0.45226 0.0
H245 H 0.28203 0.93564 0.49157 0.0
H246 H 0.24199 0.6019 0.4003 0.0
O247 O 0.35533 0.70888 0.39258 0.0
H248 H 0.30843 0.48464 0.44981 0.0
H249 H 0.52954 0.64802 0.39801 0.0
H250 H 0.48825 0.79121 0.44504 0.0
H251 H 0.37146 0.61068 0.4474 0.0
H252 H 0.41774 0.6431 0.39887 0.0
O253 O 0.15308 0.67843 0.44347 0.0
H254 H 0.31486 0.86838 0.46995 0.0
H255 H 0.11687 0.7688 0.44386 0.0
H256 H 0.60061 0.79741 0.4448 0.0
H257 H 0.17786 0.47581 0.40212 0.0
H258 H 0.62181 0.72544 0.42115 0.0
H259 H 0.21084 0.41635 0.42706 0.0
O260 O 0.40869 0.81488 0.42166 0.0
H261 H 0.11098 0.70753 0.37526 0.0
H262 H 0.26005 0.89134 0.42169 0.0
H263 H 0.21833 0.92025 0.3914 0.0
H264 H 0.14316 0.82791 0.36794 0.0
H265 H 0.15454 0.68107 0.40561 0.0
H266 H 0.08166 0.83458 0.4653 0.0
H267 H 0.16467 0.91889 0.48932 0.0
O268 O 0.33675 0.84706 0.43444 0.0
C269 C 0.32851 0.7262 0.46607 0.0
C270 C 0.2455 0.89925 0.48111 0.0
C271 C 0.133 0.84245 0.46639 0.0
N272 N 0.21802 0.81525 0.45554 0.0
C273 C 0.26386 0.8612 0.46879 0.0
C274 C 0.15316 0.80528 0.45431 0.0
C275 C 0.17961 0.88976 0.47986 0.0
C276 C 0.25719 0.57642 0.41103 0.0
N277 N 0.31073 0.61363 0.42363 0.0
C278 C 0.22046 0.50499 0.41206 0.0
C279 C 0.23892 0.47167 0.42608 0.0
C280 C 0.29364 0.50996 0.43886 0.0
C281 C 0.32909 0.58131 0.43744 0.0
C282 C 0.52089 0.67955 0.4084 0.0
C283 C 0.49698 0.75946 0.43479 0.0
C284 C 0.45777 0.67709 0.40892 0.0
N285 N 0.44642 0.71651 0.42208 0.0
C286 C 0.56075 0.76332 0.43469 0.0
C287 C 0.57263 0.72298 0.4214 0.0
C288 C 0.3952 0.86064 0.4276 0.0
C289 C 0.1435 0.74817 0.3854 0.0
C290 C 0.22758 0.85096 0.41153 0.0
C291 C 0.20393 0.86759 0.39442 0.0
C292 C 0.16168 0.81575 0.38129 0.0
N293 N 0.2096 0.78459 0.41545 0.0
C294 C 0.16811 0.73347 0.40265 0.0
Co295 Co 0.64724 0.35729 0.75592 0.0
Co296 Co 0.48359 0.24373 0.77223 0.0
O297 O 0.56315 0.26891 0.75563 0.0
C298 C 0.59536 0.33476 0.7151 0.0
O299 O 0.53725 0.32239 0.72313 0.0
C300 C 0.5254 0.14154 0.78061 0.0
O301 O 0.5875 0.19387 0.78276 0.0
O302 O 0.54187 0.27998 0.79628 0.0
O303 O 0.64635 0.36035 0.78571 0.0
H304 H 0.3474 0.28099 0.8248 0.0
H305 H 0.64134 0.24052 0.73374 0.0
O306 O 0.64806 0.35402 0.72603 0.0
H307 H 0.82461 0.30632 0.78337 0.0
H308 H 0.88327 0.52784 0.73165 0.0
H309 H 0.69854 0.48676 0.77854 0.0
H310 H 0.7619 0.36965 0.78092 0.0
H311 H 0.77622 0.41619 0.73241 0.0
O312 O 0.47571 0.15175 0.77683 0.0
H313 H 0.44767 0.31367 0.80327 0.0
H314 H 0.34917 0.11574 0.77714 0.0
H315 H 0.80488 0.59897 0.7784 0.0
H316 H 0.703 0.1761 0.7356 0.0
H317 H 0.89817 0.62006 0.75482 0.0
H318 H 0.79522 0.20876 0.7606 0.0
O319 O 0.5954 0.40745 0.75509 0.0
H320 H 0.40504 0.11007 0.70856 0.0
H321 H 0.37019 0.25906 0.75499 0.0
H322 H 0.29983 0.21762 0.72463 0.0
H323 H 0.31706 0.14249 0.70117 0.0
H324 H 0.4748 0.15334 0.73897 0.0
H325 H 0.24801 0.08067 0.79849 0.0
H326 H 0.24666 0.16373 0.82247 0.0
O327 O 0.49114 0.33559 0.7678 0.0
C328 C 0.60345 0.32702 0.79951 0.0
C329 C 0.34728 0.24443 0.81435 0.0
C330 C 0.29154 0.13197 0.79961 0.0
N331 N 0.40393 0.21686 0.78885 0.0
C332 C 0.40379 0.26272 0.80209 0.0
C333 C 0.34897 0.15205 0.78758 0.0
C334 C 0.2908 0.1786 0.81306 0.0
C335 C 0.68195 0.25559 0.7445 0.0
N336 N 0.69832 0.30912 0.75711 0.0
C337 C 0.71646 0.21869 0.74555 0.0
C338 C 0.76812 0.23697 0.75961 0.0
C339 C 0.7846 0.29168 0.77239 0.0
C340 C 0.74888 0.3273 0.77095 0.0
C341 C 0.84303 0.51924 0.74201 0.0
C342 C 0.73907 0.49544 0.76832 0.0
C343 C 0.78227 0.4562 0.74247 0.0
N344 N 0.73143 0.44491 0.75559 0.0
C345 C 0.79908 0.55914 0.76827 0.0
C346 C 0.85138 0.57095 0.75502 0.0
C347 C 0.53613 0.39403 0.76099 0.0
C348 C 0.39689 0.14257 0.7187 0.0
C349 C 0.37812 0.2266 0.74482 0.0
C350 C 0.338 0.20311 0.72768 0.0
C351 C 0.34762 0.16088 0.71455 0.0
N352 N 0.4264 0.2085 0.74877 0.0
C353 C 0.43606 0.16703 0.73598 0.0
Co354 Co 0.36161 0.71324 0.59163 0.0
Co355 Co 0.52542 0.76348 0.57543 0.0
O356 O 0.44576 0.70908 0.592 0.0
C357 C 0.41337 0.74308 0.63245 0.0
O358 O 0.47148 0.78873 0.6244 0.0
C359 C 0.48363 0.61948 0.56704 0.0
O360 O 0.42154 0.60973 0.56488 0.0
O361 O 0.46731 0.74151 0.55135 0.0
O362 O 0.36262 0.71693 0.56185 0.0
H363 H 0.66202 0.93708 0.52295 0.0
H364 H 0.36761 0.60268 0.61395 0.0
O365 O 0.36069 0.70944 0.62152 0.0
H366 H 0.18468 0.48453 0.56425 0.0
H367 H 0.12532 0.64747 0.61573 0.0
H368 H 0.31022 0.79106 0.56889 0.0
H369 H 0.24714 0.61059 0.56664 0.0
H370 H 0.23254 0.64317 0.6151 0.0
O371 O 0.53331 0.67937 0.57084 0.0
H372 H 0.56157 0.86942 0.54441 0.0
H373 H 0.65986 0.7699 0.57061 0.0
H374 H 0.20373 0.79664 0.56891 0.0
H375 H 0.3062 0.47658 0.61215 0.0
H376 H 0.11034 0.72445 0.59246 0.0
H377 H 0.21416 0.41668 0.58711 0.0
O378 O 0.41332 0.81526 0.5924 0.0
H379 H 0.60347 0.70821 0.63916 0.0
H380 H 0.6387 0.89217 0.59274 0.0
H381 H 0.70882 0.92101 0.62315 0.0
H382 H 0.69139 0.82861 0.6466 0.0
H383 H 0.53397 0.68181 0.6087 0.0
H384 H 0.76119 0.83607 0.54932 0.0
H385 H 0.76274 0.92056 0.52534 0.0
O386 O 0.51784 0.84777 0.57986 0.0
C387 C 0.40566 0.7267 0.54808 0.0
C388 C 0.66205 0.90061 0.5334 0.0
C389 C 0.71767 0.84384 0.54818 0.0
N390 N 0.6052 0.8163 0.55886 0.0
C391 C 0.60544 0.86233 0.54563 0.0
C392 C 0.66014 0.80644 0.56016 0.0
C393 C 0.71852 0.89125 0.53473 0.0
C394 C 0.32708 0.57699 0.60317 0.0
N395 N 0.31066 0.61396 0.59051 0.0
C396 C 0.2927 0.50557 0.60216 0.0
C397 C 0.24115 0.472 0.58809 0.0
C398 C 0.22462 0.51005 0.57525 0.0
C399 C 0.2602 0.58141 0.57665 0.0
C400 C 0.1656 0.67909 0.60538 0.0
C401 C 0.26966 0.75923 0.5791 0.0
C402 C 0.22646 0.67699 0.60499 0.0
N403 N 0.27734 0.71651 0.59189 0.0
C404 C 0.20955 0.76274 0.57908 0.0
C405 C 0.15721 0.72228 0.59231 0.0
C406 C 0.47269 0.86116 0.58658 0.0
C407 C 0.61171 0.74889 0.62902 0.0
C408 C 0.6307 0.85176 0.60291 0.0
C409 C 0.67068 0.86835 0.62007 0.0
C410 C 0.66095 0.81647 0.63321 0.0
N411 N 0.58244 0.78538 0.59892 0.0
C412 C 0.57268 0.73422 0.61172 0.0
Co413 Co 0.65056 0.3605 0.92513 0.0
Co414 Co 0.76414 0.52404 0.90874 0.0
O415 O 0.73895 0.44456 0.92538 0.0
C416 C 0.67321 0.41272 0.96592 0.0
O417 O 0.68557 0.47076 0.95785 0.0
C418 C 0.86621 0.48204 0.90037 0.0
O419 O 0.81384 0.41994 0.89826 0.0
O420 O 0.72777 0.46563 0.88473 0.0
O421 O 0.64742 0.36118 0.89533 0.0
H422 H 0.72691 0.66001 0.85611 0.0
H423 H 0.76734 0.36648 0.94732 0.0
O424 O 0.65391 0.35991 0.95502 0.0
H425 H 0.70136 0.18285 0.89779 0.0
H426 H 0.48003 0.12466 0.94953 0.0
H427 H 0.52105 0.30905 0.90253 0.0
H428 H 0.6381 0.24564 0.90019 0.0
H429 H 0.59168 0.23171 0.94872 0.0
O430 O 0.85607 0.53179 0.90413 0.0
H431 H 0.69418 0.55987 0.87769 0.0
H432 H 0.89219 0.65836 0.90377 0.0
H433 H 0.40883 0.20272 0.90272 0.0
H434 H 0.83169 0.30474 0.9455 0.0
H435 H 0.38777 0.10959 0.92636 0.0
H436 H 0.79895 0.21235 0.92055 0.0
O437 O 0.60043 0.41238 0.92592 0.0
H438 H 0.89801 0.60284 0.97237 0.0
H439 H 0.74897 0.63759 0.92595 0.0
H440 H 0.79057 0.70812 0.95627 0.0
H441 H 0.86572 0.69095 0.97973 0.0
H442 H 0.8546 0.53293 0.94199 0.0
H443 H 0.9273 0.75939 0.88236 0.0
H444 H 0.84423 0.76069 0.85838 0.0
O445 O 0.67233 0.51659 0.91318 0.0
C446 C 0.68071 0.40403 0.88152 0.0
C447 C 0.76347 0.66016 0.86656 0.0
C448 C 0.87598 0.7159 0.88127 0.0
N449 N 0.79103 0.60362 0.89209 0.0
C450 C 0.74516 0.60372 0.87886 0.0
C451 C 0.85587 0.65853 0.89333 0.0
C452 C 0.82934 0.7166 0.86782 0.0
C453 C 0.75223 0.3258 0.93658 0.0
N454 N 0.69869 0.30937 0.92397 0.0
C455 C 0.78909 0.29124 0.93555 0.0
C456 C 0.77077 0.23948 0.92153 0.0
C457 C 0.71604 0.22294 0.90874 0.0
C458 C 0.68046 0.25871 0.91016 0.0
C459 C 0.48861 0.16482 0.93915 0.0
C460 C 0.51238 0.2686 0.91277 0.0
C461 C 0.55165 0.22558 0.93866 0.0
N462 N 0.56293 0.27633 0.9255 0.0
C463 C 0.44868 0.20858 0.91285 0.0
C464 C 0.43688 0.15639 0.92613 0.0
C465 C 0.61387 0.47163 0.92 0.0
C466 C 0.86551 0.61097 0.96223 0.0
C467 C 0.78145 0.62969 0.93611 0.0
C468 C 0.80503 0.66991 0.95323 0.0
C469 C 0.84726 0.66032 0.96637 0.0
N470 N 0.79949 0.58135 0.93218 0.0
C471 C 0.84097 0.57172 0.94497 0.0
Co472 Co 0.29394 0.64842 0.25839 0.0
Co473 Co 0.24368 0.76196 0.24218 0.0
O474 O 0.29806 0.73671 0.25875 0.0
C475 C 0.26401 0.6704 0.29919 0.0
O476 O 0.21827 0.6827 0.29113 0.0
C477 C 0.38769 0.86409 0.23381 0.0
O478 O 0.39738 0.81171 0.23166 0.0
O479 O 0.26571 0.72582 0.21811 0.0
O480 O 0.29036 0.64575 0.2286 0.0
H481 H 0.07013 0.7249 0.18967 0.0
H482 H 0.40441 0.76502 0.28074 0.0
O483 O 0.29767 0.65133 0.28828 0.0
H484 H 0.52276 0.70027 0.23111 0.0
H485 H 0.35971 0.47796 0.28254 0.0
H486 H 0.21625 0.51921 0.23562 0.0
H487 H 0.3967 0.63665 0.23344 0.0
H488 H 0.36397 0.58946 0.2819 0.0
O489 O 0.32781 0.85395 0.23759 0.0
H490 H 0.13778 0.69214 0.21114 0.0
H491 H 0.23727 0.88997 0.23734 0.0
H492 H 0.21072 0.40715 0.23565 0.0
H493 H 0.5305 0.82972 0.27899 0.0
H494 H 0.28283 0.38597 0.25924 0.0
H495 H 0.59051 0.7976 0.25399 0.0
O496 O 0.19193 0.59807 0.25912 0.0
H497 H 0.29883 0.89534 0.3059 0.0
H498 H 0.11496 0.74651 0.25946 0.0
H499 H 0.08606 0.7878 0.28985 0.0
H500 H 0.17842 0.86284 0.31331 0.0
H501 H 0.32529 0.85222 0.27546 0.0
H502 H 0.17111 0.92511 0.21604 0.0
H503 H 0.08664 0.84214 0.19205 0.0
O504 O 0.1594 0.67007 0.24658 0.0
C505 C 0.28061 0.67905 0.21484 0.0
C506 C 0.10659 0.76141 0.20011 0.0
C507 C 0.16335 0.87383 0.2149 0.0
N508 N 0.19089 0.7889 0.22559 0.0
C509 C 0.14486 0.74309 0.21235 0.0
C510 C 0.20074 0.8537 0.22689 0.0
C511 C 0.11594 0.82724 0.20144 0.0
C512 C 0.43014 0.75017 0.26997 0.0
N513 N 0.39322 0.69678 0.2573 0.0
C514 C 0.50156 0.78723 0.26899 0.0
C515 C 0.53519 0.76926 0.25493 0.0
C516 C 0.4972 0.71468 0.24208 0.0
C517 C 0.42584 0.67889 0.24346 0.0
C518 C 0.32811 0.48659 0.27218 0.0
C519 C 0.24805 0.51049 0.24585 0.0
C520 C 0.3302 0.54955 0.27178 0.0
N521 N 0.29072 0.5609 0.25865 0.0
C522 C 0.24457 0.44688 0.24584 0.0
C523 C 0.28499 0.43502 0.25909 0.0
C524 C 0.14602 0.61152 0.2533 0.0
C525 C 0.25817 0.86288 0.29576 0.0
C526 C 0.15535 0.77894 0.26963 0.0
C527 C 0.13873 0.80234 0.28678 0.0
C528 C 0.19058 0.84452 0.29993 0.0
N529 N 0.22174 0.79709 0.26566 0.0
C530 C 0.27287 0.83851 0.27846 0.0
Co531 Co 0.64831 0.29267 0.59182 0.0
Co532 Co 0.48482 0.24278 0.5754 0.0
O533 O 0.56427 0.29705 0.59205 0.0
C534 C 0.59597 0.26308 0.63259 0.0
O535 O 0.53798 0.21739 0.62449 0.0
C536 C 0.52686 0.38686 0.56704 0.0
O537 O 0.58895 0.39658 0.56495 0.0
O538 O 0.54327 0.26482 0.5514 0.0
O539 O 0.64769 0.28887 0.56203 0.0
H540 H 0.34892 0.06961 0.52273 0.0
H541 H 0.64234 0.4035 0.61401 0.0
O542 O 0.64883 0.2966 0.62171 0.0
H543 H 0.82609 0.5211 0.56453 0.0
H544 H 0.88405 0.35785 0.61629 0.0
H545 H 0.69975 0.21456 0.56924 0.0
H546 H 0.76324 0.39505 0.56692 0.0
H547 H 0.77705 0.36253 0.61545 0.0
O548 O 0.4771 0.32697 0.57079 0.0
H549 H 0.44902 0.137 0.54434 0.0
H550 H 0.35052 0.23654 0.57039 0.0
H551 H 0.80603 0.2086 0.56947 0.0
H552 H 0.70413 0.5296 0.61221 0.0
H553 H 0.89911 0.28062 0.59313 0.0
H554 H 0.79659 0.58922 0.58729 0.0
O555 O 0.5964 0.19067 0.5926 0.0
H556 H 0.40585 0.29785 0.639 0.0
H557 H 0.37122 0.11405 0.59258 0.0
H558 H 0.30061 0.08513 0.62288 0.0
H559 H 0.31772 0.17746 0.64633 0.0
H560 H 0.47586 0.32434 0.60865 0.0
H561 H 0.24953 0.17065 0.54896 0.0
H562 H 0.24827 0.08629 0.52497 0.0
O563 O 0.49222 0.15839 0.57984 0.0
C564 C 0.60486 0.27935 0.54821 0.0
C565 C 0.34877 0.10603 0.53317 0.0
C566 C 0.29302 0.16281 0.54788 0.0
N567 N 0.40527 0.19011 0.55873 0.0
C568 C 0.40518 0.14414 0.54549 0.0
C569 C 0.35036 0.20005 0.55995 0.0
C570 C 0.29233 0.11547 0.53443 0.0
C571 C 0.68304 0.42906 0.60328 0.0
N572 N 0.69948 0.39194 0.59068 0.0
C573 C 0.71764 0.50049 0.60227 0.0
C574 C 0.76943 0.5339 0.58826 0.0
C575 C 0.78597 0.49571 0.57548 0.0
C576 C 0.75016 0.42435 0.57688 0.0
C577 C 0.84391 0.32629 0.6059 0.0
C578 C 0.74018 0.24633 0.57949 0.0
C579 C 0.78317 0.32862 0.60539 0.0
N580 N 0.73245 0.28918 0.59222 0.0
C581 C 0.80017 0.2426 0.57959 0.0
C582 C 0.85234 0.28297 0.59289 0.0
C583 C 0.53715 0.14487 0.58667 0.0
C584 C 0.39775 0.25721 0.62886 0.0
C585 C 0.3791 0.15443 0.60274 0.0
C586 C 0.33883 0.13779 0.61984 0.0
C587 C 0.34839 0.18963 0.63298 0.0
N588 N 0.42746 0.22081 0.59882 0.0
C589 C 0.43706 0.27193 0.61161 0.0
Co590 Co 0.35777 0.64711 0.925 0.0
Co591 Co 0.24424 0.48342 0.90869 0.0
O592 O 0.26944 0.56297 0.92531 0.0
C593 C 0.33556 0.59507 0.96579 0.0
O594 O 0.32315 0.53701 0.95771 0.0
C595 C 0.14206 0.52527 0.90033 0.0
O596 O 0.1944 0.58737 0.8982 0.0
O597 O 0.28047 0.54171 0.88465 0.0
O598 O 0.36066 0.64631 0.89522 0.0
H599 H 0.28146 0.34728 0.85609 0.0
H600 H 0.24109 0.64102 0.94728 0.0
O601 O 0.35469 0.64783 0.95489 0.0
H602 H 0.30633 0.82434 0.89771 0.0
H603 H 0.52823 0.88318 0.9493 0.0
H604 H 0.48713 0.69861 0.90233 0.0
H605 H 0.36983 0.76178 0.90007 0.0
H606 H 0.41666 0.77602 0.94856 0.0
O607 O 0.15226 0.47556 0.90409 0.0
H608 H 0.31416 0.44752 0.87764 0.0
H609 H 0.11624 0.34901 0.90376 0.0
H610 H 0.59925 0.80505 0.90245 0.0
H611 H 0.17649 0.70253 0.94549 0.0
H612 H 0.62036 0.89826 0.92607 0.0
H613 H 0.20887 0.79476 0.92052 0.0
O614 O 0.40803 0.59536 0.92576 0.0
H615 H 0.11063 0.40484 0.97236 0.0
H616 H 0.25957 0.37 0.92591 0.0
H617 H 0.21813 0.29961 0.95626 0.0
H618 H 0.14304 0.31683 0.97972 0.0
H619 H 0.15389 0.47462 0.94196 0.0
H620 H 0.08115 0.24788 0.88239 0.0
H621 H 0.16419 0.24654 0.8584 0.0
O622 O 0.3361 0.49097 0.91312 0.0
C623 C 0.32737 0.60335 0.88142 0.0
C624 C 0.24491 0.34715 0.86654 0.0
C625 C 0.13245 0.2914 0.88128 0.0
N626 N 0.21735 0.40377 0.89206 0.0
C627 C 0.2632 0.40365 0.87882 0.0
C628 C 0.15254 0.34882 0.89331 0.0
C629 C 0.17907 0.29067 0.86782 0.0
C630 C 0.25603 0.68164 0.93653 0.0
N631 N 0.3095 0.69811 0.92389 0.0
C632 C 0.21904 0.71607 0.93552 0.0
C633 C 0.23716 0.76773 0.92149 0.0
C634 C 0.29181 0.78432 0.90867 0.0
C635 C 0.32753 0.74868 0.91007 0.0
C636 C 0.51962 0.84298 0.93892 0.0
C637 C 0.49581 0.7391 0.91257 0.0
C638 C 0.45664 0.78216 0.93847 0.0
N639 N 0.44533 0.73136 0.92533 0.0
C640 C 0.55946 0.79917 0.91261 0.0
C641 C 0.57128 0.85142 0.92588 0.0
C642 C 0.3946 0.53605 0.91989 0.0
C643 C 0.14311 0.39669 0.96221 0.0
C644 C 0.22712 0.37792 0.93608 0.0
C645 C 0.20363 0.33778 0.95321 0.0
C646 C 0.16142 0.3474 0.96635 0.0
N647 N 0.20902 0.42622 0.93214 0.0
C648 C 0.16756 0.43587 0.94494 0.0
Co649 Co 0.71451 0.3554 0.25842 0.0
Co650 Co 0.76457 0.24181 0.2421 0.0
O651 O 0.71023 0.26705 0.2587 0.0
C652 C 0.74421 0.33307 0.29921 0.0
O653 O 0.78984 0.32063 0.29113 0.0
C654 C 0.62051 0.1398 0.23371 0.0
O655 O 0.61086 0.19221 0.23157 0.0
O656 O 0.74268 0.27817 0.21805 0.0
O657 O 0.71829 0.35835 0.22863 0.0
H658 H 0.93811 0.27884 0.18959 0.0
H659 H 0.60381 0.23873 0.28066 0.0
O660 O 0.71064 0.35227 0.2883 0.0
H661 H 0.48597 0.30416 0.23106 0.0
H662 H 0.64901 0.52595 0.2827 0.0
H663 H 0.7925 0.48478 0.23576 0.0
H664 H 0.61202 0.36759 0.23345 0.0
H665 H 0.64454 0.41435 0.28196 0.0
O666 O 0.68038 0.1499 0.23748 0.0
H667 H 0.87055 0.31166 0.21109 0.0
H668 H 0.77078 0.11371 0.23719 0.0
H669 H 0.79824 0.59694 0.23588 0.0
H670 H 0.47772 0.17422 0.27884 0.0
H671 H 0.72612 0.61807 0.25948 0.0
H672 H 0.41798 0.20669 0.25386 0.0
O673 O 0.81652 0.40559 0.2592 0.0
H674 H 0.70913 0.10801 0.30574 0.0
H675 H 0.89319 0.25703 0.25939 0.0
H676 H 0.92195 0.21547 0.28975 0.0
H677 H 0.82949 0.14034 0.31316 0.0
H678 H 0.68281 0.15138 0.27533 0.0
H679 H 0.83685 0.07852 0.21587 0.0
H680 H 0.92141 0.16151 0.19192 0.0
O681 O 0.84893 0.33362 0.24655 0.0
C682 C 0.72803 0.32514 0.21483 0.0
C683 C 0.9016 0.24231 0.20002 0.0
C684 C 0.84469 0.12984 0.21475 0.0
N685 N 0.81731 0.21484 0.22549 0.0
C686 C 0.86338 0.26067 0.21227 0.0
C687 C 0.80735 0.14999 0.22676 0.0
C688 C 0.89215 0.17644 0.20132 0.0
C689 C 0.5782 0.25373 0.2699 0.0
N690 N 0.61525 0.3072 0.25727 0.0
C691 C 0.50678 0.21678 0.26888 0.0
C692 C 0.47329 0.23494 0.25483 0.0
C693 C 0.51142 0.2896 0.24203 0.0
C694 C 0.58277 0.32528 0.24344 0.0
C695 C 0.68061 0.51733 0.27233 0.0
C696 C 0.76069 0.49349 0.24599 0.0
C697 C 0.67841 0.45433 0.27188 0.0
N698 N 0.7179 0.443 0.25875 0.0
C699 C 0.76429 0.55715 0.24603 0.0
C700 C 0.72386 0.56899 0.25929 0.0
C701 C 0.86237 0.39213 0.25333 0.0
C702 C 0.74983 0.14051 0.29562 0.0
C703 C 0.85276 0.22455 0.26954 0.0
C704 C 0.8693 0.201 0.28667 0.0
C705 C 0.81739 0.15877 0.29979 0.0
N706 N 0.7864 0.20649 0.26556 0.0
C707 C 0.73521 0.16502 0.27833 0.0
C708 C 0.27931 0.53462 0.99723 0.0
C709 C 0.3194 0.59649 0.98704 0.0
H710 H 0.2295 0.48587 0.02427 0.0
C711 C 0.3409 0.65861 0.99712 0.0
H712 H 0.26149 0.48583 0.98991 0.0
C713 C 0.32314 0.65864 0.01708 0.0
C714 C 0.28244 0.59654 0.02716 0.0
H715 H 0.37166 0.70712 0.98963 0.0
H716 H 0.34097 0.70716 0.02458 0.0
C717 C 0.26055 0.53465 0.01696 0.0
C718 C 0.72949 0.25795 0.35037 0.0
C719 C 0.6895 0.27986 0.36057 0.0
H720 H 0.77927 0.2589 0.32333 0.0
C721 C 0.66816 0.32061 0.35049 0.0
H722 H 0.74717 0.22686 0.35768 0.0
C723 C 0.68598 0.33839 0.33053 0.0
C724 C 0.72659 0.31688 0.32045 0.0
H725 H 0.63749 0.33846 0.35799 0.0
H726 H 0.66828 0.3692 0.32304 0.0
C727 C 0.7483 0.27673 0.33065 0.0
C728 C 0.47343 0.72836 0.68366 0.0
C729 C 0.41146 0.68831 0.69382 0.0
H730 H 0.52244 0.77823 0.65665 0.0
C731 C 0.34944 0.66696 0.6837 0.0
H732 H 0.52215 0.74606 0.69101 0.0
C733 C 0.34961 0.68481 0.66374 0.0
C734 C 0.4118 0.72547 0.6537 0.0
H735 H 0.30087 0.63623 0.69116 0.0
H736 H 0.30116 0.66709 0.65621 0.0
C737 C 0.47359 0.74722 0.66393 0.0
C738 C 0.68651 0.34926 0.01714 0.0
C739 C 0.72717 0.41137 0.02722 0.0
H740 H 0.63775 0.30073 0.98971 0.0
C741 C 0.7487 0.47324 0.01706 0.0
H742 H 0.66894 0.30074 0.02461 0.0
C743 C 0.72967 0.47323 0.99736 0.0
C744 C 0.68962 0.41135 0.98715 0.0
H745 H 0.7797 0.52203 0.02438 0.0
H746 H 0.74723 0.52202 0.99006 0.0
C747 C 0.66846 0.34925 0.9972 0.0
C748 C 0.32279 0.66568 0.33046 0.0
C749 C 0.28178 0.68678 0.32042 0.0
H750 H 0.37189 0.66627 0.35786 0.0
C751 C 0.25991 0.72679 0.33062 0.0
H752 H 0.34062 0.635 0.32296 0.0
C753 C 0.27901 0.7459 0.35032 0.0
C754 C 0.31943 0.72444 0.36048 0.0
H755 H 0.22863 0.74429 0.32334 0.0
H756 H 0.26122 0.77689 0.35764 0.0
C757 C 0.34089 0.68378 0.35039 0.0
C758 C 0.65908 0.33973 0.68385 0.0
C759 C 0.5969 0.31838 0.69387 0.0
H760 H 0.7078 0.33944 0.65646 0.0
C761 C 0.5351 0.27816 0.68365 0.0
H762 H 0.70754 0.37059 0.69136 0.0
C763 C 0.53525 0.25913 0.66396 0.0
C764 C 0.59721 0.28087 0.65381 0.0
H765 H 0.48626 0.26045 0.69093 0.0
H766 H 0.48652 0.22799 0.65662 0.0
C767 C 0.65924 0.32171 0.66391 0.0
C768 C 0.2862 0.70414 0.17836 0.0
C769 C 0.28549 0.6619 0.19387 0.0
H770 H 0.2864 0.71939 0.147 0.0
C771 C 0.28697 0.60201 0.18906 0.0
H772 H 0.28549 0.7509 0.18151 0.0
C773 C 0.28694 0.58368 0.16923 0.0
C774 C 0.28617 0.62517 0.15373 0.0
H775 H 0.28656 0.56833 0.2006 0.0
H776 H 0.28678 0.53649 0.16609 0.0
C777 C 0.28691 0.68618 0.15854 0.0
C778 C 0.60439 0.28518 0.4919 0.0
C779 C 0.66429 0.28365 0.48715 0.0
H780 H 0.53859 0.28483 0.5148 0.0
C781 C 0.70624 0.28406 0.5027 0.0
H782 H 0.57091 0.28498 0.48033 0.0
C783 C 0.688 0.28454 0.52251 0.0
C784 C 0.62698 0.28387 0.52726 0.0
H785 H 0.75299 0.28329 0.4996 0.0
H786 H 0.721 0.28382 0.53408 0.0
C787 C 0.58578 0.28492 0.51171 0.0
C788 C 0.32084 0.6027 0.82512 0.0
C789 C 0.38202 0.66285 0.82036 0.0
H790 H 0.25573 0.53665 0.84804 0.0
C791 C 0.42343 0.70499 0.8359 0.0
H792 H 0.28767 0.56907 0.81355 0.0
C793 C 0.40485 0.68669 0.85571 0.0
C794 C 0.34477 0.62543 0.86047 0.0
H795 H 0.47075 0.75194 0.83279 0.0
H796 H 0.43847 0.71986 0.86727 0.0
C797 C 0.30262 0.58403 0.84493 0.0
C798 C 0.72359 0.31979 0.15849 0.0
C799 C 0.724 0.38072 0.1538 0.0
H800 H 0.72476 0.25459 0.18134 0.0
C801 C 0.72241 0.42153 0.16939 0.0
H802 H 0.72473 0.2871 0.14689 0.0
C803 C 0.72187 0.40262 0.18918 0.0
C804 C 0.72363 0.34281 0.19387 0.0
H805 H 0.72228 0.46864 0.16633 0.0
H806 H 0.72164 0.43581 0.20077 0.0
C807 C 0.72377 0.30125 0.17829 0.0
C808 C 0.42531 0.72183 0.51158 0.0
C809 C 0.38364 0.72203 0.52712 0.0
H810 H 0.4404 0.72219 0.4802 0.0
C811 C 0.3221 0.72026 0.52236 0.0
H812 H 0.47292 0.72279 0.51469 0.0
C813 C 0.30375 0.72048 0.50256 0.0
C814 C 0.34612 0.72172 0.48701 0.0
H815 H 0.28872 0.72029 0.53393 0.0
H816 H 0.25656 0.72037 0.49945 0.0
C817 C 0.40659 0.7213 0.49177 0.0
C818 C 0.6029 0.32076 0.85583 0.0
C819 C 0.66311 0.38192 0.86057 0.0
H820 H 0.53675 0.2556 0.83292 0.0
C821 C 0.70522 0.42325 0.84502 0.0
H822 H 0.56929 0.28767 0.8674 0.0
C823 C 0.68685 0.4046 0.82521 0.0
C824 C 0.62555 0.34453 0.82046 0.0
H825 H 0.75221 0.47055 0.84811 0.0
H826 H 0.72001 0.43816 0.81364 0.0
C827 C 0.58416 0.30248 0.83602 0.0
C828 C 0.95255 0.43556 0.09318 0.0
C829 C 0.93608 0.48811 0.09369 0.0
H830 H 0.03163 0.40922 0.09328 0.0
C831 C 0.98975 0.55648 0.094 0.0
H832 H 0.91258 0.38229 0.09303 0.0
C833 C 0.0581 0.5719 0.09374 0.0
C834 C 0.07455 0.51932 0.09363 0.0
H835 H 0.97903 0.59821 0.09439 0.0
H836 H 0.09808 0.62515 0.09404 0.0
C837 C 0.0209 0.45096 0.09338 0.0
C838 C 0.48939 0.05535 0.42689 0.0
C839 C 0.5584 0.07176 0.42697 0.0
H840 H 0.38396 0.97629 0.42733 0.0
C841 C 0.57307 0.01808 0.42684 0.0
H842 H 0.47614 0.09535 0.42709 0.0
C843 C 0.52011 0.94974 0.42657 0.0
C844 C 0.45109 0.9333 0.4269 0.0
H845 H 0.62553 0.02877 0.42688 0.0
H846 H 0.53338 0.90975 0.42653 0.0
C847 C 0.43641 0.98699 0.42708 0.0
C848 C 0.45106 0.43529 0.76032 0.0
C849 C 0.51942 0.44996 0.76025 0.0
H850 H 0.38243 0.47501 0.76022 0.0
C851 C 0.57201 0.51897 0.76 0.0
H852 H 0.4093 0.38284 0.76051 0.0
C853 C 0.55665 0.57196 0.76022 0.0
C854 C 0.48829 0.55728 0.76025 0.0
H855 H 0.62527 0.53224 0.76004 0.0
H856 H 0.59841 0.62441 0.76033 0.0
C857 C 0.43569 0.48827 0.7601 0.0
C858 C 0.45208 0.01851 0.58724 0.0
C859 C 0.52043 0.07222 0.58738 0.0
H860 H 0.38348 0.91016 0.58726 0.0
C861 C 0.57303 0.05582 0.58767 0.0
H862 H 0.41031 0.02919 0.58701 0.0
C863 C 0.5577 0.98749 0.58742 0.0
C864 C 0.48935 0.93378 0.58733 0.0
H865 H 0.62629 0.09583 0.58769 0.0
H866 H 0.59947 0.97682 0.58735 0.0
C867 C 0.43673 0.95017 0.58744 0.0
C868 C 0.43592 0.45104 0.92067 0.0
C869 C 0.45055 0.51938 0.92064 0.0
H870 H 0.47569 0.38245 0.9209 0.0
C871 C 0.51956 0.57201 0.92081 0.0
H872 H 0.38348 0.40925 0.92055 0.0
C873 C 0.57256 0.55668 0.92062 0.0
C874 C 0.55793 0.48833 0.92071 0.0
H875 H 0.53279 0.62526 0.92069 0.0
H876 H 0.625 0.59846 0.92045 0.0
C877 C 0.48893 0.43571 0.92094 0.0
C878 C 0.01967 0.57012 0.25406 0.0
C879 C 0.07341 0.55553 0.25402 0.0
H880 H 0.91132 0.53031 0.25426 0.0
C881 C 0.05706 0.48653 0.25418 0.0
H882 H 0.0303 0.62256 0.25395 0.0
C883 C 0.98874 0.4335 0.25397 0.0
C884 C 0.935 0.44809 0.25405 0.0
H885 H 0.0971 0.47333 0.25405 0.0
H886 H 0.97811 0.38106 0.25378 0.0
C887 C 0.95135 0.51709 0.25429 0.0
C888 C 0.49478 0.43699 0.11492 0.0
C889 C 0.56207 0.49299 0.11484 0.0
H890 H 0.38748 0.40316 0.11458 0.0
C891 C 0.57185 0.55963 0.11487 0.0
H892 H 0.48537 0.38494 0.11478 0.0
C893 C 0.51565 0.57002 0.11489 0.0
C894 C 0.44837 0.51402 0.11468 0.0
H895 H 0.62296 0.60386 0.11479 0.0
H896 H 0.52507 0.62208 0.11473 0.0
C897 C 0.43858 0.44739 0.11475 0.0
C898 C 0.99452 0.43567 0.44809 0.0
C899 C 0.93763 0.44539 0.44807 0.0
H900 H 0.10376 0.48256 0.44799 0.0
C901 C 0.94885 0.51265 0.44823 0.0
H902 H 0.98768 0.38457 0.44794 0.0
C903 C 0.01542 0.56889 0.44813 0.0
C904 C 0.07231 0.55918 0.44804 0.0
H905 H 0.90618 0.52202 0.44811 0.0
H906 H 0.02224 0.61999 0.44802 0.0
C907 C 0.06109 0.49192 0.44817 0.0
C908 C 0.57018 0.05972 0.78155 0.0
C909 C 0.51413 0.07091 0.7814 0.0
H910 H 0.60415 0.98635 0.78132 0.0
C911 C 0.44753 0.01401 0.78141 0.0
H912 H 0.62221 0.1024 0.78143 0.0
C913 C 0.43723 0.94744 0.78147 0.0
C914 C 0.49329 0.93625 0.78134 0.0
H915 H 0.40326 0.02082 0.78127 0.0
H916 H 0.3852 0.90476 0.7813 0.0
C917 C 0.55988 0.99316 0.78143 0.0
C918 C 0.56146 0.56977 0.56622 0.0
C919 C 0.49488 0.56011 0.56623 0.0
H920 H 0.62374 0.5228 0.56631 0.0
C921 C 0.4388 0.49287 0.56604 0.0
H922 H 0.60575 0.62085 0.56638 0.0
C923 C 0.44906 0.43659 0.56614 0.0
C924 C 0.51564 0.44624 0.56623 0.0
H925 H 0.38678 0.48355 0.56616 0.0
H926 H 0.40477 0.38551 0.56623 0.0
C927 C 0.57173 0.51349 0.56613 0.0
C928 C 0.06029 0.57011 0.89938 0.0
C929 C 0.07145 0.51403 0.89953 0.0
H930 H 0.98696 0.60414 0.8996 0.0
C931 C 0.01452 0.44744 0.89949 0.0
H932 H 0.10298 0.62213 0.89951 0.0
C933 C 0.94797 0.43718 0.89941 0.0
C934 C 0.93682 0.49326 0.89955 0.0
H935 H 0.02131 0.40316 0.89963 0.0
H936 H 0.90527 0.38516 0.89957 0.0
C937 C 0.99374 0.55985 0.89948 0.0
C938 C 0.43753 0.99165 0.23293 0.0
C939 C 0.4471 0.93467 0.23298 0.0
H940 H 0.48462 0.10091 0.23295 0.0
C941 C 0.5143 0.94574 0.23281 0.0
H942 H 0.38648 0.98493 0.23308 0.0
C943 C 0.57064 0.01225 0.23288 0.0
C944 C 0.56107 0.06923 0.23292 0.0
H945 H 0.52356 0.903 0.23296 0.0
H946 H 0.62169 0.01897 0.23299 0.0
C947 C 0.49387 0.05816 0.23281 0.0
loop_
_geom_bond_atom_site_label_1
_geom_bond_atom_site_label_2
_geom_bond_distance
_geom_bond_site_symmetry_2
_ccdc_geom_bond_type
Co0 O2 2.143 . S
Co0 O8 2.074 . S
Co0 O11 2.093 . S
Co0 O24 2.097 . S
Co0 N41 2.151 . S
Co0 N49 2.214 . S
Co1 O2 2.160 . S
Co1 O7 2.058 . S
Co1 O17 2.057 . S
Co1 O32 2.037 . S
Co1 N36 2.145 . S
Co1 N57 2.257 . S
O2 Co0 2.143 . S
O2 Co1 2.160 . S
C3 O4 1.278 . S
C3 O11 1.224 . S
O4 C3 1.278 . S
C5 O6 1.245 . S
C5 O17 1.232 . S
O6 C5 1.245 . S
O7 Co1 2.058 . S
O7 C33 1.269 . S
O8 Co0 2.074 . S
O8 C33 1.257 . S
H9 C34 0.930 . S
H10 C40 0.930 . S
O11 Co0 2.093 . S
O11 C3 1.224 . S
H12 C44 0.929 . S
H13 C46 0.930 . S
H14 C47 0.930 . S
H15 C45 0.929 . S
H16 C48 0.928 . S
O17 Co1 2.057 . S
O17 C5 1.232 . S
H18 C37 0.929 . S
H19 C38 0.929 . S
H20 C50 0.931 . S
H21 C42 0.929 . S
H22 C51 0.930 . S
H23 C43 0.931 . S
O24 Co0 2.097 . S
O24 C52 1.214 . S
H25 C53 0.929 . S
H26 C54 0.929 . S
H27 C55 0.930 . S
H28 C56 0.929 . S
H29 C58 0.930 . S
H30 C35 0.930 . S
H31 C39 0.930 . S
O32 Co1 2.037 . S
O32 C52 1.234 . S
C33 O7 1.269 . S
C33 O8 1.257 . S
C34 H9 0.930 . S
C34 C37 1.388 . S
C34 C39 1.418 . S
C35 H30 0.930 . S
C35 C38 1.404 . S
C35 C39 1.353 . S
N36 Co1 2.145 . S
N36 C37 1.397 . S
N36 C38 1.334 . S
C37 H18 0.929 . S
C37 C34 1.388 . S
C37 N36 1.397 . S
C38 H19 0.929 . S
C38 C35 1.404 . S
C38 N36 1.334 . S
C39 H31 0.930 . S
C39 C34 1.418 . S
C39 C35 1.353 . S
C40 H10 0.930 . S
C40 N41 1.330 . S
C40 C42 1.446 . S
N41 Co0 2.151 . S
N41 C40 1.330 . S
N41 C45 1.418 . S
C42 H21 0.929 . S
C42 C40 1.446 . S
C42 C43 1.332 . S
C43 H23 0.931 . S
C43 C42 1.332 . S
C43 C44 1.267 . S
C44 H12 0.929 . S
C44 C43 1.267 . S
C44 C45 1.251 . S
C45 H15 0.929 . S
C45 N41 1.418 . S
C45 C44 1.251 . S
C46 H13 0.930 . S
C46 C48 1.406 . S
C46 C51 1.261 . S
C47 H14 0.930 . S
C47 N49 1.325 . S
C47 C50 1.357 . S
C48 H16 0.928 . S
C48 C46 1.406 . S
C48 N49 1.261 . S
N49 Co0 2.214 . S
N49 C47 1.325 . S
N49 C48 1.261 . S
C50 H20 0.931 . S
C50 C47 1.357 . S
C50 C51 1.312 . S
C51 H22 0.930 . S
C51 C46 1.261 . S
C51 C50 1.312 . S
C52 O24 1.214 . S
C52 O32 1.234 . S
C53 H25 0.929 . S
C53 C56 1.391 . S
C53 C58 1.391 . S
C54 H26 0.929 . S
C54 C55 1.390 . S
C54 N57 1.391 . S
C55 H27 0.930 . S
C55 C54 1.390 . S
C55 C56 1.392 . S
C56 H28 0.929 . S
C56 C53 1.391 . S
C56 C55 1.392 . S
N57 Co1 2.257 . S
N57 C54 1.391 . S
N57 C58 1.388 . S
C58 H29 0.930 . S
C58 C53 1.391 . S
C58 N57 1.388 . S
Co59 O61 2.143 . S
Co59 O67 2.074 . S
Co59 O70 2.093 . S
Co59 O83 2.097 . S
Co59 N100 2.151 . S
Co59 N108 2.214 . S
Co60 O61 2.160 . S
Co60 O66 2.058 . S
Co60 O76 2.057 . S
Co60 O91 2.037 . S
Co60 N95 2.145 . S
Co60 N116 2.257 . S
O61 Co59 2.143 . S
O61 Co60 2.160 . S
C62 O63 1.278 . S
C62 O70 1.224 . S
O63 C62 1.278 . S
C64 O65 1.245 . S
C64 O76 1.232 . S
O65 C64 1.245 . S
O66 Co60 2.058 . S
O66 C92 1.269 . S
O67 Co59 2.074 . S
O67 C92 1.257 . S
H68 C93 0.930 . S
H69 C99 0.930 . S
O70 Co59 2.093 . S
O70 C62 1.224 . S
H71 C103 0.929 . S
H72 C105 0.930 . S
H73 C106 0.930 . S
H74 C104 0.929 . S
H75 C107 0.928 . S
O76 Co60 2.057 . S
O76 C64 1.232 . S
H77 C96 0.929 . S
H78 C97 0.929 . S
H79 C109 0.931 . S
H80 C101 0.929 . S
H81 C110 0.930 . S
H82 C102 0.931 . S
O83 Co59 2.097 . S
O83 C111 1.214 . S
H84 C112 0.929 . S
H85 C113 0.929 . S
H86 C114 0.930 . S
H87 C115 0.929 . S
H88 C117 0.930 . S
H89 C94 0.930 . S
H90 C98 0.930 . S
O91 Co60 2.037 . S
O91 C111 1.234 . S
C92 O66 1.269 . S
C92 O67 1.257 . S
C93 H68 0.930 . S
C93 C96 1.388 . S
C93 C98 1.418 . S
C94 H89 0.930 . S
C94 C97 1.404 . S
C94 C98 1.353 . S
N95 Co60 2.145 . S
N95 C96 1.397 . S
N95 C97 1.334 . S
C96 H77 0.929 . S
C96 C93 1.388 . S
C96 N95 1.397 . S
C97 H78 0.929 . S
C97 C94 1.404 . S
C97 N95 1.334 . S
C98 H90 0.930 . S
C98 C93 1.418 . S
C98 C94 1.353 . S
C99 H69 0.930 . S
C99 N100 1.330 . S
C99 C101 1.446 . S
N100 Co59 2.151 . S
N100 C99 1.330 . S
N100 C104 1.418 . S
C101 H80 0.929 . S
C101 C99 1.446 . S
C101 C102 1.332 . S
C102 H82 0.931 . S
C102 C101 1.332 . S
C102 C103 1.267 . S
C103 H71 0.929 . S
C103 C102 1.267 . S
C103 C104 1.251 . S
C104 H74 0.929 . S
C104 N100 1.418 . S
C104 C103 1.251 . S
C105 H72 0.930 . S
C105 C107 1.406 . S
C105 C110 1.261 . S
C106 H73 0.930 . S
C106 N108 1.325 . S
C106 C109 1.357 . S
C107 H75 0.928 . S
C107 C105 1.406 . S
C107 N108 1.261 . S
N108 Co59 2.214 . S
N108 C106 1.325 . S
N108 C107 1.261 . S
C109 H79 0.931 . S
C109 C106 1.357 . S
C109 C110 1.312 . S
C110 H81 0.930 . S
C110 C105 1.261 . S
C110 C109 1.312 . S
C111 O83 1.214 . S
C111 O91 1.234 . S
C112 H84 0.929 . S
C112 C115 1.391 . S
C112 C117 1.391 . S
C113 H85 0.929 . S
C113 C114 1.390 . S
C113 N116 1.391 . S
C114 H86 0.930 . S
C114 C113 1.390 . S
C114 C115 1.392 . S
C115 H87 0.929 . S
C115 C112 1.391 . S
C115 C114 1.392 . S
N116 Co60 2.257 . S
N116 C113 1.391 . S
N116 C117 1.388 . S
C117 H88 0.930 . S
C117 C112 1.391 . S
C117 N116 1.388 . S
Co118 O120 2.143 . S
Co118 O126 2.074 . S
Co118 O129 2.093 . S
Co118 O142 2.097 . S
Co118 N159 2.151 . S
Co118 N167 2.214 . S
Co119 O120 2.160 . S
Co119 O125 2.058 . S
Co119 O135 2.057 . S
Co119 O150 2.037 . S
Co119 N154 2.145 . S
Co119 N175 2.257 . S
O120 Co118 2.143 . S
O120 Co119 2.160 . S
C121 O122 1.278 . S
C121 O129 1.224 . S
O122 C121 1.278 . S
C123 O124 1.245 . S
C123 O135 1.232 . S
O124 C123 1.245 . S
O125 Co119 2.058 . S
O125 C151 1.269 . S
O126 Co118 2.074 . S
O126 C151 1.257 . S
H127 C152 0.930 . S
H128 C158 0.930 . S
O129 Co118 2.093 . S
O129 C121 1.224 . S
H130 C162 0.929 . S
H131 C164 0.930 . S
H132 C165 0.930 . S
H133 C163 0.929 . S
H134 C166 0.928 . S
O135 Co119 2.057 . S
O135 C123 1.232 . S
H136 C155 0.929 . S
H137 C156 0.929 . S
H138 C168 0.931 . S
H139 C160 0.929 . S
H140 C169 0.930 . S
H141 C161 0.931 . S
O142 Co118 2.097 . S
O142 C170 1.214 . S
H143 C171 0.929 . S
H144 C172 0.929 . S
H145 C173 0.930 . S
H146 C174 0.929 . S
H147 C176 0.930 . S
H148 C153 0.930 . S
H149 C157 0.930 . S
O150 Co119 2.037 . S
O150 C170 1.234 . S
C151 O125 1.269 . S
C151 O126 1.257 . S
C152 H127 0.930 . S
C152 C155 1.388 . S
C152 C157 1.418 . S
C153 H148 0.930 . S
C153 C156 1.404 . S
C153 C157 1.353 . S
N154 Co119 2.145 . S
N154 C155 1.397 . S
N154 C156 1.334 . S
C155 H136 0.929 . S
C155 C152 1.388 . S
C155 N154 1.397 . S
C156 H137 0.929 . S
C156 C153 1.404 . S
C156 N154 1.334 . S
C157 H149 0.930 . S
C157 C152 1.418 . S
C157 C153 1.353 . S
C158 H128 0.930 . S
C158 N159 1.330 . S
C158 C160 1.446 . S
N159 Co118 2.151 . S
N159 C158 1.330 . S
N159 C163 1.418 . S
C160 H139 0.929 . S
C160 C158 1.446 . S
C160 C161 1.332 . S
C161 H141 0.931 . S
C161 C160 1.332 . S
C161 C162 1.267 . S
C162 H130 0.929 . S
C162 C161 1.267 . S
C162 C163 1.251 . S
C163 H133 0.929 . S
C163 N159 1.418 . S
C163 C162 1.251 . S
C164 H131 0.930 . S
C164 C166 1.406 . S
C164 C169 1.261 . S
C165 H132 0.930 . S
C165 N167 1.325 . S
C165 C168 1.357 . S
C166 H134 0.928 . S
C166 C164 1.406 . S
C166 N167 1.261 . S
N167 Co118 2.214 . S
N167 C165 1.325 . S
N167 C166 1.261 . S
C168 H138 0.931 . S
C168 C165 1.357 . S
C168 C169 1.312 . S
C169 H140 0.930 . S
C169 C164 1.261 . S
C169 C168 1.312 . S
C170 O142 1.214 . S
C170 O150 1.234 . S
C171 H143 0.929 . S
C171 C174 1.391 . S
C171 C176 1.391 . S
C172 H144 0.929 . S
C172 C173 1.390 . S
C172 N175 1.391 . S
C173 H145 0.930 . S
C173 C172 1.390 . S
C173 C174 1.392 . S
C174 H146 0.929 . S
C174 C171 1.391 . S
C174 C173 1.392 . S
N175 Co119 2.257 . S
N175 C172 1.391 . S
N175 C176 1.388 . S
C176 H147 0.930 . S
C176 C171 1.391 . S
C176 N175 1.388 . S
Co177 O179 2.143 . S
Co177 O185 2.074 . S
Co177 O188 2.093 . S
Co177 O201 2.097 . S
Co177 N218 2.151 . S
Co177 N226 2.214 . S
Co178 O179 2.160 . S
Co178 O184 2.058 . S
Co178 O194 2.057 . S
Co178 O209 2.037 . S
Co178 N213 2.145 . S
Co178 N234 2.257 . S
O179 Co177 2.143 . S
O179 Co178 2.160 . S
C180 O181 1.278 . S
C180 O188 1.224 . S
O181 C180 1.278 . S
C182 O183 1.245 . S
C182 O194 1.232 . S
O183 C182 1.245 . S
O184 Co178 2.058 . S
O184 C210 1.269 . S
O185 Co177 2.074 . S
O185 C210 1.257 . S
H186 C211 0.930 . S
H187 C217 0.930 . S
O188 Co177 2.093 . S
O188 C180 1.224 . S
H189 C221 0.929 . S
H190 C223 0.930 . S
H191 C224 0.930 . S
H192 C222 0.929 . S
H193 C225 0.928 . S
O194 Co178 2.057 . S
O194 C182 1.232 . S
H195 C214 0.929 . S
H196 C215 0.929 . S
H197 C227 0.931 . S
H198 C219 0.929 . S
H199 C228 0.930 . S
H200 C220 0.931 . S
O201 Co177 2.097 . S
O201 C229 1.214 . S
H202 C230 0.929 . S
H203 C231 0.929 . S
H204 C232 0.930 . S
H205 C233 0.929 . S
H206 C235 0.930 . S
H207 C212 0.930 . S
H208 C216 0.930 . S
O209 Co178 2.037 . S
O209 C229 1.234 . S
C210 O184 1.269 . S
C210 O185 1.257 . S
C211 H186 0.930 . S
C211 C214 1.388 . S
C211 C216 1.418 . S
C212 H207 0.930 . S
C212 C215 1.404 . S
C212 C216 1.353 . S
N213 Co178 2.145 . S
N213 C214 1.397 . S
N213 C215 1.334 . S
C214 H195 0.929 . S
C214 C211 1.388 . S
C214 N213 1.397 . S
C215 H196 0.929 . S
C215 C212 1.404 . S
C215 N213 1.334 . S
C216 H208 0.930 . S
C216 C211 1.418 . S
C216 C212 1.353 . S
C217 H187 0.930 . S
C217 N218 1.330 . S
C217 C219 1.446 . S
N218 Co177 2.151 . S
N218 C217 1.330 . S
N218 C222 1.418 . S
C219 H198 0.929 . S
C219 C217 1.446 . S
C219 C220 1.332 . S
C220 H200 0.931 . S
C220 C219 1.332 . S
C220 C221 1.267 . S
C221 H189 0.929 . S
C221 C220 1.267 . S
C221 C222 1.251 . S
C222 H192 0.929 . S
C222 N218 1.418 . S
C222 C221 1.251 . S
C223 H190 0.930 . S
C223 C225 1.406 . S
C223 C228 1.261 . S
C224 H191 0.930 . S
C224 N226 1.325 . S
C224 C227 1.357 . S
C225 H193 0.928 . S
C225 C223 1.406 . S
C225 N226 1.261 . S
N226 Co177 2.214 . S
N226 C224 1.325 . S
N226 C225 1.261 . S
C227 H197 0.931 . S
C227 C224 1.357 . S
C227 C228 1.312 . S
C228 H199 0.930 . S
C228 C223 1.261 . S
C228 C227 1.312 . S
C229 O201 1.214 . S
C229 O209 1.234 . S
C230 H202 0.929 . S
C230 C233 1.391 . S
C230 C235 1.391 . S
C231 H203 0.929 . S
C231 C232 1.390 . S
C231 N234 1.391 . S
C232 H204 0.930 . S
C232 C231 1.390 . S
C232 C233 1.392 . S
C233 H205 0.929 . S
C233 C230 1.391 . S
C233 C232 1.392 . S
N234 Co178 2.257 . S
N234 C231 1.391 . S
N234 C235 1.388 . S
C235 H206 0.930 . S
C235 C230 1.391 . S
C235 N234 1.388 . S
Co236 O238 2.143 . S
Co236 O244 2.074 . S
Co236 O247 2.093 . S
Co236 O260 2.097 . S
Co236 N277 2.151 . S
Co236 N285 2.214 . S
Co237 O238 2.160 . S
Co237 O243 2.058 . S
Co237 O253 2.057 . S
Co237 O268 2.037 . S
Co237 N272 2.145 . S
Co237 N293 2.257 . S
O238 Co236 2.143 . S
O238 Co237 2.160 . S
C239 O240 1.278 . S
C239 O247 1.224 . S
O240 C239 1.278 . S
C241 O242 1.245 . S
C241 O253 1.232 . S
O242 C241 1.245 . S
O243 Co237 2.058 . S
O243 C269 1.269 . S
O244 Co236 2.074 . S
O244 C269 1.257 . S
H245 C270 0.930 . S
H246 C276 0.930 . S
O247 Co236 2.093 . S
O247 C239 1.224 . S
H248 C280 0.929 . S
H249 C282 0.930 . S
H250 C283 0.930 . S
H251 C281 0.929 . S
H252 C284 0.928 . S
O253 Co237 2.057 . S
O253 C241 1.232 . S
H254 C273 0.929 . S
H255 C274 0.929 . S
H256 C286 0.931 . S
H257 C278 0.929 . S
H258 C287 0.930 . S
H259 C279 0.931 . S
O260 Co236 2.097 . S
O260 C288 1.214 . S
H261 C289 0.929 . S
H262 C290 0.929 . S
H263 C291 0.930 . S
H264 C292 0.929 . S
H265 C294 0.930 . S
H266 C271 0.930 . S
H267 C275 0.930 . S
O268 Co237 2.037 . S
O268 C288 1.234 . S
C269 O243 1.269 . S
C269 O244 1.257 . S
C270 H245 0.930 . S
C270 C273 1.388 . S
C270 C275 1.418 . S
C271 H266 0.930 . S
C271 C274 1.404 . S
C271 C275 1.353 . S
N272 Co237 2.145 . S
N272 C273 1.397 . S
N272 C274 1.334 . S
C273 H254 0.929 . S
C273 C270 1.388 . S
C273 N272 1.397 . S
C274 H255 0.929 . S
C274 C271 1.404 . S
C274 N272 1.334 . S
C275 H267 0.930 . S
C275 C270 1.418 . S
C275 C271 1.353 . S
C276 H246 0.930 . S
C276 N277 1.330 . S
C276 C278 1.446 . S
N277 Co236 2.151 . S
N277 C276 1.330 . S
N277 C281 1.418 . S
C278 H257 0.929 . S
C278 C276 1.446 . S
C278 C279 1.332 . S
C279 H259 0.931 . S
C279 C278 1.332 . S
C279 C280 1.267 . S
C280 H248 0.929 . S
C280 C279 1.267 . S
C280 C281 1.251 . S
C281 H251 0.929 . S
C281 N277 1.418 . S
C281 C280 1.251 . S
C282 H249 0.930 . S
C282 C284 1.406 . S
C282 C287 1.261 . S
C283 H250 0.930 . S
C283 N285 1.325 . S
C283 C286 1.357 . S
C284 H252 0.928 . S
C284 C282 1.406 . S
C284 N285 1.261 . S
N285 Co236 2.214 . S
N285 C283 1.325 . S
N285 C284 1.261 . S
C286 H256 0.931 . S
C286 C283 1.357 . S
C286 C287 1.312 . S
C287 H258 0.930 . S
C287 C282 1.261 . S
C287 C286 1.312 . S
C288 O260 1.214 . S
C288 O268 1.234 . S
C289 H261 0.929 . S
C289 C292 1.391 . S
C289 C294 1.391 . S
C290 H262 0.929 . S
C290 C291 1.390 . S
C290 N293 1.391 . S
C291 H263 0.930 . S
C291 C290 1.390 . S
C291 C292 1.392 . S
C292 H264 0.929 . S
C292 C289 1.391 . S
C292 C291 1.392 . S
N293 Co237 2.257 . S
N293 C290 1.391 . S
N293 C294 1.388 . S
C294 H265 0.930 . S
C294 C289 1.391 . S
C294 N293 1.388 . S
Co295 O297 2.143 . S
Co295 O303 2.074 . S
Co295 O306 2.093 . S
Co295 O319 2.097 . S
Co295 N336 2.151 . S
Co295 N344 2.214 . S
Co296 O297 2.160 . S
Co296 O302 2.058 . S
Co296 O312 2.057 . S
Co296 O327 2.037 . S
Co296 N331 2.145 . S
Co296 N352 2.257 . S
O297 Co295 2.143 . S
O297 Co296 2.160 . S
C298 O299 1.278 . S
C298 O306 1.224 . S
O299 C298 1.278 . S
C300 O301 1.245 . S
C300 O312 1.232 . S
O301 C300 1.245 . S
O302 Co296 2.058 . S
O302 C328 1.269 . S
O303 Co295 2.074 . S
O303 C328 1.257 . S
H304 C329 0.930 . S
H305 C335 0.930 . S
O306 Co295 2.093 . S
O306 C298 1.224 . S
H307 C339 0.929 . S
H308 C341 0.930 . S
H309 C342 0.930 . S
H310 C340 0.929 . S
H311 C343 0.928 . S
O312 Co296 2.057 . S
O312 C300 1.232 . S
H313 C332 0.929 . S
H314 C333 0.929 . S
H315 C345 0.931 . S
H316 C337 0.929 . S
H317 C346 0.930 . S
H318 C338 0.931 . S
O319 Co295 2.097 . S
O319 C347 1.214 . S
H320 C348 0.929 . S
H321 C349 0.929 . S
H322 C350 0.930 . S
H323 C351 0.929 . S
H324 C353 0.930 . S
H325 C330 0.930 . S
H326 C334 0.930 . S
O327 Co296 2.037 . S
O327 C347 1.234 . S
C328 O302 1.269 . S
C328 O303 1.257 . S
C329 H304 0.930 . S
C329 C332 1.388 . S
C329 C334 1.418 . S
C330 H325 0.930 . S
C330 C333 1.404 . S
C330 C334 1.353 . S
N331 Co296 2.145 . S
N331 C332 1.397 . S
N331 C333 1.334 . S
C332 H313 0.929 . S
C332 C329 1.388 . S
C332 N331 1.397 . S
C333 H314 0.929 . S
C333 C330 1.404 . S
C333 N331 1.334 . S
C334 H326 0.930 . S
C334 C329 1.418 . S
C334 C330 1.353 . S
C335 H305 0.930 . S
C335 N336 1.330 . S
C335 C337 1.446 . S
N336 Co295 2.151 . S
N336 C335 1.330 . S
N336 C340 1.418 . S
C337 H316 0.929 . S
C337 C335 1.446 . S
C337 C338 1.332 . S
C338 H318 0.931 . S
C338 C337 1.332 . S
C338 C339 1.267 . S
C339 H307 0.929 . S
C339 C338 1.267 . S
C339 C340 1.251 . S
C340 H310 0.929 . S
C340 N336 1.418 . S
C340 C339 1.251 . S
C341 H308 0.930 . S
C341 C343 1.406 . S
C341 C346 1.261 . S
C342 H309 0.930 . S
C342 N344 1.325 . S
C342 C345 1.357 . S
C343 H311 0.928 . S
C343 C341 1.406 . S
C343 N344 1.261 . S
N344 Co295 2.214 . S
N344 C342 1.325 . S
N344 C343 1.261 . S
C345 H315 0.931 . S
C345 C342 1.357 . S
C345 C346 1.312 . S
C346 H317 0.930 . S
C346 C341 1.261 . S
C346 C345 1.312 . S
C347 O319 1.214 . S
C347 O327 1.234 . S
C348 H320 0.929 . S
C348 C351 1.391 . S
C348 C353 1.391 . S
C349 H321 0.929 . S
C349 C350 1.390 . S
C349 N352 1.391 . S
C350 H322 0.930 . S
C350 C349 1.390 . S
C350 C351 1.392 . S
C351 H323 0.929 . S
C351 C348 1.391 . S
C351 C350 1.392 . S
N352 Co296 2.257 . S
N352 C349 1.391 . S
N352 C353 1.388 . S
C353 H324 0.930 . S
C353 C348 1.391 . S
C353 N352 1.388 . S
Co354 O356 2.143 . S
Co354 O362 2.074 . S
Co354 O365 2.093 . S
Co354 O378 2.097 . S
Co354 N395 2.151 . S
Co354 N403 2.214 . S
Co355 O356 2.160 . S
Co355 O361 2.058 . S
Co355 O371 2.057 . S
Co355 O386 2.037 . S
Co355 N390 2.145 . S
Co355 N411 2.257 . S
O356 Co354 2.143 . S
O356 Co355 2.160 . S
C357 O358 1.278 . S
C357 O365 1.224 . S
O358 C357 1.278 . S
C359 O360 1.245 . S
C359 O371 1.232 . S
O360 C359 1.245 . S
O361 Co355 2.058 . S
O361 C387 1.269 . S
O362 Co354 2.074 . S
O362 C387 1.257 . S
H363 C388 0.930 . S
H364 C394 0.930 . S
O365 Co354 2.093 . S
O365 C357 1.224 . S
H366 C398 0.929 . S
H367 C400 0.930 . S
H368 C401 0.930 . S
H369 C399 0.929 . S
H370 C402 0.928 . S
O371 Co355 2.057 . S
O371 C359 1.232 . S
H372 C391 0.929 . S
H373 C392 0.929 . S
H374 C404 0.931 . S
H375 C396 0.929 . S
H376 C405 0.930 . S
H377 C397 0.931 . S
O378 Co354 2.097 . S
O378 C406 1.214 . S
H379 C407 0.929 . S
H380 C408 0.929 . S
H381 C409 0.930 . S
H382 C410 0.929 . S
H383 C412 0.930 . S
H384 C389 0.930 . S
H385 C393 0.930 . S
O386 Co355 2.037 . S
O386 C406 1.234 . S
C387 O361 1.269 . S
C387 O362 1.257 . S
C388 H363 0.930 . S
C388 C391 1.388 . S
C388 C393 1.418 . S
C389 H384 0.930 . S
C389 C392 1.404 . S
C389 C393 1.353 . S
N390 Co355 2.145 . S
N390 C391 1.397 . S
N390 C392 1.334 . S
C391 H372 0.929 . S
C391 C388 1.388 . S
C391 N390 1.397 . S
C392 H373 0.929 . S
C392 C389 1.404 . S
C392 N390 1.334 . S
C393 H385 0.930 . S
C393 C388 1.418 . S
C393 C389 1.353 . S
C394 H364 0.930 . S
C394 N395 1.330 . S
C394 C396 1.446 . S
N395 Co354 2.151 . S
N395 C394 1.330 . S
N395 C399 1.418 . S
C396 H375 0.929 . S
C396 C394 1.446 . S
C396 C397 1.332 . S
C397 H377 0.931 . S
C397 C396 1.332 . S
C397 C398 1.267 . S
C398 H366 0.929 . S
C398 C397 1.267 . S
C398 C399 1.251 . S
C399 H369 0.929 . S
C399 N395 1.418 . S
C399 C398 1.251 . S
C400 H367 0.930 . S
C400 C402 1.406 . S
C400 C405 1.261 . S
C401 H368 0.930 . S
C401 N403 1.325 . S
C401 C404 1.357 . S
C402 H370 0.928 . S
C402 C400 1.406 . S
C402 N403 1.261 . S
N403 Co354 2.214 . S
N403 C401 1.325 . S
N403 C402 1.261 . S
C404 H374 0.931 . S
C404 C401 1.357 . S
C404 C405 1.312 . S
C405 H376 0.930 . S
C405 C400 1.261 . S
C405 C404 1.312 . S
C406 O378 1.214 . S
C406 O386 1.234 . S
C407 H379 0.929 . S
C407 C410 1.391 . S
C407 C412 1.391 . S
C408 H380 0.929 . S
C408 C409 1.390 . S
C408 N411 1.391 . S
C409 H381 0.930 . S
C409 C408 1.390 . S
C409 C410 1.392 . S
C410 H382 0.929 . S
C410 C407 1.391 . S
C410 C409 1.392 . S
N411 Co355 2.257 . S
N411 C408 1.391 . S
N411 C412 1.388 . S
C412 H383 0.930 . S
C412 C407 1.391 . S
C412 N411 1.388 . S
Co413 O415 2.143 . S
Co413 O421 2.074 . S
Co413 O424 2.093 . S
Co413 O437 2.097 . S
Co413 N454 2.151 . S
Co413 N462 2.214 . S
Co414 O415 2.160 . S
Co414 O420 2.058 . S
Co414 O430 2.057 . S
Co414 O445 2.037 . S
Co414 N449 2.145 . S
Co414 N470 2.257 . S
O415 Co413 2.143 . S
O415 Co414 2.160 . S
C416 O417 1.278 . S
C416 O424 1.224 . S
O417 C416 1.278 . S
C418 O419 1.245 . S
C418 O430 1.232 . S
O419 C418 1.245 . S
O420 Co414 2.058 . S
O420 C446 1.269 . S
O421 Co413 2.074 . S
O421 C446 1.257 . S
H422 C447 0.930 . S
H423 C453 0.930 . S
O424 Co413 2.093 . S
O424 C416 1.224 . S
H425 C457 0.929 . S
H426 C459 0.930 . S
H427 C460 0.930 . S
H428 C458 0.929 . S
H429 C461 0.928 . S
O430 Co414 2.057 . S
O430 C418 1.232 . S
H431 C450 0.929 . S
H432 C451 0.929 . S
H433 C463 0.931 . S
H434 C455 0.929 . S
H435 C464 0.930 . S
H436 C456 0.931 . S
O437 Co413 2.097 . S
O437 C465 1.214 . S
H438 C466 0.929 . S
H439 C467 0.929 . S
H440 C468 0.930 . S
H441 C469 0.929 . S
H442 C471 0.930 . S
H443 C448 0.930 . S
H444 C452 0.930 . S
O445 Co414 2.037 . S
O445 C465 1.234 . S
C446 O420 1.269 . S
C446 O421 1.257 . S
C447 H422 0.930 . S
C447 C450 1.388 . S
C447 C452 1.418 . S
C448 H443 0.930 . S
C448 C451 1.404 . S
C448 C452 1.353 . S
N449 Co414 2.145 . S
N449 C450 1.397 . S
N449 C451 1.334 . S
C450 H431 0.929 . S
C450 C447 1.388 . S
C450 N449 1.397 . S
C451 H432 0.929 . S
C451 C448 1.404 . S
C451 N449 1.334 . S
C452 H444 0.930 . S
C452 C447 1.418 . S
C452 C448 1.353 . S
C453 H423 0.930 . S
C453 N454 1.330 . S
C453 C455 1.446 . S
N454 Co413 2.151 . S
N454 C453 1.330 . S
N454 C458 1.418 . S
C455 H434 0.929 . S
C455 C453 1.446 . S
C455 C456 1.332 . S
C456 H436 0.931 . S
C456 C455 1.332 . S
C456 C457 1.267 . S
C457 H425 0.929 . S
C457 C456 1.267 . S
C457 C458 1.251 . S
C458 H428 0.929 . S
C458 N454 1.418 . S
C458 C457 1.251 . S
C459 H426 0.930 . S
C459 C461 1.406 . S
C459 C464 1.261 . S
C460 H427 0.930 . S
C460 N462 1.325 . S
C460 C463 1.357 . S
C461 H429 0.928 . S
C461 C459 1.406 . S
C461 N462 1.261 . S
N462 Co413 2.214 . S
N462 C460 1.325 . S
N462 C461 1.261 . S
C463 H433 0.931 . S
C463 C460 1.357 . S
C463 C464 1.312 . S
C464 H435 0.930 . S
C464 C459 1.261 . S
C464 C463 1.312 . S
C465 O437 1.214 . S
C465 O445 1.234 . S
C466 H438 0.929 . S
C466 C469 1.391 . S
C466 C471 1.391 . S
C467 H439 0.929 . S
C467 C468 1.390 . S
C467 N470 1.391 . S
C468 H440 0.930 . S
C468 C467 1.390 . S
C468 C469 1.392 . S
C469 H441 0.929 . S
C469 C466 1.391 . S
C469 C468 1.392 . S
N470 Co414 2.257 . S
N470 C467 1.391 . S
N470 C471 1.388 . S
C471 H442 0.930 . S
C471 C466 1.391 . S
C471 N470 1.388 . S
Co472 O474 2.143 . S
Co472 O480 2.074 . S
Co472 O483 2.093 . S
Co472 O496 2.097 . S
Co472 N513 2.151 . S
Co472 N521 2.214 . S
Co473 O474 2.160 . S
Co473 O479 2.058 . S
Co473 O489 2.057 . S
Co473 O504 2.037 . S
Co473 N508 2.145 . S
Co473 N529 2.257 . S
O474 Co472 2.143 . S
O474 Co473 2.160 . S
C475 O476 1.278 . S
C475 O483 1.224 . S
O476 C475 1.278 . S
C477 O478 1.245 . S
C477 O489 1.232 . S
O478 C477 1.245 . S
O479 Co473 2.058 . S
O479 C505 1.269 . S
O480 Co472 2.074 . S
O480 C505 1.257 . S
H481 C506 0.930 . S
H482 C512 0.930 . S
O483 Co472 2.093 . S
O483 C475 1.224 . S
H484 C516 0.929 . S
H485 C518 0.930 . S
H486 C519 0.930 . S
H487 C517 0.929 . S
H488 C520 0.928 . S
O489 Co473 2.057 . S
O489 C477 1.232 . S
H490 C509 0.929 . S
H491 C510 0.929 . S
H492 C522 0.931 . S
H493 C514 0.929 . S
H494 C523 0.930 . S
H495 C515 0.931 . S
O496 Co472 2.097 . S
O496 C524 1.214 . S
H497 C525 0.929 . S
H498 C526 0.929 . S
H499 C527 0.930 . S
H500 C528 0.929 . S
H501 C530 0.930 . S
H502 C507 0.930 . S
H503 C511 0.930 . S
O504 Co473 2.037 . S
O504 C524 1.234 . S
C505 O479 1.269 . S
C505 O480 1.257 . S
C506 H481 0.930 . S
C506 C509 1.388 . S
C506 C511 1.418 . S
C507 H502 0.930 . S
C507 C510 1.404 . S
C507 C511 1.353 . S
N508 Co473 2.145 . S
N508 C509 1.397 . S
N508 C510 1.334 . S
C509 H490 0.929 . S
C509 C506 1.388 . S
C509 N508 1.397 . S
C510 H491 0.929 . S
C510 C507 1.404 . S
C510 N508 1.334 . S
C511 H503 0.930 . S
C511 C506 1.418 . S
C511 C507 1.353 . S
C512 H482 0.930 . S
C512 N513 1.330 . S
C512 C514 1.446 . S
N513 Co472 2.151 . S
N513 C512 1.330 . S
N513 C517 1.418 . S
C514 H493 0.929 . S
C514 C512 1.446 . S
C514 C515 1.332 . S
C515 H495 0.931 . S
C515 C514 1.332 . S
C515 C516 1.267 . S
C516 H484 0.929 . S
C516 C515 1.267 . S
C516 C517 1.251 . S
C517 H487 0.929 . S
C517 N513 1.418 . S
C517 C516 1.251 . S
C518 H485 0.930 . S
C518 C520 1.406 . S
C518 C523 1.261 . S
C519 H486 0.930 . S
C519 N521 1.325 . S
C519 C522 1.357 . S
C520 H488 0.928 . S
C520 C518 1.406 . S
C520 N521 1.261 . S
N521 Co472 2.214 . S
N521 C519 1.325 . S
N521 C520 1.261 . S
C522 H492 0.931 . S
C522 C519 1.357 . S
C522 C523 1.312 . S
C523 H494 0.930 . S
C523 C518 1.261 . S
C523 C522 1.312 . S
C524 O496 1.214 . S
C524 O504 1.234 . S
C525 H497 0.929 . S
C525 C528 1.391 . S
C525 C530 1.391 . S
C526 H498 0.929 . S
C526 C527 1.390 . S
C526 N529 1.391 . S
C527 H499 0.930 . S
C527 C526 1.390 . S
C527 C528 1.392 . S
C528 H500 0.929 . S
C528 C525 1.391 . S
C528 C527 1.392 . S
N529 Co473 2.257 . S
N529 C526 1.391 . S
N529 C530 1.388 . S
C530 H501 0.930 . S
C530 C525 1.391 . S
C530 N529 1.388 . S
Co531 O533 2.143 . S
Co531 O539 2.074 . S
Co531 O542 2.093 . S
Co531 O555 2.097 . S
Co531 N572 2.151 . S
Co531 N580 2.214 . S
Co532 O533 2.160 . S
Co532 O538 2.058 . S
Co532 O548 2.057 . S
Co532 O563 2.037 . S
Co532 N567 2.145 . S
Co532 N588 2.257 . S
O533 Co531 2.143 . S
O533 Co532 2.160 . S
C534 O535 1.278 . S
C534 O542 1.224 . S
O535 C534 1.278 . S
C536 O537 1.245 . S
C536 O548 1.232 . S
O537 C536 1.245 . S
O538 Co532 2.058 . S
O538 C564 1.269 . S
O539 Co531 2.074 . S
O539 C564 1.257 . S
H540 C565 0.930 . S
H541 C571 0.930 . S
O542 Co531 2.093 . S
O542 C534 1.224 . S
H543 C575 0.929 . S
H544 C577 0.930 . S
H545 C578 0.930 . S
H546 C576 0.929 . S
H547 C579 0.928 . S
O548 Co532 2.057 . S
O548 C536 1.232 . S
H549 C568 0.929 . S
H550 C569 0.929 . S
H551 C581 0.931 . S
H552 C573 0.929 . S
H553 C582 0.930 . S
H554 C574 0.931 . S
O555 Co531 2.097 . S
O555 C583 1.214 . S
H556 C584 0.929 . S
H557 C585 0.929 . S
H558 C586 0.930 . S
H559 C587 0.929 . S
H560 C589 0.930 . S
H561 C566 0.930 . S
H562 C570 0.930 . S
O563 Co532 2.037 . S
O563 C583 1.234 . S
C564 O538 1.269 . S
C564 O539 1.257 . S
C565 H540 0.930 . S
C565 C568 1.388 . S
C565 C570 1.418 . S
C566 H561 0.930 . S
C566 C569 1.404 . S
C566 C570 1.353 . S
N567 Co532 2.145 . S
N567 C568 1.397 . S
N567 C569 1.334 . S
C568 H549 0.929 . S
C568 C565 1.388 . S
C568 N567 1.397 . S
C569 H550 0.929 . S
C569 C566 1.404 . S
C569 N567 1.334 . S
C570 H562 0.930 . S
C570 C565 1.418 . S
C570 C566 1.353 . S
C571 H541 0.930 . S
C571 N572 1.330 . S
C571 C573 1.446 . S
N572 Co531 2.151 . S
N572 C571 1.330 . S
N572 C576 1.418 . S
C573 H552 0.929 . S
C573 C571 1.446 . S
C573 C574 1.332 . S
C574 H554 0.931 . S
C574 C573 1.332 . S
C574 C575 1.267 . S
C575 H543 0.929 . S
C575 C574 1.267 . S
C575 C576 1.251 . S
C576 H546 0.929 . S
C576 N572 1.418 . S
C576 C575 1.251 . S
C577 H544 0.930 . S
C577 C579 1.406 . S
C577 C582 1.261 . S
C578 H545 0.930 . S
C578 N580 1.325 . S
C578 C581 1.357 . S
C579 H547 0.928 . S
C579 C577 1.406 . S
C579 N580 1.261 . S
N580 Co531 2.214 . S
N580 C578 1.325 . S
N580 C579 1.261 . S
C581 H551 0.931 . S
C581 C578 1.357 . S
C581 C582 1.312 . S
C582 H553 0.930 . S
C582 C577 1.261 . S
C582 C581 1.312 . S
C583 O555 1.214 . S
C583 O563 1.234 . S
C584 H556 0.929 . S
C584 C587 1.391 . S
C584 C589 1.391 . S
C585 H557 0.929 . S
C585 C586 1.390 . S
C585 N588 1.391 . S
C586 H558 0.930 . S
C586 C585 1.390 . S
C586 C587 1.392 . S
C587 H559 0.929 . S
C587 C584 1.391 . S
C587 C586 1.392 . S
N588 Co532 2.257 . S
N588 C585 1.391 . S
N588 C589 1.388 . S
C589 H560 0.930 . S
C589 C584 1.391 . S
C589 N588 1.388 . S
Co590 O592 2.143 . S
Co590 O598 2.074 . S
Co590 O601 2.093 . S
Co590 O614 2.097 . S
Co590 N631 2.151 . S
Co590 N639 2.214 . S
Co591 O592 2.160 . S
Co591 O597 2.058 . S
Co591 O607 2.057 . S
Co591 O622 2.037 . S
Co591 N626 2.145 . S
Co591 N647 2.257 . S
O592 Co590 2.143 . S
O592 Co591 2.160 . S
C593 O594 1.278 . S
C593 O601 1.224 . S
O594 C593 1.278 . S
C595 O596 1.245 . S
C595 O607 1.232 . S
O596 C595 1.245 . S
O597 Co591 2.058 . S
O597 C623 1.269 . S
O598 Co590 2.074 . S
O598 C623 1.257 . S
H599 C624 0.930 . S
H600 C630 0.930 . S
O601 Co590 2.093 . S
O601 C593 1.224 . S
H602 C634 0.929 . S
H603 C636 0.930 . S
H604 C637 0.930 . S
H605 C635 0.929 . S
H606 C638 0.928 . S
O607 Co591 2.057 . S
O607 C595 1.232 . S
H608 C627 0.929 . S
H609 C628 0.929 . S
H610 C640 0.931 . S
H611 C632 0.929 . S
H612 C641 0.930 . S
H613 C633 0.931 . S
O614 Co590 2.097 . S
O614 C642 1.214 . S
H615 C643 0.929 . S
H616 C644 0.929 . S
H617 C645 0.930 . S
H618 C646 0.929 . S
H619 C648 0.930 . S
H620 C625 0.930 . S
H621 C629 0.930 . S
O622 Co591 2.037 . S
O622 C642 1.234 . S
C623 O597 1.269 . S
C623 O598 1.257 . S
C624 H599 0.930 . S
C624 C627 1.388 . S
C624 C629 1.418 . S
C625 H620 0.930 . S
C625 C628 1.404 . S
C625 C629 1.353 . S
N626 Co591 2.145 . S
N626 C627 1.397 . S
N626 C628 1.334 . S
C627 H608 0.929 . S
C627 C624 1.388 . S
C627 N626 1.397 . S
C628 H609 0.929 . S
C628 C625 1.404 . S
C628 N626 1.334 . S
C629 H621 0.930 . S
C629 C624 1.418 . S
C629 C625 1.353 . S
C630 H600 0.930 . S
C630 N631 1.330 . S
C630 C632 1.446 . S
N631 Co590 2.151 . S
N631 C630 1.330 . S
N631 C635 1.418 . S
C632 H611 0.929 . S
C632 C630 1.446 . S
C632 C633 1.332 . S
C633 H613 0.931 . S
C633 C632 1.332 . S
C633 C634 1.267 . S
C634 H602 0.929 . S
C634 C633 1.267 . S
C634 C635 1.251 . S
C635 H605 0.929 . S
C635 N631 1.418 . S
C635 C634 1.251 . S
C636 H603 0.930 . S
C636 C638 1.406 . S
C636 C641 1.261 . S
C637 H604 0.930 . S
C637 N639 1.325 . S
C637 C640 1.357 . S
C638 H606 0.928 . S
C638 C636 1.406 . S
C638 N639 1.261 . S
N639 Co590 2.214 . S
N639 C637 1.325 . S
N639 C638 1.261 . S
C640 H610 0.931 . S
C640 C637 1.357 . S
C640 C641 1.312 . S
C641 H612 0.930 . S
C641 C636 1.261 . S
C641 C640 1.312 . S
C642 O614 1.214 . S
C642 O622 1.234 . S
C643 H615 0.929 . S
C643 C646 1.391 . S
C643 C648 1.391 . S
C644 H616 0.929 . S
C644 C645 1.390 . S
C644 N647 1.391 . S
C645 H617 0.930 . S
C645 C644 1.390 . S
C645 C646 1.392 . S
C646 H618 0.929 . S
C646 C643 1.391 . S
C646 C645 1.392 . S
N647 Co591 2.257 . S
N647 C644 1.391 . S
N647 C648 1.388 . S
C648 H619 0.930 . S
C648 C643 1.391 . S
C648 N647 1.388 . S
Co649 O651 2.143 . S
Co649 O657 2.074 . S
Co649 O660 2.093 . S
Co649 O673 2.097 . S
Co649 N690 2.151 . S
Co649 N698 2.214 . S
Co650 O651 2.160 . S
Co650 O656 2.058 . S
Co650 O666 2.057 . S
Co650 O681 2.037 . S
Co650 N685 2.145 . S
Co650 N706 2.257 . S
O651 Co649 2.143 . S
O651 Co650 2.160 . S
C652 O653 1.278 . S
C652 O660 1.224 . S
O653 C652 1.278 . S
C654 O655 1.245 . S
C654 O666 1.232 . S
O655 C654 1.245 . S
O656 Co650 2.058 . S
O656 C682 1.269 . S
O657 Co649 2.074 . S
O657 C682 1.257 . S
H658 C683 0.930 . S
H659 C689 0.930 . S
O660 Co649 2.093 . S
O660 C652 1.224 . S
H661 C693 0.929 . S
H662 C695 0.930 . S
H663 C696 0.930 . S
H664 C694 0.929 . S
H665 C697 0.928 . S
O666 Co650 2.057 . S
O666 C654 1.232 . S
H667 C686 0.929 . S
H668 C687 0.929 . S
H669 C699 0.931 . S
H670 C691 0.929 . S
H671 C700 0.930 . S
H672 C692 0.931 . S
O673 Co649 2.097 . S
O673 C701 1.214 . S
H674 C702 0.929 . S
H675 C703 0.929 . S
H676 C704 0.930 . S
H677 C705 0.929 . S
H678 C707 0.930 . S
H679 C684 0.930 . S
H680 C688 0.930 . S
O681 Co650 2.037 . S
O681 C701 1.234 . S
C682 O656 1.269 . S
C682 O657 1.257 . S
C683 H658 0.930 . S
C683 C686 1.388 . S
C683 C688 1.418 . S
C684 H679 0.930 . S
C684 C687 1.404 . S
C684 C688 1.353 . S
N685 Co650 2.145 . S
N685 C686 1.397 . S
N685 C687 1.334 . S
C686 H667 0.929 . S
C686 C683 1.388 . S
C686 N685 1.397 . S
C687 H668 0.929 . S
C687 C684 1.404 . S
C687 N685 1.334 . S
C688 H680 0.930 . S
C688 C683 1.418 . S
C688 C684 1.353 . S
C689 H659 0.930 . S
C689 N690 1.330 . S
C689 C691 1.446 . S
N690 Co649 2.151 . S
N690 C689 1.330 . S
N690 C694 1.418 . S
C691 H670 0.929 . S
C691 C689 1.446 . S
C691 C692 1.332 . S
C692 H672 0.931 . S
C692 C691 1.332 . S
C692 C693 1.267 . S
C693 H661 0.929 . S
C693 C692 1.267 . S
C693 C694 1.251 . S
C694 H664 0.929 . S
C694 N690 1.418 . S
C694 C693 1.251 . S
C695 H662 0.930 . S
C695 C697 1.406 . S
C695 C700 1.261 . S
C696 H663 0.930 . S
C696 N698 1.325 . S
C696 C699 1.357 . S
C697 H665 0.928 . S
C697 C695 1.406 . S
C697 N698 1.261 . S
N698 Co649 2.214 . S
N698 C696 1.325 . S
N698 C697 1.261 . S
C699 H669 0.931 . S
C699 C696 1.357 . S
C699 C700 1.312 . S
C700 H671 0.930 . S
C700 C695 1.261 . S
C700 C699 1.312 . S
C701 O673 1.214 . S
C701 O681 1.234 . S
C702 H674 0.929 . S
C702 C705 1.391 . S
C702 C707 1.391 . S
C703 H675 0.929 . S
C703 C704 1.390 . S
C703 N706 1.391 . S
C704 H676 0.930 . S
C704 C703 1.390 . S
C704 C705 1.392 . S
C705 H677 0.929 . S
C705 C702 1.391 . S
C705 C704 1.392 . S
N706 Co650 2.257 . S
N706 C703 1.391 . S
N706 C707 1.388 . S
C707 H678 0.930 . S
C707 C702 1.391 . S
C707 N706 1.388 . S
C708 C709 1.387 . S
C708 H712 0.950 . S
C708 C717 1.390 1_556 S
C709 C708 1.387 . S
C709 C711 1.387 . S
H710 C717 0.950 . S
C711 C709 1.387 . S
C711 C713 1.390 1_556 S
C711 H715 0.950 . S
H712 C708 0.950 . S
C713 C711 1.390 1_554 S
C713 C714 1.387 . S
C713 H716 0.950 . S
C714 C713 1.387 . S
C714 C717 1.387 . S
H715 C711 0.950 . S
H716 C713 0.950 . S
C717 C708 1.390 1_554 S
C717 H710 0.950 . S
C717 C714 1.387 . S
C718 C719 1.387 . S
C718 H722 0.950 . S
C718 C727 1.390 . S
C719 C718 1.387 . S
C719 C721 1.387 . S
H720 C727 0.950 . S
C721 C719 1.387 . S
C721 C723 1.390 . S
C721 H725 0.950 . S
H722 C718 0.950 . S
C723 C721 1.390 . S
C723 C724 1.387 . S
C723 H726 0.950 . S
C724 C723 1.387 . S
C724 C727 1.387 . S
H725 C721 0.950 . S
H726 C723 0.950 . S
C727 C718 1.390 . S
C727 H720 0.950 . S
C727 C724 1.387 . S
C728 C729 1.387 . S
C728 H732 0.950 . S
C728 C737 1.390 . S
C729 C728 1.387 . S
C729 C731 1.387 . S
H730 C737 0.950 . S
C731 C729 1.387 . S
C731 C733 1.390 . S
C731 H735 0.950 . S
H732 C728 0.950 . S
C733 C731 1.390 . S
C733 C734 1.387 . S
C733 H736 0.950 . S
C734 C733 1.387 . S
C734 C737 1.387 . S
H735 C731 0.950 . S
H736 C733 0.950 . S
C737 C728 1.390 . S
C737 H730 0.950 . S
C737 C734 1.387 . S
C738 C739 1.387 . S
C738 H742 0.950 . S
C738 C747 1.390 1_554 S
C739 C738 1.387 . S
C739 C741 1.387 . S
H740 C747 0.950 . S
C741 C739 1.387 . S
C741 C743 1.390 1_554 S
C741 H745 0.950 . S
H742 C738 0.950 . S
C743 C741 1.390 1_556 S
C743 C744 1.387 . S
C743 H746 0.950 . S
C744 C743 1.387 . S
C744 C747 1.387 . S
H745 C741 0.950 . S
H746 C743 0.950 . S
C747 C738 1.390 1_556 S
C747 H740 0.950 . S
C747 C744 1.387 . S
C748 C749 1.387 . S
C748 H752 0.950 . S
C748 C757 1.390 . S
C749 C748 1.387 . S
C749 C751 1.387 . S
H750 C757 0.950 . S
C751 C749 1.387 . S
C751 C753 1.390 . S
C751 H755 0.950 . S
H752 C748 0.950 . S
C753 C751 1.390 . S
C753 C754 1.387 . S
C753 H756 0.950 . S
C754 C753 1.387 . S
C754 C757 1.387 . S
H755 C751 0.950 . S
H756 C753 0.950 . S
C757 C748 1.390 . S
C757 H750 0.950 . S
C757 C754 1.387 . S
C758 C759 1.387 . S
C758 H762 0.950 . S
C758 C767 1.390 . S
C759 C758 1.387 . S
C759 C761 1.387 . S
H760 C767 0.950 . S
C761 C759 1.387 . S
C761 C763 1.390 . S
C761 H765 0.950 . S
H762 C758 0.950 . S
C763 C761 1.390 . S
C763 C764 1.387 . S
C763 H766 0.950 . S
C764 C763 1.387 . S
C764 C767 1.387 . S
H765 C761 0.950 . S
H766 C763 0.950 . S
C767 C758 1.390 . S
C767 H760 0.950 . S
C767 C764 1.387 . S
C768 C769 1.387 . S
C768 H772 0.950 . S
C768 C777 1.390 . S
C769 C768 1.387 . S
C769 C771 1.387 . S
H770 C777 0.950 . S
C771 C769 1.387 . S
C771 C773 1.390 . S
C771 H775 0.950 . S
H772 C768 0.950 . S
C773 C771 1.390 . S
C773 C774 1.387 . S
C773 H776 0.950 . S
C774 C773 1.387 . S
C774 C777 1.387 . S
H775 C771 0.950 . S
H776 C773 0.950 . S
C777 C768 1.390 . S
C777 H770 0.950 . S
C777 C774 1.387 . S
C778 C779 1.387 . S
C778 H782 0.950 . S
C778 C787 1.390 . S
C779 C778 1.387 . S
C779 C781 1.387 . S
H780 C787 0.950 . S
C781 C779 1.387 . S
C781 C783 1.390 . S
C781 H785 0.950 . S
H782 C778 0.950 . S
C783 C781 1.390 . S
C783 C784 1.387 . S
C783 H786 0.950 . S
C784 C783 1.387 . S
C784 C787 1.387 . S
H785 C781 0.950 . S
H786 C783 0.950 . S
C787 C778 1.390 . S
C787 H780 0.950 . S
C787 C784 1.387 . S
C788 C789 1.387 . S
C788 H792 0.950 . S
C788 C797 1.390 . S
C789 C788 1.387 . S
C789 C791 1.387 . S
H790 C797 0.950 . S
C791 C789 1.387 . S
C791 C793 1.390 . S
C791 H795 0.950 . S
H792 C788 0.950 . S
C793 C791 1.390 . S
C793 C794 1.387 . S
C793 H796 0.950 . S
C794 C793 1.387 . S
C794 C797 1.387 . S
H795 C791 0.950 . S
H796 C793 0.950 . S
C797 C788 1.390 . S
C797 H790 0.950 . S
C797 C794 1.387 . S
C798 C799 1.387 . S
C798 H802 0.950 . S
C798 C807 1.390 . S
C799 C798 1.387 . S
C799 C801 1.387 . S
H800 C807 0.950 . S
C801 C799 1.387 . S
C801 C803 1.390 . S
C801 H805 0.950 . S
H802 C798 0.950 . S
C803 C801 1.390 . S
C803 C804 1.387 . S
C803 H806 0.950 . S
C804 C803 1.387 . S
C804 C807 1.387 . S
H805 C801 0.950 . S
H806 C803 0.950 . S
C807 C798 1.390 . S
C807 H800 0.950 . S
C807 C804 1.387 . S
C808 C809 1.387 . S
C808 H812 0.950 . S
C808 C817 1.390 . S
C809 C808 1.387 . S
C809 C811 1.387 . S
H810 C817 0.950 . S
C811 C809 1.387 . S
C811 C813 1.390 . S
C811 H815 0.950 . S
H812 C808 0.950 . S
C813 C811 1.390 . S
C813 C814 1.387 . S
C813 H816 0.950 . S
C814 C813 1.387 . S
C814 C817 1.387 . S
H815 C811 0.950 . S
H816 C813 0.950 . S
C817 C808 1.390 . S
C817 H810 0.950 . S
C817 C814 1.387 . S
C818 C819 1.387 . S
C818 H822 0.950 . S
C818 C827 1.390 . S
C819 C818 1.387 . S
C819 C821 1.387 . S
H820 C827 0.950 . S
C821 C819 1.387 . S
C821 C823 1.390 . S
C821 H825 0.950 . S
H822 C818 0.950 . S
C823 C821 1.390 . S
C823 C824 1.387 . S
C823 H826 0.950 . S
C824 C823 1.387 . S
C824 C827 1.387 . S
H825 C821 0.950 . S
H826 C823 0.950 . S
C827 C818 1.390 . S
C827 H820 0.950 . S
C827 C824 1.387 . S
C828 C829 1.387 . S
C828 H832 0.950 . S
C828 C837 1.390 1_655 S
C829 C828 1.387 . S
C829 C831 1.387 . S
H830 C837 0.950 . S
C831 C829 1.387 . S
C831 C833 1.390 1_655 S
C831 H835 0.950 . S
H832 C828 0.950 . S
C833 C831 1.390 1_455 S
C833 C834 1.387 . S
C833 H836 0.950 . S
C834 C833 1.387 . S
C834 C837 1.387 . S
H835 C831 0.950 . S
H836 C833 0.950 . S
C837 C828 1.390 1_455 S
C837 H830 0.950 . S
C837 C834 1.387 . S
C838 C839 1.387 . S
C838 H842 0.950 . S
C838 C847 1.390 1_545 S
C839 C838 1.387 . S
C839 C841 1.387 . S
H840 C847 0.950 . S
C841 C839 1.387 . S
C841 C843 1.390 1_545 S
C841 H845 0.950 . S
H842 C838 0.950 . S
C843 C841 1.390 1_565 S
C843 C844 1.387 . S
C843 H846 0.950 . S
C844 C843 1.387 . S
C844 C847 1.387 . S
H845 C841 0.950 . S
H846 C843 0.950 . S
C847 C838 1.390 1_565 S
C847 H840 0.950 . S
C847 C844 1.387 . S
C848 C849 1.387 . S
C848 H852 0.950 . S
C848 C857 1.390 . S
C849 C848 1.387 . S
C849 C851 1.387 . S
H850 C857 0.950 . S
C851 C849 1.387 . S
C851 C853 1.390 . S
C851 H855 0.950 . S
H852 C848 0.950 . S
C853 C851 1.390 . S
C853 C854 1.387 . S
C853 H856 0.950 . S
C854 C853 1.387 . S
C854 C857 1.387 . S
H855 C851 0.950 . S
H856 C853 0.950 . S
C857 C848 1.390 . S
C857 H850 0.950 . S
C857 C854 1.387 . S
C858 C859 1.387 . S
C858 H862 0.950 . S
C858 C867 1.390 1_545 S
C859 C858 1.387 . S
C859 C861 1.387 . S
H860 C867 0.950 . S
C861 C859 1.387 . S
C861 C863 1.390 1_545 S
C861 H865 0.950 . S
H862 C858 0.950 . S
C863 C861 1.390 1_565 S
C863 C864 1.387 . S
C863 H866 0.950 . S
C864 C863 1.387 . S
C864 C867 1.387 . S
H865 C861 0.950 . S
H866 C863 0.950 . S
C867 C858 1.390 1_565 S
C867 H860 0.950 . S
C867 C864 1.387 . S
C868 C869 1.387 . S
C868 H872 0.950 . S
C868 C877 1.390 . S
C869 C868 1.387 . S
C869 C871 1.387 . S
H870 C877 0.950 . S
C871 C869 1.387 . S
C871 C873 1.390 . S
C871 H875 0.950 . S
H872 C868 0.950 . S
C873 C871 1.390 . S
C873 C874 1.387 . S
C873 H876 0.950 . S
C874 C873 1.387 . S
C874 C877 1.387 . S
H875 C871 0.950 . S
H876 C873 0.950 . S
C877 C868 1.390 . S
C877 H870 0.950 . S
C877 C874 1.387 . S
C878 C879 1.387 . S
C878 H882 0.950 . S
C878 C887 1.390 1_455 S
C879 C878 1.387 . S
C879 C881 1.387 . S
H880 C887 0.950 . S
C881 C879 1.387 . S
C881 C883 1.390 1_455 S
C881 H885 0.950 . S
H882 C878 0.950 . S
C883 C881 1.390 1_655 S
C883 C884 1.387 . S
C883 H886 0.950 . S
C884 C883 1.387 . S
C884 C887 1.387 . S
H885 C881 0.950 . S
H886 C883 0.950 . S
C887 C878 1.390 1_655 S
C887 H880 0.950 . S
C887 C884 1.387 . S
C888 C889 1.387 . S
C888 H892 0.950 . S
C888 C897 1.390 . S
C889 C888 1.387 . S
C889 C891 1.387 . S
H890 C897 0.950 . S
C891 C889 1.387 . S
C891 C893 1.390 . S
C891 H895 0.950 . S
H892 C888 0.950 . S
C893 C891 1.390 . S
C893 C894 1.387 . S
C893 H896 0.950 . S
C894 C893 1.387 . S
C894 C897 1.387 . S
H895 C891 0.950 . S
H896 C893 0.950 . S
C897 C888 1.390 . S
C897 H890 0.950 . S
C897 C894 1.387 . S
C898 C899 1.387 . S
C898 H902 0.950 . S
C898 C907 1.390 1_655 S
C899 C898 1.387 . S
C899 C901 1.387 . S
H900 C907 0.950 . S
C901 C899 1.387 . S
C901 C903 1.390 1_655 S
C901 H905 0.950 . S
H902 C898 0.950 . S
C903 C901 1.390 1_455 S
C903 C904 1.387 . S
C903 H906 0.950 . S
C904 C903 1.387 . S
C904 C907 1.387 . S
H905 C901 0.950 . S
H906 C903 0.950 . S
C907 C898 1.390 1_455 S
C907 H900 0.950 . S
C907 C904 1.387 . S
C908 C909 1.387 . S
C908 H912 0.950 . S
C908 C917 1.390 1_545 S
C909 C908 1.387 . S
C909 C911 1.387 . S
H910 C917 0.950 . S
C911 C909 1.387 . S
C911 C913 1.390 1_545 S
C911 H915 0.950 . S
H912 C908 0.950 . S
C913 C911 1.390 1_565 S
C913 C914 1.387 . S
C913 H916 0.950 . S
C914 C913 1.387 . S
C914 C917 1.387 . S
H915 C911 0.950 . S
H916 C913 0.950 . S
C917 C908 1.390 1_565 S
C917 H910 0.950 . S
C917 C914 1.387 . S
C918 C919 1.387 . S
C918 H922 0.950 . S
C918 C927 1.390 . S
C919 C918 1.387 . S
C919 C921 1.387 . S
H920 C927 0.950 . S
C921 C919 1.387 . S
C921 C923 1.390 . S
C921 H925 0.950 . S
H922 C918 0.950 . S
C923 C921 1.390 . S
C923 C924 1.387 . S
C923 H926 0.950 . S
C924 C923 1.387 . S
C924 C927 1.387 . S
H925 C921 0.950 . S
H926 C923 0.950 . S
C927 C918 1.390 . S
C927 H920 0.950 . S
C927 C924 1.387 . S
C928 C929 1.387 . S
C928 H932 0.950 . S
C928 C937 1.390 1_455 S
C929 C928 1.387 . S
C929 C931 1.387 . S
H930 C937 0.950 . S
C931 C929 1.387 . S
C931 C933 1.390 1_455 S
C931 H935 0.950 . S
H932 C928 0.950 . S
C933 C931 1.390 1_655 S
C933 C934 1.387 . S
C933 H936 0.950 . S
C934 C933 1.387 . S
C934 C937 1.387 . S
H935 C931 0.950 . S
H936 C933 0.950 . S
C937 C928 1.390 1_655 S
C937 H930 0.950 . S
C937 C934 1.387 . S
C938 C939 1.387 . S
C938 H942 0.950 . S
C938 C947 1.390 1_565 S
C939 C938 1.387 . S
C939 C941 1.387 . S
H940 C947 0.950 . S
C941 C939 1.387 . S
C941 C943 1.390 1_565 S
C941 H945 0.950 . S
H942 C938 0.950 . S
C943 C941 1.390 1_545 S
C943 C944 1.387 . S
C943 H946 0.950 . S
C944 C943 1.387 . S
C944 C947 1.387 . S
H945 C941 0.950 . S
H946 C943 0.950 . S
C947 C938 1.390 1_545 S
C947 H940 0.950 . S
C947 C944 1.387 . S
C709 C593 1.474 . S
C714 C3 1.474 . S
C719 C62 1.475 . S
C724 C652 1.473 . S
C729 C121 1.474 . S
C734 C357 1.474 . S
C739 C180 1.473 . S
C744 C416 1.474 . S
C749 C475 1.474 . S
C754 C239 1.473 . S
C759 C298 1.473 . S
C764 C534 1.473 . S
C769 C505 1.393 . S
C774 C33 1.393 . S
C779 C92 1.391 . S
C784 C564 1.391 . S
C789 C151 1.395 . S
C794 C623 1.394 . S
C799 C210 1.394 . S
C804 C682 1.393 . S
C809 C387 1.393 . S
C814 C269 1.393 . S
C819 C446 1.391 . S
C824 C328 1.390 . S
C829 C229 1.655 . S
C834 C52 1.655 . S
C839 C111 1.655 . S
C844 C288 1.655 . S
C849 C347 1.655 . S
C854 C170 1.655 . S
C859 C583 1.655 . S
C864 C406 1.655 . S
C869 C642 1.655 . S
C874 C465 1.655 . S
C879 C524 1.655 . S
C884 C701 1.655 . S
C889 C182 1.330 . S
C894 C5 1.330 . S
C899 C64 1.331 . S
C904 C241 1.331 . S
C909 C300 1.330 . S
C914 C123 1.330 . S
C919 C359 1.331 . S
C924 C536 1.331 . S
C929 C595 1.331 . S
C934 C418 1.331 . S
C939 C477 1.330 . S
C944 C654 1.330 . S
