# Generated by pormake.
# Topology acs-i, (5)-cn, num edge types: 1
# Building blocks:
#     Node 0, Type 0, BuildingBlock: XOMCOT_clean_sbu_0, # of connection points: 5
#     Node 1, Type 0, BuildingBlock: XOMCOT_clean_sbu_0, # of connection points: 5
#     Node 2, Type 0, BuildingBlock: XOMCOT_clean_sbu_0, # of connection points: 5
#     Node 3, Type 0, BuildingBlock: XOMCOT_clean_sbu_0, # of connection points: 5
#     Node 4, Type 0, BuildingBlock: XOMCOT_clean_sbu_0, # of connection points: 5
#     Node 5, Type 0, BuildingBlock: XOMCOT_clean_sbu_0, # of connection points: 5
#     Node 6, Type 0, BuildingBlock: XOMCOT_clean_sbu_0, # of connection points: 5
#     Node 7, Type 0, BuildingBlock: XOMCOT_clean_sbu_0, # of connection points: 5
#     Node 8, Type 0, BuildingBlock: XOMCOT_clean_sbu_0, # of connection points: 5
#     Node 9, Type 0, BuildingBlock: XOMCOT_clean_sbu_0, # of connection points: 5
#     Node 10, Type 0, BuildingBlock: XOMCOT_clean_sbu_0, # of connection points: 5
#     Node 11, Type 0, BuildingBlock: XOMCOT_clean_sbu_0, # of connection points: 5
#     Edge 12, Type (0, 0), BuildingBlock: UVAHIK_clean_linker_0, # of connection points: 2
#     Edge 13, Type (0, 0), BuildingBlock: UVAHIK_clean_linker_0, # of connection points: 2
#     Edge 14, Type (0, 0), BuildingBlock: UVAHIK_clean_linker_0, # of connection points: 2
#     Edge 15, Type (0, 0), BuildingBlock: UVAHIK_clean_linker_0, # of connection points: 2
#     Edge 16, Type (0, 0), BuildingBlock: UVAHIK_clean_linker_0, # of connection points: 2
#     Edge 17, Type (0, 0), BuildingBlock: UVAHIK_clean_linker_0, # of connection points: 2
#     Edge 18, Type (0, 0), BuildingBlock: UVAHIK_clean_linker_0, # of connection points: 2
#     Edge 19, Type (0, 0), BuildingBlock: UVAHIK_clean_linker_0, # of connection points: 2
#     Edge 20, Type (0, 0), BuildingBlock: UVAHIK_clean_linker_0, # of connection points: 2
#     Edge 21, Type (0, 0), BuildingBlock: UVAHIK_clean_linker_0, # of connection points: 2
#     Edge 22, Type (0, 0), BuildingBlock: UVAHIK_clean_linker_0, # of connection points: 2
#     Edge 23, Type (0, 0), BuildingBlock: UVAHIK_clean_linker_0, # of connection points: 2
#     Edge 24, Type (0, 0), BuildingBlock: UVAHIK_clean_linker_0, # of connection points: 2
#     Edge 25, Type (0, 0), BuildingBlock: UVAHIK_clean_linker_0, # of connection points: 2
#     Edge 26, Type (0, 0), BuildingBlock: UVAHIK_clean_linker_0, # of connection points: 2
#     Edge 27, Type (0, 0), BuildingBlock: UVAHIK_clean_linker_0, # of connection points: 2
#     Edge 28, Type (0, 0), BuildingBlock: UVAHIK_clean_linker_0, # of connection points: 2
#     Edge 29, Type (0, 0), BuildingBlock: UVAHIK_clean_linker_0, # of connection points: 2
#     Edge 30, Type (0, 0), BuildingBlock: UVAHIK_clean_linker_0, # of connection points: 2
#     Edge 31, Type (0, 0), BuildingBlock: UVAHIK_clean_linker_0, # of connection points: 2
#     Edge 32, Type (0, 0), BuildingBlock: UVAHIK_clean_linker_0, # of connection points: 2
#     Edge 33, Type (0, 0), BuildingBlock: UVAHIK_clean_linker_0, # of connection points: 2
#     Edge 34, Type (0, 0), BuildingBlock: UVAHIK_clean_linker_0, # of connection points: 2
#     Edge 35, Type (0, 0), BuildingBlock: UVAHIK_clean_linker_0, # of connection points: 2
#     Edge 36, Type (0, 0), BuildingBlock: UVAHIK_clean_linker_0, # of connection points: 2
#     Edge 37, Type (0, 0), BuildingBlock: UVAHIK_clean_linker_0, # of connection points: 2
#     Edge 38, Type (0, 0), BuildingBlock: UVAHIK_clean_linker_0, # of connection points: 2
#     Edge 39, Type (0, 0), BuildingBlock: UVAHIK_clean_linker_0, # of connection points: 2
#     Edge 40, Type (0, 0), BuildingBlock: UVAHIK_clean_linker_0, # of connection points: 2
#     Edge 41, Type (0, 0), BuildingBlock: UVAHIK_clean_linker_0, # of connection points: 2
# Relax obj value: 0.838
# Max RMSD: 0.229
# Mean RMSD: 0.229
data_MOF--net-acs-i--node1-XOMCOT_clean_sbu_0--edge1-UVAHIK_clean_linker_0
_symmetry_space_group_name_H-M    P1
_symmetry_Int_Tables_number       1
_symmetry_cell_setting            triclinic
loop_
_symmetry_equiv_pos_as_xyz
'x, y, z'
_cell_length_a     65.017462
_cell_length_b     65.058088
_cell_length_c     44.657467
_cell_angle_alpha  90.028529
_cell_angle_beta   89.989695
_cell_angle_gamma 120.00854
loop_
_atom_site_label
_atom_site_type_symbol
_atom_site_fract_x
_atom_site_fract_y
_atom_site_fract_z
_atom_type_partial_charge
Co0 Co 0.31254 0.50601 0.05638 0.0
C1 C 0.34504 0.50501 0.10346 0.0
C2 C 0.36192 0.53612 0.07611 0.0
C3 C 0.37769 0.53799 0.09768 0.0
N4 N 0.34171 0.51492 0.07857 0.0
N5 N 0.36707 0.51849 0.1149 0.0
H6 H 0.33127 0.48937 0.11445 0.0
H7 H 0.36454 0.55039 0.06141 0.0
C8 C 0.35012 0.52966 0.00971 0.0
O9 O 0.35759 0.51491 0.01699 0.0
N10 N 0.28403 0.4985 0.03479 0.0
C11 C 0.26412 0.47736 0.03125 0.0
C12 C 0.24852 0.48063 0.01365 0.0
C13 C 0.28034 0.51424 0.01974 0.0
N14 N 0.25883 0.50388 0.00637 0.0
C15 C 0.3133 0.4624 0.05472 0.0
C16 C 0.31383 0.45874 0.99308 0.0
C17 C 0.31685 0.44271 0.01086 0.0
C18 C 0.31556 0.44407 0.04203 0.0
C19 C 0.31122 0.47661 0.00678 0.0
N20 N 0.31284 0.47931 0.03722 0.0
H21 H 0.3122 0.46308 0.07868 0.0
H22 H 0.30897 0.48894 0.99287 0.0
H23 H 0.26122 0.4608 0.04065 0.0
H24 H 0.2931 0.53304 0.01927 0.0
O25 O 0.29388 0.48968 0.09091 0.0
O26 O 0.30823 0.52793 0.08148 0.0
O27 O 0.33197 0.52831 0.02288 0.0
C28 C 0.29639 0.50993 0.09937 0.0
H29 H 0.39477 0.55351 0.10223 0.0
H30 H 0.23103 0.46691 0.00671 0.0
H31 H 0.31409 0.45784 0.96887 0.0
H32 H 0.31741 0.43178 0.05658 0.0
Co33 Co 0.80323 0.32163 0.56617 0.0
C34 C 0.83441 0.36056 0.60838 0.0
C35 C 0.8104 0.36761 0.58333 0.0
C36 C 0.82335 0.3864 0.60202 0.0
N37 N 0.81735 0.35149 0.58714 0.0
N38 N 0.83852 0.38211 0.61781 0.0
H39 H 0.84326 0.35145 0.61693 0.0
H40 H 0.7963 0.36553 0.56857 0.0
C41 C 0.80097 0.33538 0.50225 0.0
O42 O 0.80469 0.31867 0.49173 0.0
N43 N 0.78762 0.29183 0.54433 0.0
C44 C 0.79387 0.27542 0.53764 0.0
C45 C 0.7762 0.25789 0.5203 0.0
C46 C 0.76629 0.28384 0.53127 0.0
N47 N 0.75901 0.26344 0.51613 0.0
C48 C 0.84347 0.31511 0.56641 0.0
C49 C 0.87304 0.3547 0.53285 0.0
C50 C 0.88186 0.34061 0.54438 0.0
C51 C 0.86677 0.32054 0.56121 0.0
C52 C 0.84941 0.34836 0.53813 0.0
N53 N 0.83471 0.32837 0.55408 0.0
H54 H 0.83259 0.30042 0.58103 0.0
H55 H 0.84343 0.36024 0.53061 0.0
H56 H 0.80994 0.27577 0.54427 0.0
H57 H 0.75634 0.29307 0.53281 0.0
O58 O 0.80068 0.30503 0.60286 0.0
O59 O 0.77328 0.31283 0.58591 0.0
O60 O 0.79993 0.33837 0.53033 0.0
C61 C 0.78018 0.30354 0.60666 0.0
H62 H 0.82084 0.40153 0.60477 0.0
H63 H 0.77622 0.2425 0.51113 0.0
H64 H 0.88442 0.37071 0.52033 0.0
H65 H 0.8732 0.3097 0.57135 0.0
Co66 Co 0.48993 0.80868 0.06555 0.0
C67 C 0.48263 0.84123 0.10735 0.0
C68 C 0.45175 0.81684 0.08259 0.0
C69 C 0.44552 0.82936 0.10148 0.0
N70 N 0.4751 0.82449 0.08563 0.0
N71 N 0.4649 0.84476 0.11712 0.0
H72 H 0.5002 0.84996 0.11683 0.0
H73 H 0.4397 0.80228 0.0684 0.0
C74 C 0.46909 0.82381 0.01692 0.0
O75 O 0.48098 0.84541 0.02794 0.0
N76 N 0.50291 0.79174 0.04513 0.0
C77 C 0.524 0.79281 0.04861 0.0
C78 C 0.52413 0.77545 0.03079 0.0
C79 C 0.49067 0.77413 0.02551 0.0
N80 N 0.50315 0.7639 0.01619 0.0
C81 C 0.53272 0.85213 0.07623 0.0
C82 C 0.54454 0.86573 0.01728 0.0
C83 C 0.55875 0.88104 0.04017 0.0
C84 C 0.55302 0.87356 0.06988 0.0
C85 C 0.52432 0.84416 0.02473 0.0
N86 N 0.51775 0.83843 0.054 0.0
H87 H 0.52936 0.84644 0.09921 0.0
H88 H 0.51389 0.8322 0.00697 0.0
H89 H 0.5379 0.80477 0.06366 0.0
H90 H 0.47236 0.76798 0.01955 0.0
O91 O 0.50165 0.80449 0.10315 0.0
O92 O 0.46633 0.7792 0.08435 0.0
O93 O 0.47181 0.80723 0.02814 0.0
C94 C 0.48145 0.78508 0.10633 0.0
H95 H 0.42768 0.82621 0.10472 0.0
H96 H 0.53824 0.77125 0.02929 0.0
H97 H 0.5487 0.87051 0.99394 0.0
H98 H 0.56422 0.88417 0.08822 0.0
Co99 Co 0.67698 0.48811 0.55534 0.0
C100 C 0.64629 0.49035 0.60382 0.0
C101 C 0.62703 0.46061 0.57477 0.0
C102 C 0.61205 0.45943 0.59707 0.0
N103 N 0.64834 0.48058 0.57798 0.0
N104 N 0.62417 0.47806 0.61536 0.0
H105 H 0.66096 0.50496 0.6153 0.0
H106 H 0.623 0.44644 0.55914 0.0
C107 C 0.63932 0.46664 0.50807 0.0
O108 O 0.63332 0.48261 0.51486 0.0
N109 N 0.70497 0.49447 0.53327 0.0
C110 C 0.72614 0.51468 0.53261 0.0
C111 C 0.74118 0.51121 0.51419 0.0
C112 C 0.70728 0.47907 0.51547 0.0
N113 N 0.72918 0.48884 0.50337 0.0
C114 C 0.67883 0.53299 0.5551 0.0
C115 C 0.68036 0.53853 0.49362 0.0
C116 C 0.67862 0.55512 0.51186 0.0
C117 C 0.67871 0.55264 0.54299 0.0
C118 C 0.68076 0.51926 0.50675 0.0
N119 N 0.67835 0.51585 0.53705 0.0
H120 H 0.67919 0.53155 0.57904 0.0
H121 H 0.68212 0.50657 0.49247 0.0
H122 H 0.73034 0.53069 0.54478 0.0
H123 H 0.69342 0.46084 0.51221 0.0
O124 O 0.69633 0.50337 0.58986 0.0
O125 O 0.67998 0.46498 0.57956 0.0
O126 O 0.65665 0.46666 0.52173 0.0
C127 C 0.69289 0.48261 0.59755 0.0
H128 H 0.59436 0.44471 0.6013 0.0
H129 H 0.75951 0.52407 0.50928 0.0
H130 H 0.68091 0.54018 0.46945 0.0
H131 H 0.67768 0.56522 0.55791 0.0
Co132 Co 0.19677 0.68001 0.06004 0.0
C133 C 0.17043 0.6397 0.10183 0.0
C134 C 0.18934 0.63194 0.0684 0.0
C135 C 0.17768 0.61252 0.08677 0.0
N136 N 0.18462 0.64889 0.07767 0.0
N137 N 0.16591 0.61746 0.10777 0.0
H138 H 0.16379 0.64913 0.11497 0.0
H139 H 0.20085 0.63361 0.04998 0.0
C140 C 0.19653 0.66696 0.9952 0.0
O141 O 0.18351 0.67638 0.9877 0.0
N142 N 0.21017 0.71141 0.04217 0.0
C143 C 0.21069 0.73094 0.05354 0.0
C144 C 0.22755 0.75071 0.0385 0.0
C145 C 0.22727 0.71989 0.02096 0.0
N146 N 0.23792 0.74364 0.01801 0.0
C147 C 0.15533 0.68482 0.05528 0.0
C148 C 0.12644 0.64106 0.02925 0.0
C149 C 0.11677 0.65533 0.03697 0.0
C150 C 0.13155 0.67758 0.04978 0.0
C151 C 0.15042 0.64915 0.03472 0.0
N152 N 0.1647 0.67095 0.04731 0.0
H153 H 0.16575 0.70105 0.0674 0.0
H154 H 0.15735 0.63755 0.02952 0.0
H155 H 0.20155 0.73141 0.07349 0.0
H156 H 0.23397 0.70943 0.01049 0.0
O157 O 0.19623 0.69265 0.0988 0.0
O158 O 0.22672 0.69038 0.08026 0.0
O159 O 0.20328 0.66756 0.02217 0.0
C160 C 0.21757 0.6961 0.10251 0.0
H161 H 0.17868 0.59641 0.08564 0.0
H162 H 0.23314 0.76898 0.04397 0.0
H163 H 0.11547 0.62363 0.01953 0.0
H164 H 0.12452 0.68877 0.0569 0.0
Co165 Co 0.50762 0.18599 0.56605 0.0
C166 C 0.5161 0.15287 0.60585 0.0
C167 C 0.54639 0.17849 0.5811 0.0
C168 C 0.55311 0.16518 0.5976 0.0
N169 N 0.52307 0.17056 0.58548 0.0
N170 N 0.53414 0.14904 0.61312 0.0
H171 H 0.49871 0.14331 0.6158 0.0
H172 H 0.55793 0.1934 0.56706 0.0
C173 C 0.5265 0.1694 0.51701 0.0
O174 O 0.51465 0.14823 0.52925 0.0
N175 N 0.49412 0.20269 0.54615 0.0
C176 C 0.47196 0.19929 0.5475 0.0
C177 C 0.47127 0.21676 0.53068 0.0
C178 C 0.50654 0.22194 0.52891 0.0
N179 N 0.4931 0.231 0.51901 0.0
C180 C 0.46505 0.14264 0.5786 0.0
C181 C 0.451 0.12925 0.52007 0.0
C182 C 0.43706 0.11428 0.54336 0.0
C183 C 0.44406 0.12158 0.57293 0.0
C184 C 0.47188 0.15038 0.52683 0.0
N185 N 0.47941 0.15611 0.5558 0.0
H186 H 0.4694 0.14836 0.60151 0.0
H187 H 0.48193 0.16216 0.50873 0.0
H188 H 0.45752 0.18545 0.56023 0.0
H189 H 0.5254 0.22972 0.525 0.0
O190 O 0.49686 0.19108 0.60391 0.0
O191 O 0.53185 0.21572 0.5837 0.0
O192 O 0.52452 0.18656 0.52779 0.0
C193 C 0.51706 0.21066 0.60591 0.0
H194 H 0.57093 0.16793 0.59919 0.0
H195 H 0.45597 0.21898 0.52779 0.0
H196 H 0.44605 0.1246 0.49685 0.0
H197 H 0.43325 0.11125 0.59166 0.0
Co198 Co 0.48127 0.67695 0.43901 0.0
C199 C 0.47229 0.6391 0.39456 0.0
C200 C 0.45285 0.62473 0.43527 0.0
C201 C 0.44715 0.60636 0.41575 0.0
N202 N 0.46864 0.64535 0.42208 0.0
N203 N 0.45925 0.61539 0.39011 0.0
H204 H 0.48383 0.65157 0.37787 0.0
H205 H 0.44535 0.62288 0.45735 0.0
C206 C 0.46408 0.66685 0.50283 0.0
O207 O 0.48541 0.6813 0.51336 0.0
N208 N 0.49265 0.70808 0.45667 0.0
C209 C 0.51452 0.7257 0.46444 0.0
C210 C 0.51228 0.74301 0.47951 0.0
C211 C 0.47766 0.71512 0.46691 0.0
N212 N 0.48902 0.73615 0.48127 0.0
C213 C 0.52923 0.68743 0.44343 0.0
C214 C 0.52111 0.6508 0.4817 0.0
C215 C 0.54375 0.66473 0.46932 0.0
C216 C 0.54786 0.68352 0.45046 0.0
C217 C 0.50305 0.65565 0.47456 0.0
N218 N 0.50725 0.67397 0.45584 0.0
H219 H 0.53236 0.70083 0.42698 0.0
H220 H 0.48543 0.64371 0.48281 0.0
H221 H 0.53106 0.72616 0.46054 0.0
H222 H 0.45859 0.70458 0.46433 0.0
O223 O 0.49562 0.69113 0.40111 0.0
O224 O 0.45917 0.68161 0.41486 0.0
O225 O 0.46032 0.66291 0.47484 0.0
C226 C 0.47567 0.69012 0.39446 0.0
H227 H 0.43414 0.5879 0.41963 0.0
H228 H 0.52665 0.759 0.48924 0.0
H229 H 0.51719 0.63577 0.49588 0.0
H230 H 0.56494 0.69417 0.43971 0.0
Co231 Co 0.80094 0.49194 0.93648 0.0
C232 C 0.83646 0.48953 0.89487 0.0
C233 C 0.81607 0.45808 0.92086 0.0
C234 C 0.83067 0.45437 0.90245 0.0
N235 N 0.82032 0.48049 0.91737 0.0
N236 N 0.84352 0.47409 0.88609 0.0
H237 H 0.84185 0.50617 0.88373 0.0
H238 H 0.80217 0.44461 0.93455 0.0
C239 C 0.81236 0.46864 0.98608 0.0
O240 O 0.83483 0.48219 0.97879 0.0
N241 N 0.7805 0.50156 0.95538 0.0
C242 C 0.78225 0.52306 0.95675 0.0
C243 C 0.7638 0.52115 0.97425 0.0
C244 C 0.76125 0.487 0.97157 0.0
N245 N 0.75078 0.49845 0.98371 0.0
C246 C 0.84634 0.53469 0.9378 0.0
C247 C 0.84948 0.53954 0.99937 0.0
C248 C 0.86946 0.55415 0.9819 0.0
C249 C 0.86732 0.55235 0.95065 0.0
C250 C 0.82879 0.5222 0.98549 0.0
N251 N 0.82821 0.51865 0.95525 0.0
H252 H 0.84486 0.53373 0.91381 0.0
H253 H 0.8136 0.51083 0.99923 0.0
H254 H 0.79608 0.53895 0.94621 0.0
H255 H 0.75492 0.46824 0.97405 0.0
O256 O 0.80028 0.50718 0.89989 0.0
O257 O 0.77466 0.46978 0.91169 0.0
O258 O 0.79632 0.47068 0.97199 0.0
C259 C 0.78197 0.48701 0.8923 0.0
H260 H 0.83047 0.43775 0.89956 0.0
H261 H 0.76049 0.53542 0.9799 0.0
H262 H 0.85011 0.54095 0.02356 0.0
H263 H 0.88209 0.56363 0.9362 0.0
Co264 Co 0.31791 0.81681 0.43214 0.0
C265 C 0.35809 0.85178 0.39368 0.0
C266 C 0.36924 0.83582 0.42694 0.0
C267 C 0.38827 0.84965 0.40898 0.0
N268 N 0.35036 0.83771 0.41827 0.0
N269 N 0.3813 0.85965 0.38791 0.0
H270 H 0.34667 0.8546 0.37878 0.0
H271 H 0.36886 0.82341 0.44328 0.0
C272 C 0.34629 0.82889 0.48861 0.0
O273 O 0.35418 0.85138 0.48248 0.0
N274 N 0.28617 0.79513 0.44572 0.0
C275 C 0.26566 0.7938 0.43721 0.0
C276 C 0.24708 0.77406 0.45048 0.0
C277 C 0.27997 0.77651 0.46399 0.0
N278 N 0.25625 0.76342 0.46742 0.0
C279 C 0.31778 0.86068 0.42841 0.0
C280 C 0.30424 0.86124 0.48693 0.0
C281 C 0.30914 0.88044 0.46817 0.0
C282 C 0.31548 0.87971 0.43836 0.0
C283 C 0.30674 0.84249 0.47597 0.0
N284 N 0.3147 0.84302 0.44747 0.0
H285 H 0.32175 0.86009 0.40519 0.0
H286 H 0.3026 0.82766 0.49055 0.0
H287 H 0.26429 0.80588 0.4218 0.0
H288 H 0.29248 0.77187 0.47334 0.0
O289 O 0.30615 0.81564 0.3923 0.0
O290 O 0.31785 0.79122 0.40984 0.0
O291 O 0.33082 0.81279 0.47151 0.0
C292 C 0.30961 0.79788 0.38754 0.0
H293 H 0.40523 0.8503 0.40956 0.0
H294 H 0.22833 0.76771 0.44743 0.0
H295 H 0.29864 0.86075 0.50989 0.0
H296 H 0.31924 0.894 0.42292 0.0
Co297 Co 0.51716 0.31812 0.93912 0.0
C298 C 0.52638 0.3567 0.89611 0.0
C299 C 0.55358 0.36787 0.92965 0.0
C300 C 0.55917 0.3867 0.91104 0.0
N301 N 0.53294 0.3491 0.92048 0.0
N302 N 0.54214 0.37968 0.88998 0.0
H303 H 0.51063 0.34567 0.88301 0.0
H304 H 0.56428 0.36793 0.94818 0.0
C305 C 0.53161 0.33002 0.00345 0.0
O306 O 0.50943 0.31695 0.01207 0.0
N307 N 0.50272 0.28735 0.95863 0.0
C308 C 0.47997 0.27002 0.9629 0.0
C309 C 0.47988 0.252 0.97933 0.0
C310 C 0.51591 0.27942 0.97219 0.0
N311 N 0.50255 0.25811 0.98532 0.0
C312 C 0.47047 0.31183 0.94098 0.0
C313 C 0.4816 0.35155 0.9749 0.0
C314 C 0.45849 0.3378 0.96377 0.0
C315 C 0.45295 0.31763 0.94679 0.0
C316 C 0.49851 0.34484 0.96897 0.0
N317 N 0.49267 0.3247 0.953 0.0
H318 H 0.46639 0.29757 0.9255 0.0
H319 H 0.51658 0.35657 0.97596 0.0
H320 H 0.4643 0.2699 0.955 0.0
H321 H 0.53512 0.2892 0.97214 0.0
O322 O 0.50293 0.30355 0.90155 0.0
O323 O 0.53802 0.31007 0.91717 0.0
O324 O 0.5372 0.33233 0.97579 0.0
C325 C 0.5219 0.30229 0.89622 0.0
H326 H 0.57513 0.40394 0.91207 0.0
H327 H 0.4643 0.2358 0.98648 0.0
H328 H 0.48671 0.36768 0.9874 0.0
H329 H 0.43558 0.30718 0.93667 0.0
Co330 Co 0.19311 0.50478 0.44073 0.0
C331 C 0.16015 0.50403 0.3935 0.0
C332 C 0.17144 0.53357 0.4231 0.0
C333 C 0.15779 0.53538 0.40106 0.0
N334 N 0.17226 0.51337 0.4193 0.0
N335 N 0.1508 0.51687 0.3824 0.0
H336 H 0.15966 0.48926 0.38172 0.0
H337 H 0.18194 0.54757 0.43875 0.0
C338 C 0.18109 0.52897 0.48963 0.0
O339 O 0.15843 0.51373 0.48547 0.0
N340 N 0.21442 0.49717 0.46156 0.0
C341 C 0.21601 0.47735 0.45913 0.0
C342 C 0.23436 0.47981 0.47718 0.0
C343 C 0.2315 0.51124 0.48104 0.0
N344 N 0.24379 0.50102 0.49107 0.0
C345 C 0.14837 0.46161 0.44332 0.0
C346 C 0.14617 0.4573 0.505 0.0
C347 C 0.12645 0.44161 0.48785 0.0
C348 C 0.12807 0.44331 0.4566 0.0
C349 C 0.16633 0.47514 0.4907 0.0
N350 N 0.16648 0.47814 0.46039 0.0
H351 H 0.14933 0.46263 0.41928 0.0
H352 H 0.18136 0.48729 0.50416 0.0
H353 H 0.20488 0.46237 0.44494 0.0
H354 H 0.23549 0.52899 0.48698 0.0
O355 O 0.19507 0.48851 0.40575 0.0
O356 O 0.21897 0.52676 0.41538 0.0
O357 O 0.19678 0.52736 0.47413 0.0
C358 C 0.21278 0.50884 0.39735 0.0
H359 H 0.15535 0.55045 0.39718 0.0
H360 H 0.24046 0.46718 0.47972 0.0
H361 H 0.14577 0.45617 0.52921 0.0
H362 H 0.11334 0.43132 0.44251 0.0
Co363 Co 0.6768 0.18117 0.93602 0.0
C364 C 0.64131 0.14629 0.89215 0.0
C365 C 0.62657 0.16118 0.92204 0.0
C366 C 0.60957 0.14753 0.90156 0.0
N367 N 0.64636 0.15988 0.91707 0.0
N368 N 0.61874 0.13811 0.88258 0.0
H369 H 0.65429 0.14405 0.87977 0.0
H370 H 0.62509 0.17301 0.93773 0.0
C371 C 0.64274 0.16518 0.9872 0.0
O372 O 0.63612 0.14324 0.97942 0.0
N373 N 0.70631 0.20333 0.95479 0.0
C374 C 0.72761 0.20459 0.95366 0.0
C375 C 0.74353 0.22397 0.97039 0.0
C376 C 0.70943 0.22168 0.97182 0.0
N377 N 0.73191 0.23455 0.98189 0.0
C378 C 0.68 0.13899 0.93307 0.0
C379 C 0.68705 0.13574 0.99348 0.0
C380 C 0.68522 0.11788 0.97415 0.0
C381 C 0.68217 0.12002 0.94348 0.0
C382 C 0.68468 0.15445 0.98203 0.0
N383 N 0.6799 0.15516 0.95235 0.0
H384 H 0.67873 0.14076 0.90935 0.0
H385 H 0.68645 0.16825 0.99708 0.0
H386 H 0.7313 0.19245 0.94143 0.0
H387 H 0.69559 0.22598 0.97585 0.0
O388 O 0.69306 0.18473 0.89886 0.0
O389 O 0.67771 0.20693 0.91292 0.0
O390 O 0.65933 0.18253 0.97272 0.0
C391 C 0.68896 0.20186 0.89267 0.0
H392 H 0.59256 0.1466 0.89922 0.0
H393 H 0.76216 0.22987 0.97366 0.0
H394 H 0.69014 0.13523 0.01722 0.0
H395 H 0.68084 0.10685 0.92756 0.0
C396 C 0.44665 0.36873 0.95967 0.0
C397 C 0.44076 0.34549 0.96729 0.0
C398 C 0.42948 0.37559 0.96082 0.0
C399 C 0.37513 0.36351 0.99783 0.0
H400 H 0.36786 0.3972 0.93074 0.0
C401 C 0.34306 0.43524 0.97743 0.0
C402 C 0.32393 0.42636 0.99753 0.0
C403 C 0.35317 0.42151 0.9694 0.0
C404 C 0.36973 0.38792 0.94973 0.0
H405 H 0.41258 0.31129 0.98254 0.0
H406 H 0.38257 0.32356 0.98536 0.0
H407 H 0.3948 0.3814 0.92662 0.0
H408 H 0.29902 0.39556 0.02303 0.0
H409 H 0.31616 0.37117 0.00823 0.0
H410 H 0.35125 0.37108 0.02169 0.0
C411 C 0.40041 0.33631 0.9782 0.0
C412 C 0.3851 0.37884 0.94731 0.0
C413 C 0.4175 0.32932 0.97657 0.0
C414 C 0.31396 0.40288 0.00774 0.0
C415 C 0.32389 0.38901 0.99941 0.0
C416 C 0.36002 0.37287 0.00045 0.0
C417 C 0.40621 0.35943 0.97001 0.0
C418 C 0.38826 0.36698 0.97154 0.0
C419 C 0.34419 0.39849 0.98107 0.0
C420 C 0.35751 0.38564 0.97664 0.0
H421 H 0.46439 0.38142 0.95211 0.0
H422 H 0.43443 0.3936 0.95473 0.0
H423 H 0.37739 0.35452 0.01689 0.0
H424 H 0.35128 0.45339 0.96952 0.0
H425 H 0.36895 0.42958 0.95556 0.0
C426 C 0.91345 0.33093 0.53112 0.0
C427 C 0.9071 0.34757 0.54077 0.0
C428 C 0.93735 0.33732 0.52882 0.0
C429 C 0.99634 0.37899 0.55767 0.0
H430 H 0.0199 0.37076 0.4815 0.0
C431 C 0.08932 0.40199 0.49184 0.0
C432 C 0.10339 0.42539 0.50212 0.0
C433 C 0.06577 0.38828 0.50128 0.0
C434 C 0.01365 0.37267 0.50322 0.0
H435 H 0.92051 0.38367 0.55604 0.0
H436 H 0.96236 0.3948 0.5523 0.0
H437 H 0.97746 0.35483 0.48837 0.0
H438 H 0.10435 0.45243 0.53137 0.0
H439 H 0.06329 0.42894 0.54722 0.0
H440 H 0.03239 0.39684 0.57265 0.0
C441 C 0.94886 0.37689 0.54643 0.0
C442 C 0.98931 0.36365 0.50702 0.0
C443 C 0.92499 0.37063 0.54824 0.0
C444 C 0.09398 0.43433 0.52336 0.0
C445 C 0.07038 0.42078 0.53249 0.0
C446 C 0.02065 0.38769 0.55405 0.0
C447 C 0.95523 0.3603 0.5367 0.0
C448 C 0.98055 0.36732 0.53398 0.0
C449 C 0.05573 0.39786 0.52081 0.0
C450 C 0.0297 0.38527 0.52647 0.0
H451 H 0.89992 0.31304 0.52524 0.0
H452 H 0.94188 0.32425 0.52124 0.0
H453 H 0.98989 0.38171 0.57883 0.0
H454 H 0.09629 0.39463 0.47566 0.0
H455 H 0.0552 0.3705 0.4924 0.0
C456 C 0.69424 0.0847 0.96898 0.0
C457 C 0.68461 0.0962 0.98577 0.0
C458 C 0.68933 0.06188 0.97669 0.0
C459 C 0.66321 0.01543 0.03527 0.0
H460 H 0.63139 0.97286 0.96869 0.0
C461 C 0.58279 0.9242 0.05184 0.0
C462 C 0.57909 0.90499 0.03373 0.0
C463 C 0.60187 0.94682 0.04663 0.0
C464 C 0.64071 0.9844 0.98739 0.0
H465 H 0.66391 0.09347 0.02525 0.0
H466 H 0.65576 0.054 0.03893 0.0
H467 H 0.65602 0.0153 0.9596 0.0
H468 H 0.59256 0.89445 0.99583 0.0
H469 H 0.62603 0.93442 0.98634 0.0
H470 H 0.64698 0.98465 0.06324 0.0
C471 C 0.66708 0.06258 0.01979 0.0
C472 C 0.65485 0.00874 0.98219 0.0
C473 C 0.67178 0.08527 0.01193 0.0
C474 C 0.59488 0.90896 0.01002 0.0
C475 C 0.61407 0.93177 0.00471 0.0
C476 C 0.64919 0.99111 0.04045 0.0
C477 C 0.67499 0.0503 0.00157 0.0
C478 C 0.66533 0.02456 0.00626 0.0
C479 C 0.61777 0.9509 0.02307 0.0
C480 C 0.63688 0.9755 0.01674 0.0
H481 H 0.70472 0.0929 0.94911 0.0
H482 H 0.69589 0.0529 0.9625 0.0
H483 H 0.67139 0.02723 0.05414 0.0
H484 H 0.57063 0.92187 0.06985 0.0
H485 H 0.60375 0.96127 0.0606 0.0
C486 C 0.65605 0.56675 0.47751 0.0
C487 C 0.67408 0.57339 0.49889 0.0
C488 C 0.64805 0.5823 0.46969 0.0
C489 C 0.64374 0.63146 0.50355 0.0
H490 H 0.61107 0.62696 0.42908 0.0
C491 C 0.58546 0.67501 0.48134 0.0
C492 C 0.56221 0.65806 0.47293 0.0
C493 C 0.60323 0.66889 0.48243 0.0
C494 C 0.62032 0.62852 0.44989 0.0
H495 H 0.69946 0.60219 0.52682 0.0
H496 H 0.68594 0.62974 0.51252 0.0
H497 H 0.63737 0.61036 0.43213 0.0
H498 H 0.53925 0.6217 0.45872 0.0
H499 H 0.5704 0.61111 0.4602 0.0
H500 H 0.62637 0.6495 0.52119 0.0
C501 C 0.67745 0.61225 0.50248 0.0
C502 C 0.63528 0.61895 0.45172 0.0
C503 C 0.68528 0.59655 0.51056 0.0
C504 C 0.55698 0.63496 0.46565 0.0
C505 C 0.5748 0.62901 0.46615 0.0
C506 C 0.62908 0.6414 0.50151 0.0
C507 C 0.65809 0.60496 0.48287 0.0
C508 C 0.64641 0.61944 0.47894 0.0
C509 C 0.59807 0.64594 0.47438 0.0
C510 C 0.6166 0.6392 0.47502 0.0
H511 H 0.64691 0.54892 0.46842 0.0
H512 H 0.6329 0.57586 0.45486 0.0
H513 H 0.65175 0.63197 0.52498 0.0
H514 H 0.58984 0.69296 0.48693 0.0
H515 H 0.62107 0.68216 0.48895 0.0
C516 C 0.08281 0.66052 0.02058 0.0
C517 C 0.09105 0.6464 0.03377 0.0
C518 C 0.05844 0.65211 0.01815 0.0
C519 C 0.00056 0.59601 0.02002 0.0
H520 H 0.9748 0.63823 0.02722 0.0
C521 C 0.90067 0.55927 0.01846 0.0
C522 C 0.89309 0.56899 0.99585 0.0
C523 C 0.92438 0.57082 0.02742 0.0
C524 C 0.98183 0.6263 0.02521 0.0
H525 H 0.08052 0.61291 0.05572 0.0
H526 H 0.0381 0.59845 0.05232 0.0
H527 H 0.01746 0.65393 0.03388 0.0
H528 H 0.9039 0.59942 0.96684 0.0
H529 H 0.94552 0.61967 0.98261 0.0
H530 H 0.96498 0.5684 0.01163 0.0
C531 C 0.05028 0.61566 0.04289 0.0
C532 C 0.00623 0.63526 0.0288 0.0
C533 C 0.07458 0.62392 0.0449 0.0
C534 C 0.90932 0.5914 0.98407 0.0
C535 C 0.93307 0.60305 0.99322 0.0
C536 C 0.97624 0.58705 0.01685 0.0
C537 C 0.04186 0.62955 0.02926 0.0
C538 C 0.01591 0.62021 0.02611 0.0
C539 C 0.94095 0.59237 0.01409 0.0
C540 C 0.96663 0.60209 0.01931 0.0
H541 H 0.09522 0.67792 0.01178 0.0
H542 H 0.05264 0.66315 0.00712 0.0
H543 H 0.00737 0.58398 0.01704 0.0
H544 H 0.88866 0.54196 0.02782 0.0
H545 H 0.93001 0.56236 0.04381 0.0
C546 C 0.32005 0.91143 0.50768 0.0
C547 C 0.30948 0.90195 0.47986 0.0
C548 C 0.32463 0.93394 0.51631 0.0
C549 C 0.34022 0.98976 0.48052 0.0
H550 H 0.34487 0.01094 0.56267 0.0
C551 C 0.40016 0.088 0.51346 0.0
C552 C 0.41562 0.09097 0.53721 0.0
C553 C 0.38053 0.06566 0.50739 0.0
C554 C 0.34353 0.00529 0.53958 0.0
H555 H 0.29318 0.90757 0.44067 0.0
H556 H 0.30144 0.94709 0.45568 0.0
H557 H 0.32032 0.9688 0.55085 0.0
H558 H 0.42253 0.07277 0.57314 0.0
H559 H 0.38851 0.03413 0.56267 0.0
H560 H 0.36448 0.02599 0.46947 0.0
C561 C 0.30651 0.93723 0.47055 0.0
C562 C 0.32948 0.98121 0.53283 0.0
C563 C 0.30186 0.91466 0.46194 0.0
C564 C 0.41076 0.07126 0.55505 0.0
C565 C 0.39117 0.04907 0.54911 0.0
C566 C 0.35428 0.01383 0.48728 0.0
C567 C 0.31875 0.94745 0.4973 0.0
C568 C 0.32853 0.97308 0.50344 0.0
C569 C 0.37595 0.04594 0.52506 0.0
C570 C 0.35692 0.02168 0.51707 0.0
H571 H 0.32632 0.90222 0.52189 0.0
H572 H 0.33434 0.9414 0.53691 0.0
H573 H 0.34004 0.98406 0.45768 0.0
H574 H 0.40322 0.10291 0.49956 0.0
H575 H 0.36905 0.06377 0.48876 0.0
C576 C 0.22413 0.5055 0.98601 0.0
C577 C 0.24884 0.51571 0.98942 0.0
C578 C 0.21454 0.51829 0.97258 0.0
C579 C 0.23157 0.5757 0.93281 0.0
H580 H 0.17965 0.57227 0.97938 0.0
C581 C 0.22263 0.65396 0.97199 0.0
C582 C 0.20006 0.65161 0.97432 0.0
C583 C 0.22523 0.6356 0.95998 0.0
C584 C 0.19374 0.57311 0.96553 0.0
H585 H 0.28282 0.54667 0.9787 0.0
H586 H 0.26632 0.56926 0.9572 0.0
H587 H 0.19024 0.54169 0.98522 0.0
H588 H 0.16267 0.62913 0.96456 0.0
H589 H 0.1671 0.59648 0.94425 0.0
H590 H 0.23634 0.60857 0.91547 0.0
C591 C 0.25416 0.55128 0.96436 0.0
C592 C 0.19985 0.5555 0.96884 0.0
C593 C 0.2637 0.53841 0.97738 0.0
C594 C 0.1803 0.63142 0.96244 0.0
C595 C 0.18281 0.61275 0.95104 0.0
C596 C 0.2257 0.59356 0.92994 0.0
C597 C 0.22942 0.54168 0.9625 0.0
C598 C 0.21955 0.55712 0.95355 0.0
C599 C 0.20519 0.61433 0.95086 0.0
C600 C 0.20733 0.59287 0.94719 0.0
H601 H 0.21208 0.48802 0.99478 0.0
H602 H 0.19541 0.51008 0.971 0.0
H603 H 0.24637 0.57719 0.91995 0.0
H604 H 0.23802 0.6693 0.98141 0.0
H605 H 0.24263 0.63719 0.96046 0.0
C606 C 0.55086 0.15628 0.48822 0.0
C607 C 0.54626 0.17449 0.49631 0.0
C608 C 0.57269 0.16174 0.47567 0.0
C609 C 0.62533 0.18158 0.48442 0.0
H610 H 0.666 0.23502 0.43374 0.0
C611 C 0.72594 0.22564 0.49666 0.0
C612 C 0.73709 0.25042 0.49974 0.0
C613 C 0.70311 0.21285 0.48441 0.0
C614 C 0.65488 0.22 0.44792 0.0
H615 H 0.55974 0.21244 0.49417 0.0
H616 H 0.59782 0.22194 0.47248 0.0
H617 H 0.62301 0.21866 0.43236 0.0
H618 H 0.73408 0.28139 0.48941 0.0
H619 H 0.69418 0.25927 0.46962 0.0
H620 H 0.65691 0.18392 0.50187 0.0
C621 C 0.58464 0.20345 0.47586 0.0
C622 C 0.63027 0.21059 0.44699 0.0
C623 C 0.56282 0.19801 0.48849 0.0
C624 C 0.7257 0.26225 0.48825 0.0
C625 C 0.70289 0.24952 0.47628 0.0
C626 C 0.64987 0.19113 0.48561 0.0
C627 C 0.59025 0.18548 0.47085 0.0
C628 C 0.61534 0.19187 0.4661 0.0
C629 C 0.69094 0.22458 0.47514 0.0
C630 C 0.66505 0.21113 0.46835 0.0
H631 H 0.53833 0.13792 0.4935 0.0
H632 H 0.5764 0.1475 0.47155 0.0
H633 H 0.61436 0.16733 0.49971 0.0
H634 H 0.73431 0.21601 0.50506 0.0
H635 H 0.69464 0.1937 0.48332 0.0
C636 C 0.47598 0.73787 0.97703 0.0
C637 C 0.49371 0.74264 0.99839 0.0
C638 C 0.46259 0.71521 0.96482 0.0
C639 C 0.45539 0.65541 0.95786 0.0
H640 H 0.3904 0.63433 0.98121 0.0
C641 C 0.3905 0.55958 0.99195 0.0
C642 C 0.36598 0.55123 0.99249 0.0
C643 C 0.40631 0.58233 0.98145 0.0
C644 C 0.40819 0.63975 0.97354 0.0
H645 H 0.51299 0.72814 0.02128 0.0
H646 H 0.48961 0.68842 0.99975 0.0
H647 H 0.41937 0.67616 0.98189 0.0
H648 H 0.33851 0.55902 0.97952 0.0
H649 H 0.36596 0.59826 0.95945 0.0
H650 H 0.44424 0.61891 0.94972 0.0
C651 C 0.48608 0.70226 0.99254 0.0
C652 C 0.4249 0.66388 0.97412 0.0
C653 C 0.49946 0.72498 0.00489 0.0
C654 C 0.35739 0.56519 0.97976 0.0
C655 C 0.37319 0.58777 0.96853 0.0
C656 C 0.4385 0.63119 0.95666 0.0
C657 C 0.46678 0.69692 0.97355 0.0
C658 C 0.4488 0.67189 0.96728 0.0
C659 C 0.39794 0.59713 0.97063 0.0
C660 C 0.41483 0.62293 0.96564 0.0
H661 H 0.47157 0.75133 0.97107 0.0
H662 H 0.44803 0.71163 0.9499 0.0
H663 H 0.4737 0.6612 0.95224 0.0
H664 H 0.3977 0.54925 0.00168 0.0
H665 H 0.42512 0.58876 0.98385 0.0
C666 C 0.762 0.48249 0.48788 0.0
C667 C 0.73824 0.47685 0.48522 0.0
C668 C 0.7699 0.46858 0.47368 0.0
C669 C 0.74547 0.40692 0.45008 0.0
H670 H 0.81182 0.42925 0.4331 0.0
C671 C 0.78173 0.34349 0.459 0.0
C672 C 0.79869 0.35187 0.48201 0.0
C673 C 0.77593 0.35907 0.44463 0.0
C674 C 0.79313 0.42272 0.43718 0.0
H675 H 0.7047 0.45368 0.46333 0.0
H676 H 0.71853 0.4295 0.43817 0.0
H677 H 0.79755 0.45756 0.43471 0.0
H678 H 0.8243 0.38294 0.50647 0.0
H679 H 0.81475 0.41013 0.48106 0.0
H680 H 0.74134 0.37233 0.4542 0.0
C681 C 0.73093 0.44428 0.45187 0.0
C682 C 0.78499 0.43892 0.43834 0.0
C683 C 0.72298 0.45808 0.46631 0.0
C684 C 0.81119 0.37616 0.4887 0.0
C685 C 0.80582 0.39173 0.47397 0.0
C686 C 0.75358 0.39072 0.44866 0.0
C687 C 0.75426 0.44883 0.45625 0.0
C688 C 0.76138 0.43139 0.44657 0.0
C689 C 0.78743 0.38321 0.45273 0.0
C690 C 0.77776 0.39867 0.44394 0.0
H691 H 0.77412 0.49674 0.50242 0.0
H692 H 0.78788 0.47246 0.47801 0.0
H693 H 0.7272 0.4004 0.45659 0.0
H694 H 0.77177 0.32472 0.45377 0.0
H695 H 0.76164 0.35206 0.42839 0.0
C696 C 0.42991 0.79401 0.99547 0.0
C697 C 0.44862 0.81759 0.99706 0.0
C698 C 0.40806 0.78878 0.9833 0.0
C699 C 0.37328 0.81893 0.9744 0.0
H700 H 0.32499 0.75508 0.95284 0.0
C701 C 0.26442 0.75075 0.97504 0.0
C702 C 0.26003 0.75811 0.00269 0.0
C703 C 0.2873 0.76204 0.96285 0.0
C704 C 0.33815 0.77323 0.95811 0.0
H705 H 0.46011 0.85378 0.98376 0.0
H706 H 0.42228 0.84455 0.96124 0.0
H707 H 0.3665 0.76657 0.94861 0.0
H708 H 0.27576 0.78381 0.03848 0.0
H709 H 0.31559 0.80298 0.01806 0.0
H710 H 0.34494 0.82568 0.98356 0.0
C711 C 0.42408 0.83019 0.97062 0.0
C712 C 0.36209 0.77972 0.95615 0.0
C713 C 0.44585 0.83547 0.98331 0.0
C714 C 0.27856 0.77794 0.01696 0.0
C715 C 0.30147 0.78899 0.00507 0.0
C716 C 0.34937 0.8126 0.97575 0.0
C717 C 0.40451 0.80697 0.97193 0.0
C718 C 0.37992 0.8022 0.96596 0.0
C719 C 0.30635 0.78067 0.97837 0.0
C720 C 0.33144 0.78925 0.96934 0.0
H721 H 0.43146 0.77977 0.00579 0.0
H722 H 0.39352 0.7707 0.98505 0.0
H723 H 0.38634 0.83646 0.98213 0.0
H724 H 0.2503 0.73563 0.9635 0.0
H725 H 0.29019 0.75549 0.9419 0.0
C726 C 0.62823 0.4277 0.48396 0.0
C727 C 0.62245 0.44526 0.49105 0.0
C728 C 0.61063 0.4053 0.4742 0.0
C729 C 0.56911 0.35946 0.44853 0.0
H730 H 0.52081 0.33513 0.51037 0.0
C731 C 0.52326 0.263 0.48721 0.0
C732 C 0.50156 0.25299 0.50277 0.0
C733 C 0.5337 0.28605 0.47598 0.0
C734 C 0.53357 0.34151 0.49225 0.0
H735 H 0.59419 0.45385 0.49066 0.0
H736 H 0.5635 0.41464 0.4741 0.0
H737 H 0.54781 0.37744 0.50655 0.0
H738 H 0.47262 0.2587 0.5157 0.0
H739 H 0.49025 0.29846 0.49487 0.0
H740 H 0.55515 0.32346 0.43451 0.0
C741 C 0.58159 0.4182 0.47621 0.0
C742 C 0.54918 0.36589 0.49016 0.0
C743 C 0.59922 0.44067 0.48564 0.0
C744 C 0.48946 0.26583 0.50423 0.0
C745 C 0.49975 0.28883 0.49252 0.0
C746 C 0.5532 0.33503 0.45025 0.0
C747 C 0.58695 0.40004 0.4716 0.0
C748 C 0.56766 0.37502 0.46907 0.0
C749 C 0.52251 0.29964 0.47944 0.0
C750 C 0.53587 0.32563 0.47301 0.0
H751 H 0.64601 0.43076 0.48765 0.0
H752 H 0.61524 0.3916 0.47093 0.0
H753 H 0.58309 0.36611 0.43186 0.0
H754 H 0.53277 0.25342 0.48467 0.0
H755 H 0.55123 0.2936 0.46621 0.0
C756 C 0.38295 0.84008 0.51843 0.0
C757 C 0.36033 0.8225 0.50868 0.0
C758 C 0.39917 0.83377 0.52938 0.0
C759 C 0.43203 0.81453 0.51604 0.0
H760 H 0.41887 0.75819 0.5607 0.0
C761 C 0.49089 0.77282 0.50042 0.0
C762 C 0.4782 0.74812 0.49603 0.0
C763 C 0.47964 0.78452 0.51243 0.0
C764 C 0.42285 0.77398 0.54813 0.0
H765 H 0.33589 0.78455 0.50655 0.0
H766 H 0.36412 0.77357 0.52567 0.0
H767 H 0.39206 0.77417 0.56505 0.0
H768 H 0.44419 0.71617 0.5032 0.0
H769 H 0.4244 0.73648 0.5225 0.0
H770 H 0.46165 0.81351 0.49729 0.0
C771 C 0.36945 0.79222 0.52466 0.0
C772 C 0.40757 0.78319 0.55081 0.0
C773 C 0.35329 0.79852 0.51352 0.0
C774 C 0.45438 0.73528 0.5054 0.0
C775 C 0.44311 0.74695 0.51713 0.0
C776 C 0.44713 0.8052 0.5131 0.0
C777 C 0.39295 0.80979 0.53107 0.0
C778 C 0.41157 0.80309 0.53397 0.0
C779 C 0.45541 0.77179 0.52018 0.0
C780 C 0.44224 0.78428 0.5282 0.0
H781 H 0.38889 0.85874 0.51533 0.0
H782 H 0.41706 0.84766 0.53461 0.0
H783 H 0.43544 0.8297 0.50244 0.0
H784 H 0.50927 0.78326 0.4936 0.0
H785 H 0.48979 0.80363 0.51493 0.0
C786 C 0.71441 0.49729 0.00301 0.0
C787 C 0.7297 0.48787 0.00209 0.0
C788 C 0.69241 0.48496 0.01754 0.0
C789 C 0.65461 0.43019 0.06395 0.0
H790 H 0.60431 0.42638 0.01357 0.0
C791 C 0.54836 0.36623 0.03477 0.0
C792 C 0.54974 0.34665 0.0242 0.0
C793 C 0.56874 0.38628 0.04549 0.0
C794 C 0.61806 0.42761 0.02842 0.0
H795 H 0.7349 0.4594 0.01852 0.0
H796 H 0.69652 0.43744 0.04198 0.0
H797 H 0.64463 0.45857 0.00633 0.0
H798 H 0.57248 0.33152 0.01858 0.0
H799 H 0.60788 0.36608 0.03857 0.0
H800 H 0.628 0.39752 0.08365 0.0
C801 C 0.70129 0.45441 0.03202 0.0
C802 C 0.64129 0.44616 0.02434 0.0
C803 C 0.72327 0.46683 0.01789 0.0
C804 C 0.57103 0.34634 0.02715 0.0
C805 C 0.59122 0.3661 0.03856 0.0
C806 C 0.63142 0.41132 0.06753 0.0
C807 C 0.68517 0.46286 0.03125 0.0
C808 C 0.6601 0.44706 0.04103 0.0
C809 C 0.59054 0.38668 0.04632 0.0
C810 C 0.61316 0.40938 0.04894 0.0
H811 H 0.7189 0.51357 0.99131 0.0
H812 H 0.68073 0.49233 0.01703 0.0
H813 H 0.66846 0.4307 0.07794 0.0
H814 H 0.53215 0.36693 0.0321 0.0
H815 H 0.56786 0.40201 0.05117 0.0
C816 C 0.17089 0.55536 0.51941 0.0
C817 C 0.18809 0.55146 0.50565 0.0
C818 C 0.17653 0.57823 0.52828 0.0
C819 C 0.22704 0.64112 0.53339 0.0
H820 H 0.17934 0.65566 0.50535 0.0
C821 C 0.22405 0.72175 0.46924 0.0
C822 C 0.24378 0.741 0.48262 0.0
C823 C 0.2144 0.69902 0.4815 0.0
C824 C 0.19292 0.65197 0.51321 0.0
H825 H 0.22529 0.56809 0.49321 0.0
H826 H 0.23487 0.60769 0.50756 0.0
H827 H 0.16922 0.6146 0.51092 0.0
H828 H 0.2677 0.7522 0.52048 0.0
H829 H 0.25025 0.71275 0.54282 0.0
H830 H 0.25136 0.67837 0.53292 0.0
C831 C 0.21707 0.59329 0.51199 0.0
C832 C 0.18698 0.62831 0.51696 0.0
C833 C 0.21152 0.57046 0.50348 0.0
C834 C 0.25266 0.73748 0.5096 0.0
C835 C 0.24273 0.71486 0.52222 0.0
C836 C 0.23309 0.66476 0.52911 0.0
C837 C 0.19942 0.59767 0.52333 0.0
C838 C 0.20424 0.62255 0.52594 0.0
C839 C 0.22403 0.69514 0.50774 0.0
C840 C 0.21635 0.67047 0.51782 0.0
H841 H 0.15274 0.54103 0.52184 0.0
H842 H 0.16263 0.5808 0.5377 0.0
H843 H 0.24065 0.63742 0.54112 0.0
H844 H 0.21706 0.72401 0.44827 0.0
H845 H 0.20028 0.68437 0.46932 0.0
C846 C 0.60432 0.15123 0.01423 0.0
C847 C 0.62718 0.16977 0.00687 0.0
C848 C 0.5874 0.15624 0.026 0.0
C849 C 0.55442 0.1759 0.01587 0.0
H850 H 0.5652 0.2278 0.06838 0.0
C851 C 0.49774 0.21977 0.00275 0.0
C852 C 0.51121 0.24467 0.00124 0.0
C853 C 0.50756 0.20674 0.0148 0.0
C854 C 0.56186 0.21322 0.05364 0.0
H855 H 0.65107 0.20781 0.00946 0.0
H856 H 0.62157 0.21652 0.03001 0.0
H857 H 0.59204 0.21172 0.07028 0.0
H858 H 0.54468 0.27542 0.01403 0.0
H859 H 0.56215 0.25294 0.03337 0.0
H860 H 0.52563 0.1785 0.99734 0.0
C861 C 0.61665 0.19814 0.02655 0.0
C862 C 0.57716 0.20395 0.05491 0.0
C863 C 0.63353 0.19316 0.01455 0.0
C864 C 0.53404 0.25625 0.01395 0.0
C865 C 0.54393 0.24328 0.02568 0.0
C866 C 0.53935 0.18534 0.01432 0.0
C867 C 0.59311 0.17984 0.03093 0.0
C868 C 0.57411 0.18582 0.0352 0.0
C869 C 0.53112 0.21832 0.02538 0.0
C870 C 0.54349 0.20483 0.03225 0.0
H871 H 0.59891 0.13298 0.00887 0.0
H872 H 0.56945 0.14179 0.02952 0.0
H873 H 0.55174 0.16209 0.00014 0.0
H874 H 0.48004 0.21027 0.99338 0.0
H875 H 0.49699 0.18755 0.01475 0.0
C876 C 0.42259 0.65381 0.51575 0.0
C877 C 0.44368 0.65406 0.52283 0.0
C878 C 0.40128 0.63735 0.529 0.0
C879 C 0.37372 0.57658 0.55447 0.0
H880 H 0.31956 0.58614 0.55789 0.0
C881 C 0.26496 0.52573 0.53462 0.0
C882 C 0.26438 0.51208 0.50998 0.0
C883 C 0.28615 0.53975 0.5501 0.0
C884 C 0.3343 0.58282 0.55787 0.0
H885 H 0.45968 0.63859 0.55055 0.0
H886 H 0.42202 0.60932 0.57395 0.0
H887 H 0.35917 0.61978 0.56334 0.0
H888 H 0.28488 0.50114 0.48315 0.0
H889 H 0.32217 0.52641 0.50889 0.0
H890 H 0.34886 0.53963 0.54856 0.0
C891 C 0.42202 0.62196 0.55818 0.0
C892 C 0.35714 0.60231 0.5607 0.0
C893 C 0.44355 0.63878 0.54506 0.0
C894 C 0.28494 0.51146 0.50221 0.0
C895 C 0.30629 0.52589 0.51721 0.0
C896 C 0.3508 0.55698 0.55214 0.0
C897 C 0.40053 0.62052 0.5494 0.0
C898 C 0.37712 0.59962 0.55698 0.0
C899 C 0.30738 0.54092 0.54069 0.0
C900 C 0.33086 0.56007 0.55184 0.0
H901 H 0.42236 0.66542 0.4985 0.0
H902 H 0.38514 0.63663 0.52127 0.0
H903 H 0.3887 0.5738 0.55168 0.0
H904 H 0.24913 0.52613 0.54122 0.0
H905 H 0.28607 0.5505 0.56857 0.0
C906 C 0.76519 0.27433 0.99517 0.0
C907 C 0.74143 0.2563 0.99878 0.0
C908 C 0.77312 0.29685 0.00746 0.0
C909 C 0.74899 0.33498 0.02094 0.0
H910 H 0.81107 0.37866 0.05355 0.0
C911 C 0.78203 0.43386 0.01545 0.0
C912 C 0.80534 0.44737 0.00463 0.0
C913 C 0.7741 0.41123 0.02731 0.0
C914 C 0.79367 0.36673 0.04437 0.0
H915 H 0.70819 0.24697 0.02095 0.0
H916 H 0.7219 0.28638 0.04173 0.0
H917 H 0.79799 0.33636 0.05042 0.0
H918 H 0.83918 0.44867 6e-05 0.0
H919 H 0.82522 0.40913 0.01911 0.0
H920 H 0.74515 0.36502 0.01236 0.0
C921 C 0.73425 0.28317 0.02909 0.0
C922 C 0.78618 0.34251 0.04277 0.0
C923 C 0.72638 0.26069 0.01699 0.0
C924 C 0.82107 0.43867 0.00813 0.0
C925 C 0.81303 0.4159 0.01935 0.0
C926 C 0.75661 0.35915 0.02199 0.0
C927 C 0.75742 0.3017 0.0235 0.0
C928 C 0.76402 0.32653 0.03028 0.0
C929 C 0.78915 0.40144 0.02787 0.0
C930 C 0.77938 0.37551 0.0328 0.0
H931 H 0.77721 0.27154 0.98128 0.0
H932 H 0.79104 0.31088 0.00264 0.0
H933 H 0.73191 0.3231 0.01087 0.0
H934 H 0.76962 0.44032 0.01347 0.0
H935 H 0.7558 0.40097 0.03459 0.0
C936 C 0.21895 0.49113 0.35107 0.0
C937 C 0.2243 0.51142 0.36796 0.0
C938 C 0.22878 0.49325 0.32268 0.0
C939 C 0.25376 0.53348 0.25862 0.0
H940 H 0.27617 0.49053 0.23588 0.0
C941 C 0.29446 0.53467 0.14145 0.0
C942 C 0.28772 0.51231 0.12908 0.0
C943 C 0.28795 0.53654 0.17086 0.0
C944 C 0.26979 0.50252 0.24175 0.0
H945 H 0.24415 0.54989 0.36832 0.0
H946 H 0.26135 0.5536 0.31837 0.0
H947 H 0.26328 0.49033 0.28709 0.0
H948 H 0.26813 0.47437 0.13736 0.0
H949 H 0.25652 0.47759 0.18802 0.0
H950 H 0.25987 0.54533 0.21295 0.0
C951 C 0.24951 0.53607 0.32723 0.0
C952 C 0.26247 0.50244 0.27114 0.0
C953 C 0.23981 0.53393 0.35587 0.0
C954 C 0.27377 0.49189 0.14628 0.0
C955 C 0.26727 0.49375 0.17546 0.0
C956 C 0.26103 0.53351 0.22905 0.0
C957 C 0.24409 0.51571 0.31036 0.0
C958 C 0.25394 0.51758 0.2798 0.0
C959 C 0.27464 0.51608 0.18837 0.0
C960 C 0.26867 0.51766 0.22016 0.0
H961 H 0.20699 0.47353 0.35969 0.0
H962 H 0.22399 0.47723 0.31009 0.0
H963 H 0.24715 0.54527 0.26459 0.0
H964 H 0.3053 0.55073 0.12876 0.0
H965 H 0.29396 0.55402 0.18016 0.0
C966 C 0.68833 0.22959 0.85373 0.0
C967 C 0.69589 0.21384 0.86325 0.0
C968 C 0.69384 0.23936 0.82482 0.0
C969 C 0.7115 0.22811 0.75033 0.0
H970 H 0.73546 0.29499 0.73526 0.0
C971 C 0.7707 0.27679 0.65054 0.0
C972 C 0.76594 0.29215 0.6337 0.0
C973 C 0.75831 0.26667 0.67693 0.0
C974 C 0.7284 0.2762 0.73908 0.0
H975 H 0.7158 0.19663 0.85035 0.0
H976 H 0.72565 0.2138 0.80068 0.0
H977 H 0.72126 0.27877 0.78545 0.0
H978 H 0.74445 0.30899 0.6312 0.0
H979 H 0.72293 0.29151 0.67814 0.0
H980 H 0.71957 0.22569 0.70446 0.0
C981 C 0.71499 0.21823 0.81502 0.0
C982 C 0.72028 0.26691 0.76777 0.0
C983 C 0.70949 0.20852 0.84367 0.0
C984 C 0.74836 0.2971 0.64371 0.0
C985 C 0.73618 0.28723 0.67056 0.0
C986 C 0.71974 0.23738 0.72187 0.0
C987 C 0.70693 0.23345 0.805 0.0
C988 C 0.71245 0.2429 0.77391 0.0
C989 C 0.74106 0.27189 0.68736 0.0
C990 C 0.7289 0.26163 0.71617 0.0
H991 H 0.67778 0.23397 0.86834 0.0
H992 H 0.68739 0.25105 0.81776 0.0
H993 H 0.70497 0.20939 0.75408 0.0
H994 H 0.78414 0.27264 0.64339 0.0
H995 H 0.76262 0.25512 0.68959 0.0
C996 C 0.48866 0.78352 0.1606 0.0
C997 C 0.47574 0.77182 0.13479 0.0
C998 C 0.48357 0.77178 0.18799 0.0
C999 C 0.46261 0.71487 0.22211 0.0
H1000 H 0.45698 0.74599 0.29329 0.0
C1001 C 0.48668 0.69908 0.34061 0.0
C1002 C 0.47154 0.69679 0.36439 0.0
C1003 C 0.48274 0.70494 0.31194 0.0
C1004 C 0.45818 0.73689 0.27362 0.0
H1005 H 0.44739 0.73859 0.11732 0.0
H1006 H 0.43895 0.71756 0.16562 0.0
H1007 H 0.45759 0.76241 0.24386 0.0
H1008 H 0.44028 0.69862 0.37685 0.0
H1009 H 0.43375 0.70956 0.32667 0.0
H1010 H 0.46436 0.68998 0.252 0.0
C1011 C 0.45281 0.73601 0.16441 0.0
C1012 C 0.45863 0.74634 0.24539 0.0
C1013 C 0.4576 0.74799 0.1369 0.0
C1014 C 0.45228 0.70037 0.35893 0.0
C1015 C 0.44855 0.70661 0.33028 0.0
C1016 C 0.4625 0.70559 0.25042 0.0
C1017 C 0.46568 0.74793 0.1902 0.0
C1018 C 0.46139 0.73572 0.21944 0.0
C1019 C 0.46375 0.70893 0.3065 0.0
C1020 C 0.46081 0.71683 0.27646 0.0
H1021 H 0.50264 0.80194 0.15975 0.0
H1022 H 0.49395 0.78128 0.20744 0.0
H1023 H 0.46489 0.70645 0.20244 0.0
H1024 H 0.50156 0.69623 0.34408 0.0
H1025 H 0.49492 0.70691 0.29414 0.0
C1026 C 0.69367 0.45704 0.63929 0.0
C1027 C 0.70255 0.47952 0.62607 0.0
C1028 C 0.70196 0.4548 0.66742 0.0
C1029 C 0.75251 0.48613 0.71931 0.0
H1030 H 0.70733 0.45137 0.78241 0.0
C1031 C 0.77961 0.5031 0.84255 0.0
C1032 C 0.77112 0.48375 0.86228 0.0
C1033 C 0.77073 0.50011 0.81347 0.0
C1034 C 0.7202 0.46084 0.76494 0.0
H1035 H 0.72736 0.51714 0.63158 0.0
H1036 H 0.74194 0.51321 0.68012 0.0
H1037 H 0.69319 0.45001 0.73123 0.0
H1038 H 0.7463 0.44609 0.86712 0.0
H1039 H 0.73075 0.44081 0.81598 0.0
H1040 H 0.7795 0.49722 0.75276 0.0
C1041 C 0.72864 0.4973 0.66891 0.0
C1042 C 0.71209 0.46004 0.73564 0.0
C1043 C 0.72018 0.49957 0.64114 0.0
C1044 C 0.75315 0.46136 0.85244 0.0
C1045 C 0.74423 0.45835 0.82319 0.0
C1046 C 0.76059 0.48685 0.74844 0.0
C1047 C 0.71954 0.47495 0.6825 0.0
C1048 C 0.72814 0.47317 0.71269 0.0
C1049 C 0.75317 0.47767 0.80324 0.0
C1050 C 0.74451 0.47474 0.77179 0.0
H1051 H 0.67997 0.4413 0.62824 0.0
H1052 H 0.69469 0.43734 0.67734 0.0
H1053 H 0.76534 0.49607 0.70198 0.0
H1054 H 0.79335 0.52062 0.84944 0.0
H1055 H 0.77764 0.5155 0.79897 0.0
C1056 C 0.30144 0.76345 0.35436 0.0
C1057 C 0.30466 0.78633 0.3579 0.0
C1058 C 0.29543 0.75229 0.32632 0.0
C1059 C 0.29568 0.7638 0.24524 0.0
H1060 H 0.23926 0.70148 0.24211 0.0
C1061 C 0.25459 0.71336 0.13386 0.0
C1062 C 0.23014 0.70508 0.13127 0.0
C1063 C 0.26615 0.72179 0.16139 0.0
C1064 C 0.25514 0.71881 0.24267 0.0
H1065 H 0.30514 0.81588 0.3348 0.0
H1066 H 0.29492 0.79657 0.28601 0.0
H1067 H 0.25607 0.71946 0.29062 0.0
H1068 H 0.19853 0.69866 0.15546 0.0
H1069 H 0.2186 0.71312 0.20332 0.0
H1070 H 0.2943 0.76344 0.19727 0.0
C1071 C 0.29695 0.78719 0.30478 0.0
C1072 C 0.26487 0.72901 0.2704 0.0
C1073 C 0.30258 0.79815 0.33279 0.0
C1074 C 0.21743 0.70506 0.15671 0.0
C1075 C 0.22886 0.71313 0.1842 0.0
C1076 C 0.28611 0.75348 0.21748 0.0
C1077 C 0.29299 0.76403 0.30129 0.0
C1078 C 0.28486 0.75187 0.27198 0.0
C1079 C 0.25334 0.72166 0.18684 0.0
C1080 C 0.26536 0.73117 0.21596 0.0
H1081 H 0.30297 0.75396 0.37337 0.0
H1082 H 0.29254 0.73445 0.32421 0.0
H1083 H 0.31122 0.78137 0.24582 0.0
H1084 H 0.26481 0.71354 0.11461 0.0
H1085 H 0.28504 0.72824 0.16285 0.0
C1086 C 0.54595 0.23986 0.64309 0.0
C1087 C 0.52256 0.22579 0.63268 0.0
C1088 C 0.55033 0.25204 0.67042 0.0
C1089 C 0.52399 0.27541 0.72364 0.0
H1090 H 0.55627 0.26123 0.78639 0.0
C1091 C 0.50631 0.28428 0.84629 0.0
C1092 C 0.52528 0.2941 0.86669 0.0
C1093 C 0.50954 0.27859 0.81725 0.0
C1094 C 0.5476 0.26573 0.76899 0.0
H1095 H 0.48558 0.21409 0.64183 0.0
H1096 H 0.49322 0.23572 0.68876 0.0
H1097 H 0.55641 0.24807 0.73495 0.0
H1098 H 0.56242 0.30503 0.87292 0.0
H1099 H 0.56814 0.29503 0.82171 0.0
H1100 H 0.51472 0.29262 0.75739 0.0
C1101 C 0.50817 0.23726 0.67615 0.0
C1102 C 0.54772 0.25823 0.73958 0.0
C1103 C 0.50378 0.22479 0.64935 0.0
C1104 C 0.54746 0.29742 0.85767 0.0
C1105 C 0.55073 0.29172 0.82839 0.0
C1106 C 0.52399 0.283 0.75285 0.0
C1107 C 0.53141 0.25074 0.68721 0.0
C1108 C 0.53522 0.26234 0.71687 0.0
C1109 C 0.53187 0.28267 0.80769 0.0
C1110 C 0.53504 0.27751 0.7761 0.0
H1111 H 0.5607 0.24074 0.63071 0.0
H1112 H 0.56841 0.26234 0.6785 0.0
H1113 H 0.51452 0.2791 0.70646 0.0
H1114 H 0.48893 0.28129 0.85257 0.0
H1115 H 0.49446 0.27104 0.80219 0.0
C1116 C 0.44845 0.57818 0.3632 0.0
C1117 C 0.45583 0.60252 0.3626 0.0
C1118 C 0.44189 0.56485 0.33682 0.0
C1119 C 0.44404 0.56979 0.25397 0.0
H1120 H 0.38379 0.51083 0.25753 0.0
C1121 C 0.39977 0.52219 0.14592 0.0
C1122 C 0.37599 0.51649 0.14343 0.0
C1123 C 0.41073 0.52672 0.17388 0.0
C1124 C 0.40068 0.52719 0.25618 0.0
H1125 H 0.46302 0.63212 0.33365 0.0
H1126 H 0.45161 0.60895 0.2877 0.0
H1127 H 0.40234 0.53218 0.30366 0.0
H1128 H 0.34444 0.50933 0.16797 0.0
H1129 H 0.3636 0.51771 0.21701 0.0
H1130 H 0.44176 0.56572 0.20651 0.0
C1131 C 0.45112 0.60017 0.3085 0.0
C1132 C 0.41145 0.53931 0.28263 0.0
C1133 C 0.45769 0.6135 0.33487 0.0
C1134 C 0.36273 0.51342 0.16949 0.0
C1135 C 0.37378 0.51827 0.19753 0.0
C1136 C 0.43327 0.55774 0.22757 0.0
C1137 C 0.44262 0.57558 0.30927 0.0
C1138 C 0.43294 0.56108 0.28173 0.0
C1139 C 0.39821 0.52605 0.19986 0.0
C1140 C 0.41116 0.53658 0.22827 0.0
H1141 H 0.44724 0.56933 0.38418 0.0
H1142 H 0.43583 0.54604 0.33808 0.0
H1143 H 0.46075 0.58633 0.25255 0.0
H1144 H 0.41021 0.52455 0.12597 0.0
H1145 H 0.4294 0.53207 0.17495 0.0
C1146 C 0.87113 0.46375 0.86231 0.0
C1147 C 0.85798 0.4755 0.86096 0.0
C1148 C 0.88002 0.45923 0.83628 0.0
C1149 C 0.86892 0.43132 0.77851 0.0
H1150 H 0.89867 0.47061 0.7089 0.0
C1151 C 0.85944 0.38644 0.66587 0.0
C1152 C 0.85324 0.3965 0.6422 0.0
C1153 C 0.86954 0.39943 0.69208 0.0
C1154 C 0.8902 0.45932 0.72807 0.0
H1155 H 0.84591 0.49392 0.83185 0.0
H1156 H 0.86168 0.48617 0.78603 0.0
H1157 H 0.89872 0.4892 0.75652 0.0
H1158 H 0.85575 0.42915 0.62609 0.0
H1159 H 0.87153 0.45099 0.67192 0.0
H1160 H 0.85842 0.4014 0.75024 0.0
C1161 C 0.86508 0.48046 0.80733 0.0
C1162 C 0.89042 0.47005 0.75535 0.0
C1163 C 0.85607 0.48492 0.8335 0.0
C1164 C 0.85944 0.42049 0.64428 0.0
C1165 C 0.86902 0.43327 0.67059 0.0
C1166 C 0.86822 0.42059 0.75123 0.0
C1167 C 0.87604 0.46652 0.80839 0.0
C1168 C 0.87933 0.45607 0.78063 0.0
C1169 C 0.87326 0.42261 0.69539 0.0
C1170 C 0.87824 0.43437 0.72535 0.0
H1171 H 0.87313 0.45665 0.88334 0.0
H1172 H 0.88866 0.44869 0.83771 0.0
H1173 H 0.85993 0.42009 0.79758 0.0
H1174 H 0.85526 0.36813 0.66494 0.0
H1175 H 0.87333 0.39084 0.71027 0.0
C1176 C 0.44699 0.86488 0.14449 0.0
C1177 C 0.46507 0.85913 0.14187 0.0
C1178 C 0.44426 0.87484 0.17075 0.0
C1179 C 0.45818 0.87639 0.251 0.0
H1180 H 0.42119 0.90811 0.25582 0.0
C1181 C 0.38339 0.86863 0.33372 0.0
C1182 C 0.39473 0.87149 0.36147 0.0
C1183 C 0.3967 0.87609 0.30731 0.0
C1184 C 0.43175 0.89949 0.25477 0.0
H1185 H 0.49614 0.8619 0.16384 0.0
H1186 H 0.49217 0.88046 0.20904 0.0
H1187 H 0.43841 0.9063 0.20792 0.0
H1188 H 0.42897 0.88669 0.38352 0.0
H1189 H 0.45211 0.89907 0.33733 0.0
H1190 H 0.45132 0.86946 0.29778 0.0
C1191 C 0.47935 0.87621 0.19125 0.0
C1192 C 0.44149 0.89827 0.22735 0.0
C1193 C 0.48183 0.8658 0.16508 0.0
C1194 C 0.41971 0.88373 0.36242 0.0
C1195 C 0.43297 0.89093 0.33606 0.0
C1196 C 0.44888 0.87805 0.27843 0.0
C1197 C 0.45988 0.87985 0.19497 0.0
C1198 C 0.454 0.88581 0.22485 0.0
C1199 C 0.42153 0.88638 0.30822 0.0
C1200 C 0.43489 0.88886 0.28036 0.0
H1201 H 0.4342 0.86073 0.12671 0.0
H1202 H 0.42896 0.8772 0.17254 0.0
H1203 H 0.46729 0.86631 0.25014 0.0
H1204 H 0.36422 0.85919 0.33209 0.0
H1205 H 0.38745 0.87221 0.28606 0.0
C1206 C 0.55303 0.41799 0.86654 0.0
C1207 C 0.5431 0.39329 0.86418 0.0
C1208 C 0.55805 0.43196 0.8409 0.0
C1209 C 0.54996 0.42924 0.75797 0.0
H1210 H 0.61321 0.48446 0.7593 0.0
C1211 C 0.59315 0.47578 0.64865 0.0
C1212 C 0.6163 0.47989 0.64471 0.0
C1213 C 0.58305 0.47156 0.67716 0.0
C1214 C 0.5955 0.46914 0.75853 0.0
H1215 H 0.52943 0.36364 0.83344 0.0
H1216 H 0.53859 0.38792 0.78853 0.0
H1217 H 0.59566 0.46308 0.80548 0.0
H1218 H 0.64769 0.48437 0.66727 0.0
H1219 H 0.63004 0.47638 0.71708 0.0
H1220 H 0.55049 0.43413 0.71073 0.0
C1221 C 0.54213 0.3966 0.81014 0.0
C1222 C 0.58526 0.45702 0.78513 0.0
C1223 C 0.53687 0.38262 0.83584 0.0
C1224 C 0.6299 0.48153 0.6699 0.0
C1225 C 0.6197 0.47694 0.69842 0.0
C1226 C 0.56028 0.44121 0.73135 0.0
C1227 C 0.55348 0.42152 0.81233 0.0
C1228 C 0.56263 0.4365 0.78502 0.0
C1229 C 0.5958 0.47089 0.70222 0.0
C1230 C 0.58347 0.46091 0.73115 0.0
H1231 H 0.55765 0.42656 0.88825 0.0
H1232 H 0.56626 0.45102 0.84345 0.0
H1233 H 0.53235 0.41376 0.75715 0.0
H1234 H 0.58246 0.47456 0.6294 0.0
H1235 H 0.56484 0.4676 0.67933 0.0
C1236 C 0.15724 0.61339 0.16179 0.0
C1237 C 0.15404 0.60303 0.13339 0.0
C1238 C 0.14899 0.59914 0.18733 0.0
C1239 C 0.13434 0.53919 0.21243 0.0
H1240 H 0.12041 0.56098 0.28632 0.0
C1241 C 0.15357 0.51424 0.32782 0.0
C1242 C 0.14148 0.51572 0.35298 0.0
C1243 C 0.14821 0.51909 0.29932 0.0
C1244 C 0.1237 0.55417 0.26585 0.0
H1245 H 0.13819 0.56988 0.10898 0.0
H1246 H 0.12291 0.54484 0.15341 0.0
H1247 H 0.12227 0.58097 0.23981 0.0
H1248 H 0.11308 0.52122 0.36823 0.0
H1249 H 0.10267 0.52844 0.3183 0.0
H1250 H 0.13542 0.51217 0.23843 0.0
C1251 C 0.13252 0.56393 0.15622 0.0
C1252 C 0.12519 0.56598 0.23915 0.0
C1253 C 0.14112 0.57822 0.13075 0.0
C1254 C 0.12263 0.5201 0.349 0.0
C1255 C 0.11692 0.52449 0.32048 0.0
C1256 C 0.13248 0.52714 0.23908 0.0
C1257 C 0.13704 0.5742 0.18493 0.0
C1258 C 0.1314 0.55922 0.21227 0.0
C1259 C 0.13039 0.52518 0.29543 0.0
C1260 C 0.128 0.535 0.26634 0.0
H1261 H 0.16738 0.63249 0.1644 0.0
H1262 H 0.15318 0.60777 0.20898 0.0
H1263 H 0.13929 0.53347 0.19228 0.0
H1264 H 0.16842 0.51123 0.33049 0.0
H1265 H 0.1592 0.51969 0.28077 0.0
C1266 C 0.58312 0.11573 0.85103 0.0
C1267 C 0.60781 0.12612 0.85488 0.0
C1268 C 0.57284 0.10852 0.8228 0.0
C1269 C 0.59106 0.12331 0.7438 0.0
H1270 H 0.52345 0.08235 0.73053 0.0
C1271 C 0.5228 0.12995 0.66288 0.0
C1272 C 0.53489 0.13361 0.6356 0.0
C1273 C 0.5283 0.12001 0.68723 0.0
C1274 C 0.54239 0.09364 0.7339 0.0
H1275 H 0.64058 0.13407 0.83234 0.0
H1276 H 0.62248 0.1201 0.78358 0.0
H1277 H 0.54104 0.08025 0.778 0.0
H1278 H 0.55987 0.1271 0.61118 0.0
H1279 H 0.56974 0.11016 0.65375 0.0
H1280 H 0.59233 0.13665 0.69975 0.0
C1281 C 0.61118 0.11881 0.80214 0.0
C1282 C 0.55251 0.09262 0.76114 0.0
C1283 C 0.62158 0.12658 0.83035 0.0
C1284 C 0.5507 0.12495 0.63219 0.0
C1285 C 0.55628 0.11518 0.65645 0.0
C1286 C 0.58105 0.12389 0.71646 0.0
C1287 C 0.58688 0.11088 0.79767 0.0
C1288 C 0.57685 0.10813 0.7669 0.0
C1289 C 0.54596 0.11366 0.68452 0.0
C1290 C 0.55654 0.10964 0.7116 0.0
H1291 H 0.57174 0.11421 0.86958 0.0
H1292 H 0.55411 0.10256 0.82062 0.0
H1293 H 0.6097 0.13591 0.74726 0.0
H1294 H 0.51059 0.13651 0.66611 0.0
H1295 H 0.52019 0.11911 0.70874 0.0
loop_
_geom_bond_atom_site_label_1
_geom_bond_atom_site_label_2
_geom_bond_distance
_geom_bond_site_symmetry_2
_ccdc_geom_bond_type
Co0 N4 2.148 . S
Co0 N10 2.128 . S
Co0 N20 2.194 . S
Co0 O25 2.351 . S
Co0 O26 2.155 . S
Co0 O27 2.096 . S
C1 N4 1.301 . S
C1 N5 1.328 . S
C1 H6 0.930 . S
C2 C3 1.333 . S
C2 N4 1.317 . S
C2 H7 0.930 . S
C3 C2 1.333 . S
C3 N5 1.350 . S
C3 H29 0.931 . S
N4 Co0 2.148 . S
N4 C1 1.301 . S
N4 C2 1.317 . S
N5 C1 1.328 . S
N5 C3 1.350 . S
H6 C1 0.930 . S
H7 C2 0.930 . S
C8 O9 1.224 . S
C8 O27 1.247 . S
O9 C8 1.224 . S
N10 Co0 2.128 . S
N10 C11 1.355 . S
N10 C13 1.311 . S
C11 N10 1.355 . S
C11 C12 1.363 . S
C11 H23 0.929 . S
C12 C11 1.363 . S
C12 N14 1.375 1_554 S
C12 H30 0.931 1_554 S
C13 N10 1.311 . S
C13 N14 1.347 1_554 S
C13 H24 0.929 . S
N14 C12 1.375 1_556 S
N14 C13 1.347 1_556 S
C15 C18 1.365 . S
C15 N20 1.328 . S
C15 H21 0.929 . S
C16 C17 1.362 . S
C16 C19 1.378 . S
C16 H31 0.929 1_554 S
C17 C16 1.362 . S
C17 C18 1.366 . S
C18 C15 1.365 . S
C18 C17 1.366 . S
C18 H32 0.930 . S
C19 C16 1.378 . S
C19 N20 1.315 . S
C19 H22 0.930 . S
N20 Co0 2.194 . S
N20 C15 1.328 . S
N20 C19 1.315 . S
H21 C15 0.929 . S
H22 C19 0.930 . S
H23 C11 0.929 . S
H24 C13 0.929 . S
O25 Co0 2.351 . S
O25 C28 1.244 . S
O26 Co0 2.155 . S
O26 C28 1.240 . S
O27 Co0 2.096 . S
O27 C8 1.247 . S
C28 O25 1.244 . S
C28 O26 1.240 . S
H29 C3 0.931 . S
H30 C12 0.931 1_556 S
H31 C16 0.929 1_556 S
H32 C18 0.930 . S
Co33 N37 2.148 . S
Co33 N43 2.128 . S
Co33 N53 2.194 . S
Co33 O58 2.351 . S
Co33 O59 2.155 . S
Co33 O60 2.096 . S
C34 N37 1.301 . S
C34 N38 1.328 . S
C34 H39 0.930 . S
C35 C36 1.333 . S
C35 N37 1.317 . S
C35 H40 0.930 . S
C36 C35 1.333 . S
C36 N38 1.350 . S
C36 H62 0.931 . S
N37 Co33 2.148 . S
N37 C34 1.301 . S
N37 C35 1.317 . S
N38 C34 1.328 . S
N38 C36 1.350 . S
H39 C34 0.930 . S
H40 C35 0.930 . S
C41 O42 1.224 . S
C41 O60 1.247 . S
O42 C41 1.224 . S
N43 Co33 2.128 . S
N43 C44 1.355 . S
N43 C46 1.311 . S
C44 N43 1.355 . S
C44 C45 1.363 . S
C44 H56 0.929 . S
C45 C44 1.363 . S
C45 N47 1.375 . S
C45 H63 0.931 . S
C46 N43 1.311 . S
C46 N47 1.347 . S
C46 H57 0.929 . S
N47 C45 1.375 . S
N47 C46 1.347 . S
C48 C51 1.365 . S
C48 N53 1.328 . S
C48 H54 0.929 . S
C49 C50 1.362 . S
C49 C52 1.378 . S
C49 H64 0.929 . S
C50 C49 1.362 . S
C50 C51 1.366 . S
C51 C48 1.365 . S
C51 C50 1.366 . S
C51 H65 0.930 . S
C52 C49 1.378 . S
C52 N53 1.315 . S
C52 H55 0.930 . S
N53 Co33 2.194 . S
N53 C48 1.328 . S
N53 C52 1.315 . S
H54 C48 0.929 . S
H55 C52 0.930 . S
H56 C44 0.929 . S
H57 C46 0.929 . S
O58 Co33 2.351 . S
O58 C61 1.244 . S
O59 Co33 2.155 . S
O59 C61 1.240 . S
O60 Co33 2.096 . S
O60 C41 1.247 . S
C61 O58 1.244 . S
C61 O59 1.240 . S
H62 C36 0.931 . S
H63 C45 0.931 . S
H64 C49 0.929 . S
H65 C51 0.930 . S
Co66 N70 2.148 . S
Co66 N76 2.128 . S
Co66 N86 2.194 . S
Co66 O91 2.351 . S
Co66 O92 2.155 . S
Co66 O93 2.096 . S
C67 N70 1.301 . S
C67 N71 1.328 . S
C67 H72 0.930 . S
C68 C69 1.333 . S
C68 N70 1.317 . S
C68 H73 0.930 . S
C69 C68 1.333 . S
C69 N71 1.350 . S
C69 H95 0.931 . S
N70 Co66 2.148 . S
N70 C67 1.301 . S
N70 C68 1.317 . S
N71 C67 1.328 . S
N71 C69 1.350 . S
H72 C67 0.930 . S
H73 C68 0.930 . S
C74 O75 1.224 . S
C74 O93 1.247 . S
O75 C74 1.224 . S
N76 Co66 2.128 . S
N76 C77 1.355 . S
N76 C79 1.311 . S
C77 N76 1.355 . S
C77 C78 1.363 . S
C77 H89 0.929 . S
C78 C77 1.363 . S
C78 N80 1.375 1_554 S
C78 H96 0.931 1_554 S
C79 N76 1.311 . S
C79 N80 1.347 1_554 S
C79 H90 0.929 . S
N80 C78 1.375 1_556 S
N80 C79 1.347 1_556 S
C81 C84 1.365 . S
C81 N86 1.328 . S
C81 H87 0.929 . S
C82 C83 1.362 . S
C82 C85 1.378 . S
C82 H97 0.929 1_554 S
C83 C82 1.362 . S
C83 C84 1.366 . S
C84 C81 1.365 . S
C84 C83 1.366 . S
C84 H98 0.930 . S
C85 C82 1.378 . S
C85 N86 1.315 . S
C85 H88 0.930 . S
N86 Co66 2.194 . S
N86 C81 1.328 . S
N86 C85 1.315 . S
H87 C81 0.929 . S
H88 C85 0.930 . S
H89 C77 0.929 . S
H90 C79 0.929 . S
O91 Co66 2.351 . S
O91 C94 1.244 . S
O92 Co66 2.155 . S
O92 C94 1.240 . S
O93 Co66 2.096 . S
O93 C74 1.247 . S
C94 O91 1.244 . S
C94 O92 1.240 . S
H95 C69 0.931 . S
H96 C78 0.931 1_556 S
H97 C82 0.929 1_556 S
H98 C84 0.930 . S
Co99 N103 2.148 . S
Co99 N109 2.128 . S
Co99 N119 2.194 . S
Co99 O124 2.351 . S
Co99 O125 2.155 . S
Co99 O126 2.096 . S
C100 N103 1.301 . S
C100 N104 1.328 . S
C100 H105 0.930 . S
C101 C102 1.333 . S
C101 N103 1.317 . S
C101 H106 0.930 . S
C102 C101 1.333 . S
C102 N104 1.350 . S
C102 H128 0.931 . S
N103 Co99 2.148 . S
N103 C100 1.301 . S
N103 C101 1.317 . S
N104 C100 1.328 . S
N104 C102 1.350 . S
H105 C100 0.930 . S
H106 C101 0.930 . S
C107 O108 1.224 . S
C107 O126 1.247 . S
O108 C107 1.224 . S
N109 Co99 2.128 . S
N109 C110 1.355 . S
N109 C112 1.311 . S
C110 N109 1.355 . S
C110 C111 1.363 . S
C110 H122 0.929 . S
C111 C110 1.363 . S
C111 N113 1.375 . S
C111 H129 0.931 . S
C112 N109 1.311 . S
C112 N113 1.347 . S
C112 H123 0.929 . S
N113 C111 1.375 . S
N113 C112 1.347 . S
C114 C117 1.365 . S
C114 N119 1.328 . S
C114 H120 0.929 . S
C115 C116 1.362 . S
C115 C118 1.378 . S
C115 H130 0.929 . S
C116 C115 1.362 . S
C116 C117 1.366 . S
C117 C114 1.365 . S
C117 C116 1.366 . S
C117 H131 0.930 . S
C118 C115 1.378 . S
C118 N119 1.315 . S
C118 H121 0.930 . S
N119 Co99 2.194 . S
N119 C114 1.328 . S
N119 C118 1.315 . S
H120 C114 0.929 . S
H121 C118 0.930 . S
H122 C110 0.929 . S
H123 C112 0.929 . S
O124 Co99 2.351 . S
O124 C127 1.244 . S
O125 Co99 2.155 . S
O125 C127 1.240 . S
O126 Co99 2.096 . S
O126 C107 1.247 . S
C127 O124 1.244 . S
C127 O125 1.240 . S
H128 C102 0.931 . S
H129 C111 0.931 . S
H130 C115 0.929 . S
H131 C117 0.930 . S
Co132 N136 2.148 . S
Co132 N142 2.128 . S
Co132 N152 2.194 . S
Co132 O157 2.351 . S
Co132 O158 2.155 . S
Co132 O159 2.096 . S
C133 N136 1.301 . S
C133 N137 1.328 . S
C133 H138 0.930 . S
C134 C135 1.333 . S
C134 N136 1.317 . S
C134 H139 0.930 . S
C135 C134 1.333 . S
C135 N137 1.350 . S
C135 H161 0.931 . S
N136 Co132 2.148 . S
N136 C133 1.301 . S
N136 C134 1.317 . S
N137 C133 1.328 . S
N137 C135 1.350 . S
H138 C133 0.930 . S
H139 C134 0.930 . S
C140 O141 1.224 . S
C140 O159 1.247 . S
O141 C140 1.224 . S
N142 Co132 2.128 . S
N142 C143 1.355 . S
N142 C145 1.311 . S
C143 N142 1.355 . S
C143 C144 1.363 . S
C143 H155 0.929 . S
C144 C143 1.363 . S
C144 N146 1.375 1_554 S
C144 H162 0.931 1_554 S
C145 N142 1.311 . S
C145 N146 1.347 1_554 S
C145 H156 0.929 . S
N146 C144 1.375 1_556 S
N146 C145 1.347 1_556 S
C147 C150 1.365 . S
C147 N152 1.328 . S
C147 H153 0.929 . S
C148 C149 1.362 . S
C148 C151 1.378 . S
C148 H163 0.929 1_554 S
C149 C148 1.362 . S
C149 C150 1.366 . S
C150 C147 1.365 . S
C150 C149 1.366 . S
C150 H164 0.930 . S
C151 C148 1.378 . S
C151 N152 1.315 . S
C151 H154 0.930 . S
N152 Co132 2.194 . S
N152 C147 1.328 . S
N152 C151 1.315 . S
H153 C147 0.929 . S
H154 C151 0.930 . S
H155 C143 0.929 . S
H156 C145 0.929 . S
O157 Co132 2.351 . S
O157 C160 1.244 . S
O158 Co132 2.155 . S
O158 C160 1.240 . S
O159 Co132 2.096 . S
O159 C140 1.247 . S
C160 O157 1.244 . S
C160 O158 1.240 . S
H161 C135 0.931 . S
H162 C144 0.931 1_556 S
H163 C148 0.929 1_556 S
H164 C150 0.930 . S
Co165 N169 2.148 . S
Co165 N175 2.128 . S
Co165 N185 2.194 . S
Co165 O190 2.351 . S
Co165 O191 2.155 . S
Co165 O192 2.096 . S
C166 N169 1.301 . S
C166 N170 1.328 . S
C166 H171 0.930 . S
C167 C168 1.333 . S
C167 N169 1.317 . S
C167 H172 0.930 . S
C168 C167 1.333 . S
C168 N170 1.350 . S
C168 H194 0.931 . S
N169 Co165 2.148 . S
N169 C166 1.301 . S
N169 C167 1.317 . S
N170 C166 1.328 . S
N170 C168 1.350 . S
H171 C166 0.930 . S
H172 C167 0.930 . S
C173 O174 1.224 . S
C173 O192 1.247 . S
O174 C173 1.224 . S
N175 Co165 2.128 . S
N175 C176 1.355 . S
N175 C178 1.311 . S
C176 N175 1.355 . S
C176 C177 1.363 . S
C176 H188 0.929 . S
C177 C176 1.363 . S
C177 N179 1.375 . S
C177 H195 0.931 . S
C178 N175 1.311 . S
C178 N179 1.347 . S
C178 H189 0.929 . S
N179 C177 1.375 . S
N179 C178 1.347 . S
C180 C183 1.365 . S
C180 N185 1.328 . S
C180 H186 0.929 . S
C181 C182 1.362 . S
C181 C184 1.378 . S
C181 H196 0.929 . S
C182 C181 1.362 . S
C182 C183 1.366 . S
C183 C180 1.365 . S
C183 C182 1.366 . S
C183 H197 0.930 . S
C184 C181 1.378 . S
C184 N185 1.315 . S
C184 H187 0.930 . S
N185 Co165 2.194 . S
N185 C180 1.328 . S
N185 C184 1.315 . S
H186 C180 0.929 . S
H187 C184 0.930 . S
H188 C176 0.929 . S
H189 C178 0.929 . S
O190 Co165 2.351 . S
O190 C193 1.244 . S
O191 Co165 2.155 . S
O191 C193 1.240 . S
O192 Co165 2.096 . S
O192 C173 1.247 . S
C193 O190 1.244 . S
C193 O191 1.240 . S
H194 C168 0.931 . S
H195 C177 0.931 . S
H196 C181 0.929 . S
H197 C183 0.930 . S
Co198 N202 2.148 . S
Co198 N208 2.128 . S
Co198 N218 2.194 . S
Co198 O223 2.351 . S
Co198 O224 2.155 . S
Co198 O225 2.096 . S
C199 N202 1.301 . S
C199 N203 1.328 . S
C199 H204 0.930 . S
C200 C201 1.333 . S
C200 N202 1.317 . S
C200 H205 0.930 . S
C201 C200 1.333 . S
C201 N203 1.350 . S
C201 H227 0.931 . S
N202 Co198 2.148 . S
N202 C199 1.301 . S
N202 C200 1.317 . S
N203 C199 1.328 . S
N203 C201 1.350 . S
H204 C199 0.930 . S
H205 C200 0.930 . S
C206 O207 1.224 . S
C206 O225 1.247 . S
O207 C206 1.224 . S
N208 Co198 2.128 . S
N208 C209 1.355 . S
N208 C211 1.311 . S
C209 N208 1.355 . S
C209 C210 1.363 . S
C209 H221 0.929 . S
C210 C209 1.363 . S
C210 N212 1.375 . S
C210 H228 0.931 . S
C211 N208 1.311 . S
C211 N212 1.347 . S
C211 H222 0.929 . S
N212 C210 1.375 . S
N212 C211 1.347 . S
C213 C216 1.365 . S
C213 N218 1.328 . S
C213 H219 0.929 . S
C214 C215 1.362 . S
C214 C217 1.378 . S
C214 H229 0.929 . S
C215 C214 1.362 . S
C215 C216 1.366 . S
C216 C213 1.365 . S
C216 C215 1.366 . S
C216 H230 0.930 . S
C217 C214 1.378 . S
C217 N218 1.315 . S
C217 H220 0.930 . S
N218 Co198 2.194 . S
N218 C213 1.328 . S
N218 C217 1.315 . S
H219 C213 0.929 . S
H220 C217 0.930 . S
H221 C209 0.929 . S
H222 C211 0.929 . S
O223 Co198 2.351 . S
O223 C226 1.244 . S
O224 Co198 2.155 . S
O224 C226 1.240 . S
O225 Co198 2.096 . S
O225 C206 1.247 . S
C226 O223 1.244 . S
C226 O224 1.240 . S
H227 C201 0.931 . S
H228 C210 0.931 . S
H229 C214 0.929 . S
H230 C216 0.930 . S
Co231 N235 2.148 . S
Co231 N241 2.128 . S
Co231 N251 2.194 . S
Co231 O256 2.351 . S
Co231 O257 2.155 . S
Co231 O258 2.096 . S
C232 N235 1.301 . S
C232 N236 1.328 . S
C232 H237 0.930 . S
C233 C234 1.333 . S
C233 N235 1.317 . S
C233 H238 0.930 . S
C234 C233 1.333 . S
C234 N236 1.350 . S
C234 H260 0.931 . S
N235 Co231 2.148 . S
N235 C232 1.301 . S
N235 C233 1.317 . S
N236 C232 1.328 . S
N236 C234 1.350 . S
H237 C232 0.930 . S
H238 C233 0.930 . S
C239 O240 1.224 . S
C239 O258 1.247 . S
O240 C239 1.224 . S
N241 Co231 2.128 . S
N241 C242 1.355 . S
N241 C244 1.311 . S
C242 N241 1.355 . S
C242 C243 1.363 . S
C242 H254 0.929 . S
C243 C242 1.363 . S
C243 N245 1.375 1_556 S
C243 H261 0.931 1_556 S
C244 N241 1.311 . S
C244 N245 1.347 1_556 S
C244 H255 0.929 . S
N245 C243 1.375 1_554 S
N245 C244 1.347 1_554 S
C246 C249 1.365 . S
C246 N251 1.328 . S
C246 H252 0.929 . S
C247 C248 1.362 . S
C247 C250 1.378 . S
C247 H262 0.929 1_556 S
C248 C247 1.362 . S
C248 C249 1.366 . S
C249 C246 1.365 . S
C249 C248 1.366 . S
C249 H263 0.930 . S
C250 C247 1.378 . S
C250 N251 1.315 . S
C250 H253 0.930 . S
N251 Co231 2.194 . S
N251 C246 1.328 . S
N251 C250 1.315 . S
H252 C246 0.929 . S
H253 C250 0.930 . S
H254 C242 0.929 . S
H255 C244 0.929 . S
O256 Co231 2.351 . S
O256 C259 1.244 . S
O257 Co231 2.155 . S
O257 C259 1.240 . S
O258 Co231 2.096 . S
O258 C239 1.247 . S
C259 O256 1.244 . S
C259 O257 1.240 . S
H260 C234 0.931 . S
H261 C243 0.931 1_554 S
H262 C247 0.929 1_554 S
H263 C249 0.930 . S
Co264 N268 2.148 . S
Co264 N274 2.128 . S
Co264 N284 2.194 . S
Co264 O289 2.351 . S
Co264 O290 2.155 . S
Co264 O291 2.096 . S
C265 N268 1.301 . S
C265 N269 1.328 . S
C265 H270 0.930 . S
C266 C267 1.333 . S
C266 N268 1.317 . S
C266 H271 0.930 . S
C267 C266 1.333 . S
C267 N269 1.350 . S
C267 H293 0.931 . S
N268 Co264 2.148 . S
N268 C265 1.301 . S
N268 C266 1.317 . S
N269 C265 1.328 . S
N269 C267 1.350 . S
H270 C265 0.930 . S
H271 C266 0.930 . S
C272 O273 1.224 . S
C272 O291 1.247 . S
O273 C272 1.224 . S
N274 Co264 2.128 . S
N274 C275 1.355 . S
N274 C277 1.311 . S
C275 N274 1.355 . S
C275 C276 1.363 . S
C275 H287 0.929 . S
C276 C275 1.363 . S
C276 N278 1.375 . S
C276 H294 0.931 . S
C277 N274 1.311 . S
C277 N278 1.347 . S
C277 H288 0.929 . S
N278 C276 1.375 . S
N278 C277 1.347 . S
C279 C282 1.365 . S
C279 N284 1.328 . S
C279 H285 0.929 . S
C280 C281 1.362 . S
C280 C283 1.378 . S
C280 H295 0.929 . S
C281 C280 1.362 . S
C281 C282 1.366 . S
C282 C279 1.365 . S
C282 C281 1.366 . S
C282 H296 0.930 . S
C283 C280 1.378 . S
C283 N284 1.315 . S
C283 H286 0.930 . S
N284 Co264 2.194 . S
N284 C279 1.328 . S
N284 C283 1.315 . S
H285 C279 0.929 . S
H286 C283 0.930 . S
H287 C275 0.929 . S
H288 C277 0.929 . S
O289 Co264 2.351 . S
O289 C292 1.244 . S
O290 Co264 2.155 . S
O290 C292 1.240 . S
O291 Co264 2.096 . S
O291 C272 1.247 . S
C292 O289 1.244 . S
C292 O290 1.240 . S
H293 C267 0.931 . S
H294 C276 0.931 . S
H295 C280 0.929 . S
H296 C282 0.930 . S
Co297 N301 2.148 . S
Co297 N307 2.128 . S
Co297 N317 2.194 . S
Co297 O322 2.351 . S
Co297 O323 2.155 . S
Co297 O324 2.096 . S
C298 N301 1.301 . S
C298 N302 1.328 . S
C298 H303 0.930 . S
C299 C300 1.333 . S
C299 N301 1.317 . S
C299 H304 0.930 . S
C300 C299 1.333 . S
C300 N302 1.350 . S
C300 H326 0.931 . S
N301 Co297 2.148 . S
N301 C298 1.301 . S
N301 C299 1.317 . S
N302 C298 1.328 . S
N302 C300 1.350 . S
H303 C298 0.930 . S
H304 C299 0.930 . S
C305 O306 1.224 . S
C305 O324 1.247 . S
O306 C305 1.224 . S
N307 Co297 2.128 . S
N307 C308 1.355 . S
N307 C310 1.311 . S
C308 N307 1.355 . S
C308 C309 1.363 . S
C308 H320 0.929 . S
C309 C308 1.363 . S
C309 N311 1.375 1_556 S
C309 H327 0.931 1_556 S
C310 N307 1.311 . S
C310 N311 1.347 1_556 S
C310 H321 0.929 . S
N311 C309 1.375 1_554 S
N311 C310 1.347 1_554 S
C312 C315 1.365 . S
C312 N317 1.328 . S
C312 H318 0.929 . S
C313 C314 1.362 . S
C313 C316 1.378 . S
C313 H328 0.929 1_556 S
C314 C313 1.362 . S
C314 C315 1.366 . S
C315 C312 1.365 . S
C315 C314 1.366 . S
C315 H329 0.930 . S
C316 C313 1.378 . S
C316 N317 1.315 . S
C316 H319 0.930 . S
N317 Co297 2.194 . S
N317 C312 1.328 . S
N317 C316 1.315 . S
H318 C312 0.929 . S
H319 C316 0.930 . S
H320 C308 0.929 . S
H321 C310 0.929 . S
O322 Co297 2.351 . S
O322 C325 1.244 . S
O323 Co297 2.155 . S
O323 C325 1.240 . S
O324 Co297 2.096 . S
O324 C305 1.247 . S
C325 O322 1.244 . S
C325 O323 1.240 . S
H326 C300 0.931 . S
H327 C309 0.931 1_554 S
H328 C313 0.929 1_554 S
H329 C315 0.930 . S
Co330 N334 2.148 . S
Co330 N340 2.128 . S
Co330 N350 2.194 . S
Co330 O355 2.351 . S
Co330 O356 2.155 . S
Co330 O357 2.096 . S
C331 N334 1.301 . S
C331 N335 1.328 . S
C331 H336 0.930 . S
C332 C333 1.333 . S
C332 N334 1.317 . S
C332 H337 0.930 . S
C333 C332 1.333 . S
C333 N335 1.350 . S
C333 H359 0.931 . S
N334 Co330 2.148 . S
N334 C331 1.301 . S
N334 C332 1.317 . S
N335 C331 1.328 . S
N335 C333 1.350 . S
H336 C331 0.930 . S
H337 C332 0.930 . S
C338 O339 1.224 . S
C338 O357 1.247 . S
O339 C338 1.224 . S
N340 Co330 2.128 . S
N340 C341 1.355 . S
N340 C343 1.311 . S
C341 N340 1.355 . S
C341 C342 1.363 . S
C341 H353 0.929 . S
C342 C341 1.363 . S
C342 N344 1.375 . S
C342 H360 0.931 . S
C343 N340 1.311 . S
C343 N344 1.347 . S
C343 H354 0.929 . S
N344 C342 1.375 . S
N344 C343 1.347 . S
C345 C348 1.365 . S
C345 N350 1.328 . S
C345 H351 0.929 . S
C346 C347 1.362 . S
C346 C349 1.378 . S
C346 H361 0.929 . S
C347 C346 1.362 . S
C347 C348 1.366 . S
C348 C345 1.365 . S
C348 C347 1.366 . S
C348 H362 0.930 . S
C349 C346 1.378 . S
C349 N350 1.315 . S
C349 H352 0.930 . S
N350 Co330 2.194 . S
N350 C345 1.328 . S
N350 C349 1.315 . S
H351 C345 0.929 . S
H352 C349 0.930 . S
H353 C341 0.929 . S
H354 C343 0.929 . S
O355 Co330 2.351 . S
O355 C358 1.244 . S
O356 Co330 2.155 . S
O356 C358 1.240 . S
O357 Co330 2.096 . S
O357 C338 1.247 . S
C358 O355 1.244 . S
C358 O356 1.240 . S
H359 C333 0.931 . S
H360 C342 0.931 . S
H361 C346 0.929 . S
H362 C348 0.930 . S
Co363 N367 2.148 . S
Co363 N373 2.128 . S
Co363 N383 2.194 . S
Co363 O388 2.351 . S
Co363 O389 2.155 . S
Co363 O390 2.096 . S
C364 N367 1.301 . S
C364 N368 1.328 . S
C364 H369 0.930 . S
C365 C366 1.333 . S
C365 N367 1.317 . S
C365 H370 0.930 . S
C366 C365 1.333 . S
C366 N368 1.350 . S
C366 H392 0.931 . S
N367 Co363 2.148 . S
N367 C364 1.301 . S
N367 C365 1.317 . S
N368 C364 1.328 . S
N368 C366 1.350 . S
H369 C364 0.930 . S
H370 C365 0.930 . S
C371 O372 1.224 . S
C371 O390 1.247 . S
O372 C371 1.224 . S
N373 Co363 2.128 . S
N373 C374 1.355 . S
N373 C376 1.311 . S
C374 N373 1.355 . S
C374 C375 1.363 . S
C374 H386 0.929 . S
C375 C374 1.363 . S
C375 N377 1.375 1_556 S
C375 H393 0.931 1_556 S
C376 N373 1.311 . S
C376 N377 1.347 1_556 S
C376 H387 0.929 . S
N377 C375 1.375 1_554 S
N377 C376 1.347 1_554 S
C378 C381 1.365 . S
C378 N383 1.328 . S
C378 H384 0.929 . S
C379 C380 1.362 . S
C379 C382 1.378 . S
C379 H394 0.929 1_556 S
C380 C379 1.362 . S
C380 C381 1.366 . S
C381 C378 1.365 . S
C381 C380 1.366 . S
C381 H395 0.930 . S
C382 C379 1.378 . S
C382 N383 1.315 . S
C382 H385 0.930 . S
N383 Co363 2.194 . S
N383 C378 1.328 . S
N383 C382 1.315 . S
H384 C378 0.929 . S
H385 C382 0.930 . S
H386 C374 0.929 . S
H387 C376 0.929 . S
O388 Co363 2.351 . S
O388 C391 1.244 . S
O389 Co363 2.155 . S
O389 C391 1.240 . S
O390 Co363 2.096 . S
O390 C371 1.247 . S
C391 O388 1.244 . S
C391 O389 1.240 . S
H392 C366 0.931 . S
H393 C375 0.931 1_554 S
H394 C379 0.929 1_554 S
H395 C381 0.930 . S
C396 C397 1.349 . S
C396 C398 1.327 . S
C396 H421 0.950 . S
C397 C396 1.349 . S
C397 C413 1.349 1_556 S
C398 C396 1.327 . S
C398 C417 1.429 . S
C398 H422 0.950 . S
C399 C416 1.574 . S
C399 C418 1.368 1_554 S
C399 H423 0.949 . S
H400 C404 0.949 . S
C401 C402 1.349 . S
C401 C403 1.327 . S
C401 H424 0.950 . S
C402 C401 1.349 . S
C402 C414 1.349 1_554 S
C403 C401 1.327 . S
C403 C419 1.429 . S
C403 H425 0.950 . S
C404 H400 0.949 . S
C404 C412 1.574 . S
C404 C420 1.368 1_556 S
H405 C413 0.950 . S
H406 C411 0.950 . S
H407 C412 0.949 . S
H408 C414 0.950 . S
H409 C415 0.950 . S
H410 C416 0.949 . S
C411 H406 0.950 . S
C411 C413 1.327 . S
C411 C417 1.429 1_554 S
C412 C404 1.574 . S
C412 H407 0.949 . S
C412 C418 1.368 . S
C413 C397 1.349 1_554 S
C413 H405 0.950 . S
C413 C411 1.327 . S
C414 C402 1.349 1_556 S
C414 H408 0.950 . S
C414 C415 1.327 . S
C415 H409 0.950 . S
C415 C414 1.327 . S
C415 C419 1.429 1_556 S
C416 C399 1.574 . S
C416 H410 0.949 . S
C416 C420 1.368 . S
C417 C398 1.429 . S
C417 C411 1.429 1_556 S
C417 C418 1.523 . S
C418 C399 1.368 1_556 S
C418 C412 1.368 . S
C418 C417 1.523 . S
C419 C403 1.429 . S
C419 C415 1.429 1_554 S
C419 C420 1.523 . S
C420 C404 1.368 1_554 S
C420 C416 1.368 . S
C420 C419 1.523 . S
H421 C396 0.950 . S
H422 C398 0.950 . S
H423 C399 0.949 . S
H424 C401 0.950 . S
H425 C403 0.950 . S
C426 C427 1.349 . S
C426 C428 1.327 . S
C426 H451 0.950 . S
C427 C426 1.349 . S
C427 C443 1.349 . S
C428 C426 1.327 . S
C428 C447 1.429 . S
C428 H452 0.950 . S
C429 C446 1.574 1_655 S
C429 C448 1.368 . S
C429 H453 0.949 . S
H430 C434 0.949 . S
C431 C432 1.349 . S
C431 C433 1.327 . S
C431 H454 0.950 . S
C432 C431 1.349 . S
C432 C444 1.349 . S
C433 C431 1.327 . S
C433 C449 1.429 . S
C433 H455 0.950 . S
C434 H430 0.949 . S
C434 C442 1.574 1_455 S
C434 C450 1.368 . S
H435 C443 0.950 . S
H436 C441 0.950 . S
H437 C442 0.949 . S
H438 C444 0.950 . S
H439 C445 0.950 . S
H440 C446 0.949 . S
C441 H436 0.950 . S
C441 C443 1.327 . S
C441 C447 1.429 . S
C442 C434 1.574 1_655 S
C442 H437 0.949 . S
C442 C448 1.368 . S
C443 C427 1.349 . S
C443 H435 0.950 . S
C443 C441 1.327 . S
C444 C432 1.349 . S
C444 H438 0.950 . S
C444 C445 1.327 . S
C445 H439 0.950 . S
C445 C444 1.327 . S
C445 C449 1.429 . S
C446 C429 1.574 1_455 S
C446 H440 0.949 . S
C446 C450 1.368 . S
C447 C428 1.429 . S
C447 C441 1.429 . S
C447 C448 1.523 . S
C448 C429 1.368 . S
C448 C442 1.368 . S
C448 C447 1.523 . S
C449 C433 1.429 . S
C449 C445 1.429 . S
C449 C450 1.523 . S
C450 C434 1.368 . S
C450 C446 1.368 . S
C450 C449 1.523 . S
H451 C426 0.950 . S
H452 C428 0.950 . S
H453 C429 0.949 . S
H454 C431 0.950 . S
H455 C433 0.950 . S
C456 C457 1.349 . S
C456 C458 1.327 . S
C456 H481 0.950 . S
C457 C456 1.349 . S
C457 C473 1.349 1_556 S
C458 C456 1.327 . S
C458 C477 1.429 . S
C458 H482 0.950 . S
C459 C476 1.574 1_545 S
C459 C478 1.368 1_554 S
C459 H483 0.949 . S
H460 C464 0.949 . S
C461 C462 1.349 . S
C461 C463 1.327 . S
C461 H484 0.950 . S
C462 C461 1.349 . S
C462 C474 1.349 1_554 S
C463 C461 1.327 . S
C463 C479 1.429 . S
C463 H485 0.950 . S
C464 H460 0.949 . S
C464 C472 1.574 1_565 S
C464 C480 1.368 1_556 S
H465 C473 0.950 . S
H466 C471 0.950 . S
H467 C472 0.949 . S
H468 C474 0.950 . S
H469 C475 0.950 . S
H470 C476 0.949 . S
C471 H466 0.950 . S
C471 C473 1.327 . S
C471 C477 1.429 1_554 S
C472 C464 1.574 1_545 S
C472 H467 0.949 . S
C472 C478 1.368 . S
C473 C457 1.349 1_554 S
C473 H465 0.950 . S
C473 C471 1.327 . S
C474 C462 1.349 1_556 S
C474 H468 0.950 . S
C474 C475 1.327 . S
C475 H469 0.950 . S
C475 C474 1.327 . S
C475 C479 1.429 1_556 S
C476 C459 1.574 1_565 S
C476 H470 0.949 . S
C476 C480 1.368 . S
C477 C458 1.429 . S
C477 C471 1.429 1_556 S
C477 C478 1.523 . S
C478 C459 1.368 1_556 S
C478 C472 1.368 . S
C478 C477 1.523 . S
C479 C463 1.429 . S
C479 C475 1.429 1_554 S
C479 C480 1.523 . S
C480 C464 1.368 1_554 S
C480 C476 1.368 . S
C480 C479 1.523 . S
H481 C456 0.950 . S
H482 C458 0.950 . S
H483 C459 0.949 . S
H484 C461 0.950 . S
H485 C463 0.950 . S
C486 C487 1.349 . S
C486 C488 1.327 . S
C486 H511 0.950 . S
C487 C486 1.349 . S
C487 C503 1.349 . S
C488 C486 1.327 . S
C488 C507 1.429 . S
C488 H512 0.950 . S
C489 C506 1.574 . S
C489 C508 1.368 . S
C489 H513 0.949 . S
H490 C494 0.949 . S
C491 C492 1.349 . S
C491 C493 1.327 . S
C491 H514 0.950 . S
C492 C491 1.349 . S
C492 C504 1.349 . S
C493 C491 1.327 . S
C493 C509 1.429 . S
C493 H515 0.950 . S
C494 H490 0.949 . S
C494 C502 1.574 . S
C494 C510 1.368 . S
H495 C503 0.950 . S
H496 C501 0.950 . S
H497 C502 0.949 . S
H498 C504 0.950 . S
H499 C505 0.950 . S
H500 C506 0.949 . S
C501 H496 0.950 . S
C501 C503 1.327 . S
C501 C507 1.429 . S
C502 C494 1.574 . S
C502 H497 0.949 . S
C502 C508 1.368 . S
C503 C487 1.349 . S
C503 H495 0.950 . S
C503 C501 1.327 . S
C504 C492 1.349 . S
C504 H498 0.950 . S
C504 C505 1.327 . S
C505 H499 0.950 . S
C505 C504 1.327 . S
C505 C509 1.429 . S
C506 C489 1.574 . S
C506 H500 0.949 . S
C506 C510 1.368 . S
C507 C488 1.429 . S
C507 C501 1.429 . S
C507 C508 1.523 . S
C508 C489 1.368 . S
C508 C502 1.368 . S
C508 C507 1.523 . S
C509 C493 1.429 . S
C509 C505 1.429 . S
C509 C510 1.523 . S
C510 C494 1.368 . S
C510 C506 1.368 . S
C510 C509 1.523 . S
H511 C486 0.950 . S
H512 C488 0.950 . S
H513 C489 0.949 . S
H514 C491 0.950 . S
H515 C493 0.950 . S
C516 C517 1.349 . S
C516 C518 1.327 . S
C516 H541 0.950 . S
C517 C516 1.349 . S
C517 C533 1.349 1_554 S
C518 C516 1.327 . S
C518 C537 1.429 . S
C518 H542 0.950 . S
C519 C536 1.574 1_455 S
C519 C538 1.368 1_556 S
C519 H543 0.949 . S
H520 C524 0.949 . S
C521 C522 1.349 . S
C521 C523 1.327 . S
C521 H544 0.950 . S
C522 C521 1.349 . S
C522 C534 1.349 1_556 S
C523 C521 1.327 . S
C523 C539 1.429 . S
C523 H545 0.950 . S
C524 H520 0.949 . S
C524 C532 1.574 1_655 S
C524 C540 1.368 1_554 S
H525 C533 0.950 . S
H526 C531 0.950 . S
H527 C532 0.949 . S
H528 C534 0.950 . S
H529 C535 0.950 . S
H530 C536 0.949 . S
C531 H526 0.950 . S
C531 C533 1.327 . S
C531 C537 1.429 1_556 S
C532 C524 1.574 1_455 S
C532 H527 0.949 . S
C532 C538 1.368 . S
C533 C517 1.349 1_556 S
C533 H525 0.950 . S
C533 C531 1.327 . S
C534 C522 1.349 1_554 S
C534 H528 0.950 . S
C534 C535 1.327 . S
C535 H529 0.950 . S
C535 C534 1.327 . S
C535 C539 1.429 1_554 S
C536 C519 1.574 1_655 S
C536 H530 0.949 . S
C536 C540 1.368 . S
C537 C518 1.429 . S
C537 C531 1.429 1_554 S
C537 C538 1.523 . S
C538 C519 1.368 1_554 S
C538 C532 1.368 . S
C538 C537 1.523 . S
C539 C523 1.429 . S
C539 C535 1.429 1_556 S
C539 C540 1.523 . S
C540 C524 1.368 1_556 S
C540 C536 1.368 . S
C540 C539 1.523 . S
H541 C516 0.950 . S
H542 C518 0.950 . S
H543 C519 0.949 . S
H544 C521 0.950 . S
H545 C523 0.950 . S
C546 C547 1.349 . S
C546 C548 1.327 . S
C546 H571 0.950 . S
C547 C546 1.349 . S
C547 C563 1.349 . S
C548 C546 1.327 . S
C548 C567 1.429 . S
C548 H572 0.950 . S
C549 C566 1.574 1_565 S
C549 C568 1.368 . S
C549 H573 0.949 . S
H550 C554 0.949 . S
C551 C552 1.349 . S
C551 C553 1.327 . S
C551 H574 0.950 . S
C552 C551 1.349 . S
C552 C564 1.349 . S
C553 C551 1.327 . S
C553 C569 1.429 . S
C553 H575 0.950 . S
C554 H550 0.949 . S
C554 C562 1.574 1_545 S
C554 C570 1.368 . S
H555 C563 0.950 . S
H556 C561 0.950 . S
H557 C562 0.949 . S
H558 C564 0.950 . S
H559 C565 0.950 . S
H560 C566 0.949 . S
C561 H556 0.950 . S
C561 C563 1.327 . S
C561 C567 1.429 . S
C562 C554 1.574 1_565 S
C562 H557 0.949 . S
C562 C568 1.368 . S
C563 C547 1.349 . S
C563 H555 0.950 . S
C563 C561 1.327 . S
C564 C552 1.349 . S
C564 H558 0.950 . S
C564 C565 1.327 . S
C565 H559 0.950 . S
C565 C564 1.327 . S
C565 C569 1.429 . S
C566 C549 1.574 1_545 S
C566 H560 0.949 . S
C566 C570 1.368 . S
C567 C548 1.429 . S
C567 C561 1.429 . S
C567 C568 1.523 . S
C568 C549 1.368 . S
C568 C562 1.368 . S
C568 C567 1.523 . S
C569 C553 1.429 . S
C569 C565 1.429 . S
C569 C570 1.523 . S
C570 C554 1.368 . S
C570 C566 1.368 . S
C570 C569 1.523 . S
H571 C546 0.950 . S
H572 C548 0.950 . S
H573 C549 0.949 . S
H574 C551 0.950 . S
H575 C553 0.950 . S
C576 C577 1.351 . S
C576 C578 1.326 1_556 S
C576 H601 0.949 1_556 S
C577 C576 1.351 . S
C577 C593 1.349 . S
C578 C576 1.326 1_554 S
C578 C597 1.429 1_554 S
C578 H602 0.950 . S
C579 C596 1.578 . S
C579 C598 1.368 1_556 S
C579 H603 0.949 . S
H580 C584 0.949 . S
C581 C582 1.349 . S
C581 C583 1.327 . S
C581 H604 0.950 . S
C582 C581 1.349 . S
C582 C594 1.349 . S
C583 C581 1.327 . S
C583 C599 1.429 . S
C583 H605 0.950 . S
C584 H580 0.949 . S
C584 C592 1.574 . S
C584 C600 1.368 . S
H585 C593 0.950 . S
H586 C591 0.950 . S
H587 C592 0.949 . S
H588 C594 0.950 . S
H589 C595 0.950 . S
H590 C596 0.955 . S
C591 H586 0.950 . S
C591 C593 1.327 . S
C591 C597 1.429 . S
C592 C584 1.574 . S
C592 H587 0.949 . S
C592 C598 1.368 . S
C593 C577 1.349 . S
C593 H585 0.950 . S
C593 C591 1.327 . S
C594 C582 1.349 . S
C594 H588 0.950 . S
C594 C595 1.327 . S
C595 H589 0.950 . S
C595 C594 1.327 . S
C595 C599 1.429 . S
C596 C579 1.578 . S
C596 H590 0.955 . S
C596 C600 1.357 1_556 S
C597 C578 1.429 1_556 S
C597 C591 1.429 . S
C597 C598 1.523 1_556 S
C598 C579 1.368 1_554 S
C598 C592 1.368 . S
C598 C597 1.523 1_554 S
C599 C583 1.429 . S
C599 C595 1.429 . S
C599 C600 1.523 . S
C600 C584 1.368 . S
C600 C596 1.357 1_554 S
C600 C599 1.523 . S
H601 C576 0.949 1_554 S
H602 C578 0.950 . S
H603 C579 0.949 . S
H604 C581 0.950 . S
H605 C583 0.950 . S
C606 C607 1.349 . S
C606 C608 1.327 . S
C606 H631 0.950 . S
C607 C606 1.349 . S
C607 C623 1.349 . S
C608 C606 1.327 . S
C608 C627 1.429 . S
C608 H632 0.950 . S
C609 C626 1.574 . S
C609 C628 1.368 . S
C609 H633 0.949 . S
H610 C614 0.949 . S
C611 C612 1.349 . S
C611 C613 1.327 . S
C611 H634 0.950 . S
C612 C611 1.349 . S
C612 C624 1.349 . S
C613 C611 1.327 . S
C613 C629 1.429 . S
C613 H635 0.950 . S
C614 H610 0.949 . S
C614 C622 1.574 . S
C614 C630 1.368 . S
H615 C623 0.950 . S
H616 C621 0.950 . S
H617 C622 0.949 . S
H618 C624 0.950 . S
H619 C625 0.950 . S
H620 C626 0.949 . S
C621 H616 0.950 . S
C621 C623 1.327 . S
C621 C627 1.429 . S
C622 C614 1.574 . S
C622 H617 0.949 . S
C622 C628 1.368 . S
C623 C607 1.349 . S
C623 H615 0.950 . S
C623 C621 1.327 . S
C624 C612 1.349 . S
C624 H618 0.950 . S
C624 C625 1.327 . S
C625 H619 0.950 . S
C625 C624 1.327 . S
C625 C629 1.429 . S
C626 C609 1.574 . S
C626 H620 0.949 . S
C626 C630 1.368 . S
C627 C608 1.429 . S
C627 C621 1.429 . S
C627 C628 1.523 . S
C628 C609 1.368 . S
C628 C622 1.368 . S
C628 C627 1.523 . S
C629 C613 1.429 . S
C629 C625 1.429 . S
C629 C630 1.523 . S
C630 C614 1.368 . S
C630 C626 1.368 . S
C630 C629 1.523 . S
H631 C606 0.950 . S
H632 C608 0.950 . S
H633 C609 0.949 . S
H634 C611 0.950 . S
H635 C613 0.950 . S
C636 C637 1.349 1_554 S
C636 C638 1.327 . S
C636 H661 0.950 . S
C637 C636 1.349 1_556 S
C637 C653 1.349 . S
C638 C636 1.327 . S
C638 C657 1.429 1_554 S
C638 H662 0.950 . S
C639 C656 1.574 . S
C639 C658 1.368 1_556 S
C639 H663 0.949 . S
H640 C644 0.949 . S
C641 C642 1.349 . S
C641 C643 1.327 . S
C641 H664 0.950 1_554 S
C642 C641 1.349 . S
C642 C654 1.349 . S
C643 C641 1.327 . S
C643 C659 1.429 . S
C643 H665 0.950 1_554 S
C644 H640 0.949 . S
C644 C652 1.574 . S
C644 C660 1.368 . S
H645 C653 0.950 . S
H646 C651 0.950 . S
H647 C652 0.949 . S
H648 C654 0.950 . S
H649 C655 0.950 . S
H650 C656 0.949 . S
C651 H646 0.950 . S
C651 C653 1.327 . S
C651 C657 1.429 . S
C652 C644 1.574 . S
C652 H647 0.949 . S
C652 C658 1.368 . S
C653 C637 1.349 . S
C653 H645 0.950 . S
C653 C651 1.327 . S
C654 C642 1.349 . S
C654 H648 0.950 . S
C654 C655 1.327 . S
C655 H649 0.950 . S
C655 C654 1.327 . S
C655 C659 1.429 . S
C656 C639 1.574 . S
C656 H650 0.949 . S
C656 C660 1.368 1_556 S
C657 C638 1.429 1_556 S
C657 C651 1.429 . S
C657 C658 1.523 1_556 S
C658 C639 1.368 1_554 S
C658 C652 1.368 . S
C658 C657 1.523 1_554 S
C659 C643 1.429 . S
C659 C655 1.429 . S
C659 C660 1.523 . S
C660 C644 1.368 . S
C660 C656 1.368 1_554 S
C660 C659 1.523 . S
H661 C636 0.950 . S
H662 C638 0.950 . S
H663 C639 0.949 . S
H664 C641 0.950 1_556 S
H665 C643 0.950 1_556 S
C666 C667 1.349 . S
C666 C668 1.327 . S
C666 H691 0.950 . S
C667 C666 1.349 . S
C667 C683 1.349 . S
C668 C666 1.327 . S
C668 C687 1.429 . S
C668 H692 0.950 . S
C669 C686 1.574 . S
C669 C688 1.368 . S
C669 H693 0.949 . S
H670 C674 0.949 . S
C671 C672 1.349 . S
C671 C673 1.327 . S
C671 H694 0.950 . S
C672 C671 1.349 . S
C672 C684 1.349 . S
C673 C671 1.327 . S
C673 C689 1.429 . S
C673 H695 0.950 . S
C674 H670 0.949 . S
C674 C682 1.574 . S
C674 C690 1.368 . S
H675 C683 0.950 . S
H676 C681 0.950 . S
H677 C682 0.949 . S
H678 C684 0.950 . S
H679 C685 0.950 . S
H680 C686 0.949 . S
C681 H676 0.950 . S
C681 C683 1.327 . S
C681 C687 1.429 . S
C682 C674 1.574 . S
C682 H677 0.949 . S
C682 C688 1.368 . S
C683 C667 1.349 . S
C683 H675 0.950 . S
C683 C681 1.327 . S
C684 C672 1.349 . S
C684 H678 0.950 . S
C684 C685 1.327 . S
C685 H679 0.950 . S
C685 C684 1.327 . S
C685 C689 1.429 . S
C686 C669 1.574 . S
C686 H680 0.949 . S
C686 C690 1.368 . S
C687 C668 1.429 . S
C687 C681 1.429 . S
C687 C688 1.523 . S
C688 C669 1.368 . S
C688 C682 1.368 . S
C688 C687 1.523 . S
C689 C673 1.429 . S
C689 C685 1.429 . S
C689 C690 1.523 . S
C690 C674 1.368 . S
C690 C686 1.368 . S
C690 C689 1.523 . S
H691 C666 0.950 . S
H692 C668 0.950 . S
H693 C669 0.949 . S
H694 C671 0.950 . S
H695 C673 0.950 . S
C696 C697 1.349 . S
C696 C698 1.327 . S
C696 H721 0.950 . S
C697 C696 1.349 . S
C697 C713 1.349 . S
C698 C696 1.327 . S
C698 C717 1.429 . S
C698 H722 0.950 . S
C699 C716 1.574 . S
C699 C718 1.368 1_556 S
C699 H723 0.949 . S
H700 C704 0.949 . S
C701 C702 1.349 . S
C701 C703 1.327 . S
C701 H724 0.950 . S
C702 C701 1.349 . S
C702 C714 1.349 1_556 S
C703 C701 1.327 . S
C703 C719 1.429 . S
C703 H725 0.950 . S
C704 H700 0.949 . S
C704 C712 1.574 . S
C704 C720 1.368 . S
H705 C713 0.950 1_556 S
H706 C711 0.950 1_556 S
H707 C712 0.949 . S
H708 C714 0.950 . S
H709 C715 0.950 . S
H710 C716 0.949 . S
C711 H706 0.950 1_554 S
C711 C713 1.327 . S
C711 C717 1.428 . S
C712 C704 1.574 . S
C712 H707 0.949 . S
C712 C718 1.368 . S
C713 C697 1.349 . S
C713 H705 0.950 1_554 S
C713 C711 1.327 . S
C714 C702 1.349 1_554 S
C714 H708 0.950 . S
C714 C715 1.327 . S
C715 H709 0.950 . S
C715 C714 1.327 . S
C715 C719 1.429 1_554 S
C716 C699 1.574 . S
C716 H710 0.949 . S
C716 C720 1.368 1_556 S
C717 C698 1.429 . S
C717 C711 1.428 . S
C717 C718 1.523 . S
C718 C699 1.368 1_554 S
C718 C712 1.368 . S
C718 C717 1.523 . S
C719 C703 1.429 . S
C719 C715 1.429 1_556 S
C719 C720 1.523 1_556 S
C720 C704 1.368 . S
C720 C716 1.368 1_554 S
C720 C719 1.523 1_554 S
H721 C696 0.950 . S
H722 C698 0.950 . S
H723 C699 0.949 . S
H724 C701 0.950 . S
H725 C703 0.950 . S
C726 C727 1.349 . S
C726 C728 1.327 . S
C726 H751 0.950 . S
C727 C726 1.349 . S
C727 C743 1.349 . S
C728 C726 1.327 . S
C728 C747 1.429 . S
C728 H752 0.950 . S
C729 C746 1.574 . S
C729 C748 1.368 . S
C729 H753 0.949 . S
H730 C734 0.949 . S
C731 C732 1.349 . S
C731 C733 1.327 . S
C731 H754 0.950 . S
C732 C731 1.349 . S
C732 C744 1.349 . S
C733 C731 1.327 . S
C733 C749 1.429 . S
C733 H755 0.950 . S
C734 H730 0.949 . S
C734 C742 1.574 . S
C734 C750 1.368 . S
H735 C743 0.950 . S
H736 C741 0.950 . S
H737 C742 0.949 . S
H738 C744 0.950 . S
H739 C745 0.950 . S
H740 C746 0.949 . S
C741 H736 0.950 . S
C741 C743 1.327 . S
C741 C747 1.429 . S
C742 C734 1.574 . S
C742 H737 0.949 . S
C742 C748 1.368 . S
C743 C727 1.349 . S
C743 H735 0.950 . S
C743 C741 1.327 . S
C744 C732 1.349 . S
C744 H738 0.950 . S
C744 C745 1.327 . S
C745 H739 0.950 . S
C745 C744 1.327 . S
C745 C749 1.429 . S
C746 C729 1.574 . S
C746 H740 0.949 . S
C746 C750 1.368 . S
C747 C728 1.429 . S
C747 C741 1.429 . S
C747 C748 1.523 . S
C748 C729 1.368 . S
C748 C742 1.368 . S
C748 C747 1.523 . S
C749 C733 1.429 . S
C749 C745 1.429 . S
C749 C750 1.523 . S
C750 C734 1.368 . S
C750 C746 1.368 . S
C750 C749 1.523 . S
H751 C726 0.950 . S
H752 C728 0.950 . S
H753 C729 0.949 . S
H754 C731 0.950 . S
H755 C733 0.950 . S
C756 C757 1.349 . S
C756 C758 1.327 . S
C756 H781 0.950 . S
C757 C756 1.349 . S
C757 C773 1.349 . S
C758 C756 1.327 . S
C758 C777 1.429 . S
C758 H782 0.950 . S
C759 C776 1.574 . S
C759 C778 1.368 . S
C759 H783 0.949 . S
H760 C764 0.949 . S
C761 C762 1.349 . S
C761 C763 1.327 . S
C761 H784 0.950 . S
C762 C761 1.349 . S
C762 C774 1.349 . S
C763 C761 1.327 . S
C763 C779 1.429 . S
C763 H785 0.950 . S
C764 H760 0.949 . S
C764 C772 1.574 . S
C764 C780 1.368 . S
H765 C773 0.950 . S
H766 C771 0.950 . S
H767 C772 0.949 . S
H768 C774 0.950 . S
H769 C775 0.950 . S
H770 C776 0.949 . S
C771 H766 0.950 . S
C771 C773 1.327 . S
C771 C777 1.429 . S
C772 C764 1.574 . S
C772 H767 0.949 . S
C772 C778 1.368 . S
C773 C757 1.349 . S
C773 H765 0.950 . S
C773 C771 1.327 . S
C774 C762 1.349 . S
C774 H768 0.950 . S
C774 C775 1.327 . S
C775 H769 0.950 . S
C775 C774 1.327 . S
C775 C779 1.429 . S
C776 C759 1.574 . S
C776 H770 0.949 . S
C776 C780 1.368 . S
C777 C758 1.429 . S
C777 C771 1.429 . S
C777 C778 1.523 . S
C778 C759 1.368 . S
C778 C772 1.368 . S
C778 C777 1.523 . S
C779 C763 1.429 . S
C779 C775 1.429 . S
C779 C780 1.523 . S
C780 C764 1.368 . S
C780 C776 1.368 . S
C780 C779 1.523 . S
H781 C756 0.950 . S
H782 C758 0.950 . S
H783 C759 0.949 . S
H784 C761 0.950 . S
H785 C763 0.950 . S
C786 C787 1.349 1_556 S
C786 C788 1.327 . S
C786 H811 0.950 . S
C787 C786 1.349 1_554 S
C787 C803 1.349 . S
C788 C786 1.327 . S
C788 C807 1.429 1_556 S
C788 H812 0.950 . S
C789 C806 1.574 . S
C789 C808 1.368 1_554 S
C789 H813 0.949 . S
H790 C794 0.949 . S
C791 C792 1.349 . S
C791 C793 1.334 . S
C791 H814 0.950 1_556 S
C792 C791 1.349 . S
C792 C804 1.349 . S
C793 C791 1.334 . S
C793 C809 1.448 . S
C793 H815 0.923 1_556 S
C794 H790 0.949 . S
C794 C802 1.574 . S
C794 C810 1.368 . S
H795 C803 0.950 . S
H796 C801 0.950 . S
H797 C802 0.949 . S
H798 C804 0.950 . S
H799 C805 0.950 . S
H800 C806 0.949 . S
C801 H796 0.950 . S
C801 C803 1.327 . S
C801 C807 1.429 . S
C802 C794 1.574 . S
C802 H797 0.949 . S
C802 C808 1.368 . S
C803 C787 1.349 . S
C803 H795 0.950 . S
C803 C801 1.327 . S
C804 C792 1.349 . S
C804 H798 0.950 . S
C804 C805 1.327 . S
C805 H799 0.950 . S
C805 C804 1.327 . S
C805 C809 1.429 . S
C806 C789 1.574 . S
C806 H800 0.949 . S
C806 C810 1.368 1_554 S
C807 C788 1.429 1_554 S
C807 C801 1.429 . S
C807 C808 1.523 1_554 S
C808 C789 1.368 1_556 S
C808 C802 1.368 . S
C808 C807 1.523 1_556 S
C809 C793 1.448 . S
C809 C805 1.429 . S
C809 C810 1.523 . S
C810 C794 1.368 . S
C810 C806 1.368 1_556 S
C810 C809 1.523 . S
H811 C786 0.950 . S
H812 C788 0.950 . S
H813 C789 0.949 . S
H814 C791 0.950 1_554 S
H815 C793 0.923 1_554 S
C816 C817 1.349 . S
C816 C818 1.327 . S
C816 H841 0.950 . S
C817 C816 1.349 . S
C817 C833 1.349 . S
C818 C816 1.327 . S
C818 C837 1.429 . S
C818 H842 0.950 . S
C819 C836 1.574 . S
C819 C838 1.368 . S
C819 H843 0.949 . S
H820 C824 0.949 . S
C821 C822 1.349 . S
C821 C823 1.327 . S
C821 H844 0.950 . S
C822 C821 1.349 . S
C822 C834 1.349 . S
C823 C821 1.327 . S
C823 C839 1.429 . S
C823 H845 0.950 . S
C824 H820 0.949 . S
C824 C832 1.574 . S
C824 C840 1.368 . S
H825 C833 0.950 . S
H826 C831 0.950 . S
H827 C832 0.949 . S
H828 C834 0.950 . S
H829 C835 0.950 . S
H830 C836 0.949 . S
C831 H826 0.950 . S
C831 C833 1.327 . S
C831 C837 1.429 . S
C832 C824 1.574 . S
C832 H827 0.949 . S
C832 C838 1.368 . S
C833 C817 1.349 . S
C833 H825 0.950 . S
C833 C831 1.327 . S
C834 C822 1.349 . S
C834 H828 0.950 . S
C834 C835 1.327 . S
C835 H829 0.950 . S
C835 C834 1.327 . S
C835 C839 1.429 . S
C836 C819 1.574 . S
C836 H830 0.949 . S
C836 C840 1.368 . S
C837 C818 1.429 . S
C837 C831 1.429 . S
C837 C838 1.523 . S
C838 C819 1.368 . S
C838 C832 1.368 . S
C838 C837 1.523 . S
C839 C823 1.429 . S
C839 C835 1.429 . S
C839 C840 1.523 . S
C840 C824 1.368 . S
C840 C836 1.368 . S
C840 C839 1.523 . S
H841 C816 0.950 . S
H842 C818 0.950 . S
H843 C819 0.949 . S
H844 C821 0.950 . S
H845 C823 0.950 . S
C846 C847 1.349 . S
C846 C848 1.327 . S
C846 H871 0.950 1_556 S
C847 C846 1.349 . S
C847 C863 1.349 . S
C848 C846 1.327 . S
C848 C867 1.429 . S
C848 H872 0.950 1_556 S
C849 C866 1.574 . S
C849 C868 1.368 . S
C849 H873 0.949 . S
H850 C854 0.949 . S
C851 C852 1.349 1_556 S
C851 C853 1.327 . S
C851 H874 0.950 . S
C852 C851 1.349 1_554 S
C852 C864 1.349 . S
C853 C851 1.327 . S
C853 C869 1.429 1_556 S
C853 H875 0.950 . S
C854 H850 0.949 . S
C854 C862 1.574 . S
C854 C870 1.368 1_554 S
H855 C863 0.950 . S
H856 C861 0.950 . S
H857 C862 0.949 . S
H858 C864 0.950 . S
H859 C865 0.950 . S
H860 C866 0.949 . S
C861 H856 0.950 . S
C861 C863 1.327 . S
C861 C867 1.429 . S
C862 C854 1.574 . S
C862 H857 0.949 . S
C862 C868 1.368 1_554 S
C863 C847 1.349 . S
C863 H855 0.950 . S
C863 C861 1.327 . S
C864 C852 1.349 . S
C864 H858 0.950 . S
C864 C865 1.327 . S
C865 H859 0.950 . S
C865 C864 1.327 . S
C865 C869 1.429 . S
C866 C849 1.574 . S
C866 H860 0.949 . S
C866 C870 1.368 . S
C867 C848 1.429 . S
C867 C861 1.429 . S
C867 C868 1.523 . S
C868 C849 1.368 . S
C868 C862 1.368 1_556 S
C868 C867 1.523 . S
C869 C853 1.429 1_554 S
C869 C865 1.429 . S
C869 C870 1.523 1_554 S
C870 C854 1.368 1_556 S
C870 C866 1.368 . S
C870 C869 1.523 1_556 S
H871 C846 0.950 1_554 S
H872 C848 0.950 1_554 S
H873 C849 0.949 . S
H874 C851 0.950 . S
H875 C853 0.950 . S
C876 C877 1.349 . S
C876 C878 1.327 . S
C876 H901 0.950 . S
C877 C876 1.349 . S
C877 C893 1.349 . S
C878 C876 1.327 . S
C878 C897 1.429 . S
C878 H902 0.950 . S
C879 C896 1.574 . S
C879 C898 1.368 . S
C879 H903 0.949 . S
H880 C884 0.949 . S
C881 C882 1.349 . S
C881 C883 1.327 . S
C881 H904 0.950 . S
C882 C881 1.349 . S
C882 C894 1.349 . S
C883 C881 1.327 . S
C883 C899 1.429 . S
C883 H905 0.950 . S
C884 H880 0.949 . S
C884 C892 1.574 . S
C884 C900 1.368 . S
H885 C893 0.950 . S
H886 C891 0.950 . S
H887 C892 0.949 . S
H888 C894 0.950 . S
H889 C895 0.950 . S
H890 C896 0.949 . S
C891 H886 0.950 . S
C891 C893 1.327 . S
C891 C897 1.429 . S
C892 C884 1.574 . S
C892 H887 0.949 . S
C892 C898 1.368 . S
C893 C877 1.349 . S
C893 H885 0.950 . S
C893 C891 1.327 . S
C894 C882 1.349 . S
C894 H888 0.950 . S
C894 C895 1.327 . S
C895 H889 0.950 . S
C895 C894 1.327 . S
C895 C899 1.429 . S
C896 C879 1.574 . S
C896 H890 0.949 . S
C896 C900 1.368 . S
C897 C878 1.429 . S
C897 C891 1.429 . S
C897 C898 1.523 . S
C898 C879 1.368 . S
C898 C892 1.368 . S
C898 C897 1.523 . S
C899 C883 1.429 . S
C899 C895 1.429 . S
C899 C900 1.523 . S
C900 C884 1.368 . S
C900 C896 1.368 . S
C900 C899 1.523 . S
H901 C876 0.950 . S
H902 C878 0.950 . S
H903 C879 0.949 . S
H904 C881 0.950 . S
H905 C883 0.950 . S
C906 C907 1.349 . S
C906 C908 1.327 . S
C906 H931 0.950 . S
C907 C906 1.349 . S
C907 C923 1.349 1_554 S
C908 C906 1.327 . S
C908 C927 1.429 . S
C908 H932 0.950 . S
C909 C926 1.574 . S
C909 C928 1.368 . S
C909 H933 0.949 . S
H910 C914 0.949 . S
C911 C912 1.349 . S
C911 C913 1.327 . S
C911 H934 0.950 . S
C912 C911 1.349 . S
C912 C924 1.349 . S
C913 C911 1.327 . S
C913 C929 1.429 . S
C913 H935 0.950 . S
C914 H910 0.949 . S
C914 C922 1.574 . S
C914 C930 1.368 1_554 S
H915 C923 0.950 . S
H916 C921 0.950 . S
H917 C922 0.949 . S
H918 C924 0.950 1_554 S
H919 C925 0.950 1_554 S
H920 C926 0.949 . S
C921 H916 0.950 . S
C921 C923 1.327 . S
C921 C927 1.429 1_556 S
C922 C914 1.574 . S
C922 H917 0.949 . S
C922 C928 1.368 1_554 S
C923 C907 1.349 1_556 S
C923 H915 0.950 . S
C923 C921 1.327 . S
C924 C912 1.349 . S
C924 H918 0.950 1_556 S
C924 C925 1.327 . S
C925 H919 0.950 1_556 S
C925 C924 1.327 . S
C925 C929 1.429 . S
C926 C909 1.574 . S
C926 H920 0.949 . S
C926 C930 1.368 . S
C927 C908 1.429 . S
C927 C921 1.429 1_554 S
C927 C928 1.523 1_554 S
C928 C909 1.368 . S
C928 C922 1.368 1_556 S
C928 C927 1.523 1_556 S
C929 C913 1.429 . S
C929 C925 1.429 . S
C929 C930 1.523 . S
C930 C914 1.368 1_556 S
C930 C926 1.368 . S
C930 C929 1.523 . S
H931 C906 0.950 . S
H932 C908 0.950 . S
H933 C909 0.949 . S
H934 C911 0.950 . S
H935 C913 0.950 . S
C936 C937 1.349 . S
C936 C938 1.327 . S
C936 H961 0.950 . S
C937 C936 1.349 . S
C937 C953 1.349 . S
C938 C936 1.327 . S
C938 C957 1.429 . S
C938 H962 0.950 . S
C939 C956 1.574 . S
C939 C958 1.368 . S
C939 H963 0.949 . S
H940 C944 0.949 . S
C941 C942 1.349 . S
C941 C943 1.327 . S
C941 H964 0.950 . S
C942 C941 1.349 . S
C942 C954 1.349 . S
C943 C941 1.327 . S
C943 C959 1.429 . S
C943 H965 0.950 . S
C944 H940 0.949 . S
C944 C952 1.574 . S
C944 C960 1.368 . S
H945 C953 0.950 . S
H946 C951 0.950 . S
H947 C952 0.949 . S
H948 C954 0.950 . S
H949 C955 0.950 . S
H950 C956 0.949 . S
C951 H946 0.950 . S
C951 C953 1.327 . S
C951 C957 1.429 . S
C952 C944 1.574 . S
C952 H947 0.949 . S
C952 C958 1.368 . S
C953 C937 1.349 . S
C953 H945 0.950 . S
C953 C951 1.327 . S
C954 C942 1.349 . S
C954 H948 0.950 . S
C954 C955 1.327 . S
C955 H949 0.950 . S
C955 C954 1.327 . S
C955 C959 1.429 . S
C956 C939 1.574 . S
C956 H950 0.949 . S
C956 C960 1.368 . S
C957 C938 1.429 . S
C957 C951 1.429 . S
C957 C958 1.523 . S
C958 C939 1.368 . S
C958 C952 1.368 . S
C958 C957 1.523 . S
C959 C943 1.429 . S
C959 C955 1.429 . S
C959 C960 1.523 . S
C960 C944 1.368 . S
C960 C956 1.368 . S
C960 C959 1.523 . S
H961 C936 0.950 . S
H962 C938 0.950 . S
H963 C939 0.949 . S
H964 C941 0.950 . S
H965 C943 0.950 . S
C966 C967 1.349 . S
C966 C968 1.327 . S
C966 H991 0.950 . S
C967 C966 1.349 . S
C967 C983 1.349 . S
C968 C966 1.327 . S
C968 C987 1.429 . S
C968 H992 0.950 . S
C969 C986 1.574 . S
C969 C988 1.368 . S
C969 H993 0.949 . S
H970 C974 0.949 . S
C971 C972 1.349 . S
C971 C973 1.327 . S
C971 H994 0.950 . S
C972 C971 1.349 . S
C972 C984 1.349 . S
C973 C971 1.327 . S
C973 C989 1.429 . S
C973 H995 0.950 . S
C974 H970 0.949 . S
C974 C982 1.574 . S
C974 C990 1.368 . S
H975 C983 0.950 . S
H976 C981 0.950 . S
H977 C982 0.949 . S
H978 C984 0.950 . S
H979 C985 0.950 . S
H980 C986 0.949 . S
C981 H976 0.950 . S
C981 C983 1.327 . S
C981 C987 1.429 . S
C982 C974 1.574 . S
C982 H977 0.949 . S
C982 C988 1.368 . S
C983 C967 1.349 . S
C983 H975 0.950 . S
C983 C981 1.327 . S
C984 C972 1.349 . S
C984 H978 0.950 . S
C984 C985 1.327 . S
C985 H979 0.950 . S
C985 C984 1.327 . S
C985 C989 1.429 . S
C986 C969 1.574 . S
C986 H980 0.949 . S
C986 C990 1.368 . S
C987 C968 1.429 . S
C987 C981 1.429 . S
C987 C988 1.523 . S
C988 C969 1.368 . S
C988 C982 1.368 . S
C988 C987 1.523 . S
C989 C973 1.429 . S
C989 C985 1.429 . S
C989 C990 1.523 . S
C990 C974 1.368 . S
C990 C986 1.368 . S
C990 C989 1.523 . S
H991 C966 0.950 . S
H992 C968 0.950 . S
H993 C969 0.949 . S
H994 C971 0.950 . S
H995 C973 0.950 . S
C996 C997 1.349 . S
C996 C998 1.327 . S
C996 H1021 0.950 . S
C997 C996 1.349 . S
C997 C1013 1.349 . S
C998 C996 1.327 . S
C998 C1017 1.429 . S
C998 H1022 0.950 . S
C999 C1016 1.574 . S
C999 C1018 1.368 . S
C999 H1023 0.949 . S
H1000 C1004 0.949 . S
C1001 C1002 1.349 . S
C1001 C1003 1.327 . S
C1001 H1024 0.950 . S
C1002 C1001 1.349 . S
C1002 C1014 1.349 . S
C1003 C1001 1.327 . S
C1003 C1019 1.429 . S
C1003 H1025 0.950 . S
C1004 H1000 0.949 . S
C1004 C1012 1.574 . S
C1004 C1020 1.368 . S
H1005 C1013 0.950 . S
H1006 C1011 0.950 . S
H1007 C1012 0.949 . S
H1008 C1014 0.950 . S
H1009 C1015 0.950 . S
H1010 C1016 0.949 . S
C1011 H1006 0.950 . S
C1011 C1013 1.327 . S
C1011 C1017 1.429 . S
C1012 C1004 1.574 . S
C1012 H1007 0.949 . S
C1012 C1018 1.368 . S
C1013 C997 1.349 . S
C1013 H1005 0.950 . S
C1013 C1011 1.327 . S
C1014 C1002 1.349 . S
C1014 H1008 0.950 . S
C1014 C1015 1.327 . S
C1015 H1009 0.950 . S
C1015 C1014 1.327 . S
C1015 C1019 1.429 . S
C1016 C999 1.574 . S
C1016 H1010 0.949 . S
C1016 C1020 1.368 . S
C1017 C998 1.429 . S
C1017 C1011 1.429 . S
C1017 C1018 1.523 . S
C1018 C999 1.368 . S
C1018 C1012 1.368 . S
C1018 C1017 1.523 . S
C1019 C1003 1.429 . S
C1019 C1015 1.429 . S
C1019 C1020 1.523 . S
C1020 C1004 1.368 . S
C1020 C1016 1.368 . S
C1020 C1019 1.523 . S
H1021 C996 0.950 . S
H1022 C998 0.950 . S
H1023 C999 0.949 . S
H1024 C1001 0.950 . S
H1025 C1003 0.950 . S
C1026 C1027 1.349 . S
C1026 C1028 1.327 . S
C1026 H1051 0.950 . S
C1027 C1026 1.349 . S
C1027 C1043 1.349 . S
C1028 C1026 1.327 . S
C1028 C1047 1.429 . S
C1028 H1052 0.950 . S
C1029 C1046 1.574 . S
C1029 C1048 1.368 . S
C1029 H1053 0.949 . S
H1030 C1034 0.949 . S
C1031 C1032 1.349 . S
C1031 C1033 1.327 . S
C1031 H1054 0.950 . S
C1032 C1031 1.349 . S
C1032 C1044 1.349 . S
C1033 C1031 1.327 . S
C1033 C1049 1.429 . S
C1033 H1055 0.950 . S
C1034 H1030 0.949 . S
C1034 C1042 1.574 . S
C1034 C1050 1.368 . S
H1035 C1043 0.950 . S
H1036 C1041 0.950 . S
H1037 C1042 0.949 . S
H1038 C1044 0.950 . S
H1039 C1045 0.950 . S
H1040 C1046 0.949 . S
C1041 H1036 0.950 . S
C1041 C1043 1.327 . S
C1041 C1047 1.429 . S
C1042 C1034 1.574 . S
C1042 H1037 0.949 . S
C1042 C1048 1.368 . S
C1043 C1027 1.349 . S
C1043 H1035 0.950 . S
C1043 C1041 1.327 . S
C1044 C1032 1.349 . S
C1044 H1038 0.950 . S
C1044 C1045 1.327 . S
C1045 H1039 0.950 . S
C1045 C1044 1.327 . S
C1045 C1049 1.429 . S
C1046 C1029 1.574 . S
C1046 H1040 0.949 . S
C1046 C1050 1.368 . S
C1047 C1028 1.429 . S
C1047 C1041 1.429 . S
C1047 C1048 1.523 . S
C1048 C1029 1.368 . S
C1048 C1042 1.368 . S
C1048 C1047 1.523 . S
C1049 C1033 1.429 . S
C1049 C1045 1.429 . S
C1049 C1050 1.523 . S
C1050 C1034 1.368 . S
C1050 C1046 1.368 . S
C1050 C1049 1.523 . S
H1051 C1026 0.950 . S
H1052 C1028 0.950 . S
H1053 C1029 0.949 . S
H1054 C1031 0.950 . S
H1055 C1033 0.950 . S
C1056 C1057 1.349 . S
C1056 C1058 1.327 . S
C1056 H1081 0.950 . S
C1057 C1056 1.349 . S
C1057 C1073 1.349 . S
C1058 C1056 1.327 . S
C1058 C1077 1.429 . S
C1058 H1082 0.950 . S
C1059 C1076 1.574 . S
C1059 C1078 1.368 . S
C1059 H1083 0.949 . S
H1060 C1064 0.949 . S
C1061 C1062 1.349 . S
C1061 C1063 1.327 . S
C1061 H1084 0.950 . S
C1062 C1061 1.349 . S
C1062 C1074 1.349 . S
C1063 C1061 1.327 . S
C1063 C1079 1.429 . S
C1063 H1085 0.950 . S
C1064 H1060 0.949 . S
C1064 C1072 1.574 . S
C1064 C1080 1.368 . S
H1065 C1073 0.950 . S
H1066 C1071 0.950 . S
H1067 C1072 0.949 . S
H1068 C1074 0.950 . S
H1069 C1075 0.950 . S
H1070 C1076 0.949 . S
C1071 H1066 0.950 . S
C1071 C1073 1.327 . S
C1071 C1077 1.429 . S
C1072 C1064 1.574 . S
C1072 H1067 0.949 . S
C1072 C1078 1.368 . S
C1073 C1057 1.349 . S
C1073 H1065 0.950 . S
C1073 C1071 1.327 . S
C1074 C1062 1.349 . S
C1074 H1068 0.950 . S
C1074 C1075 1.327 . S
C1075 H1069 0.950 . S
C1075 C1074 1.327 . S
C1075 C1079 1.429 . S
C1076 C1059 1.574 . S
C1076 H1070 0.949 . S
C1076 C1080 1.368 . S
C1077 C1058 1.429 . S
C1077 C1071 1.429 . S
C1077 C1078 1.523 . S
C1078 C1059 1.368 . S
C1078 C1072 1.368 . S
C1078 C1077 1.523 . S
C1079 C1063 1.429 . S
C1079 C1075 1.429 . S
C1079 C1080 1.523 . S
C1080 C1064 1.368 . S
C1080 C1076 1.368 . S
C1080 C1079 1.523 . S
H1081 C1056 0.950 . S
H1082 C1058 0.950 . S
H1083 C1059 0.949 . S
H1084 C1061 0.950 . S
H1085 C1063 0.950 . S
C1086 C1087 1.349 . S
C1086 C1088 1.327 . S
C1086 H1111 0.950 . S
C1087 C1086 1.349 . S
C1087 C1103 1.349 . S
C1088 C1086 1.327 . S
C1088 C1107 1.429 . S
C1088 H1112 0.950 . S
C1089 C1106 1.574 . S
C1089 C1108 1.368 . S
C1089 H1113 0.949 . S
H1090 C1094 0.949 . S
C1091 C1092 1.349 . S
C1091 C1093 1.327 . S
C1091 H1114 0.950 . S
C1092 C1091 1.349 . S
C1092 C1104 1.349 . S
C1093 C1091 1.327 . S
C1093 C1109 1.429 . S
C1093 H1115 0.950 . S
C1094 H1090 0.949 . S
C1094 C1102 1.574 . S
C1094 C1110 1.368 . S
H1095 C1103 0.950 . S
H1096 C1101 0.950 . S
H1097 C1102 0.949 . S
H1098 C1104 0.950 . S
H1099 C1105 0.950 . S
H1100 C1106 0.949 . S
C1101 H1096 0.950 . S
C1101 C1103 1.327 . S
C1101 C1107 1.429 . S
C1102 C1094 1.574 . S
C1102 H1097 0.949 . S
C1102 C1108 1.368 . S
C1103 C1087 1.349 . S
C1103 H1095 0.950 . S
C1103 C1101 1.327 . S
C1104 C1092 1.349 . S
C1104 H1098 0.950 . S
C1104 C1105 1.327 . S
C1105 H1099 0.950 . S
C1105 C1104 1.327 . S
C1105 C1109 1.429 . S
C1106 C1089 1.574 . S
C1106 H1100 0.949 . S
C1106 C1110 1.368 . S
C1107 C1088 1.429 . S
C1107 C1101 1.429 . S
C1107 C1108 1.523 . S
C1108 C1089 1.368 . S
C1108 C1102 1.368 . S
C1108 C1107 1.523 . S
C1109 C1093 1.429 . S
C1109 C1105 1.429 . S
C1109 C1110 1.523 . S
C1110 C1094 1.368 . S
C1110 C1106 1.368 . S
C1110 C1109 1.523 . S
H1111 C1086 0.950 . S
H1112 C1088 0.950 . S
H1113 C1089 0.949 . S
H1114 C1091 0.950 . S
H1115 C1093 0.950 . S
C1116 C1117 1.349 . S
C1116 C1118 1.327 . S
C1116 H1141 0.950 . S
C1117 C1116 1.349 . S
C1117 C1133 1.349 . S
C1118 C1116 1.327 . S
C1118 C1137 1.429 . S
C1118 H1142 0.950 . S
C1119 C1136 1.574 . S
C1119 C1138 1.368 . S
C1119 H1143 0.949 . S
H1120 C1124 0.949 . S
C1121 C1122 1.349 . S
C1121 C1123 1.327 . S
C1121 H1144 0.950 . S
C1122 C1121 1.349 . S
C1122 C1134 1.349 . S
C1123 C1121 1.327 . S
C1123 C1139 1.429 . S
C1123 H1145 0.950 . S
C1124 H1120 0.949 . S
C1124 C1132 1.574 . S
C1124 C1140 1.368 . S
H1125 C1133 0.950 . S
H1126 C1131 0.950 . S
H1127 C1132 0.949 . S
H1128 C1134 0.950 . S
H1129 C1135 0.950 . S
H1130 C1136 0.949 . S
C1131 H1126 0.950 . S
C1131 C1133 1.327 . S
C1131 C1137 1.429 . S
C1132 C1124 1.574 . S
C1132 H1127 0.949 . S
C1132 C1138 1.368 . S
C1133 C1117 1.349 . S
C1133 H1125 0.950 . S
C1133 C1131 1.327 . S
C1134 C1122 1.349 . S
C1134 H1128 0.950 . S
C1134 C1135 1.327 . S
C1135 H1129 0.950 . S
C1135 C1134 1.327 . S
C1135 C1139 1.429 . S
C1136 C1119 1.574 . S
C1136 H1130 0.949 . S
C1136 C1140 1.368 . S
C1137 C1118 1.429 . S
C1137 C1131 1.429 . S
C1137 C1138 1.523 . S
C1138 C1119 1.368 . S
C1138 C1132 1.368 . S
C1138 C1137 1.523 . S
C1139 C1123 1.429 . S
C1139 C1135 1.429 . S
C1139 C1140 1.523 . S
C1140 C1124 1.368 . S
C1140 C1136 1.368 . S
C1140 C1139 1.523 . S
H1141 C1116 0.950 . S
H1142 C1118 0.950 . S
H1143 C1119 0.949 . S
H1144 C1121 0.950 . S
H1145 C1123 0.950 . S
C1146 C1147 1.349 . S
C1146 C1148 1.327 . S
C1146 H1171 0.950 . S
C1147 C1146 1.349 . S
C1147 C1163 1.349 . S
C1148 C1146 1.327 . S
C1148 C1167 1.429 . S
C1148 H1172 0.950 . S
C1149 C1166 1.574 . S
C1149 C1168 1.368 . S
C1149 H1173 0.949 . S
H1150 C1154 0.949 . S
C1151 C1152 1.349 . S
C1151 C1153 1.327 . S
C1151 H1174 0.950 . S
C1152 C1151 1.349 . S
C1152 C1164 1.349 . S
C1153 C1151 1.327 . S
C1153 C1169 1.429 . S
C1153 H1175 0.950 . S
C1154 H1150 0.949 . S
C1154 C1162 1.574 . S
C1154 C1170 1.368 . S
H1155 C1163 0.950 . S
H1156 C1161 0.950 . S
H1157 C1162 0.949 . S
H1158 C1164 0.950 . S
H1159 C1165 0.950 . S
H1160 C1166 0.949 . S
C1161 H1156 0.950 . S
C1161 C1163 1.327 . S
C1161 C1167 1.429 . S
C1162 C1154 1.574 . S
C1162 H1157 0.949 . S
C1162 C1168 1.368 . S
C1163 C1147 1.349 . S
C1163 H1155 0.950 . S
C1163 C1161 1.327 . S
C1164 C1152 1.349 . S
C1164 H1158 0.950 . S
C1164 C1165 1.327 . S
C1165 H1159 0.950 . S
C1165 C1164 1.327 . S
C1165 C1169 1.429 . S
C1166 C1149 1.574 . S
C1166 H1160 0.949 . S
C1166 C1170 1.368 . S
C1167 C1148 1.429 . S
C1167 C1161 1.429 . S
C1167 C1168 1.523 . S
C1168 C1149 1.368 . S
C1168 C1162 1.368 . S
C1168 C1167 1.523 . S
C1169 C1153 1.429 . S
C1169 C1165 1.429 . S
C1169 C1170 1.523 . S
C1170 C1154 1.368 . S
C1170 C1166 1.368 . S
C1170 C1169 1.523 . S
H1171 C1146 0.950 . S
H1172 C1148 0.950 . S
H1173 C1149 0.949 . S
H1174 C1151 0.950 . S
H1175 C1153 0.950 . S
C1176 C1177 1.349 . S
C1176 C1178 1.327 . S
C1176 H1201 0.950 . S
C1177 C1176 1.349 . S
C1177 C1193 1.349 . S
C1178 C1176 1.327 . S
C1178 C1197 1.429 . S
C1178 H1202 0.950 . S
C1179 C1196 1.574 . S
C1179 C1198 1.368 . S
C1179 H1203 0.949 . S
H1180 C1184 0.949 . S
C1181 C1182 1.349 . S
C1181 C1183 1.327 . S
C1181 H1204 0.950 . S
C1182 C1181 1.349 . S
C1182 C1194 1.349 . S
C1183 C1181 1.327 . S
C1183 C1199 1.429 . S
C1183 H1205 0.950 . S
C1184 H1180 0.949 . S
C1184 C1192 1.574 . S
C1184 C1200 1.368 . S
H1185 C1193 0.950 . S
H1186 C1191 0.950 . S
H1187 C1192 0.949 . S
H1188 C1194 0.950 . S
H1189 C1195 0.950 . S
H1190 C1196 0.949 . S
C1191 H1186 0.950 . S
C1191 C1193 1.327 . S
C1191 C1197 1.429 . S
C1192 C1184 1.574 . S
C1192 H1187 0.949 . S
C1192 C1198 1.368 . S
C1193 C1177 1.349 . S
C1193 H1185 0.950 . S
C1193 C1191 1.327 . S
C1194 C1182 1.349 . S
C1194 H1188 0.950 . S
C1194 C1195 1.327 . S
C1195 H1189 0.950 . S
C1195 C1194 1.327 . S
C1195 C1199 1.429 . S
C1196 C1179 1.574 . S
C1196 H1190 0.949 . S
C1196 C1200 1.368 . S
C1197 C1178 1.429 . S
C1197 C1191 1.429 . S
C1197 C1198 1.523 . S
C1198 C1179 1.368 . S
C1198 C1192 1.368 . S
C1198 C1197 1.523 . S
C1199 C1183 1.429 . S
C1199 C1195 1.429 . S
C1199 C1200 1.523 . S
C1200 C1184 1.368 . S
C1200 C1196 1.368 . S
C1200 C1199 1.523 . S
H1201 C1176 0.950 . S
H1202 C1178 0.950 . S
H1203 C1179 0.949 . S
H1204 C1181 0.950 . S
H1205 C1183 0.950 . S
C1206 C1207 1.349 . S
C1206 C1208 1.327 . S
C1206 H1231 0.950 . S
C1207 C1206 1.349 . S
C1207 C1223 1.349 . S
C1208 C1206 1.327 . S
C1208 C1227 1.429 . S
C1208 H1232 0.950 . S
C1209 C1226 1.574 . S
C1209 C1228 1.368 . S
C1209 H1233 0.949 . S
H1210 C1214 0.949 . S
C1211 C1212 1.349 . S
C1211 C1213 1.327 . S
C1211 H1234 0.950 . S
C1212 C1211 1.349 . S
C1212 C1224 1.349 . S
C1213 C1211 1.327 . S
C1213 C1229 1.429 . S
C1213 H1235 0.950 . S
C1214 H1210 0.949 . S
C1214 C1222 1.574 . S
C1214 C1230 1.368 . S
H1215 C1223 0.950 . S
H1216 C1221 0.950 . S
H1217 C1222 0.949 . S
H1218 C1224 0.950 . S
H1219 C1225 0.950 . S
H1220 C1226 0.949 . S
C1221 H1216 0.950 . S
C1221 C1223 1.327 . S
C1221 C1227 1.429 . S
C1222 C1214 1.574 . S
C1222 H1217 0.949 . S
C1222 C1228 1.368 . S
C1223 C1207 1.349 . S
C1223 H1215 0.950 . S
C1223 C1221 1.327 . S
C1224 C1212 1.349 . S
C1224 H1218 0.950 . S
C1224 C1225 1.327 . S
C1225 H1219 0.950 . S
C1225 C1224 1.327 . S
C1225 C1229 1.429 . S
C1226 C1209 1.574 . S
C1226 H1220 0.949 . S
C1226 C1230 1.368 . S
C1227 C1208 1.429 . S
C1227 C1221 1.429 . S
C1227 C1228 1.523 . S
C1228 C1209 1.368 . S
C1228 C1222 1.368 . S
C1228 C1227 1.523 . S
C1229 C1213 1.429 . S
C1229 C1225 1.429 . S
C1229 C1230 1.523 . S
C1230 C1214 1.368 . S
C1230 C1226 1.368 . S
C1230 C1229 1.523 . S
H1231 C1206 0.950 . S
H1232 C1208 0.950 . S
H1233 C1209 0.949 . S
H1234 C1211 0.950 . S
H1235 C1213 0.950 . S
C1236 C1237 1.349 . S
C1236 C1238 1.327 . S
C1236 H1261 0.950 . S
C1237 C1236 1.349 . S
C1237 C1253 1.349 . S
C1238 C1236 1.327 . S
C1238 C1257 1.429 . S
C1238 H1262 0.950 . S
C1239 C1256 1.574 . S
C1239 C1258 1.368 . S
C1239 H1263 0.949 . S
H1240 C1244 0.949 . S
C1241 C1242 1.349 . S
C1241 C1243 1.327 . S
C1241 H1264 0.950 . S
C1242 C1241 1.349 . S
C1242 C1254 1.349 . S
C1243 C1241 1.327 . S
C1243 C1259 1.429 . S
C1243 H1265 0.950 . S
C1244 H1240 0.949 . S
C1244 C1252 1.574 . S
C1244 C1260 1.368 . S
H1245 C1253 0.950 . S
H1246 C1251 0.950 . S
H1247 C1252 0.949 . S
H1248 C1254 0.950 . S
H1249 C1255 0.950 . S
H1250 C1256 0.949 . S
C1251 H1246 0.950 . S
C1251 C1253 1.327 . S
C1251 C1257 1.429 . S
C1252 C1244 1.574 . S
C1252 H1247 0.949 . S
C1252 C1258 1.368 . S
C1253 C1237 1.349 . S
C1253 H1245 0.950 . S
C1253 C1251 1.327 . S
C1254 C1242 1.349 . S
C1254 H1248 0.950 . S
C1254 C1255 1.327 . S
C1255 H1249 0.950 . S
C1255 C1254 1.327 . S
C1255 C1259 1.429 . S
C1256 C1239 1.574 . S
C1256 H1250 0.949 . S
C1256 C1260 1.368 . S
C1257 C1238 1.429 . S
C1257 C1251 1.429 . S
C1257 C1258 1.523 . S
C1258 C1239 1.368 . S
C1258 C1252 1.368 . S
C1258 C1257 1.523 . S
C1259 C1243 1.429 . S
C1259 C1255 1.429 . S
C1259 C1260 1.523 . S
C1260 C1244 1.368 . S
C1260 C1256 1.368 . S
C1260 C1259 1.523 . S
H1261 C1236 0.950 . S
H1262 C1238 0.950 . S
H1263 C1239 0.949 . S
H1264 C1241 0.950 . S
H1265 C1243 0.950 . S
C1266 C1267 1.349 . S
C1266 C1268 1.327 . S
C1266 H1291 0.950 . S
C1267 C1266 1.349 . S
C1267 C1283 1.349 . S
C1268 C1266 1.327 . S
C1268 C1287 1.429 . S
C1268 H1292 0.950 . S
C1269 C1286 1.574 . S
C1269 C1288 1.368 . S
C1269 H1293 0.949 . S
H1270 C1274 0.949 . S
C1271 C1272 1.349 . S
C1271 C1273 1.327 . S
C1271 H1294 0.950 . S
C1272 C1271 1.349 . S
C1272 C1284 1.349 . S
C1273 C1271 1.327 . S
C1273 C1289 1.429 . S
C1273 H1295 0.950 . S
C1274 H1270 0.949 . S
C1274 C1282 1.574 . S
C1274 C1290 1.368 . S
H1275 C1283 0.950 . S
H1276 C1281 0.950 . S
H1277 C1282 0.949 . S
H1278 C1284 0.950 . S
H1279 C1285 0.950 . S
H1280 C1286 0.949 . S
C1281 H1276 0.950 . S
C1281 C1283 1.327 . S
C1281 C1287 1.429 . S
C1282 C1274 1.574 . S
C1282 H1277 0.949 . S
C1282 C1288 1.368 . S
C1283 C1267 1.349 . S
C1283 H1275 0.950 . S
C1283 C1281 1.327 . S
C1284 C1272 1.349 . S
C1284 H1278 0.950 . S
C1284 C1285 1.327 . S
C1285 H1279 0.950 . S
C1285 C1284 1.327 . S
C1285 C1289 1.429 . S
C1286 C1269 1.574 . S
C1286 H1280 0.949 . S
C1286 C1290 1.368 . S
C1287 C1268 1.429 . S
C1287 C1281 1.429 . S
C1287 C1288 1.523 . S
C1288 C1269 1.368 . S
C1288 C1282 1.368 . S
C1288 C1287 1.523 . S
C1289 C1273 1.429 . S
C1289 C1285 1.429 . S
C1289 C1290 1.523 . S
C1290 C1274 1.368 . S
C1290 C1286 1.368 . S
C1290 C1289 1.523 . S
H1291 C1266 0.950 . S
H1292 C1268 0.950 . S
H1293 C1269 0.949 . S
H1294 C1271 0.950 . S
H1295 C1273 0.950 . S
C397 C314 0.652 . S
C402 C17 0.652 . S
C427 C50 0.652 . S
C432 C347 0.652 . S
C457 C380 0.652 . S
C462 C83 0.652 . S
C487 C116 0.652 . S
C492 C215 0.652 . S
C517 C149 0.652 . S
C522 C248 0.652 . S
C547 C281 0.652 . S
C552 C182 0.652 . S
C577 N14 0.723 . S
C582 C140 0.696 . S
C607 C173 0.696 . S
C612 N47 0.723 . S
C637 N80 0.723 . S
C642 C8 0.697 . S
C667 N113 0.723 . S
C672 C41 0.696 . S
C697 C74 0.696 . S
C702 N146 0.723 . S
C727 C107 0.696 . S
C732 N179 0.723 . S
C757 C272 0.695 . S
C762 N212 0.723 . S
C787 N245 0.723 . S
C792 C305 0.696 . S
C817 C338 0.696 . S
C822 N278 0.723 . S
C847 C371 0.696 . S
C852 N311 0.723 . S
C877 C206 0.697 . S
C882 N344 0.723 . S
C907 N377 0.723 . S
C912 C239 0.696 . S
C937 C358 1.564 . S
C942 C28 1.564 . S
C967 C391 1.564 . S
C972 C61 1.564 . S
C997 C94 1.564 . S
C1002 C226 1.564 . S
C1027 C127 1.564 . S
C1032 C259 1.564 . S
C1057 C292 1.564 . S
C1062 C160 1.564 . S
C1087 C193 1.564 . S
C1092 C325 1.564 . S
C1117 N203 0.578 . S
C1122 N5 0.578 . S
C1147 N236 0.578 . S
C1152 N38 0.578 . S
C1177 N71 0.578 . S
C1182 N269 0.578 . S
C1207 N302 0.578 . S
C1212 N104 0.578 . S
C1237 N137 0.578 . S
C1242 N335 0.578 . S
C1267 N368 0.578 . S
C1272 N170 0.578 . S
