# Generated by pormake.
# Topology wme, (6)-cn, num edge types: 1
# Building blocks:
#     Node 0, Type 0, BuildingBlock: PAMTUU_clean_sbu_0, # of connection points: 6
#     Node 1, Type 0, BuildingBlock: PAMTUU_clean_sbu_0, # of connection points: 6
#     Node 2, Type 0, BuildingBlock: PAMTUU_clean_sbu_0, # of connection points: 6
#     Node 3, Type 0, BuildingBlock: PAMTUU_clean_sbu_0, # of connection points: 6
#     Node 4, Type 0, BuildingBlock: PAMTUU_clean_sbu_0, # of connection points: 6
#     Node 5, Type 0, BuildingBlock: PAMTUU_clean_sbu_0, # of connection points: 6
#     Node 6, Type 0, BuildingBlock: PAMTUU_clean_sbu_0, # of connection points: 6
#     Node 7, Type 0, BuildingBlock: PAMTUU_clean_sbu_0, # of connection points: 6
#     Node 8, Type 0, BuildingBlock: PAMTUU_clean_sbu_0, # of connection points: 6
#     Node 9, Type 0, BuildingBlock: PAMTUU_clean_sbu_0, # of connection points: 6
#     Node 10, Type 0, BuildingBlock: PAMTUU_clean_sbu_0, # of connection points: 6
#     Node 11, Type 0, BuildingBlock: PAMTUU_clean_sbu_0, # of connection points: 6
#     Edge 12, Type (0, 0), BuildingBlock: XUDNAN_clean_linker_2, # of connection points: 2
#     Edge 13, Type (0, 0), BuildingBlock: XUDNAN_clean_linker_2, # of connection points: 2
#     Edge 14, Type (0, 0), BuildingBlock: XUDNAN_clean_linker_2, # of connection points: 2
#     Edge 15, Type (0, 0), BuildingBlock: XUDNAN_clean_linker_2, # of connection points: 2
#     Edge 16, Type (0, 0), BuildingBlock: XUDNAN_clean_linker_2, # of connection points: 2
#     Edge 17, Type (0, 0), BuildingBlock: XUDNAN_clean_linker_2, # of connection points: 2
#     Edge 18, Type (0, 0), BuildingBlock: XUDNAN_clean_linker_2, # of connection points: 2
#     Edge 19, Type (0, 0), BuildingBlock: XUDNAN_clean_linker_2, # of connection points: 2
#     Edge 20, Type (0, 0), BuildingBlock: XUDNAN_clean_linker_2, # of connection points: 2
#     Edge 21, Type (0, 0), BuildingBlock: XUDNAN_clean_linker_2, # of connection points: 2
#     Edge 22, Type (0, 0), BuildingBlock: XUDNAN_clean_linker_2, # of connection points: 2
#     Edge 23, Type (0, 0), BuildingBlock: XUDNAN_clean_linker_2, # of connection points: 2
#     Edge 24, Type (0, 0), BuildingBlock: XUDNAN_clean_linker_2, # of connection points: 2
#     Edge 25, Type (0, 0), BuildingBlock: XUDNAN_clean_linker_2, # of connection points: 2
#     Edge 26, Type (0, 0), BuildingBlock: XUDNAN_clean_linker_2, # of connection points: 2
#     Edge 27, Type (0, 0), BuildingBlock: XUDNAN_clean_linker_2, # of connection points: 2
#     Edge 28, Type (0, 0), BuildingBlock: XUDNAN_clean_linker_2, # of connection points: 2
#     Edge 29, Type (0, 0), BuildingBlock: XUDNAN_clean_linker_2, # of connection points: 2
#     Edge 30, Type (0, 0), BuildingBlock: XUDNAN_clean_linker_2, # of connection points: 2
#     Edge 31, Type (0, 0), BuildingBlock: XUDNAN_clean_linker_2, # of connection points: 2
#     Edge 32, Type (0, 0), BuildingBlock: XUDNAN_clean_linker_2, # of connection points: 2
#     Edge 33, Type (0, 0), BuildingBlock: XUDNAN_clean_linker_2, # of connection points: 2
#     Edge 34, Type (0, 0), BuildingBlock: XUDNAN_clean_linker_2, # of connection points: 2
#     Edge 35, Type (0, 0), BuildingBlock: XUDNAN_clean_linker_2, # of connection points: 2
#     Edge 36, Type (0, 0), BuildingBlock: XUDNAN_clean_linker_2, # of connection points: 2
#     Edge 37, Type (0, 0), BuildingBlock: XUDNAN_clean_linker_2, # of connection points: 2
#     Edge 38, Type (0, 0), BuildingBlock: XUDNAN_clean_linker_2, # of connection points: 2
#     Edge 39, Type (0, 0), BuildingBlock: XUDNAN_clean_linker_2, # of connection points: 2
#     Edge 40, Type (0, 0), BuildingBlock: XUDNAN_clean_linker_2, # of connection points: 2
#     Edge 41, Type (0, 0), BuildingBlock: XUDNAN_clean_linker_2, # of connection points: 2
#     Edge 42, Type (0, 0), BuildingBlock: XUDNAN_clean_linker_2, # of connection points: 2
#     Edge 43, Type (0, 0), BuildingBlock: XUDNAN_clean_linker_2, # of connection points: 2
#     Edge 44, Type (0, 0), BuildingBlock: XUDNAN_clean_linker_2, # of connection points: 2
#     Edge 45, Type (0, 0), BuildingBlock: XUDNAN_clean_linker_2, # of connection points: 2
#     Edge 46, Type (0, 0), BuildingBlock: XUDNAN_clean_linker_2, # of connection points: 2
#     Edge 47, Type (0, 0), BuildingBlock: XUDNAN_clean_linker_2, # of connection points: 2
# Relax obj value: 0.088
# Max RMSD: 0.202
# Mean RMSD: 0.202
data_MOF--net-wme--node1-PAMTUU_clean_sbu_0--edge1-XUDNAN_clean_linker_2
_symmetry_space_group_name_H-M    P1
_symmetry_Int_Tables_number       1
_symmetry_cell_setting            triclinic
loop_
_symmetry_equiv_pos_as_xyz
'x, y, z'
_cell_length_a     39.785244
_cell_length_b     39.932702
_cell_length_c     52.691555
_cell_angle_alpha  89.7777
_cell_angle_beta   90.04417
_cell_angle_gamma 119.88308
loop_
_atom_site_label
_atom_site_type_symbol
_atom_site_fract_x
_atom_site_fract_y
_atom_site_fract_z
_atom_type_partial_charge
Tb0 Tb 0.25553 0.31729 0.13144 0.0
Tb1 Tb 0.21524 0.3681 0.1122 0.0
C2 C 0.22549 0.35604 0.16952 0.0
C3 C 0.2656 0.23061 0.14347 0.0
C4 C 0.23294 0.14924 0.14513 0.0
C5 C 0.23513 0.17003 0.16719 0.0
C6 C 0.25134 0.21022 0.16638 0.0
C7 C 0.2641 0.20991 0.12152 0.0
C8 C 0.24788 0.16976 0.12233 0.0
C9 C 0.28212 0.27317 0.14239 0.0
O10 O 0.19761 0.27556 0.11824 0.0
O11 O 0.16846 0.312 0.12424 0.0
O12 O 0.21764 0.33437 0.08045 0.0
O13 O 0.27417 0.33989 0.09362 0.0
O14 O 0.16805 0.37744 0.11362 0.0
O15 O 0.21557 0.41053 0.08792 0.0
O16 O 0.2775 0.40843 0.11312 0.0
O17 O 0.2997 0.37685 0.13925 0.0
O18 O 0.22534 0.32405 0.16358 0.0
O19 O 0.22886 0.38128 0.15217 0.0
C20 C 0.16633 0.27839 0.12118 0.0
O21 O 0.28438 0.28802 0.11999 0.0
O22 O 0.27032 0.2888 0.15931 0.0
C23 C 0.24872 0.33198 0.0757 0.0
C24 C 0.18097 0.44097 0.10393 0.0
C25 C 0.16673 0.50303 0.11129 0.0
C26 C 0.14948 0.4704 0.12722 0.0
C27 C 0.15646 0.43977 0.12359 0.0
C28 C 0.1995 0.4743 0.08864 0.0
C29 C 0.19266 0.50515 0.09239 0.0
C30 C 0.18331 0.40602 0.09749 0.0
C31 C 0.30461 0.40822 0.12745 0.0
H32 H 0.22456 0.15527 0.18519 0.0
H33 H 0.25256 0.22529 0.18371 0.0
H34 H 0.27514 0.22465 0.10356 0.0
H35 H 0.24638 0.15475 0.10492 0.0
H36 H 0.12977 0.46814 0.14217 0.0
H37 H 0.14148 0.41457 0.1357 0.0
H38 H 0.21817 0.47593 0.07316 0.0
H39 H 0.2062 0.52983 0.07972 0.0
Tb40 Tb 0.95358 0.23445 0.64401 0.0
Tb41 Tb 0.87502 0.21909 0.6121 0.0
C42 C 0.87855 0.22125 0.67216 0.0
C43 C 0.04494 0.23598 0.65814 0.0
C44 C 0.10341 0.21989 0.64253 0.0
C45 C 0.1025 0.23159 0.66759 0.0
C46 C 0.07352 0.23965 0.6753 0.0
C47 C 0.04533 0.22366 0.63332 0.0
C48 C 0.07425 0.21578 0.62556 0.0
C49 C 1.0145 0.2446 0.66599 0.0
O50 O 0.92507 0.17538 0.62949 0.0
O51 O 0.86334 0.1654 0.63007 0.0
O52 O 0.91313 0.21618 0.58316 0.0
O53 O 0.97139 0.24503 0.6049 0.0
O54 O 0.82668 0.18346 0.58929 0.0
O55 O 0.83848 0.24019 0.60078 0.0
O56 O 0.91977 0.2788 0.6081 0.0
O57 O 0.94682 0.28572 0.64709 0.0
O58 O 0.90819 0.21541 0.67207 0.0
O59 O 0.86545 0.22961 0.65153 0.0
C60 C 0.88739 0.15189 0.63062 0.0
O61 O 1.01236 0.27116 0.65276 0.0
O62 O 0.98031 0.21461 0.66971 0.0
C63 C 0.95111 0.23132 0.58411 0.0
C64 C 0.77226 0.19193 0.5961 0.0
C65 C 0.69246 0.16448 0.60496 0.0
C66 C 0.70451 0.15 0.58475 0.0
C67 C 0.74396 0.1637 0.58033 0.0
C68 C 0.76029 0.20583 0.61669 0.0
C69 C 0.72083 0.19234 0.621 0.0
C70 C 0.81383 0.20781 0.58993 0.0
C71 C 0.93648 0.3001 0.62803 0.0
H72 H 0.12466 0.23534 0.68108 0.0
H73 H 0.07359 0.24897 0.69459 0.0
H74 H 1.02325 0.22028 0.61993 0.0
H75 H 0.07366 0.20627 0.60625 0.0
H76 H 0.68348 0.12886 0.57187 0.0
H77 H 0.75242 0.15269 0.56427 0.0
H78 H 0.78137 0.22749 0.62929 0.0
H79 H 0.71252 0.20375 0.63691 0.0
Tb80 Tb 0.72047 0.93884 0.13244 0.0
Tb81 Tb 0.66591 0.84974 0.11071 0.0
C82 C 0.67086 0.86988 0.16958 0.0
C83 C 0.80931 0.03278 0.1402 0.0
C84 C 0.89028 0.07899 0.13308 0.0
C85 C 0.87064 0.08975 0.15059 0.0
C86 C 0.83053 0.06683 0.1541 0.0
C87 C 0.82861 0.02198 0.12258 0.0
C88 C 0.86865 0.0449 0.119 0.0
C89 C 0.76748 1.00774 0.14485 0.0
O90 O 0.75204 0.90852 0.13881 0.0
O91 O 0.72653 0.86458 0.1066 0.0
O92 O 0.67659 0.89101 0.08009 0.0
O93 O 0.73645 0.93543 0.09369 0.0
O94 O 0.65909 0.79446 0.10622 0.0
O95 O 0.61844 0.80881 0.08935 0.0
O96 O 0.62495 0.86597 0.12505 0.0
O97 O 0.66375 0.93237 0.12386 0.0
O98 O 0.68586 0.90697 0.16481 0.0
O99 O 0.66563 0.84427 0.152 0.0
C100 C 0.75411 0.88418 0.1232 0.0
O101 O 0.74518 0.99822 0.1249 0.0
O102 O 0.7582 0.97805 0.15953 0.0
C103 C 0.71029 0.92192 0.07585 0.0
C104 C 0.59451 0.74315 0.1023 0.0
C105 C 0.53454 0.66829 0.116 0.0
C106 C 0.52714 0.69921 0.11398 0.0
C107 C 0.55685 0.73632 0.10726 0.0
C108 C 0.60179 0.71227 0.10427 0.0
C109 C 0.57228 0.67538 0.11111 0.0
C110 C 0.62641 0.78143 0.09409 0.0
C111 C 0.62933 0.90088 0.12505 0.0
H112 H 0.88636 0.11545 0.16203 0.0
H113 H 0.81618 0.07543 0.16794 0.0
H114 H 0.81272 0.99564 0.11173 0.0
H115 H 0.88262 0.03595 0.10511 0.0
H116 H 0.49845 0.69477 0.11778 0.0
H117 H 0.55025 0.75951 0.10585 0.0
H118 H 0.63041 0.71661 0.10027 0.0
H119 H 0.57889 0.65217 0.11205 0.0
Tb120 Tb 0.81698 0.71647 0.62939 0.0
Tb121 Tb 0.85337 0.66215 0.60835 0.0
C122 C 0.84876 0.67844 0.66566 0.0
C123 C 0.80454 0.80147 0.64605 0.0
C124 C 0.82072 0.87894 0.64808 0.0
C125 C 0.79494 0.85116 0.6655 0.0
C126 C 0.78686 0.81287 0.66442 0.0
C127 C 0.83214 0.82953 0.6296 0.0
C128 C 0.84017 0.86792 0.63062 0.0
C129 C 0.79063 0.75985 0.64265 0.0
O130 O 0.87356 0.75744 0.61378 0.0
O131 O 0.90234 0.71947 0.61441 0.0
O132 O 0.84794 0.69442 0.57637 0.0
O133 O 0.79428 0.69252 0.59252 0.0
O134 O 0.89817 0.64921 0.61075 0.0
O135 O 0.85137 0.61908 0.5841 0.0
O136 O 0.79105 0.62412 0.61054 0.0
O137 O 0.77265 0.657 0.63826 0.0
O138 O 0.85226 0.71164 0.6589 0.0
O139 O 0.8417 0.65152 0.64886 0.0
C140 C 0.90416 0.75311 0.61239 0.0
O141 O 0.79051 0.74862 0.61946 0.0
O142 O 0.80243 0.743 0.65874 0.0
C143 C 0.81743 0.69862 0.57338 0.0
C144 C 0.88287 0.58571 0.60029 0.0
C145 C 0.89428 0.5231 0.61339 0.0
C146 C 0.90192 0.53854 0.58862 0.0
C147 C 0.89632 0.56948 0.58219 0.0
C148 C 0.87384 0.56963 0.6248 0.0
C149 C 0.87949 0.53864 0.63128 0.0
C150 C 0.88277 0.62179 0.59394 0.0
C151 C 0.76569 0.62532 0.62605 0.0
H152 H 0.78007 0.85878 0.67955 0.0
H153 H 0.76562 0.79179 0.67734 0.0
H154 H 0.84629 0.82147 0.61527 0.0
H155 H 0.86008 0.88846 0.61688 0.0
H156 H 0.91373 0.52776 0.57439 0.0
H157 H 0.90383 0.58166 0.56325 0.0
H158 H 0.86349 0.58172 0.63912 0.0
H159 H 0.87268 0.52716 0.65041 0.0
Tb160 Tb 0.09682 0.78316 0.13309 0.0
Tb161 Tb 0.18764 0.82319 0.11361 0.0
C162 C 0.16322 0.79835 0.1709 0.0
C163 C 0.99893 0.7714 0.14173 0.0
C164 C 0.95038 0.80408 0.13694 0.0
C165 C 0.96709 0.80398 0.16043 0.0
C166 C 0.99087 0.78765 0.16282 0.0
C167 C 0.98128 0.77045 0.11833 0.0
C168 C 0.95713 0.78653 0.116 0.0
C169 C 1.02634 0.75653 0.14432 0.0
O170 O 0.12512 0.84369 0.14357 0.0
O171 O 0.17079 0.86746 0.1121 0.0
O172 O 0.14869 0.79683 0.08134 0.0
O173 O 0.102 0.80836 0.09597 0.0
O174 O 0.24284 0.87283 0.1121 0.0
O175 O 0.23067 0.82157 0.09132 0.0
O176 O 0.17232 0.76469 0.12415 0.0
O177 O 0.10596 0.73637 0.12004 0.0
O178 O 0.12737 0.77438 0.16398 0.0
O179 O 0.18926 0.82392 0.15518 0.0
C180 C 0.15052 0.87267 0.12973 0.0
O181 O 0.03811 0.74809 0.12345 0.0
O182 O 0.0548 0.77473 0.16032 0.0
C183 C 0.11728 0.79899 0.07739 0.0
C184 C 0.29603 0.86357 0.10392 0.0
C185 C 0.37235 0.87993 0.11472 0.0
C186 C 0.36565 0.90626 0.10092 0.0
C187 C 0.32797 0.89816 0.09562 0.0
C188 C 0.30227 0.83694 0.11766 0.0
C189 C 0.3402 0.84502 0.12295 0.0
C190 C 0.25694 0.85652 0.09757 0.0
C191 C 0.13784 0.73397 0.12144 0.0
H192 H 0.9619 0.81673 0.177 0.0
H193 H 1.00352 0.78835 0.18117 0.0
H194 H 0.98661 0.75792 0.10169 0.0
H195 H 0.9447 0.78629 0.09765 0.0
H196 H 0.38962 0.93306 0.09386 0.0
H197 H 0.32376 0.91898 0.08487 0.0
H198 H 0.27794 0.81005 0.12429 0.0
H199 H 0.34435 0.82423 0.13375 0.0
Tb200 Tb 0.34225 0.10241 0.62878 0.0
Tb201 Tb 0.39965 0.18939 0.60631 0.0
C202 C 0.39315 0.16994 0.66486 0.0
C203 C 0.25246 1.00874 0.63582 0.0
C204 C 0.17457 0.95787 0.62228 0.0
C205 C 0.18799 0.95682 0.64683 0.0
C206 C 0.22664 0.982 0.65351 0.0
C207 C 0.23898 1.01044 0.61146 0.0
C208 C 0.20047 0.98514 0.60473 0.0
C209 C 0.29316 0.03501 0.64294 0.0
O210 O 0.31277 0.13602 0.63247 0.0
O211 O 0.34041 0.17439 0.59795 0.0
O212 O 0.3891 0.1479 0.57601 0.0
O213 O 0.32856 0.10288 0.5891 0.0
O214 O 0.40761 0.245 0.60109 0.0
O215 O 0.44898 0.23013 0.58618 0.0
O216 O 0.43868 0.17139 0.62148 0.0
O217 O 0.39774 0.10557 0.61977 0.0
O218 O 0.38022 0.13338 0.65993 0.0
O219 O 0.39474 0.19441 0.6474 0.0
C220 C 0.31255 0.15919 0.61482 0.0
O221 O 0.31887 0.04259 0.62521 0.0
O222 O 0.29986 0.06606 0.65516 0.0
C223 C 0.35552 0.11679 0.57166 0.0
C224 C 0.47281 0.29533 0.59952 0.0
C225 C 0.53251 0.3688 0.6152 0.0
C226 C 0.53942 0.3376 0.61311 0.0
C227 C 0.50984 0.30117 0.60541 0.0
C228 C 0.46593 0.32644 0.60173 0.0
C229 C 0.49534 0.36268 0.60958 0.0
C230 C 0.44125 0.25781 0.59024 0.0
C231 C 0.43295 0.13604 0.62088 0.0
H232 H 0.16887 0.9359 0.66069 0.0
H233 H 0.23645 0.98041 0.67242 0.0
H234 H 0.25826 0.03119 0.59756 0.0
H235 H 0.19094 0.987 0.58577 0.0
H236 H 0.56769 0.34133 0.61749 0.0
H237 H 0.51609 0.27777 0.6039 0.0
H238 H 0.43777 0.32282 0.59709 0.0
H239 H 0.48921 0.3862 0.61059 0.0
Tb240 Tb 0.73421 0.80463 0.37752 0.0
Tb241 Tb 0.67127 0.82049 0.40932 0.0
C242 C 0.6744 0.82072 0.34926 0.0
C243 C 0.82351 0.80005 0.36363 0.0
C244 C 0.89698 0.81194 0.37907 0.0
C245 C 0.86418 0.77472 0.37928 0.0
C246 C 0.82798 0.76884 0.37156 0.0
C247 C 0.85642 0.83726 0.36308 0.0
C248 C 0.89272 0.8431 0.37067 0.0
C249 C 0.7846 0.79341 0.35618 0.0
O250 O 0.76542 0.86325 0.39264 0.0
O251 O 0.71443 0.87448 0.39227 0.0
O252 O 0.71168 0.82234 0.4385 0.0
O253 O 0.74029 0.79291 0.41654 0.0
O254 O 0.65759 0.85622 0.43114 0.0
O255 O 0.61348 0.79876 0.42063 0.0
O256 O 0.65547 0.76047 0.41275 0.0
O257 O 0.67594 0.75404 0.37377 0.0
O258 O 0.70951 0.82562 0.34954 0.0
O259 O 0.65235 0.81157 0.36963 0.0
C260 C 0.75188 0.88728 0.39171 0.0
O261 O 0.75508 0.76688 0.36884 0.0
O262 O 0.78116 0.82384 0.35226 0.0
C263 C 0.734 0.80659 0.43741 0.0
C264 C 0.5943 0.84559 0.42308 0.0
C265 C 0.53892 0.86612 0.40709 0.0
C266 C 0.53772 0.85204 0.43182 0.0
C267 C 0.56509 0.84184 0.43969 0.0
C268 C 0.59636 0.86054 0.39863 0.0
C269 C 0.56901 0.87079 0.39073 0.0
C270 C 0.62053 0.83125 0.43089 0.0
C271 C 0.65112 0.73943 0.39272 0.0
H272 H 0.86653 0.74998 0.38523 0.0
H273 H 0.80335 0.73978 0.37192 0.0
H274 H 0.85418 0.86201 0.35699 0.0
H275 H 0.91733 0.87217 0.37042 0.0
H276 H 0.51476 0.84751 0.44484 0.0
H277 H 0.56282 0.83006 0.45857 0.0
H278 H 0.61865 0.86356 0.38548 0.0
H279 H 0.57122 0.88199 0.37168 0.0
Tb280 Tb 0.93651 0.72031 0.88619 0.0
Tb281 Tb 0.84842 0.66179 0.90916 0.0
C282 C 0.86466 0.67863 0.85025 0.0
C283 C 0.03642 0.80506 0.87251 0.0
C284 C 0.10029 0.88057 0.87706 0.0
C285 C 0.10038 0.85478 0.85898 0.0
C286 C 0.06882 0.81749 0.85677 0.0
C287 C 0.03552 0.83079 0.89025 0.0
C288 C 0.06726 0.86841 0.89246 0.0
C289 C 1.00434 0.76513 0.86984 0.0
O290 O 0.90672 0.75361 0.88782 0.0
O291 O 0.86453 0.72021 0.92015 0.0
O292 O 0.8922 0.66908 0.93736 0.0
O293 O 0.93765 0.73066 0.92642 0.0
O294 O 0.79252 0.65199 0.91701 0.0
O295 O 0.80989 0.61109 0.929 0.0
O296 O 0.86327 0.6255 0.88728 0.0
O297 O 0.92961 0.66235 0.89077 0.0
O298 O 0.90169 0.69113 0.8536 0.0
O299 O 0.84002 0.67053 0.86914 0.0
C300 C 0.88246 0.75099 0.90568 0.0
O301 O 0.99658 0.74227 0.88938 0.0
O302 O 0.97295 0.76063 0.85897 0.0
C303 C 0.92317 0.70225 0.94281 0.0
C304 C 0.74347 0.58662 0.91933 0.0
C305 C 0.66883 0.52774 0.90447 0.0
C306 C 0.69967 0.5439 0.88688 0.0
C307 C 0.73669 0.5731 0.89425 0.0
C308 C 0.71299 0.5705 0.93691 0.0
C309 C 0.6761 0.54143 0.92959 0.0
C310 C 0.78146 0.61844 0.92746 0.0
C311 C 0.89782 0.62912 0.88648 0.0
H312 H 0.12503 0.86342 0.84652 0.0
H313 H 0.06987 0.79816 0.84281 0.0
H314 H 1.01056 0.82166 0.9025 0.0
H315 H 0.0664 0.88756 0.90661 0.0
H316 H 0.6953 0.53382 0.86746 0.0
H317 H 0.75991 0.58528 0.88038 0.0
H318 H 0.7176 0.58078 0.9563 0.0
H319 H 0.65306 0.53023 0.94357 0.0
Tb320 Tb 0.25126 0.92498 0.38429 0.0
Tb321 Tb 0.22525 0.84059 0.4102 0.0
C322 C 0.22421 0.85214 0.35054 0.0
C323 C 0.25581 0.01865 0.37646 0.0
C324 C 0.23123 0.07084 0.3915 0.0
C325 C 0.24372 0.0712 0.36646 0.0
C326 C 0.25597 0.04534 0.35903 0.0
C327 C 0.24259 1.01766 0.40131 0.0
C328 C 0.23058 0.04359 0.40879 0.0
C329 C 0.26872 0.99149 0.36857 0.0
O330 O 0.18804 0.8924 0.38483 0.0
O331 O 0.18025 0.85439 0.41934 0.0
O332 O 0.26037 0.88598 0.43749 0.0
O333 O 0.24098 0.92788 0.42427 0.0
O334 O 0.18052 0.78503 0.41957 0.0
O335 O 0.23937 0.80422 0.43111 0.0
O336 O 0.27739 0.85546 0.389 0.0
O337 O 0.30425 0.92147 0.38998 0.0
O338 O 0.24856 0.88936 0.35268 0.0
O339 O 0.20736 0.82983 0.37044 0.0
C340 C 0.1663 0.8694 0.40313 0.0
O341 O 0.28905 0.98488 0.3852 0.0
O342 O 0.24238 0.95968 0.35803 0.0
C343 C 0.25682 0.91652 0.44143 0.0
C344 C 0.19964 0.73798 0.42163 0.0
C345 C 0.18734 0.66479 0.4069 0.0
C346 C 0.19117 0.67515 0.43269 0.0
C347 C 0.19722 0.71137 0.43995 0.0
C348 C 0.19641 0.72814 0.39583 0.0
C349 C 0.19018 0.69179 0.38853 0.0
C350 C 0.2041 0.77515 0.42988 0.0
C351 C 0.30747 0.89033 0.38757 0.0
H352 H 0.24491 0.09207 0.35278 0.0
H353 H 0.26583 0.04637 0.33974 0.0
H354 H 0.24173 0.99696 0.41502 0.0
H355 H 0.22069 0.04224 0.42811 0.0
H356 H 0.18863 0.65491 0.44734 0.0
H357 H 0.19948 0.71841 0.45995 0.0
H358 H 0.19833 0.74841 0.38139 0.0
H359 H 0.18779 0.68489 0.36852 0.0
Tb360 Tb 0.32385 0.23762 0.87208 0.0
Tb361 Tb 0.38645 0.21968 0.90271 0.0
C362 C 0.38517 0.22458 0.84222 0.0
C363 C 0.23529 0.24286 0.85996 0.0
C364 C 0.16195 0.22939 0.87628 0.0
C365 C 0.17236 0.23595 0.85044 0.0
C366 C 0.20876 0.24265 0.84237 0.0
C367 C 0.22489 0.23591 0.88567 0.0
C368 C 0.18863 0.22925 0.89377 0.0
C369 C 0.27354 0.24985 0.85153 0.0
O370 O 0.29287 0.17774 0.88573 0.0
O371 O 0.34413 0.16704 0.88445 0.0
O372 O 0.34495 0.21503 0.9317 0.0
O373 O 0.31887 0.24833 0.91149 0.0
O374 O 0.44393 0.24003 0.91385 0.0
O375 O 0.39853 0.18326 0.92532 0.0
O376 O 0.40282 0.27972 0.90699 0.0
O377 O 0.38197 0.28829 0.86864 0.0
O378 O 0.35145 0.2231 0.84236 0.0
O379 O 0.40493 0.22737 0.86299 0.0
C380 C 0.30668 0.15392 0.8847 0.0
O381 O 0.30317 0.27574 0.86432 0.0
O382 O 0.27617 0.21903 0.84753 0.0
C383 C 0.32382 0.23202 0.93164 0.0
C384 C 0.46107 0.19125 0.91814 0.0
C385 C 0.51335 0.16412 0.90872 0.0
C386 C 0.4886 0.15096 0.92995 0.0
C387 C 0.46286 0.16454 0.93465 0.0
C388 C 0.48492 0.20356 0.89647 0.0
C389 C 0.51092 0.19027 0.89189 0.0
C390 C 0.4358 0.20735 0.92461 0.0
C391 C 0.40702 0.30175 0.88743 0.0
H392 H 0.15267 0.23664 0.83651 0.0
H393 H 0.21626 0.24787 0.82242 0.0
H394 H 0.24494 0.23576 0.89948 0.0
H395 H 0.18142 0.22374 0.91374 0.0
H396 H 0.49002 0.13112 0.94339 0.0
H397 H 0.44486 0.15474 0.95151 0.0
H398 H 0.48398 0.22395 0.88327 0.0
H399 H 0.52929 0.20058 0.87522 0.0
Tb400 Tb 0.12301 0.31737 0.38825 0.0
Tb401 Tb 0.21216 0.37024 0.41192 0.0
C402 C 0.19592 0.35571 0.35403 0.0
C403 C 1.02514 0.23421 0.37057 0.0
C404 C 0.96231 0.15752 0.37064 0.0
C405 C 0.96463 0.18451 0.35243 0.0
C406 C 0.99565 0.22244 0.35246 0.0
C407 C 1.02423 0.20689 0.38791 0.0
C408 C 0.99307 0.16884 0.38792 0.0
C409 C 0.05416 0.27565 0.37258 0.0
O410 O 0.13685 0.27514 0.40392 0.0
O411 O 0.20361 0.31282 0.40597 0.0
O412 O 0.17335 0.33675 0.443 0.0
O413 O 0.12114 0.33739 0.42603 0.0
O414 O 0.26985 0.3827 0.4116 0.0
O415 O 0.25185 0.41345 0.43668 0.0
O416 O 0.18707 0.40758 0.41008 0.0
O417 O 0.13986 0.37727 0.3795 0.0
O418 O 0.16463 0.32303 0.35963 0.0
O419 O 0.21463 0.38201 0.3714 0.0
C420 C 0.17154 0.27919 0.40659 0.0
O421 O 0.06336 0.28925 0.39549 0.0
O422 O 0.08449 0.28915 0.35788 0.0
C423 C 0.13818 0.33158 0.44537 0.0
C424 C 0.31693 0.44685 0.42126 0.0
C425 C 0.39007 0.51042 0.40789 0.0
C426 C 0.3601 0.49326 0.38981 0.0
C427 C 0.32389 0.46182 0.39644 0.0
C428 C 0.34625 0.46459 0.43949 0.0
C429 C 0.38238 0.49605 0.43293 0.0
C430 C 0.28106 0.41072 0.42789 0.0
C431 C 0.16273 0.40786 0.39325 0.0
H432 H 0.94185 0.17659 0.33852 0.0
H433 H 0.99587 0.24299 0.33887 0.0
H434 H 0.04677 0.21535 0.40206 0.0
H435 H 0.99216 0.14887 0.40224 0.0
H436 H 0.36473 0.50389 0.37046 0.0
H437 H 0.30167 0.44858 0.38202 0.0
H438 H 0.34161 0.45332 0.45869 0.0
H439 H 0.40475 0.50817 0.4473 0.0
Tb440 Tb 0.80716 0.11164 0.88904 0.0
Tb441 Tb 0.83295 0.19783 0.91198 0.0
C442 C 0.82645 0.1809 0.85277 0.0
C443 C 0.80151 1.01669 0.88172 0.0
C444 C 0.82379 0.96203 0.895 0.0
C445 C 0.80874 0.96161 0.87075 0.0
C446 C 0.79765 0.98869 0.8642 0.0
C447 C 0.81723 1.01775 0.90577 0.0
C448 C 0.82814 0.99057 0.91239 0.0
C449 C 0.78881 0.04436 0.87477 0.0
O450 O 0.87011 0.14587 0.88641 0.0
O451 O 0.87965 0.18596 0.91978 0.0
O452 O 0.802 0.15418 0.94149 0.0
O453 O 0.82174 0.11242 0.92859 0.0
O454 O 0.87807 0.25398 0.91915 0.0
O455 O 0.82001 0.23557 0.93212 0.0
O456 O 0.77728 0.17878 0.89439 0.0
O457 O 0.75398 0.11341 0.89707 0.0
O458 O 0.80431 0.14372 0.85696 0.0
O459 O 0.84462 0.20589 0.87113 0.0
C460 C 0.89293 0.17056 0.90351 0.0
O461 O 0.77044 0.0518 0.89235 0.0
O462 O 0.81436 0.07566 0.86317 0.0
C463 C 0.80676 0.12437 0.94592 0.0
C464 C 0.85912 0.30122 0.92021 0.0
C465 C 0.87054 0.37348 0.9033 0.0
C466 C 0.86513 0.36364 0.92926 0.0
C467 C 0.85955 0.3279 0.9376 0.0
C468 C 0.86405 0.3106 0.89427 0.0
C469 C 0.86983 0.34641 0.88591 0.0
C470 C 0.85514 0.26457 0.92954 0.0
C471 C 0.74828 0.14313 0.89486 0.0
H472 H 0.80462 0.93975 0.85704 0.0
H473 H 0.78564 0.98751 0.84554 0.0
H474 H 0.82077 0.03939 0.91952 0.0
H475 H 0.84004 0.99194 0.9311 0.0
H476 H 0.86475 0.38336 0.94315 0.0
H477 H 0.85576 0.32115 0.9577 0.0
H478 H 0.86391 0.29044 0.88052 0.0
H479 H 0.87432 0.35306 0.86584 0.0
H480 H 0.20757 0.94242 0.11053 0.0
H481 H 0.10595 0.89153 0.1593 0.0
H482 H 0.11568 0.95633 0.1681 0.0
H483 H 0.26455 0.02575 0.14889 0.0
H484 H 0.28657 0.05807 0.12236 0.0
H485 H 0.27106 1.00754 0.11914 0.0
H486 H 0.22852 1.00298 0.08059 0.0
H487 H 0.24395 0.05353 0.08367 0.0
H488 H 0.19302 1.01818 0.08396 0.0
H489 H 0.13671 0.02662 0.1722 0.0
H490 H 0.16751 0.09765 0.17106 0.0
H491 H 0.25641 0.10341 0.1205 0.0
C492 C 0.18718 0.94486 0.1229 0.0
C493 C 0.15594 0.91175 0.13417 0.0
C494 C 0.13015 0.91634 0.15045 0.0
C495 C 0.13539 0.95308 0.15556 0.0
C496 C 0.16661 0.98508 0.14433 0.0
C497 C 0.19208 0.9814 0.12833 0.0
C498 C 0.22368 0.02061 0.11912 0.0
C499 C 0.26384 0.02844 0.12791 0.0
C500 C 0.22218 0.02401 0.09011 0.0
C501 C 0.21198 0.04684 0.13247 0.0
C502 C 0.17896 0.02572 0.14689 0.0
C503 C 0.16267 0.04349 0.16103 0.0
C504 C 0.18057 0.08391 0.1604 0.0
C505 C 0.21453 0.1063 0.14579 0.0
C506 C 0.23029 0.08725 0.13166 0.0
H507 H 0.25704 0.14532 0.6512 0.0
H508 H 0.29751 0.19617 0.57658 0.0
H509 H 0.24783 0.21577 0.57542 0.0
H510 H 0.15421 0.10966 0.63989 0.0
H511 H 0.14552 0.12093 0.67145 0.0
H512 H 0.18321 0.10923 0.66606 0.0
H513 H 0.23329 0.17391 0.68669 0.0
H514 H 0.19581 0.18589 0.69202 0.0
H515 H 0.23876 0.2186 0.67448 0.0
H516 H 0.19517 0.23146 0.58249 0.0
H517 H 0.14285 0.24251 0.59753 0.0
H518 H 0.13606 0.18218 0.66775 0.0
C519 C 0.25518 0.16022 0.63451 0.0
C520 C 0.2812 0.16908 0.61394 0.0
C521 C 0.27802 0.18903 0.59259 0.0
C522 C 0.24983 0.20028 0.59172 0.0
C523 C 0.22497 0.19152 0.61237 0.0
C524 C 0.22728 0.17194 0.63338 0.0
C525 C 0.1976 0.16716 0.65328 0.0
C526 C 0.1684 0.12419 0.65794 0.0
C527 C 0.21757 0.18761 0.67808 0.0
C528 C 0.17853 0.18736 0.64023 0.0
C529 C 0.19467 0.20097 0.61658 0.0
C530 C 0.18214 0.22074 0.60092 0.0
C531 C 0.15224 0.22671 0.60959 0.0
C532 C 0.13512 0.21308 0.63377 0.0
C533 C 0.14867 0.19321 0.64926 0.0
H534 H 0.93549 0.15837 0.13277 0.0
H535 H 0.94249 0.05364 0.12636 0.0
H536 H 1.01353 0.09295 0.1215 0.0
H537 H 1.01084 0.21547 0.08777 0.0
H538 H 1.02912 0.25936 0.10585 0.0
H539 H 0.97871 0.22293 0.10807 0.0
H540 H 0.98511 0.22033 0.1569 0.0
H541 H 0.03551 0.25679 0.15482 0.0
H542 H 1.02167 0.21117 0.16997 0.0
H543 H 0.08452 0.14413 0.11826 0.0
H544 H 0.14924 0.20284 0.11694 0.0
H545 H 0.09541 0.27364 0.12627 0.0
C546 C 0.95189 0.1436 0.1305 0.0
C547 C 0.93318 0.1028 0.12987 0.0
C548 C 0.95592 0.08482 0.1265 0.0
C549 C 0.99638 0.10691 0.12388 0.0
C550 C 1.01382 0.14702 0.12467 0.0
C551 C 0.99228 0.16518 0.1279 0.0
C552 C 1.01805 0.20868 0.12841 0.0
C553 C 1.00861 0.22772 0.1062 0.0
C554 C 1.01489 0.2252 0.15406 0.0
C555 C 0.05749 0.21217 0.12511 0.0
C556 C 0.0545 0.17632 0.12292 0.0
C557 C 0.08718 0.17235 0.1199 0.0
C558 C 0.12384 0.2059 0.11917 0.0
C559 C 0.12756 0.24296 0.12148 0.0
C560 C 0.09375 0.24585 0.12442 0.0
H561 H 0.88693 0.95026 0.64032 0.0
H562 H 0.76259 0.89605 0.65217 0.0
H563 H 0.7669 0.95953 0.64925 0.0
H564 H 0.91304 0.03722 0.67616 0.0
H565 H 0.95114 0.0687 0.6547 0.0
H566 H 0.93886 0.01896 0.65805 0.0
H567 H 0.92753 1.00939 0.60958 0.0
H568 H 0.93972 0.05909 0.60609 0.0
H569 H 0.89389 0.02103 0.59453 0.0
H570 H 0.78348 0.02768 0.64426 0.0
H571 H 0.81172 0.09765 0.6385 0.0
H572 H 0.92596 0.10992 0.62973 0.0
C573 C 0.86064 0.95178 0.64228 0.0
C574 C 0.82444 0.918 0.64679 0.0
C575 C 0.79077 0.92139 0.64929 0.0
C576 C 0.79285 0.95736 0.64746 0.0
C577 C 0.82881 0.98993 0.64308 0.0
C578 C 0.86218 0.98768 0.64057 0.0
C579 C 0.89708 0.02751 0.63592 0.0
C580 C 0.92678 0.03875 0.6575 0.0
C581 C 0.91564 0.02935 0.60999 0.0
C582 C 0.87795 0.0523 0.63615 0.0
C583 C 0.83853 0.02982 0.64025 0.0
C584 C 0.81433 0.04564 0.64108 0.0
C585 C 0.83075 0.08555 0.63773 0.0
C586 C 0.87115 0.10954 0.63364 0.0
C587 C 0.89502 0.0925 0.63285 0.0
H588 H 0.87902 0.77718 0.1141 0.0
H589 H 0.96964 0.87557 0.15418 0.0
H590 H 0.93074 0.908 0.15227 0.0
H591 H 0.84953 0.83259 0.07248 0.0
H592 H 0.79876 0.79693 0.07428 0.0
H593 H 0.83482 0.78235 0.077 0.0
H594 H 0.80534 0.74933 0.12009 0.0
H595 H 0.76928 0.76385 0.11753 0.0
H596 H 0.80008 0.77707 0.1451 0.0
H597 H 0.88147 0.92825 0.1485 0.0
H598 H 0.82386 0.93529 0.14354 0.0
H599 H 0.76374 0.82417 0.10571 0.0
C600 C 0.89083 0.80581 0.12209 0.0
C601 C 0.92732 0.82387 0.13436 0.0
C602 C 0.94161 0.86107 0.14494 0.0
C603 C 0.91985 0.87982 0.1438 0.0
C604 C 0.88381 0.86106 0.13197 0.0
C605 C 0.8693 0.82494 0.12124 0.0
C606 C 0.82876 0.81056 0.11085 0.0
C607 C 0.82794 0.80531 0.08193 0.0
C608 C 0.79912 0.77298 0.12419 0.0
C609 C 0.8226 0.84397 0.11784 0.0
C610 C 0.85495 0.87285 0.12982 0.0
C611 C 0.85603 0.90598 0.13901 0.0
C612 C 0.82302 0.90959 0.13618 0.0
C613 C 0.7892 0.88025 0.12428 0.0
C614 C 0.78926 0.84723 0.11467 0.0
H615 H 0.94712 0.81555 0.64282 0.0
H616 H 0.94776 0.76405 0.57077 0.0
H617 H 1.01576 0.81516 0.56359 0.0
H618 H 1.0137 0.91859 0.6244 0.0
H619 H 0.03743 0.9301 0.65486 0.0
H620 H 0.98714 0.8933 0.65246 0.0
H621 H 1.00263 0.84443 0.67446 0.0
H622 H 0.05294 0.88089 0.67671 0.0
H623 H 0.03934 0.83577 0.66115 0.0
H624 H 0.08463 0.86767 0.56591 0.0
H625 H 0.15089 0.91726 0.578 0.0
H626 H 0.10714 0.93386 0.6495 0.0
C627 C 0.96139 0.81599 0.62522 0.0
C628 C 0.94237 0.78666 0.60702 0.0
C629 C 0.962 0.78685 0.58464 0.0
C630 C 1.00049 0.8157 0.58043 0.0
C631 C 1.01896 0.84387 0.59896 0.0
C632 C 1.00015 0.84432 0.62093 0.0
C633 C 1.02788 0.87554 0.63887 0.0
C634 C 1.01582 0.9062 0.64288 0.0
C635 C 0.03087 0.8581 0.66429 0.0
C636 C 0.06532 0.89178 0.62384 0.0
C637 C 0.05932 0.87353 0.6007 0.0
C638 C 0.08964 0.88253 0.58384 0.0
C639 C 0.12717 0.91083 0.59085 0.0
C640 C 0.13422 0.92957 0.61464 0.0
C641 C 0.1027 0.91997 0.63123 0.0
H642 H 0.12568 0.89179 0.37157 0.0
H643 H 0.11309 0.82347 0.43895 0.0
H644 H 0.04365 0.80348 0.44097 0.0
H645 H 0.05799 0.92374 0.39095 0.0
H646 H 0.03943 0.92055 0.3593 0.0
H647 H 0.08866 0.93115 0.36388 0.0
H648 H 0.07544 0.8729 0.33561 0.0
H649 H 1.02619 0.86205 0.331 0.0
H650 H 0.03585 0.82558 0.34345 0.0
H651 H 0.97485 0.78829 0.43458 0.0
H652 H 0.91188 0.77994 0.4206 0.0
H653 H 0.96881 0.85777 0.35728 0.0
C654 C 0.10847 0.87295 0.38693 0.0
C655 C 0.12503 0.85929 0.40514 0.0
C656 C 0.10125 0.83444 0.42479 0.0
C657 C 0.06171 0.8229 0.42612 0.0
C658 C 0.04626 0.83651 0.40771 0.0
C659 C 0.0689 0.86113 0.38855 0.0
C660 C 0.04485 0.87068 0.37073 0.0
C661 C 0.05855 0.91411 0.37125 0.0
C662 C 0.04564 0.85697 0.3436 0.0
C663 C 1.00506 0.84717 0.38267 0.0
C664 C 1.00656 0.82778 0.40403 0.0
C665 C 0.97335 0.80344 0.41792 0.0
C666 C 0.93766 0.79868 0.40973 0.0
C667 C 0.9353 0.8181 0.38781 0.0
C668 C 0.96965 0.84287 0.37427 0.0
H669 H 0.10508 0.95193 0.88242 0.0
H670 H 0.17518 0.89655 0.87882 0.0
H671 H 0.23447 0.96008 0.88106 0.0
H672 H 0.16642 0.0335 0.84402 0.0
H673 H 0.15985 0.0679 0.86228 0.0
H674 H 0.12222 1.01797 0.86164 0.0
H675 H 0.1235 1.01493 0.91071 0.0
H676 H 0.161 0.06495 0.9115 0.0
H677 H 0.16863 0.02876 0.92667 0.0
H678 H 0.28587 0.02836 0.88187 0.0
H679 H 0.32773 0.09874 0.8824 0.0
H680 H 0.22604 0.11243 0.88589 0.0
C681 C 0.13293 0.95324 0.88246 0.0
C682 C 0.13547 0.91921 0.88022 0.0
C683 C 0.17248 0.92217 0.88011 0.0
C684 C 0.20635 0.95813 0.88151 0.0
C685 C 0.20293 0.99107 0.88316 0.0
C686 C 0.1673 0.98916 0.88381 0.0
C687 C 0.17229 0.02945 0.88513 0.0
C688 C 0.15412 0.03767 0.86188 0.0
C689 C 0.15535 0.03483 0.90999 0.0
C690 C 0.21624 0.05411 0.88475 0.0
C691 C 0.2331 0.03114 0.88372 0.0
C692 C 0.27307 0.04672 0.88282 0.0
C693 C 0.29663 0.08689 0.88309 0.0
C694 C 0.28034 0.11139 0.8842 0.0
C695 C 0.23946 0.09461 0.88505 0.0
H696 H 0.14836 0.21598 0.37617 0.0
H697 H 0.20656 0.26775 0.4468 0.0
H698 H 0.22255 0.2158 0.45263 0.0
H699 H 0.1116 0.11276 0.39442 0.0
H700 H 0.12127 0.10069 0.36337 0.0
H701 H 0.10879 0.13808 0.36682 0.0
H702 H 0.1718 0.18604 0.34315 0.0
H703 H 0.18468 0.149 0.33985 0.0
H704 H 0.21783 0.19408 0.35486 0.0
H705 H 0.23742 0.16249 0.44899 0.0
H706 H 0.25208 0.11204 0.4356 0.0
H707 H 0.18684 0.0957 0.36621 0.0
C708 C 0.16332 0.21543 0.39322 0.0
C709 C 0.17563 0.24513 0.41137 0.0
C710 C 0.19651 0.24474 0.43296 0.0
C711 C 0.20565 0.21539 0.43642 0.0
C712 C 0.19403 0.18693 0.41791 0.0
C713 C 0.17334 0.18663 0.39671 0.0
C714 C 0.168 0.15505 0.37846 0.0
C715 C 0.12485 0.12485 0.37561 0.0
C716 C 0.1867 0.17207 0.35256 0.0
C717 C 0.18976 0.1384 0.39242 0.0
C718 C 0.20392 0.1568 0.41533 0.0
C719 C 0.22608 0.1475 0.43124 0.0
C720 C 0.23417 0.11872 0.42349 0.0
C721 C 0.22049 0.09978 0.39991 0.0
C722 C 0.19779 0.10972 0.3843 0.0
H723 H 0.09039 0.18647 0.85367 0.0
H724 H 0.14723 0.25928 0.91878 0.0
H725 H 0.08435 0.25008 0.93355 0.0
H726 H 1.02397 0.22081 0.84216 0.0
H727 H 0.98443 0.17425 0.83313 0.0
H728 H 0.03372 0.18543 0.82811 0.0
H729 H 1.02044 0.12482 0.85413 0.0
H730 H 0.97111 0.11352 0.85929 0.0
H731 H 1.00172 0.11883 0.88598 0.0
H732 H 1.01588 0.23488 0.94058 0.0
H733 H 0.94634 0.21453 0.93949 0.0
H734 H 0.93361 0.15156 0.86979 0.0
C735 C 0.08965 0.20061 0.87098 0.0
C736 C 0.12382 0.2235 0.88511 0.0
C737 C 0.12144 0.24115 0.90782 0.0
C738 C 0.08587 0.23625 0.91631 0.0
C739 C 0.05282 0.21355 0.90194 0.0
C740 C 0.05433 0.19596 0.87978 0.0
C741 C 1.01455 0.17343 0.86775 0.0
C742 C 1.01416 0.18945 0.84122 0.0
C743 C 1.00117 0.13008 0.86673 0.0
C744 C 0.99055 0.18149 0.88646 0.0
C745 C 1.01321 0.20461 0.90607 0.0
C746 C 0.9978 0.21663 0.92538 0.0
C747 C 0.95822 0.20492 0.92457 0.0
C748 C 0.93438 0.18134 0.90459 0.0
C749 C 0.9509 0.16935 0.88541 0.0
H750 H 0.95549 0.08578 0.37958 0.0
H751 H 0.88765 0.14233 0.36729 0.0
H752 H 0.82756 0.07978 0.37142 0.0
H753 H 0.89218 0.99833 0.34509 0.0
H754 H 0.89833 0.96686 0.36685 0.0
H755 H 0.93659 1.01613 0.36282 0.0
H756 H 0.9363 0.02728 0.41119 0.0
H757 H 0.898 0.97806 0.41534 0.0
H758 H 0.89172 1.01719 0.42654 0.0
H759 H 0.77491 1.01232 0.37745 0.0
H760 H 0.73197 0.94266 0.38387 0.0
H761 H 0.8324 0.92767 0.39222 0.0
C762 C 0.92797 0.08495 0.37781 0.0
C763 C 0.92641 0.11907 0.37283 0.0
C764 C 0.88975 0.11664 0.37056 0.0
C765 C 0.85537 0.08124 0.37308 0.0
C766 C 0.8579 0.04828 0.37788 0.0
C767 C 0.89314 0.04962 0.38016 0.0
C768 C 0.88728 1.00953 0.38524 0.0
C769 C 0.90462 0.99698 0.36371 0.0
C770 C 0.90434 1.00794 0.41112 0.0
C771 C 0.84329 0.98565 0.38546 0.0
C772 C 0.82711 1.00879 0.38127 0.0
C773 C 0.78719 0.99384 0.38073 0.0
C774 C 0.76301 0.95411 0.38446 0.0
C775 C 0.77865 0.92946 0.38859 0.0
C776 C 0.81946 0.94563 0.38911 0.0
H777 H 0.89678 0.81055 0.87303 0.0
H778 H 0.8507 0.76416 0.94772 0.0
H779 H 0.83456 0.81568 0.95407 0.0
H780 H 0.93714 0.91303 0.889 0.0
H781 H 0.92362 0.92448 0.85892 0.0
H782 H 0.9347 0.88596 0.86108 0.0
H783 H 0.86777 0.83855 0.84162 0.0
H784 H 0.8564 0.87682 0.8395 0.0
H785 H 0.82438 0.83296 0.85639 0.0
H786 H 0.82036 0.86996 0.95161 0.0
H787 H 0.80733 0.92233 0.93993 0.0
H788 H 0.86166 0.93317 0.86662 0.0
C789 C 0.88389 0.81163 0.89088 0.0
C790 C 0.87517 0.78343 0.90993 0.0
C791 C 0.85764 0.78542 0.93284 0.0
C792 C 0.84847 0.81466 0.93668 0.0
C793 C 0.85691 0.84166 0.9174 0.0
C794 C 0.87419 0.84044 0.89494 0.0
C795 C 0.87806 0.87163 0.87671 0.0
C796 C 0.92093 0.90049 0.8711 0.0
C797 C 0.85529 0.85392 0.85211 0.0
C798 C 0.85965 0.89009 0.89228 0.0
C799 C 0.84808 0.87265 0.9158 0.0
C800 C 0.82959 0.88408 0.93333 0.0
C801 C 0.82246 0.91397 0.92656 0.0
C802 C 0.83355 0.93193 0.9024 0.0
C803 C 0.85263 0.91987 0.88517 0.0
H804 H 0.19678 0.71696 0.11718 0.0
H805 H 0.07152 0.66339 0.12285 0.0
H806 H 0.06578 0.59907 0.12104 0.0
H807 H 0.19739 0.64871 0.0729 0.0
H808 H 0.239 0.64923 0.08691 0.0
H809 H 0.23354 0.69129 0.08899 0.0
H810 H 0.23898 0.69046 0.13794 0.0
H811 H 0.24446 0.6484 0.13604 0.0
H812 H 0.20655 0.64731 0.15536 0.0
H813 H 0.07333 0.54065 0.11921 0.0
H814 H 0.09354 0.49161 0.11607 0.0
H815 H 0.21385 0.58241 0.11076 0.0
C816 C 0.16812 0.69172 0.1181 0.0
C817 C 0.13458 0.69533 0.12024 0.0
C818 C 0.09765 0.6615 0.1212 0.0
C819 C 0.09407 0.62477 0.12022 0.0
C820 C 0.12765 0.62227 0.11813 0.0
C821 C 0.16397 0.65478 0.11696 0.0
C822 C 0.19535 0.64392 0.11442 0.0
C823 C 0.21763 0.6592 0.08931 0.0
C824 C 0.22296 0.65838 0.1373 0.0
C825 C 0.17095 0.60021 0.11439 0.0
C826 C 0.132 0.58842 0.11668 0.0
C827 C 0.10374 0.54952 0.11743 0.0
C828 C 0.11554 0.52189 0.11578 0.0
C829 C 0.15527 0.53315 0.11332 0.0
C830 C 0.18327 0.57293 0.1125 0.0
H831 H 0.65955 0.20903 0.61594 0.0
H832 H 0.63053 0.09058 0.60213 0.0
H833 H 0.56087 0.06953 0.60665 0.0
H834 H 0.58402 0.18774 0.66282 0.0
H835 H 0.57529 0.22533 0.65138 0.0
H836 H 0.62277 0.23053 0.64828 0.0
H837 H 0.6213 0.2411 0.59981 0.0
H838 H 0.57386 0.2359 0.60278 0.0
H839 H 0.58159 0.20543 0.58122 0.0
H840 H 0.49373 0.06189 0.61141 0.0
H841 H 0.4354 0.06874 0.61487 0.0
H842 H 0.50918 0.19227 0.62556 0.0
C843 C 0.63861 0.17856 0.61429 0.0
C844 C 0.65057 0.15144 0.60878 0.0
C845 C 0.62209 0.11194 0.60618 0.0
C846 C 0.58246 0.09968 0.60886 0.0
C847 C 0.57168 0.12725 0.61412 0.0
C848 C 0.59899 0.16588 0.61679 0.0
C849 C 0.57989 0.18999 0.6214 0.0
C850 C 0.59116 0.20954 0.64753 0.0
C851 C 0.58974 0.21986 0.60003 0.0
C852 C 0.53756 0.15897 0.6207 0.0
C853 C 0.53332 0.12291 0.61665 0.0
C854 C 0.49676 0.09 0.61472 0.0
C855 C 0.46376 0.09416 0.61675 0.0
C856 C 0.46753 0.13099 0.62055 0.0
C857 C 0.50508 0.16362 0.62276 0.0
H858 H 0.45931 0.62959 0.09851 0.0
H859 H 0.53898 0.61686 0.14853 0.0
H860 H 0.48862 0.54954 0.15767 0.0
H861 H 0.3719 0.57111 0.13626 0.0
H862 H 0.34165 0.55058 0.10872 0.0
H863 H 0.38347 0.59829 0.10704 0.0
H864 H 0.4094 0.5772 0.06879 0.0
H865 H 0.3678 0.52941 0.07046 0.0
H866 H 0.41592 0.53582 0.07196 0.0
H867 H 0.43017 0.48256 0.16013 0.0
H868 H 0.36792 0.42155 0.15613 0.0
H869 H 0.32635 0.47826 0.10474 0.0
C870 C 0.46596 0.61287 0.11172 0.0
C871 C 0.50319 0.62858 0.12277 0.0
C872 C 0.51086 0.60539 0.1396 0.0
C873 C 0.48236 0.56716 0.14502 0.0
C874 C 0.4462 0.55241 0.13352 0.0
C875 C 0.43786 0.57459 0.11731 0.0
C876 C 0.39707 0.55145 0.10687 0.0
C877 C 0.37204 0.5689 0.11523 0.0
C878 C 0.3976 0.54829 0.0778 0.0
C879 C 0.38393 0.51274 0.11957 0.0
C880 C 0.41262 0.51389 0.13493 0.0
C881 C 0.40741 0.48138 0.14824 0.0
C882 C 0.37193 0.44679 0.1458 0.0
C883 C 0.34207 0.4449 0.13013 0.0
C884 C 0.34839 0.47854 0.11694 0.0
H885 H 0.88369 0.4604 0.58518 0.0
H886 H 0.92608 0.51585 0.65808 0.0
H887 H 0.94344 0.46633 0.66955 0.0
H888 H 0.84295 0.36258 0.60748 0.0
H889 H 0.85674 0.34644 0.57952 0.0
H890 H 0.84735 0.38605 0.57738 0.0
H891 H 0.91552 0.4291 0.55781 0.0
H892 H 0.9252 0.38968 0.56006 0.0
H893 H 0.95772 0.43535 0.57465 0.0
H894 H 0.95657 0.40993 0.67294 0.0
H895 H 0.96157 0.35082 0.66835 0.0
H896 H 0.91226 0.33419 0.5928 0.0
C897 C 0.89683 0.46236 0.60352 0.0
C898 C 0.90339 0.4922 0.6207 0.0
C899 C 0.92014 0.49309 0.64467 0.0
C900 C 0.93044 0.46522 0.6513 0.0
C901 C 0.9239 0.43649 0.6338 0.0
C902 C 0.9073 0.43483 0.61043 0.0
C903 C 0.90291 0.40086 0.59509 0.0
C904 C 0.85994 0.3723 0.58955 0.0
C905 C 0.92677 0.41458 0.57044 0.0
C906 C 0.91971 0.38371 0.6134 0.0
C907 C 0.93171 0.40458 0.63565 0.0
C908 C 0.94739 0.39351 0.65553 0.0
C909 C 0.95029 0.35995 0.65272 0.0
C910 C 0.93762 0.33784 0.63018 0.0
C911 C 0.92259 0.35043 0.61025 0.0
H912 H 0.55338 0.8443 0.1181 0.0
H913 H 0.62564 0.96638 0.13475 0.0
H914 H 0.56731 0.97317 0.13629 0.0
H915 H 0.4882 0.85469 0.07691 0.0
H916 H 0.44597 0.8108 0.08722 0.0
H917 H 0.49312 0.815 0.0889 0.0
H918 H 0.48304 0.79847 0.13685 0.0
H919 H 0.43585 0.79432 0.13537 0.0
H920 H 0.47132 0.82688 0.15771 0.0
H921 H 0.50151 0.96715 0.13513 0.0
H922 H 0.43315 0.94956 0.12946 0.0
H923 H 0.40349 0.83174 0.11227 0.0
C924 C 0.55697 0.87242 0.12232 0.0
C925 C 0.59419 0.90481 0.12644 0.0
C926 C 0.59753 0.94115 0.13154 0.0
C927 C 0.56452 0.94527 0.13255 0.0
C928 C 0.52835 0.91282 0.12833 0.0
C929 C 0.52436 0.87712 0.12321 0.0
C930 C 0.48231 0.84726 0.11825 0.0
C931 C 0.47711 0.83099 0.09121 0.0
C932 C 0.46725 0.81482 0.13824 0.0
C933 C 0.46329 0.87183 0.12119 0.0
C934 C 0.49039 0.90948 0.1272 0.0
C935 C 0.48006 0.93777 0.13039 0.0
C936 C 0.44114 0.92752 0.12698 0.0
C937 C 0.41288 0.88931 0.12025 0.0
C938 C 0.42422 0.86106 0.11768 0.0
H939 H 0.74213 0.55505 0.60407 0.0
H940 H 0.70343 0.61383 0.65546 0.0
H941 H 0.64024 0.55363 0.6599 0.0
H942 H 0.65301 0.50044 0.57171 0.0
H943 H 0.65823 0.45835 0.56837 0.0
H944 H 0.70061 0.50554 0.57022 0.0
H945 H 0.72563 0.48293 0.60834 0.0
H946 H 0.68324 0.43564 0.60665 0.0
H947 H 0.69519 0.46244 0.63589 0.0
H948 H 0.5802 0.48705 0.65728 0.0
H949 H 0.5287 0.4203 0.64783 0.0
H950 H 0.60764 0.40623 0.59811 0.0
C951 C 0.72057 0.55545 0.6164 0.0
C952 C 0.72787 0.58935 0.62942 0.0
C953 C 0.69861 0.5883 0.64529 0.0
C954 C 0.66264 0.55421 0.64795 0.0
C955 C 0.65646 0.52142 0.6347 0.0
C956 C 0.68471 0.52184 0.61928 0.0
C957 C 0.67074 0.4832 0.60656 0.0
C958 C 0.67064 0.48714 0.5775 0.0
C959 C 0.69515 0.46498 0.61487 0.0
C960 C 0.62997 0.4609 0.61704 0.0
C961 C 0.62225 0.48335 0.63329 0.0
C962 C 0.58603 0.46922 0.64466 0.0
C963 C 0.55692 0.43134 0.63909 0.0
C964 C 0.56416 0.40798 0.62228 0.0
C965 C 0.60137 0.42305 0.61137 0.0
H966 H 0.36779 0.91593 0.421 0.0
H967 H 0.33088 0.86848 0.34576 0.0
H968 H 0.38998 0.8632 0.34097 0.0
H969 H 0.47471 0.96876 0.40894 0.0
H970 H 0.48511 0.95606 0.43965 0.0
H971 H 0.44338 0.96198 0.43551 0.0
H972 H 0.39933 0.89319 0.45351 0.0
H973 H 0.44076 0.88686 0.45747 0.0
H974 H 0.39997 0.85273 0.43893 0.0
H975 H 0.44932 0.85715 0.34595 0.0
H976 H 0.50381 0.84916 0.36043 0.0
H977 H 0.50204 0.89879 0.43326 0.0
C978 C 0.37308 0.90583 0.40321 0.0
C979 C 0.34564 0.89368 0.38337 0.0
C980 C 0.35222 0.87876 0.36083 0.0
C981 C 0.38561 0.87561 0.358 0.0
C982 C 0.41187 0.88704 0.37808 0.0
C983 C 0.40605 0.90188 0.40027 0.0
C984 C 0.43665 0.90825 0.41988 0.0
C985 C 0.46143 0.95133 0.42637 0.0
C986 C 0.41806 0.88379 0.44386 0.0
C987 C 0.46007 0.89397 0.40545 0.0
C988 C 0.44557 0.88238 0.38127 0.0
C989 C 0.46128 0.86666 0.36472 0.0
C990 C 0.49245 0.86242 0.37311 0.0
C991 C 0.50763 0.87358 0.39795 0.0
C992 C 0.4912 0.88987 0.41418 0.0
H993 H 0.61733 0.4636 0.93173 0.0
H994 H 0.63014 0.5223 0.85988 0.0
H995 H 0.56372 0.47228 0.84789 0.0
H996 H 0.56289 0.36717 0.90821 0.0
H997 H 0.53261 0.34907 0.93602 0.0
H998 H 0.58107 0.38948 0.93861 0.0
H999 H 0.55391 0.43016 0.95898 0.0
H1000 H 0.50534 0.38991 0.95632 0.0
H1001 H 0.51741 0.43589 0.94242 0.0
H1002 H 0.49481 0.41475 0.84394 0.0
H1003 H 0.43163 0.35424 0.84786 0.0
H1004 H 0.46463 0.33544 0.92283 0.0
C1005 C 0.60616 0.46625 0.91355 0.0
C1006 C 0.62913 0.49709 0.8968 0.0
C1007 C 0.61342 0.4988 0.87296 0.0
C1008 C 0.57555 0.47066 0.86606 0.0
C1009 C 0.55363 0.44091 0.88318 0.0
C1010 C 0.56852 0.43854 0.9064 0.0
C1011 C 0.53944 0.40354 0.92132 0.0
C1012 C 0.55493 0.37567 0.92632 0.0
C1013 C 0.52837 0.41561 0.94623 0.0
C1014 C 0.50583 0.38648 0.9029 0.0
C1015 C 0.51438 0.40836 0.88099 0.0
C1016 C 0.48781 0.39753 0.86108 0.0
C1017 C 0.45191 0.36317 0.8635 0.0
C1018 C 0.44292 0.34006 0.88568 0.0
C1019 C 0.47027 0.35241 0.90566 0.0
H1020 H 0.22099 0.62464 0.42622 0.0
H1021 H 0.13641 0.6164 0.37088 0.0
H1022 H 0.12185 0.55024 0.36009 0.0
H1023 H 0.25635 0.57099 0.39054 0.0
H1024 H 0.26209 0.54805 0.41843 0.0
H1025 H 0.26688 0.59523 0.42073 0.0
H1026 H 0.21389 0.56993 0.45568 0.0
H1027 H 0.20891 0.5227 0.45345 0.0
H1028 H 0.1671 0.52849 0.44931 0.0
H1029 H 0.11462 0.48314 0.3569 0.0
H1030 H 0.11662 0.42234 0.36102 0.0
H1031 H 0.20574 0.47577 0.41872 0.0
C1032 C 0.19938 0.60897 0.41183 0.0
C1033 C 0.17983 0.62574 0.39942 0.0
C1034 C 0.1521 0.60435 0.38045 0.0
C1035 C 0.14349 0.56667 0.37428 0.0
C1036 C 0.163 0.55086 0.38715 0.0
C1037 C 0.19052 0.5715 0.40543 0.0
C1038 C 0.20701 0.54793 0.41684 0.0
C1039 C 0.25067 0.56667 0.4113 0.0
C1040 C 0.19871 0.54191 0.44551 0.0
C1041 C 0.1841 0.51057 0.40241 0.0
C1042 C 0.15893 0.5127 0.38529 0.0
C1043 C 0.13439 0.48126 0.37018 0.0
C1044 C 0.13568 0.44681 0.37267 0.0
C1045 C 0.16129 0.44411 0.39018 0.0
C1046 C 0.18579 0.47665 0.4051 0.0
H1047 H 0.72616 0.19744 0.8878 0.0
H1048 H 0.67974 0.07487 0.90154 0.0
H1049 H 0.61372 0.06601 0.9043 0.0
H1050 H 0.66626 0.21009 0.93095 0.0
H1051 H 0.66075 0.24431 0.91153 0.0
H1052 H 0.7037 0.24033 0.9087 0.0
H1053 H 0.69128 0.22746 0.8605 0.0
H1054 H 0.6483 0.23152 0.86314 0.0
H1055 H 0.64529 0.18863 0.84976 0.0
H1056 H 0.55323 0.07171 0.90875 0.0
H1057 H 0.50335 0.09113 0.91308 0.0
H1058 H 0.58995 0.20976 0.89615 0.0
C1059 C 0.70214 0.16857 0.89106 0.0
C1060 C 0.70822 0.13682 0.89439 0.0
C1061 C 0.67586 0.09963 0.89877 0.0
C1062 C 0.63824 0.09432 0.90041 0.0
C1063 C 0.63342 0.12641 0.89745 0.0
C1064 C 0.66452 0.16276 0.89267 0.0
C1065 C 0.65196 0.19281 0.89115 0.0
C1066 C 0.67184 0.22369 0.91182 0.0
C1067 C 0.65966 0.21118 0.86455 0.0
C1068 C 0.60896 0.16785 0.89619 0.0
C1069 C 0.59876 0.12961 0.89974 0.0
C1070 C 0.56087 0.10151 0.90576 0.0
C1071 C 0.53279 0.11283 0.90831 0.0
C1072 C 0.54269 0.15189 0.90478 0.0
C1073 C 0.58129 0.17956 0.89847 0.0
H1074 H 0.43943 0.57556 0.43509 0.0
H1075 H 0.43068 0.5169 0.36415 0.0
H1076 H 0.49692 0.56795 0.35265 0.0
H1077 H 0.49334 0.67245 0.4104 0.0
H1078 H 0.52243 0.69137 0.43857 0.0
H1079 H 0.47421 0.65041 0.44084 0.0
H1080 H 0.50161 0.61101 0.463 0.0
H1081 H 0.54995 0.65179 0.46065 0.0
H1082 H 0.53923 0.60586 0.4476 0.0
H1083 H 0.56533 0.62622 0.34909 0.0
H1084 H 0.62809 0.68705 0.3534 0.0
H1085 H 0.59172 0.70573 0.42712 0.0
C1086 C 0.45144 0.57325 0.41718 0.0
C1087 C 0.42961 0.54207 0.40054 0.0
C1088 C 0.44644 0.54068 0.37711 0.0
C1089 C 0.48424 0.56943 0.37048 0.0
C1090 C 0.50501 0.59954 0.38744 0.0
C1091 C 0.48907 0.60167 0.41027 0.0
C1092 C 0.51719 0.63712 0.42509 0.0
C1093 C 0.50081 0.66445 0.42894 0.0
C1094 C 0.52761 0.62575 0.45059 0.0
C1095 C 0.55155 0.65449 0.40715 0.0
C1096 C 0.54409 0.63254 0.3855 0.0
C1097 C 0.57147 0.64353 0.36603 0.0
C1098 C 0.60712 0.67808 0.36867 0.0
C1099 C 0.61514 0.70119 0.39064 0.0
C1100 C 0.58689 0.68875 0.41014 0.0
H1101 H 0.93157 0.59661 0.91523 0.0
H1102 H 0.86498 0.58117 0.84683 0.0
H1103 H 0.85639 0.51591 0.84141 0.0
H1104 H 0.97739 0.538 0.89559 0.0
H1105 H 0.9723 0.51788 0.92697 0.0
H1106 H 0.97924 0.56578 0.92298 0.0
H1107 H 0.91666 0.54568 0.94883 0.0
H1108 H 0.90918 0.49764 0.9526 0.0
H1109 H 0.87171 0.50466 0.93873 0.0
H1110 H 0.8481 0.45021 0.84611 0.0
H1111 H 0.841 0.38818 0.86032 0.0
H1112 H 0.91202 0.44483 0.92632 0.0
C1113 C 0.91662 0.57996 0.8986 0.0
C1114 C 0.89975 0.59401 0.88103 0.0
C1115 C 0.87869 0.57095 0.86015 0.0
C1116 C 0.87364 0.53391 0.85696 0.0
C1117 C 0.88951 0.52021 0.875 0.0
C1118 C 0.91073 0.54251 0.89538 0.0
C1119 C 0.92097 0.51925 0.91345 0.0
C1120 C 0.9651 0.53624 0.91482 0.0
C1121 C 0.90358 0.51666 0.93996 0.0
C1122 C 0.90143 0.4803 0.90034 0.0
C1123 C 0.88387 0.48167 0.87806 0.0
C1124 C 0.86232 0.44891 0.8633 0.0
C1125 C 0.85857 0.41376 0.87151 0.0
C1126 C 0.87614 0.41144 0.89437 0.0
C1127 C 0.89806 0.44542 0.90881 0.0
H1128 H 0.17863 0.30375 0.3158 0.0
H1129 H 0.23899 0.42666 0.33159 0.0
H1130 H 0.25247 0.44052 0.28575 0.0
H1131 H 0.24379 0.3083 0.26578 0.0
H1132 H 0.20522 0.27068 0.24753 0.0
H1133 H 0.20136 0.27095 0.28157 0.0
H1134 H 0.1359 0.2698 0.27707 0.0
H1135 H 0.13977 0.27002 0.24302 0.0
H1136 H 0.13376 0.3068 0.2586 0.0
H1137 H 0.25496 0.44056 0.23769 0.0
H1138 H 0.2534 0.42682 0.19179 0.0
H1139 H 0.19414 0.30396 0.20828 0.0
C1140 C 0.19499 0.33359 0.30965 0.0
C1141 C 0.20769 0.36415 0.32717 0.0
C1142 C 0.2292 0.40281 0.31845 0.0
C1143 C 0.23677 0.41096 0.29246 0.0
C1144 C 0.22308 0.38009 0.2756 0.0
C1145 C 0.20325 0.34219 0.28391 0.0
C1146 C 0.19206 0.31422 0.26205 0.0
C1147 C 0.2118 0.2896 0.26437 0.0
C1148 C 0.14774 0.28872 0.26008 0.0
C1149 C 0.20833 0.34227 0.24006 0.0
C1150 C 0.22576 0.38014 0.24819 0.0
C1151 C 0.24173 0.41103 0.23114 0.0
C1152 C 0.24047 0.40296 0.20513 0.0
C1153 C 0.22381 0.36437 0.19657 0.0
C1154 C 0.20737 0.33376 0.21431 0.0
H1155 H 0.85301 0.16266 0.70569 0.0
H1156 H 0.86762 0.27666 0.69477 0.0
H1157 H 0.85243 0.27848 0.74034 0.0
H1158 H 0.77254 0.12828 0.75289 0.0
H1159 H 0.79053 0.10133 0.77008 0.0
H1160 H 0.79782 0.10802 0.73628 0.0
H1161 H 0.87175 0.13721 0.743 0.0
H1162 H 0.86487 0.13143 0.77678 0.0
H1163 H 0.89728 0.17837 0.76352 0.0
H1164 H 0.84602 0.27097 0.78887 0.0
H1165 H 0.83936 0.25102 0.83419 0.0
H1166 H 0.82544 0.14061 0.81141 0.0
C1167 C 0.85166 0.18741 0.71278 0.0
C1168 C 0.86092 0.21932 0.69695 0.0
C1169 C 0.85975 0.25165 0.7067 0.0
C1170 C 0.85149 0.253 0.73253 0.0
C1171 C 0.84383 0.22145 0.74797 0.0
C1172 C 0.84285 0.18885 0.73821 0.0
C1173 C 0.83552 0.15938 0.75866 0.0
C1174 C 0.79679 0.12205 0.75421 0.0
C1175 C 0.86937 0.15115 0.76059 0.0
C1176 C 0.83362 0.18079 0.78165 0.0
C1177 C 0.83869 0.21665 0.77531 0.0
C1178 C 0.84112 0.24259 0.79394 0.0
C1179 C 0.83764 0.23122 0.81958 0.0
C1180 C 0.83136 0.19413 0.82616 0.0
C1181 C 0.82936 0.16883 0.80688 0.0
H1182 H 0.70845 0.90928 0.2118 0.0
H1183 H 0.61087 0.80102 0.18697 0.0
H1184 H 0.59503 0.77992 0.23188 0.0
H1185 H 0.73866 0.86781 0.25864 0.0
H1186 H 0.75512 0.90782 0.28026 0.0
H1187 H 0.75486 0.91585 0.24669 0.0
H1188 H 0.71237 0.94741 0.25416 0.0
H1189 H 0.71218 0.93904 0.28781 0.0
H1190 H 0.66701 0.92084 0.27094 0.0
H1191 H 0.592 0.77007 0.2799 0.0
H1192 H 0.60778 0.76839 0.32537 0.0
H1193 H 0.70998 0.88118 0.31724 0.0
C1194 C 0.68327 0.88144 0.21585 0.0
C1195 C 0.66047 0.85695 0.19609 0.0
C1196 C 0.62853 0.82021 0.20198 0.0
C1197 C 0.61918 0.80818 0.22738 0.0
C1198 C 0.6424 0.8331 0.24651 0.0
C1199 C 0.67415 0.86874 0.24092 0.0
C1200 C 0.69728 0.88834 0.26444 0.0
C1201 C 0.73892 0.89533 0.26238 0.0
C1202 C 0.69718 0.92614 0.26964 0.0
C1203 C 0.674 0.85799 0.28417 0.0
C1204 C 0.64187 0.8267 0.27368 0.0
C1205 C 0.6169 0.79455 0.28831 0.0
C1206 C 0.62583 0.7939 0.31409 0.0
C1207 C 0.65978 0.82484 0.32456 0.0
C1208 C 0.68357 0.85746 0.30958 0.0
H1209 H 0.88844 0.72876 0.70365 0.0
H1210 H 0.80425 0.60877 0.68907 0.0
H1211 H 0.79503 0.59631 0.73537 0.0
H1212 H 0.93258 0.70955 0.75779 0.0
H1213 H 0.94131 0.75275 0.7741 0.0
H1214 H 0.94033 0.75144 0.73996 0.0
H1215 H 0.8874 0.77129 0.74019 0.0
H1216 H 0.88763 0.77184 0.77437 0.0
H1217 H 0.84301 0.74229 0.75753 0.0
H1218 H 0.79276 0.59843 0.78372 0.0
H1219 H 0.80607 0.61232 0.82974 0.0
H1220 H 0.8945 0.72955 0.81166 0.0
C1221 C 0.86832 0.69979 0.71024 0.0
C1222 C 0.84702 0.6697 0.69295 0.0
C1223 C 0.82112 0.6321 0.70214 0.0
C1224 C 0.8154 0.62488 0.72835 0.0
C1225 C 0.83626 0.65547 0.74496 0.0
C1226 C 0.86287 0.69196 0.73623 0.0
C1227 C 0.88306 0.71949 0.75786 0.0
C1228 C 0.92691 0.73415 0.7574 0.0
C1229 C 0.87476 0.75321 0.75745 0.0
C1230 C 0.86355 0.69293 0.78019 0.0
C1231 C 0.83612 0.65627 0.77247 0.0
C1232 C 0.81425 0.62699 0.78996 0.0
C1233 C 0.82164 0.63515 0.81597 0.0
C1234 C 0.85099 0.672 0.82394 0.0
C1235 C 0.87168 0.70125 0.80587 0.0
H1236 H 0.21789 0.85769 0.19958 0.0
H1237 H 0.13051 0.73627 0.20274 0.0
H1238 H 0.14146 0.73536 0.24877 0.0
H1239 H 0.2829 0.85509 0.24964 0.0
H1240 H 0.29361 0.90137 0.26205 0.0
H1241 H 0.28313 0.8911 0.22878 0.0
H1242 H 0.2283 0.908 0.2323 0.0
H1243 H 0.23838 0.91802 0.26555 0.0
H1244 H 0.19022 0.88306 0.25534 0.0
H1245 H 0.15686 0.74896 0.29484 0.0
H1246 H 0.1754 0.77636 0.33784 0.0
H1247 H 0.25169 0.88936 0.30494 0.0
C1248 C 0.20194 0.83069 0.20986 0.0
C1249 C 0.17361 0.79698 0.19763 0.0
C1250 C 0.15243 0.76241 0.21179 0.0
C1251 C 0.15854 0.76156 0.23791 0.0
C1252 C 0.18587 0.79553 0.2496 0.0
C1253 C 0.20736 0.82945 0.23605 0.0
C1254 C 0.23224 0.86273 0.25356 0.0
C1255 C 0.27554 0.87849 0.24818 0.0
C1256 C 0.22163 0.89483 0.25156 0.0
C1257 C 0.2206 0.84241 0.27905 0.0
C1258 C 0.19424 0.80357 0.27633 0.0
C1259 C 0.17786 0.77926 0.29723 0.0
C1260 C 0.18848 0.79513 0.32159 0.0
C1261 C 0.21501 0.83502 0.32484 0.0
C1262 C 0.23152 0.85871 0.30319 0.0
H1263 H 0.37189 0.24879 0.79707 0.0
H1264 H 0.43174 0.19398 0.83097 0.0
H1265 H 0.44811 0.18124 0.78802 0.0
H1266 H 0.32795 0.18483 0.74897 0.0
H1267 H 0.33282 0.21967 0.72528 0.0
H1268 H 0.3313 0.22977 0.75833 0.0
H1269 H 0.39702 0.29336 0.75398 0.0
H1270 H 0.39864 0.2836 0.72076 0.0
H1271 H 0.4384 0.29207 0.74124 0.0
H1272 H 0.44701 0.1642 0.74199 0.0
H1273 H 0.4335 0.1489 0.69638 0.0
H1274 H 0.37794 0.21849 0.69246 0.0
C1275 C 0.38924 0.2349 0.79547 0.0
C1276 C 0.40049 0.22219 0.81724 0.0
C1277 C 0.42312 0.20414 0.81447 0.0
C1278 C 0.43248 0.19679 0.79018 0.0
C1279 C 0.41973 0.20855 0.76904 0.0
C1280 C 0.39925 0.22792 0.77149 0.0
C1281 C 0.38649 0.23516 0.74596 0.0
C1282 C 0.34202 0.21621 0.74457 0.0
C1283 C 0.40633 0.27864 0.74015 0.0
C1284 C 0.40135 0.2152 0.72874 0.0
C1285 C 0.42064 0.2002 0.74238 0.0
C1286 C 0.43298 0.17674 0.73103 0.0
C1287 C 0.42503 0.16805 0.7052 0.0
C1288 C 0.40531 0.18313 0.69102 0.0
C1289 C 0.39411 0.20764 0.7028 0.0
H1290 H 0.35675 0.26711 0.97662 0.0
H1291 H 0.24711 0.20355 0.93733 0.0
H1292 H 0.21508 0.22147 0.97043 0.0
H1293 H 0.31489 0.24519 0.04283 0.0
H1294 H 0.34997 0.2927 0.05376 0.0
H1295 H 0.36265 0.27011 0.0289 0.0
H1296 H 0.38205 0.3299 1.00021 0.0
H1297 H 0.36842 0.35218 0.02467 0.0
H1298 H 0.34693 0.34478 0.99359 0.0
H1299 H 0.19704 0.25332 1.00447 0.0
H1300 H 0.1922 0.28997 0.04069 0.0
H1301 H 0.3134 0.33217 0.0582 0.0
C1302 C 0.32571 0.25562 0.97572 0.0
C1303 C 0.30412 0.23368 0.95473 0.0
C1304 C 0.26388 0.22028 0.95346 0.0
C1305 C 0.24551 0.23036 0.97211 0.0
C1306 C 0.26786 0.25366 0.992 0.0
C1307 C 0.30688 0.26544 0.99429 0.0
C1308 C 0.32462 0.29215 0.01674 0.0
C1309 C 0.33886 0.27394 0.03674 0.0
C1310 C 0.35744 0.33211 1.00828 0.0
C1311 C 0.28979 0.29428 0.02621 0.0
C1312 C 0.25734 0.2719 0.0117 0.0
C1313 C 0.22212 0.27054 0.01623 0.0
C1314 C 0.21974 0.29176 0.03665 0.0
C1315 C 0.25237 0.31388 0.05225 0.0
C1316 C 0.28787 0.3154 0.04668 0.0
H1317 H 0.07511 0.33583 0.46135 0.0
H1318 H 0.14741 0.28657 0.48094 0.0
H1319 H 0.10234 0.24977 0.51592 0.0
H1320 H 0.05145 0.34699 0.52587 0.0
H1321 H 1.00286 0.33576 0.51794 0.0
H1322 H 0.0408 0.35754 0.49456 0.0
H1323 H 0.99952 0.30113 0.4639 0.0
H1324 H 0.96185 0.27868 0.48746 0.0
H1325 H 0.98314 0.25216 0.4739 0.0
H1326 H 0.04862 0.21714 0.54777 0.0
H1327 H 0.99595 0.19898 0.57892 0.0
H1328 H 0.95953 0.27103 0.53969 0.0
C1329 C 0.08165 0.31755 0.47315 0.0
C1330 C 0.11478 0.31403 0.46848 0.0
C1331 C 0.12245 0.28998 0.48436 0.0
C1332 C 0.09676 0.26864 0.50405 0.0
C1333 C 0.06378 0.27196 0.50766 0.0
C1334 C 0.05659 0.29643 0.493 0.0
C1335 C 1.02004 0.29614 0.50156 0.0
C1336 C 1.02935 0.33649 0.51052 0.0
C1337 C 0.98933 0.28113 0.48044 0.0
C1338 C 1.00777 0.26775 0.52348 0.0
C1339 C 0.03312 0.2537 0.52635 0.0
C1340 C 1.02863 0.22794 0.54567 0.0
C1341 C 0.99859 0.21767 0.5632 0.0
C1342 C 0.97364 0.23333 0.56146 0.0
C1343 C 0.97756 0.25783 0.54095 0.0
H1344 H 0.77572 0.96254 0.04724 0.0
H1345 H 0.65809 0.94024 0.05658 0.0
H1346 H 0.67126 0.9926 0.02596 0.0
H1347 H 0.82273 0.06328 0.0417 0.0
H1348 H 0.85608 0.06739 0.01712 0.0
H1349 H 0.83731 0.02733 0.039 0.0
H1350 H 0.8114 0.97884 1.0016 0.0
H1351 H 0.83101 0.01879 0.9796 0.0
H1352 H 0.7804 0.98271 0.97821 0.0
H1353 H 0.69977 0.05203 0.9978 0.0
H1354 H 0.73679 0.10486 0.96699 0.0
H1355 H 0.83369 0.08428 0.97303 0.0
C1356 C 0.75254 0.96817 0.04232 0.0
C1357 C 0.71583 0.94734 0.05403 0.0
C1358 C 0.68619 0.95553 0.04742 0.0
C1359 C 0.69356 0.98548 0.03031 0.0
C1360 C 0.73045 1.00629 0.01961 0.0
C1361 C 0.75906 0.99717 0.02472 0.0
C1362 C 0.79581 0.0231 0.01002 0.0
C1363 C 0.82999 0.04666 0.02804 0.0
C1364 C 0.80519 0.99945 0.99125 0.0
C1365 C 0.78367 0.04875 0.99626 0.0
C1366 C 0.74612 0.03907 1.00239 0.0
C1367 C 0.72904 0.05958 0.99264 0.0
C1368 C 0.75041 0.08984 0.97544 0.0
C1369 C 0.78807 0.09869 0.96786 0.0
C1370 C 0.80499 0.07817 0.97867 0.0
H1371 H 0.75098 0.69659 0.55784 0.0
H1372 H 0.87208 0.74344 0.53785 0.0
H1373 H 0.86484 0.78205 0.50361 0.0
H1374 H 0.71567 0.68879 0.49363 0.0
H1375 H 0.67954 0.70128 0.50248 0.0
H1376 H 0.69489 0.67767 0.52504 0.0
H1377 H 0.71219 0.73336 0.55678 0.0
H1378 H 0.69785 0.75766 0.53402 0.0
H1379 H 0.7459 0.78236 0.54742 0.0
H1380 H 0.84461 0.81611 0.47226 0.0
H1381 H 0.81082 0.836 0.44164 0.0
H1382 H 0.70265 0.76703 0.48189 0.0
C1383 C 0.77592 0.71468 0.54609 0.0
C1384 C 0.81214 0.71699 0.55045 0.0
C1385 C 0.84401 0.7409 0.53465 0.0
C1386 C 0.84025 0.76327 0.51539 0.0
C1387 C 0.80441 0.7612 0.51217 0.0
C1388 C 0.77262 0.73696 0.52676 0.0
C1389 C 0.73696 0.73891 0.51883 0.0
C1390 C 0.70488 0.69932 0.50943 0.0
C1391 C 0.72238 0.75398 0.54056 0.0
C1392 C 0.75356 0.76801 0.49733 0.0
C1393 C 0.79268 0.78085 0.49408 0.0
C1394 C 0.81413 0.8065 0.47477 0.0
C1395 C 0.79479 0.81793 0.45764 0.0
C1396 C 0.75445 0.80381 0.45989 0.0
C1397 C 0.73375 0.77934 0.48037 0.0
H1398 H 0.95224 0.76083 0.97698 0.0
H1399 H 0.94956 0.65422 0.95756 0.0
H1400 H 1.00147 0.66875 0.98898 0.0
H1401 H 0.05146 0.81886 0.98545 0.0
H1402 H 0.04893 0.84469 0.01269 0.0
H1403 H 1.00994 0.82499 0.99001 0.0
H1404 H 0.96048 0.78633 0.0256 0.0
H1405 H 0.99915 0.80678 0.04852 0.0
H1406 H 0.96913 0.75512 0.04606 0.0
H1407 H 0.05919 0.69941 0.01866 0.0
H1408 H 0.10885 0.73654 0.05116 0.0
H1409 H 0.06971 0.82022 0.05373 0.0
C1410 C 0.96188 0.74008 0.97996 0.0
C1411 C 0.94689 0.70626 0.9652 0.0
C1412 C 0.96034 0.67989 0.96915 0.0
C1413 C 0.99005 0.68815 0.9867 0.0
C1414 C 1.00521 0.72246 1.00042 0.0
C1415 C 0.99067 0.74735 0.99788 0.0
C1416 C 1.01146 0.78192 0.01521 0.0
C1417 C 0.03164 0.81985 0.99991 0.0
C1418 C 0.98339 0.78256 0.03502 0.0
C1419 C 0.04069 0.77317 0.02739 0.0
C1420 C 0.03703 0.73905 0.01836 0.0
C1421 C 0.06196 0.72588 0.02612 0.0
C1422 C 0.0904 0.7474 0.04431 0.0
C1423 C 0.09315 0.78128 0.05476 0.0
C1424 C 0.06826 0.79447 0.04593 0.0
H1425 H 0.23046 0.95595 0.46942 0.0
H1426 H 0.3283 0.93745 0.46048 0.0
H1427 H 0.36613 0.99032 0.49089 0.0
H1428 H 0.28201 0.05726 0.47459 0.0
H1429 H 0.25161 0.05993 0.49891 0.0
H1430 H 0.2318 0.02023 0.47694 0.0
H1431 H 0.20954 0.97113 0.51422 0.0
H1432 H 0.22833 1.01063 0.53633 0.0
H1433 H 0.24425 0.97561 0.53791 0.0
H1434 H 0.3949 0.04925 0.51934 0.0
H1435 H 0.4082 0.10052 0.55064 0.0
H1436 H 0.28958 0.0763 0.5438 0.0
C1437 C 0.2596 0.96261 0.4743 0.0
C1438 C 0.27655 0.94268 0.46282 0.0
C1439 C 0.31473 0.95211 0.46944 0.0
C1440 C 0.33651 0.98234 0.48642 0.0
C1441 C 0.31932 1.0022 0.49692 0.0
C1442 C 0.28132 0.99192 0.49171 0.0
C1443 C 0.2691 1.01675 0.50627 0.0
C1444 C 0.25798 0.03991 0.48809 0.0
C1445 C 0.23585 0.99206 0.52478 0.0
C1446 C 0.30631 0.04294 0.52029 0.0
C1447 C 0.33519 0.03465 0.51425 0.0
C1448 C 0.37241 0.05576 0.52438 0.0
C1449 C 0.37985 0.0851 0.54187 0.0
C1450 C 0.34998 0.09241 0.54938 0.0
C1451 C 0.31296 0.07139 0.53818 0.0
loop_
_geom_bond_atom_site_label_1
_geom_bond_atom_site_label_2
_geom_bond_distance
_geom_bond_site_symmetry_2
_ccdc_geom_bond_type
Tb0 C9 2.764 . S
Tb0 O10 2.325 . S
Tb0 O13 2.303 . S
Tb0 O17 2.322 . S
Tb0 O18 2.349 . S
Tb0 O21 2.415 . S
Tb0 O22 2.399 . S
Tb1 O11 2.322 . S
Tb1 O12 2.349 . S
Tb1 O14 2.415 . S
Tb1 O15 2.399 . S
Tb1 O16 2.325 . S
Tb1 O19 2.303 . S
Tb1 C30 2.764 . S
C2 O18 1.261 . S
C2 O19 1.257 . S
C3 C6 1.358 . S
C3 C7 1.332 . S
C3 C9 1.504 . S
C4 C5 1.373 . S
C4 C8 1.308 . S
C5 C4 1.373 . S
C5 C6 1.429 . S
C5 H32 0.932 . S
C6 C3 1.358 . S
C6 C5 1.429 . S
C6 H33 0.930 . S
C7 C3 1.332 . S
C7 C8 1.394 . S
C7 H34 0.932 . S
C8 C4 1.308 . S
C8 C7 1.394 . S
C8 H35 0.929 . S
C9 Tb0 2.764 . S
C9 C3 1.504 . S
C9 O21 1.239 . S
C9 O22 1.263 . S
O10 Tb0 2.325 . S
O10 C20 1.236 . S
O11 Tb1 2.322 . S
O11 C20 1.257 . S
O12 Tb1 2.349 . S
O12 C23 1.261 . S
O13 Tb0 2.303 . S
O13 C23 1.257 . S
O14 Tb1 2.415 . S
O14 C30 1.239 . S
O15 Tb1 2.399 . S
O15 C30 1.263 . S
O16 Tb1 2.325 . S
O16 C31 1.236 . S
O17 Tb0 2.322 . S
O17 C31 1.257 . S
O18 Tb0 2.349 . S
O18 C2 1.261 . S
O19 Tb1 2.303 . S
O19 C2 1.257 . S
C20 O10 1.236 . S
C20 O11 1.257 . S
O21 Tb0 2.415 . S
O21 C9 1.239 . S
O22 Tb0 2.399 . S
O22 C9 1.263 . S
C23 O12 1.261 . S
C23 O13 1.257 . S
C24 C27 1.358 . S
C24 C28 1.332 . S
C24 C30 1.504 . S
C25 C26 1.373 . S
C25 C29 1.308 . S
C26 C25 1.373 . S
C26 C27 1.429 . S
C26 H36 0.932 . S
C27 C24 1.358 . S
C27 C26 1.429 . S
C27 H37 0.930 . S
C28 C24 1.332 . S
C28 C29 1.394 . S
C28 H38 0.932 . S
C29 C25 1.308 . S
C29 C28 1.394 . S
C29 H39 0.929 . S
C30 Tb1 2.764 . S
C30 O14 1.239 . S
C30 O15 1.263 . S
C30 C24 1.504 . S
C31 O16 1.236 . S
C31 O17 1.257 . S
H32 C5 0.932 . S
H33 C6 0.930 . S
H34 C7 0.932 . S
H35 C8 0.929 . S
H36 C26 0.932 . S
H37 C27 0.930 . S
H38 C28 0.932 . S
H39 C29 0.929 . S
Tb40 C49 2.764 . S
Tb40 O50 2.325 . S
Tb40 O53 2.303 . S
Tb40 O57 2.322 . S
Tb40 O58 2.349 . S
Tb40 O61 2.415 . S
Tb40 O62 2.399 . S
Tb41 O51 2.322 . S
Tb41 O52 2.349 . S
Tb41 O54 2.415 . S
Tb41 O55 2.399 . S
Tb41 O56 2.325 . S
Tb41 O59 2.303 . S
Tb41 C70 2.764 . S
C42 O58 1.261 . S
C42 O59 1.257 . S
C43 C46 1.358 . S
C43 C47 1.332 . S
C43 C49 1.504 1_455 S
C44 C45 1.373 . S
C44 C48 1.308 . S
C45 C44 1.373 . S
C45 C46 1.429 . S
C45 H72 0.932 . S
C46 C43 1.358 . S
C46 C45 1.429 . S
C46 H73 0.930 . S
C47 C43 1.332 . S
C47 C48 1.394 . S
C47 H74 0.932 . S
C48 C44 1.308 . S
C48 C47 1.394 . S
C48 H75 0.929 . S
C49 Tb40 2.764 . S
C49 C43 1.504 1_655 S
C49 O61 1.239 . S
C49 O62 1.263 . S
O50 Tb40 2.325 . S
O50 C60 1.236 . S
O51 Tb41 2.322 . S
O51 C60 1.257 . S
O52 Tb41 2.349 . S
O52 C63 1.261 . S
O53 Tb40 2.303 . S
O53 C63 1.257 . S
O54 Tb41 2.415 . S
O54 C70 1.239 . S
O55 Tb41 2.399 . S
O55 C70 1.263 . S
O56 Tb41 2.325 . S
O56 C71 1.236 . S
O57 Tb40 2.322 . S
O57 C71 1.257 . S
O58 Tb40 2.349 . S
O58 C42 1.261 . S
O59 Tb41 2.303 . S
O59 C42 1.257 . S
C60 O50 1.236 . S
C60 O51 1.257 . S
O61 Tb40 2.415 . S
O61 C49 1.239 . S
O62 Tb40 2.399 . S
O62 C49 1.263 . S
C63 O52 1.261 . S
C63 O53 1.257 . S
C64 C67 1.358 . S
C64 C68 1.332 . S
C64 C70 1.504 . S
C65 C66 1.373 . S
C65 C69 1.308 . S
C66 C65 1.373 . S
C66 C67 1.429 . S
C66 H76 0.932 . S
C67 C64 1.358 . S
C67 C66 1.429 . S
C67 H77 0.930 . S
C68 C64 1.332 . S
C68 C69 1.394 . S
C68 H78 0.932 . S
C69 C65 1.308 . S
C69 C68 1.394 . S
C69 H79 0.929 . S
C70 Tb41 2.764 . S
C70 O54 1.239 . S
C70 O55 1.263 . S
C70 C64 1.504 . S
C71 O56 1.236 . S
C71 O57 1.257 . S
H72 C45 0.932 . S
H73 C46 0.930 . S
H74 C47 0.932 . S
H75 C48 0.929 . S
H76 C66 0.932 . S
H77 C67 0.930 . S
H78 C68 0.932 . S
H79 C69 0.929 . S
Tb80 C89 2.764 . S
Tb80 O90 2.325 . S
Tb80 O93 2.303 . S
Tb80 O97 2.322 . S
Tb80 O98 2.349 . S
Tb80 O101 2.415 . S
Tb80 O102 2.399 . S
Tb81 O91 2.322 . S
Tb81 O92 2.349 . S
Tb81 O94 2.415 . S
Tb81 O95 2.399 . S
Tb81 O96 2.325 . S
Tb81 O99 2.303 . S
Tb81 C110 2.764 . S
C82 O98 1.261 . S
C82 O99 1.257 . S
C83 C86 1.358 . S
C83 C87 1.332 . S
C83 C89 1.504 1_545 S
C84 C85 1.373 . S
C84 C88 1.308 . S
C85 C84 1.373 . S
C85 C86 1.429 . S
C85 H112 0.932 . S
C86 C83 1.358 . S
C86 C85 1.429 . S
C86 H113 0.930 . S
C87 C83 1.332 . S
C87 C88 1.394 . S
C87 H114 0.932 . S
C88 C84 1.308 . S
C88 C87 1.394 . S
C88 H115 0.929 . S
C89 Tb80 2.764 . S
C89 C83 1.504 1_565 S
C89 O101 1.239 . S
C89 O102 1.263 . S
O90 Tb80 2.325 . S
O90 C100 1.236 . S
O91 Tb81 2.322 . S
O91 C100 1.257 . S
O92 Tb81 2.349 . S
O92 C103 1.261 . S
O93 Tb80 2.303 . S
O93 C103 1.257 . S
O94 Tb81 2.415 . S
O94 C110 1.239 . S
O95 Tb81 2.399 . S
O95 C110 1.263 . S
O96 Tb81 2.325 . S
O96 C111 1.236 . S
O97 Tb80 2.322 . S
O97 C111 1.257 . S
O98 Tb80 2.349 . S
O98 C82 1.261 . S
O99 Tb81 2.303 . S
O99 C82 1.257 . S
C100 O90 1.236 . S
C100 O91 1.257 . S
O101 Tb80 2.415 . S
O101 C89 1.239 . S
O102 Tb80 2.399 . S
O102 C89 1.263 . S
C103 O92 1.261 . S
C103 O93 1.257 . S
C104 C107 1.358 . S
C104 C108 1.332 . S
C104 C110 1.504 . S
C105 C106 1.373 . S
C105 C109 1.308 . S
C106 C105 1.373 . S
C106 C107 1.429 . S
C106 H116 0.932 . S
C107 C104 1.358 . S
C107 C106 1.429 . S
C107 H117 0.930 . S
C108 C104 1.332 . S
C108 C109 1.394 . S
C108 H118 0.932 . S
C109 C105 1.308 . S
C109 C108 1.394 . S
C109 H119 0.929 . S
C110 Tb81 2.764 . S
C110 O94 1.239 . S
C110 O95 1.263 . S
C110 C104 1.504 . S
C111 O96 1.236 . S
C111 O97 1.257 . S
H112 C85 0.932 . S
H113 C86 0.930 . S
H114 C87 0.932 . S
H115 C88 0.929 . S
H116 C106 0.932 . S
H117 C107 0.930 . S
H118 C108 0.932 . S
H119 C109 0.929 . S
Tb120 C129 2.764 . S
Tb120 O130 2.325 . S
Tb120 O133 2.303 . S
Tb120 O137 2.322 . S
Tb120 O138 2.349 . S
Tb120 O141 2.415 . S
Tb120 O142 2.399 . S
Tb121 O131 2.322 . S
Tb121 O132 2.349 . S
Tb121 O134 2.415 . S
Tb121 O135 2.399 . S
Tb121 O136 2.325 . S
Tb121 O139 2.303 . S
Tb121 C150 2.764 . S
C122 O138 1.261 . S
C122 O139 1.257 . S
C123 C126 1.358 . S
C123 C127 1.332 . S
C123 C129 1.504 . S
C124 C125 1.373 . S
C124 C128 1.308 . S
C125 C124 1.373 . S
C125 C126 1.429 . S
C125 H152 0.932 . S
C126 C123 1.358 . S
C126 C125 1.429 . S
C126 H153 0.930 . S
C127 C123 1.332 . S
C127 C128 1.394 . S
C127 H154 0.932 . S
C128 C124 1.308 . S
C128 C127 1.394 . S
C128 H155 0.929 . S
C129 Tb120 2.764 . S
C129 C123 1.504 . S
C129 O141 1.239 . S
C129 O142 1.263 . S
O130 Tb120 2.325 . S
O130 C140 1.236 . S
O131 Tb121 2.322 . S
O131 C140 1.257 . S
O132 Tb121 2.349 . S
O132 C143 1.261 . S
O133 Tb120 2.303 . S
O133 C143 1.257 . S
O134 Tb121 2.415 . S
O134 C150 1.239 . S
O135 Tb121 2.399 . S
O135 C150 1.263 . S
O136 Tb121 2.325 . S
O136 C151 1.236 . S
O137 Tb120 2.322 . S
O137 C151 1.257 . S
O138 Tb120 2.349 . S
O138 C122 1.261 . S
O139 Tb121 2.303 . S
O139 C122 1.257 . S
C140 O130 1.236 . S
C140 O131 1.257 . S
O141 Tb120 2.415 . S
O141 C129 1.239 . S
O142 Tb120 2.399 . S
O142 C129 1.263 . S
C143 O132 1.261 . S
C143 O133 1.257 . S
C144 C147 1.358 . S
C144 C148 1.332 . S
C144 C150 1.504 . S
C145 C146 1.373 . S
C145 C149 1.308 . S
C146 C145 1.373 . S
C146 C147 1.429 . S
C146 H156 0.932 . S
C147 C144 1.358 . S
C147 C146 1.429 . S
C147 H157 0.930 . S
C148 C144 1.332 . S
C148 C149 1.394 . S
C148 H158 0.932 . S
C149 C145 1.308 . S
C149 C148 1.394 . S
C149 H159 0.929 . S
C150 Tb121 2.764 . S
C150 O134 1.239 . S
C150 O135 1.263 . S
C150 C144 1.504 . S
C151 O136 1.236 . S
C151 O137 1.257 . S
H152 C125 0.932 . S
H153 C126 0.930 . S
H154 C127 0.932 . S
H155 C128 0.929 . S
H156 C146 0.932 . S
H157 C147 0.930 . S
H158 C148 0.932 . S
H159 C149 0.929 . S
Tb160 C169 2.764 . S
Tb160 O170 2.325 . S
Tb160 O173 2.303 . S
Tb160 O177 2.322 . S
Tb160 O178 2.349 . S
Tb160 O181 2.415 . S
Tb160 O182 2.399 . S
Tb161 O171 2.322 . S
Tb161 O172 2.349 . S
Tb161 O174 2.415 . S
Tb161 O175 2.399 . S
Tb161 O176 2.325 . S
Tb161 O179 2.303 . S
Tb161 C190 2.764 . S
C162 O178 1.261 . S
C162 O179 1.257 . S
C163 C166 1.358 . S
C163 C167 1.332 . S
C163 C169 1.504 1_655 S
C164 C165 1.373 . S
C164 C168 1.308 . S
C165 C164 1.373 . S
C165 C166 1.429 . S
C165 H192 0.932 . S
C166 C163 1.358 . S
C166 C165 1.429 . S
C166 H193 0.930 . S
C167 C163 1.332 . S
C167 C168 1.394 . S
C167 H194 0.932 . S
C168 C164 1.308 . S
C168 C167 1.394 . S
C168 H195 0.929 . S
C169 Tb160 2.764 . S
C169 C163 1.504 1_455 S
C169 O181 1.239 . S
C169 O182 1.263 . S
O170 Tb160 2.325 . S
O170 C180 1.236 . S
O171 Tb161 2.322 . S
O171 C180 1.257 . S
O172 Tb161 2.349 . S
O172 C183 1.261 . S
O173 Tb160 2.303 . S
O173 C183 1.257 . S
O174 Tb161 2.415 . S
O174 C190 1.239 . S
O175 Tb161 2.399 . S
O175 C190 1.263 . S
O176 Tb161 2.325 . S
O176 C191 1.236 . S
O177 Tb160 2.322 . S
O177 C191 1.257 . S
O178 Tb160 2.349 . S
O178 C162 1.261 . S
O179 Tb161 2.303 . S
O179 C162 1.257 . S
C180 O170 1.236 . S
C180 O171 1.257 . S
O181 Tb160 2.415 . S
O181 C169 1.239 . S
O182 Tb160 2.399 . S
O182 C169 1.263 . S
C183 O172 1.261 . S
C183 O173 1.257 . S
C184 C187 1.358 . S
C184 C188 1.332 . S
C184 C190 1.504 . S
C185 C186 1.373 . S
C185 C189 1.308 . S
C186 C185 1.373 . S
C186 C187 1.429 . S
C186 H196 0.932 . S
C187 C184 1.358 . S
C187 C186 1.429 . S
C187 H197 0.930 . S
C188 C184 1.332 . S
C188 C189 1.394 . S
C188 H198 0.932 . S
C189 C185 1.308 . S
C189 C188 1.394 . S
C189 H199 0.929 . S
C190 Tb161 2.764 . S
C190 O174 1.239 . S
C190 O175 1.263 . S
C190 C184 1.504 . S
C191 O176 1.236 . S
C191 O177 1.257 . S
H192 C165 0.932 . S
H193 C166 0.930 . S
H194 C167 0.932 . S
H195 C168 0.929 . S
H196 C186 0.932 . S
H197 C187 0.930 . S
H198 C188 0.932 . S
H199 C189 0.929 . S
Tb200 C209 2.764 . S
Tb200 O210 2.325 . S
Tb200 O213 2.303 . S
Tb200 O217 2.322 . S
Tb200 O218 2.349 . S
Tb200 O221 2.415 . S
Tb200 O222 2.399 . S
Tb201 O211 2.322 . S
Tb201 O212 2.349 . S
Tb201 O214 2.415 . S
Tb201 O215 2.399 . S
Tb201 O216 2.325 . S
Tb201 O219 2.303 . S
Tb201 C230 2.764 . S
C202 O218 1.261 . S
C202 O219 1.257 . S
C203 C206 1.358 . S
C203 C207 1.332 . S
C203 C209 1.504 1_565 S
C204 C205 1.373 . S
C204 C208 1.308 . S
C205 C204 1.373 . S
C205 C206 1.429 . S
C205 H232 0.932 . S
C206 C203 1.358 . S
C206 C205 1.429 . S
C206 H233 0.930 . S
C207 C203 1.332 . S
C207 C208 1.394 . S
C207 H234 0.932 . S
C208 C204 1.308 . S
C208 C207 1.394 . S
C208 H235 0.929 . S
C209 Tb200 2.764 . S
C209 C203 1.504 1_545 S
C209 O221 1.239 . S
C209 O222 1.263 . S
O210 Tb200 2.325 . S
O210 C220 1.236 . S
O211 Tb201 2.322 . S
O211 C220 1.257 . S
O212 Tb201 2.349 . S
O212 C223 1.261 . S
O213 Tb200 2.303 . S
O213 C223 1.257 . S
O214 Tb201 2.415 . S
O214 C230 1.239 . S
O215 Tb201 2.399 . S
O215 C230 1.263 . S
O216 Tb201 2.325 . S
O216 C231 1.236 . S
O217 Tb200 2.322 . S
O217 C231 1.257 . S
O218 Tb200 2.349 . S
O218 C202 1.261 . S
O219 Tb201 2.303 . S
O219 C202 1.257 . S
C220 O210 1.236 . S
C220 O211 1.257 . S
O221 Tb200 2.415 . S
O221 C209 1.239 . S
O222 Tb200 2.399 . S
O222 C209 1.263 . S
C223 O212 1.261 . S
C223 O213 1.257 . S
C224 C227 1.358 . S
C224 C228 1.332 . S
C224 C230 1.504 . S
C225 C226 1.373 . S
C225 C229 1.308 . S
C226 C225 1.373 . S
C226 C227 1.429 . S
C226 H236 0.932 . S
C227 C224 1.358 . S
C227 C226 1.429 . S
C227 H237 0.930 . S
C228 C224 1.332 . S
C228 C229 1.394 . S
C228 H238 0.932 . S
C229 C225 1.308 . S
C229 C228 1.394 . S
C229 H239 0.929 . S
C230 Tb201 2.764 . S
C230 O214 1.239 . S
C230 O215 1.263 . S
C230 C224 1.504 . S
C231 O216 1.236 . S
C231 O217 1.257 . S
H232 C205 0.932 . S
H233 C206 0.930 . S
H234 C207 0.932 . S
H235 C208 0.929 . S
H236 C226 0.932 . S
H237 C227 0.930 . S
H238 C228 0.932 . S
H239 C229 0.929 . S
Tb240 C249 2.764 . S
Tb240 O250 2.325 . S
Tb240 O253 2.303 . S
Tb240 O257 2.322 . S
Tb240 O258 2.349 . S
Tb240 O261 2.415 . S
Tb240 O262 2.399 . S
Tb241 O251 2.322 . S
Tb241 O252 2.349 . S
Tb241 O254 2.415 . S
Tb241 O255 2.399 . S
Tb241 O256 2.325 . S
Tb241 O259 2.303 . S
Tb241 C270 2.764 . S
C242 O258 1.261 . S
C242 O259 1.257 . S
C243 C246 1.358 . S
C243 C247 1.332 . S
C243 C249 1.504 . S
C244 C245 1.373 . S
C244 C248 1.308 . S
C245 C244 1.373 . S
C245 C246 1.429 . S
C245 H272 0.932 . S
C246 C243 1.358 . S
C246 C245 1.429 . S
C246 H273 0.930 . S
C247 C243 1.332 . S
C247 C248 1.394 . S
C247 H274 0.932 . S
C248 C244 1.308 . S
C248 C247 1.394 . S
C248 H275 0.929 . S
C249 Tb240 2.764 . S
C249 C243 1.504 . S
C249 O261 1.239 . S
C249 O262 1.263 . S
O250 Tb240 2.325 . S
O250 C260 1.236 . S
O251 Tb241 2.322 . S
O251 C260 1.257 . S
O252 Tb241 2.349 . S
O252 C263 1.261 . S
O253 Tb240 2.303 . S
O253 C263 1.257 . S
O254 Tb241 2.415 . S
O254 C270 1.239 . S
O255 Tb241 2.399 . S
O255 C270 1.263 . S
O256 Tb241 2.325 . S
O256 C271 1.236 . S
O257 Tb240 2.322 . S
O257 C271 1.257 . S
O258 Tb240 2.349 . S
O258 C242 1.261 . S
O259 Tb241 2.303 . S
O259 C242 1.257 . S
C260 O250 1.236 . S
C260 O251 1.257 . S
O261 Tb240 2.415 . S
O261 C249 1.239 . S
O262 Tb240 2.399 . S
O262 C249 1.263 . S
C263 O252 1.261 . S
C263 O253 1.257 . S
C264 C267 1.358 . S
C264 C268 1.332 . S
C264 C270 1.504 . S
C265 C266 1.373 . S
C265 C269 1.308 . S
C266 C265 1.373 . S
C266 C267 1.429 . S
C266 H276 0.932 . S
C267 C264 1.358 . S
C267 C266 1.429 . S
C267 H277 0.930 . S
C268 C264 1.332 . S
C268 C269 1.394 . S
C268 H278 0.932 . S
C269 C265 1.308 . S
C269 C268 1.394 . S
C269 H279 0.929 . S
C270 Tb241 2.764 . S
C270 O254 1.239 . S
C270 O255 1.263 . S
C270 C264 1.504 . S
C271 O256 1.236 . S
C271 O257 1.257 . S
H272 C245 0.932 . S
H273 C246 0.930 . S
H274 C247 0.932 . S
H275 C248 0.929 . S
H276 C266 0.932 . S
H277 C267 0.930 . S
H278 C268 0.932 . S
H279 C269 0.929 . S
Tb280 C289 2.764 . S
Tb280 O290 2.325 . S
Tb280 O293 2.303 . S
Tb280 O297 2.322 . S
Tb280 O298 2.349 . S
Tb280 O301 2.415 . S
Tb280 O302 2.399 . S
Tb281 O291 2.322 . S
Tb281 O292 2.349 . S
Tb281 O294 2.415 . S
Tb281 O295 2.399 . S
Tb281 O296 2.325 . S
Tb281 O299 2.303 . S
Tb281 C310 2.764 . S
C282 O298 1.261 . S
C282 O299 1.257 . S
C283 C286 1.358 . S
C283 C287 1.332 . S
C283 C289 1.504 1_455 S
C284 C285 1.373 . S
C284 C288 1.308 . S
C285 C284 1.373 . S
C285 C286 1.429 . S
C285 H312 0.932 . S
C286 C283 1.358 . S
C286 C285 1.429 . S
C286 H313 0.930 . S
C287 C283 1.332 . S
C287 C288 1.394 . S
C287 H314 0.932 . S
C288 C284 1.308 . S
C288 C287 1.394 . S
C288 H315 0.929 . S
C289 Tb280 2.764 . S
C289 C283 1.504 1_655 S
C289 O301 1.239 . S
C289 O302 1.263 . S
O290 Tb280 2.325 . S
O290 C300 1.236 . S
O291 Tb281 2.322 . S
O291 C300 1.257 . S
O292 Tb281 2.349 . S
O292 C303 1.261 . S
O293 Tb280 2.303 . S
O293 C303 1.257 . S
O294 Tb281 2.415 . S
O294 C310 1.239 . S
O295 Tb281 2.399 . S
O295 C310 1.263 . S
O296 Tb281 2.325 . S
O296 C311 1.236 . S
O297 Tb280 2.322 . S
O297 C311 1.257 . S
O298 Tb280 2.349 . S
O298 C282 1.261 . S
O299 Tb281 2.303 . S
O299 C282 1.257 . S
C300 O290 1.236 . S
C300 O291 1.257 . S
O301 Tb280 2.415 . S
O301 C289 1.239 . S
O302 Tb280 2.399 . S
O302 C289 1.263 . S
C303 O292 1.261 . S
C303 O293 1.257 . S
C304 C307 1.358 . S
C304 C308 1.332 . S
C304 C310 1.504 . S
C305 C306 1.373 . S
C305 C309 1.308 . S
C306 C305 1.373 . S
C306 C307 1.429 . S
C306 H316 0.932 . S
C307 C304 1.358 . S
C307 C306 1.429 . S
C307 H317 0.930 . S
C308 C304 1.332 . S
C308 C309 1.394 . S
C308 H318 0.932 . S
C309 C305 1.308 . S
C309 C308 1.394 . S
C309 H319 0.929 . S
C310 Tb281 2.764 . S
C310 O294 1.239 . S
C310 O295 1.263 . S
C310 C304 1.504 . S
C311 O296 1.236 . S
C311 O297 1.257 . S
H312 C285 0.932 . S
H313 C286 0.930 . S
H314 C287 0.932 . S
H315 C288 0.929 . S
H316 C306 0.932 . S
H317 C307 0.930 . S
H318 C308 0.932 . S
H319 C309 0.929 . S
Tb320 C329 2.764 . S
Tb320 O330 2.325 . S
Tb320 O333 2.303 . S
Tb320 O337 2.322 . S
Tb320 O338 2.349 . S
Tb320 O341 2.415 . S
Tb320 O342 2.399 . S
Tb321 O331 2.322 . S
Tb321 O332 2.349 . S
Tb321 O334 2.415 . S
Tb321 O335 2.399 . S
Tb321 O336 2.325 . S
Tb321 O339 2.303 . S
Tb321 C350 2.764 . S
C322 O338 1.261 . S
C322 O339 1.257 . S
C323 C326 1.358 . S
C323 C327 1.332 . S
C323 C329 1.504 1_545 S
C324 C325 1.373 . S
C324 C328 1.308 . S
C325 C324 1.373 . S
C325 C326 1.429 . S
C325 H352 0.932 . S
C326 C323 1.358 . S
C326 C325 1.429 . S
C326 H353 0.930 . S
C327 C323 1.332 . S
C327 C328 1.394 . S
C327 H354 0.932 . S
C328 C324 1.308 . S
C328 C327 1.394 . S
C328 H355 0.929 . S
C329 Tb320 2.764 . S
C329 C323 1.504 1_565 S
C329 O341 1.239 . S
C329 O342 1.263 . S
O330 Tb320 2.325 . S
O330 C340 1.236 . S
O331 Tb321 2.322 . S
O331 C340 1.257 . S
O332 Tb321 2.349 . S
O332 C343 1.261 . S
O333 Tb320 2.303 . S
O333 C343 1.257 . S
O334 Tb321 2.415 . S
O334 C350 1.239 . S
O335 Tb321 2.399 . S
O335 C350 1.263 . S
O336 Tb321 2.325 . S
O336 C351 1.236 . S
O337 Tb320 2.322 . S
O337 C351 1.257 . S
O338 Tb320 2.349 . S
O338 C322 1.261 . S
O339 Tb321 2.303 . S
O339 C322 1.257 . S
C340 O330 1.236 . S
C340 O331 1.257 . S
O341 Tb320 2.415 . S
O341 C329 1.239 . S
O342 Tb320 2.399 . S
O342 C329 1.263 . S
C343 O332 1.261 . S
C343 O333 1.257 . S
C344 C347 1.358 . S
C344 C348 1.332 . S
C344 C350 1.504 . S
C345 C346 1.373 . S
C345 C349 1.308 . S
C346 C345 1.373 . S
C346 C347 1.429 . S
C346 H356 0.932 . S
C347 C344 1.358 . S
C347 C346 1.429 . S
C347 H357 0.930 . S
C348 C344 1.332 . S
C348 C349 1.394 . S
C348 H358 0.932 . S
C349 C345 1.308 . S
C349 C348 1.394 . S
C349 H359 0.929 . S
C350 Tb321 2.764 . S
C350 O334 1.239 . S
C350 O335 1.263 . S
C350 C344 1.504 . S
C351 O336 1.236 . S
C351 O337 1.257 . S
H352 C325 0.932 . S
H353 C326 0.930 . S
H354 C327 0.932 . S
H355 C328 0.929 . S
H356 C346 0.932 . S
H357 C347 0.930 . S
H358 C348 0.932 . S
H359 C349 0.929 . S
Tb360 C369 2.764 . S
Tb360 O370 2.325 . S
Tb360 O373 2.303 . S
Tb360 O377 2.322 . S
Tb360 O378 2.349 . S
Tb360 O381 2.415 . S
Tb360 O382 2.399 . S
Tb361 O371 2.322 . S
Tb361 O372 2.349 . S
Tb361 O374 2.415 . S
Tb361 O375 2.399 . S
Tb361 O376 2.325 . S
Tb361 O379 2.303 . S
Tb361 C390 2.764 . S
C362 O378 1.261 . S
C362 O379 1.257 . S
C363 C366 1.358 . S
C363 C367 1.332 . S
C363 C369 1.504 . S
C364 C365 1.373 . S
C364 C368 1.308 . S
C365 C364 1.373 . S
C365 C366 1.429 . S
C365 H392 0.932 . S
C366 C363 1.358 . S
C366 C365 1.429 . S
C366 H393 0.930 . S
C367 C363 1.332 . S
C367 C368 1.394 . S
C367 H394 0.932 . S
C368 C364 1.308 . S
C368 C367 1.394 . S
C368 H395 0.929 . S
C369 Tb360 2.764 . S
C369 C363 1.504 . S
C369 O381 1.239 . S
C369 O382 1.263 . S
O370 Tb360 2.325 . S
O370 C380 1.236 . S
O371 Tb361 2.322 . S
O371 C380 1.257 . S
O372 Tb361 2.349 . S
O372 C383 1.261 . S
O373 Tb360 2.303 . S
O373 C383 1.257 . S
O374 Tb361 2.415 . S
O374 C390 1.239 . S
O375 Tb361 2.399 . S
O375 C390 1.263 . S
O376 Tb361 2.325 . S
O376 C391 1.236 . S
O377 Tb360 2.322 . S
O377 C391 1.257 . S
O378 Tb360 2.349 . S
O378 C362 1.261 . S
O379 Tb361 2.303 . S
O379 C362 1.257 . S
C380 O370 1.236 . S
C380 O371 1.257 . S
O381 Tb360 2.415 . S
O381 C369 1.239 . S
O382 Tb360 2.399 . S
O382 C369 1.263 . S
C383 O372 1.261 . S
C383 O373 1.257 . S
C384 C387 1.358 . S
C384 C388 1.332 . S
C384 C390 1.504 . S
C385 C386 1.373 . S
C385 C389 1.308 . S
C386 C385 1.373 . S
C386 C387 1.429 . S
C386 H396 0.932 . S
C387 C384 1.358 . S
C387 C386 1.429 . S
C387 H397 0.930 . S
C388 C384 1.332 . S
C388 C389 1.394 . S
C388 H398 0.932 . S
C389 C385 1.308 . S
C389 C388 1.394 . S
C389 H399 0.929 . S
C390 Tb361 2.764 . S
C390 O374 1.239 . S
C390 O375 1.263 . S
C390 C384 1.504 . S
C391 O376 1.236 . S
C391 O377 1.257 . S
H392 C365 0.932 . S
H393 C366 0.930 . S
H394 C367 0.932 . S
H395 C368 0.929 . S
H396 C386 0.932 . S
H397 C387 0.930 . S
H398 C388 0.932 . S
H399 C389 0.929 . S
Tb400 C409 2.764 . S
Tb400 O410 2.325 . S
Tb400 O413 2.303 . S
Tb400 O417 2.322 . S
Tb400 O418 2.349 . S
Tb400 O421 2.415 . S
Tb400 O422 2.399 . S
Tb401 O411 2.322 . S
Tb401 O412 2.349 . S
Tb401 O414 2.415 . S
Tb401 O415 2.399 . S
Tb401 O416 2.325 . S
Tb401 O419 2.303 . S
Tb401 C430 2.764 . S
C402 O418 1.261 . S
C402 O419 1.257 . S
C403 C406 1.358 . S
C403 C407 1.332 . S
C403 C409 1.504 1_655 S
C404 C405 1.373 . S
C404 C408 1.308 . S
C405 C404 1.373 . S
C405 C406 1.429 . S
C405 H432 0.932 . S
C406 C403 1.358 . S
C406 C405 1.429 . S
C406 H433 0.930 . S
C407 C403 1.332 . S
C407 C408 1.394 . S
C407 H434 0.932 . S
C408 C404 1.308 . S
C408 C407 1.394 . S
C408 H435 0.929 . S
C409 Tb400 2.764 . S
C409 C403 1.504 1_455 S
C409 O421 1.239 . S
C409 O422 1.263 . S
O410 Tb400 2.325 . S
O410 C420 1.236 . S
O411 Tb401 2.322 . S
O411 C420 1.257 . S
O412 Tb401 2.349 . S
O412 C423 1.261 . S
O413 Tb400 2.303 . S
O413 C423 1.257 . S
O414 Tb401 2.415 . S
O414 C430 1.239 . S
O415 Tb401 2.399 . S
O415 C430 1.263 . S
O416 Tb401 2.325 . S
O416 C431 1.236 . S
O417 Tb400 2.322 . S
O417 C431 1.257 . S
O418 Tb400 2.349 . S
O418 C402 1.261 . S
O419 Tb401 2.303 . S
O419 C402 1.257 . S
C420 O410 1.236 . S
C420 O411 1.257 . S
O421 Tb400 2.415 . S
O421 C409 1.239 . S
O422 Tb400 2.399 . S
O422 C409 1.263 . S
C423 O412 1.261 . S
C423 O413 1.257 . S
C424 C427 1.358 . S
C424 C428 1.332 . S
C424 C430 1.504 . S
C425 C426 1.373 . S
C425 C429 1.308 . S
C426 C425 1.373 . S
C426 C427 1.429 . S
C426 H436 0.932 . S
C427 C424 1.358 . S
C427 C426 1.429 . S
C427 H437 0.930 . S
C428 C424 1.332 . S
C428 C429 1.394 . S
C428 H438 0.932 . S
C429 C425 1.308 . S
C429 C428 1.394 . S
C429 H439 0.929 . S
C430 Tb401 2.764 . S
C430 O414 1.239 . S
C430 O415 1.263 . S
C430 C424 1.504 . S
C431 O416 1.236 . S
C431 O417 1.257 . S
H432 C405 0.932 . S
H433 C406 0.930 . S
H434 C407 0.932 . S
H435 C408 0.929 . S
H436 C426 0.932 . S
H437 C427 0.930 . S
H438 C428 0.932 . S
H439 C429 0.929 . S
Tb440 C449 2.764 . S
Tb440 O450 2.325 . S
Tb440 O453 2.303 . S
Tb440 O457 2.322 . S
Tb440 O458 2.349 . S
Tb440 O461 2.415 . S
Tb440 O462 2.399 . S
Tb441 O451 2.322 . S
Tb441 O452 2.349 . S
Tb441 O454 2.415 . S
Tb441 O455 2.399 . S
Tb441 O456 2.325 . S
Tb441 O459 2.303 . S
Tb441 C470 2.764 . S
C442 O458 1.261 . S
C442 O459 1.257 . S
C443 C446 1.358 . S
C443 C447 1.332 . S
C443 C449 1.504 1_565 S
C444 C445 1.373 . S
C444 C448 1.308 . S
C445 C444 1.373 . S
C445 C446 1.429 . S
C445 H472 0.932 . S
C446 C443 1.358 . S
C446 C445 1.429 . S
C446 H473 0.930 . S
C447 C443 1.332 . S
C447 C448 1.394 . S
C447 H474 0.932 . S
C448 C444 1.308 . S
C448 C447 1.394 . S
C448 H475 0.929 . S
C449 Tb440 2.764 . S
C449 C443 1.504 1_545 S
C449 O461 1.239 . S
C449 O462 1.263 . S
O450 Tb440 2.325 . S
O450 C460 1.236 . S
O451 Tb441 2.322 . S
O451 C460 1.257 . S
O452 Tb441 2.349 . S
O452 C463 1.261 . S
O453 Tb440 2.303 . S
O453 C463 1.257 . S
O454 Tb441 2.415 . S
O454 C470 1.239 . S
O455 Tb441 2.399 . S
O455 C470 1.263 . S
O456 Tb441 2.325 . S
O456 C471 1.236 . S
O457 Tb440 2.322 . S
O457 C471 1.257 . S
O458 Tb440 2.349 . S
O458 C442 1.261 . S
O459 Tb441 2.303 . S
O459 C442 1.257 . S
C460 O450 1.236 . S
C460 O451 1.257 . S
O461 Tb440 2.415 . S
O461 C449 1.239 . S
O462 Tb440 2.399 . S
O462 C449 1.263 . S
C463 O452 1.261 . S
C463 O453 1.257 . S
C464 C467 1.358 . S
C464 C468 1.332 . S
C464 C470 1.504 . S
C465 C466 1.373 . S
C465 C469 1.308 . S
C466 C465 1.373 . S
C466 C467 1.429 . S
C466 H476 0.932 . S
C467 C464 1.358 . S
C467 C466 1.429 . S
C467 H477 0.930 . S
C468 C464 1.332 . S
C468 C469 1.394 . S
C468 H478 0.932 . S
C469 C465 1.308 . S
C469 C468 1.394 . S
C469 H479 0.929 . S
C470 Tb441 2.764 . S
C470 O454 1.239 . S
C470 O455 1.263 . S
C470 C464 1.504 . S
C471 O456 1.236 . S
C471 O457 1.257 . S
H472 C445 0.932 . S
H473 C446 0.930 . S
H474 C447 0.932 . S
H475 C448 0.929 . S
H476 C466 0.932 . S
H477 C467 0.930 . S
H478 C468 0.932 . S
H479 C469 0.929 . S
H480 C492 0.930 . S
H481 C494 0.930 . S
H482 C495 0.930 . S
H483 C499 0.959 . S
H484 C499 0.959 . S
H485 C499 0.961 . S
H486 C500 0.960 1_565 S
H487 C500 0.961 . S
H488 C500 0.959 . S
H489 C503 0.929 . S
H490 C504 0.931 . S
H491 C506 0.930 . S
C492 H480 0.930 . S
C492 C493 1.399 . S
C492 C497 1.399 . S
C493 C492 1.399 . S
C493 C494 1.376 . S
C494 H481 0.930 . S
C494 C493 1.376 . S
C494 C495 1.388 . S
C495 H482 0.930 . S
C495 C494 1.388 . S
C495 C496 1.390 . S
C496 C495 1.390 . S
C496 C497 1.394 . S
C496 C502 1.465 1_565 S
C497 C492 1.399 . S
C497 C496 1.394 . S
C497 C498 1.516 1_565 S
C498 C497 1.516 1_545 S
C498 C499 1.502 . S
C498 C500 1.561 . S
C498 C501 1.526 . S
C499 H483 0.959 . S
C499 H484 0.959 . S
C499 H485 0.961 . S
C499 C498 1.502 . S
C500 H486 0.960 1_545 S
C500 H487 0.961 . S
C500 H488 0.959 . S
C500 C498 1.561 . S
C501 C498 1.526 . S
C501 C502 1.396 . S
C501 C506 1.390 . S
C502 C496 1.465 1_545 S
C502 C501 1.396 . S
C502 C503 1.399 . S
C503 H489 0.929 . S
C503 C502 1.399 . S
C503 C504 1.385 . S
C504 H490 0.931 . S
C504 C503 1.385 . S
C504 C505 1.389 . S
C505 C504 1.389 . S
C505 C506 1.387 . S
C506 H491 0.930 . S
C506 C501 1.390 . S
C506 C505 1.387 . S
H507 C519 0.930 . S
H508 C521 0.930 . S
H509 C522 0.930 . S
H510 C526 0.959 . S
H511 C526 0.959 . S
H512 C526 0.961 . S
H513 C527 0.960 . S
H514 C527 0.961 . S
H515 C527 0.959 . S
H516 C530 0.929 . S
H517 C531 0.931 . S
H518 C533 0.930 . S
C519 H507 0.930 . S
C519 C520 1.399 . S
C519 C524 1.399 . S
C520 C519 1.399 . S
C520 C521 1.376 . S
C521 H508 0.930 . S
C521 C520 1.376 . S
C521 C522 1.388 . S
C522 H509 0.930 . S
C522 C521 1.388 . S
C522 C523 1.390 . S
C523 C522 1.390 . S
C523 C524 1.394 . S
C523 C529 1.465 . S
C524 C519 1.399 . S
C524 C523 1.394 . S
C524 C525 1.516 . S
C525 C524 1.516 . S
C525 C526 1.502 . S
C525 C527 1.561 . S
C525 C528 1.526 . S
C526 H510 0.959 . S
C526 H511 0.959 . S
C526 H512 0.961 . S
C526 C525 1.502 . S
C527 H513 0.960 . S
C527 H514 0.961 . S
C527 H515 0.959 . S
C527 C525 1.561 . S
C528 C525 1.526 . S
C528 C529 1.396 . S
C528 C533 1.390 . S
C529 C523 1.465 . S
C529 C528 1.396 . S
C529 C530 1.399 . S
C530 H516 0.929 . S
C530 C529 1.399 . S
C530 C531 1.385 . S
C531 H517 0.931 . S
C531 C530 1.385 . S
C531 C532 1.389 . S
C532 C531 1.389 . S
C532 C533 1.387 . S
C533 H518 0.930 . S
C533 C528 1.390 . S
C533 C532 1.387 . S
H534 C546 0.930 . S
H535 C548 0.930 . S
H536 C549 0.930 . S
H537 C553 0.959 . S
H538 C553 0.959 1_455 S
H539 C553 0.961 . S
H540 C554 0.960 . S
H541 C554 0.961 . S
H542 C554 0.959 . S
H543 C557 0.929 . S
H544 C558 0.931 . S
H545 C560 0.930 . S
C546 H534 0.930 . S
C546 C547 1.399 . S
C546 C551 1.399 . S
C547 C546 1.399 . S
C547 C548 1.376 . S
C548 H535 0.930 . S
C548 C547 1.376 . S
C548 C549 1.388 . S
C549 H536 0.930 . S
C549 C548 1.388 . S
C549 C550 1.390 . S
C550 C549 1.390 . S
C550 C551 1.394 . S
C550 C556 1.465 1_655 S
C551 C546 1.399 . S
C551 C550 1.394 . S
C551 C552 1.516 1_655 S
C552 C551 1.516 1_455 S
C552 C553 1.502 1_455 S
C552 C554 1.561 . S
C552 C555 1.526 . S
C553 H537 0.959 . S
C553 H538 0.959 1_655 S
C553 H539 0.961 . S
C553 C552 1.502 1_655 S
C554 H540 0.960 . S
C554 H541 0.961 . S
C554 H542 0.959 . S
C554 C552 1.561 . S
C555 C552 1.526 . S
C555 C556 1.396 . S
C555 C560 1.390 . S
C556 C550 1.465 1_455 S
C556 C555 1.396 . S
C556 C557 1.399 . S
C557 H543 0.929 . S
C557 C556 1.399 . S
C557 C558 1.385 . S
C558 H544 0.931 . S
C558 C557 1.385 . S
C558 C559 1.389 . S
C559 C558 1.389 . S
C559 C560 1.387 . S
C560 H545 0.930 . S
C560 C555 1.390 . S
C560 C559 1.387 . S
H561 C573 0.930 . S
H562 C575 0.930 . S
H563 C576 0.930 . S
H564 C580 0.959 . S
H565 C580 0.959 . S
H566 C580 0.961 . S
H567 C581 0.960 . S
H568 C581 0.961 . S
H569 C581 0.959 . S
H570 C584 0.929 . S
H571 C585 0.931 . S
H572 C587 0.930 . S
C573 H561 0.930 . S
C573 C574 1.399 . S
C573 C578 1.399 . S
C574 C573 1.399 . S
C574 C575 1.376 . S
C575 H562 0.930 . S
C575 C574 1.376 . S
C575 C576 1.388 . S
C576 H563 0.930 . S
C576 C575 1.388 . S
C576 C577 1.390 . S
C577 C576 1.390 . S
C577 C578 1.394 . S
C577 C583 1.465 1_565 S
C578 C573 1.399 . S
C578 C577 1.394 . S
C578 C579 1.516 1_565 S
C579 C578 1.516 1_545 S
C579 C580 1.502 . S
C579 C581 1.561 . S
C579 C582 1.526 . S
C580 H564 0.959 . S
C580 H565 0.959 . S
C580 H566 0.961 . S
C580 C579 1.502 . S
C581 H567 0.960 . S
C581 H568 0.961 . S
C581 H569 0.959 . S
C581 C579 1.561 . S
C582 C579 1.526 . S
C582 C583 1.396 . S
C582 C587 1.390 . S
C583 C577 1.465 1_545 S
C583 C582 1.396 . S
C583 C584 1.399 . S
C584 H570 0.929 . S
C584 C583 1.399 . S
C584 C585 1.385 . S
C585 H571 0.931 . S
C585 C584 1.385 . S
C585 C586 1.389 . S
C586 C585 1.389 . S
C586 C587 1.387 . S
C587 H572 0.930 . S
C587 C582 1.390 . S
C587 C586 1.387 . S
H588 C600 0.930 . S
H589 C602 0.930 . S
H590 C603 0.930 . S
H591 C607 0.959 . S
H592 C607 0.959 . S
H593 C607 0.961 . S
H594 C608 0.960 . S
H595 C608 0.961 . S
H596 C608 0.959 . S
H597 C611 0.929 . S
H598 C612 0.931 . S
H599 C614 0.930 . S
C600 H588 0.930 . S
C600 C601 1.399 . S
C600 C605 1.399 . S
C601 C600 1.399 . S
C601 C602 1.376 . S
C602 H589 0.930 . S
C602 C601 1.376 . S
C602 C603 1.388 . S
C603 H590 0.930 . S
C603 C602 1.388 . S
C603 C604 1.390 . S
C604 C603 1.390 . S
C604 C605 1.394 . S
C604 C610 1.465 . S
C605 C600 1.399 . S
C605 C604 1.394 . S
C605 C606 1.516 . S
C606 C605 1.516 . S
C606 C607 1.502 . S
C606 C608 1.561 . S
C606 C609 1.526 . S
C607 H591 0.959 . S
C607 H592 0.959 . S
C607 H593 0.961 . S
C607 C606 1.502 . S
C608 H594 0.960 . S
C608 H595 0.961 . S
C608 H596 0.959 . S
C608 C606 1.561 . S
C609 C606 1.526 . S
C609 C610 1.396 . S
C609 C614 1.390 . S
C610 C604 1.465 . S
C610 C609 1.396 . S
C610 C611 1.399 . S
C611 H597 0.929 . S
C611 C610 1.399 . S
C611 C612 1.385 . S
C612 H598 0.931 . S
C612 C611 1.385 . S
C612 C613 1.389 . S
C613 C612 1.389 . S
C613 C614 1.387 . S
C614 H599 0.930 . S
C614 C609 1.390 . S
C614 C613 1.387 . S
H615 C627 0.930 . S
H616 C629 0.930 . S
H617 C630 0.930 . S
H618 C634 0.959 . S
H619 C634 0.959 . S
H620 C634 0.961 . S
H621 C635 0.960 . S
H622 C635 0.961 1_455 S
H623 C635 0.959 1_455 S
H624 C638 0.929 . S
H625 C639 0.931 . S
H626 C641 0.930 . S
C627 H615 0.930 . S
C627 C628 1.399 . S
C627 C632 1.399 . S
C628 C627 1.399 . S
C628 C629 1.376 . S
C629 H616 0.930 . S
C629 C628 1.376 . S
C629 C630 1.388 . S
C630 H617 0.930 . S
C630 C629 1.388 . S
C630 C631 1.390 . S
C631 C630 1.390 . S
C631 C632 1.394 . S
C631 C637 1.465 1_655 S
C632 C627 1.399 . S
C632 C631 1.394 . S
C632 C633 1.516 . S
C633 C632 1.516 . S
C633 C634 1.502 . S
C633 C635 1.561 . S
C633 C636 1.526 1_655 S
C634 H618 0.959 . S
C634 H619 0.959 . S
C634 H620 0.961 . S
C634 C633 1.502 . S
C635 H621 0.960 . S
C635 H622 0.961 1_655 S
C635 H623 0.959 1_655 S
C635 C633 1.561 . S
C636 C633 1.526 1_455 S
C636 C637 1.396 . S
C636 C641 1.390 . S
C637 C631 1.465 1_455 S
C637 C636 1.396 . S
C637 C638 1.399 . S
C638 H624 0.929 . S
C638 C637 1.399 . S
C638 C639 1.385 . S
C639 H625 0.931 . S
C639 C638 1.385 . S
C639 C640 1.389 . S
C640 C639 1.389 . S
C640 C641 1.387 . S
C641 H626 0.930 . S
C641 C636 1.390 . S
C641 C640 1.387 . S
H642 C654 0.930 . S
H643 C656 0.930 . S
H644 C657 0.930 . S
H645 C661 0.959 . S
H646 C661 0.985 . S
H647 C661 0.961 . S
H648 C662 0.960 . S
H649 C662 0.961 . S
H650 C662 0.959 . S
H651 C665 0.929 . S
H652 C666 0.931 . S
H653 C668 0.930 . S
C654 H642 0.930 . S
C654 C655 1.399 . S
C654 C659 1.399 . S
C655 C654 1.399 . S
C655 C656 1.376 . S
C656 H643 0.930 . S
C656 C655 1.376 . S
C656 C657 1.388 . S
C657 H644 0.930 . S
C657 C656 1.388 . S
C657 C658 1.390 . S
C658 C657 1.390 . S
C658 C659 1.394 . S
C658 C664 1.465 1_455 S
C659 C654 1.399 . S
C659 C658 1.394 . S
C659 C660 1.516 . S
C660 C659 1.516 . S
C660 C661 1.502 . S
C660 C662 1.561 . S
C660 C663 1.526 1_455 S
C661 H645 0.959 . S
C661 H646 0.985 . S
C661 H647 0.961 . S
C661 C660 1.502 . S
C662 H648 0.960 . S
C662 H649 0.961 . S
C662 H650 0.959 . S
C662 C660 1.561 . S
C663 C660 1.526 1_655 S
C663 C664 1.396 . S
C663 C668 1.390 . S
C664 C658 1.465 1_655 S
C664 C663 1.396 . S
C664 C665 1.399 . S
C665 H651 0.929 . S
C665 C664 1.399 . S
C665 C666 1.385 . S
C666 H652 0.931 . S
C666 C665 1.385 . S
C666 C667 1.389 . S
C667 C666 1.389 . S
C667 C668 1.387 . S
C668 H653 0.930 . S
C668 C663 1.390 . S
C668 C667 1.387 . S
H669 C681 0.930 . S
H670 C683 0.930 . S
H671 C684 0.930 . S
H672 C688 0.959 . S
H673 C688 0.959 . S
H674 C688 0.961 1_565 S
H675 C689 0.960 . S
H676 C689 0.960 . S
H677 C689 0.959 . S
H678 C692 0.929 . S
H679 C693 0.931 . S
H680 C695 0.930 . S
C681 H669 0.930 . S
C681 C682 1.399 . S
C681 C686 1.399 . S
C682 C681 1.399 . S
C682 C683 1.376 . S
C683 H670 0.930 . S
C683 C682 1.376 . S
C683 C684 1.388 . S
C684 H671 0.930 . S
C684 C683 1.388 . S
C684 C685 1.390 . S
C685 C684 1.390 . S
C685 C686 1.394 . S
C685 C691 1.465 1_565 S
C686 C681 1.399 . S
C686 C685 1.394 . S
C686 C687 1.516 . S
C687 C686 1.516 . S
C687 C688 1.502 1_565 S
C687 C689 1.561 . S
C687 C690 1.526 1_565 S
C688 H672 0.959 . S
C688 H673 0.959 . S
C688 H674 0.961 1_545 S
C688 C687 1.502 1_545 S
C689 H675 0.960 . S
C689 H676 0.960 . S
C689 H677 0.959 . S
C689 C687 1.561 . S
C690 C687 1.526 1_545 S
C690 C691 1.396 . S
C690 C695 1.390 . S
C691 C685 1.465 1_545 S
C691 C690 1.396 . S
C691 C692 1.399 . S
C692 H678 0.929 . S
C692 C691 1.399 . S
C692 C693 1.385 . S
C693 H679 0.931 . S
C693 C692 1.385 . S
C693 C694 1.389 . S
C694 C693 1.389 . S
C694 C695 1.387 . S
C695 H680 0.930 . S
C695 C690 1.390 . S
C695 C694 1.387 . S
H696 C708 0.930 . S
H697 C710 0.930 . S
H698 C711 0.930 . S
H699 C715 0.959 . S
H700 C715 0.959 . S
H701 C715 0.961 . S
H702 C716 0.960 . S
H703 C716 0.961 . S
H704 C716 0.959 . S
H705 C719 0.929 . S
H706 C720 0.931 . S
H707 C722 0.930 . S
C708 H696 0.930 . S
C708 C709 1.399 . S
C708 C713 1.399 . S
C709 C708 1.399 . S
C709 C710 1.376 . S
C710 H697 0.930 . S
C710 C709 1.376 . S
C710 C711 1.388 . S
C711 H698 0.930 . S
C711 C710 1.388 . S
C711 C712 1.390 . S
C712 C711 1.390 . S
C712 C713 1.394 . S
C712 C718 1.465 . S
C713 C708 1.399 . S
C713 C712 1.394 . S
C713 C714 1.516 . S
C714 C713 1.516 . S
C714 C715 1.502 . S
C714 C716 1.561 . S
C714 C717 1.526 . S
C715 H699 0.959 . S
C715 H700 0.959 . S
C715 H701 0.961 . S
C715 C714 1.502 . S
C716 H702 0.960 . S
C716 H703 0.961 . S
C716 H704 0.959 . S
C716 C714 1.561 . S
C717 C714 1.526 . S
C717 C718 1.396 . S
C717 C722 1.390 . S
C718 C712 1.465 . S
C718 C717 1.396 . S
C718 C719 1.399 . S
C719 H705 0.929 . S
C719 C718 1.399 . S
C719 C720 1.385 . S
C720 H706 0.931 . S
C720 C719 1.385 . S
C720 C721 1.389 . S
C721 C720 1.389 . S
C721 C722 1.387 . S
C722 H707 0.930 . S
C722 C717 1.390 . S
C722 C721 1.387 . S
H723 C735 0.930 . S
H724 C737 0.930 . S
H725 C738 0.930 . S
H726 C742 0.959 . S
H727 C742 0.959 . S
H728 C742 0.961 . S
H729 C743 0.960 . S
H730 C743 0.961 . S
H731 C743 0.959 . S
H732 C746 0.929 . S
H733 C747 0.931 . S
H734 C749 0.930 . S
C735 H723 0.930 . S
C735 C736 1.399 . S
C735 C740 1.399 . S
C736 C735 1.399 . S
C736 C737 1.376 . S
C737 H724 0.930 . S
C737 C736 1.376 . S
C737 C738 1.388 . S
C738 H725 0.930 . S
C738 C737 1.388 . S
C738 C739 1.390 . S
C739 C738 1.390 . S
C739 C740 1.394 . S
C739 C745 1.465 1_455 S
C740 C735 1.399 . S
C740 C739 1.394 . S
C740 C741 1.516 1_455 S
C741 C740 1.516 1_655 S
C741 C742 1.502 . S
C741 C743 1.561 . S
C741 C744 1.526 . S
C742 H726 0.959 . S
C742 H727 0.959 . S
C742 H728 0.961 . S
C742 C741 1.502 . S
C743 H729 0.960 . S
C743 H730 0.961 . S
C743 H731 0.959 . S
C743 C741 1.561 . S
C744 C741 1.526 . S
C744 C745 1.396 . S
C744 C749 1.390 . S
C745 C739 1.465 1_655 S
C745 C744 1.396 . S
C745 C746 1.399 . S
C746 H732 0.929 . S
C746 C745 1.399 . S
C746 C747 1.385 . S
C747 H733 0.931 . S
C747 C746 1.385 . S
C747 C748 1.389 . S
C748 C747 1.389 . S
C748 C749 1.387 . S
C749 H734 0.930 . S
C749 C744 1.390 . S
C749 C748 1.387 . S
H750 C762 0.930 . S
H751 C764 0.930 . S
H752 C765 0.930 . S
H753 C769 0.959 . S
H754 C769 0.959 . S
H755 C769 0.961 1_545 S
H756 C770 0.960 . S
H757 C770 0.959 . S
H758 C770 0.959 . S
H759 C773 0.929 . S
H760 C774 0.931 . S
H761 C776 0.930 . S
C762 H750 0.930 . S
C762 C763 1.399 . S
C762 C767 1.399 . S
C763 C762 1.399 . S
C763 C764 1.376 . S
C764 H751 0.930 . S
C764 C763 1.376 . S
C764 C765 1.388 . S
C765 H752 0.930 . S
C765 C764 1.388 . S
C765 C766 1.390 . S
C766 C765 1.390 . S
C766 C767 1.394 . S
C766 C772 1.465 1_545 S
C767 C762 1.399 . S
C767 C766 1.394 . S
C767 C768 1.516 . S
C768 C767 1.516 . S
C768 C769 1.502 1_545 S
C768 C770 1.561 . S
C768 C771 1.526 1_545 S
C769 H753 0.959 . S
C769 H754 0.959 . S
C769 H755 0.961 1_565 S
C769 C768 1.502 1_565 S
C770 H756 0.960 . S
C770 H757 0.959 . S
C770 H758 0.959 . S
C770 C768 1.561 . S
C771 C768 1.526 1_565 S
C771 C772 1.396 . S
C771 C776 1.390 . S
C772 C766 1.465 1_565 S
C772 C771 1.396 . S
C772 C773 1.399 . S
C773 H759 0.929 . S
C773 C772 1.399 . S
C773 C774 1.385 . S
C774 H760 0.931 . S
C774 C773 1.385 . S
C774 C775 1.389 . S
C775 C774 1.389 . S
C775 C776 1.387 . S
C776 H761 0.930 . S
C776 C771 1.390 . S
C776 C775 1.387 . S
H777 C789 0.930 . S
H778 C791 0.930 . S
H779 C792 0.930 . S
H780 C796 0.959 . S
H781 C796 0.959 . S
H782 C796 0.961 . S
H783 C797 0.960 . S
H784 C797 0.961 . S
H785 C797 0.959 . S
H786 C800 0.929 . S
H787 C801 0.931 . S
H788 C803 0.930 . S
C789 H777 0.930 . S
C789 C790 1.399 . S
C789 C794 1.399 . S
C790 C789 1.399 . S
C790 C791 1.376 . S
C791 H778 0.930 . S
C791 C790 1.376 . S
C791 C792 1.388 . S
C792 H779 0.930 . S
C792 C791 1.388 . S
C792 C793 1.390 . S
C793 C792 1.390 . S
C793 C794 1.394 . S
C793 C799 1.465 . S
C794 C789 1.399 . S
C794 C793 1.394 . S
C794 C795 1.516 . S
C795 C794 1.516 . S
C795 C796 1.502 . S
C795 C797 1.561 . S
C795 C798 1.526 . S
C796 H780 0.959 . S
C796 H781 0.959 . S
C796 H782 0.961 . S
C796 C795 1.502 . S
C797 H783 0.960 . S
C797 H784 0.961 . S
C797 H785 0.959 . S
C797 C795 1.561 . S
C798 C795 1.526 . S
C798 C799 1.396 . S
C798 C803 1.390 . S
C799 C793 1.465 . S
C799 C798 1.396 . S
C799 C800 1.399 . S
C800 H786 0.929 . S
C800 C799 1.399 . S
C800 C801 1.385 . S
C801 H787 0.931 . S
C801 C800 1.385 . S
C801 C802 1.389 . S
C802 C801 1.389 . S
C802 C803 1.387 . S
C803 H788 0.930 . S
C803 C798 1.390 . S
C803 C802 1.387 . S
H804 C816 0.930 . S
H805 C818 0.930 . S
H806 C819 0.930 . S
H807 C823 0.959 . S
H808 C823 0.959 . S
H809 C823 0.961 . S
H810 C824 0.960 . S
H811 C824 0.961 . S
H812 C824 0.959 . S
H813 C827 0.929 . S
H814 C828 0.931 . S
H815 C830 0.930 . S
C816 H804 0.930 . S
C816 C817 1.399 . S
C816 C821 1.399 . S
C817 C816 1.399 . S
C817 C818 1.376 . S
C818 H805 0.930 . S
C818 C817 1.376 . S
C818 C819 1.388 . S
C819 H806 0.930 . S
C819 C818 1.388 . S
C819 C820 1.390 . S
C820 C819 1.390 . S
C820 C821 1.394 . S
C820 C826 1.465 . S
C821 C816 1.399 . S
C821 C820 1.394 . S
C821 C822 1.516 . S
C822 C821 1.516 . S
C822 C823 1.502 . S
C822 C824 1.561 . S
C822 C825 1.526 . S
C823 H807 0.959 . S
C823 H808 0.959 . S
C823 H809 0.961 . S
C823 C822 1.502 . S
C824 H810 0.960 . S
C824 H811 0.961 . S
C824 H812 0.959 . S
C824 C822 1.561 . S
C825 C822 1.526 . S
C825 C826 1.396 . S
C825 C830 1.390 . S
C826 C820 1.465 . S
C826 C825 1.396 . S
C826 C827 1.399 . S
C827 H813 0.929 . S
C827 C826 1.399 . S
C827 C828 1.385 . S
C828 H814 0.931 . S
C828 C827 1.385 . S
C828 C829 1.389 . S
C829 C828 1.389 . S
C829 C830 1.387 . S
C830 H815 0.930 . S
C830 C825 1.390 . S
C830 C829 1.387 . S
H831 C843 0.930 . S
H832 C845 0.930 . S
H833 C846 0.930 . S
H834 C850 0.959 . S
H835 C850 0.959 . S
H836 C850 0.961 . S
H837 C851 0.960 . S
H838 C851 0.961 . S
H839 C851 0.959 . S
H840 C854 0.929 . S
H841 C855 0.931 . S
H842 C857 0.930 . S
C843 H831 0.930 . S
C843 C844 1.399 . S
C843 C848 1.399 . S
C844 C843 1.399 . S
C844 C845 1.376 . S
C845 H832 0.930 . S
C845 C844 1.376 . S
C845 C846 1.388 . S
C846 H833 0.930 . S
C846 C845 1.388 . S
C846 C847 1.390 . S
C847 C846 1.390 . S
C847 C848 1.394 . S
C847 C853 1.465 . S
C848 C843 1.399 . S
C848 C847 1.394 . S
C848 C849 1.516 . S
C849 C848 1.516 . S
C849 C850 1.502 . S
C849 C851 1.561 . S
C849 C852 1.526 . S
C850 H834 0.959 . S
C850 H835 0.959 . S
C850 H836 0.961 . S
C850 C849 1.502 . S
C851 H837 0.960 . S
C851 H838 0.961 . S
C851 H839 0.959 . S
C851 C849 1.561 . S
C852 C849 1.526 . S
C852 C853 1.396 . S
C852 C857 1.390 . S
C853 C847 1.465 . S
C853 C852 1.396 . S
C853 C854 1.399 . S
C854 H840 0.929 . S
C854 C853 1.399 . S
C854 C855 1.385 . S
C855 H841 0.931 . S
C855 C854 1.385 . S
C855 C856 1.389 . S
C856 C855 1.389 . S
C856 C857 1.387 . S
C857 H842 0.930 . S
C857 C852 1.390 . S
C857 C856 1.387 . S
H858 C870 0.930 . S
H859 C872 0.930 . S
H860 C873 0.930 . S
H861 C877 0.959 . S
H862 C877 0.959 . S
H863 C877 0.961 . S
H864 C878 0.960 . S
H865 C878 0.961 . S
H866 C878 0.959 . S
H867 C881 0.929 . S
H868 C882 0.931 . S
H869 C884 0.930 . S
C870 H858 0.930 . S
C870 C871 1.399 . S
C870 C875 1.399 . S
C871 C870 1.399 . S
C871 C872 1.376 . S
C872 H859 0.930 . S
C872 C871 1.376 . S
C872 C873 1.388 . S
C873 H860 0.930 . S
C873 C872 1.388 . S
C873 C874 1.390 . S
C874 C873 1.390 . S
C874 C875 1.394 . S
C874 C880 1.465 . S
C875 C870 1.399 . S
C875 C874 1.394 . S
C875 C876 1.516 . S
C876 C875 1.516 . S
C876 C877 1.502 . S
C876 C878 1.561 . S
C876 C879 1.526 . S
C877 H861 0.959 . S
C877 H862 0.959 . S
C877 H863 0.961 . S
C877 C876 1.502 . S
C878 H864 0.960 . S
C878 H865 0.961 . S
C878 H866 0.959 . S
C878 C876 1.561 . S
C879 C876 1.526 . S
C879 C880 1.396 . S
C879 C884 1.390 . S
C880 C874 1.465 . S
C880 C879 1.396 . S
C880 C881 1.399 . S
C881 H867 0.929 . S
C881 C880 1.399 . S
C881 C882 1.385 . S
C882 H868 0.931 . S
C882 C881 1.385 . S
C882 C883 1.389 . S
C883 C882 1.389 . S
C883 C884 1.387 . S
C884 H869 0.930 . S
C884 C879 1.390 . S
C884 C883 1.387 . S
H885 C897 0.930 . S
H886 C899 0.930 . S
H887 C900 0.930 . S
H888 C904 0.959 . S
H889 C904 0.959 . S
H890 C904 0.961 . S
H891 C905 0.960 . S
H892 C905 0.961 . S
H893 C905 0.959 . S
H894 C908 0.929 . S
H895 C909 0.931 . S
H896 C911 0.930 . S
C897 H885 0.930 . S
C897 C898 1.399 . S
C897 C902 1.399 . S
C898 C897 1.399 . S
C898 C899 1.376 . S
C899 H886 0.930 . S
C899 C898 1.376 . S
C899 C900 1.388 . S
C900 H887 0.930 . S
C900 C899 1.388 . S
C900 C901 1.390 . S
C901 C900 1.390 . S
C901 C902 1.394 . S
C901 C907 1.465 . S
C902 C897 1.399 . S
C902 C901 1.394 . S
C902 C903 1.516 . S
C903 C902 1.516 . S
C903 C904 1.502 . S
C903 C905 1.561 . S
C903 C906 1.526 . S
C904 H888 0.959 . S
C904 H889 0.959 . S
C904 H890 0.961 . S
C904 C903 1.502 . S
C905 H891 0.960 . S
C905 H892 0.961 . S
C905 H893 0.959 . S
C905 C903 1.561 . S
C906 C903 1.526 . S
C906 C907 1.396 . S
C906 C911 1.390 . S
C907 C901 1.465 . S
C907 C906 1.396 . S
C907 C908 1.399 . S
C908 H894 0.929 . S
C908 C907 1.399 . S
C908 C909 1.385 . S
C909 H895 0.931 . S
C909 C908 1.385 . S
C909 C910 1.389 . S
C910 C909 1.389 . S
C910 C911 1.387 . S
C911 H896 0.930 . S
C911 C906 1.390 . S
C911 C910 1.387 . S
H912 C924 0.930 . S
H913 C926 0.930 . S
H914 C927 0.930 . S
H915 C931 0.959 . S
H916 C931 0.959 . S
H917 C931 0.961 . S
H918 C932 0.960 . S
H919 C932 0.961 . S
H920 C932 0.959 . S
H921 C935 0.929 . S
H922 C936 0.931 . S
H923 C938 0.930 . S
C924 H912 0.930 . S
C924 C925 1.399 . S
C924 C929 1.399 . S
C925 C924 1.399 . S
C925 C926 1.376 . S
C926 H913 0.930 . S
C926 C925 1.376 . S
C926 C927 1.388 . S
C927 H914 0.930 . S
C927 C926 1.388 . S
C927 C928 1.390 . S
C928 C927 1.390 . S
C928 C929 1.394 . S
C928 C934 1.465 . S
C929 C924 1.399 . S
C929 C928 1.394 . S
C929 C930 1.516 . S
C930 C929 1.516 . S
C930 C931 1.502 . S
C930 C932 1.561 . S
C930 C933 1.526 . S
C931 H915 0.959 . S
C931 H916 0.959 . S
C931 H917 0.961 . S
C931 C930 1.502 . S
C932 H918 0.960 . S
C932 H919 0.961 . S
C932 H920 0.959 . S
C932 C930 1.561 . S
C933 C930 1.526 . S
C933 C934 1.396 . S
C933 C938 1.390 . S
C934 C928 1.465 . S
C934 C933 1.396 . S
C934 C935 1.399 . S
C935 H921 0.929 . S
C935 C934 1.399 . S
C935 C936 1.385 . S
C936 H922 0.931 . S
C936 C935 1.385 . S
C936 C937 1.389 . S
C937 C936 1.389 . S
C937 C938 1.387 . S
C938 H923 0.930 . S
C938 C933 1.390 . S
C938 C937 1.387 . S
H939 C951 0.930 . S
H940 C953 0.930 . S
H941 C954 0.930 . S
H942 C958 0.959 . S
H943 C958 0.959 . S
H944 C958 0.961 . S
H945 C959 0.960 . S
H946 C959 0.961 . S
H947 C959 0.959 . S
H948 C962 0.929 . S
H949 C963 0.931 . S
H950 C965 0.930 . S
C951 H939 0.930 . S
C951 C952 1.399 . S
C951 C956 1.399 . S
C952 C951 1.399 . S
C952 C953 1.376 . S
C953 H940 0.930 . S
C953 C952 1.376 . S
C953 C954 1.388 . S
C954 H941 0.930 . S
C954 C953 1.388 . S
C954 C955 1.390 . S
C955 C954 1.390 . S
C955 C956 1.394 . S
C955 C961 1.465 . S
C956 C951 1.399 . S
C956 C955 1.394 . S
C956 C957 1.516 . S
C957 C956 1.516 . S
C957 C958 1.502 . S
C957 C959 1.561 . S
C957 C960 1.526 . S
C958 H942 0.959 . S
C958 H943 0.959 . S
C958 H944 0.961 . S
C958 C957 1.502 . S
C959 H945 0.960 . S
C959 H946 0.961 . S
C959 H947 0.959 . S
C959 C957 1.561 . S
C960 C957 1.526 . S
C960 C961 1.396 . S
C960 C965 1.390 . S
C961 C955 1.465 . S
C961 C960 1.396 . S
C961 C962 1.399 . S
C962 H948 0.929 . S
C962 C961 1.399 . S
C962 C963 1.385 . S
C963 H949 0.931 . S
C963 C962 1.385 . S
C963 C964 1.389 . S
C964 C963 1.389 . S
C964 C965 1.387 . S
C965 H950 0.930 . S
C965 C960 1.390 . S
C965 C964 1.387 . S
H966 C978 0.930 . S
H967 C980 0.930 . S
H968 C981 0.930 . S
H969 C985 0.959 . S
H970 C985 0.959 . S
H971 C985 0.961 . S
H972 C986 0.960 . S
H973 C986 0.961 . S
H974 C986 0.959 . S
H975 C989 0.929 . S
H976 C990 0.931 . S
H977 C992 0.930 . S
C978 H966 0.930 . S
C978 C979 1.399 . S
C978 C983 1.399 . S
C979 C978 1.399 . S
C979 C980 1.376 . S
C980 H967 0.930 . S
C980 C979 1.376 . S
C980 C981 1.388 . S
C981 H968 0.930 . S
C981 C980 1.388 . S
C981 C982 1.390 . S
C982 C981 1.390 . S
C982 C983 1.394 . S
C982 C988 1.465 . S
C983 C978 1.399 . S
C983 C982 1.394 . S
C983 C984 1.516 . S
C984 C983 1.516 . S
C984 C985 1.502 . S
C984 C986 1.561 . S
C984 C987 1.526 . S
C985 H969 0.959 . S
C985 H970 0.959 . S
C985 H971 0.961 . S
C985 C984 1.502 . S
C986 H972 0.960 . S
C986 H973 0.961 . S
C986 H974 0.959 . S
C986 C984 1.561 . S
C987 C984 1.526 . S
C987 C988 1.396 . S
C987 C992 1.390 . S
C988 C982 1.465 . S
C988 C987 1.396 . S
C988 C989 1.399 . S
C989 H975 0.929 . S
C989 C988 1.399 . S
C989 C990 1.385 . S
C990 H976 0.931 . S
C990 C989 1.385 . S
C990 C991 1.389 . S
C991 C990 1.389 . S
C991 C992 1.387 . S
C992 H977 0.930 . S
C992 C987 1.390 . S
C992 C991 1.387 . S
H993 C1005 0.930 . S
H994 C1007 0.930 . S
H995 C1008 0.930 . S
H996 C1012 0.959 . S
H997 C1012 0.959 . S
H998 C1012 0.961 . S
H999 C1013 0.960 . S
H1000 C1013 0.961 . S
H1001 C1013 0.959 . S
H1002 C1016 0.929 . S
H1003 C1017 0.931 . S
H1004 C1019 0.930 . S
C1005 H993 0.930 . S
C1005 C1006 1.399 . S
C1005 C1010 1.399 . S
C1006 C1005 1.399 . S
C1006 C1007 1.376 . S
C1007 H994 0.930 . S
C1007 C1006 1.376 . S
C1007 C1008 1.388 . S
C1008 H995 0.930 . S
C1008 C1007 1.388 . S
C1008 C1009 1.390 . S
C1009 C1008 1.390 . S
C1009 C1010 1.394 . S
C1009 C1015 1.465 . S
C1010 C1005 1.399 . S
C1010 C1009 1.394 . S
C1010 C1011 1.516 . S
C1011 C1010 1.516 . S
C1011 C1012 1.502 . S
C1011 C1013 1.561 . S
C1011 C1014 1.526 . S
C1012 H996 0.959 . S
C1012 H997 0.959 . S
C1012 H998 0.961 . S
C1012 C1011 1.502 . S
C1013 H999 0.960 . S
C1013 H1000 0.961 . S
C1013 H1001 0.959 . S
C1013 C1011 1.561 . S
C1014 C1011 1.526 . S
C1014 C1015 1.396 . S
C1014 C1019 1.390 . S
C1015 C1009 1.465 . S
C1015 C1014 1.396 . S
C1015 C1016 1.399 . S
C1016 H1002 0.929 . S
C1016 C1015 1.399 . S
C1016 C1017 1.385 . S
C1017 H1003 0.931 . S
C1017 C1016 1.385 . S
C1017 C1018 1.389 . S
C1018 C1017 1.389 . S
C1018 C1019 1.387 . S
C1019 H1004 0.930 . S
C1019 C1014 1.390 . S
C1019 C1018 1.387 . S
H1020 C1032 0.930 . S
H1021 C1034 0.930 . S
H1022 C1035 0.930 . S
H1023 C1039 0.959 . S
H1024 C1039 0.959 . S
H1025 C1039 0.961 . S
H1026 C1040 0.960 . S
H1027 C1040 0.961 . S
H1028 C1040 0.959 . S
H1029 C1043 0.929 . S
H1030 C1044 0.931 . S
H1031 C1046 0.930 . S
C1032 H1020 0.930 . S
C1032 C1033 1.399 . S
C1032 C1037 1.399 . S
C1033 C1032 1.399 . S
C1033 C1034 1.376 . S
C1034 H1021 0.930 . S
C1034 C1033 1.376 . S
C1034 C1035 1.388 . S
C1035 H1022 0.930 . S
C1035 C1034 1.388 . S
C1035 C1036 1.390 . S
C1036 C1035 1.390 . S
C1036 C1037 1.394 . S
C1036 C1042 1.465 . S
C1037 C1032 1.399 . S
C1037 C1036 1.394 . S
C1037 C1038 1.516 . S
C1038 C1037 1.516 . S
C1038 C1039 1.502 . S
C1038 C1040 1.561 . S
C1038 C1041 1.526 . S
C1039 H1023 0.959 . S
C1039 H1024 0.959 . S
C1039 H1025 0.961 . S
C1039 C1038 1.502 . S
C1040 H1026 0.960 . S
C1040 H1027 0.961 . S
C1040 H1028 0.959 . S
C1040 C1038 1.561 . S
C1041 C1038 1.526 . S
C1041 C1042 1.396 . S
C1041 C1046 1.390 . S
C1042 C1036 1.465 . S
C1042 C1041 1.396 . S
C1042 C1043 1.399 . S
C1043 H1029 0.929 . S
C1043 C1042 1.399 . S
C1043 C1044 1.385 . S
C1044 H1030 0.931 . S
C1044 C1043 1.385 . S
C1044 C1045 1.389 . S
C1045 C1044 1.389 . S
C1045 C1046 1.387 . S
C1046 H1031 0.930 . S
C1046 C1041 1.390 . S
C1046 C1045 1.387 . S
H1047 C1059 0.930 . S
H1048 C1061 0.930 . S
H1049 C1062 0.930 . S
H1050 C1066 0.959 . S
H1051 C1066 0.959 . S
H1052 C1066 0.961 . S
H1053 C1067 0.960 . S
H1054 C1067 0.961 . S
H1055 C1067 0.959 . S
H1056 C1070 0.929 . S
H1057 C1071 0.931 . S
H1058 C1073 0.930 . S
C1059 H1047 0.930 . S
C1059 C1060 1.399 . S
C1059 C1064 1.399 . S
C1060 C1059 1.399 . S
C1060 C1061 1.376 . S
C1061 H1048 0.930 . S
C1061 C1060 1.376 . S
C1061 C1062 1.388 . S
C1062 H1049 0.930 . S
C1062 C1061 1.388 . S
C1062 C1063 1.390 . S
C1063 C1062 1.390 . S
C1063 C1064 1.394 . S
C1063 C1069 1.465 . S
C1064 C1059 1.399 . S
C1064 C1063 1.394 . S
C1064 C1065 1.516 . S
C1065 C1064 1.516 . S
C1065 C1066 1.502 . S
C1065 C1067 1.561 . S
C1065 C1068 1.526 . S
C1066 H1050 0.959 . S
C1066 H1051 0.959 . S
C1066 H1052 0.961 . S
C1066 C1065 1.502 . S
C1067 H1053 0.960 . S
C1067 H1054 0.961 . S
C1067 H1055 0.959 . S
C1067 C1065 1.561 . S
C1068 C1065 1.526 . S
C1068 C1069 1.396 . S
C1068 C1073 1.390 . S
C1069 C1063 1.465 . S
C1069 C1068 1.396 . S
C1069 C1070 1.399 . S
C1070 H1056 0.929 . S
C1070 C1069 1.399 . S
C1070 C1071 1.385 . S
C1071 H1057 0.931 . S
C1071 C1070 1.385 . S
C1071 C1072 1.389 . S
C1072 C1071 1.389 . S
C1072 C1073 1.387 . S
C1073 H1058 0.930 . S
C1073 C1068 1.390 . S
C1073 C1072 1.387 . S
H1074 C1086 0.930 . S
H1075 C1088 0.930 . S
H1076 C1089 0.930 . S
H1077 C1093 0.959 . S
H1078 C1093 0.959 . S
H1079 C1093 0.961 . S
H1080 C1094 0.960 . S
H1081 C1094 0.961 . S
H1082 C1094 0.959 . S
H1083 C1097 0.929 . S
H1084 C1098 0.931 . S
H1085 C1100 0.930 . S
C1086 H1074 0.930 . S
C1086 C1087 1.399 . S
C1086 C1091 1.399 . S
C1087 C1086 1.399 . S
C1087 C1088 1.376 . S
C1088 H1075 0.930 . S
C1088 C1087 1.376 . S
C1088 C1089 1.388 . S
C1089 H1076 0.930 . S
C1089 C1088 1.388 . S
C1089 C1090 1.390 . S
C1090 C1089 1.390 . S
C1090 C1091 1.394 . S
C1090 C1096 1.465 . S
C1091 C1086 1.399 . S
C1091 C1090 1.394 . S
C1091 C1092 1.516 . S
C1092 C1091 1.516 . S
C1092 C1093 1.502 . S
C1092 C1094 1.561 . S
C1092 C1095 1.526 . S
C1093 H1077 0.959 . S
C1093 H1078 0.959 . S
C1093 H1079 0.961 . S
C1093 C1092 1.502 . S
C1094 H1080 0.960 . S
C1094 H1081 0.961 . S
C1094 H1082 0.959 . S
C1094 C1092 1.561 . S
C1095 C1092 1.526 . S
C1095 C1096 1.396 . S
C1095 C1100 1.390 . S
C1096 C1090 1.465 . S
C1096 C1095 1.396 . S
C1096 C1097 1.399 . S
C1097 H1083 0.929 . S
C1097 C1096 1.399 . S
C1097 C1098 1.385 . S
C1098 H1084 0.931 . S
C1098 C1097 1.385 . S
C1098 C1099 1.389 . S
C1099 C1098 1.389 . S
C1099 C1100 1.387 . S
C1100 H1085 0.930 . S
C1100 C1095 1.390 . S
C1100 C1099 1.387 . S
H1101 C1113 0.930 . S
H1102 C1115 0.930 . S
H1103 C1116 0.930 . S
H1104 C1120 0.959 . S
H1105 C1120 0.959 . S
H1106 C1120 0.961 . S
H1107 C1121 0.960 . S
H1108 C1121 0.961 . S
H1109 C1121 0.959 . S
H1110 C1124 0.929 . S
H1111 C1125 0.931 . S
H1112 C1127 0.930 . S
C1113 H1101 0.930 . S
C1113 C1114 1.399 . S
C1113 C1118 1.399 . S
C1114 C1113 1.399 . S
C1114 C1115 1.376 . S
C1115 H1102 0.930 . S
C1115 C1114 1.376 . S
C1115 C1116 1.388 . S
C1116 H1103 0.930 . S
C1116 C1115 1.388 . S
C1116 C1117 1.390 . S
C1117 C1116 1.390 . S
C1117 C1118 1.394 . S
C1117 C1123 1.465 . S
C1118 C1113 1.399 . S
C1118 C1117 1.394 . S
C1118 C1119 1.516 . S
C1119 C1118 1.516 . S
C1119 C1120 1.502 . S
C1119 C1121 1.561 . S
C1119 C1122 1.526 . S
C1120 H1104 0.959 . S
C1120 H1105 0.959 . S
C1120 H1106 0.961 . S
C1120 C1119 1.502 . S
C1121 H1107 0.960 . S
C1121 H1108 0.961 . S
C1121 H1109 0.959 . S
C1121 C1119 1.561 . S
C1122 C1119 1.526 . S
C1122 C1123 1.396 . S
C1122 C1127 1.390 . S
C1123 C1117 1.465 . S
C1123 C1122 1.396 . S
C1123 C1124 1.399 . S
C1124 H1110 0.929 . S
C1124 C1123 1.399 . S
C1124 C1125 1.385 . S
C1125 H1111 0.931 . S
C1125 C1124 1.385 . S
C1125 C1126 1.389 . S
C1126 C1125 1.389 . S
C1126 C1127 1.387 . S
C1127 H1112 0.930 . S
C1127 C1122 1.390 . S
C1127 C1126 1.387 . S
H1128 C1140 0.930 . S
H1129 C1142 0.930 . S
H1130 C1143 0.930 . S
H1131 C1147 0.959 . S
H1132 C1147 0.959 . S
H1133 C1147 0.961 . S
H1134 C1148 0.960 . S
H1135 C1148 0.961 . S
H1136 C1148 0.959 . S
H1137 C1151 0.929 . S
H1138 C1152 0.931 . S
H1139 C1154 0.930 . S
C1140 H1128 0.930 . S
C1140 C1141 1.399 . S
C1140 C1145 1.399 . S
C1141 C1140 1.399 . S
C1141 C1142 1.376 . S
C1142 H1129 0.930 . S
C1142 C1141 1.376 . S
C1142 C1143 1.388 . S
C1143 H1130 0.930 . S
C1143 C1142 1.388 . S
C1143 C1144 1.390 . S
C1144 C1143 1.390 . S
C1144 C1145 1.394 . S
C1144 C1150 1.465 . S
C1145 C1140 1.399 . S
C1145 C1144 1.394 . S
C1145 C1146 1.516 . S
C1146 C1145 1.516 . S
C1146 C1147 1.502 . S
C1146 C1148 1.561 . S
C1146 C1149 1.526 . S
C1147 H1131 0.959 . S
C1147 H1132 0.959 . S
C1147 H1133 0.961 . S
C1147 C1146 1.502 . S
C1148 H1134 0.960 . S
C1148 H1135 0.961 . S
C1148 H1136 0.959 . S
C1148 C1146 1.561 . S
C1149 C1146 1.526 . S
C1149 C1150 1.396 . S
C1149 C1154 1.390 . S
C1150 C1144 1.465 . S
C1150 C1149 1.396 . S
C1150 C1151 1.399 . S
C1151 H1137 0.929 . S
C1151 C1150 1.399 . S
C1151 C1152 1.385 . S
C1152 H1138 0.931 . S
C1152 C1151 1.385 . S
C1152 C1153 1.389 . S
C1153 C1152 1.389 . S
C1153 C1154 1.387 . S
C1154 H1139 0.930 . S
C1154 C1149 1.390 . S
C1154 C1153 1.387 . S
H1155 C1167 0.930 . S
H1156 C1169 0.930 . S
H1157 C1170 0.930 . S
H1158 C1174 0.959 . S
H1159 C1174 0.959 . S
H1160 C1174 0.961 . S
H1161 C1175 0.960 . S
H1162 C1175 0.961 . S
H1163 C1175 0.959 . S
H1164 C1178 0.929 . S
H1165 C1179 0.931 . S
H1166 C1181 0.930 . S
C1167 H1155 0.930 . S
C1167 C1168 1.399 . S
C1167 C1172 1.399 . S
C1168 C1167 1.399 . S
C1168 C1169 1.376 . S
C1169 H1156 0.930 . S
C1169 C1168 1.376 . S
C1169 C1170 1.388 . S
C1170 H1157 0.930 . S
C1170 C1169 1.388 . S
C1170 C1171 1.390 . S
C1171 C1170 1.390 . S
C1171 C1172 1.394 . S
C1171 C1177 1.465 . S
C1172 C1167 1.399 . S
C1172 C1171 1.394 . S
C1172 C1173 1.516 . S
C1173 C1172 1.516 . S
C1173 C1174 1.502 . S
C1173 C1175 1.561 . S
C1173 C1176 1.526 . S
C1174 H1158 0.959 . S
C1174 H1159 0.959 . S
C1174 H1160 0.961 . S
C1174 C1173 1.502 . S
C1175 H1161 0.960 . S
C1175 H1162 0.961 . S
C1175 H1163 0.959 . S
C1175 C1173 1.561 . S
C1176 C1173 1.526 . S
C1176 C1177 1.396 . S
C1176 C1181 1.390 . S
C1177 C1171 1.465 . S
C1177 C1176 1.396 . S
C1177 C1178 1.399 . S
C1178 H1164 0.929 . S
C1178 C1177 1.399 . S
C1178 C1179 1.385 . S
C1179 H1165 0.931 . S
C1179 C1178 1.385 . S
C1179 C1180 1.389 . S
C1180 C1179 1.389 . S
C1180 C1181 1.387 . S
C1181 H1166 0.930 . S
C1181 C1176 1.390 . S
C1181 C1180 1.387 . S
H1182 C1194 0.930 . S
H1183 C1196 0.930 . S
H1184 C1197 0.930 . S
H1185 C1201 0.959 . S
H1186 C1201 0.959 . S
H1187 C1201 0.961 . S
H1188 C1202 0.960 . S
H1189 C1202 0.961 . S
H1190 C1202 0.959 . S
H1191 C1205 0.929 . S
H1192 C1206 0.931 . S
H1193 C1208 0.930 . S
C1194 H1182 0.930 . S
C1194 C1195 1.399 . S
C1194 C1199 1.399 . S
C1195 C1194 1.399 . S
C1195 C1196 1.376 . S
C1196 H1183 0.930 . S
C1196 C1195 1.376 . S
C1196 C1197 1.388 . S
C1197 H1184 0.930 . S
C1197 C1196 1.388 . S
C1197 C1198 1.390 . S
C1198 C1197 1.390 . S
C1198 C1199 1.394 . S
C1198 C1204 1.465 . S
C1199 C1194 1.399 . S
C1199 C1198 1.394 . S
C1199 C1200 1.516 . S
C1200 C1199 1.516 . S
C1200 C1201 1.502 . S
C1200 C1202 1.561 . S
C1200 C1203 1.526 . S
C1201 H1185 0.959 . S
C1201 H1186 0.959 . S
C1201 H1187 0.961 . S
C1201 C1200 1.502 . S
C1202 H1188 0.960 . S
C1202 H1189 0.961 . S
C1202 H1190 0.959 . S
C1202 C1200 1.561 . S
C1203 C1200 1.526 . S
C1203 C1204 1.396 . S
C1203 C1208 1.390 . S
C1204 C1198 1.465 . S
C1204 C1203 1.396 . S
C1204 C1205 1.399 . S
C1205 H1191 0.929 . S
C1205 C1204 1.399 . S
C1205 C1206 1.385 . S
C1206 H1192 0.931 . S
C1206 C1205 1.385 . S
C1206 C1207 1.389 . S
C1207 C1206 1.389 . S
C1207 C1208 1.387 . S
C1208 H1193 0.930 . S
C1208 C1203 1.390 . S
C1208 C1207 1.387 . S
H1209 C1221 0.930 . S
H1210 C1223 0.930 . S
H1211 C1224 0.930 . S
H1212 C1228 0.959 . S
H1213 C1228 0.959 . S
H1214 C1228 0.961 . S
H1215 C1229 0.960 . S
H1216 C1229 0.961 . S
H1217 C1229 0.959 . S
H1218 C1232 0.929 . S
H1219 C1233 0.931 . S
H1220 C1235 0.930 . S
C1221 H1209 0.930 . S
C1221 C1222 1.399 . S
C1221 C1226 1.399 . S
C1222 C1221 1.399 . S
C1222 C1223 1.376 . S
C1223 H1210 0.930 . S
C1223 C1222 1.376 . S
C1223 C1224 1.388 . S
C1224 H1211 0.930 . S
C1224 C1223 1.388 . S
C1224 C1225 1.390 . S
C1225 C1224 1.390 . S
C1225 C1226 1.394 . S
C1225 C1231 1.465 . S
C1226 C1221 1.399 . S
C1226 C1225 1.394 . S
C1226 C1227 1.516 . S
C1227 C1226 1.516 . S
C1227 C1228 1.502 . S
C1227 C1229 1.561 . S
C1227 C1230 1.526 . S
C1228 H1212 0.959 . S
C1228 H1213 0.959 . S
C1228 H1214 0.961 . S
C1228 C1227 1.502 . S
C1229 H1215 0.960 . S
C1229 H1216 0.961 . S
C1229 H1217 0.959 . S
C1229 C1227 1.561 . S
C1230 C1227 1.526 . S
C1230 C1231 1.396 . S
C1230 C1235 1.390 . S
C1231 C1225 1.465 . S
C1231 C1230 1.396 . S
C1231 C1232 1.399 . S
C1232 H1218 0.929 . S
C1232 C1231 1.399 . S
C1232 C1233 1.385 . S
C1233 H1219 0.931 . S
C1233 C1232 1.385 . S
C1233 C1234 1.389 . S
C1234 C1233 1.389 . S
C1234 C1235 1.387 . S
C1235 H1220 0.930 . S
C1235 C1230 1.390 . S
C1235 C1234 1.387 . S
H1236 C1248 0.930 . S
H1237 C1250 0.930 . S
H1238 C1251 0.930 . S
H1239 C1255 0.959 . S
H1240 C1255 0.959 . S
H1241 C1255 0.961 . S
H1242 C1256 0.960 . S
H1243 C1256 0.961 . S
H1244 C1256 0.959 . S
H1245 C1259 0.929 . S
H1246 C1260 0.931 . S
H1247 C1262 0.930 . S
C1248 H1236 0.930 . S
C1248 C1249 1.399 . S
C1248 C1253 1.399 . S
C1249 C1248 1.399 . S
C1249 C1250 1.376 . S
C1250 H1237 0.930 . S
C1250 C1249 1.376 . S
C1250 C1251 1.388 . S
C1251 H1238 0.930 . S
C1251 C1250 1.388 . S
C1251 C1252 1.390 . S
C1252 C1251 1.390 . S
C1252 C1253 1.394 . S
C1252 C1258 1.465 . S
C1253 C1248 1.399 . S
C1253 C1252 1.394 . S
C1253 C1254 1.516 . S
C1254 C1253 1.516 . S
C1254 C1255 1.502 . S
C1254 C1256 1.561 . S
C1254 C1257 1.526 . S
C1255 H1239 0.959 . S
C1255 H1240 0.959 . S
C1255 H1241 0.961 . S
C1255 C1254 1.502 . S
C1256 H1242 0.960 . S
C1256 H1243 0.961 . S
C1256 H1244 0.959 . S
C1256 C1254 1.561 . S
C1257 C1254 1.526 . S
C1257 C1258 1.396 . S
C1257 C1262 1.390 . S
C1258 C1252 1.465 . S
C1258 C1257 1.396 . S
C1258 C1259 1.399 . S
C1259 H1245 0.929 . S
C1259 C1258 1.399 . S
C1259 C1260 1.385 . S
C1260 H1246 0.931 . S
C1260 C1259 1.385 . S
C1260 C1261 1.389 . S
C1261 C1260 1.389 . S
C1261 C1262 1.387 . S
C1262 H1247 0.930 . S
C1262 C1257 1.390 . S
C1262 C1261 1.387 . S
H1263 C1275 0.930 . S
H1264 C1277 0.930 . S
H1265 C1278 0.930 . S
H1266 C1282 0.959 . S
H1267 C1282 0.959 . S
H1268 C1282 0.961 . S
H1269 C1283 0.960 . S
H1270 C1283 0.961 . S
H1271 C1283 0.959 . S
H1272 C1286 0.929 . S
H1273 C1287 0.931 . S
H1274 C1289 0.930 . S
C1275 H1263 0.930 . S
C1275 C1276 1.399 . S
C1275 C1280 1.399 . S
C1276 C1275 1.399 . S
C1276 C1277 1.376 . S
C1277 H1264 0.930 . S
C1277 C1276 1.376 . S
C1277 C1278 1.388 . S
C1278 H1265 0.930 . S
C1278 C1277 1.388 . S
C1278 C1279 1.390 . S
C1279 C1278 1.390 . S
C1279 C1280 1.394 . S
C1279 C1285 1.465 . S
C1280 C1275 1.399 . S
C1280 C1279 1.394 . S
C1280 C1281 1.516 . S
C1281 C1280 1.516 . S
C1281 C1282 1.502 . S
C1281 C1283 1.561 . S
C1281 C1284 1.526 . S
C1282 H1266 0.959 . S
C1282 H1267 0.959 . S
C1282 H1268 0.961 . S
C1282 C1281 1.502 . S
C1283 H1269 0.960 . S
C1283 H1270 0.961 . S
C1283 H1271 0.959 . S
C1283 C1281 1.561 . S
C1284 C1281 1.526 . S
C1284 C1285 1.396 . S
C1284 C1289 1.390 . S
C1285 C1279 1.465 . S
C1285 C1284 1.396 . S
C1285 C1286 1.399 . S
C1286 H1272 0.929 . S
C1286 C1285 1.399 . S
C1286 C1287 1.385 . S
C1287 H1273 0.931 . S
C1287 C1286 1.385 . S
C1287 C1288 1.389 . S
C1288 C1287 1.389 . S
C1288 C1289 1.387 . S
C1289 H1274 0.930 . S
C1289 C1284 1.390 . S
C1289 C1288 1.387 . S
H1290 C1302 0.930 . S
H1291 C1304 0.930 . S
H1292 C1305 0.930 1_554 S
H1293 C1309 0.959 1_554 S
H1294 C1309 0.959 . S
H1295 C1309 0.961 . S
H1296 C1310 0.960 . S
H1297 C1310 0.961 . S
H1298 C1310 0.959 . S
H1299 C1313 0.929 . S
H1300 C1314 0.931 . S
H1301 C1316 0.930 . S
C1302 H1290 0.930 . S
C1302 C1303 1.399 . S
C1302 C1307 1.399 . S
C1303 C1302 1.399 . S
C1303 C1304 1.376 . S
C1304 H1291 0.930 . S
C1304 C1303 1.376 . S
C1304 C1305 1.388 . S
C1305 H1292 0.930 1_556 S
C1305 C1304 1.388 . S
C1305 C1306 1.390 . S
C1306 C1305 1.390 . S
C1306 C1307 1.394 . S
C1306 C1312 1.465 1_556 S
C1307 C1302 1.399 . S
C1307 C1306 1.394 . S
C1307 C1308 1.516 . S
C1308 C1307 1.516 . S
C1308 C1309 1.502 . S
C1308 C1310 1.561 . S
C1308 C1311 1.526 1_556 S
C1309 H1293 0.959 1_556 S
C1309 H1294 0.959 . S
C1309 H1295 0.961 . S
C1309 C1308 1.502 . S
C1310 H1296 0.960 . S
C1310 H1297 0.961 . S
C1310 H1298 0.959 . S
C1310 C1308 1.561 . S
C1311 C1308 1.526 1_554 S
C1311 C1312 1.396 . S
C1311 C1316 1.390 . S
C1312 C1306 1.465 1_554 S
C1312 C1311 1.396 . S
C1312 C1313 1.399 . S
C1313 H1299 0.929 . S
C1313 C1312 1.399 . S
C1313 C1314 1.385 . S
C1314 H1300 0.931 . S
C1314 C1313 1.385 . S
C1314 C1315 1.389 . S
C1315 C1314 1.389 . S
C1315 C1316 1.387 . S
C1316 H1301 0.930 . S
C1316 C1311 1.390 . S
C1316 C1315 1.387 . S
H1317 C1329 0.930 . S
H1318 C1331 0.930 . S
H1319 C1332 0.930 . S
H1320 C1336 0.959 1_455 S
H1321 C1336 0.959 . S
H1322 C1336 0.961 1_455 S
H1323 C1337 0.960 . S
H1324 C1337 0.961 . S
H1325 C1337 0.959 . S
H1326 C1340 0.929 . S
H1327 C1341 0.931 . S
H1328 C1343 0.930 . S
C1329 H1317 0.930 . S
C1329 C1330 1.399 . S
C1329 C1334 1.399 . S
C1330 C1329 1.399 . S
C1330 C1331 1.376 . S
C1331 H1318 0.930 . S
C1331 C1330 1.376 . S
C1331 C1332 1.388 . S
C1332 H1319 0.930 . S
C1332 C1331 1.388 . S
C1332 C1333 1.390 . S
C1333 C1332 1.390 . S
C1333 C1334 1.394 . S
C1333 C1339 1.465 1_455 S
C1334 C1329 1.399 . S
C1334 C1333 1.394 . S
C1334 C1335 1.516 1_455 S
C1335 C1334 1.516 1_655 S
C1335 C1336 1.502 . S
C1335 C1337 1.561 . S
C1335 C1338 1.526 . S
C1336 H1320 0.959 1_655 S
C1336 H1321 0.959 . S
C1336 H1322 0.961 1_655 S
C1336 C1335 1.502 . S
C1337 H1323 0.960 . S
C1337 H1324 0.961 . S
C1337 H1325 0.959 . S
C1337 C1335 1.561 . S
C1338 C1335 1.526 . S
C1338 C1339 1.396 . S
C1338 C1343 1.390 . S
C1339 C1333 1.465 1_655 S
C1339 C1338 1.396 . S
C1339 C1340 1.399 . S
C1340 H1326 0.929 . S
C1340 C1339 1.399 . S
C1340 C1341 1.385 . S
C1341 H1327 0.931 . S
C1341 C1340 1.385 . S
C1341 C1342 1.389 . S
C1342 C1341 1.389 . S
C1342 C1343 1.387 . S
C1343 H1328 0.930 . S
C1343 C1338 1.390 . S
C1343 C1342 1.387 . S
H1344 C1356 0.930 . S
H1345 C1358 0.930 . S
H1346 C1359 0.930 1_545 S
H1347 C1363 0.959 . S
H1348 C1363 0.959 . S
H1349 C1363 0.961 . S
H1350 C1364 0.960 . S
H1351 C1364 0.961 . S
H1352 C1364 0.959 . S
H1353 C1367 0.929 . S
H1354 C1368 0.931 . S
H1355 C1370 0.930 . S
C1356 H1344 0.930 . S
C1356 C1357 1.399 . S
C1356 C1361 1.399 . S
C1357 C1356 1.399 . S
C1357 C1358 1.376 . S
C1358 H1345 0.930 . S
C1358 C1357 1.376 . S
C1358 C1359 1.388 . S
C1359 H1346 0.930 1_565 S
C1359 C1358 1.388 . S
C1359 C1360 1.390 . S
C1360 C1359 1.390 . S
C1360 C1361 1.394 . S
C1360 C1366 1.465 1_565 S
C1361 C1356 1.399 . S
C1361 C1360 1.394 . S
C1361 C1362 1.516 1_554 S
C1362 C1361 1.516 1_556 S
C1362 C1363 1.502 . S
C1362 C1364 1.561 . S
C1362 C1365 1.526 1_565 S
C1363 H1347 0.959 . S
C1363 H1348 0.959 . S
C1363 H1349 0.961 . S
C1363 C1362 1.502 . S
C1364 H1350 0.960 . S
C1364 H1351 0.961 . S
C1364 H1352 0.959 . S
C1364 C1362 1.561 . S
C1365 C1362 1.526 1_545 S
C1365 C1366 1.396 1_556 S
C1365 C1370 1.390 . S
C1366 C1360 1.465 1_545 S
C1366 C1365 1.396 1_554 S
C1366 C1367 1.399 . S
C1367 H1353 0.929 . S
C1367 C1366 1.399 . S
C1367 C1368 1.385 1_554 S
C1368 H1354 0.931 . S
C1368 C1367 1.385 1_556 S
C1368 C1369 1.389 . S
C1369 C1368 1.389 . S
C1369 C1370 1.387 . S
C1370 H1355 0.930 . S
C1370 C1365 1.390 . S
C1370 C1369 1.387 . S
H1371 C1383 0.930 . S
H1372 C1385 0.930 . S
H1373 C1386 0.930 . S
H1374 C1390 0.959 . S
H1375 C1390 0.959 . S
H1376 C1390 0.961 . S
H1377 C1391 0.960 . S
H1378 C1391 0.961 . S
H1379 C1391 0.959 . S
H1380 C1394 0.929 . S
H1381 C1395 0.931 . S
H1382 C1397 0.930 . S
C1383 H1371 0.930 . S
C1383 C1384 1.399 . S
C1383 C1388 1.399 . S
C1384 C1383 1.399 . S
C1384 C1385 1.376 . S
C1385 H1372 0.930 . S
C1385 C1384 1.376 . S
C1385 C1386 1.388 . S
C1386 H1373 0.930 . S
C1386 C1385 1.388 . S
C1386 C1387 1.390 . S
C1387 C1386 1.390 . S
C1387 C1388 1.394 . S
C1387 C1393 1.465 . S
C1388 C1383 1.399 . S
C1388 C1387 1.394 . S
C1388 C1389 1.516 . S
C1389 C1388 1.516 . S
C1389 C1390 1.502 . S
C1389 C1391 1.561 . S
C1389 C1392 1.526 . S
C1390 H1374 0.959 . S
C1390 H1375 0.959 . S
C1390 H1376 0.961 . S
C1390 C1389 1.502 . S
C1391 H1377 0.960 . S
C1391 H1378 0.961 . S
C1391 H1379 0.959 . S
C1391 C1389 1.561 . S
C1392 C1389 1.526 . S
C1392 C1393 1.396 . S
C1392 C1397 1.390 . S
C1393 C1387 1.465 . S
C1393 C1392 1.396 . S
C1393 C1394 1.399 . S
C1394 H1380 0.929 . S
C1394 C1393 1.399 . S
C1394 C1395 1.385 . S
C1395 H1381 0.931 . S
C1395 C1394 1.385 . S
C1395 C1396 1.389 . S
C1396 C1395 1.389 . S
C1396 C1397 1.387 . S
C1397 H1382 0.930 . S
C1397 C1392 1.390 . S
C1397 C1396 1.387 . S
H1398 C1410 0.930 . S
H1399 C1412 0.930 . S
H1400 C1413 0.930 1_455 S
H1401 C1417 0.959 . S
H1402 C1417 0.959 . S
H1403 C1417 0.961 . S
H1404 C1418 0.960 . S
H1405 C1418 0.961 . S
H1406 C1418 0.959 . S
H1407 C1421 0.929 . S
H1408 C1422 0.931 . S
H1409 C1424 0.930 . S
C1410 H1398 0.930 . S
C1410 C1411 1.399 . S
C1410 C1415 1.399 . S
C1411 C1410 1.399 . S
C1411 C1412 1.376 . S
C1412 H1399 0.930 . S
C1412 C1411 1.376 . S
C1412 C1413 1.388 . S
C1413 H1400 0.930 1_655 S
C1413 C1412 1.388 . S
C1413 C1414 1.390 . S
C1414 C1413 1.390 . S
C1414 C1415 1.394 . S
C1414 C1420 1.465 1_655 S
C1415 C1410 1.399 . S
C1415 C1414 1.394 . S
C1415 C1416 1.516 1_556 S
C1416 C1415 1.516 1_554 S
C1416 C1417 1.502 . S
C1416 C1418 1.561 . S
C1416 C1419 1.526 1_655 S
C1417 H1401 0.959 . S
C1417 H1402 0.959 . S
C1417 H1403 0.961 . S
C1417 C1416 1.502 . S
C1418 H1404 0.960 . S
C1418 H1405 0.961 . S
C1418 H1406 0.959 . S
C1418 C1416 1.561 . S
C1419 C1416 1.526 1_455 S
C1419 C1420 1.396 1_554 S
C1419 C1424 1.390 . S
C1420 C1414 1.465 1_455 S
C1420 C1419 1.396 1_556 S
C1420 C1421 1.399 . S
C1421 H1407 0.929 . S
C1421 C1420 1.399 . S
C1421 C1422 1.385 1_556 S
C1422 H1408 0.931 . S
C1422 C1421 1.385 1_554 S
C1422 C1423 1.389 . S
C1423 C1422 1.389 . S
C1423 C1424 1.387 . S
C1424 H1409 0.930 . S
C1424 C1419 1.390 . S
C1424 C1423 1.387 . S
H1425 C1437 0.930 . S
H1426 C1439 0.930 . S
H1427 C1440 0.930 1_545 S
H1428 C1444 0.959 . S
H1429 C1444 0.959 . S
H1430 C1444 0.961 . S
H1431 C1445 0.960 . S
H1432 C1445 0.961 . S
H1433 C1445 0.959 . S
H1434 C1448 0.929 . S
H1435 C1449 0.931 . S
H1436 C1451 0.930 . S
C1437 H1425 0.930 . S
C1437 C1438 1.399 . S
C1437 C1442 1.399 . S
C1438 C1437 1.399 . S
C1438 C1439 1.376 . S
C1439 H1426 0.930 . S
C1439 C1438 1.376 . S
C1439 C1440 1.388 . S
C1440 H1427 0.930 1_565 S
C1440 C1439 1.388 . S
C1440 C1441 1.390 . S
C1441 C1440 1.390 . S
C1441 C1442 1.394 . S
C1441 C1447 1.465 1_565 S
C1442 C1437 1.399 . S
C1442 C1441 1.394 . S
C1442 C1443 1.516 . S
C1443 C1442 1.516 . S
C1443 C1444 1.502 . S
C1443 C1445 1.561 . S
C1443 C1446 1.526 1_565 S
C1444 H1428 0.959 . S
C1444 H1429 0.959 . S
C1444 H1430 0.961 . S
C1444 C1443 1.502 . S
C1445 H1431 0.960 . S
C1445 H1432 0.961 . S
C1445 H1433 0.959 . S
C1445 C1443 1.561 . S
C1446 C1443 1.526 1_545 S
C1446 C1447 1.396 . S
C1446 C1451 1.390 . S
C1447 C1441 1.465 1_545 S
C1447 C1446 1.396 . S
C1447 C1448 1.399 . S
C1448 H1434 0.929 . S
C1448 C1447 1.399 . S
C1448 C1449 1.385 . S
C1449 H1435 0.931 . S
C1449 C1448 1.385 . S
C1449 C1450 1.389 . S
C1450 C1449 1.389 . S
C1450 C1451 1.387 . S
C1451 H1436 0.930 . S
C1451 C1446 1.390 . S
C1451 C1450 1.387 . S
C493 C180 1.223 . S
C505 C4 1.241 . S
C520 C220 1.221 . S
C532 C44 1.222 . S
C547 C84 1.195 . S
C559 C20 1.263 . S
C574 C124 1.232 . S
C586 C60 1.210 . S
C601 C164 1.267 . S
C613 C100 1.184 . S
C628 C140 1.235 . S
C640 C204 1.212 . S
C655 C340 1.182 . S
C667 C244 1.260 . S
C682 C284 1.267 . S
C694 C380 1.182 . S
C709 C420 1.228 . S
C721 C324 1.217 . S
C736 C364 1.229 . S
C748 C460 1.214 . S
C763 C404 1.267 . S
C775 C260 1.182 . S
C790 C300 1.232 . S
C802 C444 1.213 . S
C817 C191 1.536 . S
C829 C25 1.593 . S
C844 C65 1.590 . S
C856 C231 1.542 . S
C871 C105 1.546 . S
C883 C31 1.585 . S
C898 C145 1.544 . S
C910 C71 1.589 . S
C925 C111 1.573 . S
C937 C185 1.563 . S
C952 C151 1.550 . S
C964 C225 1.576 . S
C979 C351 1.553 . S
C991 C265 1.573 . S
C1006 C305 1.587 . S
C1018 C391 1.540 . S
C1033 C345 1.545 . S
C1045 C431 1.589 . S
C1060 C471 1.567 . S
C1072 C385 1.569 . S
C1087 C425 1.587 . S
C1099 C271 1.540 . S
C1114 C311 1.543 . S
C1126 C465 1.582 . S
C1141 C402 1.656 . S
C1153 C2 1.697 . S
C1168 C42 1.619 . S
C1180 C442 1.690 . S
C1195 C82 1.692 . S
C1207 C242 1.668 . S
C1222 C122 1.653 . S
C1234 C282 1.698 . S
C1249 C162 1.616 . S
C1261 C322 1.684 . S
C1276 C362 1.696 . S
C1288 C202 1.626 . S
C1303 C383 2.218 . S
C1315 C23 2.212 . S
C1330 C423 2.218 . S
C1342 C63 2.212 . S
C1357 C103 2.197 . S
C1369 C463 2.218 . S
C1384 C143 2.198 . S
C1396 C263 2.225 . S
C1411 C303 2.196 . S
C1423 C183 2.222 . S
C1438 C343 2.196 . S
C1450 C223 2.223 . S
