# Generated by pormake.
# Topology crs, (6)-cn, num edge types: 1
# Building blocks:
#     Node 0, Type 0, BuildingBlock: BETGAK_clean_sbu_0, # of connection points: 6
#     Node 1, Type 0, BuildingBlock: BETGAK_clean_sbu_0, # of connection points: 6
#     Node 2, Type 0, BuildingBlock: BETGAK_clean_sbu_0, # of connection points: 6
#     Node 3, Type 0, BuildingBlock: BETGAK_clean_sbu_0, # of connection points: 6
#     Node 4, Type 0, BuildingBlock: BETGAK_clean_sbu_0, # of connection points: 6
#     Node 5, Type 0, BuildingBlock: BETGAK_clean_sbu_0, # of connection points: 6
#     Node 6, Type 0, BuildingBlock: BETGAK_clean_sbu_0, # of connection points: 6
#     Node 7, Type 0, BuildingBlock: BETGAK_clean_sbu_0, # of connection points: 6
#     Node 8, Type 0, BuildingBlock: BETGAK_clean_sbu_0, # of connection points: 6
#     Node 9, Type 0, BuildingBlock: BETGAK_clean_sbu_0, # of connection points: 6
#     Node 10, Type 0, BuildingBlock: BETGAK_clean_sbu_0, # of connection points: 6
#     Node 11, Type 0, BuildingBlock: BETGAK_clean_sbu_0, # of connection points: 6
#     Node 12, Type 0, BuildingBlock: BETGAK_clean_sbu_0, # of connection points: 6
#     Node 13, Type 0, BuildingBlock: BETGAK_clean_sbu_0, # of connection points: 6
#     Node 14, Type 0, BuildingBlock: BETGAK_clean_sbu_0, # of connection points: 6
#     Node 15, Type 0, BuildingBlock: BETGAK_clean_sbu_0, # of connection points: 6
#     Edge 16, Type (0, 0), BuildingBlock: OJICUG_clean_linker_0, # of connection points: 2
#     Edge 17, Type (0, 0), BuildingBlock: OJICUG_clean_linker_0, # of connection points: 2
#     Edge 18, Type (0, 0), BuildingBlock: OJICUG_clean_linker_0, # of connection points: 2
#     Edge 19, Type (0, 0), BuildingBlock: OJICUG_clean_linker_0, # of connection points: 2
#     Edge 20, Type (0, 0), BuildingBlock: OJICUG_clean_linker_0, # of connection points: 2
#     Edge 21, Type (0, 0), BuildingBlock: OJICUG_clean_linker_0, # of connection points: 2
#     Edge 22, Type (0, 0), BuildingBlock: OJICUG_clean_linker_0, # of connection points: 2
#     Edge 23, Type (0, 0), BuildingBlock: OJICUG_clean_linker_0, # of connection points: 2
#     Edge 24, Type (0, 0), BuildingBlock: OJICUG_clean_linker_0, # of connection points: 2
#     Edge 25, Type (0, 0), BuildingBlock: OJICUG_clean_linker_0, # of connection points: 2
#     Edge 26, Type (0, 0), BuildingBlock: OJICUG_clean_linker_0, # of connection points: 2
#     Edge 27, Type (0, 0), BuildingBlock: OJICUG_clean_linker_0, # of connection points: 2
#     Edge 28, Type (0, 0), BuildingBlock: OJICUG_clean_linker_0, # of connection points: 2
#     Edge 29, Type (0, 0), BuildingBlock: OJICUG_clean_linker_0, # of connection points: 2
#     Edge 30, Type (0, 0), BuildingBlock: OJICUG_clean_linker_0, # of connection points: 2
#     Edge 31, Type (0, 0), BuildingBlock: OJICUG_clean_linker_0, # of connection points: 2
#     Edge 32, Type (0, 0), BuildingBlock: OJICUG_clean_linker_0, # of connection points: 2
#     Edge 33, Type (0, 0), BuildingBlock: OJICUG_clean_linker_0, # of connection points: 2
#     Edge 34, Type (0, 0), BuildingBlock: OJICUG_clean_linker_0, # of connection points: 2
#     Edge 35, Type (0, 0), BuildingBlock: OJICUG_clean_linker_0, # of connection points: 2
#     Edge 36, Type (0, 0), BuildingBlock: OJICUG_clean_linker_0, # of connection points: 2
#     Edge 37, Type (0, 0), BuildingBlock: OJICUG_clean_linker_0, # of connection points: 2
#     Edge 38, Type (0, 0), BuildingBlock: OJICUG_clean_linker_0, # of connection points: 2
#     Edge 39, Type (0, 0), BuildingBlock: OJICUG_clean_linker_0, # of connection points: 2
#     Edge 40, Type (0, 0), BuildingBlock: OJICUG_clean_linker_0, # of connection points: 2
#     Edge 41, Type (0, 0), BuildingBlock: OJICUG_clean_linker_0, # of connection points: 2
#     Edge 42, Type (0, 0), BuildingBlock: OJICUG_clean_linker_0, # of connection points: 2
#     Edge 43, Type (0, 0), BuildingBlock: OJICUG_clean_linker_0, # of connection points: 2
#     Edge 44, Type (0, 0), BuildingBlock: OJICUG_clean_linker_0, # of connection points: 2
#     Edge 45, Type (0, 0), BuildingBlock: OJICUG_clean_linker_0, # of connection points: 2
#     Edge 46, Type (0, 0), BuildingBlock: OJICUG_clean_linker_0, # of connection points: 2
#     Edge 47, Type (0, 0), BuildingBlock: OJICUG_clean_linker_0, # of connection points: 2
#     Edge 48, Type (0, 0), BuildingBlock: OJICUG_clean_linker_0, # of connection points: 2
#     Edge 49, Type (0, 0), BuildingBlock: OJICUG_clean_linker_0, # of connection points: 2
#     Edge 50, Type (0, 0), BuildingBlock: OJICUG_clean_linker_0, # of connection points: 2
#     Edge 51, Type (0, 0), BuildingBlock: OJICUG_clean_linker_0, # of connection points: 2
#     Edge 52, Type (0, 0), BuildingBlock: OJICUG_clean_linker_0, # of connection points: 2
#     Edge 53, Type (0, 0), BuildingBlock: OJICUG_clean_linker_0, # of connection points: 2
#     Edge 54, Type (0, 0), BuildingBlock: OJICUG_clean_linker_0, # of connection points: 2
#     Edge 55, Type (0, 0), BuildingBlock: OJICUG_clean_linker_0, # of connection points: 2
#     Edge 56, Type (0, 0), BuildingBlock: OJICUG_clean_linker_0, # of connection points: 2
#     Edge 57, Type (0, 0), BuildingBlock: OJICUG_clean_linker_0, # of connection points: 2
#     Edge 58, Type (0, 0), BuildingBlock: OJICUG_clean_linker_0, # of connection points: 2
#     Edge 59, Type (0, 0), BuildingBlock: OJICUG_clean_linker_0, # of connection points: 2
#     Edge 60, Type (0, 0), BuildingBlock: OJICUG_clean_linker_0, # of connection points: 2
#     Edge 61, Type (0, 0), BuildingBlock: OJICUG_clean_linker_0, # of connection points: 2
#     Edge 62, Type (0, 0), BuildingBlock: OJICUG_clean_linker_0, # of connection points: 2
#     Edge 63, Type (0, 0), BuildingBlock: OJICUG_clean_linker_0, # of connection points: 2
# Relax obj value: 0.596
# Max RMSD: 0.398
# Mean RMSD: 0.328
data_MOF--net-crs--node1-BETGAK_clean_sbu_0--edge1-OJICUG_clean_linker_0
_symmetry_space_group_name_H-M    P1
_symmetry_Int_Tables_number       1
_symmetry_cell_setting            triclinic
loop_
_symmetry_equiv_pos_as_xyz
'x, y, z'
_cell_length_a     43.303437
_cell_length_b     44.227714
_cell_length_c     33.961758
_cell_angle_alpha  67.043685
_cell_angle_beta   69.864877
_cell_angle_gamma 57.123102
loop_
_atom_site_label
_atom_site_type_symbol
_atom_site_fract_x
_atom_site_fract_y
_atom_site_fract_z
_atom_type_partial_charge
La0 La 0.94115 0.04729 0.0617 0.0
La1 La 0.0139 0.03535 1.00038 0.0
C2 C 0.8781 0.05272 0.09888 0.0
C3 C 0.85878 0.03499 0.09657 0.0
C4 C 0.83699 1.02355 0.13404 0.0
C5 C 0.82464 1.00012 0.13448 0.0
C6 C 0.83367 0.98841 0.09722 0.0
C7 C 0.85379 1.00151 0.05909 0.0
C8 C 0.86683 1.02408 0.05908 0.0
C9 C -0.00353 1.02538 0.09944 0.0
C10 C -0.01018 0.97552 1.02382 0.0
C11 C 0.0772 1.02923 0.9629 0.0
C12 C 0.09851 0.04496 0.9651 0.0
C13 C 0.12426 0.05118 0.92895 0.0
C14 C 0.14108 0.07073 0.92846 0.0
C15 C 0.13229 0.08419 0.96424 0.0
C16 C 0.10743 0.07672 1.00107 0.0
C17 C 0.09044 0.05748 1.00132 0.0
C18 C 0.9581 0.05737 0.96307 0.0
C19 C 0.9658 0.10659 0.03905 0.0
O20 O 0.90823 1.0293 0.11635 0.0
O21 O 0.88331 0.07697 0.06339 0.0
O22 O 0.96161 0.04594 0.11276 0.0
O23 O -0.00098 1.0148 0.06824 0.0
O24 O 0.95669 0.99914 0.04062 0.0
O25 O 0.0191 0.9811 1.01248 0.0
O26 O 0.04681 0.05388 0.94623 0.0
O27 O 0.07176 1.00493 0.99812 0.0
O28 O -0.00714 0.03651 0.94971 0.0
O29 O 0.9561 0.06788 0.99398 0.0
O30 O -0.00121 0.08297 1.02204 0.0
O31 O 0.9363 0.10136 0.05007 0.0
H32 H 0.83128 1.03107 0.16352 0.0
H33 H 0.80918 0.99011 0.16427 0.0
H34 H 0.86167 0.99219 1.03027 0.0
H35 H 0.8852 1.03092 1.03071 0.0
H36 H 0.13037 0.04202 0.90059 0.0
H37 H 0.16033 0.07603 0.89978 0.0
H38 H 0.09973 0.08731 1.02879 0.0
H39 H 0.0699 0.05375 1.02904 0.0
La40 La -0.00482 0.29411 0.31716 0.0
La41 La 0.9688 0.27283 0.25852 0.0
C42 C 0.00652 0.3275 0.35127 0.0
C43 C -0.00546 0.35294 0.37765 0.0
C44 C 0.97767 0.34658 0.42153 0.0
C45 C 0.97471 0.36573 0.44834 0.0
C46 C -0.01101 0.39109 0.43174 0.0
C47 C 0.00375 0.3989 0.3873 0.0
C48 C 0.00652 0.38 0.3606 0.0
C49 C 0.04037 0.2235 0.31153 0.0
C50 C 0.92939 0.27268 0.35746 0.0
C51 C 0.95682 0.24039 0.22376 0.0
C52 C 0.96798 0.21658 0.19566 0.0
C53 C -0.01541 0.22425 0.15187 0.0
C54 C -0.01372 0.20737 0.12326 0.0
C55 C 0.97103 0.18297 0.13799 0.0
C56 C 0.95669 0.17362 0.18235 0.0
C57 C 0.95515 0.1903 0.21084 0.0
C58 C 0.92404 0.3435 0.26411 0.0
C59 C 0.03455 0.29417 0.21816 0.0
O60 O 0.00666 0.29532 0.37114 0.0
O61 O -0.00103 0.34118 0.31173 0.0
O62 O 0.04303 0.23861 0.33515 0.0
O63 O 0.01217 0.24807 0.29405 0.0
O64 O 0.94599 0.28969 0.36 0.0
O65 O 0.93732 0.26044 0.32329 0.0
O66 O 0.95539 0.27319 0.20508 0.0
O67 O 0.96615 0.22538 0.26254 0.0
O68 O 0.92115 0.32866 0.24039 0.0
O69 O 0.95204 0.31864 0.28167 0.0
O70 O 0.01789 0.27723 0.21561 0.0
O71 O 0.02667 0.30639 0.25233 0.0
H72 H 0.96845 0.32561 0.43561 0.0
H73 H 0.96306 0.35929 0.48244 0.0
H74 H 0.01423 0.4189 0.37341 0.0
H75 H 0.01992 0.38513 0.32701 0.0
H76 H -0.00552 0.24466 0.13926 0.0
H77 H -0.00233 0.21492 0.08928 0.0
H78 H 0.94554 0.15423 0.19481 0.0
H79 H 0.94195 0.18422 0.24435 0.0
La80 La 0.72483 0.27804 0.50632 0.0
La81 La 0.7399 0.28996 0.57014 0.0
C82 C 0.70512 0.26255 0.45834 0.0
C83 C 0.68668 0.2418 0.46287 0.0
C84 C 0.68739 0.23488 0.42575 0.0
C85 C 0.67444 0.21106 0.4295 0.0
C86 C 0.66051 0.19392 0.47054 0.0
C87 C 0.65845 0.20219 0.50767 0.0
C88 C 0.67161 0.22599 0.50384 0.0
C89 C 0.72723 0.34216 0.47827 0.0
C90 C 0.66084 0.30155 0.58541 0.0
C91 C 0.75969 0.30529 0.6182 0.0
C92 C 0.77813 0.32605 0.61366 0.0
C93 C 0.77739 0.333 0.65077 0.0
C94 C 0.79031 0.35685 0.64701 0.0
C95 C 0.80424 0.37399 0.60596 0.0
C96 C 0.80633 0.36568 0.56884 0.0
C97 C 0.79319 0.34186 0.57268 0.0
C98 C 0.73742 0.2259 0.59799 0.0
C99 C 0.80383 0.26661 0.49094 0.0
O100 O 0.68459 0.29288 0.47187 0.0
O101 O 0.73763 0.24227 0.47068 0.0
O102 O 0.73842 0.31951 0.45567 0.0
O103 O 0.71235 0.33006 0.51591 0.0
O104 O 0.67574 0.28167 0.55701 0.0
O105 O 0.67978 0.31459 0.59061 0.0
O106 O 0.7802 0.27501 0.60457 0.0
O107 O 0.72715 0.32559 0.60594 0.0
O108 O 0.72615 0.24853 0.62066 0.0
O109 O 0.75245 0.23799 0.56047 0.0
O110 O 0.78893 0.28646 0.51937 0.0
O111 O 0.78493 0.25352 0.48576 0.0
H112 H 0.69932 0.24678 0.39401 0.0
H113 H 0.67697 0.20477 0.4004 0.0
H114 H 0.64745 0.18968 0.53964 0.0
H115 H 0.67107 0.23117 0.53278 0.0
H116 H 0.76546 0.32111 0.68252 0.0
H117 H 0.78775 0.36318 0.6761 0.0
H118 H 0.81734 0.37818 0.53687 0.0
H119 H 0.79373 0.33668 0.54375 0.0
La120 La 0.72328 1.02414 0.76037 0.0
La121 La 0.74124 0.04403 0.81598 0.0
C122 C 0.69529 1.00226 0.72989 0.0
C123 C 0.67255 1.00665 0.70234 0.0
C124 C 0.67709 0.97425 0.69773 0.0
C125 C 0.65248 0.97606 0.67796 0.0
C126 C 0.62274 1.01048 0.66196 0.0
C127 C 0.61955 0.04324 0.66455 0.0
C128 C 0.64406 0.04131 0.68493 0.0
C129 C 0.79623 0.98659 0.76317 0.0
C130 C 0.74175 0.0887 0.71525 0.0
C131 C 0.76903 0.06604 0.84656 0.0
C132 C 0.79168 0.06167 0.8742 0.0
C133 C 0.78724 0.09408 0.87866 0.0
C134 C 0.8118 0.09225 0.89852 0.0
C135 C 0.8414 0.0578 0.91475 0.0
C136 C 0.84448 1.02504 0.91232 0.0
C137 C 0.82002 1.02699 0.89186 0.0
C138 C 0.66825 0.08147 0.81311 0.0
C139 C 0.72286 0.9794 0.86107 0.0
O140 O 0.7275 1.00179 0.7127 0.0
O141 O 0.67822 1.01756 0.76246 0.0
O142 O 0.78149 1.00083 0.72885 0.0
O143 O 0.77 0.99393 0.79494 0.0
O144 O 0.72164 0.07531 0.71333 0.0
O145 O 0.75558 0.07648 0.75086 0.0
O146 O 0.73683 0.06649 0.86366 0.0
O147 O 0.7862 0.0507 0.81402 0.0
O148 O 0.68297 0.06717 0.84747 0.0
O149 O 0.69455 0.07428 0.78138 0.0
O150 O 0.74295 0.99282 0.86299 0.0
O151 O 0.709 0.99165 0.82548 0.0
H152 H 0.69874 0.94717 0.71135 0.0
H153 H 0.65576 0.95016 0.67739 0.0
H154 H 0.59754 0.07038 0.65185 0.0
H155 H 0.64008 0.06664 0.68825 0.0
H156 H 0.7657 0.12118 0.86486 0.0
H157 H 0.80861 0.11814 0.89896 0.0
H158 H 0.86638 0.99788 0.9252 0.0
H159 H 0.82392 1.00165 0.88866 0.0
La160 La 0.49591 0.79525 0.31786 0.0
La161 La 0.46953 0.77399 0.25918 0.0
C162 C 0.50795 0.82766 0.3526 0.0
C163 C 0.49679 0.85143 0.38074 0.0
C164 C 0.48014 0.84376 0.42452 0.0
C165 C 0.47845 0.86061 0.45316 0.0
C166 C 0.49373 0.88499 0.43849 0.0
C167 C 0.50811 0.89433 0.39414 0.0
C168 C 0.50965 0.87768 0.36561 0.0
C169 C 0.54058 0.72456 0.3123 0.0
C170 C 0.43014 0.77395 0.35818 0.0
C171 C 0.45824 0.74055 0.22507 0.0
C172 C 0.47022 0.7151 0.19871 0.0
C173 C 0.48712 0.72142 0.15484 0.0
C174 C 0.4901 0.70225 0.12805 0.0
C175 C 0.47582 0.6769 0.14466 0.0
C176 C 0.46103 0.66911 0.18909 0.0
C177 C 0.45825 0.68804 0.21578 0.0
C178 C 0.42432 0.84457 0.26487 0.0
C179 C 0.5353 0.79546 0.21889 0.0
O180 O 0.50941 0.79484 0.37126 0.0
O181 O 0.49856 0.8427 0.31385 0.0
O182 O 0.54344 0.73934 0.33613 0.0
O183 O 0.51271 0.74952 0.29456 0.0
O184 O 0.44678 0.79091 0.36072 0.0
O185 O 0.43806 0.76169 0.32403 0.0
O186 O 0.45808 0.77274 0.2052 0.0
O187 O 0.46579 0.72688 0.26462 0.0
O188 O 0.42163 0.82946 0.24127 0.0
O189 O 0.45257 0.82003 0.28226 0.0
O190 O 0.51868 0.77848 0.21632 0.0
O191 O 0.52741 0.80762 0.25311 0.0
H192 H 0.47023 0.82337 0.43708 0.0
H193 H 0.46702 0.85307 0.48713 0.0
H194 H 0.51928 0.91371 0.38172 0.0
H195 H 0.52289 0.88377 0.33211 0.0
H196 H 0.49635 0.74239 0.14075 0.0
H197 H 0.50177 0.70866 0.09395 0.0
H198 H 0.45054 0.64912 0.20298 0.0
H199 H 0.44482 0.68293 0.24936 0.0
La200 La 0.22356 0.77895 0.5072 0.0
La201 La 0.24118 0.78901 0.5692 0.0
C202 C 0.22095 0.75498 0.45292 0.0
C203 C 0.20643 0.73157 0.45443 0.0
C204 C 0.215 0.71969 0.41769 0.0
C205 C 0.2029 0.69579 0.41913 0.0
C206 C 0.18198 0.68354 0.45741 0.0
C207 C 0.17315 0.69591 0.49415 0.0
C208 C 0.18542 0.71972 0.4927 0.0
C209 C 0.20983 0.84971 0.4873 0.0
C210 C 0.16024 0.79919 0.5846 0.0
C211 C 0.24394 0.81282 0.62355 0.0
C212 C 0.25852 0.83621 0.62199 0.0
C213 C 0.24993 0.84817 0.65867 0.0
C214 C 0.26205 0.87209 0.65715 0.0
C215 C 0.28297 0.88428 0.61883 0.0
C216 C 0.29183 0.87183 0.58216 0.0
C217 C 0.27955 0.848 0.5837 0.0
C218 C 0.25488 0.71831 0.5889 0.0
C219 C 0.30445 0.76891 0.49174 0.0
O220 O 0.19609 0.7873 0.46082 0.0
O221 O 0.24885 0.73804 0.47356 0.0
O222 O 0.1886 0.839 0.48415 0.0
O223 O 0.2374 0.82083 0.50279 0.0
O224 O 0.17491 0.77948 0.55611 0.0
O225 O 0.18026 0.81096 0.59016 0.0
O226 O 0.26876 0.78052 0.61557 0.0
O227 O 0.21597 0.8298 0.60299 0.0
O228 O 0.2762 0.72893 0.59199 0.0
O229 O 0.22725 0.74724 0.57361 0.0
O230 O 0.28976 0.78863 0.52023 0.0
O231 O 0.28448 0.75707 0.48623 0.0
H232 H 0.23151 0.72848 0.3881 0.0
H233 H 0.21057 0.6863 0.39055 0.0
H234 H 0.15669 0.68729 0.52391 0.0
H235 H 0.1788 0.72865 0.52141 0.0
H236 H 0.2334 0.83943 0.68828 0.0
H237 H 0.25435 0.88165 0.68568 0.0
H238 H 0.3083 0.8804 0.55238 0.0
H239 H 0.28617 0.83901 0.55503 0.0
La240 La 0.21804 0.52652 0.75668 0.0
La241 La 0.24663 0.54155 0.81958 0.0
C242 C 0.1795 0.52466 0.71845 0.0
C243 C 0.15622 0.52482 0.69548 0.0
C244 C 0.15973 0.49122 0.69601 0.0
C245 C 0.13653 0.49148 0.67544 0.0
C246 C 0.1093 0.5254 0.65423 0.0
C247 C 0.10683 0.55894 0.65277 0.0
C248 C 0.13011 0.5586 0.67322 0.0
C249 C 0.29028 0.47889 0.76252 0.0
C250 C 0.2413 0.59108 0.72137 0.0
C251 C 0.28546 0.54266 0.85817 0.0
C252 C 0.30846 0.54303 0.88102 0.0
C253 C 0.30545 0.57673 0.87931 0.0
C254 C 0.32847 0.57671 0.89994 0.0
C255 C 0.35502 0.54295 0.9223 0.0
C256 C 0.35697 0.50937 0.92492 0.0
C257 C 0.33384 0.50947 0.9045 0.0
C258 C 0.17442 0.58921 0.81379 0.0
C259 C 0.22336 0.47697 0.85487 0.0
O260 O 0.20972 0.52809 0.69824 0.0
O261 O 0.16996 0.52408 0.7598 0.0
O262 O 0.2724 0.48022 0.73771 0.0
O263 O 0.26721 0.5045 0.78113 0.0
O264 O 0.22168 0.57782 0.7172 0.0
O265 O 0.2568 0.57793 0.75621 0.0
O266 O 0.25524 0.53919 0.87831 0.0
O267 O 0.29461 0.5441 0.81659 0.0
O268 O 0.19236 0.58793 0.8385 0.0
O269 O 0.19739 0.56351 0.79528 0.0
O270 O 0.24294 0.49026 0.85905 0.0
O271 O 0.20791 0.49008 0.82001 0.0
H272 H 0.17997 0.46482 0.71295 0.0
H273 H 0.13892 0.46522 0.67761 0.0
H274 H 0.08649 0.58554 0.63632 0.0
H275 H 0.1273 0.58474 0.67229 0.0
H276 H 0.28575 0.60296 0.86147 0.0
H277 H 0.3265 0.60298 0.89693 0.0
H278 H 0.37682 0.4829 0.94224 0.0
H279 H 0.33625 0.48327 0.90635 0.0
La280 La 0.94115 0.5473 0.5617 0.0
La281 La 0.01394 0.53529 0.50042 0.0
C282 C 0.87808 0.55278 0.59883 0.0
C283 C 0.85873 0.53508 0.59651 0.0
C284 C 0.83689 0.5237 0.63396 0.0
C285 C 0.8245 0.5003 0.63441 0.0
C286 C 0.83356 0.48855 0.59718 0.0
C287 C 0.85373 0.50159 0.55905 0.0
C288 C 0.86681 0.52413 0.55904 0.0
C289 C -0.00355 0.52538 0.59947 0.0
C290 C -0.01019 0.4755 0.52387 0.0
C291 C 0.07726 0.52913 0.46298 0.0
C292 C 0.09858 0.54484 0.4652 0.0
C293 C 0.12437 0.55101 0.42907 0.0
C294 C 0.14121 0.57055 0.42858 0.0
C295 C 0.1324 0.58404 0.46435 0.0
C296 C 0.1075 0.57661 0.50116 0.0
C297 C 0.09049 0.55739 0.5014 0.0
C298 C 0.95815 0.55733 0.46307 0.0
C299 C 0.96584 0.60657 0.53903 0.0
O300 O 0.90819 0.52935 0.61633 0.0
O301 O 0.88332 0.57702 0.56334 0.0
O302 O 0.96159 0.54597 0.61277 0.0
O303 O -0.00099 0.51479 0.56828 0.0
O304 O 0.95668 0.49914 0.54064 0.0
O305 O 0.0191 0.48106 0.51255 0.0
O306 O 0.04688 0.55378 0.44629 0.0
O307 O 0.07179 0.50484 0.49821 0.0
O308 O -0.00708 0.53646 0.44974 0.0
O309 O 0.95615 0.56785 0.49397 0.0
O310 O -0.00117 0.58293 0.52205 0.0
O311 O 0.93633 0.60137 0.55004 0.0
H312 H 0.83116 0.53125 0.66343 0.0
H313 H 0.809 0.49034 0.66419 0.0
H314 H 0.86164 0.49223 0.53026 0.0
H315 H 0.88521 0.53093 0.53069 0.0
H316 H 0.1305 0.54183 0.40072 0.0
H317 H 0.16048 0.57581 0.39992 0.0
H318 H 0.09977 0.58723 0.52886 0.0
H319 H 0.06993 0.55369 0.5291 0.0
La320 La 0.22356 0.27897 1.00721 0.0
La321 La 0.24119 0.289 0.06921 0.0
C322 C 0.22091 0.25505 0.9529 0.0
C323 C 0.20637 0.23166 0.95439 0.0
C324 C 0.21489 0.21983 0.91763 0.0
C325 C 0.20277 0.19595 0.91905 0.0
C326 C 0.18188 0.18368 0.95735 0.0
C327 C 0.1731 0.196 0.99411 0.0
C328 C 0.18539 0.21978 0.99267 0.0
C329 C 0.20984 0.34972 0.98733 0.0
C330 C 0.16024 0.29919 0.08462 0.0
C331 C 0.24397 0.31276 0.12359 0.0
C332 C 0.25856 0.33614 0.12205 0.0
C333 C 0.25 0.34806 0.15875 0.0
C334 C 0.26212 0.37197 0.15724 0.0
C335 C 0.28303 0.38419 0.11892 0.0
C336 C 0.29186 0.37177 0.08223 0.0
C337 C 0.27957 0.34795 0.08375 0.0
C338 C 0.25488 0.2183 0.08888 0.0
C339 C 0.30445 0.26891 0.99174 0.0
O340 O 0.19607 0.28737 0.96081 0.0
O341 O 0.24882 0.23809 0.97354 0.0
O342 O 0.18859 0.33903 0.98418 0.0
O343 O 0.2374 0.32084 1.00281 0.0
O344 O 0.17491 0.27949 0.05611 0.0
O345 O 0.18027 0.31095 0.09018 0.0
O346 O 0.26878 0.28047 0.11559 0.0
O347 O 0.216 0.32976 0.10303 0.0
O348 O 0.27622 0.22891 0.09196 0.0
O349 O 0.22725 0.24723 0.0736 0.0
O350 O 0.28976 0.28862 1.02023 0.0
O351 O 0.28447 0.25708 0.98622 0.0
H352 H 0.23138 0.22865 0.88803 0.0
H353 H 0.21041 0.1865 0.89045 0.0
H354 H 0.15666 0.18736 1.02388 0.0
H355 H 0.1788 0.22868 1.0214 0.0
H356 H 0.23349 0.33929 0.18836 0.0
H357 H 0.25445 0.3815 0.18579 0.0
H358 H 0.30831 0.38036 0.05245 0.0
H359 H 0.28617 0.339 0.05507 0.0
La360 La 0.21804 1.02652 0.25667 0.0
La361 La 0.24667 0.0415 0.31957 0.0
C362 C 0.17947 1.02473 0.21839 0.0
C363 C 0.15622 1.02486 0.19542 0.0
C364 C 0.15977 0.99125 0.19592 0.0
C365 C 0.13657 0.99151 0.17534 0.0
C366 C 0.10932 1.02542 0.15417 0.0
C367 C 0.10681 0.05897 0.15274 0.0
C368 C 0.13008 0.05864 0.17319 0.0
C369 C 0.29027 0.97887 0.26248 0.0
C370 C 0.24133 0.09107 0.22138 0.0
C371 C 0.28558 0.04242 0.35823 0.0
C372 C 0.30853 0.0429 0.38104 0.0
C373 C 0.30556 0.07663 0.37914 0.0
C374 C 0.32855 0.07669 0.39975 0.0
C375 C 0.35503 0.04298 0.42225 0.0
C376 C 0.35695 1.00937 0.42506 0.0
C377 C 0.33385 1.0094 0.40467 0.0
C378 C 0.17446 0.08919 0.31381 0.0
C379 C 0.22335 0.97695 0.35483 0.0
O380 O 0.20973 1.02812 0.19821 0.0
O381 O 0.16994 1.02412 0.25975 0.0
O382 O 0.27239 0.98021 0.23769 0.0
O383 O 0.26722 1.00448 0.2811 0.0
O384 O 0.22169 0.07782 0.21721 0.0
O385 O 0.25684 0.0779 0.25621 0.0
O386 O 0.25534 0.03899 0.37835 0.0
O387 O 0.29465 0.04402 0.31661 0.0
O388 O 0.19242 0.0879 0.33849 0.0
O389 O 0.19741 0.06348 0.29529 0.0
O390 O 0.24294 0.99023 0.35901 0.0
O391 O 0.2079 0.99007 0.31998 0.0
H392 H 0.18003 0.96485 0.21282 0.0
H393 H 0.13899 0.96524 0.17749 0.0
H394 H 0.08644 0.08557 0.13632 0.0
H395 H 0.12724 0.08478 0.1723 0.0
H396 H 0.28591 0.10283 0.36119 0.0
H397 H 0.32661 0.10298 0.3966 0.0
H398 H 0.37674 0.98294 0.44249 0.0
H399 H 0.33623 0.98317 0.40667 0.0
La400 La 0.4959 0.29526 0.81785 0.0
La401 La 0.46951 0.274 0.75917 0.0
C402 C 0.50795 0.32766 0.85259 0.0
C403 C 0.49679 0.35143 0.88073 0.0
C404 C 0.48016 0.34375 0.92452 0.0
C405 C 0.47847 0.36059 0.95317 0.0
C406 C 0.49375 0.38497 0.93849 0.0
C407 C 0.50811 0.39433 0.89414 0.0
C408 C 0.50965 0.37768 0.86561 0.0
C409 C 0.54056 0.22457 0.81229 0.0
C410 C 0.43013 0.27396 0.85817 0.0
C411 C 0.45822 0.24058 0.72506 0.0
C412 C 0.4702 0.21512 0.69869 0.0
C413 C 0.48713 0.22143 0.65484 0.0
C414 C 0.49012 0.20226 0.62803 0.0
C415 C 0.4758 0.17693 0.64462 0.0
C416 C 0.46098 0.16917 0.68904 0.0
C417 C 0.45819 0.18809 0.71574 0.0
C418 C 0.42431 0.34459 0.76486 0.0
C419 C 0.5353 0.29546 0.71888 0.0
O420 O 0.50941 0.29484 0.87125 0.0
O421 O 0.49856 0.3427 0.81385 0.0
O422 O 0.54342 0.23934 0.83611 0.0
O423 O 0.5127 0.24954 0.79454 0.0
O424 O 0.44678 0.29092 0.86071 0.0
O425 O 0.43804 0.26171 0.82402 0.0
O426 O 0.45806 0.27276 0.70518 0.0
O427 O 0.46577 0.2269 0.7646 0.0
O428 O 0.42162 0.32948 0.74126 0.0
O429 O 0.45256 0.32005 0.78225 0.0
O430 O 0.51867 0.27849 0.7163 0.0
O431 O 0.52741 0.30763 0.7531 0.0
H432 H 0.47024 0.32336 0.93708 0.0
H433 H 0.46705 0.35304 0.98714 0.0
H434 H 0.51928 0.4137 0.88172 0.0
H435 H 0.52287 0.38378 0.83211 0.0
H436 H 0.49639 0.24237 0.64077 0.0
H437 H 0.50182 0.20866 0.59395 0.0
H438 H 0.45046 0.1492 0.70292 0.0
H439 H 0.44474 0.183 0.74931 0.0
La440 La -0.00484 0.79412 0.81714 0.0
La441 La 0.96878 0.77284 0.75849 0.0
C442 C 0.0065 0.82752 0.85125 0.0
C443 C -0.00548 0.85295 0.87763 0.0
C444 C 0.9777 0.84657 0.92152 0.0
C445 C 0.97474 0.86572 0.94832 0.0
C446 C -0.01102 0.89111 0.9317 0.0
C447 C 0.0037 0.89895 0.88725 0.0
C448 C 0.00646 0.88004 0.86055 0.0
C449 C 0.04034 0.72351 0.81151 0.0
C450 C 0.92937 0.77269 0.85743 0.0
C451 C 0.95681 0.7404 0.72374 0.0
C452 C 0.96798 0.71659 0.69564 0.0
C453 C -0.01538 0.72424 0.65185 0.0
C454 C -0.01368 0.70736 0.62324 0.0
C455 C 0.97104 0.68297 0.63796 0.0
C456 C 0.95668 0.67364 0.68231 0.0
C457 C 0.95513 0.69033 0.71081 0.0
C458 C 0.92402 0.84351 0.76409 0.0
C459 C 0.03453 0.79418 0.71814 0.0
O460 O 0.00665 0.79533 0.87111 0.0
O461 O -0.00106 0.8412 0.81171 0.0
O462 O 0.043 0.73862 0.83512 0.0
O463 O 0.01215 0.74809 0.79402 0.0
O464 O 0.94597 0.7897 0.85998 0.0
O465 O 0.93731 0.76045 0.82326 0.0
O466 O 0.95538 0.77321 0.70505 0.0
O467 O 0.96613 0.72539 0.76251 0.0
O468 O 0.92113 0.82868 0.74036 0.0
O469 O 0.95202 0.81865 0.78164 0.0
O470 O 0.01787 0.77724 0.71559 0.0
O471 O 0.02665 0.8064 0.7523 0.0
H472 H 0.9685 0.82558 0.93562 0.0
H473 H 0.96312 0.85926 0.98243 0.0
H474 H 0.01415 0.91897 0.87335 0.0
H475 H 0.01983 0.88519 0.82695 0.0
H476 H -0.00548 0.74464 0.63925 0.0
H477 H -0.00227 0.71489 0.58926 0.0
H478 H 0.94552 0.65426 0.69477 0.0
H479 H 0.9419 0.68425 0.74431 0.0
La480 La 0.7233 0.52413 0.26038 0.0
La481 La 0.74126 0.54402 0.31599 0.0
C482 C 0.69533 0.50223 0.22989 0.0
C483 C 0.67259 0.50662 0.20234 0.0
C484 C 0.67713 0.47423 0.19773 0.0
C485 C 0.65254 0.47603 0.17795 0.0
C486 C 0.62279 0.51045 0.16195 0.0
C487 C 0.61959 0.54322 0.16455 0.0
C488 C 0.6441 0.54128 0.18493 0.0
C489 C 0.79626 0.48658 0.26318 0.0
C490 C 0.74176 0.5887 0.21526 0.0
C491 C 0.76906 0.56604 0.34655 0.0
C492 C 0.79172 0.56167 0.37419 0.0
C493 C 0.78729 0.59407 0.37863 0.0
C494 C 0.81185 0.59224 0.39848 0.0
C495 C 0.84145 0.55779 0.41472 0.0
C496 C 0.84452 0.52503 0.41231 0.0
C497 C 0.82004 0.52698 0.39185 0.0
C498 C 0.66827 0.58146 0.31311 0.0
C499 C 0.72287 0.4794 0.36108 0.0
O500 O 0.72754 0.50177 0.21271 0.0
O501 O 0.67825 0.51754 0.26247 0.0
O502 O 0.78151 0.50082 0.22886 0.0
O503 O 0.77002 0.49392 0.29495 0.0
O504 O 0.72166 0.5753 0.21334 0.0
O505 O 0.75559 0.57648 0.25086 0.0
O506 O 0.73686 0.56648 0.36367 0.0
O507 O 0.78623 0.55069 0.31401 0.0
O508 O 0.68299 0.56717 0.34747 0.0
O509 O 0.69457 0.57427 0.28139 0.0
O510 O 0.74297 0.49281 0.363 0.0
O511 O 0.70901 0.49165 0.32549 0.0
H512 H 0.69879 0.44714 0.21135 0.0
H513 H 0.65582 0.45013 0.17738 0.0
H514 H 0.59759 0.57035 0.15184 0.0
H515 H 0.64012 0.56662 0.18825 0.0
H516 H 0.76576 0.62117 0.36481 0.0
H517 H 0.80867 0.61814 0.39891 0.0
H518 H 0.8664 0.49787 0.4252 0.0
H519 H 0.82393 0.50164 0.38866 0.0
La520 La 0.72482 0.77804 1.00631 0.0
La521 La 0.7399 0.78994 0.07013 0.0
C522 C 0.70509 0.76257 0.95834 0.0
C523 C 0.68662 0.74185 0.96288 0.0
C524 C 0.68728 0.73497 0.92576 0.0
C525 C 0.67429 0.71117 0.92951 0.0
C526 C 0.66039 0.694 0.97056 0.0
C527 C 0.65838 0.70225 1.00769 0.0
C528 C 0.67157 0.72602 1.00386 0.0
C529 C 0.72723 0.84215 0.97827 0.0
C530 C 0.66084 0.80155 0.08541 0.0
C531 C 0.75972 0.80525 0.11819 0.0
C532 C 0.7782 0.82597 0.11365 0.0
C533 C 0.77753 0.83287 0.15076 0.0
C534 C 0.79049 0.8567 0.147 0.0
C535 C 0.80438 0.87386 0.10594 0.0
C536 C 0.80642 0.86559 0.06882 0.0
C537 C 0.79324 0.8418 0.07266 0.0
C538 C 0.73741 0.72589 0.09798 0.0
C539 C 0.80383 0.7666 0.99092 0.0
O540 O 0.68457 0.79291 0.97185 0.0
O541 O 0.73759 0.74227 0.97069 0.0
O542 O 0.73842 0.81951 0.95566 0.0
O543 O 0.71235 0.83006 1.0159 0.0
O544 O 0.67573 0.78168 0.05701 0.0
O545 O 0.67979 0.81458 0.09062 0.0
O546 O 0.78021 0.77496 0.10458 0.0
O547 O 0.72719 0.82557 0.10592 0.0
O548 O 0.72614 0.74852 0.12064 0.0
O549 O 0.75244 0.73798 0.06045 0.0
O550 O 0.78893 0.78645 1.01936 0.0
O551 O 0.78492 0.75352 0.98573 0.0
H552 H 0.69918 0.74687 0.89401 0.0
H553 H 0.67679 0.7049 0.90041 0.0
H554 H 0.6474 0.68972 0.03967 0.0
H555 H 0.67106 0.73118 1.0328 0.0
H556 H 0.76562 0.82097 0.18252 0.0
H557 H 0.78797 0.86298 0.17609 0.0
H558 H 0.81739 0.87811 1.03684 0.0
H559 H 0.79373 0.83665 0.04373 0.0
La560 La 0.45063 1.03298 0.57562 0.0
La561 La 0.52349 1.02086 0.51447 0.0
C562 C 0.38718 0.03934 0.6127 0.0
C563 C 0.36593 1.02354 0.61049 0.0
C564 C 0.34014 1.01739 0.64662 0.0
C565 C 0.32339 0.99774 0.64716 0.0
C566 C 0.33231 0.98412 0.61147 0.0
C567 C 0.35721 0.99155 0.57466 0.0
C568 C 0.37413 1.01088 0.57435 0.0
C569 C 0.50624 1.01088 0.61324 0.0
C570 C 0.49881 0.96155 0.53726 0.0
C571 C 0.58655 1.01536 0.47725 0.0
C572 C 0.60595 1.033 0.47961 0.0
C573 C 0.62772 0.04448 0.44215 0.0
C574 C 0.64012 0.06784 0.44176 0.0
C575 C 0.63115 0.07946 0.47908 0.0
C576 C 0.61106 0.06632 0.5172 0.0
C577 C 0.59797 0.04381 0.51715 0.0
C578 C 0.46807 0.04287 0.47673 0.0
C579 C 0.47495 0.0926 0.55239 0.0
O580 O 0.41743 1.01477 0.62968 0.0
O581 O 0.39283 0.06346 0.57739 0.0
O582 O 0.47145 1.03174 0.62649 0.0
O583 O 0.50846 1.00033 0.58222 0.0
O584 O 0.4658 0.98522 0.55417 0.0
O585 O 0.52831 0.96678 0.52622 0.0
O586 O 0.55641 0.03885 0.45982 0.0
O587 O 0.58134 0.99108 0.51271 0.0
O588 O 0.50291 1.02217 0.46348 0.0
O589 O 0.46571 0.05343 0.50783 0.0
O590 O 0.50806 0.06891 0.53566 0.0
O591 O 0.4456 0.08714 0.56359 0.0
H592 H 0.33393 1.02666 0.67492 0.0
H593 H 0.30411 0.99249 0.67582 0.0
H594 H 0.36501 0.98084 0.547 0.0
H595 H 0.39469 1.01458 0.54665 0.0
H596 H 0.63338 0.03703 0.41263 0.0
H597 H 0.65556 0.07788 0.41198 0.0
H598 H 0.60322 0.07557 0.54605 0.0
H599 H 0.57962 0.03694 0.54552 0.0
La600 La 0.45066 0.53291 0.07569 0.0
La601 La 0.5235 0.52083 1.01449 0.0
C602 C 0.38724 0.53923 0.11282 0.0
C603 C 0.36599 0.52343 0.11063 0.0
C604 C 0.34021 0.51725 0.14676 0.0
C605 C 0.32347 0.4976 0.14731 0.0
C606 C 0.33237 0.48401 0.11161 0.0
C607 C 0.35725 0.49145 0.07478 0.0
C608 C 0.37417 0.51078 0.07448 0.0
C609 C 0.50629 0.51083 0.11326 0.0
C610 C 0.49885 0.4615 1.03729 0.0
C611 C 0.58654 0.51538 0.97724 0.0
C612 C 0.60591 0.53304 0.97959 0.0
C613 C 0.62764 0.54457 0.94211 0.0
C614 C 0.64001 0.56795 0.94173 0.0
C615 C 0.63106 0.57955 0.97906 0.0
C616 C 0.61101 0.56635 1.0172 0.0
C617 C 0.59795 0.54382 1.01715 0.0
C618 C 0.46807 0.54281 0.9768 0.0
C619 C 0.47495 0.59256 0.05244 0.0
O620 O 0.41751 0.51465 0.12976 0.0
O621 O 0.39286 0.56337 0.07751 0.0
O622 O 0.4715 0.53168 0.12653 0.0
O623 O 0.5085 0.50028 0.08224 0.0
O624 O 0.46584 0.48516 0.05423 0.0
O625 O 0.52834 0.46674 1.02624 0.0
O626 O 0.55638 0.53885 0.95982 0.0
O627 O 0.58135 0.49108 1.01269 0.0
O628 O 0.50291 0.52213 0.96352 0.0
O629 O 0.46571 0.55338 1.00789 0.0
O630 O 0.50806 0.56888 1.03569 0.0
O631 O 0.44561 0.58708 0.06367 0.0
H632 H 0.33403 0.5265 0.17507 0.0
H633 H 0.3042 0.49233 0.17598 0.0
H634 H 0.36504 0.48076 0.04712 0.0
H635 H 0.39472 0.51449 0.04677 0.0
H636 H 0.63328 0.53715 0.91259 0.0
H637 H 0.65542 0.57803 0.91195 0.0
H638 H 0.60319 0.57558 0.04607 0.0
H639 H 0.57963 0.53691 0.04553 0.0
C640 C 0.93308 0.15114 0.08559 0.0
C641 C 0.96454 0.13331 0.05642 0.0
H642 H 0.91059 0.18077 0.13407 0.0
C643 C -0.00294 0.13568 0.05076 0.0
H644 H 0.9076 0.14993 0.09091 0.0
C645 C -0.00111 0.15306 0.076 0.0
C646 C 0.96824 0.1684 0.10738 0.0
H647 H 0.02183 0.12231 1.02858 0.0
H648 H 0.02486 0.15277 0.07255 0.0
C649 C 0.93496 0.16838 0.11082 0.0
C650 C 0.85655 0.28278 0.46088 0.0
C651 C 0.83825 0.26503 0.45934 0.0
H652 H 0.8995 0.29906 0.43034 0.0
C653 C 0.85118 0.24865 0.42486 0.0
H654 H 0.84716 0.29607 0.48664 0.0
C655 C 0.8811 0.25054 0.3924 0.0
C656 C 0.89904 0.26881 0.39348 0.0
H657 H 0.83762 0.23508 0.42226 0.0
H658 H 0.88971 0.23812 0.36605 0.0
C659 C 0.88658 0.28458 0.42842 0.0
C660 C 0.76331 0.1369 0.68632 0.0
C661 C 0.74538 0.12067 0.68048 0.0
H662 H 0.77553 0.18229 0.6639 0.0
C663 C 0.72904 0.13706 0.643 0.0
H664 H 0.77601 0.12546 0.71475 0.0
C665 C 0.72926 0.16984 0.61321 0.0
C666 C 0.74588 0.18668 0.62043 0.0
H667 H 0.71479 0.12544 0.63761 0.0
H668 H 0.71453 0.18316 0.58615 0.0
C669 C 0.76337 0.16943 0.65688 0.0
C670 C 0.93623 1.03099 0.93218 0.0
C671 C 0.92751 0.05781 0.95218 0.0
H672 H 0.91655 1.00986 0.90489 0.0
C673 C 0.89007 0.08411 0.96126 0.0
H674 H 0.96489 1.01031 0.92462 0.0
C675 C 0.86187 0.08339 0.95067 0.0
C676 C 0.87063 0.05665 0.93021 0.0
H677 H 0.8826 0.10509 0.97659 0.0
H678 H 0.83322 0.10382 0.95861 0.0
C679 C 0.90828 1.03035 0.92143 0.0
C680 C 0.01661 0.05147 0.13271 0.0
C681 C 0.02648 1.02512 0.1113 0.0
H682 H 0.03466 0.07235 0.16251 0.0
C683 C 0.06423 0.99932 0.10246 0.0
H684 H -0.01226 0.07178 0.14007 0.0
C685 C 0.09152 0.99969 0.11545 0.0
C686 C 0.08143 1.02603 0.13723 0.0
H687 H 0.07255 0.97872 0.08606 0.0
H688 H 0.12046 0.97938 0.10853 0.0
C689 C 0.04364 0.05208 0.14524 0.0
C690 C 0.95977 0.4443 0.51401 0.0
C691 C -0.00818 0.4476 0.50786 0.0
H692 H 0.93351 0.42416 0.49444 0.0
C693 C 0.02388 0.42882 0.47994 0.0
H694 H 0.93461 0.45833 0.5353 0.0
C695 C 0.02315 0.40946 0.45651 0.0
C696 C -0.00958 0.40822 0.46051 0.0
H697 H 0.04906 0.43067 0.47431 0.0
H698 H 0.04802 0.39625 0.43424 0.0
C699 C 0.95908 0.42476 0.49059 0.0
C700 C 0.61351 0.31949 0.65151 0.0
C701 C 0.62641 0.30316 0.617 0.0
H702 H 0.575 0.32997 0.71035 0.0
C703 C 0.60809 0.28544 0.61543 0.0
H704 H 0.6271 0.33302 0.65414 0.0
C705 C 0.57805 0.28363 0.64788 0.0
C706 C 0.56563 0.29935 0.68286 0.0
H707 H 0.61745 0.27218 0.58964 0.0
H708 H 0.56512 0.26919 0.64594 0.0
C709 C 0.5836 0.31759 0.68397 0.0
C710 C 0.70144 0.93112 0.88989 0.0
C711 C 0.71927 0.9474 0.89581 0.0
H712 H 0.6893 0.88568 0.91221 0.0
C713 C 0.73555 0.93105 0.93333 0.0
H714 H 0.68879 0.94253 0.86142 0.0
C715 C 0.73534 0.89825 0.9631 0.0
C716 C 0.71881 0.88136 0.9558 0.0
H717 H 0.74972 0.94271 0.93878 0.0
H718 H 0.75 0.88496 0.99021 0.0
C719 C 0.70139 0.89858 0.91929 0.0
C720 C 0.11347 0.31706 0.15099 0.0
C721 C 0.12581 0.30113 0.11627 0.0
H722 H 0.07533 0.32745 0.21007 0.0
C723 C 0.10688 0.28413 0.11446 0.0
H724 H 0.12757 0.33006 0.15374 0.0
C725 C 0.0768 0.28257 0.14694 0.0
C726 C 0.06492 0.29788 0.18215 0.0
H727 H 0.11583 0.27121 0.08847 0.0
H728 H 0.06338 0.26867 0.14482 0.0
C729 C 0.08349 0.31543 0.18349 0.0
C730 C 0.70145 0.43112 0.38989 0.0
C731 C 0.71928 0.4474 0.39582 0.0
H732 H 0.6893 0.38569 0.41221 0.0
C733 C 0.73556 0.43104 0.43334 0.0
H734 H 0.6888 0.44253 0.36142 0.0
C735 C 0.73535 0.39824 0.46311 0.0
C736 C 0.71881 0.38136 0.4558 0.0
H737 H 0.74973 0.4427 0.43879 0.0
H738 H 0.75001 0.38495 0.49022 0.0
C739 C 0.7014 0.39858 0.41929 0.0
C740 C 0.52794 0.03712 0.64458 0.0
C741 C 0.53675 1.01039 0.62437 0.0
H742 H 0.54753 0.05818 0.6721 0.0
C743 C 0.57422 0.9842 0.61519 0.0
H744 H 0.49926 0.05771 0.65221 0.0
C745 C 0.60237 0.98493 0.62587 0.0
C746 C 0.59353 1.01159 0.64651 0.0
H747 H 0.58176 0.9633 0.59968 0.0
H748 H 0.63104 0.9646 0.61782 0.0
C749 C 0.55585 0.03776 0.65543 0.0
C750 C 0.9598 0.94429 1.014 0.0
C751 C -0.00817 0.94762 1.0078 0.0
H752 H 0.93354 0.92412 0.99447 0.0
C753 C 0.02388 0.92888 0.97984 0.0
H754 H 0.93465 0.95829 1.03533 0.0
C755 C 0.02314 0.90952 0.95641 0.0
C756 C -0.00958 0.90825 0.96046 0.0
H757 H 0.04904 0.93076 0.97417 0.0
H758 H 0.04799 0.89634 0.93411 0.0
C759 C 0.95911 0.92475 0.99058 0.0
C760 C 0.1601 0.10353 0.99729 0.0
C761 C 0.14662 0.10846 0.96195 0.0
H762 H 0.18249 0.12319 1.0232 0.0
C763 C 0.14498 0.13805 0.92505 0.0
H764 H 0.16176 0.08078 1.02603 0.0
C765 C 0.15634 0.16253 0.9236 0.0
C766 C 0.16974 0.15775 0.95898 0.0
H767 H 0.13395 0.14287 0.89774 0.0
H768 H 0.15397 0.18562 0.89511 0.0
C769 C 0.1717 0.12791 0.99576 0.0
C770 C 0.60723 0.62383 0.34923 0.0
C771 C 0.63112 0.61537 0.31046 0.0
H772 H 0.55937 0.66496 0.37961 0.0
C773 C 0.62089 0.64166 0.27079 0.0
H774 H 0.61425 0.60445 0.38032 0.0
C775 C 0.58854 0.67659 0.27044 0.0
C776 C 0.56621 0.68555 0.30976 0.0
H777 H 0.63896 0.63616 0.24033 0.0
H778 H 0.58275 0.69747 0.23986 0.0
C779 C 0.5755 0.65846 0.34886 0.0
C780 C 0.29317 0.94004 0.58017 0.0
C781 C 0.29507 0.91029 0.61707 0.0
H782 H 0.30309 0.98716 0.54969 0.0
C783 C 0.30836 0.90569 0.65243 0.0
H784 H 0.28246 0.94461 0.55273 0.0
C785 C 0.31967 0.93025 0.65087 0.0
C786 C 0.31807 0.95975 0.61386 0.0
H787 H 0.31069 0.88268 0.68102 0.0
H788 H 0.33061 0.92557 0.67818 0.0
C789 C 0.30472 0.96449 0.57852 0.0
C790 C 0.08973 0.67565 0.7698 0.0
C791 C 0.06671 0.68451 0.809 0.0
H792 H 0.14264 0.6371 0.74022 0.0
C793 C 0.07673 0.65801 0.84823 0.0
H794 H 0.08345 0.69617 0.7391 0.0
C795 C 0.11028 0.62486 0.84888 0.0
C796 C 0.13483 0.61695 0.81029 0.0
H797 H 0.06016 0.66447 0.87888 0.0
H798 H 0.11847 0.60671 0.88001 0.0
C799 C 0.12366 0.64188 0.77045 0.0
C800 C 0.83163 0.39775 0.63316 0.0
C801 C 0.81377 0.40249 0.60204 0.0
H802 H 0.85141 0.42184 0.65607 0.0
C803 C 0.80266 0.4358 0.56895 0.0
H804 H 0.84106 0.37213 0.65858 0.0
C805 C 0.80886 0.46405 0.5674 0.0
C806 C 0.82576 0.45955 0.59925 0.0
H807 H 0.78829 0.44047 0.54495 0.0
H808 H 0.79998 0.48961 0.54177 0.0
C809 C 0.83738 0.42616 0.6319 0.0
C810 C 0.34099 0.92623 0.30587 0.0
C811 C 0.32985 0.95115 0.26601 0.0
H812 H 0.38115 0.87193 0.33727 0.0
C813 C 0.35444 0.94323 0.22744 0.0
H814 H 0.32198 0.93102 0.33608 0.0
C815 C 0.38798 0.91007 0.22813 0.0
C816 C 0.39797 0.88358 0.26738 0.0
H817 H 0.34627 0.96138 0.1963 0.0
H818 H 0.40458 0.90361 0.19749 0.0
C819 C 0.37491 0.89245 0.30656 0.0
C820 C 0.35444 0.44327 0.72747 0.0
C821 C 0.32986 0.45117 0.76605 0.0
H822 H 0.40456 0.40365 0.69749 0.0
C823 C 0.34099 0.42623 0.8059 0.0
H824 H 0.34626 0.46143 0.69633 0.0
C825 C 0.37491 0.39245 0.80656 0.0
C826 C 0.39796 0.38359 0.76737 0.0
H827 H 0.32199 0.43101 0.83611 0.0
H828 H 0.38116 0.37192 0.83727 0.0
C829 C 0.38797 0.41011 0.72814 0.0
C830 C 0.10688 0.78413 0.61445 0.0
C831 C 0.1258 0.80113 0.61625 0.0
H832 H 0.06337 0.76866 0.64481 0.0
C833 C 0.11346 0.81707 0.65097 0.0
H834 H 0.11583 0.7712 0.58847 0.0
C835 C 0.08348 0.81545 0.68347 0.0
C836 C 0.06491 0.79788 0.68213 0.0
H837 H 0.12755 0.83007 0.65371 0.0
H838 H 0.07532 0.82746 0.71005 0.0
C839 C 0.07679 0.78257 0.64693 0.0
C840 C 0.19229 0.93604 0.39201 0.0
C841 C 0.21933 0.94517 0.39013 0.0
H842 H 0.16766 0.89982 0.42422 0.0
C843 C 0.24278 0.92308 0.42173 0.0
H844 H 0.17373 0.95217 0.36839 0.0
C845 C 0.23956 0.89243 0.45379 0.0
C846 C 0.21231 0.88353 0.45557 0.0
H847 H 0.26416 0.92898 0.42117 0.0
H848 H 0.2586 0.87553 0.47691 0.0
C849 C 0.18867 0.90596 0.42434 0.0
C850 C -0.00107 0.65304 0.57599 0.0
C851 C 0.96827 0.6684 0.60735 0.0
H852 H 0.02189 0.62225 0.52861 0.0
C853 C 0.93498 0.6684 0.61075 0.0
H854 H 0.02491 0.65272 0.57257 0.0
C855 C 0.93311 0.65116 0.58552 0.0
C856 C 0.96458 0.6333 0.55639 0.0
H857 H 0.9106 0.68082 0.63398 0.0
H858 H 0.90762 0.64997 0.59082 0.0
C859 C -0.00289 0.63565 0.55075 0.0
C860 C 0.35777 0.78404 0.46184 0.0
C861 C 0.33887 0.767 0.46007 0.0
H862 H 0.40125 0.79954 0.43146 0.0
C863 C 0.35123 0.75103 0.42537 0.0
H864 H 0.34879 0.79699 0.48781 0.0
C865 C 0.38122 0.75266 0.39287 0.0
C866 C 0.39976 0.77025 0.39418 0.0
H867 H 0.33717 0.738 0.42265 0.0
H868 H 0.3894 0.74061 0.36631 0.0
C869 C 0.38785 0.7856 0.42937 0.0
C870 C 0.27247 0.1319 0.18412 0.0
C871 C 0.24536 0.12284 0.18607 0.0
H872 H 0.29717 0.16806 0.15183 0.0
C873 C 0.22185 0.145 0.15454 0.0
H874 H 0.29108 0.11572 0.20769 0.0
C875 C 0.22508 0.17564 0.12246 0.0
C876 C 0.2524 0.18447 0.1206 0.0
H877 H 0.2004 0.13915 0.15515 0.0
H878 H 0.20599 0.19259 0.0994 0.0
C879 C 0.27611 0.16197 0.15177 0.0
C880 C 0.85117 0.74866 0.92483 0.0
C881 C 0.83825 0.76502 0.95932 0.0
H882 H 0.88969 0.73814 0.86601 0.0
C883 C 0.85654 0.78277 0.96086 0.0
H884 H 0.8376 0.73509 0.92223 0.0
C885 C 0.88658 0.78458 0.92841 0.0
C886 C 0.89903 0.76881 0.89345 0.0
H887 H 0.84716 0.79605 0.98663 0.0
H888 H 0.8995 0.79904 0.93033 0.0
C889 C 0.88108 0.75055 0.89237 0.0
C890 C 0.22184 0.64501 0.65452 0.0
C891 C 0.24534 0.62285 0.68606 0.0
H892 H 0.206 0.69259 0.59938 0.0
C893 C 0.27245 0.63191 0.68413 0.0
H894 H 0.2004 0.63916 0.65513 0.0
C895 C 0.27609 0.66198 0.65179 0.0
C896 C 0.2524 0.68448 0.62061 0.0
H897 H 0.29105 0.61573 0.7077 0.0
H898 H 0.29715 0.66807 0.65186 0.0
C899 C 0.22508 0.67565 0.62245 0.0
C900 C 0.37294 0.06914 0.46025 0.0
C901 C 0.38291 0.04244 0.43911 0.0
H902 H 0.3921 0.09027 0.48922 0.0
C903 C 0.42059 1.01598 0.4317 0.0
H904 H 0.34408 0.08979 0.46665 0.0
C905 C 0.44768 1.01653 0.44418 0.0
C906 C 0.43796 0.04319 0.46503 0.0
H907 H 0.42945 0.99541 0.41493 0.0
H908 H 0.47649 0.99591 0.43723 0.0
C909 C 0.40029 0.0694 0.4733 0.0
C910 C 0.80277 0.93568 0.06898 0.0
C911 C 0.81392 0.90235 0.10203 0.0
H912 H 0.80004 0.98951 0.04185 0.0
C913 C 0.83183 0.89758 0.13311 0.0
H914 H 0.78836 0.94037 0.045 0.0
C915 C 0.83757 0.92599 0.13188 0.0
C916 C 0.8259 0.9594 0.09927 0.0
H917 H 0.8413 0.87194 0.1585 0.0
H918 H 0.85163 0.92165 0.15602 0.0
C919 C 0.80896 0.96394 0.06745 0.0
C920 C 0.63302 0.17027 0.44332 0.0
C921 C 0.65094 0.16545 0.47442 0.0
H922 H 0.61319 0.14626 0.42035 0.0
C923 C 0.66209 0.1321 0.50744 0.0
H924 H 0.62356 0.19593 0.41796 0.0
C925 C 0.65589 0.10387 0.50893 0.0
C926 C 0.63894 0.10844 0.47708 0.0
H927 H 0.67651 0.12738 0.53143 0.0
H928 H 0.66481 0.07827 0.5345 0.0
C929 C 0.62727 0.14189 0.44451 0.0
C930 C 0.84367 0.42643 0.30555 0.0
C931 C 0.83342 0.45268 0.26586 0.0
H932 H 0.88184 0.37066 0.33653 0.0
C933 C 0.85731 0.44418 0.2271 0.0
H934 H 0.82561 0.43196 0.336 0.0
C935 C 0.88906 0.40956 0.22751 0.0
C936 C 0.89837 0.38251 0.26663 0.0
H937 H 0.85028 0.46353 0.19601 0.0
H938 H 0.90519 0.40304 0.19677 0.0
C939 C 0.87603 0.39151 0.30593 0.0
C940 C 0.14513 0.63786 0.42512 0.0
C941 C 0.14674 0.60831 0.46204 0.0
H942 H 0.15416 0.68541 0.39514 0.0
C943 C 0.16017 0.60341 0.49741 0.0
H944 H 0.13414 0.64266 0.39779 0.0
C945 C 0.17177 0.62779 0.49586 0.0
C946 C 0.16985 0.6576 0.45905 0.0
H947 H 0.1618 0.58069 0.52617 0.0
H948 H 0.18252 0.62311 0.52332 0.0
C949 C 0.1565 0.66235 0.42366 0.0
C950 C 0.62087 0.14167 0.77078 0.0
C951 C 0.6311 0.11538 0.81045 0.0
H952 H 0.58273 0.19747 0.73984 0.0
C953 C 0.60721 0.12385 0.84922 0.0
H954 H 0.63894 0.13616 0.74032 0.0
C955 C 0.57548 0.15848 0.84885 0.0
C956 C 0.56619 0.18556 0.80974 0.0
H957 H 0.61423 0.10447 0.88031 0.0
H958 H 0.55935 0.16498 0.87959 0.0
C959 C 0.58853 0.1766 0.77043 0.0
C960 C 0.76332 0.6369 0.1863 0.0
C961 C 0.74539 0.62066 0.18047 0.0
H962 H 0.77554 0.68229 0.16388 0.0
C963 C 0.72904 0.63704 0.14301 0.0
H964 H 0.77603 0.62546 0.21473 0.0
C965 C 0.72926 0.66983 0.11321 0.0
C966 C 0.74588 0.68667 0.12042 0.0
H967 H 0.7148 0.62543 0.13763 0.0
H968 H 0.71452 0.68315 0.08616 0.0
C969 C 0.76338 0.66942 0.15686 0.0
C970 C 0.89012 0.58409 0.46123 0.0
C971 C 0.92756 0.55778 0.45217 0.0
H972 H 0.83327 0.60383 0.45855 0.0
C973 C 0.93628 0.53095 0.43218 0.0
H974 H 0.88266 0.60508 0.47655 0.0
C975 C 0.90833 0.53033 0.42142 0.0
C976 C 0.87068 0.55663 0.43018 0.0
H977 H 0.96493 0.51027 0.42463 0.0
H978 H 0.91659 0.50983 0.40489 0.0
C979 C 0.86192 0.58339 0.45063 0.0
C980 C 0.0915 0.49966 0.61554 0.0
C981 C 0.08141 0.52602 0.63728 0.0
H982 H 0.07252 0.47868 0.58616 0.0
C983 C 0.04364 0.55209 0.64526 0.0
H984 H 0.12044 0.47933 0.60864 0.0
C985 C 0.0166 0.55148 0.63272 0.0
C986 C 0.02646 0.52511 0.61134 0.0
H987 H 0.03465 0.57237 0.66251 0.0
H988 H -0.01227 0.57181 0.64006 0.0
C989 C 0.06421 0.4993 0.60253 0.0
C990 C 0.5836 0.81758 0.18399 0.0
C991 C 0.56564 0.79935 0.18287 0.0
H992 H 0.62711 0.83301 0.15415 0.0
C993 C 0.57805 0.78363 0.14788 0.0
H994 H 0.57502 0.82995 0.21037 0.0
C995 C 0.60808 0.78545 0.11543 0.0
C996 C 0.62641 0.80316 0.117 0.0
H997 H 0.56511 0.7692 0.14594 0.0
H998 H 0.61745 0.7722 0.08964 0.0
C999 C 0.61351 0.81948 0.15152 0.0
C1000 C 0.5559 0.53772 0.15543 0.0
C1001 C 0.59359 0.51155 0.1465 0.0
H1002 H 0.49932 0.55766 0.15223 0.0
C1003 C 0.60242 0.4849 0.12586 0.0
H1004 H 0.54758 0.55814 0.17211 0.0
C1005 C 0.57427 0.48416 0.11519 0.0
C1006 C 0.5368 0.51035 0.12438 0.0
H1007 H 0.6311 0.46457 0.1178 0.0
H1008 H 0.58181 0.46326 0.09968 0.0
C1009 C 0.528 0.53707 0.14459 0.0
C1010 C 0.30474 0.46441 0.07866 0.0
C1011 C 0.31813 0.45963 0.11399 0.0
H1012 H 0.28245 0.44456 0.05288 0.0
C1013 C 0.31976 0.43011 0.15098 0.0
H1014 H 0.30309 0.4871 0.04985 0.0
C1015 C 0.30845 0.40555 0.15253 0.0
C1016 C 0.29513 0.41019 0.11718 0.0
H1017 H 0.33072 0.42541 0.17828 0.0
H1018 H 0.3108 0.38253 0.1811 0.0
C1019 C 0.29319 0.43996 0.08031 0.0
C1020 C 0.08976 0.17563 0.26983 0.0
C1021 C 0.06674 0.18449 0.30903 0.0
H1022 H 0.14266 0.13707 0.24025 0.0
C1023 C 0.07678 0.158 0.34826 0.0
H1024 H 0.08347 0.19615 0.23913 0.0
C1025 C 0.11033 0.12486 0.34891 0.0
C1026 C 0.13488 0.11694 0.31032 0.0
H1027 H 0.06021 0.16446 0.37891 0.0
H1028 H 0.11853 0.10671 0.38004 0.0
C1029 C 0.12369 0.14186 0.27048 0.0
C1030 C 0.23957 0.39244 0.95383 0.0
C1031 C 0.21232 0.38354 0.95561 0.0
H1032 H 0.26419 0.42899 0.9212 0.0
C1033 C 0.18867 0.40599 0.92438 0.0
H1034 H 0.25861 0.37554 0.97694 0.0
C1035 C 0.19229 0.43606 0.89205 0.0
C1036 C 0.21934 0.44519 0.89017 0.0
H1037 H 0.16766 0.39985 0.92427 0.0
H1038 H 0.17374 0.4522 0.86843 0.0
C1039 C 0.24279 0.42309 0.92176 0.0
C1040 C 0.35777 0.28404 0.96184 0.0
C1041 C 0.33887 0.267 0.96006 0.0
H1042 H 0.40125 0.29954 0.93146 0.0
C1043 C 0.35123 0.25104 0.92536 0.0
H1044 H 0.3488 0.29699 0.98781 0.0
C1045 C 0.3812 0.25267 0.89286 0.0
C1046 C 0.39975 0.27026 0.89417 0.0
H1047 H 0.33715 0.23801 0.92264 0.0
H1048 H 0.38938 0.24063 0.86629 0.0
C1049 C 0.38785 0.2856 0.92936 0.0
C1050 C 0.40028 0.5693 0.97344 0.0
C1051 C 0.43796 0.54312 0.96511 0.0
H1052 H 0.34406 0.58966 0.96684 0.0
C1053 C 0.44768 0.51648 0.94423 0.0
H1054 H 0.39209 0.59014 0.98939 0.0
C1055 C 0.42058 0.51593 0.93175 0.0
C1056 C 0.3829 0.54237 0.93921 0.0
H1057 H 0.47649 0.49589 0.93724 0.0
H1058 H 0.42945 0.49539 0.91493 0.0
C1059 C 0.37293 0.56903 0.9604 0.0
C1060 C 0.66201 0.63217 1.00744 0.0
C1061 C 0.65082 0.66555 0.97445 0.0
H1062 H 0.66477 0.57833 1.03446 0.0
C1063 C 0.63286 0.67038 0.94338 0.0
H1064 H 0.67645 0.62744 1.03141 0.0
C1065 C 0.62711 0.642 0.94456 0.0
C1066 C 0.63883 0.60854 0.97709 0.0
H1067 H 0.62337 0.69606 0.91804 0.0
H1068 H 0.61301 0.64639 0.92041 0.0
C1069 C 0.65581 0.60394 1.00891 0.0
C1070 C 0.88903 0.90958 0.72749 0.0
C1071 C 0.89835 0.88253 0.76661 0.0
H1072 H 0.85026 0.96354 0.69599 0.0
C1073 C 0.87601 0.89152 0.80591 0.0
H1074 H 0.90517 0.90305 0.69676 0.0
C1075 C 0.84365 0.92644 0.80554 0.0
C1076 C 0.8334 0.95269 0.76585 0.0
H1077 H 0.88183 0.87067 0.83651 0.0
H1078 H 0.82559 0.93197 0.83599 0.0
C1079 C 0.85729 0.9442 0.72708 0.0
C1080 C 0.44164 0.15862 0.61977 0.0
C1081 C 0.47439 0.15979 0.61585 0.0
H1082 H 0.4157 0.13749 0.60188 0.0
C1083 C 0.50576 0.14318 0.58584 0.0
H1084 H 0.41675 0.17188 0.64198 0.0
C1085 C 0.50506 0.12365 0.5624 0.0
C1086 C 0.47299 0.12044 0.56846 0.0
H1087 H 0.53135 0.14373 0.58205 0.0
H1088 H 0.53025 0.10958 0.54116 0.0
C1089 C 0.4409 0.13928 0.59631 0.0
C1090 C 0.5298 0.39951 0.96574 0.0
C1091 C 0.49651 0.39952 0.96913 0.0
H1092 H 0.55713 0.418 0.98564 0.0
C1093 C 0.46584 0.41489 1.00048 0.0
H1094 H 0.55419 0.38709 0.94253 0.0
C1095 C 0.46765 0.43231 1.0257 0.0
C1096 C 0.50016 0.43468 1.02004 0.0
H1097 H 0.43987 0.41519 1.0039 0.0
H1098 H 0.44284 0.44572 0.04782 0.0
C1099 C 0.53165 0.41679 0.99095 0.0
C1100 C 0.46581 0.91493 0.50045 0.0
C1101 C 0.49649 0.89954 0.46913 0.0
H1102 H 0.4428 0.94579 0.54777 0.0
C1103 C 0.52977 0.89953 0.46575 0.0
H1104 H 0.43983 0.91524 0.50386 0.0
C1105 C 0.53161 0.91682 0.49095 0.0
C1106 C 0.50012 0.93473 0.52002 0.0
H1107 H 0.55417 0.8871 0.44255 0.0
H1108 H 0.5571 0.91802 0.48565 0.0
C1109 C 0.4676 0.93236 0.52567 0.0
C1110 C 0.44091 0.6392 0.09641 0.0
C1111 C 0.47298 0.6204 0.06852 0.0
H1112 H 0.41678 0.67178 0.14211 0.0
C1113 C 0.50505 0.62364 0.06241 0.0
H1114 H 0.41572 0.63739 0.10201 0.0
C1115 C 0.50574 0.64317 0.08585 0.0
C1116 C 0.47439 0.65974 0.1159 0.0
H1117 H 0.53022 0.60959 0.04115 0.0
H1118 H 0.53133 0.64374 0.08203 0.0
C1119 C 0.44165 0.65854 0.11987 0.0
loop_
_geom_bond_atom_site_label_1
_geom_bond_atom_site_label_2
_geom_bond_distance
_geom_bond_site_symmetry_2
_ccdc_geom_bond_type
La0 C2 2.928 . S
La0 O20 2.521 . S
La0 O21 2.628 . S
La0 O22 2.554 1_655 S
La0 O23 2.757 1_655 S
La0 O24 2.484 1_655 S
La0 O29 2.482 1_564 S
La0 O31 2.503 1_565 S
La1 C11 2.928 . S
La1 O23 2.482 1_546 S
La1 O25 2.503 1_545 S
La1 O26 2.521 . S
La1 O27 2.628 . S
La1 O28 2.554 1_455 S
La1 O29 2.757 1_455 S
La1 O30 2.470 1_455 S
C2 La0 2.928 . S
C2 C3 1.503 . S
C2 O20 1.261 . S
C2 O21 1.243 . S
C3 C2 1.503 . S
C3 C4 1.394 . S
C3 C8 1.373 . S
C4 C3 1.394 . S
C4 C5 1.380 . S
C4 H32 0.930 . S
C5 C4 1.380 . S
C5 C6 1.376 . S
C5 H33 0.930 . S
C6 C5 1.376 . S
C6 C7 1.370 . S
C7 C6 1.370 . S
C7 C8 1.396 . S
C7 H34 0.929 . S
C8 C3 1.373 . S
C8 C7 1.396 . S
C8 H35 0.929 . S
C9 O22 1.240 . S
C9 O23 1.289 . S
C10 O24 1.238 1_556 S
C10 O25 1.256 . S
C11 La1 2.928 . S
C11 C12 1.503 . S
C11 O26 1.261 . S
C11 O27 1.243 . S
C12 C11 1.503 . S
C12 C13 1.394 . S
C12 C17 1.373 . S
C13 C12 1.394 . S
C13 C14 1.380 . S
C13 H36 0.930 . S
C14 C13 1.380 . S
C14 C15 1.376 . S
C14 H37 0.930 . S
C15 C14 1.376 . S
C15 C16 1.370 . S
C16 C15 1.370 . S
C16 C17 1.396 . S
C16 H38 0.929 . S
C17 C12 1.373 . S
C17 C16 1.396 . S
C17 H39 0.929 . S
C18 O28 1.240 . S
C18 O29 1.289 . S
C19 O30 1.257 1_554 S
C19 O31 1.256 . S
O20 La0 2.521 . S
O20 C2 1.261 . S
O21 La0 2.628 . S
O21 C2 1.243 . S
O22 La0 2.554 1_455 S
O22 C9 1.240 . S
O23 La0 2.757 1_455 S
O23 La1 2.482 1_564 S
O23 C9 1.289 . S
O24 La0 2.484 1_455 S
O24 C10 1.238 1_554 S
O25 La1 2.503 1_565 S
O25 C10 1.256 . S
O26 La1 2.521 . S
O26 C11 1.261 . S
O27 La1 2.628 . S
O27 C11 1.243 . S
O28 La1 2.554 1_655 S
O28 C18 1.240 . S
O29 La0 2.482 1_546 S
O29 La1 2.757 1_655 S
O29 C18 1.289 . S
O30 La1 2.470 1_655 S
O30 C19 1.257 1_556 S
O31 La0 2.503 1_545 S
O31 C19 1.256 . S
H32 C4 0.930 . S
H33 C5 0.930 . S
H34 C7 0.929 . S
H35 C8 0.929 . S
H36 C13 0.930 . S
H37 C14 0.930 . S
H38 C16 0.929 . S
H39 C17 0.929 . S
La40 C42 2.928 . S
La40 O60 2.521 . S
La40 O61 2.628 1_455 S
La40 O62 2.554 . S
La40 O63 2.757 . S
La40 O64 2.470 1_455 S
La40 O69 2.482 1_455 S
La40 O71 2.503 . S
La41 C51 2.928 . S
La41 O63 2.482 1_655 S
La41 O65 2.503 . S
La41 O66 2.521 . S
La41 O67 2.628 1_655 S
La41 O68 2.554 . S
La41 O69 2.757 . S
La41 O70 2.470 1_655 S
C42 La40 2.928 . S
C42 C43 1.503 1_455 S
C42 O60 1.261 . S
C42 O61 1.243 1_455 S
C43 C42 1.503 1_655 S
C43 C44 1.394 1_655 S
C43 C48 1.373 . S
C44 C43 1.394 1_455 S
C44 C45 1.380 . S
C44 H72 0.930 . S
C45 C44 1.380 . S
C45 C46 1.376 1_455 S
C45 H73 0.930 . S
C46 C45 1.376 1_655 S
C46 C47 1.370 . S
C47 C46 1.370 . S
C47 C48 1.396 . S
C47 H74 0.929 . S
C48 C43 1.373 . S
C48 C47 1.396 . S
C48 H75 0.929 . S
C49 O62 1.240 . S
C49 O63 1.289 . S
C50 O64 1.258 . S
C50 O65 1.256 . S
C51 La41 2.928 . S
C51 C52 1.503 1_655 S
C51 O66 1.261 . S
C51 O67 1.243 1_655 S
C52 C51 1.503 1_455 S
C52 C53 1.394 1_455 S
C52 C57 1.373 . S
C53 C52 1.394 1_655 S
C53 C54 1.380 . S
C53 H76 0.930 . S
C54 C53 1.380 . S
C54 C55 1.376 1_655 S
C54 H77 0.930 . S
C55 C54 1.376 1_455 S
C55 C56 1.370 . S
C56 C55 1.370 . S
C56 C57 1.396 . S
C56 H78 0.929 . S
C57 C52 1.373 . S
C57 C56 1.396 . S
C57 H79 0.929 . S
C58 O68 1.240 . S
C58 O69 1.289 . S
C59 O70 1.258 . S
C59 O71 1.256 . S
O60 La40 2.521 . S
O60 C42 1.261 . S
O61 La40 2.628 1_655 S
O61 C42 1.243 1_655 S
O62 La40 2.554 . S
O62 C49 1.240 . S
O63 La40 2.757 . S
O63 La41 2.482 1_455 S
O63 C49 1.289 . S
O64 La40 2.470 1_655 S
O64 C50 1.258 . S
O65 La41 2.503 . S
O65 C50 1.256 . S
O66 La41 2.521 . S
O66 C51 1.261 . S
O67 La41 2.628 1_455 S
O67 C51 1.243 1_455 S
O68 La41 2.554 . S
O68 C58 1.240 . S
O69 La40 2.482 1_655 S
O69 La41 2.757 . S
O69 C58 1.289 . S
O70 La41 2.470 1_455 S
O70 C59 1.258 . S
O71 La40 2.503 . S
O71 C59 1.256 . S
H72 C44 0.930 . S
H73 C45 0.930 . S
H74 C47 0.929 . S
H75 C48 0.929 . S
H76 C53 0.930 . S
H77 C54 0.930 . S
H78 C56 0.929 . S
H79 C57 0.929 . S
La80 C82 2.928 . S
La80 O100 2.521 . S
La80 O101 2.628 . S
La80 O102 2.554 . S
La80 O103 2.757 . S
La80 O104 2.470 . S
La80 O109 2.482 . S
La80 O111 2.503 . S
La81 C91 2.928 . S
La81 O103 2.482 . S
La81 O105 2.503 . S
La81 O106 2.521 . S
La81 O107 2.628 . S
La81 O108 2.554 . S
La81 O109 2.757 . S
La81 O110 2.470 . S
C82 La80 2.928 . S
C82 C83 1.503 . S
C82 O100 1.261 . S
C82 O101 1.243 . S
C83 C82 1.503 . S
C83 C84 1.394 . S
C83 C88 1.373 . S
C84 C83 1.394 . S
C84 C85 1.380 . S
C84 H112 0.930 . S
C85 C84 1.380 . S
C85 C86 1.376 . S
C85 H113 0.930 . S
C86 C85 1.376 . S
C86 C87 1.370 . S
C87 C86 1.370 . S
C87 C88 1.396 . S
C87 H114 0.929 . S
C88 C83 1.373 . S
C88 C87 1.396 . S
C88 H115 0.929 . S
C89 O102 1.240 . S
C89 O103 1.289 . S
C90 O104 1.258 . S
C90 O105 1.256 . S
C91 La81 2.928 . S
C91 C92 1.503 . S
C91 O106 1.261 . S
C91 O107 1.243 . S
C92 C91 1.503 . S
C92 C93 1.394 . S
C92 C97 1.373 . S
C93 C92 1.394 . S
C93 C94 1.380 . S
C93 H116 0.930 . S
C94 C93 1.380 . S
C94 C95 1.376 . S
C94 H117 0.930 . S
C95 C94 1.376 . S
C95 C96 1.370 . S
C96 C95 1.370 . S
C96 C97 1.396 . S
C96 H118 0.929 . S
C97 C92 1.373 . S
C97 C96 1.396 . S
C97 H119 0.929 . S
C98 O108 1.240 . S
C98 O109 1.289 . S
C99 O110 1.258 . S
C99 O111 1.256 . S
O100 La80 2.521 . S
O100 C82 1.261 . S
O101 La80 2.628 . S
O101 C82 1.243 . S
O102 La80 2.554 . S
O102 C89 1.240 . S
O103 La80 2.757 . S
O103 La81 2.482 . S
O103 C89 1.289 . S
O104 La80 2.470 . S
O104 C90 1.258 . S
O105 La81 2.503 . S
O105 C90 1.256 . S
O106 La81 2.521 . S
O106 C91 1.261 . S
O107 La81 2.628 . S
O107 C91 1.243 . S
O108 La81 2.554 . S
O108 C98 1.240 . S
O109 La80 2.482 . S
O109 La81 2.757 . S
O109 C98 1.289 . S
O110 La81 2.470 . S
O110 C99 1.258 . S
O111 La80 2.503 . S
O111 C99 1.256 . S
H112 C84 0.930 . S
H113 C85 0.930 . S
H114 C87 0.929 . S
H115 C88 0.929 . S
H116 C93 0.930 . S
H117 C94 0.930 . S
H118 C96 0.929 . S
H119 C97 0.929 . S
La120 C122 2.928 1_565 S
La120 O140 2.521 . S
La120 O141 2.628 1_565 S
La120 O142 2.554 . S
La120 O143 2.757 . S
La120 O144 2.470 1_565 S
La120 O149 2.482 1_565 S
La120 O151 2.503 . S
La121 C131 2.928 1_545 S
La121 O143 2.482 1_545 S
La121 O145 2.503 . S
La121 O146 2.521 . S
La121 O147 2.628 1_545 S
La121 O148 2.554 . S
La121 O149 2.757 . S
La121 O150 2.470 1_545 S
C122 La120 2.928 1_545 S
C122 C123 1.503 . S
C122 O140 1.261 1_545 S
C122 O141 1.243 . S
C123 C122 1.503 . S
C123 C124 1.394 1_545 S
C123 C128 1.373 . S
C124 C123 1.394 1_565 S
C124 C125 1.380 . S
C124 H152 0.930 . S
C125 C124 1.380 . S
C125 C126 1.376 1_565 S
C125 H153 0.930 . S
C126 C125 1.376 1_545 S
C126 C127 1.370 . S
C127 C126 1.370 . S
C127 C128 1.396 . S
C127 H154 0.929 . S
C128 C123 1.373 . S
C128 C127 1.396 . S
C128 H155 0.929 . S
C129 O142 1.240 . S
C129 O143 1.289 . S
C130 O144 1.258 . S
C130 O145 1.256 . S
C131 La121 2.928 1_565 S
C131 C132 1.503 . S
C131 O146 1.261 1_565 S
C131 O147 1.243 . S
C132 C131 1.503 . S
C132 C133 1.394 1_565 S
C132 C137 1.373 . S
C133 C132 1.394 1_545 S
C133 C134 1.380 . S
C133 H156 0.930 . S
C134 C133 1.380 . S
C134 C135 1.376 1_545 S
C134 H157 0.930 . S
C135 C134 1.376 1_565 S
C135 C136 1.370 . S
C136 C135 1.370 . S
C136 C137 1.396 . S
C136 H158 0.929 . S
C137 C132 1.373 . S
C137 C136 1.396 . S
C137 H159 0.929 . S
C138 O148 1.240 . S
C138 O149 1.289 . S
C139 O150 1.258 . S
C139 O151 1.256 . S
O140 La120 2.521 . S
O140 C122 1.261 1_565 S
O141 La120 2.628 1_545 S
O141 C122 1.243 . S
O142 La120 2.554 . S
O142 C129 1.240 . S
O143 La120 2.757 . S
O143 La121 2.482 1_565 S
O143 C129 1.289 . S
O144 La120 2.470 1_545 S
O144 C130 1.258 . S
O145 La121 2.503 . S
O145 C130 1.256 . S
O146 La121 2.521 . S
O146 C131 1.261 1_545 S
O147 La121 2.628 1_565 S
O147 C131 1.243 . S
O148 La121 2.554 . S
O148 C138 1.240 . S
O149 La120 2.482 1_545 S
O149 La121 2.757 . S
O149 C138 1.289 . S
O150 La121 2.470 1_565 S
O150 C139 1.258 . S
O151 La120 2.503 . S
O151 C139 1.256 . S
H152 C124 0.930 . S
H153 C125 0.930 . S
H154 C127 0.929 . S
H155 C128 0.929 . S
H156 C133 0.930 . S
H157 C134 0.930 . S
H158 C136 0.929 . S
H159 C137 0.929 . S
La160 C162 2.928 . S
La160 O180 2.521 . S
La160 O181 2.628 . S
La160 O182 2.554 . S
La160 O183 2.757 . S
La160 O184 2.470 . S
La160 O189 2.482 . S
La160 O191 2.503 . S
La161 C171 2.928 . S
La161 O183 2.482 . S
La161 O185 2.503 . S
La161 O186 2.521 . S
La161 O187 2.628 . S
La161 O188 2.554 . S
La161 O189 2.757 . S
La161 O190 2.470 . S
C162 La160 2.928 . S
C162 C163 1.503 . S
C162 O180 1.261 . S
C162 O181 1.243 . S
C163 C162 1.503 . S
C163 C164 1.394 . S
C163 C168 1.373 . S
C164 C163 1.394 . S
C164 C165 1.380 . S
C164 H192 0.930 . S
C165 C164 1.380 . S
C165 C166 1.376 . S
C165 H193 0.930 . S
C166 C165 1.376 . S
C166 C167 1.370 . S
C167 C166 1.370 . S
C167 C168 1.396 . S
C167 H194 0.929 . S
C168 C163 1.373 . S
C168 C167 1.396 . S
C168 H195 0.929 . S
C169 O182 1.240 . S
C169 O183 1.289 . S
C170 O184 1.258 . S
C170 O185 1.256 . S
C171 La161 2.928 . S
C171 C172 1.503 . S
C171 O186 1.261 . S
C171 O187 1.243 . S
C172 C171 1.503 . S
C172 C173 1.394 . S
C172 C177 1.373 . S
C173 C172 1.394 . S
C173 C174 1.380 . S
C173 H196 0.930 . S
C174 C173 1.380 . S
C174 C175 1.376 . S
C174 H197 0.930 . S
C175 C174 1.376 . S
C175 C176 1.370 . S
C176 C175 1.370 . S
C176 C177 1.396 . S
C176 H198 0.929 . S
C177 C172 1.373 . S
C177 C176 1.396 . S
C177 H199 0.929 . S
C178 O188 1.240 . S
C178 O189 1.289 . S
C179 O190 1.258 . S
C179 O191 1.256 . S
O180 La160 2.521 . S
O180 C162 1.261 . S
O181 La160 2.628 . S
O181 C162 1.243 . S
O182 La160 2.554 . S
O182 C169 1.240 . S
O183 La160 2.757 . S
O183 La161 2.482 . S
O183 C169 1.289 . S
O184 La160 2.470 . S
O184 C170 1.258 . S
O185 La161 2.503 . S
O185 C170 1.256 . S
O186 La161 2.521 . S
O186 C171 1.261 . S
O187 La161 2.628 . S
O187 C171 1.243 . S
O188 La161 2.554 . S
O188 C178 1.240 . S
O189 La160 2.482 . S
O189 La161 2.757 . S
O189 C178 1.289 . S
O190 La161 2.470 . S
O190 C179 1.258 . S
O191 La160 2.503 . S
O191 C179 1.256 . S
H192 C164 0.930 . S
H193 C165 0.930 . S
H194 C167 0.929 . S
H195 C168 0.929 . S
H196 C173 0.930 . S
H197 C174 0.930 . S
H198 C176 0.929 . S
H199 C177 0.929 . S
La200 C202 2.928 . S
La200 O220 2.521 . S
La200 O221 2.628 . S
La200 O222 2.554 . S
La200 O223 2.757 . S
La200 O224 2.470 . S
La200 O229 2.482 . S
La200 O231 2.503 . S
La201 C211 2.928 . S
La201 O223 2.482 . S
La201 O225 2.503 . S
La201 O226 2.521 . S
La201 O227 2.628 . S
La201 O228 2.554 . S
La201 O229 2.757 . S
La201 O230 2.470 . S
C202 La200 2.928 . S
C202 C203 1.503 . S
C202 O220 1.261 . S
C202 O221 1.243 . S
C203 C202 1.503 . S
C203 C204 1.394 . S
C203 C208 1.373 . S
C204 C203 1.394 . S
C204 C205 1.380 . S
C204 H232 0.930 . S
C205 C204 1.380 . S
C205 C206 1.376 . S
C205 H233 0.930 . S
C206 C205 1.376 . S
C206 C207 1.370 . S
C207 C206 1.370 . S
C207 C208 1.396 . S
C207 H234 0.929 . S
C208 C203 1.373 . S
C208 C207 1.396 . S
C208 H235 0.929 . S
C209 O222 1.240 . S
C209 O223 1.289 . S
C210 O224 1.258 . S
C210 O225 1.256 . S
C211 La201 2.928 . S
C211 C212 1.503 . S
C211 O226 1.261 . S
C211 O227 1.243 . S
C212 C211 1.503 . S
C212 C213 1.394 . S
C212 C217 1.373 . S
C213 C212 1.394 . S
C213 C214 1.380 . S
C213 H236 0.930 . S
C214 C213 1.380 . S
C214 C215 1.376 . S
C214 H237 0.930 . S
C215 C214 1.376 . S
C215 C216 1.370 . S
C216 C215 1.370 . S
C216 C217 1.396 . S
C216 H238 0.929 . S
C217 C212 1.373 . S
C217 C216 1.396 . S
C217 H239 0.929 . S
C218 O228 1.240 . S
C218 O229 1.289 . S
C219 O230 1.258 . S
C219 O231 1.256 . S
O220 La200 2.521 . S
O220 C202 1.261 . S
O221 La200 2.628 . S
O221 C202 1.243 . S
O222 La200 2.554 . S
O222 C209 1.240 . S
O223 La200 2.757 . S
O223 La201 2.482 . S
O223 C209 1.289 . S
O224 La200 2.470 . S
O224 C210 1.258 . S
O225 La201 2.503 . S
O225 C210 1.256 . S
O226 La201 2.521 . S
O226 C211 1.261 . S
O227 La201 2.628 . S
O227 C211 1.243 . S
O228 La201 2.554 . S
O228 C218 1.240 . S
O229 La200 2.482 . S
O229 La201 2.757 . S
O229 C218 1.289 . S
O230 La201 2.470 . S
O230 C219 1.258 . S
O231 La200 2.503 . S
O231 C219 1.256 . S
H232 C204 0.930 . S
H233 C205 0.930 . S
H234 C207 0.929 . S
H235 C208 0.929 . S
H236 C213 0.930 . S
H237 C214 0.930 . S
H238 C216 0.929 . S
H239 C217 0.929 . S
La240 C242 2.928 . S
La240 O260 2.521 . S
La240 O261 2.628 . S
La240 O262 2.554 . S
La240 O263 2.757 . S
La240 O264 2.470 . S
La240 O269 2.482 . S
La240 O271 2.503 . S
La241 C251 2.928 . S
La241 O263 2.482 . S
La241 O265 2.503 . S
La241 O266 2.521 . S
La241 O267 2.628 . S
La241 O268 2.554 . S
La241 O269 2.757 . S
La241 O270 2.470 . S
C242 La240 2.928 . S
C242 C243 1.503 . S
C242 O260 1.261 . S
C242 O261 1.243 . S
C243 C242 1.503 . S
C243 C244 1.394 . S
C243 C248 1.373 . S
C244 C243 1.394 . S
C244 C245 1.380 . S
C244 H272 0.930 . S
C245 C244 1.380 . S
C245 C246 1.376 . S
C245 H273 0.930 . S
C246 C245 1.376 . S
C246 C247 1.370 . S
C247 C246 1.370 . S
C247 C248 1.396 . S
C247 H274 0.929 . S
C248 C243 1.373 . S
C248 C247 1.396 . S
C248 H275 0.929 . S
C249 O262 1.240 . S
C249 O263 1.289 . S
C250 O264 1.258 . S
C250 O265 1.256 . S
C251 La241 2.928 . S
C251 C252 1.503 . S
C251 O266 1.261 . S
C251 O267 1.243 . S
C252 C251 1.503 . S
C252 C253 1.394 . S
C252 C257 1.373 . S
C253 C252 1.394 . S
C253 C254 1.380 . S
C253 H276 0.930 . S
C254 C253 1.380 . S
C254 C255 1.376 . S
C254 H277 0.930 . S
C255 C254 1.376 . S
C255 C256 1.370 . S
C256 C255 1.370 . S
C256 C257 1.396 . S
C256 H278 0.929 . S
C257 C252 1.373 . S
C257 C256 1.396 . S
C257 H279 0.929 . S
C258 O268 1.240 . S
C258 O269 1.289 . S
C259 O270 1.258 . S
C259 O271 1.256 . S
O260 La240 2.521 . S
O260 C242 1.261 . S
O261 La240 2.628 . S
O261 C242 1.243 . S
O262 La240 2.554 . S
O262 C249 1.240 . S
O263 La240 2.757 . S
O263 La241 2.482 . S
O263 C249 1.289 . S
O264 La240 2.470 . S
O264 C250 1.258 . S
O265 La241 2.503 . S
O265 C250 1.256 . S
O266 La241 2.521 . S
O266 C251 1.261 . S
O267 La241 2.628 . S
O267 C251 1.243 . S
O268 La241 2.554 . S
O268 C258 1.240 . S
O269 La240 2.482 . S
O269 La241 2.757 . S
O269 C258 1.289 . S
O270 La241 2.470 . S
O270 C259 1.258 . S
O271 La240 2.503 . S
O271 C259 1.256 . S
H272 C244 0.930 . S
H273 C245 0.930 . S
H274 C247 0.929 . S
H275 C248 0.929 . S
H276 C253 0.930 . S
H277 C254 0.930 . S
H278 C256 0.929 . S
H279 C257 0.929 . S
La280 C282 2.928 . S
La280 O300 2.521 . S
La280 O301 2.628 . S
La280 O302 2.554 1_655 S
La280 O303 2.757 1_655 S
La280 O304 2.470 1_655 S
La280 O309 2.482 . S
La280 O311 2.503 . S
La281 C291 2.928 . S
La281 O303 2.482 . S
La281 O305 2.503 . S
La281 O306 2.521 . S
La281 O307 2.628 . S
La281 O308 2.554 1_455 S
La281 O309 2.757 1_455 S
La281 O310 2.470 1_455 S
C282 La280 2.928 . S
C282 C283 1.503 . S
C282 O300 1.261 . S
C282 O301 1.243 . S
C283 C282 1.503 . S
C283 C284 1.394 . S
C283 C288 1.373 . S
C284 C283 1.394 . S
C284 C285 1.380 . S
C284 H312 0.930 . S
C285 C284 1.380 . S
C285 C286 1.376 . S
C285 H313 0.930 . S
C286 C285 1.376 . S
C286 C287 1.370 . S
C287 C286 1.370 . S
C287 C288 1.396 . S
C287 H314 0.929 . S
C288 C283 1.373 . S
C288 C287 1.396 . S
C288 H315 0.929 . S
C289 O302 1.240 . S
C289 O303 1.289 . S
C290 O304 1.258 . S
C290 O305 1.256 . S
C291 La281 2.928 . S
C291 C292 1.503 . S
C291 O306 1.261 . S
C291 O307 1.243 . S
C292 C291 1.503 . S
C292 C293 1.394 . S
C292 C297 1.373 . S
C293 C292 1.394 . S
C293 C294 1.380 . S
C293 H316 0.930 . S
C294 C293 1.380 . S
C294 C295 1.376 . S
C294 H317 0.930 . S
C295 C294 1.376 . S
C295 C296 1.370 . S
C296 C295 1.370 . S
C296 C297 1.396 . S
C296 H318 0.929 . S
C297 C292 1.373 . S
C297 C296 1.396 . S
C297 H319 0.929 . S
C298 O308 1.240 . S
C298 O309 1.289 . S
C299 O310 1.258 . S
C299 O311 1.256 . S
O300 La280 2.521 . S
O300 C282 1.261 . S
O301 La280 2.628 . S
O301 C282 1.243 . S
O302 La280 2.554 1_455 S
O302 C289 1.240 . S
O303 La280 2.757 1_455 S
O303 La281 2.482 . S
O303 C289 1.289 . S
O304 La280 2.470 1_455 S
O304 C290 1.258 . S
O305 La281 2.503 . S
O305 C290 1.256 . S
O306 La281 2.521 . S
O306 C291 1.261 . S
O307 La281 2.628 . S
O307 C291 1.243 . S
O308 La281 2.554 1_655 S
O308 C298 1.240 . S
O309 La280 2.482 . S
O309 La281 2.757 1_655 S
O309 C298 1.289 . S
O310 La281 2.470 1_655 S
O310 C299 1.258 . S
O311 La280 2.503 . S
O311 C299 1.256 . S
H312 C284 0.930 . S
H313 C285 0.930 . S
H314 C287 0.929 . S
H315 C288 0.929 . S
H316 C293 0.930 . S
H317 C294 0.930 . S
H318 C296 0.929 . S
H319 C297 0.929 . S
La320 C322 2.928 . S
La320 O340 2.521 . S
La320 O341 2.628 . S
La320 O342 2.554 . S
La320 O343 2.757 . S
La320 O344 2.470 1_556 S
La320 O349 2.482 1_556 S
La320 O351 2.503 . S
La321 C331 2.928 . S
La321 O343 2.482 1_554 S
La321 O345 2.503 . S
La321 O346 2.521 . S
La321 O347 2.628 . S
La321 O348 2.554 . S
La321 O349 2.757 . S
La321 O350 2.470 1_554 S
C322 La320 2.928 . S
C322 C323 1.503 . S
C322 O340 1.261 . S
C322 O341 1.243 . S
C323 C322 1.503 . S
C323 C324 1.394 . S
C323 C328 1.372 1_556 S
C324 C323 1.394 . S
C324 C325 1.380 . S
C324 H352 0.930 . S
C325 C324 1.380 . S
C325 C326 1.376 . S
C325 H353 0.930 . S
C326 C325 1.376 . S
C326 C327 1.360 1_556 S
C327 C326 1.360 1_554 S
C327 C328 1.398 . S
C327 H354 0.935 . S
C328 C323 1.372 1_554 S
C328 C327 1.398 . S
C328 H355 0.932 . S
C329 O342 1.240 . S
C329 O343 1.289 . S
C330 O344 1.258 . S
C330 O345 1.256 . S
C331 La321 2.928 . S
C331 C332 1.503 . S
C331 O346 1.261 . S
C331 O347 1.243 . S
C332 C331 1.503 . S
C332 C333 1.394 . S
C332 C337 1.379 . S
C333 C332 1.394 . S
C333 C334 1.380 . S
C333 H356 0.930 . S
C334 C333 1.380 . S
C334 C335 1.376 . S
C334 H357 0.930 . S
C335 C334 1.376 . S
C335 C336 1.372 . S
C336 C335 1.372 . S
C336 C337 1.398 . S
C336 H358 0.928 1_554 S
C337 C332 1.379 . S
C337 C336 1.398 . S
C337 H359 0.921 1_554 S
C338 O348 1.240 . S
C338 O349 1.289 . S
C339 O350 1.258 . S
C339 O351 1.256 . S
O340 La320 2.521 . S
O340 C322 1.261 . S
O341 La320 2.628 . S
O341 C322 1.243 . S
O342 La320 2.554 . S
O342 C329 1.240 . S
O343 La320 2.757 . S
O343 La321 2.482 1_556 S
O343 C329 1.289 . S
O344 La320 2.470 1_554 S
O344 C330 1.258 . S
O345 La321 2.503 . S
O345 C330 1.256 . S
O346 La321 2.521 . S
O346 C331 1.261 . S
O347 La321 2.628 . S
O347 C331 1.243 . S
O348 La321 2.554 . S
O348 C338 1.240 . S
O349 La320 2.482 1_554 S
O349 La321 2.757 . S
O349 C338 1.289 . S
O350 La321 2.470 1_556 S
O350 C339 1.258 . S
O351 La320 2.503 . S
O351 C339 1.256 . S
H352 C324 0.930 . S
H353 C325 0.930 . S
H354 C327 0.935 . S
H355 C328 0.932 . S
H356 C333 0.930 . S
H357 C334 0.930 . S
H358 C336 0.928 1_556 S
H359 C337 0.921 1_556 S
La360 C362 2.928 1_565 S
La360 O380 2.521 . S
La360 O381 2.628 1_565 S
La360 O382 2.554 . S
La360 O383 2.757 . S
La360 O384 2.470 1_565 S
La360 O389 2.482 1_565 S
La360 O391 2.503 . S
La361 C371 2.928 1_545 S
La361 O383 2.482 1_545 S
La361 O385 2.503 . S
La361 O386 2.521 . S
La361 O387 2.628 1_545 S
La361 O388 2.554 . S
La361 O389 2.757 . S
La361 O390 2.470 1_545 S
C362 La360 2.928 1_545 S
C362 C363 1.503 . S
C362 O380 1.261 1_545 S
C362 O381 1.243 . S
C363 C362 1.503 . S
C363 C364 1.394 1_545 S
C363 C368 1.373 . S
C364 C363 1.394 1_565 S
C364 C365 1.380 . S
C364 H392 0.930 . S
C365 C364 1.380 . S
C365 C366 1.376 1_565 S
C365 H393 0.930 . S
C366 C365 1.376 1_545 S
C366 C367 1.370 . S
C367 C366 1.370 . S
C367 C368 1.396 . S
C367 H394 0.929 . S
C368 C363 1.373 . S
C368 C367 1.396 . S
C368 H395 0.929 . S
C369 O382 1.240 . S
C369 O383 1.289 . S
C370 O384 1.258 . S
C370 O385 1.256 . S
C371 La361 2.928 1_565 S
C371 C372 1.503 . S
C371 O386 1.261 1_565 S
C371 O387 1.243 . S
C372 C371 1.503 . S
C372 C373 1.394 1_565 S
C372 C377 1.373 . S
C373 C372 1.394 1_545 S
C373 C374 1.380 . S
C373 H396 0.930 . S
C374 C373 1.380 . S
C374 C375 1.376 1_545 S
C374 H397 0.930 . S
C375 C374 1.376 1_565 S
C375 C376 1.370 . S
C376 C375 1.370 . S
C376 C377 1.396 . S
C376 H398 0.929 . S
C377 C372 1.373 . S
C377 C376 1.396 . S
C377 H399 0.929 . S
C378 O388 1.240 . S
C378 O389 1.289 . S
C379 O390 1.258 . S
C379 O391 1.256 . S
O380 La360 2.521 . S
O380 C362 1.261 1_565 S
O381 La360 2.628 1_545 S
O381 C362 1.243 . S
O382 La360 2.554 . S
O382 C369 1.240 . S
O383 La360 2.757 . S
O383 La361 2.482 1_565 S
O383 C369 1.289 . S
O384 La360 2.470 1_545 S
O384 C370 1.258 . S
O385 La361 2.503 . S
O385 C370 1.256 . S
O386 La361 2.521 . S
O386 C371 1.261 1_545 S
O387 La361 2.628 1_565 S
O387 C371 1.243 . S
O388 La361 2.554 . S
O388 C378 1.240 . S
O389 La360 2.482 1_545 S
O389 La361 2.757 . S
O389 C378 1.289 . S
O390 La361 2.470 1_565 S
O390 C379 1.258 . S
O391 La360 2.503 . S
O391 C379 1.256 . S
H392 C364 0.930 . S
H393 C365 0.930 . S
H394 C367 0.929 . S
H395 C368 0.929 . S
H396 C373 0.930 . S
H397 C374 0.930 . S
H398 C376 0.929 . S
H399 C377 0.929 . S
La400 C402 2.928 . S
La400 O420 2.521 . S
La400 O421 2.628 . S
La400 O422 2.554 . S
La400 O423 2.757 . S
La400 O424 2.470 . S
La400 O429 2.482 . S
La400 O431 2.503 . S
La401 C411 2.928 . S
La401 O423 2.482 . S
La401 O425 2.503 . S
La401 O426 2.521 . S
La401 O427 2.628 . S
La401 O428 2.554 . S
La401 O429 2.757 . S
La401 O430 2.470 . S
C402 La400 2.928 . S
C402 C403 1.503 . S
C402 O420 1.261 . S
C402 O421 1.243 . S
C403 C402 1.503 . S
C403 C404 1.394 . S
C403 C408 1.373 . S
C404 C403 1.394 . S
C404 C405 1.380 . S
C404 H432 0.930 . S
C405 C404 1.380 . S
C405 C406 1.376 . S
C405 H433 0.930 . S
C406 C405 1.376 . S
C406 C407 1.370 . S
C407 C406 1.370 . S
C407 C408 1.396 . S
C407 H434 0.929 . S
C408 C403 1.373 . S
C408 C407 1.396 . S
C408 H435 0.929 . S
C409 O422 1.240 . S
C409 O423 1.289 . S
C410 O424 1.258 . S
C410 O425 1.256 . S
C411 La401 2.928 . S
C411 C412 1.503 . S
C411 O426 1.261 . S
C411 O427 1.243 . S
C412 C411 1.503 . S
C412 C413 1.394 . S
C412 C417 1.373 . S
C413 C412 1.394 . S
C413 C414 1.380 . S
C413 H436 0.930 . S
C414 C413 1.380 . S
C414 C415 1.376 . S
C414 H437 0.930 . S
C415 C414 1.376 . S
C415 C416 1.370 . S
C416 C415 1.370 . S
C416 C417 1.396 . S
C416 H438 0.929 . S
C417 C412 1.373 . S
C417 C416 1.396 . S
C417 H439 0.929 . S
C418 O428 1.240 . S
C418 O429 1.289 . S
C419 O430 1.258 . S
C419 O431 1.256 . S
O420 La400 2.521 . S
O420 C402 1.261 . S
O421 La400 2.628 . S
O421 C402 1.243 . S
O422 La400 2.554 . S
O422 C409 1.240 . S
O423 La400 2.757 . S
O423 La401 2.482 . S
O423 C409 1.289 . S
O424 La400 2.470 . S
O424 C410 1.258 . S
O425 La401 2.503 . S
O425 C410 1.256 . S
O426 La401 2.521 . S
O426 C411 1.261 . S
O427 La401 2.628 . S
O427 C411 1.243 . S
O428 La401 2.554 . S
O428 C418 1.240 . S
O429 La400 2.482 . S
O429 La401 2.757 . S
O429 C418 1.289 . S
O430 La401 2.470 . S
O430 C419 1.258 . S
O431 La400 2.503 . S
O431 C419 1.256 . S
H432 C404 0.930 . S
H433 C405 0.930 . S
H434 C407 0.929 . S
H435 C408 0.929 . S
H436 C413 0.930 . S
H437 C414 0.930 . S
H438 C416 0.929 . S
H439 C417 0.929 . S
La440 C442 2.928 . S
La440 O460 2.521 . S
La440 O461 2.628 1_455 S
La440 O462 2.554 . S
La440 O463 2.757 . S
La440 O464 2.470 1_455 S
La440 O469 2.482 1_455 S
La440 O471 2.503 . S
La441 C451 2.928 . S
La441 O463 2.482 1_655 S
La441 O465 2.503 . S
La441 O466 2.521 . S
La441 O467 2.628 1_655 S
La441 O468 2.554 . S
La441 O469 2.757 . S
La441 O470 2.470 1_655 S
C442 La440 2.928 . S
C442 C443 1.503 1_455 S
C442 O460 1.261 . S
C442 O461 1.243 1_455 S
C443 C442 1.503 1_655 S
C443 C444 1.394 1_655 S
C443 C448 1.373 . S
C444 C443 1.394 1_455 S
C444 C445 1.380 . S
C444 H472 0.930 . S
C445 C444 1.380 . S
C445 C446 1.376 1_455 S
C445 H473 0.930 . S
C446 C445 1.376 1_655 S
C446 C447 1.370 . S
C447 C446 1.370 . S
C447 C448 1.396 . S
C447 H474 0.929 . S
C448 C443 1.373 . S
C448 C447 1.396 . S
C448 H475 0.929 . S
C449 O462 1.240 . S
C449 O463 1.289 . S
C450 O464 1.258 . S
C450 O465 1.256 . S
C451 La441 2.928 . S
C451 C452 1.503 1_655 S
C451 O466 1.261 . S
C451 O467 1.243 1_655 S
C452 C451 1.503 1_455 S
C452 C453 1.394 1_455 S
C452 C457 1.373 . S
C453 C452 1.394 1_655 S
C453 C454 1.380 . S
C453 H476 0.930 . S
C454 C453 1.380 . S
C454 C455 1.376 1_655 S
C454 H477 0.930 . S
C455 C454 1.376 1_455 S
C455 C456 1.370 . S
C456 C455 1.370 . S
C456 C457 1.396 . S
C456 H478 0.929 . S
C457 C452 1.373 . S
C457 C456 1.396 . S
C457 H479 0.929 . S
C458 O468 1.240 . S
C458 O469 1.289 . S
C459 O470 1.258 . S
C459 O471 1.256 . S
O460 La440 2.521 . S
O460 C442 1.261 . S
O461 La440 2.628 1_655 S
O461 C442 1.243 1_655 S
O462 La440 2.554 . S
O462 C449 1.240 . S
O463 La440 2.757 . S
O463 La441 2.482 1_455 S
O463 C449 1.289 . S
O464 La440 2.470 1_655 S
O464 C450 1.258 . S
O465 La441 2.503 . S
O465 C450 1.256 . S
O466 La441 2.521 . S
O466 C451 1.261 . S
O467 La441 2.628 1_455 S
O467 C451 1.243 1_455 S
O468 La441 2.554 . S
O468 C458 1.240 . S
O469 La440 2.482 1_655 S
O469 La441 2.757 . S
O469 C458 1.289 . S
O470 La441 2.470 1_455 S
O470 C459 1.258 . S
O471 La440 2.503 . S
O471 C459 1.256 . S
H472 C444 0.930 . S
H473 C445 0.930 . S
H474 C447 0.929 . S
H475 C448 0.929 . S
H476 C453 0.930 . S
H477 C454 0.930 . S
H478 C456 0.929 . S
H479 C457 0.929 . S
La480 C482 2.928 . S
La480 O500 2.521 . S
La480 O501 2.628 . S
La480 O502 2.554 . S
La480 O503 2.757 . S
La480 O504 2.470 . S
La480 O509 2.482 . S
La480 O511 2.503 . S
La481 C491 2.928 . S
La481 O503 2.482 . S
La481 O505 2.503 . S
La481 O506 2.521 . S
La481 O507 2.628 . S
La481 O508 2.554 . S
La481 O509 2.757 . S
La481 O510 2.470 . S
C482 La480 2.928 . S
C482 C483 1.503 . S
C482 O500 1.261 . S
C482 O501 1.243 . S
C483 C482 1.503 . S
C483 C484 1.394 . S
C483 C488 1.373 . S
C484 C483 1.394 . S
C484 C485 1.380 . S
C484 H512 0.930 . S
C485 C484 1.380 . S
C485 C486 1.376 . S
C485 H513 0.930 . S
C486 C485 1.376 . S
C486 C487 1.370 . S
C487 C486 1.370 . S
C487 C488 1.396 . S
C487 H514 0.929 . S
C488 C483 1.373 . S
C488 C487 1.396 . S
C488 H515 0.929 . S
C489 O502 1.240 . S
C489 O503 1.289 . S
C490 O504 1.258 . S
C490 O505 1.256 . S
C491 La481 2.928 . S
C491 C492 1.503 . S
C491 O506 1.261 . S
C491 O507 1.243 . S
C492 C491 1.503 . S
C492 C493 1.394 . S
C492 C497 1.373 . S
C493 C492 1.394 . S
C493 C494 1.380 . S
C493 H516 0.930 . S
C494 C493 1.380 . S
C494 C495 1.376 . S
C494 H517 0.930 . S
C495 C494 1.376 . S
C495 C496 1.370 . S
C496 C495 1.370 . S
C496 C497 1.396 . S
C496 H518 0.929 . S
C497 C492 1.373 . S
C497 C496 1.396 . S
C497 H519 0.929 . S
C498 O508 1.240 . S
C498 O509 1.289 . S
C499 O510 1.258 . S
C499 O511 1.256 . S
O500 La480 2.521 . S
O500 C482 1.261 . S
O501 La480 2.628 . S
O501 C482 1.243 . S
O502 La480 2.554 . S
O502 C489 1.240 . S
O503 La480 2.757 . S
O503 La481 2.482 . S
O503 C489 1.289 . S
O504 La480 2.470 . S
O504 C490 1.258 . S
O505 La481 2.503 . S
O505 C490 1.256 . S
O506 La481 2.521 . S
O506 C491 1.261 . S
O507 La481 2.628 . S
O507 C491 1.243 . S
O508 La481 2.554 . S
O508 C498 1.240 . S
O509 La480 2.482 . S
O509 La481 2.757 . S
O509 C498 1.289 . S
O510 La481 2.470 . S
O510 C499 1.258 . S
O511 La480 2.503 . S
O511 C499 1.256 . S
H512 C484 0.930 . S
H513 C485 0.930 . S
H514 C487 0.929 . S
H515 C488 0.929 . S
H516 C493 0.930 . S
H517 C494 0.930 . S
H518 C496 0.929 . S
H519 C497 0.929 . S
La520 C522 2.928 . S
La520 O540 2.521 . S
La520 O541 2.628 . S
La520 O542 2.554 . S
La520 O543 2.757 . S
La520 O544 2.470 1_556 S
La520 O549 2.482 1_556 S
La520 O551 2.503 . S
La521 C531 2.928 . S
La521 O543 2.482 1_554 S
La521 O545 2.503 . S
La521 O546 2.521 . S
La521 O547 2.628 . S
La521 O548 2.554 . S
La521 O549 2.757 . S
La521 O550 2.470 1_554 S
C522 La520 2.928 . S
C522 C523 1.503 . S
C522 O540 1.261 . S
C522 O541 1.243 . S
C523 C522 1.503 . S
C523 C524 1.394 . S
C523 C528 1.371 1_556 S
C524 C523 1.394 . S
C524 C525 1.380 . S
C524 H552 0.930 . S
C525 C524 1.380 . S
C525 C526 1.376 . S
C525 H553 0.930 . S
C526 C525 1.376 . S
C526 C527 1.360 1_556 S
C527 C526 1.360 1_554 S
C527 C528 1.398 . S
C527 H554 0.935 . S
C528 C523 1.371 1_554 S
C528 C527 1.398 . S
C528 H555 0.932 . S
C529 O542 1.240 . S
C529 O543 1.289 . S
C530 O544 1.258 . S
C530 O545 1.256 . S
C531 La521 2.928 . S
C531 C532 1.503 . S
C531 O546 1.261 . S
C531 O547 1.243 . S
C532 C531 1.503 . S
C532 C533 1.394 . S
C532 C537 1.379 . S
C533 C532 1.394 . S
C533 C534 1.380 . S
C533 H556 0.930 . S
C534 C533 1.380 . S
C534 C535 1.376 . S
C534 H557 0.930 . S
C535 C534 1.376 . S
C535 C536 1.372 . S
C536 C535 1.372 . S
C536 C537 1.398 . S
C536 H558 0.928 1_554 S
C537 C532 1.379 . S
C537 C536 1.398 . S
C537 H559 0.921 1_554 S
C538 O548 1.240 . S
C538 O549 1.289 . S
C539 O550 1.258 . S
C539 O551 1.256 . S
O540 La520 2.521 . S
O540 C522 1.261 . S
O541 La520 2.628 . S
O541 C522 1.243 . S
O542 La520 2.554 . S
O542 C529 1.240 . S
O543 La520 2.757 . S
O543 La521 2.482 1_556 S
O543 C529 1.289 . S
O544 La520 2.470 1_554 S
O544 C530 1.258 . S
O545 La521 2.503 . S
O545 C530 1.256 . S
O546 La521 2.521 . S
O546 C531 1.261 . S
O547 La521 2.628 . S
O547 C531 1.243 . S
O548 La521 2.554 . S
O548 C538 1.240 . S
O549 La520 2.482 1_554 S
O549 La521 2.757 . S
O549 C538 1.289 . S
O550 La521 2.470 1_556 S
O550 C539 1.258 . S
O551 La520 2.503 . S
O551 C539 1.256 . S
H552 C524 0.930 . S
H553 C525 0.930 . S
H554 C527 0.935 . S
H555 C528 0.932 . S
H556 C533 0.930 . S
H557 C534 0.930 . S
H558 C536 0.928 1_556 S
H559 C537 0.921 1_556 S
La560 C562 2.928 . S
La560 O580 2.521 . S
La560 O581 2.628 . S
La560 O582 2.554 . S
La560 O583 2.757 . S
La560 O584 2.470 . S
La560 O589 2.482 1_565 S
La560 O591 2.503 1_565 S
La561 C571 2.928 . S
La561 O583 2.482 1_545 S
La561 O585 2.503 1_545 S
La561 O586 2.521 . S
La561 O587 2.628 . S
La561 O588 2.554 . S
La561 O589 2.757 . S
La561 O590 2.470 . S
C562 La560 2.928 . S
C562 C563 1.503 . S
C562 O580 1.261 . S
C562 O581 1.243 . S
C563 C562 1.503 . S
C563 C564 1.394 . S
C563 C568 1.373 . S
C564 C563 1.394 . S
C564 C565 1.380 . S
C564 H592 0.930 . S
C565 C564 1.380 . S
C565 C566 1.376 . S
C565 H593 0.930 . S
C566 C565 1.376 . S
C566 C567 1.370 . S
C567 C566 1.370 . S
C567 C568 1.396 . S
C567 H594 0.929 . S
C568 C563 1.373 . S
C568 C567 1.396 . S
C568 H595 0.929 . S
C569 O582 1.240 . S
C569 O583 1.289 . S
C570 O584 1.258 . S
C570 O585 1.256 . S
C571 La561 2.928 . S
C571 C572 1.503 . S
C571 O586 1.261 . S
C571 O587 1.243 . S
C572 C571 1.503 . S
C572 C573 1.394 . S
C572 C577 1.373 . S
C573 C572 1.394 . S
C573 C574 1.380 . S
C573 H596 0.930 . S
C574 C573 1.380 . S
C574 C575 1.376 . S
C574 H597 0.930 . S
C575 C574 1.376 . S
C575 C576 1.370 . S
C576 C575 1.370 . S
C576 C577 1.396 . S
C576 H598 0.929 . S
C577 C572 1.373 . S
C577 C576 1.396 . S
C577 H599 0.929 . S
C578 O588 1.240 . S
C578 O589 1.289 . S
C579 O590 1.258 . S
C579 O591 1.256 . S
O580 La560 2.521 . S
O580 C562 1.261 . S
O581 La560 2.628 . S
O581 C562 1.243 . S
O582 La560 2.554 . S
O582 C569 1.240 . S
O583 La560 2.757 . S
O583 La561 2.482 1_565 S
O583 C569 1.289 . S
O584 La560 2.470 . S
O584 C570 1.258 . S
O585 La561 2.503 1_565 S
O585 C570 1.256 . S
O586 La561 2.521 . S
O586 C571 1.261 . S
O587 La561 2.628 . S
O587 C571 1.243 . S
O588 La561 2.554 . S
O588 C578 1.240 . S
O589 La560 2.482 1_545 S
O589 La561 2.757 . S
O589 C578 1.289 . S
O590 La561 2.470 . S
O590 C579 1.258 . S
O591 La560 2.503 1_545 S
O591 C579 1.256 . S
H592 C564 0.930 . S
H593 C565 0.930 . S
H594 C567 0.929 . S
H595 C568 0.929 . S
H596 C573 0.930 . S
H597 C574 0.930 . S
H598 C576 0.929 . S
H599 C577 0.929 . S
La600 C602 2.928 . S
La600 O620 2.521 . S
La600 O621 2.628 . S
La600 O622 2.554 . S
La600 O623 2.757 . S
La600 O624 2.484 . S
La600 O629 2.482 1_554 S
La600 O631 2.503 . S
La601 C611 2.928 . S
La601 O623 2.482 1_556 S
La601 O625 2.503 . S
La601 O626 2.521 . S
La601 O627 2.628 . S
La601 O628 2.554 . S
La601 O629 2.757 . S
La601 O630 2.470 . S
C602 La600 2.928 . S
C602 C603 1.503 . S
C602 O620 1.261 . S
C602 O621 1.243 . S
C603 C602 1.503 . S
C603 C604 1.394 . S
C603 C608 1.373 . S
C604 C603 1.394 . S
C604 C605 1.380 . S
C604 H632 0.930 . S
C605 C604 1.380 . S
C605 C606 1.376 . S
C605 H633 0.930 . S
C606 C605 1.376 . S
C606 C607 1.370 . S
C607 C606 1.370 . S
C607 C608 1.396 . S
C607 H634 0.929 . S
C608 C603 1.373 . S
C608 C607 1.396 . S
C608 H635 0.929 . S
C609 O622 1.240 . S
C609 O623 1.289 . S
C610 O624 1.238 1_556 S
C610 O625 1.256 . S
C611 La601 2.928 . S
C611 C612 1.503 . S
C611 O626 1.261 . S
C611 O627 1.243 . S
C612 C611 1.503 . S
C612 C613 1.394 . S
C612 C617 1.373 . S
C613 C612 1.394 . S
C613 C614 1.380 . S
C613 H636 0.930 . S
C614 C613 1.380 . S
C614 C615 1.376 . S
C614 H637 0.930 . S
C615 C614 1.376 . S
C615 C616 1.370 . S
C616 C615 1.370 . S
C616 C617 1.396 . S
C616 H638 0.929 . S
C617 C612 1.373 . S
C617 C616 1.396 . S
C617 H639 0.929 . S
C618 O628 1.240 . S
C618 O629 1.289 . S
C619 O630 1.258 1_554 S
C619 O631 1.256 . S
O620 La600 2.521 . S
O620 C602 1.261 . S
O621 La600 2.628 . S
O621 C602 1.243 . S
O622 La600 2.554 . S
O622 C609 1.240 . S
O623 La600 2.757 . S
O623 La601 2.482 1_554 S
O623 C609 1.289 . S
O624 La600 2.484 . S
O624 C610 1.238 1_554 S
O625 La601 2.503 . S
O625 C610 1.256 . S
O626 La601 2.521 . S
O626 C611 1.261 . S
O627 La601 2.628 . S
O627 C611 1.243 . S
O628 La601 2.554 . S
O628 C618 1.240 . S
O629 La600 2.482 1_556 S
O629 La601 2.757 . S
O629 C618 1.289 . S
O630 La601 2.470 . S
O630 C619 1.258 1_556 S
O631 La600 2.503 . S
O631 C619 1.256 . S
H632 C604 0.930 . S
H633 C605 0.930 . S
H634 C607 0.929 . S
H635 C608 0.929 . S
H636 C613 0.930 . S
H637 C614 0.930 . S
H638 C616 0.929 . S
H639 C617 0.929 . S
C640 C641 1.387 . S
C640 H644 0.950 . S
C640 C649 1.390 1_655 S
C641 C640 1.387 . S
C641 C643 1.387 . S
H642 C649 0.950 . S
C643 C641 1.387 . S
C643 C645 1.390 1_655 S
C643 H647 0.950 1_554 S
H644 C640 0.950 . S
C645 C643 1.390 1_455 S
C645 C646 1.387 . S
C645 H648 0.950 1_554 S
C646 C645 1.387 . S
C646 C649 1.387 . S
H647 C643 0.950 1_556 S
H648 C645 0.950 1_556 S
C649 C640 1.390 1_455 S
C649 H642 0.950 . S
C649 C646 1.387 . S
C650 C651 1.387 . S
C650 H654 0.950 . S
C650 C659 1.390 . S
C651 C650 1.387 . S
C651 C653 1.387 . S
H652 C659 0.950 . S
C653 C651 1.387 . S
C653 C655 1.390 . S
C653 H657 0.950 . S
H654 C650 0.950 . S
C655 C653 1.390 . S
C655 C656 1.387 . S
C655 H658 0.950 . S
C656 C655 1.387 . S
C656 C659 1.387 . S
H657 C653 0.950 . S
H658 C655 0.950 . S
C659 C650 1.390 . S
C659 H652 0.950 . S
C659 C656 1.387 . S
C660 C661 1.387 . S
C660 H664 0.950 . S
C660 C669 1.390 . S
C661 C660 1.387 . S
C661 C663 1.387 . S
H662 C669 0.950 . S
C663 C661 1.387 . S
C663 C665 1.390 . S
C663 H667 0.950 . S
H664 C660 0.950 . S
C665 C663 1.390 . S
C665 C666 1.387 . S
C665 H668 0.950 . S
C666 C665 1.387 . S
C666 C669 1.387 . S
H667 C663 0.950 . S
H668 C665 0.950 . S
C669 C660 1.390 . S
C669 H662 0.950 . S
C669 C666 1.387 . S
C670 C671 1.387 . S
C670 H674 0.950 . S
C670 C679 1.390 . S
C671 C670 1.387 . S
C671 C673 1.387 . S
H672 C679 0.950 1_565 S
C673 C671 1.387 . S
C673 C675 1.390 1_545 S
C673 H677 0.950 1_556 S
H674 C670 0.950 . S
C675 C673 1.390 1_565 S
C675 C676 1.387 . S
C675 H678 0.950 1_556 S
C676 C675 1.387 . S
C676 C679 1.387 1_565 S
H677 C673 0.950 1_554 S
H678 C675 0.950 1_554 S
C679 C670 1.390 . S
C679 H672 0.950 1_545 S
C679 C676 1.387 1_545 S
C680 C681 1.387 . S
C680 H684 0.950 . S
C680 C689 1.390 1_565 S
C681 C680 1.387 . S
C681 C683 1.387 . S
H682 C689 0.950 . S
C683 C681 1.387 . S
C683 C685 1.390 1_565 S
C683 H687 0.950 1_554 S
H684 C680 0.950 . S
C685 C683 1.390 1_545 S
C685 C686 1.387 . S
C685 H688 0.950 1_554 S
C686 C685 1.387 . S
C686 C689 1.387 . S
H687 C683 0.950 1_556 S
H688 C685 0.950 1_556 S
C689 C680 1.390 1_545 S
C689 H682 0.950 . S
C689 C686 1.387 . S
C690 C691 1.387 . S
C690 H694 0.950 . S
C690 C699 1.390 1_455 S
C691 C690 1.387 . S
C691 C693 1.387 . S
H692 C699 0.950 . S
C693 C691 1.387 . S
C693 C695 1.390 1_455 S
C693 H697 0.950 . S
H694 C690 0.950 . S
C695 C693 1.390 1_655 S
C695 C696 1.387 . S
C695 H698 0.950 . S
C696 C695 1.387 . S
C696 C699 1.387 . S
H697 C693 0.950 . S
H698 C695 0.950 . S
C699 C690 1.390 1_655 S
C699 H692 0.950 . S
C699 C696 1.387 . S
C700 C701 1.387 . S
C700 H704 0.950 . S
C700 C709 1.390 . S
C701 C700 1.387 . S
C701 C703 1.387 . S
H702 C709 0.950 . S
C703 C701 1.387 . S
C703 C705 1.390 . S
C703 H707 0.950 . S
H704 C700 0.950 . S
C705 C703 1.390 . S
C705 C706 1.387 . S
C705 H708 0.950 . S
C706 C705 1.387 . S
C706 C709 1.387 . S
H707 C703 0.950 . S
H708 C705 0.950 . S
C709 C700 1.390 . S
C709 H702 0.950 . S
C709 C706 1.387 . S
C710 C711 1.387 . S
C710 H714 0.950 . S
C710 C719 1.390 . S
C711 C710 1.387 . S
C711 C713 1.387 . S
H712 C719 0.950 . S
C713 C711 1.387 . S
C713 C715 1.390 . S
C713 H717 0.950 . S
H714 C710 0.950 . S
C715 C713 1.390 . S
C715 C716 1.387 . S
C715 H718 0.950 . S
C716 C715 1.387 . S
C716 C719 1.387 . S
H717 C713 0.950 . S
H718 C715 0.950 . S
C719 C710 1.390 . S
C719 H712 0.950 . S
C719 C716 1.387 . S
C720 C721 1.387 . S
C720 H724 0.950 . S
C720 C729 1.390 . S
C721 C720 1.387 . S
C721 C723 1.387 . S
H722 C729 0.950 . S
C723 C721 1.387 . S
C723 C725 1.390 . S
C723 H727 0.950 . S
H724 C720 0.950 . S
C725 C723 1.390 . S
C725 C726 1.387 . S
C725 H728 0.950 . S
C726 C725 1.387 . S
C726 C729 1.387 . S
H727 C723 0.950 . S
H728 C725 0.950 . S
C729 C720 1.390 . S
C729 H722 0.950 . S
C729 C726 1.387 . S
C730 C731 1.387 . S
C730 H734 0.950 . S
C730 C739 1.390 . S
C731 C730 1.387 . S
C731 C733 1.387 . S
H732 C739 0.950 . S
C733 C731 1.387 . S
C733 C735 1.390 . S
C733 H737 0.950 . S
H734 C730 0.950 . S
C735 C733 1.390 . S
C735 C736 1.387 . S
C735 H738 0.950 . S
C736 C735 1.387 . S
C736 C739 1.387 . S
H737 C733 0.950 . S
H738 C735 0.950 . S
C739 C730 1.390 . S
C739 H732 0.950 . S
C739 C736 1.387 . S
C740 C741 1.387 . S
C740 H744 0.950 . S
C740 C749 1.390 1_565 S
C741 C740 1.387 . S
C741 C743 1.387 . S
H742 C749 0.950 . S
C743 C741 1.387 . S
C743 C745 1.390 1_565 S
C743 H747 0.950 . S
H744 C740 0.950 . S
C745 C743 1.390 1_545 S
C745 C746 1.387 . S
C745 H748 0.950 . S
C746 C745 1.387 . S
C746 C749 1.387 . S
H747 C743 0.950 . S
H748 C745 0.950 . S
C749 C740 1.390 1_545 S
C749 H742 0.950 . S
C749 C746 1.387 . S
C750 C751 1.387 . S
C750 H754 0.950 1_556 S
C750 C759 1.390 1_455 S
C751 C750 1.387 . S
C751 C753 1.387 . S
H752 C759 0.950 1_554 S
C753 C751 1.387 . S
C753 C755 1.390 1_455 S
C753 H757 0.950 . S
H754 C750 0.950 1_554 S
C755 C753 1.390 1_655 S
C755 C756 1.387 . S
C755 H758 0.950 . S
C756 C755 1.387 . S
C756 C759 1.387 . S
H757 C753 0.950 . S
H758 C755 0.950 . S
C759 C750 1.390 1_655 S
C759 H752 0.950 1_556 S
C759 C756 1.387 . S
C760 C761 1.387 . S
C760 H764 0.950 . S
C760 C769 1.390 . S
C761 C760 1.387 . S
C761 C763 1.387 . S
H762 C769 0.950 1_554 S
C763 C761 1.387 . S
C763 C765 1.390 . S
C763 H767 0.950 . S
H764 C760 0.950 . S
C765 C763 1.390 . S
C765 C766 1.387 . S
C765 H768 0.950 . S
C766 C765 1.387 . S
C766 C769 1.387 . S
H767 C763 0.950 . S
H768 C765 0.950 . S
C769 C760 1.390 . S
C769 H762 0.950 1_556 S
C769 C766 1.387 . S
C770 C771 1.387 . S
C770 H774 0.950 . S
C770 C779 1.390 . S
C771 C770 1.387 . S
C771 C773 1.387 . S
H772 C779 0.950 . S
C773 C771 1.387 . S
C773 C775 1.390 . S
C773 H777 0.950 . S
H774 C770 0.950 . S
C775 C773 1.390 . S
C775 C776 1.387 . S
C775 H778 0.950 . S
C776 C775 1.387 . S
C776 C779 1.387 . S
H777 C773 0.950 . S
H778 C775 0.950 . S
C779 C770 1.390 . S
C779 H772 0.950 . S
C779 C776 1.387 . S
C780 C781 1.387 . S
C780 H784 0.950 . S
C780 C789 1.390 . S
C781 C780 1.387 . S
C781 C783 1.387 . S
H782 C789 0.950 . S
C783 C781 1.387 . S
C783 C785 1.390 . S
C783 H787 0.950 . S
H784 C780 0.950 . S
C785 C783 1.390 . S
C785 C786 1.387 . S
C785 H788 0.950 . S
C786 C785 1.387 . S
C786 C789 1.387 . S
H787 C783 0.950 . S
H788 C785 0.950 . S
C789 C780 1.390 . S
C789 H782 0.950 . S
C789 C786 1.387 . S
C790 C791 1.387 . S
C790 H794 0.950 . S
C790 C799 1.390 . S
C791 C790 1.387 . S
C791 C793 1.387 . S
H792 C799 0.950 . S
C793 C791 1.387 . S
C793 C795 1.390 . S
C793 H797 0.950 . S
H794 C790 0.950 . S
C795 C793 1.390 . S
C795 C796 1.387 . S
C795 H798 0.950 . S
C796 C795 1.387 . S
C796 C799 1.387 . S
H797 C793 0.950 . S
H798 C795 0.950 . S
C799 C790 1.390 . S
C799 H792 0.950 . S
C799 C796 1.387 . S
C800 C801 1.387 . S
C800 H804 0.950 . S
C800 C809 1.390 . S
C801 C800 1.387 . S
C801 C803 1.387 . S
H802 C809 0.950 . S
C803 C801 1.387 . S
C803 C805 1.390 . S
C803 H807 0.950 . S
H804 C800 0.950 . S
C805 C803 1.390 . S
C805 C806 1.387 . S
C805 H808 0.950 . S
C806 C805 1.387 . S
C806 C809 1.387 . S
H807 C803 0.950 . S
H808 C805 0.950 . S
C809 C800 1.390 . S
C809 H802 0.950 . S
C809 C806 1.387 . S
C810 C811 1.387 . S
C810 H814 0.950 . S
C810 C819 1.390 . S
C811 C810 1.387 . S
C811 C813 1.387 . S
H812 C819 0.950 . S
C813 C811 1.387 . S
C813 C815 1.390 . S
C813 H817 0.950 . S
H814 C810 0.950 . S
C815 C813 1.390 . S
C815 C816 1.387 . S
C815 H818 0.950 . S
C816 C815 1.387 . S
C816 C819 1.387 . S
H817 C813 0.950 . S
H818 C815 0.950 . S
C819 C810 1.390 . S
C819 H812 0.950 . S
C819 C816 1.387 . S
C820 C821 1.387 . S
C820 H824 0.950 . S
C820 C829 1.390 . S
C821 C820 1.387 . S
C821 C823 1.387 . S
H822 C829 0.950 . S
C823 C821 1.387 . S
C823 C825 1.390 . S
C823 H827 0.950 . S
H824 C820 0.950 . S
C825 C823 1.390 . S
C825 C826 1.387 . S
C825 H828 0.950 . S
C826 C825 1.387 . S
C826 C829 1.387 . S
H827 C823 0.950 . S
H828 C825 0.950 . S
C829 C820 1.390 . S
C829 H822 0.950 . S
C829 C826 1.387 . S
C830 C831 1.387 . S
C830 H834 0.950 . S
C830 C839 1.390 . S
C831 C830 1.387 . S
C831 C833 1.387 . S
H832 C839 0.950 . S
C833 C831 1.387 . S
C833 C835 1.390 . S
C833 H837 0.950 . S
H834 C830 0.950 . S
C835 C833 1.390 . S
C835 C836 1.387 . S
C835 H838 0.950 . S
C836 C835 1.387 . S
C836 C839 1.387 . S
H837 C833 0.950 . S
H838 C835 0.950 . S
C839 C830 1.390 . S
C839 H832 0.950 . S
C839 C836 1.387 . S
C840 C841 1.387 . S
C840 H844 0.950 . S
C840 C849 1.390 . S
C841 C840 1.387 . S
C841 C843 1.387 . S
H842 C849 0.950 . S
C843 C841 1.387 . S
C843 C845 1.390 . S
C843 H847 0.950 . S
H844 C840 0.950 . S
C845 C843 1.390 . S
C845 C846 1.387 . S
C845 H848 0.950 . S
C846 C845 1.387 . S
C846 C849 1.387 . S
H847 C843 0.950 . S
H848 C845 0.950 . S
C849 C840 1.390 . S
C849 H842 0.950 . S
C849 C846 1.387 . S
C850 C851 1.387 . S
C850 H854 0.950 . S
C850 C859 1.390 1_455 S
C851 C850 1.387 . S
C851 C853 1.387 . S
H852 C859 0.950 . S
C853 C851 1.387 . S
C853 C855 1.390 1_455 S
C853 H857 0.950 . S
H854 C850 0.950 . S
C855 C853 1.390 1_655 S
C855 C856 1.387 . S
C855 H858 0.950 . S
C856 C855 1.387 . S
C856 C859 1.387 . S
H857 C853 0.950 . S
H858 C855 0.950 . S
C859 C850 1.390 1_655 S
C859 H852 0.950 . S
C859 C856 1.387 . S
C860 C861 1.387 . S
C860 H864 0.950 . S
C860 C869 1.390 . S
C861 C860 1.387 . S
C861 C863 1.387 . S
H862 C869 0.950 . S
C863 C861 1.387 . S
C863 C865 1.390 . S
C863 H867 0.950 . S
H864 C860 0.950 . S
C865 C863 1.390 . S
C865 C866 1.387 . S
C865 H868 0.950 . S
C866 C865 1.387 . S
C866 C869 1.387 . S
H867 C863 0.950 . S
H868 C865 0.950 . S
C869 C860 1.390 . S
C869 H862 0.950 . S
C869 C866 1.387 . S
C870 C871 1.387 . S
C870 H874 0.950 . S
C870 C879 1.390 . S
C871 C870 1.387 . S
C871 C873 1.387 . S
H872 C879 0.950 . S
C873 C871 1.387 . S
C873 C875 1.390 . S
C873 H877 0.950 . S
H874 C870 0.950 . S
C875 C873 1.390 . S
C875 C876 1.387 . S
C875 H878 0.950 . S
C876 C875 1.387 . S
C876 C879 1.387 . S
H877 C873 0.950 . S
H878 C875 0.950 . S
C879 C870 1.390 . S
C879 H872 0.950 . S
C879 C876 1.387 . S
C880 C881 1.387 . S
C880 H884 0.950 . S
C880 C889 1.390 . S
C881 C880 1.387 . S
C881 C883 1.387 . S
H882 C889 0.950 . S
C883 C881 1.387 . S
C883 C885 1.390 . S
C883 H887 0.950 . S
H884 C880 0.950 . S
C885 C883 1.390 . S
C885 C886 1.387 . S
C885 H888 0.950 . S
C886 C885 1.387 . S
C886 C889 1.387 . S
H887 C883 0.950 . S
H888 C885 0.950 . S
C889 C880 1.390 . S
C889 H882 0.950 . S
C889 C886 1.387 . S
C890 C891 1.387 . S
C890 H894 0.950 . S
C890 C899 1.390 . S
C891 C890 1.387 . S
C891 C893 1.387 . S
H892 C899 0.950 . S
C893 C891 1.387 . S
C893 C895 1.390 . S
C893 H897 0.950 . S
H894 C890 0.950 . S
C895 C893 1.390 . S
C895 C896 1.387 . S
C895 H898 0.950 . S
C896 C895 1.387 . S
C896 C899 1.387 . S
H897 C893 0.950 . S
H898 C895 0.950 . S
C899 C890 1.390 . S
C899 H892 0.950 . S
C899 C896 1.387 . S
C900 C901 1.387 . S
C900 H904 0.950 . S
C900 C909 1.390 1_565 S
C901 C900 1.387 . S
C901 C903 1.389 . S
H902 C909 0.950 . S
C903 C901 1.389 . S
C903 C905 1.386 1_565 S
C903 H907 0.953 . S
H904 C900 0.950 . S
C905 C903 1.386 1_545 S
C905 C906 1.387 . S
C905 H908 0.950 . S
C906 C905 1.387 . S
C906 C909 1.387 . S
H907 C903 0.953 . S
H908 C905 0.950 . S
C909 C900 1.390 1_545 S
C909 H902 0.950 . S
C909 C906 1.387 . S
C910 C911 1.387 . S
C910 H914 0.950 . S
C910 C919 1.390 . S
C911 C910 1.387 . S
C911 C913 1.387 . S
H912 C919 0.950 . S
C913 C911 1.387 . S
C913 C915 1.390 . S
C913 H917 0.950 . S
H914 C910 0.950 . S
C915 C913 1.390 . S
C915 C916 1.387 . S
C915 H918 0.950 . S
C916 C915 1.387 . S
C916 C919 1.387 . S
H917 C913 0.950 . S
H918 C915 0.950 . S
C919 C910 1.390 . S
C919 H912 0.950 . S
C919 C916 1.387 . S
C920 C921 1.387 . S
C920 H924 0.950 . S
C920 C929 1.390 . S
C921 C920 1.387 . S
C921 C923 1.387 . S
H922 C929 0.950 . S
C923 C921 1.387 . S
C923 C925 1.390 . S
C923 H927 0.950 . S
H924 C920 0.950 . S
C925 C923 1.390 . S
C925 C926 1.387 . S
C925 H928 0.950 . S
C926 C925 1.387 . S
C926 C929 1.387 . S
H927 C923 0.950 . S
H928 C925 0.950 . S
C929 C920 1.390 . S
C929 H922 0.950 . S
C929 C926 1.387 . S
C930 C931 1.387 . S
C930 H934 0.950 . S
C930 C939 1.390 . S
C931 C930 1.387 . S
C931 C933 1.387 . S
H932 C939 0.950 . S
C933 C931 1.387 . S
C933 C935 1.390 . S
C933 H937 0.950 . S
H934 C930 0.950 . S
C935 C933 1.390 . S
C935 C936 1.387 . S
C935 H938 0.950 . S
C936 C935 1.387 . S
C936 C939 1.387 . S
H937 C933 0.950 . S
H938 C935 0.950 . S
C939 C930 1.390 . S
C939 H932 0.950 . S
C939 C936 1.387 . S
C940 C941 1.387 . S
C940 H944 0.950 . S
C940 C949 1.390 . S
C941 C940 1.387 . S
C941 C943 1.387 . S
H942 C949 0.950 . S
C943 C941 1.387 . S
C943 C945 1.390 . S
C943 H947 0.950 . S
H944 C940 0.950 . S
C945 C943 1.390 . S
C945 C946 1.387 . S
C945 H948 0.950 . S
C946 C945 1.387 . S
C946 C949 1.387 . S
H947 C943 0.950 . S
H948 C945 0.950 . S
C949 C940 1.390 . S
C949 H942 0.950 . S
C949 C946 1.387 . S
C950 C951 1.387 . S
C950 H954 0.950 . S
C950 C959 1.390 . S
C951 C950 1.387 . S
C951 C953 1.387 . S
H952 C959 0.950 . S
C953 C951 1.387 . S
C953 C955 1.390 . S
C953 H957 0.950 . S
H954 C950 0.950 . S
C955 C953 1.390 . S
C955 C956 1.387 . S
C955 H958 0.950 . S
C956 C955 1.387 . S
C956 C959 1.387 . S
H957 C953 0.950 . S
H958 C955 0.950 . S
C959 C950 1.390 . S
C959 H952 0.950 . S
C959 C956 1.387 . S
C960 C961 1.387 . S
C960 H964 0.950 . S
C960 C969 1.390 . S
C961 C960 1.387 . S
C961 C963 1.387 . S
H962 C969 0.950 . S
C963 C961 1.387 . S
C963 C965 1.390 . S
C963 H967 0.950 . S
H964 C960 0.950 . S
C965 C963 1.390 . S
C965 C966 1.387 . S
C965 H968 0.950 . S
C966 C965 1.387 . S
C966 C969 1.387 . S
H967 C963 0.950 . S
H968 C965 0.950 . S
C969 C960 1.390 . S
C969 H962 0.950 . S
C969 C966 1.387 . S
C970 C971 1.387 . S
C970 H974 0.950 . S
C970 C979 1.390 . S
C971 C970 1.387 . S
C971 C973 1.387 . S
H972 C979 0.950 . S
C973 C971 1.387 . S
C973 C975 1.390 . S
C973 H977 0.950 . S
H974 C970 0.950 . S
C975 C973 1.390 . S
C975 C976 1.387 . S
C975 H978 0.950 . S
C976 C975 1.387 . S
C976 C979 1.387 . S
H977 C973 0.950 . S
H978 C975 0.950 . S
C979 C970 1.390 . S
C979 H972 0.950 . S
C979 C976 1.387 . S
C980 C981 1.387 . S
C980 H984 0.950 . S
C980 C989 1.390 . S
C981 C980 1.387 . S
C981 C983 1.387 . S
H982 C989 0.950 . S
C983 C981 1.387 . S
C983 C985 1.390 . S
C983 H987 0.950 . S
H984 C980 0.950 . S
C985 C983 1.390 . S
C985 C986 1.387 . S
C985 H988 0.950 . S
C986 C985 1.387 . S
C986 C989 1.387 . S
H987 C983 0.950 . S
H988 C985 0.950 . S
C989 C980 1.390 . S
C989 H982 0.950 . S
C989 C986 1.387 . S
C990 C991 1.387 . S
C990 H994 0.950 . S
C990 C999 1.390 . S
C991 C990 1.387 . S
C991 C993 1.387 . S
H992 C999 0.950 . S
C993 C991 1.387 . S
C993 C995 1.390 . S
C993 H997 0.950 . S
H994 C990 0.950 . S
C995 C993 1.390 . S
C995 C996 1.387 . S
C995 H998 0.950 . S
C996 C995 1.387 . S
C996 C999 1.387 . S
H997 C993 0.950 . S
H998 C995 0.950 . S
C999 C990 1.390 . S
C999 H992 0.950 . S
C999 C996 1.387 . S
C1000 C1001 1.387 . S
C1000 H1004 0.950 . S
C1000 C1009 1.390 . S
C1001 C1000 1.387 . S
C1001 C1003 1.387 . S
H1002 C1009 0.950 . S
C1003 C1001 1.387 . S
C1003 C1005 1.390 . S
C1003 H1007 0.950 1_554 S
H1004 C1000 0.950 . S
C1005 C1003 1.390 . S
C1005 C1006 1.387 . S
C1005 H1008 0.950 1_554 S
C1006 C1005 1.387 . S
C1006 C1009 1.387 . S
H1007 C1003 0.950 1_556 S
H1008 C1005 0.950 1_556 S
C1009 C1000 1.390 . S
C1009 H1002 0.950 . S
C1009 C1006 1.387 . S
C1010 C1011 1.387 . S
C1010 H1014 0.950 . S
C1010 C1019 1.390 . S
C1011 C1010 1.387 . S
C1011 C1013 1.387 . S
H1012 C1019 0.950 . S
C1013 C1011 1.387 . S
C1013 C1015 1.390 . S
C1013 H1017 0.950 . S
H1014 C1010 0.950 . S
C1015 C1013 1.390 . S
C1015 C1016 1.387 . S
C1015 H1018 0.950 . S
C1016 C1015 1.387 . S
C1016 C1019 1.387 . S
H1017 C1013 0.950 . S
H1018 C1015 0.950 . S
C1019 C1010 1.390 . S
C1019 H1012 0.950 . S
C1019 C1016 1.387 . S
C1020 C1021 1.387 . S
C1020 H1024 0.950 . S
C1020 C1029 1.390 . S
C1021 C1020 1.387 . S
C1021 C1023 1.387 . S
H1022 C1029 0.950 . S
C1023 C1021 1.387 . S
C1023 C1025 1.390 . S
C1023 H1027 0.950 . S
H1024 C1020 0.950 . S
C1025 C1023 1.390 . S
C1025 C1026 1.387 . S
C1025 H1028 0.950 . S
C1026 C1025 1.387 . S
C1026 C1029 1.387 . S
H1027 C1023 0.950 . S
H1028 C1025 0.950 . S
C1029 C1020 1.390 . S
C1029 H1022 0.950 . S
C1029 C1026 1.387 . S
C1030 C1031 1.387 . S
C1030 H1034 0.950 . S
C1030 C1039 1.390 . S
C1031 C1030 1.387 . S
C1031 C1033 1.387 . S
H1032 C1039 0.950 . S
C1033 C1031 1.387 . S
C1033 C1035 1.390 . S
C1033 H1037 0.950 . S
H1034 C1030 0.950 . S
C1035 C1033 1.390 . S
C1035 C1036 1.387 . S
C1035 H1038 0.950 . S
C1036 C1035 1.387 . S
C1036 C1039 1.387 . S
H1037 C1033 0.950 . S
H1038 C1035 0.950 . S
C1039 C1030 1.390 . S
C1039 H1032 0.950 . S
C1039 C1036 1.387 . S
C1040 C1041 1.387 . S
C1040 H1044 0.950 . S
C1040 C1049 1.390 . S
C1041 C1040 1.387 . S
C1041 C1043 1.387 . S
H1042 C1049 0.950 . S
C1043 C1041 1.387 . S
C1043 C1045 1.390 . S
C1043 H1047 0.950 . S
H1044 C1040 0.950 . S
C1045 C1043 1.390 . S
C1045 C1046 1.387 . S
C1045 H1048 0.950 . S
C1046 C1045 1.387 . S
C1046 C1049 1.387 . S
H1047 C1043 0.950 . S
H1048 C1045 0.950 . S
C1049 C1040 1.390 . S
C1049 H1042 0.950 . S
C1049 C1046 1.387 . S
C1050 C1051 1.387 . S
C1050 H1054 0.950 1_556 S
C1050 C1059 1.390 . S
C1051 C1050 1.387 . S
C1051 C1053 1.387 . S
H1052 C1059 0.950 1_554 S
C1053 C1051 1.387 . S
C1053 C1055 1.390 . S
C1053 H1057 0.950 . S
H1054 C1050 0.950 1_554 S
C1055 C1053 1.390 . S
C1055 C1056 1.387 . S
C1055 H1058 0.950 . S
C1056 C1055 1.387 . S
C1056 C1059 1.387 . S
H1057 C1053 0.950 . S
H1058 C1055 0.950 . S
C1059 C1050 1.390 . S
C1059 H1052 0.950 1_556 S
C1059 C1056 1.387 . S
C1060 C1061 1.387 . S
C1060 H1064 0.950 . S
C1060 C1069 1.390 . S
C1061 C1060 1.387 . S
C1061 C1063 1.387 . S
H1062 C1069 0.950 . S
C1063 C1061 1.387 . S
C1063 C1065 1.390 . S
C1063 H1067 0.950 . S
H1064 C1060 0.950 . S
C1065 C1063 1.390 . S
C1065 C1066 1.387 . S
C1065 H1068 0.950 . S
C1066 C1065 1.387 . S
C1066 C1069 1.387 . S
H1067 C1063 0.950 . S
H1068 C1065 0.950 . S
C1069 C1060 1.390 . S
C1069 H1062 0.950 . S
C1069 C1066 1.387 . S
C1070 C1071 1.387 . S
C1070 H1074 0.950 . S
C1070 C1079 1.390 . S
C1071 C1070 1.387 . S
C1071 C1073 1.387 . S
H1072 C1079 0.950 . S
C1073 C1071 1.387 . S
C1073 C1075 1.390 . S
C1073 H1077 0.950 . S
H1074 C1070 0.950 . S
C1075 C1073 1.390 . S
C1075 C1076 1.387 . S
C1075 H1078 0.950 . S
C1076 C1075 1.387 . S
C1076 C1079 1.387 . S
H1077 C1073 0.950 . S
H1078 C1075 0.950 . S
C1079 C1070 1.390 . S
C1079 H1072 0.950 . S
C1079 C1076 1.387 . S
C1080 C1081 1.387 . S
C1080 H1084 0.950 . S
C1080 C1089 1.390 . S
C1081 C1080 1.387 . S
C1081 C1083 1.387 . S
H1082 C1089 0.950 . S
C1083 C1081 1.387 . S
C1083 C1085 1.390 . S
C1083 H1087 0.950 . S
H1084 C1080 0.950 . S
C1085 C1083 1.390 . S
C1085 C1086 1.387 . S
C1085 H1088 0.950 . S
C1086 C1085 1.387 . S
C1086 C1089 1.387 . S
H1087 C1083 0.950 . S
H1088 C1085 0.950 . S
C1089 C1080 1.390 . S
C1089 H1082 0.950 . S
C1089 C1086 1.387 . S
C1090 C1091 1.387 . S
C1090 H1094 0.950 . S
C1090 C1099 1.390 . S
C1091 C1090 1.387 . S
C1091 C1093 1.387 . S
H1092 C1099 0.950 . S
C1093 C1091 1.387 . S
C1093 C1095 1.390 . S
C1093 H1097 0.950 1_556 S
H1094 C1090 0.950 . S
C1095 C1093 1.390 . S
C1095 C1096 1.387 . S
C1095 H1098 0.950 1_556 S
C1096 C1095 1.387 . S
C1096 C1099 1.387 . S
H1097 C1093 0.950 1_554 S
H1098 C1095 0.950 1_554 S
C1099 C1090 1.390 . S
C1099 H1092 0.950 . S
C1099 C1096 1.387 . S
C1100 C1101 1.387 . S
C1100 H1104 0.950 . S
C1100 C1109 1.390 . S
C1101 C1100 1.387 . S
C1101 C1103 1.387 . S
H1102 C1109 0.950 . S
C1103 C1101 1.387 . S
C1103 C1105 1.390 . S
C1103 H1107 0.950 . S
H1104 C1100 0.950 . S
C1105 C1103 1.390 . S
C1105 C1106 1.387 . S
C1105 H1108 0.950 . S
C1106 C1105 1.387 . S
C1106 C1109 1.387 . S
H1107 C1103 0.950 . S
H1108 C1105 0.950 . S
C1109 C1100 1.390 . S
C1109 H1102 0.950 . S
C1109 C1106 1.387 . S
C1110 C1111 1.387 . S
C1110 H1114 0.950 . S
C1110 C1119 1.390 . S
C1111 C1110 1.387 . S
C1111 C1113 1.387 . S
H1112 C1119 0.950 . S
C1113 C1111 1.387 . S
C1113 C1115 1.390 . S
C1113 H1117 0.950 1_554 S
H1114 C1110 0.950 . S
C1115 C1113 1.390 . S
C1115 C1116 1.387 . S
C1115 H1118 0.950 1_554 S
C1116 C1115 1.387 . S
C1116 C1119 1.387 . S
H1117 C1113 0.950 1_556 S
H1118 C1115 0.950 1_556 S
C1119 C1110 1.390 . S
C1119 H1112 0.950 . S
C1119 C1116 1.387 . S
C641 C19 1.692 . S
C646 C55 1.563 . S
C651 C99 2.096 . S
C656 C50 2.019 . S
C661 C130 2.414 . S
C666 C98 2.496 . S
C671 C18 1.944 . S
C676 C135 1.806 . S
C681 C9 1.941 . S
C686 C366 1.804 . S
C691 C290 1.692 . S
C696 C46 1.563 . S
C701 C90 2.096 . S
C706 C419 2.018 . S
C711 C139 2.412 . S
C716 C529 2.495 . S
C721 C330 2.097 . S
C726 C59 2.019 . S
C731 C499 2.412 . S
C736 C89 2.496 . S
C741 C569 1.941 . S
C746 C126 1.804 . S
C751 C10 1.692 . S
C756 C446 1.563 . S
C761 C15 0.710 . S
C766 C326 0.608 . S
C771 C498 1.854 . S
C776 C169 1.867 . S
C781 C215 0.618 . S
C786 C566 0.715 . S
C791 C449 1.869 . S
C796 C258 1.852 . S
C801 C95 0.607 . S
C806 C286 0.708 . S
C811 C369 1.854 . S
C816 C178 1.867 . S
C821 C249 1.852 . S
C826 C418 1.869 . S
C831 C210 2.096 . S
C836 C459 2.018 . S
C841 C379 2.413 . S
C846 C209 2.495 . S
C851 C455 1.561 . S
C856 C299 1.690 . S
C861 C219 2.097 . S
C866 C170 2.019 . S
C871 C370 2.414 . S
C876 C338 2.497 . S
C881 C539 2.096 . S
C886 C450 2.019 . S
C891 C250 2.412 . S
C896 C218 2.495 . S
C901 C375 1.804 . S
C906 C578 1.940 . S
C911 C535 0.619 . S
C916 C6 0.719 . S
C921 C86 0.616 . S
C926 C575 0.718 . S
C931 C489 1.854 . S
C936 C58 1.867 . S
C941 C295 0.719 . S
C946 C206 0.619 . S
C951 C138 1.852 . S
C956 C409 1.869 . S
C961 C490 2.414 . S
C966 C538 2.496 . S
C971 C298 1.940 . S
C976 C495 1.804 . S
C981 C246 1.806 . S
C986 C289 1.944 . S
C991 C179 2.019 . S
C996 C530 2.096 . S
C1001 C486 1.804 . S
C1006 C609 1.941 . S
C1011 C606 0.718 . S
C1016 C335 0.619 . S
C1021 C49 1.869 . S
C1026 C378 1.852 . S
C1031 C329 2.497 . S
C1036 C259 2.413 . S
C1041 C339 2.096 . S
C1046 C410 2.018 . S
C1051 C618 1.940 . S
C1056 C255 1.804 . S
C1061 C526 0.607 . S
C1066 C615 0.708 . S
C1071 C458 1.869 . S
C1076 C129 1.851 . S
C1081 C415 1.563 . S
C1086 C579 1.692 . S
C1091 C406 1.561 . S
C1096 C610 1.690 . S
C1101 C166 1.563 . S
C1106 C570 1.692 . S
C1111 C619 1.692 . S
C1116 C175 1.563 . S
