# Generated by pormake.
# Topology neb, (4)-cn, num edge types: 1
# Building blocks:
#     Node 0, Type 0, BuildingBlock: KUFVIS_clean_sbu_0, # of connection points: 4
#     Node 1, Type 0, BuildingBlock: KUFVIS_clean_sbu_0, # of connection points: 4
#     Node 2, Type 0, BuildingBlock: KUFVIS_clean_sbu_0, # of connection points: 4
#     Node 3, Type 0, BuildingBlock: KUFVIS_clean_sbu_0, # of connection points: 4
#     Node 4, Type 0, BuildingBlock: KUFVIS_clean_sbu_0, # of connection points: 4
#     Node 5, Type 0, BuildingBlock: KUFVIS_clean_sbu_0, # of connection points: 4
#     Node 6, Type 0, BuildingBlock: KUFVIS_clean_sbu_0, # of connection points: 4
#     Node 7, Type 0, BuildingBlock: KUFVIS_clean_sbu_0, # of connection points: 4
#     Node 8, Type 0, BuildingBlock: KUFVIS_clean_sbu_0, # of connection points: 4
#     Node 9, Type 0, BuildingBlock: KUFVIS_clean_sbu_0, # of connection points: 4
#     Node 10, Type 0, BuildingBlock: KUFVIS_clean_sbu_0, # of connection points: 4
#     Node 11, Type 0, BuildingBlock: KUFVIS_clean_sbu_0, # of connection points: 4
#     Node 12, Type 0, BuildingBlock: KUFVIS_clean_sbu_0, # of connection points: 4
#     Node 13, Type 0, BuildingBlock: KUFVIS_clean_sbu_0, # of connection points: 4
#     Node 14, Type 0, BuildingBlock: KUFVIS_clean_sbu_0, # of connection points: 4
#     Node 15, Type 0, BuildingBlock: KUFVIS_clean_sbu_0, # of connection points: 4
#     Edge 16, Type (0, 0), BuildingBlock: TEMPAE_clean_linker_10, # of connection points: 2
#     Edge 17, Type (0, 0), BuildingBlock: TEMPAE_clean_linker_10, # of connection points: 2
#     Edge 18, Type (0, 0), BuildingBlock: TEMPAE_clean_linker_10, # of connection points: 2
#     Edge 19, Type (0, 0), BuildingBlock: TEMPAE_clean_linker_10, # of connection points: 2
#     Edge 20, Type (0, 0), BuildingBlock: TEMPAE_clean_linker_10, # of connection points: 2
#     Edge 21, Type (0, 0), BuildingBlock: TEMPAE_clean_linker_10, # of connection points: 2
#     Edge 22, Type (0, 0), BuildingBlock: TEMPAE_clean_linker_10, # of connection points: 2
#     Edge 23, Type (0, 0), BuildingBlock: TEMPAE_clean_linker_10, # of connection points: 2
#     Edge 24, Type (0, 0), BuildingBlock: TEMPAE_clean_linker_10, # of connection points: 2
#     Edge 25, Type (0, 0), BuildingBlock: TEMPAE_clean_linker_10, # of connection points: 2
#     Edge 26, Type (0, 0), BuildingBlock: TEMPAE_clean_linker_10, # of connection points: 2
#     Edge 27, Type (0, 0), BuildingBlock: TEMPAE_clean_linker_10, # of connection points: 2
#     Edge 28, Type (0, 0), BuildingBlock: TEMPAE_clean_linker_10, # of connection points: 2
#     Edge 29, Type (0, 0), BuildingBlock: TEMPAE_clean_linker_10, # of connection points: 2
#     Edge 30, Type (0, 0), BuildingBlock: TEMPAE_clean_linker_10, # of connection points: 2
#     Edge 31, Type (0, 0), BuildingBlock: TEMPAE_clean_linker_10, # of connection points: 2
#     Edge 32, Type (0, 0), BuildingBlock: TEMPAE_clean_linker_10, # of connection points: 2
#     Edge 33, Type (0, 0), BuildingBlock: TEMPAE_clean_linker_10, # of connection points: 2
#     Edge 34, Type (0, 0), BuildingBlock: TEMPAE_clean_linker_10, # of connection points: 2
#     Edge 35, Type (0, 0), BuildingBlock: TEMPAE_clean_linker_10, # of connection points: 2
#     Edge 36, Type (0, 0), BuildingBlock: TEMPAE_clean_linker_10, # of connection points: 2
#     Edge 37, Type (0, 0), BuildingBlock: TEMPAE_clean_linker_10, # of connection points: 2
#     Edge 38, Type (0, 0), BuildingBlock: TEMPAE_clean_linker_10, # of connection points: 2
#     Edge 39, Type (0, 0), BuildingBlock: TEMPAE_clean_linker_10, # of connection points: 2
#     Edge 40, Type (0, 0), BuildingBlock: TEMPAE_clean_linker_10, # of connection points: 2
#     Edge 41, Type (0, 0), BuildingBlock: TEMPAE_clean_linker_10, # of connection points: 2
#     Edge 42, Type (0, 0), BuildingBlock: TEMPAE_clean_linker_10, # of connection points: 2
#     Edge 43, Type (0, 0), BuildingBlock: TEMPAE_clean_linker_10, # of connection points: 2
#     Edge 44, Type (0, 0), BuildingBlock: TEMPAE_clean_linker_10, # of connection points: 2
#     Edge 45, Type (0, 0), BuildingBlock: TEMPAE_clean_linker_10, # of connection points: 2
#     Edge 46, Type (0, 0), BuildingBlock: TEMPAE_clean_linker_10, # of connection points: 2
#     Edge 47, Type (0, 0), BuildingBlock: TEMPAE_clean_linker_10, # of connection points: 2
# Relax obj value: 0.012
# Max RMSD: 0.059
# Mean RMSD: 0.059
data_MOF--net-neb--node1-KUFVIS_clean_sbu_0--edge1-TEMPAE_clean_linker_10
_symmetry_space_group_name_H-M    P1
_symmetry_Int_Tables_number       1
_symmetry_cell_setting            triclinic
loop_
_symmetry_equiv_pos_as_xyz
'x, y, z'
_cell_length_a     42.174537
_cell_length_b     23.052463
_cell_length_c     76.870684
_cell_angle_alpha  93.726523
_cell_angle_beta   89.98376
_cell_angle_gamma 90.018053
loop_
_atom_site_label
_atom_site_type_symbol
_atom_site_fract_x
_atom_site_fract_y
_atom_site_fract_z
_atom_type_partial_charge
Mn0 Mn 0.12815 0.11549 0.44101 0.0
Mn1 Mn 0.19612 0.10478 0.4177 0.0
C2 C 0.13267 0.04846 0.41721 0.0
C3 C 0.0959 0.08719 0.46376 0.0
C4 C 0.14716 0.1993 0.41347 0.0
O5 O 0.1601 0.1583 0.4575 0.0
O6 O 0.20375 0.14332 0.44097 0.0
C7 C 0.23011 0.02291 0.43929 0.0
N8 N 0.21984 0.03825 0.42345 0.0
C9 C 0.24929 0.96072 0.40864 0.0
C10 C 0.26081 0.94471 0.42476 0.0
C11 C 0.25078 0.97543 0.44018 0.0
C12 C 0.22814 0.00739 0.40863 0.0
H13 H 0.22259 0.04677 0.45112 0.0
C14 C 0.19003 0.16216 0.45503 0.0
O15 O 0.0913 0.13593 0.45658 0.0
O16 O 0.12013 0.05642 0.45839 0.0
N17 N 0.19334 0.06768 0.39481 0.0
C18 C 0.17799 0.08576 0.38054 0.0
C19 C 0.18436 0.05827 0.36408 0.0
C20 C 0.20689 0.01338 0.36244 0.0
C21 C 0.22195 0.99485 0.37736 0.0
C22 C 0.21436 0.02339 0.39342 0.0
H23 H 0.16125 0.12118 0.3817 0.0
O24 O 0.10507 0.06559 0.42289 0.0
O25 O 0.15695 0.06994 0.42577 0.0
O26 O 0.1275 0.18361 0.4249 0.0
O27 O 0.17353 0.17362 0.41035 0.0
C28 C 0.24452 0.94972 0.37693 0.0
C29 C 0.25806 0.93248 0.39258 0.0
H30 H 0.27709 0.90861 0.42546 0.0
H31 H 0.25926 0.96298 0.45269 0.0
H32 H 0.17239 0.07237 0.35264 0.0
H33 H 0.21227 0.99318 0.34967 0.0
H34 H 0.25143 0.92781 0.36465 0.0
H35 H 0.27532 0.89769 0.39213 0.0
Mn36 Mn 0.12639 0.12506 0.81255 0.0
Mn37 Mn 0.19609 0.13224 0.83431 0.0
C38 C 0.13384 0.19314 0.83566 0.0
C39 C 0.09302 0.15318 0.79028 0.0
C40 C 0.14532 0.04381 0.841 0.0
O41 O 0.15607 0.07941 0.79563 0.0
O42 O 0.20053 0.08633 0.81185 0.0
C43 C 0.23107 0.20276 0.80975 0.0
N44 N 0.22108 0.19409 0.82623 0.0
C45 C 0.25206 0.27473 0.83814 0.0
C46 C 0.26275 0.28459 0.82131 0.0
C47 C 0.25199 0.24873 0.80703 0.0
C48 C 0.23058 0.22927 0.83997 0.0
H49 H 0.22329 0.17458 0.79881 0.0
C50 C 0.18538 0.0687 0.79814 0.0
O51 O 0.08811 0.10553 0.798 0.0
O52 O 0.11803 0.18303 0.7949 0.0
N53 N 0.19658 0.1751 0.8564 0.0
C54 C 0.18311 0.16099 0.87167 0.0
C55 C 0.19197 0.19154 0.8873 0.0
C56 C 0.21491 0.23561 0.88707 0.0
C57 C 0.2278 0.25044 0.87114 0.0
C58 C 0.2181 0.21844 0.85601 0.0
H59 H 0.16603 0.12623 0.87195 0.0
O60 O 0.10555 0.17729 0.83077 0.0
O61 O 0.15723 0.16971 0.82669 0.0
O62 O 0.12593 0.05815 0.82923 0.0
O63 O 0.17199 0.06878 0.84377 0.0
C64 C 0.25031 0.295 0.86971 0.0
C65 C 0.26212 0.30771 0.8532 0.0
H66 H 0.27925 0.31946 0.8192 0.0
H67 H 0.26013 0.25603 0.794 0.0
H68 H 0.18161 0.18041 0.89952 0.0
H69 H 0.22233 0.25803 0.8992 0.0
H70 H 0.25859 0.3198 0.88123 0.0
H71 H 0.27918 0.34246 0.85224 0.0
Mn72 Mn 0.90081 0.87376 0.56266 0.0
Mn73 Mn 0.83089 0.878 0.58413 0.0
C74 C 0.89314 0.93829 0.58659 0.0
C75 C 0.93455 0.90652 0.54116 0.0
C76 C 0.88141 0.78872 0.59007 0.0
O77 O 0.87124 0.83186 0.54493 0.0
O78 O 0.82704 0.83329 0.56139 0.0
C79 C 0.7961 0.94966 0.55982 0.0
N80 N 0.80586 0.94015 0.57628 0.0
C81 C 0.77472 0.02022 0.58841 0.0
C82 C 0.76425 0.0309 0.5716 0.0
C83 C 0.7752 0.99574 0.55723 0.0
C84 C 0.79611 0.97459 0.59013 0.0
H85 H 0.80405 0.92211 0.54878 0.0
C86 C 0.84225 0.81877 0.54742 0.0
O87 O 0.93894 0.85635 0.54756 0.0
O88 O 0.9099 0.93592 0.54656 0.0
N89 N 0.82985 0.91958 0.60644 0.0
C90 C 0.84337 0.90515 0.62166 0.0
C91 C 0.83459 0.93542 0.63734 0.0
C92 C 0.8117 0.9796 0.63722 0.0
C93 C 0.79874 0.99472 0.62135 0.0
C94 C 0.80839 0.96301 0.60615 0.0
H95 H 0.86054 0.87055 0.62183 0.0
O96 O 0.9215 0.92235 0.58181 0.0
O97 O 0.8699 0.9164 0.57718 0.0
O98 O 0.90052 0.80329 0.57815 0.0
O99 O 0.85509 0.81437 0.59331 0.0
C100 C 0.7763 0.03944 0.62002 0.0
C101 C 0.76457 0.05267 0.60355 0.0
H102 H 0.74781 0.06593 0.56959 0.0
H103 H 0.76725 0.0037 0.54421 0.0
H104 H 0.84502 0.92409 0.64953 0.0
H105 H 0.8044 0.00188 0.6494 0.0
H106 H 0.76806 0.06405 0.6316 0.0
H107 H 0.74757 0.08755 0.60267 0.0
Mn108 Mn 0.88848 0.87205 0.19191 0.0
Mn109 Mn 0.82106 0.86668 0.16823 0.0
C110 C 0.88519 0.81275 0.16635 0.0
C111 C 0.91984 0.83612 0.21397 0.0
C112 C 0.86804 0.96652 0.16815 0.0
O113 O 0.85543 0.90785 0.20912 0.0
O114 O 0.81159 0.89401 0.19257 0.0
C115 C 0.78778 0.77271 0.1854 0.0
N116 N 0.79892 0.79554 0.17069 0.0
C117 C 0.77302 0.72148 0.15242 0.0
C118 C 0.76069 0.69769 0.16734 0.0
C119 C 0.76852 0.72292 0.18392 0.0
C120 C 0.79276 0.77007 0.15474 0.0
H121 H 0.79359 0.79237 0.19812 0.0
C122 C 0.82535 0.9097 0.20693 0.0
O123 O 0.92406 0.88823 0.20888 0.0
O124 O 0.89659 0.80639 0.20692 0.0
N125 N 0.8263 0.84004 0.14434 0.0
C126 C 0.84235 0.86531 0.13144 0.0
C127 C 0.83906 0.84268 0.11412 0.0
C128 C 0.8186 0.79547 0.11022 0.0
C129 C 0.80226 0.77038 0.12374 0.0
C130 C 0.80722 0.7937 0.14077 0.0
H131 H 0.85733 0.90271 0.13433 0.0
O132 O 0.91257 0.82906 0.17262 0.0
O133 O 0.86069 0.83129 0.17527 0.0
O134 O 0.88874 0.94589 0.17818 0.0
O135 O 0.8418 0.94128 0.16433 0.0
C136 C 0.78086 0.72372 0.12099 0.0
C137 C 0.76632 0.69925 0.13534 0.0
H138 H 0.74547 0.65977 0.16622 0.0
H139 H 0.75942 0.70446 0.19551 0.0
H140 H 0.85177 0.86227 0.10377 0.0
H141 H 0.81567 0.7788 0.09682 0.0
H142 H 0.77566 0.70593 0.10791 0.0
H143 H 0.74985 0.66363 0.13314 0.0
Mn144 Mn 0.12704 0.61606 0.94073 0.0
Mn145 Mn 0.19622 0.61161 0.91849 0.0
C146 C 0.13365 0.5526 0.91641 0.0
C147 C 0.09366 0.58335 0.96243 0.0
C148 C 0.14605 0.70238 0.91361 0.0
O149 O 0.15749 0.65644 0.95833 0.0
O150 O 0.20102 0.65484 0.94135 0.0
C151 C 0.23152 0.53794 0.94203 0.0
N152 N 0.22125 0.54858 0.92574 0.0
C153 C 0.2522 0.4695 0.91284 0.0
C154 C 0.2632 0.45766 0.92945 0.0
C155 C 0.25257 0.49172 0.94413 0.0
C156 C 0.23062 0.5151 0.91161 0.0
H157 H 0.22388 0.56475 0.95329 0.0
C158 C 0.18648 0.66897 0.95557 0.0
O159 O 0.08955 0.63391 0.95624 0.0
O160 O 0.11787 0.55332 0.95667 0.0
N161 N 0.19639 0.57134 0.89598 0.0
C162 C 0.1825 0.58702 0.88099 0.0
C163 C 0.19082 0.55779 0.86506 0.0
C164 C 0.2137 0.51351 0.8647 0.0
C165 C 0.22714 0.49725 0.88034 0.0
C166 C 0.21786 0.52782 0.8958 0.0
H167 H 0.16543 0.62189 0.88118 0.0
O168 O 0.10551 0.56878 0.92154 0.0
O169 O 0.15726 0.57356 0.92569 0.0
O170 O 0.12728 0.68741 0.92562 0.0
O171 O 0.17207 0.6763 0.90991 0.0
C172 C 0.24978 0.4526 0.88117 0.0
C173 C 0.26206 0.43833 0.89742 0.0
H174 H 0.2798 0.42259 0.93109 0.0
H175 H 0.26093 0.48288 0.957 0.0
H176 H 0.18007 0.57008 0.85306 0.0
H177 H 0.22067 0.4921 0.85233 0.0
H178 H 0.25778 0.42888 0.86938 0.0
H179 H 0.27931 0.4037 0.89793 0.0
Mn180 Mn 0.11567 0.62366 0.31267 0.0
Mn181 Mn 0.18747 0.62983 0.33227 0.0
C182 C 0.12523 0.69037 0.33589 0.0
C183 C 0.08047 0.65356 0.29142 0.0
C184 C 0.13793 0.53981 0.33973 0.0
O185 O 0.14382 0.57969 0.29464 0.0
O186 O 0.19008 0.58624 0.30933 0.0
C187 C 0.22002 0.70321 0.30753 0.0
N188 N 0.21146 0.69283 0.32413 0.0
C189 C 0.24357 0.77203 0.33596 0.0
C190 C 0.25282 0.78364 0.319 0.0
C191 C 0.24075 0.74938 0.30472 0.0
C192 C 0.22223 0.72646 0.33791 0.0
H193 H 0.21128 0.67621 0.29657 0.0
C194 C 0.17344 0.56956 0.29607 0.0
O195 O 0.07611 0.60538 0.29897 0.0
O196 O 0.10574 0.68309 0.29571 0.0
N197 N 0.18964 0.67067 0.35465 0.0
C198 C 0.17697 0.65579 0.37004 0.0
C199 C 0.18686 0.68516 0.38565 0.0
C200 C 0.20994 0.72896 0.38527 0.0
C201 C 0.22187 0.74476 0.36922 0.0
C202 C 0.2111 0.71402 0.35411 0.0
H203 H 0.15958 0.62159 0.37038 0.0
O204 O 0.09653 0.6746 0.3318 0.0
O205 O 0.14773 0.66748 0.32612 0.0
O206 O 0.11708 0.5551 0.32883 0.0
O207 O 0.16471 0.56497 0.3418 0.0
C208 C 0.24438 0.78921 0.36764 0.0
C209 C 0.25495 0.80337 0.35102 0.0
H210 H 0.26916 0.81867 0.31681 0.0
H211 H 0.24776 0.75803 0.29159 0.0
H212 H 0.17713 0.67343 0.39797 0.0
H213 H 0.21811 0.75053 0.39738 0.0
H214 H 0.25358 0.81273 0.37915 0.0
H215 H 0.27206 0.838 0.34996 0.0
Mn216 Mn 0.89883 0.38042 0.06346 0.0
Mn217 Mn 0.82975 0.38893 0.08585 0.0
C218 C 0.89232 0.4486 0.08695 0.0
C219 C 0.93187 0.40886 0.04103 0.0
C220 C 0.8795 0.29665 0.09096 0.0
O221 O 0.86821 0.33568 0.04663 0.0
O222 O 0.82389 0.34808 0.06274 0.0
C223 C 0.79665 0.46768 0.06286 0.0
N224 N 0.8057 0.45384 0.07907 0.0
C225 C 0.77513 0.53231 0.09258 0.0
C226 C 0.76484 0.54674 0.07606 0.0
C227 C 0.77603 0.51477 0.06111 0.0
C228 C 0.79635 0.48602 0.09344 0.0
H229 H 0.80517 0.44305 0.05139 0.0
C230 C 0.83834 0.32966 0.04886 0.0
O231 O 0.93659 0.36072 0.04851 0.0
O232 O 0.90717 0.43909 0.04597 0.0
N233 N 0.83056 0.42809 0.10852 0.0
C234 C 0.84436 0.4109 0.12335 0.0
C235 C 0.83633 0.43909 0.13948 0.0
C236 C 0.81357 0.48361 0.14023 0.0
C237 C 0.79988 0.50095 0.12478 0.0
C238 C 0.80915 0.47179 0.10909 0.0
H239 H 0.86084 0.37522 0.12289 0.0
O240 O 0.92037 0.43213 0.08181 0.0
O241 O 0.86879 0.42531 0.07815 0.0
O242 O 0.89931 0.31268 0.07968 0.0
O243 O 0.85295 0.32168 0.09413 0.0
C244 C 0.77706 0.54544 0.12434 0.0
C245 C 0.76506 0.56174 0.10822 0.0
H246 H 0.74859 0.58254 0.07469 0.0
H247 H 0.76852 0.52603 0.0483 0.0
H248 H 0.8471 0.42563 0.15134 0.0
H249 H 0.8069 0.5044 0.15273 0.0
H250 H 0.76895 0.56777 0.13634 0.0
H251 H 0.74799 0.59672 0.10796 0.0
Mn252 Mn 0.89828 0.36332 0.69065 0.0
Mn253 Mn 0.82888 0.35887 0.66869 0.0
C254 C 0.89143 0.29958 0.66648 0.0
C255 C 0.93164 0.3305 0.71228 0.0
C256 C 0.87924 0.44916 0.66342 0.0
O257 O 0.86809 0.40394 0.70829 0.0
O258 O 0.82422 0.40247 0.69157 0.0
C259 C 0.79375 0.28553 0.69242 0.0
N260 N 0.80393 0.29589 0.67609 0.0
C261 C 0.77355 0.21563 0.66342 0.0
C262 C 0.76264 0.2041 0.68008 0.0
C263 C 0.77301 0.23893 0.69466 0.0
C264 C 0.79475 0.26178 0.66205 0.0
H265 H 0.80124 0.3128 0.70361 0.0
C266 C 0.83906 0.4165 0.70569 0.0
O267 O 0.93593 0.38096 0.70605 0.0
O268 O 0.90728 0.30074 0.70662 0.0
N269 N 0.82864 0.31818 0.64623 0.0
C270 C 0.84252 0.33349 0.63119 0.0
C271 C 0.83449 0.30337 0.61536 0.0
C272 C 0.81194 0.25852 0.61513 0.0
C273 C 0.79849 0.2427 0.63082 0.0
C274 C 0.80744 0.27421 0.64619 0.0
H275 H 0.8594 0.36866 0.63127 0.0
O276 O 0.91962 0.31576 0.6715 0.0
O277 O 0.86788 0.32076 0.67578 0.0
O278 O 0.89812 0.43431 0.6754 0.0
O279 O 0.85303 0.42337 0.65995 0.0
C280 C 0.77625 0.19745 0.6318 0.0
C281 C 0.76403 0.18351 0.6481 0.0
H282 H 0.74632 0.16865 0.68183 0.0
H283 H 0.76472 0.2303 0.70757 0.0
H284 H 0.84525 0.31533 0.60332 0.0
H285 H 0.80523 0.23633 0.60283 0.0
H286 H 0.76852 0.17298 0.62008 0.0
H287 H 0.74714 0.14831 0.64872 0.0
Mn288 Mn 0.62789 0.11677 0.94133 0.0
Mn289 Mn 0.69649 0.10912 0.91862 0.0
C290 C 0.63302 0.0531 0.91697 0.0
C291 C 0.59476 0.0848 0.96321 0.0
C292 C 0.64764 0.20307 0.91443 0.0
O293 O 0.65941 0.15513 0.95871 0.0
O294 O 0.70312 0.14982 0.94179 0.0
C295 C 0.73173 0.03079 0.9408 0.0
N296 N 0.72069 0.0437 0.92486 0.0
C297 C 0.75037 0.96528 0.9106 0.0
C298 C 0.76211 0.95103 0.92685 0.0
C299 C 0.75249 0.98358 0.94204 0.0
C300 C 0.72904 0.01161 0.91026 0.0
H301 H 0.72498 0.05666 0.95243 0.0
C302 C 0.6888 0.16462 0.95604 0.0
O303 O 0.59101 0.13573 0.95719 0.0
O304 O 0.61853 0.05409 0.95721 0.0
N305 N 0.69459 0.07096 0.89585 0.0
C306 C 0.67949 0.08808 0.88139 0.0
C307 C 0.68639 0.06006 0.86508 0.0
C308 C 0.70909 0.01546 0.86381 0.0
C309 C 0.72365 -0.00242 0.87896 0.0
C310 C 0.71556 0.02665 0.89485 0.0
H311 H 0.66242 0.12296 0.88229 0.0
O312 O 0.60524 0.07071 0.9223 0.0
O313 O 0.65712 0.07302 0.92605 0.0
O314 O 0.62845 0.18832 0.92627 0.0
O315 O 0.67348 0.1763 0.91088 0.0
C316 C 0.74624 0.95265 0.87888 0.0
C317 C 0.75935 0.93603 0.8947 0.0
H318 H 0.77855 0.91529 0.92782 0.0
H319 H 0.76146 0.9729 0.95462 0.0
H320 H 0.67466 0.07347 0.85348 0.0
H321 H 0.71492 0.99483 0.85115 0.0
H322 H 0.75351 0.93065 0.86669 0.0
H323 H 0.77658 0.90121 0.89449 0.0
Mn324 Mn 0.61499 0.12752 0.31342 0.0
Mn325 Mn 0.68425 0.12965 0.3356 0.0
C326 C 0.62315 0.19394 0.33691 0.0
C327 C 0.58185 0.15841 0.29146 0.0
C328 C 0.6322 0.04321 0.34128 0.0
O329 O 0.64437 0.08257 0.29625 0.0
O330 O 0.68823 0.08378 0.31301 0.0
C331 C 0.72089 0.19852 0.31127 0.0
N332 N 0.71044 0.19027 0.32769 0.0
C333 C 0.74199 0.27 0.33974 0.0
C334 C 0.75315 0.27938 0.32296 0.0
C335 C 0.74234 0.24376 0.30865 0.0
C336 C 0.71999 0.22529 0.34147 0.0
H337 H 0.71305 0.17063 0.30028 0.0
C338 C 0.67322 0.06894 0.29898 0.0
O339 O 0.57666 0.11014 0.29878 0.0
O340 O 0.60707 0.1874 0.29627 0.0
N341 N 0.68513 0.17235 0.35774 0.0
C342 C 0.67151 0.15844 0.37299 0.0
C343 C 0.68024 0.189 0.38863 0.0
C344 C 0.70341 0.23266 0.38848 0.0
C345 C 0.71681 0.24679 0.37261 0.0
C346 C 0.70703 0.21506 0.35743 0.0
H347 H 0.65458 0.12359 0.37325 0.0
O348 O 0.5947 0.17904 0.33203 0.0
O349 O 0.64627 0.16985 0.32788 0.0
O350 O 0.6137 0.05875 0.32931 0.0
O351 O 0.65878 0.06734 0.34493 0.0
C352 C 0.7399 0.29041 0.3713 0.0
C353 C 0.7521 0.30273 0.35484 0.0
H354 H 0.77005 0.31368 0.32093 0.0
H355 H 0.75083 0.2507 0.29566 0.0
H356 H 0.66966 0.17806 0.40082 0.0
H357 H 0.71067 0.25518 0.40063 0.0
H358 H 0.74824 0.31484 0.3829 0.0
H359 H 0.76945 0.33705 0.35396 0.0
Mn360 Mn 0.39712 0.88474 0.06296 0.0
Mn361 Mn 0.32731 0.89703 0.08436 0.0
C362 C 0.39133 0.9519 0.08662 0.0
C363 C 0.43088 0.91196 0.04074 0.0
C364 C 0.37416 0.79924 0.0889 0.0
O365 O 0.36596 0.84217 0.04588 0.0
O366 O 0.32063 0.86244 0.06056 0.0
C367 C 0.29656 0.9845 0.0634 0.0
N368 N 0.30559 0.96626 0.07914 0.0
C369 C 0.27661 0.04335 0.09443 0.0
C370 C 0.26644 0.06252 0.07841 0.0
C371 C 0.27689 0.03349 0.06281 0.0
C372 C 0.29701 0.99554 0.09416 0.0
H373 H 0.3043 0.96175 0.05143 0.0
C374 C 0.33568 0.84165 0.04715 0.0
O375 O 0.43479 0.86336 0.04811 0.0
O376 O 0.40661 0.94336 0.04567 0.0
N377 N 0.32952 0.93059 0.1077 0.0
C378 C 0.34344 0.90911 0.12192 0.0
C379 C 0.33687 0.93509 0.13856 0.0
C380 C 0.31531 0.98156 0.14042 0.0
C381 C 0.30131 0.00286 0.12557 0.0
C382 C 0.30949 0.97635 0.10932 0.0
H383 H 0.35904 0.87196 0.12059 0.0
O384 O 0.41924 0.93449 0.08151 0.0
O385 O 0.36764 0.93056 0.07753 0.0
O386 O 0.39605 0.81713 0.07911 0.0
O387 O 0.34745 0.82465 0.09103 0.0
C388 C 0.27916 0.04872 0.12623 0.0
C389 C 0.26703 0.06925 0.11066 0.0
H390 H 0.25082 0.09968 0.07793 0.0
H391 H 0.26942 0.04831 0.05038 0.0
H392 H 0.3478 0.91846 0.14996 0.0
H393 H 0.30975 0.00064 0.15331 0.0
H394 H 0.27166 0.06899 0.13866 0.0
H395 H 0.25016 0.10462 0.11126 0.0
Mn396 Mn 0.39787 0.86053 0.69075 0.0
Mn397 Mn 0.32881 0.8525 0.66852 0.0
C398 C 0.39248 0.79648 0.66634 0.0
C399 C 0.43084 0.82998 0.71289 0.0
C400 C 0.37621 0.95091 0.66611 0.0
O401 O 0.3661 0.9012 0.70788 0.0
O402 O 0.32094 0.88187 0.69281 0.0
C403 C 0.29648 0.76017 0.68692 0.0
N404 N 0.30665 0.78193 0.67186 0.0
C405 C 0.2792 0.70735 0.65452 0.0
C406 C 0.26783 0.68472 0.66983 0.0
C407 C 0.27693 0.71072 0.68612 0.0
C408 C 0.29927 0.75566 0.65617 0.0
H409 H 0.30333 0.78038 0.69941 0.0
C410 C 0.3358 0.90111 0.7065 0.0
O411 O 0.43508 0.8796 0.70616 0.0
O412 O 0.40659 0.7994 0.70742 0.0
N413 N 0.33262 0.82389 0.64471 0.0
C414 C 0.34798 0.8479 0.63134 0.0
C415 C 0.34332 0.82448 0.6142 0.0
C416 C 0.32224 0.77779 0.61097 0.0
C417 C 0.30668 0.75392 0.62496 0.0
C418 C 0.31297 0.77801 0.64177 0.0
H419 H 0.3634 0.88497 0.63371 0.0
O420 O 0.42035 0.81265 0.67188 0.0
O421 O 0.36866 0.81731 0.67539 0.0
O422 O 0.3979 0.93038 0.67549 0.0
O423 O 0.34926 0.92665 0.66363 0.0
C424 C 0.28485 0.7077 0.62291 0.0
C425 C 0.27128 0.6842 0.63768 0.0
H426 H 0.2524 0.64706 0.66924 0.0
H427 H 0.26859 0.69311 0.698 0.0
H428 H 0.35545 0.8431 0.60348 0.0
H429 H 0.31826 0.76053 0.59771 0.0
H430 H 0.27868 0.68932 0.61002 0.0
H431 H 0.25467 0.64854 0.63596 0.0
Mn432 Mn 0.62739 0.61818 0.44099 0.0
Mn433 Mn 0.69441 0.61386 0.41689 0.0
C434 C 0.63057 0.55893 0.41544 0.0
C435 C 0.59621 0.58281 0.46316 0.0
C436 C 0.64706 0.71308 0.41731 0.0
O437 O 0.66071 0.65429 0.45796 0.0
O438 O 0.7044 0.64033 0.44123 0.0
C439 C 0.72877 0.5195 0.43329 0.0
N440 N 0.71688 0.54273 0.41882 0.0
C441 C 0.74208 0.46925 0.39998 0.0
C442 C 0.75506 0.44496 0.41465 0.0
C443 C 0.748 0.46974 0.4314 0.0
C444 C 0.72245 0.51785 0.40272 0.0
H445 H 0.7236 0.53885 0.44613 0.0
C446 C 0.69077 0.65607 0.45565 0.0
O447 O 0.59208 0.63482 0.45802 0.0
O448 O 0.61937 0.55272 0.45611 0.0
N449 N 0.68844 0.58817 0.39297 0.0
C450 C 0.67184 0.61389 0.38036 0.0
C451 C 0.67449 0.59196 0.36295 0.0
C452 C 0.69482 0.54493 0.35864 0.0
C453 C 0.7117 0.51931 0.37186 0.0
C454 C 0.70742 0.542 0.38901 0.0
H455 H 0.6569 0.6511 0.38355 0.0
O456 O 0.60318 0.57483 0.42181 0.0
O457 O 0.65511 0.57784 0.42424 0.0
O458 O 0.62659 0.69179 0.42732 0.0
O459 O 0.67343 0.68849 0.41341 0.0
C460 C 0.73293 0.47264 0.36869 0.0
C461 C 0.74798 0.44747 0.38275 0.0
H462 H 0.77022 0.40703 0.41321 0.0
H463 H 0.75766 0.45094 0.44279 0.0
H464 H 0.66135 0.61193 0.35283 0.0
H465 H 0.69723 0.52874 0.34516 0.0
H466 H 0.73761 0.45536 0.3555 0.0
H467 H 0.7642 0.41164 0.38017 0.0
Mn468 Mn 0.62696 0.62551 0.81283 0.0
Mn469 Mn 0.69543 0.63678 0.83563 0.0
C470 C 0.63153 0.69093 0.83701 0.0
C471 C 0.59411 0.65577 0.79057 0.0
C472 C 0.64758 0.54012 0.83953 0.0
O473 O 0.659 0.58547 0.79584 0.0
O474 O 0.70306 0.60051 0.81205 0.0
C475 C 0.72886 0.72156 0.81475 0.0
N476 N 0.71858 0.70459 0.83042 0.0
C477 C 0.74893 0.77945 0.84594 0.0
C478 C 0.76035 0.79727 0.83 0.0
C479 C 0.74985 0.76878 0.81432 0.0
C480 C 0.72727 0.73348 0.8455 0.0
H481 H 0.72118 0.69904 0.80274 0.0
C482 C 0.68902 0.58224 0.79802 0.0
O483 O 0.59035 0.60528 0.79687 0.0
O484 O 0.61782 0.68688 0.79647 0.0
N485 N 0.69254 0.67169 0.85879 0.0
C486 C 0.67709 0.65233 0.87286 0.0
C487 C 0.68367 0.6779 0.88954 0.0
C488 C 0.7066 0.72203 0.89159 0.0
C489 C 0.72178 0.74184 0.87686 0.0
C490 C 0.71369 0.71568 0.86056 0.0
H491 H 0.66007 0.61742 0.87136 0.0
O492 O 0.60389 0.67306 0.83155 0.0
O493 O 0.65568 0.67067 0.82812 0.0
O494 O 0.62739 0.55554 0.82833 0.0
O495 O 0.67373 0.56665 0.8425 0.0
C496 C 0.74499 0.78589 0.87771 0.0
C497 C 0.75847 0.80484 0.86226 0.0
H498 H 0.77699 0.83297 0.82964 0.0
H499 H 0.75832 0.78256 0.80195 0.0
H500 H 0.6716 0.66281 0.90082 0.0
H501 H 0.71217 0.74073 0.90452 0.0
H502 H 0.75241 0.80568 0.8902 0.0
H503 H 0.77634 0.83859 0.86306 0.0
Mn504 Mn 0.40206 0.36973 0.56255 0.0
Mn505 Mn 0.33319 0.37148 0.58518 0.0
C506 C 0.39504 0.4336 0.58677 0.0
C507 C 0.43511 0.40204 0.54071 0.0
C508 C 0.38419 0.28163 0.58923 0.0
O509 O 0.37171 0.32819 0.54516 0.0
O510 O 0.32787 0.32992 0.56201 0.0
C511 C 0.29677 0.44662 0.56253 0.0
N512 N 0.30769 0.43494 0.57861 0.0
C513 C 0.27792 0.51441 0.59225 0.0
C514 C 0.26628 0.5273 0.57586 0.0
C515 C 0.27596 0.49353 0.56092 0.0
C516 C 0.29919 0.46806 0.59299 0.0
H517 H 0.30375 0.42018 0.55106 0.0
C518 C 0.34257 0.31628 0.54779 0.0
O519 O 0.43987 0.35264 0.54747 0.0
O520 O 0.41036 0.43153 0.54603 0.0
N521 N 0.33382 0.41039 0.60789 0.0
C522 C 0.34812 0.39354 0.62263 0.0
C523 C 0.34091 0.42262 0.63875 0.0
C524 C 0.31854 0.46778 0.63959 0.0
C525 C 0.30432 0.48468 0.62423 0.0
C526 C 0.31266 0.45447 0.60854 0.0
H527 H 0.36447 0.3576 0.62212 0.0
O528 O 0.42325 0.41836 0.58154 0.0
O529 O 0.37153 0.41123 0.57768 0.0
O530 O 0.40299 0.2989 0.57763 0.0
O531 O 0.35781 0.3059 0.5932 0.0
C532 C 0.28186 0.52977 0.62391 0.0
C533 C 0.26904 0.54529 0.60791 0.0
H534 H 0.2499 0.56297 0.57459 0.0
H535 H 0.2671 0.50321 0.54821 0.0
H536 H 0.35208 0.40946 0.65053 0.0
H537 H 0.3125 0.48924 0.6521 0.0
H538 H 0.27452 0.55295 0.63593 0.0
H539 H 0.25221 0.58073 0.60779 0.0
Mn540 Mn 0.39153 0.37674 0.19144 0.0
Mn541 Mn 0.32615 0.37308 0.16601 0.0
C542 C 0.389 0.31584 0.16612 0.0
C543 C 0.42187 0.34138 0.21392 0.0
C544 C 0.37579 0.46759 0.16536 0.0
O545 O 0.35814 0.414 0.20806 0.0
O546 O 0.31702 0.40974 0.18939 0.0
C547 C 0.28947 0.29046 0.18613 0.0
N548 N 0.30119 0.30675 0.17067 0.0
C549 C 0.27284 0.23011 0.15474 0.0
C550 C 0.2599 0.21314 0.17043 0.0
C551 C 0.26863 0.24296 0.18623 0.0
C552 C 0.29414 0.27669 0.15552 0.0
H553 H 0.29598 0.31352 0.19827 0.0
C554 C 0.329 0.42265 0.2044 0.0
O555 O 0.42648 0.39318 0.20871 0.0
O556 O 0.39866 0.31167 0.2068 0.0
N557 N 0.33021 0.33782 0.14292 0.0
C558 C 0.34626 0.35739 0.12909 0.0
C559 C 0.34116 0.33093 0.11236 0.0
C560 C 0.31892 0.28578 0.10996 0.0
C561 C 0.3027 0.26629 0.1244 0.0
C562 C 0.30925 0.29356 0.14078 0.0
H563 H 0.36239 0.39346 0.13078 0.0
O564 O 0.41615 0.3323 0.17265 0.0
O565 O 0.36413 0.33553 0.17449 0.0
O566 O 0.39317 0.4503 0.17758 0.0
O567 O 0.35058 0.44173 0.15993 0.0
C568 C 0.27993 0.2215 0.12316 0.0
C569 C 0.26525 0.20302 0.13834 0.0
H570 H 0.24347 0.17704 0.17051 0.0
H571 H 0.25904 0.22979 0.19842 0.0
H572 H 0.35381 0.34618 0.10129 0.0
H573 H 0.31452 0.26632 0.09698 0.0
H574 H 0.2738 0.20068 0.11058 0.0
H575 H 0.24798 0.16826 0.13731 0.0
C576 C 0.30218 0.24457 0.53692 0.0
C577 C 0.32312 0.28965 0.53352 0.0
C578 C 0.27974 0.2244 0.5245 0.0
C579 C 0.27748 0.25137 0.50852 0.0
C580 C 0.29863 0.29703 0.50503 0.0
C581 C 0.32155 0.31512 0.51751 0.0
C582 C 0.25847 0.17423 0.52848 0.0
C583 C 0.29657 0.32758 0.48828 0.0
C584 C 0.24287 0.16575 0.46938 0.0
C585 C 0.21132 0.18541 0.4692 0.0
C586 C 0.26428 0.18624 0.48222 0.0
C587 C 0.25441 0.22915 0.49501 0.0
C588 C 0.2227 0.24985 0.49492 0.0
C589 C 0.2013 0.227 0.48213 0.0
C590 C 0.29751 0.16156 0.48211 0.0
C591 C 0.21159 0.29663 0.50816 0.0
H592 H 0.30323 0.22546 0.54943 0.0
H593 H 0.33721 0.35107 0.51511 0.0
H594 H 0.23328 0.18797 0.52826 0.0
H595 H 0.26137 0.13818 0.51831 0.0
H596 H 0.26365 0.15744 0.5414 0.0
H597 H 0.31374 0.36404 0.48791 0.0
H598 H 0.30124 0.29634 0.47698 0.0
H599 H 0.27227 0.34488 0.48667 0.0
H600 H 0.25099 0.13358 0.45948 0.0
H601 H 0.17707 0.24266 0.482 0.0
H602 H 0.30278 0.14373 0.49486 0.0
H603 H 0.31502 0.19645 0.48019 0.0
H604 H 0.30097 0.12649 0.47168 0.0
H605 H 0.21388 0.28145 0.5215 0.0
H606 H 0.18653 0.30923 0.50604 0.0
H607 H 0.22679 0.33575 0.50753 0.0
C608 C 0.973 0.89922 0.51616 0.0
C609 C 0.95818 0.93239 0.52973 0.0
C610 C 0.99529 0.92462 0.50529 0.0
C611 C 1.00397 0.9838 0.50863 0.0
C612 C 0.98957 0.01686 0.52266 0.0
C613 C 0.96638 0.9911 0.53278 0.0
C614 C 1.00913 0.88844 0.49007 0.0
C615 C 0.99897 0.07927 0.52716 0.0
C616 C 0.08275 0.03221 0.48986 0.0
C617 C 0.07268 0.06426 0.47601 0.0
C618 C 0.06067 0.00695 0.50084 0.0
C619 C 0.02778 0.01154 0.49737 0.0
C620 C 0.01758 0.04338 0.48322 0.0
C621 C 0.04013 0.07037 0.47296 0.0
C622 C 0.07255 0.97558 0.5162 0.0
C623 C 0.98288 0.04766 0.47865 0.0
H624 H 0.96657 0.85386 0.51378 0.0
H625 H 0.95522 0.01658 0.54344 0.0
H626 H 1.00474 0.90998 0.4778 0.0
H627 H 0.03517 0.88482 0.4916 0.0
H628 H 0.99889 0.84396 0.48879 0.0
H629 H 0.98692 0.09783 0.53911 0.0
H630 H 0.02499 0.08227 0.52917 0.0
H631 H 0.993 0.10639 0.51623 0.0
H632 H 0.10794 0.02739 0.49219 0.0
H633 H 0.03234 0.09426 0.46204 0.0
H634 H 0.06603 0.92895 0.5146 0.0
H635 H 0.06114 0.9938 0.52837 0.0
H636 H 0.09869 0.97894 0.51773 0.0
H637 H 0.97264 0.00343 0.47644 0.0
H638 H 0.97896 0.07176 0.46678 0.0
H639 H 0.96967 0.06995 0.48961 0.0
C640 C 0.28627 0.89559 0.72375 0.0
C641 C 0.31565 0.92258 0.72131 0.0
C642 C 0.26481 0.91729 0.73642 0.0
C643 C 0.27243 0.9684 0.7467 0.0
C644 C 0.30223 0.99568 0.74452 0.0
C645 C 0.32376 0.97194 0.73196 0.0
C646 C 0.23377 0.88581 0.73864 0.0
C647 C 0.31094 0.05079 0.75512 0.0
C648 C 0.20261 0.05273 0.7671 0.0
C649 C 0.20439 0.03759 0.7844 0.0
C650 C 0.22493 0.03119 0.7547 0.0
C651 C 0.24904 0.99275 0.75972 0.0
C652 C 0.25007 0.97568 0.77705 0.0
C653 C 0.22797 -0.00116 0.78922 0.0
C654 C 0.2233 0.05082 0.73636 0.0
C655 C 0.27472 0.93344 0.78281 0.0
H656 H 0.27981 0.85741 0.71559 0.0
H657 H 0.34626 0.99327 0.72997 0.0
H658 H 0.23079 0.87508 0.7524 0.0
H659 H 0.2137 0.91432 0.73544 0.0
H660 H 0.2322 0.84496 0.73018 0.0
H661 H 0.335 0.06658 0.75191 0.0
H662 H 0.29346 0.08534 0.75272 0.0
H663 H 0.31003 0.0435 0.76923 0.0
H664 H 0.18479 0.08363 0.76348 0.0
H665 H 0.22941 0.98737 0.80265 0.0
H666 H 0.22022 0.01273 0.72694 0.0
H667 H 0.24589 0.07223 0.73307 0.0
H668 H 0.20348 0.08166 0.73463 0.0
H669 H 0.27342 0.89224 0.77453 0.0
H670 H 0.27167 0.92336 0.79665 0.0
H671 H 0.2988 0.95167 0.78117 0.0
C672 C 0.07959 0.20642 0.7639 0.0
C673 C 0.06963 0.17576 0.77808 0.0
C674 C 0.05742 0.23111 0.75287 0.0
C675 C 0.02458 0.2273 0.75658 0.0
C676 C 0.0145 0.19686 0.77104 0.0
C677 C 0.03712 0.17045 0.78139 0.0
C678 C 0.06915 0.261 0.73719 0.0
C679 C 0.97986 0.19344 0.77585 0.0
C680 C 0.97013 0.33881 0.73723 0.0
C681 C 0.95504 0.30494 0.7239 0.0
C682 C 0.99237 0.3139 0.74821 0.0
C683 C 1.00071 0.25443 0.74524 0.0
C684 C 0.986 0.22059 0.73148 0.0
C685 C 0.96288 0.24595 0.72124 0.0
C686 C 1.00659 0.35097 0.76313 0.0
C687 C 0.99502 0.15779 0.72738 0.0
H688 H 0.10475 0.21056 0.76135 0.0
H689 H 0.02942 0.14758 0.79253 0.0
H690 H 0.05749 0.24194 0.7252 0.0
H691 H 0.06281 0.30776 0.73847 0.0
H692 H 0.09526 0.25723 0.73555 0.0
H693 H 0.97605 0.17034 0.78792 0.0
H694 H 0.96985 0.23791 0.77781 0.0
H695 H 0.96638 0.17054 0.7651 0.0
H696 H 0.96399 0.3844 0.73931 0.0
H697 H 0.95153 0.21991 0.71076 0.0
H698 H 0.03262 0.35417 0.76143 0.0
H699 H 1.00235 0.33043 0.77559 0.0
H700 H 0.99653 0.39559 0.76418 0.0
H701 H 0.02099 0.15424 0.72519 0.0
H702 H 0.98262 0.13842 0.71565 0.0
H703 H 0.98922 0.13173 0.73858 0.0
C704 C 0.8237 0.80815 0.51655 0.0
C705 C 0.8237 0.78836 0.53338 0.0
C706 C 0.80154 0.78662 0.50407 0.0
C707 C 0.77952 0.7434 0.50848 0.0
C708 C 0.78045 0.72162 0.52526 0.0
C709 C 0.80223 0.74498 0.53757 0.0
C710 C 0.80095 0.81151 0.48639 0.0
C711 C 0.75813 0.67428 0.5303 0.0
C712 C 0.70321 0.72148 0.48224 0.0
C713 C 0.71198 0.67629 0.47014 0.0
C714 C 0.72504 0.74422 0.49476 0.0
C715 C 0.75592 0.71999 0.49544 0.0
C716 C 0.76437 0.67298 0.48364 0.0
C717 C 0.74251 0.65236 0.47102 0.0
C718 C 0.7154 0.79508 0.50697 0.0
C719 C 0.79664 0.64469 0.48424 0.0
H720 H 0.83987 0.84256 0.51346 0.0
H721 H 0.80218 0.72998 0.55066 0.0
H722 H 0.80452 0.77643 0.47601 0.0
H723 H 0.7774 0.83118 0.48416 0.0
H724 H 0.81949 0.84518 0.48506 0.0
H725 H 0.76297 0.66026 0.54359 0.0
H726 H 0.73328 0.68983 0.52983 0.0
H727 H 0.76015 0.63592 0.52087 0.0
H728 H 0.67978 0.74047 0.48147 0.0
H729 H 0.74947 0.61734 0.46174 0.0
H730 H 0.73155 0.83231 0.50529 0.0
H731 H 0.71758 0.78347 0.52069 0.0
H732 H 0.69065 0.80923 0.50469 0.0
H733 H 0.81533 0.67664 0.48145 0.0
H734 H 0.79888 0.60663 0.47469 0.0
H735 H 0.80125 0.63014 0.49749 0.0
C736 C 0.69204 0.05846 0.26818 0.0
C737 C 0.69203 0.03866 0.28501 0.0
C738 C 0.71444 0.03754 0.25575 0.0
C739 C 0.73671 0.99482 0.26018 0.0
C740 C 0.73581 0.973 0.27696 0.0
C741 C 0.71379 0.99585 0.28925 0.0
C742 C 0.71498 0.06251 0.23807 0.0
C743 C 0.75837 0.92612 0.28202 0.0
C744 C 0.77384 0.90495 0.22251 0.0
C745 C 0.80424 0.9294 0.22154 0.0
C746 C 0.75205 0.92485 0.23527 0.0
C747 C 0.7604 0.97176 0.24712 0.0
C748 C 0.79116 -0.00346 0.24637 0.0
C749 C 0.81296 0.97444 0.23371 0.0
C750 C 0.71994 0.89595 0.23593 0.0
C751 C 0.80068 0.04738 0.25861 0.0
H752 H 0.67567 0.09251 0.26504 0.0
H753 H 0.71387 0.98087 0.30233 0.0
H754 H 0.73848 0.08237 0.23584 0.0
H755 H 0.71146 0.02745 0.22768 0.0
H756 H 0.69637 0.09605 0.23676 0.0
H757 H 0.75359 0.91205 0.29532 0.0
H758 H 0.75656 0.8877 0.2726 0.0
H759 H 0.78314 0.94213 0.28156 0.0
H760 H 0.76688 0.87009 0.21317 0.0
H761 H 0.83629 0.99382 0.2329 0.0
H762 H 0.70108 0.9275 0.2331 0.0
H763 H 0.71543 0.8815 0.24919 0.0
H764 H 0.71788 0.85774 0.22641 0.0
H765 H 0.78443 0.08447 0.25696 0.0
H766 H 0.82539 0.06179 0.25634 0.0
H767 H 0.79852 0.03565 0.27233 0.0
C768 C 0.95707 0.84191 0.23954 0.0
C769 C 0.94231 0.80913 0.22586 0.0
C770 C 0.97886 0.81597 0.25057 0.0
C771 C 0.98706 0.75653 0.24733 0.0
C772 C 0.9725 0.72366 0.23332 0.0
C773 C 0.94986 0.75004 0.223 0.0
C774 C 0.99295 0.85206 0.26573 0.0
C775 C 0.98138 0.66093 0.22895 0.0
C776 C 0.06628 0.70801 0.26543 0.0
C777 C 0.05666 0.67653 0.27951 0.0
C778 C 0.04389 0.73308 0.25462 0.0
C779 C 0.01111 0.72877 0.25844 0.0
C780 C 1.00134 0.69742 0.27278 0.0
C781 C 0.02422 0.67069 0.28293 0.0
C782 C 0.05533 0.76402 0.23908 0.0
C783 C 0.96679 0.69338 0.2777 0.0
H784 H 0.95119 0.88755 0.24179 0.0
H785 H 0.9388 0.72478 0.21226 0.0
H786 H 0.98899 0.83032 0.27801 0.0
H787 H 0.01894 0.856 0.26398 0.0
H788 H 0.98261 0.89643 0.26714 0.0
H789 H 0.96862 0.64197 0.21728 0.0
H790 H 1.00727 0.65747 0.22651 0.0
H791 H 0.97595 0.63444 0.24011 0.0
H792 H 0.09138 0.71253 0.26278 0.0
H793 H 0.01677 0.64715 0.29398 0.0
H794 H 0.04891 0.8107 0.24064 0.0
H795 H 0.04353 0.74559 0.22705 0.0
H796 H 0.08141 0.76051 0.2373 0.0
H797 H 0.95674 0.7377 0.28004 0.0
H798 H 0.96318 0.66918 0.28957 0.0
H799 H 0.95318 0.67136 0.26683 0.0
C800 C 0.28537 0.8418 0.03043 0.0
C801 C 0.31567 0.81793 0.03254 0.0
C802 C 0.26425 0.81838 0.01786 0.0
C803 C 0.27323 0.76878 0.00727 0.0
C804 C 0.3039 0.74455 0.00911 0.0
C805 C 0.32501 0.76992 0.02164 0.0
C806 C 0.23217 0.84661 0.01602 0.0
C807 C 0.31408 0.69115 0.99814 0.0
C808 C 0.20504 0.68093 0.98648 0.0
C809 C 0.20579 0.69869 0.96942 0.0
C810 C 0.22738 0.70236 0.99887 0.0
C811 C 0.25042 0.74332 0.99412 0.0
C812 C 0.25052 0.76264 0.97703 0.0
C813 C 0.22843 0.73959 0.96485 0.0
C814 C 0.22678 0.68037 0.01694 0.0
C815 C 0.27398 0.80757 0.97159 0.0
H816 H 0.27792 0.87898 0.03877 0.0
H817 H 0.34824 0.751 0.02334 0.0
H818 H 0.22865 0.85856 0.00241 0.0
H819 H 0.21313 0.81551 0.01895 0.0
H820 H 0.22936 0.88635 0.02487 0.0
H821 H 0.33859 0.67746 1.00121 0.0
H822 H 0.29763 0.6547 1.00029 0.0
H823 H 0.31282 0.69951 0.98411 0.0
H824 H 0.18794 0.64842 0.98988 0.0
H825 H 0.22906 0.75314 0.9516 0.0
H826 H 0.22259 0.71701 0.02675 0.0
H827 H 0.25011 0.66115 0.01995 0.0
H828 H 0.20806 0.6471 0.01839 0.0
H829 H 0.27148 0.84808 0.98009 0.0
H830 H 0.27067 0.81828 0.95782 0.0
H831 H 0.29854 0.79157 0.97318 0.0
C832 C 0.06181 0.49945 0.97143 0.0
C833 C 0.07024 0.55816 0.97415 0.0
C834 C 0.03858 0.47462 0.98175 0.0
C835 C 0.02436 0.50866 0.99564 0.0
C836 C 0.03332 0.56782 0.99866 0.0
C837 C 0.05564 0.59224 0.9876 0.0
C838 C 0.02889 0.41218 0.97759 0.0
C839 C 0.01968 0.60506 0.01371 0.0
C840 C 0.94532 0.46277 0.01474 0.0
C841 C 0.95524 0.43141 0.02877 0.0
C842 C 0.96753 0.48699 0.0036 0.0
C843 C 1.00041 0.48204 0.00708 0.0
C844 C 1.01044 0.45099 0.02142 0.0
C845 C 0.98776 0.42504 0.03186 0.0
C846 C 0.9558 0.51756 0.98806 0.0
C847 C 0.04513 0.44638 0.02601 0.0
H848 H 0.07278 0.47325 0.96085 0.0
H849 H 0.06222 0.63761 0.98972 0.0
H850 H 0.03465 0.38569 0.9887 0.0
H851 H 1.00287 0.4095 0.97556 0.0
H852 H 0.04091 0.39267 0.96575 0.0
H853 H 0.0302 0.64934 0.01479 0.0
H854 H 0.99366 0.60916 0.01216 0.0
H855 H 0.0239 0.58413 0.02611 0.0
H856 H 0.92016 0.46774 0.01236 0.0
H857 H 0.99545 0.40163 0.04289 0.0
H858 H 0.96705 0.49834 0.97597 0.0
H859 H 0.96262 0.56409 0.98937 0.0
H860 H 0.92963 0.51467 0.98658 0.0
H861 H 0.05819 0.42314 0.01515 0.0
H862 H 0.04893 0.42303 0.03803 0.0
H863 H 0.05561 0.4905 0.02794 0.0
C864 C 0.316 0.47838 0.2329 0.0
C865 C 0.30637 0.44401 0.21815 0.0
C866 C 0.29366 0.49903 0.24547 0.0
C867 C 0.26124 0.48333 0.24343 0.0
C868 C 0.25164 0.44765 0.22877 0.0
C869 C 0.27413 0.42933 0.21623 0.0
C870 C 0.30459 0.53818 0.26079 0.0
C871 C 0.21756 0.42843 0.22632 0.0
C872 C 0.20852 0.49153 0.28359 0.0
C873 C 0.19115 0.54219 0.28131 0.0
C874 C 0.23106 0.4713 0.27121 0.0
C875 C 0.23712 0.50385 0.25657 0.0
C876 C 0.21931 0.55485 0.25415 0.0
C877 C 0.19622 0.57308 0.26649 0.0
C878 C 0.24876 0.41572 0.27397 0.0
C879 C 0.22547 0.59128 0.23887 0.0
H880 H 0.34079 0.4901 0.23442 0.0
H881 H 0.2663 0.40261 0.20493 0.0
H882 H 0.29133 0.57983 0.26118 0.0
H883 H 0.29946 0.51764 0.27314 0.0
H884 H 0.33038 0.54771 0.26024 0.0
H885 H 0.21428 0.39847 0.21454 0.0
H886 H 0.20942 0.4061 0.23788 0.0
H887 H 0.20206 0.46682 0.22514 0.0
H888 H 0.20496 0.46855 0.29531 0.0
H889 H 0.18344 0.61333 0.2651 0.0
H890 H 0.27442 0.42501 0.27565 0.0
H891 H 0.2462 0.38494 0.26235 0.0
H892 H 0.24015 0.39419 0.2856 0.0
H893 H 0.25058 0.60577 0.23902 0.0
H894 H 0.20993 0.63022 0.23904 0.0
H895 H 0.22161 0.565 0.22645 0.0
C896 C 0.71008 0.16716 0.98633 0.0
C897 C 0.70865 0.19136 0.97012 0.0
C898 C 0.73277 0.18647 0.99881 0.0
C899 C 0.75379 0.23212 0.9951 0.0
C900 C 0.75179 0.25754 0.97886 0.0
C901 C 0.72961 0.23612 0.96646 0.0
C902 C 0.73459 0.1575 0.01583 0.0
C903 C 0.77288 0.3077 0.97464 0.0
C904 C 0.78614 0.32274 0.03389 0.0
C905 C 0.81788 0.30439 0.0346 0.0
C906 C 0.7654 0.30018 0.02099 0.0
C907 C 0.77616 0.25643 0.00869 0.0
C908 C 0.80807 0.23703 0.00932 0.0
C909 C 0.82879 0.26199 0.02214 0.0
C910 C 0.73194 0.32358 0.0205 0.0
C911 C 0.82011 0.18939 0.99664 0.0
H912 H 0.69437 0.1315 0.98894 0.0
H913 H 0.72864 0.25431 0.95381 0.0
H914 H 0.75906 0.14167 0.01792 0.0
H915 H 0.72897 0.1894 0.02683 0.0
H916 H 0.71793 0.12027 0.01625 0.0
H917 H 0.7682 0.32271 0.96144 0.0
H918 H 0.76917 0.34478 0.98437 0.0
H919 H 0.79815 0.29485 0.97539 0.0
H920 H 0.77734 0.35547 0.04343 0.0
H921 H 0.85316 0.24731 0.0227 0.0
H922 H 0.71471 0.28837 0.02259 0.0
H923 H 0.72692 0.33979 0.0075 0.0
H924 H 0.72778 0.35957 0.03057 0.0
H925 H 0.80531 0.14986 0.99749 0.0
H926 H 0.84522 0.17802 0.99915 0.0
H927 H 0.81811 0.20298 0.98311 0.0
C928 C 0.69994 0.51507 0.77146 0.0
C929 C 0.70988 0.55902 0.78369 0.0
C930 C 0.72118 0.49096 0.7588 0.0
C931 C 0.75265 0.51262 0.75812 0.0
C932 C 0.76237 0.5581 0.77013 0.0
C933 C 0.7411 0.58 0.78287 0.0
C934 C 0.71022 0.44165 0.74638 0.0
C935 C 0.79533 0.58375 0.76956 0.0
C936 C 0.81935 0.42341 0.73634 0.0
C937 C 0.82006 0.44538 0.7198 0.0
C938 C 0.79701 0.44399 0.74885 0.0
C939 C 0.77556 0.48855 0.7448 0.0
C940 C 0.77704 0.51215 0.72828 0.0
C941 C 0.79894 0.4896 0.71589 0.0
C942 C 0.7958 0.41711 0.76623 0.0
C943 C 0.75542 0.56104 0.72365 0.0
H944 H 0.67597 0.49837 0.77214 0.0
H945 H 0.74907 0.61401 0.79223 0.0
H946 H 0.71231 0.45416 0.73274 0.0
H947 H 0.72564 0.40316 0.74766 0.0
H948 H 0.68525 0.42904 0.7488 0.0
H949 H 0.79866 0.62078 0.77938 0.0
H950 H 0.81324 0.54999 0.77198 0.0
H951 H 0.80013 0.59913 0.75643 0.0
H952 H 0.83521 0.38825 0.73919 0.0
H953 H 0.7994 0.50618 0.703 0.0
H954 H 0.77175 0.39939 0.76838 0.0
H955 H 0.80043 0.4507 0.77692 0.0
H956 H 0.81339 0.38156 0.76712 0.0
H957 H 0.73032 0.54699 0.72429 0.0
H958 H 0.76018 0.57548 0.71039 0.0
H959 H 0.75838 0.5988 0.73322 0.0
C960 C 0.55676 0.09368 0.9884 0.0
C961 C 0.57121 0.05974 0.97486 0.0
C962 C 0.53423 0.0693 0.99934 0.0
C963 C 0.52495 0.01039 0.99612 0.0
C964 C 0.53906 0.97649 0.98217 0.0
C965 C 0.56248 0.00123 0.97197 0.0
C966 C 0.52067 0.10633 0.01446 0.0
C967 C 0.52903 0.91434 0.9778 0.0
C968 C 0.48707 0.92641 0.03185 0.0
C969 C 0.45467 0.93376 0.02861 0.0
C970 C 0.51015 0.95213 0.02162 0.0
C971 C 0.50062 0.98395 0.00734 0.0
C972 C 0.46786 0.98982 0.00369 0.0
C973 C 0.44527 0.96579 0.01462 0.0
C974 C 0.5447 0.94651 0.02637 0.0
C975 C 0.45667 0.02124 0.9882 0.0
H976 H 0.56358 0.13889 0.99065 0.0
H977 H 0.57333 0.97516 0.96133 0.0
H978 H 0.49472 0.11122 0.0128 0.0
H979 H 0.5245 0.08478 0.02678 0.0
H980 H 0.53155 0.15031 0.01573 0.0
H981 H 0.54117 0.89486 0.96599 0.0
H982 H 0.53435 0.88741 0.98888 0.0
H983 H 0.50303 0.91231 0.97561 0.0
H984 H 0.49435 0.90249 0.04287 0.0
H985 H 0.4202 0.97153 0.01214 0.0
H986 H 0.55546 0.99033 0.02855 0.0
H987 H 0.55783 0.92349 0.01549 0.0
H988 H 0.54811 0.92248 0.0383 0.0
H989 H 0.46378 0.0676 0.98971 0.0
H990 H 0.43052 0.01897 0.98656 0.0
H991 H 0.46804 0.00221 0.97611 0.0
C992 C 0.45864 0.34733 0.23964 0.0
C993 C 0.4442 0.3145 0.22586 0.0
C994 C 0.48063 0.32173 0.2506 0.0
C995 C 0.48938 0.26264 0.24719 0.0
C996 C 0.47516 0.22973 0.23307 0.0
C997 C 0.45229 0.25573 0.22282 0.0
C998 C 0.49431 0.35773 0.2659 0.0
C999 C 0.48462 0.16738 0.22854 0.0
C1000 C 0.56838 0.2147 0.26568 0.0
C1001 C 0.55848 0.18236 0.27951 0.0
C1002 C 0.54616 0.24003 0.25482 0.0
C1003 C 0.5133 0.23505 0.25837 0.0
C1004 C 0.50328 0.20301 0.2725 0.0
C1005 C 0.52597 0.17607 0.28267 0.0
C1006 C 0.55784 0.27177 0.23949 0.0
C1007 C 0.46862 0.1983 0.27714 0.0
H1008 H 0.45237 0.39277 0.24199 0.0
H1009 H 0.4415 0.23051 0.21199 0.0
H1010 H 0.49026 0.33562 0.27811 0.0
H1011 H 0.5203 0.36218 0.2643 0.0
H1012 H 0.48371 0.4019 0.26736 0.0
H1013 H 0.4723 0.14859 0.2167 0.0
H1014 H 0.51059 0.16468 0.2263 0.0
H1015 H 0.47909 0.14027 0.23954 0.0
H1016 H 0.59354 0.21957 0.26325 0.0
H1017 H 0.5183 0.15185 0.29354 0.0
H1018 H 0.55104 0.31826 0.24112 0.0
H1019 H 0.54653 0.25341 0.22731 0.0
H1020 H 0.584 0.26896 0.23795 0.0
H1021 H 0.45826 0.2424 0.27942 0.0
H1022 H 0.46484 0.17398 0.28898 0.0
H1023 H 0.45541 0.17601 0.26617 0.0
C1024 C 0.48682 0.8139 0.72183 0.0
C1025 C 0.45436 0.80646 0.72487 0.0
C1026 C 0.50971 0.78751 0.73202 0.0
C1027 C 0.49992 0.75492 0.74609 0.0
C1028 C 0.46708 0.74865 0.74949 0.0
C1029 C 0.44468 0.77335 0.73857 0.0
C1030 C 0.54435 0.79357 0.72751 0.0
C1031 C 0.4556 0.71641 0.76476 0.0
C1032 C 0.55643 0.6461 0.76522 0.0
C1033 C 0.57048 0.68025 0.77885 0.0
C1034 C 0.53386 0.67005 0.75422 0.0
C1035 C 0.5241 0.7287 0.75746 0.0
C1036 C 0.53776 0.76273 0.77153 0.0
C1037 C 0.56125 0.73847 0.78178 0.0
C1038 C 0.52085 0.63293 0.73897 0.0
C1039 C 0.52724 0.82457 0.77593 0.0
H1040 H 0.49433 0.83865 0.71103 0.0
H1041 H 0.41956 0.76753 0.7409 0.0
H1042 H 0.5571 0.81703 0.73844 0.0
H1043 H 0.55535 0.74992 0.72548 0.0
H1044 H 0.54794 0.81744 0.71556 0.0
H1045 H 0.42938 0.7178 0.76611 0.0
H1046 H 0.46317 0.67031 0.76324 0.0
H1047 H 0.46637 0.73552 0.777 0.0
H1048 H 0.56363 0.6011 0.76294 0.0
H1049 H 0.57177 0.7647 0.79249 0.0
H1050 H 0.52495 0.65466 0.72669 0.0
H1051 H 0.49487 0.62767 0.7404 0.0
H1052 H 0.53191 0.58913 0.73775 0.0
H1053 H 0.53284 0.85193 0.76499 0.0
H1054 H 0.53883 0.84398 0.78791 0.0
H1055 H 0.50116 0.82603 0.77783 0.0
C1056 C 0.49099 0.41876 0.53172 0.0
C1057 C 0.4585 0.42631 0.5288 0.0
C1058 C 0.51377 0.44542 0.52152 0.0
C1059 C 0.50384 0.47844 0.50759 0.0
C1060 C 0.47096 0.4848 0.50431 0.0
C1061 C 0.44867 0.45974 0.51522 0.0
C1062 C 0.54846 0.43926 0.52591 0.0
C1063 C 0.45934 0.51761 0.48919 0.0
C1064 C 0.5596 0.58931 0.48895 0.0
C1065 C 0.57353 0.55638 0.47503 0.0
C1066 C 0.53739 0.5642 0.49991 0.0
C1067 C 0.52787 0.50558 0.49635 0.0
C1068 C 0.54153 0.47262 0.48206 0.0
C1069 C 0.56466 0.49806 0.47182 0.0
C1070 C 0.52436 0.60019 0.51539 0.0
C1071 C 0.53126 0.41082 0.47736 0.0
H1072 H 0.49861 0.39367 0.54241 0.0
H1073 H 0.42353 0.46556 0.51297 0.0
H1074 H 0.56118 0.41669 0.5148 0.0
H1075 H 0.55938 0.48291 0.5282 0.0
H1076 H 0.55219 0.41451 0.53767 0.0
H1077 H 0.43312 0.51594 0.48784 0.0
H1078 H 0.46674 0.56378 0.49091 0.0
H1079 H 0.47016 0.49923 0.47687 0.0
H1080 H 0.56648 0.6344 0.49144 0.0
H1081 H 0.57507 0.47278 0.46088 0.0
H1082 H 0.52839 0.57751 0.5275 0.0
H1083 H 0.49839 0.60562 0.51397 0.0
H1084 H 0.53544 0.64396 0.51691 0.0
H1085 H 0.53674 0.38298 0.4882 0.0
H1086 H 0.54308 0.39208 0.46536 0.0
H1087 H 0.50521 0.40921 0.47533 0.0
C1088 C 0.15042 0.78537 0.3441 0.0
C1089 C 0.13033 0.74034 0.34843 0.0
C1090 C 0.15334 0.83601 0.35508 0.0
C1091 C 0.13504 0.84237 0.37053 0.0
C1092 C 0.11457 0.79679 0.37492 0.0
C1093 C 0.11238 0.7463 0.36375 0.0
C1094 C 0.1758 0.88271 0.35004 0.0
C1095 C 0.09439 0.80196 0.39117 0.0
C1096 C 0.15578 0.95313 0.4075 0.0
C1097 C 0.13518 -0.00133 0.40436 0.0
C1098 C 0.15689 0.90301 0.39623 0.0
C1099 C 0.13613 0.89749 0.38175 0.0
C1100 C 0.11508 0.94354 0.37858 0.0
C1101 C 0.1148 0.99366 0.38999 0.0
C1102 C 0.18009 0.8559 0.39994 0.0
C1103 C 0.09226 0.93919 0.36342 0.0
H1104 H 0.16332 0.78153 0.33188 0.0
H1105 H 0.09637 0.71166 0.36687 0.0
H1106 H 0.16302 0.92455 0.34944 0.0
H1107 H 0.1944 0.88846 0.36014 0.0
H1108 H 0.18747 0.87198 0.33727 0.0
H1109 H 0.08007 0.76225 0.39282 0.0
H1110 H 0.10963 0.81009 0.40283 0.0
H1111 H 0.0781 0.8396 0.39063 0.0
H1112 H 0.17057 0.95617 0.41905 0.0
H1113 H 0.09842 0.0287 0.3878 0.0
H1114 H 0.19703 0.85062 0.38896 0.0
H1115 H 0.16745 0.81408 0.40098 0.0
H1116 H 0.19373 0.8659 0.41213 0.0
H1117 H 0.10542 0.93058 0.35102 0.0
H1118 H 0.07803 0.97942 0.36251 0.0
H1119 H 0.07585 0.90213 0.36479 0.0
C1120 C 0.11436 0.28697 0.40689 0.0
C1121 C 0.13897 0.24778 0.40243 0.0
C1122 C 0.10792 0.33402 0.3966 0.0
C1123 C 0.12623 0.3414 0.38143 0.0
C1124 C 0.14988 0.30018 0.37642 0.0
C1125 C 0.15615 0.25449 0.38703 0.0
C1126 C 0.08267 0.37735 0.40243 0.0
C1127 C 0.16984 0.30591 0.36029 0.0
C1128 C 0.10883 0.44831 0.34683 0.0
C1129 C 0.13136 0.49165 0.35117 0.0
C1130 C 0.10536 0.40019 0.35712 0.0
C1131 C 0.1245 0.39611 0.37217 0.0
C1132 C 0.14574 0.44163 0.37714 0.0
C1133 C 0.14915 0.48816 0.36652 0.0
C1134 C 0.0826 0.35227 0.35135 0.0
C1135 C 0.16641 0.43965 0.39316 0.0
H1136 H 0.1008 0.28199 0.41868 0.0
H1137 H 0.17499 0.22431 0.38327 0.0
H1138 H 0.09407 0.41845 0.40747 0.0
H1139 H 0.06743 0.38773 0.3913 0.0
H1140 H 0.06748 0.36117 0.41289 0.0
H1141 H 0.18448 0.26661 0.35707 0.0
H1142 H 0.15458 0.31369 0.34892 0.0
H1143 H 0.18595 0.34381 0.36233 0.0
H1144 H 0.09493 0.45066 0.33504 0.0
H1145 H 0.16654 0.5213 0.37014 0.0
H1146 H 0.06866 0.33825 0.36258 0.0
H1147 H 0.09619 0.31399 0.34597 0.0
H1148 H 0.06601 0.36585 0.34116 0.0
H1149 H 0.15207 0.42872 0.40459 0.0
H1150 H 0.17873 0.4816 0.39637 0.0
H1151 H 0.18463 0.40522 0.39095 0.0
C1152 C 0.11853 0.24961 0.863 0.0
C1153 C 0.13782 0.24341 0.84819 0.0
C1154 C 0.11965 0.30043 0.87407 0.0
C1155 C 0.14037 0.34612 0.87008 0.0
C1156 C 0.16003 0.33948 0.85515 0.0
C1157 C 0.1582 0.28847 0.84427 0.0
C1158 C 0.09814 0.30579 0.8898 0.0
C1159 C 0.18283 0.38623 0.85056 0.0
C1160 C 0.11804 0.49729 0.88881 0.0
C1161 C 0.13729 0.50287 0.90364 0.0
C1162 C 0.11946 0.44708 0.87746 0.0
C1163 C 0.14043 0.40148 0.8812 0.0
C1164 C 0.16003 0.40761 0.89615 0.0
C1165 C 0.15787 0.45785 0.9073 0.0
C1166 C 0.09795 0.44214 0.86174 0.0
C1167 C 0.18307 0.36101 0.90049 0.0
H1168 H 0.10232 0.21489 0.86579 0.0
H1169 H 0.1722 0.28435 0.83243 0.0
H1170 H 0.11238 0.31448 0.90182 0.0
H1171 H 0.08181 0.34314 0.88874 0.0
H1172 H 0.0838 0.26593 0.8912 0.0
H1173 H 0.19514 0.37571 0.83797 0.0
H1174 H 0.17016 0.42814 0.84984 0.0
H1175 H 0.20093 0.39162 0.86096 0.0
H1176 H 0.10169 0.53196 0.88621 0.0
H1177 H 0.17185 0.46141 0.91915 0.0
H1178 H 0.08149 0.40494 0.86278 0.0
H1179 H 0.11215 0.4334 0.84971 0.0
H1180 H 0.08375 0.48217 0.86039 0.0
H1181 H 0.17048 0.31906 0.90134 0.0
H1182 H 0.19578 0.37152 0.91296 0.0
H1183 H 0.20083 0.35577 0.88991 0.0
C1184 C 0.15398 0.757 0.88704 0.0
C1185 C 0.13764 0.75119 0.90276 0.0
C1186 C 0.14857 0.804 0.87684 0.0
C1187 C 0.12651 0.8473 0.88253 0.0
C1188 C 0.10869 0.84062 0.89792 0.0
C1189 C 0.11437 0.79237 0.90787 0.0
C1190 C 0.16805 0.80896 0.86048 0.0
C1191 C 0.08489 0.88588 0.90437 0.0
C1192 C 0.15429 0.99158 0.86797 0.0
C1193 C 0.13697 -0.0032 0.85253 0.0
C1194 C 0.14906 0.94561 0.87861 0.0
C1195 C 0.12621 0.90281 0.87366 0.0
C1196 C 0.10731 0.90927 0.85865 0.0
C1197 C 0.11283 0.95645 0.84826 0.0
C1198 C 0.16969 0.94084 0.89454 0.0
C1199 C 0.08264 0.86458 0.853 0.0
H1200 H 0.17176 0.72534 0.88276 0.0
H1201 H 0.10145 0.78809 0.9199 0.0
H1202 H 0.15258 0.81862 0.84937 0.0
H1203 H 0.18514 0.84539 0.86249 0.0
H1204 H 0.18159 0.76862 0.85687 0.0
H1205 H 0.06916 0.86972 0.91459 0.0
H1206 H 0.09762 0.92489 0.90995 0.0
H1207 H 0.07007 0.89972 0.89345 0.0
H1208 H 0.17275 0.0227 0.8716 0.0
H1209 H 0.09913 0.96033 0.83647 0.0
H1210 H 0.18667 0.90441 0.89217 0.0
H1211 H 0.15506 0.93128 0.90599 0.0
H1212 H 0.18343 0.98122 0.89779 0.0
H1213 H 0.09457 0.82505 0.84717 0.0
H1214 H 0.06617 0.88091 0.84315 0.0
H1215 H 0.06868 0.85153 0.86434 0.0
C1216 C 0.86741 0.20428 0.65767 0.0
C1217 C 0.88779 0.24948 0.65385 0.0
C1218 C 0.86564 0.15346 0.64674 0.0
C1219 C 0.88543 0.147 0.63187 0.0
C1220 C 0.90617 0.19277 0.62796 0.0
C1221 C 0.90718 0.24354 0.63907 0.0
C1222 C 0.84279 0.10665 0.65122 0.0
C1223 C 0.92788 0.18746 0.61233 0.0
C1224 C 0.90807 0.99516 0.61398 0.0
C1225 C 0.88902 0.98862 0.59909 0.0
C1226 C 0.9066 0.04606 0.62501 0.0
C1227 C 0.88573 0.09138 0.6209 0.0
C1228 C 0.86631 0.08437 0.6059 0.0
C1229 C 0.86854 0.0334 0.59505 0.0
C1230 C 0.92792 0.05196 0.64079 0.0
C1231 C 0.84336 0.13073 0.6012 0.0
H1232 H 0.85336 0.20814 0.6695 0.0
H1233 H 0.92339 0.27834 0.63636 0.0
H1234 H 0.85551 0.06488 0.65216 0.0
H1235 H 0.83008 0.11733 0.66368 0.0
H1236 H 0.82502 0.10084 0.64067 0.0
H1237 H 0.94202 0.22754 0.61089 0.0
H1238 H 0.9444 0.15047 0.61353 0.0
H1239 H 0.91384 0.17819 0.60026 0.0
H1240 H 0.92436 0.96069 0.61686 0.0
H1241 H 0.85475 0.02909 0.58314 0.0
H1242 H 0.91354 0.06082 0.65276 0.0
H1243 H 0.94418 0.08941 0.63971 0.0
H1244 H 0.94233 0.01228 0.64233 0.0
H1245 H 0.82535 0.1365 0.61164 0.0
H1246 H 0.83095 0.11962 0.58868 0.0
H1247 H 0.85593 0.17267 0.60028 0.0
C1248 C 0.87101 0.50299 0.63671 0.0
C1249 C 0.88784 0.49713 0.65228 0.0
C1250 C 0.87683 0.54897 0.62617 0.0
C1251 C 0.8998 0.59127 0.63135 0.0
C1252 C 0.9181 0.58441 0.64656 0.0
C1253 C 0.912 0.53716 0.65685 0.0
C1254 C 0.85679 0.55415 0.61003 0.0
C1255 C 0.94287 0.6286 0.65247 0.0
C1256 C 0.91315 0.69962 0.59672 0.0
C1257 C 0.88973 0.74101 0.60136 0.0
C1258 C 0.91855 0.65217 0.60704 0.0
C1259 C 0.90031 0.64656 0.62235 0.0
C1260 C 0.87823 0.69032 0.62763 0.0
C1261 C 0.87307 0.73642 0.61705 0.0
C1262 C 0.94239 0.60642 0.60103 0.0
C1263 C 0.85832 0.68654 0.64388 0.0
H1264 H 0.85253 0.4722 0.63282 0.0
H1265 H 0.92534 0.53279 0.66874 0.0
H1266 H 0.84015 0.59122 0.61216 0.0
H1267 H 0.87192 0.56291 0.59869 0.0
H1268 H 0.8427 0.51423 0.60671 0.0
H1269 H 0.95883 0.612 0.66251 0.0
H1270 H 0.95736 0.64123 0.64127 0.0
H1271 H 0.931 0.66843 0.65812 0.0
H1272 H 0.92634 0.70298 0.58473 0.0
H1273 H 0.85514 0.76823 0.62098 0.0
H1274 H 0.92971 0.56743 0.59539 0.0
H1275 H 0.95669 0.59275 0.61216 0.0
H1276 H 0.9586 0.62203 0.59094 0.0
H1277 H 0.84087 0.65069 0.64184 0.0
H1278 H 0.84512 0.72743 0.64728 0.0
H1279 H 0.87338 0.67669 0.65513 0.0
C1280 C 0.86795 0.54464 0.09486 0.0
C1281 C 0.88866 0.50033 0.09906 0.0
C1282 C 0.86602 0.59667 0.1053 0.0
C1283 C 0.88573 0.60509 0.12015 0.0
C1284 C 0.90702 0.56049 0.12434 0.0
C1285 C 0.90832 0.50864 0.11367 0.0
C1286 C 0.8424 0.64191 0.10056 0.0
C1287 C 0.92866 0.56782 0.13996 0.0
C1288 C 0.90322 0.75895 0.13885 0.0
C1289 C 0.88323 0.76302 0.15341 0.0
C1290 C 0.90379 0.70822 0.12765 0.0
C1291 C 0.88423 0.66046 0.13131 0.0
C1292 C 0.86397 0.66503 0.14601 0.0
C1293 C 0.86392 0.71596 0.15693 0.0
C1294 C 0.92571 0.70521 0.11211 0.0
C1295 C 0.84239 0.6161 0.1503 0.0
H1296 H 0.85369 0.53911 0.08315 0.0
H1297 H 0.92483 0.47466 0.11668 0.0
H1298 H 0.82259 0.64156 0.10996 0.0
H1299 H 0.85313 0.68592 0.1015 0.0
H1300 H 0.83259 0.63303 0.08724 0.0
H1301 H 0.94405 0.52927 0.14132 0.0
H1302 H 0.94396 0.60659 0.13885 0.0
H1303 H 0.91439 0.57526 0.15202 0.0
H1304 H 0.91861 0.79518 0.13637 0.0
H1305 H 0.84944 0.71829 0.1686 0.0
H1306 H 0.9119 0.69569 0.09997 0.0
H1307 H 0.94292 0.66921 0.11318 0.0
H1308 H 0.93905 0.74634 0.11093 0.0
H1309 H 0.82478 0.60963 0.13973 0.0
H1310 H 0.82949 0.62506 0.1628 0.0
H1311 H 0.85611 0.5753 0.15101 0.0
C1312 C 0.85004 0.05562 0.15439 0.0
C1313 C 0.87509 0.01996 0.15916 0.0
C1314 C 0.8551 0.10153 0.14361 0.0
C1315 C 0.88592 0.1116 0.13714 0.0
C1316 C 0.91155 0.07692 0.14234 0.0
C1317 C 0.90587 0.03169 0.15342 0.0
C1318 C 0.82718 0.13817 0.13873 0.0
C1319 C 0.94467 0.08593 0.13559 0.0
C1320 C 0.88348 0.19071 0.0953 0.0
C1321 C 0.88773 0.24832 0.10173 0.0
C1322 C 0.88508 0.14497 0.10654 0.0
C1323 C 0.89066 0.15758 0.12459 0.0
C1324 C 0.89688 0.21557 0.13086 0.0
C1325 C 0.89546 0.26022 0.11931 0.0
C1326 C 0.87875 0.08366 0.09928 0.0
C1327 C 0.90282 0.2311 0.14997 0.0
H1328 H 0.82622 0.04683 0.15883 0.0
H1329 H 0.92522 0.00372 0.15687 0.0
H1330 H 0.83234 0.1849 0.14183 0.0
H1331 H 0.82287 0.13226 0.12449 0.0
H1332 H 0.80512 0.12675 0.14564 0.0
H1333 H 0.96239 0.05853 0.14191 0.0
H1334 H 0.94526 0.07502 0.12132 0.0
H1335 H 0.95174 0.13219 0.13775 0.0
H1336 H 0.87735 0.18174 0.08169 0.0
H1337 H 0.89922 0.30481 0.12418 0.0
H1338 H 0.8552 0.06931 0.10381 0.0
H1339 H 0.89671 0.05342 0.1041 0.0
H1340 H 0.87894 0.08011 0.0848 0.0
H1341 H 0.88059 0.22538 0.15739 0.0
H1342 H 0.91091 0.27678 0.15239 0.0
H1343 H 0.92084 0.20177 0.15516 0.0
C1344 C 0.65445 0.78701 0.84579 0.0
C1345 C 0.63412 0.74162 0.84952 0.0
C1346 C 0.65584 0.83794 0.85667 0.0
C1347 C 0.63589 0.84423 0.87147 0.0
C1348 C 0.61509 0.79839 0.87525 0.0
C1349 C 0.61433 0.74756 0.86413 0.0
C1350 C 0.6786 0.88497 0.85223 0.0
C1351 C 0.59331 0.80346 0.89085 0.0
C1352 C 0.65554 0.95658 0.90819 0.0
C1353 C 0.63556 0.00244 0.90445 0.0
C1354 C 0.65628 0.90531 0.89743 0.0
C1355 C 0.63614 0.89932 0.8827 0.0
C1356 C 0.61577 0.94571 0.87889 0.0
C1357 C 0.61559 -0.00325 0.88991 0.0
C1358 C 0.6786 0.85764 0.90186 0.0
C1359 C 0.59382 0.94102 0.86335 0.0
H1360 H 0.66878 0.78322 0.83407 0.0
H1361 H 0.5982 0.71259 0.86678 0.0
H1362 H 0.66579 0.92667 0.85136 0.0
H1363 H 0.69635 0.8907 0.86279 0.0
H1364 H 0.69133 0.87456 0.83976 0.0
H1365 H 0.57888 0.76362 0.89209 0.0
H1366 H 0.60737 0.81179 0.90296 0.0
H1367 H 0.57709 0.84096 0.88981 0.0
H1368 H 0.67007 0.96028 0.91984 0.0
H1369 H 0.59971 0.03208 0.88726 0.0
H1370 H 0.69613 0.85118 0.89124 0.0
H1371 H 0.66541 0.81636 0.90284 0.0
H1372 H 0.69157 0.86788 0.91426 0.0
H1373 H 0.60772 0.93227 0.85121 0.0
H1374 H 0.57967 0.98119 0.86213 0.0
H1375 H 0.57733 0.90393 0.86448 0.0
C1376 C 0.65598 0.25509 0.88742 0.0
C1377 C 0.63969 0.25135 0.90327 0.0
C1378 C 0.65063 0.30057 0.87665 0.0
C1379 C 0.62896 0.34496 0.88196 0.0
C1380 C 0.61133 0.34066 0.89755 0.0
C1381 C 0.61673 0.29349 0.908 0.0
C1382 C 0.66983 0.30284 0.86009 0.0
C1383 C 0.58813 0.38738 0.90367 0.0
C1384 C 0.65826 0.48629 0.86599 0.0
C1385 C 0.64025 0.49179 0.8508 0.0
C1386 C 0.65284 0.44135 0.87697 0.0
C1387 C 0.62925 0.39942 0.87255 0.0
C1388 C 0.61006 0.40554 0.85763 0.0
C1389 C 0.61563 0.45203 0.84696 0.0
C1390 C 0.67379 0.43701 0.8928 0.0
C1391 C 0.58481 0.36142 0.85245 0.0
H1392 H 0.67366 0.22287 0.88344 0.0
H1393 H 0.60386 0.29085 0.92013 0.0
H1394 H 0.65434 0.31258 0.84899 0.0
H1395 H 0.68768 0.33815 0.8617 0.0
H1396 H 0.6825 0.26138 0.8567 0.0
H1397 H 0.57252 0.37314 0.91423 0.0
H1398 H 0.60137 0.42655 0.9087 0.0
H1399 H 0.57317 0.40027 0.8927 0.0
H1400 H 0.67716 0.51685 0.86932 0.0
H1401 H 0.60139 0.45614 0.83537 0.0
H1402 H 0.69027 0.39974 0.89059 0.0
H1403 H 0.65931 0.42907 0.90446 0.0
H1404 H 0.6881 0.47697 0.89565 0.0
H1405 H 0.59622 0.32069 0.84712 0.0
H1406 H 0.56861 0.37712 0.84238 0.0
H1407 H 0.57063 0.35058 0.86396 0.0
C1408 C 0.60816 0.25467 0.36359 0.0
C1409 C 0.62762 0.24554 0.34892 0.0
C1410 C 0.60972 0.3069 0.37402 0.0
C1411 C 0.631 0.35112 0.36951 0.0
C1412 C 0.65057 0.34182 0.35462 0.0
C1413 C 0.64851 0.28924 0.34447 0.0
C1414 C 0.5883 0.31511 0.38973 0.0
C1415 C 0.67422 0.38648 0.34951 0.0
C1416 C 0.61283 0.50481 0.38795 0.0
C1417 C 0.63271 0.50922 0.40255 0.0
C1418 C 0.6127 0.45414 0.37673 0.0
C1419 C 0.63258 0.40689 0.38042 0.0
C1420 C 0.65289 0.41199 0.39507 0.0
C1421 C 0.65241 0.46272 0.40605 0.0
C1422 C 0.59093 0.45064 0.36113 0.0
C1423 C 0.67492 0.36367 0.3993 0.0
H1424 H 0.59154 0.22109 0.36678 0.0
H1425 H 0.66274 0.28287 0.33276 0.0
H1426 H 0.60273 0.3234 0.40169 0.0
H1427 H 0.57292 0.35365 0.38846 0.0
H1428 H 0.573 0.27662 0.39139 0.0
H1429 H 0.68164 0.37931 0.33566 0.0
H1430 H 0.66476 0.43121 0.35166 0.0
H1431 H 0.6955 0.38256 0.35774 0.0
H1432 H 0.59723 0.54069 0.38545 0.0
H1433 H 0.66684 0.46534 0.41773 0.0
H1434 H 0.57379 0.41451 0.36222 0.0
H1435 H 0.60491 0.441 0.34905 0.0
H1436 H 0.57751 0.4916 0.35985 0.0
H1437 H 0.66129 0.32304 0.40061 0.0
H1438 H 0.68855 0.37371 0.4115 0.0
H1439 H 0.6919 0.35619 0.38843 0.0
C1440 C 0.60791 0.7798 0.40424 0.0
C1441 C 0.63936 0.76627 0.40836 0.0
C1442 C 0.60103 0.82515 0.39343 0.0
C1443 C 0.62618 0.85794 0.38678 0.0
C1444 C 0.65783 0.84592 0.39152 0.0
C1445 C 0.66401 0.80014 0.40215 0.0
C1446 C 0.56703 0.83653 0.38859 0.0
C1447 C 0.68535 0.88049 0.385 0.0
C1448 C 0.62357 0.93806 0.34525 0.0
C1449 C 0.62273 0.99575 0.35207 0.0
C1450 C 0.62214 0.89205 0.35638 0.0
C1451 C 0.62002 0.9045 0.37466 0.0
C1452 C 0.61664 0.96279 0.38138 0.0
C1453 C 0.61804 0.00772 0.36997 0.0
C1454 C 0.62547 0.83044 0.34869 0.0
C1455 C 0.61421 0.9781 0.40073 0.0
H1456 H 0.58878 0.75333 0.40883 0.0
H1457 H 0.68835 0.7901 0.40535 0.0
H1458 H 0.56123 0.88325 0.39112 0.0
H1459 H 0.56363 0.8258 0.37443 0.0
H1460 H 0.55008 0.81035 0.39589 0.0
H1461 H 0.70841 0.86697 0.39043 0.0
H1462 H 0.6866 0.87493 0.37057 0.0
H1463 H 0.68185 0.92748 0.38854 0.0
H1464 H 0.62738 0.92903 0.33138 0.0
H1465 H 0.61686 0.05247 0.37515 0.0
H1466 H 0.60792 0.80164 0.35456 0.0
H1467 H 0.64943 0.81386 0.35166 0.0
H1468 H 0.62227 0.82745 0.33431 0.0
H1469 H 0.59676 0.94968 0.40683 0.0
H1470 H 0.60722 0.02418 0.40364 0.0
H1471 H 0.63754 0.971 0.40693 0.0
C1472 C 0.3664 0.2201 0.1566 0.0
C1473 C 0.38727 0.26531 0.15346 0.0
C1474 C 0.36588 0.16902 0.14575 0.0
C1475 C 0.38715 0.16237 0.13154 0.0
C1476 C 0.40852 0.20799 0.12834 0.0
C1477 C 0.40845 0.25897 0.13945 0.0
C1478 C 0.34245 0.12231 0.14951 0.0
C1479 C 0.43176 0.2025 0.1134 0.0
C1480 C 0.40714 0.00855 0.11394 0.0
C1481 C 0.38824 0.00295 0.09897 0.0
C1482 C 0.40685 0.0601 0.12476 0.0
C1483 C 0.3875 0.10716 0.1203 0.0
C1484 C 0.36852 0.10132 0.1051 0.0
C1485 C 0.36927 0.04944 0.09458 0.0
C1486 C 0.42757 0.06452 0.1408 0.0
C1487 C 0.34732 0.14966 0.09992 0.0
H1488 H 0.35091 0.22411 0.16787 0.0
H1489 H 0.42503 0.29371 0.13726 0.0
H1490 H 0.32601 0.11678 0.13836 0.0
H1491 H 0.35484 0.08042 0.15083 0.0
H1492 H 0.32837 0.13306 0.16151 0.0
H1493 H 0.44656 0.2421 0.11258 0.0
H1494 H 0.44759 0.16473 0.11492 0.0
H1495 H 0.41885 0.19436 0.10091 0.0
H1496 H 0.42232 0.97275 0.11708 0.0
H1497 H 0.35568 0.04583 0.0826 0.0
H1498 H 0.41276 0.07362 0.15259 0.0
H1499 H 0.44439 0.1013 0.14005 0.0
H1500 H 0.44132 0.02411 0.14238 0.0
H1501 H 0.32829 0.1557 0.10974 0.0
H1502 H 0.33616 0.14023 0.08695 0.0
H1503 H 0.36082 0.19089 0.09974 0.0
C1504 C 0.39636 0.50796 0.13858 0.0
C1505 C 0.386 0.51757 0.15582 0.0
C1506 C 0.39928 0.55404 0.12766 0.0
C1507 C 0.39201 0.61123 0.13427 0.0
C1508 C 0.38406 0.62164 0.15214 0.0
C1509 C 0.38089 0.57441 0.16272 0.0
C1510 C 0.40762 0.54077 0.10871 0.0
C1511 C 0.3767 0.6821 0.15976 0.0
C1512 C 0.40993 0.73771 0.10616 0.0
C1513 C 0.37991 0.74821 0.09918 0.0
C1514 C 0.41438 0.6934 0.1177 0.0
C1515 C 0.38833 0.65825 0.12201 0.0
C1516 C 0.35825 0.66759 0.11449 0.0
C1517 C 0.35437 0.71278 0.10334 0.0
C1518 C 0.44665 0.68531 0.12566 0.0
C1519 C 0.32998 0.63027 0.11838 0.0
H1520 H 0.40085 0.46392 0.13339 0.0
H1521 H 0.37277 0.5816 0.17607 0.0
H1522 H 0.3863 0.54673 0.10056 0.0
H1523 H 0.42606 0.57115 0.10448 0.0
H1524 H 0.41627 0.4955 0.10615 0.0
H1525 H 0.3757 0.68411 0.17423 0.0
H1526 H 0.39477 0.71346 0.15567 0.0
H1527 H 0.35341 0.69619 0.15481 0.0
H1528 H 0.42963 0.7656 0.10316 0.0
H1529 H 0.33115 0.72066 0.09792 0.0
H1530 H 0.45469 0.63973 0.12318 0.0
H1531 H 0.4452 0.69397 0.14001 0.0
H1532 H 0.46473 0.71471 0.12047 0.0
H1533 H 0.33554 0.58378 0.11512 0.0
H1534 H 0.30855 0.64191 0.11097 0.0
H1535 H 0.32439 0.63504 0.13251 0.0
C1536 C 0.36979 0.70021 0.65754 0.0
C1537 C 0.38933 0.74649 0.65361 0.0
C1538 C 0.36873 0.64919 0.64666 0.0
C1539 C 0.38825 0.64374 0.63167 0.0
C1540 C 0.40808 0.69067 0.62763 0.0
C1541 C 0.4085 0.74155 0.63874 0.0
C1542 C 0.34688 0.60108 0.65134 0.0
C1543 C 0.42935 0.68658 0.61181 0.0
C1544 C 0.41105 0.49176 0.61377 0.0
C1545 C 0.39123 0.4843 0.5992 0.0
C1546 C 0.41005 0.54323 0.62459 0.0
C1547 C 0.38887 0.58823 0.62061 0.0
C1548 C 0.36886 0.58049 0.60587 0.0
C1549 C 0.37052 0.52887 0.59526 0.0
C1550 C 0.43212 0.54998 0.64004 0.0
C1551 C 0.34536 0.62624 0.60138 0.0
H1552 H 0.356 0.70322 0.66946 0.0
H1553 H 0.42408 0.7772 0.63594 0.0
H1554 H 0.32899 0.59428 0.64091 0.0
H1555 H 0.36035 0.56006 0.65218 0.0
H1556 H 0.33432 0.61104 0.66388 0.0
H1557 H 0.44307 0.72715 0.61039 0.0
H1558 H 0.44622 0.64997 0.61272 0.0
H1559 H 0.41497 0.67739 0.59986 0.0
H1560 H 0.42757 0.45756 0.61656 0.0
H1561 H 0.35611 0.52391 0.58358 0.0
H1562 H 0.41825 0.55829 0.65222 0.0
H1563 H 0.44784 0.58806 0.63873 0.0
H1564 H 0.44709 0.51086 0.64136 0.0
H1565 H 0.32627 0.62721 0.61123 0.0
H1566 H 0.33453 0.61703 0.58832 0.0
H1567 H 0.35662 0.66977 0.60186 0.0
C1568 C 0.40199 0.24381 0.61698 0.0
C1569 C 0.39348 0.23276 0.59948 0.0
C1570 C 0.40394 0.19855 0.62828 0.0
C1571 C 0.3972 0.14091 0.62186 0.0
C1572 C 0.39074 0.12919 0.60386 0.0
C1573 C 0.38879 0.17549 0.59286 0.0
C1574 C 0.41085 0.21311 0.64733 0.0
C1575 C 0.38368 0.0683 0.59647 0.0
C1576 C 0.41323 0.01418 0.65016 0.0
C1577 C 0.38273 0.00318 0.65647 0.0
C1578 C 0.41851 0.05921 0.63897 0.0
C1579 C 0.3928 0.0945 0.63427 0.0
C1580 C 0.36226 0.08494 0.64121 0.0
C1581 C 0.35758 0.03915 0.65207 0.0
C1582 C 0.4513 0.0677 0.6317 0.0
C1583 C 0.3343 0.12229 0.63685 0.0
H1584 H 0.40575 0.28828 0.62201 0.0
H1585 H 0.38189 0.16727 0.57933 0.0
H1586 H 0.3889 0.20788 0.65504 0.0
H1587 H 0.42882 0.18296 0.65217 0.0
H1588 H 0.41949 0.25844 0.6498 0.0
H1589 H 0.38323 0.06536 0.58199 0.0
H1590 H 0.40161 0.03736 0.60093 0.0
H1591 H 0.36023 0.05437 0.60125 0.0
H1592 H 0.43267 0.98603 0.65335 0.0
H1593 H 0.33399 0.03098 0.65698 0.0
H1594 H 0.45894 0.11354 0.63416 0.0
H1595 H 0.45095 0.05831 0.61736 0.0
H1596 H 0.46911 0.03897 0.63741 0.0
H1597 H 0.33978 0.16882 0.6401 0.0
H1598 H 0.31248 0.11085 0.64397 0.0
H1599 H 0.32941 0.11724 0.62265 0.0
loop_
_geom_bond_atom_site_label_1
_geom_bond_atom_site_label_2
_geom_bond_distance
_geom_bond_site_symmetry_2
_ccdc_geom_bond_type
Mn0 O5 2.095 . S
Mn0 O15 2.162 . S
Mn0 O16 2.297 . S
Mn0 O24 2.385 . S
Mn0 O25 2.209 . S
Mn0 O26 2.094 . S
Mn1 O6 2.121 . S
Mn1 N8 2.257 . S
Mn1 N17 2.282 . S
Mn1 O25 2.215 . S
Mn1 O27 2.117 . S
C2 O24 1.234 . S
C2 O25 1.283 . S
C3 O15 1.281 . S
C3 O16 1.236 . S
C4 O26 1.240 . S
C4 O27 1.264 . S
O5 Mn0 2.095 . S
O5 C14 1.250 . S
O6 Mn1 2.121 . S
O6 C14 1.258 . S
C7 N8 1.326 . S
C7 C11 1.461 . S
C7 H13 0.929 . S
N8 Mn1 2.257 . S
N8 C7 1.326 . S
N8 C12 1.362 . S
C9 C10 1.258 . S
C9 C12 1.431 1_565 S
C9 C29 1.449 . S
C10 C9 1.258 . S
C10 C11 1.477 1_565 S
C10 H30 0.931 . S
C11 C7 1.461 . S
C11 C10 1.477 1_545 S
C11 H31 0.930 1_545 S
C12 N8 1.362 . S
C12 C9 1.431 1_545 S
C12 C22 1.476 . S
H13 C7 0.929 . S
C14 O5 1.250 . S
C14 O6 1.258 . S
O15 Mn0 2.162 . S
O15 C3 1.281 . S
O16 Mn0 2.297 . S
O16 C3 1.236 . S
N17 Mn1 2.282 . S
N17 C18 1.328 . S
N17 C22 1.318 . S
C18 N17 1.328 . S
C18 C19 1.457 . S
C18 H23 0.929 . S
C19 C18 1.457 . S
C19 C20 1.291 . S
C19 H32 0.931 . S
C20 C19 1.291 . S
C20 C21 1.373 . S
C20 H33 0.929 . S
C21 C20 1.373 . S
C21 C22 1.396 . S
C21 C28 1.403 1_545 S
C22 C12 1.476 . S
C22 N17 1.318 . S
C22 C21 1.396 . S
H23 C18 0.929 . S
O24 Mn0 2.385 . S
O24 C2 1.234 . S
O25 Mn0 2.209 . S
O25 Mn1 2.215 . S
O25 C2 1.283 . S
O26 Mn0 2.094 . S
O26 C4 1.240 . S
O27 Mn1 2.117 . S
O27 C4 1.264 . S
C28 C21 1.403 1_565 S
C28 C29 1.399 . S
C28 H34 0.929 . S
C29 C9 1.449 . S
C29 C28 1.399 . S
C29 H35 0.930 . S
H30 C10 0.931 . S
H31 C11 0.930 1_565 S
H32 C19 0.931 . S
H33 C20 0.929 . S
H34 C28 0.929 . S
H35 C29 0.930 . S
Mn36 O41 2.095 . S
Mn36 O51 2.162 . S
Mn36 O52 2.297 . S
Mn36 O60 2.385 . S
Mn36 O61 2.209 . S
Mn36 O62 2.094 . S
Mn37 O42 2.121 . S
Mn37 N44 2.257 . S
Mn37 N53 2.282 . S
Mn37 O61 2.215 . S
Mn37 O63 2.117 . S
C38 O60 1.234 . S
C38 O61 1.283 . S
C39 O51 1.281 . S
C39 O52 1.236 . S
C40 O62 1.240 . S
C40 O63 1.264 . S
O41 Mn36 2.095 . S
O41 C50 1.250 . S
O42 Mn37 2.121 . S
O42 C50 1.258 . S
C43 N44 1.326 . S
C43 C47 1.460 . S
C43 H49 0.929 . S
N44 Mn37 2.257 . S
N44 C43 1.326 . S
N44 C48 1.362 . S
C45 C46 1.258 . S
C45 C48 1.431 . S
C45 C65 1.449 . S
C46 C45 1.258 . S
C46 C47 1.477 . S
C46 H66 0.931 . S
C47 C43 1.460 . S
C47 C46 1.477 . S
C47 H67 0.930 . S
C48 N44 1.362 . S
C48 C45 1.431 . S
C48 C58 1.476 . S
H49 C43 0.929 . S
C50 O41 1.250 . S
C50 O42 1.258 . S
O51 Mn36 2.162 . S
O51 C39 1.281 . S
O52 Mn36 2.297 . S
O52 C39 1.236 . S
N53 Mn37 2.282 . S
N53 C54 1.328 . S
N53 C58 1.318 . S
C54 N53 1.328 . S
C54 C55 1.457 . S
C54 H59 0.929 . S
C55 C54 1.457 . S
C55 C56 1.291 . S
C55 H68 0.931 . S
C56 C55 1.291 . S
C56 C57 1.373 . S
C56 H69 0.929 . S
C57 C56 1.373 . S
C57 C58 1.396 . S
C57 C64 1.403 . S
C58 C48 1.476 . S
C58 N53 1.318 . S
C58 C57 1.396 . S
H59 C54 0.929 . S
O60 Mn36 2.385 . S
O60 C38 1.234 . S
O61 Mn36 2.209 . S
O61 Mn37 2.215 . S
O61 C38 1.283 . S
O62 Mn36 2.094 . S
O62 C40 1.240 . S
O63 Mn37 2.117 . S
O63 C40 1.264 . S
C64 C57 1.403 . S
C64 C65 1.399 . S
C64 H70 0.929 . S
C65 C45 1.449 . S
C65 C64 1.399 . S
C65 H71 0.930 . S
H66 C46 0.931 . S
H67 C47 0.930 . S
H68 C55 0.931 . S
H69 C56 0.929 . S
H70 C64 0.929 . S
H71 C65 0.930 . S
Mn72 O77 2.095 . S
Mn72 O87 2.162 . S
Mn72 O88 2.297 . S
Mn72 O96 2.385 . S
Mn72 O97 2.209 . S
Mn72 O98 2.094 . S
Mn73 O78 2.121 . S
Mn73 N80 2.257 . S
Mn73 N89 2.282 . S
Mn73 O97 2.215 . S
Mn73 O99 2.117 . S
C74 O96 1.234 . S
C74 O97 1.283 . S
C75 O87 1.281 . S
C75 O88 1.236 . S
C76 O98 1.240 . S
C76 O99 1.264 . S
O77 Mn72 2.095 . S
O77 C86 1.250 . S
O78 Mn73 2.121 . S
O78 C86 1.258 . S
C79 N80 1.326 . S
C79 C83 1.461 . S
C79 H85 0.929 . S
N80 Mn73 2.257 . S
N80 C79 1.326 . S
N80 C84 1.362 . S
C81 C82 1.258 . S
C81 C84 1.431 1_545 S
C81 C101 1.449 . S
C82 C81 1.258 . S
C82 C83 1.477 1_545 S
C82 H102 0.931 . S
C83 C79 1.461 . S
C83 C82 1.477 1_565 S
C83 H103 0.930 1_565 S
C84 N80 1.362 . S
C84 C81 1.431 1_565 S
C84 C94 1.476 . S
H85 C79 0.929 . S
C86 O77 1.250 . S
C86 O78 1.258 . S
O87 Mn72 2.162 . S
O87 C75 1.281 . S
O88 Mn72 2.297 . S
O88 C75 1.236 . S
N89 Mn73 2.282 . S
N89 C90 1.328 . S
N89 C94 1.318 . S
C90 N89 1.328 . S
C90 C91 1.457 . S
C90 H95 0.929 . S
C91 C90 1.457 . S
C91 C92 1.291 . S
C91 H104 0.931 . S
C92 C91 1.291 . S
C92 C93 1.373 . S
C92 H105 0.929 . S
C93 C92 1.373 . S
C93 C94 1.396 . S
C93 C100 1.403 1_565 S
C94 C84 1.476 . S
C94 N89 1.318 . S
C94 C93 1.396 . S
H95 C90 0.929 . S
O96 Mn72 2.385 . S
O96 C74 1.234 . S
O97 Mn72 2.209 . S
O97 Mn73 2.215 . S
O97 C74 1.283 . S
O98 Mn72 2.094 . S
O98 C76 1.240 . S
O99 Mn73 2.117 . S
O99 C76 1.264 . S
C100 C93 1.403 1_545 S
C100 C101 1.399 . S
C100 H106 0.929 . S
C101 C81 1.449 . S
C101 C100 1.399 . S
C101 H107 0.930 . S
H102 C82 0.931 . S
H103 C83 0.930 1_545 S
H104 C91 0.931 . S
H105 C92 0.929 . S
H106 C100 0.929 . S
H107 C101 0.930 . S
Mn108 O113 2.095 . S
Mn108 O123 2.162 . S
Mn108 O124 2.297 . S
Mn108 O132 2.385 . S
Mn108 O133 2.209 . S
Mn108 O134 2.094 . S
Mn109 O114 2.121 . S
Mn109 N116 2.257 . S
Mn109 N125 2.282 . S
Mn109 O133 2.215 . S
Mn109 O135 2.117 . S
C110 O132 1.234 . S
C110 O133 1.283 . S
C111 O123 1.281 . S
C111 O124 1.236 . S
C112 O134 1.240 . S
C112 O135 1.264 . S
O113 Mn108 2.095 . S
O113 C122 1.250 . S
O114 Mn109 2.121 . S
O114 C122 1.258 . S
C115 N116 1.326 . S
C115 C119 1.460 . S
C115 H121 0.929 . S
N116 Mn109 2.257 . S
N116 C115 1.326 . S
N116 C120 1.362 . S
C117 C118 1.258 . S
C117 C120 1.431 . S
C117 C137 1.449 . S
C118 C117 1.258 . S
C118 C119 1.477 . S
C118 H138 0.931 . S
C119 C115 1.460 . S
C119 C118 1.477 . S
C119 H139 0.930 . S
C120 N116 1.362 . S
C120 C117 1.431 . S
C120 C130 1.476 . S
H121 C115 0.929 . S
C122 O113 1.250 . S
C122 O114 1.258 . S
O123 Mn108 2.162 . S
O123 C111 1.281 . S
O124 Mn108 2.297 . S
O124 C111 1.236 . S
N125 Mn109 2.282 . S
N125 C126 1.328 . S
N125 C130 1.318 . S
C126 N125 1.328 . S
C126 C127 1.457 . S
C126 H131 0.929 . S
C127 C126 1.457 . S
C127 C128 1.291 . S
C127 H140 0.931 . S
C128 C127 1.291 . S
C128 C129 1.373 . S
C128 H141 0.929 . S
C129 C128 1.373 . S
C129 C130 1.396 . S
C129 C136 1.403 . S
C130 C120 1.476 . S
C130 N125 1.318 . S
C130 C129 1.396 . S
H131 C126 0.929 . S
O132 Mn108 2.385 . S
O132 C110 1.234 . S
O133 Mn108 2.209 . S
O133 Mn109 2.215 . S
O133 C110 1.283 . S
O134 Mn108 2.094 . S
O134 C112 1.240 . S
O135 Mn109 2.117 . S
O135 C112 1.264 . S
C136 C129 1.403 . S
C136 C137 1.399 . S
C136 H142 0.929 . S
C137 C117 1.449 . S
C137 C136 1.399 . S
C137 H143 0.930 . S
H138 C118 0.931 . S
H139 C119 0.930 . S
H140 C127 0.931 . S
H141 C128 0.929 . S
H142 C136 0.929 . S
H143 C137 0.930 . S
Mn144 O149 2.095 . S
Mn144 O159 2.162 . S
Mn144 O160 2.297 . S
Mn144 O168 2.385 . S
Mn144 O169 2.209 . S
Mn144 O170 2.094 . S
Mn145 O150 2.121 . S
Mn145 N152 2.257 . S
Mn145 N161 2.282 . S
Mn145 O169 2.215 . S
Mn145 O171 2.117 . S
C146 O168 1.234 . S
C146 O169 1.283 . S
C147 O159 1.281 . S
C147 O160 1.236 . S
C148 O170 1.240 . S
C148 O171 1.264 . S
O149 Mn144 2.095 . S
O149 C158 1.250 . S
O150 Mn145 2.121 . S
O150 C158 1.258 . S
C151 N152 1.326 . S
C151 C155 1.460 . S
C151 H157 0.929 . S
N152 Mn145 2.257 . S
N152 C151 1.326 . S
N152 C156 1.362 . S
C153 C154 1.258 . S
C153 C156 1.431 . S
C153 C173 1.449 . S
C154 C153 1.258 . S
C154 C155 1.477 . S
C154 H174 0.931 . S
C155 C151 1.460 . S
C155 C154 1.477 . S
C155 H175 0.930 . S
C156 N152 1.362 . S
C156 C153 1.431 . S
C156 C166 1.476 . S
H157 C151 0.929 . S
C158 O149 1.250 . S
C158 O150 1.258 . S
O159 Mn144 2.162 . S
O159 C147 1.281 . S
O160 Mn144 2.297 . S
O160 C147 1.236 . S
N161 Mn145 2.282 . S
N161 C162 1.328 . S
N161 C166 1.318 . S
C162 N161 1.328 . S
C162 C163 1.457 . S
C162 H167 0.929 . S
C163 C162 1.457 . S
C163 C164 1.291 . S
C163 H176 0.931 . S
C164 C163 1.291 . S
C164 C165 1.373 . S
C164 H177 0.929 . S
C165 C164 1.373 . S
C165 C166 1.396 . S
C165 C172 1.403 . S
C166 C156 1.476 . S
C166 N161 1.318 . S
C166 C165 1.396 . S
H167 C162 0.929 . S
O168 Mn144 2.385 . S
O168 C146 1.234 . S
O169 Mn144 2.209 . S
O169 Mn145 2.215 . S
O169 C146 1.283 . S
O170 Mn144 2.094 . S
O170 C148 1.240 . S
O171 Mn145 2.117 . S
O171 C148 1.264 . S
C172 C165 1.403 . S
C172 C173 1.399 . S
C172 H178 0.929 . S
C173 C153 1.449 . S
C173 C172 1.399 . S
C173 H179 0.930 . S
H174 C154 0.931 . S
H175 C155 0.930 . S
H176 C163 0.931 . S
H177 C164 0.929 . S
H178 C172 0.929 . S
H179 C173 0.930 . S
Mn180 O185 2.095 . S
Mn180 O195 2.162 . S
Mn180 O196 2.297 . S
Mn180 O204 2.385 . S
Mn180 O205 2.209 . S
Mn180 O206 2.094 . S
Mn181 O186 2.121 . S
Mn181 N188 2.257 . S
Mn181 N197 2.282 . S
Mn181 O205 2.215 . S
Mn181 O207 2.117 . S
C182 O204 1.234 . S
C182 O205 1.283 . S
C183 O195 1.281 . S
C183 O196 1.236 . S
C184 O206 1.240 . S
C184 O207 1.264 . S
O185 Mn180 2.095 . S
O185 C194 1.250 . S
O186 Mn181 2.121 . S
O186 C194 1.258 . S
C187 N188 1.326 . S
C187 C191 1.460 . S
C187 H193 0.929 . S
N188 Mn181 2.257 . S
N188 C187 1.326 . S
N188 C192 1.362 . S
C189 C190 1.258 . S
C189 C192 1.431 . S
C189 C209 1.449 . S
C190 C189 1.258 . S
C190 C191 1.477 . S
C190 H210 0.931 . S
C191 C187 1.460 . S
C191 C190 1.477 . S
C191 H211 0.930 . S
C192 N188 1.362 . S
C192 C189 1.431 . S
C192 C202 1.476 . S
H193 C187 0.929 . S
C194 O185 1.250 . S
C194 O186 1.258 . S
O195 Mn180 2.162 . S
O195 C183 1.281 . S
O196 Mn180 2.297 . S
O196 C183 1.236 . S
N197 Mn181 2.282 . S
N197 C198 1.328 . S
N197 C202 1.318 . S
C198 N197 1.328 . S
C198 C199 1.457 . S
C198 H203 0.929 . S
C199 C198 1.457 . S
C199 C200 1.291 . S
C199 H212 0.931 . S
C200 C199 1.291 . S
C200 C201 1.373 . S
C200 H213 0.929 . S
C201 C200 1.373 . S
C201 C202 1.396 . S
C201 C208 1.403 . S
C202 C192 1.476 . S
C202 N197 1.318 . S
C202 C201 1.396 . S
H203 C198 0.929 . S
O204 Mn180 2.385 . S
O204 C182 1.234 . S
O205 Mn180 2.209 . S
O205 Mn181 2.215 . S
O205 C182 1.283 . S
O206 Mn180 2.094 . S
O206 C184 1.240 . S
O207 Mn181 2.117 . S
O207 C184 1.264 . S
C208 C201 1.403 . S
C208 C209 1.399 . S
C208 H214 0.929 . S
C209 C189 1.449 . S
C209 C208 1.399 . S
C209 H215 0.930 . S
H210 C190 0.931 . S
H211 C191 0.930 . S
H212 C199 0.931 . S
H213 C200 0.929 . S
H214 C208 0.929 . S
H215 C209 0.930 . S
Mn216 O221 2.095 . S
Mn216 O231 2.162 . S
Mn216 O232 2.297 . S
Mn216 O240 2.385 . S
Mn216 O241 2.209 . S
Mn216 O242 2.094 . S
Mn217 O222 2.121 . S
Mn217 N224 2.257 . S
Mn217 N233 2.282 . S
Mn217 O241 2.215 . S
Mn217 O243 2.117 . S
C218 O240 1.234 . S
C218 O241 1.283 . S
C219 O231 1.281 . S
C219 O232 1.236 . S
C220 O242 1.240 . S
C220 O243 1.264 . S
O221 Mn216 2.095 . S
O221 C230 1.250 . S
O222 Mn217 2.121 . S
O222 C230 1.258 . S
C223 N224 1.326 . S
C223 C227 1.460 . S
C223 H229 0.929 . S
N224 Mn217 2.257 . S
N224 C223 1.326 . S
N224 C228 1.362 . S
C225 C226 1.258 . S
C225 C228 1.431 . S
C225 C245 1.449 . S
C226 C225 1.258 . S
C226 C227 1.477 . S
C226 H246 0.931 . S
C227 C223 1.460 . S
C227 C226 1.477 . S
C227 H247 0.930 . S
C228 N224 1.362 . S
C228 C225 1.431 . S
C228 C238 1.476 . S
H229 C223 0.929 . S
C230 O221 1.250 . S
C230 O222 1.258 . S
O231 Mn216 2.162 . S
O231 C219 1.281 . S
O232 Mn216 2.297 . S
O232 C219 1.236 . S
N233 Mn217 2.282 . S
N233 C234 1.328 . S
N233 C238 1.318 . S
C234 N233 1.328 . S
C234 C235 1.457 . S
C234 H239 0.929 . S
C235 C234 1.457 . S
C235 C236 1.291 . S
C235 H248 0.931 . S
C236 C235 1.291 . S
C236 C237 1.373 . S
C236 H249 0.929 . S
C237 C236 1.373 . S
C237 C238 1.396 . S
C237 C244 1.403 . S
C238 C228 1.476 . S
C238 N233 1.318 . S
C238 C237 1.396 . S
H239 C234 0.929 . S
O240 Mn216 2.385 . S
O240 C218 1.234 . S
O241 Mn216 2.209 . S
O241 Mn217 2.215 . S
O241 C218 1.283 . S
O242 Mn216 2.094 . S
O242 C220 1.240 . S
O243 Mn217 2.117 . S
O243 C220 1.264 . S
C244 C237 1.403 . S
C244 C245 1.399 . S
C244 H250 0.929 . S
C245 C225 1.449 . S
C245 C244 1.399 . S
C245 H251 0.930 . S
H246 C226 0.931 . S
H247 C227 0.930 . S
H248 C235 0.931 . S
H249 C236 0.929 . S
H250 C244 0.929 . S
H251 C245 0.930 . S
Mn252 O257 2.095 . S
Mn252 O267 2.162 . S
Mn252 O268 2.297 . S
Mn252 O276 2.385 . S
Mn252 O277 2.209 . S
Mn252 O278 2.094 . S
Mn253 O258 2.121 . S
Mn253 N260 2.257 . S
Mn253 N269 2.282 . S
Mn253 O277 2.215 . S
Mn253 O279 2.117 . S
C254 O276 1.234 . S
C254 O277 1.283 . S
C255 O267 1.281 . S
C255 O268 1.236 . S
C256 O278 1.240 . S
C256 O279 1.264 . S
O257 Mn252 2.095 . S
O257 C266 1.250 . S
O258 Mn253 2.121 . S
O258 C266 1.258 . S
C259 N260 1.326 . S
C259 C263 1.460 . S
C259 H265 0.929 . S
N260 Mn253 2.257 . S
N260 C259 1.326 . S
N260 C264 1.362 . S
C261 C262 1.258 . S
C261 C264 1.431 . S
C261 C281 1.449 . S
C262 C261 1.258 . S
C262 C263 1.477 . S
C262 H282 0.931 . S
C263 C259 1.460 . S
C263 C262 1.477 . S
C263 H283 0.930 . S
C264 N260 1.362 . S
C264 C261 1.431 . S
C264 C274 1.476 . S
H265 C259 0.929 . S
C266 O257 1.250 . S
C266 O258 1.258 . S
O267 Mn252 2.162 . S
O267 C255 1.281 . S
O268 Mn252 2.297 . S
O268 C255 1.236 . S
N269 Mn253 2.282 . S
N269 C270 1.328 . S
N269 C274 1.318 . S
C270 N269 1.328 . S
C270 C271 1.457 . S
C270 H275 0.929 . S
C271 C270 1.457 . S
C271 C272 1.291 . S
C271 H284 0.931 . S
C272 C271 1.291 . S
C272 C273 1.373 . S
C272 H285 0.929 . S
C273 C272 1.373 . S
C273 C274 1.396 . S
C273 C280 1.403 . S
C274 C264 1.476 . S
C274 N269 1.318 . S
C274 C273 1.396 . S
H275 C270 0.929 . S
O276 Mn252 2.385 . S
O276 C254 1.234 . S
O277 Mn252 2.209 . S
O277 Mn253 2.215 . S
O277 C254 1.283 . S
O278 Mn252 2.094 . S
O278 C256 1.240 . S
O279 Mn253 2.117 . S
O279 C256 1.264 . S
C280 C273 1.403 . S
C280 C281 1.399 . S
C280 H286 0.929 . S
C281 C261 1.449 . S
C281 C280 1.399 . S
C281 H287 0.930 . S
H282 C262 0.931 . S
H283 C263 0.930 . S
H284 C271 0.931 . S
H285 C272 0.929 . S
H286 C280 0.929 . S
H287 C281 0.930 . S
Mn288 O293 2.095 . S
Mn288 O303 2.162 . S
Mn288 O304 2.297 . S
Mn288 O312 2.385 . S
Mn288 O313 2.209 . S
Mn288 O314 2.094 . S
Mn289 O294 2.121 . S
Mn289 N296 2.257 . S
Mn289 N305 2.282 . S
Mn289 O313 2.215 . S
Mn289 O315 2.117 . S
C290 O312 1.234 . S
C290 O313 1.283 . S
C291 O303 1.281 . S
C291 O304 1.236 . S
C292 O314 1.240 . S
C292 O315 1.264 . S
O293 Mn288 2.095 . S
O293 C302 1.250 . S
O294 Mn289 2.121 . S
O294 C302 1.258 . S
C295 N296 1.326 . S
C295 C299 1.461 . S
C295 H301 0.929 . S
N296 Mn289 2.257 . S
N296 C295 1.326 . S
N296 C300 1.362 . S
C297 C298 1.258 . S
C297 C300 1.431 1_565 S
C297 C317 1.449 . S
C298 C297 1.258 . S
C298 C299 1.477 1_565 S
C298 H318 0.931 . S
C299 C295 1.461 . S
C299 C298 1.477 1_545 S
C299 H319 0.930 1_545 S
C300 N296 1.362 . S
C300 C297 1.431 1_545 S
C300 C310 1.476 . S
H301 C295 0.929 . S
C302 O293 1.250 . S
C302 O294 1.258 . S
O303 Mn288 2.162 . S
O303 C291 1.281 . S
O304 Mn288 2.297 . S
O304 C291 1.236 . S
N305 Mn289 2.282 . S
N305 C306 1.328 . S
N305 C310 1.318 . S
C306 N305 1.328 . S
C306 C307 1.457 . S
C306 H311 0.929 . S
C307 C306 1.457 . S
C307 C308 1.291 . S
C307 H320 0.931 . S
C308 C307 1.291 . S
C308 C309 1.373 . S
C308 H321 0.929 . S
C309 C308 1.373 . S
C309 C310 1.396 . S
C309 C316 1.403 1_545 S
C310 C300 1.476 . S
C310 N305 1.318 . S
C310 C309 1.396 . S
H311 C306 0.929 . S
O312 Mn288 2.385 . S
O312 C290 1.234 . S
O313 Mn288 2.209 . S
O313 Mn289 2.215 . S
O313 C290 1.283 . S
O314 Mn288 2.094 . S
O314 C292 1.240 . S
O315 Mn289 2.117 . S
O315 C292 1.264 . S
C316 C309 1.403 1_565 S
C316 C317 1.399 . S
C316 H322 0.929 . S
C317 C297 1.449 . S
C317 C316 1.399 . S
C317 H323 0.930 . S
H318 C298 0.931 . S
H319 C299 0.930 1_565 S
H320 C307 0.931 . S
H321 C308 0.929 . S
H322 C316 0.929 . S
H323 C317 0.930 . S
Mn324 O329 2.095 . S
Mn324 O339 2.162 . S
Mn324 O340 2.297 . S
Mn324 O348 2.385 . S
Mn324 O349 2.209 . S
Mn324 O350 2.094 . S
Mn325 O330 2.121 . S
Mn325 N332 2.257 . S
Mn325 N341 2.282 . S
Mn325 O349 2.215 . S
Mn325 O351 2.117 . S
C326 O348 1.234 . S
C326 O349 1.283 . S
C327 O339 1.281 . S
C327 O340 1.236 . S
C328 O350 1.240 . S
C328 O351 1.264 . S
O329 Mn324 2.095 . S
O329 C338 1.250 . S
O330 Mn325 2.121 . S
O330 C338 1.258 . S
C331 N332 1.326 . S
C331 C335 1.460 . S
C331 H337 0.929 . S
N332 Mn325 2.257 . S
N332 C331 1.326 . S
N332 C336 1.362 . S
C333 C334 1.258 . S
C333 C336 1.431 . S
C333 C353 1.449 . S
C334 C333 1.258 . S
C334 C335 1.477 . S
C334 H354 0.931 . S
C335 C331 1.460 . S
C335 C334 1.477 . S
C335 H355 0.930 . S
C336 N332 1.362 . S
C336 C333 1.431 . S
C336 C346 1.476 . S
H337 C331 0.929 . S
C338 O329 1.250 . S
C338 O330 1.258 . S
O339 Mn324 2.162 . S
O339 C327 1.281 . S
O340 Mn324 2.297 . S
O340 C327 1.236 . S
N341 Mn325 2.282 . S
N341 C342 1.328 . S
N341 C346 1.318 . S
C342 N341 1.328 . S
C342 C343 1.457 . S
C342 H347 0.929 . S
C343 C342 1.457 . S
C343 C344 1.291 . S
C343 H356 0.931 . S
C344 C343 1.291 . S
C344 C345 1.373 . S
C344 H357 0.929 . S
C345 C344 1.373 . S
C345 C346 1.396 . S
C345 C352 1.403 . S
C346 C336 1.476 . S
C346 N341 1.318 . S
C346 C345 1.396 . S
H347 C342 0.929 . S
O348 Mn324 2.385 . S
O348 C326 1.234 . S
O349 Mn324 2.209 . S
O349 Mn325 2.215 . S
O349 C326 1.283 . S
O350 Mn324 2.094 . S
O350 C328 1.240 . S
O351 Mn325 2.117 . S
O351 C328 1.264 . S
C352 C345 1.403 . S
C352 C353 1.399 . S
C352 H358 0.929 . S
C353 C333 1.449 . S
C353 C352 1.399 . S
C353 H359 0.930 . S
H354 C334 0.931 . S
H355 C335 0.930 . S
H356 C343 0.931 . S
H357 C344 0.929 . S
H358 C352 0.929 . S
H359 C353 0.930 . S
Mn360 O365 2.095 . S
Mn360 O375 2.162 . S
Mn360 O376 2.297 . S
Mn360 O384 2.385 . S
Mn360 O385 2.209 . S
Mn360 O386 2.094 . S
Mn361 O366 2.121 . S
Mn361 N368 2.257 . S
Mn361 N377 2.282 . S
Mn361 O385 2.215 . S
Mn361 O387 2.117 . S
C362 O384 1.234 . S
C362 O385 1.283 . S
C363 O375 1.281 . S
C363 O376 1.236 . S
C364 O386 1.240 . S
C364 O387 1.264 . S
O365 Mn360 2.095 . S
O365 C374 1.250 . S
O366 Mn361 2.121 . S
O366 C374 1.258 . S
C367 N368 1.326 . S
C367 C371 1.461 . S
C367 H373 0.929 . S
N368 Mn361 2.257 . S
N368 C367 1.326 . S
N368 C372 1.362 . S
C369 C370 1.258 . S
C369 C372 1.431 1_545 S
C369 C389 1.449 . S
C370 C369 1.258 . S
C370 C371 1.477 1_545 S
C370 H390 0.931 . S
C371 C367 1.461 . S
C371 C370 1.477 1_565 S
C371 H391 0.930 1_565 S
C372 N368 1.362 . S
C372 C369 1.431 1_565 S
C372 C382 1.476 . S
H373 C367 0.929 . S
C374 O365 1.250 . S
C374 O366 1.258 . S
O375 Mn360 2.162 . S
O375 C363 1.281 . S
O376 Mn360 2.297 . S
O376 C363 1.236 . S
N377 Mn361 2.282 . S
N377 C378 1.328 . S
N377 C382 1.318 . S
C378 N377 1.328 . S
C378 C379 1.457 . S
C378 H383 0.929 . S
C379 C378 1.457 . S
C379 C380 1.291 . S
C379 H392 0.931 . S
C380 C379 1.291 . S
C380 C381 1.373 . S
C380 H393 0.929 . S
C381 C380 1.373 . S
C381 C382 1.396 . S
C381 C388 1.403 1_565 S
C382 C372 1.476 . S
C382 N377 1.318 . S
C382 C381 1.396 . S
H383 C378 0.929 . S
O384 Mn360 2.385 . S
O384 C362 1.234 . S
O385 Mn360 2.209 . S
O385 Mn361 2.215 . S
O385 C362 1.283 . S
O386 Mn360 2.094 . S
O386 C364 1.240 . S
O387 Mn361 2.117 . S
O387 C364 1.264 . S
C388 C381 1.403 1_545 S
C388 C389 1.399 . S
C388 H394 0.929 . S
C389 C369 1.449 . S
C389 C388 1.399 . S
C389 H395 0.930 . S
H390 C370 0.931 . S
H391 C371 0.930 1_545 S
H392 C379 0.931 . S
H393 C380 0.929 . S
H394 C388 0.929 . S
H395 C389 0.930 . S
Mn396 O401 2.095 . S
Mn396 O411 2.162 . S
Mn396 O412 2.297 . S
Mn396 O420 2.385 . S
Mn396 O421 2.209 . S
Mn396 O422 2.094 . S
Mn397 O402 2.121 . S
Mn397 N404 2.257 . S
Mn397 N413 2.282 . S
Mn397 O421 2.215 . S
Mn397 O423 2.117 . S
C398 O420 1.234 . S
C398 O421 1.283 . S
C399 O411 1.281 . S
C399 O412 1.236 . S
C400 O422 1.240 . S
C400 O423 1.264 . S
O401 Mn396 2.095 . S
O401 C410 1.250 . S
O402 Mn397 2.121 . S
O402 C410 1.258 . S
C403 N404 1.326 . S
C403 C407 1.460 . S
C403 H409 0.929 . S
N404 Mn397 2.257 . S
N404 C403 1.326 . S
N404 C408 1.362 . S
C405 C406 1.258 . S
C405 C408 1.431 . S
C405 C425 1.449 . S
C406 C405 1.258 . S
C406 C407 1.477 . S
C406 H426 0.931 . S
C407 C403 1.460 . S
C407 C406 1.477 . S
C407 H427 0.930 . S
C408 N404 1.362 . S
C408 C405 1.431 . S
C408 C418 1.476 . S
H409 C403 0.929 . S
C410 O401 1.250 . S
C410 O402 1.258 . S
O411 Mn396 2.162 . S
O411 C399 1.281 . S
O412 Mn396 2.297 . S
O412 C399 1.236 . S
N413 Mn397 2.282 . S
N413 C414 1.328 . S
N413 C418 1.318 . S
C414 N413 1.328 . S
C414 C415 1.457 . S
C414 H419 0.929 . S
C415 C414 1.457 . S
C415 C416 1.291 . S
C415 H428 0.931 . S
C416 C415 1.291 . S
C416 C417 1.373 . S
C416 H429 0.929 . S
C417 C416 1.373 . S
C417 C418 1.396 . S
C417 C424 1.403 . S
C418 C408 1.476 . S
C418 N413 1.318 . S
C418 C417 1.396 . S
H419 C414 0.929 . S
O420 Mn396 2.385 . S
O420 C398 1.234 . S
O421 Mn396 2.209 . S
O421 Mn397 2.215 . S
O421 C398 1.283 . S
O422 Mn396 2.094 . S
O422 C400 1.240 . S
O423 Mn397 2.117 . S
O423 C400 1.264 . S
C424 C417 1.403 . S
C424 C425 1.399 . S
C424 H430 0.929 . S
C425 C405 1.449 . S
C425 C424 1.399 . S
C425 H431 0.930 . S
H426 C406 0.931 . S
H427 C407 0.930 . S
H428 C415 0.931 . S
H429 C416 0.929 . S
H430 C424 0.929 . S
H431 C425 0.930 . S
Mn432 O437 2.095 . S
Mn432 O447 2.162 . S
Mn432 O448 2.297 . S
Mn432 O456 2.385 . S
Mn432 O457 2.209 . S
Mn432 O458 2.094 . S
Mn433 O438 2.121 . S
Mn433 N440 2.257 . S
Mn433 N449 2.282 . S
Mn433 O457 2.215 . S
Mn433 O459 2.117 . S
C434 O456 1.234 . S
C434 O457 1.283 . S
C435 O447 1.281 . S
C435 O448 1.236 . S
C436 O458 1.240 . S
C436 O459 1.264 . S
O437 Mn432 2.095 . S
O437 C446 1.250 . S
O438 Mn433 2.121 . S
O438 C446 1.258 . S
C439 N440 1.326 . S
C439 C443 1.460 . S
C439 H445 0.929 . S
N440 Mn433 2.257 . S
N440 C439 1.326 . S
N440 C444 1.362 . S
C441 C442 1.258 . S
C441 C444 1.431 . S
C441 C461 1.449 . S
C442 C441 1.258 . S
C442 C443 1.477 . S
C442 H462 0.931 . S
C443 C439 1.460 . S
C443 C442 1.477 . S
C443 H463 0.930 . S
C444 N440 1.362 . S
C444 C441 1.431 . S
C444 C454 1.476 . S
H445 C439 0.929 . S
C446 O437 1.250 . S
C446 O438 1.258 . S
O447 Mn432 2.162 . S
O447 C435 1.281 . S
O448 Mn432 2.297 . S
O448 C435 1.236 . S
N449 Mn433 2.282 . S
N449 C450 1.328 . S
N449 C454 1.318 . S
C450 N449 1.328 . S
C450 C451 1.457 . S
C450 H455 0.929 . S
C451 C450 1.457 . S
C451 C452 1.291 . S
C451 H464 0.931 . S
C452 C451 1.291 . S
C452 C453 1.373 . S
C452 H465 0.929 . S
C453 C452 1.373 . S
C453 C454 1.396 . S
C453 C460 1.403 . S
C454 C444 1.476 . S
C454 N449 1.318 . S
C454 C453 1.396 . S
H455 C450 0.929 . S
O456 Mn432 2.385 . S
O456 C434 1.234 . S
O457 Mn432 2.209 . S
O457 Mn433 2.215 . S
O457 C434 1.283 . S
O458 Mn432 2.094 . S
O458 C436 1.240 . S
O459 Mn433 2.117 . S
O459 C436 1.264 . S
C460 C453 1.403 . S
C460 C461 1.399 . S
C460 H466 0.929 . S
C461 C441 1.449 . S
C461 C460 1.399 . S
C461 H467 0.930 . S
H462 C442 0.931 . S
H463 C443 0.930 . S
H464 C451 0.931 . S
H465 C452 0.929 . S
H466 C460 0.929 . S
H467 C461 0.930 . S
Mn468 O473 2.095 . S
Mn468 O483 2.162 . S
Mn468 O484 2.297 . S
Mn468 O492 2.385 . S
Mn468 O493 2.209 . S
Mn468 O494 2.094 . S
Mn469 O474 2.121 . S
Mn469 N476 2.257 . S
Mn469 N485 2.282 . S
Mn469 O493 2.215 . S
Mn469 O495 2.117 . S
C470 O492 1.234 . S
C470 O493 1.283 . S
C471 O483 1.281 . S
C471 O484 1.236 . S
C472 O494 1.240 . S
C472 O495 1.264 . S
O473 Mn468 2.095 . S
O473 C482 1.250 . S
O474 Mn469 2.121 . S
O474 C482 1.258 . S
C475 N476 1.326 . S
C475 C479 1.460 . S
C475 H481 0.929 . S
N476 Mn469 2.257 . S
N476 C475 1.326 . S
N476 C480 1.362 . S
C477 C478 1.258 . S
C477 C480 1.431 . S
C477 C497 1.449 . S
C478 C477 1.258 . S
C478 C479 1.477 . S
C478 H498 0.931 . S
C479 C475 1.460 . S
C479 C478 1.477 . S
C479 H499 0.930 . S
C480 N476 1.362 . S
C480 C477 1.431 . S
C480 C490 1.476 . S
H481 C475 0.929 . S
C482 O473 1.250 . S
C482 O474 1.258 . S
O483 Mn468 2.162 . S
O483 C471 1.281 . S
O484 Mn468 2.297 . S
O484 C471 1.236 . S
N485 Mn469 2.282 . S
N485 C486 1.328 . S
N485 C490 1.318 . S
C486 N485 1.328 . S
C486 C487 1.457 . S
C486 H491 0.929 . S
C487 C486 1.457 . S
C487 C488 1.291 . S
C487 H500 0.931 . S
C488 C487 1.291 . S
C488 C489 1.373 . S
C488 H501 0.929 . S
C489 C488 1.373 . S
C489 C490 1.396 . S
C489 C496 1.403 . S
C490 C480 1.476 . S
C490 N485 1.318 . S
C490 C489 1.396 . S
H491 C486 0.929 . S
O492 Mn468 2.385 . S
O492 C470 1.234 . S
O493 Mn468 2.209 . S
O493 Mn469 2.215 . S
O493 C470 1.283 . S
O494 Mn468 2.094 . S
O494 C472 1.240 . S
O495 Mn469 2.117 . S
O495 C472 1.264 . S
C496 C489 1.403 . S
C496 C497 1.399 . S
C496 H502 0.929 . S
C497 C477 1.449 . S
C497 C496 1.399 . S
C497 H503 0.930 . S
H498 C478 0.931 . S
H499 C479 0.930 . S
H500 C487 0.931 . S
H501 C488 0.929 . S
H502 C496 0.929 . S
H503 C497 0.930 . S
Mn504 O509 2.095 . S
Mn504 O519 2.162 . S
Mn504 O520 2.297 . S
Mn504 O528 2.385 . S
Mn504 O529 2.209 . S
Mn504 O530 2.094 . S
Mn505 O510 2.121 . S
Mn505 N512 2.257 . S
Mn505 N521 2.282 . S
Mn505 O529 2.215 . S
Mn505 O531 2.117 . S
C506 O528 1.234 . S
C506 O529 1.283 . S
C507 O519 1.281 . S
C507 O520 1.236 . S
C508 O530 1.240 . S
C508 O531 1.264 . S
O509 Mn504 2.095 . S
O509 C518 1.250 . S
O510 Mn505 2.121 . S
O510 C518 1.258 . S
C511 N512 1.326 . S
C511 C515 1.460 . S
C511 H517 0.929 . S
N512 Mn505 2.257 . S
N512 C511 1.326 . S
N512 C516 1.362 . S
C513 C514 1.258 . S
C513 C516 1.431 . S
C513 C533 1.449 . S
C514 C513 1.258 . S
C514 C515 1.477 . S
C514 H534 0.931 . S
C515 C511 1.460 . S
C515 C514 1.477 . S
C515 H535 0.930 . S
C516 N512 1.362 . S
C516 C513 1.431 . S
C516 C526 1.476 . S
H517 C511 0.929 . S
C518 O509 1.250 . S
C518 O510 1.258 . S
O519 Mn504 2.162 . S
O519 C507 1.281 . S
O520 Mn504 2.297 . S
O520 C507 1.236 . S
N521 Mn505 2.282 . S
N521 C522 1.328 . S
N521 C526 1.318 . S
C522 N521 1.328 . S
C522 C523 1.457 . S
C522 H527 0.929 . S
C523 C522 1.457 . S
C523 C524 1.291 . S
C523 H536 0.931 . S
C524 C523 1.291 . S
C524 C525 1.373 . S
C524 H537 0.929 . S
C525 C524 1.373 . S
C525 C526 1.396 . S
C525 C532 1.403 . S
C526 C516 1.476 . S
C526 N521 1.318 . S
C526 C525 1.396 . S
H527 C522 0.929 . S
O528 Mn504 2.385 . S
O528 C506 1.234 . S
O529 Mn504 2.209 . S
O529 Mn505 2.215 . S
O529 C506 1.283 . S
O530 Mn504 2.094 . S
O530 C508 1.240 . S
O531 Mn505 2.117 . S
O531 C508 1.264 . S
C532 C525 1.403 . S
C532 C533 1.399 . S
C532 H538 0.929 . S
C533 C513 1.449 . S
C533 C532 1.399 . S
C533 H539 0.930 . S
H534 C514 0.931 . S
H535 C515 0.930 . S
H536 C523 0.931 . S
H537 C524 0.929 . S
H538 C532 0.929 . S
H539 C533 0.930 . S
Mn540 O545 2.095 . S
Mn540 O555 2.162 . S
Mn540 O556 2.297 . S
Mn540 O564 2.385 . S
Mn540 O565 2.209 . S
Mn540 O566 2.094 . S
Mn541 O546 2.121 . S
Mn541 N548 2.257 . S
Mn541 N557 2.282 . S
Mn541 O565 2.215 . S
Mn541 O567 2.117 . S
C542 O564 1.234 . S
C542 O565 1.283 . S
C543 O555 1.281 . S
C543 O556 1.236 . S
C544 O566 1.240 . S
C544 O567 1.264 . S
O545 Mn540 2.095 . S
O545 C554 1.250 . S
O546 Mn541 2.121 . S
O546 C554 1.258 . S
C547 N548 1.326 . S
C547 C551 1.460 . S
C547 H553 0.929 . S
N548 Mn541 2.257 . S
N548 C547 1.326 . S
N548 C552 1.362 . S
C549 C550 1.258 . S
C549 C552 1.431 . S
C549 C569 1.449 . S
C550 C549 1.258 . S
C550 C551 1.477 . S
C550 H570 0.931 . S
C551 C547 1.460 . S
C551 C550 1.477 . S
C551 H571 0.930 . S
C552 N548 1.362 . S
C552 C549 1.431 . S
C552 C562 1.476 . S
H553 C547 0.929 . S
C554 O545 1.250 . S
C554 O546 1.258 . S
O555 Mn540 2.162 . S
O555 C543 1.281 . S
O556 Mn540 2.297 . S
O556 C543 1.236 . S
N557 Mn541 2.282 . S
N557 C558 1.328 . S
N557 C562 1.318 . S
C558 N557 1.328 . S
C558 C559 1.457 . S
C558 H563 0.929 . S
C559 C558 1.457 . S
C559 C560 1.291 . S
C559 H572 0.931 . S
C560 C559 1.291 . S
C560 C561 1.373 . S
C560 H573 0.929 . S
C561 C560 1.373 . S
C561 C562 1.396 . S
C561 C568 1.403 . S
C562 C552 1.476 . S
C562 N557 1.318 . S
C562 C561 1.396 . S
H563 C558 0.929 . S
O564 Mn540 2.385 . S
O564 C542 1.234 . S
O565 Mn540 2.209 . S
O565 Mn541 2.215 . S
O565 C542 1.283 . S
O566 Mn540 2.094 . S
O566 C544 1.240 . S
O567 Mn541 2.117 . S
O567 C544 1.264 . S
C568 C561 1.403 . S
C568 C569 1.399 . S
C568 H574 0.929 . S
C569 C549 1.449 . S
C569 C568 1.399 . S
C569 H575 0.930 . S
H570 C550 0.931 . S
H571 C551 0.930 . S
H572 C559 0.931 . S
H573 C560 0.929 . S
H574 C568 0.929 . S
H575 C569 0.930 . S
C576 C577 1.391 . S
C576 C578 1.394 . S
C576 H592 0.931 . S
C577 C576 1.391 . S
C577 C581 1.376 . S
C578 C576 1.394 . S
C578 C579 1.369 . S
C578 C582 1.531 . S
C579 C578 1.369 . S
C579 C580 1.410 . S
C579 C587 1.503 . S
C580 C579 1.410 . S
C580 C581 1.392 . S
C580 C583 1.511 . S
C581 C577 1.376 . S
C581 C580 1.392 . S
C581 H593 0.929 . S
C582 C578 1.531 . S
C582 H594 0.960 . S
C582 H595 0.962 . S
C582 H596 0.960 . S
C583 C580 1.511 . S
C583 H597 0.961 . S
C583 H598 0.961 . S
C583 H599 0.961 . S
C584 C585 1.370 . S
C584 C586 1.363 . S
C584 H600 0.931 . S
C585 C584 1.370 . S
C585 C589 1.408 . S
C586 C584 1.363 . S
C586 C587 1.370 . S
C586 C590 1.524 . S
C587 C579 1.503 . S
C587 C586 1.370 . S
C587 C588 1.403 . S
C588 C587 1.403 . S
C588 C589 1.404 . S
C588 C591 1.539 . S
C589 C585 1.408 . S
C589 C588 1.404 . S
C589 H601 0.930 . S
C590 C586 1.524 . S
C590 H602 0.956 . S
C590 H603 0.961 . S
C590 H604 0.961 . S
C591 C588 1.539 . S
C591 H605 0.958 . S
C591 H606 0.961 . S
C591 H607 0.960 . S
H592 C576 0.931 . S
H593 C581 0.929 . S
H594 C582 0.960 . S
H595 C582 0.962 . S
H596 C582 0.960 . S
H597 C583 0.961 . S
H598 C583 0.961 . S
H599 C583 0.961 . S
H600 C584 0.931 . S
H601 C589 0.930 . S
H602 C590 0.956 . S
H603 C590 0.961 . S
H604 C590 0.961 . S
H605 C591 0.958 . S
H606 C591 0.961 . S
H607 C591 0.960 . S
C608 C609 1.391 . S
C608 C610 1.394 . S
C608 H624 0.931 . S
C609 C608 1.391 . S
C609 C613 1.376 . S
C610 C608 1.394 . S
C610 C611 1.369 . S
C610 C614 1.531 . S
C611 C610 1.369 . S
C611 C612 1.410 1_565 S
C611 C619 1.503 1_665 S
C612 C611 1.410 1_545 S
C612 C613 1.392 1_545 S
C612 C615 1.515 . S
C613 C609 1.376 . S
C613 C612 1.392 1_565 S
C613 H625 0.925 1_565 S
C614 C610 1.531 . S
C614 H626 0.960 . S
C614 H627 0.962 . S
C614 H628 0.960 . S
C615 C612 1.515 . S
C615 H629 0.959 1_655 S
C615 H630 0.954 1_655 S
C615 H631 0.964 . S
C616 C617 1.370 . S
C616 C618 1.363 1_545 S
C616 H632 0.932 . S
C617 C616 1.370 . S
C617 C621 1.408 . S
C618 C616 1.363 1_565 S
C618 C619 1.370 1_565 S
C618 C622 1.524 . S
C619 C611 1.503 1_445 S
C619 C618 1.370 1_545 S
C619 C620 1.407 . S
C620 C619 1.407 . S
C620 C621 1.419 . S
C620 C623 1.520 1_455 S
C621 C617 1.408 . S
C621 C620 1.419 . S
C621 H633 0.930 . S
C622 C618 1.524 . S
C622 H634 0.956 . S
C622 H635 0.961 . S
C622 H636 0.961 . S
C623 C620 1.520 1_655 S
C623 H637 0.958 . S
C623 H638 0.961 . S
C623 H639 0.960 . S
H624 C608 0.931 . S
H625 C613 0.925 1_545 S
H626 C614 0.960 . S
H627 C614 0.962 . S
H628 C614 0.960 . S
H629 C615 0.959 1_455 S
H630 C615 0.954 1_455 S
H631 C615 0.964 . S
H632 C616 0.932 . S
H633 C621 0.930 . S
H634 C622 0.956 . S
H635 C622 0.961 . S
H636 C622 0.961 . S
H637 C623 0.958 . S
H638 C623 0.961 . S
H639 C623 0.960 . S
C640 C641 1.391 . S
C640 C642 1.394 . S
C640 H656 0.931 . S
C641 C640 1.391 . S
C641 C645 1.376 . S
C642 C640 1.394 . S
C642 C643 1.369 . S
C642 C646 1.531 . S
C643 C642 1.369 . S
C643 C644 1.410 1_565 S
C643 C651 1.503 1_565 S
C644 C643 1.410 1_545 S
C644 C645 1.392 1_545 S
C644 C647 1.511 . S
C645 C641 1.376 . S
C645 C644 1.392 1_565 S
C645 H657 0.929 1_565 S
C646 C642 1.531 . S
C646 H658 0.960 . S
C646 H659 0.962 . S
C646 H660 0.960 . S
C647 C644 1.511 . S
C647 H661 0.961 . S
C647 H662 0.961 . S
C647 H663 0.961 . S
C648 C649 1.370 . S
C648 C650 1.363 . S
C648 H664 0.931 . S
C649 C648 1.370 . S
C649 C653 1.408 . S
C650 C648 1.363 . S
C650 C651 1.370 . S
C650 C654 1.524 . S
C651 C643 1.503 1_545 S
C651 C650 1.370 . S
C651 C652 1.403 . S
C652 C651 1.403 . S
C652 C653 1.404 . S
C652 C655 1.539 1_545 S
C653 C649 1.408 . S
C653 C652 1.404 . S
C653 H665 0.930 . S
C654 C650 1.524 . S
C654 H666 0.956 1_545 S
C654 H667 0.961 . S
C654 H668 0.961 . S
C655 C652 1.539 1_565 S
C655 H669 0.958 . S
C655 H670 0.961 1_565 S
C655 H671 0.960 . S
H656 C640 0.931 . S
H657 C645 0.929 1_545 S
H658 C646 0.960 . S
H659 C646 0.962 . S
H660 C646 0.960 . S
H661 C647 0.961 . S
H662 C647 0.961 . S
H663 C647 0.961 . S
H664 C648 0.931 . S
H665 C653 0.930 . S
H666 C654 0.956 1_565 S
H667 C654 0.961 . S
H668 C654 0.961 . S
H669 C655 0.958 . S
H670 C655 0.961 1_545 S
H671 C655 0.960 . S
C672 C673 1.391 . S
C672 C674 1.394 . S
C672 H688 0.931 . S
C673 C672 1.391 . S
C673 C677 1.376 . S
C674 C672 1.394 . S
C674 C675 1.369 . S
C674 C678 1.531 . S
C675 C674 1.369 . S
C675 C676 1.410 . S
C675 C683 1.503 1_455 S
C676 C675 1.410 . S
C676 C677 1.392 . S
C676 C679 1.511 1_455 S
C677 C673 1.376 . S
C677 C676 1.392 . S
C677 H689 0.929 . S
C678 C674 1.531 . S
C678 H690 0.960 . S
C678 H691 0.962 . S
C678 H692 0.960 . S
C679 C676 1.511 1_655 S
C679 H693 0.961 . S
C679 H694 0.961 . S
C679 H695 0.961 . S
C680 C681 1.370 . S
C680 C682 1.363 . S
C680 H696 0.931 . S
C681 C680 1.370 . S
C681 C685 1.408 . S
C682 C680 1.363 . S
C682 C683 1.370 . S
C682 C686 1.524 . S
C683 C675 1.503 1_655 S
C683 C682 1.370 . S
C683 C684 1.403 . S
C684 C683 1.403 . S
C684 C685 1.404 . S
C684 C687 1.539 1_655 S
C685 C681 1.408 . S
C685 C684 1.404 . S
C685 H697 0.930 . S
C686 C682 1.524 . S
C686 H698 0.956 . S
C686 H699 0.961 . S
C686 H700 0.961 . S
C687 C684 1.539 1_455 S
C687 H701 0.958 . S
C687 H702 0.961 . S
C687 H703 0.960 . S
H688 C672 0.931 . S
H689 C677 0.929 . S
H690 C678 0.960 . S
H691 C678 0.962 . S
H692 C678 0.960 . S
H693 C679 0.961 . S
H694 C679 0.961 . S
H695 C679 0.961 . S
H696 C680 0.931 . S
H697 C685 0.930 . S
H698 C686 0.956 . S
H699 C686 0.961 . S
H700 C686 0.961 . S
H701 C687 0.958 . S
H702 C687 0.961 . S
H703 C687 0.960 . S
C704 C705 1.391 . S
C704 C706 1.394 . S
C704 H720 0.931 . S
C705 C704 1.391 . S
C705 C709 1.376 . S
C706 C704 1.394 . S
C706 C707 1.369 . S
C706 C710 1.531 . S
C707 C706 1.369 . S
C707 C708 1.410 . S
C707 C715 1.503 . S
C708 C707 1.410 . S
C708 C709 1.392 . S
C708 C711 1.511 . S
C709 C705 1.376 . S
C709 C708 1.392 . S
C709 H721 0.929 . S
C710 C706 1.531 . S
C710 H722 0.960 . S
C710 H723 0.962 . S
C710 H724 0.960 . S
C711 C708 1.511 . S
C711 H725 0.961 . S
C711 H726 0.961 . S
C711 H727 0.961 . S
C712 C713 1.370 . S
C712 C714 1.363 . S
C712 H728 0.931 . S
C713 C712 1.370 . S
C713 C717 1.408 . S
C714 C712 1.363 . S
C714 C715 1.370 . S
C714 C718 1.524 . S
C715 C707 1.503 . S
C715 C714 1.370 . S
C715 C716 1.403 . S
C716 C715 1.403 . S
C716 C717 1.404 . S
C716 C719 1.539 . S
C717 C713 1.408 . S
C717 C716 1.404 . S
C717 H729 0.930 . S
C718 C714 1.524 . S
C718 H730 0.956 . S
C718 H731 0.961 . S
C718 H732 0.961 . S
C719 C716 1.539 . S
C719 H733 0.958 . S
C719 H734 0.961 . S
C719 H735 0.960 . S
H720 C704 0.931 . S
H721 C709 0.929 . S
H722 C710 0.960 . S
H723 C710 0.962 . S
H724 C710 0.960 . S
H725 C711 0.961 . S
H726 C711 0.961 . S
H727 C711 0.961 . S
H728 C712 0.931 . S
H729 C717 0.930 . S
H730 C718 0.956 . S
H731 C718 0.961 . S
H732 C718 0.961 . S
H733 C719 0.958 . S
H734 C719 0.961 . S
H735 C719 0.960 . S
C736 C737 1.391 . S
C736 C738 1.394 . S
C736 H752 0.931 . S
C737 C736 1.391 . S
C737 C741 1.376 . S
C738 C736 1.394 . S
C738 C739 1.369 . S
C738 C742 1.531 . S
C739 C738 1.369 . S
C739 C740 1.410 . S
C739 C747 1.503 1_545 S
C740 C739 1.410 . S
C740 C741 1.392 . S
C740 C743 1.511 . S
C741 C737 1.376 . S
C741 C740 1.392 . S
C741 H753 0.929 . S
C742 C738 1.531 . S
C742 H754 0.960 . S
C742 H755 0.962 1_545 S
C742 H756 0.960 . S
C743 C740 1.511 . S
C743 H757 0.961 . S
C743 H758 0.961 1_545 S
C743 H759 0.961 . S
C744 C745 1.370 . S
C744 C746 1.363 . S
C744 H760 0.931 . S
C745 C744 1.370 . S
C745 C749 1.408 1_565 S
C746 C744 1.363 . S
C746 C747 1.370 . S
C746 C750 1.524 . S
C747 C739 1.503 1_565 S
C747 C746 1.370 . S
C747 C748 1.403 1_565 S
C748 C747 1.403 1_545 S
C748 C749 1.404 . S
C748 C751 1.539 . S
C749 C745 1.408 1_545 S
C749 C748 1.404 . S
C749 H761 0.930 . S
C750 C746 1.524 . S
C750 H762 0.956 . S
C750 H763 0.961 . S
C750 H764 0.961 . S
C751 C748 1.539 . S
C751 H765 0.958 . S
C751 H766 0.961 . S
C751 H767 0.960 . S
H752 C736 0.931 . S
H753 C741 0.929 . S
H754 C742 0.960 . S
H755 C742 0.962 1_565 S
H756 C742 0.960 . S
H757 C743 0.961 . S
H758 C743 0.961 1_565 S
H759 C743 0.961 . S
H760 C744 0.931 . S
H761 C749 0.930 . S
H762 C750 0.956 . S
H763 C750 0.961 . S
H764 C750 0.961 . S
H765 C751 0.958 . S
H766 C751 0.961 . S
H767 C751 0.960 . S
C768 C769 1.391 . S
C768 C770 1.394 . S
C768 H784 0.931 . S
C769 C768 1.391 . S
C769 C773 1.376 . S
C770 C768 1.394 . S
C770 C771 1.369 . S
C770 C774 1.549 . S
C771 C770 1.369 . S
C771 C772 1.410 . S
C771 C779 1.503 1_655 S
C772 C771 1.410 . S
C772 C773 1.392 . S
C772 C775 1.511 . S
C773 C769 1.376 . S
C773 C772 1.392 . S
C773 H785 0.929 . S
C774 C770 1.549 . S
C774 H786 0.955 1_655 S
C774 H787 0.932 1_655 S
C774 H788 0.979 . S
C775 C772 1.511 . S
C775 H789 0.961 . S
C775 H790 0.961 . S
C775 H791 0.961 . S
C776 C777 1.370 . S
C776 C778 1.363 . S
C776 H792 0.931 . S
C777 C776 1.370 . S
C777 C781 1.408 . S
C778 C776 1.363 . S
C778 C779 1.370 . S
C778 C782 1.524 . S
C779 C771 1.503 1_455 S
C779 C778 1.370 . S
C779 C780 1.408 . S
C780 C779 1.408 . S
C780 C781 1.419 . S
C780 C783 1.519 1_455 S
C781 C777 1.408 . S
C781 C780 1.419 . S
C781 H793 0.930 . S
C782 C778 1.524 . S
C782 H794 0.956 . S
C782 H795 0.961 . S
C782 H796 0.961 . S
C783 C780 1.519 1_655 S
C783 H797 0.958 . S
C783 H798 0.961 . S
C783 H799 0.960 . S
H784 C768 0.931 . S
H785 C773 0.929 . S
H786 C774 0.955 1_455 S
H787 C774 0.932 1_455 S
H788 C774 0.979 . S
H789 C775 0.961 . S
H790 C775 0.961 . S
H791 C775 0.961 . S
H792 C776 0.931 . S
H793 C781 0.930 . S
H794 C782 0.956 . S
H795 C782 0.961 . S
H796 C782 0.961 . S
H797 C783 0.958 . S
H798 C783 0.961 . S
H799 C783 0.960 . S
C800 C801 1.391 . S
C800 C802 1.394 . S
C800 H816 0.931 . S
C801 C800 1.391 . S
C801 C805 1.376 . S
C802 C800 1.394 . S
C802 C803 1.369 . S
C802 C806 1.531 . S
C803 C802 1.369 . S
C803 C804 1.410 . S
C803 C811 1.503 1_554 S
C804 C803 1.410 . S
C804 C805 1.392 . S
C804 C807 1.511 1_554 S
C805 C801 1.376 . S
C805 C804 1.392 . S
C805 H817 0.929 . S
C806 C802 1.531 . S
C806 H818 0.960 . S
C806 H819 0.962 . S
C806 H820 0.960 . S
C807 C804 1.511 1_556 S
C807 H821 0.961 . S
C807 H822 0.961 . S
C807 H823 0.961 . S
C808 C809 1.370 . S
C808 C810 1.363 . S
C808 H824 0.931 . S
C809 C808 1.370 . S
C809 C813 1.408 . S
C810 C808 1.363 . S
C810 C811 1.370 . S
C810 C814 1.524 1_556 S
C811 C803 1.503 1_556 S
C811 C810 1.370 . S
C811 C812 1.403 . S
C812 C811 1.403 . S
C812 C813 1.404 . S
C812 C815 1.539 . S
C813 C809 1.408 . S
C813 C812 1.404 . S
C813 H825 0.930 . S
C814 C810 1.524 1_554 S
C814 H826 0.956 . S
C814 H827 0.961 . S
C814 H828 0.961 . S
C815 C812 1.539 . S
C815 H829 0.958 . S
C815 H830 0.961 . S
C815 H831 0.960 . S
H816 C800 0.931 . S
H817 C805 0.929 . S
H818 C806 0.960 . S
H819 C806 0.962 . S
H820 C806 0.960 . S
H821 C807 0.961 . S
H822 C807 0.961 . S
H823 C807 0.961 . S
H824 C808 0.931 . S
H825 C813 0.930 . S
H826 C814 0.956 . S
H827 C814 0.961 . S
H828 C814 0.961 . S
H829 C815 0.958 . S
H830 C815 0.961 . S
H831 C815 0.960 . S
C832 C833 1.391 . S
C832 C834 1.394 . S
C832 H848 0.931 . S
C833 C832 1.391 . S
C833 C837 1.376 . S
C834 C832 1.394 . S
C834 C835 1.369 . S
C834 C838 1.531 1_455 S
C835 C834 1.369 . S
C835 C836 1.410 1_556 S
C835 C843 1.503 1_456 S
C836 C835 1.410 1_554 S
C836 C837 1.392 1_554 S
C836 C839 1.511 . S
C837 C833 1.376 . S
C837 C836 1.392 1_556 S
C837 H849 0.929 . S
C838 C834 1.531 1_655 S
C838 H850 0.960 . S
C838 H851 0.962 . S
C838 H852 0.960 1_655 S
C839 C836 1.511 . S
C839 H853 0.961 . S
C839 H854 0.961 . S
C839 H855 0.961 . S
C840 C841 1.370 . S
C840 C842 1.363 . S
C840 H856 0.931 . S
C841 C840 1.370 . S
C841 C845 1.408 . S
C842 C840 1.363 . S
C842 C843 1.370 . S
C842 C846 1.524 1_554 S
C843 C835 1.503 1_654 S
C843 C842 1.370 . S
C843 C844 1.403 . S
C844 C843 1.403 . S
C844 C845 1.404 . S
C844 C847 1.539 1_655 S
C845 C841 1.408 . S
C845 C844 1.404 . S
C845 H857 0.930 . S
C846 C842 1.524 1_556 S
C846 H858 0.956 . S
C846 H859 0.961 1_556 S
C846 H860 0.961 1_556 S
C847 C844 1.539 1_455 S
C847 H861 0.958 . S
C847 H862 0.961 . S
C847 H863 0.960 . S
H848 C832 0.931 . S
H849 C837 0.929 . S
H850 C838 0.960 . S
H851 C838 0.962 . S
H852 C838 0.960 1_455 S
H853 C839 0.961 . S
H854 C839 0.961 . S
H855 C839 0.961 . S
H856 C840 0.931 . S
H857 C845 0.930 . S
H858 C846 0.956 . S
H859 C846 0.961 1_554 S
H860 C846 0.961 1_554 S
H861 C847 0.958 . S
H862 C847 0.961 . S
H863 C847 0.960 . S
C864 C865 1.391 . S
C864 C866 1.394 . S
C864 H880 0.931 . S
C865 C864 1.391 . S
C865 C869 1.376 . S
C866 C864 1.394 . S
C866 C867 1.369 . S
C866 C870 1.531 . S
C867 C866 1.369 . S
C867 C868 1.410 . S
C867 C875 1.503 . S
C868 C867 1.410 . S
C868 C869 1.392 . S
C868 C871 1.511 . S
C869 C865 1.376 . S
C869 C868 1.392 . S
C869 H881 0.929 . S
C870 C866 1.531 . S
C870 H882 0.960 . S
C870 H883 0.962 . S
C870 H884 0.960 . S
C871 C868 1.511 . S
C871 H885 0.961 . S
C871 H886 0.961 . S
C871 H887 0.961 . S
C872 C873 1.370 . S
C872 C874 1.363 . S
C872 H888 0.931 . S
C873 C872 1.370 . S
C873 C877 1.408 . S
C874 C872 1.363 . S
C874 C875 1.370 . S
C874 C878 1.524 . S
C875 C867 1.503 . S
C875 C874 1.370 . S
C875 C876 1.403 . S
C876 C875 1.403 . S
C876 C877 1.404 . S
C876 C879 1.539 . S
C877 C873 1.408 . S
C877 C876 1.404 . S
C877 H889 0.930 . S
C878 C874 1.524 . S
C878 H890 0.956 . S
C878 H891 0.961 . S
C878 H892 0.961 . S
C879 C876 1.539 . S
C879 H893 0.958 . S
C879 H894 0.961 . S
C879 H895 0.960 . S
H880 C864 0.931 . S
H881 C869 0.929 . S
H882 C870 0.960 . S
H883 C870 0.962 . S
H884 C870 0.960 . S
H885 C871 0.961 . S
H886 C871 0.961 . S
H887 C871 0.961 . S
H888 C872 0.931 . S
H889 C877 0.930 . S
H890 C878 0.956 . S
H891 C878 0.961 . S
H892 C878 0.961 . S
H893 C879 0.958 . S
H894 C879 0.961 . S
H895 C879 0.960 . S
C896 C897 1.391 . S
C896 C898 1.394 . S
C896 H912 0.931 . S
C897 C896 1.391 . S
C897 C901 1.376 . S
C898 C896 1.394 . S
C898 C899 1.369 . S
C898 C902 1.531 1_556 S
C899 C898 1.369 . S
C899 C900 1.410 . S
C899 C907 1.503 1_556 S
C900 C899 1.410 . S
C900 C901 1.392 . S
C900 C903 1.511 . S
C901 C897 1.376 . S
C901 C900 1.392 . S
C901 H913 0.929 . S
C902 C898 1.531 1_554 S
C902 H914 0.960 . S
C902 H915 0.962 . S
C902 H916 0.960 . S
C903 C900 1.511 . S
C903 H917 0.961 . S
C903 H918 0.961 . S
C903 H919 0.961 . S
C904 C905 1.370 . S
C904 C906 1.363 . S
C904 H920 0.931 . S
C905 C904 1.370 . S
C905 C909 1.408 . S
C906 C904 1.363 . S
C906 C907 1.370 . S
C906 C910 1.524 . S
C907 C899 1.503 1_554 S
C907 C906 1.370 . S
C907 C908 1.403 . S
C908 C907 1.403 . S
C908 C909 1.404 . S
C908 C911 1.539 1_554 S
C909 C905 1.408 . S
C909 C908 1.404 . S
C909 H921 0.930 . S
C910 C906 1.524 . S
C910 H922 0.956 . S
C910 H923 0.941 1_554 S
C910 H924 0.961 . S
C911 C908 1.539 1_556 S
C911 H925 0.958 1_556 S
C911 H926 0.961 . S
C911 H927 0.960 . S
H912 C896 0.931 . S
H913 C901 0.929 . S
H914 C902 0.960 . S
H915 C902 0.962 . S
H916 C902 0.960 . S
H917 C903 0.961 . S
H918 C903 0.961 . S
H919 C903 0.961 . S
H920 C904 0.931 . S
H921 C909 0.930 . S
H922 C910 0.956 . S
H923 C910 0.941 1_556 S
H924 C910 0.961 . S
H925 C911 0.958 1_554 S
H926 C911 0.961 . S
H927 C911 0.960 . S
C928 C929 1.391 . S
C928 C930 1.394 . S
C928 H944 0.931 . S
C929 C928 1.391 . S
C929 C933 1.376 . S
C930 C928 1.394 . S
C930 C931 1.369 . S
C930 C934 1.531 . S
C931 C930 1.369 . S
C931 C932 1.410 . S
C931 C939 1.503 . S
C932 C931 1.410 . S
C932 C933 1.392 . S
C932 C935 1.511 . S
C933 C929 1.376 . S
C933 C932 1.392 . S
C933 H945 0.929 . S
C934 C930 1.531 . S
C934 H946 0.960 . S
C934 H947 0.962 . S
C934 H948 0.960 . S
C935 C932 1.511 . S
C935 H949 0.961 . S
C935 H950 0.961 . S
C935 H951 0.961 . S
C936 C937 1.370 . S
C936 C938 1.363 . S
C936 H952 0.931 . S
C937 C936 1.370 . S
C937 C941 1.408 . S
C938 C936 1.363 . S
C938 C939 1.370 . S
C938 C942 1.524 . S
C939 C931 1.503 . S
C939 C938 1.370 . S
C939 C940 1.403 . S
C940 C939 1.403 . S
C940 C941 1.404 . S
C940 C943 1.539 . S
C941 C937 1.408 . S
C941 C940 1.404 . S
C941 H953 0.930 . S
C942 C938 1.524 . S
C942 H954 0.956 . S
C942 H955 0.961 . S
C942 H956 0.961 . S
C943 C940 1.539 . S
C943 H957 0.958 . S
C943 H958 0.961 . S
C943 H959 0.960 . S
H944 C928 0.931 . S
H945 C933 0.929 . S
H946 C934 0.960 . S
H947 C934 0.962 . S
H948 C934 0.960 . S
H949 C935 0.961 . S
H950 C935 0.961 . S
H951 C935 0.961 . S
H952 C936 0.931 . S
H953 C941 0.930 . S
H954 C942 0.956 . S
H955 C942 0.961 . S
H956 C942 0.961 . S
H957 C943 0.958 . S
H958 C943 0.961 . S
H959 C943 0.960 . S
C960 C961 1.391 . S
C960 C962 1.394 . S
C960 H976 0.931 . S
C961 C960 1.391 . S
C961 C965 1.376 . S
C962 C960 1.394 . S
C962 C963 1.369 . S
C962 C966 1.531 1_556 S
C963 C962 1.369 . S
C963 C964 1.410 1_545 S
C963 C971 1.503 1_546 S
C964 C963 1.410 1_565 S
C964 C965 1.392 1_565 S
C964 C967 1.511 . S
C965 C961 1.376 . S
C965 C964 1.392 1_545 S
C965 H977 0.929 1_545 S
C966 C962 1.531 1_554 S
C966 H978 0.960 . S
C966 H979 0.962 . S
C966 H980 0.960 1_554 S
C967 C964 1.511 . S
C967 H981 0.961 . S
C967 H982 0.961 . S
C967 H983 0.961 . S
C968 C969 1.370 . S
C968 C970 1.363 . S
C968 H984 0.931 . S
C969 C968 1.370 . S
C969 C973 1.408 . S
C970 C968 1.363 . S
C970 C971 1.370 . S
C970 C974 1.524 . S
C971 C963 1.503 1_564 S
C971 C970 1.370 . S
C971 C972 1.403 1_554 S
C972 C971 1.403 1_556 S
C972 C973 1.404 1_556 S
C972 C975 1.539 . S
C973 C969 1.408 . S
C973 C972 1.404 1_554 S
C973 H985 0.930 . S
C974 C970 1.524 . S
C974 H986 0.956 1_565 S
C974 H987 0.961 . S
C974 H988 0.961 . S
C975 C972 1.539 . S
C975 H989 0.958 1_565 S
C975 H990 0.961 . S
C975 H991 0.960 . S
H976 C960 0.931 . S
H977 C965 0.929 1_565 S
H978 C966 0.960 . S
H979 C966 0.962 . S
H980 C966 0.960 1_556 S
H981 C967 0.961 . S
H982 C967 0.961 . S
H983 C967 0.961 . S
H984 C968 0.931 . S
H985 C973 0.930 . S
H986 C974 0.956 1_545 S
H987 C974 0.961 . S
H988 C974 0.961 . S
H989 C975 0.958 1_545 S
H990 C975 0.961 . S
H991 C975 0.960 . S
C992 C993 1.391 . S
C992 C994 1.394 . S
C992 H1008 0.931 . S
C993 C992 1.391 . S
C993 C997 1.376 . S
C994 C992 1.394 . S
C994 C995 1.369 . S
C994 C998 1.531 . S
C995 C994 1.369 . S
C995 C996 1.410 . S
C995 C1003 1.503 . S
C996 C995 1.410 . S
C996 C997 1.392 . S
C996 C999 1.511 . S
C997 C993 1.376 . S
C997 C996 1.392 . S
C997 H1009 0.929 . S
C998 C994 1.531 . S
C998 H1010 0.960 . S
C998 H1011 0.962 . S
C998 H1012 0.960 . S
C999 C996 1.511 . S
C999 H1013 0.961 . S
C999 H1014 0.961 . S
C999 H1015 0.961 . S
C1000 C1001 1.370 . S
C1000 C1002 1.363 . S
C1000 H1016 0.931 . S
C1001 C1000 1.370 . S
C1001 C1005 1.408 . S
C1002 C1000 1.363 . S
C1002 C1003 1.370 . S
C1002 C1006 1.524 . S
C1003 C995 1.503 . S
C1003 C1002 1.370 . S
C1003 C1004 1.403 . S
C1004 C1003 1.403 . S
C1004 C1005 1.404 . S
C1004 C1007 1.539 . S
C1005 C1001 1.408 . S
C1005 C1004 1.404 . S
C1005 H1017 0.930 . S
C1006 C1002 1.524 . S
C1006 H1018 0.956 . S
C1006 H1019 0.961 . S
C1006 H1020 0.961 . S
C1007 C1004 1.539 . S
C1007 H1021 0.958 . S
C1007 H1022 0.961 . S
C1007 H1023 0.960 . S
H1008 C992 0.931 . S
H1009 C997 0.929 . S
H1010 C998 0.960 . S
H1011 C998 0.962 . S
H1012 C998 0.960 . S
H1013 C999 0.961 . S
H1014 C999 0.961 . S
H1015 C999 0.961 . S
H1016 C1000 0.931 . S
H1017 C1005 0.930 . S
H1018 C1006 0.956 . S
H1019 C1006 0.961 . S
H1020 C1006 0.961 . S
H1021 C1007 0.958 . S
H1022 C1007 0.961 . S
H1023 C1007 0.960 . S
C1024 C1025 1.391 . S
C1024 C1026 1.394 . S
C1024 H1040 0.931 . S
C1025 C1024 1.391 . S
C1025 C1029 1.376 . S
C1026 C1024 1.394 . S
C1026 C1027 1.369 . S
C1026 C1030 1.531 . S
C1027 C1026 1.369 . S
C1027 C1028 1.410 . S
C1027 C1035 1.503 . S
C1028 C1027 1.410 . S
C1028 C1029 1.392 . S
C1028 C1031 1.511 . S
C1029 C1025 1.376 . S
C1029 C1028 1.392 . S
C1029 H1041 0.929 . S
C1030 C1026 1.531 . S
C1030 H1042 0.960 . S
C1030 H1043 0.962 . S
C1030 H1044 0.960 . S
C1031 C1028 1.511 . S
C1031 H1045 0.961 . S
C1031 H1046 0.961 . S
C1031 H1047 0.961 . S
C1032 C1033 1.370 . S
C1032 C1034 1.363 . S
C1032 H1048 0.931 . S
C1033 C1032 1.370 . S
C1033 C1037 1.408 . S
C1034 C1032 1.363 . S
C1034 C1035 1.370 . S
C1034 C1038 1.524 . S
C1035 C1027 1.503 . S
C1035 C1034 1.370 . S
C1035 C1036 1.403 . S
C1036 C1035 1.403 . S
C1036 C1037 1.404 . S
C1036 C1039 1.539 . S
C1037 C1033 1.408 . S
C1037 C1036 1.404 . S
C1037 H1049 0.930 . S
C1038 C1034 1.524 . S
C1038 H1050 0.956 . S
C1038 H1051 0.961 . S
C1038 H1052 0.961 . S
C1039 C1036 1.539 . S
C1039 H1053 0.958 . S
C1039 H1054 0.961 . S
C1039 H1055 0.960 . S
H1040 C1024 0.931 . S
H1041 C1029 0.929 . S
H1042 C1030 0.960 . S
H1043 C1030 0.962 . S
H1044 C1030 0.960 . S
H1045 C1031 0.961 . S
H1046 C1031 0.961 . S
H1047 C1031 0.961 . S
H1048 C1032 0.931 . S
H1049 C1037 0.930 . S
H1050 C1038 0.956 . S
H1051 C1038 0.961 . S
H1052 C1038 0.961 . S
H1053 C1039 0.958 . S
H1054 C1039 0.961 . S
H1055 C1039 0.960 . S
C1056 C1057 1.391 . S
C1056 C1058 1.394 . S
C1056 H1072 0.931 . S
C1057 C1056 1.391 . S
C1057 C1061 1.376 . S
C1058 C1056 1.394 . S
C1058 C1059 1.369 . S
C1058 C1062 1.531 . S
C1059 C1058 1.369 . S
C1059 C1060 1.410 . S
C1059 C1067 1.503 . S
C1060 C1059 1.410 . S
C1060 C1061 1.392 . S
C1060 C1063 1.511 . S
C1061 C1057 1.376 . S
C1061 C1060 1.392 . S
C1061 H1073 0.929 . S
C1062 C1058 1.531 . S
C1062 H1074 0.960 . S
C1062 H1075 0.962 . S
C1062 H1076 0.960 . S
C1063 C1060 1.511 . S
C1063 H1077 0.961 . S
C1063 H1078 0.961 . S
C1063 H1079 0.961 . S
C1064 C1065 1.370 . S
C1064 C1066 1.363 . S
C1064 H1080 0.931 . S
C1065 C1064 1.370 . S
C1065 C1069 1.408 . S
C1066 C1064 1.363 . S
C1066 C1067 1.370 . S
C1066 C1070 1.524 . S
C1067 C1059 1.503 . S
C1067 C1066 1.370 . S
C1067 C1068 1.403 . S
C1068 C1067 1.403 . S
C1068 C1069 1.404 . S
C1068 C1071 1.539 . S
C1069 C1065 1.408 . S
C1069 C1068 1.404 . S
C1069 H1081 0.930 . S
C1070 C1066 1.524 . S
C1070 H1082 0.956 . S
C1070 H1083 0.961 . S
C1070 H1084 0.961 . S
C1071 C1068 1.539 . S
C1071 H1085 0.958 . S
C1071 H1086 0.961 . S
C1071 H1087 0.960 . S
H1072 C1056 0.931 . S
H1073 C1061 0.929 . S
H1074 C1062 0.960 . S
H1075 C1062 0.962 . S
H1076 C1062 0.960 . S
H1077 C1063 0.961 . S
H1078 C1063 0.961 . S
H1079 C1063 0.961 . S
H1080 C1064 0.931 . S
H1081 C1069 0.930 . S
H1082 C1070 0.956 . S
H1083 C1070 0.961 . S
H1084 C1070 0.961 . S
H1085 C1071 0.958 . S
H1086 C1071 0.961 . S
H1087 C1071 0.960 . S
C1088 C1089 1.391 . S
C1088 C1090 1.394 . S
C1088 H1104 0.931 . S
C1089 C1088 1.391 . S
C1089 C1093 1.376 . S
C1090 C1088 1.394 . S
C1090 C1091 1.369 . S
C1090 C1094 1.531 . S
C1091 C1090 1.369 . S
C1091 C1092 1.410 . S
C1091 C1099 1.503 . S
C1092 C1091 1.410 . S
C1092 C1093 1.392 . S
C1092 C1095 1.511 . S
C1093 C1089 1.376 . S
C1093 C1092 1.392 . S
C1093 H1105 0.929 . S
C1094 C1090 1.531 . S
C1094 H1106 0.960 . S
C1094 H1107 0.962 . S
C1094 H1108 0.960 . S
C1095 C1092 1.511 . S
C1095 H1109 0.961 . S
C1095 H1110 0.961 . S
C1095 H1111 0.961 . S
C1096 C1097 1.370 . S
C1096 C1098 1.363 . S
C1096 H1112 0.931 . S
C1097 C1096 1.370 . S
C1097 C1101 1.408 1_565 S
C1098 C1096 1.363 . S
C1098 C1099 1.370 . S
C1098 C1102 1.524 . S
C1099 C1091 1.503 . S
C1099 C1098 1.370 . S
C1099 C1100 1.403 . S
C1100 C1099 1.403 . S
C1100 C1101 1.404 1_565 S
C1100 C1103 1.539 . S
C1101 C1097 1.408 1_545 S
C1101 C1100 1.404 1_545 S
C1101 H1113 0.930 . S
C1102 C1098 1.524 . S
C1102 H1114 0.956 . S
C1102 H1115 0.961 . S
C1102 H1116 0.961 . S
C1103 C1100 1.539 . S
C1103 H1117 0.958 . S
C1103 H1118 0.961 . S
C1103 H1119 0.960 . S
H1104 C1088 0.931 . S
H1105 C1093 0.929 . S
H1106 C1094 0.960 . S
H1107 C1094 0.962 . S
H1108 C1094 0.960 . S
H1109 C1095 0.961 . S
H1110 C1095 0.961 . S
H1111 C1095 0.961 . S
H1112 C1096 0.931 . S
H1113 C1101 0.930 . S
H1114 C1102 0.956 . S
H1115 C1102 0.961 . S
H1116 C1102 0.961 . S
H1117 C1103 0.958 . S
H1118 C1103 0.961 . S
H1119 C1103 0.960 . S
C1120 C1121 1.391 . S
C1120 C1122 1.394 . S
C1120 H1136 0.931 . S
C1121 C1120 1.391 . S
C1121 C1125 1.376 . S
C1122 C1120 1.394 . S
C1122 C1123 1.369 . S
C1122 C1126 1.531 . S
C1123 C1122 1.369 . S
C1123 C1124 1.410 . S
C1123 C1131 1.503 . S
C1124 C1123 1.410 . S
C1124 C1125 1.392 . S
C1124 C1127 1.511 . S
C1125 C1121 1.376 . S
C1125 C1124 1.392 . S
C1125 H1137 0.929 . S
C1126 C1122 1.531 . S
C1126 H1138 0.960 . S
C1126 H1139 0.962 . S
C1126 H1140 0.960 . S
C1127 C1124 1.511 . S
C1127 H1141 0.961 . S
C1127 H1142 0.961 . S
C1127 H1143 0.961 . S
C1128 C1129 1.370 . S
C1128 C1130 1.363 . S
C1128 H1144 0.931 . S
C1129 C1128 1.370 . S
C1129 C1133 1.408 . S
C1130 C1128 1.363 . S
C1130 C1131 1.370 . S
C1130 C1134 1.524 . S
C1131 C1123 1.503 . S
C1131 C1130 1.370 . S
C1131 C1132 1.403 . S
C1132 C1131 1.403 . S
C1132 C1133 1.404 . S
C1132 C1135 1.539 . S
C1133 C1129 1.408 . S
C1133 C1132 1.404 . S
C1133 H1145 0.930 . S
C1134 C1130 1.524 . S
C1134 H1146 0.956 . S
C1134 H1147 0.961 . S
C1134 H1148 0.961 . S
C1135 C1132 1.539 . S
C1135 H1149 0.958 . S
C1135 H1150 0.961 . S
C1135 H1151 0.960 . S
H1136 C1120 0.931 . S
H1137 C1125 0.929 . S
H1138 C1126 0.960 . S
H1139 C1126 0.962 . S
H1140 C1126 0.960 . S
H1141 C1127 0.961 . S
H1142 C1127 0.961 . S
H1143 C1127 0.961 . S
H1144 C1128 0.931 . S
H1145 C1133 0.930 . S
H1146 C1134 0.956 . S
H1147 C1134 0.961 . S
H1148 C1134 0.961 . S
H1149 C1135 0.958 . S
H1150 C1135 0.961 . S
H1151 C1135 0.960 . S
C1152 C1153 1.391 . S
C1152 C1154 1.394 . S
C1152 H1168 0.931 . S
C1153 C1152 1.391 . S
C1153 C1157 1.376 . S
C1154 C1152 1.394 . S
C1154 C1155 1.369 . S
C1154 C1158 1.531 . S
C1155 C1154 1.369 . S
C1155 C1156 1.410 . S
C1155 C1163 1.503 . S
C1156 C1155 1.410 . S
C1156 C1157 1.392 . S
C1156 C1159 1.511 . S
C1157 C1153 1.376 . S
C1157 C1156 1.392 . S
C1157 H1169 0.929 . S
C1158 C1154 1.531 . S
C1158 H1170 0.960 . S
C1158 H1171 0.962 . S
C1158 H1172 0.960 . S
C1159 C1156 1.511 . S
C1159 H1173 0.961 . S
C1159 H1174 0.961 . S
C1159 H1175 0.961 . S
C1160 C1161 1.370 . S
C1160 C1162 1.363 . S
C1160 H1176 0.931 . S
C1161 C1160 1.370 . S
C1161 C1165 1.408 . S
C1162 C1160 1.363 . S
C1162 C1163 1.370 . S
C1162 C1166 1.524 . S
C1163 C1155 1.503 . S
C1163 C1162 1.370 . S
C1163 C1164 1.403 . S
C1164 C1163 1.403 . S
C1164 C1165 1.404 . S
C1164 C1167 1.539 . S
C1165 C1161 1.408 . S
C1165 C1164 1.404 . S
C1165 H1177 0.930 . S
C1166 C1162 1.524 . S
C1166 H1178 0.956 . S
C1166 H1179 0.961 . S
C1166 H1180 0.961 . S
C1167 C1164 1.539 . S
C1167 H1181 0.958 . S
C1167 H1182 0.961 . S
C1167 H1183 0.960 . S
H1168 C1152 0.931 . S
H1169 C1157 0.929 . S
H1170 C1158 0.960 . S
H1171 C1158 0.962 . S
H1172 C1158 0.960 . S
H1173 C1159 0.961 . S
H1174 C1159 0.961 . S
H1175 C1159 0.961 . S
H1176 C1160 0.931 . S
H1177 C1165 0.930 . S
H1178 C1166 0.956 . S
H1179 C1166 0.961 . S
H1180 C1166 0.961 . S
H1181 C1167 0.958 . S
H1182 C1167 0.961 . S
H1183 C1167 0.960 . S
C1184 C1185 1.391 . S
C1184 C1186 1.394 . S
C1184 H1200 0.931 . S
C1185 C1184 1.391 . S
C1185 C1189 1.376 . S
C1186 C1184 1.394 . S
C1186 C1187 1.369 . S
C1186 C1190 1.531 . S
C1187 C1186 1.369 . S
C1187 C1188 1.410 . S
C1187 C1195 1.503 . S
C1188 C1187 1.410 . S
C1188 C1189 1.392 . S
C1188 C1191 1.511 . S
C1189 C1185 1.376 . S
C1189 C1188 1.392 . S
C1189 H1201 0.929 . S
C1190 C1186 1.531 . S
C1190 H1202 0.960 . S
C1190 H1203 0.962 . S
C1190 H1204 0.960 . S
C1191 C1188 1.511 . S
C1191 H1205 0.961 . S
C1191 H1206 0.961 . S
C1191 H1207 0.961 . S
C1192 C1193 1.370 . S
C1192 C1194 1.363 . S
C1192 H1208 0.931 1_565 S
C1193 C1192 1.370 . S
C1193 C1197 1.408 . S
C1194 C1192 1.363 . S
C1194 C1195 1.370 . S
C1194 C1198 1.524 . S
C1195 C1187 1.503 . S
C1195 C1194 1.370 . S
C1195 C1196 1.403 . S
C1196 C1195 1.403 . S
C1196 C1197 1.404 . S
C1196 C1199 1.539 . S
C1197 C1193 1.408 . S
C1197 C1196 1.404 . S
C1197 H1209 0.930 . S
C1198 C1194 1.524 . S
C1198 H1210 0.956 . S
C1198 H1211 0.961 . S
C1198 H1212 0.961 . S
C1199 C1196 1.539 . S
C1199 H1213 0.958 . S
C1199 H1214 0.961 . S
C1199 H1215 0.960 . S
H1200 C1184 0.931 . S
H1201 C1189 0.929 . S
H1202 C1190 0.960 . S
H1203 C1190 0.962 . S
H1204 C1190 0.960 . S
H1205 C1191 0.961 . S
H1206 C1191 0.961 . S
H1207 C1191 0.961 . S
H1208 C1192 0.931 1_545 S
H1209 C1197 0.930 . S
H1210 C1198 0.956 . S
H1211 C1198 0.961 . S
H1212 C1198 0.961 . S
H1213 C1199 0.958 . S
H1214 C1199 0.961 . S
H1215 C1199 0.960 . S
C1216 C1217 1.391 . S
C1216 C1218 1.394 . S
C1216 H1232 0.931 . S
C1217 C1216 1.391 . S
C1217 C1221 1.376 . S
C1218 C1216 1.394 . S
C1218 C1219 1.369 . S
C1218 C1222 1.531 . S
C1219 C1218 1.369 . S
C1219 C1220 1.410 . S
C1219 C1227 1.503 . S
C1220 C1219 1.410 . S
C1220 C1221 1.392 . S
C1220 C1223 1.511 . S
C1221 C1217 1.376 . S
C1221 C1220 1.392 . S
C1221 H1233 0.929 . S
C1222 C1218 1.531 . S
C1222 H1234 0.960 . S
C1222 H1235 0.962 . S
C1222 H1236 0.960 . S
C1223 C1220 1.511 . S
C1223 H1237 0.961 . S
C1223 H1238 0.961 . S
C1223 H1239 0.961 . S
C1224 C1225 1.370 . S
C1224 C1226 1.363 . S
C1224 H1240 0.931 1_545 S
C1225 C1224 1.370 . S
C1225 C1229 1.408 . S
C1226 C1224 1.363 . S
C1226 C1227 1.370 . S
C1226 C1230 1.524 . S
C1227 C1219 1.503 . S
C1227 C1226 1.370 . S
C1227 C1228 1.403 . S
C1228 C1227 1.403 . S
C1228 C1229 1.404 . S
C1228 C1231 1.539 . S
C1229 C1225 1.408 . S
C1229 C1228 1.404 . S
C1229 H1241 0.930 . S
C1230 C1226 1.524 . S
C1230 H1242 0.956 . S
C1230 H1243 0.961 . S
C1230 H1244 0.961 . S
C1231 C1228 1.539 . S
C1231 H1245 0.958 . S
C1231 H1246 0.961 . S
C1231 H1247 0.960 . S
H1232 C1216 0.931 . S
H1233 C1221 0.929 . S
H1234 C1222 0.960 . S
H1235 C1222 0.962 . S
H1236 C1222 0.960 . S
H1237 C1223 0.961 . S
H1238 C1223 0.961 . S
H1239 C1223 0.961 . S
H1240 C1224 0.931 1_565 S
H1241 C1229 0.930 . S
H1242 C1230 0.956 . S
H1243 C1230 0.961 . S
H1244 C1230 0.961 . S
H1245 C1231 0.958 . S
H1246 C1231 0.961 . S
H1247 C1231 0.960 . S
C1248 C1249 1.391 . S
C1248 C1250 1.394 . S
C1248 H1264 0.931 . S
C1249 C1248 1.391 . S
C1249 C1253 1.376 . S
C1250 C1248 1.394 . S
C1250 C1251 1.369 . S
C1250 C1254 1.531 . S
C1251 C1250 1.369 . S
C1251 C1252 1.410 . S
C1251 C1259 1.503 . S
C1252 C1251 1.410 . S
C1252 C1253 1.392 . S
C1252 C1255 1.511 . S
C1253 C1249 1.376 . S
C1253 C1252 1.392 . S
C1253 H1265 0.929 . S
C1254 C1250 1.531 . S
C1254 H1266 0.960 . S
C1254 H1267 0.962 . S
C1254 H1268 0.960 . S
C1255 C1252 1.511 . S
C1255 H1269 0.961 . S
C1255 H1270 0.961 . S
C1255 H1271 0.961 . S
C1256 C1257 1.370 . S
C1256 C1258 1.363 . S
C1256 H1272 0.931 . S
C1257 C1256 1.370 . S
C1257 C1261 1.408 . S
C1258 C1256 1.363 . S
C1258 C1259 1.370 . S
C1258 C1262 1.524 . S
C1259 C1251 1.503 . S
C1259 C1258 1.370 . S
C1259 C1260 1.403 . S
C1260 C1259 1.403 . S
C1260 C1261 1.404 . S
C1260 C1263 1.539 . S
C1261 C1257 1.408 . S
C1261 C1260 1.404 . S
C1261 H1273 0.930 . S
C1262 C1258 1.524 . S
C1262 H1274 0.956 . S
C1262 H1275 0.961 . S
C1262 H1276 0.961 . S
C1263 C1260 1.539 . S
C1263 H1277 0.958 . S
C1263 H1278 0.961 . S
C1263 H1279 0.960 . S
H1264 C1248 0.931 . S
H1265 C1253 0.929 . S
H1266 C1254 0.960 . S
H1267 C1254 0.962 . S
H1268 C1254 0.960 . S
H1269 C1255 0.961 . S
H1270 C1255 0.961 . S
H1271 C1255 0.961 . S
H1272 C1256 0.931 . S
H1273 C1261 0.930 . S
H1274 C1262 0.956 . S
H1275 C1262 0.961 . S
H1276 C1262 0.961 . S
H1277 C1263 0.958 . S
H1278 C1263 0.961 . S
H1279 C1263 0.960 . S
C1280 C1281 1.391 . S
C1280 C1282 1.394 . S
C1280 H1296 0.931 . S
C1281 C1280 1.391 . S
C1281 C1285 1.376 . S
C1282 C1280 1.394 . S
C1282 C1283 1.369 . S
C1282 C1286 1.531 . S
C1283 C1282 1.369 . S
C1283 C1284 1.410 . S
C1283 C1291 1.503 . S
C1284 C1283 1.410 . S
C1284 C1285 1.392 . S
C1284 C1287 1.511 . S
C1285 C1281 1.376 . S
C1285 C1284 1.392 . S
C1285 H1297 0.929 . S
C1286 C1282 1.531 . S
C1286 H1298 0.960 . S
C1286 H1299 0.962 . S
C1286 H1300 0.960 . S
C1287 C1284 1.511 . S
C1287 H1301 0.961 . S
C1287 H1302 0.961 . S
C1287 H1303 0.961 . S
C1288 C1289 1.370 . S
C1288 C1290 1.363 . S
C1288 H1304 0.931 . S
C1289 C1288 1.370 . S
C1289 C1293 1.408 . S
C1290 C1288 1.363 . S
C1290 C1291 1.370 . S
C1290 C1294 1.524 . S
C1291 C1283 1.503 . S
C1291 C1290 1.370 . S
C1291 C1292 1.403 . S
C1292 C1291 1.403 . S
C1292 C1293 1.404 . S
C1292 C1295 1.539 . S
C1293 C1289 1.408 . S
C1293 C1292 1.404 . S
C1293 H1305 0.930 . S
C1294 C1290 1.524 . S
C1294 H1306 0.956 . S
C1294 H1307 0.961 . S
C1294 H1308 0.961 . S
C1295 C1292 1.539 . S
C1295 H1309 0.958 . S
C1295 H1310 0.961 . S
C1295 H1311 0.960 . S
H1296 C1280 0.931 . S
H1297 C1285 0.929 . S
H1298 C1286 0.960 . S
H1299 C1286 0.962 . S
H1300 C1286 0.960 . S
H1301 C1287 0.961 . S
H1302 C1287 0.961 . S
H1303 C1287 0.961 . S
H1304 C1288 0.931 . S
H1305 C1293 0.930 . S
H1306 C1294 0.956 . S
H1307 C1294 0.961 . S
H1308 C1294 0.961 . S
H1309 C1295 0.958 . S
H1310 C1295 0.961 . S
H1311 C1295 0.960 . S
C1312 C1313 1.391 . S
C1312 C1314 1.394 . S
C1312 H1328 0.931 . S
C1313 C1312 1.391 . S
C1313 C1317 1.376 . S
C1314 C1312 1.394 . S
C1314 C1315 1.369 . S
C1314 C1318 1.531 . S
C1315 C1314 1.369 . S
C1315 C1316 1.410 . S
C1315 C1323 1.503 . S
C1316 C1315 1.410 . S
C1316 C1317 1.392 . S
C1316 C1319 1.511 . S
C1317 C1313 1.376 . S
C1317 C1316 1.392 . S
C1317 H1329 0.929 . S
C1318 C1314 1.531 . S
C1318 H1330 0.960 . S
C1318 H1331 0.962 . S
C1318 H1332 0.960 . S
C1319 C1316 1.511 . S
C1319 H1333 0.961 . S
C1319 H1334 0.961 . S
C1319 H1335 0.961 . S
C1320 C1321 1.370 . S
C1320 C1322 1.363 . S
C1320 H1336 0.931 . S
C1321 C1320 1.370 . S
C1321 C1325 1.408 . S
C1322 C1320 1.363 . S
C1322 C1323 1.370 . S
C1322 C1326 1.524 . S
C1323 C1315 1.503 . S
C1323 C1322 1.370 . S
C1323 C1324 1.403 . S
C1324 C1323 1.403 . S
C1324 C1325 1.404 . S
C1324 C1327 1.539 . S
C1325 C1321 1.408 . S
C1325 C1324 1.404 . S
C1325 H1337 0.930 . S
C1326 C1322 1.524 . S
C1326 H1338 0.956 . S
C1326 H1339 0.961 . S
C1326 H1340 0.961 . S
C1327 C1324 1.539 . S
C1327 H1341 0.958 . S
C1327 H1342 0.961 . S
C1327 H1343 0.960 . S
H1328 C1312 0.931 . S
H1329 C1317 0.929 . S
H1330 C1318 0.960 . S
H1331 C1318 0.962 . S
H1332 C1318 0.960 . S
H1333 C1319 0.961 . S
H1334 C1319 0.961 . S
H1335 C1319 0.961 . S
H1336 C1320 0.931 . S
H1337 C1325 0.930 . S
H1338 C1326 0.956 . S
H1339 C1326 0.961 . S
H1340 C1326 0.961 . S
H1341 C1327 0.958 . S
H1342 C1327 0.961 . S
H1343 C1327 0.960 . S
C1344 C1345 1.391 . S
C1344 C1346 1.394 . S
C1344 H1360 0.931 . S
C1345 C1344 1.391 . S
C1345 C1349 1.376 . S
C1346 C1344 1.394 . S
C1346 C1347 1.369 . S
C1346 C1350 1.531 . S
C1347 C1346 1.369 . S
C1347 C1348 1.410 . S
C1347 C1355 1.503 . S
C1348 C1347 1.410 . S
C1348 C1349 1.392 . S
C1348 C1351 1.511 . S
C1349 C1345 1.376 . S
C1349 C1348 1.392 . S
C1349 H1361 0.929 . S
C1350 C1346 1.531 . S
C1350 H1362 0.960 . S
C1350 H1363 0.962 . S
C1350 H1364 0.960 . S
C1351 C1348 1.511 . S
C1351 H1365 0.961 . S
C1351 H1366 0.961 . S
C1351 H1367 0.961 . S
C1352 C1353 1.370 . S
C1352 C1354 1.363 . S
C1352 H1368 0.931 . S
C1353 C1352 1.370 . S
C1353 C1357 1.408 . S
C1354 C1352 1.363 . S
C1354 C1355 1.370 . S
C1354 C1358 1.524 . S
C1355 C1347 1.503 . S
C1355 C1354 1.370 . S
C1355 C1356 1.403 . S
C1356 C1355 1.403 . S
C1356 C1357 1.404 . S
C1356 C1359 1.539 . S
C1357 C1353 1.408 . S
C1357 C1356 1.404 . S
C1357 H1369 0.930 1_565 S
C1358 C1354 1.524 . S
C1358 H1370 0.956 . S
C1358 H1371 0.961 . S
C1358 H1372 0.961 . S
C1359 C1356 1.539 . S
C1359 H1373 0.958 . S
C1359 H1374 0.961 . S
C1359 H1375 0.960 . S
H1360 C1344 0.931 . S
H1361 C1349 0.929 . S
H1362 C1350 0.960 . S
H1363 C1350 0.962 . S
H1364 C1350 0.960 . S
H1365 C1351 0.961 . S
H1366 C1351 0.961 . S
H1367 C1351 0.961 . S
H1368 C1352 0.931 . S
H1369 C1357 0.930 1_545 S
H1370 C1358 0.956 . S
H1371 C1358 0.961 . S
H1372 C1358 0.961 . S
H1373 C1359 0.958 . S
H1374 C1359 0.961 . S
H1375 C1359 0.960 . S
C1376 C1377 1.391 . S
C1376 C1378 1.394 . S
C1376 H1392 0.931 . S
C1377 C1376 1.391 . S
C1377 C1381 1.376 . S
C1378 C1376 1.394 . S
C1378 C1379 1.369 . S
C1378 C1382 1.531 . S
C1379 C1378 1.369 . S
C1379 C1380 1.410 . S
C1379 C1387 1.503 . S
C1380 C1379 1.410 . S
C1380 C1381 1.392 . S
C1380 C1383 1.511 . S
C1381 C1377 1.376 . S
C1381 C1380 1.392 . S
C1381 H1393 0.929 . S
C1382 C1378 1.531 . S
C1382 H1394 0.960 . S
C1382 H1395 0.962 . S
C1382 H1396 0.960 . S
C1383 C1380 1.511 . S
C1383 H1397 0.961 . S
C1383 H1398 0.961 . S
C1383 H1399 0.961 . S
C1384 C1385 1.370 . S
C1384 C1386 1.363 . S
C1384 H1400 0.931 . S
C1385 C1384 1.370 . S
C1385 C1389 1.408 . S
C1386 C1384 1.363 . S
C1386 C1387 1.370 . S
C1386 C1390 1.524 . S
C1387 C1379 1.503 . S
C1387 C1386 1.370 . S
C1387 C1388 1.403 . S
C1388 C1387 1.403 . S
C1388 C1389 1.404 . S
C1388 C1391 1.539 . S
C1389 C1385 1.408 . S
C1389 C1388 1.404 . S
C1389 H1401 0.930 . S
C1390 C1386 1.524 . S
C1390 H1402 0.956 . S
C1390 H1403 0.961 . S
C1390 H1404 0.961 . S
C1391 C1388 1.539 . S
C1391 H1405 0.958 . S
C1391 H1406 0.961 . S
C1391 H1407 0.960 . S
H1392 C1376 0.931 . S
H1393 C1381 0.929 . S
H1394 C1382 0.960 . S
H1395 C1382 0.962 . S
H1396 C1382 0.960 . S
H1397 C1383 0.961 . S
H1398 C1383 0.961 . S
H1399 C1383 0.961 . S
H1400 C1384 0.931 . S
H1401 C1389 0.930 . S
H1402 C1390 0.956 . S
H1403 C1390 0.961 . S
H1404 C1390 0.961 . S
H1405 C1391 0.958 . S
H1406 C1391 0.961 . S
H1407 C1391 0.960 . S
C1408 C1409 1.391 . S
C1408 C1410 1.394 . S
C1408 H1424 0.931 . S
C1409 C1408 1.391 . S
C1409 C1413 1.376 . S
C1410 C1408 1.394 . S
C1410 C1411 1.369 . S
C1410 C1414 1.531 . S
C1411 C1410 1.369 . S
C1411 C1412 1.410 . S
C1411 C1419 1.503 . S
C1412 C1411 1.410 . S
C1412 C1413 1.392 . S
C1412 C1415 1.511 . S
C1413 C1409 1.376 . S
C1413 C1412 1.392 . S
C1413 H1425 0.929 . S
C1414 C1410 1.531 . S
C1414 H1426 0.960 . S
C1414 H1427 0.962 . S
C1414 H1428 0.960 . S
C1415 C1412 1.511 . S
C1415 H1429 0.961 . S
C1415 H1430 0.961 . S
C1415 H1431 0.961 . S
C1416 C1417 1.370 . S
C1416 C1418 1.363 . S
C1416 H1432 0.931 . S
C1417 C1416 1.370 . S
C1417 C1421 1.408 . S
C1418 C1416 1.363 . S
C1418 C1419 1.370 . S
C1418 C1422 1.524 . S
C1419 C1411 1.503 . S
C1419 C1418 1.370 . S
C1419 C1420 1.403 . S
C1420 C1419 1.403 . S
C1420 C1421 1.404 . S
C1420 C1423 1.539 . S
C1421 C1417 1.408 . S
C1421 C1420 1.404 . S
C1421 H1433 0.930 . S
C1422 C1418 1.524 . S
C1422 H1434 0.956 . S
C1422 H1435 0.961 . S
C1422 H1436 0.961 . S
C1423 C1420 1.539 . S
C1423 H1437 0.958 . S
C1423 H1438 0.961 . S
C1423 H1439 0.960 . S
H1424 C1408 0.931 . S
H1425 C1413 0.929 . S
H1426 C1414 0.960 . S
H1427 C1414 0.962 . S
H1428 C1414 0.960 . S
H1429 C1415 0.961 . S
H1430 C1415 0.961 . S
H1431 C1415 0.961 . S
H1432 C1416 0.931 . S
H1433 C1421 0.930 . S
H1434 C1422 0.956 . S
H1435 C1422 0.961 . S
H1436 C1422 0.961 . S
H1437 C1423 0.958 . S
H1438 C1423 0.961 . S
H1439 C1423 0.960 . S
C1440 C1441 1.391 . S
C1440 C1442 1.394 . S
C1440 H1456 0.931 . S
C1441 C1440 1.391 . S
C1441 C1445 1.376 . S
C1442 C1440 1.394 . S
C1442 C1443 1.369 . S
C1442 C1446 1.531 . S
C1443 C1442 1.369 . S
C1443 C1444 1.410 . S
C1443 C1451 1.503 . S
C1444 C1443 1.410 . S
C1444 C1445 1.392 . S
C1444 C1447 1.511 . S
C1445 C1441 1.376 . S
C1445 C1444 1.392 . S
C1445 H1457 0.929 . S
C1446 C1442 1.531 . S
C1446 H1458 0.960 . S
C1446 H1459 0.962 . S
C1446 H1460 0.960 . S
C1447 C1444 1.511 . S
C1447 H1461 0.961 . S
C1447 H1462 0.961 . S
C1447 H1463 0.961 . S
C1448 C1449 1.370 . S
C1448 C1450 1.363 . S
C1448 H1464 0.931 . S
C1449 C1448 1.370 . S
C1449 C1453 1.412 . S
C1450 C1448 1.363 . S
C1450 C1451 1.370 . S
C1450 C1454 1.524 . S
C1451 C1443 1.503 . S
C1451 C1450 1.370 . S
C1451 C1452 1.403 . S
C1452 C1451 1.403 . S
C1452 C1453 1.418 . S
C1452 C1455 1.539 . S
C1453 C1449 1.412 . S
C1453 C1452 1.418 . S
C1453 H1465 0.914 1_565 S
C1454 C1450 1.524 . S
C1454 H1466 0.956 . S
C1454 H1467 0.961 . S
C1454 H1468 0.961 . S
C1455 C1452 1.539 . S
C1455 H1469 0.958 . S
C1455 H1470 0.961 1_565 S
C1455 H1471 0.960 . S
H1456 C1440 0.931 . S
H1457 C1445 0.929 . S
H1458 C1446 0.960 . S
H1459 C1446 0.962 . S
H1460 C1446 0.960 . S
H1461 C1447 0.961 . S
H1462 C1447 0.961 . S
H1463 C1447 0.961 . S
H1464 C1448 0.931 . S
H1465 C1453 0.914 1_545 S
H1466 C1454 0.956 . S
H1467 C1454 0.961 . S
H1468 C1454 0.961 . S
H1469 C1455 0.958 . S
H1470 C1455 0.961 1_545 S
H1471 C1455 0.960 . S
C1472 C1473 1.391 . S
C1472 C1474 1.394 . S
C1472 H1488 0.931 . S
C1473 C1472 1.391 . S
C1473 C1477 1.376 . S
C1474 C1472 1.394 . S
C1474 C1475 1.369 . S
C1474 C1478 1.531 . S
C1475 C1474 1.369 . S
C1475 C1476 1.410 . S
C1475 C1483 1.503 . S
C1476 C1475 1.410 . S
C1476 C1477 1.392 . S
C1476 C1479 1.511 . S
C1477 C1473 1.376 . S
C1477 C1476 1.392 . S
C1477 H1489 0.929 . S
C1478 C1474 1.531 . S
C1478 H1490 0.960 . S
C1478 H1491 0.962 . S
C1478 H1492 0.960 . S
C1479 C1476 1.511 . S
C1479 H1493 0.961 . S
C1479 H1494 0.961 . S
C1479 H1495 0.961 . S
C1480 C1481 1.370 . S
C1480 C1482 1.363 . S
C1480 H1496 0.931 . S
C1481 C1480 1.370 . S
C1481 C1485 1.408 . S
C1482 C1480 1.363 . S
C1482 C1483 1.370 . S
C1482 C1486 1.524 . S
C1483 C1475 1.503 . S
C1483 C1482 1.370 . S
C1483 C1484 1.403 . S
C1484 C1483 1.403 . S
C1484 C1485 1.404 . S
C1484 C1487 1.539 . S
C1485 C1481 1.408 . S
C1485 C1484 1.404 . S
C1485 H1497 0.930 . S
C1486 C1482 1.524 . S
C1486 H1498 0.956 . S
C1486 H1499 0.961 . S
C1486 H1500 0.961 . S
C1487 C1484 1.539 . S
C1487 H1501 0.958 . S
C1487 H1502 0.961 . S
C1487 H1503 0.960 . S
H1488 C1472 0.931 . S
H1489 C1477 0.929 . S
H1490 C1478 0.960 . S
H1491 C1478 0.962 . S
H1492 C1478 0.960 . S
H1493 C1479 0.961 . S
H1494 C1479 0.961 . S
H1495 C1479 0.961 . S
H1496 C1480 0.931 . S
H1497 C1485 0.930 . S
H1498 C1486 0.956 . S
H1499 C1486 0.961 . S
H1500 C1486 0.961 . S
H1501 C1487 0.958 . S
H1502 C1487 0.961 . S
H1503 C1487 0.960 . S
C1504 C1505 1.391 . S
C1504 C1506 1.394 . S
C1504 H1520 0.931 . S
C1505 C1504 1.391 . S
C1505 C1509 1.376 . S
C1506 C1504 1.394 . S
C1506 C1507 1.369 . S
C1506 C1510 1.531 . S
C1507 C1506 1.369 . S
C1507 C1508 1.410 . S
C1507 C1515 1.503 . S
C1508 C1507 1.410 . S
C1508 C1509 1.392 . S
C1508 C1511 1.511 . S
C1509 C1505 1.376 . S
C1509 C1508 1.392 . S
C1509 H1521 0.929 . S
C1510 C1506 1.531 . S
C1510 H1522 0.960 . S
C1510 H1523 0.962 . S
C1510 H1524 0.960 . S
C1511 C1508 1.511 . S
C1511 H1525 0.961 . S
C1511 H1526 0.961 . S
C1511 H1527 0.961 . S
C1512 C1513 1.370 . S
C1512 C1514 1.363 . S
C1512 H1528 0.931 . S
C1513 C1512 1.370 . S
C1513 C1517 1.408 . S
C1514 C1512 1.363 . S
C1514 C1515 1.370 . S
C1514 C1518 1.524 . S
C1515 C1507 1.503 . S
C1515 C1514 1.370 . S
C1515 C1516 1.403 . S
C1516 C1515 1.403 . S
C1516 C1517 1.404 . S
C1516 C1519 1.539 . S
C1517 C1513 1.408 . S
C1517 C1516 1.404 . S
C1517 H1529 0.930 . S
C1518 C1514 1.524 . S
C1518 H1530 0.956 . S
C1518 H1531 0.961 . S
C1518 H1532 0.961 . S
C1519 C1516 1.539 . S
C1519 H1533 0.958 . S
C1519 H1534 0.961 . S
C1519 H1535 0.960 . S
H1520 C1504 0.931 . S
H1521 C1509 0.929 . S
H1522 C1510 0.960 . S
H1523 C1510 0.962 . S
H1524 C1510 0.960 . S
H1525 C1511 0.961 . S
H1526 C1511 0.961 . S
H1527 C1511 0.961 . S
H1528 C1512 0.931 . S
H1529 C1517 0.930 . S
H1530 C1518 0.956 . S
H1531 C1518 0.961 . S
H1532 C1518 0.961 . S
H1533 C1519 0.958 . S
H1534 C1519 0.961 . S
H1535 C1519 0.960 . S
C1536 C1537 1.391 . S
C1536 C1538 1.394 . S
C1536 H1552 0.931 . S
C1537 C1536 1.391 . S
C1537 C1541 1.376 . S
C1538 C1536 1.394 . S
C1538 C1539 1.369 . S
C1538 C1542 1.531 . S
C1539 C1538 1.369 . S
C1539 C1540 1.410 . S
C1539 C1547 1.503 . S
C1540 C1539 1.410 . S
C1540 C1541 1.392 . S
C1540 C1543 1.511 . S
C1541 C1537 1.376 . S
C1541 C1540 1.392 . S
C1541 H1553 0.929 . S
C1542 C1538 1.531 . S
C1542 H1554 0.960 . S
C1542 H1555 0.962 . S
C1542 H1556 0.960 . S
C1543 C1540 1.511 . S
C1543 H1557 0.961 . S
C1543 H1558 0.961 . S
C1543 H1559 0.961 . S
C1544 C1545 1.370 . S
C1544 C1546 1.363 . S
C1544 H1560 0.931 . S
C1545 C1544 1.370 . S
C1545 C1549 1.408 . S
C1546 C1544 1.363 . S
C1546 C1547 1.370 . S
C1546 C1550 1.524 . S
C1547 C1539 1.503 . S
C1547 C1546 1.370 . S
C1547 C1548 1.403 . S
C1548 C1547 1.403 . S
C1548 C1549 1.404 . S
C1548 C1551 1.539 . S
C1549 C1545 1.408 . S
C1549 C1548 1.404 . S
C1549 H1561 0.930 . S
C1550 C1546 1.524 . S
C1550 H1562 0.956 . S
C1550 H1563 0.961 . S
C1550 H1564 0.961 . S
C1551 C1548 1.539 . S
C1551 H1565 0.958 . S
C1551 H1566 0.961 . S
C1551 H1567 0.960 . S
H1552 C1536 0.931 . S
H1553 C1541 0.929 . S
H1554 C1542 0.960 . S
H1555 C1542 0.962 . S
H1556 C1542 0.960 . S
H1557 C1543 0.961 . S
H1558 C1543 0.961 . S
H1559 C1543 0.961 . S
H1560 C1544 0.931 . S
H1561 C1549 0.930 . S
H1562 C1550 0.956 . S
H1563 C1550 0.961 . S
H1564 C1550 0.961 . S
H1565 C1551 0.958 . S
H1566 C1551 0.961 . S
H1567 C1551 0.960 . S
C1568 C1569 1.391 . S
C1568 C1570 1.394 . S
C1568 H1584 0.931 . S
C1569 C1568 1.391 . S
C1569 C1573 1.376 . S
C1570 C1568 1.394 . S
C1570 C1571 1.369 . S
C1570 C1574 1.531 . S
C1571 C1570 1.369 . S
C1571 C1572 1.410 . S
C1571 C1579 1.503 . S
C1572 C1571 1.410 . S
C1572 C1573 1.392 . S
C1572 C1575 1.511 . S
C1573 C1569 1.376 . S
C1573 C1572 1.392 . S
C1573 H1585 0.929 . S
C1574 C1570 1.531 . S
C1574 H1586 0.960 . S
C1574 H1587 0.962 . S
C1574 H1588 0.960 . S
C1575 C1572 1.511 . S
C1575 H1589 0.961 . S
C1575 H1590 0.961 . S
C1575 H1591 0.961 . S
C1576 C1577 1.370 . S
C1576 C1578 1.363 . S
C1576 H1592 0.931 1_545 S
C1577 C1576 1.370 . S
C1577 C1581 1.408 . S
C1578 C1576 1.363 . S
C1578 C1579 1.370 . S
C1578 C1582 1.524 . S
C1579 C1571 1.503 . S
C1579 C1578 1.370 . S
C1579 C1580 1.403 . S
C1580 C1579 1.403 . S
C1580 C1581 1.404 . S
C1580 C1583 1.539 . S
C1581 C1577 1.408 . S
C1581 C1580 1.404 . S
C1581 H1593 0.930 . S
C1582 C1578 1.524 . S
C1582 H1594 0.956 . S
C1582 H1595 0.961 . S
C1582 H1596 0.961 1_545 S
C1583 C1580 1.539 . S
C1583 H1597 0.958 . S
C1583 H1598 0.961 . S
C1583 H1599 0.960 . S
H1584 C1568 0.931 . S
H1585 C1573 0.929 . S
H1586 C1574 0.960 . S
H1587 C1574 0.962 . S
H1588 C1574 0.960 . S
H1589 C1575 0.961 . S
H1590 C1575 0.961 . S
H1591 C1575 0.961 . S
H1592 C1576 0.931 1_565 S
H1593 C1581 0.930 . S
H1594 C1582 0.956 . S
H1595 C1582 0.961 . S
H1596 C1582 0.961 1_565 S
H1597 C1583 0.958 . S
H1598 C1583 0.961 . S
H1599 C1583 0.960 . S
C577 C518 1.453 . S
C585 C14 1.448 . S
C609 C75 1.492 . S
C617 C3 1.499 . S
C641 C410 1.478 . S
C649 C50 1.440 . S
C673 C39 1.494 . S
C681 C255 1.498 . S
C705 C86 1.439 . S
C713 C446 1.458 . S
C737 C338 1.460 . S
C745 C122 1.449 . S
C769 C111 1.493 . S
C777 C183 1.499 . S
C801 C374 1.477 . S
C809 C158 1.440 . S
C833 C147 1.493 . S
C841 C219 1.499 . S
C865 C554 1.428 . S
C873 C194 1.462 . S
C897 C302 1.443 . S
C905 C230 1.456 . S
C929 C482 1.475 . S
C937 C266 1.442 . S
C961 C291 1.496 . S
C969 C363 1.498 . S
C993 C543 1.493 . S
C1001 C327 1.499 . S
C1025 C399 1.496 . S
C1033 C471 1.498 . S
C1057 C507 1.495 . S
C1065 C435 1.499 . S
C1089 C182 1.318 . S
C1097 C2 1.316 1_565 S
C1121 C4 1.380 . S
C1129 C184 1.376 . S
C1153 C38 1.329 . S
C1161 C146 1.333 . S
C1185 C148 1.374 . S
C1193 C40 1.389 1_565 S
C1217 C254 1.302 . S
C1225 C74 1.321 1_545 S
C1249 C256 1.376 . S
C1257 C76 1.376 . S
C1281 C218 1.342 . S
C1289 C110 1.332 . S
C1313 C112 1.394 1_545 S
C1321 C220 1.381 . S
C1345 C470 1.310 . S
C1353 C290 1.316 1_565 S
C1377 C292 1.371 . S
C1385 C472 1.389 . S
C1409 C326 1.333 . S
C1417 C434 1.333 . S
C1441 C436 1.396 . S
C1449 C328 1.380 1_565 S
C1473 C542 1.340 . S
C1481 C362 1.333 1_545 S
C1505 C544 1.362 . S
C1513 C364 1.382 . S
C1537 C398 1.328 . S
C1545 C506 1.332 . S
C1569 C508 1.367 . S
C1577 C400 1.386 1_545 S
