# Generated by pormake.
# Topology ukg, (4)-cn, num edge types: 1
# Building blocks:
#     Node 0, Type 0, BuildingBlock: MUDLON_clean_sbu_0, # of connection points: 4
#     Node 1, Type 0, BuildingBlock: MUDLON_clean_sbu_0, # of connection points: 4
#     Node 2, Type 0, BuildingBlock: MUDLON_clean_sbu_0, # of connection points: 4
#     Node 3, Type 0, BuildingBlock: MUDLON_clean_sbu_0, # of connection points: 4
#     Node 4, Type 0, BuildingBlock: MUDLON_clean_sbu_0, # of connection points: 4
#     Node 5, Type 0, BuildingBlock: MUDLON_clean_sbu_0, # of connection points: 4
#     Node 6, Type 0, BuildingBlock: MUDLON_clean_sbu_0, # of connection points: 4
#     Node 7, Type 0, BuildingBlock: MUDLON_clean_sbu_0, # of connection points: 4
#     Edge 8, Type (0, 0), BuildingBlock: EZIPEK_clean_linker_0, # of connection points: 2
#     Edge 9, Type (0, 0), BuildingBlock: EZIPEK_clean_linker_0, # of connection points: 2
#     Edge 10, Type (0, 0), BuildingBlock: EZIPEK_clean_linker_0, # of connection points: 2
#     Edge 11, Type (0, 0), BuildingBlock: EZIPEK_clean_linker_0, # of connection points: 2
#     Edge 12, Type (0, 0), BuildingBlock: EZIPEK_clean_linker_0, # of connection points: 2
#     Edge 13, Type (0, 0), BuildingBlock: EZIPEK_clean_linker_0, # of connection points: 2
#     Edge 14, Type (0, 0), BuildingBlock: EZIPEK_clean_linker_0, # of connection points: 2
#     Edge 15, Type (0, 0), BuildingBlock: EZIPEK_clean_linker_0, # of connection points: 2
#     Edge 16, Type (0, 0), BuildingBlock: EZIPEK_clean_linker_0, # of connection points: 2
#     Edge 17, Type (0, 0), BuildingBlock: EZIPEK_clean_linker_0, # of connection points: 2
#     Edge 18, Type (0, 0), BuildingBlock: EZIPEK_clean_linker_0, # of connection points: 2
#     Edge 19, Type (0, 0), BuildingBlock: EZIPEK_clean_linker_0, # of connection points: 2
#     Edge 20, Type (0, 0), BuildingBlock: EZIPEK_clean_linker_0, # of connection points: 2
#     Edge 21, Type (0, 0), BuildingBlock: EZIPEK_clean_linker_0, # of connection points: 2
#     Edge 22, Type (0, 0), BuildingBlock: EZIPEK_clean_linker_0, # of connection points: 2
#     Edge 23, Type (0, 0), BuildingBlock: EZIPEK_clean_linker_0, # of connection points: 2
# Relax obj value: 0.084
# Max RMSD: 0.240
# Mean RMSD: 0.240
data_MOF--net-ukg--node1-MUDLON_clean_sbu_0--edge1-EZIPEK_clean_linker_0
_symmetry_space_group_name_H-M    P1
_symmetry_Int_Tables_number       1
_symmetry_cell_setting            triclinic
loop_
_symmetry_equiv_pos_as_xyz
'x, y, z'
_cell_length_a     24.057208
_cell_length_b     24.012708
_cell_length_c     27.606937
_cell_angle_alpha  89.879202
_cell_angle_beta   89.164694
_cell_angle_gamma 89.745849
loop_
_atom_site_label
_atom_site_type_symbol
_atom_site_fract_x
_atom_site_fract_y
_atom_site_fract_z
_atom_type_partial_charge
Mg0 Mg 0.04992 0.67824 0.16999 0.0
C1 C 0.95596 0.63211 0.22532 0.0
O2 O 0.93352 0.67107 0.19838 0.0
C3 C 0.1636 0.71437 0.14761 0.0
O4 O 0.13523 0.72953 0.1094 0.0
C5 C 1.00288 0.62194 0.07765 0.0
O6 O 0.95395 0.63936 0.09299 0.0
O7 O 0.04632 0.63549 0.10036 0.0
O8 O 1.00816 0.62364 0.22217 0.0
O9 O 1.00775 0.75843 0.18085 0.0
C10 C 0.03269 0.80484 0.18429 0.0
O11 O 0.08544 0.80835 0.172 0.0
O12 O 0.13831 0.68917 0.18194 0.0
Mg13 Mg 0.35265 0.55122 0.68034 0.0
C14 C 0.43765 0.49514 0.7487 0.0
O15 O 0.47572 0.5083 0.71615 0.0
C16 C 0.29367 0.6569 0.66527 0.0
O17 O 0.26461 0.6214 0.64 0.0
C18 C 0.43165 0.49521 0.60523 0.0
O19 O 0.42992 0.45287 0.63538 0.0
O20 O 0.40236 0.53836 0.61411 0.0
O21 O 0.38813 0.51261 0.74411 0.0
O22 O 0.27117 0.51337 0.6831 0.0
C23 C 0.24924 0.47542 0.65795 0.0
O24 O 0.27562 0.45503 0.61992 0.0
O25 O 0.33615 0.63963 0.68785 0.0
Mg26 Mg 0.49669 0.84946 0.15624 0.0
C27 C 0.58178 0.89859 0.21409 0.0
O28 O 0.60623 0.88492 0.17295 0.0
C29 C 0.39394 0.784 0.14358 0.0
O30 O 0.43173 0.75166 0.12327 0.0
C31 C 0.48947 0.94749 0.089 0.0
O32 O 0.45193 0.96109 0.12198 0.0
O33 O 0.51495 0.90105 0.0926 0.0
O34 O 0.52957 0.89198 0.21879 0.0
O35 O 0.54033 0.77004 0.16142 0.0
C36 C 0.52792 0.7452 0.20091 0.0
O37 O 0.48952 0.76702 0.22945 0.0
O38 O 0.40857 0.8306 0.16106 0.0
Mg39 Mg 0.17143 0.99626 0.67673 0.0
C40 C 0.10469 0.07919 0.73118 0.0
O41 O 0.10326 0.09868 0.68676 0.0
C42 C 0.22588 0.88813 0.66122 0.0
O43 O 0.2562 0.92196 0.63446 0.0
C44 C 0.07486 0.99454 0.60999 0.0
O45 O 0.05414 0.96741 0.6474 0.0
O46 O 0.12448 1.01251 0.61139 0.0
O47 O 0.12901 0.03309 0.73916 0.0
O48 O 0.25513 0.02965 0.67609 0.0
C49 C 0.26482 0.07779 0.69276 0.0
O50 O 0.22338 0.11244 0.70061 0.0
O51 O 0.18387 0.90732 0.68428 0.0
Mg52 Mg 0.98099 0.3768 0.84705 0.0
C53 C 0.01614 0.26721 0.82075 0.0
O54 O 0.98727 0.28759 0.78473 0.0
C55 C 0.02334 0.44802 0.93282 0.0
O56 O 0.06883 0.41777 0.92931 0.0
C57 C 0.87814 0.31527 0.86655 0.0
O58 O 0.91312 0.29354 0.8975 0.0
O59 O 0.89465 0.35399 0.83835 0.0
O60 O 0.02235 0.29706 0.85832 0.0
O61 O 0.02064 0.409 0.78144 0.0
C62 C 0.07339 0.40541 0.78191 0.0
O63 O 0.09746 0.38529 0.82063 0.0
O64 O 0.98304 0.43879 0.90475 0.0
Mg65 Mg 0.67665 0.48451 0.36942 0.0
C66 C 0.78865 0.5044 0.32783 0.0
O67 O 0.77568 0.45557 0.31014 0.0
C68 C 0.57891 0.48886 0.4363 0.0
O69 O 0.55659 0.47439 0.39507 0.0
C70 C 0.73092 0.37552 0.38626 0.0
O71 O 0.76156 0.40958 0.41168 0.0
O72 O 0.68988 0.39512 0.36311 0.0
O73 O 0.75636 0.52666 0.35927 0.0
O74 O 0.6292 0.52138 0.31109 0.0
C75 C 0.62915 0.5743 0.3132 0.0
O76 O 0.65443 0.59863 0.34927 0.0
O77 O 0.63096 0.49829 0.4374 0.0
Mg78 Mg 0.54225 0.18752 0.85585 0.0
C79 C 0.49587 0.31091 0.87158 0.0
O80 O 0.50166 0.30668 0.91868 0.0
C81 C 0.54616 0.09949 0.93203 0.0
O82 O 0.58892 0.0857 0.90437 0.0
C83 C 0.65033 0.23997 0.86993 0.0
O84 O 0.61568 0.27271 0.89361 0.0
O85 O 0.63176 0.19649 0.84968 0.0
O86 O 0.50773 0.27019 0.84398 0.0
O87 O 0.50475 0.14235 0.7972 0.0
C88 C 0.45234 0.14916 0.79886 0.0
O89 O 0.43002 0.17872 0.8341 0.0
O90 O 0.5184 0.1432 0.92199 0.0
Mg91 Mg 0.84982 0.03611 0.36835 0.0
C92 C 0.75758 0.95632 0.34112 0.0
O93 O 0.79888 0.92103 0.33539 0.0
C94 C 0.9425 0.02643 0.43848 0.0
O95 O 0.96838 0.04735 0.40045 0.0
C96 C 0.79619 0.14334 0.38971 0.0
O97 O 0.76683 0.10835 0.41616 0.0
O98 O 0.83737 0.12524 0.3649 0.0
O99 O 0.76642 1.00373 0.3597 0.0
O100 O 0.89906 1.00514 0.30719 0.0
C101 C 0.92007 0.95697 0.31267 0.0
O102 O 0.91386 0.93143 0.35448 0.0
O103 O 0.89077 1.01596 0.43622 0.0
C104 C 0.01743 0.47842 0.01979 0.0
C105 C 0.01832 0.49265 0.96987 0.0
C106 C 1.00298 0.59121 0.99058 0.0
C107 C 1.00688 0.57753 0.0404 0.0
N108 N 0.02287 0.50934 0.10315 0.0
N109 N 0.01984 0.56282 0.90726 0.0
C110 C 0.01575 0.52147 0.05518 0.0
C111 C 1.01295 0.54914 0.95508 0.0
N112 N 1.01542 0.42362 0.03335 0.0
N113 N 0.9893 0.64434 0.97726 0.0
H114 H 0.02774 0.53331 0.88032 0.0
H115 H 0.02236 0.60361 0.8946 0.0
H116 H 0.9836 0.67647 1.00225 0.0
H117 H 0.97971 0.65581 0.94196 0.0
H118 H 1.00824 0.41038 0.06881 0.0
H119 H 0.01628 0.3909 1.00856 0.0
H120 H 0.03646 0.47076 0.11567 0.0
H121 H 0.01848 0.53882 0.13063 0.0
C122 C 0.50894 0.53737 0.55436 0.0
C123 C 0.46998 0.49376 0.56233 0.0
C124 C 0.51028 0.44322 0.49305 0.0
C125 C 0.54373 0.49007 0.48116 0.0
N126 N 0.56744 0.58603 0.49616 0.0
N127 N 0.42668 0.40999 0.53315 0.0
C128 C 0.54114 0.53837 0.51066 0.0
C129 C 0.46877 0.44793 0.53001 0.0
N130 N 0.5172 0.57653 0.58936 0.0
N131 N 0.51958 0.39338 0.47043 0.0
H132 H 0.39432 0.41285 0.55859 0.0
H133 H 0.42072 0.37904 0.50736 0.0
H134 H 0.55118 0.38739 0.44468 0.0
H135 H 0.50008 0.35659 0.48107 0.0
H136 H 0.54903 0.60576 0.5874 0.0
H137 H 0.49626 0.57627 0.62268 0.0
H138 H 0.56189 0.62409 0.51368 0.0
H139 H 0.59062 0.58895 0.46406 0.0
C140 C 0.49394 0.97068 1.00006 0.0
C141 C 0.50261 0.98692 0.04875 0.0
C142 C 0.53243 0.07986 0.021 0.0
C143 C 0.52864 0.06183 0.97225 0.0
N144 N 0.50893 0.9894 0.91451 0.0
N145 N 0.53547 0.05458 0.10601 0.0
C146 C 0.51048 1.00694 0.96158 0.0
C147 C 0.52281 0.04109 0.05937 0.0
N148 N 0.46714 0.92181 0.99069 0.0
N149 N 0.54543 0.13407 0.0307 0.0
H150 H 0.52839 0.02789 0.13518 0.0
H151 H 0.55674 0.09042 0.11569 0.0
H152 H 0.55636 0.16281 1.0039 0.0
H153 H 0.54206 0.15178 0.065 0.0
H154 H 0.45384 0.91022 0.95647 0.0
H155 H 0.45369 0.89456 0.01785 0.0
H156 H 0.50343 0.94805 0.90449 0.0
H157 H 0.5159 1.01579 0.88504 0.0
C158 C 0.96309 0.04909 0.52526 0.0
C159 C 0.97392 1.01613 0.48352 0.0
C160 C 0.05353 0.97223 0.52352 0.0
C161 C 0.04071 1.00275 0.56624 0.0
N162 N 0.97988 0.0652 0.61055 0.0
N163 N 0.02242 0.93955 0.44544 0.0
C164 C 0.99423 0.03946 0.56799 0.0
C165 C 0.01739 0.97595 0.48328 0.0
N166 N 0.92499 0.09148 0.52326 0.0
N167 N 0.10029 0.93963 0.52139 0.0
H168 H 0.99568 0.94014 0.41612 0.0
H169 H 0.04946 0.9056 0.44495 0.0
H170 H 0.12601 0.93302 0.55094 0.0
H171 H 0.1157 0.92181 0.48956 0.0
H172 H 0.91966 0.12117 0.55036 0.0
H173 H 0.90122 0.09975 0.49276 0.0
H174 H 0.94277 0.08691 0.61594 0.0
H175 H 1.00364 0.06217 0.64172 0.0
C176 C 0.24737 0.75342 0.19076 0.0
C177 C 0.22392 0.7275 0.14954 0.0
C178 C 0.30989 0.7448 0.10349 0.0
C179 C 0.33517 0.7656 0.14584 0.0
N180 N 0.33175 0.77606 0.2329 0.0
N181 N 0.2396 0.68407 0.07164 0.0
C182 C 0.30508 0.76597 0.19046 0.0
C183 C 0.25726 0.71879 0.10739 0.0
N184 N 0.2146 0.76867 0.22933 0.0
N185 N 0.33473 0.75205 0.05909 0.0
H186 H 0.20264 0.66163 0.07433 0.0
H187 H 0.26467 0.67254 0.0422 0.0
H188 H 0.37195 0.77354 0.05411 0.0
H189 H 0.31522 0.74224 0.02676 0.0
H190 H 0.22881 0.79336 0.25754 0.0
H191 H 0.17213 0.76123 0.23125 0.0
H192 H 0.31274 0.77106 0.26678 0.0
H193 H 0.37429 0.78365 0.23465 0.0
C194 C 0.26598 0.74472 0.70934 0.0
C195 C 0.2778 0.71656 0.66518 0.0
C196 C 0.24652 0.79807 0.61948 0.0
C197 C 0.24077 0.82832 0.66332 0.0
N198 N 0.25498 0.83367 0.74963 0.0
N199 N 0.2908 0.72061 0.57832 0.0
C200 C 0.25312 0.80258 0.70827 0.0
C201 C 0.27125 0.74439 0.62022 0.0
N202 N 0.26478 0.71593 0.7521 0.0
N203 N 0.22654 0.81976 0.57729 0.0
H204 H 0.31117 0.68219 0.57744 0.0
H205 H 0.29212 0.74157 0.54524 0.0
H206 H 0.20656 0.85833 0.57547 0.0
H207 H 0.22457 0.79707 0.54524 0.0
H208 H 0.25054 0.73318 0.7846 0.0
H209 H 0.2731 0.67337 0.75444 0.0
H210 H 0.26968 0.81819 0.78234 0.0
H211 H 0.24668 0.87631 0.7504 0.0
C212 C 0.73863 0.26122 0.82318 0.0
C213 C 0.71013 0.25425 0.86819 0.0
C214 C 0.78923 0.29377 0.91063 0.0
C215 C 0.81988 0.29564 0.86636 0.0
N216 N 0.82778 0.26955 0.78204 0.0
N217 N 0.71377 0.25072 0.95546 0.0
C218 C 0.7958 0.27603 0.82298 0.0
C219 C 0.73713 0.26654 0.91216 0.0
N220 N 0.71075 0.25647 0.78062 0.0
N221 N 0.80851 0.32028 0.95079 0.0
H222 H 0.67651 0.22876 0.95798 0.0
H223 H 0.73432 0.25393 0.9883 0.0
H224 H 0.84532 0.34306 0.95077 0.0
H225 H 0.78503 0.32477 0.98257 0.0
H226 H 0.72821 0.26719 0.74714 0.0
H227 H 0.66865 0.24673 0.77894 0.0
H228 H 0.81364 0.24977 0.75104 0.0
H229 H 0.87001 0.27901 0.78049 0.0
C230 C 0.7519 0.28753 0.43121 0.0
C231 C 0.744 0.31504 0.38624 0.0
C232 C 0.76471 0.2277 0.34347 0.0
C233 C 0.77981 0.20276 0.38806 0.0
N234 N 0.79715 0.21198 0.47353 0.0
N235 N 0.75093 0.31315 0.2987 0.0
C236 C 0.77598 0.23351 0.43174 0.0
C237 C 0.75238 0.28564 0.34204 0.0
N238 N 0.73415 0.31199 0.47339 0.0
N239 N 0.75983 0.19572 0.30283 0.0
H240 H 0.74177 0.35537 0.29556 0.0
H241 H 0.76338 0.29503 0.26603 0.0
H242 H 0.76759 0.15297 0.3024 0.0
H243 H 0.74296 0.21056 0.27071 0.0
H244 H 0.73395 0.29148 0.50669 0.0
H245 H 0.71386 0.35046 0.47442 0.0
H246 H 0.8007 0.23503 0.50526 0.0
H247 H 0.81627 0.17297 0.47525 0.0
C248 C 0.83158 0.54247 0.25192 0.0
C249 C 0.8329 0.53722 0.30314 0.0
C250 C 0.91792 0.59355 0.30433 0.0
C251 C 0.9187 0.59422 0.25289 0.0
N252 N 0.88509 0.55611 0.17824 0.0
N253 N 0.88198 0.55002 0.37783 0.0
C254 C 0.87824 0.5645 0.2269 0.0
C255 C 0.87743 0.56061 0.32941 0.0
N256 N 0.78462 0.52931 0.22713 0.0
N257 N 0.95442 0.62581 0.32913 0.0
H258 H 0.85316 0.52608 0.39718 0.0
H259 H 0.91649 0.56115 0.39792 0.0
H260 H 0.9852 0.64942 0.31189 0.0
H261 H 0.95189 0.632 0.36642 0.0
H262 H 0.77991 0.53781 0.19038 0.0
H263 H 0.7479 0.5162 0.24404 0.0
H264 H 0.85946 0.53021 0.15826 0.0
H265 H 0.92015 0.56977 0.15913 0.0
C266 C 0.49211 0.4578 0.81895 0.0
C267 C 0.44912 0.45089 0.78485 0.0
C268 C 0.42724 0.35965 0.82009 0.0
C269 C 0.47538 0.36283 0.84876 0.0
N270 N 0.55695 0.41304 0.87325 0.0
N271 N 0.38161 0.39049 0.7475 0.0
C272 C 0.50847 0.41168 0.84812 0.0
C273 C 0.41778 0.40076 0.78419 0.0
N274 N 0.51654 0.50868 0.82407 0.0
N275 N 0.39032 0.31726 0.82748 0.0
H276 H 0.37469 0.41799 0.71897 0.0
H277 H 0.36254 0.3521 0.74253 0.0
H278 H 0.3957 0.28714 0.85435 0.0
H279 H 0.35182 0.31542 0.81077 0.0
H280 H 0.54416 0.51788 0.8516 0.0
H281 H 0.50542 0.54325 0.80334 0.0
H282 H 0.58619 0.44465 0.8694 0.0
H283 H 0.56979 0.38072 0.89577 0.0
C284 C 0.62846 0.88535 0.29428 0.0
C285 C 0.61634 0.91979 0.25387 0.0
C286 C 0.694 0.98077 0.27316 0.0
C287 C 0.70575 0.94705 0.31419 0.0
N288 N 0.67802 0.87469 0.36982 0.0
N289 N 0.62694 1.00742 0.2127 0.0
C290 C 0.67084 0.9017 0.32673 0.0
C291 C 0.64561 0.97001 0.24613 0.0
N292 N 0.60173 0.83566 0.30014 0.0
N293 N 0.73096 0.02043 0.25773 0.0
H294 H 0.59125 1.00037 0.19271 0.0
H295 H 0.64316 0.04732 0.20853 0.0
H296 H 0.76809 0.02895 0.27513 0.0
H297 H 0.72741 0.04156 0.22494 0.0
H298 H 0.61366 0.80541 0.32503 0.0
H299 H 0.56934 0.8232 0.27808 0.0
H300 H 0.65071 0.84472 0.38331 0.0
H301 H 0.70886 0.88577 0.39415 0.0
C302 C 0.09666 0.19925 0.81681 0.0
C303 C 0.03852 0.20975 0.81615 0.0
C304 C 0.02313 0.12154 0.77414 0.0
C305 C 0.08133 0.11369 0.77091 0.0
N306 N 0.17146 0.13239 0.80357 0.0
N307 N 0.94607 0.17282 0.81053 0.0
C308 C 0.11741 0.14819 0.7975 0.0
C309 C 1.00162 0.16782 0.80038 0.0
N310 N 0.13229 0.23931 0.83238 0.0
N311 N 0.98881 0.08591 0.75043 0.0
H312 H 0.92991 0.2059 0.83083 0.0
H313 H 0.9171 0.14203 0.80311 0.0
H314 H 1.0036 0.04977 0.73359 0.0
H315 H 0.94645 0.09299 0.74611 0.0
H316 H 0.17524 0.23704 0.82745 0.0
H317 H 0.11891 0.27642 0.84816 0.0
H318 H 0.19899 0.15357 0.82563 0.0
H319 H 0.187 0.09459 0.79056 0.0
C320 C 0.14676 0.37901 0.7215 0.0
C321 C 0.1084 0.41953 0.73896 0.0
C322 C 0.15084 0.48858 0.68472 0.0
C323 C 0.19606 0.45166 0.67607 0.0
N324 N 0.23879 0.36147 0.68851 0.0
N325 N 0.07426 0.51427 0.73818 0.0
C326 C 0.19409 0.39631 0.69416 0.0
C327 C 0.10964 0.47452 0.7201 0.0
N328 N 0.13766 0.32391 0.73103 0.0
N329 N 0.14775 0.53722 0.65916 0.0
H330 H 0.04354 0.50585 0.76413 0.0
H331 H 0.07783 0.55645 0.72991 0.0
H332 H 0.17707 0.54765 0.63243 0.0
H333 H 0.11358 0.56398 0.66077 0.0
H334 H 0.16158 0.29193 0.71592 0.0
H335 H 0.10241 0.31009 0.74987 0.0
H336 H 0.24215 0.32336 0.70636 0.0
H337 H 0.27439 0.37202 0.66871 0.0
C338 C 0.63978 0.65012 0.25192 0.0
C339 C 0.60533 0.60941 0.27431 0.0
C340 C 0.52506 0.64755 0.23163 0.0
C341 C 0.55733 0.69429 0.21738 0.0
N342 N 0.64558 0.74216 0.21668 0.0
N343 N 0.51409 0.57022 0.28741 0.0
C344 C 0.61504 0.69575 0.22735 0.0
C345 C 0.54778 0.60757 0.26399 0.0
N346 N 0.6963 0.6449 0.254 0.0
N347 N 0.47262 0.64156 0.21406 0.0
H348 H 0.52894 0.54021 0.31132 0.0
H349 H 0.47088 0.57144 0.28581 0.0
H350 H 0.45526 0.67001 0.18993 0.0
H351 H 0.4487 0.60598 0.21945 0.0
H352 H 0.72367 0.67005 0.23431 0.0
H353 H 0.71573 0.61183 0.27163 0.0
H354 H 0.68577 0.74832 0.22908 0.0
H355 H 0.62968 0.77653 0.19843 0.0
C356 C 0.39567 0.0708 0.76878 0.0
C357 C 0.4155 0.12555 0.76205 0.0
C358 C 0.34624 0.14174 0.69933 0.0
C359 C 0.32021 0.09089 0.71244 0.0
N360 N 0.31589 1.01047 0.76582 0.0
N361 N 0.41016 0.21469 0.72221 0.0
C362 C 0.34423 0.05562 0.74816 0.0
C363 C 0.3913 0.16134 0.72725 0.0
N364 N 0.42523 0.03387 0.79606 0.0
N365 N 0.32825 0.17078 0.65988 0.0
H366 H 0.44496 0.22931 0.74034 0.0
H367 H 0.38986 0.24509 0.70204 0.0
H368 H 0.29584 0.15691 0.63834 0.0
H369 H 0.34855 0.20563 0.64591 0.0
H370 H 0.41557 0.9917 0.79861 0.0
H371 H 0.46272 0.04437 0.81212 0.0
H372 H 0.32899 0.98728 0.79549 0.0
H373 H 0.27643 0.99909 0.75457 0.0
C374 C 0.95428 0.87306 0.1989 0.0
C375 C 1.00615 0.85023 0.21298 0.0
C376 C 1.00735 0.91331 0.28251 0.0
C377 C 0.95182 0.92884 0.27336 0.0
N378 N 0.87016 0.92193 0.22403 0.0
N379 N 0.07622 0.84081 0.27466 0.0
C380 C 0.92473 0.9089 0.23148 0.0
C381 C 0.03159 0.86868 0.25623 0.0
N382 N 0.93374 0.86106 0.15426 0.0
N383 N 0.03695 0.94139 0.31644 0.0
H384 H 0.09245 0.80463 0.25926 0.0
H385 H 0.09277 0.84959 0.30846 0.0
H386 H 0.02046 0.9755 0.33518 0.0
H387 H 0.07929 0.93494 0.32178 0.0
H388 H 0.89879 0.8805 0.14003 0.0
H389 H 0.95454 0.83513 0.12966 0.0
H390 H 0.84624 0.90321 0.19753 0.0
H391 H 0.84772 0.94927 0.2462 0.0
loop_
_geom_bond_atom_site_label_1
_geom_bond_atom_site_label_2
_geom_bond_distance
_geom_bond_site_symmetry_2
_ccdc_geom_bond_type
Mg0 O7 2.141 . S
Mg0 O8 2.048 1_455 S
Mg0 O9 2.048 . S
Mg0 O12 2.141 . S
C1 O2 1.313 . S
C1 O8 1.195 . S
O2 C1 1.313 . S
C3 O4 1.245 . S
C3 O12 1.289 . S
O4 C3 1.245 . S
C5 O6 1.245 . S
C5 O7 1.289 . S
O6 C5 1.245 . S
O7 Mg0 2.141 . S
O7 C5 1.289 . S
O8 Mg0 2.048 1_655 S
O8 C1 1.195 . S
O9 Mg0 2.048 . S
O9 C10 1.195 1_455 S
C10 O9 1.195 1_655 S
C10 O11 1.313 . S
O11 C10 1.313 . S
O12 Mg0 2.141 . S
O12 C3 1.289 . S
Mg13 O20 2.141 . S
Mg13 O21 2.048 . S
Mg13 O22 2.048 . S
Mg13 O25 2.141 . S
C14 O15 1.313 . S
C14 O21 1.195 . S
O15 C14 1.313 . S
C16 O17 1.245 . S
C16 O25 1.289 . S
O17 C16 1.245 . S
C18 O19 1.245 . S
C18 O20 1.289 . S
O19 C18 1.245 . S
O20 Mg13 2.141 . S
O20 C18 1.289 . S
O21 Mg13 2.048 . S
O21 C14 1.195 . S
O22 Mg13 2.048 . S
O22 C23 1.195 . S
C23 O22 1.195 . S
C23 O24 1.313 . S
O24 C23 1.313 . S
O25 Mg13 2.141 . S
O25 C16 1.289 . S
Mg26 O33 2.141 . S
Mg26 O34 2.048 . S
Mg26 O35 2.048 . S
Mg26 O38 2.141 . S
C27 O28 1.313 . S
C27 O34 1.195 . S
O28 C27 1.313 . S
C29 O30 1.245 . S
C29 O38 1.289 . S
O30 C29 1.245 . S
C31 O32 1.245 . S
C31 O33 1.289 . S
O32 C31 1.245 . S
O33 Mg26 2.141 . S
O33 C31 1.289 . S
O34 Mg26 2.048 . S
O34 C27 1.195 . S
O35 Mg26 2.048 . S
O35 C36 1.195 . S
C36 O35 1.195 . S
C36 O37 1.313 . S
O37 C36 1.313 . S
O38 Mg26 2.141 . S
O38 C29 1.289 . S
Mg39 O46 2.141 . S
Mg39 O47 2.048 1_565 S
Mg39 O48 2.048 . S
Mg39 O51 2.141 . S
C40 O41 1.313 . S
C40 O47 1.195 . S
O41 C40 1.313 . S
C42 O43 1.245 . S
C42 O51 1.289 . S
O43 C42 1.245 . S
C44 O45 1.245 . S
C44 O46 1.289 . S
O45 C44 1.245 . S
O46 Mg39 2.141 . S
O46 C44 1.289 . S
O47 Mg39 2.048 1_545 S
O47 C40 1.195 . S
O48 Mg39 2.048 . S
O48 C49 1.195 1_565 S
C49 O48 1.195 1_545 S
C49 O50 1.313 . S
O50 C49 1.313 . S
O51 Mg39 2.141 . S
O51 C42 1.289 . S
Mg52 O59 2.141 . S
Mg52 O60 2.048 . S
Mg52 O61 2.048 1_655 S
Mg52 O64 2.141 . S
C53 O54 1.313 . S
C53 O60 1.195 1_455 S
O54 C53 1.313 . S
C55 O56 1.245 . S
C55 O64 1.289 . S
O56 C55 1.245 . S
C57 O58 1.245 . S
C57 O59 1.289 . S
O58 C57 1.245 . S
O59 Mg52 2.141 . S
O59 C57 1.289 . S
O60 Mg52 2.048 . S
O60 C53 1.195 1_655 S
O61 Mg52 2.048 1_455 S
O61 C62 1.195 . S
C62 O61 1.195 . S
C62 O63 1.313 . S
O63 C62 1.313 . S
O64 Mg52 2.141 . S
O64 C55 1.289 . S
Mg65 O72 2.141 . S
Mg65 O73 2.048 . S
Mg65 O74 2.048 . S
Mg65 O77 2.141 . S
C66 O67 1.313 . S
C66 O73 1.195 . S
O67 C66 1.313 . S
C68 O69 1.245 . S
C68 O77 1.289 . S
O69 C68 1.245 . S
C70 O71 1.245 . S
C70 O72 1.289 . S
O71 C70 1.245 . S
O72 Mg65 2.141 . S
O72 C70 1.289 . S
O73 Mg65 2.048 . S
O73 C66 1.195 . S
O74 Mg65 2.048 . S
O74 C75 1.195 . S
C75 O74 1.195 . S
C75 O76 1.313 . S
O76 C75 1.313 . S
O77 Mg65 2.141 . S
O77 C68 1.289 . S
Mg78 O85 2.141 . S
Mg78 O86 2.048 . S
Mg78 O87 2.048 . S
Mg78 O90 2.141 . S
C79 O80 1.313 . S
C79 O86 1.195 . S
O80 C79 1.313 . S
C81 O82 1.245 . S
C81 O90 1.289 . S
O82 C81 1.245 . S
C83 O84 1.245 . S
C83 O85 1.289 . S
O84 C83 1.245 . S
O85 Mg78 2.141 . S
O85 C83 1.289 . S
O86 Mg78 2.048 . S
O86 C79 1.195 . S
O87 Mg78 2.048 . S
O87 C88 1.195 . S
C88 O87 1.195 . S
C88 O89 1.313 . S
O89 C88 1.313 . S
O90 Mg78 2.141 . S
O90 C81 1.289 . S
Mg91 O98 2.141 . S
Mg91 O99 2.048 . S
Mg91 O100 2.048 1_545 S
Mg91 O103 2.141 . S
C92 O93 1.313 . S
C92 O99 1.195 1_565 S
O93 C92 1.313 . S
C94 O95 1.245 . S
C94 O103 1.289 . S
O95 C94 1.245 . S
C96 O97 1.245 . S
C96 O98 1.289 . S
O97 C96 1.245 . S
O98 Mg91 2.141 . S
O98 C96 1.289 . S
O99 Mg91 2.048 . S
O99 C92 1.195 1_545 S
O100 Mg91 2.048 1_565 S
O100 C101 1.195 . S
C101 O100 1.195 . S
C101 O102 1.313 . S
O102 C101 1.313 . S
O103 Mg91 2.141 . S
O103 C94 1.289 . S
C104 C105 1.363 1_554 S
C104 C110 1.379 . S
C104 N112 1.356 1_554 S
C105 C104 1.363 1_556 S
C105 C111 1.363 1_655 S
C106 C107 1.363 1_556 S
C106 C111 1.379 . S
C106 N113 1.356 1_556 S
C107 C106 1.363 1_554 S
C107 C110 1.363 1_455 S
N108 C110 1.356 . S
N108 H120 0.984 . S
N108 H121 0.985 1_655 S
N109 C111 1.356 . S
N109 H114 0.984 1_455 S
N109 H115 0.985 . S
C110 C104 1.379 . S
C110 C107 1.363 1_655 S
C110 N108 1.356 . S
C111 C105 1.363 1_455 S
C111 C106 1.379 . S
C111 N109 1.356 . S
N112 C104 1.356 1_556 S
N112 H118 0.984 1_556 S
N112 H119 0.984 . S
N113 C106 1.356 1_554 S
N113 H116 0.984 . S
N113 H117 0.985 1_554 S
H114 N109 0.984 1_655 S
H115 N109 0.985 . S
H116 N113 0.984 . S
H117 N113 0.985 1_556 S
H118 N112 0.984 1_554 S
H119 N112 0.984 . S
H120 N108 0.984 . S
H121 N108 0.985 1_455 S
C122 C123 1.363 . S
C122 C128 1.379 . S
C122 N130 1.356 . S
C123 C122 1.363 . S
C123 C129 1.363 . S
C124 C125 1.363 . S
C124 C129 1.379 . S
C124 N131 1.356 . S
C125 C124 1.363 . S
C125 C128 1.363 . S
N126 C128 1.356 . S
N126 H138 0.984 . S
N126 H139 0.985 . S
N127 C129 1.356 . S
N127 H132 0.984 . S
N127 H133 0.985 . S
C128 C122 1.379 . S
C128 C125 1.363 . S
C128 N126 1.356 . S
C129 C123 1.363 . S
C129 C124 1.379 . S
C129 N127 1.356 . S
N130 C122 1.356 . S
N130 H136 0.984 . S
N130 H137 0.984 . S
N131 C124 1.356 . S
N131 H134 0.984 . S
N131 H135 0.985 . S
H132 N127 0.984 . S
H133 N127 0.985 . S
H134 N131 0.984 . S
H135 N131 0.985 . S
H136 N130 0.984 . S
H137 N130 0.984 . S
H138 N126 0.984 . S
H139 N126 0.985 . S
C140 C141 1.363 . S
C140 C146 1.379 1_554 S
C140 N148 1.356 . S
C141 C140 1.363 . S
C141 C147 1.363 1_565 S
C142 C143 1.363 . S
C142 C147 1.379 1_556 S
C142 N149 1.356 . S
C143 C142 1.363 . S
C143 C146 1.363 1_545 S
N144 C146 1.356 . S
N144 H156 0.984 . S
N144 H157 0.985 . S
N145 C147 1.356 . S
N145 H150 0.984 . S
N145 H151 0.985 . S
C146 C140 1.379 1_556 S
C146 C143 1.363 1_565 S
C146 N144 1.356 . S
C147 C141 1.363 1_545 S
C147 C142 1.379 1_554 S
C147 N145 1.356 . S
N148 C140 1.356 . S
N148 H154 0.984 . S
N148 H155 0.984 . S
N149 C142 1.356 . S
N149 H152 0.984 . S
N149 H153 0.985 . S
H150 N145 0.984 . S
H151 N145 0.985 . S
H152 N149 0.984 . S
H153 N149 0.985 . S
H154 N148 0.984 . S
H155 N148 0.984 . S
H156 N144 0.984 . S
H157 N144 0.985 . S
C158 C159 1.363 1_565 S
C158 C164 1.379 . S
C158 N166 1.356 . S
C159 C158 1.363 1_545 S
C159 C165 1.363 1_655 S
C160 C161 1.363 1_545 S
C160 C165 1.379 . S
C160 N167 1.356 . S
C161 C160 1.363 1_565 S
C161 C164 1.363 1_455 S
N162 C164 1.356 . S
N162 H174 0.984 . S
N162 H175 0.985 . S
N163 C165 1.356 . S
N163 H168 0.984 . S
N163 H169 0.985 . S
C164 C158 1.379 . S
C164 C161 1.363 1_655 S
C164 N162 1.356 . S
C165 C159 1.363 1_455 S
C165 C160 1.379 . S
C165 N163 1.356 . S
N166 C158 1.356 . S
N166 H172 0.984 . S
N166 H173 0.984 . S
N167 C160 1.356 . S
N167 H170 0.984 . S
N167 H171 0.985 . S
H168 N163 0.984 . S
H169 N163 0.985 . S
H170 N167 0.984 . S
H171 N167 0.985 . S
H172 N166 0.984 . S
H173 N166 0.984 . S
H174 N162 0.984 . S
H175 N162 0.985 . S
C176 C177 1.363 . S
C176 C182 1.379 . S
C176 N184 1.356 . S
C177 C176 1.363 . S
C177 C183 1.363 . S
C178 C179 1.363 . S
C178 C183 1.379 . S
C178 N185 1.356 . S
C179 C178 1.363 . S
C179 C182 1.363 . S
N180 C182 1.356 . S
N180 H192 0.984 . S
N180 H193 0.985 . S
N181 C183 1.356 . S
N181 H186 0.984 . S
N181 H187 0.985 . S
C182 C176 1.379 . S
C182 C179 1.363 . S
C182 N180 1.356 . S
C183 C177 1.363 . S
C183 C178 1.379 . S
C183 N181 1.356 . S
N184 C176 1.356 . S
N184 H190 0.984 . S
N184 H191 0.984 . S
N185 C178 1.356 . S
N185 H188 0.984 . S
N185 H189 0.985 . S
H186 N181 0.984 . S
H187 N181 0.985 . S
H188 N185 0.984 . S
H189 N185 0.985 . S
H190 N184 0.984 . S
H191 N184 0.984 . S
H192 N180 0.984 . S
H193 N180 0.985 . S
C194 C195 1.363 . S
C194 C200 1.379 . S
C194 N202 1.356 . S
C195 C194 1.363 . S
C195 C201 1.363 . S
C196 C197 1.363 . S
C196 C201 1.379 . S
C196 N203 1.356 . S
C197 C196 1.363 . S
C197 C200 1.363 . S
N198 C200 1.356 . S
N198 H210 0.984 . S
N198 H211 0.985 . S
N199 C201 1.356 . S
N199 H204 0.984 . S
N199 H205 0.985 . S
C200 C194 1.379 . S
C200 C197 1.363 . S
C200 N198 1.356 . S
C201 C195 1.363 . S
C201 C196 1.379 . S
C201 N199 1.356 . S
N202 C194 1.356 . S
N202 H208 0.984 . S
N202 H209 0.984 . S
N203 C196 1.356 . S
N203 H206 0.984 . S
N203 H207 0.985 . S
H204 N199 0.984 . S
H205 N199 0.985 . S
H206 N203 0.984 . S
H207 N203 0.985 . S
H208 N202 0.984 . S
H209 N202 0.984 . S
H210 N198 0.984 . S
H211 N198 0.985 . S
C212 C213 1.363 . S
C212 C218 1.379 . S
C212 N220 1.356 . S
C213 C212 1.363 . S
C213 C219 1.363 . S
C214 C215 1.363 . S
C214 C219 1.379 . S
C214 N221 1.356 . S
C215 C214 1.363 . S
C215 C218 1.363 . S
N216 C218 1.356 . S
N216 H228 0.984 . S
N216 H229 0.985 . S
N217 C219 1.356 . S
N217 H222 0.984 . S
N217 H223 0.985 . S
C218 C212 1.379 . S
C218 C215 1.363 . S
C218 N216 1.356 . S
C219 C213 1.363 . S
C219 C214 1.379 . S
C219 N217 1.356 . S
N220 C212 1.356 . S
N220 H226 0.984 . S
N220 H227 0.984 . S
N221 C214 1.356 . S
N221 H224 0.984 . S
N221 H225 0.985 . S
H222 N217 0.984 . S
H223 N217 0.985 . S
H224 N221 0.984 . S
H225 N221 0.985 . S
H226 N220 0.984 . S
H227 N220 0.984 . S
H228 N216 0.984 . S
H229 N216 0.985 . S
C230 C231 1.363 . S
C230 C236 1.379 . S
C230 N238 1.356 . S
C231 C230 1.363 . S
C231 C237 1.363 . S
C232 C233 1.363 . S
C232 C237 1.379 . S
C232 N239 1.356 . S
C233 C232 1.363 . S
C233 C236 1.363 . S
N234 C236 1.356 . S
N234 H246 0.984 . S
N234 H247 0.985 . S
N235 C237 1.356 . S
N235 H240 0.984 . S
N235 H241 0.985 . S
C236 C230 1.379 . S
C236 C233 1.363 . S
C236 N234 1.356 . S
C237 C231 1.363 . S
C237 C232 1.379 . S
C237 N235 1.356 . S
N238 C230 1.356 . S
N238 H244 0.984 . S
N238 H245 0.984 . S
N239 C232 1.356 . S
N239 H242 0.984 . S
N239 H243 0.985 . S
H240 N235 0.984 . S
H241 N235 0.985 . S
H242 N239 0.984 . S
H243 N239 0.985 . S
H244 N238 0.984 . S
H245 N238 0.984 . S
H246 N234 0.984 . S
H247 N234 0.985 . S
C248 C249 1.363 . S
C248 C254 1.379 . S
C248 N256 1.356 . S
C249 C248 1.363 . S
C249 C255 1.363 . S
C250 C251 1.363 . S
C250 C255 1.379 . S
C250 N257 1.356 . S
C251 C250 1.363 . S
C251 C254 1.363 . S
N252 C254 1.356 . S
N252 H264 0.984 . S
N252 H265 0.985 . S
N253 C255 1.356 . S
N253 H258 0.984 . S
N253 H259 0.985 . S
C254 C248 1.379 . S
C254 C251 1.363 . S
C254 N252 1.356 . S
C255 C249 1.363 . S
C255 C250 1.379 . S
C255 N253 1.356 . S
N256 C248 1.356 . S
N256 H262 0.984 . S
N256 H263 0.984 . S
N257 C250 1.356 . S
N257 H260 0.984 . S
N257 H261 0.985 . S
H258 N253 0.984 . S
H259 N253 0.985 . S
H260 N257 0.984 . S
H261 N257 0.985 . S
H262 N256 0.984 . S
H263 N256 0.984 . S
H264 N252 0.984 . S
H265 N252 0.985 . S
C266 C267 1.363 . S
C266 C272 1.379 . S
C266 N274 1.356 . S
C267 C266 1.363 . S
C267 C273 1.363 . S
C268 C269 1.363 . S
C268 C273 1.379 . S
C268 N275 1.356 . S
C269 C268 1.363 . S
C269 C272 1.363 . S
N270 C272 1.356 . S
N270 H282 0.984 . S
N270 H283 0.985 . S
N271 C273 1.356 . S
N271 H276 0.984 . S
N271 H277 0.985 . S
C272 C266 1.379 . S
C272 C269 1.363 . S
C272 N270 1.356 . S
C273 C267 1.363 . S
C273 C268 1.379 . S
C273 N271 1.356 . S
N274 C266 1.356 . S
N274 H280 0.984 . S
N274 H281 0.984 . S
N275 C268 1.356 . S
N275 H278 0.984 . S
N275 H279 0.985 . S
H276 N271 0.984 . S
H277 N271 0.985 . S
H278 N275 0.984 . S
H279 N275 0.985 . S
H280 N274 0.984 . S
H281 N274 0.984 . S
H282 N270 0.984 . S
H283 N270 0.985 . S
C284 C285 1.363 . S
C284 C290 1.379 . S
C284 N292 1.356 . S
C285 C284 1.363 . S
C285 C291 1.363 . S
C286 C287 1.363 . S
C286 C291 1.379 . S
C286 N293 1.356 . S
C287 C286 1.363 . S
C287 C290 1.363 . S
N288 C290 1.356 1_545 S
N288 H300 0.984 . S
N288 H301 0.985 . S
N289 C291 1.356 . S
N289 H294 0.984 . S
N289 H295 0.985 . S
C290 C284 1.379 . S
C290 C287 1.363 . S
C290 N288 1.356 1_565 S
C291 C285 1.363 . S
C291 C286 1.379 . S
C291 N289 1.356 . S
N292 C284 1.356 . S
N292 H298 0.984 . S
N292 H299 0.984 . S
N293 C286 1.356 . S
N293 H296 0.984 . S
N293 H297 0.985 . S
H294 N289 0.984 . S
H295 N289 0.985 . S
H296 N293 0.984 . S
H297 N293 0.985 . S
H298 N292 0.984 . S
H299 N292 0.984 . S
H300 N288 0.984 . S
H301 N288 0.985 . S
C302 C303 1.363 . S
C302 C308 1.379 . S
C302 N310 1.356 . S
C303 C302 1.363 . S
C303 C309 1.363 . S
C304 C305 1.363 . S
C304 C309 1.379 . S
C304 N311 1.356 . S
C305 C304 1.363 . S
C305 C308 1.363 . S
N306 C308 1.356 . S
N306 H318 0.984 . S
N306 H319 0.985 . S
N307 C309 1.356 1_655 S
N307 H312 0.984 . S
N307 H313 0.985 . S
C308 C302 1.379 . S
C308 C305 1.363 . S
C308 N306 1.356 . S
C309 C303 1.363 . S
C309 C304 1.379 . S
C309 N307 1.356 1_455 S
N310 C302 1.356 . S
N310 H316 0.984 . S
N310 H317 0.984 . S
N311 C304 1.356 . S
N311 H314 0.984 . S
N311 H315 0.985 . S
H312 N307 0.984 . S
H313 N307 0.985 . S
H314 N311 0.984 . S
H315 N311 0.985 . S
H316 N310 0.984 . S
H317 N310 0.984 . S
H318 N306 0.984 . S
H319 N306 0.985 . S
C320 C321 1.363 . S
C320 C326 1.379 . S
C320 N328 1.356 . S
C321 C320 1.363 . S
C321 C327 1.363 . S
C322 C323 1.363 . S
C322 C327 1.379 . S
C322 N329 1.356 . S
C323 C322 1.363 . S
C323 C326 1.363 . S
N324 C326 1.356 . S
N324 H336 0.984 . S
N324 H337 0.985 . S
N325 C327 1.356 . S
N325 H330 0.984 . S
N325 H331 0.985 . S
C326 C320 1.379 . S
C326 C323 1.363 . S
C326 N324 1.356 . S
C327 C321 1.363 . S
C327 C322 1.379 . S
C327 N325 1.356 . S
N328 C320 1.356 . S
N328 H334 0.984 . S
N328 H335 0.984 . S
N329 C322 1.356 . S
N329 H332 0.984 . S
N329 H333 0.985 . S
H330 N325 0.984 . S
H331 N325 0.985 . S
H332 N329 0.984 . S
H333 N329 0.985 . S
H334 N328 0.984 . S
H335 N328 0.984 . S
H336 N324 0.984 . S
H337 N324 0.985 . S
C338 C339 1.363 . S
C338 C344 1.379 . S
C338 N346 1.356 . S
C339 C338 1.363 . S
C339 C345 1.363 . S
C340 C341 1.363 . S
C340 C345 1.379 . S
C340 N347 1.356 . S
C341 C340 1.363 . S
C341 C344 1.363 . S
N342 C344 1.356 . S
N342 H354 0.984 . S
N342 H355 0.985 . S
N343 C345 1.356 . S
N343 H348 0.984 . S
N343 H349 0.985 . S
C344 C338 1.379 . S
C344 C341 1.363 . S
C344 N342 1.356 . S
C345 C339 1.363 . S
C345 C340 1.379 . S
C345 N343 1.356 . S
N346 C338 1.356 . S
N346 H352 0.984 . S
N346 H353 0.984 . S
N347 C340 1.356 . S
N347 H350 0.984 . S
N347 H351 0.985 . S
H348 N343 0.984 . S
H349 N343 0.985 . S
H350 N347 0.984 . S
H351 N347 0.985 . S
H352 N346 0.984 . S
H353 N346 0.984 . S
H354 N342 0.984 . S
H355 N342 0.985 . S
C356 C357 1.363 . S
C356 C362 1.379 . S
C356 N364 1.356 . S
C357 C356 1.363 . S
C357 C363 1.363 . S
C358 C359 1.363 . S
C358 C363 1.379 . S
C358 N365 1.356 1_545 S
C359 C358 1.363 . S
C359 C362 1.363 . S
N360 C362 1.356 . S
N360 H372 0.984 . S
N360 H373 0.985 . S
N361 C363 1.356 . S
N361 H366 0.984 . S
N361 H367 0.985 . S
C362 C356 1.379 . S
C362 C359 1.363 . S
C362 N360 1.356 . S
C363 C357 1.363 . S
C363 C358 1.379 . S
C363 N361 1.356 . S
N364 C356 1.356 . S
N364 H370 0.984 . S
N364 H371 0.984 . S
N365 C358 1.356 1_565 S
N365 H368 0.984 . S
N365 H369 0.985 . S
H366 N361 0.984 . S
H367 N361 0.985 . S
H368 N365 0.984 . S
H369 N365 0.985 . S
H370 N364 0.984 . S
H371 N364 0.984 . S
H372 N360 0.984 . S
H373 N360 0.985 . S
C374 C375 1.363 . S
C374 C380 1.379 . S
C374 N382 1.356 . S
C375 C374 1.363 . S
C375 C381 1.363 1_655 S
C376 C377 1.363 . S
C376 C381 1.379 1_655 S
C376 N383 1.356 . S
C377 C376 1.363 . S
C377 C380 1.363 . S
N378 C380 1.356 . S
N378 H390 0.984 . S
N378 H391 0.985 . S
N379 C381 1.356 . S
N379 H384 0.984 . S
N379 H385 0.985 . S
C380 C374 1.379 . S
C380 C377 1.363 . S
C380 N378 1.356 . S
C381 C375 1.363 1_455 S
C381 C376 1.379 1_455 S
C381 N379 1.356 . S
N382 C374 1.356 . S
N382 H388 0.984 . S
N382 H389 0.984 . S
N383 C376 1.356 . S
N383 H386 0.984 . S
N383 H387 0.985 1_655 S
H384 N379 0.984 . S
H385 N379 0.985 . S
H386 N383 0.984 . S
H387 N383 0.985 1_455 S
H388 N382 0.984 . S
H389 N382 0.984 . S
H390 N378 0.984 . S
H391 N378 0.985 . S
C105 C55 1.805 . S
C107 C5 1.805 . S
C123 C18 1.805 . S
C125 C68 1.805 . S
C141 C31 1.805 . S
C143 C81 1.805 . S
C159 C94 1.805 . S
C161 C44 1.805 . S
C177 C3 1.851 . S
C179 C29 1.851 . S
C195 C16 1.851 . S
C197 C42 1.851 . S
C213 C83 1.851 . S
C215 C57 1.851 . S
C231 C70 1.851 . S
C233 C96 1.851 . S
C249 C66 1.487 . S
C251 C1 1.552 . S
C267 C14 1.552 . S
C269 C79 1.487 . S
C285 C27 1.552 . S
C287 C92 1.487 . S
C303 C53 1.487 . S
C305 C40 1.552 . S
C321 C62 1.552 . S
C323 C23 1.487 . S
C339 C75 1.552 . S
C341 C36 1.487 . S
C357 C88 1.552 . S
C359 C49 1.487 . S
C375 C10 1.487 . S
C377 C101 1.552 . S
