# Generated by pormake.
# Topology uoc, (4)-cn, num edge types: 1
# Building blocks:
#     Node 0, Type 0, BuildingBlock: CEKHIL_clean_sbu_0, # of connection points: 4
#     Node 1, Type 0, BuildingBlock: CEKHIL_clean_sbu_0, # of connection points: 4
#     Node 2, Type 0, BuildingBlock: CEKHIL_clean_sbu_0, # of connection points: 4
#     Node 3, Type 0, BuildingBlock: CEKHIL_clean_sbu_0, # of connection points: 4
#     Node 4, Type 0, BuildingBlock: CEKHIL_clean_sbu_0, # of connection points: 4
#     Node 5, Type 0, BuildingBlock: CEKHIL_clean_sbu_0, # of connection points: 4
#     Node 6, Type 0, BuildingBlock: CEKHIL_clean_sbu_0, # of connection points: 4
#     Node 7, Type 0, BuildingBlock: CEKHIL_clean_sbu_0, # of connection points: 4
#     Edge 8, Type (0, 0), BuildingBlock: ZUJKAS_clean_linker_0, # of connection points: 2
#     Edge 9, Type (0, 0), BuildingBlock: ZUJKAS_clean_linker_0, # of connection points: 2
#     Edge 10, Type (0, 0), BuildingBlock: ZUJKAS_clean_linker_0, # of connection points: 2
#     Edge 11, Type (0, 0), BuildingBlock: ZUJKAS_clean_linker_0, # of connection points: 2
#     Edge 12, Type (0, 0), BuildingBlock: ZUJKAS_clean_linker_0, # of connection points: 2
#     Edge 13, Type (0, 0), BuildingBlock: ZUJKAS_clean_linker_0, # of connection points: 2
#     Edge 14, Type (0, 0), BuildingBlock: ZUJKAS_clean_linker_0, # of connection points: 2
#     Edge 15, Type (0, 0), BuildingBlock: ZUJKAS_clean_linker_0, # of connection points: 2
#     Edge 16, Type (0, 0), BuildingBlock: ZUJKAS_clean_linker_0, # of connection points: 2
#     Edge 17, Type (0, 0), BuildingBlock: ZUJKAS_clean_linker_0, # of connection points: 2
#     Edge 18, Type (0, 0), BuildingBlock: ZUJKAS_clean_linker_0, # of connection points: 2
#     Edge 19, Type (0, 0), BuildingBlock: ZUJKAS_clean_linker_0, # of connection points: 2
#     Edge 20, Type (0, 0), BuildingBlock: ZUJKAS_clean_linker_0, # of connection points: 2
#     Edge 21, Type (0, 0), BuildingBlock: ZUJKAS_clean_linker_0, # of connection points: 2
#     Edge 22, Type (0, 0), BuildingBlock: ZUJKAS_clean_linker_0, # of connection points: 2
#     Edge 23, Type (0, 0), BuildingBlock: ZUJKAS_clean_linker_0, # of connection points: 2
# Relax obj value: 0.097
# Max RMSD: 0.108
# Mean RMSD: 0.108
data_MOF--net-uoc--node1-CEKHIL_clean_sbu_0--edge1-ZUJKAS_clean_linker_0
_symmetry_space_group_name_H-M    P1
_symmetry_Int_Tables_number       1
_symmetry_cell_setting            triclinic
loop_
_symmetry_equiv_pos_as_xyz
'x, y, z'
_cell_length_a     34.904944
_cell_length_b     34.926721
_cell_length_c     71.453154
_cell_angle_alpha  90.004523
_cell_angle_beta   90.012123
_cell_angle_gamma 92.38773
loop_
_atom_site_label
_atom_site_type_symbol
_atom_site_fract_x
_atom_site_fract_y
_atom_site_fract_z
_atom_type_partial_charge
Co0 Co 0.11669 0.26354 0.11061 0.0
O1 O 0.12244 0.31843 0.11119 0.0
O2 O 0.07076 0.28495 0.12069 0.0
C3 C 0.13868 0.25565 0.0814 0.0
O4 O 0.1003 0.20686 0.11136 0.0
Co5 Co 0.18906 0.21527 0.10709 0.0
O6 O 0.15087 0.17203 0.10381 0.0
C7 C 0.17234 0.25249 0.14277 0.0
C8 C 0.08807 0.31828 0.11809 0.0
C9 C 0.11533 0.17469 0.10752 0.0
O10 O 0.13921 0.26065 0.13643 0.0
O11 O 0.19823 0.23771 0.13271 0.0
O12 O 0.1034 0.26467 0.08419 0.0
O13 O 0.16034 0.2559 0.09608 0.0
Co14 Co 0.76659 0.61956 0.37038 0.0
O15 O 0.82145 0.62424 0.37217 0.0
O16 O 0.78895 0.5746 0.35976 0.0
C17 C 0.75447 0.63855 0.39969 0.0
O18 O 0.70995 0.60397 0.36712 0.0
Co19 Co 0.71809 0.69148 0.37392 0.0
O20 O 0.67445 0.65345 0.3755 0.0
C21 C 0.75907 0.6778 0.33882 0.0
C22 C 0.82193 0.59095 0.36416 0.0
C23 C 0.67744 0.61852 0.37076 0.0
O24 O 0.76856 0.64509 0.34516 0.0
O25 O 0.74091 0.70191 0.34855 0.0
O26 O 0.76296 0.60332 0.39637 0.0
O27 O 0.75731 0.6618 0.38563 0.0
Co28 Co 0.38135 0.23734 0.61065 0.0
O29 O 0.37508 0.18251 0.61108 0.0
O30 O 0.42709 0.2153 0.62069 0.0
C31 C 0.35954 0.24547 0.58143 0.0
O32 O 0.39822 0.29393 0.61158 0.0
Co33 Co 0.30966 0.28639 0.60699 0.0
O34 O 0.34822 0.32927 0.60374 0.0
C35 C 0.32558 0.2487 0.64271 0.0
C36 C 0.40938 0.18219 0.61803 0.0
C37 C 0.38363 0.32627 0.60765 0.0
O38 O 0.35859 0.23998 0.63643 0.0
O39 O 0.30016 0.26418 0.63261 0.0
O40 O 0.39483 0.23654 0.58425 0.0
O41 O 0.33778 0.24526 0.59606 0.0
Co42 Co 0.73542 0.88489 0.87045 0.0
O43 O 0.68054 0.87849 0.86993 0.0
O44 O 0.71331 0.93064 0.86049 0.0
C45 C 0.74324 0.86277 0.89963 0.0
O46 O 0.79209 0.90212 0.86962 0.0
Co47 Co 0.78545 0.81404 0.87418 0.0
O48 O 0.82744 0.85293 0.87852 0.0
C49 C 0.7494 0.83045 0.83801 0.0
C50 C 0.68021 0.91282 0.86302 0.0
C51 C 0.82436 0.88809 0.87424 0.0
O52 O 0.73799 0.86223 0.84463 0.0
O53 O 0.7669 0.80597 0.84782 0.0
O54 O 0.73444 0.89811 0.89687 0.0
O55 O 0.74339 0.84118 0.88493 0.0
Co56 Co 0.6158 0.76618 0.61187 0.0
O57 O 0.62038 0.82116 0.6113 0.0
O58 O 0.57012 0.78747 0.62229 0.0
C59 C 0.63577 0.75638 0.58248 0.0
O60 O 0.60041 0.7093 0.61392 0.0
Co61 Co 0.68827 0.71845 0.60788 0.0
O62 O 0.65062 0.67457 0.60572 0.0
C63 C 0.67369 0.75759 0.64342 0.0
C64 C 0.58653 0.82087 0.6188 0.0
C65 C 0.61542 0.67709 0.61012 0.0
O66 O 0.64051 0.76623 0.6373 0.0
O67 O 0.69838 0.74099 0.63334 0.0
O68 O 0.60044 0.76465 0.58572 0.0
O69 O 0.65861 0.75828 0.59673 0.0
Co70 Co 0.26494 0.11869 0.8693 0.0
O71 O 0.31985 0.1239 0.86805 0.0
O72 O 0.28538 0.07274 0.85871 0.0
C73 C 0.25879 0.13993 0.89877 0.0
O74 O 0.20796 0.10308 0.86919 0.0
Co75 Co 0.21821 0.19196 0.87385 0.0
O76 O 0.1741 0.15457 0.87643 0.0
C77 C 0.25375 0.17561 0.83776 0.0
C78 C 0.31901 0.08967 0.86099 0.0
C79 C 0.17609 0.11893 0.87284 0.0
O80 O 0.26095 0.14192 0.84367 0.0
O81 O 0.24041 0.20164 0.84823 0.0
O82 O 0.26735 0.10468 0.8956 0.0
O83 O 0.25857 0.162 0.88425 0.0
Co84 Co 0.88325 0.7344 0.11089 0.0
O85 O 0.87796 0.6795 0.11121 0.0
O86 O 0.92955 0.71321 0.12073 0.0
C87 C 0.86093 0.74254 0.08178 0.0
O88 O 0.89925 0.79125 0.11196 0.0
Co89 Co 0.81094 0.78254 0.10763 0.0
O90 O 0.84867 0.82603 0.1044 0.0
C91 C 0.82827 0.7456 0.14342 0.0
C92 C 0.91232 0.67984 0.11814 0.0
C93 C 0.88416 0.82343 0.1082 0.0
O94 O 0.86071 0.73607 0.13674 0.0
O95 O 0.80294 0.76201 0.13366 0.0
O96 O 0.89645 0.73424 0.08447 0.0
O97 O 0.83928 0.74176 0.09647 0.0
Co98 Co 0.23792 0.38715 0.36921 0.0
O99 O 0.18302 0.38328 0.37033 0.0
O100 O 0.21678 0.43315 0.35895 0.0
C101 C 0.24773 0.36626 0.39846 0.0
O102 O 0.29487 0.40171 0.3668 0.0
Co103 Co 0.28456 0.3139 0.37257 0.0
O104 O 0.32909 0.35093 0.37459 0.0
C105 C 0.24437 0.32953 0.3375 0.0
C106 C 0.1834 0.41713 0.36288 0.0
C107 C 0.32696 0.38623 0.37033 0.0
O108 O 0.2371 0.36302 0.34366 0.0
O109 O 0.25995 0.30404 0.3475 0.0
O110 O 0.24036 0.4019 0.39546 0.0
O111 O 0.24542 0.34392 0.38406 0.0
H112 H 0.09771 0.25109 0.049 0.0
H113 H 0.12012 0.23179 0.01814 0.0
H114 H 0.23273 0.21504 0.0408 0.0
H115 H 0.21061 0.2347 0.07177 0.0
H116 H 0.23237 0.25664 0.00661 0.0
H117 H 0.14338 0.12135 0.00278 0.0
H118 H 0.1169 0.16305 0.00802 0.0
H119 H 0.15186 0.14704 0.02442 0.0
C120 C 0.12724 0.24327 0.04743 0.0
C121 C 0.15241 0.24424 0.06279 0.0
C122 C 0.13992 0.2321 0.02982 0.0
C123 C 0.17788 0.22153 0.0273 0.0
C124 C 0.20325 0.22296 0.04253 0.0
H125 H 0.26313 0.10029 0.93139 0.0
H126 H 0.2454 0.12139 0.96269 0.0
C127 C 0.19058 0.23411 0.06018 0.0
C128 C 0.1911 0.20927 0.00868 0.0
H129 H 0.17513 0.14155 0.97488 0.0
C130 C 0.22004 0.2314 -0.00033 0.0
C131 C 0.17518 0.1761 -0.00017 0.0
C132 C 0.14536 0.15026 0.0093 0.0
C133 C 0.23308 0.22155 0.9818 0.0
C134 C 0.21622 0.18909 0.97267 0.0
C135 C 0.18773 0.16664 0.98185 0.0
C136 C 0.22816 0.1773 0.95374 0.0
C137 C 0.26515 0.24562 0.97299 0.0
C138 C 0.22415 0.20172 0.93832 0.0
C139 C 0.2345 0.18982 0.9204 0.0
C140 C 0.24857 0.15314 0.91764 0.0
C141 C 0.25237 0.12872 0.93309 0.0
C142 C 0.24225 0.14071 0.95098 0.0
H143 H 0.28156 0.26278 0.98361 0.0
H144 H 0.28527 0.22745 0.96533 0.0
H145 H 0.25284 0.2658 0.96286 0.0
H146 H 0.21251 0.22975 0.94009 0.0
H147 H 0.23103 0.20912 0.90872 0.0
H148 H 0.8087 0.6419 0.31576 0.0
H149 H 0.82174 0.65529 0.28279 0.0
H150 H 0.74271 0.74698 0.28404 0.0
H151 H 0.73018 0.73448 0.31716 0.0
H152 H 0.77179 0.65089 0.25396 0.0
H153 H 0.83486 0.79887 0.25928 0.0
H154 H 0.8281 0.76816 0.27942 0.0
H155 H 0.78849 0.79334 0.27 0.0
C156 C 0.79434 0.66519 0.30909 0.0
C157 C 0.76846 0.68721 0.31912 0.0
C158 C 0.80184 0.67277 0.29024 0.0
C159 C 0.7836 0.70245 0.28104 0.0
C160 C 0.75783 0.72457 0.29099 0.0
H161 H 0.7704 0.77278 0.16495 0.0
H162 H 0.75896 0.76136 0.19833 0.0
C163 C 0.75056 0.71724 0.30991 0.0
C164 C 0.7901 0.70891 0.2608 0.0
H165 H 0.81859 0.77659 0.22865 0.0
C166 C 0.78225 0.67831 0.24844 0.0
C167 C 0.80376 0.74472 0.25364 0.0
C168 C 0.81466 0.77804 0.26628 0.0
C169 C 0.7872 0.68272 0.22908 0.0
C170 C 0.80038 0.71859 0.22197 0.0
C171 C 0.80823 0.74921 0.23425 0.0
C172 C 0.80684 0.72468 0.20178 0.0
C173 C 0.77789 0.64922 0.2163 0.0
C174 C 0.83763 0.70785 0.19283 0.0
C175 C 0.84441 0.71442 0.17383 0.0
C176 C 0.82039 0.73788 0.16345 0.0
C177 C 0.78934 0.75445 0.1725 0.0
C178 C 0.78279 0.74807 0.19155 0.0
H179 H 0.76186 0.62555 0.22365 0.0
H180 H 0.76067 0.65844 0.20416 0.0
H181 H 0.80495 0.63797 0.2108 0.0
H182 H 0.85664 0.68996 0.2006 0.0
H183 H 0.86852 0.70113 0.16731 0.0
H184 H 0.28534 0.24859 0.56976 0.0
H185 H 0.26257 0.26456 0.53839 0.0
H186 H 0.3796 0.28431 0.52013 0.0
H187 H 0.40242 0.26668 0.55113 0.0
H188 H 0.26848 0.3274 0.51886 0.0
H189 H 0.34077 0.21513 0.4795 0.0
H190 H 0.3384 0.21525 0.50471 0.0
H191 H 0.37489 0.24382 0.49268 0.0
C192 C 0.30614 0.2561 0.55898 0.0
C193 C 0.34561 0.25604 0.56276 0.0
C194 C 0.29313 0.2652 0.54109 0.0
C195 C 0.3194 0.27474 0.52677 0.0
C196 C 0.35882 0.27573 0.53074 0.0
H197 H 0.27425 0.40801 0.42826 0.0
H198 H 0.28977 0.38443 0.45945 0.0
C199 C 0.37183 0.26598 0.5485 0.0
C200 C 0.30568 0.28509 0.50788 0.0
H201 H 0.31931 0.26815 0.46139 0.0
C202 C 0.27925 0.31413 0.50629 0.0
C203 C 0.31897 0.26716 0.49149 0.0
C204 C 0.34446 0.23332 0.49219 0.0
C205 C 0.26685 0.3267 0.48875 0.0
C206 C 0.28252 0.31086 0.47235 0.0
C207 C 0.30783 0.28084 0.47395 0.0
C208 C 0.27344 0.32518 0.45339 0.0
C209 C 0.23671 0.35644 0.48808 0.0
C210 C 0.26085 0.29952 0.43932 0.0
C211 C 0.2531 0.31282 0.42134 0.0
C212 C 0.25736 0.35205 0.4172 0.0
C213 C 0.27027 0.37768 0.43119 0.0
C214 C 0.27878 0.36427 0.44905 0.0
H215 H 0.21859 0.35537 0.50087 0.0
H216 H 0.25097 0.38539 0.48737 0.0
H217 H 0.21779 0.35245 0.47567 0.0
H218 H 0.25678 0.26921 0.44229 0.0
H219 H 0.24313 0.29248 0.41079 0.0
H220 H 0.69509 0.86038 0.81549 0.0
H221 H 0.68337 0.84687 0.78238 0.0
H222 H 0.77685 0.76983 0.78201 0.0
H223 H 0.78782 0.78209 0.81531 0.0
H224 H 0.7286 0.85959 0.75286 0.0
H225 H 0.69395 0.70357 0.75833 0.0
H226 H 0.69737 0.73432 0.77859 0.0
H227 H 0.74005 0.71717 0.76786 0.0
C228 C 0.71301 0.84037 0.80838 0.0
C229 C 0.74221 0.82208 0.81802 0.0
C230 C 0.70628 0.83269 0.78947 0.0
C231 C 0.72879 0.80683 0.7798 0.0
C232 C 0.75839 0.789 0.78932 0.0
H233 H 0.73724 0.73758 0.66313 0.0
H234 H 0.75181 0.75086 0.69603 0.0
C235 C 0.76476 0.7962 0.80832 0.0
C236 C 0.72193 0.79955 0.75963 0.0
H237 H 0.70236 0.72878 0.72763 0.0
C238 C 0.7227 0.831 0.74736 0.0
C239 C 0.71424 0.7622 0.75248 0.0
C240 C 0.71096 0.72744 0.76502 0.0
C241 C 0.71627 0.82609 0.72812 0.0
C242 C 0.70881 0.7888 0.72102 0.0
C243 C 0.70832 0.75731 0.7332 0.0
C244 C 0.70048 0.78191 0.70102 0.0
C245 C 0.71785 0.86074 0.7155 0.0
C246 C 0.6667 0.79487 0.69306 0.0
C247 C 0.65818 0.78729 0.6743 0.0
C248 C 0.68332 0.76652 0.66318 0.0
C249 C 0.71729 0.75374 0.67125 0.0
C250 C 0.72567 0.76122 0.69004 0.0
H251 H 0.73205 0.88607 0.7224 0.0
H252 H 0.7334 0.85465 0.70234 0.0
H253 H 0.68822 0.86816 0.71174 0.0
H254 H 0.64667 0.81042 0.70143 0.0
H255 H 0.63175 0.79754 0.66859 0.0
H256 H 0.24049 0.37996 0.30861 0.0
H257 H 0.22832 0.36559 0.27569 0.0
H258 H 0.21514 0.24512 0.28879 0.0
H259 H 0.22934 0.25922 0.32169 0.0
H260 H 0.25601 0.25419 0.25867 0.0
H261 H 0.12863 0.34173 0.25092 0.0
H262 H 0.16941 0.37037 0.25859 0.0
H263 H 0.14982 0.33263 0.27341 0.0
C264 C 0.23473 0.35043 0.3045 0.0
C265 C 0.23559 0.32071 0.31773 0.0
C266 C 0.22752 0.34227 0.28568 0.0
C267 C 0.21984 0.30437 0.2798 0.0
C268 C 0.22077 0.27462 0.29301 0.0
H269 H 0.12064 0.25121 0.1712 0.0
H270 H 0.13304 0.26147 0.20446 0.0
C271 C 0.22883 0.28268 0.31179 0.0
C272 C 0.21207 0.29568 0.25981 0.0
H273 H 0.1574 0.3208 0.22256 0.0
C274 C 0.23418 0.26848 0.25081 0.0
C275 C 0.1832 0.31388 0.24961 0.0
C276 C 0.15616 0.34093 0.2587 0.0
C277 C 0.22858 0.25932 0.23186 0.0
C278 C 0.20116 0.27909 0.22141 0.0
C279 C 0.17877 0.30596 0.23048 0.0
C280 C 0.19431 0.27177 0.2012 0.0
C281 C 0.25146 0.22786 0.22346 0.0
C282 C 0.22457 0.2743 0.18822 0.0
C283 C 0.21763 0.26751 0.16921 0.0
C284 C 0.18014 0.25932 0.16281 0.0
C285 C 0.14981 0.25764 0.17574 0.0
C286 C 0.15688 0.2635 0.19475 0.0
H287 H 0.26123 0.2078 0.23437 0.0
H288 H 0.23447 0.21116 0.21289 0.0
H289 H 0.27737 0.24074 0.21654 0.0
H290 H 0.25349 0.28191 0.19274 0.0
H291 H 0.24144 0.26945 0.15949 0.0
H292 H 0.59095 0.731 0.55355 0.0
H293 H 0.61177 0.70995 0.52271 0.0
H294 H 0.72972 0.73463 0.53829 0.0
H295 H 0.70906 0.75402 0.5695 0.0
H296 H 0.6476 0.74745 0.49584 0.0
H297 H 0.73742 0.6287 0.51824 0.0
H298 H 0.70619 0.65248 0.53418 0.0
H299 H 0.75271 0.6736 0.52852 0.0
C300 C 0.62134 0.73168 0.55043 0.0
C301 C 0.64845 0.74391 0.5639 0.0
C302 C 0.6332 0.71969 0.53281 0.0
C303 C 0.67235 0.72008 0.52828 0.0
C304 C 0.69945 0.73298 0.54164 0.0
H305 H 0.75434 0.71141 0.41321 0.0
H306 H 0.73483 0.73183 0.44441 0.0
C307 C 0.68762 0.74432 0.5594 0.0
C308 C 0.68451 0.708 0.50938 0.0
H309 H 0.74263 0.64763 0.48631 0.0
C310 C 0.66822 0.72545 0.49375 0.0
C311 C 0.71102 0.67893 0.50667 0.0
C312 C 0.72753 0.65707 0.52279 0.0
C313 C 0.67775 0.71476 0.47547 0.0
C314 C 0.70548 0.68685 0.47276 0.0
C315 C 0.72166 0.66929 0.4884 0.0
C316 C 0.71758 0.67473 0.45386 0.0
C317 C 0.65716 0.73279 0.45934 0.0
C318 C 0.71574 0.63573 0.44901 0.0
C319 C 0.72786 0.62395 0.43139 0.0
C320 C 0.74161 0.65102 0.41824 0.0
C321 C 0.74342 0.69003 0.42305 0.0
C322 C 0.73201 0.70174 0.44081 0.0
H323 H 0.62914 0.74374 0.46378 0.0
H324 H 0.67491 0.75748 0.45395 0.0
H325 H 0.65202 0.71205 0.44774 0.0
H326 H 0.70483 0.61437 0.45886 0.0
H327 H 0.72612 0.59369 0.42801 0.0
H328 H 0.37678 0.24039 0.67107 0.0
H329 H 0.36304 0.22873 0.70409 0.0
H330 H 0.24165 0.22727 0.69249 0.0
H331 H 0.25523 0.24068 0.65948 0.0
H332 H 0.25676 0.26634 0.72309 0.0
H333 H 0.33033 0.12949 0.72767 0.0
H334 H 0.36233 0.16769 0.71993 0.0
H335 H 0.32183 0.15281 0.70565 0.0
C336 C 0.34714 0.23742 0.67552 0.0
C337 C 0.31706 0.24117 0.66265 0.0
C338 C 0.33933 0.2305 0.69439 0.0
C339 C 0.30133 0.22616 0.7007 0.0
C340 C 0.27121 0.23027 0.68791 0.0
H341 H 0.24531 0.12588 0.80873 0.0
H342 H 0.25433 0.13931 0.77546 0.0
C343 C 0.279 0.2379 0.66906 0.0
C344 C 0.29303 0.21816 0.7207 0.0
H345 H 0.3141 0.15853 0.7567 0.0
C346 C 0.269 0.24256 0.73042 0.0
C347 C 0.30848 0.18675 0.73018 0.0
C348 C 0.33181 0.15747 0.72026 0.0
C349 C 0.26042 0.23675 0.74942 0.0
C350 C 0.27762 0.20659 0.75915 0.0
C351 C 0.30127 0.18194 0.74934 0.0
C352 C 0.27088 0.19927 0.77937 0.0
C353 C 0.23228 0.26245 0.75864 0.0
C354 C 0.27729 0.22841 0.79272 0.0
C355 C 0.27114 0.22098 0.81173 0.0
C356 C 0.2598 0.18396 0.81775 0.0
C357 C 0.25424 0.15465 0.80445 0.0
C358 C 0.25938 0.16231 0.78545 0.0
H359 H 0.21276 0.27494 0.7482 0.0
H360 H 0.2146 0.24669 0.76927 0.0
H361 H 0.24825 0.28656 0.76564 0.0
H362 H 0.28745 0.2568 0.78848 0.0
H363 H 0.27609 0.24393 0.82175 0.0
H364 H 0.7867 0.74149 0.06989 0.0
H365 H 0.76336 0.75721 0.0386 0.0
H366 H 0.87945 0.78536 0.02101 0.0
H367 H 0.90296 0.76781 0.05191 0.0
H368 H 0.765 0.82048 0.01974 0.0
H369 H 0.8464 0.7162 0.97946 0.0
H370 H 0.84381 0.71503 0.00465 0.0
H371 H 0.87817 0.74679 -0.00701 0.0
C372 C 0.80718 0.75078 0.05927 0.0
C373 C 0.84662 0.75306 0.06319 0.0
C374 C 0.79386 0.75975 0.04142 0.0
C375 C 0.81974 0.77156 0.0273 0.0
C376 C 0.85906 0.77496 0.03144 0.0
H377 H 0.76576 0.90485 0.93001 0.0
H378 H 0.78251 0.8812 0.961 0.0
C379 C 0.87244 0.76526 0.04914 0.0
C380 C 0.80557 0.78174 0.00845 0.0
H381 H 0.82094 0.76795 0.96184 0.0
C382 C 0.77692 0.80864 0.00708 0.0
C383 C 0.82043 0.76567 -0.00808 0.0
C384 C 0.84856 0.734 -0.00767 0.0
C385 C 0.76367 0.82089 0.98964 0.0
C386 C 0.78068 0.80702 0.97312 0.0
C387 C 0.80836 0.77912 0.97449 0.0
C388 C 0.77067 0.82137 0.95428 0.0
C389 C 0.73122 0.84813 0.98918 0.0
C390 C 0.76015 0.79555 0.93992 0.0
C391 C 0.75167 0.80898 0.92204 0.0
C392 C 0.75313 0.84847 0.91831 0.0
C393 C 0.76391 0.87427 0.93261 0.0
C394 C 0.77313 0.8608 0.95037 0.0
H395 H 0.71307 0.84512 0.00191 0.0
H396 H 0.74325 0.87803 0.9888 0.0
H397 H 0.71272 0.84323 0.97669 0.0
H398 H 0.75833 0.76498 0.94257 0.0
H399 H 0.74344 0.7885 0.91123 0.0
H400 H 0.13782 0.101 0.10358 0.0
H401 H 0.09775 0.0421 0.10407 0.0
H402 H 0.99733 0.10772 0.11256 0.0
H403 H 0.03716 0.16715 0.11206 0.0
H404 H 0.04641 0.0157 0.13403 0.0
H405 H 0.97206 0.03777 0.06623 0.0
H406 H 0.01634 0.06336 0.07236 0.0
H407 H 0.97194 0.07691 0.08259 0.0
C408 C 0.1072 0.10311 0.10549 0.0
C409 C 0.09074 0.13897 0.10771 0.0
C410 C 0.08439 0.06932 0.10581 0.0
C411 C 0.04463 0.07063 0.10818 0.0
C412 C 0.02797 0.10621 0.11048 0.0
H413 H 0.86057 0.89702 0.10791 0.0
H414 H 0.90005 0.95618 0.10868 0.0
C415 C 0.05081 0.14011 0.11026 0.0
C416 C 0.0208 0.03457 0.10843 0.0
H417 H 0.95219 0.98345 0.08389 0.0
C418 C 0.0258 0.00853 0.12309 0.0
C419 C 0.99398 0.0255 0.09413 0.0
C420 C 0.98828 0.05213 0.07783 0.0
C421 C 0.00417 0.97376 0.12399 0.0
C422 C 0.9776 0.96442 0.10956 0.0
C423 C 0.97263 0.99059 0.09491 0.0
C424 C 0.95406 0.92802 0.10951 0.0
C425 C 0.00933 0.94788 0.14064 0.0
C426 C 0.9713 0.89237 0.10958 0.0
C427 C 0.94872 0.85828 0.1093 0.0
C428 C 0.90849 0.85926 0.10864 0.0
C429 C 0.89144 0.89509 0.10836 0.0
C430 C 0.91397 0.92903 0.10881 0.0
H431 H 0.02218 0.96378 0.15273 0.0
H432 H 0.98155 0.93415 0.1451 0.0
H433 H 0.02894 0.92496 0.13678 0.0
H434 H 0.00222 0.89088 0.10964 0.0
H435 H 0.9628 0.83123 0.10936 0.0
H436 H 0.11721 0.40606 0.38206 0.0
H437 H 0.05645 0.43606 0.37688 0.0
H438 H 0.10588 0.49988 0.33044 0.0
H439 H 0.16792 0.47131 0.33641 0.0
H440 H 0.06399 0.54419 0.34914 0.0
H441 H 0.97684 0.41096 0.33937 0.0
H442 H 0.00035 0.40894 0.36157 0.0
H443 H 0.02847 0.4112 0.34035 0.0
C444 C 0.11512 0.4264 0.3707 0.0
C445 C 0.14712 0.43618 0.35953 0.0
C446 C 0.08019 0.44323 0.3676 0.0
C447 C 0.076 0.46922 0.35282 0.0
C448 C 0.1082 0.47952 0.34178 0.0
H449 H 0.83746 0.5369 0.33771 0.0
H450 H 0.89968 0.5093 0.33125 0.0
C451 C 0.14361 0.4633 0.3452 0.0
C452 C 0.03847 0.48692 0.34976 0.0
H453 H 0.94207 0.46601 0.34995 0.0
C454 C 0.03737 0.52702 0.34895 0.0
C455 C 0.00358 0.46473 0.34885 0.0
C456 C 0.00246 0.42159 0.34734 0.0
C457 C 0.00242 0.54547 0.34858 0.0
C458 C 0.96757 0.52331 0.34994 0.0
C459 C 0.96866 0.48319 0.34941 0.0
C460 C 0.93008 0.541 0.35314 0.0
C461 C 0.00343 0.58855 0.34676 0.0
C462 C 0.92617 0.56742 0.36776 0.0
C463 C 0.89104 0.58368 0.37116 0.0
C464 C 0.85864 0.57293 0.36045 0.0
C465 C 0.86204 0.54563 0.34618 0.0
C466 C 0.89756 0.52996 0.34248 0.0
H467 H 0.02875 0.59895 0.3385 0.0
H468 H 0.97716 0.59869 0.33991 0.0
H469 H 0.00603 0.60164 0.36088 0.0
H470 H 0.95023 0.57523 0.37674 0.0
H471 H 0.8891 0.60425 0.38244 0.0
H472 H 0.3619 0.40012 0.60338 0.0
H473 H 0.4023 0.45876 0.60435 0.0
H474 H 0.50184 0.39243 0.61393 0.0
H475 H 0.46165 0.33324 0.61295 0.0
H476 H 0.45201 0.48461 0.63495 0.0
H477 H 0.53013 0.46279 0.56818 0.0
H478 H 0.48544 0.43732 0.57365 0.0
H479 H 0.52917 0.4235 0.58447 0.0
C480 C 0.3924 0.3978 0.60563 0.0
C481 C 0.4085 0.3618 0.60804 0.0
C482 C 0.41541 0.43144 0.60622 0.0
C483 C 0.45502 0.42987 0.60905 0.0
C484 C 0.47133 0.39415 0.61149 0.0
H485 H 0.63927 0.60361 0.61071 0.0
H486 H 0.59992 0.54432 0.61143 0.0
C487 C 0.44829 0.36038 0.611 0.0
C488 C 0.47901 0.46581 0.60969 0.0
H489 H 0.54911 0.51693 0.58616 0.0
C490 C 0.47327 0.49178 0.62431 0.0
C491 C 0.50668 0.47491 0.59578 0.0
C492 C 0.51321 0.44839 0.57952 0.0
C493 C 0.49491 0.5265 0.62555 0.0
C494 C 0.52232 0.53588 0.6115 0.0
C495 C 0.52806 0.50977 0.5969 0.0
C496 C 0.5458 0.57233 0.61174 0.0
C497 C 0.48882 0.55229 0.64214 0.0
C498 C 0.52848 0.60794 0.61162 0.0
C499 C 0.55098 0.64208 0.61139 0.0
C500 C 0.59122 0.6412 0.61096 0.0
C501 C 0.60838 0.60544 0.61098 0.0
C502 C 0.58592 0.57143 0.61139 0.0
H503 H 0.47547 0.53628 0.65406 0.0
H504 H 0.5163 0.56615 0.64693 0.0
H505 H 0.46926 0.5751 0.63806 0.0
H506 H 0.49755 0.60936 0.6114 0.0
H507 H 0.53683 0.6691 0.6112 0.0
H508 H 0.66707 0.98888 0.85747 0.0
H509 H 0.60462 0.01785 0.85368 0.0
H510 H 0.54853 0.90547 0.85466 0.0
H511 H 0.61035 0.87659 0.85902 0.0
H512 H 0.5465 0.01021 0.82759 0.0
H513 H 0.4952 0.95846 0.89695 0.0
H514 H 0.54461 0.95637 0.88982 0.0
H515 H 0.50968 0.92059 0.88191 0.0
C516 C 0.6414 0.97042 0.85677 0.0
C517 C 0.64349 0.93056 0.85883 0.0
C518 C 0.60578 0.98696 0.8546 0.0
C519 C 0.57184 0.96385 0.85435 0.0
C520 C 0.5742 0.92392 0.85537 0.0
H521 H 0.32882 0.01389 0.85301 0.0
H522 H 0.38987 0.98238 0.84896 0.0
C523 C 0.6096 0.90746 0.85777 0.0
C524 C 0.53386 0.98137 0.85365 0.0
H525 H 0.44933 0.98664 0.87742 0.0
C526 C 0.52527 0.00512 0.83849 0.0
C527 C 0.50621 0.97479 0.86793 0.0
C528 C 0.51445 0.95149 0.88516 0.0
C529 C 0.48957 0.02212 0.83714 0.0
C530 C 0.46196 0.01527 0.85136 0.0
C531 C 0.47045 0.99138 0.86643 0.0
C532 C 0.42502 0.0346 0.85163 0.0
C533 C 0.48151 0.04709 0.8205 0.0
C534 C 0.4247 0.0743 0.8544 0.0
C535 C 0.39006 0.09223 0.85686 0.0
C536 C 0.35505 0.07078 0.85659 0.0
C537 C 0.35532 0.03115 0.85323 0.0
C538 C 0.39012 0.01314 0.85092 0.0
H539 H 0.50151 0.04207 0.80874 0.0
H540 H 0.4516 0.04191 0.81551 0.0
H541 H 0.48501 0.07764 0.82468 0.0
H542 H 0.45134 0.09125 0.85531 0.0
H543 H 0.39081 0.12283 0.8594 0.0
H544 H 0.87673 0.61052 0.12432 0.0
H545 H 0.90617 0.54912 0.12904 0.0
H546 H 0.01847 0.6052 0.1255 0.0
H547 H 0.98895 0.66717 0.12151 0.0
H548 H 0.94887 0.51423 0.10471 0.0
H549 H 0.03365 0.53679 0.16961 0.0
H550 H 0.99792 0.56948 0.16221 0.0
H551 H 0.04517 0.57211 0.15206 0.0
C552 C 0.90771 0.60986 0.12483 0.0
C553 C 0.9306 0.64357 0.12252 0.0
C554 C 0.9245 0.57475 0.12755 0.0
C555 C 0.96454 0.57249 0.12782 0.0
C556 C 0.98752 0.60628 0.12583 0.0
H557 H 0.12005 0.39047 0.1155 0.0
H558 H 0.08862 0.45103 0.11965 0.0
C559 C 0.97066 0.64165 0.12342 0.0
C560 C 0.98183 0.53437 0.12853 0.0
H561 H 0.04755 0.48154 0.15135 0.0
C562 C 0.97009 0.50697 0.11508 0.0
C563 C 0.00961 0.52489 0.14201 0.0
C564 C 0.02206 0.55224 0.1574 0.0
C565 C 0.98595 0.47078 0.11444 0.0
C566 C 0.01416 0.46158 0.12769 0.0
C567 C 0.02578 0.48873 0.14125 0.0
C568 C 0.03347 0.42469 0.12691 0.0
C569 C 0.9733 0.44307 0.09921 0.0
C570 C 0.01298 0.38981 0.13002 0.0
C571 C 0.03087 0.355 0.12763 0.0
C572 C 0.0695 0.35466 0.12211 0.0
C573 C 0.09019 0.38973 0.11966 0.0
C574 C 0.07235 0.4244 0.12209 0.0
H575 H 0.95671 0.45716 0.08807 0.0
H576 H 0.99844 0.42983 0.09272 0.0
H577 H 0.95476 0.41978 0.10538 0.0
H578 H 0.98302 0.38953 0.13397 0.0
H579 H 0.01427 0.32845 0.12972 0.0
H580 H 0.33548 0.46424 0.36584 0.0
H581 H 0.39546 0.50318 0.36472 0.0
H582 H 0.46001 0.40157 0.37155 0.0
H583 H 0.40052 0.36237 0.37266 0.0
H584 H 0.45459 0.5061 0.39369 0.0
H585 H 0.50849 0.45677 0.32494 0.0
H586 H 0.45872 0.45098 0.33171 0.0
H587 H 0.49341 0.41963 0.34107 0.0
C588 C 0.36241 0.4501 0.36699 0.0
C589 C 0.36309 0.41011 0.36931 0.0
C590 C 0.39663 0.47242 0.36637 0.0
C591 C 0.43209 0.45514 0.36782 0.0
C592 C 0.43293 0.41534 0.3701 0.0
H593 H 0.67029 0.54 0.36845 0.0
H594 H 0.61082 0.50012 0.36791 0.0
C595 C 0.39881 0.39304 0.37084 0.0
C596 C 0.46826 0.47883 0.36767 0.0
H597 H 0.55093 0.4964 0.34302 0.0
C598 C 0.47561 0.50419 0.38258 0.0
C599 C 0.4957 0.47586 0.35325 0.0
C600 C 0.48874 0.44958 0.33673 0.0
C601 C 0.51 0.52637 0.3836 0.0
C602 C 0.53732 0.52384 0.36904 0.0
C603 C 0.52998 0.49832 0.35416 0.0
C604 C 0.57336 0.54793 0.36887 0.0
C605 C 0.5171 0.5516 0.40051 0.0
C606 C 0.57202 0.58799 0.36916 0.0
C607 C 0.60581 0.61078 0.36961 0.0
C608 C 0.64179 0.59401 0.36949 0.0
C609 C 0.6431 0.55385 0.36858 0.0
C610 C 0.60915 0.53102 0.36828 0.0
H611 H 0.49942 0.54172 0.41265 0.0
H612 H 0.54776 0.55228 0.4047 0.0
H613 H 0.50923 0.58125 0.39712 0.0
H614 H 0.54476 0.60171 0.36906 0.0
H615 H 0.60366 0.64161 0.37005 0.0
H616 H 0.37386 0.11162 0.6198 0.0
H617 H 0.4031 0.05005 0.62411 0.0
H618 H 0.51445 0.10755 0.62903 0.0
H619 H 0.48507 0.16965 0.62523 0.0
H620 H 0.45389 0.01955 0.6012 0.0
H621 H 0.51718 0.03301 0.67219 0.0
H622 H 0.48265 0.06569 0.66345 0.0
H623 H 0.53226 0.0713 0.65677 0.0
C624 C 0.40453 0.11127 0.62205 0.0
C625 C 0.42722 0.14548 0.62214 0.0
C626 C 0.42119 0.07601 0.62453 0.0
C627 C 0.46091 0.07413 0.62709 0.0
C628 C 0.48363 0.10832 0.62752 0.0
H629 H 0.61892 0.89305 0.61788 0.0
H630 H 0.58703 0.95357 0.62157 0.0
C631 C 0.46687 0.14377 0.62522 0.0
C632 C 0.47854 0.0362 0.62778 0.0
H633 H 0.53672 0.98028 0.65364 0.0
C634 C 0.47166 0.01085 0.61277 0.0
C635 C 0.50176 0.02486 0.64288 0.0
C636 C 0.50864 0.04998 0.65983 0.0
C637 C 0.48796 0.97485 0.61226 0.0
C638 C 0.51161 0.96382 0.62718 0.0
C639 C 0.51842 0.98892 0.64226 0.0
C640 C 0.53101 0.927 0.62677 0.0
C641 C 0.48064 0.94917 0.59554 0.0
C642 C 0.51008 0.89207 0.62886 0.0
C643 C 0.52825 0.85732 0.62684 0.0
C644 C 0.56755 0.85712 0.62257 0.0
C645 C 0.58855 0.89224 0.62105 0.0
C646 C 0.57046 0.92686 0.62322 0.0
H647 H 0.46601 0.9641 0.584 0.0
H648 H 0.50805 0.93841 0.59017 0.0
H649 H 0.46227 0.92398 0.59981 0.0
H650 H 0.47957 0.89174 0.63168 0.0
H651 H 0.51137 0.83072 0.62811 0.0
H652 H 0.83187 0.9653 0.86653 0.0
H653 H 0.89127 0.00538 0.86568 0.0
H654 H 0.95624 0.90777 0.88081 0.0
H655 H 0.89756 0.86758 0.88167 0.0
H656 H 0.94729 0.01723 0.89582 0.0
H657 H 0.00927 0.95076 0.83264 0.0
H658 H 0.9589 0.94577 0.83838 0.0
H659 H 0.99303 0.91771 0.8505 0.0
C660 C 0.85878 0.95233 0.86966 0.0
C661 C 0.85983 0.91311 0.87407 0.0
C662 C 0.89266 0.97528 0.86917 0.0
C663 C 0.92813 0.95933 0.8729 0.0
C664 C 0.92922 0.92044 0.87755 0.0
H665 H 0.16675 0.04059 0.87513 0.0
H666 H 0.10626 0.00233 0.87554 0.0
C667 C 0.89551 0.89757 0.87812 0.0
C668 C 0.96411 0.98331 0.87232 0.0
H669 H 0.05012 0.99386 0.84976 0.0
C670 C 0.96972 0.01239 0.88568 0.0
C671 C 0.99336 0.97656 0.85918 0.0
C672 C 0.98839 0.94622 0.84424 0.0
C673 C 0.00425 0.03444 0.88655 0.0
C674 C 0.03353 0.02787 0.87333 0.0
C675 C 0.02775 0.99885 0.8599 0.0
C676 C 0.07019 0.05104 0.87306 0.0
C677 C 0.00938 0.06373 0.90198 0.0
C678 C 0.07007 0.09101 0.87119 0.0
C679 C 0.10445 0.11289 0.87119 0.0
C680 C 0.13985 0.09524 0.87266 0.0
C681 C 0.14001 0.05508 0.874 0.0
C682 C 0.10547 0.03319 0.87424 0.0
H683 H 0.99001 0.05705 0.91398 0.0
H684 H 0.0394 0.06539 0.90715 0.0
H685 H 0.00228 0.09232 0.89652 0.0
H686 H 0.04333 0.10534 0.86965 0.0
H687 H 0.10325 0.14371 0.86983 0.0
loop_
_geom_bond_atom_site_label_1
_geom_bond_atom_site_label_2
_geom_bond_distance
_geom_bond_site_symmetry_2
_ccdc_geom_bond_type
Co0 O1 2.216 . S
Co0 O2 2.091 . S
Co0 O4 2.004 . S
Co0 O10 2.021 . S
Co0 O12 2.137 . S
Co0 O13 2.244 . S
O1 Co0 2.216 . S
O1 C8 1.247 . S
O2 Co0 2.091 . S
O2 C8 1.261 . S
C3 O12 1.247 . S
C3 O13 1.272 . S
O4 Co0 2.004 . S
O4 C9 1.259 . S
Co5 O6 2.061 . S
Co5 O11 2.052 . S
Co5 O13 2.135 . S
O6 Co5 2.061 . S
O6 C9 1.235 . S
C7 O10 1.238 . S
C7 O11 1.241 . S
C8 O1 1.247 . S
C8 O2 1.261 . S
C9 O4 1.259 . S
C9 O6 1.235 . S
O10 Co0 2.021 . S
O10 C7 1.238 . S
O11 Co5 2.052 . S
O11 C7 1.241 . S
O12 Co0 2.137 . S
O12 C3 1.247 . S
O13 Co0 2.244 . S
O13 C3 1.272 . S
O13 Co5 2.135 . S
Co14 O15 2.216 . S
Co14 O16 2.091 . S
Co14 O18 2.004 . S
Co14 O24 2.021 . S
Co14 O26 2.137 . S
Co14 O27 2.244 . S
O15 Co14 2.216 . S
O15 C22 1.247 . S
O16 Co14 2.091 . S
O16 C22 1.261 . S
C17 O26 1.247 . S
C17 O27 1.272 . S
O18 Co14 2.004 . S
O18 C23 1.259 . S
Co19 O20 2.061 . S
Co19 O25 2.052 . S
Co19 O27 2.135 . S
O20 Co19 2.061 . S
O20 C23 1.235 . S
C21 O24 1.238 . S
C21 O25 1.241 . S
C22 O15 1.247 . S
C22 O16 1.261 . S
C23 O18 1.259 . S
C23 O20 1.235 . S
O24 Co14 2.021 . S
O24 C21 1.238 . S
O25 Co19 2.052 . S
O25 C21 1.241 . S
O26 Co14 2.137 . S
O26 C17 1.247 . S
O27 Co14 2.244 . S
O27 C17 1.272 . S
O27 Co19 2.135 . S
Co28 O29 2.216 . S
Co28 O30 2.091 . S
Co28 O32 2.004 . S
Co28 O38 2.021 . S
Co28 O40 2.137 . S
Co28 O41 2.244 . S
O29 Co28 2.216 . S
O29 C36 1.247 . S
O30 Co28 2.091 . S
O30 C36 1.261 . S
C31 O40 1.247 . S
C31 O41 1.272 . S
O32 Co28 2.004 . S
O32 C37 1.259 . S
Co33 O34 2.061 . S
Co33 O39 2.052 . S
Co33 O41 2.135 . S
O34 Co33 2.061 . S
O34 C37 1.235 . S
C35 O38 1.238 . S
C35 O39 1.241 . S
C36 O29 1.247 . S
C36 O30 1.261 . S
C37 O32 1.259 . S
C37 O34 1.235 . S
O38 Co28 2.021 . S
O38 C35 1.238 . S
O39 Co33 2.052 . S
O39 C35 1.241 . S
O40 Co28 2.137 . S
O40 C31 1.247 . S
O41 Co28 2.244 . S
O41 C31 1.272 . S
O41 Co33 2.135 . S
Co42 O43 2.216 . S
Co42 O44 2.091 . S
Co42 O46 2.004 . S
Co42 O52 2.021 . S
Co42 O54 2.137 . S
Co42 O55 2.244 . S
O43 Co42 2.216 . S
O43 C50 1.247 . S
O44 Co42 2.091 . S
O44 C50 1.261 . S
C45 O54 1.247 . S
C45 O55 1.272 . S
O46 Co42 2.004 . S
O46 C51 1.259 . S
Co47 O48 2.061 . S
Co47 O53 2.052 . S
Co47 O55 2.135 . S
O48 Co47 2.061 . S
O48 C51 1.235 . S
C49 O52 1.238 . S
C49 O53 1.241 . S
C50 O43 1.247 . S
C50 O44 1.261 . S
C51 O46 1.259 . S
C51 O48 1.235 . S
O52 Co42 2.021 . S
O52 C49 1.238 . S
O53 Co47 2.052 . S
O53 C49 1.241 . S
O54 Co42 2.137 . S
O54 C45 1.247 . S
O55 Co42 2.244 . S
O55 C45 1.272 . S
O55 Co47 2.135 . S
Co56 O57 2.216 . S
Co56 O58 2.091 . S
Co56 O60 2.004 . S
Co56 O66 2.021 . S
Co56 O68 2.137 . S
Co56 O69 2.244 . S
O57 Co56 2.216 . S
O57 C64 1.247 . S
O58 Co56 2.091 . S
O58 C64 1.261 . S
C59 O68 1.247 . S
C59 O69 1.272 . S
O60 Co56 2.004 . S
O60 C65 1.259 . S
Co61 O62 2.061 . S
Co61 O67 2.052 . S
Co61 O69 2.135 . S
O62 Co61 2.061 . S
O62 C65 1.235 . S
C63 O66 1.238 . S
C63 O67 1.241 . S
C64 O57 1.247 . S
C64 O58 1.261 . S
C65 O60 1.259 . S
C65 O62 1.235 . S
O66 Co56 2.021 . S
O66 C63 1.238 . S
O67 Co61 2.052 . S
O67 C63 1.241 . S
O68 Co56 2.137 . S
O68 C59 1.247 . S
O69 Co56 2.244 . S
O69 C59 1.272 . S
O69 Co61 2.135 . S
Co70 O71 2.216 . S
Co70 O72 2.091 . S
Co70 O74 2.004 . S
Co70 O80 2.021 . S
Co70 O82 2.137 . S
Co70 O83 2.244 . S
O71 Co70 2.216 . S
O71 C78 1.247 . S
O72 Co70 2.091 . S
O72 C78 1.261 . S
C73 O82 1.247 . S
C73 O83 1.272 . S
O74 Co70 2.004 . S
O74 C79 1.259 . S
Co75 O76 2.061 . S
Co75 O81 2.052 . S
Co75 O83 2.135 . S
O76 Co75 2.061 . S
O76 C79 1.235 . S
C77 O80 1.238 . S
C77 O81 1.241 . S
C78 O71 1.247 . S
C78 O72 1.261 . S
C79 O74 1.259 . S
C79 O76 1.235 . S
O80 Co70 2.021 . S
O80 C77 1.238 . S
O81 Co75 2.052 . S
O81 C77 1.241 . S
O82 Co70 2.137 . S
O82 C73 1.247 . S
O83 Co70 2.244 . S
O83 C73 1.272 . S
O83 Co75 2.135 . S
Co84 O85 2.216 . S
Co84 O86 2.091 . S
Co84 O88 2.004 . S
Co84 O94 2.021 . S
Co84 O96 2.137 . S
Co84 O97 2.244 . S
O85 Co84 2.216 . S
O85 C92 1.247 . S
O86 Co84 2.091 . S
O86 C92 1.261 . S
C87 O96 1.247 . S
C87 O97 1.272 . S
O88 Co84 2.004 . S
O88 C93 1.259 . S
Co89 O90 2.061 . S
Co89 O95 2.052 . S
Co89 O97 2.135 . S
O90 Co89 2.061 . S
O90 C93 1.235 . S
C91 O94 1.238 . S
C91 O95 1.241 . S
C92 O85 1.247 . S
C92 O86 1.261 . S
C93 O88 1.259 . S
C93 O90 1.235 . S
O94 Co84 2.021 . S
O94 C91 1.238 . S
O95 Co89 2.052 . S
O95 C91 1.241 . S
O96 Co84 2.137 . S
O96 C87 1.247 . S
O97 Co84 2.244 . S
O97 C87 1.272 . S
O97 Co89 2.135 . S
Co98 O99 2.216 . S
Co98 O100 2.091 . S
Co98 O102 2.004 . S
Co98 O108 2.021 . S
Co98 O110 2.137 . S
Co98 O111 2.244 . S
O99 Co98 2.216 . S
O99 C106 1.247 . S
O100 Co98 2.091 . S
O100 C106 1.261 . S
C101 O110 1.247 . S
C101 O111 1.272 . S
O102 Co98 2.004 . S
O102 C107 1.259 . S
Co103 O104 2.061 . S
Co103 O109 2.052 . S
Co103 O111 2.135 . S
O104 Co103 2.061 . S
O104 C107 1.235 . S
C105 O108 1.238 . S
C105 O109 1.241 . S
C106 O99 1.247 . S
C106 O100 1.261 . S
C107 O102 1.259 . S
C107 O104 1.235 . S
O108 Co98 2.021 . S
O108 C105 1.238 . S
O109 Co103 2.052 . S
O109 C105 1.241 . S
O110 Co98 2.137 . S
O110 C101 1.247 . S
O111 Co98 2.244 . S
O111 C101 1.272 . S
O111 Co103 2.135 . S
H112 C120 0.929 . S
H113 C122 0.930 . S
H114 C124 0.930 . S
H115 C127 0.929 . S
H116 C130 0.930 . S
H117 C132 0.960 . S
H118 C132 0.960 . S
H119 C132 0.960 . S
C120 H112 0.929 . S
C120 C121 1.377 . S
C120 C122 1.384 . S
C121 C120 1.377 . S
C121 C127 1.390 . S
C122 H113 0.930 . S
C122 C120 1.384 . S
C122 C123 1.372 . S
C123 C122 1.372 . S
C123 C124 1.400 . S
C123 C128 1.490 . S
C124 H114 0.930 . S
C124 C123 1.400 . S
C124 C127 1.386 . S
H125 C141 0.930 . S
H126 C142 0.931 . S
C127 H115 0.929 . S
C127 C121 1.390 . S
C127 C124 1.386 . S
C128 C123 1.490 . S
C128 C130 1.395 . S
C128 C131 1.403 . S
H129 C135 0.930 . S
C130 H116 0.930 . S
C130 C128 1.395 . S
C130 C133 1.403 1_554 S
C131 C128 1.403 . S
C131 C132 1.524 . S
C131 C135 1.400 1_554 S
C132 H117 0.960 . S
C132 H118 0.960 . S
C132 H119 0.960 . S
C132 C131 1.524 . S
C133 C130 1.403 1_556 S
C133 C134 1.392 . S
C133 C137 1.495 . S
C134 C133 1.392 . S
C134 C135 1.385 . S
C134 C136 1.478 . S
C135 H129 0.930 . S
C135 C131 1.400 1_556 S
C135 C134 1.385 . S
C136 C134 1.478 . S
C136 C138 1.381 . S
C136 C142 1.383 . S
C137 C133 1.495 . S
C137 H143 0.959 . S
C137 H144 0.961 . S
C137 H145 0.960 . S
C138 C136 1.381 . S
C138 C139 1.394 . S
C138 H146 0.930 . S
C139 C138 1.394 . S
C139 C140 1.383 . S
C139 H147 0.929 . S
C140 C139 1.383 . S
C140 C141 1.377 . S
C141 H125 0.930 . S
C141 C140 1.377 . S
C141 C142 1.379 . S
C142 H126 0.931 . S
C142 C136 1.383 . S
C142 C141 1.379 . S
H143 C137 0.959 . S
H144 C137 0.961 . S
H145 C137 0.960 . S
H146 C138 0.930 . S
H147 C139 0.929 . S
H148 C156 0.929 . S
H149 C158 0.930 . S
H150 C160 0.930 . S
H151 C163 0.929 . S
H152 C166 0.930 . S
H153 C168 0.960 . S
H154 C168 0.960 . S
H155 C168 0.960 . S
C156 H148 0.929 . S
C156 C157 1.377 . S
C156 C158 1.384 . S
C157 C156 1.377 . S
C157 C163 1.390 . S
C158 H149 0.930 . S
C158 C156 1.384 . S
C158 C159 1.372 . S
C159 C158 1.372 . S
C159 C160 1.400 . S
C159 C164 1.490 . S
C160 H150 0.930 . S
C160 C159 1.400 . S
C160 C163 1.386 . S
H161 C177 0.930 . S
H162 C178 0.931 . S
C163 H151 0.929 . S
C163 C157 1.390 . S
C163 C160 1.386 . S
C164 C159 1.490 . S
C164 C166 1.395 . S
C164 C167 1.403 . S
H165 C171 0.930 . S
C166 H152 0.930 . S
C166 C164 1.395 . S
C166 C169 1.403 . S
C167 C164 1.403 . S
C167 C168 1.524 . S
C167 C171 1.400 . S
C168 H153 0.960 . S
C168 H154 0.960 . S
C168 H155 0.960 . S
C168 C167 1.524 . S
C169 C166 1.403 . S
C169 C170 1.392 . S
C169 C173 1.495 . S
C170 C169 1.392 . S
C170 C171 1.385 . S
C170 C172 1.478 . S
C171 H165 0.930 . S
C171 C167 1.400 . S
C171 C170 1.385 . S
C172 C170 1.478 . S
C172 C174 1.381 . S
C172 C178 1.383 . S
C173 C169 1.495 . S
C173 H179 0.959 . S
C173 H180 0.961 . S
C173 H181 0.960 . S
C174 C172 1.381 . S
C174 C175 1.394 . S
C174 H182 0.930 . S
C175 C174 1.394 . S
C175 C176 1.383 . S
C175 H183 0.929 . S
C176 C175 1.383 . S
C176 C177 1.377 . S
C177 H161 0.930 . S
C177 C176 1.377 . S
C177 C178 1.379 . S
C178 H162 0.931 . S
C178 C172 1.383 . S
C178 C177 1.379 . S
H179 C173 0.959 . S
H180 C173 0.961 . S
H181 C173 0.960 . S
H182 C174 0.930 . S
H183 C175 0.929 . S
H184 C192 0.929 . S
H185 C194 0.930 . S
H186 C196 0.930 . S
H187 C199 0.929 . S
H188 C202 0.930 . S
H189 C204 0.960 . S
H190 C204 0.960 . S
H191 C204 0.960 . S
C192 H184 0.929 . S
C192 C193 1.377 . S
C192 C194 1.384 . S
C193 C192 1.377 . S
C193 C199 1.390 . S
C194 H185 0.930 . S
C194 C192 1.384 . S
C194 C195 1.372 . S
C195 C194 1.372 . S
C195 C196 1.400 . S
C195 C200 1.490 . S
C196 H186 0.930 . S
C196 C195 1.400 . S
C196 C199 1.386 . S
H197 C213 0.930 . S
H198 C214 0.931 . S
C199 H187 0.929 . S
C199 C193 1.390 . S
C199 C196 1.386 . S
C200 C195 1.490 . S
C200 C202 1.395 . S
C200 C203 1.403 . S
H201 C207 0.930 . S
C202 H188 0.930 . S
C202 C200 1.395 . S
C202 C205 1.403 . S
C203 C200 1.403 . S
C203 C204 1.524 . S
C203 C207 1.400 . S
C204 H189 0.960 . S
C204 H190 0.960 . S
C204 H191 0.960 . S
C204 C203 1.524 . S
C205 C202 1.403 . S
C205 C206 1.392 . S
C205 C209 1.495 . S
C206 C205 1.392 . S
C206 C207 1.385 . S
C206 C208 1.478 . S
C207 H201 0.930 . S
C207 C203 1.400 . S
C207 C206 1.385 . S
C208 C206 1.478 . S
C208 C210 1.381 . S
C208 C214 1.383 . S
C209 C205 1.495 . S
C209 H215 0.959 . S
C209 H216 0.961 . S
C209 H217 0.960 . S
C210 C208 1.381 . S
C210 C211 1.394 . S
C210 H218 0.930 . S
C211 C210 1.394 . S
C211 C212 1.383 . S
C211 H219 0.929 . S
C212 C211 1.383 . S
C212 C213 1.377 . S
C213 H197 0.930 . S
C213 C212 1.377 . S
C213 C214 1.379 . S
C214 H198 0.931 . S
C214 C208 1.383 . S
C214 C213 1.379 . S
H215 C209 0.959 . S
H216 C209 0.961 . S
H217 C209 0.960 . S
H218 C210 0.930 . S
H219 C211 0.929 . S
H220 C228 0.929 . S
H221 C230 0.930 . S
H222 C232 0.930 . S
H223 C235 0.929 . S
H224 C238 0.930 . S
H225 C240 0.960 . S
H226 C240 0.960 . S
H227 C240 0.960 . S
C228 H220 0.929 . S
C228 C229 1.377 . S
C228 C230 1.384 . S
C229 C228 1.377 . S
C229 C235 1.390 . S
C230 H221 0.930 . S
C230 C228 1.384 . S
C230 C231 1.372 . S
C231 C230 1.372 . S
C231 C232 1.400 . S
C231 C236 1.490 . S
C232 H222 0.930 . S
C232 C231 1.400 . S
C232 C235 1.386 . S
H233 C249 0.930 . S
H234 C250 0.931 . S
C235 H223 0.929 . S
C235 C229 1.390 . S
C235 C232 1.386 . S
C236 C231 1.490 . S
C236 C238 1.395 . S
C236 C239 1.403 . S
H237 C243 0.930 . S
C238 H224 0.930 . S
C238 C236 1.395 . S
C238 C241 1.403 . S
C239 C236 1.403 . S
C239 C240 1.524 . S
C239 C243 1.400 . S
C240 H225 0.960 . S
C240 H226 0.960 . S
C240 H227 0.960 . S
C240 C239 1.524 . S
C241 C238 1.403 . S
C241 C242 1.392 . S
C241 C245 1.495 . S
C242 C241 1.392 . S
C242 C243 1.385 . S
C242 C244 1.478 . S
C243 H237 0.930 . S
C243 C239 1.400 . S
C243 C242 1.385 . S
C244 C242 1.478 . S
C244 C246 1.381 . S
C244 C250 1.383 . S
C245 C241 1.495 . S
C245 H251 0.959 . S
C245 H252 0.961 . S
C245 H253 0.960 . S
C246 C244 1.381 . S
C246 C247 1.394 . S
C246 H254 0.930 . S
C247 C246 1.394 . S
C247 C248 1.383 . S
C247 H255 0.929 . S
C248 C247 1.383 . S
C248 C249 1.377 . S
C249 H233 0.930 . S
C249 C248 1.377 . S
C249 C250 1.379 . S
C250 H234 0.931 . S
C250 C244 1.383 . S
C250 C249 1.379 . S
H251 C245 0.959 . S
H252 C245 0.961 . S
H253 C245 0.960 . S
H254 C246 0.930 . S
H255 C247 0.929 . S
H256 C264 0.929 . S
H257 C266 0.930 . S
H258 C268 0.930 . S
H259 C271 0.929 . S
H260 C274 0.930 . S
H261 C276 0.960 . S
H262 C276 0.960 . S
H263 C276 0.960 . S
C264 H256 0.929 . S
C264 C265 1.377 . S
C264 C266 1.384 . S
C265 C264 1.377 . S
C265 C271 1.390 . S
C266 H257 0.930 . S
C266 C264 1.384 . S
C266 C267 1.372 . S
C267 C266 1.372 . S
C267 C268 1.400 . S
C267 C272 1.490 . S
C268 H258 0.930 . S
C268 C267 1.400 . S
C268 C271 1.386 . S
H269 C285 0.930 . S
H270 C286 0.931 . S
C271 H259 0.929 . S
C271 C265 1.390 . S
C271 C268 1.386 . S
C272 C267 1.490 . S
C272 C274 1.395 . S
C272 C275 1.403 . S
H273 C279 0.930 . S
C274 H260 0.930 . S
C274 C272 1.395 . S
C274 C277 1.403 . S
C275 C272 1.403 . S
C275 C276 1.524 . S
C275 C279 1.400 . S
C276 H261 0.960 . S
C276 H262 0.960 . S
C276 H263 0.960 . S
C276 C275 1.524 . S
C277 C274 1.403 . S
C277 C278 1.392 . S
C277 C281 1.495 . S
C278 C277 1.392 . S
C278 C279 1.385 . S
C278 C280 1.478 . S
C279 H273 0.930 . S
C279 C275 1.400 . S
C279 C278 1.385 . S
C280 C278 1.478 . S
C280 C282 1.381 . S
C280 C286 1.383 . S
C281 C277 1.495 . S
C281 H287 0.959 . S
C281 H288 0.961 . S
C281 H289 0.960 . S
C282 C280 1.381 . S
C282 C283 1.394 . S
C282 H290 0.930 . S
C283 C282 1.394 . S
C283 C284 1.383 . S
C283 H291 0.929 . S
C284 C283 1.383 . S
C284 C285 1.377 . S
C285 H269 0.930 . S
C285 C284 1.377 . S
C285 C286 1.379 . S
C286 H270 0.931 . S
C286 C280 1.383 . S
C286 C285 1.379 . S
H287 C281 0.959 . S
H288 C281 0.961 . S
H289 C281 0.960 . S
H290 C282 0.930 . S
H291 C283 0.929 . S
H292 C300 0.929 . S
H293 C302 0.930 . S
H294 C304 0.930 . S
H295 C307 0.929 . S
H296 C310 0.930 . S
H297 C312 0.960 . S
H298 C312 0.960 . S
H299 C312 0.960 . S
C300 H292 0.929 . S
C300 C301 1.377 . S
C300 C302 1.384 . S
C301 C300 1.377 . S
C301 C307 1.390 . S
C302 H293 0.930 . S
C302 C300 1.384 . S
C302 C303 1.372 . S
C303 C302 1.372 . S
C303 C304 1.400 . S
C303 C308 1.490 . S
C304 H294 0.930 . S
C304 C303 1.400 . S
C304 C307 1.386 . S
H305 C321 0.930 . S
H306 C322 0.931 . S
C307 H295 0.929 . S
C307 C301 1.390 . S
C307 C304 1.386 . S
C308 C303 1.490 . S
C308 C310 1.395 . S
C308 C311 1.403 . S
H309 C315 0.930 . S
C310 H296 0.930 . S
C310 C308 1.395 . S
C310 C313 1.403 . S
C311 C308 1.403 . S
C311 C312 1.524 . S
C311 C315 1.400 . S
C312 H297 0.960 . S
C312 H298 0.960 . S
C312 H299 0.960 . S
C312 C311 1.524 . S
C313 C310 1.403 . S
C313 C314 1.392 . S
C313 C317 1.495 . S
C314 C313 1.392 . S
C314 C315 1.385 . S
C314 C316 1.478 . S
C315 H309 0.930 . S
C315 C311 1.400 . S
C315 C314 1.385 . S
C316 C314 1.478 . S
C316 C318 1.381 . S
C316 C322 1.383 . S
C317 C313 1.495 . S
C317 H323 0.959 . S
C317 H324 0.961 . S
C317 H325 0.960 . S
C318 C316 1.381 . S
C318 C319 1.394 . S
C318 H326 0.930 . S
C319 C318 1.394 . S
C319 C320 1.383 . S
C319 H327 0.929 . S
C320 C319 1.383 . S
C320 C321 1.377 . S
C321 H305 0.930 . S
C321 C320 1.377 . S
C321 C322 1.379 . S
C322 H306 0.931 . S
C322 C316 1.383 . S
C322 C321 1.379 . S
H323 C317 0.959 . S
H324 C317 0.961 . S
H325 C317 0.960 . S
H326 C318 0.930 . S
H327 C319 0.929 . S
H328 C336 0.929 . S
H329 C338 0.930 . S
H330 C340 0.930 . S
H331 C343 0.929 . S
H332 C346 0.930 . S
H333 C348 0.960 . S
H334 C348 0.960 . S
H335 C348 0.960 . S
C336 H328 0.929 . S
C336 C337 1.377 . S
C336 C338 1.384 . S
C337 C336 1.377 . S
C337 C343 1.390 . S
C338 H329 0.930 . S
C338 C336 1.384 . S
C338 C339 1.372 . S
C339 C338 1.372 . S
C339 C340 1.400 . S
C339 C344 1.490 . S
C340 H330 0.930 . S
C340 C339 1.400 . S
C340 C343 1.386 . S
H341 C357 0.930 . S
H342 C358 0.931 . S
C343 H331 0.929 . S
C343 C337 1.390 . S
C343 C340 1.386 . S
C344 C339 1.490 . S
C344 C346 1.395 . S
C344 C347 1.403 . S
H345 C351 0.930 . S
C346 H332 0.930 . S
C346 C344 1.395 . S
C346 C349 1.403 . S
C347 C344 1.403 . S
C347 C348 1.524 . S
C347 C351 1.400 . S
C348 H333 0.960 . S
C348 H334 0.960 . S
C348 H335 0.960 . S
C348 C347 1.524 . S
C349 C346 1.403 . S
C349 C350 1.392 . S
C349 C353 1.495 . S
C350 C349 1.392 . S
C350 C351 1.385 . S
C350 C352 1.478 . S
C351 H345 0.930 . S
C351 C347 1.400 . S
C351 C350 1.385 . S
C352 C350 1.478 . S
C352 C354 1.381 . S
C352 C358 1.383 . S
C353 C349 1.495 . S
C353 H359 0.959 . S
C353 H360 0.961 . S
C353 H361 0.960 . S
C354 C352 1.381 . S
C354 C355 1.394 . S
C354 H362 0.930 . S
C355 C354 1.394 . S
C355 C356 1.383 . S
C355 H363 0.929 . S
C356 C355 1.383 . S
C356 C357 1.377 . S
C357 H341 0.930 . S
C357 C356 1.377 . S
C357 C358 1.379 . S
C358 H342 0.931 . S
C358 C352 1.383 . S
C358 C357 1.379 . S
H359 C353 0.959 . S
H360 C353 0.961 . S
H361 C353 0.960 . S
H362 C354 0.930 . S
H363 C355 0.929 . S
H364 C372 0.929 . S
H365 C374 0.930 . S
H366 C376 0.930 . S
H367 C379 0.929 . S
H368 C382 0.930 . S
H369 C384 0.960 1_556 S
H370 C384 0.960 . S
H371 C384 0.960 . S
C372 H364 0.929 . S
C372 C373 1.377 . S
C372 C374 1.384 . S
C373 C372 1.377 . S
C373 C379 1.390 . S
C374 H365 0.930 . S
C374 C372 1.384 . S
C374 C375 1.372 . S
C375 C374 1.372 . S
C375 C376 1.400 . S
C375 C380 1.490 . S
C376 H366 0.930 . S
C376 C375 1.400 . S
C376 C379 1.386 . S
H377 C393 0.930 . S
H378 C394 0.931 . S
C379 H367 0.929 . S
C379 C373 1.390 . S
C379 C376 1.386 . S
C380 C375 1.490 . S
C380 C382 1.395 . S
C380 C383 1.403 . S
H381 C387 0.930 . S
C382 H368 0.930 . S
C382 C380 1.395 . S
C382 C385 1.403 1_554 S
C383 C380 1.403 . S
C383 C384 1.524 . S
C383 C387 1.400 1_554 S
C384 H369 0.960 1_554 S
C384 H370 0.960 . S
C384 H371 0.960 . S
C384 C383 1.524 . S
C385 C382 1.403 1_556 S
C385 C386 1.392 . S
C385 C389 1.495 . S
C386 C385 1.392 . S
C386 C387 1.385 . S
C386 C388 1.478 . S
C387 H381 0.930 . S
C387 C383 1.400 1_556 S
C387 C386 1.385 . S
C388 C386 1.478 . S
C388 C390 1.381 . S
C388 C394 1.383 . S
C389 C385 1.495 . S
C389 H395 0.959 1_556 S
C389 H396 0.961 . S
C389 H397 0.960 . S
C390 C388 1.381 . S
C390 C391 1.394 . S
C390 H398 0.930 . S
C391 C390 1.394 . S
C391 C392 1.383 . S
C391 H399 0.929 . S
C392 C391 1.383 . S
C392 C393 1.377 . S
C393 H377 0.930 . S
C393 C392 1.377 . S
C393 C394 1.379 . S
C394 H378 0.931 . S
C394 C388 1.383 . S
C394 C393 1.379 . S
H395 C389 0.959 1_554 S
H396 C389 0.961 . S
H397 C389 0.960 . S
H398 C390 0.930 . S
H399 C391 0.929 . S
H400 C408 0.929 . S
H401 C410 0.930 . S
H402 C412 0.930 . S
H403 C415 0.929 . S
H404 C418 0.930 . S
H405 C420 0.960 . S
H406 C420 0.960 1_455 S
H407 C420 0.960 . S
C408 H400 0.929 . S
C408 C409 1.377 . S
C408 C410 1.384 . S
C409 C408 1.377 . S
C409 C415 1.390 . S
C410 H401 0.930 . S
C410 C408 1.384 . S
C410 C411 1.372 . S
C411 C410 1.372 . S
C411 C412 1.400 . S
C411 C416 1.490 . S
C412 H402 0.930 . S
C412 C411 1.400 . S
C412 C415 1.386 . S
H413 C429 0.930 . S
H414 C430 0.931 . S
C415 H403 0.929 . S
C415 C409 1.390 . S
C415 C412 1.386 . S
C416 C411 1.490 . S
C416 C418 1.395 . S
C416 C419 1.403 1_455 S
H417 C423 0.930 . S
C418 H404 0.930 . S
C418 C416 1.395 . S
C418 C421 1.403 1_545 S
C419 C416 1.403 1_655 S
C419 C420 1.524 . S
C419 C423 1.400 1_545 S
C420 H405 0.960 . S
C420 H406 0.960 1_655 S
C420 H407 0.960 . S
C420 C419 1.524 . S
C421 C418 1.403 1_565 S
C421 C422 1.392 1_455 S
C421 C425 1.495 . S
C422 C421 1.392 1_655 S
C422 C423 1.385 . S
C422 C424 1.478 . S
C423 H417 0.930 . S
C423 C419 1.400 1_565 S
C423 C422 1.385 . S
C424 C422 1.478 . S
C424 C426 1.381 . S
C424 C430 1.383 . S
C425 C421 1.495 . S
C425 H431 0.959 . S
C425 H432 0.961 . S
C425 H433 0.960 . S
C426 C424 1.381 . S
C426 C427 1.394 . S
C426 H434 0.930 1_655 S
C427 C426 1.394 . S
C427 C428 1.383 . S
C427 H435 0.929 . S
C428 C427 1.383 . S
C428 C429 1.377 . S
C429 H413 0.930 . S
C429 C428 1.377 . S
C429 C430 1.379 . S
C430 H414 0.931 . S
C430 C424 1.383 . S
C430 C429 1.379 . S
H431 C425 0.959 . S
H432 C425 0.961 . S
H433 C425 0.960 . S
H434 C426 0.930 1_455 S
H435 C427 0.929 . S
H436 C444 0.929 . S
H437 C446 0.930 . S
H438 C448 0.930 . S
H439 C451 0.929 . S
H440 C454 0.930 . S
H441 C456 0.960 . S
H442 C456 0.960 . S
H443 C456 0.960 1_455 S
C444 H436 0.929 . S
C444 C445 1.377 . S
C444 C446 1.384 . S
C445 C444 1.377 . S
C445 C451 1.390 . S
C446 H437 0.930 . S
C446 C444 1.384 . S
C446 C447 1.372 . S
C447 C446 1.372 . S
C447 C448 1.400 . S
C447 C452 1.490 . S
C448 H438 0.930 . S
C448 C447 1.400 . S
C448 C451 1.386 . S
H449 C465 0.930 . S
H450 C466 0.931 . S
C451 H439 0.929 . S
C451 C445 1.390 . S
C451 C448 1.386 . S
C452 C447 1.490 . S
C452 C454 1.395 . S
C452 C455 1.403 1_455 S
H453 C459 0.930 . S
C454 H440 0.930 . S
C454 C452 1.395 . S
C454 C457 1.403 . S
C455 C452 1.403 1_655 S
C455 C456 1.524 . S
C455 C459 1.400 . S
C456 H441 0.960 . S
C456 H442 0.960 . S
C456 H443 0.960 1_655 S
C456 C455 1.524 . S
C457 C454 1.403 . S
C457 C458 1.392 1_455 S
C457 C461 1.495 . S
C458 C457 1.392 1_655 S
C458 C459 1.385 . S
C458 C460 1.478 . S
C459 H453 0.930 . S
C459 C455 1.400 . S
C459 C458 1.385 . S
C460 C458 1.478 . S
C460 C462 1.381 . S
C460 C466 1.383 . S
C461 C457 1.495 . S
C461 H467 0.959 . S
C461 H468 0.961 . S
C461 H469 0.960 1_455 S
C462 C460 1.381 . S
C462 C463 1.394 . S
C462 H470 0.930 . S
C463 C462 1.394 . S
C463 C464 1.383 . S
C463 H471 0.929 . S
C464 C463 1.383 . S
C464 C465 1.377 . S
C465 H449 0.930 . S
C465 C464 1.377 . S
C465 C466 1.379 . S
C466 H450 0.931 . S
C466 C460 1.383 . S
C466 C465 1.379 . S
H467 C461 0.959 . S
H468 C461 0.961 . S
H469 C461 0.960 1_655 S
H470 C462 0.930 . S
H471 C463 0.929 . S
H472 C480 0.929 . S
H473 C482 0.930 . S
H474 C484 0.930 . S
H475 C487 0.929 . S
H476 C490 0.930 . S
H477 C492 0.960 . S
H478 C492 0.960 . S
H479 C492 0.960 . S
C480 H472 0.929 . S
C480 C481 1.377 . S
C480 C482 1.384 . S
C481 C480 1.377 . S
C481 C487 1.390 . S
C482 H473 0.930 . S
C482 C480 1.384 . S
C482 C483 1.372 . S
C483 C482 1.372 . S
C483 C484 1.400 . S
C483 C488 1.490 . S
C484 H474 0.930 . S
C484 C483 1.400 . S
C484 C487 1.386 . S
H485 C501 0.930 . S
H486 C502 0.931 . S
C487 H475 0.929 . S
C487 C481 1.390 . S
C487 C484 1.386 . S
C488 C483 1.490 . S
C488 C490 1.395 . S
C488 C491 1.403 . S
H489 C495 0.930 . S
C490 H476 0.930 . S
C490 C488 1.395 . S
C490 C493 1.403 . S
C491 C488 1.403 . S
C491 C492 1.524 . S
C491 C495 1.400 . S
C492 H477 0.960 . S
C492 H478 0.960 . S
C492 H479 0.960 . S
C492 C491 1.524 . S
C493 C490 1.403 . S
C493 C494 1.392 . S
C493 C497 1.495 . S
C494 C493 1.392 . S
C494 C495 1.385 . S
C494 C496 1.478 . S
C495 H489 0.930 . S
C495 C491 1.400 . S
C495 C494 1.385 . S
C496 C494 1.478 . S
C496 C498 1.381 . S
C496 C502 1.383 . S
C497 C493 1.495 . S
C497 H503 0.959 . S
C497 H504 0.961 . S
C497 H505 0.960 . S
C498 C496 1.381 . S
C498 C499 1.394 . S
C498 H506 0.930 . S
C499 C498 1.394 . S
C499 C500 1.383 . S
C499 H507 0.929 . S
C500 C499 1.383 . S
C500 C501 1.377 . S
C501 H485 0.930 . S
C501 C500 1.377 . S
C501 C502 1.379 . S
C502 H486 0.931 . S
C502 C496 1.383 . S
C502 C501 1.379 . S
H503 C497 0.959 . S
H504 C497 0.961 . S
H505 C497 0.960 . S
H506 C498 0.930 . S
H507 C499 0.929 . S
H508 C516 0.929 . S
H509 C518 0.930 . S
H510 C520 0.930 . S
H511 C523 0.929 . S
H512 C526 0.930 . S
H513 C528 0.960 . S
H514 C528 0.960 . S
H515 C528 0.960 . S
C516 H508 0.929 . S
C516 C517 1.377 . S
C516 C518 1.384 . S
C517 C516 1.377 . S
C517 C523 1.390 . S
C518 H509 0.930 . S
C518 C516 1.384 . S
C518 C519 1.372 . S
C519 C518 1.372 . S
C519 C520 1.400 . S
C519 C524 1.490 . S
C520 H510 0.930 . S
C520 C519 1.400 . S
C520 C523 1.386 . S
H521 C537 0.930 . S
H522 C538 0.931 . S
C523 H511 0.929 . S
C523 C517 1.390 . S
C523 C520 1.386 . S
C524 C519 1.490 . S
C524 C526 1.395 1_565 S
C524 C527 1.403 . S
H525 C531 0.930 . S
C526 H512 0.930 . S
C526 C524 1.395 1_545 S
C526 C529 1.403 . S
C527 C524 1.403 . S
C527 C528 1.524 . S
C527 C531 1.400 . S
C528 H513 0.960 . S
C528 H514 0.960 . S
C528 H515 0.960 . S
C528 C527 1.524 . S
C529 C526 1.403 . S
C529 C530 1.392 . S
C529 C533 1.495 . S
C530 C529 1.392 . S
C530 C531 1.385 1_545 S
C530 C532 1.478 . S
C531 H525 0.930 . S
C531 C527 1.400 . S
C531 C530 1.385 1_565 S
C532 C530 1.478 . S
C532 C534 1.381 . S
C532 C538 1.383 . S
C533 C529 1.495 . S
C533 H539 0.959 . S
C533 H540 0.961 . S
C533 H541 0.960 . S
C534 C532 1.381 . S
C534 C535 1.394 . S
C534 H542 0.930 . S
C535 C534 1.394 . S
C535 C536 1.383 . S
C535 H543 0.929 . S
C536 C535 1.383 . S
C536 C537 1.377 . S
C537 H521 0.930 . S
C537 C536 1.377 . S
C537 C538 1.379 . S
C538 H522 0.931 . S
C538 C532 1.383 . S
C538 C537 1.379 . S
H539 C533 0.959 . S
H540 C533 0.961 . S
H541 C533 0.960 . S
H542 C534 0.930 . S
H543 C535 0.929 . S
H544 C552 0.929 . S
H545 C554 0.930 . S
H546 C556 0.930 . S
H547 C559 0.929 . S
H548 C562 0.930 . S
H549 C564 0.960 . S
H550 C564 0.960 . S
H551 C564 0.960 . S
C552 H544 0.929 . S
C552 C553 1.377 . S
C552 C554 1.384 . S
C553 C552 1.377 . S
C553 C559 1.390 . S
C554 H545 0.930 . S
C554 C552 1.384 . S
C554 C555 1.372 . S
C555 C554 1.372 . S
C555 C556 1.400 . S
C555 C560 1.490 . S
C556 H546 0.930 . S
C556 C555 1.400 . S
C556 C559 1.386 . S
H557 C573 0.930 . S
H558 C574 0.931 . S
C559 H547 0.929 . S
C559 C553 1.390 . S
C559 C556 1.386 . S
C560 C555 1.490 . S
C560 C562 1.395 . S
C560 C563 1.403 1_655 S
H561 C567 0.930 . S
C562 H548 0.930 . S
C562 C560 1.395 . S
C562 C565 1.403 . S
C563 C560 1.403 1_455 S
C563 C564 1.524 . S
C563 C567 1.400 . S
C564 H549 0.960 . S
C564 H550 0.960 . S
C564 H551 0.960 . S
C564 C563 1.524 . S
C565 C562 1.403 . S
C565 C566 1.392 1_655 S
C565 C569 1.495 . S
C566 C565 1.392 1_455 S
C566 C567 1.385 . S
C566 C568 1.478 . S
C567 H561 0.930 . S
C567 C563 1.400 . S
C567 C566 1.385 . S
C568 C566 1.478 . S
C568 C570 1.381 . S
C568 C574 1.383 . S
C569 C565 1.495 . S
C569 H575 0.959 . S
C569 H576 0.961 . S
C569 H577 0.960 . S
C570 C568 1.381 . S
C570 C571 1.394 . S
C570 H578 0.930 . S
C571 C570 1.394 . S
C571 C572 1.383 . S
C571 H579 0.929 . S
C572 C571 1.383 . S
C572 C573 1.377 . S
C573 H557 0.930 . S
C573 C572 1.377 . S
C573 C574 1.379 . S
C574 H558 0.931 . S
C574 C568 1.383 . S
C574 C573 1.379 . S
H575 C569 0.959 . S
H576 C569 0.961 . S
H577 C569 0.960 . S
H578 C570 0.930 . S
H579 C571 0.929 . S
H580 C588 0.929 . S
H581 C590 0.930 . S
H582 C592 0.930 . S
H583 C595 0.929 . S
H584 C598 0.930 . S
H585 C600 0.960 . S
H586 C600 0.960 . S
H587 C600 0.960 . S
C588 H580 0.929 . S
C588 C589 1.377 . S
C588 C590 1.384 . S
C589 C588 1.377 . S
C589 C595 1.390 . S
C590 H581 0.930 . S
C590 C588 1.384 . S
C590 C591 1.372 . S
C591 C590 1.372 . S
C591 C592 1.400 . S
C591 C596 1.490 . S
C592 H582 0.930 . S
C592 C591 1.400 . S
C592 C595 1.386 . S
H593 C609 0.930 . S
H594 C610 0.931 . S
C595 H583 0.929 . S
C595 C589 1.390 . S
C595 C592 1.386 . S
C596 C591 1.490 . S
C596 C598 1.395 . S
C596 C599 1.403 . S
H597 C603 0.930 . S
C598 H584 0.930 . S
C598 C596 1.395 . S
C598 C601 1.403 . S
C599 C596 1.403 . S
C599 C600 1.524 . S
C599 C603 1.400 . S
C600 H585 0.960 . S
C600 H586 0.960 . S
C600 H587 0.960 . S
C600 C599 1.524 . S
C601 C598 1.403 . S
C601 C602 1.392 . S
C601 C605 1.495 . S
C602 C601 1.392 . S
C602 C603 1.385 . S
C602 C604 1.478 . S
C603 H597 0.930 . S
C603 C599 1.400 . S
C603 C602 1.385 . S
C604 C602 1.478 . S
C604 C606 1.381 . S
C604 C610 1.383 . S
C605 C601 1.495 . S
C605 H611 0.959 . S
C605 H612 0.961 . S
C605 H613 0.960 . S
C606 C604 1.381 . S
C606 C607 1.394 . S
C606 H614 0.930 . S
C607 C606 1.394 . S
C607 C608 1.383 . S
C607 H615 0.929 . S
C608 C607 1.383 . S
C608 C609 1.377 . S
C609 H593 0.930 . S
C609 C608 1.377 . S
C609 C610 1.379 . S
C610 H594 0.931 . S
C610 C604 1.383 . S
C610 C609 1.379 . S
H611 C605 0.959 . S
H612 C605 0.961 . S
H613 C605 0.960 . S
H614 C606 0.930 . S
H615 C607 0.929 . S
H616 C624 0.929 . S
H617 C626 0.930 . S
H618 C628 0.930 . S
H619 C631 0.929 . S
H620 C634 0.930 . S
H621 C636 0.960 . S
H622 C636 0.960 . S
H623 C636 0.960 . S
C624 H616 0.929 . S
C624 C625 1.377 . S
C624 C626 1.384 . S
C625 C624 1.377 . S
C625 C631 1.390 . S
C626 H617 0.930 . S
C626 C624 1.384 . S
C626 C627 1.372 . S
C627 C626 1.372 . S
C627 C628 1.400 . S
C627 C632 1.490 . S
C628 H618 0.930 . S
C628 C627 1.400 . S
C628 C631 1.386 . S
H629 C645 0.930 . S
H630 C646 0.931 . S
C631 H619 0.929 . S
C631 C625 1.390 . S
C631 C628 1.386 . S
C632 C627 1.490 . S
C632 C634 1.395 . S
C632 C635 1.403 . S
H633 C639 0.930 . S
C634 H620 0.930 . S
C634 C632 1.395 . S
C634 C637 1.403 1_545 S
C635 C632 1.403 . S
C635 C636 1.524 . S
C635 C639 1.400 1_545 S
C636 H621 0.960 . S
C636 H622 0.960 . S
C636 H623 0.960 . S
C636 C635 1.524 . S
C637 C634 1.403 1_565 S
C637 C638 1.392 . S
C637 C641 1.495 . S
C638 C637 1.392 . S
C638 C639 1.385 . S
C638 C640 1.478 . S
C639 H633 0.930 . S
C639 C635 1.400 1_565 S
C639 C638 1.385 . S
C640 C638 1.478 . S
C640 C642 1.381 . S
C640 C646 1.383 . S
C641 C637 1.495 . S
C641 H647 0.959 . S
C641 H648 0.961 . S
C641 H649 0.960 . S
C642 C640 1.381 . S
C642 C643 1.394 . S
C642 H650 0.930 . S
C643 C642 1.394 . S
C643 C644 1.383 . S
C643 H651 0.929 . S
C644 C643 1.383 . S
C644 C645 1.377 . S
C645 H629 0.930 . S
C645 C644 1.377 . S
C645 C646 1.379 . S
C646 H630 0.931 . S
C646 C640 1.383 . S
C646 C645 1.379 . S
H647 C641 0.959 . S
H648 C641 0.961 . S
H649 C641 0.960 . S
H650 C642 0.930 . S
H651 C643 0.929 . S
H652 C660 0.929 . S
H653 C662 0.930 . S
H654 C664 0.930 . S
H655 C667 0.929 . S
H656 C670 0.930 . S
H657 C672 0.960 . S
H658 C672 0.960 1_655 S
H659 C672 0.960 1_655 S
C660 H652 0.929 . S
C660 C661 1.377 . S
C660 C662 1.384 . S
C661 C660 1.377 . S
C661 C667 1.390 . S
C662 H653 0.930 . S
C662 C660 1.384 . S
C662 C663 1.372 . S
C663 C662 1.372 . S
C663 C664 1.400 . S
C663 C668 1.490 . S
C664 H654 0.930 . S
C664 C663 1.400 . S
C664 C667 1.386 . S
H665 C681 0.930 . S
H666 C682 0.931 . S
C667 H655 0.929 . S
C667 C661 1.390 . S
C667 C664 1.386 . S
C668 C663 1.490 . S
C668 C670 1.395 1_565 S
C668 C671 1.402 . S
H669 C675 0.930 . S
C670 H656 0.930 . S
C670 C668 1.395 1_545 S
C670 C673 1.403 . S
C671 C668 1.402 . S
C671 C672 1.524 1_655 S
C671 C675 1.401 1_655 S
C672 H657 0.960 . S
C672 H658 0.960 1_455 S
C672 H659 0.960 1_455 S
C672 C671 1.524 1_455 S
C673 C670 1.403 . S
C673 C674 1.392 1_655 S
C673 C677 1.495 . S
C674 C673 1.392 1_455 S
C674 C675 1.385 1_545 S
C674 C676 1.478 . S
C675 H669 0.930 . S
C675 C671 1.401 1_455 S
C675 C674 1.385 1_565 S
C676 C674 1.478 . S
C676 C678 1.381 . S
C676 C682 1.383 . S
C677 C673 1.495 . S
C677 H683 0.959 . S
C677 H684 0.961 1_655 S
C677 H685 0.960 1_655 S
C678 C676 1.381 . S
C678 C679 1.394 . S
C678 H686 0.930 . S
C679 C678 1.394 . S
C679 C680 1.383 . S
C679 H687 0.929 . S
C680 C679 1.383 . S
C680 C681 1.377 . S
C681 H665 0.930 . S
C681 C680 1.377 . S
C681 C682 1.379 . S
C682 H666 0.931 . S
C682 C676 1.383 . S
C682 C681 1.379 . S
H683 C677 0.959 . S
H684 C677 0.961 1_455 S
H685 C677 0.960 1_455 S
H686 C678 0.930 . S
H687 C679 0.929 . S
C121 C3 1.099 . S
C140 C73 1.126 . S
C157 C21 1.126 . S
C176 C91 1.137 . S
C193 C31 1.107 . S
C212 C101 1.083 . S
C229 C49 1.125 . S
C248 C63 1.132 . S
C265 C105 1.122 . S
C284 C7 1.113 . S
C301 C59 1.102 . S
C320 C17 1.121 . S
C337 C35 1.123 . S
C356 C77 1.119 . S
C373 C87 1.105 . S
C392 C45 1.089 . S
C409 C9 1.583 . S
C428 C93 1.590 . S
C445 C106 1.590 . S
C464 C22 1.595 . S
C481 C37 1.583 . S
C500 C65 1.590 . S
C517 C50 1.588 . S
C536 C78 1.592 . S
C553 C92 1.588 . S
C572 C8 1.576 . S
C589 C107 1.587 . S
C608 C23 1.573 . S
C625 C36 1.590 . S
C644 C64 1.583 . S
C661 C51 1.586 . S
C680 C79 1.574 . S
