# Generated by pormake.
# Topology umq, (4)-cn, num edge types: 1
# Building blocks:
#     Node 0, Type 0, BuildingBlock: CEKHIL_clean_sbu_0, # of connection points: 4
#     Node 1, Type 0, BuildingBlock: CEKHIL_clean_sbu_0, # of connection points: 4
#     Node 2, Type 0, BuildingBlock: CEKHIL_clean_sbu_0, # of connection points: 4
#     Node 3, Type 0, BuildingBlock: CEKHIL_clean_sbu_0, # of connection points: 4
#     Node 4, Type 0, BuildingBlock: CEKHIL_clean_sbu_0, # of connection points: 4
#     Node 5, Type 0, BuildingBlock: CEKHIL_clean_sbu_0, # of connection points: 4
#     Node 6, Type 0, BuildingBlock: CEKHIL_clean_sbu_0, # of connection points: 4
#     Node 7, Type 0, BuildingBlock: CEKHIL_clean_sbu_0, # of connection points: 4
#     Node 8, Type 0, BuildingBlock: CEKHIL_clean_sbu_0, # of connection points: 4
#     Node 9, Type 0, BuildingBlock: CEKHIL_clean_sbu_0, # of connection points: 4
#     Node 10, Type 0, BuildingBlock: CEKHIL_clean_sbu_0, # of connection points: 4
#     Node 11, Type 0, BuildingBlock: CEKHIL_clean_sbu_0, # of connection points: 4
#     Node 12, Type 0, BuildingBlock: CEKHIL_clean_sbu_0, # of connection points: 4
#     Node 13, Type 0, BuildingBlock: CEKHIL_clean_sbu_0, # of connection points: 4
#     Node 14, Type 0, BuildingBlock: CEKHIL_clean_sbu_0, # of connection points: 4
#     Node 15, Type 0, BuildingBlock: CEKHIL_clean_sbu_0, # of connection points: 4
#     Node 16, Type 0, BuildingBlock: CEKHIL_clean_sbu_0, # of connection points: 4
#     Node 17, Type 0, BuildingBlock: CEKHIL_clean_sbu_0, # of connection points: 4
#     Node 18, Type 0, BuildingBlock: CEKHIL_clean_sbu_0, # of connection points: 4
#     Node 19, Type 0, BuildingBlock: CEKHIL_clean_sbu_0, # of connection points: 4
#     Node 20, Type 0, BuildingBlock: CEKHIL_clean_sbu_0, # of connection points: 4
#     Node 21, Type 0, BuildingBlock: CEKHIL_clean_sbu_0, # of connection points: 4
#     Node 22, Type 0, BuildingBlock: CEKHIL_clean_sbu_0, # of connection points: 4
#     Node 23, Type 0, BuildingBlock: CEKHIL_clean_sbu_0, # of connection points: 4
#     Node 24, Type 0, BuildingBlock: CEKHIL_clean_sbu_0, # of connection points: 4
#     Node 25, Type 0, BuildingBlock: CEKHIL_clean_sbu_0, # of connection points: 4
#     Node 26, Type 0, BuildingBlock: CEKHIL_clean_sbu_0, # of connection points: 4
#     Node 27, Type 0, BuildingBlock: CEKHIL_clean_sbu_0, # of connection points: 4
#     Node 28, Type 0, BuildingBlock: CEKHIL_clean_sbu_0, # of connection points: 4
#     Node 29, Type 0, BuildingBlock: CEKHIL_clean_sbu_0, # of connection points: 4
#     Node 30, Type 0, BuildingBlock: CEKHIL_clean_sbu_0, # of connection points: 4
#     Node 31, Type 0, BuildingBlock: CEKHIL_clean_sbu_0, # of connection points: 4
#     Edge 32, Type (0, 0), BuildingBlock: AJUNOK_clean_linker_0, # of connection points: 2
#     Edge 33, Type (0, 0), BuildingBlock: AJUNOK_clean_linker_0, # of connection points: 2
#     Edge 34, Type (0, 0), BuildingBlock: AJUNOK_clean_linker_0, # of connection points: 2
#     Edge 35, Type (0, 0), BuildingBlock: AJUNOK_clean_linker_0, # of connection points: 2
#     Edge 36, Type (0, 0), BuildingBlock: AJUNOK_clean_linker_0, # of connection points: 2
#     Edge 37, Type (0, 0), BuildingBlock: AJUNOK_clean_linker_0, # of connection points: 2
#     Edge 38, Type (0, 0), BuildingBlock: AJUNOK_clean_linker_0, # of connection points: 2
#     Edge 39, Type (0, 0), BuildingBlock: AJUNOK_clean_linker_0, # of connection points: 2
#     Edge 40, Type (0, 0), BuildingBlock: AJUNOK_clean_linker_0, # of connection points: 2
#     Edge 41, Type (0, 0), BuildingBlock: AJUNOK_clean_linker_0, # of connection points: 2
#     Edge 42, Type (0, 0), BuildingBlock: AJUNOK_clean_linker_0, # of connection points: 2
#     Edge 43, Type (0, 0), BuildingBlock: AJUNOK_clean_linker_0, # of connection points: 2
#     Edge 44, Type (0, 0), BuildingBlock: AJUNOK_clean_linker_0, # of connection points: 2
#     Edge 45, Type (0, 0), BuildingBlock: AJUNOK_clean_linker_0, # of connection points: 2
#     Edge 46, Type (0, 0), BuildingBlock: AJUNOK_clean_linker_0, # of connection points: 2
#     Edge 47, Type (0, 0), BuildingBlock: AJUNOK_clean_linker_0, # of connection points: 2
#     Edge 48, Type (0, 0), BuildingBlock: AJUNOK_clean_linker_0, # of connection points: 2
#     Edge 49, Type (0, 0), BuildingBlock: AJUNOK_clean_linker_0, # of connection points: 2
#     Edge 50, Type (0, 0), BuildingBlock: AJUNOK_clean_linker_0, # of connection points: 2
#     Edge 51, Type (0, 0), BuildingBlock: AJUNOK_clean_linker_0, # of connection points: 2
#     Edge 52, Type (0, 0), BuildingBlock: AJUNOK_clean_linker_0, # of connection points: 2
#     Edge 53, Type (0, 0), BuildingBlock: AJUNOK_clean_linker_0, # of connection points: 2
#     Edge 54, Type (0, 0), BuildingBlock: AJUNOK_clean_linker_0, # of connection points: 2
#     Edge 55, Type (0, 0), BuildingBlock: AJUNOK_clean_linker_0, # of connection points: 2
#     Edge 56, Type (0, 0), BuildingBlock: AJUNOK_clean_linker_0, # of connection points: 2
#     Edge 57, Type (0, 0), BuildingBlock: AJUNOK_clean_linker_0, # of connection points: 2
#     Edge 58, Type (0, 0), BuildingBlock: AJUNOK_clean_linker_0, # of connection points: 2
#     Edge 59, Type (0, 0), BuildingBlock: AJUNOK_clean_linker_0, # of connection points: 2
#     Edge 60, Type (0, 0), BuildingBlock: AJUNOK_clean_linker_0, # of connection points: 2
#     Edge 61, Type (0, 0), BuildingBlock: AJUNOK_clean_linker_0, # of connection points: 2
#     Edge 62, Type (0, 0), BuildingBlock: AJUNOK_clean_linker_0, # of connection points: 2
#     Edge 63, Type (0, 0), BuildingBlock: AJUNOK_clean_linker_0, # of connection points: 2
#     Edge 64, Type (0, 0), BuildingBlock: AJUNOK_clean_linker_0, # of connection points: 2
#     Edge 65, Type (0, 0), BuildingBlock: AJUNOK_clean_linker_0, # of connection points: 2
#     Edge 66, Type (0, 0), BuildingBlock: AJUNOK_clean_linker_0, # of connection points: 2
#     Edge 67, Type (0, 0), BuildingBlock: AJUNOK_clean_linker_0, # of connection points: 2
#     Edge 68, Type (0, 0), BuildingBlock: AJUNOK_clean_linker_0, # of connection points: 2
#     Edge 69, Type (0, 0), BuildingBlock: AJUNOK_clean_linker_0, # of connection points: 2
#     Edge 70, Type (0, 0), BuildingBlock: AJUNOK_clean_linker_0, # of connection points: 2
#     Edge 71, Type (0, 0), BuildingBlock: AJUNOK_clean_linker_0, # of connection points: 2
#     Edge 72, Type (0, 0), BuildingBlock: AJUNOK_clean_linker_0, # of connection points: 2
#     Edge 73, Type (0, 0), BuildingBlock: AJUNOK_clean_linker_0, # of connection points: 2
#     Edge 74, Type (0, 0), BuildingBlock: AJUNOK_clean_linker_0, # of connection points: 2
#     Edge 75, Type (0, 0), BuildingBlock: AJUNOK_clean_linker_0, # of connection points: 2
#     Edge 76, Type (0, 0), BuildingBlock: AJUNOK_clean_linker_0, # of connection points: 2
#     Edge 77, Type (0, 0), BuildingBlock: AJUNOK_clean_linker_0, # of connection points: 2
#     Edge 78, Type (0, 0), BuildingBlock: AJUNOK_clean_linker_0, # of connection points: 2
#     Edge 79, Type (0, 0), BuildingBlock: AJUNOK_clean_linker_0, # of connection points: 2
#     Edge 80, Type (0, 0), BuildingBlock: AJUNOK_clean_linker_0, # of connection points: 2
#     Edge 81, Type (0, 0), BuildingBlock: AJUNOK_clean_linker_0, # of connection points: 2
#     Edge 82, Type (0, 0), BuildingBlock: AJUNOK_clean_linker_0, # of connection points: 2
#     Edge 83, Type (0, 0), BuildingBlock: AJUNOK_clean_linker_0, # of connection points: 2
#     Edge 84, Type (0, 0), BuildingBlock: AJUNOK_clean_linker_0, # of connection points: 2
#     Edge 85, Type (0, 0), BuildingBlock: AJUNOK_clean_linker_0, # of connection points: 2
#     Edge 86, Type (0, 0), BuildingBlock: AJUNOK_clean_linker_0, # of connection points: 2
#     Edge 87, Type (0, 0), BuildingBlock: AJUNOK_clean_linker_0, # of connection points: 2
#     Edge 88, Type (0, 0), BuildingBlock: AJUNOK_clean_linker_0, # of connection points: 2
#     Edge 89, Type (0, 0), BuildingBlock: AJUNOK_clean_linker_0, # of connection points: 2
#     Edge 90, Type (0, 0), BuildingBlock: AJUNOK_clean_linker_0, # of connection points: 2
#     Edge 91, Type (0, 0), BuildingBlock: AJUNOK_clean_linker_0, # of connection points: 2
#     Edge 92, Type (0, 0), BuildingBlock: AJUNOK_clean_linker_0, # of connection points: 2
#     Edge 93, Type (0, 0), BuildingBlock: AJUNOK_clean_linker_0, # of connection points: 2
#     Edge 94, Type (0, 0), BuildingBlock: AJUNOK_clean_linker_0, # of connection points: 2
#     Edge 95, Type (0, 0), BuildingBlock: AJUNOK_clean_linker_0, # of connection points: 2
# Relax obj value: 0.076
# Max RMSD: 0.061
# Mean RMSD: 0.061
data_MOF--net-umq--node1-CEKHIL_clean_sbu_0--edge1-AJUNOK_clean_linker_0
_symmetry_space_group_name_H-M    P1
_symmetry_Int_Tables_number       1
_symmetry_cell_setting            triclinic
loop_
_symmetry_equiv_pos_as_xyz
'x, y, z'
_cell_length_a     47.931839
_cell_length_b     48.018715
_cell_length_c     32.184452
_cell_angle_alpha  90.042097
_cell_angle_beta   90.067515
_cell_angle_gamma 89.890992
loop_
_atom_site_label
_atom_site_type_symbol
_atom_site_fract_x
_atom_site_fract_y
_atom_site_fract_z
_atom_type_partial_charge
Co0 Co 0.25242 0.10142 0.16497 0.0
O1 O 0.23226 0.06778 0.18029 0.0
O2 O 0.26963 0.08311 0.21283 0.0
C3 C 0.25399 0.09212 0.09556 0.0
O4 O 0.27978 0.13429 0.15747 0.0
Co5 Co 0.22681 0.14516 0.10409 0.0
O6 O 0.26563 0.1592 0.10211 0.0
C7 C 0.20739 0.14352 0.19138 0.0
C8 C 0.25077 0.06379 0.2091 0.0
C9 C 0.28363 0.15364 0.13011 0.0
O10 O 0.22647 0.12536 0.20095 0.0
O11 O 0.20317 0.1519 0.15415 0.0
O12 O 0.27214 0.08087 0.12047 0.0
O13 O 0.23483 0.10644 0.11368 0.0
Co14 Co 0.92125 0.24798 0.16536 0.0
O15 O 0.95568 0.22854 0.17945 0.0
O16 O 0.94004 0.2656 0.21241 0.0
C17 C 0.92959 0.24898 0.09559 0.0
O18 O 0.88749 0.27456 0.15954 0.0
Co19 Co 0.87696 0.22148 0.10601 0.0
O20 O 0.85828 0.25818 0.11038 0.0
C21 C 0.88177 0.20136 0.19269 0.0
C22 C 0.95972 0.24711 0.2081 0.0
C23 C 0.86527 0.27662 0.13692 0.0
O24 O 0.89855 0.22161 0.20224 0.0
O25 O 0.87346 0.19672 0.15554 0.0
O26 O 0.94056 0.26779 0.11964 0.0
O27 O 0.91567 0.23008 0.11461 0.0
Co28 Co 0.77416 0.92006 0.16434 0.0
O29 O 0.79391 0.95423 0.1777 0.0
O30 O 0.7577 0.93876 0.21265 0.0
C31 C 0.77231 0.92902 0.09491 0.0
O32 O 0.74699 0.88683 0.15821 0.0
Co33 Co 0.79927 0.8759 0.10378 0.0
O34 O 0.76034 0.86215 0.10221 0.0
C35 C 0.81983 0.87858 0.19055 0.0
C36 C 0.77598 0.95845 0.20716 0.0
C37 C 0.74269 0.86763 0.1307 0.0
O38 O 0.80086 0.89683 0.2002 0.0
O39 O 0.82352 0.86973 0.15343 0.0
O40 O 0.75382 0.93992 0.11961 0.0
O41 O 0.79138 0.91467 0.11309 0.0
Co42 Co 0.10337 0.77186 0.16372 0.0
O43 O 0.06839 0.78996 0.17807 0.0
O44 O 0.08626 0.75448 0.21247 0.0
C45 C 0.09381 0.76981 0.09448 0.0
O46 O 0.13795 0.7464 0.15632 0.0
Co47 Co 0.1452 0.80017 0.10279 0.0
O48 O 0.162 0.76245 0.10146 0.0
C49 C 0.142 0.82 0.18961 0.0
C50 C 0.06575 0.77203 0.20782 0.0
C51 C 0.15766 0.74391 0.12908 0.0
O52 O 0.1257 0.79943 0.19939 0.0
O53 O 0.14981 0.82479 0.15231 0.0
O54 O 0.08403 0.75078 0.11921 0.0
O55 O 0.10719 0.7895 0.11264 0.0
Co56 Co 0.25172 0.91982 0.34424 0.0
O57 O 0.23241 0.95448 0.33122 0.0
O58 O 0.26861 0.93845 0.29655 0.0
C59 C 0.25477 0.9275 0.41406 0.0
O60 O 0.27798 0.88574 0.34884 0.0
Co61 Co 0.22542 0.87582 0.40411 0.0
O62 O 0.26209 0.85711 0.39898 0.0
C63 C 0.20473 0.88005 0.31764 0.0
C64 C 0.25045 0.95832 0.30177 0.0
C65 C 0.28018 0.86371 0.37174 0.0
O66 O 0.22436 0.89755 0.30813 0.0
O67 O 0.20059 0.87142 0.35473 0.0
O68 O 0.27286 0.93867 0.38909 0.0
O69 O 0.2349 0.91429 0.39589 0.0
Co70 Co 0.10334 0.25031 0.34445 0.0
O71 O 0.06986 0.2297 0.32934 0.0
O72 O 0.08465 0.26713 0.29669 0.0
C73 C 0.09429 0.25187 0.41384 0.0
O74 O 0.13572 0.27828 0.35172 0.0
Co75 Co 0.14801 0.22608 0.40507 0.0
O76 O 0.16067 0.26533 0.40774 0.0
C77 C 0.14521 0.20512 0.3186 0.0
C78 C 0.06553 0.24812 0.30057 0.0
C79 C 0.1545 0.28305 0.37971 0.0
O80 O 0.12751 0.22451 0.30854 0.0
O81 O 0.15378 0.20138 0.35585 0.0
O82 O 0.0826 0.26975 0.38898 0.0
O83 O 0.10895 0.23298 0.3957 0.0
Co84 Co 0.77112 0.10128 0.34439 0.0
O85 O 0.79103 0.06698 0.33149 0.0
O86 O 0.75521 0.08288 0.29557 0.0
C87 C 0.76818 0.09286 0.41381 0.0
O88 O 0.74381 0.13455 0.34977 0.0
Co89 Co 0.79544 0.14571 0.40521 0.0
O90 O 0.75622 0.15885 0.40665 0.0
C91 C 0.81711 0.14253 0.31924 0.0
C92 C 0.77357 0.06325 0.30123 0.0
C93 C 0.73886 0.15326 0.37781 0.0
O94 O 0.79822 0.12435 0.30923 0.0
O95 O 0.82033 0.15161 0.35634 0.0
O96 O 0.75029 0.08155 0.38854 0.0
O97 O 0.78765 0.10688 0.39611 0.0
Co98 Co 0.92261 0.77113 0.34474 0.0
O99 O 0.95715 0.79047 0.33207 0.0
O100 O 0.94148 0.75441 0.29686 0.0
C101 C 0.93078 0.76942 0.41444 0.0
O102 O 0.88912 0.7443 0.35022 0.0
Co103 Co 0.87794 0.79668 0.4042 0.0
O104 O 0.86413 0.7578 0.40585 0.0
C105 C 0.88241 0.81768 0.31796 0.0
C106 C 0.96131 0.77249 0.30266 0.0
C107 C 0.86981 0.74008 0.37755 0.0
O108 O 0.89987 0.79797 0.30833 0.0
O109 O 0.87341 0.82153 0.35493 0.0
O110 O 0.94191 0.75082 0.39015 0.0
O111 O 0.91678 0.78846 0.39569 0.0
Co112 Co 0.77211 0.92021 0.8444 0.0
O113 O 0.79284 0.95371 0.8304 0.0
O114 O 0.75545 0.93954 0.79691 0.0
C115 C 0.7712 0.92911 0.91387 0.0
O116 O 0.74408 0.88774 0.85052 0.0
Co117 Co 0.79586 0.87507 0.9045 0.0
O118 O 0.75656 0.86239 0.90634 0.0
C119 C 0.81701 0.87829 0.81802 0.0
C120 C 0.77464 0.95846 0.8014 0.0
C121 C 0.73913 0.86866 0.8779 0.0
O122 O 0.79803 0.89648 0.80814 0.0
O123 O 0.82047 0.86935 0.85515 0.0
O124 O 0.75278 0.94054 0.88957 0.0
O125 O 0.78965 0.91417 0.89534 0.0
Co126 Co 0.10313 0.77061 0.84418 0.0
O127 O 0.06867 0.78999 0.83049 0.0
O128 O 0.085 0.75391 0.79572 0.0
C129 C 0.09412 0.76893 0.91351 0.0
O130 O 0.13666 0.74373 0.85051 0.0
Co131 Co 0.14721 0.7959 0.90457 0.0
O132 O 0.16098 0.75698 0.90695 0.0
C133 C 0.14377 0.81672 0.81807 0.0
C134 C 0.06518 0.77216 0.80071 0.0
C135 C 0.15551 0.73929 0.87856 0.0
O136 O 0.126 0.7974 0.80836 0.0
O137 O 0.15266 0.82048 0.85518 0.0
O138 O 0.08342 0.75028 0.8889 0.0
O139 O 0.10834 0.788 0.89531 0.0
Co140 Co 0.25136 0.10094 0.84449 0.0
O141 O 0.23154 0.06666 0.83145 0.0
O142 O 0.26732 0.08246 0.79582 0.0
C143 C 0.2542 0.09258 0.91404 0.0
O144 O 0.27868 0.13405 0.84966 0.0
Co145 Co 0.22734 0.14568 0.90499 0.0
O146 O 0.26658 0.15872 0.90633 0.0
C147 C 0.20502 0.14185 0.81932 0.0
C148 C 0.24905 0.06279 0.80128 0.0
C149 C 0.28378 0.15287 0.87741 0.0
O150 O 0.22428 0.12405 0.80915 0.0
O151 O 0.20189 0.15095 0.8564 0.0
O152 O 0.27212 0.08119 0.88887 0.0
O153 O 0.2348 0.10672 0.89621 0.0
Co154 Co 0.92101 0.24825 0.8446 0.0
O155 O 0.95464 0.22778 0.82991 0.0
O156 O 0.94005 0.26541 0.79739 0.0
C157 C 0.92989 0.24878 0.91417 0.0
O158 O 0.88822 0.27593 0.85152 0.0
Co159 Co 0.87627 0.22319 0.90415 0.0
O160 O 0.86222 0.26201 0.90582 0.0
C161 C 0.88023 0.2027 0.81753 0.0
C162 C 0.95906 0.24618 0.80121 0.0
C163 C 0.86841 0.27997 0.87816 0.0
O164 O 0.89738 0.22259 0.80787 0.0
O165 O 0.87171 0.19847 0.85465 0.0
O166 O 0.94128 0.2673 0.89015 0.0
O167 O 0.91525 0.23034 0.8952 0.0
Co168 Co 0.7712 0.10156 0.66469 0.0
O169 O 0.79109 0.06741 0.67825 0.0
O170 O 0.75467 0.08306 0.7129 0.0
C171 C 0.76823 0.09309 0.59516 0.0
O172 O 0.74467 0.13539 0.65943 0.0
Co173 Co 0.79718 0.14511 0.60363 0.0
O174 O 0.76035 0.16353 0.60849 0.0
C175 C 0.81782 0.14193 0.69024 0.0
C176 C 0.77334 0.06362 0.70806 0.0
C177 C 0.74236 0.15717 0.63601 0.0
O178 O 0.79832 0.12442 0.70017 0.0
O179 O 0.82192 0.15023 0.65297 0.0
O180 O 0.75021 0.08202 0.62036 0.0
O181 O 0.78793 0.10672 0.613 0.0
Co182 Co 0.92097 0.77145 0.66565 0.0
O183 O 0.95589 0.79059 0.67686 0.0
O184 O 0.94022 0.75533 0.71367 0.0
C185 C 0.92842 0.7687 0.59577 0.0
O186 O 0.88696 0.74514 0.6624 0.0
Co187 Co 0.87601 0.797 0.60635 0.0
O188 O 0.85733 0.76053 0.61298 0.0
C189 C 0.8818 0.81893 0.69187 0.0
C190 C 0.96016 0.77312 0.70688 0.0
C191 C 0.86456 0.74267 0.64026 0.0
O192 O 0.89896 0.799 0.7017 0.0
O193 O 0.87287 0.82278 0.65484 0.0
O194 O 0.93951 0.75026 0.62038 0.0
O195 O 0.91475 0.78806 0.61426 0.0
Co196 Co 0.25081 0.91926 0.66539 0.0
O197 O 0.23204 0.95443 0.67667 0.0
O198 O 0.26679 0.93774 0.7141 0.0
C199 C 0.25495 0.92648 0.59561 0.0
O200 O 0.27664 0.88479 0.66223 0.0
Co201 Co 0.22462 0.87523 0.60534 0.0
O202 O 0.26097 0.85604 0.61196 0.0
C203 C 0.20265 0.88062 0.69076 0.0
C204 C 0.24917 0.9579 0.70741 0.0
C205 C 0.27885 0.8626 0.63963 0.0
O206 O 0.22263 0.89762 0.70068 0.0
O207 O 0.19881 0.8718 0.65369 0.0
O208 O 0.27291 0.93752 0.62105 0.0
O209 O 0.23473 0.91359 0.61329 0.0
Co210 Co 0.10267 0.24961 0.66506 0.0
O211 O 0.06866 0.22933 0.67785 0.0
O212 O 0.08337 0.26592 0.71278 0.0
C213 C 0.09487 0.25229 0.5953 0.0
O214 O 0.136 0.27671 0.66065 0.0
Co215 Co 0.14765 0.22449 0.60545 0.0
O216 O 0.1655 0.26146 0.61102 0.0
C217 C 0.14347 0.20356 0.69171 0.0
C218 C 0.06423 0.24705 0.70756 0.0
C219 C 0.15813 0.27942 0.63805 0.0
O220 O 0.12567 0.22297 0.7012 0.0
O221 O 0.15223 0.19955 0.65463 0.0
O222 O 0.08317 0.27012 0.62024 0.0
O223 O 0.10879 0.23289 0.61346 0.0
Co224 Co 0.75108 0.60054 0.66525 0.0
O225 O 0.73207 0.56553 0.67605 0.0
O226 O 0.76683 0.58164 0.71381 0.0
C227 C 0.7551 0.59345 0.59541 0.0
O228 O 0.7772 0.6347 0.66254 0.0
Co229 Co 0.72545 0.64517 0.6056 0.0
O230 O 0.76198 0.66382 0.61242 0.0
C231 C 0.70383 0.64036 0.69137 0.0
C232 C 0.74922 0.56159 0.70668 0.0
C233 C 0.77971 0.6569 0.64012 0.0
O234 O 0.72314 0.62243 0.70081 0.0
O235 O 0.70014 0.64949 0.65442 0.0
O236 O 0.773 0.58217 0.62074 0.0
O237 O 0.73504 0.60661 0.61319 0.0
Co238 Co 0.42132 0.74918 0.66541 0.0
O239 O 0.45653 0.73059 0.67737 0.0
O240 O 0.4397 0.76569 0.71378 0.0
C241 C 0.42904 0.75183 0.59556 0.0
O242 O 0.38682 0.77494 0.66155 0.0
Co243 Co 0.37719 0.72266 0.60581 0.0
O244 O 0.35773 0.75885 0.612 0.0
C245 C 0.38287 0.70126 0.6916 0.0
C246 C 0.45988 0.748 0.70774 0.0
C247 C 0.36444 0.77693 0.63924 0.0
O248 O 0.39965 0.72146 0.70136 0.0
O249 O 0.37415 0.69712 0.65453 0.0
O250 O 0.43969 0.7705 0.62022 0.0
O251 O 0.41571 0.73229 0.61402 0.0
Co252 Co 0.27295 0.42039 0.66421 0.0
O253 O 0.29258 0.45489 0.67606 0.0
O254 O 0.2568 0.4396 0.71222 0.0
C255 C 0.27069 0.42817 0.59441 0.0
O256 O 0.24616 0.38682 0.66027 0.0
Co257 Co 0.29812 0.37539 0.60473 0.0
O258 O 0.26112 0.35752 0.61022 0.0
C259 C 0.31909 0.37978 0.69113 0.0
C260 C 0.27498 0.45926 0.70592 0.0
C261 C 0.24331 0.36478 0.63755 0.0
O262 O 0.29991 0.39786 0.70046 0.0
O263 O 0.32295 0.37078 0.65413 0.0
O264 O 0.25226 0.4394 0.61891 0.0
O265 O 0.28982 0.41418 0.61296 0.0
Co266 Co 0.60203 0.27279 0.66439 0.0
O267 O 0.56753 0.29221 0.67805 0.0
O268 O 0.58362 0.25578 0.7121 0.0
C269 C 0.59385 0.27017 0.5947 0.0
O270 O 0.63587 0.24631 0.65915 0.0
Co271 Co 0.64602 0.29892 0.60446 0.0
O272 O 0.66465 0.2622 0.60921 0.0
C273 C 0.64164 0.3198 0.69074 0.0
C274 C 0.5638 0.27406 0.70734 0.0
C275 C 0.65787 0.24402 0.6362 0.0
O276 O 0.62469 0.29976 0.70047 0.0
O277 O 0.65003 0.32406 0.65357 0.0
O278 O 0.58273 0.25205 0.61965 0.0
O279 O 0.60739 0.28981 0.61286 0.0
Co280 Co 0.75183 0.41928 0.84472 0.0
O281 O 0.73254 0.4539 0.83181 0.0
O282 O 0.768 0.43731 0.79588 0.0
C283 C 0.7549 0.42761 0.91424 0.0
O284 O 0.77851 0.38554 0.85018 0.0
Co285 Co 0.72634 0.37537 0.90506 0.0
O286 O 0.76516 0.36107 0.90629 0.0
C287 C 0.70523 0.37882 0.8188 0.0
C288 C 0.74996 0.45725 0.80147 0.0
C289 C 0.78276 0.36632 0.87768 0.0
O290 O 0.72448 0.39668 0.80924 0.0
O291 O 0.70157 0.36983 0.85583 0.0
O292 O 0.77297 0.43865 0.88904 0.0
O293 O 0.73517 0.41401 0.89638 0.0
Co294 Co 0.60308 0.74949 0.84498 0.0
O295 O 0.56885 0.72948 0.83247 0.0
O296 O 0.58397 0.76551 0.79681 0.0
C297 C 0.5948 0.75143 0.91462 0.0
O298 O 0.63603 0.77709 0.84986 0.0
Co299 Co 0.64855 0.72594 0.90468 0.0
O300 O 0.66109 0.76526 0.9063 0.0
C301 C 0.64386 0.70334 0.81919 0.0
C302 C 0.56444 0.74715 0.80272 0.0
C303 C 0.65489 0.78241 0.87752 0.0
O304 O 0.62609 0.72267 0.80909 0.0
O305 O 0.65322 0.70035 0.85617 0.0
O306 O 0.58343 0.76973 0.89004 0.0
O307 O 0.60934 0.73262 0.89625 0.0
Co308 Co 0.27285 0.60148 0.84426 0.0
O309 O 0.29225 0.56702 0.83081 0.0
O310 O 0.25645 0.58355 0.79545 0.0
C311 C 0.27021 0.59281 0.9136 0.0
O312 O 0.24597 0.63502 0.85026 0.0
Co313 Co 0.29809 0.64537 0.90504 0.0
O314 O 0.25907 0.65909 0.907 0.0
C315 C 0.31927 0.6421 0.81882 0.0
C316 C 0.27461 0.56368 0.8007 0.0
C317 C 0.24144 0.65373 0.87843 0.0
O318 O 0.3 0.62431 0.80894 0.0
O319 O 0.32288 0.65097 0.85595 0.0
O320 O 0.25203 0.58184 0.88845 0.0
O321 O 0.28976 0.60666 0.89582 0.0
Co322 Co 0.42061 0.27103 0.84403 0.0
O323 O 0.45429 0.29148 0.82958 0.0
O324 O 0.43926 0.25436 0.79622 0.0
C325 C 0.42956 0.26926 0.91349 0.0
O326 O 0.38798 0.24323 0.85023 0.0
Co327 Co 0.37577 0.2947 0.90465 0.0
O328 O 0.36281 0.25553 0.90631 0.0
C329 C 0.37929 0.31671 0.81876 0.0
C330 C 0.4585 0.27322 0.80052 0.0
C331 C 0.36898 0.23821 0.87771 0.0
O332 O 0.39685 0.29728 0.80837 0.0
O333 O 0.37055 0.32001 0.85598 0.0
O334 O 0.44107 0.25127 0.88862 0.0
O335 O 0.4149 0.28816 0.89541 0.0
Co336 Co 0.27051 0.42117 0.34368 0.0
O337 O 0.29088 0.45466 0.32834 0.0
O338 O 0.25277 0.44024 0.29685 0.0
C339 C 0.27063 0.4302 0.41314 0.0
O340 O 0.24279 0.38865 0.35158 0.0
Co341 Co 0.29599 0.37653 0.40321 0.0
O342 O 0.25685 0.36357 0.40685 0.0
C343 C 0.31495 0.37909 0.31562 0.0
C344 C 0.27194 0.45927 0.30037 0.0
C345 C 0.23866 0.36964 0.37937 0.0
O346 O 0.2957 0.39722 0.30654 0.0
O347 O 0.31939 0.37051 0.35269 0.0
O348 O 0.25189 0.44164 0.38938 0.0
O349 O 0.28895 0.41547 0.39397 0.0
Co350 Co 0.60214 0.27213 0.34372 0.0
O351 O 0.56837 0.29266 0.3293 0.0
O352 O 0.58329 0.25547 0.29597 0.0
C353 C 0.59344 0.27026 0.41322 0.0
O354 O 0.63483 0.24423 0.35013 0.0
Co355 Co 0.64697 0.2961 0.40423 0.0
O356 O 0.66002 0.25691 0.40605 0.0
C357 C 0.64351 0.31765 0.31813 0.0
C358 C 0.56401 0.27435 0.30036 0.0
C359 C 0.65386 0.23938 0.37776 0.0
O360 O 0.6259 0.29825 0.30791 0.0
O361 O 0.65223 0.32114 0.35536 0.0
O362 O 0.58181 0.2524 0.3883 0.0
O363 O 0.6079 0.28924 0.39513 0.0
Co364 Co 0.75309 0.60135 0.34438 0.0
O365 O 0.73283 0.56765 0.32944 0.0
O366 O 0.7701 0.58278 0.29662 0.0
C367 C 0.75488 0.59243 0.41388 0.0
O368 O 0.78057 0.63418 0.35136 0.0
Co369 Co 0.72808 0.64554 0.40513 0.0
O370 O 0.76699 0.65938 0.40675 0.0
C371 C 0.70807 0.64348 0.31807 0.0
C372 C 0.75127 0.56348 0.30062 0.0
C373 C 0.78474 0.65361 0.37854 0.0
O374 O 0.72701 0.6252 0.30839 0.0
O375 O 0.70414 0.65204 0.35528 0.0
O376 O 0.77291 0.58097 0.38902 0.0
O377 O 0.73573 0.60674 0.39568 0.0
Co378 Co 0.42208 0.74976 0.34429 0.0
O379 O 0.45673 0.73054 0.33076 0.0
O380 O 0.44082 0.76714 0.29702 0.0
C381 C 0.43026 0.75149 0.41411 0.0
O382 O 0.38803 0.776 0.34948 0.0
Co383 Co 0.37805 0.72318 0.40387 0.0
O384 O 0.35903 0.75966 0.39885 0.0
C385 C 0.38291 0.70259 0.31741 0.0
C386 C 0.46065 0.74886 0.30179 0.0
C387 C 0.36579 0.77797 0.37204 0.0
O388 O 0.39967 0.72283 0.30771 0.0
O389 O 0.37459 0.69817 0.35457 0.0
O390 O 0.44109 0.7702 0.38984 0.0
O391 O 0.41662 0.73226 0.39529 0.0
Co392 Co 0.27258 0.6026 0.16406 0.0
O393 O 0.29158 0.56833 0.17957 0.0
O394 O 0.25486 0.58505 0.21217 0.0
C395 C 0.27053 0.59291 0.09487 0.0
O396 O 0.24654 0.6367 0.15582 0.0
Co397 Co 0.30065 0.64438 0.10264 0.0
O398 O 0.2628 0.66091 0.10123 0.0
C399 C 0.31963 0.64256 0.19003 0.0
C400 C 0.27308 0.56505 0.20845 0.0
C401 C 0.24414 0.65648 0.12867 0.0
O402 O 0.29957 0.6256 0.19976 0.0
O403 O 0.32451 0.65023 0.15268 0.0
O404 O 0.25195 0.58264 0.11987 0.0
O405 O 0.2903 0.60639 0.11284 0.0
Co406 Co 0.42029 0.27269 0.16411 0.0
O407 O 0.45386 0.29311 0.17944 0.0
O408 O 0.43852 0.25603 0.21241 0.0
C409 C 0.42998 0.27063 0.09488 0.0
O410 O 0.38767 0.24497 0.15684 0.0
Co411 Co 0.37646 0.29679 0.10196 0.0
O412 O 0.36289 0.25785 0.10065 0.0
C413 C 0.37801 0.31799 0.18846 0.0
C414 C 0.45789 0.2748 0.20847 0.0
C415 C 0.36855 0.24038 0.12927 0.0
O416 O 0.39594 0.29892 0.19915 0.0
O417 O 0.36987 0.32143 0.15096 0.0
O418 O 0.44122 0.25275 0.12019 0.0
O419 O 0.41531 0.28972 0.11249 0.0
Co420 Co 0.75227 0.41943 0.16535 0.0
O421 O 0.73289 0.45396 0.17888 0.0
O422 O 0.76922 0.4379 0.21329 0.0
C423 C 0.75508 0.42765 0.09571 0.0
O424 O 0.77854 0.38538 0.16017 0.0
Co425 Co 0.72586 0.37585 0.10468 0.0
O426 O 0.76255 0.35711 0.1095 0.0
C427 C 0.70548 0.37938 0.19135 0.0
C428 C 0.75098 0.45774 0.20833 0.0
C429 C 0.78068 0.36349 0.1369 0.0
O430 O 0.72508 0.39687 0.20111 0.0
O431 O 0.70123 0.37103 0.15411 0.0
O432 O 0.77327 0.43862 0.12081 0.0
O433 O 0.73531 0.41425 0.11369 0.0
Co434 Co 0.60414 0.75064 0.16524 0.0
O435 O 0.5704 0.73061 0.18061 0.0
O436 O 0.58567 0.76806 0.21281 0.0
C437 C 0.59455 0.75137 0.09586 0.0
O438 O 0.63707 0.77797 0.15772 0.0
Co439 Co 0.64806 0.72523 0.1045 0.0
O440 O 0.66236 0.7639 0.10274 0.0
C441 C 0.64524 0.70488 0.19131 0.0
C442 C 0.56633 0.74923 0.20918 0.0
C443 C 0.65661 0.78187 0.13065 0.0
O444 O 0.62799 0.72468 0.20139 0.0
O445 O 0.65342 0.70073 0.15399 0.0
O446 O 0.5836 0.77002 0.12021 0.0
O447 O 0.60922 0.73271 0.1144 0.0
C448 C 0.33765 0.20587 0.09394 0.0
C449 C 0.3509 0.21471 0.13072 0.0
C450 C 0.3173 0.18501 0.09414 0.0
C451 C 0.30901 0.17175 0.13111 0.0
H452 H 0.34233 0.2159 0.06463 0.0
H453 H 0.30719 0.17993 0.06498 0.0
S454 S 0.3388 0.18517 0.23573 0.0
N455 N 0.35565 0.20701 0.20508 0.0
N456 N 0.31721 0.16762 0.20543 0.0
C457 C 0.32324 0.17903 0.16792 0.0
C458 C 0.34418 0.2005 0.16772 0.0
C459 C 0.85227 0.32789 0.14293 0.0
C460 C 0.84477 0.2995 0.14408 0.0
C461 C 0.83165 0.3491 0.14303 0.0
C462 C 0.80301 0.34245 0.14436 0.0
H463 H 0.874 0.33366 0.13979 0.0
H464 H 0.83806 0.37061 0.1399 0.0
S465 S 0.77297 0.27163 0.15465 0.0
N466 N 0.80694 0.26633 0.15158 0.0
N467 N 0.76868 0.30569 0.15182 0.0
C468 C 0.7956 0.31426 0.1483 0.0
C469 C 0.81633 0.29294 0.14814 0.0
C470 C 0.68812 0.8156 0.09507 0.0
C471 C 0.67463 0.8073 0.13185 0.0
C472 C 0.70877 0.83619 0.09509 0.0
C473 C 0.71718 0.84965 0.13192 0.0
H474 H 0.68338 0.80538 0.0659 0.0
H475 H 0.71894 0.8409 0.06589 0.0
S476 S 0.68687 0.83758 0.23646 0.0
N477 N 0.6698 0.81572 0.20602 0.0
N478 N 0.70882 0.85454 0.20608 0.0
C479 C 0.70275 0.84288 0.16872 0.0
C480 C 0.68148 0.82172 0.16868 0.0
C481 C 0.2193 0.69794 0.09925 0.0
C482 C 0.22001 0.6766 0.12933 0.0
C483 C 0.19886 0.71871 0.09942 0.0
C484 C 0.17761 0.71965 0.12965 0.0
H485 H 0.23505 0.69913 0.07522 0.0
H486 H 0.20022 0.7345 0.0755 0.0
S487 S 0.16782 0.66739 0.21348 0.0
N488 N 0.19617 0.65666 0.18899 0.0
N489 N 0.15745 0.69595 0.18927 0.0
C490 C 0.17721 0.69793 0.15923 0.0
C491 C 0.19836 0.67646 0.15908 0.0
C492 C 0.33129 0.84997 0.36562 0.0
C493 C 0.30274 0.84294 0.36422 0.0
C494 C 0.35218 0.82903 0.36577 0.0
C495 C 0.34504 0.80055 0.36455 0.0
H496 H 0.33742 0.87156 0.36883 0.0
H497 H 0.37383 0.83508 0.36903 0.0
S498 S 0.27362 0.77175 0.35371 0.0
N499 N 0.26888 0.80575 0.35657 0.0
N500 N 0.30765 0.76689 0.35686 0.0
C501 C 0.31669 0.79362 0.36036 0.0
C502 C 0.29569 0.81467 0.36019 0.0
C503 C 0.20163 0.34188 0.34139 0.0
C504 C 0.21288 0.35225 0.37884 0.0
C505 C 0.18115 0.3207 0.34147 0.0
C506 C 0.1713 0.3092 0.37901 0.0
H507 H 0.20993 0.34887 0.31191 0.0
H508 H 0.17433 0.3121 0.31205 0.0
S509 S 0.19011 0.33298 0.48522 0.0
N510 N 0.20965 0.3521 0.45418 0.0
N511 N 0.17155 0.31271 0.45435 0.0
C512 C 0.1808 0.32108 0.41643 0.0
C513 C 0.20146 0.34246 0.41634 0.0
C514 C 0.70259 0.18174 0.339 0.0
C515 C 0.71295 0.17057 0.37652 0.0
C516 C 0.68183 0.20276 0.33901 0.0
C517 C 0.67082 0.21328 0.37653 0.0
H518 H 0.71177 0.1755 0.3097 0.0
H519 H 0.67571 0.21202 0.3097 0.0
S520 S 0.68712 0.18725 0.48241 0.0
N521 N 0.70768 0.16896 0.45157 0.0
N522 N 0.66916 0.20809 0.45156 0.0
C523 C 0.67949 0.20063 0.4138 0.0
C524 C 0.7004 0.17941 0.41381 0.0
C525 C 0.81916 0.6846 0.41385 0.0
C526 C 0.81018 0.67159 0.37698 0.0
C527 C 0.83954 0.70545 0.41358 0.0
C528 C 0.8521 0.71446 0.37642 0.0
H529 H 0.80962 0.67934 0.44333 0.0
H530 H 0.84481 0.71527 0.44287 0.0
S531 S 0.83814 0.68547 0.27151 0.0
N532 N 0.81706 0.6678 0.30234 0.0
N533 N 0.85556 0.70714 0.30184 0.0
C534 C 0.84473 0.70045 0.3395 0.0
C535 C 0.82376 0.67902 0.33977 0.0
C536 C 0.70391 0.83946 0.83854 0.0
C537 C 0.71319 0.85159 0.87602 0.0
C538 C 0.68337 0.8183 0.83846 0.0
C539 C 0.67153 0.80862 0.87585 0.0
H540 H 0.71384 0.84501 0.8095 0.0
H541 H 0.67812 0.80827 0.80934 0.0
S542 S 0.68479 0.8374 0.98104 0.0
N543 N 0.70604 0.85501 0.95051 0.0
N544 N 0.66784 0.81565 0.95037 0.0
C545 C 0.67909 0.82224 0.9129 0.0
C546 C 0.69979 0.84359 0.91297 0.0
C547 C 0.18353 0.7025 0.84017 0.0
C548 C 0.17311 0.71358 0.87769 0.0
C549 C 0.20447 0.68166 0.84013 0.0
C550 C 0.21564 0.67124 0.87761 0.0
H551 H 0.17671 0.71111 0.81076 0.0
H552 H 0.21308 0.67491 0.81069 0.0
S553 S 0.19163 0.68956 0.98389 0.0
N554 N 0.17291 0.70969 0.95298 0.0
N555 N 0.2118 0.67094 0.95292 0.0
C556 C 0.20375 0.68067 0.91507 0.0
C557 C 0.18263 0.7017 0.9151 0.0
C558 C 0.33983 0.20298 0.83839 0.0
C559 C 0.35203 0.21223 0.87583 0.0
C560 C 0.31899 0.18213 0.8383 0.0
C561 C 0.30973 0.16992 0.87566 0.0
H562 H 0.34508 0.21312 0.80939 0.0
H563 H 0.30886 0.17688 0.80925 0.0
S564 S 0.33904 0.18293 0.9806 0.0
N565 N 0.35609 0.20468 0.95016 0.0
N566 N 0.31732 0.16585 0.95002 0.0
C567 C 0.32346 0.17747 0.91263 0.0
C568 C 0.34448 0.19851 0.91271 0.0
C569 C 0.83769 0.31462 0.91363 0.0
C570 C 0.85063 0.3056 0.87674 0.0
C571 C 0.81708 0.33533 0.91348 0.0
C572 C 0.8082 0.34819 0.87641 0.0
H573 H 0.84284 0.30488 0.94303 0.0
H574 H 0.80734 0.34064 0.94281 0.0
S575 S 0.83703 0.33413 0.77145 0.0
N576 N 0.85448 0.31269 0.80217 0.0
N577 N 0.81556 0.35176 0.80186 0.0
C578 C 0.82212 0.34072 0.83946 0.0
C579 C 0.84334 0.31943 0.83962 0.0
C580 C 0.67082 0.19278 0.6421 0.0
C581 C 0.67835 0.22116 0.6434 0.0
C582 C 0.69142 0.17156 0.64213 0.0
C583 C 0.72006 0.1782 0.64355 0.0
H584 H 0.64908 0.18704 0.63888 0.0
H585 H 0.68499 0.15006 0.63888 0.0
S586 S 0.75016 0.249 0.65393 0.0
N587 N 0.71619 0.25432 0.6509 0.0
N588 N 0.75443 0.21494 0.65108 0.0
C589 C 0.7275 0.20638 0.64756 0.0
C590 C 0.70679 0.22772 0.64746 0.0
C591 C 0.83077 0.67055 0.64538 0.0
C592 C 0.80223 0.67744 0.64862 0.0
C593 C 0.85152 0.69154 0.64537 0.0
C594 C 0.84424 0.71994 0.64856 0.0
H595 H 0.83693 0.64909 0.64045 0.0
H596 H 0.87309 0.68565 0.64046 0.0
S597 S 0.77296 0.74824 0.66415 0.0
N598 N 0.76834 0.7143 0.65979 0.0
N599 N 0.80688 0.75329 0.65974 0.0
C600 C 0.81599 0.72668 0.65458 0.0
C601 C 0.79512 0.70556 0.65462 0.0
C602 C 0.3299 0.84885 0.64635 0.0
C603 C 0.30134 0.84182 0.64755 0.0
C604 C 0.3508 0.82792 0.64617 0.0
C605 C 0.34367 0.79943 0.64714 0.0
H606 H 0.33603 0.87044 0.64324 0.0
H607 H 0.37244 0.83399 0.64298 0.0
S608 S 0.27225 0.77059 0.6574 0.0
N609 N 0.2675 0.8046 0.65476 0.0
N610 N 0.30629 0.76574 0.6544 0.0
C611 C 0.31533 0.79249 0.65118 0.0
C612 C 0.29431 0.81354 0.65139 0.0
C613 C 0.17126 0.3306 0.64095 0.0
C614 C 0.17832 0.30229 0.64612 0.0
C615 C 0.19211 0.35149 0.64082 0.0
C616 C 0.22052 0.34456 0.64585 0.0
H617 H 0.14983 0.33643 0.63466 0.0
H618 H 0.18617 0.37283 0.63444 0.0
S619 S 0.24915 0.27406 0.66617 0.0
N620 N 0.21528 0.26906 0.6606 0.0
N621 N 0.25401 0.30786 0.66033 0.0
C622 C 0.22738 0.31658 0.6536 0.0
C623 C 0.20641 0.29558 0.65374 0.0
C624 C 0.23365 0.10313 0.02647 0.0
C625 C 0.25548 0.09098 0.0494 0.0
C626 C 0.23375 0.10329 0.98311 0.0
C627 C 0.25568 0.09129 0.96021 0.0
H628 H 0.21607 0.11272 0.04207 0.0
H629 H 0.21622 0.11299 0.9675 0.0
S630 S 0.31817 0.05671 1.00486 0.0
N631 N 0.29991 0.06651 0.0459 0.0
N632 N 0.30008 0.0668 0.96378 0.0
C633 C 0.27776 0.0789 0.98249 0.0
C634 C 0.27766 0.07874 0.02715 0.0
C635 C 0.93941 0.27276 0.98293 0.0
C636 C 0.93189 0.24876 0.96031 0.0
C637 C 0.93928 0.27282 0.02684 0.0
C638 C 0.93163 0.24889 0.04945 0.0
H639 H 0.94476 0.29175 0.96669 0.0
H640 H 0.94457 0.29185 0.04309 0.0
S641 S 0.91335 0.17985 1.00481 0.0
N642 N 0.91882 0.1999 0.96409 0.0
N643 N 0.91859 0.19999 0.04556 0.0
C644 C 0.92513 0.22457 0.02699 0.0
C645 C 0.92525 0.22452 0.98272 0.0
C646 C 0.74701 0.93753 0.98273 0.0
C647 C 0.7714 0.93171 0.95987 0.0
C648 C 0.74728 0.93749 0.02664 0.0
C649 C 0.77195 0.93162 0.0489 0.0
H650 H 0.72749 0.94129 0.96669 0.0
H651 H 0.72796 0.94122 0.04316 0.0
S652 S 0.84204 0.9188 1.00347 0.0
N653 N 0.82128 0.92257 0.96298 0.0
N654 N 0.8218 0.9225 0.0445 0.0
C655 C 0.7966 0.92704 0.02618 0.0
C656 C 0.79632 0.92708 0.98195 0.0
C657 C 0.08657 0.74433 0.98222 0.0
C658 C 0.09127 0.76894 0.95946 0.0
C659 C 0.08651 0.74455 0.02614 0.0
C660 C 0.09114 0.76938 0.04847 0.0
H661 H 0.08382 0.72472 0.9661 0.0
H662 H 0.08371 0.72509 0.0426 0.0
S663 S 0.10069 0.83991 1.00327 0.0
N664 N 0.098 0.81908 0.96272 0.0
N665 N 0.09785 0.81951 0.04422 0.0
C666 C 0.09455 0.7942 0.02584 0.0
C667 C 0.09463 0.79397 0.98162 0.0
C668 C 0.23564 0.91444 0.48301 0.0
C669 C 0.25669 0.92791 0.46024 0.0
C670 C 0.23574 0.91413 0.52634 0.0
C671 C 0.25687 0.92729 0.54946 0.0
H672 H 0.21859 0.90402 0.46733 0.0
H673 H 0.21874 0.9035 0.54174 0.0
S674 S 0.31717 0.96553 0.50534 0.0
N675 N 0.29959 0.95478 0.46413 0.0
N676 N 0.29973 0.95424 0.54626 0.0
C677 C 0.27827 0.94084 0.52736 0.0
C678 C 0.27818 0.94114 0.48268 0.0
C679 C 0.1065 0.23224 0.52626 0.0
C680 C 0.09378 0.25375 0.54914 0.0
C681 C 0.10627 0.23208 0.4829 0.0
C682 C 0.09332 0.25343 0.45999 0.0
H683 H 0.11679 0.21508 0.54189 0.0
H684 H 0.11642 0.21483 0.4673 0.0
S685 S 0.05702 0.31491 0.5045 0.0
N686 N 0.06779 0.29724 0.54557 0.0
N687 N 0.0674 0.29697 0.46347 0.0
C688 C 0.08043 0.2752 0.48222 0.0
C689 C 0.08065 0.27536 0.52687 0.0
C690 C 0.78843 0.1039 0.52614 0.0
C691 C 0.76656 0.09193 0.54905 0.0
C692 C 0.78842 0.10382 0.48284 0.0
C693 C 0.76655 0.09177 0.45992 0.0
H694 H 0.80602 0.11349 0.5417 0.0
H695 H 0.806 0.11337 0.46728 0.0
S696 S 0.704 0.0576 0.50447 0.0
N697 N 0.72217 0.06757 0.54554 0.0
N698 N 0.72215 0.06744 0.4634 0.0
C699 C 0.74442 0.07959 0.48215 0.0
C700 C 0.74442 0.07966 0.52681 0.0
C701 C 0.93822 0.74458 0.52709 0.0
C702 C 0.93102 0.7687 0.5497 0.0
C703 C 0.93888 0.74477 0.48316 0.0
C704 C 0.93242 0.76911 0.4606 0.0
H705 H 0.94269 0.72533 0.54332 0.0
H706 H 0.94378 0.72565 0.46684 0.0
S707 S 0.91565 0.83855 0.5053 0.0
N708 N 0.91967 0.81807 0.54594 0.0
N709 N 0.92098 0.81843 0.46456 0.0
C710 C 0.92633 0.79351 0.48309 0.0
C711 C 0.92561 0.79331 0.52731 0.0
C712 C 0.73557 0.60547 0.52619 0.0
C713 C 0.75686 0.59245 0.54925 0.0
C714 C 0.73542 0.60509 0.48285 0.0
C715 C 0.75656 0.59169 0.46005 0.0
H716 H 0.71854 0.61609 0.54164 0.0
H717 H 0.7183 0.61545 0.46717 0.0
S718 S 0.81737 0.55435 0.50501 0.0
N719 N 0.79989 0.56563 0.54597 0.0
N720 N 0.79965 0.56496 0.46385 0.0
C721 C 0.77814 0.57851 0.48245 0.0
C722 C 0.77828 0.57889 0.52712 0.0
C723 C 0.43825 0.77614 0.48292 0.0
C724 C 0.43215 0.75174 0.46028 0.0
C725 C 0.43791 0.77624 0.52686 0.0
C726 C 0.43146 0.75194 0.54944 0.0
H727 H 0.44261 0.79538 0.46665 0.0
H728 H 0.44204 0.79554 0.54314 0.0
S729 S 0.4174 0.6819 0.50479 0.0
N730 N 0.4219 0.7022 0.46409 0.0
N731 N 0.42127 0.70236 0.54552 0.0
C732 C 0.42646 0.72727 0.52695 0.0
C733 C 0.42681 0.72718 0.48271 0.0
C734 C 0.2466 0.43899 0.48202 0.0
C735 C 0.27069 0.43185 0.45926 0.0
C736 C 0.24657 0.4384 0.52592 0.0
C737 C 0.27063 0.43062 0.54833 0.0
H738 H 0.2275 0.44437 0.46588 0.0
H739 H 0.22748 0.44341 0.54229 0.0
S740 S 0.33992 0.41318 0.50332 0.0
N741 N 0.31974 0.419 0.46273 0.0
N742 N 0.31974 0.41786 0.54417 0.0
C743 C 0.29503 0.42448 0.52574 0.0
C744 C 0.29505 0.4251 0.48151 0.0
C745 C 0.60507 0.29031 0.52564 0.0
C746 C 0.59276 0.26865 0.54854 0.0
C747 C 0.60492 0.29036 0.48228 0.0
C748 C 0.59244 0.26875 0.45937 0.0
H749 H 0.61499 0.30767 0.54125 0.0
H750 H 0.61474 0.30774 0.46666 0.0
S751 S 0.55733 0.20679 0.50393 0.0
N752 N 0.56767 0.22472 0.54499 0.0
N753 N 0.56739 0.22481 0.46289 0.0
C754 C 0.57994 0.24683 0.48162 0.0
C755 C 0.58011 0.24677 0.52627 0.0
C756 C 0.735 0.4162 0.98331 0.0
C757 C 0.75662 0.42862 0.96038 0.0
C758 C 0.73504 0.4162 0.02664 0.0
C759 C 0.75671 0.42861 0.04956 0.0
H760 H 0.71758 0.40632 0.96774 0.0
H761 H 0.71765 0.40632 0.04221 0.0
S762 S 0.81853 0.4641 1.00497 0.0
N763 N 0.80053 0.45382 0.9639 0.0
N764 N 0.80062 0.45382 0.04603 0.0
C765 C 0.7786 0.44123 0.0273 0.0
C766 C 0.77855 0.44123 0.98264 0.0
C767 C 0.58583 0.77582 0.02721 0.0
C768 C 0.5921 0.75143 0.04979 0.0
C769 C 0.58592 0.77585 0.98328 0.0
C770 C 0.59229 0.75151 0.96068 0.0
H771 H 0.58164 0.79511 0.04351 0.0
H772 H 0.58178 0.79516 0.96703 0.0
S773 S 0.60663 0.68151 1.00518 0.0
N774 N 0.60235 0.70187 0.04595 0.0
N775 N 0.60252 0.70192 0.96445 0.0
C776 C 0.5974 0.72685 0.98309 0.0
C777 C 0.5973 0.72682 0.02734 0.0
C778 C 0.29153 0.6022 0.02585 0.0
C779 C 0.26904 0.59148 0.04878 0.0
C780 C 0.29142 0.6022 0.98252 0.0
C781 C 0.26883 0.59145 0.95969 0.0
H782 H 0.30961 0.61083 0.04142 0.0
H783 H 0.30944 0.61082 0.96687 0.0
S784 S 0.20456 0.56074 1.0044 0.0
N785 N 0.22335 0.56961 0.0454 0.0
N786 N 0.22317 0.56958 0.96329 0.0
C787 C 0.24614 0.5804 0.98197 0.0
C788 C 0.24624 0.58042 0.02661 0.0
C789 C 0.41968 0.29057 0.98222 0.0
C790 C 0.43115 0.26823 0.95963 0.0
C791 C 0.41983 0.29092 0.02557 0.0
C792 C 0.43144 0.26895 0.04878 0.0
H793 H 0.41036 0.30817 0.96636 0.0
H794 H 0.41061 0.30877 0.04093 0.0
S795 S 0.46433 0.20534 1.00508 0.0
N796 N 0.45468 0.2234 0.96376 0.0
N797 N 0.45494 0.22405 0.04588 0.0
C798 C 0.44325 0.24644 0.02684 0.0
C799 C 0.44311 0.24609 0.98218 0.0
C800 C 0.22613 0.02431 0.24545 0.0
C801 C 0.25125 0.03747 0.23403 0.0
C802 C 0.22605 0.99885 0.26736 0.0
C803 C 0.25105 0.98487 0.27738 0.0
H804 H 0.20633 0.03393 0.23774 0.0
H805 H 0.20619 0.98985 0.27603 0.0
S806 S 0.32247 1.01002 0.25381 0.0
N807 N 0.30183 0.03447 0.23471 0.0
N808 N 0.30165 0.98625 0.27404 0.0
C809 C 0.27628 0.9976 0.26564 0.0
C810 C 0.27639 0.02395 0.24451 0.0
C811 C 1.00011 0.223 0.24341 0.0
C812 C 0.9863 0.2479 0.23255 0.0
C813 C 0.02565 0.22324 0.2653 0.0
C814 C 0.03905 0.24838 0.27584 0.0
H815 H 0.99093 0.20312 0.23539 0.0
H816 H 0.03514 0.20352 0.27364 0.0
S817 S 0.0121 0.31936 0.25364 0.0
N818 N 0.98809 0.29844 0.23415 0.0
N819 N 0.03644 0.29889 0.27346 0.0
C820 C 0.02568 0.27341 0.26455 0.0
C821 C 0.99926 0.27317 0.24343 0.0
C822 C 0.76598 0.01156 0.29506 0.0
C823 C 0.77366 0.03699 0.27648 0.0
C824 C 0.76638 0.98629 0.27252 0.0
C825 C 0.77537 0.98532 0.23088 0.0
H826 H 0.75941 0.01124 0.32725 0.0
H827 H 0.76006 0.96732 0.28805 0.0
S828 S 0.79771 0.04628 0.1681 0.0
N829 N 0.79001 0.05972 0.21395 0.0
N830 N 0.79193 0.01248 0.17206 0.0
C831 C 0.78331 1.0107 0.21217 0.0
C832 C 0.78216 0.03644 0.23481 0.0
C833 C 0.01389 0.7654 0.21364 0.0
C834 C 0.0397 0.77088 0.23303 0.0
C835 C 0.98868 0.7653 0.23633 0.0
C836 C 0.98818 0.77174 0.27902 0.0
H837 H 0.01319 0.76103 0.18063 0.0
H838 H 0.96939 0.76082 0.22013 0.0
S839 S 0.05015 0.78763 0.34428 0.0
N840 N 0.06324 0.78228 0.29747 0.0
N841 N 0.01607 0.78344 0.33975 0.0
C842 C 0.01392 0.77739 0.29863 0.0
C843 C 0.0396 0.77662 0.27577 0.0
C844 C 0.74993 0.99583 0.75976 0.0
C845 C 0.77481 0.98507 0.77698 0.0
C846 C 0.74935 0.02171 0.73889 0.0
C847 C 0.77377 0.03757 0.73339 0.0
H848 H 0.73061 0.98438 0.76301 0.0
H849 H 0.72976 0.02903 0.72608 0.0
S850 S 0.84426 0.01919 0.77233 0.0
N851 N 0.82442 0.99302 0.78754 0.0
N852 N 0.82342 0.04075 0.74701 0.0
C853 C 0.79875 0.02702 0.75009 0.0
C854 C 0.79924 1.00108 0.77221 0.0
C855 C 0.98795 0.76571 0.77284 0.0
C856 C 0.98716 0.77265 0.73034 0.0
C857 C 0.01327 0.76574 0.79533 0.0
C858 C 0.03891 0.77171 0.77591 0.0
H859 H 0.9688 0.76077 0.78905 0.0
H860 H 0.01281 0.76082 0.82817 0.0
S861 S 0.04866 0.79008 0.66517 0.0
N862 N 0.01464 0.7855 0.6698 0.0
N863 N 0.06201 0.78424 0.71171 0.0
C864 C 0.03853 0.77809 0.7334 0.0
C865 C 0.01273 0.77889 0.71074 0.0
C866 C 0.24014 0.98585 0.77242 0.0
C867 C 0.2498 0.98452 0.73124 0.0
C868 C 0.23952 0.0113 0.79442 0.0
C869 C 0.24916 0.03635 0.77649 0.0
H870 H 0.23263 0.96716 0.78754 0.0
H871 H 0.23178 0.01125 0.82603 0.0
S872 S 0.27657 0.0438 0.66929 0.0
N873 N 0.26878 1.01039 0.67309 0.0
N874 N 0.26868 0.05781 0.7147 0.0
C875 C 0.25914 0.03511 0.7354 0.0
C876 C 0.25914 1.00934 0.71274 0.0
C877 C 0.99847 0.27119 0.76492 0.0
C878 C 0.9854 0.24604 0.77623 0.0
C879 C 0.02437 0.27141 0.74398 0.0
C880 C 0.03786 0.24647 0.73237 0.0
H881 H 0.98893 0.29091 0.77312 0.0
H882 H 0.03361 0.29127 0.73605 0.0
S883 S 0.01228 0.17504 0.75394 0.0
N884 N 0.98823 0.19554 0.77442 0.0
N885 N 0.03594 0.19596 0.73364 0.0
C886 C 0.0248 0.22123 0.743 0.0
C887 C 0.99889 0.22101 0.76529 0.0
C888 C 0.75315 0.53461 0.77385 0.0
C889 C 0.74958 0.53482 0.73042 0.0
C890 C 0.75292 0.50945 0.79655 0.0
C891 C 0.75019 0.48344 0.77657 0.0
H892 H 0.75558 0.55407 0.79052 0.0
H893 H 0.75525 0.51033 0.83001 0.0
S894 S 0.74112 0.47235 0.66346 0.0
N895 N 0.74316 0.50655 0.66844 0.0
N896 N 0.74422 0.4595 0.71086 0.0
C897 C 0.74718 0.48332 0.73319 0.0
C898 C 0.74648 0.50893 0.71022 0.0
C899 C 0.53702 0.75452 0.7364 0.0
C900 C 0.53762 0.74735 0.77883 0.0
C901 C 0.51181 0.75448 0.7136 0.0
C902 C 0.4861 0.74829 0.73267 0.0
H903 H 0.55622 0.75969 0.7205 0.0
H904 H 0.51241 0.75961 0.68085 0.0
S905 S 0.47592 0.72921 0.84308 0.0
N906 N 0.50993 0.73399 0.83888 0.0
N907 N 0.46276 0.73525 0.79647 0.0
C908 C 0.48631 0.74165 0.77512 0.0
C909 C 0.512 0.74084 0.79804 0.0
C910 C 0.26746 0.48677 0.77204 0.0
C911 C 0.2748 0.48608 0.72968 0.0
C912 C 0.26764 0.51194 0.79478 0.0
C913 C 0.2742 0.53753 0.77574 0.0
H914 H 0.26205 0.46766 0.78794 0.0
H915 H 0.26234 0.51142 0.82749 0.0
S916 S 0.29389 0.54747 0.66554 0.0
N917 N 0.28872 0.51357 0.66973 0.0
N918 N 0.28777 0.56068 0.71207 0.0
C919 C 0.28103 0.53724 0.73338 0.0
C920 C 0.28167 0.51159 0.7105 0.0
C921 C 0.49811 0.2981 0.76477 0.0
C922 C 0.48491 0.27296 0.77578 0.0
C923 C 0.52351 0.29829 0.74262 0.0
C924 C 0.53737 0.27337 0.73199 0.0
H925 H 0.48855 0.31782 0.7729 0.0
H926 H 0.53255 0.31816 0.73421 0.0
S927 S 0.51208 0.20195 0.75441 0.0
N928 N 0.48775 0.22246 0.77413 0.0
N929 N 0.53586 0.22285 0.73438 0.0
C930 C 0.52461 0.24812 0.74339 0.0
C931 C 0.49833 0.24791 0.76474 0.0
C932 C 0.297 0.52464 0.24367 0.0
C933 C 0.27211 0.53877 0.23348 0.0
C934 C 0.29673 0.49905 0.26516 0.0
C935 C 0.27154 0.48586 0.27606 0.0
H936 H 0.31695 0.53357 0.23524 0.0
H937 H 0.31648 0.48931 0.27285 0.0
S938 S 0.2005 0.51374 0.25598 0.0
N939 N 0.22149 0.53756 0.2363 0.0
N940 N 0.22095 0.4891 0.27498 0.0
C941 C 0.24648 0.49959 0.26562 0.0
C942 C 0.24678 0.52609 0.24485 0.0
C943 C 0.52374 0.29909 0.26549 0.0
C944 C 0.53734 0.27401 0.27604 0.0
C945 C 0.49811 0.2992 0.24379 0.0
C946 C 0.4844 0.27424 0.23316 0.0
H947 H 0.53317 0.31885 0.27361 0.0
H948 H 0.48881 0.31904 0.23564 0.0
S949 S 0.51068 0.2029 0.25456 0.0
N950 N 0.53498 0.2235 0.27404 0.0
N951 N 0.48649 0.22371 0.23512 0.0
C952 C 0.49754 0.24904 0.24416 0.0
C953 C 0.52405 0.24892 0.26506 0.0
C954 C 0.72662 0.52367 0.26487 0.0
C955 C 0.75173 0.53701 0.27597 0.0
C956 C 0.72656 0.49813 0.24307 0.0
C957 C 0.75158 0.48425 0.23287 0.0
H958 H 0.70681 0.5332 0.27268 0.0
H959 H 0.7067 0.48901 0.23458 0.0
S960 S 0.82299 0.50988 0.25565 0.0
N961 N 0.80233 0.53427 0.27484 0.0
N962 N 0.80218 0.48593 0.23574 0.0
C963 C 0.77681 0.49716 0.24435 0.0
C964 C 0.77688 0.52358 0.26535 0.0
C965 C 0.50114 0.72458 0.26708 0.0
C966 C 0.48723 0.74954 0.27736 0.0
C967 C 0.52664 0.72467 0.24519 0.0
C968 C 0.53994 0.74974 0.23405 0.0
H969 H 0.49205 0.70475 0.27554 0.0
H970 H 0.53618 0.7049 0.23729 0.0
S971 S 0.51273 0.82084 0.25458 0.0
N972 N 0.48882 0.80006 0.27456 0.0
N973 N 0.53713 0.80024 0.23526 0.0
C974 C 0.52649 0.77484 0.24478 0.0
C975 C 0.50009 0.77473 0.26589 0.0
C976 C 0.17396 0.18105 0.21418 0.0
C977 C 0.18999 0.15717 0.22426 0.0
C978 C 0.15857 0.19569 0.24425 0.0
C979 C 0.15842 0.18721 0.28596 0.0
H980 H 0.17377 0.18916 0.18279 0.0
H981 H 0.14754 0.21436 0.23487 0.0
S982 S 0.19394 0.12414 0.3282 0.0
N983 N 0.20272 0.12452 0.27864 0.0
N984 N 0.17373 0.15162 0.33516 0.0
C985 C 0.17329 0.16259 0.29624 0.0
C986 C 0.18907 0.14775 0.26552 0.0
C987 C 0.86684 0.19372 0.26673 0.0
C988 C 0.8687 0.18385 0.22578 0.0
C989 C 0.85067 0.17981 0.29656 0.0
C990 C 0.8355 0.15535 0.28693 0.0
H991 H 0.87698 0.21299 0.27551 0.0
H992 H 0.84944 0.18899 0.32725 0.0
S993 S 0.83635 0.11865 0.18554 0.0
N994 N 0.85619 0.14628 0.17819 0.0
N995 N 0.82566 0.12056 0.23419 0.0
C996 C 0.83826 0.14449 0.24663 0.0
C997 C 0.85488 0.15857 0.21621 0.0
C998 C 0.86901 0.82674 0.24351 0.0
C999 C 0.86965 0.83567 0.28502 0.0
C1000 C 0.85344 0.84119 0.21341 0.0
C1001 C 0.83769 0.8653 0.22328 0.0
H1002 H 0.87968 0.8078 0.23439 0.0
H1003 H 0.85317 0.83269 0.18223 0.0
S1004 S 0.83532 0.89962 0.32645 0.0
N1005 N 0.85533 0.87202 0.33364 0.0
N1006 N 0.82596 0.89874 0.27711 0.0
C1007 C 0.83923 0.87523 0.26425 0.0
C1008 C 0.85522 0.8606 0.29498 0.0
C1009 C 0.1711 0.84298 0.29434 0.0
C1010 C 0.1868 0.8671 0.28477 0.0
C1011 C 0.15556 0.82871 0.26408 0.0
C1012 C 0.15488 0.83782 0.22267 0.0
H1013 H 0.17141 0.83432 0.3254 0.0
H1014 H 0.14491 0.80976 0.27302 0.0
S1015 S 0.18907 0.90194 0.1821 0.0
N1016 N 0.19846 0.90079 0.23143 0.0
N1017 N 0.16912 0.87441 0.17453 0.0
C1018 C 0.16926 0.86278 0.21303 0.0
C1019 C 0.18524 0.87723 0.24395 0.0
C1020 C 0.8673 0.82725 0.76589 0.0
C1021 C 0.86882 0.83675 0.72474 0.0
C1022 C 0.851 0.84121 0.79559 0.0
C1023 C 0.83538 0.86538 0.78567 0.0
H1024 H 0.87776 0.80817 0.77493 0.0
H1025 H 0.85007 0.83228 0.82645 0.0
S1026 S 0.83526 0.90116 0.68363 0.0
N1027 N 0.8555 0.8737 0.67657 0.0
N1028 N 0.82479 0.89957 0.7324 0.0
C1029 C 0.83782 0.87592 0.74516 0.0
C1030 C 0.85455 0.86176 0.71484 0.0
C1031 C 0.19373 0.86749 0.76521 0.0
C1032 C 0.1848 0.86775 0.72366 0.0
C1033 C 0.17985 0.85155 0.79531 0.0
C1034 C 0.15633 0.835 0.7854 0.0
H1035 H 0.21233 0.87873 0.77437 0.0
H1036 H 0.18836 0.85161 0.82649 0.0
S1037 S 0.12203 0.83137 0.6822 0.0
N1038 N 0.14893 0.85223 0.67501 0.0
N1039 N 0.12324 0.82215 0.73156 0.0
C1040 C 0.14628 0.83619 0.74443 0.0
C1041 C 0.16035 0.85257 0.7137 0.0
C1042 C 0.17971 0.16871 0.71447 0.0
C1043 C 0.15658 0.18579 0.72467 0.0
C1044 C 0.19439 0.15354 0.74472 0.0
C1045 C 0.18671 0.15465 0.78676 0.0
H1046 H 0.1873 0.16759 0.68283 0.0
H1047 H 0.21256 0.14173 0.73517 0.0
S1048 S 0.12545 0.19302 0.82956 0.0
N1049 N 0.12524 0.20068 0.77959 0.0
N1050 N 0.15242 0.17209 0.83649 0.0
C1051 C 0.16268 0.17043 0.79719 0.0
C1052 C 0.14778 0.18599 0.76626 0.0
C1053 C 0.86616 0.1942 0.74329 0.0
C1054 C 0.86741 0.18487 0.78455 0.0
C1055 C 0.85066 0.17974 0.71319 0.0
C1056 C 0.83563 0.15523 0.72285 0.0
H1057 H 0.8763 0.21343 0.7344 0.0
H1058 H 0.84984 0.18852 0.68223 0.0
S1059 S 0.83514 0.11979 0.82512 0.0
N1060 N 0.85449 0.14776 0.83261 0.0
N1061 N 0.82526 0.12098 0.77601 0.0
C1062 C 0.83777 0.14492 0.76352 0.0
C1063 C 0.85368 0.15958 0.79425 0.0
C1064 C 0.66861 0.67628 0.71408 0.0
C1065 C 0.68612 0.6535 0.7244 0.0
C1066 C 0.65403 0.69144 0.74445 0.0
C1067 C 0.65614 0.6846 0.78673 0.0
H1068 H 0.66676 0.68328 0.68222 0.0
H1069 H 0.64188 0.70934 0.73472 0.0
S1070 S 0.69584 0.62441 0.83015 0.0
N1071 N 0.70241 0.62332 0.77986 0.0
N1072 N 0.67486 0.65132 0.83695 0.0
C1073 C 0.67224 0.66082 0.79735 0.0
C1074 C 0.68722 0.64546 0.76631 0.0
C1075 C 0.3536 0.67863 0.79608 0.0
C1076 C 0.33757 0.65477 0.78628 0.0
C1077 C 0.36949 0.69261 0.76601 0.0
C1078 C 0.37018 0.68342 0.72461 0.0
H1079 H 0.35327 0.68734 0.82712 0.0
H1080 H 0.38031 0.71146 0.77502 0.0
S1081 S 0.33536 0.61972 0.68363 0.0
N1082 N 0.32576 0.62109 0.73281 0.0
N1083 N 0.35574 0.64695 0.67632 0.0
C1084 C 0.35557 0.65863 0.71481 0.0
C1085 C 0.33924 0.64448 0.74551 0.0
C1086 C 0.36881 0.32858 0.74413 0.0
C1087 C 0.36664 0.3353 0.78644 0.0
C1088 C 0.35419 0.34376 0.71381 0.0
C1089 C 0.33659 0.36644 0.72423 0.0
H1090 H 0.38111 0.31082 0.73429 0.0
H1091 H 0.35616 0.33689 0.6819 0.0
S1092 S 0.32644 0.39508 0.83019 0.0
N1093 N 0.34757 0.36827 0.83688 0.0
N1094 N 0.31998 0.39631 0.77986 0.0
C1095 C 0.33533 0.37431 0.7662 0.0
C1096 C 0.35034 0.35892 0.79721 0.0
C1097 C 0.65487 0.32857 0.76532 0.0
C1098 C 0.65468 0.33749 0.72379 0.0
C1099 C 0.67063 0.34256 0.79562 0.0
C1100 C 0.68705 0.36618 0.78596 0.0
H1101 H 0.64368 0.30996 0.77432 0.0
H1102 H 0.67053 0.33408 0.82679 0.0
S1103 S 0.6909 0.40038 0.68286 0.0
N1104 N 0.67021 0.37339 0.67539 0.0
N1105 N 0.69993 0.39925 0.73232 0.0
C1106 C 0.68597 0.37616 0.74499 0.0
C1107 C 0.66978 0.36199 0.71404 0.0
C1108 C 0.36648 0.32942 0.26297 0.0
C1109 C 0.36415 0.33591 0.2206 0.0
C1110 C 0.35106 0.34398 0.29308 0.0
C1111 C 0.33242 0.3658 0.28242 0.0
H1112 H 0.3797 0.31238 0.27303 0.0
H1113 H 0.35342 0.33744 0.32507 0.0
S1114 S 0.3207 0.39319 0.17613 0.0
N1115 N 0.34324 0.36752 0.16979 0.0
N1116 N 0.31421 0.39437 0.22643 0.0
C1117 C 0.33071 0.37329 0.24036 0.0
C1118 C 0.34654 0.35855 0.20955 0.0
C1119 C 0.65588 0.32799 0.2437 0.0
C1120 C 0.65646 0.33584 0.28569 0.0
C1121 C 0.67111 0.34273 0.21367 0.0
C1122 C 0.68775 0.36608 0.22408 0.0
H1123 H 0.64441 0.30967 0.23402 0.0
H1124 H 0.67041 0.33502 0.18206 0.0
S1125 S 0.69359 0.3976 0.32891 0.0
N1126 N 0.67298 0.37047 0.33556 0.0
N1127 N 0.70173 0.39771 0.27911 0.0
C1128 C 0.68747 0.37498 0.26563 0.0
C1129 C 0.67183 0.36005 0.29631 0.0
C1130 C 0.67469 0.68111 0.29548 0.0
C1131 C 0.69046 0.65707 0.28535 0.0
C1132 C 0.65911 0.6957 0.26554 0.0
C1133 C 0.65849 0.68699 0.22393 0.0
H1134 H 0.67486 0.6894 0.32677 0.0
H1135 H 0.64832 0.71451 0.27492 0.0
S1136 S 0.69317 0.62343 0.18171 0.0
N1137 N 0.70244 0.62403 0.2311 0.0
N1138 N 0.67307 0.651 0.17483 0.0
C1139 C 0.67308 0.66219 0.21365 0.0
C1140 C 0.68907 0.64742 0.24423 0.0
C1141 C 0.35325 0.67973 0.21298 0.0
C1142 C 0.33744 0.65574 0.22281 0.0
C1143 C 0.36907 0.69392 0.24303 0.0
C1144 C 0.36993 0.68481 0.28444 0.0
H1145 H 0.35284 0.68832 0.18188 0.0
H1146 H 0.37979 0.7128 0.23397 0.0
S1147 S 0.33539 0.62102 0.32556 0.0
N1148 N 0.32576 0.62221 0.27635 0.0
N1149 N 0.35563 0.64838 0.33283 0.0
C1150 C 0.35537 0.65998 0.29431 0.0
C1151 C 0.33909 0.64565 0.26363 0.0
loop_
_geom_bond_atom_site_label_1
_geom_bond_atom_site_label_2
_geom_bond_distance
_geom_bond_site_symmetry_2
_ccdc_geom_bond_type
Co0 O1 2.216 . S
Co0 O2 2.091 . S
Co0 O4 2.004 . S
Co0 O10 2.021 . S
Co0 O12 2.137 . S
Co0 O13 2.244 . S
O1 Co0 2.216 . S
O1 C8 1.247 . S
O2 Co0 2.091 . S
O2 C8 1.261 . S
C3 O12 1.247 . S
C3 O13 1.272 . S
O4 Co0 2.004 . S
O4 C9 1.259 . S
Co5 O6 2.061 . S
Co5 O11 2.052 . S
Co5 O13 2.135 . S
O6 Co5 2.061 . S
O6 C9 1.235 . S
C7 O10 1.238 . S
C7 O11 1.241 . S
C8 O1 1.247 . S
C8 O2 1.261 . S
C9 O4 1.259 . S
C9 O6 1.235 . S
O10 Co0 2.021 . S
O10 C7 1.238 . S
O11 Co5 2.052 . S
O11 C7 1.241 . S
O12 Co0 2.137 . S
O12 C3 1.247 . S
O13 Co0 2.244 . S
O13 C3 1.272 . S
O13 Co5 2.135 . S
Co14 O15 2.216 . S
Co14 O16 2.091 . S
Co14 O18 2.004 . S
Co14 O24 2.021 . S
Co14 O26 2.137 . S
Co14 O27 2.244 . S
O15 Co14 2.216 . S
O15 C22 1.247 . S
O16 Co14 2.091 . S
O16 C22 1.261 . S
C17 O26 1.247 . S
C17 O27 1.272 . S
O18 Co14 2.004 . S
O18 C23 1.259 . S
Co19 O20 2.061 . S
Co19 O25 2.052 . S
Co19 O27 2.135 . S
O20 Co19 2.061 . S
O20 C23 1.235 . S
C21 O24 1.238 . S
C21 O25 1.241 . S
C22 O15 1.247 . S
C22 O16 1.261 . S
C23 O18 1.259 . S
C23 O20 1.235 . S
O24 Co14 2.021 . S
O24 C21 1.238 . S
O25 Co19 2.052 . S
O25 C21 1.241 . S
O26 Co14 2.137 . S
O26 C17 1.247 . S
O27 Co14 2.244 . S
O27 C17 1.272 . S
O27 Co19 2.135 . S
Co28 O29 2.216 . S
Co28 O30 2.091 . S
Co28 O32 2.004 . S
Co28 O38 2.021 . S
Co28 O40 2.137 . S
Co28 O41 2.244 . S
O29 Co28 2.216 . S
O29 C36 1.247 . S
O30 Co28 2.091 . S
O30 C36 1.261 . S
C31 O40 1.247 . S
C31 O41 1.272 . S
O32 Co28 2.004 . S
O32 C37 1.259 . S
Co33 O34 2.061 . S
Co33 O39 2.052 . S
Co33 O41 2.135 . S
O34 Co33 2.061 . S
O34 C37 1.235 . S
C35 O38 1.238 . S
C35 O39 1.241 . S
C36 O29 1.247 . S
C36 O30 1.261 . S
C37 O32 1.259 . S
C37 O34 1.235 . S
O38 Co28 2.021 . S
O38 C35 1.238 . S
O39 Co33 2.052 . S
O39 C35 1.241 . S
O40 Co28 2.137 . S
O40 C31 1.247 . S
O41 Co28 2.244 . S
O41 C31 1.272 . S
O41 Co33 2.135 . S
Co42 O43 2.216 . S
Co42 O44 2.091 . S
Co42 O46 2.004 . S
Co42 O52 2.021 . S
Co42 O54 2.137 . S
Co42 O55 2.244 . S
O43 Co42 2.216 . S
O43 C50 1.247 . S
O44 Co42 2.091 . S
O44 C50 1.261 . S
C45 O54 1.247 . S
C45 O55 1.272 . S
O46 Co42 2.004 . S
O46 C51 1.259 . S
Co47 O48 2.061 . S
Co47 O53 2.052 . S
Co47 O55 2.135 . S
O48 Co47 2.061 . S
O48 C51 1.235 . S
C49 O52 1.238 . S
C49 O53 1.241 . S
C50 O43 1.247 . S
C50 O44 1.261 . S
C51 O46 1.259 . S
C51 O48 1.235 . S
O52 Co42 2.021 . S
O52 C49 1.238 . S
O53 Co47 2.052 . S
O53 C49 1.241 . S
O54 Co42 2.137 . S
O54 C45 1.247 . S
O55 Co42 2.244 . S
O55 C45 1.272 . S
O55 Co47 2.135 . S
Co56 O57 2.216 . S
Co56 O58 2.091 . S
Co56 O60 2.004 . S
Co56 O66 2.021 . S
Co56 O68 2.137 . S
Co56 O69 2.244 . S
O57 Co56 2.216 . S
O57 C64 1.247 . S
O58 Co56 2.091 . S
O58 C64 1.261 . S
C59 O68 1.247 . S
C59 O69 1.272 . S
O60 Co56 2.004 . S
O60 C65 1.259 . S
Co61 O62 2.061 . S
Co61 O67 2.052 . S
Co61 O69 2.135 . S
O62 Co61 2.061 . S
O62 C65 1.235 . S
C63 O66 1.238 . S
C63 O67 1.241 . S
C64 O57 1.247 . S
C64 O58 1.261 . S
C65 O60 1.259 . S
C65 O62 1.235 . S
O66 Co56 2.021 . S
O66 C63 1.238 . S
O67 Co61 2.052 . S
O67 C63 1.241 . S
O68 Co56 2.137 . S
O68 C59 1.247 . S
O69 Co56 2.244 . S
O69 C59 1.272 . S
O69 Co61 2.135 . S
Co70 O71 2.216 . S
Co70 O72 2.091 . S
Co70 O74 2.004 . S
Co70 O80 2.021 . S
Co70 O82 2.137 . S
Co70 O83 2.244 . S
O71 Co70 2.216 . S
O71 C78 1.247 . S
O72 Co70 2.091 . S
O72 C78 1.261 . S
C73 O82 1.247 . S
C73 O83 1.272 . S
O74 Co70 2.004 . S
O74 C79 1.259 . S
Co75 O76 2.061 . S
Co75 O81 2.052 . S
Co75 O83 2.135 . S
O76 Co75 2.061 . S
O76 C79 1.235 . S
C77 O80 1.238 . S
C77 O81 1.241 . S
C78 O71 1.247 . S
C78 O72 1.261 . S
C79 O74 1.259 . S
C79 O76 1.235 . S
O80 Co70 2.021 . S
O80 C77 1.238 . S
O81 Co75 2.052 . S
O81 C77 1.241 . S
O82 Co70 2.137 . S
O82 C73 1.247 . S
O83 Co70 2.244 . S
O83 C73 1.272 . S
O83 Co75 2.135 . S
Co84 O85 2.216 . S
Co84 O86 2.091 . S
Co84 O88 2.004 . S
Co84 O94 2.021 . S
Co84 O96 2.137 . S
Co84 O97 2.244 . S
O85 Co84 2.216 . S
O85 C92 1.247 . S
O86 Co84 2.091 . S
O86 C92 1.261 . S
C87 O96 1.247 . S
C87 O97 1.272 . S
O88 Co84 2.004 . S
O88 C93 1.259 . S
Co89 O90 2.061 . S
Co89 O95 2.052 . S
Co89 O97 2.135 . S
O90 Co89 2.061 . S
O90 C93 1.235 . S
C91 O94 1.238 . S
C91 O95 1.241 . S
C92 O85 1.247 . S
C92 O86 1.261 . S
C93 O88 1.259 . S
C93 O90 1.235 . S
O94 Co84 2.021 . S
O94 C91 1.238 . S
O95 Co89 2.052 . S
O95 C91 1.241 . S
O96 Co84 2.137 . S
O96 C87 1.247 . S
O97 Co84 2.244 . S
O97 C87 1.272 . S
O97 Co89 2.135 . S
Co98 O99 2.216 . S
Co98 O100 2.091 . S
Co98 O102 2.004 . S
Co98 O108 2.021 . S
Co98 O110 2.137 . S
Co98 O111 2.244 . S
O99 Co98 2.216 . S
O99 C106 1.247 . S
O100 Co98 2.091 . S
O100 C106 1.261 . S
C101 O110 1.247 . S
C101 O111 1.272 . S
O102 Co98 2.004 . S
O102 C107 1.259 . S
Co103 O104 2.061 . S
Co103 O109 2.052 . S
Co103 O111 2.135 . S
O104 Co103 2.061 . S
O104 C107 1.235 . S
C105 O108 1.238 . S
C105 O109 1.241 . S
C106 O99 1.247 . S
C106 O100 1.261 . S
C107 O102 1.259 . S
C107 O104 1.235 . S
O108 Co98 2.021 . S
O108 C105 1.238 . S
O109 Co103 2.052 . S
O109 C105 1.241 . S
O110 Co98 2.137 . S
O110 C101 1.247 . S
O111 Co98 2.244 . S
O111 C101 1.272 . S
O111 Co103 2.135 . S
Co112 O113 2.216 . S
Co112 O114 2.091 . S
Co112 O116 2.004 . S
Co112 O122 2.021 . S
Co112 O124 2.137 . S
Co112 O125 2.244 . S
O113 Co112 2.216 . S
O113 C120 1.247 . S
O114 Co112 2.091 . S
O114 C120 1.261 . S
C115 O124 1.247 . S
C115 O125 1.272 . S
O116 Co112 2.004 . S
O116 C121 1.259 . S
Co117 O118 2.061 . S
Co117 O123 2.052 . S
Co117 O125 2.135 . S
O118 Co117 2.061 . S
O118 C121 1.235 . S
C119 O122 1.238 . S
C119 O123 1.241 . S
C120 O113 1.247 . S
C120 O114 1.261 . S
C121 O116 1.259 . S
C121 O118 1.235 . S
O122 Co112 2.021 . S
O122 C119 1.238 . S
O123 Co117 2.052 . S
O123 C119 1.241 . S
O124 Co112 2.137 . S
O124 C115 1.247 . S
O125 Co112 2.244 . S
O125 C115 1.272 . S
O125 Co117 2.135 . S
Co126 O127 2.216 . S
Co126 O128 2.091 . S
Co126 O130 2.004 . S
Co126 O136 2.021 . S
Co126 O138 2.137 . S
Co126 O139 2.244 . S
O127 Co126 2.216 . S
O127 C134 1.247 . S
O128 Co126 2.091 . S
O128 C134 1.261 . S
C129 O138 1.247 . S
C129 O139 1.272 . S
O130 Co126 2.004 . S
O130 C135 1.259 . S
Co131 O132 2.061 . S
Co131 O137 2.052 . S
Co131 O139 2.135 . S
O132 Co131 2.061 . S
O132 C135 1.235 . S
C133 O136 1.238 . S
C133 O137 1.241 . S
C134 O127 1.247 . S
C134 O128 1.261 . S
C135 O130 1.259 . S
C135 O132 1.235 . S
O136 Co126 2.021 . S
O136 C133 1.238 . S
O137 Co131 2.052 . S
O137 C133 1.241 . S
O138 Co126 2.137 . S
O138 C129 1.247 . S
O139 Co126 2.244 . S
O139 C129 1.272 . S
O139 Co131 2.135 . S
Co140 O141 2.216 . S
Co140 O142 2.091 . S
Co140 O144 2.004 . S
Co140 O150 2.021 . S
Co140 O152 2.137 . S
Co140 O153 2.244 . S
O141 Co140 2.216 . S
O141 C148 1.247 . S
O142 Co140 2.091 . S
O142 C148 1.261 . S
C143 O152 1.247 . S
C143 O153 1.272 . S
O144 Co140 2.004 . S
O144 C149 1.259 . S
Co145 O146 2.061 . S
Co145 O151 2.052 . S
Co145 O153 2.135 . S
O146 Co145 2.061 . S
O146 C149 1.235 . S
C147 O150 1.238 . S
C147 O151 1.241 . S
C148 O141 1.247 . S
C148 O142 1.261 . S
C149 O144 1.259 . S
C149 O146 1.235 . S
O150 Co140 2.021 . S
O150 C147 1.238 . S
O151 Co145 2.052 . S
O151 C147 1.241 . S
O152 Co140 2.137 . S
O152 C143 1.247 . S
O153 Co140 2.244 . S
O153 C143 1.272 . S
O153 Co145 2.135 . S
Co154 O155 2.216 . S
Co154 O156 2.091 . S
Co154 O158 2.004 . S
Co154 O164 2.021 . S
Co154 O166 2.137 . S
Co154 O167 2.244 . S
O155 Co154 2.216 . S
O155 C162 1.247 . S
O156 Co154 2.091 . S
O156 C162 1.261 . S
C157 O166 1.247 . S
C157 O167 1.272 . S
O158 Co154 2.004 . S
O158 C163 1.259 . S
Co159 O160 2.061 . S
Co159 O165 2.052 . S
Co159 O167 2.135 . S
O160 Co159 2.061 . S
O160 C163 1.235 . S
C161 O164 1.238 . S
C161 O165 1.241 . S
C162 O155 1.247 . S
C162 O156 1.261 . S
C163 O158 1.259 . S
C163 O160 1.235 . S
O164 Co154 2.021 . S
O164 C161 1.238 . S
O165 Co159 2.052 . S
O165 C161 1.241 . S
O166 Co154 2.137 . S
O166 C157 1.247 . S
O167 Co154 2.244 . S
O167 C157 1.272 . S
O167 Co159 2.135 . S
Co168 O169 2.216 . S
Co168 O170 2.091 . S
Co168 O172 2.004 . S
Co168 O178 2.021 . S
Co168 O180 2.137 . S
Co168 O181 2.244 . S
O169 Co168 2.216 . S
O169 C176 1.247 . S
O170 Co168 2.091 . S
O170 C176 1.261 . S
C171 O180 1.247 . S
C171 O181 1.272 . S
O172 Co168 2.004 . S
O172 C177 1.259 . S
Co173 O174 2.061 . S
Co173 O179 2.052 . S
Co173 O181 2.135 . S
O174 Co173 2.061 . S
O174 C177 1.235 . S
C175 O178 1.238 . S
C175 O179 1.241 . S
C176 O169 1.247 . S
C176 O170 1.261 . S
C177 O172 1.259 . S
C177 O174 1.235 . S
O178 Co168 2.021 . S
O178 C175 1.238 . S
O179 Co173 2.052 . S
O179 C175 1.241 . S
O180 Co168 2.137 . S
O180 C171 1.247 . S
O181 Co168 2.244 . S
O181 C171 1.272 . S
O181 Co173 2.135 . S
Co182 O183 2.216 . S
Co182 O184 2.091 . S
Co182 O186 2.004 . S
Co182 O192 2.021 . S
Co182 O194 2.137 . S
Co182 O195 2.244 . S
O183 Co182 2.216 . S
O183 C190 1.247 . S
O184 Co182 2.091 . S
O184 C190 1.261 . S
C185 O194 1.247 . S
C185 O195 1.272 . S
O186 Co182 2.004 . S
O186 C191 1.259 . S
Co187 O188 2.061 . S
Co187 O193 2.052 . S
Co187 O195 2.135 . S
O188 Co187 2.061 . S
O188 C191 1.235 . S
C189 O192 1.238 . S
C189 O193 1.241 . S
C190 O183 1.247 . S
C190 O184 1.261 . S
C191 O186 1.259 . S
C191 O188 1.235 . S
O192 Co182 2.021 . S
O192 C189 1.238 . S
O193 Co187 2.052 . S
O193 C189 1.241 . S
O194 Co182 2.137 . S
O194 C185 1.247 . S
O195 Co182 2.244 . S
O195 C185 1.272 . S
O195 Co187 2.135 . S
Co196 O197 2.216 . S
Co196 O198 2.091 . S
Co196 O200 2.004 . S
Co196 O206 2.021 . S
Co196 O208 2.137 . S
Co196 O209 2.244 . S
O197 Co196 2.216 . S
O197 C204 1.247 . S
O198 Co196 2.091 . S
O198 C204 1.261 . S
C199 O208 1.247 . S
C199 O209 1.272 . S
O200 Co196 2.004 . S
O200 C205 1.259 . S
Co201 O202 2.061 . S
Co201 O207 2.052 . S
Co201 O209 2.135 . S
O202 Co201 2.061 . S
O202 C205 1.235 . S
C203 O206 1.238 . S
C203 O207 1.241 . S
C204 O197 1.247 . S
C204 O198 1.261 . S
C205 O200 1.259 . S
C205 O202 1.235 . S
O206 Co196 2.021 . S
O206 C203 1.238 . S
O207 Co201 2.052 . S
O207 C203 1.241 . S
O208 Co196 2.137 . S
O208 C199 1.247 . S
O209 Co196 2.244 . S
O209 C199 1.272 . S
O209 Co201 2.135 . S
Co210 O211 2.216 . S
Co210 O212 2.091 . S
Co210 O214 2.004 . S
Co210 O220 2.021 . S
Co210 O222 2.137 . S
Co210 O223 2.244 . S
O211 Co210 2.216 . S
O211 C218 1.247 . S
O212 Co210 2.091 . S
O212 C218 1.261 . S
C213 O222 1.247 . S
C213 O223 1.272 . S
O214 Co210 2.004 . S
O214 C219 1.259 . S
Co215 O216 2.061 . S
Co215 O221 2.052 . S
Co215 O223 2.135 . S
O216 Co215 2.061 . S
O216 C219 1.235 . S
C217 O220 1.238 . S
C217 O221 1.241 . S
C218 O211 1.247 . S
C218 O212 1.261 . S
C219 O214 1.259 . S
C219 O216 1.235 . S
O220 Co210 2.021 . S
O220 C217 1.238 . S
O221 Co215 2.052 . S
O221 C217 1.241 . S
O222 Co210 2.137 . S
O222 C213 1.247 . S
O223 Co210 2.244 . S
O223 C213 1.272 . S
O223 Co215 2.135 . S
Co224 O225 2.216 . S
Co224 O226 2.091 . S
Co224 O228 2.004 . S
Co224 O234 2.021 . S
Co224 O236 2.137 . S
Co224 O237 2.244 . S
O225 Co224 2.216 . S
O225 C232 1.247 . S
O226 Co224 2.091 . S
O226 C232 1.261 . S
C227 O236 1.247 . S
C227 O237 1.272 . S
O228 Co224 2.004 . S
O228 C233 1.259 . S
Co229 O230 2.061 . S
Co229 O235 2.052 . S
Co229 O237 2.135 . S
O230 Co229 2.061 . S
O230 C233 1.235 . S
C231 O234 1.238 . S
C231 O235 1.241 . S
C232 O225 1.247 . S
C232 O226 1.261 . S
C233 O228 1.259 . S
C233 O230 1.235 . S
O234 Co224 2.021 . S
O234 C231 1.238 . S
O235 Co229 2.052 . S
O235 C231 1.241 . S
O236 Co224 2.137 . S
O236 C227 1.247 . S
O237 Co224 2.244 . S
O237 C227 1.272 . S
O237 Co229 2.135 . S
Co238 O239 2.216 . S
Co238 O240 2.091 . S
Co238 O242 2.004 . S
Co238 O248 2.021 . S
Co238 O250 2.137 . S
Co238 O251 2.244 . S
O239 Co238 2.216 . S
O239 C246 1.247 . S
O240 Co238 2.091 . S
O240 C246 1.261 . S
C241 O250 1.247 . S
C241 O251 1.272 . S
O242 Co238 2.004 . S
O242 C247 1.259 . S
Co243 O244 2.061 . S
Co243 O249 2.052 . S
Co243 O251 2.135 . S
O244 Co243 2.061 . S
O244 C247 1.235 . S
C245 O248 1.238 . S
C245 O249 1.241 . S
C246 O239 1.247 . S
C246 O240 1.261 . S
C247 O242 1.259 . S
C247 O244 1.235 . S
O248 Co238 2.021 . S
O248 C245 1.238 . S
O249 Co243 2.052 . S
O249 C245 1.241 . S
O250 Co238 2.137 . S
O250 C241 1.247 . S
O251 Co238 2.244 . S
O251 C241 1.272 . S
O251 Co243 2.135 . S
Co252 O253 2.216 . S
Co252 O254 2.091 . S
Co252 O256 2.004 . S
Co252 O262 2.021 . S
Co252 O264 2.137 . S
Co252 O265 2.244 . S
O253 Co252 2.216 . S
O253 C260 1.247 . S
O254 Co252 2.091 . S
O254 C260 1.261 . S
C255 O264 1.247 . S
C255 O265 1.272 . S
O256 Co252 2.004 . S
O256 C261 1.259 . S
Co257 O258 2.061 . S
Co257 O263 2.052 . S
Co257 O265 2.135 . S
O258 Co257 2.061 . S
O258 C261 1.235 . S
C259 O262 1.238 . S
C259 O263 1.241 . S
C260 O253 1.247 . S
C260 O254 1.261 . S
C261 O256 1.259 . S
C261 O258 1.235 . S
O262 Co252 2.021 . S
O262 C259 1.238 . S
O263 Co257 2.052 . S
O263 C259 1.241 . S
O264 Co252 2.137 . S
O264 C255 1.247 . S
O265 Co252 2.244 . S
O265 C255 1.272 . S
O265 Co257 2.135 . S
Co266 O267 2.216 . S
Co266 O268 2.091 . S
Co266 O270 2.004 . S
Co266 O276 2.021 . S
Co266 O278 2.137 . S
Co266 O279 2.244 . S
O267 Co266 2.216 . S
O267 C274 1.247 . S
O268 Co266 2.091 . S
O268 C274 1.261 . S
C269 O278 1.247 . S
C269 O279 1.272 . S
O270 Co266 2.004 . S
O270 C275 1.259 . S
Co271 O272 2.061 . S
Co271 O277 2.052 . S
Co271 O279 2.135 . S
O272 Co271 2.061 . S
O272 C275 1.235 . S
C273 O276 1.238 . S
C273 O277 1.241 . S
C274 O267 1.247 . S
C274 O268 1.261 . S
C275 O270 1.259 . S
C275 O272 1.235 . S
O276 Co266 2.021 . S
O276 C273 1.238 . S
O277 Co271 2.052 . S
O277 C273 1.241 . S
O278 Co266 2.137 . S
O278 C269 1.247 . S
O279 Co266 2.244 . S
O279 C269 1.272 . S
O279 Co271 2.135 . S
Co280 O281 2.216 . S
Co280 O282 2.091 . S
Co280 O284 2.004 . S
Co280 O290 2.021 . S
Co280 O292 2.137 . S
Co280 O293 2.244 . S
O281 Co280 2.216 . S
O281 C288 1.247 . S
O282 Co280 2.091 . S
O282 C288 1.261 . S
C283 O292 1.247 . S
C283 O293 1.272 . S
O284 Co280 2.004 . S
O284 C289 1.259 . S
Co285 O286 2.061 . S
Co285 O291 2.052 . S
Co285 O293 2.135 . S
O286 Co285 2.061 . S
O286 C289 1.235 . S
C287 O290 1.238 . S
C287 O291 1.241 . S
C288 O281 1.247 . S
C288 O282 1.261 . S
C289 O284 1.259 . S
C289 O286 1.235 . S
O290 Co280 2.021 . S
O290 C287 1.238 . S
O291 Co285 2.052 . S
O291 C287 1.241 . S
O292 Co280 2.137 . S
O292 C283 1.247 . S
O293 Co280 2.244 . S
O293 C283 1.272 . S
O293 Co285 2.135 . S
Co294 O295 2.216 . S
Co294 O296 2.091 . S
Co294 O298 2.004 . S
Co294 O304 2.021 . S
Co294 O306 2.137 . S
Co294 O307 2.244 . S
O295 Co294 2.216 . S
O295 C302 1.247 . S
O296 Co294 2.091 . S
O296 C302 1.261 . S
C297 O306 1.247 . S
C297 O307 1.272 . S
O298 Co294 2.004 . S
O298 C303 1.259 . S
Co299 O300 2.061 . S
Co299 O305 2.052 . S
Co299 O307 2.135 . S
O300 Co299 2.061 . S
O300 C303 1.235 . S
C301 O304 1.238 . S
C301 O305 1.241 . S
C302 O295 1.247 . S
C302 O296 1.261 . S
C303 O298 1.259 . S
C303 O300 1.235 . S
O304 Co294 2.021 . S
O304 C301 1.238 . S
O305 Co299 2.052 . S
O305 C301 1.241 . S
O306 Co294 2.137 . S
O306 C297 1.247 . S
O307 Co294 2.244 . S
O307 C297 1.272 . S
O307 Co299 2.135 . S
Co308 O309 2.216 . S
Co308 O310 2.091 . S
Co308 O312 2.004 . S
Co308 O318 2.021 . S
Co308 O320 2.137 . S
Co308 O321 2.244 . S
O309 Co308 2.216 . S
O309 C316 1.247 . S
O310 Co308 2.091 . S
O310 C316 1.261 . S
C311 O320 1.247 . S
C311 O321 1.272 . S
O312 Co308 2.004 . S
O312 C317 1.259 . S
Co313 O314 2.061 . S
Co313 O319 2.052 . S
Co313 O321 2.135 . S
O314 Co313 2.061 . S
O314 C317 1.235 . S
C315 O318 1.238 . S
C315 O319 1.241 . S
C316 O309 1.247 . S
C316 O310 1.261 . S
C317 O312 1.259 . S
C317 O314 1.235 . S
O318 Co308 2.021 . S
O318 C315 1.238 . S
O319 Co313 2.052 . S
O319 C315 1.241 . S
O320 Co308 2.137 . S
O320 C311 1.247 . S
O321 Co308 2.244 . S
O321 C311 1.272 . S
O321 Co313 2.135 . S
Co322 O323 2.216 . S
Co322 O324 2.091 . S
Co322 O326 2.004 . S
Co322 O332 2.021 . S
Co322 O334 2.137 . S
Co322 O335 2.244 . S
O323 Co322 2.216 . S
O323 C330 1.247 . S
O324 Co322 2.091 . S
O324 C330 1.261 . S
C325 O334 1.247 . S
C325 O335 1.272 . S
O326 Co322 2.004 . S
O326 C331 1.259 . S
Co327 O328 2.061 . S
Co327 O333 2.052 . S
Co327 O335 2.135 . S
O328 Co327 2.061 . S
O328 C331 1.235 . S
C329 O332 1.238 . S
C329 O333 1.241 . S
C330 O323 1.247 . S
C330 O324 1.261 . S
C331 O326 1.259 . S
C331 O328 1.235 . S
O332 Co322 2.021 . S
O332 C329 1.238 . S
O333 Co327 2.052 . S
O333 C329 1.241 . S
O334 Co322 2.137 . S
O334 C325 1.247 . S
O335 Co322 2.244 . S
O335 C325 1.272 . S
O335 Co327 2.135 . S
Co336 O337 2.216 . S
Co336 O338 2.091 . S
Co336 O340 2.004 . S
Co336 O346 2.021 . S
Co336 O348 2.137 . S
Co336 O349 2.244 . S
O337 Co336 2.216 . S
O337 C344 1.247 . S
O338 Co336 2.091 . S
O338 C344 1.261 . S
C339 O348 1.247 . S
C339 O349 1.272 . S
O340 Co336 2.004 . S
O340 C345 1.259 . S
Co341 O342 2.061 . S
Co341 O347 2.052 . S
Co341 O349 2.135 . S
O342 Co341 2.061 . S
O342 C345 1.235 . S
C343 O346 1.238 . S
C343 O347 1.241 . S
C344 O337 1.247 . S
C344 O338 1.261 . S
C345 O340 1.259 . S
C345 O342 1.235 . S
O346 Co336 2.021 . S
O346 C343 1.238 . S
O347 Co341 2.052 . S
O347 C343 1.241 . S
O348 Co336 2.137 . S
O348 C339 1.247 . S
O349 Co336 2.244 . S
O349 C339 1.272 . S
O349 Co341 2.135 . S
Co350 O351 2.216 . S
Co350 O352 2.091 . S
Co350 O354 2.004 . S
Co350 O360 2.021 . S
Co350 O362 2.137 . S
Co350 O363 2.244 . S
O351 Co350 2.216 . S
O351 C358 1.247 . S
O352 Co350 2.091 . S
O352 C358 1.261 . S
C353 O362 1.247 . S
C353 O363 1.272 . S
O354 Co350 2.004 . S
O354 C359 1.259 . S
Co355 O356 2.061 . S
Co355 O361 2.052 . S
Co355 O363 2.135 . S
O356 Co355 2.061 . S
O356 C359 1.235 . S
C357 O360 1.238 . S
C357 O361 1.241 . S
C358 O351 1.247 . S
C358 O352 1.261 . S
C359 O354 1.259 . S
C359 O356 1.235 . S
O360 Co350 2.021 . S
O360 C357 1.238 . S
O361 Co355 2.052 . S
O361 C357 1.241 . S
O362 Co350 2.137 . S
O362 C353 1.247 . S
O363 Co350 2.244 . S
O363 C353 1.272 . S
O363 Co355 2.135 . S
Co364 O365 2.216 . S
Co364 O366 2.091 . S
Co364 O368 2.004 . S
Co364 O374 2.021 . S
Co364 O376 2.137 . S
Co364 O377 2.244 . S
O365 Co364 2.216 . S
O365 C372 1.247 . S
O366 Co364 2.091 . S
O366 C372 1.261 . S
C367 O376 1.247 . S
C367 O377 1.272 . S
O368 Co364 2.004 . S
O368 C373 1.259 . S
Co369 O370 2.061 . S
Co369 O375 2.052 . S
Co369 O377 2.135 . S
O370 Co369 2.061 . S
O370 C373 1.235 . S
C371 O374 1.238 . S
C371 O375 1.241 . S
C372 O365 1.247 . S
C372 O366 1.261 . S
C373 O368 1.259 . S
C373 O370 1.235 . S
O374 Co364 2.021 . S
O374 C371 1.238 . S
O375 Co369 2.052 . S
O375 C371 1.241 . S
O376 Co364 2.137 . S
O376 C367 1.247 . S
O377 Co364 2.244 . S
O377 C367 1.272 . S
O377 Co369 2.135 . S
Co378 O379 2.216 . S
Co378 O380 2.091 . S
Co378 O382 2.004 . S
Co378 O388 2.021 . S
Co378 O390 2.137 . S
Co378 O391 2.244 . S
O379 Co378 2.216 . S
O379 C386 1.247 . S
O380 Co378 2.091 . S
O380 C386 1.261 . S
C381 O390 1.247 . S
C381 O391 1.272 . S
O382 Co378 2.004 . S
O382 C387 1.259 . S
Co383 O384 2.061 . S
Co383 O389 2.052 . S
Co383 O391 2.135 . S
O384 Co383 2.061 . S
O384 C387 1.235 . S
C385 O388 1.238 . S
C385 O389 1.241 . S
C386 O379 1.247 . S
C386 O380 1.261 . S
C387 O382 1.259 . S
C387 O384 1.235 . S
O388 Co378 2.021 . S
O388 C385 1.238 . S
O389 Co383 2.052 . S
O389 C385 1.241 . S
O390 Co378 2.137 . S
O390 C381 1.247 . S
O391 Co378 2.244 . S
O391 C381 1.272 . S
O391 Co383 2.135 . S
Co392 O393 2.216 . S
Co392 O394 2.091 . S
Co392 O396 2.004 . S
Co392 O402 2.021 . S
Co392 O404 2.137 . S
Co392 O405 2.244 . S
O393 Co392 2.216 . S
O393 C400 1.247 . S
O394 Co392 2.091 . S
O394 C400 1.261 . S
C395 O404 1.247 . S
C395 O405 1.272 . S
O396 Co392 2.004 . S
O396 C401 1.259 . S
Co397 O398 2.061 . S
Co397 O403 2.052 . S
Co397 O405 2.135 . S
O398 Co397 2.061 . S
O398 C401 1.235 . S
C399 O402 1.238 . S
C399 O403 1.241 . S
C400 O393 1.247 . S
C400 O394 1.261 . S
C401 O396 1.259 . S
C401 O398 1.235 . S
O402 Co392 2.021 . S
O402 C399 1.238 . S
O403 Co397 2.052 . S
O403 C399 1.241 . S
O404 Co392 2.137 . S
O404 C395 1.247 . S
O405 Co392 2.244 . S
O405 C395 1.272 . S
O405 Co397 2.135 . S
Co406 O407 2.216 . S
Co406 O408 2.091 . S
Co406 O410 2.004 . S
Co406 O416 2.021 . S
Co406 O418 2.137 . S
Co406 O419 2.244 . S
O407 Co406 2.216 . S
O407 C414 1.247 . S
O408 Co406 2.091 . S
O408 C414 1.261 . S
C409 O418 1.247 . S
C409 O419 1.272 . S
O410 Co406 2.004 . S
O410 C415 1.259 . S
Co411 O412 2.061 . S
Co411 O417 2.052 . S
Co411 O419 2.135 . S
O412 Co411 2.061 . S
O412 C415 1.235 . S
C413 O416 1.238 . S
C413 O417 1.241 . S
C414 O407 1.247 . S
C414 O408 1.261 . S
C415 O410 1.259 . S
C415 O412 1.235 . S
O416 Co406 2.021 . S
O416 C413 1.238 . S
O417 Co411 2.052 . S
O417 C413 1.241 . S
O418 Co406 2.137 . S
O418 C409 1.247 . S
O419 Co406 2.244 . S
O419 C409 1.272 . S
O419 Co411 2.135 . S
Co420 O421 2.216 . S
Co420 O422 2.091 . S
Co420 O424 2.004 . S
Co420 O430 2.021 . S
Co420 O432 2.137 . S
Co420 O433 2.244 . S
O421 Co420 2.216 . S
O421 C428 1.247 . S
O422 Co420 2.091 . S
O422 C428 1.261 . S
C423 O432 1.247 . S
C423 O433 1.272 . S
O424 Co420 2.004 . S
O424 C429 1.259 . S
Co425 O426 2.061 . S
Co425 O431 2.052 . S
Co425 O433 2.135 . S
O426 Co425 2.061 . S
O426 C429 1.235 . S
C427 O430 1.238 . S
C427 O431 1.241 . S
C428 O421 1.247 . S
C428 O422 1.261 . S
C429 O424 1.259 . S
C429 O426 1.235 . S
O430 Co420 2.021 . S
O430 C427 1.238 . S
O431 Co425 2.052 . S
O431 C427 1.241 . S
O432 Co420 2.137 . S
O432 C423 1.247 . S
O433 Co420 2.244 . S
O433 C423 1.272 . S
O433 Co425 2.135 . S
Co434 O435 2.216 . S
Co434 O436 2.091 . S
Co434 O438 2.004 . S
Co434 O444 2.021 . S
Co434 O446 2.137 . S
Co434 O447 2.244 . S
O435 Co434 2.216 . S
O435 C442 1.247 . S
O436 Co434 2.091 . S
O436 C442 1.261 . S
C437 O446 1.247 . S
C437 O447 1.272 . S
O438 Co434 2.004 . S
O438 C443 1.259 . S
Co439 O440 2.061 . S
Co439 O445 2.052 . S
Co439 O447 2.135 . S
O440 Co439 2.061 . S
O440 C443 1.235 . S
C441 O444 1.238 . S
C441 O445 1.241 . S
C442 O435 1.247 . S
C442 O436 1.261 . S
C443 O438 1.259 . S
C443 O440 1.235 . S
O444 Co434 2.021 . S
O444 C441 1.238 . S
O445 Co439 2.052 . S
O445 C441 1.241 . S
O446 Co434 2.137 . S
O446 C437 1.247 . S
O447 Co434 2.244 . S
O447 C437 1.272 . S
O447 Co439 2.135 . S
C448 C449 1.369 . S
C448 C450 1.419 . S
C448 H452 0.930 . S
C449 C448 1.369 . S
C449 C458 1.429 . S
C450 C448 1.419 . S
C450 C451 1.363 . S
C450 H453 0.929 . S
C451 C450 1.363 . S
C451 C457 1.428 . S
H452 C448 0.930 . S
H453 C450 0.929 . S
S454 N455 1.613 . S
S454 N456 1.610 . S
N455 S454 1.613 . S
N455 C458 1.350 . S
N456 S454 1.610 . S
N456 C457 1.351 . S
C457 C451 1.428 . S
C457 N456 1.351 . S
C457 C458 1.434 . S
C458 C449 1.429 . S
C458 N455 1.350 . S
C458 C457 1.434 . S
C459 C460 1.369 . S
C459 C461 1.419 . S
C459 H463 0.930 . S
C460 C459 1.369 . S
C460 C469 1.429 . S
C461 C459 1.419 . S
C461 C462 1.363 . S
C461 H464 0.929 . S
C462 C461 1.363 . S
C462 C468 1.428 . S
H463 C459 0.930 . S
H464 C461 0.929 . S
S465 N466 1.613 . S
S465 N467 1.610 . S
N466 S465 1.613 . S
N466 C469 1.350 . S
N467 S465 1.610 . S
N467 C468 1.351 . S
C468 C462 1.428 . S
C468 N467 1.351 . S
C468 C469 1.434 . S
C469 C460 1.429 . S
C469 N466 1.350 . S
C469 C468 1.434 . S
C470 C471 1.369 . S
C470 C472 1.419 . S
C470 H474 0.930 . S
C471 C470 1.369 . S
C471 C480 1.429 . S
C472 C470 1.419 . S
C472 C473 1.363 . S
C472 H475 0.929 . S
C473 C472 1.363 . S
C473 C479 1.428 . S
H474 C470 0.930 . S
H475 C472 0.929 . S
S476 N477 1.613 . S
S476 N478 1.610 . S
N477 S476 1.613 . S
N477 C480 1.350 . S
N478 S476 1.610 . S
N478 C479 1.351 . S
C479 C473 1.428 . S
C479 N478 1.351 . S
C479 C480 1.434 . S
C480 C471 1.429 . S
C480 N477 1.350 . S
C480 C479 1.434 . S
C481 C482 1.369 . S
C481 C483 1.419 . S
C481 H485 0.930 . S
C482 C481 1.369 . S
C482 C491 1.429 . S
C483 C481 1.419 . S
C483 C484 1.363 . S
C483 H486 0.929 . S
C484 C483 1.363 . S
C484 C490 1.428 . S
H485 C481 0.930 . S
H486 C483 0.929 . S
S487 N488 1.613 . S
S487 N489 1.610 . S
N488 S487 1.613 . S
N488 C491 1.350 . S
N489 S487 1.610 . S
N489 C490 1.351 . S
C490 C484 1.428 . S
C490 N489 1.351 . S
C490 C491 1.434 . S
C491 C482 1.429 . S
C491 N488 1.350 . S
C491 C490 1.434 . S
C492 C493 1.369 . S
C492 C494 1.419 . S
C492 H496 0.930 . S
C493 C492 1.369 . S
C493 C502 1.429 . S
C494 C492 1.419 . S
C494 C495 1.363 . S
C494 H497 0.929 . S
C495 C494 1.363 . S
C495 C501 1.428 . S
H496 C492 0.930 . S
H497 C494 0.929 . S
S498 N499 1.613 . S
S498 N500 1.610 . S
N499 S498 1.613 . S
N499 C502 1.350 . S
N500 S498 1.610 . S
N500 C501 1.351 . S
C501 C495 1.428 . S
C501 N500 1.351 . S
C501 C502 1.434 . S
C502 C493 1.429 . S
C502 N499 1.350 . S
C502 C501 1.434 . S
C503 C504 1.369 . S
C503 C505 1.419 . S
C503 H507 0.930 . S
C504 C503 1.369 . S
C504 C513 1.429 . S
C505 C503 1.419 . S
C505 C506 1.363 . S
C505 H508 0.929 . S
C506 C505 1.363 . S
C506 C512 1.428 . S
H507 C503 0.930 . S
H508 C505 0.929 . S
S509 N510 1.613 . S
S509 N511 1.610 . S
N510 S509 1.613 . S
N510 C513 1.350 . S
N511 S509 1.610 . S
N511 C512 1.351 . S
C512 C506 1.428 . S
C512 N511 1.351 . S
C512 C513 1.434 . S
C513 C504 1.429 . S
C513 N510 1.350 . S
C513 C512 1.434 . S
C514 C515 1.369 . S
C514 C516 1.419 . S
C514 H518 0.930 . S
C515 C514 1.369 . S
C515 C524 1.429 . S
C516 C514 1.419 . S
C516 C517 1.363 . S
C516 H519 0.929 . S
C517 C516 1.363 . S
C517 C523 1.428 . S
H518 C514 0.930 . S
H519 C516 0.929 . S
S520 N521 1.613 . S
S520 N522 1.610 . S
N521 S520 1.613 . S
N521 C524 1.350 . S
N522 S520 1.610 . S
N522 C523 1.351 . S
C523 C517 1.428 . S
C523 N522 1.351 . S
C523 C524 1.434 . S
C524 C515 1.429 . S
C524 N521 1.350 . S
C524 C523 1.434 . S
C525 C526 1.369 . S
C525 C527 1.419 . S
C525 H529 0.930 . S
C526 C525 1.369 . S
C526 C535 1.429 . S
C527 C525 1.419 . S
C527 C528 1.363 . S
C527 H530 0.929 . S
C528 C527 1.363 . S
C528 C534 1.428 . S
H529 C525 0.930 . S
H530 C527 0.929 . S
S531 N532 1.613 . S
S531 N533 1.610 . S
N532 S531 1.613 . S
N532 C535 1.350 . S
N533 S531 1.610 . S
N533 C534 1.351 . S
C534 C528 1.428 . S
C534 N533 1.351 . S
C534 C535 1.434 . S
C535 C526 1.429 . S
C535 N532 1.350 . S
C535 C534 1.434 . S
C536 C537 1.369 . S
C536 C538 1.419 . S
C536 H540 0.930 . S
C537 C536 1.369 . S
C537 C546 1.429 . S
C538 C536 1.419 . S
C538 C539 1.363 . S
C538 H541 0.929 . S
C539 C538 1.363 . S
C539 C545 1.428 . S
H540 C536 0.930 . S
H541 C538 0.929 . S
S542 N543 1.613 . S
S542 N544 1.610 . S
N543 S542 1.613 . S
N543 C546 1.350 . S
N544 S542 1.610 . S
N544 C545 1.351 . S
C545 C539 1.428 . S
C545 N544 1.351 . S
C545 C546 1.434 . S
C546 C537 1.429 . S
C546 N543 1.350 . S
C546 C545 1.434 . S
C547 C548 1.369 . S
C547 C549 1.419 . S
C547 H551 0.930 . S
C548 C547 1.369 . S
C548 C557 1.429 . S
C549 C547 1.419 . S
C549 C550 1.363 . S
C549 H552 0.929 . S
C550 C549 1.363 . S
C550 C556 1.428 . S
H551 C547 0.930 . S
H552 C549 0.929 . S
S553 N554 1.613 . S
S553 N555 1.610 . S
N554 S553 1.613 . S
N554 C557 1.350 . S
N555 S553 1.610 . S
N555 C556 1.351 . S
C556 C550 1.428 . S
C556 N555 1.351 . S
C556 C557 1.434 . S
C557 C548 1.429 . S
C557 N554 1.350 . S
C557 C556 1.434 . S
C558 C559 1.369 . S
C558 C560 1.419 . S
C558 H562 0.930 . S
C559 C558 1.369 . S
C559 C568 1.429 . S
C560 C558 1.419 . S
C560 C561 1.363 . S
C560 H563 0.929 . S
C561 C560 1.363 . S
C561 C567 1.428 . S
H562 C558 0.930 . S
H563 C560 0.929 . S
S564 N565 1.613 . S
S564 N566 1.610 . S
N565 S564 1.613 . S
N565 C568 1.350 . S
N566 S564 1.610 . S
N566 C567 1.351 . S
C567 C561 1.428 . S
C567 N566 1.351 . S
C567 C568 1.434 . S
C568 C559 1.429 . S
C568 N565 1.350 . S
C568 C567 1.434 . S
C569 C570 1.369 . S
C569 C571 1.419 . S
C569 H573 0.930 . S
C570 C569 1.369 . S
C570 C579 1.429 . S
C571 C569 1.419 . S
C571 C572 1.363 . S
C571 H574 0.929 . S
C572 C571 1.363 . S
C572 C578 1.428 . S
H573 C569 0.930 . S
H574 C571 0.929 . S
S575 N576 1.613 . S
S575 N577 1.610 . S
N576 S575 1.613 . S
N576 C579 1.350 . S
N577 S575 1.610 . S
N577 C578 1.351 . S
C578 C572 1.428 . S
C578 N577 1.351 . S
C578 C579 1.434 . S
C579 C570 1.429 . S
C579 N576 1.350 . S
C579 C578 1.434 . S
C580 C581 1.369 . S
C580 C582 1.419 . S
C580 H584 0.930 . S
C581 C580 1.369 . S
C581 C590 1.429 . S
C582 C580 1.419 . S
C582 C583 1.363 . S
C582 H585 0.929 . S
C583 C582 1.363 . S
C583 C589 1.428 . S
H584 C580 0.930 . S
H585 C582 0.929 . S
S586 N587 1.613 . S
S586 N588 1.610 . S
N587 S586 1.613 . S
N587 C590 1.350 . S
N588 S586 1.610 . S
N588 C589 1.351 . S
C589 C583 1.428 . S
C589 N588 1.351 . S
C589 C590 1.434 . S
C590 C581 1.429 . S
C590 N587 1.350 . S
C590 C589 1.434 . S
C591 C592 1.369 . S
C591 C593 1.419 . S
C591 H595 0.930 . S
C592 C591 1.369 . S
C592 C601 1.429 . S
C593 C591 1.419 . S
C593 C594 1.363 . S
C593 H596 0.929 . S
C594 C593 1.363 . S
C594 C600 1.428 . S
H595 C591 0.930 . S
H596 C593 0.929 . S
S597 N598 1.613 . S
S597 N599 1.610 . S
N598 S597 1.613 . S
N598 C601 1.350 . S
N599 S597 1.610 . S
N599 C600 1.351 . S
C600 C594 1.428 . S
C600 N599 1.351 . S
C600 C601 1.434 . S
C601 C592 1.429 . S
C601 N598 1.350 . S
C601 C600 1.434 . S
C602 C603 1.369 . S
C602 C604 1.419 . S
C602 H606 0.930 . S
C603 C602 1.369 . S
C603 C612 1.429 . S
C604 C602 1.419 . S
C604 C605 1.363 . S
C604 H607 0.929 . S
C605 C604 1.363 . S
C605 C611 1.428 . S
H606 C602 0.930 . S
H607 C604 0.929 . S
S608 N609 1.613 . S
S608 N610 1.610 . S
N609 S608 1.613 . S
N609 C612 1.350 . S
N610 S608 1.610 . S
N610 C611 1.351 . S
C611 C605 1.428 . S
C611 N610 1.351 . S
C611 C612 1.434 . S
C612 C603 1.429 . S
C612 N609 1.350 . S
C612 C611 1.434 . S
C613 C614 1.369 . S
C613 C615 1.419 . S
C613 H617 0.930 . S
C614 C613 1.369 . S
C614 C623 1.429 . S
C615 C613 1.419 . S
C615 C616 1.363 . S
C615 H618 0.929 . S
C616 C615 1.363 . S
C616 C622 1.428 . S
H617 C613 0.930 . S
H618 C615 0.929 . S
S619 N620 1.613 . S
S619 N621 1.610 . S
N620 S619 1.613 . S
N620 C623 1.350 . S
N621 S619 1.610 . S
N621 C622 1.351 . S
C622 C616 1.428 . S
C622 N621 1.351 . S
C622 C623 1.434 . S
C623 C614 1.429 . S
C623 N620 1.350 . S
C623 C622 1.434 . S
C624 C625 1.369 . S
C624 C626 1.419 1_554 S
C624 H628 0.930 . S
C625 C624 1.369 . S
C625 C634 1.429 . S
C626 C624 1.419 1_556 S
C626 C627 1.363 . S
C626 H629 0.929 . S
C627 C626 1.363 . S
C627 C633 1.428 . S
H628 C624 0.930 . S
H629 C626 0.929 . S
S630 N631 1.615 1_556 S
S630 N632 1.609 . S
N631 S630 1.615 1_554 S
N631 C634 1.350 . S
N632 S630 1.609 . S
N632 C633 1.351 . S
C633 C627 1.428 . S
C633 N632 1.351 . S
C633 C634 1.434 1_556 S
C634 C625 1.429 . S
C634 N631 1.350 . S
C634 C633 1.434 1_554 S
C635 C636 1.369 . S
C635 C637 1.419 1_556 S
C635 H639 0.930 . S
C636 C635 1.369 . S
C636 C645 1.429 . S
C637 C635 1.419 1_554 S
C637 C638 1.363 . S
C637 H640 0.929 . S
C638 C637 1.363 . S
C638 C644 1.428 . S
H639 C635 0.930 . S
H640 C637 0.929 . S
S641 N642 1.615 1_554 S
S641 N643 1.609 . S
N642 S641 1.615 1_556 S
N642 C645 1.350 . S
N643 S641 1.609 . S
N643 C644 1.351 . S
C644 C638 1.428 . S
C644 N643 1.351 . S
C644 C645 1.434 1_554 S
C645 C636 1.429 . S
C645 N642 1.350 . S
C645 C644 1.434 1_556 S
C646 C647 1.369 . S
C646 C648 1.419 1_556 S
C646 H650 0.930 . S
C647 C646 1.369 . S
C647 C656 1.429 . S
C648 C646 1.419 1_554 S
C648 C649 1.363 . S
C648 H651 0.929 . S
C649 C648 1.363 . S
C649 C655 1.428 . S
H650 C646 0.930 . S
H651 C648 0.929 . S
S652 N653 1.615 1_554 S
S652 N654 1.609 . S
N653 S652 1.615 1_556 S
N653 C656 1.350 . S
N654 S652 1.609 . S
N654 C655 1.351 . S
C655 C649 1.428 . S
C655 N654 1.351 . S
C655 C656 1.434 1_554 S
C656 C647 1.429 . S
C656 N653 1.350 . S
C656 C655 1.434 1_556 S
C657 C658 1.369 . S
C657 C659 1.419 1_556 S
C657 H661 0.930 . S
C658 C657 1.369 . S
C658 C667 1.429 . S
C659 C657 1.419 1_554 S
C659 C660 1.363 . S
C659 H662 0.929 . S
C660 C659 1.363 . S
C660 C666 1.428 . S
H661 C657 0.930 . S
H662 C659 0.929 . S
S663 N664 1.615 1_554 S
S663 N665 1.609 . S
N664 S663 1.615 1_556 S
N664 C667 1.350 . S
N665 S663 1.609 . S
N665 C666 1.351 . S
C666 C660 1.428 . S
C666 N665 1.351 . S
C666 C667 1.434 1_554 S
C667 C658 1.429 . S
C667 N664 1.350 . S
C667 C666 1.434 1_556 S
C668 C669 1.369 . S
C668 C670 1.419 . S
C668 H672 0.930 . S
C669 C668 1.369 . S
C669 C678 1.429 . S
C670 C668 1.419 . S
C670 C671 1.363 . S
C670 H673 0.929 . S
C671 C670 1.363 . S
C671 C677 1.428 . S
H672 C668 0.930 . S
H673 C670 0.929 . S
S674 N675 1.613 . S
S674 N676 1.610 . S
N675 S674 1.613 . S
N675 C678 1.350 . S
N676 S674 1.610 . S
N676 C677 1.351 . S
C677 C671 1.428 . S
C677 N676 1.351 . S
C677 C678 1.434 . S
C678 C669 1.429 . S
C678 N675 1.350 . S
C678 C677 1.434 . S
C679 C680 1.369 . S
C679 C681 1.419 . S
C679 H683 0.930 . S
C680 C679 1.369 . S
C680 C689 1.429 . S
C681 C679 1.419 . S
C681 C682 1.363 . S
C681 H684 0.929 . S
C682 C681 1.363 . S
C682 C688 1.428 . S
H683 C679 0.930 . S
H684 C681 0.929 . S
S685 N686 1.613 . S
S685 N687 1.610 . S
N686 S685 1.613 . S
N686 C689 1.350 . S
N687 S685 1.610 . S
N687 C688 1.351 . S
C688 C682 1.428 . S
C688 N687 1.351 . S
C688 C689 1.434 . S
C689 C680 1.429 . S
C689 N686 1.350 . S
C689 C688 1.434 . S
C690 C691 1.369 . S
C690 C692 1.419 . S
C690 H694 0.930 . S
C691 C690 1.369 . S
C691 C700 1.429 . S
C692 C690 1.419 . S
C692 C693 1.363 . S
C692 H695 0.929 . S
C693 C692 1.363 . S
C693 C699 1.428 . S
H694 C690 0.930 . S
H695 C692 0.929 . S
S696 N697 1.613 . S
S696 N698 1.610 . S
N697 S696 1.613 . S
N697 C700 1.350 . S
N698 S696 1.610 . S
N698 C699 1.351 . S
C699 C693 1.428 . S
C699 N698 1.351 . S
C699 C700 1.434 . S
C700 C691 1.429 . S
C700 N697 1.350 . S
C700 C699 1.434 . S
C701 C702 1.369 . S
C701 C703 1.419 . S
C701 H705 0.930 . S
C702 C701 1.369 . S
C702 C711 1.429 . S
C703 C701 1.419 . S
C703 C704 1.363 . S
C703 H706 0.929 . S
C704 C703 1.363 . S
C704 C710 1.428 . S
H705 C701 0.930 . S
H706 C703 0.929 . S
S707 N708 1.613 . S
S707 N709 1.610 . S
N708 S707 1.613 . S
N708 C711 1.350 . S
N709 S707 1.610 . S
N709 C710 1.351 . S
C710 C704 1.428 . S
C710 N709 1.351 . S
C710 C711 1.434 . S
C711 C702 1.429 . S
C711 N708 1.350 . S
C711 C710 1.434 . S
C712 C713 1.369 . S
C712 C714 1.419 . S
C712 H716 0.930 . S
C713 C712 1.369 . S
C713 C722 1.429 . S
C714 C712 1.419 . S
C714 C715 1.363 . S
C714 H717 0.929 . S
C715 C714 1.363 . S
C715 C721 1.428 . S
H716 C712 0.930 . S
H717 C714 0.929 . S
S718 N719 1.613 . S
S718 N720 1.610 . S
N719 S718 1.613 . S
N719 C722 1.350 . S
N720 S718 1.610 . S
N720 C721 1.351 . S
C721 C715 1.428 . S
C721 N720 1.351 . S
C721 C722 1.434 . S
C722 C713 1.429 . S
C722 N719 1.350 . S
C722 C721 1.434 . S
C723 C724 1.369 . S
C723 C725 1.419 . S
C723 H727 0.930 . S
C724 C723 1.369 . S
C724 C733 1.429 . S
C725 C723 1.419 . S
C725 C726 1.363 . S
C725 H728 0.929 . S
C726 C725 1.363 . S
C726 C732 1.428 . S
H727 C723 0.930 . S
H728 C725 0.929 . S
S729 N730 1.613 . S
S729 N731 1.610 . S
N730 S729 1.613 . S
N730 C733 1.350 . S
N731 S729 1.610 . S
N731 C732 1.351 . S
C732 C726 1.428 . S
C732 N731 1.351 . S
C732 C733 1.434 . S
C733 C724 1.429 . S
C733 N730 1.350 . S
C733 C732 1.434 . S
C734 C735 1.369 . S
C734 C736 1.419 . S
C734 H738 0.930 . S
C735 C734 1.369 . S
C735 C744 1.429 . S
C736 C734 1.419 . S
C736 C737 1.363 . S
C736 H739 0.929 . S
C737 C736 1.363 . S
C737 C743 1.428 . S
H738 C734 0.930 . S
H739 C736 0.929 . S
S740 N741 1.613 . S
S740 N742 1.610 . S
N741 S740 1.613 . S
N741 C744 1.350 . S
N742 S740 1.610 . S
N742 C743 1.351 . S
C743 C737 1.428 . S
C743 N742 1.351 . S
C743 C744 1.434 . S
C744 C735 1.429 . S
C744 N741 1.350 . S
C744 C743 1.434 . S
C745 C746 1.369 . S
C745 C747 1.419 . S
C745 H749 0.930 . S
C746 C745 1.369 . S
C746 C755 1.429 . S
C747 C745 1.419 . S
C747 C748 1.363 . S
C747 H750 0.929 . S
C748 C747 1.363 . S
C748 C754 1.428 . S
H749 C745 0.930 . S
H750 C747 0.929 . S
S751 N752 1.613 . S
S751 N753 1.610 . S
N752 S751 1.613 . S
N752 C755 1.350 . S
N753 S751 1.610 . S
N753 C754 1.351 . S
C754 C748 1.428 . S
C754 N753 1.351 . S
C754 C755 1.434 . S
C755 C746 1.429 . S
C755 N752 1.350 . S
C755 C754 1.434 . S
C756 C757 1.369 . S
C756 C758 1.419 1_556 S
C756 H760 0.930 . S
C757 C756 1.369 . S
C757 C766 1.429 . S
C758 C756 1.419 1_554 S
C758 C759 1.363 . S
C758 H761 0.929 . S
C759 C758 1.363 . S
C759 C765 1.428 . S
H760 C756 0.930 . S
H761 C758 0.929 . S
S762 N763 1.615 1_554 S
S762 N764 1.609 . S
N763 S762 1.615 1_556 S
N763 C766 1.350 . S
N764 S762 1.609 . S
N764 C765 1.351 . S
C765 C759 1.428 . S
C765 N764 1.351 . S
C765 C766 1.434 1_554 S
C766 C757 1.429 . S
C766 N763 1.350 . S
C766 C765 1.434 1_556 S
C767 C768 1.369 . S
C767 C769 1.419 1_554 S
C767 H771 0.930 . S
C768 C767 1.369 . S
C768 C777 1.429 . S
C769 C767 1.419 1_556 S
C769 C770 1.363 . S
C769 H772 0.929 . S
C770 C769 1.363 . S
C770 C776 1.428 . S
H771 C767 0.930 . S
H772 C769 0.929 . S
S773 N774 1.615 1_556 S
S773 N775 1.609 . S
N774 S773 1.615 1_554 S
N774 C777 1.350 . S
N775 S773 1.609 . S
N775 C776 1.351 . S
C776 C770 1.428 . S
C776 N775 1.351 . S
C776 C777 1.434 1_556 S
C777 C768 1.429 . S
C777 N774 1.350 . S
C777 C776 1.434 1_554 S
C778 C779 1.369 . S
C778 C780 1.419 1_554 S
C778 H782 0.930 . S
C779 C778 1.369 . S
C779 C788 1.429 . S
C780 C778 1.419 1_556 S
C780 C781 1.363 . S
C780 H783 0.929 . S
C781 C780 1.363 . S
C781 C787 1.428 . S
H782 C778 0.930 . S
H783 C780 0.929 . S
S784 N785 1.615 1_556 S
S784 N786 1.609 . S
N785 S784 1.615 1_554 S
N785 C788 1.350 . S
N786 S784 1.609 . S
N786 C787 1.351 . S
C787 C781 1.428 . S
C787 N786 1.351 . S
C787 C788 1.434 1_556 S
C788 C779 1.429 . S
C788 N785 1.350 . S
C788 C787 1.434 1_554 S
C789 C790 1.369 . S
C789 C791 1.419 1_556 S
C789 H793 0.930 . S
C790 C789 1.369 . S
C790 C799 1.429 . S
C791 C789 1.419 1_554 S
C791 C792 1.363 . S
C791 H794 0.929 . S
C792 C791 1.363 . S
C792 C798 1.428 . S
H793 C789 0.930 . S
H794 C791 0.929 . S
S795 N796 1.615 1_554 S
S795 N797 1.609 . S
N796 S795 1.615 1_556 S
N796 C799 1.350 . S
N797 S795 1.609 . S
N797 C798 1.351 . S
C798 C792 1.428 . S
C798 N797 1.351 . S
C798 C799 1.434 1_554 S
C799 C790 1.429 . S
C799 N796 1.350 . S
C799 C798 1.434 1_556 S
C800 C801 1.369 . S
C800 C802 1.419 1_545 S
C800 H804 0.930 . S
C801 C800 1.369 . S
C801 C810 1.433 . S
C802 C800 1.419 1_565 S
C802 C803 1.363 . S
C802 H805 0.929 . S
C803 C802 1.363 . S
C803 C809 1.428 . S
H804 C800 0.930 . S
H805 C802 0.929 . S
S806 N807 1.613 . S
S806 N808 1.610 . S
N807 S806 1.613 . S
N807 C810 1.349 1_565 S
N808 S806 1.610 . S
N808 C809 1.351 . S
C809 C803 1.428 . S
C809 N808 1.351 . S
C809 C810 1.430 1_565 S
C810 C801 1.433 . S
C810 N807 1.349 1_545 S
C810 C809 1.430 1_545 S
C811 C812 1.369 . S
C811 C813 1.419 . S
C811 H815 0.930 . S
C812 C811 1.369 . S
C812 C821 1.429 1_655 S
C813 C811 1.419 . S
C813 C814 1.363 1_655 S
C813 H816 0.929 . S
C814 C813 1.363 1_455 S
C814 C820 1.428 . S
H815 C811 0.930 . S
H816 C813 0.929 . S
S817 N818 1.613 . S
S817 N819 1.610 . S
N818 S817 1.613 . S
N818 C821 1.350 . S
N819 S817 1.610 . S
N819 C820 1.351 . S
C820 C814 1.428 . S
C820 N819 1.351 . S
C820 C821 1.434 . S
C821 C812 1.429 1_455 S
C821 N818 1.350 . S
C821 C820 1.434 . S
C822 C823 1.369 1_565 S
C822 C824 1.419 . S
C822 H826 0.930 . S
C823 C822 1.369 1_545 S
C823 C832 1.429 . S
C824 C822 1.419 . S
C824 C825 1.363 . S
C824 H827 0.929 . S
C825 C824 1.363 . S
C825 C831 1.428 1_565 S
H826 C822 0.930 . S
H827 C824 0.929 . S
S828 N829 1.613 . S
S828 N830 1.610 . S
N829 S828 1.613 . S
N829 C832 1.350 . S
N830 S828 1.610 . S
N830 C831 1.351 . S
C831 C825 1.428 1_545 S
C831 N830 1.351 . S
C831 C832 1.434 . S
C832 C823 1.429 . S
C832 N829 1.350 . S
C832 C831 1.434 . S
C833 C834 1.369 1_655 S
C833 C835 1.419 . S
C833 H837 0.930 . S
C834 C833 1.369 1_455 S
C834 C843 1.429 . S
C835 C833 1.419 . S
C835 C836 1.363 . S
C835 H838 0.929 . S
C836 C835 1.363 . S
C836 C842 1.428 1_655 S
H837 C833 0.930 . S
H838 C835 0.929 . S
S839 N840 1.613 . S
S839 N841 1.610 . S
N840 S839 1.613 . S
N840 C843 1.350 . S
N841 S839 1.610 . S
N841 C842 1.351 . S
C842 C836 1.428 1_455 S
C842 N841 1.351 . S
C842 C843 1.434 . S
C843 C834 1.429 . S
C843 N840 1.350 . S
C843 C842 1.434 . S
C844 C845 1.369 . S
C844 C846 1.419 . S
C844 H848 0.930 . S
C845 C844 1.369 . S
C845 C854 1.429 1_565 S
C846 C844 1.419 . S
C846 C847 1.363 1_565 S
C846 H849 0.929 . S
C847 C846 1.363 1_545 S
C847 C853 1.428 . S
H848 C844 0.930 . S
H849 C846 0.929 . S
S850 N851 1.613 . S
S850 N852 1.610 . S
N851 S850 1.613 . S
N851 C854 1.350 . S
N852 S850 1.610 . S
N852 C853 1.351 . S
C853 C847 1.428 . S
C853 N852 1.351 . S
C853 C854 1.434 . S
C854 C845 1.429 1_545 S
C854 N851 1.350 . S
C854 C853 1.434 . S
C855 C856 1.369 . S
C855 C857 1.419 . S
C855 H859 0.930 . S
C856 C855 1.369 . S
C856 C865 1.429 1_655 S
C857 C855 1.419 . S
C857 C858 1.363 1_655 S
C857 H860 0.929 . S
C858 C857 1.363 1_455 S
C858 C864 1.428 . S
H859 C855 0.930 . S
H860 C857 0.929 . S
S861 N862 1.613 . S
S861 N863 1.610 . S
N862 S861 1.613 . S
N862 C865 1.350 . S
N863 S861 1.610 . S
N863 C864 1.351 . S
C864 C858 1.428 . S
C864 N863 1.351 . S
C864 C865 1.434 . S
C865 C856 1.429 1_455 S
C865 N862 1.350 . S
C865 C864 1.434 . S
C866 C867 1.369 . S
C866 C868 1.419 . S
C866 H870 0.930 . S
C867 C866 1.369 . S
C867 C876 1.429 1_565 S
C868 C866 1.419 . S
C868 C869 1.363 1_565 S
C868 H871 0.929 . S
C869 C868 1.363 1_545 S
C869 C875 1.428 . S
H870 C866 0.930 . S
H871 C868 0.929 . S
S872 N873 1.613 . S
S872 N874 1.610 . S
N873 S872 1.613 . S
N873 C876 1.350 . S
N874 S872 1.610 . S
N874 C875 1.351 . S
C875 C869 1.428 . S
C875 N874 1.351 . S
C875 C876 1.434 . S
C876 C867 1.429 1_545 S
C876 N873 1.350 . S
C876 C875 1.434 . S
C877 C878 1.369 . S
C877 C879 1.419 1_655 S
C877 H881 0.930 . S
C878 C877 1.369 . S
C878 C887 1.429 . S
C879 C877 1.419 1_455 S
C879 C880 1.363 . S
C879 H882 0.929 . S
C880 C879 1.363 . S
C880 C886 1.428 . S
H881 C877 0.930 . S
H882 C879 0.929 . S
S883 N884 1.613 . S
S883 N885 1.610 1_655 S
N884 S883 1.613 . S
N884 C887 1.350 . S
N885 S883 1.610 1_455 S
N885 C886 1.351 . S
C886 C880 1.428 . S
C886 N885 1.351 . S
C886 C887 1.434 1_455 S
C887 C878 1.429 . S
C887 N884 1.350 . S
C887 C886 1.434 1_655 S
C888 C889 1.369 . S
C888 C890 1.419 . S
C888 H892 0.930 . S
C889 C888 1.369 . S
C889 C898 1.429 . S
C890 C888 1.419 . S
C890 C891 1.363 . S
C890 H893 0.929 . S
C891 C890 1.363 . S
C891 C897 1.428 . S
H892 C888 0.930 . S
H893 C890 0.929 . S
S894 N895 1.613 . S
S894 N896 1.610 . S
N895 S894 1.613 . S
N895 C898 1.350 . S
N896 S894 1.610 . S
N896 C897 1.351 . S
C897 C891 1.428 . S
C897 N896 1.351 . S
C897 C898 1.434 . S
C898 C889 1.429 . S
C898 N895 1.350 . S
C898 C897 1.434 . S
C899 C900 1.369 . S
C899 C901 1.419 . S
C899 H903 0.930 . S
C900 C899 1.369 . S
C900 C909 1.429 . S
C901 C899 1.419 . S
C901 C902 1.363 . S
C901 H904 0.929 . S
C902 C901 1.363 . S
C902 C908 1.428 . S
H903 C899 0.930 . S
H904 C901 0.929 . S
S905 N906 1.613 . S
S905 N907 1.610 . S
N906 S905 1.613 . S
N906 C909 1.350 . S
N907 S905 1.610 . S
N907 C908 1.351 . S
C908 C902 1.428 . S
C908 N907 1.351 . S
C908 C909 1.434 . S
C909 C900 1.429 . S
C909 N906 1.350 . S
C909 C908 1.434 . S
C910 C911 1.369 . S
C910 C912 1.419 . S
C910 H914 0.930 . S
C911 C910 1.369 . S
C911 C920 1.429 . S
C912 C910 1.419 . S
C912 C913 1.363 . S
C912 H915 0.929 . S
C913 C912 1.363 . S
C913 C919 1.428 . S
H914 C910 0.930 . S
H915 C912 0.929 . S
S916 N917 1.613 . S
S916 N918 1.610 . S
N917 S916 1.613 . S
N917 C920 1.350 . S
N918 S916 1.610 . S
N918 C919 1.351 . S
C919 C913 1.428 . S
C919 N918 1.351 . S
C919 C920 1.434 . S
C920 C911 1.429 . S
C920 N917 1.350 . S
C920 C919 1.434 . S
C921 C922 1.369 . S
C921 C923 1.419 . S
C921 H925 0.930 . S
C922 C921 1.369 . S
C922 C931 1.429 . S
C923 C921 1.419 . S
C923 C924 1.363 . S
C923 H926 0.929 . S
C924 C923 1.363 . S
C924 C930 1.428 . S
H925 C921 0.930 . S
H926 C923 0.929 . S
S927 N928 1.613 . S
S927 N929 1.610 . S
N928 S927 1.613 . S
N928 C931 1.350 . S
N929 S927 1.610 . S
N929 C930 1.351 . S
C930 C924 1.428 . S
C930 N929 1.351 . S
C930 C931 1.434 . S
C931 C922 1.429 . S
C931 N928 1.350 . S
C931 C930 1.434 . S
C932 C933 1.369 . S
C932 C934 1.419 . S
C932 H936 0.930 . S
C933 C932 1.369 . S
C933 C942 1.429 . S
C934 C932 1.419 . S
C934 C935 1.363 . S
C934 H937 0.929 . S
C935 C934 1.363 . S
C935 C941 1.428 . S
H936 C932 0.930 . S
H937 C934 0.929 . S
S938 N939 1.613 . S
S938 N940 1.610 . S
N939 S938 1.613 . S
N939 C942 1.350 . S
N940 S938 1.610 . S
N940 C941 1.351 . S
C941 C935 1.428 . S
C941 N940 1.351 . S
C941 C942 1.434 . S
C942 C933 1.429 . S
C942 N939 1.350 . S
C942 C941 1.434 . S
C943 C944 1.369 . S
C943 C945 1.419 . S
C943 H947 0.930 . S
C944 C943 1.369 . S
C944 C953 1.429 . S
C945 C943 1.419 . S
C945 C946 1.363 . S
C945 H948 0.929 . S
C946 C945 1.363 . S
C946 C952 1.428 . S
H947 C943 0.930 . S
H948 C945 0.929 . S
S949 N950 1.613 . S
S949 N951 1.610 . S
N950 S949 1.613 . S
N950 C953 1.350 . S
N951 S949 1.610 . S
N951 C952 1.351 . S
C952 C946 1.428 . S
C952 N951 1.351 . S
C952 C953 1.434 . S
C953 C944 1.429 . S
C953 N950 1.350 . S
C953 C952 1.434 . S
C954 C955 1.369 . S
C954 C956 1.419 . S
C954 H958 0.930 . S
C955 C954 1.369 . S
C955 C964 1.429 . S
C956 C954 1.419 . S
C956 C957 1.363 . S
C956 H959 0.929 . S
C957 C956 1.363 . S
C957 C963 1.428 . S
H958 C954 0.930 . S
H959 C956 0.929 . S
S960 N961 1.613 . S
S960 N962 1.610 . S
N961 S960 1.613 . S
N961 C964 1.350 . S
N962 S960 1.610 . S
N962 C963 1.351 . S
C963 C957 1.428 . S
C963 N962 1.351 . S
C963 C964 1.434 . S
C964 C955 1.429 . S
C964 N961 1.350 . S
C964 C963 1.434 . S
C965 C966 1.369 . S
C965 C967 1.419 . S
C965 H969 0.930 . S
C966 C965 1.369 . S
C966 C975 1.429 . S
C967 C965 1.419 . S
C967 C968 1.363 . S
C967 H970 0.929 . S
C968 C967 1.363 . S
C968 C974 1.428 . S
H969 C965 0.930 . S
H970 C967 0.929 . S
S971 N972 1.613 . S
S971 N973 1.610 . S
N972 S971 1.613 . S
N972 C975 1.350 . S
N973 S971 1.610 . S
N973 C974 1.351 . S
C974 C968 1.428 . S
C974 N973 1.351 . S
C974 C975 1.434 . S
C975 C966 1.429 . S
C975 N972 1.350 . S
C975 C974 1.434 . S
C976 C977 1.369 . S
C976 C978 1.419 . S
C976 H980 0.930 . S
C977 C976 1.369 . S
C977 C986 1.429 . S
C978 C976 1.419 . S
C978 C979 1.363 . S
C978 H981 0.929 . S
C979 C978 1.363 . S
C979 C985 1.428 . S
H980 C976 0.930 . S
H981 C978 0.929 . S
S982 N983 1.613 . S
S982 N984 1.610 . S
N983 S982 1.613 . S
N983 C986 1.350 . S
N984 S982 1.610 . S
N984 C985 1.351 . S
C985 C979 1.428 . S
C985 N984 1.351 . S
C985 C986 1.434 . S
C986 C977 1.429 . S
C986 N983 1.350 . S
C986 C985 1.434 . S
C987 C988 1.369 . S
C987 C989 1.419 . S
C987 H991 0.930 . S
C988 C987 1.369 . S
C988 C997 1.429 . S
C989 C987 1.419 . S
C989 C990 1.363 . S
C989 H992 0.929 . S
C990 C989 1.363 . S
C990 C996 1.428 . S
H991 C987 0.930 . S
H992 C989 0.929 . S
S993 N994 1.613 . S
S993 N995 1.610 . S
N994 S993 1.613 . S
N994 C997 1.350 . S
N995 S993 1.610 . S
N995 C996 1.351 . S
C996 C990 1.428 . S
C996 N995 1.351 . S
C996 C997 1.434 . S
C997 C988 1.429 . S
C997 N994 1.350 . S
C997 C996 1.434 . S
C998 C999 1.369 . S
C998 C1000 1.419 . S
C998 H1002 0.930 . S
C999 C998 1.369 . S
C999 C1008 1.429 . S
C1000 C998 1.419 . S
C1000 C1001 1.363 . S
C1000 H1003 0.929 . S
C1001 C1000 1.363 . S
C1001 C1007 1.428 . S
H1002 C998 0.930 . S
H1003 C1000 0.929 . S
S1004 N1005 1.613 . S
S1004 N1006 1.610 . S
N1005 S1004 1.613 . S
N1005 C1008 1.350 . S
N1006 S1004 1.610 . S
N1006 C1007 1.351 . S
C1007 C1001 1.428 . S
C1007 N1006 1.351 . S
C1007 C1008 1.434 . S
C1008 C999 1.429 . S
C1008 N1005 1.350 . S
C1008 C1007 1.434 . S
C1009 C1010 1.369 . S
C1009 C1011 1.419 . S
C1009 H1013 0.930 . S
C1010 C1009 1.369 . S
C1010 C1019 1.429 . S
C1011 C1009 1.419 . S
C1011 C1012 1.363 . S
C1011 H1014 0.929 . S
C1012 C1011 1.363 . S
C1012 C1018 1.428 . S
H1013 C1009 0.930 . S
H1014 C1011 0.929 . S
S1015 N1016 1.613 . S
S1015 N1017 1.610 . S
N1016 S1015 1.613 . S
N1016 C1019 1.350 . S
N1017 S1015 1.610 . S
N1017 C1018 1.351 . S
C1018 C1012 1.428 . S
C1018 N1017 1.351 . S
C1018 C1019 1.434 . S
C1019 C1010 1.429 . S
C1019 N1016 1.350 . S
C1019 C1018 1.434 . S
C1020 C1021 1.369 . S
C1020 C1022 1.419 . S
C1020 H1024 0.930 . S
C1021 C1020 1.369 . S
C1021 C1030 1.429 . S
C1022 C1020 1.419 . S
C1022 C1023 1.363 . S
C1022 H1025 0.929 . S
C1023 C1022 1.363 . S
C1023 C1029 1.428 . S
H1024 C1020 0.930 . S
H1025 C1022 0.929 . S
S1026 N1027 1.613 . S
S1026 N1028 1.610 . S
N1027 S1026 1.613 . S
N1027 C1030 1.350 . S
N1028 S1026 1.610 . S
N1028 C1029 1.351 . S
C1029 C1023 1.428 . S
C1029 N1028 1.351 . S
C1029 C1030 1.434 . S
C1030 C1021 1.429 . S
C1030 N1027 1.350 . S
C1030 C1029 1.434 . S
C1031 C1032 1.369 . S
C1031 C1033 1.419 . S
C1031 H1035 0.930 . S
C1032 C1031 1.369 . S
C1032 C1041 1.429 . S
C1033 C1031 1.419 . S
C1033 C1034 1.363 . S
C1033 H1036 0.929 . S
C1034 C1033 1.363 . S
C1034 C1040 1.428 . S
H1035 C1031 0.930 . S
H1036 C1033 0.929 . S
S1037 N1038 1.613 . S
S1037 N1039 1.610 . S
N1038 S1037 1.613 . S
N1038 C1041 1.350 . S
N1039 S1037 1.610 . S
N1039 C1040 1.351 . S
C1040 C1034 1.428 . S
C1040 N1039 1.351 . S
C1040 C1041 1.434 . S
C1041 C1032 1.429 . S
C1041 N1038 1.350 . S
C1041 C1040 1.434 . S
C1042 C1043 1.369 . S
C1042 C1044 1.419 . S
C1042 H1046 0.930 . S
C1043 C1042 1.369 . S
C1043 C1052 1.429 . S
C1044 C1042 1.419 . S
C1044 C1045 1.363 . S
C1044 H1047 0.929 . S
C1045 C1044 1.363 . S
C1045 C1051 1.428 . S
H1046 C1042 0.930 . S
H1047 C1044 0.929 . S
S1048 N1049 1.613 . S
S1048 N1050 1.610 . S
N1049 S1048 1.613 . S
N1049 C1052 1.350 . S
N1050 S1048 1.610 . S
N1050 C1051 1.351 . S
C1051 C1045 1.428 . S
C1051 N1050 1.351 . S
C1051 C1052 1.434 . S
C1052 C1043 1.429 . S
C1052 N1049 1.350 . S
C1052 C1051 1.434 . S
C1053 C1054 1.369 . S
C1053 C1055 1.419 . S
C1053 H1057 0.930 . S
C1054 C1053 1.369 . S
C1054 C1063 1.429 . S
C1055 C1053 1.419 . S
C1055 C1056 1.363 . S
C1055 H1058 0.929 . S
C1056 C1055 1.363 . S
C1056 C1062 1.428 . S
H1057 C1053 0.930 . S
H1058 C1055 0.929 . S
S1059 N1060 1.613 . S
S1059 N1061 1.610 . S
N1060 S1059 1.613 . S
N1060 C1063 1.350 . S
N1061 S1059 1.610 . S
N1061 C1062 1.351 . S
C1062 C1056 1.428 . S
C1062 N1061 1.351 . S
C1062 C1063 1.434 . S
C1063 C1054 1.429 . S
C1063 N1060 1.350 . S
C1063 C1062 1.434 . S
C1064 C1065 1.369 . S
C1064 C1066 1.419 . S
C1064 H1068 0.930 . S
C1065 C1064 1.369 . S
C1065 C1074 1.429 . S
C1066 C1064 1.419 . S
C1066 C1067 1.363 . S
C1066 H1069 0.929 . S
C1067 C1066 1.363 . S
C1067 C1073 1.428 . S
H1068 C1064 0.930 . S
H1069 C1066 0.929 . S
S1070 N1071 1.613 . S
S1070 N1072 1.610 . S
N1071 S1070 1.613 . S
N1071 C1074 1.350 . S
N1072 S1070 1.610 . S
N1072 C1073 1.351 . S
C1073 C1067 1.428 . S
C1073 N1072 1.351 . S
C1073 C1074 1.434 . S
C1074 C1065 1.429 . S
C1074 N1071 1.350 . S
C1074 C1073 1.434 . S
C1075 C1076 1.369 . S
C1075 C1077 1.419 . S
C1075 H1079 0.930 . S
C1076 C1075 1.369 . S
C1076 C1085 1.429 . S
C1077 C1075 1.419 . S
C1077 C1078 1.363 . S
C1077 H1080 0.929 . S
C1078 C1077 1.363 . S
C1078 C1084 1.428 . S
H1079 C1075 0.930 . S
H1080 C1077 0.929 . S
S1081 N1082 1.613 . S
S1081 N1083 1.610 . S
N1082 S1081 1.613 . S
N1082 C1085 1.350 . S
N1083 S1081 1.610 . S
N1083 C1084 1.351 . S
C1084 C1078 1.428 . S
C1084 N1083 1.351 . S
C1084 C1085 1.434 . S
C1085 C1076 1.429 . S
C1085 N1082 1.350 . S
C1085 C1084 1.434 . S
C1086 C1087 1.369 . S
C1086 C1088 1.419 . S
C1086 H1090 0.930 . S
C1087 C1086 1.369 . S
C1087 C1096 1.429 . S
C1088 C1086 1.419 . S
C1088 C1089 1.363 . S
C1088 H1091 0.929 . S
C1089 C1088 1.363 . S
C1089 C1095 1.428 . S
H1090 C1086 0.930 . S
H1091 C1088 0.929 . S
S1092 N1093 1.613 . S
S1092 N1094 1.610 . S
N1093 S1092 1.613 . S
N1093 C1096 1.350 . S
N1094 S1092 1.610 . S
N1094 C1095 1.351 . S
C1095 C1089 1.428 . S
C1095 N1094 1.351 . S
C1095 C1096 1.434 . S
C1096 C1087 1.429 . S
C1096 N1093 1.350 . S
C1096 C1095 1.434 . S
C1097 C1098 1.369 . S
C1097 C1099 1.419 . S
C1097 H1101 0.930 . S
C1098 C1097 1.369 . S
C1098 C1107 1.429 . S
C1099 C1097 1.419 . S
C1099 C1100 1.363 . S
C1099 H1102 0.929 . S
C1100 C1099 1.363 . S
C1100 C1106 1.428 . S
H1101 C1097 0.930 . S
H1102 C1099 0.929 . S
S1103 N1104 1.613 . S
S1103 N1105 1.610 . S
N1104 S1103 1.613 . S
N1104 C1107 1.350 . S
N1105 S1103 1.610 . S
N1105 C1106 1.351 . S
C1106 C1100 1.428 . S
C1106 N1105 1.351 . S
C1106 C1107 1.434 . S
C1107 C1098 1.429 . S
C1107 N1104 1.350 . S
C1107 C1106 1.434 . S
C1108 C1109 1.369 . S
C1108 C1110 1.419 . S
C1108 H1112 0.930 . S
C1109 C1108 1.369 . S
C1109 C1118 1.429 . S
C1110 C1108 1.419 . S
C1110 C1111 1.363 . S
C1110 H1113 0.929 . S
C1111 C1110 1.363 . S
C1111 C1117 1.428 . S
H1112 C1108 0.930 . S
H1113 C1110 0.929 . S
S1114 N1115 1.613 . S
S1114 N1116 1.610 . S
N1115 S1114 1.613 . S
N1115 C1118 1.350 . S
N1116 S1114 1.610 . S
N1116 C1117 1.351 . S
C1117 C1111 1.428 . S
C1117 N1116 1.351 . S
C1117 C1118 1.434 . S
C1118 C1109 1.429 . S
C1118 N1115 1.350 . S
C1118 C1117 1.434 . S
C1119 C1120 1.369 . S
C1119 C1121 1.419 . S
C1119 H1123 0.930 . S
C1120 C1119 1.369 . S
C1120 C1129 1.429 . S
C1121 C1119 1.419 . S
C1121 C1122 1.363 . S
C1121 H1124 0.929 . S
C1122 C1121 1.363 . S
C1122 C1128 1.428 . S
H1123 C1119 0.930 . S
H1124 C1121 0.929 . S
S1125 N1126 1.613 . S
S1125 N1127 1.610 . S
N1126 S1125 1.613 . S
N1126 C1129 1.350 . S
N1127 S1125 1.610 . S
N1127 C1128 1.351 . S
C1128 C1122 1.428 . S
C1128 N1127 1.351 . S
C1128 C1129 1.434 . S
C1129 C1120 1.429 . S
C1129 N1126 1.350 . S
C1129 C1128 1.434 . S
C1130 C1131 1.369 . S
C1130 C1132 1.419 . S
C1130 H1134 0.930 . S
C1131 C1130 1.369 . S
C1131 C1140 1.429 . S
C1132 C1130 1.419 . S
C1132 C1133 1.363 . S
C1132 H1135 0.929 . S
C1133 C1132 1.363 . S
C1133 C1139 1.428 . S
H1134 C1130 0.930 . S
H1135 C1132 0.929 . S
S1136 N1137 1.613 . S
S1136 N1138 1.610 . S
N1137 S1136 1.613 . S
N1137 C1140 1.350 . S
N1138 S1136 1.610 . S
N1138 C1139 1.351 . S
C1139 C1133 1.428 . S
C1139 N1138 1.351 . S
C1139 C1140 1.434 . S
C1140 C1131 1.429 . S
C1140 N1137 1.350 . S
C1140 C1139 1.434 . S
C1141 C1142 1.369 . S
C1141 C1143 1.419 . S
C1141 H1145 0.930 . S
C1142 C1141 1.369 . S
C1142 C1151 1.429 . S
C1143 C1141 1.419 . S
C1143 C1144 1.363 . S
C1143 H1146 0.929 . S
C1144 C1143 1.363 . S
C1144 C1150 1.428 . S
H1145 C1141 0.930 . S
H1146 C1143 0.929 . S
S1147 N1148 1.613 . S
S1147 N1149 1.610 . S
N1148 S1147 1.613 . S
N1148 C1151 1.350 . S
N1149 S1147 1.610 . S
N1149 C1150 1.351 . S
C1150 C1144 1.428 . S
C1150 N1149 1.351 . S
C1150 C1151 1.434 . S
C1151 C1142 1.429 . S
C1151 N1148 1.350 . S
C1151 C1150 1.434 . S
C449 C415 1.540 . S
C451 C9 1.540 . S
C460 C23 1.539 . S
C462 C429 1.540 . S
C471 C443 1.542 . S
C473 C37 1.542 . S
C482 C401 1.543 . S
C484 C51 1.543 . S
C493 C65 1.539 . S
C495 C387 1.540 . S
C504 C345 1.539 . S
C506 C79 1.540 . S
C515 C93 1.543 . S
C517 C359 1.543 . S
C526 C373 1.543 . S
C528 C107 1.543 . S
C537 C121 1.540 . S
C539 C303 1.541 . S
C548 C135 1.540 . S
C550 C317 1.541 . S
C559 C331 1.541 . S
C561 C149 1.541 . S
C570 C163 1.543 . S
C572 C289 1.543 . S
C581 C275 1.539 . S
C583 C177 1.540 . S
C592 C233 1.539 . S
C594 C191 1.540 . S
C603 C205 1.541 . S
C605 C247 1.541 . S
C614 C219 1.540 . S
C616 C261 1.540 . S
C625 C3 1.439 . S
C627 C143 1.439 . S
C636 C157 1.440 . S
C638 C17 1.439 . S
C647 C115 1.437 . S
C649 C31 1.438 . S
C658 C129 1.437 . S
C660 C45 1.437 . S
C669 C59 1.437 . S
C671 C199 1.437 . S
C680 C213 1.439 . S
C682 C73 1.439 . S
C691 C171 1.439 . S
C693 C87 1.439 . S
C702 C185 1.437 . S
C704 C101 1.437 . S
C713 C227 1.437 . S
C715 C367 1.438 . S
C724 C381 1.440 . S
C726 C241 1.439 . S
C735 C339 1.438 . S
C737 C255 1.438 . S
C746 C269 1.437 . S
C748 C353 1.438 . S
C757 C283 1.437 . S
C759 C423 1.437 . S
C768 C437 1.437 . S
C770 C297 1.437 . S
C779 C395 1.439 . S
C781 C311 1.439 . S
C790 C325 1.439 . S
C792 C409 1.439 . S
C801 C8 1.533 . S
C803 C64 1.530 . S
C812 C22 1.534 . S
C814 C78 1.531 . S
C823 C92 1.530 . S
C825 C36 1.533 . S
C834 C50 1.530 . S
C836 C106 1.533 . S
C845 C120 1.534 . S
C847 C176 1.531 . S
C856 C190 1.533 . S
C858 C134 1.530 . S
C867 C204 1.533 . S
C869 C148 1.530 . S
C878 C162 1.533 . S
C880 C218 1.533 . S
C889 C232 1.534 . S
C891 C288 1.531 . S
C900 C302 1.534 . S
C902 C246 1.531 . S
C911 C260 1.534 . S
C913 C316 1.531 . S
C922 C330 1.531 . S
C924 C274 1.531 . S
C933 C400 1.530 . S
C935 C344 1.533 . S
C944 C358 1.530 . S
C946 C414 1.532 . S
C955 C372 1.530 . S
C957 C428 1.533 . S
C966 C386 1.531 . S
C968 C442 1.531 . S
C977 C7 1.370 . S
C979 C77 1.372 . S
C988 C21 1.364 . S
C990 C91 1.369 . S
C999 C105 1.365 . S
C1001 C35 1.373 . S
C1010 C63 1.374 . S
C1012 C49 1.367 . S
C1021 C189 1.367 . S
C1023 C119 1.373 . S
C1032 C203 1.373 . S
C1034 C133 1.371 . S
C1043 C217 1.366 . S
C1045 C147 1.366 . S
C1054 C161 1.373 . S
C1056 C175 1.371 . S
C1065 C231 1.368 . S
C1067 C301 1.365 . S
C1076 C315 1.372 . S
C1078 C245 1.365 . S
C1087 C329 1.366 . S
C1089 C259 1.367 . S
C1098 C273 1.366 . S
C1100 C287 1.367 . S
C1109 C413 1.364 . S
C1111 C343 1.368 . S
C1120 C357 1.364 . S
C1122 C427 1.371 . S
C1131 C371 1.367 . S
C1133 C441 1.366 . S
C1142 C399 1.372 . S
C1144 C385 1.365 . S
