# Generated by pormake.
# Topology umh, (4)-cn, num edge types: 1
# Building blocks:
#     Node 0, Type 0, BuildingBlock: MUDLON_clean_sbu_0, # of connection points: 4
#     Node 1, Type 0, BuildingBlock: MUDLON_clean_sbu_0, # of connection points: 4
#     Node 2, Type 0, BuildingBlock: MUDLON_clean_sbu_0, # of connection points: 4
#     Node 3, Type 0, BuildingBlock: MUDLON_clean_sbu_0, # of connection points: 4
#     Node 4, Type 0, BuildingBlock: MUDLON_clean_sbu_0, # of connection points: 4
#     Node 5, Type 0, BuildingBlock: MUDLON_clean_sbu_0, # of connection points: 4
#     Node 6, Type 0, BuildingBlock: MUDLON_clean_sbu_0, # of connection points: 4
#     Node 7, Type 0, BuildingBlock: MUDLON_clean_sbu_0, # of connection points: 4
#     Node 8, Type 0, BuildingBlock: MUDLON_clean_sbu_0, # of connection points: 4
#     Node 9, Type 0, BuildingBlock: MUDLON_clean_sbu_0, # of connection points: 4
#     Node 10, Type 0, BuildingBlock: MUDLON_clean_sbu_0, # of connection points: 4
#     Node 11, Type 0, BuildingBlock: MUDLON_clean_sbu_0, # of connection points: 4
#     Node 12, Type 0, BuildingBlock: MUDLON_clean_sbu_0, # of connection points: 4
#     Node 13, Type 0, BuildingBlock: MUDLON_clean_sbu_0, # of connection points: 4
#     Node 14, Type 0, BuildingBlock: MUDLON_clean_sbu_0, # of connection points: 4
#     Node 15, Type 0, BuildingBlock: MUDLON_clean_sbu_0, # of connection points: 4
#     Edge 16, Type (0, 0), BuildingBlock: ZUJKAS_clean_linker_0, # of connection points: 2
#     Edge 17, Type (0, 0), BuildingBlock: ZUJKAS_clean_linker_0, # of connection points: 2
#     Edge 18, Type (0, 0), BuildingBlock: ZUJKAS_clean_linker_0, # of connection points: 2
#     Edge 19, Type (0, 0), BuildingBlock: ZUJKAS_clean_linker_0, # of connection points: 2
#     Edge 20, Type (0, 0), BuildingBlock: ZUJKAS_clean_linker_0, # of connection points: 2
#     Edge 21, Type (0, 0), BuildingBlock: ZUJKAS_clean_linker_0, # of connection points: 2
#     Edge 22, Type (0, 0), BuildingBlock: ZUJKAS_clean_linker_0, # of connection points: 2
#     Edge 23, Type (0, 0), BuildingBlock: ZUJKAS_clean_linker_0, # of connection points: 2
#     Edge 24, Type (0, 0), BuildingBlock: ZUJKAS_clean_linker_0, # of connection points: 2
#     Edge 25, Type (0, 0), BuildingBlock: ZUJKAS_clean_linker_0, # of connection points: 2
#     Edge 26, Type (0, 0), BuildingBlock: ZUJKAS_clean_linker_0, # of connection points: 2
#     Edge 27, Type (0, 0), BuildingBlock: ZUJKAS_clean_linker_0, # of connection points: 2
#     Edge 28, Type (0, 0), BuildingBlock: ZUJKAS_clean_linker_0, # of connection points: 2
#     Edge 29, Type (0, 0), BuildingBlock: ZUJKAS_clean_linker_0, # of connection points: 2
#     Edge 30, Type (0, 0), BuildingBlock: ZUJKAS_clean_linker_0, # of connection points: 2
#     Edge 31, Type (0, 0), BuildingBlock: ZUJKAS_clean_linker_0, # of connection points: 2
#     Edge 32, Type (0, 0), BuildingBlock: ZUJKAS_clean_linker_0, # of connection points: 2
#     Edge 33, Type (0, 0), BuildingBlock: ZUJKAS_clean_linker_0, # of connection points: 2
#     Edge 34, Type (0, 0), BuildingBlock: ZUJKAS_clean_linker_0, # of connection points: 2
#     Edge 35, Type (0, 0), BuildingBlock: ZUJKAS_clean_linker_0, # of connection points: 2
#     Edge 36, Type (0, 0), BuildingBlock: ZUJKAS_clean_linker_0, # of connection points: 2
#     Edge 37, Type (0, 0), BuildingBlock: ZUJKAS_clean_linker_0, # of connection points: 2
#     Edge 38, Type (0, 0), BuildingBlock: ZUJKAS_clean_linker_0, # of connection points: 2
#     Edge 39, Type (0, 0), BuildingBlock: ZUJKAS_clean_linker_0, # of connection points: 2
#     Edge 40, Type (0, 0), BuildingBlock: ZUJKAS_clean_linker_0, # of connection points: 2
#     Edge 41, Type (0, 0), BuildingBlock: ZUJKAS_clean_linker_0, # of connection points: 2
#     Edge 42, Type (0, 0), BuildingBlock: ZUJKAS_clean_linker_0, # of connection points: 2
#     Edge 43, Type (0, 0), BuildingBlock: ZUJKAS_clean_linker_0, # of connection points: 2
#     Edge 44, Type (0, 0), BuildingBlock: ZUJKAS_clean_linker_0, # of connection points: 2
#     Edge 45, Type (0, 0), BuildingBlock: ZUJKAS_clean_linker_0, # of connection points: 2
#     Edge 46, Type (0, 0), BuildingBlock: ZUJKAS_clean_linker_0, # of connection points: 2
#     Edge 47, Type (0, 0), BuildingBlock: ZUJKAS_clean_linker_0, # of connection points: 2
# Relax obj value: 0.038
# Max RMSD: 0.081
# Mean RMSD: 0.081
data_MOF--net-umh--node1-MUDLON_clean_sbu_0--edge1-ZUJKAS_clean_linker_0
_symmetry_space_group_name_H-M    P1
_symmetry_Int_Tables_number       1
_symmetry_cell_setting            triclinic
loop_
_symmetry_equiv_pos_as_xyz
'x, y, z'
_cell_length_a     54.025743
_cell_length_b     54.24736
_cell_length_c     71.563543
_cell_angle_alpha  89.948656
_cell_angle_beta   90.073439
_cell_angle_gamma 89.715783
loop_
_atom_site_label
_atom_site_type_symbol
_atom_site_fract_x
_atom_site_fract_y
_atom_site_fract_z
_atom_type_partial_charge
Mg0 Mg 0.34459 0.10974 0.16004 0.0
C1 C 0.35764 0.15077 0.13115 0.0
O2 O 0.33833 0.16241 0.13804 0.0
C3 C 0.33129 0.13477 0.19617 0.0
O4 O 0.31596 0.14608 0.18471 0.0
C5 C 0.37173 0.0649 0.14537 0.0
O6 O 0.37284 0.07886 0.13039 0.0
O7 O 0.35946 0.07246 0.15941 0.0
O8 O 0.36456 0.13053 0.13855 0.0
O9 O 0.30488 0.11242 0.15558 0.0
C10 C 0.29423 0.1196 0.14069 0.0
O11 O 0.30723 0.12148 0.12525 0.0
O12 O 0.34795 0.1208 0.18929 0.0
Mg13 Mg 0.41092 0.34375 0.66038 0.0
C14 C 0.42635 0.35551 0.62021 0.0
O15 O 0.44105 0.371 0.62886 0.0
C16 C 0.44385 0.32477 0.69131 0.0
O17 O 0.44808 0.34855 0.69239 0.0
C18 C 0.41636 0.40061 0.66141 0.0
O19 O 0.39936 0.40058 0.64827 0.0
O20 O 0.4231 0.38029 0.66873 0.0
O21 O 0.41356 0.34056 0.6299 0.0
O22 O 0.37226 0.33685 0.66644 0.0
C23 C 0.3659 0.32789 0.68213 0.0
O24 O 0.38257 0.32578 0.69543 0.0
O25 O 0.43071 0.31678 0.67783 0.0
Mg26 Mg 0.13594 0.3749 0.17318 0.0
C27 C 0.13284 0.35995 0.13344 0.0
O28 O 0.12163 0.34211 0.14245 0.0
C29 C 0.15784 0.39473 0.20812 0.0
O30 O 0.13491 0.38972 0.21285 0.0
C31 C 0.08379 0.39547 0.16743 0.0
O32 O 0.08582 0.38332 0.15164 0.0
O33 O 0.10125 0.39402 0.17934 0.0
O34 O 0.14199 0.37765 0.14288 0.0
O35 O 0.13569 0.33528 0.17847 0.0
C36 C 0.15444 0.32535 0.18623 0.0
O37 O 0.17148 0.33964 0.19347 0.0
O38 O 0.16438 0.39112 0.19123 0.0
Mg39 Mg 0.10349 0.15554 0.66592 0.0
C40 C 0.121 0.15517 0.62715 0.0
O41 O 0.13969 0.14665 0.63702 0.0
C42 C 0.07796 0.16787 0.70086 0.0
O43 O 0.08875 0.14653 0.70412 0.0
C44 C 0.07047 0.11351 0.66716 0.0
O45 O 0.05643 0.13268 0.66324 0.0
O46 O 0.09354 0.11697 0.66959 0.0
O47 O 0.10147 0.16193 0.63575 0.0
O48 O 0.14091 0.16595 0.6744 0.0
C49 C 0.14289 0.18691 0.68226 0.0
O50 O 0.12276 0.19985 0.68549 0.0
O51 O 0.07905 0.1767 0.68437 0.0
Mg52 Mg 0.36173 0.40361 0.38722 0.0
C53 C 0.37131 0.41498 0.42836 0.0
O54 O 0.38519 0.43216 0.42086 0.0
C55 C 0.33747 0.42341 0.35382 0.0
O56 O 0.35972 0.41689 0.34824 0.0
C57 C 0.41743 0.41103 0.38766 0.0
O58 O 0.41631 0.39197 0.39896 0.0
O59 O 0.39759 0.4191 0.38022 0.0
O60 O 0.35804 0.40167 0.4177 0.0
O61 O 0.35643 0.3667 0.37682 0.0
C62 C 0.35715 0.34768 0.38716 0.0
O63 O 0.36613 0.34947 0.40417 0.0
O64 O 0.3326 0.42217 0.37122 0.0
Mg65 Mg 0.09675 0.34293 0.89409 0.0
C66 C 0.10715 0.35416 0.93294 0.0
O67 O 0.11707 0.37201 0.92308 0.0
C68 C 0.06864 0.32332 0.86113 0.0
O69 O 0.06835 0.3471 0.85768 0.0
C70 C 0.08517 0.39562 0.87795 0.0
O71 O 0.1021 0.3912 0.86521 0.0
O72 O 0.08049 0.37938 0.89026 0.0
O73 O 0.09577 0.33712 0.92426 0.0
O74 O 0.13588 0.33958 0.88754 0.0
C75 C 0.14318 0.32838 0.87293 0.0
O76 O 0.12682 0.32195 0.86028 0.0
O77 O 0.07786 0.31581 0.87652 0.0
Mg78 Mg 0.16138 0.11454 0.38956 0.0
C79 C 0.14178 0.12004 0.42807 0.0
O80 O 0.12192 0.12249 0.4176 0.0
C81 C 0.19058 0.0959 0.35808 0.0
O82 O 0.16798 0.09786 0.35141 0.0
C83 C 0.12874 0.0716 0.38511 0.0
O84 O 0.14858 0.06227 0.39313 0.0
O85 O 0.12844 0.09446 0.38119 0.0
O86 O 0.16245 0.11585 0.42011 0.0
O87 O 0.16371 0.15166 0.37875 0.0
C88 C 0.16562 0.17021 0.38946 0.0
O89 O 0.15955 0.16794 0.40713 0.0
O90 O 0.19391 0.09944 0.37549 0.0
Mg91 Mg 0.42003 0.17702 0.89961 0.0
C92 C 0.43315 0.17454 0.94087 0.0
O93 O 0.44402 0.15428 0.935 0.0
C94 C 0.43723 0.18846 0.86179 0.0
O95 O 0.42398 0.16835 0.86019 0.0
C96 C 0.42464 0.12114 0.88844 0.0
O97 O 0.40473 0.12447 0.87817 0.0
O98 O 0.43301 0.1389 0.89812 0.0
O99 O 0.42321 0.18888 0.92886 0.0
O100 O 0.38131 0.18363 0.89225 0.0
C101 C 0.37745 0.20496 0.88534 0.0
O102 O 0.39628 0.21991 0.88323 0.0
O103 O 0.44069 0.19723 0.87811 0.0
Mg104 Mg 0.65451 0.90621 0.88632 0.0
C105 C 0.63948 0.91014 0.92665 0.0
O106 O 0.61866 0.91594 0.9182 0.0
C107 C 0.70176 0.91583 0.86511 0.0
O108 O 0.7075 0.89477 0.87315 0.0
C109 C 0.61739 0.94463 0.87733 0.0
O110 O 0.6382 0.95697 0.87846 0.0
O111 O 0.61809 0.92133 0.87941 0.0
O112 O 0.65882 0.90675 0.9168 0.0
O113 O 0.66107 0.86825 0.87784 0.0
C114 C 0.66328 0.85138 0.89009 0.0
O115 O 0.65698 0.85621 0.90742 0.0
O116 O 0.68151 0.92638 0.86956 0.0
Mg117 Mg 0.61476 0.64644 0.38638 0.0
C118 C 0.66842 0.66171 0.38965 0.0
O119 O 0.66342 0.65949 0.40753 0.0
C120 C 0.60828 0.59018 0.38948 0.0
O121 O 0.62384 0.59224 0.40351 0.0
C122 C 0.59492 0.66326 0.35112 0.0
O123 O 0.60775 0.64311 0.34773 0.0
O124 O 0.59297 0.67038 0.36803 0.0
O125 O 0.65223 0.65521 0.37775 0.0
O126 O 0.61261 0.65155 0.4167 0.0
C127 C 0.5979 0.63908 0.42682 0.0
O128 O 0.58119 0.62524 0.41866 0.0
O129 O 0.60285 0.60918 0.37987 0.0
Mg130 Mg 0.84972 0.60346 0.88861 0.0
C131 C 0.83271 0.6147 0.92914 0.0
O132 O 0.81705 0.62987 0.92097 0.0
C133 C 0.80371 0.5899 0.86725 0.0
O134 O 0.79558 0.60941 0.87626 0.0
C135 C 0.89388 0.57226 0.89158 0.0
O136 O 0.87847 0.56331 0.90403 0.0
O137 O 0.88711 0.59096 0.88208 0.0
O138 O 0.8463 0.60081 0.91908 0.0
O139 O 0.8407 0.64078 0.87985 0.0
C140 C 0.84406 0.66022 0.88939 0.0
O141 O 0.85712 0.65897 0.90487 0.0
O142 O 0.82507 0.58141 0.87126 0.0
Mg143 Mg 0.9027 0.85322 0.38711 0.0
C144 C 0.85943 0.83712 0.36324 0.0
O145 O 0.87719 0.83423 0.35091 0.0
C146 C 0.9421 0.88911 0.3859 0.0
O147 O 0.95114 0.86977 0.39469 0.0
C148 C 0.93237 0.8302 0.35628 0.0
O149 O 0.93326 0.85366 0.35178 0.0
O150 O 0.92245 0.82421 0.37177 0.0
O151 O 0.86435 0.84772 0.37864 0.0
O152 O 0.90365 0.85107 0.41773 0.0
C153 C 0.88325 0.85346 0.42648 0.0
O154 O 0.86262 0.8551 0.41682 0.0
O155 O 0.91978 0.88834 0.38023 0.0
Mg156 Mg 0.65445 0.59853 0.66106 0.0
C157 C 0.64152 0.5851 0.62115 0.0
O158 O 0.62228 0.5759 0.62987 0.0
C159 C 0.70007 0.58749 0.68423 0.0
O160 O 0.70808 0.60663 0.67478 0.0
C161 C 0.61292 0.56844 0.67673 0.0
O162 O 0.6322 0.556 0.68287 0.0
O163 O 0.61648 0.58836 0.66775 0.0
O164 O 0.65927 0.59378 0.63082 0.0
O165 O 0.6628 0.63681 0.66733 0.0
C166 C 0.66973 0.65106 0.65425 0.0
O167 O 0.66848 0.64325 0.63691 0.0
O168 O 0.67913 0.57841 0.67999 0.0
Mg169 Mg 0.89443 0.64993 0.16382 0.0
C170 C 0.84001 0.66225 0.15993 0.0
O171 O 0.84553 0.66019 0.14213 0.0
C172 C 0.93166 0.61108 0.17161 0.0
O173 O 0.945 0.63122 0.17047 0.0
C174 C 0.91192 0.6684 0.19947 0.0
O175 O 0.90047 0.64759 0.20299 0.0
O176 O 0.91394 0.67517 0.18248 0.0
O177 O 0.85628 0.65658 0.17206 0.0
O178 O 0.89636 0.65628 0.13352 0.0
C179 C 0.90106 0.638 0.12291 0.0
O180 O 0.90729 0.61685 0.13056 0.0
O181 O 0.90829 0.61289 0.16979 0.0
Mg182 Mg 0.85576 0.90496 0.66451 0.0
C183 C 0.85824 0.89006 0.62493 0.0
O184 O 0.86365 0.86994 0.63434 0.0
C185 C 0.81122 0.93003 0.68479 0.0
O186 O 0.79764 0.92015 0.67158 0.0
C187 C 0.9122 0.9094 0.66119 0.0
O188 O 0.90839 0.8991 0.64485 0.0
O189 O 0.89411 0.91189 0.67241 0.0
O190 O 0.85336 0.90972 0.63401 0.0
O191 O 0.84118 0.86834 0.67057 0.0
C192 C 0.82082 0.86414 0.6622 0.0
O193 O 0.81227 0.88079 0.65049 0.0
O194 O 0.8347 0.9287 0.68361 0.0
Mg195 Mg 0.59214 0.83507 0.15796 0.0
C196 C 0.63595 0.82536 0.18311 0.0
O197 O 0.61815 0.8207 0.19506 0.0
C198 C 0.54979 0.8677 0.15352 0.0
O199 O 0.5449 0.84815 0.14335 0.0
C200 C 0.56281 0.81122 0.18822 0.0
O201 O 0.55792 0.8347 0.19084 0.0
O202 O 0.57527 0.80499 0.17385 0.0
O203 O 0.63038 0.83499 0.16743 0.0
O204 O 0.59534 0.832 0.12757 0.0
C205 C 0.60294 0.85215 0.12048 0.0
O206 O 0.60716 0.87077 0.13177 0.0
O207 O 0.57018 0.86831 0.16243 0.0
H208 H 0.40426 0.20949 0.95838 0.0
H209 H 0.39431 0.21201 0.99176 0.0
H210 H 0.44275 0.15027 1.00273 0.0
H211 H 0.45299 0.14782 0.96961 0.0
H212 H 0.37184 0.17545 1.01222 0.0
H213 H 0.46245 0.19744 0.04404 0.0
H214 H 0.4564 0.20122 1.01937 0.0
H215 H 0.46397 0.1713 0.02874 0.0
C216 C 0.41321 0.19679 0.96795 0.0
C217 C 0.42946 0.17846 0.96126 0.0
C218 C 0.40743 0.1982 0.98704 0.0
C219 C 0.41799 0.18152 0.99984 0.0
C220 C 0.43476 0.1637 0.99325 0.0
H221 H 0.39535 0.12878 0.1116 0.0
H222 H 0.41005 0.13908 0.08028 0.0
C223 C 0.44049 0.16224 0.97422 0.0
C224 C 0.40994 0.18119 1.01977 0.0
H225 H 0.43159 0.1812 0.0647 0.0
C226 C 0.38484 0.1771 1.02371 0.0
C227 C 0.42691 0.18323 0.03478 0.0
C228 C 0.4539 0.18878 0.03155 0.0
C229 C 0.37642 0.17393 0.04214 0.0
C230 C 0.39349 0.17536 0.05714 0.0
C231 C 0.4185 0.18007 0.05323 0.0
C232 C 0.38592 0.1707 0.07685 0.0
C233 C 0.34948 0.16797 0.04532 0.0
C234 C 0.36798 0.1855 0.08564 0.0
C235 C 0.35947 0.17963 0.10359 0.0
C236 C 0.36883 0.15891 0.11318 0.0
C237 C 0.38765 0.14483 0.10466 0.0
C238 C 0.3961 0.15069 0.08672 0.0
H239 H 0.34016 0.16198 0.03226 0.0
H240 H 0.34747 0.1532 0.05596 0.0
H241 H 0.33976 0.18467 0.05052 0.0
H242 H 0.36022 0.20134 0.07847 0.0
H243 H 0.34507 0.19097 0.10973 0.0
H244 H 0.34927 0.37755 0.44814 0.0
H245 H 0.35633 0.36624 0.4809 0.0
H246 H 0.40657 0.42724 0.4869 0.0
H247 H 0.39936 0.43888 0.45441 0.0
H248 H 0.40035 0.35262 0.49765 0.0
H249 H 0.3626 0.43589 0.53227 0.0
H250 H 0.35658 0.42892 0.50803 0.0
H251 H 0.38528 0.44307 0.51483 0.0
C252 C 0.36151 0.38881 0.45652 0.0
C253 C 0.37363 0.40924 0.44862 0.0
C254 C 0.36561 0.38224 0.47523 0.0
C255 C 0.38174 0.39606 0.48648 0.0
C256 C 0.39362 0.41659 0.47867 0.0
H257 H 0.44725 0.38874 0.59626 0.0
H258 H 0.4363 0.39664 0.56366 0.0
C259 C 0.38954 0.42317 0.46001 0.0
C260 C 0.38716 0.38844 0.50608 0.0
H261 H 0.38803 0.40955 0.55107 0.0
C262 C 0.3974 0.36496 0.50936 0.0
C263 C 0.38331 0.40451 0.52139 0.0
C264 C 0.37111 0.42941 0.51902 0.0
C265 C 0.40468 0.35748 0.52741 0.0
C266 C 0.40141 0.37383 0.54261 0.0
C267 C 0.39073 0.3971 0.53938 0.0
C268 C 0.40929 0.36744 0.56196 0.0
C269 C 0.41656 0.33248 0.52998 0.0
C270 C 0.39795 0.34817 0.57184 0.0
C271 C 0.40419 0.34356 0.59056 0.0
C272 C 0.42185 0.3582 0.59978 0.0
C273 C 0.43363 0.37703 0.58965 0.0
C274 C 0.42733 0.38166 0.57099 0.0
H275 H 0.42259 0.32436 0.51648 0.0
H276 H 0.43282 0.33368 0.53944 0.0
H277 H 0.40298 0.31979 0.53645 0.0
H278 H 0.38372 0.33718 0.56526 0.0
H279 H 0.39463 0.32901 0.59794 0.0
H280 H 0.12867 0.38954 0.95436 0.0
H281 H 0.13422 0.39003 0.98815 0.0
H282 H 0.09729 0.31999 0.99243 0.0
H283 H 0.09179 0.31918 0.95835 0.0
H284 H 0.09818 0.38872 1.01617 0.0
H285 H 0.16252 0.30878 1.02125 0.0
H286 H 0.15579 0.32407 0.99939 0.0
H287 H 0.13396 0.30282 1.00921 0.0
C288 C 0.12173 0.37414 0.96241 0.0
C289 C 0.10985 0.35423 0.95359 0.0
C290 C 0.12491 0.37451 0.98177 0.0
C291 C 0.11647 0.35493 0.99281 0.0
C292 C 0.10435 0.3351 0.98414 0.0
H293 H 0.11577 0.32364 0.11073 0.0
H294 H 0.11292 0.32355 0.0768 0.0
C295 C 0.10108 0.33473 0.96469 0.0
C296 C 0.12011 0.3557 1.01339 0.0
H297 H 0.14868 0.32618 0.04973 0.0
C298 C 0.10929 0.3751 1.02352 0.0
C299 C 0.1347 0.33798 1.02292 0.0
C300 C 0.14762 0.31733 1.01266 0.0
C301 C 0.11215 0.37695 0.043 0.0
C302 C 0.12668 0.35918 0.05256 0.0
C303 C 0.13764 0.33986 0.04239 0.0
C304 C 0.12953 0.35942 0.07324 0.0
C305 C 0.09896 0.39747 0.05322 0.0
C306 C 0.14029 0.37949 0.08261 0.0
C307 C 0.14191 0.37968 0.1022 0.0
C308 C 0.13289 0.35972 0.11269 0.0
C309 C 0.12279 0.33942 0.10315 0.0
C310 C 0.12117 0.33927 0.0837 0.0
H311 H 0.08408 0.40594 0.04458 0.0
H312 H 0.09069 0.39064 0.06643 0.0
H313 H 0.11246 0.41209 0.05677 0.0
H314 H 0.14735 0.39504 0.0748 0.0
H315 H 0.14988 0.39553 0.10909 0.0
H316 H 0.16202 0.1471 0.606 0.0
H317 H 0.16478 0.14297 0.57217 0.0
H318 H 0.08649 0.15747 0.56729 0.0
H319 H 0.08361 0.16205 0.60136 0.0
H320 H 0.14132 0.10864 0.55069 0.0
H321 H 0.11517 0.20298 0.52757 0.0
H322 H 0.12351 0.19598 0.55144 0.0
H323 H 0.09317 0.1886 0.54283 0.0
C324 C 0.14537 0.14971 0.59777 0.0
C325 C 0.12256 0.15491 0.60643 0.0
C326 C 0.14701 0.1473 0.57839 0.0
C327 C 0.12592 0.15007 0.56713 0.0
C328 C 0.10313 0.1557 0.57565 0.0
H329 H 0.10018 0.12984 0.44838 0.0
H330 H 0.09673 0.13661 0.48198 0.0
C331 C 0.10148 0.15823 0.59513 0.0
C332 C 0.12782 0.14569 0.54665 0.0
H333 H 0.11963 0.17271 0.50391 0.0
C334 C 0.13666 0.1227 0.54046 0.0
C335 C 0.1217 0.164 0.5333 0.0
C336 C 0.11306 0.18936 0.53906 0.0
C337 C 0.13929 0.11741 0.52135 0.0
C338 C 0.13328 0.13574 0.50801 0.0
C339 C 0.1243 0.1587 0.51416 0.0
C340 C 0.13573 0.13131 0.48758 0.0
C341 C 0.14799 0.09206 0.51559 0.0
C342 C 0.15888 0.12617 0.47949 0.0
C343 C 0.16095 0.12222 0.46018 0.0
C344 C 0.13991 0.12346 0.44862 0.0
C345 C 0.11679 0.12867 0.45682 0.0
C346 C 0.11476 0.13263 0.47606 0.0
H347 H 0.14601 0.07845 0.52709 0.0
H348 H 0.13748 0.0854 0.50325 0.0
H349 H 0.16786 0.09289 0.51172 0.0
H350 H 0.17539 0.12548 0.48807 0.0
H351 H 0.17904 0.11842 0.45432 0.0
H352 H 0.60418 0.81649 0.09295 0.0
H353 H 0.614 0.82244 0.05969 0.0
H354 H 0.62135 0.90059 0.069 0.0
H355 H 0.61219 0.89482 0.10195 0.0
H356 H 0.59109 0.84911 0.03261 0.0
H357 H 0.6854 0.88564 0.04253 0.0
H358 H 0.66852 0.8708 0.06112 0.0
H359 H 0.66322 0.90288 0.05585 0.0
C360 C 0.60795 0.8349 0.08787 0.0
C361 C 0.60764 0.85513 0.10017 0.0
C362 C 0.61361 0.83828 0.06889 0.0
C363 C 0.61909 0.8619 0.06192 0.0
C364 C 0.61804 0.8821 0.07411 0.0
H365 H 0.60348 0.92164 0.95182 0.0
H366 H 0.60016 0.90813 0.98423 0.0
C367 C 0.61257 0.87875 0.09298 0.0
C368 C 0.62499 0.86591 0.04183 0.0
H369 H 0.66606 0.89474 1.0129 0.0
C370 C 0.60765 0.85878 0.02828 0.0
C371 C 0.64685 0.87809 0.03606 0.0
C372 C 0.66717 0.88454 0.04965 0.0
C373 C 0.61092 0.86465 1.00931 0.0
C374 C 0.63181 0.87857 1.00377 0.0
C375 C 0.64981 0.88451 1.01716 0.0
C376 C 0.63477 0.88787 0.98432 0.0
C377 C 0.5919 0.85588 0.99539 0.0
C378 C 0.65602 0.88218 0.97382 0.0
C379 C 0.65819 0.89028 0.95527 0.0
C380 C 0.63913 0.90423 0.94691 0.0
C381 C 0.6184 0.91072 0.95774 0.0
C382 C 0.61634 0.9028 0.97625 0.0
H383 H 0.58212 0.83924 1.00056 0.0
H384 H 0.57784 0.87059 0.99324 0.0
H385 H 0.6005 0.85149 0.9817 0.0
H386 H 0.67064 0.87094 0.97981 0.0
H387 H 0.67437 0.8849 0.9473 0.0
H388 H 0.67302 0.61203 0.59895 0.0
H389 H 0.66718 0.62295 0.56595 0.0
H390 H 0.60153 0.57819 0.56392 0.0
H391 H 0.60703 0.56739 0.59678 0.0
H392 H 0.66287 0.59434 0.53292 0.0
H393 H 0.57638 0.64631 0.54738 0.0
H394 H 0.59753 0.63693 0.56563 0.0
H395 H 0.57602 0.6152 0.55594 0.0
C396 C 0.65752 0.60425 0.59142 0.0
C397 C 0.64037 0.589 0.6006 0.0
C398 C 0.65416 0.61058 0.57256 0.0
C399 C 0.63358 0.60187 0.56259 0.0
C400 C 0.6172 0.58564 0.57145 0.0
H401 H 0.57076 0.61301 0.45226 0.0
H402 H 0.58033 0.6057 0.4852 0.0
C403 C 0.62049 0.57934 0.59024 0.0
C404 C 0.62879 0.61003 0.54305 0.0
H405 H 0.58553 0.63842 0.51541 0.0
C406 C 0.64609 0.60418 0.5291 0.0
C407 C 0.60692 0.62298 0.53808 0.0
C408 C 0.58824 0.63096 0.55256 0.0
C409 C 0.64165 0.61008 0.51022 0.0
C410 C 0.6195 0.62254 0.50522 0.0
C411 C 0.60245 0.62882 0.51923 0.0
C412 C 0.61318 0.62833 0.48544 0.0
C413 C 0.66028 0.60216 0.49571 0.0
C414 C 0.62804 0.6441 0.47472 0.0
C415 C 0.62258 0.64841 0.45584 0.0
C416 C 0.60207 0.63706 0.44731 0.0
C417 C 0.58671 0.62203 0.45832 0.0
C418 C 0.59217 0.61779 0.47717 0.0
H419 H 0.67341 0.58811 0.50125 0.0
H420 H 0.65086 0.59447 0.48322 0.0
H421 H 0.67115 0.61841 0.4912 0.0
H422 H 0.64405 0.65287 0.48089 0.0
H423 H 0.63479 0.66013 0.44782 0.0
H424 H 0.81365 0.64839 0.95385 0.0
H425 H 0.82546 0.65448 0.98654 0.0
H426 H 0.87415 0.5914 0.9835 0.0
H427 H 0.86289 0.58549 0.95071 0.0
H428 H 0.82235 0.62578 1.01777 0.0
H429 H 0.92083 0.64428 1.00179 0.0
H430 H 0.89731 0.64316 0.9839 0.0
H431 H 0.91055 0.61511 0.99302 0.0
C432 C 0.82673 0.63566 0.96016 0.0
C433 C 0.83747 0.61655 0.94956 0.0
C434 C 0.83351 0.63923 0.97886 0.0
C435 C 0.85118 0.6238 0.98738 0.0
C436 C 0.86103 0.604 0.9771 0.0
H437 H 0.91486 0.60443 0.09654 0.0
H438 H 0.90285 0.60323 0.06364 0.0
C439 C 0.85438 0.6005 0.95838 0.0
C440 C 0.85939 0.62846 1.00694 0.0
H441 H 0.91075 0.63826 0.0339 0.0
C442 C 0.84164 0.62874 1.02127 0.0
C443 C 0.88458 0.63251 1.01153 0.0
C444 C 0.90439 0.63402 0.99674 0.0
C445 C 0.84848 0.63205 0.04008 0.0
C446 C 0.87372 0.63546 0.04468 0.0
C447 C 0.89142 0.63561 0.03035 0.0
C448 C 0.88227 0.6375 0.06438 0.0
C449 C 0.82877 0.63107 0.05498 0.0
C450 C 0.87531 0.65758 0.07564 0.0
C451 C 0.88231 0.65843 0.09452 0.0
C452 C 0.89632 0.63914 0.10246 0.0
C453 C 0.90399 0.61955 0.09092 0.0
C454 C 0.89713 0.61881 0.07209 0.0
H455 H 0.81098 0.62383 0.04951 0.0
H456 H 0.8349 0.61932 0.06684 0.0
H457 H 0.8254 0.64993 0.06043 0.0
H458 H 0.86414 0.6724 0.0699 0.0
H459 H 0.87605 0.67375 0.10301 0.0
H460 H 0.9216 0.86412 0.45044 0.0
H461 H 0.91888 0.87306 0.48396 0.0
H462 H 0.84039 0.85898 0.48253 0.0
H463 H 0.84284 0.85079 0.44908 0.0
H464 H 0.84981 0.90036 0.50138 0.0
H465 H 0.91204 0.82595 0.52697 0.0
H466 H 0.92634 0.84632 0.51048 0.0
H467 H 0.90103 0.82714 0.5032 0.0
C468 C 0.90383 0.86264 0.45733 0.0
C469 C 0.88246 0.85664 0.44708 0.0
C470 C 0.9023 0.86771 0.47652 0.0
C471 C 0.87945 0.86646 0.48588 0.0
C472 C 0.85821 0.86013 0.47567 0.0
H473 H 0.85216 0.84991 0.60304 0.0
H474 H 0.85708 0.84665 0.56932 0.0
C475 C 0.85968 0.85533 0.45652 0.0
C476 C 0.8773 0.87215 0.50619 0.0
H477 H 0.89741 0.85436 0.54943 0.0
C478 C 0.86025 0.89032 0.5119 0.0
C479 C 0.89078 0.85896 0.51994 0.0
C480 C 0.9084 0.83835 0.5149 0.0
C481 C 0.85598 0.89534 0.53092 0.0
C482 C 0.86962 0.88228 0.54466 0.0
C483 C 0.88702 0.86447 0.53892 0.0
C484 C 0.86502 0.88532 0.56507 0.0
C485 C 0.83622 0.91387 0.53607 0.0
C486 C 0.86737 0.90829 0.57404 0.0
C487 C 0.86411 0.91029 0.59346 0.0
C488 C 0.85895 0.88926 0.60424 0.0
C489 C 0.85625 0.86646 0.59516 0.0
C490 C 0.85914 0.86454 0.57585 0.0
H491 H 0.8233 0.91744 0.52427 0.0
H492 H 0.82533 0.90747 0.54827 0.0
H493 H 0.84511 0.93158 0.53981 0.0
H494 H 0.87239 0.92453 0.56614 0.0
H495 H 0.86658 0.92804 0.60011 0.0
H496 H 0.19156 0.29835 0.20211 0.0
H497 H 0.20631 0.25772 0.19241 0.0
H498 H 0.1454 0.25175 0.15377 0.0
H499 H 0.13033 0.29252 0.16343 0.0
H500 H 0.16181 0.205 0.17532 0.0
H501 H 0.23529 0.25521 0.1369 0.0
H502 H 0.23159 0.26404 0.16094 0.0
H503 H 0.20703 0.26993 0.14457 0.0
C504 C 0.18092 0.28821 0.19186 0.0
C505 C 0.15994 0.29883 0.18337 0.0
C506 C 0.18941 0.26499 0.18633 0.0
C507 C 0.17712 0.25197 0.17221 0.0
C508 C 0.15513 0.2616 0.16468 0.0
H509 H 0.26862 0.14474 0.1135 0.0
H510 H 0.23428 0.17354 0.11839 0.0
C511 C 0.14656 0.28488 0.17024 0.0
C512 C 0.18893 0.22981 0.16402 0.0
H513 H 0.24069 0.21204 0.14032 0.0
C514 C 0.17889 0.20645 0.16746 0.0
C515 C 0.21087 0.23184 0.15341 0.0
C516 C 0.22179 0.2566 0.14855 0.0
C517 C 0.19107 0.1849 0.16138 0.0
C518 C 0.21397 0.1869 0.15187 0.0
C519 C 0.22319 0.2104 0.14761 0.0
C520 C 0.23011 0.1653 0.14781 0.0
C521 C 0.17942 0.16026 0.16535 0.0
C522 C 0.23853 0.15032 0.16252 0.0
C523 C 0.25801 0.1337 0.15974 0.0
C524 C 0.26978 0.13201 0.14224 0.0
C525 C 0.26006 0.14561 0.12717 0.0
C526 C 0.24044 0.16215 0.12995 0.0
H527 H 0.15893 0.16187 0.16611 0.0
H528 H 0.18433 0.14645 0.15452 0.0
H529 H 0.18606 0.15341 0.1791 0.0
H530 H 0.23131 0.1527 0.17652 0.0
H531 H 0.26495 0.1235 0.17168 0.0
H532 H 0.33005 0.32195 0.6555 0.0
H533 H 0.29208 0.29803 0.65806 0.0
H534 H 0.30806 0.28329 0.71608 0.0
H535 H 0.34646 0.30675 0.71355 0.0
H536 H 0.29617 0.24155 0.69712 0.0
H537 H 0.22666 0.31442 0.68237 0.0
H538 H 0.24984 0.31216 0.66453 0.0
H539 H 0.25851 0.32133 0.68779 0.0
C540 C 0.32532 0.31399 0.66891 0.0
C541 C 0.34131 0.3163 0.68433 0.0
C542 C 0.30353 0.30036 0.67036 0.0
C543 C 0.29709 0.28907 0.68731 0.0
C544 C 0.31266 0.29188 0.70287 0.0
H545 H 0.15271 0.22486 0.70572 0.0
H546 H 0.19118 0.24788 0.70863 0.0
C547 C 0.33455 0.30539 0.70141 0.0
C548 C 0.27482 0.27325 0.6885 0.0
H549 H 0.21251 0.27287 0.68081 0.0
C550 C 0.27782 0.24843 0.69371 0.0
C551 C 0.25088 0.2823 0.68423 0.0
C552 C 0.24619 0.30907 0.6796 0.0
C553 C 0.25758 0.23229 0.6944 0.0
C554 C 0.23382 0.24111 0.68937 0.0
C555 C 0.23078 0.26604 0.6845 0.0
C556 C 0.21165 0.22505 0.6892 0.0
C557 C 0.26181 0.20607 0.70074 0.0
C558 C 0.21049 0.20416 0.67762 0.0
C559 C 0.18849 0.19072 0.67609 0.0
C560 C 0.16724 0.19827 0.68588 0.0
C561 C 0.16875 0.21866 0.69793 0.0
C562 C 0.19072 0.23187 0.69959 0.0
H563 H 0.27908 0.20425 0.70909 0.0
H564 H 0.24605 0.19936 0.70926 0.0
H565 H 0.26363 0.194 0.6883 0.0
H566 H 0.22625 0.19882 0.66919 0.0
H567 H 0.18779 0.17524 0.66656 0.0
H568 H 0.35973 0.30072 0.4011 0.0
H569 H 0.32944 0.2678 0.39655 0.0
H570 H 0.2882 0.3147 0.35882 0.0
H571 H 0.3191 0.34665 0.36228 0.0
H572 H 0.28532 0.26869 0.40721 0.0
H573 H 0.28036 0.25307 0.33132 0.0
H574 H 0.3049 0.2708 0.34173 0.0
H575 H 0.27565 0.28516 0.33593 0.0
C576 C 0.34464 0.30359 0.39135 0.0
C577 C 0.34187 0.3262 0.38201 0.0
C578 C 0.32725 0.28485 0.38881 0.0
C579 C 0.30653 0.28856 0.37718 0.0
C580 C 0.30432 0.31088 0.36737 0.0
H581 H 0.1672 0.21701 0.40354 0.0
H582 H 0.20017 0.24721 0.39878 0.0
C583 C 0.32201 0.32931 0.36949 0.0
C584 C 0.28579 0.27062 0.37711 0.0
H585 H 0.24362 0.24228 0.34888 0.0
C586 C 0.27651 0.26262 0.3944 0.0
C587 C 0.27428 0.26237 0.36046 0.0
C588 C 0.28455 0.26811 0.34135 0.0
C589 C 0.2559 0.24711 0.39555 0.0
C590 C 0.24323 0.24044 0.37897 0.0
C591 C 0.25284 0.24791 0.36164 0.0
C592 C 0.22089 0.22455 0.37932 0.0
C593 C 0.24846 0.23757 0.41456 0.0
C594 C 0.2203 0.20289 0.36863 0.0
C595 C 0.20096 0.18616 0.37072 0.0
C596 C 0.18204 0.19057 0.38382 0.0
C597 C 0.18167 0.21306 0.3935 0.0
C598 C 0.20069 0.23013 0.39099 0.0
H599 H 0.26427 0.23784 0.42451 0.0
H600 H 0.2337 0.24957 0.4204 0.0
H601 H 0.24143 0.21841 0.41374 0.0
H602 H 0.23547 0.19823 0.35937 0.0
H603 H 0.20186 0.16895 0.36307 0.0
H604 H 0.33306 0.19058 0.90042 0.0
H605 H 0.29274 0.21086 0.89602 0.0
H606 H 0.32516 0.26005 0.85555 0.0
H607 H 0.3654 0.24053 0.86037 0.0
H608 H 0.30054 0.28518 0.88091 0.0
H609 H 0.24112 0.20926 0.85553 0.0
H610 H 0.25619 0.20221 0.87725 0.0
H611 H 0.27442 0.20668 0.85651 0.0
C612 C 0.33139 0.20538 0.89032 0.0
C613 C 0.35234 0.21407 0.8808 0.0
C614 C 0.30834 0.21691 0.88776 0.0
C615 C 0.30585 0.23691 0.87534 0.0
C616 C 0.3266 0.24474 0.86524 0.0
H617 H 0.16533 0.3048 0.84356 0.0
H618 H 0.20563 0.28402 0.84335 0.0
C619 C 0.34959 0.23353 0.86799 0.0
C620 C 0.28233 0.25113 0.87394 0.0
H621 H 0.22046 0.24616 0.86503 0.0
C622 C 0.28306 0.27664 0.8773 0.0
C623 C 0.25956 0.2401 0.86903 0.0
C624 C 0.25775 0.2131 0.86418 0.0
C625 C 0.2617 0.29135 0.87611 0.0
C626 C 0.23875 0.28016 0.87197 0.0
C627 C 0.23803 0.25472 0.86834 0.0
C628 C 0.21521 0.29441 0.87163 0.0
C629 C 0.26406 0.31881 0.87898 0.0
C630 C 0.20732 0.30745 0.8875 0.0
C631 C 0.18447 0.31963 0.88757 0.0
C632 C 0.16881 0.31864 0.87188 0.0
C633 C 0.17696 0.30599 0.85586 0.0
C634 C 0.19993 0.29399 0.85575 0.0
H635 H 0.28317 0.32521 0.87605 0.0
H636 H 0.25102 0.3292 0.86988 0.0
H637 H 0.2598 0.3233 0.89375 0.0
H638 H 0.2185 0.30759 0.90007 0.0
H639 H 0.17867 0.32896 0.90022 0.0
H640 H 0.68907 0.84064 0.85812 0.0
H641 H 0.71916 0.80731 0.85365 0.0
H642 H 0.70187 0.77869 0.90829 0.0
H643 H 0.67167 0.81178 0.91287 0.0
H644 H 0.7607 0.80051 0.87679 0.0
H645 H 0.70237 0.71674 0.87539 0.0
H646 H 0.6899 0.7473 0.87155 0.0
H647 H 0.69613 0.73662 0.89489 0.0
C648 C 0.69119 0.82691 0.86901 0.0
C649 C 0.67795 0.8289 0.88588 0.0
C650 C 0.7085 0.80795 0.86646 0.0
C651 C 0.71267 0.79047 0.8806 0.0
C652 C 0.69869 0.79176 0.89708 0.0
H653 H 0.83949 0.70253 0.91006 0.0
H654 H 0.80896 0.7355 0.90576 0.0
C655 C 0.68147 0.81075 0.89969 0.0
C656 C 0.73303 0.77219 0.87887 0.0
H657 H 0.74566 0.71053 0.8806 0.0
C658 C 0.75742 0.78082 0.8774 0.0
C659 C 0.72869 0.74653 0.87952 0.0
C660 C 0.70284 0.73618 0.88025 0.0
C661 C 0.77766 0.76447 0.87723 0.0
C662 C 0.77337 0.73886 0.87876 0.0
C663 C 0.74893 0.7302 0.87957 0.0
C664 C 0.79389 0.72066 0.88011 0.0
C665 C 0.80345 0.77473 0.87544 0.0
C666 C 0.79573 0.70151 0.86703 0.0
C667 C 0.81312 0.68263 0.86946 0.0
C668 C 0.82891 0.6824 0.88513 0.0
C669 C 0.82775 0.7022 0.89778 0.0
C670 C 0.81033 0.72111 0.89532 0.0
H671 H 0.80325 0.79353 0.86925 0.0
H672 H 0.81196 0.77596 0.88953 0.0
H673 H 0.81528 0.76259 0.86668 0.0
H674 H 0.7832 0.7008 0.85521 0.0
H675 H 0.81347 0.66769 0.85943 0.0
H676 H 0.67821 0.68014 0.35481 0.0
H677 H 0.71073 0.70929 0.34625 0.0
H678 H 0.74006 0.7056 0.40223 0.0
H679 H 0.7076 0.67653 0.41098 0.0
H680 H 0.71702 0.75635 0.36545 0.0
H681 H 0.80154 0.69763 0.36718 0.0
H682 H 0.77082 0.68506 0.36455 0.0
H683 H 0.78154 0.69475 0.38712 0.0
C684 C 0.69187 0.68511 0.36521 0.0
C685 C 0.69028 0.67603 0.38361 0.0
C686 C 0.71036 0.70186 0.3603 0.0
C687 C 0.72779 0.70952 0.37359 0.0
C688 C 0.72691 0.69971 0.39172 0.0
H689 H 0.81959 0.83641 0.38691 0.0
H690 H 0.78572 0.80666 0.38694 0.0
C691 C 0.70832 0.68312 0.3967 0.0
C692 C 0.74578 0.7291 0.36898 0.0
H693 H 0.80761 0.74104 0.36623 0.0
C694 C 0.73683 0.753 0.36543 0.0
C695 C 0.77155 0.72459 0.36885 0.0
C696 C 0.78203 0.69909 0.37197 0.0
C697 C 0.75308 0.77272 0.36236 0.0
C698 C 0.77888 0.76838 0.36295 0.0
C699 C 0.78779 0.74432 0.36587 0.0
C700 C 0.79707 0.78862 0.36137 0.0
C701 C 0.74259 0.79807 0.35863 0.0
C702 C 0.81438 0.78864 0.34679 0.0
C703 C 0.83369 0.80569 0.34667 0.0
C704 C 0.83626 0.82281 0.36131 0.0
C705 C 0.81814 0.82353 0.3754 0.0
C706 C 0.79873 0.80656 0.37543 0.0
H707 H 0.72292 0.79726 0.35411 0.0
H708 H 0.74352 0.80915 0.37163 0.0
H709 H 0.75348 0.80772 0.34772 0.0
H710 H 0.81343 0.7749 0.33584 0.0
H711 H 0.84733 0.80454 0.33562 0.0
H712 H 0.77448 0.85443 0.64969 0.0
H713 H 0.7501 0.81743 0.65443 0.0
H714 H 0.80927 0.78531 0.68695 0.0
H715 H 0.83415 0.82269 0.68223 0.0
H716 H 0.79 0.7544 0.65834 0.0
H717 H 0.71477 0.7932 0.70189 0.0
H718 H 0.72073 0.81143 0.68145 0.0
H719 H 0.7443 0.80825 0.69909 0.0
C720 C 0.78239 0.83962 0.65795 0.0
C721 C 0.80631 0.84151 0.66558 0.0
C722 C 0.76827 0.81854 0.66079 0.0
C723 C 0.77768 0.79885 0.67133 0.0
C724 C 0.8016 0.80049 0.67895 0.0
H725 H 0.68244 0.66939 0.68869 0.0
H726 H 0.70948 0.70454 0.6952 0.0
C727 C 0.81577 0.82179 0.67622 0.0
C728 C 0.76287 0.77609 0.67309 0.0
H729 H 0.70525 0.75585 0.68507 0.0
C730 C 0.77167 0.75454 0.66451 0.0
C731 C 0.73906 0.77624 0.68132 0.0
C732 C 0.72924 0.79846 0.69163 0.0
C733 C 0.75664 0.73363 0.66288 0.0
C734 C 0.73214 0.73447 0.66982 0.0
C735 C 0.72391 0.75542 0.6795 0.0
C736 C 0.71444 0.71431 0.66615 0.0
C737 C 0.76691 0.71099 0.65336 0.0
C738 C 0.70757 0.70882 0.64772 0.0
C739 C 0.69208 0.68893 0.64395 0.0
C740 C 0.68309 0.67414 0.65856 0.0
C741 C 0.68906 0.6804 0.67711 0.0
C742 C 0.70457 0.7004 0.68087 0.0
H743 H 0.78748 0.71075 0.65358 0.0
H744 H 0.76004 0.69391 0.66011 0.0
H745 H 0.76084 0.71091 0.63854 0.0
H746 H 0.71458 0.71971 0.63619 0.0
H747 H 0.68774 0.68474 0.62952 0.0
H748 H 0.80106 0.67607 0.13784 0.0
H749 H 0.7671 0.704 0.14599 0.0
H750 H 0.79377 0.70753 0.20271 0.0
H751 H 0.82787 0.67957 0.19473 0.0
H752 H 0.72945 0.70107 0.17527 0.0
H753 H 0.79344 0.78059 0.18295 0.0
H754 H 0.80222 0.75261 0.17095 0.0
H755 H 0.80091 0.75316 0.196 0.0
C756 C 0.79952 0.68246 0.15213 0.0
C757 C 0.8173 0.67572 0.16559 0.0
C758 C 0.78012 0.69845 0.15674 0.0
C759 C 0.77823 0.70813 0.17485 0.0
C760 C 0.79517 0.70052 0.18858 0.0
H761 H 0.65122 0.79569 0.21188 0.0
H762 H 0.68739 0.76842 0.21218 0.0
C763 C 0.81452 0.68439 0.18401 0.0
C764 C 0.75907 0.72693 0.17904 0.0
H765 H 0.75097 0.78836 0.18789 0.0
C766 C 0.73411 0.7201 0.17822 0.0
C767 C 0.76531 0.75179 0.18265 0.0
C768 C 0.7919 0.76017 0.18309 0.0
C769 C 0.71514 0.73754 0.18078 0.0
C770 C 0.72136 0.7624 0.18439 0.0
C771 C 0.74633 0.76923 0.18532 0.0
C772 C 0.70201 0.78171 0.18595 0.0
C773 C 0.68856 0.72942 0.179 0.0
C774 C 0.69906 0.79912 0.17161 0.0
C775 C 0.67844 0.8148 0.17139 0.0
C776 C 0.66045 0.81334 0.18555 0.0
C777 C 0.6646 0.79723 0.20069 0.0
C778 C 0.68519 0.78152 0.20085 0.0
H779 H 0.68701 0.7106 0.17302 0.0
H780 H 0.67984 0.72935 0.19304 0.0
H781 H 0.67795 0.74244 0.17003 0.0
H782 H 0.71197 0.79964 0.16005 0.0
H783 H 0.6759 0.82706 0.15958 0.0
H784 H 0.18901 0.08254 0.3215 0.0
H785 H 0.22139 0.08708 0.29814 0.0
H786 H 0.27224 0.11127 0.34077 0.0
H787 H 0.23956 0.10706 0.36438 0.0
H788 H 0.27073 0.14281 0.3109 0.0
H789 H 0.28262 0.04764 0.28508 0.0
H790 H 0.25064 0.05661 0.285 0.0
H791 H 0.26716 0.05453 0.30683 0.0
C792 C 0.20722 0.08832 0.32604 0.0
C793 C 0.21167 0.0944 0.34484 0.0
C794 C 0.22581 0.09078 0.31263 0.0
C795 C 0.2494 0.09924 0.31767 0.0
C796 C 0.25423 0.10454 0.33656 0.0
H797 H 0.35355 0.10656 0.22345 0.0
H798 H 0.33851 0.09941 0.25527 0.0
C799 C 0.23558 0.10198 0.35006 0.0
C800 C 0.26794 0.10465 0.30286 0.0
H801 H 0.29435 0.08013 0.26369 0.0
C802 C 0.2763 0.12899 0.30078 0.0
C803 C 0.2756 0.08662 0.28978 0.0
C804 C 0.26874 0.05984 0.2919 0.0
C805 C 0.29075 0.13606 0.28536 0.0
C806 C 0.29663 0.11844 0.27145 0.0
C807 C 0.28963 0.09378 0.27418 0.0
C808 C 0.30811 0.12541 0.25327 0.0
C809 C 0.29923 0.16245 0.28401 0.0
C810 C 0.29638 0.14275 0.24163 0.0
C811 C 0.305 0.14698 0.2235 0.0
C812 C 0.32541 0.13374 0.21645 0.0
C813 C 0.33785 0.11717 0.22841 0.0
C814 C 0.3292 0.11297 0.2466 0.0
H815 H 0.30118 0.17083 0.29809 0.0
H816 H 0.31721 0.16387 0.27659 0.0
H817 H 0.28519 0.17336 0.27621 0.0
H818 H 0.27976 0.15219 0.24621 0.0
H819 H 0.29486 0.15978 0.2147 0.0
H820 H 0.43043 0.27657 0.69758 0.0
H821 H 0.43557 0.25301 0.72664 0.0
H822 H 0.47617 0.31325 0.75086 0.0
H823 H 0.47124 0.33687 0.72201 0.0
H824 H 0.481 0.24022 0.7493 0.0
H825 H 0.41406 0.30223 0.78537 0.0
H826 H 0.41599 0.30031 0.76022 0.0
H827 H 0.43906 0.31686 0.77312 0.0
C828 C 0.44086 0.28463 0.70895 0.0
C829 C 0.45024 0.30872 0.70748 0.0
C830 C 0.44373 0.27116 0.72556 0.0
C831 C 0.45591 0.28156 0.74099 0.0
C832 C 0.46642 0.30502 0.73921 0.0
H833 H 0.45794 0.23469 0.85854 0.0
H834 H 0.46621 0.25745 0.82951 0.0
C835 C 0.46363 0.31845 0.72265 0.0
C836 C 0.4564 0.26858 0.75927 0.0
H837 H 0.43247 0.27086 0.80341 0.0
C838 C 0.47046 0.24691 0.76116 0.0
C839 C 0.4428 0.27748 0.77476 0.0
C840 C 0.42695 0.3004 0.77336 0.0
C841 C 0.47124 0.23386 0.77816 0.0
C842 C 0.45708 0.2424 0.79354 0.0
C843 C 0.44341 0.26435 0.7917 0.0
C844 C 0.45461 0.22795 0.81116 0.0
C845 C 0.48744 0.2112 0.7795 0.0
C846 C 0.44544 0.20383 0.81056 0.0
C847 C 0.44085 0.19083 0.82703 0.0
C848 C 0.44502 0.20171 0.8446 0.0
C849 C 0.45468 0.22572 0.84526 0.0
C850 C 0.45933 0.23876 0.82868 0.0
H851 H 0.50307 0.21207 0.76945 0.0
H852 H 0.49508 0.20881 0.79381 0.0
H853 H 0.4763 0.1947 0.776 0.0
H854 H 0.44098 0.19527 0.79731 0.0
H855 H 0.43332 0.17242 0.82593 0.0
H856 H 0.20816 0.40174 0.20481 0.0
H857 H 0.23766 0.41109 0.22996 0.0
H858 H 0.17766 0.41435 0.26953 0.0
H859 H 0.14823 0.40493 0.2447 0.0
H860 H 0.23978 0.45188 0.25618 0.0
H861 H 0.22515 0.36197 0.29159 0.0
H862 H 0.21548 0.36767 0.26782 0.0
H863 H 0.19738 0.37928 0.28696 0.0
C864 C 0.20124 0.40463 0.21884 0.0
C865 C 0.17583 0.40236 0.22273 0.0
C866 C 0.21812 0.40997 0.23319 0.0
C867 C 0.2099 0.413 0.25168 0.0
C868 C 0.18449 0.41162 0.25545 0.0
H869 H 0.28696 0.42564 0.35889 0.0
H870 H 0.25503 0.42637 0.33446 0.0
C871 C 0.16766 0.40631 0.24117 0.0
C872 C 0.22782 0.41699 0.26718 0.0
H873 H 0.24991 0.391 0.30744 0.0
C874 C 0.24205 0.43857 0.26738 0.0
C875 C 0.23066 0.39967 0.28185 0.0
C876 C 0.21654 0.37573 0.28205 0.0
C877 C 0.25887 0.4434 0.28195 0.0
C878 C 0.26189 0.42596 0.29653 0.0
C879 C 0.24749 0.40448 0.29637 0.0
C880 C 0.28092 0.42872 0.31147 0.0
C881 C 0.27298 0.46733 0.28172 0.0
C882 C 0.30607 0.43013 0.30674 0.0
C883 C 0.32427 0.42979 0.32063 0.0
C884 C 0.31782 0.42784 0.33963 0.0
C885 C 0.29258 0.42734 0.34443 0.0
C886 C 0.27432 0.42763 0.33046 0.0
H887 H 0.26312 0.48167 0.27344 0.0
H888 H 0.27598 0.47442 0.2961 0.0
H889 H 0.29132 0.46421 0.27515 0.0
H890 H 0.31173 0.43043 0.29223 0.0
H891 H 0.34351 0.43013 0.3164 0.0
H892 H 0.07211 0.15277 0.73684 0.0
H893 H 0.06419 0.17826 0.76427 0.0
H894 H 0.05618 0.24231 0.72905 0.0
H895 H 0.06418 0.21684 0.70134 0.0
H896 H 0.09598 0.21906 0.77304 0.0
H897 H 0.99719 0.24721 0.7669 0.0
H898 H 0.00965 0.22044 0.75511 0.0
H899 H 0.01592 0.25075 0.7463 0.0
C900 C 0.06821 0.1722 0.73482 0.0
C901 C 0.06891 0.18278 0.71686 0.0
C902 C 0.06368 0.18673 0.75055 0.0
C903 C 0.05952 0.21214 0.74871 0.0
C904 C 0.05902 0.22266 0.73076 0.0
H905 H 0.05254 0.33422 0.82589 0.0
H906 H 0.04868 0.30624 0.79939 0.0
C907 C 0.06363 0.20808 0.71494 0.0
C908 C 0.05831 0.22779 0.76571 0.0
H909 H 0.02062 0.26592 0.791 0.0
C910 C 0.07946 0.2292 0.77705 0.0
C911 C 0.03681 0.2411 0.77079 0.0
C912 C 0.01348 0.23978 0.75926 0.0
C913 C 0.07989 0.24392 0.79317 0.0
C914 C 0.05829 0.25708 0.79843 0.0
C915 C 0.03709 0.25565 0.78707 0.0
C916 C 0.05791 0.2734 0.81514 0.0
C917 C 0.10378 0.24587 0.80403 0.0
C918 C 0.06347 0.26417 0.83303 0.0
C919 C 0.0659 0.2802 0.84827 0.0
C920 C 0.06252 0.30574 0.84592 0.0
C921 C 0.05543 0.31468 0.82822 0.0
C922 C 0.05317 0.29869 0.81301 0.0
H923 H 0.11999 0.23998 0.79555 0.0
H924 H 0.10691 0.26505 0.80886 0.0
H925 H 0.10286 0.23371 0.81648 0.0
H926 H 0.0666 0.24463 0.83512 0.0
H927 H 0.0712 0.27266 0.86172 0.0
H928 H 0.74526 0.89695 0.85182 0.0
H929 H 0.76516 0.906 0.82201 0.0
H930 H 0.71031 0.96205 0.81067 0.0
H931 H 0.69038 0.95333 0.84065 0.0
H932 H 0.74159 0.89954 0.78835 0.0
H933 H 0.77462 0.9959 0.79475 0.0
H934 H 0.76643 0.97737 0.81478 0.0
H935 H 0.74267 0.99155 0.80079 0.0
C936 C 0.7377 0.9116 0.84322 0.0
C937 C 0.71613 0.92434 0.84864 0.0
C938 C 0.7491 0.91672 0.82613 0.0
C939 C 0.73932 0.93476 0.8141 0.0
C940 C 0.71846 0.94833 0.81983 0.0
H941 H 0.76188 0.93079 0.69361 0.0
H942 H 0.74361 0.93494 0.72471 0.0
C943 C 0.70703 0.94325 0.83698 0.0
C944 C 0.74945 0.93744 0.79487 0.0
H945 H 0.77612 0.97801 0.7644 0.0
C946 C 0.74917 0.91671 0.78315 0.0
C947 C 0.75944 0.9598 0.7881 0.0
C948 C 0.76107 0.9824 0.80028 0.0
C949 C 0.75848 0.91769 0.76486 0.0
C950 C 0.76799 0.94016 0.75792 0.0
C951 C 0.76852 0.9609 0.76966 0.0
C952 C 0.77837 0.9419 0.73873 0.0
C953 C 0.75854 0.89445 0.75326 0.0
C954 C 0.80379 0.94579 0.73613 0.0
C955 C 0.81431 0.94358 0.71832 0.0
C956 C 0.79958 0.93743 0.70277 0.0
C957 C 0.77383 0.93533 0.70526 0.0
C958 C 0.76334 0.93759 0.72306 0.0
H959 H 0.75585 0.87772 0.76198 0.0
H960 H 0.74321 0.89537 0.74295 0.0
H961 H 0.7762 0.89247 0.74546 0.0
H962 H 0.8157 0.94928 0.74801 0.0
H963 H 0.83418 0.94543 0.71695 0.0
H964 H 0.5727 0.70922 0.3515 0.0
H965 H 0.56003 0.73396 0.32427 0.0
H966 H 0.58331 0.67525 0.28761 0.0
H967 H 0.59539 0.65047 0.31442 0.0
H968 H 0.58976 0.75033 0.29629 0.0
H969 H 0.5168 0.69189 0.26553 0.0
H970 H 0.52816 0.68735 0.28903 0.0
H971 H 0.54486 0.67484 0.2694 0.0
C972 C 0.57467 0.70146 0.33764 0.0
C973 C 0.58502 0.67784 0.33518 0.0
C974 C 0.56748 0.71561 0.32209 0.0
C975 C 0.5703 0.70631 0.30386 0.0
C976 C 0.58028 0.68262 0.30148 0.0
H977 H 0.57979 0.7635 0.19172 0.0
H978 H 0.5789 0.73782 0.21996 0.0
C979 C 0.58741 0.66853 0.31691 0.0
C980 C 0.56488 0.72187 0.28719 0.0
H981 H 0.53523 0.72176 0.2449 0.0
C982 C 0.57752 0.74427 0.28521 0.0
C983 C 0.54896 0.71393 0.27265 0.0
C984 C 0.53374 0.6908 0.27433 0.0
C985 C 0.57544 0.75842 0.26882 0.0
C986 C 0.56017 0.75007 0.25408 0.0
C987 C 0.54707 0.72799 0.25618 0.0
C988 C 0.55794 0.76409 0.23635 0.0
C989 C 0.59019 0.78187 0.26711 0.0
C990 C 0.54567 0.7869 0.23603 0.0
C991 C 0.54601 0.80151 0.21994 0.0
C992 C 0.55869 0.79363 0.20382 0.0
C993 C 0.56981 0.77011 0.20385 0.0
C994 C 0.56939 0.75544 0.21999 0.0
H995 H 0.60409 0.78373 0.27846 0.0
H996 H 0.59988 0.78252 0.25344 0.0
H997 H 0.57743 0.79794 0.26777 0.0
H998 H 0.53652 0.79376 0.24846 0.0
H999 H 0.53714 0.81945 0.22042 0.0
H1000 H 0.75667 0.60151 0.85619 0.0
H1001 H 0.73788 0.59425 0.82564 0.0
H1002 H 0.80282 0.55372 0.80841 0.0
H1003 H 0.82145 0.56033 0.83913 0.0
H1004 H 0.75584 0.61215 0.79406 0.0
H1005 H 0.74928 0.51077 0.78701 0.0
H1006 H 0.75483 0.52565 0.80917 0.0
H1007 H 0.77987 0.52079 0.793 0.0
C1008 C 0.76671 0.5905 0.84608 0.0
C1009 C 0.7906 0.58156 0.85013 0.0
C1010 C 0.75595 0.5864 0.82857 0.0
C1011 C 0.76883 0.57333 0.81467 0.0
C1012 C 0.79224 0.56341 0.81896 0.0
H1013 H 0.74591 0.60133 0.69639 0.0
H1014 H 0.76355 0.59551 0.72757 0.0
C1015 C 0.80293 0.5673 0.83656 0.0
C1016 C 0.75896 0.57258 0.79522 0.0
H1017 H 0.74458 0.53429 0.75885 0.0
C1018 C 0.75324 0.59507 0.78645 0.0
C1019 C 0.75538 0.55033 0.78524 0.0
C1020 C 0.75992 0.52551 0.79414 0.0
C1021 C 0.74437 0.59601 0.76802 0.0
C1022 C 0.74173 0.57386 0.75777 0.0
C1023 C 0.74699 0.55128 0.7666 0.0
C1024 C 0.73292 0.57402 0.73805 0.0
C1025 C 0.7375 0.62079 0.75982 0.0
C1026 C 0.71056 0.56257 0.7332 0.0
C1027 C 0.70055 0.5656 0.71525 0.0
C1028 C 0.71272 0.58018 0.70185 0.0
C1029 C 0.73591 0.59021 0.70641 0.0
C1030 C 0.74597 0.58702 0.72428 0.0
H1031 H 0.73426 0.63481 0.77087 0.0
H1032 H 0.75288 0.62738 0.75089 0.0
H1033 H 0.72058 0.61948 0.75106 0.0
H1034 H 0.70025 0.55229 0.74355 0.0
H1035 H 0.68267 0.55757 0.71223 0.0
H1036 H 0.95186 0.83766 0.32158 0.0
H1037 H 0.95291 0.80873 0.29551 0.0
H1038 H 0.92559 0.75119 0.33149 0.0
H1039 H 0.92389 0.78026 0.35764 0.0
H1040 H 0.97519 0.76406 0.28815 0.0
H1041 H 0.87301 0.75435 0.29085 0.0
H1042 H 0.8893 0.77746 0.30408 0.0
H1043 H 0.88836 0.7461 0.31223 0.0
C1044 C 0.94637 0.81877 0.32407 0.0
C1045 C 0.93746 0.81139 0.34168 0.0
C1046 C 0.94701 0.80223 0.30911 0.0
C1047 C 0.93876 0.77795 0.3114 0.0
C1048 C 0.93148 0.77002 0.32927 0.0
H1049 H 0.91097 0.65686 0.23644 0.0
H1050 H 0.91971 0.68352 0.26297 0.0
C1051 C 0.93073 0.78661 0.34427 0.0
C1052 C 0.93643 0.76152 0.29485 0.0
H1053 H 0.8943 0.72907 0.26923 0.0
C1054 C 0.95751 0.75642 0.28399 0.0
C1055 C 0.91327 0.75183 0.28927 0.0
C1056 C 0.88964 0.75787 0.29958 0.0
C1057 C 0.95613 0.7414 0.26799 0.0
C1058 C 0.93306 0.73144 0.26263 0.0
C1059 C 0.912 0.73667 0.27341 0.0
C1060 C 0.93025 0.71492 0.24622 0.0
C1061 C 0.9794 0.73588 0.25712 0.0
C1062 C 0.93356 0.72363 0.22789 0.0
C1063 C 0.92848 0.70836 0.21253 0.0
C1064 C 0.91994 0.68417 0.2153 0.0
C1065 C 0.91742 0.67539 0.23372 0.0
C1066 C 0.92241 0.69061 0.24897 0.0
H1067 H 0.99633 0.74109 0.26498 0.0
H1068 H 0.98048 0.71597 0.25359 0.0
H1069 H 0.97906 0.74642 0.24382 0.0
H1070 H 0.93927 0.74247 0.22545 0.0
H1071 H 0.93052 0.71571 0.19854 0.0
H1072 H 0.37983 0.03602 0.17625 0.0
H1073 H 0.41007 0.00259 0.17965 0.0
H1074 H 0.42977 0.00986 0.12154 0.0
H1075 H 0.39995 0.04358 0.11807 0.0
H1076 H 0.41551 0.95785 0.1625 0.0
H1077 H 0.49637 0.01706 0.14751 0.0
H1078 H 0.46594 0.02952 0.15209 0.0
H1079 H 0.47355 0.01782 0.12927 0.0
C1080 C 0.39044 0.03039 0.16414 0.0
C1081 C 0.38764 0.04265 0.14692 0.0
C1082 C 0.40777 0.01131 0.16613 0.0
C1083 C 0.42261 0.00416 0.15098 0.0
C1084 C 0.419 0.01555 0.13356 0.0
H1085 H 0.50648 0.87168 0.13431 0.0
H1086 H 0.47608 0.9049 0.13548 0.0
C1087 C 0.40178 0.03469 0.13156 0.0
C1088 C 0.44194 0.98488 0.15338 0.0
H1089 H 0.50376 0.97362 0.14776 0.0
C1090 C 0.43483 0.96134 0.15941 0.0
C1091 C 0.46725 0.9896 0.14975 0.0
C1092 C 0.47632 0.01493 0.14449 0.0
C1093 C 0.45219 0.94213 0.1612 0.0
C1094 C 0.47724 0.94647 0.15649 0.0
C1095 C 0.48451 0.97025 0.15117 0.0
C1096 C 0.49589 0.92631 0.15609 0.0
C1097 C 0.44352 0.91738 0.16817 0.0
C1098 C 0.51762 0.92765 0.16685 0.0
C1099 C 0.5353 0.90868 0.16609 0.0
C1100 C 0.53155 0.88814 0.15446 0.0
C1101 C 0.5099 0.8871 0.14355 0.0
C1102 C 0.49236 0.90601 0.14429 0.0
H1103 H 0.42634 0.91915 0.1766 0.0
H1104 H 0.43935 0.90537 0.15603 0.0
H1105 H 0.45794 0.90817 0.17681 0.0
H1106 H 0.52081 0.9433 0.17592 0.0
H1107 H 0.55181 0.91006 0.17461 0.0
H1108 H 0.59951 0.52711 0.69582 0.0
H1109 H 0.55979 0.50595 0.69483 0.0
H1110 H 0.52978 0.56357 0.65985 0.0
H1111 H 0.56972 0.58485 0.66055 0.0
H1112 H 0.51044 0.52077 0.70426 0.0
H1113 H 0.52164 0.5002 0.62846 0.0
H1114 H 0.54695 0.51097 0.64271 0.0
H1115 H 0.52321 0.53206 0.63523 0.0
C1116 C 0.58443 0.53549 0.68806 0.0
C1117 C 0.58788 0.55756 0.6781 0.0
C1118 C 0.5617 0.52337 0.68756 0.0
C1119 C 0.54198 0.533 0.67704 0.0
C1120 C 0.54491 0.55565 0.66782 0.0
H1121 H 0.41154 0.44641 0.64541 0.0
H1122 H 0.43815 0.48229 0.65036 0.0
C1123 C 0.5677 0.56784 0.66833 0.0
C1124 C 0.51904 0.51835 0.67495 0.0
H1125 H 0.48741 0.48303 0.6436 0.0
C1126 C 0.50518 0.51276 0.69096 0.0
C1127 C 0.51218 0.508 0.65756 0.0
C1128 C 0.52679 0.51289 0.63999 0.0
C1129 C 0.48502 0.49653 0.69015 0.0
C1130 C 0.47892 0.48522 0.67294 0.0
C1131 C 0.49209 0.49171 0.65678 0.0
C1132 C 0.46073 0.46486 0.67164 0.0
C1133 C 0.47065 0.49146 0.70779 0.0
C1134 C 0.46444 0.44322 0.68206 0.0
C1135 C 0.44928 0.42277 0.67931 0.0
C1136 C 0.43021 0.42339 0.66591 0.0
C1137 C 0.42601 0.44533 0.65587 0.0
C1138 C 0.44122 0.46584 0.65866 0.0
H1139 H 0.47161 0.50731 0.71758 0.0
H1140 H 0.45092 0.48751 0.70471 0.0
H1141 H 0.47885 0.47521 0.71497 0.0
H1142 H 0.47974 0.44175 0.6918 0.0
H1143 H 0.45312 0.40618 0.68725 0.0
H1144 H 0.07644 0.42729 0.19669 0.0
H1145 H 0.04563 0.46032 0.19883 0.0
H1146 H 0.0138 0.43727 0.14644 0.0
H1147 H 0.0447 0.40439 0.14404 0.0
H1148 H 0.02542 0.48619 0.1469 0.0
H1149 H 0.97164 0.46246 0.21025 0.0
H1150 H 0.0045 0.46258 0.21407 0.0
H1151 H 0.99121 0.44042 0.19835 0.0
C1152 C 0.0626 0.42892 0.18579 0.0
C1153 C 0.06313 0.41323 0.17014 0.0
C1154 C 0.04488 0.44776 0.1871 0.0
C1155 C 0.02724 0.45113 0.17289 0.0
C1156 C 0.02717 0.43493 0.15761 0.0
H1157 H 0.91074 0.56493 0.1709 0.0
H1158 H 0.93246 0.52503 0.17145 0.0
C1159 C 0.04487 0.41613 0.15627 0.0
C1160 C 0.0106 0.47302 0.17297 0.0
H1161 H 0.96724 0.50384 0.19884 0.0
C1162 C 0.01251 0.48989 0.15817 0.0
C1163 C 0.99361 0.47776 0.18759 0.0
C1164 C 0.98989 0.45974 0.20338 0.0
C1165 C 0.99853 0.51173 0.15788 0.0
C1166 C 0.98242 0.51704 0.17292 0.0
C1167 C 0.9798 0.49982 0.18742 0.0
C1168 C 0.96896 0.54088 0.17402 0.0
C1169 C 1.00121 0.52906 0.1415 0.0
C1170 C 0.98226 0.56288 0.17578 0.0
C1171 C 0.96999 0.58558 0.17548 0.0
C1172 C 0.94411 0.58678 0.17347 0.0
C1173 C 0.93069 0.56465 0.17241 0.0
C1174 C 0.94304 0.54185 0.17273 0.0
H1175 H 0.00922 0.5196 0.12912 0.0
H1176 H 0.98305 0.5372 0.13752 0.0
H1177 H 0.01379 0.54432 0.14543 0.0
H1178 H 1.00224 0.56249 0.17709 0.0
H1179 H 0.98091 0.60221 0.17649 0.0
H1180 H 0.95464 0.90836 0.64034 0.0
H1181 H 0.99017 0.93587 0.64309 0.0
H1182 H 0.95794 0.96862 0.69234 0.0
H1183 H 0.92282 0.9408 0.69 0.0
H1184 H 0.98622 0.98378 0.63912 0.0
H1185 H 0.02911 0.96635 0.70789 0.0
H1186 H 0.00776 0.94498 0.6973 0.0
H1187 H 0.99643 0.97116 0.71028 0.0
C1188 C 0.95545 0.92094 0.65207 0.0
C1189 C 0.93577 0.92248 0.66487 0.0
C1190 C 0.97579 0.93668 0.65361 0.0
C1191 C 0.9769 0.95425 0.668 0.0
C1192 C 0.9579 0.95488 0.68138 0.0
H1193 H 0.02168 0.10219 0.66452 0.0
H1194 H 1.00269 0.06164 0.66448 0.0
C1195 C 0.93766 0.93902 0.67993 0.0
C1196 C 0.99573 0.97416 0.66749 0.0
H1197 H 0.0352 0.00743 0.69492 0.0
C1198 C 0.99731 0.98857 0.65122 0.0
C1199 C 0.01049 0.98038 0.68314 0.0
C1200 C 0.01106 0.9647 0.70055 0.0
C1201 C 0.01198 0.00979 0.65057 0.0
C1202 C 0.02508 0.01714 0.66673 0.0
C1203 C 0.02484 0.00195 0.68262 0.0
C1204 C 0.03713 0.0416 0.66778 0.0
C1205 C 0.01281 0.02455 0.6327 0.0
C1206 C 0.06281 0.04387 0.67031 0.0
C1207 C 0.07385 0.06724 0.67041 0.0
C1208 C 0.0593 0.08863 0.66809 0.0
C1209 C 0.03352 0.08616 0.66615 0.0
C1210 C 0.02259 0.06295 0.66606 0.0
H1211 H 0.00836 0.01294 0.62036 0.0
H1212 H 0.99885 0.0396 0.6334 0.0
H1213 H 0.0313 0.03295 0.6306 0.0
H1214 H 0.07432 0.02758 0.6718 0.0
H1215 H 0.09374 0.06854 0.67201 0.0
H1216 H 0.6115 0.5471 0.40946 0.0
H1217 H 0.58434 0.51123 0.40713 0.0
H1218 H 0.54519 0.54575 0.36145 0.0
H1219 H 0.57246 0.58129 0.36338 0.0
H1220 H 0.53496 0.5123 0.41284 0.0
H1221 H 0.55305 0.47659 0.34179 0.0
H1222 H 0.57346 0.49813 0.35321 0.0
H1223 H 0.54584 0.50889 0.34161 0.0
C1224 C 0.59746 0.54682 0.39864 0.0
C1225 C 0.59417 0.56711 0.38662 0.0
C1226 C 0.58192 0.52632 0.39736 0.0
C1227 C 0.56291 0.52563 0.38396 0.0
C1228 C 0.56009 0.54554 0.37159 0.0
H1229 H 0.42606 0.45112 0.3654 0.0
H1230 H 0.46334 0.47647 0.36435 0.0
C1231 C 0.57563 0.56597 0.37282 0.0
C1232 C 0.54445 0.50542 0.38409 0.0
H1233 H 0.51473 0.46406 0.35603 0.0
C1234 C 0.53084 0.50144 0.40052 0.0
C1235 C 0.539 0.49132 0.36798 0.0
C1236 C 0.55379 0.49376 0.35021 0.0
C1237 C 0.51126 0.48454 0.40104 0.0
C1238 C 0.50533 0.47103 0.38476 0.0
C1239 C 0.51931 0.4745 0.36847 0.0
C1240 C 0.4838 0.45421 0.3842 0.0
C1241 C 0.49639 0.48203 0.41878 0.0
C1242 C 0.48323 0.43292 0.39533 0.0
C1243 C 0.46194 0.41835 0.39596 0.0
C1244 C 0.44086 0.42485 0.38545 0.0
C1245 C 0.44191 0.44565 0.37373 0.0
C1246 C 0.46322 0.46015 0.37308 0.0
H1247 H 0.50036 0.49705 0.42887 0.0
H1248 H 0.47625 0.48212 0.41565 0.0
H1249 H 0.50099 0.4642 0.42558 0.0
H1250 H 0.49907 0.42785 0.40382 0.0
H1251 H 0.46181 0.40241 0.40507 0.0
H1252 H 0.08404 0.43177 0.85094 0.0
H1253 H 0.05778 0.46889 0.85033 0.0
H1254 H 0.0267 0.44852 0.90358 0.0
H1255 H 0.05274 0.4118 0.90439 0.0
H1256 H 0.00561 0.47028 0.85142 0.0
H1257 H 0.0449 0.52084 0.91146 0.0
H1258 H 0.06125 0.49599 0.89998 0.0
H1259 H 0.03797 0.48944 0.91724 0.0
C1260 C 0.07182 0.43539 0.86261 0.0
C1261 C 0.07053 0.41882 0.87772 0.0
C1262 C 0.05683 0.45657 0.86223 0.0
C1263 C 0.0406 0.46168 0.87706 0.0
C1264 C 0.03948 0.44527 0.89219 0.0
H1265 H 0.91454 0.53593 0.91266 0.0
H1266 H 0.95267 0.5131 0.90688 0.0
C1267 C 0.05429 0.42414 0.89255 0.0
C1268 C 0.02347 0.48313 0.87646 0.0
H1269 H 1.0027 0.5311 0.90311 0.0
C1270 C 0.00529 0.484 0.86244 0.0
C1271 C 0.02318 0.50106 0.8908 0.0
C1272 C 0.04304 0.50197 0.90561 0.0
C1273 C 0.98571 0.50114 0.86321 0.0
C1274 C 0.98453 0.51797 0.87827 0.0
C1275 C 0.00359 0.5181 0.89162 0.0
C1276 C 0.96218 0.53323 0.88182 0.0
C1277 C 0.96554 0.50008 0.84863 0.0
C1278 C 0.95504 0.55246 0.86977 0.0
C1279 C 0.9331 0.5657 0.87307 0.0
C1280 C 0.91799 0.55979 0.88843 0.0
C1281 C 0.92562 0.5409 0.90064 0.0
C1282 C 0.94748 0.52784 0.8974 0.0
H1283 H 0.96776 0.48406 0.8391 0.0
H1284 H 0.94711 0.49896 0.85543 0.0
H1285 H 0.96587 0.51718 0.84012 0.0
H1286 H 0.96632 0.55708 0.85778 0.0
H1287 H 0.92775 0.58018 0.86343 0.0
H1288 H 0.92941 0.9344 0.37105 0.0
H1289 H 0.95699 0.96974 0.36581 0.0
H1290 H 0.01838 0.92767 0.38777 0.0
H1291 H 0.99132 0.89265 0.39303 0.0
H1292 H 0.98807 0.99437 0.39399 0.0
H1293 H 0.04295 0.95365 0.33635 0.0
H1294 H 0.01261 0.94255 0.3427 0.0
H1295 H 0.0394 0.93331 0.35596 0.0
C1296 C 0.94881 0.93271 0.37467 0.0
C1297 C 0.95817 0.91069 0.38241 0.0
C1298 C 0.9645 0.95287 0.37169 0.0
C1299 C 0.98977 0.95113 0.37615 0.0
C1300 C 0.99903 0.92924 0.38392 0.0
H1301 H 0.12501 0.02222 0.39119 0.0
H1302 H 0.08902 0.996 0.38662 0.0
C1303 C 0.98345 0.90926 0.38701 0.0
C1304 C 0.00675 0.97219 0.37342 0.0
H1305 H 0.062 0.98677 0.35329 0.0
C1306 C 0.00396 0.99309 0.38478 0.0
C1307 C 0.02739 0.97039 0.36137 0.0
C1308 C 0.0307 0.94887 0.34826 0.0
C1309 C 0.02226 0.01142 0.38539 0.0
C1310 C 0.04365 0.00884 0.37414 0.0
C1311 C 0.04565 0.98865 0.36197 0.0
C1312 C 0.06534 0.02525 0.37626 0.0
C1313 C 0.01937 0.03256 0.3989 0.0
C1314 C 0.06407 0.05042 0.37173 0.0
C1315 C 0.08474 0.06557 0.37435 0.0
C1316 C 0.10698 0.05574 0.38151 0.0
C1317 C 0.1082 0.03044 0.3857 0.0
C1318 C 0.08763 0.01538 0.38307 0.0
H1319 H 0.00354 0.02988 0.40858 0.0
H1320 H 0.03651 0.03488 0.40729 0.0
H1321 H 0.01617 0.04988 0.39097 0.0
H1322 H 0.04714 0.05832 0.3662 0.0
H1323 H 0.08322 0.08497 0.37093 0.0
H1324 H 0.56999 0.92676 0.88073 0.0
H1325 H 0.53123 0.95063 0.88001 0.0
H1326 H 0.57255 0.01697 0.86938 0.0
H1327 H 0.61103 0.99344 0.86987 0.0
H1328 H 0.51845 0.98913 0.90365 0.0
H1329 H 0.51786 0.02141 0.83038 0.0
H1330 H 0.53718 0.99616 0.83824 0.0
H1331 H 0.54683 0.02756 0.84168 0.0
C1332 C 0.57075 0.94636 0.87793 0.0
C1333 C 0.59362 0.95818 0.87532 0.0
C1334 C 0.5486 0.95997 0.87757 0.0
C1335 C 0.54896 0.98553 0.87436 0.0
C1336 C 0.57174 0.99721 0.87145 0.0
H1337 H 0.46424 0.10749 0.90985 0.0
H1338 H 0.49054 0.07118 0.90632 0.0
C1339 C 0.59378 0.9837 0.87187 0.0
C1340 C 0.52594 1.00056 0.87539 0.0
H1341 H 0.49381 0.04553 0.85222 0.0
C1342 C 0.51276 0.00112 0.89228 0.0
C1343 C 0.51824 0.01595 0.86048 0.0
C1344 C 0.53062 0.01508 0.84161 0.0
C1345 C 0.49312 0.0178 0.89505 0.0
C1346 C 0.48675 0.03458 0.88065 0.0
C1347 C 0.49886 0.03289 0.86335 0.0
C1348 C 0.46921 0.05536 0.88374 0.0
C1349 C 0.47969 0.01761 0.91352 0.0
C1350 C 0.44851 0.05875 0.87209 0.0
C1351 C 0.4334 0.07967 0.87403 0.0
C1352 C 0.43892 0.09772 0.88749 0.0
C1353 C 0.45939 0.09397 0.89935 0.0
C1354 C 0.47438 0.07308 0.89745 0.0
H1355 H 0.48083 0.9992 0.92029 0.0
H1356 H 0.48845 0.03114 0.92306 0.0
H1357 H 0.4599 0.02274 0.91178 0.0
H1358 H 0.4443 0.0454 0.86131 0.0
H1359 H 0.41785 0.08203 0.86461 0.0
loop_
_geom_bond_atom_site_label_1
_geom_bond_atom_site_label_2
_geom_bond_distance
_geom_bond_site_symmetry_2
_ccdc_geom_bond_type
Mg0 O7 2.141 . S
Mg0 O8 2.048 . S
Mg0 O9 2.048 . S
Mg0 O12 2.141 . S
C1 O2 1.313 . S
C1 O8 1.195 . S
O2 C1 1.313 . S
C3 O4 1.245 . S
C3 O12 1.289 . S
O4 C3 1.245 . S
C5 O6 1.245 . S
C5 O7 1.289 . S
O6 C5 1.245 . S
O7 Mg0 2.141 . S
O7 C5 1.289 . S
O8 Mg0 2.048 . S
O8 C1 1.195 . S
O9 Mg0 2.048 . S
O9 C10 1.195 . S
C10 O9 1.195 . S
C10 O11 1.313 . S
O11 C10 1.313 . S
O12 Mg0 2.141 . S
O12 C3 1.289 . S
Mg13 O20 2.141 . S
Mg13 O21 2.048 . S
Mg13 O22 2.048 . S
Mg13 O25 2.141 . S
C14 O15 1.313 . S
C14 O21 1.195 . S
O15 C14 1.313 . S
C16 O17 1.245 . S
C16 O25 1.289 . S
O17 C16 1.245 . S
C18 O19 1.245 . S
C18 O20 1.289 . S
O19 C18 1.245 . S
O20 Mg13 2.141 . S
O20 C18 1.289 . S
O21 Mg13 2.048 . S
O21 C14 1.195 . S
O22 Mg13 2.048 . S
O22 C23 1.195 . S
C23 O22 1.195 . S
C23 O24 1.313 . S
O24 C23 1.313 . S
O25 Mg13 2.141 . S
O25 C16 1.289 . S
Mg26 O33 2.141 . S
Mg26 O34 2.048 . S
Mg26 O35 2.048 . S
Mg26 O38 2.141 . S
C27 O28 1.313 . S
C27 O34 1.195 . S
O28 C27 1.313 . S
C29 O30 1.245 . S
C29 O38 1.289 . S
O30 C29 1.245 . S
C31 O32 1.245 . S
C31 O33 1.289 . S
O32 C31 1.245 . S
O33 Mg26 2.141 . S
O33 C31 1.289 . S
O34 Mg26 2.048 . S
O34 C27 1.195 . S
O35 Mg26 2.048 . S
O35 C36 1.195 . S
C36 O35 1.195 . S
C36 O37 1.313 . S
O37 C36 1.313 . S
O38 Mg26 2.141 . S
O38 C29 1.289 . S
Mg39 O46 2.141 . S
Mg39 O47 2.048 . S
Mg39 O48 2.048 . S
Mg39 O51 2.141 . S
C40 O41 1.313 . S
C40 O47 1.195 . S
O41 C40 1.313 . S
C42 O43 1.245 . S
C42 O51 1.289 . S
O43 C42 1.245 . S
C44 O45 1.245 . S
C44 O46 1.289 . S
O45 C44 1.245 . S
O46 Mg39 2.141 . S
O46 C44 1.289 . S
O47 Mg39 2.048 . S
O47 C40 1.195 . S
O48 Mg39 2.048 . S
O48 C49 1.195 . S
C49 O48 1.195 . S
C49 O50 1.313 . S
O50 C49 1.313 . S
O51 Mg39 2.141 . S
O51 C42 1.289 . S
Mg52 O59 2.141 . S
Mg52 O60 2.048 . S
Mg52 O61 2.048 . S
Mg52 O64 2.141 . S
C53 O54 1.313 . S
C53 O60 1.195 . S
O54 C53 1.313 . S
C55 O56 1.245 . S
C55 O64 1.289 . S
O56 C55 1.245 . S
C57 O58 1.245 . S
C57 O59 1.289 . S
O58 C57 1.245 . S
O59 Mg52 2.141 . S
O59 C57 1.289 . S
O60 Mg52 2.048 . S
O60 C53 1.195 . S
O61 Mg52 2.048 . S
O61 C62 1.195 . S
C62 O61 1.195 . S
C62 O63 1.313 . S
O63 C62 1.313 . S
O64 Mg52 2.141 . S
O64 C55 1.289 . S
Mg65 O72 2.141 . S
Mg65 O73 2.048 . S
Mg65 O74 2.048 . S
Mg65 O77 2.141 . S
C66 O67 1.313 . S
C66 O73 1.195 . S
O67 C66 1.313 . S
C68 O69 1.245 . S
C68 O77 1.289 . S
O69 C68 1.245 . S
C70 O71 1.245 . S
C70 O72 1.289 . S
O71 C70 1.245 . S
O72 Mg65 2.141 . S
O72 C70 1.289 . S
O73 Mg65 2.048 . S
O73 C66 1.195 . S
O74 Mg65 2.048 . S
O74 C75 1.195 . S
C75 O74 1.195 . S
C75 O76 1.313 . S
O76 C75 1.313 . S
O77 Mg65 2.141 . S
O77 C68 1.289 . S
Mg78 O85 2.141 . S
Mg78 O86 2.048 . S
Mg78 O87 2.048 . S
Mg78 O90 2.141 . S
C79 O80 1.313 . S
C79 O86 1.195 . S
O80 C79 1.313 . S
C81 O82 1.245 . S
C81 O90 1.289 . S
O82 C81 1.245 . S
C83 O84 1.245 . S
C83 O85 1.289 . S
O84 C83 1.245 . S
O85 Mg78 2.141 . S
O85 C83 1.289 . S
O86 Mg78 2.048 . S
O86 C79 1.195 . S
O87 Mg78 2.048 . S
O87 C88 1.195 . S
C88 O87 1.195 . S
C88 O89 1.313 . S
O89 C88 1.313 . S
O90 Mg78 2.141 . S
O90 C81 1.289 . S
Mg91 O98 2.141 . S
Mg91 O99 2.048 . S
Mg91 O100 2.048 . S
Mg91 O103 2.141 . S
C92 O93 1.313 . S
C92 O99 1.195 . S
O93 C92 1.313 . S
C94 O95 1.245 . S
C94 O103 1.289 . S
O95 C94 1.245 . S
C96 O97 1.245 . S
C96 O98 1.289 . S
O97 C96 1.245 . S
O98 Mg91 2.141 . S
O98 C96 1.289 . S
O99 Mg91 2.048 . S
O99 C92 1.195 . S
O100 Mg91 2.048 . S
O100 C101 1.195 . S
C101 O100 1.195 . S
C101 O102 1.313 . S
O102 C101 1.313 . S
O103 Mg91 2.141 . S
O103 C94 1.289 . S
Mg104 O111 2.141 . S
Mg104 O112 2.048 . S
Mg104 O113 2.048 . S
Mg104 O116 2.141 . S
C105 O106 1.313 . S
C105 O112 1.195 . S
O106 C105 1.313 . S
C107 O108 1.245 . S
C107 O116 1.289 . S
O108 C107 1.245 . S
C109 O110 1.245 . S
C109 O111 1.289 . S
O110 C109 1.245 . S
O111 Mg104 2.141 . S
O111 C109 1.289 . S
O112 Mg104 2.048 . S
O112 C105 1.195 . S
O113 Mg104 2.048 . S
O113 C114 1.195 . S
C114 O113 1.195 . S
C114 O115 1.313 . S
O115 C114 1.313 . S
O116 Mg104 2.141 . S
O116 C107 1.289 . S
Mg117 O124 2.141 . S
Mg117 O125 2.048 . S
Mg117 O126 2.048 . S
Mg117 O129 2.141 . S
C118 O119 1.313 . S
C118 O125 1.195 . S
O119 C118 1.313 . S
C120 O121 1.245 . S
C120 O129 1.289 . S
O121 C120 1.245 . S
C122 O123 1.245 . S
C122 O124 1.289 . S
O123 C122 1.245 . S
O124 Mg117 2.141 . S
O124 C122 1.289 . S
O125 Mg117 2.048 . S
O125 C118 1.195 . S
O126 Mg117 2.048 . S
O126 C127 1.195 . S
C127 O126 1.195 . S
C127 O128 1.313 . S
O128 C127 1.313 . S
O129 Mg117 2.141 . S
O129 C120 1.289 . S
Mg130 O137 2.141 . S
Mg130 O138 2.048 . S
Mg130 O139 2.048 . S
Mg130 O142 2.141 . S
C131 O132 1.313 . S
C131 O138 1.195 . S
O132 C131 1.313 . S
C133 O134 1.245 . S
C133 O142 1.289 . S
O134 C133 1.245 . S
C135 O136 1.245 . S
C135 O137 1.289 . S
O136 C135 1.245 . S
O137 Mg130 2.141 . S
O137 C135 1.289 . S
O138 Mg130 2.048 . S
O138 C131 1.195 . S
O139 Mg130 2.048 . S
O139 C140 1.195 . S
C140 O139 1.195 . S
C140 O141 1.313 . S
O141 C140 1.313 . S
O142 Mg130 2.141 . S
O142 C133 1.289 . S
Mg143 O150 2.141 . S
Mg143 O151 2.048 . S
Mg143 O152 2.048 . S
Mg143 O155 2.141 . S
C144 O145 1.313 . S
C144 O151 1.195 . S
O145 C144 1.313 . S
C146 O147 1.245 . S
C146 O155 1.289 . S
O147 C146 1.245 . S
C148 O149 1.245 . S
C148 O150 1.289 . S
O149 C148 1.245 . S
O150 Mg143 2.141 . S
O150 C148 1.289 . S
O151 Mg143 2.048 . S
O151 C144 1.195 . S
O152 Mg143 2.048 . S
O152 C153 1.195 . S
C153 O152 1.195 . S
C153 O154 1.313 . S
O154 C153 1.313 . S
O155 Mg143 2.141 . S
O155 C146 1.289 . S
Mg156 O163 2.141 . S
Mg156 O164 2.048 . S
Mg156 O165 2.048 . S
Mg156 O168 2.141 . S
C157 O158 1.313 . S
C157 O164 1.195 . S
O158 C157 1.313 . S
C159 O160 1.245 . S
C159 O168 1.289 . S
O160 C159 1.245 . S
C161 O162 1.245 . S
C161 O163 1.289 . S
O162 C161 1.245 . S
O163 Mg156 2.141 . S
O163 C161 1.289 . S
O164 Mg156 2.048 . S
O164 C157 1.195 . S
O165 Mg156 2.048 . S
O165 C166 1.195 . S
C166 O165 1.195 . S
C166 O167 1.313 . S
O167 C166 1.313 . S
O168 Mg156 2.141 . S
O168 C159 1.289 . S
Mg169 O176 2.141 . S
Mg169 O177 2.048 . S
Mg169 O178 2.048 . S
Mg169 O181 2.141 . S
C170 O171 1.313 . S
C170 O177 1.195 . S
O171 C170 1.313 . S
C172 O173 1.245 . S
C172 O181 1.289 . S
O173 C172 1.245 . S
C174 O175 1.245 . S
C174 O176 1.289 . S
O175 C174 1.245 . S
O176 Mg169 2.141 . S
O176 C174 1.289 . S
O177 Mg169 2.048 . S
O177 C170 1.195 . S
O178 Mg169 2.048 . S
O178 C179 1.195 . S
C179 O178 1.195 . S
C179 O180 1.313 . S
O180 C179 1.313 . S
O181 Mg169 2.141 . S
O181 C172 1.289 . S
Mg182 O189 2.141 . S
Mg182 O190 2.048 . S
Mg182 O191 2.048 . S
Mg182 O194 2.141 . S
C183 O184 1.313 . S
C183 O190 1.195 . S
O184 C183 1.313 . S
C185 O186 1.245 . S
C185 O194 1.289 . S
O186 C185 1.245 . S
C187 O188 1.245 . S
C187 O189 1.289 . S
O188 C187 1.245 . S
O189 Mg182 2.141 . S
O189 C187 1.289 . S
O190 Mg182 2.048 . S
O190 C183 1.195 . S
O191 Mg182 2.048 . S
O191 C192 1.195 . S
C192 O191 1.195 . S
C192 O193 1.313 . S
O193 C192 1.313 . S
O194 Mg182 2.141 . S
O194 C185 1.289 . S
Mg195 O202 2.141 . S
Mg195 O203 2.048 . S
Mg195 O204 2.048 . S
Mg195 O207 2.141 . S
C196 O197 1.313 . S
C196 O203 1.195 . S
O197 C196 1.313 . S
C198 O199 1.245 . S
C198 O207 1.289 . S
O199 C198 1.245 . S
C200 O201 1.245 . S
C200 O202 1.289 . S
O201 C200 1.245 . S
O202 Mg195 2.141 . S
O202 C200 1.289 . S
O203 Mg195 2.048 . S
O203 C196 1.195 . S
O204 Mg195 2.048 . S
O204 C205 1.195 . S
C205 O204 1.195 . S
C205 O206 1.313 . S
O206 C205 1.313 . S
O207 Mg195 2.141 . S
O207 C198 1.289 . S
H208 C216 0.929 . S
H209 C218 0.930 . S
H210 C220 0.930 . S
H211 C223 0.929 . S
H212 C226 0.930 . S
H213 C228 0.960 . S
H214 C228 0.960 . S
H215 C228 0.960 . S
C216 H208 0.929 . S
C216 C217 1.377 . S
C216 C218 1.384 . S
C217 C216 1.377 . S
C217 C223 1.390 . S
C218 H209 0.930 . S
C218 C216 1.384 . S
C218 C219 1.372 . S
C219 C218 1.372 . S
C219 C220 1.400 . S
C219 C224 1.490 . S
C220 H210 0.930 . S
C220 C219 1.400 . S
C220 C223 1.386 . S
H221 C237 0.930 . S
H222 C238 0.931 . S
C223 H211 0.929 . S
C223 C217 1.390 . S
C223 C220 1.386 . S
C224 C219 1.490 . S
C224 C226 1.395 . S
C224 C227 1.403 . S
H225 C231 0.930 . S
C226 H212 0.930 . S
C226 C224 1.395 . S
C226 C229 1.403 1_556 S
C227 C224 1.403 . S
C227 C228 1.524 . S
C227 C231 1.400 1_556 S
C228 H213 0.960 . S
C228 H214 0.960 . S
C228 H215 0.960 . S
C228 C227 1.524 . S
C229 C226 1.403 1_554 S
C229 C230 1.392 . S
C229 C233 1.495 . S
C230 C229 1.392 . S
C230 C231 1.385 . S
C230 C232 1.478 . S
C231 H225 0.930 . S
C231 C227 1.400 1_554 S
C231 C230 1.385 . S
C232 C230 1.478 . S
C232 C234 1.381 . S
C232 C238 1.383 . S
C233 C229 1.495 . S
C233 H239 0.959 . S
C233 H240 0.961 . S
C233 H241 0.960 . S
C234 C232 1.381 . S
C234 C235 1.394 . S
C234 H242 0.930 . S
C235 C234 1.394 . S
C235 C236 1.383 . S
C235 H243 0.929 . S
C236 C235 1.383 . S
C236 C237 1.377 . S
C237 H221 0.930 . S
C237 C236 1.377 . S
C237 C238 1.379 . S
C238 H222 0.931 . S
C238 C232 1.383 . S
C238 C237 1.379 . S
H239 C233 0.959 . S
H240 C233 0.961 . S
H241 C233 0.960 . S
H242 C234 0.930 . S
H243 C235 0.929 . S
H244 C252 0.929 . S
H245 C254 0.930 . S
H246 C256 0.930 . S
H247 C259 0.929 . S
H248 C262 0.930 . S
H249 C264 0.960 . S
H250 C264 0.960 . S
H251 C264 0.960 . S
C252 H244 0.929 . S
C252 C253 1.377 . S
C252 C254 1.384 . S
C253 C252 1.377 . S
C253 C259 1.390 . S
C254 H245 0.930 . S
C254 C252 1.384 . S
C254 C255 1.372 . S
C255 C254 1.372 . S
C255 C256 1.400 . S
C255 C260 1.490 . S
C256 H246 0.930 . S
C256 C255 1.400 . S
C256 C259 1.386 . S
H257 C273 0.930 . S
H258 C274 0.931 . S
C259 H247 0.929 . S
C259 C253 1.390 . S
C259 C256 1.386 . S
C260 C255 1.490 . S
C260 C262 1.395 . S
C260 C263 1.403 . S
H261 C267 0.930 . S
C262 H248 0.930 . S
C262 C260 1.395 . S
C262 C265 1.403 . S
C263 C260 1.403 . S
C263 C264 1.524 . S
C263 C267 1.400 . S
C264 H249 0.960 . S
C264 H250 0.960 . S
C264 H251 0.960 . S
C264 C263 1.524 . S
C265 C262 1.403 . S
C265 C266 1.392 . S
C265 C269 1.495 . S
C266 C265 1.392 . S
C266 C267 1.385 . S
C266 C268 1.478 . S
C267 H261 0.930 . S
C267 C263 1.400 . S
C267 C266 1.385 . S
C268 C266 1.478 . S
C268 C270 1.381 . S
C268 C274 1.383 . S
C269 C265 1.495 . S
C269 H275 0.959 . S
C269 H276 0.961 . S
C269 H277 0.960 . S
C270 C268 1.381 . S
C270 C271 1.394 . S
C270 H278 0.930 . S
C271 C270 1.394 . S
C271 C272 1.383 . S
C271 H279 0.929 . S
C272 C271 1.383 . S
C272 C273 1.377 . S
C273 H257 0.930 . S
C273 C272 1.377 . S
C273 C274 1.379 . S
C274 H258 0.931 . S
C274 C268 1.383 . S
C274 C273 1.379 . S
H275 C269 0.959 . S
H276 C269 0.961 . S
H277 C269 0.960 . S
H278 C270 0.930 . S
H279 C271 0.929 . S
H280 C288 0.929 . S
H281 C290 0.930 . S
H282 C292 0.930 . S
H283 C295 0.929 . S
H284 C298 0.930 . S
H285 C300 0.960 . S
H286 C300 0.960 . S
H287 C300 0.960 . S
C288 H280 0.929 . S
C288 C289 1.377 . S
C288 C290 1.384 . S
C289 C288 1.377 . S
C289 C295 1.390 . S
C290 H281 0.930 . S
C290 C288 1.384 . S
C290 C291 1.372 . S
C291 C290 1.372 . S
C291 C292 1.400 . S
C291 C296 1.490 . S
C292 H282 0.930 . S
C292 C291 1.400 . S
C292 C295 1.386 . S
H293 C309 0.930 . S
H294 C310 0.931 . S
C295 H283 0.929 . S
C295 C289 1.390 . S
C295 C292 1.386 . S
C296 C291 1.490 . S
C296 C298 1.395 . S
C296 C299 1.403 . S
H297 C303 0.930 . S
C298 H284 0.930 . S
C298 C296 1.395 . S
C298 C301 1.403 1_556 S
C299 C296 1.403 . S
C299 C300 1.524 . S
C299 C303 1.400 1_556 S
C300 H285 0.960 . S
C300 H286 0.960 . S
C300 H287 0.960 . S
C300 C299 1.524 . S
C301 C298 1.403 1_554 S
C301 C302 1.392 . S
C301 C305 1.495 . S
C302 C301 1.392 . S
C302 C303 1.385 . S
C302 C304 1.478 . S
C303 H297 0.930 . S
C303 C299 1.400 1_554 S
C303 C302 1.385 . S
C304 C302 1.478 . S
C304 C306 1.381 . S
C304 C310 1.383 . S
C305 C301 1.495 . S
C305 H311 0.959 . S
C305 H312 0.961 . S
C305 H313 0.960 . S
C306 C304 1.381 . S
C306 C307 1.394 . S
C306 H314 0.930 . S
C307 C306 1.394 . S
C307 C308 1.383 . S
C307 H315 0.929 . S
C308 C307 1.383 . S
C308 C309 1.377 . S
C309 H293 0.930 . S
C309 C308 1.377 . S
C309 C310 1.379 . S
C310 H294 0.931 . S
C310 C304 1.383 . S
C310 C309 1.379 . S
H311 C305 0.959 . S
H312 C305 0.961 . S
H313 C305 0.960 . S
H314 C306 0.930 . S
H315 C307 0.929 . S
H316 C324 0.929 . S
H317 C326 0.930 . S
H318 C328 0.930 . S
H319 C331 0.929 . S
H320 C334 0.930 . S
H321 C336 0.960 . S
H322 C336 0.960 . S
H323 C336 0.960 . S
C324 H316 0.929 . S
C324 C325 1.377 . S
C324 C326 1.384 . S
C325 C324 1.377 . S
C325 C331 1.390 . S
C326 H317 0.930 . S
C326 C324 1.384 . S
C326 C327 1.372 . S
C327 C326 1.372 . S
C327 C328 1.400 . S
C327 C332 1.490 . S
C328 H318 0.930 . S
C328 C327 1.400 . S
C328 C331 1.386 . S
H329 C345 0.930 . S
H330 C346 0.931 . S
C331 H319 0.929 . S
C331 C325 1.390 . S
C331 C328 1.386 . S
C332 C327 1.490 . S
C332 C334 1.395 . S
C332 C335 1.403 . S
H333 C339 0.930 . S
C334 H320 0.930 . S
C334 C332 1.395 . S
C334 C337 1.403 . S
C335 C332 1.403 . S
C335 C336 1.524 . S
C335 C339 1.400 . S
C336 H321 0.960 . S
C336 H322 0.960 . S
C336 H323 0.960 . S
C336 C335 1.524 . S
C337 C334 1.403 . S
C337 C338 1.392 . S
C337 C341 1.495 . S
C338 C337 1.392 . S
C338 C339 1.385 . S
C338 C340 1.478 . S
C339 H333 0.930 . S
C339 C335 1.400 . S
C339 C338 1.385 . S
C340 C338 1.478 . S
C340 C342 1.381 . S
C340 C346 1.383 . S
C341 C337 1.495 . S
C341 H347 0.959 . S
C341 H348 0.961 . S
C341 H349 0.960 . S
C342 C340 1.381 . S
C342 C343 1.394 . S
C342 H350 0.930 . S
C343 C342 1.394 . S
C343 C344 1.383 . S
C343 H351 0.929 . S
C344 C343 1.383 . S
C344 C345 1.377 . S
C345 H329 0.930 . S
C345 C344 1.377 . S
C345 C346 1.379 . S
C346 H330 0.931 . S
C346 C340 1.383 . S
C346 C345 1.379 . S
H347 C341 0.959 . S
H348 C341 0.961 . S
H349 C341 0.960 . S
H350 C342 0.930 . S
H351 C343 0.929 . S
H352 C360 0.929 . S
H353 C362 0.930 . S
H354 C364 0.930 . S
H355 C367 0.929 . S
H356 C370 0.930 . S
H357 C372 0.960 . S
H358 C372 0.960 . S
H359 C372 0.960 . S
C360 H352 0.929 . S
C360 C361 1.377 . S
C360 C362 1.384 . S
C361 C360 1.377 . S
C361 C367 1.390 . S
C362 H353 0.930 . S
C362 C360 1.384 . S
C362 C363 1.372 . S
C363 C362 1.372 . S
C363 C364 1.400 . S
C363 C368 1.490 . S
C364 H354 0.930 . S
C364 C363 1.400 . S
C364 C367 1.386 . S
H365 C381 0.930 . S
H366 C382 0.931 . S
C367 H355 0.929 . S
C367 C361 1.390 . S
C367 C364 1.386 . S
C368 C363 1.490 . S
C368 C370 1.395 . S
C368 C371 1.403 . S
H369 C375 0.930 . S
C370 H356 0.930 . S
C370 C368 1.395 . S
C370 C373 1.403 1_554 S
C371 C368 1.403 . S
C371 C372 1.524 . S
C371 C375 1.400 1_554 S
C372 H357 0.960 . S
C372 H358 0.960 . S
C372 H359 0.960 . S
C372 C371 1.524 . S
C373 C370 1.403 1_556 S
C373 C374 1.392 . S
C373 C377 1.495 . S
C374 C373 1.392 . S
C374 C375 1.385 . S
C374 C376 1.478 . S
C375 H369 0.930 . S
C375 C371 1.400 1_556 S
C375 C374 1.385 . S
C376 C374 1.478 . S
C376 C378 1.381 . S
C376 C382 1.383 . S
C377 C373 1.495 . S
C377 H383 0.959 . S
C377 H384 0.961 . S
C377 H385 0.960 . S
C378 C376 1.381 . S
C378 C379 1.394 . S
C378 H386 0.930 . S
C379 C378 1.394 . S
C379 C380 1.383 . S
C379 H387 0.929 . S
C380 C379 1.383 . S
C380 C381 1.377 . S
C381 H365 0.930 . S
C381 C380 1.377 . S
C381 C382 1.379 . S
C382 H366 0.931 . S
C382 C376 1.383 . S
C382 C381 1.379 . S
H383 C377 0.959 . S
H384 C377 0.961 . S
H385 C377 0.960 . S
H386 C378 0.930 . S
H387 C379 0.929 . S
H388 C396 0.929 . S
H389 C398 0.930 . S
H390 C400 0.930 . S
H391 C403 0.929 . S
H392 C406 0.930 . S
H393 C408 0.960 . S
H394 C408 0.960 . S
H395 C408 0.960 . S
C396 H388 0.929 . S
C396 C397 1.377 . S
C396 C398 1.384 . S
C397 C396 1.377 . S
C397 C403 1.390 . S
C398 H389 0.930 . S
C398 C396 1.384 . S
C398 C399 1.372 . S
C399 C398 1.372 . S
C399 C400 1.400 . S
C399 C404 1.490 . S
C400 H390 0.930 . S
C400 C399 1.400 . S
C400 C403 1.386 . S
H401 C417 0.930 . S
H402 C418 0.931 . S
C403 H391 0.929 . S
C403 C397 1.390 . S
C403 C400 1.386 . S
C404 C399 1.490 . S
C404 C406 1.395 . S
C404 C407 1.403 . S
H405 C411 0.930 . S
C406 H392 0.930 . S
C406 C404 1.395 . S
C406 C409 1.403 . S
C407 C404 1.403 . S
C407 C408 1.524 . S
C407 C411 1.400 . S
C408 H393 0.960 . S
C408 H394 0.960 . S
C408 H395 0.960 . S
C408 C407 1.524 . S
C409 C406 1.403 . S
C409 C410 1.392 . S
C409 C413 1.495 . S
C410 C409 1.392 . S
C410 C411 1.385 . S
C410 C412 1.478 . S
C411 H405 0.930 . S
C411 C407 1.400 . S
C411 C410 1.385 . S
C412 C410 1.478 . S
C412 C414 1.381 . S
C412 C418 1.383 . S
C413 C409 1.495 . S
C413 H419 0.959 . S
C413 H420 0.961 . S
C413 H421 0.960 . S
C414 C412 1.381 . S
C414 C415 1.394 . S
C414 H422 0.930 . S
C415 C414 1.394 . S
C415 C416 1.383 . S
C415 H423 0.929 . S
C416 C415 1.383 . S
C416 C417 1.377 . S
C417 H401 0.930 . S
C417 C416 1.377 . S
C417 C418 1.379 . S
C418 H402 0.931 . S
C418 C412 1.383 . S
C418 C417 1.379 . S
H419 C413 0.959 . S
H420 C413 0.961 . S
H421 C413 0.960 . S
H422 C414 0.930 . S
H423 C415 0.929 . S
H424 C432 0.929 . S
H425 C434 0.930 . S
H426 C436 0.930 . S
H427 C439 0.929 . S
H428 C442 0.930 . S
H429 C444 0.960 . S
H430 C444 0.960 . S
H431 C444 0.960 . S
C432 H424 0.929 . S
C432 C433 1.377 . S
C432 C434 1.384 . S
C433 C432 1.377 . S
C433 C439 1.390 . S
C434 H425 0.930 . S
C434 C432 1.384 . S
C434 C435 1.372 . S
C435 C434 1.372 . S
C435 C436 1.400 . S
C435 C440 1.490 . S
C436 H426 0.930 . S
C436 C435 1.400 . S
C436 C439 1.386 . S
H437 C453 0.930 . S
H438 C454 0.931 . S
C439 H427 0.929 . S
C439 C433 1.390 . S
C439 C436 1.386 . S
C440 C435 1.490 . S
C440 C442 1.395 . S
C440 C443 1.403 . S
H441 C447 0.930 . S
C442 H428 0.930 . S
C442 C440 1.395 . S
C442 C445 1.403 1_556 S
C443 C440 1.403 . S
C443 C444 1.524 . S
C443 C447 1.400 1_556 S
C444 H429 0.960 . S
C444 H430 0.960 . S
C444 H431 0.960 . S
C444 C443 1.524 . S
C445 C442 1.403 1_554 S
C445 C446 1.392 . S
C445 C449 1.495 . S
C446 C445 1.392 . S
C446 C447 1.385 . S
C446 C448 1.478 . S
C447 H441 0.930 . S
C447 C443 1.400 1_554 S
C447 C446 1.385 . S
C448 C446 1.478 . S
C448 C450 1.381 . S
C448 C454 1.383 . S
C449 C445 1.495 . S
C449 H455 0.959 . S
C449 H456 0.961 . S
C449 H457 0.960 . S
C450 C448 1.381 . S
C450 C451 1.394 . S
C450 H458 0.930 . S
C451 C450 1.394 . S
C451 C452 1.383 . S
C451 H459 0.929 . S
C452 C451 1.383 . S
C452 C453 1.377 . S
C453 H437 0.930 . S
C453 C452 1.377 . S
C453 C454 1.379 . S
C454 H438 0.931 . S
C454 C448 1.383 . S
C454 C453 1.379 . S
H455 C449 0.959 . S
H456 C449 0.961 . S
H457 C449 0.960 . S
H458 C450 0.930 . S
H459 C451 0.929 . S
H460 C468 0.929 . S
H461 C470 0.930 . S
H462 C472 0.930 . S
H463 C475 0.929 . S
H464 C478 0.930 . S
H465 C480 0.960 . S
H466 C480 0.960 . S
H467 C480 0.960 . S
C468 H460 0.929 . S
C468 C469 1.377 . S
C468 C470 1.384 . S
C469 C468 1.377 . S
C469 C475 1.390 . S
C470 H461 0.930 . S
C470 C468 1.384 . S
C470 C471 1.372 . S
C471 C470 1.372 . S
C471 C472 1.400 . S
C471 C476 1.490 . S
C472 H462 0.930 . S
C472 C471 1.400 . S
C472 C475 1.386 . S
H473 C489 0.930 . S
H474 C490 0.931 . S
C475 H463 0.929 . S
C475 C469 1.390 . S
C475 C472 1.386 . S
C476 C471 1.490 . S
C476 C478 1.395 . S
C476 C479 1.403 . S
H477 C483 0.930 . S
C478 H464 0.930 . S
C478 C476 1.395 . S
C478 C481 1.403 . S
C479 C476 1.403 . S
C479 C480 1.524 . S
C479 C483 1.400 . S
C480 H465 0.960 . S
C480 H466 0.960 . S
C480 H467 0.960 . S
C480 C479 1.524 . S
C481 C478 1.403 . S
C481 C482 1.392 . S
C481 C485 1.495 . S
C482 C481 1.392 . S
C482 C483 1.385 . S
C482 C484 1.478 . S
C483 H477 0.930 . S
C483 C479 1.400 . S
C483 C482 1.385 . S
C484 C482 1.478 . S
C484 C486 1.381 . S
C484 C490 1.383 . S
C485 C481 1.495 . S
C485 H491 0.959 . S
C485 H492 0.961 . S
C485 H493 0.960 . S
C486 C484 1.381 . S
C486 C487 1.394 . S
C486 H494 0.930 . S
C487 C486 1.394 . S
C487 C488 1.383 . S
C487 H495 0.929 . S
C488 C487 1.383 . S
C488 C489 1.377 . S
C489 H473 0.930 . S
C489 C488 1.377 . S
C489 C490 1.379 . S
C490 H474 0.931 . S
C490 C484 1.383 . S
C490 C489 1.379 . S
H491 C485 0.959 . S
H492 C485 0.961 . S
H493 C485 0.960 . S
H494 C486 0.930 . S
H495 C487 0.929 . S
H496 C504 0.929 . S
H497 C506 0.930 . S
H498 C508 0.930 . S
H499 C511 0.929 . S
H500 C514 0.930 . S
H501 C516 0.960 . S
H502 C516 0.960 . S
H503 C516 0.960 . S
C504 H496 0.929 . S
C504 C505 1.377 . S
C504 C506 1.384 . S
C505 C504 1.377 . S
C505 C511 1.390 . S
C506 H497 0.930 . S
C506 C504 1.384 . S
C506 C507 1.372 . S
C507 C506 1.372 . S
C507 C508 1.400 . S
C507 C512 1.490 . S
C508 H498 0.930 . S
C508 C507 1.400 . S
C508 C511 1.386 . S
H509 C525 0.930 . S
H510 C526 0.931 . S
C511 H499 0.929 . S
C511 C505 1.390 . S
C511 C508 1.386 . S
C512 C507 1.490 . S
C512 C514 1.395 . S
C512 C515 1.403 . S
H513 C519 0.930 . S
C514 H500 0.930 . S
C514 C512 1.395 . S
C514 C517 1.403 . S
C515 C512 1.403 . S
C515 C516 1.524 . S
C515 C519 1.400 . S
C516 H501 0.960 . S
C516 H502 0.960 . S
C516 H503 0.960 . S
C516 C515 1.524 . S
C517 C514 1.403 . S
C517 C518 1.392 . S
C517 C521 1.495 . S
C518 C517 1.392 . S
C518 C519 1.385 . S
C518 C520 1.478 . S
C519 H513 0.930 . S
C519 C515 1.400 . S
C519 C518 1.385 . S
C520 C518 1.478 . S
C520 C522 1.381 . S
C520 C526 1.383 . S
C521 C517 1.495 . S
C521 H527 0.959 . S
C521 H528 0.961 . S
C521 H529 0.960 . S
C522 C520 1.381 . S
C522 C523 1.394 . S
C522 H530 0.930 . S
C523 C522 1.394 . S
C523 C524 1.383 . S
C523 H531 0.929 . S
C524 C523 1.383 . S
C524 C525 1.377 . S
C525 H509 0.930 . S
C525 C524 1.377 . S
C525 C526 1.379 . S
C526 H510 0.931 . S
C526 C520 1.383 . S
C526 C525 1.379 . S
H527 C521 0.959 . S
H528 C521 0.961 . S
H529 C521 0.960 . S
H530 C522 0.930 . S
H531 C523 0.929 . S
H532 C540 0.929 . S
H533 C542 0.930 . S
H534 C544 0.930 . S
H535 C547 0.929 . S
H536 C550 0.930 . S
H537 C552 0.960 . S
H538 C552 0.960 . S
H539 C552 0.960 . S
C540 H532 0.929 . S
C540 C541 1.377 . S
C540 C542 1.384 . S
C541 C540 1.377 . S
C541 C547 1.390 . S
C542 H533 0.930 . S
C542 C540 1.384 . S
C542 C543 1.372 . S
C543 C542 1.372 . S
C543 C544 1.400 . S
C543 C548 1.490 . S
C544 H534 0.930 . S
C544 C543 1.400 . S
C544 C547 1.386 . S
H545 C561 0.930 . S
H546 C562 0.931 . S
C547 H535 0.929 . S
C547 C541 1.390 . S
C547 C544 1.386 . S
C548 C543 1.490 . S
C548 C550 1.395 . S
C548 C551 1.403 . S
H549 C555 0.930 . S
C550 H536 0.930 . S
C550 C548 1.395 . S
C550 C553 1.403 . S
C551 C548 1.403 . S
C551 C552 1.524 . S
C551 C555 1.400 . S
C552 H537 0.960 . S
C552 H538 0.960 . S
C552 H539 0.960 . S
C552 C551 1.524 . S
C553 C550 1.403 . S
C553 C554 1.392 . S
C553 C557 1.495 . S
C554 C553 1.392 . S
C554 C555 1.385 . S
C554 C556 1.478 . S
C555 H549 0.930 . S
C555 C551 1.400 . S
C555 C554 1.385 . S
C556 C554 1.478 . S
C556 C558 1.381 . S
C556 C562 1.383 . S
C557 C553 1.495 . S
C557 H563 0.959 . S
C557 H564 0.961 . S
C557 H565 0.960 . S
C558 C556 1.381 . S
C558 C559 1.394 . S
C558 H566 0.930 . S
C559 C558 1.394 . S
C559 C560 1.383 . S
C559 H567 0.929 . S
C560 C559 1.383 . S
C560 C561 1.377 . S
C561 H545 0.930 . S
C561 C560 1.377 . S
C561 C562 1.379 . S
C562 H546 0.931 . S
C562 C556 1.383 . S
C562 C561 1.379 . S
H563 C557 0.959 . S
H564 C557 0.961 . S
H565 C557 0.960 . S
H566 C558 0.930 . S
H567 C559 0.929 . S
H568 C576 0.929 . S
H569 C578 0.930 . S
H570 C580 0.930 . S
H571 C583 0.929 . S
H572 C586 0.930 . S
H573 C588 0.960 . S
H574 C588 0.960 . S
H575 C588 0.960 . S
C576 H568 0.929 . S
C576 C577 1.377 . S
C576 C578 1.384 . S
C577 C576 1.377 . S
C577 C583 1.390 . S
C578 H569 0.930 . S
C578 C576 1.384 . S
C578 C579 1.372 . S
C579 C578 1.372 . S
C579 C580 1.400 . S
C579 C584 1.490 . S
C580 H570 0.930 . S
C580 C579 1.400 . S
C580 C583 1.386 . S
H581 C597 0.930 . S
H582 C598 0.931 . S
C583 H571 0.929 . S
C583 C577 1.390 . S
C583 C580 1.386 . S
C584 C579 1.490 . S
C584 C586 1.395 . S
C584 C587 1.403 . S
H585 C591 0.930 . S
C586 H572 0.930 . S
C586 C584 1.395 . S
C586 C589 1.403 . S
C587 C584 1.403 . S
C587 C588 1.524 . S
C587 C591 1.400 . S
C588 H573 0.960 . S
C588 H574 0.960 . S
C588 H575 0.960 . S
C588 C587 1.524 . S
C589 C586 1.403 . S
C589 C590 1.392 . S
C589 C593 1.495 . S
C590 C589 1.392 . S
C590 C591 1.385 . S
C590 C592 1.478 . S
C591 H585 0.930 . S
C591 C587 1.400 . S
C591 C590 1.385 . S
C592 C590 1.478 . S
C592 C594 1.381 . S
C592 C598 1.383 . S
C593 C589 1.495 . S
C593 H599 0.959 . S
C593 H600 0.961 . S
C593 H601 0.960 . S
C594 C592 1.381 . S
C594 C595 1.394 . S
C594 H602 0.930 . S
C595 C594 1.394 . S
C595 C596 1.383 . S
C595 H603 0.929 . S
C596 C595 1.383 . S
C596 C597 1.377 . S
C597 H581 0.930 . S
C597 C596 1.377 . S
C597 C598 1.379 . S
C598 H582 0.931 . S
C598 C592 1.383 . S
C598 C597 1.379 . S
H599 C593 0.959 . S
H600 C593 0.961 . S
H601 C593 0.960 . S
H602 C594 0.930 . S
H603 C595 0.929 . S
H604 C612 0.929 . S
H605 C614 0.930 . S
H606 C616 0.930 . S
H607 C619 0.929 . S
H608 C622 0.930 . S
H609 C624 0.960 . S
H610 C624 0.960 . S
H611 C624 0.960 . S
C612 H604 0.929 . S
C612 C613 1.377 . S
C612 C614 1.384 . S
C613 C612 1.377 . S
C613 C619 1.390 . S
C614 H605 0.930 . S
C614 C612 1.384 . S
C614 C615 1.372 . S
C615 C614 1.372 . S
C615 C616 1.400 . S
C615 C620 1.490 . S
C616 H606 0.930 . S
C616 C615 1.400 . S
C616 C619 1.386 . S
H617 C633 0.930 . S
H618 C634 0.931 . S
C619 H607 0.929 . S
C619 C613 1.390 . S
C619 C616 1.386 . S
C620 C615 1.490 . S
C620 C622 1.395 . S
C620 C623 1.403 . S
H621 C627 0.930 . S
C622 H608 0.930 . S
C622 C620 1.395 . S
C622 C625 1.403 . S
C623 C620 1.403 . S
C623 C624 1.524 . S
C623 C627 1.400 . S
C624 H609 0.960 . S
C624 H610 0.960 . S
C624 H611 0.960 . S
C624 C623 1.524 . S
C625 C622 1.403 . S
C625 C626 1.392 . S
C625 C629 1.495 . S
C626 C625 1.392 . S
C626 C627 1.385 . S
C626 C628 1.478 . S
C627 H621 0.930 . S
C627 C623 1.400 . S
C627 C626 1.385 . S
C628 C626 1.478 . S
C628 C630 1.381 . S
C628 C634 1.383 . S
C629 C625 1.495 . S
C629 H635 0.959 . S
C629 H636 0.961 . S
C629 H637 0.960 . S
C630 C628 1.381 . S
C630 C631 1.394 . S
C630 H638 0.930 . S
C631 C630 1.394 . S
C631 C632 1.383 . S
C631 H639 0.929 . S
C632 C631 1.383 . S
C632 C633 1.377 . S
C633 H617 0.930 . S
C633 C632 1.377 . S
C633 C634 1.379 . S
C634 H618 0.931 . S
C634 C628 1.383 . S
C634 C633 1.379 . S
H635 C629 0.959 . S
H636 C629 0.961 . S
H637 C629 0.960 . S
H638 C630 0.930 . S
H639 C631 0.929 . S
H640 C648 0.929 . S
H641 C650 0.930 . S
H642 C652 0.930 . S
H643 C655 0.929 . S
H644 C658 0.930 . S
H645 C660 0.960 . S
H646 C660 0.960 . S
H647 C660 0.960 . S
C648 H640 0.929 . S
C648 C649 1.377 . S
C648 C650 1.384 . S
C649 C648 1.377 . S
C649 C655 1.390 . S
C650 H641 0.930 . S
C650 C648 1.384 . S
C650 C651 1.372 . S
C651 C650 1.372 . S
C651 C652 1.400 . S
C651 C656 1.490 . S
C652 H642 0.930 . S
C652 C651 1.400 . S
C652 C655 1.386 . S
H653 C669 0.930 . S
H654 C670 0.931 . S
C655 H643 0.929 . S
C655 C649 1.390 . S
C655 C652 1.386 . S
C656 C651 1.490 . S
C656 C658 1.395 . S
C656 C659 1.403 . S
H657 C663 0.930 . S
C658 H644 0.930 . S
C658 C656 1.395 . S
C658 C661 1.403 . S
C659 C656 1.403 . S
C659 C660 1.524 . S
C659 C663 1.400 . S
C660 H645 0.960 . S
C660 H646 0.960 . S
C660 H647 0.960 . S
C660 C659 1.524 . S
C661 C658 1.403 . S
C661 C662 1.392 . S
C661 C665 1.495 . S
C662 C661 1.392 . S
C662 C663 1.385 . S
C662 C664 1.478 . S
C663 H657 0.930 . S
C663 C659 1.400 . S
C663 C662 1.385 . S
C664 C662 1.478 . S
C664 C666 1.381 . S
C664 C670 1.383 . S
C665 C661 1.495 . S
C665 H671 0.959 . S
C665 H672 0.961 . S
C665 H673 0.960 . S
C666 C664 1.381 . S
C666 C667 1.394 . S
C666 H674 0.930 . S
C667 C666 1.394 . S
C667 C668 1.383 . S
C667 H675 0.929 . S
C668 C667 1.383 . S
C668 C669 1.377 . S
C669 H653 0.930 . S
C669 C668 1.377 . S
C669 C670 1.379 . S
C670 H654 0.931 . S
C670 C664 1.383 . S
C670 C669 1.379 . S
H671 C665 0.959 . S
H672 C665 0.961 . S
H673 C665 0.960 . S
H674 C666 0.930 . S
H675 C667 0.929 . S
H676 C684 0.929 . S
H677 C686 0.930 . S
H678 C688 0.930 . S
H679 C691 0.929 . S
H680 C694 0.930 . S
H681 C696 0.960 . S
H682 C696 0.960 . S
H683 C696 0.960 . S
C684 H676 0.929 . S
C684 C685 1.377 . S
C684 C686 1.384 . S
C685 C684 1.377 . S
C685 C691 1.390 . S
C686 H677 0.930 . S
C686 C684 1.384 . S
C686 C687 1.372 . S
C687 C686 1.372 . S
C687 C688 1.400 . S
C687 C692 1.490 . S
C688 H678 0.930 . S
C688 C687 1.400 . S
C688 C691 1.386 . S
H689 C705 0.930 . S
H690 C706 0.931 . S
C691 H679 0.929 . S
C691 C685 1.390 . S
C691 C688 1.386 . S
C692 C687 1.490 . S
C692 C694 1.395 . S
C692 C695 1.403 . S
H693 C699 0.930 . S
C694 H680 0.930 . S
C694 C692 1.395 . S
C694 C697 1.403 . S
C695 C692 1.403 . S
C695 C696 1.524 . S
C695 C699 1.400 . S
C696 H681 0.960 . S
C696 H682 0.960 . S
C696 H683 0.960 . S
C696 C695 1.524 . S
C697 C694 1.403 . S
C697 C698 1.392 . S
C697 C701 1.495 . S
C698 C697 1.392 . S
C698 C699 1.385 . S
C698 C700 1.478 . S
C699 H693 0.930 . S
C699 C695 1.400 . S
C699 C698 1.385 . S
C700 C698 1.478 . S
C700 C702 1.381 . S
C700 C706 1.383 . S
C701 C697 1.495 . S
C701 H707 0.959 . S
C701 H708 0.961 . S
C701 H709 0.960 . S
C702 C700 1.381 . S
C702 C703 1.394 . S
C702 H710 0.930 . S
C703 C702 1.394 . S
C703 C704 1.383 . S
C703 H711 0.929 . S
C704 C703 1.383 . S
C704 C705 1.377 . S
C705 H689 0.930 . S
C705 C704 1.377 . S
C705 C706 1.379 . S
C706 H690 0.931 . S
C706 C700 1.383 . S
C706 C705 1.379 . S
H707 C701 0.959 . S
H708 C701 0.961 . S
H709 C701 0.960 . S
H710 C702 0.930 . S
H711 C703 0.929 . S
H712 C720 0.929 . S
H713 C722 0.930 . S
H714 C724 0.930 . S
H715 C727 0.929 . S
H716 C730 0.930 . S
H717 C732 0.960 . S
H718 C732 0.960 . S
H719 C732 0.960 . S
C720 H712 0.929 . S
C720 C721 1.377 . S
C720 C722 1.384 . S
C721 C720 1.377 . S
C721 C727 1.390 . S
C722 H713 0.930 . S
C722 C720 1.384 . S
C722 C723 1.372 . S
C723 C722 1.372 . S
C723 C724 1.400 . S
C723 C728 1.490 . S
C724 H714 0.930 . S
C724 C723 1.400 . S
C724 C727 1.386 . S
H725 C741 0.930 . S
H726 C742 0.931 . S
C727 H715 0.929 . S
C727 C721 1.390 . S
C727 C724 1.386 . S
C728 C723 1.490 . S
C728 C730 1.395 . S
C728 C731 1.403 . S
H729 C735 0.930 . S
C730 H716 0.930 . S
C730 C728 1.395 . S
C730 C733 1.403 . S
C731 C728 1.403 . S
C731 C732 1.524 . S
C731 C735 1.400 . S
C732 H717 0.960 . S
C732 H718 0.960 . S
C732 H719 0.960 . S
C732 C731 1.524 . S
C733 C730 1.403 . S
C733 C734 1.392 . S
C733 C737 1.495 . S
C734 C733 1.392 . S
C734 C735 1.385 . S
C734 C736 1.478 . S
C735 H729 0.930 . S
C735 C731 1.400 . S
C735 C734 1.385 . S
C736 C734 1.478 . S
C736 C738 1.381 . S
C736 C742 1.383 . S
C737 C733 1.495 . S
C737 H743 0.959 . S
C737 H744 0.961 . S
C737 H745 0.960 . S
C738 C736 1.381 . S
C738 C739 1.394 . S
C738 H746 0.930 . S
C739 C738 1.394 . S
C739 C740 1.383 . S
C739 H747 0.929 . S
C740 C739 1.383 . S
C740 C741 1.377 . S
C741 H725 0.930 . S
C741 C740 1.377 . S
C741 C742 1.379 . S
C742 H726 0.931 . S
C742 C736 1.383 . S
C742 C741 1.379 . S
H743 C737 0.959 . S
H744 C737 0.961 . S
H745 C737 0.960 . S
H746 C738 0.930 . S
H747 C739 0.929 . S
H748 C756 0.929 . S
H749 C758 0.930 . S
H750 C760 0.930 . S
H751 C763 0.929 . S
H752 C766 0.930 . S
H753 C768 0.960 . S
H754 C768 0.960 . S
H755 C768 0.960 . S
C756 H748 0.929 . S
C756 C757 1.377 . S
C756 C758 1.384 . S
C757 C756 1.377 . S
C757 C763 1.390 . S
C758 H749 0.930 . S
C758 C756 1.384 . S
C758 C759 1.372 . S
C759 C758 1.372 . S
C759 C760 1.400 . S
C759 C764 1.490 . S
C760 H750 0.930 . S
C760 C759 1.400 . S
C760 C763 1.386 . S
H761 C777 0.930 . S
H762 C778 0.931 . S
C763 H751 0.929 . S
C763 C757 1.390 . S
C763 C760 1.386 . S
C764 C759 1.490 . S
C764 C766 1.395 . S
C764 C767 1.403 . S
H765 C771 0.930 . S
C766 H752 0.930 . S
C766 C764 1.395 . S
C766 C769 1.403 . S
C767 C764 1.403 . S
C767 C768 1.524 . S
C767 C771 1.400 . S
C768 H753 0.960 . S
C768 H754 0.960 . S
C768 H755 0.960 . S
C768 C767 1.524 . S
C769 C766 1.403 . S
C769 C770 1.392 . S
C769 C773 1.495 . S
C770 C769 1.392 . S
C770 C771 1.385 . S
C770 C772 1.478 . S
C771 H765 0.930 . S
C771 C767 1.400 . S
C771 C770 1.385 . S
C772 C770 1.478 . S
C772 C774 1.381 . S
C772 C778 1.383 . S
C773 C769 1.495 . S
C773 H779 0.959 . S
C773 H780 0.961 . S
C773 H781 0.960 . S
C774 C772 1.381 . S
C774 C775 1.394 . S
C774 H782 0.930 . S
C775 C774 1.394 . S
C775 C776 1.383 . S
C775 H783 0.929 . S
C776 C775 1.383 . S
C776 C777 1.377 . S
C777 H761 0.930 . S
C777 C776 1.377 . S
C777 C778 1.379 . S
C778 H762 0.931 . S
C778 C772 1.383 . S
C778 C777 1.379 . S
H779 C773 0.959 . S
H780 C773 0.961 . S
H781 C773 0.960 . S
H782 C774 0.930 . S
H783 C775 0.929 . S
H784 C792 0.929 . S
H785 C794 0.930 . S
H786 C796 0.930 . S
H787 C799 0.929 . S
H788 C802 0.930 . S
H789 C804 0.960 . S
H790 C804 0.960 . S
H791 C804 0.960 . S
C792 H784 0.929 . S
C792 C793 1.377 . S
C792 C794 1.384 . S
C793 C792 1.377 . S
C793 C799 1.390 . S
C794 H785 0.930 . S
C794 C792 1.384 . S
C794 C795 1.372 . S
C795 C794 1.372 . S
C795 C796 1.400 . S
C795 C800 1.490 . S
C796 H786 0.930 . S
C796 C795 1.400 . S
C796 C799 1.386 . S
H797 C813 0.930 . S
H798 C814 0.931 . S
C799 H787 0.929 . S
C799 C793 1.390 . S
C799 C796 1.386 . S
C800 C795 1.490 . S
C800 C802 1.395 . S
C800 C803 1.403 . S
H801 C807 0.930 . S
C802 H788 0.930 . S
C802 C800 1.395 . S
C802 C805 1.403 . S
C803 C800 1.403 . S
C803 C804 1.524 . S
C803 C807 1.400 . S
C804 H789 0.960 . S
C804 H790 0.960 . S
C804 H791 0.960 . S
C804 C803 1.524 . S
C805 C802 1.403 . S
C805 C806 1.392 . S
C805 C809 1.495 . S
C806 C805 1.392 . S
C806 C807 1.385 . S
C806 C808 1.478 . S
C807 H801 0.930 . S
C807 C803 1.400 . S
C807 C806 1.385 . S
C808 C806 1.478 . S
C808 C810 1.381 . S
C808 C814 1.383 . S
C809 C805 1.495 . S
C809 H815 0.959 . S
C809 H816 0.961 . S
C809 H817 0.960 . S
C810 C808 1.381 . S
C810 C811 1.394 . S
C810 H818 0.930 . S
C811 C810 1.394 . S
C811 C812 1.383 . S
C811 H819 0.929 . S
C812 C811 1.383 . S
C812 C813 1.377 . S
C813 H797 0.930 . S
C813 C812 1.377 . S
C813 C814 1.379 . S
C814 H798 0.931 . S
C814 C808 1.383 . S
C814 C813 1.379 . S
H815 C809 0.959 . S
H816 C809 0.961 . S
H817 C809 0.960 . S
H818 C810 0.930 . S
H819 C811 0.929 . S
H820 C828 0.929 . S
H821 C830 0.930 . S
H822 C832 0.930 . S
H823 C835 0.929 . S
H824 C838 0.930 . S
H825 C840 0.960 . S
H826 C840 0.960 . S
H827 C840 0.960 . S
C828 H820 0.929 . S
C828 C829 1.377 . S
C828 C830 1.384 . S
C829 C828 1.377 . S
C829 C835 1.390 . S
C830 H821 0.930 . S
C830 C828 1.384 . S
C830 C831 1.372 . S
C831 C830 1.372 . S
C831 C832 1.400 . S
C831 C836 1.490 . S
C832 H822 0.930 . S
C832 C831 1.400 . S
C832 C835 1.386 . S
H833 C849 0.930 . S
H834 C850 0.931 . S
C835 H823 0.929 . S
C835 C829 1.390 . S
C835 C832 1.386 . S
C836 C831 1.490 . S
C836 C838 1.395 . S
C836 C839 1.403 . S
H837 C843 0.930 . S
C838 H824 0.930 . S
C838 C836 1.395 . S
C838 C841 1.403 . S
C839 C836 1.403 . S
C839 C840 1.524 . S
C839 C843 1.400 . S
C840 H825 0.960 . S
C840 H826 0.960 . S
C840 H827 0.960 . S
C840 C839 1.524 . S
C841 C838 1.403 . S
C841 C842 1.392 . S
C841 C845 1.495 . S
C842 C841 1.392 . S
C842 C843 1.385 . S
C842 C844 1.478 . S
C843 H837 0.930 . S
C843 C839 1.400 . S
C843 C842 1.385 . S
C844 C842 1.478 . S
C844 C846 1.381 . S
C844 C850 1.383 . S
C845 C841 1.495 . S
C845 H851 0.959 . S
C845 H852 0.961 . S
C845 H853 0.960 . S
C846 C844 1.381 . S
C846 C847 1.394 . S
C846 H854 0.930 . S
C847 C846 1.394 . S
C847 C848 1.383 . S
C847 H855 0.929 . S
C848 C847 1.383 . S
C848 C849 1.377 . S
C849 H833 0.930 . S
C849 C848 1.377 . S
C849 C850 1.379 . S
C850 H834 0.931 . S
C850 C844 1.383 . S
C850 C849 1.379 . S
H851 C845 0.959 . S
H852 C845 0.961 . S
H853 C845 0.960 . S
H854 C846 0.930 . S
H855 C847 0.929 . S
H856 C864 0.929 . S
H857 C866 0.930 . S
H858 C868 0.930 . S
H859 C871 0.929 . S
H860 C874 0.930 . S
H861 C876 0.960 . S
H862 C876 0.960 . S
H863 C876 0.960 . S
C864 H856 0.929 . S
C864 C865 1.377 . S
C864 C866 1.384 . S
C865 C864 1.377 . S
C865 C871 1.390 . S
C866 H857 0.930 . S
C866 C864 1.384 . S
C866 C867 1.372 . S
C867 C866 1.372 . S
C867 C868 1.400 . S
C867 C872 1.490 . S
C868 H858 0.930 . S
C868 C867 1.400 . S
C868 C871 1.386 . S
H869 C885 0.930 . S
H870 C886 0.931 . S
C871 H859 0.929 . S
C871 C865 1.390 . S
C871 C868 1.386 . S
C872 C867 1.490 . S
C872 C874 1.395 . S
C872 C875 1.403 . S
H873 C879 0.930 . S
C874 H860 0.930 . S
C874 C872 1.395 . S
C874 C877 1.403 . S
C875 C872 1.403 . S
C875 C876 1.524 . S
C875 C879 1.400 . S
C876 H861 0.960 . S
C876 H862 0.960 . S
C876 H863 0.960 . S
C876 C875 1.524 . S
C877 C874 1.403 . S
C877 C878 1.392 . S
C877 C881 1.495 . S
C878 C877 1.392 . S
C878 C879 1.385 . S
C878 C880 1.478 . S
C879 H873 0.930 . S
C879 C875 1.400 . S
C879 C878 1.385 . S
C880 C878 1.478 . S
C880 C882 1.381 . S
C880 C886 1.383 . S
C881 C877 1.495 . S
C881 H887 0.959 . S
C881 H888 0.961 . S
C881 H889 0.960 . S
C882 C880 1.381 . S
C882 C883 1.394 . S
C882 H890 0.930 . S
C883 C882 1.394 . S
C883 C884 1.383 . S
C883 H891 0.929 . S
C884 C883 1.383 . S
C884 C885 1.377 . S
C885 H869 0.930 . S
C885 C884 1.377 . S
C885 C886 1.379 . S
C886 H870 0.931 . S
C886 C880 1.383 . S
C886 C885 1.379 . S
H887 C881 0.959 . S
H888 C881 0.961 . S
H889 C881 0.960 . S
H890 C882 0.930 . S
H891 C883 0.929 . S
H892 C900 0.929 . S
H893 C902 0.930 . S
H894 C904 0.930 . S
H895 C907 0.929 . S
H896 C910 0.930 . S
H897 C912 0.960 . S
H898 C912 0.960 . S
H899 C912 0.960 . S
C900 H892 0.929 . S
C900 C901 1.377 . S
C900 C902 1.384 . S
C901 C900 1.377 . S
C901 C907 1.390 . S
C902 H893 0.930 . S
C902 C900 1.384 . S
C902 C903 1.372 . S
C903 C902 1.372 . S
C903 C904 1.400 . S
C903 C908 1.490 . S
C904 H894 0.930 . S
C904 C903 1.400 . S
C904 C907 1.386 . S
H905 C921 0.930 . S
H906 C922 0.931 . S
C907 H895 0.929 . S
C907 C901 1.390 . S
C907 C904 1.386 . S
C908 C903 1.490 . S
C908 C910 1.395 . S
C908 C911 1.403 . S
H909 C915 0.930 . S
C910 H896 0.930 . S
C910 C908 1.395 . S
C910 C913 1.403 . S
C911 C908 1.403 . S
C911 C912 1.524 . S
C911 C915 1.400 . S
C912 H897 0.960 . S
C912 H898 0.960 . S
C912 H899 0.960 . S
C912 C911 1.524 . S
C913 C910 1.403 . S
C913 C914 1.392 . S
C913 C917 1.495 . S
C914 C913 1.392 . S
C914 C915 1.385 . S
C914 C916 1.478 . S
C915 H909 0.930 . S
C915 C911 1.400 . S
C915 C914 1.385 . S
C916 C914 1.478 . S
C916 C918 1.381 . S
C916 C922 1.383 . S
C917 C913 1.495 . S
C917 H923 0.959 . S
C917 H924 0.961 . S
C917 H925 0.960 . S
C918 C916 1.381 . S
C918 C919 1.394 . S
C918 H926 0.930 . S
C919 C918 1.394 . S
C919 C920 1.383 . S
C919 H927 0.929 . S
C920 C919 1.383 . S
C920 C921 1.377 . S
C921 H905 0.930 . S
C921 C920 1.377 . S
C921 C922 1.379 . S
C922 H906 0.931 . S
C922 C916 1.383 . S
C922 C921 1.379 . S
H923 C917 0.959 . S
H924 C917 0.961 . S
H925 C917 0.960 . S
H926 C918 0.930 . S
H927 C919 0.929 . S
H928 C936 0.929 . S
H929 C938 0.930 . S
H930 C940 0.930 . S
H931 C943 0.929 . S
H932 C946 0.930 . S
H933 C948 0.960 . S
H934 C948 0.960 . S
H935 C948 0.960 . S
C936 H928 0.929 . S
C936 C937 1.377 . S
C936 C938 1.384 . S
C937 C936 1.377 . S
C937 C943 1.390 . S
C938 H929 0.930 . S
C938 C936 1.384 . S
C938 C939 1.372 . S
C939 C938 1.372 . S
C939 C940 1.400 . S
C939 C944 1.490 . S
C940 H930 0.930 . S
C940 C939 1.400 . S
C940 C943 1.386 . S
H941 C957 0.930 . S
H942 C958 0.931 . S
C943 H931 0.929 . S
C943 C937 1.390 . S
C943 C940 1.386 . S
C944 C939 1.490 . S
C944 C946 1.395 . S
C944 C947 1.403 . S
H945 C951 0.930 . S
C946 H932 0.930 . S
C946 C944 1.395 . S
C946 C949 1.403 . S
C947 C944 1.403 . S
C947 C948 1.524 . S
C947 C951 1.400 . S
C948 H933 0.960 . S
C948 H934 0.960 . S
C948 H935 0.960 . S
C948 C947 1.524 . S
C949 C946 1.403 . S
C949 C950 1.392 . S
C949 C953 1.495 . S
C950 C949 1.392 . S
C950 C951 1.385 . S
C950 C952 1.478 . S
C951 H945 0.930 . S
C951 C947 1.400 . S
C951 C950 1.385 . S
C952 C950 1.478 . S
C952 C954 1.381 . S
C952 C958 1.383 . S
C953 C949 1.495 . S
C953 H959 0.959 . S
C953 H960 0.961 . S
C953 H961 0.960 . S
C954 C952 1.381 . S
C954 C955 1.394 . S
C954 H962 0.930 . S
C955 C954 1.394 . S
C955 C956 1.383 . S
C955 H963 0.929 . S
C956 C955 1.383 . S
C956 C957 1.377 . S
C957 H941 0.930 . S
C957 C956 1.377 . S
C957 C958 1.379 . S
C958 H942 0.931 . S
C958 C952 1.383 . S
C958 C957 1.379 . S
H959 C953 0.959 . S
H960 C953 0.961 . S
H961 C953 0.960 . S
H962 C954 0.930 . S
H963 C955 0.929 . S
H964 C972 0.929 . S
H965 C974 0.930 . S
H966 C976 0.930 . S
H967 C979 0.929 . S
H968 C982 0.930 . S
H969 C984 0.960 . S
H970 C984 0.960 . S
H971 C984 0.960 . S
C972 H964 0.929 . S
C972 C973 1.377 . S
C972 C974 1.384 . S
C973 C972 1.377 . S
C973 C979 1.390 . S
C974 H965 0.930 . S
C974 C972 1.384 . S
C974 C975 1.372 . S
C975 C974 1.372 . S
C975 C976 1.400 . S
C975 C980 1.490 . S
C976 H966 0.930 . S
C976 C975 1.400 . S
C976 C979 1.386 . S
H977 C993 0.930 . S
H978 C994 0.931 . S
C979 H967 0.929 . S
C979 C973 1.390 . S
C979 C976 1.386 . S
C980 C975 1.490 . S
C980 C982 1.395 . S
C980 C983 1.403 . S
H981 C987 0.930 . S
C982 H968 0.930 . S
C982 C980 1.395 . S
C982 C985 1.403 . S
C983 C980 1.403 . S
C983 C984 1.524 . S
C983 C987 1.400 . S
C984 H969 0.960 . S
C984 H970 0.960 . S
C984 H971 0.960 . S
C984 C983 1.524 . S
C985 C982 1.403 . S
C985 C986 1.392 . S
C985 C989 1.495 . S
C986 C985 1.392 . S
C986 C987 1.385 . S
C986 C988 1.478 . S
C987 H981 0.930 . S
C987 C983 1.400 . S
C987 C986 1.385 . S
C988 C986 1.478 . S
C988 C990 1.381 . S
C988 C994 1.383 . S
C989 C985 1.495 . S
C989 H995 0.959 . S
C989 H996 0.961 . S
C989 H997 0.960 . S
C990 C988 1.381 . S
C990 C991 1.394 . S
C990 H998 0.930 . S
C991 C990 1.394 . S
C991 C992 1.383 . S
C991 H999 0.929 . S
C992 C991 1.383 . S
C992 C993 1.377 . S
C993 H977 0.930 . S
C993 C992 1.377 . S
C993 C994 1.379 . S
C994 H978 0.931 . S
C994 C988 1.383 . S
C994 C993 1.379 . S
H995 C989 0.959 . S
H996 C989 0.961 . S
H997 C989 0.960 . S
H998 C990 0.930 . S
H999 C991 0.929 . S
H1000 C1008 0.929 . S
H1001 C1010 0.930 . S
H1002 C1012 0.930 . S
H1003 C1015 0.929 . S
H1004 C1018 0.930 . S
H1005 C1020 0.960 . S
H1006 C1020 0.960 . S
H1007 C1020 0.960 . S
C1008 H1000 0.929 . S
C1008 C1009 1.377 . S
C1008 C1010 1.384 . S
C1009 C1008 1.377 . S
C1009 C1015 1.390 . S
C1010 H1001 0.930 . S
C1010 C1008 1.384 . S
C1010 C1011 1.372 . S
C1011 C1010 1.372 . S
C1011 C1012 1.400 . S
C1011 C1016 1.490 . S
C1012 H1002 0.930 . S
C1012 C1011 1.400 . S
C1012 C1015 1.386 . S
H1013 C1029 0.930 . S
H1014 C1030 0.931 . S
C1015 H1003 0.929 . S
C1015 C1009 1.390 . S
C1015 C1012 1.386 . S
C1016 C1011 1.490 . S
C1016 C1018 1.395 . S
C1016 C1019 1.403 . S
H1017 C1023 0.930 . S
C1018 H1004 0.930 . S
C1018 C1016 1.395 . S
C1018 C1021 1.403 . S
C1019 C1016 1.403 . S
C1019 C1020 1.524 . S
C1019 C1023 1.400 . S
C1020 H1005 0.960 . S
C1020 H1006 0.960 . S
C1020 H1007 0.960 . S
C1020 C1019 1.524 . S
C1021 C1018 1.403 . S
C1021 C1022 1.392 . S
C1021 C1025 1.495 . S
C1022 C1021 1.392 . S
C1022 C1023 1.385 . S
C1022 C1024 1.478 . S
C1023 H1017 0.930 . S
C1023 C1019 1.400 . S
C1023 C1022 1.385 . S
C1024 C1022 1.478 . S
C1024 C1026 1.381 . S
C1024 C1030 1.383 . S
C1025 C1021 1.495 . S
C1025 H1031 0.959 . S
C1025 H1032 0.961 . S
C1025 H1033 0.960 . S
C1026 C1024 1.381 . S
C1026 C1027 1.394 . S
C1026 H1034 0.930 . S
C1027 C1026 1.394 . S
C1027 C1028 1.383 . S
C1027 H1035 0.929 . S
C1028 C1027 1.383 . S
C1028 C1029 1.377 . S
C1029 H1013 0.930 . S
C1029 C1028 1.377 . S
C1029 C1030 1.379 . S
C1030 H1014 0.931 . S
C1030 C1024 1.383 . S
C1030 C1029 1.379 . S
H1031 C1025 0.959 . S
H1032 C1025 0.961 . S
H1033 C1025 0.960 . S
H1034 C1026 0.930 . S
H1035 C1027 0.929 . S
H1036 C1044 0.929 . S
H1037 C1046 0.930 . S
H1038 C1048 0.930 . S
H1039 C1051 0.929 . S
H1040 C1054 0.930 . S
H1041 C1056 0.960 . S
H1042 C1056 0.960 . S
H1043 C1056 0.960 . S
C1044 H1036 0.929 . S
C1044 C1045 1.377 . S
C1044 C1046 1.384 . S
C1045 C1044 1.377 . S
C1045 C1051 1.390 . S
C1046 H1037 0.930 . S
C1046 C1044 1.384 . S
C1046 C1047 1.372 . S
C1047 C1046 1.372 . S
C1047 C1048 1.400 . S
C1047 C1052 1.490 . S
C1048 H1038 0.930 . S
C1048 C1047 1.400 . S
C1048 C1051 1.386 . S
H1049 C1065 0.930 . S
H1050 C1066 0.931 . S
C1051 H1039 0.929 . S
C1051 C1045 1.390 . S
C1051 C1048 1.386 . S
C1052 C1047 1.490 . S
C1052 C1054 1.395 . S
C1052 C1055 1.403 . S
H1053 C1059 0.930 . S
C1054 H1040 0.930 . S
C1054 C1052 1.395 . S
C1054 C1057 1.403 . S
C1055 C1052 1.403 . S
C1055 C1056 1.524 . S
C1055 C1059 1.400 . S
C1056 H1041 0.960 . S
C1056 H1042 0.960 . S
C1056 H1043 0.960 . S
C1056 C1055 1.524 . S
C1057 C1054 1.403 . S
C1057 C1058 1.392 . S
C1057 C1061 1.495 . S
C1058 C1057 1.392 . S
C1058 C1059 1.385 . S
C1058 C1060 1.478 . S
C1059 H1053 0.930 . S
C1059 C1055 1.400 . S
C1059 C1058 1.385 . S
C1060 C1058 1.478 . S
C1060 C1062 1.381 . S
C1060 C1066 1.383 . S
C1061 C1057 1.495 . S
C1061 H1067 0.959 . S
C1061 H1068 0.961 . S
C1061 H1069 0.960 . S
C1062 C1060 1.381 . S
C1062 C1063 1.394 . S
C1062 H1070 0.930 . S
C1063 C1062 1.394 . S
C1063 C1064 1.383 . S
C1063 H1071 0.929 . S
C1064 C1063 1.383 . S
C1064 C1065 1.377 . S
C1065 H1049 0.930 . S
C1065 C1064 1.377 . S
C1065 C1066 1.379 . S
C1066 H1050 0.931 . S
C1066 C1060 1.383 . S
C1066 C1065 1.379 . S
H1067 C1061 0.959 . S
H1068 C1061 0.961 . S
H1069 C1061 0.960 . S
H1070 C1062 0.930 . S
H1071 C1063 0.929 . S
H1072 C1080 0.929 . S
H1073 C1082 0.930 . S
H1074 C1084 0.930 . S
H1075 C1087 0.929 . S
H1076 C1090 0.930 . S
H1077 C1092 0.960 . S
H1078 C1092 0.960 . S
H1079 C1092 0.960 . S
C1080 H1072 0.929 . S
C1080 C1081 1.377 1_565 S
C1080 C1082 1.384 . S
C1081 C1080 1.377 1_545 S
C1081 C1087 1.390 . S
C1082 H1073 0.930 . S
C1082 C1080 1.384 . S
C1082 C1083 1.372 . S
C1083 C1082 1.372 . S
C1083 C1084 1.400 . S
C1083 C1088 1.490 . S
C1084 H1074 0.930 . S
C1084 C1083 1.400 . S
C1084 C1087 1.386 1_565 S
H1085 C1101 0.930 . S
H1086 C1102 0.931 . S
C1087 H1075 0.929 . S
C1087 C1081 1.390 . S
C1087 C1084 1.386 1_545 S
C1088 C1083 1.490 . S
C1088 C1090 1.395 . S
C1088 C1091 1.403 . S
H1089 C1095 0.930 . S
C1090 H1076 0.930 . S
C1090 C1088 1.395 . S
C1090 C1093 1.403 . S
C1091 C1088 1.403 . S
C1091 C1092 1.524 . S
C1091 C1095 1.400 . S
C1092 H1077 0.960 . S
C1092 H1078 0.960 . S
C1092 H1079 0.960 . S
C1092 C1091 1.524 . S
C1093 C1090 1.403 . S
C1093 C1094 1.392 . S
C1093 C1097 1.495 . S
C1094 C1093 1.392 . S
C1094 C1095 1.385 . S
C1094 C1096 1.478 . S
C1095 H1089 0.930 . S
C1095 C1091 1.400 . S
C1095 C1094 1.385 . S
C1096 C1094 1.478 . S
C1096 C1098 1.381 . S
C1096 C1102 1.383 . S
C1097 C1093 1.495 . S
C1097 H1103 0.959 . S
C1097 H1104 0.961 . S
C1097 H1105 0.960 . S
C1098 C1096 1.381 . S
C1098 C1099 1.394 . S
C1098 H1106 0.930 . S
C1099 C1098 1.394 . S
C1099 C1100 1.383 . S
C1099 H1107 0.929 . S
C1100 C1099 1.383 . S
C1100 C1101 1.377 . S
C1101 H1085 0.930 . S
C1101 C1100 1.377 . S
C1101 C1102 1.379 . S
C1102 H1086 0.931 . S
C1102 C1096 1.383 . S
C1102 C1101 1.379 . S
H1103 C1097 0.959 . S
H1104 C1097 0.961 . S
H1105 C1097 0.960 . S
H1106 C1098 0.930 . S
H1107 C1099 0.929 . S
H1108 C1116 0.929 . S
H1109 C1118 0.930 . S
H1110 C1120 0.930 . S
H1111 C1123 0.929 . S
H1112 C1126 0.930 . S
H1113 C1128 0.960 . S
H1114 C1128 0.960 . S
H1115 C1128 0.960 . S
C1116 H1108 0.929 . S
C1116 C1117 1.377 . S
C1116 C1118 1.384 . S
C1117 C1116 1.377 . S
C1117 C1123 1.390 . S
C1118 H1109 0.930 . S
C1118 C1116 1.384 . S
C1118 C1119 1.372 . S
C1119 C1118 1.372 . S
C1119 C1120 1.400 . S
C1119 C1124 1.490 . S
C1120 H1110 0.930 . S
C1120 C1119 1.400 . S
C1120 C1123 1.386 . S
H1121 C1137 0.930 . S
H1122 C1138 0.931 . S
C1123 H1111 0.929 . S
C1123 C1117 1.390 . S
C1123 C1120 1.386 . S
C1124 C1119 1.490 . S
C1124 C1126 1.395 . S
C1124 C1127 1.403 . S
H1125 C1131 0.930 . S
C1126 H1112 0.930 . S
C1126 C1124 1.395 . S
C1126 C1129 1.403 . S
C1127 C1124 1.403 . S
C1127 C1128 1.524 . S
C1127 C1131 1.400 . S
C1128 H1113 0.960 . S
C1128 H1114 0.960 . S
C1128 H1115 0.960 . S
C1128 C1127 1.524 . S
C1129 C1126 1.403 . S
C1129 C1130 1.392 . S
C1129 C1133 1.495 . S
C1130 C1129 1.392 . S
C1130 C1131 1.385 . S
C1130 C1132 1.478 . S
C1131 H1125 0.930 . S
C1131 C1127 1.400 . S
C1131 C1130 1.385 . S
C1132 C1130 1.478 . S
C1132 C1134 1.381 . S
C1132 C1138 1.383 . S
C1133 C1129 1.495 . S
C1133 H1139 0.959 . S
C1133 H1140 0.961 . S
C1133 H1141 0.960 . S
C1134 C1132 1.381 . S
C1134 C1135 1.394 . S
C1134 H1142 0.930 . S
C1135 C1134 1.394 . S
C1135 C1136 1.383 . S
C1135 H1143 0.929 . S
C1136 C1135 1.383 . S
C1136 C1137 1.377 . S
C1137 H1121 0.930 . S
C1137 C1136 1.377 . S
C1137 C1138 1.379 . S
C1138 H1122 0.931 . S
C1138 C1132 1.383 . S
C1138 C1137 1.379 . S
H1139 C1133 0.959 . S
H1140 C1133 0.961 . S
H1141 C1133 0.960 . S
H1142 C1134 0.930 . S
H1143 C1135 0.929 . S
H1144 C1152 0.929 . S
H1145 C1154 0.930 . S
H1146 C1156 0.930 . S
H1147 C1159 0.929 . S
H1148 C1162 0.930 . S
H1149 C1164 0.960 . S
H1150 C1164 0.960 . S
H1151 C1164 0.960 . S
C1152 H1144 0.929 . S
C1152 C1153 1.377 . S
C1152 C1154 1.384 . S
C1153 C1152 1.377 . S
C1153 C1159 1.390 . S
C1154 H1145 0.930 . S
C1154 C1152 1.384 . S
C1154 C1155 1.372 . S
C1155 C1154 1.372 . S
C1155 C1156 1.400 . S
C1155 C1160 1.490 . S
C1156 H1146 0.930 . S
C1156 C1155 1.400 . S
C1156 C1159 1.386 . S
H1157 C1173 0.930 . S
H1158 C1174 0.931 . S
C1159 H1147 0.929 . S
C1159 C1153 1.390 . S
C1159 C1156 1.386 . S
C1160 C1155 1.490 . S
C1160 C1162 1.395 . S
C1160 C1163 1.403 . S
H1161 C1167 0.930 . S
C1162 H1148 0.930 . S
C1162 C1160 1.395 . S
C1162 C1165 1.403 . S
C1163 C1160 1.403 . S
C1163 C1164 1.524 . S
C1163 C1167 1.400 . S
C1164 H1149 0.960 . S
C1164 H1150 0.960 . S
C1164 H1151 0.960 . S
C1164 C1163 1.524 . S
C1165 C1162 1.403 . S
C1165 C1166 1.392 . S
C1165 C1169 1.495 . S
C1166 C1165 1.392 . S
C1166 C1167 1.385 . S
C1166 C1168 1.478 . S
C1167 H1161 0.930 . S
C1167 C1163 1.400 . S
C1167 C1166 1.385 . S
C1168 C1166 1.478 . S
C1168 C1170 1.381 . S
C1168 C1174 1.383 . S
C1169 C1165 1.495 . S
C1169 H1175 0.959 . S
C1169 H1176 0.961 . S
C1169 H1177 0.960 . S
C1170 C1168 1.381 . S
C1170 C1171 1.394 . S
C1170 H1178 0.930 . S
C1171 C1170 1.394 . S
C1171 C1172 1.383 1_455 S
C1171 H1179 0.929 . S
C1172 C1171 1.383 1_655 S
C1172 C1173 1.377 . S
C1173 H1157 0.930 . S
C1173 C1172 1.377 . S
C1173 C1174 1.379 1_655 S
C1174 H1158 0.931 . S
C1174 C1168 1.383 . S
C1174 C1173 1.379 1_455 S
H1175 C1169 0.959 . S
H1176 C1169 0.961 . S
H1177 C1169 0.960 . S
H1178 C1170 0.930 . S
H1179 C1171 0.929 . S
H1180 C1188 0.929 . S
H1181 C1190 0.930 . S
H1182 C1192 0.930 . S
H1183 C1195 0.929 . S
H1184 C1198 0.930 . S
H1185 C1200 0.960 . S
H1186 C1200 0.960 . S
H1187 C1200 0.960 . S
C1188 H1180 0.929 . S
C1188 C1189 1.377 1_545 S
C1188 C1190 1.384 . S
C1189 C1188 1.377 1_565 S
C1189 C1195 1.390 . S
C1190 H1181 0.930 . S
C1190 C1188 1.384 . S
C1190 C1191 1.372 . S
C1191 C1190 1.372 . S
C1191 C1192 1.400 . S
C1191 C1196 1.490 . S
C1192 H1182 0.930 . S
C1192 C1191 1.400 . S
C1192 C1195 1.386 1_545 S
H1193 C1209 0.950 . S
H1194 C1210 0.931 . S
C1195 H1183 0.929 . S
C1195 C1189 1.390 . S
C1195 C1192 1.386 1_565 S
C1196 C1191 1.490 . S
C1196 C1198 1.395 . S
C1196 C1199 1.403 . S
H1197 C1203 0.930 . S
C1198 H1184 0.930 . S
C1198 C1196 1.395 . S
C1198 C1201 1.403 . S
C1199 C1196 1.403 . S
C1199 C1200 1.524 . S
C1199 C1203 1.400 . S
C1200 H1185 0.960 . S
C1200 H1186 0.960 . S
C1200 H1187 0.960 . S
C1200 C1199 1.524 . S
C1201 C1198 1.403 . S
C1201 C1202 1.392 . S
C1201 C1205 1.495 . S
C1202 C1201 1.392 . S
C1202 C1203 1.385 . S
C1202 C1204 1.478 . S
C1203 H1197 0.930 . S
C1203 C1199 1.400 . S
C1203 C1202 1.385 . S
C1204 C1202 1.478 . S
C1204 C1206 1.381 . S
C1204 C1210 1.383 . S
C1205 C1201 1.495 . S
C1205 H1211 0.959 . S
C1205 H1212 0.961 . S
C1205 H1213 0.960 . S
C1206 C1204 1.381 . S
C1206 C1207 1.394 . S
C1206 H1214 0.930 . S
C1207 C1206 1.394 . S
C1207 C1208 1.383 1_655 S
C1207 H1215 0.929 . S
C1208 C1207 1.383 1_455 S
C1208 C1209 1.385 . S
C1209 H1193 0.950 . S
C1209 C1208 1.385 . S
C1209 C1210 1.353 1_455 S
C1210 H1194 0.931 . S
C1210 C1204 1.383 . S
C1210 C1209 1.353 1_655 S
H1211 C1205 0.959 . S
H1212 C1205 0.961 . S
H1213 C1205 0.960 . S
H1214 C1206 0.930 . S
H1215 C1207 0.929 . S
H1216 C1224 0.929 . S
H1217 C1226 0.930 . S
H1218 C1228 0.930 . S
H1219 C1231 0.929 . S
H1220 C1234 0.930 . S
H1221 C1236 0.960 . S
H1222 C1236 0.960 . S
H1223 C1236 0.960 . S
C1224 H1216 0.929 . S
C1224 C1225 1.377 . S
C1224 C1226 1.384 . S
C1225 C1224 1.377 . S
C1225 C1231 1.390 . S
C1226 H1217 0.930 . S
C1226 C1224 1.384 . S
C1226 C1227 1.372 . S
C1227 C1226 1.372 . S
C1227 C1228 1.400 . S
C1227 C1232 1.490 . S
C1228 H1218 0.930 . S
C1228 C1227 1.400 . S
C1228 C1231 1.386 . S
H1229 C1245 0.930 . S
H1230 C1246 0.931 . S
C1231 H1219 0.929 . S
C1231 C1225 1.390 . S
C1231 C1228 1.386 . S
C1232 C1227 1.490 . S
C1232 C1234 1.395 . S
C1232 C1235 1.403 . S
H1233 C1239 0.930 . S
C1234 H1220 0.930 . S
C1234 C1232 1.395 . S
C1234 C1237 1.403 . S
C1235 C1232 1.403 . S
C1235 C1236 1.524 . S
C1235 C1239 1.400 . S
C1236 H1221 0.960 . S
C1236 H1222 0.960 . S
C1236 H1223 0.960 . S
C1236 C1235 1.524 . S
C1237 C1234 1.403 . S
C1237 C1238 1.392 . S
C1237 C1241 1.495 . S
C1238 C1237 1.392 . S
C1238 C1239 1.385 . S
C1238 C1240 1.478 . S
C1239 H1233 0.930 . S
C1239 C1235 1.400 . S
C1239 C1238 1.385 . S
C1240 C1238 1.478 . S
C1240 C1242 1.381 . S
C1240 C1246 1.383 . S
C1241 C1237 1.495 . S
C1241 H1247 0.959 . S
C1241 H1248 0.961 . S
C1241 H1249 0.960 . S
C1242 C1240 1.381 . S
C1242 C1243 1.394 . S
C1242 H1250 0.930 . S
C1243 C1242 1.394 . S
C1243 C1244 1.383 . S
C1243 H1251 0.929 . S
C1244 C1243 1.383 . S
C1244 C1245 1.377 . S
C1245 H1229 0.930 . S
C1245 C1244 1.377 . S
C1245 C1246 1.379 . S
C1246 H1230 0.931 . S
C1246 C1240 1.383 . S
C1246 C1245 1.379 . S
H1247 C1241 0.959 . S
H1248 C1241 0.961 . S
H1249 C1241 0.960 . S
H1250 C1242 0.930 . S
H1251 C1243 0.929 . S
H1252 C1260 0.950 . S
H1253 C1262 0.930 . S
H1254 C1264 0.930 . S
H1255 C1267 0.920 1_455 S
H1256 C1270 0.930 . S
H1257 C1272 0.960 . S
H1258 C1272 0.960 . S
H1259 C1272 0.960 . S
C1260 H1252 0.950 . S
C1260 C1261 1.390 . S
C1260 C1262 1.353 1_455 S
C1261 C1260 1.390 . S
C1261 C1267 1.390 1_455 S
C1262 H1253 0.930 . S
C1262 C1260 1.353 1_655 S
C1262 C1263 1.372 . S
C1263 C1262 1.372 . S
C1263 C1264 1.400 . S
C1263 C1268 1.490 . S
C1264 H1254 0.930 . S
C1264 C1263 1.400 . S
C1264 C1267 1.386 . S
H1265 C1281 0.930 . S
H1266 C1282 0.931 . S
C1267 H1255 0.920 1_655 S
C1267 C1261 1.390 1_655 S
C1267 C1264 1.386 . S
C1268 C1263 1.490 . S
C1268 C1270 1.395 . S
C1268 C1271 1.403 . S
H1269 C1275 0.930 . S
C1270 H1256 0.930 . S
C1270 C1268 1.395 . S
C1270 C1273 1.403 . S
C1271 C1268 1.403 . S
C1271 C1272 1.524 . S
C1271 C1275 1.400 . S
C1272 H1257 0.960 . S
C1272 H1258 0.960 . S
C1272 H1259 0.960 . S
C1272 C1271 1.524 . S
C1273 C1270 1.403 . S
C1273 C1274 1.392 . S
C1273 C1277 1.495 . S
C1274 C1273 1.392 . S
C1274 C1275 1.385 . S
C1274 C1276 1.478 . S
C1275 H1269 0.930 . S
C1275 C1271 1.400 . S
C1275 C1274 1.385 . S
C1276 C1274 1.478 . S
C1276 C1278 1.381 . S
C1276 C1282 1.383 . S
C1277 C1273 1.495 . S
C1277 H1283 0.959 . S
C1277 H1284 0.961 . S
C1277 H1285 0.960 . S
C1278 C1276 1.381 . S
C1278 C1279 1.394 . S
C1278 H1286 0.930 . S
C1279 C1278 1.394 . S
C1279 C1280 1.383 . S
C1279 H1287 0.929 . S
C1280 C1279 1.383 . S
C1280 C1281 1.377 . S
C1281 H1265 0.930 . S
C1281 C1280 1.377 . S
C1281 C1282 1.379 . S
C1282 H1266 0.931 . S
C1282 C1276 1.383 . S
C1282 C1281 1.379 . S
H1283 C1277 0.959 . S
H1284 C1277 0.961 . S
H1285 C1277 0.960 . S
H1286 C1278 0.930 . S
H1287 C1279 0.929 . S
H1288 C1296 0.929 . S
H1289 C1298 0.930 . S
H1290 C1300 0.930 . S
H1291 C1303 0.929 . S
H1292 C1306 0.930 . S
H1293 C1308 0.960 . S
H1294 C1308 0.960 . S
H1295 C1308 0.960 . S
C1296 H1288 0.929 . S
C1296 C1297 1.377 1_455 S
C1296 C1298 1.384 . S
C1297 C1296 1.377 1_655 S
C1297 C1303 1.390 . S
C1298 H1289 0.930 . S
C1298 C1296 1.384 . S
C1298 C1299 1.372 . S
C1299 C1298 1.372 . S
C1299 C1300 1.400 . S
C1299 C1304 1.490 . S
C1300 H1290 0.930 . S
C1300 C1299 1.400 . S
C1300 C1303 1.386 1_455 S
H1301 C1317 0.930 . S
H1302 C1318 0.931 . S
C1303 H1291 0.929 . S
C1303 C1297 1.390 . S
C1303 C1300 1.386 1_655 S
C1304 C1299 1.490 . S
C1304 C1306 1.395 . S
C1304 C1307 1.403 . S
H1305 C1311 0.930 . S
C1306 H1292 0.930 . S
C1306 C1304 1.395 . S
C1306 C1309 1.403 . S
C1307 C1304 1.403 . S
C1307 C1308 1.524 . S
C1307 C1311 1.400 . S
C1308 H1293 0.960 . S
C1308 H1294 0.960 . S
C1308 H1295 0.960 . S
C1308 C1307 1.524 . S
C1309 C1306 1.403 . S
C1309 C1310 1.392 . S
C1309 C1313 1.495 . S
C1310 C1309 1.392 . S
C1310 C1311 1.385 . S
C1310 C1312 1.478 . S
C1311 H1305 0.930 . S
C1311 C1307 1.400 . S
C1311 C1310 1.385 . S
C1312 C1310 1.478 . S
C1312 C1314 1.381 . S
C1312 C1318 1.383 . S
C1313 C1309 1.495 . S
C1313 H1319 0.959 . S
C1313 H1320 0.961 . S
C1313 H1321 0.960 . S
C1314 C1312 1.381 . S
C1314 C1315 1.394 . S
C1314 H1322 0.930 . S
C1315 C1314 1.394 . S
C1315 C1316 1.383 1_565 S
C1315 H1323 0.929 . S
C1316 C1315 1.383 1_545 S
C1316 C1317 1.377 . S
C1317 H1301 0.930 . S
C1317 C1316 1.377 . S
C1317 C1318 1.379 1_545 S
C1318 H1302 0.931 . S
C1318 C1312 1.383 . S
C1318 C1317 1.379 1_565 S
H1319 C1313 0.959 . S
H1320 C1313 0.961 . S
H1321 C1313 0.960 . S
H1322 C1314 0.930 . S
H1323 C1315 0.929 . S
H1324 C1332 0.929 . S
H1325 C1334 0.930 . S
H1326 C1336 0.930 . S
H1327 C1339 0.929 . S
H1328 C1342 0.930 . S
H1329 C1344 0.960 . S
H1330 C1344 0.960 . S
H1331 C1344 0.960 . S
C1332 H1324 0.929 . S
C1332 C1333 1.377 . S
C1332 C1334 1.384 1_565 S
C1333 C1332 1.377 . S
C1333 C1339 1.390 1_565 S
C1334 H1325 0.930 . S
C1334 C1332 1.384 1_545 S
C1334 C1335 1.372 . S
C1335 C1334 1.372 . S
C1335 C1336 1.400 . S
C1335 C1340 1.490 . S
C1336 H1326 0.930 . S
C1336 C1335 1.400 . S
C1336 C1339 1.386 . S
H1337 C1353 0.930 . S
H1338 C1354 0.931 . S
C1339 H1327 0.929 . S
C1339 C1333 1.390 1_545 S
C1339 C1336 1.386 . S
C1340 C1335 1.490 . S
C1340 C1342 1.395 . S
C1340 C1343 1.403 . S
H1341 C1347 0.930 . S
C1342 H1328 0.930 . S
C1342 C1340 1.395 . S
C1342 C1345 1.403 . S
C1343 C1340 1.403 . S
C1343 C1344 1.524 . S
C1343 C1347 1.400 . S
C1344 H1329 0.960 . S
C1344 H1330 0.960 . S
C1344 H1331 0.960 . S
C1344 C1343 1.524 . S
C1345 C1342 1.403 . S
C1345 C1346 1.392 . S
C1345 C1349 1.495 . S
C1346 C1345 1.392 . S
C1346 C1347 1.385 . S
C1346 C1348 1.478 . S
C1347 H1341 0.930 . S
C1347 C1343 1.400 . S
C1347 C1346 1.385 . S
C1348 C1346 1.478 . S
C1348 C1350 1.381 . S
C1348 C1354 1.383 . S
C1349 C1345 1.495 . S
C1349 H1355 0.959 . S
C1349 H1356 0.961 . S
C1349 H1357 0.960 . S
C1350 C1348 1.381 . S
C1350 C1351 1.394 . S
C1350 H1358 0.930 . S
C1351 C1350 1.394 . S
C1351 C1352 1.383 . S
C1351 H1359 0.929 . S
C1352 C1351 1.383 . S
C1352 C1353 1.377 . S
C1353 H1337 0.930 . S
C1353 C1352 1.377 . S
C1353 C1354 1.379 . S
C1354 H1338 0.931 . S
C1354 C1348 1.383 . S
C1354 C1353 1.379 . S
H1355 C1349 0.959 . S
H1356 C1349 0.961 . S
H1357 C1349 0.960 . S
H1358 C1350 0.930 . S
H1359 C1351 0.929 . S
C217 C92 1.598 . S
C236 C1 1.580 . S
C253 C53 1.597 . S
C272 C14 1.604 . S
C289 C66 1.592 . S
C308 C27 1.585 . S
C325 C40 1.594 . S
C344 C79 1.608 . S
C361 C205 1.595 . S
C380 C105 1.617 . S
C397 C157 1.614 . S
C416 C127 1.580 . S
C433 C131 1.612 . S
C452 C179 1.575 . S
C469 C153 1.598 . S
C488 C183 1.618 . S
C505 C36 1.480 . S
C524 C10 1.501 . S
C541 C23 1.475 . S
C560 C49 1.450 . S
C577 C62 1.474 . S
C596 C88 1.480 . S
C613 C101 1.475 . S
C632 C75 1.450 . S
C649 C114 1.521 . S
C668 C140 1.510 . S
C685 C118 1.478 . S
C704 C144 1.452 . S
C721 C192 1.522 . S
C740 C166 1.526 . S
C757 C170 1.478 . S
C776 C196 1.497 . S
C793 C81 1.588 . S
C812 C3 1.573 . S
C829 C16 1.589 . S
C848 C94 1.588 . S
C865 C29 1.588 . S
C884 C55 1.582 . S
C901 C42 1.588 . S
C920 C68 1.572 . S
C937 C107 1.602 . S
C956 C185 1.598 . S
C973 C122 1.592 . S
C992 C200 1.575 . S
C1009 C133 1.602 . S
C1028 C159 1.602 . S
C1045 C148 1.588 . S
C1064 C174 1.602 . S
C1081 C5 1.656 . S
C1100 C198 1.671 . S
C1117 C161 1.697 . S
C1136 C18 1.661 . S
C1153 C31 1.655 . S
C1172 C172 1.672 . S
C1189 C187 1.697 . S
C1208 C44 1.672 . S
C1225 C120 1.652 . S
C1244 C57 1.660 . S
C1261 C70 1.652 . S
C1280 C135 1.695 . S
C1297 C146 1.660 . S
C1316 C83 1.641 . S
C1333 C109 1.698 . S
C1352 C96 1.638 . S
