# Generated by pormake.
# Topology uks, (4)-cn, num edge types: 1
# Building blocks:
#     Node 0, Type 0, BuildingBlock: KOZSID_clean_sbu_0, # of connection points: 4
#     Node 1, Type 0, BuildingBlock: KOZSID_clean_sbu_0, # of connection points: 4
#     Node 2, Type 0, BuildingBlock: KOZSID_clean_sbu_0, # of connection points: 4
#     Node 3, Type 0, BuildingBlock: KOZSID_clean_sbu_0, # of connection points: 4
#     Node 4, Type 0, BuildingBlock: KOZSID_clean_sbu_0, # of connection points: 4
#     Node 5, Type 0, BuildingBlock: KOZSID_clean_sbu_0, # of connection points: 4
#     Node 6, Type 0, BuildingBlock: KOZSID_clean_sbu_0, # of connection points: 4
#     Node 7, Type 0, BuildingBlock: KOZSID_clean_sbu_0, # of connection points: 4
#     Node 8, Type 0, BuildingBlock: KOZSID_clean_sbu_0, # of connection points: 4
#     Node 9, Type 0, BuildingBlock: KOZSID_clean_sbu_0, # of connection points: 4
#     Node 10, Type 0, BuildingBlock: KOZSID_clean_sbu_0, # of connection points: 4
#     Node 11, Type 0, BuildingBlock: KOZSID_clean_sbu_0, # of connection points: 4
#     Node 12, Type 0, BuildingBlock: KOZSID_clean_sbu_0, # of connection points: 4
#     Node 13, Type 0, BuildingBlock: KOZSID_clean_sbu_0, # of connection points: 4
#     Node 14, Type 0, BuildingBlock: KOZSID_clean_sbu_0, # of connection points: 4
#     Node 15, Type 0, BuildingBlock: KOZSID_clean_sbu_0, # of connection points: 4
#     Node 16, Type 0, BuildingBlock: KOZSID_clean_sbu_0, # of connection points: 4
#     Node 17, Type 0, BuildingBlock: KOZSID_clean_sbu_0, # of connection points: 4
#     Node 18, Type 0, BuildingBlock: KOZSID_clean_sbu_0, # of connection points: 4
#     Node 19, Type 0, BuildingBlock: KOZSID_clean_sbu_0, # of connection points: 4
#     Node 20, Type 0, BuildingBlock: KOZSID_clean_sbu_0, # of connection points: 4
#     Node 21, Type 0, BuildingBlock: KOZSID_clean_sbu_0, # of connection points: 4
#     Node 22, Type 0, BuildingBlock: KOZSID_clean_sbu_0, # of connection points: 4
#     Node 23, Type 0, BuildingBlock: KOZSID_clean_sbu_0, # of connection points: 4
#     Edge 24, Type (0, 0), BuildingBlock: UVAHIK_clean_linker_0, # of connection points: 2
#     Edge 25, Type (0, 0), BuildingBlock: UVAHIK_clean_linker_0, # of connection points: 2
#     Edge 26, Type (0, 0), BuildingBlock: UVAHIK_clean_linker_0, # of connection points: 2
#     Edge 27, Type (0, 0), BuildingBlock: UVAHIK_clean_linker_0, # of connection points: 2
#     Edge 28, Type (0, 0), BuildingBlock: UVAHIK_clean_linker_0, # of connection points: 2
#     Edge 29, Type (0, 0), BuildingBlock: UVAHIK_clean_linker_0, # of connection points: 2
#     Edge 30, Type (0, 0), BuildingBlock: UVAHIK_clean_linker_0, # of connection points: 2
#     Edge 31, Type (0, 0), BuildingBlock: UVAHIK_clean_linker_0, # of connection points: 2
#     Edge 32, Type (0, 0), BuildingBlock: UVAHIK_clean_linker_0, # of connection points: 2
#     Edge 33, Type (0, 0), BuildingBlock: UVAHIK_clean_linker_0, # of connection points: 2
#     Edge 34, Type (0, 0), BuildingBlock: UVAHIK_clean_linker_0, # of connection points: 2
#     Edge 35, Type (0, 0), BuildingBlock: UVAHIK_clean_linker_0, # of connection points: 2
#     Edge 36, Type (0, 0), BuildingBlock: UVAHIK_clean_linker_0, # of connection points: 2
#     Edge 37, Type (0, 0), BuildingBlock: UVAHIK_clean_linker_0, # of connection points: 2
#     Edge 38, Type (0, 0), BuildingBlock: UVAHIK_clean_linker_0, # of connection points: 2
#     Edge 39, Type (0, 0), BuildingBlock: UVAHIK_clean_linker_0, # of connection points: 2
#     Edge 40, Type (0, 0), BuildingBlock: UVAHIK_clean_linker_0, # of connection points: 2
#     Edge 41, Type (0, 0), BuildingBlock: UVAHIK_clean_linker_0, # of connection points: 2
#     Edge 42, Type (0, 0), BuildingBlock: UVAHIK_clean_linker_0, # of connection points: 2
#     Edge 43, Type (0, 0), BuildingBlock: UVAHIK_clean_linker_0, # of connection points: 2
#     Edge 44, Type (0, 0), BuildingBlock: UVAHIK_clean_linker_0, # of connection points: 2
#     Edge 45, Type (0, 0), BuildingBlock: UVAHIK_clean_linker_0, # of connection points: 2
#     Edge 46, Type (0, 0), BuildingBlock: UVAHIK_clean_linker_0, # of connection points: 2
#     Edge 47, Type (0, 0), BuildingBlock: UVAHIK_clean_linker_0, # of connection points: 2
#     Edge 48, Type (0, 0), BuildingBlock: UVAHIK_clean_linker_0, # of connection points: 2
#     Edge 49, Type (0, 0), BuildingBlock: UVAHIK_clean_linker_0, # of connection points: 2
#     Edge 50, Type (0, 0), BuildingBlock: UVAHIK_clean_linker_0, # of connection points: 2
#     Edge 51, Type (0, 0), BuildingBlock: UVAHIK_clean_linker_0, # of connection points: 2
#     Edge 52, Type (0, 0), BuildingBlock: UVAHIK_clean_linker_0, # of connection points: 2
#     Edge 53, Type (0, 0), BuildingBlock: UVAHIK_clean_linker_0, # of connection points: 2
#     Edge 54, Type (0, 0), BuildingBlock: UVAHIK_clean_linker_0, # of connection points: 2
#     Edge 55, Type (0, 0), BuildingBlock: UVAHIK_clean_linker_0, # of connection points: 2
#     Edge 56, Type (0, 0), BuildingBlock: UVAHIK_clean_linker_0, # of connection points: 2
#     Edge 57, Type (0, 0), BuildingBlock: UVAHIK_clean_linker_0, # of connection points: 2
#     Edge 58, Type (0, 0), BuildingBlock: UVAHIK_clean_linker_0, # of connection points: 2
#     Edge 59, Type (0, 0), BuildingBlock: UVAHIK_clean_linker_0, # of connection points: 2
#     Edge 60, Type (0, 0), BuildingBlock: UVAHIK_clean_linker_0, # of connection points: 2
#     Edge 61, Type (0, 0), BuildingBlock: UVAHIK_clean_linker_0, # of connection points: 2
#     Edge 62, Type (0, 0), BuildingBlock: UVAHIK_clean_linker_0, # of connection points: 2
#     Edge 63, Type (0, 0), BuildingBlock: UVAHIK_clean_linker_0, # of connection points: 2
#     Edge 64, Type (0, 0), BuildingBlock: UVAHIK_clean_linker_0, # of connection points: 2
#     Edge 65, Type (0, 0), BuildingBlock: UVAHIK_clean_linker_0, # of connection points: 2
#     Edge 66, Type (0, 0), BuildingBlock: UVAHIK_clean_linker_0, # of connection points: 2
#     Edge 67, Type (0, 0), BuildingBlock: UVAHIK_clean_linker_0, # of connection points: 2
#     Edge 68, Type (0, 0), BuildingBlock: UVAHIK_clean_linker_0, # of connection points: 2
#     Edge 69, Type (0, 0), BuildingBlock: UVAHIK_clean_linker_0, # of connection points: 2
#     Edge 70, Type (0, 0), BuildingBlock: UVAHIK_clean_linker_0, # of connection points: 2
#     Edge 71, Type (0, 0), BuildingBlock: UVAHIK_clean_linker_0, # of connection points: 2
# Relax obj value: 0.059
# Max RMSD: 0.066
# Mean RMSD: 0.057
data_MOF--net-uks--node1-KOZSID_clean_sbu_0--edge1-UVAHIK_clean_linker_0
_symmetry_space_group_name_H-M    P1
_symmetry_Int_Tables_number       1
_symmetry_cell_setting            triclinic
loop_
_symmetry_equiv_pos_as_xyz
'x, y, z'
_cell_length_a     77.854417
_cell_length_b     89.38378
_cell_length_c     80.564019
_cell_angle_alpha  89.351006
_cell_angle_beta   90.773241
_cell_angle_gamma 90.05787
loop_
_atom_site_label
_atom_site_type_symbol
_atom_site_fract_x
_atom_site_fract_y
_atom_site_fract_z
_atom_type_partial_charge
C0 C 0.0857 0.37703 0.69492 0.0
C1 C 0.07196 0.38209 0.70411 0.0
C2 C 0.07878 0.38864 0.71794 0.0
C3 C 0.09622 0.38731 0.71638 0.0
N4 N 0.10097 0.38042 0.70231 0.0
Co5 Co 0.12507 0.3763 0.69513 0.0
N6 N 0.13495 0.38332 0.71686 0.0
C7 C 0.12604 0.38839 0.72995 0.0
C8 C 0.13611 0.3916 0.74353 0.0
C9 C 0.15245 0.38824 0.73892 0.0
C10 C 0.15142 0.38327 0.72267 0.0
N11 N 0.14919 0.37267 0.68771 0.0
C12 C 0.1644 0.37418 0.696 0.0
C13 C 0.1782 0.37094 0.68592 0.0
C14 C 0.17149 0.36707 0.67083 0.0
C15 C 0.15405 0.36825 0.67248 0.0
N16 N 0.1151 0.3685 0.67377 0.0
C17 C 0.12398 0.36327 0.66074 0.0
C18 C 0.11378 0.35761 0.64832 0.0
C19 C 0.09738 0.35906 0.65384 0.0
C20 C 0.09852 0.36568 0.66933 0.0
N21 N 0.12644 0.397 0.68563 0.0
C22 C 0.13079 0.42634 0.67277 0.0
C23 C 0.13226 0.41386 0.6626 0.0
C24 C 0.13005 0.39946 0.6692 0.0
C25 C 0.12659 0.42387 0.68938 0.0
C26 C 0.1244 0.40929 0.69545 0.0
N27 N 0.12381 0.35581 0.70458 0.0
C28 C 0.13116 0.32959 0.70352 0.0
C29 C 0.12261 0.32673 0.71839 0.0
C30 C 0.11452 0.33872 0.72609 0.0
C31 C 0.11535 0.35305 0.71909 0.0
C32 C 0.13151 0.34407 0.69684 0.0
H33 H 0.10908 0.36175 0.72564 0.0
H34 H 0.13817 0.34554 0.68544 0.0
H35 H 0.13148 0.39056 0.66071 0.0
H36 H 0.12128 0.40835 0.70821 0.0
C37 C 0.10825 0.3904 0.7289 0.0
C38 C 0.08355 0.36866 0.67956 0.0
C39 C 0.16642 0.37853 0.71335 0.0
C40 C 0.14191 0.36375 0.66064 0.0
H41 H 0.0584 0.38084 0.7013 0.0
H42 H 0.07182 0.39323 0.72825 0.0
H43 H 0.13205 0.39584 0.75538 0.0
H44 H 0.16382 0.38928 0.7467 0.0
H45 H 0.19173 0.37117 0.6892 0.0
H46 H 0.17848 0.36341 0.66009 0.0
H47 H 0.1178 0.35276 0.63676 0.0
H48 H 0.08591 0.35544 0.6473 0.0
H49 H 0.1351 0.41514 0.64954 0.0
H50 H 0.12541 0.4331 0.69787 0.0
H51 H 0.13784 0.32078 0.69714 0.0
H52 H 0.10745 0.33709 0.73745 0.0
C53 C 0.59598 0.6203 0.1855 0.0
C54 C 0.59407 0.62727 0.17007 0.0
C55 C 0.60908 0.6348 0.16711 0.0
C56 C 0.61931 0.63197 0.18078 0.0
N57 N 0.61175 0.62297 0.19205 0.0
Co58 Co 0.62194 0.61627 0.21352 0.0
N59 N 0.64532 0.62139 0.20609 0.0
C60 C 0.64935 0.63092 0.19369 0.0
C61 C 0.66675 0.63232 0.1916 0.0
C62 C 0.67405 0.62311 0.20346 0.0
C63 C 0.66061 0.61655 0.2121 0.0
N64 N 0.63223 0.60952 0.23494 0.0
C65 C 0.64861 0.60545 0.23843 0.0
C66 C 0.65039 0.60089 0.2549 0.0
C67 C 0.63454 0.60241 0.26193 0.0
C68 C 0.62399 0.6077 0.24939 0.0
N69 N 0.59852 0.61129 0.22109 0.0
C70 C 0.59373 0.60926 0.23697 0.0
C71 C 0.57657 0.60613 0.23846 0.0
C72 C 0.57013 0.60637 0.22255 0.0
C73 C 0.58379 0.60968 0.21219 0.0
N74 N 0.6246 0.59605 0.20483 0.0
C75 C 0.63146 0.567 0.19373 0.0
C76 C 0.62328 0.56935 0.2089 0.0
C77 C 0.62 0.58389 0.21421 0.0
C78 C 0.63557 0.5796 0.184 0.0
C79 C 0.63198 0.59396 0.18972 0.0
N80 N 0.61946 0.63656 0.22227 0.0
C81 C 0.60338 0.65948 0.22442 0.0
C82 C 0.61659 0.66591 0.23392 0.0
C83 C 0.63118 0.65728 0.23763 0.0
C84 C 0.63243 0.64273 0.23158 0.0
C85 C 0.60498 0.64477 0.21888 0.0
H86 H 0.64401 0.63652 0.23432 0.0
H87 H 0.59451 0.64009 0.21175 0.0
H88 H 0.61406 0.5853 0.22609 0.0
H89 H 0.63559 0.6034 0.18209 0.0
C90 C 0.63667 0.63585 0.18245 0.0
C91 C 0.58184 0.613 0.19438 0.0
C92 C 0.66276 0.60667 0.22665 0.0
C93 C 0.60604 0.60816 0.24976 0.0
H94 H 0.58284 0.62723 0.162 0.0
H95 H 0.61226 0.64128 0.15614 0.0
H96 H 0.67334 0.63871 0.18214 0.0
H97 H 0.68769 0.62146 0.2055 0.0
H98 H 0.66188 0.59685 0.26118 0.0
H99 H 0.63097 0.5993 0.27444 0.0
H100 H 0.56963 0.60358 0.2497 0.0
H101 H 0.55683 0.60461 0.219 0.0
H102 H 0.6195 0.56002 0.21673 0.0
H103 H 0.64203 0.57845 0.17227 0.0
H104 H 0.59182 0.66573 0.22141 0.0
H105 H 0.64174 0.66187 0.24483 0.0
C106 C 0.41252 0.13234 0.69114 0.0
C107 C 0.42713 0.12661 0.69894 0.0
C108 C 0.42159 0.11724 0.7114 0.0
C109 C 0.40396 0.11773 0.71049 0.0
N110 N 0.39814 0.12685 0.69826 0.0
Co111 Co 0.37371 0.13075 0.69256 0.0
N112 N 0.36604 0.12376 0.71473 0.0
C113 C 0.37528 0.11525 0.72546 0.0
C114 C 0.36671 0.11222 0.73989 0.0
C115 C 0.35105 0.11911 0.73802 0.0
C116 C 0.35086 0.1259 0.72243 0.0
N117 N 0.34926 0.13453 0.68674 0.0
C118 C 0.33542 0.13566 0.69667 0.0
C119 C 0.32053 0.13793 0.68728 0.0
C120 C 0.3253 0.13816 0.67095 0.0
C121 C 0.34275 0.13599 0.67123 0.0
N122 N 0.38145 0.13776 0.67045 0.0
C123 C 0.37158 0.13904 0.65668 0.0
C124 C 0.38043 0.14464 0.64335 0.0
C125 C 0.39689 0.14693 0.64911 0.0
C126 C 0.3972 0.14248 0.66568 0.0
N127 N 0.37144 0.11034 0.68423 0.0
C128 C 0.36877 0.08055 0.67426 0.0
C129 C 0.38253 0.08945 0.66905 0.0
C130 C 0.38371 0.10431 0.6743 0.0
C131 C 0.35616 0.08695 0.68411 0.0
C132 C 0.35764 0.10184 0.68881 0.0
N133 N 0.3759 0.15101 0.70098 0.0
C134 C 0.36952 0.17726 0.69871 0.0
C135 C 0.3777 0.17985 0.71403 0.0
C136 C 0.38529 0.16769 0.72245 0.0
C137 C 0.38416 0.1534 0.71578 0.0
C138 C 0.36885 0.16279 0.69238 0.0
H139 H 0.38985 0.14425 0.7227 0.0
H140 H 0.36239 0.1611 0.68063 0.0
H141 H 0.39468 0.11085 0.67055 0.0
H142 H 0.34767 0.10638 0.69639 0.0
C143 C 0.39269 0.11233 0.72259 0.0
C144 C 0.41268 0.14212 0.67637 0.0
C145 C 0.33568 0.13314 0.71475 0.0
C146 C 0.35369 0.13762 0.65765 0.0
H147 H 0.44038 0.12894 0.69592 0.0
H148 H 0.42948 0.11134 0.72048 0.0
H149 H 0.37146 0.10616 0.75071 0.0
H150 H 0.34089 0.119 0.74706 0.0
H151 H 0.30755 0.13907 0.69173 0.0
H152 H 0.31708 0.14013 0.6602 0.0
H153 H 0.37536 0.14742 0.63113 0.0
H154 H 0.40736 0.15144 0.64192 0.0
H155 H 0.39254 0.08485 0.66142 0.0
H156 H 0.3452 0.08046 0.68818 0.0
H157 H 0.36331 0.18625 0.6918 0.0
H158 H 0.39208 0.16914 0.73414 0.0
C159 C 0.88657 0.87862 0.1728 0.0
C160 C 0.88496 0.87438 0.15634 0.0
C161 C 0.86778 0.87321 0.15302 0.0
C162 C 0.85997 0.87684 0.16758 0.0
N163 N 0.87109 0.88047 0.17994 0.0
Co164 Co 0.86543 0.88606 0.20327 0.0
N165 N 0.84033 0.88238 0.19909 0.0
C166 C 0.8328 0.87788 0.18474 0.0
C167 C 0.81544 0.87574 0.18581 0.0
C168 C 0.8116 0.87907 0.2018 0.0
C169 C 0.82691 0.88321 0.20956 0.0
N170 N 0.85978 0.8917 0.2266 0.0
C171 C 0.84446 0.89196 0.23436 0.0
C172 C 0.84614 0.89692 0.25058 0.0
C173 C 0.86315 0.89975 0.25322 0.0
C174 C 0.87085 0.89646 0.23852 0.0
N175 N 0.89057 0.88957 0.20746 0.0
C176 C 0.89812 0.89449 0.22161 0.0
C177 C 0.91568 0.89514 0.22096 0.0
C178 C 0.91964 0.89012 0.20556 0.0
C179 C 0.90417 0.88674 0.19767 0.0
N180 N 0.86247 0.9074 0.1961 0.0
C181 C 0.85687 0.93771 0.18685 0.0
C182 C 0.86732 0.93388 0.20049 0.0
C183 C 0.86992 0.91884 0.20483 0.0
C184 C 0.84955 0.92605 0.17775 0.0
C185 C 0.85251 0.91116 0.18251 0.0
N186 N 0.86828 0.86482 0.21046 0.0
C187 C 0.87896 0.84631 0.2302 0.0
C188 C 0.87154 0.83465 0.22111 0.0
C189 C 0.86264 0.83845 0.20645 0.0
C190 C 0.86124 0.85343 0.20137 0.0
C191 C 0.87718 0.86116 0.22472 0.0
H192 H 0.8543 0.85554 0.1901 0.0
H193 H 0.8831 0.86951 0.23223 0.0
H194 H 0.87795 0.91681 0.21537 0.0
H195 H 0.84641 0.90294 0.17506 0.0
C196 C 0.8424 0.8756 0.17047 0.0
C197 C 0.90306 0.88002 0.18131 0.0
C198 C 0.82803 0.88777 0.22688 0.0
C199 C 0.88845 0.89749 0.23564 0.0
H200 H 0.89517 0.872 0.14777 0.0
H201 H 0.86174 0.86962 0.14156 0.0
H202 H 0.80664 0.87208 0.17616 0.0
H203 H 0.79893 0.87844 0.20712 0.0
H204 H 0.83609 0.89838 0.25958 0.0
H205 H 0.8692 0.90372 0.26452 0.0
H206 H 0.92457 0.89841 0.23071 0.0
H207 H 0.93248 0.88873 0.20086 0.0
H208 H 0.87358 0.94244 0.20781 0.0
H209 H 0.84121 0.92835 0.16716 0.0
H210 H 0.88628 0.84404 0.24148 0.0
H211 H 0.85645 0.82994 0.199 0.0
C212 C 0.09116 0.13004 0.81317 0.0
C213 C 0.07694 0.12409 0.80503 0.0
C214 C 0.0831 0.11486 0.79297 0.0
C215 C 0.10068 0.11565 0.79444 0.0
N216 N 0.1059 0.12483 0.80664 0.0
Co217 Co 0.13007 0.12905 0.81306 0.0
N218 N 0.13866 0.1221 0.79139 0.0
C219 C 0.12994 0.11348 0.78058 0.0
C220 C 0.13909 0.11053 0.76654 0.0
C221 C 0.15459 0.1176 0.76877 0.0
C222 C 0.15409 0.12442 0.78416 0.0
N223 N 0.15425 0.13315 0.81961 0.0
C224 C 0.16843 0.13443 0.81012 0.0
C225 C 0.18294 0.13691 0.81994 0.0
C226 C 0.17758 0.13712 0.83608 0.0
C227 C 0.16017 0.13472 0.83527 0.0
N228 N 0.12141 0.13602 0.83469 0.0
C229 C 0.13078 0.13747 0.84874 0.0
C230 C 0.12137 0.14291 0.86163 0.0
C231 C 0.10506 0.14491 0.8553 0.0
C232 C 0.1054 0.14044 0.83886 0.0
N233 N 0.13233 0.1087 0.82211 0.0
C234 C 0.13622 0.07971 0.83539 0.0
C235 C 0.12161 0.08828 0.83879 0.0
C236 C 0.11988 0.10269 0.83199 0.0
C237 C 0.14868 0.08598 0.825 0.0
C238 C 0.14656 0.10043 0.81863 0.0
N239 N 0.12791 0.14929 0.80403 0.0
C240 C 0.13363 0.17563 0.80616 0.0
C241 C 0.12574 0.17821 0.79068 0.0
C242 C 0.11876 0.16605 0.78211 0.0
C243 C 0.12008 0.15168 0.78895 0.0
C244 C 0.13447 0.16112 0.81266 0.0
H245 H 0.1149 0.14247 0.78196 0.0
H246 H 0.14052 0.15945 0.82464 0.0
H247 H 0.10852 0.10901 0.83483 0.0
H248 H 0.15653 0.1049 0.81087 0.0
C249 C 0.11247 0.11038 0.78289 0.0
C250 C 0.09025 0.13971 0.82776 0.0
C251 C 0.16887 0.13189 0.79212 0.0
C252 C 0.14872 0.13626 0.84841 0.0
H253 H 0.06354 0.12615 0.80757 0.0
H254 H 0.07565 0.10883 0.78379 0.0
H255 H 0.13483 0.10439 0.75574 0.0
H256 H 0.16508 0.1176 0.7601 0.0
H257 H 0.19606 0.13822 0.81589 0.0
H258 H 0.18538 0.13921 0.84704 0.0
H259 H 0.12596 0.14576 0.87394 0.0
H260 H 0.09425 0.14921 0.86204 0.0
H261 H 0.11168 0.08402 0.84686 0.0
H262 H 0.16002 0.07976 0.82164 0.0
H263 H 0.13901 0.18478 0.81325 0.0
H264 H 0.11267 0.16758 0.77004 0.0
C265 C 0.88614 0.63669 0.33044 0.0
C266 C 0.88205 0.64112 0.34636 0.0
C267 C 0.86462 0.64261 0.34664 0.0
C268 C 0.85911 0.63895 0.33098 0.0
N269 N 0.87196 0.63516 0.32069 0.0
Co270 Co 0.86975 0.62881 0.29695 0.0
N271 N 0.84423 0.63148 0.29727 0.0
C272 C 0.83473 0.637 0.30974 0.0
C273 C 0.81748 0.63752 0.30622 0.0
C274 C 0.81582 0.63176 0.29068 0.0
C275 C 0.83223 0.62793 0.28568 0.0
N276 N 0.86743 0.62201 0.27335 0.0
C277 C 0.85312 0.61878 0.26434 0.0
C278 C 0.85708 0.61324 0.24883 0.0
C279 C 0.87456 0.61282 0.24806 0.0
C280 C 0.88022 0.61802 0.26311 0.0
N281 N 0.89534 0.62645 0.29652 0.0
C282 C 0.90496 0.62235 0.28346 0.0
C283 C 0.92225 0.62217 0.28677 0.0
C284 C 0.92384 0.62656 0.30286 0.0
C285 C 0.90731 0.6291 0.30848 0.0
N286 N 0.86708 0.60767 0.30449 0.0
C287 C 0.86147 0.57746 0.31355 0.0
C288 C 0.87439 0.58142 0.30244 0.0
C289 C 0.87689 0.59646 0.29804 0.0
C290 C 0.85173 0.58892 0.32036 0.0
C291 C 0.85482 0.60381 0.31583 0.0
N292 N 0.87228 0.65004 0.2893 0.0
C293 C 0.88317 0.66856 0.26984 0.0
C294 C 0.87493 0.68015 0.27812 0.0
C295 C 0.86552 0.67635 0.2922 0.0
C296 C 0.86444 0.66145 0.29754 0.0
C297 C 0.88171 0.65375 0.27559 0.0
H298 H 0.85709 0.65949 0.30836 0.0
H299 H 0.88834 0.64553 0.26871 0.0
H300 H 0.88666 0.59875 0.2892 0.0
H301 H 0.84698 0.612 0.32152 0.0
C302 C 0.84214 0.63993 0.32525 0.0
C303 C 0.90371 0.63454 0.32506 0.0
C304 C 0.83566 0.62005 0.27035 0.0
C305 C 0.89735 0.61845 0.26834 0.0
H306 H 0.8908 0.64327 0.35661 0.0
H307 H 0.85692 0.64623 0.35694 0.0
H308 H 0.80726 0.64106 0.31426 0.0
H309 H 0.80382 0.63008 0.28401 0.0
H310 H 0.84827 0.6095 0.23923 0.0
H311 H 0.88222 0.60874 0.23796 0.0
H312 H 0.9325 0.61927 0.27844 0.0
H313 H 0.93583 0.62787 0.30963 0.0
H314 H 0.88223 0.57291 0.2968 0.0
H315 H 0.84177 0.58642 0.32924 0.0
H316 H 0.89089 0.67086 0.25902 0.0
H317 H 0.85867 0.6848 0.29901 0.0
C318 C 0.41737 0.37719 0.80637 0.0
C319 C 0.431 0.38172 0.79656 0.0
C320 C 0.42403 0.38825 0.78264 0.0
C321 C 0.40661 0.38732 0.78466 0.0
N322 N 0.40202 0.38067 0.79909 0.0
Co323 Co 0.37798 0.37683 0.80675 0.0
N324 N 0.36784 0.38355 0.78484 0.0
C325 C 0.37662 0.38831 0.7714 0.0
C326 C 0.36641 0.39129 0.75778 0.0
C327 C 0.35011 0.38808 0.76273 0.0
C328 C 0.35131 0.38344 0.77922 0.0
N329 N 0.35393 0.37359 0.81467 0.0
C330 C 0.33863 0.37502 0.80652 0.0
C331 C 0.32494 0.37219 0.81696 0.0
C332 C 0.33183 0.36869 0.83218 0.0
C333 C 0.34926 0.36966 0.83022 0.0
N334 N 0.38814 0.36919 0.82825 0.0
C335 C 0.37941 0.3644 0.84171 0.0
C336 C 0.38974 0.35901 0.85431 0.0
C337 C 0.40606 0.36013 0.84844 0.0
C338 C 0.40473 0.36617 0.83252 0.0
N339 N 0.37708 0.39769 0.81536 0.0
C340 C 0.37376 0.4273 0.82703 0.0
C341 C 0.3729 0.41503 0.83789 0.0
C342 C 0.37455 0.40049 0.83187 0.0
C343 C 0.37674 0.42446 0.81029 0.0
C344 C 0.37849 0.40978 0.80483 0.0
N345 N 0.37879 0.35623 0.79819 0.0
C346 C 0.37089 0.33015 0.80039 0.0
C347 C 0.37932 0.32705 0.78563 0.0
C348 C 0.38761 0.33874 0.77735 0.0
C349 C 0.38711 0.35316 0.78375 0.0
C350 C 0.3709 0.34471 0.80649 0.0
H351 H 0.39343 0.36169 0.77676 0.0
H352 H 0.36444 0.34644 0.81792 0.0
H353 H 0.37363 0.39178 0.84089 0.0
H354 H 0.38077 0.40861 0.79195 0.0
C355 C 0.39442 0.39028 0.77218 0.0
C356 C 0.4196 0.36886 0.822 0.0
C357 C 0.33641 0.37893 0.78895 0.0
C358 C 0.36151 0.36526 0.84211 0.0
H359 H 0.44458 0.38003 0.79889 0.0
H360 H 0.43084 0.39243 0.77192 0.0
H361 H 0.37035 0.39527 0.74568 0.0
H362 H 0.33865 0.389 0.75504 0.0
H363 H 0.31138 0.37245 0.81385 0.0
H364 H 0.32496 0.36538 0.84322 0.0
H365 H 0.38586 0.35466 0.86628 0.0
H366 H 0.41764 0.35682 0.8551 0.0
H367 H 0.37098 0.41658 0.85105 0.0
H368 H 0.37735 0.43349 0.80125 0.0
H369 H 0.36446 0.32136 0.80728 0.0
H370 H 0.39417 0.33684 0.76579 0.0
C371 C 0.58998 0.86504 0.33439 0.0
C372 C 0.58681 0.85979 0.35035 0.0
C373 C 0.60234 0.85613 0.35726 0.0
C374 C 0.61405 0.85924 0.34516 0.0
N375 N 0.60698 0.86476 0.33094 0.0
Co376 Co 0.61924 0.86991 0.30988 0.0
N377 N 0.64213 0.86488 0.32026 0.0
C378 C 0.64522 0.86012 0.33603 0.0
C379 C 0.66226 0.85789 0.33969 0.0
C380 C 0.67063 0.8616 0.32548 0.0
C381 C 0.65813 0.86595 0.31394 0.0
N382 N 0.6314 0.87464 0.28867 0.0
C383 C 0.64838 0.87448 0.28523 0.0
C384 C 0.65139 0.87876 0.26888 0.0
C385 C 0.63576 0.8816 0.26172 0.0
C386 C 0.62416 0.87899 0.27403 0.0
N387 N 0.59644 0.8755 0.29969 0.0
C388 C 0.59345 0.88089 0.28415 0.0
C389 C 0.57659 0.88431 0.2809 0.0
C390 C 0.56825 0.88088 0.2952 0.0
C391 C 0.58056 0.8754 0.30633 0.0
N392 N 0.62231 0.89093 0.31725 0.0
C393 C 0.629 0.92064 0.32717 0.0
C394 C 0.62387 0.91743 0.31089 0.0
C395 C 0.62061 0.90267 0.30625 0.0
C396 C 0.63024 0.90871 0.3385 0.0
C397 C 0.62681 0.8941 0.33334 0.0
N398 N 0.61633 0.84882 0.30244 0.0
C399 C 0.60713 0.8309 0.28176 0.0
C400 C 0.61373 0.81892 0.29122 0.0
C401 C 0.62136 0.82227 0.30656 0.0
C402 C 0.62234 0.83708 0.31194 0.0
C403 C 0.60865 0.84558 0.28749 0.0
H404 H 0.62818 0.8387 0.32379 0.0
H405 H 0.60354 0.85413 0.27953 0.0
H406 H 0.6169 0.90101 0.29363 0.0
H407 H 0.62816 0.88551 0.34254 0.0
C408 C 0.63178 0.85747 0.34696 0.0
C409 C 0.57641 0.86983 0.32287 0.0
C410 C 0.6621 0.87093 0.29715 0.0
C411 C 0.60663 0.88195 0.27266 0.0
H412 H 0.57454 0.85863 0.35637 0.0
H413 H 0.60481 0.85172 0.36963 0.0
H414 H 0.66791 0.85398 0.3513 0.0
H415 H 0.68438 0.86115 0.32379 0.0
H416 H 0.66361 0.88007 0.2628 0.0
H417 H 0.63321 0.88559 0.24919 0.0
H418 H 0.57101 0.88863 0.26944 0.0
H419 H 0.5546 0.88211 0.29716 0.0
H420 H 0.62234 0.92628 0.3017 0.0
H421 H 0.63426 0.91053 0.35124 0.0
H422 H 0.60071 0.82904 0.26996 0.0
H423 H 0.62692 0.81358 0.31439 0.0
C424 C 0.66761 0.13303 0.38548 0.0
C425 C 0.65235 0.13623 0.37709 0.0
C426 C 0.65441 0.13154 0.36105 0.0
C427 C 0.67076 0.12579 0.36057 0.0
N428 N 0.67906 0.12668 0.37528 0.0
Co429 Co 0.70272 0.11977 0.38026 0.0
N430 N 0.70859 0.12022 0.35653 0.0
C431 C 0.69736 0.1198 0.34368 0.0
C432 C 0.70534 0.11981 0.32859 0.0
C433 C 0.7226 0.12018 0.33225 0.0
C434 C 0.72421 0.12044 0.34946 0.0
N435 N 0.72637 0.11285 0.38528 0.0
C436 C 0.74057 0.1139 0.37587 0.0
C437 C 0.75473 0.10786 0.38419 0.0
C438 C 0.74899 0.10263 0.39922 0.0
C439 C 0.73174 0.10584 0.39929 0.0
N440 N 0.69673 0.11913 0.40397 0.0
C441 C 0.7049 0.11127 0.41603 0.0
C442 C 0.69757 0.11305 0.4313 0.0
C443 C 0.68395 0.12257 0.42857 0.0
C444 C 0.68378 0.12607 0.41172 0.0
N445 N 0.69517 0.09895 0.37797 0.0
C446 C 0.68329 0.06978 0.37209 0.0
C447 C 0.69924 0.0746 0.36618 0.0
C448 C 0.70492 0.08914 0.36923 0.0
C449 C 0.67369 0.07978 0.38155 0.0
C450 C 0.67987 0.09427 0.38437 0.0
N451 N 0.71031 0.14058 0.38235 0.0
C452 C 0.72661 0.15954 0.39666 0.0
C453 C 0.72291 0.16995 0.38397 0.0
C454 C 0.71243 0.16543 0.37068 0.0
C455 C 0.70613 0.15079 0.37019 0.0
C456 C 0.7203 0.14489 0.39555 0.0
H457 H 0.69806 0.14767 0.35982 0.0
H458 H 0.72374 0.13698 0.40524 0.0
H459 H 0.7171 0.09251 0.36421 0.0
H460 H 0.67206 0.10179 0.39142 0.0
C461 C 0.67975 0.122 0.34624 0.0
C462 C 0.67066 0.13521 0.40325 0.0
C463 C 0.7406 0.11957 0.35872 0.0
C464 C 0.72101 0.10491 0.41311 0.0
H465 H 0.64095 0.14136 0.38203 0.0
H466 H 0.64533 0.13275 0.35084 0.0
H467 H 0.69935 0.12005 0.31639 0.0
H468 H 0.7328 0.1201 0.32326 0.0
H469 H 0.7678 0.10725 0.37986 0.0
H470 H 0.75663 0.09767 0.40915 0.0
H471 H 0.70202 0.10855 0.44312 0.0
H472 H 0.67518 0.12646 0.43788 0.0
H473 H 0.70732 0.06721 0.35913 0.0
H474 H 0.66126 0.07662 0.38634 0.0
H475 H 0.73472 0.16256 0.40712 0.0
H476 H 0.70907 0.17318 0.36073 0.0
C477 C 0.91797 0.19962 0.88953 0.0
C478 C 0.93022 0.20382 0.90124 0.0
C479 C 0.92199 0.21289 0.91226 0.0
C480 C 0.90525 0.21371 0.90667 0.0
N481 N 0.90248 0.20569 0.89288 0.0
Co482 Co 0.88055 0.20423 0.88014 0.0
N483 N 0.87127 0.22257 0.89046 0.0
C484 C 0.87759 0.22908 0.90428 0.0
C485 C 0.86858 0.24157 0.90867 0.0
C486 C 0.85559 0.24286 0.89711 0.0
C487 C 0.85727 0.23093 0.88633 0.0
N488 N 0.8587 0.20266 0.86718 0.0
C489 C 0.84568 0.21263 0.865 0.0
C490 C 0.83242 0.20643 0.85561 0.0
C491 C 0.83718 0.19208 0.85208 0.0
C492 C 0.85302 0.19025 0.85946 0.0
N493 N 0.88987 0.18583 0.8701 0.0
C494 C 0.88072 0.17504 0.86255 0.0
C495 C 0.8909 0.16384 0.8565 0.0
C496 C 0.90746 0.16791 0.86048 0.0
C497 C 0.9064 0.18141 0.86873 0.0
N498 N 0.87057 0.19219 0.89794 0.0
C499 C 0.85629 0.17568 0.92406 0.0
C500 C 0.87317 0.173 0.919 0.0
C501 C 0.88002 0.18131 0.90585 0.0
C502 C 0.84665 0.18656 0.91547 0.0
C503 C 0.85404 0.19474 0.90265 0.0
N504 N 0.8906 0.21619 0.86245 0.0
C505 C 0.89862 0.21861 0.83391 0.0
C506 C 0.90785 0.2316 0.83754 0.0
C507 C 0.90796 0.23702 0.85372 0.0
C508 C 0.89937 0.22904 0.86606 0.0
C509 C 0.88988 0.21118 0.8465 0.0
H510 H 0.9001 0.23313 0.87857 0.0
H511 H 0.8828 0.20122 0.84339 0.0
H512 H 0.89305 0.17906 0.90222 0.0
H513 H 0.84631 0.2032 0.89666 0.0
C514 C 0.89305 0.22419 0.91162 0.0
C515 C 0.92113 0.18952 0.87568 0.0
C516 C 0.84414 0.22694 0.87378 0.0
C517 C 0.8635 0.17757 0.85822 0.0
H518 H 0.94368 0.20082 0.90164 0.0
H519 H 0.92778 0.21886 0.92252 0.0
H520 H 0.87128 0.24901 0.91889 0.0
H521 H 0.84572 0.25137 0.89692 0.0
H522 H 0.82024 0.2115 0.85221 0.0
H523 H 0.82994 0.18396 0.84498 0.0
H524 H 0.88688 0.15433 0.84921 0.0
H525 H 0.91897 0.16177 0.85751 0.0
H526 H 0.88119 0.1648 0.92534 0.0
H527 H 0.83344 0.18884 0.91862 0.0
H528 H 0.89801 0.21434 0.82138 0.0
H529 H 0.91486 0.24716 0.85683 0.0
C530 C 0.82665 0.37127 0.40172 0.0
C531 C 0.84311 0.36866 0.4079 0.0
C532 C 0.85307 0.36555 0.39457 0.0
C533 C 0.84216 0.36645 0.3811 0.0
N534 N 0.82588 0.37016 0.385 0.0
Co535 Co 0.80574 0.37247 0.36949 0.0
N536 N 0.81962 0.36537 0.35031 0.0
C537 C 0.83642 0.36148 0.35049 0.0
C538 C 0.84219 0.35655 0.33553 0.0
C539 C 0.82819 0.35715 0.32519 0.0
C540 C 0.81466 0.36247 0.33451 0.0
N541 N 0.78564 0.37495 0.35394 0.0
C542 C 0.78404 0.37142 0.3377 0.0
C543 C 0.76777 0.37479 0.33146 0.0
C544 C 0.75875 0.38062 0.34426 0.0
C545 C 0.76995 0.38046 0.35753 0.0
N546 N 0.79179 0.3792 0.3888 0.0
C547 C 0.77525 0.38385 0.38854 0.0
C548 C 0.76898 0.38698 0.40394 0.0
C549 C 0.78221 0.38388 0.41472 0.0
C550 C 0.7958 0.37908 0.40519 0.0
N551 N 0.81276 0.39365 0.36471 0.0
C552 C 0.82233 0.42353 0.35718 0.0
C553 C 0.80588 0.4201 0.36274 0.0
C554 C 0.80139 0.40526 0.36628 0.0
C555 C 0.83396 0.41179 0.35555 0.0
C556 C 0.82902 0.39712 0.35948 0.0
N557 N 0.79872 0.35148 0.37411 0.0
C558 C 0.77647 0.3332 0.37954 0.0
C559 C 0.7883 0.32149 0.37882 0.0
C560 C 0.80552 0.32508 0.37608 0.0
C561 C 0.81046 0.34005 0.37398 0.0
C562 C 0.78188 0.34797 0.37706 0.0
H563 H 0.8238 0.34216 0.37212 0.0
H564 H 0.77219 0.35638 0.37737 0.0
H565 H 0.78857 0.40355 0.37015 0.0
H566 H 0.83864 0.38883 0.35813 0.0
C567 C 0.84636 0.36233 0.36501 0.0
C568 C 0.81196 0.3738 0.41227 0.0
C569 C 0.79738 0.36454 0.32782 0.0
C570 C 0.7657 0.38431 0.37373 0.0
H571 H 0.84733 0.36858 0.42076 0.0
H572 H 0.8665 0.36239 0.39475 0.0
H573 H 0.85498 0.35278 0.33255 0.0
H574 H 0.82793 0.35396 0.31227 0.0
H575 H 0.76286 0.373 0.31901 0.0
H576 H 0.74546 0.38418 0.34404 0.0
H577 H 0.75616 0.39062 0.407 0.0
H578 H 0.78181 0.38474 0.4281 0.0
H579 H 0.79634 0.4288 0.36405 0.0
H580 H 0.84695 0.41392 0.35144 0.0
H581 H 0.76298 0.33095 0.38155 0.0
H582 H 0.81518 0.31638 0.37565 0.0
C583 C 0.59108 0.29983 0.87837 0.0
C584 C 0.5781 0.28919 0.87931 0.0
C585 C 0.58567 0.27607 0.88416 0.0
C586 C 0.6028 0.27935 0.88576 0.0
N587 N 0.60665 0.29383 0.8824 0.0
Co588 Co 0.63025 0.30296 0.88188 0.0
N589 N 0.6415 0.28336 0.88786 0.0
C590 C 0.63344 0.27042 0.89187 0.0
C591 C 0.64442 0.25872 0.89495 0.0
C592 C 0.66046 0.26447 0.89268 0.0
C593 C 0.65838 0.27946 0.8884 0.0
N594 N 0.65387 0.31194 0.88059 0.0
C595 C 0.66957 0.30531 0.88139 0.0
C596 C 0.68269 0.31565 0.87919 0.0
C597 C 0.67503 0.3292 0.87654 0.0
C598 C 0.65776 0.32642 0.87731 0.0
N599 N 0.61902 0.32264 0.87637 0.0
C600 C 0.62696 0.33603 0.87469 0.0
C601 C 0.61595 0.34764 0.87123 0.0
C602 C 0.60002 0.3413 0.87057 0.0
C603 C 0.60224 0.32609 0.87354 0.0
N604 N 0.62901 0.30768 0.90592 0.0
C605 C 0.62864 0.31363 0.94021 0.0
C606 C 0.63576 0.32384 0.92901 0.0
C607 C 0.63581 0.32067 0.91209 0.0
C608 C 0.62134 0.30058 0.93394 0.0
C609 C 0.6216 0.29789 0.91693 0.0
N610 N 0.63155 0.29822 0.85807 0.0
C611 C 0.63678 0.30573 0.8297 0.0
C612 C 0.63478 0.291 0.82455 0.0
C613 C 0.63083 0.28 0.83627 0.0
C614 C 0.62909 0.28386 0.85283 0.0
C615 C 0.63529 0.30907 0.84651 0.0
H616 H 0.62583 0.27501 0.86116 0.0
H617 H 0.63733 0.32045 0.8499 0.0
H618 H 0.64162 0.32886 0.90435 0.0
H619 H 0.61579 0.28774 0.91309 0.0
C620 C 0.6156 0.2691 0.89035 0.0
C621 C 0.58802 0.31538 0.87327 0.0
C622 C 0.67272 0.28933 0.88412 0.0
C623 C 0.64486 0.3371 0.8749 0.0
H624 H 0.56456 0.29068 0.87659 0.0
H625 H 0.57946 0.26536 0.88608 0.0
H626 H 0.64112 0.2472 0.8977 0.0
H627 H 0.67228 0.25815 0.89356 0.0
H628 H 0.69638 0.31359 0.87938 0.0
H629 H 0.68132 0.33981 0.87415 0.0
H630 H 0.61918 0.35927 0.86903 0.0
H631 H 0.58813 0.34719 0.86797 0.0
H632 H 0.64171 0.33408 0.93331 0.0
H633 H 0.61542 0.29243 0.94213 0.0
H634 H 0.63981 0.31455 0.82087 0.0
H635 H 0.6289 0.26847 0.83263 0.0
C636 C 0.66628 0.3583 0.1192 0.0
C637 C 0.64895 0.35591 0.12202 0.0
C638 C 0.64639 0.3587 0.13856 0.0
C639 C 0.66226 0.36263 0.14485 0.0
N640 N 0.67452 0.36241 0.13326 0.0
Co641 Co 0.69905 0.36729 0.13667 0.0
N642 N 0.69741 0.36357 0.16075 0.0
C643 C 0.68294 0.36376 0.1697 0.0
C644 C 0.686 0.36104 0.18628 0.0
C645 C 0.70346 0.3591 0.18777 0.0
C646 C 0.71009 0.3607 0.17192 0.0
N647 N 0.72358 0.37222 0.14005 0.0
C648 C 0.73415 0.36836 0.15282 0.0
C649 C 0.75072 0.37349 0.15001 0.0
C650 C 0.75025 0.3811 0.13511 0.0
C651 C 0.73354 0.38008 0.12957 0.0
N652 N 0.70059 0.37114 0.11257 0.0
C653 C 0.71269 0.37929 0.10486 0.0
C654 C 0.71031 0.37975 0.08793 0.0
C655 C 0.69579 0.3714 0.08492 0.0
C656 C 0.69011 0.36636 0.10026 0.0
N657 N 0.69302 0.38831 0.14012 0.0
C658 C 0.68309 0.41784 0.14676 0.0
C659 C 0.69591 0.41068 0.15631 0.0
C660 C 0.70062 0.396 0.15284 0.0
C661 C 0.67572 0.40997 0.13347 0.0
C662 C 0.68089 0.39527 0.13033 0.0
N663 N 0.70514 0.34626 0.13347 0.0
C664 C 0.72455 0.32769 0.1231 0.0
C665 C 0.71608 0.31636 0.13202 0.0
C666 C 0.70156 0.32033 0.14111 0.0
C667 C 0.69632 0.33527 0.14165 0.0
C668 C 0.71886 0.34252 0.12395 0.0
H669 H 0.68535 0.33798 0.14906 0.0
H670 H 0.72588 0.35103 0.1173 0.0
H671 H 0.71031 0.39079 0.16065 0.0
H672 H 0.67484 0.38943 0.12016 0.0
C673 C 0.66677 0.36382 0.16172 0.0
C674 C 0.67444 0.35763 0.10298 0.0
C675 C 0.72847 0.36068 0.16802 0.0
C676 C 0.72764 0.38359 0.11346 0.0
H677 H 0.63923 0.35257 0.11307 0.0
H678 H 0.63455 0.35739 0.1453 0.0
H679 H 0.67663 0.36001 0.19604 0.0
H680 H 0.71048 0.35689 0.19921 0.0
H681 H 0.762 0.37188 0.1578 0.0
H682 H 0.76101 0.38608 0.1287 0.0
H683 H 0.7186 0.38485 0.07879 0.0
H684 H 0.69015 0.36923 0.07284 0.0
H685 H 0.70231 0.41635 0.16647 0.0
H686 H 0.66571 0.41496 0.12577 0.0
H687 H 0.73587 0.32525 0.11595 0.0
H688 H 0.69433 0.31197 0.1479 0.0
C689 C 0.58035 0.20993 0.6119 0.0
C690 C 0.5667 0.21845 0.60583 0.0
C691 C 0.57352 0.22901 0.59531 0.0
C692 C 0.5909 0.22637 0.5955 0.0
N693 N 0.5954 0.21487 0.60557 0.0
Co694 Co 0.61907 0.20718 0.60914 0.0
N695 N 0.62946 0.22593 0.60046 0.0
C696 C 0.62139 0.23628 0.59094 0.0
C697 C 0.63174 0.24824 0.58713 0.0
C698 C 0.6473 0.24515 0.59463 0.0
C699 C 0.64562 0.23135 0.60254 0.0
N700 N 0.64273 0.19952 0.6128 0.0
C701 C 0.65779 0.2071 0.61389 0.0
C702 C 0.67144 0.19731 0.61634 0.0
C703 C 0.6646 0.18315 0.6168 0.0
C704 C 0.64722 0.18505 0.61457 0.0
N705 N 0.60876 0.18834 0.61763 0.0
C706 C 0.61681 0.17505 0.61901 0.0
C707 C 0.60647 0.16398 0.62531 0.0
C708 C 0.59092 0.1707 0.62792 0.0
C709 C 0.59261 0.18555 0.62292 0.0
N710 N 0.61881 0.19906 0.58676 0.0
C711 C 0.61835 0.18807 0.55449 0.0
C712 C 0.60384 0.18676 0.56443 0.0
C713 C 0.6044 0.19217 0.58061 0.0
C714 C 0.63308 0.19494 0.56097 0.0
C715 C 0.633 0.20047 0.57706 0.0
N716 N 0.61935 0.21535 0.63137 0.0
C717 C 0.62653 0.21298 0.66033 0.0
C718 C 0.62201 0.22796 0.66281 0.0
C719 C 0.61569 0.23634 0.64926 0.0
C720 C 0.61435 0.2298 0.63371 0.0
C721 C 0.62515 0.20691 0.64451 0.0
H722 H 0.60962 0.23657 0.6235 0.0
H723 H 0.62903 0.19546 0.64284 0.0
H724 H 0.59314 0.19082 0.58811 0.0
H725 H 0.64443 0.20596 0.58161 0.0
C726 C 0.60351 0.23569 0.58862 0.0
C727 C 0.5784 0.1964 0.62226 0.0
C728 C 0.65969 0.2233 0.61117 0.0
C729 C 0.63462 0.17406 0.61693 0.0
H730 H 0.55321 0.21704 0.60855 0.0
H731 H 0.56667 0.23784 0.58873 0.0
H732 H 0.6282 0.25835 0.5804 0.0
H733 H 0.6585 0.25231 0.59435 0.0
H734 H 0.68494 0.20009 0.6175 0.0
H735 H 0.67144 0.17278 0.61911 0.0
H736 H 0.60997 0.15253 0.62828 0.0
H737 H 0.57965 0.16525 0.63286 0.0
H738 H 0.59227 0.18139 0.55982 0.0
H739 H 0.64451 0.19622 0.55355 0.0
H740 H 0.63117 0.20599 0.67049 0.0
H741 H 0.61222 0.248 0.65051 0.0
C742 C 0.79433 0.09369 0.14187 0.0
C743 C 0.78225 0.08237 0.14011 0.0
C744 C 0.76678 0.08918 0.13733 0.0
C745 C 0.77027 0.10421 0.13754 0.0
N746 N 0.78704 0.10742 0.14026 0.0
Co747 Co 0.79765 0.12787 0.141 0.0
N748 N 0.77457 0.13786 0.13952 0.0
C749 C 0.7591 0.13098 0.13899 0.0
C750 C 0.74546 0.14066 0.13855 0.0
C751 C 0.75263 0.15459 0.13894 0.0
C752 C 0.77031 0.15259 0.13956 0.0
N753 N 0.80832 0.14831 0.14068 0.0
C754 C 0.80095 0.16207 0.1396 0.0
C755 C 0.81323 0.17334 0.13911 0.0
C756 C 0.82887 0.16648 0.13978 0.0
C757 C 0.82531 0.15147 0.14064 0.0
N758 N 0.82063 0.11787 0.14374 0.0
C759 C 0.83606 0.12474 0.14519 0.0
C760 C 0.84948 0.11508 0.14794 0.0
C761 C 0.84217 0.1012 0.14856 0.0
C762 C 0.82464 0.10322 0.14608 0.0
N763 N 0.79934 0.12751 0.11641 0.0
C764 C 0.80199 0.12712 0.08165 0.0
C765 C 0.81664 0.12736 0.09173 0.0
C766 C 0.81505 0.1277 0.10892 0.0
C767 C 0.78596 0.12704 0.08912 0.0
C768 C 0.78492 0.12706 0.10641 0.0
N769 N 0.79608 0.12812 0.16543 0.0
C770 C 0.80841 0.13404 0.19223 0.0
C771 C 0.79529 0.12628 0.20028 0.0
C772 C 0.78233 0.1198 0.19054 0.0
C773 C 0.78286 0.121 0.1733 0.0
C774 C 0.80858 0.13478 0.17493 0.0
H775 H 0.77258 0.11587 0.16656 0.0
H776 H 0.81906 0.14067 0.16951 0.0
H777 H 0.82679 0.12826 0.11577 0.0
H778 H 0.7723 0.12675 0.11131 0.0
C779 C 0.75789 0.11548 0.13749 0.0
C780 C 0.81238 0.09086 0.14587 0.0
C781 C 0.78249 0.16503 0.13945 0.0
C782 C 0.83753 0.14021 0.14312 0.0
H783 H 0.78431 0.07042 0.14115 0.0
H784 H 0.75437 0.08383 0.13601 0.0
H785 H 0.73194 0.13792 0.13768 0.0
H786 H 0.74562 0.16503 0.13849 0.0
H787 H 0.81109 0.18529 0.13857 0.0
H788 H 0.84136 0.17181 0.14005 0.0
H789 H 0.86298 0.11779 0.14928 0.0
H790 H 0.84896 0.09076 0.15055 0.0
H791 H 0.82933 0.12769 0.08636 0.0
H792 H 0.77428 0.12686 0.08165 0.0
H793 H 0.81854 0.13955 0.19919 0.0
H794 H 0.77194 0.11354 0.19611 0.0
C795 C 0.91044 0.30446 0.6226 0.0
C796 C 0.92377 0.29642 0.61574 0.0
C797 C 0.91676 0.28352 0.60978 0.0
C798 C 0.89962 0.28442 0.61331 0.0
N799 N 0.89515 0.29728 0.62081 0.0
Co800 Co 0.87191 0.30257 0.62955 0.0
N801 N 0.86195 0.2828 0.62262 0.0
C802 C 0.87023 0.27173 0.61466 0.0
C803 C 0.86003 0.25967 0.61106 0.0
C804 C 0.8442 0.26331 0.61682 0.0
C805 C 0.84563 0.27749 0.62358 0.0
N806 N 0.84881 0.30767 0.63879 0.0
C807 C 0.83378 0.29991 0.63851 0.0
C808 C 0.82072 0.30783 0.64602 0.0
C809 C 0.82769 0.32101 0.65119 0.0
C810 C 0.84453 0.32047 0.64654 0.0
N811 N 0.88176 0.32248 0.63609 0.0
C812 C 0.87322 0.33398 0.64298 0.0
C813 C 0.88349 0.34597 0.64672 0.0
C814 C 0.89961 0.34181 0.64222 0.0
C815 C 0.89825 0.32746 0.63595 0.0
N816 N 0.86488 0.31115 0.60768 0.0
C817 C 0.8535 0.32244 0.57671 0.0
C818 C 0.84973 0.3299 0.59133 0.0
C819 C 0.85549 0.3241 0.60655 0.0
C820 C 0.86334 0.30943 0.5778 0.0
C821 C 0.8689 0.30406 0.59326 0.0
N822 N 0.87909 0.29407 0.65132 0.0
C823 C 0.88646 0.29795 0.68013 0.0
C824 C 0.89478 0.28415 0.68096 0.0
C825 C 0.89424 0.27499 0.66707 0.0
C826 C 0.88637 0.28014 0.65246 0.0
C827 C 0.87849 0.30255 0.66535 0.0
H828 H 0.88678 0.27283 0.64215 0.0
H829 H 0.87231 0.31317 0.66546 0.0
H830 H 0.852 0.33022 0.61721 0.0
H831 H 0.87632 0.2941 0.59318 0.0
C832 C 0.88762 0.273 0.61074 0.0
C833 C 0.91309 0.31855 0.63125 0.0
C834 C 0.83102 0.28546 0.63051 0.0
C835 C 0.85617 0.33233 0.64788 0.0
H836 H 0.93724 0.29942 0.61547 0.0
H837 H 0.92346 0.27434 0.60407 0.0
H838 H 0.86365 0.24948 0.60486 0.0
H839 H 0.83284 0.25635 0.61601 0.0
H840 H 0.80739 0.30464 0.64725 0.0
H841 H 0.8211 0.33014 0.65711 0.0
H842 H 0.87985 0.35619 0.65283 0.0
H843 H 0.91116 0.34838 0.644 0.0
H844 H 0.84205 0.34 0.59108 0.0
H845 H 0.86686 0.30342 0.56674 0.0
H846 H 0.88612 0.30516 0.69084 0.0
H847 H 0.90035 0.2641 0.66731 0.0
C848 C 0.38236 0.69631 0.07728 0.0
C849 C 0.39138 0.70378 0.06495 0.0
C850 C 0.40108 0.71444 0.07263 0.0
C851 C 0.39736 0.71306 0.08915 0.0
N852 N 0.38609 0.70194 0.09258 0.0
Co853 Co 0.37538 0.69767 0.11474 0.0
N854 N 0.38808 0.71461 0.12572 0.0
C855 C 0.39986 0.72363 0.11851 0.0
C856 C 0.40649 0.73426 0.1289 0.0
C857 C 0.39861 0.73185 0.14371 0.0
C858 C 0.38762 0.71975 0.14158 0.0
N859 N 0.36405 0.69378 0.13668 0.0
C860 C 0.36558 0.70094 0.15148 0.0
C861 C 0.35543 0.69423 0.1635 0.0
C862 C 0.34705 0.68264 0.15607 0.0
C863 C 0.35257 0.68281 0.14 0.0
N864 N 0.3631 0.68046 0.10396 0.0
C865 C 0.35293 0.67032 0.1116 0.0
C866 C 0.34635 0.65969 0.10117 0.0
C867 C 0.35244 0.6634 0.08586 0.0
C868 C 0.36227 0.67625 0.0878 0.0
N869 N 0.39459 0.68407 0.12112 0.0
C870 C 0.42224 0.66616 0.13211 0.0
C871 C 0.40537 0.66193 0.13534 0.0
C872 C 0.39183 0.67103 0.12982 0.0
C873 C 0.42506 0.6791 0.12275 0.0
C874 C 0.41118 0.68774 0.11731 0.0
N875 N 0.35638 0.71117 0.10819 0.0
C876 C 0.32671 0.71445 0.10005 0.0
C877 C 0.33034 0.72863 0.09356 0.0
C878 C 0.34691 0.7343 0.09535 0.0
C879 C 0.35967 0.72543 0.10266 0.0
C880 C 0.33981 0.70605 0.10752 0.0
H881 H 0.37215 0.73024 0.10331 0.0
H882 H 0.33635 0.69531 0.11237 0.0
H883 H 0.37931 0.66737 0.13305 0.0
H884 H 0.41429 0.69745 0.11028 0.0
C885 C 0.40341 0.72257 0.10159 0.0
C886 C 0.36983 0.6844 0.07381 0.0
C887 C 0.37684 0.71377 0.15495 0.0
C888 C 0.34814 0.67219 0.12809 0.0
H889 H 0.3907 0.70206 0.0517 0.0
H890 H 0.40938 0.72262 0.06679 0.0
H891 H 0.41568 0.74296 0.12595 0.0
H892 H 0.4006 0.73843 0.15476 0.0
H893 H 0.35438 0.69717 0.17643 0.0
H894 H 0.33829 0.67479 0.16181 0.0
H895 H 0.33758 0.65069 0.10419 0.0
H896 H 0.34954 0.65755 0.07447 0.0
H897 H 0.40265 0.65195 0.14261 0.0
H898 H 0.43798 0.68264 0.11975 0.0
H899 H 0.31381 0.7099 0.09939 0.0
H900 H 0.35014 0.74536 0.09072 0.0
C901 C 0.39183 0.82817 0.36442 0.0
C902 C 0.38732 0.84201 0.3577 0.0
C903 C 0.36988 0.84195 0.3558 0.0
C904 C 0.36478 0.82815 0.36146 0.0
N905 N 0.37789 0.81939 0.36694 0.0
Co906 Co 0.37629 0.79847 0.37618 0.0
N907 N 0.35075 0.79835 0.37315 0.0
C908 C 0.34088 0.80909 0.36591 0.0
C909 C 0.32366 0.80589 0.36602 0.0
C910 C 0.32244 0.7924 0.37402 0.0
C911 C 0.33907 0.78819 0.37838 0.0
N912 N 0.3747 0.77771 0.38579 0.0
C913 C 0.36069 0.76962 0.38996 0.0
C914 C 0.36512 0.75599 0.39727 0.0
C915 C 0.38261 0.75552 0.39792 0.0
C916 C 0.38779 0.76885 0.39108 0.0
N917 N 0.40188 0.79851 0.37904 0.0
C918 C 0.41185 0.78725 0.38503 0.0
C919 C 0.42904 0.79054 0.3854 0.0
C920 C 0.43017 0.80471 0.37911 0.0
C921 C 0.41351 0.80923 0.37521 0.0
N922 N 0.3735 0.80672 0.39901 0.0
C923 C 0.36707 0.81688 0.4317 0.0
C924 C 0.37912 0.80559 0.42877 0.0
C925 C 0.38222 0.80082 0.41248 0.0
C926 C 0.35863 0.82316 0.41785 0.0
C927 C 0.36195 0.81796 0.40184 0.0
N928 N 0.37877 0.79006 0.35323 0.0
C929 C 0.38851 0.77054 0.3347 0.0
C930 C 0.38055 0.77744 0.32093 0.0
C931 C 0.37199 0.79092 0.32363 0.0
C932 C 0.37117 0.79689 0.33965 0.0
C933 C 0.38767 0.77707 0.3505 0.0
H934 H 0.36413 0.80701 0.34067 0.0
H935 H 0.39433 0.77134 0.36031 0.0
H936 H 0.39159 0.79222 0.41107 0.0
H937 H 0.35475 0.82303 0.39195 0.0
C938 C 0.34793 0.82277 0.36095 0.0
C939 C 0.40954 0.82364 0.36746 0.0
C940 C 0.34309 0.77478 0.38809 0.0
C941 C 0.40474 0.77377 0.39041 0.0
H942 H 0.3958 0.85109 0.35424 0.0
H943 H 0.36192 0.85079 0.35059 0.0
H944 H 0.31319 0.81283 0.36147 0.0
H945 H 0.31063 0.78652 0.37676 0.0
H946 H 0.35661 0.74745 0.40207 0.0
H947 H 0.39058 0.74675 0.40328 0.0
H948 H 0.4395 0.78345 0.38968 0.0
H949 H 0.44194 0.81097 0.37745 0.0
H950 H 0.38624 0.80049 0.43898 0.0
H951 H 0.34908 0.83182 0.41933 0.0
H952 H 0.39556 0.76021 0.33328 0.0
H953 H 0.36553 0.79672 0.31345 0.0
C954 C 0.19633 0.87471 0.91735 0.0
C955 C 0.20694 0.87944 0.93026 0.0
C956 C 0.21964 0.88796 0.92326 0.0
C957 C 0.21626 0.88786 0.9065 0.0
N958 N 0.20228 0.87973 0.9025 0.0
Co959 Co 0.19342 0.87625 0.8796 0.0
N960 N 0.21548 0.88253 0.8694 0.0
C961 C 0.22799 0.8904 0.87703 0.0
C962 C 0.24182 0.8931 0.86705 0.0
C963 C 0.2377 0.88668 0.85215 0.0
C964 C 0.22144 0.88047 0.85381 0.0
N965 N 0.1845 0.87278 0.85672 0.0
C966 C 0.19296 0.87156 0.84215 0.0
C967 C 0.18146 0.86959 0.82903 0.0
C968 C 0.16531 0.8697 0.83563 0.0
C969 C 0.16779 0.87174 0.85235 0.0
N970 N 0.17138 0.87003 0.88978 0.0
C971 C 0.15608 0.8694 0.88186 0.0
C972 C 0.143 0.86493 0.89206 0.0
C973 C 0.15054 0.86269 0.90738 0.0
C974 C 0.16789 0.86587 0.90566 0.0
N975 N 0.1853 0.89698 0.87827 0.0
C976 C 0.17458 0.92684 0.87634 0.0
C977 C 0.18336 0.92034 0.86323 0.0
C978 C 0.18844 0.90541 0.86436 0.0
C979 C 0.17103 0.91805 0.89038 0.0
C980 C 0.17665 0.90318 0.89117 0.0
N981 N 0.20154 0.85567 0.88083 0.0
C982 C 0.19674 0.82945 0.87638 0.0
C983 C 0.2137 0.82634 0.8812 0.0
C984 C 0.22436 0.83813 0.88612 0.0
C985 C 0.21798 0.85269 0.88601 0.0
C986 C 0.19095 0.84422 0.87615 0.0
H987 H 0.22642 0.86155 0.88995 0.0
H988 H 0.17798 0.84639 0.87198 0.0
H989 H 0.19501 0.90075 0.85395 0.0
H990 H 0.1741 0.89675 0.90227 0.0
C991 C 0.22743 0.89288 0.89415 0.0
C992 C 0.18028 0.86617 0.91963 0.0
C993 C 0.21156 0.87379 0.84002 0.0
C994 C 0.15512 0.87068 0.86451 0.0
H995 H 0.20577 0.87696 0.94336 0.0
H996 H 0.2305 0.89301 0.92959 0.0
H997 H 0.25375 0.89861 0.87038 0.0
H998 H 0.24571 0.88668 0.84128 0.0
H999 H 0.18441 0.86848 0.81601 0.0
H1000 H 0.15324 0.86812 0.82905 0.0
H1001 H 0.12968 0.86305 0.88866 0.0
H1002 H 0.14399 0.85928 0.91856 0.0
H1003 H 0.18617 0.92674 0.85208 0.0
H1004 H 0.16431 0.92273 0.9008 0.0
H1005 H 0.18817 0.82059 0.8724 0.0
H1006 H 0.23751 0.83609 0.89007 0.0
C1007 C 0.12402 0.70589 0.41136 0.0
C1008 C 0.11974 0.71512 0.42441 0.0
C1009 C 0.11431 0.72834 0.41753 0.0
C1010 C 0.1155 0.72645 0.40072 0.0
N1011 N 0.1211 0.71273 0.39641 0.0
Co1012 Co 0.12557 0.70565 0.37325 0.0
N1013 N 0.11951 0.72571 0.36319 0.0
C1014 C 0.11399 0.73786 0.37145 0.0
C1015 C 0.11092 0.75007 0.36143 0.0
C1016 C 0.11466 0.7455 0.34579 0.0
C1017 C 0.11976 0.73065 0.34713 0.0
N1018 N 0.13044 0.69867 0.35012 0.0
C1019 C 0.12991 0.70615 0.33529 0.0
C1020 C 0.13432 0.69691 0.32229 0.0
C1021 C 0.13793 0.6832 0.32909 0.0
C1022 C 0.13547 0.68478 0.34578 0.0
N1023 N 0.13149 0.68555 0.3833 0.0
C1024 C 0.13586 0.6731 0.37495 0.0
C1025 C 0.13997 0.66117 0.38506 0.0
C1026 C 0.13834 0.66632 0.40084 0.0
C1027 C 0.13322 0.68117 0.39947 0.0
N1028 N 0.10122 0.69925 0.37088 0.0
C1029 C 0.06705 0.68892 0.37028 0.0
C1030 C 0.08028 0.68025 0.36396 0.0
C1031 C 0.09709 0.68562 0.36429 0.0
C1032 C 0.07107 0.70307 0.37633 0.0
C1033 C 0.08809 0.70798 0.37648 0.0
N1034 N 0.14973 0.71187 0.37597 0.0
C1035 C 0.17946 0.70469 0.37863 0.0
C1036 C 0.1833 0.71796 0.38688 0.0
C1037 C 0.17035 0.72866 0.38831 0.0
C1038 C 0.15377 0.72543 0.38271 0.0
C1039 C 0.16275 0.702 0.3731 0.0
H1040 H 0.14432 0.73385 0.38446 0.0
H1041 H 0.16051 0.6916 0.36712 0.0
H1042 H 0.10648 0.67845 0.35926 0.0
H1043 H 0.09025 0.7188 0.38137 0.0
C1044 C 0.11245 0.73761 0.38873 0.0
C1045 C 0.13106 0.69083 0.41388 0.0
C1046 C 0.125 0.72186 0.33279 0.0
C1047 C 0.13768 0.67341 0.3577 0.0
H1048 H 0.12071 0.71262 0.43757 0.0
H1049 H 0.11038 0.73828 0.42402 0.0
H1050 H 0.10667 0.76107 0.36509 0.0
H1051 H 0.11386 0.75238 0.33467 0.0
H1052 H 0.1348 0.69974 0.30921 0.0
H1053 H 0.14183 0.67324 0.32261 0.0
H1054 H 0.14433 0.65021 0.3814 0.0
H1055 H 0.14113 0.65996 0.41205 0.0
H1056 H 0.0777 0.66937 0.3587 0.0
H1057 H 0.0612 0.71022 0.38129 0.0
H1058 H 0.18911 0.69613 0.37699 0.0
H1059 H 0.1729 0.73939 0.39396 0.0
C1060 C 0.30046 0.62798 0.90597 0.0
C1061 C 0.28992 0.62263 0.91849 0.0
C1062 C 0.27774 0.61377 0.91105 0.0
C1063 C 0.2813 0.61432 0.89442 0.0
N1064 N 0.29489 0.62306 0.89092 0.0
Co1065 Co 0.30353 0.6277 0.8683 0.0
N1066 N 0.28187 0.62082 0.85742 0.0
C1067 C 0.26986 0.61214 0.86457 0.0
C1068 C 0.25629 0.60902 0.85413 0.0
C1069 C 0.26008 0.61603 0.83941 0.0
C1070 C 0.27587 0.62301 0.84166 0.0
N1071 N 0.31221 0.6325 0.84573 0.0
C1072 C 0.30366 0.63388 0.83096 0.0
C1073 C 0.315 0.63693 0.81821 0.0
C1074 C 0.33114 0.63732 0.82522 0.0
C1075 C 0.32882 0.63448 0.84182 0.0
N1076 N 0.32525 0.63435 0.87917 0.0
C1077 C 0.3405 0.63579 0.87166 0.0
C1078 C 0.3534 0.64022 0.8823 0.0
C1079 C 0.34579 0.6416 0.89747 0.0
C1080 C 0.32857 0.63799 0.89522 0.0
N1081 N 0.31282 0.60741 0.86672 0.0
C1082 C 0.32646 0.57861 0.86394 0.0
C1083 C 0.32768 0.58629 0.87896 0.0
C1084 C 0.32092 0.60075 0.88005 0.0
C1085 C 0.31814 0.58555 0.85044 0.0
C1086 C 0.31129 0.59984 0.85212 0.0
N1087 N 0.2943 0.64786 0.86982 0.0
C1088 C 0.29807 0.67446 0.86723 0.0
C1089 C 0.28107 0.67685 0.8721 0.0
C1090 C 0.27087 0.66433 0.87579 0.0
C1091 C 0.27776 0.64999 0.8747 0.0
C1092 C 0.30436 0.65992 0.86603 0.0
H1093 H 0.26966 0.64062 0.87778 0.0
H1094 H 0.31742 0.65843 0.86211 0.0
H1095 H 0.32232 0.60655 0.89165 0.0
H1096 H 0.30478 0.60473 0.84152 0.0
C1097 C 0.27048 0.60919 0.88167 0.0
C1098 C 0.31614 0.63698 0.9088 0.0
C1099 C 0.2853 0.63059 0.82824 0.0
C1100 C 0.34147 0.6354 0.85431 0.0
H1101 H 0.29075 0.62493 0.93162 0.0
H1102 H 0.26705 0.60822 0.91698 0.0
H1103 H 0.24474 0.60282 0.85702 0.0
H1104 H 0.25216 0.61591 0.82827 0.0
H1105 H 0.31197 0.63837 0.80513 0.0
H1106 H 0.3431 0.63965 0.81899 0.0
H1107 H 0.36662 0.64269 0.8793 0.0
H1108 H 0.35222 0.64477 0.90889 0.0
H1109 H 0.33408 0.58128 0.88967 0.0
H1110 H 0.31674 0.57988 0.83868 0.0
H1111 H 0.30657 0.68373 0.86451 0.0
H1112 H 0.25758 0.66552 0.87932 0.0
C1113 C 0.11893 0.80232 0.08717 0.0
C1114 C 0.11426 0.79272 0.07444 0.0
C1115 C 0.10862 0.77982 0.08175 0.0
C1116 C 0.11027 0.78215 0.09847 0.0
N1117 N 0.11627 0.79591 0.10235 0.0
Co1118 Co 0.12281 0.80307 0.12519 0.0
N1119 N 0.11697 0.78325 0.13578 0.0
C1120 C 0.1102 0.77124 0.12798 0.0
C1121 C 0.10723 0.75927 0.13834 0.0
C1122 C 0.11225 0.76393 0.15373 0.0
C1123 C 0.118 0.77856 0.15191 0.0
N1124 N 0.13005 0.81006 0.14788 0.0
C1125 C 0.13037 0.80276 0.16283 0.0
C1126 C 0.13642 0.81196 0.17539 0.0
C1127 C 0.1401 0.82547 0.16819 0.0
C1128 C 0.1361 0.82382 0.1517 0.0
N1129 N 0.12825 0.82297 0.11466 0.0
C1130 C 0.13306 0.83555 0.12265 0.0
C1131 C 0.13636 0.84739 0.11219 0.0
C1132 C 0.13382 0.84198 0.09656 0.0
C1133 C 0.12923 0.82705 0.09837 0.0
N1134 N 0.0989 0.80988 0.12899 0.0
C1135 C 0.06502 0.81987 0.13374 0.0
C1136 C 0.07903 0.82813 0.13953 0.0
C1137 C 0.09568 0.82297 0.13707 0.0
C1138 C 0.06821 0.80645 0.12568 0.0
C1139 C 0.08509 0.80171 0.12346 0.0
N1140 N 0.14648 0.79643 0.12108 0.0
C1141 C 0.17542 0.80358 0.11435 0.0
C1142 C 0.17785 0.79006 0.10619 0.0
C1143 C 0.165 0.77917 0.10723 0.0
C1144 C 0.14954 0.78254 0.11482 0.0
C1145 C 0.15981 0.8064 0.12195 0.0
H1146 H 0.13998 0.774 0.11481 0.0
H1147 H 0.15848 0.81702 0.12768 0.0
H1148 H 0.10567 0.8298 0.14189 0.0
H1149 H 0.08657 0.79142 0.11719 0.0
C1150 C 0.10759 0.77129 0.11078 0.0
C1151 C 0.12673 0.81705 0.08425 0.0
C1152 C 0.12447 0.7874 0.16589 0.0
C1153 C 0.1369 0.83521 0.13967 0.0
H1154 H 0.11536 0.79458 0.06121 0.0
H1155 H 0.10451 0.7697 0.0756 0.0
H1156 H 0.10218 0.7484 0.13505 0.0
H1157 H 0.11183 0.75725 0.165 0.0
H1158 H 0.13776 0.80928 0.18847 0.0
H1159 H 0.1448 0.8354 0.17432 0.0
H1160 H 0.14095 0.85841 0.11549 0.0
H1161 H 0.13571 0.84817 0.08511 0.0
H1162 H 0.07719 0.83848 0.14615 0.0
H1163 H 0.05775 0.79969 0.12088 0.0
H1164 H 0.18514 0.81225 0.11424 0.0
H1165 H 0.16667 0.76823 0.10185 0.0
C1166 C 0.19494 0.62904 0.58234 0.0
C1167 C 0.20513 0.62441 0.56937 0.0
C1168 C 0.21945 0.61802 0.5764 0.0
C1169 C 0.21717 0.61898 0.59321 0.0
N1170 N 0.20217 0.62547 0.59733 0.0
Co1171 Co 0.19382 0.6289 0.62041 0.0
N1172 N 0.21653 0.62295 0.63066 0.0
C1173 C 0.23063 0.61857 0.62238 0.0
C1174 C 0.24474 0.61623 0.63242 0.0
C1175 C 0.23942 0.61948 0.64805 0.0
C1176 C 0.22222 0.62348 0.6467 0.0
N1177 N 0.18522 0.63172 0.64352 0.0
C1178 C 0.19351 0.63073 0.65847 0.0
C1179 C 0.18234 0.633 0.67148 0.0
C1180 C 0.16654 0.63574 0.66452 0.0
C1181 C 0.16888 0.63488 0.64773 0.0
N1182 N 0.17154 0.63589 0.61009 0.0
C1183 C 0.1574 0.64021 0.61834 0.0
C1184 C 0.1446 0.64577 0.6082 0.0
C1185 C 0.15104 0.64525 0.59254 0.0
C1186 C 0.16743 0.6392 0.59398 0.0
N1187 N 0.1855 0.60772 0.62138 0.0
C1188 C 0.17413 0.5778 0.6254 0.0
C1189 C 0.16251 0.5897 0.62514 0.0
C1190 C 0.16839 0.60439 0.62311 0.0
C1191 C 0.19147 0.58112 0.62305 0.0
C1192 C 0.19679 0.59595 0.62098 0.0
N1193 N 0.20205 0.64974 0.61958 0.0
C1194 C 0.19903 0.6756 0.6272 0.0
C1195 C 0.21435 0.67931 0.61926 0.0
C1196 C 0.22322 0.66794 0.61123 0.0
C1197 C 0.21696 0.65333 0.61164 0.0
C1198 C 0.19309 0.66088 0.6271 0.0
H1199 H 0.22441 0.64508 0.60551 0.0
H1200 H 0.18129 0.65871 0.63332 0.0
H1201 H 0.15874 0.61279 0.62312 0.0
H1202 H 0.21018 0.59748 0.61932 0.0
C1203 C 0.22998 0.6164 0.60522 0.0
C1204 C 0.17875 0.63715 0.57978 0.0
C1205 C 0.21188 0.62776 0.66097 0.0
C1206 C 0.15671 0.63902 0.63563 0.0
H1207 H 0.20269 0.62588 0.5562 0.0
H1208 H 0.23059 0.61388 0.57001 0.0
H1209 H 0.25741 0.61266 0.6288 0.0
H1210 H 0.24735 0.61901 0.65917 0.0
H1211 H 0.18534 0.63291 0.68463 0.0
H1212 H 0.15487 0.63856 0.67094 0.0
H1213 H 0.13219 0.65 0.61181 0.0
H1214 H 0.14448 0.64911 0.58138 0.0
H1215 H 0.14887 0.58774 0.62651 0.0
H1216 H 0.20107 0.57236 0.62323 0.0
H1217 H 0.19176 0.68393 0.63378 0.0
H1218 H 0.23495 0.67025 0.60461 0.0
C1219 C 0.30304 0.8776 0.59774 0.0
C1220 C 0.29337 0.88336 0.58453 0.0
C1221 C 0.28111 0.89242 0.5912 0.0
C1222 C 0.28379 0.89162 0.60806 0.0
N1223 N 0.29693 0.88256 0.61241 0.0
Co1224 Co 0.30456 0.87784 0.63553 0.0
N1225 N 0.28254 0.88482 0.645 0.0
C1226 C 0.27088 0.89351 0.63706 0.0
C1227 C 0.25682 0.89652 0.64655 0.0
C1228 C 0.25991 0.88941 0.66147 0.0
C1229 C 0.27582 0.88252 0.66031 0.0
N1230 N 0.31233 0.8732 0.65864 0.0
C1231 C 0.30324 0.87194 0.67287 0.0
C1232 C 0.3141 0.86908 0.68635 0.0
C1233 C 0.33049 0.86864 0.68032 0.0
C1234 C 0.32879 0.87128 0.66356 0.0
N1235 N 0.3265 0.8708 0.62605 0.0
C1236 C 0.34143 0.86915 0.63447 0.0
C1237 C 0.3545 0.86419 0.62466 0.0
C1238 C 0.34734 0.86269 0.6091 0.0
C1239 C 0.33022 0.86679 0.61028 0.0
N1240 N 0.31404 0.89804 0.63758 0.0
C1241 C 0.32768 0.92692 0.64103 0.0
C1242 C 0.33049 0.91867 0.62661 0.0
C1243 C 0.32355 0.90428 0.62512 0.0
C1244 C 0.31774 0.9204 0.65356 0.0
C1245 C 0.31116 0.90602 0.65164 0.0
N1246 N 0.29513 0.85777 0.63357 0.0
C1247 C 0.29783 0.83127 0.6381 0.0
C1248 C 0.28167 0.829 0.63077 0.0
C1249 C 0.27237 0.84137 0.62484 0.0
C1250 C 0.27928 0.85568 0.62649 0.0
C1251 C 0.30439 0.84574 0.63926 0.0
H1252 H 0.27177 0.86504 0.62204 0.0
H1253 H 0.31697 0.84719 0.64474 0.0
H1254 H 0.32593 0.89818 0.61391 0.0
H1255 H 0.30369 0.9014 0.66161 0.0
C1256 C 0.2724 0.89668 0.62007 0.0
C1257 C 0.31832 0.86803 0.59597 0.0
C1258 C 0.28473 0.87498 0.67436 0.0
C1259 C 0.34183 0.86992 0.65184 0.0
H1260 H 0.29484 0.88117 0.57146 0.0
H1261 H 0.27089 0.89824 0.58457 0.0
H1262 H 0.24542 0.90271 0.64291 0.0
H1263 H 0.25145 0.88943 0.67201 0.0
H1264 H 0.31059 0.86774 0.69923 0.0
H1265 H 0.34218 0.86632 0.6873 0.0
H1266 H 0.36752 0.86146 0.62847 0.0
H1267 H 0.35399 0.85914 0.59812 0.0
H1268 H 0.33818 0.92317 0.61663 0.0
H1269 H 0.31484 0.9264 0.66478 0.0
H1270 H 0.30544 0.82193 0.64269 0.0
H1271 H 0.25975 0.84002 0.61922 0.0
C1272 C 0.13983 0.20248 0.78317 0.0
C1273 C 0.12505 0.19349 0.78339 0.0
C1274 C 0.13929 0.21683 0.77614 0.0
C1275 C 0.11316 0.24103 0.74776 0.0
H1276 H 0.14062 0.27253 0.7675 0.0
C1277 C 0.12131 0.2987 0.71582 0.0
C1278 C 0.12231 0.31143 0.72589 0.0
C1279 C 0.12138 0.28435 0.72287 0.0
C1280 C 0.1327 0.26394 0.76192 0.0
H1281 H 0.09804 0.19247 0.77671 0.0
H1282 H 0.09689 0.2177 0.76485 0.0
H1283 H 0.14078 0.24771 0.78006 0.0
H1284 H 0.1242 0.31892 0.7514 0.0
H1285 H 0.12349 0.29401 0.76369 0.0
H1286 H 0.10455 0.25743 0.73001 0.0
C1287 C 0.10906 0.21356 0.76968 0.0
C1288 C 0.133 0.2496 0.76899 0.0
C1289 C 0.10967 0.19913 0.77654 0.0
C1290 C 0.12318 0.30942 0.74323 0.0
C1291 C 0.12305 0.29508 0.75029 0.0
C1292 C 0.11271 0.25542 0.74079 0.0
C1293 C 0.12388 0.22259 0.76935 0.0
C1294 C 0.12331 0.23793 0.76196 0.0
C1295 C 0.12226 0.28234 0.74021 0.0
C1296 C 0.12253 0.26705 0.74774 0.0
H1297 H 0.15192 0.1983 0.78817 0.0
H1298 H 0.15104 0.2233 0.77582 0.0
H1299 H 0.10569 0.23231 0.74186 0.0
H1300 H 0.12038 0.29979 0.70244 0.0
H1301 H 0.12097 0.27483 0.71469 0.0
C1302 C 0.69002 0.59243 0.22325 0.0
C1303 C 0.68047 0.60296 0.23201 0.0
C1304 C 0.70775 0.59125 0.22596 0.0
C1305 C 0.74311 0.61545 0.23773 0.0
H1306 H 0.7702 0.57948 0.24464 0.0
C1307 C 0.81508 0.62055 0.2464 0.0
C1308 C 0.82108 0.61355 0.26098 0.0
C1309 C 0.79928 0.61641 0.2395 0.0
C1310 C 0.76277 0.58958 0.2426 0.0
H1311 H 0.68147 0.62022 0.25061 0.0
H1312 H 0.71234 0.61798 0.25564 0.0
H1313 H 0.73892 0.57754 0.24084 0.0
H1314 H 0.81623 0.59626 0.27932 0.0
H1315 H 0.78834 0.58918 0.26751 0.0
H1316 H 0.76653 0.62761 0.24003 0.0
C1317 C 0.70624 0.61066 0.24668 0.0
C1318 C 0.74495 0.58847 0.24039 0.0
C1319 C 0.68861 0.61183 0.24399 0.0
C1320 C 0.81174 0.6017 0.26798 0.0
C1321 C 0.79588 0.59762 0.26116 0.0
C1322 C 0.76081 0.61656 0.23983 0.0
C1323 C 0.71605 0.60074 0.2373 0.0
C1324 C 0.73497 0.60145 0.23837 0.0
C1325 C 0.78917 0.60538 0.24726 0.0
C1326 C 0.77082 0.60369 0.2426 0.0
H1327 H 0.6839 0.58571 0.21375 0.0
H1328 H 0.71508 0.58357 0.21853 0.0
H1329 H 0.73572 0.62561 0.23589 0.0
H1330 H 0.82214 0.62977 0.24092 0.0
H1331 H 0.79453 0.62243 0.22863 0.0
C1332 C 0.36392 0.3036 0.77755 0.0
C1333 C 0.37928 0.31177 0.77875 0.0
C1334 C 0.36378 0.28937 0.77057 0.0
C1335 C 0.3894 0.26459 0.74372 0.0
H1336 H 0.35929 0.23394 0.76142 0.0
C1337 C 0.37983 0.20787 0.71127 0.0
C1338 C 0.37805 0.19505 0.72137 0.0
C1339 C 0.37994 0.22212 0.71823 0.0
C1340 C 0.36793 0.2423 0.75642 0.0
H1341 H 0.4066 0.3114 0.77401 0.0
H1342 H 0.4065 0.28638 0.76226 0.0
H1343 H 0.36005 0.25845 0.77411 0.0
H1344 H 0.37478 0.18725 0.74676 0.0
H1345 H 0.37576 0.21196 0.75891 0.0
H1346 H 0.39778 0.24825 0.72645 0.0
C1347 C 0.39445 0.29108 0.76625 0.0
C1348 C 0.36817 0.25646 0.76356 0.0
C1349 C 0.39454 0.30539 0.77305 0.0
C1350 C 0.37645 0.19684 0.7386 0.0
C1351 C 0.37673 0.21106 0.74557 0.0
C1352 C 0.38928 0.25038 0.73668 0.0
C1353 C 0.37905 0.28292 0.76481 0.0
C1354 C 0.37888 0.2678 0.75728 0.0
C1355 C 0.37841 0.2239 0.73547 0.0
C1356 C 0.37853 0.23905 0.74293 0.0
H1357 H 0.35194 0.30836 0.78166 0.0
H1358 H 0.35163 0.28354 0.76941 0.0
H1359 H 0.39763 0.27309 0.73839 0.0
H1360 H 0.38129 0.20692 0.69798 0.0
H1361 H 0.38104 0.23175 0.71003 0.0
C1362 C 0.69043 0.884 0.29889 0.0
C1363 C 0.68023 0.87258 0.29216 0.0
C1364 C 0.70722 0.88611 0.29344 0.0
C1365 C 0.73305 0.8813 0.257 0.0
H1366 H 0.77276 0.88442 0.28641 0.0
C1367 C 0.8098 0.87751 0.24959 0.0
C1368 C 0.81225 0.88811 0.23689 0.0
C1369 C 0.79423 0.87692 0.25797 0.0
C1370 C 0.76174 0.88362 0.27811 0.0
H1371 H 0.67938 0.8541 0.27507 0.0
H1372 H 0.70871 0.858 0.26517 0.0
H1373 H 0.74417 0.88016 0.2981 0.0
H1374 H 0.80107 0.90681 0.22334 0.0
H1375 H 0.77356 0.90562 0.23779 0.0
H1376 H 0.75048 0.88476 0.23702 0.0
C1377 C 0.70375 0.86529 0.27463 0.0
C1378 C 0.74546 0.88124 0.28477 0.0
C1379 C 0.68708 0.86304 0.28026 0.0
C1380 C 0.79928 0.8985 0.23306 0.0
C1381 C 0.78364 0.8978 0.24127 0.0
C1382 C 0.74923 0.88391 0.25038 0.0
C1383 C 0.71387 0.87694 0.28104 0.0
C1384 C 0.73104 0.87989 0.27423 0.0
C1385 C 0.78089 0.88683 0.25358 0.0
C1386 C 0.76372 0.88497 0.26086 0.0
H1387 H 0.68528 0.89143 0.30811 0.0
H1388 H 0.7148 0.8952 0.2985 0.0
H1389 H 0.72207 0.88042 0.24866 0.0
H1390 H 0.81973 0.86942 0.25265 0.0
H1391 H 0.79234 0.86832 0.26734 0.0
C1392 C 0.77944 0.12488 0.22711 0.0
C1393 C 0.79512 0.12482 0.21866 0.0
C1394 C 0.7791 0.12278 0.24425 0.0
C1395 C 0.80179 0.12823 0.28245 0.0
H1396 H 0.77032 0.09803 0.29888 0.0
C1397 C 0.76384 0.10573 0.34463 0.0
C1398 C 0.75654 0.11945 0.34897 0.0
C1399 C 0.77534 0.10505 0.33154 0.0
C1400 C 0.77952 0.10627 0.29463 0.0
H1401 H 0.8228 0.12274 0.22178 0.0
H1402 H 0.82211 0.11966 0.25201 0.0
H1403 H 0.7766 0.09929 0.26945 0.0
H1404 H 0.75629 0.14328 0.34418 0.0
H1405 H 0.77621 0.14215 0.32108 0.0
H1406 H 0.80386 0.13579 0.30758 0.0
C1407 C 0.81016 0.12117 0.24515 0.0
C1408 C 0.78296 0.10706 0.27774 0.0
C1409 C 0.81051 0.12303 0.22789 0.0
C1410 C 0.762 0.13264 0.3411 0.0
C1411 C 0.77344 0.13196 0.32793 0.0
C1412 C 0.79821 0.12754 0.29941 0.0
C1413 C 0.79442 0.12081 0.25337 0.0
C1414 C 0.79361 0.11836 0.27145 0.0
C1415 C 0.77944 0.11805 0.32244 0.0
C1416 C 0.78658 0.11685 0.30556 0.0
H1417 H 0.76739 0.12661 0.22052 0.0
H1418 H 0.76683 0.1228 0.25043 0.0
H1419 H 0.81006 0.13704 0.27779 0.0
H1420 H 0.75956 0.0954 0.3504 0.0
H1421 H 0.77991 0.0942 0.32767 0.0
C1422 C 0.91545 0.28894 0.70429 0.0
C1423 C 0.90383 0.27931 0.69628 0.0
C1424 C 0.92342 0.28458 0.7192 0.0
C1425 C 0.92963 0.25161 0.74764 0.0
H1426 H 0.92891 0.28169 0.78189 0.0
C1427 C 0.9293 0.23278 0.81497 0.0
C1428 C 0.91648 0.23978 0.82412 0.0
C1429 C 0.93519 0.23939 0.80033 0.0
C1430 C 0.92923 0.27313 0.77248 0.0
H1431 H 0.89161 0.25757 0.69723 0.0
H1432 H 0.90487 0.25014 0.7235 0.0
H1433 H 0.92441 0.2891 0.7531 0.0
H1434 H 0.90044 0.25938 0.82607 0.0
H1435 H 0.9099 0.27061 0.80017 0.0
H1436 H 0.93259 0.23544 0.76703 0.0
C1437 C 0.90838 0.26085 0.71814 0.0
C1438 C 0.9269 0.27742 0.75589 0.0
C1439 C 0.90062 0.26513 0.70314 0.0
C1440 C 0.91041 0.25388 0.81915 0.0
C1441 C 0.91599 0.26034 0.80434 0.0
C1442 C 0.93159 0.24728 0.76423 0.0
C1443 C 0.91973 0.27059 0.72647 0.0
C1444 C 0.92621 0.2666 0.74337 0.0
C1445 C 0.92795 0.25289 0.79438 0.0
C1446 C 0.93054 0.25791 0.77693 0.0
H1447 H 0.91831 0.29986 0.69904 0.0
H1448 H 0.93227 0.29226 0.72515 0.0
H1449 H 0.92975 0.24304 0.73825 0.0
H1450 H 0.93423 0.22192 0.81879 0.0
H1451 H 0.94475 0.23353 0.79326 0.0
C1452 C 0.79482 0.37222 0.29818 0.0
C1453 C 0.79383 0.36094 0.3103 0.0
C1454 C 0.79145 0.36893 0.28159 0.0
C1455 C 0.7674 0.34289 0.2557 0.0
H1456 H 0.79193 0.36323 0.22043 0.0
C1457 C 0.74274 0.34288 0.18792 0.0
C1458 C 0.74087 0.35749 0.18162 0.0
C1459 C 0.75268 0.34022 0.20223 0.0
C1460 C 0.78507 0.35736 0.23014 0.0
H1461 H 0.78903 0.33747 0.31505 0.0
H1462 H 0.783 0.33159 0.28583 0.0
H1463 H 0.80305 0.3642 0.24887 0.0
H1464 H 0.74752 0.38076 0.18517 0.0
H1465 H 0.76518 0.37615 0.20988 0.0
H1466 H 0.74903 0.33659 0.23706 0.0
C1467 C 0.78628 0.34297 0.28912 0.0
C1468 C 0.79138 0.35796 0.2464 0.0
C1469 C 0.7897 0.34628 0.30574 0.0
C1470 C 0.74927 0.36935 0.18955 0.0
C1471 C 0.75934 0.36669 0.20367 0.0
C1472 C 0.76111 0.34225 0.23942 0.0
C1473 C 0.78706 0.35429 0.27689 0.0
C1474 C 0.78223 0.35125 0.25942 0.0
C1475 C 0.76091 0.35216 0.21033 0.0
C1476 C 0.76954 0.34998 0.22662 0.0
H1477 H 0.79804 0.38358 0.3016 0.0
H1478 H 0.79183 0.37795 0.27251 0.0
H1479 H 0.76002 0.33767 0.26549 0.0
H1480 H 0.73606 0.33365 0.18208 0.0
H1481 H 0.75363 0.32893 0.20719 0.0
C1482 C 0.63876 0.23146 0.68927 0.0
C1483 C 0.62434 0.23497 0.67927 0.0
C1484 C 0.64117 0.23831 0.70459 0.0
C1485 C 0.63055 0.27161 0.72792 0.0
H1486 H 0.63893 0.24658 0.76679 0.0
C1487 C 0.62592 0.29348 0.79482 0.0
C1488 C 0.63653 0.28691 0.80703 0.0
C1489 C 0.62599 0.28812 0.77861 0.0
C1490 C 0.63696 0.25379 0.75604 0.0
H1491 H 0.60104 0.24829 0.67767 0.0
H1492 H 0.60555 0.26049 0.7043 0.0
H1493 H 0.63597 0.23512 0.73966 0.0
H1494 H 0.6563 0.27039 0.81198 0.0
H1495 H 0.65704 0.26141 0.78353 0.0
H1496 H 0.63173 0.29032 0.74421 0.0
C1497 C 0.61497 0.25249 0.70016 0.0
C1498 C 0.63517 0.24719 0.74053 0.0
C1499 C 0.61243 0.24551 0.68493 0.0
C1500 C 0.64789 0.27549 0.8027 0.0
C1501 C 0.64819 0.2703 0.78648 0.0
C1502 C 0.63257 0.27826 0.74342 0.0
C1503 C 0.62934 0.24892 0.71011 0.0
C1504 C 0.63181 0.25603 0.72638 0.0
C1505 C 0.63688 0.27624 0.77435 0.0
C1506 C 0.63567 0.2694 0.75769 0.0
H1507 H 0.64836 0.22363 0.68515 0.0
H1508 H 0.65243 0.23548 0.71203 0.0
H1509 H 0.62813 0.27865 0.7171 0.0
H1510 H 0.61698 0.30225 0.798 0.0
H1511 H 0.61699 0.29286 0.76964 0.0
C1512 C 0.31386 0.75234 0.09042 0.0
C1513 C 0.31676 0.73762 0.0854 0.0
C1514 C 0.29983 0.76031 0.08409 0.0
C1515 C 0.27006 0.77656 0.0685 0.0
H1516 H 0.22955 0.7515 0.07171 0.0
C1517 C 0.19245 0.7796 0.08137 0.0
C1518 C 0.1935 0.78736 0.09645 0.0
C1519 C 0.2073 0.77609 0.07275 0.0
C1520 C 0.24068 0.75867 0.07027 0.0
H1521 H 0.30845 0.72006 0.06881 0.0
H1522 H 0.28404 0.73413 0.05738 0.0
H1523 H 0.25743 0.73995 0.06912 0.0
H1524 H 0.21088 0.79822 0.11383 0.0
H1525 H 0.23675 0.79218 0.09874 0.0
H1526 H 0.25315 0.79522 0.07137 0.0
C1527 C 0.29228 0.73939 0.06654 0.0
C1528 C 0.25674 0.75205 0.06874 0.0
C1529 C 0.30618 0.73133 0.07309 0.0
C1530 C 0.20961 0.79231 0.10221 0.0
C1531 C 0.22442 0.78893 0.09351 0.0
C1532 C 0.25398 0.78317 0.07027 0.0
C1533 C 0.28855 0.75376 0.07245 0.0
C1534 C 0.2717 0.76088 0.06882 0.0
C1535 C 0.22343 0.78045 0.07896 0.0
C1536 C 0.2393 0.77421 0.07207 0.0
H1537 H 0.32187 0.75739 0.09993 0.0
H1538 H 0.29725 0.77122 0.08919 0.0
H1539 H 0.28131 0.78368 0.06809 0.0
H1540 H 0.18016 0.77599 0.07636 0.0
H1541 H 0.20625 0.76957 0.06153 0.0
C1542 C 0.32333 0.753 0.38774 0.0
C1543 C 0.32908 0.76602 0.3955 0.0
C1544 C 0.30929 0.74525 0.39401 0.0
C1545 C 0.26997 0.75299 0.41561 0.0
H1546 H 0.26326 0.71047 0.40897 0.0
C1547 C 0.20257 0.72777 0.40943 0.0
C1548 C 0.20061 0.72059 0.39407 0.0
C1549 C 0.21892 0.73085 0.41584 0.0
C1550 C 0.265 0.72231 0.41115 0.0
H1551 H 0.32556 0.78107 0.41599 0.0
H1552 H 0.30075 0.76747 0.42712 0.0
H1553 H 0.29234 0.72073 0.40963 0.0
H1554 H 0.21425 0.71062 0.37365 0.0
H1555 H 0.24269 0.71587 0.38488 0.0
H1556 H 0.24262 0.75471 0.41618 0.0
C1557 C 0.30703 0.76324 0.41621 0.0
C1558 C 0.28159 0.72819 0.41148 0.0
C1559 C 0.32111 0.77101 0.4099 0.0
C1560 C 0.2153 0.71601 0.38559 0.0
C1561 C 0.2316 0.71895 0.39207 0.0
C1562 C 0.2534 0.7471 0.41539 0.0
C1563 C 0.30077 0.75045 0.40812 0.0
C1564 C 0.28414 0.7437 0.41273 0.0
C1565 C 0.23356 0.72663 0.40709 0.0
C1566 C 0.25077 0.73186 0.41221 0.0
H1567 H 0.3294 0.74911 0.37656 0.0
H1568 H 0.30457 0.73564 0.38726 0.0
H1569 H 0.27149 0.765 0.41653 0.0
H1570 H 0.19148 0.73113 0.41645 0.0
H1571 H 0.22014 0.73678 0.42745 0.0
C1572 C 0.21167 0.79913 0.88848 0.0
C1573 C 0.22041 0.81093 0.88062 0.0
C1574 C 0.21808 0.78456 0.88786 0.0
C1575 C 0.24354 0.75993 0.8627 0.0
H1576 H 0.25188 0.7371 0.90321 0.0
C1577 C 0.27904 0.70352 0.86202 0.0
C1578 C 0.27399 0.69225 0.87325 0.0
C1579 C 0.27242 0.71798 0.8631 0.0
C1580 C 0.24936 0.74319 0.89175 0.0
H1581 H 0.24245 0.81687 0.86579 0.0
H1582 H 0.25348 0.79127 0.86439 0.0
H1583 H 0.23996 0.76228 0.90471 0.0
H1584 H 0.25805 0.68753 0.8946 0.0
H1585 H 0.24579 0.71242 0.89588 0.0
H1586 H 0.25235 0.74084 0.84961 0.0
C1587 C 0.2418 0.79334 0.87114 0.0
C1588 C 0.24262 0.75763 0.89265 0.0
C1589 C 0.23557 0.80794 0.87203 0.0
C1590 C 0.26206 0.69582 0.88556 0.0
C1591 C 0.25523 0.71022 0.88647 0.0
C1592 C 0.24999 0.7454 0.86176 0.0
C1593 C 0.23313 0.78155 0.87909 0.0
C1594 C 0.23979 0.76614 0.87814 0.0
C1595 C 0.26034 0.7215 0.87528 0.0
C1596 C 0.25312 0.73687 0.87628 0.0
H1597 H 0.19998 0.80122 0.89522 0.0
H1598 H 0.21116 0.7756 0.89401 0.0
H1599 H 0.24127 0.76626 0.85133 0.0
H1600 H 0.288 0.70119 0.85222 0.0
H1601 H 0.2769 0.72641 0.85443 0.0
C1602 C 0.21004 0.70718 0.61896 0.0
C1603 C 0.2212 0.69482 0.61963 0.0
C1604 C 0.2165 0.72173 0.61986 0.0
C1605 C 0.25537 0.74277 0.63292 0.0
H1606 H 0.23358 0.77503 0.60794 0.0
C1607 C 0.27427 0.80418 0.64325 0.0
C1608 C 0.27452 0.81377 0.62935 0.0
C1609 C 0.26752 0.78978 0.64194 0.0
C1610 C 0.23996 0.76613 0.61486 0.0
H1611 H 0.24796 0.68816 0.62173 0.0
H1612 H 0.25922 0.71346 0.62242 0.0
H1613 H 0.22275 0.74965 0.60519 0.0
H1614 H 0.26818 0.81591 0.60318 0.0
H1615 H 0.25689 0.79055 0.60068 0.0
H1616 H 0.27305 0.7591 0.64203 0.0
C1617 C 0.24544 0.71193 0.62163 0.0
C1618 C 0.23357 0.75159 0.61348 0.0
C1619 C 0.23898 0.69739 0.62095 0.0
C1620 C 0.26796 0.80873 0.61411 0.0
C1621 C 0.26143 0.79424 0.61272 0.0
C1622 C 0.26189 0.75726 0.63414 0.0
C1623 C 0.23428 0.72428 0.62125 0.0
C1624 C 0.24116 0.73974 0.62253 0.0
C1625 C 0.26111 0.78458 0.62664 0.0
C1626 C 0.25423 0.76914 0.62519 0.0
H1627 H 0.19629 0.70565 0.6177 0.0
H1628 H 0.20749 0.73096 0.61972 0.0
H1629 H 0.2614 0.73398 0.64029 0.0
H1630 H 0.27908 0.80792 0.65518 0.0
H1631 H 0.26716 0.78278 0.65299 0.0
C1632 C 0.87223 0.81509 0.24398 0.0
C1633 C 0.87285 0.81873 0.22695 0.0
C1634 C 0.87311 0.80017 0.24944 0.0
C1635 C 0.88551 0.76188 0.236 0.0
H1636 H 0.85758 0.74943 0.27316 0.0
C1637 C 0.87577 0.69953 0.25502 0.0
C1638 C 0.87593 0.69603 0.27211 0.0
C1639 C 0.87602 0.71444 0.24946 0.0
C1640 C 0.8656 0.75274 0.26288 0.0
H1641 H 0.87525 0.80932 0.20238 0.0
H1642 H 0.87623 0.78338 0.21184 0.0
H1643 H 0.85669 0.77535 0.26359 0.0
H1644 H 0.87713 0.7057 0.2967 0.0
H1645 H 0.87733 0.73161 0.28701 0.0
H1646 H 0.89419 0.73914 0.23519 0.0
C1647 C 0.8753 0.79207 0.22103 0.0
C1648 C 0.86513 0.76766 0.25739 0.0
C1649 C 0.87449 0.807 0.21557 0.0
C1650 C 0.87661 0.7079 0.28346 0.0
C1651 C 0.87676 0.72279 0.2779 0.0
C1652 C 0.88589 0.74693 0.24144 0.0
C1653 C 0.87456 0.78843 0.23805 0.0
C1654 C 0.87511 0.77247 0.24389 0.0
C1655 C 0.87634 0.72627 0.26083 0.0
C1656 C 0.87597 0.74218 0.25497 0.0
H1657 H 0.87077 0.82374 0.25314 0.0
H1658 H 0.87275 0.79788 0.26266 0.0
H1659 H 0.89359 0.76517 0.22575 0.0
H1660 H 0.87501 0.69075 0.24589 0.0
H1661 H 0.87551 0.71671 0.23623 0.0
C1662 C 0.19217 0.36501 0.72518 0.0
C1663 C 0.18384 0.37854 0.72133 0.0
C1664 C 0.20859 0.365 0.73254 0.0
C1665 C 0.23913 0.38915 0.75611 0.0
H1666 H 0.27274 0.35981 0.74277 0.0
C1667 C 0.31061 0.39234 0.77701 0.0
C1668 C 0.3189 0.37886 0.78119 0.0
C1669 C 0.29413 0.39227 0.7698 0.0
C1670 C 0.26346 0.36799 0.74679 0.0
H1671 H 0.18603 0.40264 0.72186 0.0
H1672 H 0.21478 0.40272 0.73458 0.0
H1673 H 0.24415 0.35977 0.73003 0.0
H1674 H 0.31656 0.35476 0.78134 0.0
H1675 H 0.28769 0.35454 0.76882 0.0
H1676 H 0.25848 0.3974 0.77282 0.0
C1677 C 0.20861 0.39208 0.73223 0.0
C1678 C 0.24702 0.36796 0.73948 0.0
C1679 C 0.19219 0.39207 0.72487 0.0
C1680 C 0.31042 0.36529 0.77812 0.0
C1681 C 0.29395 0.3652 0.77087 0.0
C1682 C 0.25558 0.3892 0.7634 0.0
C1683 C 0.21706 0.37854 0.73618 0.0
C1684 C 0.23461 0.37854 0.74402 0.0
C1685 C 0.28556 0.3787 0.7666 0.0
C1686 C 0.26799 0.37862 0.75885 0.0
H1687 H 0.18593 0.35445 0.72254 0.0
H1688 H 0.21454 0.35436 0.73558 0.0
H1689 H 0.22987 0.39732 0.76015 0.0
H1690 H 0.31693 0.40294 0.77932 0.0
H1691 H 0.2882 0.40287 0.76652 0.0
C1692 C 0.61386 0.80005 0.26803 0.0
C1693 C 0.61289 0.80315 0.28509 0.0
C1694 C 0.61345 0.7853 0.26234 0.0
C1695 C 0.60328 0.74597 0.2759 0.0
H1696 H 0.62949 0.73588 0.23701 0.0
C1697 C 0.61876 0.68506 0.25645 0.0
C1698 C 0.61531 0.68159 0.23976 0.0
C1699 C 0.61777 0.69986 0.26189 0.0
C1700 C 0.62202 0.73856 0.24782 0.0
H1701 H 0.61035 0.7928 0.30946 0.0
H1702 H 0.6107 0.76727 0.29972 0.0
H1703 H 0.62936 0.76159 0.24674 0.0
H1704 H 0.6083 0.69087 0.21566 0.0
H1705 H 0.60698 0.71682 0.2251 0.0
H1706 H 0.59658 0.72269 0.27723 0.0
C1707 C 0.61132 0.77624 0.2906 0.0
C1708 C 0.62184 0.75335 0.25339 0.0
C1709 C 0.61144 0.79099 0.29626 0.0
C1710 C 0.61092 0.69322 0.22861 0.0
C1711 C 0.61026 0.70806 0.23398 0.0
C1712 C 0.60374 0.73114 0.2705 0.0
C1713 C 0.61234 0.77313 0.27354 0.0
C1714 C 0.61243 0.75732 0.26751 0.0
C1715 C 0.61365 0.71153 0.25069 0.0
C1716 C 0.61308 0.72729 0.25638 0.0
H1717 H 0.61523 0.80899 0.25897 0.0
H1718 H 0.61394 0.7835 0.24909 0.0
H1719 H 0.59557 0.74852 0.28658 0.0
H1720 H 0.62211 0.67631 0.26532 0.0
H1721 H 0.62053 0.70223 0.27481 0.0
C1722 C 0.3105 0.12028 0.72786 0.0
C1723 C 0.31911 0.13361 0.72383 0.0
C1724 C 0.29451 0.12064 0.73559 0.0
C1725 C 0.25676 0.14497 0.74222 0.0
H1726 H 0.24662 0.11609 0.77699 0.0
C1727 C 0.1933 0.1464 0.77964 0.0
C1728 C 0.18574 0.13258 0.78359 0.0
C1729 C 0.20962 0.147 0.77246 0.0
C1730 C 0.24912 0.12413 0.76716 0.0
H1731 H 0.31766 0.15774 0.7242 0.0
H1732 H 0.28967 0.15847 0.73787 0.0
H1733 H 0.27492 0.11632 0.76449 0.0
H1734 H 0.18931 0.10859 0.78358 0.0
H1735 H 0.21754 0.10952 0.77072 0.0
H1736 H 0.23088 0.1527 0.74481 0.0
C1737 C 0.29527 0.14771 0.73511 0.0
C1738 C 0.26541 0.12428 0.76 0.0
C1739 C 0.31133 0.14733 0.72742 0.0
C1740 C 0.1948 0.11938 0.78039 0.0
C1741 C 0.21105 0.11995 0.7732 0.0
C1742 C 0.24043 0.1448 0.74937 0.0
C1743 C 0.28665 0.13435 0.73932 0.0
C1744 C 0.26944 0.13462 0.74734 0.0
C1745 C 0.21877 0.13377 0.76921 0.0
C1746 C 0.23633 0.1343 0.76186 0.0
H1747 H 0.31606 0.10957 0.72482 0.0
H1748 H 0.28814 0.11014 0.73832 0.0
H1749 H 0.25932 0.15299 0.73237 0.0
H1750 H 0.18665 0.15672 0.78226 0.0
H1751 H 0.21521 0.15784 0.7698 0.0
C1752 C 0.27287 0.86064 0.69892 0.0
C1753 C 0.27666 0.8744 0.69119 0.0
C1754 C 0.26565 0.86014 0.71484 0.0
C1755 C 0.24205 0.88377 0.74509 0.0
H1756 H 0.25625 0.85343 0.77714 0.0
C1757 C 0.22242 0.8868 0.81425 0.0
C1758 C 0.21896 0.87343 0.82291 0.0
C1759 C 0.2292 0.88657 0.79819 0.0
C1760 C 0.25193 0.86188 0.76832 0.0
H1761 H 0.27652 0.89839 0.69432 0.0
H1762 H 0.26394 0.89762 0.72198 0.0
H1763 H 0.26847 0.85362 0.7494 0.0
H1764 H 0.21939 0.84932 0.82137 0.0
H1765 H 0.23107 0.8488 0.79323 0.0
H1766 H 0.2255 0.89204 0.76392 0.0
C1767 C 0.26611 0.88716 0.71569 0.0
C1768 C 0.25898 0.86199 0.75233 0.0
C1769 C 0.27337 0.88763 0.69984 0.0
C1770 C 0.22215 0.85979 0.81504 0.0
C1771 C 0.22893 0.85953 0.79894 0.0
C1772 C 0.23498 0.88365 0.76104 0.0
C1773 C 0.26207 0.87341 0.72347 0.0
C1774 C 0.25424 0.873 0.74047 0.0
C1775 C 0.23259 0.87293 0.79023 0.0
C1776 C 0.23987 0.87277 0.77299 0.0
H1777 H 0.27545 0.85027 0.6926 0.0
H1778 H 0.26265 0.84934 0.72028 0.0
H1779 H 0.23776 0.89226 0.73628 0.0
H1780 H 0.21991 0.89748 0.81996 0.0
H1781 H 0.23199 0.89714 0.79212 0.0
C1782 C 0.14045 0.73151 0.30738 0.0
C1783 C 0.12497 0.72876 0.31566 0.0
C1784 C 0.14044 0.7379 0.29135 0.0
C1785 C 0.1121 0.74477 0.25406 0.0
H1786 H 0.14746 0.77324 0.2419 0.0
C1787 C 0.10913 0.77807 0.19149 0.0
C1788 C 0.12458 0.78091 0.18321 0.0
C1789 C 0.10918 0.77183 0.20759 0.0
C1790 C 0.13758 0.76517 0.24495 0.0
H1791 H 0.09734 0.73052 0.3136 0.0
H1792 H 0.09721 0.7418 0.28574 0.0
H1793 H 0.14755 0.76223 0.26973 0.0
H1794 H 0.15223 0.77941 0.18531 0.0
H1795 H 0.15246 0.76841 0.21331 0.0
H1796 H 0.10215 0.74768 0.22929 0.0
C1797 C 0.10942 0.7389 0.29148 0.0
C1798 C 0.13763 0.75883 0.26101 0.0
C1799 C 0.10946 0.73252 0.30752 0.0
C1800 C 0.14013 0.77741 0.19143 0.0
C1801 C 0.14021 0.77117 0.20754 0.0
C1802 C 0.11206 0.75111 0.238 0.0
C1803 C 0.12492 0.7417 0.28309 0.0
C1804 C 0.12488 0.74851 0.26587 0.0
C1805 C 0.12473 0.76823 0.21591 0.0
C1806 C 0.12479 0.76144 0.23315 0.0
H1807 H 0.15259 0.72868 0.31334 0.0
H1808 H 0.15264 0.73965 0.28533 0.0
H1809 H 0.10221 0.73671 0.25711 0.0
H1810 H 0.09696 0.78072 0.18547 0.0
H1811 H 0.09699 0.77 0.21359 0.0
C1812 C 0.27277 0.64409 0.80314 0.0
C1813 C 0.27802 0.63069 0.81091 0.0
C1814 C 0.26576 0.64404 0.78695 0.0
C1815 C 0.24535 0.61855 0.75582 0.0
H1816 H 0.25544 0.65058 0.72461 0.0
C1817 C 0.22528 0.61513 0.6862 0.0
C1818 C 0.21971 0.62828 0.67809 0.0
C1819 C 0.2324 0.6156 0.7023 0.0
C1820 C 0.25229 0.64161 0.73319 0.0
H1821 H 0.28064 0.60682 0.80772 0.0
H1822 H 0.26858 0.60666 0.77952 0.0
H1823 H 0.26779 0.65115 0.7526 0.0
H1824 H 0.21703 0.65222 0.68054 0.0
H1825 H 0.22927 0.65312 0.7087 0.0
H1826 H 0.22986 0.60901 0.73646 0.0
C1827 C 0.26945 0.61722 0.78594 0.0
C1828 C 0.25941 0.64194 0.74932 0.0
C1829 C 0.27645 0.61729 0.80207 0.0
C1830 C 0.22133 0.64192 0.68647 0.0
C1831 C 0.22845 0.64242 0.70258 0.0
C1832 C 0.23824 0.61822 0.73971 0.0
C1833 C 0.26388 0.63058 0.77811 0.0
C1834 C 0.25611 0.63039 0.7609 0.0
C1835 C 0.2341 0.62925 0.71079 0.0
C1836 C 0.24162 0.62972 0.72809 0.0
H1837 H 0.27394 0.65458 0.80967 0.0
H1838 H 0.26153 0.65455 0.78148 0.0
H1839 H 0.24218 0.60958 0.76438 0.0
H1840 H 0.22411 0.60445 0.68005 0.0
H1841 H 0.23676 0.60523 0.70801 0.0
C1842 C 0.38428 0.77954 0.28978 0.0
C1843 C 0.38099 0.77065 0.30394 0.0
C1844 C 0.38431 0.77329 0.27384 0.0
C1845 C 0.36689 0.74182 0.2494 0.0
H1846 H 0.403 0.75145 0.21835 0.0
C1847 C 0.36285 0.72691 0.17902 0.0
C1848 C 0.37754 0.72047 0.17206 0.0
C1849 C 0.36338 0.73284 0.19512 0.0
C1850 C 0.39283 0.74861 0.22687 0.0
H1851 H 0.375 0.74813 0.31222 0.0
H1852 H 0.37472 0.73728 0.2844 0.0
H1853 H 0.40383 0.76201 0.24629 0.0
H1854 H 0.40434 0.7153 0.17662 0.0
H1855 H 0.40546 0.72607 0.20451 0.0
H1856 H 0.35575 0.7286 0.22991 0.0
C1857 C 0.37741 0.7491 0.28567 0.0
C1858 C 0.39324 0.75475 0.24287 0.0
C1859 C 0.3777 0.75531 0.30165 0.0
C1860 C 0.39284 0.72028 0.18157 0.0
C1861 C 0.39347 0.72646 0.19755 0.0
C1862 C 0.3663 0.7359 0.2333 0.0
C1863 C 0.38073 0.758 0.27151 0.0
C1864 C 0.38031 0.75141 0.25441 0.0
C1865 C 0.37871 0.73275 0.20462 0.0
C1866 C 0.37929 0.73916 0.2218 0.0
H1867 H 0.38696 0.79137 0.29103 0.0
H1868 H 0.38682 0.78051 0.26326 0.0
H1869 H 0.35664 0.73907 0.25788 0.0
H1870 H 0.35089 0.7273 0.17199 0.0
H1871 H 0.35181 0.7377 0.20006 0.0
C1872 C 0.69927 0.27756 0.89685 0.0
C1873 C 0.69053 0.28324 0.88278 0.0
C1874 C 0.71588 0.27171 0.89552 0.0
C1875 C 0.75462 0.27255 0.8695 0.0
H1876 H 0.76518 0.23488 0.89162 0.0
C1877 C 0.81993 0.24202 0.86078 0.0
C1878 C 0.82685 0.23418 0.87449 0.0
C1879 C 0.80336 0.24817 0.8614 0.0
C1880 C 0.76262 0.24553 0.88555 0.0
H1881 H 0.6924 0.28766 0.85642 0.0
H1882 H 0.72158 0.27761 0.85407 0.0
H1883 H 0.73651 0.24547 0.89367 0.0
H1884 H 0.82191 0.22647 0.89953 0.0
H1885 H 0.79345 0.23765 0.90097 0.0
H1886 H 0.7808 0.2728 0.86164 0.0
C1887 C 0.71557 0.27759 0.86612 0.0
C1888 C 0.74609 0.25158 0.8867 0.0
C1889 C 0.69887 0.28328 0.86743 0.0
C1890 C 0.81693 0.23261 0.88883 0.0
C1891 C 0.80049 0.23887 0.88955 0.0
C1892 C 0.77124 0.26657 0.86849 0.0
C1893 C 0.72425 0.27162 0.88013 0.0
C1894 C 0.74187 0.26518 0.87873 0.0
C1895 C 0.79335 0.24665 0.87581 0.0
C1896 C 0.77553 0.25299 0.87656 0.0
H1897 H 0.6932 0.27761 0.90886 0.0
H1898 H 0.72227 0.2674 0.9066 0.0
H1899 H 0.75185 0.28312 0.86333 0.0
H1900 H 0.82727 0.24321 0.84951 0.0
H1901 H 0.79829 0.25387 0.85047 0.0
C1902 C 0.8054 0.27806 0.61309 0.0
C1903 C 0.8133 0.27912 0.6288 0.0
C1904 C 0.78886 0.27201 0.61137 0.0
C1905 C 0.7491 0.26401 0.63478 0.0
H1906 H 0.73901 0.23726 0.59839 0.0
C1907 C 0.68407 0.23224 0.6293 0.0
C1908 C 0.67699 0.23032 0.61335 0.0
C1909 C 0.70065 0.23818 0.63139 0.0
C1910 C 0.74147 0.24488 0.6085 0.0
H1911 H 0.81025 0.27459 0.65502 0.0
H1912 H 0.78126 0.26408 0.65211 0.0
H1913 H 0.76777 0.24766 0.60158 0.0
H1914 H 0.68184 0.23255 0.58708 0.0
H1915 H 0.71048 0.24335 0.59059 0.0
H1916 H 0.72276 0.26137 0.64162 0.0
C1917 C 0.78775 0.26804 0.6411 0.0
C1918 C 0.75804 0.25083 0.61035 0.0
C1919 C 0.80436 0.274 0.64278 0.0
C1920 C 0.68688 0.23422 0.59952 0.0
C1921 C 0.7034 0.24022 0.60157 0.0
C1922 C 0.73248 0.25812 0.63288 0.0
C1923 C 0.77978 0.26693 0.62536 0.0
C1924 C 0.7621 0.2605 0.6235 0.0
C1925 C 0.71059 0.24226 0.61754 0.0
C1926 C 0.72839 0.24848 0.61969 0.0
H1927 H 0.81206 0.28195 0.60213 0.0
H1928 H 0.78309 0.2715 0.59909 0.0
H1929 H 0.75167 0.27157 0.64493 0.0
H1930 H 0.67679 0.22905 0.64015 0.0
H1931 H 0.70578 0.23929 0.64387 0.0
C1932 C 0.72953 0.29414 0.11804 0.0
C1933 C 0.72263 0.30064 0.13232 0.0
C1934 C 0.73592 0.27948 0.11852 0.0
C1935 C 0.73392 0.244 0.14287 0.0
H1936 H 0.77623 0.23473 0.12036 0.0
C1937 C 0.7686 0.18725 0.15249 0.0
C1938 C 0.77603 0.18071 0.13857 0.0
C1939 C 0.76213 0.20186 0.15156 0.0
C1940 C 0.76429 0.23705 0.12656 0.0
H1941 H 0.71742 0.29674 0.15841 0.0
H1942 H 0.7284 0.27126 0.1592 0.0
H1943 H 0.76471 0.26008 0.11886 0.0
H1944 H 0.78255 0.18408 0.11281 0.0
H1945 H 0.77112 0.20959 0.11103 0.0
H1946 H 0.73344 0.22099 0.15055 0.0
C1947 C 0.72863 0.2774 0.14754 0.0
C1948 C 0.75767 0.25162 0.12569 0.0
C1949 C 0.72229 0.29205 0.14707 0.0
C1950 C 0.77695 0.18899 0.12372 0.0
C1951 C 0.77048 0.2036 0.12276 0.0
C1952 C 0.74051 0.22943 0.14371 0.0
C1953 C 0.73555 0.27091 0.13328 0.0
C1954 C 0.74243 0.25531 0.13389 0.0
C1955 C 0.76292 0.21023 0.13666 0.0
C1956 C 0.75582 0.22576 0.13562 0.0
H1957 H 0.72982 0.30032 0.10641 0.0
H1958 H 0.74094 0.27478 0.10725 0.0
H1959 H 0.722 0.24634 0.14911 0.0
H1960 H 0.7678 0.18103 0.16407 0.0
H1961 H 0.75665 0.20663 0.16259 0.0
C1962 C 0.78777 0.29491 0.36899 0.0
C1963 C 0.78258 0.30565 0.38049 0.0
C1964 C 0.78175 0.28016 0.37005 0.0
C1965 C 0.74726 0.25689 0.38959 0.0
H1966 H 0.77561 0.22413 0.37481 0.0
C1967 C 0.72915 0.19413 0.39864 0.0
C1968 C 0.73022 0.18533 0.38433 0.0
C1969 C 0.73576 0.20872 0.39876 0.0
C1970 C 0.76753 0.23318 0.37892 0.0
H1971 H 0.76742 0.30924 0.40241 0.0
H1972 H 0.75746 0.28343 0.40473 0.0
H1973 H 0.787 0.24953 0.37437 0.0
H1974 H 0.73942 0.18481 0.35908 0.0
H1975 H 0.75127 0.21017 0.3594 0.0
H1976 H 0.72797 0.24031 0.39453 0.0
C1977 C 0.7657 0.28643 0.39451 0.0
C1978 C 0.774 0.2478 0.37859 0.0
C1979 C 0.7715 0.30124 0.39327 0.0
C1980 C 0.73829 0.19136 0.37024 0.0
C1981 C 0.74518 0.20583 0.37046 0.0
C1982 C 0.74091 0.24222 0.39018 0.0
C1983 C 0.77059 0.27567 0.38282 0.0
C1984 C 0.76391 0.25994 0.38376 0.0
C1985 C 0.7439 0.21471 0.38468 0.0
C1986 C 0.75091 0.23022 0.3847 0.0
H1987 H 0.79612 0.29803 0.35887 0.0
H1988 H 0.78559 0.27239 0.36059 0.0
H1989 H 0.7389 0.26586 0.39339 0.0
H1990 H 0.72294 0.18979 0.40964 0.0
H1991 H 0.73467 0.21528 0.40991 0.0
C1992 C 0.17615 0.55007 0.62045 0.0
C1993 C 0.16835 0.56212 0.62853 0.0
C1994 C 0.17138 0.53531 0.62409 0.0
C1995 C 0.13688 0.51222 0.64225 0.0
H1996 H 0.17329 0.4833 0.64991 0.0
C1997 C 0.12444 0.454 0.67184 0.0
C1998 C 0.13406 0.44176 0.66627 0.0
C1999 C 0.12807 0.46854 0.66632 0.0
C2000 C 0.16292 0.49114 0.64756 0.0
H2001 H 0.14928 0.56797 0.64676 0.0
H2002 H 0.14082 0.54226 0.6529 0.0
H2003 H 0.18047 0.50882 0.64171 0.0
H2004 H 0.15501 0.43536 0.65033 0.0
H2005 H 0.16092 0.46058 0.64031 0.0
H2006 H 0.11931 0.49455 0.64804 0.0
C2007 C 0.15055 0.54427 0.64365 0.0
C2008 C 0.16706 0.5058 0.64289 0.0
C2009 C 0.15539 0.55902 0.64008 0.0
C2010 C 0.14719 0.44445 0.65478 0.0
C2011 C 0.15076 0.45898 0.64919 0.0
C2012 C 0.13272 0.49752 0.64683 0.0
C2013 C 0.15862 0.53224 0.63583 0.0
C2014 C 0.1541 0.51654 0.64026 0.0
C2015 C 0.14137 0.47124 0.65501 0.0
C2016 C 0.1457 0.4868 0.64964 0.0
H2017 H 0.18594 0.55201 0.61125 0.0
H2018 H 0.17766 0.5263 0.61767 0.0
H2019 H 0.12659 0.52019 0.64013 0.0
H2020 H 0.11407 0.45237 0.6805 0.0
H2021 H 0.12066 0.4777 0.67121 0.0
C2022 C 0.43805 0.64212 0.13777 0.0
C2023 C 0.43691 0.65773 0.13929 0.0
C2024 C 0.45219 0.63439 0.14451 0.0
C2025 C 0.48574 0.63751 0.1765 0.0
H2026 H 0.5143 0.61343 0.14815 0.0
C2027 C 0.55675 0.62963 0.19005 0.0
C2028 C 0.56421 0.61555 0.18796 0.0
C2029 C 0.53991 0.63224 0.18486 0.0
C2030 C 0.50627 0.61986 0.15631 0.0
H2031 H 0.44925 0.67747 0.14931 0.0
H2032 H 0.47376 0.66403 0.16118 0.0
H2033 H 0.48641 0.62252 0.13778 0.0
H2034 H 0.56033 0.5931 0.17893 0.0
H2035 H 0.53048 0.59768 0.16961 0.0
H2036 H 0.50565 0.63528 0.19486 0.0
C2037 C 0.46384 0.65775 0.15476 0.0
C2038 C 0.49036 0.62505 0.15039 0.0
C2039 C 0.44992 0.66545 0.14785 0.0
C2040 C 0.55469 0.60406 0.18051 0.0
C2041 C 0.53774 0.60669 0.17522 0.0
C2042 C 0.50153 0.63229 0.18243 0.0
C2043 C 0.46513 0.64217 0.15315 0.0
C2044 C 0.48028 0.63437 0.16025 0.0
C2045 C 0.53016 0.62078 0.17753 0.0
C2046 C 0.51225 0.62391 0.17218 0.0
H2047 H 0.42817 0.63595 0.13117 0.0
H2048 H 0.45295 0.62237 0.14312 0.0
H2049 H 0.47804 0.64447 0.18443 0.0
H2050 H 0.56397 0.6386 0.19582 0.0
H2051 H 0.53456 0.6433 0.18649 0.0
C2052 C 0.34053 0.94704 0.65885 0.0
C2053 C 0.3348 0.94228 0.64312 0.0
C2054 C 0.34575 0.96179 0.6613 0.0
C2055 C 0.36131 0.99601 0.64118 0.0
H2056 H 0.33927 0.0157 0.67785 0.0
C2057 C 0.36783 0.05989 0.65337 0.0
C2058 C 0.36756 0.06452 0.66996 0.0
C2059 C 0.36499 0.04484 0.64944 0.0
C2060 C 0.34582 0.01036 0.66774 0.0
H2061 H 0.33084 0.94931 0.61748 0.0
H2062 H 0.3404 0.97509 0.62177 0.0
H2063 H 0.33272 0.98968 0.67215 0.0
H2064 H 0.36519 0.05708 0.69548 0.0
H2065 H 0.36097 0.03085 0.68879 0.0
H2066 H 0.37472 0.01664 0.63697 0.0
C2067 C 0.34069 0.96731 0.63217 0.0
C2068 C 0.34197 0.99544 0.66443 0.0
C2069 C 0.33526 0.95253 0.62973 0.0
C2070 C 0.36519 0.0538 0.68257 0.0
C2071 C 0.36264 0.03879 0.67869 0.0
C2072 C 0.36538 0.01095 0.64463 0.0
C2073 C 0.34561 0.97214 0.64807 0.0
C2074 C 0.34972 0.98808 0.65119 0.0
C2075 C 0.36205 0.03413 0.66206 0.0
C2076 C 0.35775 0.01829 0.65805 0.0
H2077 H 0.34082 0.93939 0.66936 0.0
H2078 H 0.34977 0.96516 0.67363 0.0
H2079 H 0.36751 0.99057 0.63092 0.0
H2080 H 0.36958 0.06799 0.64344 0.0
H2081 H 0.36451 0.04173 0.63649 0.0
C2082 C 0.04316 0.84041 0.13416 0.0
C2083 C 0.04723 0.82519 0.13627 0.0
C2084 C 0.02661 0.84556 0.13723 0.0
C2085 C 0.98834 0.83602 0.16116 0.0
H2086 H 0.96667 0.86676 0.13375 0.0
C2087 C 0.92045 0.85762 0.17459 0.0
C2088 C 0.91846 0.87319 0.17406 0.0
C2089 C 0.93529 0.85109 0.16843 0.0
C2090 C 0.97261 0.85824 0.14156 0.0
H2091 H 0.03707 0.80338 0.14302 0.0
H2092 H 0.00805 0.81235 0.14815 0.0
H2093 H 0.99429 0.8564 0.12564 0.0
H2094 H 0.92973 0.89422 0.16639 0.0
H2095 H 0.95595 0.88286 0.15575 0.0
H2096 H 0.96686 0.838 0.17723 0.0
C2097 C 0.01773 0.82032 0.14427 0.0
C2098 C 0.98841 0.85231 0.13693 0.0
C2099 C 0.0343 0.81516 0.14118 0.0
C2100 C 0.93118 0.88217 0.16692 0.0
C2101 C 0.94605 0.87565 0.16076 0.0
C2102 C 0.97257 0.84194 0.16579 0.0
C2103 C 0.01376 0.83559 0.14249 0.0
C2104 C 0.99651 0.84124 0.14677 0.0
C2105 C 0.94835 0.86005 0.16163 0.0
C2106 C 0.96461 0.85321 0.15613 0.0
H2107 H 0.05281 0.84837 0.13018 0.0
H2108 H 0.02399 0.85741 0.1359 0.0
H2109 H 0.99439 0.82768 0.16915 0.0
H2110 H 0.91062 0.85057 0.17999 0.0
H2111 H 0.93659 0.83903 0.16906 0.0
C2112 C 0.15229 0.94705 0.87777 0.0
C2113 C 0.16942 0.94277 0.87529 0.0
C2114 C 0.14733 0.96201 0.87562 0.0
C2115 C 0.16367 1.00045 0.87561 0.0
H2116 H 0.12692 0.00933 0.84409 0.0
C2117 C 0.1551 0.05924 0.84711 0.0
C2118 C 0.1386 0.06436 0.84253 0.0
C2119 C 0.15761 0.04462 0.85294 0.0
C2120 C 0.13697 0.00712 0.8532 0.0
H2121 H 0.19488 0.95073 0.86921 0.0
H2122 H 0.18631 0.97691 0.86586 0.0
H2123 H 0.13341 0.98338 0.85145 0.0
H2124 H 0.11171 0.05803 0.84096 0.0
H2125 H 0.11599 0.03275 0.85183 0.0
H2126 H 0.16722 0.02407 0.8776 0.0
C2127 C 0.1767 0.96871 0.8693 0.0
C2128 C 0.14071 0.99222 0.85735 0.0
C2129 C 0.18158 0.95375 0.87112 0.0
C2130 C 0.12459 0.05456 0.84445 0.0
C2131 C 0.12709 0.03995 0.85048 0.0
C2132 C 0.15977 0.01535 0.87168 0.0
C2133 C 0.1595 0.97297 0.87133 0.0
C2134 C 0.15433 0.98874 0.86832 0.0
C2135 C 0.14367 0.03472 0.85463 0.0
C2136 C 0.14663 0.0189 0.86011 0.0
H2137 H 0.14267 0.93875 0.8809 0.0
H2138 H 0.134 0.96503 0.8773 0.0
H2139 H 0.1741 0.99807 0.88427 0.0
H2140 H 0.16618 0.0665 0.84614 0.0
H2141 H 0.17061 0.04103 0.85574 0.0
C2142 C 0.92219 0.65498 0.33595 0.0
C2143 C 0.91812 0.63973 0.33562 0.0
C2144 C 0.93708 0.65981 0.3441 0.0
C2145 C 0.97983 0.64589 0.35483 0.0
H2146 H 0.9845 0.68409 0.37681 0.0
C2147 C 0.04591 0.66825 0.37501 0.0
C2148 C 0.0492 0.68318 0.37044 0.0
C2149 C 0.02923 0.66256 0.3743 0.0
C2150 C 0.98338 0.67341 0.37068 0.0
H2151 H 0.92548 0.61757 0.34401 0.0
H2152 H 0.95159 0.62598 0.35852 0.0
H2153 H 0.95591 0.6746 0.36975 0.0
H2154 H 0.03759 0.70398 0.36193 0.0
H2155 H 0.00844 0.69401 0.36053 0.0
H2156 H 0.00723 0.64488 0.35524 0.0
C2157 C 0.94345 0.63421 0.35234 0.0
C2158 C 0.96704 0.66797 0.36667 0.0
C2159 C 0.92855 0.62939 0.34417 0.0
C2160 C 0.03541 0.69246 0.36565 0.0
C2161 C 0.01872 0.68676 0.36491 0.0
C2162 C 0.99614 0.65131 0.35885 0.0
C2163 C 0.9481 0.64942 0.35202 0.0
C2164 C 0.96512 0.6543 0.35838 0.0
C2165 C 0.0155 0.67169 0.36898 0.0
C2166 C 0.99811 0.66527 0.3665 0.0
H2167 H 0.91423 0.66306 0.32931 0.0
H2168 H 0.94039 0.67157 0.34343 0.0
H2169 H 0.97882 0.63545 0.3482 0.0
H2170 H 0.05626 0.66092 0.37906 0.0
H2171 H 0.0271 0.65097 0.37775 0.0
C2172 C 0.34445 0.56028 0.84877 0.0
C2173 C 0.33375 0.56343 0.86216 0.0
C2174 C 0.35038 0.54575 0.84626 0.0
C2175 C 0.35424 0.50791 0.86624 0.0
H2176 H 0.35698 0.49526 0.82046 0.0
C2177 C 0.35912 0.44597 0.84532 0.0
C2178 C 0.37114 0.44289 0.8329 0.0
C2179 C 0.35586 0.46071 0.85002 0.0
C2180 C 0.35644 0.49867 0.83331 0.0
H2181 H 0.32104 0.554 0.88359 0.0
H2182 H 0.33085 0.52844 0.87893 0.0
H2183 H 0.34868 0.52081 0.8265 0.0
H2184 H 0.38974 0.45301 0.81634 0.0
H2185 H 0.38361 0.47868 0.82421 0.0
H2186 H 0.3614 0.48542 0.87289 0.0
C2187 C 0.33508 0.53723 0.87057 0.0
C2188 C 0.35176 0.51336 0.8368 0.0
C2189 C 0.32939 0.55185 0.87323 0.0
C2190 C 0.3801 0.45493 0.82564 0.0
C2191 C 0.37667 0.46965 0.8302 0.0
C2192 C 0.35869 0.49312 0.86271 0.0
C2193 C 0.34547 0.53394 0.8569 0.0
C2194 C 0.35065 0.51824 0.85332 0.0
C2195 C 0.36438 0.4727 0.84229 0.0
C2196 C 0.35989 0.48838 0.8462 0.0
H2197 H 0.34818 0.56907 0.84018 0.0
H2198 H 0.35873 0.5438 0.83587 0.0
H2199 H 0.35377 0.51126 0.8791 0.0
H2200 H 0.35179 0.43706 0.85105 0.0
H2201 H 0.34621 0.46277 0.85929 0.0
C2202 C 0.4322 0.82845 0.34666 0.0
C2203 C 0.42379 0.83286 0.36105 0.0
C2204 C 0.44716 0.83573 0.34174 0.0
C2205 C 0.48324 0.85658 0.35969 0.0
H2206 H 0.49605 0.86103 0.31354 0.0
C2207 C 0.5506 0.87679 0.33931 0.0
C2208 C 0.55817 0.86777 0.32731 0.0
C2209 C 0.53326 0.87494 0.34316 0.0
C2210 C 0.49262 0.85986 0.32648 0.0
H2211 H 0.42367 0.84847 0.38133 0.0
H2212 H 0.44985 0.86153 0.37261 0.0
H2213 H 0.46659 0.85426 0.3204 0.0
H2214 H 0.55396 0.84993 0.30982 0.0
H2215 H 0.5236 0.84666 0.31645 0.0
H2216 H 0.50939 0.8619 0.36572 0.0
C2217 C 0.44503 0.85235 0.36521 0.0
C2218 C 0.47578 0.85598 0.33041 0.0
C2219 C 0.43004 0.84501 0.37014 0.0
C2220 C 0.54826 0.85697 0.31911 0.0
C2221 C 0.53094 0.85521 0.32282 0.0
C2222 C 0.50006 0.86055 0.35575 0.0
C2223 C 0.45396 0.84756 0.35116 0.0
C2224 C 0.47102 0.85389 0.34704 0.0
C2225 C 0.52326 0.86417 0.33488 0.0
C2226 C 0.50501 0.86182 0.3391 0.0
H2227 H 0.42755 0.81897 0.33963 0.0
H2228 H 0.45383 0.83159 0.33102 0.0
H2229 H 0.48006 0.85488 0.37262 0.0
H2230 H 0.55809 0.88525 0.34565 0.0
H2231 H 0.52763 0.88201 0.35246 0.0
C2232 C 0.6312 0.17232 0.53264 0.0
C2233 C 0.61829 0.18222 0.53745 0.0
C2234 C 0.63173 0.16724 0.51636 0.0
C2235 C 0.62221 0.17837 0.47437 0.0
H2236 H 0.63052 0.13654 0.46504 0.0
C2237 C 0.66268 0.1567 0.4208 0.0
C2238 C 0.65806 0.14314 0.41345 0.0
C2239 C 0.6527 0.16257 0.43343 0.0
C2240 C 0.62786 0.14823 0.46734 0.0
H2241 H 0.59575 0.19459 0.52927 0.0
H2242 H 0.59696 0.18596 0.50043 0.0
H2243 H 0.62264 0.14391 0.49297 0.0
H2244 H 0.63931 0.12528 0.41273 0.0
H2245 H 0.62175 0.13553 0.43492 0.0
H2246 H 0.62842 0.18277 0.44891 0.0
C2247 C 0.60649 0.18201 0.50937 0.0
C2248 C 0.62349 0.15243 0.48335 0.0
C2249 C 0.60577 0.18688 0.52579 0.0
C2250 C 0.64287 0.1359 0.41815 0.0
C2251 C 0.63295 0.1417 0.43087 0.0
C2252 C 0.6268 0.17418 0.45836 0.0
C2253 C 0.61951 0.17217 0.50455 0.0
C2254 C 0.62112 0.16757 0.4871 0.0
C2255 C 0.63812 0.15481 0.43902 0.0
C2256 C 0.63012 0.15911 0.45483 0.0
H2257 H 0.64094 0.16856 0.54147 0.0
H2258 H 0.642 0.15979 0.51288 0.0
H2259 H 0.62051 0.19013 0.47702 0.0
H2260 H 0.67453 0.16226 0.41745 0.0
H2261 H 0.65712 0.17258 0.43964 0.0
C2262 C 0.79546 0.13919 0.05426 0.0
C2263 C 0.80362 0.12777 0.06344 0.0
C2264 C 0.79897 0.14118 0.03743 0.0
C2265 C 0.8334 0.13322 0.00782 0.0
H2266 H 0.80148 0.15189 0.9766 0.0
C2267 C 0.85263 0.15246 0.9417 0.0
C2268 C 0.84881 0.16761 0.93848 0.0
C2269 C 0.84567 0.14508 0.95546 0.0
C2270 C 0.81047 0.14658 0.98518 0.0
H2271 H 0.82083 0.10883 0.06223 0.0
H2272 H 0.82648 0.11187 0.03264 0.0
H2273 H 0.79112 0.1427 0.00331 0.0
H2274 H 0.83487 0.1869 0.94746 0.0
H2275 H 0.82244 0.1739 0.97105 0.0
H2276 H 0.85275 0.13727 0.98967 0.0
C2277 C 0.81784 0.11964 0.03848 0.0
C2278 C 0.80459 0.14139 1.0005 0.0
C2279 C 0.81455 0.11782 0.05537 0.0
C2280 C 0.83778 0.17514 0.94926 0.0
C2281 C 0.83065 0.16772 0.96282 0.0
C2282 C 0.83921 0.13822 0.99242 0.0
C2283 C 0.81052 0.13164 0.02942 0.0
C2284 C 0.81609 0.13506 0.01221 0.0
C2285 C 0.8346 0.15267 0.96609 0.0
C2286 C 0.8279 0.14532 0.98118 0.0
H2287 H 0.7871 0.14708 0.0603 0.0
H2288 H 0.79328 0.15068 0.03098 0.0
H2289 H 0.84271 0.12863 0.01658 0.0
H2290 H 0.8609 0.14626 0.93355 0.0
H2291 H 0.84888 0.13345 0.95776 0.0
C2292 C 0.84789 0.34341 0.55643 0.0
C2293 C 0.84714 0.32808 0.56042 0.0
C2294 C 0.84239 0.3486 0.54083 0.0
C2295 C 0.83577 0.33565 0.49812 0.0
H2296 H 0.81024 0.37262 0.49233 0.0
C2297 C 0.81006 0.35422 0.43423 0.0
C2298 C 0.813 0.3692 0.42987 0.0
C2299 C 0.81256 0.3494 0.4506 0.0
C2300 C 0.81746 0.36233 0.49378 0.0
H2301 H 0.83941 0.30626 0.55149 0.0
H2302 H 0.82978 0.31531 0.52429 0.0
H2303 H 0.81784 0.36377 0.5203 0.0
H2304 H 0.82041 0.39103 0.43873 0.0
H2305 H 0.82494 0.38262 0.46756 0.0
H2306 H 0.83558 0.33423 0.47168 0.0
C2307 C 0.83493 0.32328 0.53309 0.0
C2308 C 0.82182 0.35728 0.50976 0.0
C2309 C 0.84045 0.3181 0.54864 0.0
C2310 C 0.818 0.37944 0.44203 0.0
C2311 C 0.82051 0.37463 0.45844 0.0
C2312 C 0.83141 0.34068 0.48219 0.0
C2313 C 0.83601 0.33856 0.52895 0.0
C2314 C 0.83104 0.34388 0.51208 0.0
C2315 C 0.8181 0.3595 0.46282 0.0
C2316 C 0.82223 0.35407 0.47984 0.0
H2317 H 0.85313 0.35134 0.56522 0.0
H2318 H 0.84357 0.36042 0.53793 0.0
H2319 H 0.84318 0.32544 0.49949 0.0
H2320 H 0.8062 0.34622 0.42488 0.0
H2321 H 0.81036 0.33773 0.45366 0.0
C2322 C 0.62616 0.33063 0.96461 0.0
C2323 C 0.6294 0.31633 0.95832 0.0
C2324 C 0.62797 0.33336 0.98157 0.0
C2325 C 0.65179 0.31976 0.018 0.0
H2326 H 0.62119 0.34567 0.04207 0.0
C2327 C 0.6669 0.33584 0.08539 0.0
C2328 C 0.6652 0.35109 0.08872 0.0
C2329 C 0.65976 0.32993 0.07087 0.0
C2330 C 0.62988 0.33845 0.0355 0.0
H2331 H 0.63677 0.2936 0.9649 0.0
H2332 H 0.63981 0.29836 0.99456 0.0
H2333 H 0.61381 0.33847 0.01369 0.0
H2334 H 0.65428 0.37211 0.08032 0.0
H2335 H 0.64206 0.36197 0.05471 0.0
H2336 H 0.66819 0.32015 0.03944 0.0
C2337 C 0.63594 0.30747 0.98634 0.0
C2338 C 0.62564 0.33433 0.01927 0.0
C2339 C 0.63406 0.30472 0.96939 0.0
C2340 C 0.65567 0.36029 0.07785 0.0
C2341 C 0.64861 0.35443 0.06329 0.0
C2342 C 0.65606 0.32393 0.03416 0.0
C2343 C 0.63314 0.32186 0.99257 0.0
C2344 C 0.6367 0.32514 0.01027 0.0
C2345 C 0.6509 0.33925 0.05945 0.0
C2346 C 0.64531 0.33353 0.04301 0.0
H2347 H 0.62238 0.33976 0.95638 0.0
H2348 H 0.62588 0.34461 0.98599 0.0
H2349 H 0.66068 0.31283 0.0113 0.0
H2350 H 0.67417 0.32861 0.09377 0.0
H2351 H 0.66151 0.31815 0.06841 0.0
C2352 C 0.84097 0.55614 0.31798 0.0
C2353 C 0.85793 0.56152 0.31784 0.0
C2354 C 0.83751 0.5412 0.32211 0.0
C2355 C 0.85833 0.5037 0.32694 0.0
H2356 H 0.81662 0.49451 0.35072 0.0
C2357 C 0.83588 0.44262 0.33825 0.0
C2358 C 0.8272 0.43923 0.353 0.0
C2359 C 0.83995 0.45744 0.33407 0.0
C2360 C 0.82845 0.49683 0.34427 0.0
H2361 H 0.88457 0.55546 0.32203 0.0
H2362 H 0.87858 0.5295 0.32971 0.0
H2363 H 0.82332 0.52031 0.34375 0.0
H2364 H 0.81643 0.44871 0.37518 0.0
H2365 H 0.82394 0.47447 0.36823 0.0
H2366 H 0.8638 0.48026 0.32809 0.0
C2367 C 0.86791 0.53668 0.32622 0.0
C2368 C 0.83217 0.51169 0.33999 0.0
C2369 C 0.87138 0.5516 0.32188 0.0
C2370 C 0.82292 0.45098 0.36362 0.0
C2371 C 0.82717 0.46578 0.35956 0.0
C2372 C 0.8547 0.48884 0.33138 0.0
C2373 C 0.85091 0.53125 0.32643 0.0
C2374 C 0.84712 0.51536 0.33118 0.0
C2375 C 0.83562 0.46927 0.34464 0.0
C2376 C 0.83967 0.48516 0.34007 0.0
H2377 H 0.83035 0.56345 0.31467 0.0
H2378 H 0.8243 0.53743 0.32171 0.0
H2379 H 0.86986 0.50599 0.31999 0.0
H2380 H 0.83918 0.43382 0.32972 0.0
H2381 H 0.84616 0.45963 0.32235 0.0
C2382 C 0.44034 0.3479 0.82803 0.0
C2383 C 0.43692 0.36332 0.82737 0.0
C2384 C 0.45653 0.34262 0.83314 0.0
C2385 C 0.50207 0.35426 0.83747 0.0
H2386 H 0.50587 0.31941 0.86638 0.0
C2387 C 0.56725 0.32507 0.85154 0.0
C2388 C 0.57047 0.32044 0.868 0.0
C2389 C 0.55094 0.33022 0.84663 0.0
C2390 C 0.50505 0.32921 0.85838 0.0
H2391 H 0.44749 0.3853 0.83187 0.0
H2392 H 0.47588 0.37615 0.8407 0.0
H2393 H 0.47751 0.32868 0.858 0.0
H2394 H 0.55932 0.31765 0.89227 0.0
H2395 H 0.53071 0.32653 0.88374 0.0
H2396 H 0.52959 0.35487 0.83794 0.0
C2397 C 0.46616 0.36811 0.83708 0.0
C2398 C 0.48877 0.33443 0.85343 0.0
C2399 C 0.44992 0.37336 0.83207 0.0
C2400 C 0.55707 0.32102 0.87947 0.0
C2401 C 0.54071 0.32606 0.87455 0.0
C2402 C 0.51834 0.34897 0.84231 0.0
C2403 C 0.4697 0.35266 0.83767 0.0
C2404 C 0.48705 0.34705 0.84293 0.0
C2405 C 0.53744 0.33079 0.85807 0.0
C2406 C 0.52006 0.33638 0.85286 0.0
H2407 H 0.43047 0.33995 0.8245 0.0
H2408 H 0.45882 0.33067 0.83329 0.0
H2409 H 0.50126 0.36392 0.82925 0.0
H2410 H 0.57741 0.32473 0.84249 0.0
H2411 H 0.54886 0.3336 0.83381 0.0
C2412 C 0.66764 0.04595 0.37971 0.0
C2413 C 0.6766 0.05461 0.36796 0.0
C2414 C 0.66151 0.03167 0.37571 0.0
C2415 C 0.65088 0.00762 0.33962 0.0
H2416 H 0.65534 0.97509 0.37162 0.0
C2417 C 0.64219 0.94584 0.32122 0.0
C2418 C 0.6334 0.93624 0.33216 0.0
C2419 C 0.64656 0.96039 0.32589 0.0
C2420 C 0.6538 0.98409 0.36261 0.0
H2421 H 0.68574 0.05505 0.34263 0.0
H2422 H 0.67548 0.03015 0.33583 0.0
H2423 H 0.66451 1.00024 0.37926 0.0
H2424 H 0.62212 0.93463 0.3566 0.0
H2425 H 0.62987 0.96001 0.36478 0.0
H2426 H 0.64036 0.99146 0.32291 0.0
C2427 C 0.67302 0.03441 0.3481 0.0
C2428 C 0.65905 0.99853 0.36699 0.0
C2429 C 0.67913 0.04865 0.35209 0.0
C2430 C 0.6291 0.94162 0.34793 0.0
C2431 C 0.63353 0.95618 0.35262 0.0
C2432 C 0.64567 0.9932 0.33523 0.0
C2433 C 0.66413 0.02571 0.35984 0.0
C2434 C 0.65781 0.01046 0.3555 0.0
C2435 C 0.64231 0.96575 0.34165 0.0
C2436 C 0.64721 0.98122 0.34661 0.0
H2437 H 0.66555 0.05013 0.39208 0.0
H2438 H 0.65459 0.02535 0.38501 0.0
H2439 H 0.6494 0.01658 0.33055 0.0
H2440 H 0.64603 0.94202 0.30911 0.0
H2441 H 0.65359 0.96735 0.31723 0.0
C2442 C 0.06469 0.13889 0.84654 0.0
C2443 C 0.07322 0.14547 0.83306 0.0
C2444 C 0.04843 0.14394 0.85113 0.0
C2445 C 0.01813 0.17606 0.84593 0.0
H2446 H 0.98476 0.14724 0.86182 0.0
C2447 C 0.94656 0.1913 0.857 0.0
C2448 C 0.9389 0.18516 0.87119 0.0
C2449 C 0.96303 0.18676 0.85234 0.0
C2450 C 0.99397 0.15548 0.85758 0.0
H2451 H 0.07127 0.16206 0.81341 0.0
H2452 H 0.0427 0.17083 0.82121 0.0
H2453 H 0.01306 0.13875 0.85357 0.0
H2454 H 0.94213 0.16946 0.89158 0.0
H2455 H 0.97095 0.16151 0.88357 0.0
H2456 H 0.99888 0.19277 0.84981 0.0
C2457 C 0.04872 0.16205 0.82858 0.0
C2458 C 0.01027 0.1506 0.85285 0.0
C2459 C 0.06505 0.15701 0.82404 0.0
C2460 C 0.94789 0.17439 0.88064 0.0
C2461 C 0.96431 0.16978 0.87595 0.0
C2462 C 0.00178 0.18093 0.85059 0.0
C2463 C 0.04016 0.15559 0.84221 0.0
C2464 C 0.02265 0.16082 0.84703 0.0
C2465 C 0.9721 0.17586 0.8617 0.0
C2466 C 0.98949 0.17071 0.85656 0.0
H2467 H 0.07061 0.12976 0.85348 0.0
H2468 H 0.04241 0.13877 0.86179 0.0
H2469 H 0.02734 0.18432 0.84175 0.0
H2470 H 0.93973 0.19953 0.84947 0.0
H2471 H 0.96851 0.19156 0.84121 0.0
C2472 C 0.82106 0.07083 0.16626 0.0
C2473 C 0.81825 0.07538 0.14974 0.0
C2474 C 0.82604 0.05611 0.17 0.0
C2475 C 0.82591 0.01792 0.15236 0.0
H2476 H 0.85847 0.00956 0.18809 0.0
C2477 C 0.85216 0.95831 0.16559 0.0
C2478 C 0.85342 0.95369 0.18233 0.0
C2479 C 0.84852 0.97322 0.16138 0.0
C2480 C 0.84924 0.01169 0.17817 0.0
H2481 H 0.81866 0.06847 0.12413 0.0
H2482 H 0.82763 0.04275 0.13053 0.0
H2483 H 0.85111 0.03541 0.18114 0.0
H2484 H 0.85167 0.96128 0.20773 0.0
H2485 H 0.84544 0.98725 0.20039 0.0
H2486 H 0.82405 0.99419 0.1494 0.0
C2487 C 0.82572 0.05039 0.14068 0.0
C2488 C 0.845 0.02653 0.17418 0.0
C2489 C 0.82071 0.06511 0.13697 0.0
C2490 C 0.85109 0.96444 0.19472 0.0
C2491 C 0.84749 0.97936 0.19051 0.0
C2492 C 0.83019 0.00309 0.15632 0.0
C2493 C 0.82836 0.04566 0.15726 0.0
C2494 C 0.83321 0.02986 0.16127 0.0
C2495 C 0.84608 0.98394 0.17379 0.0
C2496 C 0.84185 0.99977 0.16932 0.0
H2497 H 0.81916 0.07862 0.17627 0.0
H2498 H 0.82773 0.05285 0.1829 0.0
H2499 H 0.81658 0.02001 0.14252 0.0
H2500 H 0.85416 0.95042 0.1557 0.0
H2501 H 0.84779 0.97639 0.14838 0.0
C2502 C 0.05744 0.37005 0.66083 0.0
C2503 C 0.06613 0.36335 0.67434 0.0
C2504 C 0.04102 0.36511 0.65606 0.0
C2505 C 0.00318 0.34394 0.67171 0.0
H2506 H 0.99096 0.34154 0.62501 0.0
C2507 C 0.93967 0.31644 0.64908 0.0
C2508 C 0.93081 0.32348 0.63588 0.0
C2509 C 0.95623 0.32115 0.65367 0.0
C2510 C 0.99407 0.34229 0.63811 0.0
H2511 H 0.06458 0.34639 0.69359 0.0
H2512 H 0.03598 0.33757 0.68525 0.0
H2513 H 0.01957 0.35004 0.63321 0.0
H2514 H 0.93222 0.34073 0.61694 0.0
H2515 H 0.96112 0.34911 0.62495 0.0
H2516 H 0.97768 0.33618 0.6766 0.0
C2517 C 0.04168 0.34674 0.67836 0.0
C2518 C 0.01052 0.34719 0.64283 0.0
C2519 C 0.05809 0.3517 0.6831 0.0
C2520 C 0.93884 0.33517 0.62718 0.0
C2521 C 0.95541 0.33988 0.63173 0.0
C2522 C 0.98674 0.33903 0.66698 0.0
C2523 C 0.03288 0.35337 0.66476 0.0
C2524 C 0.01532 0.3481 0.6597 0.0
C2525 C 0.96433 0.33298 0.64509 0.0
C2526 C 0.98193 0.33814 0.65012 0.0
H2527 H 0.06334 0.37917 0.654 0.0
H2528 H 0.03459 0.37067 0.64571 0.0
H2529 H 0.00626 0.34472 0.68482 0.0
H2530 H 0.93371 0.30734 0.6559 0.0
H2531 H 0.96275 0.31542 0.66385 0.0
C2532 C 0.67297 0.44378 0.13844 0.0
C2533 C 0.67733 0.43328 0.15095 0.0
C2534 C 0.66782 0.45829 0.14252 0.0
C2535 C 0.67078 0.48584 0.17631 0.0
H2536 H 0.63191 0.50476 0.15405 0.0
C2537 C 0.64196 0.54088 0.20009 0.0
C2538 C 0.63619 0.55161 0.18838 0.0
C2539 C 0.64681 0.52656 0.19512 0.0
C2540 C 0.64294 0.49974 0.16025 0.0
H2541 H 0.67907 0.42981 0.17764 0.0
H2542 H 0.67039 0.45506 0.18467 0.0
H2543 H 0.64079 0.47971 0.14594 0.0
H2544 H 0.63081 0.55545 0.16218 0.0
H2545 H 0.63975 0.53065 0.15347 0.0
H2546 H 0.67311 0.50582 0.1905 0.0
C2547 C 0.6712 0.45215 0.17169 0.0
C2548 C 0.64801 0.48536 0.1556 0.0
C2549 C 0.67622 0.43765 0.16763 0.0
C2550 C 0.63536 0.54757 0.17155 0.0
C2551 C 0.64029 0.53325 0.16657 0.0
C2552 C 0.66579 0.50022 0.18088 0.0
C2553 C 0.66701 0.46268 0.15921 0.0
C2554 C 0.6619 0.47818 0.16368 0.0
C2555 C 0.64616 0.52256 0.17828 0.0
C2556 C 0.65171 0.50734 0.17303 0.0
H2557 H 0.67384 0.44089 0.12546 0.0
H2558 H 0.66483 0.46618 0.1326 0.0
H2559 H 0.68173 0.48075 0.18258 0.0
H2560 H 0.64302 0.54358 0.21313 0.0
H2561 H 0.65101 0.5186 0.20456 0.0
C2562 C 0.4371 0.16033 0.67926 0.0
C2563 C 0.42928 0.14855 0.6706 0.0
C2564 C 0.45295 0.16615 0.67415 0.0
C2565 C 0.48167 0.16827 0.63774 0.0
H2566 H 0.51687 0.1781 0.67033 0.0
C2567 C 0.55165 0.18096 0.61886 0.0
C2568 C 0.56094 0.19177 0.62775 0.0
C2569 C 0.5354 0.17633 0.62411 0.0
C2570 C 0.50712 0.17564 0.66104 0.0
H2571 H 0.43218 0.13311 0.65036 0.0
H2572 H 0.45974 0.14327 0.64129 0.0
H2573 H 0.48903 0.16884 0.6795 0.0
H2574 H 0.56041 0.20663 0.64869 0.0
H2575 H 0.53181 0.19877 0.65784 0.0
H2576 H 0.49966 0.17509 0.61927 0.0
C2577 C 0.45352 0.14831 0.65179 0.0
C2578 C 0.49113 0.17029 0.66632 0.0
C2579 C 0.43774 0.14247 0.65696 0.0
C2580 C 0.55352 0.19816 0.64176 0.0
C2581 C 0.53721 0.19356 0.64702 0.0
C2582 C 0.49762 0.17367 0.63246 0.0
C2583 C 0.46135 0.16025 0.66029 0.0
C2584 C 0.47823 0.16641 0.65474 0.0
C2585 C 0.52793 0.18252 0.63831 0.0
C2586 C 0.51065 0.17732 0.64402 0.0
H2587 H 0.4309 0.16506 0.68995 0.0
H2588 H 0.45853 0.17538 0.68095 0.0
H2589 H 0.47196 0.16568 0.62846 0.0
H2590 H 0.55709 0.17597 0.60792 0.0
H2591 H 0.52884 0.16769 0.61717 0.0
C2592 C 0.3603 0.83722 0.45227 0.0
C2593 C 0.36309 0.82199 0.44897 0.0
C2594 C 0.35595 0.84199 0.46823 0.0
C2595 C 0.355 0.82959 0.51306 0.0
H2596 H 0.32416 0.86334 0.51694 0.0
C2597 C 0.32504 0.84717 0.57614 0.0
C2598 C 0.32372 0.86257 0.57925 0.0
C2599 C 0.33013 0.84204 0.56051 0.0
C2600 C 0.33293 0.85398 0.51614 0.0
H2601 H 0.36338 0.79984 0.46017 0.0
H2602 H 0.35552 0.80804 0.48784 0.0
H2603 H 0.33227 0.85478 0.48958 0.0
H2604 H 0.32762 0.88464 0.56867 0.0
H2605 H 0.33621 0.87578 0.54137 0.0
H2606 H 0.35534 0.8287 0.53972 0.0
C2607 C 0.35705 0.81643 0.47818 0.0
C2608 C 0.33766 0.84906 0.50035 0.0
C2609 C 0.36155 0.81168 0.46222 0.0
C2610 C 0.32806 0.87271 0.56651 0.0
C2611 C 0.33299 0.8676 0.55085 0.0
C2612 C 0.35014 0.83445 0.52887 0.0
C2613 C 0.35407 0.83168 0.48147 0.0
C2614 C 0.34887 0.83681 0.49848 0.0
C2615 C 0.33403 0.85218 0.54755 0.0
C2616 C 0.33909 0.84678 0.53067 0.0
H2617 H 0.36163 0.84555 0.44251 0.0
H2618 H 0.35421 0.85385 0.47017 0.0
H2619 H 0.36385 0.82029 0.51232 0.0
H2620 H 0.32199 0.83911 0.5858 0.0
H2621 H 0.33071 0.83009 0.55849 0.0
C2622 C 0.1496 0.82457 0.06381 0.0
C2623 C 0.13218 0.82191 0.06716 0.0
C2624 C 0.15479 0.82926 0.04793 0.0
C2625 C 0.1409 0.83005 0.00349 0.0
H2626 H 0.1758 0.86075 0.99905 0.0
C2627 C 0.17187 0.84571 0.93989 0.0
C2628 C 0.17483 0.86096 0.93659 0.0
C2629 C 0.16657 0.84082 0.95568 0.0
C2630 C 0.16598 0.85221 1.00002 0.0
H2631 H 0.10651 0.82245 0.05659 0.0
H2632 H 0.11551 0.83041 0.0288 0.0
H2633 H 0.16678 0.85264 0.02665 0.0
H2634 H 0.17366 0.88312 0.94703 0.0
H2635 H 0.16477 0.87466 0.97462 0.0
H2636 H 0.14008 0.82966 0.97684 0.0
C2637 C 0.12524 0.82871 0.03837 0.0
C2638 C 0.16092 0.84744 0.0159 0.0
C2639 C 0.12005 0.82418 0.0543 0.0
C2640 C 0.17197 0.87125 0.94933 0.0
C2641 C 0.16685 0.86638 0.96515 0.0
C2642 C 0.14611 0.83471 0.98759 0.0
C2643 C 0.1427 0.83135 0.03492 0.0
C2644 C 0.14824 0.83633 0.01791 0.0
C2645 C 0.1641 0.85108 0.96861 0.0
C2646 C 0.15868 0.84591 0.9856 0.0
H2647 H 0.15923 0.82295 0.0735 0.0
H2648 H 0.16834 0.83104 0.04578 0.0
H2649 H 0.13123 0.82139 0.00447 0.0
H2650 H 0.17376 0.83754 0.93025 0.0
H2651 H 0.16466 0.82896 0.95783 0.0
C2652 C 0.15977 0.63641 0.55405 0.0
C2653 C 0.17369 0.64275 0.56275 0.0
C2654 C 0.15516 0.64161 0.53808 0.0
C2655 C 0.16081 0.67414 0.50886 0.0
H2656 H 0.14436 0.64613 0.47588 0.0
C2657 C 0.14996 0.69157 0.43958 0.0
C2658 C 0.13586 0.68537 0.43103 0.0
C2659 C 0.15453 0.68647 0.4556 0.0
C2660 C 0.14872 0.65418 0.48496 0.0
H2661 H 0.19392 0.65927 0.56143 0.0
H2662 H 0.18612 0.66828 0.5335 0.0
H2663 H 0.1524 0.63709 0.50355 0.0
H2664 H 0.11525 0.66922 0.43267 0.0
H2665 H 0.12309 0.66031 0.46063 0.0
H2666 H 0.15717 0.69121 0.49023 0.0
C2667 C 0.17846 0.65949 0.53907 0.0
C2668 C 0.15336 0.64897 0.50092 0.0
C2669 C 0.18303 0.65428 0.55505 0.0
C2670 C 0.1263 0.67408 0.43892 0.0
C2671 C 0.13087 0.66894 0.45492 0.0
C2672 C 0.15619 0.67934 0.49289 0.0
C2673 C 0.16441 0.65326 0.5303 0.0
C2674 C 0.15948 0.65885 0.51317 0.0
C2675 C 0.14509 0.67503 0.46354 0.0
C2676 C 0.15006 0.66946 0.48066 0.0
H2677 H 0.15243 0.62742 0.55964 0.0
H2678 H 0.14417 0.6366 0.53192 0.0
H2679 H 0.16516 0.68219 0.51794 0.0
H2680 H 0.15754 0.7003 0.43378 0.0
H2681 H 0.16566 0.69136 0.46166 0.0
C2682 C 0.37654 0.67504 0.04496 0.0
C2683 C 0.36457 0.68053 0.05631 0.0
C2684 C 0.37136 0.67093 0.02886 0.0
C2685 C 0.33404 0.65743 0.00481 0.0
H2686 H 0.35887 0.67088 0.96598 0.0
C2687 C 0.32365 0.63202 0.93909 0.0
C2688 C 0.32126 0.64223 0.92584 0.0
C2689 C 0.32872 0.63696 0.95491 0.0
C2690 C 0.35177 0.66705 0.9767 0.0
H2691 H 0.33772 0.68577 0.05969 0.0
H2692 H 0.32856 0.67817 0.03176 0.0
H2693 H 0.36817 0.67899 0.99368 0.0
H2694 H 0.32327 0.66554 0.91863 0.0
H2695 H 0.33261 0.67417 0.94618 0.0
H2696 H 0.31786 0.64525 0.98789 0.0
C2697 C 0.34201 0.67724 0.03524 0.0
C2698 C 0.35717 0.67163 0.99258 0.0
C2699 C 0.34725 0.68163 0.05121 0.0
C2700 C 0.32473 0.65745 0.92866 0.0
C2701 C 0.33014 0.66237 0.94441 0.0
C2702 C 0.32886 0.65261 0.98897 0.0
C2703 C 0.35399 0.67184 0.02382 0.0
C2704 C 0.34833 0.66693 0.00686 0.0
C2705 C 0.33207 0.6522 0.9578 0.0
C2706 C 0.33761 0.6574 0.97468 0.0
H2707 H 0.3899 0.67377 0.04862 0.0
H2708 H 0.38089 0.66666 0.02046 0.0
H2709 H 0.32699 0.65352 0.01553 0.0
H2710 H 0.32172 0.62016 0.9372 0.0
H2711 H 0.33036 0.62879 0.96483 0.0
loop_
_geom_bond_atom_site_label_1
_geom_bond_atom_site_label_2
_geom_bond_distance
_geom_bond_site_symmetry_2
_ccdc_geom_bond_type
C0 C1 1.443 . S
C0 N4 1.376 . S
C0 C38 1.389 . S
C1 C0 1.443 . S
C1 C2 1.340 . S
C1 H41 0.951 . S
C2 C1 1.340 . S
C2 C3 1.439 . S
C2 H42 0.950 . S
C3 C2 1.439 . S
C3 N4 1.374 . S
C3 C37 1.395 . S
N4 C0 1.376 . S
N4 C3 1.374 . S
N4 Co5 2.008 . S
Co5 N4 2.008 . S
Co5 N6 1.995 . S
Co5 N11 2.008 . S
Co5 N16 1.995 . S
Co5 N21 2.282 . S
Co5 N27 2.282 . S
N6 Co5 1.995 . S
N6 C7 1.376 . S
N6 C10 1.383 . S
C7 N6 1.376 . S
C7 C8 1.446 . S
C7 C37 1.391 . S
C8 C7 1.446 . S
C8 C9 1.339 . S
C8 H43 0.949 . S
C9 C8 1.339 . S
C9 C10 1.439 . S
C9 H44 0.950 . S
C10 N6 1.383 . S
C10 C9 1.439 . S
C10 C39 1.392 . S
N11 Co5 2.008 . S
N11 C12 1.376 . S
N11 C15 1.374 . S
C12 N11 1.376 . S
C12 C13 1.443 . S
C12 C39 1.389 . S
C13 C12 1.443 . S
C13 C14 1.340 . S
C13 H45 0.951 . S
C14 C13 1.340 . S
C14 C15 1.439 . S
C14 H46 0.950 . S
C15 N11 1.374 . S
C15 C14 1.439 . S
C15 C40 1.395 . S
N16 Co5 1.995 . S
N16 C17 1.376 . S
N16 C20 1.383 . S
C17 N16 1.376 . S
C17 C18 1.446 . S
C17 C40 1.391 . S
C18 C17 1.446 . S
C18 C19 1.339 . S
C18 H47 0.949 . S
C19 C18 1.339 . S
C19 C20 1.439 . S
C19 H48 0.950 . S
C20 N16 1.383 . S
C20 C19 1.439 . S
C20 C38 1.392 . S
N21 Co5 2.282 . S
N21 C24 1.332 . S
N21 C26 1.332 . S
C22 C23 1.386 . S
C22 C25 1.388 . S
C23 C22 1.386 . S
C23 C24 1.382 . S
C23 H49 0.950 . S
C24 N21 1.332 . S
C24 C23 1.382 . S
C24 H35 0.952 . S
C25 C22 1.388 . S
C25 C26 1.382 . S
C25 H50 0.950 . S
C26 N21 1.332 . S
C26 C25 1.382 . S
C26 H36 0.948 . S
N27 Co5 2.282 . S
N27 C31 1.332 . S
N27 C32 1.332 . S
C28 C29 1.388 . S
C28 C32 1.382 . S
C28 H51 0.950 . S
C29 C28 1.388 . S
C29 C30 1.386 . S
C30 C29 1.386 . S
C30 C31 1.382 . S
C30 H52 0.950 . S
C31 N27 1.332 . S
C31 C30 1.382 . S
C31 H33 0.952 . S
C32 N27 1.332 . S
C32 C28 1.382 . S
C32 H34 0.948 . S
H33 C31 0.952 . S
H34 C32 0.948 . S
H35 C24 0.952 . S
H36 C26 0.948 . S
C37 C3 1.395 . S
C37 C7 1.391 . S
C38 C0 1.389 . S
C38 C20 1.392 . S
C39 C10 1.392 . S
C39 C12 1.389 . S
C40 C15 1.395 . S
C40 C17 1.391 . S
H41 C1 0.951 . S
H42 C2 0.950 . S
H43 C8 0.949 . S
H44 C9 0.950 . S
H45 C13 0.951 . S
H46 C14 0.950 . S
H47 C18 0.949 . S
H48 C19 0.950 . S
H49 C23 0.950 . S
H50 C25 0.950 . S
H51 C28 0.950 . S
H52 C30 0.950 . S
C53 C54 1.443 . S
C53 N57 1.376 . S
C53 C91 1.389 . S
C54 C53 1.443 . S
C54 C55 1.340 . S
C54 H94 0.951 . S
C55 C54 1.340 . S
C55 C56 1.439 . S
C55 H95 0.950 . S
C56 C55 1.439 . S
C56 N57 1.374 . S
C56 C90 1.395 . S
N57 C53 1.376 . S
N57 C56 1.374 . S
N57 Co58 2.008 . S
Co58 N57 2.008 . S
Co58 N59 1.995 . S
Co58 N64 2.008 . S
Co58 N69 1.995 . S
Co58 N74 2.282 . S
Co58 N80 2.282 . S
N59 Co58 1.995 . S
N59 C60 1.376 . S
N59 C63 1.383 . S
C60 N59 1.376 . S
C60 C61 1.446 . S
C60 C90 1.391 . S
C61 C60 1.446 . S
C61 C62 1.339 . S
C61 H96 0.949 . S
C62 C61 1.339 . S
C62 C63 1.439 . S
C62 H97 0.950 . S
C63 N59 1.383 . S
C63 C62 1.439 . S
C63 C92 1.392 . S
N64 Co58 2.008 . S
N64 C65 1.376 . S
N64 C68 1.374 . S
C65 N64 1.376 . S
C65 C66 1.443 . S
C65 C92 1.389 . S
C66 C65 1.443 . S
C66 C67 1.340 . S
C66 H98 0.951 . S
C67 C66 1.340 . S
C67 C68 1.439 . S
C67 H99 0.950 . S
C68 N64 1.374 . S
C68 C67 1.439 . S
C68 C93 1.395 . S
N69 Co58 1.995 . S
N69 C70 1.376 . S
N69 C73 1.383 . S
C70 N69 1.376 . S
C70 C71 1.446 . S
C70 C93 1.391 . S
C71 C70 1.446 . S
C71 C72 1.339 . S
C71 H100 0.949 . S
C72 C71 1.339 . S
C72 C73 1.439 . S
C72 H101 0.950 . S
C73 N69 1.383 . S
C73 C72 1.439 . S
C73 C91 1.392 . S
N74 Co58 2.282 . S
N74 C77 1.332 . S
N74 C79 1.332 . S
C75 C76 1.386 . S
C75 C78 1.388 . S
C76 C75 1.386 . S
C76 C77 1.382 . S
C76 H102 0.950 . S
C77 N74 1.332 . S
C77 C76 1.382 . S
C77 H88 0.952 . S
C78 C75 1.388 . S
C78 C79 1.382 . S
C78 H103 0.950 . S
C79 N74 1.332 . S
C79 C78 1.382 . S
C79 H89 0.948 . S
N80 Co58 2.282 . S
N80 C84 1.332 . S
N80 C85 1.332 . S
C81 C82 1.388 . S
C81 C85 1.382 . S
C81 H104 0.950 . S
C82 C81 1.388 . S
C82 C83 1.386 . S
C83 C82 1.386 . S
C83 C84 1.382 . S
C83 H105 0.950 . S
C84 N80 1.332 . S
C84 C83 1.382 . S
C84 H86 0.952 . S
C85 N80 1.332 . S
C85 C81 1.382 . S
C85 H87 0.948 . S
H86 C84 0.952 . S
H87 C85 0.948 . S
H88 C77 0.952 . S
H89 C79 0.948 . S
C90 C56 1.395 . S
C90 C60 1.391 . S
C91 C53 1.389 . S
C91 C73 1.392 . S
C92 C63 1.392 . S
C92 C65 1.389 . S
C93 C68 1.395 . S
C93 C70 1.391 . S
H94 C54 0.951 . S
H95 C55 0.950 . S
H96 C61 0.949 . S
H97 C62 0.950 . S
H98 C66 0.951 . S
H99 C67 0.950 . S
H100 C71 0.949 . S
H101 C72 0.950 . S
H102 C76 0.950 . S
H103 C78 0.950 . S
H104 C81 0.950 . S
H105 C83 0.950 . S
C106 C107 1.443 . S
C106 N110 1.376 . S
C106 C144 1.389 . S
C107 C106 1.443 . S
C107 C108 1.340 . S
C107 H147 0.951 . S
C108 C107 1.340 . S
C108 C109 1.439 . S
C108 H148 0.950 . S
C109 C108 1.439 . S
C109 N110 1.374 . S
C109 C143 1.395 . S
N110 C106 1.376 . S
N110 C109 1.374 . S
N110 Co111 2.008 . S
Co111 N110 2.008 . S
Co111 N112 1.995 . S
Co111 N117 2.008 . S
Co111 N122 1.995 . S
Co111 N127 2.282 . S
Co111 N133 2.282 . S
N112 Co111 1.995 . S
N112 C113 1.376 . S
N112 C116 1.383 . S
C113 N112 1.376 . S
C113 C114 1.446 . S
C113 C143 1.391 . S
C114 C113 1.446 . S
C114 C115 1.339 . S
C114 H149 0.949 . S
C115 C114 1.339 . S
C115 C116 1.439 . S
C115 H150 0.950 . S
C116 N112 1.383 . S
C116 C115 1.439 . S
C116 C145 1.392 . S
N117 Co111 2.008 . S
N117 C118 1.376 . S
N117 C121 1.374 . S
C118 N117 1.376 . S
C118 C119 1.443 . S
C118 C145 1.389 . S
C119 C118 1.443 . S
C119 C120 1.340 . S
C119 H151 0.951 . S
C120 C119 1.340 . S
C120 C121 1.439 . S
C120 H152 0.950 . S
C121 N117 1.374 . S
C121 C120 1.439 . S
C121 C146 1.395 . S
N122 Co111 1.995 . S
N122 C123 1.376 . S
N122 C126 1.383 . S
C123 N122 1.376 . S
C123 C124 1.446 . S
C123 C146 1.391 . S
C124 C123 1.446 . S
C124 C125 1.339 . S
C124 H153 0.949 . S
C125 C124 1.339 . S
C125 C126 1.439 . S
C125 H154 0.950 . S
C126 N122 1.383 . S
C126 C125 1.439 . S
C126 C144 1.392 . S
N127 Co111 2.282 . S
N127 C130 1.332 . S
N127 C132 1.332 . S
C128 C129 1.386 . S
C128 C131 1.388 . S
C129 C128 1.386 . S
C129 C130 1.382 . S
C129 H155 0.950 . S
C130 N127 1.332 . S
C130 C129 1.382 . S
C130 H141 0.952 . S
C131 C128 1.388 . S
C131 C132 1.382 . S
C131 H156 0.950 . S
C132 N127 1.332 . S
C132 C131 1.382 . S
C132 H142 0.948 . S
N133 Co111 2.282 . S
N133 C137 1.332 . S
N133 C138 1.332 . S
C134 C135 1.388 . S
C134 C138 1.382 . S
C134 H157 0.950 . S
C135 C134 1.388 . S
C135 C136 1.386 . S
C136 C135 1.386 . S
C136 C137 1.382 . S
C136 H158 0.950 . S
C137 N133 1.332 . S
C137 C136 1.382 . S
C137 H139 0.952 . S
C138 N133 1.332 . S
C138 C134 1.382 . S
C138 H140 0.948 . S
H139 C137 0.952 . S
H140 C138 0.948 . S
H141 C130 0.952 . S
H142 C132 0.948 . S
C143 C109 1.395 . S
C143 C113 1.391 . S
C144 C106 1.389 . S
C144 C126 1.392 . S
C145 C116 1.392 . S
C145 C118 1.389 . S
C146 C121 1.395 . S
C146 C123 1.391 . S
H147 C107 0.951 . S
H148 C108 0.950 . S
H149 C114 0.949 . S
H150 C115 0.950 . S
H151 C119 0.951 . S
H152 C120 0.950 . S
H153 C124 0.949 . S
H154 C125 0.950 . S
H155 C129 0.950 . S
H156 C131 0.950 . S
H157 C134 0.950 . S
H158 C136 0.950 . S
C159 C160 1.443 . S
C159 N163 1.376 . S
C159 C197 1.389 . S
C160 C159 1.443 . S
C160 C161 1.340 . S
C160 H200 0.951 . S
C161 C160 1.340 . S
C161 C162 1.439 . S
C161 H201 0.950 . S
C162 C161 1.439 . S
C162 N163 1.374 . S
C162 C196 1.395 . S
N163 C159 1.376 . S
N163 C162 1.374 . S
N163 Co164 2.008 . S
Co164 N163 2.008 . S
Co164 N165 1.995 . S
Co164 N170 2.008 . S
Co164 N175 1.995 . S
Co164 N180 2.282 . S
Co164 N186 2.282 . S
N165 Co164 1.995 . S
N165 C166 1.376 . S
N165 C169 1.383 . S
C166 N165 1.376 . S
C166 C167 1.446 . S
C166 C196 1.391 . S
C167 C166 1.446 . S
C167 C168 1.339 . S
C167 H202 0.949 . S
C168 C167 1.339 . S
C168 C169 1.439 . S
C168 H203 0.950 . S
C169 N165 1.383 . S
C169 C168 1.439 . S
C169 C198 1.392 . S
N170 Co164 2.008 . S
N170 C171 1.376 . S
N170 C174 1.374 . S
C171 N170 1.376 . S
C171 C172 1.443 . S
C171 C198 1.389 . S
C172 C171 1.443 . S
C172 C173 1.340 . S
C172 H204 0.951 . S
C173 C172 1.340 . S
C173 C174 1.439 . S
C173 H205 0.950 . S
C174 N170 1.374 . S
C174 C173 1.439 . S
C174 C199 1.395 . S
N175 Co164 1.995 . S
N175 C176 1.376 . S
N175 C179 1.383 . S
C176 N175 1.376 . S
C176 C177 1.446 . S
C176 C199 1.391 . S
C177 C176 1.446 . S
C177 C178 1.339 . S
C177 H206 0.949 . S
C178 C177 1.339 . S
C178 C179 1.439 . S
C178 H207 0.950 . S
C179 N175 1.383 . S
C179 C178 1.439 . S
C179 C197 1.392 . S
N180 Co164 2.282 . S
N180 C183 1.332 . S
N180 C185 1.332 . S
C181 C182 1.386 . S
C181 C184 1.388 . S
C182 C181 1.386 . S
C182 C183 1.382 . S
C182 H208 0.950 . S
C183 N180 1.332 . S
C183 C182 1.382 . S
C183 H194 0.952 . S
C184 C181 1.388 . S
C184 C185 1.382 . S
C184 H209 0.950 . S
C185 N180 1.332 . S
C185 C184 1.382 . S
C185 H195 0.948 . S
N186 Co164 2.282 . S
N186 C190 1.332 . S
N186 C191 1.332 . S
C187 C188 1.388 . S
C187 C191 1.382 . S
C187 H210 0.950 . S
C188 C187 1.388 . S
C188 C189 1.386 . S
C189 C188 1.386 . S
C189 C190 1.382 . S
C189 H211 0.950 . S
C190 N186 1.332 . S
C190 C189 1.382 . S
C190 H192 0.952 . S
C191 N186 1.332 . S
C191 C187 1.382 . S
C191 H193 0.948 . S
H192 C190 0.952 . S
H193 C191 0.948 . S
H194 C183 0.952 . S
H195 C185 0.948 . S
C196 C162 1.395 . S
C196 C166 1.391 . S
C197 C159 1.389 . S
C197 C179 1.392 . S
C198 C169 1.392 . S
C198 C171 1.389 . S
C199 C174 1.395 . S
C199 C176 1.391 . S
H200 C160 0.951 . S
H201 C161 0.950 . S
H202 C167 0.949 . S
H203 C168 0.950 . S
H204 C172 0.951 . S
H205 C173 0.950 . S
H206 C177 0.949 . S
H207 C178 0.950 . S
H208 C182 0.950 . S
H209 C184 0.950 . S
H210 C187 0.950 . S
H211 C189 0.950 . S
C212 C213 1.443 . S
C212 N216 1.376 . S
C212 C250 1.389 . S
C213 C212 1.443 . S
C213 C214 1.340 . S
C213 H253 0.951 . S
C214 C213 1.340 . S
C214 C215 1.439 . S
C214 H254 0.950 . S
C215 C214 1.439 . S
C215 N216 1.374 . S
C215 C249 1.395 . S
N216 C212 1.376 . S
N216 C215 1.374 . S
N216 Co217 2.008 . S
Co217 N216 2.008 . S
Co217 N218 1.995 . S
Co217 N223 2.008 . S
Co217 N228 1.995 . S
Co217 N233 2.282 . S
Co217 N239 2.282 . S
N218 Co217 1.995 . S
N218 C219 1.376 . S
N218 C222 1.383 . S
C219 N218 1.376 . S
C219 C220 1.446 . S
C219 C249 1.391 . S
C220 C219 1.446 . S
C220 C221 1.339 . S
C220 H255 0.949 . S
C221 C220 1.339 . S
C221 C222 1.439 . S
C221 H256 0.950 . S
C222 N218 1.383 . S
C222 C221 1.439 . S
C222 C251 1.392 . S
N223 Co217 2.008 . S
N223 C224 1.376 . S
N223 C227 1.374 . S
C224 N223 1.376 . S
C224 C225 1.443 . S
C224 C251 1.389 . S
C225 C224 1.443 . S
C225 C226 1.340 . S
C225 H257 0.951 . S
C226 C225 1.340 . S
C226 C227 1.439 . S
C226 H258 0.950 . S
C227 N223 1.374 . S
C227 C226 1.439 . S
C227 C252 1.395 . S
N228 Co217 1.995 . S
N228 C229 1.376 . S
N228 C232 1.383 . S
C229 N228 1.376 . S
C229 C230 1.446 . S
C229 C252 1.391 . S
C230 C229 1.446 . S
C230 C231 1.339 . S
C230 H259 0.949 . S
C231 C230 1.339 . S
C231 C232 1.439 . S
C231 H260 0.950 . S
C232 N228 1.383 . S
C232 C231 1.439 . S
C232 C250 1.392 . S
N233 Co217 2.282 . S
N233 C236 1.332 . S
N233 C238 1.332 . S
C234 C235 1.386 . S
C234 C237 1.388 . S
C235 C234 1.386 . S
C235 C236 1.382 . S
C235 H261 0.950 . S
C236 N233 1.332 . S
C236 C235 1.382 . S
C236 H247 0.952 . S
C237 C234 1.388 . S
C237 C238 1.382 . S
C237 H262 0.950 . S
C238 N233 1.332 . S
C238 C237 1.382 . S
C238 H248 0.948 . S
N239 Co217 2.282 . S
N239 C243 1.332 . S
N239 C244 1.332 . S
C240 C241 1.388 . S
C240 C244 1.382 . S
C240 H263 0.950 . S
C241 C240 1.388 . S
C241 C242 1.386 . S
C242 C241 1.386 . S
C242 C243 1.382 . S
C242 H264 0.950 . S
C243 N239 1.332 . S
C243 C242 1.382 . S
C243 H245 0.952 . S
C244 N239 1.332 . S
C244 C240 1.382 . S
C244 H246 0.948 . S
H245 C243 0.952 . S
H246 C244 0.948 . S
H247 C236 0.952 . S
H248 C238 0.948 . S
C249 C215 1.395 . S
C249 C219 1.391 . S
C250 C212 1.389 . S
C250 C232 1.392 . S
C251 C222 1.392 . S
C251 C224 1.389 . S
C252 C227 1.395 . S
C252 C229 1.391 . S
H253 C213 0.951 . S
H254 C214 0.950 . S
H255 C220 0.949 . S
H256 C221 0.950 . S
H257 C225 0.951 . S
H258 C226 0.950 . S
H259 C230 0.949 . S
H260 C231 0.950 . S
H261 C235 0.950 . S
H262 C237 0.950 . S
H263 C240 0.950 . S
H264 C242 0.950 . S
C265 C266 1.443 . S
C265 N269 1.376 . S
C265 C303 1.389 . S
C266 C265 1.443 . S
C266 C267 1.340 . S
C266 H306 0.951 . S
C267 C266 1.340 . S
C267 C268 1.439 . S
C267 H307 0.950 . S
C268 C267 1.439 . S
C268 N269 1.374 . S
C268 C302 1.395 . S
N269 C265 1.376 . S
N269 C268 1.374 . S
N269 Co270 2.008 . S
Co270 N269 2.008 . S
Co270 N271 1.995 . S
Co270 N276 2.008 . S
Co270 N281 1.995 . S
Co270 N286 2.282 . S
Co270 N292 2.282 . S
N271 Co270 1.995 . S
N271 C272 1.376 . S
N271 C275 1.383 . S
C272 N271 1.376 . S
C272 C273 1.446 . S
C272 C302 1.391 . S
C273 C272 1.446 . S
C273 C274 1.339 . S
C273 H308 0.949 . S
C274 C273 1.339 . S
C274 C275 1.439 . S
C274 H309 0.950 . S
C275 N271 1.383 . S
C275 C274 1.439 . S
C275 C304 1.392 . S
N276 Co270 2.008 . S
N276 C277 1.376 . S
N276 C280 1.374 . S
C277 N276 1.376 . S
C277 C278 1.443 . S
C277 C304 1.389 . S
C278 C277 1.443 . S
C278 C279 1.340 . S
C278 H310 0.951 . S
C279 C278 1.340 . S
C279 C280 1.439 . S
C279 H311 0.950 . S
C280 N276 1.374 . S
C280 C279 1.439 . S
C280 C305 1.395 . S
N281 Co270 1.995 . S
N281 C282 1.376 . S
N281 C285 1.383 . S
C282 N281 1.376 . S
C282 C283 1.446 . S
C282 C305 1.391 . S
C283 C282 1.446 . S
C283 C284 1.339 . S
C283 H312 0.949 . S
C284 C283 1.339 . S
C284 C285 1.439 . S
C284 H313 0.950 . S
C285 N281 1.383 . S
C285 C284 1.439 . S
C285 C303 1.392 . S
N286 Co270 2.282 . S
N286 C289 1.332 . S
N286 C291 1.332 . S
C287 C288 1.386 . S
C287 C290 1.388 . S
C288 C287 1.386 . S
C288 C289 1.382 . S
C288 H314 0.950 . S
C289 N286 1.332 . S
C289 C288 1.382 . S
C289 H300 0.952 . S
C290 C287 1.388 . S
C290 C291 1.382 . S
C290 H315 0.950 . S
C291 N286 1.332 . S
C291 C290 1.382 . S
C291 H301 0.948 . S
N292 Co270 2.282 . S
N292 C296 1.332 . S
N292 C297 1.332 . S
C293 C294 1.388 . S
C293 C297 1.382 . S
C293 H316 0.950 . S
C294 C293 1.388 . S
C294 C295 1.386 . S
C295 C294 1.386 . S
C295 C296 1.382 . S
C295 H317 0.950 . S
C296 N292 1.332 . S
C296 C295 1.382 . S
C296 H298 0.952 . S
C297 N292 1.332 . S
C297 C293 1.382 . S
C297 H299 0.948 . S
H298 C296 0.952 . S
H299 C297 0.948 . S
H300 C289 0.952 . S
H301 C291 0.948 . S
C302 C268 1.395 . S
C302 C272 1.391 . S
C303 C265 1.389 . S
C303 C285 1.392 . S
C304 C275 1.392 . S
C304 C277 1.389 . S
C305 C280 1.395 . S
C305 C282 1.391 . S
H306 C266 0.951 . S
H307 C267 0.950 . S
H308 C273 0.949 . S
H309 C274 0.950 . S
H310 C278 0.951 . S
H311 C279 0.950 . S
H312 C283 0.949 . S
H313 C284 0.950 . S
H314 C288 0.950 . S
H315 C290 0.950 . S
H316 C293 0.950 . S
H317 C295 0.950 . S
C318 C319 1.443 . S
C318 N322 1.376 . S
C318 C356 1.389 . S
C319 C318 1.443 . S
C319 C320 1.340 . S
C319 H359 0.951 . S
C320 C319 1.340 . S
C320 C321 1.439 . S
C320 H360 0.950 . S
C321 C320 1.439 . S
C321 N322 1.374 . S
C321 C355 1.395 . S
N322 C318 1.376 . S
N322 C321 1.374 . S
N322 Co323 2.008 . S
Co323 N322 2.008 . S
Co323 N324 1.995 . S
Co323 N329 2.008 . S
Co323 N334 1.995 . S
Co323 N339 2.282 . S
Co323 N345 2.282 . S
N324 Co323 1.995 . S
N324 C325 1.376 . S
N324 C328 1.383 . S
C325 N324 1.376 . S
C325 C326 1.446 . S
C325 C355 1.391 . S
C326 C325 1.446 . S
C326 C327 1.339 . S
C326 H361 0.949 . S
C327 C326 1.339 . S
C327 C328 1.439 . S
C327 H362 0.950 . S
C328 N324 1.383 . S
C328 C327 1.439 . S
C328 C357 1.392 . S
N329 Co323 2.008 . S
N329 C330 1.376 . S
N329 C333 1.374 . S
C330 N329 1.376 . S
C330 C331 1.443 . S
C330 C357 1.389 . S
C331 C330 1.443 . S
C331 C332 1.340 . S
C331 H363 0.951 . S
C332 C331 1.340 . S
C332 C333 1.439 . S
C332 H364 0.950 . S
C333 N329 1.374 . S
C333 C332 1.439 . S
C333 C358 1.395 . S
N334 Co323 1.995 . S
N334 C335 1.376 . S
N334 C338 1.383 . S
C335 N334 1.376 . S
C335 C336 1.446 . S
C335 C358 1.391 . S
C336 C335 1.446 . S
C336 C337 1.339 . S
C336 H365 0.949 . S
C337 C336 1.339 . S
C337 C338 1.439 . S
C337 H366 0.950 . S
C338 N334 1.383 . S
C338 C337 1.439 . S
C338 C356 1.392 . S
N339 Co323 2.282 . S
N339 C342 1.332 . S
N339 C344 1.332 . S
C340 C341 1.386 . S
C340 C343 1.388 . S
C341 C340 1.386 . S
C341 C342 1.382 . S
C341 H367 0.950 . S
C342 N339 1.332 . S
C342 C341 1.382 . S
C342 H353 0.952 . S
C343 C340 1.388 . S
C343 C344 1.382 . S
C343 H368 0.950 . S
C344 N339 1.332 . S
C344 C343 1.382 . S
C344 H354 0.948 . S
N345 Co323 2.282 . S
N345 C349 1.332 . S
N345 C350 1.332 . S
C346 C347 1.388 . S
C346 C350 1.382 . S
C346 H369 0.950 . S
C347 C346 1.388 . S
C347 C348 1.386 . S
C348 C347 1.386 . S
C348 C349 1.382 . S
C348 H370 0.950 . S
C349 N345 1.332 . S
C349 C348 1.382 . S
C349 H351 0.952 . S
C350 N345 1.332 . S
C350 C346 1.382 . S
C350 H352 0.948 . S
H351 C349 0.952 . S
H352 C350 0.948 . S
H353 C342 0.952 . S
H354 C344 0.948 . S
C355 C321 1.395 . S
C355 C325 1.391 . S
C356 C318 1.389 . S
C356 C338 1.392 . S
C357 C328 1.392 . S
C357 C330 1.389 . S
C358 C333 1.395 . S
C358 C335 1.391 . S
H359 C319 0.951 . S
H360 C320 0.950 . S
H361 C326 0.949 . S
H362 C327 0.950 . S
H363 C331 0.951 . S
H364 C332 0.950 . S
H365 C336 0.949 . S
H366 C337 0.950 . S
H367 C341 0.950 . S
H368 C343 0.950 . S
H369 C346 0.950 . S
H370 C348 0.950 . S
C371 C372 1.443 . S
C371 N375 1.376 . S
C371 C409 1.389 . S
C372 C371 1.443 . S
C372 C373 1.340 . S
C372 H412 0.951 . S
C373 C372 1.340 . S
C373 C374 1.439 . S
C373 H413 0.950 . S
C374 C373 1.439 . S
C374 N375 1.374 . S
C374 C408 1.395 . S
N375 C371 1.376 . S
N375 C374 1.374 . S
N375 Co376 2.008 . S
Co376 N375 2.008 . S
Co376 N377 1.995 . S
Co376 N382 2.008 . S
Co376 N387 1.995 . S
Co376 N392 2.282 . S
Co376 N398 2.282 . S
N377 Co376 1.995 . S
N377 C378 1.376 . S
N377 C381 1.383 . S
C378 N377 1.376 . S
C378 C379 1.446 . S
C378 C408 1.391 . S
C379 C378 1.446 . S
C379 C380 1.339 . S
C379 H414 0.949 . S
C380 C379 1.339 . S
C380 C381 1.439 . S
C380 H415 0.950 . S
C381 N377 1.383 . S
C381 C380 1.439 . S
C381 C410 1.392 . S
N382 Co376 2.008 . S
N382 C383 1.376 . S
N382 C386 1.374 . S
C383 N382 1.376 . S
C383 C384 1.443 . S
C383 C410 1.389 . S
C384 C383 1.443 . S
C384 C385 1.340 . S
C384 H416 0.951 . S
C385 C384 1.340 . S
C385 C386 1.439 . S
C385 H417 0.950 . S
C386 N382 1.374 . S
C386 C385 1.439 . S
C386 C411 1.395 . S
N387 Co376 1.995 . S
N387 C388 1.376 . S
N387 C391 1.383 . S
C388 N387 1.376 . S
C388 C389 1.446 . S
C388 C411 1.391 . S
C389 C388 1.446 . S
C389 C390 1.339 . S
C389 H418 0.949 . S
C390 C389 1.339 . S
C390 C391 1.439 . S
C390 H419 0.950 . S
C391 N387 1.383 . S
C391 C390 1.439 . S
C391 C409 1.392 . S
N392 Co376 2.282 . S
N392 C395 1.332 . S
N392 C397 1.332 . S
C393 C394 1.386 . S
C393 C396 1.388 . S
C394 C393 1.386 . S
C394 C395 1.382 . S
C394 H420 0.950 . S
C395 N392 1.332 . S
C395 C394 1.382 . S
C395 H406 0.952 . S
C396 C393 1.388 . S
C396 C397 1.382 . S
C396 H421 0.950 . S
C397 N392 1.332 . S
C397 C396 1.382 . S
C397 H407 0.948 . S
N398 Co376 2.282 . S
N398 C402 1.332 . S
N398 C403 1.332 . S
C399 C400 1.388 . S
C399 C403 1.382 . S
C399 H422 0.950 . S
C400 C399 1.388 . S
C400 C401 1.386 . S
C401 C400 1.386 . S
C401 C402 1.382 . S
C401 H423 0.950 . S
C402 N398 1.332 . S
C402 C401 1.382 . S
C402 H404 0.952 . S
C403 N398 1.332 . S
C403 C399 1.382 . S
C403 H405 0.948 . S
H404 C402 0.952 . S
H405 C403 0.948 . S
H406 C395 0.952 . S
H407 C397 0.948 . S
C408 C374 1.395 . S
C408 C378 1.391 . S
C409 C371 1.389 . S
C409 C391 1.392 . S
C410 C381 1.392 . S
C410 C383 1.389 . S
C411 C386 1.395 . S
C411 C388 1.391 . S
H412 C372 0.951 . S
H413 C373 0.950 . S
H414 C379 0.949 . S
H415 C380 0.950 . S
H416 C384 0.951 . S
H417 C385 0.950 . S
H418 C389 0.949 . S
H419 C390 0.950 . S
H420 C394 0.950 . S
H421 C396 0.950 . S
H422 C399 0.950 . S
H423 C401 0.950 . S
C424 C425 1.443 . S
C424 N428 1.376 . S
C424 C462 1.389 . S
C425 C424 1.443 . S
C425 C426 1.340 . S
C425 H465 0.951 . S
C426 C425 1.340 . S
C426 C427 1.439 . S
C426 H466 0.950 . S
C427 C426 1.439 . S
C427 N428 1.374 . S
C427 C461 1.395 . S
N428 C424 1.376 . S
N428 C427 1.374 . S
N428 Co429 2.008 . S
Co429 N428 2.008 . S
Co429 N430 1.995 . S
Co429 N435 2.008 . S
Co429 N440 1.995 . S
Co429 N445 2.282 . S
Co429 N451 2.282 . S
N430 Co429 1.995 . S
N430 C431 1.376 . S
N430 C434 1.383 . S
C431 N430 1.376 . S
C431 C432 1.446 . S
C431 C461 1.391 . S
C432 C431 1.446 . S
C432 C433 1.339 . S
C432 H467 0.949 . S
C433 C432 1.339 . S
C433 C434 1.439 . S
C433 H468 0.950 . S
C434 N430 1.383 . S
C434 C433 1.439 . S
C434 C463 1.392 . S
N435 Co429 2.008 . S
N435 C436 1.376 . S
N435 C439 1.374 . S
C436 N435 1.376 . S
C436 C437 1.443 . S
C436 C463 1.389 . S
C437 C436 1.443 . S
C437 C438 1.340 . S
C437 H469 0.951 . S
C438 C437 1.340 . S
C438 C439 1.439 . S
C438 H470 0.950 . S
C439 N435 1.374 . S
C439 C438 1.439 . S
C439 C464 1.395 . S
N440 Co429 1.995 . S
N440 C441 1.376 . S
N440 C444 1.383 . S
C441 N440 1.376 . S
C441 C442 1.446 . S
C441 C464 1.391 . S
C442 C441 1.446 . S
C442 C443 1.339 . S
C442 H471 0.949 . S
C443 C442 1.339 . S
C443 C444 1.439 . S
C443 H472 0.950 . S
C444 N440 1.383 . S
C444 C443 1.439 . S
C444 C462 1.392 . S
N445 Co429 2.282 . S
N445 C448 1.332 . S
N445 C450 1.332 . S
C446 C447 1.386 . S
C446 C449 1.388 . S
C447 C446 1.386 . S
C447 C448 1.382 . S
C447 H473 0.950 . S
C448 N445 1.332 . S
C448 C447 1.382 . S
C448 H459 0.952 . S
C449 C446 1.388 . S
C449 C450 1.382 . S
C449 H474 0.950 . S
C450 N445 1.332 . S
C450 C449 1.382 . S
C450 H460 0.948 . S
N451 Co429 2.282 . S
N451 C455 1.332 . S
N451 C456 1.332 . S
C452 C453 1.388 . S
C452 C456 1.382 . S
C452 H475 0.950 . S
C453 C452 1.388 . S
C453 C454 1.386 . S
C454 C453 1.386 . S
C454 C455 1.382 . S
C454 H476 0.950 . S
C455 N451 1.332 . S
C455 C454 1.382 . S
C455 H457 0.952 . S
C456 N451 1.332 . S
C456 C452 1.382 . S
C456 H458 0.948 . S
H457 C455 0.952 . S
H458 C456 0.948 . S
H459 C448 0.952 . S
H460 C450 0.948 . S
C461 C427 1.395 . S
C461 C431 1.391 . S
C462 C424 1.389 . S
C462 C444 1.392 . S
C463 C434 1.392 . S
C463 C436 1.389 . S
C464 C439 1.395 . S
C464 C441 1.391 . S
H465 C425 0.951 . S
H466 C426 0.950 . S
H467 C432 0.949 . S
H468 C433 0.950 . S
H469 C437 0.951 . S
H470 C438 0.950 . S
H471 C442 0.949 . S
H472 C443 0.950 . S
H473 C447 0.950 . S
H474 C449 0.950 . S
H475 C452 0.950 . S
H476 C454 0.950 . S
C477 C478 1.443 . S
C477 N481 1.376 . S
C477 C515 1.389 . S
C478 C477 1.443 . S
C478 C479 1.340 . S
C478 H518 0.951 . S
C479 C478 1.340 . S
C479 C480 1.439 . S
C479 H519 0.950 . S
C480 C479 1.439 . S
C480 N481 1.374 . S
C480 C514 1.395 . S
N481 C477 1.376 . S
N481 C480 1.374 . S
N481 Co482 2.008 . S
Co482 N481 2.008 . S
Co482 N483 1.995 . S
Co482 N488 2.008 . S
Co482 N493 1.995 . S
Co482 N498 2.282 . S
Co482 N504 2.282 . S
N483 Co482 1.995 . S
N483 C484 1.376 . S
N483 C487 1.383 . S
C484 N483 1.376 . S
C484 C485 1.446 . S
C484 C514 1.391 . S
C485 C484 1.446 . S
C485 C486 1.339 . S
C485 H520 0.949 . S
C486 C485 1.339 . S
C486 C487 1.439 . S
C486 H521 0.950 . S
C487 N483 1.383 . S
C487 C486 1.439 . S
C487 C516 1.392 . S
N488 Co482 2.008 . S
N488 C489 1.376 . S
N488 C492 1.374 . S
C489 N488 1.376 . S
C489 C490 1.443 . S
C489 C516 1.389 . S
C490 C489 1.443 . S
C490 C491 1.340 . S
C490 H522 0.951 . S
C491 C490 1.340 . S
C491 C492 1.439 . S
C491 H523 0.950 . S
C492 N488 1.374 . S
C492 C491 1.439 . S
C492 C517 1.395 . S
N493 Co482 1.995 . S
N493 C494 1.376 . S
N493 C497 1.383 . S
C494 N493 1.376 . S
C494 C495 1.446 . S
C494 C517 1.391 . S
C495 C494 1.446 . S
C495 C496 1.339 . S
C495 H524 0.949 . S
C496 C495 1.339 . S
C496 C497 1.439 . S
C496 H525 0.950 . S
C497 N493 1.383 . S
C497 C496 1.439 . S
C497 C515 1.392 . S
N498 Co482 2.282 . S
N498 C501 1.332 . S
N498 C503 1.332 . S
C499 C500 1.386 . S
C499 C502 1.388 . S
C500 C499 1.386 . S
C500 C501 1.382 . S
C500 H526 0.950 . S
C501 N498 1.332 . S
C501 C500 1.382 . S
C501 H512 0.952 . S
C502 C499 1.388 . S
C502 C503 1.382 . S
C502 H527 0.950 . S
C503 N498 1.332 . S
C503 C502 1.382 . S
C503 H513 0.948 . S
N504 Co482 2.282 . S
N504 C508 1.332 . S
N504 C509 1.332 . S
C505 C506 1.388 . S
C505 C509 1.382 . S
C505 H528 0.950 . S
C506 C505 1.388 . S
C506 C507 1.386 . S
C507 C506 1.386 . S
C507 C508 1.382 . S
C507 H529 0.950 . S
C508 N504 1.332 . S
C508 C507 1.382 . S
C508 H510 0.952 . S
C509 N504 1.332 . S
C509 C505 1.382 . S
C509 H511 0.948 . S
H510 C508 0.952 . S
H511 C509 0.948 . S
H512 C501 0.952 . S
H513 C503 0.948 . S
C514 C480 1.395 . S
C514 C484 1.391 . S
C515 C477 1.389 . S
C515 C497 1.392 . S
C516 C487 1.392 . S
C516 C489 1.389 . S
C517 C492 1.395 . S
C517 C494 1.391 . S
H518 C478 0.951 . S
H519 C479 0.950 . S
H520 C485 0.949 . S
H521 C486 0.950 . S
H522 C490 0.951 . S
H523 C491 0.950 . S
H524 C495 0.949 . S
H525 C496 0.950 . S
H526 C500 0.950 . S
H527 C502 0.950 . S
H528 C505 0.950 . S
H529 C507 0.950 . S
C530 C531 1.443 . S
C530 N534 1.376 . S
C530 C568 1.389 . S
C531 C530 1.443 . S
C531 C532 1.340 . S
C531 H571 0.951 . S
C532 C531 1.340 . S
C532 C533 1.439 . S
C532 H572 0.950 . S
C533 C532 1.439 . S
C533 N534 1.374 . S
C533 C567 1.395 . S
N534 C530 1.376 . S
N534 C533 1.374 . S
N534 Co535 2.008 . S
Co535 N534 2.008 . S
Co535 N536 1.995 . S
Co535 N541 2.008 . S
Co535 N546 1.995 . S
Co535 N551 2.282 . S
Co535 N557 2.282 . S
N536 Co535 1.995 . S
N536 C537 1.376 . S
N536 C540 1.383 . S
C537 N536 1.376 . S
C537 C538 1.446 . S
C537 C567 1.391 . S
C538 C537 1.446 . S
C538 C539 1.339 . S
C538 H573 0.949 . S
C539 C538 1.339 . S
C539 C540 1.439 . S
C539 H574 0.950 . S
C540 N536 1.383 . S
C540 C539 1.439 . S
C540 C569 1.392 . S
N541 Co535 2.008 . S
N541 C542 1.376 . S
N541 C545 1.374 . S
C542 N541 1.376 . S
C542 C543 1.443 . S
C542 C569 1.389 . S
C543 C542 1.443 . S
C543 C544 1.340 . S
C543 H575 0.951 . S
C544 C543 1.340 . S
C544 C545 1.439 . S
C544 H576 0.950 . S
C545 N541 1.374 . S
C545 C544 1.439 . S
C545 C570 1.395 . S
N546 Co535 1.995 . S
N546 C547 1.376 . S
N546 C550 1.383 . S
C547 N546 1.376 . S
C547 C548 1.446 . S
C547 C570 1.391 . S
C548 C547 1.446 . S
C548 C549 1.339 . S
C548 H577 0.949 . S
C549 C548 1.339 . S
C549 C550 1.439 . S
C549 H578 0.950 . S
C550 N546 1.383 . S
C550 C549 1.439 . S
C550 C568 1.392 . S
N551 Co535 2.282 . S
N551 C554 1.332 . S
N551 C556 1.332 . S
C552 C553 1.386 . S
C552 C555 1.388 . S
C553 C552 1.386 . S
C553 C554 1.382 . S
C553 H579 0.950 . S
C554 N551 1.332 . S
C554 C553 1.382 . S
C554 H565 0.952 . S
C555 C552 1.388 . S
C555 C556 1.382 . S
C555 H580 0.950 . S
C556 N551 1.332 . S
C556 C555 1.382 . S
C556 H566 0.948 . S
N557 Co535 2.282 . S
N557 C561 1.332 . S
N557 C562 1.332 . S
C558 C559 1.388 . S
C558 C562 1.382 . S
C558 H581 0.950 . S
C559 C558 1.388 . S
C559 C560 1.386 . S
C560 C559 1.386 . S
C560 C561 1.382 . S
C560 H582 0.950 . S
C561 N557 1.332 . S
C561 C560 1.382 . S
C561 H563 0.952 . S
C562 N557 1.332 . S
C562 C558 1.382 . S
C562 H564 0.948 . S
H563 C561 0.952 . S
H564 C562 0.948 . S
H565 C554 0.952 . S
H566 C556 0.948 . S
C567 C533 1.395 . S
C567 C537 1.391 . S
C568 C530 1.389 . S
C568 C550 1.392 . S
C569 C540 1.392 . S
C569 C542 1.389 . S
C570 C545 1.395 . S
C570 C547 1.391 . S
H571 C531 0.951 . S
H572 C532 0.950 . S
H573 C538 0.949 . S
H574 C539 0.950 . S
H575 C543 0.951 . S
H576 C544 0.950 . S
H577 C548 0.949 . S
H578 C549 0.950 . S
H579 C553 0.950 . S
H580 C555 0.950 . S
H581 C558 0.950 . S
H582 C560 0.950 . S
C583 C584 1.443 . S
C583 N587 1.376 . S
C583 C621 1.389 . S
C584 C583 1.443 . S
C584 C585 1.340 . S
C584 H624 0.951 . S
C585 C584 1.340 . S
C585 C586 1.439 . S
C585 H625 0.950 . S
C586 C585 1.439 . S
C586 N587 1.374 . S
C586 C620 1.395 . S
N587 C583 1.376 . S
N587 C586 1.374 . S
N587 Co588 2.008 . S
Co588 N587 2.008 . S
Co588 N589 1.995 . S
Co588 N594 2.008 . S
Co588 N599 1.995 . S
Co588 N604 2.282 . S
Co588 N610 2.282 . S
N589 Co588 1.995 . S
N589 C590 1.376 . S
N589 C593 1.383 . S
C590 N589 1.376 . S
C590 C591 1.446 . S
C590 C620 1.391 . S
C591 C590 1.446 . S
C591 C592 1.339 . S
C591 H626 0.949 . S
C592 C591 1.339 . S
C592 C593 1.439 . S
C592 H627 0.950 . S
C593 N589 1.383 . S
C593 C592 1.439 . S
C593 C622 1.392 . S
N594 Co588 2.008 . S
N594 C595 1.376 . S
N594 C598 1.374 . S
C595 N594 1.376 . S
C595 C596 1.443 . S
C595 C622 1.389 . S
C596 C595 1.443 . S
C596 C597 1.340 . S
C596 H628 0.951 . S
C597 C596 1.340 . S
C597 C598 1.439 . S
C597 H629 0.950 . S
C598 N594 1.374 . S
C598 C597 1.439 . S
C598 C623 1.395 . S
N599 Co588 1.995 . S
N599 C600 1.376 . S
N599 C603 1.383 . S
C600 N599 1.376 . S
C600 C601 1.446 . S
C600 C623 1.391 . S
C601 C600 1.446 . S
C601 C602 1.339 . S
C601 H630 0.949 . S
C602 C601 1.339 . S
C602 C603 1.439 . S
C602 H631 0.950 . S
C603 N599 1.383 . S
C603 C602 1.439 . S
C603 C621 1.392 . S
N604 Co588 2.282 . S
N604 C607 1.332 . S
N604 C609 1.332 . S
C605 C606 1.386 . S
C605 C608 1.388 . S
C606 C605 1.386 . S
C606 C607 1.382 . S
C606 H632 0.950 . S
C607 N604 1.332 . S
C607 C606 1.382 . S
C607 H618 0.952 . S
C608 C605 1.388 . S
C608 C609 1.382 . S
C608 H633 0.950 . S
C609 N604 1.332 . S
C609 C608 1.382 . S
C609 H619 0.948 . S
N610 Co588 2.282 . S
N610 C614 1.332 . S
N610 C615 1.332 . S
C611 C612 1.388 . S
C611 C615 1.382 . S
C611 H634 0.950 . S
C612 C611 1.388 . S
C612 C613 1.386 . S
C613 C612 1.386 . S
C613 C614 1.382 . S
C613 H635 0.950 . S
C614 N610 1.332 . S
C614 C613 1.382 . S
C614 H616 0.952 . S
C615 N610 1.332 . S
C615 C611 1.382 . S
C615 H617 0.948 . S
H616 C614 0.952 . S
H617 C615 0.948 . S
H618 C607 0.952 . S
H619 C609 0.948 . S
C620 C586 1.395 . S
C620 C590 1.391 . S
C621 C583 1.389 . S
C621 C603 1.392 . S
C622 C593 1.392 . S
C622 C595 1.389 . S
C623 C598 1.395 . S
C623 C600 1.391 . S
H624 C584 0.951 . S
H625 C585 0.950 . S
H626 C591 0.949 . S
H627 C592 0.950 . S
H628 C596 0.951 . S
H629 C597 0.950 . S
H630 C601 0.949 . S
H631 C602 0.950 . S
H632 C606 0.950 . S
H633 C608 0.950 . S
H634 C611 0.950 . S
H635 C613 0.950 . S
C636 C637 1.443 . S
C636 N640 1.376 . S
C636 C674 1.389 . S
C637 C636 1.443 . S
C637 C638 1.340 . S
C637 H677 0.951 . S
C638 C637 1.340 . S
C638 C639 1.439 . S
C638 H678 0.950 . S
C639 C638 1.439 . S
C639 N640 1.374 . S
C639 C673 1.395 . S
N640 C636 1.376 . S
N640 C639 1.374 . S
N640 Co641 2.008 . S
Co641 N640 2.008 . S
Co641 N642 1.995 . S
Co641 N647 2.008 . S
Co641 N652 1.995 . S
Co641 N657 2.282 . S
Co641 N663 2.282 . S
N642 Co641 1.995 . S
N642 C643 1.376 . S
N642 C646 1.383 . S
C643 N642 1.376 . S
C643 C644 1.446 . S
C643 C673 1.391 . S
C644 C643 1.446 . S
C644 C645 1.339 . S
C644 H679 0.949 . S
C645 C644 1.339 . S
C645 C646 1.439 . S
C645 H680 0.950 . S
C646 N642 1.383 . S
C646 C645 1.439 . S
C646 C675 1.392 . S
N647 Co641 2.008 . S
N647 C648 1.376 . S
N647 C651 1.374 . S
C648 N647 1.376 . S
C648 C649 1.443 . S
C648 C675 1.389 . S
C649 C648 1.443 . S
C649 C650 1.340 . S
C649 H681 0.951 . S
C650 C649 1.340 . S
C650 C651 1.439 . S
C650 H682 0.950 . S
C651 N647 1.374 . S
C651 C650 1.439 . S
C651 C676 1.395 . S
N652 Co641 1.995 . S
N652 C653 1.376 . S
N652 C656 1.383 . S
C653 N652 1.376 . S
C653 C654 1.446 . S
C653 C676 1.391 . S
C654 C653 1.446 . S
C654 C655 1.339 . S
C654 H683 0.949 . S
C655 C654 1.339 . S
C655 C656 1.439 . S
C655 H684 0.950 . S
C656 N652 1.383 . S
C656 C655 1.439 . S
C656 C674 1.392 . S
N657 Co641 2.282 . S
N657 C660 1.332 . S
N657 C662 1.332 . S
C658 C659 1.386 . S
C658 C661 1.388 . S
C659 C658 1.386 . S
C659 C660 1.382 . S
C659 H685 0.950 . S
C660 N657 1.332 . S
C660 C659 1.382 . S
C660 H671 0.952 . S
C661 C658 1.388 . S
C661 C662 1.382 . S
C661 H686 0.950 . S
C662 N657 1.332 . S
C662 C661 1.382 . S
C662 H672 0.948 . S
N663 Co641 2.282 . S
N663 C667 1.332 . S
N663 C668 1.332 . S
C664 C665 1.388 . S
C664 C668 1.382 . S
C664 H687 0.950 . S
C665 C664 1.388 . S
C665 C666 1.386 . S
C666 C665 1.386 . S
C666 C667 1.382 . S
C666 H688 0.950 . S
C667 N663 1.332 . S
C667 C666 1.382 . S
C667 H669 0.952 . S
C668 N663 1.332 . S
C668 C664 1.382 . S
C668 H670 0.948 . S
H669 C667 0.952 . S
H670 C668 0.948 . S
H671 C660 0.952 . S
H672 C662 0.948 . S
C673 C639 1.395 . S
C673 C643 1.391 . S
C674 C636 1.389 . S
C674 C656 1.392 . S
C675 C646 1.392 . S
C675 C648 1.389 . S
C676 C651 1.395 . S
C676 C653 1.391 . S
H677 C637 0.951 . S
H678 C638 0.950 . S
H679 C644 0.949 . S
H680 C645 0.950 . S
H681 C649 0.951 . S
H682 C650 0.950 . S
H683 C654 0.949 . S
H684 C655 0.950 . S
H685 C659 0.950 . S
H686 C661 0.950 . S
H687 C664 0.950 . S
H688 C666 0.950 . S
C689 C690 1.443 . S
C689 N693 1.376 . S
C689 C727 1.389 . S
C690 C689 1.443 . S
C690 C691 1.340 . S
C690 H730 0.951 . S
C691 C690 1.340 . S
C691 C692 1.439 . S
C691 H731 0.950 . S
C692 C691 1.439 . S
C692 N693 1.374 . S
C692 C726 1.395 . S
N693 C689 1.376 . S
N693 C692 1.374 . S
N693 Co694 2.008 . S
Co694 N693 2.008 . S
Co694 N695 1.995 . S
Co694 N700 2.008 . S
Co694 N705 1.995 . S
Co694 N710 2.282 . S
Co694 N716 2.282 . S
N695 Co694 1.995 . S
N695 C696 1.376 . S
N695 C699 1.383 . S
C696 N695 1.376 . S
C696 C697 1.446 . S
C696 C726 1.391 . S
C697 C696 1.446 . S
C697 C698 1.339 . S
C697 H732 0.949 . S
C698 C697 1.339 . S
C698 C699 1.439 . S
C698 H733 0.950 . S
C699 N695 1.383 . S
C699 C698 1.439 . S
C699 C728 1.392 . S
N700 Co694 2.008 . S
N700 C701 1.376 . S
N700 C704 1.374 . S
C701 N700 1.376 . S
C701 C702 1.443 . S
C701 C728 1.389 . S
C702 C701 1.443 . S
C702 C703 1.340 . S
C702 H734 0.951 . S
C703 C702 1.340 . S
C703 C704 1.439 . S
C703 H735 0.950 . S
C704 N700 1.374 . S
C704 C703 1.439 . S
C704 C729 1.395 . S
N705 Co694 1.995 . S
N705 C706 1.376 . S
N705 C709 1.383 . S
C706 N705 1.376 . S
C706 C707 1.446 . S
C706 C729 1.391 . S
C707 C706 1.446 . S
C707 C708 1.339 . S
C707 H736 0.949 . S
C708 C707 1.339 . S
C708 C709 1.439 . S
C708 H737 0.950 . S
C709 N705 1.383 . S
C709 C708 1.439 . S
C709 C727 1.392 . S
N710 Co694 2.282 . S
N710 C713 1.332 . S
N710 C715 1.332 . S
C711 C712 1.386 . S
C711 C714 1.388 . S
C712 C711 1.386 . S
C712 C713 1.382 . S
C712 H738 0.950 . S
C713 N710 1.332 . S
C713 C712 1.382 . S
C713 H724 0.952 . S
C714 C711 1.388 . S
C714 C715 1.382 . S
C714 H739 0.950 . S
C715 N710 1.332 . S
C715 C714 1.382 . S
C715 H725 0.948 . S
N716 Co694 2.282 . S
N716 C720 1.332 . S
N716 C721 1.332 . S
C717 C718 1.388 . S
C717 C721 1.382 . S
C717 H740 0.950 . S
C718 C717 1.388 . S
C718 C719 1.386 . S
C719 C718 1.386 . S
C719 C720 1.382 . S
C719 H741 0.950 . S
C720 N716 1.332 . S
C720 C719 1.382 . S
C720 H722 0.952 . S
C721 N716 1.332 . S
C721 C717 1.382 . S
C721 H723 0.948 . S
H722 C720 0.952 . S
H723 C721 0.948 . S
H724 C713 0.952 . S
H725 C715 0.948 . S
C726 C692 1.395 . S
C726 C696 1.391 . S
C727 C689 1.389 . S
C727 C709 1.392 . S
C728 C699 1.392 . S
C728 C701 1.389 . S
C729 C704 1.395 . S
C729 C706 1.391 . S
H730 C690 0.951 . S
H731 C691 0.950 . S
H732 C697 0.949 . S
H733 C698 0.950 . S
H734 C702 0.951 . S
H735 C703 0.950 . S
H736 C707 0.949 . S
H737 C708 0.950 . S
H738 C712 0.950 . S
H739 C714 0.950 . S
H740 C717 0.950 . S
H741 C719 0.950 . S
C742 C743 1.443 . S
C742 N746 1.376 . S
C742 C780 1.389 . S
C743 C742 1.443 . S
C743 C744 1.340 . S
C743 H783 0.951 . S
C744 C743 1.340 . S
C744 C745 1.439 . S
C744 H784 0.950 . S
C745 C744 1.439 . S
C745 N746 1.374 . S
C745 C779 1.395 . S
N746 C742 1.376 . S
N746 C745 1.374 . S
N746 Co747 2.008 . S
Co747 N746 2.008 . S
Co747 N748 1.995 . S
Co747 N753 2.008 . S
Co747 N758 1.995 . S
Co747 N763 2.282 . S
Co747 N769 2.282 . S
N748 Co747 1.995 . S
N748 C749 1.376 . S
N748 C752 1.383 . S
C749 N748 1.376 . S
C749 C750 1.446 . S
C749 C779 1.391 . S
C750 C749 1.446 . S
C750 C751 1.339 . S
C750 H785 0.949 . S
C751 C750 1.339 . S
C751 C752 1.439 . S
C751 H786 0.950 . S
C752 N748 1.383 . S
C752 C751 1.439 . S
C752 C781 1.392 . S
N753 Co747 2.008 . S
N753 C754 1.376 . S
N753 C757 1.374 . S
C754 N753 1.376 . S
C754 C755 1.443 . S
C754 C781 1.389 . S
C755 C754 1.443 . S
C755 C756 1.340 . S
C755 H787 0.951 . S
C756 C755 1.340 . S
C756 C757 1.439 . S
C756 H788 0.950 . S
C757 N753 1.374 . S
C757 C756 1.439 . S
C757 C782 1.395 . S
N758 Co747 1.995 . S
N758 C759 1.376 . S
N758 C762 1.383 . S
C759 N758 1.376 . S
C759 C760 1.446 . S
C759 C782 1.391 . S
C760 C759 1.446 . S
C760 C761 1.339 . S
C760 H789 0.949 . S
C761 C760 1.339 . S
C761 C762 1.439 . S
C761 H790 0.950 . S
C762 N758 1.383 . S
C762 C761 1.439 . S
C762 C780 1.392 . S
N763 Co747 2.282 . S
N763 C766 1.332 . S
N763 C768 1.332 . S
C764 C765 1.386 . S
C764 C767 1.388 . S
C765 C764 1.386 . S
C765 C766 1.382 . S
C765 H791 0.950 . S
C766 N763 1.332 . S
C766 C765 1.382 . S
C766 H777 0.952 . S
C767 C764 1.388 . S
C767 C768 1.382 . S
C767 H792 0.950 . S
C768 N763 1.332 . S
C768 C767 1.382 . S
C768 H778 0.948 . S
N769 Co747 2.282 . S
N769 C773 1.332 . S
N769 C774 1.332 . S
C770 C771 1.388 . S
C770 C774 1.382 . S
C770 H793 0.950 . S
C771 C770 1.388 . S
C771 C772 1.386 . S
C772 C771 1.386 . S
C772 C773 1.382 . S
C772 H794 0.950 . S
C773 N769 1.332 . S
C773 C772 1.382 . S
C773 H775 0.952 . S
C774 N769 1.332 . S
C774 C770 1.382 . S
C774 H776 0.948 . S
H775 C773 0.952 . S
H776 C774 0.948 . S
H777 C766 0.952 . S
H778 C768 0.948 . S
C779 C745 1.395 . S
C779 C749 1.391 . S
C780 C742 1.389 . S
C780 C762 1.392 . S
C781 C752 1.392 . S
C781 C754 1.389 . S
C782 C757 1.395 . S
C782 C759 1.391 . S
H783 C743 0.951 . S
H784 C744 0.950 . S
H785 C750 0.949 . S
H786 C751 0.950 . S
H787 C755 0.951 . S
H788 C756 0.950 . S
H789 C760 0.949 . S
H790 C761 0.950 . S
H791 C765 0.950 . S
H792 C767 0.950 . S
H793 C770 0.950 . S
H794 C772 0.950 . S
C795 C796 1.443 . S
C795 N799 1.376 . S
C795 C833 1.389 . S
C796 C795 1.443 . S
C796 C797 1.340 . S
C796 H836 0.951 . S
C797 C796 1.340 . S
C797 C798 1.439 . S
C797 H837 0.950 . S
C798 C797 1.439 . S
C798 N799 1.374 . S
C798 C832 1.395 . S
N799 C795 1.376 . S
N799 C798 1.374 . S
N799 Co800 2.008 . S
Co800 N799 2.008 . S
Co800 N801 1.995 . S
Co800 N806 2.008 . S
Co800 N811 1.995 . S
Co800 N816 2.282 . S
Co800 N822 2.282 . S
N801 Co800 1.995 . S
N801 C802 1.376 . S
N801 C805 1.383 . S
C802 N801 1.376 . S
C802 C803 1.446 . S
C802 C832 1.391 . S
C803 C802 1.446 . S
C803 C804 1.339 . S
C803 H838 0.949 . S
C804 C803 1.339 . S
C804 C805 1.439 . S
C804 H839 0.950 . S
C805 N801 1.383 . S
C805 C804 1.439 . S
C805 C834 1.392 . S
N806 Co800 2.008 . S
N806 C807 1.376 . S
N806 C810 1.374 . S
C807 N806 1.376 . S
C807 C808 1.443 . S
C807 C834 1.389 . S
C808 C807 1.443 . S
C808 C809 1.340 . S
C808 H840 0.951 . S
C809 C808 1.340 . S
C809 C810 1.439 . S
C809 H841 0.950 . S
C810 N806 1.374 . S
C810 C809 1.439 . S
C810 C835 1.395 . S
N811 Co800 1.995 . S
N811 C812 1.376 . S
N811 C815 1.383 . S
C812 N811 1.376 . S
C812 C813 1.446 . S
C812 C835 1.391 . S
C813 C812 1.446 . S
C813 C814 1.339 . S
C813 H842 0.949 . S
C814 C813 1.339 . S
C814 C815 1.439 . S
C814 H843 0.950 . S
C815 N811 1.383 . S
C815 C814 1.439 . S
C815 C833 1.392 . S
N816 Co800 2.282 . S
N816 C819 1.332 . S
N816 C821 1.332 . S
C817 C818 1.386 . S
C817 C820 1.388 . S
C818 C817 1.386 . S
C818 C819 1.382 . S
C818 H844 0.950 . S
C819 N816 1.332 . S
C819 C818 1.382 . S
C819 H830 0.952 . S
C820 C817 1.388 . S
C820 C821 1.382 . S
C820 H845 0.950 . S
C821 N816 1.332 . S
C821 C820 1.382 . S
C821 H831 0.948 . S
N822 Co800 2.282 . S
N822 C826 1.332 . S
N822 C827 1.332 . S
C823 C824 1.388 . S
C823 C827 1.382 . S
C823 H846 0.950 . S
C824 C823 1.388 . S
C824 C825 1.386 . S
C825 C824 1.386 . S
C825 C826 1.382 . S
C825 H847 0.950 . S
C826 N822 1.332 . S
C826 C825 1.382 . S
C826 H828 0.952 . S
C827 N822 1.332 . S
C827 C823 1.382 . S
C827 H829 0.948 . S
H828 C826 0.952 . S
H829 C827 0.948 . S
H830 C819 0.952 . S
H831 C821 0.948 . S
C832 C798 1.395 . S
C832 C802 1.391 . S
C833 C795 1.389 . S
C833 C815 1.392 . S
C834 C805 1.392 . S
C834 C807 1.389 . S
C835 C810 1.395 . S
C835 C812 1.391 . S
H836 C796 0.951 . S
H837 C797 0.950 . S
H838 C803 0.949 . S
H839 C804 0.950 . S
H840 C808 0.951 . S
H841 C809 0.950 . S
H842 C813 0.949 . S
H843 C814 0.950 . S
H844 C818 0.950 . S
H845 C820 0.950 . S
H846 C823 0.950 . S
H847 C825 0.950 . S
C848 C849 1.443 . S
C848 N852 1.376 . S
C848 C886 1.389 . S
C849 C848 1.443 . S
C849 C850 1.340 . S
C849 H889 0.951 . S
C850 C849 1.340 . S
C850 C851 1.439 . S
C850 H890 0.950 . S
C851 C850 1.439 . S
C851 N852 1.374 . S
C851 C885 1.395 . S
N852 C848 1.376 . S
N852 C851 1.374 . S
N852 Co853 2.008 . S
Co853 N852 2.008 . S
Co853 N854 1.995 . S
Co853 N859 2.008 . S
Co853 N864 1.995 . S
Co853 N869 2.282 . S
Co853 N875 2.282 . S
N854 Co853 1.995 . S
N854 C855 1.376 . S
N854 C858 1.383 . S
C855 N854 1.376 . S
C855 C856 1.446 . S
C855 C885 1.391 . S
C856 C855 1.446 . S
C856 C857 1.339 . S
C856 H891 0.949 . S
C857 C856 1.339 . S
C857 C858 1.439 . S
C857 H892 0.950 . S
C858 N854 1.383 . S
C858 C857 1.439 . S
C858 C887 1.392 . S
N859 Co853 2.008 . S
N859 C860 1.376 . S
N859 C863 1.374 . S
C860 N859 1.376 . S
C860 C861 1.443 . S
C860 C887 1.389 . S
C861 C860 1.443 . S
C861 C862 1.340 . S
C861 H893 0.951 . S
C862 C861 1.340 . S
C862 C863 1.439 . S
C862 H894 0.950 . S
C863 N859 1.374 . S
C863 C862 1.439 . S
C863 C888 1.395 . S
N864 Co853 1.995 . S
N864 C865 1.376 . S
N864 C868 1.383 . S
C865 N864 1.376 . S
C865 C866 1.446 . S
C865 C888 1.391 . S
C866 C865 1.446 . S
C866 C867 1.339 . S
C866 H895 0.949 . S
C867 C866 1.339 . S
C867 C868 1.439 . S
C867 H896 0.950 . S
C868 N864 1.383 . S
C868 C867 1.439 . S
C868 C886 1.392 . S
N869 Co853 2.282 . S
N869 C872 1.332 . S
N869 C874 1.332 . S
C870 C871 1.386 . S
C870 C873 1.388 . S
C871 C870 1.386 . S
C871 C872 1.382 . S
C871 H897 0.950 . S
C872 N869 1.332 . S
C872 C871 1.382 . S
C872 H883 0.952 . S
C873 C870 1.388 . S
C873 C874 1.382 . S
C873 H898 0.950 . S
C874 N869 1.332 . S
C874 C873 1.382 . S
C874 H884 0.948 . S
N875 Co853 2.282 . S
N875 C879 1.332 . S
N875 C880 1.332 . S
C876 C877 1.388 . S
C876 C880 1.382 . S
C876 H899 0.950 . S
C877 C876 1.388 . S
C877 C878 1.386 . S
C878 C877 1.386 . S
C878 C879 1.382 . S
C878 H900 0.950 . S
C879 N875 1.332 . S
C879 C878 1.382 . S
C879 H881 0.952 . S
C880 N875 1.332 . S
C880 C876 1.382 . S
C880 H882 0.948 . S
H881 C879 0.952 . S
H882 C880 0.948 . S
H883 C872 0.952 . S
H884 C874 0.948 . S
C885 C851 1.395 . S
C885 C855 1.391 . S
C886 C848 1.389 . S
C886 C868 1.392 . S
C887 C858 1.392 . S
C887 C860 1.389 . S
C888 C863 1.395 . S
C888 C865 1.391 . S
H889 C849 0.951 . S
H890 C850 0.950 . S
H891 C856 0.949 . S
H892 C857 0.950 . S
H893 C861 0.951 . S
H894 C862 0.950 . S
H895 C866 0.949 . S
H896 C867 0.950 . S
H897 C871 0.950 . S
H898 C873 0.950 . S
H899 C876 0.950 . S
H900 C878 0.950 . S
C901 C902 1.443 . S
C901 N905 1.376 . S
C901 C939 1.389 . S
C902 C901 1.443 . S
C902 C903 1.340 . S
C902 H942 0.951 . S
C903 C902 1.340 . S
C903 C904 1.439 . S
C903 H943 0.950 . S
C904 C903 1.439 . S
C904 N905 1.374 . S
C904 C938 1.395 . S
N905 C901 1.376 . S
N905 C904 1.374 . S
N905 Co906 2.008 . S
Co906 N905 2.008 . S
Co906 N907 1.995 . S
Co906 N912 2.008 . S
Co906 N917 1.995 . S
Co906 N922 2.282 . S
Co906 N928 2.282 . S
N907 Co906 1.995 . S
N907 C908 1.376 . S
N907 C911 1.383 . S
C908 N907 1.376 . S
C908 C909 1.446 . S
C908 C938 1.391 . S
C909 C908 1.446 . S
C909 C910 1.339 . S
C909 H944 0.949 . S
C910 C909 1.339 . S
C910 C911 1.439 . S
C910 H945 0.950 . S
C911 N907 1.383 . S
C911 C910 1.439 . S
C911 C940 1.392 . S
N912 Co906 2.008 . S
N912 C913 1.376 . S
N912 C916 1.374 . S
C913 N912 1.376 . S
C913 C914 1.443 . S
C913 C940 1.389 . S
C914 C913 1.443 . S
C914 C915 1.340 . S
C914 H946 0.951 . S
C915 C914 1.340 . S
C915 C916 1.439 . S
C915 H947 0.950 . S
C916 N912 1.374 . S
C916 C915 1.439 . S
C916 C941 1.395 . S
N917 Co906 1.995 . S
N917 C918 1.376 . S
N917 C921 1.383 . S
C918 N917 1.376 . S
C918 C919 1.446 . S
C918 C941 1.391 . S
C919 C918 1.446 . S
C919 C920 1.339 . S
C919 H948 0.949 . S
C920 C919 1.339 . S
C920 C921 1.439 . S
C920 H949 0.950 . S
C921 N917 1.383 . S
C921 C920 1.439 . S
C921 C939 1.392 . S
N922 Co906 2.282 . S
N922 C925 1.332 . S
N922 C927 1.332 . S
C923 C924 1.386 . S
C923 C926 1.388 . S
C924 C923 1.386 . S
C924 C925 1.382 . S
C924 H950 0.950 . S
C925 N922 1.332 . S
C925 C924 1.382 . S
C925 H936 0.952 . S
C926 C923 1.388 . S
C926 C927 1.382 . S
C926 H951 0.950 . S
C927 N922 1.332 . S
C927 C926 1.382 . S
C927 H937 0.948 . S
N928 Co906 2.282 . S
N928 C932 1.332 . S
N928 C933 1.332 . S
C929 C930 1.388 . S
C929 C933 1.382 . S
C929 H952 0.950 . S
C930 C929 1.388 . S
C930 C931 1.386 . S
C931 C930 1.386 . S
C931 C932 1.382 . S
C931 H953 0.950 . S
C932 N928 1.332 . S
C932 C931 1.382 . S
C932 H934 0.952 . S
C933 N928 1.332 . S
C933 C929 1.382 . S
C933 H935 0.948 . S
H934 C932 0.952 . S
H935 C933 0.948 . S
H936 C925 0.952 . S
H937 C927 0.948 . S
C938 C904 1.395 . S
C938 C908 1.391 . S
C939 C901 1.389 . S
C939 C921 1.392 . S
C940 C911 1.392 . S
C940 C913 1.389 . S
C941 C916 1.395 . S
C941 C918 1.391 . S
H942 C902 0.951 . S
H943 C903 0.950 . S
H944 C909 0.949 . S
H945 C910 0.950 . S
H946 C914 0.951 . S
H947 C915 0.950 . S
H948 C919 0.949 . S
H949 C920 0.950 . S
H950 C924 0.950 . S
H951 C926 0.950 . S
H952 C929 0.950 . S
H953 C931 0.950 . S
C954 C955 1.443 . S
C954 N958 1.376 . S
C954 C992 1.389 . S
C955 C954 1.443 . S
C955 C956 1.340 . S
C955 H995 0.951 . S
C956 C955 1.340 . S
C956 C957 1.439 . S
C956 H996 0.950 . S
C957 C956 1.439 . S
C957 N958 1.374 . S
C957 C991 1.395 . S
N958 C954 1.376 . S
N958 C957 1.374 . S
N958 Co959 2.008 . S
Co959 N958 2.008 . S
Co959 N960 1.995 . S
Co959 N965 2.008 . S
Co959 N970 1.995 . S
Co959 N975 2.282 . S
Co959 N981 2.282 . S
N960 Co959 1.995 . S
N960 C961 1.376 . S
N960 C964 1.383 . S
C961 N960 1.376 . S
C961 C962 1.446 . S
C961 C991 1.391 . S
C962 C961 1.446 . S
C962 C963 1.339 . S
C962 H997 0.949 . S
C963 C962 1.339 . S
C963 C964 1.439 . S
C963 H998 0.950 . S
C964 N960 1.383 . S
C964 C963 1.439 . S
C964 C993 1.392 . S
N965 Co959 2.008 . S
N965 C966 1.376 . S
N965 C969 1.374 . S
C966 N965 1.376 . S
C966 C967 1.443 . S
C966 C993 1.389 . S
C967 C966 1.443 . S
C967 C968 1.340 . S
C967 H999 0.951 . S
C968 C967 1.340 . S
C968 C969 1.439 . S
C968 H1000 0.950 . S
C969 N965 1.374 . S
C969 C968 1.439 . S
C969 C994 1.395 . S
N970 Co959 1.995 . S
N970 C971 1.376 . S
N970 C974 1.383 . S
C971 N970 1.376 . S
C971 C972 1.446 . S
C971 C994 1.391 . S
C972 C971 1.446 . S
C972 C973 1.339 . S
C972 H1001 0.949 . S
C973 C972 1.339 . S
C973 C974 1.439 . S
C973 H1002 0.950 . S
C974 N970 1.383 . S
C974 C973 1.439 . S
C974 C992 1.392 . S
N975 Co959 2.282 . S
N975 C978 1.332 . S
N975 C980 1.332 . S
C976 C977 1.386 . S
C976 C979 1.388 . S
C977 C976 1.386 . S
C977 C978 1.382 . S
C977 H1003 0.950 . S
C978 N975 1.332 . S
C978 C977 1.382 . S
C978 H989 0.952 . S
C979 C976 1.388 . S
C979 C980 1.382 . S
C979 H1004 0.950 . S
C980 N975 1.332 . S
C980 C979 1.382 . S
C980 H990 0.948 . S
N981 Co959 2.282 . S
N981 C985 1.332 . S
N981 C986 1.332 . S
C982 C983 1.388 . S
C982 C986 1.382 . S
C982 H1005 0.950 . S
C983 C982 1.388 . S
C983 C984 1.386 . S
C984 C983 1.386 . S
C984 C985 1.382 . S
C984 H1006 0.950 . S
C985 N981 1.332 . S
C985 C984 1.382 . S
C985 H987 0.952 . S
C986 N981 1.332 . S
C986 C982 1.382 . S
C986 H988 0.948 . S
H987 C985 0.952 . S
H988 C986 0.948 . S
H989 C978 0.952 . S
H990 C980 0.948 . S
C991 C957 1.395 . S
C991 C961 1.391 . S
C992 C954 1.389 . S
C992 C974 1.392 . S
C993 C964 1.392 . S
C993 C966 1.389 . S
C994 C969 1.395 . S
C994 C971 1.391 . S
H995 C955 0.951 . S
H996 C956 0.950 . S
H997 C962 0.949 . S
H998 C963 0.950 . S
H999 C967 0.951 . S
H1000 C968 0.950 . S
H1001 C972 0.949 . S
H1002 C973 0.950 . S
H1003 C977 0.950 . S
H1004 C979 0.950 . S
H1005 C982 0.950 . S
H1006 C984 0.950 . S
C1007 C1008 1.443 . S
C1007 N1011 1.376 . S
C1007 C1045 1.389 . S
C1008 C1007 1.443 . S
C1008 C1009 1.340 . S
C1008 H1048 0.951 . S
C1009 C1008 1.340 . S
C1009 C1010 1.439 . S
C1009 H1049 0.950 . S
C1010 C1009 1.439 . S
C1010 N1011 1.374 . S
C1010 C1044 1.395 . S
N1011 C1007 1.376 . S
N1011 C1010 1.374 . S
N1011 Co1012 2.008 . S
Co1012 N1011 2.008 . S
Co1012 N1013 1.995 . S
Co1012 N1018 2.008 . S
Co1012 N1023 1.995 . S
Co1012 N1028 2.282 . S
Co1012 N1034 2.282 . S
N1013 Co1012 1.995 . S
N1013 C1014 1.376 . S
N1013 C1017 1.383 . S
C1014 N1013 1.376 . S
C1014 C1015 1.446 . S
C1014 C1044 1.391 . S
C1015 C1014 1.446 . S
C1015 C1016 1.339 . S
C1015 H1050 0.949 . S
C1016 C1015 1.339 . S
C1016 C1017 1.439 . S
C1016 H1051 0.950 . S
C1017 N1013 1.383 . S
C1017 C1016 1.439 . S
C1017 C1046 1.392 . S
N1018 Co1012 2.008 . S
N1018 C1019 1.376 . S
N1018 C1022 1.374 . S
C1019 N1018 1.376 . S
C1019 C1020 1.443 . S
C1019 C1046 1.389 . S
C1020 C1019 1.443 . S
C1020 C1021 1.340 . S
C1020 H1052 0.951 . S
C1021 C1020 1.340 . S
C1021 C1022 1.439 . S
C1021 H1053 0.950 . S
C1022 N1018 1.374 . S
C1022 C1021 1.439 . S
C1022 C1047 1.395 . S
N1023 Co1012 1.995 . S
N1023 C1024 1.376 . S
N1023 C1027 1.383 . S
C1024 N1023 1.376 . S
C1024 C1025 1.446 . S
C1024 C1047 1.391 . S
C1025 C1024 1.446 . S
C1025 C1026 1.339 . S
C1025 H1054 0.949 . S
C1026 C1025 1.339 . S
C1026 C1027 1.439 . S
C1026 H1055 0.950 . S
C1027 N1023 1.383 . S
C1027 C1026 1.439 . S
C1027 C1045 1.392 . S
N1028 Co1012 2.282 . S
N1028 C1031 1.332 . S
N1028 C1033 1.332 . S
C1029 C1030 1.386 . S
C1029 C1032 1.388 . S
C1030 C1029 1.386 . S
C1030 C1031 1.382 . S
C1030 H1056 0.950 . S
C1031 N1028 1.332 . S
C1031 C1030 1.382 . S
C1031 H1042 0.952 . S
C1032 C1029 1.388 . S
C1032 C1033 1.382 . S
C1032 H1057 0.950 . S
C1033 N1028 1.332 . S
C1033 C1032 1.382 . S
C1033 H1043 0.948 . S
N1034 Co1012 2.282 . S
N1034 C1038 1.332 . S
N1034 C1039 1.332 . S
C1035 C1036 1.388 . S
C1035 C1039 1.382 . S
C1035 H1058 0.950 . S
C1036 C1035 1.388 . S
C1036 C1037 1.386 . S
C1037 C1036 1.386 . S
C1037 C1038 1.382 . S
C1037 H1059 0.950 . S
C1038 N1034 1.332 . S
C1038 C1037 1.382 . S
C1038 H1040 0.952 . S
C1039 N1034 1.332 . S
C1039 C1035 1.382 . S
C1039 H1041 0.948 . S
H1040 C1038 0.952 . S
H1041 C1039 0.948 . S
H1042 C1031 0.952 . S
H1043 C1033 0.948 . S
C1044 C1010 1.395 . S
C1044 C1014 1.391 . S
C1045 C1007 1.389 . S
C1045 C1027 1.392 . S
C1046 C1017 1.392 . S
C1046 C1019 1.389 . S
C1047 C1022 1.395 . S
C1047 C1024 1.391 . S
H1048 C1008 0.951 . S
H1049 C1009 0.950 . S
H1050 C1015 0.949 . S
H1051 C1016 0.950 . S
H1052 C1020 0.951 . S
H1053 C1021 0.950 . S
H1054 C1025 0.949 . S
H1055 C1026 0.950 . S
H1056 C1030 0.950 . S
H1057 C1032 0.950 . S
H1058 C1035 0.950 . S
H1059 C1037 0.950 . S
C1060 C1061 1.443 . S
C1060 N1064 1.376 . S
C1060 C1098 1.389 . S
C1061 C1060 1.443 . S
C1061 C1062 1.340 . S
C1061 H1101 0.951 . S
C1062 C1061 1.340 . S
C1062 C1063 1.439 . S
C1062 H1102 0.950 . S
C1063 C1062 1.439 . S
C1063 N1064 1.374 . S
C1063 C1097 1.395 . S
N1064 C1060 1.376 . S
N1064 C1063 1.374 . S
N1064 Co1065 2.008 . S
Co1065 N1064 2.008 . S
Co1065 N1066 1.995 . S
Co1065 N1071 2.008 . S
Co1065 N1076 1.995 . S
Co1065 N1081 2.282 . S
Co1065 N1087 2.282 . S
N1066 Co1065 1.995 . S
N1066 C1067 1.376 . S
N1066 C1070 1.383 . S
C1067 N1066 1.376 . S
C1067 C1068 1.446 . S
C1067 C1097 1.391 . S
C1068 C1067 1.446 . S
C1068 C1069 1.339 . S
C1068 H1103 0.949 . S
C1069 C1068 1.339 . S
C1069 C1070 1.439 . S
C1069 H1104 0.950 . S
C1070 N1066 1.383 . S
C1070 C1069 1.439 . S
C1070 C1099 1.392 . S
N1071 Co1065 2.008 . S
N1071 C1072 1.376 . S
N1071 C1075 1.374 . S
C1072 N1071 1.376 . S
C1072 C1073 1.443 . S
C1072 C1099 1.389 . S
C1073 C1072 1.443 . S
C1073 C1074 1.340 . S
C1073 H1105 0.951 . S
C1074 C1073 1.340 . S
C1074 C1075 1.439 . S
C1074 H1106 0.950 . S
C1075 N1071 1.374 . S
C1075 C1074 1.439 . S
C1075 C1100 1.395 . S
N1076 Co1065 1.995 . S
N1076 C1077 1.376 . S
N1076 C1080 1.383 . S
C1077 N1076 1.376 . S
C1077 C1078 1.446 . S
C1077 C1100 1.391 . S
C1078 C1077 1.446 . S
C1078 C1079 1.339 . S
C1078 H1107 0.949 . S
C1079 C1078 1.339 . S
C1079 C1080 1.439 . S
C1079 H1108 0.950 . S
C1080 N1076 1.383 . S
C1080 C1079 1.439 . S
C1080 C1098 1.392 . S
N1081 Co1065 2.282 . S
N1081 C1084 1.332 . S
N1081 C1086 1.332 . S
C1082 C1083 1.386 . S
C1082 C1085 1.388 . S
C1083 C1082 1.386 . S
C1083 C1084 1.382 . S
C1083 H1109 0.950 . S
C1084 N1081 1.332 . S
C1084 C1083 1.382 . S
C1084 H1095 0.952 . S
C1085 C1082 1.388 . S
C1085 C1086 1.382 . S
C1085 H1110 0.950 . S
C1086 N1081 1.332 . S
C1086 C1085 1.382 . S
C1086 H1096 0.948 . S
N1087 Co1065 2.282 . S
N1087 C1091 1.332 . S
N1087 C1092 1.332 . S
C1088 C1089 1.388 . S
C1088 C1092 1.382 . S
C1088 H1111 0.950 . S
C1089 C1088 1.388 . S
C1089 C1090 1.386 . S
C1090 C1089 1.386 . S
C1090 C1091 1.382 . S
C1090 H1112 0.950 . S
C1091 N1087 1.332 . S
C1091 C1090 1.382 . S
C1091 H1093 0.952 . S
C1092 N1087 1.332 . S
C1092 C1088 1.382 . S
C1092 H1094 0.948 . S
H1093 C1091 0.952 . S
H1094 C1092 0.948 . S
H1095 C1084 0.952 . S
H1096 C1086 0.948 . S
C1097 C1063 1.395 . S
C1097 C1067 1.391 . S
C1098 C1060 1.389 . S
C1098 C1080 1.392 . S
C1099 C1070 1.392 . S
C1099 C1072 1.389 . S
C1100 C1075 1.395 . S
C1100 C1077 1.391 . S
H1101 C1061 0.951 . S
H1102 C1062 0.950 . S
H1103 C1068 0.949 . S
H1104 C1069 0.950 . S
H1105 C1073 0.951 . S
H1106 C1074 0.950 . S
H1107 C1078 0.949 . S
H1108 C1079 0.950 . S
H1109 C1083 0.950 . S
H1110 C1085 0.950 . S
H1111 C1088 0.950 . S
H1112 C1090 0.950 . S
C1113 C1114 1.443 . S
C1113 N1117 1.376 . S
C1113 C1151 1.389 . S
C1114 C1113 1.443 . S
C1114 C1115 1.340 . S
C1114 H1154 0.951 . S
C1115 C1114 1.340 . S
C1115 C1116 1.439 . S
C1115 H1155 0.950 . S
C1116 C1115 1.439 . S
C1116 N1117 1.374 . S
C1116 C1150 1.395 . S
N1117 C1113 1.376 . S
N1117 C1116 1.374 . S
N1117 Co1118 2.008 . S
Co1118 N1117 2.008 . S
Co1118 N1119 1.995 . S
Co1118 N1124 2.008 . S
Co1118 N1129 1.995 . S
Co1118 N1134 2.282 . S
Co1118 N1140 2.282 . S
N1119 Co1118 1.995 . S
N1119 C1120 1.376 . S
N1119 C1123 1.383 . S
C1120 N1119 1.376 . S
C1120 C1121 1.446 . S
C1120 C1150 1.391 . S
C1121 C1120 1.446 . S
C1121 C1122 1.339 . S
C1121 H1156 0.949 . S
C1122 C1121 1.339 . S
C1122 C1123 1.439 . S
C1122 H1157 0.950 . S
C1123 N1119 1.383 . S
C1123 C1122 1.439 . S
C1123 C1152 1.392 . S
N1124 Co1118 2.008 . S
N1124 C1125 1.376 . S
N1124 C1128 1.374 . S
C1125 N1124 1.376 . S
C1125 C1126 1.443 . S
C1125 C1152 1.389 . S
C1126 C1125 1.443 . S
C1126 C1127 1.340 . S
C1126 H1158 0.951 . S
C1127 C1126 1.340 . S
C1127 C1128 1.439 . S
C1127 H1159 0.950 . S
C1128 N1124 1.374 . S
C1128 C1127 1.439 . S
C1128 C1153 1.395 . S
N1129 Co1118 1.995 . S
N1129 C1130 1.376 . S
N1129 C1133 1.383 . S
C1130 N1129 1.376 . S
C1130 C1131 1.446 . S
C1130 C1153 1.391 . S
C1131 C1130 1.446 . S
C1131 C1132 1.339 . S
C1131 H1160 0.949 . S
C1132 C1131 1.339 . S
C1132 C1133 1.439 . S
C1132 H1161 0.950 . S
C1133 N1129 1.383 . S
C1133 C1132 1.439 . S
C1133 C1151 1.392 . S
N1134 Co1118 2.282 . S
N1134 C1137 1.332 . S
N1134 C1139 1.332 . S
C1135 C1136 1.386 . S
C1135 C1138 1.388 . S
C1136 C1135 1.386 . S
C1136 C1137 1.382 . S
C1136 H1162 0.950 . S
C1137 N1134 1.332 . S
C1137 C1136 1.382 . S
C1137 H1148 0.952 . S
C1138 C1135 1.388 . S
C1138 C1139 1.382 . S
C1138 H1163 0.950 . S
C1139 N1134 1.332 . S
C1139 C1138 1.382 . S
C1139 H1149 0.948 . S
N1140 Co1118 2.282 . S
N1140 C1144 1.332 . S
N1140 C1145 1.332 . S
C1141 C1142 1.388 . S
C1141 C1145 1.382 . S
C1141 H1164 0.950 . S
C1142 C1141 1.388 . S
C1142 C1143 1.386 . S
C1143 C1142 1.386 . S
C1143 C1144 1.382 . S
C1143 H1165 0.950 . S
C1144 N1140 1.332 . S
C1144 C1143 1.382 . S
C1144 H1146 0.952 . S
C1145 N1140 1.332 . S
C1145 C1141 1.382 . S
C1145 H1147 0.948 . S
H1146 C1144 0.952 . S
H1147 C1145 0.948 . S
H1148 C1137 0.952 . S
H1149 C1139 0.948 . S
C1150 C1116 1.395 . S
C1150 C1120 1.391 . S
C1151 C1113 1.389 . S
C1151 C1133 1.392 . S
C1152 C1123 1.392 . S
C1152 C1125 1.389 . S
C1153 C1128 1.395 . S
C1153 C1130 1.391 . S
H1154 C1114 0.951 . S
H1155 C1115 0.950 . S
H1156 C1121 0.949 . S
H1157 C1122 0.950 . S
H1158 C1126 0.951 . S
H1159 C1127 0.950 . S
H1160 C1131 0.949 . S
H1161 C1132 0.950 . S
H1162 C1136 0.950 . S
H1163 C1138 0.950 . S
H1164 C1141 0.950 . S
H1165 C1143 0.950 . S
C1166 C1167 1.443 . S
C1166 N1170 1.376 . S
C1166 C1204 1.389 . S
C1167 C1166 1.443 . S
C1167 C1168 1.340 . S
C1167 H1207 0.951 . S
C1168 C1167 1.340 . S
C1168 C1169 1.439 . S
C1168 H1208 0.950 . S
C1169 C1168 1.439 . S
C1169 N1170 1.374 . S
C1169 C1203 1.395 . S
N1170 C1166 1.376 . S
N1170 C1169 1.374 . S
N1170 Co1171 2.008 . S
Co1171 N1170 2.008 . S
Co1171 N1172 1.995 . S
Co1171 N1177 2.008 . S
Co1171 N1182 1.995 . S
Co1171 N1187 2.282 . S
Co1171 N1193 2.282 . S
N1172 Co1171 1.995 . S
N1172 C1173 1.376 . S
N1172 C1176 1.383 . S
C1173 N1172 1.376 . S
C1173 C1174 1.446 . S
C1173 C1203 1.391 . S
C1174 C1173 1.446 . S
C1174 C1175 1.339 . S
C1174 H1209 0.949 . S
C1175 C1174 1.339 . S
C1175 C1176 1.439 . S
C1175 H1210 0.950 . S
C1176 N1172 1.383 . S
C1176 C1175 1.439 . S
C1176 C1205 1.392 . S
N1177 Co1171 2.008 . S
N1177 C1178 1.376 . S
N1177 C1181 1.374 . S
C1178 N1177 1.376 . S
C1178 C1179 1.443 . S
C1178 C1205 1.389 . S
C1179 C1178 1.443 . S
C1179 C1180 1.340 . S
C1179 H1211 0.951 . S
C1180 C1179 1.340 . S
C1180 C1181 1.439 . S
C1180 H1212 0.950 . S
C1181 N1177 1.374 . S
C1181 C1180 1.439 . S
C1181 C1206 1.395 . S
N1182 Co1171 1.995 . S
N1182 C1183 1.376 . S
N1182 C1186 1.383 . S
C1183 N1182 1.376 . S
C1183 C1184 1.446 . S
C1183 C1206 1.391 . S
C1184 C1183 1.446 . S
C1184 C1185 1.339 . S
C1184 H1213 0.949 . S
C1185 C1184 1.339 . S
C1185 C1186 1.439 . S
C1185 H1214 0.950 . S
C1186 N1182 1.383 . S
C1186 C1185 1.439 . S
C1186 C1204 1.392 . S
N1187 Co1171 2.282 . S
N1187 C1190 1.332 . S
N1187 C1192 1.332 . S
C1188 C1189 1.386 . S
C1188 C1191 1.388 . S
C1189 C1188 1.386 . S
C1189 C1190 1.382 . S
C1189 H1215 0.950 . S
C1190 N1187 1.332 . S
C1190 C1189 1.382 . S
C1190 H1201 0.952 . S
C1191 C1188 1.388 . S
C1191 C1192 1.382 . S
C1191 H1216 0.950 . S
C1192 N1187 1.332 . S
C1192 C1191 1.382 . S
C1192 H1202 0.948 . S
N1193 Co1171 2.282 . S
N1193 C1197 1.332 . S
N1193 C1198 1.332 . S
C1194 C1195 1.388 . S
C1194 C1198 1.382 . S
C1194 H1217 0.950 . S
C1195 C1194 1.388 . S
C1195 C1196 1.386 . S
C1196 C1195 1.386 . S
C1196 C1197 1.382 . S
C1196 H1218 0.950 . S
C1197 N1193 1.332 . S
C1197 C1196 1.382 . S
C1197 H1199 0.952 . S
C1198 N1193 1.332 . S
C1198 C1194 1.382 . S
C1198 H1200 0.948 . S
H1199 C1197 0.952 . S
H1200 C1198 0.948 . S
H1201 C1190 0.952 . S
H1202 C1192 0.948 . S
C1203 C1169 1.395 . S
C1203 C1173 1.391 . S
C1204 C1166 1.389 . S
C1204 C1186 1.392 . S
C1205 C1176 1.392 . S
C1205 C1178 1.389 . S
C1206 C1181 1.395 . S
C1206 C1183 1.391 . S
H1207 C1167 0.951 . S
H1208 C1168 0.950 . S
H1209 C1174 0.949 . S
H1210 C1175 0.950 . S
H1211 C1179 0.951 . S
H1212 C1180 0.950 . S
H1213 C1184 0.949 . S
H1214 C1185 0.950 . S
H1215 C1189 0.950 . S
H1216 C1191 0.950 . S
H1217 C1194 0.950 . S
H1218 C1196 0.950 . S
C1219 C1220 1.443 . S
C1219 N1223 1.376 . S
C1219 C1257 1.389 . S
C1220 C1219 1.443 . S
C1220 C1221 1.340 . S
C1220 H1260 0.951 . S
C1221 C1220 1.340 . S
C1221 C1222 1.439 . S
C1221 H1261 0.950 . S
C1222 C1221 1.439 . S
C1222 N1223 1.374 . S
C1222 C1256 1.395 . S
N1223 C1219 1.376 . S
N1223 C1222 1.374 . S
N1223 Co1224 2.008 . S
Co1224 N1223 2.008 . S
Co1224 N1225 1.995 . S
Co1224 N1230 2.008 . S
Co1224 N1235 1.995 . S
Co1224 N1240 2.282 . S
Co1224 N1246 2.282 . S
N1225 Co1224 1.995 . S
N1225 C1226 1.376 . S
N1225 C1229 1.383 . S
C1226 N1225 1.376 . S
C1226 C1227 1.446 . S
C1226 C1256 1.391 . S
C1227 C1226 1.446 . S
C1227 C1228 1.339 . S
C1227 H1262 0.949 . S
C1228 C1227 1.339 . S
C1228 C1229 1.439 . S
C1228 H1263 0.950 . S
C1229 N1225 1.383 . S
C1229 C1228 1.439 . S
C1229 C1258 1.392 . S
N1230 Co1224 2.008 . S
N1230 C1231 1.376 . S
N1230 C1234 1.374 . S
C1231 N1230 1.376 . S
C1231 C1232 1.443 . S
C1231 C1258 1.389 . S
C1232 C1231 1.443 . S
C1232 C1233 1.340 . S
C1232 H1264 0.951 . S
C1233 C1232 1.340 . S
C1233 C1234 1.439 . S
C1233 H1265 0.950 . S
C1234 N1230 1.374 . S
C1234 C1233 1.439 . S
C1234 C1259 1.395 . S
N1235 Co1224 1.995 . S
N1235 C1236 1.376 . S
N1235 C1239 1.383 . S
C1236 N1235 1.376 . S
C1236 C1237 1.446 . S
C1236 C1259 1.391 . S
C1237 C1236 1.446 . S
C1237 C1238 1.339 . S
C1237 H1266 0.949 . S
C1238 C1237 1.339 . S
C1238 C1239 1.439 . S
C1238 H1267 0.950 . S
C1239 N1235 1.383 . S
C1239 C1238 1.439 . S
C1239 C1257 1.392 . S
N1240 Co1224 2.282 . S
N1240 C1243 1.332 . S
N1240 C1245 1.332 . S
C1241 C1242 1.386 . S
C1241 C1244 1.388 . S
C1242 C1241 1.386 . S
C1242 C1243 1.382 . S
C1242 H1268 0.950 . S
C1243 N1240 1.332 . S
C1243 C1242 1.382 . S
C1243 H1254 0.952 . S
C1244 C1241 1.388 . S
C1244 C1245 1.382 . S
C1244 H1269 0.950 . S
C1245 N1240 1.332 . S
C1245 C1244 1.382 . S
C1245 H1255 0.948 . S
N1246 Co1224 2.282 . S
N1246 C1250 1.332 . S
N1246 C1251 1.332 . S
C1247 C1248 1.388 . S
C1247 C1251 1.382 . S
C1247 H1270 0.950 . S
C1248 C1247 1.388 . S
C1248 C1249 1.386 . S
C1249 C1248 1.386 . S
C1249 C1250 1.382 . S
C1249 H1271 0.950 . S
C1250 N1246 1.332 . S
C1250 C1249 1.382 . S
C1250 H1252 0.952 . S
C1251 N1246 1.332 . S
C1251 C1247 1.382 . S
C1251 H1253 0.948 . S
H1252 C1250 0.952 . S
H1253 C1251 0.948 . S
H1254 C1243 0.952 . S
H1255 C1245 0.948 . S
C1256 C1222 1.395 . S
C1256 C1226 1.391 . S
C1257 C1219 1.389 . S
C1257 C1239 1.392 . S
C1258 C1229 1.392 . S
C1258 C1231 1.389 . S
C1259 C1234 1.395 . S
C1259 C1236 1.391 . S
H1260 C1220 0.951 . S
H1261 C1221 0.950 . S
H1262 C1227 0.949 . S
H1263 C1228 0.950 . S
H1264 C1232 0.951 . S
H1265 C1233 0.950 . S
H1266 C1237 0.949 . S
H1267 C1238 0.950 . S
H1268 C1242 0.950 . S
H1269 C1244 0.950 . S
H1270 C1247 0.950 . S
H1271 C1249 0.950 . S
C1272 C1273 1.349 . S
C1272 C1274 1.327 . S
C1272 H1297 0.950 . S
C1273 C1272 1.349 . S
C1273 C1289 1.349 . S
C1274 C1272 1.327 . S
C1274 C1293 1.429 . S
C1274 H1298 0.950 . S
C1275 C1292 1.574 . S
C1275 C1294 1.368 . S
C1275 H1299 0.949 . S
H1276 C1280 0.949 . S
C1277 C1278 1.349 . S
C1277 C1279 1.327 . S
C1277 H1300 0.950 . S
C1278 C1277 1.349 . S
C1278 C1290 1.349 . S
C1279 C1277 1.327 . S
C1279 C1295 1.429 . S
C1279 H1301 0.950 . S
C1280 H1276 0.949 . S
C1280 C1288 1.574 . S
C1280 C1296 1.368 . S
H1281 C1289 0.950 . S
H1282 C1287 0.950 . S
H1283 C1288 0.949 . S
H1284 C1290 0.950 . S
H1285 C1291 0.950 . S
H1286 C1292 0.949 . S
C1287 H1282 0.950 . S
C1287 C1289 1.327 . S
C1287 C1293 1.429 . S
C1288 C1280 1.574 . S
C1288 H1283 0.949 . S
C1288 C1294 1.368 . S
C1289 C1273 1.349 . S
C1289 H1281 0.950 . S
C1289 C1287 1.327 . S
C1290 C1278 1.349 . S
C1290 H1284 0.950 . S
C1290 C1291 1.327 . S
C1291 H1285 0.950 . S
C1291 C1290 1.327 . S
C1291 C1295 1.429 . S
C1292 C1275 1.574 . S
C1292 H1286 0.949 . S
C1292 C1296 1.368 . S
C1293 C1274 1.429 . S
C1293 C1287 1.429 . S
C1293 C1294 1.523 . S
C1294 C1275 1.368 . S
C1294 C1288 1.368 . S
C1294 C1293 1.523 . S
C1295 C1279 1.429 . S
C1295 C1291 1.429 . S
C1295 C1296 1.523 . S
C1296 C1280 1.368 . S
C1296 C1292 1.368 . S
C1296 C1295 1.523 . S
H1297 C1272 0.950 . S
H1298 C1274 0.950 . S
H1299 C1275 0.949 . S
H1300 C1277 0.950 . S
H1301 C1279 0.950 . S
C1302 C1303 1.349 . S
C1302 C1304 1.327 . S
C1302 H1327 0.950 . S
C1303 C1302 1.349 . S
C1303 C1319 1.349 . S
C1304 C1302 1.327 . S
C1304 C1323 1.429 . S
C1304 H1328 0.950 . S
C1305 C1322 1.574 . S
C1305 C1324 1.368 . S
C1305 H1329 0.949 . S
H1306 C1310 0.949 . S
C1307 C1308 1.349 . S
C1307 C1309 1.327 . S
C1307 H1330 0.950 . S
C1308 C1307 1.349 . S
C1308 C1320 1.349 . S
C1309 C1307 1.327 . S
C1309 C1325 1.429 . S
C1309 H1331 0.950 . S
C1310 H1306 0.949 . S
C1310 C1318 1.574 . S
C1310 C1326 1.368 . S
H1311 C1319 0.950 . S
H1312 C1317 0.950 . S
H1313 C1318 0.949 . S
H1314 C1320 0.950 . S
H1315 C1321 0.950 . S
H1316 C1322 0.949 . S
C1317 H1312 0.950 . S
C1317 C1319 1.327 . S
C1317 C1323 1.429 . S
C1318 C1310 1.574 . S
C1318 H1313 0.949 . S
C1318 C1324 1.368 . S
C1319 C1303 1.349 . S
C1319 H1311 0.950 . S
C1319 C1317 1.327 . S
C1320 C1308 1.349 . S
C1320 H1314 0.950 . S
C1320 C1321 1.327 . S
C1321 H1315 0.950 . S
C1321 C1320 1.327 . S
C1321 C1325 1.429 . S
C1322 C1305 1.574 . S
C1322 H1316 0.949 . S
C1322 C1326 1.368 . S
C1323 C1304 1.429 . S
C1323 C1317 1.429 . S
C1323 C1324 1.523 . S
C1324 C1305 1.368 . S
C1324 C1318 1.368 . S
C1324 C1323 1.523 . S
C1325 C1309 1.429 . S
C1325 C1321 1.429 . S
C1325 C1326 1.523 . S
C1326 C1310 1.368 . S
C1326 C1322 1.368 . S
C1326 C1325 1.523 . S
H1327 C1302 0.950 . S
H1328 C1304 0.950 . S
H1329 C1305 0.949 . S
H1330 C1307 0.950 . S
H1331 C1309 0.950 . S
C1332 C1333 1.349 . S
C1332 C1334 1.327 . S
C1332 H1357 0.950 . S
C1333 C1332 1.349 . S
C1333 C1349 1.349 . S
C1334 C1332 1.327 . S
C1334 C1353 1.429 . S
C1334 H1358 0.950 . S
C1335 C1352 1.574 . S
C1335 C1354 1.368 . S
C1335 H1359 0.949 . S
H1336 C1340 0.949 . S
C1337 C1338 1.349 . S
C1337 C1339 1.327 . S
C1337 H1360 0.950 . S
C1338 C1337 1.349 . S
C1338 C1350 1.349 . S
C1339 C1337 1.327 . S
C1339 C1355 1.429 . S
C1339 H1361 0.950 . S
C1340 H1336 0.949 . S
C1340 C1348 1.574 . S
C1340 C1356 1.368 . S
H1341 C1349 0.950 . S
H1342 C1347 0.950 . S
H1343 C1348 0.949 . S
H1344 C1350 0.950 . S
H1345 C1351 0.950 . S
H1346 C1352 0.949 . S
C1347 H1342 0.950 . S
C1347 C1349 1.327 . S
C1347 C1353 1.429 . S
C1348 C1340 1.574 . S
C1348 H1343 0.949 . S
C1348 C1354 1.368 . S
C1349 C1333 1.349 . S
C1349 H1341 0.950 . S
C1349 C1347 1.327 . S
C1350 C1338 1.349 . S
C1350 H1344 0.950 . S
C1350 C1351 1.327 . S
C1351 H1345 0.950 . S
C1351 C1350 1.327 . S
C1351 C1355 1.429 . S
C1352 C1335 1.574 . S
C1352 H1346 0.949 . S
C1352 C1356 1.368 . S
C1353 C1334 1.429 . S
C1353 C1347 1.429 . S
C1353 C1354 1.523 . S
C1354 C1335 1.368 . S
C1354 C1348 1.368 . S
C1354 C1353 1.523 . S
C1355 C1339 1.429 . S
C1355 C1351 1.429 . S
C1355 C1356 1.523 . S
C1356 C1340 1.368 . S
C1356 C1352 1.368 . S
C1356 C1355 1.523 . S
H1357 C1332 0.950 . S
H1358 C1334 0.950 . S
H1359 C1335 0.949 . S
H1360 C1337 0.950 . S
H1361 C1339 0.950 . S
C1362 C1363 1.349 . S
C1362 C1364 1.327 . S
C1362 H1387 0.950 . S
C1363 C1362 1.349 . S
C1363 C1379 1.349 . S
C1364 C1362 1.327 . S
C1364 C1383 1.429 . S
C1364 H1388 0.950 . S
C1365 C1382 1.574 . S
C1365 C1384 1.368 . S
C1365 H1389 0.949 . S
H1366 C1370 0.949 . S
C1367 C1368 1.349 . S
C1367 C1369 1.327 . S
C1367 H1390 0.950 . S
C1368 C1367 1.349 . S
C1368 C1380 1.349 . S
C1369 C1367 1.327 . S
C1369 C1385 1.429 . S
C1369 H1391 0.950 . S
C1370 H1366 0.949 . S
C1370 C1378 1.574 . S
C1370 C1386 1.368 . S
H1371 C1379 0.950 . S
H1372 C1377 0.950 . S
H1373 C1378 0.949 . S
H1374 C1380 0.950 . S
H1375 C1381 0.950 . S
H1376 C1382 0.949 . S
C1377 H1372 0.950 . S
C1377 C1379 1.327 . S
C1377 C1383 1.429 . S
C1378 C1370 1.574 . S
C1378 H1373 0.949 . S
C1378 C1384 1.368 . S
C1379 C1363 1.349 . S
C1379 H1371 0.950 . S
C1379 C1377 1.327 . S
C1380 C1368 1.349 . S
C1380 H1374 0.950 . S
C1380 C1381 1.327 . S
C1381 H1375 0.950 . S
C1381 C1380 1.327 . S
C1381 C1385 1.429 . S
C1382 C1365 1.574 . S
C1382 H1376 0.949 . S
C1382 C1386 1.368 . S
C1383 C1364 1.429 . S
C1383 C1377 1.429 . S
C1383 C1384 1.523 . S
C1384 C1365 1.368 . S
C1384 C1378 1.368 . S
C1384 C1383 1.523 . S
C1385 C1369 1.429 . S
C1385 C1381 1.429 . S
C1385 C1386 1.523 . S
C1386 C1370 1.368 . S
C1386 C1382 1.368 . S
C1386 C1385 1.523 . S
H1387 C1362 0.950 . S
H1388 C1364 0.950 . S
H1389 C1365 0.949 . S
H1390 C1367 0.950 . S
H1391 C1369 0.950 . S
C1392 C1393 1.349 . S
C1392 C1394 1.327 . S
C1392 H1417 0.950 . S
C1393 C1392 1.349 . S
C1393 C1409 1.349 . S
C1394 C1392 1.327 . S
C1394 C1413 1.429 . S
C1394 H1418 0.950 . S
C1395 C1412 1.574 . S
C1395 C1414 1.368 . S
C1395 H1419 0.949 . S
H1396 C1400 0.949 . S
C1397 C1398 1.349 . S
C1397 C1399 1.327 . S
C1397 H1420 0.950 . S
C1398 C1397 1.349 . S
C1398 C1410 1.349 . S
C1399 C1397 1.327 . S
C1399 C1415 1.429 . S
C1399 H1421 0.950 . S
C1400 H1396 0.949 . S
C1400 C1408 1.574 . S
C1400 C1416 1.368 . S
H1401 C1409 0.950 . S
H1402 C1407 0.950 . S
H1403 C1408 0.949 . S
H1404 C1410 0.950 . S
H1405 C1411 0.950 . S
H1406 C1412 0.949 . S
C1407 H1402 0.950 . S
C1407 C1409 1.327 . S
C1407 C1413 1.429 . S
C1408 C1400 1.574 . S
C1408 H1403 0.949 . S
C1408 C1414 1.368 . S
C1409 C1393 1.349 . S
C1409 H1401 0.950 . S
C1409 C1407 1.327 . S
C1410 C1398 1.349 . S
C1410 H1404 0.950 . S
C1410 C1411 1.327 . S
C1411 H1405 0.950 . S
C1411 C1410 1.327 . S
C1411 C1415 1.429 . S
C1412 C1395 1.574 . S
C1412 H1406 0.949 . S
C1412 C1416 1.368 . S
C1413 C1394 1.429 . S
C1413 C1407 1.429 . S
C1413 C1414 1.523 . S
C1414 C1395 1.368 . S
C1414 C1408 1.368 . S
C1414 C1413 1.523 . S
C1415 C1399 1.429 . S
C1415 C1411 1.429 . S
C1415 C1416 1.523 . S
C1416 C1400 1.368 . S
C1416 C1412 1.368 . S
C1416 C1415 1.523 . S
H1417 C1392 0.950 . S
H1418 C1394 0.950 . S
H1419 C1395 0.949 . S
H1420 C1397 0.950 . S
H1421 C1399 0.950 . S
C1422 C1423 1.349 . S
C1422 C1424 1.327 . S
C1422 H1447 0.950 . S
C1423 C1422 1.349 . S
C1423 C1439 1.349 . S
C1424 C1422 1.327 . S
C1424 C1443 1.429 . S
C1424 H1448 0.950 . S
C1425 C1442 1.574 . S
C1425 C1444 1.368 . S
C1425 H1449 0.949 . S
H1426 C1430 0.949 . S
C1427 C1428 1.349 . S
C1427 C1429 1.327 . S
C1427 H1450 0.950 . S
C1428 C1427 1.349 . S
C1428 C1440 1.349 . S
C1429 C1427 1.327 . S
C1429 C1445 1.429 . S
C1429 H1451 0.950 . S
C1430 H1426 0.949 . S
C1430 C1438 1.574 . S
C1430 C1446 1.368 . S
H1431 C1439 0.950 . S
H1432 C1437 0.950 . S
H1433 C1438 0.949 . S
H1434 C1440 0.950 . S
H1435 C1441 0.950 . S
H1436 C1442 0.949 . S
C1437 H1432 0.950 . S
C1437 C1439 1.327 . S
C1437 C1443 1.429 . S
C1438 C1430 1.574 . S
C1438 H1433 0.949 . S
C1438 C1444 1.368 . S
C1439 C1423 1.349 . S
C1439 H1431 0.950 . S
C1439 C1437 1.327 . S
C1440 C1428 1.349 . S
C1440 H1434 0.950 . S
C1440 C1441 1.327 . S
C1441 H1435 0.950 . S
C1441 C1440 1.327 . S
C1441 C1445 1.429 . S
C1442 C1425 1.574 . S
C1442 H1436 0.949 . S
C1442 C1446 1.368 . S
C1443 C1424 1.429 . S
C1443 C1437 1.429 . S
C1443 C1444 1.523 . S
C1444 C1425 1.368 . S
C1444 C1438 1.368 . S
C1444 C1443 1.523 . S
C1445 C1429 1.429 . S
C1445 C1441 1.429 . S
C1445 C1446 1.523 . S
C1446 C1430 1.368 . S
C1446 C1442 1.368 . S
C1446 C1445 1.523 . S
H1447 C1422 0.950 . S
H1448 C1424 0.950 . S
H1449 C1425 0.949 . S
H1450 C1427 0.950 . S
H1451 C1429 0.950 . S
C1452 C1453 1.349 . S
C1452 C1454 1.327 . S
C1452 H1477 0.950 . S
C1453 C1452 1.349 . S
C1453 C1469 1.349 . S
C1454 C1452 1.327 . S
C1454 C1473 1.429 . S
C1454 H1478 0.950 . S
C1455 C1472 1.574 . S
C1455 C1474 1.368 . S
C1455 H1479 0.949 . S
H1456 C1460 0.949 . S
C1457 C1458 1.349 . S
C1457 C1459 1.327 . S
C1457 H1480 0.950 . S
C1458 C1457 1.349 . S
C1458 C1470 1.349 . S
C1459 C1457 1.327 . S
C1459 C1475 1.429 . S
C1459 H1481 0.950 . S
C1460 H1456 0.949 . S
C1460 C1468 1.574 . S
C1460 C1476 1.368 . S
H1461 C1469 0.950 . S
H1462 C1467 0.950 . S
H1463 C1468 0.949 . S
H1464 C1470 0.950 . S
H1465 C1471 0.950 . S
H1466 C1472 0.949 . S
C1467 H1462 0.950 . S
C1467 C1469 1.327 . S
C1467 C1473 1.429 . S
C1468 C1460 1.574 . S
C1468 H1463 0.949 . S
C1468 C1474 1.368 . S
C1469 C1453 1.349 . S
C1469 H1461 0.950 . S
C1469 C1467 1.327 . S
C1470 C1458 1.349 . S
C1470 H1464 0.950 . S
C1470 C1471 1.327 . S
C1471 H1465 0.950 . S
C1471 C1470 1.327 . S
C1471 C1475 1.429 . S
C1472 C1455 1.574 . S
C1472 H1466 0.949 . S
C1472 C1476 1.368 . S
C1473 C1454 1.429 . S
C1473 C1467 1.429 . S
C1473 C1474 1.523 . S
C1474 C1455 1.368 . S
C1474 C1468 1.368 . S
C1474 C1473 1.523 . S
C1475 C1459 1.429 . S
C1475 C1471 1.429 . S
C1475 C1476 1.523 . S
C1476 C1460 1.368 . S
C1476 C1472 1.368 . S
C1476 C1475 1.523 . S
H1477 C1452 0.950 . S
H1478 C1454 0.950 . S
H1479 C1455 0.949 . S
H1480 C1457 0.950 . S
H1481 C1459 0.950 . S
C1482 C1483 1.349 . S
C1482 C1484 1.327 . S
C1482 H1507 0.950 . S
C1483 C1482 1.349 . S
C1483 C1499 1.349 . S
C1484 C1482 1.327 . S
C1484 C1503 1.429 . S
C1484 H1508 0.950 . S
C1485 C1502 1.574 . S
C1485 C1504 1.368 . S
C1485 H1509 0.949 . S
H1486 C1490 0.949 . S
C1487 C1488 1.349 . S
C1487 C1489 1.327 . S
C1487 H1510 0.950 . S
C1488 C1487 1.349 . S
C1488 C1500 1.349 . S
C1489 C1487 1.327 . S
C1489 C1505 1.429 . S
C1489 H1511 0.950 . S
C1490 H1486 0.949 . S
C1490 C1498 1.574 . S
C1490 C1506 1.368 . S
H1491 C1499 0.950 . S
H1492 C1497 0.950 . S
H1493 C1498 0.949 . S
H1494 C1500 0.950 . S
H1495 C1501 0.950 . S
H1496 C1502 0.949 . S
C1497 H1492 0.950 . S
C1497 C1499 1.327 . S
C1497 C1503 1.429 . S
C1498 C1490 1.574 . S
C1498 H1493 0.949 . S
C1498 C1504 1.368 . S
C1499 C1483 1.349 . S
C1499 H1491 0.950 . S
C1499 C1497 1.327 . S
C1500 C1488 1.349 . S
C1500 H1494 0.950 . S
C1500 C1501 1.327 . S
C1501 H1495 0.950 . S
C1501 C1500 1.327 . S
C1501 C1505 1.429 . S
C1502 C1485 1.574 . S
C1502 H1496 0.949 . S
C1502 C1506 1.368 . S
C1503 C1484 1.429 . S
C1503 C1497 1.429 . S
C1503 C1504 1.523 . S
C1504 C1485 1.368 . S
C1504 C1498 1.368 . S
C1504 C1503 1.523 . S
C1505 C1489 1.429 . S
C1505 C1501 1.429 . S
C1505 C1506 1.523 . S
C1506 C1490 1.368 . S
C1506 C1502 1.368 . S
C1506 C1505 1.523 . S
H1507 C1482 0.950 . S
H1508 C1484 0.950 . S
H1509 C1485 0.949 . S
H1510 C1487 0.950 . S
H1511 C1489 0.950 . S
C1512 C1513 1.349 . S
C1512 C1514 1.327 . S
C1512 H1537 0.950 . S
C1513 C1512 1.349 . S
C1513 C1529 1.349 . S
C1514 C1512 1.327 . S
C1514 C1533 1.429 . S
C1514 H1538 0.950 . S
C1515 C1532 1.574 . S
C1515 C1534 1.368 . S
C1515 H1539 0.949 . S
H1516 C1520 0.949 . S
C1517 C1518 1.349 . S
C1517 C1519 1.327 . S
C1517 H1540 0.950 . S
C1518 C1517 1.349 . S
C1518 C1530 1.349 . S
C1519 C1517 1.327 . S
C1519 C1535 1.429 . S
C1519 H1541 0.950 . S
C1520 H1516 0.949 . S
C1520 C1528 1.574 . S
C1520 C1536 1.368 . S
H1521 C1529 0.950 . S
H1522 C1527 0.950 . S
H1523 C1528 0.949 . S
H1524 C1530 0.950 . S
H1525 C1531 0.950 . S
H1526 C1532 0.949 . S
C1527 H1522 0.950 . S
C1527 C1529 1.327 . S
C1527 C1533 1.429 . S
C1528 C1520 1.574 . S
C1528 H1523 0.949 . S
C1528 C1534 1.368 . S
C1529 C1513 1.349 . S
C1529 H1521 0.950 . S
C1529 C1527 1.327 . S
C1530 C1518 1.349 . S
C1530 H1524 0.950 . S
C1530 C1531 1.327 . S
C1531 H1525 0.950 . S
C1531 C1530 1.327 . S
C1531 C1535 1.429 . S
C1532 C1515 1.574 . S
C1532 H1526 0.949 . S
C1532 C1536 1.368 . S
C1533 C1514 1.429 . S
C1533 C1527 1.429 . S
C1533 C1534 1.523 . S
C1534 C1515 1.368 . S
C1534 C1528 1.368 . S
C1534 C1533 1.523 . S
C1535 C1519 1.429 . S
C1535 C1531 1.429 . S
C1535 C1536 1.523 . S
C1536 C1520 1.368 . S
C1536 C1532 1.368 . S
C1536 C1535 1.523 . S
H1537 C1512 0.950 . S
H1538 C1514 0.950 . S
H1539 C1515 0.949 . S
H1540 C1517 0.950 . S
H1541 C1519 0.950 . S
C1542 C1543 1.349 . S
C1542 C1544 1.327 . S
C1542 H1567 0.950 . S
C1543 C1542 1.349 . S
C1543 C1559 1.349 . S
C1544 C1542 1.327 . S
C1544 C1563 1.429 . S
C1544 H1568 0.950 . S
C1545 C1562 1.574 . S
C1545 C1564 1.368 . S
C1545 H1569 0.949 . S
H1546 C1550 0.949 . S
C1547 C1548 1.349 . S
C1547 C1549 1.327 . S
C1547 H1570 0.950 . S
C1548 C1547 1.349 . S
C1548 C1560 1.349 . S
C1549 C1547 1.327 . S
C1549 C1565 1.429 . S
C1549 H1571 0.950 . S
C1550 H1546 0.949 . S
C1550 C1558 1.574 . S
C1550 C1566 1.368 . S
H1551 C1559 0.950 . S
H1552 C1557 0.950 . S
H1553 C1558 0.949 . S
H1554 C1560 0.950 . S
H1555 C1561 0.950 . S
H1556 C1562 0.949 . S
C1557 H1552 0.950 . S
C1557 C1559 1.327 . S
C1557 C1563 1.429 . S
C1558 C1550 1.574 . S
C1558 H1553 0.949 . S
C1558 C1564 1.368 . S
C1559 C1543 1.349 . S
C1559 H1551 0.950 . S
C1559 C1557 1.327 . S
C1560 C1548 1.349 . S
C1560 H1554 0.950 . S
C1560 C1561 1.327 . S
C1561 H1555 0.950 . S
C1561 C1560 1.327 . S
C1561 C1565 1.429 . S
C1562 C1545 1.574 . S
C1562 H1556 0.949 . S
C1562 C1566 1.368 . S
C1563 C1544 1.429 . S
C1563 C1557 1.429 . S
C1563 C1564 1.523 . S
C1564 C1545 1.368 . S
C1564 C1558 1.368 . S
C1564 C1563 1.523 . S
C1565 C1549 1.429 . S
C1565 C1561 1.429 . S
C1565 C1566 1.523 . S
C1566 C1550 1.368 . S
C1566 C1562 1.368 . S
C1566 C1565 1.523 . S
H1567 C1542 0.950 . S
H1568 C1544 0.950 . S
H1569 C1545 0.949 . S
H1570 C1547 0.950 . S
H1571 C1549 0.950 . S
C1572 C1573 1.349 . S
C1572 C1574 1.327 . S
C1572 H1597 0.950 . S
C1573 C1572 1.349 . S
C1573 C1589 1.349 . S
C1574 C1572 1.327 . S
C1574 C1593 1.429 . S
C1574 H1598 0.950 . S
C1575 C1592 1.574 . S
C1575 C1594 1.368 . S
C1575 H1599 0.949 . S
H1576 C1580 0.949 . S
C1577 C1578 1.349 . S
C1577 C1579 1.327 . S
C1577 H1600 0.950 . S
C1578 C1577 1.349 . S
C1578 C1590 1.349 . S
C1579 C1577 1.327 . S
C1579 C1595 1.429 . S
C1579 H1601 0.950 . S
C1580 H1576 0.949 . S
C1580 C1588 1.574 . S
C1580 C1596 1.368 . S
H1581 C1589 0.950 . S
H1582 C1587 0.950 . S
H1583 C1588 0.949 . S
H1584 C1590 0.950 . S
H1585 C1591 0.950 . S
H1586 C1592 0.949 . S
C1587 H1582 0.950 . S
C1587 C1589 1.327 . S
C1587 C1593 1.429 . S
C1588 C1580 1.574 . S
C1588 H1583 0.949 . S
C1588 C1594 1.368 . S
C1589 C1573 1.349 . S
C1589 H1581 0.950 . S
C1589 C1587 1.327 . S
C1590 C1578 1.349 . S
C1590 H1584 0.950 . S
C1590 C1591 1.327 . S
C1591 H1585 0.950 . S
C1591 C1590 1.327 . S
C1591 C1595 1.429 . S
C1592 C1575 1.574 . S
C1592 H1586 0.949 . S
C1592 C1596 1.368 . S
C1593 C1574 1.429 . S
C1593 C1587 1.429 . S
C1593 C1594 1.523 . S
C1594 C1575 1.368 . S
C1594 C1588 1.368 . S
C1594 C1593 1.523 . S
C1595 C1579 1.429 . S
C1595 C1591 1.429 . S
C1595 C1596 1.523 . S
C1596 C1580 1.368 . S
C1596 C1592 1.368 . S
C1596 C1595 1.523 . S
H1597 C1572 0.950 . S
H1598 C1574 0.950 . S
H1599 C1575 0.949 . S
H1600 C1577 0.950 . S
H1601 C1579 0.950 . S
C1602 C1603 1.349 . S
C1602 C1604 1.327 . S
C1602 H1627 0.950 . S
C1603 C1602 1.349 . S
C1603 C1619 1.349 . S
C1604 C1602 1.327 . S
C1604 C1623 1.429 . S
C1604 H1628 0.950 . S
C1605 C1622 1.574 . S
C1605 C1624 1.368 . S
C1605 H1629 0.949 . S
H1606 C1610 0.949 . S
C1607 C1608 1.349 . S
C1607 C1609 1.327 . S
C1607 H1630 0.950 . S
C1608 C1607 1.349 . S
C1608 C1620 1.349 . S
C1609 C1607 1.327 . S
C1609 C1625 1.429 . S
C1609 H1631 0.950 . S
C1610 H1606 0.949 . S
C1610 C1618 1.574 . S
C1610 C1626 1.368 . S
H1611 C1619 0.950 . S
H1612 C1617 0.950 . S
H1613 C1618 0.949 . S
H1614 C1620 0.950 . S
H1615 C1621 0.950 . S
H1616 C1622 0.949 . S
C1617 H1612 0.950 . S
C1617 C1619 1.327 . S
C1617 C1623 1.429 . S
C1618 C1610 1.574 . S
C1618 H1613 0.949 . S
C1618 C1624 1.368 . S
C1619 C1603 1.349 . S
C1619 H1611 0.950 . S
C1619 C1617 1.327 . S
C1620 C1608 1.349 . S
C1620 H1614 0.950 . S
C1620 C1621 1.327 . S
C1621 H1615 0.950 . S
C1621 C1620 1.327 . S
C1621 C1625 1.429 . S
C1622 C1605 1.574 . S
C1622 H1616 0.949 . S
C1622 C1626 1.368 . S
C1623 C1604 1.429 . S
C1623 C1617 1.429 . S
C1623 C1624 1.523 . S
C1624 C1605 1.368 . S
C1624 C1618 1.368 . S
C1624 C1623 1.523 . S
C1625 C1609 1.429 . S
C1625 C1621 1.429 . S
C1625 C1626 1.523 . S
C1626 C1610 1.368 . S
C1626 C1622 1.368 . S
C1626 C1625 1.523 . S
H1627 C1602 0.950 . S
H1628 C1604 0.950 . S
H1629 C1605 0.949 . S
H1630 C1607 0.950 . S
H1631 C1609 0.950 . S
C1632 C1633 1.349 . S
C1632 C1634 1.327 . S
C1632 H1657 0.950 . S
C1633 C1632 1.349 . S
C1633 C1649 1.349 . S
C1634 C1632 1.327 . S
C1634 C1653 1.429 . S
C1634 H1658 0.950 . S
C1635 C1652 1.574 . S
C1635 C1654 1.368 . S
C1635 H1659 0.949 . S
H1636 C1640 0.949 . S
C1637 C1638 1.349 . S
C1637 C1639 1.327 . S
C1637 H1660 0.950 . S
C1638 C1637 1.349 . S
C1638 C1650 1.349 . S
C1639 C1637 1.327 . S
C1639 C1655 1.429 . S
C1639 H1661 0.950 . S
C1640 H1636 0.949 . S
C1640 C1648 1.574 . S
C1640 C1656 1.368 . S
H1641 C1649 0.950 . S
H1642 C1647 0.950 . S
H1643 C1648 0.949 . S
H1644 C1650 0.950 . S
H1645 C1651 0.950 . S
H1646 C1652 0.949 . S
C1647 H1642 0.950 . S
C1647 C1649 1.327 . S
C1647 C1653 1.429 . S
C1648 C1640 1.574 . S
C1648 H1643 0.949 . S
C1648 C1654 1.368 . S
C1649 C1633 1.349 . S
C1649 H1641 0.950 . S
C1649 C1647 1.327 . S
C1650 C1638 1.349 . S
C1650 H1644 0.950 . S
C1650 C1651 1.327 . S
C1651 H1645 0.950 . S
C1651 C1650 1.327 . S
C1651 C1655 1.429 . S
C1652 C1635 1.574 . S
C1652 H1646 0.949 . S
C1652 C1656 1.368 . S
C1653 C1634 1.429 . S
C1653 C1647 1.429 . S
C1653 C1654 1.523 . S
C1654 C1635 1.368 . S
C1654 C1648 1.368 . S
C1654 C1653 1.523 . S
C1655 C1639 1.429 . S
C1655 C1651 1.429 . S
C1655 C1656 1.523 . S
C1656 C1640 1.368 . S
C1656 C1652 1.368 . S
C1656 C1655 1.523 . S
H1657 C1632 0.950 . S
H1658 C1634 0.950 . S
H1659 C1635 0.949 . S
H1660 C1637 0.950 . S
H1661 C1639 0.950 . S
C1662 C1663 1.349 . S
C1662 C1664 1.327 . S
C1662 H1687 0.950 . S
C1663 C1662 1.349 . S
C1663 C1679 1.349 . S
C1664 C1662 1.327 . S
C1664 C1683 1.429 . S
C1664 H1688 0.950 . S
C1665 C1682 1.574 . S
C1665 C1684 1.368 . S
C1665 H1689 0.949 . S
H1666 C1670 0.949 . S
C1667 C1668 1.349 . S
C1667 C1669 1.327 . S
C1667 H1690 0.950 . S
C1668 C1667 1.349 . S
C1668 C1680 1.349 . S
C1669 C1667 1.327 . S
C1669 C1685 1.429 . S
C1669 H1691 0.950 . S
C1670 H1666 0.949 . S
C1670 C1678 1.574 . S
C1670 C1686 1.368 . S
H1671 C1679 0.950 . S
H1672 C1677 0.950 . S
H1673 C1678 0.949 . S
H1674 C1680 0.950 . S
H1675 C1681 0.950 . S
H1676 C1682 0.949 . S
C1677 H1672 0.950 . S
C1677 C1679 1.327 . S
C1677 C1683 1.429 . S
C1678 C1670 1.574 . S
C1678 H1673 0.949 . S
C1678 C1684 1.368 . S
C1679 C1663 1.349 . S
C1679 H1671 0.950 . S
C1679 C1677 1.327 . S
C1680 C1668 1.349 . S
C1680 H1674 0.950 . S
C1680 C1681 1.327 . S
C1681 H1675 0.950 . S
C1681 C1680 1.327 . S
C1681 C1685 1.429 . S
C1682 C1665 1.574 . S
C1682 H1676 0.949 . S
C1682 C1686 1.368 . S
C1683 C1664 1.429 . S
C1683 C1677 1.429 . S
C1683 C1684 1.523 . S
C1684 C1665 1.368 . S
C1684 C1678 1.368 . S
C1684 C1683 1.523 . S
C1685 C1669 1.429 . S
C1685 C1681 1.429 . S
C1685 C1686 1.523 . S
C1686 C1670 1.368 . S
C1686 C1682 1.368 . S
C1686 C1685 1.523 . S
H1687 C1662 0.950 . S
H1688 C1664 0.950 . S
H1689 C1665 0.949 . S
H1690 C1667 0.950 . S
H1691 C1669 0.950 . S
C1692 C1693 1.349 . S
C1692 C1694 1.327 . S
C1692 H1717 0.950 . S
C1693 C1692 1.349 . S
C1693 C1709 1.349 . S
C1694 C1692 1.327 . S
C1694 C1713 1.429 . S
C1694 H1718 0.950 . S
C1695 C1712 1.574 . S
C1695 C1714 1.368 . S
C1695 H1719 0.949 . S
H1696 C1700 0.949 . S
C1697 C1698 1.349 . S
C1697 C1699 1.327 . S
C1697 H1720 0.950 . S
C1698 C1697 1.349 . S
C1698 C1710 1.349 . S
C1699 C1697 1.327 . S
C1699 C1715 1.429 . S
C1699 H1721 0.950 . S
C1700 H1696 0.949 . S
C1700 C1708 1.574 . S
C1700 C1716 1.368 . S
H1701 C1709 0.950 . S
H1702 C1707 0.950 . S
H1703 C1708 0.949 . S
H1704 C1710 0.950 . S
H1705 C1711 0.950 . S
H1706 C1712 0.949 . S
C1707 H1702 0.950 . S
C1707 C1709 1.327 . S
C1707 C1713 1.429 . S
C1708 C1700 1.574 . S
C1708 H1703 0.949 . S
C1708 C1714 1.368 . S
C1709 C1693 1.349 . S
C1709 H1701 0.950 . S
C1709 C1707 1.327 . S
C1710 C1698 1.349 . S
C1710 H1704 0.950 . S
C1710 C1711 1.327 . S
C1711 H1705 0.950 . S
C1711 C1710 1.327 . S
C1711 C1715 1.429 . S
C1712 C1695 1.574 . S
C1712 H1706 0.949 . S
C1712 C1716 1.368 . S
C1713 C1694 1.429 . S
C1713 C1707 1.429 . S
C1713 C1714 1.523 . S
C1714 C1695 1.368 . S
C1714 C1708 1.368 . S
C1714 C1713 1.523 . S
C1715 C1699 1.429 . S
C1715 C1711 1.429 . S
C1715 C1716 1.523 . S
C1716 C1700 1.368 . S
C1716 C1712 1.368 . S
C1716 C1715 1.523 . S
H1717 C1692 0.950 . S
H1718 C1694 0.950 . S
H1719 C1695 0.949 . S
H1720 C1697 0.950 . S
H1721 C1699 0.950 . S
C1722 C1723 1.349 . S
C1722 C1724 1.327 . S
C1722 H1747 0.950 . S
C1723 C1722 1.349 . S
C1723 C1739 1.349 . S
C1724 C1722 1.327 . S
C1724 C1743 1.429 . S
C1724 H1748 0.950 . S
C1725 C1742 1.574 . S
C1725 C1744 1.368 . S
C1725 H1749 0.949 . S
H1726 C1730 0.949 . S
C1727 C1728 1.349 . S
C1727 C1729 1.327 . S
C1727 H1750 0.950 . S
C1728 C1727 1.349 . S
C1728 C1740 1.349 . S
C1729 C1727 1.327 . S
C1729 C1745 1.429 . S
C1729 H1751 0.950 . S
C1730 H1726 0.949 . S
C1730 C1738 1.574 . S
C1730 C1746 1.368 . S
H1731 C1739 0.950 . S
H1732 C1737 0.950 . S
H1733 C1738 0.949 . S
H1734 C1740 0.950 . S
H1735 C1741 0.950 . S
H1736 C1742 0.949 . S
C1737 H1732 0.950 . S
C1737 C1739 1.327 . S
C1737 C1743 1.429 . S
C1738 C1730 1.574 . S
C1738 H1733 0.949 . S
C1738 C1744 1.368 . S
C1739 C1723 1.349 . S
C1739 H1731 0.950 . S
C1739 C1737 1.327 . S
C1740 C1728 1.349 . S
C1740 H1734 0.950 . S
C1740 C1741 1.327 . S
C1741 H1735 0.950 . S
C1741 C1740 1.327 . S
C1741 C1745 1.429 . S
C1742 C1725 1.574 . S
C1742 H1736 0.949 . S
C1742 C1746 1.368 . S
C1743 C1724 1.429 . S
C1743 C1737 1.429 . S
C1743 C1744 1.523 . S
C1744 C1725 1.368 . S
C1744 C1738 1.368 . S
C1744 C1743 1.523 . S
C1745 C1729 1.429 . S
C1745 C1741 1.429 . S
C1745 C1746 1.523 . S
C1746 C1730 1.368 . S
C1746 C1742 1.368 . S
C1746 C1745 1.523 . S
H1747 C1722 0.950 . S
H1748 C1724 0.950 . S
H1749 C1725 0.949 . S
H1750 C1727 0.950 . S
H1751 C1729 0.950 . S
C1752 C1753 1.349 . S
C1752 C1754 1.327 . S
C1752 H1777 0.950 . S
C1753 C1752 1.349 . S
C1753 C1769 1.349 . S
C1754 C1752 1.327 . S
C1754 C1773 1.429 . S
C1754 H1778 0.950 . S
C1755 C1772 1.574 . S
C1755 C1774 1.368 . S
C1755 H1779 0.949 . S
H1756 C1760 0.949 . S
C1757 C1758 1.349 . S
C1757 C1759 1.327 . S
C1757 H1780 0.950 . S
C1758 C1757 1.349 . S
C1758 C1770 1.349 . S
C1759 C1757 1.327 . S
C1759 C1775 1.429 . S
C1759 H1781 0.950 . S
C1760 H1756 0.949 . S
C1760 C1768 1.574 . S
C1760 C1776 1.368 . S
H1761 C1769 0.950 . S
H1762 C1767 0.950 . S
H1763 C1768 0.949 . S
H1764 C1770 0.950 . S
H1765 C1771 0.950 . S
H1766 C1772 0.949 . S
C1767 H1762 0.950 . S
C1767 C1769 1.327 . S
C1767 C1773 1.429 . S
C1768 C1760 1.574 . S
C1768 H1763 0.949 . S
C1768 C1774 1.368 . S
C1769 C1753 1.349 . S
C1769 H1761 0.950 . S
C1769 C1767 1.327 . S
C1770 C1758 1.349 . S
C1770 H1764 0.950 . S
C1770 C1771 1.327 . S
C1771 H1765 0.950 . S
C1771 C1770 1.327 . S
C1771 C1775 1.429 . S
C1772 C1755 1.574 . S
C1772 H1766 0.949 . S
C1772 C1776 1.368 . S
C1773 C1754 1.429 . S
C1773 C1767 1.429 . S
C1773 C1774 1.523 . S
C1774 C1755 1.368 . S
C1774 C1768 1.368 . S
C1774 C1773 1.523 . S
C1775 C1759 1.429 . S
C1775 C1771 1.429 . S
C1775 C1776 1.523 . S
C1776 C1760 1.368 . S
C1776 C1772 1.368 . S
C1776 C1775 1.523 . S
H1777 C1752 0.950 . S
H1778 C1754 0.950 . S
H1779 C1755 0.949 . S
H1780 C1757 0.950 . S
H1781 C1759 0.950 . S
C1782 C1783 1.349 . S
C1782 C1784 1.327 . S
C1782 H1807 0.950 . S
C1783 C1782 1.349 . S
C1783 C1799 1.349 . S
C1784 C1782 1.327 . S
C1784 C1803 1.429 . S
C1784 H1808 0.950 . S
C1785 C1802 1.574 . S
C1785 C1804 1.368 . S
C1785 H1809 0.949 . S
H1786 C1790 0.949 . S
C1787 C1788 1.349 . S
C1787 C1789 1.327 . S
C1787 H1810 0.950 . S
C1788 C1787 1.349 . S
C1788 C1800 1.349 . S
C1789 C1787 1.327 . S
C1789 C1805 1.429 . S
C1789 H1811 0.950 . S
C1790 H1786 0.949 . S
C1790 C1798 1.574 . S
C1790 C1806 1.368 . S
H1791 C1799 0.950 . S
H1792 C1797 0.950 . S
H1793 C1798 0.949 . S
H1794 C1800 0.950 . S
H1795 C1801 0.950 . S
H1796 C1802 0.949 . S
C1797 H1792 0.950 . S
C1797 C1799 1.327 . S
C1797 C1803 1.429 . S
C1798 C1790 1.574 . S
C1798 H1793 0.949 . S
C1798 C1804 1.368 . S
C1799 C1783 1.349 . S
C1799 H1791 0.950 . S
C1799 C1797 1.327 . S
C1800 C1788 1.349 . S
C1800 H1794 0.950 . S
C1800 C1801 1.327 . S
C1801 H1795 0.950 . S
C1801 C1800 1.327 . S
C1801 C1805 1.429 . S
C1802 C1785 1.574 . S
C1802 H1796 0.949 . S
C1802 C1806 1.368 . S
C1803 C1784 1.429 . S
C1803 C1797 1.429 . S
C1803 C1804 1.523 . S
C1804 C1785 1.368 . S
C1804 C1798 1.368 . S
C1804 C1803 1.523 . S
C1805 C1789 1.429 . S
C1805 C1801 1.429 . S
C1805 C1806 1.523 . S
C1806 C1790 1.368 . S
C1806 C1802 1.368 . S
C1806 C1805 1.523 . S
H1807 C1782 0.950 . S
H1808 C1784 0.950 . S
H1809 C1785 0.949 . S
H1810 C1787 0.950 . S
H1811 C1789 0.950 . S
C1812 C1813 1.349 . S
C1812 C1814 1.327 . S
C1812 H1837 0.950 . S
C1813 C1812 1.349 . S
C1813 C1829 1.349 . S
C1814 C1812 1.327 . S
C1814 C1833 1.429 . S
C1814 H1838 0.950 . S
C1815 C1832 1.574 . S
C1815 C1834 1.368 . S
C1815 H1839 0.949 . S
H1816 C1820 0.949 . S
C1817 C1818 1.349 . S
C1817 C1819 1.327 . S
C1817 H1840 0.950 . S
C1818 C1817 1.349 . S
C1818 C1830 1.349 . S
C1819 C1817 1.327 . S
C1819 C1835 1.429 . S
C1819 H1841 0.950 . S
C1820 H1816 0.949 . S
C1820 C1828 1.574 . S
C1820 C1836 1.368 . S
H1821 C1829 0.950 . S
H1822 C1827 0.950 . S
H1823 C1828 0.949 . S
H1824 C1830 0.950 . S
H1825 C1831 0.950 . S
H1826 C1832 0.949 . S
C1827 H1822 0.950 . S
C1827 C1829 1.327 . S
C1827 C1833 1.429 . S
C1828 C1820 1.574 . S
C1828 H1823 0.949 . S
C1828 C1834 1.368 . S
C1829 C1813 1.349 . S
C1829 H1821 0.950 . S
C1829 C1827 1.327 . S
C1830 C1818 1.349 . S
C1830 H1824 0.950 . S
C1830 C1831 1.327 . S
C1831 H1825 0.950 . S
C1831 C1830 1.327 . S
C1831 C1835 1.429 . S
C1832 C1815 1.574 . S
C1832 H1826 0.949 . S
C1832 C1836 1.368 . S
C1833 C1814 1.429 . S
C1833 C1827 1.429 . S
C1833 C1834 1.523 . S
C1834 C1815 1.368 . S
C1834 C1828 1.368 . S
C1834 C1833 1.523 . S
C1835 C1819 1.429 . S
C1835 C1831 1.429 . S
C1835 C1836 1.523 . S
C1836 C1820 1.368 . S
C1836 C1832 1.368 . S
C1836 C1835 1.523 . S
H1837 C1812 0.950 . S
H1838 C1814 0.950 . S
H1839 C1815 0.949 . S
H1840 C1817 0.950 . S
H1841 C1819 0.950 . S
C1842 C1843 1.349 . S
C1842 C1844 1.327 . S
C1842 H1867 0.950 . S
C1843 C1842 1.349 . S
C1843 C1859 1.349 . S
C1844 C1842 1.327 . S
C1844 C1863 1.429 . S
C1844 H1868 0.950 . S
C1845 C1862 1.574 . S
C1845 C1864 1.368 . S
C1845 H1869 0.949 . S
H1846 C1850 0.949 . S
C1847 C1848 1.349 . S
C1847 C1849 1.327 . S
C1847 H1870 0.950 . S
C1848 C1847 1.349 . S
C1848 C1860 1.349 . S
C1849 C1847 1.327 . S
C1849 C1865 1.429 . S
C1849 H1871 0.950 . S
C1850 H1846 0.949 . S
C1850 C1858 1.574 . S
C1850 C1866 1.368 . S
H1851 C1859 0.950 . S
H1852 C1857 0.950 . S
H1853 C1858 0.949 . S
H1854 C1860 0.950 . S
H1855 C1861 0.950 . S
H1856 C1862 0.949 . S
C1857 H1852 0.950 . S
C1857 C1859 1.327 . S
C1857 C1863 1.429 . S
C1858 C1850 1.574 . S
C1858 H1853 0.949 . S
C1858 C1864 1.368 . S
C1859 C1843 1.349 . S
C1859 H1851 0.950 . S
C1859 C1857 1.327 . S
C1860 C1848 1.349 . S
C1860 H1854 0.950 . S
C1860 C1861 1.327 . S
C1861 H1855 0.950 . S
C1861 C1860 1.327 . S
C1861 C1865 1.429 . S
C1862 C1845 1.574 . S
C1862 H1856 0.949 . S
C1862 C1866 1.368 . S
C1863 C1844 1.429 . S
C1863 C1857 1.429 . S
C1863 C1864 1.523 . S
C1864 C1845 1.368 . S
C1864 C1858 1.368 . S
C1864 C1863 1.523 . S
C1865 C1849 1.429 . S
C1865 C1861 1.429 . S
C1865 C1866 1.523 . S
C1866 C1850 1.368 . S
C1866 C1862 1.368 . S
C1866 C1865 1.523 . S
H1867 C1842 0.950 . S
H1868 C1844 0.950 . S
H1869 C1845 0.949 . S
H1870 C1847 0.950 . S
H1871 C1849 0.950 . S
C1872 C1873 1.349 . S
C1872 C1874 1.327 . S
C1872 H1897 0.950 . S
C1873 C1872 1.349 . S
C1873 C1889 1.349 . S
C1874 C1872 1.327 . S
C1874 C1893 1.429 . S
C1874 H1898 0.950 . S
C1875 C1892 1.574 . S
C1875 C1894 1.368 . S
C1875 H1899 0.949 . S
H1876 C1880 0.949 . S
C1877 C1878 1.349 . S
C1877 C1879 1.327 . S
C1877 H1900 0.950 . S
C1878 C1877 1.349 . S
C1878 C1890 1.349 . S
C1879 C1877 1.327 . S
C1879 C1895 1.429 . S
C1879 H1901 0.950 . S
C1880 H1876 0.949 . S
C1880 C1888 1.574 . S
C1880 C1896 1.368 . S
H1881 C1889 0.950 . S
H1882 C1887 0.950 . S
H1883 C1888 0.949 . S
H1884 C1890 0.950 . S
H1885 C1891 0.950 . S
H1886 C1892 0.949 . S
C1887 H1882 0.950 . S
C1887 C1889 1.327 . S
C1887 C1893 1.429 . S
C1888 C1880 1.574 . S
C1888 H1883 0.949 . S
C1888 C1894 1.368 . S
C1889 C1873 1.349 . S
C1889 H1881 0.950 . S
C1889 C1887 1.327 . S
C1890 C1878 1.349 . S
C1890 H1884 0.950 . S
C1890 C1891 1.327 . S
C1891 H1885 0.950 . S
C1891 C1890 1.327 . S
C1891 C1895 1.429 . S
C1892 C1875 1.574 . S
C1892 H1886 0.949 . S
C1892 C1896 1.368 . S
C1893 C1874 1.429 . S
C1893 C1887 1.429 . S
C1893 C1894 1.523 . S
C1894 C1875 1.368 . S
C1894 C1888 1.368 . S
C1894 C1893 1.523 . S
C1895 C1879 1.429 . S
C1895 C1891 1.429 . S
C1895 C1896 1.523 . S
C1896 C1880 1.368 . S
C1896 C1892 1.368 . S
C1896 C1895 1.523 . S
H1897 C1872 0.950 . S
H1898 C1874 0.950 . S
H1899 C1875 0.949 . S
H1900 C1877 0.950 . S
H1901 C1879 0.950 . S
C1902 C1903 1.349 . S
C1902 C1904 1.327 . S
C1902 H1927 0.950 . S
C1903 C1902 1.349 . S
C1903 C1919 1.349 . S
C1904 C1902 1.327 . S
C1904 C1923 1.429 . S
C1904 H1928 0.950 . S
C1905 C1922 1.574 . S
C1905 C1924 1.368 . S
C1905 H1929 0.949 . S
H1906 C1910 0.949 . S
C1907 C1908 1.349 . S
C1907 C1909 1.327 . S
C1907 H1930 0.950 . S
C1908 C1907 1.349 . S
C1908 C1920 1.349 . S
C1909 C1907 1.327 . S
C1909 C1925 1.429 . S
C1909 H1931 0.950 . S
C1910 H1906 0.949 . S
C1910 C1918 1.574 . S
C1910 C1926 1.368 . S
H1911 C1919 0.950 . S
H1912 C1917 0.950 . S
H1913 C1918 0.949 . S
H1914 C1920 0.950 . S
H1915 C1921 0.950 . S
H1916 C1922 0.949 . S
C1917 H1912 0.950 . S
C1917 C1919 1.327 . S
C1917 C1923 1.429 . S
C1918 C1910 1.574 . S
C1918 H1913 0.949 . S
C1918 C1924 1.368 . S
C1919 C1903 1.349 . S
C1919 H1911 0.950 . S
C1919 C1917 1.327 . S
C1920 C1908 1.349 . S
C1920 H1914 0.950 . S
C1920 C1921 1.327 . S
C1921 H1915 0.950 . S
C1921 C1920 1.327 . S
C1921 C1925 1.429 . S
C1922 C1905 1.574 . S
C1922 H1916 0.949 . S
C1922 C1926 1.368 . S
C1923 C1904 1.429 . S
C1923 C1917 1.429 . S
C1923 C1924 1.523 . S
C1924 C1905 1.368 . S
C1924 C1918 1.368 . S
C1924 C1923 1.523 . S
C1925 C1909 1.429 . S
C1925 C1921 1.429 . S
C1925 C1926 1.523 . S
C1926 C1910 1.368 . S
C1926 C1922 1.368 . S
C1926 C1925 1.523 . S
H1927 C1902 0.950 . S
H1928 C1904 0.950 . S
H1929 C1905 0.949 . S
H1930 C1907 0.950 . S
H1931 C1909 0.950 . S
C1932 C1933 1.349 . S
C1932 C1934 1.327 . S
C1932 H1957 0.950 . S
C1933 C1932 1.349 . S
C1933 C1949 1.349 . S
C1934 C1932 1.327 . S
C1934 C1953 1.429 . S
C1934 H1958 0.950 . S
C1935 C1952 1.574 . S
C1935 C1954 1.368 . S
C1935 H1959 0.949 . S
H1936 C1940 0.949 . S
C1937 C1938 1.349 . S
C1937 C1939 1.327 . S
C1937 H1960 0.950 . S
C1938 C1937 1.349 . S
C1938 C1950 1.349 . S
C1939 C1937 1.327 . S
C1939 C1955 1.429 . S
C1939 H1961 0.950 . S
C1940 H1936 0.949 . S
C1940 C1948 1.574 . S
C1940 C1956 1.368 . S
H1941 C1949 0.950 . S
H1942 C1947 0.950 . S
H1943 C1948 0.949 . S
H1944 C1950 0.950 . S
H1945 C1951 0.950 . S
H1946 C1952 0.949 . S
C1947 H1942 0.950 . S
C1947 C1949 1.327 . S
C1947 C1953 1.429 . S
C1948 C1940 1.574 . S
C1948 H1943 0.949 . S
C1948 C1954 1.368 . S
C1949 C1933 1.349 . S
C1949 H1941 0.950 . S
C1949 C1947 1.327 . S
C1950 C1938 1.349 . S
C1950 H1944 0.950 . S
C1950 C1951 1.327 . S
C1951 H1945 0.950 . S
C1951 C1950 1.327 . S
C1951 C1955 1.429 . S
C1952 C1935 1.574 . S
C1952 H1946 0.949 . S
C1952 C1956 1.368 . S
C1953 C1934 1.429 . S
C1953 C1947 1.429 . S
C1953 C1954 1.523 . S
C1954 C1935 1.368 . S
C1954 C1948 1.368 . S
C1954 C1953 1.523 . S
C1955 C1939 1.429 . S
C1955 C1951 1.429 . S
C1955 C1956 1.523 . S
C1956 C1940 1.368 . S
C1956 C1952 1.368 . S
C1956 C1955 1.523 . S
H1957 C1932 0.950 . S
H1958 C1934 0.950 . S
H1959 C1935 0.949 . S
H1960 C1937 0.950 . S
H1961 C1939 0.950 . S
C1962 C1963 1.349 . S
C1962 C1964 1.327 . S
C1962 H1987 0.950 . S
C1963 C1962 1.349 . S
C1963 C1979 1.349 . S
C1964 C1962 1.327 . S
C1964 C1983 1.429 . S
C1964 H1988 0.950 . S
C1965 C1982 1.574 . S
C1965 C1984 1.368 . S
C1965 H1989 0.949 . S
H1966 C1970 0.949 . S
C1967 C1968 1.349 . S
C1967 C1969 1.327 . S
C1967 H1990 0.950 . S
C1968 C1967 1.349 . S
C1968 C1980 1.349 . S
C1969 C1967 1.327 . S
C1969 C1985 1.429 . S
C1969 H1991 0.950 . S
C1970 H1966 0.949 . S
C1970 C1978 1.574 . S
C1970 C1986 1.368 . S
H1971 C1979 0.950 . S
H1972 C1977 0.950 . S
H1973 C1978 0.949 . S
H1974 C1980 0.950 . S
H1975 C1981 0.950 . S
H1976 C1982 0.949 . S
C1977 H1972 0.950 . S
C1977 C1979 1.327 . S
C1977 C1983 1.429 . S
C1978 C1970 1.574 . S
C1978 H1973 0.949 . S
C1978 C1984 1.368 . S
C1979 C1963 1.349 . S
C1979 H1971 0.950 . S
C1979 C1977 1.327 . S
C1980 C1968 1.349 . S
C1980 H1974 0.950 . S
C1980 C1981 1.327 . S
C1981 H1975 0.950 . S
C1981 C1980 1.327 . S
C1981 C1985 1.429 . S
C1982 C1965 1.574 . S
C1982 H1976 0.949 . S
C1982 C1986 1.368 . S
C1983 C1964 1.429 . S
C1983 C1977 1.429 . S
C1983 C1984 1.523 . S
C1984 C1965 1.368 . S
C1984 C1978 1.368 . S
C1984 C1983 1.523 . S
C1985 C1969 1.429 . S
C1985 C1981 1.429 . S
C1985 C1986 1.523 . S
C1986 C1970 1.368 . S
C1986 C1982 1.368 . S
C1986 C1985 1.523 . S
H1987 C1962 0.950 . S
H1988 C1964 0.950 . S
H1989 C1965 0.949 . S
H1990 C1967 0.950 . S
H1991 C1969 0.950 . S
C1992 C1993 1.349 . S
C1992 C1994 1.327 . S
C1992 H2017 0.950 . S
C1993 C1992 1.349 . S
C1993 C2009 1.349 . S
C1994 C1992 1.327 . S
C1994 C2013 1.429 . S
C1994 H2018 0.950 . S
C1995 C2012 1.574 . S
C1995 C2014 1.368 . S
C1995 H2019 0.949 . S
H1996 C2000 0.949 . S
C1997 C1998 1.349 . S
C1997 C1999 1.327 . S
C1997 H2020 0.950 . S
C1998 C1997 1.349 . S
C1998 C2010 1.349 . S
C1999 C1997 1.327 . S
C1999 C2015 1.429 . S
C1999 H2021 0.950 . S
C2000 H1996 0.949 . S
C2000 C2008 1.574 . S
C2000 C2016 1.368 . S
H2001 C2009 0.950 . S
H2002 C2007 0.950 . S
H2003 C2008 0.949 . S
H2004 C2010 0.950 . S
H2005 C2011 0.950 . S
H2006 C2012 0.949 . S
C2007 H2002 0.950 . S
C2007 C2009 1.327 . S
C2007 C2013 1.429 . S
C2008 C2000 1.574 . S
C2008 H2003 0.949 . S
C2008 C2014 1.368 . S
C2009 C1993 1.349 . S
C2009 H2001 0.950 . S
C2009 C2007 1.327 . S
C2010 C1998 1.349 . S
C2010 H2004 0.950 . S
C2010 C2011 1.327 . S
C2011 H2005 0.950 . S
C2011 C2010 1.327 . S
C2011 C2015 1.429 . S
C2012 C1995 1.574 . S
C2012 H2006 0.949 . S
C2012 C2016 1.368 . S
C2013 C1994 1.429 . S
C2013 C2007 1.429 . S
C2013 C2014 1.523 . S
C2014 C1995 1.368 . S
C2014 C2008 1.368 . S
C2014 C2013 1.523 . S
C2015 C1999 1.429 . S
C2015 C2011 1.429 . S
C2015 C2016 1.523 . S
C2016 C2000 1.368 . S
C2016 C2012 1.368 . S
C2016 C2015 1.523 . S
H2017 C1992 0.950 . S
H2018 C1994 0.950 . S
H2019 C1995 0.949 . S
H2020 C1997 0.950 . S
H2021 C1999 0.950 . S
C2022 C2023 1.349 . S
C2022 C2024 1.327 . S
C2022 H2047 0.950 . S
C2023 C2022 1.349 . S
C2023 C2039 1.349 . S
C2024 C2022 1.327 . S
C2024 C2043 1.429 . S
C2024 H2048 0.950 . S
C2025 C2042 1.574 . S
C2025 C2044 1.368 . S
C2025 H2049 0.949 . S
H2026 C2030 0.949 . S
C2027 C2028 1.349 . S
C2027 C2029 1.327 . S
C2027 H2050 0.950 . S
C2028 C2027 1.349 . S
C2028 C2040 1.349 . S
C2029 C2027 1.327 . S
C2029 C2045 1.429 . S
C2029 H2051 0.950 . S
C2030 H2026 0.949 . S
C2030 C2038 1.574 . S
C2030 C2046 1.368 . S
H2031 C2039 0.950 . S
H2032 C2037 0.950 . S
H2033 C2038 0.949 . S
H2034 C2040 0.950 . S
H2035 C2041 0.950 . S
H2036 C2042 0.949 . S
C2037 H2032 0.950 . S
C2037 C2039 1.327 . S
C2037 C2043 1.429 . S
C2038 C2030 1.574 . S
C2038 H2033 0.949 . S
C2038 C2044 1.368 . S
C2039 C2023 1.349 . S
C2039 H2031 0.950 . S
C2039 C2037 1.327 . S
C2040 C2028 1.349 . S
C2040 H2034 0.950 . S
C2040 C2041 1.327 . S
C2041 H2035 0.950 . S
C2041 C2040 1.327 . S
C2041 C2045 1.429 . S
C2042 C2025 1.574 . S
C2042 H2036 0.949 . S
C2042 C2046 1.368 . S
C2043 C2024 1.429 . S
C2043 C2037 1.429 . S
C2043 C2044 1.523 . S
C2044 C2025 1.368 . S
C2044 C2038 1.368 . S
C2044 C2043 1.523 . S
C2045 C2029 1.429 . S
C2045 C2041 1.429 . S
C2045 C2046 1.523 . S
C2046 C2030 1.368 . S
C2046 C2042 1.368 . S
C2046 C2045 1.523 . S
H2047 C2022 0.950 . S
H2048 C2024 0.950 . S
H2049 C2025 0.949 . S
H2050 C2027 0.950 . S
H2051 C2029 0.950 . S
C2052 C2053 1.349 . S
C2052 C2054 1.327 . S
C2052 H2077 0.950 . S
C2053 C2052 1.349 . S
C2053 C2069 1.349 . S
C2054 C2052 1.327 . S
C2054 C2073 1.429 . S
C2054 H2078 0.950 . S
C2055 C2072 1.574 . S
C2055 C2074 1.368 1_545 S
C2055 H2079 0.949 . S
H2056 C2060 0.948 . S
C2057 C2058 1.349 . S
C2057 C2059 1.327 . S
C2057 H2080 0.950 . S
C2058 C2057 1.349 . S
C2058 C2070 1.349 . S
C2059 C2057 1.327 . S
C2059 C2075 1.429 . S
C2059 H2081 0.950 . S
C2060 H2056 0.948 . S
C2060 C2068 1.569 . S
C2060 C2076 1.374 1_565 S
H2061 C2069 0.950 . S
H2062 C2067 0.950 . S
H2063 C2068 0.949 . S
H2064 C2070 0.950 . S
H2065 C2071 0.950 . S
H2066 C2072 0.949 . S
C2067 H2062 0.950 . S
C2067 C2069 1.327 . S
C2067 C2073 1.429 . S
C2068 C2060 1.569 . S
C2068 H2063 0.949 . S
C2068 C2074 1.368 . S
C2069 C2053 1.349 . S
C2069 H2061 0.950 . S
C2069 C2067 1.327 . S
C2070 C2058 1.349 . S
C2070 H2064 0.950 . S
C2070 C2071 1.327 . S
C2071 H2065 0.950 . S
C2071 C2070 1.327 . S
C2071 C2075 1.429 . S
C2072 C2055 1.574 . S
C2072 H2066 0.949 . S
C2072 C2076 1.368 . S
C2073 C2054 1.429 . S
C2073 C2067 1.429 . S
C2073 C2074 1.523 . S
C2074 C2055 1.368 1_565 S
C2074 C2068 1.368 . S
C2074 C2073 1.523 . S
C2075 C2059 1.429 . S
C2075 C2071 1.429 . S
C2075 C2076 1.523 . S
C2076 C2060 1.374 1_545 S
C2076 C2072 1.368 . S
C2076 C2075 1.523 . S
H2077 C2052 0.950 . S
H2078 C2054 0.950 . S
H2079 C2055 0.949 . S
H2080 C2057 0.950 . S
H2081 C2059 0.950 . S
C2082 C2083 1.349 . S
C2082 C2084 1.327 . S
C2082 H2107 0.950 . S
C2083 C2082 1.349 . S
C2083 C2099 1.349 . S
C2084 C2082 1.327 . S
C2084 C2103 1.429 . S
C2084 H2108 0.950 1_455 S
C2085 C2102 1.574 . S
C2085 C2104 1.368 . S
C2085 H2109 0.949 1_655 S
H2086 C2090 0.949 . S
C2087 C2088 1.349 . S
C2087 C2089 1.327 . S
C2087 H2110 0.950 . S
C2088 C2087 1.349 . S
C2088 C2100 1.349 . S
C2089 C2087 1.327 . S
C2089 C2105 1.429 . S
C2089 H2111 0.950 . S
C2090 H2086 0.949 . S
C2090 C2098 1.574 . S
C2090 C2106 1.368 . S
H2091 C2099 0.950 . S
H2092 C2097 0.950 . S
H2093 C2098 0.949 . S
H2094 C2100 0.950 . S
H2095 C2101 0.950 . S
H2096 C2102 0.949 . S
C2097 H2092 0.950 . S
C2097 C2099 1.327 . S
C2097 C2103 1.429 . S
C2098 C2090 1.574 . S
C2098 H2093 0.949 . S
C2098 C2104 1.368 . S
C2099 C2083 1.349 . S
C2099 H2091 0.950 . S
C2099 C2097 1.327 . S
C2100 C2088 1.349 . S
C2100 H2094 0.950 . S
C2100 C2101 1.327 . S
C2101 H2095 0.950 . S
C2101 C2100 1.327 . S
C2101 C2105 1.429 . S
C2102 C2085 1.574 . S
C2102 H2096 0.949 . S
C2102 C2106 1.368 . S
C2103 C2084 1.429 . S
C2103 C2097 1.429 . S
C2103 C2104 1.523 1_455 S
C2104 C2085 1.368 . S
C2104 C2098 1.368 . S
C2104 C2103 1.523 1_655 S
C2105 C2089 1.429 . S
C2105 C2101 1.429 . S
C2105 C2106 1.523 . S
C2106 C2090 1.368 . S
C2106 C2102 1.368 . S
C2106 C2105 1.523 . S
H2107 C2082 0.950 . S
H2108 C2084 0.950 1_655 S
H2109 C2085 0.949 1_455 S
H2110 C2087 0.950 . S
H2111 C2089 0.950 . S
C2112 C2113 1.349 . S
C2112 C2114 1.327 . S
C2112 H2137 0.950 . S
C2113 C2112 1.349 . S
C2113 C2129 1.349 . S
C2114 C2112 1.327 . S
C2114 C2133 1.429 . S
C2114 H2138 0.950 . S
C2115 C2132 1.516 1_565 S
C2115 C2134 1.415 . S
C2115 H2139 0.963 . S
H2116 C2120 0.949 . S
C2117 C2118 1.349 . S
C2117 C2119 1.327 . S
C2117 H2140 0.950 . S
C2118 C2117 1.349 . S
C2118 C2130 1.349 . S
C2119 C2117 1.327 . S
C2119 C2135 1.429 . S
C2119 H2141 0.950 . S
C2120 H2116 0.949 . S
C2120 C2128 1.574 1_545 S
C2120 C2136 1.368 . S
H2121 C2129 0.950 . S
H2122 C2127 0.950 . S
H2123 C2128 0.949 . S
H2124 C2130 0.950 . S
H2125 C2131 0.950 . S
H2126 C2132 0.949 . S
C2127 H2122 0.950 . S
C2127 C2129 1.327 . S
C2127 C2133 1.429 . S
C2128 C2120 1.574 1_565 S
C2128 H2123 0.949 . S
C2128 C2134 1.368 . S
C2129 C2113 1.349 . S
C2129 H2121 0.950 . S
C2129 C2127 1.327 . S
C2130 C2118 1.349 . S
C2130 H2124 0.950 . S
C2130 C2131 1.327 . S
C2131 H2125 0.950 . S
C2131 C2130 1.327 . S
C2131 C2135 1.429 . S
C2132 C2115 1.516 1_545 S
C2132 H2126 0.949 . S
C2132 C2136 1.368 . S
C2133 C2114 1.429 . S
C2133 C2127 1.429 . S
C2133 C2134 1.523 . S
C2134 C2115 1.415 . S
C2134 C2128 1.368 . S
C2134 C2133 1.523 . S
C2135 C2119 1.429 . S
C2135 C2131 1.429 . S
C2135 C2136 1.523 . S
C2136 C2120 1.368 . S
C2136 C2132 1.368 . S
C2136 C2135 1.523 . S
H2137 C2112 0.950 . S
H2138 C2114 0.950 . S
H2139 C2115 0.963 . S
H2140 C2117 0.950 . S
H2141 C2119 0.950 . S
C2142 C2143 1.349 . S
C2142 C2144 1.327 . S
C2142 H2167 0.950 . S
C2143 C2142 1.349 . S
C2143 C2159 1.349 . S
C2144 C2142 1.327 . S
C2144 C2163 1.429 . S
C2144 H2168 0.950 . S
C2145 C2162 1.574 1_655 S
C2145 C2164 1.368 . S
C2145 H2169 0.949 . S
H2146 C2150 0.949 . S
C2147 C2148 1.349 . S
C2147 C2149 1.327 . S
C2147 H2170 0.950 . S
C2148 C2147 1.349 . S
C2148 C2160 1.349 . S
C2149 C2147 1.327 . S
C2149 C2165 1.429 . S
C2149 H2171 0.950 . S
C2150 H2146 0.949 . S
C2150 C2158 1.574 . S
C2150 C2166 1.330 1_655 S
H2151 C2159 0.950 . S
H2152 C2157 0.950 . S
H2153 C2158 0.949 . S
H2154 C2160 0.950 . S
H2155 C2161 0.950 . S
H2156 C2162 0.949 . S
C2157 H2152 0.950 . S
C2157 C2159 1.327 . S
C2157 C2163 1.429 . S
C2158 C2150 1.574 . S
C2158 H2153 0.949 . S
C2158 C2164 1.368 . S
C2159 C2143 1.349 . S
C2159 H2151 0.950 . S
C2159 C2157 1.327 . S
C2160 C2148 1.349 . S
C2160 H2154 0.950 . S
C2160 C2161 1.327 . S
C2161 H2155 0.950 . S
C2161 C2160 1.327 . S
C2161 C2165 1.429 . S
C2162 C2145 1.574 1_455 S
C2162 H2156 0.949 . S
C2162 C2166 1.373 . S
C2163 C2144 1.429 . S
C2163 C2157 1.429 . S
C2163 C2164 1.523 . S
C2164 C2145 1.368 . S
C2164 C2158 1.368 . S
C2164 C2163 1.523 . S
C2165 C2149 1.429 . S
C2165 C2161 1.429 . S
C2165 C2166 1.571 . S
C2166 C2150 1.330 1_455 S
C2166 C2162 1.373 . S
C2166 C2165 1.571 . S
H2167 C2142 0.950 . S
H2168 C2144 0.950 . S
H2169 C2145 0.949 . S
H2170 C2147 0.950 . S
H2171 C2149 0.950 . S
C2172 C2173 1.349 . S
C2172 C2174 1.327 . S
C2172 H2197 0.950 . S
C2173 C2172 1.349 . S
C2173 C2189 1.349 . S
C2174 C2172 1.327 . S
C2174 C2193 1.429 . S
C2174 H2198 0.950 . S
C2175 C2192 1.574 . S
C2175 C2194 1.368 . S
C2175 H2199 0.949 . S
H2176 C2180 0.949 . S
C2177 C2178 1.349 . S
C2177 C2179 1.327 . S
C2177 H2200 0.950 . S
C2178 C2177 1.349 . S
C2178 C2190 1.349 . S
C2179 C2177 1.327 . S
C2179 C2195 1.429 . S
C2179 H2201 0.950 . S
C2180 H2176 0.949 . S
C2180 C2188 1.574 . S
C2180 C2196 1.368 . S
H2181 C2189 0.950 . S
H2182 C2187 0.950 . S
H2183 C2188 0.949 . S
H2184 C2190 0.950 . S
H2185 C2191 0.950 . S
H2186 C2192 0.949 . S
C2187 H2182 0.950 . S
C2187 C2189 1.327 . S
C2187 C2193 1.429 . S
C2188 C2180 1.574 . S
C2188 H2183 0.949 . S
C2188 C2194 1.368 . S
C2189 C2173 1.349 . S
C2189 H2181 0.950 . S
C2189 C2187 1.327 . S
C2190 C2178 1.349 . S
C2190 H2184 0.950 . S
C2190 C2191 1.327 . S
C2191 H2185 0.950 . S
C2191 C2190 1.327 . S
C2191 C2195 1.429 . S
C2192 C2175 1.574 . S
C2192 H2186 0.949 . S
C2192 C2196 1.368 . S
C2193 C2174 1.429 . S
C2193 C2187 1.429 . S
C2193 C2194 1.523 . S
C2194 C2175 1.368 . S
C2194 C2188 1.368 . S
C2194 C2193 1.523 . S
C2195 C2179 1.429 . S
C2195 C2191 1.429 . S
C2195 C2196 1.523 . S
C2196 C2180 1.368 . S
C2196 C2192 1.368 . S
C2196 C2195 1.523 . S
H2197 C2172 0.950 . S
H2198 C2174 0.950 . S
H2199 C2175 0.949 . S
H2200 C2177 0.950 . S
H2201 C2179 0.950 . S
C2202 C2203 1.349 . S
C2202 C2204 1.327 . S
C2202 H2227 0.950 . S
C2203 C2202 1.349 . S
C2203 C2219 1.349 . S
C2204 C2202 1.327 . S
C2204 C2223 1.429 . S
C2204 H2228 0.950 . S
C2205 C2222 1.574 . S
C2205 C2224 1.368 . S
C2205 H2229 0.949 . S
H2206 C2210 0.949 . S
C2207 C2208 1.349 . S
C2207 C2209 1.327 . S
C2207 H2230 0.950 . S
C2208 C2207 1.349 . S
C2208 C2220 1.349 . S
C2209 C2207 1.327 . S
C2209 C2225 1.429 . S
C2209 H2231 0.950 . S
C2210 H2206 0.949 . S
C2210 C2218 1.574 . S
C2210 C2226 1.368 . S
H2211 C2219 0.950 . S
H2212 C2217 0.950 . S
H2213 C2218 0.949 . S
H2214 C2220 0.950 . S
H2215 C2221 0.950 . S
H2216 C2222 0.949 . S
C2217 H2212 0.950 . S
C2217 C2219 1.327 . S
C2217 C2223 1.429 . S
C2218 C2210 1.574 . S
C2218 H2213 0.949 . S
C2218 C2224 1.368 . S
C2219 C2203 1.349 . S
C2219 H2211 0.950 . S
C2219 C2217 1.327 . S
C2220 C2208 1.349 . S
C2220 H2214 0.950 . S
C2220 C2221 1.327 . S
C2221 H2215 0.950 . S
C2221 C2220 1.327 . S
C2221 C2225 1.429 . S
C2222 C2205 1.574 . S
C2222 H2216 0.949 . S
C2222 C2226 1.368 . S
C2223 C2204 1.429 . S
C2223 C2217 1.429 . S
C2223 C2224 1.523 . S
C2224 C2205 1.368 . S
C2224 C2218 1.368 . S
C2224 C2223 1.523 . S
C2225 C2209 1.429 . S
C2225 C2221 1.429 . S
C2225 C2226 1.523 . S
C2226 C2210 1.368 . S
C2226 C2222 1.368 . S
C2226 C2225 1.523 . S
H2227 C2202 0.950 . S
H2228 C2204 0.950 . S
H2229 C2205 0.949 . S
H2230 C2207 0.950 . S
H2231 C2209 0.950 . S
C2232 C2233 1.349 . S
C2232 C2234 1.327 . S
C2232 H2257 0.950 . S
C2233 C2232 1.349 . S
C2233 C2249 1.349 . S
C2234 C2232 1.327 . S
C2234 C2253 1.429 . S
C2234 H2258 0.950 . S
C2235 C2252 1.574 . S
C2235 C2254 1.368 . S
C2235 H2259 0.949 . S
H2236 C2240 0.949 . S
C2237 C2238 1.349 . S
C2237 C2239 1.327 . S
C2237 H2260 0.950 . S
C2238 C2237 1.349 . S
C2238 C2250 1.349 . S
C2239 C2237 1.327 . S
C2239 C2255 1.429 . S
C2239 H2261 0.950 . S
C2240 H2236 0.949 . S
C2240 C2248 1.574 . S
C2240 C2256 1.368 . S
H2241 C2249 0.950 . S
H2242 C2247 0.950 . S
H2243 C2248 0.949 . S
H2244 C2250 0.950 . S
H2245 C2251 0.950 . S
H2246 C2252 0.949 . S
C2247 H2242 0.950 . S
C2247 C2249 1.327 . S
C2247 C2253 1.429 . S
C2248 C2240 1.574 . S
C2248 H2243 0.949 . S
C2248 C2254 1.368 . S
C2249 C2233 1.349 . S
C2249 H2241 0.950 . S
C2249 C2247 1.327 . S
C2250 C2238 1.349 . S
C2250 H2244 0.950 . S
C2250 C2251 1.327 . S
C2251 H2245 0.950 . S
C2251 C2250 1.327 . S
C2251 C2255 1.429 . S
C2252 C2235 1.574 . S
C2252 H2246 0.949 . S
C2252 C2256 1.368 . S
C2253 C2234 1.429 . S
C2253 C2247 1.429 . S
C2253 C2254 1.523 . S
C2254 C2235 1.368 . S
C2254 C2248 1.368 . S
C2254 C2253 1.523 . S
C2255 C2239 1.429 . S
C2255 C2251 1.429 . S
C2255 C2256 1.523 . S
C2256 C2240 1.368 . S
C2256 C2252 1.368 . S
C2256 C2255 1.523 . S
H2257 C2232 0.950 . S
H2258 C2234 0.950 . S
H2259 C2235 0.949 . S
H2260 C2237 0.950 . S
H2261 C2239 0.950 . S
C2262 C2263 1.349 . S
C2262 C2264 1.327 . S
C2262 H2287 0.950 . S
C2263 C2262 1.349 . S
C2263 C2279 1.349 . S
C2264 C2262 1.327 . S
C2264 C2283 1.429 . S
C2264 H2288 0.950 . S
C2265 C2282 1.574 1_554 S
C2265 C2284 1.368 . S
C2265 H2289 0.949 . S
H2266 C2270 0.949 . S
C2267 C2268 1.349 . S
C2267 C2269 1.327 . S
C2267 H2290 0.950 . S
C2268 C2267 1.349 . S
C2268 C2280 1.349 . S
C2269 C2267 1.327 . S
C2269 C2285 1.429 . S
C2269 H2291 0.950 . S
C2270 H2266 0.949 . S
C2270 C2278 1.574 . S
C2270 C2286 1.368 1_554 S
H2271 C2279 0.950 . S
H2272 C2277 0.950 . S
H2273 C2278 0.949 . S
H2274 C2280 0.950 . S
H2275 C2281 0.950 . S
H2276 C2282 0.949 . S
C2277 H2272 0.950 . S
C2277 C2279 1.327 . S
C2277 C2283 1.429 . S
C2278 C2270 1.574 . S
C2278 H2273 0.949 . S
C2278 C2284 1.368 . S
C2279 C2263 1.349 . S
C2279 H2271 0.950 . S
C2279 C2277 1.327 . S
C2280 C2268 1.349 . S
C2280 H2274 0.950 . S
C2280 C2281 1.327 . S
C2281 H2275 0.950 . S
C2281 C2280 1.327 . S
C2281 C2285 1.429 . S
C2282 C2265 1.574 1_556 S
C2282 H2276 0.949 . S
C2282 C2286 1.368 . S
C2283 C2264 1.429 . S
C2283 C2277 1.429 . S
C2283 C2284 1.523 . S
C2284 C2265 1.368 . S
C2284 C2278 1.368 . S
C2284 C2283 1.523 . S
C2285 C2269 1.429 . S
C2285 C2281 1.429 . S
C2285 C2286 1.523 . S
C2286 C2270 1.368 1_556 S
C2286 C2282 1.368 . S
C2286 C2285 1.523 . S
H2287 C2262 0.950 . S
H2288 C2264 0.950 . S
H2289 C2265 0.949 . S
H2290 C2267 0.950 . S
H2291 C2269 0.950 . S
C2292 C2293 1.349 . S
C2292 C2294 1.327 . S
C2292 H2317 0.950 . S
C2293 C2292 1.349 . S
C2293 C2309 1.349 . S
C2294 C2292 1.327 . S
C2294 C2313 1.429 . S
C2294 H2318 0.950 . S
C2295 C2312 1.574 . S
C2295 C2314 1.368 . S
C2295 H2319 0.949 . S
H2296 C2300 0.949 . S
C2297 C2298 1.349 . S
C2297 C2299 1.327 . S
C2297 H2320 0.950 . S
C2298 C2297 1.349 . S
C2298 C2310 1.349 . S
C2299 C2297 1.327 . S
C2299 C2315 1.429 . S
C2299 H2321 0.950 . S
C2300 H2296 0.949 . S
C2300 C2308 1.574 . S
C2300 C2316 1.368 . S
H2301 C2309 0.950 . S
H2302 C2307 0.950 . S
H2303 C2308 0.949 . S
H2304 C2310 0.950 . S
H2305 C2311 0.950 . S
H2306 C2312 0.949 . S
C2307 H2302 0.950 . S
C2307 C2309 1.327 . S
C2307 C2313 1.429 . S
C2308 C2300 1.574 . S
C2308 H2303 0.949 . S
C2308 C2314 1.368 . S
C2309 C2293 1.349 . S
C2309 H2301 0.950 . S
C2309 C2307 1.327 . S
C2310 C2298 1.349 . S
C2310 H2304 0.950 . S
C2310 C2311 1.327 . S
C2311 H2305 0.950 . S
C2311 C2310 1.327 . S
C2311 C2315 1.429 . S
C2312 C2295 1.574 . S
C2312 H2306 0.949 . S
C2312 C2316 1.368 . S
C2313 C2294 1.429 . S
C2313 C2307 1.429 . S
C2313 C2314 1.523 . S
C2314 C2295 1.368 . S
C2314 C2308 1.368 . S
C2314 C2313 1.523 . S
C2315 C2299 1.429 . S
C2315 C2311 1.429 . S
C2315 C2316 1.523 . S
C2316 C2300 1.368 . S
C2316 C2312 1.368 . S
C2316 C2315 1.523 . S
H2317 C2292 0.950 . S
H2318 C2294 0.950 . S
H2319 C2295 0.949 . S
H2320 C2297 0.950 . S
H2321 C2299 0.950 . S
C2322 C2323 1.349 . S
C2322 C2324 1.327 . S
C2322 H2347 0.950 . S
C2323 C2322 1.349 . S
C2323 C2339 1.349 . S
C2324 C2322 1.327 . S
C2324 C2343 1.429 . S
C2324 H2348 0.950 . S
C2325 C2342 1.574 . S
C2325 C2344 1.368 . S
C2325 H2349 0.949 . S
H2326 C2330 0.949 . S
C2327 C2328 1.349 . S
C2327 C2329 1.327 . S
C2327 H2350 0.950 . S
C2328 C2327 1.349 . S
C2328 C2340 1.349 . S
C2329 C2327 1.327 . S
C2329 C2345 1.429 . S
C2329 H2351 0.950 . S
C2330 H2326 0.949 . S
C2330 C2338 1.574 . S
C2330 C2346 1.368 . S
H2331 C2339 0.950 . S
H2332 C2337 0.950 . S
H2333 C2338 0.949 . S
H2334 C2340 0.950 . S
H2335 C2341 0.950 . S
H2336 C2342 0.949 . S
C2337 H2332 0.950 . S
C2337 C2339 1.327 . S
C2337 C2343 1.429 . S
C2338 C2330 1.574 . S
C2338 H2333 0.949 . S
C2338 C2344 1.368 . S
C2339 C2323 1.349 . S
C2339 H2331 0.950 . S
C2339 C2337 1.327 . S
C2340 C2328 1.349 . S
C2340 H2334 0.950 . S
C2340 C2341 1.327 . S
C2341 H2335 0.950 . S
C2341 C2340 1.327 . S
C2341 C2345 1.429 . S
C2342 C2325 1.574 . S
C2342 H2336 0.949 . S
C2342 C2346 1.368 . S
C2343 C2324 1.429 . S
C2343 C2337 1.429 . S
C2343 C2344 1.523 1_556 S
C2344 C2325 1.368 . S
C2344 C2338 1.368 . S
C2344 C2343 1.523 1_554 S
C2345 C2329 1.429 . S
C2345 C2341 1.429 . S
C2345 C2346 1.523 . S
C2346 C2330 1.368 . S
C2346 C2342 1.368 . S
C2346 C2345 1.523 . S
H2347 C2322 0.950 . S
H2348 C2324 0.950 . S
H2349 C2325 0.949 . S
H2350 C2327 0.950 . S
H2351 C2329 0.950 . S
C2352 C2353 1.349 . S
C2352 C2354 1.327 . S
C2352 H2377 0.950 . S
C2353 C2352 1.349 . S
C2353 C2369 1.349 . S
C2354 C2352 1.327 . S
C2354 C2373 1.429 . S
C2354 H2378 0.950 . S
C2355 C2372 1.574 . S
C2355 C2374 1.368 . S
C2355 H2379 0.949 . S
H2356 C2360 0.949 . S
C2357 C2358 1.349 . S
C2357 C2359 1.327 . S
C2357 H2380 0.950 . S
C2358 C2357 1.349 . S
C2358 C2370 1.349 . S
C2359 C2357 1.327 . S
C2359 C2375 1.429 . S
C2359 H2381 0.950 . S
C2360 H2356 0.949 . S
C2360 C2368 1.574 . S
C2360 C2376 1.368 . S
H2361 C2369 0.950 . S
H2362 C2367 0.950 . S
H2363 C2368 0.949 . S
H2364 C2370 0.950 . S
H2365 C2371 0.950 . S
H2366 C2372 0.949 . S
C2367 H2362 0.950 . S
C2367 C2369 1.327 . S
C2367 C2373 1.429 . S
C2368 C2360 1.574 . S
C2368 H2363 0.949 . S
C2368 C2374 1.368 . S
C2369 C2353 1.349 . S
C2369 H2361 0.950 . S
C2369 C2367 1.327 . S
C2370 C2358 1.349 . S
C2370 H2364 0.950 . S
C2370 C2371 1.327 . S
C2371 H2365 0.950 . S
C2371 C2370 1.327 . S
C2371 C2375 1.429 . S
C2372 C2355 1.574 . S
C2372 H2366 0.949 . S
C2372 C2376 1.368 . S
C2373 C2354 1.429 . S
C2373 C2367 1.429 . S
C2373 C2374 1.523 . S
C2374 C2355 1.368 . S
C2374 C2368 1.368 . S
C2374 C2373 1.523 . S
C2375 C2359 1.429 . S
C2375 C2371 1.429 . S
C2375 C2376 1.523 . S
C2376 C2360 1.368 . S
C2376 C2372 1.368 . S
C2376 C2375 1.523 . S
H2377 C2352 0.950 . S
H2378 C2354 0.950 . S
H2379 C2355 0.949 . S
H2380 C2357 0.950 . S
H2381 C2359 0.950 . S
C2382 C2383 1.349 . S
C2382 C2384 1.327 . S
C2382 H2407 0.950 . S
C2383 C2382 1.349 . S
C2383 C2399 1.349 . S
C2384 C2382 1.327 . S
C2384 C2403 1.429 . S
C2384 H2408 0.950 . S
C2385 C2402 1.574 . S
C2385 C2404 1.368 . S
C2385 H2409 0.949 . S
H2386 C2390 0.949 . S
C2387 C2388 1.349 . S
C2387 C2389 1.327 . S
C2387 H2410 0.950 . S
C2388 C2387 1.349 . S
C2388 C2400 1.349 . S
C2389 C2387 1.327 . S
C2389 C2405 1.429 . S
C2389 H2411 0.950 . S
C2390 H2386 0.949 . S
C2390 C2398 1.574 . S
C2390 C2406 1.368 . S
H2391 C2399 0.950 . S
H2392 C2397 0.950 . S
H2393 C2398 0.949 . S
H2394 C2400 0.950 . S
H2395 C2401 0.950 . S
H2396 C2402 0.949 . S
C2397 H2392 0.950 . S
C2397 C2399 1.327 . S
C2397 C2403 1.429 . S
C2398 C2390 1.574 . S
C2398 H2393 0.949 . S
C2398 C2404 1.368 . S
C2399 C2383 1.349 . S
C2399 H2391 0.950 . S
C2399 C2397 1.327 . S
C2400 C2388 1.349 . S
C2400 H2394 0.950 . S
C2400 C2401 1.327 . S
C2401 H2395 0.950 . S
C2401 C2400 1.327 . S
C2401 C2405 1.429 . S
C2402 C2385 1.574 . S
C2402 H2396 0.949 . S
C2402 C2406 1.368 . S
C2403 C2384 1.429 . S
C2403 C2397 1.429 . S
C2403 C2404 1.523 . S
C2404 C2385 1.368 . S
C2404 C2398 1.368 . S
C2404 C2403 1.523 . S
C2405 C2389 1.429 . S
C2405 C2401 1.429 . S
C2405 C2406 1.523 . S
C2406 C2390 1.368 . S
C2406 C2402 1.368 . S
C2406 C2405 1.523 . S
H2407 C2382 0.950 . S
H2408 C2384 0.950 . S
H2409 C2385 0.949 . S
H2410 C2387 0.950 . S
H2411 C2389 0.950 . S
C2412 C2413 1.349 . S
C2412 C2414 1.327 . S
C2412 H2437 0.950 . S
C2413 C2412 1.349 . S
C2413 C2429 1.349 . S
C2414 C2412 1.327 . S
C2414 C2433 1.429 . S
C2414 H2438 0.950 . S
C2415 C2432 1.574 1_545 S
C2415 C2434 1.368 . S
C2415 H2439 0.949 . S
H2416 C2420 0.949 . S
C2417 C2418 1.349 . S
C2417 C2419 1.327 . S
C2417 H2440 0.950 . S
C2418 C2417 1.349 . S
C2418 C2430 1.349 . S
C2419 C2417 1.327 . S
C2419 C2435 1.429 . S
C2419 H2441 0.950 . S
C2420 H2416 0.949 . S
C2420 C2428 1.574 . S
C2420 C2436 1.368 . S
H2421 C2429 0.950 . S
H2422 C2427 0.950 . S
H2423 C2428 0.949 . S
H2424 C2430 0.950 . S
H2425 C2431 0.950 . S
H2426 C2432 0.949 . S
C2427 H2422 0.950 . S
C2427 C2429 1.327 . S
C2427 C2433 1.429 . S
C2428 C2420 1.574 . S
C2428 H2423 0.949 . S
C2428 C2434 1.368 1_565 S
C2429 C2413 1.349 . S
C2429 H2421 0.950 . S
C2429 C2427 1.327 . S
C2430 C2418 1.349 . S
C2430 H2424 0.950 . S
C2430 C2431 1.327 . S
C2431 H2425 0.950 . S
C2431 C2430 1.327 . S
C2431 C2435 1.429 . S
C2432 C2415 1.574 1_565 S
C2432 H2426 0.949 . S
C2432 C2436 1.368 . S
C2433 C2414 1.429 . S
C2433 C2427 1.429 . S
C2433 C2434 1.523 . S
C2434 C2415 1.368 . S
C2434 C2428 1.368 1_545 S
C2434 C2433 1.523 . S
C2435 C2419 1.429 . S
C2435 C2431 1.429 . S
C2435 C2436 1.523 . S
C2436 C2420 1.368 . S
C2436 C2432 1.368 . S
C2436 C2435 1.523 . S
H2437 C2412 0.950 . S
H2438 C2414 0.950 . S
H2439 C2415 0.949 . S
H2440 C2417 0.950 . S
H2441 C2419 0.950 . S
C2442 C2443 1.349 . S
C2442 C2444 1.327 . S
C2442 H2467 0.950 . S
C2443 C2442 1.349 . S
C2443 C2459 1.349 . S
C2444 C2442 1.327 . S
C2444 C2463 1.429 . S
C2444 H2468 0.950 . S
C2445 C2462 1.577 . S
C2445 C2464 1.368 . S
C2445 H2469 0.949 . S
H2446 C2450 0.949 . S
C2447 C2448 1.349 . S
C2447 C2449 1.327 . S
C2447 H2470 0.950 . S
C2448 C2447 1.349 . S
C2448 C2460 1.349 . S
C2449 C2447 1.327 . S
C2449 C2465 1.429 . S
C2449 H2471 0.950 . S
C2450 H2446 0.949 . S
C2450 C2458 1.574 1_655 S
C2450 C2466 1.368 . S
H2451 C2459 0.950 . S
H2452 C2457 0.950 . S
H2453 C2458 0.949 . S
H2454 C2460 0.950 . S
H2455 C2461 0.950 . S
H2456 C2462 0.948 1_655 S
C2457 H2452 0.950 . S
C2457 C2459 1.327 . S
C2457 C2463 1.429 . S
C2458 C2450 1.574 1_455 S
C2458 H2453 0.949 . S
C2458 C2464 1.368 . S
C2459 C2443 1.349 . S
C2459 H2451 0.950 . S
C2459 C2457 1.327 . S
C2460 C2448 1.349 . S
C2460 H2454 0.950 . S
C2460 C2461 1.327 . S
C2461 H2455 0.950 . S
C2461 C2460 1.327 . S
C2461 C2465 1.429 . S
C2462 C2445 1.577 . S
C2462 H2456 0.948 1_455 S
C2462 C2466 1.366 1_455 S
C2463 C2444 1.429 . S
C2463 C2457 1.429 . S
C2463 C2464 1.523 . S
C2464 C2445 1.368 . S
C2464 C2458 1.368 . S
C2464 C2463 1.523 . S
C2465 C2449 1.429 . S
C2465 C2461 1.429 . S
C2465 C2466 1.523 . S
C2466 C2450 1.368 . S
C2466 C2462 1.366 1_655 S
C2466 C2465 1.523 . S
H2467 C2442 0.950 . S
H2468 C2444 0.950 . S
H2469 C2445 0.949 . S
H2470 C2447 0.950 . S
H2471 C2449 0.950 . S
C2472 C2473 1.349 . S
C2472 C2474 1.327 . S
C2472 H2497 0.950 . S
C2473 C2472 1.349 . S
C2473 C2489 1.349 . S
C2474 C2472 1.327 . S
C2474 C2493 1.429 . S
C2474 H2498 0.950 . S
C2475 C2492 1.574 1_545 S
C2475 C2494 1.368 . S
C2475 H2499 0.949 . S
H2476 C2480 0.949 . S
C2477 C2478 1.349 . S
C2477 C2479 1.327 . S
C2477 H2500 0.950 . S
C2478 C2477 1.349 . S
C2478 C2490 1.349 . S
C2479 C2477 1.327 . S
C2479 C2495 1.429 . S
C2479 H2501 0.950 . S
C2480 H2476 0.949 . S
C2480 C2488 1.574 . S
C2480 C2496 1.368 1_545 S
H2481 C2489 0.950 . S
H2482 C2487 0.950 . S
H2483 C2488 0.949 . S
H2484 C2490 0.950 . S
H2485 C2491 0.950 . S
H2486 C2492 0.949 . S
C2487 H2482 0.950 . S
C2487 C2489 1.327 . S
C2487 C2493 1.429 . S
C2488 C2480 1.574 . S
C2488 H2483 0.949 . S
C2488 C2494 1.368 . S
C2489 C2473 1.349 . S
C2489 H2481 0.950 . S
C2489 C2487 1.327 . S
C2490 C2478 1.349 . S
C2490 H2484 0.950 . S
C2490 C2491 1.327 . S
C2491 H2485 0.950 . S
C2491 C2490 1.327 . S
C2491 C2495 1.429 . S
C2492 C2475 1.574 1_565 S
C2492 H2486 0.949 . S
C2492 C2496 1.368 . S
C2493 C2474 1.429 . S
C2493 C2487 1.429 . S
C2493 C2494 1.523 . S
C2494 C2475 1.368 . S
C2494 C2488 1.368 . S
C2494 C2493 1.523 . S
C2495 C2479 1.429 . S
C2495 C2491 1.429 . S
C2495 C2496 1.523 . S
C2496 C2480 1.368 1_565 S
C2496 C2492 1.368 . S
C2496 C2495 1.523 . S
H2497 C2472 0.950 . S
H2498 C2474 0.950 . S
H2499 C2475 0.949 . S
H2500 C2477 0.950 . S
H2501 C2479 0.950 . S
C2502 C2503 1.349 . S
C2502 C2504 1.327 . S
C2502 H2527 0.950 . S
C2503 C2502 1.349 . S
C2503 C2519 1.349 . S
C2504 C2502 1.327 . S
C2504 C2523 1.429 . S
C2504 H2528 0.950 . S
C2505 C2522 1.574 1_455 S
C2505 C2524 1.368 . S
C2505 H2529 0.949 . S
H2506 C2510 0.947 1_655 S
C2507 C2508 1.349 . S
C2507 C2509 1.327 . S
C2507 H2530 0.950 . S
C2508 C2507 1.349 . S
C2508 C2520 1.349 . S
C2509 C2507 1.327 . S
C2509 C2525 1.429 . S
C2509 H2531 0.950 . S
C2510 H2506 0.947 1_455 S
C2510 C2518 1.583 . S
C2510 C2526 1.360 1_455 S
H2511 C2519 0.950 . S
H2512 C2517 0.950 . S
H2513 C2518 0.949 . S
H2514 C2520 0.950 . S
H2515 C2521 0.950 . S
H2516 C2522 0.949 . S
C2517 H2512 0.950 . S
C2517 C2519 1.327 . S
C2517 C2523 1.429 . S
C2518 C2510 1.583 . S
C2518 H2513 0.949 . S
C2518 C2524 1.368 . S
C2519 C2503 1.349 . S
C2519 H2511 0.950 . S
C2519 C2517 1.327 . S
C2520 C2508 1.349 . S
C2520 H2514 0.950 . S
C2520 C2521 1.327 . S
C2521 H2515 0.950 . S
C2521 C2520 1.327 . S
C2521 C2525 1.429 . S
C2522 C2505 1.574 1_655 S
C2522 H2516 0.949 . S
C2522 C2526 1.368 . S
C2523 C2504 1.429 . S
C2523 C2517 1.429 . S
C2523 C2524 1.523 . S
C2524 C2505 1.368 . S
C2524 C2518 1.368 . S
C2524 C2523 1.523 . S
C2525 C2509 1.429 . S
C2525 C2521 1.429 . S
C2525 C2526 1.523 . S
C2526 C2510 1.360 1_655 S
C2526 C2522 1.368 . S
C2526 C2525 1.523 . S
H2527 C2502 0.950 . S
H2528 C2504 0.950 . S
H2529 C2505 0.949 . S
H2530 C2507 0.950 . S
H2531 C2509 0.950 . S
C2532 C2533 1.349 . S
C2532 C2534 1.327 . S
C2532 H2557 0.950 . S
C2533 C2532 1.349 . S
C2533 C2549 1.349 . S
C2534 C2532 1.327 . S
C2534 C2553 1.429 . S
C2534 H2558 0.950 . S
C2535 C2552 1.574 . S
C2535 C2554 1.368 . S
C2535 H2559 0.949 . S
H2536 C2540 0.949 . S
C2537 C2538 1.349 . S
C2537 C2539 1.327 . S
C2537 H2560 0.950 . S
C2538 C2537 1.349 . S
C2538 C2550 1.349 . S
C2539 C2537 1.327 . S
C2539 C2555 1.429 . S
C2539 H2561 0.950 . S
C2540 H2536 0.949 . S
C2540 C2548 1.574 . S
C2540 C2556 1.368 . S
H2541 C2549 0.950 . S
H2542 C2547 0.950 . S
H2543 C2548 0.949 . S
H2544 C2550 0.950 . S
H2545 C2551 0.950 . S
H2546 C2552 0.949 . S
C2547 H2542 0.950 . S
C2547 C2549 1.327 . S
C2547 C2553 1.429 . S
C2548 C2540 1.574 . S
C2548 H2543 0.949 . S
C2548 C2554 1.368 . S
C2549 C2533 1.349 . S
C2549 H2541 0.950 . S
C2549 C2547 1.327 . S
C2550 C2538 1.349 . S
C2550 H2544 0.950 . S
C2550 C2551 1.327 . S
C2551 H2545 0.950 . S
C2551 C2550 1.327 . S
C2551 C2555 1.429 . S
C2552 C2535 1.574 . S
C2552 H2546 0.949 . S
C2552 C2556 1.368 . S
C2553 C2534 1.429 . S
C2553 C2547 1.429 . S
C2553 C2554 1.523 . S
C2554 C2535 1.368 . S
C2554 C2548 1.368 . S
C2554 C2553 1.523 . S
C2555 C2539 1.429 . S
C2555 C2551 1.429 . S
C2555 C2556 1.523 . S
C2556 C2540 1.368 . S
C2556 C2552 1.368 . S
C2556 C2555 1.523 . S
H2557 C2532 0.950 . S
H2558 C2534 0.950 . S
H2559 C2535 0.949 . S
H2560 C2537 0.950 . S
H2561 C2539 0.950 . S
C2562 C2563 1.349 . S
C2562 C2564 1.327 . S
C2562 H2587 0.950 . S
C2563 C2562 1.349 . S
C2563 C2579 1.349 . S
C2564 C2562 1.327 . S
C2564 C2583 1.429 . S
C2564 H2588 0.950 . S
C2565 C2582 1.574 . S
C2565 C2584 1.368 . S
C2565 H2589 0.949 . S
H2566 C2570 0.949 . S
C2567 C2568 1.349 . S
C2567 C2569 1.327 . S
C2567 H2590 0.950 . S
C2568 C2567 1.349 . S
C2568 C2580 1.349 . S
C2569 C2567 1.327 . S
C2569 C2585 1.429 . S
C2569 H2591 0.950 . S
C2570 H2566 0.949 . S
C2570 C2578 1.574 . S
C2570 C2586 1.368 . S
H2571 C2579 0.950 . S
H2572 C2577 0.950 . S
H2573 C2578 0.949 . S
H2574 C2580 0.950 . S
H2575 C2581 0.950 . S
H2576 C2582 0.949 . S
C2577 H2572 0.950 . S
C2577 C2579 1.327 . S
C2577 C2583 1.429 . S
C2578 C2570 1.574 . S
C2578 H2573 0.949 . S
C2578 C2584 1.368 . S
C2579 C2563 1.349 . S
C2579 H2571 0.950 . S
C2579 C2577 1.327 . S
C2580 C2568 1.349 . S
C2580 H2574 0.950 . S
C2580 C2581 1.327 . S
C2581 H2575 0.950 . S
C2581 C2580 1.327 . S
C2581 C2585 1.429 . S
C2582 C2565 1.574 . S
C2582 H2576 0.949 . S
C2582 C2586 1.368 . S
C2583 C2564 1.429 . S
C2583 C2577 1.429 . S
C2583 C2584 1.523 . S
C2584 C2565 1.368 . S
C2584 C2578 1.368 . S
C2584 C2583 1.523 . S
C2585 C2569 1.429 . S
C2585 C2581 1.429 . S
C2585 C2586 1.523 . S
C2586 C2570 1.368 . S
C2586 C2582 1.368 . S
C2586 C2585 1.523 . S
H2587 C2562 0.950 . S
H2588 C2564 0.950 . S
H2589 C2565 0.949 . S
H2590 C2567 0.950 . S
H2591 C2569 0.950 . S
C2592 C2593 1.349 . S
C2592 C2594 1.327 . S
C2592 H2617 0.950 . S
C2593 C2592 1.349 . S
C2593 C2609 1.349 . S
C2594 C2592 1.327 . S
C2594 C2613 1.429 . S
C2594 H2618 0.950 . S
C2595 C2612 1.574 . S
C2595 C2614 1.368 . S
C2595 H2619 0.949 . S
H2596 C2600 0.949 . S
C2597 C2598 1.349 . S
C2597 C2599 1.327 . S
C2597 H2620 0.950 . S
C2598 C2597 1.349 . S
C2598 C2610 1.349 . S
C2599 C2597 1.327 . S
C2599 C2615 1.429 . S
C2599 H2621 0.950 . S
C2600 H2596 0.949 . S
C2600 C2608 1.574 . S
C2600 C2616 1.368 . S
H2601 C2609 0.950 . S
H2602 C2607 0.950 . S
H2603 C2608 0.949 . S
H2604 C2610 0.950 . S
H2605 C2611 0.950 . S
H2606 C2612 0.949 . S
C2607 H2602 0.950 . S
C2607 C2609 1.327 . S
C2607 C2613 1.429 . S
C2608 C2600 1.574 . S
C2608 H2603 0.949 . S
C2608 C2614 1.368 . S
C2609 C2593 1.349 . S
C2609 H2601 0.950 . S
C2609 C2607 1.327 . S
C2610 C2598 1.349 . S
C2610 H2604 0.950 . S
C2610 C2611 1.327 . S
C2611 H2605 0.950 . S
C2611 C2610 1.327 . S
C2611 C2615 1.429 . S
C2612 C2595 1.574 . S
C2612 H2606 0.949 . S
C2612 C2616 1.368 . S
C2613 C2594 1.429 . S
C2613 C2607 1.429 . S
C2613 C2614 1.523 . S
C2614 C2595 1.368 . S
C2614 C2608 1.368 . S
C2614 C2613 1.523 . S
C2615 C2599 1.429 . S
C2615 C2611 1.429 . S
C2615 C2616 1.523 . S
C2616 C2600 1.368 . S
C2616 C2612 1.368 . S
C2616 C2615 1.523 . S
H2617 C2592 0.950 . S
H2618 C2594 0.950 . S
H2619 C2595 0.949 . S
H2620 C2597 0.950 . S
H2621 C2599 0.950 . S
C2622 C2623 1.349 . S
C2622 C2624 1.327 . S
C2622 H2647 0.950 . S
C2623 C2622 1.349 . S
C2623 C2639 1.349 . S
C2624 C2622 1.327 . S
C2624 C2643 1.429 . S
C2624 H2648 0.950 . S
C2625 C2642 1.574 . S
C2625 C2644 1.368 1_556 S
C2625 H2649 0.949 . S
H2626 C2630 0.949 . S
C2627 C2628 1.349 . S
C2627 C2629 1.327 . S
C2627 H2650 0.950 . S
C2628 C2627 1.349 . S
C2628 C2640 1.349 . S
C2629 C2627 1.327 . S
C2629 C2645 1.429 . S
C2629 H2651 0.950 . S
C2630 H2626 0.949 . S
C2630 C2638 1.574 . S
C2630 C2646 1.368 1_554 S
H2631 C2639 0.950 . S
H2632 C2637 0.950 . S
H2633 C2638 0.949 . S
H2634 C2640 0.950 . S
H2635 C2641 0.950 . S
H2636 C2642 0.949 . S
C2637 H2632 0.950 . S
C2637 C2639 1.327 . S
C2637 C2643 1.429 . S
C2638 C2630 1.574 . S
C2638 H2633 0.949 . S
C2638 C2644 1.368 . S
C2639 C2623 1.349 . S
C2639 H2631 0.950 . S
C2639 C2637 1.327 . S
C2640 C2628 1.349 . S
C2640 H2634 0.950 . S
C2640 C2641 1.327 . S
C2641 H2635 0.950 . S
C2641 C2640 1.327 . S
C2641 C2645 1.429 . S
C2642 C2625 1.574 . S
C2642 H2636 0.949 . S
C2642 C2646 1.368 . S
C2643 C2624 1.429 . S
C2643 C2637 1.429 . S
C2643 C2644 1.523 . S
C2644 C2625 1.368 1_554 S
C2644 C2638 1.368 . S
C2644 C2643 1.523 . S
C2645 C2629 1.429 . S
C2645 C2641 1.429 . S
C2645 C2646 1.523 . S
C2646 C2630 1.368 1_556 S
C2646 C2642 1.368 . S
C2646 C2645 1.523 . S
H2647 C2622 0.950 . S
H2648 C2624 0.950 . S
H2649 C2625 0.949 . S
H2650 C2627 0.950 . S
H2651 C2629 0.950 . S
C2652 C2653 1.349 . S
C2652 C2654 1.327 . S
C2652 H2677 0.950 . S
C2653 C2652 1.349 . S
C2653 C2669 1.349 . S
C2654 C2652 1.327 . S
C2654 C2673 1.429 . S
C2654 H2678 0.950 . S
C2655 C2672 1.574 . S
C2655 C2674 1.368 . S
C2655 H2679 0.949 . S
H2656 C2660 0.949 . S
C2657 C2658 1.349 . S
C2657 C2659 1.327 . S
C2657 H2680 0.950 . S
C2658 C2657 1.349 . S
C2658 C2670 1.349 . S
C2659 C2657 1.327 . S
C2659 C2675 1.429 . S
C2659 H2681 0.950 . S
C2660 H2656 0.949 . S
C2660 C2668 1.574 . S
C2660 C2676 1.368 . S
H2661 C2669 0.950 . S
H2662 C2667 0.950 . S
H2663 C2668 0.949 . S
H2664 C2670 0.950 . S
H2665 C2671 0.950 . S
H2666 C2672 0.949 . S
C2667 H2662 0.950 . S
C2667 C2669 1.327 . S
C2667 C2673 1.429 . S
C2668 C2660 1.574 . S
C2668 H2663 0.949 . S
C2668 C2674 1.368 . S
C2669 C2653 1.349 . S
C2669 H2661 0.950 . S
C2669 C2667 1.327 . S
C2670 C2658 1.349 . S
C2670 H2664 0.950 . S
C2670 C2671 1.327 . S
C2671 H2665 0.950 . S
C2671 C2670 1.327 . S
C2671 C2675 1.429 . S
C2672 C2655 1.574 . S
C2672 H2666 0.949 . S
C2672 C2676 1.368 . S
C2673 C2654 1.429 . S
C2673 C2667 1.429 . S
C2673 C2674 1.523 . S
C2674 C2655 1.368 . S
C2674 C2668 1.368 . S
C2674 C2673 1.523 . S
C2675 C2659 1.429 . S
C2675 C2671 1.429 . S
C2675 C2676 1.523 . S
C2676 C2660 1.368 . S
C2676 C2672 1.368 . S
C2676 C2675 1.523 . S
H2677 C2652 0.950 . S
H2678 C2654 0.950 . S
H2679 C2655 0.949 . S
H2680 C2657 0.950 . S
H2681 C2659 0.950 . S
C2682 C2683 1.349 . S
C2682 C2684 1.327 . S
C2682 H2707 0.950 . S
C2683 C2682 1.349 . S
C2683 C2699 1.349 . S
C2684 C2682 1.327 . S
C2684 C2703 1.429 . S
C2684 H2708 0.950 . S
C2685 C2702 1.574 1_554 S
C2685 C2704 1.368 . S
C2685 H2709 0.949 . S
H2686 C2690 0.949 . S
C2687 C2688 1.349 . S
C2687 C2689 1.327 . S
C2687 H2710 0.950 . S
C2688 C2687 1.349 . S
C2688 C2700 1.349 . S
C2689 C2687 1.327 . S
C2689 C2705 1.429 . S
C2689 H2711 0.950 . S
C2690 H2686 0.949 . S
C2690 C2698 1.574 . S
C2690 C2706 1.368 . S
H2691 C2699 0.950 . S
H2692 C2697 0.950 . S
H2693 C2698 0.949 . S
H2694 C2700 0.950 . S
H2695 C2701 0.950 . S
H2696 C2702 0.953 . S
C2697 H2692 0.950 . S
C2697 C2699 1.327 . S
C2697 C2703 1.429 . S
C2698 C2690 1.574 . S
C2698 H2693 0.949 . S
C2698 C2704 1.368 1_556 S
C2699 C2683 1.349 . S
C2699 H2691 0.950 . S
C2699 C2697 1.327 . S
C2700 C2688 1.349 . S
C2700 H2694 0.950 . S
C2700 C2701 1.327 . S
C2701 H2695 0.950 . S
C2701 C2700 1.327 . S
C2701 C2705 1.429 . S
C2702 C2685 1.574 1_556 S
C2702 H2696 0.953 . S
C2702 C2706 1.368 . S
C2703 C2684 1.429 . S
C2703 C2697 1.429 . S
C2703 C2704 1.523 . S
C2704 C2685 1.368 . S
C2704 C2698 1.368 1_554 S
C2704 C2703 1.523 . S
C2705 C2689 1.429 . S
C2705 C2701 1.429 . S
C2705 C2706 1.523 . S
C2706 C2690 1.368 . S
C2706 C2702 1.368 . S
C2706 C2705 1.523 . S
H2707 C2682 0.950 . S
H2708 C2684 0.950 . S
H2709 C2685 0.949 . S
H2710 C2687 0.950 . S
H2711 C2689 0.950 . S
C1273 C241 1.454 . S
C1278 C29 1.455 . S
C1303 C92 1.466 . S
C1308 C304 1.471 . S
C1333 C347 1.535 . S
C1338 C135 1.535 . S
C1363 C410 1.589 . S
C1368 C198 1.582 . S
C1393 C771 1.273 . S
C1398 C463 1.281 . S
C1423 C824 1.299 . S
C1428 C506 1.295 . S
C1453 C569 1.500 . S
C1458 C675 1.508 . S
C1483 C718 1.324 . S
C1488 C612 1.328 . S
C1513 C877 1.257 . S
C1518 C1142 1.264 . S
C1543 C940 1.586 . S
C1548 C1036 1.577 . S
C1573 C983 1.506 . S
C1578 C1089 1.508 . S
C1603 C1195 1.419 . S
C1608 C1248 1.422 . S
C1633 C188 1.744 . S
C1638 C294 1.738 . S
C1663 C39 2.059 . S
C1668 C357 2.059 . S
C1693 C400 1.760 . S
C1698 C82 1.768 . S
C1723 C145 2.092 . S
C1728 C251 2.093 . S
C1753 C1258 2.148 . S
C1758 C993 2.153 . S
C1783 C1046 2.372 . S
C1788 C1152 2.362 . S
C1813 C1099 2.173 . S
C1818 C1205 2.178 . S
C1843 C930 2.039 . S
C1848 C887 2.042 . S
C1873 C622 2.142 . S
C1878 C516 2.145 . S
C1903 C834 2.220 . S
C1908 C728 2.221 . S
C1933 C665 1.998 . S
C1938 C781 1.999 . S
C1963 C559 1.649 . S
C1968 C453 1.641 . S
C1993 C1188 1.643 . S
C1998 C22 1.646 . S
C2023 C870 1.405 . S
C2028 C91 1.397 . S
C2053 C1241 1.686 . S
C2058 C128 1.685 . S
C2083 C1135 1.489 . S
C2088 C197 1.481 . S
C2113 C976 1.628 . S
C2118 C234 1.630 . S
C2143 C303 1.483 . S
C2148 C1029 1.488 . S
C2173 C1082 1.720 . S
C2178 C340 1.718 . S
C2203 C939 1.469 . S
C2208 C409 1.473 . S
C2233 C711 1.397 . S
C2238 C462 1.390 . S
C2263 C764 1.404 . S
C2268 C499 1.405 . S
C2293 C817 1.279 . S
C2298 C568 1.272 . S
C2323 C605 1.373 . S
C2328 C674 1.369 . S
C2353 C287 1.717 . S
C2358 C552 1.723 . S
C2383 C356 1.989 . S
C2388 C621 1.989 . S
C2413 C446 1.731 . S
C2418 C393 1.733 . S
C2443 C250 1.938 . S
C2448 C515 1.940 . S
C2473 C780 1.784 . S
C2478 C181 1.780 . S
C2503 C38 1.935 . S
C2508 C833 1.935 . S
C2533 C658 1.719 . S
C2538 C75 1.723 . S
C2563 C144 1.990 . S
C2568 C727 1.993 . S
C2593 C923 2.037 . S
C2598 C1257 2.042 . S
C2623 C1151 2.086 . S
C2628 C992 2.088 . S
C2653 C1204 2.135 . S
C2658 C1045 2.138 . S
C2683 C886 2.076 . S
C2688 C1098 2.072 . S
