# Generated by pormake.
# Topology pbp, (3)-cn, num edge types: 1
# Building blocks:
#     Node 0, Type 0, BuildingBlock: WUSLED_clean_sbu_0, # of connection points: 3
#     Node 1, Type 0, BuildingBlock: WUSLED_clean_sbu_0, # of connection points: 3
#     Node 2, Type 0, BuildingBlock: WUSLED_clean_sbu_0, # of connection points: 3
#     Node 3, Type 0, BuildingBlock: WUSLED_clean_sbu_0, # of connection points: 3
#     Node 4, Type 0, BuildingBlock: WUSLED_clean_sbu_0, # of connection points: 3
#     Node 5, Type 0, BuildingBlock: WUSLED_clean_sbu_0, # of connection points: 3
#     Node 6, Type 0, BuildingBlock: WUSLED_clean_sbu_0, # of connection points: 3
#     Node 7, Type 0, BuildingBlock: WUSLED_clean_sbu_0, # of connection points: 3
#     Node 8, Type 0, BuildingBlock: WUSLED_clean_sbu_0, # of connection points: 3
#     Node 9, Type 0, BuildingBlock: WUSLED_clean_sbu_0, # of connection points: 3
#     Node 10, Type 0, BuildingBlock: WUSLED_clean_sbu_0, # of connection points: 3
#     Node 11, Type 0, BuildingBlock: WUSLED_clean_sbu_0, # of connection points: 3
#     Node 12, Type 0, BuildingBlock: WUSLED_clean_sbu_0, # of connection points: 3
#     Node 13, Type 0, BuildingBlock: WUSLED_clean_sbu_0, # of connection points: 3
#     Node 14, Type 0, BuildingBlock: WUSLED_clean_sbu_0, # of connection points: 3
#     Node 15, Type 0, BuildingBlock: WUSLED_clean_sbu_0, # of connection points: 3
#     Node 16, Type 0, BuildingBlock: WUSLED_clean_sbu_0, # of connection points: 3
#     Node 17, Type 0, BuildingBlock: WUSLED_clean_sbu_0, # of connection points: 3
#     Node 18, Type 0, BuildingBlock: WUSLED_clean_sbu_0, # of connection points: 3
#     Node 19, Type 0, BuildingBlock: WUSLED_clean_sbu_0, # of connection points: 3
#     Node 20, Type 0, BuildingBlock: WUSLED_clean_sbu_0, # of connection points: 3
#     Node 21, Type 0, BuildingBlock: WUSLED_clean_sbu_0, # of connection points: 3
#     Node 22, Type 0, BuildingBlock: WUSLED_clean_sbu_0, # of connection points: 3
#     Node 23, Type 0, BuildingBlock: WUSLED_clean_sbu_0, # of connection points: 3
#     Node 24, Type 0, BuildingBlock: WUSLED_clean_sbu_0, # of connection points: 3
#     Node 25, Type 0, BuildingBlock: WUSLED_clean_sbu_0, # of connection points: 3
#     Node 26, Type 0, BuildingBlock: WUSLED_clean_sbu_0, # of connection points: 3
#     Node 27, Type 0, BuildingBlock: WUSLED_clean_sbu_0, # of connection points: 3
#     Node 28, Type 0, BuildingBlock: WUSLED_clean_sbu_0, # of connection points: 3
#     Node 29, Type 0, BuildingBlock: WUSLED_clean_sbu_0, # of connection points: 3
#     Node 30, Type 0, BuildingBlock: WUSLED_clean_sbu_0, # of connection points: 3
#     Node 31, Type 0, BuildingBlock: WUSLED_clean_sbu_0, # of connection points: 3
#     Node 32, Type 0, BuildingBlock: WUSLED_clean_sbu_0, # of connection points: 3
#     Node 33, Type 0, BuildingBlock: WUSLED_clean_sbu_0, # of connection points: 3
#     Node 34, Type 0, BuildingBlock: WUSLED_clean_sbu_0, # of connection points: 3
#     Node 35, Type 0, BuildingBlock: WUSLED_clean_sbu_0, # of connection points: 3
#     Node 36, Type 0, BuildingBlock: WUSLED_clean_sbu_0, # of connection points: 3
#     Node 37, Type 0, BuildingBlock: WUSLED_clean_sbu_0, # of connection points: 3
#     Node 38, Type 0, BuildingBlock: WUSLED_clean_sbu_0, # of connection points: 3
#     Node 39, Type 0, BuildingBlock: WUSLED_clean_sbu_0, # of connection points: 3
#     Node 40, Type 0, BuildingBlock: WUSLED_clean_sbu_0, # of connection points: 3
#     Node 41, Type 0, BuildingBlock: WUSLED_clean_sbu_0, # of connection points: 3
#     Node 42, Type 0, BuildingBlock: WUSLED_clean_sbu_0, # of connection points: 3
#     Node 43, Type 0, BuildingBlock: WUSLED_clean_sbu_0, # of connection points: 3
#     Node 44, Type 0, BuildingBlock: WUSLED_clean_sbu_0, # of connection points: 3
#     Node 45, Type 0, BuildingBlock: WUSLED_clean_sbu_0, # of connection points: 3
#     Node 46, Type 0, BuildingBlock: WUSLED_clean_sbu_0, # of connection points: 3
#     Node 47, Type 0, BuildingBlock: WUSLED_clean_sbu_0, # of connection points: 3
#     Edge 48, Type (0, 0), BuildingBlock: TEMPAE_clean_linker_10, # of connection points: 2
#     Edge 49, Type (0, 0), BuildingBlock: TEMPAE_clean_linker_10, # of connection points: 2
#     Edge 50, Type (0, 0), BuildingBlock: TEMPAE_clean_linker_10, # of connection points: 2
#     Edge 51, Type (0, 0), BuildingBlock: TEMPAE_clean_linker_10, # of connection points: 2
#     Edge 52, Type (0, 0), BuildingBlock: TEMPAE_clean_linker_10, # of connection points: 2
#     Edge 53, Type (0, 0), BuildingBlock: TEMPAE_clean_linker_10, # of connection points: 2
#     Edge 54, Type (0, 0), BuildingBlock: TEMPAE_clean_linker_10, # of connection points: 2
#     Edge 55, Type (0, 0), BuildingBlock: TEMPAE_clean_linker_10, # of connection points: 2
#     Edge 56, Type (0, 0), BuildingBlock: TEMPAE_clean_linker_10, # of connection points: 2
#     Edge 57, Type (0, 0), BuildingBlock: TEMPAE_clean_linker_10, # of connection points: 2
#     Edge 58, Type (0, 0), BuildingBlock: TEMPAE_clean_linker_10, # of connection points: 2
#     Edge 59, Type (0, 0), BuildingBlock: TEMPAE_clean_linker_10, # of connection points: 2
#     Edge 60, Type (0, 0), BuildingBlock: TEMPAE_clean_linker_10, # of connection points: 2
#     Edge 61, Type (0, 0), BuildingBlock: TEMPAE_clean_linker_10, # of connection points: 2
#     Edge 62, Type (0, 0), BuildingBlock: TEMPAE_clean_linker_10, # of connection points: 2
#     Edge 63, Type (0, 0), BuildingBlock: TEMPAE_clean_linker_10, # of connection points: 2
#     Edge 64, Type (0, 0), BuildingBlock: TEMPAE_clean_linker_10, # of connection points: 2
#     Edge 65, Type (0, 0), BuildingBlock: TEMPAE_clean_linker_10, # of connection points: 2
#     Edge 66, Type (0, 0), BuildingBlock: TEMPAE_clean_linker_10, # of connection points: 2
#     Edge 67, Type (0, 0), BuildingBlock: TEMPAE_clean_linker_10, # of connection points: 2
#     Edge 68, Type (0, 0), BuildingBlock: TEMPAE_clean_linker_10, # of connection points: 2
#     Edge 69, Type (0, 0), BuildingBlock: TEMPAE_clean_linker_10, # of connection points: 2
#     Edge 70, Type (0, 0), BuildingBlock: TEMPAE_clean_linker_10, # of connection points: 2
#     Edge 71, Type (0, 0), BuildingBlock: TEMPAE_clean_linker_10, # of connection points: 2
#     Edge 72, Type (0, 0), BuildingBlock: TEMPAE_clean_linker_10, # of connection points: 2
#     Edge 73, Type (0, 0), BuildingBlock: TEMPAE_clean_linker_10, # of connection points: 2
#     Edge 74, Type (0, 0), BuildingBlock: TEMPAE_clean_linker_10, # of connection points: 2
#     Edge 75, Type (0, 0), BuildingBlock: TEMPAE_clean_linker_10, # of connection points: 2
#     Edge 76, Type (0, 0), BuildingBlock: TEMPAE_clean_linker_10, # of connection points: 2
#     Edge 77, Type (0, 0), BuildingBlock: TEMPAE_clean_linker_10, # of connection points: 2
#     Edge 78, Type (0, 0), BuildingBlock: TEMPAE_clean_linker_10, # of connection points: 2
#     Edge 79, Type (0, 0), BuildingBlock: TEMPAE_clean_linker_10, # of connection points: 2
#     Edge 80, Type (0, 0), BuildingBlock: TEMPAE_clean_linker_10, # of connection points: 2
#     Edge 81, Type (0, 0), BuildingBlock: TEMPAE_clean_linker_10, # of connection points: 2
#     Edge 82, Type (0, 0), BuildingBlock: TEMPAE_clean_linker_10, # of connection points: 2
#     Edge 83, Type (0, 0), BuildingBlock: TEMPAE_clean_linker_10, # of connection points: 2
#     Edge 84, Type (0, 0), BuildingBlock: TEMPAE_clean_linker_10, # of connection points: 2
#     Edge 85, Type (0, 0), BuildingBlock: TEMPAE_clean_linker_10, # of connection points: 2
#     Edge 86, Type (0, 0), BuildingBlock: TEMPAE_clean_linker_10, # of connection points: 2
#     Edge 87, Type (0, 0), BuildingBlock: TEMPAE_clean_linker_10, # of connection points: 2
#     Edge 88, Type (0, 0), BuildingBlock: TEMPAE_clean_linker_10, # of connection points: 2
#     Edge 89, Type (0, 0), BuildingBlock: TEMPAE_clean_linker_10, # of connection points: 2
#     Edge 90, Type (0, 0), BuildingBlock: TEMPAE_clean_linker_10, # of connection points: 2
#     Edge 91, Type (0, 0), BuildingBlock: TEMPAE_clean_linker_10, # of connection points: 2
#     Edge 92, Type (0, 0), BuildingBlock: TEMPAE_clean_linker_10, # of connection points: 2
#     Edge 93, Type (0, 0), BuildingBlock: TEMPAE_clean_linker_10, # of connection points: 2
#     Edge 94, Type (0, 0), BuildingBlock: TEMPAE_clean_linker_10, # of connection points: 2
#     Edge 95, Type (0, 0), BuildingBlock: TEMPAE_clean_linker_10, # of connection points: 2
#     Edge 96, Type (0, 0), BuildingBlock: TEMPAE_clean_linker_10, # of connection points: 2
#     Edge 97, Type (0, 0), BuildingBlock: TEMPAE_clean_linker_10, # of connection points: 2
#     Edge 98, Type (0, 0), BuildingBlock: TEMPAE_clean_linker_10, # of connection points: 2
#     Edge 99, Type (0, 0), BuildingBlock: TEMPAE_clean_linker_10, # of connection points: 2
#     Edge 100, Type (0, 0), BuildingBlock: TEMPAE_clean_linker_10, # of connection points: 2
#     Edge 101, Type (0, 0), BuildingBlock: TEMPAE_clean_linker_10, # of connection points: 2
#     Edge 102, Type (0, 0), BuildingBlock: TEMPAE_clean_linker_10, # of connection points: 2
#     Edge 103, Type (0, 0), BuildingBlock: TEMPAE_clean_linker_10, # of connection points: 2
#     Edge 104, Type (0, 0), BuildingBlock: TEMPAE_clean_linker_10, # of connection points: 2
#     Edge 105, Type (0, 0), BuildingBlock: TEMPAE_clean_linker_10, # of connection points: 2
#     Edge 106, Type (0, 0), BuildingBlock: TEMPAE_clean_linker_10, # of connection points: 2
#     Edge 107, Type (0, 0), BuildingBlock: TEMPAE_clean_linker_10, # of connection points: 2
#     Edge 108, Type (0, 0), BuildingBlock: TEMPAE_clean_linker_10, # of connection points: 2
#     Edge 109, Type (0, 0), BuildingBlock: TEMPAE_clean_linker_10, # of connection points: 2
#     Edge 110, Type (0, 0), BuildingBlock: TEMPAE_clean_linker_10, # of connection points: 2
#     Edge 111, Type (0, 0), BuildingBlock: TEMPAE_clean_linker_10, # of connection points: 2
#     Edge 112, Type (0, 0), BuildingBlock: TEMPAE_clean_linker_10, # of connection points: 2
#     Edge 113, Type (0, 0), BuildingBlock: TEMPAE_clean_linker_10, # of connection points: 2
#     Edge 114, Type (0, 0), BuildingBlock: TEMPAE_clean_linker_10, # of connection points: 2
#     Edge 115, Type (0, 0), BuildingBlock: TEMPAE_clean_linker_10, # of connection points: 2
#     Edge 116, Type (0, 0), BuildingBlock: TEMPAE_clean_linker_10, # of connection points: 2
#     Edge 117, Type (0, 0), BuildingBlock: TEMPAE_clean_linker_10, # of connection points: 2
#     Edge 118, Type (0, 0), BuildingBlock: TEMPAE_clean_linker_10, # of connection points: 2
#     Edge 119, Type (0, 0), BuildingBlock: TEMPAE_clean_linker_10, # of connection points: 2
# Relax obj value: 0.000
# Max RMSD: 0.009
# Mean RMSD: 0.006
data_MOF--net-pbp--node1-WUSLED_clean_sbu_0--edge1-TEMPAE_clean_linker_10
_symmetry_space_group_name_H-M    P1
_symmetry_Int_Tables_number       1
_symmetry_cell_setting            triclinic
loop_
_symmetry_equiv_pos_as_xyz
'x, y, z'
_cell_length_a     128.1512
_cell_length_b     128.10411
_cell_length_c     128.05709
_cell_angle_alpha  90.010755
_cell_angle_beta   89.989811
_cell_angle_gamma 90.680528
loop_
_atom_site_label
_atom_site_type_symbol
_atom_site_fract_x
_atom_site_fract_y
_atom_site_fract_z
_atom_type_partial_charge
C0 C 0.10677 0.29266 0.33521 0.0
C1 C 0.11628 0.28967 0.3307 0.0
C2 C 0.12158 0.28133 0.34702 0.0
C3 C 0.1236 0.28404 0.33653 0.0
C4 C 0.1121 0.28449 0.35151 0.0
C5 C 0.1048 0.29007 0.34567 0.0
U6 U 0.09731 0.31188 0.31395 0.0
O7 O 0.08425 0.31011 0.3028 0.0
O8 O 0.08412 0.32276 0.31434 0.0
C9 C 0.07894 0.31779 0.30694 0.0
C10 C 0.0986 0.2981 0.32914 0.0
C11 C 0.06755 0.31597 0.30853 0.0
C12 C 0.05171 0.3169 0.31912 0.0
C13 C 0.06263 0.31765 0.3182 0.0
C14 C 0.05043 0.31257 0.30079 0.0
C15 C 0.04543 0.31449 0.31038 0.0
C16 C 0.06131 0.31332 0.29988 0.0
C17 C 0.11893 0.32667 0.29781 0.0
C18 C 0.11849 0.34281 0.28771 0.0
C19 C 0.13341 0.33149 0.2864 0.0
C20 C 0.12872 0.32455 0.29346 0.0
C21 C 0.12842 0.34076 0.28345 0.0
C22 C 0.11379 0.33583 0.29482 0.0
C23 C 0.11473 0.31946 0.30585 0.0
O24 O 0.09774 0.30818 0.33079 0.0
O25 O 0.09771 0.29555 0.31923 0.0
O26 O 0.11016 0.31084 0.30252 0.0
O27 O 0.11 0.32363 0.31392 0.0
H28 H 0.11802 0.2916 0.32264 0.0
H29 H 0.13085 0.28184 0.33284 0.0
H30 H 0.1102 0.28245 0.3595 0.0
H31 H 0.09751 0.29225 0.34931 0.0
H32 H 0.04817 0.31852 0.32662 0.0
H33 H 0.06718 0.31976 0.32503 0.0
H34 H 0.04592 0.31052 0.29392 0.0
H35 H 0.06486 0.31203 0.29231 0.0
H36 H 0.11434 0.3498 0.28554 0.0
H37 H 0.14112 0.3297 0.28347 0.0
H38 H 0.13288 0.31759 0.29572 0.0
H39 H 0.10622 0.33764 0.29806 0.0
C40 C 0.68059 0.11234 0.29297 0.0
C41 C 0.67459 0.11992 0.29811 0.0
C42 C 0.66889 0.12707 0.28137 0.0
C43 C 0.6688 0.12717 0.29237 0.0
C44 C 0.6751 0.11964 0.27628 0.0
C45 C 0.68083 0.11236 0.28201 0.0
U46 U 0.69997 0.10199 0.31376 0.0
O47 O 0.69812 0.08872 0.32461 0.0
O48 O 0.71062 0.08863 0.31292 0.0
C49 C 0.70565 0.08336 0.32025 0.0
C50 C 0.68605 0.10395 0.29878 0.0
C51 C 0.70366 0.07199 0.3185 0.0
C52 C 0.70651 0.05587 0.30871 0.0
C53 C 0.7073 0.06679 0.30954 0.0
C54 C 0.69823 0.0551 0.32566 0.0
C55 C 0.70212 0.04984 0.31685 0.0
C56 C 0.69903 0.066 0.32648 0.0
C57 C 0.71523 0.12288 0.33047 0.0
C58 C 0.73249 0.12385 0.3385 0.0
C59 C 0.71905 0.13576 0.34401 0.0
C60 C 0.71209 0.13113 0.33692 0.0
C61 C 0.7294 0.13227 0.34484 0.0
C62 C 0.72548 0.1192 0.33139 0.0
C63 C 0.70789 0.11905 0.32232 0.0
O64 O 0.69609 0.10298 0.29698 0.0
O65 O 0.68359 0.10269 0.30867 0.0
O66 O 0.6992 0.11456 0.32554 0.0
O67 O 0.71188 0.11452 0.31403 0.0
H68 H 0.67423 0.12015 0.30655 0.0
H69 H 0.66422 0.13286 0.29657 0.0
H70 H 0.67527 0.11923 0.26783 0.0
H71 H 0.68531 0.10657 0.27784 0.0
H72 H 0.70968 0.05212 0.30185 0.0
H73 H 0.71103 0.07111 0.30327 0.0
H74 H 0.69465 0.05078 0.33201 0.0
H75 H 0.69624 0.06972 0.33353 0.0
H76 H 0.74034 0.12086 0.33901 0.0
H77 H 0.7164 0.14231 0.3486 0.0
H78 H 0.70427 0.1342 0.33628 0.0
H79 H 0.72815 0.11287 0.32651 0.0
C80 C 0.90374 0.72842 0.33553 0.0
C81 C 0.89303 0.72661 0.33392 0.0
C82 C 0.88874 0.74004 0.3468 0.0
C83 C 0.8856 0.73236 0.33952 0.0
C84 C 0.8995 0.74173 0.34839 0.0
C85 C 0.90689 0.73599 0.34282 0.0
U86 U 0.91332 0.70847 0.31488 0.0
O87 O 0.92671 0.70996 0.30412 0.0
O88 O 0.92645 0.69755 0.3159 0.0
C89 C 0.9319 0.70239 0.30861 0.0
C90 C 0.91182 0.72264 0.32973 0.0
C91 C 0.94326 0.70426 0.31058 0.0
C92 C 0.95931 0.70035 0.32007 0.0
C93 C 0.94842 0.69953 0.31903 0.0
C94 C 0.96017 0.71076 0.30436 0.0
C95 C 0.96537 0.70587 0.31268 0.0
C96 C 0.9493 0.70993 0.30331 0.0
C97 C 0.8924 0.69325 0.29819 0.0
C98 C 0.88982 0.67555 0.29149 0.0
C99 C 0.88075 0.68992 0.28347 0.0
C100 C 0.88551 0.69685 0.29051 0.0
C101 C 0.88271 0.67914 0.28393 0.0
C102 C 0.8946 0.68251 0.29854 0.0
C103 C 0.89622 0.70069 0.30631 0.0
O104 O 0.91239 0.71258 0.33158 0.0
O105 O 0.91284 0.72495 0.31978 0.0
O106 O 0.90085 0.70929 0.30302 0.0
O107 O 0.90056 0.69679 0.31473 0.0
H108 H 0.89043 0.72081 0.32831 0.0
H109 H 0.87739 0.7309 0.33801 0.0
H110 H 0.90225 0.74743 0.35403 0.0
H111 H 0.91511 0.73749 0.34422 0.0
H112 H 0.96299 0.69658 0.32666 0.0
H113 H 0.94409 0.695 0.32474 0.0
H114 H 0.96454 0.71495 0.29842 0.0
H115 H 0.94563 0.7135 0.2966 0.0
H116 H 0.89163 0.66733 0.29201 0.0
H117 H 0.87522 0.69299 0.27789 0.0
H118 H 0.88354 0.70505 0.29014 0.0
H119 H 0.89985 0.67945 0.30439 0.0
C120 C 0.28922 0.90687 0.33422 0.0
C121 C 0.27908 0.9039 0.33109 0.0
C122 C 0.2773 0.89214 0.34603 0.0
C123 C 0.27323 0.89662 0.33687 0.0
C124 C 0.28749 0.89502 0.3491 0.0
C125 C 0.29335 0.9023 0.3433 0.0
U126 U 0.30914 0.91786 0.31389 0.0
O127 O 0.30774 0.9315 0.30352 0.0
O128 O 0.3201 0.93121 0.31534 0.0
C129 C 0.31531 0.93674 0.30817 0.0
C130 C 0.29496 0.91541 0.32863 0.0
C131 C 0.31358 0.94801 0.31048 0.0
C132 C 0.30377 0.96409 0.30804 0.0
C133 C 0.30463 0.95322 0.30695 0.0
C134 C 0.32067 0.96479 0.31639 0.0
C135 C 0.31186 0.97007 0.31262 0.0
C136 C 0.32153 0.95394 0.3153 0.0
C137 C 0.32444 0.89755 0.29689 0.0
C138 C 0.34217 0.89566 0.2902 0.0
C139 C 0.32803 0.88573 0.28241 0.0
C140 C 0.32099 0.89032 0.28936 0.0
C141 C 0.33875 0.8882 0.28282 0.0
C142 C 0.33511 0.90028 0.29716 0.0
C143 C 0.31695 0.90112 0.30497 0.0
O144 O 0.305 0.91648 0.33055 0.0
O145 O 0.29265 0.91685 0.31873 0.0
O146 O 0.30842 0.90568 0.30168 0.0
O147 O 0.32079 0.90537 0.31352 0.0
H148 H 0.27555 0.9074 0.32427 0.0
H149 H 0.26537 0.89474 0.33434 0.0
H150 H 0.29094 0.89167 0.35603 0.0
H151 H 0.30106 0.90447 0.34606 0.0
H152 H 0.29691 0.96786 0.30493 0.0
H153 H 0.29839 0.94897 0.30308 0.0
H154 H 0.327 0.96906 0.3201 0.0
H155 H 0.32858 0.95022 0.318 0.0
H156 H 0.35034 0.89789 0.29067 0.0
H157 H 0.32509 0.87993 0.27697 0.0
H158 H 0.31285 0.88796 0.28906 0.0
H159 H 0.33804 0.9058 0.30289 0.0
C160 C 0.10606 0.68424 0.72648 0.0
C161 C 0.11574 0.68871 0.72925 0.0
C162 C 0.12093 0.67248 0.7378 0.0
C163 C 0.12309 0.6829 0.73488 0.0
C164 C 0.11127 0.66804 0.73486 0.0
C165 C 0.10394 0.67385 0.72929 0.0
U166 U 0.09627 0.7047 0.70649 0.0
O167 O 0.08262 0.70381 0.69607 0.0
O168 O 0.08349 0.71604 0.70803 0.0
C169 C 0.07782 0.71156 0.7007 0.0
C170 C 0.09786 0.69025 0.72103 0.0
C171 C 0.06647 0.71023 0.70282 0.0
C172 C 0.0507 0.69947 0.70459 0.0
C173 C 0.0616 0.70036 0.70353 0.0
C174 C 0.04938 0.71828 0.70443 0.0
C175 C 0.04442 0.70843 0.70496 0.0
C176 C 0.06024 0.71916 0.70337 0.0
C177 C 0.11717 0.7197 0.68963 0.0
C178 C 0.12004 0.73749 0.68329 0.0
C179 C 0.12841 0.72307 0.67459 0.0
C180 C 0.12369 0.7161 0.68162 0.0
C181 C 0.12677 0.73389 0.67539 0.0
C182 C 0.1153 0.73049 0.69033 0.0
C183 C 0.11338 0.71218 0.69767 0.0
O184 O 0.09743 0.7003 0.72307 0.0
O185 O 0.09643 0.68809 0.71109 0.0
O186 O 0.10843 0.70378 0.69431 0.0
O187 O 0.10936 0.716 0.70629 0.0
H188 H 0.1176 0.69671 0.72715 0.0
H189 H 0.13048 0.68655 0.73689 0.0
H190 H 0.10925 0.66011 0.73708 0.0
H191 H 0.09651 0.67024 0.72729 0.0
H192 H 0.0472 0.69176 0.70511 0.0
H193 H 0.06619 0.69332 0.70313 0.0
H194 H 0.04485 0.72537 0.70454 0.0
H195 H 0.06377 0.72686 0.70274 0.0
H196 H 0.11849 0.74574 0.68407 0.0
H197 H 0.13363 0.71999 0.66873 0.0
H198 H 0.1254 0.70786 0.68098 0.0
H199 H 0.11035 0.73355 0.69643 0.0
C200 C 0.28864 0.11181 0.68359 0.0
C201 C 0.28775 0.12203 0.68743 0.0
C202 C 0.27725 0.12694 0.67226 0.0
C203 C 0.28209 0.12952 0.68183 0.0
C204 C 0.27827 0.11669 0.66845 0.0
C205 C 0.28389 0.10923 0.67405 0.0
U206 U 0.30836 0.10191 0.70425 0.0
O207 O 0.30692 0.08838 0.71482 0.0
O208 O 0.31934 0.08882 0.70305 0.0
C209 C 0.31454 0.08328 0.71029 0.0
C210 C 0.29425 0.1036 0.6894 0.0
C211 C 0.3129 0.07193 0.70815 0.0
C212 C 0.30331 0.05554 0.71096 0.0
C213 C 0.30406 0.06645 0.71188 0.0
C214 C 0.3201 0.05531 0.70238 0.0
C215 C 0.31141 0.04978 0.70635 0.0
C216 C 0.32085 0.0662 0.7033 0.0
C217 C 0.32398 0.12254 0.72095 0.0
C218 C 0.32733 0.13023 0.73811 0.0
C219 C 0.34127 0.12945 0.72543 0.0
C220 C 0.33448 0.12456 0.71831 0.0
C221 C 0.33775 0.13254 0.73537 0.0
C222 C 0.32054 0.12534 0.731 0.0
C223 C 0.31634 0.1189 0.71291 0.0
O224 O 0.3043 0.10288 0.68754 0.0
O225 O 0.29191 0.10255 0.69934 0.0
O226 O 0.30773 0.11428 0.7162 0.0
O227 O 0.32007 0.11465 0.70436 0.0
H228 H 0.29138 0.12421 0.69476 0.0
H229 H 0.28158 0.13735 0.68495 0.0
H230 H 0.27454 0.11434 0.66122 0.0
H231 H 0.28444 0.10138 0.67096 0.0
H232 H 0.29654 0.05158 0.71421 0.0
H233 H 0.29783 0.07055 0.71579 0.0
H234 H 0.32642 0.05121 0.69863 0.0
H235 H 0.32782 0.07013 0.70045 0.0
H236 H 0.32436 0.13235 0.74573 0.0
H237 H 0.34919 0.1312 0.72298 0.0
H238 H 0.33738 0.12271 0.7106 0.0
H239 H 0.31249 0.12405 0.73328 0.0
C240 C 0.90425 0.33673 0.72606 0.0
C241 C 0.89388 0.33312 0.72679 0.0
C242 C 0.88924 0.34826 0.73742 0.0
C243 C 0.88646 0.33882 0.73243 0.0
C244 C 0.89964 0.35184 0.73657 0.0
C245 C 0.90704 0.34614 0.73097 0.0
U246 U 0.91355 0.31566 0.70657 0.0
O247 O 0.92663 0.31636 0.69535 0.0
O248 O 0.9267 0.30481 0.70799 0.0
C249 C 0.93193 0.3091 0.70023 0.0
C250 C 0.91236 0.33079 0.72045 0.0
C251 C 0.94333 0.31109 0.70176 0.0
C252 C 0.95939 0.30928 0.71188 0.0
C253 C 0.94848 0.30843 0.71108 0.0
C254 C 0.96026 0.31566 0.69414 0.0
C255 C 0.96547 0.31277 0.70337 0.0
C256 C 0.94937 0.3148 0.69334 0.0
C257 C 0.89179 0.29934 0.69204 0.0
C258 C 0.89163 0.28982 0.67553 0.0
C259 C 0.8772 0.28783 0.68758 0.0
C260 C 0.88214 0.2947 0.69454 0.0
C261 C 0.88178 0.2854 0.67791 0.0
C262 C 0.89658 0.29676 0.68252 0.0
C263 C 0.89611 0.30735 0.69925 0.0
O264 O 0.9132 0.32089 0.72295 0.0
O265 O 0.91308 0.33245 0.71035 0.0
O266 O 0.90078 0.31553 0.69507 0.0
O267 O 0.90077 0.30399 0.70774 0.0
H268 H 0.89154 0.32588 0.72303 0.0
H269 H 0.87851 0.33587 0.7328 0.0
H270 H 0.90215 0.35897 0.74042 0.0
H271 H 0.915 0.34906 0.73054 0.0
H272 H 0.96309 0.30688 0.71908 0.0
H273 H 0.94412 0.30543 0.7177 0.0
H274 H 0.96461 0.31854 0.68747 0.0
H275 H 0.94568 0.31683 0.68602 0.0
H276 H 0.89537 0.28814 0.66814 0.0
H277 H 0.86973 0.28445 0.68978 0.0
H278 H 0.87829 0.29657 0.70183 0.0
H279 H 0.90401 0.30026 0.6804 0.0
C280 C 0.68106 0.9087 0.72706 0.0
C281 C 0.68258 0.89797 0.72551 0.0
C282 C 0.66954 0.89381 0.73892 0.0
C283 C 0.67686 0.89059 0.73138 0.0
C284 C 0.66804 0.90459 0.74033 0.0
C285 C 0.67373 0.91193 0.73448 0.0
U286 U 0.70149 0.91758 0.70652 0.0
O287 O 0.70081 0.93072 0.69546 0.0
O288 O 0.71302 0.9305 0.70745 0.0
C289 C 0.70859 0.93581 0.69991 0.0
C290 C 0.68703 0.91669 0.72115 0.0
C291 C 0.70725 0.94718 0.7017 0.0
C292 C 0.69644 0.96251 0.7045 0.0
C293 C 0.69744 0.95162 0.70361 0.0
C294 C 0.71502 0.96465 0.70181 0.0
C295 C 0.70521 0.9692 0.70347 0.0
C296 C 0.71601 0.95381 0.70092 0.0
C297 C 0.71608 0.89547 0.69128 0.0
C298 C 0.73085 0.89674 0.67932 0.0
C299 C 0.72258 0.87997 0.68254 0.0
C300 C 0.71553 0.88471 0.68934 0.0
C301 C 0.7304 0.88588 0.67748 0.0
C302 C 0.72377 0.90149 0.68619 0.0
C303 C 0.70864 0.89994 0.69886 0.0
O304 O 0.69708 0.91732 0.72316 0.0
O305 O 0.68491 0.91743 0.71114 0.0
O306 O 0.7005 0.90477 0.69502 0.0
O307 O 0.71263 0.90462 0.7071 0.0
H308 H 0.68821 0.89531 0.71983 0.0
H309 H 0.67831 0.88238 0.73013 0.0
H310 H 0.66237 0.90739 0.74592 0.0
H311 H 0.6724 0.92017 0.73577 0.0
H312 H 0.68875 0.9657 0.70572 0.0
H313 H 0.69054 0.9467 0.70424 0.0
H314 H 0.72198 0.96948 0.70117 0.0
H315 H 0.72366 0.95059 0.69947 0.0
H316 H 0.7368 0.90153 0.67561 0.0
H317 H 0.72183 0.87165 0.68118 0.0
H318 H 0.70964 0.87991 0.69315 0.0
H319 H 0.72434 0.90982 0.6876 0.0
C320 C 0.28861 0.11172 0.33606 0.0
C321 C 0.28782 0.122 0.33235 0.0
C322 C 0.27723 0.12678 0.3475 0.0
C323 C 0.28217 0.12945 0.338 0.0
C324 C 0.27815 0.11648 0.35118 0.0
C325 C 0.28377 0.10906 0.34553 0.0
U326 U 0.30844 0.10178 0.31546 0.0
O327 O 0.31914 0.08847 0.31661 0.0
O328 O 0.30688 0.08842 0.30469 0.0
C329 C 0.31432 0.0831 0.30926 0.0
C330 C 0.29418 0.10353 0.33018 0.0
C331 C 0.31235 0.07176 0.31126 0.0
C332 C 0.30329 0.0554 0.30697 0.0
C333 C 0.30425 0.06629 0.30612 0.0
C334 C 0.31839 0.05512 0.31825 0.0
C335 C 0.31044 0.04962 0.31293 0.0
C336 C 0.31936 0.06601 0.31739 0.0
C337 C 0.3246 0.12235 0.29919 0.0
C338 C 0.32862 0.12853 0.28157 0.0
C339 C 0.34142 0.13067 0.29529 0.0
C340 C 0.33457 0.12583 0.30237 0.0
C341 C 0.33848 0.13227 0.28482 0.0
C342 C 0.32177 0.12367 0.28866 0.0
C343 C 0.31681 0.11874 0.30711 0.0
O344 O 0.29195 0.10266 0.3202 0.0
O345 O 0.30419 0.10263 0.33214 0.0
O346 O 0.3204 0.11431 0.31563 0.0
O347 O 0.30815 0.11432 0.30368 0.0
H348 H 0.29152 0.12424 0.32507 0.0
H349 H 0.28173 0.13733 0.33497 0.0
H350 H 0.27434 0.11406 0.35834 0.0
H351 H 0.28423 0.10116 0.34852 0.0
H352 H 0.29699 0.05148 0.30285 0.0
H353 H 0.29877 0.0704 0.30121 0.0
H354 H 0.32414 0.05098 0.32279 0.0
H355 H 0.32582 0.0699 0.32129 0.0
H356 H 0.32612 0.12949 0.27356 0.0
H357 H 0.34887 0.13356 0.29813 0.0
H358 H 0.33695 0.12514 0.31046 0.0
H359 H 0.31413 0.12122 0.28592 0.0
C360 C 0.90437 0.33661 0.29327 0.0
C361 C 0.89412 0.33274 0.29217 0.0
C362 C 0.8893 0.34811 0.28196 0.0
C363 C 0.88667 0.33842 0.28655 0.0
C364 C 0.89957 0.35196 0.2832 0.0
C365 C 0.90699 0.34627 0.28878 0.0
U366 U 0.91396 0.3155 0.31261 0.0
O367 O 0.92708 0.30466 0.31097 0.0
O368 O 0.92722 0.3162 0.32361 0.0
C369 C 0.93245 0.30895 0.31864 0.0
C370 C 0.91254 0.33067 0.29879 0.0
C371 C 0.94382 0.31094 0.3169 0.0
C372 C 0.95978 0.3086 0.30673 0.0
C373 C 0.94888 0.30775 0.30769 0.0
C374 C 0.96083 0.316 0.32406 0.0
C375 C 0.96593 0.31263 0.31494 0.0
C376 C 0.94995 0.31513 0.32503 0.0
C377 C 0.89252 0.29898 0.32734 0.0
C378 C 0.89261 0.28944 0.34383 0.0
C379 C 0.87833 0.28693 0.3317 0.0
C380 C 0.88305 0.29401 0.3248 0.0
C381 C 0.88299 0.28456 0.34136 0.0
C382 C 0.89733 0.29658 0.33689 0.0
C383 C 0.89665 0.30709 0.32013 0.0
O384 O 0.91338 0.33231 0.30889 0.0
O385 O 0.91339 0.32077 0.29625 0.0
O386 O 0.90118 0.30383 0.31153 0.0
O387 O 0.90135 0.31526 0.3243 0.0
H388 H 0.89191 0.3253 0.29559 0.0
H389 H 0.87883 0.33525 0.28587 0.0
H390 H 0.90195 0.35929 0.27967 0.0
H391 H 0.91485 0.3494 0.2895 0.0
H392 H 0.96339 0.30604 0.29954 0.0
H393 H 0.94446 0.30441 0.30128 0.0
H394 H 0.96528 0.31901 0.33061 0.0
H395 H 0.94634 0.31749 0.3323 0.0
H396 H 0.89649 0.28775 0.35114 0.0
H397 H 0.87086 0.28352 0.32955 0.0
H398 H 0.87913 0.29581 0.31753 0.0
H399 H 0.90464 0.30032 0.33905 0.0
C400 C 0.68056 0.90832 0.29426 0.0
C401 C 0.68371 0.89786 0.29411 0.0
C402 C 0.66893 0.89315 0.28287 0.0
C403 C 0.67796 0.89034 0.28846 0.0
C404 C 0.66582 0.90365 0.28313 0.0
C405 C 0.67156 0.91112 0.28875 0.0
U406 U 0.70161 0.91824 0.31379 0.0
O407 O 0.71237 0.93171 0.31221 0.0
O408 O 0.70078 0.93147 0.32479 0.0
C409 C 0.70797 0.93696 0.31982 0.0
C410 C 0.68653 0.91651 0.29988 0.0
C411 C 0.70582 0.94825 0.31796 0.0
C412 C 0.70965 0.96461 0.30879 0.0
C413 C 0.71072 0.95375 0.30976 0.0
C414 C 0.69862 0.96476 0.32409 0.0
C415 C 0.70369 0.9703 0.31602 0.0
C416 C 0.6997 0.95391 0.32507 0.0
C417 C 0.71826 0.89745 0.32872 0.0
C418 C 0.72581 0.89608 0.34617 0.0
C419 C 0.73203 0.88495 0.33229 0.0
C420 C 0.72503 0.8896 0.32535 0.0
C421 C 0.73244 0.88801 0.34284 0.0
C422 C 0.7188 0.90074 0.33919 0.0
C423 C 0.71015 0.90123 0.32139 0.0
O424 O 0.68485 0.91723 0.30998 0.0
O425 O 0.69644 0.91754 0.2974 0.0
O426 O 0.7134 0.90583 0.3128 0.0
O427 O 0.70182 0.90559 0.32543 0.0
H428 H 0.69063 0.89551 0.29833 0.0
H429 H 0.68054 0.88233 0.28854 0.0
H430 H 0.65903 0.90616 0.27881 0.0
H431 H 0.66901 0.91916 0.28872 0.0
H432 H 0.71358 0.96855 0.3024 0.0
H433 H 0.7156 0.94972 0.30419 0.0
H434 H 0.69409 0.96885 0.3299 0.0
H435 H 0.69597 0.95 0.3316 0.0
H436 H 0.72599 0.89875 0.35419 0.0
H437 H 0.73687 0.87869 0.32944 0.0
H438 H 0.7247 0.88682 0.31736 0.0
H439 H 0.71367 0.90676 0.34205 0.0
C440 C 0.10595 0.68415 0.29393 0.0
C441 C 0.11592 0.68834 0.29181 0.0
C442 C 0.12075 0.67242 0.28249 0.0
C443 C 0.12323 0.68254 0.28613 0.0
C444 C 0.11078 0.66826 0.28475 0.0
C445 C 0.10349 0.67406 0.29039 0.0
U446 U 0.09679 0.70523 0.31349 0.0
O447 O 0.0837 0.71616 0.31217 0.0
O448 O 0.08373 0.70454 0.32473 0.0
C449 C 0.07845 0.71183 0.31989 0.0
C450 C 0.09789 0.69015 0.29955 0.0
C451 C 0.06704 0.70986 0.31833 0.0
C452 C 0.05094 0.71209 0.30837 0.0
C453 C 0.06185 0.71298 0.30918 0.0
C454 C 0.05015 0.70479 0.32575 0.0
C455 C 0.0449 0.70812 0.3167 0.0
C456 C 0.06104 0.70569 0.32656 0.0
C457 C 0.11877 0.72118 0.32805 0.0
C458 C 0.1176 0.73298 0.34294 0.0
C459 C 0.13412 0.7308 0.33408 0.0
C460 C 0.1294 0.72375 0.32716 0.0
C461 C 0.12832 0.73553 0.3421 0.0
C462 C 0.11287 0.72587 0.33597 0.0
C463 C 0.11435 0.71331 0.32079 0.0
O464 O 0.0971 0.68844 0.30964 0.0
O465 O 0.09709 0.70008 0.29709 0.0
O466 O 0.10964 0.7168 0.3124 0.0
O467 O 0.10959 0.70517 0.32497 0.0
H468 H 0.11803 0.6961 0.2945 0.0
H469 H 0.13086 0.68595 0.28464 0.0
H470 H 0.1085 0.66058 0.28197 0.0
H471 H 0.09584 0.67068 0.29189 0.0
H472 H 0.04721 0.71485 0.30132 0.0
H473 H 0.06617 0.71635 0.30271 0.0
H474 H 0.04584 0.70154 0.33228 0.0
H475 H 0.06476 0.7033 0.33376 0.0
H476 H 0.11286 0.73652 0.34894 0.0
H477 H 0.1424 0.73236 0.33328 0.0
H478 H 0.13412 0.72016 0.32116 0.0
H479 H 0.10464 0.72399 0.3368 0.0
C480 C 0.28997 0.90732 0.68405 0.0
C481 C 0.28522 0.89871 0.68904 0.0
C482 C 0.27806 0.89251 0.6724 0.0
C483 C 0.27934 0.89139 0.68328 0.0
C484 C 0.28305 0.90101 0.66743 0.0
C485 C 0.2889 0.90831 0.67319 0.0
U486 U 0.30975 0.91802 0.70462 0.0
O487 O 0.32033 0.93168 0.70339 0.0
O488 O 0.30813 0.93135 0.71537 0.0
C489 C 0.31548 0.93691 0.71074 0.0
C490 C 0.29549 0.9157 0.68995 0.0
C491 C 0.31337 0.94817 0.7087 0.0
C492 C 0.3041 0.96421 0.71292 0.0
C493 C 0.30522 0.95336 0.71385 0.0
C494 C 0.31912 0.96498 0.70154 0.0
C495 C 0.31112 0.97021 0.70687 0.0
C496 C 0.32025 0.95414 0.70247 0.0
C497 C 0.3262 0.89787 0.72071 0.0
C498 C 0.33074 0.89255 0.73846 0.0
C499 C 0.3427 0.88919 0.72429 0.0
C500 C 0.33578 0.89387 0.71727 0.0
C501 C 0.34022 0.88831 0.73496 0.0
C502 C 0.32381 0.89724 0.73143 0.0
C503 C 0.31831 0.90133 0.71292 0.0
O504 O 0.29326 0.91664 0.69993 0.0
O505 O 0.30548 0.91701 0.68794 0.0
O506 O 0.32181 0.90588 0.70438 0.0
O507 O 0.30966 0.9055 0.71643 0.0
H508 H 0.28588 0.89772 0.69741 0.0
H509 H 0.27555 0.88502 0.68741 0.0
H510 H 0.28242 0.90206 0.65906 0.0
H511 H 0.29247 0.91487 0.66915 0.0
H512 H 0.29776 0.96792 0.71705 0.0
H513 H 0.29983 0.94909 0.71882 0.0
H514 H 0.32478 0.96931 0.69693 0.0
H515 H 0.32674 0.95047 0.69856 0.0
H516 H 0.3286 0.89214 0.74663 0.0
H517 H 0.34983 0.8859 0.72125 0.0
H518 H 0.33778 0.89401 0.70905 0.0
H519 H 0.31647 0.90011 0.73438 0.0
C520 C 0.10672 0.29112 0.68569 0.0
C521 C 0.11717 0.29455 0.68525 0.0
C522 C 0.12174 0.27953 0.67441 0.0
C523 C 0.1246 0.28882 0.67965 0.0
C524 C 0.11126 0.27613 0.67498 0.0
C525 C 0.10386 0.28186 0.68054 0.0
U526 U 0.09705 0.31215 0.70514 0.0
O527 O 0.08389 0.32295 0.70347 0.0
O528 O 0.08369 0.31132 0.71601 0.0
C529 C 0.07847 0.31858 0.71106 0.0
C530 C 0.09858 0.29709 0.69121 0.0
C531 C 0.06711 0.31659 0.70921 0.0
C532 C 0.05104 0.31997 0.69954 0.0
C533 C 0.06193 0.32082 0.70051 0.0
C534 C 0.05021 0.31048 0.71583 0.0
C535 C 0.04499 0.31489 0.70725 0.0
C536 C 0.06109 0.31136 0.71682 0.0
C537 C 0.11794 0.32879 0.72043 0.0
C538 C 0.12082 0.33523 0.73817 0.0
C539 C 0.12931 0.34387 0.72363 0.0
C540 C 0.12456 0.33679 0.71673 0.0
C541 C 0.12763 0.34312 0.73447 0.0
C542 C 0.11603 0.32815 0.73124 0.0
C543 C 0.11415 0.32065 0.713 0.0
O544 O 0.09767 0.29538 0.70128 0.0
O545 O 0.09782 0.30701 0.68874 0.0
O546 O 0.10976 0.3239 0.70433 0.0
O547 O 0.10958 0.31228 0.71691 0.0
H548 H 0.11955 0.30167 0.68919 0.0
H549 H 0.1326 0.29163 0.67949 0.0
H550 H 0.10869 0.26914 0.67092 0.0
H551 H 0.09584 0.27909 0.68073 0.0
H552 H 0.04735 0.32335 0.69275 0.0
H553 H 0.06626 0.32501 0.69454 0.0
H554 H 0.04584 0.30664 0.72201 0.0
H555 H 0.06476 0.30817 0.72372 0.0
H556 H 0.11922 0.33448 0.74644 0.0
H557 H 0.13461 0.34972 0.72048 0.0
H558 H 0.12631 0.33739 0.70847 0.0
H559 H 0.11103 0.32205 0.73438 0.0
C560 C 0.67995 0.11143 0.72622 0.0
C561 C 0.68449 0.11701 0.73457 0.0
C562 C 0.66811 0.12607 0.73788 0.0
C563 C 0.67866 0.12425 0.7403 0.0
C564 C 0.66366 0.12062 0.7294 0.0
C565 C 0.66947 0.11338 0.7237 0.0
U566 U 0.70017 0.10076 0.7063 0.0
O567 O 0.71058 0.08725 0.70761 0.0
O568 O 0.69856 0.08746 0.69542 0.0
C569 C 0.70589 0.08205 0.70005 0.0
C570 C 0.68565 0.10297 0.72069 0.0
C571 C 0.70375 0.07071 0.70169 0.0
C572 C 0.70374 0.055 0.71252 0.0
C573 C 0.70468 0.06591 0.71152 0.0
C574 C 0.7007 0.05353 0.69394 0.0
C575 C 0.70186 0.04863 0.70371 0.0
C576 C 0.70165 0.06439 0.69295 0.0
C577 C 0.71638 0.12126 0.68991 0.0
C578 C 0.73396 0.12733 0.68534 0.0
C579 C 0.71978 0.12985 0.6732 0.0
C580 C 0.71288 0.12495 0.68019 0.0
C581 C 0.73038 0.13129 0.67575 0.0
C582 C 0.72704 0.12243 0.69235 0.0
C583 C 0.70867 0.11763 0.69789 0.0
O584 O 0.68358 0.10171 0.71071 0.0
O585 O 0.69561 0.10184 0.72287 0.0
O586 O 0.71225 0.11317 0.7064 0.0
O587 O 0.69999 0.11325 0.69447 0.0
H588 H 0.69249 0.11563 0.73686 0.0
H589 H 0.68235 0.12819 0.74683 0.0
H590 H 0.65562 0.1219 0.72718 0.0
H591 H 0.66568 0.10916 0.71739 0.0
H592 H 0.70455 0.05156 0.72019 0.0
H593 H 0.70633 0.07053 0.71842 0.0
H594 H 0.69941 0.04894 0.68695 0.0
H595 H 0.70103 0.06785 0.68526 0.0
H596 H 0.74204 0.12838 0.68764 0.0
H597 H 0.71675 0.13265 0.66583 0.0
H598 H 0.7047 0.12434 0.67809 0.0
H599 H 0.73001 0.11987 0.69983 0.0
C600 C 0.90226 0.72755 0.68586 0.0
C601 C 0.89656 0.72286 0.67767 0.0
C602 C 0.88745 0.73918 0.67422 0.0
C603 C 0.88925 0.7286 0.67194 0.0
C604 C 0.89306 0.74381 0.6825 0.0
C605 C 0.90039 0.73809 0.68819 0.0
U606 U 0.91284 0.70712 0.70557 0.0
O607 O 0.92639 0.69678 0.70421 0.0
O608 O 0.926 0.70855 0.71665 0.0
C609 C 0.93145 0.70129 0.71196 0.0
C610 C 0.91072 0.7219 0.69143 0.0
C611 C 0.94282 0.70335 0.71058 0.0
C612 C 0.95857 0.70437 0.69984 0.0
C613 C 0.94765 0.70354 0.70071 0.0
C614 C 0.96001 0.70506 0.71866 0.0
C615 C 0.96493 0.70497 0.70882 0.0
C616 C 0.94913 0.70425 0.71951 0.0
C617 C 0.89231 0.69021 0.72111 0.0
C618 C 0.88858 0.68472 0.73901 0.0
C619 C 0.8817 0.67462 0.72457 0.0
C620 C 0.88651 0.68154 0.71753 0.0
C621 C 0.8825 0.67622 0.73542 0.0
C622 C 0.89341 0.69164 0.73196 0.0
C623 C 0.89593 0.69824 0.71347 0.0
O624 O 0.91175 0.7238 0.70148 0.0
O625 O 0.91206 0.71201 0.68909 0.0
O626 O 0.90053 0.69491 0.70494 0.0
O627 O 0.90018 0.70686 0.71719 0.0
H628 H 0.89782 0.71479 0.67556 0.0
H629 H 0.88501 0.72472 0.6657 0.0
H630 H 0.89201 0.75197 0.6844 0.0
H631 H 0.90475 0.742 0.69432 0.0
H632 H 0.96205 0.70422 0.69214 0.0
H633 H 0.94302 0.70281 0.69367 0.0
H634 H 0.96458 0.7057 0.72574 0.0
H635 H 0.94564 0.70408 0.72722 0.0
H636 H 0.88948 0.68613 0.7473 0.0
H637 H 0.87699 0.66826 0.72148 0.0
H638 H 0.88537 0.68031 0.70923 0.0
H639 H 0.89776 0.69825 0.73503 0.0
C640 C 0.28986 0.33508 0.112 0.0
C641 C 0.28518 0.32999 0.12056 0.0
C642 C 0.27827 0.34654 0.12695 0.0
C643 C 0.27944 0.33566 0.12794 0.0
C644 C 0.28316 0.35161 0.11847 0.0
C645 C 0.28884 0.34595 0.11109 0.0
U646 U 0.3091 0.31436 0.10143 0.0
O647 O 0.3073 0.30378 0.08795 0.0
O648 O 0.31989 0.3155 0.08803 0.0
C649 C 0.31486 0.3083 0.08261 0.0
C650 C 0.2953 0.32928 0.1036 0.0
C651 C 0.31294 0.31047 0.07131 0.0
C652 C 0.30374 0.30652 0.05503 0.0
C653 C 0.3047 0.30552 0.0659 0.0
C654 C 0.31912 0.3176 0.05468 0.0
C655 C 0.31102 0.31246 0.04922 0.0
C656 C 0.32009 0.31659 0.06554 0.0
C657 C 0.32438 0.29754 0.12191 0.0
C658 C 0.34203 0.29083 0.12394 0.0
C659 C 0.32782 0.28305 0.13376 0.0
C660 C 0.32086 0.29001 0.12911 0.0
C661 C 0.33854 0.28346 0.13137 0.0
C662 C 0.33504 0.2978 0.11927 0.0
C663 C 0.31699 0.30563 0.11828 0.0
O664 O 0.30536 0.33111 0.1026 0.0
O665 O 0.29276 0.31938 0.10239 0.0
O666 O 0.30831 0.30236 0.11381 0.0
O667 O 0.32093 0.31408 0.11389 0.0
H668 H 0.28584 0.32163 0.1215 0.0
H669 H 0.27591 0.33151 0.13443 0.0
H670 H 0.28234 0.35994 0.11737 0.0
H671 H 0.29231 0.35005 0.10453 0.0
H672 H 0.29732 0.30254 0.05115 0.0
H673 H 0.2991 0.30064 0.07002 0.0
H674 H 0.32497 0.32212 0.0505 0.0
H675 H 0.32666 0.32035 0.06939 0.0
H676 H 0.35019 0.29129 0.12179 0.0
H677 H 0.32483 0.27761 0.13953 0.0
H678 H 0.31272 0.28971 0.13141 0.0
H679 H 0.33803 0.30352 0.11378 0.0
C680 C 0.28885 0.68521 0.90768 0.0
C681 C 0.28495 0.6901 0.89868 0.0
C682 C 0.27721 0.6736 0.89268 0.0
C683 C 0.27917 0.68436 0.89128 0.0
C684 C 0.28133 0.66872 0.9016 0.0
C685 C 0.28705 0.67446 0.909 0.0
U686 U 0.3086 0.70594 0.91815 0.0
O687 O 0.30685 0.71691 0.93131 0.0
O688 O 0.31904 0.70506 0.93179 0.0
C689 C 0.31418 0.71247 0.9369 0.0
C690 C 0.29432 0.69113 0.91606 0.0
C691 C 0.31197 0.71076 0.94821 0.0
C692 C 0.31451 0.70106 0.96445 0.0
C693 C 0.3155 0.70186 0.95355 0.0
C694 C 0.30623 0.7179 0.96492 0.0
C695 C 0.31001 0.70915 0.97032 0.0
C696 C 0.30723 0.71871 0.95405 0.0
C697 C 0.32504 0.72213 0.89774 0.0
C698 C 0.32901 0.7396 0.89105 0.0
C699 C 0.342 0.72613 0.88985 0.0
C700 C 0.33512 0.71907 0.89473 0.0
C701 C 0.33897 0.73645 0.88775 0.0
C702 C 0.32213 0.73254 0.89593 0.0
C703 C 0.31722 0.71418 0.9013 0.0
O704 O 0.30429 0.68922 0.91732 0.0
O705 O 0.29211 0.70109 0.91695 0.0
O706 O 0.3085 0.71756 0.90546 0.0
O707 O 0.32076 0.70577 0.90595 0.0
H708 H 0.28625 0.69837 0.89742 0.0
H709 H 0.27625 0.68836 0.88445 0.0
H710 H 0.27988 0.6605 0.90302 0.0
H711 H 0.28992 0.67051 0.91589 0.0
H712 H 0.31761 0.69425 0.96831 0.0
H713 H 0.31932 0.69563 0.94936 0.0
H714 H 0.30257 0.72423 0.96911 0.0
H715 H 0.30452 0.72571 0.95022 0.0
H716 H 0.32644 0.74751 0.88969 0.0
H717 H 0.34954 0.72336 0.88733 0.0
H718 H 0.33757 0.71108 0.89579 0.0
H719 H 0.3144 0.73518 0.898 0.0
C720 C 0.28841 0.33578 0.90831 0.0
C721 C 0.28821 0.33268 0.89778 0.0
C722 C 0.27646 0.34701 0.89351 0.0
C723 C 0.28229 0.33825 0.89045 0.0
C724 C 0.27684 0.35011 0.90406 0.0
C725 C 0.28274 0.34456 0.91135 0.0
U726 U 0.30901 0.31583 0.91762 0.0
O727 O 0.32011 0.3173 0.93073 0.0
O728 O 0.30818 0.3049 0.9309 0.0
C729 C 0.31565 0.30973 0.93612 0.0
C730 C 0.29431 0.32999 0.91633 0.0
C731 C 0.31397 0.31164 0.94749 0.0
C732 C 0.30411 0.30886 0.96363 0.0
C733 C 0.30495 0.30804 0.95272 0.0
C734 C 0.32118 0.31706 0.96433 0.0
C735 C 0.31229 0.31324 0.96963 0.0
C736 C 0.32202 0.31623 0.95345 0.0
C737 C 0.32509 0.30087 0.89638 0.0
C738 C 0.33334 0.2838 0.89583 0.0
C739 C 0.33815 0.29699 0.88314 0.0
C740 C 0.33114 0.30391 0.88775 0.0
C741 C 0.33931 0.28679 0.88704 0.0
C742 C 0.32631 0.29076 0.90046 0.0
C743 C 0.31712 0.30819 0.90035 0.0
O744 O 0.29237 0.31991 0.91704 0.0
O745 O 0.30429 0.33232 0.91713 0.0
O746 O 0.32057 0.31678 0.90486 0.0
O747 O 0.30883 0.30417 0.90497 0.0
H748 H 0.29254 0.32593 0.89526 0.0
H749 H 0.28213 0.33557 0.88244 0.0
H750 H 0.27264 0.3569 0.9067 0.0
H751 H 0.28282 0.34712 0.91941 0.0
H752 H 0.29719 0.30574 0.9674 0.0
H753 H 0.29863 0.30435 0.94843 0.0
H754 H 0.32757 0.32063 0.96862 0.0
H755 H 0.32911 0.31899 0.9497 0.0
H756 H 0.3341 0.27607 0.89913 0.0
H757 H 0.34244 0.29955 0.8763 0.0
H758 H 0.33027 0.31161 0.88439 0.0
H759 H 0.32174 0.28819 0.90711 0.0
C760 C 0.68079 0.29333 0.90749 0.0
C761 C 0.68573 0.28926 0.89859 0.0
C762 C 0.66922 0.28167 0.89249 0.0
C763 C 0.68001 0.28348 0.89119 0.0
C764 C 0.66429 0.28592 0.90132 0.0
C765 C 0.67002 0.29165 0.90872 0.0
U766 U 0.70125 0.31338 0.9179 0.0
O767 O 0.70019 0.32384 0.93152 0.0
O768 O 0.71227 0.31187 0.93105 0.0
C769 C 0.7077 0.31913 0.93663 0.0
C770 C 0.68669 0.29884 0.91587 0.0
C771 C 0.70601 0.31689 0.94795 0.0
C772 C 0.69614 0.3191 0.96413 0.0
C773 C 0.69696 0.32011 0.95324 0.0
C774 C 0.71327 0.31143 0.96469 0.0
C775 C 0.70436 0.3149 0.97005 0.0
C776 C 0.71409 0.31245 0.95382 0.0
C777 C 0.71681 0.33021 0.89735 0.0
C778 C 0.73469 0.33613 0.89402 0.0
C779 C 0.72027 0.34562 0.88662 0.0
C780 C 0.71323 0.33861 0.89132 0.0
C781 C 0.73111 0.34441 0.88777 0.0
C782 C 0.72763 0.32911 0.89874 0.0
C783 C 0.70916 0.32217 0.901 0.0
O784 O 0.69669 0.29681 0.91669 0.0
O785 O 0.6846 0.30877 0.9172 0.0
O786 O 0.7007 0.32552 0.90569 0.0
O787 O 0.71282 0.31358 0.90518 0.0
H788 H 0.69403 0.29045 0.8974 0.0
H789 H 0.68404 0.28044 0.88442 0.0
H790 H 0.65604 0.2846 0.90267 0.0
H791 H 0.66603 0.29464 0.91554 0.0
H792 H 0.6892 0.32196 0.96795 0.0
H793 H 0.69061 0.32368 0.94901 0.0
H794 H 0.7197 0.30801 0.96892 0.0
H795 H 0.72121 0.30999 0.95003 0.0
H796 H 0.74297 0.33502 0.89519 0.0
H797 H 0.71719 0.35178 0.88177 0.0
H798 H 0.70496 0.33957 0.88995 0.0
H799 H 0.73068 0.32269 0.90327 0.0
C800 C 0.67967 0.72575 0.90894 0.0
C801 C 0.68367 0.72747 0.89885 0.0
C802 C 0.66796 0.73702 0.89396 0.0
C803 C 0.67789 0.73308 0.89145 0.0
C804 C 0.66401 0.73517 0.90406 0.0
C805 C 0.66979 0.72962 0.91144 0.0
U806 U 0.70078 0.70653 0.91859 0.0
O807 O 0.71138 0.70806 0.93207 0.0
O808 O 0.69989 0.69524 0.93161 0.0
C809 C 0.70709 0.70015 0.9371 0.0
C810 C 0.68564 0.7202 0.91708 0.0
C811 C 0.70498 0.70153 0.94844 0.0
C812 C 0.70321 0.71239 0.96402 0.0
C813 C 0.70424 0.71143 0.95313 0.0
C814 C 0.7034 0.69359 0.9657 0.0
C815 C 0.70287 0.70347 0.97049 0.0
C816 C 0.70445 0.69265 0.95485 0.0
C817 C 0.71752 0.69203 0.89751 0.0
C818 C 0.72462 0.67455 0.89539 0.0
C819 C 0.73155 0.68884 0.88507 0.0
C820 C 0.72464 0.69567 0.88996 0.0
C821 C 0.73153 0.67814 0.88756 0.0
C822 C 0.71768 0.68141 0.90029 0.0
C823 C 0.70942 0.69926 0.90142 0.0
O824 O 0.68399 0.71008 0.91777 0.0
O825 O 0.69553 0.72284 0.91811 0.0
O826 O 0.71267 0.70782 0.90614 0.0
O827 O 0.70103 0.69512 0.90575 0.0
H828 H 0.69127 0.72453 0.89673 0.0
H829 H 0.68115 0.73424 0.88373 0.0
H830 H 0.6565 0.73821 0.90637 0.0
H831 H 0.66657 0.72843 0.91918 0.0
H832 H 0.7027 0.72012 0.96738 0.0
H833 H 0.70463 0.71844 0.94841 0.0
H834 H 0.70334 0.68655 0.97037 0.0
H835 H 0.70511 0.68493 0.95147 0.0
H836 H 0.72431 0.66636 0.89747 0.0
H837 H 0.73686 0.69195 0.87923 0.0
H838 H 0.72466 0.70381 0.88762 0.0
H839 H 0.71226 0.67833 0.90603 0.0
C840 C 0.68096 0.72649 0.11122 0.0
C841 C 0.68474 0.72809 0.12141 0.0
C842 C 0.66921 0.73811 0.12589 0.0
C843 C 0.67892 0.73384 0.12867 0.0
C844 C 0.66543 0.73629 0.11571 0.0
C845 C 0.67124 0.73057 0.10849 0.0
U846 U 0.70204 0.70706 0.10187 0.0
O847 O 0.70151 0.69625 0.08849 0.0
O848 O 0.71327 0.70882 0.08888 0.0
C849 C 0.70904 0.70116 0.08344 0.0
C850 C 0.68708 0.72094 0.10318 0.0
C851 C 0.70756 0.70301 0.07207 0.0
C852 C 0.69666 0.70394 0.05645 0.0
C853 C 0.69764 0.70314 0.06737 0.0
C854 C 0.71545 0.70472 0.05481 0.0
C855 C 0.70557 0.70457 0.05 0.0
C856 C 0.71642 0.70393 0.06568 0.0
C857 C 0.71805 0.692 0.12308 0.0
C858 C 0.72552 0.67461 0.12446 0.0
C859 C 0.73167 0.68843 0.13585 0.0
C860 C 0.72474 0.69535 0.13112 0.0
C861 C 0.73209 0.67791 0.13269 0.0
C862 C 0.71857 0.68157 0.11971 0.0
C863 C 0.71004 0.69932 0.11914 0.0
O864 O 0.69703 0.72343 0.1025 0.0
O865 O 0.68528 0.71086 0.10226 0.0
O866 O 0.70182 0.69529 0.11441 0.0
O867 O 0.71344 0.708 0.11477 0.0
H868 H 0.69224 0.72501 0.1237 0.0
H869 H 0.68213 0.73513 0.13639 0.0
H870 H 0.65792 0.73926 0.11332 0.0
H871 H 0.66815 0.7294 0.1007 0.0
H872 H 0.68892 0.70373 0.05305 0.0
H873 H 0.69065 0.70241 0.07208 0.0
H874 H 0.72248 0.7054 0.05016 0.0
H875 H 0.72415 0.70385 0.06909 0.0
H876 H 0.7257 0.66662 0.12172 0.0
H877 H 0.73647 0.69126 0.14223 0.0
H878 H 0.72442 0.70331 0.13395 0.0
H879 H 0.7135 0.67872 0.11355 0.0
C880 C 0.28883 0.68527 0.11246 0.0
C881 C 0.28434 0.69028 0.12111 0.0
C882 C 0.27717 0.67366 0.12744 0.0
C883 C 0.27856 0.68454 0.1285 0.0
C884 C 0.28187 0.66867 0.11888 0.0
C885 C 0.2876 0.67441 0.11148 0.0
U886 U 0.30815 0.7064 0.10204 0.0
O887 O 0.31895 0.70565 0.08866 0.0
O888 O 0.30635 0.71706 0.08865 0.0
C889 C 0.31393 0.71276 0.0833 0.0
C890 C 0.29431 0.69116 0.10406 0.0
C891 C 0.31197 0.71067 0.07199 0.0
C892 C 0.31608 0.7014 0.05583 0.0
C893 C 0.31698 0.70249 0.06671 0.0
C894 C 0.305 0.71652 0.05523 0.0
C895 C 0.31019 0.70849 0.04991 0.0
C896 C 0.30591 0.71762 0.06609 0.0
C897 C 0.32325 0.72342 0.12277 0.0
C898 C 0.3407 0.73117 0.12423 0.0
C899 C 0.32678 0.73739 0.13527 0.0
C900 C 0.31985 0.73026 0.13059 0.0
C901 C 0.33734 0.73787 0.13227 0.0
C902 C 0.33374 0.72402 0.11954 0.0
C903 C 0.31594 0.71516 0.119 0.0
O904 O 0.2918 0.70101 0.10287 0.0
O905 O 0.30437 0.68955 0.1031 0.0
O906 O 0.31996 0.70689 0.11453 0.0
O907 O 0.30727 0.71825 0.11453 0.0
H908 H 0.28519 0.69864 0.1221 0.0
H909 H 0.27517 0.68863 0.13505 0.0
H910 H 0.28088 0.66034 0.11772 0.0
H911 H 0.29092 0.67036 0.10486 0.0
H912 H 0.3201 0.69504 0.05204 0.0
H913 H 0.32181 0.69704 0.07093 0.0
H914 H 0.30052 0.72223 0.05096 0.0
H915 H 0.30211 0.72413 0.06985 0.0
H916 H 0.34873 0.73139 0.12161 0.0
H917 H 0.3239 0.74227 0.14152 0.0
H918 H 0.31186 0.72988 0.13333 0.0
H919 H 0.33662 0.71883 0.11354 0.0
C920 C 0.6805 0.29359 0.11268 0.0
C921 C 0.68528 0.28612 0.1191 0.0
C922 C 0.66857 0.28179 0.12737 0.0
C923 C 0.6794 0.28032 0.12635 0.0
C924 C 0.66385 0.28942 0.12108 0.0
C925 C 0.66973 0.2952 0.11382 0.0
U926 U 0.7013 0.31318 0.10186 0.0
O927 O 0.71191 0.31143 0.08842 0.0
O928 O 0.70025 0.32381 0.08837 0.0
C929 C 0.70745 0.31889 0.08302 0.0
C930 C 0.68633 0.29909 0.1042 0.0
C931 C 0.70539 0.31682 0.07173 0.0
C932 C 0.69602 0.32064 0.05556 0.0
C933 C 0.69707 0.32157 0.06644 0.0
C934 C 0.71148 0.31002 0.05498 0.0
C935 C 0.7033 0.31497 0.04964 0.0
C936 C 0.71253 0.31097 0.06584 0.0
C937 C 0.7182 0.329 0.12223 0.0
C938 C 0.72344 0.34674 0.12718 0.0
C939 C 0.73437 0.33223 0.13187 0.0
C940 C 0.72734 0.32533 0.12698 0.0
C941 C 0.73243 0.34302 0.13222 0.0
C942 C 0.7164 0.33983 0.12229 0.0
C943 C 0.71006 0.3214 0.11864 0.0
O944 O 0.68455 0.30911 0.10305 0.0
O945 O 0.69621 0.29674 0.10293 0.0
O946 O 0.71326 0.31273 0.11425 0.0
O947 O 0.70161 0.32513 0.11424 0.0
H948 H 0.69354 0.28458 0.11839 0.0
H949 H 0.68331 0.27444 0.13093 0.0
H950 H 0.65558 0.29092 0.12173 0.0
H951 H 0.66578 0.30083 0.10894 0.0
H952 H 0.68955 0.32445 0.05177 0.0
H953 H 0.69147 0.32623 0.07065 0.0
H954 H 0.71732 0.30572 0.05071 0.0
H955 H 0.71915 0.30737 0.0696 0.0
H956 H 0.72159 0.35496 0.12737 0.0
H957 H 0.74127 0.32907 0.13552 0.0
H958 H 0.72891 0.31704 0.12722 0.0
H959 H 0.70937 0.34296 0.11886 0.0
C960 C 0.60762 0.79291 0.83529 0.0
C961 C 0.61664 0.78898 0.83049 0.0
C962 C 0.62235 0.7814 0.84705 0.0
C963 C 0.62391 0.78326 0.83631 0.0
C964 C 0.61337 0.78548 0.85181 0.0
C965 C 0.60611 0.79114 0.846 0.0
U966 U 0.59805 0.81308 0.81489 0.0
O967 O 0.58485 0.812 0.80388 0.0
O968 O 0.58491 0.824 0.81608 0.0
C969 C 0.57958 0.81941 0.80856 0.0
C970 C 0.59947 0.79853 0.82934 0.0
C971 C 0.5682 0.81756 0.81042 0.0
C972 C 0.55205 0.80772 0.80721 0.0
C973 C 0.56295 0.80872 0.8064 0.0
C974 C 0.55138 0.82428 0.81621 0.0
C975 C 0.54608 0.81554 0.81202 0.0
C976 C 0.56226 0.82529 0.81538 0.0
C977 C 0.61974 0.82911 0.79991 0.0
C978 C 0.61983 0.83837 0.78325 0.0
C979 C 0.63423 0.84069 0.79529 0.0
C980 C 0.62934 0.83387 0.80233 0.0
C981 C 0.62963 0.84295 0.78558 0.0
C982 C 0.61494 0.83148 0.79034 0.0
C983 C 0.61543 0.82127 0.80729 0.0
O984 O 0.59844 0.80849 0.83149 0.0
O985 O 0.59867 0.79647 0.81931 0.0
O986 O 0.61077 0.81297 0.80331 0.0
O987 O 0.61078 0.82481 0.8157 0.0
H988 H 0.61804 0.79026 0.82225 0.0
H989 H 0.63078 0.78035 0.8324 0.0
H990 H 0.61181 0.78409 0.86001 0.0
H991 H 0.5992 0.79403 0.84987 0.0
H992 H 0.54829 0.80081 0.80401 0.0
H993 H 0.56722 0.80264 0.80244 0.0
H994 H 0.54708 0.83054 0.81984 0.0
H995 H 0.56601 0.83229 0.81839 0.0
H996 H 0.61607 0.8399 0.77584 0.0
H997 H 0.64165 0.8442 0.79745 0.0
H998 H 0.6332 0.83217 0.80966 0.0
H999 H 0.60753 0.82789 0.78827 0.0
C1000 C 0.17918 0.61155 0.79349 0.0
C1001 C 0.18364 0.62122 0.79064 0.0
C1002 C 0.16734 0.6264 0.78223 0.0
C1003 C 0.17778 0.62856 0.78505 0.0
C1004 C 0.16291 0.61675 0.78525 0.0
C1005 C 0.16876 0.60943 0.79079 0.0
U1006 U 0.19996 0.60154 0.81309 0.0
O1007 O 0.1991 0.58786 0.8235 0.0
O1008 O 0.21106 0.58861 0.81126 0.0
C1009 C 0.20662 0.58293 0.81862 0.0
C1010 C 0.18524 0.60334 0.79886 0.0
C1011 C 0.20507 0.57158 0.81644 0.0
C1012 C 0.19518 0.55525 0.81844 0.0
C1013 C 0.19589 0.56617 0.81936 0.0
C1014 C 0.21269 0.55491 0.81146 0.0
C1015 C 0.20364 0.54943 0.81465 0.0
C1016 C 0.2134 0.5658 0.81237 0.0
C1017 C 0.21564 0.62216 0.82973 0.0
C1018 C 0.23351 0.62688 0.83466 0.0
C1019 C 0.21919 0.63171 0.84589 0.0
C1020 C 0.21214 0.62695 0.83895 0.0
C1021 C 0.22997 0.63189 0.84377 0.0
C1022 C 0.22645 0.6221 0.82772 0.0
C1023 C 0.20788 0.61851 0.82183 0.0
O1024 O 0.19524 0.60281 0.79661 0.0
O1025 O 0.18327 0.60194 0.80883 0.0
O1026 O 0.19947 0.61367 0.82532 0.0
O1027 O 0.21143 0.61449 0.8131 0.0
H1028 H 0.19166 0.62307 0.79265 0.0
H1029 H 0.18143 0.63594 0.78297 0.0
H1030 H 0.15497 0.61473 0.78311 0.0
H1031 H 0.16517 0.60202 0.79284 0.0
H1032 H 0.18812 0.55134 0.82107 0.0
H1033 H 0.18934 0.57033 0.82262 0.0
H1034 H 0.21931 0.55076 0.80834 0.0
H1035 H 0.22061 0.5697 0.81014 0.0
H1036 H 0.24176 0.62674 0.83282 0.0
H1037 H 0.21613 0.6356 0.85272 0.0
H1038 H 0.20387 0.62732 0.84065 0.0
H1039 H 0.22945 0.61858 0.82066 0.0
C1040 C 0.40214 0.22728 0.83454 0.0
C1041 C 0.39861 0.23696 0.83084 0.0
C1042 C 0.3874 0.23906 0.84614 0.0
C1043 C 0.39132 0.24274 0.83653 0.0
C1044 C 0.39085 0.22931 0.84978 0.0
C1045 C 0.39813 0.22353 0.84409 0.0
U1046 U 0.41301 0.20744 0.81433 0.0
O1047 O 0.42665 0.20896 0.80393 0.0
O1048 O 0.42624 0.19665 0.81582 0.0
C1049 C 0.4318 0.20146 0.80859 0.0
C1050 C 0.41066 0.22164 0.82902 0.0
C1051 C 0.44312 0.2033 0.81079 0.0
C1052 C 0.45943 0.21285 0.80754 0.0
C1053 C 0.44855 0.21195 0.80658 0.0
C1054 C 0.45976 0.1966 0.8171 0.0
C1055 C 0.46523 0.20512 0.81269 0.0
C1056 C 0.44888 0.19568 0.81612 0.0
C1057 C 0.39263 0.19189 0.79722 0.0
C1058 C 0.38919 0.17407 0.79121 0.0
C1059 C 0.38195 0.18863 0.78175 0.0
C1060 C 0.38668 0.19557 0.78881 0.0
C1061 C 0.38299 0.17776 0.78293 0.0
C1062 C 0.39395 0.18104 0.79827 0.0
C1063 C 0.39623 0.19941 0.80536 0.0
O1064 O 0.41161 0.21161 0.83098 0.0
O1065 O 0.41221 0.22393 0.81912 0.0
O1066 O 0.40087 0.20803 0.80213 0.0
O1067 O 0.40039 0.19562 0.81393 0.0
H1068 H 0.40165 0.24022 0.82364 0.0
H1069 H 0.38901 0.25027 0.83354 0.0
H1070 H 0.38794 0.22615 0.85708 0.0
H1071 H 0.40076 0.21618 0.84727 0.0
H1072 H 0.46333 0.2196 0.80416 0.0
H1073 H 0.44443 0.21793 0.80232 0.0
H1074 H 0.46392 0.19041 0.821 0.0
H1075 H 0.445 0.18882 0.81928 0.0
H1076 H 0.39029 0.16578 0.7923 0.0
H1077 H 0.37712 0.19179 0.7756 0.0
H1078 H 0.38537 0.20386 0.78788 0.0
H1079 H 0.39842 0.17791 0.80469 0.0
C1080 C 0.79006 0.40868 0.8349 0.0
C1081 C 0.78731 0.39904 0.83039 0.0
C1082 C 0.77849 0.39361 0.84649 0.0
C1083 C 0.78156 0.39159 0.83611 0.0
C1084 C 0.78142 0.40323 0.85099 0.0
C1085 C 0.78712 0.41066 0.84526 0.0
U1086 U 0.80941 0.41884 0.81378 0.0
O1087 O 0.80787 0.43231 0.80321 0.0
O1088 O 0.82054 0.43211 0.8147 0.0
C1089 C 0.81561 0.43755 0.80757 0.0
C1090 C 0.79563 0.41697 0.82896 0.0
C1091 C 0.81402 0.44885 0.80979 0.0
C1092 C 0.80374 0.46477 0.80846 0.0
C1093 C 0.80459 0.45389 0.80744 0.0
C1094 C 0.82162 0.46582 0.81441 0.0
C1095 C 0.8123 0.47092 0.8118 0.0
C1096 C 0.82247 0.45496 0.81338 0.0
C1097 C 0.82426 0.39816 0.7969 0.0
C1098 C 0.84176 0.39679 0.78952 0.0
C1099 C 0.82781 0.38574 0.78293 0.0
C1100 C 0.82086 0.39037 0.78994 0.0
C1101 C 0.83841 0.38877 0.78271 0.0
C1102 C 0.83477 0.40143 0.79654 0.0
C1103 C 0.81692 0.40187 0.80505 0.0
O1104 O 0.80572 0.41785 0.8306 0.0
O1105 O 0.79308 0.41803 0.81907 0.0
O1106 O 0.80835 0.40641 0.80185 0.0
O1107 O 0.82096 0.40626 0.81344 0.0
H1108 H 0.78952 0.39729 0.82241 0.0
H1109 H 0.77956 0.38422 0.83243 0.0
H1110 H 0.77909 0.40515 0.85888 0.0
H1111 H 0.78912 0.41806 0.8489 0.0
H1112 H 0.79647 0.46839 0.80628 0.0
H1113 H 0.79794 0.44947 0.80455 0.0
H1114 H 0.82833 0.47022 0.81717 0.0
H1115 H 0.82986 0.45136 0.81517 0.0
H1116 H 0.84981 0.39943 0.78948 0.0
H1117 H 0.82494 0.37952 0.77794 0.0
H1118 H 0.81283 0.38761 0.79013 0.0
H1119 H 0.83766 0.40741 0.80181 0.0
C1120 C 0.60592 0.18432 0.22677 0.0
C1121 C 0.61593 0.18844 0.22879 0.0
C1122 C 0.62075 0.17248 0.23804 0.0
C1123 C 0.62326 0.18259 0.2344 0.0
C1124 C 0.61073 0.16839 0.2359 0.0
C1125 C 0.60342 0.17424 0.23034 0.0
U1126 U 0.59682 0.20482 0.20662 0.0
O1127 O 0.58343 0.20412 0.19584 0.0
O1128 O 0.58417 0.21634 0.20783 0.0
C1129 C 0.5786 0.2119 0.2004 0.0
C1130 C 0.59785 0.19037 0.22121 0.0
C1131 C 0.56721 0.21062 0.20236 0.0
C1132 C 0.5513 0.19996 0.20338 0.0
C1133 C 0.56222 0.20077 0.20251 0.0
C1134 C 0.5502 0.21877 0.20421 0.0
C1135 C 0.54511 0.20897 0.2041 0.0
C1136 C 0.56108 0.21957 0.20333 0.0
C1137 C 0.61875 0.2192 0.19054 0.0
C1138 C 0.61784 0.23468 0.17951 0.0
C1139 C 0.63372 0.22466 0.18009 0.0
C1140 C 0.62904 0.21774 0.18717 0.0
C1141 C 0.62822 0.23325 0.17614 0.0
C1142 C 0.61315 0.22771 0.18664 0.0
C1143 C 0.61439 0.21188 0.19838 0.0
O1144 O 0.5975 0.20043 0.22323 0.0
O1145 O 0.59659 0.18822 0.21125 0.0
O1146 O 0.60929 0.20366 0.1948 0.0
O1147 O 0.61005 0.21596 0.20671 0.0
H1148 H 0.61807 0.19618 0.22608 0.0
H1149 H 0.63093 0.18595 0.23579 0.0
H1150 H 0.60844 0.16072 0.23869 0.0
H1151 H 0.59574 0.17091 0.22892 0.0
H1152 H 0.54769 0.19228 0.20319 0.0
H1153 H 0.56671 0.19371 0.20174 0.0
H1154 H 0.54576 0.22588 0.20494 0.0
H1155 H 0.56471 0.22726 0.20321 0.0
H1156 H 0.61332 0.24114 0.17657 0.0
H1157 H 0.64176 0.22338 0.17787 0.0
H1158 H 0.63354 0.21128 0.19014 0.0
H1159 H 0.60519 0.229 0.18914 0.0
C1160 C 0.78871 0.61229 0.18493 0.0
C1161 C 0.78774 0.62254 0.18868 0.0
C1162 C 0.77738 0.6273 0.17337 0.0
C1163 C 0.78212 0.62997 0.18297 0.0
C1164 C 0.77849 0.61703 0.16964 0.0
C1165 C 0.78409 0.60964 0.17535 0.0
U1166 U 0.80833 0.6024 0.20574 0.0
O1167 O 0.80653 0.58915 0.21665 0.0
O1168 O 0.81891 0.58899 0.20484 0.0
C1169 C 0.81398 0.58374 0.21221 0.0
C1170 C 0.7942 0.60412 0.1909 0.0
C1171 C 0.81188 0.5724 0.21039 0.0
C1172 C 0.8143 0.5564 0.2003 0.0
C1173 C 0.81521 0.5673 0.20126 0.0
C1174 C 0.8065 0.55545 0.21747 0.0
C1175 C 0.81005 0.5503 0.20845 0.0
C1176 C 0.80744 0.56633 0.21843 0.0
C1177 C 0.82443 0.62304 0.22201 0.0
C1178 C 0.82817 0.6297 0.23952 0.0
C1179 C 0.84133 0.63113 0.22606 0.0
C1180 C 0.83454 0.6262 0.21897 0.0
C1181 C 0.83817 0.63313 0.2364 0.0
C1182 C 0.82139 0.62476 0.23243 0.0
C1183 C 0.81672 0.61938 0.21403 0.0
O1184 O 0.80422 0.60314 0.18902 0.0
O1185 O 0.79189 0.60333 0.20087 0.0
O1186 O 0.80799 0.61505 0.2174 0.0
O1187 O 0.82038 0.61483 0.2056 0.0
H1188 H 0.79127 0.62478 0.19605 0.0
H1189 H 0.78154 0.63781 0.18604 0.0
H1190 H 0.77485 0.61462 0.16239 0.0
H1191 H 0.78469 0.60177 0.17233 0.0
H1192 H 0.817 0.55274 0.19319 0.0
H1193 H 0.81874 0.57168 0.19492 0.0
H1194 H 0.80333 0.55105 0.22398 0.0
H1195 H 0.80496 0.56998 0.22563 0.0
H1196 H 0.8255 0.63097 0.24744 0.0
H1197 H 0.84891 0.63376 0.22331 0.0
H1198 H 0.8371 0.62521 0.21097 0.0
H1199 H 0.81363 0.62257 0.23505 0.0
C1200 C 0.4048 0.83598 0.22661 0.0
C1201 C 0.39427 0.83278 0.22666 0.0
C1202 C 0.38974 0.84758 0.23782 0.0
C1203 C 0.38682 0.83851 0.23223 0.0
C1204 C 0.4003 0.85074 0.23765 0.0
C1205 C 0.40772 0.84501 0.23211 0.0
U1206 U 0.41447 0.81532 0.20676 0.0
O1207 O 0.42807 0.81611 0.19626 0.0
O1208 O 0.42733 0.80411 0.20846 0.0
C1209 C 0.43298 0.80854 0.20108 0.0
C1210 C 0.41294 0.82998 0.22111 0.0
C1211 C 0.44433 0.81003 0.20321 0.0
C1212 C 0.46052 0.82027 0.20202 0.0
C1213 C 0.4496 0.81951 0.20109 0.0
C1214 C 0.4611 0.80221 0.20742 0.0
C1215 C 0.46645 0.81158 0.20505 0.0
C1216 C 0.45022 0.80145 0.20648 0.0
C1217 C 0.39369 0.79968 0.19029 0.0
C1218 C 0.38823 0.78191 0.18576 0.0
C1219 C 0.38454 0.79609 0.17392 0.0
C1220 C 0.38942 0.80313 0.1808 0.0
C1221 C 0.3837 0.78541 0.17639 0.0
C1222 C 0.39314 0.78895 0.19263 0.0
C1223 C 0.3974 0.80748 0.19815 0.0
O1224 O 0.41339 0.81997 0.22328 0.0
O1225 O 0.41416 0.83198 0.21112 0.0
O1226 O 0.40226 0.81586 0.19463 0.0
O1227 O 0.40146 0.80392 0.20687 0.0
H1228 H 0.39183 0.82584 0.22244 0.0
H1229 H 0.37876 0.83589 0.23208 0.0
H1230 H 0.4029 0.85756 0.24197 0.0
H1231 H 0.4158 0.84759 0.23222 0.0
H1232 H 0.46433 0.82759 0.20003 0.0
H1233 H 0.44535 0.82627 0.19846 0.0
H1234 H 0.46534 0.7954 0.20995 0.0
H1235 H 0.44641 0.79403 0.2081 0.0
H1236 H 0.38786 0.77373 0.18787 0.0
H1237 H 0.38104 0.79911 0.16686 0.0
H1238 H 0.38953 0.81135 0.17884 0.0
H1239 H 0.39624 0.78599 0.1999 0.0
C1240 C 0.18151 0.40682 0.22664 0.0
C1241 C 0.17572 0.3989 0.22159 0.0
C1242 C 0.17 0.39179 0.23841 0.0
C1243 C 0.17002 0.39149 0.22741 0.0
C1244 C 0.17595 0.39963 0.24342 0.0
C1245 C 0.18159 0.40705 0.23761 0.0
U1246 U 0.20114 0.41772 0.20606 0.0
O1247 O 0.19932 0.43093 0.19517 0.0
O1248 O 0.21156 0.43149 0.20712 0.0
C1249 C 0.20666 0.43658 0.19971 0.0
C1250 C 0.18692 0.41531 0.22076 0.0
C1251 C 0.20441 0.44784 0.20151 0.0
C1252 C 0.20694 0.46404 0.21137 0.0
C1253 C 0.208 0.45317 0.21047 0.0
C1254 C 0.1985 0.4645 0.1945 0.0
C1255 C 0.20233 0.46989 0.20331 0.0
C1256 C 0.19956 0.45365 0.1936 0.0
C1257 C 0.21747 0.39759 0.18982 0.0
C1258 C 0.23517 0.39232 0.1853 0.0
C1259 C 0.22103 0.38881 0.17328 0.0
C1260 C 0.21402 0.3935 0.18021 0.0
C1261 C 0.23168 0.38799 0.17579 0.0
C1262 C 0.22817 0.39702 0.19223 0.0
C1263 C 0.20971 0.40103 0.19776 0.0
O1264 O 0.1969 0.41674 0.22276 0.0
O1265 O 0.18467 0.41628 0.21079 0.0
O1266 O 0.20099 0.40511 0.19432 0.0
O1267 O 0.21327 0.40567 0.20623 0.0
H1268 H 0.17547 0.39848 0.21315 0.0
H1269 H 0.16564 0.3855 0.22328 0.0
H1270 H 0.17604 0.4002 0.25186 0.0
H1271 H 0.18589 0.41312 0.24171 0.0
H1272 H 0.21009 0.46789 0.21822 0.0
H1273 H 0.2119 0.449 0.21667 0.0
H1274 H 0.19476 0.46867 0.18821 0.0
H1275 H 0.19681 0.44984 0.18656 0.0
H1276 H 0.24333 0.39196 0.18746 0.0
H1277 H 0.21799 0.38545 0.16612 0.0
H1278 H 0.20582 0.39359 0.17818 0.0
H1279 H 0.23112 0.39995 0.19961 0.0
C1280 C 0.78741 0.61165 0.83557 0.0
C1281 C 0.78917 0.62237 0.83397 0.0
C1282 C 0.77575 0.62658 0.84687 0.0
C1283 C 0.7834 0.62977 0.83958 0.0
C1284 C 0.77411 0.6158 0.84844 0.0
C1285 C 0.77987 0.60845 0.84285 0.0
U1286 U 0.80731 0.60241 0.81478 0.0
O1287 O 0.81848 0.58946 0.8157 0.0
O1288 O 0.80602 0.58907 0.80398 0.0
C1289 C 0.81369 0.58397 0.80842 0.0
C1290 C 0.79324 0.60362 0.82975 0.0
C1291 C 0.81204 0.57259 0.81047 0.0
C1292 C 0.80247 0.55623 0.80744 0.0
C1293 C 0.80328 0.56714 0.80654 0.0
C1294 C 0.81907 0.55594 0.81638 0.0
C1295 C 0.81043 0.55045 0.81225 0.0
C1296 C 0.81988 0.56683 0.81546 0.0
C1297 C 0.82189 0.6238 0.79817 0.0
C1298 C 0.83871 0.62421 0.78923 0.0
C1299 C 0.82589 0.63737 0.7854 0.0
C1300 C 0.819 0.6327 0.79253 0.0
C1301 C 0.83588 0.63325 0.78368 0.0
C1302 C 0.83179 0.61952 0.79641 0.0
C1303 C 0.81464 0.61975 0.80628 0.0
O1304 O 0.79086 0.60255 0.81982 0.0
O1305 O 0.80333 0.60321 0.83151 0.0
O1306 O 0.81876 0.61536 0.81458 0.0
O1307 O 0.80614 0.61493 0.803 0.0
H1308 H 0.79495 0.62501 0.82835 0.0
H1309 H 0.78482 0.63798 0.83808 0.0
H1310 H 0.76842 0.61303 0.85408 0.0
H1311 H 0.77841 0.60021 0.84424 0.0
H1312 H 0.79564 0.55231 0.80427 0.0
H1313 H 0.79711 0.57125 0.80256 0.0
H1314 H 0.82543 0.55179 0.82 0.0
H1315 H 0.82683 0.57073 0.8184 0.0
H1316 H 0.84629 0.62074 0.78805 0.0
H1317 H 0.82345 0.6444 0.78144 0.0
H1318 H 0.81146 0.63621 0.79383 0.0
H1319 H 0.83422 0.61266 0.80066 0.0
C1320 C 0.40412 0.83523 0.79278 0.0
C1321 C 0.39543 0.83018 0.78824 0.0
C1322 C 0.38916 0.84677 0.78132 0.0
C1323 C 0.38806 0.83588 0.78257 0.0
C1324 C 0.39777 0.8518 0.78606 0.0
C1325 C 0.40515 0.8461 0.79169 0.0
U1326 U 0.41445 0.81438 0.81208 0.0
O1327 O 0.42753 0.80348 0.81014 0.0
O1328 O 0.42801 0.81518 0.82264 0.0
C1329 C 0.43306 0.80781 0.81767 0.0
C1330 C 0.4125 0.82937 0.79815 0.0
C1331 C 0.44442 0.80949 0.81564 0.0
C1332 C 0.46051 0.81982 0.81728 0.0
C1333 C 0.4496 0.81893 0.81813 0.0
C1334 C 0.46129 0.80197 0.81125 0.0
C1335 C 0.46654 0.81129 0.81398 0.0
C1336 C 0.45041 0.80108 0.8121 0.0
C1337 C 0.39369 0.79776 0.82766 0.0
C1338 C 0.39115 0.79117 0.84539 0.0
C1339 C 0.38197 0.78299 0.831 0.0
C1340 C 0.38674 0.79001 0.82405 0.0
C1341 C 0.38398 0.78355 0.8418 0.0
C1342 C 0.39595 0.7982 0.83841 0.0
C1343 C 0.39745 0.8059 0.82022 0.0
O1344 O 0.4137 0.83116 0.80819 0.0
O1345 O 0.41347 0.81946 0.79569 0.0
O1346 O 0.4017 0.80265 0.81147 0.0
O1347 O 0.40214 0.81423 0.82409 0.0
H1348 H 0.39439 0.82181 0.78897 0.0
H1349 H 0.38147 0.83175 0.77915 0.0
H1350 H 0.39897 0.86014 0.78519 0.0
H1351 H 0.4118 0.85018 0.79504 0.0
H1352 H 0.46425 0.8271 0.81955 0.0
H1353 H 0.44526 0.82555 0.82098 0.0
H1354 H 0.4656 0.79528 0.80851 0.0
H1355 H 0.44668 0.79369 0.8102 0.0
H1356 H 0.393 0.79176 0.85362 0.0
H1357 H 0.37639 0.77737 0.82793 0.0
H1358 H 0.38472 0.78958 0.81585 0.0
H1359 H 0.40123 0.8041 0.84147 0.0
C1360 C 0.18025 0.40779 0.79314 0.0
C1361 C 0.18452 0.39795 0.79105 0.0
C1362 C 0.16872 0.39268 0.78157 0.0
C1363 C 0.17881 0.39048 0.7853 0.0
C1364 C 0.16447 0.40251 0.78383 0.0
C1365 C 0.17018 0.40996 0.78953 0.0
U1366 U 0.2006 0.4178 0.81335 0.0
O1367 O 0.21165 0.4311 0.81212 0.0
O1368 O 0.19947 0.43114 0.82414 0.0
C1369 C 0.20697 0.43648 0.81948 0.0
C1370 C 0.18617 0.41606 0.79877 0.0
C1371 C 0.20513 0.44779 0.81739 0.0
C1372 C 0.19555 0.46386 0.82073 0.0
C1373 C 0.19653 0.453 0.82172 0.0
C1374 C 0.21164 0.46459 0.81089 0.0
C1375 C 0.20316 0.46984 0.81541 0.0
C1376 C 0.21263 0.45374 0.81191 0.0
C1377 C 0.21553 0.39663 0.82966 0.0
C1378 C 0.23293 0.39523 0.83729 0.0
C1379 C 0.21913 0.38343 0.84284 0.0
C1380 C 0.2122 0.38833 0.83604 0.0
C1381 C 0.22964 0.38668 0.84346 0.0
C1382 C 0.22595 0.40013 0.83042 0.0
C1383 C 0.20817 0.40069 0.82172 0.0
O1384 O 0.18401 0.41716 0.80874 0.0
O1385 O 0.19621 0.41685 0.79675 0.0
O1386 O 0.21213 0.40518 0.81335 0.0
O1387 O 0.19974 0.40529 0.82519 0.0
H1388 H 0.19226 0.39607 0.79379 0.0
H1389 H 0.18229 0.38296 0.78382 0.0
H1390 H 0.15681 0.40456 0.78099 0.0
H1391 H 0.16674 0.41751 0.79102 0.0
H1392 H 0.18885 0.46758 0.8242 0.0
H1393 H 0.19063 0.44873 0.82609 0.0
H1394 H 0.21774 0.46891 0.80687 0.0
H1395 H 0.21944 0.45004 0.80864 0.0
H1396 H 0.24097 0.39792 0.83752 0.0
H1397 H 0.21626 0.37702 0.84759 0.0
H1398 H 0.20422 0.38545 0.83558 0.0
H1399 H 0.22877 0.40648 0.82557 0.0
C1400 C 0.60653 0.18531 0.79187 0.0
C1401 C 0.61656 0.1837 0.79597 0.0
C1402 C 0.62145 0.17377 0.78041 0.0
C1403 C 0.62394 0.17797 0.7903 0.0
C1404 C 0.61141 0.17553 0.77635 0.0
C1405 C 0.60406 0.18122 0.78201 0.0
U1406 U 0.59683 0.20512 0.81258 0.0
O1407 O 0.5838 0.21619 0.81143 0.0
O1408 O 0.58335 0.20379 0.82322 0.0
C1409 C 0.57829 0.21145 0.81872 0.0
C1410 C 0.59839 0.19097 0.79774 0.0
C1411 C 0.56692 0.20989 0.81666 0.0
C1412 C 0.55067 0.19986 0.81857 0.0
C1413 C 0.56159 0.20062 0.81944 0.0
C1414 C 0.55017 0.21751 0.81195 0.0
C1415 C 0.54478 0.20835 0.81497 0.0
C1416 C 0.56106 0.21827 0.81282 0.0
C1417 C 0.6176 0.22067 0.82912 0.0
C1418 C 0.62258 0.23845 0.83415 0.0
C1419 C 0.62704 0.22401 0.84537 0.0
C1420 C 0.62224 0.21705 0.83837 0.0
C1421 C 0.62743 0.2348 0.84329 0.0
C1422 C 0.61774 0.23149 0.82714 0.0
C1423 C 0.6139 0.21302 0.82111 0.0
O1424 O 0.59737 0.18865 0.8077 0.0
O1425 O 0.59767 0.20102 0.79587 0.0
O1426 O 0.60964 0.21673 0.81256 0.0
O1427 O 0.60925 0.20446 0.8245 0.0
H1428 H 0.61866 0.18682 0.80355 0.0
H1429 H 0.63161 0.17688 0.79363 0.0
H1430 H 0.60912 0.1723 0.76886 0.0
H1431 H 0.59637 0.18232 0.77872 0.0
H1432 H 0.54683 0.19271 0.82107 0.0
H1433 H 0.56581 0.19404 0.82254 0.0
H1434 H 0.54596 0.22416 0.80898 0.0
H1435 H 0.56489 0.22556 0.81071 0.0
H1436 H 0.6226 0.24671 0.83233 0.0
H1437 H 0.63081 0.22087 0.85224 0.0
H1438 H 0.62245 0.20877 0.84004 0.0
H1439 H 0.61436 0.23458 0.82006 0.0
C1440 C 0.78811 0.40907 0.18653 0.0
C1441 C 0.79189 0.39889 0.18531 0.0
C1442 C 0.77652 0.394 0.17497 0.0
C1443 C 0.78616 0.39144 0.17956 0.0
C1444 C 0.77279 0.40421 0.17629 0.0
C1445 C 0.77852 0.41164 0.18199 0.0
U1446 U 0.80841 0.4188 0.20695 0.0
O1447 O 0.81925 0.43226 0.20603 0.0
O1448 O 0.80709 0.43188 0.21808 0.0
C1449 C 0.81456 0.43737 0.21357 0.0
C1450 C 0.79399 0.41723 0.19234 0.0
C1451 C 0.81259 0.4487 0.21196 0.0
C1452 C 0.8135 0.4646 0.20141 0.0
C1453 C 0.8144 0.45371 0.20233 0.0
C1454 C 0.80874 0.46567 0.21964 0.0
C1455 C 0.81081 0.47077 0.21011 0.0
C1456 C 0.80965 0.45482 0.22055 0.0
C1457 C 0.8237 0.3978 0.22299 0.0
C1458 C 0.84119 0.39674 0.23045 0.0
C1459 C 0.82757 0.38501 0.23652 0.0
C1460 C 0.82052 0.38965 0.22963 0.0
C1461 C 0.83805 0.3884 0.23696 0.0
C1462 C 0.8341 0.40139 0.22354 0.0
C1463 C 0.81622 0.40166 0.21505 0.0
O1464 O 0.79183 0.41808 0.20233 0.0
O1465 O 0.80402 0.4181 0.19032 0.0
O1466 O 0.82008 0.4063 0.20671 0.0
O1467 O 0.80769 0.40605 0.21855 0.0
H1468 H 0.79926 0.39672 0.18878 0.0
H1469 H 0.78923 0.38364 0.17881 0.0
H1470 H 0.7655 0.40654 0.17276 0.0
H1471 H 0.77547 0.41945 0.1828 0.0
H1472 H 0.81524 0.46821 0.19396 0.0
H1473 H 0.81675 0.44926 0.19555 0.0
H1474 H 0.80647 0.47009 0.22647 0.0
H1475 H 0.80825 0.45122 0.22809 0.0
H1476 H 0.84916 0.39966 0.23065 0.0
H1477 H 0.82486 0.37853 0.24127 0.0
H1478 H 0.81258 0.38664 0.22929 0.0
H1479 H 0.83681 0.40766 0.21851 0.0
C1480 C 0.60831 0.79185 0.18628 0.0
C1481 C 0.6164 0.79688 0.18071 0.0
C1482 C 0.62285 0.78008 0.17448 0.0
C1483 C 0.62358 0.79107 0.17489 0.0
C1484 C 0.6149 0.77509 0.18028 0.0
C1485 C 0.60772 0.7809 0.18606 0.0
U1486 U 0.59806 0.81221 0.20624 0.0
O1487 O 0.58502 0.82322 0.20466 0.0
O1488 O 0.58445 0.81107 0.21671 0.0
C1489 C 0.5794 0.81859 0.21195 0.0
C1490 C 0.6 0.79776 0.19175 0.0
C1491 C 0.56807 0.81685 0.20974 0.0
C1492 C 0.55181 0.80702 0.21232 0.0
C1493 C 0.56269 0.8079 0.21333 0.0
C1494 C 0.55141 0.82391 0.20393 0.0
C1495 C 0.54598 0.81507 0.20773 0.0
C1496 C 0.56228 0.8248 0.20497 0.0
C1497 C 0.61877 0.82753 0.22309 0.0
C1498 C 0.62076 0.84524 0.2299 0.0
C1499 C 0.63064 0.83121 0.23755 0.0
C1500 C 0.626 0.82415 0.23056 0.0
C1501 C 0.6282 0.84189 0.23725 0.0
C1502 C 0.61609 0.83814 0.2229 0.0
C1503 C 0.61504 0.81999 0.21505 0.0
O1504 O 0.59856 0.7956 0.20168 0.0
O1505 O 0.59928 0.80778 0.18967 0.0
O1506 O 0.6109 0.82378 0.20647 0.0
O1507 O 0.61023 0.81151 0.21842 0.0
H1508 H 0.61707 0.80532 0.18068 0.0
H1509 H 0.62952 0.79521 0.17047 0.0
H1510 H 0.61417 0.76666 0.18033 0.0
H1511 H 0.60156 0.77682 0.19025 0.0
H1512 H 0.54794 0.80003 0.21521 0.0
H1513 H 0.56684 0.80164 0.21713 0.0
H1514 H 0.54721 0.83033 0.20048 0.0
H1515 H 0.56613 0.83188 0.20229 0.0
H1516 H 0.61857 0.85337 0.22952 0.0
H1517 H 0.63643 0.82834 0.24296 0.0
H1518 H 0.6283 0.81604 0.2308 0.0
H1519 H 0.61056 0.84101 0.21722 0.0
C1520 C 0.17883 0.61178 0.22633 0.0
C1521 C 0.18357 0.62109 0.22987 0.0
C1522 C 0.16713 0.62664 0.23773 0.0
C1523 C 0.17778 0.62843 0.23553 0.0
C1524 C 0.16242 0.61737 0.23403 0.0
C1525 C 0.1682 0.61004 0.22842 0.0
U1526 U 0.19952 0.60161 0.20669 0.0
O1527 O 0.21025 0.58838 0.20833 0.0
O1528 O 0.19836 0.58812 0.19603 0.0
C1529 C 0.20569 0.58291 0.20089 0.0
C1530 C 0.18477 0.60353 0.22088 0.0
C1531 C 0.20368 0.57157 0.20288 0.0
C1532 C 0.20796 0.55538 0.21196 0.0
C1533 C 0.20882 0.56627 0.21099 0.0
C1534 C 0.19666 0.55477 0.19687 0.0
C1535 C 0.20199 0.54944 0.20483 0.0
C1536 C 0.19752 0.56566 0.19589 0.0
C1537 C 0.21569 0.62211 0.19035 0.0
C1538 C 0.2335 0.62746 0.18584 0.0
C1539 C 0.21941 0.63098 0.17385 0.0
C1540 C 0.21232 0.62624 0.18077 0.0
C1541 C 0.23008 0.63181 0.17636 0.0
C1542 C 0.2264 0.62269 0.19275 0.0
C1543 C 0.20784 0.61852 0.19821 0.0
O1544 O 0.18283 0.60231 0.21088 0.0
O1545 O 0.19474 0.60275 0.22317 0.0
O1546 O 0.2113 0.61429 0.20688 0.0
O1547 O 0.19932 0.61393 0.19466 0.0
H1548 H 0.19175 0.62265 0.22834 0.0
H1549 H 0.18164 0.63552 0.23815 0.0
H1550 H 0.1543 0.61562 0.23569 0.0
H1551 H 0.16438 0.60291 0.22584 0.0
H1552 H 0.21209 0.55159 0.21826 0.0
H1553 H 0.21374 0.5705 0.21646 0.0
H1554 H 0.19211 0.5505 0.19113 0.0
H1555 H 0.19362 0.56941 0.18943 0.0
H1556 H 0.24167 0.62782 0.18799 0.0
H1557 H 0.21643 0.63437 0.16672 0.0
H1558 H 0.20411 0.62613 0.17875 0.0
H1559 H 0.2293 0.61971 0.2001 0.0
C1560 C 0.40288 0.22659 0.18509 0.0
C1561 C 0.39842 0.22249 0.17589 0.0
C1562 C 0.38816 0.23826 0.17336 0.0
C1563 C 0.39115 0.22822 0.17013 0.0
C1564 C 0.39252 0.24231 0.18263 0.0
C1565 C 0.39981 0.23658 0.18838 0.0
U1566 U 0.41354 0.20694 0.20556 0.0
O1567 O 0.42661 0.19592 0.2042 0.0
O1568 O 0.42723 0.20844 0.21589 0.0
C1569 C 0.43224 0.20076 0.21135 0.0
C1570 C 0.41136 0.22095 0.19067 0.0
C1571 C 0.44355 0.20237 0.20907 0.0
C1572 C 0.45948 0.21306 0.20941 0.0
C1573 C 0.44859 0.21209 0.21048 0.0
C1574 C 0.46049 0.19469 0.20528 0.0
C1575 C 0.46561 0.20434 0.20691 0.0
C1576 C 0.44964 0.19372 0.20637 0.0
C1577 C 0.39289 0.19194 0.22284 0.0
C1578 C 0.39058 0.17435 0.22988 0.0
C1579 C 0.38104 0.18868 0.23742 0.0
C1580 C 0.38579 0.19556 0.23032 0.0
C1581 C 0.38325 0.17794 0.23723 0.0
C1582 C 0.39534 0.18126 0.22276 0.0
C1583 C 0.39664 0.19929 0.21463 0.0
O1584 O 0.41293 0.22338 0.20053 0.0
O1585 O 0.41219 0.21089 0.18886 0.0
O1586 O 0.40077 0.1953 0.20614 0.0
O1587 O 0.40142 0.20786 0.21778 0.0
H1588 H 0.40068 0.21489 0.17301 0.0
H1589 H 0.38788 0.22478 0.16311 0.0
H1590 H 0.39055 0.25006 0.1853 0.0
H1591 H 0.4032 0.2401 0.1953 0.0
H1592 H 0.46309 0.22065 0.21059 0.0
H1593 H 0.44417 0.21893 0.2126 0.0
H1594 H 0.46492 0.18776 0.20349 0.0
H1595 H 0.44601 0.1861 0.20537 0.0
H1596 H 0.39258 0.16617 0.22957 0.0
H1597 H 0.37534 0.19174 0.24281 0.0
H1598 H 0.38363 0.20371 0.23047 0.0
H1599 H 0.40076 0.1782 0.21707 0.0
C1600 C 0.78798 0.83481 0.61166 0.0
C1601 C 0.79149 0.83578 0.62201 0.0
C1602 C 0.77617 0.84609 0.62654 0.0
C1603 C 0.78565 0.84138 0.62938 0.0
C1604 C 0.77272 0.84504 0.61615 0.0
C1605 C 0.77855 0.83947 0.60882 0.0
U1606 U 0.8083 0.81464 0.60211 0.0
O1607 O 0.80733 0.80409 0.58855 0.0
O1608 O 0.81966 0.81608 0.58919 0.0
C1609 C 0.81507 0.80875 0.58359 0.0
C1610 C 0.79402 0.82922 0.60358 0.0
C1611 C 0.81369 0.81088 0.57223 0.0
C1612 C 0.80327 0.81045 0.55624 0.0
C1613 C 0.80402 0.80954 0.56715 0.0
C1614 C 0.82175 0.81432 0.55528 0.0
C1615 C 0.81217 0.81269 0.55011 0.0
C1616 C 0.8225 0.8134 0.56616 0.0
C1617 C 0.82297 0.79804 0.62315 0.0
C1618 C 0.84034 0.79049 0.6242 0.0
C1619 C 0.82677 0.78454 0.63598 0.0
C1620 C 0.81977 0.79145 0.63133 0.0
C1621 C 0.8372 0.78402 0.63258 0.0
C1622 C 0.83331 0.79742 0.61954 0.0
C1623 C 0.81558 0.80601 0.61928 0.0
O1624 O 0.8041 0.83123 0.60317 0.0
O1625 O 0.79176 0.81926 0.60233 0.0
O1626 O 0.80719 0.80258 0.6144 0.0
O1627 O 0.81957 0.81454 0.61509 0.0
H1628 H 0.79874 0.83222 0.6244 0.0
H1629 H 0.78851 0.84193 0.63732 0.0
H1630 H 0.76556 0.84866 0.61362 0.0
H1631 H 0.77572 0.83887 0.60087 0.0
H1632 H 0.79577 0.80906 0.55257 0.0
H1633 H 0.79707 0.80752 0.57156 0.0
H1634 H 0.82874 0.81624 0.5509 0.0
H1635 H 0.83006 0.81443 0.56983 0.0
H1636 H 0.84826 0.79022 0.62127 0.0
H1637 H 0.82406 0.77984 0.64249 0.0
H1638 H 0.81188 0.79185 0.63434 0.0
H1639 H 0.83601 0.80241 0.61324 0.0
C1640 C 0.7893 0.18582 0.40768 0.0
C1641 C 0.77934 0.1891 0.40453 0.0
C1642 C 0.77738 0.17401 0.39297 0.0
C1643 C 0.77349 0.18331 0.39726 0.0
C1644 C 0.78739 0.17078 0.39604 0.0
C1645 C 0.79325 0.17659 0.40331 0.0
U1646 U 0.80916 0.20649 0.41821 0.0
O1647 O 0.80781 0.21694 0.4318 0.0
O1648 O 0.82027 0.20537 0.43133 0.0
C1649 C 0.81547 0.21249 0.4369 0.0
C1650 C 0.79507 0.19147 0.41613 0.0
C1651 C 0.81387 0.21023 0.44823 0.0
C1652 C 0.80392 0.2121 0.46441 0.0
C1653 C 0.8047 0.21311 0.45351 0.0
C1654 C 0.82134 0.20511 0.46499 0.0
C1655 C 0.8123 0.20824 0.47034 0.0
C1656 C 0.82212 0.20612 0.45412 0.0
C1657 C 0.82386 0.22356 0.39715 0.0
C1658 C 0.84087 0.2323 0.39644 0.0
C1659 C 0.82769 0.23642 0.38362 0.0
C1660 C 0.8208 0.22933 0.38839 0.0
C1661 C 0.83787 0.23796 0.3875 0.0
C1662 C 0.83394 0.22516 0.40122 0.0
C1663 C 0.81661 0.21538 0.40116 0.0
O1664 O 0.80513 0.18975 0.41698 0.0
O1665 O 0.79271 0.20132 0.41766 0.0
O1666 O 0.80813 0.21853 0.40593 0.0
O1667 O 0.82071 0.20706 0.40547 0.0
H1668 H 0.77594 0.19605 0.40785 0.0
H1669 H 0.76576 0.18597 0.39524 0.0
H1670 H 0.79071 0.16374 0.39285 0.0
H1671 H 0.80082 0.17372 0.40563 0.0
H1672 H 0.79687 0.2147 0.46823 0.0
H1673 H 0.79822 0.21642 0.44928 0.0
H1674 H 0.8279 0.20195 0.46923 0.0
H1675 H 0.82933 0.20392 0.45033 0.0
H1676 H 0.8486 0.23335 0.39974 0.0
H1677 H 0.82511 0.24044 0.37667 0.0
H1678 H 0.81311 0.22815 0.38503 0.0
H1679 H 0.83652 0.22079 0.40796 0.0
C1680 C 0.78912 0.83588 0.40864 0.0
C1681 C 0.78814 0.83219 0.39835 0.0
C1682 C 0.77779 0.84743 0.39359 0.0
C1683 C 0.78251 0.8379 0.3909 0.0
C1684 C 0.7789 0.85108 0.40391 0.0
C1685 C 0.78449 0.84537 0.41132 0.0
U1686 U 0.80841 0.81487 0.41844 0.0
O1687 O 0.81949 0.81581 0.43162 0.0
O1688 O 0.80678 0.80421 0.43187 0.0
C1689 C 0.8145 0.80862 0.43708 0.0
C1690 C 0.79468 0.82994 0.41681 0.0
C1691 C 0.81285 0.81078 0.44841 0.0
C1692 C 0.80266 0.80887 0.46447 0.0
C1693 C 0.80356 0.80787 0.45358 0.0
C1694 C 0.82023 0.8159 0.46528 0.0
C1695 C 0.81103 0.81278 0.47051 0.0
C1696 C 0.82113 0.81488 0.45442 0.0
C1697 C 0.82315 0.79815 0.39745 0.0
C1698 C 0.84065 0.79111 0.39531 0.0
C1699 C 0.82637 0.78411 0.38503 0.0
C1700 C 0.81953 0.79101 0.38992 0.0
C1701 C 0.83708 0.78418 0.3875 0.0
C1702 C 0.83378 0.79804 0.40021 0.0
C1703 C 0.81589 0.80625 0.40134 0.0
O1704 O 0.79209 0.82003 0.41779 0.0
O1705 O 0.80478 0.83164 0.41754 0.0
O1706 O 0.81999 0.81463 0.40574 0.0
O1707 O 0.80729 0.80299 0.40596 0.0
H1708 H 0.79168 0.82489 0.39609 0.0
H1709 H 0.78194 0.83489 0.38302 0.0
H1710 H 0.77526 0.85827 0.40634 0.0
H1711 H 0.78511 0.84834 0.41922 0.0
H1712 H 0.79542 0.80651 0.46817 0.0
H1713 H 0.79703 0.80462 0.44925 0.0
H1714 H 0.8269 0.8188 0.46963 0.0
H1715 H 0.82845 0.81703 0.45073 0.0
H1716 H 0.84884 0.79146 0.39737 0.0
H1717 H 0.82328 0.77878 0.3792 0.0
H1718 H 0.81139 0.79095 0.3876 0.0
H1719 H 0.83684 0.80349 0.40593 0.0
C1720 C 0.18107 0.79173 0.40882 0.0
C1721 C 0.1773 0.79661 0.39976 0.0
C1722 C 0.16949 0.78014 0.39378 0.0
C1723 C 0.17154 0.79088 0.39234 0.0
C1724 C 0.17341 0.77529 0.40281 0.0
C1725 C 0.1791 0.78103 0.41023 0.0
U1726 U 0.20067 0.8128 0.41875 0.0
O1727 O 0.19939 0.82336 0.43226 0.0
O1728 O 0.21198 0.81192 0.43172 0.0
C1729 C 0.20724 0.81909 0.43725 0.0
C1730 C 0.18673 0.79761 0.4171 0.0
C1731 C 0.20593 0.81701 0.44862 0.0
C1732 C 0.19529 0.81596 0.46444 0.0
C1733 C 0.19609 0.81684 0.45351 0.0
C1734 C 0.21408 0.81517 0.46572 0.0
C1735 C 0.20429 0.8153 0.47072 0.0
C1736 C 0.21487 0.81604 0.45485 0.0
C1737 C 0.21535 0.82972 0.39769 0.0
C1738 C 0.23272 0.83768 0.39646 0.0
C1739 C 0.21902 0.84335 0.38486 0.0
C1740 C 0.21207 0.83626 0.38956 0.0
C1741 C 0.22949 0.84409 0.38815 0.0
C1742 C 0.22573 0.83057 0.40118 0.0
C1743 C 0.20802 0.82155 0.40158 0.0
O1744 O 0.19681 0.79598 0.41781 0.0
O1745 O 0.18427 0.80747 0.41834 0.0
O1746 O 0.19954 0.82472 0.40634 0.0
O1747 O 0.21206 0.8132 0.40588 0.0
H1748 H 0.17874 0.80485 0.39845 0.0
H1749 H 0.16876 0.79485 0.38543 0.0
H1750 H 0.17188 0.76709 0.40426 0.0
H1751 H 0.18188 0.7771 0.41717 0.0
H1752 H 0.18762 0.81616 0.46798 0.0
H1753 H 0.18903 0.81761 0.44895 0.0
H1754 H 0.22119 0.81448 0.47024 0.0
H1755 H 0.22255 0.81618 0.4513 0.0
H1756 H 0.24067 0.83811 0.3993 0.0
H1757 H 0.21625 0.848 0.37839 0.0
H1758 H 0.20415 0.83568 0.38663 0.0
H1759 H 0.22851 0.82562 0.40743 0.0
C1760 C 0.17959 0.22551 0.4081 0.0
C1761 C 0.18392 0.22815 0.39835 0.0
C1762 C 0.16776 0.23679 0.39323 0.0
C1763 C 0.17807 0.23376 0.391 0.0
C1764 C 0.16347 0.23399 0.40297 0.0
C1765 C 0.16931 0.22844 0.41029 0.0
U1766 U 0.20078 0.20645 0.41806 0.0
O1767 O 0.21151 0.20832 0.43141 0.0
O1768 O 0.19997 0.19556 0.43139 0.0
C1769 C 0.20715 0.20066 0.43675 0.0
C1770 C 0.18564 0.22009 0.41629 0.0
C1771 C 0.20506 0.20249 0.44809 0.0
C1772 C 0.20881 0.21184 0.46435 0.0
C1773 C 0.20975 0.21092 0.45346 0.0
C1774 C 0.19833 0.19604 0.46479 0.0
C1775 C 0.20321 0.20433 0.4702 0.0
C1776 C 0.19928 0.19511 0.45391 0.0
C1777 C 0.21748 0.1915 0.39727 0.0
C1778 C 0.22493 0.1741 0.3959 0.0
C1779 C 0.23138 0.188 0.38478 0.0
C1780 C 0.22437 0.1949 0.38942 0.0
C1781 C 0.23168 0.17745 0.38784 0.0
C1782 C 0.2179 0.18103 0.40056 0.0
C1783 C 0.20934 0.19877 0.40103 0.0
O1784 O 0.18398 0.20999 0.41721 0.0
O1785 O 0.19554 0.22274 0.41722 0.0
O1786 O 0.21258 0.20746 0.40551 0.0
O1787 O 0.20102 0.19469 0.40552 0.0
H1788 H 0.19183 0.22596 0.39645 0.0
H1789 H 0.18161 0.23566 0.38355 0.0
H1790 H 0.15564 0.23631 0.40505 0.0
H1791 H 0.16582 0.22654 0.41778 0.0
H1792 H 0.21258 0.2184 0.46819 0.0
H1793 H 0.21437 0.2167 0.4493 0.0
H1794 H 0.19407 0.19002 0.469 0.0
H1795 H 0.19573 0.18841 0.45009 0.0
H1796 H 0.22502 0.16608 0.39857 0.0
H1797 H 0.23633 0.19086 0.37852 0.0
H1798 H 0.22413 0.20289 0.38665 0.0
H1799 H 0.21268 0.17815 0.40658 0.0
C1800 C 0.18094 0.22711 0.61132 0.0
C1801 C 0.18085 0.22415 0.62188 0.0
C1802 C 0.16905 0.23845 0.62608 0.0
C1803 C 0.17497 0.22977 0.6292 0.0
C1804 C 0.16934 0.24144 0.61551 0.0
C1805 C 0.1752 0.23584 0.60823 0.0
U1806 U 0.20134 0.207 0.60185 0.0
O1807 O 0.20002 0.1957 0.58887 0.0
O1808 O 0.21195 0.20809 0.58833 0.0
C1809 C 0.2073 0.20039 0.58329 0.0
C1810 C 0.18668 0.22119 0.60328 0.0
C1811 C 0.20513 0.20189 0.57194 0.0
C1812 C 0.20722 0.21175 0.5557 0.0
C1813 C 0.20823 0.21103 0.5666 0.0
C1814 C 0.19979 0.19433 0.55523 0.0
C1815 C 0.20314 0.20334 0.54982 0.0
C1816 C 0.20081 0.19361 0.56611 0.0
C1817 C 0.21789 0.19225 0.62285 0.0
C1818 C 0.22529 0.17482 0.62405 0.0
C1819 C 0.2316 0.18853 0.63548 0.0
C1820 C 0.22466 0.19552 0.63085 0.0
C1821 C 0.23194 0.17804 0.63224 0.0
C1822 C 0.21834 0.18184 0.6194 0.0
C1823 C 0.20991 0.19964 0.61901 0.0
O1824 O 0.19664 0.22351 0.60219 0.0
O1825 O 0.18473 0.2111 0.6028 0.0
O1826 O 0.2014 0.19566 0.61477 0.0
O1827 O 0.21333 0.20808 0.61421 0.0
H1828 H 0.18523 0.21743 0.62443 0.0
H1829 H 0.17488 0.22719 0.63725 0.0
H1830 H 0.16506 0.24817 0.61283 0.0
H1831 H 0.1752 0.2383 0.60014 0.0
H1832 H 0.20999 0.21877 0.55184 0.0
H1833 H 0.2117 0.21754 0.57079 0.0
H1834 H 0.19646 0.18775 0.55104 0.0
H1835 H 0.19843 0.18643 0.56994 0.0
H1836 H 0.22541 0.16685 0.62124 0.0
H1837 H 0.23646 0.1913 0.64184 0.0
H1838 H 0.2244 0.20347 0.63374 0.0
H1839 H 0.21321 0.17907 0.61325 0.0
C1840 C 0.78947 0.18458 0.61187 0.0
C1841 C 0.78461 0.18949 0.62037 0.0
C1842 C 0.77764 0.17272 0.62654 0.0
C1843 C 0.77876 0.18363 0.62761 0.0
C1844 C 0.78274 0.16783 0.61815 0.0
C1845 C 0.78855 0.17369 0.61091 0.0
U1846 U 0.80893 0.20582 0.60198 0.0
O1847 O 0.81994 0.20521 0.58874 0.0
O1848 O 0.80739 0.21668 0.58873 0.0
C1849 C 0.815 0.2124 0.5834 0.0
C1850 C 0.79504 0.19058 0.6036 0.0
C1851 C 0.81318 0.21035 0.57205 0.0
C1852 C 0.80376 0.21383 0.55583 0.0
C1853 C 0.8047 0.21478 0.56672 0.0
C1854 C 0.81964 0.20386 0.55532 0.0
C1855 C 0.81128 0.20847 0.54995 0.0
C1856 C 0.82059 0.20483 0.56619 0.0
C1857 C 0.82361 0.22215 0.62367 0.0
C1858 C 0.83976 0.23244 0.62347 0.0
C1859 C 0.82847 0.23291 0.63861 0.0
C1860 C 0.8215 0.22604 0.63367 0.0
C1861 C 0.83778 0.23611 0.63366 0.0
C1862 C 0.83276 0.22548 0.61853 0.0
C1863 C 0.81641 0.21415 0.6193 0.0
O1864 O 0.79256 0.20045 0.6025 0.0
O1865 O 0.80511 0.18897 0.60271 0.0
O1866 O 0.82058 0.20607 0.61462 0.0
O1867 O 0.80792 0.21746 0.61466 0.0
H1868 H 0.78517 0.19788 0.62133 0.0
H1869 H 0.77488 0.18771 0.6339 0.0
H1870 H 0.78225 0.15945 0.61714 0.0
H1871 H 0.79223 0.1697 0.60444 0.0
H1872 H 0.79715 0.21738 0.55202 0.0
H1873 H 0.79889 0.21919 0.57091 0.0
H1874 H 0.82568 0.19981 0.55108 0.0
H1875 H 0.82733 0.20148 0.56998 0.0
H1876 H 0.84686 0.23473 0.61944 0.0
H1877 H 0.82658 0.23571 0.64635 0.0
H1878 H 0.8145 0.22359 0.63779 0.0
H1879 H 0.83457 0.22256 0.61081 0.0
C1880 C 0.17932 0.79299 0.61111 0.0
C1881 C 0.18358 0.79091 0.62099 0.0
C1882 C 0.16777 0.78128 0.62606 0.0
C1883 C 0.17787 0.78509 0.62838 0.0
C1884 C 0.16352 0.78351 0.61618 0.0
C1885 C 0.16924 0.78928 0.60881 0.0
U1886 U 0.2002 0.81303 0.60193 0.0
O1887 O 0.21108 0.81217 0.58864 0.0
O1888 O 0.19938 0.82452 0.5891 0.0
C1889 C 0.20673 0.81997 0.58364 0.0
C1890 C 0.18524 0.79878 0.60298 0.0
C1891 C 0.20474 0.81859 0.57228 0.0
C1892 C 0.20263 0.80771 0.55673 0.0
C1893 C 0.20369 0.80868 0.56762 0.0
C1894 C 0.20343 0.8265 0.55501 0.0
C1895 C 0.20257 0.81661 0.55025 0.0
C1896 C 0.20451 0.82746 0.56586 0.0
C1897 C 0.21588 0.82763 0.62401 0.0
C1898 C 0.22889 0.8416 0.62256 0.0
C1899 C 0.22399 0.83498 0.63959 0.0
C1900 C 0.21706 0.82791 0.63489 0.0
C1901 C 0.22996 0.842 0.63353 0.0
C1902 C 0.22188 0.83449 0.61784 0.0
C1903 C 0.20817 0.82021 0.61954 0.0
O1904 O 0.18345 0.80884 0.60235 0.0
O1905 O 0.19517 0.79653 0.60201 0.0
O1906 O 0.21182 0.81204 0.61459 0.0
O1907 O 0.19996 0.82423 0.61498 0.0
H1908 H 0.19133 0.79374 0.62298 0.0
H1909 H 0.18135 0.78363 0.63594 0.0
H1910 H 0.15585 0.7806 0.61404 0.0
H1911 H 0.1658 0.79076 0.60122 0.0
H1912 H 0.20186 0.79997 0.55339 0.0
H1913 H 0.20382 0.80169 0.57237 0.0
H1914 H 0.20357 0.83353 0.55032 0.0
H1915 H 0.20538 0.83518 0.56923 0.0
H1916 H 0.23331 0.84693 0.61764 0.0
H1917 H 0.22473 0.8349 0.64802 0.0
H1918 H 0.21253 0.82266 0.6398 0.0
H1919 H 0.22108 0.83442 0.60942 0.0
C1920 C 0.15082 0.24093 0.38419 0.0
C1921 C 0.16152 0.24301 0.38558 0.0
C1922 C 0.14469 0.24707 0.37752 0.0
C1923 C 0.14932 0.25554 0.37204 0.0
C1924 C 0.16016 0.25755 0.37321 0.0
C1925 C 0.16612 0.25127 0.37995 0.0
C1926 C 0.13319 0.24458 0.37647 0.0
C1927 C 0.16543 0.26649 0.36754 0.0
C1928 C 0.1343 0.26651 0.34877 0.0
C1929 C 0.12919 0.27506 0.35324 0.0
C1930 C 0.14102 0.26022 0.35471 0.0
C1931 C 0.14271 0.2625 0.36541 0.0
C1932 C 0.13776 0.27126 0.36991 0.0
C1933 C 0.13108 0.2774 0.36379 0.0
C1934 C 0.14612 0.25096 0.34959 0.0
C1935 C 0.13938 0.27405 0.38125 0.0
H1936 H 0.1472 0.23446 0.38834 0.0
H1937 H 0.17434 0.25304 0.38102 0.0
H1938 H 0.12856 0.25128 0.3793 0.0
H1939 H 0.13115 0.24334 0.36814 0.0
H1940 H 0.13084 0.23752 0.38096 0.0
H1941 H 0.174 0.26671 0.36884 0.0
H1942 H 0.16393 0.26589 0.35902 0.0
H1943 H 0.16213 0.274 0.37022 0.0
H1944 H 0.13283 0.26454 0.34066 0.0
H1945 H 0.12733 0.28408 0.3673 0.0
H1946 H 0.14328 0.24364 0.35332 0.0
H1947 H 0.15469 0.25136 0.35073 0.0
H1948 H 0.14445 0.25053 0.34109 0.0
H1949 H 0.13649 0.26759 0.38628 0.0
H1950 H 0.13528 0.28131 0.38348 0.0
H1951 H 0.14783 0.2751 0.3829 0.0
C1952 C 0.77065 0.15663 0.38633 0.0
C1953 C 0.77089 0.16758 0.38559 0.0
C1954 C 0.7643 0.15051 0.37969 0.0
C1955 C 0.75799 0.15541 0.37209 0.0
C1956 C 0.7583 0.16643 0.3712 0.0
C1957 C 0.76472 0.17236 0.37793 0.0
C1958 C 0.76422 0.13879 0.38093 0.0
C1959 C 0.75173 0.172 0.3632 0.0
C1960 C 0.74729 0.13969 0.34897 0.0
C1961 C 0.73693 0.13767 0.35206 0.0
C1962 C 0.75426 0.14531 0.35545 0.0
C1963 C 0.75083 0.14904 0.36527 0.0
C1964 C 0.74045 0.14688 0.36851 0.0
C1965 C 0.73367 0.14122 0.3619 0.0
C1966 C 0.76525 0.14741 0.35169 0.0
C1967 C 0.73646 0.15066 0.37892 0.0
H1968 H 0.77525 0.15282 0.39228 0.0
H1969 H 0.76495 0.18079 0.37716 0.0
H1970 H 0.7563 0.13604 0.38321 0.0
H1971 H 0.76613 0.13501 0.37338 0.0
H1972 H 0.76987 0.13614 0.38692 0.0
H1973 H 0.75303 0.18058 0.36332 0.0
H1974 H 0.75354 0.16906 0.35526 0.0
H1975 H 0.74334 0.17035 0.36467 0.0
H1976 H 0.74989 0.13713 0.34135 0.0
H1977 H 0.72576 0.13958 0.36447 0.0
H1978 H 0.77095 0.14455 0.35751 0.0
H1979 H 0.76657 0.15594 0.35086 0.0
H1980 H 0.76685 0.14362 0.34406 0.0
H1981 H 0.74143 0.14766 0.38532 0.0
H1982 H 0.72826 0.14816 0.3804 0.0
H1983 H 0.7369 0.15931 0.37923 0.0
C1984 C 0.84346 0.776 0.37079 0.0
C1985 C 0.84449 0.77735 0.38164 0.0
C1986 C 0.85043 0.76977 0.3651 0.0
C1987 C 0.85869 0.76471 0.37034 0.0
C1988 C 0.85975 0.76597 0.38129 0.0
C1989 C 0.85267 0.77227 0.38679 0.0
C1990 C 0.84902 0.76871 0.35344 0.0
C1991 C 0.86841 0.76069 0.3872 0.0
C1992 C 0.87181 0.74169 0.35678 0.0
C1993 C 0.88091 0.74635 0.35271 0.0
C1994 C 0.86454 0.74753 0.36255 0.0
C1995 C 0.86637 0.75833 0.36429 0.0
C1996 C 0.8755 0.76309 0.36015 0.0
C1997 C 0.88263 0.75707 0.35443 0.0
C1998 C 0.85493 0.74213 0.36684 0.0
C1999 C 0.87775 0.77458 0.36173 0.0
H2000 H 0.8373 0.78 0.36668 0.0
H2001 H 0.8535 0.77315 0.39517 0.0
H2002 H 0.85602 0.77183 0.34936 0.0
H2003 H 0.8482 0.76036 0.35128 0.0
H2004 H 0.84206 0.77294 0.35057 0.0
H2005 H 0.86805 0.76226 0.39572 0.0
H2006 H 0.86798 0.75213 0.38593 0.0
H2007 H 0.87609 0.76344 0.38421 0.0
H2008 H 0.87043 0.7334 0.35562 0.0
H2009 H 0.88953 0.76081 0.35119 0.0
H2010 H 0.84782 0.74589 0.36374 0.0
H2011 H 0.85472 0.74292 0.37546 0.0
H2012 H 0.85462 0.73369 0.36481 0.0
H2013 H 0.87134 0.77925 0.35836 0.0
H2014 H 0.88522 0.7771 0.35805 0.0
H2015 H 0.87812 0.77638 0.37019 0.0
C2016 C 0.26432 0.87725 0.34773 0.0
C2017 C 0.27082 0.88477 0.35249 0.0
C2018 C 0.2579 0.87053 0.35369 0.0
C2019 C 0.25793 0.8713 0.36474 0.0
C2020 C 0.26457 0.87877 0.36961 0.0
C2021 C 0.27091 0.88539 0.36345 0.0
C2022 C 0.25099 0.86267 0.34816 0.0
C2023 C 0.26486 0.87988 0.38134 0.0
C2024 C 0.23383 0.86119 0.37926 0.0
C2025 C 0.23699 0.85129 0.38265 0.0
C2026 C 0.24058 0.86779 0.37354 0.0
C2027 C 0.25082 0.86449 0.37115 0.0
C2028 C 0.25415 0.8546 0.37472 0.0
C2029 C 0.24722 0.84813 0.3804 0.0
C2030 C 0.23669 0.87828 0.36995 0.0
C2031 C 0.26499 0.85076 0.37237 0.0
H2032 H 0.26428 0.87658 0.33929 0.0
H2033 H 0.27577 0.89124 0.36724 0.0
H2034 H 0.2527 0.85468 0.35097 0.0
H2035 H 0.24269 0.86422 0.34998 0.0
H2036 H 0.25203 0.86288 0.33955 0.0
H2037 H 0.27071 0.88579 0.38396 0.0
H2038 H 0.25707 0.8822 0.38425 0.0
H2039 H 0.26672 0.87228 0.385 0.0
H2040 H 0.22602 0.8638 0.38107 0.0
H2041 H 0.24974 0.84047 0.38285 0.0
H2042 H 0.23689 0.87868 0.3613 0.0
H2043 H 0.24189 0.88459 0.37293 0.0
H2044 H 0.2286 0.8798 0.37262 0.0
H2045 H 0.26605 0.85003 0.3638 0.0
H2046 H 0.26654 0.84306 0.37602 0.0
H2047 H 0.27091 0.85648 0.37521 0.0
C2048 C 0.13664 0.75074 0.67203 0.0
C2049 C 0.13234 0.74134 0.66822 0.0
C2050 C 0.14232 0.75757 0.66547 0.0
C2051 C 0.14378 0.75498 0.65481 0.0
C2052 C 0.13935 0.74558 0.65089 0.0
C2053 C 0.1337 0.7389 0.65761 0.0
C2054 C 0.1469 0.76749 0.66999 0.0
C2055 C 0.14065 0.74253 0.63958 0.0
C2056 C 0.15093 0.77626 0.63509 0.0
C2057 C 0.16171 0.77484 0.63379 0.0
C2058 C 0.14504 0.76998 0.64199 0.0
C2059 C 0.15001 0.76203 0.64777 0.0
C2060 C 0.16092 0.76065 0.64662 0.0
C2061 C 0.16662 0.76706 0.63968 0.0
C2062 C 0.13347 0.77179 0.64301 0.0
C2063 C 0.16654 0.75226 0.6526 0.0
H2064 H 0.13579 0.75265 0.68022 0.0
H2065 H 0.1303 0.73176 0.65452 0.0
H2066 H 0.15553 0.76741 0.66929 0.0
H2067 H 0.14411 0.77434 0.66554 0.0
H2068 H 0.14483 0.76854 0.67835 0.0
H2069 H 0.13665 0.73501 0.6377 0.0
H2070 H 0.13747 0.7487 0.63444 0.0
H2071 H 0.14906 0.7418 0.6377 0.0
H2072 H 0.14707 0.78234 0.63071 0.0
H2073 H 0.1749 0.7658 0.63867 0.0
H2074 H 0.13144 0.77333 0.65129 0.0
H2075 H 0.12908 0.76468 0.64058 0.0
H2076 H 0.13082 0.77846 0.63819 0.0
H2077 H 0.1652 0.75322 0.6611 0.0
H2078 H 0.17508 0.7524 0.65111 0.0
H2079 H 0.16338 0.74447 0.65037 0.0
C2080 C 0.27157 0.13524 0.65534 0.0
C2081 C 0.27104 0.13479 0.66629 0.0
C2082 C 0.26547 0.14227 0.64958 0.0
C2083 C 0.25863 0.14909 0.65487 0.0
C2084 C 0.25815 0.14879 0.66593 0.0
C2085 C 0.26434 0.14167 0.67149 0.0
C2086 C 0.2663 0.14235 0.63782 0.0
C2087 C 0.25097 0.1559 0.67189 0.0
C2088 C 0.24903 0.17351 0.64086 0.0
C2089 C 0.23895 0.17047 0.63766 0.0
C2090 C 0.25552 0.16664 0.6464 0.0
C2091 C 0.25189 0.15644 0.64882 0.0
C2092 C 0.24178 0.15327 0.64551 0.0
C2093 C 0.23546 0.1603 0.64 0.0
C2094 C 0.26624 0.17035 0.64972 0.0
C2095 C 0.23759 0.14247 0.64792 0.0
H2096 H 0.27683 0.13009 0.65123 0.0
H2097 H 0.26375 0.14134 0.67992 0.0
H2098 H 0.25859 0.14043 0.63432 0.0
H2099 H 0.26857 0.15026 0.63506 0.0
H2100 H 0.27209 0.13667 0.63489 0.0
H2101 H 0.25166 0.15489 0.68047 0.0
H2102 H 0.25274 0.16417 0.66992 0.0
H2103 H 0.24276 0.15432 0.66958 0.0
H2104 H 0.2519 0.18128 0.639 0.0
H2105 H 0.22765 0.15789 0.63772 0.0
H2106 H 0.27227 0.16514 0.64643 0.0
H2107 H 0.26693 0.16998 0.65835 0.0
H2108 H 0.26795 0.17847 0.64715 0.0
H2109 H 0.24289 0.13649 0.6447 0.0
H2110 H 0.22966 0.14113 0.64464 0.0
H2111 H 0.23725 0.1413 0.65649 0.0
C2112 C 0.84759 0.24128 0.6499 0.0
C2113 C 0.84536 0.24306 0.63931 0.0
C2114 C 0.85415 0.24805 0.6556 0.0
C2115 C 0.85864 0.25692 0.65064 0.0
C2116 C 0.85669 0.25861 0.63987 0.0
C2117 C 0.85011 0.25165 0.63433 0.0
C2118 C 0.85607 0.24586 0.66702 0.0
C2119 C 0.86128 0.26796 0.63429 0.0
C2120 C 0.86531 0.27964 0.66878 0.0
C2121 C 0.87609 0.27848 0.67034 0.0
C2122 C 0.85964 0.27288 0.66217 0.0
C2123 C 0.86482 0.26469 0.65694 0.0
C2124 C 0.87576 0.26363 0.65824 0.0
C2125 C 0.88126 0.27055 0.66489 0.0
C2126 C 0.84803 0.27438 0.66098 0.0
C2127 C 0.88159 0.255 0.65285 0.0
H2128 H 0.84413 0.23456 0.65377 0.0
H2129 H 0.84842 0.25313 0.62618 0.0
H2130 H 0.86457 0.24565 0.66861 0.0
H2131 H 0.85278 0.25222 0.67183 0.0
H2132 H 0.8525 0.23834 0.66957 0.0
H2133 H 0.85962 0.26781 0.62577 0.0
H2134 H 0.85802 0.27522 0.63763 0.0
H2135 H 0.86986 0.26832 0.63544 0.0
H2136 H 0.86127 0.28585 0.67278 0.0
H2137 H 0.88956 0.26955 0.66606 0.0
H2138 H 0.84378 0.26747 0.66411 0.0
H2139 H 0.84597 0.27506 0.65259 0.0
H2140 H 0.84526 0.28144 0.66513 0.0
H2141 H 0.87882 0.24733 0.65584 0.0
H2142 H 0.89015 0.25563 0.65411 0.0
H2143 H 0.88001 0.25514 0.64434 0.0
C2144 C 0.74208 0.87083 0.67299 0.0
C2145 C 0.73798 0.88061 0.67034 0.0
C2146 C 0.74869 0.86542 0.66614 0.0
C2147 C 0.75132 0.86985 0.65634 0.0
C2148 C 0.74745 0.87984 0.65372 0.0
C2149 C 0.74085 0.88509 0.66074 0.0
C2150 C 0.75267 0.85484 0.66931 0.0
C2151 C 0.75005 0.88486 0.64337 0.0
C2152 C 0.7747 0.85886 0.64153 0.0
C2153 C 0.76986 0.8521 0.63431 0.0
C2154 C 0.7688 0.86472 0.64869 0.0
C2155 C 0.75776 0.86382 0.64868 0.0
C2156 C 0.75284 0.85698 0.64146 0.0
C2157 C 0.75892 0.85123 0.6344 0.0
C2158 C 0.77437 0.87192 0.65623 0.0
C2159 C 0.74111 0.85569 0.64121 0.0
H2160 H 0.7401 0.86736 0.68046 0.0
H2161 H 0.73769 0.89259 0.65856 0.0
H2162 H 0.74969 0.8488 0.66383 0.0
H2163 H 0.76132 0.85475 0.66887 0.0
H2164 H 0.75026 0.85265 0.67736 0.0
H2165 H 0.74689 0.89287 0.64271 0.0
H2166 H 0.75863 0.88524 0.64227 0.0
H2167 H 0.74679 0.88004 0.63692 0.0
H2168 H 0.78313 0.85971 0.64147 0.0
H2169 H 0.75508 0.84593 0.62899 0.0
H2170 H 0.77242 0.86969 0.66438 0.0
H2171 H 0.77172 0.88005 0.65508 0.0
H2172 H 0.78299 0.87174 0.65526 0.0
H2173 H 0.73827 0.85278 0.64887 0.0
H2174 H 0.73847 0.85017 0.63504 0.0
H2175 H 0.73742 0.86335 0.63983 0.0
C2176 C 0.35629 0.13693 0.27756 0.0
C2177 C 0.34542 0.13829 0.27751 0.0
C2178 C 0.3629 0.14288 0.27101 0.0
C2179 C 0.35858 0.15044 0.26424 0.0
C2180 C 0.34762 0.15177 0.26406 0.0
C2181 C 0.3412 0.1457 0.27066 0.0
C2182 C 0.37452 0.14115 0.27142 0.0
C2183 C 0.34267 0.15976 0.25701 0.0
C2184 C 0.37529 0.17342 0.25472 0.0
C2185 C 0.37757 0.17054 0.24438 0.0
C2186 C 0.36931 0.16688 0.2613 0.0
C2187 C 0.36551 0.15716 0.25752 0.0
C2188 C 0.368 0.15407 0.24719 0.0
C2189 C 0.37397 0.16078 0.24076 0.0
C2190 C 0.3669 0.17048 0.27225 0.0
C2191 C 0.36413 0.14378 0.24284 0.0
H2192 H 0.35964 0.13116 0.28271 0.0
H2193 H 0.33286 0.14697 0.27065 0.0
H2194 H 0.37748 0.13917 0.26353 0.0
H2195 H 0.37857 0.14843 0.27391 0.0
H2196 H 0.37664 0.13479 0.27689 0.0
H2197 H 0.33402 0.15964 0.25756 0.0
H2198 H 0.34556 0.16769 0.2591 0.0
H2199 H 0.34492 0.15831 0.24877 0.0
H2200 H 0.37815 0.18084 0.25768 0.0
H2201 H 0.37554 0.1585 0.23277 0.0
H2202 H 0.36951 0.16459 0.278 0.0
H2203 H 0.35834 0.17129 0.27321 0.0
H2204 H 0.37071 0.17809 0.27414 0.0
H2205 H 0.36642 0.13729 0.24806 0.0
H2206 H 0.36724 0.14224 0.23489 0.0
H2207 H 0.35549 0.14376 0.24246 0.0
C2208 C 0.85585 0.38088 0.24047 0.0
C2209 C 0.84568 0.38298 0.24393 0.0
C2210 C 0.86293 0.37535 0.24674 0.0
C2211 C 0.85982 0.37179 0.25677 0.0
C2212 C 0.84962 0.374 0.26037 0.0
C2213 C 0.84271 0.37956 0.25394 0.0
C2214 C 0.8737 0.37318 0.24257 0.0
C2215 C 0.84598 0.37041 0.27101 0.0
C2216 C 0.87459 0.34903 0.26886 0.0
C2217 C 0.88148 0.35414 0.27576 0.0
C2218 C 0.86748 0.35465 0.26271 0.0
C2219 C 0.8672 0.36569 0.26343 0.0
C2220 C 0.87404 0.37089 0.27045 0.0
C2221 C 0.88107 0.36508 0.27651 0.0
C2222 C 0.86035 0.34877 0.25533 0.0
C2223 C 0.87397 0.38262 0.27153 0.0
H2224 H 0.85821 0.38333 0.23271 0.0
H2225 H 0.83495 0.38125 0.25679 0.0
H2226 H 0.8797 0.37634 0.248 0.0
H2227 H 0.87488 0.36463 0.24204 0.0
H2228 H 0.87502 0.37666 0.23473 0.0
H2229 H 0.83787 0.37285 0.27273 0.0
H2230 H 0.84634 0.36178 0.27151 0.0
H2231 H 0.85122 0.37363 0.27714 0.0
H2232 H 0.87491 0.34061 0.2681 0.0
H2233 H 0.88622 0.36912 0.28191 0.0
H2234 H 0.86189 0.3513 0.24718 0.0
H2235 H 0.85209 0.35058 0.25709 0.0
H2236 H 0.86137 0.34019 0.25582 0.0
H2237 H 0.87584 0.38631 0.26391 0.0
H2238 H 0.87969 0.38549 0.27743 0.0
H2239 H 0.86608 0.38525 0.27383 0.0
C2240 C 0.65185 0.8855 0.27647 0.0
C2241 C 0.66282 0.88526 0.27667 0.0
C2242 C 0.646 0.87844 0.27033 0.0
C2243 C 0.65118 0.8709 0.26419 0.0
C2244 C 0.66223 0.8705 0.26447 0.0
C2245 C 0.6679 0.87766 0.27068 0.0
C2246 C 0.63425 0.87913 0.27033 0.0
C2247 C 0.66809 0.8626 0.25806 0.0
C2248 C 0.636 0.84687 0.2547 0.0
C2249 C 0.63372 0.8495 0.24429 0.0
C2250 C 0.64161 0.85374 0.26125 0.0
C2251 C 0.64506 0.86355 0.25737 0.0
C2252 C 0.64269 0.86632 0.24692 0.0
C2253 C 0.63707 0.85928 0.24054 0.0
C2254 C 0.64391 0.85048 0.27234 0.0
C2255 C 0.64621 0.87668 0.24245 0.0
H2256 H 0.64781 0.8912 0.28118 0.0
H2257 H 0.67635 0.87746 0.27065 0.0
H2258 H 0.63142 0.8808 0.26232 0.0
H2259 H 0.63074 0.87155 0.27274 0.0
H2260 H 0.63138 0.88531 0.27566 0.0
H2261 H 0.67666 0.8631 0.25934 0.0
H2262 H 0.66537 0.85459 0.26005 0.0
H2263 H 0.66648 0.86382 0.24964 0.0
H2264 H 0.63334 0.83941 0.25775 0.0
H2265 H 0.63552 0.86137 0.23249 0.0
H2266 H 0.64064 0.85624 0.27789 0.0
H2267 H 0.65247 0.85036 0.27362 0.0
H2268 H 0.64062 0.84264 0.27421 0.0
H2269 H 0.64311 0.88316 0.24724 0.0
H2270 H 0.64359 0.87775 0.23425 0.0
H2271 H 0.65485 0.87729 0.24268 0.0
C2272 C 0.15056 0.63644 0.24137 0.0
C2273 C 0.16094 0.63424 0.24404 0.0
C2274 C 0.14443 0.64306 0.24755 0.0
C2275 C 0.14872 0.64766 0.25668 0.0
C2276 C 0.15926 0.64568 0.2593 0.0
C2277 C 0.16523 0.63902 0.25296 0.0
C2278 C 0.13326 0.64499 0.24441 0.0
C2279 C 0.16416 0.65039 0.26895 0.0
C2280 C 0.13447 0.67097 0.2684 0.0
C2281 C 0.12839 0.66622 0.27625 0.0
C2282 C 0.14125 0.66508 0.26211 0.0
C2283 C 0.14202 0.65416 0.26368 0.0
C2284 C 0.13609 0.64937 0.27174 0.0
C2285 C 0.12938 0.65543 0.2779 0.0
C2286 C 0.14741 0.67052 0.25362 0.0
C2287 C 0.13671 0.63778 0.27375 0.0
H2288 H 0.1472 0.63295 0.23441 0.0
H2289 H 0.17319 0.63731 0.25518 0.0
H2290 H 0.1279 0.64199 0.25054 0.0
H2291 H 0.1319 0.6535 0.24368 0.0
H2292 H 0.1312 0.64117 0.23688 0.0
H2293 H 0.17259 0.64857 0.26962 0.0
H2294 H 0.16328 0.659 0.2689 0.0
H2295 H 0.16009 0.6474 0.27601 0.0
H2296 H 0.13371 0.67926 0.26697 0.0
H2297 H 0.12488 0.65169 0.28404 0.0
H2298 H 0.14494 0.6675 0.24588 0.0
H2299 H 0.15584 0.66885 0.25448 0.0
H2300 H 0.14635 0.67911 0.25373 0.0
H2301 H 0.13403 0.63341 0.26675 0.0
H2302 H 0.13188 0.6353 0.28054 0.0
H2303 H 0.14492 0.63555 0.27523 0.0
C2304 C 0.37786 0.84888 0.76535 0.0
C2305 C 0.38157 0.85284 0.7749 0.0
C2306 C 0.37103 0.85467 0.75904 0.0
C2307 C 0.36775 0.86468 0.76233 0.0
C2308 C 0.37136 0.86866 0.77202 0.0
C2309 C 0.37821 0.86272 0.77816 0.0
C2310 C 0.36743 0.85012 0.74875 0.0
C2311 C 0.36801 0.87924 0.77589 0.0
C2312 C 0.35818 0.88362 0.74146 0.0
C2313 C 0.34728 0.8826 0.74229 0.0
C2314 C 0.3649 0.87793 0.74797 0.0
C2315 C 0.36068 0.87102 0.75556 0.0
C2316 C 0.34969 0.87005 0.75654 0.0
C2317 C 0.34315 0.87583 0.74991 0.0
C2318 C 0.37655 0.87925 0.74667 0.0
C2319 C 0.34483 0.86278 0.76449 0.0
H2320 H 0.38049 0.84133 0.76267 0.0
H2321 H 0.38091 0.86581 0.78558 0.0
H2322 H 0.35878 0.84975 0.7485 0.0
H2323 H 0.37003 0.85525 0.74225 0.0
H2324 H 0.3705 0.84216 0.7474 0.0
H2325 H 0.37136 0.88116 0.78366 0.0
H2326 H 0.37049 0.88536 0.77025 0.0
H2327 H 0.35938 0.8795 0.77643 0.0
H2328 H 0.36148 0.88892 0.73571 0.0
H2329 H 0.33477 0.87483 0.75055 0.0
H2330 H 0.38007 0.87166 0.7446 0.0
H2331 H 0.38012 0.88183 0.75415 0.0
H2332 H 0.37861 0.88503 0.74052 0.0
H2333 H 0.34714 0.85463 0.76282 0.0
H2334 H 0.33618 0.86315 0.76452 0.0
H2335 H 0.34774 0.86474 0.77242 0.0
C2336 C 0.13473 0.36092 0.7394 0.0
C2337 C 0.13326 0.35031 0.74186 0.0
C2338 C 0.14041 0.36766 0.74603 0.0
C2339 C 0.14476 0.36377 0.7554 0.0
C2340 C 0.14321 0.35311 0.75801 0.0
C2341 C 0.1375 0.34653 0.75122 0.0
C2342 C 0.14181 0.37897 0.74296 0.0
C2343 C 0.14771 0.34861 0.7679 0.0
C2344 C 0.1676 0.37903 0.76738 0.0
C2345 C 0.16267 0.38488 0.77519 0.0
C2346 C 0.16191 0.37205 0.76099 0.0
C2347 C 0.15099 0.37084 0.76242 0.0
C2348 C 0.146 0.37658 0.77041 0.0
C2349 C 0.15188 0.38351 0.77667 0.0
C2350 C 0.16756 0.36612 0.75256 0.0
C2351 C 0.1344 0.37549 0.77228 0.0
H2352 H 0.13139 0.36398 0.73227 0.0
H2353 H 0.13656 0.33833 0.75316 0.0
H2354 H 0.13861 0.38409 0.74914 0.0
H2355 H 0.15024 0.38089 0.74219 0.0
H2356 H 0.13788 0.38082 0.73546 0.0
H2357 H 0.1456 0.34024 0.76895 0.0
H2358 H 0.15634 0.34938 0.76777 0.0
H2359 H 0.1449 0.35303 0.77477 0.0
H2360 H 0.1759 0.3801 0.76606 0.0
H2361 H 0.148 0.38785 0.78278 0.0
H2362 H 0.16447 0.36834 0.74479 0.0
H2363 H 0.16615 0.35761 0.75351 0.0
H2364 H 0.17611 0.36765 0.75267 0.0
H2365 H 0.13008 0.37789 0.76519 0.0
H2366 H 0.13173 0.38029 0.77897 0.0
H2367 H 0.13232 0.3672 0.77383 0.0
C2368 C 0.62996 0.16843 0.76348 0.0
C2369 C 0.62914 0.16741 0.77438 0.0
C2370 C 0.63666 0.16208 0.75761 0.0
C2371 C 0.64276 0.15447 0.76272 0.0
C2372 C 0.64219 0.15357 0.77374 0.0
C2373 C 0.63541 0.16003 0.77942 0.0
C2374 C 0.63705 0.16337 0.7459 0.0
C2375 C 0.64855 0.14558 0.77951 0.0
C2376 C 0.65127 0.13086 0.74678 0.0
C2377 C 0.66169 0.13338 0.74431 0.0
C2378 C 0.64509 0.13761 0.75277 0.0
C2379 C 0.64937 0.14716 0.75647 0.0
C2380 C 0.65989 0.14975 0.75408 0.0
C2381 C 0.66591 0.14285 0.74805 0.0
C2382 C 0.63393 0.13451 0.75514 0.0
C2383 C 0.66478 0.15984 0.75784 0.0
H2384 H 0.62531 0.17422 0.7595 0.0
H2385 H 0.63479 0.15908 0.78781 0.0
H2386 H 0.6452 0.1648 0.74332 0.0
H2387 H 0.63429 0.15608 0.74206 0.0
H2388 H 0.63216 0.16992 0.74315 0.0
H2389 H 0.64767 0.14623 0.78812 0.0
H2390 H 0.6461 0.13761 0.77708 0.0
H2391 H 0.65694 0.14651 0.77751 0.0
H2392 H 0.64796 0.1235 0.74413 0.0
H2393 H 0.67389 0.14495 0.74612 0.0
H2394 H 0.62856 0.14046 0.75201 0.0
H2395 H 0.63272 0.13417 0.76371 0.0
H2396 H 0.63177 0.1268 0.75174 0.0
H2397 H 0.66043 0.16656 0.75464 0.0
H2398 H 0.6731 0.16064 0.7555 0.0
H2399 H 0.66428 0.16032 0.76648 0.0
C2400 C 0.8713 0.67373 0.75144 0.0
C2401 C 0.87655 0.66937 0.74288 0.0
C2402 C 0.86514 0.66752 0.75816 0.0
C2403 C 0.86416 0.65663 0.75634 0.0
C2404 C 0.86962 0.65214 0.74785 0.0
C2405 C 0.87571 0.65855 0.74124 0.0
C2406 C 0.85944 0.67266 0.76707 0.0
C2407 C 0.86888 0.64058 0.74566 0.0
C2408 C 0.85396 0.63973 0.77884 0.0
C2409 C 0.84333 0.63862 0.77634 0.0
C2410 C 0.86088 0.64537 0.77232 0.0
C2411 C 0.8571 0.65007 0.76306 0.0
C2412 C 0.84643 0.64878 0.76038 0.0
C2413 C 0.83972 0.64307 0.767 0.0
C2414 C 0.87218 0.6465 0.77547 0.0
C2415 C 0.84205 0.65361 0.75058 0.0
H2416 H 0.87175 0.68208 0.75272 0.0
H2417 H 0.87983 0.65506 0.73474 0.0
H2418 H 0.85089 0.67174 0.76594 0.0
H2419 H 0.86143 0.66882 0.77455 0.0
H2420 H 0.86135 0.68112 0.76771 0.0
H2421 H 0.87395 0.63821 0.73906 0.0
H2422 H 0.87113 0.63609 0.75271 0.0
H2423 H 0.8607 0.63838 0.74378 0.0
H2424 H 0.85685 0.63644 0.78606 0.0
H2425 H 0.83158 0.64213 0.76487 0.0
H2426 H 0.87405 0.65484 0.77702 0.0
H2427 H 0.87732 0.64394 0.76901 0.0
H2428 H 0.87404 0.6419 0.78256 0.0
H2429 H 0.84297 0.66222 0.75093 0.0
H2430 H 0.83366 0.65167 0.74945 0.0
H2431 H 0.84645 0.65088 0.74365 0.0
C2432 C 0.23825 0.38321 0.15783 0.0
C2433 C 0.23898 0.38225 0.16874 0.0
C2434 C 0.24479 0.37752 0.15112 0.0
C2435 C 0.25228 0.37067 0.15537 0.0
C2436 C 0.25315 0.36975 0.16636 0.0
C2437 C 0.24651 0.37552 0.17289 0.0
C2438 C 0.24361 0.3788 0.13946 0.0
C2439 C 0.261 0.36253 0.17123 0.0
C2440 C 0.26218 0.34856 0.13809 0.0
C2441 C 0.27179 0.35258 0.13454 0.0
C2442 C 0.25581 0.35432 0.14489 0.0
C2443 C 0.2591 0.36436 0.1483 0.0
C2444 C 0.26885 0.36841 0.14486 0.0
C2445 C 0.27505 0.36249 0.13803 0.0
C2446 C 0.24547 0.34971 0.14832 0.0
C2447 C 0.27271 0.37902 0.14835 0.0
H2448 H 0.23258 0.38847 0.15452 0.0
H2449 H 0.24707 0.37457 0.18128 0.0
H2450 H 0.25113 0.38143 0.13599 0.0
H2451 H 0.24156 0.37117 0.13585 0.0
H2452 H 0.23751 0.38452 0.13739 0.0
H2453 H 0.26092 0.36291 0.1799 0.0
H2454 H 0.25933 0.35437 0.1688 0.0
H2455 H 0.26897 0.36455 0.16845 0.0
H2456 H 0.2595 0.34099 0.13535 0.0
H2457 H 0.28251 0.36562 0.13547 0.0
H2458 H 0.23902 0.35478 0.14569 0.0
H2459 H 0.2451 0.34936 0.15697 0.0
H2460 H 0.24412 0.34173 0.14517 0.0
H2461 H 0.26714 0.3851 0.14587 0.0
H2462 H 0.28053 0.381 0.1451 0.0
H2463 H 0.27316 0.37931 0.157 0.0
C2464 C 0.26155 0.67177 0.88085 0.0
C2465 C 0.27069 0.66751 0.88504 0.0
C2466 C 0.25511 0.66597 0.87401 0.0
C2467 C 0.25785 0.65565 0.87123 0.0
C2468 C 0.26714 0.65136 0.87532 0.0
C2469 C 0.27342 0.65732 0.88216 0.0
C2470 C 0.24528 0.67085 0.86988 0.0
C2471 C 0.27042 0.64043 0.87252 0.0
C2472 C 0.23615 0.63727 0.86173 0.0
C2473 C 0.2374 0.63763 0.85084 0.0
C2474 C 0.24279 0.643 0.86844 0.0
C2475 C 0.25091 0.64929 0.86419 0.0
C2476 C 0.25231 0.64959 0.85321 0.0
C2477 C 0.24555 0.64378 0.84669 0.0
C2478 C 0.24104 0.64239 0.88008 0.0
C2479 C 0.26084 0.65619 0.84834 0.0
H2480 H 0.25928 0.67957 0.88311 0.0
H2481 H 0.28053 0.65399 0.88523 0.0
H2482 H 0.24531 0.67075 0.86121 0.0
H2483 H 0.23837 0.66623 0.87248 0.0
H2484 H 0.24437 0.67904 0.87256 0.0
H2485 H 0.27795 0.63829 0.87619 0.0
H2486 H 0.26434 0.63474 0.87505 0.0
H2487 H 0.27119 0.63968 0.86392 0.0
H2488 H 0.22998 0.63245 0.86505 0.0
H2489 H 0.24652 0.64427 0.8383 0.0
H2490 H 0.23936 0.65028 0.88321 0.0
H2491 H 0.24821 0.63964 0.88401 0.0
H2492 H 0.23447 0.63706 0.88217 0.0
H2493 H 0.25963 0.66453 0.85027 0.0
H2494 H 0.2611 0.65536 0.83971 0.0
H2495 H 0.26854 0.65398 0.85158 0.0
C2496 C 0.35617 0.28279 0.87774 0.0
C2497 C 0.34652 0.27932 0.88174 0.0
C2498 C 0.36276 0.27604 0.87221 0.0
C2499 C 0.35972 0.26549 0.87061 0.0
C2500 C 0.35009 0.26186 0.8748 0.0
C2501 C 0.34362 0.2688 0.88029 0.0
C2502 C 0.37296 0.28025 0.86794 0.0
C2503 C 0.34654 0.25069 0.87332 0.0
C2504 C 0.37209 0.25121 0.84761 0.0
C2505 C 0.38002 0.2455 0.85247 0.0
C2506 C 0.36536 0.2576 0.85342 0.0
C2507 C 0.36653 0.25835 0.8644 0.0
C2508 C 0.37441 0.25249 0.86938 0.0
C2509 C 0.38104 0.24617 0.86338 0.0
C2510 C 0.35705 0.26367 0.84777 0.0
C2511 C 0.37595 0.25304 0.88106 0.0
H2512 H 0.35859 0.29083 0.87895 0.0
H2513 H 0.33616 0.26603 0.88321 0.0
H2514 H 0.37955 0.27563 0.87099 0.0
H2515 H 0.37304 0.2795 0.8593 0.0
H2516 H 0.3743 0.28859 0.87 0.0
H2517 H 0.33906 0.24896 0.87738 0.0
H2518 H 0.34552 0.24903 0.86487 0.0
H2519 H 0.35256 0.24529 0.87629 0.0
H2520 H 0.3711 0.25066 0.83922 0.0
H2521 H 0.38721 0.24193 0.86724 0.0
H2522 H 0.35836 0.27216 0.84898 0.0
H2523 H 0.34925 0.2617 0.85102 0.0
H2524 H 0.35698 0.26207 0.83925 0.0
H2525 H 0.37811 0.26113 0.88336 0.0
H2526 H 0.38214 0.2477 0.88381 0.0
H2527 H 0.36856 0.25101 0.88513 0.0
C2528 C 0.774 0.38414 0.86322 0.0
C2529 C 0.77206 0.38587 0.85256 0.0
C2530 C 0.76772 0.37725 0.86914 0.0
C2531 C 0.75924 0.37193 0.86433 0.0
C2532 C 0.75733 0.37351 0.85355 0.0
C2533 C 0.76374 0.38043 0.84781 0.0
C2534 C 0.77011 0.37576 0.88058 0.0
C2535 C 0.74837 0.36803 0.8481 0.0
C2536 C 0.74756 0.34759 0.87732 0.0
C2537 C 0.73859 0.35154 0.88216 0.0
C2538 C 0.75438 0.35413 0.87159 0.0
C2539 C 0.75222 0.36491 0.87063 0.0
C2540 C 0.74326 0.36897 0.8756 0.0
C2541 C 0.73658 0.36227 0.88129 0.0
C2542 C 0.76383 0.34945 0.86643 0.0
C2543 C 0.74067 0.38041 0.87484 0.0
H2544 H 0.78049 0.38816 0.86695 0.0
H2545 H 0.76207 0.38178 0.83963 0.0
H2546 H 0.76336 0.37826 0.88536 0.0
H2547 H 0.77137 0.36738 0.88226 0.0
H2548 H 0.77713 0.38027 0.8831 0.0
H2549 H 0.74811 0.36982 0.83962 0.0
H2550 H 0.74899 0.35946 0.8491 0.0
H2551 H 0.74087 0.37041 0.85168 0.0
H2552 H 0.74914 0.33931 0.8778 0.0
H2553 H 0.72977 0.36545 0.8851 0.0
H2554 H 0.77102 0.35358 0.86907 0.0
H2555 H 0.76332 0.35047 0.85784 0.0
H2556 H 0.76461 0.341 0.86817 0.0
H2557 H 0.74723 0.38522 0.87792 0.0
H2558 H 0.73348 0.38238 0.87923 0.0
H2559 H 0.73957 0.38262 0.86654 0.0
C2560 C 0.6509 0.74174 0.88549 0.0
C2561 C 0.66176 0.74315 0.88621 0.0
C2562 C 0.64485 0.74783 0.8787 0.0
C2563 C 0.64974 0.75557 0.8724 0.0
C2564 C 0.66073 0.75687 0.8729 0.0
C2565 C 0.6666 0.75066 0.87978 0.0
C2566 C 0.63318 0.7461 0.87839 0.0
C2567 C 0.66627 0.76501 0.86635 0.0
C2568 C 0.6342 0.76592 0.84918 0.0
C2569 C 0.6299 0.77509 0.85329 0.0
C2570 C 0.64083 0.75961 0.85521 0.0
C2571 C 0.64327 0.76251 0.86562 0.0
C2572 C 0.63916 0.77188 0.86972 0.0
C2573 C 0.63255 0.77803 0.86353 0.0
C2574 C 0.64501 0.74969 0.85053 0.0
C2575 C 0.64159 0.77534 0.88073 0.0
H2576 H 0.64708 0.73585 0.89026 0.0
H2577 H 0.67496 0.7519 0.88032 0.0
H2578 H 0.62917 0.7533 0.88094 0.0
H2579 H 0.63062 0.74443 0.87028 0.0
H2580 H 0.6306 0.73955 0.88349 0.0
H2581 H 0.67488 0.7647 0.86721 0.0
H2582 H 0.66427 0.76393 0.85798 0.0
H2583 H 0.66364 0.7729 0.86864 0.0
H2584 H 0.63214 0.7635 0.84133 0.0
H2585 H 0.62943 0.78517 0.86673 0.0
H2586 H 0.6419 0.74285 0.85489 0.0
H2587 H 0.65363 0.74955 0.85122 0.0
H2588 H 0.64286 0.7488 0.84217 0.0
H2589 H 0.63855 0.76946 0.88636 0.0
H2590 H 0.63813 0.78302 0.88263 0.0
H2591 H 0.65016 0.77589 0.88188 0.0
C2592 C 0.73562 0.66024 0.1406 0.0
C2593 C 0.73909 0.67042 0.13822 0.0
C2594 C 0.74194 0.65328 0.1462 0.0
C2595 C 0.75201 0.65651 0.14956 0.0
C2596 C 0.75561 0.66671 0.14709 0.0
C2597 C 0.74914 0.67352 0.14147 0.0
C2598 C 0.73777 0.64248 0.14865 0.0
C2599 C 0.7663 0.67048 0.15046 0.0
C2600 C 0.76439 0.64196 0.17241 0.0
C2601 C 0.77116 0.63508 0.16731 0.0
C2602 C 0.75819 0.649 0.16676 0.0
C2603 C 0.75875 0.64923 0.1557 0.0
C2604 C 0.76566 0.64241 0.15051 0.0
C2605 C 0.77176 0.63545 0.15635 0.0
C2606 C 0.75094 0.65612 0.17262 0.0
C2607 C 0.76656 0.6424 0.13875 0.0
H2608 H 0.72784 0.65778 0.13828 0.0
H2609 H 0.75198 0.68128 0.13957 0.0
H2610 H 0.74313 0.6365 0.14551 0.0
H2611 H 0.73739 0.64136 0.15724 0.0
H2612 H 0.72987 0.64108 0.14533 0.0
H2613 H 0.768 0.6786 0.14785 0.0
H2614 H 0.76693 0.67018 0.1591 0.0
H2615 H 0.77237 0.66528 0.14725 0.0
H2616 H 0.76374 0.64168 0.18084 0.0
H2617 H 0.77707 0.63031 0.15231 0.0
H2618 H 0.74275 0.65448 0.17027 0.0
H2619 H 0.75268 0.66438 0.17062 0.0
H2620 H 0.75158 0.65517 0.18122 0.0
H2621 H 0.75888 0.64044 0.13522 0.0
H2622 H 0.77239 0.63673 0.13589 0.0
H2623 H 0.76882 0.65031 0.13595 0.0
C2624 C 0.37833 0.77879 0.15855 0.0
C2625 C 0.37765 0.77807 0.16948 0.0
C2626 C 0.37229 0.77227 0.15201 0.0
C2627 C 0.36532 0.76483 0.15646 0.0
C2628 C 0.36471 0.76396 0.16748 0.0
C2629 C 0.37086 0.77056 0.17383 0.0
C2630 C 0.37326 0.77341 0.14032 0.0
C2631 C 0.35737 0.75619 0.17258 0.0
C2632 C 0.34172 0.75508 0.14094 0.0
C2633 C 0.34482 0.74506 0.13782 0.0
C2634 C 0.34837 0.76163 0.14682 0.0
C2635 C 0.35844 0.75816 0.14966 0.0
C2636 C 0.36173 0.74819 0.1463 0.0
C2637 C 0.3549 0.74177 0.14046 0.0
C2638 C 0.34453 0.77221 0.15017 0.0
C2639 C 0.3724 0.74418 0.14912 0.0
H2640 H 0.38363 0.78447 0.15509 0.0
H2641 H 0.37013 0.77001 0.18224 0.0
H2642 H 0.37531 0.76582 0.13675 0.0
H2643 H 0.36566 0.77576 0.13697 0.0
H2644 H 0.37927 0.77931 0.13806 0.0
H2645 H 0.35805 0.75623 0.18123 0.0
H2646 H 0.3492 0.75799 0.17045 0.0
H2647 H 0.35899 0.7482 0.16971 0.0
H2648 H 0.33403 0.7578 0.13881 0.0
H2649 H 0.35737 0.73402 0.13822 0.0
H2650 H 0.35001 0.77841 0.14747 0.0
H2651 H 0.34425 0.77263 0.15882 0.0
H2652 H 0.33663 0.7739 0.14707 0.0
H2653 H 0.37852 0.74987 0.14669 0.0
H2654 H 0.37403 0.73653 0.14541 0.0
H2655 H 0.373 0.74329 0.15771 0.0
C2656 C 0.66611 0.27231 0.14453 0.0
C2657 C 0.66218 0.27519 0.13471 0.0
C2658 C 0.66032 0.2658 0.15131 0.0
C2659 C 0.65032 0.26207 0.14828 0.0
C2660 C 0.64623 0.26508 0.13847 0.0
C2661 C 0.65219 0.27156 0.13182 0.0
C2662 C 0.665 0.2628 0.16169 0.0
C2663 C 0.63561 0.26131 0.13491 0.0
C2664 C 0.6402 0.23694 0.16091 0.0
C2665 C 0.63343 0.24067 0.16867 0.0
C2666 C 0.64565 0.2438 0.15422 0.0
C2667 C 0.64431 0.25471 0.1552 0.0
C2668 C 0.63734 0.25855 0.16286 0.0
C2669 C 0.632 0.2515 0.16949 0.0
C2670 C 0.65296 0.23934 0.14617 0.0
C2671 C 0.63563 0.27011 0.16415 0.0
H2672 H 0.67372 0.27517 0.14694 0.0
H2673 H 0.64911 0.27357 0.12421 0.0
H2674 H 0.65969 0.26505 0.16814 0.0
H2675 H 0.66591 0.25421 0.16208 0.0
H2676 H 0.67274 0.26656 0.16303 0.0
H2677 H 0.63332 0.26474 0.12729 0.0
H2678 H 0.63558 0.25268 0.13414 0.0
H2679 H 0.62961 0.26331 0.14081 0.0
H2680 H 0.64124 0.2286 0.16005 0.0
H2681 H 0.62691 0.25451 0.17551 0.0
H2682 H 0.66101 0.24231 0.14755 0.0
H2683 H 0.65063 0.24191 0.13824 0.0
H2684 H 0.65307 0.23067 0.14632 0.0
H2685 H 0.64308 0.27403 0.16636 0.0
H2686 H 0.62969 0.27184 0.1702 0.0
H2687 H 0.63309 0.27356 0.15663 0.0
C2688 C 0.87952 0.74439 0.65696 0.0
C2689 C 0.87993 0.74544 0.66788 0.0
C2690 C 0.87269 0.75042 0.65088 0.0
C2691 C 0.86604 0.7577 0.65579 0.0
C2692 C 0.86636 0.75874 0.6668 0.0
C2693 C 0.87328 0.75263 0.67269 0.0
C2694 C 0.87267 0.74908 0.63916 0.0
C2695 C 0.85937 0.76633 0.67239 0.0
C2696 C 0.85504 0.78045 0.64009 0.0
C2697 C 0.84478 0.77704 0.63803 0.0
C2698 C 0.86206 0.7742 0.64571 0.0
C2699 C 0.85879 0.76426 0.64942 0.0
C2700 C 0.84851 0.76069 0.64723 0.0
C2701 C 0.84167 0.76709 0.64157 0.0
C2702 C 0.87293 0.77832 0.64785 0.0
C2703 C 0.84469 0.75015 0.65099 0.0
H2704 H 0.88471 0.73898 0.65312 0.0
H2705 H 0.87341 0.75343 0.68112 0.0
H2706 H 0.86472 0.7469 0.63644 0.0
H2707 H 0.87482 0.75657 0.63535 0.0
H2708 H 0.87819 0.743 0.63654 0.0
H2709 H 0.8605 0.76618 0.68099 0.0
H2710 H 0.86094 0.77438 0.66955 0.0
H2711 H 0.85107 0.76446 0.67066 0.0
H2712 H 0.85752 0.78815 0.63755 0.0
H2713 H 0.83384 0.76427 0.63991 0.0
H2714 H 0.8788 0.77272 0.64497 0.0
H2715 H 0.87412 0.77916 0.65639 0.0
H2716 H 0.87442 0.78602 0.6441 0.0
H2717 H 0.84984 0.74393 0.64797 0.0
H2718 H 0.83656 0.74841 0.64847 0.0
H2719 H 0.84503 0.74983 0.65964 0.0
C2720 C 0.24719 0.85176 0.63478 0.0
C2721 C 0.23715 0.8497 0.63874 0.0
C2722 C 0.25412 0.85867 0.63992 0.0
C2723 C 0.25096 0.86371 0.64925 0.0
C2724 C 0.24079 0.86177 0.65319 0.0
C2725 C 0.23404 0.85483 0.64791 0.0
C2726 C 0.26488 0.86051 0.63544 0.0
C2727 C 0.23704 0.86701 0.66305 0.0
C2728 C 0.27131 0.8743 0.66847 0.0
C2729 C 0.27134 0.88504 0.66628 0.0
C2730 C 0.26486 0.86726 0.6629 0.0
C2731 C 0.25823 0.87102 0.65491 0.0
C2732 C 0.25829 0.88183 0.65259 0.0
C2733 C 0.2648 0.88869 0.65829 0.0
C2734 C 0.26507 0.85581 0.66563 0.0
C2735 C 0.25134 0.8862 0.64417 0.0
H2736 H 0.24972 0.84778 0.62777 0.0
H2737 H 0.22626 0.85345 0.65095 0.0
H2738 H 0.26615 0.86895 0.6339 0.0
H2739 H 0.27087 0.8581 0.64119 0.0
H2740 H 0.26612 0.85613 0.62807 0.0
H2741 H 0.2289 0.86472 0.66507 0.0
H2742 H 0.24219 0.86495 0.66968 0.0
H2743 H 0.23744 0.87561 0.66213 0.0
H2744 H 0.27641 0.87135 0.67451 0.0
H2745 H 0.26459 0.89697 0.65661 0.0
H2746 H 0.26699 0.85114 0.65861 0.0
H2747 H 0.25723 0.8532 0.66833 0.0
H2748 H 0.27084 0.85408 0.67185 0.0
H2749 H 0.25281 0.88218 0.63665 0.0
H2750 H 0.25258 0.89473 0.64304 0.0
H2751 H 0.24304 0.88477 0.64623 0.0
C2752 C 0.16606 0.24658 0.64383 0.0
C2753 C 0.16244 0.2443 0.63372 0.0
C2754 C 0.15995 0.25229 0.65094 0.0
C2755 C 0.14994 0.2558 0.64791 0.0
C2756 C 0.14622 0.25345 0.63775 0.0
C2757 C 0.15248 0.24775 0.63082 0.0
C2758 C 0.16423 0.25463 0.66168 0.0
C2759 C 0.13559 0.25695 0.63419 0.0
C2760 C 0.12929 0.26249 0.66825 0.0
C2761 C 0.12951 0.27346 0.66819 0.0
C2762 C 0.13605 0.25666 0.66192 0.0
C2763 C 0.14329 0.26189 0.65532 0.0
C2764 C 0.14378 0.27295 0.65543 0.0
C2765 C 0.1369 0.27859 0.66184 0.0
C2766 C 0.13529 0.24489 0.66211 0.0
C2767 C 0.15137 0.27885 0.64854 0.0
H2768 H 0.17377 0.24407 0.64614 0.0
H2769 H 0.14951 0.24589 0.62311 0.0
H2770 H 0.16476 0.2632 0.66286 0.0
H2771 H 0.15887 0.25147 0.66773 0.0
H2772 H 0.17209 0.25126 0.66289 0.0
H2773 H 0.13384 0.25453 0.62604 0.0
H2774 H 0.12948 0.25365 0.6394 0.0
H2775 H 0.1351 0.26558 0.63469 0.0
H2776 H 0.12376 0.25842 0.67325 0.0
H2777 H 0.1371 0.28705 0.66163 0.0
H2778 H 0.14303 0.24152 0.66382 0.0
H2779 H 0.13284 0.24197 0.65432 0.0
H2780 H 0.12961 0.24199 0.66802 0.0
H2781 H 0.15941 0.27603 0.64983 0.0
H2782 H 0.15124 0.2874 0.65 0.0
H2783 H 0.14942 0.27742 0.64022 0.0
C2784 C 0.76465 0.15823 0.63029 0.0
C2785 C 0.77099 0.16648 0.63396 0.0
C2786 C 0.75827 0.15235 0.63709 0.0
C2787 C 0.75811 0.15477 0.64789 0.0
C2788 C 0.76449 0.16306 0.65167 0.0
C2789 C 0.77084 0.16879 0.64469 0.0
C2790 C 0.75159 0.14361 0.6327 0.0
C2791 C 0.76457 0.16591 0.66311 0.0
C2792 C 0.7341 0.14633 0.66356 0.0
C2793 C 0.73755 0.13726 0.66861 0.0
C2794 C 0.74071 0.15211 0.65688 0.0
C2795 C 0.75107 0.14878 0.65515 0.0
C2796 C 0.75463 0.13967 0.66025 0.0
C2797 C 0.74785 0.13404 0.66691 0.0
C2798 C 0.73659 0.1618 0.65167 0.0
C2799 C 0.76559 0.13581 0.6586 0.0
H2800 H 0.76453 0.15646 0.62201 0.0
H2801 H 0.77578 0.17503 0.64767 0.0
H2802 H 0.75334 0.13619 0.63676 0.0
H2803 H 0.74322 0.14528 0.63407 0.0
H2804 H 0.75283 0.1425 0.62419 0.0
H2805 H 0.77002 0.17249 0.66485 0.0
H2806 H 0.75661 0.16814 0.66562 0.0
H2807 H 0.76685 0.15907 0.66786 0.0
H2808 H 0.72624 0.14903 0.66494 0.0
H2809 H 0.75058 0.12702 0.67069 0.0
H2810 H 0.73704 0.16096 0.64306 0.0
H2811 H 0.74148 0.16866 0.65385 0.0
H2812 H 0.72837 0.16338 0.65387 0.0
H2813 H 0.76684 0.13403 0.65022 0.0
H2814 H 0.76723 0.12869 0.66324 0.0
H2815 H 0.77132 0.14199 0.6608 0.0
C2816 C 0.8418 0.25448 0.37743 0.0
C2817 C 0.84534 0.24517 0.38195 0.0
C2818 C 0.84845 0.26089 0.37139 0.0
C2819 C 0.85899 0.25803 0.36987 0.0
C2820 C 0.86274 0.24886 0.37472 0.0
C2821 C 0.85588 0.24254 0.38065 0.0
C2822 C 0.8441 0.27058 0.36639 0.0
C2823 C 0.87392 0.24556 0.37338 0.0
C2824 C 0.87207 0.26848 0.34516 0.0
C2825 C 0.87758 0.27729 0.34885 0.0
C2826 C 0.8662 0.26206 0.35193 0.0
C2827 C 0.86587 0.26437 0.36275 0.0
C2828 C 0.87172 0.27301 0.3666 0.0
C2829 C 0.87746 0.27937 0.35963 0.0
C2830 C 0.86012 0.25294 0.34745 0.0
C2831 C 0.87167 0.27571 0.37807 0.0
H2832 H 0.83376 0.25675 0.37853 0.0
H2833 H 0.85872 0.23534 0.38399 0.0
H2834 H 0.84884 0.27752 0.36865 0.0
H2835 H 0.84452 0.26988 0.35776 0.0
H2836 H 0.83585 0.27194 0.36864 0.0
H2837 H 0.87586 0.23873 0.37833 0.0
H2838 H 0.87536 0.2435 0.3651 0.0
H2839 H 0.87931 0.25211 0.37538 0.0
H2840 H 0.87225 0.26664 0.3369 0.0
H2841 H 0.88158 0.28617 0.3626 0.0
H2842 H 0.85165 0.25408 0.34877 0.0
H2843 H 0.8623 0.24562 0.35148 0.0
H2844 H 0.86147 0.25196 0.33894 0.0
H2845 H 0.86372 0.27812 0.38045 0.0
H2846 H 0.87724 0.28215 0.37997 0.0
H2847 H 0.87369 0.26877 0.38281 0.0
C2848 C 0.76482 0.84839 0.37877 0.0
C2849 C 0.77159 0.85349 0.38578 0.0
C2850 C 0.75864 0.85404 0.3717 0.0
C2851 C 0.75919 0.8651 0.37159 0.0
C2852 C 0.76611 0.8703 0.37854 0.0
C2853 C 0.7722 0.86445 0.38552 0.0
C2854 C 0.75138 0.84816 0.36444 0.0
C2855 C 0.76701 0.88206 0.37867 0.0
C2856 C 0.74953 0.87945 0.34734 0.0
C2857 C 0.73948 0.88253 0.35037 0.0
C2858 C 0.75603 0.87384 0.35415 0.0
C2859 C 0.75245 0.87123 0.3643 0.0
C2860 C 0.74238 0.87442 0.36746 0.0
C2861 C 0.73603 0.88001 0.36049 0.0
C2862 C 0.76671 0.87065 0.35045 0.0
C2863 C 0.73823 0.87181 0.3782 0.0
H2864 H 0.76416 0.83995 0.37896 0.0
H2865 H 0.77751 0.8685 0.39077 0.0
H2866 H 0.74319 0.85039 0.36601 0.0
H2867 H 0.75312 0.85028 0.35621 0.0
H2868 H 0.75203 0.83957 0.3653 0.0
H2869 H 0.77286 0.88492 0.38443 0.0
H2870 H 0.76926 0.88496 0.37081 0.0
H2871 H 0.75934 0.88548 0.38059 0.0
H2872 H 0.75236 0.88146 0.33961 0.0
H2873 H 0.72825 0.88218 0.36289 0.0
H2874 H 0.76735 0.86203 0.35067 0.0
H2875 H 0.77279 0.87389 0.35575 0.0
H2876 H 0.76839 0.87337 0.34238 0.0
H2877 H 0.73785 0.86322 0.37923 0.0
H2878 H 0.73033 0.87503 0.37956 0.0
H2879 H 0.7436 0.87496 0.38426 0.0
C2880 C 0.13123 0.7426 0.36032 0.0
C2881 C 0.1336 0.74287 0.34961 0.0
C2882 C 0.13667 0.74897 0.36752 0.0
C2883 C 0.14473 0.75577 0.36398 0.0
C2884 C 0.14699 0.75626 0.35316 0.0
C2885 C 0.14139 0.74986 0.34614 0.0
C2886 C 0.13396 0.74822 0.37897 0.0
C2887 C 0.15549 0.7634 0.34901 0.0
C2888 C 0.15418 0.77816 0.38148 0.0
C2889 C 0.16321 0.774 0.38599 0.0
C2890 C 0.14807 0.77233 0.37437 0.0
C2891 C 0.15107 0.76208 0.37161 0.0
C2892 C 0.16022 0.75786 0.37606 0.0
C2893 C 0.16615 0.76384 0.38319 0.0
C2894 C 0.13836 0.77712 0.36985 0.0
C2895 C 0.16379 0.74702 0.37328 0.0
H2896 H 0.12532 0.73718 0.36315 0.0
H2897 H 0.14318 0.75032 0.33788 0.0
H2898 H 0.14073 0.74518 0.38338 0.0
H2899 H 0.13225 0.75608 0.38214 0.0
H2900 H 0.12712 0.74302 0.38042 0.0
H2901 H 0.15608 0.76311 0.34036 0.0
H2902 H 0.15401 0.77157 0.35142 0.0
H2903 H 0.16312 0.76115 0.35238 0.0
H2904 H 0.15175 0.78594 0.38368 0.0
H2905 H 0.17318 0.76059 0.38649 0.0
H2906 H 0.13143 0.77225 0.37188 0.0
H2907 H 0.13889 0.77733 0.36121 0.0
H2908 H 0.1371 0.78518 0.37275 0.0
H2909 H 0.1576 0.74122 0.37526 0.0
H2910 H 0.17106 0.74486 0.37743 0.0
H2911 H 0.16518 0.74648 0.36475 0.0
C2912 C 0.2644 0.14159 0.34835 0.0
C2913 C 0.27101 0.1346 0.35351 0.0
C2914 C 0.25818 0.14866 0.35395 0.0
C2915 C 0.25854 0.14879 0.36502 0.0
C2916 C 0.2653 0.14187 0.37027 0.0
C2917 C 0.27143 0.13489 0.36447 0.0
C2918 C 0.2511 0.15589 0.34802 0.0
C2919 C 0.26599 0.14177 0.38204 0.0
C2920 C 0.24886 0.17302 0.37931 0.0
C2921 C 0.23873 0.16996 0.38236 0.0
C2922 C 0.25538 0.16623 0.37373 0.0
C2923 C 0.25175 0.15607 0.3711 0.0
C2924 C 0.2416 0.15288 0.37425 0.0
C2925 C 0.23524 0.15983 0.37982 0.0
C2926 C 0.26615 0.16995 0.37058 0.0
C2927 C 0.2374 0.14214 0.37162 0.0
H2928 H 0.26389 0.14137 0.3399 0.0
H2929 H 0.27661 0.12966 0.36856 0.0
H2930 H 0.24286 0.1543 0.3502 0.0
H2931 H 0.25287 0.16412 0.35014 0.0
H2932 H 0.2519 0.15502 0.33943 0.0
H2933 H 0.27174 0.13603 0.38495 0.0
H2934 H 0.26825 0.14963 0.38495 0.0
H2935 H 0.25824 0.13982 0.38542 0.0
H2936 H 0.25172 0.18075 0.38134 0.0
H2937 H 0.2274 0.15741 0.38197 0.0
H2938 H 0.26694 0.16972 0.36196 0.0
H2939 H 0.27213 0.16468 0.37386 0.0
H2940 H 0.26786 0.17803 0.37329 0.0
H2941 H 0.23717 0.1411 0.36302 0.0
H2942 H 0.22943 0.14076 0.37478 0.0
H2943 H 0.24265 0.13609 0.3748 0.0
C2944 C 0.62982 0.85762 0.77237 0.0
C2945 C 0.63519 0.84992 0.77796 0.0
C2946 C 0.63514 0.86456 0.76562 0.0
C2947 C 0.6461 0.86378 0.76435 0.0
C2948 C 0.65151 0.85586 0.76976 0.0
C2949 C 0.64601 0.84906 0.77647 0.0
C2950 C 0.62907 0.87289 0.76003 0.0
C2951 C 0.66316 0.85466 0.7686 0.0
C2952 C 0.65953 0.87679 0.74096 0.0
C2953 C 0.66356 0.88603 0.74539 0.0
C2954 C 0.65378 0.86953 0.74699 0.0
C2955 C 0.652 0.8715 0.75773 0.0
C2956 C 0.65607 0.88079 0.76225 0.0
C2957 C 0.66178 0.88791 0.75605 0.0
C2958 C 0.6496 0.85974 0.74185 0.0
C2959 C 0.65444 0.8832 0.77367 0.0
H2960 H 0.62149 0.85841 0.77351 0.0
H2961 H 0.65021 0.84303 0.78058 0.0
H2962 H 0.63174 0.88071 0.7627 0.0
H2963 H 0.63052 0.87247 0.7515 0.0
H2964 H 0.62054 0.87216 0.76144 0.0
H2965 H 0.66615 0.84786 0.77301 0.0
H2966 H 0.66523 0.85372 0.76024 0.0
H2967 H 0.66722 0.86182 0.77144 0.0
H2968 H 0.66074 0.8753 0.73272 0.0
H2969 H 0.66499 0.89491 0.75963 0.0
H2970 H 0.64098 0.85935 0.74265 0.0
H2971 H 0.65277 0.85275 0.74581 0.0
H2972 H 0.65163 0.85935 0.73342 0.0
H2973 H 0.64597 0.88329 0.77548 0.0
H2974 H 0.65793 0.89084 0.77596 0.0
H2975 H 0.65797 0.87701 0.77854 0.0
C2976 C 0.13016 0.65567 0.74183 0.0
C2977 C 0.12858 0.66628 0.74403 0.0
C2978 C 0.13687 0.64957 0.74796 0.0
C2979 C 0.14219 0.65414 0.75655 0.0
C2980 C 0.14083 0.6649 0.75868 0.0
C2981 C 0.13407 0.67083 0.75241 0.0
C2982 C 0.13812 0.63816 0.74533 0.0
C2983 C 0.14633 0.6701 0.76775 0.0
C2984 C 0.15049 0.6356 0.77827 0.0
C2985 C 0.16109 0.63403 0.77601 0.0
C2986 C 0.14434 0.64226 0.77214 0.0
C2987 C 0.14885 0.64754 0.76349 0.0
C2988 C 0.15959 0.64619 0.7613 0.0
C2989 C 0.16557 0.63948 0.76757 0.0
C2990 C 0.13295 0.6435 0.77483 0.0
C2991 C 0.16472 0.65165 0.75217 0.0
H2992 H 0.12612 0.6521 0.73529 0.0
H2993 H 0.13286 0.67898 0.75426 0.0
H2994 H 0.14649 0.63639 0.74415 0.0
H2995 H 0.13531 0.63328 0.75194 0.0
H2996 H 0.13374 0.63586 0.73819 0.0
H2997 H 0.14488 0.67863 0.76806 0.0
H2998 H 0.14363 0.66653 0.77518 0.0
H2999 H 0.15486 0.66885 0.76721 0.0
H3000 H 0.14697 0.63158 0.78486 0.0
H3001 H 0.17371 0.63826 0.76567 0.0
H3002 H 0.12804 0.64063 0.76827 0.0
H3003 H 0.13116 0.65188 0.77597 0.0
H3004 H 0.13071 0.63916 0.78201 0.0
H3005 H 0.16113 0.6489 0.74478 0.0
H3006 H 0.17325 0.65023 0.75182 0.0
H3007 H 0.16345 0.66019 0.75266 0.0
C3008 C 0.37623 0.17255 0.76513 0.0
C3009 C 0.37722 0.17038 0.77584 0.0
C3010 C 0.37021 0.16607 0.75852 0.0
C3011 C 0.36503 0.15716 0.76267 0.0
C3012 C 0.36621 0.15477 0.77341 0.0
C3013 C 0.37226 0.16139 0.77985 0.0
C3014 C 0.36923 0.1689 0.74713 0.0
C3015 C 0.36083 0.14537 0.77817 0.0
C3016 C 0.34083 0.14709 0.7483 0.0
C3017 C 0.34473 0.13859 0.74262 0.0
C3018 C 0.34732 0.1531 0.75488 0.0
C3019 C 0.35802 0.15062 0.75587 0.0
C3020 C 0.362 0.14201 0.75024 0.0
C3021 C 0.35533 0.13613 0.74369 0.0
C3022 C 0.34273 0.16223 0.76069 0.0
C3023 C 0.37333 0.13905 0.75109 0.0
H3024 H 0.38014 0.17936 0.7619 0.0
H3025 H 0.37283 0.15969 0.78811 0.0
H3026 H 0.37163 0.16225 0.74217 0.0
H3027 H 0.36096 0.17056 0.74525 0.0
H3028 H 0.37405 0.17585 0.74502 0.0
H3029 H 0.363 0.14423 0.78649 0.0
H3030 H 0.35225 0.14628 0.77768 0.0
H3031 H 0.36283 0.13822 0.77375 0.0
H3032 H 0.33272 0.14921 0.74742 0.0
H3033 H 0.35842 0.12953 0.73944 0.0
H3034 H 0.34671 0.16957 0.75825 0.0
H3035 H 0.34403 0.16132 0.7692 0.0
H3036 H 0.33422 0.16301 0.75927 0.0
H3037 H 0.37837 0.14564 0.74847 0.0
H3038 H 0.3752 0.13205 0.74635 0.0
H3039 H 0.37534 0.13745 0.75936 0.0
C3040 C 0.84304 0.38029 0.76552 0.0
C3041 C 0.84594 0.38329 0.77569 0.0
C3042 C 0.84987 0.3747 0.75903 0.0
C3043 C 0.85991 0.37201 0.76273 0.0
C3044 C 0.86294 0.37512 0.77292 0.0
C3045 C 0.85595 0.38069 0.77926 0.0
C3046 C 0.84631 0.3716 0.74821 0.0
C3047 C 0.87355 0.37242 0.77721 0.0
C3048 C 0.87422 0.3492 0.75016 0.0
C3049 C 0.88144 0.35432 0.74362 0.0
C3050 C 0.86713 0.35483 0.75633 0.0
C3051 C 0.86721 0.3659 0.75599 0.0
C3052 C 0.87437 0.37111 0.7493 0.0
C3053 C 0.88137 0.36529 0.74322 0.0
C3054 C 0.85965 0.34894 0.76334 0.0
C3055 C 0.8747 0.38288 0.74863 0.0
H3056 H 0.8354 0.38235 0.76261 0.0
H3057 H 0.85826 0.38281 0.78712 0.0
H3058 H 0.85177 0.37485 0.74229 0.0
H3059 H 0.8464 0.36298 0.74741 0.0
H3060 H 0.83832 0.37437 0.74645 0.0
H3061 H 0.87482 0.37557 0.7852 0.0
H3062 H 0.87443 0.36382 0.77743 0.0
H3063 H 0.87976 0.37558 0.77201 0.0
H3064 H 0.87426 0.34075 0.75065 0.0
H3065 H 0.88678 0.36935 0.73809 0.0
H3066 H 0.8515 0.35111 0.7615 0.0
H3067 H 0.8611 0.35111 0.77161 0.0
H3068 H 0.86039 0.34034 0.76254 0.0
H3069 H 0.86694 0.38584 0.7463 0.0
H3070 H 0.88061 0.38576 0.74294 0.0
H3071 H 0.87654 0.38624 0.75641 0.0
C3072 C 0.66611 0.13918 0.26607 0.0
C3073 C 0.66227 0.13442 0.27522 0.0
C3074 C 0.6598 0.14574 0.25998 0.0
C3075 C 0.64935 0.1476 0.26304 0.0
C3076 C 0.64549 0.14296 0.27234 0.0
C3077 C 0.65197 0.13646 0.2783 0.0
C3078 C 0.66428 0.15059 0.2502 0.0
C3079 C 0.6344 0.14467 0.27588 0.0
C3080 C 0.63466 0.17093 0.25193 0.0
C3081 C 0.62844 0.16623 0.24416 0.0
C3082 C 0.64158 0.16501 0.25804 0.0
C3083 C 0.64235 0.15411 0.25636 0.0
C3084 C 0.63623 0.14935 0.24842 0.0
C3085 C 0.62938 0.15545 0.24244 0.0
C3086 C 0.64793 0.17041 0.26641 0.0
C3087 C 0.63684 0.13778 0.2463 0.0
H3088 H 0.67408 0.13778 0.26368 0.0
H3089 H 0.64887 0.13274 0.28525 0.0
H3090 H 0.65983 0.14781 0.24329 0.0
H3091 H 0.66352 0.15921 0.2505 0.0
H3092 H 0.67264 0.14868 0.24907 0.0
H3093 H 0.63268 0.14081 0.28347 0.0
H3094 H 0.6329 0.15314 0.27666 0.0
H3095 H 0.62889 0.14156 0.26993 0.0
H3096 H 0.63394 0.17922 0.25342 0.0
H3097 H 0.62476 0.15174 0.23637 0.0
H3098 H 0.65635 0.16888 0.26524 0.0
H3099 H 0.64576 0.16723 0.27418 0.0
H3100 H 0.64675 0.17899 0.26648 0.0
H3101 H 0.64499 0.13563 0.24444 0.0
H3102 H 0.63173 0.1353 0.23973 0.0
H3103 H 0.63451 0.13335 0.25338 0.0
C3104 C 0.84084 0.64693 0.25022 0.0
C3105 C 0.84506 0.63924 0.2437 0.0
C3106 C 0.84722 0.65306 0.25681 0.0
C3107 C 0.85815 0.6515 0.25695 0.0
C3108 C 0.86247 0.64367 0.2505 0.0
C3109 C 0.8559 0.63766 0.24395 0.0
C3110 C 0.84226 0.66134 0.26351 0.0
C3111 C 0.87405 0.64169 0.25044 0.0
C3112 C 0.87507 0.67437 0.26636 0.0
C3113 C 0.87703 0.6717 0.27681 0.0
C3114 C 0.86914 0.6678 0.25978 0.0
C3115 C 0.86503 0.65825 0.26369 0.0
C3116 C 0.86719 0.65537 0.27415 0.0
C3117 C 0.87313 0.66211 0.28057 0.0
C3118 C 0.86709 0.67117 0.24868 0.0
C3119 C 0.86299 0.64527 0.27865 0.0
H3120 H 0.83252 0.64837 0.24998 0.0
H3121 H 0.85925 0.63167 0.23905 0.0
H3122 H 0.84425 0.66006 0.27184 0.0
H3123 H 0.84538 0.66915 0.2613 0.0
H3124 H 0.83363 0.6614 0.26272 0.0
H3125 H 0.87618 0.63516 0.24517 0.0
H3126 H 0.87832 0.64883 0.24789 0.0
H3127 H 0.87676 0.63984 0.25845 0.0
H3128 H 0.87817 0.68166 0.2633 0.0
H3129 H 0.87446 0.65999 0.28865 0.0
H3130 H 0.85859 0.67214 0.24747 0.0
H3131 H 0.86972 0.66507 0.24315 0.0
H3132 H 0.87112 0.67864 0.24671 0.0
H3133 H 0.85433 0.64543 0.27878 0.0
H3134 H 0.86583 0.64387 0.28672 0.0
H3135 H 0.86528 0.6386 0.27366 0.0
C3136 C 0.35601 0.8794 0.27973 0.0
C3137 C 0.34633 0.88269 0.27586 0.0
C3138 C 0.363 0.8738 0.27344 0.0
C3139 C 0.36031 0.87138 0.26297 0.0
C3140 C 0.35061 0.87476 0.25897 0.0
C3141 C 0.34376 0.88036 0.26544 0.0
C3142 C 0.37325 0.87036 0.27804 0.0
C3143 C 0.34742 0.8724 0.24786 0.0
C3144 C 0.38234 0.86464 0.24412 0.0
C3145 C 0.3819 0.85367 0.24394 0.0
C3146 C 0.37533 0.87048 0.25017 0.0
C3147 C 0.36763 0.86527 0.25624 0.0
C3148 C 0.36703 0.85421 0.25599 0.0
C3149 C 0.37415 0.84857 0.24986 0.0
C3150 C 0.37623 0.88224 0.25014 0.0
C3151 C 0.35896 0.84833 0.26232 0.0
H3152 H 0.35803 0.88099 0.2878 0.0
H3153 H 0.33639 0.88296 0.2623 0.0
H3154 H 0.37371 0.86172 0.27783 0.0
H3155 H 0.37983 0.87347 0.2733 0.0
H3156 H 0.37428 0.87301 0.28624 0.0
H3157 H 0.33966 0.87564 0.2459 0.0
H3158 H 0.35329 0.87569 0.24237 0.0
H3159 H 0.34715 0.86383 0.24661 0.0
H3160 H 0.38817 0.8687 0.23946 0.0
H3161 H 0.37379 0.84011 0.24991 0.0
H3162 H 0.37786 0.8851 0.25817 0.0
H3163 H 0.36873 0.88569 0.24764 0.0
H3164 H 0.38252 0.88513 0.24488 0.0
H3165 H 0.36012 0.84997 0.27075 0.0
H3166 H 0.35933 0.83976 0.26108 0.0
H3167 H 0.35102 0.85099 0.26024 0.0
C3168 C 0.13976 0.34473 0.26778 0.0
C3169 C 0.13376 0.34833 0.27621 0.0
C3170 C 0.14542 0.35168 0.26135 0.0
C3171 C 0.14506 0.36256 0.2633 0.0
C3172 C 0.13882 0.36628 0.27161 0.0
C3173 C 0.13327 0.35914 0.27797 0.0
C3174 C 0.15194 0.34735 0.25257 0.0
C3175 C 0.13818 0.3778 0.27395 0.0
C3176 C 0.16773 0.37971 0.25381 0.0
C3177 C 0.16367 0.38413 0.24466 0.0
C3178 C 0.16178 0.37269 0.25991 0.0
C3179 C 0.15147 0.37 0.25684 0.0
C3180 C 0.14734 0.37439 0.24758 0.0
C3181 C 0.15348 0.38136 0.24161 0.0
C3182 C 0.16656 0.36814 0.26965 0.0
C3183 C 0.13637 0.3718 0.24404 0.0
H3184 H 0.14006 0.33643 0.26621 0.0
H3185 H 0.12879 0.36204 0.2845 0.0
H3186 H 0.14959 0.3509 0.24504 0.0
H3187 H 0.16027 0.34941 0.25385 0.0
H3188 H 0.15119 0.33873 0.25191 0.0
H3189 H 0.13258 0.37949 0.28035 0.0
H3190 H 0.14599 0.38085 0.27624 0.0
H3191 H 0.13575 0.38212 0.26686 0.0
H3192 H 0.17563 0.38167 0.25618 0.0
H3193 H 0.1502 0.38482 0.23463 0.0
H3194 H 0.16662 0.35949 0.26909 0.0
H3195 H 0.16178 0.37018 0.27656 0.0
H3196 H 0.17467 0.37098 0.27096 0.0
H3197 H 0.13548 0.36325 0.2429 0.0
H3198 H 0.13432 0.37579 0.23663 0.0
H3199 H 0.13071 0.37411 0.25015 0.0
C3200 C 0.74347 0.66257 0.88687 0.0
C3201 C 0.73837 0.67074 0.88171 0.0
C3202 C 0.74978 0.6555 0.88137 0.0
C3203 C 0.75103 0.65655 0.87042 0.0
C3204 C 0.74595 0.6648 0.86518 0.0
C3205 C 0.73971 0.67176 0.87086 0.0
C3206 C 0.75507 0.64686 0.88728 0.0
C3207 C 0.747 0.6662 0.85351 0.0
C3208 C 0.77407 0.6435 0.85687 0.0
C3209 C 0.76943 0.63438 0.85279 0.0
C3210 C 0.76821 0.65074 0.86264 0.0
C3211 C 0.75742 0.64889 0.86438 0.0
C3212 C 0.75268 0.63974 0.86024 0.0
C3213 C 0.75872 0.63263 0.85452 0.0
C3214 C 0.77359 0.66038 0.86692 0.0
C3215 C 0.7412 0.63746 0.86182 0.0
H3216 H 0.7426 0.66176 0.89525 0.0
H3217 H 0.73569 0.67791 0.86674 0.0
H3218 H 0.75235 0.63916 0.8843 0.0
H3219 H 0.76363 0.6473 0.88602 0.0
H3220 H 0.7535 0.64721 0.89581 0.0
H3221 H 0.74276 0.67315 0.85063 0.0
H3222 H 0.75535 0.66704 0.85135 0.0
H3223 H 0.74389 0.65918 0.84943 0.0
H3224 H 0.78234 0.64489 0.85571 0.0
H3225 H 0.75499 0.62571 0.85128 0.0
H3226 H 0.77279 0.66058 0.87555 0.0
H3227 H 0.76981 0.66748 0.86382 0.0
H3228 H 0.78202 0.6607 0.8649 0.0
H3229 H 0.7394 0.6371 0.87029 0.0
H3230 H 0.7387 0.62998 0.85816 0.0
H3231 H 0.73651 0.64385 0.85845 0.0
C3232 C 0.77529 0.37936 0.16177 0.0
C3233 C 0.77035 0.38615 0.16878 0.0
C3234 C 0.7695 0.3722 0.15567 0.0
C3235 C 0.75848 0.37174 0.15659 0.0
C3236 C 0.75346 0.37849 0.16372 0.0
C3237 C 0.75943 0.38558 0.16971 0.0
C3238 C 0.77518 0.36517 0.14816 0.0
C3239 C 0.74175 0.37823 0.16503 0.0
C3240 C 0.7419 0.3603 0.13446 0.0
C3241 C 0.73946 0.35026 0.13824 0.0
C3242 C 0.7482 0.36729 0.14026 0.0
C3243 C 0.75217 0.36423 0.15011 0.0
C3244 C 0.74984 0.35408 0.15391 0.0
C3245 C 0.74354 0.34725 0.14796 0.0
C3246 C 0.75051 0.37801 0.13588 0.0
C3247 C 0.75386 0.35048 0.16438 0.0
H3248 H 0.7837 0.3798 0.16089 0.0
H3249 H 0.75553 0.39064 0.1752 0.0
H3250 H 0.77338 0.35688 0.14998 0.0
H3251 H 0.77247 0.36664 0.14008 0.0
H3252 H 0.78377 0.36638 0.14845 0.0
H3253 H 0.73903 0.38394 0.17094 0.0
H3254 H 0.73793 0.37998 0.15746 0.0
H3255 H 0.73912 0.37031 0.16743 0.0
H3256 H 0.73893 0.36268 0.12692 0.0
H3257 H 0.74159 0.3396 0.15106 0.0
H3258 H 0.75907 0.37933 0.13539 0.0
H3259 H 0.74734 0.38405 0.14117 0.0
H3260 H 0.74709 0.37911 0.12799 0.0
H3261 H 0.76248 0.35127 0.16465 0.0
H3262 H 0.75167 0.34224 0.16607 0.0
H3263 H 0.75068 0.3555 0.17066 0.0
C3264 C 0.64073 0.77658 0.16695 0.0
C3265 C 0.63011 0.77386 0.16779 0.0
C3266 C 0.64754 0.77088 0.16051 0.0
C3267 C 0.64366 0.76223 0.15472 0.0
C3268 C 0.63298 0.75939 0.1556 0.0
C3269 C 0.62636 0.76523 0.16207 0.0
C3270 C 0.65886 0.77417 0.15983 0.0
C3271 C 0.62848 0.75026 0.14957 0.0
C3272 C 0.65777 0.75345 0.13004 0.0
C3273 C 0.66305 0.74452 0.13345 0.0
C3274 C 0.65161 0.75935 0.1369 0.0
C3275 C 0.65066 0.75631 0.1475 0.0
C3276 C 0.65613 0.74744 0.15106 0.0
C3277 C 0.66224 0.74166 0.14401 0.0
C3278 C 0.64599 0.76878 0.13275 0.0
C3279 C 0.65535 0.74391 0.16228 0.0
H3280 H 0.64378 0.78313 0.17141 0.0
H3281 H 0.61815 0.76314 0.16248 0.0
H3282 H 0.66393 0.76757 0.16206 0.0
H3283 H 0.66085 0.77629 0.15166 0.0
H3284 H 0.66072 0.78093 0.16496 0.0
H3285 H 0.6201 0.74885 0.15135 0.0
H3286 H 0.62931 0.75171 0.14106 0.0
H3287 H 0.63287 0.74307 0.15139 0.0
H3288 H 0.65848 0.75587 0.12196 0.0
H3289 H 0.66619 0.73474 0.14674 0.0
H3290 H 0.64821 0.77581 0.13733 0.0
H3291 H 0.63743 0.76764 0.13364 0.0
H3292 H 0.64774 0.77028 0.12439 0.0
H3293 H 0.65756 0.75041 0.16759 0.0
H3294 H 0.66043 0.73715 0.16395 0.0
H3295 H 0.64716 0.74168 0.16411 0.0
C3296 C 0.2367 0.63664 0.15839 0.0
C3297 C 0.23749 0.63758 0.1693 0.0
C3298 C 0.24331 0.64238 0.15168 0.0
C3299 C 0.25096 0.64926 0.15592 0.0
C3300 C 0.25189 0.65014 0.16691 0.0
C3301 C 0.24517 0.64432 0.17344 0.0
C3302 C 0.24206 0.64114 0.14002 0.0
C3303 C 0.25991 0.65738 0.17177 0.0
C3304 C 0.27375 0.65764 0.13846 0.0
C3305 C 0.27064 0.66755 0.13504 0.0
C3306 C 0.2675 0.65167 0.14532 0.0
C3307 C 0.25784 0.65564 0.14885 0.0
C3308 C 0.2547 0.66567 0.1455 0.0
C3309 C 0.26112 0.67149 0.13868 0.0
C3310 C 0.2712 0.64106 0.14874 0.0
C3311 C 0.24446 0.6702 0.14902 0.0
H3312 H 0.23091 0.63137 0.15509 0.0
H3313 H 0.24578 0.64525 0.18183 0.0
H3314 H 0.24011 0.64877 0.13645 0.0
H3315 H 0.24952 0.63859 0.1365 0.0
H3316 H 0.23585 0.63539 0.13795 0.0
H3317 H 0.25987 0.65695 0.18044 0.0
H3318 H 0.26782 0.65543 0.16892 0.0
H3319 H 0.25836 0.66555 0.16941 0.0
H3320 H 0.28114 0.65457 0.13583 0.0
H3321 H 0.25856 0.67906 0.13599 0.0
H3322 H 0.26551 0.63496 0.14625 0.0
H3323 H 0.27168 0.64074 0.15738 0.0
H3324 H 0.27897 0.63915 0.14544 0.0
H3325 H 0.23791 0.6651 0.1464 0.0
H3326 H 0.24324 0.67819 0.14591 0.0
H3327 H 0.24416 0.67051 0.15767 0.0
C3328 C 0.34336 0.26608 0.13925 0.0
C3329 C 0.34604 0.2765 0.13695 0.0
C3330 C 0.35011 0.25963 0.14496 0.0
C3331 C 0.35984 0.26364 0.1485 0.0
C3332 C 0.36268 0.2741 0.14607 0.0
C3333 C 0.35577 0.28038 0.14035 0.0
C3334 C 0.34678 0.24853 0.14731 0.0
C3335 C 0.37295 0.27871 0.14968 0.0
C3336 C 0.37309 0.2507 0.17181 0.0
C3337 C 0.38073 0.24459 0.16698 0.0
C3338 C 0.36623 0.25687 0.1659 0.0
C3339 C 0.36699 0.25698 0.15486 0.0
C3340 C 0.37464 0.25078 0.14993 0.0
C3341 C 0.38139 0.24469 0.15602 0.0
C3342 C 0.35816 0.26329 0.1715 0.0
C3343 C 0.37576 0.25067 0.13819 0.0
H3344 H 0.33595 0.26293 0.13655 0.0
H3345 H 0.35789 0.28844 0.13878 0.0
H3346 H 0.35264 0.24303 0.14422 0.0
H3347 H 0.34637 0.24734 0.15588 0.0
H3348 H 0.33906 0.24653 0.14387 0.0
H3349 H 0.37415 0.28685 0.14689 0.0
H3350 H 0.37329 0.27868 0.15833 0.0
H3351 H 0.3795 0.27389 0.14683 0.0
H3352 H 0.37239 0.2506 0.18024 0.0
H3353 H 0.38735 0.24014 0.15218 0.0
H3354 H 0.35023 0.26104 0.1688 0.0
H3355 H 0.35933 0.27168 0.16962 0.0
H3356 H 0.35852 0.26232 0.18012 0.0
H3357 H 0.36827 0.24827 0.13452 0.0
H3358 H 0.38195 0.24529 0.13553 0.0
H3359 H 0.37767 0.25865 0.13534 0.0
C3360 C 0.27345 0.35488 0.87566 0.0
C3361 C 0.26989 0.35285 0.88585 0.0
C3362 C 0.26734 0.36049 0.86847 0.0
C3363 C 0.25741 0.36418 0.8715 0.0
C3364 C 0.25376 0.36215 0.88175 0.0
C3365 C 0.26001 0.35652 0.88876 0.0
C3366 C 0.27154 0.36247 0.85763 0.0
C3367 C 0.24321 0.36587 0.88532 0.0
C3368 C 0.24448 0.38637 0.85647 0.0
C3369 C 0.23711 0.38096 0.85034 0.0
C3370 C 0.25124 0.38102 0.86325 0.0
C3371 C 0.25069 0.36998 0.86392 0.0
C3372 C 0.24342 0.36447 0.85758 0.0
C3373 C 0.23675 0.37001 0.85091 0.0
C3374 C 0.25884 0.38721 0.86988 0.0
C3375 C 0.24259 0.35271 0.85795 0.0
H3376 H 0.2811 0.35221 0.87333 0.0
H3377 H 0.25707 0.35487 0.89653 0.0
H3378 H 0.26615 0.35905 0.85173 0.0
H3379 H 0.272 0.37099 0.85612 0.0
H3380 H 0.27941 0.3591 0.85648 0.0
H3381 H 0.24158 0.36384 0.8936 0.0
H3382 H 0.24273 0.37446 0.88442 0.0
H3383 H 0.237 0.36234 0.88037 0.0
H3384 H 0.24479 0.39482 0.85616 0.0
H3385 H 0.23124 0.36572 0.84607 0.0
H3386 H 0.2669 0.38442 0.86858 0.0
H3387 H 0.257 0.38601 0.87827 0.0
H3388 H 0.25862 0.39571 0.86816 0.0
H3389 H 0.25029 0.34922 0.85624 0.0
H3390 H 0.23678 0.34956 0.8523 0.0
H3391 H 0.2403 0.35015 0.86592 0.0
C3392 C 0.6673 0.26592 0.88077 0.0
C3393 C 0.66313 0.27516 0.88484 0.0
C3394 C 0.66151 0.2595 0.87391 0.0
C3395 C 0.65127 0.26237 0.87097 0.0
C3396 C 0.64707 0.27176 0.87494 0.0
C3397 C 0.65302 0.27801 0.88181 0.0
C3398 C 0.6663 0.24956 0.86991 0.0
C3399 C 0.63623 0.27517 0.87197 0.0
C3400 C 0.63958 0.25015 0.84632 0.0
C3401 C 0.63324 0.24211 0.85041 0.0
C3402 C 0.64541 0.25683 0.8529 0.0
C3403 C 0.64493 0.25549 0.86387 0.0
C3404 C 0.63846 0.24747 0.86806 0.0
C3405 C 0.63272 0.2409 0.8613 0.0
C3406 C 0.65221 0.26524 0.84809 0.0
C3407 C 0.63765 0.24578 0.8797 0.0
H3408 H 0.67504 0.26355 0.88315 0.0
H3409 H 0.64976 0.28519 0.88478 0.0
H3410 H 0.66154 0.24274 0.87248 0.0
H3411 H 0.66635 0.24954 0.86125 0.0
H3412 H 0.67443 0.24854 0.87273 0.0
H3413 H 0.63414 0.28275 0.87558 0.0
H3414 H 0.63562 0.27592 0.86336 0.0
H3415 H 0.63042 0.26917 0.87444 0.0
H3416 H 0.64019 0.25108 0.83793 0.0
H3417 H 0.62776 0.23482 0.86457 0.0
H3418 H 0.6605 0.26393 0.85017 0.0
H3419 H 0.65006 0.27299 0.85124 0.0
H3420 H 0.65153 0.26546 0.83944 0.0
H3421 H 0.64546 0.24401 0.88295 0.0
H3422 H 0.6322 0.23929 0.88174 0.0
H3423 H 0.63493 0.25301 0.88356 0.0
C3424 C 0.35678 0.74397 0.88338 0.0
C3425 C 0.34594 0.74369 0.88167 0.0
C3426 C 0.36342 0.75046 0.87738 0.0
C3427 C 0.35917 0.75682 0.86943 0.0
C3428 C 0.34824 0.75666 0.86774 0.0
C3429 C 0.34179 0.75013 0.87386 0.0
C3430 C 0.37501 0.75043 0.8795 0.0
C3431 C 0.34337 0.76327 0.85933 0.0
C3432 C 0.3744 0.78034 0.85876 0.0
C3433 C 0.37825 0.7765 0.84925 0.0
C3434 C 0.3684 0.77398 0.8655 0.0
C3435 C 0.36613 0.76349 0.8627 0.0
C3436 C 0.37019 0.75949 0.85324 0.0
C3437 C 0.37619 0.76601 0.84665 0.0
C3438 C 0.36425 0.77858 0.87551 0.0
C3439 C 0.36803 0.74836 0.84994 0.0
H3440 H 0.36008 0.73914 0.88945 0.0
H3441 H 0.33347 0.74988 0.87233 0.0
H3442 H 0.37925 0.74781 0.87244 0.0
H3443 H 0.3778 0.75846 0.8813 0.0
H3444 H 0.37707 0.74523 0.88611 0.0
H3445 H 0.33473 0.76247 0.85918 0.0
H3446 H 0.34545 0.77161 0.86055 0.0
H3447 H 0.34646 0.76098 0.85158 0.0
H3448 H 0.37581 0.78844 0.86081 0.0
H3449 H 0.37924 0.76289 0.83942 0.0
H3450 H 0.36648 0.77366 0.88226 0.0
H3451 H 0.3556 0.77871 0.87525 0.0
H3452 H 0.36719 0.78666 0.87687 0.0
H3453 H 0.37059 0.7429 0.85613 0.0
H3454 H 0.37204 0.74632 0.84254 0.0
H3455 H 0.35951 0.74713 0.84888 0.0
C3456 C 0.98312 0.30474 0.30964 0.0
C3457 C 0.97762 0.31302 0.31416 0.0
C3458 C 0.99411 0.30488 0.30906 0.0
C3459 C 0.99983 0.31352 0.31309 0.0
C3460 C 0.99434 0.32193 0.31762 0.0
C3461 C 0.98335 0.32158 0.31811 0.0
C3462 C 0.9996 0.29573 0.30419 0.0
C3463 C 1.00008 0.33133 0.32195 0.0
C3464 C 0.02866 0.30999 0.31992 0.0
C3465 C 0.03373 0.31425 0.31114 0.0
C3466 C 0.01768 0.30972 0.32067 0.0
C3467 C 0.01154 0.31381 0.31245 0.0
C3468 C 0.0166 0.31815 0.3036 0.0
C3469 C 0.02758 0.31833 0.30306 0.0
C3470 C 0.01264 0.30499 0.33024 0.0
C3471 C 0.0104 0.32265 0.29467 0.0
H3472 H 0.97884 0.29801 0.3067 0.0
H3473 H 0.97922 0.32808 0.32151 0.0
H3474 H 1.00441 0.29842 0.29748 0.0
H3475 H 1.00498 0.29219 0.30994 0.0
H3476 H 0.99406 0.2896 0.30141 0.0
H3477 H 0.9947 0.33721 0.32527 0.0
H3478 H 1.00557 0.32887 0.32816 0.0
H3479 H 1.0048 0.3351 0.31571 0.0
H3480 H 0.03328 0.30671 0.32618 0.0
H3481 H 0.03136 0.32182 0.29632 0.0
H3482 H 1.00754 0.29831 0.32795 0.0
H3483 H 1.00761 0.31082 0.33411 0.0
H3484 H 0.01848 0.3022 0.33598 0.0
H3485 H 1.00514 0.31657 0.29135 0.0
H3486 H 0.01549 0.32574 0.28833 0.0
H3487 H 1.00542 0.32906 0.29755 0.0
C3488 C 0.70422 0.0322 0.32531 0.0
C3489 C 0.70196 0.03813 0.31637 0.0
C3490 C 0.70428 0.02121 0.32502 0.0
C3491 C 0.70205 0.01591 0.31555 0.0
C3492 C 0.69972 0.02182 0.3065 0.0
C3493 C 0.69972 0.03282 0.30701 0.0
C3494 C 0.70685 0.01527 0.33485 0.0
C3495 C 0.69726 0.01651 0.29626 0.0
C3496 C 0.71201 0.98801 0.31295 0.0
C3497 C 0.70311 0.98198 0.31541 0.0
C3498 C 0.71173 0.999 0.31279 0.0
C3499 C 0.7023 1.00419 0.31514 0.0
C3500 C 0.69325 0.99817 0.31746 0.0
C3501 C 0.69376 0.98718 0.31758 0.0
C3502 C 0.72159 1.00507 0.3103 0.0
C3503 C 0.68302 1.00334 0.31996 0.0
H3504 H 0.70615 0.03616 0.33255 0.0
H3505 H 0.69786 0.03727 0.30008 0.0
H3506 H 0.70036 1.0098 0.33683 0.0
H3507 H 0.71392 0.01051 0.33359 0.0
H3508 H 0.70826 0.02052 0.34163 0.0
H3509 H 0.6955 0.02218 0.28996 0.0
H3510 H 0.70395 0.0117 0.29377 0.0
H3511 H 0.69045 0.01116 0.29722 0.0
H3512 H 0.71932 0.98414 0.3114 0.0
H3513 H 0.68679 0.98264 0.31936 0.0
H3514 H 0.7239 1.0099 0.31714 0.0
H3515 H 0.72021 0.01048 0.3037 0.0
H3516 H 0.72817 0.9999 0.30825 0.0
H3517 H 0.68389 1.00819 0.3271 0.0
H3518 H 0.6766 0.99759 0.32124 0.0
H3519 H 0.68078 1.00864 0.31351 0.0
C3520 C 0.98268 0.71544 0.31103 0.0
C3521 C 0.97707 0.70626 0.31345 0.0
C3522 C 0.99367 0.71584 0.3115 0.0
C3523 C 0.99927 0.70683 0.31446 0.0
C3524 C 0.99367 0.69755 0.31694 0.0
C3525 C 0.98268 0.69738 0.31641 0.0
C3526 C 0.99928 0.72591 0.30884 0.0
C3527 C 0.99929 0.68776 0.3201 0.0
C3528 C 0.02807 0.70492 0.30679 0.0
C3529 C 0.0332 0.70771 0.3161 0.0
C3530 C 0.01708 0.70461 0.30614 0.0
C3531 C 0.01099 0.70713 0.31501 0.0
C3532 C 0.0161 0.70995 0.32443 0.0
C3533 C 0.02709 0.71021 0.32486 0.0
C3534 C 0.01199 0.70154 0.29595 0.0
C3535 C 1.00996 0.71273 0.33408 0.0
H3536 H 0.97846 0.7224 0.30886 0.0
H3537 H 0.97849 0.69019 0.31815 0.0
H3538 H 1.00402 0.72858 0.31561 0.0
H3539 H 1.00473 0.72464 0.30225 0.0
H3540 H 0.99382 0.73222 0.30667 0.0
H3541 H 0.99383 0.68119 0.32184 0.0
H3542 H 1.00464 0.68532 0.31376 0.0
H3543 H 1.00415 0.6893 0.32712 0.0
H3544 H 0.03265 0.70285 0.3 0.0
H3545 H 0.0309 0.71255 0.33205 0.0
H3546 H 1.00688 0.70791 0.2932 0.0
H3547 H 1.00696 0.69453 0.29711 0.0
H3548 H 0.01779 0.69983 0.28975 0.0
H3549 H 1.00491 0.71951 0.33243 0.0
H3550 H 0.01508 0.71469 0.34082 0.0
H3551 H 1.00475 0.70612 0.33632 0.0
C3552 C 0.30761 0.03215 0.30417 0.0
C3553 C 0.3099 0.03791 0.31324 0.0
C3554 C 0.30755 0.02115 0.3042 0.0
C3555 C 0.30983 0.01568 0.31353 0.0
C3556 C 0.31197 0.02143 0.32276 0.0
C3557 C 0.31199 0.03243 0.3225 0.0
C3558 C 0.30525 0.01537 0.29417 0.0
C3559 C 0.31439 0.01595 0.33289 0.0
C3560 C 0.30191 0.98682 0.31537 0.0
C3561 C 0.31132 0.98177 0.3131 0.0
C3562 C 0.30131 0.9978 0.31562 0.0
C3563 C 0.31034 1.00397 0.31353 0.0
C3564 C 0.31986 0.99893 0.31128 0.0
C3565 C 0.32023 0.98795 0.31108 0.0
C3566 C 0.29101 1.00282 0.31808 0.0
C3567 C 0.32968 1.00515 0.30897 0.0
H3568 H 0.30613 0.03624 0.29692 0.0
H3569 H 0.31363 0.03676 0.3296 0.0
H3570 H 0.31215 0.01077 0.29182 0.0
H3571 H 0.29868 1.00977 0.29534 0.0
H3572 H 0.30323 0.02073 0.28767 0.0
H3573 H 0.31555 0.02151 0.33947 0.0
H3574 H 0.30796 0.01045 0.33494 0.0
H3575 H 0.32157 0.01128 0.332 0.0
H3576 H 0.29499 0.98217 0.31706 0.0
H3577 H 0.32751 0.98419 0.30913 0.0
H3578 H 0.28856 1.00781 0.31146 0.0
H3579 H 0.29184 1.00797 0.32501 0.0
H3580 H 0.28473 0.99697 0.31965 0.0
H3581 H 0.32846 0.01011 0.30198 0.0
H3582 H 0.3365 1.00008 0.30754 0.0
H3583 H 0.33152 0.01044 0.31559 0.0
C3584 C 0.0272 0.69993 0.69998 0.0
C3585 C 0.03273 0.70758 0.70566 0.0
C3586 C 0.01621 0.6993 0.70029 0.0
C3587 C 0.01053 0.70649 0.70643 0.0
C3588 C 0.01606 0.71417 0.71224 0.0
C3589 C 0.02704 0.71462 0.71179 0.0
C3590 C 0.01066 0.69097 0.69397 0.0
C3591 C 0.01036 0.72196 0.71893 0.0
C3592 C 0.98171 0.71123 0.70033 0.0
C3593 C 0.97662 0.70525 0.70803 0.0
C3594 C 0.9927 0.71165 0.69967 0.0
C3595 C 0.99881 0.70593 0.70685 0.0
C3596 C 0.99372 0.69979 0.71457 0.0
C3597 C 0.98274 0.69953 0.71506 0.0
C3598 C 0.99777 0.71833 0.69134 0.0
C3599 C 0.99988 0.69351 0.72234 0.0
H3600 H 0.03145 0.69454 0.69509 0.0
H3601 H 0.03119 0.72047 0.71635 0.0
H3602 H 1.00575 0.68602 0.69916 0.0
H3603 H 1.00538 0.69466 0.68823 0.0
H3604 H 0.01618 0.68589 0.68971 0.0
H3605 H 0.01577 0.7275 0.72292 0.0
H3606 H 1.00487 0.72649 0.71406 0.0
H3607 H 1.00565 0.7178 0.72493 0.0
H3608 H 0.97711 0.71576 0.69491 0.0
H3609 H 0.97893 0.69472 0.72092 0.0
H3610 H 1.00297 0.7135 0.68643 0.0
H3611 H 1.0027 0.72447 0.69504 0.0
H3612 H 0.99196 0.72214 0.68621 0.0
H3613 H 1.005 0.68795 0.71818 0.0
H3614 H 0.99477 0.68903 0.72779 0.0
H3615 H 1.00502 0.69877 0.72699 0.0
C3616 C 0.31233 0.98737 0.69713 0.0
C3617 C 0.31039 0.98189 0.70646 0.0
C3618 C 0.31214 0.99836 0.69678 0.0
C3619 C 0.30997 1.00411 0.70598 0.0
C3620 C 0.30785 0.99864 0.71537 0.0
C3621 C 0.30808 0.98765 0.7155 0.0
C3622 C 0.3144 1.00384 0.68658 0.0
C3623 C 0.30553 1.00441 0.72537 0.0
C3624 C 0.32001 0.03224 0.70805 0.0
C3625 C 0.311 0.03807 0.70604 0.0
C3626 C 0.31979 0.02125 0.70799 0.0
C3627 C 0.31031 0.01584 0.70587 0.0
C3628 C 0.30119 0.02164 0.7038 0.0
C3629 C 0.30164 0.03265 0.70392 0.0
C3630 C 0.3297 0.01542 0.71029 0.0
C3631 C 0.29094 0.01621 0.70147 0.0
H3632 H 0.31398 0.98304 0.69006 0.0
H3633 H 0.30672 0.98356 0.72279 0.0
H3634 H 0.30787 1.00908 0.68454 0.0
H3635 H 0.32152 1.00879 0.68737 0.0
H3636 H 0.31558 0.99827 0.68005 0.0
H3637 H 0.30364 0.99904 0.73193 0.0
H3638 H 0.31238 1.00929 0.72762 0.0
H3639 H 0.29888 1.00975 0.7242 0.0
H3640 H 0.32726 0.03629 0.70989 0.0
H3641 H 0.29465 0.03702 0.70224 0.0
H3642 H 0.33157 0.01015 0.70369 0.0
H3643 H 0.3286 0.01047 0.71732 0.0
H3644 H 0.33646 0.02076 0.71163 0.0
H3645 H 0.29178 0.01105 0.69457 0.0
H3646 H 0.28457 0.02182 0.69992 0.0
H3647 H 0.28862 0.01119 0.70816 0.0
C3648 C 0.98327 0.31011 0.69537 0.0
C3649 C 0.97718 0.31313 0.70397 0.0
C3650 C 0.99426 0.31034 0.69579 0.0
C3651 C 0.99938 0.31364 0.70505 0.0
C3652 C 0.9933 0.31668 0.71376 0.0
C3653 C 0.98231 0.31638 0.71313 0.0
C3654 C 1.00039 0.307 0.68632 0.0
C3655 C 0.99841 0.32028 0.72378 0.0
C3656 C 0.02767 0.30548 0.70947 0.0
C3657 C 0.0333 0.31449 0.70653 0.0
C3658 C 0.01668 0.30509 0.70903 0.0
C3659 C 0.01109 0.31394 0.70558 0.0
C3660 C 0.01672 0.32305 0.70259 0.0
C3661 C 0.0277 0.32322 0.70309 0.0
C3662 C 0.01104 0.2952 0.71225 0.0
C3663 C 0.01112 0.33267 0.6989 0.0
H3664 H 0.97944 0.3074 0.68831 0.0
H3665 H 0.97774 0.31885 0.71978 0.0
H3666 H 1.0056 0.31346 0.68371 0.0
H3667 H 1.00542 0.30031 0.68835 0.0
H3668 H 0.99526 0.30468 0.6797 0.0
H3669 H 0.99262 0.32233 0.72987 0.0
H3670 H 1.00351 0.31406 0.72687 0.0
H3671 H 1.00345 0.32721 0.72224 0.0
H3672 H 0.03187 0.29865 0.71202 0.0
H3673 H 0.03191 0.33029 0.70096 0.0
H3674 H 1.00629 0.29217 0.70564 0.0
H3675 H 1.0056 0.29685 0.71876 0.0
H3676 H 0.01649 0.28901 0.71477 0.0
H3677 H 1.00626 0.33076 0.69197 0.0
H3678 H 0.0166 0.33912 0.69681 0.0
H3679 H 1.00578 0.33546 0.7051 0.0
C3680 C 0.6975 0.98567 0.71108 0.0
C3681 C 0.70418 0.98086 0.70387 0.0
C3682 C 0.69664 0.99664 0.71156 0.0
C3683 C 0.70257 1.00301 0.70465 0.0
C3684 C 0.70925 0.9982 0.69732 0.0
C3685 C 0.70996 0.98725 0.69701 0.0
C3686 C 0.68943 1.00141 0.71952 0.0
C3687 C 0.71568 1.00464 0.68975 0.0
C3688 C 0.69444 0.03098 0.69855 0.0
C3689 C 0.70151 0.03694 0.70456 0.0
C3690 C 0.69452 0.01998 0.6987 0.0
C3691 C 0.70183 0.0147 0.70504 0.0
C3692 C 0.70879 0.02064 0.71135 0.0
C3693 C 0.70855 0.03164 0.71103 0.0
C3694 C 0.68692 0.01401 0.69189 0.0
C3695 C 0.71671 0.01538 0.71823 0.0
H3696 H 0.69306 0.98087 0.71648 0.0
H3697 H 0.715 0.98367 0.69127 0.0
H3698 H 0.69396 1.00657 0.72485 0.0
H3699 H 0.68358 1.00633 0.71554 0.0
H3700 H 0.68526 0.99541 0.72425 0.0
H3701 H 0.72052 0.99974 0.68454 0.0
H3702 H 0.71048 1.00948 0.68486 0.0
H3703 H 0.72091 1.01006 0.69411 0.0
H3704 H 0.68884 0.03494 0.69365 0.0
H3705 H 0.71414 0.03609 0.71562 0.0
H3706 H 0.68236 1.00836 0.69667 0.0
H3707 H 0.69126 1.00945 0.68597 0.0
H3708 H 0.68141 0.01923 0.68778 0.0
H3709 H 0.71279 1.0096 0.72341 0.0
H3710 H 0.72114 0.02104 0.72314 0.0
H3711 H 0.72233 0.01105 0.71331 0.0
C3712 C 0.32061 0.31129 0.98737 0.0
C3713 C 0.31174 0.31349 0.98134 0.0
C3714 C 0.32026 0.31134 0.99837 0.0
C3715 C 0.31079 0.31362 1.00356 0.0
C3716 C 0.30181 0.31587 0.99755 0.0
C3717 C 0.30238 0.31577 0.98655 0.0
C3718 C 0.33002 0.30884 1.00443 0.0
C3719 C 0.29156 0.31838 1.00274 0.0
C3720 C 0.30793 0.30395 0.03168 0.0
C3721 C 0.31045 0.31292 0.03752 0.0
C3722 C 0.30783 0.30412 0.02068 0.0
C3723 C 0.31031 0.31349 0.01529 0.0
C3724 C 0.31268 0.32262 0.02112 0.0
C3725 C 0.31274 0.32222 0.03212 0.0
C3726 C 0.30528 0.29418 0.01481 0.0
C3727 C 0.31531 0.33279 0.01573 0.0
H3728 H 0.32785 0.30933 0.9835 0.0
H3729 H 0.29551 0.3176 0.98201 0.0
H3730 H 0.33203 0.31539 1.00976 0.0
H3731 H 0.32865 0.30182 1.00933 0.0
H3732 H 0.3368 0.30739 0.99924 0.0
H3733 H 0.28531 0.32005 0.99699 0.0
H3734 H 0.28899 0.31173 1.0077 0.0
H3735 H 0.29255 0.32525 1.00794 0.0
H3736 H 0.3063 0.29667 0.03571 0.0
H3737 H 0.31456 0.32925 0.03651 0.0
H3738 H 0.31212 0.29182 1.01009 0.0
H3739 H 0.29873 0.29549 1.00933 0.0
H3740 H 0.30313 0.28765 0.02013 0.0
H3741 H 0.32245 0.33188 0.01093 0.0
H3742 H 0.31662 0.33928 0.02135 0.0
H3743 H 0.30891 0.33496 0.01035 0.0
C3744 C 0.30733 0.69931 0.98728 0.0
C3745 C 0.30963 0.70869 0.98203 0.0
C3746 C 0.30715 0.6988 0.99828 0.0
C3747 C 0.30935 0.70788 1.00426 0.0
C3748 C 0.31164 0.71738 0.99901 0.0
C3749 C 0.31176 0.71767 0.98802 0.0
C3750 C 0.30464 0.68852 1.00352 0.0
C3751 C 0.31407 0.72725 1.00503 0.0
C3752 C 0.30054 0.7098 0.03273 0.0
C3753 C 0.30981 0.7078 0.03821 0.0
C3754 C 0.30023 0.70965 0.02173 0.0
C3755 C 0.3094 0.70748 0.01598 0.0
C3756 C 0.31874 0.70528 0.02145 0.0
C3757 C 0.31883 0.70547 0.03245 0.0
C3758 C 0.29009 0.71198 0.01625 0.0
C3759 C 0.32871 0.70296 0.01567 0.0
H3760 H 0.30556 0.69234 0.98278 0.0
H3761 H 0.31373 0.72492 0.98411 0.0
H3762 H 0.31126 0.68615 1.00854 0.0
H3763 H 0.29774 0.68937 1.00867 0.0
H3764 H 0.30301 0.68219 0.9978 0.0
H3765 H 0.31553 0.73404 0.99981 0.0
H3766 H 0.30748 0.72912 0.01031 0.0
H3767 H 0.32105 0.7261 1.00999 0.0
H3768 H 0.29349 0.71146 0.03706 0.0
H3769 H 0.32608 0.70405 0.03654 0.0
H3770 H 0.28798 0.70549 0.01088 0.0
H3771 H 0.29101 0.71913 0.01143 0.0
H3772 H 0.28356 0.71315 0.02182 0.0
H3773 H 0.32745 0.69634 1.01021 0.0
H3774 H 0.33521 0.701 0.02104 0.0
H3775 H 0.33109 0.70983 0.01092 0.0
C3776 C 0.70498 0.30539 0.03245 0.0
C3777 C 0.70265 0.31458 0.03794 0.0
C3778 C 0.7049 0.30509 0.02145 0.0
C3779 C 0.70245 0.3142 0.0157 0.0
C3780 C 0.69992 0.32345 0.02118 0.0
C3781 C 0.70005 0.32353 0.03219 0.0
C3782 C 0.70759 0.29505 0.01596 0.0
C3783 C 0.69729 0.33335 0.01541 0.0
C3784 C 0.7127 0.31693 0.9878 0.0
C3785 C 0.70384 0.31451 0.98176 0.0
C3786 C 0.71236 0.31679 0.99879 0.0
C3787 C 0.70292 0.31418 1.00398 0.0
C3788 C 0.69395 0.31169 0.99796 0.0
C3789 C 0.69451 0.31189 0.98696 0.0
C3790 C 0.72212 0.31954 1.00486 0.0
C3791 C 0.68373 0.30883 1.00314 0.0
H3792 H 0.70686 0.29839 0.03677 0.0
H3793 H 0.69838 0.33072 0.03629 0.0
H3794 H 0.7012 0.29273 0.01056 0.0
H3795 H 0.71473 0.29621 0.01118 0.0
H3796 H 0.70894 0.28855 0.02152 0.0
H3797 H 0.69509 0.33977 0.02079 0.0
H3798 H 0.70411 0.33597 0.01071 0.0
H3799 H 0.69075 0.33188 1.00991 0.0
H3800 H 0.71992 0.31915 0.98393 0.0
H3801 H 0.68764 0.30989 0.98242 0.0
H3802 H 0.72418 0.31301 1.01014 0.0
H3803 H 0.7207 0.32648 1.00983 0.0
H3804 H 0.72888 0.32124 0.99968 0.0
H3805 H 0.68477 0.30195 1.00828 0.0
H3806 H 0.67748 0.30701 0.99738 0.0
H3807 H 0.68112 0.31536 1.00816 0.0
C3808 C 0.71159 0.69904 0.0321 0.0
C3809 C 0.70465 0.70477 0.03831 0.0
C3810 C 0.71096 0.69915 0.02112 0.0
C3811 C 0.70318 0.70511 0.01611 0.0
C3812 C 0.69611 0.71089 0.02231 0.0
C3813 C 0.69692 0.71063 0.0333 0.0
C3814 C 0.71862 0.69281 0.01488 0.0
C3815 C 0.68772 0.71738 0.01732 0.0
C3816 C 0.70817 0.7121 0.98748 0.0
C3817 C 0.70234 0.70439 0.98217 0.0
C3818 C 0.70829 0.7126 0.99848 0.0
C3819 C 0.70246 0.70522 1.0044 0.0
C3820 C 0.69635 0.6976 0.9991 0.0
C3821 C 0.69636 0.69729 0.9881 0.0
C3822 C 0.71491 0.72086 1.00378 0.0
C3823 C 0.68996 0.68961 1.00505 0.0
H3824 H 0.71748 0.69433 0.03583 0.0
H3825 H 0.69157 0.71517 0.03798 0.0
H3826 H 0.71436 0.68699 1.01002 0.0
H3827 H 0.72306 0.69798 1.00948 0.0
H3828 H 0.72425 0.68863 0.01992 0.0
H3829 H 0.6828 0.72138 0.0232 0.0
H3830 H 0.69133 0.72335 0.01214 0.0
H3831 H 0.68262 0.71236 0.01238 0.0
H3832 H 0.71292 0.71756 0.98305 0.0
H3833 H 0.69168 0.69141 0.98412 0.0
H3834 H 0.72126 0.71709 1.00825 0.0
H3835 H 0.71015 0.72531 1.00943 0.0
H3836 H 0.71848 0.72641 0.99811 0.0
H3837 H 0.6952 0.68464 1.00977 0.0
H3838 H 0.68526 0.68449 0.9998 0.0
H3839 H 0.68462 0.69356 0.01056 0.0
C3840 C 0.48431 0.8035 0.81695 0.0
C3841 C 0.47824 0.81197 0.81368 0.0
C3842 C 0.4953 0.80398 0.81675 0.0
C3843 C 0.50046 0.81315 0.8132 0.0
C3844 C 0.4944 0.82175 0.80991 0.0
C3845 C 0.48341 0.82106 0.81019 0.0
C3846 C 0.50139 0.79464 0.82038 0.0
C3847 C 0.49955 0.83168 0.80604 0.0
C3848 C 0.52885 0.81794 0.82132 0.0
C3849 C 0.53438 0.81476 0.81241 0.0
C3850 C 0.51786 0.81747 0.82168 0.0
C3851 C 0.51217 0.81374 0.81292 0.0
C3852 C 0.51769 0.8105 0.80391 0.0
C3853 C 0.52868 0.81104 0.80377 0.0
C3854 C 0.51233 0.82095 0.83147 0.0
C3855 C 0.51198 0.8065 0.79438 0.0
H3856 H 0.48046 0.7965 0.81984 0.0
H3857 H 0.47886 0.82762 0.80754 0.0
H3858 H 0.50652 0.79186 0.814 0.0
H3859 H 0.50651 0.79688 0.82701 0.0
H3860 H 0.49624 0.78807 0.82288 0.0
H3861 H 0.49377 0.83767 0.80379 0.0
H3862 H 0.50472 0.83498 0.81218 0.0
H3863 H 0.50452 0.82996 0.79917 0.0
H3864 H 0.53313 0.82071 0.82809 0.0
H3865 H 0.53282 0.80871 0.79678 0.0
H3866 H 0.50756 0.81441 0.83467 0.0
H3867 H 0.50692 0.82738 0.82961 0.0
H3868 H 0.51786 0.82367 0.8376 0.0
H3869 H 0.50709 0.79961 0.79648 0.0
H3870 H 0.51739 0.80426 0.78801 0.0
H3871 H 0.50665 0.81258 0.7914 0.0
C3872 C 0.20531 0.48699 0.8058 0.0
C3873 C 0.20251 0.48153 0.81492 0.0
C3874 C 0.20516 0.49799 0.80541 0.0
C3875 C 0.20215 0.50375 0.81435 0.0
C3876 C 0.19916 0.49829 0.82352 0.0
C3877 C 0.19936 0.48729 0.82369 0.0
C3878 C 0.20835 0.50346 0.79545 0.0
C3879 C 0.19593 0.50407 0.83325 0.0
C3880 C 0.212 0.53188 0.81725 0.0
C3881 C 0.20323 0.53771 0.81439 0.0
C3882 C 0.21176 0.52089 0.81721 0.0
C3883 C 0.20251 0.51548 0.81425 0.0
C3884 C 0.19363 0.52129 0.81133 0.0
C3885 C 0.19409 0.5323 0.81145 0.0
C3886 C 0.22141 0.51505 0.82044 0.0
C3887 C 0.18362 0.51587 0.80809 0.0
H3888 H 0.20762 0.48266 0.79893 0.0
H3889 H 0.19732 0.48321 0.83083 0.0
H3890 H 0.20204 0.5087 0.79281 0.0
H3891 H 0.21537 0.5084 0.79688 0.0
H3892 H 0.21012 0.49788 0.78906 0.0
H3893 H 0.19344 0.4987 0.83962 0.0
H3894 H 0.20255 0.50895 0.83611 0.0
H3895 H 0.18942 0.50941 0.83146 0.0
H3896 H 0.21906 0.53592 0.81972 0.0
H3897 H 0.18729 0.53668 0.80911 0.0
H3898 H 0.22388 0.50978 0.81405 0.0
H3899 H 0.21965 0.5101 0.82734 0.0
H3900 H 0.22802 0.52038 0.8224 0.0
H3901 H 0.18509 0.51071 0.8013 0.0
H3902 H 0.17743 0.52148 0.80596 0.0
H3903 H 0.18071 0.51085 0.81454 0.0
C3904 C 0.5271 0.21647 0.81759 0.0
C3905 C 0.53307 0.20781 0.81463 0.0
C3906 C 0.51612 0.21612 0.81737 0.0
C3907 C 0.51085 0.20689 0.81412 0.0
C3908 C 0.51681 0.19811 0.81115 0.0
C3909 C 0.5278 0.19867 0.81145 0.0
C3910 C 0.51013 0.22566 0.82064 0.0
C3911 C 0.51155 0.18811 0.80761 0.0
C3912 C 0.48235 0.20279 0.8222 0.0
C3913 C 0.47693 0.20573 0.81314 0.0
C3914 C 0.49334 0.20312 0.82262 0.0
C3915 C 0.49914 0.20645 0.81378 0.0
C3916 C 0.49373 0.20945 0.80462 0.0
C3917 C 0.48274 0.20906 0.80442 0.0
C3918 C 0.49875 0.19991 0.83257 0.0
C3919 C 0.49956 0.21302 0.795 0.0
H3920 H 0.53103 0.22352 0.82025 0.0
H3921 H 0.53228 0.19196 0.80904 0.0
H3922 H 0.50508 0.22829 0.81413 0.0
H3923 H 0.50493 0.22371 0.82731 0.0
H3924 H 0.51535 0.23224 0.82296 0.0
H3925 H 0.51725 0.18195 0.80563 0.0
H3926 H 0.50629 0.18511 0.81384 0.0
H3927 H 0.50665 0.18964 0.80065 0.0
H3928 H 0.47798 0.20032 0.82903 0.0
H3929 H 0.47869 0.21119 0.79732 0.0
H3930 H 0.50359 0.20649 0.83557 0.0
H3931 H 0.50408 0.19334 0.83097 0.0
H3932 H 0.49315 0.19747 0.83875 0.0
H3933 H 0.50453 0.21992 0.79689 0.0
H3934 H 0.49423 0.21511 0.78851 0.0
H3935 H 0.50482 0.20676 0.79228 0.0
C3936 C 0.81331 0.53326 0.82147 0.0
C3937 C 0.80994 0.53874 0.8126 0.0
C3938 C 0.81335 0.52226 0.82169 0.0
C3939 C 0.80996 0.51651 0.81283 0.0
C3940 C 0.80638 0.52198 0.80393 0.0
C3941 C 0.80641 0.53298 0.80392 0.0
C3942 C 0.81717 0.51678 0.83137 0.0
C3943 C 0.80273 0.51621 0.7943 0.0
C3944 C 0.82015 0.48886 0.80896 0.0
C3945 C 0.81167 0.48261 0.81222 0.0
C3946 C 0.81971 0.49984 0.80917 0.0
C3947 C 0.81054 0.5048 0.81272 0.0
C3948 C 0.80194 0.49857 0.81604 0.0
C3949 C 0.80261 0.48759 0.81575 0.0
C3950 C 0.82905 0.50613 0.80551 0.0
C3951 C 0.79203 0.50351 0.8199 0.0
H3952 H 0.81592 0.53758 0.82827 0.0
H3953 H 0.80392 0.53708 0.79697 0.0
H3954 H 0.81111 0.51123 0.83426 0.0
H3955 H 0.82419 0.51216 0.82948 0.0
H3956 H 0.81918 0.52233 0.83775 0.0
H3957 H 0.79978 0.52156 0.78818 0.0
H3958 H 0.80926 0.51166 0.79099 0.0
H3959 H 0.79643 0.51056 0.79636 0.0
H3960 H 0.82714 0.48517 0.80604 0.0
H3961 H 0.79604 0.48289 0.8184 0.0
H3962 H 0.83178 0.51141 0.81184 0.0
H3963 H 0.82682 0.51111 0.7988 0.0
H3964 H 0.83564 0.50112 0.8031 0.0
H3965 H 0.79376 0.50862 0.82669 0.0
H3966 H 0.78606 0.49761 0.82226 0.0
H3967 H 0.78868 0.50851 0.8137 0.0
C3968 C 0.48288 0.19978 0.19863 0.0
C3969 C 0.47729 0.2052 0.20632 0.0
C3970 C 0.49387 0.20027 0.19817 0.0
C3971 C 0.4995 0.20632 0.20559 0.0
C3972 C 0.49391 0.21185 0.21334 0.0
C3973 C 0.48292 0.21123 0.2136 0.0
C3974 C 0.49946 0.1943 0.18974 0.0
C3975 C 0.49956 0.21838 0.22141 0.0
C3976 C 0.52832 0.20037 0.21031 0.0
C3977 C 0.53341 0.20821 0.20448 0.0
C3978 C 0.51734 0.19966 0.21074 0.0
C3979 C 0.5112 0.20694 0.20519 0.0
C3980 C 0.51627 0.21484 0.19925 0.0
C3981 C 0.52726 0.21537 0.19896 0.0
C3982 C 0.51229 0.19113 0.21718 0.0
C3983 C 0.51009 0.22274 0.19317 0.0
H3984 H 0.47865 0.19519 0.19287 0.0
H3985 H 0.47875 0.21533 0.21968 0.0
H3986 H 0.50418 0.19975 0.18488 0.0
H3987 H 0.50493 0.18868 0.19331 0.0
H3988 H 0.49398 0.18993 0.18457 0.0
H3989 H 0.49411 0.22225 0.2269 0.0
H3990 H 0.50492 0.21342 0.22598 0.0
H3991 H 0.50439 0.22448 0.21751 0.0
H3992 H 0.53294 0.19486 0.2147 0.0
H3993 H 0.53104 0.22135 0.19427 0.0
H3994 H 0.50715 0.18622 0.21217 0.0
H3995 H 0.5073 0.19461 0.22332 0.0
H3996 H 0.51812 0.18603 0.22099 0.0
H3997 H 0.505 0.2187 0.18741 0.0
H3998 H 0.51518 0.22841 0.18895 0.0
H3999 H 0.50493 0.22712 0.19853 0.0
C4000 C 0.80635 0.48744 0.20054 0.0
C4001 C 0.81047 0.48246 0.20938 0.0
C4002 C 0.80601 0.49843 0.19985 0.0
C4003 C 0.80991 0.50465 0.20817 0.0
C4004 C 0.8141 0.49967 0.21709 0.0
C4005 C 0.81434 0.4887 0.21758 0.0
C4006 C 0.80145 0.50338 0.19021 0.0
C4007 C 0.81839 0.50595 0.22613 0.0
C4008 C 0.81815 0.53307 0.20358 0.0
C4009 C 0.80972 0.53859 0.20778 0.0
C4010 C 0.81822 0.52207 0.20345 0.0
C4011 C 0.80964 0.51636 0.20761 0.0
C4012 C 0.801 0.52187 0.21166 0.0
C4013 C 0.80115 0.53287 0.2117 0.0
C4014 C 0.8276 0.51656 0.19908 0.0
C4015 C 0.79166 0.51613 0.21612 0.0
H4016 H 0.80324 0.48275 0.1942 0.0
H4017 H 0.81773 0.48499 0.22436 0.0
H4018 H 0.79472 0.50829 0.1924 0.0
H4019 H 0.80734 0.50859 0.18647 0.0
H4020 H 0.79879 0.49749 0.18439 0.0
H4021 H 0.82136 0.50092 0.23252 0.0
H4022 H 0.82485 0.51111 0.22341 0.0
H4023 H 0.81223 0.51105 0.22935 0.0
H4024 H 0.82488 0.53736 0.20065 0.0
H4025 H 0.79452 0.53701 0.21483 0.0
H4026 H 0.82514 0.51092 0.19296 0.0
H4027 H 0.83145 0.51204 0.20535 0.0
H4028 H 0.83342 0.52208 0.19566 0.0
H4029 H 0.78844 0.51058 0.21027 0.0
H4030 H 0.78538 0.52152 0.21856 0.0
H4031 H 0.79407 0.51148 0.223 0.0
C4032 C 0.52887 0.81795 0.19836 0.0
C4033 C 0.53428 0.81443 0.20721 0.0
C4034 C 0.51788 0.81758 0.19789 0.0
C4035 C 0.51208 0.81363 0.20648 0.0
C4036 C 0.51748 0.81006 0.21542 0.0
C4037 C 0.52847 0.81049 0.21568 0.0
C4038 C 0.51248 0.82142 0.18817 0.0
C4039 C 0.51164 0.80582 0.22477 0.0
C4040 C 0.48337 0.82109 0.20925 0.0
C4041 C 0.47816 0.81216 0.20544 0.0
C4042 C 0.49436 0.82169 0.20961 0.0
C4043 C 0.50036 0.81316 0.20608 0.0
C4044 C 0.49516 0.80414 0.20221 0.0
C4045 C 0.48418 0.80375 0.20193 0.0
C4046 C 0.49955 0.83145 0.21383 0.0
C4047 C 0.50121 0.79487 0.19832 0.0
H4048 H 0.53325 0.82089 0.19172 0.0
H4049 H 0.53251 0.8079 0.22262 0.0
H4050 H 0.50768 0.81503 0.18472 0.0
H4051 H 0.50711 0.82784 0.19019 0.0
H4052 H 0.51809 0.82429 0.18218 0.0
H4053 H 0.51696 0.80333 0.23112 0.0
H4054 H 0.50634 0.81185 0.22789 0.0
H4055 H 0.50672 0.79903 0.22241 0.0
H4056 H 0.47885 0.8276 0.21209 0.0
H4057 H 0.48029 0.79687 0.19879 0.0
H4058 H 0.50481 0.83489 0.20783 0.0
H4059 H 0.50444 0.82949 0.22068 0.0
H4060 H 0.49381 0.83743 0.2162 0.0
H4061 H 0.50641 0.79729 0.1918 0.0
H4062 H 0.49603 0.78843 0.19556 0.0
H4063 H 0.50626 0.79185 0.20464 0.0
C4064 C 0.21076 0.53211 0.20764 0.0
C4065 C 0.20168 0.53773 0.20537 0.0
C4066 C 0.21074 0.52111 0.2077 0.0
C4067 C 0.20141 0.5155 0.20543 0.0
C4068 C 0.19218 0.52111 0.20332 0.0
C4069 C 0.19243 0.53211 0.2033 0.0
C4070 C 0.22078 0.51549 0.20997 0.0
C4071 C 0.18205 0.51547 0.20091 0.0
C4072 C 0.20386 0.4877 0.19497 0.0
C4073 C 0.20187 0.48159 0.20389 0.0
C4074 C 0.20365 0.49868 0.19536 0.0
C4075 C 0.20143 0.50379 0.20491 0.0
C4076 C 0.19937 0.49769 0.21394 0.0
C4077 C 0.19962 0.4867 0.21332 0.0
C4078 C 0.20594 0.50483 0.18555 0.0
C4079 C 0.19693 0.50278 0.22427 0.0
H4080 H 0.218 0.53632 0.2091 0.0
H4081 H 0.18533 0.53633 0.20168 0.0
H4082 H 0.21962 0.50995 0.21653 0.0
H4083 H 0.22311 0.51086 0.20305 0.0
H4084 H 0.22726 0.52096 0.21199 0.0
H4085 H 0.17547 0.52093 0.19979 0.0
H4086 H 0.18293 0.51074 0.19372 0.0
H4087 H 0.18003 0.51001 0.20735 0.0
H4088 H 0.20578 0.48389 0.18768 0.0
H4089 H 0.19796 0.4821 0.22024 0.0
H4090 H 0.21291 0.5099 0.18675 0.0
H4091 H 0.1993 0.51 0.18373 0.0
H4092 H 0.20736 0.49971 0.17871 0.0
H4093 H 0.20354 0.50789 0.2267 0.0
H4094 H 0.19539 0.49697 0.23054 0.0
H4095 H 0.18999 0.50782 0.22346 0.0
C4096 C 0.80568 0.80506 0.48789 0.0
C4097 C 0.81037 0.81325 0.48221 0.0
C4098 C 0.8055 0.80511 0.4989 0.0
C4099 C 0.81012 0.81355 0.50445 0.0
C4100 C 0.81468 0.82194 0.49877 0.0
C4101 C 0.81476 0.82168 0.48777 0.0
C4102 C 0.80058 0.79598 0.50459 0.0
C4103 C 0.81963 0.83113 0.50433 0.0
C4104 C 0.80304 0.81746 0.53325 0.0
C4105 C 0.81158 0.81299 0.5384 0.0
C4106 C 0.80245 0.81772 0.52225 0.0
C4107 C 0.81058 0.81339 0.51618 0.0
C4108 C 0.8192 0.80885 0.52132 0.0
C4109 C 0.81959 0.80869 0.53231 0.0
C4110 C 0.79314 0.82266 0.51711 0.0
C4111 C 0.82803 0.80409 0.51521 0.0
H4112 H 0.80239 0.79843 0.48373 0.0
H4113 H 0.81827 0.82813 0.4835 0.0
H4114 H 0.8066 0.79192 0.50925 0.0
H4115 H 0.79457 0.79877 0.51013 0.0
H4116 H 0.79689 0.79026 0.49917 0.0
H4117 H 0.82247 0.83723 0.49882 0.0
H4118 H 0.81394 0.83468 0.50977 0.0
H4119 H 0.82633 0.82845 0.50909 0.0
H4120 H 0.79685 0.8209 0.53782 0.0
H4121 H 0.82614 0.80504 0.53615 0.0
H4122 H 0.7891 0.81689 0.51202 0.0
H4123 H 0.79574 0.82922 0.51205 0.0
H4124 H 0.78745 0.82566 0.5229 0.0
H4125 H 0.82498 0.79769 0.51018 0.0
H4126 H 0.8342 0.8009 0.52036 0.0
H4127 H 0.83161 0.81004 0.50999 0.0
C4128 C 0.81336 0.19894 0.53278 0.0
C4129 C 0.81067 0.20804 0.53824 0.0
C4130 C 0.81327 0.1986 0.52177 0.0
C4131 C 0.81046 0.20759 0.516 0.0
C4132 C 0.80758 0.21674 0.52147 0.0
C4133 C 0.80772 0.21685 0.53247 0.0
C4134 C 0.81634 0.18866 0.5163 0.0
C4135 C 0.80455 0.22651 0.51568 0.0
C4136 C 0.82057 0.21065 0.48808 0.0
C4137 C 0.8118 0.20787 0.48205 0.0
C4138 C 0.82025 0.21052 0.49907 0.0
C4139 C 0.81091 0.20756 0.50428 0.0
C4140 C 0.80203 0.20471 0.49827 0.0
C4141 C 0.80258 0.20491 0.48727 0.0
C4142 C 0.8299 0.21366 0.50513 0.0
C4143 C 0.79193 0.20147 0.50347 0.0
H4144 H 0.81551 0.19203 0.53711 0.0
H4145 H 0.80577 0.22398 0.53655 0.0
H4146 H 0.81003 0.18608 0.51092 0.0
H4147 H 0.82342 0.19009 0.5115 0.0
H4148 H 0.81795 0.18224 0.52188 0.0
H4149 H 0.80211 0.23285 0.52104 0.0
H4150 H 0.81125 0.22938 0.51094 0.0
H4151 H 0.79806 0.22478 0.5102 0.0
H4152 H 0.8277 0.21313 0.4842 0.0
H4153 H 0.79578 0.20263 0.48274 0.0
H4154 H 0.83222 0.20723 0.51042 0.0
H4155 H 0.82822 0.22055 0.51008 0.0
H4156 H 0.83659 0.21561 0.49994 0.0
H4157 H 0.79325 0.19466 0.50863 0.0
H4158 H 0.78576 0.19939 0.49772 0.0
H4159 H 0.78907 0.20791 0.50847 0.0
C4160 C 0.19577 0.80925 0.48755 0.0
C4161 C 0.20358 0.81509 0.48242 0.0
C4162 C 0.19511 0.80903 0.49855 0.0
C4163 C 0.2024 0.81481 0.50463 0.0
C4164 C 0.21027 0.82074 0.4995 0.0
C4165 C 0.21075 0.82081 0.48851 0.0
C4166 C 0.18661 0.80257 0.50368 0.0
C4167 C 0.21817 0.82708 0.50562 0.0
C4168 C 0.19609 0.82278 0.53268 0.0
C4169 C 0.20193 0.81567 0.53858 0.0
C4170 C 0.19596 0.82243 0.52169 0.0
C4171 C 0.20182 0.81477 0.51635 0.0
C4172 C 0.20751 0.8074 0.52224 0.0
C4173 C 0.20751 0.80793 0.53324 0.0
C4174 C 0.18973 0.83041 0.51576 0.0
C4175 C 0.21387 0.7991 0.51691 0.0
H4176 H 0.19024 0.80471 0.48297 0.0
H4177 H 0.21671 0.82551 0.48468 0.0
H4178 H 0.19013 0.79663 0.50886 0.0
H4179 H 0.18169 0.80762 0.50865 0.0
H4180 H 0.18153 0.79854 0.49789 0.0
H4181 H 0.22386 0.83121 0.50048 0.0
H4182 H 0.21413 0.83295 0.51048 0.0
H4183 H 0.22253 0.82193 0.51099 0.0
H4184 H 0.1916 0.82868 0.53668 0.0
H4185 H 0.21215 0.80247 0.53765 0.0
H4186 H 0.18421 0.82645 0.51034 0.0
H4187 H 0.19504 0.83534 0.51096 0.0
H4188 H 0.18522 0.83556 0.52104 0.0
H4189 H 0.20892 0.79462 0.51135 0.0
H4190 H 0.21736 0.79357 0.52257 0.0
H4191 H 0.22025 0.80283 0.51233 0.0
C4192 C 0.20521 0.19498 0.53209 0.0
C4193 C 0.20272 0.20379 0.5381 0.0
C4194 C 0.20505 0.19527 0.5211 0.0
C4195 C 0.20236 0.20461 0.51587 0.0
C4196 C 0.19979 0.21353 0.52187 0.0
C4197 C 0.2 0.21301 0.53287 0.0
C4198 C 0.20788 0.18559 0.51506 0.0
C4199 C 0.19684 0.22364 0.51666 0.0
C4200 C 0.21172 0.20777 0.48768 0.0
C4201 C 0.20281 0.20489 0.48191 0.0
C4202 C 0.21163 0.20788 0.49868 0.0
C4203 C 0.2024 0.20505 0.50415 0.0
C4204 C 0.19332 0.20231 0.49839 0.0
C4205 C 0.19364 0.20225 0.48738 0.0
C4206 C 0.22149 0.21083 0.50447 0.0
C4207 C 0.1833 0.19929 0.50386 0.0
H4208 H 0.2075 0.18785 0.53598 0.0
H4209 H 0.19794 0.21984 0.53739 0.0
H4210 H 0.20139 0.18331 0.50977 0.0
H4211 H 0.21482 0.1872 0.5101 0.0
H4212 H 0.20962 0.17889 0.52026 0.0
H4213 H 0.19494 0.22984 0.52239 0.0
H4214 H 0.20335 0.22646 0.51165 0.0
H4215 H 0.18999 0.22235 0.5115 0.0
H4216 H 0.2189 0.20968 0.4836 0.0
H4217 H 0.18666 0.20015 0.48304 0.0
H4218 H 0.22414 0.20411 0.50921 0.0
H4219 H 0.21996 0.21735 0.50994 0.0
H4220 H 0.2279 0.21322 0.49911 0.0
H4221 H 0.18453 0.19221 0.50867 0.0
H4222 H 0.17683 0.1977 0.49829 0.0
H4223 H 0.18091 0.20562 0.50923 0.0
loop_
_geom_bond_atom_site_label_1
_geom_bond_atom_site_label_2
_geom_bond_distance
_geom_bond_site_symmetry_2
_ccdc_geom_bond_type
C0 C1 1.264 . S
C0 C5 1.479 . S
C0 C10 1.465 . S
C1 C0 1.264 . S
C1 C3 1.339 . S
C1 H28 0.931 . S
C2 C3 1.395 . S
C2 C4 1.320 . S
C3 C1 1.339 . S
C3 C2 1.395 . S
C3 H29 0.929 . S
C4 C2 1.320 . S
C4 C5 1.405 . S
C4 H30 0.930 . S
C5 C0 1.479 . S
C5 C4 1.405 . S
C5 H31 0.931 . S
U6 O7 2.454 . S
U6 O8 2.458 . S
U6 C9 2.984 . S
U6 C10 2.847 . S
U6 C23 2.882 . S
U6 O24 2.441 . S
U6 O25 2.420 . S
U6 O26 2.455 . S
U6 O27 2.449 . S
O7 U6 2.454 . S
O7 C9 1.353 . S
O8 U6 2.458 . S
O8 C9 1.286 . S
C9 U6 2.984 . S
C9 O7 1.353 . S
C9 O8 1.286 . S
C9 C11 1.363 . S
C10 C0 1.465 . S
C10 U6 2.847 . S
C10 O24 1.249 . S
C10 O25 1.202 . S
C11 C9 1.363 . S
C11 C13 1.408 . S
C11 C16 1.342 . S
C12 C13 1.310 . S
C12 C15 1.461 . S
C12 H32 0.932 . S
C13 C11 1.408 . S
C13 C12 1.310 . S
C13 H33 0.930 . S
C14 C15 1.474 . S
C14 C16 1.285 . S
C14 H34 0.929 . S
C15 C12 1.461 . S
C15 C14 1.474 . S
C16 C11 1.342 . S
C16 C14 1.285 . S
C16 H35 0.930 . S
C17 C20 1.424 . S
C17 C22 1.245 . S
C17 C23 1.428 . S
C18 C21 1.260 . S
C18 C22 1.477 . S
C18 H36 0.932 . S
C19 C20 1.384 . S
C19 C21 1.479 . S
C19 H37 0.929 . S
C20 C17 1.424 . S
C20 C19 1.384 . S
C20 H38 0.928 . S
C21 C18 1.260 . S
C21 C19 1.479 . S
C22 C17 1.245 . S
C22 C18 1.477 . S
C22 H39 0.932 . S
C23 U6 2.882 . S
C23 C17 1.428 . S
C23 O26 1.301 . S
C23 O27 1.282 . S
O24 U6 2.441 . S
O24 C10 1.249 . S
O25 U6 2.420 . S
O25 C10 1.202 . S
O26 U6 2.455 . S
O26 C23 1.301 . S
O27 U6 2.449 . S
O27 C23 1.282 . S
H28 C1 0.931 . S
H29 C3 0.929 . S
H30 C4 0.930 . S
H31 C5 0.931 . S
H32 C12 0.932 . S
H33 C13 0.930 . S
H34 C14 0.929 . S
H35 C16 0.930 . S
H36 C18 0.932 . S
H37 C19 0.929 . S
H38 C20 0.928 . S
H39 C22 0.932 . S
C40 C41 1.264 . S
C40 C45 1.479 . S
C40 C50 1.465 . S
C41 C40 1.264 . S
C41 C43 1.339 . S
C41 H68 0.931 . S
C42 C43 1.395 . S
C42 C44 1.320 . S
C43 C41 1.339 . S
C43 C42 1.395 . S
C43 H69 0.929 . S
C44 C42 1.320 . S
C44 C45 1.405 . S
C44 H70 0.930 . S
C45 C40 1.479 . S
C45 C44 1.405 . S
C45 H71 0.931 . S
U46 O47 2.454 . S
U46 O48 2.458 . S
U46 C49 2.984 . S
U46 C50 2.847 . S
U46 C63 2.882 . S
U46 O64 2.441 . S
U46 O65 2.420 . S
U46 O66 2.455 . S
U46 O67 2.449 . S
O47 U46 2.454 . S
O47 C49 1.353 . S
O48 U46 2.458 . S
O48 C49 1.286 . S
C49 U46 2.984 . S
C49 O47 1.353 . S
C49 O48 1.286 . S
C49 C51 1.363 . S
C50 C40 1.465 . S
C50 U46 2.847 . S
C50 O64 1.249 . S
C50 O65 1.202 . S
C51 C49 1.363 . S
C51 C53 1.408 . S
C51 C56 1.342 . S
C52 C53 1.310 . S
C52 C55 1.461 . S
C52 H72 0.932 . S
C53 C51 1.408 . S
C53 C52 1.310 . S
C53 H73 0.930 . S
C54 C55 1.474 . S
C54 C56 1.285 . S
C54 H74 0.929 . S
C55 C52 1.461 . S
C55 C54 1.474 . S
C56 C51 1.342 . S
C56 C54 1.285 . S
C56 H75 0.930 . S
C57 C60 1.424 . S
C57 C62 1.245 . S
C57 C63 1.428 . S
C58 C61 1.260 . S
C58 C62 1.477 . S
C58 H76 0.932 . S
C59 C60 1.384 . S
C59 C61 1.479 . S
C59 H77 0.929 . S
C60 C57 1.424 . S
C60 C59 1.384 . S
C60 H78 0.928 . S
C61 C58 1.260 . S
C61 C59 1.479 . S
C62 C57 1.245 . S
C62 C58 1.477 . S
C62 H79 0.932 . S
C63 U46 2.882 . S
C63 C57 1.428 . S
C63 O66 1.301 . S
C63 O67 1.282 . S
O64 U46 2.441 . S
O64 C50 1.249 . S
O65 U46 2.420 . S
O65 C50 1.202 . S
O66 U46 2.455 . S
O66 C63 1.301 . S
O67 U46 2.449 . S
O67 C63 1.282 . S
H68 C41 0.931 . S
H69 C43 0.929 . S
H70 C44 0.930 . S
H71 C45 0.931 . S
H72 C52 0.932 . S
H73 C53 0.930 . S
H74 C54 0.929 . S
H75 C56 0.930 . S
H76 C58 0.932 . S
H77 C59 0.929 . S
H78 C60 0.928 . S
H79 C62 0.932 . S
C80 C81 1.264 . S
C80 C85 1.479 . S
C80 C90 1.465 . S
C81 C80 1.264 . S
C81 C83 1.339 . S
C81 H108 0.931 . S
C82 C83 1.395 . S
C82 C84 1.320 . S
C83 C81 1.339 . S
C83 C82 1.395 . S
C83 H109 0.929 . S
C84 C82 1.320 . S
C84 C85 1.405 . S
C84 H110 0.930 . S
C85 C80 1.479 . S
C85 C84 1.405 . S
C85 H111 0.931 . S
U86 O87 2.454 . S
U86 O88 2.458 . S
U86 C89 2.984 . S
U86 C90 2.847 . S
U86 C103 2.882 . S
U86 O104 2.441 . S
U86 O105 2.420 . S
U86 O106 2.455 . S
U86 O107 2.449 . S
O87 U86 2.454 . S
O87 C89 1.353 . S
O88 U86 2.458 . S
O88 C89 1.286 . S
C89 U86 2.984 . S
C89 O87 1.353 . S
C89 O88 1.286 . S
C89 C91 1.363 . S
C90 C80 1.465 . S
C90 U86 2.847 . S
C90 O104 1.249 . S
C90 O105 1.202 . S
C91 C89 1.363 . S
C91 C93 1.408 . S
C91 C96 1.342 . S
C92 C93 1.310 . S
C92 C95 1.461 . S
C92 H112 0.932 . S
C93 C91 1.408 . S
C93 C92 1.310 . S
C93 H113 0.930 . S
C94 C95 1.474 . S
C94 C96 1.285 . S
C94 H114 0.929 . S
C95 C92 1.461 . S
C95 C94 1.474 . S
C96 C91 1.342 . S
C96 C94 1.285 . S
C96 H115 0.930 . S
C97 C100 1.424 . S
C97 C102 1.245 . S
C97 C103 1.428 . S
C98 C101 1.260 . S
C98 C102 1.477 . S
C98 H116 0.932 . S
C99 C100 1.384 . S
C99 C101 1.479 . S
C99 H117 0.929 . S
C100 C97 1.424 . S
C100 C99 1.384 . S
C100 H118 0.928 . S
C101 C98 1.260 . S
C101 C99 1.479 . S
C102 C97 1.245 . S
C102 C98 1.477 . S
C102 H119 0.932 . S
C103 U86 2.882 . S
C103 C97 1.428 . S
C103 O106 1.301 . S
C103 O107 1.282 . S
O104 U86 2.441 . S
O104 C90 1.249 . S
O105 U86 2.420 . S
O105 C90 1.202 . S
O106 U86 2.455 . S
O106 C103 1.301 . S
O107 U86 2.449 . S
O107 C103 1.282 . S
H108 C81 0.931 . S
H109 C83 0.929 . S
H110 C84 0.930 . S
H111 C85 0.931 . S
H112 C92 0.932 . S
H113 C93 0.930 . S
H114 C94 0.929 . S
H115 C96 0.930 . S
H116 C98 0.932 . S
H117 C99 0.929 . S
H118 C100 0.928 . S
H119 C102 0.932 . S
C120 C121 1.264 . S
C120 C125 1.479 . S
C120 C130 1.465 . S
C121 C120 1.264 . S
C121 C123 1.339 . S
C121 H148 0.931 . S
C122 C123 1.395 . S
C122 C124 1.320 . S
C123 C121 1.339 . S
C123 C122 1.395 . S
C123 H149 0.929 . S
C124 C122 1.320 . S
C124 C125 1.405 . S
C124 H150 0.930 . S
C125 C120 1.479 . S
C125 C124 1.405 . S
C125 H151 0.931 . S
U126 O127 2.454 . S
U126 O128 2.458 . S
U126 C129 2.984 . S
U126 C130 2.847 . S
U126 C143 2.882 . S
U126 O144 2.441 . S
U126 O145 2.420 . S
U126 O146 2.455 . S
U126 O147 2.449 . S
O127 U126 2.454 . S
O127 C129 1.353 . S
O128 U126 2.458 . S
O128 C129 1.286 . S
C129 U126 2.984 . S
C129 O127 1.353 . S
C129 O128 1.286 . S
C129 C131 1.363 . S
C130 C120 1.465 . S
C130 U126 2.847 . S
C130 O144 1.249 . S
C130 O145 1.202 . S
C131 C129 1.363 . S
C131 C133 1.408 . S
C131 C136 1.342 . S
C132 C133 1.310 . S
C132 C135 1.461 . S
C132 H152 0.932 . S
C133 C131 1.408 . S
C133 C132 1.310 . S
C133 H153 0.930 . S
C134 C135 1.474 . S
C134 C136 1.285 . S
C134 H154 0.929 . S
C135 C132 1.461 . S
C135 C134 1.474 . S
C136 C131 1.342 . S
C136 C134 1.285 . S
C136 H155 0.930 . S
C137 C140 1.424 . S
C137 C142 1.245 . S
C137 C143 1.428 . S
C138 C141 1.260 . S
C138 C142 1.477 . S
C138 H156 0.932 . S
C139 C140 1.384 . S
C139 C141 1.479 . S
C139 H157 0.929 . S
C140 C137 1.424 . S
C140 C139 1.384 . S
C140 H158 0.928 . S
C141 C138 1.260 . S
C141 C139 1.479 . S
C142 C137 1.245 . S
C142 C138 1.477 . S
C142 H159 0.932 . S
C143 U126 2.882 . S
C143 C137 1.428 . S
C143 O146 1.301 . S
C143 O147 1.282 . S
O144 U126 2.441 . S
O144 C130 1.249 . S
O145 U126 2.420 . S
O145 C130 1.202 . S
O146 U126 2.455 . S
O146 C143 1.301 . S
O147 U126 2.449 . S
O147 C143 1.282 . S
H148 C121 0.931 . S
H149 C123 0.929 . S
H150 C124 0.930 . S
H151 C125 0.931 . S
H152 C132 0.932 . S
H153 C133 0.930 . S
H154 C134 0.929 . S
H155 C136 0.930 . S
H156 C138 0.932 . S
H157 C139 0.929 . S
H158 C140 0.928 . S
H159 C142 0.932 . S
C160 C161 1.264 . S
C160 C165 1.479 . S
C160 C170 1.465 . S
C161 C160 1.264 . S
C161 C163 1.339 . S
C161 H188 0.931 . S
C162 C163 1.395 . S
C162 C164 1.320 . S
C163 C161 1.339 . S
C163 C162 1.395 . S
C163 H189 0.929 . S
C164 C162 1.320 . S
C164 C165 1.405 . S
C164 H190 0.930 . S
C165 C160 1.479 . S
C165 C164 1.405 . S
C165 H191 0.931 . S
U166 O167 2.454 . S
U166 O168 2.458 . S
U166 C169 2.984 . S
U166 C170 2.847 . S
U166 C183 2.882 . S
U166 O184 2.441 . S
U166 O185 2.420 . S
U166 O186 2.455 . S
U166 O187 2.449 . S
O167 U166 2.454 . S
O167 C169 1.353 . S
O168 U166 2.458 . S
O168 C169 1.286 . S
C169 U166 2.984 . S
C169 O167 1.353 . S
C169 O168 1.286 . S
C169 C171 1.363 . S
C170 C160 1.465 . S
C170 U166 2.847 . S
C170 O184 1.249 . S
C170 O185 1.202 . S
C171 C169 1.363 . S
C171 C173 1.408 . S
C171 C176 1.342 . S
C172 C173 1.310 . S
C172 C175 1.461 . S
C172 H192 0.932 . S
C173 C171 1.408 . S
C173 C172 1.310 . S
C173 H193 0.930 . S
C174 C175 1.474 . S
C174 C176 1.285 . S
C174 H194 0.929 . S
C175 C172 1.461 . S
C175 C174 1.474 . S
C176 C171 1.342 . S
C176 C174 1.285 . S
C176 H195 0.930 . S
C177 C180 1.424 . S
C177 C182 1.245 . S
C177 C183 1.428 . S
C178 C181 1.260 . S
C178 C182 1.477 . S
C178 H196 0.932 . S
C179 C180 1.384 . S
C179 C181 1.479 . S
C179 H197 0.929 . S
C180 C177 1.424 . S
C180 C179 1.384 . S
C180 H198 0.928 . S
C181 C178 1.260 . S
C181 C179 1.479 . S
C182 C177 1.245 . S
C182 C178 1.477 . S
C182 H199 0.932 . S
C183 U166 2.882 . S
C183 C177 1.428 . S
C183 O186 1.301 . S
C183 O187 1.282 . S
O184 U166 2.441 . S
O184 C170 1.249 . S
O185 U166 2.420 . S
O185 C170 1.202 . S
O186 U166 2.455 . S
O186 C183 1.301 . S
O187 U166 2.449 . S
O187 C183 1.282 . S
H188 C161 0.931 . S
H189 C163 0.929 . S
H190 C164 0.930 . S
H191 C165 0.931 . S
H192 C172 0.932 . S
H193 C173 0.930 . S
H194 C174 0.929 . S
H195 C176 0.930 . S
H196 C178 0.932 . S
H197 C179 0.929 . S
H198 C180 0.928 . S
H199 C182 0.932 . S
C200 C201 1.264 . S
C200 C205 1.479 . S
C200 C210 1.465 . S
C201 C200 1.264 . S
C201 C203 1.339 . S
C201 H228 0.931 . S
C202 C203 1.395 . S
C202 C204 1.320 . S
C203 C201 1.339 . S
C203 C202 1.395 . S
C203 H229 0.929 . S
C204 C202 1.320 . S
C204 C205 1.405 . S
C204 H230 0.930 . S
C205 C200 1.479 . S
C205 C204 1.405 . S
C205 H231 0.931 . S
U206 O207 2.454 . S
U206 O208 2.458 . S
U206 C209 2.984 . S
U206 C210 2.847 . S
U206 C223 2.882 . S
U206 O224 2.441 . S
U206 O225 2.420 . S
U206 O226 2.455 . S
U206 O227 2.449 . S
O207 U206 2.454 . S
O207 C209 1.353 . S
O208 U206 2.458 . S
O208 C209 1.286 . S
C209 U206 2.984 . S
C209 O207 1.353 . S
C209 O208 1.286 . S
C209 C211 1.363 . S
C210 C200 1.465 . S
C210 U206 2.847 . S
C210 O224 1.249 . S
C210 O225 1.202 . S
C211 C209 1.363 . S
C211 C213 1.408 . S
C211 C216 1.342 . S
C212 C213 1.310 . S
C212 C215 1.461 . S
C212 H232 0.932 . S
C213 C211 1.408 . S
C213 C212 1.310 . S
C213 H233 0.930 . S
C214 C215 1.474 . S
C214 C216 1.285 . S
C214 H234 0.929 . S
C215 C212 1.461 . S
C215 C214 1.474 . S
C216 C211 1.342 . S
C216 C214 1.285 . S
C216 H235 0.930 . S
C217 C220 1.424 . S
C217 C222 1.245 . S
C217 C223 1.428 . S
C218 C221 1.260 . S
C218 C222 1.477 . S
C218 H236 0.932 . S
C219 C220 1.384 . S
C219 C221 1.479 . S
C219 H237 0.929 . S
C220 C217 1.424 . S
C220 C219 1.384 . S
C220 H238 0.928 . S
C221 C218 1.260 . S
C221 C219 1.479 . S
C222 C217 1.245 . S
C222 C218 1.477 . S
C222 H239 0.932 . S
C223 U206 2.882 . S
C223 C217 1.428 . S
C223 O226 1.301 . S
C223 O227 1.282 . S
O224 U206 2.441 . S
O224 C210 1.249 . S
O225 U206 2.420 . S
O225 C210 1.202 . S
O226 U206 2.455 . S
O226 C223 1.301 . S
O227 U206 2.449 . S
O227 C223 1.282 . S
H228 C201 0.931 . S
H229 C203 0.929 . S
H230 C204 0.930 . S
H231 C205 0.931 . S
H232 C212 0.932 . S
H233 C213 0.930 . S
H234 C214 0.929 . S
H235 C216 0.930 . S
H236 C218 0.932 . S
H237 C219 0.929 . S
H238 C220 0.928 . S
H239 C222 0.932 . S
C240 C241 1.264 . S
C240 C245 1.479 . S
C240 C250 1.465 . S
C241 C240 1.264 . S
C241 C243 1.339 . S
C241 H268 0.931 . S
C242 C243 1.395 . S
C242 C244 1.320 . S
C243 C241 1.339 . S
C243 C242 1.395 . S
C243 H269 0.929 . S
C244 C242 1.320 . S
C244 C245 1.405 . S
C244 H270 0.930 . S
C245 C240 1.479 . S
C245 C244 1.405 . S
C245 H271 0.931 . S
U246 O247 2.454 . S
U246 O248 2.458 . S
U246 C249 2.984 . S
U246 C250 2.847 . S
U246 C263 2.882 . S
U246 O264 2.441 . S
U246 O265 2.420 . S
U246 O266 2.455 . S
U246 O267 2.449 . S
O247 U246 2.454 . S
O247 C249 1.353 . S
O248 U246 2.458 . S
O248 C249 1.286 . S
C249 U246 2.984 . S
C249 O247 1.353 . S
C249 O248 1.286 . S
C249 C251 1.363 . S
C250 C240 1.465 . S
C250 U246 2.847 . S
C250 O264 1.249 . S
C250 O265 1.202 . S
C251 C249 1.363 . S
C251 C253 1.408 . S
C251 C256 1.342 . S
C252 C253 1.310 . S
C252 C255 1.461 . S
C252 H272 0.932 . S
C253 C251 1.408 . S
C253 C252 1.310 . S
C253 H273 0.930 . S
C254 C255 1.474 . S
C254 C256 1.285 . S
C254 H274 0.929 . S
C255 C252 1.461 . S
C255 C254 1.474 . S
C256 C251 1.342 . S
C256 C254 1.285 . S
C256 H275 0.930 . S
C257 C260 1.424 . S
C257 C262 1.245 . S
C257 C263 1.428 . S
C258 C261 1.260 . S
C258 C262 1.477 . S
C258 H276 0.932 . S
C259 C260 1.384 . S
C259 C261 1.479 . S
C259 H277 0.929 . S
C260 C257 1.424 . S
C260 C259 1.384 . S
C260 H278 0.928 . S
C261 C258 1.260 . S
C261 C259 1.479 . S
C262 C257 1.245 . S
C262 C258 1.477 . S
C262 H279 0.932 . S
C263 U246 2.882 . S
C263 C257 1.428 . S
C263 O266 1.301 . S
C263 O267 1.282 . S
O264 U246 2.441 . S
O264 C250 1.249 . S
O265 U246 2.420 . S
O265 C250 1.202 . S
O266 U246 2.455 . S
O266 C263 1.301 . S
O267 U246 2.449 . S
O267 C263 1.282 . S
H268 C241 0.931 . S
H269 C243 0.929 . S
H270 C244 0.930 . S
H271 C245 0.931 . S
H272 C252 0.932 . S
H273 C253 0.930 . S
H274 C254 0.929 . S
H275 C256 0.930 . S
H276 C258 0.932 . S
H277 C259 0.929 . S
H278 C260 0.928 . S
H279 C262 0.932 . S
C280 C281 1.264 . S
C280 C285 1.479 . S
C280 C290 1.465 . S
C281 C280 1.264 . S
C281 C283 1.339 . S
C281 H308 0.931 . S
C282 C283 1.395 . S
C282 C284 1.320 . S
C283 C281 1.339 . S
C283 C282 1.395 . S
C283 H309 0.929 . S
C284 C282 1.320 . S
C284 C285 1.405 . S
C284 H310 0.930 . S
C285 C280 1.479 . S
C285 C284 1.405 . S
C285 H311 0.931 . S
U286 O287 2.454 . S
U286 O288 2.458 . S
U286 C289 2.984 . S
U286 C290 2.847 . S
U286 C303 2.882 . S
U286 O304 2.441 . S
U286 O305 2.420 . S
U286 O306 2.455 . S
U286 O307 2.449 . S
O287 U286 2.454 . S
O287 C289 1.353 . S
O288 U286 2.458 . S
O288 C289 1.286 . S
C289 U286 2.984 . S
C289 O287 1.353 . S
C289 O288 1.286 . S
C289 C291 1.363 . S
C290 C280 1.465 . S
C290 U286 2.847 . S
C290 O304 1.249 . S
C290 O305 1.202 . S
C291 C289 1.363 . S
C291 C293 1.408 . S
C291 C296 1.342 . S
C292 C293 1.310 . S
C292 C295 1.461 . S
C292 H312 0.932 . S
C293 C291 1.408 . S
C293 C292 1.310 . S
C293 H313 0.930 . S
C294 C295 1.474 . S
C294 C296 1.285 . S
C294 H314 0.929 . S
C295 C292 1.461 . S
C295 C294 1.474 . S
C296 C291 1.342 . S
C296 C294 1.285 . S
C296 H315 0.930 . S
C297 C300 1.424 . S
C297 C302 1.245 . S
C297 C303 1.428 . S
C298 C301 1.260 . S
C298 C302 1.477 . S
C298 H316 0.932 . S
C299 C300 1.384 . S
C299 C301 1.479 . S
C299 H317 0.929 . S
C300 C297 1.424 . S
C300 C299 1.384 . S
C300 H318 0.928 . S
C301 C298 1.260 . S
C301 C299 1.479 . S
C302 C297 1.245 . S
C302 C298 1.477 . S
C302 H319 0.932 . S
C303 U286 2.882 . S
C303 C297 1.428 . S
C303 O306 1.301 . S
C303 O307 1.282 . S
O304 U286 2.441 . S
O304 C290 1.249 . S
O305 U286 2.420 . S
O305 C290 1.202 . S
O306 U286 2.455 . S
O306 C303 1.301 . S
O307 U286 2.449 . S
O307 C303 1.282 . S
H308 C281 0.931 . S
H309 C283 0.929 . S
H310 C284 0.930 . S
H311 C285 0.931 . S
H312 C292 0.932 . S
H313 C293 0.930 . S
H314 C294 0.929 . S
H315 C296 0.930 . S
H316 C298 0.932 . S
H317 C299 0.929 . S
H318 C300 0.928 . S
H319 C302 0.932 . S
C320 C321 1.264 . S
C320 C325 1.479 . S
C320 C330 1.465 . S
C321 C320 1.264 . S
C321 C323 1.339 . S
C321 H348 0.931 . S
C322 C323 1.395 . S
C322 C324 1.320 . S
C323 C321 1.339 . S
C323 C322 1.395 . S
C323 H349 0.929 . S
C324 C322 1.320 . S
C324 C325 1.405 . S
C324 H350 0.930 . S
C325 C320 1.479 . S
C325 C324 1.405 . S
C325 H351 0.931 . S
U326 O327 2.454 . S
U326 O328 2.458 . S
U326 C329 2.984 . S
U326 C330 2.847 . S
U326 C343 2.882 . S
U326 O344 2.441 . S
U326 O345 2.420 . S
U326 O346 2.455 . S
U326 O347 2.449 . S
O327 U326 2.454 . S
O327 C329 1.353 . S
O328 U326 2.458 . S
O328 C329 1.286 . S
C329 U326 2.984 . S
C329 O327 1.353 . S
C329 O328 1.286 . S
C329 C331 1.363 . S
C330 C320 1.465 . S
C330 U326 2.847 . S
C330 O344 1.249 . S
C330 O345 1.202 . S
C331 C329 1.363 . S
C331 C333 1.408 . S
C331 C336 1.342 . S
C332 C333 1.310 . S
C332 C335 1.461 . S
C332 H352 0.932 . S
C333 C331 1.408 . S
C333 C332 1.310 . S
C333 H353 0.930 . S
C334 C335 1.474 . S
C334 C336 1.285 . S
C334 H354 0.929 . S
C335 C332 1.461 . S
C335 C334 1.474 . S
C336 C331 1.342 . S
C336 C334 1.285 . S
C336 H355 0.930 . S
C337 C340 1.424 . S
C337 C342 1.245 . S
C337 C343 1.428 . S
C338 C341 1.260 . S
C338 C342 1.477 . S
C338 H356 0.932 . S
C339 C340 1.384 . S
C339 C341 1.479 . S
C339 H357 0.929 . S
C340 C337 1.424 . S
C340 C339 1.384 . S
C340 H358 0.928 . S
C341 C338 1.260 . S
C341 C339 1.479 . S
C342 C337 1.245 . S
C342 C338 1.477 . S
C342 H359 0.932 . S
C343 U326 2.882 . S
C343 C337 1.428 . S
C343 O346 1.301 . S
C343 O347 1.282 . S
O344 U326 2.441 . S
O344 C330 1.249 . S
O345 U326 2.420 . S
O345 C330 1.202 . S
O346 U326 2.455 . S
O346 C343 1.301 . S
O347 U326 2.449 . S
O347 C343 1.282 . S
H348 C321 0.931 . S
H349 C323 0.929 . S
H350 C324 0.930 . S
H351 C325 0.931 . S
H352 C332 0.932 . S
H353 C333 0.930 . S
H354 C334 0.929 . S
H355 C336 0.930 . S
H356 C338 0.932 . S
H357 C339 0.929 . S
H358 C340 0.928 . S
H359 C342 0.932 . S
C360 C361 1.264 . S
C360 C365 1.479 . S
C360 C370 1.465 . S
C361 C360 1.264 . S
C361 C363 1.339 . S
C361 H388 0.931 . S
C362 C363 1.395 . S
C362 C364 1.320 . S
C363 C361 1.339 . S
C363 C362 1.395 . S
C363 H389 0.929 . S
C364 C362 1.320 . S
C364 C365 1.405 . S
C364 H390 0.930 . S
C365 C360 1.479 . S
C365 C364 1.405 . S
C365 H391 0.931 . S
U366 O367 2.454 . S
U366 O368 2.458 . S
U366 C369 2.984 . S
U366 C370 2.847 . S
U366 C383 2.882 . S
U366 O384 2.441 . S
U366 O385 2.420 . S
U366 O386 2.455 . S
U366 O387 2.449 . S
O367 U366 2.454 . S
O367 C369 1.353 . S
O368 U366 2.458 . S
O368 C369 1.286 . S
C369 U366 2.984 . S
C369 O367 1.353 . S
C369 O368 1.286 . S
C369 C371 1.363 . S
C370 C360 1.465 . S
C370 U366 2.847 . S
C370 O384 1.249 . S
C370 O385 1.202 . S
C371 C369 1.363 . S
C371 C373 1.408 . S
C371 C376 1.342 . S
C372 C373 1.310 . S
C372 C375 1.461 . S
C372 H392 0.932 . S
C373 C371 1.408 . S
C373 C372 1.310 . S
C373 H393 0.930 . S
C374 C375 1.474 . S
C374 C376 1.285 . S
C374 H394 0.929 . S
C375 C372 1.461 . S
C375 C374 1.474 . S
C376 C371 1.342 . S
C376 C374 1.285 . S
C376 H395 0.930 . S
C377 C380 1.424 . S
C377 C382 1.245 . S
C377 C383 1.428 . S
C378 C381 1.260 . S
C378 C382 1.477 . S
C378 H396 0.932 . S
C379 C380 1.384 . S
C379 C381 1.479 . S
C379 H397 0.929 . S
C380 C377 1.424 . S
C380 C379 1.384 . S
C380 H398 0.928 . S
C381 C378 1.260 . S
C381 C379 1.479 . S
C382 C377 1.245 . S
C382 C378 1.477 . S
C382 H399 0.932 . S
C383 U366 2.882 . S
C383 C377 1.428 . S
C383 O386 1.301 . S
C383 O387 1.282 . S
O384 U366 2.441 . S
O384 C370 1.249 . S
O385 U366 2.420 . S
O385 C370 1.202 . S
O386 U366 2.455 . S
O386 C383 1.301 . S
O387 U366 2.449 . S
O387 C383 1.282 . S
H388 C361 0.931 . S
H389 C363 0.929 . S
H390 C364 0.930 . S
H391 C365 0.931 . S
H392 C372 0.932 . S
H393 C373 0.930 . S
H394 C374 0.929 . S
H395 C376 0.930 . S
H396 C378 0.932 . S
H397 C379 0.929 . S
H398 C380 0.928 . S
H399 C382 0.932 . S
C400 C401 1.264 . S
C400 C405 1.479 . S
C400 C410 1.465 . S
C401 C400 1.264 . S
C401 C403 1.339 . S
C401 H428 0.931 . S
C402 C403 1.395 . S
C402 C404 1.320 . S
C403 C401 1.339 . S
C403 C402 1.395 . S
C403 H429 0.929 . S
C404 C402 1.320 . S
C404 C405 1.405 . S
C404 H430 0.930 . S
C405 C400 1.479 . S
C405 C404 1.405 . S
C405 H431 0.931 . S
U406 O407 2.454 . S
U406 O408 2.458 . S
U406 C409 2.984 . S
U406 C410 2.847 . S
U406 C423 2.882 . S
U406 O424 2.441 . S
U406 O425 2.420 . S
U406 O426 2.455 . S
U406 O427 2.449 . S
O407 U406 2.454 . S
O407 C409 1.353 . S
O408 U406 2.458 . S
O408 C409 1.286 . S
C409 U406 2.984 . S
C409 O407 1.353 . S
C409 O408 1.286 . S
C409 C411 1.363 . S
C410 C400 1.465 . S
C410 U406 2.847 . S
C410 O424 1.249 . S
C410 O425 1.202 . S
C411 C409 1.363 . S
C411 C413 1.408 . S
C411 C416 1.342 . S
C412 C413 1.310 . S
C412 C415 1.461 . S
C412 H432 0.932 . S
C413 C411 1.408 . S
C413 C412 1.310 . S
C413 H433 0.930 . S
C414 C415 1.474 . S
C414 C416 1.285 . S
C414 H434 0.929 . S
C415 C412 1.461 . S
C415 C414 1.474 . S
C416 C411 1.342 . S
C416 C414 1.285 . S
C416 H435 0.930 . S
C417 C420 1.424 . S
C417 C422 1.245 . S
C417 C423 1.428 . S
C418 C421 1.260 . S
C418 C422 1.477 . S
C418 H436 0.932 . S
C419 C420 1.384 . S
C419 C421 1.479 . S
C419 H437 0.929 . S
C420 C417 1.424 . S
C420 C419 1.384 . S
C420 H438 0.928 . S
C421 C418 1.260 . S
C421 C419 1.479 . S
C422 C417 1.245 . S
C422 C418 1.477 . S
C422 H439 0.932 . S
C423 U406 2.882 . S
C423 C417 1.428 . S
C423 O426 1.301 . S
C423 O427 1.282 . S
O424 U406 2.441 . S
O424 C410 1.249 . S
O425 U406 2.420 . S
O425 C410 1.202 . S
O426 U406 2.455 . S
O426 C423 1.301 . S
O427 U406 2.449 . S
O427 C423 1.282 . S
H428 C401 0.931 . S
H429 C403 0.929 . S
H430 C404 0.930 . S
H431 C405 0.931 . S
H432 C412 0.932 . S
H433 C413 0.930 . S
H434 C414 0.929 . S
H435 C416 0.930 . S
H436 C418 0.932 . S
H437 C419 0.929 . S
H438 C420 0.928 . S
H439 C422 0.932 . S
C440 C441 1.264 . S
C440 C445 1.479 . S
C440 C450 1.465 . S
C441 C440 1.264 . S
C441 C443 1.339 . S
C441 H468 0.931 . S
C442 C443 1.395 . S
C442 C444 1.320 . S
C443 C441 1.339 . S
C443 C442 1.395 . S
C443 H469 0.929 . S
C444 C442 1.320 . S
C444 C445 1.405 . S
C444 H470 0.930 . S
C445 C440 1.479 . S
C445 C444 1.405 . S
C445 H471 0.931 . S
U446 O447 2.454 . S
U446 O448 2.458 . S
U446 C449 2.984 . S
U446 C450 2.847 . S
U446 C463 2.882 . S
U446 O464 2.441 . S
U446 O465 2.420 . S
U446 O466 2.455 . S
U446 O467 2.449 . S
O447 U446 2.454 . S
O447 C449 1.353 . S
O448 U446 2.458 . S
O448 C449 1.286 . S
C449 U446 2.984 . S
C449 O447 1.353 . S
C449 O448 1.286 . S
C449 C451 1.363 . S
C450 C440 1.465 . S
C450 U446 2.847 . S
C450 O464 1.249 . S
C450 O465 1.202 . S
C451 C449 1.363 . S
C451 C453 1.408 . S
C451 C456 1.342 . S
C452 C453 1.310 . S
C452 C455 1.461 . S
C452 H472 0.932 . S
C453 C451 1.408 . S
C453 C452 1.310 . S
C453 H473 0.930 . S
C454 C455 1.474 . S
C454 C456 1.285 . S
C454 H474 0.929 . S
C455 C452 1.461 . S
C455 C454 1.474 . S
C456 C451 1.342 . S
C456 C454 1.285 . S
C456 H475 0.930 . S
C457 C460 1.424 . S
C457 C462 1.245 . S
C457 C463 1.428 . S
C458 C461 1.260 . S
C458 C462 1.477 . S
C458 H476 0.932 . S
C459 C460 1.384 . S
C459 C461 1.479 . S
C459 H477 0.929 . S
C460 C457 1.424 . S
C460 C459 1.384 . S
C460 H478 0.928 . S
C461 C458 1.260 . S
C461 C459 1.479 . S
C462 C457 1.245 . S
C462 C458 1.477 . S
C462 H479 0.932 . S
C463 U446 2.882 . S
C463 C457 1.428 . S
C463 O466 1.301 . S
C463 O467 1.282 . S
O464 U446 2.441 . S
O464 C450 1.249 . S
O465 U446 2.420 . S
O465 C450 1.202 . S
O466 U446 2.455 . S
O466 C463 1.301 . S
O467 U446 2.449 . S
O467 C463 1.282 . S
H468 C441 0.931 . S
H469 C443 0.929 . S
H470 C444 0.930 . S
H471 C445 0.931 . S
H472 C452 0.932 . S
H473 C453 0.930 . S
H474 C454 0.929 . S
H475 C456 0.930 . S
H476 C458 0.932 . S
H477 C459 0.929 . S
H478 C460 0.928 . S
H479 C462 0.932 . S
C480 C481 1.264 . S
C480 C485 1.479 . S
C480 C490 1.465 . S
C481 C480 1.264 . S
C481 C483 1.339 . S
C481 H508 0.931 . S
C482 C483 1.395 . S
C482 C484 1.320 . S
C483 C481 1.339 . S
C483 C482 1.395 . S
C483 H509 0.929 . S
C484 C482 1.320 . S
C484 C485 1.405 . S
C484 H510 0.930 . S
C485 C480 1.479 . S
C485 C484 1.405 . S
C485 H511 0.931 . S
U486 O487 2.454 . S
U486 O488 2.458 . S
U486 C489 2.984 . S
U486 C490 2.847 . S
U486 C503 2.882 . S
U486 O504 2.441 . S
U486 O505 2.420 . S
U486 O506 2.455 . S
U486 O507 2.449 . S
O487 U486 2.454 . S
O487 C489 1.353 . S
O488 U486 2.458 . S
O488 C489 1.286 . S
C489 U486 2.984 . S
C489 O487 1.353 . S
C489 O488 1.286 . S
C489 C491 1.363 . S
C490 C480 1.465 . S
C490 U486 2.847 . S
C490 O504 1.249 . S
C490 O505 1.202 . S
C491 C489 1.363 . S
C491 C493 1.408 . S
C491 C496 1.342 . S
C492 C493 1.310 . S
C492 C495 1.461 . S
C492 H512 0.932 . S
C493 C491 1.408 . S
C493 C492 1.310 . S
C493 H513 0.930 . S
C494 C495 1.474 . S
C494 C496 1.285 . S
C494 H514 0.929 . S
C495 C492 1.461 . S
C495 C494 1.474 . S
C496 C491 1.342 . S
C496 C494 1.285 . S
C496 H515 0.930 . S
C497 C500 1.424 . S
C497 C502 1.245 . S
C497 C503 1.428 . S
C498 C501 1.260 . S
C498 C502 1.477 . S
C498 H516 0.932 . S
C499 C500 1.384 . S
C499 C501 1.479 . S
C499 H517 0.929 . S
C500 C497 1.424 . S
C500 C499 1.384 . S
C500 H518 0.928 . S
C501 C498 1.260 . S
C501 C499 1.479 . S
C502 C497 1.245 . S
C502 C498 1.477 . S
C502 H519 0.932 . S
C503 U486 2.882 . S
C503 C497 1.428 . S
C503 O506 1.301 . S
C503 O507 1.282 . S
O504 U486 2.441 . S
O504 C490 1.249 . S
O505 U486 2.420 . S
O505 C490 1.202 . S
O506 U486 2.455 . S
O506 C503 1.301 . S
O507 U486 2.449 . S
O507 C503 1.282 . S
H508 C481 0.931 . S
H509 C483 0.929 . S
H510 C484 0.930 . S
H511 C485 0.931 . S
H512 C492 0.932 . S
H513 C493 0.930 . S
H514 C494 0.929 . S
H515 C496 0.930 . S
H516 C498 0.932 . S
H517 C499 0.929 . S
H518 C500 0.928 . S
H519 C502 0.932 . S
C520 C521 1.264 . S
C520 C525 1.479 . S
C520 C530 1.465 . S
C521 C520 1.264 . S
C521 C523 1.339 . S
C521 H548 0.931 . S
C522 C523 1.395 . S
C522 C524 1.320 . S
C523 C521 1.339 . S
C523 C522 1.395 . S
C523 H549 0.929 . S
C524 C522 1.320 . S
C524 C525 1.405 . S
C524 H550 0.930 . S
C525 C520 1.479 . S
C525 C524 1.405 . S
C525 H551 0.931 . S
U526 O527 2.454 . S
U526 O528 2.458 . S
U526 C529 2.984 . S
U526 C530 2.847 . S
U526 C543 2.882 . S
U526 O544 2.441 . S
U526 O545 2.420 . S
U526 O546 2.455 . S
U526 O547 2.449 . S
O527 U526 2.454 . S
O527 C529 1.353 . S
O528 U526 2.458 . S
O528 C529 1.286 . S
C529 U526 2.984 . S
C529 O527 1.353 . S
C529 O528 1.286 . S
C529 C531 1.363 . S
C530 C520 1.465 . S
C530 U526 2.847 . S
C530 O544 1.249 . S
C530 O545 1.202 . S
C531 C529 1.363 . S
C531 C533 1.408 . S
C531 C536 1.342 . S
C532 C533 1.310 . S
C532 C535 1.461 . S
C532 H552 0.932 . S
C533 C531 1.408 . S
C533 C532 1.310 . S
C533 H553 0.930 . S
C534 C535 1.474 . S
C534 C536 1.285 . S
C534 H554 0.929 . S
C535 C532 1.461 . S
C535 C534 1.474 . S
C536 C531 1.342 . S
C536 C534 1.285 . S
C536 H555 0.930 . S
C537 C540 1.424 . S
C537 C542 1.245 . S
C537 C543 1.428 . S
C538 C541 1.260 . S
C538 C542 1.477 . S
C538 H556 0.932 . S
C539 C540 1.384 . S
C539 C541 1.479 . S
C539 H557 0.929 . S
C540 C537 1.424 . S
C540 C539 1.384 . S
C540 H558 0.928 . S
C541 C538 1.260 . S
C541 C539 1.479 . S
C542 C537 1.245 . S
C542 C538 1.477 . S
C542 H559 0.932 . S
C543 U526 2.882 . S
C543 C537 1.428 . S
C543 O546 1.301 . S
C543 O547 1.282 . S
O544 U526 2.441 . S
O544 C530 1.249 . S
O545 U526 2.420 . S
O545 C530 1.202 . S
O546 U526 2.455 . S
O546 C543 1.301 . S
O547 U526 2.449 . S
O547 C543 1.282 . S
H548 C521 0.931 . S
H549 C523 0.929 . S
H550 C524 0.930 . S
H551 C525 0.931 . S
H552 C532 0.932 . S
H553 C533 0.930 . S
H554 C534 0.929 . S
H555 C536 0.930 . S
H556 C538 0.932 . S
H557 C539 0.929 . S
H558 C540 0.928 . S
H559 C542 0.932 . S
C560 C561 1.264 . S
C560 C565 1.479 . S
C560 C570 1.465 . S
C561 C560 1.264 . S
C561 C563 1.339 . S
C561 H588 0.931 . S
C562 C563 1.395 . S
C562 C564 1.320 . S
C563 C561 1.339 . S
C563 C562 1.395 . S
C563 H589 0.929 . S
C564 C562 1.320 . S
C564 C565 1.405 . S
C564 H590 0.930 . S
C565 C560 1.479 . S
C565 C564 1.405 . S
C565 H591 0.931 . S
U566 O567 2.454 . S
U566 O568 2.458 . S
U566 C569 2.984 . S
U566 C570 2.847 . S
U566 C583 2.882 . S
U566 O584 2.441 . S
U566 O585 2.420 . S
U566 O586 2.455 . S
U566 O587 2.449 . S
O567 U566 2.454 . S
O567 C569 1.353 . S
O568 U566 2.458 . S
O568 C569 1.286 . S
C569 U566 2.984 . S
C569 O567 1.353 . S
C569 O568 1.286 . S
C569 C571 1.363 . S
C570 C560 1.465 . S
C570 U566 2.847 . S
C570 O584 1.249 . S
C570 O585 1.202 . S
C571 C569 1.363 . S
C571 C573 1.408 . S
C571 C576 1.342 . S
C572 C573 1.310 . S
C572 C575 1.461 . S
C572 H592 0.932 . S
C573 C571 1.408 . S
C573 C572 1.310 . S
C573 H593 0.930 . S
C574 C575 1.474 . S
C574 C576 1.285 . S
C574 H594 0.929 . S
C575 C572 1.461 . S
C575 C574 1.474 . S
C576 C571 1.342 . S
C576 C574 1.285 . S
C576 H595 0.930 . S
C577 C580 1.424 . S
C577 C582 1.245 . S
C577 C583 1.428 . S
C578 C581 1.260 . S
C578 C582 1.477 . S
C578 H596 0.932 . S
C579 C580 1.384 . S
C579 C581 1.479 . S
C579 H597 0.929 . S
C580 C577 1.424 . S
C580 C579 1.384 . S
C580 H598 0.928 . S
C581 C578 1.260 . S
C581 C579 1.479 . S
C582 C577 1.245 . S
C582 C578 1.477 . S
C582 H599 0.932 . S
C583 U566 2.882 . S
C583 C577 1.428 . S
C583 O586 1.301 . S
C583 O587 1.282 . S
O584 U566 2.441 . S
O584 C570 1.249 . S
O585 U566 2.420 . S
O585 C570 1.202 . S
O586 U566 2.455 . S
O586 C583 1.301 . S
O587 U566 2.449 . S
O587 C583 1.282 . S
H588 C561 0.931 . S
H589 C563 0.929 . S
H590 C564 0.930 . S
H591 C565 0.931 . S
H592 C572 0.932 . S
H593 C573 0.930 . S
H594 C574 0.929 . S
H595 C576 0.930 . S
H596 C578 0.932 . S
H597 C579 0.929 . S
H598 C580 0.928 . S
H599 C582 0.932 . S
C600 C601 1.264 . S
C600 C605 1.479 . S
C600 C610 1.465 . S
C601 C600 1.264 . S
C601 C603 1.339 . S
C601 H628 0.931 . S
C602 C603 1.395 . S
C602 C604 1.320 . S
C603 C601 1.339 . S
C603 C602 1.395 . S
C603 H629 0.929 . S
C604 C602 1.320 . S
C604 C605 1.405 . S
C604 H630 0.930 . S
C605 C600 1.479 . S
C605 C604 1.405 . S
C605 H631 0.931 . S
U606 O607 2.454 . S
U606 O608 2.458 . S
U606 C609 2.984 . S
U606 C610 2.847 . S
U606 C623 2.882 . S
U606 O624 2.441 . S
U606 O625 2.420 . S
U606 O626 2.455 . S
U606 O627 2.449 . S
O607 U606 2.454 . S
O607 C609 1.353 . S
O608 U606 2.458 . S
O608 C609 1.286 . S
C609 U606 2.984 . S
C609 O607 1.353 . S
C609 O608 1.286 . S
C609 C611 1.363 . S
C610 C600 1.465 . S
C610 U606 2.847 . S
C610 O624 1.249 . S
C610 O625 1.202 . S
C611 C609 1.363 . S
C611 C613 1.408 . S
C611 C616 1.342 . S
C612 C613 1.310 . S
C612 C615 1.461 . S
C612 H632 0.932 . S
C613 C611 1.408 . S
C613 C612 1.310 . S
C613 H633 0.930 . S
C614 C615 1.474 . S
C614 C616 1.285 . S
C614 H634 0.929 . S
C615 C612 1.461 . S
C615 C614 1.474 . S
C616 C611 1.342 . S
C616 C614 1.285 . S
C616 H635 0.930 . S
C617 C620 1.424 . S
C617 C622 1.245 . S
C617 C623 1.428 . S
C618 C621 1.260 . S
C618 C622 1.477 . S
C618 H636 0.932 . S
C619 C620 1.384 . S
C619 C621 1.479 . S
C619 H637 0.929 . S
C620 C617 1.424 . S
C620 C619 1.384 . S
C620 H638 0.928 . S
C621 C618 1.260 . S
C621 C619 1.479 . S
C622 C617 1.245 . S
C622 C618 1.477 . S
C622 H639 0.932 . S
C623 U606 2.882 . S
C623 C617 1.428 . S
C623 O626 1.301 . S
C623 O627 1.282 . S
O624 U606 2.441 . S
O624 C610 1.249 . S
O625 U606 2.420 . S
O625 C610 1.202 . S
O626 U606 2.455 . S
O626 C623 1.301 . S
O627 U606 2.449 . S
O627 C623 1.282 . S
H628 C601 0.931 . S
H629 C603 0.929 . S
H630 C604 0.930 . S
H631 C605 0.931 . S
H632 C612 0.932 . S
H633 C613 0.930 . S
H634 C614 0.929 . S
H635 C616 0.930 . S
H636 C618 0.932 . S
H637 C619 0.929 . S
H638 C620 0.928 . S
H639 C622 0.932 . S
C640 C641 1.264 . S
C640 C645 1.479 . S
C640 C650 1.465 . S
C641 C640 1.264 . S
C641 C643 1.339 . S
C641 H668 0.931 . S
C642 C643 1.395 . S
C642 C644 1.320 . S
C643 C641 1.339 . S
C643 C642 1.395 . S
C643 H669 0.929 . S
C644 C642 1.320 . S
C644 C645 1.405 . S
C644 H670 0.930 . S
C645 C640 1.479 . S
C645 C644 1.405 . S
C645 H671 0.931 . S
U646 O647 2.454 . S
U646 O648 2.458 . S
U646 C649 2.984 . S
U646 C650 2.847 . S
U646 C663 2.882 . S
U646 O664 2.441 . S
U646 O665 2.420 . S
U646 O666 2.455 . S
U646 O667 2.449 . S
O647 U646 2.454 . S
O647 C649 1.353 . S
O648 U646 2.458 . S
O648 C649 1.286 . S
C649 U646 2.984 . S
C649 O647 1.353 . S
C649 O648 1.286 . S
C649 C651 1.363 . S
C650 C640 1.465 . S
C650 U646 2.847 . S
C650 O664 1.249 . S
C650 O665 1.202 . S
C651 C649 1.363 . S
C651 C653 1.408 . S
C651 C656 1.342 . S
C652 C653 1.310 . S
C652 C655 1.461 . S
C652 H672 0.932 . S
C653 C651 1.408 . S
C653 C652 1.310 . S
C653 H673 0.930 . S
C654 C655 1.474 . S
C654 C656 1.285 . S
C654 H674 0.929 . S
C655 C652 1.461 . S
C655 C654 1.474 . S
C656 C651 1.342 . S
C656 C654 1.285 . S
C656 H675 0.930 . S
C657 C660 1.424 . S
C657 C662 1.245 . S
C657 C663 1.428 . S
C658 C661 1.260 . S
C658 C662 1.477 . S
C658 H676 0.932 . S
C659 C660 1.384 . S
C659 C661 1.479 . S
C659 H677 0.929 . S
C660 C657 1.424 . S
C660 C659 1.384 . S
C660 H678 0.928 . S
C661 C658 1.260 . S
C661 C659 1.479 . S
C662 C657 1.245 . S
C662 C658 1.477 . S
C662 H679 0.932 . S
C663 U646 2.882 . S
C663 C657 1.428 . S
C663 O666 1.301 . S
C663 O667 1.282 . S
O664 U646 2.441 . S
O664 C650 1.249 . S
O665 U646 2.420 . S
O665 C650 1.202 . S
O666 U646 2.455 . S
O666 C663 1.301 . S
O667 U646 2.449 . S
O667 C663 1.282 . S
H668 C641 0.931 . S
H669 C643 0.929 . S
H670 C644 0.930 . S
H671 C645 0.931 . S
H672 C652 0.932 . S
H673 C653 0.930 . S
H674 C654 0.929 . S
H675 C656 0.930 . S
H676 C658 0.932 . S
H677 C659 0.929 . S
H678 C660 0.928 . S
H679 C662 0.932 . S
C680 C681 1.264 . S
C680 C685 1.479 . S
C680 C690 1.465 . S
C681 C680 1.264 . S
C681 C683 1.339 . S
C681 H708 0.931 . S
C682 C683 1.395 . S
C682 C684 1.320 . S
C683 C681 1.339 . S
C683 C682 1.395 . S
C683 H709 0.929 . S
C684 C682 1.320 . S
C684 C685 1.405 . S
C684 H710 0.930 . S
C685 C680 1.479 . S
C685 C684 1.405 . S
C685 H711 0.931 . S
U686 O687 2.454 . S
U686 O688 2.458 . S
U686 C689 2.984 . S
U686 C690 2.847 . S
U686 C703 2.882 . S
U686 O704 2.441 . S
U686 O705 2.420 . S
U686 O706 2.455 . S
U686 O707 2.449 . S
O687 U686 2.454 . S
O687 C689 1.353 . S
O688 U686 2.458 . S
O688 C689 1.286 . S
C689 U686 2.984 . S
C689 O687 1.353 . S
C689 O688 1.286 . S
C689 C691 1.363 . S
C690 C680 1.465 . S
C690 U686 2.847 . S
C690 O704 1.249 . S
C690 O705 1.202 . S
C691 C689 1.363 . S
C691 C693 1.408 . S
C691 C696 1.342 . S
C692 C693 1.310 . S
C692 C695 1.461 . S
C692 H712 0.932 . S
C693 C691 1.408 . S
C693 C692 1.310 . S
C693 H713 0.930 . S
C694 C695 1.474 . S
C694 C696 1.285 . S
C694 H714 0.929 . S
C695 C692 1.461 . S
C695 C694 1.474 . S
C696 C691 1.342 . S
C696 C694 1.285 . S
C696 H715 0.930 . S
C697 C700 1.424 . S
C697 C702 1.245 . S
C697 C703 1.428 . S
C698 C701 1.260 . S
C698 C702 1.477 . S
C698 H716 0.932 . S
C699 C700 1.384 . S
C699 C701 1.479 . S
C699 H717 0.929 . S
C700 C697 1.424 . S
C700 C699 1.384 . S
C700 H718 0.928 . S
C701 C698 1.260 . S
C701 C699 1.479 . S
C702 C697 1.245 . S
C702 C698 1.477 . S
C702 H719 0.932 . S
C703 U686 2.882 . S
C703 C697 1.428 . S
C703 O706 1.301 . S
C703 O707 1.282 . S
O704 U686 2.441 . S
O704 C690 1.249 . S
O705 U686 2.420 . S
O705 C690 1.202 . S
O706 U686 2.455 . S
O706 C703 1.301 . S
O707 U686 2.449 . S
O707 C703 1.282 . S
H708 C681 0.931 . S
H709 C683 0.929 . S
H710 C684 0.930 . S
H711 C685 0.931 . S
H712 C692 0.932 . S
H713 C693 0.930 . S
H714 C694 0.929 . S
H715 C696 0.930 . S
H716 C698 0.932 . S
H717 C699 0.929 . S
H718 C700 0.928 . S
H719 C702 0.932 . S
C720 C721 1.264 . S
C720 C725 1.479 . S
C720 C730 1.465 . S
C721 C720 1.264 . S
C721 C723 1.339 . S
C721 H748 0.931 . S
C722 C723 1.395 . S
C722 C724 1.320 . S
C723 C721 1.339 . S
C723 C722 1.395 . S
C723 H749 0.929 . S
C724 C722 1.320 . S
C724 C725 1.405 . S
C724 H750 0.930 . S
C725 C720 1.479 . S
C725 C724 1.405 . S
C725 H751 0.931 . S
U726 O727 2.454 . S
U726 O728 2.458 . S
U726 C729 2.984 . S
U726 C730 2.847 . S
U726 C743 2.882 . S
U726 O744 2.441 . S
U726 O745 2.420 . S
U726 O746 2.455 . S
U726 O747 2.449 . S
O727 U726 2.454 . S
O727 C729 1.353 . S
O728 U726 2.458 . S
O728 C729 1.286 . S
C729 U726 2.984 . S
C729 O727 1.353 . S
C729 O728 1.286 . S
C729 C731 1.363 . S
C730 C720 1.465 . S
C730 U726 2.847 . S
C730 O744 1.249 . S
C730 O745 1.202 . S
C731 C729 1.363 . S
C731 C733 1.408 . S
C731 C736 1.342 . S
C732 C733 1.310 . S
C732 C735 1.461 . S
C732 H752 0.932 . S
C733 C731 1.408 . S
C733 C732 1.310 . S
C733 H753 0.930 . S
C734 C735 1.474 . S
C734 C736 1.285 . S
C734 H754 0.929 . S
C735 C732 1.461 . S
C735 C734 1.474 . S
C736 C731 1.342 . S
C736 C734 1.285 . S
C736 H755 0.930 . S
C737 C740 1.424 . S
C737 C742 1.245 . S
C737 C743 1.428 . S
C738 C741 1.260 . S
C738 C742 1.477 . S
C738 H756 0.932 . S
C739 C740 1.384 . S
C739 C741 1.479 . S
C739 H757 0.929 . S
C740 C737 1.424 . S
C740 C739 1.384 . S
C740 H758 0.928 . S
C741 C738 1.260 . S
C741 C739 1.479 . S
C742 C737 1.245 . S
C742 C738 1.477 . S
C742 H759 0.932 . S
C743 U726 2.882 . S
C743 C737 1.428 . S
C743 O746 1.301 . S
C743 O747 1.282 . S
O744 U726 2.441 . S
O744 C730 1.249 . S
O745 U726 2.420 . S
O745 C730 1.202 . S
O746 U726 2.455 . S
O746 C743 1.301 . S
O747 U726 2.449 . S
O747 C743 1.282 . S
H748 C721 0.931 . S
H749 C723 0.929 . S
H750 C724 0.930 . S
H751 C725 0.931 . S
H752 C732 0.932 . S
H753 C733 0.930 . S
H754 C734 0.929 . S
H755 C736 0.930 . S
H756 C738 0.932 . S
H757 C739 0.929 . S
H758 C740 0.928 . S
H759 C742 0.932 . S
C760 C761 1.264 . S
C760 C765 1.479 . S
C760 C770 1.465 . S
C761 C760 1.264 . S
C761 C763 1.339 . S
C761 H788 0.931 . S
C762 C763 1.395 . S
C762 C764 1.320 . S
C763 C761 1.339 . S
C763 C762 1.395 . S
C763 H789 0.929 . S
C764 C762 1.320 . S
C764 C765 1.405 . S
C764 H790 0.930 . S
C765 C760 1.479 . S
C765 C764 1.405 . S
C765 H791 0.931 . S
U766 O767 2.454 . S
U766 O768 2.458 . S
U766 C769 2.984 . S
U766 C770 2.847 . S
U766 C783 2.882 . S
U766 O784 2.441 . S
U766 O785 2.420 . S
U766 O786 2.455 . S
U766 O787 2.449 . S
O767 U766 2.454 . S
O767 C769 1.353 . S
O768 U766 2.458 . S
O768 C769 1.286 . S
C769 U766 2.984 . S
C769 O767 1.353 . S
C769 O768 1.286 . S
C769 C771 1.363 . S
C770 C760 1.465 . S
C770 U766 2.847 . S
C770 O784 1.249 . S
C770 O785 1.202 . S
C771 C769 1.363 . S
C771 C773 1.408 . S
C771 C776 1.342 . S
C772 C773 1.310 . S
C772 C775 1.461 . S
C772 H792 0.932 . S
C773 C771 1.408 . S
C773 C772 1.310 . S
C773 H793 0.930 . S
C774 C775 1.474 . S
C774 C776 1.285 . S
C774 H794 0.929 . S
C775 C772 1.461 . S
C775 C774 1.474 . S
C776 C771 1.342 . S
C776 C774 1.285 . S
C776 H795 0.930 . S
C777 C780 1.424 . S
C777 C782 1.245 . S
C777 C783 1.428 . S
C778 C781 1.260 . S
C778 C782 1.477 . S
C778 H796 0.932 . S
C779 C780 1.384 . S
C779 C781 1.479 . S
C779 H797 0.929 . S
C780 C777 1.424 . S
C780 C779 1.384 . S
C780 H798 0.928 . S
C781 C778 1.260 . S
C781 C779 1.479 . S
C782 C777 1.245 . S
C782 C778 1.477 . S
C782 H799 0.932 . S
C783 U766 2.882 . S
C783 C777 1.428 . S
C783 O786 1.301 . S
C783 O787 1.282 . S
O784 U766 2.441 . S
O784 C770 1.249 . S
O785 U766 2.420 . S
O785 C770 1.202 . S
O786 U766 2.455 . S
O786 C783 1.301 . S
O787 U766 2.449 . S
O787 C783 1.282 . S
H788 C761 0.931 . S
H789 C763 0.929 . S
H790 C764 0.930 . S
H791 C765 0.931 . S
H792 C772 0.932 . S
H793 C773 0.930 . S
H794 C774 0.929 . S
H795 C776 0.930 . S
H796 C778 0.932 . S
H797 C779 0.929 . S
H798 C780 0.928 . S
H799 C782 0.932 . S
C800 C801 1.264 . S
C800 C805 1.479 . S
C800 C810 1.465 . S
C801 C800 1.264 . S
C801 C803 1.339 . S
C801 H828 0.931 . S
C802 C803 1.395 . S
C802 C804 1.320 . S
C803 C801 1.339 . S
C803 C802 1.395 . S
C803 H829 0.929 . S
C804 C802 1.320 . S
C804 C805 1.405 . S
C804 H830 0.930 . S
C805 C800 1.479 . S
C805 C804 1.405 . S
C805 H831 0.931 . S
U806 O807 2.454 . S
U806 O808 2.458 . S
U806 C809 2.984 . S
U806 C810 2.847 . S
U806 C823 2.882 . S
U806 O824 2.441 . S
U806 O825 2.420 . S
U806 O826 2.455 . S
U806 O827 2.449 . S
O807 U806 2.454 . S
O807 C809 1.353 . S
O808 U806 2.458 . S
O808 C809 1.286 . S
C809 U806 2.984 . S
C809 O807 1.353 . S
C809 O808 1.286 . S
C809 C811 1.363 . S
C810 C800 1.465 . S
C810 U806 2.847 . S
C810 O824 1.249 . S
C810 O825 1.202 . S
C811 C809 1.363 . S
C811 C813 1.408 . S
C811 C816 1.342 . S
C812 C813 1.310 . S
C812 C815 1.461 . S
C812 H832 0.932 . S
C813 C811 1.408 . S
C813 C812 1.310 . S
C813 H833 0.930 . S
C814 C815 1.474 . S
C814 C816 1.285 . S
C814 H834 0.929 . S
C815 C812 1.461 . S
C815 C814 1.474 . S
C816 C811 1.342 . S
C816 C814 1.285 . S
C816 H835 0.930 . S
C817 C820 1.424 . S
C817 C822 1.245 . S
C817 C823 1.428 . S
C818 C821 1.260 . S
C818 C822 1.477 . S
C818 H836 0.932 . S
C819 C820 1.384 . S
C819 C821 1.479 . S
C819 H837 0.929 . S
C820 C817 1.424 . S
C820 C819 1.384 . S
C820 H838 0.928 . S
C821 C818 1.260 . S
C821 C819 1.479 . S
C822 C817 1.245 . S
C822 C818 1.477 . S
C822 H839 0.932 . S
C823 U806 2.882 . S
C823 C817 1.428 . S
C823 O826 1.301 . S
C823 O827 1.282 . S
O824 U806 2.441 . S
O824 C810 1.249 . S
O825 U806 2.420 . S
O825 C810 1.202 . S
O826 U806 2.455 . S
O826 C823 1.301 . S
O827 U806 2.449 . S
O827 C823 1.282 . S
H828 C801 0.931 . S
H829 C803 0.929 . S
H830 C804 0.930 . S
H831 C805 0.931 . S
H832 C812 0.932 . S
H833 C813 0.930 . S
H834 C814 0.929 . S
H835 C816 0.930 . S
H836 C818 0.932 . S
H837 C819 0.929 . S
H838 C820 0.928 . S
H839 C822 0.932 . S
C840 C841 1.264 . S
C840 C845 1.479 . S
C840 C850 1.465 . S
C841 C840 1.264 . S
C841 C843 1.339 . S
C841 H868 0.931 . S
C842 C843 1.395 . S
C842 C844 1.320 . S
C843 C841 1.339 . S
C843 C842 1.395 . S
C843 H869 0.929 . S
C844 C842 1.320 . S
C844 C845 1.405 . S
C844 H870 0.930 . S
C845 C840 1.479 . S
C845 C844 1.405 . S
C845 H871 0.931 . S
U846 O847 2.454 . S
U846 O848 2.458 . S
U846 C849 2.984 . S
U846 C850 2.847 . S
U846 C863 2.882 . S
U846 O864 2.441 . S
U846 O865 2.420 . S
U846 O866 2.455 . S
U846 O867 2.449 . S
O847 U846 2.454 . S
O847 C849 1.353 . S
O848 U846 2.458 . S
O848 C849 1.286 . S
C849 U846 2.984 . S
C849 O847 1.353 . S
C849 O848 1.286 . S
C849 C851 1.363 . S
C850 C840 1.465 . S
C850 U846 2.847 . S
C850 O864 1.249 . S
C850 O865 1.202 . S
C851 C849 1.363 . S
C851 C853 1.408 . S
C851 C856 1.342 . S
C852 C853 1.310 . S
C852 C855 1.461 . S
C852 H872 0.932 . S
C853 C851 1.408 . S
C853 C852 1.310 . S
C853 H873 0.930 . S
C854 C855 1.474 . S
C854 C856 1.285 . S
C854 H874 0.929 . S
C855 C852 1.461 . S
C855 C854 1.474 . S
C856 C851 1.342 . S
C856 C854 1.285 . S
C856 H875 0.930 . S
C857 C860 1.424 . S
C857 C862 1.245 . S
C857 C863 1.428 . S
C858 C861 1.260 . S
C858 C862 1.477 . S
C858 H876 0.932 . S
C859 C860 1.384 . S
C859 C861 1.479 . S
C859 H877 0.929 . S
C860 C857 1.424 . S
C860 C859 1.384 . S
C860 H878 0.928 . S
C861 C858 1.260 . S
C861 C859 1.479 . S
C862 C857 1.245 . S
C862 C858 1.477 . S
C862 H879 0.932 . S
C863 U846 2.882 . S
C863 C857 1.428 . S
C863 O866 1.301 . S
C863 O867 1.282 . S
O864 U846 2.441 . S
O864 C850 1.249 . S
O865 U846 2.420 . S
O865 C850 1.202 . S
O866 U846 2.455 . S
O866 C863 1.301 . S
O867 U846 2.449 . S
O867 C863 1.282 . S
H868 C841 0.931 . S
H869 C843 0.929 . S
H870 C844 0.930 . S
H871 C845 0.931 . S
H872 C852 0.932 . S
H873 C853 0.930 . S
H874 C854 0.929 . S
H875 C856 0.930 . S
H876 C858 0.932 . S
H877 C859 0.929 . S
H878 C860 0.928 . S
H879 C862 0.932 . S
C880 C881 1.264 . S
C880 C885 1.479 . S
C880 C890 1.465 . S
C881 C880 1.264 . S
C881 C883 1.339 . S
C881 H908 0.931 . S
C882 C883 1.395 . S
C882 C884 1.320 . S
C883 C881 1.339 . S
C883 C882 1.395 . S
C883 H909 0.929 . S
C884 C882 1.320 . S
C884 C885 1.405 . S
C884 H910 0.930 . S
C885 C880 1.479 . S
C885 C884 1.405 . S
C885 H911 0.931 . S
U886 O887 2.454 . S
U886 O888 2.458 . S
U886 C889 2.984 . S
U886 C890 2.847 . S
U886 C903 2.882 . S
U886 O904 2.441 . S
U886 O905 2.420 . S
U886 O906 2.455 . S
U886 O907 2.449 . S
O887 U886 2.454 . S
O887 C889 1.353 . S
O888 U886 2.458 . S
O888 C889 1.286 . S
C889 U886 2.984 . S
C889 O887 1.353 . S
C889 O888 1.286 . S
C889 C891 1.363 . S
C890 C880 1.465 . S
C890 U886 2.847 . S
C890 O904 1.249 . S
C890 O905 1.202 . S
C891 C889 1.363 . S
C891 C893 1.408 . S
C891 C896 1.342 . S
C892 C893 1.310 . S
C892 C895 1.461 . S
C892 H912 0.932 . S
C893 C891 1.408 . S
C893 C892 1.310 . S
C893 H913 0.930 . S
C894 C895 1.474 . S
C894 C896 1.285 . S
C894 H914 0.929 . S
C895 C892 1.461 . S
C895 C894 1.474 . S
C896 C891 1.342 . S
C896 C894 1.285 . S
C896 H915 0.930 . S
C897 C900 1.424 . S
C897 C902 1.245 . S
C897 C903 1.428 . S
C898 C901 1.260 . S
C898 C902 1.477 . S
C898 H916 0.932 . S
C899 C900 1.384 . S
C899 C901 1.479 . S
C899 H917 0.929 . S
C900 C897 1.424 . S
C900 C899 1.384 . S
C900 H918 0.928 . S
C901 C898 1.260 . S
C901 C899 1.479 . S
C902 C897 1.245 . S
C902 C898 1.477 . S
C902 H919 0.932 . S
C903 U886 2.882 . S
C903 C897 1.428 . S
C903 O906 1.301 . S
C903 O907 1.282 . S
O904 U886 2.441 . S
O904 C890 1.249 . S
O905 U886 2.420 . S
O905 C890 1.202 . S
O906 U886 2.455 . S
O906 C903 1.301 . S
O907 U886 2.449 . S
O907 C903 1.282 . S
H908 C881 0.931 . S
H909 C883 0.929 . S
H910 C884 0.930 . S
H911 C885 0.931 . S
H912 C892 0.932 . S
H913 C893 0.930 . S
H914 C894 0.929 . S
H915 C896 0.930 . S
H916 C898 0.932 . S
H917 C899 0.929 . S
H918 C900 0.928 . S
H919 C902 0.932 . S
C920 C921 1.264 . S
C920 C925 1.479 . S
C920 C930 1.465 . S
C921 C920 1.264 . S
C921 C923 1.339 . S
C921 H948 0.931 . S
C922 C923 1.395 . S
C922 C924 1.320 . S
C923 C921 1.339 . S
C923 C922 1.395 . S
C923 H949 0.929 . S
C924 C922 1.320 . S
C924 C925 1.405 . S
C924 H950 0.930 . S
C925 C920 1.479 . S
C925 C924 1.405 . S
C925 H951 0.931 . S
U926 O927 2.454 . S
U926 O928 2.458 . S
U926 C929 2.984 . S
U926 C930 2.847 . S
U926 C943 2.882 . S
U926 O944 2.441 . S
U926 O945 2.420 . S
U926 O946 2.455 . S
U926 O947 2.449 . S
O927 U926 2.454 . S
O927 C929 1.353 . S
O928 U926 2.458 . S
O928 C929 1.286 . S
C929 U926 2.984 . S
C929 O927 1.353 . S
C929 O928 1.286 . S
C929 C931 1.363 . S
C930 C920 1.465 . S
C930 U926 2.847 . S
C930 O944 1.249 . S
C930 O945 1.202 . S
C931 C929 1.363 . S
C931 C933 1.408 . S
C931 C936 1.342 . S
C932 C933 1.310 . S
C932 C935 1.461 . S
C932 H952 0.932 . S
C933 C931 1.408 . S
C933 C932 1.310 . S
C933 H953 0.930 . S
C934 C935 1.474 . S
C934 C936 1.285 . S
C934 H954 0.929 . S
C935 C932 1.461 . S
C935 C934 1.474 . S
C936 C931 1.342 . S
C936 C934 1.285 . S
C936 H955 0.930 . S
C937 C940 1.424 . S
C937 C942 1.245 . S
C937 C943 1.428 . S
C938 C941 1.260 . S
C938 C942 1.477 . S
C938 H956 0.932 . S
C939 C940 1.384 . S
C939 C941 1.479 . S
C939 H957 0.929 . S
C940 C937 1.424 . S
C940 C939 1.384 . S
C940 H958 0.928 . S
C941 C938 1.260 . S
C941 C939 1.479 . S
C942 C937 1.245 . S
C942 C938 1.477 . S
C942 H959 0.932 . S
C943 U926 2.882 . S
C943 C937 1.428 . S
C943 O946 1.301 . S
C943 O947 1.282 . S
O944 U926 2.441 . S
O944 C930 1.249 . S
O945 U926 2.420 . S
O945 C930 1.202 . S
O946 U926 2.455 . S
O946 C943 1.301 . S
O947 U926 2.449 . S
O947 C943 1.282 . S
H948 C921 0.931 . S
H949 C923 0.929 . S
H950 C924 0.930 . S
H951 C925 0.931 . S
H952 C932 0.932 . S
H953 C933 0.930 . S
H954 C934 0.929 . S
H955 C936 0.930 . S
H956 C938 0.932 . S
H957 C939 0.929 . S
H958 C940 0.928 . S
H959 C942 0.932 . S
C960 C961 1.264 . S
C960 C965 1.479 . S
C960 C970 1.465 . S
C961 C960 1.264 . S
C961 C963 1.339 . S
C961 H988 0.931 . S
C962 C963 1.395 . S
C962 C964 1.320 . S
C963 C961 1.339 . S
C963 C962 1.395 . S
C963 H989 0.929 . S
C964 C962 1.320 . S
C964 C965 1.405 . S
C964 H990 0.930 . S
C965 C960 1.479 . S
C965 C964 1.405 . S
C965 H991 0.931 . S
U966 O967 2.454 . S
U966 O968 2.458 . S
U966 C969 2.984 . S
U966 C970 2.847 . S
U966 C983 2.882 . S
U966 O984 2.441 . S
U966 O985 2.420 . S
U966 O986 2.455 . S
U966 O987 2.449 . S
O967 U966 2.454 . S
O967 C969 1.353 . S
O968 U966 2.458 . S
O968 C969 1.286 . S
C969 U966 2.984 . S
C969 O967 1.353 . S
C969 O968 1.286 . S
C969 C971 1.363 . S
C970 C960 1.465 . S
C970 U966 2.847 . S
C970 O984 1.249 . S
C970 O985 1.202 . S
C971 C969 1.363 . S
C971 C973 1.408 . S
C971 C976 1.342 . S
C972 C973 1.310 . S
C972 C975 1.461 . S
C972 H992 0.932 . S
C973 C971 1.408 . S
C973 C972 1.310 . S
C973 H993 0.930 . S
C974 C975 1.474 . S
C974 C976 1.285 . S
C974 H994 0.929 . S
C975 C972 1.461 . S
C975 C974 1.474 . S
C976 C971 1.342 . S
C976 C974 1.285 . S
C976 H995 0.930 . S
C977 C980 1.424 . S
C977 C982 1.245 . S
C977 C983 1.428 . S
C978 C981 1.260 . S
C978 C982 1.477 . S
C978 H996 0.932 . S
C979 C980 1.384 . S
C979 C981 1.479 . S
C979 H997 0.929 . S
C980 C977 1.424 . S
C980 C979 1.384 . S
C980 H998 0.928 . S
C981 C978 1.260 . S
C981 C979 1.479 . S
C982 C977 1.245 . S
C982 C978 1.477 . S
C982 H999 0.932 . S
C983 U966 2.882 . S
C983 C977 1.428 . S
C983 O986 1.301 . S
C983 O987 1.282 . S
O984 U966 2.441 . S
O984 C970 1.249 . S
O985 U966 2.420 . S
O985 C970 1.202 . S
O986 U966 2.455 . S
O986 C983 1.301 . S
O987 U966 2.449 . S
O987 C983 1.282 . S
H988 C961 0.931 . S
H989 C963 0.929 . S
H990 C964 0.930 . S
H991 C965 0.931 . S
H992 C972 0.932 . S
H993 C973 0.930 . S
H994 C974 0.929 . S
H995 C976 0.930 . S
H996 C978 0.932 . S
H997 C979 0.929 . S
H998 C980 0.928 . S
H999 C982 0.932 . S
C1000 C1001 1.264 . S
C1000 C1005 1.479 . S
C1000 C1010 1.465 . S
C1001 C1000 1.264 . S
C1001 C1003 1.339 . S
C1001 H1028 0.931 . S
C1002 C1003 1.395 . S
C1002 C1004 1.320 . S
C1003 C1001 1.339 . S
C1003 C1002 1.395 . S
C1003 H1029 0.929 . S
C1004 C1002 1.320 . S
C1004 C1005 1.405 . S
C1004 H1030 0.930 . S
C1005 C1000 1.479 . S
C1005 C1004 1.405 . S
C1005 H1031 0.931 . S
U1006 O1007 2.454 . S
U1006 O1008 2.458 . S
U1006 C1009 2.984 . S
U1006 C1010 2.847 . S
U1006 C1023 2.882 . S
U1006 O1024 2.441 . S
U1006 O1025 2.420 . S
U1006 O1026 2.455 . S
U1006 O1027 2.449 . S
O1007 U1006 2.454 . S
O1007 C1009 1.353 . S
O1008 U1006 2.458 . S
O1008 C1009 1.286 . S
C1009 U1006 2.984 . S
C1009 O1007 1.353 . S
C1009 O1008 1.286 . S
C1009 C1011 1.363 . S
C1010 C1000 1.465 . S
C1010 U1006 2.847 . S
C1010 O1024 1.249 . S
C1010 O1025 1.202 . S
C1011 C1009 1.363 . S
C1011 C1013 1.408 . S
C1011 C1016 1.342 . S
C1012 C1013 1.310 . S
C1012 C1015 1.461 . S
C1012 H1032 0.932 . S
C1013 C1011 1.408 . S
C1013 C1012 1.310 . S
C1013 H1033 0.930 . S
C1014 C1015 1.474 . S
C1014 C1016 1.285 . S
C1014 H1034 0.929 . S
C1015 C1012 1.461 . S
C1015 C1014 1.474 . S
C1016 C1011 1.342 . S
C1016 C1014 1.285 . S
C1016 H1035 0.930 . S
C1017 C1020 1.424 . S
C1017 C1022 1.245 . S
C1017 C1023 1.428 . S
C1018 C1021 1.260 . S
C1018 C1022 1.477 . S
C1018 H1036 0.932 . S
C1019 C1020 1.384 . S
C1019 C1021 1.479 . S
C1019 H1037 0.929 . S
C1020 C1017 1.424 . S
C1020 C1019 1.384 . S
C1020 H1038 0.928 . S
C1021 C1018 1.260 . S
C1021 C1019 1.479 . S
C1022 C1017 1.245 . S
C1022 C1018 1.477 . S
C1022 H1039 0.932 . S
C1023 U1006 2.882 . S
C1023 C1017 1.428 . S
C1023 O1026 1.301 . S
C1023 O1027 1.282 . S
O1024 U1006 2.441 . S
O1024 C1010 1.249 . S
O1025 U1006 2.420 . S
O1025 C1010 1.202 . S
O1026 U1006 2.455 . S
O1026 C1023 1.301 . S
O1027 U1006 2.449 . S
O1027 C1023 1.282 . S
H1028 C1001 0.931 . S
H1029 C1003 0.929 . S
H1030 C1004 0.930 . S
H1031 C1005 0.931 . S
H1032 C1012 0.932 . S
H1033 C1013 0.930 . S
H1034 C1014 0.929 . S
H1035 C1016 0.930 . S
H1036 C1018 0.932 . S
H1037 C1019 0.929 . S
H1038 C1020 0.928 . S
H1039 C1022 0.932 . S
C1040 C1041 1.264 . S
C1040 C1045 1.479 . S
C1040 C1050 1.465 . S
C1041 C1040 1.264 . S
C1041 C1043 1.339 . S
C1041 H1068 0.931 . S
C1042 C1043 1.395 . S
C1042 C1044 1.320 . S
C1043 C1041 1.339 . S
C1043 C1042 1.395 . S
C1043 H1069 0.929 . S
C1044 C1042 1.320 . S
C1044 C1045 1.405 . S
C1044 H1070 0.930 . S
C1045 C1040 1.479 . S
C1045 C1044 1.405 . S
C1045 H1071 0.931 . S
U1046 O1047 2.454 . S
U1046 O1048 2.458 . S
U1046 C1049 2.984 . S
U1046 C1050 2.847 . S
U1046 C1063 2.882 . S
U1046 O1064 2.441 . S
U1046 O1065 2.420 . S
U1046 O1066 2.455 . S
U1046 O1067 2.449 . S
O1047 U1046 2.454 . S
O1047 C1049 1.353 . S
O1048 U1046 2.458 . S
O1048 C1049 1.286 . S
C1049 U1046 2.984 . S
C1049 O1047 1.353 . S
C1049 O1048 1.286 . S
C1049 C1051 1.363 . S
C1050 C1040 1.465 . S
C1050 U1046 2.847 . S
C1050 O1064 1.249 . S
C1050 O1065 1.202 . S
C1051 C1049 1.363 . S
C1051 C1053 1.408 . S
C1051 C1056 1.342 . S
C1052 C1053 1.310 . S
C1052 C1055 1.461 . S
C1052 H1072 0.932 . S
C1053 C1051 1.408 . S
C1053 C1052 1.310 . S
C1053 H1073 0.930 . S
C1054 C1055 1.474 . S
C1054 C1056 1.285 . S
C1054 H1074 0.929 . S
C1055 C1052 1.461 . S
C1055 C1054 1.474 . S
C1056 C1051 1.342 . S
C1056 C1054 1.285 . S
C1056 H1075 0.930 . S
C1057 C1060 1.424 . S
C1057 C1062 1.245 . S
C1057 C1063 1.428 . S
C1058 C1061 1.260 . S
C1058 C1062 1.477 . S
C1058 H1076 0.932 . S
C1059 C1060 1.384 . S
C1059 C1061 1.479 . S
C1059 H1077 0.929 . S
C1060 C1057 1.424 . S
C1060 C1059 1.384 . S
C1060 H1078 0.928 . S
C1061 C1058 1.260 . S
C1061 C1059 1.479 . S
C1062 C1057 1.245 . S
C1062 C1058 1.477 . S
C1062 H1079 0.932 . S
C1063 U1046 2.882 . S
C1063 C1057 1.428 . S
C1063 O1066 1.301 . S
C1063 O1067 1.282 . S
O1064 U1046 2.441 . S
O1064 C1050 1.249 . S
O1065 U1046 2.420 . S
O1065 C1050 1.202 . S
O1066 U1046 2.455 . S
O1066 C1063 1.301 . S
O1067 U1046 2.449 . S
O1067 C1063 1.282 . S
H1068 C1041 0.931 . S
H1069 C1043 0.929 . S
H1070 C1044 0.930 . S
H1071 C1045 0.931 . S
H1072 C1052 0.932 . S
H1073 C1053 0.930 . S
H1074 C1054 0.929 . S
H1075 C1056 0.930 . S
H1076 C1058 0.932 . S
H1077 C1059 0.929 . S
H1078 C1060 0.928 . S
H1079 C1062 0.932 . S
C1080 C1081 1.264 . S
C1080 C1085 1.479 . S
C1080 C1090 1.465 . S
C1081 C1080 1.264 . S
C1081 C1083 1.339 . S
C1081 H1108 0.931 . S
C1082 C1083 1.395 . S
C1082 C1084 1.320 . S
C1083 C1081 1.339 . S
C1083 C1082 1.395 . S
C1083 H1109 0.929 . S
C1084 C1082 1.320 . S
C1084 C1085 1.405 . S
C1084 H1110 0.930 . S
C1085 C1080 1.479 . S
C1085 C1084 1.405 . S
C1085 H1111 0.931 . S
U1086 O1087 2.454 . S
U1086 O1088 2.458 . S
U1086 C1089 2.984 . S
U1086 C1090 2.847 . S
U1086 C1103 2.882 . S
U1086 O1104 2.441 . S
U1086 O1105 2.420 . S
U1086 O1106 2.455 . S
U1086 O1107 2.449 . S
O1087 U1086 2.454 . S
O1087 C1089 1.353 . S
O1088 U1086 2.458 . S
O1088 C1089 1.286 . S
C1089 U1086 2.984 . S
C1089 O1087 1.353 . S
C1089 O1088 1.286 . S
C1089 C1091 1.363 . S
C1090 C1080 1.465 . S
C1090 U1086 2.847 . S
C1090 O1104 1.249 . S
C1090 O1105 1.202 . S
C1091 C1089 1.363 . S
C1091 C1093 1.408 . S
C1091 C1096 1.342 . S
C1092 C1093 1.310 . S
C1092 C1095 1.461 . S
C1092 H1112 0.932 . S
C1093 C1091 1.408 . S
C1093 C1092 1.310 . S
C1093 H1113 0.930 . S
C1094 C1095 1.474 . S
C1094 C1096 1.285 . S
C1094 H1114 0.929 . S
C1095 C1092 1.461 . S
C1095 C1094 1.474 . S
C1096 C1091 1.342 . S
C1096 C1094 1.285 . S
C1096 H1115 0.930 . S
C1097 C1100 1.424 . S
C1097 C1102 1.245 . S
C1097 C1103 1.428 . S
C1098 C1101 1.260 . S
C1098 C1102 1.477 . S
C1098 H1116 0.932 . S
C1099 C1100 1.384 . S
C1099 C1101 1.479 . S
C1099 H1117 0.929 . S
C1100 C1097 1.424 . S
C1100 C1099 1.384 . S
C1100 H1118 0.928 . S
C1101 C1098 1.260 . S
C1101 C1099 1.479 . S
C1102 C1097 1.245 . S
C1102 C1098 1.477 . S
C1102 H1119 0.932 . S
C1103 U1086 2.882 . S
C1103 C1097 1.428 . S
C1103 O1106 1.301 . S
C1103 O1107 1.282 . S
O1104 U1086 2.441 . S
O1104 C1090 1.249 . S
O1105 U1086 2.420 . S
O1105 C1090 1.202 . S
O1106 U1086 2.455 . S
O1106 C1103 1.301 . S
O1107 U1086 2.449 . S
O1107 C1103 1.282 . S
H1108 C1081 0.931 . S
H1109 C1083 0.929 . S
H1110 C1084 0.930 . S
H1111 C1085 0.931 . S
H1112 C1092 0.932 . S
H1113 C1093 0.930 . S
H1114 C1094 0.929 . S
H1115 C1096 0.930 . S
H1116 C1098 0.932 . S
H1117 C1099 0.929 . S
H1118 C1100 0.928 . S
H1119 C1102 0.932 . S
C1120 C1121 1.264 . S
C1120 C1125 1.479 . S
C1120 C1130 1.465 . S
C1121 C1120 1.264 . S
C1121 C1123 1.339 . S
C1121 H1148 0.931 . S
C1122 C1123 1.395 . S
C1122 C1124 1.320 . S
C1123 C1121 1.339 . S
C1123 C1122 1.395 . S
C1123 H1149 0.929 . S
C1124 C1122 1.320 . S
C1124 C1125 1.405 . S
C1124 H1150 0.930 . S
C1125 C1120 1.479 . S
C1125 C1124 1.405 . S
C1125 H1151 0.931 . S
U1126 O1127 2.454 . S
U1126 O1128 2.458 . S
U1126 C1129 2.984 . S
U1126 C1130 2.847 . S
U1126 C1143 2.882 . S
U1126 O1144 2.441 . S
U1126 O1145 2.420 . S
U1126 O1146 2.455 . S
U1126 O1147 2.449 . S
O1127 U1126 2.454 . S
O1127 C1129 1.353 . S
O1128 U1126 2.458 . S
O1128 C1129 1.286 . S
C1129 U1126 2.984 . S
C1129 O1127 1.353 . S
C1129 O1128 1.286 . S
C1129 C1131 1.363 . S
C1130 C1120 1.465 . S
C1130 U1126 2.847 . S
C1130 O1144 1.249 . S
C1130 O1145 1.202 . S
C1131 C1129 1.363 . S
C1131 C1133 1.408 . S
C1131 C1136 1.342 . S
C1132 C1133 1.310 . S
C1132 C1135 1.461 . S
C1132 H1152 0.932 . S
C1133 C1131 1.408 . S
C1133 C1132 1.310 . S
C1133 H1153 0.930 . S
C1134 C1135 1.474 . S
C1134 C1136 1.285 . S
C1134 H1154 0.929 . S
C1135 C1132 1.461 . S
C1135 C1134 1.474 . S
C1136 C1131 1.342 . S
C1136 C1134 1.285 . S
C1136 H1155 0.930 . S
C1137 C1140 1.424 . S
C1137 C1142 1.245 . S
C1137 C1143 1.428 . S
C1138 C1141 1.260 . S
C1138 C1142 1.477 . S
C1138 H1156 0.932 . S
C1139 C1140 1.384 . S
C1139 C1141 1.479 . S
C1139 H1157 0.929 . S
C1140 C1137 1.424 . S
C1140 C1139 1.384 . S
C1140 H1158 0.928 . S
C1141 C1138 1.260 . S
C1141 C1139 1.479 . S
C1142 C1137 1.245 . S
C1142 C1138 1.477 . S
C1142 H1159 0.932 . S
C1143 U1126 2.882 . S
C1143 C1137 1.428 . S
C1143 O1146 1.301 . S
C1143 O1147 1.282 . S
O1144 U1126 2.441 . S
O1144 C1130 1.249 . S
O1145 U1126 2.420 . S
O1145 C1130 1.202 . S
O1146 U1126 2.455 . S
O1146 C1143 1.301 . S
O1147 U1126 2.449 . S
O1147 C1143 1.282 . S
H1148 C1121 0.931 . S
H1149 C1123 0.929 . S
H1150 C1124 0.930 . S
H1151 C1125 0.931 . S
H1152 C1132 0.932 . S
H1153 C1133 0.930 . S
H1154 C1134 0.929 . S
H1155 C1136 0.930 . S
H1156 C1138 0.932 . S
H1157 C1139 0.929 . S
H1158 C1140 0.928 . S
H1159 C1142 0.932 . S
C1160 C1161 1.264 . S
C1160 C1165 1.479 . S
C1160 C1170 1.465 . S
C1161 C1160 1.264 . S
C1161 C1163 1.339 . S
C1161 H1188 0.931 . S
C1162 C1163 1.395 . S
C1162 C1164 1.320 . S
C1163 C1161 1.339 . S
C1163 C1162 1.395 . S
C1163 H1189 0.929 . S
C1164 C1162 1.320 . S
C1164 C1165 1.405 . S
C1164 H1190 0.930 . S
C1165 C1160 1.479 . S
C1165 C1164 1.405 . S
C1165 H1191 0.931 . S
U1166 O1167 2.454 . S
U1166 O1168 2.458 . S
U1166 C1169 2.984 . S
U1166 C1170 2.847 . S
U1166 C1183 2.882 . S
U1166 O1184 2.441 . S
U1166 O1185 2.420 . S
U1166 O1186 2.455 . S
U1166 O1187 2.449 . S
O1167 U1166 2.454 . S
O1167 C1169 1.353 . S
O1168 U1166 2.458 . S
O1168 C1169 1.286 . S
C1169 U1166 2.984 . S
C1169 O1167 1.353 . S
C1169 O1168 1.286 . S
C1169 C1171 1.363 . S
C1170 C1160 1.465 . S
C1170 U1166 2.847 . S
C1170 O1184 1.249 . S
C1170 O1185 1.202 . S
C1171 C1169 1.363 . S
C1171 C1173 1.408 . S
C1171 C1176 1.342 . S
C1172 C1173 1.310 . S
C1172 C1175 1.461 . S
C1172 H1192 0.932 . S
C1173 C1171 1.408 . S
C1173 C1172 1.310 . S
C1173 H1193 0.930 . S
C1174 C1175 1.474 . S
C1174 C1176 1.285 . S
C1174 H1194 0.929 . S
C1175 C1172 1.461 . S
C1175 C1174 1.474 . S
C1176 C1171 1.342 . S
C1176 C1174 1.285 . S
C1176 H1195 0.930 . S
C1177 C1180 1.424 . S
C1177 C1182 1.245 . S
C1177 C1183 1.428 . S
C1178 C1181 1.260 . S
C1178 C1182 1.477 . S
C1178 H1196 0.932 . S
C1179 C1180 1.384 . S
C1179 C1181 1.479 . S
C1179 H1197 0.929 . S
C1180 C1177 1.424 . S
C1180 C1179 1.384 . S
C1180 H1198 0.928 . S
C1181 C1178 1.260 . S
C1181 C1179 1.479 . S
C1182 C1177 1.245 . S
C1182 C1178 1.477 . S
C1182 H1199 0.932 . S
C1183 U1166 2.882 . S
C1183 C1177 1.428 . S
C1183 O1186 1.301 . S
C1183 O1187 1.282 . S
O1184 U1166 2.441 . S
O1184 C1170 1.249 . S
O1185 U1166 2.420 . S
O1185 C1170 1.202 . S
O1186 U1166 2.455 . S
O1186 C1183 1.301 . S
O1187 U1166 2.449 . S
O1187 C1183 1.282 . S
H1188 C1161 0.931 . S
H1189 C1163 0.929 . S
H1190 C1164 0.930 . S
H1191 C1165 0.931 . S
H1192 C1172 0.932 . S
H1193 C1173 0.930 . S
H1194 C1174 0.929 . S
H1195 C1176 0.930 . S
H1196 C1178 0.932 . S
H1197 C1179 0.929 . S
H1198 C1180 0.928 . S
H1199 C1182 0.932 . S
C1200 C1201 1.264 . S
C1200 C1205 1.479 . S
C1200 C1210 1.465 . S
C1201 C1200 1.264 . S
C1201 C1203 1.339 . S
C1201 H1228 0.931 . S
C1202 C1203 1.395 . S
C1202 C1204 1.320 . S
C1203 C1201 1.339 . S
C1203 C1202 1.395 . S
C1203 H1229 0.929 . S
C1204 C1202 1.320 . S
C1204 C1205 1.405 . S
C1204 H1230 0.930 . S
C1205 C1200 1.479 . S
C1205 C1204 1.405 . S
C1205 H1231 0.931 . S
U1206 O1207 2.454 . S
U1206 O1208 2.458 . S
U1206 C1209 2.984 . S
U1206 C1210 2.847 . S
U1206 C1223 2.882 . S
U1206 O1224 2.441 . S
U1206 O1225 2.420 . S
U1206 O1226 2.455 . S
U1206 O1227 2.449 . S
O1207 U1206 2.454 . S
O1207 C1209 1.353 . S
O1208 U1206 2.458 . S
O1208 C1209 1.286 . S
C1209 U1206 2.984 . S
C1209 O1207 1.353 . S
C1209 O1208 1.286 . S
C1209 C1211 1.363 . S
C1210 C1200 1.465 . S
C1210 U1206 2.847 . S
C1210 O1224 1.249 . S
C1210 O1225 1.202 . S
C1211 C1209 1.363 . S
C1211 C1213 1.408 . S
C1211 C1216 1.342 . S
C1212 C1213 1.310 . S
C1212 C1215 1.461 . S
C1212 H1232 0.932 . S
C1213 C1211 1.408 . S
C1213 C1212 1.310 . S
C1213 H1233 0.930 . S
C1214 C1215 1.474 . S
C1214 C1216 1.285 . S
C1214 H1234 0.929 . S
C1215 C1212 1.461 . S
C1215 C1214 1.474 . S
C1216 C1211 1.342 . S
C1216 C1214 1.285 . S
C1216 H1235 0.930 . S
C1217 C1220 1.424 . S
C1217 C1222 1.245 . S
C1217 C1223 1.428 . S
C1218 C1221 1.260 . S
C1218 C1222 1.477 . S
C1218 H1236 0.932 . S
C1219 C1220 1.384 . S
C1219 C1221 1.479 . S
C1219 H1237 0.929 . S
C1220 C1217 1.424 . S
C1220 C1219 1.384 . S
C1220 H1238 0.928 . S
C1221 C1218 1.260 . S
C1221 C1219 1.479 . S
C1222 C1217 1.245 . S
C1222 C1218 1.477 . S
C1222 H1239 0.932 . S
C1223 U1206 2.882 . S
C1223 C1217 1.428 . S
C1223 O1226 1.301 . S
C1223 O1227 1.282 . S
O1224 U1206 2.441 . S
O1224 C1210 1.249 . S
O1225 U1206 2.420 . S
O1225 C1210 1.202 . S
O1226 U1206 2.455 . S
O1226 C1223 1.301 . S
O1227 U1206 2.449 . S
O1227 C1223 1.282 . S
H1228 C1201 0.931 . S
H1229 C1203 0.929 . S
H1230 C1204 0.930 . S
H1231 C1205 0.931 . S
H1232 C1212 0.932 . S
H1233 C1213 0.930 . S
H1234 C1214 0.929 . S
H1235 C1216 0.930 . S
H1236 C1218 0.932 . S
H1237 C1219 0.929 . S
H1238 C1220 0.928 . S
H1239 C1222 0.932 . S
C1240 C1241 1.264 . S
C1240 C1245 1.479 . S
C1240 C1250 1.465 . S
C1241 C1240 1.264 . S
C1241 C1243 1.339 . S
C1241 H1268 0.931 . S
C1242 C1243 1.395 . S
C1242 C1244 1.320 . S
C1243 C1241 1.339 . S
C1243 C1242 1.395 . S
C1243 H1269 0.929 . S
C1244 C1242 1.320 . S
C1244 C1245 1.405 . S
C1244 H1270 0.930 . S
C1245 C1240 1.479 . S
C1245 C1244 1.405 . S
C1245 H1271 0.931 . S
U1246 O1247 2.454 . S
U1246 O1248 2.458 . S
U1246 C1249 2.984 . S
U1246 C1250 2.847 . S
U1246 C1263 2.882 . S
U1246 O1264 2.441 . S
U1246 O1265 2.420 . S
U1246 O1266 2.455 . S
U1246 O1267 2.449 . S
O1247 U1246 2.454 . S
O1247 C1249 1.353 . S
O1248 U1246 2.458 . S
O1248 C1249 1.286 . S
C1249 U1246 2.984 . S
C1249 O1247 1.353 . S
C1249 O1248 1.286 . S
C1249 C1251 1.363 . S
C1250 C1240 1.465 . S
C1250 U1246 2.847 . S
C1250 O1264 1.249 . S
C1250 O1265 1.202 . S
C1251 C1249 1.363 . S
C1251 C1253 1.408 . S
C1251 C1256 1.342 . S
C1252 C1253 1.310 . S
C1252 C1255 1.461 . S
C1252 H1272 0.932 . S
C1253 C1251 1.408 . S
C1253 C1252 1.310 . S
C1253 H1273 0.930 . S
C1254 C1255 1.474 . S
C1254 C1256 1.285 . S
C1254 H1274 0.929 . S
C1255 C1252 1.461 . S
C1255 C1254 1.474 . S
C1256 C1251 1.342 . S
C1256 C1254 1.285 . S
C1256 H1275 0.930 . S
C1257 C1260 1.424 . S
C1257 C1262 1.245 . S
C1257 C1263 1.428 . S
C1258 C1261 1.260 . S
C1258 C1262 1.477 . S
C1258 H1276 0.932 . S
C1259 C1260 1.384 . S
C1259 C1261 1.479 . S
C1259 H1277 0.929 . S
C1260 C1257 1.424 . S
C1260 C1259 1.384 . S
C1260 H1278 0.928 . S
C1261 C1258 1.260 . S
C1261 C1259 1.479 . S
C1262 C1257 1.245 . S
C1262 C1258 1.477 . S
C1262 H1279 0.932 . S
C1263 U1246 2.882 . S
C1263 C1257 1.428 . S
C1263 O1266 1.301 . S
C1263 O1267 1.282 . S
O1264 U1246 2.441 . S
O1264 C1250 1.249 . S
O1265 U1246 2.420 . S
O1265 C1250 1.202 . S
O1266 U1246 2.455 . S
O1266 C1263 1.301 . S
O1267 U1246 2.449 . S
O1267 C1263 1.282 . S
H1268 C1241 0.931 . S
H1269 C1243 0.929 . S
H1270 C1244 0.930 . S
H1271 C1245 0.931 . S
H1272 C1252 0.932 . S
H1273 C1253 0.930 . S
H1274 C1254 0.929 . S
H1275 C1256 0.930 . S
H1276 C1258 0.932 . S
H1277 C1259 0.929 . S
H1278 C1260 0.928 . S
H1279 C1262 0.932 . S
C1280 C1281 1.264 . S
C1280 C1285 1.479 . S
C1280 C1290 1.465 . S
C1281 C1280 1.264 . S
C1281 C1283 1.339 . S
C1281 H1308 0.931 . S
C1282 C1283 1.395 . S
C1282 C1284 1.320 . S
C1283 C1281 1.339 . S
C1283 C1282 1.395 . S
C1283 H1309 0.929 . S
C1284 C1282 1.320 . S
C1284 C1285 1.405 . S
C1284 H1310 0.930 . S
C1285 C1280 1.479 . S
C1285 C1284 1.405 . S
C1285 H1311 0.931 . S
U1286 O1287 2.454 . S
U1286 O1288 2.458 . S
U1286 C1289 2.984 . S
U1286 C1290 2.847 . S
U1286 C1303 2.882 . S
U1286 O1304 2.441 . S
U1286 O1305 2.420 . S
U1286 O1306 2.455 . S
U1286 O1307 2.449 . S
O1287 U1286 2.454 . S
O1287 C1289 1.353 . S
O1288 U1286 2.458 . S
O1288 C1289 1.286 . S
C1289 U1286 2.984 . S
C1289 O1287 1.353 . S
C1289 O1288 1.286 . S
C1289 C1291 1.363 . S
C1290 C1280 1.465 . S
C1290 U1286 2.847 . S
C1290 O1304 1.249 . S
C1290 O1305 1.202 . S
C1291 C1289 1.363 . S
C1291 C1293 1.408 . S
C1291 C1296 1.342 . S
C1292 C1293 1.310 . S
C1292 C1295 1.461 . S
C1292 H1312 0.932 . S
C1293 C1291 1.408 . S
C1293 C1292 1.310 . S
C1293 H1313 0.930 . S
C1294 C1295 1.474 . S
C1294 C1296 1.285 . S
C1294 H1314 0.929 . S
C1295 C1292 1.461 . S
C1295 C1294 1.474 . S
C1296 C1291 1.342 . S
C1296 C1294 1.285 . S
C1296 H1315 0.930 . S
C1297 C1300 1.424 . S
C1297 C1302 1.245 . S
C1297 C1303 1.428 . S
C1298 C1301 1.260 . S
C1298 C1302 1.477 . S
C1298 H1316 0.932 . S
C1299 C1300 1.384 . S
C1299 C1301 1.479 . S
C1299 H1317 0.929 . S
C1300 C1297 1.424 . S
C1300 C1299 1.384 . S
C1300 H1318 0.928 . S
C1301 C1298 1.260 . S
C1301 C1299 1.479 . S
C1302 C1297 1.245 . S
C1302 C1298 1.477 . S
C1302 H1319 0.932 . S
C1303 U1286 2.882 . S
C1303 C1297 1.428 . S
C1303 O1306 1.301 . S
C1303 O1307 1.282 . S
O1304 U1286 2.441 . S
O1304 C1290 1.249 . S
O1305 U1286 2.420 . S
O1305 C1290 1.202 . S
O1306 U1286 2.455 . S
O1306 C1303 1.301 . S
O1307 U1286 2.449 . S
O1307 C1303 1.282 . S
H1308 C1281 0.931 . S
H1309 C1283 0.929 . S
H1310 C1284 0.930 . S
H1311 C1285 0.931 . S
H1312 C1292 0.932 . S
H1313 C1293 0.930 . S
H1314 C1294 0.929 . S
H1315 C1296 0.930 . S
H1316 C1298 0.932 . S
H1317 C1299 0.929 . S
H1318 C1300 0.928 . S
H1319 C1302 0.932 . S
C1320 C1321 1.264 . S
C1320 C1325 1.479 . S
C1320 C1330 1.465 . S
C1321 C1320 1.264 . S
C1321 C1323 1.339 . S
C1321 H1348 0.931 . S
C1322 C1323 1.395 . S
C1322 C1324 1.320 . S
C1323 C1321 1.339 . S
C1323 C1322 1.395 . S
C1323 H1349 0.929 . S
C1324 C1322 1.320 . S
C1324 C1325 1.405 . S
C1324 H1350 0.930 . S
C1325 C1320 1.479 . S
C1325 C1324 1.405 . S
C1325 H1351 0.931 . S
U1326 O1327 2.454 . S
U1326 O1328 2.458 . S
U1326 C1329 2.984 . S
U1326 C1330 2.847 . S
U1326 C1343 2.882 . S
U1326 O1344 2.441 . S
U1326 O1345 2.420 . S
U1326 O1346 2.455 . S
U1326 O1347 2.449 . S
O1327 U1326 2.454 . S
O1327 C1329 1.353 . S
O1328 U1326 2.458 . S
O1328 C1329 1.286 . S
C1329 U1326 2.984 . S
C1329 O1327 1.353 . S
C1329 O1328 1.286 . S
C1329 C1331 1.363 . S
C1330 C1320 1.465 . S
C1330 U1326 2.847 . S
C1330 O1344 1.249 . S
C1330 O1345 1.202 . S
C1331 C1329 1.363 . S
C1331 C1333 1.408 . S
C1331 C1336 1.342 . S
C1332 C1333 1.310 . S
C1332 C1335 1.461 . S
C1332 H1352 0.932 . S
C1333 C1331 1.408 . S
C1333 C1332 1.310 . S
C1333 H1353 0.930 . S
C1334 C1335 1.474 . S
C1334 C1336 1.285 . S
C1334 H1354 0.929 . S
C1335 C1332 1.461 . S
C1335 C1334 1.474 . S
C1336 C1331 1.342 . S
C1336 C1334 1.285 . S
C1336 H1355 0.930 . S
C1337 C1340 1.424 . S
C1337 C1342 1.245 . S
C1337 C1343 1.428 . S
C1338 C1341 1.260 . S
C1338 C1342 1.477 . S
C1338 H1356 0.932 . S
C1339 C1340 1.384 . S
C1339 C1341 1.479 . S
C1339 H1357 0.929 . S
C1340 C1337 1.424 . S
C1340 C1339 1.384 . S
C1340 H1358 0.928 . S
C1341 C1338 1.260 . S
C1341 C1339 1.479 . S
C1342 C1337 1.245 . S
C1342 C1338 1.477 . S
C1342 H1359 0.932 . S
C1343 U1326 2.882 . S
C1343 C1337 1.428 . S
C1343 O1346 1.301 . S
C1343 O1347 1.282 . S
O1344 U1326 2.441 . S
O1344 C1330 1.249 . S
O1345 U1326 2.420 . S
O1345 C1330 1.202 . S
O1346 U1326 2.455 . S
O1346 C1343 1.301 . S
O1347 U1326 2.449 . S
O1347 C1343 1.282 . S
H1348 C1321 0.931 . S
H1349 C1323 0.929 . S
H1350 C1324 0.930 . S
H1351 C1325 0.931 . S
H1352 C1332 0.932 . S
H1353 C1333 0.930 . S
H1354 C1334 0.929 . S
H1355 C1336 0.930 . S
H1356 C1338 0.932 . S
H1357 C1339 0.929 . S
H1358 C1340 0.928 . S
H1359 C1342 0.932 . S
C1360 C1361 1.264 . S
C1360 C1365 1.479 . S
C1360 C1370 1.465 . S
C1361 C1360 1.264 . S
C1361 C1363 1.339 . S
C1361 H1388 0.931 . S
C1362 C1363 1.395 . S
C1362 C1364 1.320 . S
C1363 C1361 1.339 . S
C1363 C1362 1.395 . S
C1363 H1389 0.929 . S
C1364 C1362 1.320 . S
C1364 C1365 1.405 . S
C1364 H1390 0.930 . S
C1365 C1360 1.479 . S
C1365 C1364 1.405 . S
C1365 H1391 0.931 . S
U1366 O1367 2.454 . S
U1366 O1368 2.458 . S
U1366 C1369 2.984 . S
U1366 C1370 2.847 . S
U1366 C1383 2.882 . S
U1366 O1384 2.441 . S
U1366 O1385 2.420 . S
U1366 O1386 2.455 . S
U1366 O1387 2.449 . S
O1367 U1366 2.454 . S
O1367 C1369 1.353 . S
O1368 U1366 2.458 . S
O1368 C1369 1.286 . S
C1369 U1366 2.984 . S
C1369 O1367 1.353 . S
C1369 O1368 1.286 . S
C1369 C1371 1.363 . S
C1370 C1360 1.465 . S
C1370 U1366 2.847 . S
C1370 O1384 1.249 . S
C1370 O1385 1.202 . S
C1371 C1369 1.363 . S
C1371 C1373 1.408 . S
C1371 C1376 1.342 . S
C1372 C1373 1.310 . S
C1372 C1375 1.461 . S
C1372 H1392 0.932 . S
C1373 C1371 1.408 . S
C1373 C1372 1.310 . S
C1373 H1393 0.930 . S
C1374 C1375 1.474 . S
C1374 C1376 1.285 . S
C1374 H1394 0.929 . S
C1375 C1372 1.461 . S
C1375 C1374 1.474 . S
C1376 C1371 1.342 . S
C1376 C1374 1.285 . S
C1376 H1395 0.930 . S
C1377 C1380 1.424 . S
C1377 C1382 1.245 . S
C1377 C1383 1.428 . S
C1378 C1381 1.260 . S
C1378 C1382 1.477 . S
C1378 H1396 0.932 . S
C1379 C1380 1.384 . S
C1379 C1381 1.479 . S
C1379 H1397 0.929 . S
C1380 C1377 1.424 . S
C1380 C1379 1.384 . S
C1380 H1398 0.928 . S
C1381 C1378 1.260 . S
C1381 C1379 1.479 . S
C1382 C1377 1.245 . S
C1382 C1378 1.477 . S
C1382 H1399 0.932 . S
C1383 U1366 2.882 . S
C1383 C1377 1.428 . S
C1383 O1386 1.301 . S
C1383 O1387 1.282 . S
O1384 U1366 2.441 . S
O1384 C1370 1.249 . S
O1385 U1366 2.420 . S
O1385 C1370 1.202 . S
O1386 U1366 2.455 . S
O1386 C1383 1.301 . S
O1387 U1366 2.449 . S
O1387 C1383 1.282 . S
H1388 C1361 0.931 . S
H1389 C1363 0.929 . S
H1390 C1364 0.930 . S
H1391 C1365 0.931 . S
H1392 C1372 0.932 . S
H1393 C1373 0.930 . S
H1394 C1374 0.929 . S
H1395 C1376 0.930 . S
H1396 C1378 0.932 . S
H1397 C1379 0.929 . S
H1398 C1380 0.928 . S
H1399 C1382 0.932 . S
C1400 C1401 1.264 . S
C1400 C1405 1.479 . S
C1400 C1410 1.465 . S
C1401 C1400 1.264 . S
C1401 C1403 1.339 . S
C1401 H1428 0.931 . S
C1402 C1403 1.395 . S
C1402 C1404 1.320 . S
C1403 C1401 1.339 . S
C1403 C1402 1.395 . S
C1403 H1429 0.929 . S
C1404 C1402 1.320 . S
C1404 C1405 1.405 . S
C1404 H1430 0.930 . S
C1405 C1400 1.479 . S
C1405 C1404 1.405 . S
C1405 H1431 0.931 . S
U1406 O1407 2.454 . S
U1406 O1408 2.458 . S
U1406 C1409 2.984 . S
U1406 C1410 2.847 . S
U1406 C1423 2.882 . S
U1406 O1424 2.441 . S
U1406 O1425 2.420 . S
U1406 O1426 2.455 . S
U1406 O1427 2.449 . S
O1407 U1406 2.454 . S
O1407 C1409 1.353 . S
O1408 U1406 2.458 . S
O1408 C1409 1.286 . S
C1409 U1406 2.984 . S
C1409 O1407 1.353 . S
C1409 O1408 1.286 . S
C1409 C1411 1.363 . S
C1410 C1400 1.465 . S
C1410 U1406 2.847 . S
C1410 O1424 1.249 . S
C1410 O1425 1.202 . S
C1411 C1409 1.363 . S
C1411 C1413 1.408 . S
C1411 C1416 1.342 . S
C1412 C1413 1.310 . S
C1412 C1415 1.461 . S
C1412 H1432 0.932 . S
C1413 C1411 1.408 . S
C1413 C1412 1.310 . S
C1413 H1433 0.930 . S
C1414 C1415 1.474 . S
C1414 C1416 1.285 . S
C1414 H1434 0.929 . S
C1415 C1412 1.461 . S
C1415 C1414 1.474 . S
C1416 C1411 1.342 . S
C1416 C1414 1.285 . S
C1416 H1435 0.930 . S
C1417 C1420 1.424 . S
C1417 C1422 1.245 . S
C1417 C1423 1.428 . S
C1418 C1421 1.260 . S
C1418 C1422 1.477 . S
C1418 H1436 0.932 . S
C1419 C1420 1.384 . S
C1419 C1421 1.479 . S
C1419 H1437 0.929 . S
C1420 C1417 1.424 . S
C1420 C1419 1.384 . S
C1420 H1438 0.928 . S
C1421 C1418 1.260 . S
C1421 C1419 1.479 . S
C1422 C1417 1.245 . S
C1422 C1418 1.477 . S
C1422 H1439 0.932 . S
C1423 U1406 2.882 . S
C1423 C1417 1.428 . S
C1423 O1426 1.301 . S
C1423 O1427 1.282 . S
O1424 U1406 2.441 . S
O1424 C1410 1.249 . S
O1425 U1406 2.420 . S
O1425 C1410 1.202 . S
O1426 U1406 2.455 . S
O1426 C1423 1.301 . S
O1427 U1406 2.449 . S
O1427 C1423 1.282 . S
H1428 C1401 0.931 . S
H1429 C1403 0.929 . S
H1430 C1404 0.930 . S
H1431 C1405 0.931 . S
H1432 C1412 0.932 . S
H1433 C1413 0.930 . S
H1434 C1414 0.929 . S
H1435 C1416 0.930 . S
H1436 C1418 0.932 . S
H1437 C1419 0.929 . S
H1438 C1420 0.928 . S
H1439 C1422 0.932 . S
C1440 C1441 1.264 . S
C1440 C1445 1.479 . S
C1440 C1450 1.465 . S
C1441 C1440 1.264 . S
C1441 C1443 1.339 . S
C1441 H1468 0.931 . S
C1442 C1443 1.395 . S
C1442 C1444 1.320 . S
C1443 C1441 1.339 . S
C1443 C1442 1.395 . S
C1443 H1469 0.929 . S
C1444 C1442 1.320 . S
C1444 C1445 1.405 . S
C1444 H1470 0.930 . S
C1445 C1440 1.479 . S
C1445 C1444 1.405 . S
C1445 H1471 0.931 . S
U1446 O1447 2.454 . S
U1446 O1448 2.458 . S
U1446 C1449 2.984 . S
U1446 C1450 2.847 . S
U1446 C1463 2.882 . S
U1446 O1464 2.441 . S
U1446 O1465 2.420 . S
U1446 O1466 2.455 . S
U1446 O1467 2.449 . S
O1447 U1446 2.454 . S
O1447 C1449 1.353 . S
O1448 U1446 2.458 . S
O1448 C1449 1.286 . S
C1449 U1446 2.984 . S
C1449 O1447 1.353 . S
C1449 O1448 1.286 . S
C1449 C1451 1.363 . S
C1450 C1440 1.465 . S
C1450 U1446 2.847 . S
C1450 O1464 1.249 . S
C1450 O1465 1.202 . S
C1451 C1449 1.363 . S
C1451 C1453 1.408 . S
C1451 C1456 1.342 . S
C1452 C1453 1.310 . S
C1452 C1455 1.461 . S
C1452 H1472 0.932 . S
C1453 C1451 1.408 . S
C1453 C1452 1.310 . S
C1453 H1473 0.930 . S
C1454 C1455 1.474 . S
C1454 C1456 1.285 . S
C1454 H1474 0.929 . S
C1455 C1452 1.461 . S
C1455 C1454 1.474 . S
C1456 C1451 1.342 . S
C1456 C1454 1.285 . S
C1456 H1475 0.930 . S
C1457 C1460 1.424 . S
C1457 C1462 1.245 . S
C1457 C1463 1.428 . S
C1458 C1461 1.260 . S
C1458 C1462 1.477 . S
C1458 H1476 0.932 . S
C1459 C1460 1.384 . S
C1459 C1461 1.479 . S
C1459 H1477 0.929 . S
C1460 C1457 1.424 . S
C1460 C1459 1.384 . S
C1460 H1478 0.928 . S
C1461 C1458 1.260 . S
C1461 C1459 1.479 . S
C1462 C1457 1.245 . S
C1462 C1458 1.477 . S
C1462 H1479 0.932 . S
C1463 U1446 2.882 . S
C1463 C1457 1.428 . S
C1463 O1466 1.301 . S
C1463 O1467 1.282 . S
O1464 U1446 2.441 . S
O1464 C1450 1.249 . S
O1465 U1446 2.420 . S
O1465 C1450 1.202 . S
O1466 U1446 2.455 . S
O1466 C1463 1.301 . S
O1467 U1446 2.449 . S
O1467 C1463 1.282 . S
H1468 C1441 0.931 . S
H1469 C1443 0.929 . S
H1470 C1444 0.930 . S
H1471 C1445 0.931 . S
H1472 C1452 0.932 . S
H1473 C1453 0.930 . S
H1474 C1454 0.929 . S
H1475 C1456 0.930 . S
H1476 C1458 0.932 . S
H1477 C1459 0.929 . S
H1478 C1460 0.928 . S
H1479 C1462 0.932 . S
C1480 C1481 1.264 . S
C1480 C1485 1.479 . S
C1480 C1490 1.465 . S
C1481 C1480 1.264 . S
C1481 C1483 1.339 . S
C1481 H1508 0.931 . S
C1482 C1483 1.395 . S
C1482 C1484 1.320 . S
C1483 C1481 1.339 . S
C1483 C1482 1.395 . S
C1483 H1509 0.929 . S
C1484 C1482 1.320 . S
C1484 C1485 1.405 . S
C1484 H1510 0.930 . S
C1485 C1480 1.479 . S
C1485 C1484 1.405 . S
C1485 H1511 0.931 . S
U1486 O1487 2.454 . S
U1486 O1488 2.458 . S
U1486 C1489 2.984 . S
U1486 C1490 2.847 . S
U1486 C1503 2.882 . S
U1486 O1504 2.441 . S
U1486 O1505 2.420 . S
U1486 O1506 2.455 . S
U1486 O1507 2.449 . S
O1487 U1486 2.454 . S
O1487 C1489 1.353 . S
O1488 U1486 2.458 . S
O1488 C1489 1.286 . S
C1489 U1486 2.984 . S
C1489 O1487 1.353 . S
C1489 O1488 1.286 . S
C1489 C1491 1.363 . S
C1490 C1480 1.465 . S
C1490 U1486 2.847 . S
C1490 O1504 1.249 . S
C1490 O1505 1.202 . S
C1491 C1489 1.363 . S
C1491 C1493 1.408 . S
C1491 C1496 1.342 . S
C1492 C1493 1.310 . S
C1492 C1495 1.461 . S
C1492 H1512 0.932 . S
C1493 C1491 1.408 . S
C1493 C1492 1.310 . S
C1493 H1513 0.930 . S
C1494 C1495 1.474 . S
C1494 C1496 1.285 . S
C1494 H1514 0.929 . S
C1495 C1492 1.461 . S
C1495 C1494 1.474 . S
C1496 C1491 1.342 . S
C1496 C1494 1.285 . S
C1496 H1515 0.930 . S
C1497 C1500 1.424 . S
C1497 C1502 1.245 . S
C1497 C1503 1.428 . S
C1498 C1501 1.260 . S
C1498 C1502 1.477 . S
C1498 H1516 0.932 . S
C1499 C1500 1.384 . S
C1499 C1501 1.479 . S
C1499 H1517 0.929 . S
C1500 C1497 1.424 . S
C1500 C1499 1.384 . S
C1500 H1518 0.928 . S
C1501 C1498 1.260 . S
C1501 C1499 1.479 . S
C1502 C1497 1.245 . S
C1502 C1498 1.477 . S
C1502 H1519 0.932 . S
C1503 U1486 2.882 . S
C1503 C1497 1.428 . S
C1503 O1506 1.301 . S
C1503 O1507 1.282 . S
O1504 U1486 2.441 . S
O1504 C1490 1.249 . S
O1505 U1486 2.420 . S
O1505 C1490 1.202 . S
O1506 U1486 2.455 . S
O1506 C1503 1.301 . S
O1507 U1486 2.449 . S
O1507 C1503 1.282 . S
H1508 C1481 0.931 . S
H1509 C1483 0.929 . S
H1510 C1484 0.930 . S
H1511 C1485 0.931 . S
H1512 C1492 0.932 . S
H1513 C1493 0.930 . S
H1514 C1494 0.929 . S
H1515 C1496 0.930 . S
H1516 C1498 0.932 . S
H1517 C1499 0.929 . S
H1518 C1500 0.928 . S
H1519 C1502 0.932 . S
C1520 C1521 1.264 . S
C1520 C1525 1.479 . S
C1520 C1530 1.465 . S
C1521 C1520 1.264 . S
C1521 C1523 1.339 . S
C1521 H1548 0.931 . S
C1522 C1523 1.395 . S
C1522 C1524 1.320 . S
C1523 C1521 1.339 . S
C1523 C1522 1.395 . S
C1523 H1549 0.929 . S
C1524 C1522 1.320 . S
C1524 C1525 1.405 . S
C1524 H1550 0.930 . S
C1525 C1520 1.479 . S
C1525 C1524 1.405 . S
C1525 H1551 0.931 . S
U1526 O1527 2.454 . S
U1526 O1528 2.458 . S
U1526 C1529 2.984 . S
U1526 C1530 2.847 . S
U1526 C1543 2.882 . S
U1526 O1544 2.441 . S
U1526 O1545 2.420 . S
U1526 O1546 2.455 . S
U1526 O1547 2.449 . S
O1527 U1526 2.454 . S
O1527 C1529 1.353 . S
O1528 U1526 2.458 . S
O1528 C1529 1.286 . S
C1529 U1526 2.984 . S
C1529 O1527 1.353 . S
C1529 O1528 1.286 . S
C1529 C1531 1.363 . S
C1530 C1520 1.465 . S
C1530 U1526 2.847 . S
C1530 O1544 1.249 . S
C1530 O1545 1.202 . S
C1531 C1529 1.363 . S
C1531 C1533 1.408 . S
C1531 C1536 1.342 . S
C1532 C1533 1.310 . S
C1532 C1535 1.461 . S
C1532 H1552 0.932 . S
C1533 C1531 1.408 . S
C1533 C1532 1.310 . S
C1533 H1553 0.930 . S
C1534 C1535 1.474 . S
C1534 C1536 1.285 . S
C1534 H1554 0.929 . S
C1535 C1532 1.461 . S
C1535 C1534 1.474 . S
C1536 C1531 1.342 . S
C1536 C1534 1.285 . S
C1536 H1555 0.930 . S
C1537 C1540 1.424 . S
C1537 C1542 1.245 . S
C1537 C1543 1.428 . S
C1538 C1541 1.260 . S
C1538 C1542 1.477 . S
C1538 H1556 0.932 . S
C1539 C1540 1.384 . S
C1539 C1541 1.479 . S
C1539 H1557 0.929 . S
C1540 C1537 1.424 . S
C1540 C1539 1.384 . S
C1540 H1558 0.928 . S
C1541 C1538 1.260 . S
C1541 C1539 1.479 . S
C1542 C1537 1.245 . S
C1542 C1538 1.477 . S
C1542 H1559 0.932 . S
C1543 U1526 2.882 . S
C1543 C1537 1.428 . S
C1543 O1546 1.301 . S
C1543 O1547 1.282 . S
O1544 U1526 2.441 . S
O1544 C1530 1.249 . S
O1545 U1526 2.420 . S
O1545 C1530 1.202 . S
O1546 U1526 2.455 . S
O1546 C1543 1.301 . S
O1547 U1526 2.449 . S
O1547 C1543 1.282 . S
H1548 C1521 0.931 . S
H1549 C1523 0.929 . S
H1550 C1524 0.930 . S
H1551 C1525 0.931 . S
H1552 C1532 0.932 . S
H1553 C1533 0.930 . S
H1554 C1534 0.929 . S
H1555 C1536 0.930 . S
H1556 C1538 0.932 . S
H1557 C1539 0.929 . S
H1558 C1540 0.928 . S
H1559 C1542 0.932 . S
C1560 C1561 1.264 . S
C1560 C1565 1.479 . S
C1560 C1570 1.465 . S
C1561 C1560 1.264 . S
C1561 C1563 1.339 . S
C1561 H1588 0.931 . S
C1562 C1563 1.395 . S
C1562 C1564 1.320 . S
C1563 C1561 1.339 . S
C1563 C1562 1.395 . S
C1563 H1589 0.929 . S
C1564 C1562 1.320 . S
C1564 C1565 1.405 . S
C1564 H1590 0.930 . S
C1565 C1560 1.479 . S
C1565 C1564 1.405 . S
C1565 H1591 0.931 . S
U1566 O1567 2.454 . S
U1566 O1568 2.458 . S
U1566 C1569 2.984 . S
U1566 C1570 2.847 . S
U1566 C1583 2.882 . S
U1566 O1584 2.441 . S
U1566 O1585 2.420 . S
U1566 O1586 2.455 . S
U1566 O1587 2.449 . S
O1567 U1566 2.454 . S
O1567 C1569 1.353 . S
O1568 U1566 2.458 . S
O1568 C1569 1.286 . S
C1569 U1566 2.984 . S
C1569 O1567 1.353 . S
C1569 O1568 1.286 . S
C1569 C1571 1.363 . S
C1570 C1560 1.465 . S
C1570 U1566 2.847 . S
C1570 O1584 1.249 . S
C1570 O1585 1.202 . S
C1571 C1569 1.363 . S
C1571 C1573 1.408 . S
C1571 C1576 1.342 . S
C1572 C1573 1.310 . S
C1572 C1575 1.461 . S
C1572 H1592 0.932 . S
C1573 C1571 1.408 . S
C1573 C1572 1.310 . S
C1573 H1593 0.930 . S
C1574 C1575 1.474 . S
C1574 C1576 1.285 . S
C1574 H1594 0.929 . S
C1575 C1572 1.461 . S
C1575 C1574 1.474 . S
C1576 C1571 1.342 . S
C1576 C1574 1.285 . S
C1576 H1595 0.930 . S
C1577 C1580 1.424 . S
C1577 C1582 1.245 . S
C1577 C1583 1.428 . S
C1578 C1581 1.260 . S
C1578 C1582 1.477 . S
C1578 H1596 0.932 . S
C1579 C1580 1.384 . S
C1579 C1581 1.479 . S
C1579 H1597 0.929 . S
C1580 C1577 1.424 . S
C1580 C1579 1.384 . S
C1580 H1598 0.928 . S
C1581 C1578 1.260 . S
C1581 C1579 1.479 . S
C1582 C1577 1.245 . S
C1582 C1578 1.477 . S
C1582 H1599 0.932 . S
C1583 U1566 2.882 . S
C1583 C1577 1.428 . S
C1583 O1586 1.301 . S
C1583 O1587 1.282 . S
O1584 U1566 2.441 . S
O1584 C1570 1.249 . S
O1585 U1566 2.420 . S
O1585 C1570 1.202 . S
O1586 U1566 2.455 . S
O1586 C1583 1.301 . S
O1587 U1566 2.449 . S
O1587 C1583 1.282 . S
H1588 C1561 0.931 . S
H1589 C1563 0.929 . S
H1590 C1564 0.930 . S
H1591 C1565 0.931 . S
H1592 C1572 0.932 . S
H1593 C1573 0.930 . S
H1594 C1574 0.929 . S
H1595 C1576 0.930 . S
H1596 C1578 0.932 . S
H1597 C1579 0.929 . S
H1598 C1580 0.928 . S
H1599 C1582 0.932 . S
C1600 C1601 1.264 . S
C1600 C1605 1.479 . S
C1600 C1610 1.465 . S
C1601 C1600 1.264 . S
C1601 C1603 1.339 . S
C1601 H1628 0.931 . S
C1602 C1603 1.395 . S
C1602 C1604 1.320 . S
C1603 C1601 1.339 . S
C1603 C1602 1.395 . S
C1603 H1629 0.929 . S
C1604 C1602 1.320 . S
C1604 C1605 1.405 . S
C1604 H1630 0.930 . S
C1605 C1600 1.479 . S
C1605 C1604 1.405 . S
C1605 H1631 0.931 . S
U1606 O1607 2.454 . S
U1606 O1608 2.458 . S
U1606 C1609 2.984 . S
U1606 C1610 2.847 . S
U1606 C1623 2.882 . S
U1606 O1624 2.441 . S
U1606 O1625 2.420 . S
U1606 O1626 2.455 . S
U1606 O1627 2.449 . S
O1607 U1606 2.454 . S
O1607 C1609 1.353 . S
O1608 U1606 2.458 . S
O1608 C1609 1.286 . S
C1609 U1606 2.984 . S
C1609 O1607 1.353 . S
C1609 O1608 1.286 . S
C1609 C1611 1.363 . S
C1610 C1600 1.465 . S
C1610 U1606 2.847 . S
C1610 O1624 1.249 . S
C1610 O1625 1.202 . S
C1611 C1609 1.363 . S
C1611 C1613 1.408 . S
C1611 C1616 1.342 . S
C1612 C1613 1.310 . S
C1612 C1615 1.461 . S
C1612 H1632 0.932 . S
C1613 C1611 1.408 . S
C1613 C1612 1.310 . S
C1613 H1633 0.930 . S
C1614 C1615 1.474 . S
C1614 C1616 1.285 . S
C1614 H1634 0.929 . S
C1615 C1612 1.461 . S
C1615 C1614 1.474 . S
C1616 C1611 1.342 . S
C1616 C1614 1.285 . S
C1616 H1635 0.930 . S
C1617 C1620 1.424 . S
C1617 C1622 1.245 . S
C1617 C1623 1.428 . S
C1618 C1621 1.260 . S
C1618 C1622 1.477 . S
C1618 H1636 0.932 . S
C1619 C1620 1.384 . S
C1619 C1621 1.479 . S
C1619 H1637 0.929 . S
C1620 C1617 1.424 . S
C1620 C1619 1.384 . S
C1620 H1638 0.928 . S
C1621 C1618 1.260 . S
C1621 C1619 1.479 . S
C1622 C1617 1.245 . S
C1622 C1618 1.477 . S
C1622 H1639 0.932 . S
C1623 U1606 2.882 . S
C1623 C1617 1.428 . S
C1623 O1626 1.301 . S
C1623 O1627 1.282 . S
O1624 U1606 2.441 . S
O1624 C1610 1.249 . S
O1625 U1606 2.420 . S
O1625 C1610 1.202 . S
O1626 U1606 2.455 . S
O1626 C1623 1.301 . S
O1627 U1606 2.449 . S
O1627 C1623 1.282 . S
H1628 C1601 0.931 . S
H1629 C1603 0.929 . S
H1630 C1604 0.930 . S
H1631 C1605 0.931 . S
H1632 C1612 0.932 . S
H1633 C1613 0.930 . S
H1634 C1614 0.929 . S
H1635 C1616 0.930 . S
H1636 C1618 0.932 . S
H1637 C1619 0.929 . S
H1638 C1620 0.928 . S
H1639 C1622 0.932 . S
C1640 C1641 1.264 . S
C1640 C1645 1.479 . S
C1640 C1650 1.465 . S
C1641 C1640 1.264 . S
C1641 C1643 1.339 . S
C1641 H1668 0.931 . S
C1642 C1643 1.395 . S
C1642 C1644 1.320 . S
C1643 C1641 1.339 . S
C1643 C1642 1.395 . S
C1643 H1669 0.929 . S
C1644 C1642 1.320 . S
C1644 C1645 1.405 . S
C1644 H1670 0.930 . S
C1645 C1640 1.479 . S
C1645 C1644 1.405 . S
C1645 H1671 0.931 . S
U1646 O1647 2.454 . S
U1646 O1648 2.458 . S
U1646 C1649 2.984 . S
U1646 C1650 2.847 . S
U1646 C1663 2.882 . S
U1646 O1664 2.441 . S
U1646 O1665 2.420 . S
U1646 O1666 2.455 . S
U1646 O1667 2.449 . S
O1647 U1646 2.454 . S
O1647 C1649 1.353 . S
O1648 U1646 2.458 . S
O1648 C1649 1.286 . S
C1649 U1646 2.984 . S
C1649 O1647 1.353 . S
C1649 O1648 1.286 . S
C1649 C1651 1.363 . S
C1650 C1640 1.465 . S
C1650 U1646 2.847 . S
C1650 O1664 1.249 . S
C1650 O1665 1.202 . S
C1651 C1649 1.363 . S
C1651 C1653 1.408 . S
C1651 C1656 1.342 . S
C1652 C1653 1.310 . S
C1652 C1655 1.461 . S
C1652 H1672 0.932 . S
C1653 C1651 1.408 . S
C1653 C1652 1.310 . S
C1653 H1673 0.930 . S
C1654 C1655 1.474 . S
C1654 C1656 1.285 . S
C1654 H1674 0.929 . S
C1655 C1652 1.461 . S
C1655 C1654 1.474 . S
C1656 C1651 1.342 . S
C1656 C1654 1.285 . S
C1656 H1675 0.930 . S
C1657 C1660 1.424 . S
C1657 C1662 1.245 . S
C1657 C1663 1.428 . S
C1658 C1661 1.260 . S
C1658 C1662 1.477 . S
C1658 H1676 0.932 . S
C1659 C1660 1.384 . S
C1659 C1661 1.479 . S
C1659 H1677 0.929 . S
C1660 C1657 1.424 . S
C1660 C1659 1.384 . S
C1660 H1678 0.928 . S
C1661 C1658 1.260 . S
C1661 C1659 1.479 . S
C1662 C1657 1.245 . S
C1662 C1658 1.477 . S
C1662 H1679 0.932 . S
C1663 U1646 2.882 . S
C1663 C1657 1.428 . S
C1663 O1666 1.301 . S
C1663 O1667 1.282 . S
O1664 U1646 2.441 . S
O1664 C1650 1.249 . S
O1665 U1646 2.420 . S
O1665 C1650 1.202 . S
O1666 U1646 2.455 . S
O1666 C1663 1.301 . S
O1667 U1646 2.449 . S
O1667 C1663 1.282 . S
H1668 C1641 0.931 . S
H1669 C1643 0.929 . S
H1670 C1644 0.930 . S
H1671 C1645 0.931 . S
H1672 C1652 0.932 . S
H1673 C1653 0.930 . S
H1674 C1654 0.929 . S
H1675 C1656 0.930 . S
H1676 C1658 0.932 . S
H1677 C1659 0.929 . S
H1678 C1660 0.928 . S
H1679 C1662 0.932 . S
C1680 C1681 1.264 . S
C1680 C1685 1.479 . S
C1680 C1690 1.465 . S
C1681 C1680 1.264 . S
C1681 C1683 1.339 . S
C1681 H1708 0.931 . S
C1682 C1683 1.395 . S
C1682 C1684 1.320 . S
C1683 C1681 1.339 . S
C1683 C1682 1.395 . S
C1683 H1709 0.929 . S
C1684 C1682 1.320 . S
C1684 C1685 1.405 . S
C1684 H1710 0.930 . S
C1685 C1680 1.479 . S
C1685 C1684 1.405 . S
C1685 H1711 0.931 . S
U1686 O1687 2.454 . S
U1686 O1688 2.458 . S
U1686 C1689 2.984 . S
U1686 C1690 2.847 . S
U1686 C1703 2.882 . S
U1686 O1704 2.441 . S
U1686 O1705 2.420 . S
U1686 O1706 2.455 . S
U1686 O1707 2.449 . S
O1687 U1686 2.454 . S
O1687 C1689 1.353 . S
O1688 U1686 2.458 . S
O1688 C1689 1.286 . S
C1689 U1686 2.984 . S
C1689 O1687 1.353 . S
C1689 O1688 1.286 . S
C1689 C1691 1.363 . S
C1690 C1680 1.465 . S
C1690 U1686 2.847 . S
C1690 O1704 1.249 . S
C1690 O1705 1.202 . S
C1691 C1689 1.363 . S
C1691 C1693 1.408 . S
C1691 C1696 1.342 . S
C1692 C1693 1.310 . S
C1692 C1695 1.461 . S
C1692 H1712 0.932 . S
C1693 C1691 1.408 . S
C1693 C1692 1.310 . S
C1693 H1713 0.930 . S
C1694 C1695 1.474 . S
C1694 C1696 1.285 . S
C1694 H1714 0.929 . S
C1695 C1692 1.461 . S
C1695 C1694 1.474 . S
C1696 C1691 1.342 . S
C1696 C1694 1.285 . S
C1696 H1715 0.930 . S
C1697 C1700 1.424 . S
C1697 C1702 1.245 . S
C1697 C1703 1.428 . S
C1698 C1701 1.260 . S
C1698 C1702 1.477 . S
C1698 H1716 0.932 . S
C1699 C1700 1.384 . S
C1699 C1701 1.479 . S
C1699 H1717 0.929 . S
C1700 C1697 1.424 . S
C1700 C1699 1.384 . S
C1700 H1718 0.928 . S
C1701 C1698 1.260 . S
C1701 C1699 1.479 . S
C1702 C1697 1.245 . S
C1702 C1698 1.477 . S
C1702 H1719 0.932 . S
C1703 U1686 2.882 . S
C1703 C1697 1.428 . S
C1703 O1706 1.301 . S
C1703 O1707 1.282 . S
O1704 U1686 2.441 . S
O1704 C1690 1.249 . S
O1705 U1686 2.420 . S
O1705 C1690 1.202 . S
O1706 U1686 2.455 . S
O1706 C1703 1.301 . S
O1707 U1686 2.449 . S
O1707 C1703 1.282 . S
H1708 C1681 0.931 . S
H1709 C1683 0.929 . S
H1710 C1684 0.930 . S
H1711 C1685 0.931 . S
H1712 C1692 0.932 . S
H1713 C1693 0.930 . S
H1714 C1694 0.929 . S
H1715 C1696 0.930 . S
H1716 C1698 0.932 . S
H1717 C1699 0.929 . S
H1718 C1700 0.928 . S
H1719 C1702 0.932 . S
C1720 C1721 1.264 . S
C1720 C1725 1.479 . S
C1720 C1730 1.465 . S
C1721 C1720 1.264 . S
C1721 C1723 1.339 . S
C1721 H1748 0.931 . S
C1722 C1723 1.395 . S
C1722 C1724 1.320 . S
C1723 C1721 1.339 . S
C1723 C1722 1.395 . S
C1723 H1749 0.929 . S
C1724 C1722 1.320 . S
C1724 C1725 1.405 . S
C1724 H1750 0.930 . S
C1725 C1720 1.479 . S
C1725 C1724 1.405 . S
C1725 H1751 0.931 . S
U1726 O1727 2.454 . S
U1726 O1728 2.458 . S
U1726 C1729 2.984 . S
U1726 C1730 2.847 . S
U1726 C1743 2.882 . S
U1726 O1744 2.441 . S
U1726 O1745 2.420 . S
U1726 O1746 2.455 . S
U1726 O1747 2.449 . S
O1727 U1726 2.454 . S
O1727 C1729 1.353 . S
O1728 U1726 2.458 . S
O1728 C1729 1.286 . S
C1729 U1726 2.984 . S
C1729 O1727 1.353 . S
C1729 O1728 1.286 . S
C1729 C1731 1.363 . S
C1730 C1720 1.465 . S
C1730 U1726 2.847 . S
C1730 O1744 1.249 . S
C1730 O1745 1.202 . S
C1731 C1729 1.363 . S
C1731 C1733 1.408 . S
C1731 C1736 1.342 . S
C1732 C1733 1.310 . S
C1732 C1735 1.461 . S
C1732 H1752 0.932 . S
C1733 C1731 1.408 . S
C1733 C1732 1.310 . S
C1733 H1753 0.930 . S
C1734 C1735 1.474 . S
C1734 C1736 1.285 . S
C1734 H1754 0.929 . S
C1735 C1732 1.461 . S
C1735 C1734 1.474 . S
C1736 C1731 1.342 . S
C1736 C1734 1.285 . S
C1736 H1755 0.930 . S
C1737 C1740 1.424 . S
C1737 C1742 1.245 . S
C1737 C1743 1.428 . S
C1738 C1741 1.260 . S
C1738 C1742 1.477 . S
C1738 H1756 0.932 . S
C1739 C1740 1.384 . S
C1739 C1741 1.479 . S
C1739 H1757 0.929 . S
C1740 C1737 1.424 . S
C1740 C1739 1.384 . S
C1740 H1758 0.928 . S
C1741 C1738 1.260 . S
C1741 C1739 1.479 . S
C1742 C1737 1.245 . S
C1742 C1738 1.477 . S
C1742 H1759 0.932 . S
C1743 U1726 2.882 . S
C1743 C1737 1.428 . S
C1743 O1746 1.301 . S
C1743 O1747 1.282 . S
O1744 U1726 2.441 . S
O1744 C1730 1.249 . S
O1745 U1726 2.420 . S
O1745 C1730 1.202 . S
O1746 U1726 2.455 . S
O1746 C1743 1.301 . S
O1747 U1726 2.449 . S
O1747 C1743 1.282 . S
H1748 C1721 0.931 . S
H1749 C1723 0.929 . S
H1750 C1724 0.930 . S
H1751 C1725 0.931 . S
H1752 C1732 0.932 . S
H1753 C1733 0.930 . S
H1754 C1734 0.929 . S
H1755 C1736 0.930 . S
H1756 C1738 0.932 . S
H1757 C1739 0.929 . S
H1758 C1740 0.928 . S
H1759 C1742 0.932 . S
C1760 C1761 1.264 . S
C1760 C1765 1.479 . S
C1760 C1770 1.465 . S
C1761 C1760 1.264 . S
C1761 C1763 1.339 . S
C1761 H1788 0.931 . S
C1762 C1763 1.395 . S
C1762 C1764 1.320 . S
C1763 C1761 1.339 . S
C1763 C1762 1.395 . S
C1763 H1789 0.929 . S
C1764 C1762 1.320 . S
C1764 C1765 1.405 . S
C1764 H1790 0.930 . S
C1765 C1760 1.479 . S
C1765 C1764 1.405 . S
C1765 H1791 0.931 . S
U1766 O1767 2.454 . S
U1766 O1768 2.458 . S
U1766 C1769 2.984 . S
U1766 C1770 2.847 . S
U1766 C1783 2.882 . S
U1766 O1784 2.441 . S
U1766 O1785 2.420 . S
U1766 O1786 2.455 . S
U1766 O1787 2.449 . S
O1767 U1766 2.454 . S
O1767 C1769 1.353 . S
O1768 U1766 2.458 . S
O1768 C1769 1.286 . S
C1769 U1766 2.984 . S
C1769 O1767 1.353 . S
C1769 O1768 1.286 . S
C1769 C1771 1.363 . S
C1770 C1760 1.465 . S
C1770 U1766 2.847 . S
C1770 O1784 1.249 . S
C1770 O1785 1.202 . S
C1771 C1769 1.363 . S
C1771 C1773 1.408 . S
C1771 C1776 1.342 . S
C1772 C1773 1.310 . S
C1772 C1775 1.461 . S
C1772 H1792 0.932 . S
C1773 C1771 1.408 . S
C1773 C1772 1.310 . S
C1773 H1793 0.930 . S
C1774 C1775 1.474 . S
C1774 C1776 1.285 . S
C1774 H1794 0.929 . S
C1775 C1772 1.461 . S
C1775 C1774 1.474 . S
C1776 C1771 1.342 . S
C1776 C1774 1.285 . S
C1776 H1795 0.930 . S
C1777 C1780 1.424 . S
C1777 C1782 1.245 . S
C1777 C1783 1.428 . S
C1778 C1781 1.260 . S
C1778 C1782 1.477 . S
C1778 H1796 0.932 . S
C1779 C1780 1.384 . S
C1779 C1781 1.479 . S
C1779 H1797 0.929 . S
C1780 C1777 1.424 . S
C1780 C1779 1.384 . S
C1780 H1798 0.928 . S
C1781 C1778 1.260 . S
C1781 C1779 1.479 . S
C1782 C1777 1.245 . S
C1782 C1778 1.477 . S
C1782 H1799 0.932 . S
C1783 U1766 2.882 . S
C1783 C1777 1.428 . S
C1783 O1786 1.301 . S
C1783 O1787 1.282 . S
O1784 U1766 2.441 . S
O1784 C1770 1.249 . S
O1785 U1766 2.420 . S
O1785 C1770 1.202 . S
O1786 U1766 2.455 . S
O1786 C1783 1.301 . S
O1787 U1766 2.449 . S
O1787 C1783 1.282 . S
H1788 C1761 0.931 . S
H1789 C1763 0.929 . S
H1790 C1764 0.930 . S
H1791 C1765 0.931 . S
H1792 C1772 0.932 . S
H1793 C1773 0.930 . S
H1794 C1774 0.929 . S
H1795 C1776 0.930 . S
H1796 C1778 0.932 . S
H1797 C1779 0.929 . S
H1798 C1780 0.928 . S
H1799 C1782 0.932 . S
C1800 C1801 1.264 . S
C1800 C1805 1.479 . S
C1800 C1810 1.465 . S
C1801 C1800 1.264 . S
C1801 C1803 1.339 . S
C1801 H1828 0.931 . S
C1802 C1803 1.395 . S
C1802 C1804 1.320 . S
C1803 C1801 1.339 . S
C1803 C1802 1.395 . S
C1803 H1829 0.929 . S
C1804 C1802 1.320 . S
C1804 C1805 1.405 . S
C1804 H1830 0.930 . S
C1805 C1800 1.479 . S
C1805 C1804 1.405 . S
C1805 H1831 0.931 . S
U1806 O1807 2.454 . S
U1806 O1808 2.458 . S
U1806 C1809 2.984 . S
U1806 C1810 2.847 . S
U1806 C1823 2.882 . S
U1806 O1824 2.441 . S
U1806 O1825 2.420 . S
U1806 O1826 2.455 . S
U1806 O1827 2.449 . S
O1807 U1806 2.454 . S
O1807 C1809 1.353 . S
O1808 U1806 2.458 . S
O1808 C1809 1.286 . S
C1809 U1806 2.984 . S
C1809 O1807 1.353 . S
C1809 O1808 1.286 . S
C1809 C1811 1.363 . S
C1810 C1800 1.465 . S
C1810 U1806 2.847 . S
C1810 O1824 1.249 . S
C1810 O1825 1.202 . S
C1811 C1809 1.363 . S
C1811 C1813 1.408 . S
C1811 C1816 1.342 . S
C1812 C1813 1.310 . S
C1812 C1815 1.461 . S
C1812 H1832 0.932 . S
C1813 C1811 1.408 . S
C1813 C1812 1.310 . S
C1813 H1833 0.930 . S
C1814 C1815 1.474 . S
C1814 C1816 1.285 . S
C1814 H1834 0.929 . S
C1815 C1812 1.461 . S
C1815 C1814 1.474 . S
C1816 C1811 1.342 . S
C1816 C1814 1.285 . S
C1816 H1835 0.930 . S
C1817 C1820 1.424 . S
C1817 C1822 1.245 . S
C1817 C1823 1.428 . S
C1818 C1821 1.260 . S
C1818 C1822 1.477 . S
C1818 H1836 0.932 . S
C1819 C1820 1.384 . S
C1819 C1821 1.479 . S
C1819 H1837 0.929 . S
C1820 C1817 1.424 . S
C1820 C1819 1.384 . S
C1820 H1838 0.928 . S
C1821 C1818 1.260 . S
C1821 C1819 1.479 . S
C1822 C1817 1.245 . S
C1822 C1818 1.477 . S
C1822 H1839 0.932 . S
C1823 U1806 2.882 . S
C1823 C1817 1.428 . S
C1823 O1826 1.301 . S
C1823 O1827 1.282 . S
O1824 U1806 2.441 . S
O1824 C1810 1.249 . S
O1825 U1806 2.420 . S
O1825 C1810 1.202 . S
O1826 U1806 2.455 . S
O1826 C1823 1.301 . S
O1827 U1806 2.449 . S
O1827 C1823 1.282 . S
H1828 C1801 0.931 . S
H1829 C1803 0.929 . S
H1830 C1804 0.930 . S
H1831 C1805 0.931 . S
H1832 C1812 0.932 . S
H1833 C1813 0.930 . S
H1834 C1814 0.929 . S
H1835 C1816 0.930 . S
H1836 C1818 0.932 . S
H1837 C1819 0.929 . S
H1838 C1820 0.928 . S
H1839 C1822 0.932 . S
C1840 C1841 1.264 . S
C1840 C1845 1.479 . S
C1840 C1850 1.465 . S
C1841 C1840 1.264 . S
C1841 C1843 1.339 . S
C1841 H1868 0.931 . S
C1842 C1843 1.395 . S
C1842 C1844 1.320 . S
C1843 C1841 1.339 . S
C1843 C1842 1.395 . S
C1843 H1869 0.929 . S
C1844 C1842 1.320 . S
C1844 C1845 1.405 . S
C1844 H1870 0.930 . S
C1845 C1840 1.479 . S
C1845 C1844 1.405 . S
C1845 H1871 0.931 . S
U1846 O1847 2.454 . S
U1846 O1848 2.458 . S
U1846 C1849 2.984 . S
U1846 C1850 2.847 . S
U1846 C1863 2.882 . S
U1846 O1864 2.441 . S
U1846 O1865 2.420 . S
U1846 O1866 2.455 . S
U1846 O1867 2.449 . S
O1847 U1846 2.454 . S
O1847 C1849 1.353 . S
O1848 U1846 2.458 . S
O1848 C1849 1.286 . S
C1849 U1846 2.984 . S
C1849 O1847 1.353 . S
C1849 O1848 1.286 . S
C1849 C1851 1.363 . S
C1850 C1840 1.465 . S
C1850 U1846 2.847 . S
C1850 O1864 1.249 . S
C1850 O1865 1.202 . S
C1851 C1849 1.363 . S
C1851 C1853 1.408 . S
C1851 C1856 1.342 . S
C1852 C1853 1.310 . S
C1852 C1855 1.461 . S
C1852 H1872 0.932 . S
C1853 C1851 1.408 . S
C1853 C1852 1.310 . S
C1853 H1873 0.930 . S
C1854 C1855 1.474 . S
C1854 C1856 1.285 . S
C1854 H1874 0.929 . S
C1855 C1852 1.461 . S
C1855 C1854 1.474 . S
C1856 C1851 1.342 . S
C1856 C1854 1.285 . S
C1856 H1875 0.930 . S
C1857 C1860 1.424 . S
C1857 C1862 1.245 . S
C1857 C1863 1.428 . S
C1858 C1861 1.260 . S
C1858 C1862 1.477 . S
C1858 H1876 0.932 . S
C1859 C1860 1.384 . S
C1859 C1861 1.479 . S
C1859 H1877 0.929 . S
C1860 C1857 1.424 . S
C1860 C1859 1.384 . S
C1860 H1878 0.928 . S
C1861 C1858 1.260 . S
C1861 C1859 1.479 . S
C1862 C1857 1.245 . S
C1862 C1858 1.477 . S
C1862 H1879 0.932 . S
C1863 U1846 2.882 . S
C1863 C1857 1.428 . S
C1863 O1866 1.301 . S
C1863 O1867 1.282 . S
O1864 U1846 2.441 . S
O1864 C1850 1.249 . S
O1865 U1846 2.420 . S
O1865 C1850 1.202 . S
O1866 U1846 2.455 . S
O1866 C1863 1.301 . S
O1867 U1846 2.449 . S
O1867 C1863 1.282 . S
H1868 C1841 0.931 . S
H1869 C1843 0.929 . S
H1870 C1844 0.930 . S
H1871 C1845 0.931 . S
H1872 C1852 0.932 . S
H1873 C1853 0.930 . S
H1874 C1854 0.929 . S
H1875 C1856 0.930 . S
H1876 C1858 0.932 . S
H1877 C1859 0.929 . S
H1878 C1860 0.928 . S
H1879 C1862 0.932 . S
C1880 C1881 1.264 . S
C1880 C1885 1.479 . S
C1880 C1890 1.465 . S
C1881 C1880 1.264 . S
C1881 C1883 1.339 . S
C1881 H1908 0.931 . S
C1882 C1883 1.395 . S
C1882 C1884 1.320 . S
C1883 C1881 1.339 . S
C1883 C1882 1.395 . S
C1883 H1909 0.929 . S
C1884 C1882 1.320 . S
C1884 C1885 1.405 . S
C1884 H1910 0.930 . S
C1885 C1880 1.479 . S
C1885 C1884 1.405 . S
C1885 H1911 0.931 . S
U1886 O1887 2.454 . S
U1886 O1888 2.458 . S
U1886 C1889 2.984 . S
U1886 C1890 2.847 . S
U1886 C1903 2.882 . S
U1886 O1904 2.441 . S
U1886 O1905 2.420 . S
U1886 O1906 2.455 . S
U1886 O1907 2.449 . S
O1887 U1886 2.454 . S
O1887 C1889 1.353 . S
O1888 U1886 2.458 . S
O1888 C1889 1.286 . S
C1889 U1886 2.984 . S
C1889 O1887 1.353 . S
C1889 O1888 1.286 . S
C1889 C1891 1.363 . S
C1890 C1880 1.465 . S
C1890 U1886 2.847 . S
C1890 O1904 1.249 . S
C1890 O1905 1.202 . S
C1891 C1889 1.363 . S
C1891 C1893 1.408 . S
C1891 C1896 1.342 . S
C1892 C1893 1.310 . S
C1892 C1895 1.461 . S
C1892 H1912 0.932 . S
C1893 C1891 1.408 . S
C1893 C1892 1.310 . S
C1893 H1913 0.930 . S
C1894 C1895 1.474 . S
C1894 C1896 1.285 . S
C1894 H1914 0.929 . S
C1895 C1892 1.461 . S
C1895 C1894 1.474 . S
C1896 C1891 1.342 . S
C1896 C1894 1.285 . S
C1896 H1915 0.930 . S
C1897 C1900 1.424 . S
C1897 C1902 1.245 . S
C1897 C1903 1.428 . S
C1898 C1901 1.260 . S
C1898 C1902 1.477 . S
C1898 H1916 0.932 . S
C1899 C1900 1.384 . S
C1899 C1901 1.479 . S
C1899 H1917 0.929 . S
C1900 C1897 1.424 . S
C1900 C1899 1.384 . S
C1900 H1918 0.928 . S
C1901 C1898 1.260 . S
C1901 C1899 1.479 . S
C1902 C1897 1.245 . S
C1902 C1898 1.477 . S
C1902 H1919 0.932 . S
C1903 U1886 2.882 . S
C1903 C1897 1.428 . S
C1903 O1906 1.301 . S
C1903 O1907 1.282 . S
O1904 U1886 2.441 . S
O1904 C1890 1.249 . S
O1905 U1886 2.420 . S
O1905 C1890 1.202 . S
O1906 U1886 2.455 . S
O1906 C1903 1.301 . S
O1907 U1886 2.449 . S
O1907 C1903 1.282 . S
H1908 C1881 0.931 . S
H1909 C1883 0.929 . S
H1910 C1884 0.930 . S
H1911 C1885 0.931 . S
H1912 C1892 0.932 . S
H1913 C1893 0.930 . S
H1914 C1894 0.929 . S
H1915 C1896 0.930 . S
H1916 C1898 0.932 . S
H1917 C1899 0.929 . S
H1918 C1900 0.928 . S
H1919 C1902 0.932 . S
C1920 C1921 1.391 . S
C1920 C1922 1.394 . S
C1920 H1936 0.931 . S
C1921 C1920 1.391 . S
C1921 C1925 1.376 . S
C1922 C1920 1.394 . S
C1922 C1923 1.369 . S
C1922 C1926 1.531 . S
C1923 C1922 1.369 . S
C1923 C1924 1.410 . S
C1923 C1931 1.503 . S
C1924 C1923 1.410 . S
C1924 C1925 1.392 . S
C1924 C1927 1.511 . S
C1925 C1921 1.376 . S
C1925 C1924 1.392 . S
C1925 H1937 0.929 . S
C1926 C1922 1.531 . S
C1926 H1938 0.960 . S
C1926 H1939 0.962 . S
C1926 H1940 0.960 . S
C1927 C1924 1.511 . S
C1927 H1941 0.961 . S
C1927 H1942 0.961 . S
C1927 H1943 0.961 . S
C1928 C1929 1.370 . S
C1928 C1930 1.363 . S
C1928 H1944 0.931 . S
C1929 C1928 1.370 . S
C1929 C1933 1.408 . S
C1930 C1928 1.363 . S
C1930 C1931 1.370 . S
C1930 C1934 1.524 . S
C1931 C1923 1.503 . S
C1931 C1930 1.370 . S
C1931 C1932 1.403 . S
C1932 C1931 1.403 . S
C1932 C1933 1.404 . S
C1932 C1935 1.539 . S
C1933 C1929 1.408 . S
C1933 C1932 1.404 . S
C1933 H1945 0.930 . S
C1934 C1930 1.524 . S
C1934 H1946 0.956 . S
C1934 H1947 0.961 . S
C1934 H1948 0.961 . S
C1935 C1932 1.539 . S
C1935 H1949 0.958 . S
C1935 H1950 0.961 . S
C1935 H1951 0.960 . S
H1936 C1920 0.931 . S
H1937 C1925 0.929 . S
H1938 C1926 0.960 . S
H1939 C1926 0.962 . S
H1940 C1926 0.960 . S
H1941 C1927 0.961 . S
H1942 C1927 0.961 . S
H1943 C1927 0.961 . S
H1944 C1928 0.931 . S
H1945 C1933 0.930 . S
H1946 C1934 0.956 . S
H1947 C1934 0.961 . S
H1948 C1934 0.961 . S
H1949 C1935 0.958 . S
H1950 C1935 0.961 . S
H1951 C1935 0.960 . S
C1952 C1953 1.391 . S
C1952 C1954 1.394 . S
C1952 H1968 0.931 . S
C1953 C1952 1.391 . S
C1953 C1957 1.376 . S
C1954 C1952 1.394 . S
C1954 C1955 1.369 . S
C1954 C1958 1.531 . S
C1955 C1954 1.369 . S
C1955 C1956 1.410 . S
C1955 C1963 1.503 . S
C1956 C1955 1.410 . S
C1956 C1957 1.392 . S
C1956 C1959 1.511 . S
C1957 C1953 1.376 . S
C1957 C1956 1.392 . S
C1957 H1969 0.929 . S
C1958 C1954 1.531 . S
C1958 H1970 0.960 . S
C1958 H1971 0.962 . S
C1958 H1972 0.960 . S
C1959 C1956 1.511 . S
C1959 H1973 0.961 . S
C1959 H1974 0.961 . S
C1959 H1975 0.961 . S
C1960 C1961 1.370 . S
C1960 C1962 1.363 . S
C1960 H1976 0.931 . S
C1961 C1960 1.370 . S
C1961 C1965 1.408 . S
C1962 C1960 1.363 . S
C1962 C1963 1.370 . S
C1962 C1966 1.524 . S
C1963 C1955 1.503 . S
C1963 C1962 1.370 . S
C1963 C1964 1.403 . S
C1964 C1963 1.403 . S
C1964 C1965 1.404 . S
C1964 C1967 1.539 . S
C1965 C1961 1.408 . S
C1965 C1964 1.404 . S
C1965 H1977 0.930 . S
C1966 C1962 1.524 . S
C1966 H1978 0.956 . S
C1966 H1979 0.961 . S
C1966 H1980 0.961 . S
C1967 C1964 1.539 . S
C1967 H1981 0.958 . S
C1967 H1982 0.961 . S
C1967 H1983 0.960 . S
H1968 C1952 0.931 . S
H1969 C1957 0.929 . S
H1970 C1958 0.960 . S
H1971 C1958 0.962 . S
H1972 C1958 0.960 . S
H1973 C1959 0.961 . S
H1974 C1959 0.961 . S
H1975 C1959 0.961 . S
H1976 C1960 0.931 . S
H1977 C1965 0.930 . S
H1978 C1966 0.956 . S
H1979 C1966 0.961 . S
H1980 C1966 0.961 . S
H1981 C1967 0.958 . S
H1982 C1967 0.961 . S
H1983 C1967 0.960 . S
C1984 C1985 1.391 . S
C1984 C1986 1.394 . S
C1984 H2000 0.931 . S
C1985 C1984 1.391 . S
C1985 C1989 1.376 . S
C1986 C1984 1.394 . S
C1986 C1987 1.369 . S
C1986 C1990 1.531 . S
C1987 C1986 1.369 . S
C1987 C1988 1.410 . S
C1987 C1995 1.503 . S
C1988 C1987 1.410 . S
C1988 C1989 1.392 . S
C1988 C1991 1.511 . S
C1989 C1985 1.376 . S
C1989 C1988 1.392 . S
C1989 H2001 0.929 . S
C1990 C1986 1.531 . S
C1990 H2002 0.960 . S
C1990 H2003 0.962 . S
C1990 H2004 0.960 . S
C1991 C1988 1.511 . S
C1991 H2005 0.961 . S
C1991 H2006 0.961 . S
C1991 H2007 0.961 . S
C1992 C1993 1.370 . S
C1992 C1994 1.363 . S
C1992 H2008 0.931 . S
C1993 C1992 1.370 . S
C1993 C1997 1.408 . S
C1994 C1992 1.363 . S
C1994 C1995 1.370 . S
C1994 C1998 1.524 . S
C1995 C1987 1.503 . S
C1995 C1994 1.370 . S
C1995 C1996 1.403 . S
C1996 C1995 1.403 . S
C1996 C1997 1.404 . S
C1996 C1999 1.539 . S
C1997 C1993 1.408 . S
C1997 C1996 1.404 . S
C1997 H2009 0.930 . S
C1998 C1994 1.524 . S
C1998 H2010 0.956 . S
C1998 H2011 0.961 . S
C1998 H2012 0.961 . S
C1999 C1996 1.539 . S
C1999 H2013 0.958 . S
C1999 H2014 0.961 . S
C1999 H2015 0.960 . S
H2000 C1984 0.931 . S
H2001 C1989 0.929 . S
H2002 C1990 0.960 . S
H2003 C1990 0.962 . S
H2004 C1990 0.960 . S
H2005 C1991 0.961 . S
H2006 C1991 0.961 . S
H2007 C1991 0.961 . S
H2008 C1992 0.931 . S
H2009 C1997 0.930 . S
H2010 C1998 0.956 . S
H2011 C1998 0.961 . S
H2012 C1998 0.961 . S
H2013 C1999 0.958 . S
H2014 C1999 0.961 . S
H2015 C1999 0.960 . S
C2016 C2017 1.391 . S
C2016 C2018 1.394 . S
C2016 H2032 0.931 . S
C2017 C2016 1.391 . S
C2017 C2021 1.376 . S
C2018 C2016 1.394 . S
C2018 C2019 1.369 . S
C2018 C2022 1.531 . S
C2019 C2018 1.369 . S
C2019 C2020 1.410 . S
C2019 C2027 1.503 . S
C2020 C2019 1.410 . S
C2020 C2021 1.392 . S
C2020 C2023 1.511 . S
C2021 C2017 1.376 . S
C2021 C2020 1.392 . S
C2021 H2033 0.929 . S
C2022 C2018 1.531 . S
C2022 H2034 0.960 . S
C2022 H2035 0.962 . S
C2022 H2036 0.960 . S
C2023 C2020 1.511 . S
C2023 H2037 0.961 . S
C2023 H2038 0.961 . S
C2023 H2039 0.961 . S
C2024 C2025 1.370 . S
C2024 C2026 1.363 . S
C2024 H2040 0.931 . S
C2025 C2024 1.370 . S
C2025 C2029 1.408 . S
C2026 C2024 1.363 . S
C2026 C2027 1.370 . S
C2026 C2030 1.524 . S
C2027 C2019 1.503 . S
C2027 C2026 1.370 . S
C2027 C2028 1.403 . S
C2028 C2027 1.403 . S
C2028 C2029 1.404 . S
C2028 C2031 1.539 . S
C2029 C2025 1.408 . S
C2029 C2028 1.404 . S
C2029 H2041 0.930 . S
C2030 C2026 1.524 . S
C2030 H2042 0.956 . S
C2030 H2043 0.961 . S
C2030 H2044 0.961 . S
C2031 C2028 1.539 . S
C2031 H2045 0.958 . S
C2031 H2046 0.961 . S
C2031 H2047 0.960 . S
H2032 C2016 0.931 . S
H2033 C2021 0.929 . S
H2034 C2022 0.960 . S
H2035 C2022 0.962 . S
H2036 C2022 0.960 . S
H2037 C2023 0.961 . S
H2038 C2023 0.961 . S
H2039 C2023 0.961 . S
H2040 C2024 0.931 . S
H2041 C2029 0.930 . S
H2042 C2030 0.956 . S
H2043 C2030 0.961 . S
H2044 C2030 0.961 . S
H2045 C2031 0.958 . S
H2046 C2031 0.961 . S
H2047 C2031 0.960 . S
C2048 C2049 1.391 . S
C2048 C2050 1.394 . S
C2048 H2064 0.931 . S
C2049 C2048 1.391 . S
C2049 C2053 1.376 . S
C2050 C2048 1.394 . S
C2050 C2051 1.369 . S
C2050 C2054 1.531 . S
C2051 C2050 1.369 . S
C2051 C2052 1.410 . S
C2051 C2059 1.503 . S
C2052 C2051 1.410 . S
C2052 C2053 1.392 . S
C2052 C2055 1.511 . S
C2053 C2049 1.376 . S
C2053 C2052 1.392 . S
C2053 H2065 0.929 . S
C2054 C2050 1.531 . S
C2054 H2066 0.960 . S
C2054 H2067 0.962 . S
C2054 H2068 0.960 . S
C2055 C2052 1.511 . S
C2055 H2069 0.961 . S
C2055 H2070 0.961 . S
C2055 H2071 0.961 . S
C2056 C2057 1.370 . S
C2056 C2058 1.363 . S
C2056 H2072 0.931 . S
C2057 C2056 1.370 . S
C2057 C2061 1.408 . S
C2058 C2056 1.363 . S
C2058 C2059 1.370 . S
C2058 C2062 1.524 . S
C2059 C2051 1.503 . S
C2059 C2058 1.370 . S
C2059 C2060 1.403 . S
C2060 C2059 1.403 . S
C2060 C2061 1.404 . S
C2060 C2063 1.539 . S
C2061 C2057 1.408 . S
C2061 C2060 1.404 . S
C2061 H2073 0.930 . S
C2062 C2058 1.524 . S
C2062 H2074 0.956 . S
C2062 H2075 0.961 . S
C2062 H2076 0.961 . S
C2063 C2060 1.539 . S
C2063 H2077 0.958 . S
C2063 H2078 0.961 . S
C2063 H2079 0.960 . S
H2064 C2048 0.931 . S
H2065 C2053 0.929 . S
H2066 C2054 0.960 . S
H2067 C2054 0.962 . S
H2068 C2054 0.960 . S
H2069 C2055 0.961 . S
H2070 C2055 0.961 . S
H2071 C2055 0.961 . S
H2072 C2056 0.931 . S
H2073 C2061 0.930 . S
H2074 C2062 0.956 . S
H2075 C2062 0.961 . S
H2076 C2062 0.961 . S
H2077 C2063 0.958 . S
H2078 C2063 0.961 . S
H2079 C2063 0.960 . S
C2080 C2081 1.391 . S
C2080 C2082 1.394 . S
C2080 H2096 0.931 . S
C2081 C2080 1.391 . S
C2081 C2085 1.376 . S
C2082 C2080 1.394 . S
C2082 C2083 1.369 . S
C2082 C2086 1.531 . S
C2083 C2082 1.369 . S
C2083 C2084 1.410 . S
C2083 C2091 1.503 . S
C2084 C2083 1.410 . S
C2084 C2085 1.392 . S
C2084 C2087 1.511 . S
C2085 C2081 1.376 . S
C2085 C2084 1.392 . S
C2085 H2097 0.929 . S
C2086 C2082 1.531 . S
C2086 H2098 0.960 . S
C2086 H2099 0.962 . S
C2086 H2100 0.960 . S
C2087 C2084 1.511 . S
C2087 H2101 0.961 . S
C2087 H2102 0.961 . S
C2087 H2103 0.961 . S
C2088 C2089 1.370 . S
C2088 C2090 1.363 . S
C2088 H2104 0.931 . S
C2089 C2088 1.370 . S
C2089 C2093 1.408 . S
C2090 C2088 1.363 . S
C2090 C2091 1.370 . S
C2090 C2094 1.524 . S
C2091 C2083 1.503 . S
C2091 C2090 1.370 . S
C2091 C2092 1.403 . S
C2092 C2091 1.403 . S
C2092 C2093 1.404 . S
C2092 C2095 1.539 . S
C2093 C2089 1.408 . S
C2093 C2092 1.404 . S
C2093 H2105 0.930 . S
C2094 C2090 1.524 . S
C2094 H2106 0.956 . S
C2094 H2107 0.961 . S
C2094 H2108 0.961 . S
C2095 C2092 1.539 . S
C2095 H2109 0.958 . S
C2095 H2110 0.961 . S
C2095 H2111 0.960 . S
H2096 C2080 0.931 . S
H2097 C2085 0.929 . S
H2098 C2086 0.960 . S
H2099 C2086 0.962 . S
H2100 C2086 0.960 . S
H2101 C2087 0.961 . S
H2102 C2087 0.961 . S
H2103 C2087 0.961 . S
H2104 C2088 0.931 . S
H2105 C2093 0.930 . S
H2106 C2094 0.956 . S
H2107 C2094 0.961 . S
H2108 C2094 0.961 . S
H2109 C2095 0.958 . S
H2110 C2095 0.961 . S
H2111 C2095 0.960 . S
C2112 C2113 1.391 . S
C2112 C2114 1.394 . S
C2112 H2128 0.931 . S
C2113 C2112 1.391 . S
C2113 C2117 1.376 . S
C2114 C2112 1.394 . S
C2114 C2115 1.369 . S
C2114 C2118 1.531 . S
C2115 C2114 1.369 . S
C2115 C2116 1.410 . S
C2115 C2123 1.503 . S
C2116 C2115 1.410 . S
C2116 C2117 1.392 . S
C2116 C2119 1.511 . S
C2117 C2113 1.376 . S
C2117 C2116 1.392 . S
C2117 H2129 0.929 . S
C2118 C2114 1.531 . S
C2118 H2130 0.960 . S
C2118 H2131 0.962 . S
C2118 H2132 0.960 . S
C2119 C2116 1.511 . S
C2119 H2133 0.961 . S
C2119 H2134 0.961 . S
C2119 H2135 0.961 . S
C2120 C2121 1.370 . S
C2120 C2122 1.363 . S
C2120 H2136 0.931 . S
C2121 C2120 1.370 . S
C2121 C2125 1.408 . S
C2122 C2120 1.363 . S
C2122 C2123 1.370 . S
C2122 C2126 1.524 . S
C2123 C2115 1.503 . S
C2123 C2122 1.370 . S
C2123 C2124 1.403 . S
C2124 C2123 1.403 . S
C2124 C2125 1.404 . S
C2124 C2127 1.539 . S
C2125 C2121 1.408 . S
C2125 C2124 1.404 . S
C2125 H2137 0.930 . S
C2126 C2122 1.524 . S
C2126 H2138 0.956 . S
C2126 H2139 0.961 . S
C2126 H2140 0.961 . S
C2127 C2124 1.539 . S
C2127 H2141 0.958 . S
C2127 H2142 0.961 . S
C2127 H2143 0.960 . S
H2128 C2112 0.931 . S
H2129 C2117 0.929 . S
H2130 C2118 0.960 . S
H2131 C2118 0.962 . S
H2132 C2118 0.960 . S
H2133 C2119 0.961 . S
H2134 C2119 0.961 . S
H2135 C2119 0.961 . S
H2136 C2120 0.931 . S
H2137 C2125 0.930 . S
H2138 C2126 0.956 . S
H2139 C2126 0.961 . S
H2140 C2126 0.961 . S
H2141 C2127 0.958 . S
H2142 C2127 0.961 . S
H2143 C2127 0.960 . S
C2144 C2145 1.391 . S
C2144 C2146 1.394 . S
C2144 H2160 0.931 . S
C2145 C2144 1.391 . S
C2145 C2149 1.376 . S
C2146 C2144 1.394 . S
C2146 C2147 1.369 . S
C2146 C2150 1.531 . S
C2147 C2146 1.369 . S
C2147 C2148 1.410 . S
C2147 C2155 1.503 . S
C2148 C2147 1.410 . S
C2148 C2149 1.392 . S
C2148 C2151 1.511 . S
C2149 C2145 1.376 . S
C2149 C2148 1.392 . S
C2149 H2161 0.929 . S
C2150 C2146 1.531 . S
C2150 H2162 0.960 . S
C2150 H2163 0.962 . S
C2150 H2164 0.960 . S
C2151 C2148 1.511 . S
C2151 H2165 0.961 . S
C2151 H2166 0.961 . S
C2151 H2167 0.961 . S
C2152 C2153 1.370 . S
C2152 C2154 1.363 . S
C2152 H2168 0.931 . S
C2153 C2152 1.370 . S
C2153 C2157 1.408 . S
C2154 C2152 1.363 . S
C2154 C2155 1.370 . S
C2154 C2158 1.524 . S
C2155 C2147 1.503 . S
C2155 C2154 1.370 . S
C2155 C2156 1.403 . S
C2156 C2155 1.403 . S
C2156 C2157 1.404 . S
C2156 C2159 1.539 . S
C2157 C2153 1.408 . S
C2157 C2156 1.404 . S
C2157 H2169 0.930 . S
C2158 C2154 1.524 . S
C2158 H2170 0.956 . S
C2158 H2171 0.961 . S
C2158 H2172 0.961 . S
C2159 C2156 1.539 . S
C2159 H2173 0.958 . S
C2159 H2174 0.961 . S
C2159 H2175 0.960 . S
H2160 C2144 0.931 . S
H2161 C2149 0.929 . S
H2162 C2150 0.960 . S
H2163 C2150 0.962 . S
H2164 C2150 0.960 . S
H2165 C2151 0.961 . S
H2166 C2151 0.961 . S
H2167 C2151 0.961 . S
H2168 C2152 0.931 . S
H2169 C2157 0.930 . S
H2170 C2158 0.956 . S
H2171 C2158 0.961 . S
H2172 C2158 0.961 . S
H2173 C2159 0.958 . S
H2174 C2159 0.961 . S
H2175 C2159 0.960 . S
C2176 C2177 1.391 . S
C2176 C2178 1.394 . S
C2176 H2192 0.931 . S
C2177 C2176 1.391 . S
C2177 C2181 1.376 . S
C2178 C2176 1.394 . S
C2178 C2179 1.369 . S
C2178 C2182 1.531 . S
C2179 C2178 1.369 . S
C2179 C2180 1.410 . S
C2179 C2187 1.503 . S
C2180 C2179 1.410 . S
C2180 C2181 1.392 . S
C2180 C2183 1.511 . S
C2181 C2177 1.376 . S
C2181 C2180 1.392 . S
C2181 H2193 0.929 . S
C2182 C2178 1.531 . S
C2182 H2194 0.960 . S
C2182 H2195 0.962 . S
C2182 H2196 0.960 . S
C2183 C2180 1.511 . S
C2183 H2197 0.961 . S
C2183 H2198 0.961 . S
C2183 H2199 0.961 . S
C2184 C2185 1.370 . S
C2184 C2186 1.363 . S
C2184 H2200 0.931 . S
C2185 C2184 1.370 . S
C2185 C2189 1.408 . S
C2186 C2184 1.363 . S
C2186 C2187 1.370 . S
C2186 C2190 1.524 . S
C2187 C2179 1.503 . S
C2187 C2186 1.370 . S
C2187 C2188 1.403 . S
C2188 C2187 1.403 . S
C2188 C2189 1.404 . S
C2188 C2191 1.539 . S
C2189 C2185 1.408 . S
C2189 C2188 1.404 . S
C2189 H2201 0.930 . S
C2190 C2186 1.524 . S
C2190 H2202 0.956 . S
C2190 H2203 0.961 . S
C2190 H2204 0.961 . S
C2191 C2188 1.539 . S
C2191 H2205 0.958 . S
C2191 H2206 0.961 . S
C2191 H2207 0.960 . S
H2192 C2176 0.931 . S
H2193 C2181 0.929 . S
H2194 C2182 0.960 . S
H2195 C2182 0.962 . S
H2196 C2182 0.960 . S
H2197 C2183 0.961 . S
H2198 C2183 0.961 . S
H2199 C2183 0.961 . S
H2200 C2184 0.931 . S
H2201 C2189 0.930 . S
H2202 C2190 0.956 . S
H2203 C2190 0.961 . S
H2204 C2190 0.961 . S
H2205 C2191 0.958 . S
H2206 C2191 0.961 . S
H2207 C2191 0.960 . S
C2208 C2209 1.391 . S
C2208 C2210 1.394 . S
C2208 H2224 0.931 . S
C2209 C2208 1.391 . S
C2209 C2213 1.376 . S
C2210 C2208 1.394 . S
C2210 C2211 1.369 . S
C2210 C2214 1.531 . S
C2211 C2210 1.369 . S
C2211 C2212 1.410 . S
C2211 C2219 1.503 . S
C2212 C2211 1.410 . S
C2212 C2213 1.392 . S
C2212 C2215 1.511 . S
C2213 C2209 1.376 . S
C2213 C2212 1.392 . S
C2213 H2225 0.929 . S
C2214 C2210 1.531 . S
C2214 H2226 0.960 . S
C2214 H2227 0.962 . S
C2214 H2228 0.960 . S
C2215 C2212 1.511 . S
C2215 H2229 0.961 . S
C2215 H2230 0.961 . S
C2215 H2231 0.961 . S
C2216 C2217 1.370 . S
C2216 C2218 1.363 . S
C2216 H2232 0.931 . S
C2217 C2216 1.370 . S
C2217 C2221 1.408 . S
C2218 C2216 1.363 . S
C2218 C2219 1.370 . S
C2218 C2222 1.524 . S
C2219 C2211 1.503 . S
C2219 C2218 1.370 . S
C2219 C2220 1.403 . S
C2220 C2219 1.403 . S
C2220 C2221 1.404 . S
C2220 C2223 1.539 . S
C2221 C2217 1.408 . S
C2221 C2220 1.404 . S
C2221 H2233 0.930 . S
C2222 C2218 1.524 . S
C2222 H2234 0.956 . S
C2222 H2235 0.961 . S
C2222 H2236 0.961 . S
C2223 C2220 1.539 . S
C2223 H2237 0.958 . S
C2223 H2238 0.961 . S
C2223 H2239 0.960 . S
H2224 C2208 0.931 . S
H2225 C2213 0.929 . S
H2226 C2214 0.960 . S
H2227 C2214 0.962 . S
H2228 C2214 0.960 . S
H2229 C2215 0.961 . S
H2230 C2215 0.961 . S
H2231 C2215 0.961 . S
H2232 C2216 0.931 . S
H2233 C2221 0.930 . S
H2234 C2222 0.956 . S
H2235 C2222 0.961 . S
H2236 C2222 0.961 . S
H2237 C2223 0.958 . S
H2238 C2223 0.961 . S
H2239 C2223 0.960 . S
C2240 C2241 1.391 . S
C2240 C2242 1.394 . S
C2240 H2256 0.931 . S
C2241 C2240 1.391 . S
C2241 C2245 1.376 . S
C2242 C2240 1.394 . S
C2242 C2243 1.369 . S
C2242 C2246 1.531 . S
C2243 C2242 1.369 . S
C2243 C2244 1.410 . S
C2243 C2251 1.503 . S
C2244 C2243 1.410 . S
C2244 C2245 1.392 . S
C2244 C2247 1.511 . S
C2245 C2241 1.376 . S
C2245 C2244 1.392 . S
C2245 H2257 0.929 . S
C2246 C2242 1.531 . S
C2246 H2258 0.960 . S
C2246 H2259 0.962 . S
C2246 H2260 0.960 . S
C2247 C2244 1.511 . S
C2247 H2261 0.961 . S
C2247 H2262 0.961 . S
C2247 H2263 0.961 . S
C2248 C2249 1.370 . S
C2248 C2250 1.363 . S
C2248 H2264 0.931 . S
C2249 C2248 1.370 . S
C2249 C2253 1.408 . S
C2250 C2248 1.363 . S
C2250 C2251 1.370 . S
C2250 C2254 1.524 . S
C2251 C2243 1.503 . S
C2251 C2250 1.370 . S
C2251 C2252 1.403 . S
C2252 C2251 1.403 . S
C2252 C2253 1.404 . S
C2252 C2255 1.539 . S
C2253 C2249 1.408 . S
C2253 C2252 1.404 . S
C2253 H2265 0.930 . S
C2254 C2250 1.524 . S
C2254 H2266 0.956 . S
C2254 H2267 0.961 . S
C2254 H2268 0.961 . S
C2255 C2252 1.539 . S
C2255 H2269 0.958 . S
C2255 H2270 0.961 . S
C2255 H2271 0.960 . S
H2256 C2240 0.931 . S
H2257 C2245 0.929 . S
H2258 C2246 0.960 . S
H2259 C2246 0.962 . S
H2260 C2246 0.960 . S
H2261 C2247 0.961 . S
H2262 C2247 0.961 . S
H2263 C2247 0.961 . S
H2264 C2248 0.931 . S
H2265 C2253 0.930 . S
H2266 C2254 0.956 . S
H2267 C2254 0.961 . S
H2268 C2254 0.961 . S
H2269 C2255 0.958 . S
H2270 C2255 0.961 . S
H2271 C2255 0.960 . S
C2272 C2273 1.391 . S
C2272 C2274 1.394 . S
C2272 H2288 0.931 . S
C2273 C2272 1.391 . S
C2273 C2277 1.376 . S
C2274 C2272 1.394 . S
C2274 C2275 1.369 . S
C2274 C2278 1.531 . S
C2275 C2274 1.369 . S
C2275 C2276 1.410 . S
C2275 C2283 1.503 . S
C2276 C2275 1.410 . S
C2276 C2277 1.392 . S
C2276 C2279 1.511 . S
C2277 C2273 1.376 . S
C2277 C2276 1.392 . S
C2277 H2289 0.929 . S
C2278 C2274 1.531 . S
C2278 H2290 0.960 . S
C2278 H2291 0.962 . S
C2278 H2292 0.960 . S
C2279 C2276 1.511 . S
C2279 H2293 0.961 . S
C2279 H2294 0.961 . S
C2279 H2295 0.961 . S
C2280 C2281 1.370 . S
C2280 C2282 1.363 . S
C2280 H2296 0.931 . S
C2281 C2280 1.370 . S
C2281 C2285 1.408 . S
C2282 C2280 1.363 . S
C2282 C2283 1.370 . S
C2282 C2286 1.524 . S
C2283 C2275 1.503 . S
C2283 C2282 1.370 . S
C2283 C2284 1.403 . S
C2284 C2283 1.403 . S
C2284 C2285 1.404 . S
C2284 C2287 1.539 . S
C2285 C2281 1.408 . S
C2285 C2284 1.404 . S
C2285 H2297 0.930 . S
C2286 C2282 1.524 . S
C2286 H2298 0.956 . S
C2286 H2299 0.961 . S
C2286 H2300 0.961 . S
C2287 C2284 1.539 . S
C2287 H2301 0.958 . S
C2287 H2302 0.961 . S
C2287 H2303 0.960 . S
H2288 C2272 0.931 . S
H2289 C2277 0.929 . S
H2290 C2278 0.960 . S
H2291 C2278 0.962 . S
H2292 C2278 0.960 . S
H2293 C2279 0.961 . S
H2294 C2279 0.961 . S
H2295 C2279 0.961 . S
H2296 C2280 0.931 . S
H2297 C2285 0.930 . S
H2298 C2286 0.956 . S
H2299 C2286 0.961 . S
H2300 C2286 0.961 . S
H2301 C2287 0.958 . S
H2302 C2287 0.961 . S
H2303 C2287 0.960 . S
C2304 C2305 1.391 . S
C2304 C2306 1.394 . S
C2304 H2320 0.931 . S
C2305 C2304 1.391 . S
C2305 C2309 1.376 . S
C2306 C2304 1.394 . S
C2306 C2307 1.369 . S
C2306 C2310 1.531 . S
C2307 C2306 1.369 . S
C2307 C2308 1.410 . S
C2307 C2315 1.503 . S
C2308 C2307 1.410 . S
C2308 C2309 1.392 . S
C2308 C2311 1.511 . S
C2309 C2305 1.376 . S
C2309 C2308 1.392 . S
C2309 H2321 0.929 . S
C2310 C2306 1.531 . S
C2310 H2322 0.960 . S
C2310 H2323 0.962 . S
C2310 H2324 0.960 . S
C2311 C2308 1.511 . S
C2311 H2325 0.961 . S
C2311 H2326 0.961 . S
C2311 H2327 0.961 . S
C2312 C2313 1.370 . S
C2312 C2314 1.363 . S
C2312 H2328 0.931 . S
C2313 C2312 1.370 . S
C2313 C2317 1.408 . S
C2314 C2312 1.363 . S
C2314 C2315 1.370 . S
C2314 C2318 1.524 . S
C2315 C2307 1.503 . S
C2315 C2314 1.370 . S
C2315 C2316 1.403 . S
C2316 C2315 1.403 . S
C2316 C2317 1.404 . S
C2316 C2319 1.539 . S
C2317 C2313 1.408 . S
C2317 C2316 1.404 . S
C2317 H2329 0.930 . S
C2318 C2314 1.524 . S
C2318 H2330 0.956 . S
C2318 H2331 0.961 . S
C2318 H2332 0.961 . S
C2319 C2316 1.539 . S
C2319 H2333 0.958 . S
C2319 H2334 0.961 . S
C2319 H2335 0.960 . S
H2320 C2304 0.931 . S
H2321 C2309 0.929 . S
H2322 C2310 0.960 . S
H2323 C2310 0.962 . S
H2324 C2310 0.960 . S
H2325 C2311 0.961 . S
H2326 C2311 0.961 . S
H2327 C2311 0.961 . S
H2328 C2312 0.931 . S
H2329 C2317 0.930 . S
H2330 C2318 0.956 . S
H2331 C2318 0.961 . S
H2332 C2318 0.961 . S
H2333 C2319 0.958 . S
H2334 C2319 0.961 . S
H2335 C2319 0.960 . S
C2336 C2337 1.391 . S
C2336 C2338 1.394 . S
C2336 H2352 0.931 . S
C2337 C2336 1.391 . S
C2337 C2341 1.376 . S
C2338 C2336 1.394 . S
C2338 C2339 1.369 . S
C2338 C2342 1.531 . S
C2339 C2338 1.369 . S
C2339 C2340 1.410 . S
C2339 C2347 1.503 . S
C2340 C2339 1.410 . S
C2340 C2341 1.392 . S
C2340 C2343 1.511 . S
C2341 C2337 1.376 . S
C2341 C2340 1.392 . S
C2341 H2353 0.929 . S
C2342 C2338 1.531 . S
C2342 H2354 0.960 . S
C2342 H2355 0.962 . S
C2342 H2356 0.960 . S
C2343 C2340 1.511 . S
C2343 H2357 0.961 . S
C2343 H2358 0.961 . S
C2343 H2359 0.961 . S
C2344 C2345 1.370 . S
C2344 C2346 1.363 . S
C2344 H2360 0.931 . S
C2345 C2344 1.370 . S
C2345 C2349 1.408 . S
C2346 C2344 1.363 . S
C2346 C2347 1.370 . S
C2346 C2350 1.524 . S
C2347 C2339 1.503 . S
C2347 C2346 1.370 . S
C2347 C2348 1.403 . S
C2348 C2347 1.403 . S
C2348 C2349 1.404 . S
C2348 C2351 1.539 . S
C2349 C2345 1.408 . S
C2349 C2348 1.404 . S
C2349 H2361 0.930 . S
C2350 C2346 1.524 . S
C2350 H2362 0.956 . S
C2350 H2363 0.961 . S
C2350 H2364 0.961 . S
C2351 C2348 1.539 . S
C2351 H2365 0.958 . S
C2351 H2366 0.961 . S
C2351 H2367 0.960 . S
H2352 C2336 0.931 . S
H2353 C2341 0.929 . S
H2354 C2342 0.960 . S
H2355 C2342 0.962 . S
H2356 C2342 0.960 . S
H2357 C2343 0.961 . S
H2358 C2343 0.961 . S
H2359 C2343 0.961 . S
H2360 C2344 0.931 . S
H2361 C2349 0.930 . S
H2362 C2350 0.956 . S
H2363 C2350 0.961 . S
H2364 C2350 0.961 . S
H2365 C2351 0.958 . S
H2366 C2351 0.961 . S
H2367 C2351 0.960 . S
C2368 C2369 1.391 . S
C2368 C2370 1.394 . S
C2368 H2384 0.931 . S
C2369 C2368 1.391 . S
C2369 C2373 1.376 . S
C2370 C2368 1.394 . S
C2370 C2371 1.369 . S
C2370 C2374 1.531 . S
C2371 C2370 1.369 . S
C2371 C2372 1.410 . S
C2371 C2379 1.503 . S
C2372 C2371 1.410 . S
C2372 C2373 1.392 . S
C2372 C2375 1.511 . S
C2373 C2369 1.376 . S
C2373 C2372 1.392 . S
C2373 H2385 0.929 . S
C2374 C2370 1.531 . S
C2374 H2386 0.960 . S
C2374 H2387 0.962 . S
C2374 H2388 0.960 . S
C2375 C2372 1.511 . S
C2375 H2389 0.961 . S
C2375 H2390 0.961 . S
C2375 H2391 0.961 . S
C2376 C2377 1.370 . S
C2376 C2378 1.363 . S
C2376 H2392 0.931 . S
C2377 C2376 1.370 . S
C2377 C2381 1.408 . S
C2378 C2376 1.363 . S
C2378 C2379 1.370 . S
C2378 C2382 1.524 . S
C2379 C2371 1.503 . S
C2379 C2378 1.370 . S
C2379 C2380 1.403 . S
C2380 C2379 1.403 . S
C2380 C2381 1.404 . S
C2380 C2383 1.539 . S
C2381 C2377 1.408 . S
C2381 C2380 1.404 . S
C2381 H2393 0.930 . S
C2382 C2378 1.524 . S
C2382 H2394 0.956 . S
C2382 H2395 0.961 . S
C2382 H2396 0.961 . S
C2383 C2380 1.539 . S
C2383 H2397 0.958 . S
C2383 H2398 0.961 . S
C2383 H2399 0.960 . S
H2384 C2368 0.931 . S
H2385 C2373 0.929 . S
H2386 C2374 0.960 . S
H2387 C2374 0.962 . S
H2388 C2374 0.960 . S
H2389 C2375 0.961 . S
H2390 C2375 0.961 . S
H2391 C2375 0.961 . S
H2392 C2376 0.931 . S
H2393 C2381 0.930 . S
H2394 C2382 0.956 . S
H2395 C2382 0.961 . S
H2396 C2382 0.961 . S
H2397 C2383 0.958 . S
H2398 C2383 0.961 . S
H2399 C2383 0.960 . S
C2400 C2401 1.391 . S
C2400 C2402 1.394 . S
C2400 H2416 0.931 . S
C2401 C2400 1.391 . S
C2401 C2405 1.376 . S
C2402 C2400 1.394 . S
C2402 C2403 1.369 . S
C2402 C2406 1.531 . S
C2403 C2402 1.369 . S
C2403 C2404 1.410 . S
C2403 C2411 1.503 . S
C2404 C2403 1.410 . S
C2404 C2405 1.392 . S
C2404 C2407 1.511 . S
C2405 C2401 1.376 . S
C2405 C2404 1.392 . S
C2405 H2417 0.929 . S
C2406 C2402 1.531 . S
C2406 H2418 0.960 . S
C2406 H2419 0.962 . S
C2406 H2420 0.960 . S
C2407 C2404 1.511 . S
C2407 H2421 0.961 . S
C2407 H2422 0.961 . S
C2407 H2423 0.961 . S
C2408 C2409 1.370 . S
C2408 C2410 1.363 . S
C2408 H2424 0.931 . S
C2409 C2408 1.370 . S
C2409 C2413 1.408 . S
C2410 C2408 1.363 . S
C2410 C2411 1.370 . S
C2410 C2414 1.524 . S
C2411 C2403 1.503 . S
C2411 C2410 1.370 . S
C2411 C2412 1.403 . S
C2412 C2411 1.403 . S
C2412 C2413 1.404 . S
C2412 C2415 1.539 . S
C2413 C2409 1.408 . S
C2413 C2412 1.404 . S
C2413 H2425 0.930 . S
C2414 C2410 1.524 . S
C2414 H2426 0.956 . S
C2414 H2427 0.961 . S
C2414 H2428 0.961 . S
C2415 C2412 1.539 . S
C2415 H2429 0.958 . S
C2415 H2430 0.961 . S
C2415 H2431 0.960 . S
H2416 C2400 0.931 . S
H2417 C2405 0.929 . S
H2418 C2406 0.960 . S
H2419 C2406 0.962 . S
H2420 C2406 0.960 . S
H2421 C2407 0.961 . S
H2422 C2407 0.961 . S
H2423 C2407 0.961 . S
H2424 C2408 0.931 . S
H2425 C2413 0.930 . S
H2426 C2414 0.956 . S
H2427 C2414 0.961 . S
H2428 C2414 0.961 . S
H2429 C2415 0.958 . S
H2430 C2415 0.961 . S
H2431 C2415 0.960 . S
C2432 C2433 1.391 . S
C2432 C2434 1.394 . S
C2432 H2448 0.931 . S
C2433 C2432 1.391 . S
C2433 C2437 1.376 . S
C2434 C2432 1.394 . S
C2434 C2435 1.369 . S
C2434 C2438 1.531 . S
C2435 C2434 1.369 . S
C2435 C2436 1.410 . S
C2435 C2443 1.503 . S
C2436 C2435 1.410 . S
C2436 C2437 1.392 . S
C2436 C2439 1.511 . S
C2437 C2433 1.376 . S
C2437 C2436 1.392 . S
C2437 H2449 0.929 . S
C2438 C2434 1.531 . S
C2438 H2450 0.960 . S
C2438 H2451 0.962 . S
C2438 H2452 0.960 . S
C2439 C2436 1.511 . S
C2439 H2453 0.961 . S
C2439 H2454 0.961 . S
C2439 H2455 0.961 . S
C2440 C2441 1.370 . S
C2440 C2442 1.363 . S
C2440 H2456 0.931 . S
C2441 C2440 1.370 . S
C2441 C2445 1.408 . S
C2442 C2440 1.363 . S
C2442 C2443 1.370 . S
C2442 C2446 1.524 . S
C2443 C2435 1.503 . S
C2443 C2442 1.370 . S
C2443 C2444 1.403 . S
C2444 C2443 1.403 . S
C2444 C2445 1.404 . S
C2444 C2447 1.539 . S
C2445 C2441 1.408 . S
C2445 C2444 1.404 . S
C2445 H2457 0.930 . S
C2446 C2442 1.524 . S
C2446 H2458 0.956 . S
C2446 H2459 0.961 . S
C2446 H2460 0.961 . S
C2447 C2444 1.539 . S
C2447 H2461 0.958 . S
C2447 H2462 0.961 . S
C2447 H2463 0.960 . S
H2448 C2432 0.931 . S
H2449 C2437 0.929 . S
H2450 C2438 0.960 . S
H2451 C2438 0.962 . S
H2452 C2438 0.960 . S
H2453 C2439 0.961 . S
H2454 C2439 0.961 . S
H2455 C2439 0.961 . S
H2456 C2440 0.931 . S
H2457 C2445 0.930 . S
H2458 C2446 0.956 . S
H2459 C2446 0.961 . S
H2460 C2446 0.961 . S
H2461 C2447 0.958 . S
H2462 C2447 0.961 . S
H2463 C2447 0.960 . S
C2464 C2465 1.391 . S
C2464 C2466 1.394 . S
C2464 H2480 0.931 . S
C2465 C2464 1.391 . S
C2465 C2469 1.376 . S
C2466 C2464 1.394 . S
C2466 C2467 1.369 . S
C2466 C2470 1.531 . S
C2467 C2466 1.369 . S
C2467 C2468 1.410 . S
C2467 C2475 1.503 . S
C2468 C2467 1.410 . S
C2468 C2469 1.392 . S
C2468 C2471 1.511 . S
C2469 C2465 1.376 . S
C2469 C2468 1.392 . S
C2469 H2481 0.929 . S
C2470 C2466 1.531 . S
C2470 H2482 0.960 . S
C2470 H2483 0.962 . S
C2470 H2484 0.960 . S
C2471 C2468 1.511 . S
C2471 H2485 0.961 . S
C2471 H2486 0.961 . S
C2471 H2487 0.961 . S
C2472 C2473 1.370 . S
C2472 C2474 1.363 . S
C2472 H2488 0.931 . S
C2473 C2472 1.370 . S
C2473 C2477 1.408 . S
C2474 C2472 1.363 . S
C2474 C2475 1.370 . S
C2474 C2478 1.524 . S
C2475 C2467 1.503 . S
C2475 C2474 1.370 . S
C2475 C2476 1.403 . S
C2476 C2475 1.403 . S
C2476 C2477 1.404 . S
C2476 C2479 1.539 . S
C2477 C2473 1.408 . S
C2477 C2476 1.404 . S
C2477 H2489 0.930 . S
C2478 C2474 1.524 . S
C2478 H2490 0.956 . S
C2478 H2491 0.961 . S
C2478 H2492 0.961 . S
C2479 C2476 1.539 . S
C2479 H2493 0.958 . S
C2479 H2494 0.961 . S
C2479 H2495 0.960 . S
H2480 C2464 0.931 . S
H2481 C2469 0.929 . S
H2482 C2470 0.960 . S
H2483 C2470 0.962 . S
H2484 C2470 0.960 . S
H2485 C2471 0.961 . S
H2486 C2471 0.961 . S
H2487 C2471 0.961 . S
H2488 C2472 0.931 . S
H2489 C2477 0.930 . S
H2490 C2478 0.956 . S
H2491 C2478 0.961 . S
H2492 C2478 0.961 . S
H2493 C2479 0.958 . S
H2494 C2479 0.961 . S
H2495 C2479 0.960 . S
C2496 C2497 1.391 . S
C2496 C2498 1.394 . S
C2496 H2512 0.931 . S
C2497 C2496 1.391 . S
C2497 C2501 1.376 . S
C2498 C2496 1.394 . S
C2498 C2499 1.369 . S
C2498 C2502 1.531 . S
C2499 C2498 1.369 . S
C2499 C2500 1.410 . S
C2499 C2507 1.503 . S
C2500 C2499 1.410 . S
C2500 C2501 1.392 . S
C2500 C2503 1.511 . S
C2501 C2497 1.376 . S
C2501 C2500 1.392 . S
C2501 H2513 0.929 . S
C2502 C2498 1.531 . S
C2502 H2514 0.960 . S
C2502 H2515 0.962 . S
C2502 H2516 0.960 . S
C2503 C2500 1.511 . S
C2503 H2517 0.961 . S
C2503 H2518 0.961 . S
C2503 H2519 0.961 . S
C2504 C2505 1.370 . S
C2504 C2506 1.363 . S
C2504 H2520 0.931 . S
C2505 C2504 1.370 . S
C2505 C2509 1.408 . S
C2506 C2504 1.363 . S
C2506 C2507 1.370 . S
C2506 C2510 1.524 . S
C2507 C2499 1.503 . S
C2507 C2506 1.370 . S
C2507 C2508 1.403 . S
C2508 C2507 1.403 . S
C2508 C2509 1.404 . S
C2508 C2511 1.539 . S
C2509 C2505 1.408 . S
C2509 C2508 1.404 . S
C2509 H2521 0.930 . S
C2510 C2506 1.524 . S
C2510 H2522 0.956 . S
C2510 H2523 0.961 . S
C2510 H2524 0.961 . S
C2511 C2508 1.539 . S
C2511 H2525 0.958 . S
C2511 H2526 0.961 . S
C2511 H2527 0.960 . S
H2512 C2496 0.931 . S
H2513 C2501 0.929 . S
H2514 C2502 0.960 . S
H2515 C2502 0.962 . S
H2516 C2502 0.960 . S
H2517 C2503 0.961 . S
H2518 C2503 0.961 . S
H2519 C2503 0.961 . S
H2520 C2504 0.931 . S
H2521 C2509 0.930 . S
H2522 C2510 0.956 . S
H2523 C2510 0.961 . S
H2524 C2510 0.961 . S
H2525 C2511 0.958 . S
H2526 C2511 0.961 . S
H2527 C2511 0.960 . S
C2528 C2529 1.391 . S
C2528 C2530 1.394 . S
C2528 H2544 0.931 . S
C2529 C2528 1.391 . S
C2529 C2533 1.376 . S
C2530 C2528 1.394 . S
C2530 C2531 1.369 . S
C2530 C2534 1.531 . S
C2531 C2530 1.369 . S
C2531 C2532 1.410 . S
C2531 C2539 1.503 . S
C2532 C2531 1.410 . S
C2532 C2533 1.392 . S
C2532 C2535 1.511 . S
C2533 C2529 1.376 . S
C2533 C2532 1.392 . S
C2533 H2545 0.929 . S
C2534 C2530 1.531 . S
C2534 H2546 0.960 . S
C2534 H2547 0.962 . S
C2534 H2548 0.960 . S
C2535 C2532 1.511 . S
C2535 H2549 0.961 . S
C2535 H2550 0.961 . S
C2535 H2551 0.961 . S
C2536 C2537 1.370 . S
C2536 C2538 1.363 . S
C2536 H2552 0.931 . S
C2537 C2536 1.370 . S
C2537 C2541 1.408 . S
C2538 C2536 1.363 . S
C2538 C2539 1.370 . S
C2538 C2542 1.524 . S
C2539 C2531 1.503 . S
C2539 C2538 1.370 . S
C2539 C2540 1.403 . S
C2540 C2539 1.403 . S
C2540 C2541 1.404 . S
C2540 C2543 1.539 . S
C2541 C2537 1.408 . S
C2541 C2540 1.404 . S
C2541 H2553 0.930 . S
C2542 C2538 1.524 . S
C2542 H2554 0.956 . S
C2542 H2555 0.961 . S
C2542 H2556 0.961 . S
C2543 C2540 1.539 . S
C2543 H2557 0.958 . S
C2543 H2558 0.961 . S
C2543 H2559 0.960 . S
H2544 C2528 0.931 . S
H2545 C2533 0.929 . S
H2546 C2534 0.960 . S
H2547 C2534 0.962 . S
H2548 C2534 0.960 . S
H2549 C2535 0.961 . S
H2550 C2535 0.961 . S
H2551 C2535 0.961 . S
H2552 C2536 0.931 . S
H2553 C2541 0.930 . S
H2554 C2542 0.956 . S
H2555 C2542 0.961 . S
H2556 C2542 0.961 . S
H2557 C2543 0.958 . S
H2558 C2543 0.961 . S
H2559 C2543 0.960 . S
C2560 C2561 1.391 . S
C2560 C2562 1.394 . S
C2560 H2576 0.931 . S
C2561 C2560 1.391 . S
C2561 C2565 1.376 . S
C2562 C2560 1.394 . S
C2562 C2563 1.369 . S
C2562 C2566 1.531 . S
C2563 C2562 1.369 . S
C2563 C2564 1.410 . S
C2563 C2571 1.503 . S
C2564 C2563 1.410 . S
C2564 C2565 1.392 . S
C2564 C2567 1.511 . S
C2565 C2561 1.376 . S
C2565 C2564 1.392 . S
C2565 H2577 0.929 . S
C2566 C2562 1.531 . S
C2566 H2578 0.960 . S
C2566 H2579 0.962 . S
C2566 H2580 0.960 . S
C2567 C2564 1.511 . S
C2567 H2581 0.961 . S
C2567 H2582 0.961 . S
C2567 H2583 0.961 . S
C2568 C2569 1.370 . S
C2568 C2570 1.363 . S
C2568 H2584 0.931 . S
C2569 C2568 1.370 . S
C2569 C2573 1.408 . S
C2570 C2568 1.363 . S
C2570 C2571 1.370 . S
C2570 C2574 1.524 . S
C2571 C2563 1.503 . S
C2571 C2570 1.370 . S
C2571 C2572 1.403 . S
C2572 C2571 1.403 . S
C2572 C2573 1.404 . S
C2572 C2575 1.539 . S
C2573 C2569 1.408 . S
C2573 C2572 1.404 . S
C2573 H2585 0.930 . S
C2574 C2570 1.524 . S
C2574 H2586 0.956 . S
C2574 H2587 0.961 . S
C2574 H2588 0.961 . S
C2575 C2572 1.539 . S
C2575 H2589 0.958 . S
C2575 H2590 0.961 . S
C2575 H2591 0.960 . S
H2576 C2560 0.931 . S
H2577 C2565 0.929 . S
H2578 C2566 0.960 . S
H2579 C2566 0.962 . S
H2580 C2566 0.960 . S
H2581 C2567 0.961 . S
H2582 C2567 0.961 . S
H2583 C2567 0.961 . S
H2584 C2568 0.931 . S
H2585 C2573 0.930 . S
H2586 C2574 0.956 . S
H2587 C2574 0.961 . S
H2588 C2574 0.961 . S
H2589 C2575 0.958 . S
H2590 C2575 0.961 . S
H2591 C2575 0.960 . S
C2592 C2593 1.391 . S
C2592 C2594 1.394 . S
C2592 H2608 0.931 . S
C2593 C2592 1.391 . S
C2593 C2597 1.376 . S
C2594 C2592 1.394 . S
C2594 C2595 1.369 . S
C2594 C2598 1.531 . S
C2595 C2594 1.369 . S
C2595 C2596 1.410 . S
C2595 C2603 1.503 . S
C2596 C2595 1.410 . S
C2596 C2597 1.392 . S
C2596 C2599 1.511 . S
C2597 C2593 1.376 . S
C2597 C2596 1.392 . S
C2597 H2609 0.929 . S
C2598 C2594 1.531 . S
C2598 H2610 0.960 . S
C2598 H2611 0.962 . S
C2598 H2612 0.960 . S
C2599 C2596 1.511 . S
C2599 H2613 0.961 . S
C2599 H2614 0.961 . S
C2599 H2615 0.961 . S
C2600 C2601 1.370 . S
C2600 C2602 1.363 . S
C2600 H2616 0.931 . S
C2601 C2600 1.370 . S
C2601 C2605 1.408 . S
C2602 C2600 1.363 . S
C2602 C2603 1.370 . S
C2602 C2606 1.524 . S
C2603 C2595 1.503 . S
C2603 C2602 1.370 . S
C2603 C2604 1.403 . S
C2604 C2603 1.403 . S
C2604 C2605 1.404 . S
C2604 C2607 1.539 . S
C2605 C2601 1.408 . S
C2605 C2604 1.404 . S
C2605 H2617 0.930 . S
C2606 C2602 1.524 . S
C2606 H2618 0.956 . S
C2606 H2619 0.961 . S
C2606 H2620 0.961 . S
C2607 C2604 1.539 . S
C2607 H2621 0.958 . S
C2607 H2622 0.961 . S
C2607 H2623 0.960 . S
H2608 C2592 0.931 . S
H2609 C2597 0.929 . S
H2610 C2598 0.960 . S
H2611 C2598 0.962 . S
H2612 C2598 0.960 . S
H2613 C2599 0.961 . S
H2614 C2599 0.961 . S
H2615 C2599 0.961 . S
H2616 C2600 0.931 . S
H2617 C2605 0.930 . S
H2618 C2606 0.956 . S
H2619 C2606 0.961 . S
H2620 C2606 0.961 . S
H2621 C2607 0.958 . S
H2622 C2607 0.961 . S
H2623 C2607 0.960 . S
C2624 C2625 1.391 . S
C2624 C2626 1.394 . S
C2624 H2640 0.931 . S
C2625 C2624 1.391 . S
C2625 C2629 1.376 . S
C2626 C2624 1.394 . S
C2626 C2627 1.369 . S
C2626 C2630 1.531 . S
C2627 C2626 1.369 . S
C2627 C2628 1.410 . S
C2627 C2635 1.503 . S
C2628 C2627 1.410 . S
C2628 C2629 1.392 . S
C2628 C2631 1.511 . S
C2629 C2625 1.376 . S
C2629 C2628 1.392 . S
C2629 H2641 0.929 . S
C2630 C2626 1.531 . S
C2630 H2642 0.960 . S
C2630 H2643 0.962 . S
C2630 H2644 0.960 . S
C2631 C2628 1.511 . S
C2631 H2645 0.961 . S
C2631 H2646 0.961 . S
C2631 H2647 0.961 . S
C2632 C2633 1.370 . S
C2632 C2634 1.363 . S
C2632 H2648 0.931 . S
C2633 C2632 1.370 . S
C2633 C2637 1.408 . S
C2634 C2632 1.363 . S
C2634 C2635 1.370 . S
C2634 C2638 1.524 . S
C2635 C2627 1.503 . S
C2635 C2634 1.370 . S
C2635 C2636 1.403 . S
C2636 C2635 1.403 . S
C2636 C2637 1.404 . S
C2636 C2639 1.539 . S
C2637 C2633 1.408 . S
C2637 C2636 1.404 . S
C2637 H2649 0.930 . S
C2638 C2634 1.524 . S
C2638 H2650 0.956 . S
C2638 H2651 0.961 . S
C2638 H2652 0.961 . S
C2639 C2636 1.539 . S
C2639 H2653 0.958 . S
C2639 H2654 0.961 . S
C2639 H2655 0.960 . S
H2640 C2624 0.931 . S
H2641 C2629 0.929 . S
H2642 C2630 0.960 . S
H2643 C2630 0.962 . S
H2644 C2630 0.960 . S
H2645 C2631 0.961 . S
H2646 C2631 0.961 . S
H2647 C2631 0.961 . S
H2648 C2632 0.931 . S
H2649 C2637 0.930 . S
H2650 C2638 0.956 . S
H2651 C2638 0.961 . S
H2652 C2638 0.961 . S
H2653 C2639 0.958 . S
H2654 C2639 0.961 . S
H2655 C2639 0.960 . S
C2656 C2657 1.391 . S
C2656 C2658 1.394 . S
C2656 H2672 0.931 . S
C2657 C2656 1.391 . S
C2657 C2661 1.376 . S
C2658 C2656 1.394 . S
C2658 C2659 1.369 . S
C2658 C2662 1.531 . S
C2659 C2658 1.369 . S
C2659 C2660 1.410 . S
C2659 C2667 1.503 . S
C2660 C2659 1.410 . S
C2660 C2661 1.392 . S
C2660 C2663 1.511 . S
C2661 C2657 1.376 . S
C2661 C2660 1.392 . S
C2661 H2673 0.929 . S
C2662 C2658 1.531 . S
C2662 H2674 0.960 . S
C2662 H2675 0.962 . S
C2662 H2676 0.960 . S
C2663 C2660 1.511 . S
C2663 H2677 0.961 . S
C2663 H2678 0.961 . S
C2663 H2679 0.961 . S
C2664 C2665 1.370 . S
C2664 C2666 1.363 . S
C2664 H2680 0.931 . S
C2665 C2664 1.370 . S
C2665 C2669 1.408 . S
C2666 C2664 1.363 . S
C2666 C2667 1.370 . S
C2666 C2670 1.524 . S
C2667 C2659 1.503 . S
C2667 C2666 1.370 . S
C2667 C2668 1.403 . S
C2668 C2667 1.403 . S
C2668 C2669 1.404 . S
C2668 C2671 1.539 . S
C2669 C2665 1.408 . S
C2669 C2668 1.404 . S
C2669 H2681 0.930 . S
C2670 C2666 1.524 . S
C2670 H2682 0.956 . S
C2670 H2683 0.961 . S
C2670 H2684 0.961 . S
C2671 C2668 1.539 . S
C2671 H2685 0.958 . S
C2671 H2686 0.961 . S
C2671 H2687 0.960 . S
H2672 C2656 0.931 . S
H2673 C2661 0.929 . S
H2674 C2662 0.960 . S
H2675 C2662 0.962 . S
H2676 C2662 0.960 . S
H2677 C2663 0.961 . S
H2678 C2663 0.961 . S
H2679 C2663 0.961 . S
H2680 C2664 0.931 . S
H2681 C2669 0.930 . S
H2682 C2670 0.956 . S
H2683 C2670 0.961 . S
H2684 C2670 0.961 . S
H2685 C2671 0.958 . S
H2686 C2671 0.961 . S
H2687 C2671 0.960 . S
C2688 C2689 1.391 . S
C2688 C2690 1.394 . S
C2688 H2704 0.931 . S
C2689 C2688 1.391 . S
C2689 C2693 1.376 . S
C2690 C2688 1.394 . S
C2690 C2691 1.369 . S
C2690 C2694 1.531 . S
C2691 C2690 1.369 . S
C2691 C2692 1.410 . S
C2691 C2699 1.503 . S
C2692 C2691 1.410 . S
C2692 C2693 1.392 . S
C2692 C2695 1.511 . S
C2693 C2689 1.376 . S
C2693 C2692 1.392 . S
C2693 H2705 0.929 . S
C2694 C2690 1.531 . S
C2694 H2706 0.960 . S
C2694 H2707 0.962 . S
C2694 H2708 0.960 . S
C2695 C2692 1.511 . S
C2695 H2709 0.961 . S
C2695 H2710 0.961 . S
C2695 H2711 0.961 . S
C2696 C2697 1.370 . S
C2696 C2698 1.363 . S
C2696 H2712 0.931 . S
C2697 C2696 1.370 . S
C2697 C2701 1.408 . S
C2698 C2696 1.363 . S
C2698 C2699 1.370 . S
C2698 C2702 1.524 . S
C2699 C2691 1.503 . S
C2699 C2698 1.370 . S
C2699 C2700 1.403 . S
C2700 C2699 1.403 . S
C2700 C2701 1.404 . S
C2700 C2703 1.539 . S
C2701 C2697 1.408 . S
C2701 C2700 1.404 . S
C2701 H2713 0.930 . S
C2702 C2698 1.524 . S
C2702 H2714 0.956 . S
C2702 H2715 0.961 . S
C2702 H2716 0.961 . S
C2703 C2700 1.539 . S
C2703 H2717 0.958 . S
C2703 H2718 0.961 . S
C2703 H2719 0.960 . S
H2704 C2688 0.931 . S
H2705 C2693 0.929 . S
H2706 C2694 0.960 . S
H2707 C2694 0.962 . S
H2708 C2694 0.960 . S
H2709 C2695 0.961 . S
H2710 C2695 0.961 . S
H2711 C2695 0.961 . S
H2712 C2696 0.931 . S
H2713 C2701 0.930 . S
H2714 C2702 0.956 . S
H2715 C2702 0.961 . S
H2716 C2702 0.961 . S
H2717 C2703 0.958 . S
H2718 C2703 0.961 . S
H2719 C2703 0.960 . S
C2720 C2721 1.391 . S
C2720 C2722 1.394 . S
C2720 H2736 0.931 . S
C2721 C2720 1.391 . S
C2721 C2725 1.376 . S
C2722 C2720 1.394 . S
C2722 C2723 1.369 . S
C2722 C2726 1.531 . S
C2723 C2722 1.369 . S
C2723 C2724 1.410 . S
C2723 C2731 1.503 . S
C2724 C2723 1.410 . S
C2724 C2725 1.392 . S
C2724 C2727 1.511 . S
C2725 C2721 1.376 . S
C2725 C2724 1.392 . S
C2725 H2737 0.929 . S
C2726 C2722 1.531 . S
C2726 H2738 0.960 . S
C2726 H2739 0.962 . S
C2726 H2740 0.960 . S
C2727 C2724 1.511 . S
C2727 H2741 0.961 . S
C2727 H2742 0.961 . S
C2727 H2743 0.961 . S
C2728 C2729 1.370 . S
C2728 C2730 1.363 . S
C2728 H2744 0.931 . S
C2729 C2728 1.370 . S
C2729 C2733 1.408 . S
C2730 C2728 1.363 . S
C2730 C2731 1.370 . S
C2730 C2734 1.524 . S
C2731 C2723 1.503 . S
C2731 C2730 1.370 . S
C2731 C2732 1.403 . S
C2732 C2731 1.403 . S
C2732 C2733 1.404 . S
C2732 C2735 1.539 . S
C2733 C2729 1.408 . S
C2733 C2732 1.404 . S
C2733 H2745 0.930 . S
C2734 C2730 1.524 . S
C2734 H2746 0.956 . S
C2734 H2747 0.961 . S
C2734 H2748 0.961 . S
C2735 C2732 1.539 . S
C2735 H2749 0.958 . S
C2735 H2750 0.961 . S
C2735 H2751 0.960 . S
H2736 C2720 0.931 . S
H2737 C2725 0.929 . S
H2738 C2726 0.960 . S
H2739 C2726 0.962 . S
H2740 C2726 0.960 . S
H2741 C2727 0.961 . S
H2742 C2727 0.961 . S
H2743 C2727 0.961 . S
H2744 C2728 0.931 . S
H2745 C2733 0.930 . S
H2746 C2734 0.956 . S
H2747 C2734 0.961 . S
H2748 C2734 0.961 . S
H2749 C2735 0.958 . S
H2750 C2735 0.961 . S
H2751 C2735 0.960 . S
C2752 C2753 1.391 . S
C2752 C2754 1.394 . S
C2752 H2768 0.931 . S
C2753 C2752 1.391 . S
C2753 C2757 1.376 . S
C2754 C2752 1.394 . S
C2754 C2755 1.369 . S
C2754 C2758 1.531 . S
C2755 C2754 1.369 . S
C2755 C2756 1.410 . S
C2755 C2763 1.503 . S
C2756 C2755 1.410 . S
C2756 C2757 1.392 . S
C2756 C2759 1.511 . S
C2757 C2753 1.376 . S
C2757 C2756 1.392 . S
C2757 H2769 0.929 . S
C2758 C2754 1.531 . S
C2758 H2770 0.960 . S
C2758 H2771 0.962 . S
C2758 H2772 0.960 . S
C2759 C2756 1.511 . S
C2759 H2773 0.961 . S
C2759 H2774 0.961 . S
C2759 H2775 0.961 . S
C2760 C2761 1.370 . S
C2760 C2762 1.363 . S
C2760 H2776 0.931 . S
C2761 C2760 1.370 . S
C2761 C2765 1.408 . S
C2762 C2760 1.363 . S
C2762 C2763 1.370 . S
C2762 C2766 1.524 . S
C2763 C2755 1.503 . S
C2763 C2762 1.370 . S
C2763 C2764 1.403 . S
C2764 C2763 1.403 . S
C2764 C2765 1.404 . S
C2764 C2767 1.539 . S
C2765 C2761 1.408 . S
C2765 C2764 1.404 . S
C2765 H2777 0.930 . S
C2766 C2762 1.524 . S
C2766 H2778 0.956 . S
C2766 H2779 0.961 . S
C2766 H2780 0.961 . S
C2767 C2764 1.539 . S
C2767 H2781 0.958 . S
C2767 H2782 0.961 . S
C2767 H2783 0.960 . S
H2768 C2752 0.931 . S
H2769 C2757 0.929 . S
H2770 C2758 0.960 . S
H2771 C2758 0.962 . S
H2772 C2758 0.960 . S
H2773 C2759 0.961 . S
H2774 C2759 0.961 . S
H2775 C2759 0.961 . S
H2776 C2760 0.931 . S
H2777 C2765 0.930 . S
H2778 C2766 0.956 . S
H2779 C2766 0.961 . S
H2780 C2766 0.961 . S
H2781 C2767 0.958 . S
H2782 C2767 0.961 . S
H2783 C2767 0.960 . S
C2784 C2785 1.391 . S
C2784 C2786 1.394 . S
C2784 H2800 0.931 . S
C2785 C2784 1.391 . S
C2785 C2789 1.376 . S
C2786 C2784 1.394 . S
C2786 C2787 1.369 . S
C2786 C2790 1.531 . S
C2787 C2786 1.369 . S
C2787 C2788 1.410 . S
C2787 C2795 1.503 . S
C2788 C2787 1.410 . S
C2788 C2789 1.392 . S
C2788 C2791 1.511 . S
C2789 C2785 1.376 . S
C2789 C2788 1.392 . S
C2789 H2801 0.929 . S
C2790 C2786 1.531 . S
C2790 H2802 0.960 . S
C2790 H2803 0.962 . S
C2790 H2804 0.960 . S
C2791 C2788 1.511 . S
C2791 H2805 0.961 . S
C2791 H2806 0.961 . S
C2791 H2807 0.961 . S
C2792 C2793 1.370 . S
C2792 C2794 1.363 . S
C2792 H2808 0.931 . S
C2793 C2792 1.370 . S
C2793 C2797 1.408 . S
C2794 C2792 1.363 . S
C2794 C2795 1.370 . S
C2794 C2798 1.524 . S
C2795 C2787 1.503 . S
C2795 C2794 1.370 . S
C2795 C2796 1.403 . S
C2796 C2795 1.403 . S
C2796 C2797 1.404 . S
C2796 C2799 1.539 . S
C2797 C2793 1.408 . S
C2797 C2796 1.404 . S
C2797 H2809 0.930 . S
C2798 C2794 1.524 . S
C2798 H2810 0.956 . S
C2798 H2811 0.961 . S
C2798 H2812 0.961 . S
C2799 C2796 1.539 . S
C2799 H2813 0.958 . S
C2799 H2814 0.961 . S
C2799 H2815 0.960 . S
H2800 C2784 0.931 . S
H2801 C2789 0.929 . S
H2802 C2790 0.960 . S
H2803 C2790 0.962 . S
H2804 C2790 0.960 . S
H2805 C2791 0.961 . S
H2806 C2791 0.961 . S
H2807 C2791 0.961 . S
H2808 C2792 0.931 . S
H2809 C2797 0.930 . S
H2810 C2798 0.956 . S
H2811 C2798 0.961 . S
H2812 C2798 0.961 . S
H2813 C2799 0.958 . S
H2814 C2799 0.961 . S
H2815 C2799 0.960 . S
C2816 C2817 1.391 . S
C2816 C2818 1.394 . S
C2816 H2832 0.931 . S
C2817 C2816 1.391 . S
C2817 C2821 1.376 . S
C2818 C2816 1.394 . S
C2818 C2819 1.369 . S
C2818 C2822 1.531 . S
C2819 C2818 1.369 . S
C2819 C2820 1.410 . S
C2819 C2827 1.503 . S
C2820 C2819 1.410 . S
C2820 C2821 1.392 . S
C2820 C2823 1.511 . S
C2821 C2817 1.376 . S
C2821 C2820 1.392 . S
C2821 H2833 0.929 . S
C2822 C2818 1.531 . S
C2822 H2834 0.960 . S
C2822 H2835 0.962 . S
C2822 H2836 0.960 . S
C2823 C2820 1.511 . S
C2823 H2837 0.961 . S
C2823 H2838 0.961 . S
C2823 H2839 0.961 . S
C2824 C2825 1.370 . S
C2824 C2826 1.363 . S
C2824 H2840 0.931 . S
C2825 C2824 1.370 . S
C2825 C2829 1.408 . S
C2826 C2824 1.363 . S
C2826 C2827 1.370 . S
C2826 C2830 1.524 . S
C2827 C2819 1.503 . S
C2827 C2826 1.370 . S
C2827 C2828 1.403 . S
C2828 C2827 1.403 . S
C2828 C2829 1.404 . S
C2828 C2831 1.539 . S
C2829 C2825 1.408 . S
C2829 C2828 1.404 . S
C2829 H2841 0.930 . S
C2830 C2826 1.524 . S
C2830 H2842 0.956 . S
C2830 H2843 0.961 . S
C2830 H2844 0.961 . S
C2831 C2828 1.539 . S
C2831 H2845 0.958 . S
C2831 H2846 0.961 . S
C2831 H2847 0.960 . S
H2832 C2816 0.931 . S
H2833 C2821 0.929 . S
H2834 C2822 0.960 . S
H2835 C2822 0.962 . S
H2836 C2822 0.960 . S
H2837 C2823 0.961 . S
H2838 C2823 0.961 . S
H2839 C2823 0.961 . S
H2840 C2824 0.931 . S
H2841 C2829 0.930 . S
H2842 C2830 0.956 . S
H2843 C2830 0.961 . S
H2844 C2830 0.961 . S
H2845 C2831 0.958 . S
H2846 C2831 0.961 . S
H2847 C2831 0.960 . S
C2848 C2849 1.391 . S
C2848 C2850 1.394 . S
C2848 H2864 0.931 . S
C2849 C2848 1.391 . S
C2849 C2853 1.376 . S
C2850 C2848 1.394 . S
C2850 C2851 1.369 . S
C2850 C2854 1.531 . S
C2851 C2850 1.369 . S
C2851 C2852 1.410 . S
C2851 C2859 1.503 . S
C2852 C2851 1.410 . S
C2852 C2853 1.392 . S
C2852 C2855 1.511 . S
C2853 C2849 1.376 . S
C2853 C2852 1.392 . S
C2853 H2865 0.929 . S
C2854 C2850 1.531 . S
C2854 H2866 0.960 . S
C2854 H2867 0.962 . S
C2854 H2868 0.960 . S
C2855 C2852 1.511 . S
C2855 H2869 0.961 . S
C2855 H2870 0.961 . S
C2855 H2871 0.961 . S
C2856 C2857 1.370 . S
C2856 C2858 1.363 . S
C2856 H2872 0.931 . S
C2857 C2856 1.370 . S
C2857 C2861 1.408 . S
C2858 C2856 1.363 . S
C2858 C2859 1.370 . S
C2858 C2862 1.524 . S
C2859 C2851 1.503 . S
C2859 C2858 1.370 . S
C2859 C2860 1.403 . S
C2860 C2859 1.403 . S
C2860 C2861 1.404 . S
C2860 C2863 1.539 . S
C2861 C2857 1.408 . S
C2861 C2860 1.404 . S
C2861 H2873 0.930 . S
C2862 C2858 1.524 . S
C2862 H2874 0.956 . S
C2862 H2875 0.961 . S
C2862 H2876 0.961 . S
C2863 C2860 1.539 . S
C2863 H2877 0.958 . S
C2863 H2878 0.961 . S
C2863 H2879 0.960 . S
H2864 C2848 0.931 . S
H2865 C2853 0.929 . S
H2866 C2854 0.960 . S
H2867 C2854 0.962 . S
H2868 C2854 0.960 . S
H2869 C2855 0.961 . S
H2870 C2855 0.961 . S
H2871 C2855 0.961 . S
H2872 C2856 0.931 . S
H2873 C2861 0.930 . S
H2874 C2862 0.956 . S
H2875 C2862 0.961 . S
H2876 C2862 0.961 . S
H2877 C2863 0.958 . S
H2878 C2863 0.961 . S
H2879 C2863 0.960 . S
C2880 C2881 1.391 . S
C2880 C2882 1.394 . S
C2880 H2896 0.931 . S
C2881 C2880 1.391 . S
C2881 C2885 1.376 . S
C2882 C2880 1.394 . S
C2882 C2883 1.369 . S
C2882 C2886 1.531 . S
C2883 C2882 1.369 . S
C2883 C2884 1.410 . S
C2883 C2891 1.503 . S
C2884 C2883 1.410 . S
C2884 C2885 1.392 . S
C2884 C2887 1.511 . S
C2885 C2881 1.376 . S
C2885 C2884 1.392 . S
C2885 H2897 0.929 . S
C2886 C2882 1.531 . S
C2886 H2898 0.960 . S
C2886 H2899 0.962 . S
C2886 H2900 0.960 . S
C2887 C2884 1.511 . S
C2887 H2901 0.961 . S
C2887 H2902 0.961 . S
C2887 H2903 0.961 . S
C2888 C2889 1.370 . S
C2888 C2890 1.363 . S
C2888 H2904 0.931 . S
C2889 C2888 1.370 . S
C2889 C2893 1.408 . S
C2890 C2888 1.363 . S
C2890 C2891 1.370 . S
C2890 C2894 1.524 . S
C2891 C2883 1.503 . S
C2891 C2890 1.370 . S
C2891 C2892 1.403 . S
C2892 C2891 1.403 . S
C2892 C2893 1.404 . S
C2892 C2895 1.539 . S
C2893 C2889 1.408 . S
C2893 C2892 1.404 . S
C2893 H2905 0.930 . S
C2894 C2890 1.524 . S
C2894 H2906 0.956 . S
C2894 H2907 0.961 . S
C2894 H2908 0.961 . S
C2895 C2892 1.539 . S
C2895 H2909 0.958 . S
C2895 H2910 0.961 . S
C2895 H2911 0.960 . S
H2896 C2880 0.931 . S
H2897 C2885 0.929 . S
H2898 C2886 0.960 . S
H2899 C2886 0.962 . S
H2900 C2886 0.960 . S
H2901 C2887 0.961 . S
H2902 C2887 0.961 . S
H2903 C2887 0.961 . S
H2904 C2888 0.931 . S
H2905 C2893 0.930 . S
H2906 C2894 0.956 . S
H2907 C2894 0.961 . S
H2908 C2894 0.961 . S
H2909 C2895 0.958 . S
H2910 C2895 0.961 . S
H2911 C2895 0.960 . S
C2912 C2913 1.391 . S
C2912 C2914 1.394 . S
C2912 H2928 0.931 . S
C2913 C2912 1.391 . S
C2913 C2917 1.376 . S
C2914 C2912 1.394 . S
C2914 C2915 1.369 . S
C2914 C2918 1.531 . S
C2915 C2914 1.369 . S
C2915 C2916 1.410 . S
C2915 C2923 1.503 . S
C2916 C2915 1.410 . S
C2916 C2917 1.392 . S
C2916 C2919 1.511 . S
C2917 C2913 1.376 . S
C2917 C2916 1.392 . S
C2917 H2929 0.929 . S
C2918 C2914 1.531 . S
C2918 H2930 0.960 . S
C2918 H2931 0.962 . S
C2918 H2932 0.960 . S
C2919 C2916 1.511 . S
C2919 H2933 0.961 . S
C2919 H2934 0.961 . S
C2919 H2935 0.961 . S
C2920 C2921 1.370 . S
C2920 C2922 1.363 . S
C2920 H2936 0.931 . S
C2921 C2920 1.370 . S
C2921 C2925 1.408 . S
C2922 C2920 1.363 . S
C2922 C2923 1.370 . S
C2922 C2926 1.524 . S
C2923 C2915 1.503 . S
C2923 C2922 1.370 . S
C2923 C2924 1.403 . S
C2924 C2923 1.403 . S
C2924 C2925 1.404 . S
C2924 C2927 1.539 . S
C2925 C2921 1.408 . S
C2925 C2924 1.404 . S
C2925 H2937 0.930 . S
C2926 C2922 1.524 . S
C2926 H2938 0.956 . S
C2926 H2939 0.961 . S
C2926 H2940 0.961 . S
C2927 C2924 1.539 . S
C2927 H2941 0.958 . S
C2927 H2942 0.961 . S
C2927 H2943 0.960 . S
H2928 C2912 0.931 . S
H2929 C2917 0.929 . S
H2930 C2918 0.960 . S
H2931 C2918 0.962 . S
H2932 C2918 0.960 . S
H2933 C2919 0.961 . S
H2934 C2919 0.961 . S
H2935 C2919 0.961 . S
H2936 C2920 0.931 . S
H2937 C2925 0.930 . S
H2938 C2926 0.956 . S
H2939 C2926 0.961 . S
H2940 C2926 0.961 . S
H2941 C2927 0.958 . S
H2942 C2927 0.961 . S
H2943 C2927 0.960 . S
C2944 C2945 1.391 . S
C2944 C2946 1.394 . S
C2944 H2960 0.931 . S
C2945 C2944 1.391 . S
C2945 C2949 1.376 . S
C2946 C2944 1.394 . S
C2946 C2947 1.369 . S
C2946 C2950 1.531 . S
C2947 C2946 1.369 . S
C2947 C2948 1.410 . S
C2947 C2955 1.503 . S
C2948 C2947 1.410 . S
C2948 C2949 1.392 . S
C2948 C2951 1.511 . S
C2949 C2945 1.376 . S
C2949 C2948 1.392 . S
C2949 H2961 0.929 . S
C2950 C2946 1.531 . S
C2950 H2962 0.960 . S
C2950 H2963 0.962 . S
C2950 H2964 0.960 . S
C2951 C2948 1.511 . S
C2951 H2965 0.961 . S
C2951 H2966 0.961 . S
C2951 H2967 0.961 . S
C2952 C2953 1.370 . S
C2952 C2954 1.363 . S
C2952 H2968 0.931 . S
C2953 C2952 1.370 . S
C2953 C2957 1.408 . S
C2954 C2952 1.363 . S
C2954 C2955 1.370 . S
C2954 C2958 1.524 . S
C2955 C2947 1.503 . S
C2955 C2954 1.370 . S
C2955 C2956 1.403 . S
C2956 C2955 1.403 . S
C2956 C2957 1.404 . S
C2956 C2959 1.539 . S
C2957 C2953 1.408 . S
C2957 C2956 1.404 . S
C2957 H2969 0.930 . S
C2958 C2954 1.524 . S
C2958 H2970 0.956 . S
C2958 H2971 0.961 . S
C2958 H2972 0.961 . S
C2959 C2956 1.539 . S
C2959 H2973 0.958 . S
C2959 H2974 0.961 . S
C2959 H2975 0.960 . S
H2960 C2944 0.931 . S
H2961 C2949 0.929 . S
H2962 C2950 0.960 . S
H2963 C2950 0.962 . S
H2964 C2950 0.960 . S
H2965 C2951 0.961 . S
H2966 C2951 0.961 . S
H2967 C2951 0.961 . S
H2968 C2952 0.931 . S
H2969 C2957 0.930 . S
H2970 C2958 0.956 . S
H2971 C2958 0.961 . S
H2972 C2958 0.961 . S
H2973 C2959 0.958 . S
H2974 C2959 0.961 . S
H2975 C2959 0.960 . S
C2976 C2977 1.391 . S
C2976 C2978 1.394 . S
C2976 H2992 0.931 . S
C2977 C2976 1.391 . S
C2977 C2981 1.376 . S
C2978 C2976 1.394 . S
C2978 C2979 1.369 . S
C2978 C2982 1.531 . S
C2979 C2978 1.369 . S
C2979 C2980 1.410 . S
C2979 C2987 1.503 . S
C2980 C2979 1.410 . S
C2980 C2981 1.392 . S
C2980 C2983 1.511 . S
C2981 C2977 1.376 . S
C2981 C2980 1.392 . S
C2981 H2993 0.929 . S
C2982 C2978 1.531 . S
C2982 H2994 0.960 . S
C2982 H2995 0.962 . S
C2982 H2996 0.960 . S
C2983 C2980 1.511 . S
C2983 H2997 0.961 . S
C2983 H2998 0.961 . S
C2983 H2999 0.961 . S
C2984 C2985 1.370 . S
C2984 C2986 1.363 . S
C2984 H3000 0.931 . S
C2985 C2984 1.370 . S
C2985 C2989 1.408 . S
C2986 C2984 1.363 . S
C2986 C2987 1.370 . S
C2986 C2990 1.524 . S
C2987 C2979 1.503 . S
C2987 C2986 1.370 . S
C2987 C2988 1.403 . S
C2988 C2987 1.403 . S
C2988 C2989 1.404 . S
C2988 C2991 1.539 . S
C2989 C2985 1.408 . S
C2989 C2988 1.404 . S
C2989 H3001 0.930 . S
C2990 C2986 1.524 . S
C2990 H3002 0.956 . S
C2990 H3003 0.961 . S
C2990 H3004 0.961 . S
C2991 C2988 1.539 . S
C2991 H3005 0.958 . S
C2991 H3006 0.961 . S
C2991 H3007 0.960 . S
H2992 C2976 0.931 . S
H2993 C2981 0.929 . S
H2994 C2982 0.960 . S
H2995 C2982 0.962 . S
H2996 C2982 0.960 . S
H2997 C2983 0.961 . S
H2998 C2983 0.961 . S
H2999 C2983 0.961 . S
H3000 C2984 0.931 . S
H3001 C2989 0.930 . S
H3002 C2990 0.956 . S
H3003 C2990 0.961 . S
H3004 C2990 0.961 . S
H3005 C2991 0.958 . S
H3006 C2991 0.961 . S
H3007 C2991 0.960 . S
C3008 C3009 1.391 . S
C3008 C3010 1.394 . S
C3008 H3024 0.931 . S
C3009 C3008 1.391 . S
C3009 C3013 1.376 . S
C3010 C3008 1.394 . S
C3010 C3011 1.369 . S
C3010 C3014 1.531 . S
C3011 C3010 1.369 . S
C3011 C3012 1.410 . S
C3011 C3019 1.503 . S
C3012 C3011 1.410 . S
C3012 C3013 1.392 . S
C3012 C3015 1.511 . S
C3013 C3009 1.376 . S
C3013 C3012 1.392 . S
C3013 H3025 0.929 . S
C3014 C3010 1.531 . S
C3014 H3026 0.960 . S
C3014 H3027 0.962 . S
C3014 H3028 0.960 . S
C3015 C3012 1.511 . S
C3015 H3029 0.961 . S
C3015 H3030 0.961 . S
C3015 H3031 0.961 . S
C3016 C3017 1.370 . S
C3016 C3018 1.363 . S
C3016 H3032 0.931 . S
C3017 C3016 1.370 . S
C3017 C3021 1.408 . S
C3018 C3016 1.363 . S
C3018 C3019 1.370 . S
C3018 C3022 1.524 . S
C3019 C3011 1.503 . S
C3019 C3018 1.370 . S
C3019 C3020 1.403 . S
C3020 C3019 1.403 . S
C3020 C3021 1.404 . S
C3020 C3023 1.539 . S
C3021 C3017 1.408 . S
C3021 C3020 1.404 . S
C3021 H3033 0.930 . S
C3022 C3018 1.524 . S
C3022 H3034 0.956 . S
C3022 H3035 0.961 . S
C3022 H3036 0.961 . S
C3023 C3020 1.539 . S
C3023 H3037 0.958 . S
C3023 H3038 0.961 . S
C3023 H3039 0.960 . S
H3024 C3008 0.931 . S
H3025 C3013 0.929 . S
H3026 C3014 0.960 . S
H3027 C3014 0.962 . S
H3028 C3014 0.960 . S
H3029 C3015 0.961 . S
H3030 C3015 0.961 . S
H3031 C3015 0.961 . S
H3032 C3016 0.931 . S
H3033 C3021 0.930 . S
H3034 C3022 0.956 . S
H3035 C3022 0.961 . S
H3036 C3022 0.961 . S
H3037 C3023 0.958 . S
H3038 C3023 0.961 . S
H3039 C3023 0.960 . S
C3040 C3041 1.391 . S
C3040 C3042 1.394 . S
C3040 H3056 0.931 . S
C3041 C3040 1.391 . S
C3041 C3045 1.376 . S
C3042 C3040 1.394 . S
C3042 C3043 1.369 . S
C3042 C3046 1.531 . S
C3043 C3042 1.369 . S
C3043 C3044 1.410 . S
C3043 C3051 1.503 . S
C3044 C3043 1.410 . S
C3044 C3045 1.392 . S
C3044 C3047 1.511 . S
C3045 C3041 1.376 . S
C3045 C3044 1.392 . S
C3045 H3057 0.929 . S
C3046 C3042 1.531 . S
C3046 H3058 0.960 . S
C3046 H3059 0.962 . S
C3046 H3060 0.960 . S
C3047 C3044 1.511 . S
C3047 H3061 0.961 . S
C3047 H3062 0.961 . S
C3047 H3063 0.961 . S
C3048 C3049 1.370 . S
C3048 C3050 1.363 . S
C3048 H3064 0.931 . S
C3049 C3048 1.370 . S
C3049 C3053 1.408 . S
C3050 C3048 1.363 . S
C3050 C3051 1.370 . S
C3050 C3054 1.524 . S
C3051 C3043 1.503 . S
C3051 C3050 1.370 . S
C3051 C3052 1.403 . S
C3052 C3051 1.403 . S
C3052 C3053 1.404 . S
C3052 C3055 1.539 . S
C3053 C3049 1.408 . S
C3053 C3052 1.404 . S
C3053 H3065 0.930 . S
C3054 C3050 1.524 . S
C3054 H3066 0.956 . S
C3054 H3067 0.961 . S
C3054 H3068 0.961 . S
C3055 C3052 1.539 . S
C3055 H3069 0.958 . S
C3055 H3070 0.961 . S
C3055 H3071 0.960 . S
H3056 C3040 0.931 . S
H3057 C3045 0.929 . S
H3058 C3046 0.960 . S
H3059 C3046 0.962 . S
H3060 C3046 0.960 . S
H3061 C3047 0.961 . S
H3062 C3047 0.961 . S
H3063 C3047 0.961 . S
H3064 C3048 0.931 . S
H3065 C3053 0.930 . S
H3066 C3054 0.956 . S
H3067 C3054 0.961 . S
H3068 C3054 0.961 . S
H3069 C3055 0.958 . S
H3070 C3055 0.961 . S
H3071 C3055 0.960 . S
C3072 C3073 1.391 . S
C3072 C3074 1.394 . S
C3072 H3088 0.931 . S
C3073 C3072 1.391 . S
C3073 C3077 1.376 . S
C3074 C3072 1.394 . S
C3074 C3075 1.369 . S
C3074 C3078 1.531 . S
C3075 C3074 1.369 . S
C3075 C3076 1.410 . S
C3075 C3083 1.503 . S
C3076 C3075 1.410 . S
C3076 C3077 1.392 . S
C3076 C3079 1.511 . S
C3077 C3073 1.376 . S
C3077 C3076 1.392 . S
C3077 H3089 0.929 . S
C3078 C3074 1.531 . S
C3078 H3090 0.960 . S
C3078 H3091 0.962 . S
C3078 H3092 0.960 . S
C3079 C3076 1.511 . S
C3079 H3093 0.961 . S
C3079 H3094 0.961 . S
C3079 H3095 0.961 . S
C3080 C3081 1.370 . S
C3080 C3082 1.363 . S
C3080 H3096 0.931 . S
C3081 C3080 1.370 . S
C3081 C3085 1.408 . S
C3082 C3080 1.363 . S
C3082 C3083 1.370 . S
C3082 C3086 1.524 . S
C3083 C3075 1.503 . S
C3083 C3082 1.370 . S
C3083 C3084 1.403 . S
C3084 C3083 1.403 . S
C3084 C3085 1.404 . S
C3084 C3087 1.539 . S
C3085 C3081 1.408 . S
C3085 C3084 1.404 . S
C3085 H3097 0.930 . S
C3086 C3082 1.524 . S
C3086 H3098 0.956 . S
C3086 H3099 0.961 . S
C3086 H3100 0.961 . S
C3087 C3084 1.539 . S
C3087 H3101 0.958 . S
C3087 H3102 0.961 . S
C3087 H3103 0.960 . S
H3088 C3072 0.931 . S
H3089 C3077 0.929 . S
H3090 C3078 0.960 . S
H3091 C3078 0.962 . S
H3092 C3078 0.960 . S
H3093 C3079 0.961 . S
H3094 C3079 0.961 . S
H3095 C3079 0.961 . S
H3096 C3080 0.931 . S
H3097 C3085 0.930 . S
H3098 C3086 0.956 . S
H3099 C3086 0.961 . S
H3100 C3086 0.961 . S
H3101 C3087 0.958 . S
H3102 C3087 0.961 . S
H3103 C3087 0.960 . S
C3104 C3105 1.391 . S
C3104 C3106 1.394 . S
C3104 H3120 0.931 . S
C3105 C3104 1.391 . S
C3105 C3109 1.376 . S
C3106 C3104 1.394 . S
C3106 C3107 1.369 . S
C3106 C3110 1.531 . S
C3107 C3106 1.369 . S
C3107 C3108 1.410 . S
C3107 C3115 1.503 . S
C3108 C3107 1.410 . S
C3108 C3109 1.392 . S
C3108 C3111 1.511 . S
C3109 C3105 1.376 . S
C3109 C3108 1.392 . S
C3109 H3121 0.929 . S
C3110 C3106 1.531 . S
C3110 H3122 0.960 . S
C3110 H3123 0.962 . S
C3110 H3124 0.960 . S
C3111 C3108 1.511 . S
C3111 H3125 0.961 . S
C3111 H3126 0.961 . S
C3111 H3127 0.961 . S
C3112 C3113 1.370 . S
C3112 C3114 1.363 . S
C3112 H3128 0.931 . S
C3113 C3112 1.370 . S
C3113 C3117 1.408 . S
C3114 C3112 1.363 . S
C3114 C3115 1.370 . S
C3114 C3118 1.524 . S
C3115 C3107 1.503 . S
C3115 C3114 1.370 . S
C3115 C3116 1.403 . S
C3116 C3115 1.403 . S
C3116 C3117 1.404 . S
C3116 C3119 1.539 . S
C3117 C3113 1.408 . S
C3117 C3116 1.404 . S
C3117 H3129 0.930 . S
C3118 C3114 1.524 . S
C3118 H3130 0.956 . S
C3118 H3131 0.961 . S
C3118 H3132 0.961 . S
C3119 C3116 1.539 . S
C3119 H3133 0.958 . S
C3119 H3134 0.961 . S
C3119 H3135 0.960 . S
H3120 C3104 0.931 . S
H3121 C3109 0.929 . S
H3122 C3110 0.960 . S
H3123 C3110 0.962 . S
H3124 C3110 0.960 . S
H3125 C3111 0.961 . S
H3126 C3111 0.961 . S
H3127 C3111 0.961 . S
H3128 C3112 0.931 . S
H3129 C3117 0.930 . S
H3130 C3118 0.956 . S
H3131 C3118 0.961 . S
H3132 C3118 0.961 . S
H3133 C3119 0.958 . S
H3134 C3119 0.961 . S
H3135 C3119 0.960 . S
C3136 C3137 1.391 . S
C3136 C3138 1.394 . S
C3136 H3152 0.931 . S
C3137 C3136 1.391 . S
C3137 C3141 1.376 . S
C3138 C3136 1.394 . S
C3138 C3139 1.369 . S
C3138 C3142 1.531 . S
C3139 C3138 1.369 . S
C3139 C3140 1.410 . S
C3139 C3147 1.503 . S
C3140 C3139 1.410 . S
C3140 C3141 1.392 . S
C3140 C3143 1.511 . S
C3141 C3137 1.376 . S
C3141 C3140 1.392 . S
C3141 H3153 0.929 . S
C3142 C3138 1.531 . S
C3142 H3154 0.960 . S
C3142 H3155 0.962 . S
C3142 H3156 0.960 . S
C3143 C3140 1.511 . S
C3143 H3157 0.961 . S
C3143 H3158 0.961 . S
C3143 H3159 0.961 . S
C3144 C3145 1.370 . S
C3144 C3146 1.363 . S
C3144 H3160 0.931 . S
C3145 C3144 1.370 . S
C3145 C3149 1.408 . S
C3146 C3144 1.363 . S
C3146 C3147 1.370 . S
C3146 C3150 1.524 . S
C3147 C3139 1.503 . S
C3147 C3146 1.370 . S
C3147 C3148 1.403 . S
C3148 C3147 1.403 . S
C3148 C3149 1.404 . S
C3148 C3151 1.539 . S
C3149 C3145 1.408 . S
C3149 C3148 1.404 . S
C3149 H3161 0.930 . S
C3150 C3146 1.524 . S
C3150 H3162 0.956 . S
C3150 H3163 0.961 . S
C3150 H3164 0.961 . S
C3151 C3148 1.539 . S
C3151 H3165 0.958 . S
C3151 H3166 0.961 . S
C3151 H3167 0.960 . S
H3152 C3136 0.931 . S
H3153 C3141 0.929 . S
H3154 C3142 0.960 . S
H3155 C3142 0.962 . S
H3156 C3142 0.960 . S
H3157 C3143 0.961 . S
H3158 C3143 0.961 . S
H3159 C3143 0.961 . S
H3160 C3144 0.931 . S
H3161 C3149 0.930 . S
H3162 C3150 0.956 . S
H3163 C3150 0.961 . S
H3164 C3150 0.961 . S
H3165 C3151 0.958 . S
H3166 C3151 0.961 . S
H3167 C3151 0.960 . S
C3168 C3169 1.391 . S
C3168 C3170 1.394 . S
C3168 H3184 0.931 . S
C3169 C3168 1.391 . S
C3169 C3173 1.376 . S
C3170 C3168 1.394 . S
C3170 C3171 1.369 . S
C3170 C3174 1.531 . S
C3171 C3170 1.369 . S
C3171 C3172 1.410 . S
C3171 C3179 1.503 . S
C3172 C3171 1.410 . S
C3172 C3173 1.392 . S
C3172 C3175 1.511 . S
C3173 C3169 1.376 . S
C3173 C3172 1.392 . S
C3173 H3185 0.929 . S
C3174 C3170 1.531 . S
C3174 H3186 0.960 . S
C3174 H3187 0.962 . S
C3174 H3188 0.960 . S
C3175 C3172 1.511 . S
C3175 H3189 0.961 . S
C3175 H3190 0.961 . S
C3175 H3191 0.961 . S
C3176 C3177 1.370 . S
C3176 C3178 1.363 . S
C3176 H3192 0.931 . S
C3177 C3176 1.370 . S
C3177 C3181 1.408 . S
C3178 C3176 1.363 . S
C3178 C3179 1.370 . S
C3178 C3182 1.524 . S
C3179 C3171 1.503 . S
C3179 C3178 1.370 . S
C3179 C3180 1.403 . S
C3180 C3179 1.403 . S
C3180 C3181 1.404 . S
C3180 C3183 1.539 . S
C3181 C3177 1.408 . S
C3181 C3180 1.404 . S
C3181 H3193 0.930 . S
C3182 C3178 1.524 . S
C3182 H3194 0.956 . S
C3182 H3195 0.961 . S
C3182 H3196 0.961 . S
C3183 C3180 1.539 . S
C3183 H3197 0.958 . S
C3183 H3198 0.961 . S
C3183 H3199 0.960 . S
H3184 C3168 0.931 . S
H3185 C3173 0.929 . S
H3186 C3174 0.960 . S
H3187 C3174 0.962 . S
H3188 C3174 0.960 . S
H3189 C3175 0.961 . S
H3190 C3175 0.961 . S
H3191 C3175 0.961 . S
H3192 C3176 0.931 . S
H3193 C3181 0.930 . S
H3194 C3182 0.956 . S
H3195 C3182 0.961 . S
H3196 C3182 0.961 . S
H3197 C3183 0.958 . S
H3198 C3183 0.961 . S
H3199 C3183 0.960 . S
C3200 C3201 1.391 . S
C3200 C3202 1.394 . S
C3200 H3216 0.931 . S
C3201 C3200 1.391 . S
C3201 C3205 1.376 . S
C3202 C3200 1.394 . S
C3202 C3203 1.369 . S
C3202 C3206 1.531 . S
C3203 C3202 1.369 . S
C3203 C3204 1.410 . S
C3203 C3211 1.503 . S
C3204 C3203 1.410 . S
C3204 C3205 1.392 . S
C3204 C3207 1.511 . S
C3205 C3201 1.376 . S
C3205 C3204 1.392 . S
C3205 H3217 0.929 . S
C3206 C3202 1.531 . S
C3206 H3218 0.960 . S
C3206 H3219 0.962 . S
C3206 H3220 0.960 . S
C3207 C3204 1.511 . S
C3207 H3221 0.961 . S
C3207 H3222 0.961 . S
C3207 H3223 0.961 . S
C3208 C3209 1.370 . S
C3208 C3210 1.363 . S
C3208 H3224 0.931 . S
C3209 C3208 1.370 . S
C3209 C3213 1.408 . S
C3210 C3208 1.363 . S
C3210 C3211 1.370 . S
C3210 C3214 1.524 . S
C3211 C3203 1.503 . S
C3211 C3210 1.370 . S
C3211 C3212 1.403 . S
C3212 C3211 1.403 . S
C3212 C3213 1.404 . S
C3212 C3215 1.539 . S
C3213 C3209 1.408 . S
C3213 C3212 1.404 . S
C3213 H3225 0.930 . S
C3214 C3210 1.524 . S
C3214 H3226 0.956 . S
C3214 H3227 0.961 . S
C3214 H3228 0.961 . S
C3215 C3212 1.539 . S
C3215 H3229 0.958 . S
C3215 H3230 0.961 . S
C3215 H3231 0.960 . S
H3216 C3200 0.931 . S
H3217 C3205 0.929 . S
H3218 C3206 0.960 . S
H3219 C3206 0.962 . S
H3220 C3206 0.960 . S
H3221 C3207 0.961 . S
H3222 C3207 0.961 . S
H3223 C3207 0.961 . S
H3224 C3208 0.931 . S
H3225 C3213 0.930 . S
H3226 C3214 0.956 . S
H3227 C3214 0.961 . S
H3228 C3214 0.961 . S
H3229 C3215 0.958 . S
H3230 C3215 0.961 . S
H3231 C3215 0.960 . S
C3232 C3233 1.391 . S
C3232 C3234 1.394 . S
C3232 H3248 0.931 . S
C3233 C3232 1.391 . S
C3233 C3237 1.376 . S
C3234 C3232 1.394 . S
C3234 C3235 1.369 . S
C3234 C3238 1.531 . S
C3235 C3234 1.369 . S
C3235 C3236 1.410 . S
C3235 C3243 1.503 . S
C3236 C3235 1.410 . S
C3236 C3237 1.392 . S
C3236 C3239 1.511 . S
C3237 C3233 1.376 . S
C3237 C3236 1.392 . S
C3237 H3249 0.929 . S
C3238 C3234 1.531 . S
C3238 H3250 0.960 . S
C3238 H3251 0.962 . S
C3238 H3252 0.960 . S
C3239 C3236 1.511 . S
C3239 H3253 0.961 . S
C3239 H3254 0.961 . S
C3239 H3255 0.961 . S
C3240 C3241 1.370 . S
C3240 C3242 1.363 . S
C3240 H3256 0.931 . S
C3241 C3240 1.370 . S
C3241 C3245 1.408 . S
C3242 C3240 1.363 . S
C3242 C3243 1.370 . S
C3242 C3246 1.524 . S
C3243 C3235 1.503 . S
C3243 C3242 1.370 . S
C3243 C3244 1.403 . S
C3244 C3243 1.403 . S
C3244 C3245 1.404 . S
C3244 C3247 1.539 . S
C3245 C3241 1.408 . S
C3245 C3244 1.404 . S
C3245 H3257 0.930 . S
C3246 C3242 1.524 . S
C3246 H3258 0.956 . S
C3246 H3259 0.961 . S
C3246 H3260 0.961 . S
C3247 C3244 1.539 . S
C3247 H3261 0.958 . S
C3247 H3262 0.961 . S
C3247 H3263 0.960 . S
H3248 C3232 0.931 . S
H3249 C3237 0.929 . S
H3250 C3238 0.960 . S
H3251 C3238 0.962 . S
H3252 C3238 0.960 . S
H3253 C3239 0.961 . S
H3254 C3239 0.961 . S
H3255 C3239 0.961 . S
H3256 C3240 0.931 . S
H3257 C3245 0.930 . S
H3258 C3246 0.956 . S
H3259 C3246 0.961 . S
H3260 C3246 0.961 . S
H3261 C3247 0.958 . S
H3262 C3247 0.961 . S
H3263 C3247 0.960 . S
C3264 C3265 1.391 . S
C3264 C3266 1.394 . S
C3264 H3280 0.931 . S
C3265 C3264 1.391 . S
C3265 C3269 1.376 . S
C3266 C3264 1.394 . S
C3266 C3267 1.369 . S
C3266 C3270 1.531 . S
C3267 C3266 1.369 . S
C3267 C3268 1.410 . S
C3267 C3275 1.503 . S
C3268 C3267 1.410 . S
C3268 C3269 1.392 . S
C3268 C3271 1.511 . S
C3269 C3265 1.376 . S
C3269 C3268 1.392 . S
C3269 H3281 0.929 . S
C3270 C3266 1.531 . S
C3270 H3282 0.960 . S
C3270 H3283 0.962 . S
C3270 H3284 0.960 . S
C3271 C3268 1.511 . S
C3271 H3285 0.961 . S
C3271 H3286 0.961 . S
C3271 H3287 0.961 . S
C3272 C3273 1.370 . S
C3272 C3274 1.363 . S
C3272 H3288 0.931 . S
C3273 C3272 1.370 . S
C3273 C3277 1.408 . S
C3274 C3272 1.363 . S
C3274 C3275 1.370 . S
C3274 C3278 1.524 . S
C3275 C3267 1.503 . S
C3275 C3274 1.370 . S
C3275 C3276 1.403 . S
C3276 C3275 1.403 . S
C3276 C3277 1.404 . S
C3276 C3279 1.539 . S
C3277 C3273 1.408 . S
C3277 C3276 1.404 . S
C3277 H3289 0.930 . S
C3278 C3274 1.524 . S
C3278 H3290 0.956 . S
C3278 H3291 0.961 . S
C3278 H3292 0.961 . S
C3279 C3276 1.539 . S
C3279 H3293 0.958 . S
C3279 H3294 0.961 . S
C3279 H3295 0.960 . S
H3280 C3264 0.931 . S
H3281 C3269 0.929 . S
H3282 C3270 0.960 . S
H3283 C3270 0.962 . S
H3284 C3270 0.960 . S
H3285 C3271 0.961 . S
H3286 C3271 0.961 . S
H3287 C3271 0.961 . S
H3288 C3272 0.931 . S
H3289 C3277 0.930 . S
H3290 C3278 0.956 . S
H3291 C3278 0.961 . S
H3292 C3278 0.961 . S
H3293 C3279 0.958 . S
H3294 C3279 0.961 . S
H3295 C3279 0.960 . S
C3296 C3297 1.391 . S
C3296 C3298 1.394 . S
C3296 H3312 0.931 . S
C3297 C3296 1.391 . S
C3297 C3301 1.376 . S
C3298 C3296 1.394 . S
C3298 C3299 1.369 . S
C3298 C3302 1.531 . S
C3299 C3298 1.369 . S
C3299 C3300 1.410 . S
C3299 C3307 1.503 . S
C3300 C3299 1.410 . S
C3300 C3301 1.392 . S
C3300 C3303 1.511 . S
C3301 C3297 1.376 . S
C3301 C3300 1.392 . S
C3301 H3313 0.929 . S
C3302 C3298 1.531 . S
C3302 H3314 0.960 . S
C3302 H3315 0.962 . S
C3302 H3316 0.960 . S
C3303 C3300 1.511 . S
C3303 H3317 0.961 . S
C3303 H3318 0.961 . S
C3303 H3319 0.961 . S
C3304 C3305 1.370 . S
C3304 C3306 1.363 . S
C3304 H3320 0.931 . S
C3305 C3304 1.370 . S
C3305 C3309 1.408 . S
C3306 C3304 1.363 . S
C3306 C3307 1.370 . S
C3306 C3310 1.524 . S
C3307 C3299 1.503 . S
C3307 C3306 1.370 . S
C3307 C3308 1.403 . S
C3308 C3307 1.403 . S
C3308 C3309 1.404 . S
C3308 C3311 1.539 . S
C3309 C3305 1.408 . S
C3309 C3308 1.404 . S
C3309 H3321 0.930 . S
C3310 C3306 1.524 . S
C3310 H3322 0.956 . S
C3310 H3323 0.961 . S
C3310 H3324 0.961 . S
C3311 C3308 1.539 . S
C3311 H3325 0.958 . S
C3311 H3326 0.961 . S
C3311 H3327 0.960 . S
H3312 C3296 0.931 . S
H3313 C3301 0.929 . S
H3314 C3302 0.960 . S
H3315 C3302 0.962 . S
H3316 C3302 0.960 . S
H3317 C3303 0.961 . S
H3318 C3303 0.961 . S
H3319 C3303 0.961 . S
H3320 C3304 0.931 . S
H3321 C3309 0.930 . S
H3322 C3310 0.956 . S
H3323 C3310 0.961 . S
H3324 C3310 0.961 . S
H3325 C3311 0.958 . S
H3326 C3311 0.961 . S
H3327 C3311 0.960 . S
C3328 C3329 1.391 . S
C3328 C3330 1.394 . S
C3328 H3344 0.931 . S
C3329 C3328 1.391 . S
C3329 C3333 1.376 . S
C3330 C3328 1.394 . S
C3330 C3331 1.369 . S
C3330 C3334 1.531 . S
C3331 C3330 1.369 . S
C3331 C3332 1.410 . S
C3331 C3339 1.503 . S
C3332 C3331 1.410 . S
C3332 C3333 1.392 . S
C3332 C3335 1.511 . S
C3333 C3329 1.376 . S
C3333 C3332 1.392 . S
C3333 H3345 0.929 . S
C3334 C3330 1.531 . S
C3334 H3346 0.960 . S
C3334 H3347 0.962 . S
C3334 H3348 0.960 . S
C3335 C3332 1.511 . S
C3335 H3349 0.961 . S
C3335 H3350 0.961 . S
C3335 H3351 0.961 . S
C3336 C3337 1.370 . S
C3336 C3338 1.363 . S
C3336 H3352 0.931 . S
C3337 C3336 1.370 . S
C3337 C3341 1.408 . S
C3338 C3336 1.363 . S
C3338 C3339 1.370 . S
C3338 C3342 1.524 . S
C3339 C3331 1.503 . S
C3339 C3338 1.370 . S
C3339 C3340 1.403 . S
C3340 C3339 1.403 . S
C3340 C3341 1.404 . S
C3340 C3343 1.539 . S
C3341 C3337 1.408 . S
C3341 C3340 1.404 . S
C3341 H3353 0.930 . S
C3342 C3338 1.524 . S
C3342 H3354 0.956 . S
C3342 H3355 0.961 . S
C3342 H3356 0.961 . S
C3343 C3340 1.539 . S
C3343 H3357 0.958 . S
C3343 H3358 0.961 . S
C3343 H3359 0.960 . S
H3344 C3328 0.931 . S
H3345 C3333 0.929 . S
H3346 C3334 0.960 . S
H3347 C3334 0.962 . S
H3348 C3334 0.960 . S
H3349 C3335 0.961 . S
H3350 C3335 0.961 . S
H3351 C3335 0.961 . S
H3352 C3336 0.931 . S
H3353 C3341 0.930 . S
H3354 C3342 0.956 . S
H3355 C3342 0.961 . S
H3356 C3342 0.961 . S
H3357 C3343 0.958 . S
H3358 C3343 0.961 . S
H3359 C3343 0.960 . S
C3360 C3361 1.391 . S
C3360 C3362 1.394 . S
C3360 H3376 0.931 . S
C3361 C3360 1.391 . S
C3361 C3365 1.376 . S
C3362 C3360 1.394 . S
C3362 C3363 1.369 . S
C3362 C3366 1.531 . S
C3363 C3362 1.369 . S
C3363 C3364 1.410 . S
C3363 C3371 1.503 . S
C3364 C3363 1.410 . S
C3364 C3365 1.392 . S
C3364 C3367 1.511 . S
C3365 C3361 1.376 . S
C3365 C3364 1.392 . S
C3365 H3377 0.929 . S
C3366 C3362 1.531 . S
C3366 H3378 0.960 . S
C3366 H3379 0.962 . S
C3366 H3380 0.960 . S
C3367 C3364 1.511 . S
C3367 H3381 0.961 . S
C3367 H3382 0.961 . S
C3367 H3383 0.961 . S
C3368 C3369 1.370 . S
C3368 C3370 1.363 . S
C3368 H3384 0.931 . S
C3369 C3368 1.370 . S
C3369 C3373 1.408 . S
C3370 C3368 1.363 . S
C3370 C3371 1.370 . S
C3370 C3374 1.524 . S
C3371 C3363 1.503 . S
C3371 C3370 1.370 . S
C3371 C3372 1.403 . S
C3372 C3371 1.403 . S
C3372 C3373 1.404 . S
C3372 C3375 1.539 . S
C3373 C3369 1.408 . S
C3373 C3372 1.404 . S
C3373 H3385 0.930 . S
C3374 C3370 1.524 . S
C3374 H3386 0.956 . S
C3374 H3387 0.961 . S
C3374 H3388 0.961 . S
C3375 C3372 1.539 . S
C3375 H3389 0.958 . S
C3375 H3390 0.961 . S
C3375 H3391 0.960 . S
H3376 C3360 0.931 . S
H3377 C3365 0.929 . S
H3378 C3366 0.960 . S
H3379 C3366 0.962 . S
H3380 C3366 0.960 . S
H3381 C3367 0.961 . S
H3382 C3367 0.961 . S
H3383 C3367 0.961 . S
H3384 C3368 0.931 . S
H3385 C3373 0.930 . S
H3386 C3374 0.956 . S
H3387 C3374 0.961 . S
H3388 C3374 0.961 . S
H3389 C3375 0.958 . S
H3390 C3375 0.961 . S
H3391 C3375 0.960 . S
C3392 C3393 1.391 . S
C3392 C3394 1.394 . S
C3392 H3408 0.931 . S
C3393 C3392 1.391 . S
C3393 C3397 1.376 . S
C3394 C3392 1.394 . S
C3394 C3395 1.369 . S
C3394 C3398 1.531 . S
C3395 C3394 1.369 . S
C3395 C3396 1.410 . S
C3395 C3403 1.503 . S
C3396 C3395 1.410 . S
C3396 C3397 1.392 . S
C3396 C3399 1.511 . S
C3397 C3393 1.376 . S
C3397 C3396 1.392 . S
C3397 H3409 0.929 . S
C3398 C3394 1.531 . S
C3398 H3410 0.960 . S
C3398 H3411 0.962 . S
C3398 H3412 0.960 . S
C3399 C3396 1.511 . S
C3399 H3413 0.961 . S
C3399 H3414 0.961 . S
C3399 H3415 0.961 . S
C3400 C3401 1.370 . S
C3400 C3402 1.363 . S
C3400 H3416 0.931 . S
C3401 C3400 1.370 . S
C3401 C3405 1.408 . S
C3402 C3400 1.363 . S
C3402 C3403 1.370 . S
C3402 C3406 1.524 . S
C3403 C3395 1.503 . S
C3403 C3402 1.370 . S
C3403 C3404 1.403 . S
C3404 C3403 1.403 . S
C3404 C3405 1.404 . S
C3404 C3407 1.539 . S
C3405 C3401 1.408 . S
C3405 C3404 1.404 . S
C3405 H3417 0.930 . S
C3406 C3402 1.524 . S
C3406 H3418 0.956 . S
C3406 H3419 0.961 . S
C3406 H3420 0.961 . S
C3407 C3404 1.539 . S
C3407 H3421 0.958 . S
C3407 H3422 0.961 . S
C3407 H3423 0.960 . S
H3408 C3392 0.931 . S
H3409 C3397 0.929 . S
H3410 C3398 0.960 . S
H3411 C3398 0.962 . S
H3412 C3398 0.960 . S
H3413 C3399 0.961 . S
H3414 C3399 0.961 . S
H3415 C3399 0.961 . S
H3416 C3400 0.931 . S
H3417 C3405 0.930 . S
H3418 C3406 0.956 . S
H3419 C3406 0.961 . S
H3420 C3406 0.961 . S
H3421 C3407 0.958 . S
H3422 C3407 0.961 . S
H3423 C3407 0.960 . S
C3424 C3425 1.391 . S
C3424 C3426 1.394 . S
C3424 H3440 0.931 . S
C3425 C3424 1.391 . S
C3425 C3429 1.376 . S
C3426 C3424 1.394 . S
C3426 C3427 1.369 . S
C3426 C3430 1.531 . S
C3427 C3426 1.369 . S
C3427 C3428 1.410 . S
C3427 C3435 1.503 . S
C3428 C3427 1.410 . S
C3428 C3429 1.392 . S
C3428 C3431 1.511 . S
C3429 C3425 1.376 . S
C3429 C3428 1.392 . S
C3429 H3441 0.929 . S
C3430 C3426 1.531 . S
C3430 H3442 0.960 . S
C3430 H3443 0.962 . S
C3430 H3444 0.960 . S
C3431 C3428 1.511 . S
C3431 H3445 0.961 . S
C3431 H3446 0.961 . S
C3431 H3447 0.961 . S
C3432 C3433 1.370 . S
C3432 C3434 1.363 . S
C3432 H3448 0.931 . S
C3433 C3432 1.370 . S
C3433 C3437 1.408 . S
C3434 C3432 1.363 . S
C3434 C3435 1.370 . S
C3434 C3438 1.524 . S
C3435 C3427 1.503 . S
C3435 C3434 1.370 . S
C3435 C3436 1.403 . S
C3436 C3435 1.403 . S
C3436 C3437 1.404 . S
C3436 C3439 1.539 . S
C3437 C3433 1.408 . S
C3437 C3436 1.404 . S
C3437 H3449 0.930 . S
C3438 C3434 1.524 . S
C3438 H3450 0.956 . S
C3438 H3451 0.961 . S
C3438 H3452 0.961 . S
C3439 C3436 1.539 . S
C3439 H3453 0.958 . S
C3439 H3454 0.961 . S
C3439 H3455 0.960 . S
H3440 C3424 0.931 . S
H3441 C3429 0.929 . S
H3442 C3430 0.960 . S
H3443 C3430 0.962 . S
H3444 C3430 0.960 . S
H3445 C3431 0.961 . S
H3446 C3431 0.961 . S
H3447 C3431 0.961 . S
H3448 C3432 0.931 . S
H3449 C3437 0.930 . S
H3450 C3438 0.956 . S
H3451 C3438 0.961 . S
H3452 C3438 0.961 . S
H3453 C3439 0.958 . S
H3454 C3439 0.961 . S
H3455 C3439 0.960 . S
C3456 C3457 1.391 . S
C3456 C3458 1.394 . S
C3456 H3472 0.931 . S
C3457 C3456 1.391 . S
C3457 C3461 1.376 . S
C3458 C3456 1.394 . S
C3458 C3459 1.369 . S
C3458 C3462 1.531 . S
C3459 C3458 1.369 . S
C3459 C3460 1.410 . S
C3459 C3467 1.443 1_655 S
C3460 C3459 1.410 . S
C3460 C3461 1.392 . S
C3460 C3463 1.511 . S
C3461 C3457 1.376 . S
C3461 C3460 1.392 . S
C3461 H3473 0.929 . S
C3462 C3458 1.531 . S
C3462 H3474 0.960 . S
C3462 H3475 0.962 . S
C3462 H3476 0.960 . S
C3463 C3460 1.511 . S
C3463 H3477 0.961 . S
C3463 H3478 0.961 . S
C3463 H3479 0.961 . S
C3464 C3465 1.370 . S
C3464 C3466 1.363 . S
C3464 H3480 0.931 . S
C3465 C3464 1.370 . S
C3465 C3469 1.408 . S
C3466 C3464 1.363 . S
C3466 C3467 1.397 . S
C3466 C3470 1.524 1_455 S
C3467 C3459 1.443 1_455 S
C3467 C3466 1.397 . S
C3467 C3468 1.439 . S
C3468 C3467 1.439 . S
C3468 C3469 1.404 . S
C3468 C3471 1.539 . S
C3469 C3465 1.408 . S
C3469 C3468 1.404 . S
C3469 H3481 0.930 . S
C3470 C3466 1.524 1_655 S
C3470 H3482 0.956 . S
C3470 H3483 0.961 . S
C3470 H3484 0.961 1_655 S
C3471 C3468 1.539 . S
C3471 H3485 0.958 . S
C3471 H3486 0.961 . S
C3471 H3487 0.960 1_455 S
H3472 C3456 0.931 . S
H3473 C3461 0.929 . S
H3474 C3462 0.960 . S
H3475 C3462 0.962 . S
H3476 C3462 0.960 . S
H3477 C3463 0.961 . S
H3478 C3463 0.961 . S
H3479 C3463 0.961 . S
H3480 C3464 0.931 . S
H3481 C3469 0.930 . S
H3482 C3470 0.956 . S
H3483 C3470 0.961 . S
H3484 C3470 0.961 1_455 S
H3485 C3471 0.958 . S
H3486 C3471 0.961 . S
H3487 C3471 0.960 1_655 S
C3488 C3489 1.391 . S
C3488 C3490 1.394 . S
C3488 H3504 0.931 . S
C3489 C3488 1.391 . S
C3489 C3493 1.376 . S
C3490 C3488 1.394 . S
C3490 C3491 1.369 . S
C3490 C3494 1.531 . S
C3491 C3490 1.369 . S
C3491 C3492 1.410 . S
C3491 C3499 1.503 1_545 S
C3492 C3491 1.410 . S
C3492 C3493 1.392 . S
C3492 C3495 1.511 . S
C3493 C3489 1.376 . S
C3493 C3492 1.392 . S
C3493 H3505 0.929 . S
C3494 C3490 1.531 . S
C3494 H3506 0.960 1_545 S
C3494 H3507 0.962 . S
C3494 H3508 0.960 . S
C3495 C3492 1.511 . S
C3495 H3509 0.961 . S
C3495 H3510 0.961 1_545 S
C3495 H3511 0.961 . S
C3496 C3497 1.370 . S
C3496 C3498 1.363 . S
C3496 H3512 0.931 . S
C3497 C3496 1.370 . S
C3497 C3501 1.408 . S
C3498 C3496 1.363 . S
C3498 C3499 1.370 . S
C3498 C3502 1.524 . S
C3499 C3491 1.503 1_565 S
C3499 C3498 1.370 . S
C3499 C3500 1.403 . S
C3500 C3499 1.403 . S
C3500 C3501 1.404 . S
C3500 C3503 1.539 . S
C3501 C3497 1.408 . S
C3501 C3500 1.404 . S
C3501 H3513 0.930 . S
C3502 C3498 1.524 . S
C3502 H3514 1.017 . S
C3502 H3515 0.956 . S
C3502 H3516 0.961 . S
C3503 C3500 1.539 . S
C3503 H3517 0.958 . S
C3503 H3518 0.961 . S
C3503 H3519 1.058 . S
H3504 C3488 0.931 . S
H3505 C3493 0.929 . S
H3506 C3494 0.960 1_565 S
H3507 C3494 0.962 . S
H3508 C3494 0.960 . S
H3509 C3495 0.961 . S
H3510 C3495 0.961 1_565 S
H3511 C3495 0.961 . S
H3512 C3496 0.931 . S
H3513 C3501 0.930 . S
H3514 C3502 1.017 . S
H3515 C3502 0.956 . S
H3516 C3502 0.961 . S
H3517 C3503 0.958 . S
H3518 C3503 0.961 . S
H3519 C3503 1.058 . S
C3520 C3521 1.391 . S
C3520 C3522 1.394 . S
C3520 H3536 0.931 . S
C3521 C3520 1.391 . S
C3521 C3525 1.376 . S
C3522 C3520 1.394 . S
C3522 C3523 1.369 . S
C3522 C3526 1.531 . S
C3523 C3522 1.369 . S
C3523 C3524 1.410 . S
C3523 C3531 1.550 . S
C3524 C3523 1.410 . S
C3524 C3525 1.392 . S
C3524 C3527 1.511 . S
C3525 C3521 1.376 . S
C3525 C3524 1.392 . S
C3525 H3537 0.929 . S
C3526 C3522 1.531 . S
C3526 H3538 0.960 . S
C3526 H3539 0.962 . S
C3526 H3540 0.960 . S
C3527 C3524 1.511 . S
C3527 H3541 0.961 . S
C3527 H3542 0.961 . S
C3527 H3543 0.961 . S
C3528 C3529 1.370 . S
C3528 C3530 1.363 . S
C3528 H3544 0.931 . S
C3529 C3528 1.370 . S
C3529 C3533 1.408 . S
C3530 C3528 1.363 . S
C3530 C3531 1.350 1_455 S
C3530 C3534 1.524 1_455 S
C3531 C3523 1.550 . S
C3531 C3530 1.350 1_655 S
C3531 C3532 1.378 1_655 S
C3532 C3531 1.378 1_455 S
C3532 C3533 1.404 . S
C3532 C3535 1.574 . S
C3533 C3529 1.408 . S
C3533 C3532 1.404 . S
C3533 H3545 0.930 . S
C3534 C3530 1.524 1_655 S
C3534 H3546 0.956 . S
C3534 H3547 0.961 . S
C3534 H3548 0.961 1_655 S
C3535 C3532 1.574 . S
C3535 H3549 0.947 1_455 S
C3535 H3550 1.012 . S
C3535 H3551 0.891 1_455 S
H3536 C3520 0.931 . S
H3537 C3525 0.929 . S
H3538 C3526 0.960 . S
H3539 C3526 0.962 . S
H3540 C3526 0.960 . S
H3541 C3527 0.961 . S
H3542 C3527 0.961 . S
H3543 C3527 0.961 . S
H3544 C3528 0.931 . S
H3545 C3533 0.930 . S
H3546 C3534 0.956 . S
H3547 C3534 0.961 . S
H3548 C3534 0.961 1_455 S
H3549 C3535 0.947 1_655 S
H3550 C3535 1.012 . S
H3551 C3535 0.891 1_655 S
C3552 C3553 1.391 . S
C3552 C3554 1.394 . S
C3552 H3568 0.931 . S
C3553 C3552 1.391 . S
C3553 C3557 1.376 . S
C3554 C3552 1.394 . S
C3554 C3555 1.369 . S
C3554 C3558 1.531 . S
C3555 C3554 1.369 . S
C3555 C3556 1.410 . S
C3555 C3563 1.503 1_545 S
C3556 C3555 1.410 . S
C3556 C3557 1.392 . S
C3556 C3559 1.511 . S
C3557 C3553 1.376 . S
C3557 C3556 1.392 . S
C3557 H3569 0.929 . S
C3558 C3554 1.531 . S
C3558 H3570 0.935 1_545 S
C3558 H3571 0.962 . S
C3558 H3572 0.960 . S
C3559 C3556 1.511 . S
C3559 H3573 0.961 . S
C3559 H3574 0.946 1_545 S
C3559 H3575 0.961 . S
C3560 C3561 1.370 . S
C3560 C3562 1.363 . S
C3560 H3576 0.931 . S
C3561 C3560 1.370 . S
C3561 C3565 1.408 . S
C3562 C3560 1.363 . S
C3562 C3563 1.370 . S
C3562 C3566 1.524 . S
C3563 C3555 1.503 1_565 S
C3563 C3562 1.370 . S
C3563 C3564 1.403 . S
C3564 C3563 1.403 . S
C3564 C3565 1.404 . S
C3564 C3567 1.539 . S
C3565 C3561 1.408 . S
C3565 C3564 1.404 . S
C3565 H3577 0.930 . S
C3566 C3562 1.524 . S
C3566 H3578 0.957 1_565 S
C3566 H3579 0.961 1_565 S
C3566 H3580 0.961 . S
C3567 C3564 1.539 . S
C3567 H3581 0.958 . S
C3567 H3582 0.961 . S
C3567 H3583 0.890 1_565 S
H3568 C3552 0.931 . S
H3569 C3557 0.929 . S
H3570 C3558 0.935 1_565 S
H3571 C3558 0.962 . S
H3572 C3558 0.960 . S
H3573 C3559 0.961 . S
H3574 C3559 0.946 1_565 S
H3575 C3559 0.961 . S
H3576 C3560 0.931 . S
H3577 C3565 0.930 . S
H3578 C3566 0.957 1_545 S
H3579 C3566 0.961 1_545 S
H3580 C3566 0.961 . S
H3581 C3567 0.958 . S
H3582 C3567 0.961 . S
H3583 C3567 0.890 1_545 S
C3584 C3585 1.391 . S
C3584 C3586 1.394 . S
C3584 H3600 0.931 . S
C3585 C3584 1.391 . S
C3585 C3589 1.376 . S
C3586 C3584 1.394 . S
C3586 C3587 1.342 1_455 S
C3586 C3590 1.504 1_455 S
C3587 C3586 1.342 1_655 S
C3587 C3588 1.386 1_655 S
C3587 C3595 1.555 . S
C3588 C3587 1.386 1_455 S
C3588 C3589 1.392 . S
C3588 C3591 1.511 1_455 S
C3589 C3585 1.376 . S
C3589 C3588 1.392 . S
C3589 H3601 0.929 . S
C3590 C3586 1.504 1_655 S
C3590 H3602 1.011 . S
C3590 H3603 0.976 . S
C3590 H3604 0.927 1_655 S
C3591 C3588 1.511 1_655 S
C3591 H3605 0.961 1_655 S
C3591 H3606 0.961 . S
C3591 H3607 0.961 . S
C3592 C3593 1.370 . S
C3592 C3594 1.363 . S
C3592 H3608 0.931 . S
C3593 C3592 1.370 . S
C3593 C3597 1.408 . S
C3594 C3592 1.363 . S
C3594 C3595 1.370 . S
C3594 C3598 1.524 . S
C3595 C3587 1.555 . S
C3595 C3594 1.370 . S
C3595 C3596 1.403 . S
C3596 C3595 1.403 . S
C3596 C3597 1.404 . S
C3596 C3599 1.539 . S
C3597 C3593 1.408 . S
C3597 C3596 1.404 . S
C3597 H3609 0.930 . S
C3598 C3594 1.524 . S
C3598 H3610 0.956 . S
C3598 H3611 0.961 . S
C3598 H3612 0.961 . S
C3599 C3596 1.539 . S
C3599 H3613 0.958 . S
C3599 H3614 0.961 . S
C3599 H3615 0.960 . S
H3600 C3584 0.931 . S
H3601 C3589 0.929 . S
H3602 C3590 1.011 . S
H3603 C3590 0.976 . S
H3604 C3590 0.927 1_455 S
H3605 C3591 0.961 1_455 S
H3606 C3591 0.961 . S
H3607 C3591 0.961 . S
H3608 C3592 0.931 . S
H3609 C3597 0.930 . S
H3610 C3598 0.956 . S
H3611 C3598 0.961 . S
H3612 C3598 0.961 . S
H3613 C3599 0.958 . S
H3614 C3599 0.961 . S
H3615 C3599 0.960 . S
C3616 C3617 1.391 . S
C3616 C3618 1.394 . S
C3616 H3632 0.931 . S
C3617 C3616 1.391 . S
C3617 C3621 1.376 . S
C3618 C3616 1.394 . S
C3618 C3619 1.369 . S
C3618 C3622 1.531 . S
C3619 C3618 1.369 . S
C3619 C3620 1.410 . S
C3619 C3627 1.503 1_565 S
C3620 C3619 1.410 . S
C3620 C3621 1.392 . S
C3620 C3623 1.511 . S
C3621 C3617 1.376 . S
C3621 C3620 1.392 . S
C3621 H3633 0.929 . S
C3622 C3618 1.531 . S
C3622 H3634 0.960 1_565 S
C3622 H3635 0.962 . S
C3622 H3636 0.960 . S
C3623 C3620 1.511 . S
C3623 H3637 0.961 . S
C3623 H3638 0.961 1_565 S
C3623 H3639 0.961 . S
C3624 C3625 1.370 . S
C3624 C3626 1.363 . S
C3624 H3640 0.931 . S
C3625 C3624 1.370 . S
C3625 C3629 1.408 . S
C3626 C3624 1.363 . S
C3626 C3627 1.370 . S
C3626 C3630 1.524 . S
C3627 C3619 1.503 1_545 S
C3627 C3626 1.370 . S
C3627 C3628 1.403 . S
C3628 C3627 1.403 . S
C3628 C3629 1.404 . S
C3628 C3631 1.539 . S
C3629 C3625 1.408 . S
C3629 C3628 1.404 . S
C3629 H3641 0.930 . S
C3630 C3626 1.524 . S
C3630 H3642 0.956 . S
C3630 H3643 0.963 . S
C3630 H3644 0.961 . S
C3631 C3628 1.539 . S
C3631 H3645 0.958 . S
C3631 H3646 0.961 . S
C3631 H3647 1.031 . S
H3632 C3616 0.931 . S
H3633 C3621 0.929 . S
H3634 C3622 0.960 1_545 S
H3635 C3622 0.962 . S
H3636 C3622 0.960 . S
H3637 C3623 0.961 . S
H3638 C3623 0.961 1_545 S
H3639 C3623 0.961 . S
H3640 C3624 0.931 . S
H3641 C3629 0.930 . S
H3642 C3630 0.956 . S
H3643 C3630 0.963 . S
H3644 C3630 0.961 . S
H3645 C3631 0.958 . S
H3646 C3631 0.961 . S
H3647 C3631 1.031 . S
C3648 C3649 1.391 . S
C3648 C3650 1.394 . S
C3648 H3664 0.931 . S
C3649 C3648 1.391 . S
C3649 C3653 1.376 . S
C3650 C3648 1.394 . S
C3650 C3651 1.369 . S
C3650 C3654 1.531 . S
C3651 C3650 1.369 . S
C3651 C3652 1.410 . S
C3651 C3659 1.442 1_655 S
C3652 C3651 1.410 . S
C3652 C3653 1.392 . S
C3652 C3655 1.511 . S
C3653 C3649 1.376 . S
C3653 C3652 1.392 . S
C3653 H3665 0.929 . S
C3654 C3650 1.531 . S
C3654 H3666 0.960 . S
C3654 H3667 0.962 . S
C3654 H3668 0.960 . S
C3655 C3652 1.511 . S
C3655 H3669 0.961 . S
C3655 H3670 0.961 . S
C3655 H3671 0.961 . S
C3656 C3657 1.370 . S
C3656 C3658 1.363 . S
C3656 H3672 0.931 . S
C3657 C3656 1.370 . S
C3657 C3661 1.408 . S
C3658 C3656 1.363 . S
C3658 C3659 1.396 . S
C3658 C3662 1.524 1_455 S
C3659 C3651 1.442 1_455 S
C3659 C3658 1.396 . S
C3659 C3660 1.440 . S
C3660 C3659 1.440 . S
C3660 C3661 1.404 . S
C3660 C3663 1.539 . S
C3661 C3657 1.408 . S
C3661 C3660 1.404 . S
C3661 H3673 0.930 . S
C3662 C3658 1.524 1_655 S
C3662 H3674 0.956 . S
C3662 H3675 0.961 . S
C3662 H3676 0.961 1_655 S
C3663 C3660 1.539 . S
C3663 H3677 0.958 . S
C3663 H3678 0.961 . S
C3663 H3679 0.960 1_455 S
H3664 C3648 0.931 . S
H3665 C3653 0.929 . S
H3666 C3654 0.960 . S
H3667 C3654 0.962 . S
H3668 C3654 0.960 . S
H3669 C3655 0.961 . S
H3670 C3655 0.961 . S
H3671 C3655 0.961 . S
H3672 C3656 0.931 . S
H3673 C3661 0.930 . S
H3674 C3662 0.956 . S
H3675 C3662 0.961 . S
H3676 C3662 0.961 1_455 S
H3677 C3663 0.958 . S
H3678 C3663 0.961 . S
H3679 C3663 0.960 1_655 S
C3680 C3681 1.391 . S
C3680 C3682 1.394 . S
C3680 H3696 0.931 . S
C3681 C3680 1.391 . S
C3681 C3685 1.376 . S
C3682 C3680 1.394 . S
C3682 C3683 1.369 . S
C3682 C3686 1.531 . S
C3683 C3682 1.369 . S
C3683 C3684 1.410 . S
C3683 C3691 1.503 1_565 S
C3684 C3683 1.410 . S
C3684 C3685 1.392 . S
C3684 C3687 1.511 . S
C3685 C3681 1.376 . S
C3685 C3684 1.392 . S
C3685 H3697 0.929 . S
C3686 C3682 1.531 . S
C3686 H3698 0.952 1_565 S
C3686 H3699 0.962 . S
C3686 H3700 0.960 . S
C3687 C3684 1.511 . S
C3687 H3701 0.961 . S
C3687 H3702 0.909 1_565 S
C3687 H3703 0.961 . S
C3688 C3689 1.370 . S
C3688 C3690 1.363 . S
C3688 H3704 0.931 . S
C3689 C3688 1.370 . S
C3689 C3693 1.408 . S
C3690 C3688 1.363 . S
C3690 C3691 1.370 . S
C3690 C3694 1.524 . S
C3691 C3683 1.503 1_545 S
C3691 C3690 1.370 . S
C3691 C3692 1.403 . S
C3692 C3691 1.403 . S
C3692 C3693 1.404 . S
C3692 C3695 1.539 . S
C3693 C3689 1.408 . S
C3693 C3692 1.404 . S
C3693 H3705 0.930 . S
C3694 C3690 1.524 . S
C3694 H3706 0.937 1_545 S
C3694 H3707 0.961 1_545 S
C3694 H3708 0.961 . S
C3695 C3692 1.539 . S
C3695 H3709 0.958 . S
C3695 H3710 0.961 . S
C3695 H3711 0.934 1_545 S
H3696 C3680 0.931 . S
H3697 C3685 0.929 . S
H3698 C3686 0.952 1_545 S
H3699 C3686 0.962 . S
H3700 C3686 0.960 . S
H3701 C3687 0.961 . S
H3702 C3687 0.909 1_545 S
H3703 C3687 0.961 . S
H3704 C3688 0.931 . S
H3705 C3693 0.930 . S
H3706 C3694 0.937 1_565 S
H3707 C3694 0.961 1_565 S
H3708 C3694 0.961 . S
H3709 C3695 0.958 . S
H3710 C3695 0.961 . S
H3711 C3695 0.934 1_565 S
C3712 C3713 1.391 . S
C3712 C3714 1.394 . S
C3712 H3728 0.931 . S
C3713 C3712 1.391 . S
C3713 C3717 1.376 . S
C3714 C3712 1.394 . S
C3714 C3715 1.369 . S
C3714 C3718 1.531 . S
C3715 C3714 1.369 . S
C3715 C3716 1.410 . S
C3715 C3723 1.503 1_556 S
C3716 C3715 1.410 . S
C3716 C3717 1.392 . S
C3716 C3719 1.511 . S
C3717 C3713 1.376 . S
C3717 C3716 1.392 . S
C3717 H3729 0.929 . S
C3718 C3714 1.531 . S
C3718 H3730 0.873 1_556 S
C3718 H3731 0.962 . S
C3718 H3732 0.960 . S
C3719 C3716 1.511 . S
C3719 H3733 0.961 . S
C3719 H3734 0.961 1_556 S
C3719 H3735 0.961 . S
C3720 C3721 1.370 . S
C3720 C3722 1.363 . S
C3720 H3736 0.931 . S
C3721 C3720 1.370 . S
C3721 C3725 1.408 . S
C3722 C3720 1.363 . S
C3722 C3723 1.370 . S
C3722 C3726 1.524 . S
C3723 C3715 1.503 1_554 S
C3723 C3722 1.370 . S
C3723 C3724 1.403 . S
C3724 C3723 1.403 . S
C3724 C3725 1.404 . S
C3724 C3727 1.539 . S
C3725 C3721 1.408 . S
C3725 C3724 1.404 . S
C3725 H3737 0.930 . S
C3726 C3722 1.524 . S
C3726 H3738 0.980 . S
C3726 H3739 0.921 1_554 S
C3726 H3740 0.961 . S
C3727 C3724 1.539 . S
C3727 H3741 0.958 . S
C3727 H3742 0.961 . S
C3727 H3743 0.964 . S
H3728 C3712 0.931 . S
H3729 C3717 0.929 . S
H3730 C3718 0.873 1_554 S
H3731 C3718 0.962 . S
H3732 C3718 0.960 . S
H3733 C3719 0.961 . S
H3734 C3719 0.961 1_554 S
H3735 C3719 0.961 . S
H3736 C3720 0.931 . S
H3737 C3725 0.930 . S
H3738 C3726 0.980 . S
H3739 C3726 0.921 1_556 S
H3740 C3726 0.961 . S
H3741 C3727 0.958 . S
H3742 C3727 0.961 . S
H3743 C3727 0.964 . S
C3744 C3745 1.391 . S
C3744 C3746 1.394 . S
C3744 H3760 0.931 . S
C3745 C3744 1.391 . S
C3745 C3749 1.376 . S
C3746 C3744 1.394 . S
C3746 C3747 1.369 . S
C3746 C3750 1.531 . S
C3747 C3746 1.369 . S
C3747 C3748 1.410 . S
C3747 C3755 1.503 1_556 S
C3748 C3747 1.410 . S
C3748 C3749 1.392 . S
C3748 C3751 1.511 . S
C3749 C3745 1.376 . S
C3749 C3748 1.392 . S
C3749 H3761 0.929 . S
C3750 C3746 1.531 . S
C3750 H3762 0.873 1_556 S
C3750 H3763 0.962 . S
C3750 H3764 0.960 . S
C3751 C3748 1.511 . S
C3751 H3765 0.961 . S
C3751 H3766 0.961 1_556 S
C3751 H3767 0.961 . S
C3752 C3753 1.370 . S
C3752 C3754 1.363 . S
C3752 H3768 0.931 . S
C3753 C3752 1.370 . S
C3753 C3757 1.408 . S
C3754 C3752 1.363 . S
C3754 C3755 1.370 . S
C3754 C3758 1.524 . S
C3755 C3747 1.503 1_554 S
C3755 C3754 1.370 . S
C3755 C3756 1.403 . S
C3756 C3755 1.403 . S
C3756 C3757 1.404 . S
C3756 C3759 1.539 . S
C3757 C3753 1.408 . S
C3757 C3756 1.404 . S
C3757 H3769 0.930 . S
C3758 C3754 1.524 . S
C3758 H3770 0.980 . S
C3758 H3771 0.921 1_554 S
C3758 H3772 0.961 . S
C3759 C3756 1.539 . S
C3759 H3773 0.958 . S
C3759 H3774 0.961 . S
C3759 H3775 0.964 . S
H3760 C3744 0.931 . S
H3761 C3749 0.929 . S
H3762 C3750 0.873 1_554 S
H3763 C3750 0.962 . S
H3764 C3750 0.960 . S
H3765 C3751 0.961 . S
H3766 C3751 0.961 1_554 S
H3767 C3751 0.961 . S
H3768 C3752 0.931 . S
H3769 C3757 0.930 . S
H3770 C3758 0.980 . S
H3771 C3758 0.921 1_556 S
H3772 C3758 0.961 . S
H3773 C3759 0.958 . S
H3774 C3759 0.961 . S
H3775 C3759 0.964 . S
C3776 C3777 1.391 . S
C3776 C3778 1.394 . S
C3776 H3792 0.931 . S
C3777 C3776 1.391 . S
C3777 C3781 1.376 . S
C3778 C3776 1.394 . S
C3778 C3779 1.369 . S
C3778 C3782 1.531 . S
C3779 C3778 1.369 . S
C3779 C3780 1.410 . S
C3779 C3787 1.503 1_554 S
C3780 C3779 1.410 . S
C3780 C3781 1.392 . S
C3780 C3783 1.511 . S
C3781 C3777 1.376 . S
C3781 C3780 1.392 . S
C3781 H3793 0.929 . S
C3782 C3778 1.531 . S
C3782 H3794 0.873 1_554 S
C3782 H3795 0.962 . S
C3782 H3796 0.960 . S
C3783 C3780 1.511 . S
C3783 H3797 0.961 . S
C3783 H3798 0.961 1_554 S
C3783 H3799 0.961 . S
C3784 C3785 1.370 . S
C3784 C3786 1.363 . S
C3784 H3800 0.931 . S
C3785 C3784 1.370 . S
C3785 C3789 1.408 . S
C3786 C3784 1.363 . S
C3786 C3787 1.370 . S
C3786 C3790 1.524 . S
C3787 C3779 1.503 1_556 S
C3787 C3786 1.370 . S
C3787 C3788 1.403 . S
C3788 C3787 1.403 . S
C3788 C3789 1.404 . S
C3788 C3791 1.539 . S
C3789 C3785 1.408 . S
C3789 C3788 1.404 . S
C3789 H3801 0.930 . S
C3790 C3786 1.524 . S
C3790 H3802 0.980 . S
C3790 H3803 0.921 1_556 S
C3790 H3804 0.961 . S
C3791 C3788 1.539 . S
C3791 H3805 0.958 . S
C3791 H3806 0.961 . S
C3791 H3807 0.964 . S
H3792 C3776 0.931 . S
H3793 C3781 0.929 . S
H3794 C3782 0.873 1_556 S
H3795 C3782 0.962 . S
H3796 C3782 0.960 . S
H3797 C3783 0.961 . S
H3798 C3783 0.961 1_556 S
H3799 C3783 0.961 . S
H3800 C3784 0.931 . S
H3801 C3789 0.930 . S
H3802 C3790 0.980 . S
H3803 C3790 0.921 1_554 S
H3804 C3790 0.961 . S
H3805 C3791 0.958 . S
H3806 C3791 0.961 . S
H3807 C3791 0.964 . S
C3808 C3809 1.391 . S
C3808 C3810 1.394 . S
C3808 H3824 0.931 . S
C3809 C3808 1.391 . S
C3809 C3813 1.376 . S
C3810 C3808 1.394 . S
C3810 C3811 1.369 . S
C3810 C3814 1.531 . S
C3811 C3810 1.369 . S
C3811 C3812 1.410 . S
C3811 C3819 1.503 1_554 S
C3812 C3811 1.410 . S
C3812 C3813 1.392 . S
C3812 C3815 1.511 . S
C3813 C3809 1.376 . S
C3813 C3812 1.392 . S
C3813 H3825 0.929 . S
C3814 C3810 1.531 . S
C3814 H3826 0.873 1_554 S
C3814 H3827 0.962 . S
C3814 H3828 0.960 . S
C3815 C3812 1.511 . S
C3815 H3829 0.961 . S
C3815 H3830 0.961 1_554 S
C3815 H3831 0.961 . S
C3816 C3817 1.370 . S
C3816 C3818 1.363 . S
C3816 H3832 0.931 . S
C3817 C3816 1.370 . S
C3817 C3821 1.408 . S
C3818 C3816 1.363 . S
C3818 C3819 1.370 . S
C3818 C3822 1.524 . S
C3819 C3811 1.503 1_556 S
C3819 C3818 1.370 . S
C3819 C3820 1.403 . S
C3820 C3819 1.403 . S
C3820 C3821 1.404 . S
C3820 C3823 1.539 . S
C3821 C3817 1.408 . S
C3821 C3820 1.404 . S
C3821 H3833 0.930 . S
C3822 C3818 1.524 . S
C3822 H3834 0.980 . S
C3822 H3835 0.921 1_556 S
C3822 H3836 0.961 . S
C3823 C3820 1.539 . S
C3823 H3837 0.958 . S
C3823 H3838 0.961 . S
C3823 H3839 0.964 . S
H3824 C3808 0.931 . S
H3825 C3813 0.929 . S
H3826 C3814 0.873 1_556 S
H3827 C3814 0.962 . S
H3828 C3814 0.960 . S
H3829 C3815 0.961 . S
H3830 C3815 0.961 1_556 S
H3831 C3815 0.961 . S
H3832 C3816 0.931 . S
H3833 C3821 0.930 . S
H3834 C3822 0.980 . S
H3835 C3822 0.921 1_554 S
H3836 C3822 0.961 . S
H3837 C3823 0.958 . S
H3838 C3823 0.961 . S
H3839 C3823 0.964 . S
C3840 C3841 1.391 . S
C3840 C3842 1.394 . S
C3840 H3856 0.931 . S
C3841 C3840 1.391 . S
C3841 C3845 1.376 . S
C3842 C3840 1.394 . S
C3842 C3843 1.369 . S
C3842 C3846 1.531 . S
C3843 C3842 1.369 . S
C3843 C3844 1.410 . S
C3843 C3851 1.503 . S
C3844 C3843 1.410 . S
C3844 C3845 1.392 . S
C3844 C3847 1.511 . S
C3845 C3841 1.376 . S
C3845 C3844 1.392 . S
C3845 H3857 0.929 . S
C3846 C3842 1.531 . S
C3846 H3858 0.960 . S
C3846 H3859 0.962 . S
C3846 H3860 0.960 . S
C3847 C3844 1.511 . S
C3847 H3861 0.961 . S
C3847 H3862 0.961 . S
C3847 H3863 0.961 . S
C3848 C3849 1.370 . S
C3848 C3850 1.363 . S
C3848 H3864 0.931 . S
C3849 C3848 1.370 . S
C3849 C3853 1.408 . S
C3850 C3848 1.363 . S
C3850 C3851 1.370 . S
C3850 C3854 1.524 . S
C3851 C3843 1.503 . S
C3851 C3850 1.370 . S
C3851 C3852 1.403 . S
C3852 C3851 1.403 . S
C3852 C3853 1.404 . S
C3852 C3855 1.539 . S
C3853 C3849 1.408 . S
C3853 C3852 1.404 . S
C3853 H3865 0.930 . S
C3854 C3850 1.524 . S
C3854 H3866 0.956 . S
C3854 H3867 0.961 . S
C3854 H3868 0.961 . S
C3855 C3852 1.539 . S
C3855 H3869 0.958 . S
C3855 H3870 0.961 . S
C3855 H3871 0.960 . S
H3856 C3840 0.931 . S
H3857 C3845 0.929 . S
H3858 C3846 0.960 . S
H3859 C3846 0.962 . S
H3860 C3846 0.960 . S
H3861 C3847 0.961 . S
H3862 C3847 0.961 . S
H3863 C3847 0.961 . S
H3864 C3848 0.931 . S
H3865 C3853 0.930 . S
H3866 C3854 0.956 . S
H3867 C3854 0.961 . S
H3868 C3854 0.961 . S
H3869 C3855 0.958 . S
H3870 C3855 0.961 . S
H3871 C3855 0.960 . S
C3872 C3873 1.391 . S
C3872 C3874 1.394 . S
C3872 H3888 0.931 . S
C3873 C3872 1.391 . S
C3873 C3877 1.376 . S
C3874 C3872 1.394 . S
C3874 C3875 1.369 . S
C3874 C3878 1.531 . S
C3875 C3874 1.369 . S
C3875 C3876 1.410 . S
C3875 C3883 1.503 . S
C3876 C3875 1.410 . S
C3876 C3877 1.392 . S
C3876 C3879 1.511 . S
C3877 C3873 1.376 . S
C3877 C3876 1.392 . S
C3877 H3889 0.929 . S
C3878 C3874 1.531 . S
C3878 H3890 0.960 . S
C3878 H3891 0.962 . S
C3878 H3892 0.960 . S
C3879 C3876 1.511 . S
C3879 H3893 0.961 . S
C3879 H3894 0.961 . S
C3879 H3895 0.961 . S
C3880 C3881 1.370 . S
C3880 C3882 1.363 . S
C3880 H3896 0.931 . S
C3881 C3880 1.370 . S
C3881 C3885 1.408 . S
C3882 C3880 1.363 . S
C3882 C3883 1.370 . S
C3882 C3886 1.524 . S
C3883 C3875 1.503 . S
C3883 C3882 1.370 . S
C3883 C3884 1.403 . S
C3884 C3883 1.403 . S
C3884 C3885 1.404 . S
C3884 C3887 1.539 . S
C3885 C3881 1.408 . S
C3885 C3884 1.404 . S
C3885 H3897 0.930 . S
C3886 C3882 1.524 . S
C3886 H3898 0.956 . S
C3886 H3899 0.961 . S
C3886 H3900 0.961 . S
C3887 C3884 1.539 . S
C3887 H3901 0.958 . S
C3887 H3902 0.961 . S
C3887 H3903 0.960 . S
H3888 C3872 0.931 . S
H3889 C3877 0.929 . S
H3890 C3878 0.960 . S
H3891 C3878 0.962 . S
H3892 C3878 0.960 . S
H3893 C3879 0.961 . S
H3894 C3879 0.961 . S
H3895 C3879 0.961 . S
H3896 C3880 0.931 . S
H3897 C3885 0.930 . S
H3898 C3886 0.956 . S
H3899 C3886 0.961 . S
H3900 C3886 0.961 . S
H3901 C3887 0.958 . S
H3902 C3887 0.961 . S
H3903 C3887 0.960 . S
C3904 C3905 1.391 . S
C3904 C3906 1.394 . S
C3904 H3920 0.931 . S
C3905 C3904 1.391 . S
C3905 C3909 1.376 . S
C3906 C3904 1.394 . S
C3906 C3907 1.369 . S
C3906 C3910 1.531 . S
C3907 C3906 1.369 . S
C3907 C3908 1.410 . S
C3907 C3915 1.503 . S
C3908 C3907 1.410 . S
C3908 C3909 1.392 . S
C3908 C3911 1.511 . S
C3909 C3905 1.376 . S
C3909 C3908 1.392 . S
C3909 H3921 0.929 . S
C3910 C3906 1.531 . S
C3910 H3922 0.960 . S
C3910 H3923 0.962 . S
C3910 H3924 0.960 . S
C3911 C3908 1.511 . S
C3911 H3925 0.961 . S
C3911 H3926 0.961 . S
C3911 H3927 0.961 . S
C3912 C3913 1.370 . S
C3912 C3914 1.363 . S
C3912 H3928 0.931 . S
C3913 C3912 1.370 . S
C3913 C3917 1.408 . S
C3914 C3912 1.363 . S
C3914 C3915 1.370 . S
C3914 C3918 1.524 . S
C3915 C3907 1.503 . S
C3915 C3914 1.370 . S
C3915 C3916 1.403 . S
C3916 C3915 1.403 . S
C3916 C3917 1.404 . S
C3916 C3919 1.539 . S
C3917 C3913 1.408 . S
C3917 C3916 1.404 . S
C3917 H3929 0.930 . S
C3918 C3914 1.524 . S
C3918 H3930 0.956 . S
C3918 H3931 0.961 . S
C3918 H3932 0.961 . S
C3919 C3916 1.539 . S
C3919 H3933 0.958 . S
C3919 H3934 0.961 . S
C3919 H3935 0.960 . S
H3920 C3904 0.931 . S
H3921 C3909 0.929 . S
H3922 C3910 0.960 . S
H3923 C3910 0.962 . S
H3924 C3910 0.960 . S
H3925 C3911 0.961 . S
H3926 C3911 0.961 . S
H3927 C3911 0.961 . S
H3928 C3912 0.931 . S
H3929 C3917 0.930 . S
H3930 C3918 0.956 . S
H3931 C3918 0.961 . S
H3932 C3918 0.961 . S
H3933 C3919 0.958 . S
H3934 C3919 0.961 . S
H3935 C3919 0.960 . S
C3936 C3937 1.391 . S
C3936 C3938 1.394 . S
C3936 H3952 0.931 . S
C3937 C3936 1.391 . S
C3937 C3941 1.376 . S
C3938 C3936 1.394 . S
C3938 C3939 1.369 . S
C3938 C3942 1.531 . S
C3939 C3938 1.369 . S
C3939 C3940 1.410 . S
C3939 C3947 1.503 . S
C3940 C3939 1.410 . S
C3940 C3941 1.392 . S
C3940 C3943 1.511 . S
C3941 C3937 1.376 . S
C3941 C3940 1.392 . S
C3941 H3953 0.929 . S
C3942 C3938 1.531 . S
C3942 H3954 0.960 . S
C3942 H3955 0.962 . S
C3942 H3956 0.960 . S
C3943 C3940 1.511 . S
C3943 H3957 0.961 . S
C3943 H3958 0.961 . S
C3943 H3959 0.961 . S
C3944 C3945 1.370 . S
C3944 C3946 1.363 . S
C3944 H3960 0.931 . S
C3945 C3944 1.370 . S
C3945 C3949 1.408 . S
C3946 C3944 1.363 . S
C3946 C3947 1.370 . S
C3946 C3950 1.524 . S
C3947 C3939 1.503 . S
C3947 C3946 1.370 . S
C3947 C3948 1.403 . S
C3948 C3947 1.403 . S
C3948 C3949 1.404 . S
C3948 C3951 1.539 . S
C3949 C3945 1.408 . S
C3949 C3948 1.404 . S
C3949 H3961 0.930 . S
C3950 C3946 1.524 . S
C3950 H3962 0.956 . S
C3950 H3963 0.961 . S
C3950 H3964 0.961 . S
C3951 C3948 1.539 . S
C3951 H3965 0.958 . S
C3951 H3966 0.961 . S
C3951 H3967 0.960 . S
H3952 C3936 0.931 . S
H3953 C3941 0.929 . S
H3954 C3942 0.960 . S
H3955 C3942 0.962 . S
H3956 C3942 0.960 . S
H3957 C3943 0.961 . S
H3958 C3943 0.961 . S
H3959 C3943 0.961 . S
H3960 C3944 0.931 . S
H3961 C3949 0.930 . S
H3962 C3950 0.956 . S
H3963 C3950 0.961 . S
H3964 C3950 0.961 . S
H3965 C3951 0.958 . S
H3966 C3951 0.961 . S
H3967 C3951 0.960 . S
C3968 C3969 1.391 . S
C3968 C3970 1.394 . S
C3968 H3984 0.931 . S
C3969 C3968 1.391 . S
C3969 C3973 1.376 . S
C3970 C3968 1.394 . S
C3970 C3971 1.369 . S
C3970 C3974 1.531 . S
C3971 C3970 1.369 . S
C3971 C3972 1.410 . S
C3971 C3979 1.503 . S
C3972 C3971 1.410 . S
C3972 C3973 1.392 . S
C3972 C3975 1.511 . S
C3973 C3969 1.376 . S
C3973 C3972 1.392 . S
C3973 H3985 0.929 . S
C3974 C3970 1.531 . S
C3974 H3986 0.960 . S
C3974 H3987 0.962 . S
C3974 H3988 0.960 . S
C3975 C3972 1.511 . S
C3975 H3989 0.961 . S
C3975 H3990 0.961 . S
C3975 H3991 0.961 . S
C3976 C3977 1.370 . S
C3976 C3978 1.363 . S
C3976 H3992 0.931 . S
C3977 C3976 1.370 . S
C3977 C3981 1.408 . S
C3978 C3976 1.363 . S
C3978 C3979 1.370 . S
C3978 C3982 1.524 . S
C3979 C3971 1.503 . S
C3979 C3978 1.370 . S
C3979 C3980 1.403 . S
C3980 C3979 1.403 . S
C3980 C3981 1.404 . S
C3980 C3983 1.539 . S
C3981 C3977 1.408 . S
C3981 C3980 1.404 . S
C3981 H3993 0.930 . S
C3982 C3978 1.524 . S
C3982 H3994 0.956 . S
C3982 H3995 0.961 . S
C3982 H3996 0.961 . S
C3983 C3980 1.539 . S
C3983 H3997 0.958 . S
C3983 H3998 0.961 . S
C3983 H3999 0.960 . S
H3984 C3968 0.931 . S
H3985 C3973 0.929 . S
H3986 C3974 0.960 . S
H3987 C3974 0.962 . S
H3988 C3974 0.960 . S
H3989 C3975 0.961 . S
H3990 C3975 0.961 . S
H3991 C3975 0.961 . S
H3992 C3976 0.931 . S
H3993 C3981 0.930 . S
H3994 C3982 0.956 . S
H3995 C3982 0.961 . S
H3996 C3982 0.961 . S
H3997 C3983 0.958 . S
H3998 C3983 0.961 . S
H3999 C3983 0.960 . S
C4000 C4001 1.391 . S
C4000 C4002 1.394 . S
C4000 H4016 0.931 . S
C4001 C4000 1.391 . S
C4001 C4005 1.376 . S
C4002 C4000 1.394 . S
C4002 C4003 1.369 . S
C4002 C4006 1.531 . S
C4003 C4002 1.369 . S
C4003 C4004 1.410 . S
C4003 C4011 1.503 . S
C4004 C4003 1.410 . S
C4004 C4005 1.392 . S
C4004 C4007 1.511 . S
C4005 C4001 1.376 . S
C4005 C4004 1.392 . S
C4005 H4017 0.929 . S
C4006 C4002 1.531 . S
C4006 H4018 0.960 . S
C4006 H4019 0.962 . S
C4006 H4020 0.960 . S
C4007 C4004 1.511 . S
C4007 H4021 0.961 . S
C4007 H4022 0.961 . S
C4007 H4023 0.961 . S
C4008 C4009 1.370 . S
C4008 C4010 1.363 . S
C4008 H4024 0.931 . S
C4009 C4008 1.370 . S
C4009 C4013 1.408 . S
C4010 C4008 1.363 . S
C4010 C4011 1.370 . S
C4010 C4014 1.524 . S
C4011 C4003 1.503 . S
C4011 C4010 1.370 . S
C4011 C4012 1.403 . S
C4012 C4011 1.403 . S
C4012 C4013 1.404 . S
C4012 C4015 1.539 . S
C4013 C4009 1.408 . S
C4013 C4012 1.404 . S
C4013 H4025 0.930 . S
C4014 C4010 1.524 . S
C4014 H4026 0.956 . S
C4014 H4027 0.961 . S
C4014 H4028 0.961 . S
C4015 C4012 1.539 . S
C4015 H4029 0.958 . S
C4015 H4030 0.961 . S
C4015 H4031 0.960 . S
H4016 C4000 0.931 . S
H4017 C4005 0.929 . S
H4018 C4006 0.960 . S
H4019 C4006 0.962 . S
H4020 C4006 0.960 . S
H4021 C4007 0.961 . S
H4022 C4007 0.961 . S
H4023 C4007 0.961 . S
H4024 C4008 0.931 . S
H4025 C4013 0.930 . S
H4026 C4014 0.956 . S
H4027 C4014 0.961 . S
H4028 C4014 0.961 . S
H4029 C4015 0.958 . S
H4030 C4015 0.961 . S
H4031 C4015 0.960 . S
C4032 C4033 1.391 . S
C4032 C4034 1.394 . S
C4032 H4048 0.931 . S
C4033 C4032 1.391 . S
C4033 C4037 1.376 . S
C4034 C4032 1.394 . S
C4034 C4035 1.369 . S
C4034 C4038 1.531 . S
C4035 C4034 1.369 . S
C4035 C4036 1.410 . S
C4035 C4043 1.503 . S
C4036 C4035 1.410 . S
C4036 C4037 1.392 . S
C4036 C4039 1.511 . S
C4037 C4033 1.376 . S
C4037 C4036 1.392 . S
C4037 H4049 0.929 . S
C4038 C4034 1.531 . S
C4038 H4050 0.960 . S
C4038 H4051 0.962 . S
C4038 H4052 0.960 . S
C4039 C4036 1.511 . S
C4039 H4053 0.961 . S
C4039 H4054 0.961 . S
C4039 H4055 0.961 . S
C4040 C4041 1.370 . S
C4040 C4042 1.363 . S
C4040 H4056 0.931 . S
C4041 C4040 1.370 . S
C4041 C4045 1.408 . S
C4042 C4040 1.363 . S
C4042 C4043 1.370 . S
C4042 C4046 1.524 . S
C4043 C4035 1.503 . S
C4043 C4042 1.370 . S
C4043 C4044 1.403 . S
C4044 C4043 1.403 . S
C4044 C4045 1.404 . S
C4044 C4047 1.539 . S
C4045 C4041 1.408 . S
C4045 C4044 1.404 . S
C4045 H4057 0.930 . S
C4046 C4042 1.524 . S
C4046 H4058 0.956 . S
C4046 H4059 0.961 . S
C4046 H4060 0.961 . S
C4047 C4044 1.539 . S
C4047 H4061 0.958 . S
C4047 H4062 0.961 . S
C4047 H4063 0.960 . S
H4048 C4032 0.931 . S
H4049 C4037 0.929 . S
H4050 C4038 0.960 . S
H4051 C4038 0.962 . S
H4052 C4038 0.960 . S
H4053 C4039 0.961 . S
H4054 C4039 0.961 . S
H4055 C4039 0.961 . S
H4056 C4040 0.931 . S
H4057 C4045 0.930 . S
H4058 C4046 0.956 . S
H4059 C4046 0.961 . S
H4060 C4046 0.961 . S
H4061 C4047 0.958 . S
H4062 C4047 0.961 . S
H4063 C4047 0.960 . S
C4064 C4065 1.391 . S
C4064 C4066 1.394 . S
C4064 H4080 0.931 . S
C4065 C4064 1.391 . S
C4065 C4069 1.376 . S
C4066 C4064 1.394 . S
C4066 C4067 1.369 . S
C4066 C4070 1.531 . S
C4067 C4066 1.369 . S
C4067 C4068 1.410 . S
C4067 C4075 1.503 . S
C4068 C4067 1.410 . S
C4068 C4069 1.392 . S
C4068 C4071 1.511 . S
C4069 C4065 1.376 . S
C4069 C4068 1.392 . S
C4069 H4081 0.929 . S
C4070 C4066 1.531 . S
C4070 H4082 0.960 . S
C4070 H4083 0.962 . S
C4070 H4084 0.960 . S
C4071 C4068 1.511 . S
C4071 H4085 0.961 . S
C4071 H4086 0.961 . S
C4071 H4087 0.961 . S
C4072 C4073 1.370 . S
C4072 C4074 1.363 . S
C4072 H4088 0.931 . S
C4073 C4072 1.370 . S
C4073 C4077 1.408 . S
C4074 C4072 1.363 . S
C4074 C4075 1.370 . S
C4074 C4078 1.524 . S
C4075 C4067 1.503 . S
C4075 C4074 1.370 . S
C4075 C4076 1.403 . S
C4076 C4075 1.403 . S
C4076 C4077 1.404 . S
C4076 C4079 1.539 . S
C4077 C4073 1.408 . S
C4077 C4076 1.404 . S
C4077 H4089 0.930 . S
C4078 C4074 1.524 . S
C4078 H4090 0.956 . S
C4078 H4091 0.961 . S
C4078 H4092 0.961 . S
C4079 C4076 1.539 . S
C4079 H4093 0.958 . S
C4079 H4094 0.961 . S
C4079 H4095 0.960 . S
H4080 C4064 0.931 . S
H4081 C4069 0.929 . S
H4082 C4070 0.960 . S
H4083 C4070 0.962 . S
H4084 C4070 0.960 . S
H4085 C4071 0.961 . S
H4086 C4071 0.961 . S
H4087 C4071 0.961 . S
H4088 C4072 0.931 . S
H4089 C4077 0.930 . S
H4090 C4078 0.956 . S
H4091 C4078 0.961 . S
H4092 C4078 0.961 . S
H4093 C4079 0.958 . S
H4094 C4079 0.961 . S
H4095 C4079 0.960 . S
C4096 C4097 1.391 . S
C4096 C4098 1.394 . S
C4096 H4112 0.931 . S
C4097 C4096 1.391 . S
C4097 C4101 1.376 . S
C4098 C4096 1.394 . S
C4098 C4099 1.369 . S
C4098 C4102 1.531 . S
C4099 C4098 1.369 . S
C4099 C4100 1.410 . S
C4099 C4107 1.503 . S
C4100 C4099 1.410 . S
C4100 C4101 1.392 . S
C4100 C4103 1.511 . S
C4101 C4097 1.376 . S
C4101 C4100 1.392 . S
C4101 H4113 0.929 . S
C4102 C4098 1.531 . S
C4102 H4114 0.960 . S
C4102 H4115 0.962 . S
C4102 H4116 0.960 . S
C4103 C4100 1.511 . S
C4103 H4117 0.961 . S
C4103 H4118 0.961 . S
C4103 H4119 0.961 . S
C4104 C4105 1.370 . S
C4104 C4106 1.363 . S
C4104 H4120 0.931 . S
C4105 C4104 1.370 . S
C4105 C4109 1.408 . S
C4106 C4104 1.363 . S
C4106 C4107 1.370 . S
C4106 C4110 1.524 . S
C4107 C4099 1.503 . S
C4107 C4106 1.370 . S
C4107 C4108 1.403 . S
C4108 C4107 1.403 . S
C4108 C4109 1.404 . S
C4108 C4111 1.539 . S
C4109 C4105 1.408 . S
C4109 C4108 1.404 . S
C4109 H4121 0.930 . S
C4110 C4106 1.524 . S
C4110 H4122 0.956 . S
C4110 H4123 0.961 . S
C4110 H4124 0.961 . S
C4111 C4108 1.539 . S
C4111 H4125 0.958 . S
C4111 H4126 0.961 . S
C4111 H4127 0.960 . S
H4112 C4096 0.931 . S
H4113 C4101 0.929 . S
H4114 C4102 0.960 . S
H4115 C4102 0.962 . S
H4116 C4102 0.960 . S
H4117 C4103 0.961 . S
H4118 C4103 0.961 . S
H4119 C4103 0.961 . S
H4120 C4104 0.931 . S
H4121 C4109 0.930 . S
H4122 C4110 0.956 . S
H4123 C4110 0.961 . S
H4124 C4110 0.961 . S
H4125 C4111 0.958 . S
H4126 C4111 0.961 . S
H4127 C4111 0.960 . S
C4128 C4129 1.391 . S
C4128 C4130 1.394 . S
C4128 H4144 0.931 . S
C4129 C4128 1.391 . S
C4129 C4133 1.376 . S
C4130 C4128 1.394 . S
C4130 C4131 1.369 . S
C4130 C4134 1.531 . S
C4131 C4130 1.369 . S
C4131 C4132 1.410 . S
C4131 C4139 1.503 . S
C4132 C4131 1.410 . S
C4132 C4133 1.392 . S
C4132 C4135 1.511 . S
C4133 C4129 1.376 . S
C4133 C4132 1.392 . S
C4133 H4145 0.929 . S
C4134 C4130 1.531 . S
C4134 H4146 0.960 . S
C4134 H4147 0.962 . S
C4134 H4148 0.960 . S
C4135 C4132 1.511 . S
C4135 H4149 0.961 . S
C4135 H4150 0.961 . S
C4135 H4151 0.961 . S
C4136 C4137 1.370 . S
C4136 C4138 1.363 . S
C4136 H4152 0.931 . S
C4137 C4136 1.370 . S
C4137 C4141 1.408 . S
C4138 C4136 1.363 . S
C4138 C4139 1.370 . S
C4138 C4142 1.524 . S
C4139 C4131 1.503 . S
C4139 C4138 1.370 . S
C4139 C4140 1.403 . S
C4140 C4139 1.403 . S
C4140 C4141 1.404 . S
C4140 C4143 1.539 . S
C4141 C4137 1.408 . S
C4141 C4140 1.404 . S
C4141 H4153 0.930 . S
C4142 C4138 1.524 . S
C4142 H4154 0.956 . S
C4142 H4155 0.961 . S
C4142 H4156 0.961 . S
C4143 C4140 1.539 . S
C4143 H4157 0.958 . S
C4143 H4158 0.961 . S
C4143 H4159 0.960 . S
H4144 C4128 0.931 . S
H4145 C4133 0.929 . S
H4146 C4134 0.960 . S
H4147 C4134 0.962 . S
H4148 C4134 0.960 . S
H4149 C4135 0.961 . S
H4150 C4135 0.961 . S
H4151 C4135 0.961 . S
H4152 C4136 0.931 . S
H4153 C4141 0.930 . S
H4154 C4142 0.956 . S
H4155 C4142 0.961 . S
H4156 C4142 0.961 . S
H4157 C4143 0.958 . S
H4158 C4143 0.961 . S
H4159 C4143 0.960 . S
C4160 C4161 1.391 . S
C4160 C4162 1.394 . S
C4160 H4176 0.931 . S
C4161 C4160 1.391 . S
C4161 C4165 1.376 . S
C4162 C4160 1.394 . S
C4162 C4163 1.369 . S
C4162 C4166 1.531 . S
C4163 C4162 1.369 . S
C4163 C4164 1.410 . S
C4163 C4171 1.503 . S
C4164 C4163 1.410 . S
C4164 C4165 1.392 . S
C4164 C4167 1.511 . S
C4165 C4161 1.376 . S
C4165 C4164 1.392 . S
C4165 H4177 0.929 . S
C4166 C4162 1.531 . S
C4166 H4178 0.960 . S
C4166 H4179 0.962 . S
C4166 H4180 0.960 . S
C4167 C4164 1.511 . S
C4167 H4181 0.961 . S
C4167 H4182 0.961 . S
C4167 H4183 0.961 . S
C4168 C4169 1.370 . S
C4168 C4170 1.363 . S
C4168 H4184 0.931 . S
C4169 C4168 1.370 . S
C4169 C4173 1.408 . S
C4170 C4168 1.363 . S
C4170 C4171 1.370 . S
C4170 C4174 1.524 . S
C4171 C4163 1.503 . S
C4171 C4170 1.370 . S
C4171 C4172 1.403 . S
C4172 C4171 1.403 . S
C4172 C4173 1.404 . S
C4172 C4175 1.539 . S
C4173 C4169 1.408 . S
C4173 C4172 1.404 . S
C4173 H4185 0.930 . S
C4174 C4170 1.524 . S
C4174 H4186 0.956 . S
C4174 H4187 0.961 . S
C4174 H4188 0.961 . S
C4175 C4172 1.539 . S
C4175 H4189 0.958 . S
C4175 H4190 0.961 . S
C4175 H4191 0.960 . S
H4176 C4160 0.931 . S
H4177 C4165 0.929 . S
H4178 C4166 0.960 . S
H4179 C4166 0.962 . S
H4180 C4166 0.960 . S
H4181 C4167 0.961 . S
H4182 C4167 0.961 . S
H4183 C4167 0.961 . S
H4184 C4168 0.931 . S
H4185 C4173 0.930 . S
H4186 C4174 0.956 . S
H4187 C4174 0.961 . S
H4188 C4174 0.961 . S
H4189 C4175 0.958 . S
H4190 C4175 0.961 . S
H4191 C4175 0.960 . S
C4192 C4193 1.391 . S
C4192 C4194 1.394 . S
C4192 H4208 0.931 . S
C4193 C4192 1.391 . S
C4193 C4197 1.376 . S
C4194 C4192 1.394 . S
C4194 C4195 1.369 . S
C4194 C4198 1.531 . S
C4195 C4194 1.369 . S
C4195 C4196 1.410 . S
C4195 C4203 1.503 . S
C4196 C4195 1.410 . S
C4196 C4197 1.392 . S
C4196 C4199 1.511 . S
C4197 C4193 1.376 . S
C4197 C4196 1.392 . S
C4197 H4209 0.929 . S
C4198 C4194 1.531 . S
C4198 H4210 0.960 . S
C4198 H4211 0.962 . S
C4198 H4212 0.960 . S
C4199 C4196 1.511 . S
C4199 H4213 0.961 . S
C4199 H4214 0.961 . S
C4199 H4215 0.961 . S
C4200 C4201 1.370 . S
C4200 C4202 1.363 . S
C4200 H4216 0.931 . S
C4201 C4200 1.370 . S
C4201 C4205 1.408 . S
C4202 C4200 1.363 . S
C4202 C4203 1.370 . S
C4202 C4206 1.524 . S
C4203 C4195 1.503 . S
C4203 C4202 1.370 . S
C4203 C4204 1.403 . S
C4204 C4203 1.403 . S
C4204 C4205 1.404 . S
C4204 C4207 1.539 . S
C4205 C4201 1.408 . S
C4205 C4204 1.404 . S
C4205 H4217 0.930 . S
C4206 C4202 1.524 . S
C4206 H4218 0.956 . S
C4206 H4219 0.961 . S
C4206 H4220 0.961 . S
C4207 C4204 1.539 . S
C4207 H4221 0.958 . S
C4207 H4222 0.961 . S
C4207 H4223 0.960 . S
H4208 C4192 0.931 . S
H4209 C4197 0.929 . S
H4210 C4198 0.960 . S
H4211 C4198 0.962 . S
H4212 C4198 0.960 . S
H4213 C4199 0.961 . S
H4214 C4199 0.961 . S
H4215 C4199 0.961 . S
H4216 C4200 0.931 . S
H4217 C4205 0.930 . S
H4218 C4206 0.956 . S
H4219 C4206 0.961 . S
H4220 C4206 0.961 . S
H4221 C4207 0.958 . S
H4222 C4207 0.961 . S
H4223 C4207 0.960 . S
C1921 C1762 1.493 . S
C1929 C2 1.535 . S
C1953 C1642 1.537 . S
C1961 C61 1.614 . S
C1985 C1701 1.650 . S
C1993 C82 1.593 . S
C2017 C122 1.584 . S
C2025 C1741 1.614 . S
C2049 C181 1.573 . S
C2057 C1882 1.531 . S
C2081 C202 1.546 . S
C2089 C1821 1.614 . S
C2113 C1861 1.659 . S
C2121 C261 1.663 . S
C2145 C301 1.610 . S
C2153 C1602 1.554 . S
C2177 C341 1.648 . S
C2185 C1581 1.653 . S
C2209 C1461 1.659 . S
C2217 C362 1.619 . S
C2241 C402 1.496 . S
C2249 C1501 1.564 . S
C2273 C1522 1.509 . S
C2281 C442 1.542 . S
C2305 C1322 1.628 . S
C2313 C501 1.664 . S
C2337 C541 1.558 . S
C2345 C1362 1.522 . S
C2369 C1402 1.515 . S
C2377 C562 1.533 . S
C2401 C621 1.651 . S
C2409 C1301 1.654 . S
C2433 C1261 1.610 . S
C2441 C642 1.571 . S
C2465 C682 1.588 . S
C2473 C1021 1.615 . S
C2497 C741 1.649 . S
C2505 C1042 1.596 . S
C2529 C1082 1.534 . S
C2537 C781 1.614 . S
C2561 C802 1.493 . S
C2569 C962 1.535 . S
C2593 C861 1.610 . S
C2601 C1162 1.575 . S
C2625 C1221 1.658 . S
C2633 C901 1.663 . S
C2657 C922 1.549 . S
C2665 C1141 1.575 . S
C2689 C602 1.652 . S
C2697 C1621 1.601 . S
C2721 C1901 1.589 . S
C2729 C482 1.601 . S
C2753 C1802 1.553 . S
C2761 C522 1.559 . S
C2785 C1842 1.594 . S
C2793 C581 1.569 . S
C2817 C1661 1.603 . S
C2825 C381 1.621 . S
C2849 C1682 1.591 . S
C2857 C421 1.578 . S
C2881 C461 1.555 . S
C2889 C1722 1.568 . S
C2913 C322 1.591 . S
C2921 C1781 1.579 . S
C2945 C981 1.548 . S
C2953 C282 1.558 . S
C2977 C162 1.575 . S
C2985 C1002 1.571 . S
C3009 C1061 1.584 . S
C3017 C221 1.616 . S
C3041 C1101 1.599 . S
C3049 C242 1.655 . S
C3073 C42 1.553 . S
C3081 C1122 1.565 . S
C3105 C1181 1.605 . S
C3113 C101 1.609 . S
C3137 C141 1.621 . S
C3145 C1202 1.658 . S
C3169 C21 1.502 . S
C3177 C1242 1.559 . S
C3201 C821 1.590 . S
C3209 C1282 1.602 . S
C3233 C1442 1.609 . S
C3241 C941 1.573 . S
C3265 C1482 1.555 . S
C3273 C842 1.560 . S
C3297 C1541 1.568 . S
C3305 C882 1.610 . S
C3329 C661 1.581 . S
C3337 C1562 1.646 . S
C3361 C722 1.612 . S
C3369 C1381 1.568 . S
C3393 C762 1.557 . S
C3401 C1421 1.546 . S
C3425 C701 1.607 . S
C3433 C1341 1.607 . S
C3457 C375 1.556 . S
C3465 C15 1.561 . S
C3489 C55 1.542 . S
C3497 C415 1.543 . S
C3521 C95 1.547 . S
C3529 C455 1.556 . S
C3553 C335 1.565 . S
C3561 C135 1.568 . S
C3585 C175 1.553 . S
C3593 C615 1.555 . S
C3617 C495 1.566 . S
C3625 C215 1.568 . S
C3649 C255 1.561 . S
C3657 C535 1.561 . S
C3681 C295 1.534 . S
C3689 C575 1.538 . S
C3713 C735 1.570 . S
C3721 C655 1.570 . S
C3745 C695 1.571 . S
C3753 C895 1.572 . S
C3777 C935 1.535 . S
C3785 C775 1.543 . S
C3809 C855 1.541 . S
C3817 C815 1.542 . S
C3841 C1335 1.543 . S
C3849 C975 1.559 . S
C3873 C1375 1.534 . S
C3881 C1015 1.542 . S
C3905 C1415 1.547 . S
C3913 C1055 1.550 . S
C3937 C1295 1.567 . S
C3945 C1095 1.569 . S
C3969 C1575 1.555 . S
C3977 C1135 1.557 . S
C4001 C1455 1.563 . S
C4009 C1175 1.566 . S
C4033 C1495 1.557 . S
C4041 C1215 1.559 . S
C4065 C1535 1.538 . S
C4073 C1255 1.543 . S
C4097 C1695 1.563 . S
C4105 C1615 1.566 . S
C4129 C1855 1.567 . S
C4137 C1655 1.569 . S
C4161 C1735 1.535 . S
C4169 C1895 1.539 . S
C4193 C1815 1.542 . S
C4201 C1775 1.543 . S
