# Generated by pormake.
# Topology xfz, (5)-cn, num edge types: 1
# Building blocks:
#     Node 0, Type 0, BuildingBlock: BEQFEK_clean_sbu_0, # of connection points: 5
#     Node 1, Type 0, BuildingBlock: BEQFEK_clean_sbu_0, # of connection points: 5
#     Node 2, Type 0, BuildingBlock: BEQFEK_clean_sbu_0, # of connection points: 5
#     Node 3, Type 0, BuildingBlock: BEQFEK_clean_sbu_0, # of connection points: 5
#     Node 4, Type 0, BuildingBlock: BEQFEK_clean_sbu_0, # of connection points: 5
#     Node 5, Type 0, BuildingBlock: BEQFEK_clean_sbu_0, # of connection points: 5
#     Node 6, Type 0, BuildingBlock: BEQFEK_clean_sbu_0, # of connection points: 5
#     Node 7, Type 0, BuildingBlock: BEQFEK_clean_sbu_0, # of connection points: 5
#     Node 8, Type 0, BuildingBlock: BEQFEK_clean_sbu_0, # of connection points: 5
#     Node 9, Type 0, BuildingBlock: BEQFEK_clean_sbu_0, # of connection points: 5
#     Node 10, Type 0, BuildingBlock: BEQFEK_clean_sbu_0, # of connection points: 5
#     Node 11, Type 0, BuildingBlock: BEQFEK_clean_sbu_0, # of connection points: 5
#     Node 12, Type 0, BuildingBlock: BEQFEK_clean_sbu_0, # of connection points: 5
#     Node 13, Type 0, BuildingBlock: BEQFEK_clean_sbu_0, # of connection points: 5
#     Node 14, Type 0, BuildingBlock: BEQFEK_clean_sbu_0, # of connection points: 5
#     Node 15, Type 0, BuildingBlock: BEQFEK_clean_sbu_0, # of connection points: 5
#     Edge 16, Type (0, 0), BuildingBlock: CIFDUS_clean_linker_0, # of connection points: 2
#     Edge 17, Type (0, 0), BuildingBlock: CIFDUS_clean_linker_0, # of connection points: 2
#     Edge 18, Type (0, 0), BuildingBlock: CIFDUS_clean_linker_0, # of connection points: 2
#     Edge 19, Type (0, 0), BuildingBlock: CIFDUS_clean_linker_0, # of connection points: 2
#     Edge 20, Type (0, 0), BuildingBlock: CIFDUS_clean_linker_0, # of connection points: 2
#     Edge 21, Type (0, 0), BuildingBlock: CIFDUS_clean_linker_0, # of connection points: 2
#     Edge 22, Type (0, 0), BuildingBlock: CIFDUS_clean_linker_0, # of connection points: 2
#     Edge 23, Type (0, 0), BuildingBlock: CIFDUS_clean_linker_0, # of connection points: 2
#     Edge 24, Type (0, 0), BuildingBlock: CIFDUS_clean_linker_0, # of connection points: 2
#     Edge 25, Type (0, 0), BuildingBlock: CIFDUS_clean_linker_0, # of connection points: 2
#     Edge 26, Type (0, 0), BuildingBlock: CIFDUS_clean_linker_0, # of connection points: 2
#     Edge 27, Type (0, 0), BuildingBlock: CIFDUS_clean_linker_0, # of connection points: 2
#     Edge 28, Type (0, 0), BuildingBlock: CIFDUS_clean_linker_0, # of connection points: 2
#     Edge 29, Type (0, 0), BuildingBlock: CIFDUS_clean_linker_0, # of connection points: 2
#     Edge 30, Type (0, 0), BuildingBlock: CIFDUS_clean_linker_0, # of connection points: 2
#     Edge 31, Type (0, 0), BuildingBlock: CIFDUS_clean_linker_0, # of connection points: 2
#     Edge 32, Type (0, 0), BuildingBlock: CIFDUS_clean_linker_0, # of connection points: 2
#     Edge 33, Type (0, 0), BuildingBlock: CIFDUS_clean_linker_0, # of connection points: 2
#     Edge 34, Type (0, 0), BuildingBlock: CIFDUS_clean_linker_0, # of connection points: 2
#     Edge 35, Type (0, 0), BuildingBlock: CIFDUS_clean_linker_0, # of connection points: 2
#     Edge 36, Type (0, 0), BuildingBlock: CIFDUS_clean_linker_0, # of connection points: 2
#     Edge 37, Type (0, 0), BuildingBlock: CIFDUS_clean_linker_0, # of connection points: 2
#     Edge 38, Type (0, 0), BuildingBlock: CIFDUS_clean_linker_0, # of connection points: 2
#     Edge 39, Type (0, 0), BuildingBlock: CIFDUS_clean_linker_0, # of connection points: 2
#     Edge 40, Type (0, 0), BuildingBlock: CIFDUS_clean_linker_0, # of connection points: 2
#     Edge 41, Type (0, 0), BuildingBlock: CIFDUS_clean_linker_0, # of connection points: 2
#     Edge 42, Type (0, 0), BuildingBlock: CIFDUS_clean_linker_0, # of connection points: 2
#     Edge 43, Type (0, 0), BuildingBlock: CIFDUS_clean_linker_0, # of connection points: 2
#     Edge 44, Type (0, 0), BuildingBlock: CIFDUS_clean_linker_0, # of connection points: 2
#     Edge 45, Type (0, 0), BuildingBlock: CIFDUS_clean_linker_0, # of connection points: 2
#     Edge 46, Type (0, 0), BuildingBlock: CIFDUS_clean_linker_0, # of connection points: 2
#     Edge 47, Type (0, 0), BuildingBlock: CIFDUS_clean_linker_0, # of connection points: 2
#     Edge 48, Type (0, 0), BuildingBlock: CIFDUS_clean_linker_0, # of connection points: 2
#     Edge 49, Type (0, 0), BuildingBlock: CIFDUS_clean_linker_0, # of connection points: 2
#     Edge 50, Type (0, 0), BuildingBlock: CIFDUS_clean_linker_0, # of connection points: 2
#     Edge 51, Type (0, 0), BuildingBlock: CIFDUS_clean_linker_0, # of connection points: 2
#     Edge 52, Type (0, 0), BuildingBlock: CIFDUS_clean_linker_0, # of connection points: 2
#     Edge 53, Type (0, 0), BuildingBlock: CIFDUS_clean_linker_0, # of connection points: 2
#     Edge 54, Type (0, 0), BuildingBlock: CIFDUS_clean_linker_0, # of connection points: 2
#     Edge 55, Type (0, 0), BuildingBlock: CIFDUS_clean_linker_0, # of connection points: 2
# Relax obj value: 0.392
# Max RMSD: 0.184
# Mean RMSD: 0.184
data_MOF--net-xfz--node1-BEQFEK_clean_sbu_0--edge1-CIFDUS_clean_linker_0
_symmetry_space_group_name_H-M    P1
_symmetry_Int_Tables_number       1
_symmetry_cell_setting            triclinic
loop_
_symmetry_equiv_pos_as_xyz
'x, y, z'
_cell_length_a     42.658637
_cell_length_b     42.723071
_cell_length_c     43.501783
_cell_angle_alpha  90.151973
_cell_angle_beta   89.939063
_cell_angle_gamma 89.964855
loop_
_atom_site_label
_atom_site_type_symbol
_atom_site_fract_x
_atom_site_fract_y
_atom_site_fract_z
_atom_type_partial_charge
Co0 Co 0.14608 0.5031 0.36348 0.0
Co1 Co 0.20446 0.46715 0.34024 0.0
C2 C 0.14179 0.43736 0.33551 0.0
O3 O 0.13042 0.46179 0.34817 0.0
O4 O 0.17122 0.43494 0.33073 0.0
C5 C 0.10043 0.50558 0.40918 0.0
O6 O 0.11159 0.47756 0.41507 0.0
C7 C 0.25856 0.42242 0.33254 0.0
C8 C 0.29324 0.45391 0.3111 0.0
C9 C 0.28894 0.42335 0.32074 0.0
N10 N 0.2457 0.45123 0.33008 0.0
N11 N 0.26675 0.46982 0.31734 0.0
C12 C 0.24157 0.39425 0.34431 0.0
H13 H 0.21603 0.39865 0.34567 0.0
H14 H 0.25016 0.38856 0.36769 0.0
H15 H 0.24633 0.37377 0.32926 0.0
C16 C 0.18459 0.51471 0.41619 0.0
N17 N 0.18078 0.50081 0.38889 0.0
N18 N 0.20351 0.48106 0.38341 0.0
C19 C 0.22101 0.47911 0.40952 0.0
C20 C 0.20918 0.50024 0.43187 0.0
C21 C 0.16919 0.54555 0.42333 0.0
H22 H 0.16373 0.55809 0.40166 0.0
H23 H 0.14672 0.54182 0.43556 0.0
H24 H 0.18468 0.56052 0.43765 0.0
O25 O 0.15519 0.5298 0.32959 0.0
O26 O 0.19575 0.50391 0.30983 0.0
H27 H 0.27007 0.47014 0.41376 0.0
H28 H 0.24528 0.44366 0.43494 0.0
C29 C 0.24774 0.45685 0.41313 0.0
H30 H 0.24851 0.44013 0.39373 0.0
H31 H 0.26289 0.49344 0.31256 0.0
O32 O 0.11194 0.52136 0.38723 0.0
C33 C 0.17603 0.52665 0.30908 0.0
Co34 Co 0.4811 0.86521 0.68266 0.0
Co35 Co 0.46392 0.80193 0.71308 0.0
C36 C 0.42517 0.86173 0.7232 0.0
O37 O 0.44205 0.87737 0.70462 0.0
O38 O 0.43084 0.83277 0.72815 0.0
C39 C 0.4781 0.91863 0.64307 0.0
O40 O 0.44763 0.91412 0.64283 0.0
C41 C 0.42389 0.74568 0.71985 0.0
C42 C 0.45418 0.71476 0.74749 0.0
C43 C 0.4249 0.7163 0.73372 0.0
N44 N 0.45127 0.76049 0.72515 0.0
N45 N 0.46927 0.74176 0.7416 0.0
C46 C 0.3969 0.76035 0.70333 0.0
H47 H 0.39969 0.78613 0.70234 0.0
H48 H 0.39611 0.75133 0.67941 0.0
H49 H 0.37447 0.7543 0.71482 0.0
C50 C 0.48308 0.82665 0.62642 0.0
N51 N 0.47667 0.83022 0.65658 0.0
N52 N 0.47112 0.80273 0.66894 0.0
C53 C 0.47458 0.78058 0.64673 0.0
C54 C 0.48179 0.79519 0.61892 0.0
C55 C 0.49363 0.85251 0.60563 0.0
H56 H 0.51416 0.86452 0.61586 0.0
H57 H 0.47431 0.86961 0.60299 0.0
H58 H 0.50022 0.84383 0.58246 0.0
O59 O 0.51477 0.85848 0.71336 0.0
O60 O 0.50311 0.81374 0.73658 0.0
H61 H 0.48624 0.74054 0.67397 0.0
H62 H 0.48381 0.73284 0.63294 0.0
C63 C 0.4735 0.74612 0.65245 0.0
H64 H 0.44875 0.73882 0.65541 0.0
H65 H 0.49178 0.74754 0.74907 0.0
O66 O 0.49554 0.90067 0.65864 0.0
C67 C 0.52067 0.83775 0.73348 0.0
Co68 Co 0.87344 0.5276 0.38215 0.0
Co69 Co 0.81191 0.55023 0.35123 0.0
C70 C 0.87342 0.58579 0.34411 0.0
O71 O 0.88712 0.56661 0.36187 0.0
O72 O 0.84432 0.58268 0.33793 0.0
C73 C 0.92453 0.53343 0.4221 0.0
O74 O 0.91529 0.56278 0.42253 0.0
C75 C 0.75833 0.59334 0.34982 0.0
C76 C 0.72494 0.56934 0.31907 0.0
C77 C 0.72851 0.596 0.33704 0.0
N78 N 0.77139 0.56635 0.34014 0.0
N79 N 0.7513 0.55214 0.3217 0.0
C80 C 0.77505 0.6166 0.36969 0.0
H81 H 0.80075 0.61295 0.36851 0.0
H82 H 0.7677 0.61346 0.39394 0.0
H83 H 0.76919 0.64084 0.36259 0.0
C84 C 0.83361 0.52403 0.43703 0.0
N85 N 0.8383 0.53269 0.40763 0.0
N86 N 0.81142 0.54049 0.39502 0.0
C87 C 0.78846 0.53618 0.41629 0.0
C88 C 0.80197 0.52607 0.44376 0.0
C89 C 0.85851 0.51072 0.45748 0.0
H90 H 0.87039 0.49099 0.44565 0.0
H91 H 0.87605 0.52912 0.46253 0.0
H92 H 0.84891 0.50232 0.47967 0.0
O93 O 0.86538 0.49538 0.35015 0.0
O94 O 0.82214 0.51146 0.32628 0.0
H95 H 0.74934 0.52855 0.38625 0.0
H96 H 0.74033 0.52481 0.42687 0.0
C97 C 0.75415 0.53797 0.40956 0.0
H98 H 0.7466 0.56279 0.41019 0.0
H99 H 0.75554 0.53067 0.31099 0.0
O100 O 0.9092 0.51355 0.40647 0.0
C101 C 0.84477 0.49202 0.3292 0.0
Co102 Co 0.5264 0.14378 0.67704 0.0
Co103 Co 0.54241 0.20795 0.70634 0.0
C104 C 0.58279 0.14967 0.71678 0.0
O105 O 0.56613 0.13317 0.69868 0.0
O106 O 0.57616 0.17844 0.72162 0.0
C107 C 0.53051 0.08922 0.63872 0.0
O108 O 0.56095 0.09393 0.63874 0.0
C109 C 0.58332 0.26291 0.71279 0.0
C110 C 0.55179 0.29786 0.73387 0.0
C111 C 0.58216 0.29383 0.72304 0.0
N112 N 0.55512 0.24957 0.71745 0.0
N113 N 0.53644 0.27056 0.73024 0.0
C114 C 0.60973 0.24671 0.69661 0.0
H115 H 0.60077 0.22671 0.68284 0.0
H116 H 0.62243 0.26327 0.68144 0.0
H117 H 0.62638 0.23745 0.71393 0.0
C118 C 0.52434 0.18082 0.62002 0.0
N119 N 0.52967 0.17825 0.65044 0.0
N120 N 0.53619 0.20596 0.66202 0.0
C121 C 0.53543 0.22713 0.63877 0.0
C122 C 0.52783 0.21174 0.61144 0.0
C123 C 0.51547 0.15418 0.59934 0.0
H124 H 0.49499 0.14167 0.60907 0.0
H125 H 0.53545 0.13769 0.59765 0.0
H126 H 0.50951 0.16217 0.57582 0.0
O127 O 0.49262 0.15063 0.70736 0.0
O128 O 0.50247 0.19645 0.72961 0.0
H129 H 0.53311 0.2746 0.62201 0.0
H130 H 0.56623 0.26571 0.64622 0.0
C131 C 0.54085 0.26147 0.64264 0.0
H132 H 0.52809 0.27011 0.66321 0.0
H133 H 0.51306 0.26641 0.73601 0.0
O134 O 0.51272 0.10752 0.65364 0.0
C135 C 0.48564 0.17184 0.72674 0.0
Co136 Co 0.14148 0.5213 0.68649 0.0
Co137 Co 0.20756 0.54011 0.70949 0.0
C138 C 0.15022 0.57807 0.7262 0.0
O139 O 0.13321 0.56048 0.70962 0.0
O140 O 0.17953 0.57293 0.72876 0.0
C141 C 0.0895 0.53513 0.65019 0.0
O142 O 0.10233 0.56307 0.65023 0.0
C143 C 0.26045 0.58334 0.71173 0.0
C144 C 0.29969 0.55413 0.72812 0.0
C145 C 0.2922 0.58427 0.71886 0.0
N146 N 0.24984 0.55405 0.7163 0.0
N147 N 0.27342 0.53667 0.72609 0.0
C148 C 0.23947 0.61016 0.70348 0.0
H149 H 0.22785 0.61879 0.72471 0.0
H150 H 0.22086 0.60212 0.6875 0.0
H151 H 0.25251 0.62992 0.6932 0.0
C152 C 0.17334 0.51706 0.62739 0.0
N153 N 0.17373 0.52385 0.65751 0.0
N154 N 0.20136 0.53475 0.66531 0.0
C155 C 0.21895 0.53711 0.63925 0.0
C156 C 0.20145 0.52614 0.61419 0.0
C157 C 0.14714 0.50019 0.61145 0.0
H158 H 0.13597 0.48324 0.6273 0.0
H159 H 0.12935 0.51731 0.60364 0.0
H160 H 0.15594 0.48735 0.59096 0.0
O161 O 0.1504 0.48739 0.71503 0.0
O162 O 0.1981 0.49903 0.73271 0.0
H163 H 0.26611 0.53908 0.65581 0.0
H164 H 0.26207 0.54719 0.6151 0.0
C165 C 0.2513 0.55045 0.63812 0.0
H166 H 0.25025 0.57583 0.64343 0.0
H167 H 0.27159 0.51294 0.73141 0.0
O168 O 0.10246 0.51297 0.66488 0.0
C169 C 0.1738 0.48128 0.73206 0.0
Co170 Co 0.53321 0.87111 0.38205 0.0
Co171 Co 0.54997 0.80701 0.35264 0.0
C172 C 0.59257 0.86386 0.34629 0.0
O173 O 0.57424 0.88052 0.36258 0.0
O174 O 0.58618 0.83518 0.34093 0.0
C175 C 0.54221 0.92423 0.42041 0.0
O176 O 0.57165 0.91518 0.42059 0.0
C177 C 0.58877 0.75004 0.3466 0.0
C178 C 0.55994 0.72066 0.31589 0.0
C179 C 0.58855 0.72148 0.33105 0.0
N180 N 0.56167 0.76517 0.34079 0.0
N181 N 0.54446 0.7473 0.32264 0.0
C182 C 0.61502 0.76385 0.36494 0.0
H183 H 0.61132 0.78922 0.36877 0.0
H184 H 0.61595 0.75237 0.38776 0.0
H185 H 0.63776 0.75983 0.35314 0.0
C186 C 0.52526 0.83265 0.43766 0.0
N187 N 0.53405 0.83589 0.40808 0.0
N188 N 0.53993 0.80818 0.39615 0.0
C189 C 0.5346 0.78627 0.41809 0.0
C190 C 0.5254 0.80118 0.44526 0.0
C191 C 0.51447 0.85911 0.45771 0.0
H192 H 0.4952 0.87193 0.44615 0.0
H193 H 0.53422 0.87553 0.46135 0.0
H194 H 0.50623 0.85091 0.4805 0.0
O195 O 0.5006 0.86633 0.34951 0.0
O196 O 0.51302 0.82136 0.32669 0.0
H197 H 0.5235 0.74618 0.39054 0.0
H198 H 0.52468 0.73864 0.43162 0.0
C199 C 0.53564 0.75177 0.41242 0.0
H200 H 0.56043 0.7443 0.41008 0.0
H201 H 0.52249 0.75365 0.31416 0.0
O202 O 0.52203 0.90822 0.40582 0.0
C203 C 0.49575 0.84579 0.32877 0.0
Co204 Co 0.87259 0.47925 0.67609 0.0
Co205 Co 0.81154 0.45654 0.70768 0.0
C206 C 0.87257 0.42085 0.71426 0.0
O207 O 0.88597 0.44046 0.69677 0.0
O208 O 0.84345 0.42353 0.72061 0.0
C209 C 0.9229 0.4711 0.63541 0.0
O210 O 0.91225 0.44225 0.63464 0.0
C211 C 0.75919 0.41274 0.7145 0.0
C212 C 0.72301 0.44128 0.73762 0.0
C213 C 0.7286 0.41164 0.72565 0.0
N214 N 0.77097 0.44147 0.71979 0.0
N215 N 0.74925 0.45839 0.73374 0.0
C216 C 0.77633 0.38804 0.69675 0.0
H217 H 0.79466 0.39882 0.68206 0.0
H218 H 0.75985 0.37434 0.68228 0.0
H219 H 0.78801 0.3719 0.71308 0.0
C220 C 0.83241 0.48244 0.62161 0.0
N221 N 0.83732 0.47411 0.65104 0.0
N222 N 0.81071 0.46551 0.66373 0.0
C223 C 0.78774 0.4685 0.64233 0.0
C224 C 0.80093 0.47902 0.61482 0.0
C225 C 0.85687 0.49661 0.60117 0.0
H226 H 0.86922 0.51564 0.6136 0.0
H227 H 0.87417 0.47836 0.59479 0.0
H228 H 0.84677 0.50616 0.57967 0.0
O229 O 0.86518 0.51222 0.70744 0.0
O230 O 0.8226 0.4956 0.73212 0.0
H231 H 0.74705 0.47745 0.66976 0.0
H232 H 0.73902 0.472 0.62913 0.0
C233 C 0.7536 0.46416 0.64878 0.0
H234 H 0.74895 0.43903 0.65317 0.0
H235 H 0.75216 0.48176 0.74017 0.0
O236 O 0.9085 0.49155 0.65126 0.0
C237 C 0.84486 0.51538 0.72872 0.0
Co238 Co 0.47633 0.13927 0.37276 0.0
Co239 Co 0.46447 0.20443 0.3437 0.0
C240 C 0.42271 0.14708 0.33135 0.0
O241 O 0.43649 0.1305 0.35139 0.0
O242 O 0.43179 0.17499 0.32601 0.0
C243 C 0.46531 0.08628 0.41016 0.0
O244 O 0.43598 0.09557 0.40886 0.0
C245 C 0.42169 0.25779 0.3425 0.0
C246 C 0.4465 0.29289 0.3145 0.0
C247 C 0.41886 0.28793 0.3307 0.0
N248 N 0.44961 0.24581 0.33394 0.0
N249 N 0.46436 0.26696 0.3172 0.0
C250 C 0.39762 0.23966 0.36011 0.0
H251 H 0.40273 0.21426 0.35933 0.0
H252 H 0.39801 0.24699 0.38457 0.0
H253 H 0.37383 0.24421 0.35081 0.0
C254 C 0.48039 0.17654 0.42999 0.0
N255 N 0.47471 0.17394 0.39959 0.0
N256 N 0.47007 0.20191 0.3879 0.0
C257 C 0.47279 0.22331 0.41088 0.0
C258 C 0.4793 0.20781 0.43829 0.0
C259 C 0.48772 0.14962 0.45075 0.0
H260 H 0.50711 0.13555 0.44081 0.0
H261 H 0.46671 0.13453 0.4528 0.0
H262 H 0.49453 0.15753 0.47412 0.0
O263 O 0.50977 0.14463 0.34113 0.0
O264 O 0.50495 0.19264 0.32164 0.0
H265 H 0.48215 0.26442 0.38414 0.0
H266 H 0.48399 0.27028 0.42543 0.0
C267 C 0.47155 0.25799 0.40653 0.0
H268 H 0.44676 0.26575 0.40664 0.0
H269 H 0.48647 0.26362 0.30743 0.0
O270 O 0.48636 0.10181 0.3963 0.0
C271 C 0.51904 0.16617 0.32304 0.0
Co272 Co 0.64123 0.98825 0.86456 0.0
Co273 Co 0.70698 0.967 0.84243 0.0
C274 C 0.64983 0.92873 0.82804 0.0
O275 O 0.63303 0.94799 0.84302 0.0
O276 O 0.67931 0.93279 0.82572 0.0
C277 C 0.59065 0.97439 0.90197 0.0
O278 O 0.60485 0.94711 0.90265 0.0
C279 C 0.76048 0.92408 0.84068 0.0
C280 C 0.79951 0.95374 0.82458 0.0
C281 C 0.79235 0.92351 0.83382 0.0
N282 N 0.74951 0.95324 0.83597 0.0
N283 N 0.77298 0.97087 0.82636 0.0
C284 C 0.73977 0.89702 0.84878 0.0
H285 H 0.72688 0.88959 0.82785 0.0
H286 H 0.72212 0.90443 0.8661 0.0
H287 H 0.7531 0.87662 0.85733 0.0
C288 C 0.67315 0.99539 0.92325 0.0
N289 N 0.67361 0.98727 0.89343 0.0
N290 N 0.70094 0.97514 0.88631 0.0
C291 C 0.71813 0.97326 0.91264 0.0
C292 C 0.70077 0.98592 0.93711 0.0
C293 C 0.64714 0.0134 0.93834 0.0
H294 H 0.636 0.02947 0.92162 0.0
H295 H 0.62926 0.99696 0.94727 0.0
H296 H 0.65618 0.02729 0.95804 0.0
O297 O 0.64956 0.02059 0.83419 0.0
O298 O 0.69626 0.0059 0.81599 0.0
H299 H 0.76542 0.96863 0.8969 0.0
H300 H 0.76029 0.96187 0.93775 0.0
C301 C 0.7498 0.95845 0.91465 0.0
H302 H 0.74769 0.93302 0.90994 0.0
H303 H 0.7709 0.99458 0.82099 0.0
O304 O 0.60229 0.99661 0.88633 0.0
C305 C 0.67246 0.02441 0.81584 0.0
Co306 Co 0.98017 0.3695 0.18296 0.0
Co307 Co 0.96713 0.30487 0.21345 0.0
C308 C 0.92733 0.36288 0.22675 0.0
O309 O 0.94192 0.37909 0.20693 0.0
O310 O 0.9349 0.33442 0.23158 0.0
C311 C 0.96731 0.42199 0.14548 0.0
O312 O 0.9382 0.41224 0.14784 0.0
C313 C 0.92565 0.25009 0.22065 0.0
C314 C 0.95596 0.21629 0.2447 0.0
C315 C 0.92586 0.21997 0.23304 0.0
N316 N 0.95413 0.26319 0.22481 0.0
N317 N 0.97214 0.24275 0.2391 0.0
C318 C 0.89863 0.26697 0.20632 0.0
H319 H 0.90327 0.29241 0.20495 0.0
H320 H 0.89515 0.25822 0.18255 0.0
H321 H 0.87683 0.26271 0.21963 0.0
C322 C 0.98174 0.33142 0.12647 0.0
N323 N 0.97646 0.33454 0.15687 0.0
N324 N 0.97124 0.30686 0.16902 0.0
C325 C 0.97297 0.28512 0.14625 0.0
C326 C 0.97968 0.30011 0.11857 0.0
C327 C 0.99001 0.35785 0.10542 0.0
H328 H 0.00978 0.3714 0.11525 0.0
H329 H 0.96949 0.37359 0.10317 0.0
H330 H 0.99664 0.3495 0.08214 0.0
O331 O 0.0156 0.36367 0.21187 0.0
O332 O 0.00824 0.31725 0.23409 0.0
H333 H 0.97883 0.23742 0.13068 0.0
H334 H 0.94554 0.24447 0.15534 0.0
C335 C 0.97041 0.2506 0.1511 0.0
H336 H 0.98417 0.24372 0.17162 0.0
H337 H 0.99538 0.24697 0.24533 0.0
O338 O 0.98906 0.40677 0.15858 0.0
C339 C 0.02408 0.34249 0.23067 0.0
Co340 Co 0.37218 0.02554 0.87832 0.0
Co341 Co 0.31101 0.05153 0.84926 0.0
C342 C 0.37256 0.08589 0.84274 0.0
O343 O 0.38576 0.06524 0.85917 0.0
O344 O 0.34338 0.08402 0.83669 0.0
C345 C 0.42214 0.03283 0.91869 0.0
O346 O 0.41026 0.06115 0.92074 0.0
C347 C 0.2588 0.097 0.84702 0.0
C348 C 0.22317 0.07203 0.81964 0.0
C349 C 0.2285 0.09982 0.83538 0.0
N350 N 0.27049 0.06881 0.83885 0.0
N351 N 0.24902 0.05408 0.82242 0.0
C352 C 0.27712 0.12133 0.86415 0.0
H353 H 0.30254 0.11633 0.86315 0.0
H354 H 0.27008 0.12141 0.88866 0.0
H355 H 0.27234 0.14491 0.85457 0.0
C356 C 0.33324 0.02091 0.93376 0.0
N357 N 0.33734 0.02951 0.90425 0.0
N358 N 0.31106 0.04097 0.89317 0.0
C359 C 0.28934 0.04039 0.9161 0.0
C360 C 0.30283 0.02764 0.94251 0.0
C361 C 0.35803 0.00616 0.95335 0.0
H362 H 0.37107 0.98835 0.93987 0.0
H363 H 0.37458 0.02449 0.96118 0.0
H364 H 0.34804 0.99481 0.97403 0.0
O365 O 0.36402 0.99439 0.84579 0.0
O366 O 0.32119 0.01284 0.82276 0.0
H367 H 0.24683 0.04248 0.88987 0.0
H368 H 0.24113 0.0395 0.93106 0.0
C369 C 0.25581 0.04991 0.91265 0.0
H370 H 0.25404 0.07571 0.91437 0.0
H371 H 0.25196 0.0317 0.81317 0.0
O372 O 0.40854 0.01251 0.90204 0.0
C373 C 0.34331 0.99254 0.82481 0.0
Co374 Co 0.02738 0.64008 0.17205 0.0
Co375 Co 0.04237 0.70422 0.20273 0.0
C376 C 0.08491 0.64767 0.21039 0.0
O377 O 0.06765 0.63105 0.19304 0.0
O378 O 0.07782 0.67612 0.21607 0.0
C379 C 0.03832 0.58697 0.13408 0.0
O380 O 0.06757 0.59656 0.13464 0.0
C381 C 0.08253 0.75923 0.21323 0.0
C382 C 0.04947 0.79384 0.2326 0.0
C383 C 0.08065 0.78974 0.22444 0.0
N384 N 0.05379 0.74619 0.21452 0.0
N385 N 0.03414 0.76707 0.22604 0.0
C386 C 0.11129 0.74136 0.20409 0.0
H387 H 0.11687 0.72425 0.22243 0.0
H388 H 0.10659 0.72794 0.1827 0.0
H389 H 0.13198 0.75661 0.20092 0.0
C390 C 0.02305 0.67868 0.11627 0.0
N391 N 0.02905 0.67539 0.14647 0.0
N392 N 0.03554 0.70286 0.15861 0.0
C393 C 0.03436 0.72459 0.13594 0.0
C394 C 0.0262 0.70987 0.10842 0.0
C395 C 0.01424 0.65233 0.09522 0.0
H396 H 0.9949 0.63859 0.10558 0.0
H397 H 0.03475 0.63669 0.09215 0.0
H398 H 0.00681 0.66081 0.07228 0.0
O399 O 0.99341 0.64501 0.20266 0.0
O400 O 1.00321 0.6902 0.2263 0.0
H401 H 0.02505 0.76759 0.15946 0.0
H402 H 0.03554 0.77221 0.1193 0.0
C403 C 0.04021 0.75875 0.14061 0.0
H404 H 0.06496 0.76227 0.1476 0.0
H405 H 0.01031 0.76295 0.22968 0.0
O406 O 0.01741 0.6028 0.14792 0.0
C407 C 0.98657 0.66548 0.22291 0.0
Co408 Co 0.64696 1.00346 0.19056 0.0
Co409 Co 0.70214 0.04549 0.2114 0.0
C410 C 0.63731 0.06924 0.21815 0.0
O411 O 0.62837 0.04322 0.20675 0.0
O412 O 0.66647 0.07519 0.22111 0.0
C413 C 0.59947 0.99748 0.14769 0.0
O414 O 0.60923 0.0258 0.14089 0.0
C415 C 0.75235 0.09498 0.21595 0.0
C416 C 0.79218 0.06622 0.23173 0.0
C417 C 0.78411 0.09646 0.22347 0.0
N418 N 0.74239 0.06514 0.21925 0.0
N419 N 0.76643 0.04825 0.22882 0.0
C420 C 0.73161 0.12173 0.20701 0.0
H421 H 0.70699 0.11697 0.21345 0.0
H422 H 0.73266 0.12503 0.18175 0.0
H423 H 0.73952 0.14372 0.21822 0.0
C424 C 0.68406 0.99564 0.1359 0.0
N425 N 0.68004 0.00891 0.16353 0.0
N426 N 0.70121 0.03048 0.16845 0.0
C427 C 0.71782 0.03381 0.14187 0.0
C428 C 0.70711 0.01194 0.11977 0.0
C429 C 0.66996 0.9644 0.12813 0.0
H430 H 0.66563 0.9509 0.1495 0.0
H431 H 0.64708 0.96755 0.11652 0.0
H432 H 0.68575 0.95068 0.11292 0.0
O433 O 0.65994 0.97806 0.22411 0.0
O434 O 0.69703 0.00904 0.24323 0.0
H435 H 0.76593 0.04695 0.13803 0.0
H436 H 0.73948 0.06978 0.11482 0.0
C437 C 0.74248 0.05818 0.13741 0.0
H438 H 0.7412 0.07598 0.15582 0.0
H439 H 0.76532 0.02426 0.23313 0.0
O440 O 0.61311 0.98234 0.16886 0.0
C441 C 0.68009 0.98418 0.2446 0.0
Co442 Co 0.0272 0.37262 0.88559 0.0
Co443 Co 0.04857 0.31129 0.85288 0.0
C444 C 0.08567 0.37145 0.84703 0.0
O445 O 0.06633 0.38504 0.86482 0.0
O446 O 0.08206 0.34267 0.8399 0.0
C447 C 0.03533 0.42471 0.92501 0.0
O448 O 0.0647 0.41542 0.925 0.0
C449 C 0.09069 0.25662 0.84335 0.0
C450 C 0.06066 0.22505 0.81605 0.0
C451 C 0.09038 0.22752 0.82875 0.0
N452 N 0.06248 0.27041 0.83949 0.0
N453 N 0.04467 0.25126 0.82325 0.0
C454 C 0.11787 0.27201 0.859 0.0
H455 H 0.1136 0.29739 0.86213 0.0
H456 H 0.12122 0.26153 0.88204 0.0
H457 H 0.13966 0.26822 0.84552 0.0
C458 C 0.02537 0.33248 0.93996 0.0
N459 N 0.03191 0.33703 0.91005 0.0
N460 N 0.04095 0.31055 0.89729 0.0
C461 C 0.04061 0.28812 0.9194 0.0
C462 C 0.03066 0.30143 0.94711 0.0
C463 C 0.01377 0.35748 0.96135 0.0
H464 H 0.99392 0.37013 0.9506 0.0
H465 H 0.03295 0.37439 0.9657 0.0
H466 H 0.00603 0.34786 0.98375 0.0
O467 O 0.99372 0.36582 0.85522 0.0
O468 O 0.00829 0.32301 0.8297 0.0
H469 H 0.03701 0.24632 0.89232 0.0
H470 H 0.03996 0.23969 0.93341 0.0
C471 C 0.0481 0.25438 0.91397 0.0
H472 H 0.07382 0.25165 0.9116 0.0
H473 H 0.02167 0.25625 0.81673 0.0
O474 O 0.01501 0.40878 0.9105 0.0
C475 C 0.9891 0.34568 0.83412 0.0
Co476 Co 0.36862 0.98059 0.18216 0.0
Co477 Co 0.30441 0.96068 0.20976 0.0
C478 C 0.36495 0.92548 0.22413 0.0
O479 O 0.38055 0.94265 0.20587 0.0
O480 O 0.33551 0.92967 0.22758 0.0
C481 C 0.42176 0.97145 0.14575 0.0
O482 O 0.41214 0.94226 0.14693 0.0
C483 C 0.25109 0.91711 0.21099 0.0
C484 C 0.21503 0.94345 0.23666 0.0
C485 C 0.2203 0.9153 0.22152 0.0
N486 N 0.26313 0.94507 0.21916 0.0
N487 N 0.24144 0.96066 0.23459 0.0
C488 C 0.26955 0.89213 0.1949 0.0
H489 H 0.29504 0.89618 0.19768 0.0
H490 H 0.26423 0.89254 0.16998 0.0
H491 H 0.26321 0.8687 0.20395 0.0
C492 C 0.33265 0.98182 0.12439 0.0
N493 N 0.33506 0.97517 0.1546 0.0
N494 N 0.3074 0.96734 0.16551 0.0
C495 C 0.28639 0.96877 0.14208 0.0
C496 C 0.30183 0.97794 0.11528 0.0
C497 C 0.35923 0.99285 0.10466 0.0
H498 H 0.37126 0.01276 0.116 0.0
H499 H 0.37622 0.97347 0.10163 0.0
H500 H 0.35128 1.00028 0.08156 0.0
O501 O 0.359 0.0145 0.21181 0.0
O502 O 0.31343 1.00095 0.23304 0.0
H503 H 0.24376 0.97444 0.16774 0.0
H504 H 0.23892 0.97561 0.12636 0.0
C505 C 0.2518 0.96439 0.14557 0.0
H506 H 0.24633 0.93905 0.14538 0.0
H507 H 0.24461 0.9831 0.2436 0.0
O508 O 0.40605 0.9926 0.15931 0.0
C509 C 0.33687 0.01956 0.23089 0.0
Co510 Co 0.97957 0.64173 0.8712 0.0
Co511 Co 0.96396 0.70604 0.84108 0.0
C512 C 0.92491 0.64803 0.82859 0.0
O513 O 0.94137 0.63204 0.84712 0.0
O514 O 0.93073 0.67697 0.82416 0.0
C515 C 0.96572 0.58978 0.90874 0.0
O516 O 0.93686 0.60017 0.90606 0.0
C517 C 0.9249 0.76284 0.83366 0.0
C518 C 0.95682 0.79452 0.80875 0.0
C519 C 0.92679 0.79267 0.8209 0.0
N520 N 0.95252 0.74805 0.82937 0.0
N521 N 0.97149 0.76723 0.81454 0.0
C522 C 0.89677 0.74778 0.84794 0.0
H523 H 0.89973 0.72205 0.84913 0.0
H524 H 0.89368 0.7567 0.87169 0.0
H525 H 0.87536 0.75365 0.83466 0.0
C526 C 0.98106 0.67965 0.92766 0.0
N527 N 0.97558 0.67663 0.8973 0.0
N528 N 0.96921 0.7042 0.88544 0.0
C529 C 0.97036 0.72577 0.90842 0.0
C530 C 0.97787 0.71076 0.93587 0.0
C531 C 0.99029 0.6533 0.94843 0.0
H532 H 0.96995 0.6375 0.95154 0.0
H533 H 0.99773 0.66175 0.97141 0.0
H534 H 0.00976 0.63981 0.9379 0.0
O535 O 0.01494 0.6476 0.84222 0.0
O536 O 1.00393 0.69274 0.81907 0.0
H537 H 0.97525 0.77346 0.92425 0.0
H538 H 0.9412 0.76559 0.90103 0.0
C539 C 0.96642 0.76023 0.90404 0.0
H540 H 0.97906 0.76782 0.88306 0.0
H541 H 0.99438 0.76158 0.8081 0.0
O542 O 0.98796 0.60439 0.89569 0.0
C543 C 0.02136 0.66854 0.82239 0.0
H544 H 0.97387 0.57162 0.43134 0.0
H545 H 0.94434 0.47541 0.43885 0.0
H546 H 0.99886 0.45861 0.44344 0.0
H547 H 0.05396 0.47031 0.43279 0.0
H548 H 0.0827 0.5659 0.41829 0.0
H549 H 0.02966 0.58413 0.42963 0.0
C550 C 0.97936 0.54711 0.43501 0.0
C551 C 0.95543 0.52466 0.43405 0.0
C552 C 0.0107 0.53753 0.43584 0.0
C553 C 0.96264 0.49298 0.43895 0.0
C554 C 0.99376 0.48338 0.44145 0.0
C555 C 0.04877 0.49517 0.43311 0.0
C556 C 0.07172 0.51675 0.42412 0.0
C557 C 0.01794 0.50526 0.43797 0.0
C558 C 0.06499 0.54891 0.42463 0.0
C559 C 0.03472 0.55931 0.43102 0.0
H560 H 0.56074 0.03536 0.62448 0.0
H561 H 0.46952 0.07904 0.62391 0.0
H562 H 0.44453 0.02816 0.61768 0.0
H563 H 0.4484 0.97154 0.62509 0.0
H564 H 0.53958 0.928 0.62958 0.0
H565 H 0.56477 0.97835 0.62081 0.0
C566 C 0.53548 0.03378 0.62201 0.0
C567 C 0.5169 0.06056 0.62571 0.0
C568 C 0.52121 1.00439 0.61966 0.0
C569 C 0.48422 0.05844 0.62198 0.0
C570 C 0.4699 0.02938 0.61848 0.0
C571 C 0.47373 0.97296 0.62322 0.0
C572 C 0.49217 0.94651 0.62905 0.0
C573 C 0.48808 1.00213 0.61933 0.0
C574 C 0.52494 0.94841 0.62604 0.0
C575 C 0.53938 0.97716 0.62107 0.0
H576 H 0.94708 0.52848 0.6252 0.0
H577 H 0.96942 0.43004 0.6202 0.0
H578 H 0.0252 0.44239 0.61801 0.0
H579 H 0.06666 0.48017 0.62981 0.0
H580 H 0.04422 0.57832 0.63803 0.0
H581 H 0.98935 0.56719 0.62622 0.0
C582 C 0.96417 0.50979 0.62282 0.0
C583 C 0.95442 0.47843 0.62396 0.0
C584 C 0.9961 0.51701 0.62274 0.0
C585 C 0.9765 0.45439 0.61991 0.0
C586 C 0.00839 0.46141 0.61892 0.0
C587 C 0.04981 0.49915 0.62838 0.0
C588 C 0.05896 0.5298 0.63573 0.0
C589 C 0.01836 0.49248 0.62233 0.0
C590 C 0.03742 0.55444 0.63291 0.0
C591 C 0.00608 0.54808 0.6263 0.0
H592 H 0.48375 0.94459 0.43306 0.0
H593 H 0.58059 0.97379 0.43276 0.0
H594 H 0.56433 0.0285 0.43608 0.0
H595 H 0.52296 0.06723 0.42741 0.0
H596 H 0.42624 0.03781 0.42411 0.0
H597 H 0.44203 0.9839 0.43443 0.0
C598 C 0.50128 0.96293 0.43445 0.0
C599 C 0.53322 0.95542 0.43167 0.0
C600 C 0.49177 0.99422 0.43523 0.0
C601 C 0.55581 0.97913 0.4344 0.0
C602 C 0.54653 0.0104 0.43605 0.0
C603 C 0.50531 0.04908 0.42957 0.0
C604 C 0.47364 0.0561 0.42403 0.0
C605 C 0.51462 0.01815 0.4346 0.0
C606 C 0.45084 0.03276 0.4278 0.0
C607 C 0.45986 1.00195 0.43354 0.0
H608 H 0.56612 0.02846 0.92277 0.0
H609 H 0.54706 0.92967 0.91425 0.0
H610 H 0.4919 0.93887 0.92649 0.0
H611 H 0.4483 0.97616 0.92798 0.0
H612 H 0.46728 0.07521 0.93385 0.0
H613 H 0.52346 0.06472 0.93536 0.0
C614 C 0.54993 0.00893 0.92426 0.0
C615 C 0.56008 0.97865 0.9167 0.0
C616 C 0.51833 0.01448 0.93065 0.0
C617 C 0.53945 0.95327 0.91957 0.0
C618 C 0.50795 0.95853 0.92641 0.0
C619 C 0.46476 0.99536 0.93043 0.0
C620 C 0.45395 0.02638 0.92973 0.0
C621 C 0.49692 0.98922 0.93023 0.0
C622 C 0.4752 0.05112 0.93384 0.0
C623 C 0.50732 0.04516 0.93443 0.0
H624 H 0.02426 0.44316 0.12809 0.0
H625 H 0.92652 0.46915 0.13169 0.0
H626 H 0.9403 0.52353 0.12123 0.0
H627 H 0.98053 0.56433 0.1221 0.0
H628 H 0.07839 0.53858 0.12201 0.0
H629 H 0.06415 0.48333 0.11919 0.0
C630 C 0.00594 0.46065 0.12598 0.0
C631 C 0.97456 0.45249 0.13161 0.0
C632 C 0.01409 0.49189 0.12085 0.0
C633 C 0.95092 0.47504 0.12793 0.0
C634 C 0.95879 0.50614 0.1221 0.0
C635 C 0.99874 0.54663 0.12075 0.0
C636 C 0.03039 0.55532 0.12325 0.0
C637 C 0.99038 0.515 0.12023 0.0
C638 C 0.05382 0.53237 0.1206 0.0
C639 C 0.04569 0.50078 0.11922 0.0
H640 H 0.4707 0.9322 0.1381 0.0
H641 H 0.44194 0.02815 0.12558 0.0
H642 H 0.49635 0.04371 0.11733 0.0
H643 H 0.55179 0.03177 0.12505 0.0
H644 H 0.58039 0.93689 0.14392 0.0
H645 H 0.52644 0.91891 0.13756 0.0
C646 C 0.4763 0.95633 0.13268 0.0
C647 C 0.45268 0.97916 0.13312 0.0
C648 C 0.50766 0.9653 0.1295 0.0
C649 C 0.46002 0.01033 0.12594 0.0
C650 C 0.49107 0.01923 0.12128 0.0
C651 C 0.54633 0.00704 0.12681 0.0
C652 C 0.56965 0.98572 0.13557 0.0
C653 C 0.51514 0.9972 0.12475 0.0
C654 C 0.56249 0.95373 0.13771 0.0
C655 C 0.5317 0.94348 0.13419 0.0
H656 H 0.02164 0.56851 0.92886 0.0
H657 H 0.92407 0.54304 0.92107 0.0
H658 H 0.937 0.4887 0.93283 0.0
H659 H 0.97703 0.44766 0.93429 0.0
H660 H 0.07488 0.47292 0.93888 0.0
H661 H 0.06078 0.52825 0.94037 0.0
C662 C 1.00315 0.55114 0.93035 0.0
C663 C 0.97214 0.55939 0.92318 0.0
C664 C 0.01085 0.51993 0.93632 0.0
C665 C 0.94821 0.53705 0.92604 0.0
C666 C 0.9556 0.50597 0.93262 0.0
C667 C 0.99523 0.46527 0.93637 0.0
C668 C 0.02693 0.4564 0.93545 0.0
C669 C 0.98701 0.49696 0.93611 0.0
C670 C 0.05029 0.47925 0.93904 0.0
C671 C 0.04226 0.5109 0.93965 0.0
H672 H 0.30483 0.37796 0.36244 0.0
H673 H 0.32726 0.4128 0.27215 0.0
H674 H 0.36885 0.3738 0.26698 0.0
H675 H 0.39974 0.33049 0.2885 0.0
H676 H 0.37917 0.2976 0.37996 0.0
H677 H 0.33579 0.33444 0.38399 0.0
C678 C 0.31831 0.37654 0.34138 0.0
C679 C 0.31253 0.39793 0.31749 0.0
C680 C 0.34262 0.3543 0.33874 0.0
C681 C 0.33112 0.39651 0.29082 0.0
C682 C 0.35494 0.37423 0.28784 0.0
C683 C 0.38571 0.3313 0.30929 0.0
C684 C 0.39229 0.31047 0.33347 0.0
C685 C 0.36109 0.35315 0.31175 0.0
C686 C 0.37401 0.3122 0.36038 0.0
C687 C 0.34933 0.33368 0.3629 0.0
H688 H 0.3337 0.60307 0.76216 0.0
H689 H 0.30166 0.62408 0.67063 0.0
H690 H 0.33872 0.66764 0.66739 0.0
H691 H 0.38164 0.69864 0.69 0.0
H692 H 0.41421 0.67692 0.78135 0.0
H693 H 0.37613 0.63451 0.78499 0.0
C694 C 0.33476 0.61736 0.7416 0.0
C695 C 0.31432 0.61101 0.71705 0.0
C696 C 0.35643 0.64213 0.73979 0.0
C697 C 0.31627 0.6293 0.69033 0.0
C698 C 0.33773 0.65399 0.68833 0.0
C699 C 0.37995 0.68521 0.711 0.0
C700 C 0.40046 0.69149 0.7356 0.0
C701 C 0.35793 0.66068 0.71294 0.0
C702 C 0.39868 0.67275 0.76209 0.0
C703 C 0.37686 0.64846 0.76423 0.0
H704 H 0.63125 0.70167 0.37434 0.0
H705 H 0.60194 0.68649 0.2806 0.0
H706 H 0.64258 0.64682 0.2741 0.0
H707 H 0.68663 0.61643 0.29484 0.0
H708 H 0.71533 0.63092 0.38883 0.0
H709 H 0.67558 0.67146 0.39505 0.0
C710 C 0.63415 0.6903 0.35227 0.0
C711 C 0.61385 0.69765 0.32781 0.0
C712 C 0.6577 0.66744 0.34863 0.0
C713 C 0.61723 0.68144 0.29982 0.0
C714 C 0.64056 0.65876 0.29602 0.0
C715 C 0.68427 0.62854 0.31667 0.0
C716 C 0.70465 0.62114 0.34102 0.0
C717 C 0.66093 0.65156 0.32026 0.0
C718 C 0.70098 0.63687 0.36924 0.0
C719 C 0.67787 0.65985 0.37298 0.0
H720 H 0.66572 0.41605 0.71839 0.0
H721 H 0.73948 0.3485 0.73222 0.0
H722 H 0.70116 0.30608 0.73157 0.0
H723 H 0.64627 0.2883 0.72906 0.0
H724 H 0.57259 0.35609 0.71544 0.0
H725 H 0.61114 0.3982 0.71483 0.0
C726 C 0.67343 0.39202 0.72117 0.0
C727 C 0.70557 0.38551 0.72469 0.0
C728 C 0.65118 0.36773 0.72108 0.0
C729 C 0.7151 0.35423 0.72845 0.0
C730 C 0.69309 0.32992 0.72843 0.0
C731 C 0.63864 0.31212 0.72519 0.0
C732 C 0.60648 0.31881 0.72172 0.0
C733 C 0.66103 0.33637 0.72477 0.0
C734 C 0.59713 0.35016 0.71809 0.0
C735 C 0.61918 0.37432 0.71767 0.0
H736 H 0.88225 0.80964 0.86363 0.0
H737 H 0.91765 0.83301 0.77367 0.0
H738 H 0.8793 0.87525 0.76955 0.0
H739 H 0.83562 0.90585 0.7915 0.0
H740 H 0.80106 0.88327 0.88185 0.0
H741 H 0.83848 0.84004 0.88552 0.0
C742 C 0.88112 0.82339 0.84281 0.0
C743 C 0.90245 0.81759 0.81871 0.0
C744 C 0.85899 0.84781 0.84061 0.0
C745 C 0.90145 0.8368 0.79252 0.0
C746 C 0.87948 0.86097 0.7901 0.0
C747 C 0.83622 0.89131 0.8119 0.0
C748 C 0.81488 0.89708 0.83593 0.0
C749 C 0.85815 0.86674 0.81401 0.0
C750 C 0.8163 0.87847 0.86248 0.0
C751 C 0.83798 0.85397 0.86475 0.0
H752 H 0.83213 0.10887 0.26229 0.0
H753 H 0.78726 0.14338 0.18034 0.0
H754 H 0.82631 0.18497 0.17633 0.0
H755 H 0.87503 0.20964 0.19447 0.0
H756 H 0.91936 0.17552 0.27703 0.0
H757 H 0.87933 0.13518 0.28179 0.0
C758 C 0.83073 0.12568 0.24369 0.0
C759 C 0.80635 0.12328 0.22202 0.0
C760 C 0.85349 0.14941 0.24138 0.0
C761 C 0.80507 0.14513 0.19793 0.0
C762 C 0.82771 0.16875 0.1954 0.0
C763 C 0.8756 0.19416 0.21405 0.0
C764 C 0.90015 0.19632 0.23568 0.0
C765 C 0.85217 0.17104 0.2169 0.0
C766 C 0.90088 0.17464 0.25999 0.0
C767 C 0.87789 0.15153 0.26283 0.0
H768 H 0.13558 0.21017 0.87059 0.0
H769 H 0.10154 0.19034 0.77928 0.0
H770 H 0.14134 0.14974 0.77302 0.0
H771 H 0.18551 0.11926 0.79363 0.0
H772 H 0.21856 0.13826 0.88544 0.0
H773 H 0.18031 0.18025 0.89093 0.0
C774 C 0.13731 0.19762 0.84903 0.0
C775 C 0.11586 0.20387 0.82522 0.0
C776 C 0.16029 0.17411 0.84559 0.0
C777 C 0.11776 0.18617 0.79797 0.0
C778 C 0.14057 0.16293 0.79433 0.0
C779 C 0.18446 0.1327 0.81479 0.0
C780 C 0.20564 0.12605 0.83871 0.0
C781 C 0.16189 0.15658 0.81803 0.0
C782 C 0.20362 0.14352 0.8661 0.0
C783 C 0.18134 0.16737 0.86945 0.0
H784 H 0.17579 0.89672 0.26214 0.0
H785 H 0.21101 0.87756 0.17107 0.0
H786 H 0.17186 0.83659 0.16427 0.0
H787 H 0.12599 0.80735 0.18341 0.0
H788 H 0.09049 0.82661 0.27431 0.0
H789 H 0.13057 0.86688 0.28161 0.0
C790 C 0.17499 0.88345 0.24087 0.0
C791 C 0.19695 0.88974 0.2175 0.0
C792 C 0.15207 0.86006 0.23696 0.0
C793 C 0.19533 0.87253 0.18994 0.0
C794 C 0.17259 0.84929 0.18586 0.0
C795 C 0.1276 0.81975 0.20512 0.0
C796 C 0.10585 0.81335 0.22864 0.0
C797 C 0.15082 0.84282 0.2092 0.0
C798 C 0.10718 0.83086 0.256 0.0
C799 C 0.13011 0.85386 0.2602 0.0
H800 H 0.17249 0.58951 0.31081 0.0
H801 H 0.16983 0.51106 0.24856 0.0
H802 H 0.14376 0.54351 0.20981 0.0
H803 H 0.11305 0.59125 0.19803 0.0
H804 H 0.11584 0.66943 0.26108 0.0
H805 H 0.15076 0.64025 0.29487 0.0
C806 C 0.16743 0.57994 0.28822 0.0
C807 C 0.17318 0.54798 0.28248 0.0
C808 C 0.15168 0.59852 0.2665 0.0
C809 C 0.16616 0.5357 0.25333 0.0
C810 C 0.15072 0.55415 0.23139 0.0
C811 C 0.12181 0.60217 0.21885 0.0
C812 C 0.1112 0.63236 0.22724 0.0
C813 C 0.14195 0.58514 0.23836 0.0
C814 C 0.12327 0.64623 0.25408 0.0
C815 C 0.14322 0.62948 0.27353 0.0
H816 H 0.58056 0.85637 0.7222 0.0
H817 H 0.51583 0.83672 0.79571 0.0
H818 H 0.55157 0.86107 0.83277 0.0
H819 H 0.59809 0.89428 0.84285 0.0
H820 H 0.66472 0.91023 0.76999 0.0
H821 H 0.63183 0.88061 0.73426 0.0
C822 C 0.57477 0.85662 0.74648 0.0
C823 C 0.54559 0.84483 0.75623 0.0
C824 C 0.59567 0.87029 0.76772 0.0
C825 C 0.53828 0.84533 0.78772 0.0
C826 C 0.5586 0.85955 0.80887 0.0
C827 C 0.60576 0.89054 0.81934 0.0
C828 C 0.63372 0.90467 0.80904 0.0
C829 C 0.5869 0.87302 0.79897 0.0
C830 C 0.64344 0.8995 0.77856 0.0
C831 C 0.62448 0.88277 0.75803 0.0
H832 H 0.86483 0.43241 0.33854 0.0
H833 H 0.83835 0.49686 0.2671 0.0
H834 H 0.85911 0.46097 0.22805 0.0
H835 H 0.89111 0.41436 0.21505 0.0
H836 H 0.91466 0.34856 0.28645 0.0
H837 H 0.88829 0.38147 0.32451 0.0
C838 C 0.86291 0.43819 0.31435 0.0
C839 C 0.85026 0.46733 0.30572 0.0
C840 C 0.87463 0.41728 0.29202 0.0
C841 C 0.84777 0.4745 0.27432 0.0
C842 C 0.85991 0.45408 0.25199 0.0
C843 C 0.88982 0.40688 0.23882 0.0
C844 C 0.90518 0.37915 0.24789 0.0
C845 C 0.87432 0.42586 0.26066 0.0
C846 C 0.90304 0.36969 0.27876 0.0
C847 C 0.88815 0.38866 0.30063 0.0
H848 H 0.36497 0.11412 0.78677 0.0
H849 H 0.42673 0.11071 0.86507 0.0
H850 H 0.4655 0.1421 0.83763 0.0
H851 H 0.48508 0.1643 0.78881 0.0
H852 H 0.42548 0.16305 0.70905 0.0
H853 H 0.38277 0.14047 0.73938 0.0
C854 C 0.38654 0.12097 0.79809 0.0
C855 C 0.39283 0.11004 0.828 0.0
C856 C 0.40939 0.13814 0.78168 0.0
C857 C 0.42124 0.11873 0.84208 0.0
C858 C 0.44353 0.13663 0.82634 0.0
C859 C 0.46236 0.16006 0.77844 0.0
C860 C 0.45821 0.16589 0.74689 0.0
C861 C 0.43834 0.14565 0.79577 0.0
C862 C 0.42902 0.15925 0.73342 0.0
C863 C 0.40469 0.14606 0.75072 0.0
H864 H 0.16677 0.48184 0.79392 0.0
H865 H 0.16916 0.42041 0.71543 0.0
H866 H 0.14578 0.37828 0.74582 0.0
H867 H 0.11649 0.36204 0.79223 0.0
H868 H 0.1106 0.42551 0.86931 0.0
H869 H 0.14348 0.46321 0.84243 0.0
C870 C 0.16341 0.45878 0.78395 0.0
C871 C 0.17031 0.45399 0.75268 0.0
C872 C 0.14849 0.43513 0.80123 0.0
C873 C 0.16469 0.42439 0.73965 0.0
C874 C 0.1509 0.40042 0.75694 0.0
C875 C 0.12309 0.38375 0.80343 0.0
C876 C 0.11074 0.39093 0.83269 0.0
C877 C 0.14145 0.40593 0.78741 0.0
C878 C 0.11942 0.4194 0.84671 0.0
C879 C 0.13826 0.44108 0.83132 0.0
H880 H 0.43547 0.86545 0.33703 0.0
H881 H 0.50298 0.8429 0.26667 0.0
H882 H 0.46769 0.86371 0.22724 0.0
H883 H 0.41966 0.89337 0.2135 0.0
H884 H 0.3503 0.91163 0.28348 0.0
H885 H 0.38381 0.88707 0.32204 0.0
C886 C 0.44212 0.8645 0.31297 0.0
C887 C 0.47187 0.85275 0.3048 0.0
C888 C 0.42136 0.87591 0.29032 0.0
C889 C 0.48014 0.85158 0.27354 0.0
C890 C 0.46003 0.8637 0.251 0.0
C891 C 0.41158 0.89132 0.23706 0.0
C892 C 0.38247 0.90454 0.24552 0.0
C893 C 0.43086 0.87662 0.25918 0.0
C894 C 0.3724 0.90154 0.27618 0.0
C895 C 0.39172 0.8877 0.29837 0.0
H896 H 0.86267 0.57563 0.7186 0.0
H897 H 0.84031 0.51067 0.79097 0.0
H898 H 0.86053 0.54753 0.82934 0.0
H899 H 0.8909 0.59541 0.84139 0.0
H900 H 0.9101 0.66176 0.76924 0.0
H901 H 0.88431 0.62761 0.7319 0.0
C902 C 0.86153 0.56992 0.74286 0.0
C903 C 0.85019 0.54038 0.75193 0.0
C904 C 0.87286 0.59143 0.76483 0.0
C905 C 0.84871 0.53331 0.78342 0.0
C906 C 0.86053 0.5543 0.80535 0.0
C907 C 0.88873 0.60274 0.81763 0.0
C908 C 0.90271 0.63103 0.80812 0.0
C909 C 0.87357 0.58303 0.79623 0.0
C910 C 0.89949 0.64025 0.77727 0.0
C911 C 0.88496 0.62055 0.75581 0.0
H912 H 0.51457 0.13192 0.27138 0.0
H913 H 0.58146 0.18024 0.32816 0.0
H914 H 0.62482 0.15689 0.29863 0.0
H915 H 0.6435 0.11782 0.26001 0.0
H916 H 0.57517 0.06921 0.20443 0.0
H917 H 0.53296 0.09769 0.22964 0.0
C918 C 0.53867 0.138 0.27667 0.0
C919 C 0.54486 0.15815 0.30153 0.0
C920 C 0.56333 0.12403 0.25995 0.0
C921 C 0.57614 0.16528 0.3087 0.0
C922 C 0.60091 0.15166 0.29198 0.0
C923 C 0.61943 0.11394 0.25298 0.0
C924 C 0.61274 0.09101 0.23042 0.0
C925 C 0.59483 0.1303 0.268 0.0
C926 C 0.58124 0.08635 0.22184 0.0
C927 C 0.55693 0.10265 0.2363 0.0
H928 H 0.61631 0.09627 0.70375 0.0
H929 H 0.60332 0.16703 0.77358 0.0
H930 H 0.63427 0.13624 0.80966 0.0
H931 H 0.65826 0.08568 0.82371 0.0
H932 H 0.67384 0.01584 0.75382 0.0
H933 H 0.64936 0.04987 0.71538 0.0
C934 C 0.62084 0.10526 0.72665 0.0
C935 C 0.60704 0.13383 0.73598 0.0
C936 C 0.6391 0.08749 0.74736 0.0
C937 C 0.61351 0.14521 0.76568 0.0
C938 C 0.63112 0.12749 0.78646 0.0
C939 C 0.65736 0.07846 0.79979 0.0
C940 C 0.66804 0.04836 0.79157 0.0
C941 C 0.64315 0.09815 0.77789 0.0
C942 C 0.66635 0.03909 0.76062 0.0
C943 C 0.65191 0.05841 0.73872 0.0
H944 H 0.14819 0.39914 0.28508 0.0
H945 H 0.08443 0.42259 0.35862 0.0
H946 H 0.04361 0.39063 0.33493 0.0
H947 H 0.02363 0.36169 0.28989 0.0
H948 H 0.08549 0.34221 0.21404 0.0
H949 H 0.1293 0.36625 0.24191 0.0
C950 C 0.12562 0.3966 0.29629 0.0
C951 C 0.11948 0.41331 0.32366 0.0
C952 C 0.10171 0.37892 0.28189 0.0
C953 C 0.08985 0.41011 0.33756 0.0
C954 C 0.06639 0.39186 0.32395 0.0
C955 C 0.04699 0.36179 0.28001 0.0
C956 C 0.05157 0.34952 0.2503 0.0
C957 C 0.07171 0.37691 0.29567 0.0
C958 C 0.08163 0.35085 0.23717 0.0
C959 C 0.10659 0.36491 0.253 0.0
H960 H 0.39399 0.91667 0.7111 0.0
H961 H 0.40596 0.84617 0.78095 0.0
H962 H 0.37853 0.87922 0.81808 0.0
H963 H 0.35747 0.93107 0.8326 0.0
H964 H 0.34234 1.00055 0.7626 0.0
H965 H 0.36412 0.965 0.72368 0.0
C966 C 0.38995 0.90824 0.73425 0.0
C967 C 0.40241 0.87898 0.74318 0.0
C968 C 0.37375 0.92735 0.7556 0.0
C969 C 0.39669 0.86843 0.77328 0.0
C970 C 0.38115 0.88747 0.79468 0.0
C971 C 0.3581 0.93805 0.80865 0.0
C972 C 0.3483 0.96844 0.80052 0.0
C973 C 0.37046 0.91737 0.78638 0.0
C974 C 0.34935 0.9772 0.76942 0.0
C975 C 0.36215 0.95696 0.74721 0.0
H976 H 0.98451 0.66328 0.28571 0.0
H977 H 0.92781 0.65055 0.20481 0.0
H978 H 0.88526 0.62911 0.23606 0.0
H979 H 0.86679 0.60752 0.28541 0.0
H980 H 0.92577 0.6152 0.36545 0.0
H981 H 0.96425 0.64514 0.33602 0.0
C982 C 0.96247 0.65666 0.27515 0.0
C983 C 0.95915 0.6589 0.24302 0.0
C984 C 0.93851 0.64297 0.2932 0.0
C985 C 0.93079 0.64934 0.22952 0.0
C986 C 0.90651 0.63689 0.24738 0.0
C987 C 0.88765 0.61651 0.2966 0.0
C988 C 0.8932 0.60923 0.3277 0.0
C989 C 0.91041 0.63267 0.27913 0.0
C990 C 0.92079 0.6205 0.3416 0.0
C991 C 0.94294 0.63754 0.32471 0.0
H992 H 0.68105 0.92113 0.24611 0.0
H993 H 0.6721 1.00234 0.30426 0.0
H994 H 0.64676 0.97048 0.34393 0.0
H995 H 0.61797 0.92193 0.35709 0.0
H996 H 0.62673 0.84104 0.29796 0.0
H997 H 0.66151 0.87017 0.26397 0.0
C998 C 0.67485 0.93153 0.26808 0.0
C999 C 0.67855 0.96405 0.27227 0.0
C1000 C 0.6594 0.91323 0.29028 0.0
C1001 C 0.67005 0.97732 0.30065 0.0
C1002 C 0.65497 0.95916 0.3231 0.0
C1003 C 0.62803 0.91042 0.33714 0.0
C1004 C 0.61908 0.8794 0.32986 0.0
C1005 C 0.64804 0.92745 0.31743 0.0
C1006 C 0.63283 0.86486 0.30412 0.0
C1007 C 0.65271 0.88158 0.28453 0.0
H1008 H 0.98648 0.34709 0.77127 0.0
H1009 H 0.92967 0.35726 0.85258 0.0
H1010 H 0.88602 0.37673 0.82169 0.0
H1011 H 0.86659 0.39809 0.77266 0.0
H1012 H 0.92529 0.39273 0.69213 0.0
H1013 H 0.965 0.36402 0.7211 0.0
C1014 C 0.9642 0.35267 0.782 0.0
C1015 C 0.96123 0.35045 0.81415 0.0
C1016 C 0.93951 0.36521 0.76414 0.0
C1017 C 0.93246 0.35857 0.82786 0.0
C1018 C 0.90752 0.3699 0.8102 0.0
C1019 C 0.88764 0.38981 0.76125 0.0
C1020 C 0.89282 0.39751 0.7302 0.0
C1021 C 0.91109 0.37436 0.77845 0.0
C1022 C 0.92063 0.38712 0.71598 0.0
C1023 C 0.94349 0.37081 0.73261 0.0
H1024 H 0.35833 0.07841 0.22045 0.0
H1025 H 0.32801 0.01677 0.29281 0.0
H1026 H 0.34945 0.05268 0.33142 0.0
H1027 H 0.38366 0.09787 0.34384 0.0
H1028 H 0.4112 0.16089 0.27137 0.0
H1029 H 0.38362 0.12862 0.23374 0.0
C1030 C 0.3556 0.07335 0.24473 0.0
C1031 C 0.34171 0.04492 0.25377 0.0
C1032 C 0.36785 0.09422 0.26679 0.0
C1033 C 0.33831 0.03862 0.28528 0.0
C1034 C 0.3509 0.05901 0.30735 0.0
C1035 C 0.38295 0.10493 0.31992 0.0
C1036 C 0.39983 0.13162 0.31044 0.0
C1037 C 0.36673 0.08633 0.29831 0.0
C1038 C 0.39843 0.14057 0.27938 0.0
C1039 C 0.38284 0.12195 0.25775 0.0
H1040 H 0.07987 0.64615 0.83437 0.0
H1041 H 0.0191 0.67379 0.76019 0.0
H1042 H 0.05519 0.65031 0.72286 0.0
H1043 H 0.1006 0.61574 0.71214 0.0
H1044 H 0.16346 0.59166 0.78591 0.0
H1045 H 0.13043 0.62026 0.82245 0.0
C1046 C 0.07503 0.64777 0.80995 0.0
C1047 C 0.0468 0.66159 0.80005 0.0
C1048 C 0.09615 0.63457 0.78857 0.0
C1049 C 0.04078 0.66356 0.76837 0.0
C1050 C 0.06129 0.64985 0.74703 0.0
C1051 C 0.10746 0.61746 0.73609 0.0
C1052 C 0.13435 0.60138 0.74633 0.0
C1053 C 0.08855 0.6344 0.75694 0.0
C1054 C 0.14302 0.60394 0.77739 0.0
C1055 C 0.12397 0.62009 0.79836 0.0
H1056 H 0.24874 0.50397 0.57469 0.0
H1057 H 0.16285 0.55748 0.57724 0.0
H1058 H 0.15638 0.55067 0.52234 0.0
H1059 H 0.17036 0.52272 0.47665 0.0
H1060 H 0.26367 0.48517 0.46629 0.0
H1061 H 0.27097 0.48981 0.52196 0.0
C1062 C 0.22931 0.5151 0.56299 0.0
C1063 C 0.20559 0.53024 0.58035 0.0
C1064 C 0.22643 0.51265 0.53048 0.0
C1065 C 0.18086 0.5449 0.56467 0.0
C1066 C 0.17701 0.5409 0.53325 0.0
C1067 C 0.19348 0.51772 0.48513 0.0
C1068 C 0.21645 0.50436 0.4658 0.0
C1069 C 0.19904 0.52392 0.51621 0.0
C1070 C 0.24485 0.49504 0.47976 0.0
C1071 C 0.24937 0.49824 0.51185 0.0
H1072 H 0.55644 0.78112 0.49634 0.0
H1073 H 0.46402 0.79446 0.459 0.0
H1074 H 0.44098 0.78822 0.51017 0.0
H1075 H 0.44816 0.78836 0.56654 0.0
H1076 H 0.54047 0.77578 0.60425 0.0
H1077 H 0.56253 0.77164 0.55234 0.0
C1078 C 0.5312 0.78138 0.49935 0.0
C1079 C 0.51188 0.78794 0.47395 0.0
C1080 C 0.51815 0.77827 0.52908 0.0
C1081 C 0.47925 0.78897 0.47817 0.0
C1082 C 0.46612 0.78573 0.5075 0.0
C1083 C 0.47287 0.7833 0.5633 0.0
C1084 C 0.49263 0.78187 0.58913 0.0
C1085 C 0.48541 0.78161 0.5333 0.0
C1086 C 0.52476 0.77626 0.5847 0.0
C1087 C 0.53741 0.77434 0.55498 0.0
H1088 H 0.78462 0.557 0.49576 0.0
H1089 H 0.7895 0.46516 0.45521 0.0
H1090 H 0.78373 0.44117 0.50593 0.0
H1091 H 0.78809 0.44685 0.56243 0.0
H1092 H 0.78345 0.53865 0.60305 0.0
H1093 H 0.77761 0.56218 0.55211 0.0
C1094 C 0.78295 0.53178 0.49799 0.0
C1095 C 0.7872 0.51283 0.47182 0.0
C1096 C 0.78016 0.51816 0.52743 0.0
C1097 C 0.78576 0.48015 0.47501 0.0
C1098 C 0.78287 0.46645 0.50408 0.0
C1099 C 0.7843 0.47184 0.56011 0.0
C1100 C 0.78586 0.491 0.58641 0.0
C1101 C 0.78152 0.48522 0.53059 0.0
C1102 C 0.78174 0.52345 0.58315 0.0
C1103 C 0.77883 0.53692 0.55396 0.0
H1104 H 0.53427 0.21772 0.46823 0.0
H1105 H 0.43421 0.22351 0.47942 0.0
H1106 H 0.44057 0.23072 0.53501 0.0
H1107 H 0.47443 0.22675 0.58106 0.0
H1108 H 0.57441 0.21977 0.56991 0.0
H1109 H 0.56862 0.22234 0.51392 0.0
C1110 C 0.51401 0.2217 0.48281 0.0
C1111 C 0.48381 0.22041 0.46985 0.0
C1112 C 0.51793 0.22535 0.51484 0.0
C1113 C 0.45764 0.22488 0.48891 0.0
C1114 C 0.4613 0.22872 0.52072 0.0
C1115 C 0.49495 0.22715 0.56632 0.0
C1116 C 0.52486 0.2236 0.57951 0.0
C1117 C 0.49128 0.22789 0.53408 0.0
C1118 C 0.55126 0.22316 0.56025 0.0
C1119 C 0.54788 0.22421 0.52822 0.0
H1120 H 0.74747 0.00805 0.97712 0.0
H1121 H 0.66077 0.95605 0.97396 0.0
H1122 H 0.65376 0.96313 0.0288 0.0
H1123 H 0.66808 0.99002 0.07516 0.0
H1124 H 0.76135 0.02738 0.08557 0.0
H1125 H 0.76904 0.02261 0.02985 0.0
C1126 C 0.72769 0.99737 0.98867 0.0
C1127 C 0.70406 0.9824 0.97114 0.0
C1128 C 0.72439 1.00012 1.02114 0.0
C1129 C 0.6788 0.96841 0.98664 0.0
C1130 C 0.67464 0.97257 1.01805 0.0
C1131 C 0.69113 0.99521 0.06644 0.0
C1132 C 0.71413 0.0084 0.08577 0.0
C1133 C 0.69675 0.98919 0.03527 0.0
C1134 C 0.7426 0.01766 0.07192 0.0
C1135 C 0.7473 0.01439 0.03986 0.0
H1136 H 0.97681 0.2849 0.9759 0.0
H1137 H 0.07666 0.29047 0.98858 0.0
H1138 H 0.06997 0.28523 0.0443 0.0
H1139 H 0.03492 0.28889 0.0896 0.0
H1140 H 0.93498 0.28519 0.07687 0.0
H1141 H 0.94219 0.27933 1.02124 0.0
C1142 C 0.99709 0.28358 0.99086 0.0
C1143 C 0.02722 0.28768 0.97824 0.0
C1144 C 0.9929 0.28143 1.02296 0.0
C1145 C 0.05334 0.28679 0.99778 0.0
C1146 C 0.04945 0.28421 0.02968 0.0
C1147 C 0.01485 0.28552 0.07466 0.0
C1148 C 0.98445 0.28712 0.08721 0.0
C1149 C 0.01927 0.28287 0.04261 0.0
C1150 C 0.95855 0.28353 0.0677 0.0
C1151 C 0.9627 0.28051 0.03587 0.0
H1152 H 0.29249 0.03311 0.08568 0.0
H1153 H 0.28619 0.93332 0.07358 0.0
H1154 H 0.28045 0.94014 1.01791 0.0
H1155 H 0.28627 0.9742 0.97223 0.0
H1156 H 0.29397 0.0739 0.98436 0.0
H1157 H 0.28943 0.06776 0.0402 0.0
C1158 C 0.28871 0.01301 0.07087 0.0
C1159 C 0.28959 0.98274 0.08362 0.0
C1160 C 0.28603 0.01718 0.03879 0.0
C1161 C 0.28523 0.95679 0.06427 0.0
C1162 C 0.28226 0.96072 0.03241 0.0
C1163 C 0.2857 0.9946 0.98712 0.0
C1164 C 0.29024 0.0245 0.97427 0.0
C1165 C 0.28384 0.99073 1.0193 0.0
C1166 C 0.29009 0.05075 0.99373 0.0
C1167 C 0.28788 0.04716 1.02569 0.0
H1168 H 0.03209 0.72381 0.96573 0.0
H1169 H 0.93189 0.723 0.97712 0.0
H1170 H 0.93794 0.72794 0.03295 0.0
H1171 H 0.97205 0.72316 0.07868 0.0
H1172 H 0.07226 0.72236 0.06733 0.0
H1173 H 0.06622 0.72796 1.01157 0.0
C1174 C 0.01167 0.72602 0.98045 0.0
C1175 C 0.98157 0.72343 0.96745 0.0
C1176 C 0.01544 0.72812 1.0126 0.0
C1177 C 0.95521 0.72548 0.98666 0.0
C1178 C 0.95872 0.72794 1.01859 0.0
C1179 C 0.99249 0.72549 0.06401 0.0
C1180 C 0.02257 0.72273 0.07697 0.0
C1181 C 0.98872 0.72801 0.0319 0.0
C1182 C 0.04894 0.72497 0.05782 0.0
C1183 C 0.04544 0.72781 1.02592 0.0
loop_
_geom_bond_atom_site_label_1
_geom_bond_atom_site_label_2
_geom_bond_distance
_geom_bond_site_symmetry_2
_ccdc_geom_bond_type
Co0 O3 1.970 . S
Co0 N17 1.989 . S
Co0 O25 1.967 . S
Co0 O32 1.920 . S
Co1 O4 1.966 . S
Co1 N10 2.022 . S
Co1 N18 1.993 . S
Co1 O26 1.941 . S
C2 O3 1.258 . S
C2 O4 1.263 . S
O3 Co0 1.970 . S
O3 C2 1.258 . S
O4 Co1 1.966 . S
O4 C2 1.263 . S
C5 O6 1.235 . S
C5 O32 1.289 . S
O6 C5 1.235 . S
C7 C9 1.400 . S
C7 N10 1.351 . S
C7 C12 1.501 . S
C8 C9 1.387 . S
C8 N11 1.341 . S
C9 C7 1.400 . S
C9 C8 1.387 . S
N10 Co1 2.022 . S
N10 C7 1.351 . S
N10 N11 1.365 . S
N11 C8 1.341 . S
N11 N10 1.365 . S
N11 H31 0.862 . S
C12 C7 1.501 . S
C12 H13 0.961 . S
C12 H14 0.961 . S
C12 H15 0.960 . S
H13 C12 0.961 . S
H14 C12 0.961 . S
H15 C12 0.960 . S
C16 N17 1.342 . S
C16 C20 1.401 . S
C16 C21 1.499 . S
N17 Co0 1.989 . S
N17 C16 1.342 . S
N17 N18 1.388 . S
N18 Co1 1.993 . S
N18 N17 1.388 . S
N18 C19 1.346 . S
C19 N18 1.346 . S
C19 C20 1.396 . S
C19 C29 1.510 . S
C20 C16 1.401 . S
C20 C19 1.396 . S
C21 C16 1.499 . S
C21 H22 0.959 . S
C21 H23 0.960 . S
C21 H24 0.961 . S
H22 C21 0.959 . S
H23 C21 0.960 . S
H24 C21 0.961 . S
O25 Co0 1.967 . S
O25 C33 1.258 . S
O26 Co1 1.941 . S
O26 C33 1.266 . S
H27 C29 0.959 . S
H28 C29 0.961 . S
C29 C19 1.510 . S
C29 H27 0.959 . S
C29 H28 0.961 . S
C29 H30 0.960 . S
H30 C29 0.960 . S
H31 N11 0.862 . S
O32 Co0 1.920 . S
O32 C5 1.289 . S
C33 O25 1.258 . S
C33 O26 1.266 . S
Co34 O37 1.970 . S
Co34 N51 1.989 . S
Co34 O59 1.967 . S
Co34 O66 1.920 . S
Co35 O38 1.966 . S
Co35 N44 2.022 . S
Co35 N52 1.993 . S
Co35 O60 1.941 . S
C36 O37 1.258 . S
C36 O38 1.263 . S
O37 Co34 1.970 . S
O37 C36 1.258 . S
O38 Co35 1.966 . S
O38 C36 1.263 . S
C39 O40 1.235 . S
C39 O66 1.289 . S
O40 C39 1.235 . S
C41 C43 1.400 . S
C41 N44 1.351 . S
C41 C46 1.501 . S
C42 C43 1.387 . S
C42 N45 1.341 . S
C43 C41 1.400 . S
C43 C42 1.387 . S
N44 Co35 2.022 . S
N44 C41 1.351 . S
N44 N45 1.365 . S
N45 C42 1.341 . S
N45 N44 1.365 . S
N45 H65 0.862 . S
C46 C41 1.501 . S
C46 H47 0.961 . S
C46 H48 0.961 . S
C46 H49 0.960 . S
H47 C46 0.961 . S
H48 C46 0.961 . S
H49 C46 0.960 . S
C50 N51 1.342 . S
C50 C54 1.401 . S
C50 C55 1.499 . S
N51 Co34 1.989 . S
N51 C50 1.342 . S
N51 N52 1.388 . S
N52 Co35 1.993 . S
N52 N51 1.388 . S
N52 C53 1.346 . S
C53 N52 1.346 . S
C53 C54 1.396 . S
C53 C63 1.510 . S
C54 C50 1.401 . S
C54 C53 1.396 . S
C55 C50 1.499 . S
C55 H56 0.959 . S
C55 H57 0.960 . S
C55 H58 0.961 . S
H56 C55 0.959 . S
H57 C55 0.960 . S
H58 C55 0.961 . S
O59 Co34 1.967 . S
O59 C67 1.258 . S
O60 Co35 1.941 . S
O60 C67 1.266 . S
H61 C63 0.959 . S
H62 C63 0.961 . S
C63 C53 1.510 . S
C63 H61 0.959 . S
C63 H62 0.961 . S
C63 H64 0.960 . S
H64 C63 0.960 . S
H65 N45 0.862 . S
O66 Co34 1.920 . S
O66 C39 1.289 . S
C67 O59 1.258 . S
C67 O60 1.266 . S
Co68 O71 1.970 . S
Co68 N85 1.989 . S
Co68 O93 1.967 . S
Co68 O100 1.920 . S
Co69 O72 1.966 . S
Co69 N78 2.022 . S
Co69 N86 1.993 . S
Co69 O94 1.941 . S
C70 O71 1.258 . S
C70 O72 1.263 . S
O71 Co68 1.970 . S
O71 C70 1.258 . S
O72 Co69 1.966 . S
O72 C70 1.263 . S
C73 O74 1.235 . S
C73 O100 1.289 . S
O74 C73 1.235 . S
C75 C77 1.400 . S
C75 N78 1.351 . S
C75 C80 1.501 . S
C76 C77 1.387 . S
C76 N79 1.341 . S
C77 C75 1.400 . S
C77 C76 1.387 . S
N78 Co69 2.022 . S
N78 C75 1.351 . S
N78 N79 1.365 . S
N79 C76 1.341 . S
N79 N78 1.365 . S
N79 H99 0.862 . S
C80 C75 1.501 . S
C80 H81 0.961 . S
C80 H82 0.961 . S
C80 H83 0.960 . S
H81 C80 0.961 . S
H82 C80 0.961 . S
H83 C80 0.960 . S
C84 N85 1.342 . S
C84 C88 1.401 . S
C84 C89 1.499 . S
N85 Co68 1.989 . S
N85 C84 1.342 . S
N85 N86 1.388 . S
N86 Co69 1.993 . S
N86 N85 1.388 . S
N86 C87 1.346 . S
C87 N86 1.346 . S
C87 C88 1.396 . S
C87 C97 1.510 . S
C88 C84 1.401 . S
C88 C87 1.396 . S
C89 C84 1.499 . S
C89 H90 0.959 . S
C89 H91 0.960 . S
C89 H92 0.961 . S
H90 C89 0.959 . S
H91 C89 0.960 . S
H92 C89 0.961 . S
O93 Co68 1.967 . S
O93 C101 1.258 . S
O94 Co69 1.941 . S
O94 C101 1.266 . S
H95 C97 0.959 . S
H96 C97 0.961 . S
C97 C87 1.510 . S
C97 H95 0.959 . S
C97 H96 0.961 . S
C97 H98 0.960 . S
H98 C97 0.960 . S
H99 N79 0.862 . S
O100 Co68 1.920 . S
O100 C73 1.289 . S
C101 O93 1.258 . S
C101 O94 1.266 . S
Co102 O105 1.970 . S
Co102 N119 1.989 . S
Co102 O127 1.967 . S
Co102 O134 1.920 . S
Co103 O106 1.966 . S
Co103 N112 2.022 . S
Co103 N120 1.993 . S
Co103 O128 1.941 . S
C104 O105 1.258 . S
C104 O106 1.263 . S
O105 Co102 1.970 . S
O105 C104 1.258 . S
O106 Co103 1.966 . S
O106 C104 1.263 . S
C107 O108 1.235 . S
C107 O134 1.289 . S
O108 C107 1.235 . S
C109 C111 1.400 . S
C109 N112 1.351 . S
C109 C114 1.501 . S
C110 C111 1.387 . S
C110 N113 1.341 . S
C111 C109 1.400 . S
C111 C110 1.387 . S
N112 Co103 2.022 . S
N112 C109 1.351 . S
N112 N113 1.365 . S
N113 C110 1.341 . S
N113 N112 1.365 . S
N113 H133 0.862 . S
C114 C109 1.501 . S
C114 H115 0.961 . S
C114 H116 0.961 . S
C114 H117 0.960 . S
H115 C114 0.961 . S
H116 C114 0.961 . S
H117 C114 0.960 . S
C118 N119 1.342 . S
C118 C122 1.401 . S
C118 C123 1.499 . S
N119 Co102 1.989 . S
N119 C118 1.342 . S
N119 N120 1.388 . S
N120 Co103 1.993 . S
N120 N119 1.388 . S
N120 C121 1.346 . S
C121 N120 1.346 . S
C121 C122 1.396 . S
C121 C131 1.510 . S
C122 C118 1.401 . S
C122 C121 1.396 . S
C123 C118 1.499 . S
C123 H124 0.959 . S
C123 H125 0.960 . S
C123 H126 0.961 . S
H124 C123 0.959 . S
H125 C123 0.960 . S
H126 C123 0.961 . S
O127 Co102 1.967 . S
O127 C135 1.258 . S
O128 Co103 1.941 . S
O128 C135 1.266 . S
H129 C131 0.959 . S
H130 C131 0.961 . S
C131 C121 1.510 . S
C131 H129 0.959 . S
C131 H130 0.961 . S
C131 H132 0.960 . S
H132 C131 0.960 . S
H133 N113 0.862 . S
O134 Co102 1.920 . S
O134 C107 1.289 . S
C135 O127 1.258 . S
C135 O128 1.266 . S
Co136 O139 1.970 . S
Co136 N153 1.989 . S
Co136 O161 1.967 . S
Co136 O168 1.920 . S
Co137 O140 1.966 . S
Co137 N146 2.022 . S
Co137 N154 1.993 . S
Co137 O162 1.941 . S
C138 O139 1.258 . S
C138 O140 1.263 . S
O139 Co136 1.970 . S
O139 C138 1.258 . S
O140 Co137 1.966 . S
O140 C138 1.263 . S
C141 O142 1.235 . S
C141 O168 1.289 . S
O142 C141 1.235 . S
C143 C145 1.400 . S
C143 N146 1.351 . S
C143 C148 1.501 . S
C144 C145 1.387 . S
C144 N147 1.341 . S
C145 C143 1.400 . S
C145 C144 1.387 . S
N146 Co137 2.022 . S
N146 C143 1.351 . S
N146 N147 1.365 . S
N147 C144 1.341 . S
N147 N146 1.365 . S
N147 H167 0.862 . S
C148 C143 1.501 . S
C148 H149 0.961 . S
C148 H150 0.961 . S
C148 H151 0.960 . S
H149 C148 0.961 . S
H150 C148 0.961 . S
H151 C148 0.960 . S
C152 N153 1.342 . S
C152 C156 1.401 . S
C152 C157 1.499 . S
N153 Co136 1.989 . S
N153 C152 1.342 . S
N153 N154 1.388 . S
N154 Co137 1.993 . S
N154 N153 1.388 . S
N154 C155 1.346 . S
C155 N154 1.346 . S
C155 C156 1.396 . S
C155 C165 1.510 . S
C156 C152 1.401 . S
C156 C155 1.396 . S
C157 C152 1.499 . S
C157 H158 0.959 . S
C157 H159 0.960 . S
C157 H160 0.961 . S
H158 C157 0.959 . S
H159 C157 0.960 . S
H160 C157 0.961 . S
O161 Co136 1.967 . S
O161 C169 1.258 . S
O162 Co137 1.941 . S
O162 C169 1.266 . S
H163 C165 0.959 . S
H164 C165 0.961 . S
C165 C155 1.510 . S
C165 H163 0.959 . S
C165 H164 0.961 . S
C165 H166 0.960 . S
H166 C165 0.960 . S
H167 N147 0.862 . S
O168 Co136 1.920 . S
O168 C141 1.289 . S
C169 O161 1.258 . S
C169 O162 1.266 . S
Co170 O173 1.970 . S
Co170 N187 1.989 . S
Co170 O195 1.967 . S
Co170 O202 1.920 . S
Co171 O174 1.966 . S
Co171 N180 2.022 . S
Co171 N188 1.993 . S
Co171 O196 1.941 . S
C172 O173 1.258 . S
C172 O174 1.263 . S
O173 Co170 1.970 . S
O173 C172 1.258 . S
O174 Co171 1.966 . S
O174 C172 1.263 . S
C175 O176 1.235 . S
C175 O202 1.289 . S
O176 C175 1.235 . S
C177 C179 1.400 . S
C177 N180 1.351 . S
C177 C182 1.501 . S
C178 C179 1.387 . S
C178 N181 1.341 . S
C179 C177 1.400 . S
C179 C178 1.387 . S
N180 Co171 2.022 . S
N180 C177 1.351 . S
N180 N181 1.365 . S
N181 C178 1.341 . S
N181 N180 1.365 . S
N181 H201 0.862 . S
C182 C177 1.501 . S
C182 H183 0.961 . S
C182 H184 0.961 . S
C182 H185 0.960 . S
H183 C182 0.961 . S
H184 C182 0.961 . S
H185 C182 0.960 . S
C186 N187 1.342 . S
C186 C190 1.401 . S
C186 C191 1.499 . S
N187 Co170 1.989 . S
N187 C186 1.342 . S
N187 N188 1.388 . S
N188 Co171 1.993 . S
N188 N187 1.388 . S
N188 C189 1.346 . S
C189 N188 1.346 . S
C189 C190 1.396 . S
C189 C199 1.510 . S
C190 C186 1.401 . S
C190 C189 1.396 . S
C191 C186 1.499 . S
C191 H192 0.959 . S
C191 H193 0.960 . S
C191 H194 0.961 . S
H192 C191 0.959 . S
H193 C191 0.960 . S
H194 C191 0.961 . S
O195 Co170 1.967 . S
O195 C203 1.258 . S
O196 Co171 1.941 . S
O196 C203 1.266 . S
H197 C199 0.959 . S
H198 C199 0.961 . S
C199 C189 1.510 . S
C199 H197 0.959 . S
C199 H198 0.961 . S
C199 H200 0.960 . S
H200 C199 0.960 . S
H201 N181 0.862 . S
O202 Co170 1.920 . S
O202 C175 1.289 . S
C203 O195 1.258 . S
C203 O196 1.266 . S
Co204 O207 1.970 . S
Co204 N221 1.989 . S
Co204 O229 1.967 . S
Co204 O236 1.920 . S
Co205 O208 1.966 . S
Co205 N214 2.022 . S
Co205 N222 1.993 . S
Co205 O230 1.941 . S
C206 O207 1.258 . S
C206 O208 1.263 . S
O207 Co204 1.970 . S
O207 C206 1.258 . S
O208 Co205 1.966 . S
O208 C206 1.263 . S
C209 O210 1.235 . S
C209 O236 1.289 . S
O210 C209 1.235 . S
C211 C213 1.400 . S
C211 N214 1.351 . S
C211 C216 1.501 . S
C212 C213 1.387 . S
C212 N215 1.341 . S
C213 C211 1.400 . S
C213 C212 1.387 . S
N214 Co205 2.022 . S
N214 C211 1.351 . S
N214 N215 1.365 . S
N215 C212 1.341 . S
N215 N214 1.365 . S
N215 H235 0.862 . S
C216 C211 1.501 . S
C216 H217 0.961 . S
C216 H218 0.961 . S
C216 H219 0.960 . S
H217 C216 0.961 . S
H218 C216 0.961 . S
H219 C216 0.960 . S
C220 N221 1.342 . S
C220 C224 1.401 . S
C220 C225 1.499 . S
N221 Co204 1.989 . S
N221 C220 1.342 . S
N221 N222 1.388 . S
N222 Co205 1.993 . S
N222 N221 1.388 . S
N222 C223 1.346 . S
C223 N222 1.346 . S
C223 C224 1.396 . S
C223 C233 1.510 . S
C224 C220 1.401 . S
C224 C223 1.396 . S
C225 C220 1.499 . S
C225 H226 0.959 . S
C225 H227 0.960 . S
C225 H228 0.961 . S
H226 C225 0.959 . S
H227 C225 0.960 . S
H228 C225 0.961 . S
O229 Co204 1.967 . S
O229 C237 1.258 . S
O230 Co205 1.941 . S
O230 C237 1.266 . S
H231 C233 0.959 . S
H232 C233 0.961 . S
C233 C223 1.510 . S
C233 H231 0.959 . S
C233 H232 0.961 . S
C233 H234 0.960 . S
H234 C233 0.960 . S
H235 N215 0.862 . S
O236 Co204 1.920 . S
O236 C209 1.289 . S
C237 O229 1.258 . S
C237 O230 1.266 . S
Co238 O241 1.970 . S
Co238 N255 1.989 . S
Co238 O263 1.967 . S
Co238 O270 1.920 . S
Co239 O242 1.966 . S
Co239 N248 2.022 . S
Co239 N256 1.993 . S
Co239 O264 1.941 . S
C240 O241 1.258 . S
C240 O242 1.263 . S
O241 Co238 1.970 . S
O241 C240 1.258 . S
O242 Co239 1.966 . S
O242 C240 1.263 . S
C243 O244 1.235 . S
C243 O270 1.289 . S
O244 C243 1.235 . S
C245 C247 1.400 . S
C245 N248 1.351 . S
C245 C250 1.501 . S
C246 C247 1.387 . S
C246 N249 1.341 . S
C247 C245 1.400 . S
C247 C246 1.387 . S
N248 Co239 2.022 . S
N248 C245 1.351 . S
N248 N249 1.365 . S
N249 C246 1.341 . S
N249 N248 1.365 . S
N249 H269 0.862 . S
C250 C245 1.501 . S
C250 H251 0.961 . S
C250 H252 0.961 . S
C250 H253 0.960 . S
H251 C250 0.961 . S
H252 C250 0.961 . S
H253 C250 0.960 . S
C254 N255 1.342 . S
C254 C258 1.401 . S
C254 C259 1.499 . S
N255 Co238 1.989 . S
N255 C254 1.342 . S
N255 N256 1.388 . S
N256 Co239 1.993 . S
N256 N255 1.388 . S
N256 C257 1.346 . S
C257 N256 1.346 . S
C257 C258 1.396 . S
C257 C267 1.510 . S
C258 C254 1.401 . S
C258 C257 1.396 . S
C259 C254 1.499 . S
C259 H260 0.959 . S
C259 H261 0.960 . S
C259 H262 0.961 . S
H260 C259 0.959 . S
H261 C259 0.960 . S
H262 C259 0.961 . S
O263 Co238 1.967 . S
O263 C271 1.258 . S
O264 Co239 1.941 . S
O264 C271 1.266 . S
H265 C267 0.959 . S
H266 C267 0.961 . S
C267 C257 1.510 . S
C267 H265 0.959 . S
C267 H266 0.961 . S
C267 H268 0.960 . S
H268 C267 0.960 . S
H269 N249 0.862 . S
O270 Co238 1.920 . S
O270 C243 1.289 . S
C271 O263 1.258 . S
C271 O264 1.266 . S
Co272 O275 1.970 . S
Co272 N289 1.989 . S
Co272 O297 1.967 1_565 S
Co272 O304 1.920 1_565 S
Co273 O276 1.966 . S
Co273 N282 2.022 . S
Co273 N290 1.993 . S
Co273 O298 1.941 . S
C274 O275 1.258 . S
C274 O276 1.263 . S
O275 Co272 1.970 . S
O275 C274 1.258 . S
O276 Co273 1.966 . S
O276 C274 1.263 . S
C277 O278 1.235 . S
C277 O304 1.289 1_565 S
O278 C277 1.235 . S
C279 C281 1.400 . S
C279 N282 1.351 . S
C279 C284 1.501 . S
C280 C281 1.387 . S
C280 N283 1.341 . S
C281 C279 1.400 . S
C281 C280 1.387 . S
N282 Co273 2.022 . S
N282 C279 1.351 . S
N282 N283 1.365 . S
N283 C280 1.341 . S
N283 N282 1.365 . S
N283 H303 0.862 . S
C284 C279 1.501 . S
C284 H285 0.961 . S
C284 H286 0.961 . S
C284 H287 0.960 . S
H285 C284 0.961 . S
H286 C284 0.961 . S
H287 C284 0.960 . S
C288 N289 1.342 . S
C288 C292 1.401 . S
C288 C293 1.499 1_565 S
N289 Co272 1.989 . S
N289 C288 1.342 . S
N289 N290 1.388 . S
N290 Co273 1.993 . S
N290 N289 1.388 . S
N290 C291 1.346 . S
C291 N290 1.346 . S
C291 C292 1.396 . S
C291 C301 1.510 . S
C292 C288 1.401 . S
C292 C291 1.396 . S
C293 C288 1.499 1_545 S
C293 H294 0.959 . S
C293 H295 0.960 1_545 S
C293 H296 0.961 . S
H294 C293 0.959 . S
H295 C293 0.960 1_565 S
H296 C293 0.961 . S
O297 Co272 1.967 1_545 S
O297 C305 1.258 . S
O298 Co273 1.941 . S
O298 C305 1.266 1_565 S
H299 C301 0.959 . S
H300 C301 0.961 . S
C301 C291 1.510 . S
C301 H299 0.959 . S
C301 H300 0.961 . S
C301 H302 0.960 . S
H302 C301 0.960 . S
H303 N283 0.862 . S
O304 Co272 1.920 1_545 S
O304 C277 1.289 1_545 S
C305 O297 1.258 . S
C305 O298 1.266 1_545 S
Co306 O309 1.970 . S
Co306 N323 1.989 . S
Co306 O331 1.967 1_655 S
Co306 O338 1.920 1_655 S
Co307 O310 1.966 . S
Co307 N316 2.022 . S
Co307 N324 1.993 . S
Co307 O332 1.941 . S
C308 O309 1.258 . S
C308 O310 1.263 . S
O309 Co306 1.970 . S
O309 C308 1.258 . S
O310 Co307 1.966 . S
O310 C308 1.263 . S
C311 O312 1.235 . S
C311 O338 1.289 1_655 S
O312 C311 1.235 . S
C313 C315 1.400 . S
C313 N316 1.351 . S
C313 C318 1.501 . S
C314 C315 1.387 . S
C314 N317 1.341 . S
C315 C313 1.400 . S
C315 C314 1.387 . S
N316 Co307 2.022 . S
N316 C313 1.351 . S
N316 N317 1.365 . S
N317 C314 1.341 . S
N317 N316 1.365 . S
N317 H337 0.862 . S
C318 C313 1.501 . S
C318 H319 0.961 . S
C318 H320 0.961 . S
C318 H321 0.960 . S
H319 C318 0.961 . S
H320 C318 0.961 . S
H321 C318 0.960 . S
C322 N323 1.342 . S
C322 C326 1.401 . S
C322 C327 1.499 1_655 S
N323 Co306 1.989 . S
N323 C322 1.342 . S
N323 N324 1.388 . S
N324 Co307 1.993 . S
N324 N323 1.388 . S
N324 C325 1.346 . S
C325 N324 1.346 . S
C325 C326 1.396 . S
C325 C335 1.510 . S
C326 C322 1.401 . S
C326 C325 1.396 . S
C327 C322 1.499 1_455 S
C327 H328 0.959 . S
C327 H329 0.960 1_455 S
C327 H330 0.961 . S
H328 C327 0.959 . S
H329 C327 0.960 1_655 S
H330 C327 0.961 . S
O331 Co306 1.967 1_455 S
O331 C339 1.258 . S
O332 Co307 1.941 . S
O332 C339 1.266 1_655 S
H333 C335 0.959 . S
H334 C335 0.961 . S
C335 C325 1.510 . S
C335 H333 0.959 . S
C335 H334 0.961 . S
C335 H336 0.960 . S
H336 C335 0.960 . S
H337 N317 0.862 . S
O338 Co306 1.920 1_455 S
O338 C311 1.289 1_455 S
C339 O331 1.258 . S
C339 O332 1.266 1_455 S
Co340 O343 1.970 . S
Co340 N357 1.989 . S
Co340 O365 1.967 1_545 S
Co340 O372 1.920 1_545 S
Co341 O344 1.966 . S
Co341 N350 2.022 . S
Co341 N358 1.993 . S
Co341 O366 1.941 . S
C342 O343 1.258 . S
C342 O344 1.263 . S
O343 Co340 1.970 . S
O343 C342 1.258 . S
O344 Co341 1.966 . S
O344 C342 1.263 . S
C345 O346 1.235 . S
C345 O372 1.289 1_545 S
O346 C345 1.235 . S
C347 C349 1.400 . S
C347 N350 1.351 . S
C347 C352 1.501 . S
C348 C349 1.387 . S
C348 N351 1.341 . S
C349 C347 1.400 . S
C349 C348 1.387 . S
N350 Co341 2.022 . S
N350 C347 1.351 . S
N350 N351 1.365 . S
N351 C348 1.341 . S
N351 N350 1.365 . S
N351 H371 0.862 . S
C352 C347 1.501 . S
C352 H353 0.961 . S
C352 H354 0.961 . S
C352 H355 0.960 . S
H353 C352 0.961 . S
H354 C352 0.961 . S
H355 C352 0.960 . S
C356 N357 1.342 . S
C356 C360 1.401 . S
C356 C361 1.499 1_545 S
N357 Co340 1.989 . S
N357 C356 1.342 . S
N357 N358 1.388 . S
N358 Co341 1.993 . S
N358 N357 1.388 . S
N358 C359 1.346 . S
C359 N358 1.346 . S
C359 C360 1.396 . S
C359 C369 1.510 . S
C360 C356 1.401 . S
C360 C359 1.396 . S
C361 C356 1.499 1_565 S
C361 H362 0.959 . S
C361 H363 0.960 1_565 S
C361 H364 0.961 . S
H362 C361 0.959 . S
H363 C361 0.960 1_545 S
H364 C361 0.961 . S
O365 Co340 1.967 1_565 S
O365 C373 1.258 . S
O366 Co341 1.941 . S
O366 C373 1.266 1_545 S
H367 C369 0.959 . S
H368 C369 0.961 . S
C369 C359 1.510 . S
C369 H367 0.959 . S
C369 H368 0.961 . S
C369 H370 0.960 . S
H370 C369 0.960 . S
H371 N351 0.862 . S
O372 Co340 1.920 1_565 S
O372 C345 1.289 1_565 S
C373 O365 1.258 . S
C373 O366 1.266 1_565 S
Co374 O377 1.970 . S
Co374 N391 1.989 . S
Co374 O399 1.967 1_455 S
Co374 O406 1.920 1_455 S
Co375 O378 1.966 . S
Co375 N384 2.022 . S
Co375 N392 1.993 . S
Co375 O400 1.941 . S
C376 O377 1.258 . S
C376 O378 1.263 . S
O377 Co374 1.970 . S
O377 C376 1.258 . S
O378 Co375 1.966 . S
O378 C376 1.263 . S
C379 O380 1.235 . S
C379 O406 1.289 1_455 S
O380 C379 1.235 . S
C381 C383 1.400 . S
C381 N384 1.351 . S
C381 C386 1.501 . S
C382 C383 1.387 . S
C382 N385 1.341 . S
C383 C381 1.400 . S
C383 C382 1.387 . S
N384 Co375 2.022 . S
N384 C381 1.351 . S
N384 N385 1.365 . S
N385 C382 1.341 . S
N385 N384 1.365 . S
N385 H405 0.862 . S
C386 C381 1.501 . S
C386 H387 0.961 . S
C386 H388 0.961 . S
C386 H389 0.960 . S
H387 C386 0.961 . S
H388 C386 0.961 . S
H389 C386 0.960 . S
C390 N391 1.342 . S
C390 C394 1.401 . S
C390 C395 1.499 1_455 S
N391 Co374 1.989 . S
N391 C390 1.342 . S
N391 N392 1.388 . S
N392 Co375 1.993 . S
N392 N391 1.388 . S
N392 C393 1.346 . S
C393 N392 1.346 . S
C393 C394 1.396 . S
C393 C403 1.510 . S
C394 C390 1.401 . S
C394 C393 1.396 . S
C395 C390 1.499 1_655 S
C395 H396 0.959 . S
C395 H397 0.960 1_655 S
C395 H398 0.961 . S
H396 C395 0.959 . S
H397 C395 0.960 1_455 S
H398 C395 0.961 . S
O399 Co374 1.967 1_655 S
O399 C407 1.258 . S
O400 Co375 1.941 . S
O400 C407 1.266 1_455 S
H401 C403 0.959 . S
H402 C403 0.961 . S
C403 C393 1.510 . S
C403 H401 0.959 . S
C403 H402 0.961 . S
C403 H404 0.960 . S
H404 C403 0.960 . S
H405 N385 0.862 . S
O406 Co374 1.920 1_655 S
O406 C379 1.289 1_655 S
C407 O399 1.258 . S
C407 O400 1.266 1_655 S
Co408 O411 1.970 . S
Co408 N425 1.989 . S
Co408 O433 1.967 1_545 S
Co408 O440 1.920 1_545 S
Co409 O412 1.966 . S
Co409 N418 2.022 . S
Co409 N426 1.993 . S
Co409 O434 1.941 . S
C410 O411 1.258 . S
C410 O412 1.263 . S
O411 Co408 1.970 . S
O411 C410 1.258 . S
O412 Co409 1.966 . S
O412 C410 1.263 . S
C413 O414 1.235 . S
C413 O440 1.289 1_545 S
O414 C413 1.235 . S
C415 C417 1.400 . S
C415 N418 1.351 . S
C415 C420 1.501 . S
C416 C417 1.387 . S
C416 N419 1.341 . S
C417 C415 1.400 . S
C417 C416 1.387 . S
N418 Co409 2.022 . S
N418 C415 1.351 . S
N418 N419 1.365 . S
N419 C416 1.341 . S
N419 N418 1.365 . S
N419 H439 0.862 . S
C420 C415 1.501 . S
C420 H421 0.961 . S
C420 H422 0.961 . S
C420 H423 0.960 . S
H421 C420 0.961 . S
H422 C420 0.961 . S
H423 C420 0.960 . S
C424 N425 1.342 . S
C424 C428 1.401 . S
C424 C429 1.499 1_545 S
N425 Co408 1.989 . S
N425 C424 1.342 . S
N425 N426 1.388 . S
N426 Co409 1.993 . S
N426 N425 1.388 . S
N426 C427 1.346 . S
C427 N426 1.346 . S
C427 C428 1.396 . S
C427 C437 1.510 . S
C428 C424 1.401 . S
C428 C427 1.396 . S
C429 C424 1.499 1_565 S
C429 H430 0.959 . S
C429 H431 0.960 1_565 S
C429 H432 0.961 . S
H430 C429 0.959 . S
H431 C429 0.960 1_545 S
H432 C429 0.961 . S
O433 Co408 1.967 1_565 S
O433 C441 1.258 . S
O434 Co409 1.941 . S
O434 C441 1.266 1_545 S
H435 C437 0.959 . S
H436 C437 0.961 . S
C437 C427 1.510 . S
C437 H435 0.959 . S
C437 H436 0.961 . S
C437 H438 0.960 . S
H438 C437 0.960 . S
H439 N419 0.862 . S
O440 Co408 1.920 1_565 S
O440 C413 1.289 1_565 S
C441 O433 1.258 . S
C441 O434 1.266 1_565 S
Co442 O445 1.970 . S
Co442 N459 1.989 . S
Co442 O467 1.967 1_455 S
Co442 O474 1.920 1_455 S
Co443 O446 1.966 . S
Co443 N452 2.022 . S
Co443 N460 1.993 . S
Co443 O468 1.941 . S
C444 O445 1.258 . S
C444 O446 1.263 . S
O445 Co442 1.970 . S
O445 C444 1.258 . S
O446 Co443 1.966 . S
O446 C444 1.263 . S
C447 O448 1.235 . S
C447 O474 1.289 1_455 S
O448 C447 1.235 . S
C449 C451 1.400 . S
C449 N452 1.351 . S
C449 C454 1.501 . S
C450 C451 1.387 . S
C450 N453 1.341 . S
C451 C449 1.400 . S
C451 C450 1.387 . S
N452 Co443 2.022 . S
N452 C449 1.351 . S
N452 N453 1.365 . S
N453 C450 1.341 . S
N453 N452 1.365 . S
N453 H473 0.862 . S
C454 C449 1.501 . S
C454 H455 0.961 . S
C454 H456 0.961 . S
C454 H457 0.960 . S
H455 C454 0.961 . S
H456 C454 0.961 . S
H457 C454 0.960 . S
C458 N459 1.342 . S
C458 C462 1.401 . S
C458 C463 1.499 1_455 S
N459 Co442 1.989 . S
N459 C458 1.342 . S
N459 N460 1.388 . S
N460 Co443 1.993 . S
N460 N459 1.388 . S
N460 C461 1.346 . S
C461 N460 1.346 . S
C461 C462 1.396 . S
C461 C471 1.510 . S
C462 C458 1.401 . S
C462 C461 1.396 . S
C463 C458 1.499 1_655 S
C463 H464 0.959 . S
C463 H465 0.960 1_655 S
C463 H466 0.961 . S
H464 C463 0.959 . S
H465 C463 0.960 1_455 S
H466 C463 0.961 . S
O467 Co442 1.967 1_655 S
O467 C475 1.258 . S
O468 Co443 1.941 . S
O468 C475 1.266 1_455 S
H469 C471 0.959 . S
H470 C471 0.961 . S
C471 C461 1.510 . S
C471 H469 0.959 . S
C471 H470 0.961 . S
C471 H472 0.960 . S
H472 C471 0.960 . S
H473 N453 0.862 . S
O474 Co442 1.920 1_655 S
O474 C447 1.289 1_655 S
C475 O467 1.258 . S
C475 O468 1.266 1_655 S
Co476 O479 1.970 . S
Co476 N493 1.989 . S
Co476 O501 1.967 1_565 S
Co476 O508 1.920 1_565 S
Co477 O480 1.966 . S
Co477 N486 2.022 . S
Co477 N494 1.993 . S
Co477 O502 1.941 . S
C478 O479 1.258 . S
C478 O480 1.263 . S
O479 Co476 1.970 . S
O479 C478 1.258 . S
O480 Co477 1.966 . S
O480 C478 1.263 . S
C481 O482 1.235 . S
C481 O508 1.289 1_565 S
O482 C481 1.235 . S
C483 C485 1.400 . S
C483 N486 1.351 . S
C483 C488 1.501 . S
C484 C485 1.387 . S
C484 N487 1.341 . S
C485 C483 1.400 . S
C485 C484 1.387 . S
N486 Co477 2.022 . S
N486 C483 1.351 . S
N486 N487 1.365 . S
N487 C484 1.341 . S
N487 N486 1.365 . S
N487 H507 0.862 . S
C488 C483 1.501 . S
C488 H489 0.961 . S
C488 H490 0.961 . S
C488 H491 0.960 . S
H489 C488 0.961 . S
H490 C488 0.961 . S
H491 C488 0.960 . S
C492 N493 1.342 . S
C492 C496 1.401 . S
C492 C497 1.499 1_565 S
N493 Co476 1.989 . S
N493 C492 1.342 . S
N493 N494 1.388 . S
N494 Co477 1.993 . S
N494 N493 1.388 . S
N494 C495 1.346 . S
C495 N494 1.346 . S
C495 C496 1.396 . S
C495 C505 1.510 . S
C496 C492 1.401 . S
C496 C495 1.396 . S
C497 C492 1.499 1_545 S
C497 H498 0.959 . S
C497 H499 0.960 1_545 S
C497 H500 0.961 . S
H498 C497 0.959 . S
H499 C497 0.960 1_565 S
H500 C497 0.961 . S
O501 Co476 1.967 1_545 S
O501 C509 1.258 . S
O502 Co477 1.941 . S
O502 C509 1.266 1_565 S
H503 C505 0.959 . S
H504 C505 0.961 . S
C505 C495 1.510 . S
C505 H503 0.959 . S
C505 H504 0.961 . S
C505 H506 0.960 . S
H506 C505 0.960 . S
H507 N487 0.862 . S
O508 Co476 1.920 1_545 S
O508 C481 1.289 1_545 S
C509 O501 1.258 . S
C509 O502 1.266 1_545 S
Co510 O513 1.970 . S
Co510 N527 1.989 . S
Co510 O535 1.967 1_655 S
Co510 O542 1.920 1_655 S
Co511 O514 1.966 . S
Co511 N520 2.022 . S
Co511 N528 1.993 . S
Co511 O536 1.941 . S
C512 O513 1.258 . S
C512 O514 1.263 . S
O513 Co510 1.970 . S
O513 C512 1.258 . S
O514 Co511 1.966 . S
O514 C512 1.263 . S
C515 O516 1.235 . S
C515 O542 1.289 1_655 S
O516 C515 1.235 . S
C517 C519 1.400 . S
C517 N520 1.351 . S
C517 C522 1.501 . S
C518 C519 1.387 . S
C518 N521 1.341 . S
C519 C517 1.400 . S
C519 C518 1.387 . S
N520 Co511 2.022 . S
N520 C517 1.351 . S
N520 N521 1.365 . S
N521 C518 1.341 . S
N521 N520 1.365 . S
N521 H541 0.862 . S
C522 C517 1.501 . S
C522 H523 0.961 . S
C522 H524 0.961 . S
C522 H525 0.960 . S
H523 C522 0.961 . S
H524 C522 0.961 . S
H525 C522 0.960 . S
C526 N527 1.342 . S
C526 C530 1.401 . S
C526 C531 1.499 1_655 S
N527 Co510 1.989 . S
N527 C526 1.342 . S
N527 N528 1.388 . S
N528 Co511 1.993 . S
N528 N527 1.388 . S
N528 C529 1.346 . S
C529 N528 1.346 . S
C529 C530 1.396 . S
C529 C539 1.510 . S
C530 C526 1.401 . S
C530 C529 1.396 . S
C531 C526 1.499 1_455 S
C531 H532 0.959 . S
C531 H533 0.960 1_455 S
C531 H534 0.961 . S
H532 C531 0.959 . S
H533 C531 0.960 1_655 S
H534 C531 0.961 . S
O535 Co510 1.967 1_455 S
O535 C543 1.258 . S
O536 Co511 1.941 . S
O536 C543 1.266 1_655 S
H537 C539 0.959 . S
H538 C539 0.961 . S
C539 C529 1.510 . S
C539 H537 0.959 . S
C539 H538 0.961 . S
C539 H540 0.960 . S
H540 C539 0.960 . S
H541 N521 0.862 . S
O542 Co510 1.920 1_455 S
O542 C515 1.289 1_455 S
C543 O535 1.258 . S
C543 O536 1.266 1_455 S
H544 C550 0.930 . S
H545 C553 0.930 . S
H546 C554 0.930 . S
H547 C555 0.930 . S
H548 C558 0.930 . S
H549 C559 0.930 . S
C550 H544 0.930 . S
C550 C551 1.355 . S
C550 C552 1.415 . S
C551 C550 1.355 . S
C551 C553 1.419 . S
C552 C550 1.415 . S
C552 C557 1.425 1_655 S
C552 C559 1.409 1_655 S
C553 H545 0.930 . S
C553 C551 1.419 . S
C553 C554 1.362 . S
C554 H546 0.930 . S
C554 C553 1.362 . S
C554 C557 1.409 1_655 S
C555 H547 0.930 . S
C555 C556 1.355 . S
C555 C557 1.415 . S
C556 C555 1.355 . S
C556 C558 1.419 . S
C557 C552 1.425 1_455 S
C557 C554 1.409 1_455 S
C557 C555 1.415 . S
C558 H548 0.930 . S
C558 C556 1.419 . S
C558 C559 1.362 . S
C559 H549 0.930 . S
C559 C552 1.409 1_455 S
C559 C558 1.362 . S
H560 C566 0.930 . S
H561 C569 0.930 . S
H562 C570 0.930 . S
H563 C571 0.930 . S
H564 C574 0.930 . S
H565 C575 0.930 . S
C566 H560 0.930 . S
C566 C567 1.355 . S
C566 C568 1.415 . S
C567 C566 1.355 . S
C567 C569 1.419 . S
C568 C566 1.415 . S
C568 C573 1.425 1_545 S
C568 C575 1.409 1_545 S
C569 H561 0.930 . S
C569 C567 1.419 . S
C569 C570 1.362 . S
C570 H562 0.930 . S
C570 C569 1.362 . S
C570 C573 1.409 1_545 S
C571 H563 0.930 . S
C571 C572 1.355 . S
C571 C573 1.415 . S
C572 C571 1.355 . S
C572 C574 1.419 . S
C573 C568 1.425 1_565 S
C573 C570 1.409 1_565 S
C573 C571 1.415 . S
C574 H564 0.930 . S
C574 C572 1.419 . S
C574 C575 1.362 . S
C575 H565 0.930 . S
C575 C568 1.409 1_565 S
C575 C574 1.362 . S
H576 C582 0.930 . S
H577 C585 0.930 . S
H578 C586 0.930 . S
H579 C587 0.930 . S
H580 C590 0.930 . S
H581 C591 0.930 . S
C582 H576 0.930 . S
C582 C583 1.355 . S
C582 C584 1.415 . S
C583 C582 1.355 . S
C583 C585 1.419 . S
C584 C582 1.415 . S
C584 C589 1.425 1_655 S
C584 C591 1.409 1_655 S
C585 H577 0.930 . S
C585 C583 1.419 . S
C585 C586 1.362 . S
C586 H578 0.930 . S
C586 C585 1.362 . S
C586 C589 1.409 1_655 S
C587 H579 0.930 . S
C587 C588 1.355 . S
C587 C589 1.415 . S
C588 C587 1.355 . S
C588 C590 1.419 . S
C589 C584 1.425 1_455 S
C589 C586 1.409 1_455 S
C589 C587 1.415 . S
C590 H580 0.930 . S
C590 C588 1.419 . S
C590 C591 1.362 . S
C591 H581 0.930 . S
C591 C584 1.409 1_455 S
C591 C590 1.362 . S
H592 C598 0.930 . S
H593 C601 0.930 . S
H594 C602 0.930 . S
H595 C603 0.930 . S
H596 C606 0.930 . S
H597 C607 0.930 . S
C598 H592 0.930 . S
C598 C599 1.355 . S
C598 C600 1.415 . S
C599 C598 1.355 . S
C599 C601 1.419 . S
C600 C598 1.415 . S
C600 C605 1.425 1_565 S
C600 C607 1.409 1_565 S
C601 H593 0.930 . S
C601 C599 1.419 . S
C601 C602 1.362 . S
C602 H594 0.930 . S
C602 C601 1.362 . S
C602 C605 1.409 1_565 S
C603 H595 0.930 . S
C603 C604 1.355 . S
C603 C605 1.415 . S
C604 C603 1.355 . S
C604 C606 1.419 . S
C605 C600 1.425 1_545 S
C605 C602 1.409 1_545 S
C605 C603 1.415 . S
C606 H596 0.930 . S
C606 C604 1.419 . S
C606 C607 1.362 . S
C607 H597 0.930 . S
C607 C600 1.409 1_545 S
C607 C606 1.362 . S
H608 C614 0.930 . S
H609 C617 0.930 . S
H610 C618 0.930 . S
H611 C619 0.930 . S
H612 C622 0.930 . S
H613 C623 0.930 . S
C614 H608 0.930 . S
C614 C615 1.355 1_545 S
C614 C616 1.415 . S
C615 C614 1.355 1_565 S
C615 C617 1.419 . S
C616 C614 1.415 . S
C616 C621 1.425 1_545 S
C616 C623 1.409 . S
C617 H609 0.930 . S
C617 C615 1.419 . S
C617 C618 1.362 . S
C618 H610 0.930 . S
C618 C617 1.362 . S
C618 C621 1.409 . S
C619 H611 0.930 . S
C619 C620 1.355 1_565 S
C619 C621 1.415 . S
C620 C619 1.355 1_545 S
C620 C622 1.419 . S
C621 C616 1.425 1_565 S
C621 C618 1.409 . S
C621 C619 1.415 . S
C622 H612 0.930 . S
C622 C620 1.419 . S
C622 C623 1.362 . S
C623 H613 0.930 . S
C623 C616 1.409 . S
C623 C622 1.362 . S
H624 C630 0.930 . S
H625 C633 0.930 . S
H626 C634 0.930 . S
H627 C635 0.930 . S
H628 C638 0.930 . S
H629 C639 0.930 . S
C630 H624 0.930 . S
C630 C631 1.355 1_455 S
C630 C632 1.415 . S
C631 C630 1.355 1_655 S
C631 C633 1.419 . S
C632 C630 1.415 . S
C632 C637 1.425 1_455 S
C632 C639 1.409 . S
C633 H625 0.930 . S
C633 C631 1.419 . S
C633 C634 1.362 . S
C634 H626 0.930 . S
C634 C633 1.362 . S
C634 C637 1.409 . S
C635 H627 0.930 . S
C635 C636 1.355 1_655 S
C635 C637 1.415 . S
C636 C635 1.355 1_455 S
C636 C638 1.419 . S
C637 C632 1.425 1_655 S
C637 C634 1.409 . S
C637 C635 1.415 . S
C638 H628 0.930 . S
C638 C636 1.419 . S
C638 C639 1.362 . S
C639 H629 0.930 . S
C639 C632 1.409 . S
C639 C638 1.362 . S
H640 C646 0.930 . S
H641 C649 0.930 . S
H642 C650 0.930 . S
H643 C651 0.930 . S
H644 C654 0.930 . S
H645 C655 0.930 . S
C646 H640 0.930 . S
C646 C647 1.355 1_565 S
C646 C648 1.415 . S
C647 C646 1.355 1_545 S
C647 C649 1.419 . S
C648 C646 1.415 . S
C648 C653 1.425 1_565 S
C648 C655 1.409 . S
C649 H641 0.930 . S
C649 C647 1.419 . S
C649 C650 1.362 . S
C650 H642 0.930 . S
C650 C649 1.362 . S
C650 C653 1.409 . S
C651 H643 0.930 . S
C651 C652 1.355 1_545 S
C651 C653 1.415 . S
C652 C651 1.355 1_565 S
C652 C654 1.419 . S
C653 C648 1.425 1_545 S
C653 C650 1.409 . S
C653 C651 1.415 . S
C654 H644 0.930 . S
C654 C652 1.419 . S
C654 C655 1.362 . S
C655 H645 0.930 . S
C655 C648 1.409 . S
C655 C654 1.362 . S
H656 C662 0.930 . S
H657 C665 0.930 . S
H658 C666 0.930 . S
H659 C667 0.930 . S
H660 C670 0.930 . S
H661 C671 0.930 . S
C662 H656 0.930 . S
C662 C663 1.347 1_455 S
C662 C664 1.415 . S
C663 C662 1.347 1_655 S
C663 C665 1.429 . S
C664 C662 1.415 . S
C664 C669 1.425 1_455 S
C664 C671 1.409 . S
C665 H657 0.930 . S
C665 C663 1.429 . S
C665 C666 1.362 . S
C666 H658 0.930 . S
C666 C665 1.362 . S
C666 C669 1.409 . S
C667 H659 0.930 . S
C667 C668 1.347 1_655 S
C667 C669 1.415 . S
C668 C667 1.347 1_455 S
C668 C670 1.429 . S
C669 C664 1.425 1_655 S
C669 C666 1.409 . S
C669 C667 1.415 . S
C670 H660 0.930 . S
C670 C668 1.429 . S
C670 C671 1.362 . S
C671 H661 0.930 . S
C671 C664 1.409 . S
C671 C670 1.362 . S
H672 C678 0.930 . S
H673 C681 0.930 . S
H674 C682 0.930 . S
H675 C683 0.930 . S
H676 C686 0.930 . S
H677 C687 0.930 . S
C678 H672 0.930 . S
C678 C679 1.355 . S
C678 C680 1.415 . S
C679 C678 1.355 . S
C679 C681 1.419 . S
C680 C678 1.415 . S
C680 C685 1.425 . S
C680 C687 1.409 . S
C681 H673 0.930 . S
C681 C679 1.419 . S
C681 C682 1.362 . S
C682 H674 0.930 . S
C682 C681 1.362 . S
C682 C685 1.409 . S
C683 H675 0.930 . S
C683 C684 1.355 . S
C683 C685 1.415 . S
C684 C683 1.355 . S
C684 C686 1.419 . S
C685 C680 1.425 . S
C685 C682 1.409 . S
C685 C683 1.415 . S
C686 H676 0.930 . S
C686 C684 1.419 . S
C686 C687 1.362 . S
C687 H677 0.930 . S
C687 C680 1.409 . S
C687 C686 1.362 . S
H688 C694 0.930 . S
H689 C697 0.930 . S
H690 C698 0.930 . S
H691 C699 0.930 . S
H692 C702 0.930 . S
H693 C703 0.930 . S
C694 H688 0.930 . S
C694 C695 1.355 . S
C694 C696 1.415 . S
C695 C694 1.355 . S
C695 C697 1.419 . S
C696 C694 1.415 . S
C696 C701 1.425 . S
C696 C703 1.409 . S
C697 H689 0.930 . S
C697 C695 1.419 . S
C697 C698 1.362 . S
C698 H690 0.930 . S
C698 C697 1.362 . S
C698 C701 1.409 . S
C699 H691 0.930 . S
C699 C700 1.355 . S
C699 C701 1.415 . S
C700 C699 1.355 . S
C700 C702 1.419 . S
C701 C696 1.425 . S
C701 C698 1.409 . S
C701 C699 1.415 . S
C702 H692 0.930 . S
C702 C700 1.419 . S
C702 C703 1.362 . S
C703 H693 0.930 . S
C703 C696 1.409 . S
C703 C702 1.362 . S
H704 C710 0.930 . S
H705 C713 0.930 . S
H706 C714 0.930 . S
H707 C715 0.930 . S
H708 C718 0.930 . S
H709 C719 0.930 . S
C710 H704 0.930 . S
C710 C711 1.355 . S
C710 C712 1.415 . S
C711 C710 1.355 . S
C711 C713 1.419 . S
C712 C710 1.415 . S
C712 C717 1.425 . S
C712 C719 1.409 . S
C713 H705 0.930 . S
C713 C711 1.419 . S
C713 C714 1.362 . S
C714 H706 0.930 . S
C714 C713 1.362 . S
C714 C717 1.409 . S
C715 H707 0.930 . S
C715 C716 1.355 . S
C715 C717 1.415 . S
C716 C715 1.355 . S
C716 C718 1.419 . S
C717 C712 1.425 . S
C717 C714 1.409 . S
C717 C715 1.415 . S
C718 H708 0.930 . S
C718 C716 1.419 . S
C718 C719 1.362 . S
C719 H709 0.930 . S
C719 C712 1.409 . S
C719 C718 1.362 . S
H720 C726 0.930 . S
H721 C729 0.930 . S
H722 C730 0.930 . S
H723 C731 0.930 . S
H724 C734 0.930 . S
H725 C735 0.930 . S
C726 H720 0.930 . S
C726 C727 1.355 . S
C726 C728 1.415 . S
C727 C726 1.355 . S
C727 C729 1.419 . S
C728 C726 1.415 . S
C728 C733 1.425 . S
C728 C735 1.409 . S
C729 H721 0.930 . S
C729 C727 1.419 . S
C729 C730 1.362 . S
C730 H722 0.930 . S
C730 C729 1.362 . S
C730 C733 1.409 . S
C731 H723 0.930 . S
C731 C732 1.355 . S
C731 C733 1.415 . S
C732 C731 1.355 . S
C732 C734 1.419 . S
C733 C728 1.425 . S
C733 C730 1.409 . S
C733 C731 1.415 . S
C734 H724 0.930 . S
C734 C732 1.419 . S
C734 C735 1.362 . S
C735 H725 0.930 . S
C735 C728 1.409 . S
C735 C734 1.362 . S
H736 C742 0.930 . S
H737 C745 0.930 . S
H738 C746 0.930 . S
H739 C747 0.930 . S
H740 C750 0.930 . S
H741 C751 0.930 . S
C742 H736 0.930 . S
C742 C743 1.355 . S
C742 C744 1.415 . S
C743 C742 1.355 . S
C743 C745 1.419 . S
C744 C742 1.415 . S
C744 C749 1.425 . S
C744 C751 1.409 . S
C745 H737 0.930 . S
C745 C743 1.419 . S
C745 C746 1.362 . S
C746 H738 0.930 . S
C746 C745 1.362 . S
C746 C749 1.409 . S
C747 H739 0.930 . S
C747 C748 1.355 . S
C747 C749 1.415 . S
C748 C747 1.355 . S
C748 C750 1.419 . S
C749 C744 1.425 . S
C749 C746 1.409 . S
C749 C747 1.415 . S
C750 H740 0.930 . S
C750 C748 1.419 . S
C750 C751 1.362 . S
C751 H741 0.930 . S
C751 C744 1.409 . S
C751 C750 1.362 . S
H752 C758 0.930 . S
H753 C761 0.930 . S
H754 C762 0.930 . S
H755 C763 0.930 . S
H756 C766 0.930 . S
H757 C767 0.930 . S
C758 H752 0.930 . S
C758 C759 1.355 . S
C758 C760 1.415 . S
C759 C758 1.355 . S
C759 C761 1.419 . S
C760 C758 1.415 . S
C760 C765 1.425 . S
C760 C767 1.409 . S
C761 H753 0.930 . S
C761 C759 1.419 . S
C761 C762 1.362 . S
C762 H754 0.930 . S
C762 C761 1.362 . S
C762 C765 1.409 . S
C763 H755 0.930 . S
C763 C764 1.355 . S
C763 C765 1.415 . S
C764 C763 1.355 . S
C764 C766 1.419 . S
C765 C760 1.425 . S
C765 C762 1.409 . S
C765 C763 1.415 . S
C766 H756 0.930 . S
C766 C764 1.419 . S
C766 C767 1.362 . S
C767 H757 0.930 . S
C767 C760 1.409 . S
C767 C766 1.362 . S
H768 C774 0.930 . S
H769 C777 0.930 . S
H770 C778 0.930 . S
H771 C779 0.930 . S
H772 C782 0.930 . S
H773 C783 0.930 . S
C774 H768 0.930 . S
C774 C775 1.355 . S
C774 C776 1.415 . S
C775 C774 1.355 . S
C775 C777 1.419 . S
C776 C774 1.415 . S
C776 C781 1.425 . S
C776 C783 1.409 . S
C777 H769 0.930 . S
C777 C775 1.419 . S
C777 C778 1.362 . S
C778 H770 0.930 . S
C778 C777 1.362 . S
C778 C781 1.409 . S
C779 H771 0.930 . S
C779 C780 1.355 . S
C779 C781 1.415 . S
C780 C779 1.355 . S
C780 C782 1.419 . S
C781 C776 1.425 . S
C781 C778 1.409 . S
C781 C779 1.415 . S
C782 H772 0.930 . S
C782 C780 1.419 . S
C782 C783 1.362 . S
C783 H773 0.930 . S
C783 C776 1.409 . S
C783 C782 1.362 . S
H784 C790 0.930 . S
H785 C793 0.930 . S
H786 C794 0.930 . S
H787 C795 0.930 . S
H788 C798 0.930 . S
H789 C799 0.930 . S
C790 H784 0.930 . S
C790 C791 1.355 . S
C790 C792 1.415 . S
C791 C790 1.355 . S
C791 C793 1.419 . S
C792 C790 1.415 . S
C792 C797 1.425 . S
C792 C799 1.409 . S
C793 H785 0.930 . S
C793 C791 1.419 . S
C793 C794 1.362 . S
C794 H786 0.930 . S
C794 C793 1.362 . S
C794 C797 1.409 . S
C795 H787 0.930 . S
C795 C796 1.355 . S
C795 C797 1.415 . S
C796 C795 1.355 . S
C796 C798 1.419 . S
C797 C792 1.425 . S
C797 C794 1.409 . S
C797 C795 1.415 . S
C798 H788 0.930 . S
C798 C796 1.419 . S
C798 C799 1.362 . S
C799 H789 0.930 . S
C799 C792 1.409 . S
C799 C798 1.362 . S
H800 C806 0.930 . S
H801 C809 0.930 . S
H802 C810 0.930 . S
H803 C811 0.930 . S
H804 C814 0.930 . S
H805 C815 0.930 . S
C806 H800 0.930 . S
C806 C807 1.355 . S
C806 C808 1.415 . S
C807 C806 1.355 . S
C807 C809 1.419 . S
C808 C806 1.415 . S
C808 C813 1.425 . S
C808 C815 1.409 . S
C809 H801 0.930 . S
C809 C807 1.419 . S
C809 C810 1.362 . S
C810 H802 0.930 . S
C810 C809 1.362 . S
C810 C813 1.409 . S
C811 H803 0.930 . S
C811 C812 1.355 . S
C811 C813 1.415 . S
C812 C811 1.355 . S
C812 C814 1.419 . S
C813 C808 1.425 . S
C813 C810 1.409 . S
C813 C811 1.415 . S
C814 H804 0.930 . S
C814 C812 1.419 . S
C814 C815 1.362 . S
C815 H805 0.930 . S
C815 C808 1.409 . S
C815 C814 1.362 . S
H816 C822 0.930 . S
H817 C825 0.930 . S
H818 C826 0.930 . S
H819 C827 0.930 . S
H820 C830 0.930 . S
H821 C831 0.930 . S
C822 H816 0.930 . S
C822 C823 1.355 . S
C822 C824 1.415 . S
C823 C822 1.355 . S
C823 C825 1.419 . S
C824 C822 1.415 . S
C824 C829 1.425 . S
C824 C831 1.409 . S
C825 H817 0.930 . S
C825 C823 1.419 . S
C825 C826 1.362 . S
C826 H818 0.930 . S
C826 C825 1.362 . S
C826 C829 1.409 . S
C827 H819 0.930 . S
C827 C828 1.355 . S
C827 C829 1.415 . S
C828 C827 1.355 . S
C828 C830 1.419 . S
C829 C824 1.425 . S
C829 C826 1.409 . S
C829 C827 1.415 . S
C830 H820 0.930 . S
C830 C828 1.419 . S
C830 C831 1.362 . S
C831 H821 0.930 . S
C831 C824 1.409 . S
C831 C830 1.362 . S
H832 C838 0.930 . S
H833 C841 0.930 . S
H834 C842 0.930 . S
H835 C843 0.930 . S
H836 C846 0.930 . S
H837 C847 0.930 . S
C838 H832 0.930 . S
C838 C839 1.355 . S
C838 C840 1.415 . S
C839 C838 1.355 . S
C839 C841 1.419 . S
C840 C838 1.415 . S
C840 C845 1.425 . S
C840 C847 1.409 . S
C841 H833 0.930 . S
C841 C839 1.419 . S
C841 C842 1.362 . S
C842 H834 0.930 . S
C842 C841 1.362 . S
C842 C845 1.409 . S
C843 H835 0.930 . S
C843 C844 1.355 . S
C843 C845 1.415 . S
C844 C843 1.355 . S
C844 C846 1.419 . S
C845 C840 1.425 . S
C845 C842 1.409 . S
C845 C843 1.415 . S
C846 H836 0.930 . S
C846 C844 1.419 . S
C846 C847 1.362 . S
C847 H837 0.930 . S
C847 C840 1.409 . S
C847 C846 1.362 . S
H848 C854 0.930 . S
H849 C857 0.930 . S
H850 C858 0.930 . S
H851 C859 0.930 . S
H852 C862 0.930 . S
H853 C863 0.930 . S
C854 H848 0.930 . S
C854 C855 1.355 . S
C854 C856 1.415 . S
C855 C854 1.355 . S
C855 C857 1.419 . S
C856 C854 1.415 . S
C856 C861 1.425 . S
C856 C863 1.409 . S
C857 H849 0.930 . S
C857 C855 1.419 . S
C857 C858 1.362 . S
C858 H850 0.930 . S
C858 C857 1.362 . S
C858 C861 1.409 . S
C859 H851 0.930 . S
C859 C860 1.355 . S
C859 C861 1.415 . S
C860 C859 1.355 . S
C860 C862 1.419 . S
C861 C856 1.425 . S
C861 C858 1.409 . S
C861 C859 1.415 . S
C862 H852 0.930 . S
C862 C860 1.419 . S
C862 C863 1.362 . S
C863 H853 0.930 . S
C863 C856 1.409 . S
C863 C862 1.362 . S
H864 C870 0.930 . S
H865 C873 0.930 . S
H866 C874 0.930 . S
H867 C875 0.930 . S
H868 C878 0.930 . S
H869 C879 0.930 . S
C870 H864 0.930 . S
C870 C871 1.355 . S
C870 C872 1.415 . S
C871 C870 1.355 . S
C871 C873 1.419 . S
C872 C870 1.415 . S
C872 C877 1.425 . S
C872 C879 1.409 . S
C873 H865 0.930 . S
C873 C871 1.419 . S
C873 C874 1.362 . S
C874 H866 0.930 . S
C874 C873 1.362 . S
C874 C877 1.409 . S
C875 H867 0.930 . S
C875 C876 1.355 . S
C875 C877 1.415 . S
C876 C875 1.355 . S
C876 C878 1.419 . S
C877 C872 1.425 . S
C877 C874 1.409 . S
C877 C875 1.415 . S
C878 H868 0.930 . S
C878 C876 1.419 . S
C878 C879 1.362 . S
C879 H869 0.930 . S
C879 C872 1.409 . S
C879 C878 1.362 . S
H880 C886 0.930 . S
H881 C889 0.930 . S
H882 C890 0.930 . S
H883 C891 0.930 . S
H884 C894 0.930 . S
H885 C895 0.930 . S
C886 H880 0.930 . S
C886 C887 1.355 . S
C886 C888 1.415 . S
C887 C886 1.355 . S
C887 C889 1.419 . S
C888 C886 1.415 . S
C888 C893 1.425 . S
C888 C895 1.409 . S
C889 H881 0.930 . S
C889 C887 1.419 . S
C889 C890 1.362 . S
C890 H882 0.930 . S
C890 C889 1.362 . S
C890 C893 1.409 . S
C891 H883 0.930 . S
C891 C892 1.355 . S
C891 C893 1.415 . S
C892 C891 1.355 . S
C892 C894 1.419 . S
C893 C888 1.425 . S
C893 C890 1.409 . S
C893 C891 1.415 . S
C894 H884 0.930 . S
C894 C892 1.419 . S
C894 C895 1.362 . S
C895 H885 0.930 . S
C895 C888 1.409 . S
C895 C894 1.362 . S
H896 C902 0.930 . S
H897 C905 0.930 . S
H898 C906 0.930 . S
H899 C907 0.930 . S
H900 C910 0.930 . S
H901 C911 0.930 . S
C902 H896 0.930 . S
C902 C903 1.355 . S
C902 C904 1.415 . S
C903 C902 1.355 . S
C903 C905 1.419 . S
C904 C902 1.415 . S
C904 C909 1.425 . S
C904 C911 1.409 . S
C905 H897 0.930 . S
C905 C903 1.419 . S
C905 C906 1.362 . S
C906 H898 0.930 . S
C906 C905 1.362 . S
C906 C909 1.409 . S
C907 H899 0.930 . S
C907 C908 1.355 . S
C907 C909 1.415 . S
C908 C907 1.355 . S
C908 C910 1.419 . S
C909 C904 1.425 . S
C909 C906 1.409 . S
C909 C907 1.415 . S
C910 H900 0.930 . S
C910 C908 1.419 . S
C910 C911 1.362 . S
C911 H901 0.930 . S
C911 C904 1.409 . S
C911 C910 1.362 . S
H912 C918 0.930 . S
H913 C921 0.930 . S
H914 C922 0.930 . S
H915 C923 0.930 . S
H916 C926 0.930 . S
H917 C927 0.930 . S
C918 H912 0.930 . S
C918 C919 1.355 . S
C918 C920 1.415 . S
C919 C918 1.355 . S
C919 C921 1.419 . S
C920 C918 1.415 . S
C920 C925 1.425 . S
C920 C927 1.409 . S
C921 H913 0.930 . S
C921 C919 1.419 . S
C921 C922 1.362 . S
C922 H914 0.930 . S
C922 C921 1.362 . S
C922 C925 1.409 . S
C923 H915 0.930 . S
C923 C924 1.355 . S
C923 C925 1.415 . S
C924 C923 1.355 . S
C924 C926 1.419 . S
C925 C920 1.425 . S
C925 C922 1.409 . S
C925 C923 1.415 . S
C926 H916 0.930 . S
C926 C924 1.419 . S
C926 C927 1.362 . S
C927 H917 0.930 . S
C927 C920 1.409 . S
C927 C926 1.362 . S
H928 C934 0.930 . S
H929 C937 0.930 . S
H930 C938 0.930 . S
H931 C939 0.930 . S
H932 C942 0.930 . S
H933 C943 0.930 . S
C934 H928 0.930 . S
C934 C935 1.355 . S
C934 C936 1.415 . S
C935 C934 1.355 . S
C935 C937 1.419 . S
C936 C934 1.415 . S
C936 C941 1.425 . S
C936 C943 1.409 . S
C937 H929 0.930 . S
C937 C935 1.419 . S
C937 C938 1.362 . S
C938 H930 0.930 . S
C938 C937 1.362 . S
C938 C941 1.409 . S
C939 H931 0.930 . S
C939 C940 1.355 . S
C939 C941 1.415 . S
C940 C939 1.355 . S
C940 C942 1.419 . S
C941 C936 1.425 . S
C941 C938 1.409 . S
C941 C939 1.415 . S
C942 H932 0.930 . S
C942 C940 1.419 . S
C942 C943 1.362 . S
C943 H933 0.930 . S
C943 C936 1.409 . S
C943 C942 1.362 . S
H944 C950 0.930 . S
H945 C953 0.930 . S
H946 C954 0.930 . S
H947 C955 0.930 . S
H948 C958 0.930 . S
H949 C959 0.930 . S
C950 H944 0.930 . S
C950 C951 1.355 . S
C950 C952 1.415 . S
C951 C950 1.355 . S
C951 C953 1.419 . S
C952 C950 1.415 . S
C952 C957 1.425 . S
C952 C959 1.409 . S
C953 H945 0.930 . S
C953 C951 1.419 . S
C953 C954 1.362 . S
C954 H946 0.930 . S
C954 C953 1.362 . S
C954 C957 1.409 . S
C955 H947 0.930 . S
C955 C956 1.355 . S
C955 C957 1.415 . S
C956 C955 1.355 . S
C956 C958 1.419 . S
C957 C952 1.425 . S
C957 C954 1.409 . S
C957 C955 1.415 . S
C958 H948 0.930 . S
C958 C956 1.419 . S
C958 C959 1.362 . S
C959 H949 0.930 . S
C959 C952 1.409 . S
C959 C958 1.362 . S
H960 C966 0.930 . S
H961 C969 0.930 . S
H962 C970 0.930 . S
H963 C971 0.930 . S
H964 C974 0.930 . S
H965 C975 0.930 . S
C966 H960 0.930 . S
C966 C967 1.355 . S
C966 C968 1.415 . S
C967 C966 1.355 . S
C967 C969 1.419 . S
C968 C966 1.415 . S
C968 C973 1.425 . S
C968 C975 1.409 . S
C969 H961 0.930 . S
C969 C967 1.419 . S
C969 C970 1.362 . S
C970 H962 0.930 . S
C970 C969 1.362 . S
C970 C973 1.409 . S
C971 H963 0.930 . S
C971 C972 1.355 . S
C971 C973 1.415 . S
C972 C971 1.355 . S
C972 C974 1.419 . S
C973 C968 1.425 . S
C973 C970 1.409 . S
C973 C971 1.415 . S
C974 H964 0.930 . S
C974 C972 1.419 . S
C974 C975 1.362 . S
C975 H965 0.930 . S
C975 C968 1.409 . S
C975 C974 1.362 . S
H976 C982 0.930 . S
H977 C985 0.930 . S
H978 C986 0.930 . S
H979 C987 0.930 . S
H980 C990 0.930 . S
H981 C991 0.930 . S
C982 H976 0.930 . S
C982 C983 1.355 . S
C982 C984 1.415 . S
C983 C982 1.355 . S
C983 C985 1.419 . S
C984 C982 1.415 . S
C984 C989 1.425 . S
C984 C991 1.409 . S
C985 H977 0.930 . S
C985 C983 1.419 . S
C985 C986 1.362 . S
C986 H978 0.930 . S
C986 C985 1.362 . S
C986 C989 1.409 . S
C987 H979 0.930 . S
C987 C988 1.355 . S
C987 C989 1.415 . S
C988 C987 1.355 . S
C988 C990 1.419 . S
C989 C984 1.425 . S
C989 C986 1.409 . S
C989 C987 1.415 . S
C990 H980 0.930 . S
C990 C988 1.419 . S
C990 C991 1.362 . S
C991 H981 0.930 . S
C991 C984 1.409 . S
C991 C990 1.362 . S
H992 C998 0.930 . S
H993 C1001 0.930 . S
H994 C1002 0.930 . S
H995 C1003 0.930 . S
H996 C1006 0.930 . S
H997 C1007 0.930 . S
C998 H992 0.930 . S
C998 C999 1.355 . S
C998 C1000 1.415 . S
C999 C998 1.355 . S
C999 C1001 1.419 . S
C1000 C998 1.415 . S
C1000 C1005 1.425 . S
C1000 C1007 1.409 . S
C1001 H993 0.930 . S
C1001 C999 1.419 . S
C1001 C1002 1.362 . S
C1002 H994 0.930 . S
C1002 C1001 1.362 . S
C1002 C1005 1.409 . S
C1003 H995 0.930 . S
C1003 C1004 1.355 . S
C1003 C1005 1.415 . S
C1004 C1003 1.355 . S
C1004 C1006 1.419 . S
C1005 C1000 1.425 . S
C1005 C1002 1.409 . S
C1005 C1003 1.415 . S
C1006 H996 0.930 . S
C1006 C1004 1.419 . S
C1006 C1007 1.362 . S
C1007 H997 0.930 . S
C1007 C1000 1.409 . S
C1007 C1006 1.362 . S
H1008 C1014 0.930 . S
H1009 C1017 0.930 . S
H1010 C1018 0.930 . S
H1011 C1019 0.930 . S
H1012 C1022 0.930 . S
H1013 C1023 0.930 . S
C1014 H1008 0.930 . S
C1014 C1015 1.355 . S
C1014 C1016 1.415 . S
C1015 C1014 1.355 . S
C1015 C1017 1.419 . S
C1016 C1014 1.415 . S
C1016 C1021 1.425 . S
C1016 C1023 1.409 . S
C1017 H1009 0.930 . S
C1017 C1015 1.419 . S
C1017 C1018 1.362 . S
C1018 H1010 0.930 . S
C1018 C1017 1.362 . S
C1018 C1021 1.409 . S
C1019 H1011 0.930 . S
C1019 C1020 1.355 . S
C1019 C1021 1.415 . S
C1020 C1019 1.355 . S
C1020 C1022 1.419 . S
C1021 C1016 1.425 . S
C1021 C1018 1.409 . S
C1021 C1019 1.415 . S
C1022 H1012 0.930 . S
C1022 C1020 1.419 . S
C1022 C1023 1.362 . S
C1023 H1013 0.930 . S
C1023 C1016 1.409 . S
C1023 C1022 1.362 . S
H1024 C1030 0.930 . S
H1025 C1033 0.966 . S
H1026 C1034 0.930 . S
H1027 C1035 0.930 . S
H1028 C1038 0.930 . S
H1029 C1039 0.930 . S
C1030 H1024 0.930 . S
C1030 C1031 1.355 . S
C1030 C1032 1.415 . S
C1031 C1030 1.355 . S
C1031 C1033 1.419 . S
C1032 C1030 1.415 . S
C1032 C1037 1.425 . S
C1032 C1039 1.409 . S
C1033 H1025 0.966 . S
C1033 C1031 1.419 . S
C1033 C1034 1.362 . S
C1034 H1026 0.930 . S
C1034 C1033 1.362 . S
C1034 C1037 1.409 . S
C1035 H1027 0.930 . S
C1035 C1036 1.355 . S
C1035 C1037 1.415 . S
C1036 C1035 1.355 . S
C1036 C1038 1.419 . S
C1037 C1032 1.425 . S
C1037 C1034 1.409 . S
C1037 C1035 1.415 . S
C1038 H1028 0.930 . S
C1038 C1036 1.419 . S
C1038 C1039 1.362 . S
C1039 H1029 0.930 . S
C1039 C1032 1.409 . S
C1039 C1038 1.362 . S
H1040 C1046 0.930 . S
H1041 C1049 0.930 . S
H1042 C1050 0.930 . S
H1043 C1051 0.930 . S
H1044 C1054 0.930 . S
H1045 C1055 0.930 . S
C1046 H1040 0.930 . S
C1046 C1047 1.355 . S
C1046 C1048 1.415 . S
C1047 C1046 1.355 . S
C1047 C1049 1.419 . S
C1048 C1046 1.415 . S
C1048 C1053 1.425 . S
C1048 C1055 1.409 . S
C1049 H1041 0.930 . S
C1049 C1047 1.419 . S
C1049 C1050 1.362 . S
C1050 H1042 0.930 . S
C1050 C1049 1.362 . S
C1050 C1053 1.409 . S
C1051 H1043 0.930 . S
C1051 C1052 1.355 . S
C1051 C1053 1.415 . S
C1052 C1051 1.355 . S
C1052 C1054 1.419 . S
C1053 C1048 1.425 . S
C1053 C1050 1.409 . S
C1053 C1051 1.415 . S
C1054 H1044 0.930 . S
C1054 C1052 1.419 . S
C1054 C1055 1.362 . S
C1055 H1045 0.930 . S
C1055 C1048 1.409 . S
C1055 C1054 1.362 . S
H1056 C1062 0.930 . S
H1057 C1065 0.930 . S
H1058 C1066 0.930 . S
H1059 C1067 0.930 . S
H1060 C1070 0.930 . S
H1061 C1071 0.930 . S
C1062 H1056 0.930 . S
C1062 C1063 1.355 . S
C1062 C1064 1.415 . S
C1063 C1062 1.355 . S
C1063 C1065 1.419 . S
C1064 C1062 1.415 . S
C1064 C1069 1.425 . S
C1064 C1071 1.409 . S
C1065 H1057 0.930 . S
C1065 C1063 1.419 . S
C1065 C1066 1.362 . S
C1066 H1058 0.930 . S
C1066 C1065 1.362 . S
C1066 C1069 1.409 . S
C1067 H1059 0.930 . S
C1067 C1068 1.355 . S
C1067 C1069 1.415 . S
C1068 C1067 1.355 . S
C1068 C1070 1.419 . S
C1069 C1064 1.425 . S
C1069 C1066 1.409 . S
C1069 C1067 1.415 . S
C1070 H1060 0.930 . S
C1070 C1068 1.419 . S
C1070 C1071 1.362 . S
C1071 H1061 0.930 . S
C1071 C1064 1.409 . S
C1071 C1070 1.362 . S
H1072 C1078 0.930 . S
H1073 C1081 0.930 . S
H1074 C1082 0.930 . S
H1075 C1083 0.930 . S
H1076 C1086 0.930 . S
H1077 C1087 0.930 . S
C1078 H1072 0.930 . S
C1078 C1079 1.355 . S
C1078 C1080 1.415 . S
C1079 C1078 1.355 . S
C1079 C1081 1.419 . S
C1080 C1078 1.415 . S
C1080 C1085 1.425 . S
C1080 C1087 1.409 . S
C1081 H1073 0.930 . S
C1081 C1079 1.419 . S
C1081 C1082 1.362 . S
C1082 H1074 0.930 . S
C1082 C1081 1.362 . S
C1082 C1085 1.409 . S
C1083 H1075 0.930 . S
C1083 C1084 1.355 . S
C1083 C1085 1.415 . S
C1084 C1083 1.355 . S
C1084 C1086 1.419 . S
C1085 C1080 1.425 . S
C1085 C1082 1.409 . S
C1085 C1083 1.415 . S
C1086 H1076 0.930 . S
C1086 C1084 1.419 . S
C1086 C1087 1.362 . S
C1087 H1077 0.930 . S
C1087 C1080 1.409 . S
C1087 C1086 1.362 . S
H1088 C1094 0.930 . S
H1089 C1097 0.930 . S
H1090 C1098 0.930 . S
H1091 C1099 0.930 . S
H1092 C1102 0.930 . S
H1093 C1103 0.930 . S
C1094 H1088 0.930 . S
C1094 C1095 1.355 . S
C1094 C1096 1.415 . S
C1095 C1094 1.355 . S
C1095 C1097 1.419 . S
C1096 C1094 1.415 . S
C1096 C1101 1.425 . S
C1096 C1103 1.409 . S
C1097 H1089 0.930 . S
C1097 C1095 1.419 . S
C1097 C1098 1.362 . S
C1098 H1090 0.930 . S
C1098 C1097 1.362 . S
C1098 C1101 1.409 . S
C1099 H1091 0.930 . S
C1099 C1100 1.355 . S
C1099 C1101 1.415 . S
C1100 C1099 1.355 . S
C1100 C1102 1.419 . S
C1101 C1096 1.425 . S
C1101 C1098 1.409 . S
C1101 C1099 1.415 . S
C1102 H1092 0.930 . S
C1102 C1100 1.419 . S
C1102 C1103 1.362 . S
C1103 H1093 0.930 . S
C1103 C1096 1.409 . S
C1103 C1102 1.362 . S
H1104 C1110 0.930 . S
H1105 C1113 0.930 . S
H1106 C1114 0.930 . S
H1107 C1115 0.930 . S
H1108 C1118 0.930 . S
H1109 C1119 0.930 . S
C1110 H1104 0.930 . S
C1110 C1111 1.355 . S
C1110 C1112 1.415 . S
C1111 C1110 1.355 . S
C1111 C1113 1.419 . S
C1112 C1110 1.415 . S
C1112 C1117 1.425 . S
C1112 C1119 1.409 . S
C1113 H1105 0.930 . S
C1113 C1111 1.419 . S
C1113 C1114 1.362 . S
C1114 H1106 0.930 . S
C1114 C1113 1.362 . S
C1114 C1117 1.409 . S
C1115 H1107 0.930 . S
C1115 C1116 1.355 . S
C1115 C1117 1.415 . S
C1116 C1115 1.355 . S
C1116 C1118 1.419 . S
C1117 C1112 1.425 . S
C1117 C1114 1.409 . S
C1117 C1115 1.415 . S
C1118 H1108 0.930 . S
C1118 C1116 1.419 . S
C1118 C1119 1.362 . S
C1119 H1109 0.930 . S
C1119 C1112 1.409 . S
C1119 C1118 1.362 . S
H1120 C1126 0.930 . S
H1121 C1129 0.930 . S
H1122 C1130 0.930 . S
H1123 C1131 0.930 . S
H1124 C1134 0.930 . S
H1125 C1135 0.930 . S
C1126 H1120 0.930 . S
C1126 C1127 1.355 . S
C1126 C1128 1.415 . S
C1127 C1126 1.355 . S
C1127 C1129 1.419 . S
C1128 C1126 1.415 . S
C1128 C1133 1.425 1_566 S
C1128 C1135 1.409 1_556 S
C1129 H1121 0.930 . S
C1129 C1127 1.419 . S
C1129 C1130 1.362 1_565 S
C1130 H1122 0.930 . S
C1130 C1129 1.362 1_545 S
C1130 C1133 1.409 1_556 S
C1131 H1123 0.930 . S
C1131 C1132 1.355 . S
C1131 C1133 1.415 . S
C1132 C1131 1.355 . S
C1132 C1134 1.419 . S
C1133 C1128 1.425 1_544 S
C1133 C1130 1.409 1_554 S
C1133 C1131 1.415 . S
C1134 H1124 0.930 . S
C1134 C1132 1.419 . S
C1134 C1135 1.362 1_545 S
C1135 H1125 0.930 . S
C1135 C1128 1.409 1_554 S
C1135 C1134 1.362 1_565 S
H1136 C1142 0.930 . S
H1137 C1145 0.930 . S
H1138 C1146 0.930 1_554 S
H1139 C1147 0.930 . S
H1140 C1150 0.930 . S
H1141 C1151 0.930 1_556 S
C1142 H1136 0.930 . S
C1142 C1143 1.355 1_655 S
C1142 C1144 1.415 . S
C1143 C1142 1.355 1_455 S
C1143 C1145 1.419 . S
C1144 C1142 1.415 . S
C1144 C1149 1.425 1_656 S
C1144 C1151 1.409 1_556 S
C1145 H1137 0.930 . S
C1145 C1143 1.419 . S
C1145 C1146 1.362 . S
C1146 H1138 0.930 1_556 S
C1146 C1145 1.362 . S
C1146 C1149 1.409 1_556 S
C1147 H1139 0.930 . S
C1147 C1148 1.355 1_455 S
C1147 C1149 1.415 . S
C1148 C1147 1.355 1_655 S
C1148 C1150 1.419 . S
C1149 C1144 1.425 1_454 S
C1149 C1146 1.409 1_554 S
C1149 C1147 1.415 . S
C1150 H1140 0.930 . S
C1150 C1148 1.419 . S
C1150 C1151 1.362 . S
C1151 H1141 0.930 1_554 S
C1151 C1144 1.409 1_554 S
C1151 C1150 1.362 . S
H1152 C1158 0.930 . S
H1153 C1161 0.930 . S
H1154 C1162 0.930 1_556 S
H1155 C1163 0.930 . S
H1156 C1166 0.930 . S
H1157 C1167 0.930 1_554 S
C1158 H1152 0.930 . S
C1158 C1159 1.355 1_545 S
C1158 C1160 1.415 . S
C1159 C1158 1.355 1_565 S
C1159 C1161 1.419 . S
C1160 C1158 1.415 . S
C1160 C1165 1.425 1_544 S
C1160 C1167 1.409 1_554 S
C1161 H1153 0.930 . S
C1161 C1159 1.419 . S
C1161 C1162 1.362 . S
C1162 H1154 0.930 1_554 S
C1162 C1161 1.362 . S
C1162 C1165 1.409 1_554 S
C1163 H1155 0.930 . S
C1163 C1164 1.355 1_565 S
C1163 C1165 1.415 . S
C1164 C1163 1.355 1_545 S
C1164 C1166 1.419 . S
C1165 C1160 1.425 1_566 S
C1165 C1162 1.409 1_556 S
C1165 C1163 1.415 . S
C1166 H1156 0.930 . S
C1166 C1164 1.419 . S
C1166 C1167 1.362 . S
C1167 H1157 0.930 1_556 S
C1167 C1160 1.409 1_556 S
C1167 C1166 1.362 . S
H1168 C1174 0.930 . S
H1169 C1177 0.930 . S
H1170 C1178 0.930 1_554 S
H1171 C1179 0.930 . S
H1172 C1182 0.930 . S
H1173 C1183 0.930 1_556 S
C1174 H1168 0.930 . S
C1174 C1175 1.355 1_455 S
C1174 C1176 1.415 . S
C1175 C1174 1.355 1_655 S
C1175 C1177 1.419 . S
C1176 C1174 1.415 . S
C1176 C1181 1.425 1_456 S
C1176 C1183 1.409 1_556 S
C1177 H1169 0.930 . S
C1177 C1175 1.419 . S
C1177 C1178 1.362 . S
C1178 H1170 0.930 1_556 S
C1178 C1177 1.362 . S
C1178 C1181 1.409 1_556 S
C1179 H1171 0.930 . S
C1179 C1180 1.355 1_655 S
C1179 C1181 1.415 . S
C1180 C1179 1.355 1_455 S
C1180 C1182 1.419 . S
C1181 C1176 1.425 1_654 S
C1181 C1178 1.409 1_554 S
C1181 C1179 1.415 . S
C1182 H1172 0.930 . S
C1182 C1180 1.419 . S
C1182 C1183 1.362 . S
C1183 H1173 0.930 1_554 S
C1183 C1176 1.409 1_554 S
C1183 C1182 1.362 . S
C551 C73 0.495 . S
C556 C5 0.531 . S
C567 C107 0.561 . S
C572 C39 0.533 . S
C583 C209 0.486 . S
C588 C141 0.444 . S
C599 C175 0.347 . S
C604 C243 0.374 . S
C615 C277 0.419 . S
C620 C345 0.380 . S
C631 C311 0.389 . S
C636 C379 0.356 . S
C647 C481 0.574 1_545 S
C652 C413 0.586 1_565 S
C663 C515 0.431 . S
C668 C447 0.472 . S
C679 C9 1.503 . S
C684 C247 1.541 . S
C695 C145 1.543 . S
C700 C43 1.502 . S
C711 C179 1.502 . S
C716 C77 1.542 . S
C727 C213 1.530 . S
C732 C111 1.515 . S
C743 C519 1.502 . S
C748 C281 1.543 . S
C759 C417 1.543 . S
C764 C315 1.502 . S
C775 C451 1.504 . S
C780 C349 1.540 . S
C791 C485 1.542 . S
C796 C383 1.503 . S
C807 C33 1.428 . S
C812 C376 1.535 . S
C823 C67 1.470 . S
C828 C274 1.554 . S
C839 C101 1.427 . S
C844 C308 1.553 . S
C855 C342 1.509 . S
C860 C135 1.487 . S
C871 C169 1.443 . S
C876 C444 1.523 . S
C887 C203 1.452 . S
C892 C478 1.557 . S
C903 C237 1.508 . S
C908 C512 1.531 . S
C919 C271 1.496 . S
C924 C410 1.509 . S
C935 C104 1.557 . S
C940 C305 1.438 . S
C951 C2 1.528 . S
C956 C339 1.435 . S
C967 C36 1.532 . S
C972 C373 1.507 . S
C983 C407 1.425 . S
C988 C70 1.540 . S
C999 C441 1.498 . S
C1004 C172 1.540 . S
C1015 C475 1.455 . S
C1020 C206 1.517 . S
C1031 C509 1.424 . S
C1036 C240 1.550 . S
C1047 C543 1.512 . S
C1052 C138 1.522 . S
C1063 C156 1.730 . S
C1068 C20 1.764 . S
C1079 C190 1.750 . S
C1084 C54 1.738 . S
C1095 C88 1.746 . S
C1100 C224 1.741 . S
C1111 C258 1.737 . S
C1116 C122 1.761 . S
C1127 C292 1.730 . S
C1132 C428 1.764 . S
C1143 C462 1.735 . S
C1148 C326 1.762 . S
C1159 C496 1.754 . S
C1164 C360 1.745 . S
C1175 C530 1.755 . S
C1180 C394 1.745 . S
