# Generated by pormake.
# Topology umw, (4)-cn, num edge types: 1
# Building blocks:
#     Node 0, Type 0, BuildingBlock: KUFVIS_clean_sbu_0, # of connection points: 4
#     Node 1, Type 0, BuildingBlock: KUFVIS_clean_sbu_0, # of connection points: 4
#     Node 2, Type 0, BuildingBlock: KUFVIS_clean_sbu_0, # of connection points: 4
#     Node 3, Type 0, BuildingBlock: KUFVIS_clean_sbu_0, # of connection points: 4
#     Node 4, Type 0, BuildingBlock: KUFVIS_clean_sbu_0, # of connection points: 4
#     Node 5, Type 0, BuildingBlock: KUFVIS_clean_sbu_0, # of connection points: 4
#     Node 6, Type 0, BuildingBlock: KUFVIS_clean_sbu_0, # of connection points: 4
#     Node 7, Type 0, BuildingBlock: KUFVIS_clean_sbu_0, # of connection points: 4
#     Edge 8, Type (0, 0), BuildingBlock: TEMPAE_clean_linker_10, # of connection points: 2
#     Edge 9, Type (0, 0), BuildingBlock: TEMPAE_clean_linker_10, # of connection points: 2
#     Edge 10, Type (0, 0), BuildingBlock: TEMPAE_clean_linker_10, # of connection points: 2
#     Edge 11, Type (0, 0), BuildingBlock: TEMPAE_clean_linker_10, # of connection points: 2
#     Edge 12, Type (0, 0), BuildingBlock: TEMPAE_clean_linker_10, # of connection points: 2
#     Edge 13, Type (0, 0), BuildingBlock: TEMPAE_clean_linker_10, # of connection points: 2
#     Edge 14, Type (0, 0), BuildingBlock: TEMPAE_clean_linker_10, # of connection points: 2
#     Edge 15, Type (0, 0), BuildingBlock: TEMPAE_clean_linker_10, # of connection points: 2
#     Edge 16, Type (0, 0), BuildingBlock: TEMPAE_clean_linker_10, # of connection points: 2
#     Edge 17, Type (0, 0), BuildingBlock: TEMPAE_clean_linker_10, # of connection points: 2
#     Edge 18, Type (0, 0), BuildingBlock: TEMPAE_clean_linker_10, # of connection points: 2
#     Edge 19, Type (0, 0), BuildingBlock: TEMPAE_clean_linker_10, # of connection points: 2
#     Edge 20, Type (0, 0), BuildingBlock: TEMPAE_clean_linker_10, # of connection points: 2
#     Edge 21, Type (0, 0), BuildingBlock: TEMPAE_clean_linker_10, # of connection points: 2
#     Edge 22, Type (0, 0), BuildingBlock: TEMPAE_clean_linker_10, # of connection points: 2
#     Edge 23, Type (0, 0), BuildingBlock: TEMPAE_clean_linker_10, # of connection points: 2
# Relax obj value: 0.132
# Max RMSD: 0.105
# Mean RMSD: 0.105
data_MOF--net-umw--node1-KUFVIS_clean_sbu_0--edge1-TEMPAE_clean_linker_10
_symmetry_space_group_name_H-M    P1
_symmetry_Int_Tables_number       1
_symmetry_cell_setting            triclinic
loop_
_symmetry_equiv_pos_as_xyz
'x, y, z'
_cell_length_a     42.177633
_cell_length_b     42.163326
_cell_length_c     25.411734
_cell_angle_alpha  89.969857
_cell_angle_beta   90.023586
_cell_angle_gamma 89.976731
loop_
_atom_site_label
_atom_site_type_symbol
_atom_site_fract_x
_atom_site_fract_y
_atom_site_fract_z
_atom_type_partial_charge
Mn0 Mn 0.41585 0.1873 0.30386 0.0
Mn1 Mn 0.48721 0.15329 0.27875 0.0
C2 C 0.44667 0.16748 0.37156 0.0
C3 C 0.3841 0.23128 0.32527 0.0
C4 C 0.42461 0.11917 0.26389 0.0
O5 O 0.42559 0.20276 0.22881 0.0
O6 O 0.47394 0.18035 0.21933 0.0
C7 C 0.52697 0.2112 0.2781 0.0
N8 N 0.52085 0.18159 0.29688 0.0
C9 C 0.5688 0.18175 0.34817 0.0
C10 C 0.57571 0.21219 0.32911 0.0
C11 C 0.55458 0.22706 0.29418 0.0
C12 C 0.54073 0.1673 0.33121 0.0
H13 H 0.51093 0.22256 0.25101 0.0
C14 C 0.45115 0.19772 0.203 0.0
O15 O 0.37223 0.20617 0.30322 0.0
O16 O 0.41462 0.23169 0.33148 0.0
N17 N 0.50359 0.12651 0.3332 0.0
C18 C 0.49266 0.0978 0.34994 0.0
C19 C 0.51065 0.08012 0.38602 0.0
C20 C 0.53996 0.09182 0.40368 0.0
C21 C 0.55076 0.12138 0.38583 0.0
C22 C 0.53172 0.138 0.3501 0.0
H23 H 0.47045 0.08837 0.33577 0.0
O24 O 0.41641 0.17145 0.37777 0.0
O25 O 0.45835 0.17577 0.32638 0.0
O26 O 0.40652 0.14183 0.27846 0.0
O27 O 0.45466 0.12178 0.26032 0.0
C28 C 0.5797 0.13496 0.40191 0.0
C29 C 0.58857 0.16525 0.38351 0.0
H30 H 0.59708 0.22443 0.34125 0.0
H31 H 0.55968 0.25059 0.27941 0.0
H32 H 0.50214 0.05735 0.39969 0.0
H33 H 0.55398 0.0779 0.43093 0.0
H34 H 0.59527 0.12242 0.42865 0.0
H35 H 0.61061 0.17568 0.39692 0.0
Mn36 Mn 0.82311 0.42072 0.55856 0.0
Mn37 Mn 0.85942 0.49138 0.53725 0.0
C38 C 0.84403 0.44941 0.62795 0.0
C39 C 0.77816 0.39002 0.57832 0.0
C40 C 0.89128 0.42792 0.51834 0.0
O41 O 0.80801 0.43255 0.48407 0.0
O42 O 0.83144 0.4806 0.47764 0.0
C43 C 0.80312 0.53337 0.54052 0.0
N44 N 0.83265 0.52573 0.55799 0.0
C45 C 0.83516 0.57289 0.61106 0.0
C46 C 0.80485 0.5814 0.59331 0.0
C47 C 0.78866 0.56142 0.55818 0.0
C48 C 0.84816 0.54444 0.59262 0.0
H49 H 0.79076 0.5182 0.51331 0.0
C50 C 0.81345 0.45867 0.46 0.0
O51 O 0.80285 0.37781 0.55553 0.0
O52 O 0.77872 0.42041 0.58623 0.0
N53 N 0.8872 0.50542 0.59205 0.0
C54 C 0.91547 0.49288 0.60769 0.0
C55 C 0.93432 0.50953 0.64386 0.0
C56 C 0.92422 0.53916 0.66276 0.0
C57 C 0.89502 0.55156 0.64622 0.0
C58 C 0.87718 0.53381 0.61034 0.0
H59 H 0.92371 0.47045 0.59246 0.0
O60 O 0.839 0.41919 0.63245 0.0
O61 O 0.83611 0.46231 0.58347 0.0
O62 O 0.86818 0.41033 0.53255 0.0
O63 O 0.88956 0.4581 0.51609 0.0
C64 C 0.88295 0.5809 0.66369 0.0
C65 C 0.85291 0.5914 0.64656 0.0
H66 H 0.7937 0.60311 0.60664 0.0
H67 H 0.76519 0.56773 0.54447 0.0
H68 H 0.95678 0.49976 0.65659 0.0
H69 H 0.93907 0.55215 0.69002 0.0
H70 H 0.89648 0.59552 0.69054 0.0
H71 H 0.84364 0.6137 0.66108 0.0
Mn72 Mn 0.59971 0.82722 0.79968 0.0
Mn73 Mn 0.52862 0.86128 0.77234 0.0
C74 C 0.56807 0.84688 0.86635 0.0
C75 C 0.63135 0.78333 0.82217 0.0
C76 C 0.5913 0.8956 0.76023 0.0
O77 O 0.59086 0.81182 0.72434 0.0
O78 O 0.54292 0.83478 0.71296 0.0
C79 C 0.48926 0.80314 0.76886 0.0
N80 N 0.49494 0.83261 0.78858 0.0
C81 C 0.44649 0.83153 0.83848 0.0
C82 C 0.44004 0.80122 0.81848 0.0
C83 C 0.46163 0.78689 0.78375 0.0
C84 C 0.47458 0.8464 0.82265 0.0
H85 H 0.50564 0.79218 0.74193 0.0
C86 C 0.5658 0.81729 0.6974 0.0
O87 O 0.64338 0.80847 0.80046 0.0
O88 O 0.60075 0.78282 0.82737 0.0
N89 N 0.51128 0.88755 0.82657 0.0
C90 C 0.52168 0.91628 0.8441 0.0
C91 C 0.50314 0.93348 0.88 0.0
C92 C 0.47383 0.92129 0.89667 0.0
C93 C 0.46354 0.89176 0.87793 0.0
C94 C 0.4831 0.87564 0.84241 0.0
H95 H 0.54392 0.92607 0.83073 0.0
O96 O 0.59827 0.84299 0.87356 0.0
O97 O 0.55691 0.83863 0.82079 0.0
O98 O 0.60925 0.87276 0.77466 0.0
O99 O 0.56127 0.89308 0.75593 0.0
C100 C 0.43461 0.87772 0.89297 0.0
C101 C 0.42623 0.84751 0.87365 0.0
H102 H 0.41868 0.78868 0.82971 0.0
H103 H 0.45688 0.76347 0.76825 0.0
H104 H 0.51126 0.95624 0.89434 0.0
H105 H 0.45941 0.93483 0.92382 0.0
H106 H 0.41868 0.88985 0.91963 0.0
H107 H 0.40418 0.83674 0.88623 0.0
Mn108 Mn 0.19105 0.59439 0.05547 0.0
Mn109 Mn 0.15511 0.52374 0.03233 0.0
C110 C 0.17044 0.56484 0.12409 0.0
C111 C 0.23588 0.62519 0.07573 0.0
C112 C 0.1227 0.58716 0.0158 0.0
O113 O 0.20607 0.58352 0.98061 0.0
O114 O 0.18259 0.53559 0.97269 0.0
C115 C 0.2119 0.48236 0.03331 0.0
N116 N 0.18239 0.48944 0.05151 0.0
C117 C 0.18088 0.44173 0.10338 0.0
C118 C 0.21118 0.4338 0.08488 0.0
C119 C 0.22685 0.45434 0.04997 0.0
C120 C 0.16737 0.47017 0.08591 0.0
H121 H 0.22386 0.49796 0.00626 0.0
C122 C 0.20048 0.55777 0.95564 0.0
O123 O 0.21102 0.63747 0.05349 0.0
O124 O 0.23552 0.59472 0.08289 0.0
N125 N 0.12779 0.50864 0.08698 0.0
C126 C 0.09938 0.52056 0.10323 0.0
C127 C 0.08097 0.50325 0.13917 0.0
C128 C 0.09163 0.4736 0.15719 0.0
C129 C 0.12093 0.46182 0.13995 0.0
C130 C 0.13831 0.4802 0.10432 0.0
H131 H 0.09072 0.54301 0.0887 0.0
O132 O 0.17532 0.59503 0.12944 0.0
O133 O 0.17836 0.55244 0.07926 0.0
O134 O 0.14583 0.60474 0.02998 0.0
O135 O 0.12453 0.55701 0.01284 0.0
C136 C 0.13353 0.4325 0.1565 0.0
C137 C 0.16361 0.42261 0.13866 0.0
H138 H 0.2227 0.41211 0.09744 0.0
H139 H 0.25029 0.44848 0.03566 0.0
H140 H 0.05842 0.51253 0.15241 0.0
H141 H 0.07711 0.4601 0.18425 0.0
H142 H 0.12039 0.41742 0.18321 0.0
H143 H 0.17329 0.4003 0.15245 0.0
Mn144 Mn 0.42 0.82202 0.26988 0.0
Mn145 Mn 0.49088 0.85796 0.29072 0.0
C146 C 0.4485 0.84299 0.20029 0.0
C147 C 0.38913 0.77713 0.25031 0.0
C148 C 0.42764 0.89008 0.31039 0.0
O149 O 0.43195 0.80685 0.34431 0.0
O150 O 0.48021 0.82982 0.35017 0.0
C151 C 0.5325 0.80142 0.28627 0.0
N152 N 0.52502 0.83112 0.26937 0.0
C153 C 0.5721 0.83372 0.21616 0.0
C154 C 0.58048 0.80325 0.23339 0.0
C155 C 0.56045 0.78692 0.26828 0.0
C156 C 0.54374 0.84674 0.2349 0.0
H157 H 0.51727 0.78896 0.31325 0.0
C158 C 0.45823 0.812 0.36804 0.0
O159 O 0.37705 0.80186 0.27323 0.0
O160 O 0.41949 0.77763 0.24216 0.0
N161 N 0.50486 0.88591 0.23611 0.0
C162 C 0.49242 0.91433 0.22093 0.0
C163 C 0.50913 0.93334 0.18505 0.0
C164 C 0.5387 0.92324 0.16597 0.0
C165 C 0.55099 0.89388 0.182 0.0
C166 C 0.5332 0.8759 0.21762 0.0
H167 H 0.47005 0.92258 0.23634 0.0
O168 O 0.41827 0.838 0.19604 0.0
O169 O 0.46153 0.83494 0.2446 0.0
O170 O 0.40988 0.86712 0.29607 0.0
O171 O 0.4578 0.88818 0.31251 0.0
C172 C 0.58026 0.8818 0.16428 0.0
C173 C 0.59065 0.85161 0.18091 0.0
H174 H 0.60211 0.79207 0.21981 0.0
H175 H 0.56664 0.76333 0.28155 0.0
H176 H 0.49944 0.95592 0.1727 0.0
H177 H 0.55175 0.93822 0.13897 0.0
H178 H 0.59491 0.89542 0.13759 0.0
H179 H 0.61289 0.84232 0.16618 0.0
Mn180 Mn 0.18812 0.41443 0.52606 0.0
Mn181 Mn 0.15404 0.48581 0.55095 0.0
C182 C 0.16821 0.44513 0.45824 0.0
C183 C 0.23217 0.38277 0.50476 0.0
C184 C 0.12004 0.42315 0.56612 0.0
O185 O 0.20352 0.42426 0.60111 0.0
O186 O 0.18122 0.47269 0.61029 0.0
C187 C 0.21188 0.52566 0.55102 0.0
N188 N 0.18223 0.51948 0.53251 0.0
C189 C 0.18214 0.56744 0.48118 0.0
C190 C 0.21261 0.57442 0.49997 0.0
C191 C 0.22763 0.55331 0.53479 0.0
C192 C 0.16781 0.53933 0.49827 0.0
H193 H 0.22335 0.50963 0.578 0.0
C194 C 0.19856 0.44991 0.62675 0.0
O195 O 0.20709 0.37085 0.52682 0.0
O196 O 0.2325 0.4133 0.49847 0.0
N197 N 0.12713 0.50206 0.4966 0.0
C198 C 0.09841 0.49105 0.48008 0.0
C199 C 0.08058 0.50901 0.44416 0.0
C200 C 0.09215 0.53837 0.42643 0.0
C201 C 0.12172 0.54924 0.44402 0.0
C202 C 0.13849 0.53023 0.4796 0.0
H203 H 0.08908 0.46881 0.49434 0.0
O204 O 0.17228 0.41487 0.45213 0.0
O205 O 0.17649 0.4569 0.50337 0.0
O206 O 0.14267 0.40505 0.55145 0.0
O207 O 0.12265 0.45321 0.56971 0.0
C208 C 0.13518 0.57823 0.42783 0.0
C209 C 0.1655 0.58718 0.44598 0.0
H210 H 0.22476 0.59581 0.48772 0.0
H211 H 0.25119 0.55845 0.54933 0.0
H212 H 0.0578 0.50044 0.43067 0.0
H213 H 0.0781 0.55236 0.39932 0.0
H214 H 0.12253 0.59378 0.40119 0.0
H215 H 0.17583 0.60924 0.43247 0.0
Mn216 Mn 0.59564 0.19228 0.77439 0.0
Mn217 Mn 0.52501 0.15628 0.79737 0.0
C218 C 0.56625 0.17152 0.70571 0.0
C219 C 0.62635 0.23717 0.75413 0.0
C220 C 0.58844 0.12397 0.81427 0.0
O221 O 0.58467 0.20731 0.84922 0.0
O222 O 0.5367 0.18393 0.85689 0.0
C223 C 0.4836 0.21305 0.79572 0.0
N224 N 0.49072 0.18347 0.77783 0.0
C225 C 0.44307 0.18171 0.72589 0.0
C226 C 0.43509 0.21207 0.74408 0.0
C227 C 0.45557 0.2279 0.77886 0.0
C228 C 0.47152 0.1683 0.74354 0.0
H229 H 0.49917 0.22513 0.82265 0.0
C230 C 0.55885 0.20181 0.87403 0.0
O231 O 0.63866 0.21235 0.77647 0.0
O232 O 0.5959 0.23675 0.7469 0.0
N233 N 0.51006 0.12879 0.74285 0.0
C234 C 0.52205 0.10035 0.72686 0.0
C235 C 0.50479 0.08178 0.69107 0.0
C236 C 0.47514 0.09232 0.67295 0.0
C237 C 0.46329 0.12166 0.6899 0.0
C238 C 0.48162 0.1392 0.72539 0.0
H239 H 0.5445 0.09178 0.74149 0.0
O240 O 0.59642 0.1765 0.70046 0.0
O241 O 0.55376 0.17949 0.75046 0.0
O242 O 0.60601 0.14708 0.79999 0.0
O243 O 0.55829 0.1258 0.81722 0.0
C244 C 0.43396 0.13415 0.67319 0.0
C245 C 0.42401 0.16429 0.69074 0.0
H246 H 0.4134 0.22352 0.73138 0.0
H247 H 0.44967 0.2514 0.79292 0.0
H248 H 0.51413 0.0592 0.67805 0.0
H249 H 0.46167 0.07767 0.64603 0.0
H250 H 0.41894 0.1209 0.64656 0.0
H251 H 0.4017 0.17388 0.67682 0.0
Mn252 Mn 0.82586 0.60067 0.02883 0.0
Mn253 Mn 0.85943 0.52927 0.05572 0.0
C254 C 0.8454 0.56912 0.96192 0.0
C255 C 0.78207 0.63255 0.00666 0.0
C256 C 0.8941 0.59175 0.0684 0.0
O257 O 0.8105 0.59178 0.10422 0.0
O258 O 0.83284 0.54349 0.11501 0.0
C259 C 0.80105 0.49026 0.05818 0.0
N260 N 0.83066 0.49578 0.03894 0.0
C261 C 0.82958 0.44738 0.98891 0.0
C262 C 0.79915 0.44107 0.00845 0.0
C263 C 0.78474 0.46272 0.04299 0.0
C264 C 0.84451 0.4754 0.00498 0.0
H265 H 0.79004 0.5067 0.08494 0.0
C266 C 0.81562 0.56651 0.13082 0.0
O267 O 0.80729 0.64444 0.0283 0.0
O268 O 0.78144 0.60195 0.00133 0.0
N269 N 0.8858 0.51194 0.00161 0.0
C270 C 0.91465 0.52224 0.9845 0.0
C271 C 0.93196 0.50361 0.94886 0.0
C272 C 0.91975 0.47433 0.93205 0.0
C273 C 0.89008 0.46417 0.95032 0.0
C274 C 0.87385 0.4838 0.9856 0.0
H275 H 0.92446 0.54443 -0.00198 0.0
O276 O 0.84156 0.59935 0.95491 0.0
O277 O 0.83707 0.55786 0.00739 0.0
O278 O 0.87146 0.60989 0.05379 0.0
O279 O 0.89133 0.56173 0.07269 0.0
C280 C 0.87599 0.4353 0.93506 0.0
C281 C 0.84565 0.42705 0.95394 0.0
H282 H 0.78656 0.41977 -0.00299 0.0
H283 H 0.76121 0.45809 0.05813 0.0
H284 H 0.95483 0.51163 0.93488 0.0
H285 H 0.9334 0.45983 0.90517 0.0
H286 H 0.88818 0.41932 0.90856 0.0
H287 H 0.83484 0.40505 0.94118 0.0
C288 C 0.49266 0.17984 0.42813 0.0
C289 C 0.46665 0.16045 0.41714 0.0
C290 C 0.51024 0.17568 0.47428 0.0
C291 C 0.50052 0.15255 0.51132 0.0
C292 C 0.47482 0.13219 0.49939 0.0
C293 C 0.45793 0.13662 0.45247 0.0
C294 C 0.53832 0.19702 0.4845 0.0
C295 C 0.46369 0.10708 0.53719 0.0
C296 C 0.55735 0.13986 0.62487 0.0
C297 C 0.54712 0.16339 0.65963 0.0
C298 C 0.54112 0.13435 0.57763 0.0
C299 C 0.51444 0.15324 0.56488 0.0
C300 C 0.50333 0.17615 0.60121 0.0
C301 C 0.52032 0.18147 0.64762 0.0
C302 C 0.55389 0.10973 0.54037 0.0
C303 C 0.47429 0.19602 0.59001 0.0
H304 H 0.49871 0.1989 0.40129 0.0
H305 H 0.43749 0.12189 0.44387 0.0
H306 H 0.53284 0.21351 0.51724 0.0
H307 H 0.55917 0.18265 0.49648 0.0
H308 H 0.54477 0.21133 0.44938 0.0
H309 H 0.44715 0.11814 0.56555 0.0
H310 H 0.4508 0.08778 0.51651 0.0
H311 H 0.4837 0.09658 0.55945 0.0
H312 H 0.57843 0.12622 0.63418 0.0
H313 H 0.51314 0.20038 0.67393 0.0
H314 H 0.56992 0.12158 0.51205 0.0
H315 H 0.53465 0.098 0.51799 0.0
H316 H 0.56777 0.0913 0.56154 0.0
H317 H 0.47909 0.21236 0.55675 0.0
H318 H 0.46703 0.21042 0.62456 0.0
H319 H 0.45421 0.18053 0.57834 0.0
C320 C 0.87477 0.4576 0.71007 0.0
C321 C 0.85173 0.46819 0.67464 0.0
C322 C 0.87976 0.47351 0.75778 0.0
C323 C 0.86092 0.50028 0.7702 0.0
C324 C 0.83848 0.51169 0.7333 0.0
C325 C 0.83361 0.49498 0.6865 0.0
C326 C 0.90381 0.46048 0.79583 0.0
C327 C 0.8187 0.54083 0.74418 0.0
C328 C 0.8333 0.52279 0.90594 0.0
C329 C 0.85272 0.54876 0.91698 0.0
C330 C 0.83782 0.50489 0.86024 0.0
C331 C 0.86139 0.51423 0.82372 0.0
C332 C 0.88186 0.53981 0.83589 0.0
C333 C 0.87701 0.55706 0.88228 0.0
C334 C 0.81635 0.47693 0.84984 0.0
C335 C 0.90756 0.55056 0.79893 0.0
H336 H 0.8884 0.43651 0.70089 0.0
H337 H 0.81502 0.50239 0.65973 0.0
H338 H 0.89121 0.44647 0.82614 0.0
H339 H 0.92118 0.44468 0.77602 0.0
H340 H 0.91686 0.47981 0.81591 0.0
H341 H 0.80454 0.54821 0.70941 0.0
H342 H 0.80215 0.53611 0.77716 0.0
H343 H 0.83424 0.56083 0.75612 0.0
H344 H 0.81396 0.51702 0.93236 0.0
H345 H 0.89181 0.57744 0.89095 0.0
H346 H 0.83061 0.45595 0.83815 0.0
H347 H 0.80005 0.4825 0.81683 0.0
H348 H 0.80184 0.47063 0.88478 0.0
H349 H 0.92769 0.56124 0.82088 0.0
H350 H 0.89768 0.56905 0.77271 0.0
H351 H 0.9167 0.53086 0.77443 0.0
C352 C 0.49389 0.83305 0.14115 0.0
C353 C 0.4671 0.85102 0.15355 0.0
C354 C 0.51047 0.8383 0.09434 0.0
C355 C 0.49892 0.86098 0.05795 0.0
C356 C 0.4721 0.87961 0.07084 0.0
C357 C 0.45633 0.87425 0.11858 0.0
C358 C 0.53963 0.81867 0.0829 0.0
C359 C 0.45885 0.90384 0.03327 0.0
C360 C 0.55571 0.87806 0.94635 0.0
C361 C 0.54758 0.85394 0.91123 0.0
C362 C 0.53835 0.88259 0.9927 0.0
C363 C 0.51283 0.86193 0.00442 0.0
C364 C 0.50362 0.83858 0.96744 0.0
C365 C 0.52162 0.83439 0.92177 0.0
C366 C 0.54889 0.90814 0.0301 0.0
C367 C 0.4757 0.81697 0.97732 0.0
H368 H 0.50141 0.81428 0.16752 0.0
H369 H 0.43521 0.88775 0.12815 0.0
H370 H 0.53489 0.80236 0.04958 0.0
H371 H 0.55956 0.83435 0.07119 0.0
H372 H 0.54709 0.80424 0.11732 0.0
H373 H 0.44315 0.92111 0.05354 0.0
H374 H 0.47804 0.917 0.01304 0.0
H375 H 0.44468 0.89136 0.00303 0.0
H376 H 0.57606 0.89297 0.93804 0.0
H377 H 0.51596 0.81519 0.895 0.0
H378 H 0.56722 0.89814 0.05649 0.0
H379 H 0.52905 0.91717 0.0544 0.0
H380 H 0.55969 0.92837 0.00856 0.0
H381 H 0.48128 0.80042 0.00999 0.0
H382 H 0.46947 0.80271 0.94205 0.0
H383 H 0.4547 0.8311 0.98926 0.0
C384 C 0.13706 0.45612 0.37755 0.0
C385 C 0.16094 0.46502 0.41264 0.0
C386 C 0.13238 0.47294 0.33062 0.0
C387 C 0.15253 0.49876 0.31844 0.0
C388 C 0.17573 0.50865 0.35523 0.0
C389 C 0.18015 0.49113 0.40139 0.0
C390 C 0.10724 0.4616 0.29306 0.0
C391 C 0.19687 0.53685 0.34474 0.0
C392 C 0.18079 0.51885 0.18188 0.0
C393 C 0.16254 0.54558 0.17015 0.0
C394 C 0.17573 0.50176 0.22828 0.0
C395 C 0.15291 0.5127 0.26488 0.0
C396 C 0.13381 0.53929 0.25239 0.0
C397 C 0.13907 0.55563 0.20516 0.0
C398 C 0.19579 0.4728 0.23919 0.0
C399 C 0.10923 0.55185 0.2899 0.0
H400 H 0.12249 0.4356 0.38634 0.0
H401 H 0.19925 0.49731 0.42803 0.0
H402 H 0.11831 0.44506 0.26471 0.0
H403 H 0.08807 0.44864 0.31396 0.0
H404 H 0.09657 0.48152 0.27077 0.0
H405 H 0.21128 0.54339 0.37968 0.0
H406 H 0.21325 0.53143 0.3118 0.0
H407 H 0.18235 0.55762 0.33289 0.0
H408 H 0.19965 0.5118 0.15536 0.0
H409 H 0.12529 0.57665 0.19606 0.0
H410 H 0.18046 0.45263 0.251 0.0
H411 H 0.21224 0.47767 0.27227 0.0
H412 H 0.21008 0.46564 0.20446 0.0
H413 H 0.09763 0.53248 0.31217 0.0
H414 H 0.09071 0.56574 0.26897 0.0
H415 H 0.12108 0.56782 0.3183 0.0
C416 C 0.37495 0.27563 0.38913 0.0
C417 C 0.36351 0.25637 0.34825 0.0
C418 C 0.35489 0.29692 0.41583 0.0
C419 C 0.32269 0.29968 0.40056 0.0
C420 C 0.3113 0.28109 0.35804 0.0
C421 C 0.3317 0.25939 0.33291 0.0
C422 C 0.36792 0.31569 0.46155 0.0
C423 C 0.27739 0.28381 0.33955 0.0
C424 C 0.2604 0.33041 0.49714 0.0
C425 C 0.25733 0.36223 0.48184 0.0
C426 C 0.28217 0.31006 0.47205 0.0
C427 C 0.30078 0.32153 0.42962 0.0
C428 C 0.29798 0.35374 0.41441 0.0
C429 C 0.27662 0.37375 0.44107 0.0
C430 C 0.28492 0.27613 0.49049 0.0
C431 C 0.31679 0.36685 0.36879 0.0
H432 H 0.39939 0.27319 0.40172 0.0
H433 H 0.32267 0.2446 0.30142 0.0
H434 H 0.36446 0.34144 0.45471 0.0
H435 H 0.35481 0.30948 0.49798 0.0
H436 H 0.39357 0.31116 0.46814 0.0
H437 H 0.27273 0.26924 0.30396 0.0
H438 H 0.2611 0.27602 0.37126 0.0
H439 H 0.27164 0.30892 0.33052 0.0
H440 H 0.24558 0.32132 0.52856 0.0
H441 H 0.27416 0.3982 0.42851 0.0
H442 H 0.31002 0.27042 0.49956 0.0
H443 H 0.27719 0.25984 0.45872 0.0
H444 H 0.27034 0.27142 0.52603 0.0
H445 H 0.34253 0.36343 0.37571 0.0
H446 H 0.31224 0.39251 0.36225 0.0
H447 H 0.31065 0.35376 0.33231 0.0
C448 C 0.7491 0.3381 0.58435 0.0
C449 C 0.75252 0.36974 0.6004 0.0
C450 C 0.72713 0.31777 0.60898 0.0
C451 C 0.70862 0.32907 0.65163 0.0
C452 C 0.71163 0.36116 0.6674 0.0
C453 C 0.73324 0.38115 0.64127 0.0
C454 C 0.72419 0.28398 0.59 0.0
C455 C 0.69286 0.3741 0.71319 0.0
C456 C 0.63482 0.28243 0.6916 0.0
C457 C 0.64652 0.26287 0.73193 0.0
C458 C 0.65463 0.30419 0.66542 0.0
C459 C 0.68683 0.30706 0.6806 0.0
C460 C 0.69844 0.28823 0.72269 0.0
C461 C 0.67829 0.26613 0.74737 0.0
C462 C 0.64135 0.3233 0.62023 0.0
C463 C 0.73237 0.291 0.74104 0.0
H464 H 0.76388 0.32908 0.55284 0.0
H465 H 0.73595 0.40546 0.65437 0.0
H466 H 0.73204 0.26746 0.6214 0.0
H467 H 0.69904 0.2784 0.58113 0.0
H468 H 0.73862 0.27946 0.55421 0.0
H469 H 0.69724 0.39978 0.71969 0.0
H470 H 0.66712 0.37048 0.70655 0.0
H471 H 0.69925 0.36103 0.7496 0.0
H472 H 0.61041 0.27985 0.67897 0.0
H473 H 0.68752 0.25113 0.77846 0.0
H474 H 0.65416 0.31718 0.58347 0.0
H475 H 0.64501 0.34899 0.6273 0.0
H476 H 0.61564 0.31896 0.61412 0.0
H477 H 0.74863 0.28342 0.70913 0.0
H478 H 0.73717 0.27628 0.77642 0.0
H479 H 0.73802 0.31609 0.75032 0.0
C480 C 0.73753 0.64127 0.94291 0.0
C481 C 0.75709 0.65309 0.9831 0.0
C482 C 0.71635 0.66118 0.91561 0.0
C483 C 0.71401 0.69364 0.92955 0.0
C484 C 0.7329 0.70543 0.97139 0.0
C485 C 0.75448 0.68515 -0.00286 0.0
C486 C 0.69723 0.6477 0.87064 0.0
C487 C 0.73063 0.73964 0.98851 0.0
C488 C 0.68351 0.75485 0.83069 0.0
C489 C 0.65176 0.75836 0.84602 0.0
C490 C 0.70374 0.73326 0.85652 0.0
C491 C 0.69227 0.71536 0.8998 0.0
C492 C 0.66013 0.71867 0.91512 0.0
C493 C 0.64022 0.73977 0.88766 0.0
C494 C 0.73756 0.7299 0.8379 0.0
C495 C 0.64704 0.70069 0.96169 0.0
H496 H 0.73964 0.61663 0.9313 0.0
H497 H 0.76951 0.69448 0.0281 0.0
H498 H 0.67156 0.65151 0.87763 0.0
H499 H 0.7034 0.66024 0.83362 0.0
H500 H 0.70148 0.62191 0.86503 0.0
H501 H 0.74538 0.74464 0.02377 0.0
H502 H 0.73849 0.75539 0.95607 0.0
H503 H 0.70563 0.7458 -0.0025 0.0
H504 H 0.69261 0.76914 0.7986 0.0
H505 H 0.61583 0.74263 0.90027 0.0
H506 H 0.74299 0.70461 0.82982 0.0
H507 H 0.75404 0.73794 0.86918 0.0
H508 H 0.74227 0.74393 0.80171 0.0
H509 H 0.65014 0.67481 0.95583 0.0
H510 H 0.62148 0.70565 0.96832 0.0
H511 H 0.66037 0.70723 -0.00225 0.0
C512 C 0.26478 0.67717 0.08233 0.0
C513 C 0.26157 0.6454 0.09783 0.0
C514 C 0.28691 0.69736 0.10686 0.0
C515 C 0.30582 0.68578 0.14887 0.0
C516 C 0.30298 0.65357 0.16413 0.0
C517 C 0.28119 0.63373 0.1381 0.0
C518 C 0.28964 0.73129 0.08842 0.0
C519 C 0.32217 0.64033 0.20925 0.0
C520 C 0.38002 0.73218 0.18752 0.0
C521 C 0.36874 0.75152 0.22842 0.0
C522 C 0.35995 0.71056 0.16159 0.0
C523 C 0.32791 0.70759 0.17761 0.0
C524 C 0.31674 0.72617 0.22028 0.0
C525 C 0.33715 0.74815 0.2447 0.0
C526 C 0.37275 0.69172 0.11576 0.0
C527 C 0.28301 0.72328 0.23953 0.0
H528 H 0.24973 0.68638 0.05128 0.0
H529 H 0.27864 0.60932 0.15079 0.0
H530 H 0.28216 0.74758 0.12034 0.0
H531 H 0.31469 0.73692 0.07891 0.0
H532 H 0.27482 0.73607 0.05314 0.0
H533 H 0.3178 0.61463 0.2155 0.0
H534 H 0.34784 0.64394 0.20198 0.0
H535 H 0.31617 0.65321 0.246 0.0
H536 H 0.40429 0.73485 0.17423 0.0
H537 H 0.32824 0.76297 0.27624 0.0
H538 H 0.35958 0.69807 0.07944 0.0
H539 H 0.36914 0.66599 0.12253 0.0
H540 H 0.3984 0.69609 0.10903 0.0
H541 H 0.26642 0.7311 0.20822 0.0
H542 H 0.2786 0.73775 0.27531 0.0
H543 H 0.27744 0.69813 0.24853 0.0
C544 C 0.38927 0.93183 0.28135 0.0
C545 C 0.41405 0.92243 0.31482 0.0
C546 C 0.38296 0.96416 0.27214 0.0
C547 C 0.40171 0.98752 0.29737 0.0
C548 C 0.42451 0.97808 0.33524 0.0
C549 C 0.43047 0.9457 0.34333 0.0
C550 C 0.3583 0.97313 0.23178 0.0
C551 C 0.44471 1.00215 0.36382 0.0
C552 C 0.42821 0.06349 0.23153 0.0
C553 C 0.41176 0.08648 0.26061 0.0
C554 C 0.42314 0.03101 0.24013 0.0
C555 C 0.40122 0.02119 0.27912 0.0
C556 C 0.38244 0.04421 0.30513 0.0
C557 C 0.38784 0.07665 0.2954 0.0
C558 C 0.44335 1.00731 0.21073 0.0
C559 C 0.35871 0.03481 0.34669 0.0
H560 H 0.37663 0.91406 0.25876 0.0
H561 H 0.44956 0.93861 0.36942 0.0
H562 H 0.34459 0.9942 0.24467 0.0
H563 H 0.37027 0.97934 0.19429 0.0
H564 H 0.34159 0.95331 0.224 0.0
H565 H 0.45842 0.99129 0.39654 0.0
H566 H 0.46169 0.01306 0.33579 0.0
H567 H 0.42977 0.02147 0.38001 0.0
H568 H 0.44663 0.07091 0.20444 0.0
H569 H 0.37521 0.09421 0.31844 0.0
H570 H 0.42854 0.98768 0.19524 0.0
H571 H 0.46099 0.99676 0.23804 0.0
H572 H 0.45631 0.01838 0.17741 0.0
H573 H 0.34522 0.01345 0.33454 0.0
H574 H 0.34173 0.0543 0.3552 0.0
H575 H 0.37147 0.0289 0.38361 0.0
C576 C 0.93262 0.38907 0.54737 0.0
C577 C 0.92355 0.41411 0.51415 0.0
C578 C 0.96485 0.38244 0.55677 0.0
C579 C 0.98845 0.40112 0.53203 0.0
C580 C 0.97934 0.42421 0.4944 0.0
C581 C 0.94704 0.43048 0.48609 0.0
C582 C 0.97347 0.35746 0.59682 0.0
C583 C 1.00366 0.44437 0.46635 0.0
C584 C 0.06442 0.42673 0.59868 0.0
C585 C 0.08734 0.41034 0.56937 0.0
C586 C 0.03194 0.42188 0.58991 0.0
C587 C 0.02205 0.40024 0.55053 0.0
C588 C 0.04499 0.38145 0.52435 0.0
C589 C 0.07743 0.38663 0.53425 0.0
C590 C 0.00832 0.44208 0.61951 0.0
C591 C 0.03552 0.358 0.4824 0.0
H592 H 0.91467 0.37646 0.5696 0.0
H593 H 0.94022 0.44976 0.46017 0.0
H594 H 0.99447 0.34366 0.58392 0.0
H595 H 0.97964 0.36916 0.63456 0.0
H596 H 0.9535 0.34086 0.60413 0.0
H597 H 0.99304 0.45839 0.43378 0.0
H598 H 0.01464 0.46108 0.49475 0.0
H599 H 0.02289 0.42935 0.45006 0.0
H600 H 0.07192 0.44499 0.62602 0.0
H601 H 0.09495 0.37405 0.51104 0.0
H602 H 0.98856 0.42732 0.63463 0.0
H603 H 0.99797 0.45998 0.59243 0.0
H604 H 0.01942 0.45476 0.65312 0.0
H605 H 0.01401 0.34463 0.49419 0.0
H606 H 0.05488 0.34089 0.47383 0.0
H607 H 0.02984 0.37099 0.4456 0.0
C608 C 0.62821 0.93764 0.79306 0.0
C609 C 0.60423 0.9283 0.758 0.0
C610 C 0.63371 0.96994 0.80381 0.0
C611 C 0.61494 0.99332 0.77861 0.0
C612 C 0.59297 0.98404 0.73932 0.0
C613 C 0.58784 0.95168 0.72965 0.0
C614 C 0.65753 0.97877 0.8456 0.0
C615 C 0.57276 0.00814 0.71077 0.0
C616 C 0.58581 0.06795 0.84547 0.0
C617 C 0.60212 0.09159 0.81761 0.0
C618 C 0.59177 0.03569 0.83629 0.0
C619 C 0.6145 0.02675 0.798 0.0
C620 C 0.63317 0.05044 0.77347 0.0
C621 C 0.62684 0.08264 0.78372 0.0
C622 C 0.57164 0.01125 0.86412 0.0
C623 C 0.65779 0.042 0.73277 0.0
H624 H 0.64083 0.91977 0.81552 0.0
H625 H 0.56938 0.94464 0.70232 0.0
H626 H 0.671 1.00029 0.83415 0.0
H627 H 0.64484 0.98419 0.88277 0.0
H628 H 0.67451 0.95917 0.85335 0.0
H629 H 0.55971 0.99751 0.67714 0.0
H630 H 0.55519 0.01839 0.73848 0.0
H631 H 0.58758 0.02792 0.69585 0.0
H632 H 0.56678 0.07469 0.8719 0.0
H633 H 0.63941 0.1007 0.76165 0.0
H634 H 0.58661 0.99174 0.87964 0.0
H635 H 0.55463 1.00068 0.83578 0.0
H636 H 0.55795 0.02168 0.89722 0.0
H637 H 0.6715 0.02075 0.74489 0.0
H638 H 0.6745 0.0619 0.72566 0.0
H639 H 0.64578 0.0363 0.69508 0.0
C640 C 0.93657 0.62817 0.03558 0.0
C641 C 0.92689 0.60441 0.07083 0.0
C642 C 0.96894 0.63332 0.02507 0.0
C643 C 0.99206 0.61445 0.05071 0.0
C644 C 0.98245 0.59271 0.09014 0.0
C645 C 0.95002 0.5879 0.09956 0.0
C646 C 0.97812 0.65689 0.98308 0.0
C647 C 1.00626 0.5724 0.11915 0.0
C648 C 0.06668 0.58455 0.9847 0.0
C649 C 0.09034 0.60088 0.01245 0.0
C650 C 0.03443 0.59071 0.99367 0.0
C651 C 0.02555 0.61366 0.03164 0.0
C652 C 0.04928 0.63229 0.05612 0.0
C653 C 0.08146 0.62576 0.04608 0.0
C654 C 0.00995 0.57061 0.9659 0.0
C655 C 0.04089 0.65711 0.09652 0.0
H656 H 0.9189 0.64085 0.01282 0.0
H657 H 0.94272 0.56961 0.12701 0.0
H658 H 0.99968 0.67026 -0.0054 0.0
H659 H 0.9836 0.64398 0.94613 0.0
H660 H 0.95869 0.67399 0.97487 0.0
H661 H 0.9954 0.55959 0.15283 0.0
H662 H 0.01645 0.55462 0.09175 0.0
H663 H 0.02612 0.58712 0.13408 0.0
H664 H 0.07335 0.5654 0.95847 0.0
H665 H 0.09954 0.63834 0.06807 0.0
H666 H 0.9906 0.58566 0.95003 0.0
H667 H 0.99917 0.5538 -0.00562 0.0
H668 H 0.02037 0.55669 0.93307 0.0
H669 H 0.01983 0.67097 0.08402 0.0
H670 H 0.0609 0.67368 0.10371 0.0
H671 H 0.03492 0.64526 0.13424 0.0
C672 C 0.55949 0.20023 0.97105 0.0
C673 C 0.55217 0.21682 0.92499 0.0
C674 C 0.54203 0.20527 0.01739 0.0
C675 C 0.51618 0.22685 0.01698 0.0
C676 C 0.51083 0.24588 0.97198 0.0
C677 C 0.52915 0.2408 0.9266 0.0
C678 C 0.54925 0.18519 0.06511 0.0
C679 C 0.48365 0.26911 0.96958 0.0
C680 C 0.45115 0.19609 0.10604 0.0
C681 C 0.45697 0.21321 0.15213 0.0
C682 C 0.46837 0.20243 0.05989 0.0
C683 C 0.4925 0.22588 0.06056 0.0
C684 C 0.49626 0.24521 0.10562 0.0
C685 C 0.47816 0.23879 0.15079 0.0
C686 C 0.46284 0.1819 0.01211 0.0
C687 C 0.52162 0.27038 0.1083 0.0
H688 H 0.57687 0.18128 0.96953 0.0
H689 H 0.52341 0.25356 0.89082 0.0
H690 H 0.54909 0.19989 0.10131 0.0
H691 H 0.53066 0.16676 0.06958 0.0
H692 H 0.57261 0.17318 0.06185 0.0
H693 H 0.48658 0.28634 0.93685 0.0
H694 H 0.46123 0.2559 0.96313 0.0
H695 H 0.48126 0.28234 0.00707 0.0
H696 H 0.43523 0.17591 0.10739 0.0
H697 H 0.48283 0.25187 0.18667 0.0
H698 H 0.48286 0.16502 0.00766 0.0
H699 H 0.46185 0.19662 0.97595 0.0
H700 H 0.44051 0.16806 0.01527 0.0
H701 H 0.54491 0.25885 0.11527 0.0
H702 H 0.51721 0.2874 0.14084 0.0
H703 H 0.52328 0.28369 0.07075 0.0
C704 C 0.77462 0.5404 0.18429 0.0
C705 C 0.80044 0.56128 0.18209 0.0
C706 C 0.7685 0.52242 0.22974 0.0
C707 C 0.78839 0.52598 0.2742 0.0
C708 C 0.81207 0.54989 0.27409 0.0
C709 C 0.81808 0.56699 0.22769 0.0
C710 C 0.74306 0.49731 0.22788 0.0
C711 C 0.83319 0.55524 0.32123 0.0
C712 C 0.77457 0.48929 0.40852 0.0
C713 C 0.79824 0.46594 0.40937 0.0
C714 C 0.76924 0.50778 0.36337 0.0
C715 C 0.78772 0.50228 0.31783 0.0
C716 C 0.809 0.4762 0.31674 0.0
C717 C 0.8143 0.45855 0.36287 0.0
C718 C 0.74636 0.53522 0.3665 0.0
C719 C 0.82848 0.46885 0.26844 0.0
H720 H 0.76113 0.5358 0.14879 0.0
H721 H 0.83843 0.58266 0.22567 0.0
H722 H 0.75425 0.4739 0.22053 0.0
H723 H 0.7302 0.49575 0.26585 0.0
H724 H 0.72569 0.50192 0.1959 0.0
H725 H 0.84716 0.57746 0.31764 0.0
H726 H 0.8189 0.55634 0.35784 0.0
H727 H 0.84995 0.53508 0.32518 0.0
H728 H 0.76221 0.49506 0.44463 0.0
H729 H 0.83302 0.44092 0.3638 0.0
H730 H 0.73269 0.53776 0.32944 0.0
H731 H 0.75989 0.5575 0.37246 0.0
H732 H 0.72951 0.53249 0.39979 0.0
H733 H 0.81338 0.46914 0.23269 0.0
H734 H 0.84033 0.44537 0.27135 0.0
H735 H 0.847 0.4873 0.26343 0.0
C736 C 0.54019 0.7757 0.64448 0.0
C737 C 0.56052 0.80197 0.64627 0.0
C738 C 0.52222 0.76906 0.59922 0.0
C739 C 0.52521 0.7889 0.55456 0.0
C740 C 0.54853 0.81316 0.55433 0.0
C741 C 0.56562 0.81968 0.60054 0.0
C742 C 0.49772 0.74303 0.60146 0.0
C743 C 0.55326 0.83428 0.50699 0.0
C744 C 0.48935 0.7738 0.42011 0.0
C745 C 0.46548 0.79693 0.41882 0.0
C746 C 0.50772 0.76897 0.46552 0.0
C747 C 0.5016 0.78741 0.51088 0.0
C748 C 0.47499 0.80803 0.51156 0.0
C749 C 0.45744 0.81284 0.46518 0.0
C750 C 0.53571 0.74672 0.46286 0.0
C751 C 0.46698 0.82744 0.55965 0.0
H752 H 0.53599 0.76222 0.68013 0.0
H753 H 0.58085 0.84038 0.60227 0.0
H754 H 0.47409 0.7537 0.60898 0.0
H755 H 0.49634 0.73006 0.56357 0.0
H756 H 0.50285 0.72583 0.63349 0.0
H757 H 0.57505 0.84893 0.51045 0.0
H758 H 0.55479 0.81991 0.47052 0.0
H759 H 0.53261 0.85043 0.50287 0.0
H760 H 0.49561 0.76153 0.38414 0.0
H761 H 0.43937 0.83114 0.46395 0.0
H762 H 0.53834 0.73314 0.5 0.0
H763 H 0.55769 0.76077 0.45722 0.0
H764 H 0.53356 0.72978 0.42958 0.0
H765 H 0.46763 0.81245 0.59554 0.0
H766 H 0.44319 0.8386 0.5565 0.0
H767 H 0.48487 0.8465 0.5646 0.0
C768 C 0.23993 0.5285 0.90337 0.0
C769 C 0.21558 0.55112 0.90474 0.0
C770 C 0.24535 0.51013 0.85815 0.0
C771 C 0.22629 0.51505 0.81305 0.0
C772 C 0.20426 0.54051 0.81241 0.0
C773 C 0.19887 0.558 0.85861 0.0
C774 C 0.26904 0.48335 0.86081 0.0
C775 C 0.18412 0.54726 0.76459 0.0
C776 C 0.23915 0.47737 0.67925 0.0
C777 C 0.21393 0.45575 0.67771 0.0
C778 C 0.24521 0.49548 0.72454 0.0
C779 C 0.22588 0.49133 0.7695 0.0
C780 C 0.20289 0.46676 0.76998 0.0
C781 C 0.1969 0.44952 0.72373 0.0
C782 C 0.26993 0.5213 0.72205 0.0
C783 C 0.1824 0.4608 0.81767 0.0
H784 H 0.25275 0.52307 0.93923 0.0
H785 H 0.17964 0.57506 0.85996 0.0
H786 H 0.25622 0.46072 0.86745 0.0
H787 H 0.28233 0.48107 0.82335 0.0
H788 H 0.2862 0.48668 0.89353 0.0
H789 H 0.17162 0.57038 0.76772 0.0
H790 H 0.19888 0.54738 0.72845 0.0
H791 H 0.16609 0.52828 0.76009 0.0
H792 H 0.2522 0.48233 0.64344 0.0
H793 H 0.177 0.43325 0.72223 0.0
H794 H 0.28317 0.52311 0.75964 0.0
H795 H 0.25801 0.54441 0.71521 0.0
H796 H 0.28705 0.51726 0.68952 0.0
H797 H 0.19707 0.4601 0.85391 0.0
H798 H 0.16904 0.43818 0.81444 0.0
H799 H 0.1651 0.48046 0.82205 0.0
loop_
_geom_bond_atom_site_label_1
_geom_bond_atom_site_label_2
_geom_bond_distance
_geom_bond_site_symmetry_2
_ccdc_geom_bond_type
Mn0 O5 2.095 . S
Mn0 O15 2.162 . S
Mn0 O16 2.297 . S
Mn0 O24 2.385 . S
Mn0 O25 2.209 . S
Mn0 O26 2.094 . S
Mn1 O6 2.121 . S
Mn1 N8 2.257 . S
Mn1 N17 2.282 . S
Mn1 O25 2.215 . S
Mn1 O27 2.117 . S
C2 O24 1.234 . S
C2 O25 1.283 . S
C3 O15 1.281 . S
C3 O16 1.236 . S
C4 O26 1.240 . S
C4 O27 1.264 . S
O5 Mn0 2.095 . S
O5 C14 1.250 . S
O6 Mn1 2.121 . S
O6 C14 1.258 . S
C7 N8 1.326 . S
C7 C11 1.460 . S
C7 H13 0.929 . S
N8 Mn1 2.257 . S
N8 C7 1.326 . S
N8 C12 1.362 . S
C9 C10 1.258 . S
C9 C12 1.431 . S
C9 C29 1.449 . S
C10 C9 1.258 . S
C10 C11 1.477 . S
C10 H30 0.931 . S
C11 C7 1.460 . S
C11 C10 1.477 . S
C11 H31 0.930 . S
C12 N8 1.362 . S
C12 C9 1.431 . S
C12 C22 1.476 . S
H13 C7 0.929 . S
C14 O5 1.250 . S
C14 O6 1.258 . S
O15 Mn0 2.162 . S
O15 C3 1.281 . S
O16 Mn0 2.297 . S
O16 C3 1.236 . S
N17 Mn1 2.282 . S
N17 C18 1.328 . S
N17 C22 1.318 . S
C18 N17 1.328 . S
C18 C19 1.457 . S
C18 H23 0.929 . S
C19 C18 1.457 . S
C19 C20 1.291 . S
C19 H32 0.931 . S
C20 C19 1.291 . S
C20 C21 1.373 . S
C20 H33 0.929 . S
C21 C20 1.373 . S
C21 C22 1.396 . S
C21 C28 1.403 . S
C22 C12 1.476 . S
C22 N17 1.318 . S
C22 C21 1.396 . S
H23 C18 0.929 . S
O24 Mn0 2.385 . S
O24 C2 1.234 . S
O25 Mn0 2.209 . S
O25 Mn1 2.215 . S
O25 C2 1.283 . S
O26 Mn0 2.094 . S
O26 C4 1.240 . S
O27 Mn1 2.117 . S
O27 C4 1.264 . S
C28 C21 1.403 . S
C28 C29 1.399 . S
C28 H34 0.929 . S
C29 C9 1.449 . S
C29 C28 1.399 . S
C29 H35 0.930 . S
H30 C10 0.931 . S
H31 C11 0.930 . S
H32 C19 0.931 . S
H33 C20 0.929 . S
H34 C28 0.929 . S
H35 C29 0.930 . S
Mn36 O41 2.095 . S
Mn36 O51 2.162 . S
Mn36 O52 2.297 . S
Mn36 O60 2.385 . S
Mn36 O61 2.209 . S
Mn36 O62 2.094 . S
Mn37 O42 2.121 . S
Mn37 N44 2.257 . S
Mn37 N53 2.282 . S
Mn37 O61 2.215 . S
Mn37 O63 2.117 . S
C38 O60 1.234 . S
C38 O61 1.283 . S
C39 O51 1.281 . S
C39 O52 1.236 . S
C40 O62 1.240 . S
C40 O63 1.264 . S
O41 Mn36 2.095 . S
O41 C50 1.250 . S
O42 Mn37 2.121 . S
O42 C50 1.258 . S
C43 N44 1.326 . S
C43 C47 1.460 . S
C43 H49 0.929 . S
N44 Mn37 2.257 . S
N44 C43 1.326 . S
N44 C48 1.362 . S
C45 C46 1.258 . S
C45 C48 1.431 . S
C45 C65 1.449 . S
C46 C45 1.258 . S
C46 C47 1.477 . S
C46 H66 0.931 . S
C47 C43 1.460 . S
C47 C46 1.477 . S
C47 H67 0.930 . S
C48 N44 1.362 . S
C48 C45 1.431 . S
C48 C58 1.476 . S
H49 C43 0.929 . S
C50 O41 1.250 . S
C50 O42 1.258 . S
O51 Mn36 2.162 . S
O51 C39 1.281 . S
O52 Mn36 2.297 . S
O52 C39 1.236 . S
N53 Mn37 2.282 . S
N53 C54 1.328 . S
N53 C58 1.318 . S
C54 N53 1.328 . S
C54 C55 1.457 . S
C54 H59 0.929 . S
C55 C54 1.457 . S
C55 C56 1.291 . S
C55 H68 0.931 . S
C56 C55 1.291 . S
C56 C57 1.373 . S
C56 H69 0.929 . S
C57 C56 1.373 . S
C57 C58 1.396 . S
C57 C64 1.403 . S
C58 C48 1.476 . S
C58 N53 1.318 . S
C58 C57 1.396 . S
H59 C54 0.929 . S
O60 Mn36 2.385 . S
O60 C38 1.234 . S
O61 Mn36 2.209 . S
O61 Mn37 2.215 . S
O61 C38 1.283 . S
O62 Mn36 2.094 . S
O62 C40 1.240 . S
O63 Mn37 2.117 . S
O63 C40 1.264 . S
C64 C57 1.403 . S
C64 C65 1.399 . S
C64 H70 0.929 . S
C65 C45 1.449 . S
C65 C64 1.399 . S
C65 H71 0.930 . S
H66 C46 0.931 . S
H67 C47 0.930 . S
H68 C55 0.931 . S
H69 C56 0.929 . S
H70 C64 0.929 . S
H71 C65 0.930 . S
Mn72 O77 2.095 . S
Mn72 O87 2.162 . S
Mn72 O88 2.297 . S
Mn72 O96 2.385 . S
Mn72 O97 2.209 . S
Mn72 O98 2.094 . S
Mn73 O78 2.121 . S
Mn73 N80 2.257 . S
Mn73 N89 2.282 . S
Mn73 O97 2.215 . S
Mn73 O99 2.117 . S
C74 O96 1.234 . S
C74 O97 1.283 . S
C75 O87 1.281 . S
C75 O88 1.236 . S
C76 O98 1.240 . S
C76 O99 1.264 . S
O77 Mn72 2.095 . S
O77 C86 1.250 . S
O78 Mn73 2.121 . S
O78 C86 1.258 . S
C79 N80 1.326 . S
C79 C83 1.460 . S
C79 H85 0.929 . S
N80 Mn73 2.257 . S
N80 C79 1.326 . S
N80 C84 1.362 . S
C81 C82 1.258 . S
C81 C84 1.431 . S
C81 C101 1.449 . S
C82 C81 1.258 . S
C82 C83 1.477 . S
C82 H102 0.931 . S
C83 C79 1.460 . S
C83 C82 1.477 . S
C83 H103 0.930 . S
C84 N80 1.362 . S
C84 C81 1.431 . S
C84 C94 1.476 . S
H85 C79 0.929 . S
C86 O77 1.250 . S
C86 O78 1.258 . S
O87 Mn72 2.162 . S
O87 C75 1.281 . S
O88 Mn72 2.297 . S
O88 C75 1.236 . S
N89 Mn73 2.282 . S
N89 C90 1.328 . S
N89 C94 1.318 . S
C90 N89 1.328 . S
C90 C91 1.457 . S
C90 H95 0.929 . S
C91 C90 1.457 . S
C91 C92 1.291 . S
C91 H104 0.931 . S
C92 C91 1.291 . S
C92 C93 1.373 . S
C92 H105 0.929 1_556 S
C93 C92 1.373 . S
C93 C94 1.396 . S
C93 C100 1.403 . S
C94 C84 1.476 . S
C94 N89 1.318 . S
C94 C93 1.396 . S
H95 C90 0.929 . S
O96 Mn72 2.385 . S
O96 C74 1.234 . S
O97 Mn72 2.209 . S
O97 Mn73 2.215 . S
O97 C74 1.283 . S
O98 Mn72 2.094 . S
O98 C76 1.240 . S
O99 Mn73 2.117 . S
O99 C76 1.264 . S
C100 C93 1.403 . S
C100 C101 1.399 . S
C100 H106 0.929 . S
C101 C81 1.449 . S
C101 C100 1.399 . S
C101 H107 0.930 . S
H102 C82 0.931 . S
H103 C83 0.930 . S
H104 C91 0.931 . S
H105 C92 0.929 1_554 S
H106 C100 0.929 . S
H107 C101 0.930 . S
Mn108 O113 2.095 1_554 S
Mn108 O123 2.162 . S
Mn108 O124 2.297 . S
Mn108 O132 2.385 . S
Mn108 O133 2.209 . S
Mn108 O134 2.094 . S
Mn109 O114 2.121 1_554 S
Mn109 N116 2.257 . S
Mn109 N125 2.282 . S
Mn109 O133 2.215 . S
Mn109 O135 2.117 . S
C110 O132 1.234 . S
C110 O133 1.283 . S
C111 O123 1.281 . S
C111 O124 1.236 . S
C112 O134 1.240 . S
C112 O135 1.264 . S
O113 Mn108 2.095 1_556 S
O113 C122 1.250 . S
O114 Mn109 2.121 1_556 S
O114 C122 1.258 . S
C115 N116 1.326 . S
C115 C119 1.460 . S
C115 H121 0.929 . S
N116 Mn109 2.257 . S
N116 C115 1.326 . S
N116 C120 1.362 . S
C117 C118 1.258 . S
C117 C120 1.431 . S
C117 C137 1.449 . S
C118 C117 1.258 . S
C118 C119 1.477 . S
C118 H138 0.931 . S
C119 C115 1.460 . S
C119 C118 1.477 . S
C119 H139 0.930 . S
C120 N116 1.362 . S
C120 C117 1.431 . S
C120 C130 1.476 . S
H121 C115 0.929 . S
C122 O113 1.250 . S
C122 O114 1.258 . S
O123 Mn108 2.162 . S
O123 C111 1.281 . S
O124 Mn108 2.297 . S
O124 C111 1.236 . S
N125 Mn109 2.282 . S
N125 C126 1.328 . S
N125 C130 1.318 . S
C126 N125 1.328 . S
C126 C127 1.457 . S
C126 H131 0.929 . S
C127 C126 1.457 . S
C127 C128 1.291 . S
C127 H140 0.931 . S
C128 C127 1.291 . S
C128 C129 1.373 . S
C128 H141 0.929 . S
C129 C128 1.373 . S
C129 C130 1.396 . S
C129 C136 1.403 . S
C130 C120 1.476 . S
C130 N125 1.318 . S
C130 C129 1.396 . S
H131 C126 0.929 . S
O132 Mn108 2.385 . S
O132 C110 1.234 . S
O133 Mn108 2.209 . S
O133 Mn109 2.215 . S
O133 C110 1.283 . S
O134 Mn108 2.094 . S
O134 C112 1.240 . S
O135 Mn109 2.117 . S
O135 C112 1.264 . S
C136 C129 1.403 . S
C136 C137 1.399 . S
C136 H142 0.929 . S
C137 C117 1.449 . S
C137 C136 1.399 . S
C137 H143 0.930 . S
H138 C118 0.931 . S
H139 C119 0.930 . S
H140 C127 0.931 . S
H141 C128 0.929 . S
H142 C136 0.929 . S
H143 C137 0.930 . S
Mn144 O149 2.095 . S
Mn144 O159 2.162 . S
Mn144 O160 2.297 . S
Mn144 O168 2.385 . S
Mn144 O169 2.209 . S
Mn144 O170 2.094 . S
Mn145 O150 2.121 . S
Mn145 N152 2.257 . S
Mn145 N161 2.282 . S
Mn145 O169 2.215 . S
Mn145 O171 2.117 . S
C146 O168 1.234 . S
C146 O169 1.283 . S
C147 O159 1.281 . S
C147 O160 1.236 . S
C148 O170 1.240 . S
C148 O171 1.264 . S
O149 Mn144 2.095 . S
O149 C158 1.250 . S
O150 Mn145 2.121 . S
O150 C158 1.258 . S
C151 N152 1.326 . S
C151 C155 1.460 . S
C151 H157 0.929 . S
N152 Mn145 2.257 . S
N152 C151 1.326 . S
N152 C156 1.362 . S
C153 C154 1.258 . S
C153 C156 1.431 . S
C153 C173 1.449 . S
C154 C153 1.258 . S
C154 C155 1.477 . S
C154 H174 0.931 . S
C155 C151 1.460 . S
C155 C154 1.477 . S
C155 H175 0.930 . S
C156 N152 1.362 . S
C156 C153 1.431 . S
C156 C166 1.476 . S
H157 C151 0.929 . S
C158 O149 1.250 . S
C158 O150 1.258 . S
O159 Mn144 2.162 . S
O159 C147 1.281 . S
O160 Mn144 2.297 . S
O160 C147 1.236 . S
N161 Mn145 2.282 . S
N161 C162 1.328 . S
N161 C166 1.318 . S
C162 N161 1.328 . S
C162 C163 1.457 . S
C162 H167 0.929 . S
C163 C162 1.457 . S
C163 C164 1.291 . S
C163 H176 0.931 . S
C164 C163 1.291 . S
C164 C165 1.373 . S
C164 H177 0.929 . S
C165 C164 1.373 . S
C165 C166 1.396 . S
C165 C172 1.403 . S
C166 C156 1.476 . S
C166 N161 1.318 . S
C166 C165 1.396 . S
H167 C162 0.929 . S
O168 Mn144 2.385 . S
O168 C146 1.234 . S
O169 Mn144 2.209 . S
O169 Mn145 2.215 . S
O169 C146 1.283 . S
O170 Mn144 2.094 . S
O170 C148 1.240 . S
O171 Mn145 2.117 . S
O171 C148 1.264 . S
C172 C165 1.403 . S
C172 C173 1.399 . S
C172 H178 0.929 . S
C173 C153 1.449 . S
C173 C172 1.399 . S
C173 H179 0.930 . S
H174 C154 0.931 . S
H175 C155 0.930 . S
H176 C163 0.931 . S
H177 C164 0.929 . S
H178 C172 0.929 . S
H179 C173 0.930 . S
Mn180 O185 2.095 . S
Mn180 O195 2.162 . S
Mn180 O196 2.297 . S
Mn180 O204 2.385 . S
Mn180 O205 2.209 . S
Mn180 O206 2.094 . S
Mn181 O186 2.121 . S
Mn181 N188 2.257 . S
Mn181 N197 2.282 . S
Mn181 O205 2.215 . S
Mn181 O207 2.117 . S
C182 O204 1.234 . S
C182 O205 1.283 . S
C183 O195 1.281 . S
C183 O196 1.236 . S
C184 O206 1.240 . S
C184 O207 1.264 . S
O185 Mn180 2.095 . S
O185 C194 1.250 . S
O186 Mn181 2.121 . S
O186 C194 1.258 . S
C187 N188 1.326 . S
C187 C191 1.460 . S
C187 H193 0.929 . S
N188 Mn181 2.257 . S
N188 C187 1.326 . S
N188 C192 1.362 . S
C189 C190 1.258 . S
C189 C192 1.431 . S
C189 C209 1.449 . S
C190 C189 1.258 . S
C190 C191 1.477 . S
C190 H210 0.931 . S
C191 C187 1.460 . S
C191 C190 1.477 . S
C191 H211 0.930 . S
C192 N188 1.362 . S
C192 C189 1.431 . S
C192 C202 1.476 . S
H193 C187 0.929 . S
C194 O185 1.250 . S
C194 O186 1.258 . S
O195 Mn180 2.162 . S
O195 C183 1.281 . S
O196 Mn180 2.297 . S
O196 C183 1.236 . S
N197 Mn181 2.282 . S
N197 C198 1.328 . S
N197 C202 1.318 . S
C198 N197 1.328 . S
C198 C199 1.457 . S
C198 H203 0.929 . S
C199 C198 1.457 . S
C199 C200 1.291 . S
C199 H212 0.931 . S
C200 C199 1.291 . S
C200 C201 1.373 . S
C200 H213 0.929 . S
C201 C200 1.373 . S
C201 C202 1.396 . S
C201 C208 1.403 . S
C202 C192 1.476 . S
C202 N197 1.318 . S
C202 C201 1.396 . S
H203 C198 0.929 . S
O204 Mn180 2.385 . S
O204 C182 1.234 . S
O205 Mn180 2.209 . S
O205 Mn181 2.215 . S
O205 C182 1.283 . S
O206 Mn180 2.094 . S
O206 C184 1.240 . S
O207 Mn181 2.117 . S
O207 C184 1.264 . S
C208 C201 1.403 . S
C208 C209 1.399 . S
C208 H214 0.929 . S
C209 C189 1.449 . S
C209 C208 1.399 . S
C209 H215 0.930 . S
H210 C190 0.931 . S
H211 C191 0.930 . S
H212 C199 0.931 . S
H213 C200 0.929 . S
H214 C208 0.929 . S
H215 C209 0.930 . S
Mn216 O221 2.095 . S
Mn216 O231 2.162 . S
Mn216 O232 2.297 . S
Mn216 O240 2.385 . S
Mn216 O241 2.209 . S
Mn216 O242 2.094 . S
Mn217 O222 2.121 . S
Mn217 N224 2.257 . S
Mn217 N233 2.282 . S
Mn217 O241 2.215 . S
Mn217 O243 2.117 . S
C218 O240 1.234 . S
C218 O241 1.283 . S
C219 O231 1.281 . S
C219 O232 1.236 . S
C220 O242 1.240 . S
C220 O243 1.264 . S
O221 Mn216 2.095 . S
O221 C230 1.250 . S
O222 Mn217 2.121 . S
O222 C230 1.258 . S
C223 N224 1.326 . S
C223 C227 1.460 . S
C223 H229 0.929 . S
N224 Mn217 2.257 . S
N224 C223 1.326 . S
N224 C228 1.362 . S
C225 C226 1.258 . S
C225 C228 1.431 . S
C225 C245 1.449 . S
C226 C225 1.258 . S
C226 C227 1.477 . S
C226 H246 0.931 . S
C227 C223 1.460 . S
C227 C226 1.477 . S
C227 H247 0.930 . S
C228 N224 1.362 . S
C228 C225 1.431 . S
C228 C238 1.476 . S
H229 C223 0.929 . S
C230 O221 1.250 . S
C230 O222 1.258 . S
O231 Mn216 2.162 . S
O231 C219 1.281 . S
O232 Mn216 2.297 . S
O232 C219 1.236 . S
N233 Mn217 2.282 . S
N233 C234 1.328 . S
N233 C238 1.318 . S
C234 N233 1.328 . S
C234 C235 1.457 . S
C234 H239 0.929 . S
C235 C234 1.457 . S
C235 C236 1.291 . S
C235 H248 0.931 . S
C236 C235 1.291 . S
C236 C237 1.373 . S
C236 H249 0.929 . S
C237 C236 1.373 . S
C237 C238 1.396 . S
C237 C244 1.403 . S
C238 C228 1.476 . S
C238 N233 1.318 . S
C238 C237 1.396 . S
H239 C234 0.929 . S
O240 Mn216 2.385 . S
O240 C218 1.234 . S
O241 Mn216 2.209 . S
O241 Mn217 2.215 . S
O241 C218 1.283 . S
O242 Mn216 2.094 . S
O242 C220 1.240 . S
O243 Mn217 2.117 . S
O243 C220 1.264 . S
C244 C237 1.403 . S
C244 C245 1.399 . S
C244 H250 0.929 . S
C245 C225 1.449 . S
C245 C244 1.399 . S
C245 H251 0.930 . S
H246 C226 0.931 . S
H247 C227 0.930 . S
H248 C235 0.931 . S
H249 C236 0.929 . S
H250 C244 0.929 . S
H251 C245 0.930 . S
Mn252 O257 2.095 . S
Mn252 O267 2.162 . S
Mn252 O268 2.297 . S
Mn252 O276 2.385 1_554 S
Mn252 O277 2.209 1_554 S
Mn252 O278 2.094 . S
Mn253 O258 2.121 . S
Mn253 N260 2.257 . S
Mn253 N269 2.282 1_554 S
Mn253 O277 2.215 1_554 S
Mn253 O279 2.117 . S
C254 O276 1.234 . S
C254 O277 1.283 . S
C255 O267 1.281 . S
C255 O268 1.236 . S
C256 O278 1.240 . S
C256 O279 1.264 . S
O257 Mn252 2.095 . S
O257 C266 1.250 . S
O258 Mn253 2.121 . S
O258 C266 1.258 . S
C259 N260 1.326 . S
C259 C263 1.460 . S
C259 H265 0.929 . S
N260 Mn253 2.257 . S
N260 C259 1.326 . S
N260 C264 1.362 1_554 S
C261 C262 1.258 . S
C261 C264 1.431 . S
C261 C281 1.449 . S
C262 C261 1.258 . S
C262 C263 1.477 1_556 S
C262 H282 0.931 . S
C263 C259 1.460 . S
C263 C262 1.477 1_554 S
C263 H283 0.930 . S
C264 N260 1.362 1_556 S
C264 C261 1.431 . S
C264 C274 1.476 . S
H265 C259 0.929 . S
C266 O257 1.250 . S
C266 O258 1.258 . S
O267 Mn252 2.162 . S
O267 C255 1.281 . S
O268 Mn252 2.297 . S
O268 C255 1.236 . S
N269 Mn253 2.282 1_556 S
N269 C270 1.328 . S
N269 C274 1.318 . S
C270 N269 1.328 . S
C270 C271 1.457 . S
C270 H275 0.929 . S
C271 C270 1.457 . S
C271 C272 1.291 . S
C271 H284 0.931 . S
C272 C271 1.291 . S
C272 C273 1.373 . S
C272 H285 0.929 . S
C273 C272 1.373 . S
C273 C274 1.396 . S
C273 C280 1.403 . S
C274 C264 1.476 . S
C274 N269 1.318 . S
C274 C273 1.396 . S
H275 C270 0.929 . S
O276 Mn252 2.385 1_556 S
O276 C254 1.234 . S
O277 Mn252 2.209 1_556 S
O277 Mn253 2.215 1_556 S
O277 C254 1.283 . S
O278 Mn252 2.094 . S
O278 C256 1.240 . S
O279 Mn253 2.117 . S
O279 C256 1.264 . S
C280 C273 1.403 . S
C280 C281 1.399 . S
C280 H286 0.929 . S
C281 C261 1.449 . S
C281 C280 1.399 . S
C281 H287 0.930 . S
H282 C262 0.931 . S
H283 C263 0.930 . S
H284 C271 0.931 . S
H285 C272 0.929 . S
H286 C280 0.929 . S
H287 C281 0.930 . S
C288 C289 1.391 . S
C288 C290 1.394 . S
C288 H304 0.931 . S
C289 C288 1.391 . S
C289 C293 1.376 . S
C290 C288 1.394 . S
C290 C291 1.369 . S
C290 C294 1.531 . S
C291 C290 1.369 . S
C291 C292 1.410 . S
C291 C299 1.503 . S
C292 C291 1.410 . S
C292 C293 1.392 . S
C292 C295 1.511 . S
C293 C289 1.376 . S
C293 C292 1.392 . S
C293 H305 0.929 . S
C294 C290 1.531 . S
C294 H306 0.960 . S
C294 H307 0.962 . S
C294 H308 0.960 . S
C295 C292 1.511 . S
C295 H309 0.961 . S
C295 H310 0.961 . S
C295 H311 0.961 . S
C296 C297 1.370 . S
C296 C298 1.363 . S
C296 H312 0.931 . S
C297 C296 1.370 . S
C297 C301 1.408 . S
C298 C296 1.363 . S
C298 C299 1.370 . S
C298 C302 1.524 . S
C299 C291 1.503 . S
C299 C298 1.370 . S
C299 C300 1.403 . S
C300 C299 1.403 . S
C300 C301 1.404 . S
C300 C303 1.539 . S
C301 C297 1.408 . S
C301 C300 1.404 . S
C301 H313 0.930 . S
C302 C298 1.524 . S
C302 H314 0.956 . S
C302 H315 0.961 . S
C302 H316 0.961 . S
C303 C300 1.539 . S
C303 H317 0.958 . S
C303 H318 0.961 . S
C303 H319 0.960 . S
H304 C288 0.931 . S
H305 C293 0.929 . S
H306 C294 0.960 . S
H307 C294 0.962 . S
H308 C294 0.960 . S
H309 C295 0.961 . S
H310 C295 0.961 . S
H311 C295 0.961 . S
H312 C296 0.931 . S
H313 C301 0.930 . S
H314 C302 0.956 . S
H315 C302 0.961 . S
H316 C302 0.961 . S
H317 C303 0.958 . S
H318 C303 0.961 . S
H319 C303 0.960 . S
C320 C321 1.391 . S
C320 C322 1.394 . S
C320 H336 0.931 . S
C321 C320 1.391 . S
C321 C325 1.376 . S
C322 C320 1.394 . S
C322 C323 1.369 . S
C322 C326 1.531 . S
C323 C322 1.369 . S
C323 C324 1.410 . S
C323 C331 1.503 . S
C324 C323 1.410 . S
C324 C325 1.392 . S
C324 C327 1.511 . S
C325 C321 1.376 . S
C325 C324 1.392 . S
C325 H337 0.929 . S
C326 C322 1.531 . S
C326 H338 0.960 . S
C326 H339 0.962 . S
C326 H340 0.960 . S
C327 C324 1.511 . S
C327 H341 0.961 . S
C327 H342 0.961 . S
C327 H343 0.961 . S
C328 C329 1.370 . S
C328 C330 1.363 . S
C328 H344 0.931 . S
C329 C328 1.370 . S
C329 C333 1.408 . S
C330 C328 1.363 . S
C330 C331 1.370 . S
C330 C334 1.524 . S
C331 C323 1.503 . S
C331 C330 1.370 . S
C331 C332 1.403 . S
C332 C331 1.403 . S
C332 C333 1.404 . S
C332 C335 1.539 . S
C333 C329 1.408 . S
C333 C332 1.404 . S
C333 H345 0.930 . S
C334 C330 1.524 . S
C334 H346 0.956 . S
C334 H347 0.961 . S
C334 H348 0.961 . S
C335 C332 1.539 . S
C335 H349 0.958 . S
C335 H350 0.961 . S
C335 H351 0.960 . S
H336 C320 0.931 . S
H337 C325 0.929 . S
H338 C326 0.960 . S
H339 C326 0.962 . S
H340 C326 0.960 . S
H341 C327 0.961 . S
H342 C327 0.961 . S
H343 C327 0.961 . S
H344 C328 0.931 . S
H345 C333 0.930 . S
H346 C334 0.956 . S
H347 C334 0.961 . S
H348 C334 0.961 . S
H349 C335 0.958 . S
H350 C335 0.961 . S
H351 C335 0.960 . S
C352 C353 1.391 . S
C352 C354 1.394 . S
C352 H368 0.931 . S
C353 C352 1.391 . S
C353 C357 1.376 . S
C354 C352 1.394 . S
C354 C355 1.369 . S
C354 C358 1.531 . S
C355 C354 1.369 . S
C355 C356 1.410 . S
C355 C363 1.503 . S
C356 C355 1.410 . S
C356 C357 1.392 . S
C356 C359 1.511 . S
C357 C353 1.376 . S
C357 C356 1.392 . S
C357 H369 0.929 . S
C358 C354 1.531 . S
C358 H370 0.960 . S
C358 H371 0.962 . S
C358 H372 0.960 . S
C359 C356 1.511 . S
C359 H373 0.961 . S
C359 H374 0.961 . S
C359 H375 0.961 . S
C360 C361 1.370 . S
C360 C362 1.363 . S
C360 H376 0.931 . S
C361 C360 1.370 . S
C361 C365 1.408 . S
C362 C360 1.363 . S
C362 C363 1.370 1_556 S
C362 C366 1.524 . S
C363 C355 1.503 . S
C363 C362 1.370 1_554 S
C363 C364 1.403 . S
C364 C363 1.403 . S
C364 C365 1.404 1_554 S
C364 C367 1.539 . S
C365 C361 1.408 . S
C365 C364 1.404 1_556 S
C365 H377 0.930 . S
C366 C362 1.524 . S
C366 H378 0.956 1_556 S
C366 H379 0.961 1_556 S
C366 H380 0.961 . S
C367 C364 1.539 . S
C367 H381 0.958 . S
C367 H382 0.961 . S
C367 H383 0.960 . S
H368 C352 0.931 . S
H369 C357 0.929 . S
H370 C358 0.960 . S
H371 C358 0.962 . S
H372 C358 0.960 . S
H373 C359 0.961 . S
H374 C359 0.961 . S
H375 C359 0.961 . S
H376 C360 0.931 . S
H377 C365 0.930 . S
H378 C366 0.956 1_554 S
H379 C366 0.961 1_554 S
H380 C366 0.961 . S
H381 C367 0.958 . S
H382 C367 0.961 . S
H383 C367 0.960 . S
C384 C385 1.391 . S
C384 C386 1.394 . S
C384 H400 0.931 . S
C385 C384 1.391 . S
C385 C389 1.376 . S
C386 C384 1.394 . S
C386 C387 1.369 . S
C386 C390 1.531 . S
C387 C386 1.369 . S
C387 C388 1.410 . S
C387 C395 1.503 . S
C388 C387 1.410 . S
C388 C389 1.392 . S
C388 C391 1.511 . S
C389 C385 1.376 . S
C389 C388 1.392 . S
C389 H401 0.929 . S
C390 C386 1.531 . S
C390 H402 0.960 . S
C390 H403 0.962 . S
C390 H404 0.960 . S
C391 C388 1.511 . S
C391 H405 0.961 . S
C391 H406 0.961 . S
C391 H407 0.961 . S
C392 C393 1.370 . S
C392 C394 1.363 . S
C392 H408 0.931 . S
C393 C392 1.370 . S
C393 C397 1.408 . S
C394 C392 1.363 . S
C394 C395 1.370 . S
C394 C398 1.524 . S
C395 C387 1.503 . S
C395 C394 1.370 . S
C395 C396 1.403 . S
C396 C395 1.403 . S
C396 C397 1.404 . S
C396 C399 1.539 . S
C397 C393 1.408 . S
C397 C396 1.404 . S
C397 H409 0.930 . S
C398 C394 1.524 . S
C398 H410 0.956 . S
C398 H411 0.961 . S
C398 H412 0.961 . S
C399 C396 1.539 . S
C399 H413 0.958 . S
C399 H414 0.961 . S
C399 H415 0.960 . S
H400 C384 0.931 . S
H401 C389 0.929 . S
H402 C390 0.960 . S
H403 C390 0.962 . S
H404 C390 0.960 . S
H405 C391 0.961 . S
H406 C391 0.961 . S
H407 C391 0.961 . S
H408 C392 0.931 . S
H409 C397 0.930 . S
H410 C398 0.956 . S
H411 C398 0.961 . S
H412 C398 0.961 . S
H413 C399 0.958 . S
H414 C399 0.961 . S
H415 C399 0.960 . S
C416 C417 1.391 . S
C416 C418 1.394 . S
C416 H432 0.931 . S
C417 C416 1.391 . S
C417 C421 1.376 . S
C418 C416 1.394 . S
C418 C419 1.369 . S
C418 C422 1.531 . S
C419 C418 1.369 . S
C419 C420 1.410 . S
C419 C427 1.503 . S
C420 C419 1.410 . S
C420 C421 1.392 . S
C420 C423 1.511 . S
C421 C417 1.376 . S
C421 C420 1.392 . S
C421 H433 0.929 . S
C422 C418 1.531 . S
C422 H434 0.960 . S
C422 H435 0.962 . S
C422 H436 0.960 . S
C423 C420 1.511 . S
C423 H437 0.961 . S
C423 H438 0.961 . S
C423 H439 0.961 . S
C424 C425 1.370 . S
C424 C426 1.363 . S
C424 H440 0.931 . S
C425 C424 1.370 . S
C425 C429 1.408 . S
C426 C424 1.363 . S
C426 C427 1.370 . S
C426 C430 1.524 . S
C427 C419 1.503 . S
C427 C426 1.370 . S
C427 C428 1.403 . S
C428 C427 1.403 . S
C428 C429 1.404 . S
C428 C431 1.539 . S
C429 C425 1.408 . S
C429 C428 1.404 . S
C429 H441 0.930 . S
C430 C426 1.524 . S
C430 H442 0.956 . S
C430 H443 0.961 . S
C430 H444 0.961 . S
C431 C428 1.539 . S
C431 H445 0.958 . S
C431 H446 0.961 . S
C431 H447 0.960 . S
H432 C416 0.931 . S
H433 C421 0.929 . S
H434 C422 0.960 . S
H435 C422 0.962 . S
H436 C422 0.960 . S
H437 C423 0.961 . S
H438 C423 0.961 . S
H439 C423 0.961 . S
H440 C424 0.931 . S
H441 C429 0.930 . S
H442 C430 0.956 . S
H443 C430 0.961 . S
H444 C430 0.961 . S
H445 C431 0.958 . S
H446 C431 0.961 . S
H447 C431 0.960 . S
C448 C449 1.391 . S
C448 C450 1.394 . S
C448 H464 0.931 . S
C449 C448 1.391 . S
C449 C453 1.376 . S
C450 C448 1.394 . S
C450 C451 1.369 . S
C450 C454 1.531 . S
C451 C450 1.369 . S
C451 C452 1.410 . S
C451 C459 1.503 . S
C452 C451 1.410 . S
C452 C453 1.392 . S
C452 C455 1.511 . S
C453 C449 1.376 . S
C453 C452 1.392 . S
C453 H465 0.929 . S
C454 C450 1.531 . S
C454 H466 0.960 . S
C454 H467 0.962 . S
C454 H468 0.960 . S
C455 C452 1.511 . S
C455 H469 0.961 . S
C455 H470 0.961 . S
C455 H471 0.961 . S
C456 C457 1.370 . S
C456 C458 1.363 . S
C456 H472 0.931 . S
C457 C456 1.370 . S
C457 C461 1.408 . S
C458 C456 1.363 . S
C458 C459 1.370 . S
C458 C462 1.524 . S
C459 C451 1.503 . S
C459 C458 1.370 . S
C459 C460 1.403 . S
C460 C459 1.403 . S
C460 C461 1.404 . S
C460 C463 1.539 . S
C461 C457 1.408 . S
C461 C460 1.404 . S
C461 H473 0.930 . S
C462 C458 1.524 . S
C462 H474 0.956 . S
C462 H475 0.961 . S
C462 H476 0.961 . S
C463 C460 1.539 . S
C463 H477 0.958 . S
C463 H478 0.961 . S
C463 H479 0.960 . S
H464 C448 0.931 . S
H465 C453 0.929 . S
H466 C454 0.960 . S
H467 C454 0.962 . S
H468 C454 0.960 . S
H469 C455 0.961 . S
H470 C455 0.961 . S
H471 C455 0.961 . S
H472 C456 0.931 . S
H473 C461 0.930 . S
H474 C462 0.956 . S
H475 C462 0.961 . S
H476 C462 0.961 . S
H477 C463 0.958 . S
H478 C463 0.961 . S
H479 C463 0.960 . S
C480 C481 1.391 1_554 S
C480 C482 1.394 1_554 S
C480 H496 0.931 . S
C481 C480 1.391 1_556 S
C481 C485 1.376 . S
C482 C480 1.394 1_556 S
C482 C483 1.369 . S
C482 C486 1.531 . S
C483 C482 1.369 . S
C483 C484 1.410 . S
C483 C491 1.503 . S
C484 C483 1.410 . S
C484 C485 1.392 . S
C484 C487 1.511 . S
C485 C481 1.376 . S
C485 C484 1.392 . S
C485 H497 0.929 . S
C486 C482 1.531 . S
C486 H498 0.961 . S
C486 H499 0.963 . S
C486 H500 0.957 1_556 S
C487 C484 1.511 . S
C487 H501 0.961 . S
C487 H502 0.961 . S
C487 H503 0.961 . S
C488 C489 1.370 . S
C488 C490 1.363 . S
C488 H504 0.931 . S
C489 C488 1.370 . S
C489 C493 1.408 . S
C490 C488 1.363 . S
C490 C491 1.370 . S
C490 C494 1.524 . S
C491 C483 1.503 . S
C491 C490 1.370 . S
C491 C492 1.403 . S
C492 C491 1.403 . S
C492 C493 1.404 . S
C492 C495 1.539 . S
C493 C489 1.408 . S
C493 C492 1.404 . S
C493 H505 0.930 . S
C494 C490 1.524 . S
C494 H506 0.956 . S
C494 H507 0.961 . S
C494 H508 0.961 . S
C495 C492 1.539 . S
C495 H509 0.958 1_556 S
C495 H510 0.961 . S
C495 H511 0.960 . S
H496 C480 0.931 . S
H497 C485 0.929 . S
H498 C486 0.961 . S
H499 C486 0.963 . S
H500 C486 0.957 1_554 S
H501 C487 0.961 . S
H502 C487 0.961 . S
H503 C487 0.961 . S
H504 C488 0.931 . S
H505 C493 0.930 . S
H506 C494 0.956 . S
H507 C494 0.961 . S
H508 C494 0.961 . S
H509 C495 0.958 1_554 S
H510 C495 0.961 . S
H511 C495 0.960 . S
C512 C513 1.391 . S
C512 C514 1.394 . S
C512 H528 0.931 . S
C513 C512 1.391 . S
C513 C517 1.376 . S
C514 C512 1.394 . S
C514 C515 1.369 . S
C514 C518 1.531 . S
C515 C514 1.369 . S
C515 C516 1.410 . S
C515 C523 1.503 . S
C516 C515 1.410 . S
C516 C517 1.392 . S
C516 C519 1.511 . S
C517 C513 1.376 . S
C517 C516 1.392 . S
C517 H529 0.929 . S
C518 C514 1.531 . S
C518 H530 0.960 . S
C518 H531 0.962 . S
C518 H532 0.960 . S
C519 C516 1.511 . S
C519 H533 0.961 . S
C519 H534 0.961 . S
C519 H535 0.961 . S
C520 C521 1.370 . S
C520 C522 1.363 . S
C520 H536 0.931 . S
C521 C520 1.370 . S
C521 C525 1.408 . S
C522 C520 1.363 . S
C522 C523 1.370 . S
C522 C526 1.524 . S
C523 C515 1.503 . S
C523 C522 1.370 . S
C523 C524 1.403 . S
C524 C523 1.403 . S
C524 C525 1.404 . S
C524 C527 1.539 . S
C525 C521 1.408 . S
C525 C524 1.404 . S
C525 H537 0.930 . S
C526 C522 1.524 . S
C526 H538 0.956 . S
C526 H539 0.961 . S
C526 H540 0.961 . S
C527 C524 1.539 . S
C527 H541 0.958 . S
C527 H542 0.961 . S
C527 H543 0.960 . S
H528 C512 0.931 . S
H529 C517 0.929 . S
H530 C518 0.960 . S
H531 C518 0.962 . S
H532 C518 0.960 . S
H533 C519 0.961 . S
H534 C519 0.961 . S
H535 C519 0.961 . S
H536 C520 0.931 . S
H537 C525 0.930 . S
H538 C526 0.956 . S
H539 C526 0.961 . S
H540 C526 0.961 . S
H541 C527 0.958 . S
H542 C527 0.961 . S
H543 C527 0.960 . S
C544 C545 1.391 . S
C544 C546 1.394 . S
C544 H560 0.931 . S
C545 C544 1.391 . S
C545 C549 1.376 . S
C546 C544 1.394 . S
C546 C547 1.369 . S
C546 C550 1.531 . S
C547 C546 1.369 . S
C547 C548 1.410 . S
C547 C555 1.503 1_565 S
C548 C547 1.410 . S
C548 C549 1.392 . S
C548 C551 1.511 . S
C549 C545 1.376 . S
C549 C548 1.392 . S
C549 H561 0.929 . S
C550 C546 1.531 . S
C550 H562 0.934 1_565 S
C550 H563 0.962 . S
C550 H564 0.960 . S
C551 C548 1.511 . S
C551 H565 0.961 . S
C551 H566 0.961 1_565 S
C551 H567 0.961 . S
C552 C553 1.370 . S
C552 C554 1.363 . S
C552 H568 0.931 . S
C553 C552 1.370 . S
C553 C557 1.408 . S
C554 C552 1.363 . S
C554 C555 1.370 . S
C554 C558 1.524 . S
C555 C547 1.503 1_545 S
C555 C554 1.370 . S
C555 C556 1.403 . S
C556 C555 1.403 . S
C556 C557 1.404 . S
C556 C559 1.539 . S
C557 C553 1.408 . S
C557 C556 1.404 . S
C557 H569 0.930 . S
C558 C554 1.524 . S
C558 H570 0.956 . S
C558 H571 0.963 . S
C558 H572 0.961 . S
C559 C556 1.539 . S
C559 H573 0.958 . S
C559 H574 0.961 . S
C559 H575 0.960 1_545 S
H560 C544 0.931 . S
H561 C549 0.929 . S
H562 C550 0.934 1_545 S
H563 C550 0.962 . S
H564 C550 0.960 . S
H565 C551 0.961 . S
H566 C551 0.961 1_545 S
H567 C551 0.961 . S
H568 C552 0.931 . S
H569 C557 0.930 . S
H570 C558 0.956 . S
H571 C558 0.963 . S
H572 C558 0.961 . S
H573 C559 0.958 . S
H574 C559 0.961 . S
H575 C559 0.960 1_565 S
C576 C577 1.391 . S
C576 C578 1.394 . S
C576 H592 0.931 . S
C577 C576 1.391 . S
C577 C581 1.376 . S
C578 C576 1.394 . S
C578 C579 1.369 . S
C578 C582 1.531 . S
C579 C578 1.369 . S
C579 C580 1.410 . S
C579 C587 1.503 1_655 S
C580 C579 1.410 . S
C580 C581 1.392 . S
C580 C583 1.511 . S
C581 C577 1.376 . S
C581 C580 1.392 . S
C581 H593 0.929 . S
C582 C578 1.531 . S
C582 H594 0.960 1_655 S
C582 H595 0.962 . S
C582 H596 0.960 . S
C583 C580 1.511 . S
C583 H597 0.961 . S
C583 H598 0.961 1_655 S
C583 H599 0.961 . S
C584 C585 1.370 . S
C584 C586 1.363 . S
C584 H600 0.931 . S
C585 C584 1.370 . S
C585 C589 1.408 . S
C586 C584 1.363 . S
C586 C587 1.370 . S
C586 C590 1.524 . S
C587 C579 1.503 1_455 S
C587 C586 1.370 . S
C587 C588 1.403 . S
C588 C587 1.403 . S
C588 C589 1.404 . S
C588 C591 1.539 . S
C589 C585 1.408 . S
C589 C588 1.404 . S
C589 H601 0.930 . S
C590 C586 1.524 . S
C590 H602 0.956 . S
C590 H603 0.961 1_455 S
C590 H604 0.961 . S
C591 C588 1.539 . S
C591 H605 0.958 . S
C591 H606 0.961 . S
C591 H607 0.960 1_455 S
H592 C576 0.931 . S
H593 C581 0.929 . S
H594 C582 0.960 1_455 S
H595 C582 0.962 . S
H596 C582 0.960 . S
H597 C583 0.961 . S
H598 C583 0.961 1_455 S
H599 C583 0.961 . S
H600 C584 0.931 . S
H601 C589 0.930 . S
H602 C590 0.956 . S
H603 C590 0.961 1_655 S
H604 C590 0.961 . S
H605 C591 0.958 . S
H606 C591 0.961 . S
H607 C591 0.960 1_655 S
C608 C609 1.391 . S
C608 C610 1.394 . S
C608 H624 0.931 . S
C609 C608 1.391 . S
C609 C613 1.376 . S
C610 C608 1.394 . S
C610 C611 1.369 . S
C610 C614 1.531 . S
C611 C610 1.369 . S
C611 C612 1.410 . S
C611 C619 1.503 1_565 S
C612 C611 1.410 . S
C612 C613 1.392 . S
C612 C615 1.511 . S
C613 C609 1.376 . S
C613 C612 1.392 . S
C613 H625 0.929 . S
C614 C610 1.531 . S
C614 H626 0.960 1_565 S
C614 H627 0.962 . S
C614 H628 0.960 . S
C615 C612 1.511 . S
C615 H629 0.961 . S
C615 H630 0.961 1_565 S
C615 H631 0.961 . S
C616 C617 1.370 . S
C616 C618 1.363 . S
C616 H632 0.931 . S
C617 C616 1.370 . S
C617 C621 1.408 . S
C618 C616 1.363 . S
C618 C619 1.370 . S
C618 C622 1.524 . S
C619 C611 1.503 1_545 S
C619 C618 1.370 . S
C619 C620 1.403 . S
C620 C619 1.403 . S
C620 C621 1.404 . S
C620 C623 1.539 . S
C621 C617 1.408 . S
C621 C620 1.404 . S
C621 H633 0.930 . S
C622 C618 1.524 . S
C622 H634 0.956 . S
C622 H635 0.961 1_545 S
C622 H636 0.961 . S
C623 C620 1.539 . S
C623 H637 0.958 . S
C623 H638 0.961 . S
C623 H639 0.960 . S
H624 C608 0.931 . S
H625 C613 0.929 . S
H626 C614 0.960 1_545 S
H627 C614 0.962 . S
H628 C614 0.960 . S
H629 C615 0.961 . S
H630 C615 0.961 1_545 S
H631 C615 0.961 . S
H632 C616 0.931 . S
H633 C621 0.930 . S
H634 C622 0.956 . S
H635 C622 0.961 1_565 S
H636 C622 0.961 . S
H637 C623 0.958 . S
H638 C623 0.961 . S
H639 C623 0.960 . S
C640 C641 1.391 1_556 S
C640 C642 1.394 . S
C640 H656 0.931 . S
C641 C640 1.391 1_554 S
C641 C645 1.376 . S
C642 C640 1.394 . S
C642 C643 1.369 1_556 S
C642 C646 1.531 . S
C643 C642 1.369 1_554 S
C643 C644 1.410 . S
C643 C651 1.503 1_655 S
C644 C643 1.410 . S
C644 C645 1.392 . S
C644 C647 1.511 . S
C645 C641 1.376 . S
C645 C644 1.392 . S
C645 H657 0.929 . S
C646 C642 1.531 . S
C646 H658 0.960 1_655 S
C646 H659 0.962 . S
C646 H660 0.960 . S
C647 C644 1.511 . S
C647 H661 0.961 . S
C647 H662 0.961 1_655 S
C647 H663 0.961 . S
C648 C649 1.370 . S
C648 C650 1.363 . S
C648 H664 0.931 . S
C649 C648 1.370 . S
C649 C653 1.408 . S
C650 C648 1.363 . S
C650 C651 1.370 . S
C650 C654 1.524 . S
C651 C643 1.503 1_455 S
C651 C650 1.370 . S
C651 C652 1.403 . S
C652 C651 1.403 . S
C652 C653 1.404 . S
C652 C655 1.539 1_554 S
C653 C649 1.408 . S
C653 C652 1.404 . S
C653 H665 0.930 . S
C654 C650 1.524 . S
C654 H666 0.970 . S
C654 H667 0.961 1_455 S
C654 H668 0.961 . S
C655 C652 1.539 1_556 S
C655 H669 0.958 . S
C655 H670 0.961 . S
C655 H671 0.960 . S
H656 C640 0.931 . S
H657 C645 0.929 . S
H658 C646 0.960 1_455 S
H659 C646 0.962 . S
H660 C646 0.960 . S
H661 C647 0.961 . S
H662 C647 0.961 1_455 S
H663 C647 0.961 . S
H664 C648 0.931 . S
H665 C653 0.930 . S
H666 C654 0.970 . S
H667 C654 0.961 1_655 S
H668 C654 0.961 . S
H669 C655 0.958 . S
H670 C655 0.961 . S
H671 C655 0.960 . S
C672 C673 1.391 . S
C672 C674 1.394 1_556 S
C672 H688 0.931 . S
C673 C672 1.391 . S
C673 C677 1.376 . S
C674 C672 1.394 1_554 S
C674 C675 1.369 . S
C674 C678 1.531 . S
C675 C674 1.369 . S
C675 C676 1.410 1_554 S
C675 C683 1.503 . S
C676 C675 1.410 1_556 S
C676 C677 1.392 . S
C676 C679 1.511 . S
C677 C673 1.376 . S
C677 C676 1.392 . S
C677 H689 0.929 . S
C678 C674 1.531 . S
C678 H690 0.960 . S
C678 H691 0.962 . S
C678 H692 0.960 . S
C679 C676 1.511 . S
C679 H693 0.961 . S
C679 H694 0.961 1_556 S
C679 H695 0.961 . S
C680 C681 1.370 . S
C680 C682 1.363 . S
C680 H696 0.931 . S
C681 C680 1.370 . S
C681 C685 1.408 . S
C682 C680 1.363 . S
C682 C683 1.370 . S
C682 C686 1.524 . S
C683 C675 1.503 . S
C683 C682 1.370 . S
C683 C684 1.403 . S
C684 C683 1.403 . S
C684 C685 1.404 . S
C684 C687 1.539 . S
C685 C681 1.408 . S
C685 C684 1.404 . S
C685 H697 0.930 . S
C686 C682 1.524 . S
C686 H698 0.956 . S
C686 H699 0.961 . S
C686 H700 0.961 . S
C687 C684 1.539 . S
C687 H701 0.958 . S
C687 H702 0.961 . S
C687 H703 0.960 . S
H688 C672 0.931 . S
H689 C677 0.929 . S
H690 C678 0.960 . S
H691 C678 0.962 . S
H692 C678 0.960 . S
H693 C679 0.961 . S
H694 C679 0.961 1_554 S
H695 C679 0.961 . S
H696 C680 0.931 . S
H697 C685 0.930 . S
H698 C686 0.956 . S
H699 C686 0.961 . S
H700 C686 0.961 . S
H701 C687 0.958 . S
H702 C687 0.961 . S
H703 C687 0.960 . S
C704 C705 1.391 . S
C704 C706 1.394 . S
C704 H720 0.931 . S
C705 C704 1.391 . S
C705 C709 1.376 . S
C706 C704 1.394 . S
C706 C707 1.369 . S
C706 C710 1.531 . S
C707 C706 1.369 . S
C707 C708 1.410 . S
C707 C715 1.503 . S
C708 C707 1.410 . S
C708 C709 1.392 . S
C708 C711 1.511 . S
C709 C705 1.376 . S
C709 C708 1.392 . S
C709 H721 0.929 . S
C710 C706 1.531 . S
C710 H722 0.960 . S
C710 H723 0.962 . S
C710 H724 0.960 . S
C711 C708 1.511 . S
C711 H725 0.961 . S
C711 H726 0.961 . S
C711 H727 0.961 . S
C712 C713 1.370 . S
C712 C714 1.363 . S
C712 H728 0.931 . S
C713 C712 1.370 . S
C713 C717 1.408 . S
C714 C712 1.363 . S
C714 C715 1.370 . S
C714 C718 1.524 . S
C715 C707 1.503 . S
C715 C714 1.370 . S
C715 C716 1.403 . S
C716 C715 1.403 . S
C716 C717 1.404 . S
C716 C719 1.539 . S
C717 C713 1.408 . S
C717 C716 1.404 . S
C717 H729 0.930 . S
C718 C714 1.524 . S
C718 H730 0.956 . S
C718 H731 0.961 . S
C718 H732 0.961 . S
C719 C716 1.539 . S
C719 H733 0.958 . S
C719 H734 0.961 . S
C719 H735 0.960 . S
H720 C704 0.931 . S
H721 C709 0.929 . S
H722 C710 0.960 . S
H723 C710 0.962 . S
H724 C710 0.960 . S
H725 C711 0.961 . S
H726 C711 0.961 . S
H727 C711 0.961 . S
H728 C712 0.931 . S
H729 C717 0.930 . S
H730 C718 0.956 . S
H731 C718 0.961 . S
H732 C718 0.961 . S
H733 C719 0.958 . S
H734 C719 0.961 . S
H735 C719 0.960 . S
C736 C737 1.391 . S
C736 C738 1.394 . S
C736 H752 0.931 . S
C737 C736 1.391 . S
C737 C741 1.376 . S
C738 C736 1.394 . S
C738 C739 1.369 . S
C738 C742 1.531 . S
C739 C738 1.369 . S
C739 C740 1.410 . S
C739 C747 1.503 . S
C740 C739 1.410 . S
C740 C741 1.392 . S
C740 C743 1.511 . S
C741 C737 1.376 . S
C741 C740 1.392 . S
C741 H753 0.929 . S
C742 C738 1.531 . S
C742 H754 0.960 . S
C742 H755 0.962 . S
C742 H756 0.960 . S
C743 C740 1.511 . S
C743 H757 0.961 . S
C743 H758 0.961 . S
C743 H759 0.961 . S
C744 C745 1.370 . S
C744 C746 1.363 . S
C744 H760 0.931 . S
C745 C744 1.370 . S
C745 C749 1.408 . S
C746 C744 1.363 . S
C746 C747 1.370 . S
C746 C750 1.524 . S
C747 C739 1.503 . S
C747 C746 1.370 . S
C747 C748 1.403 . S
C748 C747 1.403 . S
C748 C749 1.404 . S
C748 C751 1.539 . S
C749 C745 1.408 . S
C749 C748 1.404 . S
C749 H761 0.930 . S
C750 C746 1.524 . S
C750 H762 0.956 . S
C750 H763 0.961 . S
C750 H764 0.961 . S
C751 C748 1.539 . S
C751 H765 0.958 . S
C751 H766 0.961 . S
C751 H767 0.960 . S
H752 C736 0.931 . S
H753 C741 0.929 . S
H754 C742 0.960 . S
H755 C742 0.962 . S
H756 C742 0.960 . S
H757 C743 0.961 . S
H758 C743 0.961 . S
H759 C743 0.961 . S
H760 C744 0.931 . S
H761 C749 0.930 . S
H762 C750 0.956 . S
H763 C750 0.961 . S
H764 C750 0.961 . S
H765 C751 0.958 . S
H766 C751 0.961 . S
H767 C751 0.960 . S
C768 C769 1.391 . S
C768 C770 1.394 . S
C768 H784 0.931 . S
C769 C768 1.391 . S
C769 C773 1.376 . S
C770 C768 1.394 . S
C770 C771 1.369 . S
C770 C774 1.531 . S
C771 C770 1.369 . S
C771 C772 1.410 . S
C771 C779 1.503 . S
C772 C771 1.410 . S
C772 C773 1.392 . S
C772 C775 1.511 . S
C773 C769 1.376 . S
C773 C772 1.392 . S
C773 H785 0.929 . S
C774 C770 1.531 . S
C774 H786 0.960 . S
C774 H787 0.962 . S
C774 H788 0.960 . S
C775 C772 1.511 . S
C775 H789 0.961 . S
C775 H790 0.961 . S
C775 H791 0.961 . S
C776 C777 1.370 . S
C776 C778 1.363 . S
C776 H792 0.931 . S
C777 C776 1.370 . S
C777 C781 1.408 . S
C778 C776 1.363 . S
C778 C779 1.370 . S
C778 C782 1.524 . S
C779 C771 1.503 . S
C779 C778 1.370 . S
C779 C780 1.403 . S
C780 C779 1.403 . S
C780 C781 1.404 . S
C780 C783 1.539 . S
C781 C777 1.408 . S
C781 C780 1.404 . S
C781 H793 0.930 . S
C782 C778 1.524 . S
C782 H794 0.956 . S
C782 H795 0.961 . S
C782 H796 0.961 . S
C783 C780 1.539 . S
C783 H797 0.958 . S
C783 H798 0.961 . S
C783 H799 0.960 . S
H784 C768 0.931 . S
H785 C773 0.929 . S
H786 C774 0.960 . S
H787 C774 0.962 . S
H788 C774 0.960 . S
H789 C775 0.961 . S
H790 C775 0.961 . S
H791 C775 0.961 . S
H792 C776 0.931 . S
H793 C781 0.930 . S
H794 C782 0.956 . S
H795 C782 0.961 . S
H796 C782 0.961 . S
H797 C783 0.958 . S
H798 C783 0.961 . S
H799 C783 0.960 . S
C289 C2 0.803 . S
C297 C218 0.836 . S
C321 C38 0.786 . S
C329 C254 0.817 . S
C353 C146 0.856 . S
C361 C74 0.819 . S
C385 C182 0.808 . S
C393 C110 0.807 . S
C417 C3 1.445 . S
C425 C183 1.463 . S
C449 C39 1.455 . S
C457 C219 1.456 . S
C481 C255 1.466 1_556 S
C489 C75 1.451 . S
C513 C111 1.446 . S
C521 C147 1.460 . S
C545 C148 1.461 . S
C553 C4 1.467 . S
C577 C40 1.487 . S
C585 C184 1.480 . S
C609 C76 1.487 . S
C617 C220 1.480 . S
C641 C256 1.482 . S
C649 C112 1.481 . S
C673 C230 1.384 . S
C681 C14 1.383 . S
C705 C266 1.346 . S
C713 C50 1.378 . S
C737 C86 1.355 . S
C745 C158 1.380 . S
C769 C122 1.316 . S
C777 C194 1.359 . S
