# Generated by pormake.
# Topology vdb, (5)-cn, num edge types: 1
# Building blocks:
#     Node 0, Type 0, BuildingBlock: BEQFEK_clean_sbu_0, # of connection points: 5
#     Node 1, Type 0, BuildingBlock: BEQFEK_clean_sbu_0, # of connection points: 5
#     Node 2, Type 0, BuildingBlock: BEQFEK_clean_sbu_0, # of connection points: 5
#     Node 3, Type 0, BuildingBlock: BEQFEK_clean_sbu_0, # of connection points: 5
#     Node 4, Type 0, BuildingBlock: BEQFEK_clean_sbu_0, # of connection points: 5
#     Node 5, Type 0, BuildingBlock: BEQFEK_clean_sbu_0, # of connection points: 5
#     Node 6, Type 0, BuildingBlock: BEQFEK_clean_sbu_0, # of connection points: 5
#     Node 7, Type 0, BuildingBlock: BEQFEK_clean_sbu_0, # of connection points: 5
#     Node 8, Type 0, BuildingBlock: BEQFEK_clean_sbu_0, # of connection points: 5
#     Node 9, Type 0, BuildingBlock: BEQFEK_clean_sbu_0, # of connection points: 5
#     Node 10, Type 0, BuildingBlock: BEQFEK_clean_sbu_0, # of connection points: 5
#     Node 11, Type 0, BuildingBlock: BEQFEK_clean_sbu_0, # of connection points: 5
#     Node 12, Type 0, BuildingBlock: BEQFEK_clean_sbu_0, # of connection points: 5
#     Node 13, Type 0, BuildingBlock: BEQFEK_clean_sbu_0, # of connection points: 5
#     Node 14, Type 0, BuildingBlock: BEQFEK_clean_sbu_0, # of connection points: 5
#     Node 15, Type 0, BuildingBlock: BEQFEK_clean_sbu_0, # of connection points: 5
#     Node 16, Type 0, BuildingBlock: BEQFEK_clean_sbu_0, # of connection points: 5
#     Node 17, Type 0, BuildingBlock: BEQFEK_clean_sbu_0, # of connection points: 5
#     Node 18, Type 0, BuildingBlock: BEQFEK_clean_sbu_0, # of connection points: 5
#     Node 19, Type 0, BuildingBlock: BEQFEK_clean_sbu_0, # of connection points: 5
#     Node 20, Type 0, BuildingBlock: BEQFEK_clean_sbu_0, # of connection points: 5
#     Node 21, Type 0, BuildingBlock: BEQFEK_clean_sbu_0, # of connection points: 5
#     Node 22, Type 0, BuildingBlock: BEQFEK_clean_sbu_0, # of connection points: 5
#     Node 23, Type 0, BuildingBlock: BEQFEK_clean_sbu_0, # of connection points: 5
#     Node 24, Type 0, BuildingBlock: BEQFEK_clean_sbu_0, # of connection points: 5
#     Node 25, Type 0, BuildingBlock: BEQFEK_clean_sbu_0, # of connection points: 5
#     Node 26, Type 0, BuildingBlock: BEQFEK_clean_sbu_0, # of connection points: 5
#     Node 27, Type 0, BuildingBlock: BEQFEK_clean_sbu_0, # of connection points: 5
#     Node 28, Type 0, BuildingBlock: BEQFEK_clean_sbu_0, # of connection points: 5
#     Node 29, Type 0, BuildingBlock: BEQFEK_clean_sbu_0, # of connection points: 5
#     Node 30, Type 0, BuildingBlock: BEQFEK_clean_sbu_0, # of connection points: 5
#     Node 31, Type 0, BuildingBlock: BEQFEK_clean_sbu_0, # of connection points: 5
#     Edge 32, Type (0, 0), BuildingBlock: UVAHIK_clean_linker_0, # of connection points: 2
#     Edge 33, Type (0, 0), BuildingBlock: UVAHIK_clean_linker_0, # of connection points: 2
#     Edge 34, Type (0, 0), BuildingBlock: UVAHIK_clean_linker_0, # of connection points: 2
#     Edge 35, Type (0, 0), BuildingBlock: UVAHIK_clean_linker_0, # of connection points: 2
#     Edge 36, Type (0, 0), BuildingBlock: UVAHIK_clean_linker_0, # of connection points: 2
#     Edge 37, Type (0, 0), BuildingBlock: UVAHIK_clean_linker_0, # of connection points: 2
#     Edge 38, Type (0, 0), BuildingBlock: UVAHIK_clean_linker_0, # of connection points: 2
#     Edge 39, Type (0, 0), BuildingBlock: UVAHIK_clean_linker_0, # of connection points: 2
#     Edge 40, Type (0, 0), BuildingBlock: UVAHIK_clean_linker_0, # of connection points: 2
#     Edge 41, Type (0, 0), BuildingBlock: UVAHIK_clean_linker_0, # of connection points: 2
#     Edge 42, Type (0, 0), BuildingBlock: UVAHIK_clean_linker_0, # of connection points: 2
#     Edge 43, Type (0, 0), BuildingBlock: UVAHIK_clean_linker_0, # of connection points: 2
#     Edge 44, Type (0, 0), BuildingBlock: UVAHIK_clean_linker_0, # of connection points: 2
#     Edge 45, Type (0, 0), BuildingBlock: UVAHIK_clean_linker_0, # of connection points: 2
#     Edge 46, Type (0, 0), BuildingBlock: UVAHIK_clean_linker_0, # of connection points: 2
#     Edge 47, Type (0, 0), BuildingBlock: UVAHIK_clean_linker_0, # of connection points: 2
#     Edge 48, Type (0, 0), BuildingBlock: UVAHIK_clean_linker_0, # of connection points: 2
#     Edge 49, Type (0, 0), BuildingBlock: UVAHIK_clean_linker_0, # of connection points: 2
#     Edge 50, Type (0, 0), BuildingBlock: UVAHIK_clean_linker_0, # of connection points: 2
#     Edge 51, Type (0, 0), BuildingBlock: UVAHIK_clean_linker_0, # of connection points: 2
#     Edge 52, Type (0, 0), BuildingBlock: UVAHIK_clean_linker_0, # of connection points: 2
#     Edge 53, Type (0, 0), BuildingBlock: UVAHIK_clean_linker_0, # of connection points: 2
#     Edge 54, Type (0, 0), BuildingBlock: UVAHIK_clean_linker_0, # of connection points: 2
#     Edge 55, Type (0, 0), BuildingBlock: UVAHIK_clean_linker_0, # of connection points: 2
#     Edge 56, Type (0, 0), BuildingBlock: UVAHIK_clean_linker_0, # of connection points: 2
#     Edge 57, Type (0, 0), BuildingBlock: UVAHIK_clean_linker_0, # of connection points: 2
#     Edge 58, Type (0, 0), BuildingBlock: UVAHIK_clean_linker_0, # of connection points: 2
#     Edge 59, Type (0, 0), BuildingBlock: UVAHIK_clean_linker_0, # of connection points: 2
#     Edge 60, Type (0, 0), BuildingBlock: UVAHIK_clean_linker_0, # of connection points: 2
#     Edge 61, Type (0, 0), BuildingBlock: UVAHIK_clean_linker_0, # of connection points: 2
#     Edge 62, Type (0, 0), BuildingBlock: UVAHIK_clean_linker_0, # of connection points: 2
#     Edge 63, Type (0, 0), BuildingBlock: UVAHIK_clean_linker_0, # of connection points: 2
#     Edge 64, Type (0, 0), BuildingBlock: UVAHIK_clean_linker_0, # of connection points: 2
#     Edge 65, Type (0, 0), BuildingBlock: UVAHIK_clean_linker_0, # of connection points: 2
#     Edge 66, Type (0, 0), BuildingBlock: UVAHIK_clean_linker_0, # of connection points: 2
#     Edge 67, Type (0, 0), BuildingBlock: UVAHIK_clean_linker_0, # of connection points: 2
#     Edge 68, Type (0, 0), BuildingBlock: UVAHIK_clean_linker_0, # of connection points: 2
#     Edge 69, Type (0, 0), BuildingBlock: UVAHIK_clean_linker_0, # of connection points: 2
#     Edge 70, Type (0, 0), BuildingBlock: UVAHIK_clean_linker_0, # of connection points: 2
#     Edge 71, Type (0, 0), BuildingBlock: UVAHIK_clean_linker_0, # of connection points: 2
#     Edge 72, Type (0, 0), BuildingBlock: UVAHIK_clean_linker_0, # of connection points: 2
#     Edge 73, Type (0, 0), BuildingBlock: UVAHIK_clean_linker_0, # of connection points: 2
#     Edge 74, Type (0, 0), BuildingBlock: UVAHIK_clean_linker_0, # of connection points: 2
#     Edge 75, Type (0, 0), BuildingBlock: UVAHIK_clean_linker_0, # of connection points: 2
#     Edge 76, Type (0, 0), BuildingBlock: UVAHIK_clean_linker_0, # of connection points: 2
#     Edge 77, Type (0, 0), BuildingBlock: UVAHIK_clean_linker_0, # of connection points: 2
#     Edge 78, Type (0, 0), BuildingBlock: UVAHIK_clean_linker_0, # of connection points: 2
#     Edge 79, Type (0, 0), BuildingBlock: UVAHIK_clean_linker_0, # of connection points: 2
#     Edge 80, Type (0, 0), BuildingBlock: UVAHIK_clean_linker_0, # of connection points: 2
#     Edge 81, Type (0, 0), BuildingBlock: UVAHIK_clean_linker_0, # of connection points: 2
#     Edge 82, Type (0, 0), BuildingBlock: UVAHIK_clean_linker_0, # of connection points: 2
#     Edge 83, Type (0, 0), BuildingBlock: UVAHIK_clean_linker_0, # of connection points: 2
#     Edge 84, Type (0, 0), BuildingBlock: UVAHIK_clean_linker_0, # of connection points: 2
#     Edge 85, Type (0, 0), BuildingBlock: UVAHIK_clean_linker_0, # of connection points: 2
#     Edge 86, Type (0, 0), BuildingBlock: UVAHIK_clean_linker_0, # of connection points: 2
#     Edge 87, Type (0, 0), BuildingBlock: UVAHIK_clean_linker_0, # of connection points: 2
#     Edge 88, Type (0, 0), BuildingBlock: UVAHIK_clean_linker_0, # of connection points: 2
#     Edge 89, Type (0, 0), BuildingBlock: UVAHIK_clean_linker_0, # of connection points: 2
#     Edge 90, Type (0, 0), BuildingBlock: UVAHIK_clean_linker_0, # of connection points: 2
#     Edge 91, Type (0, 0), BuildingBlock: UVAHIK_clean_linker_0, # of connection points: 2
#     Edge 92, Type (0, 0), BuildingBlock: UVAHIK_clean_linker_0, # of connection points: 2
#     Edge 93, Type (0, 0), BuildingBlock: UVAHIK_clean_linker_0, # of connection points: 2
#     Edge 94, Type (0, 0), BuildingBlock: UVAHIK_clean_linker_0, # of connection points: 2
#     Edge 95, Type (0, 0), BuildingBlock: UVAHIK_clean_linker_0, # of connection points: 2
#     Edge 96, Type (0, 0), BuildingBlock: UVAHIK_clean_linker_0, # of connection points: 2
#     Edge 97, Type (0, 0), BuildingBlock: UVAHIK_clean_linker_0, # of connection points: 2
#     Edge 98, Type (0, 0), BuildingBlock: UVAHIK_clean_linker_0, # of connection points: 2
#     Edge 99, Type (0, 0), BuildingBlock: UVAHIK_clean_linker_0, # of connection points: 2
#     Edge 100, Type (0, 0), BuildingBlock: UVAHIK_clean_linker_0, # of connection points: 2
#     Edge 101, Type (0, 0), BuildingBlock: UVAHIK_clean_linker_0, # of connection points: 2
#     Edge 102, Type (0, 0), BuildingBlock: UVAHIK_clean_linker_0, # of connection points: 2
#     Edge 103, Type (0, 0), BuildingBlock: UVAHIK_clean_linker_0, # of connection points: 2
#     Edge 104, Type (0, 0), BuildingBlock: UVAHIK_clean_linker_0, # of connection points: 2
#     Edge 105, Type (0, 0), BuildingBlock: UVAHIK_clean_linker_0, # of connection points: 2
#     Edge 106, Type (0, 0), BuildingBlock: UVAHIK_clean_linker_0, # of connection points: 2
#     Edge 107, Type (0, 0), BuildingBlock: UVAHIK_clean_linker_0, # of connection points: 2
#     Edge 108, Type (0, 0), BuildingBlock: UVAHIK_clean_linker_0, # of connection points: 2
#     Edge 109, Type (0, 0), BuildingBlock: UVAHIK_clean_linker_0, # of connection points: 2
#     Edge 110, Type (0, 0), BuildingBlock: UVAHIK_clean_linker_0, # of connection points: 2
#     Edge 111, Type (0, 0), BuildingBlock: UVAHIK_clean_linker_0, # of connection points: 2
# Relax obj value: 0.426
# Max RMSD: 0.206
# Mean RMSD: 0.206
data_MOF--net-vdb--node1-BEQFEK_clean_sbu_0--edge1-UVAHIK_clean_linker_0
_symmetry_space_group_name_H-M    P1
_symmetry_Int_Tables_number       1
_symmetry_cell_setting            triclinic
loop_
_symmetry_equiv_pos_as_xyz
'x, y, z'
_cell_length_a     31.168597
_cell_length_b     64.304348
_cell_length_c     143.02134
_cell_angle_alpha  89.982389
_cell_angle_beta   90.007536
_cell_angle_gamma 90.001078
loop_
_atom_site_label
_atom_site_type_symbol
_atom_site_fract_x
_atom_site_fract_y
_atom_site_fract_z
_atom_type_partial_charge
Co0 Co 0.33619 0.02937 0.08219 0.0
Co1 Co 0.3892 0.04779 0.06567 0.0
C2 C 0.29653 0.05837 0.06823 0.0
O3 O 0.29386 0.04644 0.0753 0.0
O4 O 0.33176 0.06077 0.06387 0.0
C5 C 0.26958 0.00495 0.09009 0.0
O6 O 0.25562 0.00436 0.08142 0.0
C7 C 0.41142 0.05209 0.04604 0.0
C8 C 0.48179 0.05574 0.04662 0.0
C9 C 0.44798 0.05251 0.04048 0.0
N10 N 0.42339 0.05403 0.05501 0.0
N11 N 0.46534 0.05687 0.05531 0.0
C12 C 0.36567 0.04974 0.04299 0.0
H13 H 0.3528 0.03464 0.04548 0.0
H14 H 0.36231 0.05094 0.03529 0.0
H15 H 0.34609 0.06219 0.04623 0.0
C16 C 0.36624 0.98961 0.07421 0.0
N17 N 0.36412 0.01053 0.07421 0.0
N18 N 0.38543 0.0179 0.06698 0.0
C19 C 0.40085 0.00157 0.06202 0.0
C20 C 0.38899 0.98328 0.06643 0.0
C21 C 0.34601 0.97582 0.08141 0.0
H22 H 0.34873 0.98297 0.08843 0.0
H23 H 0.31169 0.97356 0.07966 0.0
H24 H 0.36131 0.96028 0.08162 0.0
O25 O 0.37911 0.04685 0.08848 0.0
O26 O 0.41694 0.06072 0.07686 0.0
H27 H 0.44193 0.98787 0.05152 0.0
H28 H 0.40687 0.00816 0.04749 0.0
C29 C 0.42746 0.00311 0.05336 0.0
H30 H 0.45341 0.01462 0.05438 0.0
H31 H 0.48305 0.05811 0.06147 0.0
O32 O 0.30389 0.01473 0.09197 0.0
C33 C 0.40925 0.05849 0.08556 0.0
Co34 Co 0.89805 0.21807 0.08076 0.0
Co35 Co 0.83808 0.20098 0.06511 0.0
C36 C 0.93116 0.18937 0.06597 0.0
O37 O 0.93683 0.20096 0.07306 0.0
O38 O 0.8944 0.18758 0.06216 0.0
C39 C 0.96913 0.24095 0.08762 0.0
O40 O 0.98012 0.2413 0.07875 0.0
C41 C 0.80849 0.19929 0.04596 0.0
C42 C 0.7398 0.1916 0.04753 0.0
C43 C 0.77042 0.19733 0.04098 0.0
N44 N 0.80042 0.19526 0.05499 0.0
N45 N 0.75959 0.19012 0.05587 0.0
C46 C 0.85056 0.20763 0.04254 0.0
H47 H 0.87021 0.21339 0.04846 0.0
H48 H 0.84565 0.22039 0.03743 0.0
H49 H 0.86843 0.19496 0.03899 0.0
C50 C 0.86672 0.25844 0.0737 0.0
N51 N 0.86792 0.23752 0.07345 0.0
N52 N 0.84269 0.23074 0.06672 0.0
C53 C 0.82491 0.24745 0.06242 0.0
C54 C 0.83996 0.26537 0.06667 0.0
C55 C 0.89097 0.2717 0.08049 0.0
H56 H 0.89009 0.26459 0.08755 0.0
H57 H 0.92476 0.27302 0.07816 0.0
H58 H 0.87747 0.28762 0.08091 0.0
O59 O 0.85746 0.20018 0.08761 0.0
O60 O 0.81462 0.18744 0.07658 0.0
H61 H 0.76959 0.2337 0.05597 0.0
H62 H 0.77395 0.26147 0.0544 0.0
C63 C 0.79225 0.24668 0.05477 0.0
H64 H 0.80864 0.24446 0.04798 0.0
H65 H 0.74467 0.18695 0.06225 0.0
O66 O 0.93458 0.23198 0.09005 0.0
C67 C 0.82604 0.18881 0.08512 0.0
Co68 Co 0.34179 0.22174 0.16404 0.0
Co69 Co 0.40125 0.20436 0.17968 0.0
C70 C 0.30785 0.1935 0.17894 0.0
O71 O 0.30256 0.20509 0.17183 0.0
O72 O 0.3446 0.19127 0.1827 0.0
C73 C 0.27093 0.24471 0.15702 0.0
O74 O 0.25949 0.24517 0.16586 0.0
C75 C 0.43172 0.20207 0.19879 0.0
C76 C 0.5002 0.1942 0.19696 0.0
C77 C 0.47007 0.19982 0.20364 0.0
N78 N 0.43918 0.19834 0.18971 0.0
N79 N 0.47987 0.19308 0.18867 0.0
C80 C 0.38994 0.21034 0.2024 0.0
H81 H 0.36996 0.21636 0.19658 0.0
H82 H 0.39527 0.22289 0.20759 0.0
H83 H 0.37222 0.19756 0.2059 0.0
C84 C 0.37356 0.26197 0.17112 0.0
N85 N 0.37228 0.24106 0.17133 0.0
N86 N 0.39712 0.23418 0.17812 0.0
C87 C 0.41466 0.25083 0.1825 0.0
C88 C 0.39993 0.26882 0.17823 0.0
C89 C 0.34931 0.27531 0.16436 0.0
H90 H 0.35017 0.26828 0.15729 0.0
H91 H 0.31551 0.27661 0.16669 0.0
H92 H 0.36283 0.29123 0.16397 0.0
O93 O 0.38205 0.20374 0.15717 0.0
O94 O 0.4248 0.19099 0.1682 0.0
H95 H 0.46484 0.26474 0.19078 0.0
H96 H 0.42946 0.24769 0.197 0.0
C97 C 0.44655 0.24996 0.1903 0.0
H98 H 0.46928 0.23697 0.18918 0.0
H99 H 0.49434 0.19006 0.18224 0.0
O100 O 0.30561 0.23572 0.1547 0.0
C101 C 0.41354 0.19241 0.15965 0.0
Co102 Co 0.91477 0.02988 0.16698 0.0
Co103 Co 0.85236 0.04936 0.18152 0.0
C104 C 0.9455 0.06143 0.18073 0.0
O105 O 0.95233 0.04878 0.17407 0.0
O106 O 0.90825 0.0635 0.18428 0.0
C107 C 0.98707 0.00633 0.16088 0.0
O108 O 0.9993 0.0079 0.16965 0.0
C109 C 0.82008 0.05359 0.20036 0.0
C110 C 0.75189 0.06144 0.19808 0.0
C111 C 0.78128 0.05622 0.20499 0.0
N112 N 0.81356 0.0567 0.19119 0.0
N113 N 0.77306 0.06198 0.18988 0.0
C114 C 0.86139 0.04542 0.20427 0.0
H115 H 0.88224 0.03934 0.19861 0.0
H116 H 0.8554 0.03294 0.20947 0.0
H117 H 0.87853 0.05826 0.20785 0.0
C118 C 0.88602 0.99081 0.17581 0.0
N119 N 0.88539 0.01166 0.17503 0.0
N120 N 0.85778 0.01943 0.18107 0.0
C121 C 0.83947 0.00341 0.18578 0.0
C122 C 0.85763 0.98498 0.18271 0.0
C123 C 0.91153 0.97641 0.16974 0.0
H124 H 0.91048 0.98175 0.16238 0.0
H125 H 0.94528 0.97621 0.17218 0.0
H126 H 0.89894 0.96028 0.17009 0.0
O127 O 0.87349 0.04566 0.15925 0.0
O128 O 0.82955 0.06047 0.16952 0.0
H129 H 0.78508 0.99065 0.1931 0.0
H130 H 0.81767 0.00806 0.19979 0.0
C131 C 0.80395 0.00526 0.19276 0.0
H132 H 0.7823 0.01824 0.19087 0.0
H133 H 0.75923 0.06452 0.18334 0.0
O134 O 0.95187 0.01448 0.15832 0.0
C135 C 0.8415 0.05724 0.16112 0.0
Co136 Co 0.66236 0.97155 0.91218 0.0
Co137 Co 0.60836 0.95451 0.92885 0.0
C138 C 0.70123 0.94381 0.92674 0.0
O139 O 0.70433 0.95523 0.91952 0.0
O140 O 0.66571 0.94166 0.93102 0.0
C141 C 0.72947 0.99543 0.90428 0.0
O142 O 0.74226 0.99662 0.91301 0.0
C143 C 0.58482 0.95162 0.94846 0.0
C144 C 0.51449 0.9479 0.9477 0.0
C145 C 0.5479 0.95153 0.9539 0.0
N146 N 0.57345 0.94909 0.93948 0.0
N147 N 0.53152 0.94623 0.93909 0.0
C148 C 0.63036 0.95415 0.95162 0.0
H149 H 0.64353 0.96902 0.94893 0.0
H150 H 0.63319 0.95358 0.95935 0.0
H151 H 0.65007 0.94142 0.94866 0.0
C152 C 0.63137 0.01193 0.91939 0.0
N153 N 0.63357 0.99102 0.91974 0.0
N154 N 0.61208 0.98424 0.92706 0.0
C155 C 0.59648 0.00093 0.93173 0.0
C156 C 0.60838 0.01888 0.92704 0.0
C157 C 0.65189 0.02517 0.91203 0.0
H158 H 0.6499 0.01739 0.90514 0.0
H159 H 0.68601 0.02778 0.91387 0.0
H160 H 0.63623 0.04059 0.91149 0.0
O161 O 0.62048 0.95315 0.90607 0.0
O162 O 0.58141 0.9407 0.9178 0.0
H163 H 0.55535 0.01545 0.94199 0.0
H164 H 0.59025 0.99543 0.94635 0.0
C165 C 0.56977 1.00007 0.9404 0.0
H166 H 0.54376 0.98852 0.93953 0.0
H167 H 0.51423 0.94456 0.93289 0.0
O168 O 0.69544 0.98549 0.90232 0.0
C169 C 0.59001 0.94182 0.9091 0.0
Co170 Co 0.09585 0.78236 0.91364 0.0
Co171 Co 0.15624 0.79898 0.92931 0.0
C172 C 0.06338 0.81117 0.92842 0.0
O173 O 0.05731 0.79962 0.92134 0.0
O174 O 0.10023 0.81272 0.9322 0.0
C175 C 0.02457 0.75979 0.90662 0.0
O176 O 0.01335 0.75927 0.91547 0.0
C177 C 0.18478 0.80012 0.94853 0.0
C178 C 0.25366 0.80762 0.9472 0.0
C179 C 0.22252 0.80183 0.95363 0.0
N180 N 0.19348 0.80434 0.93954 0.0
N181 N 0.23443 0.80936 0.93881 0.0
C182 C 0.14242 0.79179 0.95179 0.0
H183 H 0.12306 0.78623 0.94578 0.0
H184 H 0.14695 0.77889 0.95684 0.0
H185 H 0.12449 0.80441 0.95535 0.0
C186 C 0.12654 0.74175 0.92059 0.0
N187 N 0.12544 0.76267 0.92093 0.0
N188 N 0.15094 0.76927 0.92765 0.0
C189 C 0.1688 0.75246 0.93185 0.0
C190 C 0.15353 0.73464 0.92754 0.0
C191 C 0.10219 0.72868 0.91374 0.0
H192 H 0.10335 0.73588 0.90671 0.0
H193 H 0.06831 0.7275 0.91603 0.0
H194 H 0.11534 0.71269 0.91329 0.0
O195 O 0.13711 0.80004 0.90686 0.0
O196 O 0.18049 0.81239 0.91788 0.0
H197 H 0.2247 0.766 0.93815 0.0
H198 H 0.22013 0.73823 0.93969 0.0
C199 C 0.20198 0.75307 0.9394 0.0
H200 H 0.18607 0.75531 0.94624 0.0
H201 H 0.24981 0.81263 0.9325 0.0
O202 O 0.05926 0.76874 0.90427 0.0
C203 C 0.16899 0.81113 0.90935 0.0
Co204 Co 0.65376 0.77842 0.83002 0.0
Co205 Co 0.59466 0.79777 0.81474 0.0
C206 C 0.68837 0.80808 0.81579 0.0
O207 O 0.69338 0.79581 0.82267 0.0
O208 O 0.65171 0.81078 0.81204 0.0
C209 C 0.72436 0.75474 0.83684 0.0
O210 O 0.73667 0.75512 0.82806 0.0
C211 C 0.5653 0.80135 0.79563 0.0
C212 C 0.49705 0.80979 0.79733 0.0
C213 C 0.52736 0.80414 0.79069 0.0
N214 N 0.55745 0.80482 0.80472 0.0
N215 N 0.51691 0.81042 0.80568 0.0
C216 C 0.6069 0.79272 0.79208 0.0
H217 H 0.6263 0.78635 0.79792 0.0
H218 H 0.60126 0.78036 0.78682 0.0
H219 H 0.62537 0.80539 0.78869 0.0
C220 C 0.62154 0.73919 0.82205 0.0
N221 N 0.62333 0.76009 0.82226 0.0
N222 N 0.59803 0.7678 0.81574 0.0
C223 C 0.57941 0.75171 0.81115 0.0
C224 C 0.59414 0.73324 0.81497 0.0
C225 C 0.64581 0.72506 0.82848 0.0
H226 H 0.64448 0.73112 0.83573 0.0
H227 H 0.67976 0.72433 0.8262 0.0
H228 H 0.63271 0.70903 0.8284 0.0
O229 O 0.61309 0.79559 0.83719 0.0
O230 O 0.57119 0.81021 0.82646 0.0
H231 H 0.52438 0.76673 0.80516 0.0
H232 H 0.52698 0.73905 0.80313 0.0
C233 C 0.54616 0.75355 0.80366 0.0
H234 H 0.56209 0.75609 0.79684 0.0
H235 H 0.50216 0.8133 0.8121 0.0
O236 O 0.68934 0.76342 0.83916 0.0
C237 C 0.58207 0.80745 0.83496 0.0
Co238 Co 0.08807 0.96958 0.8276 0.0
Co239 Co 0.14816 0.94956 0.81273 0.0
C240 C 0.0547 0.93838 0.81397 0.0
O241 O 0.04902 0.95111 0.82066 0.0
O242 O 0.09151 0.93594 0.81027 0.0
C243 C 0.01738 0.99381 0.83387 0.0
O244 O 0.00527 0.99253 0.82509 0.0
C245 C 0.17695 0.94549 0.79365 0.0
C246 C 0.24539 0.93736 0.79526 0.0
C247 C 0.21476 0.94286 0.78866 0.0
N248 N 0.18514 0.9421 0.80273 0.0
N249 N 0.22578 0.93665 0.80365 0.0
C250 C 0.13523 0.95409 0.79015 0.0
H251 H 0.11567 0.9602 0.79601 0.0
H252 H 0.14072 0.96665 0.78496 0.0
H253 H 0.117 0.94148 0.78665 0.0
C254 C 0.11875 0.00843 0.81891 0.0
N255 N 0.11764 0.98754 0.81949 0.0
N256 N 0.14402 0.97952 0.81326 0.0
C257 C 0.16303 0.99536 0.80857 0.0
C258 C 0.1469 0.01398 0.81191 0.0
C259 C 0.09486 0.02302 0.82519 0.0
H260 H 0.09625 0.01741 0.8325 0.0
H261 H 0.0609 0.02381 0.82292 0.0
H262 H 0.10841 0.03897 0.82488 0.0
O263 O 0.12947 0.95332 0.83508 0.0
O264 O 0.17197 0.93817 0.82461 0.0
H265 H 0.21729 0.00763 0.80102 0.0
H266 H 0.18369 0.99032 0.79451 0.0
C267 C 0.19799 0.99316 0.80147 0.0
H268 H 0.21935 0.98005 0.80334 0.0
H269 H 0.24082 0.93393 0.81005 0.0
O270 O 0.0522 0.98526 0.83642 0.0
C271 C 0.16087 0.94149 0.83306 0.0
Co272 Co 0.34013 0.52876 0.57902 0.0
Co273 Co 0.39844 0.54912 0.5639 0.0
C274 C 0.30457 0.5589 0.5651 0.0
O275 O 0.30005 0.54634 0.57189 0.0
O276 O 0.34106 0.56194 0.56134 0.0
C277 C 0.27031 0.5041 0.58523 0.0
O278 O 0.25906 0.50501 0.57639 0.0
C279 C 0.42723 0.55365 0.54481 0.0
C280 C 0.4954 0.56225 0.54649 0.0
C281 C 0.465 0.55671 0.53985 0.0
N282 N 0.43525 0.55685 0.55392 0.0
N283 N 0.47571 0.56258 0.55487 0.0
C284 C 0.38577 0.54489 0.54125 0.0
H285 H 0.36656 0.53829 0.54706 0.0
H286 H 0.39157 0.53268 0.53592 0.0
H287 H 0.36701 0.55755 0.53792 0.0
C288 C 0.37282 0.49008 0.57059 0.0
N289 N 0.37065 0.51095 0.57103 0.0
N290 N 0.39582 0.5191 0.56459 0.0
C291 C 0.41489 0.50333 0.55986 0.0
C292 C 0.40031 0.48463 0.56345 0.0
C293 C 0.34991 0.47542 0.57701 0.0
H294 H 0.35086 0.48141 0.58427 0.0
H295 H 0.31604 0.47395 0.57475 0.0
H296 H 0.36456 0.45969 0.57687 0.0
O297 O 0.38066 0.54571 0.58638 0.0
O298 O 0.42186 0.56103 0.57572 0.0
H299 H 0.46969 0.51894 0.55408 0.0
H300 H 0.46783 0.49134 0.5518 0.0
C301 C 0.44829 0.50571 0.55243 0.0
H302 H 0.43248 0.50846 0.54561 0.0
H303 H 0.4906 0.56527 0.56129 0.0
O304 O 0.30463 0.51297 0.58788 0.0
C305 C 0.41138 0.55783 0.58421 0.0
Co306 Co 0.91119 0.72015 0.57913 0.0
Co307 Co 0.84722 0.70218 0.56448 0.0
C308 C 0.9394 0.68904 0.56482 0.0
O309 O 0.94685 0.70121 0.57162 0.0
O310 O 0.90198 0.68745 0.56132 0.0
C311 C 0.98652 0.74153 0.58413 0.0
O312 O 0.99519 0.73854 0.57524 0.0
C313 C 0.81361 0.69873 0.54573 0.0
C314 C 0.74495 0.69208 0.54811 0.0
C315 C 0.77451 0.6967 0.54116 0.0
N316 N 0.80717 0.6958 0.55491 0.0
N317 N 0.76633 0.69127 0.55629 0.0
C318 C 0.85533 0.70619 0.54174 0.0
H319 H 0.87655 0.71222 0.54734 0.0
H320 H 0.84999 0.71855 0.53645 0.0
H321 H 0.87172 0.69298 0.53825 0.0
C322 C 0.88209 0.75998 0.57118 0.0
N323 N 0.88153 0.73906 0.57148 0.0
N324 N 0.85424 0.73195 0.56521 0.0
C325 C 0.83653 0.74843 0.56073 0.0
C326 C 0.85409 0.76653 0.56432 0.0
C327 C 0.90874 0.77357 0.57738 0.0
H328 H 0.90754 0.76776 0.58467 0.0
H329 H 0.94244 0.77328 0.57492 0.0
H330 H 0.89755 0.78994 0.57726 0.0
O331 O 0.87037 0.70421 0.5869 0.0
O332 O 0.82489 0.69096 0.57652 0.0
H333 H 0.78393 0.76231 0.55318 0.0
H334 H 0.81559 0.74417 0.54664 0.0
C335 C 0.8015 0.74732 0.5536 0.0
H336 H 0.7786 0.73479 0.5554 0.0
H337 H 0.75257 0.68899 0.56286 0.0
O338 O 0.95116 0.73496 0.58742 0.0
C339 C 0.83755 0.69324 0.58494 0.0
Co340 Co 0.35137 0.72005 0.66235 0.0
Co341 Co 0.40642 0.70273 0.6788 0.0
C342 C 0.31392 0.691 0.67659 0.0
O343 O 0.31109 0.7022 0.66929 0.0
O344 O 0.34903 0.68967 0.68112 0.0
C345 C 0.27972 0.74026 0.65425 0.0
O346 O 0.26246 0.73632 0.66244 0.0
C347 C 0.43216 0.70073 0.69825 0.0
C348 C 0.50081 0.69251 0.69724 0.0
C349 C 0.46924 0.69842 0.70354 0.0
N350 N 0.44171 0.69676 0.68928 0.0
N351 N 0.48249 0.69131 0.68873 0.0
C352 C 0.3897 0.7092 0.70135 0.0
H353 H 0.37117 0.71513 0.69529 0.0
H354 H 0.39401 0.72186 0.70654 0.0
H355 H 0.37102 0.69656 0.70472 0.0
C356 C 0.37781 0.76018 0.6703 0.0
N357 N 0.37826 0.73927 0.6703 0.0
N358 N 0.40233 0.73249 0.67723 0.0
C359 C 0.41825 0.74922 0.68184 0.0
C360 C 0.40292 0.76717 0.67762 0.0
C361 C 0.35168 0.77316 0.66372 0.0
H362 H 0.35851 0.76848 0.65641 0.0
H363 H 0.31719 0.77051 0.66516 0.0
H364 H 0.35814 0.79 0.6645 0.0
O365 O 0.39436 0.70277 0.65596 0.0
O366 O 0.43268 0.68928 0.66757 0.0
H367 H 0.47205 0.73536 0.68886 0.0
H368 H 0.46787 0.7632 0.69024 0.0
C369 C 0.44942 0.74847 0.68978 0.0
H370 H 0.43169 0.7465 0.69642 0.0
H371 H 0.49843 0.68808 0.68249 0.0
O372 O 0.31812 0.73467 0.65267 0.0
C373 C 0.42451 0.6911 0.65887 0.0
Co374 Co 0.90705 0.53145 0.66201 0.0
Co375 Co 0.85715 0.54848 0.67929 0.0
C376 C 0.94891 0.55947 0.67624 0.0
O377 O 0.94957 0.54864 0.6688 0.0
O378 O 0.91498 0.5609 0.68114 0.0
C379 C 0.97332 0.50743 0.65417 0.0
O380 O 0.98549 0.50638 0.66295 0.0
C381 C 0.83636 0.55141 0.69906 0.0
C382 C 0.76587 0.55463 0.69875 0.0
C383 C 0.80017 0.55119 0.70473 0.0
N384 N 0.82372 0.55387 0.69015 0.0
N385 N 0.78168 0.55645 0.69003 0.0
C386 C 0.88238 0.54921 0.70193 0.0
H387 H 0.90131 0.56205 0.69882 0.0
H388 H 0.89559 0.5344 0.69919 0.0
H389 H 0.88622 0.54988 0.70964 0.0
C390 C 0.87762 0.49108 0.66956 0.0
N391 N 0.88026 0.51198 0.66992 0.0
N392 N 0.86035 0.51876 0.67745 0.0
C393 C 0.84555 0.50207 0.68225 0.0
C394 C 0.85618 0.48414 0.67741 0.0
C395 C 0.89584 0.47786 0.66191 0.0
H396 H 0.89316 0.48597 0.6551 0.0
H397 H 0.93006 0.47459 0.66343 0.0
H398 H 0.87902 0.46273 0.66138 0.0
O399 O 0.86326 0.54907 0.65619 0.0
O400 O 0.82886 0.56261 0.6684 0.0
H401 H 0.80695 0.48751 0.69297 0.0
H402 H 0.84221 0.50784 0.6969 0.0
C403 C 0.82065 0.50294 0.69117 0.0
H404 H 0.79417 0.5143 0.6905 0.0
H405 H 0.76352 0.55798 0.68394 0.0
O406 O 0.93953 0.51744 0.65207 0.0
C407 C 0.83443 0.56084 0.6596 0.0
Co408 Co 0.6546 0.47059 0.41495 0.0
Co409 Co 0.59222 0.45269 0.42995 0.0
C410 C 0.68436 0.43956 0.42914 0.0
O411 O 0.6912 0.45177 0.42232 0.0
O412 O 0.64731 0.43799 0.43282 0.0
C413 C 0.7291 0.49206 0.40945 0.0
O414 O 0.73882 0.48928 0.4183 0.0
C415 C 0.56078 0.44965 0.4489 0.0
C416 C 0.49192 0.44286 0.4469 0.0
C417 C 0.52218 0.44776 0.45368 0.0
N418 N 0.55337 0.44641 0.43977 0.0
N419 N 0.51242 0.44177 0.43863 0.0
C420 C 0.60289 0.45727 0.45262 0.0
H421 H 0.62353 0.46307 0.44687 0.0
H422 H 0.59809 0.46984 0.45783 0.0
H423 H 0.61963 0.4442 0.45614 0.0
C424 C 0.62626 0.51048 0.42297 0.0
N425 N 0.62563 0.48956 0.42269 0.0
N426 N 0.59895 0.48247 0.42909 0.0
C427 C 0.58167 0.49898 0.43363 0.0
C428 C 0.59894 0.51706 0.42995 0.0
C429 C 0.6523 0.52407 0.41664 0.0
H430 H 0.65048 0.51823 0.40936 0.0
H431 H 0.68622 0.52383 0.41897 0.0
H432 H 0.641 0.54042 0.4168 0.0
O433 O 0.61323 0.45434 0.40745 0.0
O434 O 0.56889 0.4411 0.41808 0.0
H435 H 0.52956 0.51288 0.44132 0.0
H436 H 0.56205 0.49504 0.44783 0.0
C437 C 0.5473 0.49794 0.44091 0.0
H438 H 0.52442 0.48529 0.43927 0.0
H439 H 0.49796 0.43928 0.43215 0.0
O440 O 0.69345 0.48534 0.40638 0.0
C441 C 0.58084 0.44324 0.4096 0.0
Co442 Co 0.08983 0.27956 0.41185 0.0
Co443 Co 0.1414 0.29765 0.42867 0.0
C444 C 0.04918 0.3083 0.42584 0.0
O445 O 0.04723 0.29659 0.4187 0.0
O446 O 0.08398 0.31061 0.43037 0.0
C447 C 0.02353 0.25488 0.40451 0.0
O448 O 0.01218 0.25422 0.41336 0.0
C449 C 0.16173 0.30196 0.44838 0.0
C450 C 0.23235 0.30448 0.44819 0.0
C451 C 0.19762 0.30184 0.45414 0.0
N452 N 0.17486 0.30362 0.43947 0.0
N453 N 0.21701 0.30579 0.4394 0.0
C454 C 0.11552 0.30033 0.45117 0.0
H455 H 0.09726 0.31322 0.44792 0.0
H456 H 0.10183 0.28553 0.44853 0.0
H457 H 0.11135 0.30139 0.45886 0.0
C458 C 0.12006 0.2397 0.41971 0.0
N459 N 0.1174 0.2606 0.41985 0.0
N460 N 0.13757 0.26781 0.42726 0.0
C461 C 0.15245 0.25139 0.43224 0.0
C462 C 0.14169 0.23321 0.42761 0.0
C463 C 0.10209 0.226 0.4122 0.0
H464 H 0.10429 0.23382 0.40532 0.0
H465 H 0.06806 0.22248 0.4138 0.0
H466 H 0.11955 0.21101 0.41181 0.0
O467 O 0.13314 0.29705 0.40571 0.0
O468 O 0.16982 0.31072 0.41757 0.0
H469 H 0.20428 0.26374 0.44031 0.0
H470 H 0.19012 0.23734 0.44325 0.0
C471 C 0.17725 0.25274 0.44115 0.0
H472 H 0.15586 0.25844 0.44676 0.0
H473 H 0.23551 0.30667 0.43334 0.0
O474 O 0.05693 0.26491 0.40217 0.0
C475 C 0.16298 0.30865 0.40882 0.0
Co476 Co 0.6538 0.27919 0.33066 0.0
Co477 Co 0.59972 0.29853 0.31458 0.0
C478 C 0.69263 0.3085 0.31656 0.0
O479 O 0.69473 0.2969 0.32375 0.0
O480 O 0.65756 0.31067 0.3121 0.0
C481 C 0.72233 0.25442 0.33709 0.0
O482 O 0.73284 0.25478 0.32819 0.0
C483 C 0.5719 0.30294 0.29534 0.0
C484 C 0.50363 0.31145 0.29695 0.0
C485 C 0.53423 0.30605 0.29033 0.0
N486 N 0.56355 0.30596 0.30444 0.0
N487 N 0.52303 0.31162 0.30535 0.0
C488 C 0.61369 0.29453 0.2918 0.0
H489 H 0.63266 0.28771 0.29761 0.0
H490 H 0.60841 0.28255 0.28634 0.0
H491 H 0.63244 0.30742 0.28865 0.0
C492 C 0.62153 0.23998 0.32258 0.0
N493 N 0.6243 0.26087 0.32267 0.0
N494 N 0.60164 0.26858 0.3157 0.0
C495 C 0.58426 0.25249 0.31088 0.0
C496 C 0.5967 0.23402 0.31506 0.0
C497 C 0.64238 0.2258 0.32954 0.0
H498 H 0.64119 0.23279 0.33661 0.0
H499 H 0.67628 0.22325 0.3275 0.0
H500 H 0.62637 0.21042 0.32977 0.0
O501 O 0.61248 0.29639 0.33756 0.0
O502 O 0.57559 0.31164 0.32615 0.0
H503 H 0.53562 0.23986 0.30179 0.0
H504 H 0.5734 0.25692 0.29628 0.0
C505 C 0.55449 0.25436 0.30272 0.0
H506 H 0.53216 0.26753 0.30377 0.0
H507 H 0.50796 0.31425 0.31175 0.0
O508 O 0.68867 0.2638 0.33978 0.0
C509 C 0.58342 0.30886 0.33481 0.0
Co510 Co 0.09303 0.47041 0.3313 0.0
Co511 Co 0.14929 0.45233 0.31525 0.0
C512 C 0.05692 0.44025 0.31736 0.0
O513 O 0.05349 0.45186 0.32452 0.0
O514 O 0.0923 0.43883 0.31294 0.0
C515 C 0.0206 0.49101 0.33889 0.0
O516 O 0.00388 0.48661 0.33069 0.0
C517 C 0.17683 0.44911 0.29596 0.0
C518 C 0.2454 0.44104 0.29741 0.0
C519 C 0.21445 0.44652 0.29088 0.0
N520 N 0.18551 0.44572 0.30502 0.0
N521 N 0.22623 0.44033 0.30583 0.0
C522 C 0.13464 0.45732 0.29255 0.0
H523 H 0.11532 0.46343 0.29846 0.0
H524 H 0.13938 0.46978 0.28728 0.0
H525 H 0.11653 0.44449 0.28919 0.0
C526 C 0.11936 0.51014 0.3229 0.0
N527 N 0.11986 0.48923 0.32313 0.0
N528 N 0.14444 0.48213 0.31636 0.0
C529 C 0.16062 0.49863 0.31162 0.0
C530 C 0.14487 0.51675 0.31559 0.0
C531 C 0.09376 0.52354 0.3294 0.0
H532 H 0.10023 0.51894 0.33674 0.0
H533 H 0.05916 0.52126 0.32795 0.0
H534 H 0.10123 0.54028 0.32854 0.0
O535 O 0.13618 0.45392 0.33807 0.0
O536 O 0.1755 0.44005 0.32674 0.0
H537 H 0.21522 0.48451 0.30502 0.0
H538 H 0.21098 0.51226 0.30331 0.0
C539 C 0.1926 0.49752 0.30385 0.0
H540 H 0.17556 0.49516 0.29714 0.0
H541 H 0.24155 0.43751 0.31219 0.0
O542 O 0.0589 0.48553 0.34065 0.0
C543 C 0.16697 0.44239 0.33539 0.0
Co544 Co 0.84365 0.02832 0.58048 0.0
Co545 Co 0.90331 0.04778 0.56534 0.0
C546 C 0.80941 0.05846 0.56653 0.0
O547 O 0.80385 0.04597 0.57332 0.0
O548 O 0.84624 0.06108 0.56285 0.0
C549 C 0.77157 0.00673 0.58808 0.0
O550 O 0.75359 0.01133 0.58003 0.0
C551 C 0.9321 0.05185 0.54621 0.0
C552 C 0.00037 0.06029 0.54786 0.0
C553 C 0.96986 0.05483 0.54123 0.0
N554 N 0.94023 0.05505 0.55531 0.0
N555 N 0.98077 0.06064 0.55625 0.0
C556 C 0.89041 0.04332 0.54266 0.0
H557 H 0.87104 0.03688 0.54849 0.0
H558 H 0.89592 0.03103 0.53736 0.0
H559 H 0.87196 0.05606 0.53932 0.0
C560 C 0.87287 0.98935 0.57191 0.0
N561 N 0.87316 0.01021 0.57248 0.0
N562 N 0.89929 0.01788 0.56612 0.0
C563 C 0.91696 0.00179 0.56136 0.0
C564 C 0.9003 0.98337 0.56484 0.0
C565 C 0.84606 0.97535 0.57789 0.0
H566 H 0.85135 0.97914 0.58537 0.0
H567 H 0.81173 0.97789 0.57623 0.0
H568 H 0.85375 0.95871 0.57672 0.0
O569 O 0.88436 0.04556 0.58769 0.0
O570 O 0.92737 0.05967 0.57706 0.0
H571 H 0.97248 0.01667 0.5555 0.0
H572 H 0.96953 0.98898 0.55346 0.0
C573 C 0.95059 0.00356 0.55395 0.0
H574 H 0.93501 0.00615 0.54709 0.0
H575 H 0.99571 0.06335 0.56266 0.0
O576 O 0.8099 0.01243 0.58965 0.0
C577 C 0.91592 0.05718 0.58554 0.0
Co578 Co 0.41585 0.21985 0.5812 0.0
Co579 Co 0.35512 0.20322 0.5656 0.0
C580 C 0.44788 0.19092 0.56644 0.0
O581 O 0.45421 0.20266 0.57345 0.0
O582 O 0.41083 0.18918 0.56278 0.0
C583 C 0.48678 0.24295 0.58761 0.0
O584 O 0.49647 0.24304 0.57867 0.0
C585 C 0.3268 0.2004 0.54633 0.0
C586 C 0.25649 0.19795 0.5478 0.0
C587 C 0.28878 0.20097 0.54126 0.0
N588 N 0.31721 0.19811 0.55542 0.0
N589 N 0.27522 0.19599 0.55624 0.0
C590 C 0.37176 0.20225 0.54271 0.0
H591 H 0.3864 0.21691 0.54527 0.0
H592 H 0.37292 0.20165 0.53496 0.0
H593 H 0.39125 0.18921 0.54547 0.0
C594 C 0.38521 0.26048 0.57423 0.0
N595 N 0.38599 0.23954 0.57397 0.0
N596 N 0.36155 0.23292 0.56707 0.0
C597 C 0.34533 0.24973 0.56259 0.0
C598 C 0.35999 0.26759 0.56696 0.0
C599 C 0.40885 0.27359 0.58119 0.0
H600 H 0.40837 0.26607 0.58815 0.0
H601 H 0.4425 0.27555 0.57884 0.0
H602 H 0.39455 0.28929 0.58183 0.0
O603 O 0.37506 0.20216 0.58803 0.0
O604 O 0.3303 0.19041 0.57715 0.0
H605 H 0.30134 0.26463 0.55302 0.0
H606 H 0.33323 0.24399 0.54818 0.0
C607 C 0.31536 0.24908 0.55445 0.0
H608 H 0.28908 0.23794 0.55585 0.0
H609 H 0.25916 0.19469 0.56261 0.0
O610 O 0.45295 0.23377 0.59034 0.0
C611 C 0.34248 0.19143 0.58566 0.0
Co612 Co 0.84355 0.22108 0.66356 0.0
Co613 Co 0.8943 0.20229 0.68035 0.0
C614 C 0.801 0.19348 0.67773 0.0
O615 O 0.79971 0.2051 0.67054 0.0
O616 O 0.83581 0.19058 0.68219 0.0
C617 C 0.77917 0.24681 0.65602 0.0
O618 O 0.76724 0.2478 0.66482 0.0
C619 C 0.91485 0.19817 0.70005 0.0
C620 C 0.98529 0.1947 0.69978 0.0
C621 C 0.95094 0.1981 0.70575 0.0
N622 N 0.9276 0.19596 0.69114 0.0
N623 N 0.96959 0.19319 0.69103 0.0
C624 C 0.86884 0.20056 0.70289 0.0
H625 H 0.84959 0.18799 0.69965 0.0
H626 H 0.85619 0.2156 0.70027 0.0
H627 H 0.86479 0.19955 0.71058 0.0
C628 C 0.87748 0.26044 0.67116 0.0
N629 N 0.87308 0.23962 0.6714 0.0
N630 N 0.89305 0.23217 0.6788 0.0
C631 C 0.90959 0.24839 0.68365 0.0
C632 C 0.90014 0.26667 0.67896 0.0
C633 C 0.85999 0.27431 0.66365 0.0
H634 H 0.86162 0.26643 0.65678 0.0
H635 H 0.82618 0.27821 0.66529 0.0
H636 H 0.87812 0.2891 0.66321 0.0
O637 O 0.88495 0.20254 0.65744 0.0
O638 O 0.9211 0.18835 0.66925 0.0
H639 H 0.96089 0.23531 0.69164 0.0
H640 H 0.94875 0.26196 0.69454 0.0
C641 C 0.93469 0.24675 0.69252 0.0
H642 H 0.91317 0.24149 0.69819 0.0
H643 H 0.98785 0.19184 0.68495 0.0
O644 O 0.81197 0.23617 0.65383 0.0
C645 C 0.9139 0.19039 0.66052 0.0
Co646 Co 0.41387 0.03012 0.66592 0.0
Co647 Co 0.34547 0.04802 0.6796 0.0
C648 C 0.43763 0.06255 0.67974 0.0
O649 O 0.44778 0.0497 0.67337 0.0
O650 O 0.39918 0.06398 0.6827 0.0
C651 C 0.49086 0.00967 0.6606 0.0
O652 O 0.50198 0.01365 0.66928 0.0
C653 C 0.31091 0.05136 0.69823 0.0
C654 C 0.2421 0.05736 0.69573 0.0
C655 C 0.27157 0.05297 0.70274 0.0
N656 N 0.3047 0.05429 0.68905 0.0
N657 N 0.26374 0.05845 0.6876 0.0
C658 C 0.35273 0.04419 0.70229 0.0
H659 H 0.37466 0.03872 0.6967 0.0
H660 H 0.34764 0.0315 0.70742 0.0
H661 H 0.36819 0.0574 0.70597 0.0
C662 C 0.38798 0.99056 0.67464 0.0
N663 N 0.38474 0.01132 0.67371 0.0
N664 N 0.35461 0.01834 0.67934 0.0
C665 C 0.337 0.0019 0.68387 0.0
C666 C 0.35837 0.98399 0.68117 0.0
C667 C 0.41758 0.97698 0.6691 0.0
H668 H 0.41637 0.98142 0.66161 0.0
H669 H 0.4508 0.97905 0.6717 0.0
H670 H 0.40888 0.96031 0.66974 0.0
O671 O 0.37319 0.04543 0.65783 0.0
O672 O 0.32324 0.05797 0.66735 0.0
H673 H 0.2822 0.98774 0.69051 0.0
H674 H 0.3107 0.00617 0.69753 0.0
C675 C 0.29938 0.00286 0.69035 0.0
H676 H 0.27683 0.01519 0.68811 0.0
H677 H 0.25011 0.0606 0.681 0.0
O678 O 0.45415 0.01532 0.6577 0.0
C679 C 0.33875 0.05569 0.65917 0.0
Co680 Co 0.15676 0.96828 0.41482 0.0
Co681 Co 0.09727 0.95125 0.43056 0.0
C682 C 0.19072 0.94038 0.42984 0.0
O683 O 0.19611 0.95171 0.42265 0.0
O684 O 0.15397 0.93848 0.43363 0.0
C685 C 0.22699 0.99165 0.4078 0.0
O686 O 0.23819 0.99229 0.41665 0.0
C687 C 0.06764 0.94967 0.4497 0.0
C688 C 0.99918 0.94149 0.44812 0.0
C689 C 0.02963 0.94749 0.45467 0.0
N690 N 0.05972 0.94549 0.44067 0.0
N691 N 0.01905 0.94007 0.43979 0.0
C692 C 0.10943 0.95834 0.45312 0.0
H693 H 0.12887 0.96427 0.44719 0.0
H694 H 0.10407 0.97106 0.45822 0.0
H695 H 0.12772 0.94581 0.45666 0.0
C696 C 0.12388 0.00863 0.4216 0.0
N697 N 0.12588 0.98773 0.42199 0.0
N698 N 0.10089 0.98096 0.42877 0.0
C699 C 0.08253 0.99764 0.43296 0.0
C700 C 0.09686 0.01555 0.42858 0.0
C701 C 0.14774 0.02188 0.41473 0.0
H702 H 0.14709 0.01457 0.40772 0.0
H703 H 0.18149 0.0235 0.41706 0.0
H704 H 0.1338 0.03769 0.41421 0.0
O705 O 0.11673 0.94992 0.40805 0.0
O706 O 0.07428 0.93726 0.41917 0.0
H707 H 0.0314 0.0115 0.44099 0.0
H708 H 0.06662 0.99475 0.44742 0.0
C709 C 0.05004 0.99681 0.44064 0.0
H710 H 0.02766 0.98368 0.4395 0.0
H711 H 0.00425 0.93672 0.43342 0.0
O712 O 0.19278 0.98227 0.40545 0.0
C713 C 0.08559 0.93844 0.41062 0.0
Co714 Co 0.58891 0.78016 0.41501 0.0
Co715 Co 0.64825 0.7987 0.43044 0.0
C716 C 0.55444 0.80945 0.4293 0.0
O717 O 0.549 0.79738 0.42236 0.0
O718 O 0.59119 0.81184 0.43306 0.0
C719 C 0.51691 0.75902 0.40713 0.0
O720 O 0.49873 0.76334 0.41519 0.0
C721 C 0.67681 0.80163 0.44962 0.0
C722 C 0.74526 0.80986 0.4481 0.0
C723 C 0.71457 0.80415 0.45465 0.0
N724 N 0.6851 0.80533 0.44057 0.0
N725 N 0.72576 0.8108 0.43971 0.0
C726 C 0.63499 0.79302 0.45305 0.0
H727 H 0.61566 0.78691 0.44714 0.0
H728 H 0.6403 0.78047 0.45824 0.0
H729 H 0.6166 0.80564 0.45651 0.0
C730 C 0.61844 0.74068 0.42305 0.0
N731 N 0.61846 0.76158 0.42278 0.0
N732 N 0.64433 0.76886 0.42928 0.0
C733 C 0.662 0.75247 0.43384 0.0
C734 C 0.64574 0.73426 0.43007 0.0
C735 C 0.59173 0.72707 0.41686 0.0
H736 H 0.59727 0.73129 0.40944 0.0
H737 H 0.55737 0.72957 0.4185 0.0
H738 H 0.59923 0.71035 0.41784 0.0
O739 O 0.62964 0.79786 0.40804 0.0
O740 O 0.6723 0.8114 0.41888 0.0
H741 H 0.71741 0.76695 0.43995 0.0
H742 H 0.71415 0.73917 0.44173 0.0
C743 C 0.69535 0.75381 0.44134 0.0
H744 H 0.67951 0.75613 0.44819 0.0
H745 H 0.74082 0.81381 0.43334 0.0
O746 O 0.55528 0.76476 0.40565 0.0
C747 C 0.66103 0.80942 0.41036 0.0
Co748 Co 0.16331 0.77919 0.32858 0.0
Co749 Co 0.09869 0.79835 0.31435 0.0
C750 C 0.19128 0.81124 0.31473 0.0
O751 O 0.19913 0.79864 0.32136 0.0
O752 O 0.15369 0.81299 0.31132 0.0
C753 C 0.23868 0.75762 0.33404 0.0
O754 O 0.25011 0.76133 0.32535 0.0
C755 C 0.06437 0.80247 0.29569 0.0
C756 C 0.9962 0.8099 0.29826 0.0
C757 C 0.02513 0.80499 0.29122 0.0
N758 N 0.05858 0.8054 0.30489 0.0
N759 N 0.01805 0.81039 0.30638 0.0
C760 C 0.1055 0.79458 0.29158 0.0
H761 H 0.12694 0.78849 0.29713 0.0
H762 H 0.09928 0.78219 0.28636 0.0
H763 H 0.12209 0.80759 0.28798 0.0
C764 C 0.13492 0.74009 0.31987 0.0
N765 N 0.13379 0.76093 0.32062 0.0
N766 N 0.10523 0.7685 0.31474 0.0
C767 C 0.08675 0.75236 0.31016 0.0
C768 C 0.10566 0.73405 0.31317 0.0
C769 C 0.16251 0.72602 0.32565 0.0
H770 H 0.16071 0.73064 0.3331 0.0
H771 H 0.19623 0.72737 0.32327 0.0
H772 H 0.1525 0.70952 0.32499 0.0
O773 O 0.12231 0.79452 0.33656 0.0
O774 O 0.07707 0.80918 0.3265 0.0
H775 H 0.03178 0.73915 0.30321 0.0
H776 H 0.06257 0.75701 0.29634 0.0
C777 C 0.05007 0.75395 0.30346 0.0
H778 H 0.02823 0.76671 0.30554 0.0
H779 H 0.00475 0.81276 0.31299 0.0
O780 O 0.20224 0.76378 0.33689 0.0
C781 C 0.08989 0.80594 0.33484 0.0
Co782 Co 0.58921 0.97274 0.33029 0.0
Co783 Co 0.64671 0.95334 0.31477 0.0
C784 C 0.55281 0.94377 0.31596 0.0
O785 O 0.54855 0.95585 0.32293 0.0
O786 O 0.58917 0.94094 0.31211 0.0
C787 C 0.51998 0.99697 0.33736 0.0
O788 O 0.50715 0.99686 0.32861 0.0
C789 C 0.67553 0.94966 0.29561 0.0
C790 C 0.74356 0.94078 0.29727 0.0
C791 C 0.71334 0.94666 0.29065 0.0
N792 N 0.68339 0.94611 0.30469 0.0
N793 N 0.72376 0.94023 0.30563 0.0
C794 C 0.63411 0.95852 0.29207 0.0
H795 H 0.6149 0.965 0.29791 0.0
H796 H 0.63997 0.97085 0.2868 0.0
H797 H 0.61533 0.94596 0.28868 0.0
C798 C 0.62231 0.01195 0.32242 0.0
N799 N 0.62001 0.99106 0.32256 0.0
N800 N 0.64446 0.98333 0.3159 0.0
C801 C 0.66291 0.99941 0.31126 0.0
C802 C 0.64905 0.0179 0.31521 0.0
C803 C 0.59882 0.0261 0.32897 0.0
H804 H 0.60018 0.01982 0.33618 0.0
H805 H 0.56484 0.02724 0.32674 0.0
H806 H 0.61256 0.042 0.32896 0.0
O807 O 0.62944 0.95502 0.3373 0.0
O808 O 0.67005 0.94032 0.32637 0.0
H809 H 0.71661 0.98419 0.30482 0.0
H810 H 0.71447 0.01194 0.30294 0.0
C811 C 0.69499 0.99754 0.30354 0.0
H812 H 0.67799 0.99528 0.29682 0.0
H813 H 0.7385 0.93722 0.31204 0.0
O814 O 0.55469 0.98786 0.33956 0.0
C815 C 0.65976 0.94289 0.33491 0.0
Co816 Co 0.83771 0.53007 0.08191 0.0
Co817 Co 0.89488 0.5472 0.06577 0.0
C818 C 0.80265 0.55931 0.06744 0.0
O819 O 0.79815 0.5478 0.0746 0.0
O820 O 0.83865 0.56087 0.06329 0.0
C821 C 0.76774 0.50688 0.08895 0.0
O822 O 0.75639 0.50655 0.0801 0.0
C823 C 0.92186 0.5506 0.04639 0.0
C824 C 0.99217 0.55347 0.04773 0.0
C825 C 0.95967 0.55046 0.04124 0.0
N826 N 0.93183 0.55265 0.05547 0.0
N827 N 0.97379 0.55501 0.05622 0.0
C828 C 0.87678 0.54867 0.04285 0.0
H829 H 0.86256 0.53383 0.04531 0.0
H830 H 0.87528 0.54959 0.03512 0.0
H831 H 0.85712 0.56147 0.04578 0.0
C832 C 0.8667 0.48969 0.07442 0.0
N833 N 0.86582 0.51062 0.07427 0.0
N834 N 0.88909 0.51744 0.06721 0.0
C835 C 0.90467 0.50074 0.06254 0.0
C836 C 0.89074 0.48279 0.06695 0.0
C837 C 0.84488 0.47635 0.08157 0.0
H838 H 0.84672 0.48375 0.08855 0.0
H839 H 0.81078 0.47428 0.07958 0.0
H840 H 0.85972 0.46071 0.08197 0.0
O841 O 0.88046 0.54698 0.08856 0.0
O842 O 0.92078 0.56017 0.07717 0.0
H843 H 0.94724 0.4861 0.0526 0.0
H844 H 0.91439 0.50671 0.04806 0.0
C845 C 0.93331 0.50159 0.05417 0.0
H846 H 0.95967 0.51279 0.0554 0.0
H847 H 0.9901 0.55623 0.06256 0.0
O848 O 0.80212 0.51607 0.09132 0.0
C849 C 0.91156 0.55824 0.08581 0.0
Co850 Co 0.40646 0.72291 0.07881 0.0
Co851 Co 0.34533 0.70238 0.06422 0.0
C852 C 0.43866 0.69127 0.06521 0.0
O853 O 0.44462 0.7042 0.07179 0.0
O854 O 0.4017 0.68856 0.06161 0.0
C855 C 0.47947 0.74592 0.0843 0.0
O856 O 0.4906 0.74266 0.07557 0.0
C857 C 0.31491 0.69749 0.0453 0.0
C858 C 0.24655 0.68954 0.04723 0.0
C859 C 0.27675 0.69458 0.04046 0.0
N860 N 0.30734 0.69464 0.05445 0.0
N861 N 0.26673 0.68933 0.05556 0.0
C862 C 0.35646 0.7058 0.04157 0.0
H863 H 0.37634 0.71232 0.04729 0.0
H864 H 0.35073 0.71798 0.03622 0.0
H865 H 0.37449 0.69292 0.03822 0.0
C866 C 0.37565 0.76137 0.06995 0.0
N867 N 0.37639 0.74053 0.07068 0.0
N868 N 0.34967 0.73236 0.06455 0.0
C869 C 0.33071 0.74811 0.05978 0.0
C870 C 0.34721 0.7668 0.06298 0.0
C871 C 0.40092 0.776 0.07595 0.0
H872 H 0.39905 0.77106 0.08336 0.0
H873 H 0.43494 0.77575 0.0737 0.0
H874 H 0.38897 0.7922 0.07535 0.0
O875 O 0.36577 0.70686 0.08657 0.0
O876 O 0.32276 0.69138 0.07629 0.0
H877 H 0.27404 0.73282 0.05472 0.0
H878 H 0.27654 0.76031 0.05218 0.0
C879 C 0.29559 0.74578 0.05274 0.0
H880 H 0.30973 0.74259 0.04579 0.0
H881 H 0.25214 0.68698 0.06204 0.0
O882 O 0.44372 0.739 0.08723 0.0
C883 C 0.33437 0.6949 0.08469 0.0
Co884 Co 0.83483 0.7205 0.16446 0.0
Co885 Co 0.89446 0.70317 0.18013 0.0
C886 C 0.80126 0.69134 0.17893 0.0
O887 O 0.79567 0.70305 0.17188 0.0
O888 O 0.83791 0.68948 0.18279 0.0
C889 C 0.76169 0.74024 0.15643 0.0
O890 O 0.74368 0.73545 0.16446 0.0
C891 C 0.92303 0.7013 0.19935 0.0
C892 C 0.99167 0.69339 0.19791 0.0
C893 C 0.96082 0.69919 0.2044 0.0
N894 N 0.93144 0.69729 0.19033 0.0
N895 N 0.97223 0.69201 0.18953 0.0
C896 C 0.88094 0.70975 0.2027 0.0
H897 H 0.86143 0.71545 0.19673 0.0
H898 H 0.88588 0.72257 0.20777 0.0
H899 H 0.86295 0.69716 0.20627 0.0
C900 C 0.86224 0.76059 0.17223 0.0
N901 N 0.8632 0.73969 0.17215 0.0
N902 N 0.88925 0.73293 0.17873 0.0
C903 C 0.90619 0.74967 0.18315 0.0
C904 C 0.88933 0.7676 0.1792 0.0
C905 C 0.83383 0.7735 0.16609 0.0
H906 H 0.84036 0.76979 0.15866 0.0
H907 H 0.7999 0.76967 0.16762 0.0
H908 H 0.83834 0.7904 0.16722 0.0
O909 O 0.87676 0.70314 0.15766 0.0
O910 O 0.91948 0.6904 0.16869 0.0
H911 H 0.96218 0.73586 0.18933 0.0
H912 H 0.95823 0.76369 0.19082 0.0
C913 C 0.9398 0.74892 0.19061 0.0
H914 H 0.92424 0.74685 0.19751 0.0
H915 H 0.98739 0.68882 0.18318 0.0
O916 O 0.80056 0.73527 0.15498 0.0
C917 C 0.9086 0.69202 0.16013 0.0
Co918 Co 0.40196 0.53256 0.16484 0.0
Co919 Co 0.34307 0.55003 0.18055 0.0
C920 C 0.43648 0.56077 0.17971 0.0
O921 O 0.44151 0.5493 0.17256 0.0
O922 O 0.39987 0.56281 0.18355 0.0
C923 C 0.47182 0.50878 0.15805 0.0
O924 O 0.48265 0.50834 0.16693 0.0
C925 C 0.31296 0.55244 0.19966 0.0
C926 C 0.24449 0.56039 0.19789 0.0
C927 C 0.27473 0.55474 0.20454 0.0
N928 N 0.30534 0.55618 0.19058 0.0
N929 N 0.26466 0.56149 0.18958 0.0
C930 C 0.35475 0.54407 0.20323 0.0
H931 H 0.37449 0.53794 0.1974 0.0
H932 H 0.34941 0.53157 0.20845 0.0
H933 H 0.37271 0.55682 0.20669 0.0
C934 C 0.36935 0.49239 0.17189 0.0
N935 N 0.37114 0.51331 0.17213 0.0
N936 N 0.3466 0.52024 0.17896 0.0
C937 C 0.32888 0.50363 0.18334 0.0
C938 C 0.34311 0.48562 0.17904 0.0
C939 C 0.39259 0.47894 0.16501 0.0
H940 H 0.3921 0.48622 0.158 0.0
H941 H 0.42628 0.47695 0.16733 0.0
H942 H 0.37789 0.46327 0.16453 0.0
O943 O 0.36205 0.55075 0.15796 0.0
O944 O 0.32009 0.56375 0.16907 0.0
H945 H 0.27471 0.51761 0.19014 0.0
H946 H 0.27899 0.48984 0.19175 0.0
C947 C 0.29738 0.50458 0.19121 0.0
H948 H 0.3148 0.50684 0.19788 0.0
H949 H 0.25008 0.56452 0.18316 0.0
O950 O 0.4379 0.51825 0.15558 0.0
C951 C 0.33111 0.56235 0.16051 0.0
Co952 Co 0.15376 0.46887 0.91099 0.0
Co953 Co 0.10668 0.45237 0.9287 0.0
C954 C 0.19774 0.44125 0.92516 0.0
O955 O 0.1972 0.45193 0.91768 0.0
O956 O 0.16457 0.4399 0.93031 0.0
C957 C 0.21851 0.49357 0.90352 0.0
O958 O 0.22849 0.49475 0.91243 0.0
C959 C 0.08799 0.44906 0.94855 0.0
C960 C 0.01734 0.44664 0.94859 0.0
C961 C 0.05249 0.44935 0.95441 0.0
N962 N 0.07423 0.44717 0.9397 0.0
N963 N 0.03207 0.44509 0.93978 0.0
C964 C 0.13441 0.45053 0.9512 0.0
H965 H 0.14853 0.46496 0.94827 0.0
H966 H 0.13901 0.45005 0.95889 0.0
H967 H 0.15199 0.43723 0.9481 0.0
C968 C 0.12422 0.5094 0.91841 0.0
N969 N 0.12737 0.48853 0.91891 0.0
N970 N 0.10975 0.482 0.92674 0.0
C971 C 0.09647 0.49882 0.93165 0.0
C972 C 0.10531 0.5166 0.92652 0.0
C973 C 0.13941 0.52242 0.91038 0.0
H974 H 0.13717 0.51359 0.90375 0.0
H975 H 0.17311 0.52719 0.91162 0.0
H976 H 0.12001 0.53678 0.90969 0.0
O977 O 0.11008 0.45077 0.90542 0.0
O978 O 0.07715 0.43814 0.91799 0.0
H979 H 0.06331 0.51382 0.94309 0.0
H980 H 0.09833 0.49274 0.94629 0.0
C981 C 0.07507 0.49821 0.94099 0.0
H982 H 0.04758 0.48733 0.94078 0.0
H983 H 0.01317 0.44403 0.93378 0.0
O984 O 0.18601 0.48299 0.90105 0.0
C985 C 0.08166 0.43919 0.90914 0.0
Co986 Co 0.60853 0.28122 0.91288 0.0
Co987 Co 0.66046 0.30018 0.92942 0.0
C988 C 0.56842 0.31149 0.92627 0.0
O989 O 0.56707 0.29968 0.91916 0.0
O990 O 0.60262 0.31327 0.93109 0.0
C991 C 0.53864 0.25909 0.90546 0.0
O992 O 0.52289 0.2629 0.91381 0.0
C993 C 0.68341 0.30365 0.94898 0.0
C994 C 0.75194 0.31226 0.94829 0.0
C995 C 0.71975 0.30643 0.95447 0.0
N996 N 0.69401 0.30724 0.94003 0.0
N997 N 0.73467 0.31297 0.93967 0.0
C998 C 0.64081 0.29503 0.95191 0.0
H999 H 0.62308 0.28884 0.94579 0.0
H1000 H 0.64479 0.28255 0.95719 0.0
H1001 H 0.6215 0.30767 0.9551 0.0
C1002 C 0.6354 0.2419 0.92163 0.0
N1003 N 0.63451 0.26281 0.92138 0.0
N1004 N 0.65718 0.27031 0.92838 0.0
C1005 C 0.67341 0.25408 0.9333 0.0
C1006 C 0.65962 0.23573 0.92921 0.0
C1007 C 0.61326 0.22797 0.91476 0.0
H1008 H 0.6196 0.23342 0.90754 0.0
H1009 H 0.57823 0.22846 0.91607 0.0
H1010 H 0.62404 0.2116 0.91542 0.0
O1011 O 0.65233 0.29797 0.90644 0.0
O1012 O 0.6884 0.31252 0.91814 0.0
H1013 H 0.72605 0.2689 0.94033 0.0
H1014 H 0.7228 0.24115 0.9421 0.0
C1015 C 0.70384 0.25567 0.94135 0.0
H1016 H 0.68547 0.25793 0.94789 0.0
H1017 H 0.75134 0.31596 0.93349 0.0
O1018 O 0.57599 0.26556 0.90343 0.0
C1019 C 0.68188 0.30994 0.90941 0.0
Co1020 Co 0.16242 0.27712 0.83293 0.0
Co1021 Co 0.10319 0.29516 0.8173 0.0
C1022 C 0.19374 0.30946 0.81938 0.0
O1023 O 0.1993 0.29707 0.82619 0.0
O1024 O 0.15773 0.31071 0.81523 0.0
C1025 C 0.23642 0.25572 0.83805 0.0
O1026 O 0.24431 0.25868 0.82912 0.0
C1027 C 0.07659 0.30021 0.79801 0.0
C1028 C 0.00603 0.30134 0.79917 0.0
C1029 C 0.03917 0.29971 0.79274 0.0
N1030 N 0.06591 0.30111 0.8071 0.0
N1031 N 0.02372 0.30246 0.80775 0.0
C1032 C 0.12202 0.2995 0.7946 0.0
H1033 H 0.14047 0.31232 0.79786 0.0
H1034 H 0.13719 0.28466 0.79677 0.0
H1035 H 0.12396 0.30132 0.7869 0.0
C1036 C 0.13712 0.23733 0.82437 0.0
N1037 N 0.13633 0.25825 0.8247 0.0
N1038 N 0.11207 0.26545 0.81789 0.0
C1039 C 0.09731 0.24904 0.81289 0.0
C1040 C 0.11295 0.23086 0.81682 0.0
C1041 C 0.16072 0.22369 0.83113 0.0
H1042 H 0.15803 0.23004 0.8383 0.0
H1043 H 0.19501 0.22302 0.8291 0.0
H1044 H 0.14817 0.20757 0.83111 0.0
O1045 O 0.11793 0.29178 0.84016 0.0
O1046 O 0.07629 0.30555 0.82911 0.0
H1047 H 0.04013 0.26082 0.80653 0.0
H1048 H 0.05417 0.23479 0.80294 0.0
C1049 C 0.06712 0.25033 0.8048 0.0
H1050 H 0.08451 0.25658 0.79869 0.0
H1051 H 0.00693 0.30263 0.81406 0.0
O1052 O 0.2014 0.26238 0.84148 0.0
C1053 C 0.08563 0.30262 0.8377 0.0
Co1054 Co 0.59815 0.47208 0.83253 0.0
Co1055 Co 0.6508 0.45298 0.8161 0.0
C1056 C 0.55901 0.44189 0.81889 0.0
O1057 O 0.55683 0.45408 0.82586 0.0
O1058 O 0.59385 0.43945 0.81439 0.0
C1059 C 0.52999 0.49667 0.83874 0.0
O1060 O 0.52084 0.49621 0.82977 0.0
C1061 C 0.67364 0.44737 0.79658 0.0
C1062 C 0.74425 0.44529 0.79725 0.0
C1063 C 0.7103 0.44732 0.79104 0.0
N1064 N 0.68562 0.44639 0.80559 0.0
N1065 N 0.72778 0.44447 0.80594 0.0
C1066 C 0.62778 0.44851 0.79348 0.0
H1067 H 0.60938 0.43579 0.79684 0.0
H1068 H 0.61339 0.46342 0.79579 0.0
H1069 H 0.62466 0.44682 0.78579 0.0
C1070 C 0.62776 0.51144 0.82416 0.0
N1071 N 0.6256 0.49053 0.82431 0.0
N1072 N 0.64613 0.48291 0.81703 0.0
C1073 C 0.66076 0.49907 0.81184 0.0
C1074 C 0.64942 0.5175 0.8162 0.0
C1075 C 0.60922 0.52553 0.83145 0.0
H1076 H 0.61089 0.51809 0.83843 0.0
H1077 H 0.57532 0.52897 0.82969 0.0
H1078 H 0.62666 0.54053 0.83175 0.0
O1079 O 0.6415 0.45549 0.83915 0.0
O1080 O 0.67862 0.44104 0.82754 0.0
H1081 H 0.69867 0.51258 0.80074 0.0
H1082 H 0.66481 0.49117 0.79743 0.0
C1083 C 0.68593 0.49726 0.803 0.0
H1084 H 0.71307 0.48641 0.80403 0.0
H1085 H 0.7455 0.44412 0.81213 0.0
O1086 O 0.56325 0.48731 0.84168 0.0
C1087 C 0.67159 0.44377 0.83625 0.0
C1088 C 0.42891 0.02771 0.02766 0.0
C1089 C 0.45329 0.04469 0.03083 0.0
C1090 C 0.43843 0.01813 0.01917 0.0
C1091 C 0.49707 0.02424 0.99699 0.0
H1092 H 0.4984 0.96389 -0.00259 0.0
C1093 C 0.56598 0.97701 0.96652 0.0
C1094 C 0.54202 0.95978 0.96346 0.0
C1095 C 0.55622 0.9868 0.97494 0.0
C1096 C 0.49777 0.98072 0.99716 0.0
H1097 H 0.50668 0.06498 0.02757 0.0
H1098 H 0.52361 0.04811 0.01268 0.0
H1099 H 0.47778 0.98303 0.01142 0.0
H1100 H 0.48895 0.93938 0.96681 0.0
H1101 H 0.47155 0.95664 0.98158 0.0
H1102 H 0.51703 0.02193 0.98273 0.0
C1103 C 0.49656 0.04249 0.01671 0.0
C1104 C 0.4859 0.9917 0.00517 0.0
C1105 C 0.48695 0.05213 0.02522 0.0
C1106 C 0.50838 0.95241 0.96908 0.0
C1107 C 0.49851 0.96226 0.97753 0.0
C1108 C 0.50891 0.01327 0.98898 0.0
C1109 C 0.47292 0.0251 0.01371 0.0
C1110 C 0.48535 0.01357 0.00516 0.0
C1111 C 0.52187 0.97981 0.98045 0.0
C1112 C 0.50945 0.99139 0.98899 0.0
H1113 H 0.40378 0.021 0.03189 0.0
H1114 H 0.41935 0.0049 0.017 0.0
H1115 H 0.49648 0.04108 0.99675 0.0
H1116 H 0.59104 0.98367 0.96225 0.0
H1117 H 0.57507 1.00016 0.97704 0.0
C1118 C 0.76386 0.2869 0.96599 0.0
C1119 C 0.72679 0.29852 0.96404 0.0
C1120 C 0.76832 0.27668 0.97454 0.0
C1121 C 0.70289 0.25491 0.99353 0.0
H1122 H 0.81269 0.24929 0.00603 0.0
C1123 C 0.72436 0.21757 0.03003 0.0
C1124 C 0.7613 0.20551 0.03153 0.0
C1125 C 0.71859 0.22814 0.0216 0.0
C1126 C 0.78193 0.2505 0.00254 0.0
H1127 H 0.66702 0.31006 0.96975 0.0
H1128 H 0.6748 0.29221 0.98477 0.0
H1129 H 0.8068 0.27135 0.99223 0.0
H1130 H 0.81904 0.19339 0.0251 0.0
H1131 H 0.80914 0.21198 0.01035 0.0
H1132 H 0.67804 0.23411 0.0039 0.0
C1133 C 0.69986 0.29053 0.97957 0.0
C1134 C 0.77852 0.2632 0.99466 0.0
C1135 C 0.69541 0.30077 0.971 0.0
C1136 C 0.79092 0.20308 0.02422 0.0
C1137 C 0.78525 0.21371 0.0158 0.0
C1138 C 0.70629 0.24226 0.00143 0.0
C1139 C 0.73593 0.27799 0.98134 0.0
C1140 C 0.73902 0.26547 0.99004 0.0
C1141 C 0.74959 0.22679 0.0145 0.0
C1142 C 0.7459 0.23984 0.00599 0.0
H1143 H 0.78852 0.28481 0.96074 0.0
H1144 H 0.79632 0.26701 0.97563 0.0
H1145 H 0.67217 0.25604 0.99003 0.0
H1146 H 0.70098 0.21974 0.03555 0.0
H1147 H 0.69087 0.23815 0.02082 0.0
C1148 C 0.45101 0.2052 0.2205 0.0
C1149 C 0.48002 0.20774 0.21308 0.0
C1150 C 0.45759 0.21558 0.22896 0.0
C1151 C 0.5386 0.24358 0.24303 0.0
H1152 H 0.43949 0.27242 0.25307 0.0
C1153 C 0.55453 0.30147 0.27348 0.0
C1154 C 0.52484 0.29875 0.28076 0.0
C1155 C 0.54831 0.29158 0.26489 0.0
C1156 C 0.46739 0.26435 0.25039 0.0
H1157 H 0.54012 0.22193 0.20888 0.0
H1158 H 0.55177 0.23992 0.22364 0.0
H1159 H 0.43155 0.25069 0.23921 0.0
H1160 H 0.46405 0.28474 0.28459 0.0
H1161 H 0.45312 0.26756 0.26964 0.0
H1162 H 0.57441 0.25716 0.25423 0.0
C1163 C 0.52387 0.23 0.22294 0.0
C1164 C 0.46282 0.25182 0.24248 0.0
C1165 C 0.51721 0.21967 0.21448 0.0
C1166 C 0.48746 0.28715 0.2791 0.0
C1167 C 0.4812 0.27729 0.27052 0.0
C1168 C 0.54317 0.25608 0.25094 0.0
C1169 C 0.49354 0.22851 0.23017 0.0
C1170 C 0.49834 0.24127 0.23873 0.0
C1171 C 0.51211 0.27894 0.26341 0.0
C1172 C 0.50759 0.26657 0.25472 0.0
H1173 H 0.42269 0.19562 0.21968 0.0
H1174 H 0.4342 0.21375 0.2345 0.0
H1175 H 0.56647 0.23549 0.24034 0.0
H1176 H 0.58308 0.31078 0.27451 0.0
H1177 H 0.57219 0.29352 0.25946 0.0
C1178 C 0.69387 0.95216 0.27382 0.0
C1179 C 0.72321 0.95449 0.28119 0.0
C1180 C 0.70037 0.96258 0.26536 0.0
C1181 C 0.78162 0.99096 0.25139 0.0
H1182 H 0.68246 0.01979 0.24135 0.0
C1183 C 0.79851 0.05118 0.22196 0.0
C1184 C 0.77027 0.04851 0.21441 0.0
C1185 C 0.79143 0.04068 0.23037 0.0
C1186 C 0.71036 0.01173 0.24404 0.0
H1187 H 0.78364 0.96841 0.28533 0.0
H1188 H 0.79505 0.98654 0.27061 0.0
H1189 H 0.67425 0.99742 0.25501 0.0
H1190 H 0.71087 0.03404 0.20994 0.0
H1191 H 0.69832 0.01588 0.22462 0.0
H1192 H 0.81775 0.00534 0.24044 0.0
C1193 C 0.76705 0.97669 0.27132 0.0
C1194 C 0.70564 0.99882 0.25182 0.0
C1195 C 0.76054 0.96628 0.27975 0.0
C1196 C 0.73318 0.03641 0.21565 0.0
C1197 C 0.72602 0.02597 0.22406 0.0
C1198 C 0.78635 0.0039 0.24362 0.0
C1199 C 0.73648 0.97541 0.26412 0.0
C1200 C 0.74123 0.98831 0.25559 0.0
C1201 C 0.75574 0.02751 0.2314 0.0
C1202 C 0.75079 0.01444 0.23987 0.0
H1203 H 0.66535 0.94274 0.27468 0.0
H1204 H 0.67676 0.9609 0.25986 0.0
H1205 H 0.80954 0.98289 0.25406 0.0
H1206 H 0.82673 0.06087 0.22127 0.0
H1207 H 0.81435 0.04254 0.23601 0.0
C1208 C 0.20105 0.79613 0.97033 0.0
C1209 C 0.23083 0.79344 0.96307 0.0
C1210 C 0.20617 0.78554 0.97879 0.0
C1211 C 0.28474 0.75649 0.99315 0.0
H1212 H 0.1833 0.72943 0.00311 0.0
C1213 C 0.29622 0.69838 0.02355 0.0
C1214 C 0.26708 0.70171 0.03088 0.0
C1215 C 0.29046 0.70829 0.01495 0.0
C1216 C 0.21185 0.737 0.00044 0.0
H1217 H 0.2906 0.77861 0.95913 0.0
H1218 H 0.29964 0.76018 0.97387 0.0
H1219 H 0.17739 0.75114 0.98917 0.0
H1220 H 0.20753 0.71681 0.03479 0.0
H1221 H 0.19732 0.73402 0.01979 0.0
H1222 H 0.31919 0.74238 0.00442 0.0
C1223 C 0.27233 0.77043 0.97307 0.0
C1224 C 0.20844 0.74951 0.99249 0.0
C1225 C 0.26717 0.78101 0.96462 0.0
C1226 C 0.23048 0.71392 0.02925 0.0
C1227 C 0.22467 0.72381 0.02066 0.0
C1228 C 0.28815 0.74397 0.00109 0.0
C1229 C 0.24135 0.77218 0.98016 0.0
C1230 C 0.24484 0.75942 0.98877 0.0
C1231 C 0.25526 0.72159 0.01351 0.0
C1232 C 0.25174 0.73409 0.00483 0.0
H1233 H 0.17332 0.80605 0.9694 0.0
H1234 H 0.18229 0.78759 0.98421 0.0
H1235 H 0.31328 0.7641 0.99051 0.0
H1236 H 0.32413 0.68861 0.02456 0.0
H1237 H 0.31403 0.7059 0.00949 0.0
C1238 C 0.54733 0.79923 0.77385 0.0
C1239 C 0.51776 0.79663 0.78116 0.0
C1240 C 0.54109 0.78916 0.76531 0.0
C1241 C 0.46061 0.7619 0.75078 0.0
H1242 H 0.55996 0.73281 0.741 0.0
C1243 C 0.44646 0.70408 0.72018 0.0
C1244 C 0.47713 0.7064 0.71307 0.0
C1245 C 0.45179 0.71421 0.72875 0.0
C1246 C 0.532 0.74097 0.7436 0.0
H1247 H 0.45704 0.78266 0.78507 0.0
H1248 H 0.44598 0.76519 0.77016 0.0
H1249 H 0.56718 0.75422 0.75497 0.0
H1250 H 0.53855 0.7201 0.70951 0.0
H1251 H 0.54791 0.73772 0.72441 0.0
H1252 H 0.42545 0.74869 0.73939 0.0
C1253 C 0.47406 0.77493 0.77102 0.0
C1254 C 0.53617 0.7533 0.75158 0.0
C1255 C 0.48037 0.78496 0.77956 0.0
C1256 C 0.5144 0.71799 0.71487 0.0
C1257 C 0.51976 0.7281 0.72342 0.0
C1258 C 0.45645 0.74958 0.74279 0.0
C1259 C 0.50494 0.77645 0.76389 0.0
C1260 C 0.50055 0.76393 0.75524 0.0
C1261 C 0.48807 0.72671 0.73038 0.0
C1262 C 0.49212 0.73902 0.7391 0.0
H1263 H 0.57583 0.80861 0.77482 0.0
H1264 H 0.56492 0.79101 0.75986 0.0
H1265 H 0.43267 0.77004 0.7534 0.0
H1266 H 0.41798 0.69477 0.71906 0.0
H1267 H 0.42729 0.71246 0.73406 0.0
C1268 C 0.19471 0.9479 0.77185 0.0
C1269 C 0.2239 0.95087 0.7792 0.0
C1270 C 0.20005 0.95849 0.76339 0.0
C1271 C 0.27825 0.98884 0.7494 0.0
H1272 H 0.17601 0.01473 0.7392 0.0
C1273 C 0.28856 0.04889 0.71977 0.0
C1274 C 0.26101 0.04522 0.71218 0.0
C1275 C 0.28246 0.03842 0.72822 0.0
C1276 C 0.20478 0.0075 0.74194 0.0
H1277 H 0.28287 0.9662 0.78333 0.0
H1278 H 0.29226 0.98465 0.76861 0.0
H1279 H 0.17025 0.99242 0.75294 0.0
H1280 H 0.20363 0.029 0.70768 0.0
H1281 H 0.19273 0.01087 0.72245 0.0
H1282 H 0.31278 0.00402 0.73842 0.0
C1283 C 0.26531 0.97414 0.76932 0.0
C1284 C 0.20148 0.99462 0.74977 0.0
C1285 C 0.25997 0.96354 0.77775 0.0
C1286 C 0.22538 0.03214 0.71342 0.0
C1287 C 0.21918 0.02172 0.72187 0.0
C1288 C 0.28155 0.00177 0.74159 0.0
C1289 C 0.23481 0.97216 0.76214 0.0
C1290 C 0.23818 0.98515 0.75359 0.0
C1291 C 0.24842 0.02426 0.72926 0.0
C1292 C 0.24487 0.01124 0.73778 0.0
H1293 H 0.16711 0.93786 0.77273 0.0
H1294 H 0.17656 0.95627 0.75791 0.0
H1295 H 0.30704 0.98158 0.7521 0.0
H1296 H 0.31557 0.05936 0.71908 0.0
H1297 H 0.30491 0.04105 0.73388 0.0
C1298 C 0.47632 0.4683 0.46452 0.0
C1299 C 0.51251 0.45566 0.46314 0.0
C1300 C 0.47046 0.47875 0.47297 0.0
C1301 C 0.5333 0.49955 0.49247 0.0
H1302 H 0.42222 0.50743 0.50414 0.0
C1303 C 0.51113 0.53691 0.52881 0.0
C1304 C 0.47448 0.54913 0.53034 0.0
C1305 C 0.51685 0.5266 0.52032 0.0
C1306 C 0.45336 0.50564 0.50088 0.0
H1307 H 0.56868 0.44241 0.46978 0.0
H1308 H 0.55856 0.46076 0.48458 0.0
H1309 H 0.42836 0.48524 0.49038 0.0
H1310 H 0.4171 0.56174 0.52396 0.0
H1311 H 0.42714 0.5438 0.50905 0.0
H1312 H 0.55831 0.51999 0.50294 0.0
C1313 C 0.53538 0.46302 0.47903 0.0
C1314 C 0.45689 0.49283 0.49303 0.0
C1315 C 0.54116 0.45252 0.47058 0.0
C1316 C 0.44512 0.55201 0.52301 0.0
C1317 C 0.45082 0.5417 0.51451 0.0
C1318 C 0.52976 0.51239 0.5003 0.0
C1319 C 0.50058 0.47669 0.48022 0.0
C1320 C 0.49691 0.48963 0.48876 0.0
C1321 C 0.48614 0.52842 0.51317 0.0
C1322 C 0.48975 0.51556 0.5046 0.0
H1323 H 0.45373 0.47104 0.4589 0.0
H1324 H 0.44343 0.48923 0.47365 0.0
H1325 H 0.56445 0.49771 0.48921 0.0
H1326 H 0.53421 0.53434 0.53435 0.0
H1327 H 0.54426 0.51639 0.51954 0.0
C1328 C 0.76017 0.78394 0.46565 0.0
C1329 C 0.7236 0.79622 0.46413 0.0
C1330 C 0.76581 0.77358 0.47413 0.0
C1331 C 0.70272 0.75291 0.49374 0.0
H1332 H 0.81425 0.74522 0.50525 0.0
C1333 C 0.72771 0.71676 0.53031 0.0
C1334 C 0.76395 0.70414 0.53166 0.0
C1335 C 0.72121 0.72687 0.52179 0.0
C1336 C 0.78298 0.74699 0.50203 0.0
H1337 H 0.6662 0.80882 0.4705 0.0
H1338 H 0.67613 0.7908 0.4854 0.0
H1339 H 0.80762 0.76718 0.49143 0.0
H1340 H 0.81941 0.69047 0.52492 0.0
H1341 H 0.80822 0.70824 0.51001 0.0
H1342 H 0.6781 0.7328 0.5044 0.0
C1343 C 0.69979 0.78869 0.47994 0.0
C1344 C 0.77916 0.75964 0.49415 0.0
C1345 C 0.69414 0.79904 0.47144 0.0
C1346 C 0.7919 0.7006 0.52414 0.0
C1347 C 0.7855 0.71076 0.51562 0.0
C1348 C 0.70653 0.7403 0.50165 0.0
C1349 C 0.73514 0.77542 0.48128 0.0
C1350 C 0.739 0.76272 0.4899 0.0
C1351 C 0.75076 0.72447 0.51446 0.0
C1352 C 0.74672 0.73718 0.50586 0.0
H1353 H 0.78332 0.78143 0.46012 0.0
H1354 H 0.79323 0.76337 0.47491 0.0
H1355 H 0.67146 0.75464 0.49053 0.0
H1356 H 0.70564 0.71979 0.536 0.0
H1357 H 0.69423 0.73738 0.52112 0.0
C1358 C 0.76204 0.54948 0.72007 0.0
C1359 C 0.79573 0.54273 0.7143 0.0
C1360 C 0.75329 0.53926 0.72849 0.0
C1361 C 0.79866 0.5027 0.7458 0.0
H1362 H 0.6795 0.48875 0.75044 0.0
C1363 C 0.74956 0.44782 0.77582 0.0
C1364 C 0.71505 0.45473 0.78131 0.0
C1365 C 0.75851 0.4573 0.76723 0.0
C1366 C 0.71289 0.49263 0.74927 0.0
H1367 H 0.84589 0.51948 0.7128 0.0
H1368 H 0.83145 0.5022 0.72748 0.0
H1369 H 0.69829 0.50966 0.73682 0.0
H1370 H 0.66351 0.47743 0.78211 0.0
H1371 H 0.67855 0.49352 0.76723 0.0
H1372 H 0.81326 0.48582 0.75829 0.0
C1373 C 0.81239 0.51568 0.72562 0.0
C1374 C 0.7236 0.5047 0.74151 0.0
C1375 C 0.82095 0.52579 0.71721 0.0
C1376 C 0.6892 0.47102 0.77795 0.0
C1377 C 0.69806 0.48044 0.7694 0.0
C1378 C 0.78793 0.49068 0.75359 0.0
C1379 C 0.778 0.52204 0.73126 0.0
C1380 C 0.76658 0.5099 0.7397 0.0
C1381 C 0.73326 0.47397 0.76402 0.0
C1382 C 0.74491 0.48557 0.75543 0.0
H1383 H 0.74174 0.56231 0.71794 0.0
H1384 H 0.72675 0.5446 0.73274 0.0
H1385 H 0.83203 0.5066 0.74462 0.0
H1386 H 0.77033 0.43548 0.77829 0.0
H1387 H 0.78566 0.45185 0.76319 0.0
C1388 C 0.30631 0.22616 0.52849 0.0
C1389 C 0.28164 0.20937 0.53177 0.0
C1390 C 0.29607 0.23601 0.52012 0.0
C1391 C 0.23627 0.23026 0.49816 0.0
H1392 H 0.23939 0.29061 0.49817 0.0
C1393 C 0.17533 0.27741 0.46686 0.0
C1394 C 0.20115 0.29402 0.46383 0.0
C1395 C 0.18281 0.2679 0.47546 0.0
C1396 C 0.23873 0.27378 0.49804 0.0
H1397 H 0.22664 0.18986 0.52885 0.0
H1398 H 0.20852 0.20717 0.5141 0.0
H1399 H 0.25775 0.27157 0.51237 0.0
H1400 H 0.25518 0.31361 0.46742 0.0
H1401 H 0.26868 0.2968 0.48249 0.0
H1402 H 0.21761 0.23244 0.48381 0.0
C1403 C 0.23632 0.21242 0.51799 0.0
C1404 C 0.24925 0.26286 0.50615 0.0
C1405 C 0.24662 0.20254 0.52641 0.0
C1406 C 0.23434 0.30107 0.46966 0.0
C1407 C 0.24196 0.29149 0.47828 0.0
C1408 C 0.2258 0.24118 0.49003 0.0
C1409 C 0.26058 0.2295 0.51485 0.0
C1410 C 0.24837 0.24099 0.50628 0.0
C1411 C 0.21674 0.27452 0.48117 0.0
C1412 C 0.22701 0.26305 0.48988 0.0
H1413 H 0.33252 0.23242 0.53255 0.0
H1414 H 0.31562 0.24899 0.51784 0.0
H1415 H 0.23579 0.21342 0.49802 0.0
H1416 H 0.15056 0.27095 0.46245 0.0
H1417 H 0.16257 0.25501 0.47753 0.0
C1418 C 0.26047 0.46597 0.27969 0.0
C1419 C 0.22331 0.45419 0.28134 0.0
C1420 C 0.26629 0.47609 0.27116 0.0
C1421 C 0.20345 0.49757 0.25176 0.0
H1422 H 0.31463 0.50355 0.2399 0.0
C1423 C 0.22794 0.53471 0.21539 0.0
C1424 C 0.26497 0.54676 0.21398 0.0
C1425 C 0.2216 0.52425 0.22382 0.0
C1426 C 0.28348 0.50225 0.24321 0.0
H1427 H 0.16505 0.44213 0.27511 0.0
H1428 H 0.17517 0.45985 0.26015 0.0
H1429 H 0.30739 0.48149 0.25367 0.0
H1430 H 0.32231 0.55894 0.22055 0.0
H1431 H 0.31134 0.54058 0.23533 0.0
H1432 H 0.17956 0.51832 0.24128 0.0
C1433 C 0.1992 0.46174 0.26555 0.0
C1434 C 0.27931 0.48954 0.25107 0.0
C1435 C 0.19341 0.45159 0.2741 0.0
C1436 C 0.2941 0.54929 0.22138 0.0
C1437 C 0.28783 0.53878 0.22981 0.0
C1438 C 0.20762 0.51026 0.24389 0.0
C1439 C 0.23518 0.47452 0.26409 0.0
C1440 C 0.23927 0.48711 0.25544 0.0
C1441 C 0.25208 0.52571 0.23103 0.0
C1442 C 0.24771 0.51278 0.23955 0.0
H1443 H 0.28404 0.46829 0.28515 0.0
H1444 H 0.29421 0.48592 0.27028 0.0
H1445 H 0.17233 0.49632 0.25508 0.0
H1446 H 0.20495 0.53246 0.2098 0.0
H1447 H 0.19384 0.51424 0.22453 0.0
C1448 C 0.04973 0.95328 0.47143 0.0
C1449 C 0.02029 0.9557 0.46409 0.0
C1450 C 0.04373 0.96386 0.47986 0.0
C1451 C 0.96364 0.99227 0.49401 0.0
H1452 H 0.06359 0.02074 0.50388 0.0
C1453 C 0.9495 0.05037 0.5244 0.0
C1454 C 0.97919 0.04753 0.53166 0.0
C1455 C 0.95546 0.04045 0.5158 0.0
C1456 C 0.03546 0.01278 0.50125 0.0
H1457 H 0.96014 0.96994 0.45997 0.0
H1458 H 0.94951 0.98831 0.47468 0.0
H1459 H 0.07067 0.99892 0.49003 0.0
H1460 H 0.03977 0.0333 0.53548 0.0
H1461 H 0.05026 0.01605 0.52051 0.0
H1462 H 0.92845 0.00606 0.50525 0.0
C1463 C 0.97728 0.97831 0.47395 0.0
C1464 C 0.03954 1.0002 0.49334 0.0
C1465 C 0.98333 0.96776 0.46553 0.0
C1466 C 0.01638 0.03579 0.52999 0.0
C1467 C 0.02237 0.02589 0.52141 0.0
C1468 C 0.95956 0.00483 0.50192 0.0
C1469 C 0.00798 0.9769 0.48111 0.0
C1470 C 0.0037 0.98977 0.48966 0.0
C1471 C 0.99139 0.02764 0.51432 0.0
C1472 C 0.99545 0.01519 0.50564 0.0
H1473 H 0.07792 0.94363 0.47058 0.0
H1474 H 0.06741 0.96208 0.48535 0.0
H1475 H 0.93553 0.98427 0.49139 0.0
H1476 H 0.92113 0.0598 0.52543 0.0
H1477 H 0.93154 0.04248 0.51038 0.0
C1478 C 0.9299 0.22322 0.71833 0.0
C1479 C 0.9553 0.20639 0.71536 0.0
C1480 C 0.9381 0.23308 0.72681 0.0
C1481 C 0.02603 0.24399 0.74284 0.0
H1482 H 0.93566 0.26125 0.7598 0.0
C1483 C 0.05994 0.27646 0.77947 0.0
C1484 C 0.03358 0.29234 0.78302 0.0
C1485 C 0.05101 0.26726 0.77088 0.0
C1486 C 0.96117 0.25685 0.75505 0.0
H1487 H 0.0094 0.18683 0.71895 0.0
H1488 H 0.02388 0.20416 0.73387 0.0
H1489 H 0.91771 0.24094 0.74593 0.0
H1490 H 0.97713 0.31102 0.78032 0.0
H1491 H 0.96167 0.29506 0.76513 0.0
H1492 H 0.06949 0.25999 0.7519 0.0
C1493 C 0.99737 0.20955 0.72961 0.0
C1494 C 0.95092 0.24509 0.74715 0.0
C1495 C 0.98893 0.19956 0.72112 0.0
C1496 C 0.9983 0.299 0.7777 0.0
C1497 C 0.9893 0.28976 0.76906 0.0
C1498 C 0.03626 0.25582 0.75071 0.0
C1499 C 0.97236 0.2266 0.73246 0.0
C1500 C 0.98328 0.23846 0.741 0.0
C1501 C 0.01525 0.27355 0.76564 0.0
C1502 C 0.00399 0.26228 0.75693 0.0
H1503 H 0.90507 0.22965 0.71393 0.0
H1504 H 0.91886 0.24644 0.72873 0.0
H1505 H 0.05152 0.23947 0.73811 0.0
H1506 H 0.08628 0.27023 0.78349 0.0
H1507 H 0.07107 0.25451 0.76857 0.0
C1508 C 0.04127 0.80095 0.27415 0.0
C1509 C 0.01362 0.79773 0.28176 0.0
C1510 C 0.03368 0.791 0.26563 0.0
C1511 C 0.98018 0.74433 0.25644 0.0
H1512 H 0.00367 0.76927 0.2323 0.0
C1513 C 0.9401 0.70471 0.22115 0.0
C1514 C 0.96965 0.70737 0.21385 0.0
C1515 C 0.94577 0.71515 0.22963 0.0
C1516 C 0.99746 0.76203 0.23901 0.0
H1517 H 0.95456 0.78294 0.28623 0.0
H1518 H 0.94069 0.76601 0.2713 0.0
H1519 H 0.01024 0.79025 0.24643 0.0
H1520 H 0.02968 0.7219 0.20984 0.0
H1521 H 0.04 0.73981 0.22469 0.0
H1522 H 0.96741 0.71611 0.249 0.0
C1523 C 0.96892 0.77571 0.27198 0.0
C1524 C 0.00111 0.77406 0.24709 0.0
C1525 C 0.97658 0.78562 0.28049 0.0
C1526 C 0.00629 0.71961 0.21535 0.0
C1527 C 0.01194 0.73007 0.2238 0.0
C1528 C 0.97645 0.73232 0.24836 0.0
C1529 C 0.99807 0.77778 0.26455 0.0
C1530 C 0.99262 0.76533 0.2559 0.0
C1531 C 0.98119 0.72837 0.23094 0.0
C1532 C 0.98524 0.74101 0.23956 0.0
H1533 H 0.06951 0.81062 0.27487 0.0
H1534 H 0.05672 0.79296 0.26003 0.0
H1535 H 0.97419 0.73703 0.26314 0.0
H1536 H 0.91204 0.695 0.22023 0.0
H1537 H 0.92157 0.71349 0.23501 0.0
C1538 C 0.94252 0.52547 0.02839 0.0
C1539 C 0.96675 0.54237 0.0317 0.0
C1540 C 0.95324 0.5157 0.02002 0.0
C1541 C 0.01373 0.52151 -0.00184 0.0
H1542 H 0.013 0.46115 -0.00151 0.0
C1543 C 0.07517 0.47411 0.96696 0.0
C1544 C 0.04961 0.45727 0.96409 0.0
C1545 C 0.06799 0.48375 0.97554 0.0
C1546 C 0.01303 0.47798 -0.00173 0.0
H1547 H 0.02124 0.56226 0.02882 0.0
H1548 H 0.04013 0.54509 0.0141 0.0
H1549 H 0.99355 0.48036 0.01256 0.0
H1550 H 0.99646 0.43737 0.96794 0.0
H1551 H 0.98348 0.45438 0.98296 0.0
H1552 H 0.03273 0.51916 0.98384 0.0
C1553 C 0.01237 0.53968 0.01795 0.0
C1554 C 0.00186 0.48899 0.00631 0.0
C1555 C 0.00161 0.54948 0.02636 0.0
C1556 C 0.01709 0.45009 0.97006 0.0
C1557 C 0.00978 0.4598 0.97865 0.0
C1558 C 0.02481 0.5105 0.9901 0.0
C1559 C 0.98874 0.52241 0.01481 0.0
C1560 C 0.00177 0.51086 0.00632 0.0
C1561 C 0.03465 0.47701 0.98139 0.0
C1562 C 0.02438 0.48861 0.99006 0.0
H1563 H 0.91644 0.51902 0.03242 0.0
H1564 H 0.93416 0.50257 0.01773 0.0
H1565 H 0.01354 0.53835 -0.00206 0.0
H1566 H 0.09939 0.48063 0.96241 0.0
H1567 H 0.08794 0.49685 0.97748 0.0
C1568 C 0.21593 0.97875 0.09562 0.0
C1569 C 0.24574 0.99449 0.09762 0.0
C1570 C 0.19145 0.96992 0.10278 0.0
C1571 C 0.121 0.96796 0.11718 0.0
H1572 H 0.15587 0.97354 0.14306 0.0
C1573 C 0.0071 0.99882 0.14441 0.0
C1574 C 0.01391 0.99542 0.15398 0.0
C1575 C 0.03438 0.99001 0.13781 0.0
C1576 C 0.1454 0.97128 0.13591 0.0
H1577 H 0.27468 0.0128 0.10867 0.0
H1578 H 0.23075 0.99851 0.121 0.0
H1579 H 0.2099 0.97225 0.13093 0.0
H1580 H 0.0526 0.97892 0.16415 0.0
H1581 H 0.09971 0.96288 0.15257 0.0
H1582 H 0.05657 0.96649 0.12217 0.0
C1583 C 0.22693 0.99222 0.11403 0.0
C1584 C 0.17654 0.97093 0.12891 0.0
C1585 C 0.25189 0.00068 0.10692 0.0
C1586 C 0.04711 0.98207 0.15681 0.0
C1587 C 0.07409 0.97292 0.15017 0.0
C1588 C 0.08995 0.9677 0.1242 0.0
C1589 C 0.19572 0.977 0.11206 0.0
C1590 C 0.16453 0.97082 0.11943 0.0
C1591 C 0.06878 0.97725 0.14059 0.0
C1592 C 0.10157 0.97092 0.13359 0.0
H1593 H 0.21116 0.97343 0.08851 0.0
H1594 H 0.16843 0.95796 0.10101 0.0
H1595 H 0.11024 0.96761 0.10999 0.0
H1596 H 0.98175 0.00904 0.14201 0.0
H1597 H 0.0296 0.99419 0.13055 0.0
C1598 C 0.21066 0.26802 0.15214 0.0
C1599 C 0.24328 0.25393 0.14977 0.0
C1600 C 0.18254 0.27543 0.14529 0.0
C1601 C 0.10886 0.274 0.13163 0.0
H1602 H 0.13939 0.27276 0.10537 0.0
C1603 C 0.99238 0.24487 0.10417 0.0
C1604 C 0.99675 0.25061 0.09476 0.0
C1605 C 0.02054 0.25261 0.11088 0.0
C1606 C 0.13004 0.27373 0.11265 0.0
H1607 H 0.2732 0.23711 0.13837 0.0
H1608 H 0.22333 0.24901 0.12658 0.0
H1609 H 0.19543 0.27474 0.11706 0.0
H1610 H 0.03202 0.27002 0.08504 0.0
H1611 H 0.08049 0.2842 0.09683 0.0
H1612 H 0.04345 0.27348 0.12722 0.0
C1613 C 0.2199 0.25506 0.13361 0.0
C1614 C 0.16238 0.27449 0.11938 0.0
C1615 C 0.24835 0.24799 0.1404 0.0
C1616 C 0.02842 0.26509 0.09224 0.0
C1617 C 0.05621 0.27316 0.099 0.0
C1618 C 0.0765 0.27376 0.12489 0.0
C1619 C 0.18607 0.26857 0.13597 0.0
C1620 C 0.15225 0.27335 0.12895 0.0
C1621 C 0.05331 0.26661 0.10837 0.0
C1622 C 0.08673 0.27234 0.11534 0.0
H1623 H 0.20647 0.2731 0.1593 0.0
H1624 H 0.15745 0.28613 0.14735 0.0
H1625 H 0.09957 0.27322 0.13891 0.0
H1626 H 0.96828 0.2337 0.10631 0.0
H1627 H 0.01769 0.24677 0.11795 0.0
C1628 C 0.95736 0.018 0.838 0.0
C1629 C 0.99052 0.00461 0.84081 0.0
C1630 C 0.92999 0.02686 0.84464 0.0
C1631 C 0.91265 0.0312 0.87059 0.0
H1632 H 0.7931 0.02664 0.86351 0.0
C1633 C 0.74899 0.99887 0.88749 0.0
C1634 C 0.75427 0.00545 0.89676 0.0
C1635 C 0.77478 0.00697 0.88043 0.0
C1636 C 0.82634 0.02796 0.86563 0.0
H1637 H 0.0223 0.99066 0.85275 0.0
H1638 H 0.97379 0.00502 0.86421 0.0
H1639 H 0.84787 0.02552 0.85153 0.0
H1640 H 0.7883 0.02676 0.90586 0.0
H1641 H 0.83253 0.04154 0.89344 0.0
H1642 H 0.89146 0.03121 0.88475 0.0
C1643 C 0.96931 0.00943 0.85697 0.0
C1644 C 0.8579 0.02771 0.85871 0.0
C1645 C 0.99698 0.00092 0.85037 0.0
C1646 C 0.78415 0.02115 0.89878 0.0
C1647 C 0.8095 0.02958 0.89166 0.0
C1648 C 0.88117 0.03088 0.87752 0.0
C1649 C 0.93486 0.02218 0.8542 0.0
C1650 C 0.9016 0.02815 0.86116 0.0
C1651 C 0.80599 0.02216 0.88243 0.0
C1652 C 0.83777 0.02809 0.87514 0.0
H1653 H 0.95212 0.02138 0.83067 0.0
H1654 H 0.90436 0.03691 0.84226 0.0
H1655 H 0.94591 0.03241 0.87271 0.0
H1656 H 0.72617 0.98677 0.88574 0.0
H1657 H 0.77155 0.00044 0.87349 0.0
C1658 C 0.00135 0.75636 0.89005 0.0
C1659 C 0.99719 0.75023 0.89941 0.0
C1660 C 0.97356 0.74859 0.88327 0.0
C1661 C 0.86522 0.72605 0.88124 0.0
H1662 H 0.89625 0.72779 0.85502 0.0
C1663 C 0.78549 0.73187 0.84166 0.0
C1664 C 0.75186 0.74535 0.84408 0.0
C1665 C 0.81375 0.72457 0.84851 0.0
C1666 C 0.88683 0.72665 0.86229 0.0
H1667 H 0.96264 0.73016 0.90898 0.0
H1668 H 0.91489 0.7159 0.89706 0.0
H1669 H 0.95207 0.72807 0.86678 0.0
H1670 H 0.72024 0.76109 0.85557 0.0
H1671 H 0.77029 0.74943 0.86736 0.0
H1672 H 0.80004 0.72408 0.87675 0.0
C1673 C 0.93867 0.72727 0.89499 0.0
C1674 C 0.919 0.72722 0.86906 0.0
C1675 C 0.96606 0.73539 0.90182 0.0
C1676 C 0.74587 0.7507 0.85349 0.0
C1677 C 0.77447 0.74376 0.86029 0.0
C1678 C 0.8331 0.72495 0.87446 0.0
C1679 C 0.9414 0.73416 0.88566 0.0
C1680 C 0.90848 0.7282 0.87862 0.0
C1681 C 0.80937 0.73095 0.85787 0.0
C1682 C 0.84335 0.72652 0.86491 0.0
H1683 H 0.02502 0.76783 0.888 0.0
H1684 H 0.97624 0.7547 0.87625 0.0
H1685 H 0.85564 0.72664 0.88851 0.0
H1686 H 0.79042 0.72724 0.83445 0.0
H1687 H 0.83966 0.71438 0.8464 0.0
C1688 C 0.99476 0.50379 0.6375 0.0
C1689 C 0.99856 0.49718 0.6468 0.0
C1690 C 0.02124 0.49548 0.6306 0.0
C1691 C 0.074 0.47385 0.61616 0.0
H1692 H 0.1923 0.46798 0.62403 0.0
C1693 C 0.20902 0.48059 0.58927 0.0
C1694 C 0.24254 0.49371 0.59214 0.0
C1695 C 0.18037 0.47242 0.59584 0.0
C1696 C 0.15942 0.46958 0.62169 0.0
H1697 H 0.03055 0.47558 0.65611 0.0
H1698 H 0.07586 0.4604 0.644 0.0
H1699 H 0.13635 0.47023 0.6357 0.0
H1700 H 0.2737 0.5078 0.60412 0.0
H1701 H 0.22305 0.49459 0.61544 0.0
H1702 H 0.09754 0.47554 0.6022 0.0
C1703 C 0.05355 0.47257 0.64206 0.0
C1704 C 0.12706 0.47051 0.62841 0.0
C1705 C 0.02756 0.48122 0.649 0.0
C1706 C 0.24813 0.49774 0.6017 0.0
C1707 C 0.2192 0.4899 0.60822 0.0
C1708 C 0.10647 0.47345 0.60945 0.0
C1709 C 0.05161 0.48002 0.63281 0.0
C1710 C 0.08414 0.47376 0.62574 0.0
C1711 C 0.18432 0.47753 0.60537 0.0
C1712 C 0.14978 0.47242 0.61217 0.0
H1713 H 0.97264 0.51609 0.6356 0.0
H1714 H 0.01921 0.50201 0.62364 0.0
H1715 H 0.04114 0.47555 0.61382 0.0
H1716 H 0.2044 0.47696 0.58195 0.0
H1717 H 0.15444 0.46262 0.5934 0.0
C1718 C 0.2104 0.75393 0.64803 0.0
C1719 C 0.25459 0.75065 0.64687 0.0
C1720 C 0.18573 0.76166 0.64068 0.0
C1721 C 0.186 0.7604 0.61529 0.0
H1722 H 0.07996 0.79118 0.61836 0.0
C1723 C 0.05809 0.75805 0.58681 0.0
C1724 C 0.01795 0.75181 0.59029 0.0
C1725 C 0.08952 0.76565 0.59287 0.0
C1726 C 0.10965 0.78271 0.61738 0.0
H1727 H 0.3083 0.75448 0.63737 0.0
H1728 H 0.2652 0.76814 0.62453 0.0
H1729 H 0.13279 0.79085 0.63099 0.0
H1730 H 0.97813 0.75003 0.60271 0.0
H1731 H 0.0331 0.76282 0.61328 0.0
H1732 H 0.16216 0.7513 0.60192 0.0
C1733 C 0.2495 0.76434 0.63107 0.0
C1734 C 0.13983 0.7825 0.6246 0.0
C1735 C 0.27414 0.7565 0.63841 0.0
C1736 C 0.0089 0.75453 0.59983 0.0
C1737 C 0.04029 0.7621 0.60588 0.0
C1738 C 0.15593 0.76063 0.60808 0.0
C1739 C 0.20483 0.76638 0.63202 0.0
C1740 C 0.17749 0.77062 0.62377 0.0
C1741 C 0.08135 0.76714 0.60251 0.0
C1742 C 0.11668 0.77106 0.6092 0.0
H1743 H 0.19446 0.74968 0.65449 0.0
H1744 H 0.15133 0.76279 0.64162 0.0
H1745 H 0.21442 0.75089 0.61444 0.0
H1746 H 0.06582 0.7564 0.57947 0.0
H1747 H 0.12072 0.76966 0.59007 0.0
C1748 C 0.74993 0.50441 0.39353 0.0
C1749 C 0.75966 0.50234 0.40308 0.0
C1750 C 0.78058 0.512 0.38731 0.0
C1751 C 0.89625 0.51198 0.38485 0.0
H1752 H 0.87034 0.54057 0.36164 0.0
C1753 C 0.01406 0.50822 0.35448 0.0
C1754 C 0.99486 0.50158 0.34611 0.0
C1755 C 0.98896 0.51608 0.36174 0.0
C1756 C 0.87813 0.53268 0.36812 0.0
H1757 H 0.8079 0.5081 0.41371 0.0
H1758 H 0.86147 0.52143 0.40281 0.0
H1759 H 0.81793 0.54075 0.37436 0.0
H1760 H 0.93481 0.49926 0.33852 0.0
H1761 H 0.89088 0.5124 0.35126 0.0
H1762 H 0.95518 0.50285 0.3785 0.0
C1763 C 0.83034 0.51688 0.40014 0.0
C1764 C 0.8482 0.53279 0.37538 0.0
C1765 C 0.79967 0.50924 0.40637 0.0
C1766 C 0.95048 0.50413 0.34491 0.0
C1767 C 0.92535 0.51187 0.35219 0.0
C1768 C 0.92609 0.51184 0.3776 0.0
C1769 C 0.82155 0.51773 0.39051 0.0
C1770 C 0.8563 0.52174 0.38368 0.0
C1771 C 0.94417 0.51733 0.36079 0.0
C1772 C 0.91665 0.52148 0.36902 0.0
H1773 H 0.71924 0.49939 0.39079 0.0
H1774 H 0.77293 0.51223 0.37992 0.0
H1775 H 0.90333 0.50309 0.39109 0.0
H1776 H 0.04835 0.50678 0.35554 0.0
H1777 H 0.00445 0.52049 0.36822 0.0
C1778 C 0.7456 0.24818 0.35349 0.0
C1779 C 0.74974 0.24367 0.34394 0.0
C1780 C 0.77423 0.23978 0.35994 0.0
C1781 C 0.88497 0.22039 0.36075 0.0
H1782 H 0.85748 0.21899 0.38716 0.0
C1783 C 0.96796 0.22883 0.39985 0.0
C1784 C 0.99757 0.24431 0.39735 0.0
C1785 C 0.941 0.22008 0.39311 0.0
C1786 C 0.86605 0.21872 0.37983 0.0
H1787 H 0.78479 0.22554 0.3337 0.0
H1788 H 0.83418 0.21025 0.34503 0.0
H1789 H 0.80018 0.2176 0.37576 0.0
H1790 H 0.02368 0.26214 0.38582 0.0
H1791 H 0.97555 0.24789 0.37421 0.0
H1792 H 0.95086 0.22115 0.36481 0.0
C1793 C 0.80969 0.22084 0.34751 0.0
C1794 C 0.83295 0.21829 0.37327 0.0
C1795 C 0.78138 0.22956 0.34102 0.0
C1796 C 0.0011 0.25024 0.38795 0.0
C1797 C 0.9737 0.24182 0.38126 0.0
C1798 C 0.91811 0.22029 0.36731 0.0
C1799 C 0.8073 0.22636 0.35702 0.0
C1800 C 0.8419 0.22055 0.36368 0.0
C1801 C 0.94261 0.22695 0.38377 0.0
C1802 C 0.90894 0.22088 0.37693 0.0
H1803 H 0.72146 0.259 0.35595 0.0
H1804 H 0.77167 0.2448 0.36714 0.0
H1805 H 0.89335 0.22199 0.35344 0.0
H1806 H 0.96516 0.22371 0.40704 0.0
H1807 H 0.91812 0.20837 0.39528 0.0
C1808 C 0.70235 0.99365 0.59464 0.0
C1809 C 0.74692 0.99614 0.59548 0.0
C1810 C 0.67833 0.98626 0.60218 0.0
C1811 C 0.6833 0.98794 0.62751 0.0
H1812 H 0.57474 0.9588 0.62564 0.0
C1813 C 0.56178 0.993 0.65724 0.0
C1814 C 0.5209 0.99918 0.65418 0.0
C1815 C 0.59158 0.98499 0.6509 0.0
C1816 C 0.60512 0.96686 0.62628 0.0
H1817 H 0.80186 0.99105 0.60452 0.0
H1818 H 0.75991 0.97801 0.61765 0.0
H1819 H 0.62479 0.95808 0.61249 0.0
H1820 H 0.47819 0.00053 0.6422 0.0
H1821 H 0.53032 0.98715 0.63115 0.0
H1822 H 0.66293 0.99776 0.64103 0.0
C1823 C 0.74343 0.98218 0.61125 0.0
C1824 C 0.63372 0.96643 0.61877 0.0
C1825 C 0.76741 0.98966 0.60373 0.0
C1826 C 0.50956 0.99608 0.64478 0.0
C1827 C 0.53935 0.98816 0.63844 0.0
C1828 C 0.65475 0.98839 0.635 0.0
C1829 C 0.6985 0.98113 0.61067 0.0
C1830 C 0.67237 0.97765 0.61918 0.0
C1831 C 0.58108 0.98308 0.64138 0.0
C1832 C 0.61463 0.97856 0.63433 0.0
H1833 H 0.6857 0.99838 0.58834 0.0
H1834 H 0.64372 0.98583 0.60153 0.0
H1835 H 0.71255 0.99696 0.62803 0.0
H1836 H 0.57125 0.99493 0.66448 0.0
H1837 H 0.62331 0.98094 0.6534 0.0
C1838 C 0.72454 0.27308 0.65106 0.0
C1839 C 0.75447 0.25762 0.64872 0.0
C1840 C 0.69852 0.28191 0.64416 0.0
C1841 C 0.62507 0.28255 0.63048 0.0
H1842 H 0.65533 0.27885 0.60426 0.0
C1843 C 0.51004 0.24946 0.60398 0.0
C1844 C 0.51408 0.25387 0.59443 0.0
C1845 C 0.5376 0.25862 0.61044 0.0
C1846 C 0.64609 0.28056 0.61152 0.0
H1847 H 0.78237 0.24004 0.63731 0.0
H1848 H 0.73596 0.25442 0.62543 0.0
H1849 H 0.71156 0.28106 0.6159 0.0
H1850 H 0.54804 0.2724 0.58415 0.0
H1851 H 0.59569 0.28892 0.59548 0.0
H1852 H 0.55962 0.28232 0.62609 0.0
C1853 C 0.73308 0.2604 0.63247 0.0
C1854 C 0.67851 0.28148 0.61823 0.0
C1855 C 0.75947 0.25189 0.63933 0.0
C1856 C 0.54477 0.26845 0.59148 0.0
C1857 C 0.57202 0.27791 0.59797 0.0
C1858 C 0.59268 0.28217 0.62376 0.0
C1859 C 0.70147 0.27515 0.63482 0.0
C1860 C 0.66837 0.28095 0.62781 0.0
C1861 C 0.56948 0.2727 0.60751 0.0
C1862 C 0.6028 0.27964 0.61425 0.0
H1863 H 0.72061 0.27807 0.65824 0.0
H1864 H 0.67519 0.29352 0.6462 0.0
H1865 H 0.61576 0.28233 0.63777 0.0
H1866 H 0.48664 0.23829 0.60647 0.0
H1867 H 0.53511 0.25378 0.61767 0.0
C1868 C 0.46052 0.02064 0.34237 0.0
C1869 C 0.49357 0.00673 0.34468 0.0
C1870 C 0.43325 0.02834 0.34932 0.0
C1871 C 0.4157 0.02805 0.37534 0.0
H1872 H 0.29617 0.02559 0.36803 0.0
C1873 C 0.24902 0.99593 0.3912 0.0
C1874 C 0.25372 0.00166 0.4006 0.0
C1875 C 0.27615 0.00415 0.3844 0.0
C1876 C 0.3294 0.02629 0.37021 0.0
H1877 H 0.52533 0.99068 0.35608 0.0
H1878 H 0.47694 0.00304 0.36804 0.0
H1879 H 0.35115 0.02593 0.3561 0.0
H1880 H 0.28854 0.02147 0.41022 0.0
H1881 H 0.33521 0.03646 0.39828 0.0
H1882 H 0.39411 0.02608 0.38945 0.0
C1883 C 0.47248 0.00872 0.36098 0.0
C1884 C 0.3611 0.02688 0.36334 0.0
C1885 C 0.50009 0.00138 0.35408 0.0
C1886 C 0.2847 0.01655 0.40303 0.0
C1887 C 0.31146 0.02509 0.39618 0.0
C1888 C 0.38404 0.02692 0.38222 0.0
C1889 C 0.43806 0.02194 0.35868 0.0
C1890 C 0.40476 0.02669 0.36582 0.0
C1891 C 0.30819 0.01862 0.38681 0.0
C1892 C 0.34059 0.02495 0.37972 0.0
H1893 H 0.45524 0.02529 0.33518 0.0
H1894 H 0.4077 0.03883 0.3473 0.0
H1895 H 0.44894 0.02869 0.37753 0.0
H1896 H 0.22544 0.98445 0.38912 0.0
H1897 H 0.27309 0.99834 0.37733 0.0
C1898 C 0.25679 0.74444 0.34997 0.0
C1899 C 0.26843 0.74724 0.34057 0.0
C1900 C 0.28652 0.73694 0.35642 0.0
C1901 C 0.4017 0.73836 0.36004 0.0
H1902 H 0.37223 0.70894 0.38283 0.0
C1903 C 0.51351 0.74193 0.39147 0.0
C1904 C 0.49265 0.74838 0.39969 0.0
C1905 C 0.48993 0.73412 0.38397 0.0
C1906 C 0.38102 0.71706 0.37648 0.0
H1907 H 0.3192 0.74279 0.33039 0.0
H1908 H 0.37117 0.72954 0.34168 0.0
H1909 H 0.32259 0.70851 0.3696 0.0
H1910 H 0.43119 0.75035 0.40674 0.0
H1911 H 0.3899 0.73724 0.39356 0.0
H1912 H 0.45889 0.74785 0.36701 0.0
C1913 C 0.33925 0.73351 0.34408 0.0
C1914 C 0.35266 0.71681 0.36891 0.0
C1915 C 0.30949 0.74108 0.33762 0.0
C1916 C 0.44812 0.74564 0.40047 0.0
C1917 C 0.4245 0.73793 0.39294 0.0
C1918 C 0.43 0.73858 0.36758 0.0
C1919 C 0.32849 0.732 0.3536 0.0
C1920 C 0.36198 0.72816 0.36075 0.0
C1921 C 0.44503 0.73271 0.3845 0.0
C1922 C 0.41922 0.72862 0.376 0.0
H1923 H 0.22525 0.74887 0.35245 0.0
H1924 H 0.27727 0.73621 0.36371 0.0
H1925 H 0.40969 0.74748 0.35392 0.0
H1926 H 0.54794 0.74351 0.39072 0.0
H1927 H 0.5067 0.72991 0.37761 0.0
C1928 C 0.70936 0.48227 0.09361 0.0
C1929 C 0.7409 0.49683 0.09611 0.0
C1930 C 0.68213 0.47391 0.10041 0.0
C1931 C 0.60872 0.47358 0.11414 0.0
H1932 H 0.63972 0.47473 0.14036 0.0
C1933 C 0.49404 0.50379 0.14151 0.0
C1934 C 0.49862 0.49846 0.15096 0.0
C1935 C 0.52148 0.49541 0.13482 0.0
C1936 C 0.63025 0.47375 0.1331 0.0
H1937 H 0.76994 0.51347 0.10767 0.0
H1938 H 0.72149 0.49993 0.11937 0.0
H1939 H 0.69558 0.47321 0.12863 0.0
H1940 H 0.53335 0.47908 0.16078 0.0
H1941 H 0.58065 0.46385 0.14903 0.0
H1942 H 0.54338 0.47373 0.1186 0.0
C1943 C 0.71829 0.49424 0.11228 0.0
C1944 C 0.66247 0.47325 0.12634 0.0
C1945 C 0.74587 0.50227 0.10554 0.0
C1946 C 0.52964 0.48371 0.15355 0.0
C1947 C 0.55673 0.47502 0.14681 0.0
C1948 C 0.57649 0.47354 0.1209 0.0
C1949 C 0.68547 0.48026 0.1098 0.0
C1950 C 0.65212 0.47459 0.11678 0.0
C1951 C 0.55374 0.4812 0.13739 0.0
C1952 C 0.58689 0.47506 0.13044 0.0
H1953 H 0.70535 0.47754 0.08639 0.0
H1954 H 0.6578 0.46289 0.09825 0.0
H1955 H 0.59926 0.47445 0.10686 0.0
H1956 H 0.47039 0.51512 0.1393 0.0
H1957 H 0.51859 0.50098 0.1277 0.0
C1958 C 0.69251 0.75366 0.15 0.0
C1959 C 0.737 0.75099 0.14909 0.0
C1960 C 0.66854 0.76188 0.14263 0.0
C1961 C 0.67248 0.76335 0.11726 0.0
H1962 H 0.56546 0.79339 0.12016 0.0
C1963 C 0.54975 0.76304 0.08778 0.0
C1964 C 0.50915 0.75637 0.09082 0.0
C1965 C 0.57986 0.77038 0.09422 0.0
C1966 C 0.59543 0.78512 0.11923 0.0
H1967 H 0.79184 0.75635 0.14005 0.0
H1968 H 0.74997 0.77083 0.12721 0.0
H1969 H 0.6161 0.7918 0.13319 0.0
H1970 H 0.46702 0.75371 0.10284 0.0
H1971 H 0.51969 0.76598 0.11406 0.0
H1972 H 0.65109 0.75563 0.10353 0.0
C1973 C 0.73351 0.7662 0.13355 0.0
C1974 C 0.62435 0.7842 0.12668 0.0
C1975 C 0.75745 0.75789 0.14089 0.0
C1976 C 0.4982 0.75853 0.10029 0.0
C1977 C 0.52829 0.76581 0.10672 0.0
C1978 C 0.64364 0.76426 0.10983 0.0
C1979 C 0.68866 0.76768 0.13423 0.0
C1980 C 0.66238 0.77259 0.12588 0.0
C1981 C 0.56992 0.77114 0.1038 0.0
C1982 C 0.60404 0.77444 0.11086 0.0
H1983 H 0.67588 0.74861 0.15625 0.0
H1984 H 0.63398 0.76258 0.14335 0.0
H1985 H 0.70124 0.75407 0.11643 0.0
H1986 H 0.55892 0.76184 0.0805 0.0
H1987 H 0.61149 0.77467 0.09175 0.0
C1988 C 0.24334 0.4981 0.88711 0.0
C1989 C 0.24467 0.50441 0.89648 0.0
C1990 C 0.27124 0.50685 0.8806 0.0
C1991 C 0.37726 0.5317 0.88002 0.0
H1992 H 0.35549 0.52745 0.85342 0.0
C1993 C 0.46993 0.52131 0.84211 0.0
C1994 C 0.5014 0.50745 0.84535 0.0
C1995 C 0.44015 0.52987 0.84831 0.0
C1996 C 0.36228 0.52933 0.86079 0.0
H1997 H 0.27343 0.52601 0.90629 0.0
H1998 H 0.32131 0.54186 0.89483 0.0
H1999 H 0.29571 0.52758 0.86423 0.0
H2000 H 0.52799 0.4925 0.85764 0.0
H2001 H 0.47527 0.50647 0.86833 0.0
H2002 H 0.44379 0.53368 0.87658 0.0
C2003 C 0.29983 0.52963 0.89256 0.0
C2004 C 0.32786 0.52904 0.86702 0.0
C2005 C 0.2724 0.52058 0.89912 0.0
C2006 C 0.504 0.50312 0.85493 0.0
C2007 C 0.47392 0.51138 0.8611 0.0
C2008 C 0.4116 0.53248 0.87378 0.0
C2009 C 0.3006 0.5224 0.88328 0.0
C2010 C 0.33515 0.52882 0.87672 0.0
C2011 C 0.44091 0.52445 0.85783 0.0
C2012 C 0.40471 0.5299 0.86414 0.0
H2013 H 0.22219 0.48568 0.88489 0.0
H2014 H 0.27125 0.50052 0.87358 0.0
H2015 H 0.38435 0.53172 0.88743 0.0
H2016 H 0.4677 0.5252 0.83475 0.0
H2017 H 0.41574 0.5402 0.84558 0.0
C2018 C 0.30719 0.23815 0.84026 0.0
C2019 C 0.26818 0.24516 0.84404 0.0
C2020 C 0.33922 0.2303 0.84609 0.0
C2021 C 0.36346 0.21412 0.87052 0.0
H2022 H 0.46832 0.24518 0.86637 0.0
C2023 C 0.46903 0.2443 0.90001 0.0
C2024 C 0.51285 0.24791 0.89844 0.0
C2025 C 0.44346 0.23593 0.89295 0.0
C2026 C 0.43991 0.23585 0.86755 0.0
H2027 H 0.23085 0.24802 0.85677 0.0
H2028 H 0.287 0.23478 0.86696 0.0
H2029 H 0.4139 0.24446 0.85432 0.0
H2030 H 0.56514 0.24391 0.88859 0.0
H2031 H 0.5205 0.22903 0.87629 0.0
H2032 H 0.38886 0.20646 0.884 0.0
C2033 C 0.29277 0.2351 0.85949 0.0
C2034 C 0.40858 0.23545 0.86061 0.0
C2035 C 0.26074 0.24293 0.85367 0.0
C2036 C 0.53124 0.24166 0.88993 0.0
C2037 C 0.50572 0.23312 0.88289 0.0
C2038 C 0.39495 0.21446 0.87747 0.0
C2039 C 0.33283 0.22933 0.8558 0.0
C2040 C 0.36928 0.22536 0.86219 0.0
C2041 C 0.46128 0.23084 0.88421 0.0
C2042 C 0.43268 0.22612 0.87621 0.0
H2043 H 0.31363 0.23939 0.83283 0.0
H2044 H 0.36961 0.22573 0.84304 0.0
H2045 H 0.33372 0.20592 0.87185 0.0
H2046 H 0.454 0.24884 0.90652 0.0
H2047 H 0.40928 0.23464 0.89418 0.0
C2048 C 0.9602 0.15618 0.05937 0.0
C2049 C 0.9674 0.17641 0.06275 0.0
C2050 C 0.99472 0.14264 0.05791 0.0
C2051 C 0.10854 0.13758 0.05352 0.0
H2052 H 0.10836 0.09239 0.07145 0.0
C2053 C 0.26208 0.0905 0.06181 0.0
C2054 C 0.25817 0.07024 0.06535 0.0
C2055 C 0.22549 0.10251 0.06005 0.0
C2056 C 0.1088 0.10449 0.06619 0.0
H2057 H 0.01625 0.1988 0.06662 0.0
H2058 H 0.07664 0.17533 0.06369 0.0
H2059 H 0.0462 0.11498 0.07022 0.0
H2060 H 0.21319 0.0461 0.06925 0.0
H2061 H 0.14949 0.06635 0.0656 0.0
H2062 H 0.17054 0.12699 0.04927 0.0
C2063 C 0.04432 0.16992 0.06233 0.0
C2064 C 0.07309 0.11753 0.06556 0.0
C2065 C 0.00981 0.18328 0.06403 0.0
C2066 C 0.21708 0.06181 0.06664 0.0
C2067 C 0.18053 0.07357 0.06463 0.0
C2068 C 0.14394 0.1242 0.05397 0.0
C2069 C 0.03696 0.14932 0.05953 0.0
C2070 C 0.07294 0.13436 0.05934 0.0
C2071 C 0.18407 0.09433 0.06156 0.0
C2072 C 0.14498 0.10765 0.06045 0.0
H2073 H 0.92783 0.15044 0.05839 0.0
H2074 H 0.98841 0.12677 0.05577 0.0
H2075 H 0.10901 0.15051 0.04866 0.0
H2076 H 0.29344 0.09741 0.0608 0.0
H2077 H 0.22997 0.11846 0.05784 0.0
C2078 C 0.02391 0.06806 0.18284 0.0
C2079 C 0.98127 0.07479 0.1839 0.0
C2080 C 0.05807 0.0815 0.18472 0.0
C2081 C 0.08543 0.13506 0.18255 0.0
H2082 H 0.18548 0.12253 0.19764 0.0
C2083 C 0.2295 0.19048 0.18211 0.0
C2084 C 0.27062 0.18165 0.18244 0.0
C2085 C 0.19333 0.17859 0.18428 0.0
C2086 C 0.15809 0.12621 0.1933 0.0
H2087 H 0.94096 0.10064 0.18807 0.0
H2088 H 0.00093 0.12444 0.19106 0.0
H2089 H 0.12393 0.09898 0.19783 0.0
H2090 H 0.30651 0.15368 0.18553 0.0
H2091 H 0.24345 0.13248 0.18878 0.0
H2092 H 0.11983 0.16127 0.17742 0.0
C2093 C 0.00769 0.10862 0.1889 0.0
C2094 C 0.1227 0.11279 0.19349 0.0
C2095 C 0.97348 0.09501 0.18722 0.0
C2096 C 0.27511 0.16089 0.18529 0.0
C2097 C 0.23879 0.14878 0.1872 0.0
C2098 C 0.12105 0.1482 0.18218 0.0
C2099 C 0.05023 0.10206 0.18752 0.0
C2100 C 0.08619 0.11706 0.18808 0.0
C2101 C 0.19721 0.15733 0.18652 0.0
C2102 C 0.15816 0.14394 0.18749 0.0
H2103 H 0.03087 0.05253 0.18032 0.0
H2104 H 0.09057 0.07613 0.18355 0.0
H2105 H 0.0579 0.1385 0.17819 0.0
H2106 H 0.22524 0.20656 0.18003 0.0
H2107 H 0.16224 0.18606 0.18398 0.0
C2108 C 0.78052 0.94034 0.92861 0.0
C2109 C 0.73932 0.932 0.92983 0.0
C2110 C 0.8169 0.92847 0.93065 0.0
C2111 C 0.85271 0.8774 0.94104 0.0
H2112 H 0.95025 0.88657 0.92472 0.0
C2113 C 0.9849 0.81782 0.93039 0.0
C2114 C 0.02754 0.82434 0.93169 0.0
C2115 C 0.95083 0.83135 0.93221 0.0
C2116 C 0.92342 0.88403 0.9294 0.0
H2117 H 0.70362 0.90489 0.93429 0.0
H2118 H 0.76677 0.88365 0.93729 0.0
H2119 H 0.88866 0.90957 0.92373 0.0
H2120 H 0.06793 0.84988 0.9362 0.0
H2121 H 0.0081 0.87388 0.93902 0.0
H2122 H 0.8871 0.85071 0.94612 0.0
C2123 C 0.7715 0.89961 0.93513 0.0
C2124 C 0.88804 0.8973 0.9289 0.0
C2125 C 0.73509 0.91174 0.93335 0.0
C2126 C 0.03539 0.8444 0.93519 0.0
C2127 C 0.00129 0.85813 0.93678 0.0
C2128 C 0.88778 0.8638 0.94135 0.0
C2129 C 0.81304 0.90767 0.93365 0.0
C2130 C 0.85192 0.89416 0.93467 0.0
C2131 C 0.95883 0.8518 0.93515 0.0
C2132 C 0.92329 0.86699 0.93551 0.0
H2133 H 0.78464 0.95604 0.92601 0.0
H2134 H 0.84804 0.93561 0.92971 0.0
H2135 H 0.82616 0.87462 0.94575 0.0
H2136 H 0.97795 0.80242 0.9277 0.0
H2137 H 0.91832 0.82621 0.93084 0.0
C2138 C 0.72167 0.84094 0.80983 0.0
C2139 C 0.72585 0.82004 0.81249 0.0
C2140 C 0.75817 0.85301 0.80803 0.0
C2141 C 0.87603 0.85296 0.81292 0.0
H2142 H 0.87381 0.9025 0.79748 0.0
C2143 C 0.02492 0.90512 0.80754 0.0
C2144 C 0.01814 0.92534 0.81097 0.0
C2145 C 0.99011 0.89181 0.80597 0.0
C2146 C 0.87484 0.88861 0.80176 0.0
H2147 H 0.77088 0.79489 0.81469 0.0
H2148 H 0.83417 0.81534 0.81093 0.0
H2149 H 0.81167 0.87932 0.79768 0.0
H2150 H 0.96967 0.94792 0.81487 0.0
H2151 H 0.90887 0.92484 0.81183 0.0
H2152 H 0.93961 0.86219 0.81682 0.0
C2153 C 0.80319 0.82292 0.8107 0.0
C2154 C 0.83912 0.87539 0.80197 0.0
C2155 C 0.76686 0.81107 0.81276 0.0
C2156 C 0.97585 0.93238 0.81227 0.0
C2157 C 0.94107 0.91925 0.81049 0.0
C2158 C 0.91197 0.86589 0.81254 0.0
C2159 C 0.79961 0.84427 0.80862 0.0
C2160 C 0.83886 0.85753 0.80769 0.0
C2161 C 0.94795 0.89868 0.80757 0.0
C2162 C 0.91146 0.88399 0.80708 0.0
H2163 H 0.69037 0.84826 0.80964 0.0
H2164 H 0.75375 0.86938 0.80658 0.0
H2165 H 0.8771 0.83977 0.81762 0.0
H2166 H 0.05716 0.89926 0.80652 0.0
H2167 H 0.99612 0.876 0.80372 0.0
C2168 C 0.96686 0.65554 0.55813 0.0
C2169 C 0.97481 0.67577 0.5614 0.0
C2170 C 0.00105 0.64201 0.55628 0.0
C2171 C 0.11592 0.63836 0.55124 0.0
H2172 H 0.11527 0.58985 0.56731 0.0
C2173 C 0.27024 0.59155 0.55915 0.0
C2174 C 0.26664 0.57068 0.5619 0.0
C2175 C 0.23341 0.60339 0.55738 0.0
C2176 C 0.11586 0.60294 0.56255 0.0
H2177 H 0.02452 0.69818 0.56472 0.0
H2178 H 0.0841 0.67477 0.56119 0.0
H2179 H 0.0526 0.61218 0.56667 0.0
H2180 H 0.22223 0.54534 0.56428 0.0
H2181 H 0.15834 0.56541 0.5606 0.0
H2182 H 0.17885 0.62911 0.54698 0.0
C2183 C 0.05155 0.6693 0.56018 0.0
C2184 C 0.0798 0.61581 0.56225 0.0
C2185 C 0.01747 0.68263 0.56224 0.0
C2186 C 0.22583 0.56151 0.56229 0.0
C2187 C 0.18915 0.57314 0.56027 0.0
C2188 C 0.15174 0.62521 0.55137 0.0
C2189 C 0.04366 0.6487 0.55744 0.0
C2190 C 0.0798 0.63383 0.55673 0.0
C2191 C 0.19219 0.59446 0.55809 0.0
C2192 C 0.15262 0.6075 0.55718 0.0
H2193 H 0.9343 0.64983 0.55747 0.0
H2194 H 0.99425 0.62617 0.55418 0.0
H2195 H 0.11657 0.65218 0.54691 0.0
H2196 H 0.30138 0.59901 0.55885 0.0
H2197 H 0.2374 0.61975 0.55585 0.0
C2198 C 0.23587 0.68249 0.67531 0.0
C2199 C 0.27601 0.67861 0.67946 0.0
C2200 C 0.20073 0.66976 0.67725 0.0
C2201 C 0.17493 0.6165 0.68412 0.0
H2202 H 0.05901 0.63826 0.68538 0.0
C2203 C 0.9866 0.58626 0.6861 0.0
C2204 C 0.98788 0.57132 0.67892 0.0
C2205 C 0.02259 0.59857 0.68803 0.0
C2206 C 0.09116 0.63189 0.68518 0.0
H2207 H 0.31019 0.65869 0.68917 0.0
H2208 H 0.2485 0.6363 0.69252 0.0
H2209 H 0.11976 0.66214 0.68575 0.0
H2210 H 0.02865 0.55709 0.6684 0.0
H2211 H 0.09098 0.57854 0.67175 0.0
H2212 H 0.14627 0.58627 0.68337 0.0
C2213 C 0.24451 0.64919 0.68773 0.0
C2214 C 0.12598 0.6456 0.68531 0.0
C2215 C 0.27975 0.66208 0.68585 0.0
C2216 C 0.02641 0.56848 0.67396 0.0
C2217 C 0.06235 0.58069 0.67593 0.0
C2218 C 0.14009 0.60279 0.68396 0.0
C2219 C 0.20475 0.65274 0.68334 0.0
C2220 C 0.16822 0.6381 0.68455 0.0
C2221 C 0.0607 0.59611 0.68288 0.0
C2222 C 0.09777 0.61036 0.68427 0.0
H2223 H 0.23172 0.69512 0.67038 0.0
H2224 H 0.17077 0.6728 0.67366 0.0
H2225 H 0.20703 0.61022 0.68346 0.0
H2226 H 0.9575 0.58882 0.69007 0.0
H2227 H 0.02043 0.61018 0.6935 0.0
C2228 C 0.96953 0.31156 0.42704 0.0
C2229 C 0.01042 0.31992 0.42868 0.0
C2230 C 0.93268 0.32304 0.42911 0.0
C2231 C 0.89472 0.37236 0.44069 0.0
H2232 H 0.79843 0.36483 0.42385 0.0
C2233 C 0.76244 0.43276 0.43146 0.0
C2234 C 0.71975 0.42593 0.43223 0.0
C2235 C 0.79644 0.41904 0.43303 0.0
C2236 C 0.82488 0.36689 0.42868 0.0
H2237 H 0.04498 0.34671 0.4339 0.0
H2238 H 0.98104 0.36732 0.43698 0.0
H2239 H 0.86081 0.34243 0.42241 0.0
H2240 H 0.67907 0.3996 0.43552 0.0
H2241 H 0.73886 0.3753 0.43791 0.0
H2242 H 0.85922 0.39804 0.44641 0.0
C2243 C 0.97693 0.35159 0.43444 0.0
C2244 C 0.86072 0.35396 0.42792 0.0
C2245 C 0.01379 0.33984 0.43261 0.0
C2246 C 0.71167 0.4053 0.43495 0.0
C2247 C 0.74574 0.39141 0.43628 0.0
C2248 C 0.85921 0.38564 0.44128 0.0
C2249 C 0.93574 0.34347 0.43261 0.0
C2250 C 0.89642 0.35656 0.43386 0.0
C2251 C 0.78834 0.39812 0.43518 0.0
C2252 C 0.82414 0.38304 0.43525 0.0
H2253 H 0.96602 0.29609 0.42413 0.0
H2254 H 0.9018 0.31586 0.42786 0.0
H2255 H 0.92091 0.37467 0.44555 0.0
H2256 H 0.76954 0.4486 0.42937 0.0
H2257 H 0.82903 0.4245 0.43208 0.0
C2258 C 0.77075 0.31674 0.31825 0.0
C2259 C 0.73136 0.32038 0.31374 0.0
C2260 C 0.80653 0.32905 0.3163 0.0
C2261 C 0.88327 0.35217 0.3085 0.0
H2262 H 0.86293 0.41164 0.30826 0.0
C2263 C 0.02297 0.41168 0.30782 0.0
C2264 C 0.01923 0.42769 0.31447 0.0
C2265 C 0.98779 0.39889 0.30576 0.0
C2266 C 0.86916 0.39507 0.30828 0.0
H2267 H 0.69931 0.33934 0.30331 0.0
H2268 H 0.76205 0.36089 0.29988 0.0
H2269 H 0.80219 0.38777 0.30825 0.0
H2270 H 0.975 0.44328 0.32388 0.0
H2271 H 0.91426 0.42108 0.32033 0.0
H2272 H 0.95025 0.35951 0.309 0.0
C2273 C 0.76497 0.34859 0.30502 0.0
C2274 C 0.83432 0.38137 0.30817 0.0
C2275 C 0.72909 0.33617 0.30695 0.0
C2276 C 0.97919 0.43107 0.31874 0.0
C2277 C 0.94413 0.41841 0.31665 0.0
C2278 C 0.91813 0.36588 0.30859 0.0
C2279 C 0.80394 0.34537 0.30978 0.0
C2280 C 0.84093 0.35976 0.30853 0.0
C2281 C 0.94807 0.40198 0.31023 0.0
C2282 C 0.91145 0.38749 0.30875 0.0
H2283 H 0.7738 0.30467 0.3235 0.0
H2284 H 0.83579 0.32628 0.32019 0.0
H2285 H 0.88949 0.3356 0.30864 0.0
H2286 H 0.05331 0.40868 0.30438 0.0
H2287 H 0.99176 0.38646 0.30072 0.0
C2288 C 0.47626 0.15828 0.55914 0.0
C2289 C 0.48387 0.17801 0.56303 0.0
C2290 C 0.51053 0.14485 0.55726 0.0
C2291 C 0.62569 0.14085 0.55307 0.0
H2292 H 0.62133 0.09092 0.56821 0.0
C2293 C 0.77715 0.09178 0.56085 0.0
C2294 C 0.77236 0.07077 0.56327 0.0
C2295 C 0.74103 0.10413 0.55909 0.0
C2296 C 0.62298 0.10442 0.56371 0.0
H2297 H 0.53323 0.19968 0.56741 0.0
H2298 H 0.59309 0.17642 0.56383 0.0
H2299 H 0.55961 0.11386 0.56765 0.0
H2300 H 0.72671 0.04572 0.56505 0.0
H2301 H 0.66407 0.0667 0.56134 0.0
H2302 H 0.68869 0.13138 0.54896 0.0
C2303 C 0.56066 0.17129 0.56237 0.0
C2304 C 0.58748 0.11764 0.56345 0.0
C2305 C 0.52643 0.18453 0.56445 0.0
C2306 C 0.73117 0.06199 0.56332 0.0
C2307 C 0.69522 0.07413 0.56129 0.0
C2308 C 0.66096 0.12735 0.55314 0.0
C2309 C 0.55295 0.15114 0.55901 0.0
C2310 C 0.58879 0.13614 0.55828 0.0
C2311 C 0.69938 0.09558 0.55947 0.0
C2312 C 0.66049 0.1091 0.55861 0.0
H2313 H 0.44379 0.15282 0.55801 0.0
H2314 H 0.50388 0.12935 0.55467 0.0
H2315 H 0.62733 0.15505 0.54901 0.0
H2316 H 0.80861 0.09895 0.56083 0.0
H2317 H 0.74589 0.12056 0.55784 0.0
C2318 C 0.46146 0.0978 0.68509 0.0
C2319 C 0.47112 0.0769 0.68316 0.0
C2320 C 0.49455 0.11212 0.68667 0.0
C2321 C 0.60696 0.11873 0.69326 0.0
H2322 H 0.61209 0.1608 0.67389 0.0
C2323 C 0.76371 0.16284 0.68485 0.0
C2324 C 0.76151 0.18252 0.68064 0.0
C2325 C 0.72623 0.15158 0.6867 0.0
C2326 C 0.61095 0.1496 0.67954 0.0
H2327 H 0.52237 0.05426 0.682 0.0
H2328 H 0.57993 0.07914 0.68512 0.0
H2329 H 0.54942 0.13852 0.67508 0.0
H2330 H 0.71846 0.20648 0.67562 0.0
H2331 H 0.65312 0.18754 0.67934 0.0
H2332 H 0.66805 0.12984 0.69786 0.0
C2333 C 0.54697 0.08449 0.68527 0.0
C2334 C 0.57493 0.13675 0.68016 0.0
C2335 C 0.51408 0.0703 0.68346 0.0
C2336 C 0.7211 0.19119 0.67875 0.0
C2337 C 0.68361 0.18019 0.68082 0.0
C2338 C 0.64265 0.13191 0.69279 0.0
C2339 C 0.5376 0.10562 0.68661 0.0
C2340 C 0.57301 0.12094 0.6869 0.0
C2341 C 0.68555 0.15996 0.68458 0.0
C2342 C 0.64567 0.14725 0.68577 0.0
H2343 H 0.42863 0.10329 0.68483 0.0
H2344 H 0.48664 0.12837 0.68768 0.0
H2345 H 0.60609 0.10663 0.69853 0.0
H2346 H 0.79449 0.15574 0.68634 0.0
H2347 H 0.72946 0.13598 0.68945 0.0
C2348 C 0.52214 0.84263 0.43511 0.0
C2349 C 0.5174 0.82164 0.43264 0.0
C2350 C 0.486 0.85492 0.43692 0.0
C2351 C 0.36784 0.8551 0.43236 0.0
H2352 H 0.37212 0.9057 0.44707 0.0
C2353 C 0.22056 0.90831 0.43735 0.0
C2354 C 0.22735 0.92792 0.43327 0.0
C2355 C 0.25528 0.89513 0.43919 0.0
C2356 C 0.37052 0.89151 0.44301 0.0
H2357 H 0.47185 0.79658 0.43081 0.0
H2358 H 0.40917 0.81744 0.43462 0.0
H2359 H 0.43369 0.88215 0.44705 0.0
H2360 H 0.27581 0.94968 0.42851 0.0
H2361 H 0.33653 0.92686 0.43204 0.0
H2362 H 0.30426 0.86441 0.42851 0.0
C2363 C 0.44028 0.82491 0.43467 0.0
C2364 C 0.40591 0.87807 0.4429 0.0
C2365 C 0.47626 0.81282 0.43259 0.0
C2366 C 0.26963 0.93462 0.43163 0.0
C2367 C 0.30435 0.92164 0.43368 0.0
C2368 C 0.33224 0.86825 0.43267 0.0
C2369 C 0.44437 0.84634 0.43654 0.0
C2370 C 0.40543 0.85983 0.43742 0.0
C2371 C 0.29738 0.90156 0.43722 0.0
C2372 C 0.33351 0.88672 0.43786 0.0
H2373 H 0.55358 0.84982 0.43513 0.0
H2374 H 0.49082 0.87134 0.4382 0.0
H2375 H 0.36617 0.84161 0.42786 0.0
H2376 H 0.18832 0.9027 0.43865 0.0
H2377 H 0.24922 0.87968 0.44191 0.0
C2378 C 0.51888 0.91148 0.30957 0.0
C2379 C 0.51489 0.93207 0.3127 0.0
C2380 C 0.48229 0.89953 0.30773 0.0
C2381 C 0.3652 0.89861 0.31335 0.0
H2382 H 0.36641 0.85066 0.29692 0.0
C2383 C 0.21767 0.84527 0.3084 0.0
C2384 C 0.22629 0.82492 0.31145 0.0
C2385 C 0.25139 0.85915 0.30668 0.0
C2386 C 0.36563 0.86412 0.30147 0.0
H2387 H 0.46994 0.95683 0.31571 0.0
H2388 H 0.40635 0.93662 0.31192 0.0
H2389 H 0.42783 0.87427 0.29713 0.0
H2390 H 0.27674 0.80271 0.3145 0.0
H2391 H 0.33554 0.82677 0.31118 0.0
H2392 H 0.30259 0.88849 0.31754 0.0
C2393 C 0.43736 0.92916 0.31133 0.0
C2394 C 0.40096 0.87757 0.30168 0.0
C2395 C 0.47386 0.94088 0.31342 0.0
C2396 C 0.26917 0.81833 0.31219 0.0
C2397 C 0.30279 0.83204 0.31025 0.0
C2398 C 0.32959 0.88545 0.31297 0.0
C2399 C 0.44087 0.90808 0.30876 0.0
C2400 C 0.40168 0.8948 0.30778 0.0
C2401 C 0.2942 0.85271 0.30774 0.0
C2402 C 0.3298 0.86789 0.30717 0.0
H2403 H 0.5502 0.90427 0.30902 0.0
H2404 H 0.48667 0.88335 0.3059 0.0
H2405 H 0.36452 0.9113 0.31831 0.0
H2406 H 0.18493 0.85078 0.30783 0.0
H2407 H 0.24406 0.87505 0.30476 0.0
C2408 C 0.77223 0.59116 0.05981 0.0
C2409 C 0.76573 0.57194 0.06427 0.0
C2410 C 0.7374 0.60421 0.05787 0.0
C2411 C 0.62206 0.60701 0.05417 0.0
H2412 H 0.62644 0.65929 0.06759 0.0
C2413 C 0.47052 0.65718 0.06043 0.0
C2414 C 0.4754 0.67852 0.06214 0.0
C2415 C 0.5066 0.64457 0.05903 0.0
C2416 C 0.62477 0.64508 0.06356 0.0
H2417 H 0.71762 0.55078 0.06971 0.0
H2418 H 0.65671 0.57336 0.06604 0.0
H2419 H 0.68843 0.63646 0.06767 0.0
H2420 H 0.5211 0.70378 0.06303 0.0
H2421 H 0.58361 0.68226 0.05993 0.0
H2422 H 0.55883 0.61565 0.04985 0.0
C2423 C 0.68876 0.57839 0.06417 0.0
C2424 C 0.6604 0.63193 0.06368 0.0
C2425 C 0.7236 0.56555 0.0663 0.0
C2426 C 0.51658 0.68728 0.06183 0.0
C2427 C 0.55247 0.67484 0.06016 0.0
C2428 C 0.58664 0.62041 0.05384 0.0
C2429 C 0.69545 0.59802 0.06014 0.0
C2430 C 0.65913 0.61266 0.05912 0.0
C2431 C 0.54827 0.65315 0.05909 0.0
C2432 C 0.58716 0.63952 0.05868 0.0
H2433 H 0.80434 0.59651 0.05819 0.0
H2434 H 0.74325 0.61932 0.05477 0.0
H2435 H 0.62047 0.5922 0.05057 0.0
H2436 H 0.43906 0.65004 0.06072 0.0
H2437 H 0.50171 0.62798 0.05835 0.0
C2438 C 0.46703 0.59282 0.18711 0.0
C2439 C 0.4734 0.57316 0.18305 0.0
C2440 C 0.50202 0.60588 0.18888 0.0
C2441 C 0.61751 0.60904 0.19254 0.0
H2442 H 0.61323 0.65917 0.17753 0.0
C2443 C 0.76927 0.65803 0.1847 0.0
C2444 C 0.76443 0.67906 0.18231 0.0
C2445 C 0.73316 0.64568 0.18649 0.0
C2446 C 0.61489 0.64561 0.182 0.0
H2447 H 0.52139 0.5512 0.17826 0.0
H2448 H 0.58257 0.57381 0.18166 0.0
H2449 H 0.55113 0.6365 0.1782 0.0
H2450 H 0.7188 0.70413 0.18061 0.0
H2451 H 0.65624 0.68318 0.18439 0.0
H2452 H 0.68088 0.6182 0.19653 0.0
C2453 C 0.55052 0.57917 0.18334 0.0
C2454 C 0.57917 0.63253 0.18231 0.0
C2455 C 0.51553 0.5663 0.18136 0.0
C2456 C 0.72327 0.68786 0.18233 0.0
C2457 C 0.68735 0.67572 0.18439 0.0
C2458 C 0.65302 0.6224 0.19242 0.0
C2459 C 0.54397 0.59928 0.18686 0.0
C2460 C 0.58038 0.61399 0.18746 0.0
C2461 C 0.6915 0.65425 0.18616 0.0
C2462 C 0.65255 0.64074 0.18701 0.0
H2463 H 0.43493 0.59855 0.18844 0.0
H2464 H 0.49628 0.62136 0.19159 0.0
H2465 H 0.61908 0.59479 0.19657 0.0
H2466 H 0.80073 0.65087 0.18466 0.0
H2467 H 0.73802 0.62924 0.1877 0.0
C2468 C 0.23662 0.41416 0.93463 0.0
C2469 C 0.23714 0.42948 0.9276 0.0
C2470 C 0.27299 0.40194 0.93634 0.0
C2471 C 0.34259 0.36928 0.93304 0.0
H2472 H 0.45768 0.39209 0.93191 0.0
C2473 C 0.49069 0.3199 0.92406 0.0
C2474 C 0.52981 0.32396 0.92862 0.0
C2475 C 0.45491 0.33248 0.9256 0.0
C2476 C 0.42579 0.38549 0.93238 0.0
H2477 H 0.27696 0.44446 0.91713 0.0
H2478 H 0.34006 0.42321 0.92011 0.0
H2479 H 0.39594 0.41547 0.93174 0.0
H2480 H 0.56149 0.34416 0.9386 0.0
H2481 H 0.49872 0.36628 0.94128 0.0
H2482 H 0.37238 0.33928 0.93351 0.0
C2483 C 0.31167 0.42067 0.92432 0.0
C2484 C 0.39041 0.39887 0.93219 0.0
C2485 C 0.27531 0.43277 0.92257 0.0
C2486 C 0.53189 0.34061 0.93497 0.0
C2487 C 0.49603 0.35335 0.93647 0.0
C2488 C 0.37795 0.35589 0.93318 0.0
C2489 C 0.31077 0.4049 0.93113 0.0
C2490 C 0.34838 0.3909 0.93234 0.0
C2491 C 0.45726 0.34954 0.93172 0.0
C2492 C 0.41995 0.36382 0.93267 0.0
H2493 H 0.2078 0.41123 0.93865 0.0
H2494 H 0.27142 0.39004 0.94169 0.0
H2495 H 0.31068 0.36261 0.93311 0.0
H2496 H 0.48781 0.30717 0.91913 0.0
H2497 H 0.42577 0.32925 0.92174 0.0
C2498 C 0.52396 0.40927 0.81314 0.0
C2499 C 0.52046 0.42984 0.8163 0.0
C2500 C 0.48715 0.39715 0.81179 0.0
C2501 C 0.37118 0.3959 0.81861 0.0
H2502 H 0.36921 0.34829 0.80198 0.0
C2503 C 0.22191 0.34325 0.81314 0.0
C2504 C 0.22964 0.32312 0.81658 0.0
C2505 C 0.25611 0.35695 0.81159 0.0
C2506 C 0.36935 0.36166 0.80659 0.0
H2507 H 0.47596 0.45439 0.81993 0.0
H2508 H 0.41183 0.43391 0.81699 0.0
H2509 H 0.43086 0.37176 0.8018 0.0
H2510 H 0.27909 0.30115 0.8206 0.0
H2511 H 0.33884 0.32488 0.81755 0.0
H2512 H 0.30903 0.38586 0.82319 0.0
C2513 C 0.44275 0.42656 0.816 0.0
C2514 C 0.40483 0.37502 0.80658 0.0
C2515 C 0.47953 0.43845 0.8176 0.0
C2516 C 0.27222 0.3166 0.81798 0.0
C2517 C 0.30637 0.3301 0.8162 0.0
C2518 C 0.33537 0.38284 0.81843 0.0
C2519 C 0.44591 0.40552 0.81335 0.0
C2520 C 0.40667 0.39215 0.81272 0.0
C2521 C 0.29854 0.35052 0.8132 0.0
C2522 C 0.33447 0.36545 0.81254 0.0
H2523 H 0.55521 0.40223 0.81214 0.0
H2524 H 0.49133 0.38099 0.80989 0.0
H2525 H 0.3714 0.40849 0.82362 0.0
H2526 H 0.1894 0.34869 0.81204 0.0
H2527 H 0.24945 0.37268 0.8093 0.0
C2528 C 0.41594 0.94711 0.06822 0.0
C2529 C 0.39278 0.96175 0.06302 0.0
C2530 C 0.41135 0.92593 0.06635 0.0
C2531 C 0.36949 0.8867 0.04978 0.0
H2532 H 0.34697 0.8559 0.07258 0.0
C2533 C 0.36733 0.7968 0.05305 0.0
C2534 C 0.33926 0.78804 0.05961 0.0
C2535 C 0.36867 0.81835 0.05179 0.0
C2536 C 0.35258 0.8643 0.06613 0.0
H2537 H 0.34939 0.96628 0.05139 0.0
H2538 H 0.34132 0.92907 0.04806 0.0
H2539 H 0.3647 0.8926 0.07346 0.0
H2540 H 0.28896 0.79429 0.06962 0.0
H2541 H 0.29047 0.83202 0.06731 0.0
H2542 H 0.35733 0.85813 0.04247 0.0
C2543 C 0.36304 0.93389 0.05356 0.0
C2544 C 0.3635 0.88527 0.06665 0.0
C2545 C 0.36766 0.95513 0.05545 0.0
C2546 C 0.31039 0.80082 0.06443 0.0
C2547 C 0.31169 0.82236 0.06318 0.0
C2548 C 0.35883 0.86556 0.04926 0.0
C2549 C 0.38346 0.91907 0.05926 0.0
C2550 C 0.37243 0.89669 0.0585 0.0
C2551 C 0.34217 0.83141 0.05716 0.0
C2552 C 0.3503 0.85414 0.05745 0.0
H2553 H 0.43559 0.952 0.07407 0.0
H2554 H 0.42818 0.91486 0.07073 0.0
H2555 H 0.37611 0.89515 0.04339 0.0
H2556 H 0.39037 0.78712 0.04941 0.0
H2557 H 0.39269 0.82483 0.04716 0.0
C2558 C 0.86713 0.45354 0.05685 0.0
C2559 C 0.89455 0.46106 0.06384 0.0
C2560 C 0.8627 0.43212 0.05544 0.0
C2561 C 0.87096 0.38447 0.0693 0.0
H2562 H 0.85026 0.35608 0.04581 0.0
C2563 C 0.81117 0.30084 0.06946 0.0
C2564 C 0.83433 0.28715 0.06377 0.0
C2565 C 0.81456 0.32228 0.06812 0.0
C2566 C 0.85603 0.36382 0.05242 0.0
H2567 H 0.94098 0.45271 0.07441 0.0
H2568 H 0.93435 0.41524 0.07182 0.0
H2569 H 0.87038 0.39293 0.04577 0.0
H2570 H 0.87695 0.2846 0.05191 0.0
H2571 H 0.88325 0.32219 0.04953 0.0
H2572 H 0.85744 0.35555 0.07598 0.0
C2573 C 0.91557 0.42573 0.06753 0.0
C2574 C 0.86738 0.38491 0.05239 0.0
C2575 C 0.91981 0.44711 0.06895 0.0
C2576 C 0.85851 0.29501 0.0563 0.0
C2577 C 0.86209 0.31649 0.05497 0.0
C2578 C 0.85956 0.36353 0.06933 0.0
C2579 C 0.88564 0.41797 0.06104 0.0
C2580 C 0.87516 0.39543 0.06085 0.0
C2581 C 0.84154 0.33037 0.06111 0.0
C2582 C 0.85183 0.35293 0.0609 0.0
H2583 H 0.84705 0.46416 0.05291 0.0
H2584 H 0.83925 0.42667 0.05042 0.0
H2585 H 0.8759 0.39217 0.07595 0.0
H2586 H 0.79252 0.29499 0.07529 0.0
H2587 H 0.79761 0.33256 0.07284 0.0
C2588 C 0.37965 0.29787 0.18877 0.0
C2589 C 0.40459 0.29053 0.18132 0.0
C2590 C 0.37495 0.31926 0.19023 0.0
C2591 C 0.37619 0.36682 0.17617 0.0
H2592 H 0.36232 0.39526 0.19989 0.0
C2593 C 0.31391 0.45003 0.17679 0.0
C2594 C 0.33841 0.46391 0.18212 0.0
C2595 C 0.31824 0.42862 0.17812 0.0
C2596 C 0.36615 0.38751 0.19322 0.0
H2597 H 0.44664 0.29921 0.16996 0.0
H2598 H 0.43966 0.33663 0.17264 0.0
H2599 H 0.38402 0.35863 0.19966 0.0
H2600 H 0.38457 0.46681 0.19332 0.0
H2601 H 0.39253 0.4293 0.19566 0.0
H2602 H 0.35922 0.39553 0.16968 0.0
C2603 C 0.42293 0.32601 0.17725 0.0
C2604 C 0.37841 0.36654 0.19309 0.0
C2605 C 0.42741 0.30466 0.17578 0.0
C2606 C 0.36501 0.45626 0.18923 0.0
C2607 C 0.36956 0.43482 0.19055 0.0
C2608 C 0.3639 0.38765 0.1763 0.0
C2609 C 0.39515 0.33356 0.18423 0.0
C2610 C 0.38376 0.356 0.18455 0.0
C2611 C 0.34755 0.42076 0.18473 0.0
C2612 C 0.35863 0.39827 0.18481 0.0
H2613 H 0.36144 0.28711 0.19305 0.0
H2614 H 0.35321 0.32454 0.19564 0.0
H2615 H 0.37916 0.3591 0.16947 0.0
H2616 H 0.29345 0.45572 0.17123 0.0
H2617 H 0.30017 0.4182 0.17367 0.0
C2618 C 0.81705 0.95165 0.18336 0.0
C2619 C 0.85194 0.96371 0.18629 0.0
C2620 C 0.81751 0.93009 0.1847 0.0
C2621 C 0.87531 0.88629 0.19622 0.0
H2622 H 0.85137 0.85787 0.17289 0.0
C2623 C 0.87901 0.7962 0.19075 0.0
C2624 C 0.8951 0.7894 0.18212 0.0
C2625 C 0.8751 0.81751 0.19259 0.0
C2626 C 0.85839 0.86558 0.17945 0.0
H2627 H 0.9134 0.96336 0.1933 0.0
H2628 H 0.91425 0.92577 0.19572 0.0
H2629 H 0.83652 0.89484 0.17425 0.0
H2630 H 0.92304 0.79898 0.16898 0.0
H2631 H 0.91702 0.83619 0.17221 0.0
H2632 H 0.89819 0.85688 0.20131 0.0
C2633 C 0.88631 0.93277 0.1925 0.0
C2634 C 0.84919 0.88671 0.18028 0.0
C2635 C 0.88589 0.95426 0.19112 0.0
C2636 C 0.91038 0.804 0.17566 0.0
C2637 C 0.9065 0.82522 0.17748 0.0
C2638 C 0.88427 0.86501 0.19541 0.0
C2639 C 0.85295 0.92035 0.18897 0.0
C2640 C 0.85804 0.8974 0.18862 0.0
C2641 C 0.88722 0.8322 0.1858 0.0
C2642 C 0.87664 0.85456 0.18695 0.0
H2643 H 0.79088 0.95869 0.17951 0.0
H2644 H 0.79114 0.92093 0.18198 0.0
H2645 H 0.88236 0.89411 0.20275 0.0
H2646 H 0.86686 0.7851 0.1958 0.0
H2647 H 0.86019 0.82244 0.19906 0.0
C2648 C 0.63753 0.20615 0.93926 0.0
C2649 C 0.66527 0.2142 0.93245 0.0
C2650 C 0.63413 0.18465 0.94054 0.0
C2651 C 0.6448 0.13802 0.92623 0.0
H2652 H 0.62249 0.10796 0.94923 0.0
C2653 C 0.58186 0.05501 0.92478 0.0
C2654 C 0.60481 0.04063 0.93017 0.0
C2655 C 0.58628 0.07628 0.92646 0.0
C2656 C 0.62873 0.11618 0.94276 0.0
H2657 H 0.71328 0.20672 0.92209 0.0
H2658 H 0.70841 0.16911 0.92446 0.0
H2659 H 0.64262 0.14482 0.94986 0.0
H2660 H 0.64779 0.03668 0.9419 0.0
H2661 H 0.65579 0.07401 0.94487 0.0
H2662 H 0.63138 0.10961 0.9191 0.0
C2663 C 0.68873 0.17926 0.92872 0.0
C2664 C 0.64012 0.13725 0.94312 0.0
C2665 C 0.69196 0.20072 0.92743 0.0
C2666 C 0.62968 0.04763 0.93771 0.0
C2667 C 0.63423 0.06895 0.93939 0.0
C2668 C 0.63326 0.11711 0.92587 0.0
C2669 C 0.65837 0.17096 0.93498 0.0
C2670 C 0.64839 0.14837 0.93484 0.0
C2671 C 0.61391 0.08351 0.93353 0.0
C2672 C 0.62489 0.10594 0.93411 0.0
H2673 H 0.61627 0.2164 0.9431 0.0
H2674 H 0.61032 0.17876 0.94538 0.0
H2675 H 0.65013 0.14619 0.91971 0.0
H2676 H 0.56236 0.04983 0.91896 0.0
H2677 H 0.5695 0.08712 0.92196 0.0
C2678 C 0.13744 0.70444 0.9378 0.0
C2679 C 0.16009 0.71276 0.9302 0.0
C2680 C 0.13484 0.68288 0.939 0.0
C2681 C 0.13664 0.63638 0.92429 0.0
H2682 H 0.1309 0.60607 0.94771 0.0
C2683 C 0.07709 0.55259 0.92475 0.0
C2684 C 0.1033 0.53847 0.92954 0.0
C2685 C 0.08189 0.57393 0.92619 0.0
C2686 C 0.13251 0.61435 0.94112 0.0
H2687 H 0.20036 0.7057 0.91833 0.0
H2688 H 0.19695 0.668 0.92052 0.0
H2689 H 0.14988 0.64307 0.94776 0.0
H2690 H 0.153 0.53511 0.93998 0.0
H2691 H 0.16174 0.57255 0.94251 0.0
H2692 H 0.1199 0.60786 0.9176 0.0
C2693 C 0.18041 0.67796 0.92545 0.0
C2694 C 0.1432 0.63552 0.94115 0.0
C2695 C 0.18282 0.69948 0.92424 0.0
C2696 C 0.13231 0.54583 0.93627 0.0
C2697 C 0.13726 0.56722 0.9377 0.0
C2698 C 0.12587 0.61535 0.92426 0.0
C2699 C 0.15489 0.6694 0.9326 0.0
C2700 C 0.14549 0.64674 0.93272 0.0
C2701 C 0.11321 0.58152 0.93241 0.0
C2702 C 0.12348 0.60408 0.93266 0.0
H2703 H 0.11939 0.71453 0.94241 0.0
H2704 H 0.11481 0.6768 0.94455 0.0
H2705 H 0.13732 0.64461 0.91769 0.0
H2706 H 0.0544 0.54713 0.91956 0.0
H2707 H 0.06222 0.58454 0.92216 0.0
C2708 C 0.56304 0.69809 0.8172 0.0
C2709 C 0.58723 0.71181 0.81172 0.0
C2710 C 0.56608 0.67668 0.81574 0.0
C2711 C 0.60917 0.63516 0.8003 0.0
H2712 H 0.63049 0.60762 0.82397 0.0
C2713 C 0.62395 0.54567 0.80569 0.0
C2714 C 0.65247 0.53892 0.81264 0.0
C2715 C 0.61858 0.56693 0.80398 0.0
C2716 C 0.62508 0.6151 0.81729 0.0
H2717 H 0.63114 0.7145 0.80009 0.0
H2718 H 0.63672 0.67695 0.79751 0.0
H2719 H 0.61013 0.64402 0.82382 0.0
H2720 H 0.70019 0.54845 0.82272 0.0
H2721 H 0.69166 0.58564 0.81963 0.0
H2722 H 0.6248 0.60601 0.7938 0.0
C2723 C 0.61506 0.68261 0.80285 0.0
C2724 C 0.61262 0.63589 0.81721 0.0
C2725 C 0.61186 0.70407 0.8043 0.0
C2726 C 0.67808 0.55345 0.81732 0.0
C2727 C 0.67283 0.57466 0.81561 0.0
C2728 C 0.62145 0.61419 0.80038 0.0
C2729 C 0.59372 0.66868 0.80884 0.0
C2730 C 0.6045 0.6462 0.80873 0.0
C2731 C 0.64165 0.58166 0.80922 0.0
C2732 C 0.62984 0.60401 0.80889 0.0
H2733 H 0.54412 0.70386 0.823 0.0
H2734 H 0.54864 0.66633 0.82035 0.0
H2735 H 0.60317 0.64272 0.79365 0.0
H2736 H 0.60367 0.5346 0.80207 0.0
H2737 H 0.59426 0.57184 0.79904 0.0
C2738 C 0.08709 0.19463 0.81891 0.0
C2739 C 0.1087 0.20934 0.81344 0.0
C2740 C 0.09121 0.17347 0.81695 0.0
C2741 C 0.12757 0.1345 0.7997 0.0
H2742 H 0.15534 0.10298 0.82203 0.0
C2743 C 0.12559 0.04467 0.80255 0.0
C2744 C 0.15499 0.03529 0.80865 0.0
C2745 C 0.12524 0.06625 0.80143 0.0
C2746 C 0.14827 0.11158 0.8157 0.0
H2747 H 0.14889 0.21403 0.8013 0.0
H2748 H 0.15613 0.17684 0.79779 0.0
H2749 H 0.13942 0.13984 0.82329 0.0
H2750 H 0.20843 0.04049 0.81798 0.0
H2751 H 0.20854 0.07832 0.81593 0.0
H2752 H 0.13635 0.10598 0.79213 0.0
C2753 C 0.13597 0.1816 0.80358 0.0
C2754 C 0.13841 0.13265 0.81645 0.0
C2755 C 0.13183 0.20282 0.80556 0.0
C2756 C 0.18593 0.0475 0.81314 0.0
C2757 C 0.1856 0.06909 0.81204 0.0
C2758 C 0.13718 0.11328 0.79896 0.0
C2759 C 0.11708 0.1667 0.80949 0.0
C2760 C 0.12751 0.14431 0.80848 0.0
C2761 C 0.15406 0.07875 0.80648 0.0
C2762 C 0.14748 0.10159 0.80697 0.0
H2763 H 0.06904 0.19945 0.82501 0.0
H2764 H 0.07557 0.16235 0.82151 0.0
H2765 H 0.11939 0.14314 0.79345 0.0
H2766 H 0.10099 0.03543 0.79917 0.0
H2767 H 0.10035 0.0732 0.79717 0.0
C2768 C 0.33559 0.30393 0.56959 0.0
C2769 C 0.35613 0.28935 0.56387 0.0
C2770 C 0.34013 0.32516 0.56782 0.0
C2771 C 0.37651 0.36461 0.5507 0.0
H2772 H 0.4056 0.39525 0.57318 0.0
C2773 C 0.37858 0.45441 0.55385 0.0
C2774 C 0.40789 0.46335 0.56009 0.0
C2775 C 0.37733 0.43285 0.55265 0.0
C2776 C 0.39817 0.3869 0.56681 0.0
H2777 H 0.39489 0.28503 0.55148 0.0
H2778 H 0.40295 0.32231 0.54832 0.0
H2779 H 0.38862 0.35849 0.57425 0.0
H2780 H 0.4604 0.45742 0.56958 0.0
H2781 H 0.45914 0.41966 0.56736 0.0
H2782 H 0.38623 0.39325 0.54328 0.0
C2783 C 0.38325 0.31741 0.55415 0.0
C2784 C 0.38767 0.36589 0.56744 0.0
C2785 C 0.37864 0.29613 0.55594 0.0
C2786 C 0.43797 0.45074 0.56464 0.0
C2787 C 0.43682 0.42918 0.56344 0.0
C2788 C 0.38685 0.38578 0.55007 0.0
C2789 C 0.36542 0.33214 0.5603 0.0
C2790 C 0.37631 0.35453 0.55943 0.0
C2791 C 0.40522 0.41994 0.55776 0.0
C2792 C 0.39767 0.39715 0.55813 0.0
H2793 H 0.31797 0.29892 0.57572 0.0
H2794 H 0.32524 0.33614 0.57255 0.0
H2795 H 0.36796 0.35624 0.5444 0.0
H2796 H 0.35462 0.46396 0.55042 0.0
H2797 H 0.35243 0.42625 0.54828 0.0
C2798 C 0.87269 0.79591 0.55383 0.0
C2799 C 0.84799 0.78814 0.56124 0.0
C2800 C 0.87621 0.81738 0.55244 0.0
C2801 C 0.87323 0.86444 0.56669 0.0
H2802 H 0.88407 0.89385 0.54313 0.0
C2803 C 0.93197 0.9482 0.56643 0.0
C2804 C 0.90606 0.96202 0.5614 0.0
C2805 C 0.92861 0.92681 0.56491 0.0
C2806 C 0.88111 0.88581 0.54976 0.0
H2807 H 0.80552 0.79608 0.57262 0.0
H2808 H 0.81056 0.83363 0.57008 0.0
H2809 H 0.86412 0.85696 0.54317 0.0
H2810 H 0.85804 0.9649 0.55058 0.0
H2811 H 0.85186 0.92742 0.54788 0.0
H2812 H 0.88948 0.89309 0.57331 0.0
C2813 C 0.82778 0.8233 0.56542 0.0
C2814 C 0.86982 0.86472 0.54978 0.0
C2815 C 0.8244 0.80187 0.56682 0.0
C2816 C 0.8788 0.95439 0.5544 0.0
C2817 C 0.87526 0.93298 0.55289 0.0
C2818 C 0.88462 0.88539 0.56666 0.0
C2819 C 0.85519 0.8313 0.55848 0.0
C2820 C 0.86554 0.85385 0.55826 0.0
C2821 C 0.89882 0.91893 0.55841 0.0
C2822 C 0.88879 0.89635 0.55821 0.0
H2823 H 0.89159 0.78546 0.54955 0.0
H2824 H 0.89772 0.82304 0.54706 0.0
H2825 H 0.87104 0.85646 0.57334 0.0
H2826 H 0.95278 0.95386 0.57194 0.0
H2827 H 0.94776 0.9164 0.56915 0.0
C2828 C 0.32042 0.94994 0.68114 0.0
C2829 C 0.35343 0.96255 0.68459 0.0
C2830 C 0.32212 0.92839 0.68242 0.0
C2831 C 0.37891 0.88539 0.69469 0.0
H2832 H 0.36506 0.85705 0.67095 0.0
C2833 C 0.3877 0.79547 0.68904 0.0
C2834 C 0.40729 0.78891 0.68072 0.0
C2835 C 0.38264 0.81672 0.69088 0.0
C2836 C 0.36928 0.86475 0.67762 0.0
H2837 H 0.41266 0.96318 0.69245 0.0
H2838 H 0.4156 0.92556 0.6948 0.0
H2839 H 0.34765 0.89379 0.67214 0.0
H2840 H 0.4402 0.79889 0.66819 0.0
H2841 H 0.43204 0.83601 0.67143 0.0
H2842 H 0.40141 0.85618 0.70009 0.0
C2843 C 0.3882 0.93214 0.6912 0.0
C2844 C 0.35861 0.88573 0.67834 0.0
C2845 C 0.38658 0.95363 0.68986 0.0
C2846 C 0.42484 0.80371 0.67463 0.0
C2847 C 0.41977 0.82488 0.67645 0.0
C2848 C 0.38929 0.86425 0.69398 0.0
C2849 C 0.35691 0.91921 0.68717 0.0
C2850 C 0.36375 0.89638 0.68684 0.0
C2851 C 0.39708 0.83159 0.68439 0.0
C2852 C 0.38528 0.85383 0.68539 0.0
H2853 H 0.29491 0.95658 0.67695 0.0
H2854 H 0.29733 0.91881 0.67932 0.0
H2855 H 0.38313 0.8932 0.70133 0.0
H2856 H 0.37379 0.78421 0.69379 0.0
H2857 H 0.36507 0.82144 0.69705 0.0
C2858 C 0.82797 0.44828 0.67526 0.0
C2859 C 0.8524 0.46237 0.68049 0.0
C2860 C 0.8317 0.42695 0.67688 0.0
C2861 C 0.87435 0.38646 0.69282 0.0
H2862 H 0.8919 0.35653 0.6696 0.0
C2863 C 0.87889 0.29645 0.689 0.0
C2864 C 0.90595 0.28828 0.68209 0.0
C2865 C 0.8763 0.31796 0.69035 0.0
C2866 C 0.8876 0.36467 0.67616 0.0
H2867 H 0.89732 0.46576 0.69191 0.0
H2868 H 0.90408 0.42831 0.69478 0.0
H2869 H 0.87468 0.39331 0.66916 0.0
H2870 H 0.95395 0.29553 0.67169 0.0
H2871 H 0.95028 0.33314 0.67414 0.0
H2872 H 0.88765 0.35757 0.69979 0.0
C2873 C 0.88193 0.43366 0.68946 0.0
C2874 C 0.87698 0.3857 0.67591 0.0
C2875 C 0.87812 0.45504 0.68783 0.0
C2876 C 0.93292 0.30162 0.67706 0.0
C2877 C 0.93045 0.32309 0.67841 0.0
C2878 C 0.88477 0.36527 0.69308 0.0
C2879 C 0.86005 0.41938 0.68374 0.0
C2880 C 0.87005 0.39684 0.68421 0.0
C2881 C 0.90074 0.33153 0.68477 0.0
C2882 C 0.89165 0.35419 0.68473 0.0
H2883 H 0.80775 0.45372 0.66961 0.0
H2884 H 0.81375 0.41633 0.67249 0.0
H2885 H 0.86921 0.39467 0.69934 0.0
H2886 H 0.8576 0.28631 0.69289 0.0
H2887 H 0.85303 0.32397 0.69528 0.0
C2888 C 0.6266 0.70491 0.44055 0.0
C2889 C 0.65173 0.71268 0.43321 0.0
C2890 C 0.62295 0.68345 0.44193 0.0
C2891 C 0.62744 0.63625 0.42769 0.0
H2892 H 0.61371 0.60705 0.45123 0.0
C2893 C 0.56862 0.55242 0.42781 0.0
C2894 C 0.59353 0.53866 0.43311 0.0
C2895 C 0.57208 0.57384 0.42924 0.0
C2896 C 0.61751 0.61502 0.44461 0.0
H2897 H 0.69484 0.70471 0.42194 0.0
H2898 H 0.68977 0.66718 0.4245 0.0
H2899 H 0.63359 0.64394 0.45124 0.0
H2900 H 0.63978 0.53591 0.4443 0.0
H2901 H 0.64614 0.57345 0.44682 0.0
H2902 H 0.61218 0.60752 0.42102 0.0
C2903 C 0.67221 0.67751 0.42909 0.0
C2904 C 0.62873 0.63613 0.44462 0.0
C2905 C 0.67562 0.69893 0.42769 0.0
C2906 C 0.61985 0.54639 0.44025 0.0
C2907 C 0.62348 0.56783 0.44167 0.0
C2908 C 0.61616 0.61529 0.42769 0.0
C2909 C 0.64435 0.6695 0.43595 0.0
C2910 C 0.63403 0.64694 0.43614 0.0
C2911 C 0.60092 0.58181 0.43592 0.0
C2912 C 0.61096 0.6044 0.43613 0.0
H2913 H 0.60744 0.71537 0.44477 0.0
H2914 H 0.60109 0.6778 0.44724 0.0
H2915 H 0.6304 0.64417 0.42104 0.0
H2916 H 0.54847 0.54667 0.42221 0.0
H2917 H 0.55367 0.58419 0.42482 0.0
C2918 C 0.11704 0.20406 0.43766 0.0
C2919 C 0.14547 0.21158 0.43086 0.0
C2920 C 0.11303 0.18265 0.43917 0.0
C2921 C 0.12505 0.13476 0.42567 0.0
H2922 H 0.1015 0.10673 0.44913 0.0
C2923 C 0.06752 0.05079 0.42547 0.0
C2924 C 0.09038 0.03736 0.43135 0.0
C2925 C 0.07008 0.07227 0.42676 0.0
C2926 C 0.10807 0.11437 0.44254 0.0
H2927 H 0.19421 0.20327 0.4208 0.0
H2928 H 0.18819 0.16583 0.42355 0.0
H2929 H 0.12048 0.14374 0.44914 0.0
H2930 H 0.13145 0.03529 0.44349 0.0
H2931 H 0.13631 0.07297 0.44576 0.0
H2932 H 0.1134 0.10559 0.41904 0.0
C2933 C 0.16831 0.17631 0.4276 0.0
C2934 C 0.11877 0.13554 0.44254 0.0
C2935 C 0.17215 0.19767 0.42608 0.0
C2936 C 0.1133 0.0455 0.43894 0.0
C2937 C 0.11606 0.06703 0.44022 0.0
C2938 C 0.11425 0.11374 0.42567 0.0
C2939 C 0.13743 0.16852 0.43387 0.0
C2940 C 0.12757 0.14592 0.4341 0.0
C2941 C 0.0959 0.08065 0.4339 0.0
C2942 C 0.10552 0.10327 0.43408 0.0
H2943 H 0.09594 0.21464 0.44135 0.0
H2944 H 0.08886 0.17716 0.44402 0.0
H2945 H 0.13082 0.14234 0.41903 0.0
H2946 H 0.04977 0.04471 0.41956 0.0
H2947 H 0.05346 0.08235 0.42189 0.0
C2948 C 0.63 0.04675 0.30446 0.0
C2949 C 0.65518 0.03933 0.31186 0.0
C2950 C 0.62616 0.06815 0.3029 0.0
C2951 C 0.62892 0.1155 0.31692 0.0
H2952 H 0.61509 0.14442 0.29331 0.0
C2953 C 0.56624 0.19851 0.31666 0.0
C2954 C 0.59159 0.21258 0.31163 0.0
C2955 C 0.57038 0.17717 0.31511 0.0
C2956 C 0.61888 0.13652 0.29994 0.0
H2957 H 0.6986 0.04783 0.323 0.0
H2958 H 0.69301 0.08525 0.32016 0.0
H2959 H 0.63648 0.1077 0.2934 0.0
H2960 H 0.63883 0.21593 0.30067 0.0
H2961 H 0.64631 0.17851 0.29793 0.0
H2962 H 0.61194 0.1441 0.3235 0.0
C2963 C 0.67556 0.0747 0.31565 0.0
C2964 C 0.63101 0.11552 0.29999 0.0
C2965 C 0.67923 0.05334 0.31721 0.0
C2966 C 0.61866 0.20523 0.30454 0.0
C2967 C 0.62295 0.18385 0.303 0.0
C2968 C 0.61665 0.13633 0.31686 0.0
C2969 C 0.64742 0.08236 0.30876 0.0
C2970 C 0.63637 0.10483 0.3085 0.0
C2971 C 0.60025 0.16957 0.30857 0.0
C2972 C 0.61136 0.1471 0.30839 0.0
H2973 H 0.61082 0.03609 0.30034 0.0
H2974 H 0.60413 0.07355 0.29757 0.0
H2975 H 0.63192 0.10766 0.32359 0.0
H2976 H 0.54538 0.20396 0.3222 0.0
H2977 H 0.55182 0.16656 0.31939 0.0
C2978 C 0.17124 0.55268 0.3182 0.0
C2979 C 0.15006 0.53839 0.31244 0.0
C2980 C 0.16722 0.57398 0.31654 0.0
C2981 C 0.13002 0.61419 0.29983 0.0
H2982 H 0.10318 0.64404 0.32266 0.0
C2983 C 0.12809 0.7039 0.30358 0.0
C2984 C 0.09882 0.71265 0.30989 0.0
C2985 C 0.12961 0.68237 0.3023 0.0
C2986 C 0.11 0.63592 0.3162 0.0
H2987 H 0.11048 0.53462 0.30014 0.0
H2988 H 0.10323 0.57203 0.2972 0.0
H2989 H 0.12001 0.60723 0.32338 0.0
H2990 H 0.04691 0.70636 0.31949 0.0
H2991 H 0.04883 0.66861 0.31717 0.0
H2992 H 0.11978 0.64311 0.29267 0.0
C2993 C 0.12319 0.56686 0.30295 0.0
C2994 C 0.12043 0.61487 0.31663 0.0
C2995 C 0.12737 0.5455 0.3046 0.0
C2996 C 0.06927 0.69983 0.31449 0.0
C2997 C 0.07079 0.67829 0.31323 0.0
C2998 C 0.11976 0.63539 0.2994 0.0
C2999 C 0.14165 0.58132 0.30913 0.0
C3000 C 0.13096 0.60378 0.30848 0.0
C3001 C 0.10213 0.66928 0.30742 0.0
C3002 C 0.10976 0.64648 0.3076 0.0
H3003 H 0.18876 0.54741 0.3243 0.0
H3004 H 0.18258 0.58473 0.32131 0.0
H3005 H 0.13791 0.60604 0.29344 0.0
H3006 H 0.15164 0.71361 0.30011 0.0
H3007 H 0.15433 0.67593 0.29784 0.0
C3008 C 0.4413 0.09179 0.09117 0.0
C3009 C 0.43353 0.07053 0.09253 0.0
C3010 C 0.45593 0.10408 0.09859 0.0
C3011 C 0.453 0.10314 0.12448 0.0
H3012 H 0.50669 0.15714 0.12165 0.0
C3013 C 0.45626 0.16112 0.15488 0.0
C3014 C 0.43526 0.1797 0.15246 0.0
C3015 C 0.4706 0.14754 0.1479 0.0
C3016 C 0.49209 0.14198 0.12256 0.0
H3017 H 0.43891 0.04492 0.10228 0.0
H3018 H 0.46711 0.06595 0.11503 0.0
H3019 H 0.50706 0.13271 0.10856 0.0
H3020 H 0.41606 0.19946 0.14089 0.0
H3021 H 0.4415 0.17591 0.12876 0.0
H3022 H 0.43751 0.11254 0.13841 0.0
C3023 C 0.4599 0.07351 0.10845 0.0
C3024 C 0.49196 0.12803 0.11504 0.0
C3025 C 0.44416 0.06138 0.10112 0.0
C3026 C 0.43175 0.18515 0.14297 0.0
C3027 C 0.44667 0.17176 0.13602 0.0
C3028 C 0.45379 0.11691 0.13201 0.0
C3029 C 0.46393 0.09521 0.10745 0.0
C3030 C 0.47108 0.10868 0.1158 0.0
C3031 C 0.46489 0.15251 0.13841 0.0
C3032 C 0.47207 0.13671 0.13103 0.0
H3033 H 0.43309 0.09918 0.0846 0.0
H3034 H 0.45819 0.1207 0.09752 0.0
H3035 H 0.43581 0.08865 0.12537 0.0
H3036 H 0.45949 0.15653 0.16213 0.0
H3037 H 0.48469 0.1328 0.14991 0.0
C3038 C 0.80676 0.18146 0.10173 0.0
C3039 C 0.80541 0.17558 0.09227 0.0
C3040 C 0.79432 0.16754 0.10871 0.0
C3041 C 0.80187 0.11321 0.11319 0.0
H3042 H 0.73776 0.12515 0.13579 0.0
C3043 C 0.81687 0.05863 0.14455 0.0
C3044 C 0.81998 0.06813 0.15335 0.0
C3045 C 0.80191 0.06982 0.13684 0.0
C3046 C 0.75608 0.12159 0.12956 0.0
H3047 H 0.78765 0.15099 0.08265 0.0
H3048 H 0.76706 0.12634 0.09493 0.0
H3049 H 0.7344 0.14925 0.12259 0.0
H3050 H 0.80834 0.09642 0.16114 0.0
H3051 H 0.78469 0.11642 0.14764 0.0
H3052 H 0.82665 0.08668 0.12024 0.0
C3053 C 0.77728 0.14184 0.09689 0.0
C3054 C 0.75374 0.13531 0.12198 0.0
C3055 C 0.78893 0.15595 0.08989 0.0
C3056 C 0.80604 0.08873 0.15442 0.0
C3057 C 0.7922 0.10013 0.14665 0.0
C3058 C 0.80496 0.09975 0.12081 0.0
C3059 C 0.78103 0.14734 0.10637 0.0
C3060 C 0.77728 0.13142 0.1138 0.0
C3061 C 0.79105 0.091 0.13769 0.0
C3062 C 0.78286 0.10395 0.1292 0.0
H3063 H 0.81912 0.19655 0.10376 0.0
H3064 H 0.79784 0.1721 0.11596 0.0
H3065 H 0.82093 0.11002 0.10702 0.0
H3066 H 0.82688 0.04264 0.14359 0.0
H3067 H 0.80016 0.06196 0.13016 0.0
C3068 C 0.54966 0.84008 0.84128 0.0
C3069 C 0.56039 0.81907 0.84248 0.0
C3070 C 0.53676 0.85204 0.84896 0.0
C3071 C 0.54931 0.85157 0.87473 0.0
H3072 H 0.48728 0.90364 0.87281 0.0
C3073 C 0.54866 0.90959 0.9051 0.0
C3074 C 0.56663 0.92866 0.90233 0.0
C3075 C 0.53352 0.89556 0.89839 0.0
C3076 C 0.50424 0.88901 0.87347 0.0
H3077 H 0.56214 0.79349 0.85231 0.0
H3078 H 0.53706 0.81389 0.86556 0.0
H3079 H 0.48578 0.87912 0.85976 0.0
H3080 H 0.5794 0.94879 0.89048 0.0
H3081 H 0.55244 0.92448 0.87882 0.0
H3082 H 0.56818 0.86161 0.88837 0.0
C3083 C 0.54063 0.82156 0.85887 0.0
C3084 C 0.50374 0.87502 0.86597 0.0
C3085 C 0.55464 0.80978 0.85126 0.0
C3086 C 0.56607 0.93412 0.89282 0.0
C3087 C 0.5503 0.92028 0.88614 0.0
C3088 C 0.54915 0.86535 0.88226 0.0
C3089 C 0.53344 0.84308 0.85793 0.0
C3090 C 0.52751 0.85641 0.86638 0.0
C3091 C 0.53534 0.90057 0.88882 0.0
C3092 C 0.52781 0.88449 0.88159 0.0
H3093 H 0.55404 0.84759 0.83457 0.0
H3094 H 0.53198 0.86855 0.84792 0.0
H3095 H 0.56875 0.83769 0.87532 0.0
H3096 H 0.54866 0.90498 0.91239 0.0
H3097 H 0.52199 0.88047 0.90063 0.0
C3098 C 0.1874 0.94012 0.84948 0.0
C3099 C 0.18265 0.93045 0.84075 0.0
C3100 C 0.20205 0.92886 0.85719 0.0
C3101 C 0.24346 0.87636 0.86465 0.0
H3102 H 0.18043 0.88981 0.88723 0.0
C3103 C 0.18874 0.81801 0.89273 0.0
C3104 C 0.19033 0.82401 0.90217 0.0
C3105 C 0.20218 0.83162 0.88571 0.0
C3106 C 0.19901 0.88607 0.88105 0.0
H3107 H 0.19118 0.90174 0.83309 0.0
H3108 H 0.21431 0.88166 0.84661 0.0
H3109 H 0.17648 0.91297 0.87392 0.0
H3110 H 0.20953 0.84848 0.91172 0.0
H3111 H 0.23196 0.87259 0.89937 0.0
H3112 H 0.26286 0.84844 0.87173 0.0
C3113 C 0.20831 0.89811 0.84753 0.0
C3114 C 0.19694 0.89943 0.87338 0.0
C3115 C 0.19478 0.90957 0.83975 0.0
C3116 C 0.20802 0.84343 0.9045 0.0
C3117 C 0.22071 0.85723 0.89745 0.0
C3118 C 0.24481 0.86278 0.8723 0.0
C3119 C 0.21092 0.90745 0.85643 0.0
C3120 C 0.21832 0.89457 0.86497 0.0
C3121 C 0.2168 0.85163 0.88799 0.0
C3122 C 0.22187 0.86734 0.8805 0.0
H3123 H 0.17879 0.95632 0.85039 0.0
H3124 H 0.205 0.93685 0.86382 0.0
H3125 H 0.2612 0.87227 0.85841 0.0
H3126 H 0.17548 0.80308 0.89074 0.0
H3127 H 0.19849 0.82697 0.87847 0.0
C3128 C 0.44631 0.58984 0.59058 0.0
C3129 C 0.4335 0.56911 0.59178 0.0
C3130 C 0.46087 0.60146 0.59821 0.0
C3131 C 0.45118 0.60129 0.62407 0.0
H3132 H 0.51991 0.65129 0.62184 0.0
C3133 C 0.46336 0.65838 0.65457 0.0
C3134 C 0.44708 0.67793 0.65198 0.0
C3135 C 0.47631 0.64419 0.64771 0.0
C3136 C 0.50108 0.63722 0.62258 0.0
H3137 H 0.42949 0.54362 0.60164 0.0
H3138 H 0.45729 0.56338 0.61483 0.0
H3139 H 0.51622 0.62696 0.60874 0.0
H3140 H 0.43548 0.69872 0.64031 0.0
H3141 H 0.45869 0.67411 0.62839 0.0
H3142 H 0.43569 0.6117 0.63785 0.0
C3143 C 0.45415 0.57114 0.60814 0.0
C3144 C 0.49859 0.62336 0.61506 0.0
C3145 C 0.43853 0.55972 0.60057 0.0
C3146 C 0.44755 0.68369 0.6425 0.0
C3147 C 0.46114 0.66965 0.63568 0.0
C3148 C 0.4543 0.61492 0.63162 0.0
C3149 C 0.46383 0.59242 0.60717 0.0
C3150 C 0.47243 0.60553 0.61559 0.0
C3151 C 0.47394 0.64948 0.63819 0.0
C3152 C 0.47817 0.63334 0.63086 0.0
H3153 H 0.44259 0.59744 0.58386 0.0
H3154 H 0.46748 0.61782 0.59715 0.0
H3155 H 0.42999 0.58804 0.62476 0.0
H3156 H 0.46337 0.65352 0.66182 0.0
H3157 H 0.48625 0.62874 0.64982 0.0
C3158 C 0.82321 0.68729 0.60194 0.0
C3159 C 0.81587 0.68177 0.59256 0.0
C3160 C 0.80776 0.67485 0.6092 0.0
C3161 C 0.79004 0.62066 0.61374 0.0
H3162 H 0.74633 0.63948 0.63767 0.0
C3163 C 0.79487 0.56522 0.64466 0.0
C3164 C 0.80976 0.57382 0.65305 0.0
C3165 C 0.77971 0.57805 0.63751 0.0
C3166 C 0.75872 0.63395 0.63105 0.0
H3167 H 0.7843 0.65954 0.58346 0.0
H3168 H 0.75807 0.63753 0.59619 0.0
H3169 H 0.7492 0.66361 0.62446 0.0
H3170 H 0.81837 0.6023 0.66087 0.0
H3171 H 0.79432 0.62493 0.64824 0.0
H3172 H 0.80295 0.59167 0.62031 0.0
C3173 C 0.77568 0.65156 0.59788 0.0
C3174 C 0.76005 0.64775 0.62348 0.0
C3175 C 0.79063 0.66417 0.59061 0.0
C3176 C 0.80671 0.59534 0.65445 0.0
C3177 C 0.79273 0.60828 0.64719 0.0
C3178 C 0.78942 0.607 0.62131 0.0
C3179 C 0.78508 0.6565 0.60723 0.0
C3180 C 0.77663 0.64134 0.61482 0.0
C3181 C 0.78067 0.59984 0.63848 0.0
C3182 C 0.77473 0.61356 0.63015 0.0
H3183 H 0.84222 0.70085 0.60368 0.0
H3184 H 0.8158 0.67894 0.61634 0.0
H3185 H 0.80363 0.61537 0.60719 0.0
H3186 H 0.79656 0.54859 0.64348 0.0
H3187 H 0.76925 0.57087 0.63106 0.0
C3188 C 0.55095 0.31258 0.35062 0.0
C3189 C 0.56094 0.32137 0.34191 0.0
C3190 C 0.5364 0.32507 0.35794 0.0
C3191 C 0.50607 0.38003 0.36426 0.0
H3192 H 0.55897 0.36451 0.38778 0.0
C3193 C 0.56493 0.43672 0.39272 0.0
C3194 C 0.55947 0.43112 0.40215 0.0
C3195 C 0.55082 0.42356 0.38558 0.0
C3196 C 0.5432 0.3689 0.38133 0.0
H3197 H 0.56167 0.3498 0.33382 0.0
H3198 H 0.53877 0.37191 0.34671 0.0
H3199 H 0.56095 0.34049 0.37479 0.0
H3200 H 0.53255 0.40797 0.41149 0.0
H3201 H 0.50881 0.38472 0.39898 0.0
H3202 H 0.49163 0.40929 0.37078 0.0
C3203 C 0.54055 0.35531 0.34789 0.0
C3204 C 0.54412 0.35505 0.37383 0.0
C3205 C 0.55394 0.34267 0.34048 0.0
C3206 C 0.53728 0.4127 0.40429 0.0
C3207 C 0.52378 0.39937 0.39715 0.0
C3208 C 0.50592 0.39408 0.37174 0.0
C3209 C 0.53297 0.34677 0.35682 0.0
C3210 C 0.52639 0.36054 0.36511 0.0
C3211 C 0.53152 0.40442 0.38774 0.0
C3212 C 0.52523 0.38875 0.38028 0.0
H3213 H 0.55559 0.2961 0.35184 0.0
H3214 H 0.52945 0.31775 0.36458 0.0
H3215 H 0.49125 0.38471 0.35774 0.0
H3216 H 0.58164 0.45089 0.39084 0.0
H3217 H 0.55748 0.42776 0.37839 0.0
C3218 C 0.1998 0.31175 0.39348 0.0
C3219 C 0.18799 0.3208 0.40202 0.0
C3220 C 0.21632 0.32397 0.38627 0.0
C3221 C 0.2482 0.37865 0.37989 0.0
H3222 H 0.19566 0.36318 0.35632 0.0
C3223 C 0.18795 0.43577 0.35199 0.0
C3224 C 0.19052 0.43018 0.3425 0.0
C3225 C 0.20374 0.42252 0.35891 0.0
C3226 C 0.21147 0.36755 0.36277 0.0
H3227 H 0.1863 0.34938 0.40998 0.0
H3228 H 0.21276 0.37107 0.39725 0.0
H3229 H 0.19352 0.33915 0.36929 0.0
H3230 H 0.21455 0.40704 0.33279 0.0
H3231 H 0.24149 0.38365 0.34494 0.0
H3232 H 0.2629 0.40789 0.37338 0.0
C3233 C 0.21081 0.35445 0.39614 0.0
C3234 C 0.2104 0.35369 0.37026 0.0
C3235 C 0.1954 0.34206 0.40345 0.0
C3236 C 0.21192 0.41174 0.34004 0.0
C3237 C 0.22725 0.39833 0.34699 0.0
C3238 C 0.24865 0.39268 0.3724 0.0
C3239 C 0.21995 0.34567 0.38732 0.0
C3240 C 0.2277 0.35923 0.37902 0.0
C3241 C 0.22203 0.4033 0.35649 0.0
C3242 C 0.22929 0.38744 0.36384 0.0
H3243 H 0.19486 0.29528 0.39227 0.0
H3244 H 0.22439 0.31649 0.37972 0.0
H3245 H 0.26269 0.38333 0.38644 0.0
H3246 H 0.17203 0.44998 0.3541 0.0
H3247 H 0.19897 0.4267 0.36617 0.0
C3248 C 0.95964 0.08758 0.59102 0.0
C3249 C 0.93717 0.06918 0.59306 0.0
C3250 C 0.9735 0.10061 0.59825 0.0
C3251 C 0.9907 0.10473 0.62381 0.0
H3252 H 0.94041 0.15942 0.62085 0.0
C3253 C 0.94216 0.15616 0.65506 0.0
C3254 C 0.93735 0.17762 0.65368 0.0
C3255 C 0.95586 0.14344 0.6477 0.0
C3256 C 0.95591 0.14451 0.62179 0.0
H3257 H 0.91482 0.04915 0.60426 0.0
H3258 H 0.93934 0.07177 0.61683 0.0
H3259 H 0.94163 0.13576 0.60772 0.0
H3260 H 0.94697 0.203 0.64397 0.0
H3261 H 0.97361 0.18115 0.63134 0.0
H3262 H 0.0045 0.11338 0.63795 0.0
C3263 C 0.94605 0.07619 0.60967 0.0
C3264 C 0.95642 0.13087 0.61421 0.0
C3265 C 0.93169 0.06333 0.60246 0.0
C3266 C 0.94996 0.18641 0.64514 0.0
C3267 C 0.96478 0.17382 0.63788 0.0
C3268 C 0.99084 0.11853 0.63139 0.0
C3269 C 0.96576 0.0953 0.60763 0.0
C3270 C 0.97266 0.11066 0.61521 0.0
C3271 C 0.96586 0.15205 0.63889 0.0
C3272 C 0.97225 0.13841 0.63056 0.0
H3273 H 0.96446 0.09249 0.58385 0.0
H3274 H 0.98884 0.11522 0.5965 0.0
H3275 H 0.0037 0.08924 0.62474 0.0
H3276 H 0.93233 0.14905 0.66158 0.0
H3277 H 0.95587 0.12678 0.64877 0.0
C3278 C 0.33139 0.18191 0.6024 0.0
C3279 C 0.32052 0.17899 0.59296 0.0
C3280 C 0.31552 0.16862 0.60927 0.0
C3281 C 0.27105 0.14185 0.62347 0.0
H3282 H 0.28383 0.08364 0.61705 0.0
C3283 C 0.28362 0.07993 0.65232 0.0
C3284 C 0.31858 0.06636 0.6511 0.0
C3285 C 0.26856 0.09196 0.64484 0.0
C3286 C 0.27991 0.09982 0.61897 0.0
H3287 H 0.2821 0.16057 0.58341 0.0
H3288 H 0.25402 0.13729 0.59549 0.0
H3289 H 0.28511 0.10974 0.60475 0.0
H3290 H 0.36324 0.05387 0.64089 0.0
H3291 H 0.33792 0.07499 0.62804 0.0
H3292 H 0.26955 0.13213 0.63774 0.0
C3293 C 0.27539 0.14976 0.59753 0.0
C3294 C 0.28005 0.1148 0.61188 0.0
C3295 C 0.29131 0.16316 0.59061 0.0
C3296 C 0.33644 0.06423 0.64212 0.0
C3297 C 0.32153 0.07625 0.63469 0.0
C3298 C 0.27134 0.1269 0.63056 0.0
C3299 C 0.2882 0.15204 0.60691 0.0
C3300 C 0.27761 0.13607 0.61409 0.0
C3301 C 0.28815 0.09067 0.63599 0.0
C3302 C 0.27775 0.10578 0.62842 0.0
H3303 H 0.35353 0.19403 0.60449 0.0
H3304 H 0.32668 0.17072 0.61638 0.0
H3305 H 0.26807 0.15807 0.6254 0.0
H3306 H 0.26886 0.08183 0.65912 0.0
H3307 H 0.24238 0.10269 0.64606 0.0
C3308 C 0.05534 0.83748 0.34167 0.0
C3309 C 0.06914 0.81685 0.34269 0.0
C3310 C 0.04263 0.849 0.34949 0.0
C3311 C 0.05886 0.84876 0.37523 0.0
H3312 H 0.98981 0.8988 0.37375 0.0
C3313 C 0.04786 0.90559 0.40607 0.0
C3314 C 0.06482 0.92505 0.40356 0.0
C3315 C 0.03529 0.89144 0.39916 0.0
C3316 C 0.00874 0.88472 0.37428 0.0
H3317 H 0.07685 0.7914 0.35246 0.0
H3318 H 0.05198 0.81091 0.36599 0.0
H3319 H 0.99045 0.87448 0.36062 0.0
H3320 H 0.07862 0.94566 0.39193 0.0
H3321 H 0.05571 0.92113 0.3799 0.0
H3322 H 0.07707 0.85911 0.38888 0.0
C3323 C 0.05304 0.81871 0.35929 0.0
C3324 C 0.00952 0.87086 0.36673 0.0
C3325 C 0.06692 0.80742 0.35152 0.0
C3326 C 0.06593 0.9307 0.39407 0.0
C3327 C 0.05254 0.91674 0.38719 0.0
C3328 C 0.0573 0.86236 0.38282 0.0
C3329 C 0.04246 0.83994 0.35847 0.0
C3330 C 0.03576 0.85301 0.36698 0.0
C3331 C 0.03854 0.89674 0.38966 0.0
C3332 C 0.03329 0.88075 0.38231 0.0
H3333 H 0.05699 0.84514 0.33493 0.0
H3334 H 0.03531 0.8653 0.34851 0.0
H3335 H 0.08019 0.83552 0.37571 0.0
H3336 H 0.04674 0.90081 0.41333 0.0
H3337 H 0.02457 0.87608 0.40122 0.0
C3338 C 0.68991 0.90955 0.341 0.0
C3339 C 0.68127 0.93076 0.34229 0.0
C3340 C 0.70274 0.89725 0.34858 0.0
C3341 C 0.69484 0.89784 0.37448 0.0
H3342 H 0.75252 0.84469 0.3721 0.0
C3343 C 0.70218 0.84093 0.40527 0.0
C3344 C 0.68216 0.82199 0.40303 0.0
C3345 C 0.71544 0.85445 0.39817 0.0
C3346 C 0.73675 0.85961 0.37287 0.0
H3347 H 0.68302 0.95624 0.35216 0.0
H3348 H 0.70814 0.93522 0.36521 0.0
H3349 H 0.75273 0.86898 0.35894 0.0
H3350 H 0.66363 0.80157 0.39165 0.0
H3351 H 0.68738 0.82502 0.37929 0.0
H3352 H 0.67869 0.88837 0.38837 0.0
C3353 C 0.70292 0.92769 0.35854 0.0
C3354 C 0.7365 0.87347 0.36532 0.0
C3355 C 0.68893 0.93982 0.35104 0.0
C3356 C 0.67863 0.81614 0.39359 0.0
C3357 C 0.69253 0.82949 0.38651 0.0
C3358 C 0.69582 0.88418 0.38205 0.0
C3359 C 0.70811 0.90605 0.35754 0.0
C3360 C 0.7144 0.89254 0.36592 0.0
C3361 C 0.70965 0.84907 0.38873 0.0
C3362 C 0.7157 0.86471 0.38124 0.0
H3363 H 0.68399 0.90221 0.33431 0.0
H3364 H 0.70592 0.88067 0.34749 0.0
H3365 H 0.67662 0.91206 0.37524 0.0
H3366 H 0.70536 0.84584 0.41248 0.0
H3367 H 0.72871 0.86945 0.40004 0.0
C3368 C 0.92743 0.68509 0.14344 0.0
C3369 C 0.93097 0.67961 0.15292 0.0
C3370 C 0.94284 0.67184 0.13648 0.0
C3371 C 0.95105 0.61711 0.13241 0.0
H3372 H 0.00588 0.63297 0.10914 0.0
C3373 C 0.94456 0.56132 0.10157 0.0
C3374 C 0.93501 0.57035 0.09289 0.0
C3375 C 0.9594 0.57356 0.10895 0.0
C3376 C 0.99031 0.62827 0.11557 0.0
H3377 H 0.95578 0.65653 0.16257 0.0
H3378 H 0.98179 0.63307 0.15035 0.0
H3379 H 0.00414 0.65747 0.1222 0.0
H3380 H 0.93545 0.59889 0.08489 0.0
H3381 H 0.95886 0.6206 0.09788 0.0
H3382 H 0.93388 0.58878 0.12574 0.0
C3383 C 0.96732 0.64772 0.14834 0.0
C3384 C 0.98968 0.64227 0.12306 0.0
C3385 C 0.95251 0.66116 0.15532 0.0
C3386 C 0.94288 0.59159 0.09153 0.0
C3387 C 0.95653 0.604 0.099 0.0
C3388 C 0.95096 0.60331 0.12489 0.0
C3389 C 0.96156 0.6527 0.13885 0.0
C3390 C 0.96919 0.63696 0.13148 0.0
C3391 C 0.96349 0.59525 0.10792 0.0
C3392 C 0.96967 0.60884 0.11628 0.0
H3393 H 0.9113 0.6993 0.14137 0.0
H3394 H 0.93764 0.67599 0.12922 0.0
H3395 H 0.93441 0.61273 0.13876 0.0
H3396 H 0.93918 0.54488 0.10274 0.0
H3397 H 0.96586 0.56608 0.11558 0.0
C3398 C 0.293 0.59506 0.15588 0.0
C3399 C 0.31025 0.57563 0.15341 0.0
C3400 C 0.28027 0.6091 0.14893 0.0
C3401 C 0.25423 0.61538 0.12395 0.0
H3402 H 0.32339 0.66532 0.1255 0.0
C3403 C 0.30086 0.66296 0.09142 0.0
C3404 C 0.31344 0.68377 0.09246 0.0
C3405 C 0.28815 0.65133 0.09921 0.0
C3406 C 0.3027 0.65185 0.12499 0.0
H3407 H 0.32441 0.55497 0.14184 0.0
H3408 H 0.30132 0.5793 0.12975 0.0
H3409 H 0.32066 0.64177 0.13869 0.0
H3410 H 0.31894 0.70936 0.10222 0.0
H3411 H 0.29416 0.68959 0.11569 0.0
H3412 H 0.2363 0.62535 0.11023 0.0
C3413 C 0.29801 0.58375 0.13702 0.0
C3414 C 0.30135 0.63828 0.13259 0.0
C3415 C 0.31151 0.5699 0.14393 0.0
C3416 C 0.30997 0.69322 0.10127 0.0
C3417 C 0.29613 0.68178 0.109 0.0
C3418 C 0.25484 0.6292 0.11639 0.0
C3419 C 0.28369 0.60374 0.13944 0.0
C3420 C 0.27818 0.61963 0.13205 0.0
C3421 C 0.28681 0.66043 0.10818 0.0
C3422 C 0.28025 0.64732 0.11668 0.0
H3423 H 0.29172 0.5999 0.16312 0.0
H3424 H 0.26927 0.62443 0.15096 0.0
H3425 H 0.23593 0.60111 0.1234 0.0
H3426 H 0.30348 0.65529 0.0847 0.0
H3427 H 0.28179 0.63493 0.09824 0.0
C3428 C 0.04632 0.33369 0.84372 0.0
C3429 C 0.06085 0.31326 0.84506 0.0
C3430 C 0.03056 0.3452 0.85128 0.0
C3431 C 0.04247 0.34597 0.87701 0.0
H3432 H 0.97368 0.3959 0.87458 0.0
C3433 C 0.0408 0.40624 0.90627 0.0
C3434 C 0.0565 0.42536 0.90297 0.0
C3435 C 0.02499 0.3914 0.9 0.0
C3436 C 0.99249 0.38185 0.87539 0.0
H3437 H 0.06625 0.28804 0.85502 0.0
H3438 H 0.03635 0.30758 0.86807 0.0
H3439 H 0.97485 0.37055 0.86185 0.0
H3440 H 0.06397 0.44478 0.89067 0.0
H3441 H 0.03604 0.41904 0.87978 0.0
H3442 H 0.06078 0.35748 0.89044 0.0
C3443 C 0.03905 0.31521 0.86135 0.0
C3444 C 0.99351 0.36739 0.86808 0.0
C3445 C 0.05586 0.30392 0.85386 0.0
C3446 C 0.05251 0.43008 0.89341 0.0
C3447 C 0.03615 0.4154 0.88718 0.0
C3448 C 0.04087 0.36021 0.88435 0.0
C3449 C 0.02817 0.33633 0.86028 0.0
C3450 C 0.0199 0.34965 0.86864 0.0
C3451 C 0.02394 0.3956 0.89035 0.0
C3452 C 0.01719 0.37866 0.88348 0.0
H3453 H 0.04997 0.34126 0.837 0.0
H3454 H 0.02297 0.36142 0.85014 0.0
H3455 H 0.06381 0.33279 0.87773 0.0
H3456 H 0.04337 0.40218 0.9136 0.0
H3457 H 0.01555 0.37627 0.90263 0.0
C3458 C 0.70683 0.41118 0.84184 0.0
C3459 C 0.69672 0.43219 0.84325 0.0
C3460 C 0.72292 0.39919 0.84922 0.0
C3461 C 0.72004 0.39966 0.87508 0.0
H3462 H 0.77979 0.34721 0.8721 0.0
C3463 C 0.72499 0.34146 0.90515 0.0
C3464 C 0.70587 0.32255 0.90251 0.0
C3465 C 0.73993 0.35528 0.89833 0.0
C3466 C 0.76351 0.36194 0.87305 0.0
H3467 H 0.69948 0.45778 0.85306 0.0
H3468 H 0.73004 0.43733 0.86574 0.0
H3469 H 0.77762 0.37189 0.8591 0.0
H3470 H 0.69136 0.30239 0.89077 0.0
H3471 H 0.71762 0.32642 0.87893 0.0
H3472 H 0.70521 0.38956 0.88893 0.0
C3473 C 0.7236 0.42969 0.85915 0.0
C3474 C 0.76193 0.37603 0.86559 0.0
C3475 C 0.70642 0.44149 0.85186 0.0
C3476 C 0.70549 0.31695 0.89301 0.0
C3477 C 0.72089 0.33064 0.88622 0.0
C3478 C 0.72221 0.38577 0.88255 0.0
C3479 C 0.73007 0.40815 0.85809 0.0
C3480 C 0.73883 0.39477 0.8664 0.0
C3481 C 0.73658 0.3503 0.88879 0.0
C3482 C 0.74267 0.36647 0.88152 0.0
H3483 H 0.69945 0.40367 0.83526 0.0
H3484 H 0.72707 0.38267 0.8481 0.0
H3485 H 0.7012 0.41364 0.876 0.0
H3486 H 0.72592 0.34617 0.91241 0.0
H3487 H 0.75219 0.3703 0.90049 0.0
loop_
_geom_bond_atom_site_label_1
_geom_bond_atom_site_label_2
_geom_bond_distance
_geom_bond_site_symmetry_2
_ccdc_geom_bond_type
Co0 O3 1.970 . S
Co0 N17 1.989 . S
Co0 O25 1.967 . S
Co0 O32 1.920 . S
Co1 O4 1.966 . S
Co1 N10 2.022 . S
Co1 N18 1.993 . S
Co1 O26 1.941 . S
C2 O3 1.258 . S
C2 O4 1.263 . S
O3 Co0 1.970 . S
O3 C2 1.258 . S
O4 Co1 1.966 . S
O4 C2 1.263 . S
C5 O6 1.235 . S
C5 O32 1.289 . S
O6 C5 1.235 . S
C7 C9 1.400 . S
C7 N10 1.351 . S
C7 C12 1.501 . S
C8 C9 1.387 . S
C8 N11 1.341 . S
C9 C7 1.400 . S
C9 C8 1.387 . S
N10 Co1 2.022 . S
N10 C7 1.351 . S
N10 N11 1.365 . S
N11 C8 1.341 . S
N11 N10 1.365 . S
N11 H31 0.862 . S
C12 C7 1.501 . S
C12 H13 0.961 . S
C12 H14 0.961 . S
C12 H15 0.960 . S
H13 C12 0.961 . S
H14 C12 0.961 . S
H15 C12 0.960 . S
C16 N17 1.342 1_565 S
C16 C20 1.401 . S
C16 C21 1.499 . S
N17 Co0 1.989 . S
N17 C16 1.342 1_545 S
N17 N18 1.388 . S
N18 Co1 1.993 . S
N18 N17 1.388 . S
N18 C19 1.346 1_545 S
C19 N18 1.346 1_565 S
C19 C20 1.396 . S
C19 C29 1.510 . S
C20 C16 1.401 . S
C20 C19 1.396 . S
C21 C16 1.499 . S
C21 H22 0.959 . S
C21 H23 0.960 . S
C21 H24 0.961 . S
H22 C21 0.959 . S
H23 C21 0.960 . S
H24 C21 0.961 . S
O25 Co0 1.967 . S
O25 C33 1.258 . S
O26 Co1 1.941 . S
O26 C33 1.266 . S
H27 C29 0.959 . S
H28 C29 0.961 . S
C29 C19 1.510 . S
C29 H27 0.959 . S
C29 H28 0.961 . S
C29 H30 0.964 1_565 S
H30 C29 0.964 1_545 S
H31 N11 0.862 . S
O32 Co0 1.920 . S
O32 C5 1.289 . S
C33 O25 1.258 . S
C33 O26 1.266 . S
Co34 O37 1.970 . S
Co34 N51 1.989 . S
Co34 O59 1.967 . S
Co34 O66 1.920 . S
Co35 O38 1.966 . S
Co35 N44 2.022 . S
Co35 N52 1.993 . S
Co35 O60 1.941 . S
C36 O37 1.258 . S
C36 O38 1.263 . S
O37 Co34 1.970 . S
O37 C36 1.258 . S
O38 Co35 1.966 . S
O38 C36 1.263 . S
C39 O40 1.235 1_655 S
C39 O66 1.289 . S
O40 C39 1.235 1_455 S
C41 C43 1.400 . S
C41 N44 1.351 . S
C41 C46 1.501 . S
C42 C43 1.387 . S
C42 N45 1.341 . S
C43 C41 1.400 . S
C43 C42 1.387 . S
N44 Co35 2.022 . S
N44 C41 1.351 . S
N44 N45 1.365 . S
N45 C42 1.341 . S
N45 N44 1.365 . S
N45 H65 0.862 . S
C46 C41 1.501 . S
C46 H47 0.961 . S
C46 H48 0.961 . S
C46 H49 0.960 . S
H47 C46 0.961 . S
H48 C46 0.961 . S
H49 C46 0.960 . S
C50 N51 1.342 . S
C50 C54 1.401 . S
C50 C55 1.499 . S
N51 Co34 1.989 . S
N51 C50 1.342 . S
N51 N52 1.388 . S
N52 Co35 1.993 . S
N52 N51 1.388 . S
N52 C53 1.346 . S
C53 N52 1.346 . S
C53 C54 1.396 . S
C53 C63 1.510 . S
C54 C50 1.401 . S
C54 C53 1.396 . S
C55 C50 1.499 . S
C55 H56 0.959 . S
C55 H57 0.960 . S
C55 H58 0.961 . S
H56 C55 0.959 . S
H57 C55 0.960 . S
H58 C55 0.961 . S
O59 Co34 1.967 . S
O59 C67 1.258 . S
O60 Co35 1.941 . S
O60 C67 1.266 . S
H61 C63 0.959 . S
H62 C63 0.961 . S
C63 C53 1.510 . S
C63 H61 0.959 . S
C63 H62 0.961 . S
C63 H64 0.960 . S
H64 C63 0.960 . S
H65 N45 0.862 . S
O66 Co34 1.920 . S
O66 C39 1.289 . S
C67 O59 1.258 . S
C67 O60 1.266 . S
Co68 O71 1.970 . S
Co68 N85 1.989 . S
Co68 O93 1.967 . S
Co68 O100 1.920 . S
Co69 O72 1.966 . S
Co69 N78 2.022 . S
Co69 N86 1.993 . S
Co69 O94 1.941 . S
C70 O71 1.258 . S
C70 O72 1.263 . S
O71 Co68 1.970 . S
O71 C70 1.258 . S
O72 Co69 1.966 . S
O72 C70 1.263 . S
C73 O74 1.235 . S
C73 O100 1.289 . S
O74 C73 1.235 . S
C75 C77 1.400 . S
C75 N78 1.351 . S
C75 C80 1.501 . S
C76 C77 1.387 . S
C76 N79 1.341 . S
C77 C75 1.400 . S
C77 C76 1.387 . S
N78 Co69 2.022 . S
N78 C75 1.351 . S
N78 N79 1.365 . S
N79 C76 1.341 . S
N79 N78 1.365 . S
N79 H99 0.862 . S
C80 C75 1.501 . S
C80 H81 0.961 . S
C80 H82 0.961 . S
C80 H83 0.960 . S
H81 C80 0.961 . S
H82 C80 0.961 . S
H83 C80 0.960 . S
C84 N85 1.342 . S
C84 C88 1.401 . S
C84 C89 1.499 . S
N85 Co68 1.989 . S
N85 C84 1.342 . S
N85 N86 1.388 . S
N86 Co69 1.993 . S
N86 N85 1.388 . S
N86 C87 1.346 . S
C87 N86 1.346 . S
C87 C88 1.396 . S
C87 C97 1.510 . S
C88 C84 1.401 . S
C88 C87 1.396 . S
C89 C84 1.499 . S
C89 H90 0.959 . S
C89 H91 0.960 . S
C89 H92 0.961 . S
H90 C89 0.959 . S
H91 C89 0.960 . S
H92 C89 0.961 . S
O93 Co68 1.967 . S
O93 C101 1.258 . S
O94 Co69 1.941 . S
O94 C101 1.266 . S
H95 C97 0.959 . S
H96 C97 0.961 . S
C97 C87 1.510 . S
C97 H95 0.959 . S
C97 H96 0.961 . S
C97 H98 0.960 . S
H98 C97 0.960 . S
H99 N79 0.862 . S
O100 Co68 1.920 . S
O100 C73 1.289 . S
C101 O93 1.258 . S
C101 O94 1.266 . S
Co102 O105 1.970 . S
Co102 N119 1.989 . S
Co102 O127 1.967 . S
Co102 O134 1.920 . S
Co103 O106 1.966 . S
Co103 N112 2.022 . S
Co103 N120 1.993 . S
Co103 O128 1.941 . S
C104 O105 1.258 . S
C104 O106 1.263 . S
O105 Co102 1.970 . S
O105 C104 1.258 . S
O106 Co103 1.966 . S
O106 C104 1.263 . S
C107 O108 1.235 1_655 S
C107 O134 1.289 . S
O108 C107 1.235 1_455 S
C109 C111 1.400 . S
C109 N112 1.351 . S
C109 C114 1.501 . S
C110 C111 1.387 . S
C110 N113 1.341 . S
C111 C109 1.400 . S
C111 C110 1.387 . S
N112 Co103 2.022 . S
N112 C109 1.351 . S
N112 N113 1.365 . S
N113 C110 1.341 . S
N113 N112 1.365 . S
N113 H133 0.862 . S
C114 C109 1.501 . S
C114 H115 0.961 . S
C114 H116 0.961 . S
C114 H117 0.960 . S
H115 C114 0.961 . S
H116 C114 0.961 . S
H117 C114 0.960 . S
C118 N119 1.342 1_565 S
C118 C122 1.401 . S
C118 C123 1.499 . S
N119 Co102 1.989 . S
N119 C118 1.342 1_545 S
N119 N120 1.388 . S
N120 Co103 1.993 . S
N120 N119 1.388 . S
N120 C121 1.346 1_545 S
C121 N120 1.346 1_565 S
C121 C122 1.396 . S
C121 C131 1.510 . S
C122 C118 1.401 . S
C122 C121 1.396 . S
C123 C118 1.499 . S
C123 H124 0.959 . S
C123 H125 0.960 . S
C123 H126 0.961 . S
H124 C123 0.959 . S
H125 C123 0.960 . S
H126 C123 0.961 . S
O127 Co102 1.967 . S
O127 C135 1.258 . S
O128 Co103 1.941 . S
O128 C135 1.266 . S
H129 C131 0.959 . S
H130 C131 0.961 . S
C131 C121 1.510 . S
C131 H129 0.959 . S
C131 H130 0.961 . S
C131 H132 0.964 1_565 S
H132 C131 0.964 1_545 S
H133 N113 0.862 . S
O134 Co102 1.920 . S
O134 C107 1.289 . S
C135 O127 1.258 . S
C135 O128 1.266 . S
Co136 O139 1.970 . S
Co136 N153 1.989 . S
Co136 O161 1.967 . S
Co136 O168 1.920 . S
Co137 O140 1.966 . S
Co137 N146 2.022 . S
Co137 N154 1.993 . S
Co137 O162 1.941 . S
C138 O139 1.258 . S
C138 O140 1.263 . S
O139 Co136 1.970 . S
O139 C138 1.258 . S
O140 Co137 1.966 . S
O140 C138 1.263 . S
C141 O142 1.235 . S
C141 O168 1.289 . S
O142 C141 1.235 . S
C143 C145 1.400 . S
C143 N146 1.351 . S
C143 C148 1.501 . S
C144 C145 1.387 . S
C144 N147 1.341 . S
C145 C143 1.400 . S
C145 C144 1.387 . S
N146 Co137 2.022 . S
N146 C143 1.351 . S
N146 N147 1.365 . S
N147 C144 1.341 . S
N147 N146 1.365 . S
N147 H167 0.862 . S
C148 C143 1.501 . S
C148 H149 0.961 . S
C148 H150 0.961 . S
C148 H151 0.960 . S
H149 C148 0.961 . S
H150 C148 0.961 . S
H151 C148 0.960 . S
C152 N153 1.342 1_545 S
C152 C156 1.401 . S
C152 C157 1.499 . S
N153 Co136 1.989 . S
N153 C152 1.342 1_565 S
N153 N154 1.388 . S
N154 Co137 1.993 . S
N154 N153 1.388 . S
N154 C155 1.346 1_565 S
C155 N154 1.346 1_545 S
C155 C156 1.396 . S
C155 C165 1.510 . S
C156 C152 1.401 . S
C156 C155 1.396 . S
C157 C152 1.499 . S
C157 H158 0.959 . S
C157 H159 0.960 . S
C157 H160 0.961 . S
H158 C157 0.959 . S
H159 C157 0.960 . S
H160 C157 0.961 . S
O161 Co136 1.967 . S
O161 C169 1.258 . S
O162 Co137 1.941 . S
O162 C169 1.266 . S
H163 C165 0.959 . S
H164 C165 0.961 . S
C165 C155 1.510 . S
C165 H163 0.959 . S
C165 H164 0.961 . S
C165 H166 0.964 1_545 S
H166 C165 0.964 1_565 S
H167 N147 0.862 . S
O168 Co136 1.920 . S
O168 C141 1.289 . S
C169 O161 1.258 . S
C169 O162 1.266 . S
Co170 O173 1.970 . S
Co170 N187 1.989 . S
Co170 O195 1.967 . S
Co170 O202 1.920 . S
Co171 O174 1.966 . S
Co171 N180 2.022 . S
Co171 N188 1.993 . S
Co171 O196 1.941 . S
C172 O173 1.258 . S
C172 O174 1.263 . S
O173 Co170 1.970 . S
O173 C172 1.258 . S
O174 Co171 1.966 . S
O174 C172 1.263 . S
C175 O176 1.235 1_455 S
C175 O202 1.289 . S
O176 C175 1.235 1_655 S
C177 C179 1.400 . S
C177 N180 1.351 . S
C177 C182 1.501 . S
C178 C179 1.387 . S
C178 N181 1.341 . S
C179 C177 1.400 . S
C179 C178 1.387 . S
N180 Co171 2.022 . S
N180 C177 1.351 . S
N180 N181 1.365 . S
N181 C178 1.341 . S
N181 N180 1.365 . S
N181 H201 0.862 . S
C182 C177 1.501 . S
C182 H183 0.961 . S
C182 H184 0.961 . S
C182 H185 0.960 . S
H183 C182 0.961 . S
H184 C182 0.961 . S
H185 C182 0.960 . S
C186 N187 1.342 . S
C186 C190 1.401 . S
C186 C191 1.499 . S
N187 Co170 1.989 . S
N187 C186 1.342 . S
N187 N188 1.388 . S
N188 Co171 1.993 . S
N188 N187 1.388 . S
N188 C189 1.346 . S
C189 N188 1.346 . S
C189 C190 1.396 . S
C189 C199 1.510 . S
C190 C186 1.401 . S
C190 C189 1.396 . S
C191 C186 1.499 . S
C191 H192 0.959 . S
C191 H193 0.960 . S
C191 H194 0.961 . S
H192 C191 0.959 . S
H193 C191 0.960 . S
H194 C191 0.961 . S
O195 Co170 1.967 . S
O195 C203 1.258 . S
O196 Co171 1.941 . S
O196 C203 1.266 . S
H197 C199 0.959 . S
H198 C199 0.961 . S
C199 C189 1.510 . S
C199 H197 0.959 . S
C199 H198 0.961 . S
C199 H200 0.960 . S
H200 C199 0.960 . S
H201 N181 0.862 . S
O202 Co170 1.920 . S
O202 C175 1.289 . S
C203 O195 1.258 . S
C203 O196 1.266 . S
Co204 O207 1.970 . S
Co204 N221 1.989 . S
Co204 O229 1.967 . S
Co204 O236 1.920 . S
Co205 O208 1.966 . S
Co205 N214 2.022 . S
Co205 N222 1.993 . S
Co205 O230 1.941 . S
C206 O207 1.258 . S
C206 O208 1.263 . S
O207 Co204 1.970 . S
O207 C206 1.258 . S
O208 Co205 1.966 . S
O208 C206 1.263 . S
C209 O210 1.235 . S
C209 O236 1.289 . S
O210 C209 1.235 . S
C211 C213 1.400 . S
C211 N214 1.351 . S
C211 C216 1.501 . S
C212 C213 1.387 . S
C212 N215 1.341 . S
C213 C211 1.400 . S
C213 C212 1.387 . S
N214 Co205 2.022 . S
N214 C211 1.351 . S
N214 N215 1.365 . S
N215 C212 1.341 . S
N215 N214 1.365 . S
N215 H235 0.862 . S
C216 C211 1.501 . S
C216 H217 0.961 . S
C216 H218 0.961 . S
C216 H219 0.960 . S
H217 C216 0.961 . S
H218 C216 0.961 . S
H219 C216 0.960 . S
C220 N221 1.342 . S
C220 C224 1.401 . S
C220 C225 1.499 . S
N221 Co204 1.989 . S
N221 C220 1.342 . S
N221 N222 1.388 . S
N222 Co205 1.993 . S
N222 N221 1.388 . S
N222 C223 1.346 . S
C223 N222 1.346 . S
C223 C224 1.396 . S
C223 C233 1.510 . S
C224 C220 1.401 . S
C224 C223 1.396 . S
C225 C220 1.499 . S
C225 H226 0.959 . S
C225 H227 0.960 . S
C225 H228 0.961 . S
H226 C225 0.959 . S
H227 C225 0.960 . S
H228 C225 0.961 . S
O229 Co204 1.967 . S
O229 C237 1.258 . S
O230 Co205 1.941 . S
O230 C237 1.266 . S
H231 C233 0.959 . S
H232 C233 0.961 . S
C233 C223 1.510 . S
C233 H231 0.959 . S
C233 H232 0.961 . S
C233 H234 0.960 . S
H234 C233 0.960 . S
H235 N215 0.862 . S
O236 Co204 1.920 . S
O236 C209 1.289 . S
C237 O229 1.258 . S
C237 O230 1.266 . S
Co238 O241 1.970 . S
Co238 N255 1.989 . S
Co238 O263 1.967 . S
Co238 O270 1.920 . S
Co239 O242 1.966 . S
Co239 N248 2.022 . S
Co239 N256 1.993 . S
Co239 O264 1.941 . S
C240 O241 1.258 . S
C240 O242 1.263 . S
O241 Co238 1.970 . S
O241 C240 1.258 . S
O242 Co239 1.966 . S
O242 C240 1.263 . S
C243 O244 1.235 1_455 S
C243 O270 1.289 . S
O244 C243 1.235 1_655 S
C245 C247 1.400 . S
C245 N248 1.351 . S
C245 C250 1.501 . S
C246 C247 1.387 . S
C246 N249 1.341 . S
C247 C245 1.400 . S
C247 C246 1.387 . S
N248 Co239 2.022 . S
N248 C245 1.351 . S
N248 N249 1.365 . S
N249 C246 1.341 . S
N249 N248 1.365 . S
N249 H269 0.862 . S
C250 C245 1.501 . S
C250 H251 0.961 . S
C250 H252 0.961 . S
C250 H253 0.960 . S
H251 C250 0.961 . S
H252 C250 0.961 . S
H253 C250 0.960 . S
C254 N255 1.342 1_545 S
C254 C258 1.401 . S
C254 C259 1.499 . S
N255 Co238 1.989 . S
N255 C254 1.342 1_565 S
N255 N256 1.388 . S
N256 Co239 1.993 . S
N256 N255 1.388 . S
N256 C257 1.346 1_565 S
C257 N256 1.346 1_545 S
C257 C258 1.396 . S
C257 C267 1.510 . S
C258 C254 1.401 . S
C258 C257 1.396 . S
C259 C254 1.499 . S
C259 H260 0.959 . S
C259 H261 0.960 . S
C259 H262 0.961 . S
H260 C259 0.959 . S
H261 C259 0.960 . S
H262 C259 0.961 . S
O263 Co238 1.967 . S
O263 C271 1.258 . S
O264 Co239 1.941 . S
O264 C271 1.266 . S
H265 C267 0.959 . S
H266 C267 0.961 . S
C267 C257 1.510 . S
C267 H265 0.959 . S
C267 H266 0.961 . S
C267 H268 0.964 1_545 S
H268 C267 0.964 1_565 S
H269 N249 0.862 . S
O270 Co238 1.920 . S
O270 C243 1.289 . S
C271 O263 1.258 . S
C271 O264 1.266 . S
Co272 O275 1.970 . S
Co272 N289 1.989 . S
Co272 O297 1.967 . S
Co272 O304 1.920 . S
Co273 O276 1.966 . S
Co273 N282 2.022 . S
Co273 N290 1.993 . S
Co273 O298 1.941 . S
C274 O275 1.258 . S
C274 O276 1.263 . S
O275 Co272 1.970 . S
O275 C274 1.258 . S
O276 Co273 1.966 . S
O276 C274 1.263 . S
C277 O278 1.235 . S
C277 O304 1.289 . S
O278 C277 1.235 . S
C279 C281 1.400 . S
C279 N282 1.351 . S
C279 C284 1.501 . S
C280 C281 1.387 . S
C280 N283 1.341 . S
C281 C279 1.400 . S
C281 C280 1.387 . S
N282 Co273 2.022 . S
N282 C279 1.351 . S
N282 N283 1.365 . S
N283 C280 1.341 . S
N283 N282 1.365 . S
N283 H303 0.862 . S
C284 C279 1.501 . S
C284 H285 0.961 . S
C284 H286 0.961 . S
C284 H287 0.960 . S
H285 C284 0.961 . S
H286 C284 0.961 . S
H287 C284 0.960 . S
C288 N289 1.342 . S
C288 C292 1.401 . S
C288 C293 1.499 . S
N289 Co272 1.989 . S
N289 C288 1.342 . S
N289 N290 1.388 . S
N290 Co273 1.993 . S
N290 N289 1.388 . S
N290 C291 1.346 . S
C291 N290 1.346 . S
C291 C292 1.396 . S
C291 C301 1.510 . S
C292 C288 1.401 . S
C292 C291 1.396 . S
C293 C288 1.499 . S
C293 H294 0.959 . S
C293 H295 0.960 . S
C293 H296 0.961 . S
H294 C293 0.959 . S
H295 C293 0.960 . S
H296 C293 0.961 . S
O297 Co272 1.967 . S
O297 C305 1.258 . S
O298 Co273 1.941 . S
O298 C305 1.266 . S
H299 C301 0.959 . S
H300 C301 0.961 . S
C301 C291 1.510 . S
C301 H299 0.959 . S
C301 H300 0.961 . S
C301 H302 0.960 . S
H302 C301 0.960 . S
H303 N283 0.862 . S
O304 Co272 1.920 . S
O304 C277 1.289 . S
C305 O297 1.258 . S
C305 O298 1.266 . S
Co306 O309 1.970 . S
Co306 N323 1.989 . S
Co306 O331 1.967 . S
Co306 O338 1.920 . S
Co307 O310 1.966 . S
Co307 N316 2.022 . S
Co307 N324 1.993 . S
Co307 O332 1.941 . S
C308 O309 1.258 . S
C308 O310 1.263 . S
O309 Co306 1.970 . S
O309 C308 1.258 . S
O310 Co307 1.966 . S
O310 C308 1.263 . S
C311 O312 1.235 1_655 S
C311 O338 1.289 . S
O312 C311 1.235 1_455 S
C313 C315 1.400 . S
C313 N316 1.351 . S
C313 C318 1.501 . S
C314 C315 1.387 . S
C314 N317 1.341 . S
C315 C313 1.400 . S
C315 C314 1.387 . S
N316 Co307 2.022 . S
N316 C313 1.351 . S
N316 N317 1.365 . S
N317 C314 1.341 . S
N317 N316 1.365 . S
N317 H337 0.862 . S
C318 C313 1.501 . S
C318 H319 0.961 . S
C318 H320 0.961 . S
C318 H321 0.960 . S
H319 C318 0.961 . S
H320 C318 0.961 . S
H321 C318 0.960 . S
C322 N323 1.342 . S
C322 C326 1.401 . S
C322 C327 1.499 . S
N323 Co306 1.989 . S
N323 C322 1.342 . S
N323 N324 1.388 . S
N324 Co307 1.993 . S
N324 N323 1.388 . S
N324 C325 1.346 . S
C325 N324 1.346 . S
C325 C326 1.396 . S
C325 C335 1.510 . S
C326 C322 1.401 . S
C326 C325 1.396 . S
C327 C322 1.499 . S
C327 H328 0.959 . S
C327 H329 0.960 . S
C327 H330 0.961 . S
H328 C327 0.959 . S
H329 C327 0.960 . S
H330 C327 0.961 . S
O331 Co306 1.967 . S
O331 C339 1.258 . S
O332 Co307 1.941 . S
O332 C339 1.266 . S
H333 C335 0.959 . S
H334 C335 0.961 . S
C335 C325 1.510 . S
C335 H333 0.959 . S
C335 H334 0.961 . S
C335 H336 0.960 . S
H336 C335 0.960 . S
H337 N317 0.862 . S
O338 Co306 1.920 . S
O338 C311 1.289 . S
C339 O331 1.258 . S
C339 O332 1.266 . S
Co340 O343 1.970 . S
Co340 N357 1.989 . S
Co340 O365 1.967 . S
Co340 O372 1.920 . S
Co341 O344 1.966 . S
Co341 N350 2.022 . S
Co341 N358 1.993 . S
Co341 O366 1.941 . S
C342 O343 1.258 . S
C342 O344 1.263 . S
O343 Co340 1.970 . S
O343 C342 1.258 . S
O344 Co341 1.966 . S
O344 C342 1.263 . S
C345 O346 1.235 . S
C345 O372 1.289 . S
O346 C345 1.235 . S
C347 C349 1.400 . S
C347 N350 1.351 . S
C347 C352 1.501 . S
C348 C349 1.387 . S
C348 N351 1.341 . S
C349 C347 1.400 . S
C349 C348 1.387 . S
N350 Co341 2.022 . S
N350 C347 1.351 . S
N350 N351 1.365 . S
N351 C348 1.341 . S
N351 N350 1.365 . S
N351 H371 0.862 . S
C352 C347 1.501 . S
C352 H353 0.961 . S
C352 H354 0.961 . S
C352 H355 0.960 . S
H353 C352 0.961 . S
H354 C352 0.961 . S
H355 C352 0.960 . S
C356 N357 1.342 . S
C356 C360 1.401 . S
C356 C361 1.499 . S
N357 Co340 1.989 . S
N357 C356 1.342 . S
N357 N358 1.388 . S
N358 Co341 1.993 . S
N358 N357 1.388 . S
N358 C359 1.346 . S
C359 N358 1.346 . S
C359 C360 1.396 . S
C359 C369 1.510 . S
C360 C356 1.401 . S
C360 C359 1.396 . S
C361 C356 1.499 . S
C361 H362 0.959 . S
C361 H363 0.960 . S
C361 H364 0.961 . S
H362 C361 0.959 . S
H363 C361 0.960 . S
H364 C361 0.961 . S
O365 Co340 1.967 . S
O365 C373 1.258 . S
O366 Co341 1.941 . S
O366 C373 1.266 . S
H367 C369 0.959 . S
H368 C369 0.961 . S
C369 C359 1.510 . S
C369 H367 0.959 . S
C369 H368 0.961 . S
C369 H370 0.960 . S
H370 C369 0.960 . S
H371 N351 0.862 . S
O372 Co340 1.920 . S
O372 C345 1.289 . S
C373 O365 1.258 . S
C373 O366 1.266 . S
Co374 O377 1.970 . S
Co374 N391 1.989 . S
Co374 O399 1.967 . S
Co374 O406 1.920 . S
Co375 O378 1.966 . S
Co375 N384 2.022 . S
Co375 N392 1.993 . S
Co375 O400 1.941 . S
C376 O377 1.258 . S
C376 O378 1.263 . S
O377 Co374 1.970 . S
O377 C376 1.258 . S
O378 Co375 1.966 . S
O378 C376 1.263 . S
C379 O380 1.235 1_655 S
C379 O406 1.289 . S
O380 C379 1.235 1_455 S
C381 C383 1.400 . S
C381 N384 1.351 . S
C381 C386 1.501 . S
C382 C383 1.387 . S
C382 N385 1.341 . S
C383 C381 1.400 . S
C383 C382 1.387 . S
N384 Co375 2.022 . S
N384 C381 1.351 . S
N384 N385 1.365 . S
N385 C382 1.341 . S
N385 N384 1.365 . S
N385 H405 0.862 . S
C386 C381 1.501 . S
C386 H387 0.961 . S
C386 H388 0.961 . S
C386 H389 0.960 . S
H387 C386 0.961 . S
H388 C386 0.961 . S
H389 C386 0.960 . S
C390 N391 1.342 . S
C390 C394 1.401 . S
C390 C395 1.499 . S
N391 Co374 1.989 . S
N391 C390 1.342 . S
N391 N392 1.388 . S
N392 Co375 1.993 . S
N392 N391 1.388 . S
N392 C393 1.346 . S
C393 N392 1.346 . S
C393 C394 1.396 . S
C393 C403 1.510 . S
C394 C390 1.401 . S
C394 C393 1.396 . S
C395 C390 1.499 . S
C395 H396 0.959 . S
C395 H397 0.960 . S
C395 H398 0.961 . S
H396 C395 0.959 . S
H397 C395 0.960 . S
H398 C395 0.961 . S
O399 Co374 1.967 . S
O399 C407 1.258 . S
O400 Co375 1.941 . S
O400 C407 1.266 . S
H401 C403 0.959 . S
H402 C403 0.961 . S
C403 C393 1.510 . S
C403 H401 0.959 . S
C403 H402 0.961 . S
C403 H404 0.960 . S
H404 C403 0.960 . S
H405 N385 0.862 . S
O406 Co374 1.920 . S
O406 C379 1.289 . S
C407 O399 1.258 . S
C407 O400 1.266 . S
Co408 O411 1.970 . S
Co408 N425 1.989 . S
Co408 O433 1.967 . S
Co408 O440 1.920 . S
Co409 O412 1.966 . S
Co409 N418 2.022 . S
Co409 N426 1.993 . S
Co409 O434 1.941 . S
C410 O411 1.258 . S
C410 O412 1.263 . S
O411 Co408 1.970 . S
O411 C410 1.258 . S
O412 Co409 1.966 . S
O412 C410 1.263 . S
C413 O414 1.235 . S
C413 O440 1.289 . S
O414 C413 1.235 . S
C415 C417 1.400 . S
C415 N418 1.351 . S
C415 C420 1.501 . S
C416 C417 1.387 . S
C416 N419 1.341 . S
C417 C415 1.400 . S
C417 C416 1.387 . S
N418 Co409 2.022 . S
N418 C415 1.351 . S
N418 N419 1.365 . S
N419 C416 1.341 . S
N419 N418 1.365 . S
N419 H439 0.862 . S
C420 C415 1.501 . S
C420 H421 0.961 . S
C420 H422 0.961 . S
C420 H423 0.960 . S
H421 C420 0.961 . S
H422 C420 0.961 . S
H423 C420 0.960 . S
C424 N425 1.342 . S
C424 C428 1.401 . S
C424 C429 1.499 . S
N425 Co408 1.989 . S
N425 C424 1.342 . S
N425 N426 1.388 . S
N426 Co409 1.993 . S
N426 N425 1.388 . S
N426 C427 1.346 . S
C427 N426 1.346 . S
C427 C428 1.396 . S
C427 C437 1.510 . S
C428 C424 1.401 . S
C428 C427 1.396 . S
C429 C424 1.499 . S
C429 H430 0.959 . S
C429 H431 0.960 . S
C429 H432 0.961 . S
H430 C429 0.959 . S
H431 C429 0.960 . S
H432 C429 0.961 . S
O433 Co408 1.967 . S
O433 C441 1.258 . S
O434 Co409 1.941 . S
O434 C441 1.266 . S
H435 C437 0.959 . S
H436 C437 0.961 . S
C437 C427 1.510 . S
C437 H435 0.959 . S
C437 H436 0.961 . S
C437 H438 0.960 . S
H438 C437 0.960 . S
H439 N419 0.862 . S
O440 Co408 1.920 . S
O440 C413 1.289 . S
C441 O433 1.258 . S
C441 O434 1.266 . S
Co442 O445 1.970 . S
Co442 N459 1.989 . S
Co442 O467 1.967 . S
Co442 O474 1.920 . S
Co443 O446 1.966 . S
Co443 N452 2.022 . S
Co443 N460 1.993 . S
Co443 O468 1.941 . S
C444 O445 1.258 . S
C444 O446 1.263 . S
O445 Co442 1.970 . S
O445 C444 1.258 . S
O446 Co443 1.966 . S
O446 C444 1.263 . S
C447 O448 1.235 1_455 S
C447 O474 1.289 . S
O448 C447 1.235 1_655 S
C449 C451 1.400 . S
C449 N452 1.351 . S
C449 C454 1.501 . S
C450 C451 1.387 . S
C450 N453 1.341 . S
C451 C449 1.400 . S
C451 C450 1.387 . S
N452 Co443 2.022 . S
N452 C449 1.351 . S
N452 N453 1.365 . S
N453 C450 1.341 . S
N453 N452 1.365 . S
N453 H473 0.862 . S
C454 C449 1.501 . S
C454 H455 0.961 . S
C454 H456 0.961 . S
C454 H457 0.960 . S
H455 C454 0.961 . S
H456 C454 0.961 . S
H457 C454 0.960 . S
C458 N459 1.342 . S
C458 C462 1.401 . S
C458 C463 1.499 . S
N459 Co442 1.989 . S
N459 C458 1.342 . S
N459 N460 1.388 . S
N460 Co443 1.993 . S
N460 N459 1.388 . S
N460 C461 1.346 . S
C461 N460 1.346 . S
C461 C462 1.396 . S
C461 C471 1.510 . S
C462 C458 1.401 . S
C462 C461 1.396 . S
C463 C458 1.499 . S
C463 H464 0.959 . S
C463 H465 0.960 . S
C463 H466 0.961 . S
H464 C463 0.959 . S
H465 C463 0.960 . S
H466 C463 0.961 . S
O467 Co442 1.967 . S
O467 C475 1.258 . S
O468 Co443 1.941 . S
O468 C475 1.266 . S
H469 C471 0.959 . S
H470 C471 0.961 . S
C471 C461 1.510 . S
C471 H469 0.959 . S
C471 H470 0.961 . S
C471 H472 0.960 . S
H472 C471 0.960 . S
H473 N453 0.862 . S
O474 Co442 1.920 . S
O474 C447 1.289 . S
C475 O467 1.258 . S
C475 O468 1.266 . S
Co476 O479 1.970 . S
Co476 N493 1.989 . S
Co476 O501 1.967 . S
Co476 O508 1.920 . S
Co477 O480 1.966 . S
Co477 N486 2.022 . S
Co477 N494 1.993 . S
Co477 O502 1.941 . S
C478 O479 1.258 . S
C478 O480 1.263 . S
O479 Co476 1.970 . S
O479 C478 1.258 . S
O480 Co477 1.966 . S
O480 C478 1.263 . S
C481 O482 1.235 . S
C481 O508 1.289 . S
O482 C481 1.235 . S
C483 C485 1.400 . S
C483 N486 1.351 . S
C483 C488 1.501 . S
C484 C485 1.387 . S
C484 N487 1.341 . S
C485 C483 1.400 . S
C485 C484 1.387 . S
N486 Co477 2.022 . S
N486 C483 1.351 . S
N486 N487 1.365 . S
N487 C484 1.341 . S
N487 N486 1.365 . S
N487 H507 0.862 . S
C488 C483 1.501 . S
C488 H489 0.961 . S
C488 H490 0.961 . S
C488 H491 0.960 . S
H489 C488 0.961 . S
H490 C488 0.961 . S
H491 C488 0.960 . S
C492 N493 1.342 . S
C492 C496 1.401 . S
C492 C497 1.499 . S
N493 Co476 1.989 . S
N493 C492 1.342 . S
N493 N494 1.388 . S
N494 Co477 1.993 . S
N494 N493 1.388 . S
N494 C495 1.346 . S
C495 N494 1.346 . S
C495 C496 1.396 . S
C495 C505 1.510 . S
C496 C492 1.401 . S
C496 C495 1.396 . S
C497 C492 1.499 . S
C497 H498 0.959 . S
C497 H499 0.960 . S
C497 H500 0.961 . S
H498 C497 0.959 . S
H499 C497 0.960 . S
H500 C497 0.961 . S
O501 Co476 1.967 . S
O501 C509 1.258 . S
O502 Co477 1.941 . S
O502 C509 1.266 . S
H503 C505 0.959 . S
H504 C505 0.961 . S
C505 C495 1.510 . S
C505 H503 0.959 . S
C505 H504 0.961 . S
C505 H506 0.960 . S
H506 C505 0.960 . S
H507 N487 0.862 . S
O508 Co476 1.920 . S
O508 C481 1.289 . S
C509 O501 1.258 . S
C509 O502 1.266 . S
Co510 O513 1.970 . S
Co510 N527 1.989 . S
Co510 O535 1.967 . S
Co510 O542 1.920 . S
Co511 O514 1.966 . S
Co511 N520 2.022 . S
Co511 N528 1.993 . S
Co511 O536 1.941 . S
C512 O513 1.258 . S
C512 O514 1.263 . S
O513 Co510 1.970 . S
O513 C512 1.258 . S
O514 Co511 1.966 . S
O514 C512 1.263 . S
C515 O516 1.235 1_455 S
C515 O542 1.289 . S
O516 C515 1.235 1_655 S
C517 C519 1.400 . S
C517 N520 1.351 . S
C517 C522 1.501 . S
C518 C519 1.387 . S
C518 N521 1.341 . S
C519 C517 1.400 . S
C519 C518 1.387 . S
N520 Co511 2.022 . S
N520 C517 1.351 . S
N520 N521 1.365 . S
N521 C518 1.341 . S
N521 N520 1.365 . S
N521 H541 0.862 . S
C522 C517 1.501 . S
C522 H523 0.961 . S
C522 H524 0.961 . S
C522 H525 0.960 . S
H523 C522 0.961 . S
H524 C522 0.961 . S
H525 C522 0.960 . S
C526 N527 1.342 . S
C526 C530 1.401 . S
C526 C531 1.499 . S
N527 Co510 1.989 . S
N527 C526 1.342 . S
N527 N528 1.388 . S
N528 Co511 1.993 . S
N528 N527 1.388 . S
N528 C529 1.346 . S
C529 N528 1.346 . S
C529 C530 1.396 . S
C529 C539 1.510 . S
C530 C526 1.401 . S
C530 C529 1.396 . S
C531 C526 1.499 . S
C531 H532 0.959 . S
C531 H533 0.960 . S
C531 H534 0.961 . S
H532 C531 0.959 . S
H533 C531 0.960 . S
H534 C531 0.961 . S
O535 Co510 1.967 . S
O535 C543 1.258 . S
O536 Co511 1.941 . S
O536 C543 1.266 . S
H537 C539 0.959 . S
H538 C539 0.961 . S
C539 C529 1.510 . S
C539 H537 0.959 . S
C539 H538 0.961 . S
C539 H540 0.960 . S
H540 C539 0.960 . S
H541 N521 0.862 . S
O542 Co510 1.920 . S
O542 C515 1.289 . S
C543 O535 1.258 . S
C543 O536 1.266 . S
Co544 O547 1.970 . S
Co544 N561 1.989 . S
Co544 O569 1.967 . S
Co544 O576 1.920 . S
Co545 O548 1.966 . S
Co545 N554 2.022 . S
Co545 N562 1.993 . S
Co545 O570 1.941 . S
C546 O547 1.258 . S
C546 O548 1.263 . S
O547 Co544 1.970 . S
O547 C546 1.258 . S
O548 Co545 1.966 . S
O548 C546 1.263 . S
C549 O550 1.235 . S
C549 O576 1.289 . S
O550 C549 1.235 . S
C551 C553 1.400 . S
C551 N554 1.351 . S
C551 C556 1.501 . S
C552 C553 1.387 . S
C552 N555 1.341 . S
C553 C551 1.400 . S
C553 C552 1.387 . S
N554 Co545 2.022 . S
N554 C551 1.351 . S
N554 N555 1.365 . S
N555 C552 1.341 . S
N555 N554 1.365 . S
N555 H575 0.862 . S
C556 C551 1.501 . S
C556 H557 0.961 . S
C556 H558 0.961 . S
C556 H559 0.960 . S
H557 C556 0.961 . S
H558 C556 0.961 . S
H559 C556 0.960 . S
C560 N561 1.342 1_565 S
C560 C564 1.401 . S
C560 C565 1.499 . S
N561 Co544 1.989 . S
N561 C560 1.342 1_545 S
N561 N562 1.388 . S
N562 Co545 1.993 . S
N562 N561 1.388 . S
N562 C563 1.346 1_545 S
C563 N562 1.346 1_565 S
C563 C564 1.396 . S
C563 C573 1.510 . S
C564 C560 1.401 . S
C564 C563 1.396 . S
C565 C560 1.499 . S
C565 H566 0.959 . S
C565 H567 0.960 . S
C565 H568 0.961 . S
H566 C565 0.959 . S
H567 C565 0.960 . S
H568 C565 0.961 . S
O569 Co544 1.967 . S
O569 C577 1.258 . S
O570 Co545 1.941 . S
O570 C577 1.266 . S
H571 C573 0.959 . S
H572 C573 0.961 . S
C573 C563 1.510 . S
C573 H571 0.959 . S
C573 H572 0.961 . S
C573 H574 0.963 1_565 S
H574 C573 0.963 1_545 S
H575 N555 0.862 . S
O576 Co544 1.920 . S
O576 C549 1.289 . S
C577 O569 1.258 . S
C577 O570 1.266 . S
Co578 O581 1.970 . S
Co578 N595 1.989 . S
Co578 O603 1.967 . S
Co578 O610 1.920 . S
Co579 O582 1.966 . S
Co579 N588 2.022 . S
Co579 N596 1.993 . S
Co579 O604 1.941 . S
C580 O581 1.258 . S
C580 O582 1.263 . S
O581 Co578 1.970 . S
O581 C580 1.258 . S
O582 Co579 1.966 . S
O582 C580 1.263 . S
C583 O584 1.235 . S
C583 O610 1.289 . S
O584 C583 1.235 . S
C585 C587 1.400 . S
C585 N588 1.351 . S
C585 C590 1.501 . S
C586 C587 1.387 . S
C586 N589 1.341 . S
C587 C585 1.400 . S
C587 C586 1.387 . S
N588 Co579 2.022 . S
N588 C585 1.351 . S
N588 N589 1.365 . S
N589 C586 1.341 . S
N589 N588 1.365 . S
N589 H609 0.862 . S
C590 C585 1.501 . S
C590 H591 0.961 . S
C590 H592 0.961 . S
C590 H593 0.960 . S
H591 C590 0.961 . S
H592 C590 0.961 . S
H593 C590 0.960 . S
C594 N595 1.342 . S
C594 C598 1.401 . S
C594 C599 1.499 . S
N595 Co578 1.989 . S
N595 C594 1.342 . S
N595 N596 1.388 . S
N596 Co579 1.993 . S
N596 N595 1.388 . S
N596 C597 1.346 . S
C597 N596 1.346 . S
C597 C598 1.396 . S
C597 C607 1.510 . S
C598 C594 1.401 . S
C598 C597 1.396 . S
C599 C594 1.499 . S
C599 H600 0.959 . S
C599 H601 0.960 . S
C599 H602 0.961 . S
H600 C599 0.959 . S
H601 C599 0.960 . S
H602 C599 0.961 . S
O603 Co578 1.967 . S
O603 C611 1.258 . S
O604 Co579 1.941 . S
O604 C611 1.266 . S
H605 C607 0.959 . S
H606 C607 0.961 . S
C607 C597 1.510 . S
C607 H605 0.959 . S
C607 H606 0.961 . S
C607 H608 0.960 . S
H608 C607 0.960 . S
H609 N589 0.862 . S
O610 Co578 1.920 . S
O610 C583 1.289 . S
C611 O603 1.258 . S
C611 O604 1.266 . S
Co612 O615 1.970 . S
Co612 N629 1.989 . S
Co612 O637 1.967 . S
Co612 O644 1.920 . S
Co613 O616 1.966 . S
Co613 N622 2.022 . S
Co613 N630 1.993 . S
Co613 O638 1.941 . S
C614 O615 1.258 . S
C614 O616 1.263 . S
O615 Co612 1.970 . S
O615 C614 1.258 . S
O616 Co613 1.966 . S
O616 C614 1.263 . S
C617 O618 1.235 . S
C617 O644 1.289 . S
O618 C617 1.235 . S
C619 C621 1.400 . S
C619 N622 1.351 . S
C619 C624 1.501 . S
C620 C621 1.387 . S
C620 N623 1.341 . S
C621 C619 1.400 . S
C621 C620 1.387 . S
N622 Co613 2.022 . S
N622 C619 1.351 . S
N622 N623 1.365 . S
N623 C620 1.341 . S
N623 N622 1.365 . S
N623 H643 0.862 . S
C624 C619 1.501 . S
C624 H625 0.961 . S
C624 H626 0.961 . S
C624 H627 0.960 . S
H625 C624 0.961 . S
H626 C624 0.961 . S
H627 C624 0.960 . S
C628 N629 1.342 . S
C628 C632 1.401 . S
C628 C633 1.499 . S
N629 Co612 1.989 . S
N629 C628 1.342 . S
N629 N630 1.388 . S
N630 Co613 1.993 . S
N630 N629 1.388 . S
N630 C631 1.346 . S
C631 N630 1.346 . S
C631 C632 1.396 . S
C631 C641 1.510 . S
C632 C628 1.401 . S
C632 C631 1.396 . S
C633 C628 1.499 . S
C633 H634 0.959 . S
C633 H635 0.960 . S
C633 H636 0.961 . S
H634 C633 0.959 . S
H635 C633 0.960 . S
H636 C633 0.961 . S
O637 Co612 1.967 . S
O637 C645 1.258 . S
O638 Co613 1.941 . S
O638 C645 1.266 . S
H639 C641 0.959 . S
H640 C641 0.961 . S
C641 C631 1.510 . S
C641 H639 0.959 . S
C641 H640 0.961 . S
C641 H642 0.960 . S
H642 C641 0.960 . S
H643 N623 0.862 . S
O644 Co612 1.920 . S
O644 C617 1.289 . S
C645 O637 1.258 . S
C645 O638 1.266 . S
Co646 O649 1.970 . S
Co646 N663 1.989 . S
Co646 O671 1.967 . S
Co646 O678 1.920 . S
Co647 O650 1.966 . S
Co647 N656 2.022 . S
Co647 N664 1.993 . S
Co647 O672 1.941 . S
C648 O649 1.258 . S
C648 O650 1.263 . S
O649 Co646 1.970 . S
O649 C648 1.258 . S
O650 Co647 1.966 . S
O650 C648 1.263 . S
C651 O652 1.235 . S
C651 O678 1.289 . S
O652 C651 1.235 . S
C653 C655 1.400 . S
C653 N656 1.351 . S
C653 C658 1.501 . S
C654 C655 1.387 . S
C654 N657 1.341 . S
C655 C653 1.400 . S
C655 C654 1.387 . S
N656 Co647 2.022 . S
N656 C653 1.351 . S
N656 N657 1.365 . S
N657 C654 1.341 . S
N657 N656 1.365 . S
N657 H677 0.862 . S
C658 C653 1.501 . S
C658 H659 0.961 . S
C658 H660 0.961 . S
C658 H661 0.960 . S
H659 C658 0.961 . S
H660 C658 0.961 . S
H661 C658 0.960 . S
C662 N663 1.342 1_565 S
C662 C666 1.401 . S
C662 C667 1.499 . S
N663 Co646 1.989 . S
N663 C662 1.342 1_545 S
N663 N664 1.388 . S
N664 Co647 1.993 . S
N664 N663 1.388 . S
N664 C665 1.346 1_545 S
C665 N664 1.346 1_565 S
C665 C666 1.396 . S
C665 C675 1.510 . S
C666 C662 1.401 . S
C666 C665 1.396 . S
C667 C662 1.499 . S
C667 H668 0.959 . S
C667 H669 0.960 . S
C667 H670 0.961 . S
H668 C667 0.959 . S
H669 C667 0.960 . S
H670 C667 0.961 . S
O671 Co646 1.967 . S
O671 C679 1.258 . S
O672 Co647 1.941 . S
O672 C679 1.266 . S
H673 C675 0.959 . S
H674 C675 0.961 . S
C675 C665 1.510 . S
C675 H673 0.959 . S
C675 H674 0.961 . S
C675 H676 0.964 1_565 S
H676 C675 0.964 1_545 S
H677 N657 0.862 . S
O678 Co646 1.920 . S
O678 C651 1.289 . S
C679 O671 1.258 . S
C679 O672 1.266 . S
Co680 O683 1.970 . S
Co680 N697 1.989 . S
Co680 O705 1.967 . S
Co680 O712 1.920 . S
Co681 O684 1.966 . S
Co681 N690 2.022 . S
Co681 N698 1.993 . S
Co681 O706 1.941 . S
C682 O683 1.258 . S
C682 O684 1.263 . S
O683 Co680 1.970 . S
O683 C682 1.258 . S
O684 Co681 1.966 . S
O684 C682 1.263 . S
C685 O686 1.235 . S
C685 O712 1.289 . S
O686 C685 1.235 . S
C687 C689 1.400 . S
C687 N690 1.351 . S
C687 C692 1.501 . S
C688 C689 1.387 . S
C688 N691 1.341 . S
C689 C687 1.400 . S
C689 C688 1.387 . S
N690 Co681 2.022 . S
N690 C687 1.351 . S
N690 N691 1.365 . S
N691 C688 1.341 . S
N691 N690 1.365 . S
N691 H711 0.862 . S
C692 C687 1.501 . S
C692 H693 0.961 . S
C692 H694 0.961 . S
C692 H695 0.960 . S
H693 C692 0.961 . S
H694 C692 0.961 . S
H695 C692 0.960 . S
C696 N697 1.342 1_545 S
C696 C700 1.401 . S
C696 C701 1.499 . S
N697 Co680 1.989 . S
N697 C696 1.342 1_565 S
N697 N698 1.388 . S
N698 Co681 1.993 . S
N698 N697 1.388 . S
N698 C699 1.346 1_565 S
C699 N698 1.346 1_545 S
C699 C700 1.396 . S
C699 C709 1.510 . S
C700 C696 1.401 . S
C700 C699 1.396 . S
C701 C696 1.499 . S
C701 H702 0.959 . S
C701 H703 0.960 . S
C701 H704 0.961 . S
H702 C701 0.959 . S
H703 C701 0.960 . S
H704 C701 0.961 . S
O705 Co680 1.967 . S
O705 C713 1.258 . S
O706 Co681 1.941 . S
O706 C713 1.266 . S
H707 C709 0.959 . S
H708 C709 0.961 . S
C709 C699 1.510 . S
C709 H707 0.959 . S
C709 H708 0.961 . S
C709 H710 0.963 1_545 S
H710 C709 0.963 1_565 S
H711 N691 0.862 . S
O712 Co680 1.920 . S
O712 C685 1.289 . S
C713 O705 1.258 . S
C713 O706 1.266 . S
Co714 O717 1.970 . S
Co714 N731 1.989 . S
Co714 O739 1.967 . S
Co714 O746 1.920 . S
Co715 O718 1.966 . S
Co715 N724 2.022 . S
Co715 N732 1.993 . S
Co715 O740 1.941 . S
C716 O717 1.258 . S
C716 O718 1.263 . S
O717 Co714 1.970 . S
O717 C716 1.258 . S
O718 Co715 1.966 . S
O718 C716 1.263 . S
C719 O720 1.235 . S
C719 O746 1.289 . S
O720 C719 1.235 . S
C721 C723 1.400 . S
C721 N724 1.351 . S
C721 C726 1.501 . S
C722 C723 1.387 . S
C722 N725 1.341 . S
C723 C721 1.400 . S
C723 C722 1.387 . S
N724 Co715 2.022 . S
N724 C721 1.351 . S
N724 N725 1.365 . S
N725 C722 1.341 . S
N725 N724 1.365 . S
N725 H745 0.862 . S
C726 C721 1.501 . S
C726 H727 0.961 . S
C726 H728 0.961 . S
C726 H729 0.960 . S
H727 C726 0.961 . S
H728 C726 0.961 . S
H729 C726 0.960 . S
C730 N731 1.342 . S
C730 C734 1.401 . S
C730 C735 1.499 . S
N731 Co714 1.989 . S
N731 C730 1.342 . S
N731 N732 1.388 . S
N732 Co715 1.993 . S
N732 N731 1.388 . S
N732 C733 1.346 . S
C733 N732 1.346 . S
C733 C734 1.396 . S
C733 C743 1.510 . S
C734 C730 1.401 . S
C734 C733 1.396 . S
C735 C730 1.499 . S
C735 H736 0.959 . S
C735 H737 0.960 . S
C735 H738 0.961 . S
H736 C735 0.959 . S
H737 C735 0.960 . S
H738 C735 0.961 . S
O739 Co714 1.967 . S
O739 C747 1.258 . S
O740 Co715 1.941 . S
O740 C747 1.266 . S
H741 C743 0.959 . S
H742 C743 0.961 . S
C743 C733 1.510 . S
C743 H741 0.959 . S
C743 H742 0.961 . S
C743 H744 0.960 . S
H744 C743 0.960 . S
H745 N725 0.862 . S
O746 Co714 1.920 . S
O746 C719 1.289 . S
C747 O739 1.258 . S
C747 O740 1.266 . S
Co748 O751 1.970 . S
Co748 N765 1.989 . S
Co748 O773 1.967 . S
Co748 O780 1.920 . S
Co749 O752 1.966 . S
Co749 N758 2.022 . S
Co749 N766 1.993 . S
Co749 O774 1.941 . S
C750 O751 1.258 . S
C750 O752 1.263 . S
O751 Co748 1.970 . S
O751 C750 1.258 . S
O752 Co749 1.966 . S
O752 C750 1.263 . S
C753 O754 1.235 . S
C753 O780 1.289 . S
O754 C753 1.235 . S
C755 C757 1.400 . S
C755 N758 1.351 . S
C755 C760 1.501 . S
C756 C757 1.387 . S
C756 N759 1.341 . S
C757 C755 1.400 . S
C757 C756 1.387 . S
N758 Co749 2.022 . S
N758 C755 1.351 . S
N758 N759 1.365 . S
N759 C756 1.341 . S
N759 N758 1.365 . S
N759 H779 0.862 . S
C760 C755 1.501 . S
C760 H761 0.961 . S
C760 H762 0.961 . S
C760 H763 0.960 . S
H761 C760 0.961 . S
H762 C760 0.961 . S
H763 C760 0.960 . S
C764 N765 1.342 . S
C764 C768 1.401 . S
C764 C769 1.499 . S
N765 Co748 1.989 . S
N765 C764 1.342 . S
N765 N766 1.388 . S
N766 Co749 1.993 . S
N766 N765 1.388 . S
N766 C767 1.346 . S
C767 N766 1.346 . S
C767 C768 1.396 . S
C767 C777 1.510 . S
C768 C764 1.401 . S
C768 C767 1.396 . S
C769 C764 1.499 . S
C769 H770 0.959 . S
C769 H771 0.960 . S
C769 H772 0.961 . S
H770 C769 0.959 . S
H771 C769 0.960 . S
H772 C769 0.961 . S
O773 Co748 1.967 . S
O773 C781 1.258 . S
O774 Co749 1.941 . S
O774 C781 1.266 . S
H775 C777 0.959 . S
H776 C777 0.961 . S
C777 C767 1.510 . S
C777 H775 0.959 . S
C777 H776 0.961 . S
C777 H778 0.960 . S
H778 C777 0.960 . S
H779 N759 0.862 . S
O780 Co748 1.920 . S
O780 C753 1.289 . S
C781 O773 1.258 . S
C781 O774 1.266 . S
Co782 O785 1.970 . S
Co782 N799 1.989 . S
Co782 O807 1.967 . S
Co782 O814 1.920 . S
Co783 O786 1.966 . S
Co783 N792 2.022 . S
Co783 N800 1.993 . S
Co783 O808 1.941 . S
C784 O785 1.258 . S
C784 O786 1.263 . S
O785 Co782 1.970 . S
O785 C784 1.258 . S
O786 Co783 1.966 . S
O786 C784 1.263 . S
C787 O788 1.235 . S
C787 O814 1.289 . S
O788 C787 1.235 . S
C789 C791 1.400 . S
C789 N792 1.351 . S
C789 C794 1.501 . S
C790 C791 1.387 . S
C790 N793 1.341 . S
C791 C789 1.400 . S
C791 C790 1.387 . S
N792 Co783 2.022 . S
N792 C789 1.351 . S
N792 N793 1.365 . S
N793 C790 1.341 . S
N793 N792 1.365 . S
N793 H813 0.862 . S
C794 C789 1.501 . S
C794 H795 0.961 . S
C794 H796 0.961 . S
C794 H797 0.960 . S
H795 C794 0.961 . S
H796 C794 0.961 . S
H797 C794 0.960 . S
C798 N799 1.342 1_545 S
C798 C802 1.401 . S
C798 C803 1.499 . S
N799 Co782 1.989 . S
N799 C798 1.342 1_565 S
N799 N800 1.388 . S
N800 Co783 1.993 . S
N800 N799 1.388 . S
N800 C801 1.346 1_565 S
C801 N800 1.346 1_545 S
C801 C802 1.396 . S
C801 C811 1.510 . S
C802 C798 1.401 . S
C802 C801 1.396 . S
C803 C798 1.499 . S
C803 H804 0.959 . S
C803 H805 0.960 . S
C803 H806 0.961 . S
H804 C803 0.959 . S
H805 C803 0.960 . S
H806 C803 0.961 . S
O807 Co782 1.967 . S
O807 C815 1.258 . S
O808 Co783 1.941 . S
O808 C815 1.266 . S
H809 C811 0.959 . S
H810 C811 0.961 . S
C811 C801 1.510 . S
C811 H809 0.959 . S
C811 H810 0.961 . S
C811 H812 0.964 1_545 S
H812 C811 0.964 1_565 S
H813 N793 0.862 . S
O814 Co782 1.920 . S
O814 C787 1.289 . S
C815 O807 1.258 . S
C815 O808 1.266 . S
Co816 O819 1.970 . S
Co816 N833 1.989 . S
Co816 O841 1.967 . S
Co816 O848 1.920 . S
Co817 O820 1.966 . S
Co817 N826 2.022 . S
Co817 N834 1.993 . S
Co817 O842 1.941 . S
C818 O819 1.258 . S
C818 O820 1.263 . S
O819 Co816 1.970 . S
O819 C818 1.258 . S
O820 Co817 1.966 . S
O820 C818 1.263 . S
C821 O822 1.235 . S
C821 O848 1.289 . S
O822 C821 1.235 . S
C823 C825 1.400 . S
C823 N826 1.351 . S
C823 C828 1.501 . S
C824 C825 1.387 . S
C824 N827 1.341 . S
C825 C823 1.400 . S
C825 C824 1.387 . S
N826 Co817 2.022 . S
N826 C823 1.351 . S
N826 N827 1.365 . S
N827 C824 1.341 . S
N827 N826 1.365 . S
N827 H847 0.862 . S
C828 C823 1.501 . S
C828 H829 0.961 . S
C828 H830 0.961 . S
C828 H831 0.960 . S
H829 C828 0.961 . S
H830 C828 0.961 . S
H831 C828 0.960 . S
C832 N833 1.342 . S
C832 C836 1.401 . S
C832 C837 1.499 . S
N833 Co816 1.989 . S
N833 C832 1.342 . S
N833 N834 1.388 . S
N834 Co817 1.993 . S
N834 N833 1.388 . S
N834 C835 1.346 . S
C835 N834 1.346 . S
C835 C836 1.396 . S
C835 C845 1.510 . S
C836 C832 1.401 . S
C836 C835 1.396 . S
C837 C832 1.499 . S
C837 H838 0.959 . S
C837 H839 0.960 . S
C837 H840 0.961 . S
H838 C837 0.959 . S
H839 C837 0.960 . S
H840 C837 0.961 . S
O841 Co816 1.967 . S
O841 C849 1.258 . S
O842 Co817 1.941 . S
O842 C849 1.266 . S
H843 C845 0.959 . S
H844 C845 0.961 . S
C845 C835 1.510 . S
C845 H843 0.959 . S
C845 H844 0.961 . S
C845 H846 0.960 . S
H846 C845 0.960 . S
H847 N827 0.862 . S
O848 Co816 1.920 . S
O848 C821 1.289 . S
C849 O841 1.258 . S
C849 O842 1.266 . S
Co850 O853 1.970 . S
Co850 N867 1.989 . S
Co850 O875 1.967 . S
Co850 O882 1.920 . S
Co851 O854 1.966 . S
Co851 N860 2.022 . S
Co851 N868 1.993 . S
Co851 O876 1.941 . S
C852 O853 1.258 . S
C852 O854 1.263 . S
O853 Co850 1.970 . S
O853 C852 1.258 . S
O854 Co851 1.966 . S
O854 C852 1.263 . S
C855 O856 1.235 . S
C855 O882 1.289 . S
O856 C855 1.235 . S
C857 C859 1.400 . S
C857 N860 1.351 . S
C857 C862 1.501 . S
C858 C859 1.387 . S
C858 N861 1.341 . S
C859 C857 1.400 . S
C859 C858 1.387 . S
N860 Co851 2.022 . S
N860 C857 1.351 . S
N860 N861 1.365 . S
N861 C858 1.341 . S
N861 N860 1.365 . S
N861 H881 0.862 . S
C862 C857 1.501 . S
C862 H863 0.961 . S
C862 H864 0.961 . S
C862 H865 0.960 . S
H863 C862 0.961 . S
H864 C862 0.961 . S
H865 C862 0.960 . S
C866 N867 1.342 . S
C866 C870 1.401 . S
C866 C871 1.499 . S
N867 Co850 1.989 . S
N867 C866 1.342 . S
N867 N868 1.388 . S
N868 Co851 1.993 . S
N868 N867 1.388 . S
N868 C869 1.346 . S
C869 N868 1.346 . S
C869 C870 1.396 . S
C869 C879 1.510 . S
C870 C866 1.401 . S
C870 C869 1.396 . S
C871 C866 1.499 . S
C871 H872 0.959 . S
C871 H873 0.960 . S
C871 H874 0.961 . S
H872 C871 0.959 . S
H873 C871 0.960 . S
H874 C871 0.961 . S
O875 Co850 1.967 . S
O875 C883 1.258 . S
O876 Co851 1.941 . S
O876 C883 1.266 . S
H877 C879 0.959 . S
H878 C879 0.961 . S
C879 C869 1.510 . S
C879 H877 0.959 . S
C879 H878 0.961 . S
C879 H880 0.960 . S
H880 C879 0.960 . S
H881 N861 0.862 . S
O882 Co850 1.920 . S
O882 C855 1.289 . S
C883 O875 1.258 . S
C883 O876 1.266 . S
Co884 O887 1.970 . S
Co884 N901 1.989 . S
Co884 O909 1.967 . S
Co884 O916 1.920 . S
Co885 O888 1.966 . S
Co885 N894 2.022 . S
Co885 N902 1.993 . S
Co885 O910 1.941 . S
C886 O887 1.258 . S
C886 O888 1.263 . S
O887 Co884 1.970 . S
O887 C886 1.258 . S
O888 Co885 1.966 . S
O888 C886 1.263 . S
C889 O890 1.235 . S
C889 O916 1.289 . S
O890 C889 1.235 . S
C891 C893 1.400 . S
C891 N894 1.351 . S
C891 C896 1.501 . S
C892 C893 1.387 . S
C892 N895 1.341 . S
C893 C891 1.400 . S
C893 C892 1.387 . S
N894 Co885 2.022 . S
N894 C891 1.351 . S
N894 N895 1.365 . S
N895 C892 1.341 . S
N895 N894 1.365 . S
N895 H915 0.862 . S
C896 C891 1.501 . S
C896 H897 0.961 . S
C896 H898 0.961 . S
C896 H899 0.960 . S
H897 C896 0.961 . S
H898 C896 0.961 . S
H899 C896 0.960 . S
C900 N901 1.342 . S
C900 C904 1.401 . S
C900 C905 1.499 . S
N901 Co884 1.989 . S
N901 C900 1.342 . S
N901 N902 1.388 . S
N902 Co885 1.993 . S
N902 N901 1.388 . S
N902 C903 1.346 . S
C903 N902 1.346 . S
C903 C904 1.396 . S
C903 C913 1.510 . S
C904 C900 1.401 . S
C904 C903 1.396 . S
C905 C900 1.499 . S
C905 H906 0.959 . S
C905 H907 0.960 . S
C905 H908 0.961 . S
H906 C905 0.959 . S
H907 C905 0.960 . S
H908 C905 0.961 . S
O909 Co884 1.967 . S
O909 C917 1.258 . S
O910 Co885 1.941 . S
O910 C917 1.266 . S
H911 C913 0.959 . S
H912 C913 0.961 . S
C913 C903 1.510 . S
C913 H911 0.959 . S
C913 H912 0.961 . S
C913 H914 0.960 . S
H914 C913 0.960 . S
H915 N895 0.862 . S
O916 Co884 1.920 . S
O916 C889 1.289 . S
C917 O909 1.258 . S
C917 O910 1.266 . S
Co918 O921 1.970 . S
Co918 N935 1.989 . S
Co918 O943 1.967 . S
Co918 O950 1.920 . S
Co919 O922 1.966 . S
Co919 N928 2.022 . S
Co919 N936 1.993 . S
Co919 O944 1.941 . S
C920 O921 1.258 . S
C920 O922 1.263 . S
O921 Co918 1.970 . S
O921 C920 1.258 . S
O922 Co919 1.966 . S
O922 C920 1.263 . S
C923 O924 1.235 . S
C923 O950 1.289 . S
O924 C923 1.235 . S
C925 C927 1.400 . S
C925 N928 1.351 . S
C925 C930 1.501 . S
C926 C927 1.387 . S
C926 N929 1.341 . S
C927 C925 1.400 . S
C927 C926 1.387 . S
N928 Co919 2.022 . S
N928 C925 1.351 . S
N928 N929 1.365 . S
N929 C926 1.341 . S
N929 N928 1.365 . S
N929 H949 0.862 . S
C930 C925 1.501 . S
C930 H931 0.961 . S
C930 H932 0.961 . S
C930 H933 0.960 . S
H931 C930 0.961 . S
H932 C930 0.961 . S
H933 C930 0.960 . S
C934 N935 1.342 . S
C934 C938 1.401 . S
C934 C939 1.499 . S
N935 Co918 1.989 . S
N935 C934 1.342 . S
N935 N936 1.388 . S
N936 Co919 1.993 . S
N936 N935 1.388 . S
N936 C937 1.346 . S
C937 N936 1.346 . S
C937 C938 1.396 . S
C937 C947 1.510 . S
C938 C934 1.401 . S
C938 C937 1.396 . S
C939 C934 1.499 . S
C939 H940 0.959 . S
C939 H941 0.960 . S
C939 H942 0.961 . S
H940 C939 0.959 . S
H941 C939 0.960 . S
H942 C939 0.961 . S
O943 Co918 1.967 . S
O943 C951 1.258 . S
O944 Co919 1.941 . S
O944 C951 1.266 . S
H945 C947 0.959 . S
H946 C947 0.961 . S
C947 C937 1.510 . S
C947 H945 0.959 . S
C947 H946 0.961 . S
C947 H948 0.960 . S
H948 C947 0.960 . S
H949 N929 0.862 . S
O950 Co918 1.920 . S
O950 C923 1.289 . S
C951 O943 1.258 . S
C951 O944 1.266 . S
Co952 O955 1.970 . S
Co952 N969 1.989 . S
Co952 O977 1.967 . S
Co952 O984 1.920 . S
Co953 O956 1.966 . S
Co953 N962 2.022 . S
Co953 N970 1.993 . S
Co953 O978 1.941 . S
C954 O955 1.258 . S
C954 O956 1.263 . S
O955 Co952 1.970 . S
O955 C954 1.258 . S
O956 Co953 1.966 . S
O956 C954 1.263 . S
C957 O958 1.235 . S
C957 O984 1.289 . S
O958 C957 1.235 . S
C959 C961 1.400 . S
C959 N962 1.351 . S
C959 C964 1.501 . S
C960 C961 1.387 . S
C960 N963 1.341 . S
C961 C959 1.400 . S
C961 C960 1.387 . S
N962 Co953 2.022 . S
N962 C959 1.351 . S
N962 N963 1.365 . S
N963 C960 1.341 . S
N963 N962 1.365 . S
N963 H983 0.862 . S
C964 C959 1.501 . S
C964 H965 0.961 . S
C964 H966 0.961 . S
C964 H967 0.960 . S
H965 C964 0.961 . S
H966 C964 0.961 . S
H967 C964 0.960 . S
C968 N969 1.342 . S
C968 C972 1.401 . S
C968 C973 1.499 . S
N969 Co952 1.989 . S
N969 C968 1.342 . S
N969 N970 1.388 . S
N970 Co953 1.993 . S
N970 N969 1.388 . S
N970 C971 1.346 . S
C971 N970 1.346 . S
C971 C972 1.396 . S
C971 C981 1.510 . S
C972 C968 1.401 . S
C972 C971 1.396 . S
C973 C968 1.499 . S
C973 H974 0.959 . S
C973 H975 0.960 . S
C973 H976 0.961 . S
H974 C973 0.959 . S
H975 C973 0.960 . S
H976 C973 0.961 . S
O977 Co952 1.967 . S
O977 C985 1.258 . S
O978 Co953 1.941 . S
O978 C985 1.266 . S
H979 C981 0.959 . S
H980 C981 0.961 . S
C981 C971 1.510 . S
C981 H979 0.959 . S
C981 H980 0.961 . S
C981 H982 0.960 . S
H982 C981 0.960 . S
H983 N963 0.862 . S
O984 Co952 1.920 . S
O984 C957 1.289 . S
C985 O977 1.258 . S
C985 O978 1.266 . S
Co986 O989 1.970 . S
Co986 N1003 1.989 . S
Co986 O1011 1.967 . S
Co986 O1018 1.920 . S
Co987 O990 1.966 . S
Co987 N996 2.022 . S
Co987 N1004 1.993 . S
Co987 O1012 1.941 . S
C988 O989 1.258 . S
C988 O990 1.263 . S
O989 Co986 1.970 . S
O989 C988 1.258 . S
O990 Co987 1.966 . S
O990 C988 1.263 . S
C991 O992 1.235 . S
C991 O1018 1.289 . S
O992 C991 1.235 . S
C993 C995 1.400 . S
C993 N996 1.351 . S
C993 C998 1.501 . S
C994 C995 1.387 . S
C994 N997 1.341 . S
C995 C993 1.400 . S
C995 C994 1.387 . S
N996 Co987 2.022 . S
N996 C993 1.351 . S
N996 N997 1.365 . S
N997 C994 1.341 . S
N997 N996 1.365 . S
N997 H1017 0.862 . S
C998 C993 1.501 . S
C998 H999 0.961 . S
C998 H1000 0.961 . S
C998 H1001 0.960 . S
H999 C998 0.961 . S
H1000 C998 0.961 . S
H1001 C998 0.960 . S
C1002 N1003 1.342 . S
C1002 C1006 1.401 . S
C1002 C1007 1.499 . S
N1003 Co986 1.989 . S
N1003 C1002 1.342 . S
N1003 N1004 1.388 . S
N1004 Co987 1.993 . S
N1004 N1003 1.388 . S
N1004 C1005 1.346 . S
C1005 N1004 1.346 . S
C1005 C1006 1.396 . S
C1005 C1015 1.510 . S
C1006 C1002 1.401 . S
C1006 C1005 1.396 . S
C1007 C1002 1.499 . S
C1007 H1008 0.959 . S
C1007 H1009 0.960 . S
C1007 H1010 0.961 . S
H1008 C1007 0.959 . S
H1009 C1007 0.960 . S
H1010 C1007 0.961 . S
O1011 Co986 1.967 . S
O1011 C1019 1.258 . S
O1012 Co987 1.941 . S
O1012 C1019 1.266 . S
H1013 C1015 0.959 . S
H1014 C1015 0.961 . S
C1015 C1005 1.510 . S
C1015 H1013 0.959 . S
C1015 H1014 0.961 . S
C1015 H1016 0.960 . S
H1016 C1015 0.960 . S
H1017 N997 0.862 . S
O1018 Co986 1.920 . S
O1018 C991 1.289 . S
C1019 O1011 1.258 . S
C1019 O1012 1.266 . S
Co1020 O1023 1.970 . S
Co1020 N1037 1.989 . S
Co1020 O1045 1.967 . S
Co1020 O1052 1.920 . S
Co1021 O1024 1.966 . S
Co1021 N1030 2.022 . S
Co1021 N1038 1.993 . S
Co1021 O1046 1.941 . S
C1022 O1023 1.258 . S
C1022 O1024 1.263 . S
O1023 Co1020 1.970 . S
O1023 C1022 1.258 . S
O1024 Co1021 1.966 . S
O1024 C1022 1.263 . S
C1025 O1026 1.235 . S
C1025 O1052 1.289 . S
O1026 C1025 1.235 . S
C1027 C1029 1.400 . S
C1027 N1030 1.351 . S
C1027 C1032 1.501 . S
C1028 C1029 1.387 . S
C1028 N1031 1.341 . S
C1029 C1027 1.400 . S
C1029 C1028 1.387 . S
N1030 Co1021 2.022 . S
N1030 C1027 1.351 . S
N1030 N1031 1.365 . S
N1031 C1028 1.341 . S
N1031 N1030 1.365 . S
N1031 H1051 0.862 . S
C1032 C1027 1.501 . S
C1032 H1033 0.961 . S
C1032 H1034 0.961 . S
C1032 H1035 0.960 . S
H1033 C1032 0.961 . S
H1034 C1032 0.961 . S
H1035 C1032 0.960 . S
C1036 N1037 1.342 . S
C1036 C1040 1.401 . S
C1036 C1041 1.499 . S
N1037 Co1020 1.989 . S
N1037 C1036 1.342 . S
N1037 N1038 1.388 . S
N1038 Co1021 1.993 . S
N1038 N1037 1.388 . S
N1038 C1039 1.346 . S
C1039 N1038 1.346 . S
C1039 C1040 1.396 . S
C1039 C1049 1.510 . S
C1040 C1036 1.401 . S
C1040 C1039 1.396 . S
C1041 C1036 1.499 . S
C1041 H1042 0.959 . S
C1041 H1043 0.960 . S
C1041 H1044 0.961 . S
H1042 C1041 0.959 . S
H1043 C1041 0.960 . S
H1044 C1041 0.961 . S
O1045 Co1020 1.967 . S
O1045 C1053 1.258 . S
O1046 Co1021 1.941 . S
O1046 C1053 1.266 . S
H1047 C1049 0.959 . S
H1048 C1049 0.961 . S
C1049 C1039 1.510 . S
C1049 H1047 0.959 . S
C1049 H1048 0.961 . S
C1049 H1050 0.960 . S
H1050 C1049 0.960 . S
H1051 N1031 0.862 . S
O1052 Co1020 1.920 . S
O1052 C1025 1.289 . S
C1053 O1045 1.258 . S
C1053 O1046 1.266 . S
Co1054 O1057 1.970 . S
Co1054 N1071 1.989 . S
Co1054 O1079 1.967 . S
Co1054 O1086 1.920 . S
Co1055 O1058 1.966 . S
Co1055 N1064 2.022 . S
Co1055 N1072 1.993 . S
Co1055 O1080 1.941 . S
C1056 O1057 1.258 . S
C1056 O1058 1.263 . S
O1057 Co1054 1.970 . S
O1057 C1056 1.258 . S
O1058 Co1055 1.966 . S
O1058 C1056 1.263 . S
C1059 O1060 1.235 . S
C1059 O1086 1.289 . S
O1060 C1059 1.235 . S
C1061 C1063 1.400 . S
C1061 N1064 1.351 . S
C1061 C1066 1.501 . S
C1062 C1063 1.387 . S
C1062 N1065 1.341 . S
C1063 C1061 1.400 . S
C1063 C1062 1.387 . S
N1064 Co1055 2.022 . S
N1064 C1061 1.351 . S
N1064 N1065 1.365 . S
N1065 C1062 1.341 . S
N1065 N1064 1.365 . S
N1065 H1085 0.862 . S
C1066 C1061 1.501 . S
C1066 H1067 0.961 . S
C1066 H1068 0.961 . S
C1066 H1069 0.960 . S
H1067 C1066 0.961 . S
H1068 C1066 0.961 . S
H1069 C1066 0.960 . S
C1070 N1071 1.342 . S
C1070 C1074 1.401 . S
C1070 C1075 1.499 . S
N1071 Co1054 1.989 . S
N1071 C1070 1.342 . S
N1071 N1072 1.388 . S
N1072 Co1055 1.993 . S
N1072 N1071 1.388 . S
N1072 C1073 1.346 . S
C1073 N1072 1.346 . S
C1073 C1074 1.396 . S
C1073 C1083 1.510 . S
C1074 C1070 1.401 . S
C1074 C1073 1.396 . S
C1075 C1070 1.499 . S
C1075 H1076 0.959 . S
C1075 H1077 0.960 . S
C1075 H1078 0.961 . S
H1076 C1075 0.959 . S
H1077 C1075 0.960 . S
H1078 C1075 0.961 . S
O1079 Co1054 1.967 . S
O1079 C1087 1.258 . S
O1080 Co1055 1.941 . S
O1080 C1087 1.266 . S
H1081 C1083 0.959 . S
H1082 C1083 0.961 . S
C1083 C1073 1.510 . S
C1083 H1081 0.959 . S
C1083 H1082 0.961 . S
C1083 H1084 0.960 . S
H1084 C1083 0.960 . S
H1085 N1065 0.862 . S
O1086 Co1054 1.920 . S
O1086 C1059 1.289 . S
C1087 O1079 1.258 . S
C1087 O1080 1.266 . S
C1088 C1089 1.349 . S
C1088 C1090 1.327 . S
C1088 H1113 0.964 . S
C1089 C1088 1.349 . S
C1089 C1105 1.349 . S
C1090 C1088 1.327 . S
C1090 C1109 1.429 . S
C1090 H1114 0.950 1_545 S
C1091 C1108 1.574 1_554 S
C1091 C1110 1.368 . S
C1091 H1115 0.949 . S
H1092 C1096 0.949 . S
C1093 C1094 1.349 . S
C1093 C1095 1.327 . S
C1093 H1116 0.964 . S
C1094 C1093 1.349 . S
C1094 C1106 1.349 . S
C1095 C1093 1.327 . S
C1095 C1111 1.429 . S
C1095 H1117 0.950 1_565 S
C1096 H1092 0.949 . S
C1096 C1104 1.574 1_556 S
C1096 C1112 1.368 . S
H1097 C1105 0.950 . S
H1098 C1103 0.950 . S
H1099 C1104 0.949 . S
H1100 C1106 0.950 . S
H1101 C1107 0.950 . S
H1102 C1108 0.949 . S
C1103 H1098 0.950 . S
C1103 C1105 1.327 . S
C1103 C1109 1.429 . S
C1104 C1096 1.574 1_554 S
C1104 H1099 0.949 . S
C1104 C1110 1.368 1_565 S
C1105 C1089 1.349 . S
C1105 H1097 0.950 . S
C1105 C1103 1.327 . S
C1106 C1094 1.349 . S
C1106 H1100 0.950 . S
C1106 C1107 1.327 . S
C1107 H1101 0.950 . S
C1107 C1106 1.327 . S
C1107 C1111 1.429 . S
C1108 C1091 1.574 1_556 S
C1108 H1102 0.949 . S
C1108 C1112 1.368 1_545 S
C1109 C1090 1.429 . S
C1109 C1103 1.429 . S
C1109 C1110 1.523 . S
C1110 C1091 1.368 . S
C1110 C1104 1.368 1_545 S
C1110 C1109 1.523 . S
C1111 C1095 1.429 . S
C1111 C1107 1.429 . S
C1111 C1112 1.523 . S
C1112 C1096 1.368 . S
C1112 C1108 1.368 1_565 S
C1112 C1111 1.523 . S
H1113 C1088 0.964 . S
H1114 C1090 0.950 1_565 S
H1115 C1091 0.949 . S
H1116 C1093 0.964 . S
H1117 C1095 0.950 1_545 S
C1118 C1119 1.349 . S
C1118 C1120 1.327 . S
C1118 H1143 0.950 . S
C1119 C1118 1.349 . S
C1119 C1135 1.349 . S
C1120 C1118 1.327 . S
C1120 C1139 1.429 . S
C1120 H1144 0.950 . S
C1121 C1138 1.574 1_556 S
C1121 C1140 1.368 . S
C1121 H1145 0.949 . S
H1122 C1126 0.949 . S
C1123 C1124 1.349 . S
C1123 C1125 1.327 . S
C1123 H1146 0.950 . S
C1124 C1123 1.349 . S
C1124 C1136 1.349 . S
C1125 C1123 1.327 . S
C1125 C1141 1.429 . S
C1125 H1147 0.950 . S
C1126 H1122 0.949 . S
C1126 C1134 1.574 1_554 S
C1126 C1142 1.368 . S
H1127 C1135 0.950 . S
H1128 C1133 0.950 . S
H1129 C1134 0.949 . S
H1130 C1136 0.950 . S
H1131 C1137 0.950 . S
H1132 C1138 0.949 . S
C1133 H1128 0.950 . S
C1133 C1135 1.327 . S
C1133 C1139 1.429 . S
C1134 C1126 1.574 1_556 S
C1134 H1129 0.949 . S
C1134 C1140 1.368 . S
C1135 C1119 1.349 . S
C1135 H1127 0.950 . S
C1135 C1133 1.327 . S
C1136 C1124 1.349 . S
C1136 H1130 0.950 . S
C1136 C1137 1.327 . S
C1137 H1131 0.950 . S
C1137 C1136 1.327 . S
C1137 C1141 1.429 . S
C1138 C1121 1.574 1_554 S
C1138 H1132 0.949 . S
C1138 C1142 1.368 . S
C1139 C1120 1.429 . S
C1139 C1133 1.429 . S
C1139 C1140 1.523 . S
C1140 C1121 1.368 . S
C1140 C1134 1.368 . S
C1140 C1139 1.523 . S
C1141 C1125 1.429 . S
C1141 C1137 1.429 . S
C1141 C1142 1.523 . S
C1142 C1126 1.368 . S
C1142 C1138 1.368 . S
C1142 C1141 1.523 . S
H1143 C1118 0.950 . S
H1144 C1120 0.950 . S
H1145 C1121 0.949 . S
H1146 C1123 0.950 . S
H1147 C1125 0.950 . S
C1148 C1149 1.349 . S
C1148 C1150 1.327 . S
C1148 H1173 0.950 . S
C1149 C1148 1.349 . S
C1149 C1165 1.349 . S
C1150 C1148 1.327 . S
C1150 C1169 1.429 . S
C1150 H1174 0.950 . S
C1151 C1168 1.574 . S
C1151 C1170 1.368 . S
C1151 H1175 0.949 . S
H1152 C1156 0.949 . S
C1153 C1154 1.349 . S
C1153 C1155 1.327 . S
C1153 H1176 0.950 . S
C1154 C1153 1.349 . S
C1154 C1166 1.349 . S
C1155 C1153 1.327 . S
C1155 C1171 1.429 . S
C1155 H1177 0.950 . S
C1156 H1152 0.949 . S
C1156 C1164 1.574 . S
C1156 C1172 1.368 . S
H1157 C1165 0.950 . S
H1158 C1163 0.950 . S
H1159 C1164 0.949 . S
H1160 C1166 0.950 . S
H1161 C1167 0.950 . S
H1162 C1168 0.949 . S
C1163 H1158 0.950 . S
C1163 C1165 1.327 . S
C1163 C1169 1.429 . S
C1164 C1156 1.574 . S
C1164 H1159 0.949 . S
C1164 C1170 1.368 . S
C1165 C1149 1.349 . S
C1165 H1157 0.950 . S
C1165 C1163 1.327 . S
C1166 C1154 1.349 . S
C1166 H1160 0.950 . S
C1166 C1167 1.327 . S
C1167 H1161 0.950 . S
C1167 C1166 1.327 . S
C1167 C1171 1.429 . S
C1168 C1151 1.574 . S
C1168 H1162 0.949 . S
C1168 C1172 1.368 . S
C1169 C1150 1.429 . S
C1169 C1163 1.429 . S
C1169 C1170 1.523 . S
C1170 C1151 1.368 . S
C1170 C1164 1.368 . S
C1170 C1169 1.523 . S
C1171 C1155 1.429 . S
C1171 C1167 1.429 . S
C1171 C1172 1.523 . S
C1172 C1156 1.368 . S
C1172 C1168 1.368 . S
C1172 C1171 1.523 . S
H1173 C1148 0.950 . S
H1174 C1150 0.950 . S
H1175 C1151 0.949 . S
H1176 C1153 0.950 . S
H1177 C1155 0.950 . S
C1178 C1179 1.349 . S
C1178 C1180 1.327 . S
C1178 H1203 0.950 . S
C1179 C1178 1.349 . S
C1179 C1195 1.349 . S
C1180 C1178 1.327 . S
C1180 C1199 1.429 . S
C1180 H1204 0.950 . S
C1181 C1198 1.574 . S
C1181 C1200 1.368 1_545 S
C1181 H1205 0.949 . S
H1182 C1186 0.949 . S
C1183 C1184 1.349 . S
C1183 C1185 1.327 . S
C1183 H1206 0.950 . S
C1184 C1183 1.349 . S
C1184 C1196 1.349 . S
C1185 C1183 1.327 . S
C1185 C1201 1.429 . S
C1185 H1207 0.950 . S
C1186 H1182 0.949 . S
C1186 C1194 1.574 . S
C1186 C1202 1.368 1_565 S
H1187 C1195 0.950 . S
H1188 C1193 0.950 1_545 S
H1189 C1194 0.949 . S
H1190 C1196 0.950 . S
H1191 C1197 0.950 1_565 S
H1192 C1198 0.949 . S
C1193 H1188 0.950 1_565 S
C1193 C1195 1.327 . S
C1193 C1199 1.429 . S
C1194 C1186 1.574 . S
C1194 H1189 0.949 . S
C1194 C1200 1.368 . S
C1195 C1179 1.349 . S
C1195 H1187 0.950 . S
C1195 C1193 1.327 . S
C1196 C1184 1.349 . S
C1196 H1190 0.950 . S
C1196 C1197 1.327 . S
C1197 H1191 0.950 1_545 S
C1197 C1196 1.327 . S
C1197 C1201 1.429 . S
C1198 C1181 1.574 . S
C1198 H1192 0.949 . S
C1198 C1202 1.368 . S
C1199 C1180 1.429 . S
C1199 C1193 1.429 . S
C1199 C1200 1.523 . S
C1200 C1181 1.368 1_565 S
C1200 C1194 1.368 . S
C1200 C1199 1.523 . S
C1201 C1185 1.429 . S
C1201 C1197 1.429 . S
C1201 C1202 1.523 . S
C1202 C1186 1.368 1_545 S
C1202 C1198 1.368 . S
C1202 C1201 1.523 . S
H1203 C1178 0.950 . S
H1204 C1180 0.950 . S
H1205 C1181 0.949 . S
H1206 C1183 0.950 . S
H1207 C1185 0.950 . S
C1208 C1209 1.349 . S
C1208 C1210 1.327 . S
C1208 H1233 0.950 . S
C1209 C1208 1.349 . S
C1209 C1225 1.349 . S
C1210 C1208 1.327 . S
C1210 C1229 1.429 . S
C1210 H1234 0.950 . S
C1211 C1228 1.574 1_556 S
C1211 C1230 1.368 . S
C1211 H1235 0.949 . S
H1212 C1216 0.949 . S
C1213 C1214 1.349 . S
C1213 C1215 1.327 . S
C1213 H1236 0.950 . S
C1214 C1213 1.349 . S
C1214 C1226 1.349 . S
C1215 C1213 1.327 . S
C1215 C1231 1.429 . S
C1215 H1237 0.950 . S
C1216 H1212 0.949 . S
C1216 C1224 1.574 1_554 S
C1216 C1232 1.368 . S
H1217 C1225 0.950 . S
H1218 C1223 0.950 . S
H1219 C1224 0.949 . S
H1220 C1226 0.950 . S
H1221 C1227 0.950 . S
H1222 C1228 0.949 . S
C1223 H1218 0.950 . S
C1223 C1225 1.327 . S
C1223 C1229 1.429 . S
C1224 C1216 1.574 1_556 S
C1224 H1219 0.949 . S
C1224 C1230 1.368 . S
C1225 C1209 1.349 . S
C1225 H1217 0.950 . S
C1225 C1223 1.327 . S
C1226 C1214 1.349 . S
C1226 H1220 0.950 . S
C1226 C1227 1.327 . S
C1227 H1221 0.950 . S
C1227 C1226 1.327 . S
C1227 C1231 1.429 . S
C1228 C1211 1.574 1_554 S
C1228 H1222 0.949 . S
C1228 C1232 1.368 . S
C1229 C1210 1.429 . S
C1229 C1223 1.429 . S
C1229 C1230 1.523 . S
C1230 C1211 1.368 . S
C1230 C1224 1.368 . S
C1230 C1229 1.523 . S
C1231 C1215 1.429 . S
C1231 C1227 1.429 . S
C1231 C1232 1.523 . S
C1232 C1216 1.368 . S
C1232 C1228 1.368 . S
C1232 C1231 1.523 . S
H1233 C1208 0.950 . S
H1234 C1210 0.950 . S
H1235 C1211 0.949 . S
H1236 C1213 0.950 . S
H1237 C1215 0.950 . S
C1238 C1239 1.349 . S
C1238 C1240 1.327 . S
C1238 H1263 0.950 . S
C1239 C1238 1.349 . S
C1239 C1255 1.349 . S
C1240 C1238 1.327 . S
C1240 C1259 1.429 . S
C1240 H1264 0.950 . S
C1241 C1258 1.574 . S
C1241 C1260 1.368 . S
C1241 H1265 0.949 . S
H1242 C1246 0.949 . S
C1243 C1244 1.349 . S
C1243 C1245 1.327 . S
C1243 H1266 0.950 . S
C1244 C1243 1.349 . S
C1244 C1256 1.349 . S
C1245 C1243 1.327 . S
C1245 C1261 1.429 . S
C1245 H1267 0.950 . S
C1246 H1242 0.949 . S
C1246 C1254 1.574 . S
C1246 C1262 1.368 . S
H1247 C1255 0.950 . S
H1248 C1253 0.950 . S
H1249 C1254 0.949 . S
H1250 C1256 0.950 . S
H1251 C1257 0.950 . S
H1252 C1258 0.949 . S
C1253 H1248 0.950 . S
C1253 C1255 1.327 . S
C1253 C1259 1.429 . S
C1254 C1246 1.574 . S
C1254 H1249 0.949 . S
C1254 C1260 1.368 . S
C1255 C1239 1.349 . S
C1255 H1247 0.950 . S
C1255 C1253 1.327 . S
C1256 C1244 1.349 . S
C1256 H1250 0.950 . S
C1256 C1257 1.327 . S
C1257 H1251 0.950 . S
C1257 C1256 1.327 . S
C1257 C1261 1.429 . S
C1258 C1241 1.574 . S
C1258 H1252 0.949 . S
C1258 C1262 1.368 . S
C1259 C1240 1.429 . S
C1259 C1253 1.429 . S
C1259 C1260 1.523 . S
C1260 C1241 1.368 . S
C1260 C1254 1.368 . S
C1260 C1259 1.523 . S
C1261 C1245 1.429 . S
C1261 C1257 1.429 . S
C1261 C1262 1.523 . S
C1262 C1246 1.368 . S
C1262 C1258 1.368 . S
C1262 C1261 1.523 . S
H1263 C1238 0.950 . S
H1264 C1240 0.950 . S
H1265 C1241 0.949 . S
H1266 C1243 0.950 . S
H1267 C1245 0.950 . S
C1268 C1269 1.349 . S
C1268 C1270 1.327 . S
C1268 H1293 0.950 . S
C1269 C1268 1.349 . S
C1269 C1285 1.349 . S
C1270 C1268 1.327 . S
C1270 C1289 1.429 . S
C1270 H1294 0.950 . S
C1271 C1288 1.574 . S
C1271 C1290 1.368 1_545 S
C1271 H1295 0.949 . S
H1272 C1276 0.949 . S
C1273 C1274 1.349 . S
C1273 C1275 1.327 . S
C1273 H1296 0.950 . S
C1274 C1273 1.349 . S
C1274 C1286 1.349 . S
C1275 C1273 1.327 . S
C1275 C1291 1.429 . S
C1275 H1297 0.950 . S
C1276 H1272 0.949 . S
C1276 C1284 1.574 . S
C1276 C1292 1.368 1_565 S
H1277 C1285 0.950 . S
H1278 C1283 0.950 1_545 S
H1279 C1284 0.949 . S
H1280 C1286 0.950 . S
H1281 C1287 0.950 1_565 S
H1282 C1288 0.949 . S
C1283 H1278 0.950 1_565 S
C1283 C1285 1.327 . S
C1283 C1289 1.429 . S
C1284 C1276 1.574 . S
C1284 H1279 0.949 . S
C1284 C1290 1.368 . S
C1285 C1269 1.349 . S
C1285 H1277 0.950 . S
C1285 C1283 1.327 . S
C1286 C1274 1.349 . S
C1286 H1280 0.950 . S
C1286 C1287 1.327 . S
C1287 H1281 0.950 1_545 S
C1287 C1286 1.327 . S
C1287 C1291 1.429 . S
C1288 C1271 1.574 . S
C1288 H1282 0.949 . S
C1288 C1292 1.368 . S
C1289 C1270 1.429 . S
C1289 C1283 1.429 . S
C1289 C1290 1.523 . S
C1290 C1271 1.368 1_565 S
C1290 C1284 1.368 . S
C1290 C1289 1.523 . S
C1291 C1275 1.429 . S
C1291 C1287 1.429 . S
C1291 C1292 1.523 . S
C1292 C1276 1.368 1_545 S
C1292 C1288 1.368 . S
C1292 C1291 1.523 . S
H1293 C1268 0.950 . S
H1294 C1270 0.950 . S
H1295 C1271 0.949 . S
H1296 C1273 0.950 . S
H1297 C1275 0.950 . S
C1298 C1299 1.349 . S
C1298 C1300 1.327 . S
C1298 H1323 0.950 . S
C1299 C1298 1.349 . S
C1299 C1315 1.349 . S
C1300 C1298 1.327 . S
C1300 C1319 1.429 . S
C1300 H1324 0.950 . S
C1301 C1318 1.574 . S
C1301 C1320 1.368 . S
C1301 H1325 0.949 . S
H1302 C1306 0.949 . S
C1303 C1304 1.349 . S
C1303 C1305 1.327 . S
C1303 H1326 0.950 . S
C1304 C1303 1.349 . S
C1304 C1316 1.349 . S
C1305 C1303 1.327 . S
C1305 C1321 1.429 . S
C1305 H1327 0.950 . S
C1306 H1302 0.949 . S
C1306 C1314 1.574 . S
C1306 C1322 1.368 . S
H1307 C1315 0.950 . S
H1308 C1313 0.950 . S
H1309 C1314 0.949 . S
H1310 C1316 0.950 . S
H1311 C1317 0.950 . S
H1312 C1318 0.949 . S
C1313 H1308 0.950 . S
C1313 C1315 1.327 . S
C1313 C1319 1.429 . S
C1314 C1306 1.574 . S
C1314 H1309 0.949 . S
C1314 C1320 1.368 . S
C1315 C1299 1.349 . S
C1315 H1307 0.950 . S
C1315 C1313 1.327 . S
C1316 C1304 1.349 . S
C1316 H1310 0.950 . S
C1316 C1317 1.327 . S
C1317 H1311 0.950 . S
C1317 C1316 1.327 . S
C1317 C1321 1.429 . S
C1318 C1301 1.574 . S
C1318 H1312 0.949 . S
C1318 C1322 1.368 . S
C1319 C1300 1.429 . S
C1319 C1313 1.429 . S
C1319 C1320 1.523 . S
C1320 C1301 1.368 . S
C1320 C1314 1.368 . S
C1320 C1319 1.523 . S
C1321 C1305 1.429 . S
C1321 C1317 1.429 . S
C1321 C1322 1.523 . S
C1322 C1306 1.368 . S
C1322 C1318 1.368 . S
C1322 C1321 1.523 . S
H1323 C1298 0.950 . S
H1324 C1300 0.950 . S
H1325 C1301 0.949 . S
H1326 C1303 0.950 . S
H1327 C1305 0.950 . S
C1328 C1329 1.349 . S
C1328 C1330 1.327 . S
C1328 H1353 0.950 . S
C1329 C1328 1.349 . S
C1329 C1345 1.349 . S
C1330 C1328 1.327 . S
C1330 C1349 1.429 . S
C1330 H1354 0.950 . S
C1331 C1348 1.574 . S
C1331 C1350 1.368 . S
C1331 H1355 0.949 . S
H1332 C1336 0.949 . S
C1333 C1334 1.349 . S
C1333 C1335 1.327 . S
C1333 H1356 0.950 . S
C1334 C1333 1.349 . S
C1334 C1346 1.349 . S
C1335 C1333 1.327 . S
C1335 C1351 1.429 . S
C1335 H1357 0.950 . S
C1336 H1332 0.949 . S
C1336 C1344 1.574 . S
C1336 C1352 1.368 . S
H1337 C1345 0.950 . S
H1338 C1343 0.950 . S
H1339 C1344 0.949 . S
H1340 C1346 0.950 . S
H1341 C1347 0.950 . S
H1342 C1348 0.949 . S
C1343 H1338 0.950 . S
C1343 C1345 1.327 . S
C1343 C1349 1.429 . S
C1344 C1336 1.574 . S
C1344 H1339 0.949 . S
C1344 C1350 1.368 . S
C1345 C1329 1.349 . S
C1345 H1337 0.950 . S
C1345 C1343 1.327 . S
C1346 C1334 1.349 . S
C1346 H1340 0.950 . S
C1346 C1347 1.327 . S
C1347 H1341 0.950 . S
C1347 C1346 1.327 . S
C1347 C1351 1.429 . S
C1348 C1331 1.574 . S
C1348 H1342 0.949 . S
C1348 C1352 1.368 . S
C1349 C1330 1.429 . S
C1349 C1343 1.429 . S
C1349 C1350 1.523 . S
C1350 C1331 1.368 . S
C1350 C1344 1.368 . S
C1350 C1349 1.523 . S
C1351 C1335 1.429 . S
C1351 C1347 1.429 . S
C1351 C1352 1.523 . S
C1352 C1336 1.368 . S
C1352 C1348 1.368 . S
C1352 C1351 1.523 . S
H1353 C1328 0.950 . S
H1354 C1330 0.950 . S
H1355 C1331 0.949 . S
H1356 C1333 0.950 . S
H1357 C1335 0.950 . S
C1358 C1359 1.349 . S
C1358 C1360 1.327 . S
C1358 H1383 0.950 . S
C1359 C1358 1.349 . S
C1359 C1375 1.349 . S
C1360 C1358 1.327 . S
C1360 C1379 1.429 . S
C1360 H1384 0.950 . S
C1361 C1378 1.574 . S
C1361 C1380 1.368 . S
C1361 H1385 0.949 . S
H1362 C1366 0.949 . S
C1363 C1364 1.349 . S
C1363 C1365 1.327 . S
C1363 H1386 0.950 . S
C1364 C1363 1.349 . S
C1364 C1376 1.349 . S
C1365 C1363 1.327 . S
C1365 C1381 1.429 . S
C1365 H1387 0.950 . S
C1366 H1362 0.949 . S
C1366 C1374 1.574 . S
C1366 C1382 1.368 . S
H1367 C1375 0.950 . S
H1368 C1373 0.950 . S
H1369 C1374 0.949 . S
H1370 C1376 0.950 . S
H1371 C1377 0.950 . S
H1372 C1378 0.949 . S
C1373 H1368 0.950 . S
C1373 C1375 1.327 . S
C1373 C1379 1.429 . S
C1374 C1366 1.574 . S
C1374 H1369 0.949 . S
C1374 C1380 1.368 . S
C1375 C1359 1.349 . S
C1375 H1367 0.950 . S
C1375 C1373 1.327 . S
C1376 C1364 1.349 . S
C1376 H1370 0.950 . S
C1376 C1377 1.327 . S
C1377 H1371 0.950 . S
C1377 C1376 1.327 . S
C1377 C1381 1.429 . S
C1378 C1361 1.574 . S
C1378 H1372 0.949 . S
C1378 C1382 1.368 . S
C1379 C1360 1.429 . S
C1379 C1373 1.429 . S
C1379 C1380 1.523 . S
C1380 C1361 1.368 . S
C1380 C1374 1.368 . S
C1380 C1379 1.523 . S
C1381 C1365 1.429 . S
C1381 C1377 1.429 . S
C1381 C1382 1.523 . S
C1382 C1366 1.368 . S
C1382 C1378 1.368 . S
C1382 C1381 1.523 . S
H1383 C1358 0.950 . S
H1384 C1360 0.950 . S
H1385 C1361 0.949 . S
H1386 C1363 0.950 . S
H1387 C1365 0.950 . S
C1388 C1389 1.349 . S
C1388 C1390 1.327 . S
C1388 H1413 0.950 . S
C1389 C1388 1.349 . S
C1389 C1405 1.349 . S
C1390 C1388 1.327 . S
C1390 C1409 1.429 . S
C1390 H1414 0.950 . S
C1391 C1408 1.574 . S
C1391 C1410 1.368 . S
C1391 H1415 0.949 . S
H1392 C1396 0.949 . S
C1393 C1394 1.349 . S
C1393 C1395 1.327 . S
C1393 H1416 0.950 . S
C1394 C1393 1.349 . S
C1394 C1406 1.349 . S
C1395 C1393 1.327 . S
C1395 C1411 1.429 . S
C1395 H1417 0.950 . S
C1396 H1392 0.949 . S
C1396 C1404 1.574 . S
C1396 C1412 1.368 . S
H1397 C1405 0.950 . S
H1398 C1403 0.950 . S
H1399 C1404 0.949 . S
H1400 C1406 0.950 . S
H1401 C1407 0.950 . S
H1402 C1408 0.949 . S
C1403 H1398 0.950 . S
C1403 C1405 1.327 . S
C1403 C1409 1.429 . S
C1404 C1396 1.574 . S
C1404 H1399 0.949 . S
C1404 C1410 1.368 . S
C1405 C1389 1.349 . S
C1405 H1397 0.950 . S
C1405 C1403 1.327 . S
C1406 C1394 1.349 . S
C1406 H1400 0.950 . S
C1406 C1407 1.327 . S
C1407 H1401 0.950 . S
C1407 C1406 1.327 . S
C1407 C1411 1.429 . S
C1408 C1391 1.574 . S
C1408 H1402 0.949 . S
C1408 C1412 1.368 . S
C1409 C1390 1.429 . S
C1409 C1403 1.429 . S
C1409 C1410 1.523 . S
C1410 C1391 1.368 . S
C1410 C1404 1.368 . S
C1410 C1409 1.523 . S
C1411 C1395 1.429 . S
C1411 C1407 1.429 . S
C1411 C1412 1.523 . S
C1412 C1396 1.368 . S
C1412 C1408 1.368 . S
C1412 C1411 1.523 . S
H1413 C1388 0.950 . S
H1414 C1390 0.950 . S
H1415 C1391 0.949 . S
H1416 C1393 0.950 . S
H1417 C1395 0.950 . S
C1418 C1419 1.349 . S
C1418 C1420 1.327 . S
C1418 H1443 0.950 . S
C1419 C1418 1.349 . S
C1419 C1435 1.349 . S
C1420 C1418 1.327 . S
C1420 C1439 1.429 . S
C1420 H1444 0.950 . S
C1421 C1438 1.574 . S
C1421 C1440 1.368 . S
C1421 H1445 0.949 . S
H1422 C1426 0.949 . S
C1423 C1424 1.349 . S
C1423 C1425 1.327 . S
C1423 H1446 0.950 . S
C1424 C1423 1.349 . S
C1424 C1436 1.349 . S
C1425 C1423 1.327 . S
C1425 C1441 1.429 . S
C1425 H1447 0.950 . S
C1426 H1422 0.949 . S
C1426 C1434 1.574 . S
C1426 C1442 1.368 . S
H1427 C1435 0.950 . S
H1428 C1433 0.950 . S
H1429 C1434 0.949 . S
H1430 C1436 0.950 . S
H1431 C1437 0.950 . S
H1432 C1438 0.949 . S
C1433 H1428 0.950 . S
C1433 C1435 1.327 . S
C1433 C1439 1.429 . S
C1434 C1426 1.574 . S
C1434 H1429 0.949 . S
C1434 C1440 1.368 . S
C1435 C1419 1.349 . S
C1435 H1427 0.950 . S
C1435 C1433 1.327 . S
C1436 C1424 1.349 . S
C1436 H1430 0.950 . S
C1436 C1437 1.327 . S
C1437 H1431 0.950 . S
C1437 C1436 1.327 . S
C1437 C1441 1.429 . S
C1438 C1421 1.574 . S
C1438 H1432 0.949 . S
C1438 C1442 1.368 . S
C1439 C1420 1.429 . S
C1439 C1433 1.429 . S
C1439 C1440 1.523 . S
C1440 C1421 1.368 . S
C1440 C1434 1.368 . S
C1440 C1439 1.523 . S
C1441 C1425 1.429 . S
C1441 C1437 1.429 . S
C1441 C1442 1.523 . S
C1442 C1426 1.368 . S
C1442 C1438 1.368 . S
C1442 C1441 1.523 . S
H1443 C1418 0.950 . S
H1444 C1420 0.950 . S
H1445 C1421 0.949 . S
H1446 C1423 0.950 . S
H1447 C1425 0.950 . S
C1448 C1449 1.349 . S
C1448 C1450 1.327 . S
C1448 H1473 0.950 . S
C1449 C1448 1.349 . S
C1449 C1465 1.349 . S
C1450 C1448 1.327 . S
C1450 C1469 1.429 . S
C1450 H1474 0.950 . S
C1451 C1468 1.574 . S
C1451 C1470 1.368 1_645 S
C1451 H1475 0.949 . S
H1452 C1456 0.949 . S
C1453 C1454 1.349 . S
C1453 C1455 1.327 . S
C1453 H1476 0.950 . S
C1454 C1453 1.349 . S
C1454 C1466 1.349 . S
C1455 C1453 1.327 . S
C1455 C1471 1.429 . S
C1455 H1477 0.950 . S
C1456 H1452 0.949 . S
C1456 C1464 1.574 . S
C1456 C1472 1.368 1_465 S
H1457 C1465 0.950 . S
H1458 C1463 0.950 1_645 S
H1459 C1464 0.949 . S
H1460 C1466 0.950 . S
H1461 C1467 0.950 1_465 S
H1462 C1468 0.949 . S
C1463 H1458 0.950 1_465 S
C1463 C1465 1.327 . S
C1463 C1469 1.429 . S
C1464 C1456 1.574 . S
C1464 H1459 0.949 . S
C1464 C1470 1.368 . S
C1465 C1449 1.349 . S
C1465 H1457 0.950 . S
C1465 C1463 1.327 . S
C1466 C1454 1.349 . S
C1466 H1460 0.950 . S
C1466 C1467 1.327 . S
C1467 H1461 0.950 1_645 S
C1467 C1466 1.327 . S
C1467 C1471 1.429 . S
C1468 C1451 1.574 . S
C1468 H1462 0.949 . S
C1468 C1472 1.368 . S
C1469 C1450 1.429 . S
C1469 C1463 1.429 . S
C1469 C1470 1.523 . S
C1470 C1451 1.368 1_465 S
C1470 C1464 1.368 . S
C1470 C1469 1.523 . S
C1471 C1455 1.429 . S
C1471 C1467 1.429 . S
C1471 C1472 1.523 . S
C1472 C1456 1.368 1_645 S
C1472 C1468 1.368 . S
C1472 C1471 1.523 . S
H1473 C1448 0.950 . S
H1474 C1450 0.950 . S
H1475 C1451 0.949 . S
H1476 C1453 0.950 . S
H1477 C1455 0.950 . S
C1478 C1479 1.349 . S
C1478 C1480 1.327 . S
C1478 H1503 0.950 . S
C1479 C1478 1.349 . S
C1479 C1495 1.349 . S
C1480 C1478 1.327 . S
C1480 C1499 1.429 . S
C1480 H1504 0.950 . S
C1481 C1498 1.574 . S
C1481 C1500 1.368 1_455 S
C1481 H1505 0.949 . S
H1482 C1486 0.949 . S
C1483 C1484 1.349 . S
C1483 C1485 1.327 . S
C1483 H1506 0.950 . S
C1484 C1483 1.349 . S
C1484 C1496 1.349 . S
C1485 C1483 1.327 . S
C1485 C1501 1.429 . S
C1485 H1507 0.950 . S
C1486 H1482 0.949 . S
C1486 C1494 1.574 . S
C1486 C1502 1.368 1_655 S
H1487 C1495 0.950 1_455 S
H1488 C1493 0.950 . S
H1489 C1494 0.949 . S
H1490 C1496 0.950 1_655 S
H1491 C1497 0.950 . S
H1492 C1498 0.949 . S
C1493 H1488 0.950 . S
C1493 C1495 1.327 1_455 S
C1493 C1499 1.429 1_455 S
C1494 C1486 1.574 . S
C1494 H1489 0.949 . S
C1494 C1500 1.368 . S
C1495 C1479 1.349 . S
C1495 H1487 0.950 1_655 S
C1495 C1493 1.327 1_655 S
C1496 C1484 1.349 . S
C1496 H1490 0.950 1_455 S
C1496 C1497 1.327 1_455 S
C1497 H1491 0.950 . S
C1497 C1496 1.327 1_655 S
C1497 C1501 1.429 1_655 S
C1498 C1481 1.574 . S
C1498 H1492 0.949 . S
C1498 C1502 1.368 . S
C1499 C1480 1.429 . S
C1499 C1493 1.429 1_655 S
C1499 C1500 1.523 . S
C1500 C1481 1.368 1_655 S
C1500 C1494 1.368 . S
C1500 C1499 1.523 . S
C1501 C1485 1.429 . S
C1501 C1497 1.429 1_455 S
C1501 C1502 1.523 . S
C1502 C1486 1.368 1_455 S
C1502 C1498 1.368 . S
C1502 C1501 1.523 . S
H1503 C1478 0.950 . S
H1504 C1480 0.950 . S
H1505 C1481 0.949 . S
H1506 C1483 0.950 . S
H1507 C1485 0.950 . S
C1508 C1509 1.349 . S
C1508 C1510 1.327 . S
C1508 H1533 0.950 . S
C1509 C1508 1.349 . S
C1509 C1525 1.349 . S
C1510 C1508 1.327 . S
C1510 C1529 1.429 . S
C1510 H1534 0.950 . S
C1511 C1528 1.574 1_455 S
C1511 C1530 1.368 . S
C1511 H1535 0.949 . S
H1512 C1516 0.949 . S
C1513 C1514 1.349 . S
C1513 C1515 1.327 . S
C1513 H1536 0.950 . S
C1514 C1513 1.349 . S
C1514 C1526 1.349 . S
C1515 C1513 1.327 . S
C1515 C1531 1.429 . S
C1515 H1537 0.950 . S
C1516 H1512 0.949 . S
C1516 C1524 1.574 1_655 S
C1516 C1532 1.368 . S
H1517 C1525 0.950 . S
H1518 C1523 0.950 . S
H1519 C1524 0.949 . S
H1520 C1526 0.950 . S
H1521 C1527 0.950 . S
H1522 C1528 0.949 . S
C1523 H1518 0.950 . S
C1523 C1525 1.327 . S
C1523 C1529 1.429 . S
C1524 C1516 1.574 1_455 S
C1524 H1519 0.949 . S
C1524 C1530 1.368 . S
C1525 C1509 1.349 . S
C1525 H1517 0.950 . S
C1525 C1523 1.327 . S
C1526 C1514 1.349 . S
C1526 H1520 0.950 . S
C1526 C1527 1.327 . S
C1527 H1521 0.950 . S
C1527 C1526 1.327 . S
C1527 C1531 1.429 . S
C1528 C1511 1.574 1_655 S
C1528 H1522 0.949 . S
C1528 C1532 1.368 . S
C1529 C1510 1.429 . S
C1529 C1523 1.429 . S
C1529 C1530 1.523 . S
C1530 C1511 1.368 . S
C1530 C1524 1.368 . S
C1530 C1529 1.523 . S
C1531 C1515 1.429 . S
C1531 C1527 1.429 . S
C1531 C1532 1.523 . S
C1532 C1516 1.368 . S
C1532 C1528 1.368 . S
C1532 C1531 1.523 . S
H1533 C1508 0.950 . S
H1534 C1510 0.950 . S
H1535 C1511 0.949 . S
H1536 C1513 0.950 . S
H1537 C1515 0.950 . S
C1538 C1539 1.349 . S
C1538 C1540 1.327 . S
C1538 H1563 0.950 . S
C1539 C1538 1.349 . S
C1539 C1555 1.349 . S
C1540 C1538 1.327 . S
C1540 C1559 1.429 . S
C1540 H1564 0.950 . S
C1541 C1558 1.574 1_554 S
C1541 C1560 1.368 1_455 S
C1541 H1565 0.949 . S
H1542 C1546 0.949 . S
C1543 C1544 1.349 . S
C1543 C1545 1.327 . S
C1543 H1566 0.950 . S
C1544 C1543 1.349 . S
C1544 C1556 1.349 . S
C1545 C1543 1.327 . S
C1545 C1561 1.429 . S
C1545 H1567 0.950 . S
C1546 H1542 0.949 . S
C1546 C1554 1.574 1_556 S
C1546 C1562 1.368 1_655 S
H1547 C1555 0.950 . S
H1548 C1553 0.950 1_455 S
H1549 C1554 0.949 . S
H1550 C1556 0.950 . S
H1551 C1557 0.950 1_655 S
H1552 C1558 0.949 . S
C1553 H1548 0.950 1_655 S
C1553 C1555 1.327 . S
C1553 C1559 1.429 . S
C1554 C1546 1.574 1_554 S
C1554 H1549 0.949 . S
C1554 C1560 1.368 . S
C1555 C1539 1.349 . S
C1555 H1547 0.950 . S
C1555 C1553 1.327 . S
C1556 C1544 1.349 . S
C1556 H1550 0.950 . S
C1556 C1557 1.327 . S
C1557 H1551 0.950 1_455 S
C1557 C1556 1.327 . S
C1557 C1561 1.429 . S
C1558 C1541 1.574 1_556 S
C1558 H1552 0.949 . S
C1558 C1562 1.368 . S
C1559 C1540 1.429 . S
C1559 C1553 1.429 . S
C1559 C1560 1.523 . S
C1560 C1541 1.368 1_655 S
C1560 C1554 1.368 . S
C1560 C1559 1.523 . S
C1561 C1545 1.429 . S
C1561 C1557 1.429 . S
C1561 C1562 1.523 . S
C1562 C1546 1.368 1_455 S
C1562 C1558 1.368 . S
C1562 C1561 1.523 . S
H1563 C1538 0.950 . S
H1564 C1540 0.950 . S
H1565 C1541 0.949 . S
H1566 C1543 0.950 . S
H1567 C1545 0.950 . S
C1568 C1569 1.349 1_565 S
C1568 C1570 1.327 . S
C1568 H1593 0.950 . S
C1569 C1568 1.349 1_545 S
C1569 C1585 1.349 . S
C1570 C1568 1.327 . S
C1570 C1589 1.429 1_565 S
C1570 H1594 0.950 . S
C1571 C1588 1.574 . S
C1571 C1590 1.368 . S
C1571 H1595 0.949 . S
H1572 C1576 0.949 . S
C1573 C1574 1.349 . S
C1573 C1575 1.327 1_655 S
C1573 H1596 0.950 . S
C1574 C1573 1.349 . S
C1574 C1586 1.349 1_645 S
C1575 C1573 1.327 1_455 S
C1575 C1591 1.429 . S
C1575 H1597 0.950 . S
C1576 H1572 0.949 . S
C1576 C1584 1.574 . S
C1576 C1592 1.368 1_565 S
H1577 C1585 0.950 . S
H1578 C1583 0.950 . S
H1579 C1584 0.949 . S
H1580 C1586 0.950 . S
H1581 C1587 0.950 . S
H1582 C1588 0.949 . S
C1583 H1578 0.950 . S
C1583 C1585 1.327 . S
C1583 C1589 1.429 . S
C1584 C1576 1.574 . S
C1584 H1579 0.949 . S
C1584 C1590 1.368 1_565 S
C1585 C1569 1.349 . S
C1585 H1577 0.950 . S
C1585 C1583 1.327 . S
C1586 C1574 1.349 1_465 S
C1586 H1580 0.950 . S
C1586 C1587 1.327 . S
C1587 H1581 0.950 . S
C1587 C1586 1.327 . S
C1587 C1591 1.429 1_565 S
C1588 C1571 1.574 . S
C1588 H1582 0.949 . S
C1588 C1592 1.368 . S
C1589 C1570 1.429 1_545 S
C1589 C1583 1.429 . S
C1589 C1590 1.523 . S
C1590 C1571 1.368 . S
C1590 C1584 1.368 1_545 S
C1590 C1589 1.523 . S
C1591 C1575 1.429 . S
C1591 C1587 1.429 1_545 S
C1591 C1592 1.523 . S
C1592 C1576 1.368 1_545 S
C1592 C1588 1.368 . S
C1592 C1591 1.523 . S
H1593 C1568 0.950 . S
H1594 C1570 0.950 . S
H1595 C1571 0.949 . S
H1596 C1573 0.950 . S
H1597 C1575 0.950 . S
C1598 C1599 1.349 . S
C1598 C1600 1.327 . S
C1598 H1623 0.950 . S
C1599 C1598 1.349 . S
C1599 C1615 1.349 . S
C1600 C1598 1.327 . S
C1600 C1619 1.429 . S
C1600 H1624 0.950 . S
C1601 C1618 1.574 . S
C1601 C1620 1.368 . S
C1601 H1625 0.949 . S
H1602 C1606 0.949 . S
C1603 C1604 1.349 . S
C1603 C1605 1.327 1_655 S
C1603 H1626 0.950 . S
C1604 C1603 1.349 . S
C1604 C1616 1.349 1_655 S
C1605 C1603 1.327 1_455 S
C1605 C1621 1.429 . S
C1605 H1627 0.950 . S
C1606 H1602 0.949 . S
C1606 C1614 1.574 . S
C1606 C1622 1.368 . S
H1607 C1615 0.950 . S
H1608 C1613 0.950 . S
H1609 C1614 0.949 . S
H1610 C1616 0.950 . S
H1611 C1617 0.950 . S
H1612 C1618 0.949 . S
C1613 H1608 0.950 . S
C1613 C1615 1.327 . S
C1613 C1619 1.429 . S
C1614 C1606 1.574 . S
C1614 H1609 0.949 . S
C1614 C1620 1.368 . S
C1615 C1599 1.349 . S
C1615 H1607 0.950 . S
C1615 C1613 1.327 . S
C1616 C1604 1.349 1_455 S
C1616 H1610 0.950 . S
C1616 C1617 1.327 . S
C1617 H1611 0.950 . S
C1617 C1616 1.327 . S
C1617 C1621 1.429 . S
C1618 C1601 1.574 . S
C1618 H1612 0.949 . S
C1618 C1622 1.368 . S
C1619 C1600 1.429 . S
C1619 C1613 1.429 . S
C1619 C1620 1.523 . S
C1620 C1601 1.368 . S
C1620 C1614 1.368 . S
C1620 C1619 1.523 . S
C1621 C1605 1.429 . S
C1621 C1617 1.429 . S
C1621 C1622 1.523 . S
C1622 C1606 1.368 . S
C1622 C1618 1.368 . S
C1622 C1621 1.523 . S
H1623 C1598 0.950 . S
H1624 C1600 0.950 . S
H1625 C1601 0.949 . S
H1626 C1603 0.950 . S
H1627 C1605 0.950 . S
C1628 C1629 1.349 1_645 S
C1628 C1630 1.327 . S
C1628 H1653 0.950 . S
C1629 C1628 1.349 1_465 S
C1629 C1645 1.349 . S
C1630 C1628 1.327 . S
C1630 C1649 1.429 1_545 S
C1630 H1654 0.950 . S
C1631 C1648 1.574 . S
C1631 C1650 1.368 . S
C1631 H1655 0.949 . S
H1632 C1636 0.949 . S
C1633 C1634 1.349 . S
C1633 C1635 1.327 . S
C1633 H1656 0.950 . S
C1634 C1633 1.349 . S
C1634 C1646 1.349 1_565 S
C1635 C1633 1.327 . S
C1635 C1651 1.429 . S
C1635 H1657 0.950 . S
C1636 H1632 0.949 . S
C1636 C1644 1.574 . S
C1636 C1652 1.368 1_545 S
H1637 C1645 0.950 . S
H1638 C1643 0.950 . S
H1639 C1644 0.949 . S
H1640 C1646 0.950 . S
H1641 C1647 0.950 . S
H1642 C1648 0.949 . S
C1643 H1638 0.950 . S
C1643 C1645 1.327 1_655 S
C1643 C1649 1.429 . S
C1644 C1636 1.574 . S
C1644 H1639 0.949 . S
C1644 C1650 1.368 1_545 S
C1645 C1629 1.349 . S
C1645 H1637 0.950 . S
C1645 C1643 1.327 1_455 S
C1646 C1634 1.349 1_545 S
C1646 H1640 0.950 . S
C1646 C1647 1.327 . S
C1647 H1641 0.950 . S
C1647 C1646 1.327 . S
C1647 C1651 1.429 1_545 S
C1648 C1631 1.574 . S
C1648 H1642 0.949 . S
C1648 C1652 1.368 . S
C1649 C1630 1.429 1_565 S
C1649 C1643 1.429 . S
C1649 C1650 1.523 . S
C1650 C1631 1.368 . S
C1650 C1644 1.368 1_565 S
C1650 C1649 1.523 . S
C1651 C1635 1.429 . S
C1651 C1647 1.429 1_565 S
C1651 C1652 1.523 . S
C1652 C1636 1.368 1_565 S
C1652 C1648 1.368 . S
C1652 C1651 1.523 . S
H1653 C1628 0.950 . S
H1654 C1630 0.950 . S
H1655 C1631 0.949 . S
H1656 C1633 0.950 . S
H1657 C1635 0.950 . S
C1658 C1659 1.349 . S
C1658 C1660 1.327 1_455 S
C1658 H1683 0.950 . S
C1659 C1658 1.349 . S
C1659 C1675 1.349 1_455 S
C1660 C1658 1.327 1_655 S
C1660 C1679 1.429 . S
C1660 H1684 0.950 . S
C1661 C1678 1.574 . S
C1661 C1680 1.368 . S
C1661 H1685 0.949 . S
H1662 C1666 0.949 . S
C1663 C1664 1.349 . S
C1663 C1665 1.327 . S
C1663 H1686 0.950 . S
C1664 C1663 1.349 . S
C1664 C1676 1.349 . S
C1665 C1663 1.327 . S
C1665 C1681 1.429 . S
C1665 H1687 0.950 . S
C1666 H1662 0.949 . S
C1666 C1674 1.574 . S
C1666 C1682 1.368 . S
H1667 C1675 0.950 . S
H1668 C1673 0.950 . S
H1669 C1674 0.949 . S
H1670 C1676 0.950 . S
H1671 C1677 0.950 . S
H1672 C1678 0.949 . S
C1673 H1668 0.950 . S
C1673 C1675 1.327 . S
C1673 C1679 1.429 . S
C1674 C1666 1.574 . S
C1674 H1669 0.949 . S
C1674 C1680 1.368 . S
C1675 C1659 1.349 1_655 S
C1675 H1667 0.950 . S
C1675 C1673 1.327 . S
C1676 C1664 1.349 . S
C1676 H1670 0.950 . S
C1676 C1677 1.327 . S
C1677 H1671 0.950 . S
C1677 C1676 1.327 . S
C1677 C1681 1.429 . S
C1678 C1661 1.574 . S
C1678 H1672 0.949 . S
C1678 C1682 1.368 . S
C1679 C1660 1.429 . S
C1679 C1673 1.429 . S
C1679 C1680 1.523 . S
C1680 C1661 1.368 . S
C1680 C1674 1.368 . S
C1680 C1679 1.523 . S
C1681 C1665 1.429 . S
C1681 C1677 1.429 . S
C1681 C1682 1.523 . S
C1682 C1666 1.368 . S
C1682 C1678 1.368 . S
C1682 C1681 1.523 . S
H1683 C1658 0.950 . S
H1684 C1660 0.950 . S
H1685 C1661 0.949 . S
H1686 C1663 0.950 . S
H1687 C1665 0.950 . S
C1688 C1689 1.349 1_455 S
C1688 C1690 1.327 . S
C1688 H1713 0.950 . S
C1689 C1688 1.349 1_655 S
C1689 C1705 1.349 . S
C1690 C1688 1.327 . S
C1690 C1709 1.429 . S
C1690 H1714 0.950 . S
C1691 C1708 1.574 . S
C1691 C1710 1.368 . S
C1691 H1715 0.949 . S
H1692 C1696 0.949 . S
C1693 C1694 1.349 . S
C1693 C1695 1.327 . S
C1693 H1716 0.950 . S
C1694 C1693 1.349 . S
C1694 C1706 1.349 . S
C1695 C1693 1.327 . S
C1695 C1711 1.429 . S
C1695 H1717 0.950 . S
C1696 H1692 0.949 . S
C1696 C1704 1.574 . S
C1696 C1712 1.368 . S
H1697 C1705 0.950 . S
H1698 C1703 0.950 . S
H1699 C1704 0.949 . S
H1700 C1706 0.950 . S
H1701 C1707 0.950 . S
H1702 C1708 0.949 . S
C1703 H1698 0.950 . S
C1703 C1705 1.327 1_455 S
C1703 C1709 1.429 . S
C1704 C1696 1.574 . S
C1704 H1699 0.949 . S
C1704 C1710 1.368 . S
C1705 C1689 1.349 . S
C1705 H1697 0.950 . S
C1705 C1703 1.327 1_655 S
C1706 C1694 1.349 . S
C1706 H1700 0.950 . S
C1706 C1707 1.327 . S
C1707 H1701 0.950 . S
C1707 C1706 1.327 . S
C1707 C1711 1.429 . S
C1708 C1691 1.574 . S
C1708 H1702 0.949 . S
C1708 C1712 1.368 . S
C1709 C1690 1.429 . S
C1709 C1703 1.429 . S
C1709 C1710 1.523 . S
C1710 C1691 1.368 . S
C1710 C1704 1.368 . S
C1710 C1709 1.523 . S
C1711 C1695 1.429 . S
C1711 C1707 1.429 . S
C1711 C1712 1.523 . S
C1712 C1696 1.368 . S
C1712 C1708 1.368 . S
C1712 C1711 1.523 . S
H1713 C1688 0.950 . S
H1714 C1690 0.950 . S
H1715 C1691 0.949 . S
H1716 C1693 0.950 . S
H1717 C1695 0.950 . S
C1718 C1719 1.349 . S
C1718 C1720 1.327 . S
C1718 H1743 0.950 . S
C1719 C1718 1.349 . S
C1719 C1735 1.349 . S
C1720 C1718 1.327 . S
C1720 C1739 1.429 . S
C1720 H1744 0.950 . S
C1721 C1738 1.574 . S
C1721 C1740 1.368 . S
C1721 H1745 0.949 . S
H1722 C1726 0.949 . S
C1723 C1724 1.349 1_455 S
C1723 C1725 1.327 . S
C1723 H1746 0.950 . S
C1724 C1723 1.349 1_655 S
C1724 C1736 1.349 . S
C1725 C1723 1.327 . S
C1725 C1741 1.429 . S
C1725 H1747 0.950 . S
C1726 H1722 0.949 . S
C1726 C1734 1.574 . S
C1726 C1742 1.368 . S
H1727 C1735 0.950 . S
H1728 C1733 0.950 . S
H1729 C1734 0.949 . S
H1730 C1736 0.950 . S
H1731 C1737 0.950 . S
H1732 C1738 0.949 . S
C1733 H1728 0.950 . S
C1733 C1735 1.327 . S
C1733 C1739 1.429 . S
C1734 C1726 1.574 . S
C1734 H1729 0.949 . S
C1734 C1740 1.368 . S
C1735 C1719 1.349 . S
C1735 H1727 0.950 . S
C1735 C1733 1.327 . S
C1736 C1724 1.349 . S
C1736 H1730 0.950 . S
C1736 C1737 1.327 1_655 S
C1737 H1731 0.950 . S
C1737 C1736 1.327 1_455 S
C1737 C1741 1.429 . S
C1738 C1721 1.574 . S
C1738 H1732 0.949 . S
C1738 C1742 1.368 . S
C1739 C1720 1.429 . S
C1739 C1733 1.429 . S
C1739 C1740 1.523 . S
C1740 C1721 1.368 . S
C1740 C1734 1.368 . S
C1740 C1739 1.523 . S
C1741 C1725 1.429 . S
C1741 C1737 1.429 . S
C1741 C1742 1.523 . S
C1742 C1726 1.368 . S
C1742 C1738 1.368 . S
C1742 C1741 1.523 . S
H1743 C1718 0.950 . S
H1744 C1720 0.950 . S
H1745 C1721 0.949 . S
H1746 C1723 0.950 . S
H1747 C1725 0.950 . S
C1748 C1749 1.349 . S
C1748 C1750 1.327 . S
C1748 H1773 0.950 . S
C1749 C1748 1.349 . S
C1749 C1765 1.349 . S
C1750 C1748 1.327 . S
C1750 C1769 1.429 . S
C1750 H1774 0.950 . S
C1751 C1768 1.574 . S
C1751 C1770 1.368 . S
C1751 H1775 0.949 . S
H1752 C1756 0.949 . S
C1753 C1754 1.349 . S
C1753 C1755 1.327 1_455 S
C1753 H1776 0.950 . S
C1754 C1753 1.349 . S
C1754 C1766 1.349 1_455 S
C1755 C1753 1.327 1_655 S
C1755 C1771 1.429 . S
C1755 H1777 0.950 . S
C1756 H1752 0.949 . S
C1756 C1764 1.574 . S
C1756 C1772 1.368 . S
H1757 C1765 0.950 . S
H1758 C1763 0.950 . S
H1759 C1764 0.949 . S
H1760 C1766 0.950 . S
H1761 C1767 0.950 . S
H1762 C1768 0.949 . S
C1763 H1758 0.950 . S
C1763 C1765 1.327 . S
C1763 C1769 1.429 . S
C1764 C1756 1.574 . S
C1764 H1759 0.949 . S
C1764 C1770 1.368 . S
C1765 C1749 1.349 . S
C1765 H1757 0.950 . S
C1765 C1763 1.327 . S
C1766 C1754 1.349 1_655 S
C1766 H1760 0.950 . S
C1766 C1767 1.327 . S
C1767 H1761 0.950 . S
C1767 C1766 1.327 . S
C1767 C1771 1.429 . S
C1768 C1751 1.574 . S
C1768 H1762 0.949 . S
C1768 C1772 1.368 . S
C1769 C1750 1.429 . S
C1769 C1763 1.429 . S
C1769 C1770 1.523 . S
C1770 C1751 1.368 . S
C1770 C1764 1.368 . S
C1770 C1769 1.523 . S
C1771 C1755 1.429 . S
C1771 C1767 1.429 . S
C1771 C1772 1.523 . S
C1772 C1756 1.368 . S
C1772 C1768 1.368 . S
C1772 C1771 1.523 . S
H1773 C1748 0.950 . S
H1774 C1750 0.950 . S
H1775 C1751 0.949 . S
H1776 C1753 0.950 . S
H1777 C1755 0.950 . S
C1778 C1779 1.349 . S
C1778 C1780 1.327 . S
C1778 H1803 0.950 . S
C1779 C1778 1.349 . S
C1779 C1795 1.349 . S
C1780 C1778 1.327 . S
C1780 C1799 1.429 . S
C1780 H1804 0.950 . S
C1781 C1798 1.574 . S
C1781 C1800 1.368 . S
C1781 H1805 0.949 . S
H1782 C1786 0.949 . S
C1783 C1784 1.349 . S
C1783 C1785 1.327 1_455 S
C1783 H1806 0.950 . S
C1784 C1783 1.349 . S
C1784 C1796 1.349 1_455 S
C1785 C1783 1.327 1_655 S
C1785 C1801 1.429 . S
C1785 H1807 0.950 . S
C1786 H1782 0.949 . S
C1786 C1794 1.574 . S
C1786 C1802 1.368 . S
H1787 C1795 0.950 . S
H1788 C1793 0.950 . S
H1789 C1794 0.949 . S
H1790 C1796 0.950 . S
H1791 C1797 0.950 . S
H1792 C1798 0.949 . S
C1793 H1788 0.950 . S
C1793 C1795 1.327 . S
C1793 C1799 1.429 . S
C1794 C1786 1.574 . S
C1794 H1789 0.949 . S
C1794 C1800 1.368 . S
C1795 C1779 1.349 . S
C1795 H1787 0.950 . S
C1795 C1793 1.327 . S
C1796 C1784 1.349 1_655 S
C1796 H1790 0.950 . S
C1796 C1797 1.327 . S
C1797 H1791 0.950 . S
C1797 C1796 1.327 . S
C1797 C1801 1.429 . S
C1798 C1781 1.574 . S
C1798 H1792 0.949 . S
C1798 C1802 1.368 . S
C1799 C1780 1.429 . S
C1799 C1793 1.429 . S
C1799 C1800 1.523 . S
C1800 C1781 1.368 . S
C1800 C1794 1.368 . S
C1800 C1799 1.523 . S
C1801 C1785 1.429 . S
C1801 C1797 1.429 . S
C1801 C1802 1.523 . S
C1802 C1786 1.368 . S
C1802 C1798 1.368 . S
C1802 C1801 1.523 . S
H1803 C1778 0.950 . S
H1804 C1780 0.950 . S
H1805 C1781 0.949 . S
H1806 C1783 0.950 . S
H1807 C1785 0.950 . S
C1808 C1809 1.349 . S
C1808 C1810 1.327 . S
C1808 H1833 0.950 . S
C1809 C1808 1.349 . S
C1809 C1825 1.349 1_545 S
C1810 C1808 1.327 . S
C1810 C1829 1.429 . S
C1810 H1834 0.950 . S
C1811 C1828 1.574 . S
C1811 C1830 1.368 1_565 S
C1811 H1835 0.949 . S
H1812 C1816 0.949 . S
C1813 C1814 1.349 1_565 S
C1813 C1815 1.327 . S
C1813 H1836 0.950 . S
C1814 C1813 1.349 1_545 S
C1814 C1826 1.349 . S
C1815 C1813 1.327 . S
C1815 C1831 1.429 1_565 S
C1815 H1837 0.950 . S
C1816 H1812 0.949 . S
C1816 C1824 1.574 . S
C1816 C1832 1.368 . S
H1817 C1825 0.950 . S
H1818 C1823 0.950 . S
H1819 C1824 0.949 . S
H1820 C1826 0.950 . S
H1821 C1827 0.950 . S
H1822 C1828 0.949 . S
C1823 H1818 0.950 . S
C1823 C1825 1.327 . S
C1823 C1829 1.429 1_565 S
C1824 C1816 1.574 . S
C1824 H1819 0.949 . S
C1824 C1830 1.368 . S
C1825 C1809 1.349 1_565 S
C1825 H1817 0.950 . S
C1825 C1823 1.327 . S
C1826 C1814 1.349 . S
C1826 H1820 0.950 . S
C1826 C1827 1.327 . S
C1827 H1821 0.950 . S
C1827 C1826 1.327 . S
C1827 C1831 1.429 . S
C1828 C1811 1.574 . S
C1828 H1822 0.949 . S
C1828 C1832 1.368 1_565 S
C1829 C1810 1.429 . S
C1829 C1823 1.429 1_545 S
C1829 C1830 1.523 . S
C1830 C1811 1.368 1_545 S
C1830 C1824 1.368 . S
C1830 C1829 1.523 . S
C1831 C1815 1.429 1_545 S
C1831 C1827 1.429 . S
C1831 C1832 1.523 . S
C1832 C1816 1.368 . S
C1832 C1828 1.368 1_545 S
C1832 C1831 1.523 . S
H1833 C1808 0.950 . S
H1834 C1810 0.950 . S
H1835 C1811 0.949 . S
H1836 C1813 0.950 . S
H1837 C1815 0.950 . S
C1838 C1839 1.349 . S
C1838 C1840 1.327 . S
C1838 H1863 0.950 . S
C1839 C1838 1.349 . S
C1839 C1855 1.349 . S
C1840 C1838 1.327 . S
C1840 C1859 1.429 . S
C1840 H1864 0.950 . S
C1841 C1858 1.574 . S
C1841 C1860 1.368 . S
C1841 H1865 0.949 . S
H1842 C1846 0.949 . S
C1843 C1844 1.349 . S
C1843 C1845 1.327 . S
C1843 H1866 0.950 . S
C1844 C1843 1.349 . S
C1844 C1856 1.349 . S
C1845 C1843 1.327 . S
C1845 C1861 1.429 . S
C1845 H1867 0.950 . S
C1846 H1842 0.949 . S
C1846 C1854 1.574 . S
C1846 C1862 1.368 . S
H1847 C1855 0.950 . S
H1848 C1853 0.950 . S
H1849 C1854 0.949 . S
H1850 C1856 0.950 . S
H1851 C1857 0.950 . S
H1852 C1858 0.949 . S
C1853 H1848 0.950 . S
C1853 C1855 1.327 . S
C1853 C1859 1.429 . S
C1854 C1846 1.574 . S
C1854 H1849 0.949 . S
C1854 C1860 1.368 . S
C1855 C1839 1.349 . S
C1855 H1847 0.950 . S
C1855 C1853 1.327 . S
C1856 C1844 1.349 . S
C1856 H1850 0.950 . S
C1856 C1857 1.327 . S
C1857 H1851 0.950 . S
C1857 C1856 1.327 . S
C1857 C1861 1.429 . S
C1858 C1841 1.574 . S
C1858 H1852 0.949 . S
C1858 C1862 1.368 . S
C1859 C1840 1.429 . S
C1859 C1853 1.429 . S
C1859 C1860 1.523 . S
C1860 C1841 1.368 . S
C1860 C1854 1.368 . S
C1860 C1859 1.523 . S
C1861 C1845 1.429 . S
C1861 C1857 1.429 . S
C1861 C1862 1.523 . S
C1862 C1846 1.368 . S
C1862 C1858 1.368 . S
C1862 C1861 1.523 . S
H1863 C1838 0.950 . S
H1864 C1840 0.950 . S
H1865 C1841 0.949 . S
H1866 C1843 0.950 . S
H1867 C1845 0.950 . S
C1868 C1869 1.349 1_545 S
C1868 C1870 1.327 . S
C1868 H1893 0.950 . S
C1869 C1868 1.349 1_565 S
C1869 C1885 1.349 . S
C1870 C1868 1.327 . S
C1870 C1889 1.429 1_545 S
C1870 H1894 0.950 . S
C1871 C1888 1.574 . S
C1871 C1890 1.368 . S
C1871 H1895 0.949 . S
H1872 C1876 0.949 . S
C1873 C1874 1.349 . S
C1873 C1875 1.327 . S
C1873 H1896 0.950 . S
C1874 C1873 1.349 . S
C1874 C1886 1.349 1_565 S
C1875 C1873 1.327 . S
C1875 C1891 1.429 . S
C1875 H1897 0.950 . S
C1876 H1872 0.949 . S
C1876 C1884 1.574 . S
C1876 C1892 1.368 1_545 S
H1877 C1885 0.950 . S
H1878 C1883 0.950 . S
H1879 C1884 0.949 . S
H1880 C1886 0.950 . S
H1881 C1887 0.950 . S
H1882 C1888 0.949 . S
C1883 H1878 0.950 . S
C1883 C1885 1.327 . S
C1883 C1889 1.429 . S
C1884 C1876 1.574 . S
C1884 H1879 0.949 . S
C1884 C1890 1.368 1_545 S
C1885 C1869 1.349 . S
C1885 H1877 0.950 . S
C1885 C1883 1.327 . S
C1886 C1874 1.349 1_545 S
C1886 H1880 0.950 . S
C1886 C1887 1.327 . S
C1887 H1881 0.950 . S
C1887 C1886 1.327 . S
C1887 C1891 1.429 1_545 S
C1888 C1871 1.574 . S
C1888 H1882 0.949 . S
C1888 C1892 1.368 . S
C1889 C1870 1.429 1_565 S
C1889 C1883 1.429 . S
C1889 C1890 1.523 . S
C1890 C1871 1.368 . S
C1890 C1884 1.368 1_565 S
C1890 C1889 1.523 . S
C1891 C1875 1.429 . S
C1891 C1887 1.429 1_565 S
C1891 C1892 1.523 . S
C1892 C1876 1.368 1_565 S
C1892 C1888 1.368 . S
C1892 C1891 1.523 . S
H1893 C1868 0.950 . S
H1894 C1870 0.950 . S
H1895 C1871 0.949 . S
H1896 C1873 0.950 . S
H1897 C1875 0.950 . S
C1898 C1899 1.349 . S
C1898 C1900 1.327 . S
C1898 H1923 0.950 . S
C1899 C1898 1.349 . S
C1899 C1915 1.349 . S
C1900 C1898 1.327 . S
C1900 C1919 1.429 . S
C1900 H1924 0.950 . S
C1901 C1918 1.574 . S
C1901 C1920 1.368 . S
C1901 H1925 0.949 . S
H1902 C1906 0.949 . S
C1903 C1904 1.349 . S
C1903 C1905 1.327 . S
C1903 H1926 0.950 . S
C1904 C1903 1.349 . S
C1904 C1916 1.349 . S
C1905 C1903 1.327 . S
C1905 C1921 1.429 . S
C1905 H1927 0.950 . S
C1906 H1902 0.949 . S
C1906 C1914 1.574 . S
C1906 C1922 1.368 . S
H1907 C1915 0.950 . S
H1908 C1913 0.950 . S
H1909 C1914 0.949 . S
H1910 C1916 0.950 . S
H1911 C1917 0.950 . S
H1912 C1918 0.949 . S
C1913 H1908 0.950 . S
C1913 C1915 1.327 . S
C1913 C1919 1.429 . S
C1914 C1906 1.574 . S
C1914 H1909 0.949 . S
C1914 C1920 1.368 . S
C1915 C1899 1.349 . S
C1915 H1907 0.950 . S
C1915 C1913 1.327 . S
C1916 C1904 1.349 . S
C1916 H1910 0.950 . S
C1916 C1917 1.327 . S
C1917 H1911 0.950 . S
C1917 C1916 1.327 . S
C1917 C1921 1.429 . S
C1918 C1901 1.574 . S
C1918 H1912 0.949 . S
C1918 C1922 1.368 . S
C1919 C1900 1.429 . S
C1919 C1913 1.429 . S
C1919 C1920 1.523 . S
C1920 C1901 1.368 . S
C1920 C1914 1.368 . S
C1920 C1919 1.523 . S
C1921 C1905 1.429 . S
C1921 C1917 1.429 . S
C1921 C1922 1.523 . S
C1922 C1906 1.368 . S
C1922 C1918 1.368 . S
C1922 C1921 1.523 . S
H1923 C1898 0.950 . S
H1924 C1900 0.950 . S
H1925 C1901 0.949 . S
H1926 C1903 0.950 . S
H1927 C1905 0.950 . S
C1928 C1929 1.349 . S
C1928 C1930 1.327 . S
C1928 H1953 0.950 . S
C1929 C1928 1.349 . S
C1929 C1945 1.349 . S
C1930 C1928 1.327 . S
C1930 C1949 1.429 . S
C1930 H1954 0.950 . S
C1931 C1948 1.574 . S
C1931 C1950 1.368 . S
C1931 H1955 0.949 . S
H1932 C1936 0.949 . S
C1933 C1934 1.349 . S
C1933 C1935 1.327 . S
C1933 H1956 0.950 . S
C1934 C1933 1.349 . S
C1934 C1946 1.349 . S
C1935 C1933 1.327 . S
C1935 C1951 1.429 . S
C1935 H1957 0.950 . S
C1936 H1932 0.949 . S
C1936 C1944 1.574 . S
C1936 C1952 1.368 . S
H1937 C1945 0.950 . S
H1938 C1943 0.950 . S
H1939 C1944 0.949 . S
H1940 C1946 0.950 . S
H1941 C1947 0.950 . S
H1942 C1948 0.949 . S
C1943 H1938 0.950 . S
C1943 C1945 1.327 . S
C1943 C1949 1.429 . S
C1944 C1936 1.574 . S
C1944 H1939 0.949 . S
C1944 C1950 1.368 . S
C1945 C1929 1.349 . S
C1945 H1937 0.950 . S
C1945 C1943 1.327 . S
C1946 C1934 1.349 . S
C1946 H1940 0.950 . S
C1946 C1947 1.327 . S
C1947 H1941 0.950 . S
C1947 C1946 1.327 . S
C1947 C1951 1.429 . S
C1948 C1931 1.574 . S
C1948 H1942 0.949 . S
C1948 C1952 1.368 . S
C1949 C1930 1.429 . S
C1949 C1943 1.429 . S
C1949 C1950 1.523 . S
C1950 C1931 1.368 . S
C1950 C1944 1.368 . S
C1950 C1949 1.523 . S
C1951 C1935 1.429 . S
C1951 C1947 1.429 . S
C1951 C1952 1.523 . S
C1952 C1936 1.368 . S
C1952 C1948 1.368 . S
C1952 C1951 1.523 . S
H1953 C1928 0.950 . S
H1954 C1930 0.950 . S
H1955 C1931 0.949 . S
H1956 C1933 0.950 . S
H1957 C1935 0.950 . S
C1958 C1959 1.349 . S
C1958 C1960 1.327 . S
C1958 H1983 0.950 . S
C1959 C1958 1.349 . S
C1959 C1975 1.349 . S
C1960 C1958 1.327 . S
C1960 C1979 1.429 . S
C1960 H1984 0.950 . S
C1961 C1978 1.574 . S
C1961 C1980 1.368 . S
C1961 H1985 0.949 . S
H1962 C1966 0.949 . S
C1963 C1964 1.349 . S
C1963 C1965 1.327 . S
C1963 H1986 0.950 . S
C1964 C1963 1.349 . S
C1964 C1976 1.349 . S
C1965 C1963 1.327 . S
C1965 C1981 1.429 . S
C1965 H1987 0.950 . S
C1966 H1962 0.949 . S
C1966 C1974 1.574 . S
C1966 C1982 1.368 . S
H1967 C1975 0.950 . S
H1968 C1973 0.950 . S
H1969 C1974 0.949 . S
H1970 C1976 0.950 . S
H1971 C1977 0.950 . S
H1972 C1978 0.949 . S
C1973 H1968 0.950 . S
C1973 C1975 1.327 . S
C1973 C1979 1.429 . S
C1974 C1966 1.574 . S
C1974 H1969 0.949 . S
C1974 C1980 1.368 . S
C1975 C1959 1.349 . S
C1975 H1967 0.950 . S
C1975 C1973 1.327 . S
C1976 C1964 1.349 . S
C1976 H1970 0.950 . S
C1976 C1977 1.327 . S
C1977 H1971 0.950 . S
C1977 C1976 1.327 . S
C1977 C1981 1.429 . S
C1978 C1961 1.574 . S
C1978 H1972 0.949 . S
C1978 C1982 1.368 . S
C1979 C1960 1.429 . S
C1979 C1973 1.429 . S
C1979 C1980 1.523 . S
C1980 C1961 1.368 . S
C1980 C1974 1.368 . S
C1980 C1979 1.523 . S
C1981 C1965 1.429 . S
C1981 C1977 1.429 . S
C1981 C1982 1.523 . S
C1982 C1966 1.368 . S
C1982 C1978 1.368 . S
C1982 C1981 1.523 . S
H1983 C1958 0.950 . S
H1984 C1960 0.950 . S
H1985 C1961 0.949 . S
H1986 C1963 0.950 . S
H1987 C1965 0.950 . S
C1988 C1989 1.349 . S
C1988 C1990 1.327 . S
C1988 H2013 0.950 . S
C1989 C1988 1.349 . S
C1989 C2005 1.349 . S
C1990 C1988 1.327 . S
C1990 C2009 1.429 . S
C1990 H2014 0.950 . S
C1991 C2008 1.574 . S
C1991 C2010 1.368 . S
C1991 H2015 0.949 . S
H1992 C1996 0.949 . S
C1993 C1994 1.349 . S
C1993 C1995 1.327 . S
C1993 H2016 0.950 . S
C1994 C1993 1.349 . S
C1994 C2006 1.349 . S
C1995 C1993 1.327 . S
C1995 C2011 1.429 . S
C1995 H2017 0.950 . S
C1996 H1992 0.949 . S
C1996 C2004 1.574 . S
C1996 C2012 1.368 . S
H1997 C2005 0.950 . S
H1998 C2003 0.950 . S
H1999 C2004 0.949 . S
H2000 C2006 0.950 . S
H2001 C2007 0.950 . S
H2002 C2008 0.949 . S
C2003 H1998 0.950 . S
C2003 C2005 1.327 . S
C2003 C2009 1.429 . S
C2004 C1996 1.574 . S
C2004 H1999 0.949 . S
C2004 C2010 1.368 . S
C2005 C1989 1.349 . S
C2005 H1997 0.950 . S
C2005 C2003 1.327 . S
C2006 C1994 1.349 . S
C2006 H2000 0.950 . S
C2006 C2007 1.327 . S
C2007 H2001 0.950 . S
C2007 C2006 1.327 . S
C2007 C2011 1.429 . S
C2008 C1991 1.574 . S
C2008 H2002 0.949 . S
C2008 C2012 1.368 . S
C2009 C1990 1.429 . S
C2009 C2003 1.429 . S
C2009 C2010 1.523 . S
C2010 C1991 1.368 . S
C2010 C2004 1.368 . S
C2010 C2009 1.523 . S
C2011 C1995 1.429 . S
C2011 C2007 1.429 . S
C2011 C2012 1.523 . S
C2012 C1996 1.368 . S
C2012 C2008 1.368 . S
C2012 C2011 1.523 . S
H2013 C1988 0.950 . S
H2014 C1990 0.950 . S
H2015 C1991 0.949 . S
H2016 C1993 0.950 . S
H2017 C1995 0.950 . S
C2018 C2019 1.349 . S
C2018 C2020 1.327 . S
C2018 H2043 0.950 . S
C2019 C2018 1.349 . S
C2019 C2035 1.349 . S
C2020 C2018 1.327 . S
C2020 C2039 1.429 . S
C2020 H2044 0.950 . S
C2021 C2038 1.574 . S
C2021 C2040 1.368 . S
C2021 H2045 0.949 . S
H2022 C2026 0.949 . S
C2023 C2024 1.349 . S
C2023 C2025 1.327 . S
C2023 H2046 0.950 . S
C2024 C2023 1.349 . S
C2024 C2036 1.349 . S
C2025 C2023 1.327 . S
C2025 C2041 1.429 . S
C2025 H2047 0.950 . S
C2026 H2022 0.949 . S
C2026 C2034 1.574 . S
C2026 C2042 1.368 . S
H2027 C2035 0.950 . S
H2028 C2033 0.950 . S
H2029 C2034 0.949 . S
H2030 C2036 0.950 . S
H2031 C2037 0.950 . S
H2032 C2038 0.949 . S
C2033 H2028 0.950 . S
C2033 C2035 1.327 . S
C2033 C2039 1.429 . S
C2034 C2026 1.574 . S
C2034 H2029 0.949 . S
C2034 C2040 1.368 . S
C2035 C2019 1.349 . S
C2035 H2027 0.950 . S
C2035 C2033 1.327 . S
C2036 C2024 1.349 . S
C2036 H2030 0.950 . S
C2036 C2037 1.327 . S
C2037 H2031 0.950 . S
C2037 C2036 1.327 . S
C2037 C2041 1.429 . S
C2038 C2021 1.574 . S
C2038 H2032 0.949 . S
C2038 C2042 1.368 . S
C2039 C2020 1.429 . S
C2039 C2033 1.429 . S
C2039 C2040 1.523 . S
C2040 C2021 1.368 . S
C2040 C2034 1.368 . S
C2040 C2039 1.523 . S
C2041 C2025 1.429 . S
C2041 C2037 1.429 . S
C2041 C2042 1.523 . S
C2042 C2026 1.368 . S
C2042 C2038 1.368 . S
C2042 C2041 1.523 . S
H2043 C2018 0.950 . S
H2044 C2020 0.950 . S
H2045 C2021 0.949 . S
H2046 C2023 0.950 . S
H2047 C2025 0.950 . S
C2048 C2049 1.349 . S
C2048 C2050 1.327 1_655 S
C2048 H2073 0.950 . S
C2049 C2048 1.349 . S
C2049 C2065 1.349 1_655 S
C2050 C2048 1.327 1_455 S
C2050 C2069 1.429 . S
C2050 H2074 0.950 . S
C2051 C2068 1.574 . S
C2051 C2070 1.368 . S
C2051 H2075 0.949 . S
H2052 C2056 0.949 . S
C2053 C2054 1.349 . S
C2053 C2055 1.327 . S
C2053 H2076 0.950 . S
C2054 C2053 1.349 . S
C2054 C2066 1.349 . S
C2055 C2053 1.327 . S
C2055 C2071 1.429 . S
C2055 H2077 0.950 . S
C2056 H2052 0.949 . S
C2056 C2064 1.574 . S
C2056 C2072 1.368 . S
H2057 C2065 0.950 . S
H2058 C2063 0.950 . S
H2059 C2064 0.949 . S
H2060 C2066 0.950 . S
H2061 C2067 0.950 . S
H2062 C2068 0.949 . S
C2063 H2058 0.950 . S
C2063 C2065 1.327 . S
C2063 C2069 1.429 . S
C2064 C2056 1.574 . S
C2064 H2059 0.949 . S
C2064 C2070 1.368 . S
C2065 C2049 1.349 1_455 S
C2065 H2057 0.950 . S
C2065 C2063 1.327 . S
C2066 C2054 1.349 . S
C2066 H2060 0.950 . S
C2066 C2067 1.327 . S
C2067 H2061 0.950 . S
C2067 C2066 1.327 . S
C2067 C2071 1.429 . S
C2068 C2051 1.574 . S
C2068 H2062 0.949 . S
C2068 C2072 1.368 . S
C2069 C2050 1.429 . S
C2069 C2063 1.429 . S
C2069 C2070 1.523 . S
C2070 C2051 1.368 . S
C2070 C2064 1.368 . S
C2070 C2069 1.523 . S
C2071 C2055 1.429 . S
C2071 C2067 1.429 . S
C2071 C2072 1.523 . S
C2072 C2056 1.368 . S
C2072 C2068 1.368 . S
C2072 C2071 1.523 . S
H2073 C2048 0.950 . S
H2074 C2050 0.950 . S
H2075 C2051 0.949 . S
H2076 C2053 0.950 . S
H2077 C2055 0.950 . S
C2078 C2079 1.349 1_455 S
C2078 C2080 1.327 . S
C2078 H2103 0.950 . S
C2079 C2078 1.349 1_655 S
C2079 C2095 1.349 . S
C2080 C2078 1.327 . S
C2080 C2099 1.429 . S
C2080 H2104 0.950 . S
C2081 C2098 1.574 . S
C2081 C2100 1.368 . S
C2081 H2105 0.949 . S
H2082 C2086 0.949 . S
C2083 C2084 1.349 . S
C2083 C2085 1.327 . S
C2083 H2106 0.950 . S
C2084 C2083 1.349 . S
C2084 C2096 1.349 . S
C2085 C2083 1.327 . S
C2085 C2101 1.429 . S
C2085 H2107 0.950 . S
C2086 H2082 0.949 . S
C2086 C2094 1.574 . S
C2086 C2102 1.368 . S
H2087 C2095 0.950 . S
H2088 C2093 0.950 . S
H2089 C2094 0.949 . S
H2090 C2096 0.950 . S
H2091 C2097 0.950 . S
H2092 C2098 0.949 . S
C2093 H2088 0.950 . S
C2093 C2095 1.327 1_455 S
C2093 C2099 1.429 . S
C2094 C2086 1.574 . S
C2094 H2089 0.949 . S
C2094 C2100 1.368 . S
C2095 C2079 1.349 . S
C2095 H2087 0.950 . S
C2095 C2093 1.327 1_655 S
C2096 C2084 1.349 . S
C2096 H2090 0.950 . S
C2096 C2097 1.327 . S
C2097 H2091 0.950 . S
C2097 C2096 1.327 . S
C2097 C2101 1.429 . S
C2098 C2081 1.574 . S
C2098 H2092 0.949 . S
C2098 C2102 1.368 . S
C2099 C2080 1.429 . S
C2099 C2093 1.429 . S
C2099 C2100 1.523 . S
C2100 C2081 1.368 . S
C2100 C2094 1.368 . S
C2100 C2099 1.523 . S
C2101 C2085 1.429 . S
C2101 C2097 1.429 . S
C2101 C2102 1.523 . S
C2102 C2086 1.368 . S
C2102 C2098 1.368 . S
C2102 C2101 1.523 . S
H2103 C2078 0.950 . S
H2104 C2080 0.950 . S
H2105 C2081 0.949 . S
H2106 C2083 0.950 . S
H2107 C2085 0.950 . S
C2108 C2109 1.349 . S
C2108 C2110 1.327 . S
C2108 H2133 0.950 . S
C2109 C2108 1.349 . S
C2109 C2125 1.349 . S
C2110 C2108 1.327 . S
C2110 C2129 1.429 . S
C2110 H2134 0.950 . S
C2111 C2128 1.574 . S
C2111 C2130 1.368 . S
C2111 H2135 0.949 . S
H2112 C2116 0.949 . S
C2113 C2114 1.349 1_655 S
C2113 C2115 1.327 . S
C2113 H2136 0.950 . S
C2114 C2113 1.349 1_455 S
C2114 C2126 1.349 . S
C2115 C2113 1.327 . S
C2115 C2131 1.429 . S
C2115 H2137 0.950 . S
C2116 H2112 0.949 . S
C2116 C2124 1.574 . S
C2116 C2132 1.368 . S
H2117 C2125 0.950 . S
H2118 C2123 0.950 . S
H2119 C2124 0.949 . S
H2120 C2126 0.950 . S
H2121 C2127 0.950 . S
H2122 C2128 0.949 . S
C2123 H2118 0.950 . S
C2123 C2125 1.327 . S
C2123 C2129 1.429 . S
C2124 C2116 1.574 . S
C2124 H2119 0.949 . S
C2124 C2130 1.368 . S
C2125 C2109 1.349 . S
C2125 H2117 0.950 . S
C2125 C2123 1.327 . S
C2126 C2114 1.349 . S
C2126 H2120 0.950 . S
C2126 C2127 1.327 1_455 S
C2127 H2121 0.950 . S
C2127 C2126 1.327 1_655 S
C2127 C2131 1.429 . S
C2128 C2111 1.574 . S
C2128 H2122 0.949 . S
C2128 C2132 1.368 . S
C2129 C2110 1.429 . S
C2129 C2123 1.429 . S
C2129 C2130 1.523 . S
C2130 C2111 1.368 . S
C2130 C2124 1.368 . S
C2130 C2129 1.523 . S
C2131 C2115 1.429 . S
C2131 C2127 1.429 . S
C2131 C2132 1.523 . S
C2132 C2116 1.368 . S
C2132 C2128 1.368 . S
C2132 C2131 1.523 . S
H2133 C2108 0.950 . S
H2134 C2110 0.950 . S
H2135 C2111 0.949 . S
H2136 C2113 0.950 . S
H2137 C2115 0.950 . S
C2138 C2139 1.349 . S
C2138 C2140 1.327 . S
C2138 H2163 0.950 . S
C2139 C2138 1.349 . S
C2139 C2155 1.349 . S
C2140 C2138 1.327 . S
C2140 C2159 1.429 . S
C2140 H2164 0.950 . S
C2141 C2158 1.574 . S
C2141 C2160 1.368 . S
C2141 H2165 0.949 . S
H2142 C2146 0.949 . S
C2143 C2144 1.349 . S
C2143 C2145 1.327 1_455 S
C2143 H2166 0.950 . S
C2144 C2143 1.349 . S
C2144 C2156 1.349 1_455 S
C2145 C2143 1.327 1_655 S
C2145 C2161 1.429 . S
C2145 H2167 0.950 . S
C2146 H2142 0.949 . S
C2146 C2154 1.574 . S
C2146 C2162 1.368 . S
H2147 C2155 0.950 . S
H2148 C2153 0.950 . S
H2149 C2154 0.949 . S
H2150 C2156 0.950 . S
H2151 C2157 0.950 . S
H2152 C2158 0.949 . S
C2153 H2148 0.950 . S
C2153 C2155 1.327 . S
C2153 C2159 1.429 . S
C2154 C2146 1.574 . S
C2154 H2149 0.949 . S
C2154 C2160 1.368 . S
C2155 C2139 1.349 . S
C2155 H2147 0.950 . S
C2155 C2153 1.327 . S
C2156 C2144 1.349 1_655 S
C2156 H2150 0.950 . S
C2156 C2157 1.327 . S
C2157 H2151 0.950 . S
C2157 C2156 1.327 . S
C2157 C2161 1.429 . S
C2158 C2141 1.574 . S
C2158 H2152 0.949 . S
C2158 C2162 1.368 . S
C2159 C2140 1.429 . S
C2159 C2153 1.429 . S
C2159 C2160 1.523 . S
C2160 C2141 1.368 . S
C2160 C2154 1.368 . S
C2160 C2159 1.523 . S
C2161 C2145 1.429 . S
C2161 C2157 1.429 . S
C2161 C2162 1.523 . S
C2162 C2146 1.368 . S
C2162 C2158 1.368 . S
C2162 C2161 1.523 . S
H2163 C2138 0.950 . S
H2164 C2140 0.950 . S
H2165 C2141 0.949 . S
H2166 C2143 0.950 . S
H2167 C2145 0.950 . S
C2168 C2169 1.349 . S
C2168 C2170 1.327 1_655 S
C2168 H2193 0.950 . S
C2169 C2168 1.349 . S
C2169 C2185 1.349 1_655 S
C2170 C2168 1.327 1_455 S
C2170 C2189 1.429 . S
C2170 H2194 0.950 . S
C2171 C2188 1.574 . S
C2171 C2190 1.368 . S
C2171 H2195 0.949 . S
H2172 C2176 0.949 . S
C2173 C2174 1.349 . S
C2173 C2175 1.327 . S
C2173 H2196 0.950 . S
C2174 C2173 1.349 . S
C2174 C2186 1.349 . S
C2175 C2173 1.327 . S
C2175 C2191 1.429 . S
C2175 H2197 0.950 . S
C2176 H2172 0.949 . S
C2176 C2184 1.574 . S
C2176 C2192 1.368 . S
H2177 C2185 0.950 . S
H2178 C2183 0.950 . S
H2179 C2184 0.949 . S
H2180 C2186 0.950 . S
H2181 C2187 0.950 . S
H2182 C2188 0.949 . S
C2183 H2178 0.950 . S
C2183 C2185 1.327 . S
C2183 C2189 1.429 . S
C2184 C2176 1.574 . S
C2184 H2179 0.949 . S
C2184 C2190 1.368 . S
C2185 C2169 1.349 1_455 S
C2185 H2177 0.950 . S
C2185 C2183 1.327 . S
C2186 C2174 1.349 . S
C2186 H2180 0.950 . S
C2186 C2187 1.327 . S
C2187 H2181 0.950 . S
C2187 C2186 1.327 . S
C2187 C2191 1.429 . S
C2188 C2171 1.574 . S
C2188 H2182 0.949 . S
C2188 C2192 1.368 . S
C2189 C2170 1.429 . S
C2189 C2183 1.429 . S
C2189 C2190 1.523 . S
C2190 C2171 1.368 . S
C2190 C2184 1.368 . S
C2190 C2189 1.523 . S
C2191 C2175 1.429 . S
C2191 C2187 1.429 . S
C2191 C2192 1.523 . S
C2192 C2176 1.368 . S
C2192 C2188 1.368 . S
C2192 C2191 1.523 . S
H2193 C2168 0.950 . S
H2194 C2170 0.950 . S
H2195 C2171 0.949 . S
H2196 C2173 0.950 . S
H2197 C2175 0.950 . S
C2198 C2199 1.349 . S
C2198 C2200 1.327 . S
C2198 H2223 0.950 . S
C2199 C2198 1.349 . S
C2199 C2215 1.349 . S
C2200 C2198 1.327 . S
C2200 C2219 1.429 . S
C2200 H2224 0.950 . S
C2201 C2218 1.574 . S
C2201 C2220 1.368 . S
C2201 H2225 0.949 . S
H2202 C2206 0.949 . S
C2203 C2204 1.349 . S
C2203 C2205 1.327 1_655 S
C2203 H2226 0.950 . S
C2204 C2203 1.349 . S
C2204 C2216 1.349 1_655 S
C2205 C2203 1.327 1_455 S
C2205 C2221 1.429 . S
C2205 H2227 0.950 . S
C2206 H2202 0.949 . S
C2206 C2214 1.574 . S
C2206 C2222 1.368 . S
H2207 C2215 0.950 . S
H2208 C2213 0.950 . S
H2209 C2214 0.949 . S
H2210 C2216 0.950 . S
H2211 C2217 0.950 . S
H2212 C2218 0.949 . S
C2213 H2208 0.950 . S
C2213 C2215 1.327 . S
C2213 C2219 1.429 . S
C2214 C2206 1.574 . S
C2214 H2209 0.949 . S
C2214 C2220 1.368 . S
C2215 C2199 1.349 . S
C2215 H2207 0.950 . S
C2215 C2213 1.327 . S
C2216 C2204 1.349 1_455 S
C2216 H2210 0.950 . S
C2216 C2217 1.327 . S
C2217 H2211 0.950 . S
C2217 C2216 1.327 . S
C2217 C2221 1.429 . S
C2218 C2201 1.574 . S
C2218 H2212 0.949 . S
C2218 C2222 1.368 . S
C2219 C2200 1.429 . S
C2219 C2213 1.429 . S
C2219 C2220 1.523 . S
C2220 C2201 1.368 . S
C2220 C2214 1.368 . S
C2220 C2219 1.523 . S
C2221 C2205 1.429 . S
C2221 C2217 1.429 . S
C2221 C2222 1.523 . S
C2222 C2206 1.368 . S
C2222 C2218 1.368 . S
C2222 C2221 1.523 . S
H2223 C2198 0.950 . S
H2224 C2200 0.950 . S
H2225 C2201 0.949 . S
H2226 C2203 0.950 . S
H2227 C2205 0.950 . S
C2228 C2229 1.349 1_655 S
C2228 C2230 1.327 . S
C2228 H2253 0.950 . S
C2229 C2228 1.349 1_455 S
C2229 C2245 1.349 . S
C2230 C2228 1.327 . S
C2230 C2249 1.429 . S
C2230 H2254 0.950 . S
C2231 C2248 1.574 . S
C2231 C2250 1.368 . S
C2231 H2255 0.949 . S
H2232 C2236 0.949 . S
C2233 C2234 1.349 . S
C2233 C2235 1.327 . S
C2233 H2256 0.950 . S
C2234 C2233 1.349 . S
C2234 C2246 1.349 . S
C2235 C2233 1.327 . S
C2235 C2251 1.429 . S
C2235 H2257 0.950 . S
C2236 H2232 0.949 . S
C2236 C2244 1.574 . S
C2236 C2252 1.368 . S
H2237 C2245 0.950 . S
H2238 C2243 0.950 . S
H2239 C2244 0.949 . S
H2240 C2246 0.950 . S
H2241 C2247 0.950 . S
H2242 C2248 0.949 . S
C2243 H2238 0.950 . S
C2243 C2245 1.327 1_655 S
C2243 C2249 1.429 . S
C2244 C2236 1.574 . S
C2244 H2239 0.949 . S
C2244 C2250 1.368 . S
C2245 C2229 1.349 . S
C2245 H2237 0.950 . S
C2245 C2243 1.327 1_455 S
C2246 C2234 1.349 . S
C2246 H2240 0.950 . S
C2246 C2247 1.327 . S
C2247 H2241 0.950 . S
C2247 C2246 1.327 . S
C2247 C2251 1.429 . S
C2248 C2231 1.574 . S
C2248 H2242 0.949 . S
C2248 C2252 1.368 . S
C2249 C2230 1.429 . S
C2249 C2243 1.429 . S
C2249 C2250 1.523 . S
C2250 C2231 1.368 . S
C2250 C2244 1.368 . S
C2250 C2249 1.523 . S
C2251 C2235 1.429 . S
C2251 C2247 1.429 . S
C2251 C2252 1.523 . S
C2252 C2236 1.368 . S
C2252 C2248 1.368 . S
C2252 C2251 1.523 . S
H2253 C2228 0.950 . S
H2254 C2230 0.950 . S
H2255 C2231 0.949 . S
H2256 C2233 0.950 . S
H2257 C2235 0.950 . S
C2258 C2259 1.349 . S
C2258 C2260 1.327 . S
C2258 H2283 0.950 . S
C2259 C2258 1.349 . S
C2259 C2275 1.349 . S
C2260 C2258 1.327 . S
C2260 C2279 1.429 . S
C2260 H2284 0.950 . S
C2261 C2278 1.574 . S
C2261 C2280 1.368 . S
C2261 H2285 0.949 . S
H2262 C2266 0.949 . S
C2263 C2264 1.349 1_655 S
C2263 C2265 1.327 . S
C2263 H2286 0.950 . S
C2264 C2263 1.349 1_455 S
C2264 C2276 1.349 . S
C2265 C2263 1.327 . S
C2265 C2281 1.429 . S
C2265 H2287 0.950 . S
C2266 H2262 0.949 . S
C2266 C2274 1.574 . S
C2266 C2282 1.368 . S
H2267 C2275 0.950 . S
H2268 C2273 0.950 . S
H2269 C2274 0.949 . S
H2270 C2276 0.950 . S
H2271 C2277 0.950 . S
H2272 C2278 0.949 . S
C2273 H2268 0.950 . S
C2273 C2275 1.327 . S
C2273 C2279 1.429 . S
C2274 C2266 1.574 . S
C2274 H2269 0.949 . S
C2274 C2280 1.368 . S
C2275 C2259 1.349 . S
C2275 H2267 0.950 . S
C2275 C2273 1.327 . S
C2276 C2264 1.349 . S
C2276 H2270 0.950 . S
C2276 C2277 1.327 1_455 S
C2277 H2271 0.950 . S
C2277 C2276 1.327 1_655 S
C2277 C2281 1.429 . S
C2278 C2261 1.574 . S
C2278 H2272 0.949 . S
C2278 C2282 1.368 . S
C2279 C2260 1.429 . S
C2279 C2273 1.429 . S
C2279 C2280 1.523 . S
C2280 C2261 1.368 . S
C2280 C2274 1.368 . S
C2280 C2279 1.523 . S
C2281 C2265 1.429 . S
C2281 C2277 1.429 . S
C2281 C2282 1.523 . S
C2282 C2266 1.368 . S
C2282 C2278 1.368 . S
C2282 C2281 1.523 . S
H2283 C2258 0.950 . S
H2284 C2260 0.950 . S
H2285 C2261 0.949 . S
H2286 C2263 0.950 . S
H2287 C2265 0.950 . S
C2288 C2289 1.349 . S
C2288 C2290 1.327 . S
C2288 H2313 0.950 . S
C2289 C2288 1.349 . S
C2289 C2305 1.349 . S
C2290 C2288 1.327 . S
C2290 C2309 1.429 . S
C2290 H2314 0.950 . S
C2291 C2308 1.574 . S
C2291 C2310 1.368 . S
C2291 H2315 0.949 . S
H2292 C2296 0.949 . S
C2293 C2294 1.349 . S
C2293 C2295 1.327 . S
C2293 H2316 0.950 . S
C2294 C2293 1.349 . S
C2294 C2306 1.349 . S
C2295 C2293 1.327 . S
C2295 C2311 1.429 . S
C2295 H2317 0.950 . S
C2296 H2292 0.949 . S
C2296 C2304 1.574 . S
C2296 C2312 1.368 . S
H2297 C2305 0.950 . S
H2298 C2303 0.950 . S
H2299 C2304 0.949 . S
H2300 C2306 0.950 . S
H2301 C2307 0.950 . S
H2302 C2308 0.949 . S
C2303 H2298 0.950 . S
C2303 C2305 1.327 . S
C2303 C2309 1.429 . S
C2304 C2296 1.574 . S
C2304 H2299 0.949 . S
C2304 C2310 1.368 . S
C2305 C2289 1.349 . S
C2305 H2297 0.950 . S
C2305 C2303 1.327 . S
C2306 C2294 1.349 . S
C2306 H2300 0.950 . S
C2306 C2307 1.327 . S
C2307 H2301 0.950 . S
C2307 C2306 1.327 . S
C2307 C2311 1.429 . S
C2308 C2291 1.574 . S
C2308 H2302 0.949 . S
C2308 C2312 1.368 . S
C2309 C2290 1.429 . S
C2309 C2303 1.429 . S
C2309 C2310 1.523 . S
C2310 C2291 1.368 . S
C2310 C2304 1.368 . S
C2310 C2309 1.523 . S
C2311 C2295 1.429 . S
C2311 C2307 1.429 . S
C2311 C2312 1.523 . S
C2312 C2296 1.368 . S
C2312 C2308 1.368 . S
C2312 C2311 1.523 . S
H2313 C2288 0.950 . S
H2314 C2290 0.950 . S
H2315 C2291 0.949 . S
H2316 C2293 0.950 . S
H2317 C2295 0.950 . S
C2318 C2319 1.349 . S
C2318 C2320 1.327 . S
C2318 H2343 0.950 . S
C2319 C2318 1.349 . S
C2319 C2335 1.349 . S
C2320 C2318 1.327 . S
C2320 C2339 1.429 . S
C2320 H2344 0.950 . S
C2321 C2338 1.574 . S
C2321 C2340 1.368 . S
C2321 H2345 0.949 . S
H2322 C2326 0.949 . S
C2323 C2324 1.349 . S
C2323 C2325 1.327 . S
C2323 H2346 0.950 . S
C2324 C2323 1.349 . S
C2324 C2336 1.349 . S
C2325 C2323 1.327 . S
C2325 C2341 1.429 . S
C2325 H2347 0.950 . S
C2326 H2322 0.949 . S
C2326 C2334 1.574 . S
C2326 C2342 1.368 . S
H2327 C2335 0.950 . S
H2328 C2333 0.950 . S
H2329 C2334 0.949 . S
H2330 C2336 0.950 . S
H2331 C2337 0.950 . S
H2332 C2338 0.949 . S
C2333 H2328 0.950 . S
C2333 C2335 1.327 . S
C2333 C2339 1.429 . S
C2334 C2326 1.574 . S
C2334 H2329 0.949 . S
C2334 C2340 1.368 . S
C2335 C2319 1.349 . S
C2335 H2327 0.950 . S
C2335 C2333 1.327 . S
C2336 C2324 1.349 . S
C2336 H2330 0.950 . S
C2336 C2337 1.327 . S
C2337 H2331 0.950 . S
C2337 C2336 1.327 . S
C2337 C2341 1.429 . S
C2338 C2321 1.574 . S
C2338 H2332 0.949 . S
C2338 C2342 1.368 . S
C2339 C2320 1.429 . S
C2339 C2333 1.429 . S
C2339 C2340 1.523 . S
C2340 C2321 1.368 . S
C2340 C2334 1.368 . S
C2340 C2339 1.523 . S
C2341 C2325 1.429 . S
C2341 C2337 1.429 . S
C2341 C2342 1.523 . S
C2342 C2326 1.368 . S
C2342 C2338 1.368 . S
C2342 C2341 1.523 . S
H2343 C2318 0.950 . S
H2344 C2320 0.950 . S
H2345 C2321 0.949 . S
H2346 C2323 0.950 . S
H2347 C2325 0.950 . S
C2348 C2349 1.349 . S
C2348 C2350 1.327 . S
C2348 H2373 0.950 . S
C2349 C2348 1.349 . S
C2349 C2365 1.349 . S
C2350 C2348 1.327 . S
C2350 C2369 1.429 . S
C2350 H2374 0.950 . S
C2351 C2368 1.574 . S
C2351 C2370 1.368 . S
C2351 H2375 0.949 . S
H2352 C2356 0.949 . S
C2353 C2354 1.349 . S
C2353 C2355 1.327 . S
C2353 H2376 0.950 . S
C2354 C2353 1.349 . S
C2354 C2366 1.349 . S
C2355 C2353 1.327 . S
C2355 C2371 1.429 . S
C2355 H2377 0.950 . S
C2356 H2352 0.949 . S
C2356 C2364 1.574 . S
C2356 C2372 1.368 . S
H2357 C2365 0.950 . S
H2358 C2363 0.950 . S
H2359 C2364 0.949 . S
H2360 C2366 0.950 . S
H2361 C2367 0.950 . S
H2362 C2368 0.949 . S
C2363 H2358 0.950 . S
C2363 C2365 1.327 . S
C2363 C2369 1.429 . S
C2364 C2356 1.574 . S
C2364 H2359 0.949 . S
C2364 C2370 1.368 . S
C2365 C2349 1.349 . S
C2365 H2357 0.950 . S
C2365 C2363 1.327 . S
C2366 C2354 1.349 . S
C2366 H2360 0.950 . S
C2366 C2367 1.327 . S
C2367 H2361 0.950 . S
C2367 C2366 1.327 . S
C2367 C2371 1.429 . S
C2368 C2351 1.574 . S
C2368 H2362 0.949 . S
C2368 C2372 1.368 . S
C2369 C2350 1.429 . S
C2369 C2363 1.429 . S
C2369 C2370 1.523 . S
C2370 C2351 1.368 . S
C2370 C2364 1.368 . S
C2370 C2369 1.523 . S
C2371 C2355 1.429 . S
C2371 C2367 1.429 . S
C2371 C2372 1.523 . S
C2372 C2356 1.368 . S
C2372 C2368 1.368 . S
C2372 C2371 1.523 . S
H2373 C2348 0.950 . S
H2374 C2350 0.950 . S
H2375 C2351 0.949 . S
H2376 C2353 0.950 . S
H2377 C2355 0.950 . S
C2378 C2379 1.349 . S
C2378 C2380 1.327 . S
C2378 H2403 0.950 . S
C2379 C2378 1.349 . S
C2379 C2395 1.349 . S
C2380 C2378 1.327 . S
C2380 C2399 1.429 . S
C2380 H2404 0.950 . S
C2381 C2398 1.574 . S
C2381 C2400 1.368 . S
C2381 H2405 0.949 . S
H2382 C2386 0.949 . S
C2383 C2384 1.349 . S
C2383 C2385 1.327 . S
C2383 H2406 0.950 . S
C2384 C2383 1.349 . S
C2384 C2396 1.349 . S
C2385 C2383 1.327 . S
C2385 C2401 1.429 . S
C2385 H2407 0.950 . S
C2386 H2382 0.949 . S
C2386 C2394 1.574 . S
C2386 C2402 1.368 . S
H2387 C2395 0.950 . S
H2388 C2393 0.950 . S
H2389 C2394 0.949 . S
H2390 C2396 0.950 . S
H2391 C2397 0.950 . S
H2392 C2398 0.949 . S
C2393 H2388 0.950 . S
C2393 C2395 1.327 . S
C2393 C2399 1.429 . S
C2394 C2386 1.574 . S
C2394 H2389 0.949 . S
C2394 C2400 1.368 . S
C2395 C2379 1.349 . S
C2395 H2387 0.950 . S
C2395 C2393 1.327 . S
C2396 C2384 1.349 . S
C2396 H2390 0.950 . S
C2396 C2397 1.327 . S
C2397 H2391 0.950 . S
C2397 C2396 1.327 . S
C2397 C2401 1.429 . S
C2398 C2381 1.574 . S
C2398 H2392 0.949 . S
C2398 C2402 1.368 . S
C2399 C2380 1.429 . S
C2399 C2393 1.429 . S
C2399 C2400 1.523 . S
C2400 C2381 1.368 . S
C2400 C2394 1.368 . S
C2400 C2399 1.523 . S
C2401 C2385 1.429 . S
C2401 C2397 1.429 . S
C2401 C2402 1.523 . S
C2402 C2386 1.368 . S
C2402 C2398 1.368 . S
C2402 C2401 1.523 . S
H2403 C2378 0.950 . S
H2404 C2380 0.950 . S
H2405 C2381 0.949 . S
H2406 C2383 0.950 . S
H2407 C2385 0.950 . S
C2408 C2409 1.349 . S
C2408 C2410 1.327 . S
C2408 H2433 0.950 . S
C2409 C2408 1.349 . S
C2409 C2425 1.349 . S
C2410 C2408 1.327 . S
C2410 C2429 1.429 . S
C2410 H2434 0.950 . S
C2411 C2428 1.574 . S
C2411 C2430 1.368 . S
C2411 H2435 0.949 . S
H2412 C2416 0.949 . S
C2413 C2414 1.349 . S
C2413 C2415 1.327 . S
C2413 H2436 0.950 . S
C2414 C2413 1.349 . S
C2414 C2426 1.349 . S
C2415 C2413 1.327 . S
C2415 C2431 1.429 . S
C2415 H2437 0.950 . S
C2416 H2412 0.949 . S
C2416 C2424 1.574 . S
C2416 C2432 1.368 . S
H2417 C2425 0.950 . S
H2418 C2423 0.950 . S
H2419 C2424 0.949 . S
H2420 C2426 0.950 . S
H2421 C2427 0.950 . S
H2422 C2428 0.949 . S
C2423 H2418 0.950 . S
C2423 C2425 1.327 . S
C2423 C2429 1.429 . S
C2424 C2416 1.574 . S
C2424 H2419 0.949 . S
C2424 C2430 1.368 . S
C2425 C2409 1.349 . S
C2425 H2417 0.950 . S
C2425 C2423 1.327 . S
C2426 C2414 1.349 . S
C2426 H2420 0.950 . S
C2426 C2427 1.327 . S
C2427 H2421 0.950 . S
C2427 C2426 1.327 . S
C2427 C2431 1.429 . S
C2428 C2411 1.574 . S
C2428 H2422 0.949 . S
C2428 C2432 1.368 . S
C2429 C2410 1.429 . S
C2429 C2423 1.429 . S
C2429 C2430 1.523 . S
C2430 C2411 1.368 . S
C2430 C2424 1.368 . S
C2430 C2429 1.523 . S
C2431 C2415 1.429 . S
C2431 C2427 1.429 . S
C2431 C2432 1.523 . S
C2432 C2416 1.368 . S
C2432 C2428 1.368 . S
C2432 C2431 1.523 . S
H2433 C2408 0.950 . S
H2434 C2410 0.950 . S
H2435 C2411 0.949 . S
H2436 C2413 0.950 . S
H2437 C2415 0.950 . S
C2438 C2439 1.349 . S
C2438 C2440 1.327 . S
C2438 H2463 0.950 . S
C2439 C2438 1.349 . S
C2439 C2455 1.349 . S
C2440 C2438 1.327 . S
C2440 C2459 1.429 . S
C2440 H2464 0.950 . S
C2441 C2458 1.574 . S
C2441 C2460 1.368 . S
C2441 H2465 0.949 . S
H2442 C2446 0.949 . S
C2443 C2444 1.349 . S
C2443 C2445 1.327 . S
C2443 H2466 0.950 . S
C2444 C2443 1.349 . S
C2444 C2456 1.349 . S
C2445 C2443 1.327 . S
C2445 C2461 1.429 . S
C2445 H2467 0.950 . S
C2446 H2442 0.949 . S
C2446 C2454 1.574 . S
C2446 C2462 1.368 . S
H2447 C2455 0.950 . S
H2448 C2453 0.950 . S
H2449 C2454 0.949 . S
H2450 C2456 0.950 . S
H2451 C2457 0.950 . S
H2452 C2458 0.949 . S
C2453 H2448 0.950 . S
C2453 C2455 1.327 . S
C2453 C2459 1.429 . S
C2454 C2446 1.574 . S
C2454 H2449 0.949 . S
C2454 C2460 1.368 . S
C2455 C2439 1.349 . S
C2455 H2447 0.950 . S
C2455 C2453 1.327 . S
C2456 C2444 1.349 . S
C2456 H2450 0.950 . S
C2456 C2457 1.327 . S
C2457 H2451 0.950 . S
C2457 C2456 1.327 . S
C2457 C2461 1.429 . S
C2458 C2441 1.574 . S
C2458 H2452 0.949 . S
C2458 C2462 1.368 . S
C2459 C2440 1.429 . S
C2459 C2453 1.429 . S
C2459 C2460 1.523 . S
C2460 C2441 1.368 . S
C2460 C2454 1.368 . S
C2460 C2459 1.523 . S
C2461 C2445 1.429 . S
C2461 C2457 1.429 . S
C2461 C2462 1.523 . S
C2462 C2446 1.368 . S
C2462 C2458 1.368 . S
C2462 C2461 1.523 . S
H2463 C2438 0.950 . S
H2464 C2440 0.950 . S
H2465 C2441 0.949 . S
H2466 C2443 0.950 . S
H2467 C2445 0.950 . S
C2468 C2469 1.349 . S
C2468 C2470 1.327 . S
C2468 H2493 0.950 . S
C2469 C2468 1.349 . S
C2469 C2485 1.349 . S
C2470 C2468 1.327 . S
C2470 C2489 1.429 . S
C2470 H2494 0.950 . S
C2471 C2488 1.574 . S
C2471 C2490 1.368 . S
C2471 H2495 0.949 . S
H2472 C2476 0.949 . S
C2473 C2474 1.349 . S
C2473 C2475 1.327 . S
C2473 H2496 0.950 . S
C2474 C2473 1.349 . S
C2474 C2486 1.349 . S
C2475 C2473 1.327 . S
C2475 C2491 1.429 . S
C2475 H2497 0.950 . S
C2476 H2472 0.949 . S
C2476 C2484 1.574 . S
C2476 C2492 1.368 . S
H2477 C2485 0.950 . S
H2478 C2483 0.950 . S
H2479 C2484 0.949 . S
H2480 C2486 0.950 . S
H2481 C2487 0.950 . S
H2482 C2488 0.949 . S
C2483 H2478 0.950 . S
C2483 C2485 1.327 . S
C2483 C2489 1.429 . S
C2484 C2476 1.574 . S
C2484 H2479 0.949 . S
C2484 C2490 1.368 . S
C2485 C2469 1.349 . S
C2485 H2477 0.950 . S
C2485 C2483 1.327 . S
C2486 C2474 1.349 . S
C2486 H2480 0.950 . S
C2486 C2487 1.327 . S
C2487 H2481 0.950 . S
C2487 C2486 1.327 . S
C2487 C2491 1.429 . S
C2488 C2471 1.574 . S
C2488 H2482 0.949 . S
C2488 C2492 1.368 . S
C2489 C2470 1.429 . S
C2489 C2483 1.429 . S
C2489 C2490 1.523 . S
C2490 C2471 1.368 . S
C2490 C2484 1.368 . S
C2490 C2489 1.523 . S
C2491 C2475 1.429 . S
C2491 C2487 1.429 . S
C2491 C2492 1.523 . S
C2492 C2476 1.368 . S
C2492 C2488 1.368 . S
C2492 C2491 1.523 . S
H2493 C2468 0.950 . S
H2494 C2470 0.950 . S
H2495 C2471 0.949 . S
H2496 C2473 0.950 . S
H2497 C2475 0.950 . S
C2498 C2499 1.349 . S
C2498 C2500 1.327 . S
C2498 H2523 0.950 . S
C2499 C2498 1.349 . S
C2499 C2515 1.349 . S
C2500 C2498 1.327 . S
C2500 C2519 1.429 . S
C2500 H2524 0.950 . S
C2501 C2518 1.574 . S
C2501 C2520 1.368 . S
C2501 H2525 0.949 . S
H2502 C2506 0.949 . S
C2503 C2504 1.349 . S
C2503 C2505 1.327 . S
C2503 H2526 0.950 . S
C2504 C2503 1.349 . S
C2504 C2516 1.349 . S
C2505 C2503 1.327 . S
C2505 C2521 1.429 . S
C2505 H2527 0.950 . S
C2506 H2502 0.949 . S
C2506 C2514 1.574 . S
C2506 C2522 1.368 . S
H2507 C2515 0.950 . S
H2508 C2513 0.950 . S
H2509 C2514 0.949 . S
H2510 C2516 0.950 . S
H2511 C2517 0.950 . S
H2512 C2518 0.949 . S
C2513 H2508 0.950 . S
C2513 C2515 1.327 . S
C2513 C2519 1.429 . S
C2514 C2506 1.574 . S
C2514 H2509 0.949 . S
C2514 C2520 1.368 . S
C2515 C2499 1.349 . S
C2515 H2507 0.950 . S
C2515 C2513 1.327 . S
C2516 C2504 1.349 . S
C2516 H2510 0.950 . S
C2516 C2517 1.327 . S
C2517 H2511 0.950 . S
C2517 C2516 1.327 . S
C2517 C2521 1.429 . S
C2518 C2501 1.574 . S
C2518 H2512 0.949 . S
C2518 C2522 1.368 . S
C2519 C2500 1.429 . S
C2519 C2513 1.429 . S
C2519 C2520 1.523 . S
C2520 C2501 1.368 . S
C2520 C2514 1.368 . S
C2520 C2519 1.523 . S
C2521 C2505 1.429 . S
C2521 C2517 1.429 . S
C2521 C2522 1.523 . S
C2522 C2506 1.368 . S
C2522 C2518 1.368 . S
C2522 C2521 1.523 . S
H2523 C2498 0.950 . S
H2524 C2500 0.950 . S
H2525 C2501 0.949 . S
H2526 C2503 0.950 . S
H2527 C2505 0.950 . S
C2528 C2529 1.349 . S
C2528 C2530 1.327 . S
C2528 H2553 0.950 . S
C2529 C2528 1.349 . S
C2529 C2545 1.349 . S
C2530 C2528 1.327 . S
C2530 C2549 1.429 . S
C2530 H2554 0.950 . S
C2531 C2548 1.574 . S
C2531 C2550 1.368 . S
C2531 H2555 0.949 . S
H2532 C2536 0.949 . S
C2533 C2534 1.349 . S
C2533 C2535 1.327 . S
C2533 H2556 0.950 . S
C2534 C2533 1.349 . S
C2534 C2546 1.349 . S
C2535 C2533 1.327 . S
C2535 C2551 1.429 . S
C2535 H2557 0.950 . S
C2536 H2532 0.949 . S
C2536 C2544 1.574 . S
C2536 C2552 1.368 . S
H2537 C2545 0.950 . S
H2538 C2543 0.950 . S
H2539 C2544 0.949 . S
H2540 C2546 0.950 . S
H2541 C2547 0.950 . S
H2542 C2548 0.949 . S
C2543 H2538 0.950 . S
C2543 C2545 1.327 . S
C2543 C2549 1.429 . S
C2544 C2536 1.574 . S
C2544 H2539 0.949 . S
C2544 C2550 1.368 . S
C2545 C2529 1.349 . S
C2545 H2537 0.950 . S
C2545 C2543 1.327 . S
C2546 C2534 1.349 . S
C2546 H2540 0.950 . S
C2546 C2547 1.327 . S
C2547 H2541 0.950 . S
C2547 C2546 1.327 . S
C2547 C2551 1.429 . S
C2548 C2531 1.574 . S
C2548 H2542 0.949 . S
C2548 C2552 1.368 . S
C2549 C2530 1.429 . S
C2549 C2543 1.429 . S
C2549 C2550 1.523 . S
C2550 C2531 1.368 . S
C2550 C2544 1.368 . S
C2550 C2549 1.523 . S
C2551 C2535 1.429 . S
C2551 C2547 1.429 . S
C2551 C2552 1.523 . S
C2552 C2536 1.368 . S
C2552 C2548 1.368 . S
C2552 C2551 1.523 . S
H2553 C2528 0.950 . S
H2554 C2530 0.950 . S
H2555 C2531 0.949 . S
H2556 C2533 0.950 . S
H2557 C2535 0.950 . S
C2558 C2559 1.349 . S
C2558 C2560 1.327 . S
C2558 H2583 0.950 . S
C2559 C2558 1.349 . S
C2559 C2575 1.349 . S
C2560 C2558 1.327 . S
C2560 C2579 1.429 . S
C2560 H2584 0.950 . S
C2561 C2578 1.574 . S
C2561 C2580 1.368 . S
C2561 H2585 0.949 . S
H2562 C2566 0.949 . S
C2563 C2564 1.349 . S
C2563 C2565 1.327 . S
C2563 H2586 0.950 . S
C2564 C2563 1.349 . S
C2564 C2576 1.349 . S
C2565 C2563 1.327 . S
C2565 C2581 1.429 . S
C2565 H2587 0.950 . S
C2566 H2562 0.949 . S
C2566 C2574 1.574 . S
C2566 C2582 1.368 . S
H2567 C2575 0.950 . S
H2568 C2573 0.950 . S
H2569 C2574 0.949 . S
H2570 C2576 0.950 . S
H2571 C2577 0.950 . S
H2572 C2578 0.949 . S
C2573 H2568 0.950 . S
C2573 C2575 1.327 . S
C2573 C2579 1.429 . S
C2574 C2566 1.574 . S
C2574 H2569 0.949 . S
C2574 C2580 1.368 . S
C2575 C2559 1.349 . S
C2575 H2567 0.950 . S
C2575 C2573 1.327 . S
C2576 C2564 1.349 . S
C2576 H2570 0.950 . S
C2576 C2577 1.327 . S
C2577 H2571 0.950 . S
C2577 C2576 1.327 . S
C2577 C2581 1.429 . S
C2578 C2561 1.574 . S
C2578 H2572 0.949 . S
C2578 C2582 1.368 . S
C2579 C2560 1.429 . S
C2579 C2573 1.429 . S
C2579 C2580 1.523 . S
C2580 C2561 1.368 . S
C2580 C2574 1.368 . S
C2580 C2579 1.523 . S
C2581 C2565 1.429 . S
C2581 C2577 1.429 . S
C2581 C2582 1.523 . S
C2582 C2566 1.368 . S
C2582 C2578 1.368 . S
C2582 C2581 1.523 . S
H2583 C2558 0.950 . S
H2584 C2560 0.950 . S
H2585 C2561 0.949 . S
H2586 C2563 0.950 . S
H2587 C2565 0.950 . S
C2588 C2589 1.349 . S
C2588 C2590 1.327 . S
C2588 H2613 0.950 . S
C2589 C2588 1.349 . S
C2589 C2605 1.349 . S
C2590 C2588 1.327 . S
C2590 C2609 1.429 . S
C2590 H2614 0.950 . S
C2591 C2608 1.574 . S
C2591 C2610 1.368 . S
C2591 H2615 0.949 . S
H2592 C2596 0.949 . S
C2593 C2594 1.349 . S
C2593 C2595 1.327 . S
C2593 H2616 0.950 . S
C2594 C2593 1.349 . S
C2594 C2606 1.349 . S
C2595 C2593 1.327 . S
C2595 C2611 1.429 . S
C2595 H2617 0.950 . S
C2596 H2592 0.949 . S
C2596 C2604 1.574 . S
C2596 C2612 1.368 . S
H2597 C2605 0.950 . S
H2598 C2603 0.950 . S
H2599 C2604 0.949 . S
H2600 C2606 0.950 . S
H2601 C2607 0.950 . S
H2602 C2608 0.949 . S
C2603 H2598 0.950 . S
C2603 C2605 1.327 . S
C2603 C2609 1.429 . S
C2604 C2596 1.574 . S
C2604 H2599 0.949 . S
C2604 C2610 1.368 . S
C2605 C2589 1.349 . S
C2605 H2597 0.950 . S
C2605 C2603 1.327 . S
C2606 C2594 1.349 . S
C2606 H2600 0.950 . S
C2606 C2607 1.327 . S
C2607 H2601 0.950 . S
C2607 C2606 1.327 . S
C2607 C2611 1.429 . S
C2608 C2591 1.574 . S
C2608 H2602 0.949 . S
C2608 C2612 1.368 . S
C2609 C2590 1.429 . S
C2609 C2603 1.429 . S
C2609 C2610 1.523 . S
C2610 C2591 1.368 . S
C2610 C2604 1.368 . S
C2610 C2609 1.523 . S
C2611 C2595 1.429 . S
C2611 C2607 1.429 . S
C2611 C2612 1.523 . S
C2612 C2596 1.368 . S
C2612 C2608 1.368 . S
C2612 C2611 1.523 . S
H2613 C2588 0.950 . S
H2614 C2590 0.950 . S
H2615 C2591 0.949 . S
H2616 C2593 0.950 . S
H2617 C2595 0.950 . S
C2618 C2619 1.349 . S
C2618 C2620 1.327 . S
C2618 H2643 0.950 . S
C2619 C2618 1.349 . S
C2619 C2635 1.349 . S
C2620 C2618 1.327 . S
C2620 C2639 1.429 . S
C2620 H2644 0.950 . S
C2621 C2638 1.574 . S
C2621 C2640 1.368 . S
C2621 H2645 0.949 . S
H2622 C2626 0.949 . S
C2623 C2624 1.349 . S
C2623 C2625 1.327 . S
C2623 H2646 0.950 . S
C2624 C2623 1.349 . S
C2624 C2636 1.349 . S
C2625 C2623 1.327 . S
C2625 C2641 1.429 . S
C2625 H2647 0.950 . S
C2626 H2622 0.949 . S
C2626 C2634 1.574 . S
C2626 C2642 1.368 . S
H2627 C2635 0.950 . S
H2628 C2633 0.950 . S
H2629 C2634 0.949 . S
H2630 C2636 0.950 . S
H2631 C2637 0.950 . S
H2632 C2638 0.949 . S
C2633 H2628 0.950 . S
C2633 C2635 1.327 . S
C2633 C2639 1.429 . S
C2634 C2626 1.574 . S
C2634 H2629 0.949 . S
C2634 C2640 1.368 . S
C2635 C2619 1.349 . S
C2635 H2627 0.950 . S
C2635 C2633 1.327 . S
C2636 C2624 1.349 . S
C2636 H2630 0.950 . S
C2636 C2637 1.327 . S
C2637 H2631 0.950 . S
C2637 C2636 1.327 . S
C2637 C2641 1.429 . S
C2638 C2621 1.574 . S
C2638 H2632 0.949 . S
C2638 C2642 1.368 . S
C2639 C2620 1.429 . S
C2639 C2633 1.429 . S
C2639 C2640 1.523 . S
C2640 C2621 1.368 . S
C2640 C2634 1.368 . S
C2640 C2639 1.523 . S
C2641 C2625 1.429 . S
C2641 C2637 1.429 . S
C2641 C2642 1.523 . S
C2642 C2626 1.368 . S
C2642 C2638 1.368 . S
C2642 C2641 1.523 . S
H2643 C2618 0.950 . S
H2644 C2620 0.950 . S
H2645 C2621 0.949 . S
H2646 C2623 0.950 . S
H2647 C2625 0.950 . S
C2648 C2649 1.349 . S
C2648 C2650 1.327 . S
C2648 H2673 0.950 . S
C2649 C2648 1.349 . S
C2649 C2665 1.349 . S
C2650 C2648 1.327 . S
C2650 C2669 1.429 . S
C2650 H2674 0.950 . S
C2651 C2668 1.574 . S
C2651 C2670 1.368 . S
C2651 H2675 0.949 . S
H2652 C2656 0.949 . S
C2653 C2654 1.349 . S
C2653 C2655 1.327 . S
C2653 H2676 0.950 . S
C2654 C2653 1.349 . S
C2654 C2666 1.349 . S
C2655 C2653 1.327 . S
C2655 C2671 1.429 . S
C2655 H2677 0.950 . S
C2656 H2652 0.949 . S
C2656 C2664 1.574 . S
C2656 C2672 1.368 . S
H2657 C2665 0.950 . S
H2658 C2663 0.950 . S
H2659 C2664 0.949 . S
H2660 C2666 0.950 . S
H2661 C2667 0.950 . S
H2662 C2668 0.949 . S
C2663 H2658 0.950 . S
C2663 C2665 1.327 . S
C2663 C2669 1.429 . S
C2664 C2656 1.574 . S
C2664 H2659 0.949 . S
C2664 C2670 1.368 . S
C2665 C2649 1.349 . S
C2665 H2657 0.950 . S
C2665 C2663 1.327 . S
C2666 C2654 1.349 . S
C2666 H2660 0.950 . S
C2666 C2667 1.327 . S
C2667 H2661 0.950 . S
C2667 C2666 1.327 . S
C2667 C2671 1.429 . S
C2668 C2651 1.574 . S
C2668 H2662 0.949 . S
C2668 C2672 1.368 . S
C2669 C2650 1.429 . S
C2669 C2663 1.429 . S
C2669 C2670 1.523 . S
C2670 C2651 1.368 . S
C2670 C2664 1.368 . S
C2670 C2669 1.523 . S
C2671 C2655 1.429 . S
C2671 C2667 1.429 . S
C2671 C2672 1.523 . S
C2672 C2656 1.368 . S
C2672 C2668 1.368 . S
C2672 C2671 1.523 . S
H2673 C2648 0.950 . S
H2674 C2650 0.950 . S
H2675 C2651 0.949 . S
H2676 C2653 0.950 . S
H2677 C2655 0.950 . S
C2678 C2679 1.349 . S
C2678 C2680 1.327 . S
C2678 H2703 0.950 . S
C2679 C2678 1.349 . S
C2679 C2695 1.349 . S
C2680 C2678 1.327 . S
C2680 C2699 1.429 . S
C2680 H2704 0.950 . S
C2681 C2698 1.574 . S
C2681 C2700 1.368 . S
C2681 H2705 0.949 . S
H2682 C2686 0.949 . S
C2683 C2684 1.349 . S
C2683 C2685 1.327 . S
C2683 H2706 0.950 . S
C2684 C2683 1.349 . S
C2684 C2696 1.349 . S
C2685 C2683 1.327 . S
C2685 C2701 1.429 . S
C2685 H2707 0.950 . S
C2686 H2682 0.949 . S
C2686 C2694 1.574 . S
C2686 C2702 1.368 . S
H2687 C2695 0.950 . S
H2688 C2693 0.950 . S
H2689 C2694 0.949 . S
H2690 C2696 0.950 . S
H2691 C2697 0.950 . S
H2692 C2698 0.949 . S
C2693 H2688 0.950 . S
C2693 C2695 1.327 . S
C2693 C2699 1.429 . S
C2694 C2686 1.574 . S
C2694 H2689 0.949 . S
C2694 C2700 1.368 . S
C2695 C2679 1.349 . S
C2695 H2687 0.950 . S
C2695 C2693 1.327 . S
C2696 C2684 1.349 . S
C2696 H2690 0.950 . S
C2696 C2697 1.327 . S
C2697 H2691 0.950 . S
C2697 C2696 1.327 . S
C2697 C2701 1.429 . S
C2698 C2681 1.574 . S
C2698 H2692 0.949 . S
C2698 C2702 1.368 . S
C2699 C2680 1.429 . S
C2699 C2693 1.429 . S
C2699 C2700 1.523 . S
C2700 C2681 1.368 . S
C2700 C2694 1.368 . S
C2700 C2699 1.523 . S
C2701 C2685 1.429 . S
C2701 C2697 1.429 . S
C2701 C2702 1.523 . S
C2702 C2686 1.368 . S
C2702 C2698 1.368 . S
C2702 C2701 1.523 . S
H2703 C2678 0.950 . S
H2704 C2680 0.950 . S
H2705 C2681 0.949 . S
H2706 C2683 0.950 . S
H2707 C2685 0.950 . S
C2708 C2709 1.349 . S
C2708 C2710 1.327 . S
C2708 H2733 0.950 . S
C2709 C2708 1.349 . S
C2709 C2725 1.349 . S
C2710 C2708 1.327 . S
C2710 C2729 1.429 . S
C2710 H2734 0.950 . S
C2711 C2728 1.574 . S
C2711 C2730 1.368 . S
C2711 H2735 0.949 . S
H2712 C2716 0.949 . S
C2713 C2714 1.349 . S
C2713 C2715 1.327 . S
C2713 H2736 0.950 . S
C2714 C2713 1.349 . S
C2714 C2726 1.349 . S
C2715 C2713 1.327 . S
C2715 C2731 1.429 . S
C2715 H2737 0.950 . S
C2716 H2712 0.949 . S
C2716 C2724 1.574 . S
C2716 C2732 1.368 . S
H2717 C2725 0.950 . S
H2718 C2723 0.950 . S
H2719 C2724 0.949 . S
H2720 C2726 0.950 . S
H2721 C2727 0.950 . S
H2722 C2728 0.949 . S
C2723 H2718 0.950 . S
C2723 C2725 1.327 . S
C2723 C2729 1.429 . S
C2724 C2716 1.574 . S
C2724 H2719 0.949 . S
C2724 C2730 1.368 . S
C2725 C2709 1.349 . S
C2725 H2717 0.950 . S
C2725 C2723 1.327 . S
C2726 C2714 1.349 . S
C2726 H2720 0.950 . S
C2726 C2727 1.327 . S
C2727 H2721 0.950 . S
C2727 C2726 1.327 . S
C2727 C2731 1.429 . S
C2728 C2711 1.574 . S
C2728 H2722 0.949 . S
C2728 C2732 1.368 . S
C2729 C2710 1.429 . S
C2729 C2723 1.429 . S
C2729 C2730 1.523 . S
C2730 C2711 1.368 . S
C2730 C2724 1.368 . S
C2730 C2729 1.523 . S
C2731 C2715 1.429 . S
C2731 C2727 1.429 . S
C2731 C2732 1.523 . S
C2732 C2716 1.368 . S
C2732 C2728 1.368 . S
C2732 C2731 1.523 . S
H2733 C2708 0.950 . S
H2734 C2710 0.950 . S
H2735 C2711 0.949 . S
H2736 C2713 0.950 . S
H2737 C2715 0.950 . S
C2738 C2739 1.349 . S
C2738 C2740 1.327 . S
C2738 H2763 0.950 . S
C2739 C2738 1.349 . S
C2739 C2755 1.349 . S
C2740 C2738 1.327 . S
C2740 C2759 1.429 . S
C2740 H2764 0.950 . S
C2741 C2758 1.574 . S
C2741 C2760 1.368 . S
C2741 H2765 0.949 . S
H2742 C2746 0.949 . S
C2743 C2744 1.349 . S
C2743 C2745 1.327 . S
C2743 H2766 0.950 . S
C2744 C2743 1.349 . S
C2744 C2756 1.349 . S
C2745 C2743 1.327 . S
C2745 C2761 1.429 . S
C2745 H2767 0.950 . S
C2746 H2742 0.949 . S
C2746 C2754 1.574 . S
C2746 C2762 1.368 . S
H2747 C2755 0.950 . S
H2748 C2753 0.950 . S
H2749 C2754 0.949 . S
H2750 C2756 0.950 . S
H2751 C2757 0.950 . S
H2752 C2758 0.949 . S
C2753 H2748 0.950 . S
C2753 C2755 1.327 . S
C2753 C2759 1.429 . S
C2754 C2746 1.574 . S
C2754 H2749 0.949 . S
C2754 C2760 1.368 . S
C2755 C2739 1.349 . S
C2755 H2747 0.950 . S
C2755 C2753 1.327 . S
C2756 C2744 1.349 . S
C2756 H2750 0.950 . S
C2756 C2757 1.327 . S
C2757 H2751 0.950 . S
C2757 C2756 1.327 . S
C2757 C2761 1.429 . S
C2758 C2741 1.574 . S
C2758 H2752 0.949 . S
C2758 C2762 1.368 . S
C2759 C2740 1.429 . S
C2759 C2753 1.429 . S
C2759 C2760 1.523 . S
C2760 C2741 1.368 . S
C2760 C2754 1.368 . S
C2760 C2759 1.523 . S
C2761 C2745 1.429 . S
C2761 C2757 1.429 . S
C2761 C2762 1.523 . S
C2762 C2746 1.368 . S
C2762 C2758 1.368 . S
C2762 C2761 1.523 . S
H2763 C2738 0.950 . S
H2764 C2740 0.950 . S
H2765 C2741 0.949 . S
H2766 C2743 0.950 . S
H2767 C2745 0.950 . S
C2768 C2769 1.349 . S
C2768 C2770 1.327 . S
C2768 H2793 0.950 . S
C2769 C2768 1.349 . S
C2769 C2785 1.349 . S
C2770 C2768 1.327 . S
C2770 C2789 1.429 . S
C2770 H2794 0.950 . S
C2771 C2788 1.574 . S
C2771 C2790 1.368 . S
C2771 H2795 0.949 . S
H2772 C2776 0.949 . S
C2773 C2774 1.349 . S
C2773 C2775 1.327 . S
C2773 H2796 0.950 . S
C2774 C2773 1.349 . S
C2774 C2786 1.349 . S
C2775 C2773 1.327 . S
C2775 C2791 1.429 . S
C2775 H2797 0.950 . S
C2776 H2772 0.949 . S
C2776 C2784 1.574 . S
C2776 C2792 1.368 . S
H2777 C2785 0.950 . S
H2778 C2783 0.950 . S
H2779 C2784 0.949 . S
H2780 C2786 0.950 . S
H2781 C2787 0.950 . S
H2782 C2788 0.949 . S
C2783 H2778 0.950 . S
C2783 C2785 1.327 . S
C2783 C2789 1.429 . S
C2784 C2776 1.574 . S
C2784 H2779 0.949 . S
C2784 C2790 1.368 . S
C2785 C2769 1.349 . S
C2785 H2777 0.950 . S
C2785 C2783 1.327 . S
C2786 C2774 1.349 . S
C2786 H2780 0.950 . S
C2786 C2787 1.327 . S
C2787 H2781 0.950 . S
C2787 C2786 1.327 . S
C2787 C2791 1.429 . S
C2788 C2771 1.574 . S
C2788 H2782 0.949 . S
C2788 C2792 1.368 . S
C2789 C2770 1.429 . S
C2789 C2783 1.429 . S
C2789 C2790 1.523 . S
C2790 C2771 1.368 . S
C2790 C2784 1.368 . S
C2790 C2789 1.523 . S
C2791 C2775 1.429 . S
C2791 C2787 1.429 . S
C2791 C2792 1.523 . S
C2792 C2776 1.368 . S
C2792 C2788 1.368 . S
C2792 C2791 1.523 . S
H2793 C2768 0.950 . S
H2794 C2770 0.950 . S
H2795 C2771 0.949 . S
H2796 C2773 0.950 . S
H2797 C2775 0.950 . S
C2798 C2799 1.349 . S
C2798 C2800 1.327 . S
C2798 H2823 0.950 . S
C2799 C2798 1.349 . S
C2799 C2815 1.349 . S
C2800 C2798 1.327 . S
C2800 C2819 1.429 . S
C2800 H2824 0.950 . S
C2801 C2818 1.574 . S
C2801 C2820 1.368 . S
C2801 H2825 0.949 . S
H2802 C2806 0.949 . S
C2803 C2804 1.349 . S
C2803 C2805 1.327 . S
C2803 H2826 0.950 . S
C2804 C2803 1.349 . S
C2804 C2816 1.349 . S
C2805 C2803 1.327 . S
C2805 C2821 1.429 . S
C2805 H2827 0.950 . S
C2806 H2802 0.949 . S
C2806 C2814 1.574 . S
C2806 C2822 1.368 . S
H2807 C2815 0.950 . S
H2808 C2813 0.950 . S
H2809 C2814 0.949 . S
H2810 C2816 0.950 . S
H2811 C2817 0.950 . S
H2812 C2818 0.949 . S
C2813 H2808 0.950 . S
C2813 C2815 1.327 . S
C2813 C2819 1.429 . S
C2814 C2806 1.574 . S
C2814 H2809 0.949 . S
C2814 C2820 1.368 . S
C2815 C2799 1.349 . S
C2815 H2807 0.950 . S
C2815 C2813 1.327 . S
C2816 C2804 1.349 . S
C2816 H2810 0.950 . S
C2816 C2817 1.327 . S
C2817 H2811 0.950 . S
C2817 C2816 1.327 . S
C2817 C2821 1.429 . S
C2818 C2801 1.574 . S
C2818 H2812 0.949 . S
C2818 C2822 1.368 . S
C2819 C2800 1.429 . S
C2819 C2813 1.429 . S
C2819 C2820 1.523 . S
C2820 C2801 1.368 . S
C2820 C2814 1.368 . S
C2820 C2819 1.523 . S
C2821 C2805 1.429 . S
C2821 C2817 1.429 . S
C2821 C2822 1.523 . S
C2822 C2806 1.368 . S
C2822 C2818 1.368 . S
C2822 C2821 1.523 . S
H2823 C2798 0.950 . S
H2824 C2800 0.950 . S
H2825 C2801 0.949 . S
H2826 C2803 0.950 . S
H2827 C2805 0.950 . S
C2828 C2829 1.349 . S
C2828 C2830 1.327 . S
C2828 H2853 0.950 . S
C2829 C2828 1.349 . S
C2829 C2845 1.349 . S
C2830 C2828 1.327 . S
C2830 C2849 1.429 . S
C2830 H2854 0.950 . S
C2831 C2848 1.574 . S
C2831 C2850 1.368 . S
C2831 H2855 0.949 . S
H2832 C2836 0.949 . S
C2833 C2834 1.349 . S
C2833 C2835 1.327 . S
C2833 H2856 0.950 . S
C2834 C2833 1.349 . S
C2834 C2846 1.349 . S
C2835 C2833 1.327 . S
C2835 C2851 1.429 . S
C2835 H2857 0.950 . S
C2836 H2832 0.949 . S
C2836 C2844 1.574 . S
C2836 C2852 1.368 . S
H2837 C2845 0.950 . S
H2838 C2843 0.950 . S
H2839 C2844 0.949 . S
H2840 C2846 0.950 . S
H2841 C2847 0.950 . S
H2842 C2848 0.949 . S
C2843 H2838 0.950 . S
C2843 C2845 1.327 . S
C2843 C2849 1.429 . S
C2844 C2836 1.574 . S
C2844 H2839 0.949 . S
C2844 C2850 1.368 . S
C2845 C2829 1.349 . S
C2845 H2837 0.950 . S
C2845 C2843 1.327 . S
C2846 C2834 1.349 . S
C2846 H2840 0.950 . S
C2846 C2847 1.327 . S
C2847 H2841 0.950 . S
C2847 C2846 1.327 . S
C2847 C2851 1.429 . S
C2848 C2831 1.574 . S
C2848 H2842 0.949 . S
C2848 C2852 1.368 . S
C2849 C2830 1.429 . S
C2849 C2843 1.429 . S
C2849 C2850 1.523 . S
C2850 C2831 1.368 . S
C2850 C2844 1.368 . S
C2850 C2849 1.523 . S
C2851 C2835 1.429 . S
C2851 C2847 1.429 . S
C2851 C2852 1.523 . S
C2852 C2836 1.368 . S
C2852 C2848 1.368 . S
C2852 C2851 1.523 . S
H2853 C2828 0.950 . S
H2854 C2830 0.950 . S
H2855 C2831 0.949 . S
H2856 C2833 0.950 . S
H2857 C2835 0.950 . S
C2858 C2859 1.349 . S
C2858 C2860 1.327 . S
C2858 H2883 0.950 . S
C2859 C2858 1.349 . S
C2859 C2875 1.349 . S
C2860 C2858 1.327 . S
C2860 C2879 1.429 . S
C2860 H2884 0.950 . S
C2861 C2878 1.574 . S
C2861 C2880 1.368 . S
C2861 H2885 0.949 . S
H2862 C2866 0.949 . S
C2863 C2864 1.349 . S
C2863 C2865 1.327 . S
C2863 H2886 0.950 . S
C2864 C2863 1.349 . S
C2864 C2876 1.349 . S
C2865 C2863 1.327 . S
C2865 C2881 1.429 . S
C2865 H2887 0.950 . S
C2866 H2862 0.949 . S
C2866 C2874 1.574 . S
C2866 C2882 1.368 . S
H2867 C2875 0.950 . S
H2868 C2873 0.950 . S
H2869 C2874 0.949 . S
H2870 C2876 0.950 . S
H2871 C2877 0.950 . S
H2872 C2878 0.949 . S
C2873 H2868 0.950 . S
C2873 C2875 1.327 . S
C2873 C2879 1.429 . S
C2874 C2866 1.574 . S
C2874 H2869 0.949 . S
C2874 C2880 1.368 . S
C2875 C2859 1.349 . S
C2875 H2867 0.950 . S
C2875 C2873 1.327 . S
C2876 C2864 1.349 . S
C2876 H2870 0.950 . S
C2876 C2877 1.327 . S
C2877 H2871 0.950 . S
C2877 C2876 1.327 . S
C2877 C2881 1.429 . S
C2878 C2861 1.574 . S
C2878 H2872 0.949 . S
C2878 C2882 1.368 . S
C2879 C2860 1.429 . S
C2879 C2873 1.429 . S
C2879 C2880 1.523 . S
C2880 C2861 1.368 . S
C2880 C2874 1.368 . S
C2880 C2879 1.523 . S
C2881 C2865 1.429 . S
C2881 C2877 1.429 . S
C2881 C2882 1.523 . S
C2882 C2866 1.368 . S
C2882 C2878 1.368 . S
C2882 C2881 1.523 . S
H2883 C2858 0.950 . S
H2884 C2860 0.950 . S
H2885 C2861 0.949 . S
H2886 C2863 0.950 . S
H2887 C2865 0.950 . S
C2888 C2889 1.349 . S
C2888 C2890 1.327 . S
C2888 H2913 0.950 . S
C2889 C2888 1.349 . S
C2889 C2905 1.349 . S
C2890 C2888 1.327 . S
C2890 C2909 1.429 . S
C2890 H2914 0.950 . S
C2891 C2908 1.574 . S
C2891 C2910 1.368 . S
C2891 H2915 0.949 . S
H2892 C2896 0.949 . S
C2893 C2894 1.349 . S
C2893 C2895 1.327 . S
C2893 H2916 0.950 . S
C2894 C2893 1.349 . S
C2894 C2906 1.349 . S
C2895 C2893 1.327 . S
C2895 C2911 1.429 . S
C2895 H2917 0.950 . S
C2896 H2892 0.949 . S
C2896 C2904 1.574 . S
C2896 C2912 1.368 . S
H2897 C2905 0.950 . S
H2898 C2903 0.950 . S
H2899 C2904 0.949 . S
H2900 C2906 0.950 . S
H2901 C2907 0.950 . S
H2902 C2908 0.949 . S
C2903 H2898 0.950 . S
C2903 C2905 1.327 . S
C2903 C2909 1.429 . S
C2904 C2896 1.574 . S
C2904 H2899 0.949 . S
C2904 C2910 1.368 . S
C2905 C2889 1.349 . S
C2905 H2897 0.950 . S
C2905 C2903 1.327 . S
C2906 C2894 1.349 . S
C2906 H2900 0.950 . S
C2906 C2907 1.327 . S
C2907 H2901 0.950 . S
C2907 C2906 1.327 . S
C2907 C2911 1.429 . S
C2908 C2891 1.574 . S
C2908 H2902 0.949 . S
C2908 C2912 1.368 . S
C2909 C2890 1.429 . S
C2909 C2903 1.429 . S
C2909 C2910 1.523 . S
C2910 C2891 1.368 . S
C2910 C2904 1.368 . S
C2910 C2909 1.523 . S
C2911 C2895 1.429 . S
C2911 C2907 1.429 . S
C2911 C2912 1.523 . S
C2912 C2896 1.368 . S
C2912 C2908 1.368 . S
C2912 C2911 1.523 . S
H2913 C2888 0.950 . S
H2914 C2890 0.950 . S
H2915 C2891 0.949 . S
H2916 C2893 0.950 . S
H2917 C2895 0.950 . S
C2918 C2919 1.349 . S
C2918 C2920 1.327 . S
C2918 H2943 0.950 . S
C2919 C2918 1.349 . S
C2919 C2935 1.349 . S
C2920 C2918 1.327 . S
C2920 C2939 1.429 . S
C2920 H2944 0.950 . S
C2921 C2938 1.574 . S
C2921 C2940 1.368 . S
C2921 H2945 0.949 . S
H2922 C2926 0.949 . S
C2923 C2924 1.349 . S
C2923 C2925 1.327 . S
C2923 H2946 0.950 . S
C2924 C2923 1.349 . S
C2924 C2936 1.349 . S
C2925 C2923 1.327 . S
C2925 C2941 1.429 . S
C2925 H2947 0.950 . S
C2926 H2922 0.949 . S
C2926 C2934 1.574 . S
C2926 C2942 1.368 . S
H2927 C2935 0.950 . S
H2928 C2933 0.950 . S
H2929 C2934 0.949 . S
H2930 C2936 0.950 . S
H2931 C2937 0.950 . S
H2932 C2938 0.949 . S
C2933 H2928 0.950 . S
C2933 C2935 1.327 . S
C2933 C2939 1.429 . S
C2934 C2926 1.574 . S
C2934 H2929 0.949 . S
C2934 C2940 1.368 . S
C2935 C2919 1.349 . S
C2935 H2927 0.950 . S
C2935 C2933 1.327 . S
C2936 C2924 1.349 . S
C2936 H2930 0.950 . S
C2936 C2937 1.327 . S
C2937 H2931 0.950 . S
C2937 C2936 1.327 . S
C2937 C2941 1.429 . S
C2938 C2921 1.574 . S
C2938 H2932 0.949 . S
C2938 C2942 1.368 . S
C2939 C2920 1.429 . S
C2939 C2933 1.429 . S
C2939 C2940 1.523 . S
C2940 C2921 1.368 . S
C2940 C2934 1.368 . S
C2940 C2939 1.523 . S
C2941 C2925 1.429 . S
C2941 C2937 1.429 . S
C2941 C2942 1.523 . S
C2942 C2926 1.368 . S
C2942 C2938 1.368 . S
C2942 C2941 1.523 . S
H2943 C2918 0.950 . S
H2944 C2920 0.950 . S
H2945 C2921 0.949 . S
H2946 C2923 0.950 . S
H2947 C2925 0.950 . S
C2948 C2949 1.349 . S
C2948 C2950 1.327 . S
C2948 H2973 0.950 . S
C2949 C2948 1.349 . S
C2949 C2965 1.349 . S
C2950 C2948 1.327 . S
C2950 C2969 1.429 . S
C2950 H2974 0.950 . S
C2951 C2968 1.574 . S
C2951 C2970 1.368 . S
C2951 H2975 0.949 . S
H2952 C2956 0.949 . S
C2953 C2954 1.349 . S
C2953 C2955 1.327 . S
C2953 H2976 0.950 . S
C2954 C2953 1.349 . S
C2954 C2966 1.349 . S
C2955 C2953 1.327 . S
C2955 C2971 1.429 . S
C2955 H2977 0.950 . S
C2956 H2952 0.949 . S
C2956 C2964 1.574 . S
C2956 C2972 1.368 . S
H2957 C2965 0.950 . S
H2958 C2963 0.950 . S
H2959 C2964 0.949 . S
H2960 C2966 0.950 . S
H2961 C2967 0.950 . S
H2962 C2968 0.949 . S
C2963 H2958 0.950 . S
C2963 C2965 1.327 . S
C2963 C2969 1.429 . S
C2964 C2956 1.574 . S
C2964 H2959 0.949 . S
C2964 C2970 1.368 . S
C2965 C2949 1.349 . S
C2965 H2957 0.950 . S
C2965 C2963 1.327 . S
C2966 C2954 1.349 . S
C2966 H2960 0.950 . S
C2966 C2967 1.327 . S
C2967 H2961 0.950 . S
C2967 C2966 1.327 . S
C2967 C2971 1.429 . S
C2968 C2951 1.574 . S
C2968 H2962 0.949 . S
C2968 C2972 1.368 . S
C2969 C2950 1.429 . S
C2969 C2963 1.429 . S
C2969 C2970 1.523 . S
C2970 C2951 1.368 . S
C2970 C2964 1.368 . S
C2970 C2969 1.523 . S
C2971 C2955 1.429 . S
C2971 C2967 1.429 . S
C2971 C2972 1.523 . S
C2972 C2956 1.368 . S
C2972 C2968 1.368 . S
C2972 C2971 1.523 . S
H2973 C2948 0.950 . S
H2974 C2950 0.950 . S
H2975 C2951 0.949 . S
H2976 C2953 0.950 . S
H2977 C2955 0.950 . S
C2978 C2979 1.349 . S
C2978 C2980 1.327 . S
C2978 H3003 0.950 . S
C2979 C2978 1.349 . S
C2979 C2995 1.349 . S
C2980 C2978 1.327 . S
C2980 C2999 1.429 . S
C2980 H3004 0.950 . S
C2981 C2998 1.574 . S
C2981 C3000 1.368 . S
C2981 H3005 0.949 . S
H2982 C2986 0.949 . S
C2983 C2984 1.349 . S
C2983 C2985 1.327 . S
C2983 H3006 0.950 . S
C2984 C2983 1.349 . S
C2984 C2996 1.349 . S
C2985 C2983 1.327 . S
C2985 C3001 1.429 . S
C2985 H3007 0.950 . S
C2986 H2982 0.949 . S
C2986 C2994 1.574 . S
C2986 C3002 1.368 . S
H2987 C2995 0.950 . S
H2988 C2993 0.950 . S
H2989 C2994 0.949 . S
H2990 C2996 0.950 . S
H2991 C2997 0.950 . S
H2992 C2998 0.949 . S
C2993 H2988 0.950 . S
C2993 C2995 1.327 . S
C2993 C2999 1.429 . S
C2994 C2986 1.574 . S
C2994 H2989 0.949 . S
C2994 C3000 1.368 . S
C2995 C2979 1.349 . S
C2995 H2987 0.950 . S
C2995 C2993 1.327 . S
C2996 C2984 1.349 . S
C2996 H2990 0.950 . S
C2996 C2997 1.327 . S
C2997 H2991 0.950 . S
C2997 C2996 1.327 . S
C2997 C3001 1.429 . S
C2998 C2981 1.574 . S
C2998 H2992 0.949 . S
C2998 C3002 1.368 . S
C2999 C2980 1.429 . S
C2999 C2993 1.429 . S
C2999 C3000 1.523 . S
C3000 C2981 1.368 . S
C3000 C2994 1.368 . S
C3000 C2999 1.523 . S
C3001 C2985 1.429 . S
C3001 C2997 1.429 . S
C3001 C3002 1.523 . S
C3002 C2986 1.368 . S
C3002 C2998 1.368 . S
C3002 C3001 1.523 . S
H3003 C2978 0.950 . S
H3004 C2980 0.950 . S
H3005 C2981 0.949 . S
H3006 C2983 0.950 . S
H3007 C2985 0.950 . S
C3008 C3009 1.349 . S
C3008 C3010 1.327 . S
C3008 H3033 0.950 . S
C3009 C3008 1.349 . S
C3009 C3025 1.349 . S
C3010 C3008 1.327 . S
C3010 C3029 1.429 . S
C3010 H3034 0.950 . S
C3011 C3028 1.574 . S
C3011 C3030 1.368 . S
C3011 H3035 0.949 . S
H3012 C3016 0.949 . S
C3013 C3014 1.349 . S
C3013 C3015 1.327 . S
C3013 H3036 0.950 . S
C3014 C3013 1.349 . S
C3014 C3026 1.349 . S
C3015 C3013 1.327 . S
C3015 C3031 1.429 . S
C3015 H3037 0.950 . S
C3016 H3012 0.949 . S
C3016 C3024 1.574 . S
C3016 C3032 1.368 . S
H3017 C3025 0.950 . S
H3018 C3023 0.950 . S
H3019 C3024 0.949 . S
H3020 C3026 0.950 . S
H3021 C3027 0.950 . S
H3022 C3028 0.949 . S
C3023 H3018 0.950 . S
C3023 C3025 1.327 . S
C3023 C3029 1.429 . S
C3024 C3016 1.574 . S
C3024 H3019 0.949 . S
C3024 C3030 1.368 . S
C3025 C3009 1.349 . S
C3025 H3017 0.950 . S
C3025 C3023 1.327 . S
C3026 C3014 1.349 . S
C3026 H3020 0.950 . S
C3026 C3027 1.327 . S
C3027 H3021 0.950 . S
C3027 C3026 1.327 . S
C3027 C3031 1.429 . S
C3028 C3011 1.574 . S
C3028 H3022 0.949 . S
C3028 C3032 1.368 . S
C3029 C3010 1.429 . S
C3029 C3023 1.429 . S
C3029 C3030 1.523 . S
C3030 C3011 1.368 . S
C3030 C3024 1.368 . S
C3030 C3029 1.523 . S
C3031 C3015 1.429 . S
C3031 C3027 1.429 . S
C3031 C3032 1.523 . S
C3032 C3016 1.368 . S
C3032 C3028 1.368 . S
C3032 C3031 1.523 . S
H3033 C3008 0.950 . S
H3034 C3010 0.950 . S
H3035 C3011 0.949 . S
H3036 C3013 0.950 . S
H3037 C3015 0.950 . S
C3038 C3039 1.349 . S
C3038 C3040 1.327 . S
C3038 H3063 0.950 . S
C3039 C3038 1.349 . S
C3039 C3055 1.349 . S
C3040 C3038 1.327 . S
C3040 C3059 1.429 . S
C3040 H3064 0.950 . S
C3041 C3058 1.574 . S
C3041 C3060 1.368 . S
C3041 H3065 0.949 . S
H3042 C3046 0.949 . S
C3043 C3044 1.349 . S
C3043 C3045 1.327 . S
C3043 H3066 0.950 . S
C3044 C3043 1.349 . S
C3044 C3056 1.349 . S
C3045 C3043 1.327 . S
C3045 C3061 1.429 . S
C3045 H3067 0.950 . S
C3046 H3042 0.949 . S
C3046 C3054 1.574 . S
C3046 C3062 1.368 . S
H3047 C3055 0.950 . S
H3048 C3053 0.950 . S
H3049 C3054 0.949 . S
H3050 C3056 0.950 . S
H3051 C3057 0.950 . S
H3052 C3058 0.949 . S
C3053 H3048 0.950 . S
C3053 C3055 1.327 . S
C3053 C3059 1.429 . S
C3054 C3046 1.574 . S
C3054 H3049 0.949 . S
C3054 C3060 1.368 . S
C3055 C3039 1.349 . S
C3055 H3047 0.950 . S
C3055 C3053 1.327 . S
C3056 C3044 1.349 . S
C3056 H3050 0.950 . S
C3056 C3057 1.327 . S
C3057 H3051 0.950 . S
C3057 C3056 1.327 . S
C3057 C3061 1.429 . S
C3058 C3041 1.574 . S
C3058 H3052 0.949 . S
C3058 C3062 1.368 . S
C3059 C3040 1.429 . S
C3059 C3053 1.429 . S
C3059 C3060 1.523 . S
C3060 C3041 1.368 . S
C3060 C3054 1.368 . S
C3060 C3059 1.523 . S
C3061 C3045 1.429 . S
C3061 C3057 1.429 . S
C3061 C3062 1.523 . S
C3062 C3046 1.368 . S
C3062 C3058 1.368 . S
C3062 C3061 1.523 . S
H3063 C3038 0.950 . S
H3064 C3040 0.950 . S
H3065 C3041 0.949 . S
H3066 C3043 0.950 . S
H3067 C3045 0.950 . S
C3068 C3069 1.349 . S
C3068 C3070 1.327 . S
C3068 H3093 0.950 . S
C3069 C3068 1.349 . S
C3069 C3085 1.349 . S
C3070 C3068 1.327 . S
C3070 C3089 1.429 . S
C3070 H3094 0.950 . S
C3071 C3088 1.574 . S
C3071 C3090 1.368 . S
C3071 H3095 0.949 . S
H3072 C3076 0.949 . S
C3073 C3074 1.349 . S
C3073 C3075 1.327 . S
C3073 H3096 0.950 . S
C3074 C3073 1.349 . S
C3074 C3086 1.349 . S
C3075 C3073 1.327 . S
C3075 C3091 1.429 . S
C3075 H3097 0.950 . S
C3076 H3072 0.949 . S
C3076 C3084 1.574 . S
C3076 C3092 1.368 . S
H3077 C3085 0.950 . S
H3078 C3083 0.950 . S
H3079 C3084 0.949 . S
H3080 C3086 0.950 . S
H3081 C3087 0.950 . S
H3082 C3088 0.949 . S
C3083 H3078 0.950 . S
C3083 C3085 1.327 . S
C3083 C3089 1.429 . S
C3084 C3076 1.574 . S
C3084 H3079 0.949 . S
C3084 C3090 1.368 . S
C3085 C3069 1.349 . S
C3085 H3077 0.950 . S
C3085 C3083 1.327 . S
C3086 C3074 1.349 . S
C3086 H3080 0.950 . S
C3086 C3087 1.327 . S
C3087 H3081 0.950 . S
C3087 C3086 1.327 . S
C3087 C3091 1.429 . S
C3088 C3071 1.574 . S
C3088 H3082 0.949 . S
C3088 C3092 1.368 . S
C3089 C3070 1.429 . S
C3089 C3083 1.429 . S
C3089 C3090 1.523 . S
C3090 C3071 1.368 . S
C3090 C3084 1.368 . S
C3090 C3089 1.523 . S
C3091 C3075 1.429 . S
C3091 C3087 1.429 . S
C3091 C3092 1.523 . S
C3092 C3076 1.368 . S
C3092 C3088 1.368 . S
C3092 C3091 1.523 . S
H3093 C3068 0.950 . S
H3094 C3070 0.950 . S
H3095 C3071 0.949 . S
H3096 C3073 0.950 . S
H3097 C3075 0.950 . S
C3098 C3099 1.349 . S
C3098 C3100 1.327 . S
C3098 H3123 0.950 . S
C3099 C3098 1.349 . S
C3099 C3115 1.349 . S
C3100 C3098 1.327 . S
C3100 C3119 1.429 . S
C3100 H3124 0.950 . S
C3101 C3118 1.574 . S
C3101 C3120 1.368 . S
C3101 H3125 0.949 . S
H3102 C3106 0.949 . S
C3103 C3104 1.349 . S
C3103 C3105 1.327 . S
C3103 H3126 0.950 . S
C3104 C3103 1.349 . S
C3104 C3116 1.349 . S
C3105 C3103 1.327 . S
C3105 C3121 1.429 . S
C3105 H3127 0.950 . S
C3106 H3102 0.949 . S
C3106 C3114 1.574 . S
C3106 C3122 1.368 . S
H3107 C3115 0.950 . S
H3108 C3113 0.950 . S
H3109 C3114 0.949 . S
H3110 C3116 0.950 . S
H3111 C3117 0.950 . S
H3112 C3118 0.949 . S
C3113 H3108 0.950 . S
C3113 C3115 1.327 . S
C3113 C3119 1.429 . S
C3114 C3106 1.574 . S
C3114 H3109 0.949 . S
C3114 C3120 1.368 . S
C3115 C3099 1.349 . S
C3115 H3107 0.950 . S
C3115 C3113 1.327 . S
C3116 C3104 1.349 . S
C3116 H3110 0.950 . S
C3116 C3117 1.327 . S
C3117 H3111 0.950 . S
C3117 C3116 1.327 . S
C3117 C3121 1.429 . S
C3118 C3101 1.574 . S
C3118 H3112 0.949 . S
C3118 C3122 1.368 . S
C3119 C3100 1.429 . S
C3119 C3113 1.429 . S
C3119 C3120 1.523 . S
C3120 C3101 1.368 . S
C3120 C3114 1.368 . S
C3120 C3119 1.523 . S
C3121 C3105 1.429 . S
C3121 C3117 1.429 . S
C3121 C3122 1.523 . S
C3122 C3106 1.368 . S
C3122 C3118 1.368 . S
C3122 C3121 1.523 . S
H3123 C3098 0.950 . S
H3124 C3100 0.950 . S
H3125 C3101 0.949 . S
H3126 C3103 0.950 . S
H3127 C3105 0.950 . S
C3128 C3129 1.349 . S
C3128 C3130 1.327 . S
C3128 H3153 0.950 . S
C3129 C3128 1.349 . S
C3129 C3145 1.349 . S
C3130 C3128 1.327 . S
C3130 C3149 1.429 . S
C3130 H3154 0.950 . S
C3131 C3148 1.574 . S
C3131 C3150 1.368 . S
C3131 H3155 0.949 . S
H3132 C3136 0.949 . S
C3133 C3134 1.349 . S
C3133 C3135 1.327 . S
C3133 H3156 0.950 . S
C3134 C3133 1.349 . S
C3134 C3146 1.349 . S
C3135 C3133 1.327 . S
C3135 C3151 1.429 . S
C3135 H3157 0.950 . S
C3136 H3132 0.949 . S
C3136 C3144 1.574 . S
C3136 C3152 1.368 . S
H3137 C3145 0.950 . S
H3138 C3143 0.950 . S
H3139 C3144 0.949 . S
H3140 C3146 0.950 . S
H3141 C3147 0.950 . S
H3142 C3148 0.949 . S
C3143 H3138 0.950 . S
C3143 C3145 1.327 . S
C3143 C3149 1.429 . S
C3144 C3136 1.574 . S
C3144 H3139 0.949 . S
C3144 C3150 1.368 . S
C3145 C3129 1.349 . S
C3145 H3137 0.950 . S
C3145 C3143 1.327 . S
C3146 C3134 1.349 . S
C3146 H3140 0.950 . S
C3146 C3147 1.327 . S
C3147 H3141 0.950 . S
C3147 C3146 1.327 . S
C3147 C3151 1.429 . S
C3148 C3131 1.574 . S
C3148 H3142 0.949 . S
C3148 C3152 1.368 . S
C3149 C3130 1.429 . S
C3149 C3143 1.429 . S
C3149 C3150 1.523 . S
C3150 C3131 1.368 . S
C3150 C3144 1.368 . S
C3150 C3149 1.523 . S
C3151 C3135 1.429 . S
C3151 C3147 1.429 . S
C3151 C3152 1.523 . S
C3152 C3136 1.368 . S
C3152 C3148 1.368 . S
C3152 C3151 1.523 . S
H3153 C3128 0.950 . S
H3154 C3130 0.950 . S
H3155 C3131 0.949 . S
H3156 C3133 0.950 . S
H3157 C3135 0.950 . S
C3158 C3159 1.349 . S
C3158 C3160 1.327 . S
C3158 H3183 0.950 . S
C3159 C3158 1.349 . S
C3159 C3175 1.349 . S
C3160 C3158 1.327 . S
C3160 C3179 1.429 . S
C3160 H3184 0.950 . S
C3161 C3178 1.574 . S
C3161 C3180 1.368 . S
C3161 H3185 0.949 . S
H3162 C3166 0.949 . S
C3163 C3164 1.349 . S
C3163 C3165 1.327 . S
C3163 H3186 0.950 . S
C3164 C3163 1.349 . S
C3164 C3176 1.349 . S
C3165 C3163 1.327 . S
C3165 C3181 1.429 . S
C3165 H3187 0.950 . S
C3166 H3162 0.949 . S
C3166 C3174 1.574 . S
C3166 C3182 1.368 . S
H3167 C3175 0.950 . S
H3168 C3173 0.950 . S
H3169 C3174 0.949 . S
H3170 C3176 0.950 . S
H3171 C3177 0.950 . S
H3172 C3178 0.949 . S
C3173 H3168 0.950 . S
C3173 C3175 1.327 . S
C3173 C3179 1.429 . S
C3174 C3166 1.574 . S
C3174 H3169 0.949 . S
C3174 C3180 1.368 . S
C3175 C3159 1.349 . S
C3175 H3167 0.950 . S
C3175 C3173 1.327 . S
C3176 C3164 1.349 . S
C3176 H3170 0.950 . S
C3176 C3177 1.327 . S
C3177 H3171 0.950 . S
C3177 C3176 1.327 . S
C3177 C3181 1.429 . S
C3178 C3161 1.574 . S
C3178 H3172 0.949 . S
C3178 C3182 1.368 . S
C3179 C3160 1.429 . S
C3179 C3173 1.429 . S
C3179 C3180 1.523 . S
C3180 C3161 1.368 . S
C3180 C3174 1.368 . S
C3180 C3179 1.523 . S
C3181 C3165 1.429 . S
C3181 C3177 1.429 . S
C3181 C3182 1.523 . S
C3182 C3166 1.368 . S
C3182 C3178 1.368 . S
C3182 C3181 1.523 . S
H3183 C3158 0.950 . S
H3184 C3160 0.950 . S
H3185 C3161 0.949 . S
H3186 C3163 0.950 . S
H3187 C3165 0.950 . S
C3188 C3189 1.349 . S
C3188 C3190 1.327 . S
C3188 H3213 0.950 . S
C3189 C3188 1.349 . S
C3189 C3205 1.349 . S
C3190 C3188 1.327 . S
C3190 C3209 1.429 . S
C3190 H3214 0.950 . S
C3191 C3208 1.574 . S
C3191 C3210 1.368 . S
C3191 H3215 0.949 . S
H3192 C3196 0.949 . S
C3193 C3194 1.349 . S
C3193 C3195 1.327 . S
C3193 H3216 0.950 . S
C3194 C3193 1.349 . S
C3194 C3206 1.349 . S
C3195 C3193 1.327 . S
C3195 C3211 1.429 . S
C3195 H3217 0.950 . S
C3196 H3192 0.949 . S
C3196 C3204 1.574 . S
C3196 C3212 1.368 . S
H3197 C3205 0.950 . S
H3198 C3203 0.950 . S
H3199 C3204 0.949 . S
H3200 C3206 0.950 . S
H3201 C3207 0.950 . S
H3202 C3208 0.949 . S
C3203 H3198 0.950 . S
C3203 C3205 1.327 . S
C3203 C3209 1.429 . S
C3204 C3196 1.574 . S
C3204 H3199 0.949 . S
C3204 C3210 1.368 . S
C3205 C3189 1.349 . S
C3205 H3197 0.950 . S
C3205 C3203 1.327 . S
C3206 C3194 1.349 . S
C3206 H3200 0.950 . S
C3206 C3207 1.327 . S
C3207 H3201 0.950 . S
C3207 C3206 1.327 . S
C3207 C3211 1.429 . S
C3208 C3191 1.574 . S
C3208 H3202 0.949 . S
C3208 C3212 1.368 . S
C3209 C3190 1.429 . S
C3209 C3203 1.429 . S
C3209 C3210 1.523 . S
C3210 C3191 1.368 . S
C3210 C3204 1.368 . S
C3210 C3209 1.523 . S
C3211 C3195 1.429 . S
C3211 C3207 1.429 . S
C3211 C3212 1.523 . S
C3212 C3196 1.368 . S
C3212 C3208 1.368 . S
C3212 C3211 1.523 . S
H3213 C3188 0.950 . S
H3214 C3190 0.950 . S
H3215 C3191 0.949 . S
H3216 C3193 0.950 . S
H3217 C3195 0.950 . S
C3218 C3219 1.349 . S
C3218 C3220 1.327 . S
C3218 H3243 0.950 . S
C3219 C3218 1.349 . S
C3219 C3235 1.349 . S
C3220 C3218 1.327 . S
C3220 C3239 1.429 . S
C3220 H3244 0.950 . S
C3221 C3238 1.574 . S
C3221 C3240 1.368 . S
C3221 H3245 0.949 . S
H3222 C3226 0.949 . S
C3223 C3224 1.349 . S
C3223 C3225 1.327 . S
C3223 H3246 0.950 . S
C3224 C3223 1.349 . S
C3224 C3236 1.349 . S
C3225 C3223 1.327 . S
C3225 C3241 1.429 . S
C3225 H3247 0.950 . S
C3226 H3222 0.949 . S
C3226 C3234 1.574 . S
C3226 C3242 1.368 . S
H3227 C3235 0.950 . S
H3228 C3233 0.950 . S
H3229 C3234 0.949 . S
H3230 C3236 0.950 . S
H3231 C3237 0.950 . S
H3232 C3238 0.949 . S
C3233 H3228 0.950 . S
C3233 C3235 1.327 . S
C3233 C3239 1.429 . S
C3234 C3226 1.574 . S
C3234 H3229 0.949 . S
C3234 C3240 1.368 . S
C3235 C3219 1.349 . S
C3235 H3227 0.950 . S
C3235 C3233 1.327 . S
C3236 C3224 1.349 . S
C3236 H3230 0.950 . S
C3236 C3237 1.327 . S
C3237 H3231 0.950 . S
C3237 C3236 1.327 . S
C3237 C3241 1.429 . S
C3238 C3221 1.574 . S
C3238 H3232 0.949 . S
C3238 C3242 1.368 . S
C3239 C3220 1.429 . S
C3239 C3233 1.429 . S
C3239 C3240 1.523 . S
C3240 C3221 1.368 . S
C3240 C3234 1.368 . S
C3240 C3239 1.523 . S
C3241 C3225 1.429 . S
C3241 C3237 1.429 . S
C3241 C3242 1.523 . S
C3242 C3226 1.368 . S
C3242 C3238 1.368 . S
C3242 C3241 1.523 . S
H3243 C3218 0.950 . S
H3244 C3220 0.950 . S
H3245 C3221 0.949 . S
H3246 C3223 0.950 . S
H3247 C3225 0.950 . S
C3248 C3249 1.349 . S
C3248 C3250 1.327 . S
C3248 H3273 0.950 . S
C3249 C3248 1.349 . S
C3249 C3265 1.349 . S
C3250 C3248 1.327 . S
C3250 C3269 1.429 . S
C3250 H3274 0.950 . S
C3251 C3268 1.574 . S
C3251 C3270 1.368 . S
C3251 H3275 0.949 . S
H3252 C3256 0.949 . S
C3253 C3254 1.349 . S
C3253 C3255 1.327 . S
C3253 H3276 0.950 . S
C3254 C3253 1.349 . S
C3254 C3266 1.349 . S
C3255 C3253 1.327 . S
C3255 C3271 1.429 . S
C3255 H3277 0.950 . S
C3256 H3252 0.949 . S
C3256 C3264 1.574 . S
C3256 C3272 1.368 . S
H3257 C3265 0.950 . S
H3258 C3263 0.950 . S
H3259 C3264 0.949 . S
H3260 C3266 0.950 . S
H3261 C3267 0.950 . S
H3262 C3268 0.949 . S
C3263 H3258 0.950 . S
C3263 C3265 1.327 . S
C3263 C3269 1.429 . S
C3264 C3256 1.574 . S
C3264 H3259 0.949 . S
C3264 C3270 1.368 . S
C3265 C3249 1.349 . S
C3265 H3257 0.950 . S
C3265 C3263 1.327 . S
C3266 C3254 1.349 . S
C3266 H3260 0.950 . S
C3266 C3267 1.327 . S
C3267 H3261 0.950 . S
C3267 C3266 1.327 . S
C3267 C3271 1.429 . S
C3268 C3251 1.574 . S
C3268 H3262 0.949 . S
C3268 C3272 1.368 . S
C3269 C3250 1.429 . S
C3269 C3263 1.429 . S
C3269 C3270 1.523 . S
C3270 C3251 1.368 . S
C3270 C3264 1.368 . S
C3270 C3269 1.523 . S
C3271 C3255 1.429 . S
C3271 C3267 1.429 . S
C3271 C3272 1.523 . S
C3272 C3256 1.368 . S
C3272 C3268 1.368 . S
C3272 C3271 1.523 . S
H3273 C3248 0.950 . S
H3274 C3250 0.950 . S
H3275 C3251 0.949 . S
H3276 C3253 0.950 . S
H3277 C3255 0.950 . S
C3278 C3279 1.349 . S
C3278 C3280 1.327 . S
C3278 H3303 0.950 . S
C3279 C3278 1.349 . S
C3279 C3295 1.349 . S
C3280 C3278 1.327 . S
C3280 C3299 1.429 . S
C3280 H3304 0.950 . S
C3281 C3298 1.574 . S
C3281 C3300 1.368 . S
C3281 H3305 0.949 . S
H3282 C3286 0.949 . S
C3283 C3284 1.349 . S
C3283 C3285 1.327 . S
C3283 H3306 0.950 . S
C3284 C3283 1.349 . S
C3284 C3296 1.349 . S
C3285 C3283 1.327 . S
C3285 C3301 1.429 . S
C3285 H3307 0.950 . S
C3286 H3282 0.949 . S
C3286 C3294 1.574 . S
C3286 C3302 1.368 . S
H3287 C3295 0.950 . S
H3288 C3293 0.950 . S
H3289 C3294 0.949 . S
H3290 C3296 0.950 . S
H3291 C3297 0.950 . S
H3292 C3298 0.949 . S
C3293 H3288 0.950 . S
C3293 C3295 1.327 . S
C3293 C3299 1.429 . S
C3294 C3286 1.574 . S
C3294 H3289 0.949 . S
C3294 C3300 1.368 . S
C3295 C3279 1.349 . S
C3295 H3287 0.950 . S
C3295 C3293 1.327 . S
C3296 C3284 1.349 . S
C3296 H3290 0.950 . S
C3296 C3297 1.327 . S
C3297 H3291 0.950 . S
C3297 C3296 1.327 . S
C3297 C3301 1.429 . S
C3298 C3281 1.574 . S
C3298 H3292 0.949 . S
C3298 C3302 1.368 . S
C3299 C3280 1.429 . S
C3299 C3293 1.429 . S
C3299 C3300 1.523 . S
C3300 C3281 1.368 . S
C3300 C3294 1.368 . S
C3300 C3299 1.523 . S
C3301 C3285 1.429 . S
C3301 C3297 1.429 . S
C3301 C3302 1.523 . S
C3302 C3286 1.368 . S
C3302 C3298 1.368 . S
C3302 C3301 1.523 . S
H3303 C3278 0.950 . S
H3304 C3280 0.950 . S
H3305 C3281 0.949 . S
H3306 C3283 0.950 . S
H3307 C3285 0.950 . S
C3308 C3309 1.349 . S
C3308 C3310 1.327 . S
C3308 H3333 0.950 . S
C3309 C3308 1.349 . S
C3309 C3325 1.349 . S
C3310 C3308 1.327 . S
C3310 C3329 1.429 . S
C3310 H3334 0.950 . S
C3311 C3328 1.574 . S
C3311 C3330 1.368 . S
C3311 H3335 0.949 . S
H3312 C3316 0.949 . S
C3313 C3314 1.349 . S
C3313 C3315 1.327 . S
C3313 H3336 0.950 . S
C3314 C3313 1.349 . S
C3314 C3326 1.349 . S
C3315 C3313 1.327 . S
C3315 C3331 1.429 . S
C3315 H3337 0.950 . S
C3316 H3312 0.949 . S
C3316 C3324 1.574 . S
C3316 C3332 1.368 . S
H3317 C3325 0.950 . S
H3318 C3323 0.950 . S
H3319 C3324 0.949 . S
H3320 C3326 0.950 . S
H3321 C3327 0.950 . S
H3322 C3328 0.949 . S
C3323 H3318 0.950 . S
C3323 C3325 1.327 . S
C3323 C3329 1.429 . S
C3324 C3316 1.574 . S
C3324 H3319 0.949 . S
C3324 C3330 1.368 . S
C3325 C3309 1.349 . S
C3325 H3317 0.950 . S
C3325 C3323 1.327 . S
C3326 C3314 1.349 . S
C3326 H3320 0.950 . S
C3326 C3327 1.327 . S
C3327 H3321 0.950 . S
C3327 C3326 1.327 . S
C3327 C3331 1.429 . S
C3328 C3311 1.574 . S
C3328 H3322 0.949 . S
C3328 C3332 1.368 . S
C3329 C3310 1.429 . S
C3329 C3323 1.429 . S
C3329 C3330 1.523 . S
C3330 C3311 1.368 . S
C3330 C3324 1.368 . S
C3330 C3329 1.523 . S
C3331 C3315 1.429 . S
C3331 C3327 1.429 . S
C3331 C3332 1.523 . S
C3332 C3316 1.368 . S
C3332 C3328 1.368 . S
C3332 C3331 1.523 . S
H3333 C3308 0.950 . S
H3334 C3310 0.950 . S
H3335 C3311 0.949 . S
H3336 C3313 0.950 . S
H3337 C3315 0.950 . S
C3338 C3339 1.349 . S
C3338 C3340 1.327 . S
C3338 H3363 0.950 . S
C3339 C3338 1.349 . S
C3339 C3355 1.349 . S
C3340 C3338 1.327 . S
C3340 C3359 1.429 . S
C3340 H3364 0.950 . S
C3341 C3358 1.574 . S
C3341 C3360 1.368 . S
C3341 H3365 0.949 . S
H3342 C3346 0.949 . S
C3343 C3344 1.349 . S
C3343 C3345 1.327 . S
C3343 H3366 0.950 . S
C3344 C3343 1.349 . S
C3344 C3356 1.349 . S
C3345 C3343 1.327 . S
C3345 C3361 1.429 . S
C3345 H3367 0.950 . S
C3346 H3342 0.949 . S
C3346 C3354 1.574 . S
C3346 C3362 1.368 . S
H3347 C3355 0.950 . S
H3348 C3353 0.950 . S
H3349 C3354 0.949 . S
H3350 C3356 0.950 . S
H3351 C3357 0.950 . S
H3352 C3358 0.949 . S
C3353 H3348 0.950 . S
C3353 C3355 1.327 . S
C3353 C3359 1.429 . S
C3354 C3346 1.574 . S
C3354 H3349 0.949 . S
C3354 C3360 1.368 . S
C3355 C3339 1.349 . S
C3355 H3347 0.950 . S
C3355 C3353 1.327 . S
C3356 C3344 1.349 . S
C3356 H3350 0.950 . S
C3356 C3357 1.327 . S
C3357 H3351 0.950 . S
C3357 C3356 1.327 . S
C3357 C3361 1.429 . S
C3358 C3341 1.574 . S
C3358 H3352 0.949 . S
C3358 C3362 1.368 . S
C3359 C3340 1.429 . S
C3359 C3353 1.429 . S
C3359 C3360 1.523 . S
C3360 C3341 1.368 . S
C3360 C3354 1.368 . S
C3360 C3359 1.523 . S
C3361 C3345 1.429 . S
C3361 C3357 1.429 . S
C3361 C3362 1.523 . S
C3362 C3346 1.368 . S
C3362 C3358 1.368 . S
C3362 C3361 1.523 . S
H3363 C3338 0.950 . S
H3364 C3340 0.950 . S
H3365 C3341 0.949 . S
H3366 C3343 0.950 . S
H3367 C3345 0.950 . S
C3368 C3369 1.349 . S
C3368 C3370 1.327 . S
C3368 H3393 0.950 . S
C3369 C3368 1.349 . S
C3369 C3385 1.349 . S
C3370 C3368 1.327 . S
C3370 C3389 1.429 . S
C3370 H3394 0.950 . S
C3371 C3388 1.574 . S
C3371 C3390 1.368 . S
C3371 H3395 0.949 . S
H3372 C3376 0.949 . S
C3373 C3374 1.349 . S
C3373 C3375 1.327 . S
C3373 H3396 0.950 . S
C3374 C3373 1.349 . S
C3374 C3386 1.349 . S
C3375 C3373 1.327 . S
C3375 C3391 1.429 . S
C3375 H3397 0.950 . S
C3376 H3372 0.949 . S
C3376 C3384 1.574 . S
C3376 C3392 1.368 . S
H3377 C3385 0.950 . S
H3378 C3383 0.950 . S
H3379 C3384 0.949 . S
H3380 C3386 0.950 . S
H3381 C3387 0.950 . S
H3382 C3388 0.949 . S
C3383 H3378 0.950 . S
C3383 C3385 1.327 . S
C3383 C3389 1.429 . S
C3384 C3376 1.574 . S
C3384 H3379 0.949 . S
C3384 C3390 1.368 . S
C3385 C3369 1.349 . S
C3385 H3377 0.950 . S
C3385 C3383 1.327 . S
C3386 C3374 1.349 . S
C3386 H3380 0.950 . S
C3386 C3387 1.327 . S
C3387 H3381 0.950 . S
C3387 C3386 1.327 . S
C3387 C3391 1.429 . S
C3388 C3371 1.574 . S
C3388 H3382 0.949 . S
C3388 C3392 1.368 . S
C3389 C3370 1.429 . S
C3389 C3383 1.429 . S
C3389 C3390 1.523 . S
C3390 C3371 1.368 . S
C3390 C3384 1.368 . S
C3390 C3389 1.523 . S
C3391 C3375 1.429 . S
C3391 C3387 1.429 . S
C3391 C3392 1.523 . S
C3392 C3376 1.368 . S
C3392 C3388 1.368 . S
C3392 C3391 1.523 . S
H3393 C3368 0.950 . S
H3394 C3370 0.950 . S
H3395 C3371 0.949 . S
H3396 C3373 0.950 . S
H3397 C3375 0.950 . S
C3398 C3399 1.349 . S
C3398 C3400 1.327 . S
C3398 H3423 0.950 . S
C3399 C3398 1.349 . S
C3399 C3415 1.349 . S
C3400 C3398 1.327 . S
C3400 C3419 1.429 . S
C3400 H3424 0.950 . S
C3401 C3418 1.574 . S
C3401 C3420 1.368 . S
C3401 H3425 0.949 . S
H3402 C3406 0.949 . S
C3403 C3404 1.349 . S
C3403 C3405 1.327 . S
C3403 H3426 0.950 . S
C3404 C3403 1.349 . S
C3404 C3416 1.349 . S
C3405 C3403 1.327 . S
C3405 C3421 1.429 . S
C3405 H3427 0.950 . S
C3406 H3402 0.949 . S
C3406 C3414 1.574 . S
C3406 C3422 1.368 . S
H3407 C3415 0.950 . S
H3408 C3413 0.950 . S
H3409 C3414 0.949 . S
H3410 C3416 0.950 . S
H3411 C3417 0.950 . S
H3412 C3418 0.949 . S
C3413 H3408 0.950 . S
C3413 C3415 1.327 . S
C3413 C3419 1.429 . S
C3414 C3406 1.574 . S
C3414 H3409 0.949 . S
C3414 C3420 1.368 . S
C3415 C3399 1.349 . S
C3415 H3407 0.950 . S
C3415 C3413 1.327 . S
C3416 C3404 1.349 . S
C3416 H3410 0.950 . S
C3416 C3417 1.327 . S
C3417 H3411 0.950 . S
C3417 C3416 1.327 . S
C3417 C3421 1.429 . S
C3418 C3401 1.574 . S
C3418 H3412 0.949 . S
C3418 C3422 1.368 . S
C3419 C3400 1.429 . S
C3419 C3413 1.429 . S
C3419 C3420 1.523 . S
C3420 C3401 1.368 . S
C3420 C3414 1.368 . S
C3420 C3419 1.523 . S
C3421 C3405 1.429 . S
C3421 C3417 1.429 . S
C3421 C3422 1.523 . S
C3422 C3406 1.368 . S
C3422 C3418 1.368 . S
C3422 C3421 1.523 . S
H3423 C3398 0.950 . S
H3424 C3400 0.950 . S
H3425 C3401 0.949 . S
H3426 C3403 0.950 . S
H3427 C3405 0.950 . S
C3428 C3429 1.349 . S
C3428 C3430 1.327 . S
C3428 H3453 0.950 . S
C3429 C3428 1.349 . S
C3429 C3445 1.349 . S
C3430 C3428 1.327 . S
C3430 C3449 1.429 . S
C3430 H3454 0.950 . S
C3431 C3448 1.574 . S
C3431 C3450 1.368 . S
C3431 H3455 0.949 . S
H3432 C3436 0.949 . S
C3433 C3434 1.349 . S
C3433 C3435 1.327 . S
C3433 H3456 0.950 . S
C3434 C3433 1.349 . S
C3434 C3446 1.349 . S
C3435 C3433 1.327 . S
C3435 C3451 1.429 . S
C3435 H3457 0.950 . S
C3436 H3432 0.949 . S
C3436 C3444 1.574 . S
C3436 C3452 1.368 . S
H3437 C3445 0.950 . S
H3438 C3443 0.950 . S
H3439 C3444 0.949 . S
H3440 C3446 0.950 . S
H3441 C3447 0.950 . S
H3442 C3448 0.949 . S
C3443 H3438 0.950 . S
C3443 C3445 1.327 . S
C3443 C3449 1.429 . S
C3444 C3436 1.574 . S
C3444 H3439 0.949 . S
C3444 C3450 1.368 . S
C3445 C3429 1.349 . S
C3445 H3437 0.950 . S
C3445 C3443 1.327 . S
C3446 C3434 1.349 . S
C3446 H3440 0.950 . S
C3446 C3447 1.327 . S
C3447 H3441 0.950 . S
C3447 C3446 1.327 . S
C3447 C3451 1.429 . S
C3448 C3431 1.574 . S
C3448 H3442 0.949 . S
C3448 C3452 1.368 . S
C3449 C3430 1.429 . S
C3449 C3443 1.429 . S
C3449 C3450 1.523 . S
C3450 C3431 1.368 . S
C3450 C3444 1.368 . S
C3450 C3449 1.523 . S
C3451 C3435 1.429 . S
C3451 C3447 1.429 . S
C3451 C3452 1.523 . S
C3452 C3436 1.368 . S
C3452 C3448 1.368 . S
C3452 C3451 1.523 . S
H3453 C3428 0.950 . S
H3454 C3430 0.950 . S
H3455 C3431 0.949 . S
H3456 C3433 0.950 . S
H3457 C3435 0.950 . S
C3458 C3459 1.349 . S
C3458 C3460 1.327 . S
C3458 H3483 0.950 . S
C3459 C3458 1.349 . S
C3459 C3475 1.349 . S
C3460 C3458 1.327 . S
C3460 C3479 1.429 . S
C3460 H3484 0.950 . S
C3461 C3478 1.574 . S
C3461 C3480 1.368 . S
C3461 H3485 0.949 . S
H3462 C3466 0.949 . S
C3463 C3464 1.349 . S
C3463 C3465 1.327 . S
C3463 H3486 0.950 . S
C3464 C3463 1.349 . S
C3464 C3476 1.349 . S
C3465 C3463 1.327 . S
C3465 C3481 1.429 . S
C3465 H3487 0.950 . S
C3466 H3462 0.949 . S
C3466 C3474 1.574 . S
C3466 C3482 1.368 . S
H3467 C3475 0.950 . S
H3468 C3473 0.950 . S
H3469 C3474 0.949 . S
H3470 C3476 0.950 . S
H3471 C3477 0.950 . S
H3472 C3478 0.949 . S
C3473 H3468 0.950 . S
C3473 C3475 1.327 . S
C3473 C3479 1.429 . S
C3474 C3466 1.574 . S
C3474 H3469 0.949 . S
C3474 C3480 1.368 . S
C3475 C3459 1.349 . S
C3475 H3467 0.950 . S
C3475 C3473 1.327 . S
C3476 C3464 1.349 . S
C3476 H3470 0.950 . S
C3476 C3477 1.327 . S
C3477 H3471 0.950 . S
C3477 C3476 1.327 . S
C3477 C3481 1.429 . S
C3478 C3461 1.574 . S
C3478 H3472 0.949 . S
C3478 C3482 1.368 . S
C3479 C3460 1.429 . S
C3479 C3473 1.429 . S
C3479 C3480 1.523 . S
C3480 C3461 1.368 . S
C3480 C3474 1.368 . S
C3480 C3479 1.523 . S
C3481 C3465 1.429 . S
C3481 C3477 1.429 . S
C3481 C3482 1.523 . S
C3482 C3466 1.368 . S
C3482 C3478 1.368 . S
C3482 C3481 1.523 . S
H3483 C3458 0.950 . S
H3484 C3460 0.950 . S
H3485 C3461 0.949 . S
H3486 C3463 0.950 . S
H3487 C3465 0.950 . S
C1089 C9 1.553 . S
C1094 C145 1.553 . S
C1119 C995 1.553 . S
C1124 C43 1.553 . S
C1149 C77 1.553 . S
C1154 C485 1.553 . S
C1179 C791 1.553 . S
C1184 C111 1.553 . S
C1209 C179 1.553 . S
C1214 C859 1.553 . S
C1239 C213 1.553 . S
C1244 C349 1.553 . S
C1269 C247 1.553 . S
C1274 C655 1.553 . S
C1299 C417 1.553 . S
C1304 C281 1.553 . S
C1329 C723 1.553 . S
C1334 C315 1.553 . S
C1359 C383 1.553 . S
C1364 C1063 1.553 . S
C1389 C587 1.553 . S
C1394 C451 1.553 . S
C1419 C519 1.553 . S
C1424 C927 1.553 . S
C1449 C689 1.553 . S
C1454 C553 1.553 . S
C1479 C621 1.553 . S
C1484 C1029 1.553 . S
C1509 C757 1.553 . S
C1514 C893 1.553 . S
C1539 C825 1.553 . S
C1544 C961 1.553 . S
C1569 C5 0.469 . S
C1574 C107 0.469 . S
C1599 C73 0.469 . S
C1604 C39 0.469 . S
C1629 C243 0.469 . S
C1634 C141 0.469 . S
C1659 C175 0.469 . S
C1664 C209 0.469 . S
C1689 C379 0.469 . S
C1694 C277 0.469 . S
C1719 C345 0.469 . S
C1724 C311 0.469 . S
C1749 C413 0.469 . S
C1754 C515 0.469 . S
C1779 C481 0.469 . S
C1784 C447 0.469 . S
C1809 C549 0.469 . S
C1814 C651 0.469 . S
C1839 C617 0.469 . S
C1844 C583 0.469 . S
C1869 C787 0.469 . S
C1874 C685 0.469 . S
C1899 C753 0.469 . S
C1904 C719 0.469 . S
C1929 C821 0.469 . S
C1934 C923 0.469 . S
C1959 C889 0.469 . S
C1964 C855 0.469 . S
C1989 C957 0.469 . S
C1994 C1059 0.469 . S
C2019 C1025 0.469 . S
C2024 C991 0.469 . S
C2049 C36 1.489 . S
C2054 C2 1.489 . S
C2079 C104 1.489 . S
C2084 C70 1.489 . S
C2109 C138 1.489 . S
C2114 C172 1.489 . S
C2139 C206 1.489 . S
C2144 C240 1.489 . S
C2169 C308 1.489 . S
C2174 C274 1.489 . S
C2199 C342 1.489 . S
C2204 C376 1.489 . S
C2229 C444 1.489 . S
C2234 C410 1.489 . S
C2259 C478 1.489 . S
C2264 C512 1.489 . S
C2289 C580 1.489 . S
C2294 C546 1.489 . S
C2319 C648 1.489 . S
C2324 C614 1.489 . S
C2349 C716 1.489 . S
C2354 C682 1.489 . S
C2379 C784 1.489 . S
C2384 C750 1.489 . S
C2409 C818 1.489 . S
C2414 C852 1.489 . S
C2439 C920 1.489 . S
C2444 C886 1.489 . S
C2469 C954 1.489 . S
C2474 C988 1.489 . S
C2499 C1056 1.489 . S
C2504 C1022 1.489 . S
C2529 C20 0.779 . S
C2534 C870 0.779 . S
C2559 C836 0.779 . S
C2564 C54 0.779 . S
C2589 C88 0.779 . S
C2594 C938 0.779 . S
C2619 C122 0.779 . S
C2624 C904 0.779 . S
C2649 C1006 0.779 . S
C2654 C156 0.779 . S
C2679 C190 0.779 . S
C2684 C972 0.779 . S
C2709 C224 0.779 . S
C2714 C1074 0.779 . S
C2739 C1040 0.779 . S
C2744 C258 0.779 . S
C2769 C598 0.779 . S
C2774 C292 0.779 . S
C2799 C326 0.779 . S
C2804 C564 0.779 . S
C2829 C666 0.779 . S
C2834 C360 0.779 . S
C2859 C394 0.779 . S
C2864 C632 0.779 . S
C2889 C734 0.779 . S
C2894 C428 0.779 . S
C2919 C462 0.779 . S
C2924 C700 0.779 . S
C2949 C802 0.779 . S
C2954 C496 0.779 . S
C2979 C530 0.779 . S
C2984 C768 0.779 . S
C3009 C33 1.029 . S
C3014 C101 1.029 . S
C3039 C67 1.028 . S
C3044 C135 1.028 . S
C3069 C237 1.029 . S
C3074 C169 1.029 . S
C3099 C271 1.028 . S
C3104 C203 1.028 . S
C3129 C305 1.029 . S
C3134 C373 1.029 . S
C3159 C339 1.028 . S
C3164 C407 1.028 . S
C3189 C509 1.029 . S
C3194 C441 1.029 . S
C3219 C475 1.028 . S
C3224 C543 1.028 . S
C3249 C577 1.028 . S
C3254 C645 1.028 . S
C3279 C611 1.028 . S
C3284 C679 1.028 . S
C3309 C781 1.028 . S
C3314 C713 1.028 . S
C3339 C815 1.028 . S
C3344 C747 1.028 . S
C3369 C917 1.028 . S
C3374 C849 1.028 . S
C3399 C951 1.028 . S
C3404 C883 1.028 . S
C3429 C1053 1.028 . S
C3434 C985 1.028 . S
C3459 C1087 1.028 . S
C3464 C1019 1.028 . S
