# Generated by pormake.
# Topology wkh, (6)-cn, num edge types: 1
# Building blocks:
#     Node 0, Type 0, BuildingBlock: OJICUG_clean_sbu_0, # of connection points: 6
#     Node 1, Type 0, BuildingBlock: OJICUG_clean_sbu_0, # of connection points: 6
#     Node 2, Type 0, BuildingBlock: OJICUG_clean_sbu_0, # of connection points: 6
#     Node 3, Type 0, BuildingBlock: OJICUG_clean_sbu_0, # of connection points: 6
#     Node 4, Type 0, BuildingBlock: OJICUG_clean_sbu_0, # of connection points: 6
#     Node 5, Type 0, BuildingBlock: OJICUG_clean_sbu_0, # of connection points: 6
#     Node 6, Type 0, BuildingBlock: OJICUG_clean_sbu_0, # of connection points: 6
#     Node 7, Type 0, BuildingBlock: OJICUG_clean_sbu_0, # of connection points: 6
#     Node 8, Type 0, BuildingBlock: OJICUG_clean_sbu_0, # of connection points: 6
#     Node 9, Type 0, BuildingBlock: OJICUG_clean_sbu_0, # of connection points: 6
#     Node 10, Type 0, BuildingBlock: OJICUG_clean_sbu_0, # of connection points: 6
#     Node 11, Type 0, BuildingBlock: OJICUG_clean_sbu_0, # of connection points: 6
#     Edge 12, Type (0, 0), BuildingBlock: UVAHIK_clean_linker_0, # of connection points: 2
#     Edge 13, Type (0, 0), BuildingBlock: UVAHIK_clean_linker_0, # of connection points: 2
#     Edge 14, Type (0, 0), BuildingBlock: UVAHIK_clean_linker_0, # of connection points: 2
#     Edge 15, Type (0, 0), BuildingBlock: UVAHIK_clean_linker_0, # of connection points: 2
#     Edge 16, Type (0, 0), BuildingBlock: UVAHIK_clean_linker_0, # of connection points: 2
#     Edge 17, Type (0, 0), BuildingBlock: UVAHIK_clean_linker_0, # of connection points: 2
#     Edge 18, Type (0, 0), BuildingBlock: UVAHIK_clean_linker_0, # of connection points: 2
#     Edge 19, Type (0, 0), BuildingBlock: UVAHIK_clean_linker_0, # of connection points: 2
#     Edge 20, Type (0, 0), BuildingBlock: UVAHIK_clean_linker_0, # of connection points: 2
#     Edge 21, Type (0, 0), BuildingBlock: UVAHIK_clean_linker_0, # of connection points: 2
#     Edge 22, Type (0, 0), BuildingBlock: UVAHIK_clean_linker_0, # of connection points: 2
#     Edge 23, Type (0, 0), BuildingBlock: UVAHIK_clean_linker_0, # of connection points: 2
#     Edge 24, Type (0, 0), BuildingBlock: UVAHIK_clean_linker_0, # of connection points: 2
#     Edge 25, Type (0, 0), BuildingBlock: UVAHIK_clean_linker_0, # of connection points: 2
#     Edge 26, Type (0, 0), BuildingBlock: UVAHIK_clean_linker_0, # of connection points: 2
#     Edge 27, Type (0, 0), BuildingBlock: UVAHIK_clean_linker_0, # of connection points: 2
#     Edge 28, Type (0, 0), BuildingBlock: UVAHIK_clean_linker_0, # of connection points: 2
#     Edge 29, Type (0, 0), BuildingBlock: UVAHIK_clean_linker_0, # of connection points: 2
#     Edge 30, Type (0, 0), BuildingBlock: UVAHIK_clean_linker_0, # of connection points: 2
#     Edge 31, Type (0, 0), BuildingBlock: UVAHIK_clean_linker_0, # of connection points: 2
#     Edge 32, Type (0, 0), BuildingBlock: UVAHIK_clean_linker_0, # of connection points: 2
#     Edge 33, Type (0, 0), BuildingBlock: UVAHIK_clean_linker_0, # of connection points: 2
#     Edge 34, Type (0, 0), BuildingBlock: UVAHIK_clean_linker_0, # of connection points: 2
#     Edge 35, Type (0, 0), BuildingBlock: UVAHIK_clean_linker_0, # of connection points: 2
#     Edge 36, Type (0, 0), BuildingBlock: UVAHIK_clean_linker_0, # of connection points: 2
#     Edge 37, Type (0, 0), BuildingBlock: UVAHIK_clean_linker_0, # of connection points: 2
#     Edge 38, Type (0, 0), BuildingBlock: UVAHIK_clean_linker_0, # of connection points: 2
#     Edge 39, Type (0, 0), BuildingBlock: UVAHIK_clean_linker_0, # of connection points: 2
#     Edge 40, Type (0, 0), BuildingBlock: UVAHIK_clean_linker_0, # of connection points: 2
#     Edge 41, Type (0, 0), BuildingBlock: UVAHIK_clean_linker_0, # of connection points: 2
#     Edge 42, Type (0, 0), BuildingBlock: UVAHIK_clean_linker_0, # of connection points: 2
#     Edge 43, Type (0, 0), BuildingBlock: UVAHIK_clean_linker_0, # of connection points: 2
#     Edge 44, Type (0, 0), BuildingBlock: UVAHIK_clean_linker_0, # of connection points: 2
#     Edge 45, Type (0, 0), BuildingBlock: UVAHIK_clean_linker_0, # of connection points: 2
#     Edge 46, Type (0, 0), BuildingBlock: UVAHIK_clean_linker_0, # of connection points: 2
#     Edge 47, Type (0, 0), BuildingBlock: UVAHIK_clean_linker_0, # of connection points: 2
# Relax obj value: 0.288
# Max RMSD: 0.268
# Mean RMSD: 0.268
data_MOF--net-wkh--node1-OJICUG_clean_sbu_0--edge1-UVAHIK_clean_linker_0
_symmetry_space_group_name_H-M    P1
_symmetry_Int_Tables_number       1
_symmetry_cell_setting            triclinic
loop_
_symmetry_equiv_pos_as_xyz
'x, y, z'
_cell_length_a     33.995277
_cell_length_b     34.002261
_cell_length_c     107.95664
_cell_angle_alpha  90.028898
_cell_angle_beta   90.001051
_cell_angle_gamma 119.92188
loop_
_atom_site_label
_atom_site_type_symbol
_atom_site_fract_x
_atom_site_fract_y
_atom_site_fract_z
_atom_type_partial_charge
Sc0 Sc 0.26755 0.27577 0.00998 0.0
Sc1 Sc 0.18931 0.31264 0.00965 0.0
Sc2 Sc 0.26926 0.34666 0.03345 0.0
O3 O 0.24214 0.31191 0.01772 0.0
C4 C 0.26871 0.25268 0.03783 0.0
C5 C 0.16139 0.21492 1.00396 0.0
C6 C 0.16569 0.30839 0.0387 0.0
C7 C 0.24981 0.31423 0.98621 0.0
C8 C 0.35738 0.36206 0.02041 0.0
C9 C 0.24577 0.4132 0.01796 0.0
O10 O 0.25681 0.23779 0.02683 0.0
O11 O 0.14968 0.24039 0.00945 0.0
O12 O 0.20411 0.31486 0.04225 0.0
O13 O 0.27946 0.31187 0.99286 0.0
O14 O 0.3372 0.38009 0.02593 0.0
O15 O 0.22599 0.38493 0.00926 0.0
O16 O 0.33615 0.32281 0.01554 0.0
O17 O 0.21378 0.31127 0.99087 0.0
O18 O 0.26004 0.40328 0.02777 0.0
O19 O 0.20259 0.22501 1.00276 0.0
O20 O 0.27924 0.29298 0.04099 0.0
O21 O 0.15716 0.31208 0.02736 0.0
Sc22 Sc 0.91327 0.27201 0.19828 0.0
Sc23 Sc 0.86645 0.19232 0.17434 0.0
Sc24 Sc 0.98361 0.26284 0.17632 0.0
O25 O 0.92111 0.24255 0.18294 0.0
C26 C 0.99116 0.35681 0.18504 0.0
C27 C 0.82693 0.25389 0.1818 0.0
C28 C 0.93151 0.24874 0.15139 0.0
C29 C 0.84356 0.16902 0.20329 0.0
C30 C 0.00198 0.26541 0.20479 0.0
C31 C 0.93264 0.15535 0.1715 0.0
O32 O 0.95312 0.3394 0.19065 0.0
O33 O 0.83494 0.23291 0.17335 0.0
O34 O 0.96539 0.27394 0.1582 0.0
O35 O 0.87531 0.20721 0.20702 0.0
O36 O 0.00676 0.25327 0.19401 0.0
O37 O 0.89358 0.14802 0.17453 0.0
O38 O 0.97315 0.27791 0.20719 0.0
O39 O 0.8324 0.16074 0.19187 0.0
O40 O 0.96723 0.195 0.17098 0.0
O41 O 0.85027 0.26735 0.19174 0.0
O42 O 0.00718 0.33313 0.18051 0.0
O43 O 0.89476 0.21598 0.15576 0.0
Sc44 Sc 0.72066 0.98196 0.34056 0.0
Sc45 Sc 0.67543 0.86418 0.33833 0.0
Sc46 Sc 0.63196 0.90937 0.36058 0.0
O47 O 0.67562 0.91843 0.34644 0.0
C48 C 0.72323 -0.00233 0.36965 0.0
C49 C 0.78047 0.93369 0.33984 0.0
C50 C 0.66471 0.83864 0.36737 0.0
C51 C 0.68965 0.92784 0.31491 0.0
C52 C 0.63207 0.98986 0.34529 0.0
C53 C 0.56982 0.82517 0.34295 0.0
O54 O 0.74057 0.00788 0.35892 0.0
O55 O 0.74707 0.8941 0.33854 0.0
O56 O 0.64769 0.86341 0.37012 0.0
O57 O 0.70579 0.96357 0.32146 0.0
O58 O 0.61307 0.95612 0.35265 0.0
O59 O 0.60337 0.82688 0.33733 0.0
O60 O 0.67026 0.00245 0.3402 0.0
O61 O 0.67688 0.88867 0.31949 0.0
O62 O 0.57411 0.85247 0.35163 0.0
O63 O 0.77637 0.96874 0.34072 0.0
O64 O 0.6842 0.9635 0.37169 0.0
O65 O 0.67611 0.83505 0.35633 0.0
Sc66 Sc 0.72574 0.64424 0.5302 0.0
Sc67 Sc 0.81422 0.71163 0.50871 0.0
Sc68 Sc 0.70843 0.71999 0.51269 0.0
O69 O 0.75074 0.69293 0.51696 0.0
C70 C 0.63571 0.62122 0.51446 0.0
C71 C 0.76333 0.60197 0.51057 0.0
C72 C 0.7573 0.72441 0.48664 0.0
C73 C 0.83333 0.69293 0.53632 0.0
C74 C 0.69584 0.70959 0.54139 0.0
C75 C 0.79123 0.77854 0.51953 0.0
O76 O 0.65505 0.61606 0.52399 0.0
O77 O 0.79304 0.6409 0.5066 0.0
O78 O 0.73223 0.73206 0.49386 0.0
O79 O 0.79138 0.66615 0.53844 0.0
O80 O 0.67913 0.7108 0.53098 0.0
O81 O 0.77837 0.73652 0.51831 0.0
O82 O 0.71966 0.69061 0.54271 0.0
O83 O 0.84784 0.71429 0.52612 0.0
O84 O 0.75977 0.78729 0.51841 0.0
O85 O 0.73366 0.59625 0.51871 0.0
O86 O 0.6564 0.65451 0.50715 0.0
O87 O 0.78556 0.71258 0.4905 0.0
Sc88 Sc 0.00501 0.73384 0.67751 0.0
Sc89 Sc 0.12132 0.8069 0.67596 0.0
Sc90 Sc 0.07555 0.72343 0.69893 0.0
O91 O 0.06737 0.75464 0.6841 0.0
C92 C 0.98449 0.72543 0.70571 0.0
C93 C 0.05374 0.84161 0.67354 0.0
C94 C 0.14241 0.82579 0.7052 0.0
C95 C 0.05747 0.75202 0.65262 0.0
C96 C 7e-05 0.64004 0.68495 0.0
C97 C 0.16356 0.74729 0.68243 0.0
O98 O 0.98156 0.74144 0.69533 0.0
O99 O 0.09261 0.84972 0.67704 0.0
O100 O 0.11067 0.78688 0.70849 0.0
O101 O 0.02443 0.7248 0.65937 0.0
O102 O 0.03864 0.65751 0.69028 0.0
O103 O 0.15401 0.76764 0.67415 0.0
O104 O 0.98264 0.66348 0.68121 0.0
O105 O 0.09336 0.78568 0.65712 0.0
O106 O 0.14054 0.73252 0.6924 0.0
O107 O 0.02012 0.80155 0.67252 0.0
O108 O 0.01321 0.71241 0.70773 0.0
O109 O 0.15443 0.83583 0.69387 0.0
Sc110 Sc 0.33733 0.07608 0.86585 0.0
Sc111 Sc 0.29945 0.1197 0.84251 0.0
Sc112 Sc 0.26318 0.00475 0.84328 0.0
O113 O 0.29999 0.0668 0.85055 0.0
C114 C 0.3542 0.00578 0.85199 0.0
C115 C 0.39989 0.16616 0.84993 0.0
C116 C 0.29733 0.05979 0.81894 0.0
C117 C 0.29795 0.13936 0.87172 0.0
C118 C 0.24685 0.98101 0.87128 0.0
C119 C 0.19886 0.04807 0.83944 0.0
O120 O 0.37175 0.04404 0.85748 0.0
O121 O 0.37151 0.15459 0.84113 0.0
O122 O 0.29438 0.02752 0.82554 0.0
O123 O 0.30396 0.10694 0.87509 0.0
O124 O 0.2297 0.97791 0.86061 0.0
O125 O 0.22746 0.08725 0.84336 0.0
O126 O 0.2874 0.01145 0.87394 0.0
O127 O 0.30177 0.15216 0.86042 0.0
O128 O 0.20841 0.01658 0.83788 0.0
O129 O 0.39101 0.14335 0.85996 0.0
O130 O 0.31396 0.98615 0.84764 0.0
O131 O 0.29523 0.09329 0.82361 0.0
Sc132 Sc 0.71085 0.70649 0.83258 0.0
Sc133 Sc 0.71147 0.81622 0.83769 0.0
Sc134 Sc 0.63101 0.72722 0.81845 0.0
O135 O 0.68583 0.75134 0.8297 0.0
C136 C 0.68529 0.68897 0.80465 0.0
C137 C 0.76978 0.78644 0.8237 0.0
C138 C 0.68424 0.83355 0.81091 0.0
C139 C 0.73145 0.76087 0.85847 0.0
C140 C 0.6099 0.63991 0.83515 0.0
C141 C 0.60311 0.77354 0.83963 0.0
O142 O 0.68973 0.67283 0.81481 0.0
O143 O 0.73019 0.77733 0.82703 0.0
O144 O 0.65449 0.79194 0.80943 0.0
O145 O 0.7351 0.7345 0.85074 0.0
O146 O 0.60132 0.65787 0.82587 0.0
O147 O 0.64413 0.80171 0.84246 0.0
O148 O 0.64775 0.65943 0.84074 0.0
O149 O 0.71811 0.78874 0.85543 0.0
O150 O 0.59205 0.74224 0.83157 0.0
O151 O 0.77539 0.75278 0.82409 0.0
O152 O 0.66765 0.71418 0.80426 0.0
O153 O 0.70875 0.84821 0.82059 0.0
Sc154 Sc -0.00218 0.72354 1.00046 0.0
Sc155 Sc 0.88706 0.69857 0.0064 0.0
Sc156 Sc 0.90758 0.62598 0.98731 0.0
O157 O 0.93055 0.68194 0.9982 0.0
C158 C 0.99547 0.69515 0.97224 0.0
C159 C 0.96369 0.79287 0.99624 0.0
C160 C 0.8468 0.66937 0.97898 0.0
C161 C 0.95967 0.72497 0.02762 0.0
C162 C 0.98865 0.62697 1.00304 0.0
C163 C 0.83212 0.59025 0.00836 0.0
O164 O 0.01564 0.71754 0.98184 0.0
O165 O 0.92793 0.76965 1.00255 0.0
O166 O 0.8612 0.64143 0.97771 0.0
O167 O 0.99086 0.73628 0.01961 0.0
O168 O 0.95443 0.6075 0.99577 0.0
O169 O 0.83992 0.62981 0.01105 0.0
O170 O 0.00646 0.6683 0.00634 0.0
O171 O 0.91792 0.70647 0.02461 0.0
O172 O 0.85498 0.58265 1.00033 0.0
O173 O 0.9922 0.78004 0.99402 0.0
O174 O 0.95496 0.66223 0.97249 0.0
O175 O 0.85389 0.69318 0.98875 0.0
Sc176 Sc 0.26277 0.98778 0.16876 0.0
Sc177 Sc 0.18816 0.87267 0.17455 0.0
Sc178 Sc 0.27953 0.90563 0.15354 0.0
O179 O 0.2439 0.92193 0.1657 0.0
C180 C 0.28309 0.99089 0.13987 0.0
C181 C 0.15579 0.94238 0.1675 0.0
C182 C 0.17584 0.83649 0.14649 0.0
C183 C 0.23519 0.94546 0.19611 0.0
C184 C 0.35766 0.99003 0.1684 0.0
C185 C 0.25129 0.82804 0.17395 0.0
O186 O 0.2757 0.00667 0.14967 0.0
O187 O 0.14884 0.90485 0.1718 0.0
O188 O 0.21824 0.85762 0.1442 0.0
O189 O 0.25288 0.97786 0.18837 0.0
O190 O 0.34418 0.95448 0.16175 0.0
O191 O 0.21918 0.83285 0.17817 0.0
O192 O 0.33195 0.0053 0.17176 0.0
O193 O 0.21145 0.90407 0.19276 0.0
O194 O 0.27691 0.85204 0.16514 0.0
O195 O 0.19528 0.97574 0.16558 0.0
O196 O 0.28526 0.95464 0.13975 0.0
O197 O 0.1596 0.83807 0.15703 0.0
Sc198 Sc 0.27824 0.26051 0.33657 0.0
Sc199 Sc 0.32849 0.19303 0.34051 0.0
Sc200 Sc 0.36884 0.27763 0.31722 0.0
O201 O 0.32546 0.24389 0.33147 0.0
C202 C 0.27499 0.26787 0.30741 0.0
C203 C 0.22276 0.15298 0.33993 0.0
C204 C 0.33951 0.17437 0.31174 0.0
C205 C 0.31203 0.24605 0.3628 0.0
C206 C 0.36492 0.35798 0.33096 0.0
C207 C 0.43313 0.26039 0.33543 0.0
O208 O 0.25546 0.25801 0.3179 0.0
O209 O 0.2573 0.14825 0.3402 0.0
O210 O 0.3532 0.21497 0.30832 0.0
O211 O 0.29651 0.26477 0.35566 0.0
O212 O 0.38735 0.34381 0.32477 0.0
O213 O 0.40054 0.23098 0.34187 0.0
O214 O 0.32535 0.33179 0.33515 0.0
O215 O 0.32422 0.21819 0.35893 0.0
O216 O 0.42737 0.27976 0.32607 0.0
O217 O 0.22502 0.19126 0.33888 0.0
O218 O 0.31616 0.27801 0.30597 0.0
O219 O 0.33069 0.16162 0.32303 0.0
Sc220 Sc 0.00486 0.26979 0.50082 0.0
Sc221 Sc 0.12102 0.31121 0.50567 0.0
Sc222 Sc 0.08461 0.35994 0.48245 0.0
O223 O 0.0703 0.31397 0.49635 0.0
C224 C -0.00289 0.2716 0.47158 0.0
C225 C 0.04956 0.20683 0.50287 0.0
C226 C 0.15497 0.32544 0.47726 0.0
C227 C 0.0511 0.29631 0.52757 0.0
C228 C 0.00232 0.36161 0.49616 0.0
C229 C 0.16506 0.41755 0.50168 0.0
O230 O 0.98442 0.25253 0.48205 0.0
O231 O 0.08931 0.23931 0.50476 0.0
O232 O 0.131 0.3427 0.47389 0.0
O233 O 0.01777 0.28227 0.52017 0.0
O234 O 0.03854 0.38106 0.48971 0.0
O235 O 0.15972 0.38301 0.50758 0.0
O236 O 0.98652 0.32187 0.50057 0.0
O237 O 0.09124 0.30799 0.52395 0.0
O238 O 0.14102 0.41507 0.49233 0.0
O239 O 0.01563 0.21246 0.50131 0.0
O240 O 0.03194 0.31076 0.47025 0.0
O241 O 0.15545 0.31275 0.48837 0.0
Sc242 Sc 0.71282 0.09166 0.6504 0.0
Sc243 Sc 0.80473 0.12608 0.67134 0.0
Sc244 Sc 0.72853 0.0106 0.66658 0.0
O245 O 0.74832 0.07623 0.66283 0.0
C246 C 0.63472 0.00992 0.66623 0.0
C247 C 0.74134 0.1702 0.67065 0.0
C248 C 0.76068 0.05569 0.69346 0.0
C249 C 0.81608 0.16112 0.64316 0.0
C250 C 0.70519 0.00309 0.63781 0.0
C251 C 0.8353 0.05508 0.66417 0.0
O252 O 0.64824 0.04377 0.6589 0.0
O253 O 0.7732 0.16535 0.67508 0.0
O254 O 0.7412 0.02265 0.68599 0.0
O255 O 0.77381 0.13904 0.64071 0.0
O256 O 0.71174 0.98821 0.64788 0.0
O257 O 0.84316 0.09327 0.66822 0.0
O258 O 0.70614 0.04086 0.63701 0.0
O259 O 0.83209 0.16021 0.65377 0.0
O260 O 0.79545 0.02149 0.66282 0.0
O261 O 0.71631 0.14641 0.6617 0.0
O262 O 0.66029 0.99519 0.67014 0.0
O263 O 0.7844 0.0966 0.6898 0.0
C264 C 0.77287 0.5586 0.02471 0.0
C265 C 0.78989 0.55236 0.01346 0.0
C266 C 0.72713 0.53137 0.02771 0.0
C267 C 0.61818 0.43052 0.01877 0.0
H268 H 0.56923 0.50968 0.02586 0.0
C269 C 0.42958 0.37202 0.01156 0.0
C270 C 0.40757 0.38561 0.02014 0.0
C271 C 0.4765 0.39031 0.01196 0.0
C272 C 0.5822 0.48687 0.02411 0.0
H273 H 0.77363 0.50962 0.99721 0.0
H274 H 0.69349 0.4618 1.00246 0.0
H275 H 0.65092 0.5407 0.02542 0.0
H276 H 0.41777 0.4298 0.03576 0.0
H277 H 0.49998 0.46153 0.03658 0.0
H278 H 0.54934 0.37672 0.01734 0.0
C279 C 0.71553 0.48781 0.00896 0.0
C280 C 0.62912 0.50465 0.02387 0.0
C281 C 0.76151 0.51506 0.00596 0.0
C282 C 0.43378 0.4189 0.02895 0.0
C283 C 0.48088 0.43701 0.02942 0.0
C284 C 0.57116 0.41261 0.0191 0.0
C285 C 0.69748 0.49741 0.01951 0.0
C286 C 0.64766 0.47683 0.02104 0.0
C287 C 0.50271 0.42244 0.02102 0.0
C288 C 0.5526 0.44076 0.02156 0.0
H289 H 0.79414 0.58683 0.03073 0.0
H290 H 0.71439 0.5388 0.03606 0.0
H291 H 0.63149 0.40823 0.01665 0.0
H292 H 0.41045 0.34676 1.00456 0.0
H293 H 0.49221 0.37922 1.00512 0.0
C294 C 0.25459 0.75807 0.16915 0.0
C295 C 0.25142 0.78665 0.17801 0.0
C296 C 0.23583 0.71166 0.17161 0.0
C297 C 0.13788 0.6284 0.18848 0.0
H298 H 0.17394 0.54211 0.17793 0.0
C299 C 0.01812 0.43485 0.19354 0.0
C300 C 0.02012 0.40671 0.18434 0.0
C301 C 0.04977 0.48134 0.19367 0.0
C302 C 0.16311 0.56574 0.18079 0.0
H303 H 0.23248 0.7908 0.19692 0.0
H304 H 0.20061 0.71023 0.20126 0.0
H305 H 0.22884 0.62333 0.17718 0.0
H306 H 0.05537 0.40547 0.16773 0.0
H307 H 0.109 0.4865 0.16762 0.0
H308 H 0.07178 0.57165 0.19154 0.0
C309 C 0.21637 0.72322 0.19234 0.0
C310 C 0.19476 0.61222 0.18045 0.0
C311 C 0.23502 0.76941 0.18989 0.0
C312 C 0.0532 0.42625 0.17501 0.0
C313 C 0.08434 0.4727 0.17504 0.0
C314 C 0.10614 0.58212 0.18866 0.0
C315 C 0.21391 0.69349 0.18296 0.0
C316 C 0.18238 0.644 0.18427 0.0
C317 C 0.08368 0.5008 0.1845 0.0
C318 C 0.11814 0.55011 0.18473 0.0
H319 H 0.26673 0.77035 0.15988 0.0
H320 H 0.23456 0.6895 0.16422 0.0
H321 H 0.12701 0.65216 0.19122 0.0
H322 H 0.99334 0.42066 0.20093 0.0
H323 H 0.04839 0.50171 0.20119 0.0
C324 C 0.50105 0.25959 0.32719 0.0
C325 C 0.47719 0.2627 0.33744 0.0
C326 C 0.52882 0.24027 0.32856 0.0
C327 C 0.51949 0.14815 0.34661 0.0
H328 H 0.63354 0.1716 0.33223 0.0
C329 C 0.58541 0.02291 0.353 0.0
C330 C 0.61183 0.01921 0.34358 0.0
C331 C 0.57238 0.05586 0.35233 0.0
C332 C 0.60124 0.16419 0.33614 0.0
H333 H 0.46943 0.2553 0.35736 0.0
H334 H 0.51822 0.22225 0.35974 0.0
H335 H 0.61174 0.23015 0.33135 0.0
H336 H 0.6434 0.04559 0.32576 0.0
H337 H 0.61864 0.10143 0.32424 0.0
H338 H 0.50725 0.08176 0.35084 0.0
C339 C 0.5147 0.23361 0.35065 0.0
C340 C 0.58913 0.19799 0.33574 0.0
C341 C 0.48712 0.25291 0.34929 0.0
C342 C 0.62319 0.04778 0.3332 0.0
C343 C 0.60946 0.08021 0.33241 0.0
C344 C 0.53109 0.11421 0.34681 0.0
C345 C 0.53308 0.22417 0.34019 0.0
C346 C 0.54828 0.19032 0.34107 0.0
C347 C 0.58469 0.08539 0.34209 0.0
C348 C 0.57221 0.12169 0.34163 0.0
H349 H 0.49389 0.26663 0.31793 0.0
H350 H 0.54285 0.23354 0.32036 0.0
H351 H 0.48716 0.14089 0.3505 0.0
H352 H 0.5767 0.00188 0.36121 0.0
H353 H 0.55397 0.05909 0.36007 0.0
C354 C 0.23692 0.48378 0.49445 0.0
C355 C 0.20776 0.45989 0.5043 0.0
C356 C 0.2838 0.50968 0.49643 0.0
C357 C 0.36439 0.50204 0.51714 0.0
H358 H 0.45492 0.60667 0.49912 0.0
C359 C 0.55798 0.5752 0.52357 0.0
C360 C 0.58579 0.59415 0.51312 0.0
C361 C 0.51138 0.55967 0.52287 0.0
C362 C 0.42999 0.57704 0.50411 0.0
H363 H 0.20358 0.44976 0.52417 0.0
H364 H 0.28501 0.49624 0.5277 0.0
H365 H 0.37522 0.58619 0.49783 0.0
H366 H 0.58597 0.60816 0.49351 0.0
H367 H 0.5047 0.57974 0.4922 0.0
H368 H 0.41871 0.49205 0.52318 0.0
C369 C 0.27208 0.4937 0.51839 0.0
C370 C 0.38439 0.56558 0.50344 0.0
C371 C 0.2254 0.46764 0.51639 0.0
C372 C 0.56551 0.59409 0.50176 0.0
C373 C 0.519 0.57834 0.50104 0.0
C374 C 0.40988 0.51336 0.51777 0.0
C375 C 0.30197 0.51231 0.50832 0.0
C376 C 0.35102 0.52778 0.5099 0.0
C377 C 0.49164 0.56249 0.51168 0.0
C378 C 0.44322 0.55074 0.51117 0.0
H379 H 0.22434 0.47809 0.48502 0.0
H380 H 0.30589 0.52379 0.48847 0.0
H381 H 0.33945 0.47203 0.522 0.0
H382 H 0.5726 0.57516 0.53248 0.0
H383 H 0.49134 0.54772 0.53125 0.0
C384 C 0.75561 0.22765 0.68678 0.0
C385 C 0.74073 0.21129 0.67473 0.0
C386 C 0.77411 0.27367 0.68944 0.0
C387 C 0.79775 0.38562 0.678 0.0
H388 H 0.9197 0.42445 0.6897 0.0
C389 C 0.93986 0.57173 0.67413 0.0
C390 C 0.97204 0.59028 0.6837 0.0
C391 C 0.90892 0.52527 0.67371 0.0
C392 C 0.88563 0.41445 0.68666 0.0
H393 H 0.7278 0.22889 0.6565 0.0
H394 H 0.75967 0.30949 0.6612 0.0
H395 H 0.86407 0.34411 0.68883 0.0
H396 H -0.00238 0.57471 0.70025 0.0
H397 H 0.94282 0.49357 0.69976 0.0
H398 H 0.81917 0.456 0.67588 0.0
C399 C 0.75735 0.28677 0.66855 0.0
C400 C 0.85367 0.36828 0.68616 0.0
C401 C 0.73876 0.24052 0.66588 0.0
C402 C 0.97354 0.56123 0.69268 0.0
C403 C 0.94202 0.51471 0.69239 0.0
C404 C 0.82959 0.43197 0.67866 0.0
C405 C 0.77788 0.30407 0.6801 0.0
C406 C 0.80955 0.35335 0.68172 0.0
C407 C 0.90884 0.49622 0.68299 0.0
C408 C 0.8742 0.44699 0.68284 0.0
H409 H 0.75719 0.20572 0.69381 0.0
H410 H 0.78883 0.28603 0.6985 0.0
H411 H 0.76397 0.37498 0.67455 0.0
H412 H 0.93817 0.59332 0.66702 0.0
H413 H 0.88489 0.51225 0.66613 0.0
C414 C 0.57852 0.81338 0.8545 0.0
C415 C 0.56796 0.78301 0.84455 0.0
C416 C 0.55134 0.83238 0.85713 0.0
C417 C 0.44206 0.82741 0.85045 0.0
H418 H 0.51495 0.95856 0.85262 0.0
C419 C 0.36442 0.94268 0.84367 0.0
C420 C 0.37998 0.98125 0.85127 0.0
C421 C 0.38623 0.9171 0.84368 0.0
C422 C 0.49399 0.92197 0.85223 0.0
H423 H 0.51807 0.74554 0.8303 0.0
H424 H 0.4705 0.77871 0.83492 0.0
H425 H 0.55196 0.91313 0.85221 0.0
H426 H 0.43117 0.02343 0.86473 0.0
H427 H 0.46892 0.97844 0.86486 0.0
H428 H 0.38404 0.83633 0.85041 0.0
C429 C 0.49995 0.78789 0.84067 0.0
C430 C 0.51523 0.89587 0.85201 0.0
C431 C 0.52719 0.76878 0.83804 0.0
C432 C 0.41848 0.99413 0.8587 0.0
C433 C 0.44015 0.96832 0.85876 0.0
C434 C 0.42074 0.85354 0.85075 0.0
C435 C 0.51293 0.82143 0.84987 0.0
C436 C 0.48956 0.84833 0.85102 0.0
C437 C 0.42401 0.92921 0.85134 0.0
C438 C 0.44649 0.90121 0.85152 0.0
H439 H 0.60933 0.82461 0.85983 0.0
H440 H 0.56158 0.85729 0.86448 0.0
H441 H 0.42139 0.79084 0.84977 0.0
H442 H 0.33507 0.93192 0.83776 0.0
H443 H 0.37348 0.88785 0.83763 0.0
C444 C 0.55704 0.5602 0.82851 0.0
C445 C 0.57967 0.59149 0.83807 0.0
C446 C 0.53914 0.51375 0.83058 0.0
C447 C 0.50394 0.42478 0.85419 0.0
H448 H 0.54778 0.36902 0.83072 0.0
C449 C 0.45601 0.23877 0.86019 0.0
C450 C 0.43911 0.21282 0.84934 0.0
C451 C 0.48118 0.2862 0.85953 0.0
C452 C 0.53496 0.38388 0.83732 0.0
H453 H 0.5979 0.59868 0.85752 0.0
H454 H 0.56533 0.51745 0.86121 0.0
H455 H 0.56752 0.44792 0.82796 0.0
H456 H 0.44002 0.21575 0.82927 0.0
H457 H 0.48306 0.29769 0.8281 0.0
H458 H 0.46998 0.36053 0.86333 0.0
C459 C 0.56205 0.52882 0.8521 0.0
C460 C 0.54615 0.42904 0.8357 0.0
C461 C 0.58058 0.57525 0.84998 0.0
C462 C 0.45225 0.23483 0.83782 0.0
C463 C 0.47715 0.28205 0.83715 0.0
C464 C 0.49217 0.37937 0.85572 0.0
C465 C 0.54289 0.49784 0.84229 0.0
C466 C 0.53035 0.44977 0.84404 0.0
C467 C 0.4899 0.30843 0.84801 0.0
C468 C 0.50712 0.35815 0.84723 0.0
H469 H 0.55619 0.57175 0.81921 0.0
H470 H 0.52394 0.49039 0.82291 0.0
H471 H 0.49142 0.44004 0.86076 0.0
H472 H 0.44653 0.22285 0.86922 0.0
H473 H 0.4916 0.30546 0.86807 0.0
C474 C 0.01778 0.57425 0.99831 0.0
C475 C 0.0128 0.60291 0.00675 0.0
C476 C 0.04871 0.55943 1.00071 0.0
C477 C 0.11029 0.53652 0.02415 0.0
H478 H 0.20372 0.57079 0.99914 0.0
C479 C 0.23848 0.47499 0.02843 0.0
C480 C 0.24291 0.45517 0.01748 0.0
C481 C 0.22027 0.50394 0.02806 0.0
C482 C 0.1778 0.56066 0.0062 0.0
H483 H 0.03373 0.63605 0.02464 0.0
H484 H 0.08642 0.60839 0.02904 0.0
H485 H 0.14585 0.59261 0.99667 0.0
H486 H 0.23743 0.45475 0.99747 0.0
H487 H 0.20519 0.5039 0.9968 0.0
H488 H 0.14011 0.50218 0.03335 0.0
C489 C 0.06707 0.59826 0.0205 0.0
C490 C 0.14472 0.57321 1.00476 0.0
C491 C 0.03694 0.61392 0.01799 0.0
C492 C 0.23393 0.46907 0.00609 0.0
C493 C 0.21553 0.49761 0.00571 0.0
C494 C 0.14283 0.52311 0.02548 0.0
C495 C 0.07429 0.5722 0.0117 0.0
C496 C 0.11027 0.56053 0.01361 0.0
C497 C 0.20614 0.51346 0.01673 0.0
C498 C 0.1765 0.5342 0.01638 0.0
H499 H -2e-05 0.56565 0.98953 0.0
H500 H 0.05355 0.53898 0.99385 0.0
H501 H 0.08405 0.52657 0.03111 0.0
H502 H 0.24526 0.46511 0.03736 0.0
H503 H 0.21478 0.51664 0.0367 0.0
C504 C 0.43963 0.02325 0.16297 0.0
C505 C 0.40623 0.01789 0.17153 0.0
C506 C 0.48507 0.05601 0.16495 0.0
C507 C 0.56958 0.12196 0.18805 0.0
H508 H 0.62793 0.211 0.16197 0.0
C509 C 0.75871 0.25025 0.19178 0.0
C510 C 0.78288 0.2527 0.18097 0.0
C511 C 0.71167 0.23255 0.19129 0.0
C512 C 0.61236 0.18633 0.16933 0.0
H513 H 0.39426 0.04055 0.18919 0.0
H514 H 0.47411 0.09652 0.19288 0.0
H515 H 0.54847 0.15234 0.15983 0.0
H516 H 0.7779 0.2447 0.161 0.0
H517 H 0.69672 0.21327 0.16016 0.0
H518 H 0.63369 0.15367 0.19725 0.0
C519 C 0.46493 0.07602 0.18455 0.0
C520 C 0.56685 0.15279 0.16808 0.0
C521 C 0.41939 0.04402 0.18244 0.0
C522 C 0.76015 0.24267 0.16953 0.0
C523 C 0.7133 0.2247 0.16905 0.0
C524 C 0.61538 0.15493 0.1892 0.0
C525 C 0.49791 0.08315 0.17566 0.0
C526 C 0.54537 0.11988 0.17732 0.0
C527 C 0.68804 0.2169 0.18001 0.0
C528 C 0.6377 0.18704 0.17973 0.0
H529 H 0.43036 0.00388 0.15443 0.0
H530 H 0.51013 0.0607 0.15803 0.0
H531 H 0.55359 0.09692 0.19531 0.0
H532 H 0.77523 0.25797 0.20074 0.0
H533 H 0.69353 0.22847 0.19987 0.0
C534 C 0.41132 0.43892 0.324 0.0
C535 C 0.38365 0.40714 0.33295 0.0
C536 C 0.42314 0.48455 0.32516 0.0
C537 C 0.43666 0.57108 0.34755 0.0
H538 H 0.41895 0.63092 0.3193 0.0
C539 C 0.49765 0.75972 0.35066 0.0
C540 C 0.5257 0.78392 0.34066 0.0
C541 C 0.46726 0.71305 0.34956 0.0
C542 C 0.42424 0.61483 0.32727 0.0
H543 H 0.34847 0.39843 0.35039 0.0
H544 H 0.37022 0.47816 0.35255 0.0
H545 H 0.39807 0.55116 0.3178 0.0
H546 H 0.53926 0.78016 0.32122 0.0
H547 H 0.48725 0.69956 0.31931 0.0
H548 H 0.46499 0.63479 0.35687 0.0
C549 C 0.38219 0.46777 0.34458 0.0
C550 C 0.41239 0.56919 0.32638 0.0
C551 C 0.36977 0.42218 0.34333 0.0
C552 C 0.51829 0.7622 0.32912 0.0
C553 C 0.48825 0.71573 0.32804 0.0
C554 C 0.44914 0.61685 0.34839 0.0
C555 C 0.40819 0.49923 0.33539 0.0
C556 C 0.41919 0.54712 0.33645 0.0
C557 C 0.46461 0.69 0.33846 0.0
C558 C 0.4439 0.63965 0.33819 0.0
H559 H 0.42219 0.42821 0.31587 0.0
H560 H 0.44371 0.50833 0.31802 0.0
H561 H 0.44233 0.55487 0.35545 0.0
H562 H 0.50255 0.77557 0.35967 0.0
H563 H 0.44844 0.69452 0.35768 0.0
C564 C 0.98149 0.42051 0.49032 0.0
C565 C 0.97532 0.38452 0.49802 0.0
C566 C 0.95265 0.43871 0.4913 0.0
C567 C 0.87382 0.44995 0.51241 0.0
H568 H 0.826 0.4722 0.48226 0.0
C569 C 0.75645 0.52615 0.51479 0.0
C570 C 0.76919 0.56325 0.50682 0.0
C571 C 0.77333 0.49648 0.51293 0.0
C572 C 0.83916 0.46638 0.49078 0.0
H573 H 0.93495 0.34064 0.51309 0.0
H574 H 0.88521 0.37278 0.51485 0.0
H575 H 0.87568 0.43969 0.48104 0.0
H576 H 0.80576 0.59549 0.48995 0.0
H577 H 0.83524 0.54448 0.48678 0.0
H578 H 0.83874 0.47797 0.52216 0.0
C579 C 0.91215 0.38673 0.50803 0.0
C580 C 0.86774 0.44786 0.49006 0.0
C581 C 0.94063 0.36824 0.50698 0.0
C582 C 0.79555 0.56746 0.49633 0.0
C583 C 0.81236 0.53794 0.49448 0.0
C584 C 0.84554 0.46881 0.51313 0.0
C585 C 0.91738 0.42168 0.50007 0.0
C586 C 0.88585 0.43999 0.50086 0.0
C587 C 0.8031 0.50325 0.50304 0.0
C588 C 0.82833 0.47788 0.50231 0.0
H589 H 0.00774 0.43377 0.4833 0.0
H590 H 0.95791 0.4661 0.48515 0.0
H591 H 0.88747 0.44454 0.52089 0.0
H592 H 0.73622 0.52192 0.52296 0.0
H593 H 0.76468 0.46946 0.51955 0.0
C594 C 0.57293 0.95849 0.68067 0.0
C595 C 0.58614 0.98315 0.66952 0.0
C596 C 0.52726 0.92746 0.683 0.0
C597 C 0.42368 0.85058 0.66695 0.0
H598 H 0.35985 0.85242 0.69649 0.0
C599 C 0.23024 0.76071 0.66975 0.0
C600 C 0.20849 0.7505 0.68133 0.0
C601 C 0.27715 0.77952 0.66895 0.0
C602 C 0.37731 0.85046 0.68833 0.0
H603 H 0.56186 0.99554 0.65222 0.0
H604 H 0.4819 0.94051 0.65621 0.0
H605 H 0.44004 0.90826 0.69403 0.0
H606 H 0.21822 0.74652 0.70104 0.0
H607 H 0.30015 0.77761 0.69961 0.0
H608 H 0.36164 0.79256 0.66126 0.0
C609 C 0.50703 0.94555 0.66315 0.0
C610 C 0.42317 0.88288 0.68688 0.0
C611 C 0.55263 0.97733 0.66093 0.0
C612 C 0.23395 0.75421 0.69197 0.0
C613 C 0.28108 0.77281 0.69116 0.0
C614 C 0.3781 0.81763 0.66849 0.0
C615 C 0.49411 0.91981 0.67411 0.0
C616 C 0.44638 0.88392 0.67603 0.0
C617 C 0.30355 0.78809 0.67971 0.0
C618 C 0.35386 0.81785 0.67904 0.0
H619 H 0.59809 0.96232 0.68746 0.0
H620 H 0.51809 0.90805 0.69152 0.0
H621 H 0.44121 0.85016 0.65861 0.0
H622 H 0.21152 0.75785 0.66135 0.0
H623 H 0.29283 0.79073 0.65994 0.0
C624 C 0.21551 0.29567 0.96484 0.0
C625 C 0.25404 0.31241 0.97251 0.0
C626 C 0.2176 0.28478 0.95241 0.0
C627 C 0.22401 0.22974 0.931 0.0
H628 H 0.33005 0.29443 0.91005 0.0
C629 C 0.26913 0.14099 0.89293 0.0
C630 C 0.28708 0.16311 0.88159 0.0
C631 C 0.26134 0.16326 0.90268 0.0
C632 C 0.29989 0.27622 0.9157 0.0
H633 H 0.32575 0.33373 0.97279 0.0
H634 H 0.32939 0.31503 0.95122 0.0
H635 H 0.32439 0.32927 0.92931 0.0
H636 H 0.31029 0.22615 0.8716 0.0
H637 H 0.29704 0.26552 0.8888 0.0
H638 H 0.19995 0.17633 0.91757 0.0
C639 C 0.2975 0.31027 0.95476 0.0
C640 C 0.29683 0.29601 0.9268 0.0
C641 C 0.29536 0.32085 0.96719 0.0
C642 C 0.29629 0.20807 0.88019 0.0
C643 C 0.28898 0.23069 0.89006 0.0
C644 C 0.2272 0.20991 0.91996 0.0
C645 C 0.25833 0.29068 0.94731 0.0
C646 C 0.25926 0.27262 0.93474 0.0
C647 C 0.27157 0.20853 0.90146 0.0
C648 C 0.26564 0.2324 0.9123 0.0
H649 H 0.18306 0.28849 0.9686 0.0
H650 H 0.1869 0.27036 0.9469 0.0
H651 H 0.19476 0.21045 0.93689 0.0
H652 H 0.26143 0.10633 0.89436 0.0
H653 H 0.24849 0.14527 0.91134 0.0
C654 C 0.97275 0.29599 0.13291 0.0
C655 C 0.93837 0.25459 0.13776 0.0
C656 C 0.98629 0.29937 0.12054 0.0
C657 C 0.00147 0.30169 0.09259 0.0
H658 H 0.02532 0.20555 0.08312 0.0
C659 C 0.09409 0.30521 0.04665 0.0
C660 C 0.13024 0.29672 0.04835 0.0
C661 C 0.06296 0.29682 0.05626 0.0
C662 C 0.01864 0.23256 0.08558 0.0
H663 H 0.88953 0.18488 0.13313 0.0
H664 H 0.9133 0.19076 0.11147 0.0
H665 H 0.98324 0.19831 0.10209 0.0
H666 H 0.16087 0.27122 0.06136 0.0
H667 H 0.1067 0.25621 0.07789 0.0
H668 H 0.03847 0.33663 0.07627 0.0
C669 C 0.92989 0.22059 0.11732 0.0
C670 C 0.99409 0.22822 0.0964 0.0
C671 C 0.91593 0.21734 0.12969 0.0
C672 C 0.13364 0.2784 0.05972 0.0
C673 C 0.10231 0.26943 0.0692 0.0
C674 C 0.0257 0.30585 0.08169 0.0
C675 C 0.96615 0.26132 0.11269 0.0
C676 C 0.98617 0.26322 0.10023 0.0
C677 C 0.06685 0.27894 0.06767 0.0
C678 C 0.03565 0.27186 0.07823 0.0
H679 H 0.99073 0.32539 0.13886 0.0
H680 H 0.01449 0.33118 0.11735 0.0
H681 H 0.99566 0.32913 0.09521 0.0
H682 H 0.09056 0.31944 0.03803 0.0
H683 H 0.0359 0.30436 0.05479 0.0
C684 C 0.84241 0.13588 0.22404 0.0
C685 C 0.82028 0.13282 0.21277 0.0
C686 C 0.82151 0.10285 0.2332 0.0
C687 C 0.7113 0.02052 0.24566 0.0
H688 H 0.78209 0.97994 0.26429 0.0
C689 C 0.70156 0.91136 0.2929 0.0
C690 C 0.6883 0.93402 0.30135 0.0
C691 C 0.70949 0.92488 0.28042 0.0
C692 C 0.76145 0.99017 0.25908 0.0
H693 H 0.75856 0.0921 0.2023 0.0
H694 H 0.72128 0.03449 0.21857 0.0
H695 H 0.81337 0.02433 0.24543 0.0
H696 H 0.66975 0.98615 0.3032 0.0
H697 H 0.68256 0.00894 0.28155 0.0
H698 H 0.66014 0.98794 0.25963 0.0
C699 C 0.75518 0.0626 0.22019 0.0
C700 C 0.77957 0.016 0.24832 0.0
C701 C 0.77654 0.09548 0.21087 0.0
C702 C 0.68001 0.96808 0.29691 0.0
C703 C 0.68716 0.98101 0.28446 0.0
C704 C 0.69333 0.99504 0.2565 0.0
C705 C 0.77758 0.06593 0.23145 0.0
C706 C 0.75526 0.03256 0.24167 0.0
C707 C 0.70346 0.96069 0.27613 0.0
C708 C 0.71869 0.98057 0.26353 0.0
H709 H 0.87623 0.16391 0.22583 0.0
H710 H 0.83949 0.10683 0.24181 0.0
H711 H 0.69177 0.03286 0.24077 0.0
H712 H 0.70856 0.88525 0.29608 0.0
H713 H 0.72177 0.90836 0.27421 0.0
C714 C 0.64736 0.80488 0.38864 0.0
C715 C 0.67343 0.81522 0.37776 0.0
C716 C 0.65795 0.78746 0.39903 0.0
C717 C 0.75264 0.78668 0.41493 0.0
H718 H 0.65623 0.69373 0.43484 0.0
C719 C 0.78227 0.7312 0.46409 0.0
C720 C 0.75088 0.72826 0.47309 0.0
C721 C 0.77525 0.73622 0.45145 0.0
C722 C 0.68365 0.7198 0.42942 0.0
H723 H 0.73099 0.81476 0.36928 0.0
H724 H 0.74996 0.78467 0.38763 0.0
H725 H 0.63885 0.71205 0.41449 0.0
H726 H 0.68702 0.72747 0.47562 0.0
H727 H 0.6753 0.73623 0.45401 0.0
H728 H 0.79712 0.79555 0.43015 0.0
C729 C 0.72108 0.78993 0.38801 0.0
C730 C 0.67365 0.73025 0.41773 0.0
C731 C 0.70996 0.80675 0.37747 0.0
C732 C 0.71223 0.72978 0.46907 0.0
C733 C 0.70514 0.73438 0.45657 0.0
C734 C 0.76267 0.77633 0.42671 0.0
C735 C 0.69531 0.78035 0.39894 0.0
C736 C 0.70769 0.76475 0.41048 0.0
C737 C 0.73638 0.73767 0.44755 0.0
C738 C 0.72796 0.74375 0.43427 0.0
H739 H 0.61904 0.811 0.3892 0.0
H740 H 0.63766 0.78099 0.40732 0.0
H741 H 0.77964 0.81355 0.40959 0.0
H742 H 0.81242 0.73024 0.46682 0.0
H743 H 0.8 0.73863 0.44472 0.0
C744 C 0.85368 0.66542 0.55541 0.0
C745 C 0.86567 0.6997 0.54651 0.0
C746 C 0.88086 0.67246 0.5658 0.0
C747 C 0.99428 0.74819 0.58013 0.0
H748 H 0.92635 0.69507 0.61027 0.0
C749 C 0.06841 0.78435 0.63099 0.0
C750 C 0.04998 0.74661 0.63898 0.0
C751 C 0.05215 0.7801 0.61878 0.0
C752 C 0.94598 0.70977 0.60193 0.0
H753 H 0.91682 0.76797 0.54138 0.0
H754 H 0.96412 0.78086 0.55981 0.0
H755 H 0.88608 0.68579 0.59101 0.0
H756 H 0.00311 0.67418 0.64004 0.0
H757 H 0.97554 0.6668 0.61891 0.0
H758 H 0.05436 0.77309 0.59141 0.0
C759 C 0.93381 0.74814 0.55861 0.0
C760 C 0.92282 0.70433 0.59082 0.0
C761 C 0.90669 0.74081 0.54805 0.0
C762 C 0.01773 0.70407 0.6342 0.0
C763 C 0.00165 0.69986 0.62209 0.0
C764 C 0.01762 0.75401 0.59137 0.0
C765 C 0.92064 0.71435 0.56779 0.0
C766 C 0.94647 0.72266 0.57968 0.0
C767 C 0.0172 0.73807 0.61438 0.0
C768 C 0.99365 0.73412 0.60237 0.0
H769 H 0.82273 0.63306 0.55443 0.0
H770 H 0.87019 0.64501 0.57239 0.0
H771 H 0.01373 0.76281 0.57177 0.0
H772 H 0.09303 0.81766 0.6344 0.0
H773 H 0.0649 0.81018 0.61307 0.0
C774 C 0.31024 0.02432 0.80016 0.0
C775 C 0.29704 0.0541 0.80526 0.0
C776 C 0.30164 0.01119 0.78772 0.0
C777 C 0.29014 0.99626 0.75976 0.0
H778 H 0.16629 0.95798 0.75019 0.0
C779 C 0.20763 0.89952 0.71349 0.0
C780 C 0.1649 0.86044 0.71515 0.0
C781 C 0.22817 0.93087 0.72322 0.0
C782 C 0.20108 0.96871 0.75268 0.0
H783 H 0.26673 0.09544 0.80099 0.0
H784 H 0.25169 0.0725 0.77921 0.0
H785 H 0.19688 0.00081 0.76929 0.0
H786 H 0.11 0.82456 0.72831 0.0
H787 H 0.14531 0.8788 0.74499 0.0
H788 H 0.29348 0.96238 0.74333 0.0
C789 C 0.26849 0.05909 0.78491 0.0
C790 C 0.21882 0.99373 0.76358 0.0
C791 C 0.27753 0.07262 0.79737 0.0
C792 C 0.14302 0.85402 0.72666 0.0
C793 C 0.16311 0.88543 0.73624 0.0
C794 C 0.27245 0.97148 0.74878 0.0
C795 C 0.27925 0.02715 0.78002 0.0
C796 C 0.2632 0.00682 0.76746 0.0
C797 C 0.20597 0.9242 0.7347 0.0
C798 C 0.22724 0.95626 0.7453 0.0
H799 H 0.32544 0.00946 0.80594 0.0
H800 H 0.31014 0.98634 0.78435 0.0
H801 H 0.32461 0.00617 0.7624 0.0
H802 H 0.22545 0.90554 0.70477 0.0
H803 H 0.26122 0.96047 0.72174 0.0
C804 C 0.73919 0.78363 0.88119 0.0
C805 C 0.74261 0.75721 0.87165 0.0
C806 C 0.74959 0.77866 0.89352 0.0
C807 C 0.81257 0.73422 0.9115 0.0
H808 H 0.73631 0.72642 0.93918 0.0
C809 C 0.81938 0.65306 0.957 0.0
C810 C 0.8258 0.67806 0.96795 0.0
C811 C 0.80724 0.6656 0.94596 0.0
C812 C 0.75811 0.72897 0.93154 0.0
H813 H 0.75917 0.7043 0.86782 0.0
H814 H 0.7764 0.69557 0.88893 0.0
H815 H 0.72072 0.74523 0.91844 0.0
H816 H 0.8216 0.73452 0.9759 0.0
H817 H 0.79955 0.75594 0.95651 0.0
H818 H 0.84911 0.71677 0.9244 0.0
C819 C 0.76667 0.72081 0.88698 0.0
C820 C 0.74933 0.7399 0.91968 0.0
C821 C 0.7564 0.7257 0.87479 0.0
C822 C 0.81695 0.71439 0.96768 0.0
C823 C 0.80437 0.72675 0.95657 0.0
C824 C 0.82101 0.72299 0.92325 0.0
C825 C 0.76384 0.74736 0.89652 0.0
C826 C 0.77582 0.74151 0.90945 0.0
C827 C 0.80081 0.7033 0.94552 0.0
C828 C 0.79331 0.71916 0.93335 0.0
H829 H 0.72852 0.8081 0.87916 0.0
H830 H 0.7471 0.79971 0.90065 0.0
H831 H 0.83451 0.73641 0.90394 0.0
H832 H 0.82545 0.62467 0.95679 0.0
H833 H 0.80391 0.64632 0.93764 0.0
C834 C 0.94337 0.72482 0.05066 0.0
C835 C 0.97404 0.73336 0.04088 0.0
C836 C 0.95876 0.73362 0.06302 0.0
C837 C 0.0652 0.8018 0.0809 0.0
H838 H 0.0051 0.7174 0.10785 0.0
C839 C 0.16243 0.80978 0.12446 0.0
C840 C 0.14459 0.81376 0.13586 0.0
C841 C 0.13587 0.79668 0.11376 0.0
C842 C 0.02193 0.74144 0.10042 0.0
H843 H 0.04489 0.75663 0.03664 0.0
H844 H 0.07088 0.77115 0.05778 0.0
H845 H 0.96873 0.70234 0.08734 0.0
H846 H 0.0834 0.80388 0.14498 0.0
H847 H 0.0366 0.78014 0.12614 0.0
H848 H 0.11891 0.84009 0.09371 0.0
C849 C 0.03522 0.75877 0.05601 0.0
C850 C 0.00109 0.73294 0.08871 0.0
C851 C 0.02007 0.75013 0.0438 0.0
C852 C 0.09831 0.80115 0.13638 0.0
C853 C 0.07149 0.78764 0.1256 0.0
C854 C 0.08601 0.80998 0.09248 0.0
C855 C 0.00509 0.75128 0.0658 0.0
C856 C 0.02318 0.76246 0.07871 0.0
C857 C 0.09057 0.78685 0.11411 0.0
C858 C 0.06527 0.77939 0.10229 0.0
H859 H 0.90767 0.71168 0.04878 0.0
H860 H 0.93462 0.72741 0.07036 0.0
H861 H 0.08265 0.82597 0.07353 0.0
H862 H 0.19767 0.81864 0.12366 0.0
H863 H 0.15127 0.79555 0.10508 0.0
C864 C 0.21802 0.92913 0.21907 0.0
C865 C 0.24494 0.95791 0.20945 0.0
C866 C 0.2275 0.94339 0.23152 0.0
C867 C 0.32039 0.0279 0.2516 0.0
H868 H 0.22487 0.02046 0.27279 0.0
C869 C 0.35505 0.1553 0.29059 0.0
C870 C 0.33159 0.14061 0.30189 0.0
C871 C 0.34471 0.12525 0.28069 0.0
C872 C 0.25185 0.02209 0.26708 0.0
H873 H 0.30375 0.02372 0.20549 0.0
H874 H 0.31989 0.04799 0.22682 0.0
H875 H 0.20544 0.98079 0.25282 0.0
H876 H 0.27912 0.08234 0.31167 0.0
H877 H 0.26058 0.0296 0.29419 0.0
H878 H 0.36692 0.07052 0.26555 0.0
C879 C 0.29159 0.01447 0.2249 0.0
C880 C 0.2407 -0.00068 0.25564 0.0
C881 C 0.28195 0.00059 0.21259 0.0
C882 C 0.2981 0.09464 0.30312 0.0
C883 C 0.28721 0.06455 0.29309 0.0
C884 C 0.33149 0.05065 0.26296 0.0
C885 C 0.26455 0.9863 0.23455 0.0
C886 C 0.27502 0.00327 0.24758 0.0
C887 C 0.31022 0.07966 0.28172 0.0
C888 C 0.29752 0.04929 0.27067 0.0
H889 H 0.18926 0.89609 0.21699 0.0
H890 H 0.20604 0.92084 0.23875 0.0
H891 H 0.34763 0.03086 0.24575 0.0
H892 H 0.38102 0.19043 0.2893 0.0
H893 H 0.36276 0.13824 0.27204 0.0
C894 C 0.31712 0.29775 0.37983 0.0
C895 C 0.31225 0.25579 0.37623 0.0
C896 C 0.30704 0.30462 0.39188 0.0
C897 C 0.28488 0.26448 0.42415 0.0
H898 H 0.20239 0.31213 0.42299 0.0
C899 C 0.18964 0.28204 0.46753 0.0
C900 C 0.18224 0.31923 0.4675 0.0
C901 C 0.20961 0.27337 0.45723 0.0
C902 C 0.22594 0.29949 0.42357 0.0
H903 H 0.29619 0.18921 0.38279 0.0
H904 H 0.27849 0.20141 0.40409 0.0
H905 H 0.23158 0.29924 0.40387 0.0
H906 H 0.1932 0.37835 0.45709 0.0
H907 H 0.22913 0.36443 0.43954 0.0
H908 H 0.27938 0.2654 0.444 0.0
C909 C 0.29021 0.22891 0.39746 0.0
C910 C 0.24256 0.2919 0.41256 0.0
C911 C 0.30049 0.22198 0.3853 0.0
C912 C 0.19768 0.34896 0.45733 0.0
C913 C 0.21802 0.34072 0.4472 0.0
C914 C 0.26841 0.2725 0.43529 0.0
C915 C 0.29158 0.26971 0.40071 0.0
C916 C 0.27281 0.27505 0.41268 0.0
C917 C 0.22287 0.30199 0.44677 0.0
C918 C 0.2393 0.29092 0.43512 0.0
H919 H 0.32664 0.32472 0.37312 0.0
H920 H 0.30943 0.33679 0.39415 0.0
H921 H 0.308 0.25128 0.42453 0.0
H922 H 0.17798 0.25844 0.47522 0.0
H923 H 0.2128 0.24324 0.45725 0.0
C924 C 0.00379 0.30319 0.54403 0.0
C925 C 0.04049 0.297 0.54089 0.0
C926 C 0.98632 0.29486 0.55602 0.0
C927 C 0.00329 0.27817 0.58874 0.0
H928 H 0.87297 0.19729 0.5879 0.0
C929 C 0.89269 0.19373 0.63289 0.0
C930 C 0.8479 0.18587 0.63284 0.0
C931 C 0.92037 0.21124 0.62236 0.0
C932 C 0.90919 0.22049 0.58838 0.0
H933 H 0.0898 0.2804 0.54816 0.0
H934 H 0.05902 0.26583 0.5694 0.0
H935 H 0.91515 0.22198 0.56866 0.0
H936 H 0.79831 0.19311 0.62196 0.0
H937 H 0.84672 0.22499 0.60391 0.0
H938 H -0.00304 0.27707 0.60855 0.0
C939 C 0.0439 0.27712 0.56244 0.0
C940 C 0.93347 0.23445 0.5773 0.0
C941 C 0.06159 0.28557 0.55032 0.0
C942 C 0.83238 0.19817 0.62228 0.0
C943 C 0.86013 0.21613 0.61186 0.0
C944 C 0.97877 0.26445 0.59991 0.0
C945 C 0.00494 0.28 0.56526 0.0
C946 C 0.98066 0.26391 0.5773 0.0
C947 C 0.90404 0.22164 0.61158 0.0
C948 C 0.93121 0.23588 0.59986 0.0
H949 H 0.98715 0.31267 0.53705 0.0
H950 H 0.95697 0.2984 0.55796 0.0
H951 H 0.03965 0.30087 0.58902 0.0
H952 H 0.90565 0.18437 0.64084 0.0
H953 H 0.95384 0.21479 0.62251 0.0
C954 C 0.66153 0.85112 0.79049 0.0
C955 C 0.69243 0.8651 0.8004 0.0
C956 C 0.67122 0.87773 0.77986 0.0
C957 C 0.743 0.99176 0.76629 0.0
H958 H 0.71511 0.9223 0.73585 0.0
C959 C 0.78807 0.06838 0.71573 0.0
C960 C 0.75409 0.04428 0.70685 0.0
C961 C 0.78306 0.05187 0.72793 0.0
C962 C 0.72279 0.94228 0.74425 0.0
H963 H 0.75712 0.91941 0.80706 0.0
H964 H 0.77409 0.96602 0.78836 0.0
H965 H 0.70154 0.88377 0.75562 0.0
H966 H 0.68673 0.98642 0.70408 0.0
H967 H 0.67785 0.95852 0.72512 0.0
H968 H 0.76417 0.05044 0.75469 0.0
C969 C 0.74222 0.93436 0.78891 0.0
C970 C 0.71494 0.92012 0.75561 0.0
C971 C 0.73247 0.9076 0.79962 0.0
C972 C 0.714 0.00533 0.71061 0.0
C973 C 0.70895 0.98916 0.72269 0.0
C974 C 0.7509 0.01412 0.75482 0.0
C975 C 0.71218 0.91908 0.77877 0.0
C976 C 0.72393 0.94428 0.76679 0.0
C977 C 0.74396 0.01117 0.7314 0.0
C978 C 0.73985 0.98936 0.74368 0.0
H979 H 0.63011 0.81894 0.79078 0.0
H980 H 0.64679 0.86543 0.77235 0.0
H981 H 0.75042 0.01137 0.77474 0.0
H982 H 0.81931 0.0985 0.7131 0.0
H983 H 0.81056 0.0697 0.73446 0.0
C984 C 0.2808 0.99431 0.11655 0.0
C985 C 0.2882 0.01577 0.12815 0.0
C986 C 0.28236 0.01758 0.10567 0.0
C987 C 0.32539 0.13328 0.09318 0.0
H988 H 0.22465 0.07652 0.07015 0.0
C989 C 0.28531 0.23861 0.05949 0.0
C990 C 0.27179 0.2227 0.04733 0.0
C991 C 0.28966 0.21132 0.06841 0.0
C992 C 0.2534 0.09263 0.07638 0.0
H993 H 0.30442 0.0789 0.13735 0.0
H994 H 0.3074 0.11915 0.11851 0.0
H995 H 0.22985 0.03226 0.08729 0.0
H996 H 0.25169 0.16502 0.03512 0.0
H997 H 0.25947 0.11736 0.05075 0.0
H998 H 0.34866 0.19375 0.08248 0.0
C999 C 0.30046 0.08449 0.11776 0.0
C1000 C 0.25639 0.06725 0.08618 0.0
C1001 C 0.29842 0.06123 0.12859 0.0
C1002 C 0.26218 0.17843 0.04438 0.0
C1003 C 0.26648 0.15102 0.05335 0.0
C1004 C 0.32248 0.15853 0.0834 0.0
C1005 C 0.29204 0.0629 0.10618 0.0
C1006 C 0.29185 0.08767 0.09486 0.0
C1007 C 0.28065 0.16733 0.06545 0.0
C1008 C 0.28586 0.13888 0.07506 0.0
H1009 H 0.27264 0.95925 0.11591 0.0
H1010 H 0.27591 0.00015 0.09686 0.0
H1011 H 0.35358 0.14972 0.09958 0.0
H1012 H 0.29276 0.27235 0.06217 0.0
H1013 H 0.29972 0.22464 0.0777 0.0
C1014 C 0.02113 0.26994 0.22736 0.0
C1015 C 0.0312 0.26537 0.21499 0.0
C1016 C 0.04874 0.27045 0.23701 0.0
C1017 C 0.13692 0.24035 0.24477 0.0
H1018 H 0.15786 0.32013 0.27272 0.0
C1019 C 0.26471 0.26962 0.28436 0.0
C1020 C 0.24858 0.26791 0.29647 0.0
C1021 C 0.23949 0.26963 0.27411 0.0
C1022 C 0.1521 0.29747 0.26501 0.0
H1023 H 0.07838 0.25764 0.20311 0.0
H1024 H 0.12717 0.25955 0.21993 0.0
H1025 H 0.11189 0.31986 0.25539 0.0
H1026 H 0.19319 0.26495 0.30723 0.0
H1027 H 0.14965 0.26533 0.28939 0.0
H1028 H 0.17778 0.21849 0.25443 0.0
C1029 C 0.09738 0.26192 0.22219 0.0
C1030 C 0.1256 0.29716 0.25509 0.0
C1031 C 0.06951 0.26105 0.21252 0.0
C1032 C 0.20672 0.26628 0.29806 0.0
C1033 C 0.18183 0.26677 0.28784 0.0
C1034 C 0.1638 0.24097 0.25467 0.0
C1035 C 0.08744 0.26679 0.23456 0.0
C1036 C 0.11719 0.26822 0.24489 0.0
C1037 C 0.19792 0.26849 0.27575 0.0
C1038 C 0.17123 0.26918 0.26496 0.0
H1039 H 0.99164 0.27285 0.22963 0.0
H1040 H 0.03941 0.27326 0.24642 0.0
H1041 H 0.13076 0.21723 0.23715 0.0
H1042 H 0.29673 0.27075 0.28279 0.0
H1043 H 0.25283 0.27121 0.2649 0.0
C1044 C 0.79165 0.06711 0.37778 0.0
C1045 C 0.75032 0.02707 0.38011 0.0
C1046 C 0.81809 0.09465 0.38751 0.0
C1047 C 0.83991 0.09172 0.42069 0.0
H1048 H 0.89793 0.22284 0.41838 0.0
C1049 C 0.92793 0.20598 0.46248 0.0
C1050 C 0.96952 0.24627 0.46067 0.0
C1051 C 0.90192 0.18063 0.45245 0.0
C1052 C 0.88246 0.18633 0.41909 0.0
H1053 H 0.70434 0.98494 0.39459 0.0
H1054 H 0.75066 0.03329 0.41162 0.0
H1055 H 0.84985 0.17568 0.40145 0.0
H1056 H 0.01591 0.29173 0.44675 0.0
H1057 H 0.97032 0.24684 0.42909 0.0
H1058 H 0.87259 0.10217 0.43827 0.0
C1059 C 0.76261 0.04303 0.40221 0.0
C1060 C 0.8548 0.15929 0.40942 0.0
C1061 C 0.73595 0.01547 0.39245 0.0
C1062 C 0.98406 0.26092 0.44848 0.0
C1063 C 0.95788 0.23529 0.43837 0.0
C1064 C 0.86762 0.11869 0.43033 0.0
C1065 C 0.80403 0.08287 0.39983 0.0
C1066 C 0.83305 0.11168 0.41014 0.0
C1067 C 0.9167 0.1946 0.44027 0.0
C1068 C 0.88896 0.1663 0.4297 0.0
H1069 H 0.80392 0.07725 0.36841 0.0
H1070 H 0.85005 0.12478 0.38537 0.0
H1071 H 0.82439 0.05519 0.42142 0.0
H1072 H 0.91522 0.19375 0.47171 0.0
H1073 H 0.86992 0.15008 0.45425 0.0
C1074 C 0.722 0.75106 0.5616 0.0
C1075 C 0.6903 0.73454 0.55187 0.0
C1076 C 0.72056 0.78021 0.57052 0.0
C1077 C 0.64647 0.81696 0.58492 0.0
H1078 H 0.75892 0.92739 0.5925 0.0
C1079 C 0.71402 0.99332 0.61507 0.0
C1080 C 0.69636 0.97439 0.62672 0.0
C1081 C 0.71032 0.96519 0.60509 0.0
C1082 C 0.7272 0.89694 0.59037 0.0
H1083 H 0.63108 0.73404 0.54418 0.0
H1084 H 0.62804 0.78403 0.55991 0.0
H1085 H 0.75874 0.87396 0.57726 0.0
H1086 H 0.65897 0.91144 0.63694 0.0
H1087 H 0.65159 0.86262 0.61955 0.0
H1088 H 0.61512 0.83949 0.59821 0.0
C1089 C 0.6542 0.77478 0.56057 0.0
C1090 C 0.7272 0.86613 0.58178 0.0
C1091 C 0.656 0.7462 0.55156 0.0
C1092 C 0.67308 0.92696 0.62806 0.0
C1093 C 0.66863 0.89898 0.6181 0.0
C1094 C 0.64659 0.84746 0.59363 0.0
C1095 C 0.68702 0.79285 0.56999 0.0
C1096 C 0.68689 0.82567 0.57903 0.0
C1097 C 0.68801 0.91775 0.60658 0.0
C1098 C 0.68701 0.88761 0.5965 0.0
H1099 H 0.74903 0.743 0.56206 0.0
H1100 H 0.74597 0.79324 0.57778 0.0
H1101 H 0.61493 0.78603 0.58299 0.0
H1102 H 0.73236 0.02979 0.61381 0.0
H1103 H 0.72539 0.98046 0.59628 0.0
C1104 C 0.94968 0.69656 0.72664 0.0
C1105 C 0.95214 0.72013 0.7157 0.0
C1106 C 0.91818 0.69019 0.73586 0.0
C1107 C 0.81097 0.69159 0.74125 0.0
H1108 H 0.84645 0.7005 0.77572 0.0
C1109 C 0.70765 0.70514 0.78224 0.0
C1110 C 0.70622 0.68262 0.79331 0.0
C1111 C 0.73397 0.70546 0.77223 0.0
C1112 C 0.83577 0.69727 0.76614 0.0
H1113 H 0.92356 0.75603 0.706 0.0
H1114 H 0.86936 0.74573 0.7222 0.0
H1115 H 0.90079 0.71127 0.75956 0.0
H1116 H 0.72928 0.64043 0.8022 0.0
H1117 H 0.77471 0.64077 0.78473 0.0
H1118 H 0.7461 0.67843 0.74793 0.0
C1119 C 0.89117 0.73133 0.72353 0.0
C1120 C 0.86697 0.70346 0.75686 0.0
C1121 C 0.92254 0.73752 0.71428 0.0
C1122 C 0.72972 0.65836 0.79386 0.0
C1123 C 0.7561 0.65883 0.78388 0.0
C1124 C 0.77979 0.68562 0.75056 0.0
C1125 C 0.88847 0.70744 0.73443 0.0
C1126 C 0.85501 0.7007 0.74429 0.0
C1127 C 0.75952 0.68339 0.77308 0.0
C1128 C 0.79185 0.68834 0.76311 0.0
H1129 H 0.97168 0.68241 0.72803 0.0
H1130 H 0.91667 0.67106 0.74404 0.0
H1131 H 0.80035 0.68855 0.73168 0.0
H1132 H 0.69007 0.72425 0.78148 0.0
H1133 H 0.73602 0.72484 0.76405 0.0
C1134 C 0.99561 0.70301 0.94906 0.0
C1135 C 0.01956 0.71142 0.96027 0.0
C1136 C 0.01836 0.72498 0.93815 0.0
C1137 C 0.13353 0.79267 0.92425 0.0
H1138 H 0.07888 0.85081 0.90571 0.0
C1139 C 0.23802 0.94563 0.89228 0.0
C1140 C 0.21902 0.94692 0.88082 0.0
C1141 C 0.21216 0.91257 0.90108 0.0
C1142 C 0.09436 0.83432 0.91067 0.0
H1143 H 0.08645 0.74722 0.96866 0.0
H1144 H 0.12573 0.78524 0.94981 0.0
H1145 H 0.03601 0.79769 0.92224 0.0
H1146 H 0.15752 0.91443 0.86973 0.0
H1147 H 0.11255 0.85691 0.8851 0.0
H1148 H 0.19231 0.83024 0.9129 0.0
C1149 C 0.08956 0.76175 0.94934 0.0
C1150 C 0.06971 0.80371 0.92012 0.0
C1151 C 0.06691 0.74012 0.96019 0.0
C1152 C 0.17334 0.91455 0.87844 0.0
C1153 C 0.14744 0.88163 0.88728 0.0
C1154 C 0.15819 0.82334 0.91483 0.0
C1155 C 0.06548 0.75539 0.93825 0.0
C1156 C 0.08934 0.78319 0.92718 0.0
C1157 C 0.16661 0.8801 0.89867 0.0
C1158 C 0.13921 0.84516 0.90809 0.0
H1159 H 0.9591 0.68122 0.94882 0.0
H1160 H -0.00108 0.71898 0.92972 0.0
H1161 H 0.14938 0.77688 0.92937 0.0
H1162 H 0.27303 0.96999 0.89445 0.0
H1163 H 0.22773 0.91276 0.90985 0.0
C1164 C 0.08432 0.14735 1.00141 0.0
C1165 C 0.12735 0.17713 0.99662 0.0
C1166 C 0.05378 0.10976 0.99447 0.0
C1167 C 0.06464 0.03594 0.97262 0.0
H1168 H 0.93636 0.96245 0.97985 0.0
C1169 C 0.99244 0.84887 0.97902 0.0
C1170 C 0.97021 0.83474 0.99048 0.0
C1171 C -0.00212 0.88817 0.9734 0.0
C1172 C 0.97206 0.98262 0.97758 0.0
H1173 H 0.17043 0.19548 0.98036 0.0
H1174 H 0.11677 0.13051 0.96812 0.0
H1175 H 0.97315 0.04493 0.98146 0.0
H1176 H 0.9339 0.84865 1.00472 0.0
H1177 H 0.94614 0.91883 0.99545 0.0
H1178 H 0.06517 0.97444 0.96992 0.0
C1179 C 0.10708 0.13485 0.97736 0.0
C1180 C 0.99304 0.02978 0.97848 0.0
C1181 C 0.13792 0.17165 0.9844 0.0
C1182 C 0.95177 0.85929 0.99596 0.0
C1183 C 0.95801 0.89905 0.99049 0.0
C1184 C 0.04383 0.98902 0.9718 0.0
C1185 C 0.06568 0.10219 0.98256 0.0
C1186 C 0.04024 0.05649 0.97696 0.0
C1187 C 0.98216 0.9146 0.97929 0.0
C1188 C -0.00179 0.96182 0.97528 0.0
H1189 H 0.07533 0.15176 0.01073 0.0
H1190 H 0.02234 0.08506 0.99882 0.0
H1191 H 0.10106 0.05533 0.97131 0.0
H1192 H 0.00561 0.82955 0.9744 0.0
H1193 H 0.01591 0.89876 0.96468 0.0
C1194 C 0.07178 0.90937 0.16591 0.0
C1195 C 0.11591 0.9458 0.16378 0.0
C1196 C 0.03397 0.91218 0.16223 0.0
C1197 C -0.00111 0.9824 0.14418 0.0
H1198 H 0.93066 0.97394 0.17381 0.0
C1199 C 0.97556 0.12377 0.16077 0.0
C1200 C 0.93694 0.11645 0.16736 0.0
C1201 C 0.97893 0.0872 0.15633 0.0
C1202 C 0.94793 0.97512 0.16527 0.0
H1203 H 0.15491 0.01274 0.1556 0.0
H1204 H 0.08908 0.01818 0.14952 0.0
H1205 H 0.97291 0.934 0.1729 0.0
H1206 H 0.87092 0.06504 0.1742 0.0
H1207 H 0.87769 0.00086 0.16671 0.0
H1208 H 0.97729 0.02727 0.13709 0.0
C1209 C 0.08367 0.98708 0.15381 0.0
C1210 C 0.97223 0.95219 0.16474 0.0
C1211 C 0.12144 0.98436 0.15752 0.0
C1212 C 0.90133 0.07174 0.16923 0.0
C1213 C 0.90491 0.03504 0.16487 0.0
C1214 C 0.97456 0.00533 0.14471 0.0
C1215 C 0.03961 0.95134 0.15631 0.0
C1216 C 0.00086 0.95884 0.15462 0.0
C1217 C 0.94389 0.04251 0.15844 0.0
C1218 C 0.95214 0.00484 0.15568 0.0
H1219 H 0.0663 0.87883 0.17056 0.0
H1220 H 0.00036 0.8843 0.16429 0.0
H1221 H 0.01987 0.98699 0.13615 0.0
H1222 H 0.00331 0.15777 0.15903 0.0
H1223 H 0.00995 0.09396 0.15169 0.0
C1224 C 0.17163 0.06909 0.33879 0.0
C1225 C 0.17839 0.11231 0.3418 0.0
C1226 C 0.12987 0.03034 0.3411 0.0
C1227 C 0.02518 0.98929 0.35904 0.0
H1228 H 0.96094 0.936 0.3284 0.0
C1229 C 0.85979 0.97591 0.34761 0.0
C1230 C 0.82539 0.9381 0.34144 0.0
C1231 C 0.90109 0.97836 0.35005 0.0
C1232 C 0.97839 0.94904 0.33713 0.0
H1233 H 0.1477 0.14906 0.34984 0.0
H1234 H 0.07495 0.08156 0.35386 0.0
H1235 H 0.04362 0.97611 0.32863 0.0
H1236 H 0.80706 0.87323 0.33293 0.0
H1237 H 0.88047 0.87859 0.33687 0.0
H1238 H 0.96005 0.96629 0.36722 0.0
C1239 C 0.10195 0.07758 0.34982 0.0
C1240 C 0.02568 0.97192 0.33727 0.0
C1241 C 0.1432 0.11621 0.34731 0.0
C1242 C 0.83313 0.90287 0.33769 0.0
C1243 C 0.8748 0.90564 0.34 0.0
C1244 C 0.97799 0.96641 0.35891 0.0
C1245 C 0.09494 0.03444 0.3467 0.0
C1246 C 0.0491 0.99527 0.34796 0.0
C1247 C 0.90889 0.94327 0.34629 0.0
C1248 C 0.95462 0.9495 0.34771 0.0
H1249 H 0.19841 0.06531 0.33453 0.0
H1250 H 0.12471 -0.00264 0.33844 0.0
H1251 H 0.04287 0.00663 0.36742 0.0
H1252 H 0.85463 0.00331 0.35072 0.0
H1253 H 0.92743 0.00836 0.35463 0.0
C1254 C 0.00307 0.12478 0.49749 0.0
C1255 C 0.0429 0.16061 0.50251 0.0
C1256 C -0.0039 0.08082 0.49762 0.0
C1257 C 0.01883 0.01003 0.51704 0.0
H1258 H 0.94793 0.92241 0.49166 0.0
C1259 C 0.86729 0.81306 0.50943 0.0
C1260 C 0.83873 0.8144 0.5186 0.0
C1261 C 0.91074 0.85001 0.50772 0.0
C1262 C 0.96888 0.94609 0.49878 0.0
H1263 H 0.10754 0.17889 0.51118 0.0
H1264 H 0.0945 0.1015 0.51168 0.0
H1265 H 0.99293 0.00216 0.48629 0.0
H1266 H 0.83309 0.85374 0.53351 0.0
H1267 H 0.90846 0.91898 0.53037 0.0
H1268 H 0.99194 0.95432 0.52974 0.0
C1269 C 0.06909 0.10774 0.50754 0.0
C1270 C 0.99433 0.99183 0.49569 0.0
C1271 C 0.07634 0.15188 0.50728 0.0
C1272 C 0.85477 0.85214 0.5264 0.0
C1273 C 0.89815 0.88909 0.52471 0.0
C1274 C 0.99334 0.96421 0.52014 0.0
C1275 C 0.02864 0.07181 0.50286 0.0
C1276 C 0.01672 0.02434 0.50498 0.0
C1277 C 0.92596 0.88902 0.51506 0.0
C1278 C 0.96552 0.93241 0.51121 0.0
H1279 H 0.97694 0.13053 0.49363 0.0
H1280 H 0.96416 0.05354 0.49416 0.0
H1281 H 0.03609 0.03449 0.52436 0.0
H1282 H 0.85528 0.78515 0.50299 0.0
H1283 H 0.93133 0.84921 0.50017 0.0
C1284 C 0.08516 0.92482 0.67024 0.0
C1285 C 0.04916 0.87992 0.66899 0.0
C1286 C 0.08213 0.96069 0.66499 0.0
C1287 C 0.04159 0.02257 0.66304 0.0
H1288 H 0.96803 0.00211 0.63368 0.0
C1289 C 0.86836 0.01093 0.65472 0.0
C1290 C 0.87459 0.0511 0.66016 0.0
C1291 C 0.90571 0.00747 0.651 0.0
C1292 C 0.98955 0.00914 0.64173 0.0
H1293 H 0.9822 0.83743 0.66108 0.0
H1294 H 0.97645 0.89983 0.65227 0.0
H1295 H 0.00966 0.96136 0.63621 0.0
H1296 H 0.92488 0.12027 0.66523 0.0
H1297 H 0.99001 0.11355 0.65895 0.0
H1298 H 0.01813 0.06684 0.66916 0.0
C1299 C 0.00747 0.9073 0.65704 0.0
C1300 C 0.0133 0.98589 0.64319 0.0
C1301 C 0.01035 0.87159 0.66232 0.0
C1302 C 0.91886 0.08844 0.66128 0.0
C1303 C 0.95621 0.08493 0.65757 0.0
C1304 C 0.01794 0.04589 0.66157 0.0
C1305 C 0.04324 0.95216 0.65834 0.0
C1306 C 0.03607 0.9895 0.65435 0.0
C1307 C 0.95 0.04411 0.65265 0.0
C1308 C 0.98864 0.03619 0.65143 0.0
H1309 H 0.11573 0.93231 0.67525 0.0
H1310 H 0.10986 0.99506 0.66624 0.0
H1311 H 0.05923 0.02626 0.67169 0.0
H1312 H 0.83473 0.98181 0.65356 0.0
H1313 H 0.89993 0.97518 0.64746 0.0
C1314 C 0.12821 0.00549 0.82705 0.0
C1315 C 0.15407 0.04026 0.83551 0.0
C1316 C 0.08676 -0.00088 0.82284 0.0
C1317 C 0.99232 0.00633 0.83372 0.0
H1318 H 0.94867 0.96196 0.80057 0.0
C1319 C 0.80962 0.87075 0.82708 0.0
C1320 C 0.80785 0.83252 0.82156 0.0
C1321 C 0.84787 0.91357 0.82565 0.0
C1322 C 0.96032 0.975 0.80982 0.0
H1323 H 0.15733 0.0962 0.84606 0.0
H1324 H 0.08352 0.08372 0.839 0.0
H1325 H 0.03007 0.00892 0.80431 0.0
H1326 H 0.84326 0.80923 0.80961 0.0
H1327 H 0.91062 0.8833 0.80747 0.0
H1328 H 0.92338 0.96876 0.83954 0.0
C1329 C 0.096 0.06211 0.83549 0.0
C1330 C 0.00678 0.00188 0.81194 0.0
C1331 C 0.13791 0.06893 0.83958 0.0
C1332 C 0.84397 0.83813 0.81408 0.0
C1333 C 0.88221 0.88078 0.81266 0.0
C1334 C 0.94591 0.9792 0.83162 0.0
C1335 C 0.0701 0.02708 0.8271 0.0
C1336 C 0.02312 0.01483 0.82406 0.0
C1337 C 0.88516 0.91875 0.81876 0.0
C1338 C 0.92987 0.96046 0.81983 0.0
H1339 H 0.14002 0.98324 0.82361 0.0
H1340 H 0.06692 0.97113 0.8166 0.0
H1341 H 0.00411 0.01605 0.84315 0.0
H1342 H 0.78297 0.86773 0.83308 0.0
H1343 H 0.84924 0.94219 0.83046 0.0
loop_
_geom_bond_atom_site_label_1
_geom_bond_atom_site_label_2
_geom_bond_distance
_geom_bond_site_symmetry_2
_ccdc_geom_bond_type
Sc0 O3 2.025 . S
Sc0 O10 2.105 . S
Sc0 O13 2.105 1_554 S
Sc0 O16 2.105 . S
Sc0 O19 2.105 . S
Sc1 O3 2.025 . S
Sc1 O11 2.105 . S
Sc1 O15 2.105 . S
Sc1 O17 2.105 1_554 S
Sc1 O21 2.105 . S
Sc2 O3 2.025 . S
Sc2 O12 2.105 . S
Sc2 O14 2.105 . S
Sc2 O18 2.105 . S
Sc2 O20 2.105 . S
O3 Sc0 2.025 . S
O3 Sc1 2.025 . S
O3 Sc2 2.025 . S
C4 O10 1.268 . S
C4 O20 1.268 . S
C5 O11 1.268 . S
C5 O19 1.268 . S
C6 O12 1.268 . S
C6 O21 1.268 . S
C7 O13 1.268 . S
C7 O17 1.268 . S
C8 O14 1.268 . S
C8 O16 1.268 . S
C9 O15 1.268 . S
C9 O18 1.268 . S
O10 Sc0 2.105 . S
O10 C4 1.268 . S
O11 Sc1 2.105 . S
O11 C5 1.268 . S
O12 Sc2 2.105 . S
O12 C6 1.268 . S
O13 Sc0 2.105 1_556 S
O13 C7 1.268 . S
O14 Sc2 2.105 . S
O14 C8 1.268 . S
O15 Sc1 2.105 . S
O15 C9 1.268 . S
O16 Sc0 2.105 . S
O16 C8 1.268 . S
O17 Sc1 2.105 1_556 S
O17 C7 1.268 . S
O18 Sc2 2.105 . S
O18 C9 1.268 . S
O19 Sc0 2.105 . S
O19 C5 1.268 . S
O20 Sc2 2.105 . S
O20 C4 1.268 . S
O21 Sc1 2.105 . S
O21 C6 1.268 . S
Sc22 O25 2.025 . S
Sc22 O32 2.105 . S
Sc22 O35 2.105 . S
Sc22 O38 2.105 . S
Sc22 O41 2.105 . S
Sc23 O25 2.025 . S
Sc23 O33 2.105 . S
Sc23 O37 2.105 . S
Sc23 O39 2.105 . S
Sc23 O43 2.105 . S
Sc24 O25 2.025 . S
Sc24 O34 2.105 . S
Sc24 O36 2.105 . S
Sc24 O40 2.105 . S
Sc24 O42 2.105 . S
O25 Sc22 2.025 . S
O25 Sc23 2.025 . S
O25 Sc24 2.025 . S
C26 O32 1.268 . S
C26 O42 1.268 . S
C27 O33 1.268 . S
C27 O41 1.268 . S
C28 O34 1.268 . S
C28 O43 1.268 . S
C29 O35 1.268 . S
C29 O39 1.268 . S
C30 O36 1.268 . S
C30 O38 1.268 . S
C31 O37 1.268 . S
C31 O40 1.268 . S
O32 Sc22 2.105 . S
O32 C26 1.268 . S
O33 Sc23 2.105 . S
O33 C27 1.268 . S
O34 Sc24 2.105 . S
O34 C28 1.268 . S
O35 Sc22 2.105 . S
O35 C29 1.268 . S
O36 Sc24 2.105 . S
O36 C30 1.268 . S
O37 Sc23 2.105 . S
O37 C31 1.268 . S
O38 Sc22 2.105 . S
O38 C30 1.268 . S
O39 Sc23 2.105 . S
O39 C29 1.268 . S
O40 Sc24 2.105 . S
O40 C31 1.268 . S
O41 Sc22 2.105 . S
O41 C27 1.268 . S
O42 Sc24 2.105 . S
O42 C26 1.268 . S
O43 Sc23 2.105 . S
O43 C28 1.268 . S
Sc44 O47 2.025 . S
Sc44 O54 2.105 . S
Sc44 O57 2.105 . S
Sc44 O60 2.105 . S
Sc44 O63 2.105 . S
Sc45 O47 2.025 . S
Sc45 O55 2.105 . S
Sc45 O59 2.105 . S
Sc45 O61 2.105 . S
Sc45 O65 2.105 . S
Sc46 O47 2.025 . S
Sc46 O56 2.105 . S
Sc46 O58 2.105 . S
Sc46 O62 2.105 . S
Sc46 O64 2.105 . S
O47 Sc44 2.025 . S
O47 Sc45 2.025 . S
O47 Sc46 2.025 . S
C48 O54 1.268 . S
C48 O64 1.268 . S
C49 O55 1.268 . S
C49 O63 1.268 . S
C50 O56 1.268 . S
C50 O65 1.268 . S
C51 O57 1.268 . S
C51 O61 1.268 . S
C52 O58 1.268 . S
C52 O60 1.268 . S
C53 O59 1.268 . S
C53 O62 1.268 . S
O54 Sc44 2.105 . S
O54 C48 1.268 . S
O55 Sc45 2.105 . S
O55 C49 1.268 . S
O56 Sc46 2.105 . S
O56 C50 1.268 . S
O57 Sc44 2.105 . S
O57 C51 1.268 . S
O58 Sc46 2.105 . S
O58 C52 1.268 . S
O59 Sc45 2.105 . S
O59 C53 1.268 . S
O60 Sc44 2.105 . S
O60 C52 1.268 . S
O61 Sc45 2.105 . S
O61 C51 1.268 . S
O62 Sc46 2.105 . S
O62 C53 1.268 . S
O63 Sc44 2.105 . S
O63 C49 1.268 . S
O64 Sc46 2.105 . S
O64 C48 1.268 . S
O65 Sc45 2.105 . S
O65 C50 1.268 . S
Sc66 O69 2.025 . S
Sc66 O76 2.105 . S
Sc66 O79 2.105 . S
Sc66 O82 2.105 . S
Sc66 O85 2.105 . S
Sc67 O69 2.025 . S
Sc67 O77 2.105 . S
Sc67 O81 2.105 . S
Sc67 O83 2.105 . S
Sc67 O87 2.105 . S
Sc68 O69 2.025 . S
Sc68 O78 2.105 . S
Sc68 O80 2.105 . S
Sc68 O84 2.105 . S
Sc68 O86 2.105 . S
O69 Sc66 2.025 . S
O69 Sc67 2.025 . S
O69 Sc68 2.025 . S
C70 O76 1.268 . S
C70 O86 1.268 . S
C71 O77 1.268 . S
C71 O85 1.268 . S
C72 O78 1.268 . S
C72 O87 1.268 . S
C73 O79 1.268 . S
C73 O83 1.268 . S
C74 O80 1.268 . S
C74 O82 1.268 . S
C75 O81 1.268 . S
C75 O84 1.268 . S
O76 Sc66 2.105 . S
O76 C70 1.268 . S
O77 Sc67 2.105 . S
O77 C71 1.268 . S
O78 Sc68 2.105 . S
O78 C72 1.268 . S
O79 Sc66 2.105 . S
O79 C73 1.268 . S
O80 Sc68 2.105 . S
O80 C74 1.268 . S
O81 Sc67 2.105 . S
O81 C75 1.268 . S
O82 Sc66 2.105 . S
O82 C74 1.268 . S
O83 Sc67 2.105 . S
O83 C73 1.268 . S
O84 Sc68 2.105 . S
O84 C75 1.268 . S
O85 Sc66 2.105 . S
O85 C71 1.268 . S
O86 Sc68 2.105 . S
O86 C70 1.268 . S
O87 Sc67 2.105 . S
O87 C72 1.268 . S
Sc88 O91 2.025 . S
Sc88 O98 2.105 . S
Sc88 O101 2.105 . S
Sc88 O104 2.105 . S
Sc88 O107 2.105 . S
Sc89 O91 2.025 . S
Sc89 O99 2.105 . S
Sc89 O103 2.105 . S
Sc89 O105 2.105 . S
Sc89 O109 2.105 . S
Sc90 O91 2.025 . S
Sc90 O100 2.105 . S
Sc90 O102 2.105 . S
Sc90 O106 2.105 . S
Sc90 O108 2.105 . S
O91 Sc88 2.025 . S
O91 Sc89 2.025 . S
O91 Sc90 2.025 . S
C92 O98 1.268 . S
C92 O108 1.268 . S
C93 O99 1.268 . S
C93 O107 1.268 . S
C94 O100 1.268 . S
C94 O109 1.268 . S
C95 O101 1.268 . S
C95 O105 1.268 . S
C96 O102 1.268 . S
C96 O104 1.268 . S
C97 O103 1.268 . S
C97 O106 1.268 . S
O98 Sc88 2.105 . S
O98 C92 1.268 . S
O99 Sc89 2.105 . S
O99 C93 1.268 . S
O100 Sc90 2.105 . S
O100 C94 1.268 . S
O101 Sc88 2.105 . S
O101 C95 1.268 . S
O102 Sc90 2.105 . S
O102 C96 1.268 . S
O103 Sc89 2.105 . S
O103 C97 1.268 . S
O104 Sc88 2.105 . S
O104 C96 1.268 . S
O105 Sc89 2.105 . S
O105 C95 1.268 . S
O106 Sc90 2.105 . S
O106 C97 1.268 . S
O107 Sc88 2.105 . S
O107 C93 1.268 . S
O108 Sc90 2.105 . S
O108 C92 1.268 . S
O109 Sc89 2.105 . S
O109 C94 1.268 . S
Sc110 O113 2.025 . S
Sc110 O120 2.105 . S
Sc110 O123 2.105 . S
Sc110 O126 2.105 . S
Sc110 O129 2.105 . S
Sc111 O113 2.025 . S
Sc111 O121 2.105 . S
Sc111 O125 2.105 . S
Sc111 O127 2.105 . S
Sc111 O131 2.105 . S
Sc112 O113 2.025 . S
Sc112 O122 2.105 . S
Sc112 O124 2.105 . S
Sc112 O128 2.105 . S
Sc112 O130 2.105 . S
O113 Sc110 2.025 . S
O113 Sc111 2.025 . S
O113 Sc112 2.025 . S
C114 O120 1.268 . S
C114 O130 1.268 . S
C115 O121 1.268 . S
C115 O129 1.268 . S
C116 O122 1.268 . S
C116 O131 1.268 . S
C117 O123 1.268 . S
C117 O127 1.268 . S
C118 O124 1.268 . S
C118 O126 1.268 . S
C119 O125 1.268 . S
C119 O128 1.268 . S
O120 Sc110 2.105 . S
O120 C114 1.268 . S
O121 Sc111 2.105 . S
O121 C115 1.268 . S
O122 Sc112 2.105 . S
O122 C116 1.268 . S
O123 Sc110 2.105 . S
O123 C117 1.268 . S
O124 Sc112 2.105 . S
O124 C118 1.268 . S
O125 Sc111 2.105 . S
O125 C119 1.268 . S
O126 Sc110 2.105 . S
O126 C118 1.268 . S
O127 Sc111 2.105 . S
O127 C117 1.268 . S
O128 Sc112 2.105 . S
O128 C119 1.268 . S
O129 Sc110 2.105 . S
O129 C115 1.268 . S
O130 Sc112 2.105 . S
O130 C114 1.268 . S
O131 Sc111 2.105 . S
O131 C116 1.268 . S
Sc132 O135 2.025 . S
Sc132 O142 2.105 . S
Sc132 O145 2.105 . S
Sc132 O148 2.105 . S
Sc132 O151 2.105 . S
Sc133 O135 2.025 . S
Sc133 O143 2.105 . S
Sc133 O147 2.105 . S
Sc133 O149 2.105 . S
Sc133 O153 2.105 . S
Sc134 O135 2.025 . S
Sc134 O144 2.105 . S
Sc134 O146 2.105 . S
Sc134 O150 2.105 . S
Sc134 O152 2.105 . S
O135 Sc132 2.025 . S
O135 Sc133 2.025 . S
O135 Sc134 2.025 . S
C136 O142 1.268 . S
C136 O152 1.268 . S
C137 O143 1.268 . S
C137 O151 1.268 . S
C138 O144 1.268 . S
C138 O153 1.268 . S
C139 O145 1.268 . S
C139 O149 1.268 . S
C140 O146 1.268 . S
C140 O148 1.268 . S
C141 O147 1.268 . S
C141 O150 1.268 . S
O142 Sc132 2.105 . S
O142 C136 1.268 . S
O143 Sc133 2.105 . S
O143 C137 1.268 . S
O144 Sc134 2.105 . S
O144 C138 1.268 . S
O145 Sc132 2.105 . S
O145 C139 1.268 . S
O146 Sc134 2.105 . S
O146 C140 1.268 . S
O147 Sc133 2.105 . S
O147 C141 1.268 . S
O148 Sc132 2.105 . S
O148 C140 1.268 . S
O149 Sc133 2.105 . S
O149 C139 1.268 . S
O150 Sc134 2.105 . S
O150 C141 1.268 . S
O151 Sc132 2.105 . S
O151 C137 1.268 . S
O152 Sc134 2.105 . S
O152 C136 1.268 . S
O153 Sc133 2.105 . S
O153 C138 1.268 . S
Sc154 O157 2.025 . S
Sc154 O164 2.105 . S
Sc154 O167 2.105 1_556 S
Sc154 O170 2.105 . S
Sc154 O173 2.105 . S
Sc155 O157 2.025 . S
Sc155 O165 2.105 . S
Sc155 O169 2.105 . S
Sc155 O171 2.105 1_556 S
Sc155 O175 2.105 . S
Sc156 O157 2.025 . S
Sc156 O166 2.105 . S
Sc156 O168 2.105 . S
Sc156 O172 2.105 . S
Sc156 O174 2.105 . S
O157 Sc154 2.025 . S
O157 Sc155 2.025 . S
O157 Sc156 2.025 . S
C158 O164 1.268 . S
C158 O174 1.268 . S
C159 O165 1.268 . S
C159 O173 1.268 . S
C160 O166 1.268 . S
C160 O175 1.268 . S
C161 O167 1.268 . S
C161 O171 1.268 . S
C162 O168 1.268 . S
C162 O170 1.268 . S
C163 O169 1.268 . S
C163 O172 1.268 . S
O164 Sc154 2.105 . S
O164 C158 1.268 . S
O165 Sc155 2.105 . S
O165 C159 1.268 . S
O166 Sc156 2.105 . S
O166 C160 1.268 . S
O167 Sc154 2.105 1_554 S
O167 C161 1.268 . S
O168 Sc156 2.105 . S
O168 C162 1.268 . S
O169 Sc155 2.105 . S
O169 C163 1.268 . S
O170 Sc154 2.105 . S
O170 C162 1.268 . S
O171 Sc155 2.105 1_554 S
O171 C161 1.268 . S
O172 Sc156 2.105 . S
O172 C163 1.268 . S
O173 Sc154 2.105 . S
O173 C159 1.268 . S
O174 Sc156 2.105 . S
O174 C158 1.268 . S
O175 Sc155 2.105 . S
O175 C160 1.268 . S
Sc176 O179 2.025 . S
Sc176 O186 2.105 . S
Sc176 O189 2.105 . S
Sc176 O192 2.105 . S
Sc176 O195 2.105 . S
Sc177 O179 2.025 . S
Sc177 O187 2.105 . S
Sc177 O191 2.105 . S
Sc177 O193 2.105 . S
Sc177 O197 2.105 . S
Sc178 O179 2.025 . S
Sc178 O188 2.105 . S
Sc178 O190 2.105 . S
Sc178 O194 2.105 . S
Sc178 O196 2.105 . S
O179 Sc176 2.025 . S
O179 Sc177 2.025 . S
O179 Sc178 2.025 . S
C180 O186 1.268 . S
C180 O196 1.268 . S
C181 O187 1.268 . S
C181 O195 1.268 . S
C182 O188 1.268 . S
C182 O197 1.268 . S
C183 O189 1.268 . S
C183 O193 1.268 . S
C184 O190 1.268 . S
C184 O192 1.268 . S
C185 O191 1.268 . S
C185 O194 1.268 . S
O186 Sc176 2.105 . S
O186 C180 1.268 . S
O187 Sc177 2.105 . S
O187 C181 1.268 . S
O188 Sc178 2.105 . S
O188 C182 1.268 . S
O189 Sc176 2.105 . S
O189 C183 1.268 . S
O190 Sc178 2.105 . S
O190 C184 1.268 . S
O191 Sc177 2.105 . S
O191 C185 1.268 . S
O192 Sc176 2.105 . S
O192 C184 1.268 . S
O193 Sc177 2.105 . S
O193 C183 1.268 . S
O194 Sc178 2.105 . S
O194 C185 1.268 . S
O195 Sc176 2.105 . S
O195 C181 1.268 . S
O196 Sc178 2.105 . S
O196 C180 1.268 . S
O197 Sc177 2.105 . S
O197 C182 1.268 . S
Sc198 O201 2.025 . S
Sc198 O208 2.105 . S
Sc198 O211 2.105 . S
Sc198 O214 2.105 . S
Sc198 O217 2.105 . S
Sc199 O201 2.025 . S
Sc199 O209 2.105 . S
Sc199 O213 2.105 . S
Sc199 O215 2.105 . S
Sc199 O219 2.105 . S
Sc200 O201 2.025 . S
Sc200 O210 2.105 . S
Sc200 O212 2.105 . S
Sc200 O216 2.105 . S
Sc200 O218 2.105 . S
O201 Sc198 2.025 . S
O201 Sc199 2.025 . S
O201 Sc200 2.025 . S
C202 O208 1.268 . S
C202 O218 1.268 . S
C203 O209 1.268 . S
C203 O217 1.268 . S
C204 O210 1.268 . S
C204 O219 1.268 . S
C205 O211 1.268 . S
C205 O215 1.268 . S
C206 O212 1.268 . S
C206 O214 1.268 . S
C207 O213 1.268 . S
C207 O216 1.268 . S
O208 Sc198 2.105 . S
O208 C202 1.268 . S
O209 Sc199 2.105 . S
O209 C203 1.268 . S
O210 Sc200 2.105 . S
O210 C204 1.268 . S
O211 Sc198 2.105 . S
O211 C205 1.268 . S
O212 Sc200 2.105 . S
O212 C206 1.268 . S
O213 Sc199 2.105 . S
O213 C207 1.268 . S
O214 Sc198 2.105 . S
O214 C206 1.268 . S
O215 Sc199 2.105 . S
O215 C205 1.268 . S
O216 Sc200 2.105 . S
O216 C207 1.268 . S
O217 Sc198 2.105 . S
O217 C203 1.268 . S
O218 Sc200 2.105 . S
O218 C202 1.268 . S
O219 Sc199 2.105 . S
O219 C204 1.268 . S
Sc220 O223 2.025 . S
Sc220 O230 2.105 . S
Sc220 O233 2.105 . S
Sc220 O236 2.105 . S
Sc220 O239 2.105 . S
Sc221 O223 2.025 . S
Sc221 O231 2.105 . S
Sc221 O235 2.105 . S
Sc221 O237 2.105 . S
Sc221 O241 2.105 . S
Sc222 O223 2.025 . S
Sc222 O232 2.105 . S
Sc222 O234 2.105 . S
Sc222 O238 2.105 . S
Sc222 O240 2.105 . S
O223 Sc220 2.025 . S
O223 Sc221 2.025 . S
O223 Sc222 2.025 . S
C224 O230 1.268 . S
C224 O240 1.268 . S
C225 O231 1.268 . S
C225 O239 1.268 . S
C226 O232 1.268 . S
C226 O241 1.268 . S
C227 O233 1.268 . S
C227 O237 1.268 . S
C228 O234 1.268 . S
C228 O236 1.268 . S
C229 O235 1.268 . S
C229 O238 1.268 . S
O230 Sc220 2.105 . S
O230 C224 1.268 . S
O231 Sc221 2.105 . S
O231 C225 1.268 . S
O232 Sc222 2.105 . S
O232 C226 1.268 . S
O233 Sc220 2.105 . S
O233 C227 1.268 . S
O234 Sc222 2.105 . S
O234 C228 1.268 . S
O235 Sc221 2.105 . S
O235 C229 1.268 . S
O236 Sc220 2.105 . S
O236 C228 1.268 . S
O237 Sc221 2.105 . S
O237 C227 1.268 . S
O238 Sc222 2.105 . S
O238 C229 1.268 . S
O239 Sc220 2.105 . S
O239 C225 1.268 . S
O240 Sc222 2.105 . S
O240 C224 1.268 . S
O241 Sc221 2.105 . S
O241 C226 1.268 . S
Sc242 O245 2.025 . S
Sc242 O252 2.105 . S
Sc242 O255 2.105 . S
Sc242 O258 2.105 . S
Sc242 O261 2.105 . S
Sc243 O245 2.025 . S
Sc243 O253 2.105 . S
Sc243 O257 2.105 . S
Sc243 O259 2.105 . S
Sc243 O263 2.105 . S
Sc244 O245 2.025 . S
Sc244 O254 2.105 . S
Sc244 O256 2.105 . S
Sc244 O260 2.105 . S
Sc244 O262 2.105 . S
O245 Sc242 2.025 . S
O245 Sc243 2.025 . S
O245 Sc244 2.025 . S
C246 O252 1.268 . S
C246 O262 1.268 . S
C247 O253 1.268 . S
C247 O261 1.268 . S
C248 O254 1.268 . S
C248 O263 1.268 . S
C249 O255 1.268 . S
C249 O259 1.268 . S
C250 O256 1.268 . S
C250 O258 1.268 . S
C251 O257 1.268 . S
C251 O260 1.268 . S
O252 Sc242 2.105 . S
O252 C246 1.268 . S
O253 Sc243 2.105 . S
O253 C247 1.268 . S
O254 Sc244 2.105 . S
O254 C248 1.268 . S
O255 Sc242 2.105 . S
O255 C249 1.268 . S
O256 Sc244 2.105 . S
O256 C250 1.268 . S
O257 Sc243 2.105 . S
O257 C251 1.268 . S
O258 Sc242 2.105 . S
O258 C250 1.268 . S
O259 Sc243 2.105 . S
O259 C249 1.268 . S
O260 Sc244 2.105 . S
O260 C251 1.268 . S
O261 Sc242 2.105 . S
O261 C247 1.268 . S
O262 Sc244 2.105 . S
O262 C246 1.268 . S
O263 Sc243 2.105 . S
O263 C248 1.268 . S
C264 C265 1.349 1_554 S
C264 C266 1.327 . S
C264 H289 0.950 . S
C265 C264 1.349 1_556 S
C265 C281 1.349 . S
C266 C264 1.327 . S
C266 C285 1.429 1_554 S
C266 H290 0.950 . S
C267 C284 1.574 . S
C267 C286 1.320 1_556 S
C267 H291 0.949 . S
H268 C272 0.949 . S
C269 C270 1.318 1_556 S
C269 C271 1.334 . S
C269 H292 0.976 . S
C270 C269 1.318 1_554 S
C270 C282 1.349 . S
C271 C269 1.334 . S
C271 C287 1.429 1_556 S
C271 H293 0.950 . S
C272 H268 0.949 . S
C272 C280 1.574 . S
C272 C288 1.368 . S
H273 C281 0.950 . S
H274 C279 0.950 . S
H275 C280 0.949 . S
H276 C282 0.950 . S
H277 C283 0.950 . S
H278 C284 0.949 . S
C279 H274 0.950 . S
C279 C281 1.327 . S
C279 C285 1.429 . S
C280 C272 1.574 . S
C280 H275 0.949 . S
C280 C286 1.425 . S
C281 C265 1.349 . S
C281 H273 0.950 . S
C281 C279 1.327 . S
C282 C270 1.349 . S
C282 H276 0.950 . S
C282 C283 1.327 . S
C283 H277 0.950 . S
C283 C282 1.327 . S
C283 C287 1.429 . S
C284 C267 1.574 . S
C284 H278 0.949 . S
C284 C288 1.368 1_556 S
C285 C266 1.429 1_556 S
C285 C279 1.429 . S
C285 C286 1.515 1_556 S
C286 C267 1.320 1_554 S
C286 C280 1.425 . S
C286 C285 1.515 1_554 S
C287 C271 1.429 1_554 S
C287 C283 1.429 . S
C287 C288 1.523 . S
C288 C272 1.368 . S
C288 C284 1.368 1_554 S
C288 C287 1.523 . S
H289 C264 0.950 . S
H290 C266 0.950 . S
H291 C267 0.949 . S
H292 C269 0.976 . S
H293 C271 0.950 . S
C294 C295 1.349 . S
C294 C296 1.327 . S
C294 H319 0.950 . S
C295 C294 1.349 . S
C295 C311 1.349 . S
C296 C294 1.327 . S
C296 C315 1.429 . S
C296 H320 0.950 . S
C297 C314 1.574 . S
C297 C316 1.368 . S
C297 H321 0.949 . S
H298 C302 0.949 . S
C299 C300 1.349 . S
C299 C301 1.327 . S
C299 H322 0.950 . S
C300 C299 1.349 . S
C300 C312 1.349 . S
C301 C299 1.327 . S
C301 C317 1.429 1_655 S
C301 H323 0.950 . S
C302 H298 0.949 . S
C302 C310 1.574 . S
C302 C318 1.368 . S
H303 C311 0.950 . S
H304 C309 0.950 . S
H305 C310 0.949 . S
H306 C312 0.950 . S
H307 C313 0.950 . S
H308 C314 0.949 . S
C309 H304 0.950 . S
C309 C311 1.327 . S
C309 C315 1.429 . S
C310 C302 1.574 . S
C310 H305 0.949 . S
C310 C316 1.368 . S
C311 C295 1.349 . S
C311 H303 0.950 . S
C311 C309 1.327 . S
C312 C300 1.349 . S
C312 H306 0.950 . S
C312 C313 1.327 1_655 S
C313 H307 0.950 . S
C313 C312 1.327 1_455 S
C313 C317 1.429 . S
C314 C297 1.574 . S
C314 H308 0.949 . S
C314 C318 1.368 . S
C315 C296 1.429 . S
C315 C309 1.429 . S
C315 C316 1.523 . S
C316 C297 1.368 . S
C316 C310 1.368 . S
C316 C315 1.523 . S
C317 C301 1.429 1_455 S
C317 C313 1.429 . S
C317 C318 1.523 . S
C318 C302 1.368 . S
C318 C314 1.368 . S
C318 C317 1.523 . S
H319 C294 0.950 . S
H320 C296 0.950 . S
H321 C297 0.949 . S
H322 C299 0.950 . S
H323 C301 0.950 . S
C324 C325 1.349 . S
C324 C326 1.327 . S
C324 H349 0.950 . S
C325 C324 1.349 . S
C325 C341 1.349 . S
C326 C324 1.327 . S
C326 C345 1.429 . S
C326 H350 0.950 . S
C327 C344 1.574 . S
C327 C346 1.368 . S
C327 H351 0.949 . S
H328 C332 0.949 . S
C329 C330 1.349 . S
C329 C331 1.327 . S
C329 H352 0.950 . S
C330 C329 1.349 . S
C330 C342 1.349 . S
C331 C329 1.327 . S
C331 C347 1.429 1_565 S
C331 H353 0.950 . S
C332 H328 0.949 . S
C332 C340 1.574 . S
C332 C348 1.368 . S
H333 C341 0.950 . S
H334 C339 0.950 . S
H335 C340 0.949 . S
H336 C342 0.950 . S
H337 C343 0.950 . S
H338 C344 0.949 . S
C339 H334 0.950 . S
C339 C341 1.327 . S
C339 C345 1.429 . S
C340 C332 1.574 . S
C340 H335 0.949 . S
C340 C346 1.368 . S
C341 C325 1.349 . S
C341 H333 0.950 . S
C341 C339 1.327 . S
C342 C330 1.349 . S
C342 H336 0.950 . S
C342 C343 1.327 1_565 S
C343 H337 0.950 . S
C343 C342 1.327 1_545 S
C343 C347 1.429 . S
C344 C327 1.574 . S
C344 H338 0.949 . S
C344 C348 1.368 . S
C345 C326 1.429 . S
C345 C339 1.429 . S
C345 C346 1.523 . S
C346 C327 1.368 . S
C346 C340 1.368 . S
C346 C345 1.523 . S
C347 C331 1.429 1_545 S
C347 C343 1.429 . S
C347 C348 1.523 . S
C348 C332 1.368 . S
C348 C344 1.368 . S
C348 C347 1.523 . S
H349 C324 0.950 . S
H350 C326 0.950 . S
H351 C327 0.949 . S
H352 C329 0.950 . S
H353 C331 0.950 . S
C354 C355 1.349 . S
C354 C356 1.327 . S
C354 H379 0.950 . S
C355 C354 1.349 . S
C355 C371 1.349 . S
C356 C354 1.327 . S
C356 C375 1.429 . S
C356 H380 0.950 . S
C357 C374 1.574 . S
C357 C376 1.368 . S
C357 H381 0.949 . S
H358 C362 0.949 . S
C359 C360 1.349 . S
C359 C361 1.327 . S
C359 H382 0.950 . S
C360 C359 1.349 . S
C360 C372 1.349 . S
C361 C359 1.327 . S
C361 C377 1.429 . S
C361 H383 0.950 . S
C362 H358 0.949 . S
C362 C370 1.574 . S
C362 C378 1.368 . S
H363 C371 0.950 . S
H364 C369 0.950 . S
H365 C370 0.949 . S
H366 C372 0.950 . S
H367 C373 0.950 . S
H368 C374 0.949 . S
C369 H364 0.950 . S
C369 C371 1.327 . S
C369 C375 1.429 . S
C370 C362 1.574 . S
C370 H365 0.949 . S
C370 C376 1.368 . S
C371 C355 1.349 . S
C371 H363 0.950 . S
C371 C369 1.327 . S
C372 C360 1.349 . S
C372 H366 0.950 . S
C372 C373 1.327 . S
C373 H367 0.950 . S
C373 C372 1.327 . S
C373 C377 1.429 . S
C374 C357 1.574 . S
C374 H368 0.949 . S
C374 C378 1.368 . S
C375 C356 1.429 . S
C375 C369 1.429 . S
C375 C376 1.523 . S
C376 C357 1.368 . S
C376 C370 1.368 . S
C376 C375 1.523 . S
C377 C361 1.429 . S
C377 C373 1.429 . S
C377 C378 1.523 . S
C378 C362 1.368 . S
C378 C374 1.368 . S
C378 C377 1.523 . S
H379 C354 0.950 . S
H380 C356 0.950 . S
H381 C357 0.949 . S
H382 C359 0.950 . S
H383 C361 0.950 . S
C384 C385 1.349 . S
C384 C386 1.327 . S
C384 H409 0.950 . S
C385 C384 1.349 . S
C385 C401 1.349 . S
C386 C384 1.327 . S
C386 C405 1.429 . S
C386 H410 0.950 . S
C387 C404 1.574 . S
C387 C406 1.368 . S
C387 H411 0.949 . S
H388 C392 0.949 1_455 S
C389 C390 1.349 . S
C389 C391 1.327 1_455 S
C389 H412 0.950 1_455 S
C390 C389 1.349 . S
C390 C402 1.349 . S
C391 C389 1.327 1_655 S
C391 C407 1.429 . S
C391 H413 0.950 . S
C392 H388 0.949 1_655 S
C392 C400 1.574 . S
C392 C408 1.368 . S
H393 C401 0.950 . S
H394 C399 0.950 . S
H395 C400 0.949 . S
H396 C402 0.950 . S
H397 C403 0.950 . S
H398 C404 0.949 . S
C399 H394 0.950 . S
C399 C401 1.327 . S
C399 C405 1.429 . S
C400 C392 1.574 . S
C400 H395 0.949 . S
C400 C406 1.368 . S
C401 C385 1.349 . S
C401 H393 0.950 . S
C401 C399 1.327 . S
C402 C390 1.349 . S
C402 H396 0.950 . S
C402 C403 1.327 . S
C403 H397 0.950 . S
C403 C402 1.327 . S
C403 C407 1.429 1_455 S
C404 C387 1.574 . S
C404 H398 0.949 . S
C404 C408 1.368 . S
C405 C386 1.429 . S
C405 C399 1.429 . S
C405 C406 1.523 . S
C406 C387 1.368 . S
C406 C400 1.368 . S
C406 C405 1.523 . S
C407 C391 1.429 . S
C407 C403 1.429 1_655 S
C407 C408 1.523 . S
C408 C392 1.368 . S
C408 C404 1.368 . S
C408 C407 1.523 . S
H409 C384 0.950 . S
H410 C386 0.950 . S
H411 C387 0.949 . S
H412 C389 0.950 1_655 S
H413 C391 0.950 . S
C414 C415 1.349 . S
C414 C416 1.327 . S
C414 H439 0.950 . S
C415 C414 1.349 . S
C415 C431 1.349 . S
C416 C414 1.327 . S
C416 C435 1.429 . S
C416 H440 0.950 . S
C417 C434 1.574 . S
C417 C436 1.368 . S
C417 H441 0.949 . S
H418 C422 0.949 . S
C419 C420 1.349 . S
C419 C421 1.327 1_545 S
C419 H442 0.950 . S
C420 C419 1.349 . S
C420 C432 1.349 . S
C421 C419 1.327 1_565 S
C421 C437 1.429 . S
C421 H443 0.950 . S
C422 H418 0.949 . S
C422 C430 1.574 . S
C422 C438 1.368 . S
H423 C431 0.950 . S
H424 C429 0.950 . S
H425 C430 0.949 . S
H426 C432 0.950 . S
H427 C433 0.950 . S
H428 C434 0.949 . S
C429 H424 0.950 . S
C429 C431 1.327 . S
C429 C435 1.429 . S
C430 C422 1.574 . S
C430 H425 0.949 . S
C430 C436 1.368 . S
C431 C415 1.349 . S
C431 H423 0.950 . S
C431 C429 1.327 . S
C432 C420 1.349 . S
C432 H426 0.950 . S
C432 C433 1.327 . S
C433 H427 0.950 . S
C433 C432 1.327 . S
C433 C437 1.429 1_545 S
C434 C417 1.574 . S
C434 H428 0.949 . S
C434 C438 1.368 . S
C435 C416 1.429 . S
C435 C429 1.429 . S
C435 C436 1.523 . S
C436 C417 1.368 . S
C436 C430 1.368 . S
C436 C435 1.523 . S
C437 C421 1.429 . S
C437 C433 1.429 1_565 S
C437 C438 1.523 . S
C438 C422 1.368 . S
C438 C434 1.368 . S
C438 C437 1.523 . S
H439 C414 0.950 . S
H440 C416 0.950 . S
H441 C417 0.949 . S
H442 C419 0.950 . S
H443 C421 0.950 . S
C444 C445 1.349 . S
C444 C446 1.327 . S
C444 H469 0.950 . S
C445 C444 1.349 . S
C445 C461 1.349 . S
C446 C444 1.327 . S
C446 C465 1.429 . S
C446 H470 0.950 . S
C447 C464 1.574 . S
C447 C466 1.368 . S
C447 H471 0.949 . S
H448 C452 0.949 . S
C449 C450 1.349 . S
C449 C451 1.327 . S
C449 H472 0.950 . S
C450 C449 1.349 . S
C450 C462 1.349 . S
C451 C449 1.327 . S
C451 C467 1.429 . S
C451 H473 0.950 . S
C452 H448 0.949 . S
C452 C460 1.574 . S
C452 C468 1.368 . S
H453 C461 0.950 . S
H454 C459 0.950 . S
H455 C460 0.949 . S
H456 C462 0.950 . S
H457 C463 0.950 . S
H458 C464 0.949 . S
C459 H454 0.950 . S
C459 C461 1.327 . S
C459 C465 1.429 . S
C460 C452 1.574 . S
C460 H455 0.949 . S
C460 C466 1.368 . S
C461 C445 1.349 . S
C461 H453 0.950 . S
C461 C459 1.327 . S
C462 C450 1.349 . S
C462 H456 0.950 . S
C462 C463 1.327 . S
C463 H457 0.950 . S
C463 C462 1.327 . S
C463 C467 1.429 . S
C464 C447 1.574 . S
C464 H458 0.949 . S
C464 C468 1.368 . S
C465 C446 1.429 . S
C465 C459 1.429 . S
C465 C466 1.523 . S
C466 C447 1.368 . S
C466 C460 1.368 . S
C466 C465 1.523 . S
C467 C451 1.429 . S
C467 C463 1.429 . S
C467 C468 1.523 . S
C468 C452 1.368 . S
C468 C464 1.368 . S
C468 C467 1.523 . S
H469 C444 0.950 . S
H470 C446 0.950 . S
H471 C447 0.949 . S
H472 C449 0.950 . S
H473 C451 0.950 . S
C474 C475 1.349 1_455 S
C474 C476 1.327 . S
C474 H499 0.950 . S
C475 C474 1.349 1_655 S
C475 C491 1.356 . S
C476 C474 1.327 . S
C476 C495 1.429 . S
C476 H500 0.950 . S
C477 C494 1.574 . S
C477 C496 1.368 1_554 S
C477 H501 0.949 1_455 S
H478 C482 0.949 . S
C479 C480 1.349 . S
C479 C481 1.327 . S
C479 H502 0.950 . S
C480 C479 1.349 . S
C480 C492 1.349 1_554 S
C481 C479 1.327 . S
C481 C497 1.429 . S
C481 H503 0.950 . S
C482 H478 0.949 . S
C482 C490 1.574 . S
C482 C498 1.323 1_556 S
H483 C491 0.944 1_554 S
H484 C489 0.950 . S
H485 C490 0.949 . S
H486 C492 0.950 . S
H487 C493 0.950 . S
H488 C494 0.949 . S
C489 H484 0.950 . S
C489 C491 1.325 1_554 S
C489 C495 1.429 1_654 S
C490 C482 1.574 . S
C490 H485 0.949 . S
C490 C496 1.368 . S
C491 C475 1.356 . S
C491 H483 0.944 1_556 S
C491 C489 1.325 1_556 S
C492 C480 1.349 1_556 S
C492 H486 0.950 . S
C492 C493 1.327 . S
C493 H487 0.950 . S
C493 C492 1.327 . S
C493 C497 1.429 1_556 S
C494 C477 1.574 . S
C494 H488 0.949 . S
C494 C498 1.409 . S
C495 C476 1.429 . S
C495 C489 1.429 1_456 S
C495 C496 1.523 . S
C496 C477 1.368 1_556 S
C496 C490 1.368 . S
C496 C495 1.523 . S
C497 C481 1.429 . S
C497 C493 1.429 1_554 S
C497 C498 1.535 . S
C498 C482 1.323 1_554 S
C498 C494 1.409 . S
C498 C497 1.535 . S
H499 C474 0.950 . S
H500 C476 0.950 . S
H501 C477 0.949 1_655 S
H502 C479 0.950 . S
H503 C481 0.950 . S
C504 C505 1.349 . S
C504 C506 1.327 1_565 S
C504 H529 0.950 1_565 S
C505 C504 1.349 . S
C505 C521 1.349 . S
C506 C504 1.327 1_545 S
C506 C525 1.429 . S
C506 H530 0.950 . S
C507 C524 1.574 . S
C507 C526 1.368 . S
C507 H531 0.949 1_545 S
H508 C512 0.949 . S
C509 C510 1.349 . S
C509 C511 1.327 . S
C509 H532 0.950 . S
C510 C509 1.349 . S
C510 C522 1.349 . S
C511 C509 1.327 . S
C511 C527 1.429 . S
C511 H533 0.950 . S
C512 H508 0.949 . S
C512 C520 1.574 . S
C512 C528 1.368 . S
H513 C521 0.950 . S
H514 C519 0.950 . S
H515 C520 0.949 . S
H516 C522 0.950 . S
H517 C523 0.950 . S
H518 C524 0.949 . S
C519 H514 0.950 . S
C519 C521 1.327 . S
C519 C525 1.429 1_565 S
C520 C512 1.574 . S
C520 H515 0.949 . S
C520 C526 1.368 . S
C521 C505 1.349 . S
C521 H513 0.950 . S
C521 C519 1.327 . S
C522 C510 1.349 . S
C522 H516 0.950 . S
C522 C523 1.327 . S
C523 H517 0.950 . S
C523 C522 1.327 . S
C523 C527 1.429 . S
C524 C507 1.574 . S
C524 H518 0.949 . S
C524 C528 1.368 . S
C525 C506 1.429 . S
C525 C519 1.429 1_545 S
C525 C526 1.523 . S
C526 C507 1.368 . S
C526 C520 1.368 . S
C526 C525 1.523 . S
C527 C511 1.429 . S
C527 C523 1.429 . S
C527 C528 1.523 . S
C528 C512 1.368 . S
C528 C524 1.368 . S
C528 C527 1.523 . S
H529 C504 0.950 1_545 S
H530 C506 0.950 . S
H531 C507 0.949 1_565 S
H532 C509 0.950 . S
H533 C511 0.950 . S
C534 C535 1.349 . S
C534 C536 1.327 . S
C534 H559 0.950 . S
C535 C534 1.349 . S
C535 C551 1.349 . S
C536 C534 1.327 . S
C536 C555 1.429 . S
C536 H560 0.950 . S
C537 C554 1.574 . S
C537 C556 1.368 . S
C537 H561 0.949 . S
H538 C542 0.949 . S
C539 C540 1.349 . S
C539 C541 1.327 . S
C539 H562 0.950 . S
C540 C539 1.349 . S
C540 C552 1.349 . S
C541 C539 1.327 . S
C541 C557 1.429 . S
C541 H563 0.950 . S
C542 H538 0.949 . S
C542 C550 1.574 . S
C542 C558 1.368 . S
H543 C551 0.950 . S
H544 C549 0.950 . S
H545 C550 0.949 . S
H546 C552 0.950 . S
H547 C553 0.950 . S
H548 C554 0.949 . S
C549 H544 0.950 . S
C549 C551 1.327 . S
C549 C555 1.429 . S
C550 C542 1.574 . S
C550 H545 0.949 . S
C550 C556 1.368 . S
C551 C535 1.349 . S
C551 H543 0.950 . S
C551 C549 1.327 . S
C552 C540 1.349 . S
C552 H546 0.950 . S
C552 C553 1.327 . S
C553 H547 0.950 . S
C553 C552 1.327 . S
C553 C557 1.429 . S
C554 C537 1.574 . S
C554 H548 0.949 . S
C554 C558 1.368 . S
C555 C536 1.429 . S
C555 C549 1.429 . S
C555 C556 1.523 . S
C556 C537 1.368 . S
C556 C550 1.368 . S
C556 C555 1.523 . S
C557 C541 1.429 . S
C557 C553 1.429 . S
C557 C558 1.523 . S
C558 C542 1.368 . S
C558 C554 1.368 . S
C558 C557 1.523 . S
H559 C534 0.950 . S
H560 C536 0.950 . S
H561 C537 0.949 . S
H562 C539 0.950 . S
H563 C541 0.950 . S
C564 C565 1.349 . S
C564 C566 1.327 1_455 S
C564 H589 0.950 . S
C565 C564 1.349 . S
C565 C581 1.349 . S
C566 C564 1.327 1_655 S
C566 C585 1.429 . S
C566 H590 0.950 . S
C567 C584 1.574 . S
C567 C586 1.368 . S
C567 H591 0.949 . S
H568 C572 0.949 . S
C569 C570 1.349 . S
C569 C571 1.327 . S
C569 H592 0.950 . S
C570 C569 1.349 . S
C570 C582 1.349 . S
C571 C569 1.327 . S
C571 C587 1.429 . S
C571 H593 0.950 . S
C572 H568 0.949 . S
C572 C580 1.574 . S
C572 C588 1.368 . S
H573 C581 0.950 . S
H574 C579 0.950 . S
H575 C580 0.949 . S
H576 C582 0.950 . S
H577 C583 0.950 . S
H578 C584 0.949 . S
C579 H574 0.950 . S
C579 C581 1.327 . S
C579 C585 1.429 1_455 S
C580 C572 1.574 . S
C580 H575 0.949 . S
C580 C586 1.368 . S
C581 C565 1.349 . S
C581 H573 0.950 . S
C581 C579 1.327 . S
C582 C570 1.349 . S
C582 H576 0.950 . S
C582 C583 1.327 . S
C583 H577 0.950 . S
C583 C582 1.327 . S
C583 C587 1.429 . S
C584 C567 1.574 . S
C584 H578 0.949 . S
C584 C588 1.368 . S
C585 C566 1.429 . S
C585 C579 1.429 1_655 S
C585 C586 1.523 . S
C586 C567 1.368 . S
C586 C580 1.368 . S
C586 C585 1.523 . S
C587 C571 1.429 . S
C587 C583 1.429 . S
C587 C588 1.523 . S
C588 C572 1.368 . S
C588 C584 1.368 . S
C588 C587 1.523 . S
H589 C564 0.950 . S
H590 C566 0.950 . S
H591 C567 0.949 . S
H592 C569 0.950 . S
H593 C571 0.950 . S
C594 C595 1.349 . S
C594 C596 1.327 . S
C594 H619 0.950 . S
C595 C594 1.349 . S
C595 C611 1.349 . S
C596 C594 1.327 . S
C596 C615 1.429 1_545 S
C596 H620 0.950 . S
C597 C614 1.574 . S
C597 C616 1.368 . S
C597 H621 0.949 . S
H598 C602 0.949 . S
C599 C600 1.349 . S
C599 C601 1.327 . S
C599 H622 0.950 . S
C600 C599 1.349 . S
C600 C612 1.349 . S
C601 C599 1.327 . S
C601 C617 1.429 . S
C601 H623 0.950 . S
C602 H598 0.949 . S
C602 C610 1.574 . S
C602 C618 1.368 . S
H603 C611 0.950 . S
H604 C609 0.950 . S
H605 C610 0.949 . S
H606 C612 0.950 . S
H607 C613 0.950 . S
H608 C614 0.949 . S
C609 H604 0.950 . S
C609 C611 1.327 1_565 S
C609 C615 1.429 . S
C610 C602 1.574 . S
C610 H605 0.949 . S
C610 C616 1.368 . S
C611 C595 1.349 . S
C611 H603 0.950 . S
C611 C609 1.327 1_545 S
C612 C600 1.349 . S
C612 H606 0.950 . S
C612 C613 1.327 . S
C613 H607 0.950 . S
C613 C612 1.327 . S
C613 C617 1.429 . S
C614 C597 1.574 . S
C614 H608 0.949 . S
C614 C618 1.368 . S
C615 C596 1.429 1_565 S
C615 C609 1.429 . S
C615 C616 1.523 . S
C616 C597 1.368 . S
C616 C610 1.368 . S
C616 C615 1.523 . S
C617 C601 1.429 . S
C617 C613 1.429 . S
C617 C618 1.523 . S
C618 C602 1.368 . S
C618 C614 1.368 . S
C618 C617 1.523 . S
H619 C594 0.950 . S
H620 C596 0.950 . S
H621 C597 0.949 . S
H622 C599 0.950 . S
H623 C601 0.950 . S
C624 C625 1.349 . S
C624 C626 1.327 . S
C624 H649 0.950 . S
C625 C624 1.349 . S
C625 C641 1.349 . S
C626 C624 1.327 . S
C626 C645 1.429 . S
C626 H650 0.950 . S
C627 C644 1.574 . S
C627 C646 1.368 . S
C627 H651 0.949 . S
H628 C632 0.949 . S
C629 C630 1.349 . S
C629 C631 1.327 . S
C629 H652 0.950 . S
C630 C629 1.349 . S
C630 C642 1.349 . S
C631 C629 1.327 . S
C631 C647 1.429 . S
C631 H653 0.950 . S
C632 H628 0.949 . S
C632 C640 1.574 . S
C632 C648 1.368 . S
H633 C641 0.950 . S
H634 C639 0.950 . S
H635 C640 0.949 . S
H636 C642 0.950 . S
H637 C643 0.950 . S
H638 C644 0.949 . S
C639 H634 0.950 . S
C639 C641 1.327 . S
C639 C645 1.429 . S
C640 C632 1.574 . S
C640 H635 0.949 . S
C640 C646 1.368 . S
C641 C625 1.349 . S
C641 H633 0.950 . S
C641 C639 1.327 . S
C642 C630 1.349 . S
C642 H636 0.950 . S
C642 C643 1.327 . S
C643 H637 0.950 . S
C643 C642 1.327 . S
C643 C647 1.429 . S
C644 C627 1.574 . S
C644 H638 0.949 . S
C644 C648 1.368 . S
C645 C626 1.429 . S
C645 C639 1.429 . S
C645 C646 1.523 . S
C646 C627 1.368 . S
C646 C640 1.368 . S
C646 C645 1.523 . S
C647 C631 1.429 . S
C647 C643 1.429 . S
C647 C648 1.523 . S
C648 C632 1.368 . S
C648 C644 1.368 . S
C648 C647 1.523 . S
H649 C624 0.950 . S
H650 C626 0.950 . S
H651 C627 0.949 . S
H652 C629 0.950 . S
H653 C631 0.950 . S
C654 C655 1.349 . S
C654 C656 1.327 . S
C654 H679 0.950 . S
C655 C654 1.349 . S
C655 C671 1.349 . S
C656 C654 1.327 . S
C656 C675 1.429 . S
C656 H680 0.950 1_655 S
C657 C674 1.574 . S
C657 C676 1.368 . S
C657 H681 0.949 . S
H658 C662 0.949 . S
C659 C660 1.349 . S
C659 C661 1.327 . S
C659 H682 0.950 . S
C660 C659 1.349 . S
C660 C672 1.349 . S
C661 C659 1.327 . S
C661 C677 1.429 . S
C661 H683 0.950 1_455 S
C662 H658 0.949 . S
C662 C670 1.574 . S
C662 C678 1.368 . S
H663 C671 0.950 . S
H664 C669 0.950 . S
H665 C670 0.949 . S
H666 C672 0.950 . S
H667 C673 0.950 . S
H668 C674 0.949 . S
C669 H664 0.950 . S
C669 C671 1.327 . S
C669 C675 1.429 . S
C670 C662 1.574 . S
C670 H665 0.949 . S
C670 C676 1.368 1_455 S
C671 C655 1.349 . S
C671 H663 0.950 . S
C671 C669 1.327 . S
C672 C660 1.349 . S
C672 H666 0.950 . S
C672 C673 1.327 . S
C673 H667 0.950 . S
C673 C672 1.327 . S
C673 C677 1.429 . S
C674 C657 1.574 . S
C674 H668 0.949 . S
C674 C678 1.368 1_655 S
C675 C656 1.429 . S
C675 C669 1.429 . S
C675 C676 1.523 . S
C676 C657 1.368 . S
C676 C670 1.368 1_655 S
C676 C675 1.523 . S
C677 C661 1.429 . S
C677 C673 1.429 . S
C677 C678 1.523 . S
C678 C662 1.368 . S
C678 C674 1.368 1_455 S
C678 C677 1.523 . S
H679 C654 0.950 . S
H680 C656 0.950 1_455 S
H681 C657 0.949 . S
H682 C659 0.950 . S
H683 C661 0.950 1_655 S
C684 C685 1.349 . S
C684 C686 1.327 . S
C684 H709 0.950 . S
C685 C684 1.349 . S
C685 C701 1.349 . S
C686 C684 1.327 . S
C686 C705 1.429 . S
C686 H710 0.950 . S
C687 C704 1.574 . S
C687 C706 1.368 1_565 S
C687 H711 0.949 . S
H688 C692 0.949 . S
C689 C690 1.349 . S
C689 C691 1.327 . S
C689 H712 0.950 . S
C690 C689 1.349 . S
C690 C702 1.349 . S
C691 C689 1.327 . S
C691 C707 1.429 . S
C691 H713 0.950 . S
C692 H688 0.949 . S
C692 C700 1.574 . S
C692 C708 1.368 1_545 S
H693 C701 0.950 . S
H694 C699 0.950 . S
H695 C700 0.949 . S
H696 C702 0.950 . S
H697 C703 0.950 . S
H698 C704 0.949 . S
C699 H694 0.950 . S
C699 C701 1.327 . S
C699 C705 1.429 . S
C700 C692 1.574 . S
C700 H695 0.949 . S
C700 C706 1.368 . S
C701 C685 1.349 . S
C701 H693 0.950 . S
C701 C699 1.327 . S
C702 C690 1.349 . S
C702 H696 0.950 . S
C702 C703 1.327 . S
C703 H697 0.950 . S
C703 C702 1.327 . S
C703 C707 1.429 . S
C704 C687 1.574 . S
C704 H698 0.949 . S
C704 C708 1.368 . S
C705 C686 1.429 . S
C705 C699 1.429 . S
C705 C706 1.523 . S
C706 C687 1.368 1_545 S
C706 C700 1.368 . S
C706 C705 1.523 . S
C707 C691 1.429 . S
C707 C703 1.429 . S
C707 C708 1.523 . S
C708 C692 1.368 1_565 S
C708 C704 1.368 . S
C708 C707 1.523 . S
H709 C684 0.950 . S
H710 C686 0.950 . S
H711 C687 0.949 . S
H712 C689 0.950 . S
H713 C691 0.950 . S
C714 C715 1.349 . S
C714 C716 1.327 . S
C714 H739 0.950 . S
C715 C714 1.349 . S
C715 C731 1.349 . S
C716 C714 1.327 . S
C716 C735 1.429 . S
C716 H740 0.950 . S
C717 C734 1.574 . S
C717 C736 1.368 . S
C717 H741 0.949 . S
H718 C722 0.949 . S
C719 C720 1.349 . S
C719 C721 1.327 . S
C719 H742 0.950 . S
C720 C719 1.349 . S
C720 C732 1.349 . S
C721 C719 1.327 . S
C721 C737 1.429 . S
C721 H743 0.950 . S
C722 H718 0.949 . S
C722 C730 1.574 . S
C722 C738 1.368 . S
H723 C731 0.950 . S
H724 C729 0.950 . S
H725 C730 0.949 . S
H726 C732 0.950 . S
H727 C733 0.950 . S
H728 C734 0.949 . S
C729 H724 0.950 . S
C729 C731 1.327 . S
C729 C735 1.429 . S
C730 C722 1.574 . S
C730 H725 0.949 . S
C730 C736 1.368 . S
C731 C715 1.349 . S
C731 H723 0.950 . S
C731 C729 1.327 . S
C732 C720 1.349 . S
C732 H726 0.950 . S
C732 C733 1.327 . S
C733 H727 0.950 . S
C733 C732 1.327 . S
C733 C737 1.429 . S
C734 C717 1.574 . S
C734 H728 0.949 . S
C734 C738 1.368 . S
C735 C716 1.429 . S
C735 C729 1.429 . S
C735 C736 1.523 . S
C736 C717 1.368 . S
C736 C730 1.368 . S
C736 C735 1.523 . S
C737 C721 1.429 . S
C737 C733 1.429 . S
C737 C738 1.523 . S
C738 C722 1.368 . S
C738 C734 1.368 . S
C738 C737 1.523 . S
H739 C714 0.950 . S
H740 C716 0.950 . S
H741 C717 0.949 . S
H742 C719 0.950 . S
H743 C721 0.950 . S
C744 C745 1.349 . S
C744 C746 1.327 . S
C744 H769 0.950 . S
C745 C744 1.349 . S
C745 C761 1.349 . S
C746 C744 1.327 . S
C746 C765 1.429 . S
C746 H770 0.950 . S
C747 C764 1.574 1_655 S
C747 C766 1.368 . S
C747 H771 0.949 . S
H748 C752 0.949 . S
C749 C750 1.349 . S
C749 C751 1.327 . S
C749 H772 0.950 . S
C750 C749 1.349 . S
C750 C762 1.349 . S
C751 C749 1.327 . S
C751 C767 1.429 . S
C751 H773 0.950 . S
C752 H748 0.949 . S
C752 C760 1.574 1_455 S
C752 C768 1.368 . S
H753 C761 0.950 . S
H754 C759 0.950 . S
H755 C760 0.949 . S
H756 C762 0.950 . S
H757 C763 0.950 . S
H758 C764 0.949 . S
C759 H754 0.950 . S
C759 C761 1.327 . S
C759 C765 1.429 . S
C760 C752 1.574 1_655 S
C760 H755 0.949 . S
C760 C766 1.368 . S
C761 C745 1.349 . S
C761 H753 0.950 . S
C761 C759 1.327 . S
C762 C750 1.349 . S
C762 H756 0.950 . S
C762 C763 1.327 . S
C763 H757 0.950 . S
C763 C762 1.327 . S
C763 C767 1.429 . S
C764 C747 1.574 1_455 S
C764 H758 0.949 . S
C764 C768 1.368 . S
C765 C746 1.429 . S
C765 C759 1.429 . S
C765 C766 1.523 . S
C766 C747 1.368 . S
C766 C760 1.368 . S
C766 C765 1.523 . S
C767 C751 1.429 . S
C767 C763 1.429 . S
C767 C768 1.523 . S
C768 C752 1.368 . S
C768 C764 1.368 . S
C768 C767 1.523 . S
H769 C744 0.950 . S
H770 C746 0.950 . S
H771 C747 0.949 . S
H772 C749 0.950 . S
H773 C751 0.950 . S
C774 C775 1.349 . S
C774 C776 1.327 . S
C774 H799 0.950 . S
C775 C774 1.349 . S
C775 C791 1.349 . S
C776 C774 1.327 . S
C776 C795 1.429 . S
C776 H800 0.950 1_545 S
C777 C794 1.574 . S
C777 C796 1.368 . S
C777 H801 0.949 . S
H778 C782 0.949 . S
C779 C780 1.349 . S
C779 C781 1.327 . S
C779 H802 0.950 . S
C780 C779 1.349 . S
C780 C792 1.349 . S
C781 C779 1.327 . S
C781 C797 1.429 . S
C781 H803 0.950 1_565 S
C782 H778 0.949 . S
C782 C790 1.574 . S
C782 C798 1.368 . S
H783 C791 0.950 . S
H784 C789 0.950 . S
H785 C790 0.949 . S
H786 C792 0.950 . S
H787 C793 0.950 . S
H788 C794 0.949 . S
C789 H784 0.950 . S
C789 C791 1.327 . S
C789 C795 1.429 . S
C790 C782 1.574 . S
C790 H785 0.949 . S
C790 C796 1.368 1_565 S
C791 C775 1.349 . S
C791 H783 0.950 . S
C791 C789 1.327 . S
C792 C780 1.349 . S
C792 H786 0.950 . S
C792 C793 1.327 . S
C793 H787 0.950 . S
C793 C792 1.327 . S
C793 C797 1.429 . S
C794 C777 1.574 . S
C794 H788 0.949 . S
C794 C798 1.368 1_545 S
C795 C776 1.429 . S
C795 C789 1.429 . S
C795 C796 1.523 . S
C796 C777 1.368 . S
C796 C790 1.368 1_545 S
C796 C795 1.523 . S
C797 C781 1.429 . S
C797 C793 1.429 . S
C797 C798 1.523 . S
C798 C782 1.368 . S
C798 C794 1.368 1_565 S
C798 C797 1.523 . S
H799 C774 0.950 . S
H800 C776 0.950 1_565 S
H801 C777 0.949 . S
H802 C779 0.950 . S
H803 C781 0.950 1_545 S
C804 C805 1.349 . S
C804 C806 1.327 . S
C804 H829 0.950 . S
C805 C804 1.349 . S
C805 C821 1.349 . S
C806 C804 1.327 . S
C806 C825 1.429 . S
C806 H830 0.950 . S
C807 C824 1.574 . S
C807 C826 1.368 . S
C807 H831 0.949 . S
H808 C812 0.949 . S
C809 C810 1.349 . S
C809 C811 1.327 . S
C809 H832 0.950 . S
C810 C809 1.349 . S
C810 C822 1.349 . S
C811 C809 1.327 . S
C811 C827 1.429 . S
C811 H833 0.950 . S
C812 H808 0.949 . S
C812 C820 1.574 . S
C812 C828 1.368 . S
H813 C821 0.950 . S
H814 C819 0.950 . S
H815 C820 0.949 . S
H816 C822 0.950 . S
H817 C823 0.950 . S
H818 C824 0.949 . S
C819 H814 0.950 . S
C819 C821 1.327 . S
C819 C825 1.429 . S
C820 C812 1.574 . S
C820 H815 0.949 . S
C820 C826 1.368 . S
C821 C805 1.349 . S
C821 H813 0.950 . S
C821 C819 1.327 . S
C822 C810 1.349 . S
C822 H816 0.950 . S
C822 C823 1.327 . S
C823 H817 0.950 . S
C823 C822 1.327 . S
C823 C827 1.429 . S
C824 C807 1.574 . S
C824 H818 0.949 . S
C824 C828 1.368 . S
C825 C806 1.429 . S
C825 C819 1.429 . S
C825 C826 1.523 . S
C826 C807 1.368 . S
C826 C820 1.368 . S
C826 C825 1.523 . S
C827 C811 1.429 . S
C827 C823 1.429 . S
C827 C828 1.523 . S
C828 C812 1.368 . S
C828 C824 1.368 . S
C828 C827 1.523 . S
H829 C804 0.950 . S
H830 C806 0.950 . S
H831 C807 0.949 . S
H832 C809 0.950 . S
H833 C811 0.950 . S
C834 C835 1.349 . S
C834 C836 1.327 . S
C834 H859 0.950 . S
C835 C834 1.349 . S
C835 C851 1.349 . S
C836 C834 1.327 . S
C836 C855 1.429 . S
C836 H860 0.950 . S
C837 C854 1.574 1_655 S
C837 C856 1.368 . S
C837 H861 0.949 . S
H838 C842 0.949 . S
C839 C840 1.349 . S
C839 C841 1.327 . S
C839 H862 0.950 . S
C840 C839 1.349 . S
C840 C852 1.349 . S
C841 C839 1.327 . S
C841 C857 1.429 . S
C841 H863 0.950 . S
C842 H838 0.949 . S
C842 C850 1.574 1_455 S
C842 C858 1.368 . S
H843 C851 0.950 . S
H844 C849 0.950 . S
H845 C850 0.949 . S
H846 C852 0.950 . S
H847 C853 0.950 . S
H848 C854 0.949 . S
C849 H844 0.950 . S
C849 C851 1.327 . S
C849 C855 1.429 . S
C850 C842 1.574 1_655 S
C850 H845 0.949 . S
C850 C856 1.368 . S
C851 C835 1.349 . S
C851 H843 0.950 . S
C851 C849 1.327 . S
C852 C840 1.349 . S
C852 H846 0.950 . S
C852 C853 1.327 . S
C853 H847 0.950 . S
C853 C852 1.327 . S
C853 C857 1.429 . S
C854 C837 1.574 1_455 S
C854 H848 0.949 . S
C854 C858 1.368 . S
C855 C836 1.429 . S
C855 C849 1.429 . S
C855 C856 1.523 . S
C856 C837 1.368 . S
C856 C850 1.368 . S
C856 C855 1.523 . S
C857 C841 1.429 . S
C857 C853 1.429 . S
C857 C858 1.523 . S
C858 C842 1.368 . S
C858 C854 1.368 . S
C858 C857 1.523 . S
H859 C834 0.950 . S
H860 C836 0.950 . S
H861 C837 0.949 . S
H862 C839 0.950 . S
H863 C841 0.950 . S
C864 C865 1.349 . S
C864 C866 1.327 . S
C864 H889 0.950 . S
C865 C864 1.349 . S
C865 C881 1.349 . S
C866 C864 1.327 . S
C866 C885 1.429 . S
C866 H890 0.950 . S
C867 C884 1.574 1_565 S
C867 C886 1.368 . S
C867 H891 0.949 . S
H868 C872 0.949 . S
C869 C870 1.349 . S
C869 C871 1.327 . S
C869 H892 0.950 . S
C870 C869 1.349 . S
C870 C882 1.349 . S
C871 C869 1.327 . S
C871 C887 1.429 . S
C871 H893 0.950 . S
C872 H868 0.949 . S
C872 C880 1.574 1_545 S
C872 C888 1.368 . S
H873 C881 0.950 . S
H874 C879 0.950 . S
H875 C880 0.949 . S
H876 C882 0.950 . S
H877 C883 0.950 . S
H878 C884 0.949 . S
C879 H874 0.950 . S
C879 C881 1.327 . S
C879 C885 1.429 . S
C880 C872 1.574 1_565 S
C880 H875 0.949 . S
C880 C886 1.368 . S
C881 C865 1.349 . S
C881 H873 0.950 . S
C881 C879 1.327 . S
C882 C870 1.349 . S
C882 H876 0.950 . S
C882 C883 1.327 . S
C883 H877 0.950 . S
C883 C882 1.327 . S
C883 C887 1.429 . S
C884 C867 1.574 1_545 S
C884 H878 0.949 . S
C884 C888 1.368 . S
C885 C866 1.429 . S
C885 C879 1.429 . S
C885 C886 1.523 . S
C886 C867 1.368 . S
C886 C880 1.368 . S
C886 C885 1.523 . S
C887 C871 1.429 . S
C887 C883 1.429 . S
C887 C888 1.523 . S
C888 C872 1.368 . S
C888 C884 1.368 . S
C888 C887 1.523 . S
H889 C864 0.950 . S
H890 C866 0.950 . S
H891 C867 0.949 . S
H892 C869 0.950 . S
H893 C871 0.950 . S
C894 C895 1.349 . S
C894 C896 1.327 . S
C894 H919 0.950 . S
C895 C894 1.349 . S
C895 C911 1.349 . S
C896 C894 1.327 . S
C896 C915 1.429 . S
C896 H920 0.950 . S
C897 C914 1.574 . S
C897 C916 1.368 . S
C897 H921 0.949 . S
H898 C902 0.949 . S
C899 C900 1.349 . S
C899 C901 1.327 . S
C899 H922 0.950 . S
C900 C899 1.349 . S
C900 C912 1.349 . S
C901 C899 1.327 . S
C901 C917 1.429 . S
C901 H923 0.950 . S
C902 H898 0.949 . S
C902 C910 1.574 . S
C902 C918 1.368 . S
H903 C911 0.950 . S
H904 C909 0.950 . S
H905 C910 0.949 . S
H906 C912 0.950 . S
H907 C913 0.950 . S
H908 C914 0.949 . S
C909 H904 0.950 . S
C909 C911 1.327 . S
C909 C915 1.429 . S
C910 C902 1.574 . S
C910 H905 0.949 . S
C910 C916 1.368 . S
C911 C895 1.349 . S
C911 H903 0.950 . S
C911 C909 1.327 . S
C912 C900 1.349 . S
C912 H906 0.950 . S
C912 C913 1.327 . S
C913 H907 0.950 . S
C913 C912 1.327 . S
C913 C917 1.429 . S
C914 C897 1.574 . S
C914 H908 0.949 . S
C914 C918 1.368 . S
C915 C896 1.429 . S
C915 C909 1.429 . S
C915 C916 1.523 . S
C916 C897 1.368 . S
C916 C910 1.368 . S
C916 C915 1.523 . S
C917 C901 1.429 . S
C917 C913 1.429 . S
C917 C918 1.523 . S
C918 C902 1.368 . S
C918 C914 1.368 . S
C918 C917 1.523 . S
H919 C894 0.950 . S
H920 C896 0.950 . S
H921 C897 0.949 . S
H922 C899 0.950 . S
H923 C901 0.950 . S
C924 C925 1.349 . S
C924 C926 1.327 . S
C924 H949 0.950 . S
C925 C924 1.349 . S
C925 C941 1.349 . S
C926 C924 1.327 . S
C926 C945 1.429 . S
C926 H950 0.950 . S
C927 C944 1.574 1_455 S
C927 C946 1.368 . S
C927 H951 0.949 . S
H928 C932 0.949 . S
C929 C930 1.349 . S
C929 C931 1.327 . S
C929 H952 0.950 . S
C930 C929 1.349 . S
C930 C942 1.349 . S
C931 C929 1.327 . S
C931 C947 1.429 . S
C931 H953 0.950 . S
C932 H928 0.949 . S
C932 C940 1.574 1_655 S
C932 C948 1.368 . S
H933 C941 0.950 . S
H934 C939 0.950 . S
H935 C940 0.949 . S
H936 C942 0.950 . S
H937 C943 0.950 . S
H938 C944 0.949 . S
C939 H934 0.950 . S
C939 C941 1.327 . S
C939 C945 1.429 . S
C940 C932 1.574 1_455 S
C940 H935 0.949 . S
C940 C946 1.368 . S
C941 C925 1.349 . S
C941 H933 0.950 . S
C941 C939 1.327 . S
C942 C930 1.349 . S
C942 H936 0.950 . S
C942 C943 1.327 . S
C943 H937 0.950 . S
C943 C942 1.327 . S
C943 C947 1.429 . S
C944 C927 1.574 1_655 S
C944 H938 0.949 . S
C944 C948 1.368 . S
C945 C926 1.429 . S
C945 C939 1.429 . S
C945 C946 1.523 . S
C946 C927 1.368 . S
C946 C940 1.368 . S
C946 C945 1.523 . S
C947 C931 1.429 . S
C947 C943 1.429 . S
C947 C948 1.523 . S
C948 C932 1.368 . S
C948 C944 1.368 . S
C948 C947 1.523 . S
H949 C924 0.950 . S
H950 C926 0.950 . S
H951 C927 0.949 . S
H952 C929 0.950 . S
H953 C931 0.950 . S
C954 C955 1.349 . S
C954 C956 1.327 . S
C954 H979 0.950 . S
C955 C954 1.349 . S
C955 C971 1.349 . S
C956 C954 1.327 . S
C956 C975 1.429 . S
C956 H980 0.950 . S
C957 C974 1.574 . S
C957 C976 1.368 1_545 S
C957 H981 0.949 . S
H958 C962 0.949 . S
C959 C960 1.349 . S
C959 C961 1.327 . S
C959 H982 0.950 . S
C960 C959 1.349 . S
C960 C972 1.349 . S
C961 C959 1.327 . S
C961 C977 1.429 . S
C961 H983 0.950 . S
C962 H958 0.949 . S
C962 C970 1.574 . S
C962 C978 1.368 1_565 S
H963 C971 0.950 . S
H964 C969 0.950 1_545 S
H965 C970 0.949 . S
H966 C972 0.950 . S
H967 C973 0.950 1_565 S
H968 C974 0.949 . S
C969 H964 0.950 1_565 S
C969 C971 1.327 . S
C969 C975 1.429 . S
C970 C962 1.574 . S
C970 H965 0.949 . S
C970 C976 1.368 . S
C971 C955 1.349 . S
C971 H963 0.950 . S
C971 C969 1.327 . S
C972 C960 1.349 . S
C972 H966 0.950 . S
C972 C973 1.327 . S
C973 H967 0.950 1_545 S
C973 C972 1.327 . S
C973 C977 1.429 . S
C974 C957 1.574 . S
C974 H968 0.949 . S
C974 C978 1.368 . S
C975 C956 1.429 . S
C975 C969 1.429 . S
C975 C976 1.523 . S
C976 C957 1.368 1_565 S
C976 C970 1.368 . S
C976 C975 1.523 . S
C977 C961 1.429 . S
C977 C973 1.429 . S
C977 C978 1.523 . S
C978 C962 1.368 1_545 S
C978 C974 1.368 . S
C978 C977 1.523 . S
H979 C954 0.950 . S
H980 C956 0.950 . S
H981 C957 0.949 . S
H982 C959 0.950 . S
H983 C961 0.950 . S
C984 C985 1.350 1_565 S
C984 C986 1.327 1_565 S
C984 H1009 0.950 . S
C985 C984 1.350 1_545 S
C985 C1001 1.365 . S
C986 C984 1.327 1_545 S
C986 C1005 1.429 . S
C986 H1010 0.950 1_545 S
C987 C1004 1.574 . S
C987 C1006 1.368 . S
C987 H1011 0.949 . S
H988 C992 0.949 . S
C989 C990 1.349 . S
C989 C991 1.327 . S
C989 H1012 0.950 . S
C990 C989 1.349 . S
C990 C1002 1.349 . S
C991 C989 1.327 . S
C991 C1007 1.429 . S
C991 H1013 0.950 . S
C992 H988 0.949 . S
C992 C1000 1.574 . S
C992 C1008 1.368 . S
H993 C1001 0.950 . S
H994 C999 0.950 . S
H995 C1000 0.949 . S
H996 C1002 0.950 . S
H997 C1003 0.950 . S
H998 C1004 0.949 . S
C999 H994 0.950 . S
C999 C1001 1.327 . S
C999 C1005 1.429 . S
C1000 C992 1.574 . S
C1000 H995 0.949 . S
C1000 C1006 1.368 . S
C1001 C985 1.365 . S
C1001 H993 0.950 . S
C1001 C999 1.327 . S
C1002 C990 1.349 . S
C1002 H996 0.950 . S
C1002 C1003 1.327 . S
C1003 H997 0.950 . S
C1003 C1002 1.327 . S
C1003 C1007 1.429 . S
C1004 C987 1.574 . S
C1004 H998 0.949 . S
C1004 C1008 1.368 . S
C1005 C986 1.429 . S
C1005 C999 1.429 . S
C1005 C1006 1.523 . S
C1006 C987 1.368 . S
C1006 C1000 1.368 . S
C1006 C1005 1.523 . S
C1007 C991 1.429 . S
C1007 C1003 1.429 . S
C1007 C1008 1.523 . S
C1008 C992 1.368 . S
C1008 C1004 1.368 . S
C1008 C1007 1.523 . S
H1009 C984 0.950 . S
H1010 C986 0.950 1_565 S
H1011 C987 0.949 . S
H1012 C989 0.950 . S
H1013 C991 0.950 . S
C1014 C1015 1.349 . S
C1014 C1016 1.327 . S
C1014 H1039 0.950 . S
C1015 C1014 1.349 . S
C1015 C1031 1.366 . S
C1016 C1014 1.327 . S
C1016 C1035 1.429 . S
C1016 H1040 0.950 . S
C1017 C1034 1.574 . S
C1017 C1036 1.368 . S
C1017 H1041 0.949 . S
H1018 C1022 0.949 . S
C1019 C1020 1.349 . S
C1019 C1021 1.327 . S
C1019 H1042 0.950 . S
C1020 C1019 1.349 . S
C1020 C1032 1.349 . S
C1021 C1019 1.327 . S
C1021 C1037 1.429 . S
C1021 H1043 0.950 . S
C1022 H1018 0.949 . S
C1022 C1030 1.574 . S
C1022 C1038 1.368 . S
H1023 C1031 0.950 . S
H1024 C1029 0.950 . S
H1025 C1030 0.949 . S
H1026 C1032 0.950 . S
H1027 C1033 0.950 . S
H1028 C1034 0.949 . S
C1029 H1024 0.950 . S
C1029 C1031 1.327 . S
C1029 C1035 1.429 . S
C1030 C1022 1.574 . S
C1030 H1025 0.949 . S
C1030 C1036 1.368 . S
C1031 C1015 1.366 . S
C1031 H1023 0.950 . S
C1031 C1029 1.327 . S
C1032 C1020 1.349 . S
C1032 H1026 0.950 . S
C1032 C1033 1.327 . S
C1033 H1027 0.950 . S
C1033 C1032 1.327 . S
C1033 C1037 1.429 . S
C1034 C1017 1.574 . S
C1034 H1028 0.949 . S
C1034 C1038 1.368 . S
C1035 C1016 1.429 . S
C1035 C1029 1.429 . S
C1035 C1036 1.523 . S
C1036 C1017 1.368 . S
C1036 C1030 1.368 . S
C1036 C1035 1.523 . S
C1037 C1021 1.429 . S
C1037 C1033 1.429 . S
C1037 C1038 1.523 . S
C1038 C1022 1.368 . S
C1038 C1034 1.368 . S
C1038 C1037 1.523 . S
H1039 C1014 0.950 . S
H1040 C1016 0.950 . S
H1041 C1017 0.949 . S
H1042 C1019 0.950 . S
H1043 C1021 0.950 . S
C1044 C1045 1.371 . S
C1044 C1046 1.327 . S
C1044 H1069 0.950 . S
C1045 C1044 1.371 . S
C1045 C1061 1.336 1_545 S
C1046 C1044 1.327 . S
C1046 C1065 1.429 . S
C1046 H1070 0.950 . S
C1047 C1064 1.574 . S
C1047 C1066 1.368 . S
C1047 H1071 0.949 . S
H1048 C1052 0.949 . S
C1049 C1050 1.349 . S
C1049 C1051 1.327 . S
C1049 H1072 0.950 . S
C1050 C1049 1.349 . S
C1050 C1062 1.358 . S
C1051 C1049 1.327 . S
C1051 C1067 1.429 . S
C1051 H1073 0.950 . S
C1052 H1048 0.949 . S
C1052 C1060 1.574 . S
C1052 C1068 1.368 . S
H1053 C1061 0.950 . S
H1054 C1059 0.950 1_565 S
H1055 C1060 0.949 . S
H1056 C1062 0.950 1_455 S
H1057 C1063 0.950 . S
H1058 C1064 0.949 . S
C1059 H1054 0.950 1_545 S
C1059 C1061 1.327 1_545 S
C1059 C1065 1.429 . S
C1060 C1052 1.574 . S
C1060 H1055 0.949 . S
C1060 C1066 1.368 . S
C1061 C1045 1.336 1_565 S
C1061 H1053 0.950 . S
C1061 C1059 1.327 1_565 S
C1062 C1050 1.358 . S
C1062 H1056 0.950 1_655 S
C1062 C1063 1.327 . S
C1063 H1057 0.950 . S
C1063 C1062 1.327 . S
C1063 C1067 1.429 . S
C1064 C1047 1.574 . S
C1064 H1058 0.949 . S
C1064 C1068 1.368 . S
C1065 C1046 1.429 . S
C1065 C1059 1.429 . S
C1065 C1066 1.523 . S
C1066 C1047 1.368 . S
C1066 C1060 1.368 . S
C1066 C1065 1.523 . S
C1067 C1051 1.429 . S
C1067 C1063 1.429 . S
C1067 C1068 1.523 . S
C1068 C1052 1.368 . S
C1068 C1064 1.368 . S
C1068 C1067 1.523 . S
H1069 C1044 0.950 . S
H1070 C1046 0.950 . S
H1071 C1047 0.949 . S
H1072 C1049 0.950 . S
H1073 C1051 0.950 . S
C1074 C1075 1.349 . S
C1074 C1076 1.327 . S
C1074 H1099 0.950 . S
C1075 C1074 1.349 . S
C1075 C1091 1.349 . S
C1076 C1074 1.327 . S
C1076 C1095 1.429 . S
C1076 H1100 0.950 . S
C1077 C1094 1.574 . S
C1077 C1096 1.368 . S
C1077 H1101 0.949 . S
H1078 C1082 0.949 . S
C1079 C1080 1.342 1_545 S
C1079 C1081 1.327 1_545 S
C1079 H1102 0.950 . S
C1080 C1079 1.342 1_565 S
C1080 C1092 1.372 . S
C1081 C1079 1.327 1_565 S
C1081 C1097 1.429 . S
C1081 H1103 0.950 . S
C1082 H1078 0.949 . S
C1082 C1090 1.574 . S
C1082 C1098 1.368 . S
H1083 C1091 0.950 . S
H1084 C1089 0.950 . S
H1085 C1090 0.949 . S
H1086 C1092 0.950 . S
H1087 C1093 0.950 . S
H1088 C1094 0.949 . S
C1089 H1084 0.950 . S
C1089 C1091 1.327 . S
C1089 C1095 1.429 . S
C1090 C1082 1.574 . S
C1090 H1085 0.949 . S
C1090 C1096 1.368 . S
C1091 C1075 1.349 . S
C1091 H1083 0.950 . S
C1091 C1089 1.327 . S
C1092 C1080 1.372 . S
C1092 H1086 0.950 . S
C1092 C1093 1.327 . S
C1093 H1087 0.950 . S
C1093 C1092 1.327 . S
C1093 C1097 1.429 . S
C1094 C1077 1.574 . S
C1094 H1088 0.949 . S
C1094 C1098 1.368 . S
C1095 C1076 1.429 . S
C1095 C1089 1.429 . S
C1095 C1096 1.523 . S
C1096 C1077 1.368 . S
C1096 C1090 1.368 . S
C1096 C1095 1.523 . S
C1097 C1081 1.429 . S
C1097 C1093 1.429 . S
C1097 C1098 1.523 . S
C1098 C1082 1.368 . S
C1098 C1094 1.368 . S
C1098 C1097 1.523 . S
H1099 C1074 0.950 . S
H1100 C1076 0.950 . S
H1101 C1077 0.949 . S
H1102 C1079 0.950 . S
H1103 C1081 0.950 . S
C1104 C1105 1.349 . S
C1104 C1106 1.327 . S
C1104 H1129 0.950 . S
C1105 C1104 1.349 . S
C1105 C1121 1.366 . S
C1106 C1104 1.327 . S
C1106 C1125 1.429 . S
C1106 H1130 0.950 . S
C1107 C1124 1.574 . S
C1107 C1126 1.368 . S
C1107 H1131 0.949 . S
H1108 C1112 0.949 . S
C1109 C1110 1.349 . S
C1109 C1111 1.327 . S
C1109 H1132 0.950 . S
C1110 C1109 1.349 . S
C1110 C1122 1.349 . S
C1111 C1109 1.327 . S
C1111 C1127 1.429 . S
C1111 H1133 0.950 . S
C1112 H1108 0.949 . S
C1112 C1120 1.574 . S
C1112 C1128 1.368 . S
H1113 C1121 0.950 . S
H1114 C1119 0.950 . S
H1115 C1120 0.949 . S
H1116 C1122 0.950 . S
H1117 C1123 0.950 . S
H1118 C1124 0.949 . S
C1119 H1114 0.950 . S
C1119 C1121 1.327 . S
C1119 C1125 1.429 . S
C1120 C1112 1.574 . S
C1120 H1115 0.949 . S
C1120 C1126 1.368 . S
C1121 C1105 1.366 . S
C1121 H1113 0.950 . S
C1121 C1119 1.327 . S
C1122 C1110 1.349 . S
C1122 H1116 0.950 . S
C1122 C1123 1.327 . S
C1123 H1117 0.950 . S
C1123 C1122 1.327 . S
C1123 C1127 1.429 . S
C1124 C1107 1.574 . S
C1124 H1118 0.949 . S
C1124 C1128 1.368 . S
C1125 C1106 1.429 . S
C1125 C1119 1.429 . S
C1125 C1126 1.523 . S
C1126 C1107 1.368 . S
C1126 C1120 1.368 . S
C1126 C1125 1.523 . S
C1127 C1111 1.429 . S
C1127 C1123 1.429 . S
C1127 C1128 1.523 . S
C1128 C1112 1.368 . S
C1128 C1124 1.368 . S
C1128 C1127 1.523 . S
H1129 C1104 0.950 . S
H1130 C1106 0.950 . S
H1131 C1107 0.949 . S
H1132 C1109 0.950 . S
H1133 C1111 0.950 . S
C1134 C1135 1.337 1_655 S
C1134 C1136 1.327 1_655 S
C1134 H1159 0.950 . S
C1135 C1134 1.337 1_455 S
C1135 C1151 1.370 . S
C1136 C1134 1.327 1_455 S
C1136 C1155 1.429 . S
C1136 H1160 0.950 1_455 S
C1137 C1154 1.574 . S
C1137 C1156 1.368 . S
C1137 H1161 0.949 . S
H1138 C1142 0.949 . S
C1139 C1140 1.356 . S
C1139 C1141 1.327 . S
C1139 H1162 0.950 1_565 S
C1140 C1139 1.356 . S
C1140 C1152 1.351 . S
C1141 C1139 1.327 . S
C1141 C1157 1.429 . S
C1141 H1163 0.950 . S
C1142 H1138 0.949 . S
C1142 C1150 1.574 . S
C1142 C1158 1.368 . S
H1143 C1151 0.950 . S
H1144 C1149 0.950 . S
H1145 C1150 0.949 . S
H1146 C1152 0.950 . S
H1147 C1153 0.950 . S
H1148 C1154 0.949 . S
C1149 H1144 0.950 . S
C1149 C1151 1.327 . S
C1149 C1155 1.429 . S
C1150 C1142 1.574 . S
C1150 H1145 0.949 . S
C1150 C1156 1.368 . S
C1151 C1135 1.370 . S
C1151 H1143 0.950 . S
C1151 C1149 1.327 . S
C1152 C1140 1.351 . S
C1152 H1146 0.950 . S
C1152 C1153 1.327 . S
C1153 H1147 0.950 . S
C1153 C1152 1.327 . S
C1153 C1157 1.429 . S
C1154 C1137 1.574 . S
C1154 H1148 0.949 . S
C1154 C1158 1.368 . S
C1155 C1136 1.429 . S
C1155 C1149 1.429 . S
C1155 C1156 1.523 . S
C1156 C1137 1.368 . S
C1156 C1150 1.368 . S
C1156 C1155 1.523 . S
C1157 C1141 1.429 . S
C1157 C1153 1.429 . S
C1157 C1158 1.523 . S
C1158 C1142 1.368 . S
C1158 C1154 1.368 . S
C1158 C1157 1.523 . S
H1159 C1134 0.950 . S
H1160 C1136 0.950 1_655 S
H1161 C1137 0.949 . S
H1162 C1139 0.950 1_545 S
H1163 C1141 0.950 . S
C1164 C1165 1.349 . S
C1164 C1166 1.327 . S
C1164 H1189 0.950 . S
C1165 C1164 1.349 . S
C1165 C1181 1.349 . S
C1166 C1164 1.327 . S
C1166 C1185 1.429 . S
C1166 H1190 0.950 . S
C1167 C1184 1.579 1_545 S
C1167 C1186 1.362 1_556 S
C1167 H1191 0.947 . S
H1168 C1172 0.949 . S
C1169 C1170 1.349 . S
C1169 C1171 1.327 1_655 S
C1169 H1192 0.950 1_655 S
C1170 C1169 1.349 . S
C1170 C1182 1.349 . S
C1171 C1169 1.327 1_455 S
C1171 C1187 1.429 1_455 S
C1171 H1193 0.950 . S
C1172 H1168 0.949 . S
C1172 C1180 1.574 1_665 S
C1172 C1188 1.368 1_654 S
H1173 C1181 0.950 . S
H1174 C1179 0.950 . S
H1175 C1180 0.949 1_655 S
H1176 C1182 0.950 . S
H1177 C1183 0.950 . S
H1178 C1184 0.949 . S
C1179 H1174 0.950 . S
C1179 C1181 1.327 . S
C1179 C1185 1.429 . S
C1180 C1172 1.574 1_445 S
C1180 H1175 0.949 1_455 S
C1180 C1186 1.368 . S
C1181 C1165 1.349 . S
C1181 H1173 0.950 . S
C1181 C1179 1.327 . S
C1182 C1170 1.349 . S
C1182 H1176 0.950 . S
C1182 C1183 1.327 . S
C1183 H1177 0.950 . S
C1183 C1182 1.327 . S
C1183 C1187 1.429 . S
C1184 C1167 1.579 1_565 S
C1184 H1178 0.949 . S
C1184 C1188 1.368 . S
C1185 C1166 1.429 . S
C1185 C1179 1.429 . S
C1185 C1186 1.523 . S
C1186 C1167 1.362 1_554 S
C1186 C1180 1.368 . S
C1186 C1185 1.523 . S
C1187 C1171 1.429 1_655 S
C1187 C1183 1.429 . S
C1187 C1188 1.523 1_655 S
C1188 C1172 1.368 1_456 S
C1188 C1184 1.368 . S
C1188 C1187 1.523 1_455 S
H1189 C1164 0.950 . S
H1190 C1166 0.950 . S
H1191 C1167 0.947 . S
H1192 C1169 0.950 1_455 S
H1193 C1171 0.950 . S
C1194 C1195 1.349 . S
C1194 C1196 1.327 . S
C1194 H1219 0.950 . S
C1195 C1194 1.349 . S
C1195 C1211 1.349 . S
C1196 C1194 1.327 . S
C1196 C1215 1.429 . S
C1196 H1220 0.950 . S
C1197 C1214 1.574 . S
C1197 C1216 1.368 . S
C1197 H1221 0.949 . S
H1198 C1202 0.949 . S
C1199 C1200 1.349 . S
C1199 C1201 1.327 . S
C1199 H1222 0.950 . S
C1200 C1199 1.349 . S
C1200 C1212 1.349 . S
C1201 C1199 1.327 . S
C1201 C1217 1.429 . S
C1201 H1223 0.950 . S
C1202 H1198 0.949 . S
C1202 C1210 1.574 . S
C1202 C1218 1.368 . S
H1203 C1211 0.950 . S
H1204 C1209 0.950 . S
H1205 C1210 0.949 . S
H1206 C1212 0.950 . S
H1207 C1213 0.959 . S
H1208 C1214 0.949 1_655 S
C1209 H1204 0.950 . S
C1209 C1211 1.327 . S
C1209 C1215 1.429 . S
C1210 C1202 1.574 . S
C1210 H1205 0.949 . S
C1210 C1216 1.368 . S
C1211 C1195 1.349 . S
C1211 H1203 0.950 . S
C1211 C1209 1.327 . S
C1212 C1200 1.349 . S
C1212 H1206 0.950 . S
C1212 C1213 1.327 . S
C1213 H1207 0.959 . S
C1213 C1212 1.327 . S
C1213 C1217 1.429 . S
C1214 C1197 1.574 . S
C1214 H1208 0.949 1_455 S
C1214 C1218 1.368 . S
C1215 C1196 1.429 . S
C1215 C1209 1.429 . S
C1215 C1216 1.523 1_565 S
C1216 C1197 1.368 . S
C1216 C1210 1.368 . S
C1216 C1215 1.523 1_545 S
C1217 C1201 1.429 . S
C1217 C1213 1.429 . S
C1217 C1218 1.523 1_655 S
C1218 C1202 1.368 . S
C1218 C1214 1.368 . S
C1218 C1217 1.523 1_455 S
H1219 C1194 0.950 . S
H1220 C1196 0.950 . S
H1221 C1197 0.949 . S
H1222 C1199 0.950 . S
H1223 C1201 0.950 . S
C1224 C1225 1.349 . S
C1224 C1226 1.327 . S
C1224 H1249 0.950 . S
C1225 C1224 1.349 . S
C1225 C1241 1.349 . S
C1226 C1224 1.327 . S
C1226 C1245 1.429 . S
C1226 H1250 0.950 . S
C1227 C1244 1.574 1_455 S
C1227 C1246 1.368 . S
C1227 H1251 0.949 . S
H1228 C1232 0.949 . S
C1229 C1230 1.349 . S
C1229 C1231 1.327 . S
C1229 H1252 0.950 . S
C1230 C1229 1.349 . S
C1230 C1242 1.349 . S
C1231 C1229 1.327 . S
C1231 C1247 1.429 . S
C1231 H1253 0.950 . S
C1232 H1228 0.949 . S
C1232 C1240 1.574 1_655 S
C1232 C1248 1.368 . S
H1233 C1241 0.950 . S
H1234 C1239 0.950 . S
H1235 C1240 0.949 . S
H1236 C1242 0.950 . S
H1237 C1243 0.950 . S
H1238 C1244 0.949 . S
C1239 H1234 0.950 . S
C1239 C1241 1.327 . S
C1239 C1245 1.429 . S
C1240 C1232 1.574 1_455 S
C1240 H1235 0.949 . S
C1240 C1246 1.368 . S
C1241 C1225 1.349 . S
C1241 H1233 0.950 . S
C1241 C1239 1.327 . S
C1242 C1230 1.349 . S
C1242 H1236 0.950 . S
C1242 C1243 1.327 . S
C1243 H1237 0.950 . S
C1243 C1242 1.327 . S
C1243 C1247 1.429 . S
C1244 C1227 1.574 1_655 S
C1244 H1238 0.949 . S
C1244 C1248 1.368 . S
C1245 C1226 1.429 . S
C1245 C1239 1.429 . S
C1245 C1246 1.523 . S
C1246 C1227 1.368 . S
C1246 C1240 1.368 . S
C1246 C1245 1.523 . S
C1247 C1231 1.429 . S
C1247 C1243 1.429 . S
C1247 C1248 1.523 1_565 S
C1248 C1232 1.368 . S
C1248 C1244 1.368 . S
C1248 C1247 1.523 1_545 S
H1249 C1224 0.950 . S
H1250 C1226 0.950 . S
H1251 C1227 0.949 . S
H1252 C1229 0.950 . S
H1253 C1231 0.950 . S
C1254 C1255 1.349 . S
C1254 C1256 1.327 . S
C1254 H1279 0.950 . S
C1255 C1254 1.349 . S
C1255 C1271 1.349 . S
C1256 C1254 1.327 . S
C1256 C1275 1.429 . S
C1256 H1280 0.950 1_455 S
C1257 C1274 1.574 1_545 S
C1257 C1276 1.368 . S
C1257 H1281 0.949 1_655 S
H1258 C1262 0.949 . S
C1259 C1260 1.349 . S
C1259 C1261 1.327 . S
C1259 H1282 0.950 . S
C1260 C1259 1.349 . S
C1260 C1272 1.349 . S
C1261 C1259 1.327 . S
C1261 C1277 1.429 . S
C1261 H1283 0.950 . S
C1262 H1258 0.949 . S
C1262 C1270 1.574 1_565 S
C1262 C1278 1.368 . S
H1263 C1271 0.950 . S
H1264 C1269 0.950 . S
H1265 C1270 0.949 . S
H1266 C1272 0.950 . S
H1267 C1273 0.950 . S
H1268 C1274 0.949 . S
C1269 H1264 0.950 . S
C1269 C1271 1.327 . S
C1269 C1275 1.429 . S
C1270 C1262 1.574 1_545 S
C1270 H1265 0.949 . S
C1270 C1276 1.368 . S
C1271 C1255 1.349 . S
C1271 H1263 0.950 . S
C1271 C1269 1.327 . S
C1272 C1260 1.349 . S
C1272 H1266 0.950 . S
C1272 C1273 1.327 . S
C1273 H1267 0.950 . S
C1273 C1272 1.327 . S
C1273 C1277 1.429 . S
C1274 C1257 1.574 1_565 S
C1274 H1268 0.949 . S
C1274 C1278 1.368 . S
C1275 C1256 1.429 . S
C1275 C1269 1.429 . S
C1275 C1276 1.523 1_455 S
C1276 C1257 1.368 . S
C1276 C1270 1.368 . S
C1276 C1275 1.523 1_655 S
C1277 C1261 1.429 . S
C1277 C1273 1.429 . S
C1277 C1278 1.523 . S
C1278 C1262 1.368 . S
C1278 C1274 1.368 . S
C1278 C1277 1.523 . S
H1279 C1254 0.950 . S
H1280 C1256 0.950 1_655 S
H1281 C1257 0.949 1_455 S
H1282 C1259 0.950 . S
H1283 C1261 0.950 . S
C1284 C1285 1.349 . S
C1284 C1286 1.327 . S
C1284 H1309 0.950 . S
C1285 C1284 1.349 . S
C1285 C1301 1.349 . S
C1286 C1284 1.327 . S
C1286 C1305 1.429 . S
C1286 H1310 0.950 . S
C1287 C1304 1.574 . S
C1287 C1306 1.368 . S
C1287 H1311 0.949 . S
H1288 C1292 0.949 1_455 S
C1289 C1290 1.349 . S
C1289 C1291 1.327 1_545 S
C1289 H1312 0.950 1_545 S
C1290 C1289 1.349 . S
C1290 C1302 1.349 . S
C1291 C1289 1.327 1_565 S
C1291 C1307 1.429 1_565 S
C1291 H1313 0.950 . S
C1292 H1288 0.949 1_655 S
C1292 C1300 1.574 1_645 S
C1292 C1308 1.368 1_545 S
H1293 C1301 0.950 1_655 S
H1294 C1299 0.950 . S
H1295 C1300 0.949 1_545 S
H1296 C1302 0.950 . S
H1297 C1303 0.950 . S
H1298 C1304 0.949 . S
C1299 H1294 0.950 . S
C1299 C1301 1.327 1_655 S
C1299 C1305 1.429 1_655 S
C1300 C1292 1.574 1_465 S
C1300 H1295 0.949 1_565 S
C1300 C1306 1.368 1_455 S
C1301 C1285 1.349 . S
C1301 H1293 0.950 1_455 S
C1301 C1299 1.327 1_455 S
C1302 C1290 1.349 . S
C1302 H1296 0.950 . S
C1302 C1303 1.327 . S
C1303 H1297 0.950 . S
C1303 C1302 1.327 . S
C1303 C1307 1.429 . S
C1304 C1287 1.574 . S
C1304 H1298 0.949 . S
C1304 C1308 1.368 . S
C1305 C1286 1.429 . S
C1305 C1299 1.429 1_455 S
C1305 C1306 1.523 1_455 S
C1306 C1287 1.368 . S
C1306 C1300 1.368 1_655 S
C1306 C1305 1.523 1_655 S
C1307 C1291 1.429 1_545 S
C1307 C1303 1.429 . S
C1307 C1308 1.523 1_545 S
C1308 C1292 1.368 1_565 S
C1308 C1304 1.368 . S
C1308 C1307 1.523 1_565 S
H1309 C1284 0.950 . S
H1310 C1286 0.950 . S
H1311 C1287 0.949 . S
H1312 C1289 0.950 1_565 S
H1313 C1291 0.950 . S
C1314 C1315 1.349 . S
C1314 C1316 1.327 . S
C1314 H1339 0.950 . S
C1315 C1314 1.349 . S
C1315 C1331 1.349 . S
C1316 C1314 1.327 . S
C1316 C1335 1.429 . S
C1316 H1340 0.950 . S
C1317 C1334 1.574 1_455 S
C1317 C1336 1.368 . S
C1317 H1341 0.949 . S
H1318 C1322 0.949 . S
C1319 C1320 1.349 . S
C1319 C1321 1.327 . S
C1319 H1342 0.950 . S
C1320 C1319 1.349 . S
C1320 C1332 1.349 . S
C1321 C1319 1.327 . S
C1321 C1337 1.429 . S
C1321 H1343 0.950 . S
C1322 H1318 0.949 . S
C1322 C1330 1.574 1_655 S
C1322 C1338 1.368 . S
H1323 C1331 0.950 . S
H1324 C1329 0.950 . S
H1325 C1330 0.949 1_545 S
H1326 C1332 0.950 . S
H1327 C1333 0.950 . S
H1328 C1334 0.949 . S
C1329 H1324 0.950 . S
C1329 C1331 1.327 . S
C1329 C1335 1.429 . S
C1330 C1322 1.574 1_455 S
C1330 H1325 0.949 1_565 S
C1330 C1336 1.368 . S
C1331 C1315 1.349 . S
C1331 H1323 0.950 . S
C1331 C1329 1.327 . S
C1332 C1320 1.349 . S
C1332 H1326 0.950 . S
C1332 C1333 1.327 . S
C1333 H1327 0.950 . S
C1333 C1332 1.327 . S
C1333 C1337 1.429 . S
C1334 C1317 1.574 1_655 S
C1334 H1328 0.949 . S
C1334 C1338 1.368 . S
C1335 C1316 1.429 . S
C1335 C1329 1.429 . S
C1335 C1336 1.523 1_545 S
C1336 C1317 1.368 . S
C1336 C1330 1.368 . S
C1336 C1335 1.523 1_565 S
C1337 C1321 1.429 . S
C1337 C1333 1.429 . S
C1337 C1338 1.523 . S
C1338 C1322 1.368 . S
C1338 C1334 1.368 . S
C1338 C1337 1.523 . S
H1339 C1314 0.950 . S
H1340 C1316 0.950 . S
H1341 C1317 0.949 . S
H1342 C1319 0.950 . S
H1343 C1321 0.950 . S
C265 C163 1.907 . S
C270 C8 1.967 . S
C295 C185 1.907 . S
C300 C26 1.967 . S
C325 C207 1.907 . S
C330 C52 1.967 . S
C355 C229 1.907 . S
C360 C70 1.967 . S
C385 C247 1.907 . S
C390 C96 1.967 . S
C415 C141 1.907 . S
C420 C114 1.966 . S
C445 C140 1.967 . S
C450 C115 1.907 . S
C475 C162 1.966 . S
C480 C9 1.907 . S
C505 C184 1.967 . S
C510 C27 1.907 . S
C535 C206 1.967 . S
C540 C53 1.907 . S
C565 C228 1.966 . S
C570 C71 1.907 . S
C595 C246 1.967 . S
C600 C97 1.907 . S
C625 C7 1.349 . S
C630 C117 1.391 . S
C655 C28 1.349 . S
C660 C6 1.392 . S
C685 C29 1.391 . S
C690 C51 1.349 . S
C715 C50 1.391 . S
C720 C72 1.349 . S
C745 C73 1.392 . S
C750 C95 1.349 . S
C775 C116 1.349 . S
C780 C94 1.391 . S
C805 C139 1.349 . S
C810 C160 1.391 . S
C835 C161 1.349 . S
C840 C182 1.391 . S
C865 C183 1.349 . S
C870 C204 1.391 . S
C895 C205 1.349 . S
C900 C226 1.391 . S
C925 C227 1.349 . S
C930 C249 1.391 . S
C955 C138 1.391 . S
C960 C248 1.349 . S
C985 C180 1.208 1_545 S
C990 C4 1.224 . S
C1015 C30 1.209 1_455 S
C1020 C202 1.224 . S
C1045 C48 1.216 1_545 S
C1050 C224 1.216 1_655 S
C1075 C74 1.224 . S
C1080 C250 1.208 1_565 S
C1105 C92 1.209 1_655 S
C1110 C136 1.224 . S
C1135 C158 1.215 1_455 S
C1140 C118 1.215 1_565 S
C1165 C5 0.680 . S
C1170 C159 0.680 . S
C1195 C181 0.680 . S
C1200 C31 0.680 . S
C1225 C203 0.680 . S
C1230 C49 0.680 . S
C1255 C225 0.680 . S
C1260 C75 0.680 . S
C1285 C93 0.680 . S
C1290 C251 0.680 . S
C1315 C119 0.680 . S
C1320 C137 0.680 . S
