# Generated by pormake.
# Topology yff, (5)-cn, num edge types: 1
# Building blocks:
#     Node 0, Type 0, BuildingBlock: BEQFEK_clean_sbu_0, # of connection points: 5
#     Node 1, Type 0, BuildingBlock: BEQFEK_clean_sbu_0, # of connection points: 5
#     Node 2, Type 0, BuildingBlock: BEQFEK_clean_sbu_0, # of connection points: 5
#     Node 3, Type 0, BuildingBlock: BEQFEK_clean_sbu_0, # of connection points: 5
#     Node 4, Type 0, BuildingBlock: BEQFEK_clean_sbu_0, # of connection points: 5
#     Node 5, Type 0, BuildingBlock: BEQFEK_clean_sbu_0, # of connection points: 5
#     Node 6, Type 0, BuildingBlock: BEQFEK_clean_sbu_0, # of connection points: 5
#     Node 7, Type 0, BuildingBlock: BEQFEK_clean_sbu_0, # of connection points: 5
#     Node 8, Type 0, BuildingBlock: BEQFEK_clean_sbu_0, # of connection points: 5
#     Node 9, Type 0, BuildingBlock: BEQFEK_clean_sbu_0, # of connection points: 5
#     Node 10, Type 0, BuildingBlock: BEQFEK_clean_sbu_0, # of connection points: 5
#     Node 11, Type 0, BuildingBlock: BEQFEK_clean_sbu_0, # of connection points: 5
#     Node 12, Type 0, BuildingBlock: BEQFEK_clean_sbu_0, # of connection points: 5
#     Node 13, Type 0, BuildingBlock: BEQFEK_clean_sbu_0, # of connection points: 5
#     Node 14, Type 0, BuildingBlock: BEQFEK_clean_sbu_0, # of connection points: 5
#     Node 15, Type 0, BuildingBlock: BEQFEK_clean_sbu_0, # of connection points: 5
#     Edge 16, Type (0, 0), BuildingBlock: ZUJKAS_clean_linker_0, # of connection points: 2
#     Edge 17, Type (0, 0), BuildingBlock: ZUJKAS_clean_linker_0, # of connection points: 2
#     Edge 18, Type (0, 0), BuildingBlock: ZUJKAS_clean_linker_0, # of connection points: 2
#     Edge 19, Type (0, 0), BuildingBlock: ZUJKAS_clean_linker_0, # of connection points: 2
#     Edge 20, Type (0, 0), BuildingBlock: ZUJKAS_clean_linker_0, # of connection points: 2
#     Edge 21, Type (0, 0), BuildingBlock: ZUJKAS_clean_linker_0, # of connection points: 2
#     Edge 22, Type (0, 0), BuildingBlock: ZUJKAS_clean_linker_0, # of connection points: 2
#     Edge 23, Type (0, 0), BuildingBlock: ZUJKAS_clean_linker_0, # of connection points: 2
#     Edge 24, Type (0, 0), BuildingBlock: ZUJKAS_clean_linker_0, # of connection points: 2
#     Edge 25, Type (0, 0), BuildingBlock: ZUJKAS_clean_linker_0, # of connection points: 2
#     Edge 26, Type (0, 0), BuildingBlock: ZUJKAS_clean_linker_0, # of connection points: 2
#     Edge 27, Type (0, 0), BuildingBlock: ZUJKAS_clean_linker_0, # of connection points: 2
#     Edge 28, Type (0, 0), BuildingBlock: ZUJKAS_clean_linker_0, # of connection points: 2
#     Edge 29, Type (0, 0), BuildingBlock: ZUJKAS_clean_linker_0, # of connection points: 2
#     Edge 30, Type (0, 0), BuildingBlock: ZUJKAS_clean_linker_0, # of connection points: 2
#     Edge 31, Type (0, 0), BuildingBlock: ZUJKAS_clean_linker_0, # of connection points: 2
#     Edge 32, Type (0, 0), BuildingBlock: ZUJKAS_clean_linker_0, # of connection points: 2
#     Edge 33, Type (0, 0), BuildingBlock: ZUJKAS_clean_linker_0, # of connection points: 2
#     Edge 34, Type (0, 0), BuildingBlock: ZUJKAS_clean_linker_0, # of connection points: 2
#     Edge 35, Type (0, 0), BuildingBlock: ZUJKAS_clean_linker_0, # of connection points: 2
#     Edge 36, Type (0, 0), BuildingBlock: ZUJKAS_clean_linker_0, # of connection points: 2
#     Edge 37, Type (0, 0), BuildingBlock: ZUJKAS_clean_linker_0, # of connection points: 2
#     Edge 38, Type (0, 0), BuildingBlock: ZUJKAS_clean_linker_0, # of connection points: 2
#     Edge 39, Type (0, 0), BuildingBlock: ZUJKAS_clean_linker_0, # of connection points: 2
#     Edge 40, Type (0, 0), BuildingBlock: ZUJKAS_clean_linker_0, # of connection points: 2
#     Edge 41, Type (0, 0), BuildingBlock: ZUJKAS_clean_linker_0, # of connection points: 2
#     Edge 42, Type (0, 0), BuildingBlock: ZUJKAS_clean_linker_0, # of connection points: 2
#     Edge 43, Type (0, 0), BuildingBlock: ZUJKAS_clean_linker_0, # of connection points: 2
#     Edge 44, Type (0, 0), BuildingBlock: ZUJKAS_clean_linker_0, # of connection points: 2
#     Edge 45, Type (0, 0), BuildingBlock: ZUJKAS_clean_linker_0, # of connection points: 2
#     Edge 46, Type (0, 0), BuildingBlock: ZUJKAS_clean_linker_0, # of connection points: 2
#     Edge 47, Type (0, 0), BuildingBlock: ZUJKAS_clean_linker_0, # of connection points: 2
#     Edge 48, Type (0, 0), BuildingBlock: ZUJKAS_clean_linker_0, # of connection points: 2
#     Edge 49, Type (0, 0), BuildingBlock: ZUJKAS_clean_linker_0, # of connection points: 2
#     Edge 50, Type (0, 0), BuildingBlock: ZUJKAS_clean_linker_0, # of connection points: 2
#     Edge 51, Type (0, 0), BuildingBlock: ZUJKAS_clean_linker_0, # of connection points: 2
#     Edge 52, Type (0, 0), BuildingBlock: ZUJKAS_clean_linker_0, # of connection points: 2
#     Edge 53, Type (0, 0), BuildingBlock: ZUJKAS_clean_linker_0, # of connection points: 2
#     Edge 54, Type (0, 0), BuildingBlock: ZUJKAS_clean_linker_0, # of connection points: 2
#     Edge 55, Type (0, 0), BuildingBlock: ZUJKAS_clean_linker_0, # of connection points: 2
# Relax obj value: 0.513
# Max RMSD: 0.285
# Mean RMSD: 0.274
data_MOF--net-yff--node1-BEQFEK_clean_sbu_0--edge1-ZUJKAS_clean_linker_0
_symmetry_space_group_name_H-M    P1
_symmetry_Int_Tables_number       1
_symmetry_cell_setting            triclinic
loop_
_symmetry_equiv_pos_as_xyz
'x, y, z'
_cell_length_a     84.258181
_cell_length_b     82.014128
_cell_length_c     35.289595
_cell_angle_alpha  89.408925
_cell_angle_beta   89.501387
_cell_angle_gamma 88.939708
loop_
_atom_site_label
_atom_site_type_symbol
_atom_site_fract_x
_atom_site_fract_y
_atom_site_fract_z
_atom_type_partial_charge
Co0 Co 0.07887 0.03037 0.30865 0.0
Co1 Co 0.11516 0.02812 0.29039 0.0
C2 C 0.09419 0.00011 0.27625 0.0
O3 O 0.08223 0.00859 0.28697 0.0
O4 O 0.10816 0.00576 0.27692 0.0
C5 C 0.04691 0.02052 0.3249 0.0
O6 O 0.04962 0.00951 0.29875 0.0
C7 C 0.14838 0.01783 0.29888 0.0
C8 C 0.16074 0.03688 0.26581 0.0
C9 C 0.16326 0.02283 0.28717 0.0
N10 N 0.13754 0.02851 0.28513 0.0
N11 N 0.14499 0.03984 0.26535 0.0
C12 C 0.14433 0.00255 0.32012 0.0
H13 H 0.13148 0.00237 0.32717 0.0
H14 H 0.15125 0.0015 0.3466 0.0
H15 H 0.14751 0.99184 0.30244 0.0
C16 C 0.09098 0.03769 0.38439 0.0
N17 N 0.0935 0.03396 0.3478 0.0
N18 N 0.10886 0.03359 0.3407 0.0
C19 C 0.1166 0.03753 0.37266 0.0
C20 C 0.10548 0.03998 0.40139 0.0
C21 C 0.07488 0.03995 0.40211 0.0
H22 H 0.06794 0.04905 0.38534 0.0
H23 H 0.06855 0.02821 0.40161 0.0
H24 H 0.07555 0.04419 0.43178 0.0
O25 O 0.08071 0.047 0.2684 0.0
O26 O 0.10635 0.04464 0.2539 0.0
H27 H 0.13893 0.04538 0.34999 0.0
H28 H 0.13735 0.04622 0.40117 0.0
C29 C 0.13418 0.03922 0.37568 0.0
H30 H 0.13978 0.02692 0.37798 0.0
H31 H 0.13932 0.04959 0.25145 0.0
O32 O 0.05735 0.03109 0.33126 0.0
C33 C 0.09269 0.05117 0.24855 0.0
Co34 Co 0.4524 0.07866 0.85269 0.0
Co35 Co 0.45385 0.11448 0.823 0.0
C36 C 0.48251 0.09255 0.82156 0.0
O37 O 0.47458 0.0811 0.83646 0.0
O38 O 0.47605 0.10634 0.81409 0.0
C39 C 0.4604 0.04583 0.86915 0.0
O40 O 0.46765 0.04688 0.83611 0.0
C41 C 0.4647 0.14768 0.82348 0.0
C42 C 0.44505 0.16139 0.79603 0.0
C43 C 0.45961 0.16324 0.81333 0.0
N44 N 0.45368 0.13713 0.8127 0.0
N45 N 0.44203 0.14533 0.79589 0.0
C46 C 0.47891 0.14296 0.84657 0.0
H47 H 0.47679 0.1314 0.86229 0.0
H48 H 0.48177 0.15271 0.86686 0.0
H49 H 0.48926 0.14106 0.82733 0.0
C50 C 0.44113 0.09499 0.92163 0.0
N51 N 0.44648 0.09552 0.8857 0.0
N52 N 0.44677 0.11076 0.87379 0.0
C53 C 0.44124 0.12046 0.90191 0.0
C54 C 0.43769 0.11074 0.93314 0.0
C55 C 0.43864 0.07956 0.94375 0.0
H56 H 0.43115 0.07129 0.92718 0.0
H57 H 0.45028 0.07335 0.94836 0.0
H58 H 0.43284 0.08187 0.97158 0.0
O59 O 0.43828 0.07827 0.80835 0.0
O60 O 0.43946 0.10382 0.7869 0.0
H61 H 0.43277 0.14178 0.87236 0.0
H62 H 0.43232 0.14349 0.92348 0.0
C63 C 0.43909 0.13856 0.89889 0.0
H64 H 0.4509 0.1443 0.89792 0.0
H65 H 0.43182 0.14001 0.78538 0.0
O66 O 0.45196 0.05782 0.88052 0.0
C67 C 0.43427 0.08935 0.78451 0.0
Co68 Co 0.40872 0.46259 0.34765 0.0
Co69 Co 0.37297 0.46283 0.32548 0.0
C70 C 0.39284 0.49267 0.3179 0.0
O71 O 0.40485 0.48518 0.33138 0.0
O72 O 0.37975 0.48556 0.31288 0.0
C73 C 0.44056 0.47189 0.36099 0.0
O74 O 0.43828 0.48124 0.33099 0.0
C75 C 0.33995 0.47265 0.33733 0.0
C76 C 0.32721 0.45503 0.30232 0.0
C77 C 0.3249 0.46808 0.32655 0.0
N78 N 0.35061 0.46262 0.32057 0.0
N79 N 0.34295 0.45215 0.29959 0.0
C80 C 0.34424 0.48679 0.36152 0.0
H81 H 0.35672 0.49025 0.35665 0.0
H82 H 0.34295 0.4834 0.39184 0.0
H83 H 0.33622 0.49738 0.35567 0.0
C84 C 0.39554 0.45148 0.42047 0.0
N85 N 0.39362 0.45675 0.3846 0.0
N86 N 0.37854 0.45606 0.37554 0.0
C87 C 0.37045 0.44963 0.40523 0.0
C88 C 0.38095 0.44687 0.43474 0.0
C89 C 0.41128 0.44978 0.43964 0.0
H90 H 0.41911 0.44147 0.42299 0.0
H91 H 0.41695 0.46188 0.44048 0.0
H92 H 0.41014 0.44488 0.46893 0.0
O93 O 0.40824 0.44749 0.30407 0.0
O94 O 0.38269 0.4474 0.28872 0.0
H95 H 0.35022 0.4404 0.37629 0.0
H96 H 0.3508 0.43555 0.42643 0.0
C97 C 0.35336 0.44501 0.40462 0.0
H98 H 0.34582 0.45587 0.41087 0.0
H99 H 0.34847 0.44301 0.28352 0.0
O100 O 0.4298 0.4621 0.3712 0.0
C101 C 0.39698 0.44248 0.28352 0.0
Co102 Co 0.01067 0.36687 0.82315 0.0
Co103 Co 0.04202 0.36009 0.86823 0.0
C104 C 0.01943 0.33346 0.85114 0.0
O105 O 0.00996 0.34322 0.83398 0.0
O106 O 0.03226 0.33842 0.86551 0.0
C107 C 0.97682 0.36896 0.81543 0.0
O108 O 0.97688 0.35897 0.84479 0.0
C109 C 0.06145 0.35152 0.93424 0.0
C110 C 0.08342 0.36487 0.92147 0.0
C111 C 0.07602 0.35562 0.94931 0.0
N112 N 0.06019 0.35847 0.89972 0.0
N113 N 0.07352 0.36607 0.89185 0.0
C114 C 0.04897 0.34098 0.95172 0.0
H115 H 0.03801 0.34831 0.95711 0.0
H116 H 0.05311 0.33514 0.97844 0.0
H117 H 0.04587 0.33131 0.93149 0.0
C118 C 0.00588 0.39106 0.88456 0.0
N119 N 0.0142 0.37881 0.86807 0.0
N120 N 0.02738 0.3761 0.88712 0.0
C121 C 0.02788 0.38664 0.91623 0.0
C122 C 0.01417 0.39629 0.91574 0.0
C123 C 0.99107 0.39875 0.86872 0.0
H124 H 0.99211 0.39987 0.83748 0.0
H125 H 0.98083 0.39097 0.87586 0.0
H126 H 0.98878 0.41105 0.8806 0.0
O127 O 0.02757 0.37171 0.78511 0.0
O128 O 0.04964 0.36691 0.8176 0.0
H129 H 0.05268 0.38863 0.92783 0.0
H130 H 0.03991 0.39813 0.96294 0.0
C131 C 0.0413 0.38765 0.9436 0.0
H132 H 0.04175 0.37643 0.96121 0.0
H133 H 0.07555 0.37276 0.86701 0.0
O134 O 0.98996 0.37353 0.80131 0.0
C135 C 0.04267 0.37125 0.78718 0.0
Co136 Co 0.58106 0.96126 0.65204 0.0
Co137 Co 0.6158 0.9606 0.68279 0.0
C138 C 0.5955 0.99083 0.68542 0.0
O139 O 0.58423 0.98358 0.66945 0.0
O140 O 0.60851 0.9835 0.6934 0.0
C141 C 0.55037 0.97247 0.62795 0.0
O142 O 0.5517 0.98288 0.65574 0.0
C143 C 0.64965 0.96832 0.68277 0.0
C144 C 0.65946 0.94853 0.71907 0.0
C145 C 0.6637 0.96208 0.69776 0.0
N146 N 0.63772 0.95875 0.6944 0.0
N147 N 0.64366 0.94699 0.71618 0.0
C148 C 0.64741 0.98356 0.65955 0.0
H149 H 0.63496 0.98806 0.66118 0.0
H150 H 0.65021 0.98102 0.62943 0.0
H151 H 0.65552 0.99315 0.66928 0.0
C152 C 0.59737 0.95021 0.58307 0.0
N153 N 0.59775 0.95522 0.61915 0.0
N154 N 0.61243 0.95434 0.63154 0.0
C155 C 0.62182 0.94811 0.60373 0.0
C156 C 0.61257 0.94564 0.57202 0.0
C157 C 0.58246 0.94865 0.56067 0.0
H158 H 0.57413 0.94066 0.57634 0.0
H159 H 0.5767 0.96085 0.55737 0.0
H160 H 0.58476 0.94344 0.53223 0.0
O161 O 0.5796 0.94572 0.69549 0.0
O162 O 0.60428 0.94565 0.71728 0.0
H163 H 0.64107 0.93797 0.63627 0.0
H164 H 0.64296 0.93495 0.58565 0.0
C165 C 0.63899 0.94357 0.60799 0.0
H166 H 0.64618 0.95469 0.60542 0.0
H167 H 0.63692 0.93786 0.72894 0.0
O168 O 0.56111 0.96161 0.62311 0.0
C169 C 0.59003 0.94074 0.71912 0.0
Co170 Co 0.53255 0.57735 0.16292 0.0
Co171 Co 0.53131 0.61403 0.18528 0.0
C172 C 0.50279 0.59342 0.19332 0.0
O173 O 0.51068 0.58132 0.18043 0.0
O174 O 0.50918 0.60721 0.19767 0.0
C175 C 0.52274 0.54502 0.1478 0.0
O176 O 0.51378 0.54718 0.17805 0.0
C177 C 0.52147 0.64815 0.18117 0.0
C178 C 0.54261 0.66051 0.20269 0.0
C179 C 0.52764 0.66338 0.18773 0.0
N180 N 0.53233 0.63683 0.19161 0.0
N181 N 0.54486 0.64426 0.20489 0.0
C182 C 0.50627 0.6443 0.16182 0.0
H183 H 0.50723 0.63223 0.14796 0.0
H184 H 0.50321 0.65383 0.1404 0.0
H185 H 0.49657 0.64385 0.18325 0.0
C186 C 0.54236 0.59141 0.08978 0.0
N187 N 0.53782 0.59311 0.12613 0.0
N188 N 0.53735 0.60868 0.1347 0.0
C189 C 0.54189 0.61741 0.10387 0.0
C190 C 0.54497 0.60671 0.07442 0.0
C191 C 0.54485 0.57531 0.07076 0.0
H192 H 0.55241 0.56726 0.0888 0.0
H193 H 0.53321 0.56942 0.06739 0.0
H194 H 0.55061 0.57664 0.04253 0.0
O195 O 0.54754 0.57751 0.20569 0.0
O196 O 0.54653 0.6037 0.22128 0.0
H197 H 0.55045 0.63962 0.12679 0.0
H198 H 0.54898 0.63971 0.07566 0.0
C199 C 0.54333 0.63556 0.1025 0.0
H200 H 0.53135 0.64128 0.10469 0.0
H201 H 0.55513 0.63823 0.21435 0.0
O202 O 0.53258 0.5559 0.13836 0.0
C203 C 0.55196 0.58924 0.22629 0.0
Co204 Co 0.9083 0.52409 0.64606 0.0
Co205 Co 0.87337 0.52879 0.67425 0.0
C206 C 0.89033 0.49737 0.68629 0.0
O207 O 0.90252 0.50351 0.67089 0.0
O208 O 0.87754 0.50566 0.68993 0.0
C209 C 0.92642 0.50531 0.59916 0.0
O210 O 0.91259 0.49816 0.59943 0.0
C211 C 0.83982 0.52264 0.67602 0.0
C212 C 0.82932 0.54556 0.69811 0.0
C213 C 0.82549 0.53025 0.68494 0.0
N214 N 0.85155 0.53292 0.68365 0.0
N215 N 0.84526 0.54656 0.69715 0.0
C216 C 0.84242 0.50655 0.65706 0.0
H217 H 0.85373 0.50649 0.64069 0.0
H218 H 0.83246 0.50388 0.63785 0.0
H219 H 0.84318 0.49679 0.67902 0.0
C220 C 0.89416 0.53521 0.57408 0.0
N221 N 0.89281 0.53089 0.61082 0.0
N222 N 0.87794 0.53275 0.62184 0.0
C223 C 0.86933 0.53839 0.5921 0.0
C224 C 0.87934 0.53982 0.56087 0.0
C225 C 0.90956 0.53648 0.5528 0.0
H226 H 0.91914 0.54015 0.57208 0.0
H227 H 0.9127 0.52446 0.54044 0.0
H228 H 0.90863 0.54552 0.52925 0.0
O229 O 0.91108 0.54099 0.68486 0.0
O230 O 0.88619 0.54351 0.70612 0.0
H231 H 0.84971 0.5511 0.61794 0.0
H232 H 0.84812 0.549 0.56711 0.0
C233 C 0.85206 0.54289 0.5937 0.0
H234 H 0.84505 0.53171 0.59805 0.0
H235 H 0.85182 0.55666 0.70493 0.0
O236 O 0.92803 0.51822 0.61835 0.0
C237 C 0.9008 0.54736 0.70727 0.0
Co238 Co 0.96601 0.9089 0.16636 0.0
Co239 Co 0.9657 0.87107 0.17911 0.0
C240 C 0.99383 0.88999 0.1994 0.0
O241 O 0.98638 0.903 0.19002 0.0
O242 O 0.98775 0.87601 0.19552 0.0
C243 C 0.97946 0.94049 0.15188 0.0
O244 O 0.99065 0.93549 0.17517 0.0
C245 C 0.97371 0.83638 0.17075 0.0
C246 C 0.95071 0.82503 0.18406 0.0
C247 C 0.96621 0.82147 0.17307 0.0
N248 N 0.96308 0.84815 0.17984 0.0
N249 N 0.9494 0.84128 0.18808 0.0
C250 C 0.99019 0.83965 0.1569 0.0
H251 H 0.99081 0.85208 0.14431 0.0
H252 H 0.99404 0.8305 0.1356 0.0
H253 H 0.99844 0.83891 0.18123 0.0
C254 C 0.95885 0.8991 0.08848 0.0
N255 N 0.9621 0.8953 0.12479 0.0
N256 N 0.96173 0.87939 0.1295 0.0
C257 C 0.95802 0.87254 0.09611 0.0
C258 C 0.95627 0.88483 0.06904 0.0
C259 C 0.95711 0.91618 0.07349 0.0
H260 H 0.94906 0.92328 0.09242 0.0
H261 H 0.96889 0.922 0.07332 0.0
H262 H 0.95224 0.91658 0.0444 0.0
O263 O 0.94904 0.90715 0.20462 0.0
O264 O 0.94981 0.88043 0.21589 0.0
H265 H 0.94718 0.8499 0.11049 0.0
H266 H 0.95244 0.85198 0.06086 0.0
C267 C 0.95614 0.85465 0.09021 0.0
H268 H 0.96759 0.84826 0.09578 0.0
H269 H 0.93908 0.84774 0.19566 0.0
O270 O 0.96753 0.93154 0.14671 0.0
C271 C 0.94414 0.89466 0.22265 0.0
Co272 Co 0.91248 0.96417 0.64903 0.0
Co273 Co 0.87711 0.9609 0.6752 0.0
C274 C 0.89371 0.99268 0.67855 0.0
O275 O 0.90624 0.98621 0.6648 0.0
O276 O 0.88132 0.98445 0.68511 0.0
C277 C 0.94232 0.97801 0.62881 0.0
O278 O 0.93907 0.988 0.65679 0.0
C279 C 0.84271 0.96639 0.67216 0.0
C280 C 0.83401 0.94682 0.71006 0.0
C281 C 0.82902 0.95993 0.6878 0.0
N282 N 0.8552 0.95745 0.68452 0.0
N283 N 0.84991 0.94573 0.70701 0.0
C284 C 0.84406 0.98151 0.64829 0.0
H285 H 0.83698 0.9916 0.66119 0.0
H286 H 0.8566 0.98509 0.64492 0.0
H287 H 0.83925 0.97933 0.61971 0.0
C288 C 0.89959 0.9511 0.57875 0.0
N289 N 0.8976 0.95633 0.61446 0.0
N290 N 0.88269 0.9546 0.62488 0.0
C291 C 0.87478 0.94771 0.59615 0.0
C292 C 0.88521 0.94555 0.56587 0.0
C293 C 0.91526 0.95043 0.55841 0.0
H294 H 0.92406 0.94375 0.57622 0.0
H295 H 0.91952 0.96303 0.55388 0.0
H296 H 0.91449 0.94428 0.53066 0.0
O297 O 0.91448 0.94943 0.69373 0.0
O298 O 0.88926 0.94712 0.71179 0.0
H299 H 0.85526 0.93671 0.62545 0.0
H300 H 0.85485 0.93455 0.57442 0.0
C301 C 0.85778 0.94282 0.59793 0.0
H302 H 0.85009 0.95388 0.59568 0.0
H303 H 0.85719 0.93715 0.72076 0.0
O304 O 0.93306 0.9663 0.62254 0.0
C305 C 0.90395 0.94363 0.71602 0.0
Co306 Co 0.53707 0.91226 0.16639 0.0
Co307 Co 0.53418 0.87536 0.18576 0.0
C308 C 0.50599 0.89742 0.19037 0.0
O309 O 0.51464 0.90921 0.18003 0.0
O310 O 0.51184 0.88311 0.19466 0.0
C311 C 0.52877 0.94551 0.15666 0.0
O312 O 0.52099 0.94301 0.18856 0.0
C313 C 0.52382 0.84182 0.17972 0.0
C314 C 0.54421 0.82807 0.20393 0.0
C315 C 0.52949 0.82616 0.18742 0.0
N316 N 0.53472 0.85242 0.19111 0.0
N317 N 0.54681 0.84416 0.20585 0.0
C318 C 0.50903 0.84673 0.15902 0.0
H319 H 0.51048 0.85881 0.1451 0.0
H320 H 0.50609 0.83753 0.13744 0.0
H321 H 0.49903 0.84767 0.17959 0.0
C322 C 0.54858 0.8992 0.0938 0.0
N323 N 0.54319 0.89701 0.1294 0.0
N324 N 0.54164 0.88133 0.13638 0.0
C325 C 0.54603 0.873 0.10501 0.0
C326 C 0.55061 0.88408 0.0772 0.0
C327 C 0.55055 0.91557 0.07535 0.0
H328 H 0.55868 0.92294 0.09249 0.0
H329 H 0.53885 0.92201 0.07458 0.0
H330 H 0.55524 0.91464 0.046 0.0
O331 O 0.55086 0.9104 0.21099 0.0
O332 O 0.54864 0.88406 0.22491 0.0
H333 H 0.55213 0.8492 0.12643 0.0
H334 H 0.5522 0.85081 0.07527 0.0
C335 C 0.54609 0.85484 0.10166 0.0
H336 H 0.53369 0.85058 0.1013 0.0
H337 H 0.55697 0.8495 0.2165 0.0
O338 O 0.53779 0.93424 0.14386 0.0
C339 C 0.55437 0.89802 0.23154 0.0
Co340 Co 0.57945 0.52917 0.66252 0.0
Co341 Co 0.61498 0.52644 0.68562 0.0
C342 C 0.59431 0.49768 0.69149 0.0
O343 O 0.58283 0.50658 0.67974 0.0
O344 O 0.6081 0.5035 0.69563 0.0
C345 C 0.54752 0.52053 0.64808 0.0
O346 O 0.54926 0.51155 0.67886 0.0
C347 C 0.64883 0.51757 0.68335 0.0
C348 C 0.65923 0.53948 0.70849 0.0
C349 C 0.66316 0.52464 0.69211 0.0
N350 N 0.63705 0.52788 0.69381 0.0
N351 N 0.64333 0.54084 0.70925 0.0
C352 C 0.64626 0.5021 0.66236 0.0
H353 H 0.63439 0.50232 0.64897 0.0
H354 H 0.65562 0.50026 0.64042 0.0
H355 H 0.64683 0.49168 0.68264 0.0
C356 C 0.59362 0.53933 0.59007 0.0
N357 N 0.59505 0.53443 0.62632 0.0
N358 N 0.61017 0.53344 0.63521 0.0
C359 C 0.61888 0.53806 0.60468 0.0
C360 C 0.60862 0.54171 0.57513 0.0
C361 C 0.57809 0.54212 0.57051 0.0
H362 H 0.57206 0.53029 0.56764 0.0
H363 H 0.57965 0.54772 0.542 0.0
H364 H 0.57037 0.55023 0.58798 0.0
O365 O 0.5796 0.54439 0.70532 0.0
O366 O 0.60482 0.54172 0.72231 0.0
H367 H 0.64074 0.54567 0.62881 0.0
H368 H 0.64076 0.54538 0.57753 0.0
C369 C 0.63658 0.53906 0.60363 0.0
H370 H 0.64181 0.52657 0.60427 0.0
H371 H 0.63676 0.55084 0.71922 0.0
O372 O 0.55865 0.52983 0.63766 0.0
C373 C 0.59101 0.54803 0.72686 0.0
Co374 Co 0.96172 0.56826 0.15315 0.0
Co375 Co 0.96294 0.60552 0.17064 0.0
C376 C 0.99096 0.58421 0.18449 0.0
O377 O 0.98308 0.5722 0.17292 0.0
O378 O 0.98483 0.59849 0.18579 0.0
C379 C 0.97528 0.54253 0.1134 0.0
O380 O 0.98562 0.55407 0.10713 0.0
C381 C 0.97179 0.6399 0.16553 0.0
C382 C 0.9495 0.65221 0.18377 0.0
C383 C 0.9648 0.65516 0.171 0.0
N384 N 0.96107 0.62853 0.17454 0.0
N385 N 0.94783 0.63596 0.18573 0.0
C386 C 0.98783 0.63603 0.14908 0.0
H387 H 0.98794 0.6238 0.13586 0.0
H388 H 0.99123 0.64538 0.1277 0.0
H389 H 0.99672 0.6359 0.1721 0.0
C390 C 0.95163 0.58106 0.07849 0.0
N391 N 0.9567 0.5833 0.11407 0.0
N392 N 0.95788 0.59903 0.12036 0.0
C393 C 0.95382 0.6073 0.08844 0.0
C394 C 0.94972 0.59616 0.06106 0.0
C395 C 0.94884 0.56473 0.06141 0.0
H396 H 0.94322 0.55655 0.08262 0.0
H397 H 0.96041 0.55924 0.05269 0.0
H398 H 0.94125 0.56566 0.03598 0.0
O399 O 0.94591 0.56988 0.19464 0.0
O400 O 0.94717 0.59632 0.20711 0.0
H401 H 0.94513 0.63055 0.10713 0.0
H402 H 0.94847 0.62939 0.05657 0.0
C403 C 0.95302 0.62547 0.08471 0.0
H404 H 0.96504 0.63043 0.08851 0.0
H405 H 0.93754 0.62992 0.19396 0.0
O406 O 0.96294 0.54581 0.13305 0.0
C407 C 0.94143 0.58228 0.21365 0.0
Co408 Co 0.41103 0.02796 0.32461 0.0
Co409 Co 0.37408 0.02713 0.31702 0.0
C410 C 0.39374 -0.00047 0.29045 0.0
O411 O 0.40594 0.00751 0.29923 0.0
O412 O 0.37976 0.00505 0.29683 0.0
C413 C 0.44271 0.01448 0.33235 0.0
O414 O 0.43814 0.0037 0.30762 0.0
C415 C 0.34029 0.01899 0.32422 0.0
C416 C 0.32944 0.04367 0.32879 0.0
C417 C 0.32597 0.02724 0.32973 0.0
N418 N 0.35175 0.0301 0.32053 0.0
N419 N 0.34516 0.0448 0.32287 0.0
C420 C 0.34332 0.00097 0.32595 0.0
H421 H 0.35462 0.9983 0.3409 0.0
H422 H 0.33346 0.99461 0.34056 0.0
H423 H 0.34452 0.99628 0.29666 0.0
C424 C 0.40238 0.0337 0.40426 0.0
N425 N 0.39834 0.03073 0.36826 0.0
N426 N 0.38281 0.02998 0.36593 0.0
C427 C 0.37645 0.03231 0.40078 0.0
C428 C 0.38867 0.03468 0.42615 0.0
C429 C 0.419 0.03686 0.41661 0.0
H430 H 0.42492 0.04487 0.39553 0.0
H431 H 0.42572 0.02512 0.41811 0.0
H432 H 0.41929 0.04278 0.4447 0.0
O433 O 0.40778 0.04617 0.28918 0.0
O434 O 0.38171 0.04463 0.28139 0.0
H435 H 0.35326 0.04319 0.39843 0.0
H436 H 0.35692 0.03134 0.44092 0.0
C437 C 0.35909 0.03198 0.40988 0.0
H438 H 0.35373 0.02128 0.39644 0.0
H439 H 0.35149 0.05562 0.3215 0.0
O440 O 0.4334 0.02626 0.34098 0.0
C441 C 0.395 0.05116 0.27358 0.0
Co442 Co 0.45889 0.41222 0.84253 0.0
Co443 Co 0.46206 0.37512 0.82577 0.0
C444 C 0.48997 0.39637 0.81832 0.0
O445 O 0.48112 0.40843 0.82754 0.0
O446 O 0.48441 0.38209 0.81608 0.0
C447 C 0.46718 0.44536 0.85192 0.0
O448 O 0.47582 0.44276 0.82132 0.0
C449 C 0.47188 0.34082 0.83261 0.0
C450 C 0.45074 0.32858 0.81067 0.0
C451 C 0.4656 0.32559 0.82606 0.0
N452 N 0.46115 0.3522 0.82169 0.0
N453 N 0.44861 0.34483 0.80831 0.0
C454 C 0.48713 0.34463 0.85173 0.0
H455 H 0.48631 0.3568 0.86513 0.0
H456 H 0.4901 0.3352 0.87347 0.0
H457 H 0.49682 0.34484 0.83025 0.0
C458 C 0.44826 0.39977 0.91656 0.0
N459 N 0.45336 0.39728 0.88089 0.0
N460 N 0.45472 0.38152 0.87476 0.0
C461 C 0.45026 0.37344 0.90659 0.0
C462 C 0.44622 0.38479 0.93411 0.0
C463 C 0.445 0.41625 0.93309 0.0
H464 H 0.43768 0.42367 0.91315 0.0
H465 H 0.45641 0.42253 0.93706 0.0
H466 H 0.43867 0.41544 0.96074 0.0
O467 O 0.4447 0.41061 0.79882 0.0
O468 O 0.44754 0.38425 0.78625 0.0
H469 H 0.44332 0.34995 0.88754 0.0
H470 H 0.44489 0.35151 0.9385 0.0
C471 C 0.45016 0.35528 0.91092 0.0
H472 H 0.46251 0.35044 0.9092 0.0
H473 H 0.43846 0.3509 0.79831 0.0
O474 O 0.45803 0.43428 0.86386 0.0
C475 C 0.44145 0.39826 0.77896 0.0
Co476 Co 0.08436 0.44809 0.35234 0.0
Co477 Co 0.12096 0.45121 0.34434 0.0
C478 C 0.09911 0.47958 0.32944 0.0
O479 O 0.08714 0.47099 0.33732 0.0
O480 O 0.11317 0.47367 0.33029 0.0
C481 C 0.05112 0.45434 0.35115 0.0
O482 O 0.0547 0.4636 0.32181 0.0
C483 C 0.1527 0.46272 0.36139 0.0
C484 C 0.16774 0.44547 0.32864 0.0
C485 C 0.16826 0.45919 0.35112 0.0
N486 N 0.14339 0.45159 0.34557 0.0
N487 N 0.15245 0.44121 0.32639 0.0
C488 C 0.14661 0.4772 0.38288 0.0
H489 H 0.13347 0.4772 0.38498 0.0
H490 H 0.15155 0.47698 0.41189 0.0
H491 H 0.15059 0.48856 0.36864 0.0
C492 C 0.09315 0.43664 0.42845 0.0
N493 N 0.0971 0.44286 0.39438 0.0
N494 N 0.11262 0.44397 0.39179 0.0
C495 C 0.1191 0.43823 0.42431 0.0
C496 C 0.10693 0.43336 0.44845 0.0
C497 C 0.07642 0.43395 0.44145 0.0
H498 H 0.07106 0.42442 0.4238 0.0
H499 H 0.06937 0.4454 0.43762 0.0
H500 H 0.07578 0.43022 0.47172 0.0
O501 O 0.0892 0.4332 0.31021 0.0
O502 O 0.11532 0.43547 0.30441 0.0
H503 H 0.14229 0.43049 0.40586 0.0
H504 H 0.13897 0.42863 0.45653 0.0
C505 C 0.13653 0.4362 0.43092 0.0
H506 H 0.14175 0.44838 0.43474 0.0
H507 H 0.14816 0.43153 0.31076 0.0
O508 O 0.062 0.44593 0.36706 0.0
C509 C 0.1023 0.4293 0.29415 0.0
Co510 Co 0.02815 0.07943 0.82097 0.0
Co511 Co 0.02903 0.11581 0.79365 0.0
C512 C -0.00086 0.09701 0.79127 0.0
O513 O 0.00635 0.08465 0.80527 0.0
O514 O 0.00636 0.11022 0.78423 0.0
C515 C 0.0161 0.04849 0.84513 0.0
O516 O 0.00524 0.05141 0.81933 0.0
C517 C 0.0218 0.15061 0.79588 0.0
C518 C 0.04317 0.16111 0.76913 0.0
C519 C 0.02894 0.16526 0.78688 0.0
N520 N 0.03142 0.13841 0.78419 0.0
N521 N 0.04406 0.14473 0.7677 0.0
C522 C 0.00702 0.14809 0.81886 0.0
H523 H 0.00724 0.13582 0.83242 0.0
H524 H 0.0057 0.15759 0.84091 0.0
H525 H 0.99659 0.14898 0.79991 0.0
C526 C 0.03993 0.09386 0.89087 0.0
N527 N 0.03487 0.09536 0.85498 0.0
N528 N 0.03545 0.11074 0.84422 0.0
C529 C 0.04132 0.11951 0.87301 0.0
C530 C 0.04411 0.10908 0.90353 0.0
C531 C 0.04157 0.07796 0.91182 0.0
H532 H 0.04872 0.06927 0.89449 0.0
H533 H 0.02963 0.07275 0.91631 0.0
H534 H 0.04738 0.07935 0.93966 0.0
O535 O 0.0426 0.07804 0.7763 0.0
O536 O 0.04311 0.104 0.75755 0.0
H537 H 0.05117 0.14031 0.84492 0.0
H538 H 0.05148 0.14127 0.8961 0.0
C539 C 0.04455 0.13737 0.87131 0.0
H540 H 0.03313 0.14428 0.8711 0.0
H541 H 0.05357 0.13786 0.7568 0.0
O542 O 0.02747 0.05831 0.84848 0.0
C543 C 0.04752 0.08915 0.75376 0.0
H544 H 0.96075 0.00512 0.62584 0.0
H545 H 0.97818 0.01359 0.5737 0.0
H546 H 0.96926 0.96867 0.51581 0.0
H547 H 0.95179 0.9601 0.56756 0.0
H548 H 0.00558 0.99813 0.53982 0.0
H549 H 0.95527 0.00494 0.43987 0.0
H550 H 0.95245 0.00333 0.49055 0.0
H551 H 0.95674 0.9854 0.46318 0.0
C552 C 0.96267 0.99692 0.60229 0.0
C553 C 0.95474 0.98201 0.60062 0.0
C554 C 0.97259 0.00182 0.57251 0.0
C555 C 0.97466 0.99191 0.54064 0.0
C556 C 0.96749 0.97664 0.53985 0.0
H557 H 0.02601 0.99546 0.32986 0.0
H558 H 0.00755 0.98987 0.38199 0.0
C559 C 0.95759 0.97173 0.56955 0.0
C560 C 0.98401 0.99768 0.50773 0.0
H561 H 0.9812 0.00721 0.4136 0.0
C562 C 0.00027 0.00025 0.51227 0.0
C563 C 0.97695 0.00045 0.47195 0.0
C564 C 0.95937 0.99854 0.46601 0.0
C565 C 0.00983 0.00503 0.48154 0.0
C566 C 0.0028 0.00759 0.44562 0.0
C567 C 0.98649 0.00524 0.44122 0.0
C568 C 0.01239 0.01208 0.41198 0.0
C569 C 0.02743 0.00679 0.48748 0.0
C570 C 0.02061 0.02678 0.41084 0.0
C571 C 0.03116 0.03003 0.38112 0.0
C572 C 0.0336 0.01863 0.35202 0.0
C573 C 0.02447 0.00446 0.35191 0.0
C574 C 0.01394 0.00121 0.3817 0.0
H575 H 0.03141 0.00087 0.51432 0.0
H576 H 0.03432 0.00138 0.46359 0.0
H577 H 0.03026 0.01993 0.48883 0.0
H578 H 0.01926 0.03549 0.43356 0.0
H579 H 0.03785 0.04116 0.38179 0.0
H580 H 0.48342 0.02222 0.86066 0.0
H581 H 0.49451 0.00463 0.91051 0.0
H582 H 0.4593 0.02294 0.98944 0.0
H583 H 0.44801 0.04044 0.93983 0.0
H584 H 0.50676 0.01858 0.97766 0.0
H585 H 0.46014 0.97328 0.00966 0.0
H586 H 0.46083 0.9847 0.96564 0.0
H587 H 0.4533 0.99415 0.00799 0.0
C588 C 0.47775 0.02219 0.88833 0.0
C589 C 0.46492 0.03283 0.89641 0.0
C590 C 0.48415 0.01218 0.91678 0.0
C591 C 0.47771 0.01252 0.95353 0.0
C592 C 0.46431 0.02238 0.96111 0.0
H593 H 0.50491 0.96806 0.16754 0.0
H594 H 0.49345 0.9864 0.11966 0.0
C595 C 0.45792 0.03241 0.93273 0.0
C596 C 0.48596 0.00393 0.98481 0.0
H597 H 0.48151 0.97452 0.05278 0.0
C598 C 0.5013 0.00888 0.99402 0.0
C599 C 0.47868 0.99146 0.00621 0.0
C600 C 0.46238 0.98545 0.99679 0.0
C601 C 0.50956 0.00173 0.02443 0.0
C602 C 0.50234 0.98915 0.04567 0.0
C603 C 0.48696 0.98427 0.03655 0.0
C604 C 0.51077 0.98024 0.07626 0.0
C605 C 0.5258 0.00789 0.0339 0.0
C606 C 0.5246 0.97114 0.068 0.0
C607 C 0.53125 0.96075 0.09533 0.0
C608 C 0.52404 0.95913 0.13123 0.0
C609 C 0.51075 0.96902 0.14017 0.0
C610 C 0.50413 0.97945 0.1128 0.0
H611 H 0.52755 0.02047 0.0228 0.0
H612 H 0.52772 0.00782 0.06499 0.0
H613 H 0.53496 -0.00016 0.02068 0.0
H614 H 0.52977 0.9714 0.0398 0.0
H615 H 0.54152 0.95334 0.08757 0.0
H616 H 0.52533 0.49668 0.65301 0.0
H617 H 0.50695 0.4887 0.60352 0.0
H618 H 0.52179 0.5293 0.53403 0.0
H619 H 0.5403 0.53731 0.58307 0.0
H620 H 0.4819 0.50547 0.56501 0.0
H621 H 0.53209 0.48896 0.46872 0.0
H622 H 0.53474 0.49259 0.51861 0.0
H623 H 0.53231 0.50945 0.48615 0.0
C624 C 0.52449 0.50408 0.62749 0.0
C625 C 0.53443 0.51748 0.6217 0.0
C626 C 0.51403 0.49948 0.59923 0.0
C627 C 0.51336 0.50819 0.56487 0.0
C628 C 0.52245 0.52221 0.56006 0.0
H629 H 0.4623 0.49619 0.35599 0.0
H630 H 0.48069 0.50438 0.40526 0.0
C631 C 0.53294 0.52681 0.5882 0.0
C632 C 0.50367 0.50221 0.53345 0.0
H633 H 0.50622 0.48746 0.44344 0.0
C634 C 0.48718 0.50148 0.53846 0.0
C635 C 0.51069 0.49699 0.49896 0.0
C636 C 0.52844 0.49687 0.49275 0.0
C637 C 0.47744 0.49592 0.5095 0.0
C638 C 0.48446 0.49071 0.47502 0.0
C639 C 0.50094 0.49145 0.46999 0.0
C640 C 0.47478 0.48465 0.4437 0.0
C641 C 0.45969 0.49597 0.51573 0.0
C642 C 0.46597 0.47043 0.44847 0.0
C643 C 0.4555 0.46569 0.42042 0.0
C644 C 0.45371 0.4751 0.38711 0.0
C645 C 0.46336 0.48872 0.38137 0.0
C646 C 0.47383 0.49345 0.40951 0.0
H647 H 0.45601 0.50377 0.53993 0.0
H648 H 0.45339 0.50034 0.48994 0.0
H649 H 0.45585 0.48335 0.52201 0.0
H650 H 0.46684 0.46329 0.47439 0.0
H651 H 0.44837 0.45503 0.42552 0.0
H652 H 0.001 0.532 0.07278 0.0
H653 H 0.00559 0.50524 0.04488 0.0
H654 H 0.96051 0.48924 0.08888 0.0
H655 H 0.95569 0.51617 0.11681 0.0
H656 H 0.00641 0.47423 0.08309 0.0
H657 H 0.95918 0.47908 0.9738 0.0
H658 H 0.9664 0.49667 0.9982 0.0
H659 H 0.95328 0.48289 0.02207 0.0
C660 C 0.99201 0.52284 0.07652 0.0
C661 C 0.97794 0.52622 0.09689 0.0
C662 C 0.99469 0.50754 0.06062 0.0
C663 C 0.98334 0.49536 0.06459 0.0
C664 C 0.96932 0.49859 0.08514 0.0
H665 H 0.98698 0.39954 0.95687 0.0
H666 H 0.97881 0.42254 0.99711 0.0
C667 C 0.96662 0.51394 0.10117 0.0
C668 C 0.98639 0.47932 0.04705 0.0
H669 H 0.97504 0.45518 0.97432 0.0
C670 C -0.00052 0.46997 0.05951 0.0
C671 C 0.97726 0.47382 0.01646 0.0
C672 C 0.96329 0.48363 0.00152 0.0
C673 C 0.00391 0.45539 0.04161 0.0
C674 C 0.99517 0.45022 0.01006 0.0
C675 C 0.98172 0.45924 0.99848 0.0
C676 C 0.00032 0.43602 0.98729 0.0
C677 C 0.01797 0.44569 0.05647 0.0
C678 C 0.01501 0.43614 0.96821 0.0
C679 C 0.01964 0.42309 0.9453 0.0
C680 C 0.00964 0.40976 0.94116 0.0
C681 C 0.99491 0.40968 0.96002 0.0
C682 C 0.99026 0.42275 0.98291 0.0
H683 H 0.02037 0.44856 0.08656 0.0
H684 H 0.01605 0.43238 0.05409 0.0
H685 H 0.02868 0.44878 0.03954 0.0
H686 H 0.02275 0.44648 0.97044 0.0
H687 H 0.03087 0.42356 0.9302 0.0
H688 H 0.52893 0.99776 0.62211 0.0
H689 H 0.51133 0.00396 0.56893 0.0
H690 H 0.52681 0.95966 0.51398 0.0
H691 H 0.54437 0.95326 0.56704 0.0
H692 H 0.52303 0.00745 0.49159 0.0
H693 H 0.47749 0.95952 0.50753 0.0
H694 H 0.48997 0.9655 0.54616 0.0
H695 H 0.49786 0.95265 0.50941 0.0
C696 C 0.52838 0.98917 0.59908 0.0
C697 C 0.53809 0.97504 0.59874 0.0
C698 C 0.51837 0.99277 0.56868 0.0
C699 C 0.51778 0.98224 0.5377 0.0
C700 C 0.52699 0.96784 0.53787 0.0
H701 H 0.46253 0.98769 0.33064 0.0
H702 H 0.48284 0.98013 0.37703 0.0
C703 C 0.53705 0.96424 0.56818 0.0
C704 C 0.50831 0.98686 0.50415 0.0
H705 H 0.47613 0.97621 0.45272 0.0
C706 C 0.51276 0.00065 0.48302 0.0
C707 C 0.49508 0.97782 0.49297 0.0
C708 C 0.48968 0.9631 0.51526 0.0
C709 C 0.50426 0.00569 0.45086 0.0
C710 C 0.49079 0.99687 0.44014 0.0
C711 C 0.48651 0.98291 0.46095 0.0
C712 C 0.48032 0.00242 0.40897 0.0
C713 C 0.50985 0.02031 0.42851 0.0
C714 C 0.47247 0.01762 0.41109 0.0
C715 C 0.46095 0.02202 0.38454 0.0
C716 C 0.45691 0.01119 0.35568 0.0
C717 C 0.46535 0.99631 0.35252 0.0
C718 C 0.47692 0.99194 0.37907 0.0
H719 H 0.52271 0.02237 0.43282 0.0
H720 H 0.50771 0.01886 0.39774 0.0
H721 H 0.50325 0.03134 0.43826 0.0
H722 H 0.47469 0.02577 0.43432 0.0
H723 H 0.45471 0.03359 0.38776 0.0
H724 H 0.49804 0.52388 0.15063 0.0
H725 H 0.48896 0.50664 0.09933 0.0
H726 H 0.52927 0.52057 0.03098 0.0
H727 H 0.5386 0.53759 0.0822 0.0
H728 H 0.4811 0.51973 0.02783 0.0
H729 H 0.52767 0.4712 0.01596 0.0
H730 H 0.52527 0.48365 0.05762 0.0
H731 H 0.53514 0.49157 0.0162 0.0
C732 C 0.50521 0.52294 0.12509 0.0
C733 C 0.51898 0.5322 0.12037 0.0
C734 C 0.49996 0.51316 0.09576 0.0
C735 C 0.50846 0.51235 0.06147 0.0
C736 C 0.52265 0.52087 0.05743 0.0
H737 H 0.49146 0.46689 0.84523 0.0
H738 H 0.50067 0.48532 0.89408 0.0
C739 C 0.52792 0.53065 0.0867 0.0
C740 C 0.50176 0.50385 0.02875 0.0
H741 H 0.50909 0.47328 0.96589 0.0
C742 C 0.48716 0.50951 0.01437 0.0
C743 C 0.5098 0.49066 0.01112 0.0
C744 C 0.52528 0.48379 0.02615 0.0
C745 C 0.48042 0.50239 0.98251 0.0
C746 C 0.48841 0.48914 0.96502 0.0
C747 C 0.50306 0.48355 0.97926 0.0
C748 C 0.48145 0.48024 0.93323 0.0
C749 C 0.46492 0.50923 0.96754 0.0
C750 C 0.46734 0.4717 0.93873 0.0
C751 C 0.46201 0.46123 0.91088 0.0
C752 C 0.47081 0.459 0.87721 0.0
C753 C 0.48441 0.46834 0.87082 0.0
C754 C 0.48974 0.47882 0.89875 0.0
H755 H 0.46271 0.52195 0.97701 0.0
H756 H 0.46474 0.50901 0.93608 0.0
H757 H 0.45504 0.50167 0.97835 0.0
H758 H 0.4609 0.47246 0.96537 0.0
H759 H 0.45146 0.45424 0.91663 0.0
H760 H 0.92764 0.47592 0.56459 0.0
H761 H 0.94809 0.46546 0.52154 0.0
H762 H 0.97441 0.50967 0.53424 0.0
H763 H 0.95404 0.52018 0.57811 0.0
H764 H 0.95749 0.47859 0.45343 0.0
H765 H 0.00785 0.47401 0.55359 0.0
H766 H 0.98754 0.47682 0.56925 0.0
H767 H 0.99856 0.49387 0.55142 0.0
C768 C 0.93783 0.4834 0.55847 0.0
C769 C 0.93928 0.49886 0.57476 0.0
C770 C 0.94948 0.47739 0.53384 0.0
C771 C 0.96279 0.48673 0.52503 0.0
C772 C 0.96434 0.50216 0.5413 0.0
H773 H 0.02796 0.47733 0.33741 0.0
H774 H 0.00503 0.48364 0.37776 0.0
C775 C 0.95271 0.50816 0.56623 0.0
C776 C 0.97475 0.48042 0.49783 0.0
H777 H 0.01397 0.47031 0.48835 0.0
C778 C 0.96984 0.47669 0.46105 0.0
C779 C 0.99075 0.47773 0.50814 0.0
C780 C 0.9965 0.48066 0.54784 0.0
C781 C 0.98061 0.47062 0.43396 0.0
C782 C 0.99673 0.46853 0.44386 0.0
C783 C 0.00158 0.47198 0.48085 0.0
C784 C 0.00898 0.46325 0.41621 0.0
C785 C 0.97462 0.46633 0.39522 0.0
C786 C 0.01865 0.44957 0.42418 0.0
C787 C 0.03184 0.44602 0.40141 0.0
C788 C 0.03559 0.45615 0.37035 0.0
C789 C 0.02533 0.46926 0.36105 0.0
C790 C 0.01218 0.47286 0.38401 0.0
H791 H 0.96168 0.46399 0.39578 0.0
H792 H 0.97671 0.4767 0.37544 0.0
H793 H 0.98095 0.4554 0.38392 0.0
H794 H 0.01634 0.44202 0.44893 0.0
H795 H 0.03948 0.43578 0.40918 0.0
H796 H 0.0058 0.95941 0.1469 0.0
H797 H 0.01208 0.97925 0.09708 0.0
H798 H 0.96601 0.97257 0.04786 0.0
H799 H 0.95948 0.95304 0.09789 0.0
H800 H 0.01351 0.97126 0.02142 0.0
H801 H 0.97003 0.02184 0.0442 0.0
H802 H 0.97433 0.00659 0.08012 0.0
H803 H 0.96104 0.00221 0.04209 0.0
C804 C 0.99685 0.96246 0.12604 0.0
C805 C 0.98218 0.95454 0.12621 0.0
C806 C 0.00049 0.97376 0.09751 0.0
C807 C 0.98949 0.97742 0.06889 0.0
C808 C 0.97457 0.97013 0.07002 0.0
H809 H 0.99049 0.02879 0.85402 0.0
H810 H 0.98478 0.01061 0.90759 0.0
C811 C 0.9709 0.95888 0.09856 0.0
C812 C 0.99414 0.98761 0.03593 0.0
H813 H 0.98346 0.02141 0.98435 0.0
C814 C 0.00705 0.98232 0.0135 0.0
C815 C 0.98561 0.00196 0.02558 0.0
C816 C 0.97207 0.00859 0.04945 0.0
C817 C 0.01145 0.99081 0.98045 0.0
C818 C 0.00281 0.00503 0.96991 0.0
C819 C 0.98998 0.01041 0.99246 0.0
C820 C 0.007 0.01473 0.93586 0.0
C821 C 0.02505 0.98428 0.9566 0.0
C822 C 0.0215 0.02281 0.93383 0.0
C823 C 0.02483 0.03317 0.90326 0.0
C824 C 0.01365 0.0357 0.87431 0.0
C825 C -0.00063 0.02709 0.87578 0.0
C826 C 0.99605 0.01676 0.90642 0.0
H827 H 0.02795 0.97133 0.96359 0.0
H828 H 0.02225 0.98529 0.92596 0.0
H829 H 0.03575 0.99158 0.96186 0.0
H830 H 0.03002 0.02155 0.95654 0.0
H831 H 0.03593 0.03962 0.90301 0.0
H832 H 0.06474 0.06375 0.22134 0.0
H833 H 0.0609 0.08116 0.16567 0.0
H834 H 0.11162 0.08373 0.14987 0.0
H835 H 0.11561 0.06586 0.20512 0.0
H836 H 0.07044 0.11202 0.14392 0.0
H837 H 0.09737 0.0643 0.05086 0.0
H838 H 0.09248 0.06035 0.09988 0.0
H839 H 0.10987 0.0717 0.08761 0.0
C840 C 0.07512 0.0681 0.2063 0.0
C841 C 0.09048 0.06318 0.21734 0.0
C842 C 0.07289 0.07812 0.17453 0.0
C843 C 0.08596 0.0835 0.15326 0.0
C844 C 0.10136 0.07942 0.16543 0.0
H845 H 0.07442 0.11734 0.91906 0.0
H846 H 0.08699 0.11624 0.98169 0.0
C847 C 0.10361 0.06924 0.19706 0.0
C848 C 0.08321 0.09225 0.1169 0.0
H849 H 0.08597 0.08716 0.02124 0.0
C850 C 0.07406 0.10674 0.11706 0.0
C851 C 0.08799 0.08537 0.08189 0.0
C852 C 0.09737 0.06952 0.07979 0.0
C853 C 0.06893 0.11412 0.08312 0.0
C854 C 0.07298 0.10672 0.04828 0.0
C855 C 0.08296 0.09284 0.04805 0.0
C856 C 0.06516 0.11147 0.01232 0.0
C857 C 0.05884 0.12947 0.08487 0.0
C858 C 0.04871 0.1096 0.00899 0.0
C859 C 0.0416 0.11017 0.97345 0.0
C860 C 0.05084 0.11266 0.94077 0.0
C861 C 0.0671 0.11564 0.94413 0.0
C862 C 0.07425 0.11497 0.97976 0.0
H863 H 0.06136 0.13651 0.11079 0.0
H864 H 0.06082 0.13738 0.0596 0.0
H865 H 0.04613 0.12615 0.08584 0.0
H866 H 0.04153 0.10647 0.03353 0.0
H867 H 0.02908 0.1076 0.97121 0.0
H868 H 0.42093 0.05991 0.76996 0.0
H869 H 0.40796 0.05173 0.71167 0.0
H870 H 0.4122 0.10053 0.6667 0.0
H871 H 0.42524 0.10891 0.7248 0.0
H872 H 0.38025 0.0654 0.66678 0.0
H873 H 0.43965 0.06906 0.59686 0.0
H874 H 0.43725 0.06846 0.64773 0.0
H875 H 0.43272 0.08688 0.6218 0.0
C876 C 0.41888 0.06901 0.74798 0.0
C877 C 0.42437 0.08501 0.75181 0.0
C878 C 0.41139 0.06431 0.71479 0.0
C879 C 0.40929 0.07551 0.68493 0.0
C880 C 0.41382 0.09172 0.68948 0.0
H881 H 0.37189 0.05958 0.45898 0.0
H882 H 0.37439 0.06911 0.52444 0.0
C883 C 0.4213 0.09646 0.72268 0.0
C884 C 0.40415 0.06972 0.64762 0.0
H885 H 0.41839 0.061 0.55927 0.0
C886 C 0.3885 0.06452 0.64311 0.0
C887 C 0.41507 0.06844 0.61713 0.0
C888 C 0.43216 0.07338 0.62094 0.0
C889 C 0.3835 0.05802 0.60858 0.0
C890 C 0.39447 0.05672 0.57822 0.0
C891 C 0.41005 0.06203 0.58275 0.0
C892 C 0.39038 0.04948 0.54153 0.0
C893 C 0.36672 0.05222 0.60493 0.0
C894 C 0.39828 0.03516 0.52993 0.0
C895 C 0.39688 0.02976 0.49281 0.0
C896 C 0.38764 0.03867 0.46672 0.0
C897 C 0.37897 0.05247 0.47885 0.0
C898 C 0.38038 0.05789 0.51611 0.0
H899 H 0.36041 0.05183 0.63269 0.0
H900 H 0.36006 0.06061 0.58569 0.0
H901 H 0.36666 0.03988 0.59229 0.0
H902 H 0.40611 0.02857 0.54916 0.0
H903 H 0.40361 0.01906 0.48395 0.0
H904 H 0.37603 0.42651 0.23874 0.0
H905 H 0.38219 0.40907 0.1846 0.0
H906 H 0.43223 0.41559 0.20269 0.0
H907 H 0.42623 0.43266 0.25727 0.0
H908 H 0.39685 0.41871 0.1216 0.0
H909 H 0.43153 0.3674 0.18347 0.0
H910 H 0.41978 0.38125 0.2122 0.0
H911 H 0.43948 0.38661 0.19684 0.0
C912 C 0.38836 0.42404 0.23155 0.0
C913 C 0.40064 0.43103 0.2523 0.0
C914 C 0.39185 0.41402 0.20067 0.0
C915 C 0.40767 0.41078 0.18996 0.0
C916 C 0.41994 0.4175 0.21105 0.0
H917 H 0.46212 0.39309 0.99679 0.0
H918 H 0.45129 0.39514 0.06122 0.0
C919 C 0.41648 0.42743 0.24207 0.0
C920 C 0.41137 0.40201 0.15433 0.0
H921 H 0.43577 0.37263 0.11627 0.0
C922 C 0.40505 0.40837 0.1205 0.0
C923 C 0.42206 0.3885 0.15294 0.0
C924 C 0.42846 0.38045 0.1884 0.0
C925 C 0.40991 0.40231 0.08519 0.0
C926 C 0.42128 0.38941 0.08375 0.0
C927 C 0.42704 0.3825 0.11756 0.0
C928 C 0.42874 0.38461 0.0474 0.0
C929 C 0.40363 0.41043 0.04961 0.0
C930 C 0.41988 0.37731 0.01884 0.0
C931 C 0.4261 0.37608 0.98206 0.0
C932 C 0.4412 0.38214 0.97369 0.0
C933 C 0.45048 0.38828 0.00288 0.0
C934 C 0.44431 0.38944 0.03956 0.0
H935 H 0.39645 0.4216 0.05576 0.0
H936 H 0.41358 0.41376 0.03036 0.0
H937 H 0.39602 0.4018 0.03439 0.0
H938 H 0.40785 0.37346 0.0245 0.0
H939 H 0.41875 0.37143 0.95972 0.0
H940 H 0.09702 0.40304 0.46534 0.0
H941 H 0.09197 0.3918 0.52864 0.0
H942 H 0.11357 0.43372 0.57834 0.0
H943 H 0.11839 0.44515 0.51457 0.0
H944 H 0.10896 0.38422 0.59499 0.0
H945 H 0.06688 0.43682 0.61296 0.0
H946 H 0.07605 0.43206 0.56797 0.0
H947 H 0.08728 0.44178 0.60413 0.0
C948 C 0.10108 0.4096 0.48982 0.0
C949 C 0.10789 0.42498 0.48547 0.0
C950 C 0.09822 0.40318 0.5259 0.0
C951 C 0.1021 0.41209 0.55813 0.0
C952 C 0.11026 0.4268 0.55375 0.0
H953 H 0.07492 0.3747 0.78363 0.0
H954 H 0.09077 0.38458 0.73014 0.0
C955 C 0.11312 0.43325 0.51749 0.0
C956 C 0.09567 0.40688 0.5954 0.0
H957 H 0.06702 0.41677 0.66062 0.0
C958 C 0.09996 0.3914 0.60974 0.0
C959 C 0.08371 0.4162 0.61407 0.0
C960 C 0.07807 0.43259 0.59899 0.0
C961 C 0.09231 0.38481 0.64179 0.0
C962 C 0.08023 0.39407 0.66013 0.0
C963 C 0.07629 0.40973 0.64643 0.0
C964 C 0.07084 0.38749 0.69229 0.0
C965 C 0.0967 0.36773 0.65469 0.0
C966 C 0.05433 0.38606 0.68891 0.0
C967 C 0.04519 0.38056 0.7195 0.0
C968 C 0.0524 0.3764 0.75413 0.0
C969 C 0.06898 0.3777 0.75729 0.0
C970 C 0.0781 0.38327 0.7267 0.0
H971 H 0.10363 0.361 0.63275 0.0
H972 H 0.10407 0.36834 0.68052 0.0
H973 H 0.08591 0.36072 0.66187 0.0
H974 H 0.0485 0.3893 0.66256 0.0
H975 H 0.03248 0.37971 0.71606 0.0
H976 H 0.56234 0.92391 0.72759 0.0
H977 H 0.55433 0.90685 0.78154 0.0
H978 H 0.59911 0.91551 0.83543 0.0
H979 H 0.6074 0.93209 0.78134 0.0
H980 H 0.58989 0.8839 0.84479 0.0
H981 H 0.54023 0.92693 0.88057 0.0
H982 H 0.53946 0.91824 0.83416 0.0
H983 H 0.5552 0.93179 0.84567 0.0
C984 C 0.57052 0.92209 0.75082 0.0
C985 C 0.58543 0.92954 0.75036 0.0
C986 C 0.5659 0.91237 0.78167 0.0
C987 C 0.576 0.91018 0.81283 0.0
C988 C 0.59111 0.91707 0.81173 0.0
H989 H 0.57905 0.88984 0.04423 0.0
H990 H 0.58472 0.89138 0.97616 0.0
C991 C 0.5958 0.92661 0.7808 0.0
C992 C 0.57066 0.90156 0.84769 0.0
H993 H 0.54457 0.90484 0.92183 0.0
C994 C 0.57985 0.88834 0.86142 0.0
C995 C 0.55754 0.90734 0.86933 0.0
C996 C 0.54759 0.92193 0.85697 0.0
C997 C 0.57661 0.88114 0.89687 0.0
C998 C 0.56393 0.88739 0.91911 0.0
C999 C 0.55423 0.90001 0.90452 0.0
C1000 C 0.56171 0.88274 0.95941 0.0
C1001 C 0.58702 0.86719 0.91065 0.0
C1002 C 0.54702 0.87705 0.97259 0.0
C1003 C 0.54382 0.87611 0.01151 0.0
C1004 C 0.55521 0.88107 0.03753 0.0
C1005 C 0.5702 0.8858 0.02447 0.0
C1006 C 0.57345 0.88661 0.98567 0.0
H1007 H 0.59265 0.86056 0.8866 0.0
H1008 H 0.59663 0.87207 0.92834 0.0
H1009 H 0.58014 0.85845 0.92819 0.0
H1010 H 0.53776 0.87418 0.95275 0.0
H1011 H 0.53211 0.87261 0.02118 0.0
H1012 H 0.56138 0.55961 0.2554 0.0
H1013 H 0.57805 0.55439 0.31067 0.0
H1014 H 0.58514 0.60603 0.32234 0.0
H1015 H 0.56812 0.61143 0.26769 0.0
H1016 H 0.6091 0.56171 0.32956 0.0
H1017 H 0.56544 0.59355 0.42368 0.0
H1018 H 0.56098 0.58854 0.37537 0.0
H1019 H 0.57317 0.60569 0.3854 0.0
C1020 C 0.56657 0.56987 0.26953 0.0
C1021 C 0.56321 0.58595 0.25752 0.0
C1022 C 0.57614 0.56685 0.30103 0.0
C1023 C 0.58259 0.57984 0.32096 0.0
C1024 C 0.57998 0.59586 0.30784 0.0
H1025 H 0.61846 0.57152 0.55181 0.0
H1026 H 0.61704 0.58243 0.48675 0.0
C1027 C 0.57027 0.59891 0.27657 0.0
C1028 C 0.59109 0.57656 0.35686 0.0
H1029 H 0.58775 0.58161 0.45242 0.0
C1030 C 0.60457 0.56621 0.35642 0.0
C1031 C 0.58516 0.58248 0.39185 0.0
C1032 C 0.57033 0.59307 0.39436 0.0
C1033 C 0.61197 0.56123 0.39022 0.0
C1034 C 0.60564 0.56664 0.42519 0.0
C1035 C 0.59266 0.5776 0.42549 0.0
C1036 C 0.61065 0.55946 0.46191 0.0
C1037 C 0.62628 0.54994 0.38828 0.0
C1038 C 0.60802 0.54287 0.46919 0.0
C1039 C 0.60879 0.53671 0.50612 0.0
C1040 C 0.61225 0.54704 0.5362 0.0
C1041 C 0.61603 0.56334 0.52875 0.0
C1042 C 0.61517 0.56955 0.49175 0.0
H1043 H 0.63271 0.55131 0.36084 0.0
H1044 H 0.63461 0.55225 0.41176 0.0
H1045 H 0.62233 0.53714 0.39068 0.0
H1046 H 0.60412 0.53496 0.44684 0.0
H1047 H 0.60557 0.52417 0.51158 0.0
H1048 H 0.92061 0.59104 0.03225 0.0
H1049 H 0.91356 0.59038 0.96501 0.0
H1050 H 0.96028 0.60705 0.93465 0.0
H1051 H 0.96735 0.60763 0.00214 0.0
H1052 H 0.91538 0.61365 0.89969 0.0
H1053 H 0.95655 0.55976 0.89151 0.0
H1054 H 0.94963 0.56783 0.93618 0.0
H1055 H 0.96441 0.57843 0.90914 0.0
C1056 C 0.92917 0.59499 0.01116 0.0
C1057 C 0.94451 0.59925 0.02191 0.0
C1058 C 0.92516 0.59464 0.9729 0.0
C1059 C 0.93647 0.59849 0.94498 0.0
C1060 C 0.95144 0.60394 0.95587 0.0
H1061 H 0.93013 0.56079 0.71515 0.0
H1062 H 0.93949 0.57689 0.76813 0.0
C1063 C 0.95545 0.60433 0.99423 0.0
C1064 C 0.93318 0.59463 0.90502 0.0
H1065 H 0.94111 0.56572 0.8384 0.0
C1066 C 0.92115 0.60334 0.88593 0.0
C1067 C 0.94076 0.58117 0.88727 0.0
C1068 C 0.9535 0.57114 0.90698 0.0
C1069 C 0.91621 0.59867 0.84976 0.0
C1070 C 0.92323 0.58469 0.83284 0.0
C1071 C 0.93574 0.57644 0.85133 0.0
C1072 C 0.91693 0.57735 0.79791 0.0
C1073 C 0.90342 0.60867 0.83027 0.0
C1074 C 0.90107 0.57244 0.79674 0.0
C1075 C 0.89565 0.56332 0.76642 0.0
C1076 C 0.90606 0.55868 0.73691 0.0
C1077 C 0.92181 0.56408 0.73749 0.0
C1078 C 0.92718 0.57333 0.76771 0.0
H1079 H 0.90356 0.62158 0.83946 0.0
H1080 H 0.90479 0.60831 0.79897 0.0
H1081 H 0.89165 0.60373 0.83805 0.0
H1082 H 0.89304 0.57497 0.82016 0.0
H1083 H 0.88347 0.55933 0.767 0.0
H1084 H 0.93181 0.92335 0.24969 0.0
H1085 H 0.91478 0.92727 0.30512 0.0
H1086 H 0.91225 0.87517 0.321 0.0
H1087 H 0.92966 0.87108 0.26584 0.0
H1088 H 0.88447 0.91705 0.32622 0.0
H1089 H 0.9311 0.89027 0.4204 0.0
H1090 H 0.93503 0.89541 0.37146 0.0
H1091 H 0.92417 0.87739 0.3834 0.0
C1092 C 0.92755 0.91268 0.26467 0.0
C1093 C 0.93233 0.89689 0.25363 0.0
C1094 C 0.91774 0.91496 0.29631 0.0
C1095 C 0.91247 0.90153 0.31753 0.0
C1096 C 0.91646 0.88571 0.30543 0.0
H1097 H 0.87889 0.91384 0.55122 0.0
H1098 H 0.88084 0.90056 0.48913 0.0
C1099 C 0.92637 0.88341 0.27384 0.0
C1100 C 0.90387 0.90436 0.35374 0.0
H1101 H 0.90877 0.90202 0.44952 0.0
C1102 C 0.88963 0.91354 0.35322 0.0
C1103 C 0.91059 0.8997 0.38894 0.0
C1104 C 0.92611 0.89025 0.39136 0.0
C1105 C 0.88231 0.9188 0.38696 0.0
C1106 C 0.88954 0.91494 0.422 0.0
C1107 C 0.90322 0.90491 0.42259 0.0
C1108 C 0.88466 0.923 0.45776 0.0
C1109 C 0.86716 0.92882 0.38474 0.0
C1110 C 0.88577 0.94 0.46052 0.0
C1111 C 0.88467 0.94751 0.49576 0.0
C1112 C 0.88245 0.93814 0.52874 0.0
C1113 C 0.88036 0.92127 0.52592 0.0
C1114 C 0.88153 0.91372 0.4906 0.0
H1115 H 0.86034 0.92584 0.359 0.0
H1116 H 0.85952 0.92686 0.41013 0.0
H1117 H 0.87011 0.94194 0.383 0.0
H1118 H 0.88861 0.94736 0.43581 0.0
H1119 H 0.88655 0.96051 0.49756 0.0
H1120 H 0.92836 0.87388 0.0418 0.0
H1121 H 0.91845 0.87747 0.97686 0.0
H1122 H 0.96334 0.89763 0.94257 0.0
H1123 H 0.97319 0.89402 0.00726 0.0
H1124 H 0.91672 0.90919 0.94553 0.0
H1125 H 0.95235 0.86813 0.85299 0.0
H1126 H 0.95037 0.8648 0.90352 0.0
H1127 H 0.96403 0.8796 0.88527 0.0
C1128 C 0.93623 0.87853 0.01995 0.0
C1129 C 0.95152 0.88362 0.0291 0.0
C1130 C 0.93057 0.88063 0.98303 0.0
C1131 C 0.94022 0.88765 0.95484 0.0
C1132 C 0.95582 0.89187 0.96365 0.0
H1133 H 0.93394 0.93846 0.74348 0.0
H1134 H 0.9416 0.92297 0.80019 0.0
C1135 C 0.96142 0.88987 0.00054 0.0
C1136 C 0.93339 0.8929 0.91809 0.0
H1137 H 0.939 0.89069 0.82236 0.0
C1138 C 0.92135 0.90494 0.91853 0.0
C1139 C 0.93962 0.88744 0.88305 0.0
C1140 C 0.95221 0.87417 0.88103 0.0
C1141 C 0.91589 0.91227 0.88491 0.0
C1142 C 0.92236 0.90708 0.84979 0.0
C1143 C 0.93406 0.89465 0.84929 0.0
C1144 C 0.9178 0.91513 0.81359 0.0
C1145 C 0.90386 0.9261 0.88753 0.0
C1146 C 0.90194 0.9155 0.80175 0.0
C1147 C 0.89749 0.92451 0.76962 0.0
C1148 C 0.90886 0.93311 0.74837 0.0
C1149 C 0.92487 0.93204 0.75926 0.0
C1150 C 0.92928 0.92315 0.79163 0.0
H1151 H 0.90307 0.93116 0.91658 0.0
H1152 H 0.90684 0.93613 0.86748 0.0
H1153 H 0.89197 0.92155 0.88013 0.0
H1154 H 0.89295 0.90907 0.81777 0.0
H1155 H 0.88509 0.92489 0.76172 0.0
H1156 H 0.61898 0.91371 0.55817 0.0
H1157 H 0.61739 0.90059 0.4961 0.0
H1158 H 0.61252 0.94793 0.44247 0.0
H1159 H 0.61429 0.9609 0.50422 0.0
H1160 H 0.58975 0.90464 0.45894 0.0
H1161 H 0.63839 0.92361 0.36348 0.0
H1162 H 0.63969 0.92494 0.41445 0.0
H1163 H 0.62968 0.94076 0.38754 0.0
C1164 C 0.6184 0.92124 0.53281 0.0
C1165 C 0.61692 0.93824 0.53553 0.0
C1166 C 0.61741 0.91378 0.49746 0.0
C1167 C 0.61497 0.92328 0.46456 0.0
C1168 C 0.61481 0.94035 0.4672 0.0
H1169 H 0.56631 0.92631 0.25883 0.0
H1170 H 0.58312 0.92963 0.31407 0.0
C1171 C 0.61578 0.94778 0.50247 0.0
C1172 C 0.60934 0.91567 0.42936 0.0
H1173 H 0.61345 0.91715 0.3331 0.0
C1174 C 0.59516 0.90697 0.43145 0.0
C1175 C 0.61635 0.91884 0.39356 0.0
C1176 C 0.63196 0.92741 0.38965 0.0
C1177 C 0.58718 0.90238 0.39866 0.0
C1178 C 0.59376 0.90633 0.36278 0.0
C1179 C 0.6084 0.91421 0.36066 0.0
C1180 C 0.5848 0.90385 0.32745 0.0
C1181 C 0.57126 0.89437 0.40274 0.0
C1182 C 0.5804 0.88822 0.31629 0.0
C1183 C 0.57062 0.88627 0.28491 0.0
C1184 C 0.56522 0.89994 0.26392 0.0
C1185 C 0.57017 0.91552 0.27443 0.0
C1186 C 0.57985 0.91745 0.3059 0.0
H1187 H 0.56651 0.89504 0.43217 0.0
H1188 H 0.56245 0.90016 0.38335 0.0
H1189 H 0.5725 0.8813 0.39518 0.0
H1190 H 0.58432 0.87754 0.3322 0.0
H1191 H 0.5672 0.87407 0.27731 0.0
H1192 H 0.52865 0.60174 0.01036 0.0
H1193 H 0.53978 0.59999 0.94618 0.0
H1194 H 0.5847 0.61672 0.98698 0.0
H1195 H 0.57352 0.6184 0.0515 0.0
H1196 H 0.55795 0.6211 0.89322 0.0
H1197 H 0.59184 0.56813 0.95431 0.0
H1198 H 0.57533 0.57756 0.9791 0.0
H1199 H 0.59403 0.58763 0.9763 0.0
C1200 C 0.54071 0.60562 0.00522 0.0
C1201 C 0.5503 0.61017 0.03545 0.0
C1202 C 0.54705 0.60463 0.96868 0.0
C1203 C 0.56309 0.60805 0.96206 0.0
C1204 C 0.57231 0.61397 0.9917 0.0
H1205 H 0.6131 0.56169 0.77258 0.0
H1206 H 0.60829 0.57965 0.82645 0.0
C1207 C 0.56593 0.61501 0.02835 0.0
C1208 C 0.57049 0.60281 0.92601 0.0
H1209 H 0.5923 0.57136 0.88862 0.0
C1210 C 0.56572 0.61042 0.8921 0.0
C1211 C 0.58058 0.58884 0.92479 0.0
C1212 C 0.58573 0.57994 0.96044 0.0
C1213 C 0.57038 0.60408 0.85681 0.0
C1214 C 0.57971 0.58956 0.85563 0.0
C1215 C 0.58514 0.58248 0.88958 0.0
C1216 C 0.58277 0.58055 0.82005 0.0
C1217 C 0.56507 0.61285 0.82123 0.0
C1218 C 0.57002 0.57512 0.7985 0.0
C1219 C 0.57271 0.56488 0.76764 0.0
C1220 C 0.58821 0.55967 0.75808 0.0
C1221 C 0.601 0.56539 0.77929 0.0
C1222 C 0.59829 0.57572 0.80999 0.0
H1223 H 0.56324 0.6261 0.82628 0.0
H1224 H 0.57383 0.61123 0.79782 0.0
H1225 H 0.55356 0.60789 0.81214 0.0
H1226 H 0.55791 0.57828 0.80638 0.0
H1227 H 0.5626 0.56066 0.75201 0.0
H1228 H 0.9262 0.60625 0.25438 0.0
H1229 H 0.90844 0.60282 0.30896 0.0
H1230 H 0.91265 0.55057 0.2987 0.0
H1231 H 0.93009 0.55383 0.24362 0.0
H1232 H 0.88178 0.56121 0.31627 0.0
H1233 H 0.92608 0.5888 0.41142 0.0
H1234 H 0.91957 0.60143 0.37251 0.0
H1235 H 0.93087 0.58307 0.36342 0.0
C1236 C 0.92327 0.59401 0.26355 0.0
C1237 C 0.92975 0.5803 0.24491 0.0
C1238 C 0.91314 0.59209 0.29481 0.0
C1239 C 0.90947 0.57645 0.30828 0.0
C1240 C 0.91537 0.56276 0.2888 0.0
H1241 H 0.88132 0.52262 0.49643 0.0
H1242 H 0.88386 0.53378 0.43227 0.0
C1243 C 0.92539 0.56465 0.25738 0.0
C1244 C 0.90035 0.57416 0.34399 0.0
H1245 H 0.90299 0.57879 0.43967 0.0
C1246 C 0.88629 0.56524 0.34324 0.0
C1247 C 0.90622 0.57949 0.37913 0.0
C1248 C 0.92156 0.58862 0.38194 0.0
C1249 C 0.87825 0.561 0.37686 0.0
C1250 C 0.88455 0.56566 0.41203 0.0
C1251 C 0.89812 0.57533 0.41262 0.0
C1252 C 0.87888 0.55876 0.44856 0.0
C1253 C 0.86331 0.55123 0.37449 0.0
C1254 C 0.87485 0.56902 0.47896 0.0
C1255 C 0.87333 0.56259 0.51569 0.0
C1256 C 0.87597 0.54588 0.52233 0.0
C1257 C 0.87894 0.5355 0.49165 0.0
C1258 C 0.88035 0.54188 0.45502 0.0
H1259 H 0.85715 0.55353 0.3472 0.0
H1260 H 0.86646 0.53805 0.37607 0.0
H1261 H 0.85501 0.55414 0.39819 0.0
H1262 H 0.87387 0.58209 0.47463 0.0
H1263 H 0.87135 0.5708 0.53918 0.0
H1264 H 0.40742 0.12056 0.94877 0.0
H1265 H 0.3947 0.12052 0.01174 0.0
H1266 H 0.44012 0.10991 0.06287 0.0
H1267 H 0.4527 0.11 0.00024 0.0
H1268 H 0.39564 0.09186 0.05126 0.0
H1269 H 0.41981 0.13998 0.14094 0.0
H1270 H 0.42063 0.14097 0.08975 0.0
H1271 H 0.43536 0.12937 0.11578 0.0
C1272 C 0.4147 0.11898 0.97374 0.0
C1273 C 0.43098 0.11542 0.97012 0.0
C1274 C 0.40746 0.11891 0.00958 0.0
C1275 C 0.41648 0.11541 0.04207 0.0
C1276 C 0.43298 0.11307 0.03841 0.0
H1277 H 0.42158 0.06484 0.2433 0.0
H1278 H 0.42324 0.08372 0.18984 0.0
C1279 C 0.44017 0.11305 0.00267 0.0
C1280 C 0.40862 0.11082 0.07823 0.0
H1281 H 0.41199 0.11497 0.17387 0.0
C1282 C 0.39878 0.09721 0.0781 0.0
C1283 C 0.41277 0.11781 0.11312 0.0
C1284 C 0.4226 0.13295 0.11489 0.0
C1285 C 0.39422 0.08943 0.11194 0.0
C1286 C 0.39936 0.09572 0.14688 0.0
C1287 C 0.40813 0.11012 0.14707 0.0
C1288 C 0.39783 0.0862 0.18259 0.0
C1289 C 0.38512 0.07378 0.10974 0.0
C1290 C 0.38295 0.08169 0.19706 0.0
C1291 C 0.38194 0.07065 0.22747 0.0
C1292 C 0.39582 0.06414 0.24416 0.0
C1293 C 0.41065 0.06951 0.23102 0.0
C1294 C 0.41163 0.08039 0.20051 0.0
H1295 H 0.38445 0.06918 0.08031 0.0
H1296 H 0.39072 0.06413 0.12775 0.0
H1297 H 0.37282 0.07593 0.12023 0.0
H1298 H 0.37214 0.08631 0.18412 0.0
H1299 H 0.37033 0.06694 0.23726 0.0
H1300 H 0.42942 0.37442 0.73414 0.0
H1301 H 0.41245 0.37805 0.67863 0.0
H1302 H 0.41205 0.43012 0.69451 0.0
H1303 H 0.4287 0.42665 0.75035 0.0
H1304 H 0.3822 0.41784 0.67513 0.0
H1305 H 0.43032 0.3955 0.57842 0.0
H1306 H 0.4245 0.38179 0.61583 0.0
H1307 H 0.43398 0.40054 0.62715 0.0
C1308 C 0.42566 0.38665 0.72594 0.0
C1309 C 0.43058 0.40027 0.74644 0.0
C1310 C 0.41598 0.38868 0.69419 0.0
C1311 C 0.4112 0.40436 0.68221 0.0
C1312 C 0.41563 0.41791 0.70332 0.0
H1313 H 0.38054 0.46195 0.50218 0.0
H1314 H 0.38335 0.44889 0.5644 0.0
C1315 C 0.42522 0.4159 0.73514 0.0
C1316 C 0.40238 0.40693 0.64649 0.0
H1317 H 0.40699 0.40543 0.5505 0.0
C1318 C 0.3875 0.41492 0.64785 0.0
C1319 C 0.40927 0.40301 0.61098 0.0
C1320 C 0.42544 0.39484 0.60773 0.0
C1321 C 0.37963 0.41969 0.61452 0.0
C1322 C 0.38695 0.41657 0.57909 0.0
C1323 C 0.40137 0.40774 0.57774 0.0
C1324 C 0.38126 0.42429 0.54348 0.0
C1325 C 0.36375 0.4284 0.61755 0.0
C1326 C 0.37884 0.41483 0.51113 0.0
C1327 C 0.37722 0.42233 0.47557 0.0
C1328 C 0.3781 0.43934 0.47207 0.0
C1329 C 0.37952 0.44883 0.50458 0.0
C1330 C 0.38107 0.44136 0.54008 0.0
H1331 H 0.35735 0.42476 0.64387 0.0
H1332 H 0.36564 0.44174 0.61867 0.0
H1333 H 0.35618 0.42585 0.59278 0.0
H1334 H 0.37915 0.40164 0.51311 0.0
H1335 H 0.37643 0.41484 0.45058 0.0
H1336 H 0.05753 0.36039 0.01227 0.0
H1337 H 0.06662 0.3661 0.0759 0.0
H1338 H 0.11507 0.35717 0.04038 0.0
H1339 H 0.10598 0.35133 0.97612 0.0
H1340 H 0.08623 0.35037 0.13245 0.0
H1341 H 0.11301 0.40594 0.06809 0.0
H1342 H 0.09951 0.39342 0.04241 0.0
H1343 H 0.11964 0.38661 0.04969 0.0
C1344 C 0.07004 0.35886 0.01824 0.0
C1345 C 0.08104 0.35517 0.98928 0.0
C1346 C 0.07524 0.36229 0.05466 0.0
C1347 C 0.09151 0.36224 0.06265 0.0
C1348 C 0.10246 0.35743 0.03458 0.0
H1349 H 0.12787 0.41744 0.25376 0.0
H1350 H 0.12764 0.3984 0.20084 0.0
C1351 C 0.09727 0.35403 0.99803 0.0
C1352 C 0.09682 0.36934 0.09861 0.0
H1353 H 0.11254 0.40399 0.13409 0.0
C1354 C 0.09223 0.36196 0.13293 0.0
C1355 C 0.10465 0.38446 0.09904 0.0
C1356 C 0.10943 0.39319 0.06293 0.0
C1357 C 0.09476 0.36961 0.1677 0.0
C1358 C 0.10178 0.38514 0.16792 0.0
C1359 C 0.10715 0.39208 0.13378 0.0
C1360 C 0.10221 0.39521 0.20243 0.0
C1361 C 0.08961 0.36114 0.20377 0.0
C1362 C 0.08797 0.39979 0.22065 0.0
C1363 C 0.08804 0.41068 0.25075 0.0
C1364 C 0.10235 0.41734 0.26302 0.0
C1365 C 0.11664 0.41258 0.24498 0.0
C1366 C 0.11655 0.40165 0.21485 0.0
H1367 H 0.08967 0.34768 0.20036 0.0
H1368 H 0.09742 0.36418 0.22778 0.0
H1369 H 0.0773 0.3651 0.21099 0.0
H1370 H 0.07672 0.39534 0.21083 0.0
H1371 H 0.07682 0.4141 0.2639 0.0
H1372 H 0.11499 0.06928 0.42721 0.0
H1373 H 0.11209 0.07916 0.49249 0.0
H1374 H 0.09715 0.03141 0.52887 0.0
H1375 H 0.1001 0.02161 0.46388 0.0
H1376 H 0.08202 0.07851 0.52516 0.0
H1377 H 0.12491 0.04537 0.61717 0.0
H1378 H 0.12759 0.04718 0.56644 0.0
H1379 H 0.11444 0.03221 0.58608 0.0
C1380 C 0.11175 0.06079 0.44959 0.0
C1381 C 0.10789 0.0447 0.441 0.0
C1382 C 0.11003 0.06643 0.48671 0.0
C1383 C 0.10457 0.05597 0.51561 0.0
C1384 C 0.10174 0.03958 0.50729 0.0
H1385 H 0.05458 0.05869 0.72644 0.0
H1386 H 0.07037 0.05189 0.67007 0.0
C1387 C 0.10338 0.034 0.47021 0.0
C1388 C 0.09916 0.06265 0.55244 0.0
H1389 H 0.10181 0.05695 0.64816 0.0
C1390 C 0.08656 0.07407 0.55211 0.0
C1391 C 0.10498 0.05665 0.58744 0.0
C1392 C 0.11883 0.04478 0.58942 0.0
C1393 C 0.07908 0.07908 0.58576 0.0
C1394 C 0.08463 0.07278 0.62082 0.0
C1395 C 0.09758 0.06175 0.62126 0.0
C1396 C 0.0765 0.07685 0.65701 0.0
C1397 C 0.06476 0.09038 0.58325 0.0
C1398 C 0.07508 0.09308 0.66892 0.0
C1399 C 0.06591 0.09702 0.70079 0.0
C1400 C 0.05818 0.08477 0.72173 0.0
C1401 C 0.06031 0.06842 0.71086 0.0
C1402 C 0.06937 0.06451 0.67871 0.0
H1403 H 0.0598 0.0909 0.55418 0.0
H1404 H 0.05526 0.08649 0.6032 0.0
H1405 H 0.06826 0.1029 0.59087 0.0
H1406 H 0.08079 0.10274 0.65306 0.0
H1407 H 0.06472 0.10972 0.70872 0.0
H1408 H 0.02114 0.87362 0.17855 0.0
H1409 H 0.04838 0.88185 0.19336 0.0
H1410 H 0.02945 0.91888 0.26802 0.0
H1411 H 0.0026 0.91093 0.25292 0.0
H1412 H 0.05757 0.91316 0.1743 0.0
H1413 H 0.06831 0.90312 0.32628 0.0
H1414 H 0.054 0.89152 0.30039 0.0
H1415 H 0.04859 0.91115 0.31972 0.0
C1416 C 0.02293 0.88308 0.1992 0.0
C1417 C 0.00988 0.89168 0.21468 0.0
C1418 C 0.03843 0.88778 0.20759 0.0
C1419 C 0.04097 0.90081 0.23227 0.0
C1420 C 0.02786 0.90852 0.24972 0.0
H1421 H 0.06831 0.98971 0.23987 0.0
H1422 H 0.06167 0.96185 0.22422 0.0
C1423 C 0.0125 0.90407 0.24085 0.0
C1424 C 0.05659 0.90874 0.23461 0.0
H1425 H 0.07794 0.92938 0.29956 0.0
C1426 C 0.06255 0.91617 0.20155 0.0
C1427 C 0.06334 0.9125 0.26995 0.0
C1428 C 0.05831 0.90397 0.30601 0.0
C1429 C 0.07334 0.92894 0.20359 0.0
C1430 C 0.07815 0.93438 0.2395 0.0
C1431 C 0.07403 0.92538 0.27203 0.0
C1432 C 0.08374 0.9512 0.24453 0.0
C1433 C 0.07832 0.93755 0.16759 0.0
C1434 C 0.09842 0.95448 0.26113 0.0
C1435 C 0.10235 0.97058 0.26981 0.0
C1436 C 0.09141 0.98342 0.26295 0.0
C1437 C 0.07693 0.98005 0.24559 0.0
C1438 C 0.07318 0.96415 0.23635 0.0
H1439 H 0.07848 0.92906 0.14324 0.0
H1440 H 0.06965 0.94754 0.16122 0.0
H1441 H 0.09025 0.94292 0.17044 0.0
H1442 H 0.10662 0.9446 0.26811 0.0
H1443 H 0.11354 0.97288 0.28345 0.0
H1444 H 0.58769 0.01644 0.64016 0.0
H1445 H 0.57575 0.04237 0.66035 0.0
H1446 H 0.58253 0.02803 0.77728 0.0
H1447 H 0.59547 0.00266 0.7568 0.0
H1448 H 0.54921 0.04229 0.69314 0.0
H1449 H 0.58827 0.07525 0.78897 0.0
H1450 H 0.59574 0.05912 0.75887 0.0
H1451 H 0.58705 0.05447 0.80457 0.0
C1452 C 0.58731 0.01927 0.67009 0.0
C1453 C 0.59257 0.00775 0.69701 0.0
C1454 C 0.58043 0.03403 0.68166 0.0
C1455 C 0.57823 0.03729 0.72041 0.0
C1456 C 0.58445 0.02614 0.74727 0.0
H1457 H 0.50196 0.06866 0.84974 0.0
H1458 H 0.52758 0.05956 0.82421 0.0
C1459 C 0.59177 0.01157 0.7356 0.0
C1460 C 0.56685 0.05037 0.73243 0.0
H1461 H 0.55957 0.07877 0.80099 0.0
C1462 C 0.55172 0.05063 0.71589 0.0
C1463 C 0.56996 0.06127 0.76225 0.0
C1464 C 0.58622 0.06261 0.77932 0.0
C1465 C 0.53941 0.06063 0.72986 0.0
C1466 C 0.54223 0.07058 0.76139 0.0
C1467 C 0.55749 0.07105 0.77682 0.0
C1468 C 0.5288 0.07856 0.78146 0.0
C1469 C 0.52315 0.05971 0.71246 0.0
C1470 C 0.5213 0.09261 0.76655 0.0
C1471 C 0.50661 0.09793 0.78122 0.0
C1472 C 0.49919 0.08908 0.81055 0.0
C1473 C 0.50729 0.07564 0.82688 0.0
C1474 C 0.52198 0.07048 0.81254 0.0
H1475 H 0.52286 0.05106 0.68847 0.0
H1476 H 0.51437 0.05581 0.73425 0.0
H1477 H 0.51936 0.07196 0.70195 0.0
H1478 H 0.52639 0.09891 0.74234 0.0
H1479 H 0.50065 0.10832 0.76809 0.0
H1480 H 0.39555 0.51843 0.36432 0.0
H1481 H 0.40602 0.54518 0.3469 0.0
H1482 H 0.40711 0.53102 0.22936 0.0
H1483 H 0.39582 0.50474 0.24676 0.0
H1484 H 0.43412 0.54708 0.3219 0.0
H1485 H 0.39716 0.57784 0.21439 0.0
H1486 H 0.38972 0.56131 0.24329 0.0
H1487 H 0.40068 0.55721 0.20012 0.0
C1488 C 0.39731 0.52144 0.33463 0.0
C1489 C 0.39474 0.50977 0.30672 0.0
C1490 C 0.40335 0.53667 0.32467 0.0
C1491 C 0.40727 0.54027 0.28673 0.0
C1492 C 0.40375 0.52886 0.25863 0.0
H1493 H 0.48313 0.57073 0.16575 0.0
H1494 H 0.45724 0.56305 0.19065 0.0
C1495 C 0.39738 0.51377 0.26855 0.0
C1496 C 0.41785 0.5541 0.2775 0.0
H1497 H 0.42613 0.58199 0.20788 0.0
C1498 C 0.43207 0.55514 0.2978 0.0
C1499 C 0.41527 0.56469 0.24612 0.0
C1500 C 0.39977 0.5653 0.2251 0.0
C1501 C 0.4443 0.56532 0.28558 0.0
C1502 C 0.44227 0.57473 0.25216 0.0
C1503 C 0.42765 0.57469 0.23345 0.0
C1504 C 0.45613 0.58195 0.23289 0.0
C1505 C 0.45984 0.56491 0.3066 0.0
C1506 C 0.46382 0.59551 0.24766 0.0
C1507 C 0.4787 0.60002 0.2333 0.0
C1508 C 0.48608 0.59083 0.20445 0.0
C1509 C 0.47783 0.57791 0.18831 0.0
C1510 C 0.46298 0.57358 0.20228 0.0
H1511 H 0.45967 0.55642 0.33133 0.0
H1512 H 0.46965 0.56112 0.28722 0.0
H1513 H 0.46246 0.57731 0.31689 0.0
H1514 H 0.45868 0.60208 0.27138 0.0
H1515 H 0.48479 0.61004 0.24619 0.0
H1516 H 0.90996 0.47381 0.65895 0.0
H1517 H 0.91496 0.44674 0.68504 0.0
H1518 H 0.87885 0.45492 0.77049 0.0
H1519 H 0.87365 0.48242 0.74404 0.0
H1520 H 0.90859 0.44559 0.79911 0.0
H1521 H 0.89209 0.40346 0.68611 0.0
H1522 H 0.90332 0.41999 0.66687 0.0
H1523 H 0.88425 0.4241 0.68863 0.0
C1524 C 0.90283 0.46979 0.68287 0.0
C1525 C 0.89149 0.48028 0.69966 0.0
C1526 C 0.90559 0.4542 0.6975 0.0
C1527 C 0.8971 0.44869 0.72931 0.0
C1528 C 0.88536 0.45889 0.74557 0.0
H1529 H 0.94764 0.36861 0.8505 0.0
H1530 H 0.92404 0.385 0.8335 0.0
C1531 C 0.88242 0.47455 0.7305 0.0
C1532 C 0.90239 0.43328 0.7479 0.0
H1533 H 0.91504 0.3949 0.72462 0.0
C1534 C 0.9095 0.43426 0.78359 0.0
C1535 C 0.9035 0.41852 0.72762 0.0
C1536 C 0.89521 0.41641 0.69034 0.0
C1537 C 0.91919 0.42149 0.79755 0.0
C1538 C 0.92162 0.40739 0.77533 0.0
C1539 C 0.91325 0.40579 0.74142 0.0
C1540 C 0.93476 0.39572 0.78346 0.0
C1541 C 0.92793 0.42376 0.83423 0.0
C1542 C 0.94834 0.39598 0.76025 0.0
C1543 C 0.96179 0.38672 0.76984 0.0
C1544 C 0.96187 0.37694 0.80276 0.0
C1545 C 0.94794 0.37604 0.82495 0.0
C1546 C 0.93448 0.38542 0.81541 0.0
H1547 H 0.92553 0.43594 0.84677 0.0
H1548 H 0.92426 0.41429 0.85505 0.0
H1549 H 0.94091 0.42227 0.82944 0.0
H1550 H 0.94877 0.40388 0.73548 0.0
H1551 H 0.97229 0.38763 0.75205 0.0
H1552 H 0.98306 0.11075 0.73136 0.0
H1553 H 0.95702 0.10247 0.70801 0.0
H1554 H 0.95163 0.07069 0.80523 0.0
H1555 H 0.97748 0.0787 0.82822 0.0
H1556 H 0.95372 0.06912 0.69191 0.0
H1557 H 0.90636 0.08925 0.7909 0.0
H1558 H 0.92522 0.09934 0.78694 0.0
H1559 H 0.9234 0.08105 0.81516 0.0
C1560 C 0.97603 0.10244 0.74831 0.0
C1561 C 0.98229 0.09525 0.78138 0.0
C1562 C 0.96119 0.09773 0.73498 0.0
C1563 C 0.95231 0.08611 0.75513 0.0
C1564 C 0.95808 0.07993 0.78964 0.0
H1565 H 0.89831 0.00439 0.74861 0.0
H1566 H 0.90881 0.03123 0.763 0.0
C1567 C 0.97294 0.0844 0.80256 0.0
C1568 C 0.93881 0.07789 0.73732 0.0
H1569 H 0.90174 0.06395 0.75756 0.0
C1570 C 0.94214 0.06835 0.7054 0.0
C1571 C 0.9238 0.07685 0.75527 0.0
C1572 C 0.91942 0.0873 0.78878 0.0
C1573 C 0.93148 0.05662 0.69312 0.0
C1574 C 0.91679 0.05484 0.71255 0.0
C1575 C 0.91296 0.06531 0.74267 0.0
C1576 C 0.90657 0.04064 0.70567 0.0
C1577 C 0.93674 0.0453 0.6617 0.0
C1578 C 0.90088 0.03738 0.66928 0.0
C1579 C 0.89513 0.02194 0.66098 0.0
C1580 C 0.89446 0.00985 0.68931 0.0
C1581 C 0.89849 0.01368 0.72656 0.0
C1582 C 0.90453 0.02899 0.7347 0.0
H1583 H 0.94958 0.04637 0.6549 0.0
H1584 H 0.93443 0.0324 0.66952 0.0
H1585 H 0.93001 0.04834 0.63562 0.0
H1586 H 0.902 0.04632 0.64667 0.0
H1587 H 0.89223 0.01911 0.63196 0.0
H1588 H 0.48437 0.87907 0.23068 0.0
H1589 H 0.45648 0.88651 0.24478 0.0
H1590 H 0.46139 0.93066 0.1786 0.0
H1591 H 0.48887 0.92349 0.16471 0.0
H1592 H 0.44721 0.91524 0.28275 0.0
H1593 H 0.41865 0.91402 0.14318 0.0
H1594 H 0.43679 0.90274 0.15332 0.0
H1595 H 0.43738 0.92397 0.13968 0.0
C1596 C 0.47937 0.89022 0.21871 0.0
C1597 C 0.48885 0.90075 0.19682 0.0
C1598 C 0.46346 0.89442 0.22668 0.0
C1599 C 0.45677 0.90897 0.21208 0.0
C1600 C 0.46614 0.91917 0.18936 0.0
H1601 H 0.41489 0.99253 0.23543 0.0
H1602 H 0.4244 0.96563 0.21618 0.0
C1603 C 0.48196 0.91513 0.18183 0.0
C1604 C 0.4408 0.91496 0.22389 0.0
H1605 H 0.40931 0.93592 0.18603 0.0
C1606 C 0.43849 0.91917 0.26199 0.0
C1607 C 0.42936 0.91992 0.19683 0.0
C1608 C 0.4306 0.91475 0.15603 0.0
C1609 C 0.42625 0.93006 0.27277 0.0
C1610 C 0.41607 0.93673 0.24467 0.0
C1611 C 0.41718 0.93088 0.2075 0.0
C1612 C 0.40761 0.95244 0.25101 0.0
C1613 C 0.42542 0.93583 0.31321 0.0
C1614 C 0.39452 0.95395 0.2758 0.0
C1615 C 0.3889 0.96947 0.28656 0.0
C1616 C 0.3965 0.9835 0.27296 0.0
C1617 C 0.40886 0.98188 0.2463 0.0
C1618 C 0.41427 0.96652 0.23525 0.0
H1619 H 0.43422 0.92941 0.33159 0.0
H1620 H 0.42763 0.94913 0.31415 0.0
H1621 H 0.41337 0.93377 0.32505 0.0
H1622 H 0.38921 0.94319 0.28817 0.0
H1623 H 0.37942 0.97047 0.3074 0.0
H1624 H 0.61287 0.47529 0.73113 0.0
H1625 H 0.60527 0.44769 0.75149 0.0
H1626 H 0.56056 0.45407 0.69395 0.0
H1627 H 0.56811 0.48095 0.67301 0.0
H1628 H 0.58198 0.44046 0.79752 0.0
H1629 H 0.5697 0.40815 0.66678 0.0
H1630 H 0.58154 0.42631 0.66664 0.0
H1631 H 0.5602 0.42774 0.66227 0.0
C1632 C 0.6016 0.47058 0.72214 0.0
C1633 C 0.59105 0.48039 0.70075 0.0
C1634 C 0.59728 0.45481 0.73371 0.0
C1635 C 0.58248 0.44859 0.72357 0.0
C1636 C 0.57227 0.45824 0.70111 0.0
H1637 H 0.50568 0.42434 0.83089 0.0
H1638 H 0.53247 0.43104 0.81275 0.0
C1639 C 0.57653 0.47383 0.68965 0.0
C1640 C 0.57624 0.43333 0.74064 0.0
H1641 H 0.54931 0.40445 0.71892 0.0
C1642 C 0.57534 0.43214 0.78031 0.0
C1643 C 0.56806 0.4219 0.71863 0.0
C1644 C 0.57013 0.42102 0.67622 0.0
C1645 C 0.56456 0.42164 0.79807 0.0
C1646 C 0.55413 0.41258 0.77555 0.0
C1647 C 0.55687 0.41182 0.73632 0.0
C1648 C 0.53855 0.40716 0.79057 0.0
C1649 C 0.56363 0.4213 0.84076 0.0
C1650 C 0.53271 0.39155 0.78338 0.0
C1651 C 0.51703 0.38768 0.79334 0.0
C1652 C 0.50694 0.39948 0.81009 0.0
C1653 C 0.51302 0.41493 0.81792 0.0
C1654 C 0.52853 0.41873 0.80808 0.0
H1655 H 0.57569 0.42209 0.85301 0.0
H1656 H 0.55666 0.43207 0.85072 0.0
H1657 H 0.55796 0.41005 0.85164 0.0
H1658 H 0.54015 0.3825 0.76935 0.0
H1659 H 0.5127 0.37568 0.78694 0.0
H1660 H 0.01144 0.56087 0.15928 0.0
H1661 H 0.0361 0.55157 0.18877 0.0
H1662 H 0.03183 0.59006 0.27072 0.0
H1663 H 0.00702 0.59969 0.24076 0.0
H1664 H 0.06685 0.56973 0.21494 0.0
H1665 H 0.02733 0.54263 0.32566 0.0
H1666 H 0.0198 0.54794 0.27935 0.0
H1667 H 0.0247 0.56372 0.31177 0.0
C1668 C 0.01593 0.56763 0.18302 0.0
C1669 C 0.00724 0.58089 0.19804 0.0
C1670 C 0.03007 0.56235 0.19967 0.0
C1671 C 0.03571 0.5701 0.23192 0.0
C1672 C 0.02764 0.58399 0.24569 0.0
H1673 H 0.09177 0.50488 0.37527 0.0
H1674 H 0.08026 0.5313 0.35575 0.0
C1675 C 0.01352 0.58946 0.2286 0.0
C1676 C 0.04855 0.56195 0.25366 0.0
H1677 H 0.05349 0.53296 0.32252 0.0
C1678 C 0.0641 0.56198 0.23913 0.0
C1679 C 0.0449 0.55193 0.28521 0.0
C1680 C 0.0283 0.55142 0.30162 0.0
C1681 C 0.07595 0.55161 0.2543 0.0
C1682 C 0.07195 0.54057 0.28386 0.0
C1683 C 0.05663 0.54137 0.29988 0.0
C1684 C 0.08255 0.52674 0.29557 0.0
C1685 C 0.09251 0.55237 0.23793 0.0
C1686 C 0.08824 0.5156 0.26835 0.0
C1687 C 0.09512 0.50069 0.27957 0.0
C1688 C 0.09618 0.4966 0.31811 0.0
C1689 C 0.09128 0.50798 0.34538 0.0
C1690 C 0.08465 0.52301 0.3342 0.0
H1691 H 0.09523 0.56497 0.22836 0.0
H1692 H 0.10158 0.5483 0.2588 0.0
H1693 H 0.09339 0.5444 0.21275 0.0
H1694 H 0.08632 0.51785 0.23845 0.0
H1695 H 0.09848 0.49187 0.25816 0.0
H1696 H 0.17462 0.01498 0.35733 0.0
H1697 H 0.2023 0.00881 0.37365 0.0
H1698 H 0.21526 0.01055 0.25527 0.0
H1699 H 0.18756 0.01653 0.23872 0.0
H1700 H 0.23034 0.98359 0.32989 0.0
H1701 H 0.23349 0.05149 0.32801 0.0
H1702 H 0.21555 0.0411 0.34133 0.0
H1703 H 0.22177 0.04169 0.29265 0.0
C1704 C 0.18321 0.01321 0.3347 0.0
C1705 C 0.17897 0.01592 0.29672 0.0
C1706 C 0.19902 0.00979 0.34409 0.0
C1707 C 0.21068 0.00909 0.31558 0.0
C1708 C 0.20631 0.01083 0.27752 0.0
H1709 H 0.31137 0.00382 0.28909 0.0
H1710 H 0.28327 0.99676 0.29258 0.0
C1711 C 0.19056 0.01433 0.26815 0.0
C1712 C 0.22759 0.00968 0.3255 0.0
H1713 H 0.25743 0.03676 0.3336 0.0
C1714 C 0.23633 0.99517 0.33119 0.0
C1715 C 0.23517 0.02483 0.32751 0.0
C1716 C 0.22609 0.04073 0.32223 0.0
C1717 C 0.25275 0.99546 0.33793 0.0
C1718 C 0.26048 0.01064 0.33815 0.0
C1719 C 0.25152 0.02512 0.33356 0.0
C1720 C 0.27793 0.0121 0.34085 0.0
C1721 C 0.2616 0.97957 0.34476 0.0
C1722 C 0.28431 0.02298 0.36689 0.0
C1723 C 0.3002 0.02731 0.36424 0.0
C1724 C 0.31005 0.02061 0.336 0.0
C1725 C 0.304 0.00894 0.31147 0.0
C1726 C 0.28799 0.00482 0.31364 0.0
H1727 H 0.25361 0.97013 0.35655 0.0
H1728 H 0.26644 0.97503 0.31741 0.0
H1729 H 0.27163 0.98113 0.36452 0.0
H1730 H 0.27677 0.02879 0.38802 0.0
H1731 H 0.30467 0.03632 0.3835 0.0
H1732 H 0.49093 0.17138 0.80727 0.0
H1733 H 0.50256 0.19791 0.82126 0.0
H1734 H 0.45623 0.21665 0.85317 0.0
H1735 H 0.44463 0.19034 0.83927 0.0
H1736 H 0.49214 0.22792 0.78451 0.0
H1737 H 0.48585 0.23125 0.9401 0.0
H1738 H 0.48671 0.21214 0.91494 0.0
H1739 H 0.46834 0.22363 0.91831 0.0
C1740 C 0.48333 0.18111 0.81796 0.0
C1741 C 0.46692 0.17886 0.82255 0.0
C1742 C 0.48997 0.19619 0.82589 0.0
C1743 C 0.48029 0.20905 0.83908 0.0
C1744 C 0.46394 0.20672 0.84392 0.0
H1745 H 0.44938 0.29953 0.85106 0.0
H1746 H 0.45917 0.27164 0.85956 0.0
C1747 C 0.4573 0.19178 0.83556 0.0
C1748 C 0.48655 0.22556 0.84387 0.0
H1749 H 0.48355 0.25715 0.90551 0.0
C1750 C 0.4909 0.2343 0.81117 0.0
C1751 C 0.4851 0.2337 0.87882 0.0
C1752 C 0.48141 0.22464 0.91513 0.0
C1753 C 0.49175 0.25136 0.81156 0.0
C1754 C 0.48839 0.25968 0.84571 0.0
C1755 C 0.48599 0.25073 0.87931 0.0
C1756 C 0.48356 0.27707 0.84524 0.0
C1757 C 0.49454 0.26041 0.77471 0.0
C1758 C 0.49411 0.28943 0.83502 0.0
C1759 C 0.48847 0.30546 0.82981 0.0
C1760 C 0.47225 0.30926 0.83503 0.0
C1761 C 0.46192 0.29694 0.84667 0.0
C1762 C 0.46752 0.28103 0.85184 0.0
H1763 H 0.49596 0.25205 0.75029 0.0
H1764 H 0.48447 0.26897 0.76892 0.0
H1765 H 0.50547 0.26768 0.77682 0.0
H1766 H 0.50654 0.2866 0.82994 0.0
H1767 H 0.49666 0.31465 0.82014 0.0
H1768 H 0.31571 0.4794 0.3967 0.0
H1769 H 0.2891 0.48831 0.41645 0.0
H1770 H 0.27196 0.47966 0.30374 0.0
H1771 H 0.29866 0.47142 0.28338 0.0
H1772 H 0.25876 0.50849 0.33911 0.0
H1773 H 0.25574 0.45277 0.43106 0.0
H1774 H 0.27138 0.46693 0.43899 0.0
H1775 H 0.27134 0.45524 0.39628 0.0
C1776 C 0.30644 0.47998 0.37574 0.0
C1777 C 0.30932 0.47493 0.33829 0.0
C1778 C 0.29119 0.48488 0.38725 0.0
C1779 C 0.27859 0.48455 0.3616 0.0
C1780 C 0.28157 0.48009 0.3239 0.0
H1781 H 0.19029 0.46821 0.29971 0.0
H1782 H 0.21591 0.48034 0.3117 0.0
C1783 C 0.29678 0.47526 0.31239 0.0
C1784 C 0.26198 0.48703 0.37415 0.0
H1785 H 0.23192 0.46593 0.41569 0.0
C1786 C 0.2529 0.49947 0.35676 0.0
C1787 C 0.25443 0.4754 0.39767 0.0
C1788 C 0.26363 0.46177 0.41706 0.0
C1789 C 0.2363 0.49965 0.35938 0.0
C1790 C 0.22869 0.48693 0.37933 0.0
C1791 C 0.23782 0.47561 0.40021 0.0
C1792 C 0.21198 0.48291 0.37212 0.0
C1793 C 0.22702 0.51285 0.33881 0.0
C1794 C 0.20126 0.48026 0.40214 0.0
C1795 C 0.18656 0.47323 0.39526 0.0
C1796 C 0.18258 0.4686 0.35839 0.0
C1797 C 0.1931 0.47175 0.32835 0.0
C1798 C 0.20765 0.47888 0.33512 0.0
H1799 H 0.23361 0.52446 0.33833 0.0
H1800 H 0.22528 0.50916 0.30899 0.0
H1801 H 0.21519 0.51501 0.35215 0.0
H1802 H 0.20455 0.48296 0.43098 0.0
H1803 H 0.17879 0.47054 0.419 0.0
H1804 H 0.03916 0.30848 0.87351 0.0
H1805 H 0.03457 0.27933 0.86875 0.0
H1806 H 0.98719 0.2893 0.82822 0.0
H1807 H 0.99183 0.31861 0.83181 0.0
H1808 H 0.01275 0.25844 0.89952 0.0
H1809 H 0.00652 0.26278 0.74263 0.0
H1810 H 0.01338 0.27954 0.77038 0.0
H1811 H 0.99264 0.27482 0.76987 0.0
C1812 C 0.02771 0.30452 0.86386 0.0
C1813 C 0.01596 0.31587 0.85242 0.0
C1814 C 0.02509 0.28783 0.86126 0.0
C1815 C 0.01066 0.28218 0.84741 0.0
C1816 C 0.99854 0.29344 0.83809 0.0
H1817 H -0.00087 0.17919 0.78445 0.0
H1818 H 0.99142 0.20707 0.80297 0.0
C1819 C 0.00121 0.31017 0.8403 0.0
C1820 C 0.0089 0.26453 0.84074 0.0
H1821 H 0.00674 0.23663 0.7699 0.0
C1822 C 0.01119 0.25366 0.87127 0.0
C1823 C 0.00681 0.25834 0.80382 0.0
C1824 C 0.00481 0.26943 0.76969 0.0
C1825 C 0.0122 0.23678 0.86559 0.0
C1826 C 0.01094 0.23071 0.82848 0.0
C1827 C 0.00766 0.24144 0.7983 0.0
C1828 C 0.01509 0.21362 0.81964 0.0
C1829 C 0.01519 0.22558 0.89902 0.0
C1830 C 0.03094 0.20831 0.82245 0.0
C1831 C 0.03536 0.19257 0.81165 0.0
C1832 C 0.02397 0.18184 0.79821 0.0
C1833 C 0.00807 0.18715 0.79544 0.0
C1834 C 0.00367 0.20302 0.80586 0.0
H1835 H 0.01181 0.23149 0.92619 0.0
H1836 H 0.00849 0.21412 0.89629 0.0
H1837 H 0.02802 0.22233 0.90008 0.0
H1838 H 0.03995 0.21646 0.83238 0.0
H1839 H 0.0477 0.18876 0.81403 0.0
H1840 H 0.67741 0.97441 0.6328 0.0
H1841 H 0.70529 0.98116 0.62294 0.0
H1842 H 0.71521 0.96787 0.73901 0.0
H1843 H 0.68724 0.96164 0.74946 0.0
H1844 H 0.73097 0.99682 0.71172 0.0
H1845 H 0.73841 0.94346 0.61604 0.0
H1846 H 0.72334 0.95839 0.60408 0.0
H1847 H 0.72116 0.94611 0.64613 0.0
C1848 C 0.68538 0.97347 0.65659 0.0
C1849 C 0.68009 0.96772 0.69211 0.0
C1850 C 0.70136 0.97712 0.65073 0.0
C1851 C 0.71227 0.97489 0.68019 0.0
C1852 C 0.70692 0.9697 0.71597 0.0
H1853 H 0.80672 0.96195 0.7432 0.0
H1854 H 0.77864 0.96929 0.73665 0.0
C1855 C 0.69099 0.96607 0.72183 0.0
C1856 C 0.72948 0.97663 0.67346 0.0
H1857 H 0.76137 0.95701 0.63338 0.0
C1858 C 0.73763 0.98831 0.6941 0.0
C1859 C 0.73807 0.96556 0.65023 0.0
C1860 C 0.72989 0.95258 0.62795 0.0
C1861 C 0.75426 0.98873 0.69347 0.0
C1862 C 0.76287 0.97698 0.67222 0.0
C1863 C 0.75469 0.96598 0.64971 0.0
C1864 C 0.78018 0.9745 0.67646 0.0
C1865 C 0.76247 0.00148 0.71629 0.0
C1866 C 0.7903 0.97472 0.64468 0.0
C1867 C 0.80634 0.97041 0.64835 0.0
C1868 C 0.81245 0.96574 0.68384 0.0
C1869 C 0.80232 0.96564 0.7156 0.0
C1870 C 0.78633 0.97001 0.71196 0.0
H1871 H 0.75478 0.01252 0.71995 0.0
H1872 H 0.76512 0.99644 0.7449 0.0
H1873 H 0.77382 0.00512 0.70266 0.0
H1874 H 0.78568 0.97782 0.61691 0.0
H1875 H 0.81372 0.97001 0.62315 0.0
H1876 H 0.49692 0.67444 0.19683 0.0
H1877 H 0.4866 0.70214 0.18389 0.0
H1878 H 0.53307 0.71634 0.14503 0.0
H1879 H 0.54332 0.68885 0.15745 0.0
H1880 H 0.49834 0.72941 0.21958 0.0
H1881 H 0.50412 0.73709 0.06487 0.0
H1882 H 0.50313 0.71726 0.08758 0.0
H1883 H 0.52172 0.7277 0.084 0.0
C1884 C 0.50478 0.68339 0.18455 0.0
C1885 C 0.52087 0.67953 0.17779 0.0
C1886 C 0.49888 0.69916 0.17725 0.0
C1887 C 0.50898 0.71114 0.16263 0.0
C1888 C 0.52496 0.70715 0.15524 0.0
H1889 H 0.54507 0.79904 0.16378 0.0
H1890 H 0.53422 0.77216 0.1529 0.0
C1891 C 0.53086 0.69151 0.16283 0.0
C1892 C 0.50381 0.72841 0.15995 0.0
H1893 H 0.50901 0.76157 0.10263 0.0
C1894 C 0.50002 0.73649 0.19377 0.0
C1895 C 0.50582 0.73752 0.12613 0.0
C1896 C 0.50875 0.72939 0.08853 0.0
C1897 C 0.50027 0.75355 0.19561 0.0
C1898 C 0.50424 0.76259 0.16264 0.0
C1899 C 0.50613 0.75457 0.12794 0.0
C1900 C 0.50992 0.77943 0.16534 0.0
C1901 C 0.49796 0.76167 0.2335 0.0
C1902 C 0.49978 0.79244 0.17555 0.0
C1903 C 0.50601 0.80786 0.18204 0.0
C1904 C 0.52241 0.8104 0.1782 0.0
C1905 C 0.5324 0.79741 0.16706 0.0
C1906 C 0.5262 0.7821 0.16053 0.0
H1907 H 0.49576 0.75273 0.25674 0.0
H1908 H 0.50862 0.76877 0.24056 0.0
H1909 H 0.48768 0.7703 0.23211 0.0
H1910 H 0.48718 0.79056 0.17941 0.0
H1911 H 0.49808 0.81756 0.19139 0.0
H1912 H 0.81456 0.49941 0.69806 0.0
H1913 H 0.78754 0.48975 0.68867 0.0
H1914 H 0.77288 0.53799 0.65186 0.0
H1915 H 0.79987 0.5476 0.66036 0.0
H1916 H 0.76071 0.50174 0.72563 0.0
H1917 H 0.75387 0.50888 0.57093 0.0
H1918 H 0.77306 0.50797 0.59346 0.0
H1919 H 0.76184 0.52687 0.59144 0.0
C1920 C 0.80566 0.50783 0.68706 0.0
C1921 C 0.80934 0.52418 0.67922 0.0
C1922 C 0.79024 0.50231 0.68189 0.0
C1923 C 0.77835 0.51305 0.66861 0.0
C1924 C 0.78201 0.52939 0.66104 0.0
H1925 H 0.68737 0.54348 0.6692 0.0
H1926 H 0.71501 0.53538 0.65891 0.0
C1927 C 0.79736 0.53492 0.66636 0.0
C1928 C 0.7617 0.50787 0.66621 0.0
H1929 H 0.72954 0.51136 0.60865 0.0
C1930 C 0.75391 0.5033 0.69985 0.0
C1931 C 0.75297 0.50971 0.6324 0.0
C1932 C 0.76092 0.51345 0.59494 0.0
C1933 C 0.73732 0.50231 0.70144 0.0
C1934 C 0.72847 0.50582 0.6684 0.0
C1935 C 0.7364 0.50879 0.63397 0.0
C1936 C 0.71134 0.50977 0.67074 0.0
C1937 C 0.72931 0.499 0.73909 0.0
C1938 C 0.7001 0.49797 0.68026 0.0
C1939 C 0.68421 0.50261 0.68637 0.0
C1940 C 0.67947 0.51908 0.68291 0.0
C1941 C 0.69072 0.53071 0.67228 0.0
C1942 C 0.70647 0.52609 0.6661 0.0
H1943 H 0.73796 0.49765 0.76257 0.0
H1944 H 0.72083 0.50908 0.74602 0.0
H1945 H 0.72249 0.4876 0.73742 0.0
H1946 H 0.70368 0.4853 0.68388 0.0
H1947 H 0.67584 0.49344 0.69517 0.0
H1948 H 0.99519 0.6659 0.18228 0.0
H1949 H 0.0047 0.6938 0.1735 0.0
H1950 H 0.95819 0.70926 0.13583 0.0
H1951 H 0.94876 0.68148 0.14354 0.0
H1952 H 0.98457 0.72244 0.09242 0.0
H1953 H 0.99016 0.72987 0.24879 0.0
H1954 H 0.00061 0.7132 0.22632 0.0
H1955 H 0.97934 0.71323 0.22907 0.0
C1956 C 0.98713 0.67516 0.17117 0.0
C1957 C 0.97125 0.6715 0.16331 0.0
C1958 C 0.99254 0.6911 0.16655 0.0
C1959 C 0.98211 0.70356 0.1542 0.0
C1960 C 0.96644 0.69979 0.14525 0.0
H1961 H 0.95071 0.79739 0.13821 0.0
H1962 H 0.95968 0.7693 0.12861 0.0
C1963 C 0.96104 0.68395 0.14993 0.0
C1964 C 0.98679 0.72083 0.15311 0.0
H1965 H 0.99001 0.75351 0.21132 0.0
C1966 C 0.98619 0.72922 0.1183 0.0
C1967 C 0.98908 0.72959 0.18687 0.0
C1968 C 0.9898 0.72112 0.22501 0.0
C1969 C 0.98656 0.7463 0.11669 0.0
C1970 C 0.98726 0.75512 0.15081 0.0
C1971 C 0.98938 0.74668 0.18523 0.0
C1972 C 0.983 0.77268 0.15229 0.0
C1973 C 0.98542 0.75476 0.07864 0.0
C1974 C 0.99305 0.78388 0.16931 0.0
C1975 C 0.98788 0.8 0.17504 0.0
C1976 C 0.97253 0.80503 0.16416 0.0
C1977 C 0.96262 0.79384 0.1467 0.0
C1978 C 0.96781 0.77784 0.14078 0.0
H1979 H 0.99084 0.74711 0.05597 0.0
H1980 H 0.97273 0.75683 0.07157 0.0
H1981 H 0.99136 0.76673 0.07877 0.0
H1982 H 0.0047 0.78004 0.17906 0.0
H1983 H 0.99562 0.80826 0.18942 0.0
loop_
_geom_bond_atom_site_label_1
_geom_bond_atom_site_label_2
_geom_bond_distance
_geom_bond_site_symmetry_2
_ccdc_geom_bond_type
Co0 O3 1.970 . S
Co0 N17 1.989 . S
Co0 O25 1.967 . S
Co0 O32 1.920 . S
Co1 O4 1.966 . S
Co1 N10 2.022 . S
Co1 N18 1.993 . S
Co1 O26 1.941 . S
C2 O3 1.258 1_565 S
C2 O4 1.263 1_565 S
O3 Co0 1.970 . S
O3 C2 1.258 1_545 S
O4 Co1 1.966 . S
O4 C2 1.263 1_545 S
C5 O6 1.235 . S
C5 O32 1.289 . S
O6 C5 1.235 . S
C7 C9 1.400 . S
C7 N10 1.351 . S
C7 C12 1.460 1_545 S
C8 C9 1.387 . S
C8 N11 1.341 . S
C9 C7 1.400 . S
C9 C8 1.387 . S
N10 Co1 2.022 . S
N10 C7 1.351 . S
N10 N11 1.365 . S
N11 C8 1.341 . S
N11 N10 1.365 . S
N11 H31 0.862 . S
C12 C7 1.460 1_565 S
C12 H13 0.965 . S
C12 H14 0.983 . S
C12 H15 0.977 . S
H13 C12 0.965 . S
H14 C12 0.983 . S
H15 C12 0.977 . S
C16 N17 1.342 . S
C16 C20 1.401 . S
C16 C21 1.499 . S
N17 Co0 1.989 . S
N17 C16 1.342 . S
N17 N18 1.388 . S
N18 Co1 1.993 . S
N18 N17 1.388 . S
N18 C19 1.346 . S
C19 N18 1.346 . S
C19 C20 1.396 . S
C19 C29 1.510 . S
C20 C16 1.401 . S
C20 C19 1.396 . S
C21 C16 1.499 . S
C21 H22 0.959 . S
C21 H23 0.960 . S
C21 H24 0.961 . S
H22 C21 0.959 . S
H23 C21 0.960 . S
H24 C21 0.961 . S
O25 Co0 1.967 . S
O25 C33 1.258 . S
O26 Co1 1.941 . S
O26 C33 1.266 . S
H27 C29 0.959 . S
H28 C29 0.961 . S
C29 C19 1.510 . S
C29 H27 0.959 . S
C29 H28 0.961 . S
C29 H30 0.960 . S
H30 C29 0.960 . S
H31 N11 0.862 . S
O32 Co0 1.920 . S
O32 C5 1.289 . S
C33 O25 1.258 . S
C33 O26 1.266 . S
Co34 O37 1.970 . S
Co34 N51 1.989 . S
Co34 O59 1.967 . S
Co34 O66 1.920 . S
Co35 O38 1.966 . S
Co35 N44 2.022 . S
Co35 N52 1.993 . S
Co35 O60 1.941 . S
C36 O37 1.258 . S
C36 O38 1.263 . S
O37 Co34 1.970 . S
O37 C36 1.258 . S
O38 Co35 1.966 . S
O38 C36 1.263 . S
C39 O40 1.235 . S
C39 O66 1.289 . S
O40 C39 1.235 . S
C41 C43 1.400 . S
C41 N44 1.351 . S
C41 C46 1.501 . S
C42 C43 1.387 . S
C42 N45 1.341 . S
C43 C41 1.400 . S
C43 C42 1.387 . S
N44 Co35 2.022 . S
N44 C41 1.351 . S
N44 N45 1.365 . S
N45 C42 1.341 . S
N45 N44 1.365 . S
N45 H65 0.862 . S
C46 C41 1.501 . S
C46 H47 0.961 . S
C46 H48 0.961 . S
C46 H49 0.960 . S
H47 C46 0.961 . S
H48 C46 0.961 . S
H49 C46 0.960 . S
C50 N51 1.342 . S
C50 C54 1.401 . S
C50 C55 1.499 . S
N51 Co34 1.989 . S
N51 C50 1.342 . S
N51 N52 1.388 . S
N52 Co35 1.993 . S
N52 N51 1.388 . S
N52 C53 1.346 . S
C53 N52 1.346 . S
C53 C54 1.396 . S
C53 C63 1.510 . S
C54 C50 1.401 . S
C54 C53 1.396 . S
C55 C50 1.499 . S
C55 H56 0.959 . S
C55 H57 0.960 1_556 S
C55 H58 0.961 1_556 S
H56 C55 0.959 . S
H57 C55 0.960 1_554 S
H58 C55 0.961 1_554 S
O59 Co34 1.967 . S
O59 C67 1.258 . S
O60 Co35 1.941 . S
O60 C67 1.266 . S
H61 C63 0.959 . S
H62 C63 0.961 . S
C63 C53 1.510 . S
C63 H61 0.959 . S
C63 H62 0.961 . S
C63 H64 0.960 . S
H64 C63 0.960 . S
H65 N45 0.862 . S
O66 Co34 1.920 . S
O66 C39 1.289 . S
C67 O59 1.258 . S
C67 O60 1.266 . S
Co68 O71 1.970 . S
Co68 N85 1.989 . S
Co68 O93 1.967 . S
Co68 O100 1.920 . S
Co69 O72 1.966 . S
Co69 N78 2.022 . S
Co69 N86 1.993 . S
Co69 O94 1.941 . S
C70 O71 1.258 . S
C70 O72 1.263 . S
O71 Co68 1.970 . S
O71 C70 1.258 . S
O72 Co69 1.966 . S
O72 C70 1.263 . S
C73 O74 1.235 . S
C73 O100 1.289 . S
O74 C73 1.235 . S
C75 C77 1.400 . S
C75 N78 1.351 . S
C75 C80 1.501 . S
C76 C77 1.387 . S
C76 N79 1.341 . S
C77 C75 1.400 . S
C77 C76 1.387 . S
N78 Co69 2.022 . S
N78 C75 1.351 . S
N78 N79 1.365 . S
N79 C76 1.341 . S
N79 N78 1.365 . S
N79 H99 0.862 . S
C80 C75 1.501 . S
C80 H81 0.961 . S
C80 H82 0.961 . S
C80 H83 0.960 . S
H81 C80 0.961 . S
H82 C80 0.961 . S
H83 C80 0.960 . S
C84 N85 1.342 . S
C84 C88 1.401 . S
C84 C89 1.499 . S
N85 Co68 1.989 . S
N85 C84 1.342 . S
N85 N86 1.388 . S
N86 Co69 1.993 . S
N86 N85 1.388 . S
N86 C87 1.346 . S
C87 N86 1.346 . S
C87 C88 1.396 . S
C87 C97 1.510 . S
C88 C84 1.401 . S
C88 C87 1.396 . S
C89 C84 1.499 . S
C89 H90 0.959 . S
C89 H91 0.960 . S
C89 H92 0.961 . S
H90 C89 0.959 . S
H91 C89 0.960 . S
H92 C89 0.961 . S
O93 Co68 1.967 . S
O93 C101 1.258 . S
O94 Co69 1.941 . S
O94 C101 1.266 . S
H95 C97 0.959 . S
H96 C97 0.961 . S
C97 C87 1.510 . S
C97 H95 0.959 . S
C97 H96 0.961 . S
C97 H98 0.960 . S
H98 C97 0.960 . S
H99 N79 0.862 . S
O100 Co68 1.920 . S
O100 C73 1.289 . S
C101 O93 1.258 . S
C101 O94 1.266 . S
Co102 O105 1.970 . S
Co102 N119 1.989 . S
Co102 O127 1.967 . S
Co102 O134 1.920 1_455 S
Co103 O106 1.966 . S
Co103 N112 2.022 . S
Co103 N120 1.993 . S
Co103 O128 1.941 . S
C104 O105 1.258 . S
C104 O106 1.263 . S
O105 Co102 1.970 . S
O105 C104 1.258 . S
O106 Co103 1.966 . S
O106 C104 1.263 . S
C107 O108 1.235 . S
C107 O134 1.289 . S
O108 C107 1.235 . S
C109 C111 1.400 . S
C109 N112 1.351 1_554 S
C109 C114 1.501 . S
C110 C111 1.387 . S
C110 N113 1.341 1_554 S
C111 C109 1.400 . S
C111 C110 1.387 . S
N112 Co103 2.022 . S
N112 C109 1.351 1_556 S
N112 N113 1.365 . S
N113 C110 1.341 1_556 S
N113 N112 1.365 . S
N113 H133 0.862 . S
C114 C109 1.501 . S
C114 H115 0.961 1_554 S
C114 H116 0.961 . S
C114 H117 0.960 . S
H115 C114 0.961 1_556 S
H116 C114 0.961 . S
H117 C114 0.960 . S
C118 N119 1.352 . S
C118 C122 1.409 . S
C118 C123 1.484 1_455 S
N119 Co102 1.989 . S
N119 C118 1.352 . S
N119 N120 1.388 . S
N120 Co103 1.993 . S
N120 N119 1.388 . S
N120 C121 1.346 . S
C121 N120 1.346 . S
C121 C122 1.396 . S
C121 C131 1.510 1_556 S
C122 C118 1.409 . S
C122 C121 1.396 . S
C123 C118 1.484 1_655 S
C123 H124 0.959 . S
C123 H125 0.960 . S
C123 H126 0.961 . S
H124 C123 0.959 . S
H125 C123 0.960 . S
H126 C123 0.961 . S
O127 Co102 1.967 . S
O127 C135 1.258 . S
O128 Co103 1.941 . S
O128 C135 1.266 . S
H129 C131 0.959 . S
H130 C131 0.961 . S
C131 C121 1.510 1_554 S
C131 H129 0.959 . S
C131 H130 0.961 . S
C131 H132 0.960 . S
H132 C131 0.960 . S
H133 N113 0.862 . S
O134 Co102 1.920 1_655 S
O134 C107 1.289 . S
C135 O127 1.258 . S
C135 O128 1.266 . S
Co136 O139 1.970 . S
Co136 N153 1.989 . S
Co136 O161 1.967 . S
Co136 O168 1.920 . S
Co137 O140 1.966 . S
Co137 N146 2.022 . S
Co137 N154 1.993 . S
Co137 O162 1.941 . S
C138 O139 1.258 . S
C138 O140 1.263 . S
O139 Co136 1.970 . S
O139 C138 1.258 . S
O140 Co137 1.966 . S
O140 C138 1.263 . S
C141 O142 1.235 . S
C141 O168 1.289 . S
O142 C141 1.235 . S
C143 C145 1.400 . S
C143 N146 1.351 . S
C143 C148 1.501 . S
C144 C145 1.387 . S
C144 N147 1.341 . S
C145 C143 1.400 . S
C145 C144 1.387 . S
N146 Co137 2.022 . S
N146 C143 1.351 . S
N146 N147 1.365 . S
N147 C144 1.341 . S
N147 N146 1.365 . S
N147 H167 0.862 . S
C148 C143 1.501 . S
C148 H149 0.961 . S
C148 H150 0.961 1_565 S
C148 H151 0.960 1_565 S
H149 C148 0.961 . S
H150 C148 0.961 1_545 S
H151 C148 0.960 1_545 S
C152 N153 1.342 . S
C152 C156 1.401 . S
C152 C157 1.499 . S
N153 Co136 1.989 . S
N153 C152 1.342 . S
N153 N154 1.388 . S
N154 Co137 1.993 . S
N154 N153 1.388 . S
N154 C155 1.346 . S
C155 N154 1.346 . S
C155 C156 1.396 . S
C155 C165 1.510 . S
C156 C152 1.401 . S
C156 C155 1.396 . S
C157 C152 1.499 . S
C157 H158 0.959 . S
C157 H159 0.960 . S
C157 H160 0.961 . S
H158 C157 0.959 . S
H159 C157 0.960 . S
H160 C157 0.961 . S
O161 Co136 1.967 . S
O161 C169 1.258 . S
O162 Co137 1.941 . S
O162 C169 1.266 . S
H163 C165 0.959 . S
H164 C165 0.961 . S
C165 C155 1.510 . S
C165 H163 0.959 . S
C165 H164 0.961 . S
C165 H166 0.960 . S
H166 C165 0.960 . S
H167 N147 0.862 . S
O168 Co136 1.920 . S
O168 C141 1.289 . S
C169 O161 1.258 . S
C169 O162 1.266 . S
Co170 O173 1.970 . S
Co170 N187 1.989 . S
Co170 O195 1.967 . S
Co170 O202 1.920 . S
Co171 O174 1.966 . S
Co171 N180 2.022 . S
Co171 N188 1.993 . S
Co171 O196 1.941 . S
C172 O173 1.258 . S
C172 O174 1.263 . S
O173 Co170 1.970 . S
O173 C172 1.258 . S
O174 Co171 1.966 . S
O174 C172 1.263 . S
C175 O176 1.235 . S
C175 O202 1.289 . S
O176 C175 1.235 . S
C177 C179 1.400 . S
C177 N180 1.351 . S
C177 C182 1.501 . S
C178 C179 1.387 . S
C178 N181 1.341 . S
C179 C177 1.400 . S
C179 C178 1.387 . S
N180 Co171 2.022 . S
N180 C177 1.351 . S
N180 N181 1.365 . S
N181 C178 1.341 . S
N181 N180 1.365 . S
N181 H201 0.862 . S
C182 C177 1.501 . S
C182 H183 0.961 . S
C182 H184 0.961 . S
C182 H185 0.960 . S
H183 C182 0.961 . S
H184 C182 0.961 . S
H185 C182 0.960 . S
C186 N187 1.342 . S
C186 C190 1.409 . S
C186 C191 1.499 . S
N187 Co170 1.989 . S
N187 C186 1.342 . S
N187 N188 1.388 . S
N188 Co171 1.993 . S
N188 N187 1.388 . S
N188 C189 1.346 . S
C189 N188 1.346 . S
C189 C190 1.408 . S
C189 C199 1.510 . S
C190 C186 1.409 . S
C190 C189 1.408 . S
C191 C186 1.499 . S
C191 H192 0.959 . S
C191 H193 0.960 1_554 S
C191 H194 0.961 1_554 S
H192 C191 0.959 . S
H193 C191 0.960 1_556 S
H194 C191 0.961 1_556 S
O195 Co170 1.967 . S
O195 C203 1.258 . S
O196 Co171 1.941 . S
O196 C203 1.266 . S
H197 C199 0.959 . S
H198 C199 0.961 . S
C199 C189 1.510 . S
C199 H197 0.959 . S
C199 H198 0.961 . S
C199 H200 0.960 . S
H200 C199 0.960 . S
H201 N181 0.862 . S
O202 Co170 1.920 . S
O202 C175 1.289 . S
C203 O195 1.258 . S
C203 O196 1.266 . S
Co204 O207 1.970 . S
Co204 N221 1.989 . S
Co204 O229 1.967 . S
Co204 O236 1.920 . S
Co205 O208 1.966 . S
Co205 N214 2.022 . S
Co205 N222 1.993 . S
Co205 O230 1.941 . S
C206 O207 1.258 . S
C206 O208 1.263 . S
O207 Co204 1.970 . S
O207 C206 1.258 . S
O208 Co205 1.966 . S
O208 C206 1.263 . S
C209 O210 1.235 . S
C209 O236 1.289 . S
O210 C209 1.235 . S
C211 C213 1.400 . S
C211 N214 1.351 . S
C211 C216 1.501 . S
C212 C213 1.387 . S
C212 N215 1.341 . S
C213 C211 1.400 . S
C213 C212 1.387 . S
N214 Co205 2.022 . S
N214 C211 1.351 . S
N214 N215 1.365 . S
N215 C212 1.341 . S
N215 N214 1.365 . S
N215 H235 0.862 . S
C216 C211 1.501 . S
C216 H217 0.961 . S
C216 H218 0.961 . S
C216 H219 0.960 . S
H217 C216 0.961 . S
H218 C216 0.961 . S
H219 C216 0.960 . S
C220 N221 1.342 . S
C220 C224 1.401 . S
C220 C225 1.499 . S
N221 Co204 1.989 . S
N221 C220 1.342 . S
N221 N222 1.388 . S
N222 Co205 1.993 . S
N222 N221 1.388 . S
N222 C223 1.346 . S
C223 N222 1.346 . S
C223 C224 1.396 . S
C223 C233 1.510 . S
C224 C220 1.401 . S
C224 C223 1.396 . S
C225 C220 1.499 . S
C225 H226 0.959 . S
C225 H227 0.960 . S
C225 H228 0.961 . S
H226 C225 0.959 . S
H227 C225 0.960 . S
H228 C225 0.961 . S
O229 Co204 1.967 . S
O229 C237 1.258 . S
O230 Co205 1.941 . S
O230 C237 1.266 . S
H231 C233 0.959 . S
H232 C233 0.961 . S
C233 C223 1.510 . S
C233 H231 0.959 . S
C233 H232 0.961 . S
C233 H234 0.960 . S
H234 C233 0.960 . S
H235 N215 0.862 . S
O236 Co204 1.920 . S
O236 C209 1.289 . S
C237 O229 1.258 . S
C237 O230 1.266 . S
Co238 O241 1.970 . S
Co238 N255 1.989 . S
Co238 O263 1.967 . S
Co238 O270 1.920 . S
Co239 O242 1.966 . S
Co239 N248 2.022 . S
Co239 N256 1.993 . S
Co239 O264 1.941 . S
C240 O241 1.258 1_455 S
C240 O242 1.263 1_455 S
O241 Co238 1.970 . S
O241 C240 1.258 1_655 S
O242 Co239 1.966 . S
O242 C240 1.263 1_655 S
C243 O244 1.235 . S
C243 O270 1.289 . S
O244 C243 1.235 . S
C245 C247 1.400 . S
C245 N248 1.351 . S
C245 C250 1.501 1_655 S
C246 C247 1.387 . S
C246 N249 1.341 . S
C247 C245 1.400 . S
C247 C246 1.387 . S
N248 Co239 2.022 . S
N248 C245 1.351 . S
N248 N249 1.365 . S
N249 C246 1.341 . S
N249 N248 1.365 . S
N249 H269 0.862 . S
C250 C245 1.501 1_455 S
C250 H251 0.961 . S
C250 H252 0.961 . S
C250 H253 0.960 . S
H251 C250 0.961 . S
H252 C250 0.961 . S
H253 C250 0.960 . S
C254 N255 1.342 . S
C254 C258 1.401 1_554 S
C254 C259 1.499 1_554 S
N255 Co238 1.989 . S
N255 C254 1.342 . S
N255 N256 1.388 . S
N256 Co239 1.993 . S
N256 N255 1.388 . S
N256 C257 1.346 . S
C257 N256 1.346 . S
C257 C258 1.396 1_554 S
C257 C267 1.510 . S
C258 C254 1.401 1_556 S
C258 C257 1.396 1_556 S
C259 C254 1.499 1_556 S
C259 H260 0.959 1_556 S
C259 H261 0.960 . S
C259 H262 0.961 . S
H260 C259 0.959 1_554 S
H261 C259 0.960 . S
H262 C259 0.961 . S
O263 Co238 1.967 . S
O263 C271 1.258 . S
O264 Co239 1.941 . S
O264 C271 1.266 . S
H265 C267 0.959 . S
H266 C267 0.961 1_556 S
C267 C257 1.510 . S
C267 H265 0.959 . S
C267 H266 0.961 1_554 S
C267 H268 0.960 . S
H268 C267 0.960 . S
H269 N249 0.862 . S
O270 Co238 1.920 . S
O270 C243 1.289 . S
C271 O263 1.258 . S
C271 O264 1.266 . S
Co272 O275 1.970 . S
Co272 N289 1.989 . S
Co272 O297 1.967 . S
Co272 O304 1.920 . S
Co273 O276 1.966 . S
Co273 N282 2.022 . S
Co273 N290 1.993 . S
Co273 O298 1.941 . S
C274 O275 1.256 1_545 S
C274 O276 1.258 1_545 S
O275 Co272 1.970 . S
O275 C274 1.256 1_565 S
O276 Co273 1.966 . S
O276 C274 1.258 1_565 S
C277 O278 1.235 . S
C277 O304 1.289 . S
O278 C277 1.235 . S
C279 C281 1.400 . S
C279 N282 1.351 . S
C279 C284 1.501 . S
C280 C281 1.387 . S
C280 N283 1.341 . S
C281 C279 1.400 . S
C281 C280 1.387 . S
N282 Co273 2.022 . S
N282 C279 1.351 . S
N282 N283 1.365 . S
N283 C280 1.341 . S
N283 N282 1.365 . S
N283 H303 0.862 . S
C284 C279 1.501 . S
C284 H285 0.970 . S
C284 H286 0.961 1_565 S
C284 H287 0.960 1_565 S
H285 C284 0.970 . S
H286 C284 0.961 1_545 S
H287 C284 0.960 1_545 S
C288 N289 1.342 . S
C288 C292 1.401 . S
C288 C293 1.499 . S
N289 Co272 1.989 . S
N289 C288 1.342 . S
N289 N290 1.388 . S
N290 Co273 1.993 . S
N290 N289 1.388 . S
N290 C291 1.346 . S
C291 N290 1.346 . S
C291 C292 1.396 . S
C291 C301 1.510 . S
C292 C288 1.401 . S
C292 C291 1.396 . S
C293 C288 1.499 . S
C293 H294 0.959 . S
C293 H295 0.960 . S
C293 H296 0.961 . S
H294 C293 0.959 . S
H295 C293 0.960 . S
H296 C293 0.961 . S
O297 Co272 1.967 . S
O297 C305 1.258 . S
O298 Co273 1.941 . S
O298 C305 1.266 . S
H299 C301 0.959 . S
H300 C301 0.961 . S
C301 C291 1.510 . S
C301 H299 0.959 . S
C301 H300 0.961 . S
C301 H302 0.960 . S
H302 C301 0.960 . S
H303 N283 0.862 . S
O304 Co272 1.920 . S
O304 C277 1.289 . S
C305 O297 1.258 . S
C305 O298 1.266 . S
Co306 O309 1.970 . S
Co306 N323 1.989 . S
Co306 O331 1.967 . S
Co306 O338 1.920 . S
Co307 O310 1.966 . S
Co307 N316 2.022 . S
Co307 N324 1.993 . S
Co307 O332 1.941 . S
C308 O309 1.258 . S
C308 O310 1.263 . S
O309 Co306 1.970 . S
O309 C308 1.258 . S
O310 Co307 1.966 . S
O310 C308 1.263 . S
C311 O312 1.235 . S
C311 O338 1.289 . S
O312 C311 1.235 . S
C313 C315 1.400 . S
C313 N316 1.351 . S
C313 C318 1.501 . S
C314 C315 1.387 . S
C314 N317 1.341 . S
C315 C313 1.400 . S
C315 C314 1.387 . S
N316 Co307 2.022 . S
N316 C313 1.351 . S
N316 N317 1.365 . S
N317 C314 1.341 . S
N317 N316 1.365 . S
N317 H337 0.862 . S
C318 C313 1.501 . S
C318 H319 0.961 . S
C318 H320 0.961 . S
C318 H321 0.960 . S
H319 C318 0.961 . S
H320 C318 0.961 . S
H321 C318 0.960 . S
C322 N323 1.342 . S
C322 C326 1.401 1_554 S
C322 C327 1.490 1_554 S
N323 Co306 1.989 . S
N323 C322 1.342 . S
N323 N324 1.388 . S
N324 Co307 1.993 . S
N324 N323 1.388 . S
N324 C325 1.346 . S
C325 N324 1.346 . S
C325 C326 1.396 1_554 S
C325 C335 1.510 . S
C326 C322 1.401 1_556 S
C326 C325 1.396 1_556 S
C327 C322 1.490 1_556 S
C327 H328 0.941 1_556 S
C327 H329 0.982 . S
C327 H330 0.967 . S
H328 C327 0.941 1_554 S
H329 C327 0.982 . S
H330 C327 0.967 . S
O331 Co306 1.967 . S
O331 C339 1.258 . S
O332 Co307 1.941 . S
O332 C339 1.266 . S
H333 C335 0.959 . S
H334 C335 0.961 . S
C335 C325 1.510 . S
C335 H333 0.959 . S
C335 H334 0.961 . S
C335 H336 0.960 . S
H336 C335 0.960 . S
H337 N317 0.862 . S
O338 Co306 1.920 . S
O338 C311 1.289 . S
C339 O331 1.258 . S
C339 O332 1.266 . S
Co340 O343 1.970 . S
Co340 N357 1.989 . S
Co340 O365 1.967 . S
Co340 O372 1.920 . S
Co341 O344 1.966 . S
Co341 N350 2.022 . S
Co341 N358 1.993 . S
Co341 O366 1.941 . S
C342 O343 1.258 . S
C342 O344 1.263 . S
O343 Co340 1.970 . S
O343 C342 1.258 . S
O344 Co341 1.966 . S
O344 C342 1.263 . S
C345 O346 1.235 . S
C345 O372 1.289 . S
O346 C345 1.235 . S
C347 C349 1.400 . S
C347 N350 1.351 . S
C347 C352 1.501 . S
C348 C349 1.387 . S
C348 N351 1.341 . S
C349 C347 1.400 . S
C349 C348 1.387 . S
N350 Co341 2.022 . S
N350 C347 1.351 . S
N350 N351 1.365 . S
N351 C348 1.341 . S
N351 N350 1.365 . S
N351 H371 0.862 . S
C352 C347 1.501 . S
C352 H353 0.961 . S
C352 H354 0.961 . S
C352 H355 0.960 . S
H353 C352 0.961 . S
H354 C352 0.961 . S
H355 C352 0.960 . S
C356 N357 1.342 . S
C356 C360 1.401 . S
C356 C361 1.499 . S
N357 Co340 1.989 . S
N357 C356 1.342 . S
N357 N358 1.388 . S
N358 Co341 1.993 . S
N358 N357 1.388 . S
N358 C359 1.346 . S
C359 N358 1.346 . S
C359 C360 1.396 . S
C359 C369 1.510 . S
C360 C356 1.401 . S
C360 C359 1.396 . S
C361 C356 1.499 . S
C361 H362 0.959 . S
C361 H363 0.960 . S
C361 H364 0.961 . S
H362 C361 0.959 . S
H363 C361 0.960 . S
H364 C361 0.961 . S
O365 Co340 1.967 . S
O365 C373 1.258 . S
O366 Co341 1.941 . S
O366 C373 1.266 . S
H367 C369 0.959 . S
H368 C369 0.961 . S
C369 C359 1.510 . S
C369 H367 0.959 . S
C369 H368 0.961 . S
C369 H370 0.960 . S
H370 C369 0.960 . S
H371 N351 0.862 . S
O372 Co340 1.920 . S
O372 C345 1.289 . S
C373 O365 1.258 . S
C373 O366 1.266 . S
Co374 O377 1.970 . S
Co374 N391 1.989 . S
Co374 O399 1.967 . S
Co374 O406 1.920 . S
Co375 O378 1.966 . S
Co375 N384 2.022 . S
Co375 N392 1.993 . S
Co375 O400 1.941 . S
C376 O377 1.258 . S
C376 O378 1.263 . S
O377 Co374 1.970 . S
O377 C376 1.258 . S
O378 Co375 1.966 . S
O378 C376 1.263 . S
C379 O380 1.235 . S
C379 O406 1.289 . S
O380 C379 1.235 . S
C381 C383 1.400 . S
C381 N384 1.351 . S
C381 C386 1.501 . S
C382 C383 1.387 . S
C382 N385 1.341 . S
C383 C381 1.400 . S
C383 C382 1.387 . S
N384 Co375 2.022 . S
N384 C381 1.351 . S
N384 N385 1.365 . S
N385 C382 1.341 . S
N385 N384 1.365 . S
N385 H405 0.862 . S
C386 C381 1.501 . S
C386 H387 0.961 . S
C386 H388 0.961 1_655 S
C386 H389 0.963 1_655 S
H387 C386 0.961 . S
H388 C386 0.961 1_455 S
H389 C386 0.963 1_455 S
C390 N391 1.342 . S
C390 C394 1.401 . S
C390 C395 1.499 . S
N391 Co374 1.989 . S
N391 C390 1.342 . S
N391 N392 1.388 . S
N392 Co375 1.993 . S
N392 N391 1.388 . S
N392 C393 1.346 . S
C393 N392 1.346 . S
C393 C394 1.396 . S
C393 C403 1.510 . S
C394 C390 1.401 . S
C394 C393 1.396 . S
C395 C390 1.499 . S
C395 H396 0.959 . S
C395 H397 0.960 1_554 S
C395 H398 0.961 . S
H396 C395 0.959 . S
H397 C395 0.960 1_556 S
H398 C395 0.961 . S
O399 Co374 1.967 . S
O399 C407 1.258 . S
O400 Co375 1.941 . S
O400 C407 1.266 . S
H401 C403 0.959 . S
H402 C403 0.961 . S
C403 C393 1.510 . S
C403 H401 0.959 . S
C403 H402 0.961 . S
C403 H404 0.960 . S
H404 C403 0.960 . S
H405 N385 0.862 . S
O406 Co374 1.920 . S
O406 C379 1.289 . S
C407 O399 1.258 . S
C407 O400 1.266 . S
Co408 O411 1.970 1_545 S
Co408 N425 1.989 . S
Co408 O433 1.967 . S
Co408 O440 1.920 . S
Co409 O412 1.972 . S
Co409 N418 2.022 . S
Co409 N426 1.993 . S
Co409 O434 1.941 . S
C410 O411 1.258 . S
C410 O412 1.260 1_565 S
O411 Co408 1.970 1_565 S
O411 C410 1.258 . S
O412 Co409 1.972 . S
O412 C410 1.260 1_545 S
C413 O414 1.235 1_545 S
C413 O440 1.289 . S
O414 C413 1.235 1_565 S
C415 C417 1.400 . S
C415 N418 1.351 . S
C415 C420 1.501 1_545 S
C416 C417 1.387 . S
C416 N419 1.341 . S
C417 C415 1.400 . S
C417 C416 1.387 . S
N418 Co409 2.022 . S
N418 C415 1.351 . S
N418 N419 1.365 . S
N419 C416 1.341 . S
N419 N418 1.365 . S
N419 H439 0.862 . S
C420 C415 1.501 1_565 S
C420 H421 0.961 . S
C420 H422 0.961 . S
C420 H423 0.960 . S
H421 C420 0.961 . S
H422 C420 0.961 . S
H423 C420 0.960 . S
C424 N425 1.342 . S
C424 C428 1.401 . S
C424 C429 1.499 . S
N425 Co408 1.989 . S
N425 C424 1.342 . S
N425 N426 1.388 . S
N426 Co409 1.993 . S
N426 N425 1.388 . S
N426 C427 1.346 . S
C427 N426 1.346 . S
C427 C428 1.396 . S
C427 C437 1.510 . S
C428 C424 1.401 . S
C428 C427 1.396 . S
C429 C424 1.499 . S
C429 H430 0.959 . S
C429 H431 0.960 . S
C429 H432 0.961 . S
H430 C429 0.959 . S
H431 C429 0.960 . S
H432 C429 0.961 . S
O433 Co408 1.967 . S
O433 C441 1.258 . S
O434 Co409 1.941 . S
O434 C441 1.266 . S
H435 C437 0.959 . S
H436 C437 0.961 . S
C437 C427 1.510 . S
C437 H435 0.959 . S
C437 H436 0.961 . S
C437 H438 0.960 . S
H438 C437 0.960 . S
H439 N419 0.862 . S
O440 Co408 1.920 . S
O440 C413 1.289 . S
C441 O433 1.258 . S
C441 O434 1.266 . S
Co442 O445 1.970 . S
Co442 N459 1.989 . S
Co442 O467 1.967 . S
Co442 O474 1.920 . S
Co443 O446 1.966 . S
Co443 N452 2.022 . S
Co443 N460 1.993 . S
Co443 O468 1.941 . S
C444 O445 1.258 . S
C444 O446 1.263 . S
O445 Co442 1.970 . S
O445 C444 1.258 . S
O446 Co443 1.966 . S
O446 C444 1.263 . S
C447 O448 1.235 . S
C447 O474 1.289 . S
O448 C447 1.235 . S
C449 C451 1.400 . S
C449 N452 1.351 . S
C449 C454 1.501 . S
C450 C451 1.387 . S
C450 N453 1.341 . S
C451 C449 1.400 . S
C451 C450 1.387 . S
N452 Co443 2.022 . S
N452 C449 1.351 . S
N452 N453 1.365 . S
N453 C450 1.341 . S
N453 N452 1.365 . S
N453 H473 0.862 . S
C454 C449 1.501 . S
C454 H455 0.961 . S
C454 H456 0.961 . S
C454 H457 0.960 . S
H455 C454 0.961 . S
H456 C454 0.961 . S
H457 C454 0.960 . S
C458 N459 1.342 . S
C458 C462 1.401 1_556 S
C458 C463 1.499 1_556 S
N459 Co442 1.989 . S
N459 C458 1.342 . S
N459 N460 1.388 . S
N460 Co443 1.993 . S
N460 N459 1.388 . S
N460 C461 1.346 . S
C461 N460 1.346 . S
C461 C462 1.396 1_556 S
C461 C471 1.510 . S
C462 C458 1.401 1_554 S
C462 C461 1.396 1_554 S
C463 C458 1.499 1_554 S
C463 H464 0.959 1_554 S
C463 H465 0.960 . S
C463 H466 0.961 . S
H464 C463 0.959 1_556 S
H465 C463 0.960 . S
H466 C463 0.961 . S
O467 Co442 1.967 . S
O467 C475 1.258 . S
O468 Co443 1.941 . S
O468 C475 1.266 . S
H469 C471 0.959 . S
H470 C471 0.961 1_554 S
C471 C461 1.510 . S
C471 H469 0.959 . S
C471 H470 0.961 1_556 S
C471 H472 0.960 . S
H472 C471 0.960 . S
H473 N453 0.862 . S
O474 Co442 1.920 . S
O474 C447 1.289 . S
C475 O467 1.258 . S
C475 O468 1.266 . S
Co476 O479 1.970 . S
Co476 N493 1.989 . S
Co476 O501 1.967 . S
Co476 O508 1.920 . S
Co477 O480 1.966 . S
Co477 N486 2.022 . S
Co477 N494 1.993 . S
Co477 O502 1.941 . S
C478 O479 1.258 . S
C478 O480 1.263 . S
O479 Co476 1.970 . S
O479 C478 1.258 . S
O480 Co477 1.966 . S
O480 C478 1.263 . S
C481 O482 1.235 . S
C481 O508 1.289 . S
O482 C481 1.235 . S
C483 C485 1.400 . S
C483 N486 1.351 . S
C483 C488 1.501 . S
C484 C485 1.387 . S
C484 N487 1.341 . S
C485 C483 1.400 . S
C485 C484 1.387 . S
N486 Co477 2.022 . S
N486 C483 1.351 . S
N486 N487 1.365 . S
N487 C484 1.341 . S
N487 N486 1.365 . S
N487 H507 0.862 . S
C488 C483 1.501 . S
C488 H489 0.961 . S
C488 H490 0.961 . S
C488 H491 0.960 . S
H489 C488 0.961 . S
H490 C488 0.961 . S
H491 C488 0.960 . S
C492 N493 1.342 . S
C492 C496 1.401 . S
C492 C497 1.499 . S
N493 Co476 1.989 . S
N493 C492 1.342 . S
N493 N494 1.388 . S
N494 Co477 1.993 . S
N494 N493 1.388 . S
N494 C495 1.346 . S
C495 N494 1.346 . S
C495 C496 1.396 . S
C495 C505 1.510 . S
C496 C492 1.401 . S
C496 C495 1.396 . S
C497 C492 1.499 . S
C497 H498 0.959 . S
C497 H499 0.960 . S
C497 H500 0.961 . S
H498 C497 0.959 . S
H499 C497 0.960 . S
H500 C497 0.961 . S
O501 Co476 1.967 . S
O501 C509 1.258 . S
O502 Co477 1.941 . S
O502 C509 1.266 . S
H503 C505 0.959 . S
H504 C505 0.961 . S
C505 C495 1.510 . S
C505 H503 0.959 . S
C505 H504 0.961 . S
C505 H506 0.960 . S
H506 C505 0.960 . S
H507 N487 0.862 . S
O508 Co476 1.920 . S
O508 C481 1.289 . S
C509 O501 1.258 . S
C509 O502 1.266 . S
Co510 O513 1.970 1_455 S
Co510 N527 1.989 . S
Co510 O535 1.967 . S
Co510 O542 1.920 . S
Co511 O514 1.902 1_455 S
Co511 N520 2.022 . S
Co511 N528 1.993 . S
Co511 O536 1.941 . S
C512 O513 1.258 . S
C512 O514 1.305 . S
O513 Co510 1.970 1_655 S
O513 C512 1.258 . S
O514 Co511 1.902 1_655 S
O514 C512 1.305 . S
C515 O516 1.235 1_455 S
C515 O542 1.289 . S
O516 C515 1.235 1_655 S
C517 C519 1.400 . S
C517 N520 1.351 . S
C517 C522 1.501 1_455 S
C518 C519 1.387 . S
C518 N521 1.341 . S
C519 C517 1.400 . S
C519 C518 1.387 . S
N520 Co511 2.022 . S
N520 C517 1.351 . S
N520 N521 1.365 . S
N521 C518 1.341 . S
N521 N520 1.365 . S
N521 H541 0.862 . S
C522 C517 1.501 1_655 S
C522 H523 0.961 . S
C522 H524 0.961 . S
C522 H525 0.960 . S
H523 C522 0.961 . S
H524 C522 0.961 . S
H525 C522 0.960 . S
C526 N527 1.342 . S
C526 C530 1.401 . S
C526 C531 1.499 . S
N527 Co510 1.989 . S
N527 C526 1.342 . S
N527 N528 1.388 . S
N528 Co511 1.993 . S
N528 N527 1.388 . S
N528 C529 1.346 . S
C529 N528 1.346 . S
C529 C530 1.396 . S
C529 C539 1.510 . S
C530 C526 1.401 . S
C530 C529 1.396 . S
C531 C526 1.499 . S
C531 H532 0.959 . S
C531 H533 0.960 1_556 S
C531 H534 0.961 . S
H532 C531 0.959 . S
H533 C531 0.960 1_554 S
H534 C531 0.961 . S
O535 Co510 1.967 . S
O535 C543 1.258 . S
O536 Co511 1.941 . S
O536 C543 1.266 . S
H537 C539 0.959 . S
H538 C539 0.961 . S
C539 C529 1.510 . S
C539 H537 0.959 . S
C539 H538 0.961 . S
C539 H540 0.960 . S
H540 C539 0.960 . S
H541 N521 0.862 . S
O542 Co510 1.920 . S
O542 C515 1.289 . S
C543 O535 1.258 . S
C543 O536 1.266 . S
H544 C552 0.929 . S
H545 C554 0.930 1_545 S
H546 C556 0.930 . S
H547 C559 0.929 . S
H548 C562 0.930 . S
H549 C564 0.960 1_545 S
H550 C564 0.960 1_545 S
H551 C564 0.960 . S
C552 H544 0.929 . S
C552 C553 1.377 . S
C552 C554 1.384 . S
C553 C552 1.377 . S
C553 C559 1.390 . S
C554 H545 0.930 1_565 S
C554 C552 1.384 . S
C554 C555 1.372 . S
C555 C554 1.372 . S
C555 C556 1.400 . S
C555 C560 1.490 . S
C556 H546 0.930 . S
C556 C555 1.400 . S
C556 C559 1.386 . S
H557 C573 0.930 1_565 S
H558 C574 0.931 . S
C559 H547 0.929 . S
C559 C553 1.390 . S
C559 C556 1.386 . S
C560 C555 1.490 . S
C560 C562 1.395 . S
C560 C563 1.403 . S
H561 C567 0.930 . S
C562 H548 0.930 . S
C562 C560 1.395 . S
C562 C565 1.403 1_665 S
C563 C560 1.403 . S
C563 C564 1.524 . S
C563 C567 1.400 1_565 S
C564 H549 0.960 1_565 S
C564 H550 0.960 1_565 S
C564 H551 0.960 . S
C564 C563 1.524 . S
C565 C562 1.403 1_445 S
C565 C566 1.392 . S
C565 C569 1.495 . S
C566 C565 1.392 . S
C566 C567 1.385 1_455 S
C566 C568 1.478 . S
C567 H561 0.930 . S
C567 C563 1.400 1_545 S
C567 C566 1.385 1_655 S
C568 C566 1.478 . S
C568 C570 1.381 . S
C568 C574 1.382 1_545 S
C569 C565 1.495 . S
C569 H575 0.948 1_545 S
C569 H576 0.961 1_545 S
C569 H577 0.960 . S
C570 C568 1.381 . S
C570 C571 1.394 . S
C570 H578 0.930 . S
C571 C570 1.394 . S
C571 C572 1.383 . S
C571 H579 0.929 . S
C572 C571 1.383 . S
C572 C573 1.377 . S
C573 H557 0.930 1_545 S
C573 C572 1.377 . S
C573 C574 1.379 1_545 S
C574 H558 0.931 . S
C574 C568 1.382 1_565 S
C574 C573 1.379 1_565 S
H575 C569 0.948 1_565 S
H576 C569 0.961 1_565 S
H577 C569 0.960 . S
H578 C570 0.930 . S
H579 C571 0.929 . S
H580 C588 0.929 . S
H581 C590 0.930 . S
H582 C592 0.930 1_554 S
H583 C595 0.929 . S
H584 C598 0.930 . S
H585 C600 0.960 1_565 S
H586 C600 0.960 1_556 S
H587 C600 0.960 . S
C588 H580 0.929 . S
C588 C589 1.377 . S
C588 C590 1.384 . S
C589 C588 1.377 . S
C589 C595 1.390 . S
C590 H581 0.930 . S
C590 C588 1.384 . S
C590 C591 1.372 . S
C591 C590 1.372 . S
C591 C592 1.400 . S
C591 C596 1.490 . S
C592 H582 0.930 1_556 S
C592 C591 1.400 . S
C592 C595 1.386 . S
H593 C609 0.930 . S
H594 C610 0.931 . S
C595 H583 0.929 . S
C595 C589 1.390 . S
C595 C592 1.386 . S
C596 C591 1.490 . S
C596 C598 1.395 . S
C596 C599 1.397 1_546 S
H597 C603 0.930 . S
C598 H584 0.930 . S
C598 C596 1.395 . S
C598 C601 1.403 1_545 S
C599 C596 1.397 1_564 S
C599 C600 1.521 1_565 S
C599 C603 1.408 . S
C600 H585 0.960 1_545 S
C600 H586 0.960 1_554 S
C600 H587 0.960 . S
C600 C599 1.521 1_545 S
C601 C598 1.403 1_565 S
C601 C602 1.392 1_556 S
C601 C605 1.495 . S
C602 C601 1.392 1_554 S
C602 C603 1.385 . S
C602 C604 1.478 . S
C603 H597 0.930 . S
C603 C599 1.408 . S
C603 C602 1.385 . S
C604 C602 1.478 . S
C604 C606 1.381 . S
C604 C610 1.383 . S
C605 C601 1.495 . S
C605 H611 0.959 . S
C605 H612 0.961 . S
C605 H613 0.960 . S
C606 C604 1.381 . S
C606 C607 1.394 . S
C606 H614 0.930 1_554 S
C607 C606 1.394 . S
C607 C608 1.383 . S
C607 H615 0.929 . S
C608 C607 1.383 . S
C608 C609 1.377 . S
C609 H593 0.930 . S
C609 C608 1.377 . S
C609 C610 1.379 . S
C610 H594 0.931 . S
C610 C604 1.383 . S
C610 C609 1.379 . S
H611 C605 0.959 . S
H612 C605 0.961 . S
H613 C605 0.960 . S
H614 C606 0.930 1_556 S
H615 C607 0.929 . S
H616 C624 0.929 . S
H617 C626 0.930 . S
H618 C628 0.930 . S
H619 C631 0.929 . S
H620 C634 0.930 . S
H621 C636 0.960 . S
H622 C636 0.960 . S
H623 C636 0.960 . S
C624 H616 0.929 . S
C624 C625 1.377 . S
C624 C626 1.384 . S
C625 C624 1.377 . S
C625 C631 1.390 . S
C626 H617 0.930 . S
C626 C624 1.384 . S
C626 C627 1.372 . S
C627 C626 1.372 . S
C627 C628 1.400 . S
C627 C632 1.490 . S
C628 H618 0.930 . S
C628 C627 1.400 . S
C628 C631 1.386 . S
H629 C645 0.930 . S
H630 C646 0.931 . S
C631 H619 0.929 . S
C631 C625 1.390 . S
C631 C628 1.386 . S
C632 C627 1.490 . S
C632 C634 1.395 . S
C632 C635 1.403 . S
H633 C639 0.930 . S
C634 H620 0.930 . S
C634 C632 1.395 . S
C634 C637 1.403 . S
C635 C632 1.403 . S
C635 C636 1.524 . S
C635 C639 1.400 . S
C636 H621 0.960 . S
C636 H622 0.960 . S
C636 H623 0.960 . S
C636 C635 1.524 . S
C637 C634 1.403 . S
C637 C638 1.392 . S
C637 C641 1.495 . S
C638 C637 1.392 . S
C638 C639 1.385 . S
C638 C640 1.478 . S
C639 H633 0.930 . S
C639 C635 1.400 . S
C639 C638 1.385 . S
C640 C638 1.478 . S
C640 C642 1.381 . S
C640 C646 1.383 . S
C641 C637 1.495 . S
C641 H647 0.959 . S
C641 H648 0.961 . S
C641 H649 0.960 . S
C642 C640 1.381 . S
C642 C643 1.394 . S
C642 H650 0.930 . S
C643 C642 1.394 . S
C643 C644 1.383 . S
C643 H651 0.929 . S
C644 C643 1.383 . S
C644 C645 1.377 . S
C645 H629 0.930 . S
C645 C644 1.377 . S
C645 C646 1.379 . S
C646 H630 0.931 . S
C646 C640 1.383 . S
C646 C645 1.379 . S
H647 C641 0.959 . S
H648 C641 0.961 . S
H649 C641 0.960 . S
H650 C642 0.930 . S
H651 C643 0.929 . S
H652 C660 0.929 . S
H653 C662 0.930 1_455 S
H654 C664 0.930 . S
H655 C667 0.929 . S
H656 C670 0.930 . S
H657 C672 0.960 . S
H658 C672 0.960 . S
H659 C672 0.960 . S
C660 H652 0.929 . S
C660 C661 1.377 . S
C660 C662 1.384 . S
C661 C660 1.377 . S
C661 C667 1.390 . S
C662 H653 0.930 1_655 S
C662 C660 1.384 . S
C662 C663 1.372 . S
C663 C662 1.372 . S
C663 C664 1.400 . S
C663 C668 1.490 . S
C664 H654 0.930 . S
C664 C663 1.400 . S
C664 C667 1.386 . S
H665 C681 0.930 . S
H666 C682 0.931 . S
C667 H655 0.929 . S
C667 C661 1.390 . S
C667 C664 1.386 . S
C668 C663 1.490 . S
C668 C670 1.395 . S
C668 C671 1.403 1_554 S
H669 C675 0.930 . S
C670 H656 0.930 . S
C670 C668 1.395 . S
C670 C673 1.403 . S
C671 C668 1.403 1_556 S
C671 C672 1.524 . S
C671 C675 1.400 . S
C672 H657 0.960 . S
C672 H658 0.960 . S
C672 H659 0.960 . S
C672 C671 1.524 . S
C673 C670 1.403 . S
C673 C674 1.392 . S
C673 C677 1.495 . S
C674 C673 1.392 . S
C674 C675 1.385 1_554 S
C674 C676 1.484 1_554 S
C675 H669 0.930 . S
C675 C671 1.400 . S
C675 C674 1.385 1_556 S
C676 C674 1.484 1_556 S
C676 C678 1.353 1_655 S
C676 C682 1.405 . S
C677 C673 1.495 . S
C677 H683 0.959 . S
C677 H684 0.961 . S
C677 H685 0.960 1_655 S
C678 C676 1.353 1_455 S
C678 C679 1.397 . S
C678 H686 0.927 1_556 S
C679 C678 1.397 . S
C679 C680 1.383 . S
C679 H687 0.929 . S
C680 C679 1.383 . S
C680 C681 1.377 1_455 S
C681 H665 0.930 . S
C681 C680 1.377 1_655 S
C681 C682 1.379 . S
C682 H666 0.931 . S
C682 C676 1.405 . S
C682 C681 1.379 . S
H683 C677 0.959 . S
H684 C677 0.961 . S
H685 C677 0.960 1_455 S
H686 C678 0.927 1_554 S
H687 C679 0.929 . S
H688 C696 0.939 . S
H689 C698 0.930 1_545 S
H690 C700 0.930 . S
H691 C703 0.929 . S
H692 C706 0.924 1_545 S
H693 C708 0.960 . S
H694 C708 0.960 . S
H695 C708 0.960 . S
C696 H688 0.939 . S
C696 C697 1.377 . S
C696 C698 1.384 . S
C697 C696 1.377 . S
C697 C703 1.390 . S
C698 H689 0.930 1_565 S
C698 C696 1.384 . S
C698 C699 1.372 . S
C699 C698 1.372 . S
C699 C700 1.400 . S
C699 C704 1.490 . S
C700 H690 0.930 . S
C700 C699 1.400 . S
C700 C703 1.386 . S
H701 C717 0.930 . S
H702 C718 0.931 . S
C703 H691 0.929 . S
C703 C697 1.390 . S
C703 C700 1.386 . S
C704 C699 1.490 . S
C704 C706 1.395 . S
C704 C707 1.403 . S
H705 C711 0.930 . S
C706 H692 0.924 1_565 S
C706 C704 1.395 . S
C706 C709 1.403 1_565 S
C707 C704 1.403 . S
C707 C708 1.524 . S
C707 C711 1.400 . S
C708 H693 0.960 . S
C708 H694 0.960 . S
C708 H695 0.960 . S
C708 C707 1.524 . S
C709 C706 1.403 1_545 S
C709 C710 1.406 . S
C709 C713 1.495 . S
C710 C709 1.406 . S
C710 C711 1.356 1_545 S
C710 C712 1.495 . S
C711 H705 0.930 . S
C711 C707 1.400 . S
C711 C710 1.356 1_565 S
C712 C710 1.495 . S
C712 C714 1.381 . S
C712 C718 1.383 1_545 S
C713 C709 1.495 . S
C713 H719 0.959 . S
C713 H720 0.961 . S
C713 H721 0.960 . S
C714 C712 1.381 . S
C714 C715 1.394 . S
C714 H722 0.930 . S
C715 C714 1.394 . S
C715 C716 1.383 . S
C715 H723 0.929 . S
C716 C715 1.383 . S
C716 C717 1.377 1_545 S
C717 H701 0.930 . S
C717 C716 1.377 1_565 S
C717 C718 1.379 . S
C718 H702 0.931 . S
C718 C712 1.383 1_565 S
C718 C717 1.379 . S
H719 C713 0.959 . S
H720 C713 0.961 . S
H721 C713 0.960 . S
H722 C714 0.930 . S
H723 C715 0.929 . S
H724 C732 0.929 . S
H725 C734 0.930 . S
H726 C736 0.930 . S
H727 C739 0.929 . S
H728 C742 0.930 . S
H729 C744 0.960 . S
H730 C744 0.960 . S
H731 C744 0.960 . S
C732 H724 0.929 . S
C732 C733 1.377 . S
C732 C734 1.384 . S
C733 C732 1.377 . S
C733 C739 1.390 . S
C734 H725 0.930 . S
C734 C732 1.384 . S
C734 C735 1.372 . S
C735 C734 1.372 . S
C735 C736 1.400 . S
C735 C740 1.490 . S
C736 H726 0.930 . S
C736 C735 1.400 . S
C736 C739 1.386 . S
H737 C753 0.930 . S
H738 C754 0.931 . S
C739 H727 0.929 . S
C739 C733 1.390 . S
C739 C736 1.386 . S
C740 C735 1.490 . S
C740 C742 1.395 1_554 S
C740 C743 1.403 . S
H741 C747 0.930 . S
C742 H728 0.930 . S
C742 C740 1.395 1_556 S
C742 C745 1.403 . S
C743 C740 1.403 . S
C743 C744 1.524 . S
C743 C747 1.400 . S
C744 H729 0.960 . S
C744 H730 0.960 . S
C744 H731 0.960 . S
C744 C743 1.524 . S
C745 C742 1.403 . S
C745 C746 1.392 . S
C745 C749 1.495 . S
C746 C745 1.392 . S
C746 C747 1.385 1_556 S
C746 C748 1.478 . S
C747 H741 0.930 . S
C747 C743 1.400 . S
C747 C746 1.385 1_554 S
C748 C746 1.478 . S
C748 C750 1.381 . S
C748 C754 1.383 . S
C749 C745 1.495 . S
C749 H755 0.959 . S
C749 H756 0.961 . S
C749 H757 0.960 . S
C750 C748 1.381 . S
C750 C751 1.394 . S
C750 H758 0.930 . S
C751 C750 1.394 . S
C751 C752 1.383 . S
C751 H759 0.929 . S
C752 C751 1.383 . S
C752 C753 1.377 . S
C753 H737 0.930 . S
C753 C752 1.377 . S
C753 C754 1.379 . S
C754 H738 0.931 . S
C754 C748 1.383 . S
C754 C753 1.379 . S
H755 C749 0.959 . S
H756 C749 0.961 . S
H757 C749 0.960 . S
H758 C750 0.930 . S
H759 C751 0.929 . S
H760 C768 0.929 . S
H761 C770 0.930 . S
H762 C772 0.930 . S
H763 C775 0.929 . S
H764 C778 0.930 . S
H765 C780 0.962 . S
H766 C780 0.959 1_655 S
H767 C780 0.959 1_655 S
C768 H760 0.929 . S
C768 C769 1.377 . S
C768 C770 1.384 . S
C769 C768 1.377 . S
C769 C775 1.390 . S
C770 H761 0.930 . S
C770 C768 1.384 . S
C770 C771 1.372 . S
C771 C770 1.372 . S
C771 C772 1.400 . S
C771 C776 1.490 . S
C772 H762 0.930 . S
C772 C771 1.400 . S
C772 C775 1.386 . S
H773 C789 0.930 . S
H774 C790 0.931 . S
C775 H763 0.929 . S
C775 C769 1.390 . S
C775 C772 1.386 . S
C776 C771 1.490 . S
C776 C778 1.395 . S
C776 C779 1.403 . S
H777 C783 0.930 . S
C778 H764 0.930 . S
C778 C776 1.395 . S
C778 C781 1.403 . S
C779 C776 1.403 . S
C779 C780 1.523 1_655 S
C779 C783 1.400 1_655 S
C780 H765 0.962 . S
C780 H766 0.959 1_455 S
C780 H767 0.959 1_455 S
C780 C779 1.523 1_455 S
C781 C778 1.403 . S
C781 C782 1.392 1_655 S
C781 C785 1.495 . S
C782 C781 1.392 1_455 S
C782 C783 1.385 . S
C782 C784 1.478 . S
C783 H777 0.930 . S
C783 C779 1.400 1_455 S
C783 C782 1.385 . S
C784 C782 1.478 . S
C784 C786 1.381 . S
C784 C790 1.383 . S
C785 C781 1.495 . S
C785 H791 0.959 . S
C785 H792 0.991 . S
C785 H793 0.980 . S
C786 C784 1.381 . S
C786 C787 1.394 . S
C786 H794 0.930 . S
C787 C786 1.394 . S
C787 C788 1.383 . S
C787 H795 0.929 . S
C788 C787 1.383 . S
C788 C789 1.377 . S
C789 H773 0.930 . S
C789 C788 1.377 . S
C789 C790 1.379 . S
C790 H774 0.931 . S
C790 C784 1.383 . S
C790 C789 1.379 . S
H791 C785 0.959 . S
H792 C785 0.991 . S
H793 C785 0.980 . S
H794 C786 0.930 . S
H795 C787 0.929 . S
H796 C804 0.929 1_455 S
H797 C806 0.930 . S
H798 C808 0.930 . S
H799 C811 0.929 . S
H800 C814 0.930 . S
H801 C816 0.960 . S
H802 C816 0.958 1_565 S
H803 C816 0.960 1_565 S
C804 H796 0.929 1_655 S
C804 C805 1.377 . S
C804 C806 1.384 1_655 S
C805 C804 1.377 . S
C805 C811 1.390 . S
C806 H797 0.930 . S
C806 C804 1.384 1_455 S
C806 C807 1.372 1_455 S
C807 C806 1.372 1_655 S
C807 C808 1.400 . S
C807 C812 1.490 . S
C808 H798 0.930 . S
C808 C807 1.400 . S
C808 C811 1.386 . S
H809 C825 0.930 . S
H810 C826 0.931 . S
C811 H799 0.929 . S
C811 C805 1.390 . S
C811 C808 1.386 . S
C812 C807 1.490 . S
C812 C814 1.395 1_654 S
C812 C815 1.403 1_565 S
H813 C819 0.930 1_554 S
C814 H800 0.930 . S
C814 C812 1.395 1_456 S
C814 C817 1.446 . S
C815 C812 1.403 1_545 S
C815 C816 1.524 . S
C815 C819 1.400 1_554 S
C816 H801 0.960 . S
C816 H802 0.958 1_545 S
C816 H803 0.960 1_545 S
C816 C815 1.524 . S
C817 C814 1.446 . S
C817 C818 1.346 1_565 S
C817 C821 1.502 . S
C818 C817 1.346 1_545 S
C818 C819 1.385 1_455 S
C818 C820 1.478 . S
C819 H813 0.930 1_556 S
C819 C815 1.400 1_556 S
C819 C818 1.385 1_655 S
C820 C818 1.478 . S
C820 C822 1.381 . S
C820 C826 1.383 1_455 S
C821 C817 1.502 . S
C821 H827 0.959 . S
C821 H828 0.961 1_565 S
C821 H829 0.960 1_565 S
C822 C820 1.381 . S
C822 C823 1.394 . S
C822 H830 0.930 . S
C823 C822 1.394 . S
C823 C824 1.383 . S
C823 H831 0.929 . S
C824 C823 1.383 . S
C824 C825 1.377 1_455 S
C825 H809 0.930 . S
C825 C824 1.377 1_655 S
C825 C826 1.379 . S
C826 H810 0.931 . S
C826 C820 1.383 1_655 S
C826 C825 1.379 . S
H827 C821 0.959 . S
H828 C821 0.961 1_545 S
H829 C821 0.960 1_545 S
H830 C822 0.930 . S
H831 C823 0.929 . S
H832 C840 0.929 . S
H833 C842 0.930 . S
H834 C844 0.930 . S
H835 C847 0.929 . S
H836 C850 0.930 . S
H837 C852 0.960 . S
H838 C852 0.960 . S
H839 C852 0.960 . S
C840 H832 0.929 . S
C840 C841 1.377 . S
C840 C842 1.384 . S
C841 C840 1.377 . S
C841 C847 1.390 . S
C842 H833 0.930 . S
C842 C840 1.384 . S
C842 C843 1.372 . S
C843 C842 1.372 . S
C843 C844 1.400 . S
C843 C848 1.490 . S
C844 H834 0.930 . S
C844 C843 1.400 . S
C844 C847 1.386 . S
H845 C861 0.930 . S
H846 C862 0.931 . S
C847 H835 0.929 . S
C847 C841 1.390 . S
C847 C844 1.386 . S
C848 C843 1.490 . S
C848 C850 1.395 . S
C848 C851 1.403 . S
H849 C855 0.930 . S
C850 H836 0.930 . S
C850 C848 1.395 . S
C850 C853 1.403 . S
C851 C848 1.403 . S
C851 C852 1.524 . S
C851 C855 1.400 . S
C852 H837 0.960 . S
C852 H838 0.960 . S
C852 H839 0.960 . S
C852 C851 1.524 . S
C853 C850 1.403 . S
C853 C854 1.392 . S
C853 C857 1.495 . S
C854 C853 1.392 . S
C854 C855 1.385 . S
C854 C856 1.478 . S
C855 H849 0.930 . S
C855 C851 1.400 . S
C855 C854 1.385 . S
C856 C854 1.478 . S
C856 C858 1.381 . S
C856 C862 1.383 . S
C857 C853 1.495 . S
C857 H863 0.959 . S
C857 H864 0.961 . S
C857 H865 0.960 . S
C858 C856 1.381 . S
C858 C859 1.394 . S
C858 H866 0.930 . S
C859 C858 1.394 . S
C859 C860 1.383 . S
C859 H867 0.929 . S
C860 C859 1.383 . S
C860 C861 1.377 . S
C861 H845 0.930 . S
C861 C860 1.377 . S
C861 C862 1.379 . S
C862 H846 0.931 . S
C862 C856 1.383 . S
C862 C861 1.379 . S
H863 C857 0.959 . S
H864 C857 0.961 . S
H865 C857 0.960 . S
H866 C858 0.930 . S
H867 C859 0.929 . S
H868 C876 0.929 . S
H869 C878 0.930 . S
H870 C880 0.930 . S
H871 C883 0.929 . S
H872 C886 0.930 . S
H873 C888 0.960 . S
H874 C888 0.960 . S
H875 C888 0.960 . S
C876 H868 0.929 . S
C876 C877 1.377 . S
C876 C878 1.384 . S
C877 C876 1.377 . S
C877 C883 1.390 . S
C878 H869 0.930 . S
C878 C876 1.384 . S
C878 C879 1.372 . S
C879 C878 1.372 . S
C879 C880 1.400 . S
C879 C884 1.490 . S
C880 H870 0.930 . S
C880 C879 1.400 . S
C880 C883 1.386 . S
H881 C897 0.930 . S
H882 C898 0.931 . S
C883 H871 0.929 . S
C883 C877 1.390 . S
C883 C880 1.386 . S
C884 C879 1.490 . S
C884 C886 1.395 . S
C884 C887 1.403 . S
H885 C891 0.930 . S
C886 H872 0.930 . S
C886 C884 1.395 . S
C886 C889 1.403 . S
C887 C884 1.403 . S
C887 C888 1.524 . S
C887 C891 1.400 . S
C888 H873 0.960 . S
C888 H874 0.960 . S
C888 H875 0.960 . S
C888 C887 1.524 . S
C889 C886 1.403 . S
C889 C890 1.392 . S
C889 C893 1.495 . S
C890 C889 1.392 . S
C890 C891 1.385 . S
C890 C892 1.478 . S
C891 H885 0.930 . S
C891 C887 1.400 . S
C891 C890 1.385 . S
C892 C890 1.478 . S
C892 C894 1.381 . S
C892 C898 1.383 . S
C893 C889 1.495 . S
C893 H899 0.959 . S
C893 H900 0.961 . S
C893 H901 0.960 . S
C894 C892 1.381 . S
C894 C895 1.394 . S
C894 H902 0.930 . S
C895 C894 1.394 . S
C895 C896 1.383 . S
C895 H903 0.929 . S
C896 C895 1.383 . S
C896 C897 1.377 . S
C897 H881 0.930 . S
C897 C896 1.377 . S
C897 C898 1.379 . S
C898 H882 0.931 . S
C898 C892 1.383 . S
C898 C897 1.379 . S
H899 C893 0.959 . S
H900 C893 0.961 . S
H901 C893 0.960 . S
H902 C894 0.930 . S
H903 C895 0.929 . S
H904 C912 0.929 . S
H905 C914 0.930 . S
H906 C916 0.930 . S
H907 C919 0.929 . S
H908 C922 0.930 . S
H909 C924 0.960 . S
H910 C924 0.960 . S
H911 C924 0.960 . S
C912 H904 0.929 . S
C912 C913 1.377 . S
C912 C914 1.384 . S
C913 C912 1.377 . S
C913 C919 1.390 . S
C914 H905 0.930 . S
C914 C912 1.384 . S
C914 C915 1.372 . S
C915 C914 1.372 . S
C915 C916 1.400 . S
C915 C920 1.490 . S
C916 H906 0.930 . S
C916 C915 1.400 . S
C916 C919 1.386 . S
H917 C933 0.930 . S
H918 C934 0.931 . S
C919 H907 0.929 . S
C919 C913 1.390 . S
C919 C916 1.386 . S
C920 C915 1.490 . S
C920 C922 1.395 . S
C920 C923 1.403 . S
H921 C927 0.930 . S
C922 H908 0.930 . S
C922 C920 1.395 . S
C922 C925 1.403 . S
C923 C920 1.403 . S
C923 C924 1.524 . S
C923 C927 1.400 . S
C924 H909 0.960 . S
C924 H910 0.960 . S
C924 H911 0.960 . S
C924 C923 1.524 . S
C925 C922 1.403 . S
C925 C926 1.392 . S
C925 C929 1.495 . S
C926 C925 1.392 . S
C926 C927 1.385 . S
C926 C928 1.478 . S
C927 H921 0.930 . S
C927 C923 1.400 . S
C927 C926 1.385 . S
C928 C926 1.478 . S
C928 C930 1.381 . S
C928 C934 1.383 . S
C929 C925 1.495 . S
C929 H935 0.959 . S
C929 H936 0.961 . S
C929 H937 0.960 . S
C930 C928 1.381 . S
C930 C931 1.394 . S
C930 H938 0.930 . S
C931 C930 1.394 . S
C931 C932 1.383 . S
C931 H939 0.929 . S
C932 C931 1.383 . S
C932 C933 1.377 . S
C933 H917 0.930 . S
C933 C932 1.377 . S
C933 C934 1.379 . S
C934 H918 0.931 . S
C934 C928 1.383 . S
C934 C933 1.379 . S
H935 C929 0.959 . S
H936 C929 0.961 . S
H937 C929 0.960 . S
H938 C930 0.930 . S
H939 C931 0.929 . S
H940 C948 0.929 . S
H941 C950 0.930 . S
H942 C952 0.930 . S
H943 C955 0.929 . S
H944 C958 0.930 . S
H945 C960 0.960 . S
H946 C960 0.960 . S
H947 C960 0.960 . S
C948 H940 0.929 . S
C948 C949 1.377 . S
C948 C950 1.384 . S
C949 C948 1.377 . S
C949 C955 1.390 . S
C950 H941 0.930 . S
C950 C948 1.384 . S
C950 C951 1.372 . S
C951 C950 1.372 . S
C951 C952 1.400 . S
C951 C956 1.490 . S
C952 H942 0.930 . S
C952 C951 1.400 . S
C952 C955 1.386 . S
H953 C969 0.930 . S
H954 C970 0.931 . S
C955 H943 0.929 . S
C955 C949 1.390 . S
C955 C952 1.386 . S
C956 C951 1.490 . S
C956 C958 1.395 . S
C956 C959 1.403 . S
H957 C963 0.930 . S
C958 H944 0.930 . S
C958 C956 1.395 . S
C958 C961 1.403 . S
C959 C956 1.403 . S
C959 C960 1.524 . S
C959 C963 1.400 . S
C960 H945 0.960 . S
C960 H946 0.960 . S
C960 H947 0.960 . S
C960 C959 1.524 . S
C961 C958 1.403 . S
C961 C962 1.392 . S
C961 C965 1.495 . S
C962 C961 1.392 . S
C962 C963 1.385 . S
C962 C964 1.478 . S
C963 H957 0.930 . S
C963 C959 1.400 . S
C963 C962 1.385 . S
C964 C962 1.478 . S
C964 C966 1.381 . S
C964 C970 1.383 . S
C965 C961 1.495 . S
C965 H971 0.959 . S
C965 H972 0.961 . S
C965 H973 0.960 . S
C966 C964 1.381 . S
C966 C967 1.394 . S
C966 H974 0.930 . S
C967 C966 1.394 . S
C967 C968 1.383 . S
C967 H975 0.929 . S
C968 C967 1.383 . S
C968 C969 1.377 . S
C969 H953 0.930 . S
C969 C968 1.377 . S
C969 C970 1.379 . S
C970 H954 0.931 . S
C970 C964 1.383 . S
C970 C969 1.379 . S
H971 C965 0.959 . S
H972 C965 0.961 . S
H973 C965 0.960 . S
H974 C966 0.930 . S
H975 C967 0.929 . S
H976 C984 0.929 . S
H977 C986 0.930 . S
H978 C988 0.930 . S
H979 C991 0.929 . S
H980 C994 0.930 . S
H981 C996 0.960 . S
H982 C996 0.960 . S
H983 C996 0.960 . S
C984 H976 0.929 . S
C984 C985 1.377 . S
C984 C986 1.384 . S
C985 C984 1.377 . S
C985 C991 1.390 . S
C986 H977 0.930 . S
C986 C984 1.384 . S
C986 C987 1.372 . S
C987 C986 1.372 . S
C987 C988 1.400 . S
C987 C992 1.490 . S
C988 H978 0.930 . S
C988 C987 1.400 . S
C988 C991 1.386 . S
H989 C1005 0.930 . S
H990 C1006 0.931 . S
C991 H979 0.929 . S
C991 C985 1.390 . S
C991 C988 1.386 . S
C992 C987 1.490 . S
C992 C994 1.395 . S
C992 C995 1.403 . S
H993 C999 0.930 . S
C994 H980 0.930 . S
C994 C992 1.395 . S
C994 C997 1.403 . S
C995 C992 1.403 . S
C995 C996 1.524 . S
C995 C999 1.400 . S
C996 H981 0.960 . S
C996 H982 0.960 . S
C996 H983 0.960 . S
C996 C995 1.524 . S
C997 C994 1.403 . S
C997 C998 1.392 . S
C997 C1001 1.495 . S
C998 C997 1.392 . S
C998 C999 1.385 . S
C998 C1000 1.478 . S
C999 H993 0.930 . S
C999 C995 1.400 . S
C999 C998 1.385 . S
C1000 C998 1.478 . S
C1000 C1002 1.381 . S
C1000 C1006 1.383 . S
C1001 C997 1.495 . S
C1001 H1007 0.959 . S
C1001 H1008 0.961 . S
C1001 H1009 0.960 . S
C1002 C1000 1.381 . S
C1002 C1003 1.394 . S
C1002 H1010 0.930 . S
C1003 C1002 1.394 . S
C1003 C1004 1.383 . S
C1003 H1011 0.929 . S
C1004 C1003 1.383 . S
C1004 C1005 1.377 . S
C1005 H989 0.930 . S
C1005 C1004 1.377 . S
C1005 C1006 1.379 . S
C1006 H990 0.931 . S
C1006 C1000 1.383 . S
C1006 C1005 1.379 . S
H1007 C1001 0.959 . S
H1008 C1001 0.961 . S
H1009 C1001 0.960 . S
H1010 C1002 0.930 . S
H1011 C1003 0.929 . S
H1012 C1020 0.929 . S
H1013 C1022 0.930 . S
H1014 C1024 0.930 . S
H1015 C1027 0.929 . S
H1016 C1030 0.930 . S
H1017 C1032 0.960 . S
H1018 C1032 0.960 . S
H1019 C1032 0.960 . S
C1020 H1012 0.929 . S
C1020 C1021 1.377 . S
C1020 C1022 1.384 . S
C1021 C1020 1.377 . S
C1021 C1027 1.390 . S
C1022 H1013 0.930 . S
C1022 C1020 1.384 . S
C1022 C1023 1.372 . S
C1023 C1022 1.372 . S
C1023 C1024 1.400 . S
C1023 C1028 1.490 . S
C1024 H1014 0.930 . S
C1024 C1023 1.400 . S
C1024 C1027 1.386 . S
H1025 C1041 0.930 . S
H1026 C1042 0.931 . S
C1027 H1015 0.929 . S
C1027 C1021 1.390 . S
C1027 C1024 1.386 . S
C1028 C1023 1.490 . S
C1028 C1030 1.395 . S
C1028 C1031 1.403 . S
H1029 C1035 0.930 . S
C1030 H1016 0.930 . S
C1030 C1028 1.395 . S
C1030 C1033 1.403 . S
C1031 C1028 1.403 . S
C1031 C1032 1.524 . S
C1031 C1035 1.400 . S
C1032 H1017 0.960 . S
C1032 H1018 0.960 . S
C1032 H1019 0.960 . S
C1032 C1031 1.524 . S
C1033 C1030 1.403 . S
C1033 C1034 1.392 . S
C1033 C1037 1.495 . S
C1034 C1033 1.392 . S
C1034 C1035 1.385 . S
C1034 C1036 1.478 . S
C1035 H1029 0.930 . S
C1035 C1031 1.400 . S
C1035 C1034 1.385 . S
C1036 C1034 1.478 . S
C1036 C1038 1.381 . S
C1036 C1042 1.383 . S
C1037 C1033 1.495 . S
C1037 H1043 0.959 . S
C1037 H1044 0.961 . S
C1037 H1045 0.960 . S
C1038 C1036 1.381 . S
C1038 C1039 1.394 . S
C1038 H1046 0.930 . S
C1039 C1038 1.394 . S
C1039 C1040 1.383 . S
C1039 H1047 0.929 . S
C1040 C1039 1.383 . S
C1040 C1041 1.377 . S
C1041 H1025 0.930 . S
C1041 C1040 1.377 . S
C1041 C1042 1.379 . S
C1042 H1026 0.931 . S
C1042 C1036 1.383 . S
C1042 C1041 1.379 . S
H1043 C1037 0.959 . S
H1044 C1037 0.961 . S
H1045 C1037 0.960 . S
H1046 C1038 0.930 . S
H1047 C1039 0.929 . S
H1048 C1056 0.929 . S
H1049 C1058 0.930 . S
H1050 C1060 0.930 . S
H1051 C1063 0.929 . S
H1052 C1066 0.930 . S
H1053 C1068 0.960 . S
H1054 C1068 0.960 . S
H1055 C1068 0.960 . S
C1056 H1048 0.929 . S
C1056 C1057 1.377 . S
C1056 C1058 1.384 . S
C1057 C1056 1.377 . S
C1057 C1063 1.390 . S
C1058 H1049 0.930 . S
C1058 C1056 1.384 . S
C1058 C1059 1.372 . S
C1059 C1058 1.372 . S
C1059 C1060 1.400 . S
C1059 C1064 1.490 . S
C1060 H1050 0.930 . S
C1060 C1059 1.400 . S
C1060 C1063 1.386 . S
H1061 C1077 0.930 . S
H1062 C1078 0.931 . S
C1063 H1051 0.929 . S
C1063 C1057 1.390 . S
C1063 C1060 1.386 . S
C1064 C1059 1.490 . S
C1064 C1066 1.395 . S
C1064 C1067 1.403 . S
H1065 C1071 0.930 . S
C1066 H1052 0.930 . S
C1066 C1064 1.395 . S
C1066 C1069 1.403 . S
C1067 C1064 1.403 . S
C1067 C1068 1.524 . S
C1067 C1071 1.400 . S
C1068 H1053 0.960 . S
C1068 H1054 0.960 . S
C1068 H1055 0.960 . S
C1068 C1067 1.524 . S
C1069 C1066 1.403 . S
C1069 C1070 1.392 . S
C1069 C1073 1.495 . S
C1070 C1069 1.392 . S
C1070 C1071 1.385 . S
C1070 C1072 1.478 . S
C1071 H1065 0.930 . S
C1071 C1067 1.400 . S
C1071 C1070 1.385 . S
C1072 C1070 1.478 . S
C1072 C1074 1.381 . S
C1072 C1078 1.383 . S
C1073 C1069 1.495 . S
C1073 H1079 0.959 . S
C1073 H1080 0.961 . S
C1073 H1081 0.960 . S
C1074 C1072 1.381 . S
C1074 C1075 1.394 . S
C1074 H1082 0.930 . S
C1075 C1074 1.394 . S
C1075 C1076 1.383 . S
C1075 H1083 0.929 . S
C1076 C1075 1.383 . S
C1076 C1077 1.377 . S
C1077 H1061 0.930 . S
C1077 C1076 1.377 . S
C1077 C1078 1.379 . S
C1078 H1062 0.931 . S
C1078 C1072 1.383 . S
C1078 C1077 1.379 . S
H1079 C1073 0.959 . S
H1080 C1073 0.961 . S
H1081 C1073 0.960 . S
H1082 C1074 0.930 . S
H1083 C1075 0.929 . S
H1084 C1092 0.929 . S
H1085 C1094 0.930 . S
H1086 C1096 0.930 . S
H1087 C1099 0.929 . S
H1088 C1102 0.930 . S
H1089 C1104 0.960 . S
H1090 C1104 0.960 . S
H1091 C1104 0.960 . S
C1092 H1084 0.929 . S
C1092 C1093 1.377 . S
C1092 C1094 1.384 . S
C1093 C1092 1.377 . S
C1093 C1099 1.390 . S
C1094 H1085 0.930 . S
C1094 C1092 1.384 . S
C1094 C1095 1.372 . S
C1095 C1094 1.372 . S
C1095 C1096 1.400 . S
C1095 C1100 1.490 . S
C1096 H1086 0.930 . S
C1096 C1095 1.400 . S
C1096 C1099 1.386 . S
H1097 C1113 0.930 . S
H1098 C1114 0.931 . S
C1099 H1087 0.929 . S
C1099 C1093 1.390 . S
C1099 C1096 1.386 . S
C1100 C1095 1.490 . S
C1100 C1102 1.395 . S
C1100 C1103 1.403 . S
H1101 C1107 0.930 . S
C1102 H1088 0.930 . S
C1102 C1100 1.395 . S
C1102 C1105 1.403 . S
C1103 C1100 1.403 . S
C1103 C1104 1.524 . S
C1103 C1107 1.400 . S
C1104 H1089 0.960 . S
C1104 H1090 0.960 . S
C1104 H1091 0.960 . S
C1104 C1103 1.524 . S
C1105 C1102 1.403 . S
C1105 C1106 1.392 . S
C1105 C1109 1.495 . S
C1106 C1105 1.392 . S
C1106 C1107 1.385 . S
C1106 C1108 1.478 . S
C1107 H1101 0.930 . S
C1107 C1103 1.400 . S
C1107 C1106 1.385 . S
C1108 C1106 1.478 . S
C1108 C1110 1.381 . S
C1108 C1114 1.383 . S
C1109 C1105 1.495 . S
C1109 H1115 0.959 . S
C1109 H1116 0.961 . S
C1109 H1117 0.960 . S
C1110 C1108 1.381 . S
C1110 C1111 1.394 . S
C1110 H1118 0.930 . S
C1111 C1110 1.394 . S
C1111 C1112 1.383 . S
C1111 H1119 0.929 . S
C1112 C1111 1.383 . S
C1112 C1113 1.377 . S
C1113 H1097 0.930 . S
C1113 C1112 1.377 . S
C1113 C1114 1.379 . S
C1114 H1098 0.931 . S
C1114 C1108 1.383 . S
C1114 C1113 1.379 . S
H1115 C1109 0.959 . S
H1116 C1109 0.961 . S
H1117 C1109 0.960 . S
H1118 C1110 0.930 . S
H1119 C1111 0.929 . S
H1120 C1128 0.929 . S
H1121 C1130 0.930 . S
H1122 C1132 0.930 . S
H1123 C1135 0.929 . S
H1124 C1138 0.930 . S
H1125 C1140 0.960 . S
H1126 C1140 0.960 . S
H1127 C1140 0.960 . S
C1128 H1120 0.929 . S
C1128 C1129 1.377 . S
C1128 C1130 1.384 . S
C1129 C1128 1.377 . S
C1129 C1135 1.390 . S
C1130 H1121 0.930 . S
C1130 C1128 1.384 . S
C1130 C1131 1.372 . S
C1131 C1130 1.372 . S
C1131 C1132 1.400 . S
C1131 C1136 1.490 . S
C1132 H1122 0.930 . S
C1132 C1131 1.400 . S
C1132 C1135 1.386 . S
H1133 C1149 0.930 . S
H1134 C1150 0.931 . S
C1135 H1123 0.929 . S
C1135 C1129 1.390 . S
C1135 C1132 1.386 . S
C1136 C1131 1.490 . S
C1136 C1138 1.395 . S
C1136 C1139 1.403 . S
H1137 C1143 0.930 . S
C1138 H1124 0.930 . S
C1138 C1136 1.395 . S
C1138 C1141 1.403 . S
C1139 C1136 1.403 . S
C1139 C1140 1.524 . S
C1139 C1143 1.400 . S
C1140 H1125 0.960 . S
C1140 H1126 0.960 . S
C1140 H1127 0.960 . S
C1140 C1139 1.524 . S
C1141 C1138 1.403 . S
C1141 C1142 1.392 . S
C1141 C1145 1.495 . S
C1142 C1141 1.392 . S
C1142 C1143 1.385 . S
C1142 C1144 1.478 . S
C1143 H1137 0.930 . S
C1143 C1139 1.400 . S
C1143 C1142 1.385 . S
C1144 C1142 1.478 . S
C1144 C1146 1.381 . S
C1144 C1150 1.383 . S
C1145 C1141 1.495 . S
C1145 H1151 0.959 . S
C1145 H1152 0.961 . S
C1145 H1153 0.960 . S
C1146 C1144 1.381 . S
C1146 C1147 1.394 . S
C1146 H1154 0.930 . S
C1147 C1146 1.394 . S
C1147 C1148 1.383 . S
C1147 H1155 0.929 . S
C1148 C1147 1.383 . S
C1148 C1149 1.377 . S
C1149 H1133 0.930 . S
C1149 C1148 1.377 . S
C1149 C1150 1.379 . S
C1150 H1134 0.931 . S
C1150 C1144 1.383 . S
C1150 C1149 1.379 . S
H1151 C1145 0.959 . S
H1152 C1145 0.961 . S
H1153 C1145 0.960 . S
H1154 C1146 0.930 . S
H1155 C1147 0.929 . S
H1156 C1164 0.929 . S
H1157 C1166 0.930 . S
H1158 C1168 0.930 . S
H1159 C1171 0.929 . S
H1160 C1174 0.930 . S
H1161 C1176 0.960 . S
H1162 C1176 0.960 . S
H1163 C1176 0.960 . S
C1164 H1156 0.929 . S
C1164 C1165 1.377 . S
C1164 C1166 1.384 . S
C1165 C1164 1.377 . S
C1165 C1171 1.390 . S
C1166 H1157 0.930 . S
C1166 C1164 1.384 . S
C1166 C1167 1.372 . S
C1167 C1166 1.372 . S
C1167 C1168 1.400 . S
C1167 C1172 1.490 . S
C1168 H1158 0.930 . S
C1168 C1167 1.400 . S
C1168 C1171 1.386 . S
H1169 C1185 0.930 . S
H1170 C1186 0.931 . S
C1171 H1159 0.929 . S
C1171 C1165 1.390 . S
C1171 C1168 1.386 . S
C1172 C1167 1.490 . S
C1172 C1174 1.395 . S
C1172 C1175 1.403 . S
H1173 C1179 0.930 . S
C1174 H1160 0.930 . S
C1174 C1172 1.395 . S
C1174 C1177 1.403 . S
C1175 C1172 1.403 . S
C1175 C1176 1.524 . S
C1175 C1179 1.400 . S
C1176 H1161 0.960 . S
C1176 H1162 0.960 . S
C1176 H1163 0.960 . S
C1176 C1175 1.524 . S
C1177 C1174 1.403 . S
C1177 C1178 1.392 . S
C1177 C1181 1.495 . S
C1178 C1177 1.392 . S
C1178 C1179 1.385 . S
C1178 C1180 1.478 . S
C1179 H1173 0.930 . S
C1179 C1175 1.400 . S
C1179 C1178 1.385 . S
C1180 C1178 1.478 . S
C1180 C1182 1.381 . S
C1180 C1186 1.383 . S
C1181 C1177 1.495 . S
C1181 H1187 0.959 . S
C1181 H1188 0.961 . S
C1181 H1189 0.960 . S
C1182 C1180 1.381 . S
C1182 C1183 1.394 . S
C1182 H1190 0.930 . S
C1183 C1182 1.394 . S
C1183 C1184 1.383 . S
C1183 H1191 0.929 . S
C1184 C1183 1.383 . S
C1184 C1185 1.377 . S
C1185 H1169 0.930 . S
C1185 C1184 1.377 . S
C1185 C1186 1.379 . S
C1186 H1170 0.931 . S
C1186 C1180 1.383 . S
C1186 C1185 1.379 . S
H1187 C1181 0.959 . S
H1188 C1181 0.961 . S
H1189 C1181 0.960 . S
H1190 C1182 0.930 . S
H1191 C1183 0.929 . S
H1192 C1200 0.929 . S
H1193 C1202 0.930 . S
H1194 C1204 0.930 . S
H1195 C1207 0.929 . S
H1196 C1210 0.930 . S
H1197 C1212 0.960 . S
H1198 C1212 0.960 . S
H1199 C1212 0.960 . S
C1200 H1192 0.929 . S
C1200 C1201 1.377 . S
C1200 C1202 1.384 . S
C1201 C1200 1.377 . S
C1201 C1207 1.390 . S
C1202 H1193 0.930 . S
C1202 C1200 1.384 . S
C1202 C1203 1.372 . S
C1203 C1202 1.372 . S
C1203 C1204 1.400 . S
C1203 C1208 1.490 . S
C1204 H1194 0.930 . S
C1204 C1203 1.400 . S
C1204 C1207 1.386 . S
H1205 C1221 0.930 . S
H1206 C1222 0.931 . S
C1207 H1195 0.929 . S
C1207 C1201 1.390 . S
C1207 C1204 1.386 . S
C1208 C1203 1.490 . S
C1208 C1210 1.395 . S
C1208 C1211 1.403 . S
H1209 C1215 0.930 . S
C1210 H1196 0.930 . S
C1210 C1208 1.395 . S
C1210 C1213 1.403 . S
C1211 C1208 1.403 . S
C1211 C1212 1.524 . S
C1211 C1215 1.400 . S
C1212 H1197 0.960 . S
C1212 H1198 0.960 . S
C1212 H1199 0.960 . S
C1212 C1211 1.524 . S
C1213 C1210 1.403 . S
C1213 C1214 1.392 . S
C1213 C1217 1.495 . S
C1214 C1213 1.392 . S
C1214 C1215 1.385 . S
C1214 C1216 1.478 . S
C1215 H1209 0.930 . S
C1215 C1211 1.400 . S
C1215 C1214 1.385 . S
C1216 C1214 1.478 . S
C1216 C1218 1.381 . S
C1216 C1222 1.383 . S
C1217 C1213 1.495 . S
C1217 H1223 0.959 . S
C1217 H1224 0.961 . S
C1217 H1225 0.960 . S
C1218 C1216 1.381 . S
C1218 C1219 1.394 . S
C1218 H1226 0.930 . S
C1219 C1218 1.394 . S
C1219 C1220 1.383 . S
C1219 H1227 0.929 . S
C1220 C1219 1.383 . S
C1220 C1221 1.377 . S
C1221 H1205 0.930 . S
C1221 C1220 1.377 . S
C1221 C1222 1.379 . S
C1222 H1206 0.931 . S
C1222 C1216 1.383 . S
C1222 C1221 1.379 . S
H1223 C1217 0.959 . S
H1224 C1217 0.961 . S
H1225 C1217 0.960 . S
H1226 C1218 0.930 . S
H1227 C1219 0.929 . S
H1228 C1236 0.929 . S
H1229 C1238 0.930 . S
H1230 C1240 0.930 . S
H1231 C1243 0.929 . S
H1232 C1246 0.930 . S
H1233 C1248 0.960 . S
H1234 C1248 0.960 . S
H1235 C1248 0.960 . S
C1236 H1228 0.929 . S
C1236 C1237 1.377 . S
C1236 C1238 1.384 . S
C1237 C1236 1.377 . S
C1237 C1243 1.390 . S
C1238 H1229 0.930 . S
C1238 C1236 1.384 . S
C1238 C1239 1.372 . S
C1239 C1238 1.372 . S
C1239 C1240 1.400 . S
C1239 C1244 1.490 . S
C1240 H1230 0.930 . S
C1240 C1239 1.400 . S
C1240 C1243 1.386 . S
H1241 C1257 0.930 . S
H1242 C1258 0.931 . S
C1243 H1231 0.929 . S
C1243 C1237 1.390 . S
C1243 C1240 1.386 . S
C1244 C1239 1.490 . S
C1244 C1246 1.395 . S
C1244 C1247 1.403 . S
H1245 C1251 0.930 . S
C1246 H1232 0.930 . S
C1246 C1244 1.395 . S
C1246 C1249 1.403 . S
C1247 C1244 1.403 . S
C1247 C1248 1.524 . S
C1247 C1251 1.400 . S
C1248 H1233 0.960 . S
C1248 H1234 0.960 . S
C1248 H1235 0.960 . S
C1248 C1247 1.524 . S
C1249 C1246 1.403 . S
C1249 C1250 1.392 . S
C1249 C1253 1.495 . S
C1250 C1249 1.392 . S
C1250 C1251 1.385 . S
C1250 C1252 1.478 . S
C1251 H1245 0.930 . S
C1251 C1247 1.400 . S
C1251 C1250 1.385 . S
C1252 C1250 1.478 . S
C1252 C1254 1.381 . S
C1252 C1258 1.383 . S
C1253 C1249 1.495 . S
C1253 H1259 0.959 . S
C1253 H1260 0.961 . S
C1253 H1261 0.960 . S
C1254 C1252 1.381 . S
C1254 C1255 1.394 . S
C1254 H1262 0.930 . S
C1255 C1254 1.394 . S
C1255 C1256 1.383 . S
C1255 H1263 0.929 . S
C1256 C1255 1.383 . S
C1256 C1257 1.377 . S
C1257 H1241 0.930 . S
C1257 C1256 1.377 . S
C1257 C1258 1.379 . S
C1258 H1242 0.931 . S
C1258 C1252 1.383 . S
C1258 C1257 1.379 . S
H1259 C1253 0.959 . S
H1260 C1253 0.961 . S
H1261 C1253 0.960 . S
H1262 C1254 0.930 . S
H1263 C1255 0.929 . S
H1264 C1272 0.929 . S
H1265 C1274 0.930 . S
H1266 C1276 0.930 . S
H1267 C1279 0.929 . S
H1268 C1282 0.930 . S
H1269 C1284 0.960 . S
H1270 C1284 0.960 . S
H1271 C1284 0.960 . S
C1272 H1264 0.929 . S
C1272 C1273 1.377 . S
C1272 C1274 1.384 . S
C1273 C1272 1.377 . S
C1273 C1279 1.390 . S
C1274 H1265 0.930 . S
C1274 C1272 1.384 . S
C1274 C1275 1.372 . S
C1275 C1274 1.372 . S
C1275 C1276 1.400 . S
C1275 C1280 1.490 . S
C1276 H1266 0.930 . S
C1276 C1275 1.400 . S
C1276 C1279 1.386 . S
H1277 C1293 0.930 . S
H1278 C1294 0.931 . S
C1279 H1267 0.929 . S
C1279 C1273 1.390 . S
C1279 C1276 1.386 . S
C1280 C1275 1.490 . S
C1280 C1282 1.395 . S
C1280 C1283 1.403 . S
H1281 C1287 0.930 . S
C1282 H1268 0.930 . S
C1282 C1280 1.395 . S
C1282 C1285 1.403 . S
C1283 C1280 1.403 . S
C1283 C1284 1.524 . S
C1283 C1287 1.400 . S
C1284 H1269 0.960 . S
C1284 H1270 0.960 . S
C1284 H1271 0.960 . S
C1284 C1283 1.524 . S
C1285 C1282 1.403 . S
C1285 C1286 1.392 . S
C1285 C1289 1.495 . S
C1286 C1285 1.392 . S
C1286 C1287 1.385 . S
C1286 C1288 1.478 . S
C1287 H1281 0.930 . S
C1287 C1283 1.400 . S
C1287 C1286 1.385 . S
C1288 C1286 1.478 . S
C1288 C1290 1.381 . S
C1288 C1294 1.383 . S
C1289 C1285 1.495 . S
C1289 H1295 0.959 . S
C1289 H1296 0.961 . S
C1289 H1297 0.960 . S
C1290 C1288 1.381 . S
C1290 C1291 1.394 . S
C1290 H1298 0.930 . S
C1291 C1290 1.394 . S
C1291 C1292 1.383 . S
C1291 H1299 0.929 . S
C1292 C1291 1.383 . S
C1292 C1293 1.377 . S
C1293 H1277 0.930 . S
C1293 C1292 1.377 . S
C1293 C1294 1.379 . S
C1294 H1278 0.931 . S
C1294 C1288 1.383 . S
C1294 C1293 1.379 . S
H1295 C1289 0.959 . S
H1296 C1289 0.961 . S
H1297 C1289 0.960 . S
H1298 C1290 0.930 . S
H1299 C1291 0.929 . S
H1300 C1308 0.929 . S
H1301 C1310 0.930 . S
H1302 C1312 0.930 . S
H1303 C1315 0.929 . S
H1304 C1318 0.930 . S
H1305 C1320 0.960 . S
H1306 C1320 0.960 . S
H1307 C1320 0.960 . S
C1308 H1300 0.929 . S
C1308 C1309 1.377 . S
C1308 C1310 1.384 . S
C1309 C1308 1.377 . S
C1309 C1315 1.390 . S
C1310 H1301 0.930 . S
C1310 C1308 1.384 . S
C1310 C1311 1.372 . S
C1311 C1310 1.372 . S
C1311 C1312 1.400 . S
C1311 C1316 1.490 . S
C1312 H1302 0.930 . S
C1312 C1311 1.400 . S
C1312 C1315 1.386 . S
H1313 C1329 0.930 . S
H1314 C1330 0.931 . S
C1315 H1303 0.929 . S
C1315 C1309 1.390 . S
C1315 C1312 1.386 . S
C1316 C1311 1.490 . S
C1316 C1318 1.395 . S
C1316 C1319 1.403 . S
H1317 C1323 0.930 . S
C1318 H1304 0.930 . S
C1318 C1316 1.395 . S
C1318 C1321 1.403 . S
C1319 C1316 1.403 . S
C1319 C1320 1.524 . S
C1319 C1323 1.400 . S
C1320 H1305 0.960 . S
C1320 H1306 0.960 . S
C1320 H1307 0.960 . S
C1320 C1319 1.524 . S
C1321 C1318 1.403 . S
C1321 C1322 1.392 . S
C1321 C1325 1.495 . S
C1322 C1321 1.392 . S
C1322 C1323 1.385 . S
C1322 C1324 1.478 . S
C1323 H1317 0.930 . S
C1323 C1319 1.400 . S
C1323 C1322 1.385 . S
C1324 C1322 1.478 . S
C1324 C1326 1.381 . S
C1324 C1330 1.383 . S
C1325 C1321 1.495 . S
C1325 H1331 0.959 . S
C1325 H1332 0.961 . S
C1325 H1333 0.960 . S
C1326 C1324 1.381 . S
C1326 C1327 1.394 . S
C1326 H1334 0.930 . S
C1327 C1326 1.394 . S
C1327 C1328 1.383 . S
C1327 H1335 0.929 . S
C1328 C1327 1.383 . S
C1328 C1329 1.377 . S
C1329 H1313 0.930 . S
C1329 C1328 1.377 . S
C1329 C1330 1.379 . S
C1330 H1314 0.931 . S
C1330 C1324 1.383 . S
C1330 C1329 1.379 . S
H1331 C1325 0.959 . S
H1332 C1325 0.961 . S
H1333 C1325 0.960 . S
H1334 C1326 0.930 . S
H1335 C1327 0.929 . S
H1336 C1344 0.929 . S
H1337 C1346 0.930 . S
H1338 C1348 0.930 . S
H1339 C1351 0.929 . S
H1340 C1354 0.930 . S
H1341 C1356 0.960 . S
H1342 C1356 0.960 . S
H1343 C1356 0.960 . S
C1344 H1336 0.929 . S
C1344 C1345 1.377 . S
C1344 C1346 1.384 . S
C1345 C1344 1.377 . S
C1345 C1351 1.390 . S
C1346 H1337 0.930 . S
C1346 C1344 1.384 . S
C1346 C1347 1.372 . S
C1347 C1346 1.372 . S
C1347 C1348 1.400 . S
C1347 C1352 1.490 . S
C1348 H1338 0.930 . S
C1348 C1347 1.400 . S
C1348 C1351 1.386 . S
H1349 C1365 0.930 . S
H1350 C1366 0.931 . S
C1351 H1339 0.929 . S
C1351 C1345 1.390 . S
C1351 C1348 1.386 . S
C1352 C1347 1.490 . S
C1352 C1354 1.395 . S
C1352 C1355 1.403 . S
H1353 C1359 0.930 . S
C1354 H1340 0.930 . S
C1354 C1352 1.395 . S
C1354 C1357 1.403 . S
C1355 C1352 1.403 . S
C1355 C1356 1.524 . S
C1355 C1359 1.400 . S
C1356 H1341 0.960 . S
C1356 H1342 0.960 . S
C1356 H1343 0.960 . S
C1356 C1355 1.524 . S
C1357 C1354 1.403 . S
C1357 C1358 1.392 . S
C1357 C1361 1.495 . S
C1358 C1357 1.392 . S
C1358 C1359 1.385 . S
C1358 C1360 1.478 . S
C1359 H1353 0.930 . S
C1359 C1355 1.400 . S
C1359 C1358 1.385 . S
C1360 C1358 1.478 . S
C1360 C1362 1.381 . S
C1360 C1366 1.383 . S
C1361 C1357 1.495 . S
C1361 H1367 0.959 . S
C1361 H1368 0.961 . S
C1361 H1369 0.960 . S
C1362 C1360 1.381 . S
C1362 C1363 1.394 . S
C1362 H1370 0.930 . S
C1363 C1362 1.394 . S
C1363 C1364 1.383 . S
C1363 H1371 0.929 . S
C1364 C1363 1.383 . S
C1364 C1365 1.377 . S
C1365 H1349 0.930 . S
C1365 C1364 1.377 . S
C1365 C1366 1.379 . S
C1366 H1350 0.931 . S
C1366 C1360 1.383 . S
C1366 C1365 1.379 . S
H1367 C1361 0.959 . S
H1368 C1361 0.961 . S
H1369 C1361 0.960 . S
H1370 C1362 0.930 . S
H1371 C1363 0.929 . S
H1372 C1380 0.929 . S
H1373 C1382 0.930 . S
H1374 C1384 0.930 . S
H1375 C1387 0.929 . S
H1376 C1390 0.930 . S
H1377 C1392 0.960 . S
H1378 C1392 0.960 . S
H1379 C1392 0.960 . S
C1380 H1372 0.929 . S
C1380 C1381 1.377 . S
C1380 C1382 1.384 . S
C1381 C1380 1.377 . S
C1381 C1387 1.390 . S
C1382 H1373 0.930 . S
C1382 C1380 1.384 . S
C1382 C1383 1.372 . S
C1383 C1382 1.372 . S
C1383 C1384 1.400 . S
C1383 C1388 1.490 . S
C1384 H1374 0.930 . S
C1384 C1383 1.400 . S
C1384 C1387 1.386 . S
H1385 C1401 0.930 . S
H1386 C1402 0.931 . S
C1387 H1375 0.929 . S
C1387 C1381 1.390 . S
C1387 C1384 1.386 . S
C1388 C1383 1.490 . S
C1388 C1390 1.395 . S
C1388 C1391 1.403 . S
H1389 C1395 0.930 . S
C1390 H1376 0.930 . S
C1390 C1388 1.395 . S
C1390 C1393 1.403 . S
C1391 C1388 1.403 . S
C1391 C1392 1.524 . S
C1391 C1395 1.400 . S
C1392 H1377 0.960 . S
C1392 H1378 0.960 . S
C1392 H1379 0.960 . S
C1392 C1391 1.524 . S
C1393 C1390 1.403 . S
C1393 C1394 1.392 . S
C1393 C1397 1.495 . S
C1394 C1393 1.392 . S
C1394 C1395 1.385 . S
C1394 C1396 1.478 . S
C1395 H1389 0.930 . S
C1395 C1391 1.400 . S
C1395 C1394 1.385 . S
C1396 C1394 1.478 . S
C1396 C1398 1.381 . S
C1396 C1402 1.383 . S
C1397 C1393 1.495 . S
C1397 H1403 0.959 . S
C1397 H1404 0.961 . S
C1397 H1405 0.960 . S
C1398 C1396 1.381 . S
C1398 C1399 1.394 . S
C1398 H1406 0.930 . S
C1399 C1398 1.394 . S
C1399 C1400 1.383 . S
C1399 H1407 0.929 . S
C1400 C1399 1.383 . S
C1400 C1401 1.377 . S
C1401 H1385 0.930 . S
C1401 C1400 1.377 . S
C1401 C1402 1.379 . S
C1402 H1386 0.931 . S
C1402 C1396 1.383 . S
C1402 C1401 1.379 . S
H1403 C1397 0.959 . S
H1404 C1397 0.961 . S
H1405 C1397 0.960 . S
H1406 C1398 0.930 . S
H1407 C1399 0.929 . S
H1408 C1416 0.929 . S
H1409 C1418 0.930 . S
H1410 C1420 0.930 . S
H1411 C1423 0.932 . S
H1412 C1426 0.930 . S
H1413 C1428 0.960 . S
H1414 C1428 0.960 . S
H1415 C1428 0.960 . S
C1416 H1408 0.929 . S
C1416 C1417 1.377 . S
C1416 C1418 1.384 . S
C1417 C1416 1.377 . S
C1417 C1423 1.390 . S
C1418 H1409 0.930 . S
C1418 C1416 1.384 . S
C1418 C1419 1.372 . S
C1419 C1418 1.372 . S
C1419 C1420 1.400 . S
C1419 C1424 1.490 . S
C1420 H1410 0.930 . S
C1420 C1419 1.400 . S
C1420 C1423 1.386 . S
H1421 C1437 0.930 . S
H1422 C1438 0.931 . S
C1423 H1411 0.932 . S
C1423 C1417 1.390 . S
C1423 C1420 1.386 . S
C1424 C1419 1.490 . S
C1424 C1426 1.395 . S
C1424 C1427 1.403 . S
H1425 C1431 0.930 . S
C1426 H1412 0.930 . S
C1426 C1424 1.395 . S
C1426 C1429 1.403 . S
C1427 C1424 1.403 . S
C1427 C1428 1.524 . S
C1427 C1431 1.400 . S
C1428 H1413 0.960 . S
C1428 H1414 0.960 . S
C1428 H1415 0.960 . S
C1428 C1427 1.524 . S
C1429 C1426 1.403 . S
C1429 C1430 1.392 . S
C1429 C1433 1.495 . S
C1430 C1429 1.392 . S
C1430 C1431 1.385 . S
C1430 C1432 1.478 . S
C1431 H1425 0.930 . S
C1431 C1427 1.400 . S
C1431 C1430 1.385 . S
C1432 C1430 1.478 . S
C1432 C1434 1.381 . S
C1432 C1438 1.383 . S
C1433 C1429 1.495 . S
C1433 H1439 0.959 . S
C1433 H1440 0.961 . S
C1433 H1441 0.960 . S
C1434 C1432 1.381 . S
C1434 C1435 1.394 . S
C1434 H1442 0.930 . S
C1435 C1434 1.394 . S
C1435 C1436 1.383 . S
C1435 H1443 0.929 . S
C1436 C1435 1.383 . S
C1436 C1437 1.377 . S
C1437 H1421 0.930 . S
C1437 C1436 1.377 . S
C1437 C1438 1.379 . S
C1438 H1422 0.931 . S
C1438 C1432 1.383 . S
C1438 C1437 1.379 . S
H1439 C1433 0.959 . S
H1440 C1433 0.961 . S
H1441 C1433 0.960 . S
H1442 C1434 0.930 . S
H1443 C1435 0.929 . S
H1444 C1452 0.929 . S
H1445 C1454 0.930 . S
H1446 C1456 0.930 . S
H1447 C1459 0.929 . S
H1448 C1462 0.930 . S
H1449 C1464 0.960 . S
H1450 C1464 0.960 . S
H1451 C1464 0.960 . S
C1452 H1444 0.929 . S
C1452 C1453 1.377 . S
C1452 C1454 1.384 . S
C1453 C1452 1.377 . S
C1453 C1459 1.390 . S
C1454 H1445 0.930 . S
C1454 C1452 1.384 . S
C1454 C1455 1.372 . S
C1455 C1454 1.372 . S
C1455 C1456 1.400 . S
C1455 C1460 1.490 . S
C1456 H1446 0.930 . S
C1456 C1455 1.400 . S
C1456 C1459 1.386 . S
H1457 C1473 0.930 . S
H1458 C1474 0.931 . S
C1459 H1447 0.929 . S
C1459 C1453 1.390 . S
C1459 C1456 1.386 . S
C1460 C1455 1.490 . S
C1460 C1462 1.395 . S
C1460 C1463 1.403 . S
H1461 C1467 0.930 . S
C1462 H1448 0.930 . S
C1462 C1460 1.395 . S
C1462 C1465 1.403 . S
C1463 C1460 1.403 . S
C1463 C1464 1.524 . S
C1463 C1467 1.400 . S
C1464 H1449 0.960 . S
C1464 H1450 0.960 . S
C1464 H1451 0.960 . S
C1464 C1463 1.524 . S
C1465 C1462 1.403 . S
C1465 C1466 1.392 . S
C1465 C1469 1.495 . S
C1466 C1465 1.392 . S
C1466 C1467 1.385 . S
C1466 C1468 1.478 . S
C1467 H1461 0.930 . S
C1467 C1463 1.400 . S
C1467 C1466 1.385 . S
C1468 C1466 1.478 . S
C1468 C1470 1.381 . S
C1468 C1474 1.383 . S
C1469 C1465 1.495 . S
C1469 H1475 0.959 . S
C1469 H1476 0.961 . S
C1469 H1477 0.960 . S
C1470 C1468 1.381 . S
C1470 C1471 1.394 . S
C1470 H1478 0.930 . S
C1471 C1470 1.394 . S
C1471 C1472 1.383 . S
C1471 H1479 0.929 . S
C1472 C1471 1.383 . S
C1472 C1473 1.377 . S
C1473 H1457 0.930 . S
C1473 C1472 1.377 . S
C1473 C1474 1.379 . S
C1474 H1458 0.931 . S
C1474 C1468 1.383 . S
C1474 C1473 1.379 . S
H1475 C1469 0.959 . S
H1476 C1469 0.961 . S
H1477 C1469 0.960 . S
H1478 C1470 0.930 . S
H1479 C1471 0.929 . S
H1480 C1488 0.929 . S
H1481 C1490 0.930 . S
H1482 C1492 0.930 . S
H1483 C1495 0.929 . S
H1484 C1498 0.930 . S
H1485 C1500 0.960 . S
H1486 C1500 0.960 . S
H1487 C1500 0.960 . S
C1488 H1480 0.929 . S
C1488 C1489 1.377 . S
C1488 C1490 1.384 . S
C1489 C1488 1.377 . S
C1489 C1495 1.390 . S
C1490 H1481 0.930 . S
C1490 C1488 1.384 . S
C1490 C1491 1.372 . S
C1491 C1490 1.372 . S
C1491 C1492 1.400 . S
C1491 C1496 1.490 . S
C1492 H1482 0.930 . S
C1492 C1491 1.400 . S
C1492 C1495 1.386 . S
H1493 C1509 0.930 . S
H1494 C1510 0.931 . S
C1495 H1483 0.929 . S
C1495 C1489 1.390 . S
C1495 C1492 1.386 . S
C1496 C1491 1.490 . S
C1496 C1498 1.395 . S
C1496 C1499 1.403 . S
H1497 C1503 0.930 . S
C1498 H1484 0.930 . S
C1498 C1496 1.395 . S
C1498 C1501 1.403 . S
C1499 C1496 1.403 . S
C1499 C1500 1.524 . S
C1499 C1503 1.400 . S
C1500 H1485 0.960 . S
C1500 H1486 0.960 . S
C1500 H1487 0.960 . S
C1500 C1499 1.524 . S
C1501 C1498 1.403 . S
C1501 C1502 1.392 . S
C1501 C1505 1.495 . S
C1502 C1501 1.392 . S
C1502 C1503 1.385 . S
C1502 C1504 1.478 . S
C1503 H1497 0.930 . S
C1503 C1499 1.400 . S
C1503 C1502 1.385 . S
C1504 C1502 1.478 . S
C1504 C1506 1.381 . S
C1504 C1510 1.383 . S
C1505 C1501 1.495 . S
C1505 H1511 0.959 . S
C1505 H1512 0.961 . S
C1505 H1513 0.960 . S
C1506 C1504 1.381 . S
C1506 C1507 1.394 . S
C1506 H1514 0.930 . S
C1507 C1506 1.394 . S
C1507 C1508 1.383 . S
C1507 H1515 0.929 . S
C1508 C1507 1.383 . S
C1508 C1509 1.377 . S
C1509 H1493 0.930 . S
C1509 C1508 1.377 . S
C1509 C1510 1.379 . S
C1510 H1494 0.931 . S
C1510 C1504 1.383 . S
C1510 C1509 1.379 . S
H1511 C1505 0.959 . S
H1512 C1505 0.961 . S
H1513 C1505 0.960 . S
H1514 C1506 0.930 . S
H1515 C1507 0.929 . S
H1516 C1524 0.929 . S
H1517 C1526 0.930 . S
H1518 C1528 0.930 . S
H1519 C1531 0.929 . S
H1520 C1534 0.930 . S
H1521 C1536 0.960 . S
H1522 C1536 0.960 . S
H1523 C1536 0.960 . S
C1524 H1516 0.929 . S
C1524 C1525 1.377 . S
C1524 C1526 1.384 . S
C1525 C1524 1.377 . S
C1525 C1531 1.390 . S
C1526 H1517 0.930 . S
C1526 C1524 1.384 . S
C1526 C1527 1.372 . S
C1527 C1526 1.372 . S
C1527 C1528 1.400 . S
C1527 C1532 1.490 . S
C1528 H1518 0.930 . S
C1528 C1527 1.400 . S
C1528 C1531 1.386 . S
H1529 C1545 0.930 . S
H1530 C1546 0.931 . S
C1531 H1519 0.929 . S
C1531 C1525 1.390 . S
C1531 C1528 1.386 . S
C1532 C1527 1.490 . S
C1532 C1534 1.395 . S
C1532 C1535 1.403 . S
H1533 C1539 0.930 . S
C1534 H1520 0.930 . S
C1534 C1532 1.395 . S
C1534 C1537 1.403 . S
C1535 C1532 1.403 . S
C1535 C1536 1.524 . S
C1535 C1539 1.400 . S
C1536 H1521 0.960 . S
C1536 H1522 0.960 . S
C1536 H1523 0.960 . S
C1536 C1535 1.524 . S
C1537 C1534 1.403 . S
C1537 C1538 1.392 . S
C1537 C1541 1.495 . S
C1538 C1537 1.392 . S
C1538 C1539 1.385 . S
C1538 C1540 1.478 . S
C1539 H1533 0.930 . S
C1539 C1535 1.400 . S
C1539 C1538 1.385 . S
C1540 C1538 1.478 . S
C1540 C1542 1.381 . S
C1540 C1546 1.383 . S
C1541 C1537 1.495 . S
C1541 H1547 0.959 . S
C1541 H1548 0.961 . S
C1541 H1549 0.960 . S
C1542 C1540 1.381 . S
C1542 C1543 1.394 . S
C1542 H1550 0.930 . S
C1543 C1542 1.394 . S
C1543 C1544 1.383 . S
C1543 H1551 0.929 . S
C1544 C1543 1.383 . S
C1544 C1545 1.377 . S
C1545 H1529 0.930 . S
C1545 C1544 1.377 . S
C1545 C1546 1.379 . S
C1546 H1530 0.931 . S
C1546 C1540 1.383 . S
C1546 C1545 1.379 . S
H1547 C1541 0.959 . S
H1548 C1541 0.961 . S
H1549 C1541 0.960 . S
H1550 C1542 0.930 . S
H1551 C1543 0.929 . S
H1552 C1560 0.929 . S
H1553 C1562 0.930 . S
H1554 C1564 0.930 . S
H1555 C1567 0.929 . S
H1556 C1570 0.930 . S
H1557 C1572 0.960 . S
H1558 C1572 0.960 . S
H1559 C1572 0.960 . S
C1560 H1552 0.929 . S
C1560 C1561 1.377 . S
C1560 C1562 1.384 . S
C1561 C1560 1.377 . S
C1561 C1567 1.390 . S
C1562 H1553 0.930 . S
C1562 C1560 1.384 . S
C1562 C1563 1.372 . S
C1563 C1562 1.372 . S
C1563 C1564 1.400 . S
C1563 C1568 1.490 . S
C1564 H1554 0.930 . S
C1564 C1563 1.400 . S
C1564 C1567 1.386 . S
H1565 C1581 0.930 . S
H1566 C1582 0.931 . S
C1567 H1555 0.929 . S
C1567 C1561 1.390 . S
C1567 C1564 1.386 . S
C1568 C1563 1.490 . S
C1568 C1570 1.395 . S
C1568 C1571 1.403 . S
H1569 C1575 0.930 . S
C1570 H1556 0.930 . S
C1570 C1568 1.395 . S
C1570 C1573 1.403 . S
C1571 C1568 1.403 . S
C1571 C1572 1.524 . S
C1571 C1575 1.400 . S
C1572 H1557 0.960 . S
C1572 H1558 0.960 . S
C1572 H1559 0.960 . S
C1572 C1571 1.524 . S
C1573 C1570 1.403 . S
C1573 C1574 1.392 . S
C1573 C1577 1.495 . S
C1574 C1573 1.392 . S
C1574 C1575 1.385 . S
C1574 C1576 1.478 . S
C1575 H1569 0.930 . S
C1575 C1571 1.400 . S
C1575 C1574 1.385 . S
C1576 C1574 1.478 . S
C1576 C1578 1.381 . S
C1576 C1582 1.383 . S
C1577 C1573 1.495 . S
C1577 H1583 0.959 . S
C1577 H1584 0.961 . S
C1577 H1585 0.960 . S
C1578 C1576 1.381 . S
C1578 C1579 1.394 . S
C1578 H1586 0.930 . S
C1579 C1578 1.394 . S
C1579 C1580 1.383 . S
C1579 H1587 0.929 . S
C1580 C1579 1.383 . S
C1580 C1581 1.377 . S
C1581 H1565 0.930 . S
C1581 C1580 1.377 . S
C1581 C1582 1.379 . S
C1582 H1566 0.931 . S
C1582 C1576 1.383 . S
C1582 C1581 1.379 . S
H1583 C1577 0.959 . S
H1584 C1577 0.961 . S
H1585 C1577 0.960 . S
H1586 C1578 0.930 . S
H1587 C1579 0.929 . S
H1588 C1596 0.929 . S
H1589 C1598 0.930 . S
H1590 C1600 0.930 . S
H1591 C1603 0.929 . S
H1592 C1606 0.930 . S
H1593 C1608 0.960 . S
H1594 C1608 0.960 . S
H1595 C1608 0.960 . S
C1596 H1588 0.929 . S
C1596 C1597 1.377 . S
C1596 C1598 1.384 . S
C1597 C1596 1.377 . S
C1597 C1603 1.390 . S
C1598 H1589 0.930 . S
C1598 C1596 1.384 . S
C1598 C1599 1.372 . S
C1599 C1598 1.372 . S
C1599 C1600 1.400 . S
C1599 C1604 1.490 . S
C1600 H1590 0.930 . S
C1600 C1599 1.400 . S
C1600 C1603 1.386 . S
H1601 C1617 0.930 . S
H1602 C1618 0.931 . S
C1603 H1591 0.929 . S
C1603 C1597 1.390 . S
C1603 C1600 1.386 . S
C1604 C1599 1.490 . S
C1604 C1606 1.395 . S
C1604 C1607 1.403 . S
H1605 C1611 0.930 . S
C1606 H1592 0.930 . S
C1606 C1604 1.395 . S
C1606 C1609 1.403 . S
C1607 C1604 1.403 . S
C1607 C1608 1.524 . S
C1607 C1611 1.400 . S
C1608 H1593 0.960 . S
C1608 H1594 0.960 . S
C1608 H1595 0.960 . S
C1608 C1607 1.524 . S
C1609 C1606 1.403 . S
C1609 C1610 1.392 . S
C1609 C1613 1.495 . S
C1610 C1609 1.392 . S
C1610 C1611 1.385 . S
C1610 C1612 1.478 . S
C1611 H1605 0.930 . S
C1611 C1607 1.400 . S
C1611 C1610 1.385 . S
C1612 C1610 1.478 . S
C1612 C1614 1.381 . S
C1612 C1618 1.383 . S
C1613 C1609 1.495 . S
C1613 H1619 0.959 . S
C1613 H1620 0.961 . S
C1613 H1621 0.960 . S
C1614 C1612 1.381 . S
C1614 C1615 1.394 . S
C1614 H1622 0.930 . S
C1615 C1614 1.394 . S
C1615 C1616 1.383 . S
C1615 H1623 0.929 . S
C1616 C1615 1.383 . S
C1616 C1617 1.377 . S
C1617 H1601 0.930 . S
C1617 C1616 1.377 . S
C1617 C1618 1.379 . S
C1618 H1602 0.931 . S
C1618 C1612 1.383 . S
C1618 C1617 1.379 . S
H1619 C1613 0.959 . S
H1620 C1613 0.961 . S
H1621 C1613 0.960 . S
H1622 C1614 0.930 . S
H1623 C1615 0.929 . S
H1624 C1632 0.929 . S
H1625 C1634 0.930 . S
H1626 C1636 0.930 . S
H1627 C1639 0.929 . S
H1628 C1642 0.930 . S
H1629 C1644 0.960 . S
H1630 C1644 0.960 . S
H1631 C1644 0.960 . S
C1632 H1624 0.929 . S
C1632 C1633 1.377 . S
C1632 C1634 1.384 . S
C1633 C1632 1.377 . S
C1633 C1639 1.390 . S
C1634 H1625 0.930 . S
C1634 C1632 1.384 . S
C1634 C1635 1.372 . S
C1635 C1634 1.372 . S
C1635 C1636 1.400 . S
C1635 C1640 1.490 . S
C1636 H1626 0.930 . S
C1636 C1635 1.400 . S
C1636 C1639 1.386 . S
H1637 C1653 0.930 . S
H1638 C1654 0.931 . S
C1639 H1627 0.929 . S
C1639 C1633 1.390 . S
C1639 C1636 1.386 . S
C1640 C1635 1.490 . S
C1640 C1642 1.395 . S
C1640 C1643 1.403 . S
H1641 C1647 0.930 . S
C1642 H1628 0.930 . S
C1642 C1640 1.395 . S
C1642 C1645 1.403 . S
C1643 C1640 1.403 . S
C1643 C1644 1.524 . S
C1643 C1647 1.400 . S
C1644 H1629 0.960 . S
C1644 H1630 0.960 . S
C1644 H1631 0.960 . S
C1644 C1643 1.524 . S
C1645 C1642 1.403 . S
C1645 C1646 1.392 . S
C1645 C1649 1.495 . S
C1646 C1645 1.392 . S
C1646 C1647 1.385 . S
C1646 C1648 1.478 . S
C1647 H1641 0.930 . S
C1647 C1643 1.400 . S
C1647 C1646 1.385 . S
C1648 C1646 1.478 . S
C1648 C1650 1.381 . S
C1648 C1654 1.383 . S
C1649 C1645 1.495 . S
C1649 H1655 0.959 . S
C1649 H1656 0.961 . S
C1649 H1657 0.960 . S
C1650 C1648 1.381 . S
C1650 C1651 1.394 . S
C1650 H1658 0.930 . S
C1651 C1650 1.394 . S
C1651 C1652 1.383 . S
C1651 H1659 0.929 . S
C1652 C1651 1.383 . S
C1652 C1653 1.377 . S
C1653 H1637 0.930 . S
C1653 C1652 1.377 . S
C1653 C1654 1.379 . S
C1654 H1638 0.931 . S
C1654 C1648 1.383 . S
C1654 C1653 1.379 . S
H1655 C1649 0.959 . S
H1656 C1649 0.961 . S
H1657 C1649 0.960 . S
H1658 C1650 0.930 . S
H1659 C1651 0.929 . S
H1660 C1668 0.929 . S
H1661 C1670 0.930 . S
H1662 C1672 0.930 . S
H1663 C1675 0.929 . S
H1664 C1678 0.930 . S
H1665 C1680 0.960 . S
H1666 C1680 0.960 . S
H1667 C1680 0.960 . S
C1668 H1660 0.929 . S
C1668 C1669 1.377 . S
C1668 C1670 1.384 . S
C1669 C1668 1.377 . S
C1669 C1675 1.390 . S
C1670 H1661 0.930 . S
C1670 C1668 1.384 . S
C1670 C1671 1.372 . S
C1671 C1670 1.372 . S
C1671 C1672 1.400 . S
C1671 C1676 1.490 . S
C1672 H1662 0.930 . S
C1672 C1671 1.400 . S
C1672 C1675 1.386 . S
H1673 C1689 0.930 . S
H1674 C1690 0.931 . S
C1675 H1663 0.929 . S
C1675 C1669 1.390 . S
C1675 C1672 1.386 . S
C1676 C1671 1.490 . S
C1676 C1678 1.395 . S
C1676 C1679 1.403 . S
H1677 C1683 0.930 . S
C1678 H1664 0.930 . S
C1678 C1676 1.395 . S
C1678 C1681 1.403 . S
C1679 C1676 1.403 . S
C1679 C1680 1.524 . S
C1679 C1683 1.400 . S
C1680 H1665 0.960 . S
C1680 H1666 0.960 . S
C1680 H1667 0.960 . S
C1680 C1679 1.524 . S
C1681 C1678 1.403 . S
C1681 C1682 1.392 . S
C1681 C1685 1.495 . S
C1682 C1681 1.392 . S
C1682 C1683 1.385 . S
C1682 C1684 1.478 . S
C1683 H1677 0.930 . S
C1683 C1679 1.400 . S
C1683 C1682 1.385 . S
C1684 C1682 1.478 . S
C1684 C1686 1.381 . S
C1684 C1690 1.383 . S
C1685 C1681 1.495 . S
C1685 H1691 0.959 . S
C1685 H1692 0.961 . S
C1685 H1693 0.960 . S
C1686 C1684 1.381 . S
C1686 C1687 1.394 . S
C1686 H1694 0.930 . S
C1687 C1686 1.394 . S
C1687 C1688 1.383 . S
C1687 H1695 0.929 . S
C1688 C1687 1.383 . S
C1688 C1689 1.377 . S
C1689 H1673 0.930 . S
C1689 C1688 1.377 . S
C1689 C1690 1.379 . S
C1690 H1674 0.931 . S
C1690 C1684 1.383 . S
C1690 C1689 1.379 . S
H1691 C1685 0.959 . S
H1692 C1685 0.961 . S
H1693 C1685 0.960 . S
H1694 C1686 0.930 . S
H1695 C1687 0.929 . S
H1696 C1704 0.929 . S
H1697 C1706 0.930 . S
H1698 C1708 0.930 . S
H1699 C1711 0.929 . S
H1700 C1714 0.930 1_565 S
H1701 C1716 0.960 . S
H1702 C1716 0.960 . S
H1703 C1716 0.960 . S
C1704 H1696 0.929 . S
C1704 C1705 1.377 . S
C1704 C1706 1.384 . S
C1705 C1704 1.377 . S
C1705 C1711 1.390 . S
C1706 H1697 0.930 . S
C1706 C1704 1.384 . S
C1706 C1707 1.372 . S
C1707 C1706 1.372 . S
C1707 C1708 1.400 . S
C1707 C1712 1.490 . S
C1708 H1698 0.930 . S
C1708 C1707 1.400 . S
C1708 C1711 1.386 . S
H1709 C1725 0.930 . S
H1710 C1726 0.931 . S
C1711 H1699 0.929 . S
C1711 C1705 1.390 . S
C1711 C1708 1.386 . S
C1712 C1707 1.490 . S
C1712 C1714 1.395 . S
C1712 C1715 1.403 . S
H1713 C1719 0.930 . S
C1714 H1700 0.930 1_545 S
C1714 C1712 1.395 . S
C1714 C1717 1.404 1_545 S
C1715 C1712 1.403 . S
C1715 C1716 1.524 . S
C1715 C1719 1.400 . S
C1716 H1701 0.960 . S
C1716 H1702 0.960 . S
C1716 H1703 0.960 . S
C1716 C1715 1.524 . S
C1717 C1714 1.404 1_565 S
C1717 C1718 1.395 1_565 S
C1717 C1721 1.492 . S
C1718 C1717 1.395 1_545 S
C1718 C1719 1.385 . S
C1718 C1720 1.478 . S
C1719 H1713 0.930 . S
C1719 C1715 1.400 . S
C1719 C1718 1.385 . S
C1720 C1718 1.478 . S
C1720 C1722 1.381 . S
C1720 C1726 1.383 . S
C1721 C1717 1.492 . S
C1721 H1727 0.959 . S
C1721 H1728 0.961 . S
C1721 H1729 0.960 . S
C1722 C1720 1.381 . S
C1722 C1723 1.394 . S
C1722 H1730 0.930 . S
C1723 C1722 1.394 . S
C1723 C1724 1.383 . S
C1723 H1731 0.929 . S
C1724 C1723 1.383 . S
C1724 C1725 1.377 . S
C1725 H1709 0.930 . S
C1725 C1724 1.377 . S
C1725 C1726 1.379 . S
C1726 H1710 0.931 . S
C1726 C1720 1.383 . S
C1726 C1725 1.379 . S
H1727 C1721 0.959 . S
H1728 C1721 0.961 . S
H1729 C1721 0.960 . S
H1730 C1722 0.930 . S
H1731 C1723 0.929 . S
H1732 C1740 0.929 . S
H1733 C1742 0.930 . S
H1734 C1744 0.930 . S
H1735 C1747 0.929 . S
H1736 C1750 0.930 . S
H1737 C1752 0.960 . S
H1738 C1752 0.960 . S
H1739 C1752 0.960 . S
C1740 H1732 0.929 . S
C1740 C1741 1.377 . S
C1740 C1742 1.384 . S
C1741 C1740 1.377 . S
C1741 C1747 1.390 . S
C1742 H1733 0.930 . S
C1742 C1740 1.384 . S
C1742 C1743 1.372 . S
C1743 C1742 1.372 . S
C1743 C1744 1.400 . S
C1743 C1748 1.490 . S
C1744 H1734 0.930 . S
C1744 C1743 1.400 . S
C1744 C1747 1.386 . S
H1745 C1761 0.930 . S
H1746 C1762 0.931 . S
C1747 H1735 0.929 . S
C1747 C1741 1.390 . S
C1747 C1744 1.386 . S
C1748 C1743 1.490 . S
C1748 C1750 1.395 . S
C1748 C1751 1.403 . S
H1749 C1755 0.930 . S
C1750 H1736 0.930 . S
C1750 C1748 1.395 . S
C1750 C1753 1.403 . S
C1751 C1748 1.403 . S
C1751 C1752 1.524 . S
C1751 C1755 1.400 . S
C1752 H1737 0.960 . S
C1752 H1738 0.960 . S
C1752 H1739 0.960 . S
C1752 C1751 1.524 . S
C1753 C1750 1.403 . S
C1753 C1754 1.392 . S
C1753 C1757 1.495 . S
C1754 C1753 1.392 . S
C1754 C1755 1.385 . S
C1754 C1756 1.478 . S
C1755 H1749 0.930 . S
C1755 C1751 1.400 . S
C1755 C1754 1.385 . S
C1756 C1754 1.478 . S
C1756 C1758 1.381 . S
C1756 C1762 1.383 . S
C1757 C1753 1.495 . S
C1757 H1763 0.959 . S
C1757 H1764 0.961 . S
C1757 H1765 0.960 . S
C1758 C1756 1.381 . S
C1758 C1759 1.394 . S
C1758 H1766 0.930 . S
C1759 C1758 1.394 . S
C1759 C1760 1.383 . S
C1759 H1767 0.929 . S
C1760 C1759 1.383 . S
C1760 C1761 1.377 . S
C1761 H1745 0.930 . S
C1761 C1760 1.377 . S
C1761 C1762 1.379 . S
C1762 H1746 0.931 . S
C1762 C1756 1.383 . S
C1762 C1761 1.379 . S
H1763 C1757 0.959 . S
H1764 C1757 0.961 . S
H1765 C1757 0.960 . S
H1766 C1758 0.930 . S
H1767 C1759 0.929 . S
H1768 C1776 0.929 . S
H1769 C1778 0.930 . S
H1770 C1780 0.930 . S
H1771 C1783 0.929 . S
H1772 C1786 0.930 . S
H1773 C1788 0.960 . S
H1774 C1788 0.960 . S
H1775 C1788 0.960 . S
C1776 H1768 0.929 . S
C1776 C1777 1.377 . S
C1776 C1778 1.384 . S
C1777 C1776 1.377 . S
C1777 C1783 1.390 . S
C1778 H1769 0.930 . S
C1778 C1776 1.384 . S
C1778 C1779 1.372 . S
C1779 C1778 1.372 . S
C1779 C1780 1.400 . S
C1779 C1784 1.490 . S
C1780 H1770 0.930 . S
C1780 C1779 1.400 . S
C1780 C1783 1.386 . S
H1781 C1797 0.930 . S
H1782 C1798 0.931 . S
C1783 H1771 0.929 . S
C1783 C1777 1.390 . S
C1783 C1780 1.386 . S
C1784 C1779 1.490 . S
C1784 C1786 1.395 . S
C1784 C1787 1.403 . S
H1785 C1791 0.930 . S
C1786 H1772 0.930 . S
C1786 C1784 1.395 . S
C1786 C1789 1.403 . S
C1787 C1784 1.403 . S
C1787 C1788 1.524 . S
C1787 C1791 1.400 . S
C1788 H1773 0.960 . S
C1788 H1774 0.960 . S
C1788 H1775 0.960 . S
C1788 C1787 1.524 . S
C1789 C1786 1.403 . S
C1789 C1790 1.392 . S
C1789 C1793 1.495 . S
C1790 C1789 1.392 . S
C1790 C1791 1.385 . S
C1790 C1792 1.478 . S
C1791 H1785 0.930 . S
C1791 C1787 1.400 . S
C1791 C1790 1.385 . S
C1792 C1790 1.478 . S
C1792 C1794 1.381 . S
C1792 C1798 1.383 . S
C1793 C1789 1.495 . S
C1793 H1799 0.959 . S
C1793 H1800 0.961 . S
C1793 H1801 0.960 . S
C1794 C1792 1.381 . S
C1794 C1795 1.394 . S
C1794 H1802 0.930 . S
C1795 C1794 1.394 . S
C1795 C1796 1.383 . S
C1795 H1803 0.929 . S
C1796 C1795 1.383 . S
C1796 C1797 1.377 . S
C1797 H1781 0.930 . S
C1797 C1796 1.377 . S
C1797 C1798 1.379 . S
C1798 H1782 0.931 . S
C1798 C1792 1.383 . S
C1798 C1797 1.379 . S
H1799 C1793 0.959 . S
H1800 C1793 0.961 . S
H1801 C1793 0.960 . S
H1802 C1794 0.930 . S
H1803 C1795 0.929 . S
H1804 C1812 0.929 . S
H1805 C1814 0.930 . S
H1806 C1816 0.924 1_655 S
H1807 C1819 0.916 1_655 S
H1808 C1822 0.930 . S
H1809 C1824 0.942 1_655 S
H1810 C1824 0.998 . S
H1811 C1824 0.924 1_655 S
C1812 H1804 0.929 . S
C1812 C1813 1.377 . S
C1812 C1814 1.384 . S
C1813 C1812 1.377 . S
C1813 C1819 1.403 . S
C1814 H1805 0.930 . S
C1814 C1812 1.384 . S
C1814 C1815 1.372 . S
C1815 C1814 1.372 . S
C1815 C1816 1.405 . S
C1815 C1820 1.490 . S
C1816 H1806 0.924 1_455 S
C1816 C1815 1.405 . S
C1816 C1819 1.385 . S
H1817 C1833 0.930 . S
H1818 C1834 0.931 . S
C1819 H1807 0.916 1_455 S
C1819 C1813 1.403 . S
C1819 C1816 1.385 . S
C1820 C1815 1.490 . S
C1820 C1822 1.395 . S
C1820 C1823 1.403 . S
H1821 C1827 0.930 . S
C1822 H1808 0.930 . S
C1822 C1820 1.395 . S
C1822 C1825 1.403 . S
C1823 C1820 1.403 . S
C1823 C1824 1.543 . S
C1823 C1827 1.400 . S
C1824 H1809 0.942 1_455 S
C1824 H1810 0.998 . S
C1824 H1811 0.924 1_455 S
C1824 C1823 1.543 . S
C1825 C1822 1.403 . S
C1825 C1826 1.392 . S
C1825 C1829 1.495 . S
C1826 C1825 1.392 . S
C1826 C1827 1.385 . S
C1826 C1828 1.478 . S
C1827 H1821 0.930 . S
C1827 C1823 1.400 . S
C1827 C1826 1.385 . S
C1828 C1826 1.478 . S
C1828 C1830 1.381 . S
C1828 C1834 1.383 1_455 S
C1829 C1825 1.495 . S
C1829 H1835 0.959 . S
C1829 H1836 0.961 . S
C1829 H1837 0.960 . S
C1830 C1828 1.381 . S
C1830 C1831 1.394 . S
C1830 H1838 0.930 . S
C1831 C1830 1.394 . S
C1831 C1832 1.383 . S
C1831 H1839 0.929 . S
C1832 C1831 1.383 . S
C1832 C1833 1.377 1_455 S
C1833 H1817 0.930 . S
C1833 C1832 1.377 1_655 S
C1833 C1834 1.379 . S
C1834 H1818 0.931 . S
C1834 C1828 1.383 1_655 S
C1834 C1833 1.379 . S
H1835 C1829 0.959 . S
H1836 C1829 0.961 . S
H1837 C1829 0.960 . S
H1838 C1830 0.930 . S
H1839 C1831 0.929 . S
H1840 C1848 0.915 1_545 S
H1841 C1850 0.930 1_545 S
H1842 C1852 0.930 . S
H1843 C1855 0.929 . S
H1844 C1858 0.938 . S
H1845 C1860 0.960 . S
H1846 C1860 0.960 . S
H1847 C1860 0.960 . S
C1848 H1840 0.915 1_565 S
C1848 C1849 1.377 . S
C1848 C1850 1.384 . S
C1849 C1848 1.377 . S
C1849 C1855 1.390 . S
C1850 H1841 0.930 1_565 S
C1850 C1848 1.384 . S
C1850 C1851 1.372 . S
C1851 C1850 1.372 . S
C1851 C1852 1.400 . S
C1851 C1856 1.490 . S
C1852 H1842 0.930 . S
C1852 C1851 1.400 . S
C1852 C1855 1.386 . S
H1853 C1869 0.930 . S
H1854 C1870 0.931 . S
C1855 H1843 0.929 . S
C1855 C1849 1.390 . S
C1855 C1852 1.386 . S
C1856 C1851 1.490 . S
C1856 C1858 1.395 . S
C1856 C1859 1.403 . S
H1857 C1863 0.930 . S
C1858 H1844 0.938 . S
C1858 C1856 1.395 . S
C1858 C1861 1.403 . S
C1859 C1856 1.403 . S
C1859 C1860 1.524 . S
C1859 C1863 1.400 . S
C1860 H1845 0.960 . S
C1860 H1846 0.960 . S
C1860 H1847 0.960 . S
C1860 C1859 1.524 . S
C1861 C1858 1.403 . S
C1861 C1862 1.392 . S
C1861 C1865 1.495 1_565 S
C1862 C1861 1.392 . S
C1862 C1863 1.385 . S
C1862 C1864 1.478 . S
C1863 H1857 0.930 . S
C1863 C1859 1.400 . S
C1863 C1862 1.385 . S
C1864 C1862 1.478 . S
C1864 C1866 1.381 . S
C1864 C1870 1.383 . S
C1865 C1861 1.495 1_545 S
C1865 H1871 0.959 . S
C1865 H1872 0.961 . S
C1865 H1873 0.960 . S
C1866 C1864 1.381 . S
C1866 C1867 1.394 . S
C1866 H1874 0.930 1_565 S
C1867 C1866 1.394 . S
C1867 C1868 1.383 . S
C1867 H1875 0.916 1_565 S
C1868 C1867 1.383 . S
C1868 C1869 1.377 . S
C1869 H1853 0.930 . S
C1869 C1868 1.377 . S
C1869 C1870 1.379 . S
C1870 H1854 0.931 . S
C1870 C1864 1.383 . S
C1870 C1869 1.379 . S
H1871 C1865 0.959 . S
H1872 C1865 0.961 . S
H1873 C1865 0.960 . S
H1874 C1866 0.930 1_545 S
H1875 C1867 0.916 1_545 S
H1876 C1884 0.929 . S
H1877 C1886 0.930 . S
H1878 C1888 0.930 . S
H1879 C1891 0.929 . S
H1880 C1894 0.930 . S
H1881 C1896 0.960 . S
H1882 C1896 0.960 . S
H1883 C1896 0.960 . S
C1884 H1876 0.929 . S
C1884 C1885 1.377 . S
C1884 C1886 1.384 . S
C1885 C1884 1.377 . S
C1885 C1891 1.390 . S
C1886 H1877 0.930 . S
C1886 C1884 1.384 . S
C1886 C1887 1.372 . S
C1887 C1886 1.372 . S
C1887 C1888 1.400 . S
C1887 C1892 1.490 . S
C1888 H1878 0.930 . S
C1888 C1887 1.400 . S
C1888 C1891 1.386 . S
H1889 C1905 0.930 . S
H1890 C1906 0.931 . S
C1891 H1879 0.929 . S
C1891 C1885 1.390 . S
C1891 C1888 1.386 . S
C1892 C1887 1.490 . S
C1892 C1894 1.395 . S
C1892 C1895 1.403 . S
H1893 C1899 0.930 . S
C1894 H1880 0.930 . S
C1894 C1892 1.395 . S
C1894 C1897 1.403 . S
C1895 C1892 1.403 . S
C1895 C1896 1.524 . S
C1895 C1899 1.400 . S
C1896 H1881 0.960 . S
C1896 H1882 0.960 . S
C1896 H1883 0.960 . S
C1896 C1895 1.524 . S
C1897 C1894 1.403 . S
C1897 C1898 1.392 . S
C1897 C1901 1.495 . S
C1898 C1897 1.392 . S
C1898 C1899 1.385 . S
C1898 C1900 1.478 . S
C1899 H1893 0.930 . S
C1899 C1895 1.400 . S
C1899 C1898 1.385 . S
C1900 C1898 1.478 . S
C1900 C1902 1.381 . S
C1900 C1906 1.383 . S
C1901 C1897 1.495 . S
C1901 H1907 0.959 . S
C1901 H1908 0.961 . S
C1901 H1909 0.960 . S
C1902 C1900 1.381 . S
C1902 C1903 1.394 . S
C1902 H1910 0.930 . S
C1903 C1902 1.394 . S
C1903 C1904 1.383 . S
C1903 H1911 0.929 . S
C1904 C1903 1.383 . S
C1904 C1905 1.377 . S
C1905 H1889 0.930 . S
C1905 C1904 1.377 . S
C1905 C1906 1.379 . S
C1906 H1890 0.931 . S
C1906 C1900 1.383 . S
C1906 C1905 1.379 . S
H1907 C1901 0.959 . S
H1908 C1901 0.961 . S
H1909 C1901 0.960 . S
H1910 C1902 0.930 . S
H1911 C1903 0.929 . S
H1912 C1920 0.929 . S
H1913 C1922 0.930 . S
H1914 C1924 0.930 . S
H1915 C1927 0.929 . S
H1916 C1930 0.930 . S
H1917 C1932 0.960 . S
H1918 C1932 0.960 . S
H1919 C1932 0.960 . S
C1920 H1912 0.929 . S
C1920 C1921 1.377 . S
C1920 C1922 1.384 . S
C1921 C1920 1.377 . S
C1921 C1927 1.390 . S
C1922 H1913 0.930 . S
C1922 C1920 1.384 . S
C1922 C1923 1.372 . S
C1923 C1922 1.372 . S
C1923 C1924 1.400 . S
C1923 C1928 1.490 . S
C1924 H1914 0.930 . S
C1924 C1923 1.400 . S
C1924 C1927 1.386 . S
H1925 C1941 0.930 . S
H1926 C1942 0.931 . S
C1927 H1915 0.929 . S
C1927 C1921 1.390 . S
C1927 C1924 1.386 . S
C1928 C1923 1.490 . S
C1928 C1930 1.395 . S
C1928 C1931 1.403 . S
H1929 C1935 0.930 . S
C1930 H1916 0.930 . S
C1930 C1928 1.395 . S
C1930 C1933 1.403 . S
C1931 C1928 1.403 . S
C1931 C1932 1.524 . S
C1931 C1935 1.400 . S
C1932 H1917 0.960 . S
C1932 H1918 0.960 . S
C1932 H1919 0.960 . S
C1932 C1931 1.524 . S
C1933 C1930 1.403 . S
C1933 C1934 1.392 . S
C1933 C1937 1.495 . S
C1934 C1933 1.392 . S
C1934 C1935 1.385 . S
C1934 C1936 1.478 . S
C1935 H1929 0.930 . S
C1935 C1931 1.400 . S
C1935 C1934 1.385 . S
C1936 C1934 1.478 . S
C1936 C1938 1.381 . S
C1936 C1942 1.383 . S
C1937 C1933 1.495 . S
C1937 H1943 0.959 . S
C1937 H1944 0.961 . S
C1937 H1945 0.960 . S
C1938 C1936 1.381 . S
C1938 C1939 1.394 . S
C1938 H1946 0.930 . S
C1939 C1938 1.394 . S
C1939 C1940 1.383 . S
C1939 H1947 0.929 . S
C1940 C1939 1.383 . S
C1940 C1941 1.377 . S
C1941 H1925 0.930 . S
C1941 C1940 1.377 . S
C1941 C1942 1.379 . S
C1942 H1926 0.931 . S
C1942 C1936 1.383 . S
C1942 C1941 1.379 . S
H1943 C1937 0.959 . S
H1944 C1937 0.961 . S
H1945 C1937 0.960 . S
H1946 C1938 0.930 . S
H1947 C1939 0.929 . S
H1948 C1956 0.929 1_455 S
H1949 C1958 0.930 1_455 S
H1950 C1960 0.930 . S
H1951 C1963 0.929 . S
H1952 C1966 0.930 . S
H1953 C1968 0.960 . S
H1954 C1968 0.960 . S
H1955 C1968 0.960 . S
C1956 H1948 0.929 1_655 S
C1956 C1957 1.377 . S
C1956 C1958 1.384 . S
C1957 C1956 1.377 . S
C1957 C1963 1.390 . S
C1958 H1949 0.930 1_655 S
C1958 C1956 1.384 . S
C1958 C1959 1.372 . S
C1959 C1958 1.372 . S
C1959 C1960 1.400 . S
C1959 C1964 1.490 . S
C1960 H1950 0.930 . S
C1960 C1959 1.400 . S
C1960 C1963 1.386 . S
H1961 C1977 0.930 . S
H1962 C1978 0.931 . S
C1963 H1951 0.929 . S
C1963 C1957 1.390 . S
C1963 C1960 1.386 . S
C1964 C1959 1.490 . S
C1964 C1966 1.395 . S
C1964 C1967 1.403 . S
H1965 C1971 0.930 . S
C1966 H1952 0.930 . S
C1966 C1964 1.395 . S
C1966 C1969 1.403 . S
C1967 C1964 1.403 . S
C1967 C1968 1.524 . S
C1967 C1971 1.400 . S
C1968 H1953 0.960 . S
C1968 H1954 0.960 . S
C1968 H1955 0.960 . S
C1968 C1967 1.524 . S
C1969 C1966 1.403 . S
C1969 C1970 1.392 . S
C1969 C1973 1.495 1_655 S
C1970 C1969 1.392 . S
C1970 C1971 1.385 . S
C1970 C1972 1.478 . S
C1971 H1965 0.930 . S
C1971 C1967 1.400 . S
C1971 C1970 1.385 . S
C1972 C1970 1.478 . S
C1972 C1974 1.381 . S
C1972 C1978 1.383 . S
C1973 C1969 1.495 1_455 S
C1973 H1979 0.959 . S
C1973 H1980 0.961 1_455 S
C1973 H1981 0.960 . S
C1974 C1972 1.381 . S
C1974 C1975 1.394 . S
C1974 H1982 0.930 1_655 S
C1975 C1974 1.394 . S
C1975 C1976 1.383 . S
C1975 H1983 0.929 1_655 S
C1976 C1975 1.383 . S
C1976 C1977 1.377 . S
C1977 H1961 0.930 . S
C1977 C1976 1.377 . S
C1977 C1978 1.379 . S
C1978 H1962 0.931 . S
C1978 C1972 1.383 . S
C1978 C1977 1.379 . S
H1979 C1973 0.959 . S
H1980 C1973 0.961 1_655 S
H1981 C1973 0.960 . S
H1982 C1974 0.930 1_455 S
H1983 C1975 0.929 1_455 S
C553 C277 0.645 . S
C572 C5 0.622 . S
C589 C39 0.813 . S
C608 C311 0.829 . S
C625 C345 0.672 . S
C644 C73 0.630 . S
C661 C379 0.466 . S
C680 C122 0.312 . S
C697 C141 0.634 . S
C716 C413 0.692 . S
C733 C175 0.824 . S
C752 C447 0.874 . S
C769 C209 0.540 . S
C788 C481 0.638 . S
C805 C243 0.489 . S
C824 C515 0.576 . S
C841 C33 1.607 . S
C860 C530 1.563 1_554 S
C877 C67 1.460 . S
C896 C428 1.434 . S
C913 C101 1.510 . S
C932 C462 1.452 . S
C949 C496 1.334 . S
C968 C135 1.402 . S
C985 C169 1.419 . S
C1004 C326 1.395 . S
C1021 C203 1.420 . S
C1040 C360 1.397 . S
C1057 C394 1.614 1_556 S
C1076 C237 1.664 . S
C1093 C271 1.508 . S
C1112 C292 1.467 . S
C1129 C258 1.432 . S
C1148 C305 1.474 . S
C1165 C156 1.407 . S
C1184 C339 1.444 . S
C1201 C190 1.371 1_556 S
C1220 C373 1.431 . S
C1237 C407 1.090 . S
C1256 C224 1.094 . S
C1273 C54 1.360 1_554 S
C1292 C441 1.402 . S
C1309 C475 1.427 . S
C1328 C88 1.407 . S
C1345 C111 0.868 . S
C1364 C509 0.936 . S
C1381 C20 1.453 . S
C1400 C543 1.493 . S
C1417 C240 1.682 . S
C1436 C2 1.693 . S
C1453 C138 1.647 1_545 S
C1472 C36 1.626 . S
C1489 C70 1.623 . S
C1508 C172 1.612 . S
C1525 C206 1.110 . S
C1544 C107 1.117 . S
C1561 C512 1.770 . S
C1580 C274 1.763 . S
C1597 C308 1.662 . S
C1616 C410 1.659 . S
C1633 C342 1.618 . S
C1652 C444 1.607 . S
C1669 C376 1.895 1_455 S
C1688 C478 1.894 . S
C1705 C9 1.122 . S
C1724 C417 1.149 . S
C1741 C43 0.830 . S
C1760 C451 0.764 . S
C1777 C77 1.025 . S
C1796 C485 1.089 . S
C1813 C104 1.270 . S
C1832 C519 1.205 . S
C1849 C145 1.120 . S
C1868 C281 1.137 . S
C1885 C179 0.863 . S
C1904 C315 0.816 . S
C1921 C213 1.046 . S
C1940 C349 1.025 . S
C1957 C383 1.381 . S
C1976 C247 1.385 . S
