# Generated by pormake.
# Topology xfu, (5)-cn, num edge types: 1
# Building blocks:
#     Node 0, Type 0, BuildingBlock: XOMCOT_clean_sbu_1, # of connection points: 5
#     Node 1, Type 0, BuildingBlock: XOMCOT_clean_sbu_1, # of connection points: 5
#     Node 2, Type 0, BuildingBlock: XOMCOT_clean_sbu_1, # of connection points: 5
#     Node 3, Type 0, BuildingBlock: XOMCOT_clean_sbu_1, # of connection points: 5
#     Node 4, Type 0, BuildingBlock: XOMCOT_clean_sbu_1, # of connection points: 5
#     Node 5, Type 0, BuildingBlock: XOMCOT_clean_sbu_1, # of connection points: 5
#     Node 6, Type 0, BuildingBlock: XOMCOT_clean_sbu_1, # of connection points: 5
#     Node 7, Type 0, BuildingBlock: XOMCOT_clean_sbu_1, # of connection points: 5
#     Edge 8, Type (0, 0), BuildingBlock: CIFDUS_clean_linker_0, # of connection points: 2
#     Edge 9, Type (0, 0), BuildingBlock: CIFDUS_clean_linker_0, # of connection points: 2
#     Edge 10, Type (0, 0), BuildingBlock: CIFDUS_clean_linker_0, # of connection points: 2
#     Edge 11, Type (0, 0), BuildingBlock: CIFDUS_clean_linker_0, # of connection points: 2
#     Edge 12, Type (0, 0), BuildingBlock: CIFDUS_clean_linker_0, # of connection points: 2
#     Edge 13, Type (0, 0), BuildingBlock: CIFDUS_clean_linker_0, # of connection points: 2
#     Edge 14, Type (0, 0), BuildingBlock: CIFDUS_clean_linker_0, # of connection points: 2
#     Edge 15, Type (0, 0), BuildingBlock: CIFDUS_clean_linker_0, # of connection points: 2
#     Edge 16, Type (0, 0), BuildingBlock: CIFDUS_clean_linker_0, # of connection points: 2
#     Edge 17, Type (0, 0), BuildingBlock: CIFDUS_clean_linker_0, # of connection points: 2
#     Edge 18, Type (0, 0), BuildingBlock: CIFDUS_clean_linker_0, # of connection points: 2
#     Edge 19, Type (0, 0), BuildingBlock: CIFDUS_clean_linker_0, # of connection points: 2
#     Edge 20, Type (0, 0), BuildingBlock: CIFDUS_clean_linker_0, # of connection points: 2
#     Edge 21, Type (0, 0), BuildingBlock: CIFDUS_clean_linker_0, # of connection points: 2
#     Edge 22, Type (0, 0), BuildingBlock: CIFDUS_clean_linker_0, # of connection points: 2
#     Edge 23, Type (0, 0), BuildingBlock: CIFDUS_clean_linker_0, # of connection points: 2
#     Edge 24, Type (0, 0), BuildingBlock: CIFDUS_clean_linker_0, # of connection points: 2
#     Edge 25, Type (0, 0), BuildingBlock: CIFDUS_clean_linker_0, # of connection points: 2
#     Edge 26, Type (0, 0), BuildingBlock: CIFDUS_clean_linker_0, # of connection points: 2
#     Edge 27, Type (0, 0), BuildingBlock: CIFDUS_clean_linker_0, # of connection points: 2
# Relax obj value: 0.501
# Max RMSD: 0.275
# Mean RMSD: 0.275
data_MOF--net-xfu--node1-XOMCOT_clean_sbu_1--edge1-CIFDUS_clean_linker_0
_symmetry_space_group_name_H-M    P1
_symmetry_Int_Tables_number       1
_symmetry_cell_setting            triclinic
loop_
_symmetry_equiv_pos_as_xyz
'x, y, z'
_cell_length_a     25.505918
_cell_length_b     25.466334
_cell_length_c     47.276121
_cell_angle_alpha  90.047027
_cell_angle_beta   89.973538
_cell_angle_gamma 89.98147
loop_
_atom_site_label
_atom_site_type_symbol
_atom_site_fract_x
_atom_site_fract_y
_atom_site_fract_z
_atom_type_partial_charge
C0 C 0.96353 0.32003 0.64319 0.0
C1 C 0.96873 0.35749 0.66394 0.0
N2 N 0.01913 0.37307 0.66463 0.0
N3 N 0.01062 0.3117 0.63109 0.0
C4 C 0.04312 0.34602 0.6438 0.0
H5 H 0.92959 0.29528 0.64001 0.0
Co6 Co 0.02647 0.24954 0.61295 0.0
C7 C 0.13767 0.25411 0.59199 0.0
O8 O 0.14102 0.20529 0.60059 0.0
N9 N 0.04077 0.18554 0.59448 0.0
C10 C 0.06175 0.10304 0.58401 0.0
C11 C 0.0497 0.13716 0.60537 0.0
C12 C 0.04672 0.1791 0.56624 0.0
N13 N 0.06044 0.1296 0.55957 0.0
O14 O 0.97987 0.27148 0.58199 0.0
H15 H 0.04768 0.12605 0.62727 0.0
H16 H 0.04018 0.2098 0.55082 0.0
O17 O 0.09414 0.27982 0.59544 0.0
C18 C 0.93587 0.2467 0.58322 0.0
O19 O 0.93323 0.20515 0.59962 0.0
N20 N 0.06232 0.22754 0.64582 0.0
C21 C 0.10198 0.18355 0.69541 0.0
C22 C 0.1306 0.22161 0.68046 0.0
C23 C 0.11011 0.24314 0.65576 0.0
C24 C 0.03086 0.1972 0.66241 0.0
C25 C 0.05042 0.17312 0.68671 0.0
H26 H 0.13306 0.2723 0.645 0.0
H27 H 0.99139 0.18843 0.65547 0.0
H28 H 0.08514 0.3456 0.64103 0.0
H29 H 0.93985 0.36638 0.68005 0.0
H30 H 0.06832 0.0612 0.58603 0.0
H31 H 0.16904 0.23417 0.68742 0.0
H32 H 0.02604 0.14481 0.69756 0.0
C33 C 0.78594 0.46088 0.15565 0.0
C34 C 0.75367 0.46305 0.17887 0.0
N35 N 0.72776 0.5091 0.17828 0.0
N36 N 0.78067 0.50555 0.14068 0.0
C37 C 0.744 0.53365 0.15462 0.0
H38 H 0.81383 0.43012 0.15096 0.0
Co39 Co 0.82246 0.52317 0.11024 0.0
C40 C 0.80366 0.63494 0.09584 0.0
O41 O 0.855 0.63621 0.09363 0.0
N42 N 0.8626 0.5393 0.07831 0.0
C43 C 0.87282 0.56123 0.03329 0.0
C44 C 0.83735 0.55204 0.05414 0.0
C45 C 0.91389 0.53878 0.07115 0.0
N46 N 0.92095 0.5521 0.04379 0.0
O47 O 0.7822 0.47374 0.08655 0.0
H48 H 0.79524 0.55464 0.05186 0.0
H49 H 0.94519 0.52651 0.085 0.0
O50 O 0.7807 0.59108 0.10259 0.0
C51 C 0.8143 0.43449 0.08672 0.0
O52 O 0.85852 0.44023 0.10064 0.0
N53 N 0.86683 0.56035 0.13534 0.0
C54 C 0.93101 0.59168 0.1802 0.0
C55 C 0.883 0.61676 0.17528 0.0
C56 C 0.85125 0.60025 0.15291 0.0
C57 C 0.91279 0.53475 0.14052 0.0
C58 C 0.94603 0.55051 0.16235 0.0
H59 H 0.81324 0.61824 0.15074 0.0
H60 H 0.92259 0.49988 0.12868 0.0
H61 H 0.73277 0.57328 0.14906 0.0
H62 H 0.75218 0.43477 0.19594 0.0
H63 H 0.86358 0.5725 0.0118 0.0
H64 H 0.86971 0.64832 0.18889 0.0
H65 H 0.98207 0.52907 0.16604 0.0
C66 C 0.60525 0.26583 0.65214 0.0
C67 C 0.59573 0.22386 0.66967 0.0
N68 N 0.54993 0.20153 0.66196 0.0
N69 N 0.56563 0.26989 0.63351 0.0
C70 C 0.5342 0.22867 0.63898 0.0
H71 H 0.63528 0.29528 0.65511 0.0
Co72 Co 0.54964 0.33086 0.61422 0.0
C73 C 0.44789 0.28713 0.58324 0.0
O74 O 0.4673 0.27248 0.55874 0.0
N75 N 0.53194 0.39249 0.59466 0.0
C76 C 0.48169 0.45801 0.57919 0.0
C77 C 0.48718 0.41992 0.59931 0.0
C78 C 0.55252 0.41455 0.57119 0.0
N79 N 0.523 0.45467 0.5618 0.0
O80 O 0.59043 0.30378 0.58233 0.0
H81 H 0.45806 0.4106 0.61515 0.0
H82 H 0.58602 0.39945 0.55979 0.0
O83 O 0.47878 0.30528 0.60229 0.0
C84 C 0.63667 0.32282 0.58653 0.0
O85 O 0.64168 0.35945 0.60595 0.0
N86 N 0.5193 0.3579 0.64717 0.0
C87 C 0.47582 0.40636 0.69437 0.0
C88 C 0.45667 0.3579 0.68485 0.0
C89 C 0.47886 0.33447 0.66115 0.0
C90 C 0.54157 0.40252 0.65757 0.0
C91 C 0.51976 0.4281 0.68085 0.0
H92 H 0.4625 0.29819 0.65371 0.0
H93 H 0.57491 0.41965 0.64685 0.0
H94 H 0.49664 0.22299 0.62886 0.0
H95 H 0.61679 0.21555 0.68904 0.0
H96 H 0.44811 0.48342 0.57617 0.0
H97 H 0.42407 0.33861 0.69522 0.0
H98 H 0.536 0.46543 0.68742 0.0
C99 C 0.78955 0.10232 0.15919 0.0
C100 C 0.83212 0.10203 0.17686 0.0
N101 N 0.86868 0.06911 0.16616 0.0
N102 N 0.7987 0.06942 0.13748 0.0
C103 C 0.84821 0.05228 0.14137 0.0
H104 H 0.75225 0.1209 0.16346 0.0
Co105 Co 0.74707 0.04668 0.11257 0.0
C106 C 0.80483 0.9397 0.11157 0.0
O107 O 0.81984 0.94038 0.13797 0.0
N108 N 0.69676 0.02319 0.08674 0.0
C109 C 0.64425 0.9692 0.06303 0.0
C110 C 0.68233 0.97242 0.08327 0.0
C111 C 0.66659 0.05007 0.06841 0.0
N112 N 0.63446 0.0181 0.05388 0.0
O113 O 0.77549 0.09523 0.08423 0.0
H114 H 0.69682 0.93983 0.09557 0.0
H115 H 0.66735 0.09217 0.06582 0.0
O116 O 0.78705 0.98167 0.0997 0.0
C117 C 0.74805 0.13601 0.09093 0.0
O118 O 0.71334 0.13076 0.11132 0.0
N119 N 0.71219 0.00992 0.14243 0.0
C120 C 0.65081 0.97221 0.187 0.0
C121 C 0.70547 0.96824 0.18794 0.0
C122 C 0.73538 0.98892 0.16595 0.0
C123 C 0.659 0.01735 0.14256 0.0
C124 C 0.62761 0.9975 0.16404 0.0
H125 H 0.77679 0.99168 0.16947 0.0
H126 H 0.64014 0.0409 0.12657 0.0
H127 H 0.8672 0.02455 0.12747 0.0
H128 H 0.83283 0.11958 0.1977 0.0
H129 H 0.62383 0.93402 0.0564 0.0
H130 H 0.72516 0.95114 0.20602 0.0
H131 H 0.5857 1.00431 0.16332 0.0
C132 C 0.09974 0.78892 0.32813 0.0
C133 C 0.09838 0.75013 0.30802 0.0
N134 N 0.0633 0.71332 0.31604 0.0
N135 N 0.06529 0.77746 0.34876 0.0
C136 C 0.046 0.72988 0.34166 0.0
H137 H 0.12034 0.82588 0.32636 0.0
Co138 Co 0.043 0.82924 0.37396 0.0
C139 C 0.93337 0.76646 0.37659 0.0
O140 O 0.93184 0.74269 0.35205 0.0
N141 N 0.01935 0.8819 0.39876 0.0
C142 C 0.9611 0.93764 0.41682 0.0
C143 C 0.97003 0.90117 0.39635 0.0
C144 C 0.03987 0.90801 0.4211 0.0
N145 N 0.00482 0.94186 0.43238 0.0
O146 O 0.08372 0.79489 0.4037 0.0
H147 H 0.94163 0.88912 0.38067 0.0
H148 H 0.07873 0.90147 0.42953 0.0
O149 O 0.9734 0.79439 0.38365 0.0
C150 C 0.12866 0.81796 0.40225 0.0
O151 O 0.1324 0.85936 0.38579 0.0
N152 N 0.01425 0.86655 0.34369 0.0
C153 C 0.99148 0.93057 0.29767 0.0
C154 C 0.96659 0.88178 0.30085 0.0
C155 C 0.97915 0.84993 0.3239 0.0
C156 C 0.0399 0.91309 0.34033 0.0
C157 C 0.02882 0.9459 0.31767 0.0
H158 H 0.96232 0.81161 0.32494 0.0
H159 H 0.0699 0.92454 0.35525 0.0
H160 H 0.018 0.70889 0.35438 0.0
H161 H 0.1174 0.75246 0.28761 0.0
H162 H 0.92503 0.95916 0.42027 0.0
H163 H 0.93786 0.86823 0.28565 0.0
H164 H 0.05004 0.98253 0.31559 0.0
C165 C 0.29429 0.61825 0.8361 0.0
C166 C 0.33244 0.62095 0.81558 0.0
N167 N 0.36552 0.58038 0.81931 0.0
N168 N 0.30291 0.57551 0.85222 0.0
C169 C 0.34686 0.55374 0.84169 0.0
H170 H 0.25956 0.64251 0.83729 0.0
Co171 Co 0.25473 0.54698 0.87691 0.0
C172 C 0.3281 0.44307 0.88936 0.0
O173 O 0.37905 0.44964 0.89113 0.0
N174 N 0.20627 0.51739 0.9014 0.0
C175 C 0.14914 0.45898 0.91761 0.0
C176 C 0.18771 0.46803 0.89825 0.0
C177 C 0.17829 0.53763 0.92302 0.0
N178 N 0.14344 0.50274 0.93308 0.0
O179 O 0.28502 0.5906 0.90668 0.0
H180 H 0.19954 0.44091 0.88186 0.0
H181 H 0.18032 0.57797 0.93001 0.0
O182 O 0.29923 0.48361 0.88449 0.0
C183 C 0.25898 0.63395 0.9055 0.0
O184 O 0.21644 0.63477 0.88983 0.0
N185 N 0.22215 0.51454 0.84656 0.0
C186 C 0.16745 0.48853 0.7978 0.0
C187 C 0.21514 0.4635 0.80424 0.0
C188 C 0.24233 0.47742 0.82883 0.0
C189 C 0.1758 0.53871 0.84071 0.0
C190 C 0.1476 0.5261 0.81654 0.0
H191 H 0.28004 0.45981 0.83306 0.0
H192 H 0.16123 0.56895 0.85473 0.0
H193 H 0.36113 0.51539 0.8476 0.0
H194 H 0.33229 0.64677 0.7974 0.0
H195 H 0.12457 0.4244 0.91898 0.0
H196 H 0.23198 0.43475 0.78999 0.0
H197 H 0.11073 0.54584 0.8125 0.0
C198 C 0.45794 0.83349 0.34975 0.0
C199 C 0.46458 0.87517 0.33165 0.0
N200 N 0.51632 0.88487 0.32948 0.0
N201 N 0.50535 0.81701 0.35864 0.0
C202 C 0.54003 0.84957 0.34634 0.0
H203 H 0.42145 0.81328 0.35384 0.0
Co204 Co 0.51777 0.75305 0.37516 0.0
C205 C 0.62908 0.75512 0.4 0.0
O206 O 0.62875 0.70366 0.40006 0.0
N207 N 0.52837 0.68723 0.39172 0.0
C208 C 0.54018 0.60197 0.39934 0.0
C209 C 0.5335 0.63979 0.37909 0.0
C210 C 0.53112 0.67692 0.4197 0.0
N211 N 0.53902 0.62557 0.42474 0.0
O212 O 0.47293 0.77474 0.40689 0.0
H213 H 0.53273 0.63233 0.35666 0.0
H214 H 0.52804 0.70657 0.43604 0.0
O215 O 0.58749 0.78025 0.39183 0.0
C216 C 0.42855 0.75089 0.40454 0.0
O217 O 0.42509 0.71257 0.386 0.0
N218 N 0.55134 0.73134 0.34191 0.0
C219 C 0.58368 0.68781 0.29089 0.0
C220 C 0.61965 0.71342 0.30858 0.0
C221 C 0.60261 0.73548 0.33394 0.0
C222 C 0.51516 0.7112 0.32365 0.0
C223 C 0.53051 0.68852 0.29812 0.0
H224 H 0.63092 0.75578 0.34662 0.0
H225 H 0.4743 0.71025 0.32978 0.0
H226 H 0.58195 0.84335 0.34678 0.0
H227 H 0.43431 0.89355 0.31902 0.0
H228 H 0.54579 0.56036 0.39572 0.0
H229 H 0.66083 0.71555 0.30306 0.0
H230 H 0.50143 0.66952 0.28493 0.0
C231 C 0.27738 0.96491 0.83006 0.0
C232 C 0.23748 0.96154 0.81074 0.0
N233 N 0.19925 0.99534 0.81835 0.0
N234 N 0.26461 1.00081 0.8498 0.0
C235 C 0.21527 0.01547 0.8433 0.0
H236 H 0.31565 0.947 0.82803 0.0
Co237 Co 0.31331 0.02688 0.87564 0.0
C238 C 0.25378 0.13578 0.87109 0.0
O239 O 0.22902 0.129 0.84711 0.0
N240 N 0.36138 0.05155 0.90234 0.0
C241 C 0.41325 0.10496 0.92683 0.0
C242 C 0.37559 0.10219 0.90636 0.0
C243 C 0.39136 0.02426 0.92063 0.0
N244 N 0.42314 0.05586 0.93562 0.0
O245 O 0.27984 0.9825 0.90428 0.0
H246 H 0.36171 0.13501 0.89423 0.0
H247 H 0.39092 0.98207 0.92277 0.0
O248 O 0.27377 0.0957 0.8841 0.0
C249 C 0.30457 0.93871 0.90058 0.0
O250 O 0.3438 0.93853 0.88252 0.0
N251 N 0.35139 0.06032 0.84596 0.0
C252 C 0.41229 0.08785 0.79871 0.0
C253 C 0.35731 0.091 0.79803 0.0
C254 C 0.32799 0.07803 0.82181 0.0
C255 C 0.40476 0.05528 0.84662 0.0
C256 C 0.4358 0.07097 0.82393 0.0
H257 H 0.28627 0.0786 0.81958 0.0
H258 H 0.42421 0.03703 0.86432 0.0
H259 H 0.19352 0.04475 0.85488 0.0
H260 H 0.2402 0.94238 0.79033 0.0
H261 H 0.43351 0.14002 0.93378 0.0
H262 H 0.33604 0.10101 0.77902 0.0
H263 H 0.47786 0.06814 0.82622 0.0
H264 H 0.0858 1.00416 0.44678 0.0
H265 H 0.93313 0.95051 0.47309 0.0
H266 H 0.9349 0.00964 0.51356 0.0
H267 H 0.98029 0.07468 0.54203 0.0
H268 H 0.13356 0.12851 0.51823 0.0
H269 H 0.1314 0.07243 0.47562 0.0
C270 C 0.05348 0.00535 0.46167 0.0
C271 C 0.00944 0.97333 0.45726 0.0
C272 C 0.05461 0.03995 0.48482 0.0
C273 C 0.96719 0.97521 0.47624 0.0
C274 C 0.96809 0.00899 0.49923 0.0
C275 C 0.01259 0.07448 0.52708 0.0
C276 C 0.05663 0.10518 0.53259 0.0
C277 C 0.0114 0.0415 0.50362 0.0
C278 C 0.09906 0.10515 0.51376 0.0
C279 C 0.09796 0.07282 0.48977 0.0
H280 H 0.92672 0.5279 0.98916 0.0
H281 H 0.02117 0.56643 0.0619 0.0
H282 H 0.10098 0.55699 0.03319 0.0
H283 H 0.14289 0.53512 0.98696 0.0
H284 H 0.04483 0.49703 0.91572 0.0
H285 H 0.96626 0.51112 0.94413 0.0
C286 C 0.9645 0.53564 -0.00127 0.0
C287 C 0.9681 0.54851 0.02745 0.0
C288 C 0.00922 0.53042 0.9823 0.0
C289 C 0.01764 0.55628 0.03975 0.0
C290 C 0.06305 0.55115 0.02336 0.0
C291 C 0.10408 0.5305 0.97794 0.0
C292 C 0.09866 0.51468 0.94972 0.0
C293 C 0.05922 0.53788 -0.00541 0.0
C294 C 0.04894 0.50856 0.93767 0.0
C295 C 0.0044 0.5166 0.95381 0.0
H296 H 0.57437 0.54166 0.54778 0.0
H297 H 0.47477 0.41908 0.51585 0.0
H298 H 0.47155 0.46168 0.46938 0.0
H299 H 0.49499 0.53508 0.43882 0.0
H300 H 0.59214 0.66017 0.47047 0.0
H301 H 0.59895 0.61578 0.51645 0.0
C302 C 0.55275 0.52447 0.53034 0.0
C303 C 0.52534 0.47758 0.53447 0.0
C304 C 0.55055 0.54967 0.50406 0.0
C305 C 0.49648 0.45507 0.51242 0.0
C306 C 0.49451 0.47942 0.48614 0.0
C307 C 0.51795 0.55218 0.45578 0.0
C308 C 0.54309 0.60033 0.4516 0.0
C309 C 0.52109 0.52685 0.48184 0.0
C310 C 0.57212 0.62314 0.47362 0.0
C311 C 0.57618 0.59773 0.4997 0.0
H312 H 0.45287 0.10974 0.98111 0.0
H313 H 0.4816 0.96757 0.934 0.0
H314 H 0.55139 0.94328 0.96688 0.0
H315 H 0.6047 0.9637 0.0085 0.0
H316 H 0.57612 0.10621 0.05534 0.0
H317 H 0.50629 0.13031 0.0225 0.0
C318 C 0.47471 0.07364 0.97804 0.0
C319 C 0.46246 0.04044 0.95539 0.0
C320 C 0.51481 0.06043 -0.0033 0.0
C321 C 0.49012 0.99327 0.95166 0.0
C322 C 0.53017 0.97964 0.97024 0.0
C323 C 0.58287 0.99982 0.01149 0.0
C324 C 0.5951 0.03319 0.03409 0.0
C325 C 0.54281 0.01304 0.99277 0.0
C326 C 0.56752 0.08039 0.03774 0.0
C327 C 0.52748 0.09391 0.01918 0.0
H328 H 0.24193 0.04251 0.77416 0.0
H329 H 0.09612 0.02143 0.81846 0.0
H330 H 0.05216 0.08103 0.78483 0.0
H331 H 0.05692 0.13914 0.74289 0.0
H332 H 0.20496 0.15522 0.69884 0.0
H333 H 0.24695 0.09938 0.73331 0.0
C334 C 0.20028 0.05029 0.77613 0.0
C335 C 0.17166 0.0267 0.79804 0.0
C336 C 0.17618 0.0847 0.75728 0.0
C337 C 0.11831 0.03851 0.80125 0.0
C338 C 0.09355 0.07271 0.7822 0.0
C339 C 0.09822 0.13012 0.74059 0.0
C340 C 0.12743 0.15201 0.71811 0.0
C341 C 0.12224 0.09604 0.76008 0.0
C342 C 0.18131 0.14047 0.7161 0.0
C343 C 0.20546 0.10769 0.7356 0.0
H344 H 0.09972 0.67543 0.26613 0.0
H345 H 0.96698 0.66709 0.32264 0.0
H346 H 0.91453 0.62739 0.28562 0.0
H347 H 0.9028 0.60462 0.23526 0.0
H348 H 0.03528 0.61317 0.17878 0.0
H349 H 0.09087 0.64398 0.2175 0.0
C350 C 0.05938 0.66502 0.2705 0.0
C351 C 0.03704 0.6772 0.29699 0.0
C352 C 0.02889 0.64287 0.24884 0.0
C353 C 0.98533 0.66037 0.30242 0.0
C354 C 0.95493 0.63761 0.2811 0.0
C355 C 0.94388 0.61323 0.23153 0.0
C356 C 0.96485 0.60754 0.20417 0.0
C357 C 0.97567 0.63069 0.25391 0.0
C358 C 0.01833 0.61753 0.19966 0.0
C359 C 0.05007 0.63512 0.22177 0.0
H360 H 0.32408 0.52272 0.7789 0.0
H361 H 0.47014 0.58003 0.81196 0.0
H362 H 0.51875 0.52906 0.7762 0.0
H363 H 0.51835 0.46687 0.73626 0.0
H364 H 0.37026 0.4117 0.70315 0.0
H365 H 0.32346 0.46161 0.73896 0.0
C366 C 0.36654 0.52438 0.77776 0.0
C367 C 0.39402 0.55536 0.79717 0.0
C368 C 0.39353 0.49463 0.75769 0.0
C369 C 0.44883 0.55685 0.79658 0.0
C370 C 0.47629 0.52755 0.77639 0.0
C371 C 0.47585 0.4662 0.73667 0.0
C372 C 0.44802 0.43542 0.71703 0.0
C373 C 0.44894 0.49613 0.7569 0.0
C374 C 0.39289 0.43417 0.71828 0.0
C375 C 0.36594 0.46322 0.73853 0.0
H376 H 0.48897 0.88262 0.275 0.0
H377 H 0.6031 0.94391 0.33339 0.0
H378 H 0.65528 0.97805 0.29389 0.0
H379 H 0.6699 0.98614 0.24286 0.0
H380 H 0.55804 0.91954 0.18449 0.0
H381 H 0.50278 0.89194 0.22398 0.0
C382 C 0.52454 0.9047 0.279 0.0
C383 C 0.54205 0.9118 0.30686 0.0
C384 C 0.55484 0.9224 0.25627 0.0
C385 C 0.58898 0.93882 0.31196 0.0
C386 C 0.61879 0.95785 0.28947 0.0
C387 C 0.63372 0.96507 0.23882 0.0
C388 C 0.61818 0.95444 0.2109 0.0
C389 C 0.60255 0.94893 0.26154 0.0
C390 C 0.57062 0.92825 0.20587 0.0
C391 C 0.5391 0.91246 0.22839 0.0
H392 H 0.97744 0.90396 0.24244 0.0
H393 H 0.97704 0.03636 0.29951 0.0
H394 H 0.94998 0.09419 0.26118 0.0
H395 H 0.91616 0.10497 0.21332 0.0
H396 H 0.91067 0.97133 0.15713 0.0
H397 H 0.95209 0.91706 0.19276 0.0
C398 C 0.97141 0.94548 0.24643 0.0
C399 C 0.97848 0.96573 0.27382 0.0
C400 C 0.95498 0.97845 0.22442 0.0
C401 C 0.9719 0.01982 0.27858 0.0
C402 C 0.95631 0.05292 0.2567 0.0
C403 C 0.92428 0.06409 0.20872 0.0
C404 C 0.90757 0.0421 0.18297 0.0
C405 C 0.94632 0.03236 0.22976 0.0
C406 C 0.92121 0.98958 0.17693 0.0
C407 C 0.94475 0.95808 0.19747 0.0
H408 H 0.14615 0.39221 0.77682 0.0
H409 H 0.12257 0.55712 0.76057 0.0
H410 H 0.07244 0.53625 0.71792 0.0
H411 H 0.0365 0.47021 0.68452 0.0
H412 H 0.05937 0.30606 0.7018 0.0
H413 H 0.10892 0.32703 0.74462 0.0
C414 C 0.13047 0.42351 0.76376 0.0
C415 C 0.13826 0.47597 0.77164 0.0
C416 C 0.10162 0.41125 0.73946 0.0
C417 C 0.11683 0.5163 0.75491 0.0
C418 C 0.0883 0.50445 0.73052 0.0
C419 C 0.05239 0.43951 0.69788 0.0
C420 C 0.04545 0.38691 0.69022 0.0
C421 C 0.08052 0.45203 0.72253 0.0
C422 C 0.06543 0.3468 0.70746 0.0
C423 C 0.09347 0.35878 0.73183 0.0
H424 H 0.66449 0.62046 0.29049 0.0
H425 H 0.54332 0.68425 0.23704 0.0
H426 H 0.57561 0.63165 0.19714 0.0
H427 H 0.6416 0.56994 0.17722 0.0
H428 H 0.76068 0.50636 0.23202 0.0
H429 H 0.72625 0.55674 0.27171 0.0
C430 C 0.64549 0.6233 0.27001 0.0
C431 C 0.60239 0.65682 0.26646 0.0
C432 C 0.66384 0.59285 0.24752 0.0
C433 C 0.57694 0.6589 0.24012 0.0
C434 C 0.59538 0.62892 0.21737 0.0
C435 C 0.65929 0.56689 0.198 0.0
C436 C 0.70312 0.53428 0.20192 0.0
C437 C 0.63914 0.59605 0.22079 0.0
C438 C 0.7262 0.5304 0.22878 0.0
C439 C 0.70689 0.55956 0.25136 0.0
H440 H 0.38595 0.15076 0.75383 0.0
H441 H 0.51194 0.05202 0.7846 0.0
H442 H 0.56497 0.07641 0.74417 0.0
H443 H 0.57694 0.12887 0.70066 0.0
H444 H 0.44436 0.21413 0.66725 0.0
H445 H 0.39152 0.18802 0.70711 0.0
C446 C 0.4241 0.13263 0.75166 0.0
C447 C 0.44439 0.10008 0.77307 0.0
C448 C 0.45335 0.14368 0.72741 0.0
C449 C 0.49518 0.07896 0.76945 0.0
C450 C 0.52557 0.09207 0.74592 0.0
C451 C 0.53619 0.14079 0.7019 0.0
C452 C 0.51552 0.17469 0.68129 0.0
C453 C 0.50521 0.12489 0.72489 0.0
C454 C 0.46219 0.18889 0.68282 0.0
C455 C 0.43168 0.17423 0.70584 0.0
H456 H 0.84506 0.19429 0.57184 0.0
H457 H 0.91051 0.35035 0.57387 0.0
H458 H 0.82216 0.3877 0.57047 0.0
H459 H 0.72618 0.37585 0.57467 0.0
H460 H 0.66042 0.22002 0.57363 0.0
H461 H 0.7487 0.18277 0.56835 0.0
C462 C 0.84019 0.23654 0.57075 0.0
C463 C 0.88485 0.26941 0.57321 0.0
C464 C 0.78894 0.25775 0.56926 0.0
C465 C 0.87741 0.32401 0.57175 0.0
C466 C 0.82663 0.34539 0.57012 0.0
C467 C 0.73096 0.33373 0.57239 0.0
C468 C 0.68636 0.30079 0.57451 0.0
C469 C 0.78207 0.31266 0.56994 0.0
C470 C 0.69354 0.24637 0.57165 0.0
C471 C 0.74428 0.22507 0.56903 0.0
H472 H 0.7214 0.37824 0.07997 0.0
H473 H 0.88822 0.36953 0.06613 0.0
H474 H 0.88355 0.27458 0.0618 0.0
H475 H 0.8346 0.19216 0.07159 0.0
H476 H 0.66685 0.20087 0.08145 0.0
H477 H 0.66939 0.29592 0.07694 0.0
C478 C 0.7563 0.35584 0.07486 0.0
C479 C 0.8052 0.38131 0.07416 0.0
C480 C 0.75354 0.30033 0.07219 0.0
C481 C 0.84999 0.35111 0.06743 0.0
C482 C 0.84756 0.29642 0.06504 0.0
C483 C 0.79846 0.2146 0.07154 0.0
C484 C 0.75082 0.18911 0.07752 0.0
C485 C 0.79995 0.27014 0.06885 0.0
C486 C 0.70439 0.21934 0.07741 0.0
C487 C 0.70568 0.27406 0.07498 0.0
H488 H 0.3406 0.69517 0.41648 0.0
H489 H 0.4012 0.85318 0.41626 0.0
H490 H 0.31171 0.88764 0.42023 0.0
H491 H 0.21636 0.87289 0.41549 0.0
H492 H 0.15552 0.71499 0.41363 0.0
H493 H 0.24476 0.68041 0.41938 0.0
C494 C 0.33438 0.73719 0.41819 0.0
C495 C 0.37791 0.77154 0.41602 0.0
C496 C 0.28254 0.75667 0.41972 0.0
C497 C 0.36892 0.82579 0.41823 0.0
C498 C 0.3175 0.84549 0.42012 0.0
C499 C 0.22235 0.83083 0.41708 0.0
C500 C 0.17892 0.79657 0.41392 0.0
C501 C 0.274 0.81134 0.41967 0.0
C502 C 0.18771 0.7423 0.41619 0.0
C503 C 0.23898 0.72256 0.41915 0.0
H504 H 0.36757 0.85432 0.90828 0.0
H505 H 0.20723 0.90441 0.91893 0.0
H506 H 0.18077 0.81271 0.92659 0.0
H507 H 0.20126 0.71791 0.9221 0.0
H508 H 0.36105 0.66835 0.90893 0.0
H509 H 0.38986 0.76018 0.91069 0.0
C510 C 0.32685 0.84547 0.91289 0.0
C511 C 0.28927 0.88658 0.91274 0.0
C512 C 0.3119 0.79253 0.91648 0.0
C513 C 0.23698 0.87406 0.91902 0.0
C514 C 0.22185 0.82141 0.9231 0.0
C515 C 0.24268 0.72707 0.9205 0.0
C516 C 0.27899 0.68595 0.91545 0.0
C517 C 0.25864 0.78022 0.92074 0.0
C518 C 0.33239 0.6987 0.91329 0.0
C519 C 0.34871 0.75144 0.9139 0.0
H520 H 0.36789 0.25646 0.54703 0.0
H521 H 0.39353 0.32956 0.6281 0.0
H522 H 0.29979 0.33429 0.63617 0.0
H523 H 0.20915 0.31123 0.62211 0.0
H524 H 0.18222 0.24065 0.54071 0.0
H525 H 0.27626 0.24362 0.53045 0.0
C526 C 0.35316 0.27346 0.5665 0.0
C527 C 0.3891 0.2905 0.58744 0.0
C528 C 0.29809 0.27776 0.57071 0.0
C529 C 0.36814 0.31358 0.6121 0.0
C530 C 0.31388 0.31724 0.61658 0.0
C531 C 0.22354 0.29875 0.6016 0.0
C532 C 0.18796 0.27727 0.58184 0.0
C533 C 0.2783 0.29883 0.59624 0.0
C534 C 0.20812 0.25922 0.55588 0.0
C535 C 0.26227 0.25983 0.55026 0.0
H536 H 0.82381 0.71334 0.05922 0.0
H537 H 0.72984 0.67583 0.13221 0.0
H538 H 0.717 0.76984 0.14144 0.0
H539 H 0.74685 0.86147 0.13387 0.0
H540 H 0.8429 0.89878 0.06166 0.0
H541 H 0.84092 0.80615 0.04693 0.0
C542 C 0.79879 0.72576 0.07655 0.0
C543 C 0.77779 0.68739 0.09504 0.0
C544 C 0.79343 0.77988 0.08228 0.0
C545 C 0.7458 0.70414 0.11745 0.0
C546 C 0.73935 0.75805 0.123 0.0
C547 C 0.76647 0.8494 0.11456 0.0
C548 C 0.7956 0.88682 0.099 0.0
C549 C 0.76521 0.79607 0.1064 0.0
C550 C 0.82033 0.8709 0.07393 0.0
C551 C 0.81931 0.81785 0.06564 0.0
H552 H 0.71297 0.72114 0.4301 0.0
H553 H 0.66718 0.84197 0.3713 0.0
H554 H 0.75971 0.8612 0.36176 0.0
H555 H 0.85316 0.83249 0.36388 0.0
H556 H 0.89777 0.70977 0.42166 0.0
H557 H 0.80674 0.70268 0.43803 0.0
C558 C 0.72312 0.75286 0.41581 0.0
C559 C 0.68262 0.77965 0.40125 0.0
C560 C 0.77656 0.7627 0.40991 0.0
C561 C 0.69692 0.82074 0.38294 0.0
C562 C 0.75011 0.83127 0.37719 0.0
C563 C 0.8431 0.80542 0.38073 0.0
C564 C 0.88238 0.77196 0.39177 0.0
C565 C 0.79021 0.80092 0.38961 0.0
C566 C 0.86864 0.7364 0.41316 0.0
C567 C 0.8164 0.73208 0.42231 0.0
H568 H 0.22074 0.21738 0.90632 0.0
H569 H 0.33631 0.17717 0.84344 0.0
H570 H 0.36824 0.26714 0.84297 0.0
H571 H 0.36183 0.35922 0.85869 0.0
H572 H 0.25179 0.40055 0.92389 0.0
H573 H 0.21867 0.31009 0.92477 0.0
C574 C 0.25352 0.22819 0.89294 0.0
C575 C 0.27662 0.18967 0.87527 0.0
C576 C 0.27177 0.28114 0.89256 0.0
C577 C 0.31819 0.2052 0.85756 0.0
C578 C 0.33638 0.25706 0.85713 0.0
C579 C 0.33025 0.34856 0.87295 0.0
C580 C 0.30696 0.38788 0.88987 0.0
C581 C 0.31308 0.29566 0.87418 0.0
C582 C 0.26765 0.37244 0.90903 0.0
C583 C 0.24958 0.32013 0.91001 0.0
loop_
_geom_bond_atom_site_label_1
_geom_bond_atom_site_label_2
_geom_bond_distance
_geom_bond_site_symmetry_2
_ccdc_geom_bond_type
C0 C1 1.347 1_655 S
C0 N3 1.356 1_655 S
C0 H5 0.945 . S
C1 C0 1.347 1_455 S
C1 N2 1.373 . S
C1 H29 0.930 1_455 S
N2 C1 1.373 . S
N2 C4 1.340 . S
N3 C0 1.356 1_455 S
N3 C4 1.321 . S
N3 Co6 2.135 . S
C4 N2 1.340 . S
C4 N3 1.321 . S
C4 H28 0.930 . S
H5 C0 0.945 . S
Co6 N3 2.135 . S
Co6 N9 2.121 . S
Co6 O14 2.055 1_455 S
Co6 O17 2.039 . S
Co6 N20 2.140 . S
C7 O8 1.227 . S
C7 O17 1.265 . S
O8 C7 1.227 . S
N9 Co6 2.121 . S
N9 C11 1.375 . S
N9 C12 1.313 . S
C10 C11 1.338 . S
C10 N13 1.377 . S
C10 H30 0.930 . S
C11 N9 1.375 . S
C11 C10 1.338 . S
C11 H15 0.931 . S
C12 N9 1.313 . S
C12 N13 1.344 . S
C12 H16 0.930 1_455 S
N13 C10 1.377 . S
N13 C12 1.344 . S
O14 Co6 2.055 1_655 S
O14 C18 1.253 . S
H15 C11 0.931 . S
H16 C12 0.930 1_655 S
O17 Co6 2.039 . S
O17 C7 1.265 . S
C18 O14 1.253 . S
C18 O19 1.227 . S
O19 C18 1.227 . S
N20 Co6 2.140 . S
N20 C23 1.346 . S
N20 C24 1.345 . S
C21 C22 1.387 . S
C21 C25 1.391 . S
C22 C21 1.387 . S
C22 C23 1.369 . S
C22 H31 0.929 . S
C23 N20 1.346 . S
C23 C22 1.369 . S
C23 H26 0.928 . S
C24 N20 1.345 . S
C24 C25 1.371 . S
C24 H27 0.931 . S
C25 C21 1.391 . S
C25 C24 1.371 . S
C25 H32 0.930 . S
H26 C23 0.928 . S
H27 C24 0.931 . S
H28 C4 0.930 . S
H29 C1 0.930 1_655 S
H30 C10 0.930 . S
H31 C22 0.929 . S
H32 C25 0.930 . S
C33 C34 1.351 . S
C33 N36 1.368 . S
C33 H38 0.931 . S
C34 C33 1.351 . S
C34 N35 1.373 . S
C34 H62 0.930 . S
N35 C34 1.373 . S
N35 C37 1.340 . S
N36 C33 1.368 . S
N36 C37 1.321 . S
N36 Co39 2.135 . S
C37 N35 1.340 . S
C37 N36 1.321 . S
C37 H61 0.930 . S
H38 C33 0.931 . S
Co39 N36 2.135 . S
Co39 N42 2.121 . S
Co39 O47 2.055 . S
Co39 O50 2.039 . S
Co39 N53 2.140 . S
C40 O41 1.227 . S
C40 O50 1.265 . S
O41 C40 1.227 . S
N42 Co39 2.121 . S
N42 C44 1.375 . S
N42 C45 1.313 . S
C43 C44 1.338 . S
C43 N46 1.377 . S
C43 H63 0.930 . S
C44 N42 1.375 . S
C44 C43 1.338 . S
C44 H48 0.931 . S
C45 N42 1.313 . S
C45 N46 1.344 . S
C45 H49 0.930 . S
N46 C43 1.377 . S
N46 C45 1.344 . S
O47 Co39 2.055 . S
O47 C51 1.253 . S
H48 C44 0.931 . S
H49 C45 0.930 . S
O50 Co39 2.039 . S
O50 C40 1.265 . S
C51 O47 1.253 . S
C51 O52 1.227 . S
O52 C51 1.227 . S
N53 Co39 2.140 . S
N53 C56 1.346 . S
N53 C57 1.345 . S
C54 C55 1.387 . S
C54 C58 1.391 . S
C55 C54 1.387 . S
C55 C56 1.369 . S
C55 H64 0.929 . S
C56 N53 1.346 . S
C56 C55 1.369 . S
C56 H59 0.928 . S
C57 N53 1.345 . S
C57 C58 1.371 . S
C57 H60 0.931 . S
C58 C54 1.391 . S
C58 C57 1.371 . S
C58 H65 0.930 . S
H59 C56 0.928 . S
H60 C57 0.931 . S
H61 C37 0.930 . S
H62 C34 0.930 . S
H63 C43 0.930 . S
H64 C55 0.929 . S
H65 C58 0.930 . S
C66 C67 1.351 . S
C66 N69 1.368 . S
C66 H71 0.931 . S
C67 C66 1.351 . S
C67 N68 1.373 . S
C67 H95 0.930 . S
N68 C67 1.373 . S
N68 C70 1.340 . S
N69 C66 1.368 . S
N69 C70 1.321 . S
N69 Co72 2.135 . S
C70 N68 1.340 . S
C70 N69 1.321 . S
C70 H94 0.930 . S
H71 C66 0.931 . S
Co72 N69 2.135 . S
Co72 N75 2.121 . S
Co72 O80 2.055 . S
Co72 O83 2.039 . S
Co72 N86 2.140 . S
C73 O74 1.227 . S
C73 O83 1.265 . S
O74 C73 1.227 . S
N75 Co72 2.121 . S
N75 C77 1.375 . S
N75 C78 1.313 . S
C76 C77 1.338 . S
C76 N79 1.377 . S
C76 H96 0.930 . S
C77 N75 1.375 . S
C77 C76 1.338 . S
C77 H81 0.931 . S
C78 N75 1.313 . S
C78 N79 1.344 . S
C78 H82 0.930 . S
N79 C76 1.377 . S
N79 C78 1.344 . S
O80 Co72 2.055 . S
O80 C84 1.253 . S
H81 C77 0.931 . S
H82 C78 0.930 . S
O83 Co72 2.039 . S
O83 C73 1.265 . S
C84 O80 1.253 . S
C84 O85 1.227 . S
O85 C84 1.227 . S
N86 Co72 2.140 . S
N86 C89 1.346 . S
N86 C90 1.345 . S
C87 C88 1.387 . S
C87 C91 1.391 . S
C88 C87 1.387 . S
C88 C89 1.369 . S
C88 H97 0.929 . S
C89 N86 1.346 . S
C89 C88 1.369 . S
C89 H92 0.928 . S
C90 N86 1.345 . S
C90 C91 1.371 . S
C90 H93 0.931 . S
C91 C87 1.391 . S
C91 C90 1.371 . S
C91 H98 0.930 . S
H92 C89 0.928 . S
H93 C90 0.931 . S
H94 C70 0.930 . S
H95 C67 0.930 . S
H96 C76 0.930 . S
H97 C88 0.929 . S
H98 C91 0.930 . S
C99 C100 1.351 . S
C99 N102 1.368 . S
C99 H104 0.931 . S
C100 C99 1.351 . S
C100 N101 1.373 . S
C100 H128 0.930 . S
N101 C100 1.373 . S
N101 C103 1.340 1_545 S
N102 C99 1.368 . S
N102 C103 1.321 1_545 S
N102 Co105 2.135 . S
C103 N101 1.340 1_565 S
C103 N102 1.321 1_565 S
C103 H127 0.930 . S
H104 C99 0.931 . S
Co105 N102 2.135 . S
Co105 N108 2.121 . S
Co105 O113 2.055 . S
Co105 O116 2.039 1_545 S
Co105 N119 2.140 . S
C106 O107 1.227 . S
C106 O116 1.265 . S
O107 C106 1.227 . S
N108 Co105 2.121 . S
N108 C110 1.375 1_545 S
N108 C111 1.313 . S
C109 C110 1.338 . S
C109 N112 1.377 1_565 S
C109 H129 0.930 . S
C110 N108 1.375 1_565 S
C110 C109 1.338 . S
C110 H114 0.931 . S
C111 N108 1.313 . S
C111 N112 1.344 . S
C111 H115 0.930 . S
N112 C109 1.377 1_545 S
N112 C111 1.344 . S
O113 Co105 2.055 . S
O113 C117 1.253 . S
H114 C110 0.931 . S
H115 C111 0.930 . S
O116 Co105 2.039 1_565 S
O116 C106 1.265 . S
C117 O113 1.253 . S
C117 O118 1.227 . S
O118 C117 1.227 . S
N119 Co105 2.140 . S
N119 C122 1.346 1_545 S
N119 C123 1.345 . S
C120 C121 1.387 . S
C120 C124 1.391 1_565 S
C121 C120 1.387 . S
C121 C122 1.369 . S
C121 H130 0.929 . S
C122 N119 1.346 1_565 S
C122 C121 1.369 . S
C122 H125 0.928 . S
C123 N119 1.345 . S
C123 C124 1.371 . S
C123 H126 0.931 . S
C124 C120 1.391 1_545 S
C124 C123 1.371 . S
C124 H131 0.930 . S
H125 C122 0.928 . S
H126 C123 0.931 . S
H127 C103 0.930 . S
H128 C100 0.930 . S
H129 C109 0.930 . S
H130 C121 0.929 . S
H131 C124 0.930 . S
C132 C133 1.351 . S
C132 N135 1.368 . S
C132 H137 0.931 . S
C133 C132 1.351 . S
C133 N134 1.373 . S
C133 H161 0.930 . S
N134 C133 1.373 . S
N134 C136 1.340 1_455 S
N135 C132 1.368 . S
N135 C136 1.321 1_455 S
N135 Co138 2.135 . S
C136 N134 1.340 1_655 S
C136 N135 1.321 1_655 S
C136 H160 0.930 . S
H137 C132 0.931 . S
Co138 N135 2.135 . S
Co138 N141 2.121 . S
Co138 O146 2.055 . S
Co138 O149 2.039 1_455 S
Co138 N152 2.140 . S
C139 O140 1.227 . S
C139 O149 1.265 . S
O140 C139 1.227 . S
N141 Co138 2.121 . S
N141 C143 1.375 1_455 S
N141 C144 1.313 . S
C142 C143 1.338 . S
C142 N145 1.377 1_655 S
C142 H162 0.930 . S
C143 N141 1.375 1_655 S
C143 C142 1.338 . S
C143 H147 0.931 . S
C144 N141 1.313 . S
C144 N145 1.344 . S
C144 H148 0.930 . S
N145 C142 1.377 1_455 S
N145 C144 1.344 . S
O146 Co138 2.055 . S
O146 C150 1.253 . S
H147 C143 0.931 . S
H148 C144 0.930 . S
O149 Co138 2.039 1_655 S
O149 C139 1.265 . S
C150 O146 1.253 . S
C150 O151 1.227 . S
O151 C150 1.227 . S
N152 Co138 2.140 . S
N152 C155 1.346 1_455 S
N152 C156 1.345 . S
C153 C154 1.387 . S
C153 C157 1.391 1_655 S
C154 C153 1.387 . S
C154 C155 1.369 . S
C154 H163 0.929 . S
C155 N152 1.346 1_655 S
C155 C154 1.369 . S
C155 H158 0.928 . S
C156 N152 1.345 . S
C156 C157 1.371 . S
C156 H159 0.931 . S
C157 C153 1.391 1_455 S
C157 C156 1.371 . S
C157 H164 0.930 . S
H158 C155 0.928 . S
H159 C156 0.931 . S
H160 C136 0.930 . S
H161 C133 0.930 . S
H162 C142 0.930 . S
H163 C154 0.929 . S
H164 C157 0.930 . S
C165 C166 1.351 . S
C165 N168 1.368 . S
C165 H170 0.931 . S
C166 C165 1.351 . S
C166 N167 1.373 . S
C166 H194 0.930 . S
N167 C166 1.373 . S
N167 C169 1.340 . S
N168 C165 1.368 . S
N168 C169 1.321 . S
N168 Co171 2.135 . S
C169 N167 1.340 . S
C169 N168 1.321 . S
C169 H193 0.930 . S
H170 C165 0.931 . S
Co171 N168 2.135 . S
Co171 N174 2.121 . S
Co171 O179 2.055 . S
Co171 O182 2.039 . S
Co171 N185 2.140 . S
C172 O173 1.227 . S
C172 O182 1.265 . S
O173 C172 1.227 . S
N174 Co171 2.121 . S
N174 C176 1.375 . S
N174 C177 1.313 . S
C175 C176 1.338 . S
C175 N178 1.377 . S
C175 H195 0.930 . S
C176 N174 1.375 . S
C176 C175 1.338 . S
C176 H180 0.931 . S
C177 N174 1.313 . S
C177 N178 1.344 . S
C177 H181 0.930 . S
N178 C175 1.377 . S
N178 C177 1.344 . S
O179 Co171 2.055 . S
O179 C183 1.253 . S
H180 C176 0.931 . S
H181 C177 0.930 . S
O182 Co171 2.039 . S
O182 C172 1.265 . S
C183 O179 1.253 . S
C183 O184 1.227 . S
O184 C183 1.227 . S
N185 Co171 2.140 . S
N185 C188 1.346 . S
N185 C189 1.345 . S
C186 C187 1.387 . S
C186 C190 1.391 . S
C187 C186 1.387 . S
C187 C188 1.369 . S
C187 H196 0.929 . S
C188 N185 1.346 . S
C188 C187 1.369 . S
C188 H191 0.928 . S
C189 N185 1.345 . S
C189 C190 1.371 . S
C189 H192 0.931 . S
C190 C186 1.391 . S
C190 C189 1.371 . S
C190 H197 0.930 . S
H191 C188 0.928 . S
H192 C189 0.931 . S
H193 C169 0.930 . S
H194 C166 0.930 . S
H195 C175 0.930 . S
H196 C187 0.929 . S
H197 C190 0.930 . S
C198 C199 1.351 . S
C198 N201 1.368 . S
C198 H203 0.931 . S
C199 C198 1.351 . S
C199 N200 1.373 . S
C199 H227 0.930 . S
N200 C199 1.373 . S
N200 C202 1.340 . S
N201 C198 1.368 . S
N201 C202 1.321 . S
N201 Co204 2.135 . S
C202 N200 1.340 . S
C202 N201 1.321 . S
C202 H226 0.930 . S
H203 C198 0.931 . S
Co204 N201 2.135 . S
Co204 N207 2.121 . S
Co204 O212 2.055 . S
Co204 O215 2.039 . S
Co204 N218 2.140 . S
C205 O206 1.227 . S
C205 O215 1.265 . S
O206 C205 1.227 . S
N207 Co204 2.121 . S
N207 C209 1.375 . S
N207 C210 1.313 . S
C208 C209 1.338 . S
C208 N211 1.377 . S
C208 H228 0.930 . S
C209 N207 1.375 . S
C209 C208 1.338 . S
C209 H213 0.931 . S
C210 N207 1.313 . S
C210 N211 1.344 . S
C210 H214 0.930 . S
N211 C208 1.377 . S
N211 C210 1.344 . S
O212 Co204 2.055 . S
O212 C216 1.253 . S
H213 C209 0.931 . S
H214 C210 0.930 . S
O215 Co204 2.039 . S
O215 C205 1.265 . S
C216 O212 1.253 . S
C216 O217 1.227 . S
O217 C216 1.227 . S
N218 Co204 2.140 . S
N218 C221 1.346 . S
N218 C222 1.345 . S
C219 C220 1.387 . S
C219 C223 1.391 . S
C220 C219 1.387 . S
C220 C221 1.369 . S
C220 H229 0.929 . S
C221 N218 1.346 . S
C221 C220 1.369 . S
C221 H224 0.928 . S
C222 N218 1.345 . S
C222 C223 1.371 . S
C222 H225 0.931 . S
C223 C219 1.391 . S
C223 C222 1.371 . S
C223 H230 0.930 . S
H224 C221 0.928 . S
H225 C222 0.931 . S
H226 C202 0.930 . S
H227 C199 0.930 . S
H228 C208 0.930 . S
H229 C220 0.929 . S
H230 C223 0.930 . S
C231 C232 1.353 . S
C231 N234 1.376 . S
C231 H236 0.921 1_545 S
C232 C231 1.353 . S
C232 N233 1.373 . S
C232 H260 0.930 1_545 S
N233 C232 1.373 . S
N233 C235 1.340 . S
N234 C231 1.376 . S
N234 C235 1.321 . S
N234 Co237 2.135 . S
C235 N233 1.340 . S
C235 N234 1.321 . S
C235 H259 0.930 . S
H236 C231 0.921 1_565 S
Co237 N234 2.135 . S
Co237 N240 2.121 . S
Co237 O245 2.055 1_545 S
Co237 O248 2.039 . S
Co237 N251 2.140 . S
C238 O239 1.227 . S
C238 O248 1.265 . S
O239 C238 1.227 . S
N240 Co237 2.121 . S
N240 C242 1.375 . S
N240 C243 1.313 . S
C241 C242 1.338 . S
C241 N244 1.377 . S
C241 H261 0.930 . S
C242 N240 1.375 . S
C242 C241 1.338 . S
C242 H246 0.931 . S
C243 N240 1.313 . S
C243 N244 1.344 . S
C243 H247 0.930 1_545 S
N244 C241 1.377 . S
N244 C243 1.344 . S
O245 Co237 2.055 1_565 S
O245 C249 1.253 . S
H246 C242 0.931 . S
H247 C243 0.930 1_565 S
O248 Co237 2.039 . S
O248 C238 1.265 . S
C249 O245 1.253 . S
C249 O250 1.227 . S
O250 C249 1.227 . S
N251 Co237 2.140 . S
N251 C254 1.346 . S
N251 C255 1.345 . S
C252 C253 1.387 . S
C252 C256 1.391 . S
C253 C252 1.387 . S
C253 C254 1.369 . S
C253 H262 0.929 . S
C254 N251 1.346 . S
C254 C253 1.369 . S
C254 H257 0.928 . S
C255 N251 1.345 . S
C255 C256 1.371 . S
C255 H258 0.931 . S
C256 C252 1.391 . S
C256 C255 1.371 . S
C256 H263 0.930 . S
H257 C254 0.928 . S
H258 C255 0.931 . S
H259 C235 0.930 . S
H260 C232 0.930 1_565 S
H261 C241 0.930 . S
H262 C253 0.929 . S
H263 C256 0.930 . S
H264 C270 0.930 . S
H265 C273 0.930 . S
H266 C274 0.930 . S
H267 C275 0.930 . S
H268 C278 0.930 . S
H269 C279 0.930 . S
C270 H264 0.930 . S
C270 C271 1.355 . S
C270 C272 1.415 1_565 S
C271 C270 1.355 . S
C271 C273 1.419 1_455 S
C272 C270 1.415 1_545 S
C272 C277 1.425 . S
C272 C279 1.409 . S
C273 H265 0.930 . S
C273 C271 1.419 1_655 S
C273 C274 1.362 1_565 S
C274 H266 0.930 . S
C274 C273 1.362 1_545 S
C274 C277 1.409 1_655 S
C275 H267 0.930 . S
C275 C276 1.355 1_655 S
C275 C277 1.415 1_655 S
C276 C275 1.355 1_455 S
C276 C278 1.419 . S
C277 C272 1.425 . S
C277 C274 1.409 1_455 S
C277 C275 1.415 1_455 S
C278 H268 0.930 . S
C278 C276 1.419 . S
C278 C279 1.362 . S
C279 H269 0.930 . S
C279 C272 1.409 . S
C279 C278 1.362 . S
H280 C286 0.930 . S
H281 C289 0.930 . S
H282 C290 0.930 . S
H283 C291 0.930 . S
H284 C294 0.930 . S
H285 C295 0.930 . S
C286 H280 0.930 . S
C286 C287 1.355 . S
C286 C288 1.415 1_654 S
C287 C286 1.355 . S
C287 C289 1.419 . S
C288 C286 1.415 1_456 S
C288 C293 1.425 1_556 S
C288 C295 1.409 . S
C289 H281 0.930 . S
C289 C287 1.419 . S
C289 C290 1.362 1_655 S
C290 H282 0.930 . S
C290 C289 1.362 1_455 S
C290 C293 1.409 . S
C291 H283 0.930 . S
C291 C292 1.355 . S
C291 C293 1.415 1_556 S
C292 C291 1.355 . S
C292 C294 1.419 . S
C293 C288 1.425 1_554 S
C293 C290 1.409 . S
C293 C291 1.415 1_554 S
C294 H284 0.930 . S
C294 C292 1.419 . S
C294 C295 1.362 . S
C295 H285 0.930 . S
C295 C288 1.409 . S
C295 C294 1.362 . S
H296 C302 0.930 . S
H297 C305 0.930 . S
H298 C306 0.930 . S
H299 C307 0.930 . S
H300 C310 0.930 . S
H301 C311 0.930 . S
C302 H296 0.930 . S
C302 C303 1.355 . S
C302 C304 1.415 . S
C303 C302 1.355 . S
C303 C305 1.419 . S
C304 C302 1.415 . S
C304 C309 1.425 . S
C304 C311 1.409 . S
C305 H297 0.930 . S
C305 C303 1.419 . S
C305 C306 1.362 . S
C306 H298 0.930 . S
C306 C305 1.362 . S
C306 C309 1.409 . S
C307 H299 0.930 . S
C307 C308 1.355 . S
C307 C309 1.415 . S
C308 C307 1.355 . S
C308 C310 1.419 . S
C309 C304 1.425 . S
C309 C306 1.409 . S
C309 C307 1.415 . S
C310 H300 0.930 . S
C310 C308 1.419 . S
C310 C311 1.362 . S
C311 H301 0.930 . S
C311 C304 1.409 . S
C311 C310 1.362 . S
H312 C318 0.930 . S
H313 C321 0.930 . S
H314 C322 0.930 1_565 S
H315 C323 0.930 . S
H316 C326 0.930 . S
H317 C327 0.930 . S
C318 H312 0.930 . S
C318 C319 1.355 . S
C318 C320 1.415 1_556 S
C319 C318 1.355 . S
C319 C321 1.419 1_545 S
C320 C318 1.415 1_554 S
C320 C325 1.425 1_554 S
C320 C327 1.409 . S
C321 H313 0.930 . S
C321 C319 1.419 1_565 S
C321 C322 1.362 1_565 S
C322 H314 0.930 1_545 S
C322 C321 1.362 1_545 S
C322 C325 1.409 . S
C323 H315 0.930 . S
C323 C324 1.355 . S
C323 C325 1.415 1_554 S
C324 C323 1.355 . S
C324 C326 1.419 . S
C325 C320 1.425 1_556 S
C325 C322 1.409 . S
C325 C323 1.415 1_556 S
C326 H316 0.930 . S
C326 C324 1.419 . S
C326 C327 1.362 . S
C327 H317 0.930 . S
C327 C320 1.409 . S
C327 C326 1.362 . S
H328 C334 0.930 . S
H329 C337 0.930 . S
H330 C338 0.930 . S
H331 C339 0.930 . S
H332 C342 0.930 . S
H333 C343 0.930 . S
C334 H328 0.930 . S
C334 C335 1.355 . S
C334 C336 1.415 . S
C335 C334 1.355 . S
C335 C337 1.419 . S
C336 C334 1.415 . S
C336 C341 1.425 . S
C336 C343 1.409 . S
C337 H329 0.930 . S
C337 C335 1.419 . S
C337 C338 1.362 . S
C338 H330 0.930 . S
C338 C337 1.362 . S
C338 C341 1.409 . S
C339 H331 0.930 . S
C339 C340 1.355 . S
C339 C341 1.415 . S
C340 C339 1.355 . S
C340 C342 1.419 . S
C341 C336 1.425 . S
C341 C338 1.409 . S
C341 C339 1.415 . S
C342 H332 0.930 . S
C342 C340 1.419 . S
C342 C343 1.362 . S
C343 H333 0.930 . S
C343 C336 1.409 . S
C343 C342 1.362 . S
H344 C350 0.930 . S
H345 C353 0.930 . S
H346 C354 0.930 . S
H347 C355 0.930 . S
H348 C358 0.930 1_455 S
H349 C359 0.930 . S
C350 H344 0.930 . S
C350 C351 1.355 1_455 S
C350 C352 1.415 1_455 S
C351 C350 1.355 1_655 S
C351 C353 1.419 . S
C352 C350 1.415 1_655 S
C352 C357 1.425 . S
C352 C359 1.409 1_655 S
C353 H345 0.930 . S
C353 C351 1.419 . S
C353 C354 1.362 . S
C354 H346 0.930 . S
C354 C353 1.362 . S
C354 C357 1.409 . S
C355 H347 0.930 . S
C355 C356 1.355 . S
C355 C357 1.415 . S
C356 C355 1.355 . S
C356 C358 1.419 . S
C357 C352 1.425 . S
C357 C354 1.409 . S
C357 C355 1.415 . S
C358 H348 0.930 1_655 S
C358 C356 1.419 . S
C358 C359 1.362 1_655 S
C359 H349 0.930 . S
C359 C352 1.409 1_455 S
C359 C358 1.362 1_455 S
H360 C366 0.930 . S
H361 C369 0.930 . S
H362 C370 0.930 . S
H363 C371 0.930 . S
H364 C374 0.930 . S
H365 C375 0.930 . S
C366 H360 0.930 . S
C366 C367 1.355 . S
C366 C368 1.415 . S
C367 C366 1.355 . S
C367 C369 1.419 . S
C368 C366 1.415 . S
C368 C373 1.425 . S
C368 C375 1.409 . S
C369 H361 0.930 . S
C369 C367 1.419 . S
C369 C370 1.362 . S
C370 H362 0.930 . S
C370 C369 1.362 . S
C370 C373 1.409 . S
C371 H363 0.930 . S
C371 C372 1.355 . S
C371 C373 1.415 . S
C372 C371 1.355 . S
C372 C374 1.419 . S
C373 C368 1.425 . S
C373 C370 1.409 . S
C373 C371 1.415 . S
C374 H364 0.930 . S
C374 C372 1.419 . S
C374 C375 1.362 . S
C375 H365 0.930 . S
C375 C368 1.409 . S
C375 C374 1.362 . S
H376 C382 0.930 . S
H377 C385 0.930 . S
H378 C386 0.930 . S
H379 C387 0.930 . S
H380 C390 0.930 . S
H381 C391 0.930 . S
C382 H376 0.930 . S
C382 C383 1.355 . S
C382 C384 1.415 . S
C383 C382 1.355 . S
C383 C385 1.419 . S
C384 C382 1.415 . S
C384 C389 1.425 . S
C384 C391 1.409 . S
C385 H377 0.930 . S
C385 C383 1.419 . S
C385 C386 1.362 . S
C386 H378 0.930 . S
C386 C385 1.362 . S
C386 C389 1.409 . S
C387 H379 0.930 . S
C387 C388 1.355 . S
C387 C389 1.415 . S
C388 C387 1.355 . S
C388 C390 1.419 . S
C389 C384 1.425 . S
C389 C386 1.409 . S
C389 C387 1.415 . S
C390 H380 0.930 . S
C390 C388 1.419 . S
C390 C391 1.362 . S
C391 H381 0.930 . S
C391 C384 1.409 . S
C391 C390 1.362 . S
H392 C398 0.930 . S
H393 C401 0.930 1_445 S
H394 C402 0.930 . S
H395 C403 0.930 . S
H396 C406 0.930 . S
H397 C407 0.930 . S
C398 H392 0.930 . S
C398 C399 1.355 . S
C398 C400 1.415 . S
C399 C398 1.355 . S
C399 C401 1.419 . S
C400 C398 1.415 . S
C400 C405 1.425 . S
C400 C407 1.409 . S
C401 H393 0.930 1_665 S
C401 C399 1.419 . S
C401 C402 1.362 1_565 S
C402 H394 0.930 . S
C402 C401 1.362 1_545 S
C402 C405 1.409 1_545 S
C403 H395 0.930 . S
C403 C404 1.355 1_545 S
C403 C405 1.415 1_545 S
C404 C403 1.355 1_565 S
C404 C406 1.419 . S
C405 C400 1.425 . S
C405 C402 1.409 1_565 S
C405 C403 1.415 1_565 S
C406 H396 0.930 . S
C406 C404 1.419 . S
C406 C407 1.362 . S
C407 H397 0.930 . S
C407 C400 1.409 . S
C407 C406 1.362 . S
H408 C414 0.930 . S
H409 C417 0.930 . S
H410 C418 0.930 . S
H411 C419 0.930 . S
H412 C422 0.930 . S
H413 C423 0.930 . S
C414 H408 0.930 . S
C414 C415 1.355 . S
C414 C416 1.415 . S
C415 C414 1.355 . S
C415 C417 1.419 . S
C416 C414 1.415 . S
C416 C421 1.425 . S
C416 C423 1.409 . S
C417 H409 0.930 . S
C417 C415 1.419 . S
C417 C418 1.362 . S
C418 H410 0.930 . S
C418 C417 1.362 . S
C418 C421 1.409 . S
C419 H411 0.930 . S
C419 C420 1.355 . S
C419 C421 1.415 . S
C420 C419 1.355 . S
C420 C422 1.419 . S
C421 C416 1.425 . S
C421 C418 1.409 . S
C421 C419 1.415 . S
C422 H412 0.930 . S
C422 C420 1.419 . S
C422 C423 1.362 . S
C423 H413 0.930 . S
C423 C416 1.409 . S
C423 C422 1.362 . S
H424 C430 0.930 . S
H425 C433 0.930 . S
H426 C434 0.930 . S
H427 C435 0.930 . S
H428 C438 0.930 . S
H429 C439 0.930 . S
C430 H424 0.930 . S
C430 C431 1.355 . S
C430 C432 1.415 . S
C431 C430 1.355 . S
C431 C433 1.419 . S
C432 C430 1.415 . S
C432 C437 1.425 . S
C432 C439 1.409 . S
C433 H425 0.930 . S
C433 C431 1.419 . S
C433 C434 1.362 . S
C434 H426 0.930 . S
C434 C433 1.362 . S
C434 C437 1.409 . S
C435 H427 0.930 . S
C435 C436 1.355 . S
C435 C437 1.415 . S
C436 C435 1.355 . S
C436 C438 1.419 . S
C437 C432 1.425 . S
C437 C434 1.409 . S
C437 C435 1.415 . S
C438 H428 0.930 . S
C438 C436 1.419 . S
C438 C439 1.362 . S
C439 H429 0.930 . S
C439 C432 1.409 . S
C439 C438 1.362 . S
H440 C446 0.930 . S
H441 C449 0.930 . S
H442 C450 0.930 . S
H443 C451 0.930 . S
H444 C454 0.930 . S
H445 C455 0.930 . S
C446 H440 0.930 . S
C446 C447 1.355 . S
C446 C448 1.415 . S
C447 C446 1.355 . S
C447 C449 1.419 . S
C448 C446 1.415 . S
C448 C453 1.425 . S
C448 C455 1.409 . S
C449 H441 0.930 . S
C449 C447 1.419 . S
C449 C450 1.362 . S
C450 H442 0.930 . S
C450 C449 1.362 . S
C450 C453 1.409 . S
C451 H443 0.930 . S
C451 C452 1.355 . S
C451 C453 1.415 . S
C452 C451 1.355 . S
C452 C454 1.419 . S
C453 C448 1.425 . S
C453 C450 1.409 . S
C453 C451 1.415 . S
C454 H444 0.930 . S
C454 C452 1.419 . S
C454 C455 1.362 . S
C455 H445 0.930 . S
C455 C448 1.409 . S
C455 C454 1.362 . S
H456 C462 0.930 . S
H457 C465 0.930 . S
H458 C466 0.930 . S
H459 C467 0.930 . S
H460 C470 0.930 . S
H461 C471 0.930 . S
C462 H456 0.930 . S
C462 C463 1.355 . S
C462 C464 1.415 . S
C463 C462 1.355 . S
C463 C465 1.419 . S
C464 C462 1.415 . S
C464 C469 1.425 . S
C464 C471 1.409 . S
C465 H457 0.930 . S
C465 C463 1.419 . S
C465 C466 1.362 . S
C466 H458 0.930 . S
C466 C465 1.362 . S
C466 C469 1.409 . S
C467 H459 0.930 . S
C467 C468 1.355 . S
C467 C469 1.415 . S
C468 C467 1.355 . S
C468 C470 1.419 . S
C469 C464 1.425 . S
C469 C466 1.409 . S
C469 C467 1.415 . S
C470 H460 0.930 . S
C470 C468 1.419 . S
C470 C471 1.362 . S
C471 H461 0.930 . S
C471 C464 1.409 . S
C471 C470 1.362 . S
H472 C478 0.930 . S
H473 C481 0.930 . S
H474 C482 0.930 . S
H475 C483 0.930 . S
H476 C486 0.930 . S
H477 C487 0.930 . S
C478 H472 0.930 . S
C478 C479 1.355 . S
C478 C480 1.415 . S
C479 C478 1.355 . S
C479 C481 1.419 . S
C480 C478 1.415 . S
C480 C485 1.425 . S
C480 C487 1.409 . S
C481 H473 0.930 . S
C481 C479 1.419 . S
C481 C482 1.362 . S
C482 H474 0.930 . S
C482 C481 1.362 . S
C482 C485 1.409 . S
C483 H475 0.930 . S
C483 C484 1.355 . S
C483 C485 1.415 . S
C484 C483 1.355 . S
C484 C486 1.419 . S
C485 C480 1.425 . S
C485 C482 1.409 . S
C485 C483 1.415 . S
C486 H476 0.930 . S
C486 C484 1.419 . S
C486 C487 1.362 . S
C487 H477 0.930 . S
C487 C480 1.409 . S
C487 C486 1.362 . S
H488 C494 0.930 . S
H489 C497 0.930 . S
H490 C498 0.930 . S
H491 C499 0.930 . S
H492 C502 0.930 . S
H493 C503 0.930 . S
C494 H488 0.930 . S
C494 C495 1.355 . S
C494 C496 1.415 . S
C495 C494 1.355 . S
C495 C497 1.419 . S
C496 C494 1.415 . S
C496 C501 1.425 . S
C496 C503 1.409 . S
C497 H489 0.930 . S
C497 C495 1.419 . S
C497 C498 1.362 . S
C498 H490 0.930 . S
C498 C497 1.362 . S
C498 C501 1.409 . S
C499 H491 0.930 . S
C499 C500 1.355 . S
C499 C501 1.415 . S
C500 C499 1.355 . S
C500 C502 1.419 . S
C501 C496 1.425 . S
C501 C498 1.409 . S
C501 C499 1.415 . S
C502 H492 0.930 . S
C502 C500 1.419 . S
C502 C503 1.362 . S
C503 H493 0.930 . S
C503 C496 1.409 . S
C503 C502 1.362 . S
H504 C510 0.930 . S
H505 C513 0.930 . S
H506 C514 0.930 . S
H507 C515 0.930 . S
H508 C518 0.930 . S
H509 C519 0.930 . S
C510 H504 0.930 . S
C510 C511 1.355 . S
C510 C512 1.415 . S
C511 C510 1.355 . S
C511 C513 1.419 . S
C512 C510 1.415 . S
C512 C517 1.425 . S
C512 C519 1.409 . S
C513 H505 0.930 . S
C513 C511 1.419 . S
C513 C514 1.362 . S
C514 H506 0.930 . S
C514 C513 1.362 . S
C514 C517 1.409 . S
C515 H507 0.930 . S
C515 C516 1.355 . S
C515 C517 1.415 . S
C516 C515 1.355 . S
C516 C518 1.419 . S
C517 C512 1.425 . S
C517 C514 1.409 . S
C517 C515 1.415 . S
C518 H508 0.930 . S
C518 C516 1.419 . S
C518 C519 1.362 . S
C519 H509 0.930 . S
C519 C512 1.409 . S
C519 C518 1.362 . S
H520 C526 0.930 . S
H521 C529 0.930 . S
H522 C530 0.930 . S
H523 C531 0.930 . S
H524 C534 0.930 . S
H525 C535 0.930 . S
C526 H520 0.930 . S
C526 C527 1.355 . S
C526 C528 1.415 . S
C527 C526 1.355 . S
C527 C529 1.419 . S
C528 C526 1.415 . S
C528 C533 1.425 . S
C528 C535 1.409 . S
C529 H521 0.930 . S
C529 C527 1.419 . S
C529 C530 1.362 . S
C530 H522 0.930 . S
C530 C529 1.362 . S
C530 C533 1.409 . S
C531 H523 0.930 . S
C531 C532 1.355 . S
C531 C533 1.415 . S
C532 C531 1.355 . S
C532 C534 1.419 . S
C533 C528 1.425 . S
C533 C530 1.409 . S
C533 C531 1.415 . S
C534 H524 0.930 . S
C534 C532 1.419 . S
C534 C535 1.362 . S
C535 H525 0.930 . S
C535 C528 1.409 . S
C535 C534 1.362 . S
H536 C542 0.930 . S
H537 C545 0.930 . S
H538 C546 0.930 . S
H539 C547 0.930 . S
H540 C550 0.930 . S
H541 C551 0.930 . S
C542 H536 0.930 . S
C542 C543 1.355 . S
C542 C544 1.415 . S
C543 C542 1.355 . S
C543 C545 1.419 . S
C544 C542 1.415 . S
C544 C549 1.425 . S
C544 C551 1.409 . S
C545 H537 0.930 . S
C545 C543 1.419 . S
C545 C546 1.362 . S
C546 H538 0.930 . S
C546 C545 1.362 . S
C546 C549 1.409 . S
C547 H539 0.930 . S
C547 C548 1.355 . S
C547 C549 1.415 . S
C548 C547 1.355 . S
C548 C550 1.419 . S
C549 C544 1.425 . S
C549 C546 1.409 . S
C549 C547 1.415 . S
C550 H540 0.930 . S
C550 C548 1.419 . S
C550 C551 1.362 . S
C551 H541 0.930 . S
C551 C544 1.409 . S
C551 C550 1.362 . S
H552 C558 0.930 . S
H553 C561 0.930 . S
H554 C562 0.930 . S
H555 C563 0.930 . S
H556 C566 0.930 . S
H557 C567 0.930 . S
C558 H552 0.930 . S
C558 C559 1.355 . S
C558 C560 1.415 . S
C559 C558 1.355 . S
C559 C561 1.419 . S
C560 C558 1.415 . S
C560 C565 1.425 . S
C560 C567 1.409 . S
C561 H553 0.930 . S
C561 C559 1.419 . S
C561 C562 1.362 . S
C562 H554 0.930 . S
C562 C561 1.362 . S
C562 C565 1.409 . S
C563 H555 0.930 . S
C563 C564 1.355 . S
C563 C565 1.415 . S
C564 C563 1.355 . S
C564 C566 1.419 . S
C565 C560 1.425 . S
C565 C562 1.409 . S
C565 C563 1.415 . S
C566 H556 0.930 . S
C566 C564 1.419 . S
C566 C567 1.362 . S
C567 H557 0.930 . S
C567 C560 1.409 . S
C567 C566 1.362 . S
H568 C574 0.930 . S
H569 C577 0.930 . S
H570 C578 0.930 . S
H571 C579 0.930 . S
H572 C582 0.930 . S
H573 C583 0.930 . S
C574 H568 0.930 . S
C574 C575 1.355 . S
C574 C576 1.415 . S
C575 C574 1.355 . S
C575 C577 1.419 . S
C576 C574 1.415 . S
C576 C581 1.425 . S
C576 C583 1.409 . S
C577 H569 0.930 . S
C577 C575 1.419 . S
C577 C578 1.362 . S
C578 H570 0.930 . S
C578 C577 1.362 . S
C578 C581 1.409 . S
C579 H571 0.930 . S
C579 C580 1.355 . S
C579 C581 1.415 . S
C580 C579 1.355 . S
C580 C582 1.419 . S
C581 C576 1.425 . S
C581 C578 1.409 . S
C581 C579 1.415 . S
C582 H572 0.930 . S
C582 C580 1.419 . S
C582 C583 1.362 . S
C583 H573 0.930 . S
C583 C576 1.409 . S
C583 C582 1.362 . S
C271 N145 1.570 . S
C276 N13 1.570 . S
C287 N46 1.593 . S
C292 N178 1.593 . S
C303 N79 1.567 . S
C308 N211 1.567 . S
C319 N244 1.614 . S
C324 N112 1.614 . S
C335 N233 0.869 . S
C340 C21 0.820 . S
C351 N134 0.873 1_655 S
C356 C54 0.887 . S
C367 N167 0.856 . S
C372 C87 0.805 . S
C383 N200 0.879 . S
C388 C120 0.886 . S
C399 C153 0.876 . S
C404 N101 0.833 1_565 S
C415 C186 0.825 . S
C420 N2 0.771 . S
C431 C219 0.780 . S
C436 N35 0.756 . S
C447 C252 0.859 . S
C452 N68 0.805 . S
C463 C18 1.581 . S
C468 C84 1.572 . S
C479 C51 1.533 . S
C484 C117 1.542 . S
C495 C216 1.569 . S
C500 C150 1.581 . S
C511 C249 1.581 . S
C516 C183 1.570 . S
C527 C73 1.137 . S
C532 C7 1.206 . S
C543 C40 1.156 . S
C548 C106 1.256 . S
C559 C205 1.230 . S
C564 C139 1.263 . S
C575 C238 1.137 . S
C580 C172 1.221 . S
