# Generated by pormake.
# Topology ukf, (4)-cn, num edge types: 1
# Building blocks:
#     Node 0, Type 0, BuildingBlock: GALJAG_clean_sbu_0, # of connection points: 4
#     Node 1, Type 0, BuildingBlock: GALJAG_clean_sbu_0, # of connection points: 4
#     Node 2, Type 0, BuildingBlock: GALJAG_clean_sbu_0, # of connection points: 4
#     Node 3, Type 0, BuildingBlock: GALJAG_clean_sbu_0, # of connection points: 4
#     Node 4, Type 0, BuildingBlock: GALJAG_clean_sbu_0, # of connection points: 4
#     Node 5, Type 0, BuildingBlock: GALJAG_clean_sbu_0, # of connection points: 4
#     Node 6, Type 0, BuildingBlock: GALJAG_clean_sbu_0, # of connection points: 4
#     Node 7, Type 0, BuildingBlock: GALJAG_clean_sbu_0, # of connection points: 4
#     Node 8, Type 0, BuildingBlock: GALJAG_clean_sbu_0, # of connection points: 4
#     Node 9, Type 0, BuildingBlock: GALJAG_clean_sbu_0, # of connection points: 4
#     Node 10, Type 0, BuildingBlock: GALJAG_clean_sbu_0, # of connection points: 4
#     Node 11, Type 0, BuildingBlock: GALJAG_clean_sbu_0, # of connection points: 4
#     Edge 12, Type (0, 0), BuildingBlock: AJUNOK_clean_linker_0, # of connection points: 2
#     Edge 13, Type (0, 0), BuildingBlock: AJUNOK_clean_linker_0, # of connection points: 2
#     Edge 14, Type (0, 0), BuildingBlock: AJUNOK_clean_linker_0, # of connection points: 2
#     Edge 15, Type (0, 0), BuildingBlock: AJUNOK_clean_linker_0, # of connection points: 2
#     Edge 16, Type (0, 0), BuildingBlock: AJUNOK_clean_linker_0, # of connection points: 2
#     Edge 17, Type (0, 0), BuildingBlock: AJUNOK_clean_linker_0, # of connection points: 2
#     Edge 18, Type (0, 0), BuildingBlock: AJUNOK_clean_linker_0, # of connection points: 2
#     Edge 19, Type (0, 0), BuildingBlock: AJUNOK_clean_linker_0, # of connection points: 2
#     Edge 20, Type (0, 0), BuildingBlock: AJUNOK_clean_linker_0, # of connection points: 2
#     Edge 21, Type (0, 0), BuildingBlock: AJUNOK_clean_linker_0, # of connection points: 2
#     Edge 22, Type (0, 0), BuildingBlock: AJUNOK_clean_linker_0, # of connection points: 2
#     Edge 23, Type (0, 0), BuildingBlock: AJUNOK_clean_linker_0, # of connection points: 2
#     Edge 24, Type (0, 0), BuildingBlock: AJUNOK_clean_linker_0, # of connection points: 2
#     Edge 25, Type (0, 0), BuildingBlock: AJUNOK_clean_linker_0, # of connection points: 2
#     Edge 26, Type (0, 0), BuildingBlock: AJUNOK_clean_linker_0, # of connection points: 2
#     Edge 27, Type (0, 0), BuildingBlock: AJUNOK_clean_linker_0, # of connection points: 2
#     Edge 28, Type (0, 0), BuildingBlock: AJUNOK_clean_linker_0, # of connection points: 2
#     Edge 29, Type (0, 0), BuildingBlock: AJUNOK_clean_linker_0, # of connection points: 2
#     Edge 30, Type (0, 0), BuildingBlock: AJUNOK_clean_linker_0, # of connection points: 2
#     Edge 31, Type (0, 0), BuildingBlock: AJUNOK_clean_linker_0, # of connection points: 2
#     Edge 32, Type (0, 0), BuildingBlock: AJUNOK_clean_linker_0, # of connection points: 2
#     Edge 33, Type (0, 0), BuildingBlock: AJUNOK_clean_linker_0, # of connection points: 2
#     Edge 34, Type (0, 0), BuildingBlock: AJUNOK_clean_linker_0, # of connection points: 2
#     Edge 35, Type (0, 0), BuildingBlock: AJUNOK_clean_linker_0, # of connection points: 2
# Relax obj value: 0.079
# Max RMSD: 0.071
# Mean RMSD: 0.071
data_MOF--net-ukf--node1-GALJAG_clean_sbu_0--edge1-AJUNOK_clean_linker_0
_symmetry_space_group_name_H-M    P1
_symmetry_Int_Tables_number       1
_symmetry_cell_setting            triclinic
loop_
_symmetry_equiv_pos_as_xyz
'x, y, z'
_cell_length_a     23.122027
_cell_length_b     23.106745
_cell_length_c     50.418451
_cell_angle_alpha  90.002939
_cell_angle_beta   89.968304
_cell_angle_gamma 119.88884
loop_
_atom_site_label
_atom_site_type_symbol
_atom_site_fract_x
_atom_site_fract_y
_atom_site_fract_z
_atom_type_partial_charge
In0 In 0.417 0.23239 0.06288 0.0
O1 O 0.43051 0.19228 0.10223 0.0
O2 O 0.37462 0.24287 0.10231 0.0
C3 C 0.51132 0.22116 0.03593 0.0
C4 C 0.46596 0.36606 0.05975 0.0
C5 C 0.30907 0.12889 0.03949 0.0
O6 O 0.50815 0.21864 0.06097 0.0
O7 O 0.46726 0.22955 0.02483 0.0
O8 O 0.33528 0.1879 0.03073 0.0
O9 O 0.33428 0.12356 0.06085 0.0
C10 C 0.39864 0.21344 0.11562 0.0
O11 O 0.40471 0.32443 0.05614 0.0
O12 O 0.50124 0.33992 0.06482 0.0
In13 In 0.19583 0.41267 0.39599 0.0
O14 O 0.08934 0.39673 0.39008 0.0
O15 O 0.16777 0.49273 0.40104 0.0
C16 C 0.18892 0.30574 0.3703 0.0
C17 C 0.20443 0.40355 0.449 0.0
C18 C 0.30161 0.50641 0.36911 0.0
O19 O 0.16341 0.33865 0.36092 0.0
O20 O 0.21322 0.32399 0.39314 0.0
O21 O 0.30845 0.47565 0.38845 0.0
O22 O 0.24232 0.48987 0.36354 0.0
C23 C 0.10706 0.45712 0.39519 0.0
O24 O 0.24805 0.45145 0.43547 0.0
O25 O 0.15608 0.35946 0.43576 0.0
In26 In 0.79299 0.19122 0.73088 0.0
O27 O 0.70177 0.0846 0.72708 0.0
O28 O 0.68507 0.16663 0.72885 0.0
C29 C 0.89677 0.19029 0.70621 0.0
C30 C 0.81087 0.19747 0.78392 0.0
C31 C 0.81063 0.29845 0.70354 0.0
O32 O 0.83697 0.15329 0.69896 0.0
O33 O 0.90328 0.22317 0.72706 0.0
O34 O 0.81781 0.29969 0.72841 0.0
O35 O 0.79413 0.24319 0.69272 0.0
C36 C 0.65962 0.1044 0.72702 0.0
O37 O 0.80313 0.23976 0.77091 0.0
O38 O 0.81028 0.15145 0.77012 0.0
In39 In 0.60899 0.78605 0.06491 0.0
O40 O 0.63131 0.69903 0.06195 0.0
O41 O 0.53069 0.67636 0.06092 0.0
C42 C 0.71441 0.89231 0.04149 0.0
C43 C 0.61371 0.79907 0.11821 0.0
C44 C 0.51626 0.80185 0.03894 0.0
O45 O 0.68936 0.8337 0.03245 0.0
O46 O 0.6891 0.89628 0.06308 0.0
O47 O 0.52568 0.81139 0.06359 0.0
O48 O 0.55387 0.78466 0.02748 0.0
C49 C 0.57056 0.65427 0.06048 0.0
O50 O 0.56486 0.79094 0.10433 0.0
O51 O 0.66174 0.80183 0.10513 0.0
In52 In 0.8328 0.6045 0.39761 0.0
O53 O 0.94095 0.62458 0.39342 0.0
O54 O 0.86261 0.52435 0.39619 0.0
C55 C 0.83016 0.71098 0.37613 0.0
C56 C 0.82605 0.61375 0.45072 0.0
C57 C 0.72888 0.5146 0.36885 0.0
O58 O 0.86825 0.69065 0.3674 0.0
O59 O 0.79684 0.67996 0.39628 0.0
O60 O 0.72562 0.51942 0.3937 0.0
O61 O 0.7846 0.55482 0.35872 0.0
C62 C 0.92439 0.56346 0.39411 0.0
O63 O 0.78431 0.56379 0.43757 0.0
O64 O 0.87167 0.65972 0.43705 0.0
In65 In 0.23927 0.83102 0.72998 0.0
O66 O 0.32702 0.93922 0.72575 0.0
O67 O 0.34882 0.86066 0.72863 0.0
C68 C 0.13211 0.83012 0.70751 0.0
C69 C 0.22502 0.82263 0.78315 0.0
C70 C 0.22496 0.726 0.70179 0.0
O71 O 0.1907 0.86598 0.69874 0.0
O72 O 0.1286 0.79859 0.72842 0.0
O73 O 0.21559 0.7231 0.72654 0.0
O74 O 0.24179 0.78186 0.69144 0.0
C75 C 0.37144 0.92247 0.72642 0.0
O76 O 0.23161 0.78077 0.76933 0.0
O77 O 0.22409 0.8689 0.77009 0.0
In78 In 0.79163 0.60428 0.61885 0.0
O79 O 0.79809 0.56402 0.57867 0.0
O80 O 0.80875 0.66093 0.57956 0.0
C81 C 0.81004 0.51344 0.64498 0.0
C82 C 0.65848 0.559 0.62277 0.0
C83 C 0.89485 0.70975 0.64341 0.0
O84 O 0.82192 0.52449 0.62049 0.0
O85 O 0.78924 0.54847 0.65613 0.0
O86 O 0.83521 0.68512 0.65122 0.0
O87 O 0.90134 0.68438 0.62227 0.0
C88 C 0.80699 0.61447 0.56569 0.0
O89 O 0.70095 0.62074 0.62257 0.0
O90 O 0.68353 0.52176 0.62118 0.0
In91 In 0.19786 0.78883 0.95136 0.0
O92 O 0.25003 0.80046 0.91215 0.0
O93 O 0.15909 0.80255 0.91119 0.0
C94 C 0.30286 0.80467 0.9799 0.0
C95 C 0.1109 0.65534 0.95458 0.0
C96 C 0.19446 0.89292 0.97477 0.0
O97 O 0.3063 0.81477 0.95518 0.0
O98 O 0.24655 0.78667 0.99005 0.0
O99 O 0.15769 0.83324 0.98225 0.0
O100 O 0.22879 0.89913 0.95441 0.0
C101 C 0.20698 0.80467 0.89823 0.0
O102 O 0.09124 0.69762 0.95487 0.0
O103 O 0.1731 0.68076 0.95279 0.0
In104 In 0.41916 0.1945 0.28311 0.0
O105 O 0.43104 0.24907 0.24422 0.0
O106 O 0.37932 0.14284 0.24313 0.0
C107 C 0.51413 0.30193 0.30889 0.0
C108 C 0.46842 0.10977 0.287 0.0
C109 C 0.31035 0.18894 0.30657 0.0
O110 O 0.51055 0.29877 0.28389 0.0
O111 O 0.46983 0.25092 0.3207 0.0
O112 O 0.33708 0.15648 0.31524 0.0
O113 O 0.33544 0.21954 0.28522 0.0
C114 C 0.40085 0.19681 0.23038 0.0
O115 O 0.40673 0.08991 0.28936 0.0
O116 O 0.50409 0.17146 0.28273 0.0
In117 In 0.23903 0.41661 0.61716 0.0
O118 O 0.23593 0.45735 0.57663 0.0
O119 O 0.22025 0.35853 0.57816 0.0
C120 C 0.22467 0.51039 0.64303 0.0
C121 C 0.37079 0.45592 0.62166 0.0
C122 C 0.13215 0.31244 0.64073 0.0
O123 O 0.21392 0.50015 0.61846 0.0
O124 O 0.24221 0.47303 0.65444 0.0
O125 O 0.19101 0.33495 0.64916 0.0
O126 O 0.12814 0.34 0.61977 0.0
C127 C 0.22471 0.40571 0.56396 0.0
O128 O 0.32594 0.39504 0.62242 0.0
O129 O 0.34879 0.49553 0.61887 0.0
In130 In 0.83593 0.23506 0.95199 0.0
O131 O 0.94434 0.32245 0.95586 0.0
O132 O 0.86628 0.34491 0.953 0.0
C133 C 0.83368 0.12986 0.97706 0.0
C134 C 0.83024 0.21752 0.89891 0.0
C135 C 0.72867 0.22266 0.97788 0.0
O136 O 0.86997 0.18937 0.98479 0.0
O137 O 0.80256 0.1243 0.95582 0.0
O138 O 0.72752 0.20989 0.95348 0.0
O139 O 0.78388 0.24135 0.98915 0.0
C140 C 0.928 0.36718 0.95508 0.0
O141 O 0.78949 0.22798 0.91174 0.0
O142 O 0.87444 0.21524 0.91291 0.0
In143 In 0.61117 0.83197 0.28644 0.0
O144 O 0.56678 0.77971 0.24746 0.0
O145 O 0.66271 0.86673 0.24594 0.0
C146 C 0.51678 0.72505 0.31259 0.0
C147 C 0.57378 0.9263 0.28782 0.0
C148 C 0.71531 0.83663 0.31345 0.0
O149 O 0.55049 0.7193 0.29415 0.0
O150 O 0.53043 0.78392 0.31754 0.0
O151 O 0.68139 0.86136 0.32248 0.0
O152 O 0.70023 0.81505 0.29007 0.0
C153 C 0.61499 0.82029 0.23327 0.0
O154 O 0.6341 0.94131 0.29097 0.0
O155 O 0.53428 0.86512 0.28395 0.0
C156 C 0.23926 0.01584 0.97974 0.0
C157 C 0.20732 0.95166 0.99115 0.0
C158 C 0.26654 0.07359 0.99555 0.0
C159 C 0.26408 0.06931 0.02341 0.0
H160 H 0.24651 0.0216 0.95846 0.0
H161 H 0.29422 0.1217 0.98588 0.0
S162 S 0.17911 0.91349 0.06306 0.0
N163 N 0.16862 0.88755 0.032 0.0
N164 N 0.22115 0.99584 0.06166 0.0
C165 C 0.22806 1.00558 0.03499 0.0
C166 C 0.19931 0.94681 0.01888 0.0
C167 C 0.20525 0.26601 0.32623 0.0
C168 C 0.20292 0.26039 0.35404 0.0
C169 C 0.2354 0.2378 0.31071 0.0
C170 C 0.26373 0.2022 0.32235 0.0
H171 H 0.18829 0.29664 0.31647 0.0
H172 H 0.24009 0.2475 0.28957 0.0
S173 S 0.25962 0.16296 0.39395 0.0
N174 N 0.2235 0.20908 0.39227 0.0
N175 N 0.27928 0.15544 0.36314 0.0
C176 C 0.25586 0.19075 0.34988 0.0
C177 C 0.22575 0.22006 0.36571 0.0
C178 C 0.01929 0.23485 0.70025 0.0
C179 C 0.95501 0.20568 0.68909 0.0
C180 C 0.07672 0.26428 0.68425 0.0
C181 C 0.07205 0.267 0.65649 0.0
H182 H 0.02538 0.23796 0.7216 0.0
H183 H 0.12503 0.28921 0.69386 0.0
S184 S 0.91556 0.19221 0.61723 0.0
N185 N 0.8902 0.17607 0.64836 0.0
N186 N 0.99788 0.23266 0.61839 0.0
C187 C 1.0081 0.2343 0.64499 0.0
C188 C 0.94964 0.20327 0.66126 0.0
C189 C 0.75812 0.94869 0.99779 0.0
C190 C 0.75918 0.95254 0.02566 0.0
C191 C 0.78662 1.00663 0.98208 0.0
C192 C 0.81843 0.07066 0.99361 0.0
H193 H 0.73097 0.90073 0.98798 0.0
H194 H 0.78071 1.00116 0.96076 0.0
S195 S 0.8433 0.10773 0.06568 0.0
N196 N 0.80058 0.02542 0.0641 0.0
N197 N 0.85545 0.13414 0.03465 0.0
C198 C 0.8248 0.07508 0.02141 0.0
C199 C 0.79479 0.01607 0.03741 0.0
C200 C 0.79599 0.79467 0.31842 0.0
C201 C 0.75857 0.82078 0.33025 0.0
C202 C 0.82434 0.76426 0.3337 0.0
C203 C 0.81558 0.75794 0.36137 0.0
H204 H 0.80028 0.79429 0.29703 0.0
H205 H 0.84908 0.74132 0.32351 0.0
S206 S 0.73061 0.82656 0.40248 0.0
N207 N 0.72147 0.84533 0.37174 0.0
N208 N 0.77365 0.78729 0.4003 0.0
C209 C 0.78281 0.78837 0.37363 0.0
C210 C 0.75468 0.8201 0.35812 0.0
C211 C 0.01744 0.78848 0.64835 0.0
C212 C 0.95353 0.75467 0.65994 0.0
C213 C 0.07539 0.81849 0.66401 0.0
C214 C 0.07166 0.81467 0.69187 0.0
H215 H 0.02289 0.78873 0.627 0.0
H216 H 0.12337 0.8404 0.65414 0.0
S217 S 0.91665 0.7393 0.73208 0.0
N218 N 0.89014 0.72565 0.70107 0.0
N219 N 0.99892 0.78052 0.73041 0.0
C220 C 1.00815 0.78521 0.7037 0.0
C221 C 0.94911 0.75567 0.68777 0.0
C222 C 0.67225 0.22292 0.02 0.0
C223 C 0.67088 0.21836 0.99216 0.0
C224 C 0.61966 0.22218 0.03407 0.0
C225 C 0.56408 0.21751 0.02078 0.0
H226 H 0.71453 0.22762 0.03107 0.0
H227 H 0.62332 0.22667 0.05547 0.0
S228 S 0.53516 0.20206 0.94802 0.0
N229 N 0.60837 0.20697 0.95182 0.0
N230 N 0.50969 0.20604 0.97821 0.0
C231 C 0.56148 0.2117 0.99295 0.0
C232 C 0.61483 0.21196 0.97865 0.0
C233 C 0.35404 0.61759 0.34794 0.0
C234 C 0.35796 0.56088 0.355 0.0
C235 C 0.40623 0.67064 0.3344 0.0
C236 C 0.46315 0.66782 0.32671 0.0
H237 H 0.31064 0.62141 0.35328 0.0
H238 H 0.40155 0.71384 0.32959 0.0
S239 S 0.49687 0.52956 0.33993 0.0
N240 N 0.42306 0.50466 0.35352 0.0
N241 N 0.52055 0.60373 0.3269 0.0
C242 C 0.46742 0.61099 0.33328 0.0
C243 C 0.41493 0.55763 0.3478 0.0
C244 C 0.81094 0.40623 0.70149 0.0
C245 C 0.81691 0.35582 0.68839 0.0
C246 C 0.81032 0.45789 0.68726 0.0
C247 C 0.81648 0.46142 0.65945 0.0
H248 H 0.8045 0.40466 0.72281 0.0
H249 H 0.80385 0.4947 0.69814 0.0
S250 S 0.83996 0.34493 0.61608 0.0
N251 N 0.83354 0.31472 0.64629 0.0
N252 N 0.83311 0.41233 0.6195 0.0
C253 C 0.82542 0.41289 0.64621 0.0
C254 C 0.82538 0.35988 0.6607 0.0
C255 C 0.41242 0.80877 0.98236 0.0
C256 C 0.35905 0.80935 0.99545 0.0
C257 C 0.46363 0.8075 0.99665 0.0
C258 C 0.46377 0.80762 0.02455 0.0
H259 H 0.4138 0.80739 0.9609 0.0
H260 H 0.50301 0.80564 0.98571 0.0
S261 S 0.33774 0.8138 0.06825 0.0
N262 N 0.31087 0.81323 0.03787 0.0
N263 N 0.40762 0.81159 0.06477 0.0
C264 C 0.4119 0.81057 0.0379 0.0
C265 C 0.35936 0.81119 0.02333 0.0
C266 C 0.56647 0.35942 0.35135 0.0
C267 C 0.56738 0.35925 0.32344 0.0
C268 C 0.6181 0.4108 0.36585 0.0
C269 C 0.67284 0.46375 0.353 0.0
H270 H 0.52601 0.31901 0.36217 0.0
H271 H 0.61576 0.40807 0.38731 0.0
S272 S 0.69686 0.48949 0.28026 0.0
N273 N 0.62584 0.41859 0.28346 0.0
N274 N 0.72316 0.5151 0.31074 0.0
C275 C 0.67351 0.46532 0.3251 0.0
C276 C 0.62069 0.41311 0.31031 0.0
C277 C 0.2217 0.56476 0.68527 0.0
C278 C 0.21987 0.56353 0.65738 0.0
C279 C 0.22134 0.61656 0.69949 0.0
C280 C 0.22001 0.66948 0.68634 0.0
H281 H 0.22416 0.52574 0.69625 0.0
H282 H 0.22392 0.61596 0.72094 0.0
S283 S 0.2112 0.68804 0.61357 0.0
N284 N 0.21355 0.61821 0.61712 0.0
N285 N 0.21366 0.71612 0.64389 0.0
C286 C 0.21655 0.66814 0.65848 0.0
C287 C 0.21622 0.61498 0.64398 0.0
C288 C 0.39491 0.15381 0.15749 0.0
C289 C 0.39336 0.20726 0.14482 0.0
C290 C 0.3945 0.14928 0.18526 0.0
C291 C 0.39451 0.1991 0.20128 0.0
H292 H 0.3969 0.11541 0.14587 0.0
H293 H 0.39664 0.10777 0.19422 0.0
S294 S 0.38901 0.34846 0.17787 0.0
N295 N 0.38939 0.30973 0.15039 0.0
N296 N 0.391 0.30246 0.20254 0.0
C297 C 0.39207 0.2523 0.18886 0.0
C298 C 0.39082 0.25604 0.16063 0.0
C299 C 0.24653 0.46148 0.49227 0.0
C300 C 0.20899 0.40149 0.47823 0.0
C301 C 0.25087 0.46203 0.51997 0.0
C302 C 0.21915 0.40249 0.53471 0.0
H303 H 0.27196 0.50868 0.48181 0.0
H304 H 0.27986 0.5096 0.52989 0.0
S305 S 0.11596 0.23184 0.50748 0.0
N306 N 0.13957 0.28081 0.4811 0.0
N307 N 0.14944 0.28171 0.53327 0.0
C308 C 0.18227 0.34195 0.52095 0.0
C309 C 0.17666 0.3415 0.49269 0.0
C310 C 0.79468 0.23891 0.85518 0.0
C311 C 0.82694 0.21116 0.86966 0.0
C312 C 0.79052 0.23458 0.8275 0.0
C313 C 0.81713 0.20103 0.81316 0.0
H314 H 0.77302 0.26499 0.86528 0.0
H315 H 0.76542 0.25709 0.81728 0.0
S316 S 0.90601 0.119 0.84158 0.0
N317 N 0.88641 0.14921 0.86762 0.0
N318 N 0.87681 0.13935 0.81545 0.0
C319 C 0.84901 0.17242 0.82734 0.0
C320 C 0.85448 0.17803 0.85561 0.0
C321 C 0.67382 0.8343 0.16184 0.0
C322 C 0.61356 0.80391 0.14752 0.0
C323 C 0.67417 0.84027 0.1896 0.0
C324 C 0.61422 0.81457 0.20401 0.0
H325 H 0.72105 0.8544 0.15151 0.0
H326 H 0.72162 0.86438 0.19987 0.0
S327 S 0.44314 0.73024 0.17595 0.0
N328 N 0.49246 0.74827 0.1499 0.0
N329 N 0.49317 0.75804 0.20191 0.0
C330 C 0.55373 0.78364 0.18994 0.0
C331 C 0.55339 0.77871 0.16173 0.0
C332 C 0.78482 0.55677 0.52208 0.0
C333 C 0.81264 0.61692 0.53643 0.0
C334 C 0.78887 0.55656 0.49438 0.0
C335 C 0.82223 0.61647 0.47995 0.0
H336 H 0.75899 0.50926 0.53231 0.0
H337 H 0.76641 0.50891 0.48424 0.0
S338 S 0.90413 0.78756 0.50804 0.0
N339 N 0.87427 0.73812 0.53417 0.0
N340 N 0.88361 0.73773 0.482 0.0
C341 C 0.85076 0.67708 0.49401 0.0
C342 C 0.84543 0.67731 0.52227 0.0
C343 C 0.18202 0.83975 0.85455 0.0
C344 C 0.21172 0.8092 0.86895 0.0
C345 C 0.18729 0.84502 0.82675 0.0
C346 C 0.22084 0.81828 0.81244 0.0
H347 H 0.15535 0.86049 0.86484 0.0
H348 H 0.16412 0.86926 0.81638 0.0
S349 S 0.30616 0.73247 0.84083 0.0
N350 N 0.27587 0.75199 0.86681 0.0
N351 N 0.28416 0.76026 0.81477 0.0
C352 C 0.25011 0.78711 0.82664 0.0
C353 C 0.24598 0.783 0.85485 0.0
C354 C 0.47752 0.53607 0.05637 0.0
C355 C 0.54637 0.58138 0.05917 0.0
C356 C 0.4521 0.46679 0.05618 0.0
C357 C 0.49439 0.43973 0.05888 0.0
H358 H 0.44256 0.55416 0.05452 0.0
H359 H 0.39872 0.43424 0.05424 0.0
S360 S 0.67893 0.53649 0.06603 0.0
N361 N 0.65659 0.59399 0.0641 0.0
N362 N 0.60917 0.46404 0.06382 0.0
C363 C 0.56354 0.48446 0.06133 0.0
C364 C 0.58942 0.55511 0.06144 0.0
C365 C 0.94864 0.46912 0.39137 0.0
C366 C 0.97248 0.53833 0.39338 0.0
C367 C 0.99223 0.44319 0.39166 0.0
C368 C 0.06149 0.48531 0.39421 0.0
H369 H 0.89563 0.43439 0.38968 0.0
H370 H 0.97133 0.38966 0.3902 0.0
S371 S 0.14981 0.67051 0.39949 0.0
N372 N 0.07021 0.64851 0.39744 0.0
N373 N 0.15209 0.60029 0.39817 0.0
C374 C 0.08609 0.55475 0.39596 0.0
C375 C 0.04169 0.5811 0.39548 0.0
C376 C 0.55896 0.98952 0.72714 0.0
C377 C 0.58611 0.05903 0.72568 0.0
C378 C 0.48966 0.9461 0.72706 0.0
C379 C 0.44448 0.97028 0.72546 0.0
H380 H 0.59141 0.96837 0.72871 0.0
H381 H 0.47143 0.89299 0.72853 0.0
S382 S 0.48982 0.14806 0.72002 0.0
N383 N 0.5621 0.15007 0.72169 0.0
N384 N 0.43221 0.06839 0.72155 0.0
C385 C 0.47092 0.0396 0.72351 0.0
C386 C 0.54154 0.08392 0.72362 0.0
C387 C 0.55852 0.57459 0.62216 0.0
C388 C 0.58504 0.53165 0.62383 0.0
C389 C 0.48932 0.54947 0.6218 0.0
C390 C 0.44364 0.48032 0.62317 0.0
H391 H 0.59139 0.62806 0.62072 0.0
H392 H 0.4716 0.58477 0.62017 0.0
S393 S 0.48718 0.34655 0.62902 0.0
N394 N 0.55986 0.41628 0.62777 0.0
N395 N 0.43016 0.36948 0.6271 0.0
C396 C 0.46942 0.43686 0.62536 0.0
C397 C 0.53994 0.46239 0.62569 0.0
C398 C 0.9959 0.55496 0.95558 0.0
C399 C 0.06541 0.58178 0.95564 0.0
C400 C 0.95224 0.48567 0.95568 0.0
C401 C 0.97616 0.44017 0.9559 0.0
H402 H 0.9749 0.58767 0.95518 0.0
H403 H 0.89911 0.4677 0.95539 0.0
S404 S 0.15396 0.48447 0.95684 0.0
N405 N 0.15628 0.55704 0.95646 0.0
N406 N 0.07412 0.42718 0.95667 0.0
C407 C 0.04553 0.46625 0.95632 0.0
C408 C 0.0901 0.53685 0.95618 0.0
C409 C 0.48004 0.95119 0.28816 0.0
C410 C 0.54933 0.97497 0.28854 0.0
C411 C 0.45441 0.99493 0.28814 0.0
C412 C 0.49689 0.06448 0.28828 0.0
H413 H 0.44494 0.89805 0.28777 0.0
H414 H 0.40079 0.97393 0.28761 0.0
S415 S 0.68226 0.15282 0.29004 0.0
N416 N 0.65995 0.0729 0.28972 0.0
N417 N 0.61212 0.1553 0.28946 0.0
C418 C 0.56635 0.0891 0.28897 0.0
C419 C 0.59245 0.04438 0.28917 0.0
loop_
_geom_bond_atom_site_label_1
_geom_bond_atom_site_label_2
_geom_bond_distance
_geom_bond_site_symmetry_2
_ccdc_geom_bond_type
In0 O1 2.294 . S
In0 O2 2.326 . S
In0 O6 2.266 . S
In0 O7 2.326 . S
In0 O8 2.266 . S
In0 O9 2.326 . S
In0 O11 2.294 . S
In0 O12 2.326 . S
O1 In0 2.294 . S
O1 C10 1.240 . S
O2 In0 2.326 . S
O2 C10 1.252 . S
C3 O6 1.252 . S
C3 O7 1.260 . S
C4 O11 1.240 . S
C4 O12 1.252 . S
C5 O8 1.252 . S
C5 O9 1.260 . S
O6 In0 2.266 . S
O6 C3 1.252 . S
O7 In0 2.326 . S
O7 C3 1.260 . S
O8 In0 2.266 . S
O8 C5 1.252 . S
O9 In0 2.326 . S
O9 C5 1.260 . S
C10 O1 1.240 . S
C10 O2 1.252 . S
O11 In0 2.294 . S
O11 C4 1.240 . S
O12 In0 2.326 . S
O12 C4 1.252 . S
In13 O14 2.294 . S
In13 O15 2.326 . S
In13 O19 2.266 . S
In13 O20 2.326 . S
In13 O21 2.266 . S
In13 O22 2.326 . S
In13 O24 2.294 . S
In13 O25 2.326 . S
O14 In13 2.294 . S
O14 C23 1.240 . S
O15 In13 2.326 . S
O15 C23 1.252 . S
C16 O19 1.252 . S
C16 O20 1.260 . S
C17 O24 1.240 . S
C17 O25 1.252 . S
C18 O21 1.252 . S
C18 O22 1.260 . S
O19 In13 2.266 . S
O19 C16 1.252 . S
O20 In13 2.326 . S
O20 C16 1.260 . S
O21 In13 2.266 . S
O21 C18 1.252 . S
O22 In13 2.326 . S
O22 C18 1.260 . S
C23 O14 1.240 . S
C23 O15 1.252 . S
O24 In13 2.294 . S
O24 C17 1.240 . S
O25 In13 2.326 . S
O25 C17 1.252 . S
In26 O27 2.294 . S
In26 O28 2.326 . S
In26 O32 2.266 . S
In26 O33 2.326 . S
In26 O34 2.266 . S
In26 O35 2.326 . S
In26 O37 2.294 . S
In26 O38 2.326 . S
O27 In26 2.294 . S
O27 C36 1.240 . S
O28 In26 2.326 . S
O28 C36 1.252 . S
C29 O32 1.252 . S
C29 O33 1.260 . S
C30 O37 1.240 . S
C30 O38 1.252 . S
C31 O34 1.252 . S
C31 O35 1.260 . S
O32 In26 2.266 . S
O32 C29 1.252 . S
O33 In26 2.326 . S
O33 C29 1.260 . S
O34 In26 2.266 . S
O34 C31 1.252 . S
O35 In26 2.326 . S
O35 C31 1.260 . S
C36 O27 1.240 . S
C36 O28 1.252 . S
O37 In26 2.294 . S
O37 C30 1.240 . S
O38 In26 2.326 . S
O38 C30 1.252 . S
In39 O40 2.294 . S
In39 O41 2.326 . S
In39 O45 2.266 . S
In39 O46 2.326 . S
In39 O47 2.266 . S
In39 O48 2.326 . S
In39 O50 2.294 . S
In39 O51 2.326 . S
O40 In39 2.294 . S
O40 C49 1.240 . S
O41 In39 2.326 . S
O41 C49 1.252 . S
C42 O45 1.252 . S
C42 O46 1.260 . S
C43 O50 1.240 . S
C43 O51 1.252 . S
C44 O47 1.252 . S
C44 O48 1.260 . S
O45 In39 2.266 . S
O45 C42 1.252 . S
O46 In39 2.326 . S
O46 C42 1.260 . S
O47 In39 2.266 . S
O47 C44 1.252 . S
O48 In39 2.326 . S
O48 C44 1.260 . S
C49 O40 1.240 . S
C49 O41 1.252 . S
O50 In39 2.294 . S
O50 C43 1.240 . S
O51 In39 2.326 . S
O51 C43 1.252 . S
In52 O53 2.294 . S
In52 O54 2.326 . S
In52 O58 2.266 . S
In52 O59 2.326 . S
In52 O60 2.266 . S
In52 O61 2.326 . S
In52 O63 2.294 . S
In52 O64 2.326 . S
O53 In52 2.294 . S
O53 C62 1.240 . S
O54 In52 2.326 . S
O54 C62 1.252 . S
C55 O58 1.252 . S
C55 O59 1.260 . S
C56 O63 1.240 . S
C56 O64 1.252 . S
C57 O60 1.252 . S
C57 O61 1.260 . S
O58 In52 2.266 . S
O58 C55 1.252 . S
O59 In52 2.326 . S
O59 C55 1.260 . S
O60 In52 2.266 . S
O60 C57 1.252 . S
O61 In52 2.326 . S
O61 C57 1.260 . S
C62 O53 1.240 . S
C62 O54 1.252 . S
O63 In52 2.294 . S
O63 C56 1.240 . S
O64 In52 2.326 . S
O64 C56 1.252 . S
In65 O66 2.294 . S
In65 O67 2.326 . S
In65 O71 2.266 . S
In65 O72 2.326 . S
In65 O73 2.266 . S
In65 O74 2.326 . S
In65 O76 2.294 . S
In65 O77 2.326 . S
O66 In65 2.294 . S
O66 C75 1.240 . S
O67 In65 2.326 . S
O67 C75 1.252 . S
C68 O71 1.252 . S
C68 O72 1.260 . S
C69 O76 1.240 . S
C69 O77 1.252 . S
C70 O73 1.252 . S
C70 O74 1.260 . S
O71 In65 2.266 . S
O71 C68 1.252 . S
O72 In65 2.326 . S
O72 C68 1.260 . S
O73 In65 2.266 . S
O73 C70 1.252 . S
O74 In65 2.326 . S
O74 C70 1.260 . S
C75 O66 1.240 . S
C75 O67 1.252 . S
O76 In65 2.294 . S
O76 C69 1.240 . S
O77 In65 2.326 . S
O77 C69 1.252 . S
In78 O79 2.294 . S
In78 O80 2.326 . S
In78 O84 2.266 . S
In78 O85 2.326 . S
In78 O86 2.266 . S
In78 O87 2.326 . S
In78 O89 2.294 . S
In78 O90 2.326 . S
O79 In78 2.294 . S
O79 C88 1.240 . S
O80 In78 2.326 . S
O80 C88 1.252 . S
C81 O84 1.252 . S
C81 O85 1.260 . S
C82 O89 1.240 . S
C82 O90 1.252 . S
C83 O86 1.252 . S
C83 O87 1.260 . S
O84 In78 2.266 . S
O84 C81 1.252 . S
O85 In78 2.326 . S
O85 C81 1.260 . S
O86 In78 2.266 . S
O86 C83 1.252 . S
O87 In78 2.326 . S
O87 C83 1.260 . S
C88 O79 1.240 . S
C88 O80 1.252 . S
O89 In78 2.294 . S
O89 C82 1.240 . S
O90 In78 2.326 . S
O90 C82 1.252 . S
In91 O92 2.294 . S
In91 O93 2.326 . S
In91 O97 2.266 . S
In91 O98 2.326 . S
In91 O99 2.266 . S
In91 O100 2.326 . S
In91 O102 2.294 . S
In91 O103 2.326 . S
O92 In91 2.294 . S
O92 C101 1.240 . S
O93 In91 2.326 . S
O93 C101 1.252 . S
C94 O97 1.252 . S
C94 O98 1.260 . S
C95 O102 1.240 . S
C95 O103 1.252 . S
C96 O99 1.252 . S
C96 O100 1.260 . S
O97 In91 2.266 . S
O97 C94 1.252 . S
O98 In91 2.326 . S
O98 C94 1.260 . S
O99 In91 2.266 . S
O99 C96 1.252 . S
O100 In91 2.326 . S
O100 C96 1.260 . S
C101 O92 1.240 . S
C101 O93 1.252 . S
O102 In91 2.294 . S
O102 C95 1.240 . S
O103 In91 2.326 . S
O103 C95 1.252 . S
In104 O105 2.294 . S
In104 O106 2.326 . S
In104 O110 2.266 . S
In104 O111 2.326 . S
In104 O112 2.266 . S
In104 O113 2.326 . S
In104 O115 2.294 . S
In104 O116 2.326 . S
O105 In104 2.294 . S
O105 C114 1.240 . S
O106 In104 2.326 . S
O106 C114 1.252 . S
C107 O110 1.252 . S
C107 O111 1.260 . S
C108 O115 1.240 . S
C108 O116 1.252 . S
C109 O112 1.252 . S
C109 O113 1.260 . S
O110 In104 2.266 . S
O110 C107 1.252 . S
O111 In104 2.326 . S
O111 C107 1.260 . S
O112 In104 2.266 . S
O112 C109 1.252 . S
O113 In104 2.326 . S
O113 C109 1.260 . S
C114 O105 1.240 . S
C114 O106 1.252 . S
O115 In104 2.294 . S
O115 C108 1.240 . S
O116 In104 2.326 . S
O116 C108 1.252 . S
In117 O118 2.294 . S
In117 O119 2.326 . S
In117 O123 2.266 . S
In117 O124 2.326 . S
In117 O125 2.266 . S
In117 O126 2.326 . S
In117 O128 2.294 . S
In117 O129 2.326 . S
O118 In117 2.294 . S
O118 C127 1.240 . S
O119 In117 2.326 . S
O119 C127 1.252 . S
C120 O123 1.252 . S
C120 O124 1.260 . S
C121 O128 1.240 . S
C121 O129 1.252 . S
C122 O125 1.252 . S
C122 O126 1.260 . S
O123 In117 2.266 . S
O123 C120 1.252 . S
O124 In117 2.326 . S
O124 C120 1.260 . S
O125 In117 2.266 . S
O125 C122 1.252 . S
O126 In117 2.326 . S
O126 C122 1.260 . S
C127 O118 1.240 . S
C127 O119 1.252 . S
O128 In117 2.294 . S
O128 C121 1.240 . S
O129 In117 2.326 . S
O129 C121 1.252 . S
In130 O131 2.294 . S
In130 O132 2.326 . S
In130 O136 2.266 . S
In130 O137 2.326 . S
In130 O138 2.266 . S
In130 O139 2.326 . S
In130 O141 2.294 . S
In130 O142 2.326 . S
O131 In130 2.294 . S
O131 C140 1.240 . S
O132 In130 2.326 . S
O132 C140 1.252 . S
C133 O136 1.252 . S
C133 O137 1.260 . S
C134 O141 1.240 . S
C134 O142 1.252 . S
C135 O138 1.252 . S
C135 O139 1.260 . S
O136 In130 2.266 . S
O136 C133 1.252 . S
O137 In130 2.326 . S
O137 C133 1.260 . S
O138 In130 2.266 . S
O138 C135 1.252 . S
O139 In130 2.326 . S
O139 C135 1.260 . S
C140 O131 1.240 . S
C140 O132 1.252 . S
O141 In130 2.294 . S
O141 C134 1.240 . S
O142 In130 2.326 . S
O142 C134 1.252 . S
In143 O144 2.294 . S
In143 O145 2.326 . S
In143 O149 2.266 . S
In143 O150 2.326 . S
In143 O151 2.266 . S
In143 O152 2.326 . S
In143 O154 2.294 . S
In143 O155 2.326 . S
O144 In143 2.294 . S
O144 C153 1.240 . S
O145 In143 2.326 . S
O145 C153 1.252 . S
C146 O149 1.252 . S
C146 O150 1.260 . S
C147 O154 1.240 . S
C147 O155 1.252 . S
C148 O151 1.252 . S
C148 O152 1.260 . S
O149 In143 2.266 . S
O149 C146 1.252 . S
O150 In143 2.326 . S
O150 C146 1.260 . S
O151 In143 2.266 . S
O151 C148 1.252 . S
O152 In143 2.326 . S
O152 C148 1.260 . S
C153 O144 1.240 . S
C153 O145 1.252 . S
O154 In143 2.294 . S
O154 C147 1.240 . S
O155 In143 2.326 . S
O155 C147 1.252 . S
C156 C157 1.369 1_545 S
C156 C158 1.419 . S
C156 H160 0.930 . S
C157 C156 1.369 1_565 S
C157 C166 1.429 1_556 S
C158 C156 1.419 . S
C158 C159 1.363 1_556 S
C158 H161 0.929 . S
C159 C158 1.363 1_554 S
C159 C165 1.428 1_545 S
H160 C156 0.930 . S
H161 C158 0.929 . S
S162 N163 1.613 . S
S162 N164 1.610 . S
N163 S162 1.613 . S
N163 C166 1.350 . S
N164 S162 1.610 . S
N164 C165 1.351 . S
C165 C159 1.428 1_565 S
C165 N164 1.351 . S
C165 C166 1.434 . S
C166 C157 1.429 1_554 S
C166 N163 1.350 . S
C166 C165 1.434 . S
C167 C168 1.369 . S
C167 C169 1.419 . S
C167 H171 0.930 . S
C168 C167 1.369 . S
C168 C177 1.429 . S
C169 C167 1.419 . S
C169 C170 1.363 . S
C169 H172 0.929 . S
C170 C169 1.363 . S
C170 C176 1.428 . S
H171 C167 0.930 . S
H172 C169 0.929 . S
S173 N174 1.613 . S
S173 N175 1.610 . S
N174 S173 1.613 . S
N174 C177 1.350 . S
N175 S173 1.610 . S
N175 C176 1.351 . S
C176 C170 1.428 . S
C176 N175 1.351 . S
C176 C177 1.434 . S
C177 C168 1.429 . S
C177 N174 1.350 . S
C177 C176 1.434 . S
C178 C179 1.358 1_455 S
C178 C180 1.426 . S
C178 H182 0.934 . S
C179 C178 1.358 1_655 S
C179 C188 1.429 . S
C180 C178 1.426 . S
C180 C181 1.363 . S
C180 H183 0.929 . S
C181 C180 1.363 . S
C181 C187 1.428 1_455 S
H182 C178 0.934 . S
H183 C180 0.929 . S
S184 N185 1.613 . S
S184 N186 1.610 . S
N185 S184 1.613 . S
N185 C188 1.350 . S
N186 S184 1.610 . S
N186 C187 1.351 . S
C187 C181 1.428 1_655 S
C187 N186 1.351 . S
C187 C188 1.434 . S
C188 C179 1.429 . S
C188 N185 1.350 . S
C188 C187 1.434 . S
C189 C190 1.369 1_556 S
C189 C191 1.419 1_565 S
C189 H193 0.930 . S
C190 C189 1.369 1_554 S
C190 C199 1.422 1_565 S
C191 C189 1.419 1_545 S
C191 C192 1.363 . S
C191 H194 0.929 . S
C192 C191 1.363 . S
C192 C198 1.428 1_556 S
H193 C189 0.930 . S
H194 C191 0.929 . S
S195 N196 1.613 . S
S195 N197 1.610 . S
N196 S195 1.613 . S
N196 C199 1.347 . S
N197 S195 1.610 . S
N197 C198 1.351 . S
C198 C192 1.428 1_554 S
C198 N197 1.351 . S
C198 C199 1.445 . S
C199 C190 1.422 1_545 S
C199 N196 1.347 . S
C199 C198 1.445 . S
C200 C201 1.369 . S
C200 C202 1.419 . S
C200 H204 0.930 . S
C201 C200 1.369 . S
C201 C210 1.429 . S
C202 C200 1.419 . S
C202 C203 1.363 . S
C202 H205 0.929 . S
C203 C202 1.363 . S
C203 C209 1.428 . S
H204 C200 0.930 . S
H205 C202 0.929 . S
S206 N207 1.613 . S
S206 N208 1.610 . S
N207 S206 1.613 . S
N207 C210 1.350 . S
N208 S206 1.610 . S
N208 C209 1.351 . S
C209 C203 1.428 . S
C209 N208 1.351 . S
C209 C210 1.434 . S
C210 C201 1.429 . S
C210 N207 1.350 . S
C210 C209 1.434 . S
C211 C212 1.369 1_455 S
C211 C213 1.419 . S
C211 H215 0.930 . S
C212 C211 1.369 1_655 S
C212 C221 1.429 . S
C213 C211 1.419 . S
C213 C214 1.363 . S
C213 H216 0.929 . S
C214 C213 1.363 . S
C214 C220 1.428 1_455 S
H215 C211 0.930 . S
H216 C213 0.929 . S
S217 N218 1.613 . S
S217 N219 1.610 . S
N218 S217 1.613 . S
N218 C221 1.350 . S
N219 S217 1.610 . S
N219 C220 1.351 . S
C220 C214 1.428 1_655 S
C220 N219 1.351 . S
C220 C221 1.434 . S
C221 C212 1.429 . S
C221 N218 1.350 . S
C221 C220 1.434 . S
C222 C223 1.369 1_554 S
C222 C224 1.419 . S
C222 H226 0.930 . S
C223 C222 1.369 1_556 S
C223 C232 1.429 . S
C224 C222 1.419 . S
C224 C225 1.363 . S
C224 H227 0.929 . S
C225 C224 1.363 . S
C225 C231 1.428 1_554 S
H226 C222 0.930 . S
H227 C224 0.929 . S
S228 N229 1.613 . S
S228 N230 1.610 . S
N229 S228 1.613 . S
N229 C232 1.350 . S
N230 S228 1.610 . S
N230 C231 1.351 . S
C231 C225 1.428 1_556 S
C231 N230 1.351 . S
C231 C232 1.434 . S
C232 C223 1.429 . S
C232 N229 1.350 . S
C232 C231 1.434 . S
C233 C234 1.369 . S
C233 C235 1.419 . S
C233 H237 0.930 . S
C234 C233 1.369 . S
C234 C243 1.429 . S
C235 C233 1.419 . S
C235 C236 1.363 . S
C235 H238 0.929 . S
C236 C235 1.363 . S
C236 C242 1.428 . S
H237 C233 0.930 . S
H238 C235 0.929 . S
S239 N240 1.613 . S
S239 N241 1.610 . S
N240 S239 1.613 . S
N240 C243 1.350 . S
N241 S239 1.610 . S
N241 C242 1.351 . S
C242 C236 1.428 . S
C242 N241 1.351 . S
C242 C243 1.434 . S
C243 C234 1.429 . S
C243 N240 1.350 . S
C243 C242 1.434 . S
C244 C245 1.369 . S
C244 C246 1.419 . S
C244 H248 0.930 . S
C245 C244 1.369 . S
C245 C254 1.429 . S
C246 C244 1.419 . S
C246 C247 1.363 . S
C246 H249 0.929 . S
C247 C246 1.363 . S
C247 C253 1.428 . S
H248 C244 0.930 . S
H249 C246 0.929 . S
S250 N251 1.613 . S
S250 N252 1.610 . S
N251 S250 1.613 . S
N251 C254 1.350 . S
N252 S250 1.610 . S
N252 C253 1.351 . S
C253 C247 1.428 . S
C253 N252 1.351 . S
C253 C254 1.434 . S
C254 C245 1.429 . S
C254 N251 1.350 . S
C254 C253 1.434 . S
C255 C256 1.369 . S
C255 C257 1.419 . S
C255 H259 0.930 . S
C256 C255 1.369 . S
C256 C265 1.429 1_556 S
C257 C255 1.419 . S
C257 C258 1.363 1_556 S
C257 H260 0.929 . S
C258 C257 1.363 1_554 S
C258 C264 1.428 . S
H259 C255 0.930 . S
H260 C257 0.929 . S
S261 N262 1.613 . S
S261 N263 1.610 . S
N262 S261 1.613 . S
N262 C265 1.350 . S
N263 S261 1.610 . S
N263 C264 1.351 . S
C264 C258 1.428 . S
C264 N263 1.351 . S
C264 C265 1.434 . S
C265 C256 1.429 1_554 S
C265 N262 1.350 . S
C265 C264 1.434 . S
C266 C267 1.369 . S
C266 C268 1.419 . S
C266 H270 0.930 . S
C267 C266 1.369 . S
C267 C276 1.429 . S
C268 C266 1.419 . S
C268 C269 1.363 . S
C268 H271 0.929 . S
C269 C268 1.363 . S
C269 C275 1.428 . S
H270 C266 0.930 . S
H271 C268 0.929 . S
S272 N273 1.613 . S
S272 N274 1.610 . S
N273 S272 1.613 . S
N273 C276 1.350 . S
N274 S272 1.610 . S
N274 C275 1.351 . S
C275 C269 1.428 . S
C275 N274 1.351 . S
C275 C276 1.434 . S
C276 C267 1.429 . S
C276 N273 1.350 . S
C276 C275 1.434 . S
C277 C278 1.369 . S
C277 C279 1.419 . S
C277 H281 0.930 . S
C278 C277 1.369 . S
C278 C287 1.429 . S
C279 C277 1.419 . S
C279 C280 1.363 . S
C279 H282 0.929 . S
C280 C279 1.363 . S
C280 C286 1.428 . S
H281 C277 0.930 . S
H282 C279 0.929 . S
S283 N284 1.613 . S
S283 N285 1.610 . S
N284 S283 1.613 . S
N284 C287 1.350 . S
N285 S283 1.610 . S
N285 C286 1.351 . S
C286 C280 1.428 . S
C286 N285 1.351 . S
C286 C287 1.434 . S
C287 C278 1.429 . S
C287 N284 1.350 . S
C287 C286 1.434 . S
C288 C289 1.369 . S
C288 C290 1.419 . S
C288 H292 0.930 . S
C289 C288 1.369 . S
C289 C298 1.429 . S
C290 C288 1.419 . S
C290 C291 1.363 . S
C290 H293 0.929 . S
C291 C290 1.363 . S
C291 C297 1.428 . S
H292 C288 0.930 . S
H293 C290 0.929 . S
S294 N295 1.613 . S
S294 N296 1.610 . S
N295 S294 1.613 . S
N295 C298 1.350 . S
N296 S294 1.610 . S
N296 C297 1.351 . S
C297 C291 1.428 . S
C297 N296 1.351 . S
C297 C298 1.434 . S
C298 C289 1.429 . S
C298 N295 1.350 . S
C298 C297 1.434 . S
C299 C300 1.369 . S
C299 C301 1.419 . S
C299 H303 0.930 . S
C300 C299 1.369 . S
C300 C309 1.429 . S
C301 C299 1.419 . S
C301 C302 1.363 . S
C301 H304 0.929 . S
C302 C301 1.363 . S
C302 C308 1.428 . S
H303 C299 0.930 . S
H304 C301 0.929 . S
S305 N306 1.613 . S
S305 N307 1.610 . S
N306 S305 1.613 . S
N306 C309 1.350 . S
N307 S305 1.610 . S
N307 C308 1.351 . S
C308 C302 1.428 . S
C308 N307 1.351 . S
C308 C309 1.434 . S
C309 C300 1.429 . S
C309 N306 1.350 . S
C309 C308 1.434 . S
C310 C311 1.369 . S
C310 C312 1.419 . S
C310 H314 0.930 . S
C311 C310 1.369 . S
C311 C320 1.429 . S
C312 C310 1.419 . S
C312 C313 1.363 . S
C312 H315 0.929 . S
C313 C312 1.363 . S
C313 C319 1.428 . S
H314 C310 0.930 . S
H315 C312 0.929 . S
S316 N317 1.613 . S
S316 N318 1.610 . S
N317 S316 1.613 . S
N317 C320 1.350 . S
N318 S316 1.610 . S
N318 C319 1.351 . S
C319 C313 1.428 . S
C319 N318 1.351 . S
C319 C320 1.434 . S
C320 C311 1.429 . S
C320 N317 1.350 . S
C320 C319 1.434 . S
C321 C322 1.369 . S
C321 C323 1.419 . S
C321 H325 0.930 . S
C322 C321 1.369 . S
C322 C331 1.429 . S
C323 C321 1.419 . S
C323 C324 1.363 . S
C323 H326 0.929 . S
C324 C323 1.363 . S
C324 C330 1.428 . S
H325 C321 0.930 . S
H326 C323 0.929 . S
S327 N328 1.613 . S
S327 N329 1.610 . S
N328 S327 1.613 . S
N328 C331 1.350 . S
N329 S327 1.610 . S
N329 C330 1.351 . S
C330 C324 1.428 . S
C330 N329 1.351 . S
C330 C331 1.434 . S
C331 C322 1.429 . S
C331 N328 1.350 . S
C331 C330 1.434 . S
C332 C333 1.369 . S
C332 C334 1.419 . S
C332 H336 0.930 . S
C333 C332 1.369 . S
C333 C342 1.429 . S
C334 C332 1.419 . S
C334 C335 1.363 . S
C334 H337 0.929 . S
C335 C334 1.363 . S
C335 C341 1.428 . S
H336 C332 0.930 . S
H337 C334 0.929 . S
S338 N339 1.613 . S
S338 N340 1.610 . S
N339 S338 1.613 . S
N339 C342 1.350 . S
N340 S338 1.610 . S
N340 C341 1.351 . S
C341 C335 1.428 . S
C341 N340 1.351 . S
C341 C342 1.434 . S
C342 C333 1.429 . S
C342 N339 1.350 . S
C342 C341 1.434 . S
C343 C344 1.369 . S
C343 C345 1.419 . S
C343 H347 0.930 . S
C344 C343 1.369 . S
C344 C353 1.429 . S
C345 C343 1.419 . S
C345 C346 1.363 . S
C345 H348 0.929 . S
C346 C345 1.363 . S
C346 C352 1.428 . S
H347 C343 0.930 . S
H348 C345 0.929 . S
S349 N350 1.613 . S
S349 N351 1.610 . S
N350 S349 1.613 . S
N350 C353 1.350 . S
N351 S349 1.610 . S
N351 C352 1.351 . S
C352 C346 1.428 . S
C352 N351 1.351 . S
C352 C353 1.434 . S
C353 C344 1.429 . S
C353 N350 1.350 . S
C353 C352 1.434 . S
C354 C355 1.369 . S
C354 C356 1.419 . S
C354 H358 0.930 . S
C355 C354 1.369 . S
C355 C364 1.429 . S
C356 C354 1.419 . S
C356 C357 1.363 . S
C356 H359 0.929 . S
C357 C356 1.363 . S
C357 C363 1.428 . S
H358 C354 0.930 . S
H359 C356 0.929 . S
S360 N361 1.613 . S
S360 N362 1.610 . S
N361 S360 1.613 . S
N361 C364 1.350 . S
N362 S360 1.610 . S
N362 C363 1.351 . S
C363 C357 1.428 . S
C363 N362 1.351 . S
C363 C364 1.434 . S
C364 C355 1.429 . S
C364 N361 1.350 . S
C364 C363 1.434 . S
C365 C366 1.369 . S
C365 C367 1.419 . S
C365 H369 0.930 . S
C366 C365 1.369 . S
C366 C375 1.429 1_655 S
C367 C365 1.419 . S
C367 C368 1.363 1_655 S
C367 H370 0.929 . S
C368 C367 1.363 1_455 S
C368 C374 1.428 . S
H369 C365 0.930 . S
H370 C367 0.929 . S
S371 N372 1.613 . S
S371 N373 1.610 . S
N372 S371 1.613 . S
N372 C375 1.350 . S
N373 S371 1.610 . S
N373 C374 1.351 . S
C374 C368 1.428 . S
C374 N373 1.351 . S
C374 C375 1.434 . S
C375 C366 1.429 1_455 S
C375 N372 1.350 . S
C375 C374 1.434 . S
C376 C377 1.369 . S
C376 C378 1.419 1_545 S
C376 H380 0.930 . S
C377 C376 1.369 . S
C377 C386 1.429 . S
C378 C376 1.419 1_565 S
C378 C379 1.363 . S
C378 H381 0.929 . S
C379 C378 1.363 . S
C379 C385 1.428 . S
H380 C376 0.930 . S
H381 C378 0.929 . S
S382 N383 1.613 . S
S382 N384 1.610 1_545 S
N383 S382 1.613 . S
N383 C386 1.350 . S
N384 S382 1.610 1_565 S
N384 C385 1.351 . S
C385 C379 1.428 . S
C385 N384 1.351 . S
C385 C386 1.434 1_565 S
C386 C377 1.429 . S
C386 N383 1.350 . S
C386 C385 1.434 1_545 S
C387 C388 1.369 . S
C387 C389 1.419 . S
C387 H391 0.930 . S
C388 C387 1.369 . S
C388 C397 1.429 . S
C389 C387 1.419 . S
C389 C390 1.363 . S
C389 H392 0.929 . S
C390 C389 1.363 . S
C390 C396 1.428 . S
H391 C387 0.930 . S
H392 C389 0.929 . S
S393 N394 1.613 . S
S393 N395 1.610 . S
N394 S393 1.613 . S
N394 C397 1.350 . S
N395 S393 1.610 . S
N395 C396 1.351 . S
C396 C390 1.428 . S
C396 N395 1.351 . S
C396 C397 1.434 . S
C397 C388 1.429 . S
C397 N394 1.350 . S
C397 C396 1.434 . S
C398 C399 1.369 1_655 S
C398 C400 1.419 . S
C398 H402 0.930 . S
C399 C398 1.369 1_455 S
C399 C408 1.429 . S
C400 C398 1.419 . S
C400 C401 1.363 . S
C400 H403 0.929 . S
C401 C400 1.363 . S
C401 C407 1.428 1_655 S
H402 C398 0.930 . S
H403 C400 0.929 . S
S404 N405 1.613 . S
S404 N406 1.610 . S
N405 S404 1.613 . S
N405 C408 1.350 . S
N406 S404 1.610 . S
N406 C407 1.351 . S
C407 C401 1.428 1_455 S
C407 N406 1.351 . S
C407 C408 1.434 . S
C408 C399 1.429 . S
C408 N405 1.350 . S
C408 C407 1.434 . S
C409 C410 1.369 . S
C409 C411 1.419 . S
C409 H413 0.930 . S
C410 C409 1.369 . S
C410 C419 1.429 1_565 S
C411 C409 1.419 . S
C411 C412 1.363 1_565 S
C411 H414 0.929 . S
C412 C411 1.363 1_545 S
C412 C418 1.428 . S
H413 C409 0.930 . S
H414 C411 0.929 . S
S415 N416 1.613 . S
S415 N417 1.610 . S
N416 S415 1.613 . S
N416 C419 1.350 . S
N417 S415 1.610 . S
N417 C418 1.351 . S
C418 C412 1.428 . S
C418 N417 1.351 . S
C418 C419 1.434 . S
C419 C410 1.429 1_545 S
C419 N416 1.350 . S
C419 C418 1.434 . S
C157 C96 1.490 . S
C159 C5 1.492 . S
C168 C16 1.493 . S
C170 C109 1.490 . S
C179 C29 1.488 . S
C181 C122 1.491 . S
C190 C42 1.493 . S
C192 C133 1.490 . S
C201 C148 1.491 . S
C203 C55 1.493 . S
C212 C83 1.491 . S
C214 C68 1.493 . S
C223 C135 1.307 . S
C225 C3 1.307 . S
C234 C18 1.306 . S
C236 C146 1.307 . S
C245 C31 1.307 . S
C247 C81 1.306 . S
C256 C94 1.309 . S
C258 C44 1.306 . S
C267 C107 1.305 . S
C269 C57 1.308 . S
C278 C120 1.306 . S
C280 C70 1.308 . S
C289 C10 1.649 . S
C291 C114 1.647 . S
C300 C17 1.650 . S
C302 C127 1.648 . S
C311 C134 1.650 . S
C313 C30 1.648 . S
C322 C43 1.646 . S
C324 C153 1.648 . S
C333 C88 1.650 . S
C335 C56 1.649 . S
C344 C101 1.646 . S
C346 C69 1.647 . S
C355 C49 1.635 . S
C357 C4 1.629 . S
C366 C62 1.634 . S
C368 C23 1.630 . S
C377 C36 1.629 . S
C379 C75 1.633 . S
C388 C82 1.629 . S
C390 C121 1.633 . S
C399 C95 1.629 . S
C401 C140 1.633 . S
C410 C147 1.634 . S
C412 C108 1.629 . S
