# Generated by pormake.
# Topology wmi, (6)-cn, num edge types: 1
# Building blocks:
#     Node 0, Type 0, BuildingBlock: HISSIN_clean_sbu_0, # of connection points: 6
#     Node 1, Type 0, BuildingBlock: HISSIN_clean_sbu_0, # of connection points: 6
#     Node 2, Type 0, BuildingBlock: HISSIN_clean_sbu_0, # of connection points: 6
#     Node 3, Type 0, BuildingBlock: HISSIN_clean_sbu_0, # of connection points: 6
#     Node 4, Type 0, BuildingBlock: HISSIN_clean_sbu_0, # of connection points: 6
#     Node 5, Type 0, BuildingBlock: HISSIN_clean_sbu_0, # of connection points: 6
#     Node 6, Type 0, BuildingBlock: HISSIN_clean_sbu_0, # of connection points: 6
#     Node 7, Type 0, BuildingBlock: HISSIN_clean_sbu_0, # of connection points: 6
#     Node 8, Type 0, BuildingBlock: HISSIN_clean_sbu_0, # of connection points: 6
#     Node 9, Type 0, BuildingBlock: HISSIN_clean_sbu_0, # of connection points: 6
#     Node 10, Type 0, BuildingBlock: HISSIN_clean_sbu_0, # of connection points: 6
#     Node 11, Type 0, BuildingBlock: HISSIN_clean_sbu_0, # of connection points: 6
#     Node 12, Type 0, BuildingBlock: HISSIN_clean_sbu_0, # of connection points: 6
#     Node 13, Type 0, BuildingBlock: HISSIN_clean_sbu_0, # of connection points: 6
#     Node 14, Type 0, BuildingBlock: HISSIN_clean_sbu_0, # of connection points: 6
#     Node 15, Type 0, BuildingBlock: HISSIN_clean_sbu_0, # of connection points: 6
#     Node 16, Type 0, BuildingBlock: HISSIN_clean_sbu_0, # of connection points: 6
#     Node 17, Type 0, BuildingBlock: HISSIN_clean_sbu_0, # of connection points: 6
#     Edge 18, Type (0, 0), BuildingBlock: OJICUG_clean_linker_0, # of connection points: 2
#     Edge 19, Type (0, 0), BuildingBlock: OJICUG_clean_linker_0, # of connection points: 2
#     Edge 20, Type (0, 0), BuildingBlock: OJICUG_clean_linker_0, # of connection points: 2
#     Edge 21, Type (0, 0), BuildingBlock: OJICUG_clean_linker_0, # of connection points: 2
#     Edge 22, Type (0, 0), BuildingBlock: OJICUG_clean_linker_0, # of connection points: 2
#     Edge 23, Type (0, 0), BuildingBlock: OJICUG_clean_linker_0, # of connection points: 2
#     Edge 24, Type (0, 0), BuildingBlock: OJICUG_clean_linker_0, # of connection points: 2
#     Edge 25, Type (0, 0), BuildingBlock: OJICUG_clean_linker_0, # of connection points: 2
#     Edge 26, Type (0, 0), BuildingBlock: OJICUG_clean_linker_0, # of connection points: 2
#     Edge 27, Type (0, 0), BuildingBlock: OJICUG_clean_linker_0, # of connection points: 2
#     Edge 28, Type (0, 0), BuildingBlock: OJICUG_clean_linker_0, # of connection points: 2
#     Edge 29, Type (0, 0), BuildingBlock: OJICUG_clean_linker_0, # of connection points: 2
#     Edge 30, Type (0, 0), BuildingBlock: OJICUG_clean_linker_0, # of connection points: 2
#     Edge 31, Type (0, 0), BuildingBlock: OJICUG_clean_linker_0, # of connection points: 2
#     Edge 32, Type (0, 0), BuildingBlock: OJICUG_clean_linker_0, # of connection points: 2
#     Edge 33, Type (0, 0), BuildingBlock: OJICUG_clean_linker_0, # of connection points: 2
#     Edge 34, Type (0, 0), BuildingBlock: OJICUG_clean_linker_0, # of connection points: 2
#     Edge 35, Type (0, 0), BuildingBlock: OJICUG_clean_linker_0, # of connection points: 2
#     Edge 36, Type (0, 0), BuildingBlock: OJICUG_clean_linker_0, # of connection points: 2
#     Edge 37, Type (0, 0), BuildingBlock: OJICUG_clean_linker_0, # of connection points: 2
#     Edge 38, Type (0, 0), BuildingBlock: OJICUG_clean_linker_0, # of connection points: 2
#     Edge 39, Type (0, 0), BuildingBlock: OJICUG_clean_linker_0, # of connection points: 2
#     Edge 40, Type (0, 0), BuildingBlock: OJICUG_clean_linker_0, # of connection points: 2
#     Edge 41, Type (0, 0), BuildingBlock: OJICUG_clean_linker_0, # of connection points: 2
#     Edge 42, Type (0, 0), BuildingBlock: OJICUG_clean_linker_0, # of connection points: 2
#     Edge 43, Type (0, 0), BuildingBlock: OJICUG_clean_linker_0, # of connection points: 2
#     Edge 44, Type (0, 0), BuildingBlock: OJICUG_clean_linker_0, # of connection points: 2
#     Edge 45, Type (0, 0), BuildingBlock: OJICUG_clean_linker_0, # of connection points: 2
#     Edge 46, Type (0, 0), BuildingBlock: OJICUG_clean_linker_0, # of connection points: 2
#     Edge 47, Type (0, 0), BuildingBlock: OJICUG_clean_linker_0, # of connection points: 2
#     Edge 48, Type (0, 0), BuildingBlock: OJICUG_clean_linker_0, # of connection points: 2
#     Edge 49, Type (0, 0), BuildingBlock: OJICUG_clean_linker_0, # of connection points: 2
#     Edge 50, Type (0, 0), BuildingBlock: OJICUG_clean_linker_0, # of connection points: 2
#     Edge 51, Type (0, 0), BuildingBlock: OJICUG_clean_linker_0, # of connection points: 2
#     Edge 52, Type (0, 0), BuildingBlock: OJICUG_clean_linker_0, # of connection points: 2
#     Edge 53, Type (0, 0), BuildingBlock: OJICUG_clean_linker_0, # of connection points: 2
#     Edge 54, Type (0, 0), BuildingBlock: OJICUG_clean_linker_0, # of connection points: 2
#     Edge 55, Type (0, 0), BuildingBlock: OJICUG_clean_linker_0, # of connection points: 2
#     Edge 56, Type (0, 0), BuildingBlock: OJICUG_clean_linker_0, # of connection points: 2
#     Edge 57, Type (0, 0), BuildingBlock: OJICUG_clean_linker_0, # of connection points: 2
#     Edge 58, Type (0, 0), BuildingBlock: OJICUG_clean_linker_0, # of connection points: 2
#     Edge 59, Type (0, 0), BuildingBlock: OJICUG_clean_linker_0, # of connection points: 2
#     Edge 60, Type (0, 0), BuildingBlock: OJICUG_clean_linker_0, # of connection points: 2
#     Edge 61, Type (0, 0), BuildingBlock: OJICUG_clean_linker_0, # of connection points: 2
#     Edge 62, Type (0, 0), BuildingBlock: OJICUG_clean_linker_0, # of connection points: 2
#     Edge 63, Type (0, 0), BuildingBlock: OJICUG_clean_linker_0, # of connection points: 2
#     Edge 64, Type (0, 0), BuildingBlock: OJICUG_clean_linker_0, # of connection points: 2
#     Edge 65, Type (0, 0), BuildingBlock: OJICUG_clean_linker_0, # of connection points: 2
#     Edge 66, Type (0, 0), BuildingBlock: OJICUG_clean_linker_0, # of connection points: 2
#     Edge 67, Type (0, 0), BuildingBlock: OJICUG_clean_linker_0, # of connection points: 2
#     Edge 68, Type (0, 0), BuildingBlock: OJICUG_clean_linker_0, # of connection points: 2
#     Edge 69, Type (0, 0), BuildingBlock: OJICUG_clean_linker_0, # of connection points: 2
#     Edge 70, Type (0, 0), BuildingBlock: OJICUG_clean_linker_0, # of connection points: 2
#     Edge 71, Type (0, 0), BuildingBlock: OJICUG_clean_linker_0, # of connection points: 2
# Relax obj value: 0.099
# Max RMSD: 0.226
# Mean RMSD: 0.226
data_MOF--net-wmi--node1-HISSIN_clean_sbu_0--edge1-OJICUG_clean_linker_0
_symmetry_space_group_name_H-M    P1
_symmetry_Int_Tables_number       1
_symmetry_cell_setting            triclinic
loop_
_symmetry_equiv_pos_as_xyz
'x, y, z'
_cell_length_a     31.893711
_cell_length_b     31.952111
_cell_length_c     57.813297
_cell_angle_alpha  89.91561
_cell_angle_beta   90.111977
_cell_angle_gamma 120.03355
loop_
_atom_site_label
_atom_site_type_symbol
_atom_site_fract_x
_atom_site_fract_y
_atom_site_fract_z
_atom_type_partial_charge
Eu0 Eu 0.5663 0.06112 0.10983 0.0
Eu1 Eu 0.45421 0.99901 0.08846 0.0
C2 C 0.54465 1.02502 0.05668 0.0
C3 C 0.70328 0.15382 0.11955 0.0
C4 C 0.74249 0.14681 0.11456 0.0
C5 C 0.75722 0.24056 0.11445 0.0
C6 C 0.78843 0.18606 0.10948 0.0
C7 C 0.7112 0.20124 0.11945 0.0
C8 C 0.79661 0.23362 0.10937 0.0
C9 C 0.6554 0.11138 0.12558 0.0
O10 O 0.4695 0.94285 0.10486 0.0
O11 O 0.55289 0.98617 0.10692 0.0
C12 C 0.51183 0.94536 0.10747 0.0
O13 O 0.51083 1.02357 0.13909 0.0
O14 O 0.39838 0.95951 0.06218 0.0
O15 O 0.37803 0.96527 0.09729 0.0
O16 O 0.45739 0.03777 0.12081 0.0
C17 C 0.46979 1.02417 0.13947 0.0
O18 O 0.54554 0.11654 0.10089 0.0
O19 O 0.48023 0.07593 0.07609 0.0
O20 O 0.50181 0.99068 0.06303 0.0
O21 O 0.62024 0.11859 0.13204 0.0
O22 O 0.63996 0.07349 0.11235 0.0
O23 O 0.57143 0.06201 0.07042 0.0
C24 C 0.33365 0.88986 0.07938 0.0
C25 C 0.34161 0.86557 0.09766 0.0
C26 C 0.26776 0.81304 0.06574 0.0
C27 C 0.31231 0.81578 0.10026 0.0
C28 C 0.29689 0.86324 0.06327 0.0
C29 C 0.27484 0.78908 0.08448 0.0
C30 C 0.36368 0.9428 0.07753 0.0
C31 C 0.51453 0.11612 0.08576 0.0
H32 H 0.73764 0.11074 0.11465 0.0
H33 H 0.76204 0.27658 0.11499 0.0
H34 H 0.81741 0.17896 0.10542 0.0
H35 H 0.682 0.2081 0.12339 0.0
H36 H 0.37013 0.88516 0.11019 0.0
H37 H 0.23894 0.79315 0.05338 0.0
H38 H 0.31892 0.7981 0.11466 0.0
H39 H 0.29041 0.88129 0.049 0.0
Eu40 Eu 1.03485 0.51453 0.111 0.0
Eu41 Eu 0.10113 0.47227 0.08819 0.0
C42 C 0.04689 0.50831 0.05569 0.0
C43 C 0.94236 0.55773 0.11845 0.0
C44 C 0.91536 0.5346 0.09855 0.0
C45 C 0.8966 0.5998 0.12222 0.0
C46 C 0.87885 0.54357 0.09072 0.0
C47 C 0.93295 0.59069 0.13005 0.0
C48 C 0.86865 0.57606 0.10255 0.0
C49 C 0.98085 0.54863 0.12717 0.0
O50 O 0.14096 0.55346 0.08355 0.0
O51 O 0.11235 0.5727 0.11563 0.0
C52 C 0.14392 0.58531 0.09879 0.0
O53 O 0.05202 0.47312 0.13857 0.0
O54 O 0.15245 0.47484 0.06236 0.0
O55 O 0.13244 0.42544 0.09135 0.0
O56 O 0.12622 0.49754 0.12404 0.0
C57 C 0.09529 0.47751 0.14076 0.0
O58 O 0.98309 0.44513 0.0934 0.0
O59 O 1.02738 0.40716 0.09771 0.0
O60 O 0.05519 0.47254 0.05917 0.0
O61 O 0.97011 0.50366 0.12934 0.0
O62 O 1.02387 0.57548 0.11844 0.0
O63 O 0.04573 0.53492 0.07279 0.0
C64 C 0.21534 0.46758 0.08014 0.0
C65 C 0.23173 0.47742 0.10316 0.0
C66 C 0.29914 0.50254 0.0675 0.0
C67 C 0.28114 0.49939 0.10831 0.0
C68 C 0.24955 0.48042 0.06236 0.0
C69 C 0.31558 0.51226 0.09056 0.0
C70 C 0.16326 0.4471 0.07454 0.0
C71 C 0.98523 0.40535 0.09531 0.0
H72 H 0.92234 0.50943 0.08913 0.0
H73 H 0.88951 0.62444 0.13202 0.0
H74 H 0.85857 0.52498 0.07538 0.0
H75 H 0.95347 0.60914 0.14538 0.0
H76 H 0.20638 0.46852 0.11724 0.0
H77 H 0.32453 0.51132 0.0534 0.0
H78 H 0.29238 0.50677 0.12624 0.0
H79 H 0.23793 0.47359 0.04446 0.0
Eu80 Eu 0.583 0.53081 0.10694 0.0
Eu81 Eu 0.63577 0.64787 0.09444 0.0
C82 C 0.5815 0.57233 0.05398 0.0
C83 C 0.54275 0.39376 0.10682 0.0
C84 C 0.50604 0.3632 0.09127 0.0
C85 C 0.57043 0.33518 0.10802 0.0
C86 C 0.50153 0.31913 0.08423 0.0
C87 C 0.57493 0.37917 0.11504 0.0
C88 C 0.5335 0.30432 0.09262 0.0
C89 C 0.54479 0.43837 0.11588 0.0
O90 O 0.5535 0.61587 0.09539 0.0
O91 O 0.52628 0.54775 0.11743 0.0
C92 C 0.51874 0.5795 0.10691 0.0
O93 O 0.59708 0.57606 0.13994 0.0
O94 O 0.66749 0.71943 0.07832 0.0
O95 O 0.65019 0.71026 0.11509 0.0
O96 O 0.66677 0.62975 0.12467 0.0
C97 C 0.63969 0.61469 0.14276 0.0
O98 O 0.66013 0.55345 0.09722 0.0
O99 O 0.69711 0.63377 0.08556 0.0
O100 O 0.6106 0.61757 0.05971 0.0
O101 O 0.58534 0.4718 0.12512 0.0
O102 O 0.52341 0.45674 0.10367 0.0
O103 O 0.56736 0.53558 0.06853 0.0
C104 C 0.63708 0.76667 0.09567 0.0
C105 C 0.66004 0.81462 0.10333 0.0
C106 C 0.56129 0.76755 0.09224 0.0
C107 C 0.63382 0.83868 0.10577 0.0
C108 C 0.58766 0.74345 0.0898 0.0
C109 C 0.58385 0.81514 0.1008 0.0
C110 C 0.66288 0.73929 0.09728 0.0
C111 C 0.69778 0.59309 0.08915 0.0
H112 H 0.48016 0.37292 0.08479 0.0
H113 H 0.59513 0.3247 0.11531 0.0
H114 H 0.47286 0.29659 0.07227 0.0
H115 H 0.60305 0.40125 0.12734 0.0
H116 H 0.69797 0.833 0.10816 0.0
H117 H 0.52296 0.74835 0.08826 0.0
H118 H 0.65269 0.8757 0.11186 0.0
H119 H 0.56909 0.70615 0.08413 0.0
Eu120 Eu 0.09759 0.5591 0.90577 0.0
Eu121 Eu 1.02707 0.44724 0.92285 0.0
C122 C 0.07542 0.52798 0.95973 0.0
C123 C 0.18959 0.69761 0.90318 0.0
C124 C 0.17932 0.73538 0.90099 0.0
C125 C 0.26726 0.75481 0.92079 0.0
C126 C 0.21277 0.78233 0.90822 0.0
C127 C 0.23367 0.70768 0.91353 0.0
C128 C 0.25769 0.79304 0.91778 0.0
C129 C 0.15519 0.64936 0.8932 0.0
O130 O 0.98511 0.48673 0.92918 0.0
O131 O 1.02175 0.54559 0.90153 0.0
C132 C 0.98659 0.52177 0.91643 0.0
O133 O 0.08054 0.50555 0.87548 0.0
O134 O 0.97705 0.39188 0.94675 0.0
O135 O 0.99471 0.37085 0.91416 0.0
O136 O 1.00487 0.45828 0.88821 0.0
C137 C 1.03637 0.46886 0.8719 0.0
O138 O 0.14609 0.53584 0.92237 0.0
O139 O 0.10087 0.45617 0.91269 0.0
O140 O 0.07067 0.48647 0.95356 0.0
O141 O 0.16766 0.61621 0.8928 0.0
O142 O 0.10949 0.63132 0.89807 0.0
O143 O 0.08122 0.56076 0.9442 0.0
C144 C 0.9131 0.32486 0.9271 0.0
C145 C 0.89737 0.29967 0.90602 0.0
C146 C 0.82875 0.29047 0.9387 0.0
C147 C 0.84794 0.27031 0.90134 0.0
C148 C 0.87816 0.31973 0.94341 0.0
C149 C 0.81302 0.2653 0.91764 0.0
C150 C 0.9655 0.35689 0.93194 0.0
C151 C 0.14335 0.49454 0.91744 0.0
H152 H 0.14572 0.72883 0.89309 0.0
H153 H 0.30163 0.76168 0.92783 0.0
H154 H 0.20378 0.81057 0.90587 0.0
H155 H 0.24284 0.67948 0.91547 0.0
H156 H 0.92322 0.30266 0.89306 0.0
H157 H 0.80286 0.2867 0.9518 0.0
H158 H 0.83705 0.25162 0.88491 0.0
H159 H 0.88898 0.33829 0.95988 0.0
Eu160 Eu 0.5594 0.56868 0.9018 0.0
Eu161 Eu 0.66739 0.61709 0.92657 0.0
C162 C 0.57418 0.57858 0.95751 0.0
C163 C 0.42398 0.52379 0.88968 0.0
C164 C 0.41522 0.53685 0.91156 0.0
C165 C 0.33928 0.49385 0.87957 0.0
C166 C 0.36895 0.52873 0.91734 0.0
C167 C 0.38555 0.50201 0.87382 0.0
C168 C 0.33023 0.50733 0.90139 0.0
C169 C 0.47252 0.53188 0.88324 0.0
O170 O 0.62928 0.53622 0.93249 0.0
O171 O 0.58042 0.51118 0.90046 0.0
C172 C 0.60078 0.50192 0.918 0.0
O173 O 0.61953 0.60963 0.87487 0.0
O174 O 0.71633 0.61937 0.95377 0.0
O175 O 0.74521 0.66712 0.92417 0.0
O176 O 0.67077 0.58962 0.89172 0.0
C177 C 0.65948 0.60691 0.87396 0.0
O178 O 0.57257 0.63755 0.91841 0.0
O179 O 0.65531 0.67954 0.91574 0.0
O180 O 0.61828 0.61482 0.95452 0.0
O181 O 0.50699 0.57654 0.8803 0.0
O182 O 0.48781 0.50671 0.89449 0.0
O183 O 0.54762 0.55099 0.94029 0.0
C184 C 0.78975 0.6306 0.93806 0.0
C185 C 0.80049 0.6221 0.91557 0.0
C186 C 0.84082 0.60028 0.95342 0.0
C187 C 0.83099 0.60299 0.91204 0.0
C188 C 0.81026 0.61953 0.95694 0.0
C189 C 0.8516 0.59177 0.9309 0.0
C190 C 0.75507 0.64809 0.94193 0.0
C191 C 0.61351 0.67872 0.91725 0.0
H192 H 0.4442 0.55338 0.92416 0.0
H193 H 0.31089 0.47799 0.86668 0.0
H194 H 0.3635 0.53908 0.93441 0.0
H195 H 0.3914 0.49153 0.85685 0.0
H196 H 0.78493 0.62974 0.90064 0.0
H197 H 0.85645 0.59264 0.96835 0.0
H198 H 0.83784 0.59634 0.89447 0.0
H199 H 0.80237 0.62546 0.97446 0.0
Eu200 Eu 0.52559 1.01452 0.90568 0.0
Eu201 Eu 0.50651 0.09179 0.93524 0.0
C202 C 0.55301 0.03788 0.95945 0.0
C203 C 0.55297 0.91039 0.89298 0.0
C204 C 0.60099 0.92482 0.8994 0.0
C205 C 0.53279 0.82629 0.89668 0.0
C206 C 0.61461 0.89008 0.90451 0.0
C207 C 0.51935 0.86075 0.89152 0.0
C208 C 0.58046 0.84025 0.90345 0.0
C209 C 0.53644 0.94535 0.88722 0.0
O210 O 0.57531 0.13754 0.91491 0.0
O211 O 0.59861 0.0807 0.9101 0.0
C212 C 0.60881 0.12593 0.91067 0.0
O213 O 0.50821 0.05434 0.87736 0.0
O214 O 0.52852 0.1469 0.96213 0.0
O215 O 0.46035 0.12164 0.94444 0.0
O216 O 0.48325 0.09777 0.89984 0.0
C217 C 0.48953 0.08315 0.8797 0.0
O218 O 0.4467 0.99026 0.90563 0.0
O219 O 0.44555 1.01418 0.94235 0.0
O220 O 0.55973 0.08073 0.95514 0.0
O221 O 0.4971 0.9384 0.8975 0.0
O222 O 0.56832 0.99129 0.88515 0.0
O223 O 0.52905 1.00252 0.94457 0.0
C224 C 0.50755 0.20505 0.95182 0.0
C225 C 0.52323 0.22206 0.92928 0.0
C226 C 0.52394 0.28517 0.96289 0.0
C227 C 0.53888 0.27015 0.92353 0.0
C228 C 0.50801 0.23686 0.9686 0.0
C229 C 0.53959 0.30237 0.94028 0.0
C230 C 0.49298 0.15481 0.95783 0.0
C231 C 0.42367 0.98415 0.92505 0.0
H232 H 0.62792 0.96282 0.90058 0.0
H233 H 0.50565 0.78842 0.89513 0.0
H234 H 0.6516 0.90221 0.90967 0.0
H235 H 0.48231 0.84843 0.88632 0.0
H236 H 0.52382 0.19818 0.91616 0.0
H237 H 0.52362 0.30895 0.97613 0.0
H238 H 0.5513 0.28232 0.90607 0.0
H239 H 0.49635 0.22443 0.98611 0.0
Eu240 Eu 0.22916 0.4039 0.44086 0.0
Eu241 Eu 0.11481 0.3384 0.42495 0.0
C242 C 0.19938 0.37595 0.38714 0.0
C243 C 0.36694 0.49349 0.4454 0.0
C244 C 0.37799 0.54192 0.44466 0.0
C245 C 0.44804 0.51898 0.43066 0.0
C246 C 0.42347 0.57838 0.43713 0.0
C247 C 0.40251 0.48248 0.43828 0.0
C248 C 0.4593 0.56756 0.43008 0.0
C249 C 0.31967 0.45471 0.45451 0.0
O250 O 0.14165 0.28727 0.43643 0.0
O251 O 0.22137 0.33559 0.42731 0.0
C252 C 0.18384 0.29276 0.43029 0.0
O253 O 0.17906 0.36461 0.47162 0.0
O254 O 0.05137 0.2998 0.40244 0.0
O255 O 1.04364 0.29277 0.43977 0.0
O256 O 0.12325 0.37988 0.457 0.0
C257 C 0.14056 0.36888 0.47472 0.0
O258 O 0.20749 0.45909 0.43297 0.0
O259 O 0.13113 0.41507 0.41641 0.0
O260 O 0.15636 0.34136 0.39345 0.0
O261 O 0.28651 0.46585 0.45942 0.0
O262 O 0.30123 0.41237 0.44478 0.0
O263 O 0.22949 0.40988 0.40155 0.0
C264 C 0.99337 0.22375 0.41825 0.0
C265 C 1.01479 0.19478 0.42076 0.0
C266 C 0.91412 0.1515 0.41827 0.0
C267 C 0.98591 0.14435 0.42221 0.0
C268 C 0.94295 0.20175 0.41687 0.0
C269 C 0.93515 0.12211 0.4211 0.0
C270 C 1.02268 0.27674 0.41979 0.0
C271 C 0.16952 0.45655 0.42263 0.0
H272 H 0.3518 0.55193 0.45023 0.0
H273 H 0.47441 0.50909 0.42527 0.0
H274 H 0.43093 0.61536 0.43749 0.0
H275 H 0.3953 0.44556 0.43881 0.0
H276 H 0.05376 0.21122 0.4221 0.0
H277 H 0.87515 0.13576 0.41777 0.0
H278 H 1.00327 0.12284 0.42422 0.0
H279 H 0.92575 0.22353 0.41537 0.0
Eu280 Eu 0.68732 0.84551 0.44398 0.0
Eu281 Eu 0.76146 0.80761 0.42847 0.0
C282 C 0.71899 0.84871 0.39018 0.0
C283 C 0.59623 0.89142 0.44744 0.0
C284 C 0.57167 0.87077 0.42666 0.0
C285 C 0.55339 0.93652 0.45009 0.0
C286 C 0.53751 0.88219 0.41792 0.0
C287 C 0.58736 0.92494 0.45884 0.0
C288 C 0.52733 0.9147 0.42971 0.0
C289 C 0.63018 0.87773 0.45781 0.0
O290 O 0.80526 0.88521 0.44184 0.0
O291 O 0.75293 0.90987 0.43031 0.0
C292 C 0.79699 0.91957 0.43472 0.0
O293 O 0.72587 0.83392 0.47501 0.0
O294 O 0.81265 0.79676 0.40753 0.0
O295 O 0.80386 0.77913 0.44407 0.0
O296 O 0.71449 0.76708 0.45812 0.0
C297 C 0.72421 0.79209 0.47686 0.0
O298 O 0.63813 0.76808 0.43396 0.0
O299 O 0.68897 0.74535 0.41616 0.0
O300 O 0.75529 0.84293 0.39649 0.0
O301 O 0.61752 0.83209 0.45723 0.0
O302 O 0.67599 0.90562 0.45324 0.0
O303 O 0.68451 0.84359 0.40456 0.0
C304 C 0.88368 0.81543 0.42949 0.0
C305 C 0.90276 0.82728 0.45208 0.0
C306 C 0.96608 0.85715 0.41445 0.0
C307 C 0.9527 0.85319 0.45578 0.0
C308 C 0.91592 0.83102 0.41071 0.0
C309 C 0.985 0.86789 0.43706 0.0
C310 C 0.83052 0.78679 0.42574 0.0
C311 C 0.64534 0.73723 0.422 0.0
H312 H 0.57827 0.84517 0.4174 0.0
H313 H 0.54614 0.96111 0.45985 0.0
H314 H 0.51856 0.86504 0.40207 0.0
H315 H 0.60596 0.94141 0.47487 0.0
H316 H 0.8792 0.81611 0.46704 0.0
H317 H 0.99006 0.86735 0.39967 0.0
H318 H 0.96608 0.86115 0.47339 0.0
H319 H 0.90238 0.82241 0.39315 0.0
Eu320 Eu 0.2499 0.87527 0.44272 0.0
Eu321 Eu 0.29695 0.98925 0.42436 0.0
C322 C 0.2345 0.90139 0.3903 0.0
C323 C 0.20626 0.73796 0.44768 0.0
C324 C 0.16251 0.70392 0.43706 0.0
C325 C 0.23439 0.67987 0.44434 0.0
C326 C 0.15483 0.65853 0.43012 0.0
C327 C 0.24208 0.72526 0.45124 0.0
C328 C 0.1906 0.6457 0.43371 0.0
C329 C 0.21275 0.78496 0.45619 0.0
O330 O 0.2251 0.96915 0.44162 0.0
O331 O 0.18662 0.88615 0.44035 0.0
C332 C 0.18574 0.92631 0.44274 0.0
O333 O 0.26935 0.92824 0.47329 0.0
O334 O 0.31909 0.0484 0.39956 0.0
O335 O 0.32614 0.06297 0.43649 0.0
O336 O 0.33583 0.98317 0.45491 0.0
C337 C 0.31131 0.96893 0.47395 0.0
O338 O 0.32536 0.89671 0.43184 0.0
O339 O 0.35323 0.96963 0.41251 0.0
O340 O 0.24359 0.94405 0.39729 0.0
O341 O 0.25615 0.81928 0.46197 0.0
O342 O 0.18849 0.80199 0.44547 0.0
O343 O 0.24425 0.87336 0.40339 0.0
C344 C 0.30021 0.10634 0.41399 0.0
C345 C 0.24985 0.0822 0.41749 0.0
C346 C 0.30076 0.18235 0.41178 0.0
C347 C 0.22516 0.10806 0.41853 0.0
C348 C 0.32543 0.15649 0.41098 0.0
C349 C 0.25043 0.1585 0.4158 0.0
C350 C 0.32679 0.07989 0.41585 0.0
C351 C 0.35801 0.9326 0.41933 0.0
H352 H 0.13381 0.71216 0.43428 0.0
H353 H 0.2625 0.67117 0.44791 0.0
H354 H 0.12084 0.63355 0.42188 0.0
H355 H 0.27588 0.7501 0.45968 0.0
H356 H 0.22983 0.04346 0.41992 0.0
H357 H 0.32139 0.2213 0.40993 0.0
H358 H 0.18643 0.08868 0.42148 0.0
H359 H 0.36434 0.1758 0.40857 0.0
Eu360 Eu 0.74547 0.86411 0.23834 0.0
Eu361 Eu 0.6766 0.75278 0.25722 0.0
C362 C 0.72355 0.83837 0.29329 0.0
C363 C 0.84252 0.99962 0.23312 0.0
C364 C 0.83203 0.03197 0.24484 0.0
C365 C 0.92852 0.05863 0.23681 0.0
C366 C 0.86938 0.0771 0.25243 0.0
C367 C 0.89127 1.01366 0.22921 0.0
C368 C 0.9182 0.09112 0.2485 0.0
C369 C 0.80312 0.95278 0.22385 0.0
O370 O 0.63386 0.79097 0.26271 0.0
O371 O 0.66938 0.85088 0.23537 0.0
C372 C 0.63462 0.82594 0.25032 0.0
O373 O 0.72866 0.80844 0.20945 0.0
O374 O 0.62553 0.69757 0.28097 0.0
O375 O 0.64447 0.67619 0.24888 0.0
O376 O 0.65324 0.76214 0.2224 0.0
C377 C 0.68446 0.77211 0.20602 0.0
O378 O 0.79427 0.84422 0.25736 0.0
O379 O 0.75204 0.76375 0.24887 0.0
O380 O 0.71202 0.79345 0.28932 0.0
O381 O 0.81231 0.91757 0.22121 0.0
O382 O 0.75942 0.93726 0.23159 0.0
O383 O 0.73365 0.87039 0.27668 0.0
C384 C 0.5614 0.63394 0.26004 0.0
C385 C 0.54628 0.62095 0.23699 0.0
C386 C 0.47665 0.59726 0.27147 0.0
C387 C 0.49709 0.59679 0.23124 0.0
C388 C 0.52598 0.62172 0.27721 0.0
C389 C 0.46153 0.58438 0.2484 0.0
C390 C 0.61367 0.66284 0.26601 0.0
C391 C 0.79346 0.80341 0.25363 0.0
H392 H 0.79489 1.02267 0.24797 0.0
H393 H 0.96553 0.06842 0.23293 0.0
H394 H 0.85997 0.10096 0.26142 0.0
H395 H 0.90074 0.99013 0.21992 0.0
H396 H 0.57241 0.62962 0.22329 0.0
H397 H 0.45036 0.58746 0.28523 0.0
H398 H 0.48695 0.58783 0.21326 0.0
H399 H 0.53645 0.63123 0.29512 0.0
Eu400 Eu 0.22058 0.9009 0.23847 0.0
Eu401 Eu 0.31909 0.9208 0.2666 0.0
C402 C 0.22241 0.88105 0.29293 0.0
C403 C 0.0857 0.86422 0.22847 0.0
C404 C 0.07166 0.86479 0.25147 0.0
C405 C 1.00094 0.82913 0.21677 0.0
C406 C 1.02303 0.8488 0.25695 0.0
C407 C 0.04967 0.84537 0.21129 0.0
C408 C 0.987 0.83162 0.23962 0.0
C409 C 0.13774 0.88701 0.22185 0.0
O410 O 0.29149 0.84754 0.24976 0.0
O411 O 0.2121 0.82796 0.24506 0.0
C412 C 0.2455 0.81543 0.24624 0.0
O413 O 0.27641 0.91872 0.20921 0.0
O414 O 0.3541 0.90596 0.2954 0.0
O415 O 0.39702 0.96579 0.2724 0.0
O416 O 0.34434 0.93364 0.23033 0.0
C417 C 0.32296 0.93132 0.21068 0.0
O418 O 0.27599 0.97873 0.23502 0.0
O419 O 0.30554 0.98456 0.27125 0.0
O420 O 0.25626 0.87117 0.28817 0.0
O421 O 0.16819 0.92496 0.2337 0.0
O422 O 0.15537 0.85884 0.21708 0.0
O423 O 0.21103 0.90443 0.27765 0.0
C424 C 0.43129 0.91915 0.28444 0.0
C425 C 0.41388 0.87094 0.27771 0.0
C426 C 0.51369 0.93502 0.27965 0.0
C427 C 0.44611 0.85489 0.27209 0.0
C428 C 0.48142 0.95096 0.28548 0.0
C429 C 0.49636 0.88687 0.27278 0.0
C430 C 0.39761 0.9374 0.28846 0.0
C431 C 0.2963 1.00449 0.25342 0.0
H432 H 0.09851 0.87889 0.26514 0.0
H433 H 0.97457 0.81665 0.2029 0.0
H434 H 1.01377 0.85067 0.27478 0.0
H435 H 0.05945 0.84471 0.19341 0.0
H436 H 0.37534 0.84582 0.27635 0.0
H437 H 0.55224 0.96037 0.28056 0.0
H438 H 0.43166 0.81776 0.26662 0.0
H439 H 0.49559 0.98837 0.29041 0.0
Eu440 Eu 0.19607 0.33083 0.23711 0.0
Eu441 Eu 0.14607 0.39674 0.25202 0.0
C442 C 0.20277 0.37068 0.28924 0.0
C443 C 0.24189 0.23825 0.23222 0.0
C444 C 0.2573 0.2351 0.2547 0.0
C445 C 0.24871 0.16846 0.22115 0.0
C446 C 0.26911 0.19936 0.26019 0.0
C447 C 0.23698 0.20406 0.21569 0.0
C448 C 0.26604 0.16623 0.24331 0.0
C449 C 0.23568 0.27938 0.22489 0.0
O450 O 0.22096 0.44979 0.23752 0.0
O451 O 0.25864 0.40474 0.24133 0.0
C452 C 0.26026 0.44595 0.23807 0.0
O453 O 0.18186 0.3662 0.20565 0.0
O454 O 0.12023 0.43527 0.27375 0.0
O455 O 0.11439 0.43615 0.23626 0.0
O456 O 0.11219 0.34901 0.22167 0.0
C457 C 0.13902 0.36231 0.2034 0.0
O458 O 0.11966 0.27629 0.24653 0.0
O459 O 0.09005 0.32124 0.26445 0.0
O460 O 0.19487 0.40457 0.28136 0.0
O461 O 0.19318 0.2704 0.21753 0.0
O462 O 0.25729 0.31866 0.23728 0.0
O463 O 0.19512 0.33322 0.27647 0.0
C464 C 0.1316 0.50755 0.25535 0.0
C465 C 0.11407 0.52712 0.23882 0.0
C466 C 0.19095 0.5892 0.26747 0.0
C467 C 0.13476 0.57706 0.2365 0.0
C468 C 0.17047 0.53897 0.26962 0.0
C469 C 0.17322 0.60886 0.2509 0.0
C470 C 0.11112 0.45463 0.25582 0.0
C471 C 0.0861 0.27946 0.25831 0.0
H472 H 0.26153 0.26104 0.26785 0.0
H473 H 0.24463 0.14286 0.20784 0.0
H474 H 0.28223 0.19875 0.27741 0.0
H475 H 0.22526 0.20565 0.19827 0.0
H476 H 0.08473 0.50365 0.22734 0.0
H477 H 0.2202 0.61254 0.27899 0.0
H478 H 0.12079 0.5907 0.22319 0.0
H479 H 0.18523 0.52485 0.2823 0.0
Eu480 Eu 0.90649 0.75351 0.77627 0.0
Eu481 Eu 0.79185 0.68685 0.76032 0.0
C482 C 0.87643 0.72103 0.72285 0.0
C483 C 1.04416 0.84455 0.77946 0.0
C484 C 0.05512 0.8929 0.77788 0.0
C485 C 0.12461 0.86914 0.76401 0.0
C486 C 0.1002 0.92885 0.76958 0.0
C487 C 0.0795 0.83316 0.77239 0.0
C488 C 0.1358 0.91764 0.76257 0.0
C489 C 0.99727 0.80635 0.78934 0.0
O490 O 0.81885 0.63641 0.77274 0.0
O491 O 0.89903 0.68431 0.76413 0.0
C492 C 0.86123 0.64162 0.76716 0.0
O493 O 0.85576 0.71465 0.80708 0.0
O494 O 0.72815 0.64724 0.73807 0.0
O495 O 0.72087 0.64197 0.77548 0.0
O496 O 0.80272 0.73169 0.7914 0.0
C497 C 0.81652 0.71803 0.80949 0.0
O498 O 0.88413 0.80768 0.76694 0.0
O499 O 0.80817 0.76263 0.7501 0.0
O500 O 0.83335 0.68708 0.72942 0.0
O501 O 0.96385 0.81743 0.79376 0.0
O502 O 0.97891 0.76306 0.78069 0.0
O503 O 0.9066 0.75607 0.7368 0.0
C504 C 0.67132 0.57159 0.75458 0.0
C505 C 0.69269 0.54355 0.76004 0.0
C506 C 0.5928 0.4985 0.75309 0.0
C507 C 0.66408 0.49333 0.76257 0.0
C508 C 0.62139 0.54863 0.75065 0.0
C509 C 0.61358 0.47038 0.75973 0.0
C510 C 0.69981 0.62472 0.7556 0.0
C511 C 0.8464 0.80447 0.75601 0.0
H512 H 1.02914 0.90327 0.78338 0.0
H513 H 0.15073 0.85885 0.75867 0.0
H514 H 0.10755 0.9658 0.76931 0.0
H515 H 0.07244 0.79635 0.77354 0.0
H516 H 0.73125 0.56067 0.76324 0.0
H517 H 0.55415 0.48185 0.75023 0.0
H518 H 0.68123 0.47286 0.76773 0.0
H519 H 0.60424 0.56962 0.74643 0.0
Eu520 Eu 0.36437 0.19318 0.77424 0.0
Eu521 Eu 0.43888 0.15699 0.75457 0.0
C522 C 0.40016 0.20929 0.72103 0.0
C523 C 0.27261 0.23777 0.7792 0.0
C524 C 0.25063 0.22033 0.75757 0.0
C525 C 0.22818 0.28109 0.78288 0.0
C526 C 0.21697 0.23249 0.74887 0.0
C527 C 0.26162 0.26877 0.79159 0.0
C528 C 0.20481 0.26258 0.76155 0.0
C529 C 0.30673 0.22397 0.78921 0.0
O530 O 0.48542 0.23081 0.77141 0.0
O531 O 0.43363 0.26016 0.76649 0.0
C532 C 0.4771 0.26721 0.77013 0.0
O533 O 0.40096 0.17693 0.80456 0.0
O534 O 0.48197 0.1437 0.72922 0.0
O535 O 0.48595 0.13007 0.76573 0.0
O536 O 0.39811 0.11475 0.7853 0.0
C537 C 0.40487 0.13774 0.80462 0.0
O538 O 0.31572 0.11548 0.76506 0.0
O539 O 0.36443 0.09657 0.74282 0.0
O540 O 0.43762 0.20555 0.72727 0.0
O541 O 0.2945 0.17852 0.7881 0.0
O542 O 0.35237 0.25228 0.78455 0.0
O543 O 0.36274 0.19656 0.73485 0.0
C544 C 0.55753 0.15909 0.74477 0.0
C545 C 0.58451 0.20762 0.75184 0.0
C546 C 0.63114 0.15458 0.74441 0.0
C547 C 0.63449 0.22921 0.75569 0.0
C548 C 0.58136 0.13317 0.74053 0.0
C549 C 0.65798 0.20231 0.75275 0.0
C550 C 0.50431 0.13326 0.74524 0.0
C551 C 0.32169 0.0864 0.75119 0.0
H552 H 0.25898 0.19679 0.74756 0.0
H553 H 0.21929 0.30368 0.79332 0.0
H554 H 0.20008 0.2179 0.7323 0.0
H555 H 0.2783 0.28279 0.80827 0.0
H556 H 0.56652 0.22799 0.75544 0.0
H557 H 0.64843 0.13324 0.74157 0.0
H558 H 0.65417 0.26595 0.76212 0.0
H559 H 0.56113 0.09565 0.7352 0.0
Eu560 Eu 0.92848 0.22 0.77496 0.0
Eu561 Eu 0.9701 0.3318 0.75563 0.0
C562 C 0.91534 0.24155 0.7213 0.0
C563 C 0.88437 0.08405 0.78204 0.0
C564 C 0.90587 0.07968 0.7617 0.0
C565 C 0.84135 0.99639 0.78613 0.0
C566 C 0.8957 0.03398 0.75383 0.0
C567 C 0.85167 0.04204 0.79401 0.0
C568 C 0.86359 0.99167 0.76606 0.0
C569 C 0.89476 0.13175 0.79087 0.0
O570 O 0.89529 0.30613 0.7711 0.0
O571 O 0.86288 0.22448 0.76695 0.0
C572 C 0.85767 0.26213 0.76965 0.0
O573 O 0.9458 0.27397 0.80476 0.0
O574 O 0.98846 0.39123 0.73133 0.0
O575 O 0.99664 0.40465 0.76833 0.0
O576 O 1.01136 0.32912 0.78605 0.0
C577 C 0.98751 0.3148 0.80525 0.0
O578 O 1.00396 0.24338 0.76337 0.0
O579 O 1.02959 0.31629 0.74435 0.0
O580 O 0.92343 0.2847 0.72697 0.0
O581 O 0.94007 0.16567 0.79238 0.0
O582 O 0.86765 0.14817 0.7828 0.0
O583 O 0.92397 0.21445 0.73565 0.0
C584 C 0.96999 0.44892 0.74692 0.0
C585 C 0.92106 0.42665 0.75345 0.0
C586 C 0.97154 0.52529 0.74338 0.0
C587 C 0.89756 0.45363 0.75516 0.0
C588 C 0.99492 0.49828 0.74171 0.0
C589 C 0.92266 0.50343 0.75031 0.0
C590 C 0.99637 0.4221 0.74795 0.0
C591 C 1.03577 0.27997 0.75092 0.0
H592 H 0.93076 0.1116 0.75201 0.0
H593 H 0.81709 0.96489 0.79623 0.0
H594 H 0.91317 0.0318 0.7382 0.0
H595 H 0.83445 0.04456 0.80967 0.0
H596 H 0.90142 0.38866 0.75782 0.0
H597 H 0.99234 0.56373 0.73993 0.0
H598 H 0.85992 0.43559 0.76039 0.0
H599 H 1.03287 0.51626 0.73701 0.0
Eu600 Eu 0.423 0.22326 0.56893 0.0
Eu601 Eu 0.35971 0.11501 0.59319 0.0
C602 C 0.40854 0.20739 0.62465 0.0
C603 C 0.51582 0.35888 0.55798 0.0
C604 C 0.53795 0.36719 0.57982 0.0
C605 C 0.56857 0.44436 0.5488 0.0
C606 C 0.5753 0.41363 0.58603 0.0
C607 C 0.53132 0.39795 0.54263 0.0
C608 C 0.59146 0.45301 0.57056 0.0
C609 C 0.47625 0.31019 0.55098 0.0
O610 O 0.31577 0.15248 0.59692 0.0
O611 O 0.34483 0.2032 0.56553 0.0
C612 C 0.31274 0.18217 0.58209 0.0
O613 O 0.40406 0.16311 0.54189 0.0
O614 O 0.31554 0.06531 0.62046 0.0
O615 O 0.329 0.03709 0.58901 0.0
O616 O 0.33145 0.11307 0.5579 0.0
C617 C 0.36106 0.12349 0.54065 0.0
O618 O 0.47567 0.2082 0.58755 0.0
O619 O 0.43393 0.12622 0.58316 0.0
O620 O 0.4017 0.16364 0.62222 0.0
O621 O 0.48671 0.2757 0.54934 0.0
O622 O 0.43418 0.29502 0.56063 0.0
O623 O 0.41211 0.23484 0.60686 0.0
C624 C 0.25063 0.99407 0.60475 0.0
C625 C 0.2319 0.944 0.60374 0.0
C626 C 0.16994 0.9815 0.59747 0.0
C627 C 0.18251 0.91283 0.59953 0.0
C628 C 0.21932 1.01262 0.6015 0.0
C629 C 0.15099 0.93125 0.59632 0.0
C630 C 0.30306 1.02701 0.6078 0.0
C631 C 0.47525 0.16716 0.5856 0.0
H632 H 0.52639 0.33774 0.59206 0.0
H633 H 0.5802 0.47323 0.53624 0.0
H634 H 0.59138 0.41867 0.60304 0.0
H635 H 0.51476 0.39251 0.52569 0.0
H636 H 0.25554 0.92905 0.606 0.0
H637 H 0.14676 0.99684 0.59478 0.0
H638 H 0.16892 0.87426 0.59894 0.0
H639 H 0.23313 0.05125 0.60181 0.0
Eu640 Eu 0.8899 0.23925 0.56996 0.0
Eu641 Eu 0.99976 0.28542 0.59247 0.0
C642 C 0.90742 0.22754 0.62387 0.0
C643 C 0.75544 0.19768 0.55821 0.0
C644 C 0.74939 0.21802 0.57854 0.0
C645 C 0.66965 0.16361 0.54973 0.0
C646 C 0.70373 0.21124 0.5844 0.0
C647 C 0.71528 0.17047 0.54389 0.0
C648 C 0.66315 0.18384 0.57008 0.0
C649 C 0.80248 0.20197 0.55237 0.0
O650 O 0.98274 0.21414 0.57544 0.0
O651 O 0.89973 0.17609 0.57586 0.0
C652 C 0.93983 0.1747 0.57425 0.0
O653 O 0.94691 0.25674 0.54153 0.0
O654 O 0.05437 0.29862 0.61901 0.0
O655 O 0.07629 0.32525 0.58406 0.0
O656 O 0.99816 0.32361 0.56072 0.0
C657 C 0.987 0.29904 0.5417 0.0
O658 O 0.91096 0.31538 0.57912 0.0
O659 O 0.97685 0.33968 0.60361 0.0
O660 O 0.94915 0.23217 0.61815 0.0
O661 O 0.83813 0.24479 0.54694 0.0
O662 O 0.81651 0.17865 0.56588 0.0
O663 O 0.88277 0.23882 0.60926 0.0
C664 C 0.11848 0.29174 0.60217 0.0
C665 C 0.11057 0.25991 0.58373 0.0
C666 C 0.18382 0.27969 0.61581 0.0
C667 C 0.13975 0.23923 0.58102 0.0
C668 C 0.15488 0.30098 0.61837 0.0
C669 C 0.17702 0.24932 0.59685 0.0
C670 C 0.0895 0.31592 0.60387 0.0
C671 C 0.9428 0.34616 0.59391 0.0
H672 H 0.77987 0.23871 0.58998 0.0
H673 H 0.63959 0.143 0.53808 0.0
H674 H 0.70011 0.22697 0.60032 0.0
H675 H 0.71916 0.15423 0.52819 0.0
H676 H 0.08236 0.25169 0.5711 0.0
H677 H 0.21248 0.28814 0.62821 0.0
H678 H 0.13335 0.2155 0.56643 0.0
H679 H 0.16142 0.32522 0.63275 0.0
Eu680 Eu 0.87165 0.68668 0.57123 0.0
Eu681 Eu 0.83294 0.75794 0.59096 0.0
C682 C 0.87031 0.70897 0.62612 0.0
C683 C 0.9101 0.59019 0.56638 0.0
C684 C 0.88311 0.56128 0.58513 0.0
C685 C 0.9549 0.54687 0.56536 0.0
C686 C 0.89143 0.5249 0.59366 0.0
C687 C 0.94641 0.58304 0.5568 0.0
C688 C 0.92714 0.51683 0.58373 0.0
C689 C 0.9014 0.62811 0.55664 0.0
O690 O 0.91471 0.79863 0.59485 0.0
O691 O 0.93393 0.76204 0.566 0.0
C692 C 0.94676 0.79709 0.58108 0.0
O693 O 0.83132 0.70333 0.54279 0.0
O694 O 0.83354 0.81036 0.6154 0.0
O695 O 0.7891 0.7917 0.58452 0.0
O696 O 0.86129 0.77931 0.55533 0.0
C697 C 0.83878 0.74738 0.53933 0.0
O698 O 0.80285 0.63926 0.59037 0.0
O699 O 0.76647 0.68369 0.58274 0.0
O700 O 0.83607 0.71938 0.6223 0.0
O701 O 0.85661 0.61856 0.55514 0.0
O702 O 0.93033 0.6721 0.56369 0.0
O703 O 0.89298 0.70057 0.60929 0.0
C704 C 0.83228 0.87466 0.59565 0.0
C705 C 0.83607 0.8901 0.57257 0.0
C706 C 0.87766 0.95908 0.60766 0.0
C707 C 0.86034 0.93933 0.56709 0.0
C708 C 0.85343 0.90972 0.61313 0.0
C709 C 0.88123 0.97454 0.58456 0.0
C710 C 0.80908 0.82249 0.6015 0.0
C711 C 0.76342 0.64149 0.5869 0.0
H712 H 0.85529 0.56651 0.59304 0.0
H713 H 0.98214 0.54138 0.55701 0.0
H714 H 0.86965 0.50284 0.60795 0.0
H715 H 0.96785 0.60507 0.5424 0.0
H716 H 0.82037 0.86419 0.55864 0.0
H717 H 0.8925 0.98512 0.62161 0.0
H718 H 0.86264 0.9498 0.54911 0.0
H719 H 0.85123 0.89892 0.63106 0.0
C720 C 0.54668 0.9006 0.1266 0.0
C721 C 0.51609 0.90167 0.10943 0.0
H722 H 0.59101 0.87167 0.13763 0.0
C723 C 0.50214 0.86892 0.09093 0.0
H724 H 0.55835 0.9259 0.1409 0.0
C725 C 0.52194 0.8385 0.08867 0.0
C726 C 0.55597 0.84054 0.10489 0.0
H727 H 0.47952 0.86993 0.07718 0.0
H728 H 0.51327 0.81603 0.07341 0.0
C729 C 0.56608 0.87017 0.12446 0.0
C730 C 0.23208 0.70365 0.07006 0.0
C731 C 0.24247 0.73663 0.08817 0.0
H732 H 0.1935 0.62958 0.05938 0.0
C733 C 0.22183 0.7193 0.11004 0.0
H734 H 0.24786 0.71613 0.0531 0.0
C735 C 0.19059 0.66997 0.11363 0.0
C736 C 0.17991 0.63693 0.09551 0.0
H737 H 0.22909 0.74407 0.12426 0.0
H738 H 0.17451 0.65779 0.13056 0.0
C739 C 0.20138 0.65416 0.07374 0.0
C740 C 0.40408 0.57096 0.08249 0.0
C741 C 0.36815 0.53391 0.09619 0.0
H742 H 0.48003 0.61548 0.07544 0.0
C743 C 0.38283 0.51622 0.11496 0.0
H744 H 0.39408 0.58599 0.06813 0.0
C745 C 0.43192 0.53333 0.11925 0.0
C746 C 0.46782 0.56873 0.10493 0.0
H747 H 0.35633 0.48754 0.12581 0.0
H748 H 0.44164 0.51739 0.13332 0.0
C749 C 0.45339 0.58834 0.08688 0.0
C750 C 0.91541 0.51809 0.93742 0.0
C751 C 0.94979 0.53697 0.91951 0.0
H752 H 0.85734 0.52027 0.95505 0.0
C753 C 0.95079 0.57313 0.9052 0.0
H754 H 0.91369 0.49036 0.94883 0.0
C755 C 0.91886 0.59046 0.90886 0.0
C756 C 0.8849 0.57222 0.92694 0.0
H757 H 0.97684 0.58881 0.89129 0.0
H758 H 0.92162 0.61908 0.89777 0.0
C759 C 0.8834 0.53559 0.94113 0.0
C760 C 0.54287 0.36557 0.91314 0.0
C761 C 0.55674 0.3537 0.93415 0.0
H762 H 0.54595 0.42148 0.89149 0.0
C763 C 0.58702 0.39124 0.94927 0.0
H764 H 0.51926 0.33749 0.90118 0.0
C765 C 0.60248 0.43941 0.94368 0.0
C766 C 0.58781 0.45123 0.92288 0.0
H767 H 0.59892 0.38339 0.96543 0.0
H768 H 0.62523 0.46729 0.95592 0.0
C769 C 0.55811 0.41375 0.9076 0.0
C770 C 0.67613 0.21101 0.91772 0.0
C771 C 0.66044 0.1642 0.90932 0.0
H772 H 0.73677 0.27988 0.92687 0.0
C773 C 0.69529 0.15251 0.90187 0.0
H774 H 0.65025 0.22118 0.92363 0.0
C775 C 0.74467 0.18596 0.90378 0.0
C776 C 0.76052 0.23193 0.9133 0.0
H777 H 0.6845 0.11682 0.89523 0.0
H778 H 0.77042 0.17495 0.89876 0.0
C779 C 0.72569 0.24447 0.91978 0.0
C780 C 0.19292 0.17951 0.43582 0.0
C781 C 0.22523 0.18688 0.41756 0.0
H782 H 0.1534 0.20743 0.45423 0.0
C783 C 0.23668 0.22454 0.40185 0.0
H784 H 0.18342 0.15065 0.44819 0.0
C785 C 0.21968 0.25653 0.40532 0.0
C786 C 0.19057 0.2516 0.42451 0.0
H787 H 0.26044 0.23046 0.38732 0.0
H788 H 0.23129 0.28672 0.39351 0.0
C789 C 0.17559 0.21175 0.43927 0.0
C790 C 0.86205 0.04475 0.40923 0.0
C791 C 0.9036 0.06866 0.42312 0.0
H792 H 0.79665 0.9792 0.40196 0.0
C793 C 0.91271 0.04154 0.43961 0.0
H794 H 0.85454 0.06402 0.39593 0.0
C795 C 0.8794 0.99211 0.44293 0.0
C796 C 0.83643 0.9694 0.42993 0.0
H797 H 0.94445 0.05892 0.4506 0.0
H798 H 0.88611 0.97239 0.4563 0.0
C799 C 0.82891 0.99598 0.41266 0.0
C800 C 0.12165 0.94418 0.42963 0.0
C801 C 0.13751 0.92127 0.4452 0.0
H802 H 0.06034 0.94501 0.41467 0.0
C803 C 0.10372 0.88492 0.45978 0.0
H804 H 0.14693 0.97157 0.41786 0.0
C805 C 0.05454 0.86966 0.45795 0.0
C806 C 1.03792 0.88997 0.44124 0.0
H807 H 0.11509 0.8663 0.4717 0.0
H808 H 1.02928 0.83973 0.46862 0.0
C809 C 0.07209 0.92841 0.42755 0.0
C810 C 0.57022 0.89855 0.25168 0.0
C811 C 0.53056 0.87015 0.26614 0.0
H812 H 0.63366 0.90654 0.23499 0.0
C813 C 0.52397 0.82582 0.27433 0.0
H814 H 0.57586 0.93257 0.24484 0.0
C815 C 0.55706 0.81083 0.2687 0.0
C816 C 0.59722 0.83963 0.25455 0.0
H817 H 0.49388 0.80326 0.2856 0.0
H818 H 0.55149 0.77698 0.27573 0.0
C819 C 0.60306 0.88337 0.24586 0.0
C820 C 0.17936 0.72956 0.24291 0.0
C821 C 0.22892 0.76294 0.24594 0.0
H822 H 0.12312 0.65587 0.24283 0.0
C823 C 0.26073 0.74528 0.25016 0.0
H824 H 0.15355 0.74156 0.23974 0.0
C825 C 0.24301 0.6953 0.25166 0.0
C826 C 0.19317 0.66208 0.24899 0.0
H827 H 0.29908 0.76996 0.25265 0.0
H828 H 0.26834 0.68272 0.25485 0.0
C829 C 0.16177 0.68005 0.24455 0.0
C830 C 0.37373 0.56162 0.2538 0.0
C831 C 0.40901 0.55469 0.24253 0.0
H832 H 0.29782 0.53294 0.26064 0.0
C833 C 0.39346 0.51628 0.22677 0.0
H834 H 0.38446 0.59129 0.26579 0.0
C835 C 0.34428 0.48362 0.22368 0.0
C836 C 0.30923 0.4885 0.23615 0.0
H837 H 0.41927 0.50936 0.21791 0.0
H838 H 0.33368 0.45255 0.2126 0.0
C839 C 0.32414 0.52881 0.25057 0.0
C840 C 0.85329 0.56076 0.77626 0.0
C841 C 0.86727 0.60008 0.76126 0.0
H842 H 0.86063 0.49924 0.78477 0.0
C843 C 0.89414 0.60372 0.74139 0.0
H844 H 0.83285 0.55746 0.79177 0.0
C845 C 0.90948 0.57061 0.73722 0.0
C846 C 0.89908 0.53331 0.75305 0.0
H847 H 0.90504 0.63356 0.72944 0.0
H848 H 0.93108 0.57532 0.72197 0.0
C849 C 0.86929 0.52761 0.77222 0.0
C850 C 0.59426 0.38325 0.75751 0.0
C851 C 0.58201 0.4179 0.76477 0.0
H852 H 0.57063 0.30761 0.75375 0.0
C853 C 0.53818 0.40203 0.77659 0.0
H854 H 0.62788 0.39433 0.74843 0.0
C855 C 0.5059 0.35289 0.77966 0.0
C856 C 0.51659 0.31811 0.77118 0.0
H857 H 0.52822 0.42765 0.78308 0.0
H858 H 0.47152 0.34202 0.78799 0.0
C859 C 0.56173 0.33364 0.76071 0.0
C860 C 0.74596 0.26852 0.75316 0.0
C861 C 0.7093 0.22201 0.75981 0.0
H862 H 0.8226 0.31836 0.75122 0.0
C863 C 0.72204 0.19284 0.77275 0.0
H864 H 0.73709 0.29188 0.74328 0.0
C865 C 0.7704 0.20808 0.77746 0.0
C866 C 0.80743 0.25298 0.76942 0.0
H867 H 0.69458 0.15742 0.7787 0.0
H868 H 0.77897 0.18362 0.78656 0.0
C869 C 0.79482 0.28389 0.75789 0.0
C870 C 0.2206 0.20686 0.61078 0.0
C871 C 0.20988 0.22979 0.59289 0.0
H872 H 0.2607 0.17266 0.62121 0.0
C873 C 0.23128 0.23466 0.57109 0.0
H874 H 0.2043 0.20236 0.62769 0.0
C875 C 0.2638 0.21811 0.5674 0.0
C876 C 0.27503 0.19566 0.58534 0.0
H877 H 0.22381 0.25245 0.55703 0.0
H878 H 0.28057 0.22342 0.55056 0.0
C879 C 0.25254 0.18952 0.60698 0.0
C880 C 0.94427 0.06267 0.59061 0.0
C881 C 0.90294 1.02692 0.57892 0.0
H882 H 0.98985 0.13861 0.59771 0.0
C883 C 0.87977 0.04171 0.56288 0.0
H884 H 0.96336 0.05249 0.60284 0.0
C885 C 0.89515 0.09058 0.55988 0.0
C886 C 0.93424 0.12607 0.57268 0.0
H887 H 0.84769 1.01544 0.5537 0.0
H888 H 0.87448 0.10052 0.5485 0.0
C889 C 0.95998 0.11196 0.58742 0.0
C890 C 0.06321 0.90462 0.60297 0.0
C891 C 0.09859 0.89821 0.59165 0.0
H892 H 0.9876 0.87791 0.60852 0.0
C893 C 0.08356 0.85973 0.57597 0.0
H894 H 0.07363 0.93377 0.61525 0.0
C895 C 1.0343 0.82789 0.572 0.0
C896 C 0.99885 0.83353 0.58374 0.0
H897 H 0.10993 0.85424 0.56674 0.0
H898 H 1.02411 0.79824 0.56005 0.0
C899 C 1.01389 0.87253 0.59913 0.0
C900 C 0.59263 0.06684 0.02126 0.0
C901 C 0.5579 1.02441 0.03219 0.0
H902 H 0.61935 0.10371 0.9891 0.0
C903 C 0.53 0.98275 0.01861 0.0
H904 H 0.61507 0.09929 0.03118 0.0
C905 C 0.53226 0.98523 0.99445 0.0
C906 C 0.56255 0.0294 0.98353 0.0
H907 H 0.50357 0.94902 0.02656 0.0
H908 H 0.50706 0.95393 0.98448 0.0
C909 C 0.59498 0.06926 0.99712 0.0
C910 C 0.09159 0.56943 0.99842 0.0
C911 C 0.06195 0.53086 0.98373 0.0
H912 H 0.10895 0.59265 0.03381 0.0
C913 C 1.02123 0.49001 0.99289 0.0
H914 H 0.12316 0.60118 0.99167 0.0
C915 C 1.01318 0.48516 0.0166 0.0
C916 C 0.04529 0.52139 0.03156 0.0
H917 H 0.99733 0.46014 0.9818 0.0
H918 H 0.98401 0.45146 0.02336 0.0
C919 C 0.08325 0.56465 0.02239 0.0
C920 C 0.55582 0.60187 0.99491 0.0
C921 C 0.55779 0.56659 0.98147 0.0
H922 H 0.56015 0.63006 0.02877 0.0
C923 C 0.558 0.5273 0.99237 0.0
H924 H 0.55622 0.63268 0.98679 0.0
C925 C 0.56118 0.52609 0.01656 0.0
C926 C 0.5644 0.56436 0.02982 0.0
H927 H 0.56055 0.50024 0.98216 0.0
H928 H 0.56555 0.49787 0.0246 0.0
C929 C 0.55867 0.60055 0.01888 0.0
C930 C 0.2351 0.41897 0.34999 0.0
C931 C 0.21215 0.37593 0.3627 0.0
H932 H 0.25033 0.45088 0.31625 0.0
C933 C 0.19435 0.33148 0.3511 0.0
H934 H 0.24906 0.45358 0.35854 0.0
C935 C 0.19555 0.32982 0.32699 0.0
C936 C 0.21378 0.37257 0.31413 0.0
H937 H 0.1769 0.29774 0.36063 0.0
H938 H 0.17859 0.29495 0.31847 0.0
C939 C 0.23556 0.41728 0.32582 0.0
C940 C 0.67399 0.82629 0.35311 0.0
C941 C 0.71619 0.85698 0.36543 0.0
H942 H 0.64397 0.79619 0.31996 0.0
C943 C 0.75905 0.8878 0.35332 0.0
H944 H 0.64084 0.80182 0.36213 0.0
C945 C 0.76072 0.88506 0.32926 0.0
C946 C 0.7198 0.85077 0.31724 0.0
H947 H 0.79208 0.91158 0.36264 0.0
H948 H 0.79478 0.90675 0.32033 0.0
C949 C 0.67597 0.82279 0.32912 0.0
C950 C 0.21334 0.84305 0.33146 0.0
C951 C 0.20878 0.87686 0.31756 0.0
H952 H 0.22512 0.82413 0.36544 0.0
C953 C 0.20324 0.91303 0.3283 0.0
H954 H 0.2173 0.81446 0.32358 0.0
C955 C 0.2079 0.91865 0.35234 0.0
C956 C 0.21822 0.8882 0.366 0.0
H957 H 0.19985 0.93963 0.31806 0.0
H958 H 0.2067 0.94896 0.35997 0.0
C959 C 0.21809 0.84868 0.35545 0.0
C960 C 0.86935 0.67383 0.68757 0.0
C961 C 0.88867 0.7192 0.69848 0.0
H962 H 0.84947 0.63504 0.65545 0.0
C963 C 0.91119 0.76131 0.68505 0.0
H964 H 0.85189 0.64078 0.69763 0.0
C965 C 0.90946 0.75779 0.66091 0.0
C966 C 0.88617 0.71226 0.65011 0.0
H967 H 0.92593 0.79656 0.69304 0.0
H968 H 0.92295 0.79049 0.65069 0.0
C969 C 0.86817 0.67038 0.6635 0.0
C970 C 0.35941 0.19633 0.65944 0.0
C971 C 0.4044 0.22167 0.64819 0.0
H972 H 0.32234 0.1737 0.69195 0.0
C973 C 0.44607 0.25121 0.66104 0.0
H974 H 0.32693 0.17287 0.64969 0.0
C975 C 0.4435 0.25147 0.68515 0.0
C976 C 0.39925 0.2221 0.69662 0.0
H977 H 0.48108 0.2705 0.65266 0.0
H978 H 0.47683 0.27143 0.6949 0.0
C979 C 0.35672 0.19689 0.68357 0.0
C980 C 0.87545 0.24354 0.66007 0.0
C981 C 0.89452 0.21823 0.64857 0.0
H982 H 0.86698 0.27054 0.69251 0.0
C983 C 0.91148 0.1925 0.6617 0.0
H984 H 0.86234 0.26379 0.65041 0.0
C985 C 0.91419 0.19627 0.68581 0.0
C986 C 0.90048 0.22631 0.69711 0.0
H987 H 0.92613 0.1724 0.6532 0.0
H988 H 0.9308 0.17908 0.69531 0.0
C989 C 0.87866 0.24777 0.68416 0.0
C990 C 0.35037 0.97467 0.17234 0.0
C991 C 0.35638 0.94889 0.19042 0.0
H992 H 0.38187 1.01967 0.14262 0.0
C993 C 0.39997 0.94742 0.19138 0.0
H994 H 0.31792 0.97741 0.17129 0.0
C995 C 0.43713 0.97227 0.17523 0.0
C996 C 0.43184 0.99936 0.15758 0.0
H997 H 0.40602 0.92794 0.20512 0.0
H998 H 0.46999 0.97033 0.17663 0.0
C999 C 0.38763 0.99961 0.15616 0.0
C1000 C 0.15452 0.46016 0.16114 0.0
C1001 C 0.10633 0.44995 0.15817 0.0
H1002 H 0.20281 0.43988 0.17696 0.0
C1003 C 0.06924 0.4095 0.16945 0.0
H1004 H 0.1841 0.49134 0.15283 0.0
C1005 C 0.08007 0.37988 0.18316 0.0
C1006 C 0.1282 0.38978 0.1859 0.0
H1007 H 1.03177 0.40006 0.16728 0.0
H1008 H 0.05062 0.34925 0.19187 0.0
C1009 C 0.16533 0.43033 0.1747 0.0
C1010 C 0.62482 0.69572 0.18579 0.0
C1011 C 0.67322 0.7331 0.18894 0.0
H1012 H 0.57602 0.62797 0.16951 0.0
C1013 C 0.71017 0.72901 0.17799 0.0
H1014 H 0.59538 0.69765 0.19405 0.0
C1015 C 0.69896 0.68869 0.16421 0.0
C1016 C 0.65059 0.6514 0.16101 0.0
H1017 H 0.74776 0.75651 0.18034 0.0
H1018 H 0.7283 0.68713 0.15561 0.0
C1019 C 0.61362 0.65524 0.17209 0.0
C1020 C 0.05951 0.43202 0.83902 0.0
C1021 C 1.0245 0.43062 0.85413 0.0
H1022 H 0.07546 0.39593 0.81216 0.0
C1023 C 0.97774 0.38908 0.85389 0.0
H1024 H 0.09592 0.46282 0.83894 0.0
C1025 C 0.96625 0.35023 0.83901 0.0
C1026 C 1.00098 0.35194 0.82367 0.0
H1027 H 0.94964 0.38622 0.86538 0.0
H1028 H 0.92975 0.31956 0.83905 0.0
C1029 C 0.04781 0.39327 0.82392 0.0
C1030 C 0.73782 0.62539 0.85489 0.0
C1031 C 0.69811 0.63335 0.85641 0.0
H1032 H 0.80699 0.64634 0.8395 0.0
C1033 C 0.69925 0.6707 0.84319 0.0
H1034 H 0.73814 0.5968 0.86483 0.0
C1035 C 0.73902 0.6994 0.82896 0.0
C1036 C 0.77877 0.69154 0.82742 0.0
H1037 H 0.66992 0.67848 0.8442 0.0
H1038 H 0.73836 0.72767 0.81888 0.0
C1039 C 0.77771 0.65417 0.84062 0.0
C1040 C 0.44202 0.15132 0.84444 0.0
C1041 C 0.4261 0.12391 0.82413 0.0
H1042 H 0.47556 0.16066 0.8775 0.0
C1043 C 0.43378 0.08416 0.82168 0.0
H1044 H 0.43742 0.1824 0.84681 0.0
C1045 C 0.45637 0.07192 0.83912 0.0
C1046 C 0.47146 0.09882 0.85959 0.0
H1047 H 0.42235 0.06223 0.80616 0.0
H1048 H 0.46068 0.04065 0.83684 0.0
C1049 C 0.4643 0.13889 0.86193 0.0
C1050 C 0.06135 0.36473 0.52321 0.0
C1051 C 1.02594 0.31532 0.52406 0.0
H1052 H 0.12646 0.42003 0.50745 0.0
C1053 C 1.03238 0.28275 0.51029 0.0
H1054 H 0.05775 0.39083 0.53371 0.0
C1055 C 0.07306 0.29967 0.49573 0.0
C1056 C 0.10788 0.34927 0.49477 0.0
H1057 H 1.00631 0.24443 0.51086 0.0
H1058 H 0.07616 0.27434 0.48442 0.0
C1059 C 0.10143 0.38148 0.50862 0.0
C1060 C 0.73967 0.73278 0.49787 0.0
C1061 C 0.7505 0.78104 0.49488 0.0
H1062 H 0.75917 0.68405 0.51377 0.0
C1063 C 0.79169 0.81792 0.50579 0.0
H1064 H 0.70857 0.70356 0.48928 0.0
C1065 C 0.82148 0.80676 0.51921 0.0
C1066 C 0.81053 0.75844 0.52233 0.0
H1067 H 0.80196 0.85546 0.50327 0.0
H1068 H 0.85323 0.83619 0.52727 0.0
C1069 C 0.76917 0.72156 0.51148 0.0
C1070 C 0.3709 0.04848 0.49194 0.0
C1071 C 0.32482 1.00615 0.49242 0.0
H1072 H 0.41839 0.11884 0.50625 0.0
C1073 C 0.2909 1.0034 0.50861 0.0
H1074 H 0.39801 0.05207 0.47959 0.0
C1075 C 0.30254 0.04214 0.52368 0.0
C1076 C 0.34847 0.08474 0.52304 0.0
H1077 H 0.25496 0.97191 0.50927 0.0
H1078 H 0.27525 0.03851 0.53593 0.0
C1079 C 0.38257 0.08721 0.50703 0.0
C1080 C 0.48131 0.2144 0.08487 0.0
C1081 C 0.52755 0.2562 0.08631 0.0
H1082 H 0.44065 0.13666 0.08302 0.0
C1083 C 0.5685 0.25103 0.08347 0.0
H1084 H 0.4489 0.21684 0.08706 0.0
C1085 C 0.56364 0.20528 0.08131 0.0
C1086 C 0.51771 0.16337 0.08156 0.0
H1087 H 0.6046 0.2823 0.08381 0.0
H1088 H 0.59612 0.20251 0.08057 0.0
C1089 C 0.47645 0.16837 0.08244 0.0
C1090 C 0.85044 0.31595 0.09183 0.0
C1091 C 0.84583 0.27583 0.10412 0.0
H1092 H 0.89758 0.38735 0.07915 0.0
C1093 C 0.88859 0.27714 0.11172 0.0
H1094 H 0.81878 0.31607 0.08513 0.0
C1095 C 0.93435 0.31812 0.10788 0.0
C1096 C 0.9384 0.35887 0.09649 0.0
H1097 H 0.88672 0.24723 0.1214 0.0
H1098 H 0.96626 0.31865 0.11472 0.0
C1099 C 0.89589 0.35681 0.08818 0.0
C1100 C 0.78868 0.63272 0.09311 0.0
C1101 C 0.74385 0.59194 0.08765 0.0
H1102 H 0.86335 0.65995 0.10204 0.0
C1103 C 0.74196 0.54728 0.08471 0.0
H1104 H 0.79137 0.66754 0.09573 0.0
C1105 C 0.7829 0.54278 0.08847 0.0
C1106 C 0.82709 0.58278 0.09543 0.0
H1107 H 0.70802 0.51504 0.08055 0.0
H1108 H 0.77904 0.50722 0.08716 0.0
C1109 C 0.82978 0.62815 0.09706 0.0
C1110 C 0.27805 0.53711 0.91957 0.0
C1111 C 0.28144 0.50123 0.90704 0.0
H1112 H 0.23257 0.56279 0.93285 0.0
C1113 C 0.23799 0.46081 0.8993 0.0
H1114 H 0.31036 0.56906 0.92561 0.0
C1115 C 0.19275 0.45717 0.90346 0.0
C1116 C 0.18983 0.49401 0.91535 0.0
H1117 H 0.23892 0.43207 0.88984 0.0
H1118 H 0.16031 0.42629 0.89674 0.0
C1119 C 0.23312 0.53358 0.92363 0.0
C1120 C 0.63668 0.80506 0.90187 0.0
C1121 C 0.59331 0.80228 0.90945 0.0
H1122 H 0.67762 0.76835 0.89843 0.0
C1123 C 0.56018 0.76096 0.92186 0.0
H1124 H 0.66305 0.8363 0.89225 0.0
C1125 C 0.56842 0.72238 0.92529 0.0
C1126 C 0.61028 0.72374 0.91662 0.0
H1127 H 0.52705 0.75788 0.92855 0.0
H1128 H 0.54106 0.69067 0.9343 0.0
C1129 C 0.6451 0.76616 0.90543 0.0
C1130 C 0.34314 0.92743 0.9085 0.0
C1131 C 0.37572 0.93975 0.92703 0.0
H1132 H 0.28091 0.87218 0.89108 0.0
C1133 C 0.36672 0.90469 0.944 0.0
H1134 H 0.34975 0.95349 0.89494 0.0
C1135 C 0.32733 0.85732 0.94161 0.0
C1136 C 0.29597 0.84439 0.92237 0.0
H1137 H 0.39194 0.9129 0.95816 0.0
H1138 H 0.32233 0.83046 0.95443 0.0
C1139 C 0.30366 0.88063 0.90627 0.0
C1140 C 0.22069 0.59124 0.4189 0.0
C1141 C 0.18218 0.59664 0.42711 0.0
H1142 H 0.24628 0.54267 0.41054 0.0
C1143 C 0.13664 0.55451 0.43019 0.0
H1144 H 0.25588 0.62256 0.41565 0.0
C1145 C 0.13085 0.5083 0.42669 0.0
C1146 C 0.17052 0.50331 0.42016 0.0
H1147 H 0.10609 0.55702 0.43658 0.0
H1148 H 0.09636 0.47663 0.43069 0.0
C1149 C 0.21501 0.54533 0.41564 0.0
C1150 C 0.56001 0.68945 0.40908 0.0
C1151 C 0.60153 0.69006 0.41765 0.0
H1152 H 0.48297 0.64997 0.40545 0.0
C1153 C 0.59685 0.64771 0.42744 0.0
H1154 H 0.56266 0.72184 0.40164 0.0
C1155 C 0.55081 0.60672 0.43033 0.0
C1156 C 0.50869 0.60734 0.42335 0.0
H1157 H 0.62818 0.64766 0.43468 0.0
H1158 H 0.54813 0.5759 0.43949 0.0
C1159 C 0.51425 0.64848 0.41166 0.0
C1160 C 0.44232 0.88263 0.41516 0.0
C1161 C 0.48667 0.92232 0.42218 0.0
H1162 H 0.36707 0.8553 0.40827 0.0
C1163 C 0.48982 0.96784 0.42414 0.0
H1164 H 0.43819 0.84698 0.41363 0.0
C1165 C 0.44877 0.9727 0.42075 0.0
C1166 C 0.40371 0.93202 0.4156 0.0
H1167 H 0.52355 0.99933 0.42923 0.0
H1168 H 0.4515 1.00737 0.42395 0.0
C1169 C 0.40141 0.88739 0.41205 0.0
C1170 C 0.84838 0.77363 0.23821 0.0
C1171 C 0.84113 0.80513 0.25245 0.0
H1172 H 0.89985 0.75709 0.22288 0.0
C1173 C 0.88172 0.84293 0.26359 0.0
H1174 H 0.81809 0.74446 0.22917 0.0
C1175 C 0.92833 0.85017 0.26004 0.0
C1176 C 0.93618 0.82015 0.24503 0.0
H1177 H 0.87768 0.86804 0.27464 0.0
H1178 H 0.95855 0.8808 0.26834 0.0
C1179 C 0.89538 0.78126 0.23441 0.0
C1180 C 0.2792 0.06543 0.27215 0.0
C1181 C 0.30024 0.05263 0.25418 0.0
H1182 H 0.25105 0.11109 0.28275 0.0
C1183 C 0.31501 0.08098 0.23404 0.0
H1184 H 0.26655 0.04354 0.28767 0.0
C1185 C 0.30616 0.11927 0.23117 0.0
C1186 C 0.28159 0.12996 0.24824 0.0
H1187 H 0.33111 0.07178 0.21986 0.0
H1188 H 0.31704 0.1394 0.2151 0.0
C1189 C 0.26993 0.10384 0.26921 0.0
C1190 C 0.95483 0.18185 0.2528 0.0
C1191 C 0.9585 0.13991 0.2556 0.0
H1192 H 0.99257 0.25966 0.25203 0.0
C1193 C 1.00269 0.14536 0.26351 0.0
H1194 H 0.92148 0.17918 0.24667 0.0
C1195 C 1.04316 0.19128 0.26648 0.0
C1196 C 1.04051 0.23312 0.26195 0.0
H1197 H 1.00666 0.11405 0.26651 0.0
H1198 H 0.07742 0.19408 0.27111 0.0
C1199 C 0.99548 0.22807 0.25601 0.0
C1200 C 0.80613 0.85496 0.75814 0.0
C1201 C 0.84691 0.85085 0.75291 0.0
H1202 H 0.77921 0.9028 0.76636 0.0
C1203 C 0.89151 0.89334 0.74923 0.0
H1204 H 0.77145 0.82291 0.76136 0.0
C1205 C 0.89612 0.93888 0.75219 0.0
C1206 C 0.8563 0.9433 0.75914 0.0
H1207 H 0.92368 0.89136 0.74529 0.0
H1208 H 0.93172 0.97053 0.75047 0.0
C1209 C 0.81084 0.90076 0.76134 0.0
C1210 C 0.27337 0.99727 0.7577 0.0
C1211 C 0.27774 0.03899 0.7473 0.0
H1212 H 0.22523 0.92649 0.7711 0.0
C1213 C 0.23572 0.03804 0.73923 0.0
H1214 H 0.30505 0.99756 0.7647 0.0
C1215 C 0.18998 0.99743 0.74277 0.0
C1216 C 0.1849 0.95698 0.75498 0.0
H1217 H 0.23804 0.07005 0.73149 0.0
H1218 H 0.15842 0.99875 0.73687 0.0
C1219 C 0.22741 0.95666 0.76153 0.0
C1220 C 0.12155 0.23238 0.74506 0.0
C1221 C 0.16482 0.27102 0.75379 0.0
H1222 H 0.04691 0.20558 0.7368 0.0
C1223 C 0.16722 0.31589 0.75727 0.0
H1224 H 0.11802 0.19724 0.74232 0.0
C1225 C 0.12625 0.32081 0.75377 0.0
C1226 C 0.08205 0.28083 0.74695 0.0
H1227 H 0.20015 0.34661 0.76371 0.0
H1228 H 0.12814 0.35463 0.75824 0.0
C1229 C 0.08069 0.23717 0.74183 0.0
C1230 C 0.56581 0.21232 0.5888 0.0
C1231 C 0.52269 0.16889 0.58397 0.0
H1232 H 0.64323 0.2512 0.58805 0.0
C1233 C 0.5261 0.12929 0.57579 0.0
H1234 H 0.56475 0.24367 0.59513 0.0
C1235 C 0.57156 0.13369 0.57174 0.0
C1236 C 0.61467 0.1777 0.57588 0.0
H1237 H 0.49372 0.09537 0.57184 0.0
H1238 H 0.57291 0.10267 0.56515 0.0
C1239 C 0.61105 0.21663 0.58484 0.0
C1240 C 0.89551 0.38828 0.59804 0.0
C1241 C 0.94097 0.39117 0.59748 0.0
H1242 H 0.85553 0.42517 0.59422 0.0
C1243 C 0.98267 0.43684 0.5953 0.0
H1244 H 0.86267 0.35347 0.59951 0.0
C1245 C 0.97857 0.47828 0.59198 0.0
C1246 C 0.93271 0.47486 0.59102 0.0
H1247 H 1.01811 0.44007 0.59445 0.0
H1248 H 1.01121 0.51273 0.58928 0.0
C1249 C 0.89142 0.42951 0.595 0.0
C1250 C 0.63498 0.54519 0.56932 0.0
C1251 C 0.63334 0.50215 0.57661 0.0
H1252 H 0.67656 0.62291 0.56713 0.0
C1253 C 0.67335 0.50639 0.58895 0.0
H1254 H 0.60473 0.54367 0.56004 0.0
C1255 C 0.7142 0.55171 0.59312 0.0
C1256 C 0.71661 0.59461 0.58519 0.0
H1257 H 0.67409 0.47448 0.59466 0.0
H1258 H 0.74465 0.55292 0.60208 0.0
C1259 C 0.676 0.59082 0.57362 0.0
loop_
_geom_bond_atom_site_label_1
_geom_bond_atom_site_label_2
_geom_bond_distance
_geom_bond_site_symmetry_2
_ccdc_geom_bond_type
Eu0 C9 2.828 . S
Eu0 O11 2.392 1_545 S
Eu0 O13 2.418 . S
Eu0 O18 2.373 . S
Eu0 O21 2.488 . S
Eu0 O22 2.471 . S
Eu0 O23 2.349 . S
Eu1 O10 2.373 . S
Eu1 O14 2.488 . S
Eu1 O15 2.471 . S
Eu1 O16 2.349 . S
Eu1 O19 2.392 1_565 S
Eu1 O20 2.418 . S
Eu1 C30 2.828 . S
C2 O20 1.244 1_545 S
C2 O23 1.265 . S
C3 C4 1.379 . S
C3 C7 1.373 . S
C3 C9 1.505 . S
C4 C3 1.379 . S
C4 C6 1.369 . S
C4 H32 0.930 . S
C5 C7 1.383 . S
C5 C8 1.382 . S
C5 H33 0.930 . S
C6 C4 1.369 . S
C6 C8 1.392 . S
C6 H34 0.930 . S
C7 C3 1.373 . S
C7 C5 1.383 . S
C7 H35 0.931 . S
C8 C5 1.382 . S
C8 C6 1.392 . S
C9 Eu0 2.828 . S
C9 C3 1.505 . S
C9 O21 1.249 . S
C9 O22 1.244 . S
O10 Eu1 2.373 . S
O10 C12 1.258 . S
O11 Eu0 2.392 1_565 S
O11 C12 1.242 . S
C12 O10 1.258 . S
C12 O11 1.242 . S
O13 Eu0 2.418 . S
O13 C17 1.244 . S
O14 Eu1 2.488 . S
O14 C30 1.249 . S
O15 Eu1 2.471 . S
O15 C30 1.244 . S
O16 Eu1 2.349 . S
O16 C17 1.265 1_565 S
C17 O13 1.244 . S
C17 O16 1.265 1_545 S
O18 Eu0 2.373 . S
O18 C31 1.258 . S
O19 Eu1 2.392 1_545 S
O19 C31 1.242 . S
O20 Eu1 2.418 . S
O20 C2 1.244 1_565 S
O21 Eu0 2.488 . S
O21 C9 1.249 . S
O22 Eu0 2.471 . S
O22 C9 1.244 . S
O23 Eu0 2.349 . S
O23 C2 1.265 . S
C24 C25 1.379 . S
C24 C28 1.373 . S
C24 C30 1.505 . S
C25 C24 1.379 . S
C25 C27 1.369 . S
C25 H36 0.930 . S
C26 C28 1.383 . S
C26 C29 1.382 . S
C26 H37 0.930 . S
C27 C25 1.369 . S
C27 C29 1.392 . S
C27 H38 0.930 . S
C28 C24 1.373 . S
C28 C26 1.383 . S
C28 H39 0.931 . S
C29 C26 1.382 . S
C29 C27 1.392 . S
C30 Eu1 2.828 . S
C30 O14 1.249 . S
C30 O15 1.244 . S
C30 C24 1.505 . S
C31 O18 1.258 . S
C31 O19 1.242 . S
H32 C4 0.930 . S
H33 C5 0.930 . S
H34 C6 0.930 . S
H35 C7 0.931 . S
H36 C25 0.930 . S
H37 C26 0.930 . S
H38 C27 0.930 . S
H39 C28 0.931 . S
Eu40 C49 2.828 . S
Eu40 O51 2.392 1_655 S
Eu40 O53 2.418 1_655 S
Eu40 O58 2.373 . S
Eu40 O61 2.488 . S
Eu40 O62 2.471 . S
Eu40 O63 2.349 1_655 S
Eu41 O50 2.373 . S
Eu41 O54 2.488 . S
Eu41 O55 2.471 . S
Eu41 O56 2.349 . S
Eu41 O59 2.392 1_455 S
Eu41 O60 2.418 . S
Eu41 C70 2.828 . S
C42 O60 1.244 . S
C42 O63 1.265 . S
C43 C44 1.379 . S
C43 C47 1.373 . S
C43 C49 1.505 . S
C44 C43 1.379 . S
C44 C46 1.369 . S
C44 H72 0.930 . S
C45 C47 1.383 . S
C45 C48 1.382 . S
C45 H73 0.930 . S
C46 C44 1.369 . S
C46 C48 1.392 . S
C46 H74 0.930 . S
C47 C43 1.373 . S
C47 C45 1.383 . S
C47 H75 0.931 . S
C48 C45 1.382 . S
C48 C46 1.392 . S
C49 Eu40 2.828 . S
C49 C43 1.505 . S
C49 O61 1.249 . S
C49 O62 1.244 . S
O50 Eu41 2.373 . S
O50 C52 1.258 . S
O51 Eu40 2.392 1_455 S
O51 C52 1.242 . S
C52 O50 1.258 . S
C52 O51 1.242 . S
O53 Eu40 2.418 1_455 S
O53 C57 1.244 . S
O54 Eu41 2.488 . S
O54 C70 1.249 . S
O55 Eu41 2.471 . S
O55 C70 1.244 . S
O56 Eu41 2.349 . S
O56 C57 1.265 . S
C57 O53 1.244 . S
C57 O56 1.265 . S
O58 Eu40 2.373 . S
O58 C71 1.258 . S
O59 Eu41 2.392 1_655 S
O59 C71 1.242 . S
O60 Eu41 2.418 . S
O60 C42 1.244 . S
O61 Eu40 2.488 . S
O61 C49 1.249 . S
O62 Eu40 2.471 . S
O62 C49 1.244 . S
O63 Eu40 2.349 1_455 S
O63 C42 1.265 . S
C64 C65 1.379 . S
C64 C68 1.373 . S
C64 C70 1.505 . S
C65 C64 1.379 . S
C65 C67 1.369 . S
C65 H76 0.930 . S
C66 C68 1.383 . S
C66 C69 1.382 . S
C66 H77 0.930 . S
C67 C65 1.369 . S
C67 C69 1.392 . S
C67 H78 0.930 . S
C68 C64 1.373 . S
C68 C66 1.383 . S
C68 H79 0.931 . S
C69 C66 1.382 . S
C69 C67 1.392 . S
C70 Eu41 2.828 . S
C70 O54 1.249 . S
C70 O55 1.244 . S
C70 C64 1.505 . S
C71 O58 1.258 . S
C71 O59 1.242 . S
H72 C44 0.930 . S
H73 C45 0.930 . S
H74 C46 0.930 . S
H75 C47 0.931 . S
H76 C65 0.930 . S
H77 C66 0.930 . S
H78 C67 0.930 . S
H79 C68 0.931 . S
Eu80 C89 2.828 . S
Eu80 O91 2.392 . S
Eu80 O93 2.418 . S
Eu80 O98 2.373 . S
Eu80 O101 2.488 . S
Eu80 O102 2.471 . S
Eu80 O103 2.349 . S
Eu81 O90 2.373 . S
Eu81 O94 2.488 . S
Eu81 O95 2.471 . S
Eu81 O96 2.349 . S
Eu81 O99 2.392 . S
Eu81 O100 2.418 . S
Eu81 C110 2.828 . S
C82 O100 1.244 . S
C82 O103 1.265 . S
C83 C84 1.379 . S
C83 C87 1.373 . S
C83 C89 1.505 . S
C84 C83 1.379 . S
C84 C86 1.369 . S
C84 H112 0.930 . S
C85 C87 1.383 . S
C85 C88 1.382 . S
C85 H113 0.930 . S
C86 C84 1.369 . S
C86 C88 1.392 . S
C86 H114 0.930 . S
C87 C83 1.373 . S
C87 C85 1.383 . S
C87 H115 0.931 . S
C88 C85 1.382 . S
C88 C86 1.392 . S
C89 Eu80 2.828 . S
C89 C83 1.505 . S
C89 O101 1.249 . S
C89 O102 1.244 . S
O90 Eu81 2.373 . S
O90 C92 1.258 . S
O91 Eu80 2.392 . S
O91 C92 1.242 . S
C92 O90 1.258 . S
C92 O91 1.242 . S
O93 Eu80 2.418 . S
O93 C97 1.244 . S
O94 Eu81 2.488 . S
O94 C110 1.249 . S
O95 Eu81 2.471 . S
O95 C110 1.244 . S
O96 Eu81 2.349 . S
O96 C97 1.265 . S
C97 O93 1.244 . S
C97 O96 1.265 . S
O98 Eu80 2.373 . S
O98 C111 1.258 . S
O99 Eu81 2.392 . S
O99 C111 1.242 . S
O100 Eu81 2.418 . S
O100 C82 1.244 . S
O101 Eu80 2.488 . S
O101 C89 1.249 . S
O102 Eu80 2.471 . S
O102 C89 1.244 . S
O103 Eu80 2.349 . S
O103 C82 1.265 . S
C104 C105 1.379 . S
C104 C108 1.373 . S
C104 C110 1.505 . S
C105 C104 1.379 . S
C105 C107 1.369 . S
C105 H116 0.930 . S
C106 C108 1.383 . S
C106 C109 1.382 . S
C106 H117 0.930 . S
C107 C105 1.369 . S
C107 C109 1.392 . S
C107 H118 0.930 . S
C108 C104 1.373 . S
C108 C106 1.383 . S
C108 H119 0.931 . S
C109 C106 1.382 . S
C109 C107 1.392 . S
C110 Eu81 2.828 . S
C110 O94 1.249 . S
C110 O95 1.244 . S
C110 C104 1.505 . S
C111 O98 1.258 . S
C111 O99 1.242 . S
H112 C84 0.930 . S
H113 C85 0.930 . S
H114 C86 0.930 . S
H115 C87 0.931 . S
H116 C105 0.930 . S
H117 C106 0.930 . S
H118 C107 0.930 . S
H119 C108 0.931 . S
Eu120 C129 2.828 . S
Eu120 O131 2.392 1_455 S
Eu120 O133 2.418 . S
Eu120 O138 2.373 . S
Eu120 O141 2.488 . S
Eu120 O142 2.471 . S
Eu120 O143 2.349 . S
Eu121 O130 2.373 . S
Eu121 O134 2.488 . S
Eu121 O135 2.471 . S
Eu121 O136 2.349 . S
Eu121 O139 2.392 1_655 S
Eu121 O140 2.418 . S
Eu121 C150 2.828 . S
C122 O140 1.244 1_455 S
C122 O143 1.265 . S
C123 C124 1.379 . S
C123 C127 1.373 . S
C123 C129 1.505 . S
C124 C123 1.379 . S
C124 C126 1.369 . S
C124 H152 0.930 . S
C125 C127 1.383 . S
C125 C128 1.382 . S
C125 H153 0.930 . S
C126 C124 1.369 . S
C126 C128 1.392 . S
C126 H154 0.930 . S
C127 C123 1.373 . S
C127 C125 1.383 . S
C127 H155 0.931 . S
C128 C125 1.382 . S
C128 C126 1.392 . S
C129 Eu120 2.828 . S
C129 C123 1.505 . S
C129 O141 1.249 . S
C129 O142 1.244 . S
O130 Eu121 2.373 . S
O130 C132 1.258 . S
O131 Eu120 2.392 1_655 S
O131 C132 1.242 . S
C132 O130 1.258 . S
C132 O131 1.242 . S
O133 Eu120 2.418 . S
O133 C137 1.244 . S
O134 Eu121 2.488 . S
O134 C150 1.249 . S
O135 Eu121 2.471 . S
O135 C150 1.244 . S
O136 Eu121 2.349 . S
O136 C137 1.265 1_655 S
C137 O133 1.244 . S
C137 O136 1.265 1_455 S
O138 Eu120 2.373 . S
O138 C151 1.258 . S
O139 Eu121 2.392 1_455 S
O139 C151 1.242 . S
O140 Eu121 2.418 . S
O140 C122 1.244 1_655 S
O141 Eu120 2.488 . S
O141 C129 1.249 . S
O142 Eu120 2.471 . S
O142 C129 1.244 . S
O143 Eu120 2.349 . S
O143 C122 1.265 . S
C144 C145 1.379 . S
C144 C148 1.373 . S
C144 C150 1.505 . S
C145 C144 1.379 . S
C145 C147 1.369 . S
C145 H156 0.930 . S
C146 C148 1.383 . S
C146 C149 1.382 . S
C146 H157 0.930 . S
C147 C145 1.369 . S
C147 C149 1.392 . S
C147 H158 0.930 . S
C148 C144 1.373 . S
C148 C146 1.383 . S
C148 H159 0.931 . S
C149 C146 1.382 . S
C149 C147 1.392 . S
C150 Eu121 2.828 . S
C150 O134 1.249 . S
C150 O135 1.244 . S
C150 C144 1.505 . S
C151 O138 1.258 . S
C151 O139 1.242 . S
H152 C124 0.930 . S
H153 C125 0.930 . S
H154 C126 0.930 . S
H155 C127 0.931 . S
H156 C145 0.930 . S
H157 C146 0.930 . S
H158 C147 0.930 . S
H159 C148 0.931 . S
Eu160 C169 2.828 . S
Eu160 O171 2.392 . S
Eu160 O173 2.418 . S
Eu160 O178 2.373 . S
Eu160 O181 2.488 . S
Eu160 O182 2.471 . S
Eu160 O183 2.349 . S
Eu161 O170 2.373 . S
Eu161 O174 2.488 . S
Eu161 O175 2.471 . S
Eu161 O176 2.349 . S
Eu161 O179 2.392 . S
Eu161 O180 2.418 . S
Eu161 C190 2.828 . S
C162 O180 1.244 . S
C162 O183 1.265 . S
C163 C164 1.379 . S
C163 C167 1.373 . S
C163 C169 1.505 . S
C164 C163 1.379 . S
C164 C166 1.369 . S
C164 H192 0.930 . S
C165 C167 1.383 . S
C165 C168 1.382 . S
C165 H193 0.930 . S
C166 C164 1.369 . S
C166 C168 1.392 . S
C166 H194 0.930 . S
C167 C163 1.373 . S
C167 C165 1.383 . S
C167 H195 0.931 . S
C168 C165 1.382 . S
C168 C166 1.392 . S
C169 Eu160 2.828 . S
C169 C163 1.505 . S
C169 O181 1.249 . S
C169 O182 1.244 . S
O170 Eu161 2.373 . S
O170 C172 1.258 . S
O171 Eu160 2.392 . S
O171 C172 1.242 . S
C172 O170 1.258 . S
C172 O171 1.242 . S
O173 Eu160 2.418 . S
O173 C177 1.244 . S
O174 Eu161 2.488 . S
O174 C190 1.249 . S
O175 Eu161 2.471 . S
O175 C190 1.244 . S
O176 Eu161 2.349 . S
O176 C177 1.265 . S
C177 O173 1.244 . S
C177 O176 1.265 . S
O178 Eu160 2.373 . S
O178 C191 1.258 . S
O179 Eu161 2.392 . S
O179 C191 1.242 . S
O180 Eu161 2.418 . S
O180 C162 1.244 . S
O181 Eu160 2.488 . S
O181 C169 1.249 . S
O182 Eu160 2.471 . S
O182 C169 1.244 . S
O183 Eu160 2.349 . S
O183 C162 1.265 . S
C184 C185 1.379 . S
C184 C188 1.373 . S
C184 C190 1.505 . S
C185 C184 1.379 . S
C185 C187 1.369 . S
C185 H196 0.930 . S
C186 C188 1.383 . S
C186 C189 1.382 . S
C186 H197 0.930 . S
C187 C185 1.369 . S
C187 C189 1.392 . S
C187 H198 0.930 . S
C188 C184 1.373 . S
C188 C186 1.383 . S
C188 H199 0.931 . S
C189 C186 1.382 . S
C189 C187 1.392 . S
C190 Eu161 2.828 . S
C190 O174 1.249 . S
C190 O175 1.244 . S
C190 C184 1.505 . S
C191 O178 1.258 . S
C191 O179 1.242 . S
H192 C164 0.930 . S
H193 C165 0.930 . S
H194 C166 0.930 . S
H195 C167 0.931 . S
H196 C185 0.930 . S
H197 C186 0.930 . S
H198 C187 0.930 . S
H199 C188 0.931 . S
Eu200 C209 2.828 . S
Eu200 O211 2.392 1_565 S
Eu200 O213 2.418 1_565 S
Eu200 O218 2.373 . S
Eu200 O221 2.488 . S
Eu200 O222 2.471 . S
Eu200 O223 2.349 1_565 S
Eu201 O210 2.373 . S
Eu201 O214 2.488 . S
Eu201 O215 2.471 . S
Eu201 O216 2.349 . S
Eu201 O219 2.392 1_545 S
Eu201 O220 2.418 . S
Eu201 C230 2.828 . S
C202 O220 1.244 . S
C202 O223 1.265 . S
C203 C204 1.379 . S
C203 C207 1.373 . S
C203 C209 1.505 . S
C204 C203 1.379 . S
C204 C206 1.369 . S
C204 H232 0.930 . S
C205 C207 1.383 . S
C205 C208 1.382 . S
C205 H233 0.930 . S
C206 C204 1.369 . S
C206 C208 1.392 . S
C206 H234 0.930 . S
C207 C203 1.373 . S
C207 C205 1.383 . S
C207 H235 0.931 . S
C208 C205 1.382 . S
C208 C206 1.392 . S
C209 Eu200 2.828 . S
C209 C203 1.505 . S
C209 O221 1.249 . S
C209 O222 1.244 . S
O210 Eu201 2.373 . S
O210 C212 1.258 . S
O211 Eu200 2.392 1_545 S
O211 C212 1.242 . S
C212 O210 1.258 . S
C212 O211 1.242 . S
O213 Eu200 2.418 1_545 S
O213 C217 1.244 . S
O214 Eu201 2.488 . S
O214 C230 1.249 . S
O215 Eu201 2.471 . S
O215 C230 1.244 . S
O216 Eu201 2.349 . S
O216 C217 1.265 . S
C217 O213 1.244 . S
C217 O216 1.265 . S
O218 Eu200 2.373 . S
O218 C231 1.258 . S
O219 Eu201 2.392 1_565 S
O219 C231 1.242 . S
O220 Eu201 2.418 . S
O220 C202 1.244 . S
O221 Eu200 2.488 . S
O221 C209 1.249 . S
O222 Eu200 2.471 . S
O222 C209 1.244 . S
O223 Eu200 2.349 1_545 S
O223 C202 1.265 . S
C224 C225 1.379 . S
C224 C228 1.373 . S
C224 C230 1.505 . S
C225 C224 1.379 . S
C225 C227 1.369 . S
C225 H236 0.930 . S
C226 C228 1.383 . S
C226 C229 1.382 . S
C226 H237 0.930 . S
C227 C225 1.369 . S
C227 C229 1.392 . S
C227 H238 0.930 . S
C228 C224 1.373 . S
C228 C226 1.383 . S
C228 H239 0.931 . S
C229 C226 1.382 . S
C229 C227 1.392 . S
C230 Eu201 2.828 . S
C230 O214 1.249 . S
C230 O215 1.244 . S
C230 C224 1.505 . S
C231 O218 1.258 . S
C231 O219 1.242 . S
H232 C204 0.930 . S
H233 C205 0.930 . S
H234 C206 0.930 . S
H235 C207 0.931 . S
H236 C225 0.930 . S
H237 C226 0.930 . S
H238 C227 0.930 . S
H239 C228 0.931 . S
Eu240 C249 2.828 . S
Eu240 O251 2.392 . S
Eu240 O253 2.418 . S
Eu240 O258 2.373 . S
Eu240 O261 2.488 . S
Eu240 O262 2.471 . S
Eu240 O263 2.349 . S
Eu241 O250 2.373 . S
Eu241 O254 2.488 . S
Eu241 O255 2.471 . S
Eu241 O256 2.349 . S
Eu241 O259 2.392 . S
Eu241 O260 2.418 . S
Eu241 C270 2.828 . S
C242 O260 1.244 . S
C242 O263 1.265 . S
C243 C244 1.379 . S
C243 C247 1.373 . S
C243 C249 1.505 . S
C244 C243 1.379 . S
C244 C246 1.369 . S
C244 H272 0.930 . S
C245 C247 1.383 . S
C245 C248 1.382 . S
C245 H273 0.930 . S
C246 C244 1.369 . S
C246 C248 1.392 . S
C246 H274 0.930 . S
C247 C243 1.373 . S
C247 C245 1.383 . S
C247 H275 0.931 . S
C248 C245 1.382 . S
C248 C246 1.392 . S
C249 Eu240 2.828 . S
C249 C243 1.505 . S
C249 O261 1.249 . S
C249 O262 1.244 . S
O250 Eu241 2.373 . S
O250 C252 1.258 . S
O251 Eu240 2.392 . S
O251 C252 1.242 . S
C252 O250 1.258 . S
C252 O251 1.242 . S
O253 Eu240 2.418 . S
O253 C257 1.244 . S
O254 Eu241 2.488 . S
O254 C270 1.249 . S
O255 Eu241 2.471 . S
O255 C270 1.244 . S
O256 Eu241 2.349 . S
O256 C257 1.265 . S
C257 O253 1.244 . S
C257 O256 1.265 . S
O258 Eu240 2.373 . S
O258 C271 1.258 . S
O259 Eu241 2.392 . S
O259 C271 1.242 . S
O260 Eu241 2.418 . S
O260 C242 1.244 . S
O261 Eu240 2.488 . S
O261 C249 1.249 . S
O262 Eu240 2.471 . S
O262 C249 1.244 . S
O263 Eu240 2.349 . S
O263 C242 1.265 . S
C264 C265 1.379 . S
C264 C268 1.373 . S
C264 C270 1.505 1_655 S
C265 C264 1.379 . S
C265 C267 1.369 . S
C265 H276 0.930 . S
C266 C268 1.383 . S
C266 C269 1.382 . S
C266 H277 0.930 . S
C267 C265 1.369 . S
C267 C269 1.392 . S
C267 H278 0.930 . S
C268 C264 1.373 . S
C268 C266 1.383 . S
C268 H279 0.931 . S
C269 C266 1.382 . S
C269 C267 1.392 . S
C270 Eu241 2.828 . S
C270 O254 1.249 . S
C270 O255 1.244 . S
C270 C264 1.505 1_455 S
C271 O258 1.258 . S
C271 O259 1.242 . S
H272 C244 0.930 . S
H273 C245 0.930 . S
H274 C246 0.930 . S
H275 C247 0.931 . S
H276 C265 0.930 . S
H277 C266 0.930 . S
H278 C267 0.930 . S
H279 C268 0.931 . S
Eu280 C289 2.828 . S
Eu280 O291 2.392 . S
Eu280 O293 2.418 . S
Eu280 O298 2.373 . S
Eu280 O301 2.488 . S
Eu280 O302 2.471 . S
Eu280 O303 2.349 . S
Eu281 O290 2.373 . S
Eu281 O294 2.488 . S
Eu281 O295 2.471 . S
Eu281 O296 2.349 . S
Eu281 O299 2.392 . S
Eu281 O300 2.418 . S
Eu281 C310 2.828 . S
C282 O300 1.244 . S
C282 O303 1.265 . S
C283 C284 1.379 . S
C283 C287 1.373 . S
C283 C289 1.505 . S
C284 C283 1.379 . S
C284 C286 1.369 . S
C284 H312 0.930 . S
C285 C287 1.383 . S
C285 C288 1.382 . S
C285 H313 0.930 . S
C286 C284 1.369 . S
C286 C288 1.392 . S
C286 H314 0.930 . S
C287 C283 1.373 . S
C287 C285 1.383 . S
C287 H315 0.931 . S
C288 C285 1.382 . S
C288 C286 1.392 . S
C289 Eu280 2.828 . S
C289 C283 1.505 . S
C289 O301 1.249 . S
C289 O302 1.244 . S
O290 Eu281 2.373 . S
O290 C292 1.258 . S
O291 Eu280 2.392 . S
O291 C292 1.242 . S
C292 O290 1.258 . S
C292 O291 1.242 . S
O293 Eu280 2.418 . S
O293 C297 1.244 . S
O294 Eu281 2.488 . S
O294 C310 1.249 . S
O295 Eu281 2.471 . S
O295 C310 1.244 . S
O296 Eu281 2.349 . S
O296 C297 1.265 . S
C297 O293 1.244 . S
C297 O296 1.265 . S
O298 Eu280 2.373 . S
O298 C311 1.258 . S
O299 Eu281 2.392 . S
O299 C311 1.242 . S
O300 Eu281 2.418 . S
O300 C282 1.244 . S
O301 Eu280 2.488 . S
O301 C289 1.249 . S
O302 Eu280 2.471 . S
O302 C289 1.244 . S
O303 Eu280 2.349 . S
O303 C282 1.265 . S
C304 C305 1.379 . S
C304 C308 1.373 . S
C304 C310 1.505 . S
C305 C304 1.379 . S
C305 C307 1.369 . S
C305 H316 0.930 . S
C306 C308 1.383 . S
C306 C309 1.382 . S
C306 H317 0.930 . S
C307 C305 1.369 . S
C307 C309 1.392 . S
C307 H318 0.930 . S
C308 C304 1.373 . S
C308 C306 1.383 . S
C308 H319 0.931 . S
C309 C306 1.382 . S
C309 C307 1.392 . S
C310 Eu281 2.828 . S
C310 O294 1.249 . S
C310 O295 1.244 . S
C310 C304 1.505 . S
C311 O298 1.258 . S
C311 O299 1.242 . S
H312 C284 0.930 . S
H313 C285 0.930 . S
H314 C286 0.930 . S
H315 C287 0.931 . S
H316 C305 0.930 . S
H317 C306 0.930 . S
H318 C307 0.930 . S
H319 C308 0.931 . S
Eu320 C329 2.828 . S
Eu320 O331 2.392 . S
Eu320 O333 2.418 . S
Eu320 O338 2.373 . S
Eu320 O341 2.488 . S
Eu320 O342 2.471 . S
Eu320 O343 2.349 . S
Eu321 O330 2.373 . S
Eu321 O334 2.488 1_565 S
Eu321 O335 2.471 1_565 S
Eu321 O336 2.349 . S
Eu321 O339 2.392 . S
Eu321 O340 2.418 . S
Eu321 C350 2.828 1_565 S
C322 O340 1.244 . S
C322 O343 1.265 . S
C323 C324 1.379 . S
C323 C327 1.373 . S
C323 C329 1.505 . S
C324 C323 1.379 . S
C324 C326 1.369 . S
C324 H352 0.930 . S
C325 C327 1.383 . S
C325 C328 1.382 . S
C325 H353 0.930 . S
C326 C324 1.369 . S
C326 C328 1.392 . S
C326 H354 0.930 . S
C327 C323 1.373 . S
C327 C325 1.383 . S
C327 H355 0.931 . S
C328 C325 1.382 . S
C328 C326 1.392 . S
C329 Eu320 2.828 . S
C329 C323 1.505 . S
C329 O341 1.249 . S
C329 O342 1.244 . S
O330 Eu321 2.373 . S
O330 C332 1.258 . S
O331 Eu320 2.392 . S
O331 C332 1.242 . S
C332 O330 1.258 . S
C332 O331 1.242 . S
O333 Eu320 2.418 . S
O333 C337 1.244 . S
O334 Eu321 2.488 1_545 S
O334 C350 1.249 . S
O335 Eu321 2.471 1_545 S
O335 C350 1.244 . S
O336 Eu321 2.349 . S
O336 C337 1.265 . S
C337 O333 1.244 . S
C337 O336 1.265 . S
O338 Eu320 2.373 . S
O338 C351 1.258 . S
O339 Eu321 2.392 . S
O339 C351 1.242 . S
O340 Eu321 2.418 . S
O340 C322 1.244 . S
O341 Eu320 2.488 . S
O341 C329 1.249 . S
O342 Eu320 2.471 . S
O342 C329 1.244 . S
O343 Eu320 2.349 . S
O343 C322 1.265 . S
C344 C345 1.379 . S
C344 C348 1.373 . S
C344 C350 1.505 . S
C345 C344 1.379 . S
C345 C347 1.369 . S
C345 H356 0.930 . S
C346 C348 1.383 . S
C346 C349 1.382 . S
C346 H357 0.930 . S
C347 C345 1.369 . S
C347 C349 1.392 . S
C347 H358 0.930 . S
C348 C344 1.373 . S
C348 C346 1.383 . S
C348 H359 0.931 . S
C349 C346 1.382 . S
C349 C347 1.392 . S
C350 Eu321 2.828 1_545 S
C350 O334 1.249 . S
C350 O335 1.244 . S
C350 C344 1.505 . S
C351 O338 1.258 . S
C351 O339 1.242 . S
H352 C324 0.930 . S
H353 C325 0.930 . S
H354 C326 0.930 . S
H355 C327 0.931 . S
H356 C345 0.930 . S
H357 C346 0.930 . S
H358 C347 0.930 . S
H359 C348 0.931 . S
Eu360 C369 2.828 . S
Eu360 O371 2.392 . S
Eu360 O373 2.418 . S
Eu360 O378 2.373 . S
Eu360 O381 2.488 . S
Eu360 O382 2.471 . S
Eu360 O383 2.349 . S
Eu361 O370 2.373 . S
Eu361 O374 2.488 . S
Eu361 O375 2.471 . S
Eu361 O376 2.349 . S
Eu361 O379 2.392 . S
Eu361 O380 2.418 . S
Eu361 C390 2.828 . S
C362 O380 1.244 . S
C362 O383 1.265 . S
C363 C364 1.379 1_565 S
C363 C367 1.373 1_565 S
C363 C369 1.505 . S
C364 C363 1.379 1_545 S
C364 C366 1.369 . S
C364 H392 0.930 1_545 S
C365 C367 1.383 . S
C365 C368 1.382 . S
C365 H393 0.930 . S
C366 C364 1.369 . S
C366 C368 1.392 . S
C366 H394 0.930 . S
C367 C363 1.373 1_545 S
C367 C365 1.383 . S
C367 H395 0.931 . S
C368 C365 1.382 . S
C368 C366 1.392 . S
C369 Eu360 2.828 . S
C369 C363 1.505 . S
C369 O381 1.249 . S
C369 O382 1.244 . S
O370 Eu361 2.373 . S
O370 C372 1.258 . S
O371 Eu360 2.392 . S
O371 C372 1.242 . S
C372 O370 1.258 . S
C372 O371 1.242 . S
O373 Eu360 2.418 . S
O373 C377 1.244 . S
O374 Eu361 2.488 . S
O374 C390 1.249 . S
O375 Eu361 2.471 . S
O375 C390 1.244 . S
O376 Eu361 2.349 . S
O376 C377 1.265 . S
C377 O373 1.244 . S
C377 O376 1.265 . S
O378 Eu360 2.373 . S
O378 C391 1.258 . S
O379 Eu361 2.392 . S
O379 C391 1.242 . S
O380 Eu361 2.418 . S
O380 C362 1.244 . S
O381 Eu360 2.488 . S
O381 C369 1.249 . S
O382 Eu360 2.471 . S
O382 C369 1.244 . S
O383 Eu360 2.349 . S
O383 C362 1.265 . S
C384 C385 1.379 . S
C384 C388 1.373 . S
C384 C390 1.505 . S
C385 C384 1.379 . S
C385 C387 1.369 . S
C385 H396 0.930 . S
C386 C388 1.383 . S
C386 C389 1.382 . S
C386 H397 0.930 . S
C387 C385 1.369 . S
C387 C389 1.392 . S
C387 H398 0.930 . S
C388 C384 1.373 . S
C388 C386 1.383 . S
C388 H399 0.931 . S
C389 C386 1.382 . S
C389 C387 1.392 . S
C390 Eu361 2.828 . S
C390 O374 1.249 . S
C390 O375 1.244 . S
C390 C384 1.505 . S
C391 O378 1.258 . S
C391 O379 1.242 . S
H392 C364 0.930 1_565 S
H393 C365 0.930 . S
H394 C366 0.930 . S
H395 C367 0.931 . S
H396 C385 0.930 . S
H397 C386 0.930 . S
H398 C387 0.930 . S
H399 C388 0.931 . S
Eu400 C409 2.828 . S
Eu400 O411 2.392 . S
Eu400 O413 2.418 . S
Eu400 O418 2.373 . S
Eu400 O421 2.488 . S
Eu400 O422 2.471 . S
Eu400 O423 2.349 . S
Eu401 O410 2.373 . S
Eu401 O414 2.488 . S
Eu401 O415 2.471 . S
Eu401 O416 2.349 . S
Eu401 O419 2.392 . S
Eu401 O420 2.418 . S
Eu401 C430 2.828 . S
C402 O420 1.244 . S
C402 O423 1.265 . S
C403 C404 1.379 . S
C403 C407 1.373 . S
C403 C409 1.505 . S
C404 C403 1.379 . S
C404 C406 1.369 1_455 S
C404 H432 0.930 . S
C405 C407 1.383 1_655 S
C405 C408 1.382 . S
C405 H433 0.930 . S
C406 C404 1.369 1_655 S
C406 C408 1.392 . S
C406 H434 0.930 . S
C407 C403 1.373 . S
C407 C405 1.383 1_455 S
C407 H435 0.931 . S
C408 C405 1.382 . S
C408 C406 1.392 . S
C409 Eu400 2.828 . S
C409 C403 1.505 . S
C409 O421 1.249 . S
C409 O422 1.244 . S
O410 Eu401 2.373 . S
O410 C412 1.258 . S
O411 Eu400 2.392 . S
O411 C412 1.242 . S
C412 O410 1.258 . S
C412 O411 1.242 . S
O413 Eu400 2.418 . S
O413 C417 1.244 . S
O414 Eu401 2.488 . S
O414 C430 1.249 . S
O415 Eu401 2.471 . S
O415 C430 1.244 . S
O416 Eu401 2.349 . S
O416 C417 1.265 . S
C417 O413 1.244 . S
C417 O416 1.265 . S
O418 Eu400 2.373 . S
O418 C431 1.258 . S
O419 Eu401 2.392 . S
O419 C431 1.242 . S
O420 Eu401 2.418 . S
O420 C402 1.244 . S
O421 Eu400 2.488 . S
O421 C409 1.249 . S
O422 Eu400 2.471 . S
O422 C409 1.244 . S
O423 Eu400 2.349 . S
O423 C402 1.265 . S
C424 C425 1.379 . S
C424 C428 1.373 . S
C424 C430 1.505 . S
C425 C424 1.379 . S
C425 C427 1.369 . S
C425 H436 0.930 . S
C426 C428 1.383 . S
C426 C429 1.382 . S
C426 H437 0.930 . S
C427 C425 1.369 . S
C427 C429 1.392 . S
C427 H438 0.930 . S
C428 C424 1.373 . S
C428 C426 1.383 . S
C428 H439 0.931 . S
C429 C426 1.382 . S
C429 C427 1.392 . S
C430 Eu401 2.828 . S
C430 O414 1.249 . S
C430 O415 1.244 . S
C430 C424 1.505 . S
C431 O418 1.258 . S
C431 O419 1.242 . S
H432 C404 0.930 . S
H433 C405 0.930 . S
H434 C406 0.930 . S
H435 C407 0.931 . S
H436 C425 0.930 . S
H437 C426 0.930 . S
H438 C427 0.930 . S
H439 C428 0.931 . S
Eu440 C449 2.828 . S
Eu440 O451 2.392 . S
Eu440 O453 2.418 . S
Eu440 O458 2.373 . S
Eu440 O461 2.488 . S
Eu440 O462 2.471 . S
Eu440 O463 2.349 . S
Eu441 O450 2.373 . S
Eu441 O454 2.488 . S
Eu441 O455 2.471 . S
Eu441 O456 2.349 . S
Eu441 O459 2.392 . S
Eu441 O460 2.418 . S
Eu441 C470 2.828 . S
C442 O460 1.244 . S
C442 O463 1.265 . S
C443 C444 1.379 . S
C443 C447 1.373 . S
C443 C449 1.505 . S
C444 C443 1.379 . S
C444 C446 1.369 . S
C444 H472 0.930 . S
C445 C447 1.383 . S
C445 C448 1.382 . S
C445 H473 0.930 . S
C446 C444 1.369 . S
C446 C448 1.392 . S
C446 H474 0.930 . S
C447 C443 1.373 . S
C447 C445 1.383 . S
C447 H475 0.931 . S
C448 C445 1.382 . S
C448 C446 1.392 . S
C449 Eu440 2.828 . S
C449 C443 1.505 . S
C449 O461 1.249 . S
C449 O462 1.244 . S
O450 Eu441 2.373 . S
O450 C452 1.258 . S
O451 Eu440 2.392 . S
O451 C452 1.242 . S
C452 O450 1.258 . S
C452 O451 1.242 . S
O453 Eu440 2.418 . S
O453 C457 1.244 . S
O454 Eu441 2.488 . S
O454 C470 1.249 . S
O455 Eu441 2.471 . S
O455 C470 1.244 . S
O456 Eu441 2.349 . S
O456 C457 1.265 . S
C457 O453 1.244 . S
C457 O456 1.265 . S
O458 Eu440 2.373 . S
O458 C471 1.258 . S
O459 Eu441 2.392 . S
O459 C471 1.242 . S
O460 Eu441 2.418 . S
O460 C442 1.244 . S
O461 Eu440 2.488 . S
O461 C449 1.249 . S
O462 Eu440 2.471 . S
O462 C449 1.244 . S
O463 Eu440 2.349 . S
O463 C442 1.265 . S
C464 C465 1.379 . S
C464 C468 1.373 . S
C464 C470 1.505 . S
C465 C464 1.379 . S
C465 C467 1.369 . S
C465 H476 0.930 . S
C466 C468 1.383 . S
C466 C469 1.382 . S
C466 H477 0.930 . S
C467 C465 1.369 . S
C467 C469 1.392 . S
C467 H478 0.930 . S
C468 C464 1.373 . S
C468 C466 1.383 . S
C468 H479 0.931 . S
C469 C466 1.382 . S
C469 C467 1.392 . S
C470 Eu441 2.828 . S
C470 O454 1.249 . S
C470 O455 1.244 . S
C470 C464 1.505 . S
C471 O458 1.258 . S
C471 O459 1.242 . S
H472 C444 0.930 . S
H473 C445 0.930 . S
H474 C446 0.930 . S
H475 C447 0.931 . S
H476 C465 0.930 . S
H477 C466 0.930 . S
H478 C467 0.930 . S
H479 C468 0.931 . S
Eu480 C489 2.828 . S
Eu480 O491 2.392 . S
Eu480 O493 2.418 . S
Eu480 O498 2.373 . S
Eu480 O501 2.488 . S
Eu480 O502 2.471 . S
Eu480 O503 2.349 . S
Eu481 O490 2.373 . S
Eu481 O494 2.488 . S
Eu481 O495 2.471 . S
Eu481 O496 2.349 . S
Eu481 O499 2.392 . S
Eu481 O500 2.418 . S
Eu481 C510 2.828 . S
C482 O500 1.244 . S
C482 O503 1.265 . S
C483 C484 1.379 1_655 S
C483 C487 1.373 1_655 S
C483 C489 1.505 . S
C484 C483 1.379 1_455 S
C484 C486 1.369 . S
C484 H512 0.930 1_455 S
C485 C487 1.383 . S
C485 C488 1.382 . S
C485 H513 0.930 . S
C486 C484 1.369 . S
C486 C488 1.392 . S
C486 H514 0.930 . S
C487 C483 1.373 1_455 S
C487 C485 1.383 . S
C487 H515 0.931 . S
C488 C485 1.382 . S
C488 C486 1.392 . S
C489 Eu480 2.828 . S
C489 C483 1.505 . S
C489 O501 1.249 . S
C489 O502 1.244 . S
O490 Eu481 2.373 . S
O490 C492 1.258 . S
O491 Eu480 2.392 . S
O491 C492 1.242 . S
C492 O490 1.258 . S
C492 O491 1.242 . S
O493 Eu480 2.418 . S
O493 C497 1.244 . S
O494 Eu481 2.488 . S
O494 C510 1.249 . S
O495 Eu481 2.471 . S
O495 C510 1.244 . S
O496 Eu481 2.349 . S
O496 C497 1.265 . S
C497 O493 1.244 . S
C497 O496 1.265 . S
O498 Eu480 2.373 . S
O498 C511 1.258 . S
O499 Eu481 2.392 . S
O499 C511 1.242 . S
O500 Eu481 2.418 . S
O500 C482 1.244 . S
O501 Eu480 2.488 . S
O501 C489 1.249 . S
O502 Eu480 2.471 . S
O502 C489 1.244 . S
O503 Eu480 2.349 . S
O503 C482 1.265 . S
C504 C505 1.379 . S
C504 C508 1.373 . S
C504 C510 1.505 . S
C505 C504 1.379 . S
C505 C507 1.369 . S
C505 H516 0.930 . S
C506 C508 1.383 . S
C506 C509 1.382 . S
C506 H517 0.930 . S
C507 C505 1.369 . S
C507 C509 1.392 . S
C507 H518 0.930 . S
C508 C504 1.373 . S
C508 C506 1.383 . S
C508 H519 0.931 . S
C509 C506 1.382 . S
C509 C507 1.392 . S
C510 Eu481 2.828 . S
C510 O494 1.249 . S
C510 O495 1.244 . S
C510 C504 1.505 . S
C511 O498 1.258 . S
C511 O499 1.242 . S
H512 C484 0.930 1_655 S
H513 C485 0.930 . S
H514 C486 0.930 . S
H515 C487 0.931 . S
H516 C505 0.930 . S
H517 C506 0.930 . S
H518 C507 0.930 . S
H519 C508 0.931 . S
Eu520 C529 2.828 . S
Eu520 O531 2.392 . S
Eu520 O533 2.418 . S
Eu520 O538 2.373 . S
Eu520 O541 2.488 . S
Eu520 O542 2.471 . S
Eu520 O543 2.349 . S
Eu521 O530 2.373 . S
Eu521 O534 2.488 . S
Eu521 O535 2.471 . S
Eu521 O536 2.349 . S
Eu521 O539 2.392 . S
Eu521 O540 2.418 . S
Eu521 C550 2.828 . S
C522 O540 1.244 . S
C522 O543 1.265 . S
C523 C524 1.379 . S
C523 C527 1.373 . S
C523 C529 1.505 . S
C524 C523 1.379 . S
C524 C526 1.369 . S
C524 H552 0.930 . S
C525 C527 1.383 . S
C525 C528 1.382 . S
C525 H553 0.930 . S
C526 C524 1.369 . S
C526 C528 1.392 . S
C526 H554 0.930 . S
C527 C523 1.373 . S
C527 C525 1.383 . S
C527 H555 0.931 . S
C528 C525 1.382 . S
C528 C526 1.392 . S
C529 Eu520 2.828 . S
C529 C523 1.505 . S
C529 O541 1.249 . S
C529 O542 1.244 . S
O530 Eu521 2.373 . S
O530 C532 1.258 . S
O531 Eu520 2.392 . S
O531 C532 1.242 . S
C532 O530 1.258 . S
C532 O531 1.242 . S
O533 Eu520 2.418 . S
O533 C537 1.244 . S
O534 Eu521 2.488 . S
O534 C550 1.249 . S
O535 Eu521 2.471 . S
O535 C550 1.244 . S
O536 Eu521 2.349 . S
O536 C537 1.265 . S
C537 O533 1.244 . S
C537 O536 1.265 . S
O538 Eu520 2.373 . S
O538 C551 1.258 . S
O539 Eu521 2.392 . S
O539 C551 1.242 . S
O540 Eu521 2.418 . S
O540 C522 1.244 . S
O541 Eu520 2.488 . S
O541 C529 1.249 . S
O542 Eu520 2.471 . S
O542 C529 1.244 . S
O543 Eu520 2.349 . S
O543 C522 1.265 . S
C544 C545 1.379 . S
C544 C548 1.373 . S
C544 C550 1.505 . S
C545 C544 1.379 . S
C545 C547 1.369 . S
C545 H556 0.930 . S
C546 C548 1.383 . S
C546 C549 1.382 . S
C546 H557 0.930 . S
C547 C545 1.369 . S
C547 C549 1.392 . S
C547 H558 0.930 . S
C548 C544 1.373 . S
C548 C546 1.383 . S
C548 H559 0.931 . S
C549 C546 1.382 . S
C549 C547 1.392 . S
C550 Eu521 2.828 . S
C550 O534 1.249 . S
C550 O535 1.244 . S
C550 C544 1.505 . S
C551 O538 1.258 . S
C551 O539 1.242 . S
H552 C524 0.930 . S
H553 C525 0.930 . S
H554 C526 0.930 . S
H555 C527 0.931 . S
H556 C545 0.930 . S
H557 C546 0.930 . S
H558 C547 0.930 . S
H559 C548 0.931 . S
Eu560 C569 2.828 . S
Eu560 O571 2.392 . S
Eu560 O573 2.418 . S
Eu560 O578 2.373 . S
Eu560 O581 2.488 . S
Eu560 O582 2.471 . S
Eu560 O583 2.349 . S
Eu561 O570 2.373 . S
Eu561 O574 2.488 . S
Eu561 O575 2.471 . S
Eu561 O576 2.349 . S
Eu561 O579 2.392 . S
Eu561 O580 2.418 . S
Eu561 C590 2.828 . S
C562 O580 1.244 . S
C562 O583 1.265 . S
C563 C564 1.379 . S
C563 C567 1.373 . S
C563 C569 1.505 . S
C564 C563 1.379 . S
C564 C566 1.369 1_545 S
C564 H592 0.930 . S
C565 C567 1.383 1_565 S
C565 C568 1.382 . S
C565 H593 0.930 . S
C566 C564 1.369 1_565 S
C566 C568 1.392 . S
C566 H594 0.930 . S
C567 C563 1.373 . S
C567 C565 1.383 1_545 S
C567 H595 0.931 . S
C568 C565 1.382 . S
C568 C566 1.392 . S
C569 Eu560 2.828 . S
C569 C563 1.505 . S
C569 O581 1.249 . S
C569 O582 1.244 . S
O570 Eu561 2.373 . S
O570 C572 1.258 . S
O571 Eu560 2.392 . S
O571 C572 1.242 . S
C572 O570 1.258 . S
C572 O571 1.242 . S
O573 Eu560 2.418 . S
O573 C577 1.244 . S
O574 Eu561 2.488 . S
O574 C590 1.249 . S
O575 Eu561 2.471 . S
O575 C590 1.244 . S
O576 Eu561 2.349 . S
O576 C577 1.265 . S
C577 O573 1.244 . S
C577 O576 1.265 . S
O578 Eu560 2.373 . S
O578 C591 1.258 . S
O579 Eu561 2.392 . S
O579 C591 1.242 . S
O580 Eu561 2.418 . S
O580 C562 1.244 . S
O581 Eu560 2.488 . S
O581 C569 1.249 . S
O582 Eu560 2.471 . S
O582 C569 1.244 . S
O583 Eu560 2.349 . S
O583 C562 1.265 . S
C584 C585 1.379 . S
C584 C588 1.373 . S
C584 C590 1.505 . S
C585 C584 1.379 . S
C585 C587 1.369 . S
C585 H596 0.930 . S
C586 C588 1.383 . S
C586 C589 1.382 . S
C586 H597 0.930 . S
C587 C585 1.369 . S
C587 C589 1.392 . S
C587 H598 0.930 . S
C588 C584 1.373 . S
C588 C586 1.383 . S
C588 H599 0.931 . S
C589 C586 1.382 . S
C589 C587 1.392 . S
C590 Eu561 2.828 . S
C590 O574 1.249 . S
C590 O575 1.244 . S
C590 C584 1.505 . S
C591 O578 1.258 . S
C591 O579 1.242 . S
H592 C564 0.930 . S
H593 C565 0.930 . S
H594 C566 0.930 . S
H595 C567 0.931 . S
H596 C585 0.930 . S
H597 C586 0.930 . S
H598 C587 0.930 . S
H599 C588 0.931 . S
Eu600 C609 2.828 . S
Eu600 O611 2.392 . S
Eu600 O613 2.418 . S
Eu600 O618 2.373 . S
Eu600 O621 2.488 . S
Eu600 O622 2.471 . S
Eu600 O623 2.349 . S
Eu601 O610 2.373 . S
Eu601 O614 2.488 . S
Eu601 O615 2.471 . S
Eu601 O616 2.349 . S
Eu601 O619 2.392 . S
Eu601 O620 2.418 . S
Eu601 C630 2.828 . S
C602 O620 1.244 . S
C602 O623 1.265 . S
C603 C604 1.379 . S
C603 C607 1.373 . S
C603 C609 1.505 . S
C604 C603 1.379 . S
C604 C606 1.369 . S
C604 H632 0.930 . S
C605 C607 1.383 . S
C605 C608 1.382 . S
C605 H633 0.930 . S
C606 C604 1.369 . S
C606 C608 1.392 . S
C606 H634 0.930 . S
C607 C603 1.373 . S
C607 C605 1.383 . S
C607 H635 0.931 . S
C608 C605 1.382 . S
C608 C606 1.392 . S
C609 Eu600 2.828 . S
C609 C603 1.505 . S
C609 O621 1.249 . S
C609 O622 1.244 . S
O610 Eu601 2.373 . S
O610 C612 1.258 . S
O611 Eu600 2.392 . S
O611 C612 1.242 . S
C612 O610 1.258 . S
C612 O611 1.242 . S
O613 Eu600 2.418 . S
O613 C617 1.244 . S
O614 Eu601 2.488 . S
O614 C630 1.249 . S
O615 Eu601 2.471 . S
O615 C630 1.244 . S
O616 Eu601 2.349 . S
O616 C617 1.265 . S
C617 O613 1.244 . S
C617 O616 1.265 . S
O618 Eu600 2.373 . S
O618 C631 1.258 . S
O619 Eu601 2.392 . S
O619 C631 1.242 . S
O620 Eu601 2.418 . S
O620 C602 1.244 . S
O621 Eu600 2.488 . S
O621 C609 1.249 . S
O622 Eu600 2.471 . S
O622 C609 1.244 . S
O623 Eu600 2.349 . S
O623 C602 1.265 . S
C624 C625 1.379 . S
C624 C628 1.373 . S
C624 C630 1.505 1_565 S
C625 C624 1.379 . S
C625 C627 1.369 . S
C625 H636 0.930 . S
C626 C628 1.383 . S
C626 C629 1.382 . S
C626 H637 0.930 . S
C627 C625 1.369 . S
C627 C629 1.392 . S
C627 H638 0.930 . S
C628 C624 1.373 . S
C628 C626 1.383 . S
C628 H639 0.931 . S
C629 C626 1.382 . S
C629 C627 1.392 . S
C630 Eu601 2.828 . S
C630 O614 1.249 . S
C630 O615 1.244 . S
C630 C624 1.505 1_545 S
C631 O618 1.258 . S
C631 O619 1.242 . S
H632 C604 0.930 . S
H633 C605 0.930 . S
H634 C606 0.930 . S
H635 C607 0.931 . S
H636 C625 0.930 . S
H637 C626 0.930 . S
H638 C627 0.930 . S
H639 C628 0.931 . S
Eu640 C649 2.828 . S
Eu640 O651 2.392 . S
Eu640 O653 2.418 . S
Eu640 O658 2.373 . S
Eu640 O661 2.488 . S
Eu640 O662 2.471 . S
Eu640 O663 2.349 . S
Eu641 O650 2.373 . S
Eu641 O654 2.488 1_655 S
Eu641 O655 2.471 1_655 S
Eu641 O656 2.349 . S
Eu641 O659 2.392 . S
Eu641 O660 2.418 . S
Eu641 C670 2.828 1_655 S
C642 O660 1.244 . S
C642 O663 1.265 . S
C643 C644 1.379 . S
C643 C647 1.373 . S
C643 C649 1.505 . S
C644 C643 1.379 . S
C644 C646 1.369 . S
C644 H672 0.930 . S
C645 C647 1.383 . S
C645 C648 1.382 . S
C645 H673 0.930 . S
C646 C644 1.369 . S
C646 C648 1.392 . S
C646 H674 0.930 . S
C647 C643 1.373 . S
C647 C645 1.383 . S
C647 H675 0.931 . S
C648 C645 1.382 . S
C648 C646 1.392 . S
C649 Eu640 2.828 . S
C649 C643 1.505 . S
C649 O661 1.249 . S
C649 O662 1.244 . S
O650 Eu641 2.373 . S
O650 C652 1.258 . S
O651 Eu640 2.392 . S
O651 C652 1.242 . S
C652 O650 1.258 . S
C652 O651 1.242 . S
O653 Eu640 2.418 . S
O653 C657 1.244 . S
O654 Eu641 2.488 1_455 S
O654 C670 1.249 . S
O655 Eu641 2.471 1_455 S
O655 C670 1.244 . S
O656 Eu641 2.349 . S
O656 C657 1.265 . S
C657 O653 1.244 . S
C657 O656 1.265 . S
O658 Eu640 2.373 . S
O658 C671 1.258 . S
O659 Eu641 2.392 . S
O659 C671 1.242 . S
O660 Eu641 2.418 . S
O660 C642 1.244 . S
O661 Eu640 2.488 . S
O661 C649 1.249 . S
O662 Eu640 2.471 . S
O662 C649 1.244 . S
O663 Eu640 2.349 . S
O663 C642 1.265 . S
C664 C665 1.379 . S
C664 C668 1.373 . S
C664 C670 1.505 . S
C665 C664 1.379 . S
C665 C667 1.369 . S
C665 H676 0.930 . S
C666 C668 1.383 . S
C666 C669 1.382 . S
C666 H677 0.930 . S
C667 C665 1.369 . S
C667 C669 1.392 . S
C667 H678 0.930 . S
C668 C664 1.373 . S
C668 C666 1.383 . S
C668 H679 0.931 . S
C669 C666 1.382 . S
C669 C667 1.392 . S
C670 Eu641 2.828 1_455 S
C670 O654 1.249 . S
C670 O655 1.244 . S
C670 C664 1.505 . S
C671 O658 1.258 . S
C671 O659 1.242 . S
H672 C644 0.930 . S
H673 C645 0.930 . S
H674 C646 0.930 . S
H675 C647 0.931 . S
H676 C665 0.930 . S
H677 C666 0.930 . S
H678 C667 0.930 . S
H679 C668 0.931 . S
Eu680 C689 2.828 . S
Eu680 O691 2.392 . S
Eu680 O693 2.418 . S
Eu680 O698 2.373 . S
Eu680 O701 2.488 . S
Eu680 O702 2.471 . S
Eu680 O703 2.349 . S
Eu681 O690 2.373 . S
Eu681 O694 2.488 . S
Eu681 O695 2.471 . S
Eu681 O696 2.349 . S
Eu681 O699 2.392 . S
Eu681 O700 2.418 . S
Eu681 C710 2.828 . S
C682 O700 1.244 . S
C682 O703 1.265 . S
C683 C684 1.379 . S
C683 C687 1.373 . S
C683 C689 1.505 . S
C684 C683 1.379 . S
C684 C686 1.369 . S
C684 H712 0.930 . S
C685 C687 1.383 . S
C685 C688 1.382 . S
C685 H713 0.930 . S
C686 C684 1.369 . S
C686 C688 1.392 . S
C686 H714 0.930 . S
C687 C683 1.373 . S
C687 C685 1.383 . S
C687 H715 0.931 . S
C688 C685 1.382 . S
C688 C686 1.392 . S
C689 Eu680 2.828 . S
C689 C683 1.505 . S
C689 O701 1.249 . S
C689 O702 1.244 . S
O690 Eu681 2.373 . S
O690 C692 1.258 . S
O691 Eu680 2.392 . S
O691 C692 1.242 . S
C692 O690 1.258 . S
C692 O691 1.242 . S
O693 Eu680 2.418 . S
O693 C697 1.244 . S
O694 Eu681 2.488 . S
O694 C710 1.249 . S
O695 Eu681 2.471 . S
O695 C710 1.244 . S
O696 Eu681 2.349 . S
O696 C697 1.265 . S
C697 O693 1.244 . S
C697 O696 1.265 . S
O698 Eu680 2.373 . S
O698 C711 1.258 . S
O699 Eu681 2.392 . S
O699 C711 1.242 . S
O700 Eu681 2.418 . S
O700 C682 1.244 . S
O701 Eu680 2.488 . S
O701 C689 1.249 . S
O702 Eu680 2.471 . S
O702 C689 1.244 . S
O703 Eu680 2.349 . S
O703 C682 1.265 . S
C704 C705 1.379 . S
C704 C708 1.373 . S
C704 C710 1.505 . S
C705 C704 1.379 . S
C705 C707 1.369 . S
C705 H716 0.930 . S
C706 C708 1.383 . S
C706 C709 1.382 . S
C706 H717 0.930 . S
C707 C705 1.369 . S
C707 C709 1.392 . S
C707 H718 0.930 . S
C708 C704 1.373 . S
C708 C706 1.383 . S
C708 H719 0.931 . S
C709 C706 1.382 . S
C709 C707 1.392 . S
C710 Eu681 2.828 . S
C710 O694 1.249 . S
C710 O695 1.244 . S
C710 C704 1.505 . S
C711 O698 1.258 . S
C711 O699 1.242 . S
H712 C684 0.930 . S
H713 C685 0.930 . S
H714 C686 0.930 . S
H715 C687 0.931 . S
H716 C705 0.930 . S
H717 C706 0.930 . S
H718 C707 0.930 . S
H719 C708 0.931 . S
C720 C721 1.387 . S
C720 H724 0.950 . S
C720 C729 1.390 . S
C721 C720 1.387 . S
C721 C723 1.387 . S
H722 C729 0.950 . S
C723 C721 1.387 . S
C723 C725 1.390 . S
C723 H727 0.950 . S
H724 C720 0.950 . S
C725 C723 1.390 . S
C725 C726 1.387 . S
C725 H728 0.950 . S
C726 C725 1.387 . S
C726 C729 1.387 . S
H727 C723 0.950 . S
H728 C725 0.950 . S
C729 C720 1.390 . S
C729 H722 0.950 . S
C729 C726 1.387 . S
C730 C731 1.387 . S
C730 H734 0.950 . S
C730 C739 1.390 . S
C731 C730 1.387 . S
C731 C733 1.387 . S
H732 C739 0.950 . S
C733 C731 1.387 . S
C733 C735 1.390 . S
C733 H737 0.950 . S
H734 C730 0.950 . S
C735 C733 1.390 . S
C735 C736 1.387 . S
C735 H738 0.950 . S
C736 C735 1.387 . S
C736 C739 1.387 . S
H737 C733 0.950 . S
H738 C735 0.950 . S
C739 C730 1.390 . S
C739 H732 0.950 . S
C739 C736 1.387 . S
C740 C741 1.387 . S
C740 H744 0.950 . S
C740 C749 1.390 . S
C741 C740 1.387 . S
C741 C743 1.387 . S
H742 C749 0.950 . S
C743 C741 1.387 . S
C743 C745 1.390 . S
C743 H747 0.950 . S
H744 C740 0.950 . S
C745 C743 1.390 . S
C745 C746 1.387 . S
C745 H748 0.950 . S
C746 C745 1.387 . S
C746 C749 1.387 . S
H747 C743 0.950 . S
H748 C745 0.950 . S
C749 C740 1.390 . S
C749 H742 0.950 . S
C749 C746 1.387 . S
C750 C751 1.387 . S
C750 H754 0.950 . S
C750 C759 1.390 . S
C751 C750 1.387 . S
C751 C753 1.387 . S
H752 C759 0.950 . S
C753 C751 1.387 . S
C753 C755 1.390 . S
C753 H757 0.950 . S
H754 C750 0.950 . S
C755 C753 1.390 . S
C755 C756 1.387 . S
C755 H758 0.950 . S
C756 C755 1.387 . S
C756 C759 1.387 . S
H757 C753 0.950 . S
H758 C755 0.950 . S
C759 C750 1.390 . S
C759 H752 0.950 . S
C759 C756 1.387 . S
C760 C761 1.387 . S
C760 H764 0.950 . S
C760 C769 1.390 . S
C761 C760 1.387 . S
C761 C763 1.387 . S
H762 C769 0.950 . S
C763 C761 1.387 . S
C763 C765 1.390 . S
C763 H767 0.950 . S
H764 C760 0.950 . S
C765 C763 1.390 . S
C765 C766 1.387 . S
C765 H768 0.950 . S
C766 C765 1.387 . S
C766 C769 1.387 . S
H767 C763 0.950 . S
H768 C765 0.950 . S
C769 C760 1.390 . S
C769 H762 0.950 . S
C769 C766 1.387 . S
C770 C771 1.387 . S
C770 H774 0.950 . S
C770 C779 1.390 . S
C771 C770 1.387 . S
C771 C773 1.387 . S
H772 C779 0.950 . S
C773 C771 1.387 . S
C773 C775 1.390 . S
C773 H777 0.950 . S
H774 C770 0.950 . S
C775 C773 1.390 . S
C775 C776 1.387 . S
C775 H778 0.950 . S
C776 C775 1.387 . S
C776 C779 1.387 . S
H777 C773 0.950 . S
H778 C775 0.950 . S
C779 C770 1.390 . S
C779 H772 0.950 . S
C779 C776 1.387 . S
C780 C781 1.387 . S
C780 H784 0.950 . S
C780 C789 1.390 . S
C781 C780 1.387 . S
C781 C783 1.387 . S
H782 C789 0.950 . S
C783 C781 1.387 . S
C783 C785 1.390 . S
C783 H787 0.950 . S
H784 C780 0.950 . S
C785 C783 1.390 . S
C785 C786 1.387 . S
C785 H788 0.950 . S
C786 C785 1.387 . S
C786 C789 1.387 . S
H787 C783 0.950 . S
H788 C785 0.950 . S
C789 C780 1.390 . S
C789 H782 0.950 . S
C789 C786 1.387 . S
C790 C791 1.387 . S
C790 H794 0.950 . S
C790 C799 1.390 1_545 S
C791 C790 1.387 . S
C791 C793 1.387 . S
H792 C799 0.950 . S
C793 C791 1.387 . S
C793 C795 1.390 1_545 S
C793 H797 0.950 . S
H794 C790 0.950 . S
C795 C793 1.390 1_565 S
C795 C796 1.387 . S
C795 H798 0.950 . S
C796 C795 1.387 . S
C796 C799 1.387 . S
H797 C793 0.950 . S
H798 C795 0.950 . S
C799 C790 1.390 1_565 S
C799 H792 0.950 . S
C799 C796 1.387 . S
C800 C801 1.387 . S
C800 H804 0.950 . S
C800 C809 1.390 . S
C801 C800 1.387 . S
C801 C803 1.387 . S
H802 C809 0.950 . S
C803 C801 1.387 . S
C803 C805 1.390 . S
C803 H807 0.950 . S
H804 C800 0.950 . S
C805 C803 1.390 . S
C805 C806 1.387 1_455 S
C805 H808 0.950 1_455 S
C806 C805 1.387 1_655 S
C806 C809 1.387 1_655 S
H807 C803 0.950 . S
H808 C805 0.950 1_655 S
C809 C800 1.390 . S
C809 H802 0.950 . S
C809 C806 1.387 1_455 S
C810 C811 1.387 . S
C810 H814 0.950 . S
C810 C819 1.390 . S
C811 C810 1.387 . S
C811 C813 1.387 . S
H812 C819 0.950 . S
C813 C811 1.387 . S
C813 C815 1.390 . S
C813 H817 0.950 . S
H814 C810 0.950 . S
C815 C813 1.390 . S
C815 C816 1.387 . S
C815 H818 0.950 . S
C816 C815 1.387 . S
C816 C819 1.387 . S
H817 C813 0.950 . S
H818 C815 0.950 . S
C819 C810 1.390 . S
C819 H812 0.950 . S
C819 C816 1.387 . S
C820 C821 1.387 . S
C820 H824 0.950 . S
C820 C829 1.390 . S
C821 C820 1.387 . S
C821 C823 1.387 . S
H822 C829 0.950 . S
C823 C821 1.387 . S
C823 C825 1.390 . S
C823 H827 0.950 . S
H824 C820 0.950 . S
C825 C823 1.390 . S
C825 C826 1.387 . S
C825 H828 0.950 . S
C826 C825 1.387 . S
C826 C829 1.387 . S
H827 C823 0.950 . S
H828 C825 0.950 . S
C829 C820 1.390 . S
C829 H822 0.950 . S
C829 C826 1.387 . S
C830 C831 1.387 . S
C830 H834 0.950 . S
C830 C839 1.390 . S
C831 C830 1.387 . S
C831 C833 1.387 . S
H832 C839 0.950 . S
C833 C831 1.387 . S
C833 C835 1.390 . S
C833 H837 0.950 . S
H834 C830 0.950 . S
C835 C833 1.390 . S
C835 C836 1.387 . S
C835 H838 0.950 . S
C836 C835 1.387 . S
C836 C839 1.387 . S
H837 C833 0.950 . S
H838 C835 0.950 . S
C839 C830 1.390 . S
C839 H832 0.950 . S
C839 C836 1.387 . S
C840 C841 1.387 . S
C840 H844 0.950 . S
C840 C849 1.390 . S
C841 C840 1.387 . S
C841 C843 1.387 . S
H842 C849 0.950 . S
C843 C841 1.387 . S
C843 C845 1.390 . S
C843 H847 0.950 . S
H844 C840 0.950 . S
C845 C843 1.390 . S
C845 C846 1.387 . S
C845 H848 0.950 . S
C846 C845 1.387 . S
C846 C849 1.387 . S
H847 C843 0.950 . S
H848 C845 0.950 . S
C849 C840 1.390 . S
C849 H842 0.950 . S
C849 C846 1.387 . S
C850 C851 1.387 . S
C850 H854 0.950 . S
C850 C859 1.390 . S
C851 C850 1.387 . S
C851 C853 1.387 . S
H852 C859 0.950 . S
C853 C851 1.387 . S
C853 C855 1.390 . S
C853 H857 0.950 . S
H854 C850 0.950 . S
C855 C853 1.390 . S
C855 C856 1.387 . S
C855 H858 0.950 . S
C856 C855 1.387 . S
C856 C859 1.387 . S
H857 C853 0.950 . S
H858 C855 0.950 . S
C859 C850 1.390 . S
C859 H852 0.950 . S
C859 C856 1.387 . S
C860 C861 1.387 . S
C860 H864 0.950 . S
C860 C869 1.390 . S
C861 C860 1.387 . S
C861 C863 1.387 . S
H862 C869 0.950 . S
C863 C861 1.387 . S
C863 C865 1.390 . S
C863 H867 0.950 . S
H864 C860 0.950 . S
C865 C863 1.390 . S
C865 C866 1.387 . S
C865 H868 0.950 . S
C866 C865 1.387 . S
C866 C869 1.387 . S
H867 C863 0.950 . S
H868 C865 0.950 . S
C869 C860 1.390 . S
C869 H862 0.950 . S
C869 C866 1.387 . S
C870 C871 1.387 . S
C870 H874 0.950 . S
C870 C879 1.390 . S
C871 C870 1.387 . S
C871 C873 1.387 . S
H872 C879 0.950 . S
C873 C871 1.387 . S
C873 C875 1.390 . S
C873 H877 0.950 . S
H874 C870 0.950 . S
C875 C873 1.390 . S
C875 C876 1.387 . S
C875 H878 0.950 . S
C876 C875 1.387 . S
C876 C879 1.387 . S
H877 C873 0.950 . S
H878 C875 0.950 . S
C879 C870 1.390 . S
C879 H872 0.950 . S
C879 C876 1.387 . S
C880 C881 1.387 1_545 S
C880 H884 0.950 . S
C880 C889 1.390 . S
C881 C880 1.387 1_565 S
C881 C883 1.387 1_565 S
H882 C889 0.950 . S
C883 C881 1.387 1_545 S
C883 C885 1.390 . S
C883 H887 0.950 1_545 S
H884 C880 0.950 . S
C885 C883 1.390 . S
C885 C886 1.387 . S
C885 H888 0.950 . S
C886 C885 1.387 . S
C886 C889 1.387 . S
H887 C883 0.950 1_565 S
H888 C885 0.950 . S
C889 C880 1.390 . S
C889 H882 0.950 . S
C889 C886 1.387 . S
C890 C891 1.387 . S
C890 H894 0.950 . S
C890 C899 1.390 1_455 S
C891 C890 1.387 . S
C891 C893 1.387 . S
H892 C899 0.950 . S
C893 C891 1.387 . S
C893 C895 1.390 1_455 S
C893 H897 0.950 . S
H894 C890 0.950 . S
C895 C893 1.390 1_655 S
C895 C896 1.387 . S
C895 H898 0.950 . S
C896 C895 1.387 . S
C896 C899 1.387 . S
H897 C893 0.950 . S
H898 C895 0.950 . S
C899 C890 1.390 1_655 S
C899 H892 0.950 . S
C899 C896 1.387 . S
C900 C901 1.387 . S
C900 H904 0.950 . S
C900 C909 1.390 1_554 S
C901 C900 1.387 . S
C901 C903 1.387 . S
H902 C909 0.950 . S
C903 C901 1.387 . S
C903 C905 1.390 1_554 S
C903 H907 0.950 . S
H904 C900 0.950 . S
C905 C903 1.390 1_556 S
C905 C906 1.387 . S
C905 H908 0.950 . S
C906 C905 1.387 . S
C906 C909 1.387 . S
H907 C903 0.950 . S
H908 C905 0.950 . S
C909 C900 1.390 1_556 S
C909 H902 0.950 . S
C909 C906 1.387 . S
C910 C911 1.387 . S
C910 H914 0.950 . S
C910 C919 1.390 1_556 S
C911 C910 1.387 . S
C911 C913 1.387 1_455 S
H912 C919 0.950 . S
C913 C911 1.387 1_655 S
C913 C915 1.390 1_556 S
C913 H917 0.950 . S
H914 C910 0.950 . S
C915 C913 1.390 1_554 S
C915 C916 1.387 1_655 S
C915 H918 0.950 . S
C916 C915 1.387 1_455 S
C916 C919 1.387 . S
H917 C913 0.950 . S
H918 C915 0.950 . S
C919 C910 1.390 1_554 S
C919 H912 0.950 . S
C919 C916 1.387 . S
C920 C921 1.387 . S
C920 H924 0.950 . S
C920 C929 1.390 1_556 S
C921 C920 1.387 . S
C921 C923 1.387 . S
H922 C929 0.950 . S
C923 C921 1.387 . S
C923 C925 1.390 1_556 S
C923 H927 0.950 . S
H924 C920 0.950 . S
C925 C923 1.390 1_554 S
C925 C926 1.387 . S
C925 H928 0.950 . S
C926 C925 1.387 . S
C926 C929 1.387 . S
H927 C923 0.950 . S
H928 C925 0.950 . S
C929 C920 1.390 1_554 S
C929 H922 0.950 . S
C929 C926 1.387 . S
C930 C931 1.387 . S
C930 H934 0.950 . S
C930 C939 1.390 . S
C931 C930 1.387 . S
C931 C933 1.387 . S
H932 C939 0.950 . S
C933 C931 1.387 . S
C933 C935 1.390 . S
C933 H937 0.950 . S
H934 C930 0.950 . S
C935 C933 1.390 . S
C935 C936 1.387 . S
C935 H938 0.950 . S
C936 C935 1.387 . S
C936 C939 1.387 . S
H937 C933 0.950 . S
H938 C935 0.950 . S
C939 C930 1.390 . S
C939 H932 0.950 . S
C939 C936 1.387 . S
C940 C941 1.387 . S
C940 H944 0.950 . S
C940 C949 1.390 . S
C941 C940 1.387 . S
C941 C943 1.387 . S
H942 C949 0.950 . S
C943 C941 1.387 . S
C943 C945 1.390 . S
C943 H947 0.950 . S
H944 C940 0.950 . S
C945 C943 1.390 . S
C945 C946 1.387 . S
C945 H948 0.950 . S
C946 C945 1.387 . S
C946 C949 1.387 . S
H947 C943 0.950 . S
H948 C945 0.950 . S
C949 C940 1.390 . S
C949 H942 0.950 . S
C949 C946 1.387 . S
C950 C951 1.387 . S
C950 H954 0.950 . S
C950 C959 1.390 . S
C951 C950 1.387 . S
C951 C953 1.387 . S
H952 C959 0.950 . S
C953 C951 1.387 . S
C953 C955 1.390 . S
C953 H957 0.950 . S
H954 C950 0.950 . S
C955 C953 1.390 . S
C955 C956 1.387 . S
C955 H958 0.950 . S
C956 C955 1.387 . S
C956 C959 1.387 . S
H957 C953 0.950 . S
H958 C955 0.950 . S
C959 C950 1.390 . S
C959 H952 0.950 . S
C959 C956 1.387 . S
C960 C961 1.387 . S
C960 H964 0.950 . S
C960 C969 1.390 . S
C961 C960 1.387 . S
C961 C963 1.387 . S
H962 C969 0.950 . S
C963 C961 1.387 . S
C963 C965 1.390 . S
C963 H967 0.950 . S
H964 C960 0.950 . S
C965 C963 1.390 . S
C965 C966 1.387 . S
C965 H968 0.950 . S
C966 C965 1.387 . S
C966 C969 1.387 . S
H967 C963 0.950 . S
H968 C965 0.950 . S
C969 C960 1.390 . S
C969 H962 0.950 . S
C969 C966 1.387 . S
C970 C971 1.387 . S
C970 H974 0.950 . S
C970 C979 1.390 . S
C971 C970 1.387 . S
C971 C973 1.387 . S
H972 C979 0.950 . S
C973 C971 1.387 . S
C973 C975 1.390 . S
C973 H977 0.950 . S
H974 C970 0.950 . S
C975 C973 1.390 . S
C975 C976 1.387 . S
C975 H978 0.950 . S
C976 C975 1.387 . S
C976 C979 1.387 . S
H977 C973 0.950 . S
H978 C975 0.950 . S
C979 C970 1.390 . S
C979 H972 0.950 . S
C979 C976 1.387 . S
C980 C981 1.387 . S
C980 H984 0.950 . S
C980 C989 1.390 . S
C981 C980 1.387 . S
C981 C983 1.387 . S
H982 C989 0.950 . S
C983 C981 1.387 . S
C983 C985 1.390 . S
C983 H987 0.950 . S
H984 C980 0.950 . S
C985 C983 1.390 . S
C985 C986 1.387 . S
C985 H988 0.950 . S
C986 C985 1.387 . S
C986 C989 1.387 . S
H987 C983 0.950 . S
H988 C985 0.950 . S
C989 C980 1.390 . S
C989 H982 0.950 . S
C989 C986 1.387 . S
C990 C991 1.387 . S
C990 H994 0.950 . S
C990 C999 1.390 . S
C991 C990 1.387 . S
C991 C993 1.387 . S
H992 C999 0.950 . S
C993 C991 1.387 . S
C993 C995 1.390 . S
C993 H997 0.950 . S
H994 C990 0.950 . S
C995 C993 1.390 . S
C995 C996 1.387 . S
C995 H998 0.950 . S
C996 C995 1.387 . S
C996 C999 1.387 . S
H997 C993 0.950 . S
H998 C995 0.950 . S
C999 C990 1.390 . S
C999 H992 0.950 . S
C999 C996 1.387 . S
C1000 C1001 1.387 . S
C1000 H1004 0.950 . S
C1000 C1009 1.390 . S
C1001 C1000 1.387 . S
C1001 C1003 1.387 . S
H1002 C1009 0.950 . S
C1003 C1001 1.387 . S
C1003 C1005 1.390 . S
C1003 H1007 0.950 . S
H1004 C1000 0.950 . S
C1005 C1003 1.390 . S
C1005 C1006 1.387 . S
C1005 H1008 0.950 . S
C1006 C1005 1.387 . S
C1006 C1009 1.387 . S
H1007 C1003 0.950 . S
H1008 C1005 0.950 . S
C1009 C1000 1.390 . S
C1009 H1002 0.950 . S
C1009 C1006 1.387 . S
C1010 C1011 1.387 . S
C1010 H1014 0.950 . S
C1010 C1019 1.390 . S
C1011 C1010 1.387 . S
C1011 C1013 1.387 . S
H1012 C1019 0.950 . S
C1013 C1011 1.387 . S
C1013 C1015 1.390 . S
C1013 H1017 0.950 . S
H1014 C1010 0.950 . S
C1015 C1013 1.390 . S
C1015 C1016 1.387 . S
C1015 H1018 0.950 . S
C1016 C1015 1.387 . S
C1016 C1019 1.387 . S
H1017 C1013 0.950 . S
H1018 C1015 0.950 . S
C1019 C1010 1.390 . S
C1019 H1012 0.950 . S
C1019 C1016 1.387 . S
C1020 C1021 1.387 . S
C1020 H1024 0.950 1_655 S
C1020 C1029 1.390 . S
C1021 C1020 1.387 . S
C1021 C1023 1.387 . S
H1022 C1029 0.950 . S
C1023 C1021 1.387 . S
C1023 C1025 1.390 . S
C1023 H1027 0.950 . S
H1024 C1020 0.950 1_455 S
C1025 C1023 1.390 . S
C1025 C1026 1.387 . S
C1025 H1028 0.950 . S
C1026 C1025 1.387 . S
C1026 C1029 1.387 . S
H1027 C1023 0.950 . S
H1028 C1025 0.950 . S
C1029 C1020 1.390 . S
C1029 H1022 0.950 . S
C1029 C1026 1.387 . S
C1030 C1031 1.387 . S
C1030 H1034 0.950 . S
C1030 C1039 1.390 . S
C1031 C1030 1.387 . S
C1031 C1033 1.387 . S
H1032 C1039 0.950 . S
C1033 C1031 1.387 . S
C1033 C1035 1.390 . S
C1033 H1037 0.950 . S
H1034 C1030 0.950 . S
C1035 C1033 1.390 . S
C1035 C1036 1.387 . S
C1035 H1038 0.950 . S
C1036 C1035 1.387 . S
C1036 C1039 1.387 . S
H1037 C1033 0.950 . S
H1038 C1035 0.950 . S
C1039 C1030 1.390 . S
C1039 H1032 0.950 . S
C1039 C1036 1.387 . S
C1040 C1041 1.387 . S
C1040 H1044 0.950 . S
C1040 C1049 1.390 . S
C1041 C1040 1.387 . S
C1041 C1043 1.387 . S
H1042 C1049 0.950 . S
C1043 C1041 1.387 . S
C1043 C1045 1.390 . S
C1043 H1047 0.950 . S
H1044 C1040 0.950 . S
C1045 C1043 1.390 . S
C1045 C1046 1.387 . S
C1045 H1048 0.950 . S
C1046 C1045 1.387 . S
C1046 C1049 1.387 . S
H1047 C1043 0.950 . S
H1048 C1045 0.950 . S
C1049 C1040 1.390 . S
C1049 H1042 0.950 . S
C1049 C1046 1.387 . S
C1050 C1051 1.387 1_455 S
C1050 H1054 0.950 1_455 S
C1050 C1059 1.390 . S
C1051 C1050 1.387 1_655 S
C1051 C1053 1.387 . S
H1052 C1059 0.950 . S
C1053 C1051 1.387 . S
C1053 C1055 1.390 1_655 S
C1053 H1057 0.950 . S
H1054 C1050 0.950 1_655 S
C1055 C1053 1.390 1_455 S
C1055 C1056 1.387 . S
C1055 H1058 0.950 . S
C1056 C1055 1.387 . S
C1056 C1059 1.387 . S
H1057 C1053 0.950 . S
H1058 C1055 0.950 . S
C1059 C1050 1.390 . S
C1059 H1052 0.950 . S
C1059 C1056 1.387 . S
C1060 C1061 1.387 . S
C1060 H1064 0.950 . S
C1060 C1069 1.390 . S
C1061 C1060 1.387 . S
C1061 C1063 1.387 . S
H1062 C1069 0.950 . S
C1063 C1061 1.387 . S
C1063 C1065 1.390 . S
C1063 H1067 0.950 . S
H1064 C1060 0.950 . S
C1065 C1063 1.390 . S
C1065 C1066 1.387 . S
C1065 H1068 0.950 . S
C1066 C1065 1.387 . S
C1066 C1069 1.387 . S
H1067 C1063 0.950 . S
H1068 C1065 0.950 . S
C1069 C1060 1.390 . S
C1069 H1062 0.950 . S
C1069 C1066 1.387 . S
C1070 C1071 1.387 . S
C1070 H1074 0.950 . S
C1070 C1079 1.390 1_565 S
C1071 C1070 1.387 . S
C1071 C1073 1.387 . S
H1072 C1079 0.950 . S
C1073 C1071 1.387 . S
C1073 C1075 1.390 1_565 S
C1073 H1077 0.950 . S
H1074 C1070 0.950 . S
C1075 C1073 1.390 1_545 S
C1075 C1076 1.387 . S
C1075 H1078 0.950 . S
C1076 C1075 1.387 . S
C1076 C1079 1.387 . S
H1077 C1073 0.950 . S
H1078 C1075 0.950 . S
C1079 C1070 1.390 1_545 S
C1079 H1072 0.950 . S
C1079 C1076 1.387 . S
C1080 C1081 1.387 . S
C1080 H1084 0.950 . S
C1080 C1089 1.390 . S
C1081 C1080 1.387 . S
C1081 C1083 1.387 . S
H1082 C1089 0.950 . S
C1083 C1081 1.387 . S
C1083 C1085 1.390 . S
C1083 H1087 0.950 . S
H1084 C1080 0.950 . S
C1085 C1083 1.390 . S
C1085 C1086 1.387 . S
C1085 H1088 0.950 . S
C1086 C1085 1.387 . S
C1086 C1089 1.387 . S
H1087 C1083 0.950 . S
H1088 C1085 0.950 . S
C1089 C1080 1.390 . S
C1089 H1082 0.950 . S
C1089 C1086 1.387 . S
C1090 C1091 1.387 . S
C1090 H1094 0.950 . S
C1090 C1099 1.390 . S
C1091 C1090 1.387 . S
C1091 C1093 1.387 . S
H1092 C1099 0.950 . S
C1093 C1091 1.387 . S
C1093 C1095 1.390 . S
C1093 H1097 0.950 . S
H1094 C1090 0.950 . S
C1095 C1093 1.390 . S
C1095 C1096 1.387 . S
C1095 H1098 0.950 . S
C1096 C1095 1.387 . S
C1096 C1099 1.387 . S
H1097 C1093 0.950 . S
H1098 C1095 0.950 . S
C1099 C1090 1.390 . S
C1099 H1092 0.950 . S
C1099 C1096 1.387 . S
C1100 C1101 1.387 . S
C1100 H1104 0.950 . S
C1100 C1109 1.390 . S
C1101 C1100 1.387 . S
C1101 C1103 1.387 . S
H1102 C1109 0.950 . S
C1103 C1101 1.387 . S
C1103 C1105 1.390 . S
C1103 H1107 0.950 . S
H1104 C1100 0.950 . S
C1105 C1103 1.390 . S
C1105 C1106 1.387 . S
C1105 H1108 0.950 . S
C1106 C1105 1.387 . S
C1106 C1109 1.387 . S
H1107 C1103 0.950 . S
H1108 C1105 0.950 . S
C1109 C1100 1.390 . S
C1109 H1102 0.950 . S
C1109 C1106 1.387 . S
C1110 C1111 1.387 . S
C1110 H1114 0.950 . S
C1110 C1119 1.390 . S
C1111 C1110 1.387 . S
C1111 C1113 1.387 . S
H1112 C1119 0.950 . S
C1113 C1111 1.387 . S
C1113 C1115 1.390 . S
C1113 H1117 0.950 . S
H1114 C1110 0.950 . S
C1115 C1113 1.390 . S
C1115 C1116 1.387 . S
C1115 H1118 0.950 . S
C1116 C1115 1.387 . S
C1116 C1119 1.387 . S
H1117 C1113 0.950 . S
H1118 C1115 0.950 . S
C1119 C1110 1.390 . S
C1119 H1112 0.950 . S
C1119 C1116 1.387 . S
C1120 C1121 1.387 . S
C1120 H1124 0.950 . S
C1120 C1129 1.390 . S
C1121 C1120 1.387 . S
C1121 C1123 1.387 . S
H1122 C1129 0.950 . S
C1123 C1121 1.387 . S
C1123 C1125 1.390 . S
C1123 H1127 0.950 . S
H1124 C1120 0.950 . S
C1125 C1123 1.390 . S
C1125 C1126 1.387 . S
C1125 H1128 0.950 . S
C1126 C1125 1.387 . S
C1126 C1129 1.387 . S
H1127 C1123 0.950 . S
H1128 C1125 0.950 . S
C1129 C1120 1.390 . S
C1129 H1122 0.950 . S
C1129 C1126 1.387 . S
C1130 C1131 1.387 . S
C1130 H1134 0.950 . S
C1130 C1139 1.390 . S
C1131 C1130 1.387 . S
C1131 C1133 1.387 . S
H1132 C1139 0.950 . S
C1133 C1131 1.387 . S
C1133 C1135 1.390 . S
C1133 H1137 0.950 . S
H1134 C1130 0.950 . S
C1135 C1133 1.390 . S
C1135 C1136 1.387 . S
C1135 H1138 0.950 . S
C1136 C1135 1.387 . S
C1136 C1139 1.387 . S
H1137 C1133 0.950 . S
H1138 C1135 0.950 . S
C1139 C1130 1.390 . S
C1139 H1132 0.950 . S
C1139 C1136 1.387 . S
C1140 C1141 1.387 . S
C1140 H1144 0.950 . S
C1140 C1149 1.390 . S
C1141 C1140 1.387 . S
C1141 C1143 1.387 . S
H1142 C1149 0.950 . S
C1143 C1141 1.387 . S
C1143 C1145 1.390 . S
C1143 H1147 0.950 . S
H1144 C1140 0.950 . S
C1145 C1143 1.390 . S
C1145 C1146 1.387 . S
C1145 H1148 0.950 . S
C1146 C1145 1.387 . S
C1146 C1149 1.387 . S
H1147 C1143 0.950 . S
H1148 C1145 0.950 . S
C1149 C1140 1.390 . S
C1149 H1142 0.950 . S
C1149 C1146 1.387 . S
C1150 C1151 1.387 . S
C1150 H1154 0.950 . S
C1150 C1159 1.390 . S
C1151 C1150 1.387 . S
C1151 C1153 1.387 . S
H1152 C1159 0.950 . S
C1153 C1151 1.387 . S
C1153 C1155 1.390 . S
C1153 H1157 0.950 . S
H1154 C1150 0.950 . S
C1155 C1153 1.390 . S
C1155 C1156 1.387 . S
C1155 H1158 0.950 . S
C1156 C1155 1.387 . S
C1156 C1159 1.387 . S
H1157 C1153 0.950 . S
H1158 C1155 0.950 . S
C1159 C1150 1.390 . S
C1159 H1152 0.950 . S
C1159 C1156 1.387 . S
C1160 C1161 1.387 . S
C1160 H1164 0.950 . S
C1160 C1169 1.390 . S
C1161 C1160 1.387 . S
C1161 C1163 1.387 . S
H1162 C1169 0.950 . S
C1163 C1161 1.387 . S
C1163 C1165 1.390 . S
C1163 H1167 0.950 . S
H1164 C1160 0.950 . S
C1165 C1163 1.390 . S
C1165 C1166 1.387 . S
C1165 H1168 0.950 . S
C1166 C1165 1.387 . S
C1166 C1169 1.387 . S
H1167 C1163 0.950 . S
H1168 C1165 0.950 . S
C1169 C1160 1.390 . S
C1169 H1162 0.950 . S
C1169 C1166 1.387 . S
C1170 C1171 1.387 . S
C1170 H1174 0.950 . S
C1170 C1179 1.390 . S
C1171 C1170 1.387 . S
C1171 C1173 1.387 . S
H1172 C1179 0.950 . S
C1173 C1171 1.387 . S
C1173 C1175 1.390 . S
C1173 H1177 0.950 . S
H1174 C1170 0.950 . S
C1175 C1173 1.390 . S
C1175 C1176 1.387 . S
C1175 H1178 0.950 . S
C1176 C1175 1.387 . S
C1176 C1179 1.387 . S
H1177 C1173 0.950 . S
H1178 C1175 0.950 . S
C1179 C1170 1.390 . S
C1179 H1172 0.950 . S
C1179 C1176 1.387 . S
C1180 C1181 1.387 1_545 S
C1180 H1184 0.950 1_545 S
C1180 C1189 1.390 . S
C1181 C1180 1.387 1_565 S
C1181 C1183 1.387 1_565 S
H1182 C1189 0.950 . S
C1183 C1181 1.387 1_545 S
C1183 C1185 1.390 . S
C1183 H1187 0.950 . S
H1184 C1180 0.950 1_565 S
C1185 C1183 1.390 . S
C1185 C1186 1.387 . S
C1185 H1188 0.950 . S
C1186 C1185 1.387 . S
C1186 C1189 1.387 . S
H1187 C1183 0.950 . S
H1188 C1185 0.950 . S
C1189 C1180 1.390 . S
C1189 H1182 0.950 . S
C1189 C1186 1.387 . S
C1190 C1191 1.387 . S
C1190 H1194 0.950 . S
C1190 C1199 1.390 . S
C1191 C1190 1.387 . S
C1191 C1193 1.387 1_655 S
H1192 C1199 0.950 . S
C1193 C1191 1.387 1_455 S
C1193 C1195 1.390 . S
C1193 H1197 0.950 . S
H1194 C1190 0.950 . S
C1195 C1193 1.390 . S
C1195 C1196 1.387 . S
C1195 H1198 0.950 . S
C1196 C1195 1.387 . S
C1196 C1199 1.387 1_455 S
H1197 C1193 0.950 . S
H1198 C1195 0.950 . S
C1199 C1190 1.390 . S
C1199 H1192 0.950 . S
C1199 C1196 1.387 1_655 S
C1200 C1201 1.387 . S
C1200 H1204 0.950 . S
C1200 C1209 1.390 . S
C1201 C1200 1.387 . S
C1201 C1203 1.387 . S
H1202 C1209 0.950 . S
C1203 C1201 1.387 . S
C1203 C1205 1.390 . S
C1203 H1207 0.950 . S
H1204 C1200 0.950 . S
C1205 C1203 1.390 . S
C1205 C1206 1.387 . S
C1205 H1208 0.950 . S
C1206 C1205 1.387 . S
C1206 C1209 1.387 . S
H1207 C1203 0.950 . S
H1208 C1205 0.950 . S
C1209 C1200 1.390 . S
C1209 H1202 0.950 . S
C1209 C1206 1.387 . S
C1210 C1211 1.387 . S
C1210 H1214 0.950 . S
C1210 C1219 1.390 1_545 S
C1211 C1210 1.387 . S
C1211 C1213 1.387 . S
H1212 C1219 0.950 . S
C1213 C1211 1.387 . S
C1213 C1215 1.390 1_545 S
C1213 H1217 0.950 . S
H1214 C1210 0.950 . S
C1215 C1213 1.390 1_565 S
C1215 C1216 1.387 . S
C1215 H1218 0.950 . S
C1216 C1215 1.387 . S
C1216 C1219 1.387 . S
H1217 C1213 0.950 . S
H1218 C1215 0.950 . S
C1219 C1210 1.390 1_565 S
C1219 H1212 0.950 . S
C1219 C1216 1.387 . S
C1220 C1221 1.387 . S
C1220 H1224 0.950 . S
C1220 C1229 1.390 . S
C1221 C1220 1.387 . S
C1221 C1223 1.387 . S
H1222 C1229 0.950 1_655 S
C1223 C1221 1.387 . S
C1223 C1225 1.390 . S
C1223 H1227 0.950 . S
H1224 C1220 0.950 . S
C1225 C1223 1.390 . S
C1225 C1226 1.387 1_455 S
C1225 H1228 0.950 . S
C1226 C1225 1.387 1_655 S
C1226 C1229 1.387 1_655 S
H1227 C1223 0.950 . S
H1228 C1225 0.950 . S
C1229 C1220 1.390 . S
C1229 H1222 0.950 1_455 S
C1229 C1226 1.387 1_455 S
C1230 C1231 1.387 . S
C1230 H1234 0.950 . S
C1230 C1239 1.390 . S
C1231 C1230 1.387 . S
C1231 C1233 1.387 . S
H1232 C1239 0.950 . S
C1233 C1231 1.387 . S
C1233 C1235 1.390 . S
C1233 H1237 0.950 . S
H1234 C1230 0.950 . S
C1235 C1233 1.390 . S
C1235 C1236 1.387 . S
C1235 H1238 0.950 . S
C1236 C1235 1.387 . S
C1236 C1239 1.387 . S
H1237 C1233 0.950 . S
H1238 C1235 0.950 . S
C1239 C1230 1.390 . S
C1239 H1232 0.950 . S
C1239 C1236 1.387 . S
C1240 C1241 1.387 . S
C1240 H1244 0.950 . S
C1240 C1249 1.390 . S
C1241 C1240 1.387 . S
C1241 C1243 1.387 . S
H1242 C1249 0.950 . S
C1243 C1241 1.387 . S
C1243 C1245 1.390 . S
C1243 H1247 0.950 . S
H1244 C1240 0.950 . S
C1245 C1243 1.390 . S
C1245 C1246 1.387 . S
C1245 H1248 0.950 . S
C1246 C1245 1.387 . S
C1246 C1249 1.387 . S
H1247 C1243 0.950 . S
H1248 C1245 0.950 . S
C1249 C1240 1.390 . S
C1249 H1242 0.950 . S
C1249 C1246 1.387 . S
C1250 C1251 1.387 . S
C1250 H1254 0.950 . S
C1250 C1259 1.390 . S
C1251 C1250 1.387 . S
C1251 C1253 1.387 . S
H1252 C1259 0.950 . S
C1253 C1251 1.387 . S
C1253 C1255 1.390 . S
C1253 H1257 0.950 . S
H1254 C1250 0.950 . S
C1255 C1253 1.390 . S
C1255 C1256 1.387 . S
C1255 H1258 0.950 . S
C1256 C1255 1.387 . S
C1256 C1259 1.387 . S
H1257 C1253 0.950 . S
H1258 C1255 0.950 . S
C1259 C1250 1.390 . S
C1259 H1252 0.950 . S
C1259 C1256 1.387 . S
C721 C12 1.318 . S
C726 C109 1.340 . S
C731 C29 1.340 . S
C736 C52 1.320 . S
C741 C69 1.340 . S
C746 C92 1.320 . S
C751 C132 1.320 . S
C756 C189 1.340 . S
C761 C229 1.339 . S
C766 C172 1.317 . S
C771 C212 1.320 . S
C776 C149 1.340 . S
C781 C349 1.340 . S
C786 C252 1.317 . S
C791 C269 1.340 . S
C796 C292 1.320 . S
C801 C332 1.320 . S
C806 C309 1.341 . S
C811 C429 1.339 . S
C816 C372 1.318 . S
C821 C412 1.317 . S
C826 C469 1.339 . S
C831 C389 1.340 . S
C836 C452 1.320 . S
C841 C492 1.317 . S
C846 C589 1.340 . S
C851 C509 1.340 . S
C856 C532 1.319 . S
C861 C549 1.341 . S
C866 C572 1.319 . S
C871 C669 1.340 . S
C876 C612 1.320 . S
C881 C709 1.340 . S
C886 C652 1.320 . S
C891 C629 1.340 . S
C896 C692 1.319 . S
C901 C2 1.712 . S
C906 C202 1.712 . S
C911 C122 1.711 . S
C916 C42 1.712 . S
C921 C162 1.709 . S
C926 C82 1.711 . S
C931 C242 1.710 . S
C936 C442 1.710 . S
C941 C282 1.709 . S
C946 C362 1.711 . S
C951 C402 1.712 . S
C956 C322 1.712 . S
C961 C482 1.710 . S
C966 C682 1.710 . S
C971 C602 1.711 . S
C976 C522 1.709 . S
C981 C642 1.709 . S
C986 C562 1.710 . S
C991 C417 2.481 . S
C996 C17 2.481 1_565 S
C1001 C57 2.480 . S
C1006 C457 2.480 . S
C1011 C377 2.480 . S
C1016 C97 2.480 . S
C1021 C137 2.482 1_655 S
C1026 C577 2.482 . S
C1031 C177 2.480 . S
C1036 C497 2.480 . S
C1041 C537 2.481 . S
C1046 C217 2.481 . S
C1051 C657 2.481 . S
C1056 C257 2.481 . S
C1061 C297 2.482 . S
C1066 C697 2.482 . S
C1071 C337 2.482 . S
C1076 C617 2.482 . S
C1081 C88 1.749 . S
C1086 C31 1.815 . S
C1091 C8 1.752 . S
C1096 C71 1.816 . S
C1101 C111 1.816 . S
C1106 C48 1.752 . S
C1111 C168 1.749 . S
C1116 C151 1.815 . S
C1121 C208 1.749 . S
C1126 C191 1.815 . S
C1131 C231 1.815 . S
C1136 C128 1.750 . S
C1141 C328 1.751 . S
C1146 C271 1.815 . S
C1151 C311 1.815 . S
C1156 C248 1.749 . S
C1161 C288 1.750 . S
C1166 C351 1.815 . S
C1171 C391 1.816 . S
C1176 C408 1.752 . S
C1181 C431 1.815 . S
C1186 C448 1.749 . S
C1191 C368 1.750 . S
C1196 C471 1.816 . S
C1201 C511 1.816 . S
C1206 C568 1.752 . S
C1211 C551 1.816 . S
C1216 C488 1.752 . S
C1221 C528 1.749 . S
C1226 C591 1.815 . S
C1231 C631 1.815 . S
C1236 C648 1.749 . S
C1241 C671 1.815 . S
C1246 C688 1.749 . S
C1251 C608 1.752 . S
C1256 C711 1.816 . S
